# Generated by pormake.
# Topology sve, (7)-cn, num edge types: 1
# Building blocks:
#     Node 0, Type 0, BuildingBlock: HICVOG_clean_sbu_0, # of connection points: 7
#     Node 1, Type 0, BuildingBlock: HICVOG_clean_sbu_0, # of connection points: 7
#     Node 2, Type 0, BuildingBlock: HICVOG_clean_sbu_0, # of connection points: 7
#     Node 3, Type 0, BuildingBlock: HICVOG_clean_sbu_0, # of connection points: 7
#     Edge 4, Type (0, 0), BuildingBlock: MIFKUJ_clean_linker_0, # of connection points: 2
#     Edge 5, Type (0, 0), BuildingBlock: MIFKUJ_clean_linker_0, # of connection points: 2
#     Edge 6, Type (0, 0), BuildingBlock: MIFKUJ_clean_linker_0, # of connection points: 2
#     Edge 7, Type (0, 0), BuildingBlock: MIFKUJ_clean_linker_0, # of connection points: 2
#     Edge 8, Type (0, 0), BuildingBlock: MIFKUJ_clean_linker_0, # of connection points: 2
#     Edge 9, Type (0, 0), BuildingBlock: MIFKUJ_clean_linker_0, # of connection points: 2
#     Edge 10, Type (0, 0), BuildingBlock: MIFKUJ_clean_linker_0, # of connection points: 2
#     Edge 11, Type (0, 0), BuildingBlock: MIFKUJ_clean_linker_0, # of connection points: 2
#     Edge 12, Type (0, 0), BuildingBlock: MIFKUJ_clean_linker_0, # of connection points: 2
#     Edge 13, Type (0, 0), BuildingBlock: MIFKUJ_clean_linker_0, # of connection points: 2
#     Edge 14, Type (0, 0), BuildingBlock: MIFKUJ_clean_linker_0, # of connection points: 2
#     Edge 15, Type (0, 0), BuildingBlock: MIFKUJ_clean_linker_0, # of connection points: 2
#     Edge 16, Type (0, 0), BuildingBlock: MIFKUJ_clean_linker_0, # of connection points: 2
#     Edge 17, Type (0, 0), BuildingBlock: MIFKUJ_clean_linker_0, # of connection points: 2
# Relax obj value: 0.256
# Max RMSD: 0.293
# Mean RMSD: 0.256
data_MOF--net-sve--node1-HICVOG_clean_sbu_0--edge1-MIFKUJ_clean_linker_0
_symmetry_space_group_name_H-M    P1
_symmetry_Int_Tables_number       1
_symmetry_cell_setting            triclinic
loop_
_symmetry_equiv_pos_as_xyz
'x, y, z'
_cell_length_a     40.31435
_cell_length_b     36.93405
_cell_length_c     24.960059
_cell_angle_alpha  96.418883
_cell_angle_beta   84.287437
_cell_angle_gamma 89.654752
loop_
_atom_site_label
_atom_site_type_symbol
_atom_site_fract_x
_atom_site_fract_y
_atom_site_fract_z
_atom_type_partial_charge
Zn0 Zn 0.1661 0.30362 0.12725 0.0
C1 C 0.10994 0.37122 0.06262 0.0
N2 N 0.08429 0.35288 0.08445 0.0
C3 C 0.09919 0.32358 0.09953 0.0
N4 N 0.13274 0.32394 0.08718 0.0
N5 N 0.13938 0.35364 0.06303 0.0
C6 C 0.2151 0.42134 0.02588 0.0
O7 O 0.23054 0.3994 0.05349 0.0
O8 O 0.15178 0.256 0.15289 0.0
Zn9 Zn 0.17769 0.35678 0.00938 0.0
N10 N 0.17249 0.34002 0.18751 0.0
C11 C 0.18809 0.40121 0.21172 0.0
C12 C 0.18187 0.37299 0.17251 0.0
C13 C 0.16909 0.33397 0.24067 0.0
N14 N 0.18492 0.39529 0.26458 0.0
C15 C 0.17556 0.36249 0.28072 0.0
O16 O 0.22035 0.32883 0.02064 0.0
C17 C 0.2313 0.3055 0.04886 0.0
O18 O 0.2126 0.29369 0.08712 0.0
H19 H 0.18478 0.37716 0.13018 0.0
H20 H 0.16228 0.30719 0.25117 0.0
C21 C 0.16346 0.34546 0.89428 0.0
C22 C 0.15183 0.3234 0.85019 0.0
C23 C 0.14073 0.27636 0.90691 0.0
C24 C 0.15259 0.29794 0.9498 0.0
N25 N 0.16344 0.33204 0.94305 0.0
N26 N 0.14069 0.28951 0.85843 0.0
H27 H 0.17203 0.37282 0.89033 0.0
C28 C 0.14798 0.23072 0.11523 0.0
O29 O 0.15045 0.23866 0.06499 0.0
O30 O 0.19002 0.40962 1.00231 0.0
H31 H 0.15315 0.28763 0.98852 0.0
H32 H 0.19562 0.42757 0.20027 0.0
H33 H 0.1318 0.24927 0.91194 0.0
Zn34 Zn 0.71119 0.17665 0.07644 0.0
C35 C 0.65993 0.10716 0.98011 0.0
N36 N 0.67983 0.08144 0.99418 0.0
C37 C 0.70147 0.10078 0.0229 0.0
N38 N 0.69502 0.13723 0.02666 0.0
N39 N 0.66861 0.14099 0.99946 0.0
C40 C 0.58586 0.21331 0.95252 0.0
O41 O 0.60388 0.2364 0.92613 0.0
O42 O 0.75967 0.17011 0.09446 0.0
Zn43 Zn 0.65271 0.18404 0.96868 0.0
N44 N 0.67866 0.18011 0.13958 0.0
C45 C 0.62072 0.18963 0.16667 0.0
C46 C 0.64756 0.18781 0.12695 0.0
C47 C 0.68421 0.17453 0.19109 0.0
N48 N 0.62604 0.18391 0.21781 0.0
C49 C 0.65699 0.17652 0.2317 0.0
O50 O 0.67025 0.23323 0.99728 0.0
C51 C 0.69336 0.24676 0.02415 0.0
O52 O 0.71047 0.2272 0.05064 0.0
H53 H 0.64365 0.19217 0.0859 0.0
H54 H 0.70916 0.168 0.19983 0.0
C55 C 0.66288 0.1793 0.84685 0.0
C56 C 0.68544 0.17689 0.79939 0.0
C57 C 0.73049 0.17054 0.85232 0.0
C58 C 0.70842 0.17367 0.89892 0.0
N59 N 0.67518 0.17792 0.89566 0.0
N60 N 0.71855 0.17245 0.80398 0.0
H61 H 0.63642 0.18337 0.84522 0.0
C62 C 0.78296 0.17273 0.05655 0.0
O63 O 0.7747 0.17484 0.00736 0.0
O64 O 0.60089 0.18825 0.97257 0.0
H65 H 0.7178 0.17332 0.93794 0.0
H66 H 0.59582 0.19549 0.157 0.0
H67 H 0.75697 0.16718 0.85453 0.0
Zn68 Zn 0.85942 0.692 0.10005 0.0
C69 C 0.82831 0.59825 0.02709 0.0
N70 N 0.85478 0.58415 0.04673 0.0
C71 C 0.87084 0.61388 0.06558 0.0
N72 N 0.85463 0.64486 0.05853 0.0
N73 N 0.82822 0.63518 0.03292 0.0
C74 C 0.74203 0.66195 0.00496 0.0
O75 O 0.7513 0.67171 0.05337 0.0
O76 O 0.90707 0.7009 0.11365 0.0
Zn77 Zn 0.81092 0.66607 0.98281 0.0
N78 N 0.8308 0.69215 0.16734 0.0
C79 C 0.77433 0.70006 0.20498 0.0
C80 C 0.79821 0.69752 0.16054 0.0
C81 C 0.84068 0.68889 0.21735 0.0
N82 N 0.78402 0.69732 0.25481 0.0
C83 C 0.81651 0.69176 0.26275 0.0
O84 O 0.8081 0.72118 0.00733 0.0
C85 C 0.82271 0.74535 0.03667 0.0
O86 O 0.84369 0.73679 0.06818 0.0
H87 H 0.791 0.70035 0.1207 0.0
H88 H 0.86687 0.68516 0.22176 0.0
C89 C 0.83149 0.65955 0.86563 0.0
C90 C 0.85554 0.65387 0.82018 0.0
C91 C 0.89762 0.64842 0.87909 0.0
C92 C 0.87393 0.65446 0.92366 0.0
N93 N 0.84131 0.65936 0.91639 0.0
N94 N 0.88792 0.64822 0.82865 0.0
H95 H 0.8054 0.66365 0.86085 0.0
C96 C 0.92427 0.71306 0.0743 0.0
O97 O 0.91016 0.71664 0.02988 0.0
O98 O 0.76444 0.65311 0.96617 0.0
H99 H 0.88157 0.65528 0.96387 0.0
H100 H 0.74831 0.70451 0.20005 0.0
H101 H 0.9236 0.64414 0.88449 0.0
Zn102 Zn 0.3685 0.83632 0.93347 0.0
C103 C 0.31298 0.91765 0.99488 0.0
N104 N 0.3317 0.9355 0.95924 0.0
C105 C 0.35939 0.91432 0.94711 0.0
N106 N 0.35665 0.88391 0.97285 0.0
N107 N 0.32846 0.88723 0.00509 0.0
C108 C 0.25225 0.8532 0.05568 0.0
O109 O 0.26654 0.84567 0.00602 0.0
O110 O 0.41743 0.82975 0.91042 0.0
Zn111 Zn 0.31937 0.86221 0.06912 0.0
N112 N 0.34204 0.82968 0.87204 0.0
C113 C 0.2897 0.80862 0.8461 0.0
C114 C 0.31187 0.81503 0.88506 0.0
C115 C 0.35108 0.83834 0.82086 0.0
N116 N 0.29852 0.81716 0.79534 0.0
C117 C 0.32856 0.83187 0.78091 0.0
O118 O 0.32841 0.80874 0.05539 0.0
C119 C 0.34149 0.78457 0.01918 0.0
O120 O 0.35626 0.79295 0.97488 0.0
H121 H 0.30507 0.80836 0.92569 0.0
H122 H 0.37506 0.85047 0.81197 0.0
C123 C 0.34212 0.87309 0.17695 0.0
C124 C 0.36177 0.88955 0.21635 0.0
C125 C 0.38549 0.92748 0.15242 0.0
C126 C 0.36642 0.91086 0.11349 0.0
N127 N 0.34511 0.884 0.12626 0.0
N128 N 0.38295 0.91633 0.20258 0.0
H129 H 0.32511 0.85154 0.18601 0.0
C130 C 0.43749 0.83777 0.94589 0.0
O131 O 0.42573 0.85406 0.99358 0.0
O132 O 0.27025 0.86373 0.09324 0.0
H133 H 0.36847 0.91959 0.07346 0.0
H134 H 0.26563 0.79694 0.85603 0.0
H135 H 0.40204 0.94927 0.14291 0.0
H136 H 0.0645 0.38784 0.99716 0.0
H137 H 0.04047 0.44791 0.99378 0.0
H138 H 0.11684 0.49649 0.08674 0.0
H139 H 0.14051 0.43545 0.09124 0.0
H140 H 0.05966 0.52009 0.13323 0.0
H141 H 0.10782 0.52006 0.95685 0.0
H142 H 0.12796 0.49659 0.86288 0.0
H143 H 0.02723 0.4779 0.82634 0.0
H144 H 0.00642 0.50073 0.92036 0.0
H145 H 0.92589 0.64353 0.01681 0.0
H146 H 0.98354 0.6226 0.01676 0.0
H147 H 0.95116 0.54994 0.13477 0.0
H148 H 0.89402 0.5725 0.13682 0.0
H149 H 1.00502 0.55973 0.97971 0.0
H150 H 0.01316 0.52272 0.20339 0.0
H151 H 0.99892 0.5521 0.2964 0.0
H152 H 0.99668 0.6569 0.23764 0.0
H153 H 0.01125 0.62838 0.14444 0.0
C154 C 0.07704 0.41146 0.01481 0.0
C155 C 0.10456 0.40706 0.04383 0.0
C156 C 0.06327 0.44598 0.01293 0.0
C157 C 0.07676 0.4771 0.03989 0.0
C158 C 0.10592 0.47302 0.06557 0.0
C159 C 0.1198 0.43821 0.06737 0.0
C160 C 0.05736 0.51227 0.04691 0.0
C161 C 0.04798 0.52912 0.09966 0.0
C162 C 0.04341 0.52558 1.00289 0.0
C163 C 0.05554 0.51216 0.94586 0.0
C164 C 0.08993 0.51082 0.92889 0.0
C165 C 0.10148 0.49762 0.87558 0.0
C166 C 0.07889 0.48579 0.83867 0.0
C167 C 0.04469 0.48716 0.85498 0.0
C168 C 0.03299 0.50033 0.90828 0.0
C169 C 0.93147 0.62503 0.04546 0.0
C170 C 0.90563 0.6108 0.07852 0.0
C171 C 0.9644 0.61235 0.04447 0.0
C172 C 0.97202 0.58464 0.07582 0.0
C173 C 0.94638 0.57188 0.11104 0.0
C174 C 0.9136 0.58484 0.11236 0.0
C175 C 1.00513 0.56525 0.0666 0.0
C176 C 0.01718 0.5515 0.01335 0.0
C177 C 0.02231 0.55585 0.11008 0.0
C178 C 0.01351 0.57325 0.16653 0.0
C179 C 0.00998 0.55207 0.21019 0.0
C180 C 1.0017 0.5686 0.26307 0.0
C181 C 0.99692 0.60634 0.27296 0.0
C182 C 1.00035 0.62765 0.22998 0.0
C183 C 0.00858 0.61128 0.17707 0.0
H184 H 0.99051 0.61906 0.31392 0.0
H185 H 0.08792 0.47561 0.79743 0.0
H186 H 0.65239 0.05906 0.89224 0.0
H187 H 0.60097 0.02745 0.87262 0.0
H188 H 0.54588 0.09836 1.00036 0.0
H189 H 0.59744 0.12916 0.02087 0.0
H190 H 0.54046 0.02695 0.01489 0.0
H191 H 0.53124 0.09985 0.86968 0.0
H192 H 0.55168 0.12617 0.78631 0.0
H193 H 0.5634 0.01893 0.69977 0.0
H194 H 0.54364 0.99188 0.78296 0.0
H195 H 0.37637 0.97679 1.00225 0.0
H196 H 0.42862 1.00883 0.99454 0.0
H197 H 0.46884 0.92623 0.86846 0.0
H198 H 0.41506 0.89426 0.87474 0.0
H199 H 0.4854 0.99785 0.84659 0.0
H200 H 0.49099 0.92564 0.99326 0.0
H201 H 0.47405 0.9006 0.07939 0.0
H202 H 0.4706 1.00812 0.16479 0.0
H203 H 0.48664 0.03408 0.0794 0.0
C204 C 0.62899 0.0689 0.91437 0.0
C205 C 0.62862 0.09729 0.9569 0.0
C206 C 0.59965 0.05075 0.90329 0.0
C207 C 0.56952 0.06053 0.93495 0.0
C208 C 0.56881 0.09047 0.97519 0.0
C209 C 0.59815 0.10859 0.98623 0.0
C210 C 0.54007 0.03662 0.93158 0.0
C211 C 0.52809 0.02105 0.97829 0.0
C212 C 0.52501 0.02756 0.88309 0.0
C213 C 0.53629 0.04379 0.83275 0.0
C214 C 0.53843 0.08183 0.83301 0.0
C215 C 0.54987 0.0969 0.78576 0.0
C216 C 0.55892 0.07423 0.73781 0.0
C217 C 0.55643 0.03645 0.73697 0.0
C218 C 0.5451 0.02123 0.78416 0.0
C219 C 0.39611 0.96551 0.97228 0.0
C220 C 0.39169 0.93285 0.93916 0.0
C221 C 0.42615 0.98377 0.9683 0.0
C222 C 0.4529 0.96971 0.93159 0.0
C223 C 0.44855 0.93743 0.89738 0.0
C224 C 0.41806 0.919 0.90128 0.0
C225 C 0.48514 0.98916 0.93058 0.0
C226 C 0.49784 1.00367 0.8831 0.0
C227 C 0.50099 0.99745 0.97856 0.0
C228 C 0.49 0.98185 0.02972 0.0
C229 C 0.48629 0.94402 0.03026 0.0
C230 C 0.47697 0.92964 0.07897 0.0
C231 C 0.47162 0.95269 0.12742 0.0
C232 C 0.47501 0.99027 0.12726 0.0
C233 C 0.48416 1.00484 0.07872 0.0
H234 H 0.46461 0.94143 0.16507 0.0
H235 H 0.56781 0.08595 0.70129 0.0
H236 H 0.21063 0.39889 0.35658 0.0
H237 H 0.20574 0.39543 0.45394 0.0
H238 H 0.13048 0.31366 0.43669 0.0
H239 H 0.13467 0.31744 0.3389 0.0
H240 H 0.11291 0.36693 0.52125 0.0
H241 H 0.20831 0.28958 0.45814 0.0
H242 H 0.26346 0.27395 0.40868 0.0
H243 H 0.30738 0.36076 0.50547 0.0
H244 H 0.25236 0.37724 0.55503 0.0
H245 H 0.11133 0.29883 0.77394 0.0
H246 H 0.11476 0.30991 0.67954 0.0
H247 H 0.19496 0.38466 0.70494 0.0
H248 H 0.19267 0.37255 0.79967 0.0
H249 H 0.21041 0.33853 0.61684 0.0
H250 H 0.11558 0.41435 0.68337 0.0
H251 H 0.06046 0.43006 0.73294 0.0
H252 H 0.01541 0.34733 0.63043 0.0
H253 H 0.0703 0.33073 0.58067 0.0
C254 C 0.19305 0.38003 0.37328 0.0
C255 C 0.1733 0.35818 0.33955 0.0
C256 C 0.19042 0.37799 0.42904 0.0
C257 C 0.16799 0.35404 0.45259 0.0
C258 C 0.14808 0.33222 0.41929 0.0
C259 C 0.15079 0.33413 0.36324 0.0
C260 C 0.16509 0.35233 0.51209 0.0
C261 C 0.1341 0.36026 0.54214 0.0
C262 C 0.19302 0.34484 0.53952 0.0
C263 C 0.22615 0.33487 0.50993 0.0
C264 C 0.22968 0.30552 0.46859 0.0
C265 C 0.26092 0.29648 0.44059 0.0
C266 C 0.28889 0.31641 0.45383 0.0
C267 C 0.28568 0.34537 0.49521 0.0
C268 C 0.25448 0.35456 0.5233 0.0
C269 C 0.12958 0.31795 0.75986 0.0
C270 C 0.15164 0.33483 0.79486 0.0
C271 C 0.13129 0.32449 0.70572 0.0
C272 C 0.15484 0.34847 0.68507 0.0
C273 C 0.17644 0.36617 0.72004 0.0
C274 C 0.17484 0.3595 0.77447 0.0
C275 C 0.15811 0.35293 0.62623 0.0
C276 C 0.1892 0.34548 0.59618 0.0
C277 C 0.13027 0.361 0.59885 0.0
C278 C 0.09714 0.37112 0.6285 0.0
C279 C 0.09397 0.39933 0.67161 0.0
C280 C 0.06276 0.40842 0.69972 0.0
C281 C 0.03448 0.38967 0.68492 0.0
C282 C 0.03734 0.36183 0.64187 0.0
C283 C 0.06849 0.3526 0.61364 0.0
H284 H 0.01035 0.39675 0.70676 0.0
H285 H 0.31306 0.30936 0.43211 0.0
H286 H 0.61162 0.14718 0.30143 0.0
H287 H 0.61318 0.14444 0.3983 0.0
H288 H 0.71065 0.19226 0.38977 0.0
H289 H 0.70946 0.19469 0.29231 0.0
H290 H 0.70758 0.1397 0.45505 0.0
H291 H 0.63928 0.24347 0.43516 0.0
H292 H 0.59292 0.27585 0.40251 0.0
H293 H 0.52233 0.20919 0.48488 0.0
H294 H 0.56832 0.17606 0.51743 0.0
H295 H 0.71923 0.21065 0.72123 0.0
H296 H 0.7099 0.20768 0.62608 0.0
H297 H 0.62047 0.14663 0.65648 0.0
H298 H 0.62976 0.14943 0.75297 0.0
H299 H 0.61608 0.20088 0.5815 0.0
H300 H 0.68605 0.10011 0.60665 0.0
H301 H 0.73342 0.07063 0.64101 0.0
H302 H 0.80195 0.13443 0.54941 0.0
H303 H 0.75494 0.16473 0.51516 0.0
C304 C 0.63357 0.15686 0.32001 0.0
C305 C 0.6604 0.1712 0.28902 0.0
C306 C 0.63432 0.15541 0.37552 0.0
C307 C 0.66171 0.16884 0.40162 0.0
C308 C 0.68918 0.18185 0.37052 0.0
C309 C 0.68856 0.18304 0.31469 0.0
C310 C 0.66132 0.17006 0.46147 0.0
C311 C 0.6877 0.15335 0.48261 0.0
C312 C 0.63494 0.18707 0.49762 0.0
C313 C 0.60725 0.20702 0.47822 0.0
C314 C 0.61388 0.23552 0.44595 0.0
C315 C 0.58767 0.25404 0.42752 0.0
C316 C 0.5547 0.24451 0.44148 0.0
C317 C 0.54788 0.2165 0.47402 0.0
C318 C 0.574 0.19785 0.4925 0.0
C319 C 0.69729 0.19694 0.70799 0.0
C320 C 0.6754 0.17998 0.74453 0.0
C321 C 0.69204 0.19526 0.65352 0.0
C322 C 0.66492 0.17632 0.63404 0.0
C323 C 0.64169 0.16122 0.6708 0.0
C324 C 0.64692 0.16299 0.72587 0.0
C325 C 0.66248 0.17091 0.57476 0.0
C326 C 0.63568 0.18685 0.55379 0.0
C327 C 0.68856 0.1534 0.53868 0.0
C328 C 0.71694 0.13487 0.55862 0.0
C329 C 0.71121 0.10803 0.59411 0.0
C330 C 0.738 0.09115 0.61354 0.0
C331 C 0.77067 0.10069 0.59747 0.0
C332 C 0.77662 0.12707 0.56183 0.0
C333 C 0.74991 0.14408 0.54235 0.0
H334 H 0.79138 0.0876 0.61257 0.0
H335 H 0.53445 0.25889 0.42718 0.0
H336 H 0.78654 0.72931 0.3543 0.0
H337 H 0.7948 0.72232 0.44802 0.0
H338 H 0.87242 0.64195 0.39345 0.0
H339 H 0.86413 0.64869 0.29879 0.0
H340 H 0.82573 0.61958 0.47248 0.0
H341 H 0.89333 0.72335 0.4487 0.0
H342 H 0.90684 0.78436 0.42249 0.0
H343 H 0.8284 0.83182 0.53854 0.0
H344 H 0.81408 0.77099 0.56492 0.0
H345 H 0.8851 0.61361 0.73042 0.0
H346 H 0.87783 0.61917 0.63583 0.0
H347 H 0.80143 0.70163 0.68601 0.0
H348 H 0.8088 0.69644 0.78128 0.0
H349 H 0.84855 0.72252 0.60861 0.0
H350 H 0.78047 0.61886 0.63166 0.0
H351 H 0.76662 0.55789 0.65771 0.0
H352 H 0.84569 0.51026 0.54305 0.0
H353 H 0.86035 0.57106 0.51684 0.0
C354 C 0.80564 0.71037 0.36209 0.0
C355 C 0.82478 0.68968 0.31901 0.0
C356 C 0.81041 0.70653 0.41577 0.0
C357 C 0.83434 0.68177 0.42782 0.0
C358 C 0.85388 0.66131 0.38501 0.0
C359 C 0.84934 0.66543 0.33098 0.0
C360 C 0.83764 0.67644 0.48523 0.0
C361 C 0.83133 0.64192 0.50209 0.0
C362 C 0.8439 0.70587 0.52416 0.0
C363 C 0.85243 0.74253 0.50843 0.0
C364 C 0.87876 0.74674 0.46831 0.0
C365 C 0.8866 0.78131 0.45348 0.0
C366 C 0.86844 0.81194 0.47873 0.0
C367 C 0.84243 0.80806 0.51896 0.0
C368 C 0.83445 0.77354 0.53391 0.0
C369 C 0.86641 0.63262 0.72145 0.0
C370 C 0.8474 0.65441 0.7635 0.0
C371 C 0.86221 0.63567 0.66727 0.0
C372 C 0.83898 0.66068 0.65375 0.0
C373 C 0.81944 0.68206 0.69556 0.0
C374 C 0.82344 0.67879 0.75001 0.0
C375 C 0.83654 0.66568 0.59595 0.0
C376 C 0.84302 0.70015 0.579 0.0
C377 C 0.83042 0.63621 0.55697 0.0
C378 C 0.82172 0.59959 0.57268 0.0
C379 C 0.79511 0.59544 0.61234 0.0
C380 C 0.78707 0.56089 0.62707 0.0
C381 C 0.80532 0.53023 0.60216 0.0
C382 C 0.83161 0.53404 0.56237 0.0
C383 C 0.83977 0.56854 0.54753 0.0
H384 H 0.79905 0.5035 0.61359 0.0
H385 H 0.87456 0.83868 0.46721 0.0
H386 H 0.38974 0.8363 0.71931 0.0
H387 H 0.39892 0.84483 0.62299 0.0
H388 H 0.29276 0.8534 0.61625 0.0
H389 H 0.28329 0.84545 0.71183 0.0
H390 H 0.32206 0.80567 0.53402 0.0
H391 H 0.34116 0.92812 0.61626 0.0
H392 H 0.36923 0.97373 0.6752 0.0
H393 H 0.46347 0.94382 0.58468 0.0
H394 H 0.43599 0.89767 0.52563 0.0
H395 H 0.3066 0.87253 0.28233 0.0
H396 H 0.30434 0.86115 0.37726 0.0
H397 H 0.4112 0.87148 0.37164 0.0
H398 H 0.41329 0.88439 0.27749 0.0
H399 H 0.38608 0.90617 0.45973 0.0
H400 H 0.36884 0.78638 0.37461 0.0
H401 H 0.34285 0.73893 0.31574 0.0
H402 H 0.2486 0.76018 0.4108 0.0
H403 H 0.27393 0.80811 0.46984 0.0
C404 C 0.36834 0.84074 0.69777 0.0
C405 C 0.33571 0.84024 0.72381 0.0
C406 C 0.37365 0.84539 0.64248 0.0
C407 C 0.34649 0.84966 0.6123 0.0
C408 C 0.31409 0.84986 0.63847 0.0
C409 C 0.30878 0.84533 0.69337 0.0
C410 C 0.35126 0.85311 0.55318 0.0
C411 C 0.33585 0.8278 0.51775 0.0
C412 C 0.37013 0.88125 0.5317 0.0
C413 C 0.38658 0.90919 0.56692 0.0
C414 C 0.3679 0.93108 0.6092 0.0
C415 C 0.3837 0.95706 0.64257 0.0
C416 C 0.41813 0.9616 0.63379 0.0
C417 C 0.43681 0.94024 0.59149 0.0
C418 C 0.42114 0.91419 0.55804 0.0
C419 C 0.32965 0.87176 0.30108 0.0
C420 C 0.36017 0.87902 0.27224 0.0
C421 C 0.32838 0.86521 0.35548 0.0
C422 C 0.35768 0.86488 0.38181 0.0
C423 C 0.3882 0.87161 0.3526 0.0
C424 C 0.38939 0.87884 0.29863 0.0
C425 C 0.35644 0.85894 0.44023 0.0
C426 C 0.37253 0.88376 0.47564 0.0
C427 C 0.33853 0.83001 0.46163 0.0
C428 C 0.32324 0.80106 0.42638 0.0
C429 C 0.34253 0.7811 0.38275 0.0
C430 C 0.32792 0.75409 0.34938 0.0
C431 C 0.29408 0.7466 0.35945 0.0
C432 C 0.2748 0.76604 0.40302 0.0
C433 C 0.28928 0.7931 0.43649 0.0
H434 H 0.28282 0.72569 0.33356 0.0
H435 H 0.43031 0.98172 0.65969 0.0
H436 H 0.13272 0.17184 0.04719 0.0
H437 H 0.1461 0.10831 0.05452 0.0
H438 H 0.17753 0.13848 0.21347 0.0
H439 H 0.16435 0.20243 0.2062 0.0
H440 H 0.2265 0.1049 0.14515 0.0
H441 H 0.11421 0.0773 0.19935 0.0
H442 H 0.05316 0.07831 0.19766 0.0
H443 H 0.0639 0.0237 0.03561 0.0
H444 H 0.12506 0.0228 0.03605 0.0
H445 H 0.29968 0.93285 0.10449 0.0
H446 H 0.25583 0.97403 0.15178 0.0
H447 H 0.2156 0.98358 1.00007 0.0
H448 H 0.25921 0.94195 0.95299 0.0
H449 H 0.16607 0.9921 0.09092 0.0
H450 H 0.27526 0.03771 0.02909 0.0
H451 H 0.33663 0.03541 0.02488 0.0
H452 H 0.33101 0.05769 0.19817 0.0
H453 H 0.26948 0.05947 0.20337 0.0
C454 C 0.14155 0.16486 0.08439 0.0
C455 C 0.14799 0.19216 0.12573 0.0
C456 C 0.14895 0.12842 0.08875 0.0
C457 C 0.16283 0.1186 0.13458 0.0
C458 C 0.16678 0.14548 0.17781 0.0
C459 C 0.15918 0.18199 0.1736 0.0
C460 C 0.17842 0.08195 0.13253 0.0
C461 C 0.21299 0.08011 0.13532 0.0
C462 C 0.16103 0.04967 0.11826 0.0
C463 C 0.12425 0.04995 0.11777 0.0
C464 C 0.10357 0.06564 0.16325 0.0
C465 C 0.06894 0.06618 0.16254 0.0
C466 C 0.05466 0.05105 0.11657 0.0
C467 C 0.07499 0.03535 0.07124 0.0
C468 C 0.10964 0.03473 0.07175 0.0
C469 C 0.28061 0.94239 0.08176 0.0
C470 C 0.28261 0.93425 0.0253 0.0
C471 C 0.25556 0.96593 0.10876 0.0
C472 C 0.23267 0.98206 0.0793 0.0
C473 C 0.23288 0.97125 0.02358 0.0
C474 C 0.25791 0.94777 0.99668 0.0
C475 C 0.21387 0.01551 0.10305 0.0
C476 C 0.17906 0.01676 0.10341 0.0
C477 C 0.23095 0.04749 0.11984 0.0
C478 C 0.26786 0.04831 0.11668 0.0
C479 C 0.28714 0.04198 0.06629 0.0
C480 C 0.32192 0.04064 0.06373 0.0
C481 C 0.33772 0.04615 0.11126 0.0
C482 C 0.31874 0.05329 0.16141 0.0
C483 C 0.28391 0.05446 0.1642 0.0
H484 H 0.36466 0.04509 0.1092 0.0
H485 H 0.02784 0.0515 0.11608 0.0
H486 H 0.09169 0.26199 0.0329 0.0
H487 H 0.04123 0.22547 0.0341 0.0
H488 H 0.00626 0.28059 0.19102 0.0
H489 H 0.05671 0.31747 0.1895 0.0
H490 H 0.98596 0.20144 0.169 0.0
H491 H 0.98362 0.31868 0.0984 0.0
H492 H 0.00719 0.36393 0.04038 0.0
H493 H 1.00099 0.28756 0.89892 0.0
H494 H 0.97785 0.24162 0.95633 0.0
H495 H 0.80852 0.19025 0.15473 0.0
H496 H 0.86598 0.20677 0.16977 0.0
H497 H 0.89535 0.18398 0.99827 0.0
H498 H 0.83807 0.16853 0.98303 0.0
H499 H 0.92009 0.24495 0.03037 0.0
H500 H 0.9188 0.12863 0.09801 0.0
H501 H 0.89834 0.08117 0.1545 0.0
H502 H 0.91296 0.15199 0.29845 0.0
H503 H 0.93312 0.20008 0.24281 0.0
C504 C 0.07436 0.26462 0.06924 0.0
C505 C 0.07873 0.29186 0.11188 0.0
C506 C 0.04516 0.2441 0.06953 0.0
C507 C 0.01972 0.2504 0.1125 0.0
C508 C 0.02556 0.27498 0.15762 0.0
C509 C 0.0546 0.29583 0.15699 0.0
C510 C 0.98538 0.23656 0.10596 0.0
C511 C 0.97137 0.2111 0.13905 0.0
C512 C 0.96646 0.2487 0.06637 0.0
C513 C 0.97933 0.27662 0.03166 0.0
C514 C 0.98748 0.31147 0.05495 0.0
C515 C 1.00075 0.33724 0.02219 0.0
C516 C 1.00569 0.32859 0.966 0.0
C517 C 0.9972 0.2942 0.94246 0.0
C518 C 0.98398 0.26829 0.97508 0.0
C519 C 0.82734 0.18819 0.12035 0.0
C520 C 0.8185 0.17805 0.06763 0.0
C521 C 0.86035 0.19761 0.12899 0.0
C522 C 0.88545 0.19659 0.08523 0.0
C523 C 0.87671 0.18531 0.03286 0.0
C524 C 0.8438 0.17627 0.02419 0.0
C525 C 0.92028 0.20916 0.09302 0.0
C526 C 0.93446 0.23483 0.06024 0.0
C527 C 0.93932 0.19689 0.13266 0.0
C528 C 0.92714 0.16809 0.16624 0.0
C529 C 0.91739 0.1342 0.14172 0.0
C530 C 0.9059 0.10716 0.17359 0.0
C531 C 0.90426 0.1136 0.23003 0.0
C532 C 0.91419 0.14706 0.25473 0.0
C533 C 0.92568 0.17421 0.22304 0.0
H534 H 0.89536 0.09263 0.25464 0.0
H535 H 0.01602 0.34856 0.9407 0.0
H536 H 0.86476 0.80282 0.0306 0.0
H537 H 0.85015 0.86756 0.0344 0.0
H538 H 0.74571 0.84141 0.05405 0.0
H539 H 0.7605 0.77645 0.04453 0.0
H540 H 0.74836 0.8913 0.99791 0.0
H541 H 0.7969 0.88125 0.16234 0.0
H542 H 0.83938 0.86522 0.2207 0.0
H543 H 0.90889 0.93638 0.14537 0.0
H544 H 0.86694 0.95248 0.08605 0.0
H545 H 0.68718 0.0642 0.10919 0.0
H546 H 0.71491 1.00682 0.11995 0.0
H547 H 0.79609 0.03109 0.0046 0.0
H548 H 0.76774 0.08827 0.9926 0.0
H549 H 0.80679 0.98496 0.11022 0.0
H550 H 0.75094 0.99132 0.94343 0.0
H551 H 0.70224 1.00907 0.89915 0.0
H552 H 0.63918 0.9436 0.99704 0.0
H553 H 0.68744 0.92619 0.04282 0.0
C554 C 0.83869 0.81099 0.03506 0.0
C555 C 0.81379 0.78455 0.037 0.0
C556 C 0.83025 0.84818 0.03803 0.0
C557 C 0.79665 0.86015 0.04584 0.0
C558 C 0.77181 0.83345 0.04768 0.0
C559 C 0.78025 0.79616 0.04241 0.0
C560 C 0.78726 0.90014 0.05124 0.0
C561 C 0.76118 0.91139 0.02297 0.0
C562 C 0.80364 0.92729 0.08369 0.0
C563 C 0.82889 0.91776 0.11936 0.0
C564 C 0.82132 0.89329 0.15798 0.0
C565 C 0.84529 0.88422 0.19125 0.0
C566 C 0.87685 0.89969 0.18663 0.0
C567 C 0.88446 0.92437 0.14883 0.0
C568 C 0.86059 0.9335 0.1154 0.0
C569 C 0.71197 0.0585 0.08877 0.0
C570 C 0.7255 0.08116 0.05072 0.0
C571 C 0.7276 0.02533 0.09436 0.0
C572 C 0.75741 0.01435 0.06262 0.0
C573 C 0.77316 0.03902 0.02969 0.0
C574 C 0.75718 0.07207 0.02347 0.0
C575 C 0.76844 0.97527 0.05675 0.0
C576 C 0.79448 0.96443 0.08504 0.0
C577 C 0.75144 0.94827 0.02576 0.0
C578 C 0.72271 0.95785 0.99699 0.0
C579 C 0.72664 0.98102 0.95587 0.0
C580 C 0.69912 0.99098 0.93047 0.0
C581 C 0.66761 0.97758 0.94541 0.0
C582 C 0.66359 0.95404 0.98561 0.0
C583 C 0.69101 0.94413 0.0113 0.0
H584 H 0.64633 0.98531 0.92572 0.0
H585 H 0.89537 0.89263 0.21243 0.0
H586 H 0.96626 0.73915 0.99628 0.0
H587 H 0.02173 0.76335 0.00444 0.0
H588 H 0.01677 0.73752 0.1694 0.0
H589 H 0.96094 0.71268 0.16136 0.0
H590 H 0.03683 0.82085 0.07068 0.0
H591 H 0.09978 0.72228 0.19677 0.0
H592 H 0.10055 0.6571 0.21033 0.0
H593 H 0.06783 0.62909 0.0527 0.0
H594 H 0.06725 0.69401 0.03791 0.0
H595 H 0.21874 0.84337 0.15386 0.0
H596 H 0.16135 0.82223 0.17025 0.0
H597 H 0.14881 0.82323 1.0008 0.0
H598 H 0.20577 0.84413 0.98413 0.0
H599 H 0.13604 0.7562 0.11851 0.0
H600 H 0.06996 0.84879 0.98979 0.0
H601 H 0.07461 0.91092 0.96287 0.0
H602 H 0.117 0.94725 0.11026 0.0
H603 H 0.11229 0.88537 0.13842 0.0
C604 C 0.97698 0.73827 0.03423 0.0
C605 C 0.95904 0.72443 0.07842 0.0
C606 C 0.00869 0.75221 0.03884 0.0
C607 C 0.02324 0.75252 0.08762 0.0
C608 C 1.00599 0.73745 0.13133 0.0
C609 C 0.9741 0.7234 0.12673 0.0
C610 C 0.05569 0.77043 0.09283 0.0
C611 C 0.05853 0.80665 0.08105 0.0
C612 C 0.08377 0.75214 0.10754 0.0
C613 C 0.08309 0.71309 0.11658 0.0
C614 C 0.09272 0.70221 0.16504 0.0
C615 C 0.09321 0.66531 0.17287 0.0
C616 C 0.0844 0.63899 0.1323 0.0
C617 C 0.07475 0.64952 0.08401 0.0
C618 C 0.0742 0.68639 0.07599 0.0
C619 C 0.20349 0.83967 0.12036 0.0
C620 C 0.21667 0.84531 0.06769 0.0
C621 C 0.17088 0.82739 0.12973 0.0
C622 C 0.15094 0.82128 0.08675 0.0
C623 C 0.16375 0.82808 0.03457 0.0
C624 C 0.1963 0.83997 0.02511 0.0
C625 C 0.1172 0.80617 0.09507 0.0
C626 C 0.11408 0.77058 0.10947 0.0
C627 C 0.08896 0.82468 0.08156 0.0
C628 C 0.09092 0.86235 0.06606 0.0
C629 C 0.08004 0.87008 0.01668 0.0
C630 C 0.08276 0.90522 1.00113 0.0
C631 C 0.09621 0.93293 0.03473 0.0
C632 C 0.10675 0.92567 0.08417 0.0
C633 C 0.10409 0.89054 0.09992 0.0
H634 H 0.09847 0.95999 0.02232 0.0
H635 H 0.08491 0.61043 0.13836 0.0
H636 H 0.835 0.55014 0.93673 0.0
H637 H 0.8045 0.49322 0.92495 0.0
H638 H 0.73647 0.53083 0.06493 0.0
H639 H 0.76625 0.58834 0.07493 0.0
H640 H 0.80464 0.44594 0.9908 0.0
H641 H 0.66637 0.47974 0.07204 0.0
H642 H 0.62451 0.52826 0.06902 0.0
H643 H 0.67523 0.55633 0.92017 0.0
H644 H 0.71702 0.50754 0.92169 0.0
H645 H 0.7343 0.2888 0.0865 0.0
H646 H 0.75026 0.35196 0.07956 0.0
H647 H 0.68834 0.35682 0.94917 0.0
H648 H 0.67139 0.29401 0.9571 0.0
H649 H 0.68383 0.41973 0.00896 0.0
H650 H 0.77509 0.34274 0.92661 0.0
H651 H 0.81767 0.29394 0.92172 0.0
H652 H 0.86195 0.35177 0.05488 0.0
H653 H 0.81931 0.40069 0.0611 0.0
C654 C 0.8123 0.54708 0.96287 0.0
C655 C 0.80252 0.574 0.00594 0.0
C656 C 0.79521 0.51419 0.95684 0.0
C657 C 0.76824 0.50718 0.99434 0.0
C658 C 0.75679 0.5354 0.03483 0.0
C659 C 0.77364 0.56859 0.04027 0.0
C660 C 0.75515 0.46925 0.99517 0.0
C661 C 0.77818 0.44037 0.99445 0.0
C662 C 0.72065 0.46144 0.99948 0.0
C663 C 0.69502 0.49014 0.99729 0.0
C664 C 0.66847 0.49607 0.03845 0.0
C665 C 0.64476 0.52366 0.03703 0.0
C666 C 0.64726 0.54543 0.99452 0.0
C667 C 0.67337 0.53951 0.95315 0.0
C668 C 0.69708 0.5119 0.9543 0.0
C669 C 0.72386 0.30331 0.05655 0.0
C670 C 0.7017 0.28601 0.02213 0.0
C671 C 0.73315 0.33952 0.05243 0.0
C672 C 0.7211 0.35923 0.01306 0.0
C673 C 0.69814 0.34239 0.97981 0.0
C674 C 0.68852 0.3063 0.98432 0.0
C675 C 0.73337 0.39676 0.00532 0.0
C676 C 0.71025 0.42546 0.00494 0.0
C677 C 0.76787 0.40439 0.99866 0.0
C678 C 0.79382 0.37523 0.9946 0.0
C679 C 0.79379 0.34496 0.95505 0.0
C680 C 0.81795 0.31727 0.95203 0.0
C681 C 0.84245 0.31971 0.98806 0.0
C682 C 0.84292 0.3499 0.02705 0.0
C683 C 0.81878 0.37763 0.03031 0.0
H684 H 0.86111 0.29823 0.9857 0.0
H685 H 0.62895 0.56685 0.99359 0.0
H686 H 0.46546 0.78904 0.86255 0.0
H687 H 0.51902 0.75671 0.85803 0.0
H688 H 0.54072 0.82003 0.00595 0.0
H689 H 0.48738 0.85232 0.01073 0.0
H690 H 0.59621 0.80838 0.9324 0.0
H691 H 0.5061 0.73889 0.01086 0.0
H692 H 0.45212 0.70782 0.01086 0.0
H693 H 0.48992 0.63624 0.87026 0.0
H694 H 0.544 0.66733 0.86892 0.0
H695 H 0.69511 0.70296 0.07122 0.0
H696 H 0.64421 0.7294 0.0459 0.0
H697 H 0.66038 0.669 0.88725 0.0
H698 H 0.71227 0.64287 0.91174 0.0
H699 H 0.58829 0.67593 0.94934 0.0
H700 H 0.68152 0.74196 0.87882 0.0
H701 H 0.73485 0.77405 0.88076 0.0
H702 H 0.69086 0.85307 0.00754 0.0
H703 H 0.63745 0.82081 0.00749 0.0
C704 C 0.48193 0.79663 0.89352 0.0
C705 C 0.47202 0.82302 0.93743 0.0
C706 C 0.51245 0.778 0.89096 0.0
C707 C 0.53354 0.78559 0.93212 0.0
C708 C 0.52474 0.81367 0.97386 0.0
C709 C 0.4942 0.83209 0.97661 0.0
C710 C 0.56348 0.76262 0.93451 0.0
C711 C 0.5945 0.77944 0.93606 0.0
C712 C 0.56127 0.72469 0.93822 0.0
C713 C 0.52893 0.70572 0.93937 0.0
C714 C 0.50281 0.71671 0.97969 0.0
C715 C 0.47221 0.69908 0.97997 0.0
C716 C 0.46755 0.67015 0.94048 0.0
C717 C 0.49354 0.65871 0.90074 0.0
C718 C 0.52416 0.67633 0.9002 0.0
C719 C 0.68761 0.69457 0.03128 0.0
C720 C 0.70794 0.67109 0.99324 0.0
C721 C 0.65856 0.70987 0.01687 0.0
C722 C 0.64896 0.70149 0.96457 0.0
C723 C 0.66763 0.67587 0.92774 0.0
C724 C 0.69717 0.66099 0.94181 0.0
C725 C 0.6208 0.72189 0.948 0.0
C726 C 0.59011 0.70468 0.9443 0.0
C727 C 0.62327 0.75952 0.94252 0.0
C728 C 0.65555 0.77864 0.94361 0.0
C729 C 0.68333 0.76581 0.90777 0.0
C730 C 0.71357 0.7841 0.90841 0.0
C731 C 0.71626 0.81553 0.94429 0.0
C732 C 0.68875 0.82867 0.97982 0.0
C733 C 0.6585 0.81035 0.97956 0.0
H734 H 0.73963 0.82977 0.94435 0.0
H735 H 0.44384 0.65654 0.94076 0.0
H736 H 0.27535 0.44688 0.05025 0.0
H737 H 0.29626 0.50836 0.04817 0.0
H738 H 0.20435 0.54264 0.99262 0.0
H739 H 0.18337 0.48026 0.99326 0.0
H740 H 0.25601 0.57385 0.94137 0.0
H741 H 0.21858 0.56266 0.12463 0.0
H742 H 0.21264 0.53444 0.20996 0.0
H743 H 0.31776 0.54444 0.22209 0.0
H744 H 0.32444 0.5722 0.13632 0.0
H745 H 0.30043 0.75794 0.09882 0.0
H746 H 0.27914 0.69657 0.09947 0.0
H747 H 0.34351 0.6613 0.95415 0.0
H748 H 0.36419 0.72336 0.95198 0.0
H749 H 0.30043 0.63274 0.10749 0.0
H750 H 0.30478 0.59799 0.87397 0.0
H751 H 0.30354 0.6305 0.793 0.0
H752 H 0.25075 0.72036 0.88935 0.0
H753 H 0.25114 0.68812 0.97065 0.0
C754 C 0.25949 0.46739 0.03748 0.0
C755 C 0.22755 0.45874 0.02237 0.0
C756 C 0.27151 0.50263 0.03642 0.0
C757 C 0.25169 0.53036 0.02124 0.0
C758 C 0.22006 0.52171 0.00467 0.0
C759 C 0.20807 0.48612 0.00516 0.0
C760 C 0.26409 0.56834 0.0241 0.0
C761 C 0.26568 0.58675 0.97768 0.0
C762 C 0.27593 0.58569 0.07192 0.0
C763 C 0.27205 0.56925 0.12378 0.0
C764 C 0.24048 0.55861 0.14529 0.0
C765 C 0.23697 0.54272 0.19376 0.0
C766 C 0.26482 0.53758 0.22137 0.0
C767 C 0.29622 0.54841 0.20062 0.0
C768 C 0.29988 0.56425 0.1521 0.0
C769 C 0.31054 0.73712 0.06729 0.0
C770 C 0.33384 0.74582 0.02495 0.0
C771 C 0.29825 0.7019 0.06776 0.0
C772 C 0.30909 0.67438 0.02622 0.0
C773 C 0.33407 0.68228 0.98591 0.0
C774 C 0.34613 0.71773 0.985 0.0
C775 C 0.29321 0.63798 0.02433 0.0
C776 C 0.29086 0.61987 0.07107 0.0
C777 C 0.27953 0.62161 0.97747 0.0
C778 C 0.27832 0.64076 0.92848 0.0
C779 C 0.29273 0.62458 0.8778 0.0
C780 C 0.2922 0.64298 0.83186 0.0
C781 C 0.27718 0.67752 0.83607 0.0
C782 C 0.26246 0.69365 0.88617 0.0
C783 C 0.26283 0.67532 0.93218 0.0
H784 H 0.27689 0.69176 0.80049 0.0
H785 H 0.26205 0.52527 0.2589 0.0
H786 H 0.54696 0.25753 0.90287 0.0
H787 H 0.48712 0.2694 0.91981 0.0
H788 H 0.47993 0.19351 0.03962 0.0
H789 H 0.54013 0.18051 0.02131 0.0
H790 H 0.42681 0.18708 0.98808 0.0
H791 H 0.47922 0.28932 0.07401 0.0
H792 H 0.51813 0.34038 0.083 0.0
H793 H 0.47295 0.39094 0.96085 0.0
H794 H 0.43404 0.3399 0.95057 0.0
H795 H 0.26472 0.25703 0.10175 0.0
H796 H 0.32361 0.23861 0.08688 0.0
H797 H 0.33838 0.30651 0.95711 0.0
H798 H 0.27968 0.32557 0.97239 0.0
H799 H 0.38756 0.31595 0.01986 0.0
H800 H 0.33496 0.20879 0.93587 0.0
H801 H 0.2955 0.15796 0.93572 0.0
H802 H 0.34046 0.11784 0.0669 0.0
H803 H 0.38009 0.16838 0.06787 0.0
C804 C 0.53276 0.24315 0.93273 0.0
C805 C 0.54869 0.21829 0.96107 0.0
C806 C 0.49834 0.25019 0.9427 0.0
C807 C 0.47868 0.23321 0.98217 0.0
C808 C 0.4943 0.20733 0.00927 0.0
C809 C 0.52884 0.19992 0.99881 0.0
C810 C 0.44216 0.24303 0.99525 0.0
C811 C 0.41837 0.2153 0.99568 0.0
C812 C 0.43058 0.27981 0.00516 0.0
C813 C 0.45392 0.3106 0.01116 0.0
C814 C 0.47774 0.31119 0.04877 0.0
C815 C 0.49977 0.34015 0.05414 0.0
C816 C 0.49807 0.36884 0.02242 0.0
C817 C 0.47427 0.36867 0.98534 0.0
C818 C 0.4522 0.33974 0.97975 0.0
C819 C 0.28037 0.26794 0.06977 0.0
C820 C 0.26709 0.29282 0.03823 0.0
C821 C 0.3142 0.25717 0.06108 0.0
C822 C 0.33576 0.2707 0.02031 0.0
C823 C 0.32252 0.29549 0.98877 0.0
C824 C 0.28874 0.30632 0.99747 0.0
C825 C 0.37221 0.26008 0.01141 0.0
C826 C 0.39603 0.28774 0.01207 0.0
C827 C 0.38375 0.22328 0.0036 0.0
C828 C 0.36032 0.1925 1.00219 0.0
C829 C 0.33635 0.18915 0.96476 0.0
C830 C 0.31399 0.16034 0.96446 0.0
C831 C 0.31545 0.13463 1.00127 0.0
C832 C 0.33938 0.13762 0.03829 0.0
C833 C 0.36184 0.1663 0.03865 0.0
H834 H 0.29807 0.11241 1.0011 0.0
H835 H 0.51514 0.39125 0.02665 0.0
loop_
_geom_bond_atom_site_label_1
_geom_bond_atom_site_label_2
_geom_bond_distance
_geom_bond_site_symmetry_2
_ccdc_geom_bond_type
Zn0 N4 2.020 . S
Zn0 O8 2.019 . S
Zn0 N10 2.119 . S
Zn0 O18 1.975 . S
C1 N2 1.334 . S
C1 N5 1.336 . S
N2 C1 1.334 . S
N2 C3 1.334 . S
C3 N2 1.334 . S
C3 N4 1.336 . S
N4 Zn0 2.020 . S
N4 C3 1.336 . S
N4 N5 1.354 . S
N5 C1 1.336 . S
N5 N4 1.354 . S
N5 Zn9 2.020 . S
C6 O7 1.244 . S
C6 O30 1.257 . S
O7 C6 1.244 . S
O8 Zn0 2.019 . S
O8 C28 1.257 . S
Zn9 N5 2.020 . S
Zn9 O16 1.975 . S
Zn9 N25 2.119 1_554 S
Zn9 O30 2.019 . S
N10 Zn0 2.119 . S
N10 C12 1.334 . S
N10 C13 1.328 . S
C11 C12 1.391 . S
C11 N14 1.329 . S
C11 H32 0.930 . S
C12 N10 1.334 . S
C12 C11 1.391 . S
C12 H19 0.930 . S
C13 N10 1.328 . S
C13 C15 1.392 . S
C13 H20 0.930 . S
N14 C11 1.329 . S
N14 C15 1.331 . S
C15 C13 1.392 . S
C15 N14 1.331 . S
O16 Zn9 1.975 . S
O16 C17 1.252 . S
C17 O16 1.252 . S
C17 O18 1.252 . S
O18 Zn0 1.975 . S
O18 C17 1.252 . S
H19 C12 0.930 . S
H20 C13 0.930 . S
C21 C22 1.392 . S
C21 N25 1.328 . S
C21 H27 0.930 . S
C22 C21 1.392 . S
C22 N26 1.331 . S
C23 C24 1.391 . S
C23 N26 1.329 . S
C23 H33 0.930 . S
C24 C23 1.391 . S
C24 N25 1.334 . S
C24 H31 0.930 . S
N25 Zn9 2.119 1_556 S
N25 C21 1.328 . S
N25 C24 1.334 . S
N26 C22 1.331 . S
N26 C23 1.329 . S
H27 C21 0.930 . S
C28 O8 1.257 . S
C28 O29 1.244 . S
O29 C28 1.244 . S
O30 C6 1.257 . S
O30 Zn9 2.019 . S
H31 C24 0.930 . S
H32 C11 0.930 . S
H33 C23 0.930 . S
Zn34 N38 2.020 . S
Zn34 O42 2.019 . S
Zn34 N44 2.119 . S
Zn34 O52 1.975 . S
C35 N36 1.334 1_556 S
C35 N39 1.337 . S
N36 C35 1.334 1_554 S
N36 C37 1.334 . S
C37 N36 1.334 . S
C37 N38 1.336 . S
N38 Zn34 2.020 . S
N38 C37 1.336 . S
N38 N39 1.346 1_554 S
N39 C35 1.337 . S
N39 N38 1.346 1_556 S
N39 Zn43 2.026 . S
C40 O41 1.244 1_556 S
C40 O64 1.257 . S
O41 C40 1.244 1_554 S
O42 Zn34 2.019 . S
O42 C62 1.257 . S
Zn43 N39 2.026 . S
Zn43 O50 1.975 1_556 S
Zn43 N59 2.119 . S
Zn43 O64 2.019 . S
N44 Zn34 2.119 . S
N44 C46 1.334 . S
N44 C47 1.328 . S
C45 C46 1.391 . S
C45 N48 1.329 . S
C45 H66 0.930 . S
C46 N44 1.334 . S
C46 C45 1.391 . S
C46 H53 0.930 . S
C47 N44 1.328 . S
C47 C49 1.392 . S
C47 H54 0.930 . S
N48 C45 1.329 . S
N48 C49 1.331 . S
C49 C47 1.392 . S
C49 N48 1.331 . S
O50 Zn43 1.975 1_554 S
O50 C51 1.252 . S
C51 O50 1.252 . S
C51 O52 1.252 . S
O52 Zn34 1.975 . S
O52 C51 1.252 . S
H53 C46 0.930 . S
H54 C47 0.930 . S
C55 C56 1.392 . S
C55 N59 1.328 . S
C55 H61 0.930 . S
C56 C55 1.392 . S
C56 N60 1.331 . S
C57 C58 1.391 . S
C57 N60 1.329 . S
C57 H67 0.930 . S
C58 C57 1.391 . S
C58 N59 1.334 . S
C58 H65 0.930 . S
N59 Zn43 2.119 . S
N59 C55 1.328 . S
N59 C58 1.334 . S
N60 C56 1.331 . S
N60 C57 1.329 . S
H61 C55 0.930 . S
C62 O42 1.257 . S
C62 O63 1.244 1_554 S
O63 C62 1.244 1_556 S
O64 C40 1.257 . S
O64 Zn43 2.019 . S
H65 C58 0.930 . S
H66 C45 0.930 . S
H67 C57 0.930 . S
Zn68 N72 2.020 . S
Zn68 O76 2.019 . S
Zn68 N78 2.119 . S
Zn68 O86 1.975 . S
C69 N70 1.334 . S
C69 N73 1.336 . S
N70 C69 1.334 . S
N70 C71 1.334 . S
C71 N70 1.334 . S
C71 N72 1.336 . S
N72 Zn68 2.020 . S
N72 C71 1.336 . S
N72 N73 1.354 . S
N73 C69 1.336 . S
N73 N72 1.354 . S
N73 Zn77 2.020 1_554 S
C74 O75 1.244 . S
C74 O98 1.257 1_554 S
O75 C74 1.244 . S
O76 Zn68 2.019 . S
O76 C96 1.257 . S
Zn77 N73 2.020 1_556 S
Zn77 O84 1.975 1_556 S
Zn77 N93 2.119 . S
Zn77 O98 2.019 . S
N78 Zn68 2.119 . S
N78 C80 1.334 . S
N78 C81 1.328 . S
C79 C80 1.391 . S
C79 N82 1.329 . S
C79 H100 0.930 . S
C80 N78 1.334 . S
C80 C79 1.391 . S
C80 H87 0.930 . S
C81 N78 1.328 . S
C81 C83 1.392 . S
C81 H88 0.930 . S
N82 C79 1.329 . S
N82 C83 1.331 . S
C83 C81 1.392 . S
C83 N82 1.331 . S
O84 Zn77 1.975 1_554 S
O84 C85 1.252 . S
C85 O84 1.252 . S
C85 O86 1.252 . S
O86 Zn68 1.975 . S
O86 C85 1.252 . S
H87 C80 0.930 . S
H88 C81 0.930 . S
C89 C90 1.392 . S
C89 N93 1.328 . S
C89 H95 0.930 . S
C90 C89 1.392 . S
C90 N94 1.331 . S
C91 C92 1.391 . S
C91 N94 1.329 . S
C91 H101 0.930 . S
C92 C91 1.391 . S
C92 N93 1.334 . S
C92 H99 0.930 . S
N93 Zn77 2.119 . S
N93 C89 1.328 . S
N93 C92 1.334 . S
N94 C90 1.331 . S
N94 C91 1.329 . S
H95 C89 0.930 . S
C96 O76 1.257 . S
C96 O97 1.244 . S
O97 C96 1.244 . S
O98 C74 1.257 1_556 S
O98 Zn77 2.019 . S
H99 C92 0.930 . S
H100 C79 0.930 . S
H101 C91 0.930 . S
Zn102 N106 2.020 . S
Zn102 O110 2.019 . S
Zn102 N112 2.119 . S
Zn102 O120 1.975 . S
C103 N104 1.334 . S
C103 N107 1.336 . S
N104 C103 1.334 . S
N104 C105 1.334 1_554 S
C105 N104 1.334 1_556 S
C105 N106 1.336 . S
N106 Zn102 2.020 . S
N106 C105 1.336 . S
N106 N107 1.354 1_556 S
N107 C103 1.336 . S
N107 N106 1.354 1_554 S
N107 Zn111 2.020 . S
C108 O109 1.244 1_554 S
C108 O132 1.257 . S
O109 C108 1.244 1_556 S
O110 Zn102 2.019 . S
O110 C130 1.257 . S
Zn111 N107 2.020 . S
Zn111 O118 1.975 . S
Zn111 N127 2.119 . S
Zn111 O132 2.019 . S
N112 Zn102 2.119 . S
N112 C114 1.334 . S
N112 C115 1.328 . S
C113 C114 1.391 . S
C113 N116 1.329 . S
C113 H134 0.930 . S
C114 N112 1.334 . S
C114 C113 1.391 . S
C114 H121 0.930 . S
C115 N112 1.328 . S
C115 C117 1.392 . S
C115 H122 0.930 . S
N116 C113 1.329 . S
N116 C117 1.331 . S
C117 C115 1.392 . S
C117 N116 1.331 . S
O118 Zn111 1.975 . S
O118 C119 1.251 1_554 S
C119 O118 1.251 1_556 S
C119 O120 1.254 . S
O120 Zn102 1.975 . S
O120 C119 1.254 . S
H121 C114 0.930 . S
H122 C115 0.930 . S
C123 C124 1.392 . S
C123 N127 1.328 . S
C123 H129 0.930 . S
C124 C123 1.392 . S
C124 N128 1.331 . S
C125 C126 1.391 . S
C125 N128 1.329 . S
C125 H135 0.930 . S
C126 C125 1.391 . S
C126 N127 1.334 . S
C126 H133 0.930 . S
N127 Zn111 2.119 . S
N127 C123 1.328 . S
N127 C126 1.334 . S
N128 C124 1.331 . S
N128 C125 1.329 . S
H129 C123 0.930 . S
C130 O110 1.257 . S
C130 O131 1.244 1_556 S
O131 C130 1.244 1_554 S
O132 C108 1.257 . S
O132 Zn111 2.019 . S
H133 C126 0.930 . S
H134 C113 0.930 . S
H135 C125 0.930 . S
H136 C154 0.951 . S
H137 C156 0.951 . S
H138 C158 0.950 . S
H139 C159 0.950 . S
H140 C161 0.950 . S
H141 C164 0.950 . S
H142 C165 0.950 . S
H143 C167 0.950 . S
H144 C168 0.950 . S
H145 C169 0.951 . S
H146 C171 0.951 . S
H147 C173 0.950 . S
H148 C174 0.950 . S
H149 C176 0.950 1_556 S
H150 C179 0.950 . S
H151 C180 0.950 . S
H152 C182 0.950 . S
H153 C183 0.950 . S
C154 H136 0.951 . S
C154 C155 1.366 . S
C154 C156 1.388 . S
C155 C154 1.366 . S
C155 C159 1.385 . S
C156 H137 0.951 . S
C156 C154 1.388 . S
C156 C157 1.366 . S
C157 C156 1.366 . S
C157 C158 1.414 . S
C157 C160 1.499 . S
C158 H138 0.950 . S
C158 C157 1.414 . S
C158 C159 1.374 . S
C159 H139 0.950 . S
C159 C155 1.385 . S
C159 C158 1.374 . S
C160 C157 1.499 . S
C160 C161 1.373 . S
C160 C162 1.389 1_455 S
C161 H140 0.950 . S
C161 C160 1.373 . S
C161 C177 1.377 1_455 S
C162 C160 1.389 1_655 S
C162 C163 1.524 1_554 S
C162 C176 1.377 . S
C163 C162 1.524 1_556 S
C163 C164 1.397 1_655 S
C163 C168 1.363 . S
C164 H141 0.950 . S
C164 C163 1.397 1_455 S
C164 C165 1.334 . S
C165 H142 0.950 . S
C165 C164 1.334 . S
C165 C166 1.287 1_455 S
C166 C165 1.287 1_655 S
C166 C167 1.524 . S
C166 H185 0.913 . S
C167 H143 0.950 . S
C167 C166 1.524 . S
C167 C168 1.415 . S
C168 H144 0.950 . S
C168 C163 1.363 . S
C168 C167 1.415 . S
C169 H145 0.951 . S
C169 C170 1.366 . S
C169 C171 1.388 . S
C170 C169 1.366 . S
C170 C174 1.385 . S
C171 H146 0.951 . S
C171 C169 1.388 . S
C171 C172 1.366 . S
C172 C171 1.366 . S
C172 C173 1.414 . S
C172 C175 1.499 . S
C173 H147 0.950 . S
C173 C172 1.414 . S
C173 C174 1.374 . S
C174 H148 0.950 . S
C174 C170 1.385 . S
C174 C173 1.374 . S
C175 C172 1.499 . S
C175 C176 1.373 . S
C175 C177 1.389 . S
C176 H149 0.950 1_554 S
C176 C162 1.377 . S
C176 C175 1.373 . S
C177 C161 1.377 1_655 S
C177 C175 1.389 . S
C177 C178 1.524 . S
C178 C177 1.524 . S
C178 C179 1.397 . S
C178 C183 1.363 1_655 S
C179 H150 0.950 . S
C179 C178 1.397 . S
C179 C180 1.334 . S
C180 H151 0.950 . S
C180 C179 1.334 . S
C180 C181 1.287 . S
C181 C180 1.287 . S
C181 C182 1.524 1_655 S
C181 H184 0.999 . S
C182 H152 0.950 . S
C182 C181 1.524 1_455 S
C182 C183 1.415 . S
C183 H153 0.950 . S
C183 C178 1.363 1_455 S
C183 C182 1.415 . S
H184 C181 0.999 . S
H185 C166 0.913 . S
H186 C204 0.951 . S
H187 C206 0.951 . S
H188 C208 0.950 . S
H189 C209 0.950 . S
H190 C211 0.950 . S
H191 C214 0.950 . S
H192 C215 0.950 . S
H193 C217 0.950 . S
H194 C218 0.950 . S
H195 C219 0.948 1_554 S
H196 C221 0.951 . S
H197 C223 0.950 . S
H198 C224 0.950 . S
H199 C226 0.950 . S
H200 C229 0.950 . S
H201 C230 0.950 . S
H202 C232 0.950 1_545 S
H203 C233 0.950 . S
C204 H186 0.951 . S
C204 C205 1.366 . S
C204 C206 1.388 . S
C205 C204 1.366 . S
C205 C209 1.385 1_556 S
C206 H187 0.951 . S
C206 C204 1.388 . S
C206 C207 1.366 . S
C207 C206 1.366 . S
C207 C208 1.414 1_556 S
C207 C210 1.499 . S
C208 H188 0.950 . S
C208 C207 1.414 1_554 S
C208 C209 1.374 . S
C209 H189 0.950 . S
C209 C205 1.385 1_554 S
C209 C208 1.374 . S
C210 C207 1.499 . S
C210 C211 1.373 1_556 S
C210 C212 1.389 . S
C211 H190 0.950 . S
C211 C210 1.373 1_554 S
C211 C227 1.377 1_545 S
C212 C210 1.389 . S
C212 C213 1.524 . S
C212 C226 1.377 1_545 S
C213 C212 1.524 . S
C213 C214 1.397 . S
C213 C218 1.363 1_545 S
C214 H191 0.950 . S
C214 C213 1.397 . S
C214 C215 1.334 . S
C215 H192 0.950 . S
C215 C214 1.334 . S
C215 C216 1.287 . S
C216 C215 1.287 . S
C216 C217 1.524 1_545 S
C216 H235 0.913 . S
C217 H193 0.950 . S
C217 C216 1.524 1_565 S
C217 C218 1.415 . S
C218 H194 0.950 . S
C218 C213 1.363 1_565 S
C218 C217 1.415 . S
C219 H195 0.948 1_556 S
C219 C220 1.369 . S
C219 C221 1.388 1_556 S
C220 C219 1.369 . S
C220 C224 1.385 . S
C221 H196 0.951 . S
C221 C219 1.388 1_554 S
C221 C222 1.366 1_554 S
C222 C221 1.366 1_556 S
C222 C223 1.414 . S
C222 C225 1.499 . S
C223 H197 0.950 . S
C223 C222 1.414 . S
C223 C224 1.374 . S
C224 H198 0.950 . S
C224 C220 1.385 . S
C224 C223 1.374 . S
C225 C222 1.499 . S
C225 C226 1.373 . S
C225 C227 1.389 1_556 S
C226 H199 0.950 . S
C226 C212 1.377 1_565 S
C226 C225 1.373 . S
C227 C211 1.377 1_565 S
C227 C225 1.389 1_554 S
C227 C228 1.524 . S
C228 C227 1.524 . S
C228 C229 1.397 . S
C228 C233 1.363 1_565 S
C229 H200 0.950 . S
C229 C228 1.397 . S
C229 C230 1.334 . S
C230 H201 0.950 . S
C230 C229 1.334 . S
C230 C231 1.287 . S
C231 C230 1.287 . S
C231 C232 1.524 . S
C231 H234 0.999 . S
C232 H202 0.950 1_565 S
C232 C231 1.524 . S
C232 C233 1.415 1_565 S
C233 H203 0.950 . S
C233 C228 1.363 1_545 S
C233 C232 1.415 1_545 S
H234 C231 0.999 . S
H235 C216 0.913 . S
H236 C254 0.951 . S
H237 C256 0.951 . S
H238 C258 0.950 . S
H239 C259 0.950 . S
H240 C261 0.950 . S
H241 C264 0.950 . S
H242 C265 0.950 . S
H243 C267 0.950 . S
H244 C268 0.950 . S
H245 C269 0.951 . S
H246 C271 0.951 . S
H247 C273 0.950 . S
H248 C274 0.950 . S
H249 C276 0.950 . S
H250 C279 0.950 . S
H251 C280 0.950 . S
H252 C282 0.950 . S
H253 C283 0.950 . S
C254 H236 0.951 . S
C254 C255 1.366 . S
C254 C256 1.388 . S
C255 C254 1.366 . S
C255 C259 1.385 . S
C256 H237 0.951 . S
C256 C254 1.388 . S
C256 C257 1.366 . S
C257 C256 1.366 . S
C257 C258 1.414 . S
C257 C260 1.499 . S
C258 H238 0.950 . S
C258 C257 1.414 . S
C258 C259 1.374 . S
C259 H239 0.950 . S
C259 C255 1.385 . S
C259 C258 1.374 . S
C260 C257 1.499 . S
C260 C261 1.373 . S
C260 C262 1.389 . S
C261 H240 0.950 . S
C261 C260 1.373 . S
C261 C277 1.377 . S
C262 C260 1.389 . S
C262 C263 1.524 . S
C262 C276 1.377 . S
C263 C262 1.524 . S
C263 C264 1.397 . S
C263 C268 1.363 . S
C264 H241 0.950 . S
C264 C263 1.397 . S
C264 C265 1.334 . S
C265 H242 0.950 . S
C265 C264 1.334 . S
C265 C266 1.287 . S
C266 C265 1.287 . S
C266 C267 1.524 . S
C266 H285 0.913 . S
C267 H243 0.950 . S
C267 C266 1.524 . S
C267 C268 1.415 . S
C268 H244 0.950 . S
C268 C263 1.363 . S
C268 C267 1.415 . S
C269 H245 0.951 . S
C269 C270 1.366 . S
C269 C271 1.388 . S
C270 C269 1.366 . S
C270 C274 1.385 . S
C271 H246 0.951 . S
C271 C269 1.388 . S
C271 C272 1.366 . S
C272 C271 1.366 . S
C272 C273 1.414 . S
C272 C275 1.499 . S
C273 H247 0.950 . S
C273 C272 1.414 . S
C273 C274 1.374 . S
C274 H248 0.950 . S
C274 C270 1.385 . S
C274 C273 1.374 . S
C275 C272 1.499 . S
C275 C276 1.373 . S
C275 C277 1.389 . S
C276 H249 0.950 . S
C276 C262 1.377 . S
C276 C275 1.373 . S
C277 C261 1.377 . S
C277 C275 1.389 . S
C277 C278 1.524 . S
C278 C277 1.524 . S
C278 C279 1.397 . S
C278 C283 1.363 . S
C279 H250 0.950 . S
C279 C278 1.397 . S
C279 C280 1.334 . S
C280 H251 0.950 . S
C280 C279 1.334 . S
C280 C281 1.287 . S
C281 C280 1.287 . S
C281 C282 1.524 . S
C281 H284 0.999 . S
C282 H252 0.950 . S
C282 C281 1.524 . S
C282 C283 1.415 . S
C283 H253 0.950 . S
C283 C278 1.363 . S
C283 C282 1.415 . S
H284 C281 0.999 . S
H285 C266 0.913 . S
H286 C304 0.951 . S
H287 C306 0.951 . S
H288 C308 0.950 . S
H289 C309 0.950 . S
H290 C311 0.950 . S
H291 C314 0.950 . S
H292 C315 0.950 . S
H293 C317 0.950 . S
H294 C318 0.950 . S
H295 C319 0.951 . S
H296 C321 0.951 . S
H297 C323 0.950 . S
H298 C324 0.950 . S
H299 C326 0.950 . S
H300 C329 0.950 . S
H301 C330 0.950 . S
H302 C332 0.950 . S
H303 C333 0.950 . S
C304 H286 0.951 . S
C304 C305 1.366 . S
C304 C306 1.388 . S
C305 C304 1.366 . S
C305 C309 1.385 . S
C306 H287 0.951 . S
C306 C304 1.388 . S
C306 C307 1.366 . S
C307 C306 1.366 . S
C307 C308 1.414 . S
C307 C310 1.499 . S
C308 H288 0.950 . S
C308 C307 1.414 . S
C308 C309 1.374 . S
C309 H289 0.950 . S
C309 C305 1.385 . S
C309 C308 1.374 . S
C310 C307 1.499 . S
C310 C311 1.373 . S
C310 C312 1.389 . S
C311 H290 0.950 . S
C311 C310 1.373 . S
C311 C327 1.377 . S
C312 C310 1.389 . S
C312 C313 1.524 . S
C312 C326 1.377 . S
C313 C312 1.524 . S
C313 C314 1.397 . S
C313 C318 1.363 . S
C314 H291 0.950 . S
C314 C313 1.397 . S
C314 C315 1.334 . S
C315 H292 0.950 . S
C315 C314 1.334 . S
C315 C316 1.287 . S
C316 C315 1.287 . S
C316 C317 1.524 . S
C316 H335 0.913 . S
C317 H293 0.950 . S
C317 C316 1.524 . S
C317 C318 1.415 . S
C318 H294 0.950 . S
C318 C313 1.363 . S
C318 C317 1.415 . S
C319 H295 0.951 . S
C319 C320 1.366 . S
C319 C321 1.388 . S
C320 C319 1.366 . S
C320 C324 1.385 . S
C321 H296 0.951 . S
C321 C319 1.388 . S
C321 C322 1.366 . S
C322 C321 1.366 . S
C322 C323 1.414 . S
C322 C325 1.499 . S
C323 H297 0.950 . S
C323 C322 1.414 . S
C323 C324 1.374 . S
C324 H298 0.950 . S
C324 C320 1.385 . S
C324 C323 1.374 . S
C325 C322 1.499 . S
C325 C326 1.373 . S
C325 C327 1.389 . S
C326 H299 0.950 . S
C326 C312 1.377 . S
C326 C325 1.373 . S
C327 C311 1.377 . S
C327 C325 1.389 . S
C327 C328 1.524 . S
C328 C327 1.524 . S
C328 C329 1.397 . S
C328 C333 1.363 . S
C329 H300 0.950 . S
C329 C328 1.397 . S
C329 C330 1.334 . S
C330 H301 0.950 . S
C330 C329 1.334 . S
C330 C331 1.287 . S
C331 C330 1.287 . S
C331 C332 1.524 . S
C331 H334 0.999 . S
C332 H302 0.950 . S
C332 C331 1.524 . S
C332 C333 1.415 . S
C333 H303 0.950 . S
C333 C328 1.363 . S
C333 C332 1.415 . S
H334 C331 0.999 . S
H335 C316 0.913 . S
H336 C354 0.951 . S
H337 C356 0.951 . S
H338 C358 0.950 . S
H339 C359 0.950 . S
H340 C361 0.950 . S
H341 C364 0.950 . S
H342 C365 0.950 . S
H343 C367 0.950 . S
H344 C368 0.950 . S
H345 C369 0.951 . S
H346 C371 0.951 . S
H347 C373 0.950 . S
H348 C374 0.950 . S
H349 C376 0.950 . S
H350 C379 0.950 . S
H351 C380 0.950 . S
H352 C382 0.950 . S
H353 C383 0.950 . S
C354 H336 0.951 . S
C354 C355 1.366 . S
C354 C356 1.388 . S
C355 C354 1.366 . S
C355 C359 1.385 . S
C356 H337 0.951 . S
C356 C354 1.388 . S
C356 C357 1.366 . S
C357 C356 1.366 . S
C357 C358 1.414 . S
C357 C360 1.499 . S
C358 H338 0.950 . S
C358 C357 1.414 . S
C358 C359 1.374 . S
C359 H339 0.950 . S
C359 C355 1.385 . S
C359 C358 1.374 . S
C360 C357 1.499 . S
C360 C361 1.373 . S
C360 C362 1.389 . S
C361 H340 0.950 . S
C361 C360 1.373 . S
C361 C377 1.377 . S
C362 C360 1.389 . S
C362 C363 1.524 . S
C362 C376 1.377 . S
C363 C362 1.524 . S
C363 C364 1.397 . S
C363 C368 1.363 . S
C364 H341 0.950 . S
C364 C363 1.397 . S
C364 C365 1.334 . S
C365 H342 0.950 . S
C365 C364 1.334 . S
C365 C366 1.287 . S
C366 C365 1.287 . S
C366 C367 1.524 . S
C366 H385 0.913 . S
C367 H343 0.950 . S
C367 C366 1.524 . S
C367 C368 1.415 . S
C368 H344 0.950 . S
C368 C363 1.363 . S
C368 C367 1.415 . S
C369 H345 0.951 . S
C369 C370 1.366 . S
C369 C371 1.388 . S
C370 C369 1.366 . S
C370 C374 1.385 . S
C371 H346 0.951 . S
C371 C369 1.388 . S
C371 C372 1.366 . S
C372 C371 1.366 . S
C372 C373 1.414 . S
C372 C375 1.499 . S
C373 H347 0.950 . S
C373 C372 1.414 . S
C373 C374 1.374 . S
C374 H348 0.950 . S
C374 C370 1.385 . S
C374 C373 1.374 . S
C375 C372 1.499 . S
C375 C376 1.373 . S
C375 C377 1.389 . S
C376 H349 0.950 . S
C376 C362 1.377 . S
C376 C375 1.373 . S
C377 C361 1.377 . S
C377 C375 1.389 . S
C377 C378 1.524 . S
C378 C377 1.524 . S
C378 C379 1.397 . S
C378 C383 1.363 . S
C379 H350 0.950 . S
C379 C378 1.397 . S
C379 C380 1.334 . S
C380 H351 0.950 . S
C380 C379 1.334 . S
C380 C381 1.287 . S
C381 C380 1.287 . S
C381 C382 1.524 . S
C381 H384 0.999 . S
C382 H352 0.950 . S
C382 C381 1.524 . S
C382 C383 1.415 . S
C383 H353 0.950 . S
C383 C378 1.363 . S
C383 C382 1.415 . S
H384 C381 0.999 . S
H385 C366 0.913 . S
H386 C404 0.951 . S
H387 C406 0.951 . S
H388 C408 0.950 . S
H389 C409 0.950 . S
H390 C411 0.950 . S
H391 C414 0.950 . S
H392 C415 0.950 . S
H393 C417 0.950 . S
H394 C418 0.950 . S
H395 C419 0.951 . S
H396 C421 0.951 . S
H397 C423 0.950 . S
H398 C424 0.950 . S
H399 C426 0.950 . S
H400 C429 0.950 . S
H401 C430 0.950 . S
H402 C432 0.950 . S
H403 C433 0.950 . S
C404 H386 0.951 . S
C404 C405 1.366 . S
C404 C406 1.388 . S
C405 C404 1.366 . S
C405 C409 1.385 . S
C406 H387 0.951 . S
C406 C404 1.388 . S
C406 C407 1.366 . S
C407 C406 1.366 . S
C407 C408 1.414 . S
C407 C410 1.499 . S
C408 H388 0.950 . S
C408 C407 1.414 . S
C408 C409 1.374 . S
C409 H389 0.950 . S
C409 C405 1.385 . S
C409 C408 1.374 . S
C410 C407 1.499 . S
C410 C411 1.373 . S
C410 C412 1.389 . S
C411 H390 0.950 . S
C411 C410 1.373 . S
C411 C427 1.377 . S
C412 C410 1.389 . S
C412 C413 1.524 . S
C412 C426 1.377 . S
C413 C412 1.524 . S
C413 C414 1.397 . S
C413 C418 1.363 . S
C414 H391 0.950 . S
C414 C413 1.397 . S
C414 C415 1.334 . S
C415 H392 0.950 . S
C415 C414 1.334 . S
C415 C416 1.287 . S
C416 C415 1.287 . S
C416 C417 1.524 . S
C416 H435 0.913 . S
C417 H393 0.950 . S
C417 C416 1.524 . S
C417 C418 1.415 . S
C418 H394 0.950 . S
C418 C413 1.363 . S
C418 C417 1.415 . S
C419 H395 0.951 . S
C419 C420 1.366 . S
C419 C421 1.388 . S
C420 C419 1.366 . S
C420 C424 1.385 . S
C421 H396 0.951 . S
C421 C419 1.388 . S
C421 C422 1.366 . S
C422 C421 1.366 . S
C422 C423 1.414 . S
C422 C425 1.499 . S
C423 H397 0.950 . S
C423 C422 1.414 . S
C423 C424 1.374 . S
C424 H398 0.950 . S
C424 C420 1.385 . S
C424 C423 1.374 . S
C425 C422 1.499 . S
C425 C426 1.373 . S
C425 C427 1.389 . S
C426 H399 0.950 . S
C426 C412 1.377 . S
C426 C425 1.373 . S
C427 C411 1.377 . S
C427 C425 1.389 . S
C427 C428 1.524 . S
C428 C427 1.524 . S
C428 C429 1.397 . S
C428 C433 1.363 . S
C429 H400 0.950 . S
C429 C428 1.397 . S
C429 C430 1.334 . S
C430 H401 0.950 . S
C430 C429 1.334 . S
C430 C431 1.287 . S
C431 C430 1.287 . S
C431 C432 1.524 . S
C431 H434 0.999 . S
C432 H402 0.950 . S
C432 C431 1.524 . S
C432 C433 1.415 . S
C433 H403 0.950 . S
C433 C428 1.363 . S
C433 C432 1.415 . S
H434 C431 0.999 . S
H435 C416 0.913 . S
H436 C454 0.951 . S
H437 C456 0.951 . S
H438 C458 0.950 . S
H439 C459 0.950 . S
H440 C461 0.950 . S
H441 C464 0.950 . S
H442 C465 0.950 . S
H443 C467 0.950 . S
H444 C468 0.950 . S
H445 C469 0.951 . S
H446 C471 0.951 . S
H447 C473 0.950 . S
H448 C474 0.950 . S
H449 C476 0.950 1_565 S
H450 C479 0.950 1_565 S
H451 C480 0.950 1_565 S
H452 C482 0.950 . S
H453 C483 0.950 . S
C454 H436 0.951 . S
C454 C455 1.366 . S
C454 C456 1.388 . S
C455 C454 1.366 . S
C455 C459 1.385 . S
C456 H437 0.951 . S
C456 C454 1.388 . S
C456 C457 1.366 . S
C457 C456 1.366 . S
C457 C458 1.414 . S
C457 C460 1.499 . S
C458 H438 0.950 . S
C458 C457 1.414 . S
C458 C459 1.374 . S
C459 H439 0.950 . S
C459 C455 1.385 . S
C459 C458 1.374 . S
C460 C457 1.499 . S
C460 C461 1.373 . S
C460 C462 1.389 . S
C461 H440 0.950 . S
C461 C460 1.373 . S
C461 C477 1.377 . S
C462 C460 1.389 . S
C462 C463 1.524 . S
C462 C476 1.377 . S
C463 C462 1.524 . S
C463 C464 1.397 . S
C463 C468 1.363 . S
C464 H441 0.950 . S
C464 C463 1.397 . S
C464 C465 1.334 . S
C465 H442 0.950 . S
C465 C464 1.334 . S
C465 C466 1.287 . S
C466 C465 1.287 . S
C466 C467 1.524 . S
C466 H485 0.913 . S
C467 H443 0.950 . S
C467 C466 1.524 . S
C467 C468 1.415 . S
C468 H444 0.950 . S
C468 C463 1.363 . S
C468 C467 1.415 . S
C469 H445 0.951 . S
C469 C470 1.366 . S
C469 C471 1.388 . S
C470 C469 1.366 . S
C470 C474 1.385 . S
C471 H446 0.951 . S
C471 C469 1.388 . S
C471 C472 1.366 . S
C472 C471 1.366 . S
C472 C473 1.414 . S
C472 C475 1.499 1_565 S
C473 H447 0.950 . S
C473 C472 1.414 . S
C473 C474 1.374 . S
C474 H448 0.950 . S
C474 C470 1.385 . S
C474 C473 1.374 . S
C475 C472 1.499 1_545 S
C475 C476 1.373 . S
C475 C477 1.389 . S
C476 H449 0.950 1_545 S
C476 C462 1.377 . S
C476 C475 1.373 . S
C477 C461 1.377 . S
C477 C475 1.389 . S
C477 C478 1.524 . S
C478 C477 1.524 . S
C478 C479 1.397 1_554 S
C478 C483 1.363 . S
C479 H450 0.950 1_545 S
C479 C478 1.397 1_556 S
C479 C480 1.334 . S
C480 H451 0.950 1_545 S
C480 C479 1.334 . S
C480 C481 1.287 . S
C481 C480 1.287 . S
C481 C482 1.524 1_556 S
C481 H484 0.999 . S
C482 H452 0.950 . S
C482 C481 1.524 1_554 S
C482 C483 1.415 . S
C483 H453 0.950 . S
C483 C478 1.363 . S
C483 C482 1.415 . S
H484 C481 0.999 . S
H485 C466 0.913 . S
H486 C504 0.951 . S
H487 C506 0.951 . S
H488 C508 0.931 1_655 S
H489 C509 0.950 . S
H490 C511 0.950 . S
H491 C514 0.950 1_554 S
H492 C515 0.950 . S
H493 C517 0.950 . S
H494 C518 0.950 . S
H495 C519 0.951 . S
H496 C521 0.951 . S
H497 C523 0.950 1_556 S
H498 C524 0.950 1_556 S
H499 C526 0.950 1_556 S
H500 C529 0.950 . S
H501 C530 0.950 . S
H502 C532 0.950 . S
H503 C533 0.950 . S
C504 H486 0.951 . S
C504 C505 1.366 . S
C504 C506 1.388 . S
C505 C504 1.366 . S
C505 C509 1.385 . S
C506 H487 0.951 . S
C506 C504 1.388 . S
C506 C507 1.366 . S
C507 C506 1.366 . S
C507 C508 1.414 . S
C507 C510 1.499 1_455 S
C508 H488 0.931 1_455 S
C508 C507 1.414 . S
C508 C509 1.374 . S
C509 H489 0.950 . S
C509 C505 1.385 . S
C509 C508 1.374 . S
C510 C507 1.499 1_655 S
C510 C511 1.373 . S
C510 C512 1.389 . S
C511 H490 0.950 . S
C511 C510 1.373 . S
C511 C527 1.377 . S
C512 C510 1.389 . S
C512 C513 1.524 1_554 S
C512 C526 1.377 . S
C513 C512 1.524 1_556 S
C513 C514 1.397 . S
C513 C518 1.363 . S
C514 H491 0.950 1_556 S
C514 C513 1.397 . S
C514 C515 1.334 1_655 S
C515 H492 0.950 . S
C515 C514 1.334 1_455 S
C515 C516 1.287 . S
C516 C515 1.287 . S
C516 C517 1.524 . S
C516 H535 0.913 . S
C517 H493 0.950 . S
C517 C516 1.524 . S
C517 C518 1.415 1_455 S
C518 H494 0.950 . S
C518 C513 1.363 . S
C518 C517 1.415 1_655 S
C519 H495 0.951 . S
C519 C520 1.366 . S
C519 C521 1.388 . S
C520 C519 1.366 . S
C520 C524 1.385 . S
C521 H496 0.951 . S
C521 C519 1.388 . S
C521 C522 1.366 . S
C522 C521 1.366 . S
C522 C523 1.414 . S
C522 C525 1.499 . S
C523 H497 0.950 1_554 S
C523 C522 1.414 . S
C523 C524 1.374 . S
C524 H498 0.950 1_554 S
C524 C520 1.385 . S
C524 C523 1.374 . S
C525 C522 1.499 . S
C525 C526 1.373 . S
C525 C527 1.389 . S
C526 H499 0.950 1_554 S
C526 C512 1.377 . S
C526 C525 1.373 . S
C527 C511 1.377 . S
C527 C525 1.389 . S
C527 C528 1.524 . S
C528 C527 1.524 . S
C528 C529 1.397 . S
C528 C533 1.363 . S
C529 H500 0.950 . S
C529 C528 1.397 . S
C529 C530 1.334 . S
C530 H501 0.950 . S
C530 C529 1.334 . S
C530 C531 1.287 . S
C531 C530 1.287 . S
C531 C532 1.524 . S
C531 H534 0.999 . S
C532 H502 0.950 . S
C532 C531 1.524 . S
C532 C533 1.415 . S
C533 H503 0.950 . S
C533 C528 1.363 . S
C533 C532 1.415 . S
H534 C531 0.999 . S
H535 C516 0.913 . S
H536 C554 0.951 . S
H537 C556 0.951 . S
H538 C558 0.950 . S
H539 C559 0.950 . S
H540 C561 0.953 . S
H541 C564 0.950 . S
H542 C565 0.950 . S
H543 C567 0.950 . S
H544 C568 0.950 . S
H545 C569 0.951 . S
H546 C571 0.951 . S
H547 C573 0.950 . S
H548 C574 0.950 . S
H549 C576 0.950 . S
H550 C579 0.950 . S
H551 C580 0.950 . S
H552 C582 0.950 . S
H553 C583 0.950 1_554 S
C554 H536 0.951 . S
C554 C555 1.366 . S
C554 C556 1.388 . S
C555 C554 1.366 . S
C555 C559 1.385 . S
C556 H537 0.951 . S
C556 C554 1.388 . S
C556 C557 1.366 . S
C557 C556 1.366 . S
C557 C558 1.414 . S
C557 C560 1.499 . S
C558 H538 0.950 . S
C558 C557 1.414 . S
C558 C559 1.374 . S
C559 H539 0.950 . S
C559 C555 1.385 . S
C559 C558 1.374 . S
C560 C557 1.499 . S
C560 C561 1.373 . S
C560 C562 1.389 . S
C561 H540 0.953 . S
C561 C560 1.373 . S
C561 C577 1.377 . S
C562 C560 1.389 . S
C562 C563 1.524 . S
C562 C576 1.377 . S
C563 C562 1.524 . S
C563 C564 1.397 . S
C563 C568 1.363 . S
C564 H541 0.950 . S
C564 C563 1.397 . S
C564 C565 1.334 . S
C565 H542 0.950 . S
C565 C564 1.334 . S
C565 C566 1.287 . S
C566 C565 1.287 . S
C566 C567 1.524 . S
C566 H585 0.913 . S
C567 H543 0.950 . S
C567 C566 1.524 . S
C567 C568 1.415 . S
C568 H544 0.950 . S
C568 C563 1.363 . S
C568 C567 1.415 . S
C569 H545 0.951 . S
C569 C570 1.366 . S
C569 C571 1.388 . S
C570 C569 1.366 . S
C570 C574 1.385 . S
C571 H546 0.951 . S
C571 C569 1.388 . S
C571 C572 1.366 . S
C572 C571 1.366 . S
C572 C573 1.414 . S
C572 C575 1.499 1_545 S
C573 H547 0.950 . S
C573 C572 1.414 . S
C573 C574 1.374 . S
C574 H548 0.950 . S
C574 C570 1.385 . S
C574 C573 1.374 . S
C575 C572 1.499 1_565 S
C575 C576 1.373 . S
C575 C577 1.389 . S
C576 H549 0.950 . S
C576 C562 1.377 . S
C576 C575 1.373 . S
C577 C561 1.377 . S
C577 C575 1.389 . S
C577 C578 1.524 1_554 S
C578 C577 1.524 1_556 S
C578 C579 1.397 . S
C578 C583 1.363 . S
C579 H550 0.950 . S
C579 C578 1.397 . S
C579 C580 1.334 . S
C580 H551 0.950 . S
C580 C579 1.334 . S
C580 C581 1.287 . S
C581 C580 1.287 . S
C581 C582 1.524 . S
C581 H584 0.999 . S
C582 H552 0.950 . S
C582 C581 1.524 . S
C582 C583 1.415 . S
C583 H553 0.950 1_556 S
C583 C578 1.363 . S
C583 C582 1.415 . S
H584 C581 0.999 . S
H585 C566 0.913 . S
H586 C604 0.951 . S
H587 C606 0.951 1_455 S
H588 C608 0.950 . S
H589 C609 0.950 . S
H590 C611 0.950 . S
H591 C614 0.950 . S
H592 C615 0.950 . S
H593 C617 0.950 . S
H594 C618 0.950 . S
H595 C619 0.951 . S
H596 C621 0.951 . S
H597 C623 0.950 . S
H598 C624 0.950 . S
H599 C626 0.950 . S
H600 C629 0.950 . S
H601 C630 0.950 . S
H602 C632 0.950 . S
H603 C633 0.950 . S
C604 H586 0.951 . S
C604 C605 1.366 . S
C604 C606 1.388 . S
C605 C604 1.366 . S
C605 C609 1.385 . S
C606 H587 0.951 1_655 S
C606 C604 1.388 . S
C606 C607 1.366 1_655 S
C607 C606 1.366 1_455 S
C607 C608 1.414 1_455 S
C607 C610 1.499 . S
C608 H588 0.950 . S
C608 C607 1.414 1_655 S
C608 C609 1.374 . S
C609 H589 0.950 . S
C609 C605 1.385 . S
C609 C608 1.374 . S
C610 C607 1.499 . S
C610 C611 1.373 . S
C610 C612 1.389 . S
C611 H590 0.950 . S
C611 C610 1.373 . S
C611 C627 1.377 . S
C612 C610 1.389 . S
C612 C613 1.524 . S
C612 C626 1.377 . S
C613 C612 1.524 . S
C613 C614 1.397 . S
C613 C618 1.363 . S
C614 H591 0.950 . S
C614 C613 1.397 . S
C614 C615 1.334 . S
C615 H592 0.950 . S
C615 C614 1.334 . S
C615 C616 1.287 . S
C616 C615 1.287 . S
C616 C617 1.524 . S
C616 H635 0.913 . S
C617 H593 0.950 . S
C617 C616 1.524 . S
C617 C618 1.415 . S
C618 H594 0.950 . S
C618 C613 1.363 . S
C618 C617 1.415 . S
C619 H595 0.951 . S
C619 C620 1.366 . S
C619 C621 1.388 . S
C620 C619 1.366 . S
C620 C624 1.385 . S
C621 H596 0.951 . S
C621 C619 1.388 . S
C621 C622 1.366 . S
C622 C621 1.366 . S
C622 C623 1.414 . S
C622 C625 1.499 . S
C623 H597 0.950 . S
C623 C622 1.414 . S
C623 C624 1.374 . S
C624 H598 0.950 . S
C624 C620 1.385 . S
C624 C623 1.374 . S
C625 C622 1.499 . S
C625 C626 1.373 . S
C625 C627 1.389 . S
C626 H599 0.950 . S
C626 C612 1.377 . S
C626 C625 1.373 . S
C627 C611 1.377 . S
C627 C625 1.389 . S
C627 C628 1.524 1_554 S
C628 C627 1.524 1_556 S
C628 C629 1.397 . S
C628 C633 1.363 1_556 S
C629 H600 0.950 . S
C629 C628 1.397 . S
C629 C630 1.334 . S
C630 H601 0.950 . S
C630 C629 1.334 . S
C630 C631 1.287 . S
C631 C630 1.287 . S
C631 C632 1.524 . S
C631 H634 0.999 . S
C632 H602 0.950 . S
C632 C631 1.524 . S
C632 C633 1.415 1_556 S
C633 H603 0.950 . S
C633 C628 1.363 1_554 S
C633 C632 1.415 1_554 S
H634 C631 0.999 . S
H635 C616 0.913 . S
H636 C654 0.951 . S
H637 C656 0.951 . S
H638 C658 0.950 . S
H639 C659 0.950 . S
H640 C661 0.950 . S
H641 C664 0.950 1_554 S
H642 C665 0.950 . S
H643 C667 0.950 . S
H644 C668 0.950 . S
H645 C669 0.951 . S
H646 C671 0.951 . S
H647 C673 0.950 . S
H648 C674 0.950 . S
H649 C676 0.950 . S
H650 C679 0.950 1_556 S
H651 C680 0.950 . S
H652 C682 0.950 . S
H653 C683 0.950 . S
C654 H636 0.951 . S
C654 C655 1.366 . S
C654 C656 1.388 . S
C655 C654 1.366 . S
C655 C659 1.385 1_556 S
C656 H637 0.951 . S
C656 C654 1.388 . S
C656 C657 1.366 . S
C657 C656 1.366 . S
C657 C658 1.414 1_556 S
C657 C660 1.499 1_556 S
C658 H638 0.950 . S
C658 C657 1.414 1_554 S
C658 C659 1.374 . S
C659 H639 0.950 . S
C659 C655 1.385 1_554 S
C659 C658 1.374 . S
C660 C657 1.499 1_554 S
C660 C661 1.373 . S
C660 C662 1.389 1_554 S
C661 H640 0.950 . S
C661 C660 1.373 . S
C661 C677 1.377 . S
C662 C660 1.389 1_556 S
C662 C663 1.524 . S
C662 C676 1.377 . S
C663 C662 1.524 . S
C663 C664 1.397 . S
C663 C668 1.363 . S
C664 H641 0.950 1_556 S
C664 C663 1.397 . S
C664 C665 1.334 . S
C665 H642 0.950 . S
C665 C664 1.334 . S
C665 C666 1.287 . S
C666 C665 1.287 . S
C666 C667 1.524 . S
C666 H685 0.913 . S
C667 H643 0.950 . S
C667 C666 1.524 . S
C667 C668 1.415 . S
C668 H644 0.950 . S
C668 C663 1.363 . S
C668 C667 1.415 . S
C669 H645 0.951 . S
C669 C670 1.366 . S
C669 C671 1.388 . S
C670 C669 1.366 . S
C670 C674 1.385 1_554 S
C671 H646 0.951 . S
C671 C669 1.388 . S
C671 C672 1.366 . S
C672 C671 1.366 . S
C672 C673 1.414 1_554 S
C672 C675 1.499 . S
C673 H647 0.950 . S
C673 C672 1.414 1_556 S
C673 C674 1.374 . S
C674 H648 0.950 . S
C674 C670 1.385 1_556 S
C674 C673 1.374 . S
C675 C672 1.499 . S
C675 C676 1.373 1_554 S
C675 C677 1.389 . S
C676 H649 0.950 . S
C676 C662 1.377 . S
C676 C675 1.373 1_556 S
C677 C661 1.377 . S
C677 C675 1.389 . S
C677 C678 1.524 . S
C678 C677 1.524 . S
C678 C679 1.397 . S
C678 C683 1.363 . S
C679 H650 0.950 1_554 S
C679 C678 1.397 . S
C679 C680 1.334 . S
C680 H651 0.950 . S
C680 C679 1.334 . S
C680 C681 1.287 . S
C681 C680 1.287 . S
C681 C682 1.524 . S
C681 H684 0.999 . S
C682 H652 0.950 . S
C682 C681 1.524 . S
C682 C683 1.415 . S
C683 H653 0.950 . S
C683 C678 1.363 . S
C683 C682 1.415 . S
H684 C681 0.999 . S
H685 C666 0.913 . S
H686 C704 0.951 . S
H687 C706 0.951 . S
H688 C708 0.950 . S
H689 C709 0.950 1_554 S
H690 C711 0.950 . S
H691 C714 0.950 . S
H692 C715 0.950 . S
H693 C717 0.950 . S
H694 C718 0.950 . S
H695 C719 0.951 . S
H696 C721 0.951 . S
H697 C723 0.950 . S
H698 C724 0.950 . S
H699 C726 0.950 . S
H700 C729 0.950 . S
H701 C730 0.950 . S
H702 C732 0.950 1_554 S
H703 C733 0.950 1_554 S
C704 H686 0.951 . S
C704 C705 1.366 . S
C704 C706 1.388 . S
C705 C704 1.366 . S
C705 C709 1.385 . S
C706 H687 0.951 . S
C706 C704 1.388 . S
C706 C707 1.366 . S
C707 C706 1.366 . S
C707 C708 1.414 1_556 S
C707 C710 1.499 . S
C708 H688 0.950 . S
C708 C707 1.414 1_554 S
C708 C709 1.374 1_554 S
C709 H689 0.950 1_556 S
C709 C705 1.385 . S
C709 C708 1.374 1_556 S
C710 C707 1.499 . S
C710 C711 1.373 . S
C710 C712 1.389 . S
C711 H690 0.950 . S
C711 C710 1.373 . S
C711 C727 1.377 . S
C712 C710 1.389 . S
C712 C713 1.524 . S
C712 C726 1.377 . S
C713 C712 1.524 . S
C713 C714 1.397 1_556 S
C713 C718 1.363 . S
C714 H691 0.950 . S
C714 C713 1.397 1_554 S
C714 C715 1.334 . S
C715 H692 0.950 . S
C715 C714 1.334 . S
C715 C716 1.287 . S
C716 C715 1.287 . S
C716 C717 1.524 1_554 S
C716 H735 0.913 . S
C717 H693 0.950 . S
C717 C716 1.524 1_556 S
C717 C718 1.415 . S
C718 H694 0.950 . S
C718 C713 1.363 . S
C718 C717 1.415 . S
C719 H695 0.951 . S
C719 C720 1.366 . S
C719 C721 1.388 . S
C720 C719 1.366 . S
C720 C724 1.385 1_554 S
C721 H696 0.951 . S
C721 C719 1.388 . S
C721 C722 1.366 1_554 S
C722 C721 1.366 1_556 S
C722 C723 1.414 . S
C722 C725 1.499 . S
C723 H697 0.950 . S
C723 C722 1.414 . S
C723 C724 1.374 . S
C724 H698 0.950 . S
C724 C720 1.385 1_556 S
C724 C723 1.374 . S
C725 C722 1.499 . S
C725 C726 1.373 . S
C725 C727 1.389 . S
C726 H699 0.950 . S
C726 C712 1.377 . S
C726 C725 1.373 . S
C727 C711 1.377 . S
C727 C725 1.389 . S
C727 C728 1.524 . S
C728 C727 1.524 . S
C728 C729 1.397 . S
C728 C733 1.363 . S
C729 H700 0.950 . S
C729 C728 1.397 . S
C729 C730 1.334 . S
C730 H701 0.950 . S
C730 C729 1.334 . S
C730 C731 1.287 . S
C731 C730 1.287 . S
C731 C732 1.524 . S
C731 H734 0.999 . S
C732 H702 0.950 1_556 S
C732 C731 1.524 . S
C732 C733 1.415 . S
C733 H703 0.950 1_556 S
C733 C728 1.363 . S
C733 C732 1.415 . S
H734 C731 0.999 . S
H735 C716 0.913 . S
H736 C754 0.951 . S
H737 C756 0.951 . S
H738 C758 0.950 . S
H739 C759 0.950 . S
H740 C761 0.950 . S
H741 C764 0.950 . S
H742 C765 0.950 . S
H743 C767 0.950 . S
H744 C768 0.950 . S
H745 C769 0.951 . S
H746 C771 0.951 . S
H747 C773 0.950 . S
H748 C774 0.950 . S
H749 C776 0.950 . S
H750 C779 0.950 . S
H751 C780 0.950 . S
H752 C782 0.950 . S
H753 C783 0.950 . S
C754 H736 0.951 . S
C754 C755 1.366 . S
C754 C756 1.388 . S
C755 C754 1.366 . S
C755 C759 1.385 . S
C756 H737 0.951 . S
C756 C754 1.388 . S
C756 C757 1.366 . S
C757 C756 1.366 . S
C757 C758 1.414 . S
C757 C760 1.499 . S
C758 H738 0.950 . S
C758 C757 1.414 . S
C758 C759 1.374 . S
C759 H739 0.950 . S
C759 C755 1.385 . S
C759 C758 1.374 . S
C760 C757 1.499 . S
C760 C761 1.373 1_554 S
C760 C762 1.389 . S
C761 H740 0.950 . S
C761 C760 1.373 1_556 S
C761 C777 1.377 . S
C762 C760 1.389 . S
C762 C763 1.524 . S
C762 C776 1.377 . S
C763 C762 1.524 . S
C763 C764 1.397 . S
C763 C768 1.363 . S
C764 H741 0.950 . S
C764 C763 1.397 . S
C764 C765 1.334 . S
C765 H742 0.950 . S
C765 C764 1.334 . S
C765 C766 1.287 . S
C766 C765 1.287 . S
C766 C767 1.524 . S
C766 H785 0.913 . S
C767 H743 0.950 . S
C767 C766 1.524 . S
C767 C768 1.415 . S
C768 H744 0.950 . S
C768 C763 1.363 . S
C768 C767 1.415 . S
C769 H745 0.951 . S
C769 C770 1.366 . S
C769 C771 1.388 . S
C770 C769 1.366 . S
C770 C774 1.385 1_556 S
C771 H746 0.951 . S
C771 C769 1.388 . S
C771 C772 1.366 1_556 S
C772 C771 1.366 1_554 S
C772 C773 1.414 . S
C772 C775 1.499 . S
C773 H747 0.950 . S
C773 C772 1.414 . S
C773 C774 1.374 . S
C774 H748 0.950 . S
C774 C770 1.385 1_554 S
C774 C773 1.374 . S
C775 C772 1.499 . S
C775 C776 1.373 . S
C775 C777 1.389 1_554 S
C776 H749 0.950 . S
C776 C762 1.377 . S
C776 C775 1.373 . S
C777 C761 1.377 . S
C777 C775 1.389 1_556 S
C777 C778 1.524 . S
C778 C777 1.524 . S
C778 C779 1.397 . S
C778 C783 1.363 . S
C779 H750 0.950 . S
C779 C778 1.397 . S
C779 C780 1.334 . S
C780 H751 0.950 . S
C780 C779 1.334 . S
C780 C781 1.287 . S
C781 C780 1.287 . S
C781 C782 1.524 . S
C781 H784 0.999 . S
C782 H752 0.950 . S
C782 C781 1.524 . S
C782 C783 1.415 . S
C783 H753 0.950 . S
C783 C778 1.363 . S
C783 C782 1.415 . S
H784 C781 0.999 . S
H785 C766 0.913 . S
H786 C804 0.951 1_556 S
H787 C806 0.951 . S
H788 C808 0.950 . S
H789 C809 0.950 . S
H790 C811 0.950 . S
H791 C814 0.950 . S
H792 C815 0.950 . S
H793 C817 0.950 . S
H794 C818 0.950 . S
H795 C819 0.951 . S
H796 C821 0.951 . S
H797 C823 0.950 . S
H798 C824 0.950 . S
H799 C826 0.950 . S
H800 C829 0.950 . S
H801 C830 0.950 . S
H802 C832 0.950 . S
H803 C833 0.950 . S
C804 H786 0.951 1_554 S
C804 C805 1.366 . S
C804 C806 1.388 . S
C805 C804 1.366 . S
C805 C809 1.385 . S
C806 H787 0.951 . S
C806 C804 1.388 . S
C806 C807 1.366 . S
C807 C806 1.366 . S
C807 C808 1.414 . S
C807 C810 1.499 . S
C808 H788 0.950 . S
C808 C807 1.414 . S
C808 C809 1.374 . S
C809 H789 0.950 . S
C809 C805 1.385 . S
C809 C808 1.374 . S
C810 C807 1.499 . S
C810 C811 1.373 1_554 S
C810 C812 1.389 . S
C811 H790 0.950 . S
C811 C810 1.373 1_556 S
C811 C827 1.377 . S
C812 C810 1.389 . S
C812 C813 1.524 . S
C812 C826 1.377 . S
C813 C812 1.524 . S
C813 C814 1.397 . S
C813 C818 1.363 . S
C814 H791 0.950 . S
C814 C813 1.397 . S
C814 C815 1.334 . S
C815 H792 0.950 . S
C815 C814 1.334 . S
C815 C816 1.287 . S
C816 C815 1.287 . S
C816 C817 1.524 . S
C816 H835 0.913 . S
C817 H793 0.950 . S
C817 C816 1.524 . S
C817 C818 1.415 . S
C818 H794 0.950 . S
C818 C813 1.363 . S
C818 C817 1.415 . S
C819 H795 0.951 . S
C819 C820 1.366 . S
C819 C821 1.388 . S
C820 C819 1.366 . S
C820 C824 1.385 . S
C821 H796 0.951 . S
C821 C819 1.388 . S
C821 C822 1.366 . S
C822 C821 1.366 . S
C822 C823 1.414 . S
C822 C825 1.499 . S
C823 H797 0.950 . S
C823 C822 1.414 . S
C823 C824 1.374 . S
C824 H798 0.950 . S
C824 C820 1.385 . S
C824 C823 1.374 . S
C825 C822 1.499 . S
C825 C826 1.373 . S
C825 C827 1.389 1_554 S
C826 H799 0.950 . S
C826 C812 1.377 . S
C826 C825 1.373 . S
C827 C811 1.377 . S
C827 C825 1.389 1_556 S
C827 C828 1.524 . S
C828 C827 1.524 . S
C828 C829 1.397 . S
C828 C833 1.363 . S
C829 H800 0.950 . S
C829 C828 1.397 . S
C829 C830 1.334 . S
C830 H801 0.950 . S
C830 C829 1.334 . S
C830 C831 1.287 . S
C831 C830 1.287 . S
C831 C832 1.524 . S
C831 H834 0.999 . S
C832 H802 0.950 . S
C832 C831 1.524 . S
C832 C833 1.415 . S
C833 H803 0.950 . S
C833 C828 1.363 . S
C833 C832 1.415 . S
H834 C831 0.999 . S
H835 C816 0.913 . S
C155 C1 1.782 . S
C170 C71 1.784 . S
C205 C35 1.847 . S
C220 C105 1.843 . S
C255 C15 1.643 . S
C270 C22 1.639 . S
C305 C49 1.625 . S
C320 C56 1.628 . S
C355 C83 1.661 . S
C370 C90 1.665 . S
C405 C117 1.875 . S
C420 C124 1.878 . S
C455 C28 1.202 . S
C470 C103 1.149 . S
C505 C3 1.519 . S
C520 C62 1.702 . S
C555 C85 1.774 . S
C570 C37 1.640 . S
C605 C96 0.652 . S
C620 C108 0.658 . S
C655 C69 1.691 1_556 S
C670 C51 1.869 . S
C705 C130 0.684 . S
C720 C74 0.687 . S
C755 C6 0.834 . S
C770 C119 0.831 . S
C805 C40 1.437 1_554 S
C820 C17 1.437 . S
