# Generated by pormake.
# Topology umy, (4)-cn, num edge types: 1
# Building blocks:
#     Node 0, Type 0, BuildingBlock: TATPOV_clean_sbu_0, # of connection points: 4
#     Node 1, Type 0, BuildingBlock: TATPOV_clean_sbu_0, # of connection points: 4
#     Node 2, Type 0, BuildingBlock: TATPOV_clean_sbu_0, # of connection points: 4
#     Node 3, Type 0, BuildingBlock: TATPOV_clean_sbu_0, # of connection points: 4
#     Node 4, Type 0, BuildingBlock: TATPOV_clean_sbu_0, # of connection points: 4
#     Node 5, Type 0, BuildingBlock: TATPOV_clean_sbu_0, # of connection points: 4
#     Node 6, Type 0, BuildingBlock: TATPOV_clean_sbu_0, # of connection points: 4
#     Node 7, Type 0, BuildingBlock: TATPOV_clean_sbu_0, # of connection points: 4
#     Node 8, Type 0, BuildingBlock: TATPOV_clean_sbu_0, # of connection points: 4
#     Node 9, Type 0, BuildingBlock: TATPOV_clean_sbu_0, # of connection points: 4
#     Node 10, Type 0, BuildingBlock: TATPOV_clean_sbu_0, # of connection points: 4
#     Node 11, Type 0, BuildingBlock: TATPOV_clean_sbu_0, # of connection points: 4
#     Edge 12, Type (0, 0), BuildingBlock: AJUNOK_clean_linker_0, # of connection points: 2
#     Edge 13, Type (0, 0), BuildingBlock: AJUNOK_clean_linker_0, # of connection points: 2
#     Edge 14, Type (0, 0), BuildingBlock: AJUNOK_clean_linker_0, # of connection points: 2
#     Edge 15, Type (0, 0), BuildingBlock: AJUNOK_clean_linker_0, # of connection points: 2
#     Edge 16, Type (0, 0), BuildingBlock: AJUNOK_clean_linker_0, # of connection points: 2
#     Edge 17, Type (0, 0), BuildingBlock: AJUNOK_clean_linker_0, # of connection points: 2
#     Edge 18, Type (0, 0), BuildingBlock: AJUNOK_clean_linker_0, # of connection points: 2
#     Edge 19, Type (0, 0), BuildingBlock: AJUNOK_clean_linker_0, # of connection points: 2
#     Edge 20, Type (0, 0), BuildingBlock: AJUNOK_clean_linker_0, # of connection points: 2
#     Edge 21, Type (0, 0), BuildingBlock: AJUNOK_clean_linker_0, # of connection points: 2
#     Edge 22, Type (0, 0), BuildingBlock: AJUNOK_clean_linker_0, # of connection points: 2
#     Edge 23, Type (0, 0), BuildingBlock: AJUNOK_clean_linker_0, # of connection points: 2
#     Edge 24, Type (0, 0), BuildingBlock: AJUNOK_clean_linker_0, # of connection points: 2
#     Edge 25, Type (0, 0), BuildingBlock: AJUNOK_clean_linker_0, # of connection points: 2
#     Edge 26, Type (0, 0), BuildingBlock: AJUNOK_clean_linker_0, # of connection points: 2
#     Edge 27, Type (0, 0), BuildingBlock: AJUNOK_clean_linker_0, # of connection points: 2
#     Edge 28, Type (0, 0), BuildingBlock: AJUNOK_clean_linker_0, # of connection points: 2
#     Edge 29, Type (0, 0), BuildingBlock: AJUNOK_clean_linker_0, # of connection points: 2
#     Edge 30, Type (0, 0), BuildingBlock: AJUNOK_clean_linker_0, # of connection points: 2
#     Edge 31, Type (0, 0), BuildingBlock: AJUNOK_clean_linker_0, # of connection points: 2
#     Edge 32, Type (0, 0), BuildingBlock: AJUNOK_clean_linker_0, # of connection points: 2
#     Edge 33, Type (0, 0), BuildingBlock: AJUNOK_clean_linker_0, # of connection points: 2
#     Edge 34, Type (0, 0), BuildingBlock: AJUNOK_clean_linker_0, # of connection points: 2
#     Edge 35, Type (0, 0), BuildingBlock: AJUNOK_clean_linker_0, # of connection points: 2
# Relax obj value: 0.088
# Max RMSD: 0.117
# Mean RMSD: 0.117
data_MOF--net-umy--node1-TATPOV_clean_sbu_0--edge1-AJUNOK_clean_linker_0
_symmetry_space_group_name_H-M    P1
_symmetry_Int_Tables_number       1
_symmetry_cell_setting            triclinic
loop_
_symmetry_equiv_pos_as_xyz
'x, y, z'
_cell_length_a     29.235992
_cell_length_b     29.271567
_cell_length_c     35.923595
_cell_angle_alpha  90.104922
_cell_angle_beta   90.041422
_cell_angle_gamma 119.92479
loop_
_atom_site_label
_atom_site_type_symbol
_atom_site_fract_x
_atom_site_fract_y
_atom_site_fract_z
_atom_type_partial_charge
Zn0 Zn 0.0972 0.27137 0.1241 0.0
Zn1 Zn 0.09795 0.3569 0.10392 0.0
O2 O 0.01806 0.30438 0.11023 0.0
O3 O 0.0187 0.23259 0.12735 0.0
O4 O 0.09802 0.42267 0.08626 0.0
O5 O 0.1289 0.26479 0.07766 0.0
O6 O 0.13642 0.34053 0.0606 0.0
C7 C 0.99341 0.25604 0.11979 0.0
C8 C 0.14879 0.35225 0.17807 0.0
O9 O 0.13347 0.37636 0.15628 0.0
O10 O 0.14103 0.30698 0.16954 0.0
C11 C 0.13268 0.46936 0.0954 0.0
O12 O 0.17196 0.47638 0.11697 0.0
C13 C 0.14332 0.30141 0.05417 0.0
Zn14 Zn 0.82765 0.10681 0.2843 0.0
Zn15 Zn 0.73481 0.09567 0.26907 0.0
O16 O 0.71574 0.01892 0.27917 0.0
O17 O 0.79365 0.02845 0.2918 0.0
O18 O 0.66525 0.08791 0.25536 0.0
O19 O 0.85567 0.1373 0.23464 0.0
O20 O 0.77988 0.13333 0.2224 0.0
C21 C 0.74426 -0.00096 0.28809 0.0
C22 C 0.79676 0.15999 0.33696 0.0
O23 O 0.75444 0.1386 0.31778 0.0
O24 O 0.8354 0.15435 0.32757 0.0
C25 C 0.62823 0.07163 0.27903 0.0
O26 O 0.63629 0.05991 0.31279 0.0
C27 C 0.82669 0.14584 0.21303 0.0
Zn28 Zn 0.73309 0.81307 0.44698 0.0
Zn29 Zn 0.6366 0.73964 0.44101 0.0
O30 O 0.67914 0.70046 0.448 0.0
O31 O 0.76164 0.76458 0.44912 0.0
O32 O 0.56317 0.67997 0.42922 0.0
O33 O 0.73657 0.84691 0.39916 0.0
O34 O 0.65203 0.78854 0.39427 0.0
C35 C 0.72833 0.71594 0.45035 0.0
C36 C 0.66809 0.81209 0.50822 0.0
O37 O 0.63154 0.77201 0.49137 0.0
O38 O 0.71399 0.83656 0.49436 0.0
C39 C 0.53757 0.63905 0.44914 0.0
O40 O 0.55816 0.63561 0.48081 0.0
C41 C 0.69372 0.82795 0.38136 0.0
Zn42 Zn 0.87775 0.70822 0.61758 0.0
Zn43 Zn 0.9007 0.63468 0.60125 0.0
O44 O 0.97452 0.69823 0.61103 0.0
O45 O 0.95558 0.76044 0.62354 0.0
O46 O 0.91587 0.57832 0.5859 0.0
O47 O 0.83976 0.6987 0.56989 0.0
O48 O 0.85655 0.63514 0.55614 0.0
C49 C 0.98939 0.74565 0.62026 0.0
C50 C 0.83594 0.62396 0.6704 0.0
O51 O 0.86041 0.60709 0.65048 0.0
O52 O 0.83596 0.66582 0.66166 0.0
C53 C 0.93379 0.55809 0.60871 0.0
O54 O 0.94423 0.57594 0.64305 0.0
C55 C 0.83517 0.66261 0.54824 0.0
Zn56 Zn 0.1942 0.94281 0.77322 0.0
Zn57 Zn 0.25692 0.90751 0.76841 0.0
O58 O 0.3005 0.98857 0.77883 0.0
O59 O 0.24636 0.01907 0.77082 0.0
O60 O 0.31437 0.89051 0.75566 0.0
O61 O 0.15147 0.90802 0.7288 0.0
O62 O 0.20447 0.87546 0.72289 0.0
C63 C 0.29209 0.0274 0.77831 0.0
C64 C 0.19238 0.88001 0.83762 0.0
O65 O 0.22424 0.87153 0.81858 0.0
O66 O 0.17494 0.90841 0.82412 0.0
C67 C 0.34512 0.88799 0.77959 0.0
O68 O 0.33839 0.89451 0.81495 0.0
C69 C 0.16539 0.87963 0.7112 0.0
Zn70 Zn 0.29158 0.16472 0.95901 0.0
Zn71 Zn 0.37185 0.26026 0.94812 0.0
O72 O 0.31139 0.27571 0.95472 0.0
O73 O 0.2435 0.19631 0.96233 0.0
O74 O 0.43298 0.33126 0.93847 0.0
O75 O 0.3056 0.13912 0.91113 0.0
O76 O 0.37258 0.21891 0.90135 0.0
C77 C 0.26238 0.2458 0.96079 0.0
C78 C 0.36856 0.19836 0.01736 0.0
O79 O 0.39076 0.24065 0.99839 0.0
O80 O 0.32631 0.15893 0.00591 0.0
C81 C 0.4312 0.36054 0.91316 0.0
O82 O 0.38785 0.34352 0.89341 0.0
C83 C 0.34402 0.17105 0.89134 0.0
Zn84 Zn 0.73359 0.93069 0.72602 0.0
Zn85 Zn 0.63622 0.89346 0.7346 0.0
O86 O 0.67317 0.97452 0.72465 0.0
O87 O 0.75752 0.0063 0.73476 0.0
O88 O 0.5628 0.87668 0.75013 0.0
O89 O 0.74433 0.89121 0.76596 0.0
O90 O 0.66033 0.86115 0.77776 0.0
C91 C 0.71988 0.014 0.72679 0.0
C92 C 0.66833 0.87242 0.66146 0.0
O93 O 0.62925 0.85854 0.68332 0.0
O94 O 0.71491 0.90284 0.67305 0.0
C95 C 0.53436 0.88703 0.72886 0.0
O96 O 0.55212 0.90585 0.6955 0.0
C97 C 0.7042 0.86378 0.7858 0.0
Zn98 Zn 0.83373 0.70095 0.87832 0.0
Zn99 Zn 0.73716 0.62403 0.89075 0.0
O100 O 0.72456 0.68621 0.88217 0.0
O101 O 0.80519 0.75105 0.87241 0.0
O102 O 0.66542 0.565 0.90161 0.0
O103 O 0.8586 0.68898 0.92703 0.0
O104 O 0.77825 0.62332 0.93757 0.0
C105 C 0.75606 0.73435 0.87438 0.0
C106 C 0.79745 0.62019 0.82273 0.0
O107 O 0.7551 0.60084 0.84166 0.0
O108 O 0.83794 0.66221 0.83325 0.0
C109 C 0.62618 0.55368 0.88068 0.0
O110 O 0.63289 0.58219 0.85082 0.0
C111 C 0.82628 0.65156 0.94734 0.0
Zn112 Zn 0.06588 0.8062 0.05583 0.0
Zn113 Zn 0.09807 0.74015 0.05794 0.0
O114 O 0.01614 0.69578 0.05133 0.0
O115 O 0.98979 0.75374 0.05668 0.0
O116 O 0.11903 0.68477 0.06673 0.0
O117 O 0.09906 0.84298 0.10244 0.0
O118 O 0.13047 0.78869 0.10516 0.0
C119 C 0.97888 0.70663 0.05188 0.0
C120 C 0.12749 0.8114 0.99079 0.0
O121 O 0.13184 0.77532 0.00753 0.0
O122 O 0.10218 0.83104 0.00617 0.0
C123 C 0.09959 0.64176 0.04857 0.0
O124 O 0.06585 0.63343 0.02165 0.0
C125 C 0.12626 0.82668 0.11896 0.0
Zn126 Zn 0.27232 0.10339 0.22108 0.0
Zn127 Zn 0.35193 0.09083 0.23867 0.0
O128 O 0.29447 0.01436 0.22713 0.0
O129 O 0.2276 0.02538 0.21238 0.0
O130 O 0.41256 0.08283 0.2553 0.0
O131 O 0.27184 0.13429 0.27002 0.0
O132 O 0.34283 0.12978 0.28415 0.0
C133 C 0.24689 0.99538 0.21633 0.0
C134 C 0.35848 0.15505 0.1702 0.0
O135 O 0.37799 0.13291 0.18998 0.0
O136 O 0.31448 0.15073 0.17869 0.0
C137 C 0.43541 0.06673 0.23327 0.0
O138 O 0.41893 0.05542 0.19865 0.0
C139 C 0.30867 0.14304 0.29238 0.0
Zn140 Zn 0.1611 0.26802 0.38428 0.0
Zn141 Zn 0.2462 0.35454 0.4035 0.0
O142 O 0.27533 0.30371 0.39479 0.0
O143 O 0.20269 0.23147 0.37825 0.0
O144 O 0.31103 0.42233 0.42023 0.0
O145 O 0.1256 0.25978 0.43222 0.0
O146 O 0.19393 0.33591 0.44874 0.0
C147 C 0.25173 0.25543 0.38482 0.0
C148 C 0.1843 0.34893 0.33201 0.0
O149 O 0.22498 0.37333 0.35273 0.0
O150 O 0.14821 0.30306 0.3406 0.0
C151 C 0.34326 0.45551 0.39699 0.0
O152 O 0.33431 0.44545 0.36125 0.0
C153 C 0.14886 0.296 0.45597 0.0
Zn154 Zn 0.86544 0.15805 0.54699 0.0
Zn155 Zn 0.88249 0.25316 0.56298 0.0
O156 O 0.95757 0.26644 0.55693 0.0
O157 O 0.94486 0.18703 0.54644 0.0
O158 O 0.89589 0.32381 0.5789 0.0
O159 O 0.82103 0.12727 0.59229 0.0
O160 O 0.83718 0.20706 0.60695 0.0
C161 C 0.97607 0.23614 0.55015 0.0
C162 C 0.82786 0.20049 0.49022 0.0
O163 O 0.84683 0.24074 0.51149 0.0
O164 O 0.82975 0.15979 0.49956 0.0
C165 C 0.92192 0.36453 0.55905 0.0
O166 O 0.93833 0.35993 0.52595 0.0
C167 C 0.81507 0.15798 0.61393 0.0
C168 C 0.08165 0.54878 0.0442 0.0
C169 C 0.1114 0.59968 0.05951 0.0
C170 C 0.08932 0.50731 0.05565 0.0
C171 C 0.12736 0.5149 0.08272 0.0
H172 H 0.05132 0.54042 0.02365 0.0
H173 H 0.06478 0.4688 0.04327 0.0
S174 S 0.2175 0.64125 0.13044 0.0
N175 N 0.18179 0.65576 0.10246 0.0
N176 N 0.19635 0.57799 0.12381 0.0
C177 C 0.15834 0.56592 0.09767 0.0
C178 C 0.15031 0.60818 0.08613 0.0
C179 C 0.56465 0.06638 0.23056 0.0
C180 C 0.57726 0.06716 0.26846 0.0
C181 C 0.51794 0.06467 0.21947 0.0
C182 C 0.48235 0.06439 0.24585 0.0
H183 H 0.59124 0.06744 0.20914 0.0
H184 H 0.51045 0.06495 0.18996 0.0
S185 S 0.49557 0.06356 0.34866 0.0
N186 N 0.54931 0.06545 0.33247 0.0
N187 N 0.46164 0.06271 0.31166 0.0
C188 C 0.49384 0.06401 0.28389 0.0
C189 C 0.54123 0.06521 0.29519 0.0
C190 C 0.45607 0.55132 0.45938 0.0
C191 C 0.48668 0.59417 0.43568 0.0
C192 C 0.4093 0.50726 0.4469 0.0
C193 C 0.39142 0.50385 0.41005 0.0
H194 H 0.46846 0.55149 0.48782 0.0
H195 H 0.38762 0.47512 0.46617 0.0
S196 S 0.45551 0.60625 0.33708 0.0
N197 N 0.49438 0.63102 0.37373 0.0
N198 N 0.40699 0.54824 0.35034 0.0
C199 C 0.42108 0.54678 0.3862 0.0
C200 C 0.46847 0.59187 0.39899 0.0
C201 C 0.93828 0.50098 0.559 0.0
C202 C 0.93738 0.51154 0.59717 0.0
C203 C 0.9355 0.4542 0.54687 0.0
C204 C 0.93082 0.41595 0.57248 0.0
H205 H 0.94002 0.52857 0.53821 0.0
H206 H 0.93487 0.44712 0.51721 0.0
S207 S 0.9317 0.42638 0.6755 0.0
N208 N 0.93558 0.48151 0.66057 0.0
N209 N 0.92962 0.39319 0.63772 0.0
C210 C 0.93211 0.42687 0.61074 0.0
C211 C 0.93568 0.47484 0.62312 0.0
C212 C 0.45171 0.89075 0.71736 0.0
C213 C 0.48396 0.88231 0.74228 0.0
C214 C 0.40617 0.89083 0.7295 0.0
C215 C 0.39099 0.88292 0.76719 0.0
H216 H 0.46209 0.89827 0.6882 0.0
H217 H 0.38353 0.89864 0.7092 0.0
S218 S 0.45942 0.8552 0.8435 0.0
N219 N 0.49563 0.86278 0.80629 0.0
N220 N 0.41033 0.86332 0.82908 0.0
C221 C 0.42189 0.87277 0.79228 0.0
C222 C 0.46818 0.87232 0.77985 0.0
C223 C 0.52464 0.42734 0.92645 0.0
C224 C 0.47882 0.41177 0.90514 0.0
C225 C 0.57146 0.47371 0.91865 0.0
C226 C 0.57469 0.50667 0.88913 0.0
H227 H 0.52487 0.40315 0.94917 0.0
H228 H 0.60566 0.48311 0.93567 0.0
S229 S 0.46497 0.48616 0.82645 0.0
N230 N 0.43866 0.43456 0.85437 0.0
N231 N 0.52715 0.52216 0.83963 0.0
C232 C 0.52883 0.4926 0.86817 0.0
C233 C 0.48081 0.4451 0.87619 0.0
C234 C 0.14535 0.24801 0.00179 0.0
C235 C 0.16884 0.297 0.02011 0.0
C236 C 0.17487 0.234 0.9787 0.0
C237 C 0.22927 0.26823 0.97348 0.0
H238 H 0.10487 0.21853 0.00786 0.0
H239 H 0.15583 0.19427 0.96757 0.0
S240 S 0.30662 0.4053 0.00956 0.0
N241 N 0.24701 0.38294 0.02713 0.0
N242 N 0.30324 0.357 0.98367 0.0
C243 C 0.25166 0.31985 0.98807 0.0
C244 C 0.22123 0.33413 0.01154 0.0
C245 C 0.87576 0.22755 0.17664 0.0
C246 C 0.84985 0.17223 0.17776 0.0
C247 C 0.91876 0.25588 0.1527 0.0
C248 C 0.93708 0.22933 0.12983 0.0
H249 H 0.86701 0.24904 0.19736 0.0
H250 H 0.94165 0.29834 0.15573 0.0
S251 S 0.874 0.08489 0.1164 0.0
N252 N 0.83871 0.09215 0.14934 0.0
N253 N 0.91944 0.14514 0.10432 0.0
C254 C 0.90658 0.1742 0.12702 0.0
C255 C 0.86291 0.14558 0.15119 0.0
C256 C 0.66062 0.87838 0.34563 0.0
C257 C 0.69329 0.85594 0.34751 0.0
C258 C 0.67379 0.9218 0.32236 0.0
C259 C 0.72007 0.94379 0.30066 0.0
H260 H 0.62821 0.86617 0.365 0.0
H261 H 0.65082 0.94146 0.32443 0.0
S262 S 0.81042 0.89027 0.28913 0.0
N263 N 0.76747 0.85202 0.32078 0.0
N264 N 0.79217 0.93328 0.2771 0.0
C265 C 0.74877 0.91713 0.29885 0.0
C266 C 0.73536 0.87319 0.32235 0.0
C267 C 0.80075 0.69591 0.45731 0.0
C268 C 0.74739 0.68061 0.4635 0.0
C269 C 0.8286 0.68259 0.48265 0.0
C270 C 0.80359 0.65309 0.51448 0.0
H271 H 0.82276 0.7238 0.43548 0.0
H272 H 0.87103 0.70079 0.47972 0.0
S273 S 0.66184 0.59161 0.53795 0.0
N274 N 0.66829 0.62498 0.4994 0.0
N275 N 0.72103 0.60022 0.54709 0.0
C276 C 0.74874 0.63072 0.51776 0.0
C277 C 0.72028 0.64412 0.49195 0.0
C278 C 0.06128 0.83559 0.63698 0.0
C279 C 0.04396 0.78151 0.63358 0.0
C280 C 0.10445 0.86837 0.65945 0.0
C281 C 0.1322 0.84852 0.67937 0.0
H282 H 0.039 0.85204 0.62438 0.0
H283 H 0.11383 0.90888 0.6633 0.0
S284 S 0.10918 0.71215 0.67456 0.0
N285 N 0.06282 0.71119 0.64768 0.0
N286 N 0.14429 0.77329 0.69007 0.0
C287 C 0.11921 0.79603 0.67298 0.0
C288 C 0.07495 0.76237 0.64999 0.0
C289 C 0.31889 0.12011 0.7943 0.0
C290 C 0.32835 0.07749 0.79759 0.0
C291 C 0.33115 0.15627 0.8235 0.0
C292 C 0.35382 0.15119 0.8565 0.0
H293 H 0.29608 0.12178 0.77109 0.0
H294 H 0.31739 0.18441 0.8219 0.0
S295 S 0.39995 0.05642 0.87494 0.0
N296 N 0.3726 0.04001 0.83323 0.0
N297 N 0.39484 0.10777 0.88816 0.0
C298 C 0.37072 0.11405 0.85783 0.0
C299 C 0.35863 0.07743 0.82808 0.0
C300 C 0.77165 0.82312 0.85654 0.0
C301 C 0.73578 0.76905 0.86123 0.0
C302 C 0.75893 0.85461 0.83463 0.0
C303 C 0.70971 0.83355 0.8167 0.0
H304 H 0.81129 0.84059 0.86772 0.0
H305 H 0.78925 0.89515 0.82978 0.0
S306 S 0.59817 0.69689 0.82537 0.0
N307 N 0.64595 0.69754 0.85036 0.0
N308 N 0.62224 0.75733 0.80909 0.0
C309 C 0.67136 0.78113 0.8243 0.0
C310 C 0.68437 0.74872 0.84664 0.0
C311 C 0.84651 0.66863 0.01419 0.0
C312 C 0.84643 0.64165 0.98192 0.0
C313 C 0.88546 0.68193 0.04146 0.0
C314 C 0.92594 0.66952 0.03668 0.0
H315 H 0.82055 0.68502 0.01625 0.0
H316 H 0.88791 0.70803 0.06378 0.0
S317 S 0.93286 0.58588 0.96178 0.0
N318 N 0.88194 0.59287 0.9504 0.0
N319 N 0.95531 0.61766 0.00161 0.0
C320 C 0.92052 0.63485 0.00765 0.0
C321 C 0.88084 0.62138 0.97994 0.0
C322 C 0.16082 0.91716 0.20067 0.0
C323 C 0.21607 0.9408 0.20204 0.0
C324 C 0.13098 0.87536 0.17637 0.0
C325 C 0.15521 0.85551 0.15265 0.0
H326 H 0.1409 0.93399 0.2161 0.0
H327 H 0.0891 0.86143 0.17389 0.0
S328 S 0.29723 0.89651 0.15078 0.0
N329 N 0.29299 0.93589 0.18188 0.0
N330 N 0.23636 0.85685 0.13602 0.0
C331 C 0.20944 0.87424 0.157 0.0
C332 C 0.24009 0.91711 0.18185 0.0
C333 C 0.34015 0.22608 0.3273 0.0
C334 C 0.31147 0.17068 0.32705 0.0
C335 C 0.32543 0.25489 0.35085 0.0
C336 C 0.28123 0.22874 0.37423 0.0
H337 H 0.36995 0.24707 0.3063 0.0
H338 H 0.3445 0.29722 0.3473 0.0
S339 S 0.20161 0.08465 0.38962 0.0
N340 N 0.24368 0.09125 0.35654 0.0
N341 N 0.21588 0.1451 0.40088 0.0
C342 C 0.25719 0.17373 0.37771 0.0
C343 C 0.27229 0.14464 0.35392 0.0
C344 C 0.10202 0.32542 0.49895 0.0
C345 C 0.12079 0.29073 0.49107 0.0
C346 C 0.05819 0.30982 0.52234 0.0
C347 C 0.03177 0.25891 0.53815 0.0
H348 H 0.11751 0.36229 0.48398 0.0
H349 H 0.04182 0.33573 0.52479 0.0
S350 S 0.0748 0.15944 0.53307 0.0
N351 N 0.11662 0.20796 0.50607 0.0
N352 N 0.03464 0.17864 0.55013 0.0
C353 C 0.05481 0.227 0.53423 0.0
C354 C 0.09925 0.24291 0.51055 0.0
C355 C 0.73146 0.09382 0.64392 0.0
C356 C 0.7835 0.13556 0.6477 0.0
C357 C 0.70628 0.05868 0.67325 0.0
C358 C 0.73338 0.06314 0.7067 0.0
H359 H 0.7119 0.08545 0.61709 0.0
H360 H 0.66836 0.02405 0.66768 0.0
S361 S 0.86576 0.17273 0.73278 0.0
N362 N 0.85744 0.18556 0.68931 0.0
N363 N 0.81097 0.11834 0.7443 0.0
C364 C 0.78267 0.10881 0.71235 0.0
C365 C 0.8078 0.14522 0.68268 0.0
C366 C 0.22193 0.37608 0.26864 0.0
C367 C 0.18261 0.36845 0.29448 0.0
C368 C 0.21304 0.37616 0.23019 0.0
C369 C 0.16541 0.37056 0.21656 0.0
H370 H 0.25746 0.37661 0.27793 0.0
H371 H 0.24194 0.3768 0.21101 0.0
S372 S 0.05309 0.35638 0.27301 0.0
N373 N 0.09638 0.35955 0.304 0.0
N374 N 0.08081 0.36243 0.23188 0.0
C375 C 0.12812 0.36818 0.24226 0.0
C376 C 0.13645 0.36644 0.28126 0.0
C377 C 0.76483 0.16252 0.43759 0.0
C378 C 0.81286 0.2033 0.45162 0.0
C379 C 0.75717 0.15283 0.3992 0.0
C380 C 0.79811 0.18247 0.37394 0.0
H381 H 0.73467 0.13546 0.45653 0.0
H382 H 0.7212 0.11854 0.38972 0.0
S383 S 0.92866 0.29753 0.39644 0.0
N384 N 0.89923 0.27746 0.4372 0.0
N385 N 0.88582 0.25773 0.36511 0.0
C386 C 0.84452 0.22604 0.38741 0.0
C387 C 0.85166 0.23685 0.42635 0.0
C388 C 0.62653 0.80606 0.6094 0.0
C389 C 0.66088 0.85795 0.62152 0.0
C390 C 0.62607 0.79164 0.57183 0.0
C391 C 0.65975 0.82883 0.54542 0.0
H392 H 0.6021 0.77597 0.62932 0.0
H393 H 0.60155 0.75067 0.56393 0.0
S394 S 0.74887 0.97188 0.56211 0.0
N395 N 0.72352 0.94784 0.60334 0.0
N396 N 0.72246 0.92113 0.53327 0.0
C397 C 0.69093 0.88157 0.55689 0.0
C398 C 0.69156 0.89602 0.59482 0.0
C399 C 0.85234 0.6018 0.73341 0.0
C400 C 0.81645 0.602 0.70749 0.0
C401 C 0.84333 0.60194 0.77169 0.0
C402 C 0.79749 0.60068 0.78499 0.0
H403 H 0.89016 0.60755 0.72422 0.0
H404 H 0.87428 0.60742 0.79089 0.0
S405 S 0.68696 0.59032 0.72804 0.0
N406 N 0.7306 0.59379 0.69731 0.0
N407 N 0.71238 0.59155 0.76936 0.0
C408 C 0.75839 0.59405 0.7593 0.0
C409 C 0.76826 0.59542 0.72038 0.0
C410 C 0.15542 0.88408 0.89907 0.0
C411 C 0.17797 0.86106 0.87662 0.0
C412 C 0.14112 0.86864 0.9359 0.0
C413 C 0.14812 0.82896 0.9524 0.0
H414 H 0.14871 0.91476 0.88824 0.0
H415 H 0.12362 0.88788 0.95136 0.0
S416 S 0.20682 0.7566 0.90623 0.0
N417 N 0.20816 0.7973 0.87387 0.0
N418 N 0.18034 0.76741 0.94345 0.0
C419 C 0.17142 0.80589 0.93061 0.0
C420 C 0.18652 0.82211 0.89275 0.0
C421 C 0.38484 0.14291 0.10725 0.0
C422 C 0.38033 0.1763 0.13332 0.0
C423 C 0.38629 0.15295 0.069 0.0
C424 C 0.3851 0.19756 0.0559 0.0
H425 H 0.38161 0.10605 0.11615 0.0
H426 H 0.38442 0.12374 0.04952 0.0
S427 S 0.3821 0.30123 0.1134 0.0
N428 N 0.38038 0.25821 0.1439 0.0
N429 N 0.3858 0.27857 0.07203 0.0
C430 C 0.38659 0.23416 0.0819 0.0
C431 C 0.38348 0.22311 0.12073 0.0
loop_
_geom_bond_atom_site_label_1
_geom_bond_atom_site_label_2
_geom_bond_distance
_geom_bond_site_symmetry_2
_ccdc_geom_bond_type
Zn0 O3 2.031 . S
Zn0 O5 2.049 . S
Zn0 O10 2.067 . S
Zn1 O2 1.962 1_455 S
Zn1 O4 1.986 . S
Zn1 O6 1.996 . S
Zn1 O9 1.943 . S
O2 Zn1 1.962 1_655 S
O2 C7 1.254 . S
O3 Zn0 2.031 . S
O3 C7 1.269 1_455 S
O4 Zn1 1.986 . S
O4 C11 1.262 . S
O5 Zn0 2.049 . S
O5 C13 1.260 . S
O6 Zn1 1.996 . S
O6 C13 1.257 . S
C7 O2 1.254 . S
C7 O3 1.269 1_655 S
C8 O9 1.249 . S
C8 O10 1.270 . S
O9 Zn1 1.943 . S
O9 C8 1.249 . S
O10 Zn0 2.067 . S
O10 C8 1.270 . S
C11 O4 1.262 . S
C11 O12 1.232 . S
O12 C11 1.232 . S
C13 O5 1.260 . S
C13 O6 1.257 . S
Zn14 O17 2.031 . S
Zn14 O19 2.049 . S
Zn14 O24 2.067 . S
Zn15 O16 1.962 1_545 S
Zn15 O18 1.986 . S
Zn15 O20 1.996 . S
Zn15 O23 1.943 . S
O16 Zn15 1.962 1_565 S
O16 C21 1.254 . S
O17 Zn14 2.031 . S
O17 C21 1.269 1_545 S
O18 Zn15 1.986 . S
O18 C25 1.262 . S
O19 Zn14 2.049 . S
O19 C27 1.260 . S
O20 Zn15 1.996 . S
O20 C27 1.257 . S
C21 O16 1.254 . S
C21 O17 1.269 1_565 S
C22 O23 1.249 . S
C22 O24 1.270 . S
O23 Zn15 1.943 . S
O23 C22 1.249 . S
O24 Zn14 2.067 . S
O24 C22 1.270 . S
C25 O18 1.262 . S
C25 O26 1.232 . S
O26 C25 1.232 . S
C27 O19 1.260 . S
C27 O20 1.257 . S
Zn28 O31 2.031 . S
Zn28 O33 2.049 . S
Zn28 O38 2.067 . S
Zn29 O30 1.962 . S
Zn29 O32 1.986 . S
Zn29 O34 1.996 . S
Zn29 O37 1.943 . S
O30 Zn29 1.962 . S
O30 C35 1.254 . S
O31 Zn28 2.031 . S
O31 C35 1.269 . S
O32 Zn29 1.986 . S
O32 C39 1.262 . S
O33 Zn28 2.049 . S
O33 C41 1.260 . S
O34 Zn29 1.996 . S
O34 C41 1.257 . S
C35 O30 1.254 . S
C35 O31 1.269 . S
C36 O37 1.249 . S
C36 O38 1.270 . S
O37 Zn29 1.943 . S
O37 C36 1.249 . S
O38 Zn28 2.067 . S
O38 C36 1.270 . S
C39 O32 1.262 . S
C39 O40 1.232 . S
O40 C39 1.232 . S
C41 O33 1.260 . S
C41 O34 1.257 . S
Zn42 O45 2.031 . S
Zn42 O47 2.049 . S
Zn42 O52 2.067 . S
Zn43 O44 1.962 1_655 S
Zn43 O46 1.986 . S
Zn43 O48 1.996 . S
Zn43 O51 1.943 . S
O44 Zn43 1.962 1_455 S
O44 C49 1.254 . S
O45 Zn42 2.031 . S
O45 C49 1.269 1_655 S
O46 Zn43 1.986 . S
O46 C53 1.262 . S
O47 Zn42 2.049 . S
O47 C55 1.260 . S
O48 Zn43 1.996 . S
O48 C55 1.257 . S
C49 O44 1.254 . S
C49 O45 1.269 1_455 S
C50 O51 1.249 . S
C50 O52 1.270 . S
O51 Zn43 1.943 . S
O51 C50 1.249 . S
O52 Zn42 2.067 . S
O52 C50 1.270 . S
C53 O46 1.262 . S
C53 O54 1.232 . S
O54 C53 1.232 . S
C55 O47 1.260 . S
C55 O48 1.257 . S
Zn56 O59 2.031 . S
Zn56 O61 2.049 . S
Zn56 O66 2.067 . S
Zn57 O58 1.962 1_565 S
Zn57 O60 1.986 . S
Zn57 O62 1.996 . S
Zn57 O65 1.943 . S
O58 Zn57 1.962 1_545 S
O58 C63 1.254 . S
O59 Zn56 2.031 . S
O59 C63 1.269 1_565 S
O60 Zn57 1.986 . S
O60 C67 1.262 . S
O61 Zn56 2.049 . S
O61 C69 1.260 . S
O62 Zn57 1.996 . S
O62 C69 1.257 . S
C63 O58 1.254 . S
C63 O59 1.269 1_545 S
C64 O65 1.249 . S
C64 O66 1.270 . S
O65 Zn57 1.943 . S
O65 C64 1.249 . S
O66 Zn56 2.067 . S
O66 C64 1.270 . S
C67 O60 1.262 . S
C67 O68 1.232 . S
O68 C67 1.232 . S
C69 O61 1.260 . S
C69 O62 1.257 . S
Zn70 O73 2.044 . S
Zn70 O75 2.049 . S
Zn70 O80 2.067 1_556 S
Zn71 O72 1.962 . S
Zn71 O74 1.986 . S
Zn71 O76 1.996 . S
Zn71 O79 1.943 . S
O72 Zn71 1.962 . S
O72 C77 1.254 . S
O73 Zn70 2.044 . S
O73 C77 1.281 . S
O74 Zn71 1.986 . S
O74 C81 1.262 . S
O75 Zn70 2.049 . S
O75 C83 1.260 . S
O76 Zn71 1.996 . S
O76 C83 1.257 . S
C77 O72 1.254 . S
C77 O73 1.281 . S
C78 O79 1.249 1_554 S
C78 O80 1.270 . S
O79 Zn71 1.943 . S
O79 C78 1.249 1_556 S
O80 Zn70 2.067 1_554 S
O80 C78 1.270 . S
C81 O74 1.262 . S
C81 O82 1.232 . S
O82 C81 1.232 . S
C83 O75 1.260 . S
C83 O76 1.257 . S
Zn84 O87 2.031 . S
Zn84 O89 2.049 . S
Zn84 O94 2.067 . S
Zn85 O86 1.962 1_565 S
Zn85 O88 1.986 . S
Zn85 O90 1.996 . S
Zn85 O93 1.943 . S
O86 Zn85 1.962 1_545 S
O86 C91 1.254 . S
O87 Zn84 2.031 . S
O87 C91 1.269 1_565 S
O88 Zn85 1.986 . S
O88 C95 1.262 . S
O89 Zn84 2.049 . S
O89 C97 1.260 . S
O90 Zn85 1.996 . S
O90 C97 1.257 . S
C91 O86 1.254 . S
C91 O87 1.269 1_545 S
C92 O93 1.249 . S
C92 O94 1.270 . S
O93 Zn85 1.943 . S
O93 C92 1.249 . S
O94 Zn84 2.067 . S
O94 C92 1.270 . S
C95 O88 1.262 . S
C95 O96 1.232 . S
O96 C95 1.232 . S
C97 O89 1.260 . S
C97 O90 1.257 . S
Zn98 O101 2.031 . S
Zn98 O103 2.049 . S
Zn98 O108 2.067 . S
Zn99 O100 1.962 . S
Zn99 O102 1.986 . S
Zn99 O104 1.996 . S
Zn99 O107 1.943 . S
O100 Zn99 1.962 . S
O100 C105 1.254 . S
O101 Zn98 2.031 . S
O101 C105 1.269 . S
O102 Zn99 1.986 . S
O102 C109 1.262 . S
O103 Zn98 2.049 . S
O103 C111 1.260 . S
O104 Zn99 1.996 . S
O104 C111 1.257 . S
C105 O100 1.254 . S
C105 O101 1.269 . S
C106 O107 1.249 . S
C106 O108 1.270 . S
O107 Zn99 1.943 . S
O107 C106 1.249 . S
O108 Zn98 2.067 . S
O108 C106 1.270 . S
C109 O102 1.262 . S
C109 O110 1.232 . S
O110 C109 1.232 . S
C111 O103 1.260 . S
C111 O104 1.257 . S
Zn112 O115 2.044 . S
Zn112 O117 2.049 . S
Zn112 O122 2.067 1_554 S
Zn113 O114 1.962 1_455 S
Zn113 O116 1.986 . S
Zn113 O118 1.996 . S
Zn113 O121 1.943 . S
O114 Zn113 1.962 1_655 S
O114 C119 1.254 . S
O115 Zn112 2.044 . S
O115 C119 1.281 1_455 S
O116 Zn113 1.986 . S
O116 C123 1.262 . S
O117 Zn112 2.049 . S
O117 C125 1.260 . S
O118 Zn113 1.996 . S
O118 C125 1.257 . S
C119 O114 1.254 . S
C119 O115 1.281 1_655 S
C120 O121 1.249 1_556 S
C120 O122 1.270 . S
O121 Zn113 1.943 . S
O121 C120 1.249 1_554 S
O122 Zn112 2.067 1_556 S
O122 C120 1.270 . S
C123 O116 1.262 . S
C123 O124 1.232 . S
O124 C123 1.232 . S
C125 O117 1.260 . S
C125 O118 1.257 . S
Zn126 O129 2.031 . S
Zn126 O131 2.049 . S
Zn126 O136 2.067 . S
Zn127 O128 1.962 1_545 S
Zn127 O130 1.986 . S
Zn127 O132 1.996 . S
Zn127 O135 1.943 . S
O128 Zn127 1.962 1_565 S
O128 C133 1.254 . S
O129 Zn126 2.031 . S
O129 C133 1.269 1_545 S
O130 Zn127 1.986 . S
O130 C137 1.262 . S
O131 Zn126 2.049 . S
O131 C139 1.260 . S
O132 Zn127 1.996 . S
O132 C139 1.257 . S
C133 O128 1.254 . S
C133 O129 1.269 1_565 S
C134 O135 1.249 . S
C134 O136 1.270 . S
O135 Zn127 1.943 . S
O135 C134 1.249 . S
O136 Zn126 2.067 . S
O136 C134 1.270 . S
C137 O130 1.262 . S
C137 O138 1.232 . S
O138 C137 1.232 . S
C139 O131 1.260 . S
C139 O132 1.257 . S
Zn140 O143 2.031 . S
Zn140 O145 2.049 . S
Zn140 O150 2.067 . S
Zn141 O142 1.962 . S
Zn141 O144 1.986 . S
Zn141 O146 1.996 . S
Zn141 O149 1.943 . S
O142 Zn141 1.962 . S
O142 C147 1.254 . S
O143 Zn140 2.031 . S
O143 C147 1.269 . S
O144 Zn141 1.986 . S
O144 C151 1.262 . S
O145 Zn140 2.049 . S
O145 C153 1.260 . S
O146 Zn141 1.996 . S
O146 C153 1.257 . S
C147 O142 1.254 . S
C147 O143 1.269 . S
C148 O149 1.249 . S
C148 O150 1.270 . S
O149 Zn141 1.943 . S
O149 C148 1.249 . S
O150 Zn140 2.067 . S
O150 C148 1.270 . S
C151 O144 1.262 . S
C151 O152 1.232 . S
O152 C151 1.232 . S
C153 O145 1.260 . S
C153 O146 1.257 . S
Zn154 O157 2.031 . S
Zn154 O159 2.049 . S
Zn154 O164 2.067 . S
Zn155 O156 1.962 1_655 S
Zn155 O158 1.986 . S
Zn155 O160 1.996 . S
Zn155 O163 1.943 . S
O156 Zn155 1.962 1_455 S
O156 C161 1.254 . S
O157 Zn154 2.031 . S
O157 C161 1.269 1_655 S
O158 Zn155 1.986 . S
O158 C165 1.262 . S
O159 Zn154 2.049 . S
O159 C167 1.260 . S
O160 Zn155 1.996 . S
O160 C167 1.257 . S
C161 O156 1.254 . S
C161 O157 1.269 1_455 S
C162 O163 1.249 . S
C162 O164 1.270 . S
O163 Zn155 1.943 . S
O163 C162 1.249 . S
O164 Zn154 2.067 . S
O164 C162 1.270 . S
C165 O158 1.262 . S
C165 O166 1.232 . S
O166 C165 1.232 . S
C167 O159 1.260 . S
C167 O160 1.257 . S
C168 C169 1.369 . S
C168 C170 1.419 . S
C168 H172 0.930 . S
C169 C168 1.369 . S
C169 C178 1.429 . S
C170 C168 1.419 . S
C170 C171 1.363 . S
C170 H173 0.929 . S
C171 C170 1.363 . S
C171 C177 1.428 . S
H172 C168 0.930 . S
H173 C170 0.929 . S
S174 N175 1.613 . S
S174 N176 1.610 . S
N175 S174 1.613 . S
N175 C178 1.350 . S
N176 S174 1.610 . S
N176 C177 1.351 . S
C177 C171 1.428 . S
C177 N176 1.351 . S
C177 C178 1.434 . S
C178 C169 1.429 . S
C178 N175 1.350 . S
C178 C177 1.434 . S
C179 C180 1.369 . S
C179 C181 1.419 . S
C179 H183 0.930 . S
C180 C179 1.369 . S
C180 C189 1.429 . S
C181 C179 1.419 . S
C181 C182 1.363 . S
C181 H184 0.929 . S
C182 C181 1.363 . S
C182 C188 1.428 . S
H183 C179 0.930 . S
H184 C181 0.929 . S
S185 N186 1.613 . S
S185 N187 1.610 . S
N186 S185 1.613 . S
N186 C189 1.350 . S
N187 S185 1.610 . S
N187 C188 1.351 . S
C188 C182 1.428 . S
C188 N187 1.351 . S
C188 C189 1.434 . S
C189 C180 1.429 . S
C189 N186 1.350 . S
C189 C188 1.434 . S
C190 C191 1.369 . S
C190 C192 1.419 . S
C190 H194 0.930 . S
C191 C190 1.369 . S
C191 C200 1.429 . S
C192 C190 1.419 . S
C192 C193 1.363 . S
C192 H195 0.929 . S
C193 C192 1.363 . S
C193 C199 1.428 . S
H194 C190 0.930 . S
H195 C192 0.929 . S
S196 N197 1.613 . S
S196 N198 1.610 . S
N197 S196 1.613 . S
N197 C200 1.350 . S
N198 S196 1.610 . S
N198 C199 1.351 . S
C199 C193 1.428 . S
C199 N198 1.351 . S
C199 C200 1.434 . S
C200 C191 1.429 . S
C200 N197 1.350 . S
C200 C199 1.434 . S
C201 C202 1.369 . S
C201 C203 1.419 . S
C201 H205 0.930 . S
C202 C201 1.369 . S
C202 C211 1.429 . S
C203 C201 1.419 . S
C203 C204 1.363 . S
C203 H206 0.929 . S
C204 C203 1.363 . S
C204 C210 1.428 . S
H205 C201 0.930 . S
H206 C203 0.929 . S
S207 N208 1.623 . S
S207 N209 1.611 . S
N208 S207 1.623 . S
N208 C211 1.344 1_455 S
N209 S207 1.611 . S
N209 C210 1.349 1_455 S
C210 C204 1.428 . S
C210 N209 1.349 1_655 S
C210 C211 1.434 . S
C211 C202 1.429 . S
C211 N208 1.344 1_655 S
C211 C210 1.434 . S
C212 C213 1.369 . S
C212 C214 1.419 . S
C212 H216 0.930 . S
C213 C212 1.369 . S
C213 C222 1.429 . S
C214 C212 1.419 . S
C214 C215 1.363 . S
C214 H217 0.929 . S
C215 C214 1.363 . S
C215 C221 1.428 . S
H216 C212 0.930 . S
H217 C214 0.929 . S
S218 N219 1.613 . S
S218 N220 1.610 . S
N219 S218 1.613 . S
N219 C222 1.350 . S
N220 S218 1.610 . S
N220 C221 1.351 . S
C221 C215 1.428 . S
C221 N220 1.351 . S
C221 C222 1.434 . S
C222 C213 1.429 . S
C222 N219 1.350 . S
C222 C221 1.434 . S
C223 C224 1.369 . S
C223 C225 1.419 . S
C223 H227 0.930 . S
C224 C223 1.369 . S
C224 C233 1.429 . S
C225 C223 1.419 . S
C225 C226 1.363 . S
C225 H228 0.929 . S
C226 C225 1.363 . S
C226 C232 1.428 . S
H227 C223 0.930 . S
H228 C225 0.929 . S
S229 N230 1.613 . S
S229 N231 1.610 . S
N230 S229 1.613 . S
N230 C233 1.350 . S
N231 S229 1.610 . S
N231 C232 1.351 . S
C232 C226 1.428 . S
C232 N231 1.351 . S
C232 C233 1.434 . S
C233 C224 1.429 . S
C233 N230 1.350 . S
C233 C232 1.434 . S
C234 C235 1.369 . S
C234 C236 1.419 . S
C234 H238 0.930 . S
C235 C234 1.369 . S
C235 C244 1.429 . S
C236 C234 1.419 . S
C236 C237 1.363 . S
C236 H239 0.929 . S
C237 C236 1.363 . S
C237 C243 1.428 . S
H238 C234 0.930 . S
H239 C236 0.929 . S
S240 N241 1.613 . S
S240 N242 1.610 1_554 S
N241 S240 1.613 . S
N241 C244 1.350 . S
N242 S240 1.610 1_556 S
N242 C243 1.351 1_556 S
C243 C237 1.428 . S
C243 N242 1.351 1_554 S
C243 C244 1.434 . S
C244 C235 1.429 . S
C244 N241 1.350 . S
C244 C243 1.434 . S
C245 C246 1.369 . S
C245 C247 1.419 . S
C245 H249 0.930 . S
C246 C245 1.369 . S
C246 C255 1.429 . S
C247 C245 1.419 . S
C247 C248 1.363 . S
C247 H250 0.929 . S
C248 C247 1.363 . S
C248 C254 1.428 . S
H249 C245 0.930 . S
H250 C247 0.929 . S
S251 N252 1.613 . S
S251 N253 1.610 . S
N252 S251 1.613 . S
N252 C255 1.350 . S
N253 S251 1.610 . S
N253 C254 1.351 . S
C254 C248 1.428 . S
C254 N253 1.351 . S
C254 C255 1.434 . S
C255 C246 1.429 . S
C255 N252 1.350 . S
C255 C254 1.434 . S
C256 C257 1.369 . S
C256 C258 1.419 . S
C256 H260 0.930 . S
C257 C256 1.369 . S
C257 C266 1.429 . S
C258 C256 1.419 . S
C258 C259 1.363 . S
C258 H261 0.929 . S
C259 C258 1.363 . S
C259 C265 1.428 . S
H260 C256 0.930 . S
H261 C258 0.929 . S
S262 N263 1.613 . S
S262 N264 1.610 . S
N263 S262 1.613 . S
N263 C266 1.350 . S
N264 S262 1.610 . S
N264 C265 1.351 . S
C265 C259 1.428 . S
C265 N264 1.351 . S
C265 C266 1.434 . S
C266 C257 1.429 . S
C266 N263 1.350 . S
C266 C265 1.434 . S
C267 C268 1.369 . S
C267 C269 1.419 . S
C267 H271 0.930 . S
C268 C267 1.369 . S
C268 C277 1.429 . S
C269 C267 1.419 . S
C269 C270 1.363 . S
C269 H272 0.929 . S
C270 C269 1.363 . S
C270 C276 1.428 . S
H271 C267 0.930 . S
H272 C269 0.929 . S
S273 N274 1.613 . S
S273 N275 1.610 . S
N274 S273 1.613 . S
N274 C277 1.350 . S
N275 S273 1.610 . S
N275 C276 1.351 . S
C276 C270 1.428 . S
C276 N275 1.351 . S
C276 C277 1.434 . S
C277 C268 1.429 . S
C277 N274 1.350 . S
C277 C276 1.434 . S
C278 C279 1.369 . S
C278 C280 1.419 . S
C278 H282 0.930 . S
C279 C278 1.369 . S
C279 C288 1.429 . S
C280 C278 1.419 . S
C280 C281 1.363 . S
C280 H283 0.929 . S
C281 C280 1.363 . S
C281 C287 1.428 . S
H282 C278 0.930 . S
H283 C280 0.929 . S
S284 N285 1.613 . S
S284 N286 1.610 . S
N285 S284 1.613 . S
N285 C288 1.350 . S
N286 S284 1.610 . S
N286 C287 1.351 . S
C287 C281 1.428 . S
C287 N286 1.351 . S
C287 C288 1.434 . S
C288 C279 1.429 . S
C288 N285 1.350 . S
C288 C287 1.434 . S
C289 C290 1.369 . S
C289 C291 1.419 . S
C289 H293 0.930 . S
C290 C289 1.369 . S
C290 C299 1.429 . S
C291 C289 1.419 . S
C291 C292 1.363 . S
C291 H294 0.929 . S
C292 C291 1.363 . S
C292 C298 1.428 . S
H293 C289 0.930 . S
H294 C291 0.929 . S
S295 N296 1.613 . S
S295 N297 1.610 . S
N296 S295 1.613 . S
N296 C299 1.350 . S
N297 S295 1.610 . S
N297 C298 1.351 . S
C298 C292 1.428 . S
C298 N297 1.351 . S
C298 C299 1.434 . S
C299 C290 1.429 . S
C299 N296 1.350 . S
C299 C298 1.434 . S
C300 C301 1.369 . S
C300 C302 1.419 . S
C300 H304 0.930 . S
C301 C300 1.369 . S
C301 C310 1.429 . S
C302 C300 1.419 . S
C302 C303 1.363 . S
C302 H305 0.929 . S
C303 C302 1.363 . S
C303 C309 1.428 . S
H304 C300 0.930 . S
H305 C302 0.929 . S
S306 N307 1.613 . S
S306 N308 1.610 . S
N307 S306 1.613 . S
N307 C310 1.350 . S
N308 S306 1.610 . S
N308 C309 1.351 . S
C309 C303 1.428 . S
C309 N308 1.351 . S
C309 C310 1.434 . S
C310 C301 1.429 . S
C310 N307 1.350 . S
C310 C309 1.434 . S
C311 C312 1.369 . S
C311 C313 1.419 1_556 S
C311 H315 0.930 . S
C312 C311 1.369 . S
C312 C321 1.429 . S
C313 C311 1.419 1_554 S
C313 C314 1.363 1_554 S
C313 H316 0.929 . S
C314 C313 1.363 1_556 S
C314 C320 1.428 . S
H315 C311 0.930 . S
H316 C313 0.929 . S
S317 N318 1.613 . S
S317 N319 1.610 . S
N318 S317 1.613 . S
N318 C321 1.350 . S
N319 S317 1.610 . S
N319 C320 1.351 . S
C320 C314 1.428 . S
C320 N319 1.351 . S
C320 C321 1.434 . S
C321 C312 1.429 . S
C321 N318 1.350 . S
C321 C320 1.434 . S
C322 C323 1.369 . S
C322 C324 1.419 . S
C322 H326 0.930 . S
C323 C322 1.369 . S
C323 C332 1.429 . S
C324 C322 1.419 . S
C324 C325 1.363 . S
C324 H327 0.929 . S
C325 C324 1.363 . S
C325 C331 1.428 . S
H326 C322 0.930 . S
H327 C324 0.929 . S
S328 N329 1.613 . S
S328 N330 1.610 . S
N329 S328 1.613 . S
N329 C332 1.350 . S
N330 S328 1.610 . S
N330 C331 1.351 . S
C331 C325 1.428 . S
C331 N330 1.351 . S
C331 C332 1.434 . S
C332 C323 1.429 . S
C332 N329 1.350 . S
C332 C331 1.434 . S
C333 C334 1.369 . S
C333 C335 1.419 . S
C333 H337 0.930 . S
C334 C333 1.369 . S
C334 C343 1.429 . S
C335 C333 1.419 . S
C335 C336 1.363 . S
C335 H338 0.929 . S
C336 C335 1.363 . S
C336 C342 1.428 . S
H337 C333 0.930 . S
H338 C335 0.929 . S
S339 N340 1.613 . S
S339 N341 1.610 . S
N340 S339 1.613 . S
N340 C343 1.350 . S
N341 S339 1.610 . S
N341 C342 1.351 . S
C342 C336 1.428 . S
C342 N341 1.351 . S
C342 C343 1.434 . S
C343 C334 1.429 . S
C343 N340 1.350 . S
C343 C342 1.434 . S
C344 C345 1.369 . S
C344 C346 1.419 . S
C344 H348 0.930 . S
C345 C344 1.369 . S
C345 C354 1.429 . S
C346 C344 1.419 . S
C346 C347 1.363 . S
C346 H349 0.929 . S
C347 C346 1.363 . S
C347 C353 1.428 . S
H348 C344 0.930 . S
H349 C346 0.929 . S
S350 N351 1.613 . S
S350 N352 1.610 . S
N351 S350 1.613 . S
N351 C354 1.350 . S
N352 S350 1.610 . S
N352 C353 1.351 . S
C353 C347 1.428 . S
C353 N352 1.351 . S
C353 C354 1.434 . S
C354 C345 1.429 . S
C354 N351 1.350 . S
C354 C353 1.434 . S
C355 C356 1.369 . S
C355 C357 1.419 . S
C355 H359 0.930 . S
C356 C355 1.369 . S
C356 C365 1.429 . S
C357 C355 1.419 . S
C357 C358 1.363 . S
C357 H360 0.929 . S
C358 C357 1.363 . S
C358 C364 1.428 . S
H359 C355 0.930 . S
H360 C357 0.929 . S
S361 N362 1.613 . S
S361 N363 1.610 . S
N362 S361 1.613 . S
N362 C365 1.350 . S
N363 S361 1.610 . S
N363 C364 1.351 . S
C364 C358 1.428 . S
C364 N363 1.351 . S
C364 C365 1.434 . S
C365 C356 1.429 . S
C365 N362 1.350 . S
C365 C364 1.434 . S
C366 C367 1.369 . S
C366 C368 1.419 . S
C366 H370 0.930 . S
C367 C366 1.369 . S
C367 C376 1.429 . S
C368 C366 1.419 . S
C368 C369 1.363 . S
C368 H371 0.929 . S
C369 C368 1.363 . S
C369 C375 1.428 . S
H370 C366 0.930 . S
H371 C368 0.929 . S
S372 N373 1.613 . S
S372 N374 1.610 . S
N373 S372 1.613 . S
N373 C376 1.350 . S
N374 S372 1.610 . S
N374 C375 1.351 . S
C375 C369 1.428 . S
C375 N374 1.351 . S
C375 C376 1.434 . S
C376 C367 1.429 . S
C376 N373 1.350 . S
C376 C375 1.434 . S
C377 C378 1.369 . S
C377 C379 1.419 . S
C377 H381 0.930 . S
C378 C377 1.369 . S
C378 C387 1.429 . S
C379 C377 1.419 . S
C379 C380 1.363 . S
C379 H382 0.929 . S
C380 C379 1.363 . S
C380 C386 1.428 . S
H381 C377 0.930 . S
H382 C379 0.929 . S
S383 N384 1.613 . S
S383 N385 1.610 . S
N384 S383 1.613 . S
N384 C387 1.350 . S
N385 S383 1.610 . S
N385 C386 1.351 . S
C386 C380 1.428 . S
C386 N385 1.351 . S
C386 C387 1.434 . S
C387 C378 1.429 . S
C387 N384 1.350 . S
C387 C386 1.434 . S
C388 C389 1.369 . S
C388 C390 1.419 . S
C388 H392 0.930 . S
C389 C388 1.369 . S
C389 C398 1.429 . S
C390 C388 1.419 . S
C390 C391 1.363 . S
C390 H393 0.929 . S
C391 C390 1.363 . S
C391 C397 1.428 . S
H392 C388 0.930 . S
H393 C390 0.929 . S
S394 N395 1.613 . S
S394 N396 1.610 . S
N395 S394 1.613 . S
N395 C398 1.350 . S
N396 S394 1.610 . S
N396 C397 1.351 . S
C397 C391 1.428 . S
C397 N396 1.351 . S
C397 C398 1.434 . S
C398 C389 1.429 . S
C398 N395 1.350 . S
C398 C397 1.434 . S
C399 C400 1.369 . S
C399 C401 1.419 . S
C399 H403 0.930 . S
C400 C399 1.369 . S
C400 C409 1.429 . S
C401 C399 1.419 . S
C401 C402 1.363 . S
C401 H404 0.929 . S
C402 C401 1.363 . S
C402 C408 1.428 . S
H403 C399 0.930 . S
H404 C401 0.929 . S
S405 N406 1.613 . S
S405 N407 1.610 . S
N406 S405 1.613 . S
N406 C409 1.350 . S
N407 S405 1.610 . S
N407 C408 1.351 . S
C408 C402 1.428 . S
C408 N407 1.351 . S
C408 C409 1.434 . S
C409 C400 1.429 . S
C409 N406 1.350 . S
C409 C408 1.434 . S
C410 C411 1.369 . S
C410 C412 1.419 . S
C410 H414 0.930 . S
C411 C410 1.369 . S
C411 C420 1.429 . S
C412 C410 1.419 . S
C412 C413 1.363 . S
C412 H415 0.929 . S
C413 C412 1.363 . S
C413 C419 1.428 . S
H414 C410 0.930 . S
H415 C412 0.929 . S
S416 N417 1.613 . S
S416 N418 1.610 . S
N417 S416 1.613 . S
N417 C420 1.350 . S
N418 S416 1.610 . S
N418 C419 1.351 . S
C419 C413 1.428 . S
C419 N418 1.351 . S
C419 C420 1.434 . S
C420 C411 1.429 . S
C420 N417 1.350 . S
C420 C419 1.434 . S
C421 C422 1.369 . S
C421 C423 1.419 . S
C421 H425 0.930 . S
C422 C421 1.369 . S
C422 C431 1.429 . S
C423 C421 1.419 . S
C423 C424 1.363 . S
C423 H426 0.929 . S
C424 C423 1.363 . S
C424 C430 1.428 . S
H425 C421 0.930 . S
H426 C423 0.929 . S
S427 N428 1.613 . S
S427 N429 1.610 . S
N428 S427 1.613 . S
N428 C431 1.350 . S
N429 S427 1.610 . S
N429 C430 1.351 . S
C430 C424 1.428 . S
C430 N429 1.351 . S
C430 C431 1.434 . S
C431 C422 1.429 . S
C431 N428 1.350 . S
C431 C430 1.434 . S
C169 C123 1.442 . S
C171 C11 1.442 . S
C180 C25 1.439 . S
C182 C137 1.443 . S
C191 C39 1.443 . S
C193 C151 1.440 . S
C202 C53 1.439 . S
C204 C165 1.440 . S
C213 C95 1.443 . S
C215 C67 1.441 . S
C224 C81 1.441 . S
C226 C109 1.439 . S
C235 C13 1.371 . S
C237 C77 1.425 1_554 S
C246 C27 1.368 . S
C248 C7 1.424 . S
C257 C41 1.359 . S
C259 C21 1.420 . S
C268 C35 1.420 . S
C270 C55 1.361 . S
C279 C49 1.424 . S
C281 C69 1.366 . S
C290 C63 1.419 . S
C292 C83 1.361 . S
C301 C105 1.423 . S
C303 C97 1.366 . S
C312 C111 1.365 . S
C314 C119 1.423 1_556 S
C323 C133 1.425 . S
C325 C125 1.369 . S
C334 C139 1.362 . S
C336 C147 1.421 . S
C345 C153 1.362 . S
C347 C161 1.422 . S
C356 C167 1.370 . S
C358 C91 1.425 . S
C367 C148 1.303 . S
C369 C8 1.308 . S
C378 C162 1.308 . S
C380 C22 1.304 . S
C389 C92 1.306 . S
C391 C36 1.304 . S
C400 C50 1.306 . S
C402 C106 1.311 . S
C411 C64 1.308 . S
C413 C120 1.311 . S
C422 C134 1.303 . S
C424 C78 1.309 . S
