# Generated by pormake.
# Topology una, (4)-cn, num edge types: 1
# Building blocks:
#     Node 0, Type 0, BuildingBlock: AZAVOO_clean_sbu_0, # of connection points: 4
#     Node 1, Type 0, BuildingBlock: AZAVOO_clean_sbu_0, # of connection points: 4
#     Node 2, Type 0, BuildingBlock: AZAVOO_clean_sbu_0, # of connection points: 4
#     Node 3, Type 0, BuildingBlock: AZAVOO_clean_sbu_0, # of connection points: 4
#     Node 4, Type 0, BuildingBlock: AZAVOO_clean_sbu_0, # of connection points: 4
#     Node 5, Type 0, BuildingBlock: AZAVOO_clean_sbu_0, # of connection points: 4
#     Node 6, Type 0, BuildingBlock: AZAVOO_clean_sbu_0, # of connection points: 4
#     Node 7, Type 0, BuildingBlock: AZAVOO_clean_sbu_0, # of connection points: 4
#     Node 8, Type 0, BuildingBlock: AZAVOO_clean_sbu_0, # of connection points: 4
#     Node 9, Type 0, BuildingBlock: AZAVOO_clean_sbu_0, # of connection points: 4
#     Node 10, Type 0, BuildingBlock: AZAVOO_clean_sbu_0, # of connection points: 4
#     Node 11, Type 0, BuildingBlock: AZAVOO_clean_sbu_0, # of connection points: 4
#     Edge 12, Type (0, 0), BuildingBlock: MIFKUJ_clean_linker_0, # of connection points: 2
#     Edge 13, Type (0, 0), BuildingBlock: MIFKUJ_clean_linker_0, # of connection points: 2
#     Edge 14, Type (0, 0), BuildingBlock: MIFKUJ_clean_linker_0, # of connection points: 2
#     Edge 15, Type (0, 0), BuildingBlock: MIFKUJ_clean_linker_0, # of connection points: 2
#     Edge 16, Type (0, 0), BuildingBlock: MIFKUJ_clean_linker_0, # of connection points: 2
#     Edge 17, Type (0, 0), BuildingBlock: MIFKUJ_clean_linker_0, # of connection points: 2
#     Edge 18, Type (0, 0), BuildingBlock: MIFKUJ_clean_linker_0, # of connection points: 2
#     Edge 19, Type (0, 0), BuildingBlock: MIFKUJ_clean_linker_0, # of connection points: 2
#     Edge 20, Type (0, 0), BuildingBlock: MIFKUJ_clean_linker_0, # of connection points: 2
#     Edge 21, Type (0, 0), BuildingBlock: MIFKUJ_clean_linker_0, # of connection points: 2
#     Edge 22, Type (0, 0), BuildingBlock: MIFKUJ_clean_linker_0, # of connection points: 2
#     Edge 23, Type (0, 0), BuildingBlock: MIFKUJ_clean_linker_0, # of connection points: 2
#     Edge 24, Type (0, 0), BuildingBlock: MIFKUJ_clean_linker_0, # of connection points: 2
#     Edge 25, Type (0, 0), BuildingBlock: MIFKUJ_clean_linker_0, # of connection points: 2
#     Edge 26, Type (0, 0), BuildingBlock: MIFKUJ_clean_linker_0, # of connection points: 2
#     Edge 27, Type (0, 0), BuildingBlock: MIFKUJ_clean_linker_0, # of connection points: 2
#     Edge 28, Type (0, 0), BuildingBlock: MIFKUJ_clean_linker_0, # of connection points: 2
#     Edge 29, Type (0, 0), BuildingBlock: MIFKUJ_clean_linker_0, # of connection points: 2
#     Edge 30, Type (0, 0), BuildingBlock: MIFKUJ_clean_linker_0, # of connection points: 2
#     Edge 31, Type (0, 0), BuildingBlock: MIFKUJ_clean_linker_0, # of connection points: 2
#     Edge 32, Type (0, 0), BuildingBlock: MIFKUJ_clean_linker_0, # of connection points: 2
#     Edge 33, Type (0, 0), BuildingBlock: MIFKUJ_clean_linker_0, # of connection points: 2
#     Edge 34, Type (0, 0), BuildingBlock: MIFKUJ_clean_linker_0, # of connection points: 2
#     Edge 35, Type (0, 0), BuildingBlock: MIFKUJ_clean_linker_0, # of connection points: 2
# Relax obj value: 0.177
# Max RMSD: 0.208
# Mean RMSD: 0.204
data_MOF--net-una--node1-AZAVOO_clean_sbu_0--edge1-MIFKUJ_clean_linker_0
_symmetry_space_group_name_H-M    P1
_symmetry_Int_Tables_number       1
_symmetry_cell_setting            triclinic
loop_
_symmetry_equiv_pos_as_xyz
'x, y, z'
_cell_length_a     75.019497
_cell_length_b     72.153887
_cell_length_c     27.995083
_cell_angle_alpha  90.013112
_cell_angle_beta   89.999212
_cell_angle_gamma 121.33179
loop_
_atom_site_label
_atom_site_type_symbol
_atom_site_fract_x
_atom_site_fract_y
_atom_site_fract_z
_atom_type_partial_charge
Mg0 Mg 0.1427 0.44729 0.06091 0.0
O1 O 0.14617 0.47784 0.09654 0.0
O2 O 0.17815 0.49597 0.12855 0.0
Mg3 Mg 0.19443 0.47709 0.11733 0.0
C4 C 0.16062 0.4941 0.11935 0.0
C5 C 0.11002 0.42934 0.98279 0.0
O6 O 0.1229 0.4229 0.97097 0.0
O7 O 0.16468 0.46782 0.00058 0.0
O8 O 0.19573 0.48377 0.03731 0.0
O9 O 0.13067 0.42788 0.12912 0.0
O10 O 0.16383 0.44786 0.10778 0.0
C11 C 0.18456 0.48009 1e-05 0.0
C12 C 0.15019 0.43576 0.13891 0.0
O13 O 0.11397 0.44102 0.01982 0.0
Mg14 Mg 0.67514 0.1055 0.24289 0.0
O15 O 0.69182 0.12559 0.17667 0.0
O16 O 0.6711 0.11098 0.11316 0.0
Mg17 Mg 0.64085 0.08117 0.13903 0.0
C18 C 0.68828 0.12543 0.13208 0.0
C19 C 0.71329 0.13058 0.30933 0.0
O20 O 0.71091 0.11121 0.30946 0.0
O21 O 0.65392 0.11956 0.24513 0.0
O22 O 0.63331 0.10318 0.18215 0.0
O23 O 0.68823 0.08436 0.22804 0.0
O24 O 0.65817 0.07829 0.1994 0.0
C25 C 0.63874 0.11594 0.21798 0.0
C26 C 0.67239 0.07335 0.20011 0.0
O27 O 0.70009 0.13337 0.28723 0.0
Mg28 Mg 0.59428 0.72322 0.36995 0.0
O29 O 0.55969 0.69996 0.38594 0.0
O30 O 0.54759 0.71851 0.42371 0.0
Mg31 Mg 0.57447 0.75365 0.43184 0.0
C32 C 0.54494 0.70093 0.40608 0.0
C33 C 0.60827 0.70564 0.28809 0.0
O34 O 0.62135 0.7267 0.28533 0.0
O35 O 0.58608 0.73875 0.30892 0.0
O36 O 0.57526 0.75745 0.35087 0.0
O37 O 0.60148 0.71573 0.4431 0.0
O38 O 0.59677 0.74285 0.4263 0.0
C39 C 0.57925 0.7517 0.3111 0.0
C40 C 0.5998 0.7318 0.45757 0.0
O41 O 0.59416 0.69834 0.31993 0.0
Mg42 Mg 0.85683 0.54209 0.55218 0.0
O43 O 0.85016 0.50854 0.57567 0.0
O44 O 0.81679 0.48892 0.5986 0.0
Mg45 Mg 0.80219 0.50966 0.5906 0.0
C46 C 0.83454 0.49097 0.59153 0.0
C47 C 0.90436 0.56535 0.53499 0.0
O48 O 0.90352 0.57588 0.57236 0.0
O49 O 0.83894 0.52784 0.48245 0.0
O50 O 0.80609 0.50911 0.50971 0.0
O51 O 0.86443 0.55422 0.62799 0.0
O52 O 0.83316 0.5391 0.59533 0.0
C53 C 0.8193 0.51564 0.47558 0.0
C54 C 0.84479 0.5475 0.63224 0.0
O55 O 0.88747 0.54971 0.51813 0.0
Mg56 Mg 0.30745 0.91145 0.78513 0.0
O57 O 0.29437 0.89116 0.71762 0.0
O58 O 0.31595 0.90737 0.65627 0.0
Mg59 Mg 0.34407 0.93824 0.68644 0.0
C60 C 0.29905 0.89179 0.6737 0.0
C61 C 0.26351 0.8741 0.8134 0.0
O62 O 0.25898 0.88327 0.7788 0.0
O63 O 0.33038 0.8997 0.7927 0.0
O64 O 0.35171 0.91657 0.73097 0.0
O65 O 0.29232 0.92978 0.76286 0.0
O66 O 0.32469 0.93928 0.74433 0.0
C67 C 0.34609 0.90381 0.76688 0.0
C68 C 0.30926 0.94218 0.73909 0.0
O69 O 0.28244 0.88238 0.82611 0.0
Mg70 Mg 0.42706 0.28805 0.82239 0.0
O71 O 0.46169 0.31468 0.82863 0.0
O72 O 0.47891 0.29863 0.85229 0.0
Mg73 Mg 0.45563 0.26259 0.86416 0.0
C74 C 0.47859 0.31547 0.83975 0.0
C75 C 0.40434 0.31113 0.7956 0.0
O76 O 0.39291 0.29777 0.82989 0.0
O77 O 0.43335 0.27497 0.75378 0.0
O78 O 0.44897 0.25839 0.78423 0.0
O79 O 0.42177 0.29313 0.8988 0.0
O80 O 0.43118 0.27026 0.87492 0.0
C81 C 0.44156 0.26337 0.74883 0.0
C82 C 0.42733 0.27941 0.90956 0.0
O83 O 0.4204 0.31104 0.78159 0.0
Mg84 Mg 0.5611 0.88613 0.81995 0.0
O85 O 0.55829 0.86914 0.89054 0.0
O86 O 0.55864 0.88945 0.95107 0.0
Mg87 Mg 0.5594 0.91877 0.91798 0.0
C88 C 0.55803 0.87256 0.93511 0.0
C89 C 0.56837 0.85734 0.754 0.0
O90 O 0.58403 0.87702 0.74486 0.0
O91 O 0.52663 0.87575 0.82307 0.0
O92 O 0.52729 0.89598 0.88449 0.0
O93 O 0.59557 0.90397 0.83047 0.0
O94 O 0.57535 0.91611 0.85466 0.0
C95 C 0.51746 0.88181 0.85199 0.0
C96 C 0.59345 0.91814 0.85399 0.0
O97 O 0.55428 0.85509 0.78272 0.0
Mg98 Mg 0.68932 0.54472 0.0589 0.0
O99 O 0.66695 0.51558 0.00988 0.0
O100 O 0.68307 0.49832 0.9855 0.0
Mg101 Mg 0.70708 0.50664 0.0439 0.0
C102 C 0.66791 0.50164 0.98321 0.0
C103 C 0.67231 0.57478 0.05486 0.0
O104 O 0.69106 0.58627 0.0362 0.0
O105 O 0.67887 0.52559 0.12956 0.0
O106 O 0.67948 0.50103 0.08734 0.0
O107 O 0.70818 0.56144 0.994 0.0
O108 O 0.71455 0.54073 0.04048 0.0
C109 C 0.6815 0.50959 0.12788 0.0
C110 C 0.71898 0.5525 0.0028 0.0
O111 O 0.66565 0.55525 0.06667 0.0
Mg112 Mg 0.13781 0.71625 0.24459 0.0
O113 O 0.14435 0.68881 0.23429 0.0
O114 O 0.17708 0.70347 0.20784 0.0
Mg115 Mg 0.19095 0.73988 0.19827 0.0
C116 C 0.15968 0.68707 0.22086 0.0
C117 C 0.09513 0.67564 0.2722 0.0
O118 O 0.09743 0.67007 0.22898 0.0
O119 O 0.15846 0.72825 0.31122 0.0
O120 O 0.19032 0.74404 0.27911 0.0
O121 O 0.12627 0.71226 0.16923 0.0
O122 O 0.15912 0.73392 0.19096 0.0
C123 C 0.17832 0.73916 0.31527 0.0
C124 C 0.14551 0.72555 0.15722 0.0
O125 O 0.10919 0.6938 0.28907 0.0
Mg126 Mg 0.40346 0.09276 0.28107 0.0
O127 O 0.40792 0.11108 0.35059 0.0
O128 O 0.40907 0.09256 0.41311 0.0
Mg129 Mg 0.40667 0.06211 0.38132 0.0
C130 C 0.40946 0.10905 0.39533 0.0
C131 C 0.40044 0.13225 0.25354 0.0
O132 O 0.3856 0.12277 0.2857 0.0
O133 O 0.43787 0.10307 0.28259 0.0
O134 O 0.43846 0.08424 0.34545 0.0
O135 O 0.36921 0.0754 0.29382 0.0
O136 O 0.38974 0.06364 0.31827 0.0
C137 C 0.44767 0.09779 0.31152 0.0
C138 C 0.37165 0.06161 0.31807 0.0
O139 O 0.41077 0.12347 0.24193 0.0
Mg140 Mg 0.31415 0.46085 0.53237 0.0
O141 O 0.3416 0.4934 0.50509 0.0
O142 O 0.32782 0.51182 0.47426 0.0
Mg143 Mg 0.29234 0.49106 0.47775 0.0
C144 C 0.34356 0.51034 0.48528 0.0
C145 C 0.32852 0.44175 0.61071 0.0
O146 O 0.30926 0.43502 0.62375 0.0
O147 O 0.30929 0.47796 0.59516 0.0
O148 O 0.29431 0.4942 0.55917 0.0
O149 O 0.31041 0.44448 0.46159 0.0
O150 O 0.29493 0.4623 0.48226 0.0
C151 C 0.30076 0.48937 0.59664 0.0
C152 C 0.29839 0.45173 0.45043 0.0
O153 O 0.336 0.45403 0.57446 0.0
Mg154 Mg 0.87314 0.278 0.70235 0.0
O155 O 0.86225 0.30138 0.68298 0.0
O156 O 0.83097 0.28249 0.64812 0.0
Mg157 Mg 0.82161 0.24683 0.64639 0.0
C158 C 0.84646 0.30036 0.66304 0.0
C159 C 0.91699 0.30515 0.74015 0.0
O160 O 0.9174 0.29105 0.71114 0.0
O161 O 0.85081 0.26541 0.7666 0.0
O162 O 0.82046 0.24625 0.72782 0.0
O163 O 0.88621 0.28218 0.62801 0.0
O164 O 0.85443 0.25653 0.64988 0.0
C165 C 0.83093 0.25304 0.76655 0.0
C166 C 0.86803 0.26589 0.61671 0.0
O167 O 0.89984 0.30439 0.74607 0.0
H168 H 0.17592 0.46503 0.20341 0.0
H169 H 0.19938 0.46025 0.25531 0.0
H170 H 0.16597 0.39187 0.22255 0.0
H171 H 0.14226 0.39666 0.17051 0.0
H172 H 0.18484 0.40525 0.32111 0.0
H173 H 0.2022 0.41787 0.15443 0.0
H174 H 0.20648 0.43619 0.07721 0.0
H175 H 0.25321 0.49682 0.1386 0.0
H176 H 0.24891 0.47896 0.21647 0.0
H177 H 0.27731 0.41276 0.40532 0.0
H178 H 0.25041 0.40266 0.34379 0.0
H179 H 0.26744 0.46958 0.33295 0.0
H180 H 0.29412 0.47959 0.39407 0.0
H181 H 0.25492 0.44805 0.24618 0.0
H182 H 0.2321 0.43792 0.41291 0.0
H183 H 0.22742 0.42178 0.49302 0.0
H184 H 0.19117 0.35791 0.43272 0.0
H185 H 0.19591 0.37372 0.3521 0.0
C186 C 0.17296 0.44881 0.20925 0.0
C187 C 0.15742 0.43119 0.18328 0.0
C188 C 0.18642 0.44612 0.23853 0.0
C189 C 0.18462 0.42581 0.24165 0.0
C190 C 0.16757 0.40765 0.22028 0.0
C191 C 0.15396 0.41036 0.19101 0.0
C192 C 0.20233 0.42466 0.26075 0.0
C193 C 0.20006 0.41408 0.30421 0.0
C194 C 0.22216 0.43633 0.23853 0.0
C195 C 0.22513 0.44707 0.19142 0.0
C196 C 0.21329 0.43514 0.15157 0.0
C197 C 0.21573 0.44544 0.10766 0.0
C198 C 0.2301 0.46765 0.10302 0.0
C199 C 0.24209 0.4796 0.14225 0.0
C200 C 0.23967 0.46939 0.18628 0.0
C201 C 0.27581 0.42536 0.38826 0.0
C202 C 0.28747 0.44688 0.40454 0.0
C203 C 0.2604 0.41957 0.35348 0.0
C204 C 0.25675 0.43533 0.33458 0.0
C205 C 0.26996 0.45717 0.34728 0.0
C206 C 0.28512 0.46287 0.38232 0.0
C207 C 0.23759 0.42917 0.3073 0.0
C208 C 0.23957 0.43849 0.26225 0.0
C209 C 0.21755 0.41644 0.32814 0.0
C210 C 0.21458 0.40696 0.37652 0.0
C211 C 0.22327 0.42043 0.41673 0.0
C212 C 0.22059 0.41135 0.46221 0.0
C213 C 0.20906 0.38883 0.46794 0.0
C214 C 0.20014 0.37535 0.42821 0.0
C215 C 0.20282 0.38435 0.38262 0.0
H216 H 0.20699 0.38182 0.50318 0.0
H217 H 0.2319 0.47562 0.06909 0.0
H218 H 0.86772 0.28996 0.54179 0.0
H219 H 0.84794 0.27515 0.46701 0.0
H220 H 0.83329 0.2111 0.50842 0.0
H221 H 0.85263 0.22576 0.58265 0.0
H222 H 0.83979 0.21837 0.40971 0.0
H223 H 0.79951 0.2276 0.54152 0.0
H224 H 0.79423 0.25096 0.59705 0.0
H225 H 0.79792 0.29125 0.48003 0.0
H226 H 0.80292 0.26793 0.42377 0.0
H227 H 0.74229 0.12941 0.36564 0.0
H228 H 0.77432 0.15998 0.39765 0.0
H229 H 0.75961 0.20456 0.33218 0.0
H230 H 0.7271 0.17387 0.30081 0.0
H231 H 0.77322 0.21736 0.41914 0.0
H232 H 0.79917 0.19876 0.28657 0.0
H233 H 0.80355 0.17531 0.22976 0.0
H234 H 0.82897 0.15505 0.34135 0.0
H235 H 0.82445 0.1781 0.39906 0.0
C236 C 0.86094 0.2729 0.5337 0.0
C237 C 0.86172 0.25892 0.56732 0.0
C238 C 0.84956 0.26445 0.49135 0.0
C239 C 0.83907 0.24202 0.48241 0.0
C240 C 0.84136 0.22846 0.51445 0.0
C241 C 0.8524 0.23681 0.55679 0.0
C242 C 0.82331 0.23174 0.44408 0.0
C243 C 0.82528 0.21827 0.41118 0.0
C244 C 0.80474 0.23227 0.44491 0.0
C245 C 0.80174 0.24619 0.47865 0.0
C246 C 0.79925 0.24149 0.52775 0.0
C247 C 0.7963 0.25469 0.5593 0.0
C248 C 0.79591 0.27266 0.54213 0.0
C249 C 0.79829 0.27737 0.4933 0.0
C250 C 0.8011 0.26413 0.46155 0.0
C251 C 0.74582 0.1457 0.35803 0.0
C252 C 0.73216 0.1492 0.33063 0.0
C253 C 0.76427 0.1632 0.37596 0.0
C254 C 0.76966 0.1846 0.36628 0.0
C255 C 0.75587 0.1882 0.33967 0.0
C256 C 0.73728 0.17064 0.32195 0.0
C257 C 0.78922 0.20298 0.38633 0.0
C258 C 0.78793 0.21796 0.41585 0.0
C259 C 0.80853 0.20403 0.38176 0.0
C260 C 0.81141 0.19016 0.34722 0.0
C261 C 0.80559 0.18921 0.29909 0.0
C262 C 0.80811 0.17599 0.26671 0.0
C263 C 0.81653 0.16369 0.28194 0.0
C264 C 0.82247 0.16461 0.32959 0.0
C265 C 0.81997 0.17779 0.36215 0.0
H266 H 0.81846 0.15347 0.25682 0.0
H267 H 0.79364 0.28287 0.5666 0.0
H268 H 0.57437 0.70393 0.52718 0.0
H269 H 0.56633 0.71487 0.60374 0.0
H270 H 0.61411 0.78142 0.57521 0.0
H271 H 0.622 0.77054 0.4997 0.0
H272 H 0.61181 0.77252 0.67011 0.0
H273 H 0.56054 0.76164 0.53737 0.0
H274 H 0.53288 0.73746 0.48064 0.0
H275 H 0.50035 0.69157 0.59314 0.0
H276 H 0.52764 0.71573 0.65065 0.0
H277 H 0.59685 0.85751 0.69373 0.0
H278 H 0.59928 0.82676 0.66761 0.0
H279 H 0.54342 0.78317 0.74633 0.0
H280 H 0.54075 0.81413 0.77274 0.0
H281 H 0.54369 0.76796 0.65625 0.0
H282 H 0.58831 0.79178 0.78984 0.0
H283 H 0.61537 0.81801 0.84483 0.0
H284 H 0.66123 0.83884 0.73351 0.0
H285 H 0.63441 0.813 0.67758 0.0
C286 C 0.58367 0.72069 0.53856 0.0
C287 C 0.59889 0.73645 0.50814 0.0
C288 C 0.57894 0.72696 0.58189 0.0
C289 C 0.58948 0.749 0.59493 0.0
C290 C 0.60584 0.76433 0.56612 0.0
C291 C 0.61037 0.75813 0.52298 0.0
C292 C 0.58214 0.75717 0.63419 0.0
C293 C 0.59679 0.77127 0.66785 0.0
C294 C 0.56225 0.7549 0.63252 0.0
C295 C 0.5461 0.74033 0.59801 0.0
C296 C 0.54749 0.74635 0.54984 0.0
C297 C 0.53191 0.73267 0.51761 0.0
C298 C 0.51498 0.71288 0.53317 0.0
C299 C 0.51352 0.70683 0.5811 0.0
C300 C 0.52898 0.72055 0.61355 0.0
C301 C 0.585 0.84142 0.70551 0.0
C302 C 0.56866 0.8383 0.7355 0.0
C303 C 0.58652 0.82385 0.69085 0.0
C304 C 0.57182 0.80274 0.70602 0.0
C305 C 0.55506 0.79938 0.73475 0.0
C306 C 0.55354 0.81706 0.74961 0.0
C307 C 0.57396 0.78445 0.6898 0.0
C308 C 0.55832 0.76848 0.66061 0.0
C309 C 0.59294 0.78495 0.69588 0.0
C310 C 0.6093 0.80039 0.72947 0.0
C311 C 0.60415 0.80201 0.77699 0.0
C312 C 0.61945 0.81682 0.80835 0.0
C313 C 0.64001 0.83007 0.79268 0.0
C314 C 0.64531 0.82853 0.74562 0.0
C315 C 0.63006 0.81376 0.7141 0.0
H316 H 0.65183 0.84154 0.817 0.0
H317 H 0.50292 0.7023 0.50822 0.0
H318 H 0.80739 0.54408 0.64277 0.0
H319 H 0.79208 0.54845 0.71524 0.0
H320 H 0.84562 0.55949 0.79634 0.0
H321 H 0.86146 0.55545 0.72292 0.0
H322 H 0.80112 0.52699 0.83403 0.0
H323 H 0.84629 0.6008 0.7851 0.0
H324 H 0.86238 0.63085 0.72707 0.0
H325 H 0.80216 0.62101 0.69394 0.0
H326 H 0.78566 0.59065 0.75123 0.0
H327 H 0.75185 0.54826 0.02459 0.0
H328 H 0.77894 0.55145 0.97091 0.0
H329 H 0.74929 0.56363 0.85296 0.0
H330 H 0.72292 0.56185 0.90746 0.0
H331 H 0.78892 0.58822 0.84397 0.0
H332 H 0.74313 0.51171 0.88025 0.0
H333 H 0.7253 0.48043 0.93491 0.0
H334 H 0.78452 0.49357 0.98773 0.0
H335 H 0.80269 0.52514 0.93387 0.0
C336 C 0.81594 0.5473 0.67595 0.0
C337 C 0.83562 0.54937 0.67723 0.0
C338 C 0.80718 0.54987 0.71727 0.0
C339 C 0.8178 0.55439 0.76082 0.0
C340 C 0.83728 0.55605 0.7628 0.0
C341 C 0.84628 0.55378 0.72101 0.0
C342 C 0.80814 0.55744 0.80361 0.0
C343 C 0.79886 0.54062 0.83716 0.0
C344 C 0.80487 0.57499 0.80657 0.0
C345 C 0.81473 0.59335 0.77229 0.0
C346 C 0.83646 0.60492 0.76517 0.0
C347 C 0.84565 0.62204 0.73245 0.0
C348 C 0.83329 0.62782 0.70679 0.0
C349 C 0.81171 0.61651 0.71385 0.0
C350 C 0.80243 0.59937 0.7465 0.0
C351 C 0.75123 0.55177 0.98724 0.0
C352 C 0.73529 0.55471 0.97 0.0
C353 C 0.76665 0.55347 0.95654 0.0
C354 C 0.76594 0.55732 0.90765 0.0
C355 C 0.75017 0.56063 0.89055 0.0
C356 C 0.73507 0.55953 0.92157 0.0
C357 C 0.78122 0.55739 0.87387 0.0
C358 C 0.79152 0.57479 0.84182 0.0
C359 C 0.78518 0.54019 0.87193 0.0
C360 C 0.77426 0.5209 0.9034 0.0
C361 C 0.75234 0.50797 0.90367 0.0
C362 C 0.74217 0.4902 0.93452 0.0
C363 C 0.75377 0.48505 0.96487 0.0
C364 C 0.77556 0.49759 0.96423 0.0
C365 C 0.7858 0.51542 0.93356 0.0
H366 H 0.74587 0.47133 0.98883 0.0
H367 H 0.84044 0.64107 0.68147 0.0
H368 H 0.26806 0.84914 0.87964 0.0
H369 H 0.24066 0.81614 0.91768 0.0
H370 H 0.19396 0.82029 0.83659 0.0
H371 H 0.22138 0.85353 0.7983 0.0
H372 H 0.18449 0.81357 0.93099 0.0
H373 H 0.20244 0.7804 0.81068 0.0
H374 H 0.22569 0.77469 0.75869 0.0
H375 H 0.2496 0.75865 0.88095 0.0
H376 H 0.22677 0.76463 0.93383 0.0
H377 H 0.12115 0.72411 0.08282 0.0
H378 H 0.13325 0.74062 0.00363 0.0
H379 H 0.19584 0.75748 0.03987 0.0
H380 H 0.1839 0.7409 0.1177 0.0
H381 H 0.18774 0.74686 0.94614 0.0
H382 H 0.17858 0.79235 0.06328 0.0
H383 H 0.15711 0.80003 0.117 0.0
H384 H 0.11742 0.79346 -0.00052 0.0
H385 H 0.13857 0.78551 0.94521 0.0
C386 C 0.25199 0.84302 0.86968 0.0
C387 C 0.24689 0.85399 0.83609 0.0
C388 C 0.23635 0.82403 0.89112 0.0
C389 C 0.21531 0.81559 0.87934 0.0
C390 C 0.21012 0.82647 0.84582 0.0
C391 C 0.2258 0.84546 0.82411 0.0
C392 C 0.19889 0.79631 0.90507 0.0
C393 C 0.18473 0.79868 0.93318 0.0
C394 C 0.19926 0.77694 0.90793 0.0
C395 C 0.21288 0.77302 0.87628 0.0
C396 C 0.21273 0.77577 0.82655 0.0
C397 C 0.22584 0.77248 0.7969 0.0
C398 C 0.23911 0.76632 0.81651 0.0
C399 C 0.23929 0.7634 0.86581 0.0
C400 C 0.22623 0.7667 0.89564 0.0
C401 C 0.13738 0.73087 0.07331 0.0
C402 C 0.1517 0.73168 0.10693 0.0
C403 C 0.14426 0.74031 0.02816 0.0
C404 C 0.16551 0.75056 0.01619 0.0
C405 C 0.17939 0.74973 0.04835 0.0
C406 C 0.17257 0.74045 0.09326 0.0
C407 C 0.1742 0.76468 0.97364 0.0
C408 C 0.18691 0.76136 0.94237 0.0
C409 C 0.17257 0.78324 0.96788 0.0
C410 C 0.15995 0.78807 0.00042 0.0
C411 C 0.16519 0.79241 0.04903 0.0
C412 C 0.1531 0.79683 0.07953 0.0
C413 C 0.13587 0.79716 0.0617 0.0
C414 C 0.13073 0.79314 0.01327 0.0
C415 C 0.14276 0.78867 0.98263 0.0
H416 H 0.12653 0.80059 0.08536 0.0
H417 H 0.24926 0.7638 0.7935 0.0
H418 H 0.38169 0.15538 0.27194 0.0
H419 H 0.38824 0.18861 0.23255 0.0
H420 H 0.43591 0.18883 0.14592 0.0
H421 H 0.42965 0.1558 0.18538 0.0
H422 H 0.44737 0.22983 0.17652 0.0
H423 H 0.38663 0.16699 0.10417 0.0
H424 H 0.35128 0.13436 0.10643 0.0
H425 H 0.32677 0.17233 0.16079 0.0
H426 H 0.36206 0.20515 0.15936 0.0
H427 H 0.45225 0.26578 0.94604 0.0
H428 H 0.44968 0.25 0.02399 0.0
H429 H 0.40306 0.26485 0.06554 0.0
H430 H 0.40531 0.28039 0.98613 0.0
H431 H 0.38937 0.22306 0.07769 0.0
H432 H 0.44956 0.28781 0.12639 0.0
H433 H 0.48494 0.32016 0.12068 0.0
H434 H 0.51091 0.27952 0.10952 0.0
H435 H 0.47569 0.24691 0.11441 0.0
C436 C 0.39366 0.16257 0.2447 0.0
C437 C 0.40498 0.15282 0.23131 0.0
C438 C 0.39741 0.18159 0.22237 0.0
C439 C 0.41245 0.19106 0.18616 0.0
C440 C 0.42428 0.18179 0.17395 0.0
C441 C 0.42057 0.16282 0.19626 0.0
C442 C 0.4149 0.20961 0.15808 0.0
C443 C 0.43473 0.22848 0.15493 0.0
C444 C 0.39816 0.20811 0.13153 0.0
C445 C 0.37698 0.18842 0.13227 0.0
C446 C 0.37372 0.16833 0.11695 0.0
C447 C 0.3537 0.14981 0.11802 0.0
C448 C 0.3368 0.15126 0.13391 0.0
C449 C 0.33988 0.17123 0.14862 0.0
C450 C 0.35988 0.18978 0.14768 0.0
C451 C 0.44161 0.26593 0.9717 0.0
C452 C 0.42865 0.27386 0.95957 0.0
C453 C 0.44039 0.25721 0.01676 0.0
C454 C 0.42626 0.25635 0.0508 0.0
C455 C 0.41415 0.26546 0.03984 0.0
C456 C 0.41547 0.27434 0.99458 0.0
C457 C 0.42214 0.24298 0.09421 0.0
C458 C 0.40194 0.22496 0.10041 0.0
C459 C 0.43858 0.2453 0.12342 0.0
C460 C 0.45991 0.26487 0.12072 0.0
C461 C 0.46279 0.28575 0.12245 0.0
C462 C 0.48284 0.30414 0.11938 0.0
C463 C 0.50016 0.3019 0.11473 0.0
C464 C 0.49748 0.28124 0.1132 0.0
C465 C 0.47747 0.26279 0.11623 0.0
H466 H 0.51566 0.31616 0.11234 0.0
H467 H 0.32131 0.13691 0.1347 0.0
H468 H 0.18995 0.53411 0.15237 0.0
H469 H 0.18515 0.5635 0.17702 0.0
H470 H 0.11919 0.52372 0.14779 0.0
H471 H 0.12399 0.49418 0.12146 0.0
H472 H 0.13363 0.56295 0.11453 0.0
H473 H 0.13816 0.53501 0.26427 0.0
H474 H 0.15228 0.5215 0.32542 0.0
H475 H 0.20944 0.58342 0.32876 0.0
H476 H 0.19579 0.59723 0.26711 0.0
H477 H 0.12317 0.64757 0.22069 0.0
H478 H 0.11902 0.61176 0.21113 0.0
H479 H 0.1859 0.64152 0.20646 0.0
H480 H 0.19023 0.67731 0.21553 0.0
H481 H 0.16494 0.60364 0.26471 0.0
H482 H 0.16084 0.62878 0.10598 0.0
H483 H 0.14585 0.64183 0.04587 0.0
H484 H 0.08587 0.58371 0.06302 0.0
H485 H 0.10047 0.57046 0.12378 0.0
C486 C 0.17435 0.53146 0.15138 0.0
C487 C 0.15732 0.5117 0.13513 0.0
C488 C 0.17162 0.5483 0.16583 0.0
C489 C 0.15173 0.54569 0.16529 0.0
C490 C 0.13466 0.52604 0.14883 0.0
C491 C 0.13743 0.50918 0.13382 0.0
C492 C 0.1492 0.56396 0.18011 0.0
C493 C 0.14004 0.57152 0.14791 0.0
C494 C 0.1577 0.5753 0.22351 0.0
C495 C 0.16597 0.56712 0.26082 0.0
C496 C 0.15379 0.54571 0.27781 0.0
C497 C 0.16171 0.538 0.3126 0.0
C498 C 0.18175 0.55158 0.33091 0.0
C499 C 0.19391 0.57292 0.31454 0.0
C500 C 0.18608 0.58071 0.27972 0.0
C501 C 0.137 0.64647 0.21807 0.0
C502 C 0.15704 0.66529 0.21857 0.0
C503 C 0.13458 0.62603 0.21251 0.0
C504 C 0.15216 0.62408 0.20787 0.0
C505 C 0.17216 0.64273 0.21004 0.0
C506 C 0.17459 0.66317 0.21498 0.0
C507 C 0.14992 0.60278 0.19861 0.0
C508 C 0.15816 0.59472 0.23187 0.0
C509 C 0.14039 0.59086 0.15652 0.0
C510 C 0.13167 0.59876 0.11981 0.0
C511 C 0.14441 0.61887 0.09722 0.0
C512 C 0.136 0.62629 0.06299 0.0
C513 C 0.11491 0.61364 0.05075 0.0
C514 C 0.1022 0.59351 0.07261 0.0
C515 C 0.11053 0.58604 0.10693 0.0
H516 H 0.10842 0.6194 0.02423 0.0
H517 H 0.18786 0.54558 0.35783 0.0
H518 H 0.63343 0.12937 0.30564 0.0
H519 H 0.60561 0.13598 0.32812 0.0
H520 H 0.58596 0.12858 0.18101 0.0
H521 H 0.6136 0.12203 0.15832 0.0
H522 H 0.58081 0.15954 0.23049 0.0
H523 H 0.56511 0.08521 0.24862 0.0
H524 H 0.57164 0.05746 0.28089 0.0
H525 H 0.56684 0.07599 0.4239 0.0
H526 H 0.56057 0.10407 0.39238 0.0
H527 H 0.47086 0.11241 0.22951 0.0
H528 H 0.5077 0.12421 0.2198 0.0
H529 H 0.51265 0.11719 0.37158 0.0
H530 H 0.4757 0.10444 0.38095 0.0
H531 H 0.5282 0.09815 0.32888 0.0
H532 H 0.53762 0.16833 0.31126 0.0
H533 H 0.53111 0.19615 0.27949 0.0
H534 H 0.54783 0.18679 0.13873 0.0
H535 H 0.55417 0.15869 0.16951 0.0
C536 C 0.62359 0.12982 0.27792 0.0
C537 C 0.62546 0.12482 0.23035 0.0
C538 C 0.60769 0.13355 0.29082 0.0
C539 C 0.59357 0.13245 0.25627 0.0
C540 C 0.59666 0.12947 0.2082 0.0
C541 C 0.61239 0.12557 0.19537 0.0
C542 C 0.5739 0.13109 0.27044 0.0
C543 C 0.56925 0.14619 0.25208 0.0
C544 C 0.55905 0.11386 0.29929 0.0
C545 C 0.56264 0.09688 0.31818 0.0
C546 C 0.56561 0.08346 0.28694 0.0
C547 C 0.56924 0.06767 0.30508 0.0
C548 C 0.56972 0.06501 0.35442 0.0
C549 C 0.56651 0.0781 0.3857 0.0
C550 C 0.56292 0.09395 0.36772 0.0
C551 C 0.47992 0.11369 0.26081 0.0
C552 C 0.47038 0.1073 0.30588 0.0
C553 C 0.50103 0.12059 0.25534 0.0
C554 C 0.51309 0.12179 0.29504 0.0
C555 C 0.50372 0.11633 0.34035 0.0
C556 C 0.48257 0.10901 0.34566 0.0
C557 C 0.5348 0.12661 0.28887 0.0
C558 C 0.53981 0.11194 0.30837 0.0
C559 C 0.54996 0.14433 0.26137 0.0
C560 C 0.54623 0.16128 0.24268 0.0
C561 C 0.53977 0.17209 0.27347 0.0
C562 C 0.53614 0.18793 0.25564 0.0
C563 C 0.53902 0.1932 0.20711 0.0
C564 C 0.5456 0.18268 0.17632 0.0
C565 C 0.54924 0.16682 0.19395 0.0
H566 H 0.53619 0.20547 0.19338 0.0
H567 H 0.57253 0.05277 0.36841 0.0
H568 H 0.35394 0.55121 0.4593 0.0
H569 H 0.38852 0.58241 0.44378 0.0
H570 H 0.41581 0.54365 0.47248 0.0
H571 H 0.3811 0.51228 0.4895 0.0
H572 H 0.43826 0.58201 0.51319 0.0
H573 H 0.41066 0.55749 0.35714 0.0
H574 H 0.38493 0.54553 0.29185 0.0
H575 H 0.38931 0.60727 0.29352 0.0
H576 H 0.41486 0.61951 0.35931 0.0
H577 H 0.5362 0.6592 0.40623 0.0
H578 H 0.50215 0.62604 0.41786 0.0
H579 H 0.47306 0.66406 0.42746 0.0
H580 H 0.5071 0.69738 0.41659 0.0
H581 H 0.45257 0.62519 0.36481 0.0
H582 H 0.48018 0.64857 0.52413 0.0
H583 H 0.50713 0.65989 0.58645 0.0
H584 H 0.50377 0.59883 0.57471 0.0
H585 H 0.47709 0.58728 0.51158 0.0
C586 C 0.36724 0.54921 0.46218 0.0
C587 C 0.3647 0.52916 0.47538 0.0
C588 C 0.38704 0.5671 0.45307 0.0
C589 C 0.40475 0.5653 0.4561 0.0
C590 C 0.40235 0.54539 0.46974 0.0
C591 C 0.3825 0.52747 0.47935 0.0
C592 C 0.42574 0.58438 0.44569 0.0
C593 C 0.44146 0.59122 0.48038 0.0
C594 C 0.42988 0.59661 0.40314 0.0
C595 C 0.41455 0.58935 0.36345 0.0
C596 C 0.40603 0.56846 0.34383 0.0
C597 C 0.39149 0.56164 0.30669 0.0
C598 C 0.38545 0.57561 0.28862 0.0
C599 C 0.39398 0.59646 0.30759 0.0
C600 C 0.40852 0.60336 0.34477 0.0
C601 C 0.52253 0.6605 0.41049 0.0
C602 C 0.52429 0.68087 0.41067 0.0
C603 C 0.50315 0.64157 0.41727 0.0
C604 C 0.4852 0.6427 0.42363 0.0
C605 C 0.48679 0.66294 0.42257 0.0
C606 C 0.50622 0.68191 0.4166 0.0
C607 C 0.46481 0.62277 0.43243 0.0
C608 C 0.44929 0.61583 0.39742 0.0
C609 C 0.46095 0.61031 0.47434 0.0
C610 C 0.4768 0.61715 0.51273 0.0
C611 C 0.48532 0.63763 0.53449 0.0
C612 C 0.50053 0.64408 0.57002 0.0
C613 C 0.50719 0.63012 0.58444 0.0
C614 C 0.49862 0.60964 0.56344 0.0
C615 C 0.48345 0.60313 0.52779 0.0
H616 H 0.51895 0.63514 0.61196 0.0
H617 H 0.3742 0.5703 0.25986 0.0
H618 H 0.8707 0.49052 0.60093 0.0
H619 H 0.87413 0.45912 0.61587 0.0
H620 H 0.80706 0.4174 0.61691 0.0
H621 H 0.80352 0.44872 0.60373 0.0
H622 H 0.82242 0.40604 0.68557 0.0
H623 H 0.83824 0.42151 0.51863 0.0
H624 H 0.85682 0.4442 0.44872 0.0
H625 H 0.9148 0.45442 0.50303 0.0
H626 H 0.89659 0.432 0.57361 0.0
H627 H 0.81293 0.30425 0.64232 0.0
H628 H 0.81246 0.33768 0.63266 0.0
H629 H 0.87864 0.37556 0.65999 0.0
H630 H 0.8793 0.34222 0.66993 0.0
H631 H 0.86556 0.38965 0.5798 0.0
H632 H 0.84811 0.37183 0.74536 0.0
H633 H 0.82834 0.34798 0.81287 0.0
H634 H 0.77173 0.34087 0.75747 0.0
H635 H 0.79112 0.36443 0.68921 0.0
C636 C 0.85669 0.47465 0.6044 0.0
C637 C 0.83683 0.47212 0.60102 0.0
C638 C 0.85867 0.4567 0.61273 0.0
C639 C 0.84085 0.43582 0.61683 0.0
C640 C 0.82104 0.43333 0.61394 0.0
C641 C 0.81905 0.45128 0.60629 0.0
C642 C 0.8427 0.41649 0.62413 0.0
C643 C 0.83168 0.40237 0.66206 0.0
C644 C 0.85513 0.41187 0.59414 0.0
C645 C 0.86609 0.42527 0.55164 0.0
C646 C 0.85498 0.42872 0.51583 0.0
C647 C 0.86543 0.44152 0.47606 0.0
C648 C 0.88698 0.4508 0.47151 0.0
C649 C 0.89811 0.44725 0.50665 0.0
C650 C 0.88773 0.43449 0.54652 0.0
C651 C 0.82741 0.31968 0.64615 0.0
C652 C 0.84615 0.32057 0.65696 0.0
C653 C 0.82709 0.33875 0.64082 0.0
C654 C 0.8455 0.35904 0.64591 0.0
C655 C 0.86428 0.36003 0.656 0.0
C656 C 0.86458 0.34096 0.66186 0.0
C657 C 0.84508 0.37922 0.64071 0.0
C658 C 0.85639 0.39346 0.60329 0.0
C659 C 0.83273 0.38382 0.67078 0.0
C660 C 0.82104 0.36973 0.71193 0.0
C661 C 0.83142 0.36504 0.74735 0.0
C662 C 0.82028 0.3516 0.78579 0.0
C663 C 0.79878 0.34287 0.78939 0.0
C664 C 0.78838 0.34762 0.75461 0.0
C665 C 0.79944 0.36103 0.71605 0.0
H666 H 0.79019 0.33248 0.81919 0.0
H667 H 0.89505 0.4607 0.44069 0.0
H668 H 0.34792 0.88575 0.85182 0.0
H669 H 0.37142 0.87273 0.87188 0.0
H670 H 0.39568 0.88636 0.7282 0.0
H671 H 0.37246 0.89935 0.70795 0.0
H672 H 0.39053 0.84756 0.76468 0.0
H673 H 0.42059 0.92331 0.81099 0.0
H674 H 0.42057 0.95298 0.85475 0.0
H675 H 0.4152 0.92088 0.98784 0.0
H676 H 0.41492 0.89087 0.94473 0.0
H677 H 0.49543 0.87329 0.76899 0.0
H678 H 0.46061 0.86786 0.76001 0.0
H679 H 0.45404 0.86639 0.91346 0.0
H680 H 0.48928 0.87303 0.92231 0.0
H681 H 0.44588 0.89356 0.88137 0.0
H682 H 0.42234 0.82084 0.83675 0.0
H683 H 0.42233 0.79102 0.79372 0.0
H684 H 0.41472 0.81549 0.66036 0.0
H685 H 0.41498 0.84565 0.70249 0.0
C686 C 0.35805 0.88567 0.82438 0.0
C687 C 0.35854 0.89387 0.77852 0.0
C688 C 0.37144 0.87823 0.83586 0.0
C689 C 0.38535 0.87872 0.80155 0.0
C690 C 0.38504 0.88579 0.75514 0.0
C691 C 0.37187 0.89341 0.7438 0.0
C692 C 0.40172 0.87399 0.81462 0.0
C693 C 0.40267 0.85753 0.79023 0.0
C694 C 0.4172 0.88668 0.84879 0.0
C695 C 0.41746 0.90475 0.87464 0.0
C696 C 0.41923 0.92251 0.84956 0.0
C697 C 0.41931 0.9394 0.87423 0.0
C698 C 0.41781 0.93878 0.92403 0.0
C699 C 0.41631 0.92131 0.94926 0.0
C700 C 0.41619 0.90436 0.92473 0.0
C701 C 0.48629 0.87122 0.8007 0.0
C702 C 0.49503 0.87372 0.8463 0.0
C703 C 0.46632 0.86801 0.79561 0.0
C704 C 0.45455 0.86663 0.83609 0.0
C705 C 0.4628 0.86755 0.88167 0.0
C706 C 0.48291 0.87127 0.88672 0.0
C707 C 0.43504 0.86713 0.83109 0.0
C708 C 0.43354 0.88302 0.85676 0.0
C709 C 0.41902 0.85375 0.79837 0.0
C710 C 0.41881 0.8356 0.77281 0.0
C711 C 0.42081 0.81996 0.79821 0.0
C712 C 0.42073 0.80298 0.77398 0.0
C713 C 0.41856 0.80138 0.72433 0.0
C714 C 0.4164 0.81675 0.69882 0.0
C715 C 0.41648 0.83377 0.72287 0.0
H716 H 0.41851 0.78822 0.70564 0.0
H717 H 0.41788 0.95187 0.94308 0.0
H718 H 0.48394 0.35592 0.84715 0.0
H719 H 0.51678 0.39035 0.85885 0.0
H720 H 0.55079 0.35736 0.8452 0.0
H721 H 0.51805 0.32289 0.8352 0.0
H722 H 0.56273 0.38069 0.92117 0.0
H723 H 0.5523 0.39373 0.75874 0.0
H724 H 0.53313 0.39662 0.69044 0.0
H725 H 0.52935 0.447 0.76255 0.0
H726 H 0.54826 0.44421 0.8316 0.0
H727 H 0.66393 0.4697 0.92352 0.0
H728 H 0.63209 0.44124 0.88584 0.0
H729 H 0.59881 0.4714 0.93585 0.0
H730 H 0.63067 0.5001 0.9741 0.0
H731 H 0.58668 0.45091 0.83976 0.0
H732 H 0.59585 0.43578 0.00354 0.0
H733 H 0.6159 0.43301 0.07002 0.0
H734 H 0.62251 0.38579 0.99146 0.0
H735 H 0.60277 0.38857 0.92413 0.0
C736 C 0.49845 0.35608 0.8459 0.0
C737 C 0.49841 0.33667 0.84069 0.0
C738 C 0.51724 0.3758 0.85237 0.0
C739 C 0.53631 0.37649 0.85275 0.0
C740 C 0.53628 0.35724 0.84533 0.0
C741 C 0.51755 0.33753 0.83961 0.0
C742 C 0.5561 0.39677 0.86513 0.0
C743 C 0.56805 0.39591 0.90267 0.0
C744 C 0.56285 0.41685 0.84207 0.0
C745 C 0.55153 0.41861 0.80055 0.0
C746 C 0.54724 0.40531 0.76021 0.0
C747 C 0.53645 0.40695 0.72132 0.0
C748 C 0.52998 0.42194 0.72221 0.0
C749 C 0.53435 0.43537 0.76194 0.0
C750 C 0.54512 0.43378 0.80094 0.0
C751 C 0.65 0.47063 0.9258 0.0
C752 C 0.64979 0.487 0.9527 0.0
C753 C 0.63182 0.45435 0.90405 0.0
C754 C 0.61311 0.45413 0.90864 0.0
C755 C 0.61315 0.47135 0.93198 0.0
C756 C 0.63136 0.48766 0.954 0.0
C757 C 0.59319 0.43449 0.89491 0.0
C758 C 0.58125 0.43556 0.85769 0.0
C759 C 0.58642 0.41447 0.91793 0.0
C760 C 0.59803 0.41256 0.95863 0.0
C761 C 0.60172 0.42494 0.00029 0.0
C762 C 0.61301 0.42335 0.03814 0.0
C763 C 0.62052 0.40927 0.03491 0.0
C764 C 0.61671 0.39671 0.99387 0.0
C765 C 0.60547 0.39828 0.95587 0.0
H766 H 0.62926 0.40806 0.06426 0.0
H767 H 0.52163 0.42319 0.69207 0.0
H768 H 0.29243 0.46699 0.68034 0.0
H769 H 0.27512 0.47089 0.75025 0.0
H770 H 0.27993 0.52806 0.68807 0.0
H771 H 0.29645 0.52369 0.61727 0.0
H772 H 0.2806 0.49779 0.8181 0.0
H773 H 0.23541 0.52777 0.70615 0.0
H774 H 0.2237 0.52613 0.62303 0.0
H775 H 0.22349 0.46715 0.60028 0.0
H776 H 0.23491 0.4683 0.6834 0.0
H777 H 0.22282 0.51598 0.98477 0.0
H778 H 0.24469 0.52363 0.91416 0.0
H779 H 0.19376 0.46869 0.84214 0.0
H780 H 0.17156 0.46142 0.91214 0.0
H781 H 0.21661 0.499 0.77938 0.0
H782 H 0.2294 0.46302 0.90625 0.0
H783 H 0.23739 0.45802 0.98901 0.0
H784 H 0.29658 0.51774 0.98062 0.0
H785 H 0.28882 0.52321 0.89791 0.0
C786 C 0.29028 0.4807 0.68215 0.0
C787 C 0.29547 0.49485 0.64316 0.0
C788 C 0.28034 0.4829 0.72208 0.0
C789 C 0.27571 0.49942 0.72376 0.0
C790 C 0.28282 0.51484 0.68691 0.0
C791 C 0.29237 0.51241 0.64665 0.0
C792 C 0.26186 0.49931 0.76172 0.0
C793 C 0.26673 0.49826 0.80962 0.0
C794 C 0.24338 0.49927 0.75067 0.0
C795 C 0.23626 0.49829 0.70079 0.0
C796 C 0.2328 0.51443 0.68342 0.0
C797 C 0.22622 0.51358 0.63632 0.0
C798 C 0.22293 0.49659 0.60634 0.0
C799 C 0.22612 0.48035 0.62347 0.0
C800 C 0.23266 0.4811 0.67056 0.0
C801 C 0.2161 0.50593 0.95333 0.0
C802 C 0.19561 0.48792 0.95409 0.0
C803 C 0.22864 0.51025 0.91314 0.0
C804 C 0.22104 0.49632 0.87352 0.0
C805 C 0.19998 0.47954 0.87251 0.0
C806 C 0.18729 0.47542 0.91249 0.0
C807 C 0.23552 0.49777 0.83566 0.0
C808 C 0.2307 0.49895 0.78783 0.0
C809 C 0.25357 0.497 0.84665 0.0
C810 C 0.25844 0.49363 0.8961 0.0
C811 C 0.24407 0.47514 0.92216 0.0
C812 C 0.24856 0.47222 0.96904 0.0
C813 C 0.26745 0.48759 0.99012 0.0
C814 C 0.28194 0.50587 0.96427 0.0
C815 C 0.27751 0.50888 0.91737 0.0
H816 H 0.27088 0.48531 0.02645 0.0
H817 H 0.21785 0.49598 0.56988 0.0
H818 H 0.68577 0.13251 0.03712 0.0
H819 H 0.71395 0.15752 0.98442 0.0
H820 H 0.75696 0.18033 0.10293 0.0
H821 H 0.72871 0.15555 0.15643 0.0
H822 H 0.76386 0.21367 0.04375 0.0
H823 H 0.75712 0.14472 0.02816 0.0
H824 H 0.7387 0.10505 0.01748 0.0
H825 H 0.7182 0.11113 0.87834 0.0
H826 H 0.73621 0.15083 0.88848 0.0
H827 H 0.84633 0.25694 0.85812 0.0
H828 H 0.82595 0.23881 0.9304 0.0
H829 H 0.76901 0.21238 0.84916 0.0
H830 H 0.78883 0.23037 0.7778 0.0
H831 H 0.77518 0.18123 0.89927 0.0
H832 H 0.77887 0.25021 0.92174 0.0
H833 H 0.79766 0.28982 0.93388 0.0
H834 H 0.8256 0.28331 0.06167 0.0
H835 H 0.80719 0.24365 0.04988 0.0
C836 C 0.70116 0.14292 0.0522 0.0
C837 C 0.705 0.14184 0.10093 0.0
C838 C 0.71727 0.15718 0.02197 0.0
C839 C 0.73762 0.17046 0.03964 0.0
C840 C 0.74139 0.17013 0.08858 0.0
C841 C 0.72522 0.15591 0.11902 0.0
C842 C 0.75491 0.18397 0.00623 0.0
C843 C 0.76664 0.20657 0.01261 0.0
C844 C 0.7586 0.17466 0.96581 0.0
C845 C 0.74793 0.15077 0.95922 0.0
C846 C 0.74858 0.1376 0.99539 0.0
C847 C 0.73821 0.1151 0.98942 0.0
C848 C 0.72726 0.10557 0.94729 0.0
C849 C 0.72669 0.11853 0.91097 0.0
C850 C 0.737 0.14104 0.91679 0.0
C851 C 0.82946 0.24757 0.85594 0.0
C852 C 0.81925 0.24488 0.81199 0.0
C853 C 0.81788 0.23723 0.89717 0.0
C854 C 0.79604 0.22411 0.89474 0.0
C855 C 0.78587 0.22227 0.85154 0.0
C856 C 0.7973 0.23261 0.81075 0.0
C857 C 0.78345 0.21092 0.93574 0.0
C858 C 0.77268 0.18829 0.93089 0.0
C859 C 0.78085 0.22022 0.97759 0.0
C860 C 0.7919 0.24402 0.98456 0.0
C861 C 0.78921 0.25725 0.95213 0.0
C862 C 0.79974 0.2797 0.95902 0.0
C863 C 0.81288 0.28909 -0.00158 0.0
C864 C 0.81546 0.27603 0.0311 0.0
C865 C 0.80498 0.25356 0.02434 0.0
H866 H 0.82101 0.30647 0.0037 0.0
H867 H 0.71923 0.08814 0.94274 0.0
H868 H 0.56447 0.77894 0.3045 0.0
H869 H 0.5617 0.79676 0.23397 0.0
H870 H 0.58475 0.76446 0.14655 0.0
H871 H 0.58768 0.74629 0.21779 0.0
H872 H 0.59409 0.82485 0.17493 0.0
H873 H 0.55985 0.758 0.03338 0.0
H874 H 0.53872 0.71806 0.02745 0.0
H875 H 0.50823 0.71493 0.15964 0.0
H876 H 0.52898 0.75483 0.166 0.0
H877 H 0.56613 0.84044 0.91613 0.0
H878 H 0.57047 0.81766 0.97381 0.0
H879 H 0.55478 0.84663 0.08847 0.0
H880 H 0.55098 0.86989 0.03134 0.0
H881 H 0.54636 0.78762 0.03846 0.0
H882 H 0.58487 0.85526 0.18304 0.0
H883 H 0.606 0.89525 0.18646 0.0
H884 H 0.62934 0.89716 0.04538 0.0
H885 H 0.60866 0.8572 0.04142 0.0
C886 C 0.56892 0.77544 0.27042 0.0
C887 C 0.57645 0.76123 0.26696 0.0
C888 C 0.56736 0.78574 0.23009 0.0
C889 C 0.57311 0.78202 0.1852 0.0
C890 C 0.58019 0.76749 0.18102 0.0
C891 C 0.58186 0.75714 0.22169 0.0
C892 C 0.572 0.79398 0.14354 0.0
C893 C 0.58361 0.81673 0.14514 0.0
C894 C 0.55889 0.78333 0.10397 0.0
C895 C 0.54617 0.75936 0.10045 0.0
C896 C 0.54861 0.74877 0.06112 0.0
C897 C 0.5367 0.72614 0.05768 0.0
C898 C 0.52221 0.71396 0.09325 0.0
C899 C 0.51954 0.72438 0.13223 0.0
C900 C 0.53139 0.74699 0.13582 0.0
C901 C 0.56343 0.84185 0.95361 0.0
C902 C 0.55847 0.85719 0.96927 0.0
C903 C 0.56589 0.82878 0.98647 0.0
C904 C 0.56337 0.83078 0.03544 0.0
C905 C 0.55729 0.84521 0.05088 0.0
C906 C 0.55506 0.85845 0.01818 0.0
C907 C 0.56787 0.81849 0.07083 0.0
C908 C 0.55707 0.79576 0.06788 0.0
C909 C 0.58192 0.82915 0.10903 0.0
C910 C 0.59507 0.85321 0.11184 0.0
C911 C 0.59464 0.8642 0.15291 0.0
C912 C 0.60652 0.88686 0.15491 0.0
C913 C 0.61896 0.89873 0.11612 0.0
C914 C 0.61966 0.88795 0.07536 0.0
C915 C 0.60786 0.86529 0.07322 0.0
H916 H 0.62806 0.91627 0.11765 0.0
H917 H 0.51301 0.69645 0.09053 0.0
H918 H 0.83346 0.54271 0.39852 0.0
H919 H 0.81245 0.53959 0.32849 0.0
H920 H 0.76486 0.4753 0.37308 0.0
H921 H 0.78546 0.47858 0.4436 0.0
H922 H 0.78944 0.51242 0.25078 0.0
H923 H 0.72024 0.47518 0.3823 0.0
H924 H 0.71409 0.47295 0.46931 0.0
H925 H 0.77157 0.53367 0.48891 0.0
H926 H 0.77785 0.53643 0.40201 0.0
H927 H 0.69541 0.48146 0.1279 0.0
H928 H 0.72157 0.48176 0.18021 0.0
H929 H 0.7264 0.53571 0.25842 0.0
H930 H 0.70009 0.53548 0.20639 0.0
H931 H 0.72502 0.50596 0.31729 0.0
H932 H 0.76492 0.54519 0.18055 0.0
H933 H 0.77291 0.55158 0.09462 0.0
H934 H 0.7765 0.49419 0.08598 0.0
H935 H 0.76865 0.48754 0.17215 0.0
C936 C 0.81893 0.52758 0.39222 0.0
C937 C 0.81084 0.51103 0.42672 0.0
C938 C 0.80695 0.52581 0.35222 0.0
C939 C 0.78692 0.50743 0.34641 0.0
C940 C 0.78015 0.48975 0.37745 0.0
C941 C 0.79192 0.49163 0.41767 0.0
C942 C 0.77166 0.50832 0.31452 0.0
C943 C 0.77529 0.51087 0.26515 0.0
C944 C 0.75355 0.50704 0.33358 0.0
C945 C 0.7496 0.50587 0.38575 0.0
C946 C 0.73149 0.4881 0.40519 0.0
C947 C 0.72799 0.48674 0.45447 0.0
C948 C 0.74247 0.50312 0.48463 0.0
C949 C 0.7604 0.52096 0.46554 0.0
C950 C 0.76394 0.52243 0.41628 0.0
C951 C 0.70198 0.49337 0.15632 0.0
C952 C 0.69585 0.50862 0.16262 0.0
C953 C 0.71702 0.49358 0.18597 0.0
C954 C 0.72621 0.50903 0.2225 0.0
C955 C 0.71959 0.52377 0.2301 0.0
C956 C 0.70454 0.52359 0.2004 0.0
C957 C 0.74248 0.50955 0.25331 0.0
C958 C 0.73907 0.50734 0.30269 0.0
C959 C 0.76098 0.51173 0.23427 0.0
C960 C 0.76603 0.51578 0.18267 0.0
C961 C 0.76732 0.53388 0.16028 0.0
C962 C 0.77184 0.53756 0.11154 0.0
C963 C 0.77507 0.52322 0.08474 0.0
C964 C 0.77396 0.50527 0.10677 0.0
C965 C 0.76957 0.50159 0.15562 0.0
H966 H 0.7785 0.52608 0.04698 0.0
H967 H 0.73976 0.50201 0.52278 0.0
H968 H 0.15916 0.73963 0.39874 0.0
H969 H 0.17626 0.76026 0.47132 0.0
H970 H 0.23646 0.78083 0.40959 0.0
H971 H 0.21965 0.75999 0.33794 0.0
H972 H 0.2372 0.77412 0.50211 0.0
H973 H 0.2137 0.81188 0.40086 0.0
H974 H 0.18744 0.81604 0.35711 0.0
H975 H 0.15427 0.80813 0.48786 0.0
H976 H 0.18022 0.80365 0.53228 0.0
H977 H 0.30737 0.88024 0.58731 0.0
H978 H 0.28342 0.84931 0.53734 0.0
H979 H 0.23392 0.83156 0.63904 0.0
H980 H 0.25781 0.86219 0.68975 0.0
H981 H 0.22369 0.83306 0.53866 0.0
H982 H 0.25154 0.80118 0.64092 0.0
H983 H 0.27945 0.79912 0.68236 0.0
H984 H 0.30596 0.79778 0.54741 0.0
H985 H 0.27836 0.80014 0.50512 0.0
C986 C 0.17601 0.74817 0.40105 0.0
C987 C 0.18803 0.74842 0.36218 0.0
C988 C 0.18577 0.76004 0.44246 0.0
C989 C 0.20765 0.77243 0.44546 0.0
C990 C 0.21956 0.77147 0.40804 0.0
C991 C 0.20988 0.7596 0.36689 0.0
C992 C 0.21842 0.78787 0.48529 0.0
C993 C 0.23423 0.78699 0.5101 0.0
C994 C 0.21431 0.80446 0.49639 0.0
C995 C 0.19872 0.80714 0.46975 0.0
C996 C 0.20071 0.81085 0.42019 0.0
C997 C 0.18591 0.8133 0.39529 0.0
C998 C 0.16916 0.81227 0.41966 0.0
C999 C 0.16722 0.80886 0.46901 0.0
C1000 C 0.18197 0.80637 0.49406 0.0
C1001 C 0.29138 0.86979 0.59901 0.0
C1002 C 0.2845 0.87363 0.6425 0.0
C1003 C 0.27777 0.8521 0.57057 0.0
C1004 C 0.257 0.83814 0.58483 0.0
C1005 C 0.24993 0.84215 0.62765 0.0
C1006 C 0.26362 0.85962 0.65653 0.0
C1007 C 0.2427 0.81952 0.55441 0.0
C1008 C 0.22631 0.81988 0.53138 0.0
C1009 C 0.24641 0.8026 0.54462 0.0
C1010 C 0.26296 0.80101 0.56985 0.0
C1011 C 0.26341 0.80063 0.62007 0.0
C1012 C 0.27916 0.79937 0.64372 0.0
C1013 C 0.2945 0.79837 0.61754 0.0
C1014 C 0.29408 0.79856 0.56764 0.0
C1015 C 0.27836 0.79983 0.54381 0.0
H1016 H 0.30668 0.7974 0.63591 0.0
H1017 H 0.15771 0.81418 0.40033 0.0
H1018 H 0.46206 0.24289 0.72438 0.0
H1019 H 0.45748 0.22182 0.65322 0.0
H1020 H 0.41589 0.24054 0.59469 0.0
H1021 H 0.41991 0.26138 0.66746 0.0
H1022 H 0.39891 0.19842 0.58756 0.0
H1023 H 0.46445 0.25813 0.54341 0.0
H1024 H 0.50109 0.28773 0.55242 0.0
H1025 H 0.5192 0.2413 0.5808 0.0
H1026 H 0.48263 0.21141 0.57268 0.0
H1027 H 0.39837 0.13893 0.3778 0.0
H1028 H 0.40433 0.16919 0.42881 0.0
H1029 H 0.43339 0.14993 0.53452 0.0
H1030 H 0.42712 0.11931 0.48416 0.0
H1031 H 0.45636 0.19664 0.50411 0.0
H1032 H 0.3886 0.13794 0.55934 0.0
H1033 H 0.35187 0.10911 0.54677 0.0
H1034 H 0.33838 0.15598 0.4912 0.0
H1035 H 0.37515 0.18505 0.50277 0.0
C1036 C 0.45215 0.24288 0.69623 0.0
C1037 C 0.44122 0.25373 0.70187 0.0
C1038 C 0.44969 0.23091 0.65517 0.0
C1039 C 0.43652 0.22975 0.61824 0.0
C1040 C 0.42619 0.24127 0.62272 0.0
C1041 C 0.42859 0.25326 0.66418 0.0
C1042 C 0.43225 0.21479 0.57759 0.0
C1043 C 0.41149 0.19841 0.56845 0.0
C1044 C 0.44863 0.21459 0.55281 0.0
C1045 C 0.47073 0.2325 0.55762 0.0
C1046 C 0.47621 0.25422 0.55189 0.0
C1047 C 0.49698 0.27106 0.55679 0.0
C1048 C 0.51246 0.2664 0.56722 0.0
C1049 C 0.5072 0.24489 0.57269 0.0
C1050 C 0.48644 0.22798 0.56785 0.0
C1051 C 0.40596 0.14107 0.41198 0.0
C1052 C 0.41228 0.12674 0.42704 0.0
C1053 C 0.40933 0.15834 0.441 0.0
C1054 C 0.41934 0.16174 0.48517 0.0
C1055 C 0.42569 0.14752 0.50036 0.0
C1056 C 0.42198 0.13 0.47175 0.0
C1057 C 0.42324 0.18015 0.51574 0.0
C1058 C 0.44389 0.19707 0.52267 0.0
C1059 C 0.40678 0.18105 0.53786 0.0
C1060 C 0.38467 0.16361 0.53135 0.0
C1061 C 0.37785 0.14206 0.54401 0.0
C1062 C 0.35702 0.12569 0.53716 0.0
C1063 C 0.34282 0.1307 0.51805 0.0
C1064 C 0.34941 0.15211 0.50591 0.0
C1065 C 0.37024 0.16854 0.51262 0.0
H1066 H 0.3267 0.118 0.51277 0.0
H1067 H 0.52853 0.27946 0.57102 0.0
H1068 H 0.09665 0.40263 0.90535 0.0
H1069 H 0.06355 0.38764 0.86349 0.0
H1070 H 0.04603 0.42354 0.95555 0.0
H1071 H 0.07918 0.43837 -0.0014 0.0
H1072 H 0.01493 0.3825 0.94769 0.0
H1073 H 0.0581 0.43794 0.83776 0.0
H1074 H 0.08895 0.46019 0.78715 0.0
H1075 H 0.07464 0.40396 0.70449 0.0
H1076 H 0.04386 0.38129 0.75501 0.0
H1077 H 0.92221 0.33717 0.80213 0.0
H1078 H 0.95448 0.36401 0.84261 0.0
H1079 H 0.98734 0.33673 0.77466 0.0
H1080 H 0.95546 0.31022 0.73389 0.0
H1081 H 0.00958 0.38043 0.77093 0.0
H1082 H 0.97023 0.32473 0.89079 0.0
H1083 H 0.93968 0.30249 0.94233 0.0
H1084 H 0.94706 0.36021 0.00619 0.0
H1085 H 0.97753 0.38279 0.95457 0.0
C1086 C 0.08589 0.40755 0.91651 0.0
C1087 C 0.09055 0.42169 0.95535 0.0
C1088 C 0.06698 0.39905 0.89229 0.0
C1089 C 0.05241 0.4047 0.90592 0.0
C1090 C 0.0571 0.41905 0.94431 0.0
C1091 C 0.07605 0.42753 0.96877 0.0
C1092 C 0.03187 0.39447 0.88157 0.0
C1093 C 0.01371 0.38248 0.90907 0.0
C1094 C 0.03027 0.3943 0.83117 0.0
C1095 C 0.0487 0.40789 0.80037 0.0
C1096 C 0.06159 0.43029 0.80897 0.0
C1097 C 0.07907 0.44298 0.78027 0.0
C1098 C 0.08377 0.43349 0.74267 0.0
C1099 C 0.07097 0.41129 0.73362 0.0
C1100 C 0.05349 0.39852 0.76223 0.0
C1101 C 0.93633 0.33694 0.79582 0.0
C1102 C 0.93626 0.32152 0.76489 0.0
C1103 C 0.95473 0.35225 0.81901 0.0
C1104 C 0.97328 0.35229 0.81178 0.0
C1105 C 0.97323 0.33705 0.7806 0.0
C1106 C 0.95494 0.32182 0.75747 0.0
C1107 C 0.99285 0.36783 0.83698 0.0
C1108 C 0.0108 0.38087 0.80958 0.0
C1109 C 0.99423 0.36902 0.88741 0.0
C1110 C 0.97597 0.35543 0.91844 0.0
C1111 C 0.96523 0.33267 0.91556 0.0
C1112 C 0.94795 0.32001 0.94483 0.0
C1113 C 0.94139 0.32993 0.9774 0.0
C1114 C 0.95213 0.35254 0.98087 0.0
C1115 C 0.9694 0.36528 0.95164 0.0
H1116 H 0.92801 0.32011 3e-05 0.0
H1117 H 0.09731 0.44335 0.7205 0.0
H1118 H 0.60286 0.95902 0.87197 0.0
H1119 H 0.62736 0.98421 0.93148 0.0
H1120 H 0.64474 0.93776 0.96927 0.0
H1121 H 0.62068 0.91269 0.90808 0.0
H1122 H 0.62932 0.95436 0.04681 0.0
H1123 H 0.68161 0.97872 0.92926 0.0
H1124 H 0.69794 0.99044 0.84994 0.0
H1125 H 0.69131 0.04602 0.85621 0.0
H1126 H 0.67455 0.03443 0.93515 0.0
H1127 H 0.6823 0.04244 0.21702 0.0
H1128 H 0.67886 0.01443 0.16085 0.0
H1129 H 0.65819 0.0411 0.05129 0.0
H1130 H 0.66181 0.06883 0.10646 0.0
H1131 H 0.68579 0.03045 0.01674 0.0
H1132 H 0.62364 0.99876 0.11888 0.0
H1133 H 0.60492 0.98629 0.19563 0.0
H1134 H 0.62886 0.94419 0.21584 0.0
H1135 H 0.64807 0.95679 0.13959 0.0
C1136 C 0.61229 0.95442 0.89217 0.0
C1137 C 0.61008 0.93409 0.88539 0.0
C1138 C 0.62628 0.96879 0.92599 0.0
C1139 C 0.63793 0.96286 0.95436 0.0
C1140 C 0.63603 0.94266 0.94723 0.0
C1141 C 0.62239 0.92846 0.91231 0.0
C1142 C 0.65023 0.97715 0.99439 0.0
C1143 C 0.64218 0.97082 0.04067 0.0
C1144 C 0.66683 0.99859 0.98602 0.0
C1145 C 0.6767 0.00561 0.93818 0.0
C1146 C 0.68343 0.99332 0.91356 0.0
C1147 C 0.6928 -3e-05 0.86866 0.0
C1148 C 0.69563 0.01895 0.84802 0.0
C1149 C 0.68909 0.03132 0.87224 0.0
C1150 C 0.67967 0.02472 0.91712 0.0
C1151 C 0.67718 0.0423 0.18077 0.0
C1152 C 0.67175 0.05738 0.16632 0.0
C1153 C 0.67521 0.02635 0.14886 0.0
C1154 C 0.66813 0.02562 0.10204 0.0
C1155 C 0.66363 0.04132 0.08727 0.0
C1156 C 0.66536 0.05698 0.1191 0.0
C1157 C 0.66401 0.008 0.06839 0.0
C1158 C 0.67359 0.01375 0.02333 0.0
C1159 C 0.64866 0.98607 0.07773 0.0
C1160 C 0.63754 0.97896 0.12401 0.0
C1161 C 0.62512 0.98706 0.14002 0.0
C1162 C 0.61439 0.97994 0.18337 0.0
C1163 C 0.61578 0.96454 0.21072 0.0
C1164 C 0.62788 0.9562 0.19474 0.0
C1165 C 0.63871 0.96334 0.15151 0.0
H1166 H 0.60741 0.959 0.2442 0.0
H1167 H 0.70292 0.02408 0.81328 0.0
H1168 H 0.68435 0.61707 0.04096 0.0
H1169 H 0.66871 0.6364 0.07511 0.0
H1170 H 0.6188 0.57665 0.1345 0.0
H1171 H 0.63447 0.55701 0.10058 0.0
H1172 H 0.60677 0.60708 0.09628 0.0
H1173 H 0.65394 0.60362 0.20632 0.0
H1174 H 0.68693 0.60667 0.23082 0.0
H1175 H 0.72056 0.67443 0.19517 0.0
H1176 H 0.68777 0.67169 0.16968 0.0
H1177 H 0.58334 0.66134 0.28183 0.0
H1178 H 0.59 0.63672 0.23552 0.0
H1179 H 0.64624 0.69152 0.17894 0.0
H1180 H 0.63975 0.71617 0.22481 0.0
H1181 H 0.65265 0.66062 0.21853 0.0
H1182 H 0.60512 0.66393 0.10847 0.0
H1183 H 0.57205 0.66062 0.08372 0.0
H1184 H 0.53867 0.59301 0.12066 0.0
H1185 H 0.57154 0.59599 0.1463 0.0
C1186 C 0.66985 0.60789 0.06053 0.0
C1187 C 0.66082 0.58554 0.06866 0.0
C1188 C 0.66093 0.61899 0.07995 0.0
C1189 C 0.64277 0.60796 0.1077 0.0
C1190 C 0.63284 0.5854 0.11315 0.0
C1191 C 0.64186 0.57425 0.09391 0.0
C1192 C 0.6357 0.62053 0.13495 0.0
C1193 C 0.61659 0.61857 0.12355 0.0
C1194 C 0.64869 0.63562 0.17009 0.0
C1195 C 0.66843 0.63739 0.18563 0.0
C1196 C 0.6684 0.61912 0.20329 0.0
C1197 C 0.68705 0.6208 0.21743 0.0
C1198 C 0.70584 0.64072 0.21443 0.0
C1199 C 0.70599 0.65901 0.1974 0.0
C1200 C 0.68738 0.6574 0.18313 0.0
C1201 C 0.597 0.66815 0.25911 0.0
C1202 C 0.6111 0.69071 0.25724 0.0
C1203 C 0.60073 0.65406 0.23255 0.0
C1204 C 0.61861 0.66233 0.20384 0.0
C1205 C 0.63237 0.68484 0.20098 0.0
C1206 C 0.62861 0.6989 0.22719 0.0
C1207 C 0.62387 0.6476 0.17929 0.0
C1208 C 0.6427 0.64909 0.19145 0.0
C1209 C 0.61054 0.63206 0.14515 0.0
C1210 C 0.59076 0.63024 0.12986 0.0
C1211 C 0.59071 0.6484 0.11178 0.0
C1212 C 0.572 0.64658 0.09748 0.0
C1213 C 0.55326 0.62663 0.10076 0.0
C1214 C 0.55319 0.60846 0.11823 0.0
C1215 C 0.57186 0.6102 0.13262 0.0
H1216 H 0.5388 0.62525 0.08965 0.0
H1217 H 0.72027 0.64199 0.22542 0.0
H1218 H 0.08587 0.68207 0.36287 0.0
H1219 H 0.05383 0.65915 0.40774 0.0
H1220 H 0.02932 0.61382 0.29039 0.0
H1221 H 0.06129 0.63679 0.24495 0.0
H1222 H 0.00133 0.62363 0.32221 0.0
H1223 H 0.04488 0.60086 0.39192 0.0
H1224 H 0.07649 0.60544 0.43042 0.0
H1225 H 0.06699 0.63624 0.55074 0.0
H1226 H 0.03548 0.63214 0.51265 0.0
H1227 H 0.91137 0.54905 0.45346 0.0
H1228 H 0.94419 0.56376 0.40955 0.0
H1229 H 0.97551 0.6135 0.51661 0.0
H1230 H 0.94289 0.59877 0.56102 0.0
H1231 H -0.00036 0.59781 0.48739 0.0
H1232 H 0.95866 0.6241 0.41413 0.0
H1233 H 0.92739 0.62038 0.37561 0.0
H1234 H 0.93252 0.5835 0.26182 0.0
H1235 H 0.96369 0.58677 0.30004 0.0
C1236 C 0.07374 0.66716 0.34666 0.0
C1237 C 0.07612 0.66128 0.30027 0.0
C1238 C 0.05547 0.65401 0.37249 0.0
C1239 C 0.03927 0.63467 0.35258 0.0
C1240 C 0.04166 0.62866 0.30644 0.0
C1241 C 0.05995 0.64179 0.28058 0.0
C1242 C 0.01946 0.62136 0.37907 0.0
C1243 C 0.0009 0.61759 0.35795 0.0
C1244 C 0.01899 0.6139 0.42608 0.0
C1245 C 0.0379 0.61634 0.44923 0.0
C1246 C 0.04962 0.60876 0.42643 0.0
C1247 C 0.0675 0.61125 0.44821 0.0
C1248 C 0.07377 0.62117 0.49295 0.0
C1249 C 0.06213 0.62858 0.51606 0.0
C1250 C 0.04424 0.62615 0.49441 0.0
C1251 C 0.92528 0.56298 0.46794 0.0
C1252 C 0.92447 0.57288 0.51051 0.0
C1253 C 0.94401 0.57139 0.44273 0.0
C1254 C 0.96221 0.5899 0.4595 0.0
C1255 C 0.96164 0.59923 0.503 0.0
C1256 C 0.94294 0.59083 0.52823 0.0
C1257 C 0.98161 0.60031 0.43066 0.0
C1258 C 7e-05 0.60359 0.45138 0.0
C1259 C 0.98203 0.60739 0.38329 0.0
C1260 C 0.96334 0.60546 0.36023 0.0
C1261 C 0.95301 0.61505 0.3811 0.0
C1262 C 0.93533 0.61305 0.35929 0.0
C1263 C 0.92793 0.60165 0.31638 0.0
C1264 C 0.93824 0.59228 0.29511 0.0
C1265 C 0.95592 0.59421 0.31682 0.0
H1266 H 0.91424 0.60012 0.29954 0.0
H1267 H 0.08762 0.62307 0.50976 0.0
H1268 H 0.35396 0.01815 0.32279 0.0
H1269 H 0.33373 0.99464 0.3894 0.0
H1270 H 0.3364 0.04932 0.45989 0.0
H1271 H 0.35529 0.07233 0.3915 0.0
H1272 H 0.3491 0.99796 0.46903 0.0
H1273 H 0.30246 0.03459 0.55055 0.0
H1274 H 0.2811 0.04935 0.52278 0.0
H1275 H 0.2673 0.0128 0.39274 0.0
H1276 H 0.28836 0.99761 0.41994 0.0
H1277 H 0.34291 0.97962 0.70906 0.0
H1278 H 0.34623 0.99901 0.63502 0.0
H1279 H 0.28089 0.95491 0.60533 0.0
H1280 H 0.27733 0.9359 0.68081 0.0
H1281 H 0.294 0.99568 0.57137 0.0
H1282 H 0.31529 0.94368 0.55315 0.0
H1283 H 0.33395 0.9249 0.57342 0.0
H1284 H 0.39252 0.98535 0.56703 0.0
H1285 H 0.37423 0.00441 0.5456 0.0
C1286 C 0.34941 0.02481 0.35172 0.0
C1287 C 0.35587 0.04683 0.35221 0.0
C1288 C 0.33799 0.01147 0.38988 0.0
C1289 C 0.33352 0.02014 0.42993 0.0
C1290 C 0.33915 0.04202 0.42915 0.0
C1291 C 0.35002 0.05522 0.39019 0.0
C1292 C 0.32613 0.00733 0.47485 0.0
C1293 C 0.33684 0.99732 0.49084 0.0
C1294 C 0.31004 0.00622 0.5036 0.0
C1295 C 0.29713 0.01508 0.4872 0.0
C1296 C 0.29478 0.02961 0.51615 0.0
C1297 C 0.28275 0.03808 0.50047 0.0
C1298 C 0.27289 0.03206 0.45598 0.0
C1299 C 0.275 0.01751 0.42712 0.0
C1300 C 0.28702 0.009 0.44262 0.0
C1301 C 0.32914 0.97445 0.68738 0.0
C1302 C 0.30992 0.95624 0.70028 0.0
C1303 C 0.33105 0.98544 0.64502 0.0
C1304 C 0.31393 0.97802 0.61413 0.0
C1305 C 0.29431 0.96081 0.6286 0.0
C1306 C 0.29229 0.95001 0.67167 0.0
C1307 C 0.31725 0.98686 0.56503 0.0
C1308 C 0.30595 0.99615 0.54868 0.0
C1309 C 0.33233 0.98678 0.53491 0.0
C1310 C 0.3434 0.97546 0.54814 0.0
C1311 C 0.33214 0.95296 0.55628 0.0
C1312 C 0.34265 0.94227 0.56789 0.0
C1313 C 0.36438 0.95395 0.572 0.0
C1314 C 0.37568 0.97632 0.56396 0.0
C1315 C 0.36527 0.98706 0.55177 0.0
H1316 H 0.37246 0.94564 0.5812 0.0
H1317 H 0.26358 0.03864 0.4439 0.0
H1318 H 0.36691 0.44869 0.58633 0.0
H1319 H 0.38414 0.43059 0.61925 0.0
H1320 H 0.33374 0.39643 0.71981 0.0
H1321 H 0.31654 0.4146 0.68759 0.0
H1322 H 0.3713 0.40968 0.76077 0.0
H1323 H 0.33454 0.37255 0.61643 0.0
H1324 H 0.32606 0.37002 0.53066 0.0
H1325 H 0.38969 0.39194 0.4949 0.0
H1326 H 0.39861 0.39487 0.58054 0.0
H1327 H 0.3714 0.3153 0.81963 0.0
H1328 H 0.36298 0.34146 0.78898 0.0
H1329 H 0.41673 0.36848 0.69637 0.0
H1330 H 0.42521 0.34207 0.7266 0.0
H1331 H 0.38241 0.3628 0.65021 0.0
H1332 H 0.41811 0.39568 0.79544 0.0
H1333 H 0.42607 0.39742 0.88134 0.0
H1334 H 0.36444 0.38322 0.91592 0.0
H1335 H 0.35599 0.38108 0.83019 0.0
C1336 C 0.35963 0.43755 0.61589 0.0
C1337 C 0.34024 0.43292 0.63404 0.0
C1338 C 0.36946 0.42716 0.63452 0.0
C1339 C 0.36005 0.41192 0.67146 0.0
C1340 C 0.34124 0.40809 0.6912 0.0
C1341 C 0.3314 0.41845 0.67262 0.0
C1342 C 0.3691 0.39903 0.688 0.0
C1343 C 0.37364 0.39934 0.73669 0.0
C1344 C 0.37265 0.38599 0.65629 0.0
C1345 C 0.36729 0.38418 0.60484 0.0
C1346 C 0.34676 0.377 0.59026 0.0
C1347 C 0.34187 0.37546 0.54168 0.0
C1348 C 0.35734 0.38089 0.50735 0.0
C1349 C 0.37773 0.38779 0.52153 0.0
C1350 C 0.38271 0.38939 0.57008 0.0
C1351 C 0.38146 0.32677 0.79271 0.0
C1352 C 0.39903 0.32665 0.77566 0.0
C1353 C 0.37668 0.34181 0.77544 0.0
C1354 C 0.38943 0.35715 0.74101 0.0
C1355 C 0.40677 0.35685 0.72317 0.0
C1356 C 0.41159 0.34177 0.74048 0.0
C1357 C 0.38425 0.37313 0.72318 0.0
C1358 C 0.38041 0.37339 0.67424 0.0
C1359 C 0.38132 0.38668 0.75468 0.0
C1360 C 0.38637 0.38807 0.80634 0.0
C1361 C 0.4062 0.39278 0.82135 0.0
C1362 C 0.41081 0.39386 0.87002 0.0
C1363 C 0.39576 0.3904 0.90407 0.0
C1364 C 0.37608 0.38589 0.8895 0.0
C1365 C 0.37138 0.38477 0.84087 0.0
H1366 H 0.39936 0.39124 0.94173 0.0
H1367 H 0.35352 0.37968 0.46975 0.0
loop_
_geom_bond_atom_site_label_1
_geom_bond_atom_site_label_2
_geom_bond_distance
_geom_bond_site_symmetry_2
_ccdc_geom_bond_type
Mg0 O1 2.028 . S
Mg0 O7 1.986 1_554 S
Mg0 O9 2.114 . S
Mg0 O10 2.251 . S
Mg0 O13 2.010 . S
O1 Mg0 2.028 . S
O1 C4 1.250 . S
O2 Mg3 2.028 . S
O2 C4 1.248 . S
Mg3 O2 2.028 . S
Mg3 O8 2.032 1_554 S
Mg3 O10 2.079 . S
C4 O1 1.250 . S
C4 O2 1.248 . S
C5 O6 1.264 . S
C5 O13 1.249 . S
O6 C5 1.264 . S
O7 Mg0 1.986 1_556 S
O7 C11 1.246 . S
O8 Mg3 2.032 1_556 S
O8 C11 1.259 . S
O9 Mg0 2.114 . S
O9 C12 1.252 . S
O10 Mg0 2.251 . S
O10 Mg3 2.079 . S
O10 C12 1.273 . S
C11 O7 1.246 . S
C11 O8 1.259 . S
C12 O9 1.252 . S
C12 O10 1.273 . S
O13 Mg0 2.010 . S
O13 C5 1.249 . S
Mg14 O15 2.028 . S
Mg14 O21 1.986 . S
Mg14 O23 2.114 . S
Mg14 O24 2.251 . S
Mg14 O27 2.010 . S
O15 Mg14 2.028 . S
O15 C18 1.250 . S
O16 Mg17 2.028 . S
O16 C18 1.248 . S
Mg17 O16 2.028 . S
Mg17 O22 2.032 . S
Mg17 O24 2.079 . S
C18 O15 1.250 . S
C18 O16 1.248 . S
C19 O20 1.264 . S
C19 O27 1.249 . S
O20 C19 1.264 . S
O21 Mg14 1.986 . S
O21 C25 1.246 . S
O22 Mg17 2.032 . S
O22 C25 1.259 . S
O23 Mg14 2.114 . S
O23 C26 1.252 . S
O24 Mg14 2.251 . S
O24 Mg17 2.079 . S
O24 C26 1.273 . S
C25 O21 1.246 . S
C25 O22 1.259 . S
C26 O23 1.252 . S
C26 O24 1.273 . S
O27 Mg14 2.010 . S
O27 C19 1.249 . S
Mg28 O29 2.028 . S
Mg28 O35 1.986 . S
Mg28 O37 2.114 . S
Mg28 O38 2.251 . S
Mg28 O41 2.010 . S
O29 Mg28 2.028 . S
O29 C32 1.250 . S
O30 Mg31 2.028 . S
O30 C32 1.248 . S
Mg31 O30 2.028 . S
Mg31 O36 2.032 . S
Mg31 O38 2.079 . S
C32 O29 1.250 . S
C32 O30 1.248 . S
C33 O34 1.264 . S
C33 O41 1.249 . S
O34 C33 1.264 . S
O35 Mg28 1.986 . S
O35 C39 1.246 . S
O36 Mg31 2.032 . S
O36 C39 1.259 . S
O37 Mg28 2.114 . S
O37 C40 1.252 . S
O38 Mg28 2.251 . S
O38 Mg31 2.079 . S
O38 C40 1.273 . S
C39 O35 1.246 . S
C39 O36 1.259 . S
C40 O37 1.252 . S
C40 O38 1.273 . S
O41 Mg28 2.010 . S
O41 C33 1.249 . S
Mg42 O43 2.028 . S
Mg42 O49 1.986 . S
Mg42 O51 2.114 . S
Mg42 O52 2.251 . S
Mg42 O55 2.010 . S
O43 Mg42 2.028 . S
O43 C46 1.250 . S
O44 Mg45 2.028 . S
O44 C46 1.248 . S
Mg45 O44 2.028 . S
Mg45 O50 2.032 . S
Mg45 O52 2.079 . S
C46 O43 1.250 . S
C46 O44 1.248 . S
C47 O48 1.264 . S
C47 O55 1.249 . S
O48 C47 1.264 . S
O49 Mg42 1.986 . S
O49 C53 1.246 . S
O50 Mg45 2.032 . S
O50 C53 1.259 . S
O51 Mg42 2.114 . S
O51 C54 1.252 . S
O52 Mg42 2.251 . S
O52 Mg45 2.079 . S
O52 C54 1.273 . S
C53 O49 1.246 . S
C53 O50 1.259 . S
C54 O51 1.252 . S
C54 O52 1.273 . S
O55 Mg42 2.010 . S
O55 C47 1.249 . S
Mg56 O57 2.028 . S
Mg56 O63 1.986 . S
Mg56 O65 2.114 . S
Mg56 O66 2.251 . S
Mg56 O69 2.010 . S
O57 Mg56 2.028 . S
O57 C60 1.250 . S
O58 Mg59 2.028 . S
O58 C60 1.248 . S
Mg59 O58 2.028 . S
Mg59 O64 2.032 . S
Mg59 O66 2.079 . S
C60 O57 1.250 . S
C60 O58 1.248 . S
C61 O62 1.264 . S
C61 O69 1.249 . S
O62 C61 1.264 . S
O63 Mg56 1.986 . S
O63 C67 1.246 . S
O64 Mg59 2.032 . S
O64 C67 1.259 . S
O65 Mg56 2.114 . S
O65 C68 1.252 . S
O66 Mg56 2.251 . S
O66 Mg59 2.079 . S
O66 C68 1.273 . S
C67 O63 1.246 . S
C67 O64 1.259 . S
C68 O65 1.252 . S
C68 O66 1.273 . S
O69 Mg56 2.010 . S
O69 C61 1.249 . S
Mg70 O71 2.028 . S
Mg70 O77 1.986 . S
Mg70 O79 2.114 . S
Mg70 O80 2.251 . S
Mg70 O83 2.010 . S
O71 Mg70 2.028 . S
O71 C74 1.250 . S
O72 Mg73 2.028 . S
O72 C74 1.248 . S
Mg73 O72 2.028 . S
Mg73 O78 2.032 . S
Mg73 O80 2.079 . S
C74 O71 1.250 . S
C74 O72 1.248 . S
C75 O76 1.264 . S
C75 O83 1.249 . S
O76 C75 1.264 . S
O77 Mg70 1.986 . S
O77 C81 1.246 . S
O78 Mg73 2.032 . S
O78 C81 1.259 . S
O79 Mg70 2.114 . S
O79 C82 1.252 . S
O80 Mg70 2.251 . S
O80 Mg73 2.079 . S
O80 C82 1.273 . S
C81 O77 1.246 . S
C81 O78 1.259 . S
C82 O79 1.252 . S
C82 O80 1.273 . S
O83 Mg70 2.010 . S
O83 C75 1.249 . S
Mg84 O85 2.028 . S
Mg84 O91 1.986 . S
Mg84 O93 2.114 . S
Mg84 O94 2.251 . S
Mg84 O97 2.010 . S
O85 Mg84 2.028 . S
O85 C88 1.250 . S
O86 Mg87 2.028 . S
O86 C88 1.248 . S
Mg87 O86 2.028 . S
Mg87 O92 2.032 . S
Mg87 O94 2.079 . S
C88 O85 1.250 . S
C88 O86 1.248 . S
C89 O90 1.264 . S
C89 O97 1.249 . S
O90 C89 1.264 . S
O91 Mg84 1.986 . S
O91 C95 1.246 . S
O92 Mg87 2.032 . S
O92 C95 1.259 . S
O93 Mg84 2.114 . S
O93 C96 1.252 . S
O94 Mg84 2.251 . S
O94 Mg87 2.079 . S
O94 C96 1.273 . S
C95 O91 1.246 . S
C95 O92 1.259 . S
C96 O93 1.252 . S
C96 O94 1.273 . S
O97 Mg84 2.010 . S
O97 C89 1.249 . S
Mg98 O99 2.028 . S
Mg98 O105 1.986 . S
Mg98 O107 2.114 1_554 S
Mg98 O108 2.251 1_554 S
Mg98 O111 2.010 . S
O99 Mg98 2.028 . S
O99 C102 1.250 . S
O100 Mg101 2.028 . S
O100 C102 1.248 . S
Mg101 O100 2.028 . S
Mg101 O106 2.032 . S
Mg101 O108 2.079 1_554 S
C102 O99 1.250 . S
C102 O100 1.248 . S
C103 O104 1.264 . S
C103 O111 1.249 . S
O104 C103 1.264 . S
O105 Mg98 1.986 . S
O105 C109 1.246 . S
O106 Mg101 2.032 . S
O106 C109 1.259 . S
O107 Mg98 2.114 1_556 S
O107 C110 1.252 . S
O108 Mg98 2.251 1_556 S
O108 Mg101 2.079 1_556 S
O108 C110 1.273 . S
C109 O105 1.246 . S
C109 O106 1.259 . S
C110 O107 1.252 . S
C110 O108 1.273 . S
O111 Mg98 2.010 . S
O111 C103 1.249 . S
Mg112 O113 2.028 . S
Mg112 O119 1.986 . S
Mg112 O121 2.114 . S
Mg112 O122 2.251 . S
Mg112 O125 2.010 . S
O113 Mg112 2.028 . S
O113 C116 1.250 . S
O114 Mg115 2.028 . S
O114 C116 1.248 . S
Mg115 O114 2.028 . S
Mg115 O120 2.032 . S
Mg115 O122 2.079 . S
C116 O113 1.250 . S
C116 O114 1.248 . S
C117 O118 1.264 . S
C117 O125 1.249 . S
O118 C117 1.264 . S
O119 Mg112 1.986 . S
O119 C123 1.246 . S
O120 Mg115 2.032 . S
O120 C123 1.259 . S
O121 Mg112 2.114 . S
O121 C124 1.252 . S
O122 Mg112 2.251 . S
O122 Mg115 2.079 . S
O122 C124 1.273 . S
C123 O119 1.246 . S
C123 O120 1.259 . S
C124 O121 1.252 . S
C124 O122 1.273 . S
O125 Mg112 2.010 . S
O125 C117 1.249 . S
Mg126 O127 2.028 . S
Mg126 O133 1.986 . S
Mg126 O135 2.114 . S
Mg126 O136 2.251 . S
Mg126 O139 2.010 . S
O127 Mg126 2.028 . S
O127 C130 1.250 . S
O128 Mg129 2.028 . S
O128 C130 1.248 . S
Mg129 O128 2.028 . S
Mg129 O134 2.032 . S
Mg129 O136 2.079 . S
C130 O127 1.250 . S
C130 O128 1.248 . S
C131 O132 1.264 . S
C131 O139 1.249 . S
O132 C131 1.264 . S
O133 Mg126 1.986 . S
O133 C137 1.246 . S
O134 Mg129 2.032 . S
O134 C137 1.259 . S
O135 Mg126 2.114 . S
O135 C138 1.252 . S
O136 Mg126 2.251 . S
O136 Mg129 2.079 . S
O136 C138 1.273 . S
C137 O133 1.246 . S
C137 O134 1.259 . S
C138 O135 1.252 . S
C138 O136 1.273 . S
O139 Mg126 2.010 . S
O139 C131 1.249 . S
Mg140 O141 2.028 . S
Mg140 O147 1.986 . S
Mg140 O149 2.114 . S
Mg140 O150 2.251 . S
Mg140 O153 2.010 . S
O141 Mg140 2.028 . S
O141 C144 1.250 . S
O142 Mg143 2.028 . S
O142 C144 1.248 . S
Mg143 O142 2.028 . S
Mg143 O148 2.032 . S
Mg143 O150 2.079 . S
C144 O141 1.250 . S
C144 O142 1.248 . S
C145 O146 1.264 . S
C145 O153 1.249 . S
O146 C145 1.264 . S
O147 Mg140 1.986 . S
O147 C151 1.246 . S
O148 Mg143 2.032 . S
O148 C151 1.259 . S
O149 Mg140 2.114 . S
O149 C152 1.252 . S
O150 Mg140 2.251 . S
O150 Mg143 2.079 . S
O150 C152 1.273 . S
C151 O147 1.246 . S
C151 O148 1.259 . S
C152 O149 1.252 . S
C152 O150 1.273 . S
O153 Mg140 2.010 . S
O153 C145 1.249 . S
Mg154 O155 2.028 . S
Mg154 O161 1.986 . S
Mg154 O163 2.114 . S
Mg154 O164 2.251 . S
Mg154 O167 2.010 . S
O155 Mg154 2.028 . S
O155 C158 1.250 . S
O156 Mg157 2.028 . S
O156 C158 1.248 . S
Mg157 O156 2.028 . S
Mg157 O162 2.032 . S
Mg157 O164 2.079 . S
C158 O155 1.250 . S
C158 O156 1.248 . S
C159 O160 1.264 . S
C159 O167 1.249 . S
O160 C159 1.264 . S
O161 Mg154 1.986 . S
O161 C165 1.246 . S
O162 Mg157 2.032 . S
O162 C165 1.259 . S
O163 Mg154 2.114 . S
O163 C166 1.252 . S
O164 Mg154 2.251 . S
O164 Mg157 2.079 . S
O164 C166 1.273 . S
C165 O161 1.246 . S
C165 O162 1.259 . S
C166 O163 1.252 . S
C166 O164 1.273 . S
O167 Mg154 2.010 . S
O167 C159 1.249 . S
H168 C186 0.951 . S
H169 C188 0.951 . S
H170 C190 0.950 . S
H171 C191 0.950 . S
H172 C193 0.950 . S
H173 C196 0.950 . S
H174 C197 0.950 . S
H175 C199 0.950 . S
H176 C200 0.950 . S
H177 C201 0.951 . S
H178 C203 0.951 . S
H179 C205 0.950 . S
H180 C206 0.950 . S
H181 C208 0.950 . S
H182 C211 0.950 . S
H183 C212 0.950 . S
H184 C214 0.950 . S
H185 C215 0.950 . S
C186 H168 0.951 . S
C186 C187 1.366 . S
C186 C188 1.388 . S
C187 C186 1.366 . S
C187 C191 1.385 . S
C188 H169 0.951 . S
C188 C186 1.388 . S
C188 C189 1.366 . S
C189 C188 1.366 . S
C189 C190 1.414 . S
C189 C192 1.499 . S
C190 H170 0.950 . S
C190 C189 1.414 . S
C190 C191 1.374 . S
C191 H171 0.950 . S
C191 C187 1.385 . S
C191 C190 1.374 . S
C192 C189 1.499 . S
C192 C193 1.373 . S
C192 C194 1.389 . S
C193 H172 0.950 . S
C193 C192 1.373 . S
C193 C209 1.377 . S
C194 C192 1.389 . S
C194 C195 1.524 . S
C194 C208 1.377 . S
C195 C194 1.524 . S
C195 C196 1.397 . S
C195 C200 1.363 . S
C196 H173 0.950 . S
C196 C195 1.397 . S
C196 C197 1.334 . S
C197 H174 0.950 . S
C197 C196 1.334 . S
C197 C198 1.287 . S
C198 C197 1.287 . S
C198 C199 1.524 . S
C198 H217 0.913 . S
C199 H175 0.950 . S
C199 C198 1.524 . S
C199 C200 1.415 . S
C200 H176 0.950 . S
C200 C195 1.363 . S
C200 C199 1.415 . S
C201 H177 0.951 . S
C201 C202 1.366 . S
C201 C203 1.388 . S
C202 C201 1.366 . S
C202 C206 1.385 . S
C203 H178 0.951 . S
C203 C201 1.388 . S
C203 C204 1.366 . S
C204 C203 1.366 . S
C204 C205 1.414 . S
C204 C207 1.499 . S
C205 H179 0.950 . S
C205 C204 1.414 . S
C205 C206 1.374 . S
C206 H180 0.950 . S
C206 C202 1.385 . S
C206 C205 1.374 . S
C207 C204 1.499 . S
C207 C208 1.373 . S
C207 C209 1.389 . S
C208 H181 0.950 . S
C208 C194 1.377 . S
C208 C207 1.373 . S
C209 C193 1.377 . S
C209 C207 1.389 . S
C209 C210 1.524 . S
C210 C209 1.524 . S
C210 C211 1.397 . S
C210 C215 1.363 . S
C211 H182 0.950 . S
C211 C210 1.397 . S
C211 C212 1.334 . S
C212 H183 0.950 . S
C212 C211 1.334 . S
C212 C213 1.287 . S
C213 C212 1.287 . S
C213 C214 1.524 . S
C213 H216 0.999 . S
C214 H184 0.950 . S
C214 C213 1.524 . S
C214 C215 1.415 . S
C215 H185 0.950 . S
C215 C210 1.363 . S
C215 C214 1.415 . S
H216 C213 0.999 . S
H217 C198 0.913 . S
H218 C236 0.951 . S
H219 C238 0.951 . S
H220 C240 0.950 . S
H221 C241 0.950 . S
H222 C243 0.950 . S
H223 C246 0.950 . S
H224 C247 0.950 . S
H225 C249 0.950 . S
H226 C250 0.950 . S
H227 C251 0.951 . S
H228 C253 0.951 . S
H229 C255 0.950 . S
H230 C256 0.950 . S
H231 C258 0.950 . S
H232 C261 0.950 . S
H233 C262 0.950 . S
H234 C264 0.950 . S
H235 C265 0.950 . S
C236 H218 0.951 . S
C236 C237 1.366 . S
C236 C238 1.388 . S
C237 C236 1.366 . S
C237 C241 1.385 . S
C238 H219 0.951 . S
C238 C236 1.388 . S
C238 C239 1.366 . S
C239 C238 1.366 . S
C239 C240 1.414 . S
C239 C242 1.499 . S
C240 H220 0.950 . S
C240 C239 1.414 . S
C240 C241 1.374 . S
C241 H221 0.950 . S
C241 C237 1.385 . S
C241 C240 1.374 . S
C242 C239 1.499 . S
C242 C243 1.373 . S
C242 C244 1.389 . S
C243 H222 0.950 . S
C243 C242 1.373 . S
C243 C259 1.377 . S
C244 C242 1.389 . S
C244 C245 1.524 . S
C244 C258 1.377 . S
C245 C244 1.524 . S
C245 C246 1.397 . S
C245 C250 1.363 . S
C246 H223 0.950 . S
C246 C245 1.397 . S
C246 C247 1.334 . S
C247 H224 0.950 . S
C247 C246 1.334 . S
C247 C248 1.287 . S
C248 C247 1.287 . S
C248 C249 1.524 . S
C248 H267 0.913 . S
C249 H225 0.950 . S
C249 C248 1.524 . S
C249 C250 1.415 . S
C250 H226 0.950 . S
C250 C245 1.363 . S
C250 C249 1.415 . S
C251 H227 0.951 . S
C251 C252 1.366 . S
C251 C253 1.388 . S
C252 C251 1.366 . S
C252 C256 1.385 . S
C253 H228 0.951 . S
C253 C251 1.388 . S
C253 C254 1.366 . S
C254 C253 1.366 . S
C254 C255 1.414 . S
C254 C257 1.499 . S
C255 H229 0.950 . S
C255 C254 1.414 . S
C255 C256 1.374 . S
C256 H230 0.950 . S
C256 C252 1.385 . S
C256 C255 1.374 . S
C257 C254 1.499 . S
C257 C258 1.373 . S
C257 C259 1.389 . S
C258 H231 0.950 . S
C258 C244 1.377 . S
C258 C257 1.373 . S
C259 C243 1.377 . S
C259 C257 1.389 . S
C259 C260 1.524 . S
C260 C259 1.524 . S
C260 C261 1.397 . S
C260 C265 1.363 . S
C261 H232 0.950 . S
C261 C260 1.397 . S
C261 C262 1.334 . S
C262 H233 0.950 . S
C262 C261 1.334 . S
C262 C263 1.287 . S
C263 C262 1.287 . S
C263 C264 1.524 . S
C263 H266 0.999 . S
C264 H234 0.950 . S
C264 C263 1.524 . S
C264 C265 1.415 . S
C265 H235 0.950 . S
C265 C260 1.363 . S
C265 C264 1.415 . S
H266 C263 0.999 . S
H267 C248 0.913 . S
H268 C286 0.951 . S
H269 C288 0.951 . S
H270 C290 0.950 . S
H271 C291 0.950 . S
H272 C293 0.950 . S
H273 C296 0.950 . S
H274 C297 0.950 . S
H275 C299 0.950 . S
H276 C300 0.950 . S
H277 C301 0.951 . S
H278 C303 0.951 . S
H279 C305 0.950 . S
H280 C306 0.950 . S
H281 C308 0.950 . S
H282 C311 0.950 . S
H283 C312 0.950 . S
H284 C314 0.950 . S
H285 C315 0.950 . S
C286 H268 0.951 . S
C286 C287 1.366 . S
C286 C288 1.388 . S
C287 C286 1.366 . S
C287 C291 1.385 . S
C288 H269 0.951 . S
C288 C286 1.388 . S
C288 C289 1.366 . S
C289 C288 1.366 . S
C289 C290 1.414 . S
C289 C292 1.499 . S
C290 H270 0.950 . S
C290 C289 1.414 . S
C290 C291 1.374 . S
C291 H271 0.950 . S
C291 C287 1.385 . S
C291 C290 1.374 . S
C292 C289 1.499 . S
C292 C293 1.373 . S
C292 C294 1.389 . S
C293 H272 0.950 . S
C293 C292 1.373 . S
C293 C309 1.377 . S
C294 C292 1.389 . S
C294 C295 1.524 . S
C294 C308 1.377 . S
C295 C294 1.524 . S
C295 C296 1.397 . S
C295 C300 1.363 . S
C296 H273 0.950 . S
C296 C295 1.397 . S
C296 C297 1.334 . S
C297 H274 0.950 . S
C297 C296 1.334 . S
C297 C298 1.287 . S
C298 C297 1.287 . S
C298 C299 1.524 . S
C298 H317 0.913 . S
C299 H275 0.950 . S
C299 C298 1.524 . S
C299 C300 1.415 . S
C300 H276 0.950 . S
C300 C295 1.363 . S
C300 C299 1.415 . S
C301 H277 0.951 . S
C301 C302 1.366 . S
C301 C303 1.388 . S
C302 C301 1.366 . S
C302 C306 1.385 . S
C303 H278 0.951 . S
C303 C301 1.388 . S
C303 C304 1.366 . S
C304 C303 1.366 . S
C304 C305 1.414 . S
C304 C307 1.499 . S
C305 H279 0.950 . S
C305 C304 1.414 . S
C305 C306 1.374 . S
C306 H280 0.950 . S
C306 C302 1.385 . S
C306 C305 1.374 . S
C307 C304 1.499 . S
C307 C308 1.373 . S
C307 C309 1.389 . S
C308 H281 0.950 . S
C308 C294 1.377 . S
C308 C307 1.373 . S
C309 C293 1.377 . S
C309 C307 1.389 . S
C309 C310 1.524 . S
C310 C309 1.524 . S
C310 C311 1.397 . S
C310 C315 1.363 . S
C311 H282 0.950 . S
C311 C310 1.397 . S
C311 C312 1.334 . S
C312 H283 0.950 . S
C312 C311 1.334 . S
C312 C313 1.287 . S
C313 C312 1.287 . S
C313 C314 1.524 . S
C313 H316 0.999 . S
C314 H284 0.950 . S
C314 C313 1.524 . S
C314 C315 1.415 . S
C315 H285 0.950 . S
C315 C310 1.363 . S
C315 C314 1.415 . S
H316 C313 0.999 . S
H317 C298 0.913 . S
H318 C336 0.951 . S
H319 C338 0.951 . S
H320 C340 0.950 . S
H321 C341 0.950 . S
H322 C343 0.950 . S
H323 C346 0.950 . S
H324 C347 0.950 . S
H325 C349 0.950 . S
H326 C350 0.950 . S
H327 C351 0.951 . S
H328 C353 0.951 . S
H329 C355 0.950 . S
H330 C356 0.950 . S
H331 C358 0.950 . S
H332 C361 0.950 . S
H333 C362 0.950 . S
H334 C364 0.950 . S
H335 C365 0.950 . S
C336 H318 0.951 . S
C336 C337 1.366 . S
C336 C338 1.388 . S
C337 C336 1.366 . S
C337 C341 1.385 . S
C338 H319 0.951 . S
C338 C336 1.388 . S
C338 C339 1.366 . S
C339 C338 1.366 . S
C339 C340 1.414 . S
C339 C342 1.499 . S
C340 H320 0.950 . S
C340 C339 1.414 . S
C340 C341 1.374 . S
C341 H321 0.950 . S
C341 C337 1.385 . S
C341 C340 1.374 . S
C342 C339 1.499 . S
C342 C343 1.373 . S
C342 C344 1.389 . S
C343 H322 0.950 . S
C343 C342 1.373 . S
C343 C359 1.377 . S
C344 C342 1.389 . S
C344 C345 1.524 . S
C344 C358 1.377 . S
C345 C344 1.524 . S
C345 C346 1.397 . S
C345 C350 1.363 . S
C346 H323 0.950 . S
C346 C345 1.397 . S
C346 C347 1.334 . S
C347 H324 0.950 . S
C347 C346 1.334 . S
C347 C348 1.287 . S
C348 C347 1.287 . S
C348 C349 1.524 . S
C348 H367 0.913 . S
C349 H325 0.950 . S
C349 C348 1.524 . S
C349 C350 1.415 . S
C350 H326 0.950 . S
C350 C345 1.363 . S
C350 C349 1.415 . S
C351 H327 0.951 . S
C351 C352 1.366 . S
C351 C353 1.388 . S
C352 C351 1.366 . S
C352 C356 1.385 . S
C353 H328 0.951 . S
C353 C351 1.388 . S
C353 C354 1.366 . S
C354 C353 1.366 . S
C354 C355 1.414 . S
C354 C357 1.499 . S
C355 H329 0.950 . S
C355 C354 1.414 . S
C355 C356 1.374 . S
C356 H330 0.950 . S
C356 C352 1.385 . S
C356 C355 1.374 . S
C357 C354 1.499 . S
C357 C358 1.373 . S
C357 C359 1.389 . S
C358 H331 0.950 . S
C358 C344 1.377 . S
C358 C357 1.373 . S
C359 C343 1.377 . S
C359 C357 1.389 . S
C359 C360 1.524 . S
C360 C359 1.524 . S
C360 C361 1.397 . S
C360 C365 1.363 . S
C361 H332 0.950 . S
C361 C360 1.397 . S
C361 C362 1.334 . S
C362 H333 0.950 . S
C362 C361 1.334 . S
C362 C363 1.287 . S
C363 C362 1.287 . S
C363 C364 1.524 . S
C363 H366 0.999 . S
C364 H334 0.950 . S
C364 C363 1.524 . S
C364 C365 1.415 . S
C365 H335 0.950 . S
C365 C360 1.363 . S
C365 C364 1.415 . S
H366 C363 0.999 . S
H367 C348 0.913 . S
H368 C386 0.951 . S
H369 C388 0.951 . S
H370 C390 0.950 . S
H371 C391 0.950 . S
H372 C393 0.950 . S
H373 C396 0.950 . S
H374 C397 0.950 . S
H375 C399 0.950 . S
H376 C400 0.950 1_554 S
H377 C401 0.951 . S
H378 C403 0.951 . S
H379 C405 0.950 . S
H380 C406 0.950 . S
H381 C408 0.950 . S
H382 C411 0.950 . S
H383 C412 0.950 . S
H384 C414 0.950 1_556 S
H385 C415 0.950 . S
C386 H368 0.951 . S
C386 C387 1.366 . S
C386 C388 1.388 . S
C387 C386 1.366 . S
C387 C391 1.385 . S
C388 H369 0.951 . S
C388 C386 1.388 . S
C388 C389 1.366 . S
C389 C388 1.366 . S
C389 C390 1.414 . S
C389 C392 1.499 . S
C390 H370 0.950 . S
C390 C389 1.414 . S
C390 C391 1.374 . S
C391 H371 0.950 . S
C391 C387 1.385 . S
C391 C390 1.374 . S
C392 C389 1.499 . S
C392 C393 1.373 . S
C392 C394 1.389 . S
C393 H372 0.950 . S
C393 C392 1.373 . S
C393 C409 1.377 1_556 S
C394 C392 1.389 . S
C394 C395 1.524 . S
C394 C408 1.377 1_556 S
C395 C394 1.524 . S
C395 C396 1.397 . S
C395 C400 1.363 . S
C396 H373 0.950 . S
C396 C395 1.397 . S
C396 C397 1.334 . S
C397 H374 0.950 . S
C397 C396 1.334 . S
C397 C398 1.287 . S
C398 C397 1.287 . S
C398 C399 1.524 . S
C398 H417 0.913 . S
C399 H375 0.950 . S
C399 C398 1.524 . S
C399 C400 1.415 . S
C400 H376 0.950 1_556 S
C400 C395 1.363 . S
C400 C399 1.415 . S
C401 H377 0.951 . S
C401 C402 1.366 . S
C401 C403 1.388 . S
C402 C401 1.366 . S
C402 C406 1.385 . S
C403 H378 0.951 . S
C403 C401 1.388 . S
C403 C404 1.366 . S
C404 C403 1.366 . S
C404 C405 1.414 . S
C404 C407 1.499 . S
C405 H379 0.950 . S
C405 C404 1.414 . S
C405 C406 1.374 . S
C406 H380 0.950 . S
C406 C402 1.385 . S
C406 C405 1.374 . S
C407 C404 1.499 . S
C407 C408 1.373 . S
C407 C409 1.389 . S
C408 H381 0.950 . S
C408 C394 1.377 1_554 S
C408 C407 1.373 . S
C409 C393 1.377 1_554 S
C409 C407 1.389 . S
C409 C410 1.524 . S
C410 C409 1.524 . S
C410 C411 1.397 . S
C410 C415 1.363 1_554 S
C411 H382 0.950 . S
C411 C410 1.397 . S
C411 C412 1.334 . S
C412 H383 0.950 . S
C412 C411 1.334 . S
C412 C413 1.287 . S
C413 C412 1.287 . S
C413 C414 1.524 . S
C413 H416 0.999 . S
C414 H384 0.950 1_554 S
C414 C413 1.524 . S
C414 C415 1.415 1_554 S
C415 H385 0.950 . S
C415 C410 1.363 1_556 S
C415 C414 1.415 1_556 S
H416 C413 0.999 . S
H417 C398 0.913 . S
H418 C436 0.951 . S
H419 C438 0.951 . S
H420 C440 0.950 . S
H421 C441 0.950 . S
H422 C443 0.950 . S
H423 C446 0.950 . S
H424 C447 0.950 . S
H425 C449 0.950 . S
H426 C450 0.950 . S
H427 C451 0.951 . S
H428 C453 0.951 . S
H429 C455 0.950 . S
H430 C456 0.950 . S
H431 C458 0.950 . S
H432 C461 0.950 . S
H433 C462 0.950 . S
H434 C464 0.950 . S
H435 C465 0.950 . S
C436 H418 0.951 . S
C436 C437 1.366 . S
C436 C438 1.388 . S
C437 C436 1.366 . S
C437 C441 1.385 . S
C438 H419 0.951 . S
C438 C436 1.388 . S
C438 C439 1.366 . S
C439 C438 1.366 . S
C439 C440 1.414 . S
C439 C442 1.499 . S
C440 H420 0.950 . S
C440 C439 1.414 . S
C440 C441 1.374 . S
C441 H421 0.950 . S
C441 C437 1.385 . S
C441 C440 1.374 . S
C442 C439 1.499 . S
C442 C443 1.373 . S
C442 C444 1.389 . S
C443 H422 0.950 . S
C443 C442 1.373 . S
C443 C459 1.377 . S
C444 C442 1.389 . S
C444 C445 1.524 . S
C444 C458 1.377 . S
C445 C444 1.524 . S
C445 C446 1.397 . S
C445 C450 1.363 . S
C446 H423 0.950 . S
C446 C445 1.397 . S
C446 C447 1.334 . S
C447 H424 0.950 . S
C447 C446 1.334 . S
C447 C448 1.287 . S
C448 C447 1.287 . S
C448 C449 1.524 . S
C448 H467 0.913 . S
C449 H425 0.950 . S
C449 C448 1.524 . S
C449 C450 1.415 . S
C450 H426 0.950 . S
C450 C445 1.363 . S
C450 C449 1.415 . S
C451 H427 0.951 . S
C451 C452 1.366 . S
C451 C453 1.388 . S
C452 C451 1.366 . S
C452 C456 1.385 . S
C453 H428 0.951 . S
C453 C451 1.388 . S
C453 C454 1.366 1_556 S
C454 C453 1.366 1_554 S
C454 C455 1.414 . S
C454 C457 1.499 . S
C455 H429 0.950 . S
C455 C454 1.414 . S
C455 C456 1.374 1_554 S
C456 H430 0.950 . S
C456 C452 1.385 . S
C456 C455 1.374 1_556 S
C457 C454 1.499 . S
C457 C458 1.373 . S
C457 C459 1.389 . S
C458 H431 0.950 . S
C458 C444 1.377 . S
C458 C457 1.373 . S
C459 C443 1.377 . S
C459 C457 1.389 . S
C459 C460 1.524 . S
C460 C459 1.524 . S
C460 C461 1.397 . S
C460 C465 1.363 . S
C461 H432 0.950 . S
C461 C460 1.397 . S
C461 C462 1.334 . S
C462 H433 0.950 . S
C462 C461 1.334 . S
C462 C463 1.287 . S
C463 C462 1.287 . S
C463 C464 1.524 . S
C463 H466 0.999 . S
C464 H434 0.950 . S
C464 C463 1.524 . S
C464 C465 1.415 . S
C465 H435 0.950 . S
C465 C460 1.363 . S
C465 C464 1.415 . S
H466 C463 0.999 . S
H467 C448 0.913 . S
H468 C486 0.951 . S
H469 C488 0.951 . S
H470 C490 0.950 . S
H471 C491 0.950 . S
H472 C493 0.950 . S
H473 C496 0.950 . S
H474 C497 0.950 . S
H475 C499 0.950 . S
H476 C500 0.950 . S
H477 C501 0.951 . S
H478 C503 0.951 . S
H479 C505 0.950 . S
H480 C506 0.950 . S
H481 C508 0.950 . S
H482 C511 0.950 . S
H483 C512 0.950 . S
H484 C514 0.950 . S
H485 C515 0.950 . S
C486 H468 0.951 . S
C486 C487 1.366 . S
C486 C488 1.388 . S
C487 C486 1.366 . S
C487 C491 1.385 . S
C488 H469 0.951 . S
C488 C486 1.388 . S
C488 C489 1.366 . S
C489 C488 1.366 . S
C489 C490 1.414 . S
C489 C492 1.499 . S
C490 H470 0.950 . S
C490 C489 1.414 . S
C490 C491 1.374 . S
C491 H471 0.950 . S
C491 C487 1.385 . S
C491 C490 1.374 . S
C492 C489 1.499 . S
C492 C493 1.373 . S
C492 C494 1.389 . S
C493 H472 0.950 . S
C493 C492 1.373 . S
C493 C509 1.377 . S
C494 C492 1.389 . S
C494 C495 1.524 . S
C494 C508 1.377 . S
C495 C494 1.524 . S
C495 C496 1.397 . S
C495 C500 1.363 . S
C496 H473 0.950 . S
C496 C495 1.397 . S
C496 C497 1.334 . S
C497 H474 0.950 . S
C497 C496 1.334 . S
C497 C498 1.287 . S
C498 C497 1.287 . S
C498 C499 1.524 . S
C498 H517 0.913 . S
C499 H475 0.950 . S
C499 C498 1.524 . S
C499 C500 1.415 . S
C500 H476 0.950 . S
C500 C495 1.363 . S
C500 C499 1.415 . S
C501 H477 0.951 . S
C501 C502 1.366 . S
C501 C503 1.388 . S
C502 C501 1.366 . S
C502 C506 1.385 . S
C503 H478 0.951 . S
C503 C501 1.388 . S
C503 C504 1.366 . S
C504 C503 1.366 . S
C504 C505 1.414 . S
C504 C507 1.499 . S
C505 H479 0.950 . S
C505 C504 1.414 . S
C505 C506 1.374 . S
C506 H480 0.950 . S
C506 C502 1.385 . S
C506 C505 1.374 . S
C507 C504 1.499 . S
C507 C508 1.373 . S
C507 C509 1.389 . S
C508 H481 0.950 . S
C508 C494 1.377 . S
C508 C507 1.373 . S
C509 C493 1.377 . S
C509 C507 1.389 . S
C509 C510 1.524 . S
C510 C509 1.524 . S
C510 C511 1.397 . S
C510 C515 1.363 . S
C511 H482 0.950 . S
C511 C510 1.397 . S
C511 C512 1.334 . S
C512 H483 0.950 . S
C512 C511 1.334 . S
C512 C513 1.287 . S
C513 C512 1.287 . S
C513 C514 1.524 . S
C513 H516 0.999 . S
C514 H484 0.950 . S
C514 C513 1.524 . S
C514 C515 1.415 . S
C515 H485 0.950 . S
C515 C510 1.363 . S
C515 C514 1.415 . S
H516 C513 0.999 . S
H517 C498 0.913 . S
H518 C536 0.951 . S
H519 C538 0.951 . S
H520 C540 0.950 . S
H521 C541 0.950 . S
H522 C543 0.950 . S
H523 C546 0.950 . S
H524 C547 0.950 . S
H525 C549 0.950 . S
H526 C550 0.950 . S
H527 C551 0.951 . S
H528 C553 0.951 . S
H529 C555 0.950 . S
H530 C556 0.950 . S
H531 C558 0.950 . S
H532 C561 0.950 . S
H533 C562 0.950 . S
H534 C564 0.950 . S
H535 C565 0.950 . S
C536 H518 0.951 . S
C536 C537 1.366 . S
C536 C538 1.388 . S
C537 C536 1.366 . S
C537 C541 1.385 . S
C538 H519 0.951 . S
C538 C536 1.388 . S
C538 C539 1.366 . S
C539 C538 1.366 . S
C539 C540 1.414 . S
C539 C542 1.499 . S
C540 H520 0.950 . S
C540 C539 1.414 . S
C540 C541 1.374 . S
C541 H521 0.950 . S
C541 C537 1.385 . S
C541 C540 1.374 . S
C542 C539 1.499 . S
C542 C543 1.373 . S
C542 C544 1.389 . S
C543 H522 0.950 . S
C543 C542 1.373 . S
C543 C559 1.377 . S
C544 C542 1.389 . S
C544 C545 1.524 . S
C544 C558 1.377 . S
C545 C544 1.524 . S
C545 C546 1.397 . S
C545 C550 1.363 . S
C546 H523 0.950 . S
C546 C545 1.397 . S
C546 C547 1.334 . S
C547 H524 0.950 . S
C547 C546 1.334 . S
C547 C548 1.287 . S
C548 C547 1.287 . S
C548 C549 1.524 . S
C548 H567 0.913 . S
C549 H525 0.950 . S
C549 C548 1.524 . S
C549 C550 1.415 . S
C550 H526 0.950 . S
C550 C545 1.363 . S
C550 C549 1.415 . S
C551 H527 0.951 . S
C551 C552 1.366 . S
C551 C553 1.388 . S
C552 C551 1.366 . S
C552 C556 1.385 . S
C553 H528 0.951 . S
C553 C551 1.388 . S
C553 C554 1.366 . S
C554 C553 1.366 . S
C554 C555 1.414 . S
C554 C557 1.499 . S
C555 H529 0.950 . S
C555 C554 1.414 . S
C555 C556 1.374 . S
C556 H530 0.950 . S
C556 C552 1.385 . S
C556 C555 1.374 . S
C557 C554 1.499 . S
C557 C558 1.373 . S
C557 C559 1.389 . S
C558 H531 0.950 . S
C558 C544 1.377 . S
C558 C557 1.373 . S
C559 C543 1.377 . S
C559 C557 1.389 . S
C559 C560 1.524 . S
C560 C559 1.524 . S
C560 C561 1.397 . S
C560 C565 1.363 . S
C561 H532 0.950 . S
C561 C560 1.397 . S
C561 C562 1.334 . S
C562 H533 0.950 . S
C562 C561 1.334 . S
C562 C563 1.287 . S
C563 C562 1.287 . S
C563 C564 1.524 . S
C563 H566 0.999 . S
C564 H534 0.950 . S
C564 C563 1.524 . S
C564 C565 1.415 . S
C565 H535 0.950 . S
C565 C560 1.363 . S
C565 C564 1.415 . S
H566 C563 0.999 . S
H567 C548 0.913 . S
H568 C586 0.951 . S
H569 C588 0.951 . S
H570 C590 0.950 . S
H571 C591 0.950 . S
H572 C593 0.950 . S
H573 C596 0.950 . S
H574 C597 0.950 . S
H575 C599 0.950 . S
H576 C600 0.950 . S
H577 C601 0.951 . S
H578 C603 0.951 . S
H579 C605 0.950 . S
H580 C606 0.950 . S
H581 C608 0.950 . S
H582 C611 0.950 . S
H583 C612 0.950 . S
H584 C614 0.950 . S
H585 C615 0.950 . S
C586 H568 0.951 . S
C586 C587 1.366 . S
C586 C588 1.388 . S
C587 C586 1.366 . S
C587 C591 1.385 . S
C588 H569 0.951 . S
C588 C586 1.388 . S
C588 C589 1.366 . S
C589 C588 1.366 . S
C589 C590 1.414 . S
C589 C592 1.499 . S
C590 H570 0.950 . S
C590 C589 1.414 . S
C590 C591 1.374 . S
C591 H571 0.950 . S
C591 C587 1.385 . S
C591 C590 1.374 . S
C592 C589 1.499 . S
C592 C593 1.373 . S
C592 C594 1.389 . S
C593 H572 0.950 . S
C593 C592 1.373 . S
C593 C609 1.377 . S
C594 C592 1.389 . S
C594 C595 1.524 . S
C594 C608 1.377 . S
C595 C594 1.524 . S
C595 C596 1.397 . S
C595 C600 1.363 . S
C596 H573 0.950 . S
C596 C595 1.397 . S
C596 C597 1.334 . S
C597 H574 0.950 . S
C597 C596 1.334 . S
C597 C598 1.287 . S
C598 C597 1.287 . S
C598 C599 1.524 . S
C598 H617 0.913 . S
C599 H575 0.950 . S
C599 C598 1.524 . S
C599 C600 1.415 . S
C600 H576 0.950 . S
C600 C595 1.363 . S
C600 C599 1.415 . S
C601 H577 0.951 . S
C601 C602 1.366 . S
C601 C603 1.388 . S
C602 C601 1.366 . S
C602 C606 1.385 . S
C603 H578 0.951 . S
C603 C601 1.388 . S
C603 C604 1.366 . S
C604 C603 1.366 . S
C604 C605 1.414 . S
C604 C607 1.499 . S
C605 H579 0.950 . S
C605 C604 1.414 . S
C605 C606 1.374 . S
C606 H580 0.950 . S
C606 C602 1.385 . S
C606 C605 1.374 . S
C607 C604 1.499 . S
C607 C608 1.373 . S
C607 C609 1.389 . S
C608 H581 0.950 . S
C608 C594 1.377 . S
C608 C607 1.373 . S
C609 C593 1.377 . S
C609 C607 1.389 . S
C609 C610 1.524 . S
C610 C609 1.524 . S
C610 C611 1.397 . S
C610 C615 1.363 . S
C611 H582 0.950 . S
C611 C610 1.397 . S
C611 C612 1.334 . S
C612 H583 0.950 . S
C612 C611 1.334 . S
C612 C613 1.287 . S
C613 C612 1.287 . S
C613 C614 1.524 . S
C613 H616 0.999 . S
C614 H584 0.950 . S
C614 C613 1.524 . S
C614 C615 1.415 . S
C615 H585 0.950 . S
C615 C610 1.363 . S
C615 C614 1.415 . S
H616 C613 0.999 . S
H617 C598 0.913 . S
H618 C636 0.951 . S
H619 C638 0.951 . S
H620 C640 0.950 . S
H621 C641 0.950 . S
H622 C643 0.950 . S
H623 C646 0.950 . S
H624 C647 0.950 . S
H625 C649 0.950 . S
H626 C650 0.950 . S
H627 C651 0.951 . S
H628 C653 0.951 . S
H629 C655 0.950 . S
H630 C656 0.950 . S
H631 C658 0.950 . S
H632 C661 0.950 . S
H633 C662 0.950 . S
H634 C664 0.950 . S
H635 C665 0.950 . S
C636 H618 0.951 . S
C636 C637 1.366 . S
C636 C638 1.388 . S
C637 C636 1.366 . S
C637 C641 1.385 . S
C638 H619 0.951 . S
C638 C636 1.388 . S
C638 C639 1.366 . S
C639 C638 1.366 . S
C639 C640 1.414 . S
C639 C642 1.499 . S
C640 H620 0.950 . S
C640 C639 1.414 . S
C640 C641 1.374 . S
C641 H621 0.950 . S
C641 C637 1.385 . S
C641 C640 1.374 . S
C642 C639 1.499 . S
C642 C643 1.373 . S
C642 C644 1.389 . S
C643 H622 0.950 . S
C643 C642 1.373 . S
C643 C659 1.377 . S
C644 C642 1.389 . S
C644 C645 1.524 . S
C644 C658 1.377 . S
C645 C644 1.524 . S
C645 C646 1.397 . S
C645 C650 1.363 . S
C646 H623 0.950 . S
C646 C645 1.397 . S
C646 C647 1.334 . S
C647 H624 0.950 . S
C647 C646 1.334 . S
C647 C648 1.287 . S
C648 C647 1.287 . S
C648 C649 1.524 . S
C648 H667 0.913 . S
C649 H625 0.950 . S
C649 C648 1.524 . S
C649 C650 1.415 . S
C650 H626 0.950 . S
C650 C645 1.363 . S
C650 C649 1.415 . S
C651 H627 0.951 . S
C651 C652 1.366 . S
C651 C653 1.388 . S
C652 C651 1.366 . S
C652 C656 1.385 . S
C653 H628 0.951 . S
C653 C651 1.388 . S
C653 C654 1.366 . S
C654 C653 1.366 . S
C654 C655 1.414 . S
C654 C657 1.499 . S
C655 H629 0.950 . S
C655 C654 1.414 . S
C655 C656 1.374 . S
C656 H630 0.950 . S
C656 C652 1.385 . S
C656 C655 1.374 . S
C657 C654 1.499 . S
C657 C658 1.373 . S
C657 C659 1.389 . S
C658 H631 0.950 . S
C658 C644 1.377 . S
C658 C657 1.373 . S
C659 C643 1.377 . S
C659 C657 1.389 . S
C659 C660 1.524 . S
C660 C659 1.524 . S
C660 C661 1.397 . S
C660 C665 1.363 . S
C661 H632 0.950 . S
C661 C660 1.397 . S
C661 C662 1.334 . S
C662 H633 0.950 . S
C662 C661 1.334 . S
C662 C663 1.287 . S
C663 C662 1.287 . S
C663 C664 1.524 . S
C663 H666 0.999 . S
C664 H634 0.950 . S
C664 C663 1.524 . S
C664 C665 1.415 . S
C665 H635 0.950 . S
C665 C660 1.363 . S
C665 C664 1.415 . S
H666 C663 0.999 . S
H667 C648 0.913 . S
H668 C686 0.951 . S
H669 C688 0.951 . S
H670 C690 0.950 . S
H671 C691 0.950 . S
H672 C693 0.950 . S
H673 C696 0.950 . S
H674 C697 0.950 . S
H675 C699 0.950 . S
H676 C700 0.950 . S
H677 C701 0.951 . S
H678 C703 0.951 . S
H679 C705 0.950 . S
H680 C706 0.950 . S
H681 C708 0.950 . S
H682 C711 0.950 . S
H683 C712 0.950 . S
H684 C714 0.950 . S
H685 C715 0.950 . S
C686 H668 0.951 . S
C686 C687 1.366 . S
C686 C688 1.388 . S
C687 C686 1.366 . S
C687 C691 1.385 . S
C688 H669 0.951 . S
C688 C686 1.388 . S
C688 C689 1.366 . S
C689 C688 1.366 . S
C689 C690 1.414 . S
C689 C692 1.499 . S
C690 H670 0.950 . S
C690 C689 1.414 . S
C690 C691 1.374 . S
C691 H671 0.950 . S
C691 C687 1.385 . S
C691 C690 1.374 . S
C692 C689 1.499 . S
C692 C693 1.373 . S
C692 C694 1.389 . S
C693 H672 0.950 . S
C693 C692 1.373 . S
C693 C709 1.377 . S
C694 C692 1.389 . S
C694 C695 1.524 . S
C694 C708 1.377 . S
C695 C694 1.524 . S
C695 C696 1.397 . S
C695 C700 1.363 . S
C696 H673 0.950 . S
C696 C695 1.397 . S
C696 C697 1.334 . S
C697 H674 0.950 . S
C697 C696 1.334 . S
C697 C698 1.287 . S
C698 C697 1.287 . S
C698 C699 1.524 . S
C698 H717 0.913 . S
C699 H675 0.950 . S
C699 C698 1.524 . S
C699 C700 1.415 . S
C700 H676 0.950 . S
C700 C695 1.363 . S
C700 C699 1.415 . S
C701 H677 0.951 . S
C701 C702 1.366 . S
C701 C703 1.388 . S
C702 C701 1.366 . S
C702 C706 1.385 . S
C703 H678 0.951 . S
C703 C701 1.388 . S
C703 C704 1.366 . S
C704 C703 1.366 . S
C704 C705 1.414 . S
C704 C707 1.499 . S
C705 H679 0.950 . S
C705 C704 1.414 . S
C705 C706 1.374 . S
C706 H680 0.950 . S
C706 C702 1.385 . S
C706 C705 1.374 . S
C707 C704 1.499 . S
C707 C708 1.373 . S
C707 C709 1.389 . S
C708 H681 0.950 . S
C708 C694 1.377 . S
C708 C707 1.373 . S
C709 C693 1.377 . S
C709 C707 1.389 . S
C709 C710 1.524 . S
C710 C709 1.524 . S
C710 C711 1.397 . S
C710 C715 1.363 . S
C711 H682 0.950 . S
C711 C710 1.397 . S
C711 C712 1.334 . S
C712 H683 0.950 . S
C712 C711 1.334 . S
C712 C713 1.287 . S
C713 C712 1.287 . S
C713 C714 1.524 . S
C713 H716 0.999 . S
C714 H684 0.950 . S
C714 C713 1.524 . S
C714 C715 1.415 . S
C715 H685 0.950 . S
C715 C710 1.363 . S
C715 C714 1.415 . S
H716 C713 0.999 . S
H717 C698 0.913 . S
H718 C736 0.951 . S
H719 C738 0.951 . S
H720 C740 0.950 . S
H721 C741 0.950 . S
H722 C743 0.950 . S
H723 C746 0.950 . S
H724 C747 0.950 . S
H725 C749 0.950 . S
H726 C750 0.950 . S
H727 C751 0.951 . S
H728 C753 0.951 . S
H729 C755 0.950 . S
H730 C756 0.950 . S
H731 C758 0.950 . S
H732 C761 0.950 . S
H733 C762 0.950 . S
H734 C764 0.950 . S
H735 C765 0.950 1_556 S
C736 H718 0.951 . S
C736 C737 1.366 . S
C736 C738 1.388 . S
C737 C736 1.366 . S
C737 C741 1.385 . S
C738 H719 0.951 . S
C738 C736 1.388 . S
C738 C739 1.366 . S
C739 C738 1.366 . S
C739 C740 1.414 . S
C739 C742 1.499 . S
C740 H720 0.950 . S
C740 C739 1.414 . S
C740 C741 1.374 . S
C741 H721 0.950 . S
C741 C737 1.385 . S
C741 C740 1.374 . S
C742 C739 1.499 . S
C742 C743 1.373 . S
C742 C744 1.389 . S
C743 H722 0.950 . S
C743 C742 1.373 . S
C743 C759 1.377 . S
C744 C742 1.389 . S
C744 C745 1.524 . S
C744 C758 1.377 . S
C745 C744 1.524 . S
C745 C746 1.397 . S
C745 C750 1.363 . S
C746 H723 0.950 . S
C746 C745 1.397 . S
C746 C747 1.334 . S
C747 H724 0.950 . S
C747 C746 1.334 . S
C747 C748 1.287 . S
C748 C747 1.287 . S
C748 C749 1.524 . S
C748 H767 0.913 . S
C749 H725 0.950 . S
C749 C748 1.524 . S
C749 C750 1.415 . S
C750 H726 0.950 . S
C750 C745 1.363 . S
C750 C749 1.415 . S
C751 H727 0.951 . S
C751 C752 1.366 . S
C751 C753 1.388 1_554 S
C752 C751 1.366 . S
C752 C756 1.385 . S
C753 H728 0.951 . S
C753 C751 1.388 1_556 S
C753 C754 1.366 . S
C754 C753 1.366 . S
C754 C755 1.414 . S
C754 C757 1.499 . S
C755 H729 0.950 . S
C755 C754 1.414 . S
C755 C756 1.374 1_556 S
C756 H730 0.950 . S
C756 C752 1.385 . S
C756 C755 1.374 1_554 S
C757 C754 1.499 . S
C757 C758 1.373 . S
C757 C759 1.389 . S
C758 H731 0.950 . S
C758 C744 1.377 . S
C758 C757 1.373 . S
C759 C743 1.377 . S
C759 C757 1.389 . S
C759 C760 1.524 1_556 S
C760 C759 1.524 1_554 S
C760 C761 1.397 . S
C760 C765 1.363 . S
C761 H732 0.950 . S
C761 C760 1.397 . S
C761 C762 1.334 . S
C762 H733 0.950 . S
C762 C761 1.334 . S
C762 C763 1.287 . S
C763 C762 1.287 . S
C763 C764 1.524 . S
C763 H766 0.999 . S
C764 H734 0.950 . S
C764 C763 1.524 . S
C764 C765 1.415 . S
C765 H735 0.950 1_554 S
C765 C760 1.363 . S
C765 C764 1.415 . S
H766 C763 0.999 . S
H767 C748 0.913 . S
H768 C786 0.951 . S
H769 C788 0.951 . S
H770 C790 0.950 . S
H771 C791 0.950 . S
H772 C793 0.950 . S
H773 C796 0.950 . S
H774 C797 0.950 . S
H775 C799 0.950 . S
H776 C800 0.950 . S
H777 C801 0.951 . S
H778 C803 0.951 . S
H779 C805 0.950 . S
H780 C806 0.950 . S
H781 C808 0.950 . S
H782 C811 0.950 . S
H783 C812 0.950 . S
H784 C814 0.950 . S
H785 C815 0.950 . S
C786 H768 0.951 . S
C786 C787 1.366 . S
C786 C788 1.388 . S
C787 C786 1.366 . S
C787 C791 1.385 . S
C788 H769 0.951 . S
C788 C786 1.388 . S
C788 C789 1.366 . S
C789 C788 1.366 . S
C789 C790 1.414 . S
C789 C792 1.499 . S
C790 H770 0.950 . S
C790 C789 1.414 . S
C790 C791 1.374 . S
C791 H771 0.950 . S
C791 C787 1.385 . S
C791 C790 1.374 . S
C792 C789 1.499 . S
C792 C793 1.373 . S
C792 C794 1.389 . S
C793 H772 0.950 . S
C793 C792 1.373 . S
C793 C809 1.377 . S
C794 C792 1.389 . S
C794 C795 1.524 . S
C794 C808 1.377 . S
C795 C794 1.524 . S
C795 C796 1.397 . S
C795 C800 1.363 . S
C796 H773 0.950 . S
C796 C795 1.397 . S
C796 C797 1.334 . S
C797 H774 0.950 . S
C797 C796 1.334 . S
C797 C798 1.287 . S
C798 C797 1.287 . S
C798 C799 1.524 . S
C798 H817 0.913 . S
C799 H775 0.950 . S
C799 C798 1.524 . S
C799 C800 1.415 . S
C800 H776 0.950 . S
C800 C795 1.363 . S
C800 C799 1.415 . S
C801 H777 0.951 . S
C801 C802 1.366 . S
C801 C803 1.388 . S
C802 C801 1.366 . S
C802 C806 1.385 . S
C803 H778 0.951 . S
C803 C801 1.388 . S
C803 C804 1.366 . S
C804 C803 1.366 . S
C804 C805 1.414 . S
C804 C807 1.499 . S
C805 H779 0.950 . S
C805 C804 1.414 . S
C805 C806 1.374 . S
C806 H780 0.950 . S
C806 C802 1.385 . S
C806 C805 1.374 . S
C807 C804 1.499 . S
C807 C808 1.373 . S
C807 C809 1.389 . S
C808 H781 0.950 . S
C808 C794 1.377 . S
C808 C807 1.373 . S
C809 C793 1.377 . S
C809 C807 1.389 . S
C809 C810 1.524 . S
C810 C809 1.524 . S
C810 C811 1.397 . S
C810 C815 1.363 . S
C811 H782 0.950 . S
C811 C810 1.397 . S
C811 C812 1.334 . S
C812 H783 0.950 . S
C812 C811 1.334 . S
C812 C813 1.287 . S
C813 C812 1.287 . S
C813 C814 1.524 . S
C813 H816 0.999 1_556 S
C814 H784 0.950 . S
C814 C813 1.524 . S
C814 C815 1.415 . S
C815 H785 0.950 . S
C815 C810 1.363 . S
C815 C814 1.415 . S
H816 C813 0.999 1_554 S
H817 C798 0.913 . S
H818 C836 0.951 . S
H819 C838 0.951 . S
H820 C840 0.950 . S
H821 C841 0.950 . S
H822 C843 0.950 . S
H823 C846 0.950 1_554 S
H824 C847 0.950 1_554 S
H825 C849 0.950 . S
H826 C850 0.950 . S
H827 C851 0.951 . S
H828 C853 0.951 . S
H829 C855 0.950 . S
H830 C856 0.950 . S
H831 C858 0.950 . S
H832 C861 0.950 . S
H833 C862 0.950 1_556 S
H834 C864 0.950 . S
H835 C865 0.950 . S
C836 H818 0.951 . S
C836 C837 1.366 . S
C836 C838 1.388 . S
C837 C836 1.366 . S
C837 C841 1.385 . S
C838 H819 0.951 . S
C838 C836 1.388 . S
C838 C839 1.366 . S
C839 C838 1.366 . S
C839 C840 1.414 . S
C839 C842 1.499 . S
C840 H820 0.950 . S
C840 C839 1.414 . S
C840 C841 1.374 . S
C841 H821 0.950 . S
C841 C837 1.385 . S
C841 C840 1.374 . S
C842 C839 1.499 . S
C842 C843 1.373 . S
C842 C844 1.389 1_554 S
C843 H822 0.950 . S
C843 C842 1.373 . S
C843 C859 1.377 . S
C844 C842 1.389 1_556 S
C844 C845 1.524 . S
C844 C858 1.377 . S
C845 C844 1.524 . S
C845 C846 1.397 . S
C845 C850 1.363 . S
C846 H823 0.950 1_556 S
C846 C845 1.397 . S
C846 C847 1.334 . S
C847 H824 0.950 1_556 S
C847 C846 1.334 . S
C847 C848 1.287 . S
C848 C847 1.287 . S
C848 C849 1.524 . S
C848 H867 0.913 . S
C849 H825 0.950 . S
C849 C848 1.524 . S
C849 C850 1.415 . S
C850 H826 0.950 . S
C850 C845 1.363 . S
C850 C849 1.415 . S
C851 H827 0.951 . S
C851 C852 1.366 . S
C851 C853 1.388 . S
C852 C851 1.366 . S
C852 C856 1.385 . S
C853 H828 0.951 . S
C853 C851 1.388 . S
C853 C854 1.366 . S
C854 C853 1.366 . S
C854 C855 1.414 . S
C854 C857 1.499 . S
C855 H829 0.950 . S
C855 C854 1.414 . S
C855 C856 1.374 . S
C856 H830 0.950 . S
C856 C852 1.385 . S
C856 C855 1.374 . S
C857 C854 1.499 . S
C857 C858 1.373 . S
C857 C859 1.389 1_556 S
C858 H831 0.950 . S
C858 C844 1.377 . S
C858 C857 1.373 . S
C859 C843 1.377 . S
C859 C857 1.389 1_554 S
C859 C860 1.524 . S
C860 C859 1.524 . S
C860 C861 1.397 1_554 S
C860 C865 1.363 . S
C861 H832 0.950 . S
C861 C860 1.397 1_556 S
C861 C862 1.334 1_556 S
C862 H833 0.950 1_554 S
C862 C861 1.334 1_554 S
C862 C863 1.287 . S
C863 C862 1.287 . S
C863 C864 1.524 . S
C863 H866 0.999 . S
C864 H834 0.950 . S
C864 C863 1.524 . S
C864 C865 1.415 . S
C865 H835 0.950 . S
C865 C860 1.363 . S
C865 C864 1.415 . S
H866 C863 0.999 . S
H867 C848 0.913 . S
H868 C886 0.951 . S
H869 C888 0.951 . S
H870 C890 0.950 . S
H871 C891 0.950 . S
H872 C893 0.950 . S
H873 C896 0.950 . S
H874 C897 0.950 . S
H875 C899 0.950 . S
H876 C900 0.950 . S
H877 C901 0.951 . S
H878 C903 0.951 1_554 S
H879 C905 0.950 . S
H880 C906 0.950 . S
H881 C908 0.950 . S
H882 C911 0.950 . S
H883 C912 0.950 . S
H884 C914 0.950 . S
H885 C915 0.950 . S
C886 H868 0.951 . S
C886 C887 1.366 . S
C886 C888 1.388 . S
C887 C886 1.366 . S
C887 C891 1.385 . S
C888 H869 0.951 . S
C888 C886 1.388 . S
C888 C889 1.366 . S
C889 C888 1.366 . S
C889 C890 1.414 . S
C889 C892 1.499 . S
C890 H870 0.950 . S
C890 C889 1.414 . S
C890 C891 1.374 . S
C891 H871 0.950 . S
C891 C887 1.385 . S
C891 C890 1.374 . S
C892 C889 1.499 . S
C892 C893 1.373 . S
C892 C894 1.389 . S
C893 H872 0.950 . S
C893 C892 1.373 . S
C893 C909 1.377 . S
C894 C892 1.389 . S
C894 C895 1.524 . S
C894 C908 1.377 . S
C895 C894 1.524 . S
C895 C896 1.397 . S
C895 C900 1.363 . S
C896 H873 0.950 . S
C896 C895 1.397 . S
C896 C897 1.334 . S
C897 H874 0.950 . S
C897 C896 1.334 . S
C897 C898 1.287 . S
C898 C897 1.287 . S
C898 C899 1.524 . S
C898 H917 0.913 . S
C899 H875 0.950 . S
C899 C898 1.524 . S
C899 C900 1.415 . S
C900 H876 0.950 . S
C900 C895 1.363 . S
C900 C899 1.415 . S
C901 H877 0.951 . S
C901 C902 1.366 . S
C901 C903 1.388 . S
C902 C901 1.366 . S
C902 C906 1.385 . S
C903 H878 0.951 1_556 S
C903 C901 1.388 . S
C903 C904 1.366 1_556 S
C904 C903 1.366 1_554 S
C904 C905 1.414 1_554 S
C904 C907 1.499 . S
C905 H879 0.950 . S
C905 C904 1.414 1_556 S
C905 C906 1.374 . S
C906 H880 0.950 . S
C906 C902 1.385 . S
C906 C905 1.374 . S
C907 C904 1.499 . S
C907 C908 1.373 . S
C907 C909 1.389 . S
C908 H881 0.950 . S
C908 C894 1.377 . S
C908 C907 1.373 . S
C909 C893 1.377 . S
C909 C907 1.389 . S
C909 C910 1.524 . S
C910 C909 1.524 . S
C910 C911 1.397 . S
C910 C915 1.363 . S
C911 H882 0.950 . S
C911 C910 1.397 . S
C911 C912 1.334 . S
C912 H883 0.950 . S
C912 C911 1.334 . S
C912 C913 1.287 . S
C913 C912 1.287 . S
C913 C914 1.524 . S
C913 H916 0.999 . S
C914 H884 0.950 . S
C914 C913 1.524 . S
C914 C915 1.415 . S
C915 H885 0.950 . S
C915 C910 1.363 . S
C915 C914 1.415 . S
H916 C913 0.999 . S
H917 C898 0.913 . S
H918 C936 0.951 . S
H919 C938 0.951 . S
H920 C940 0.950 . S
H921 C941 0.950 . S
H922 C943 0.950 . S
H923 C946 0.950 . S
H924 C947 0.950 . S
H925 C949 0.950 . S
H926 C950 0.950 . S
H927 C951 0.951 . S
H928 C953 0.951 . S
H929 C955 0.950 . S
H930 C956 0.950 . S
H931 C958 0.950 . S
H932 C961 0.950 . S
H933 C962 0.950 . S
H934 C964 0.950 . S
H935 C965 0.950 . S
C936 H918 0.951 . S
C936 C937 1.366 . S
C936 C938 1.388 . S
C937 C936 1.366 . S
C937 C941 1.385 . S
C938 H919 0.951 . S
C938 C936 1.388 . S
C938 C939 1.366 . S
C939 C938 1.366 . S
C939 C940 1.414 . S
C939 C942 1.499 . S
C940 H920 0.950 . S
C940 C939 1.414 . S
C940 C941 1.374 . S
C941 H921 0.950 . S
C941 C937 1.385 . S
C941 C940 1.374 . S
C942 C939 1.499 . S
C942 C943 1.373 . S
C942 C944 1.389 . S
C943 H922 0.950 . S
C943 C942 1.373 . S
C943 C959 1.377 . S
C944 C942 1.389 . S
C944 C945 1.524 . S
C944 C958 1.377 . S
C945 C944 1.524 . S
C945 C946 1.397 . S
C945 C950 1.363 . S
C946 H923 0.950 . S
C946 C945 1.397 . S
C946 C947 1.334 . S
C947 H924 0.950 . S
C947 C946 1.334 . S
C947 C948 1.287 . S
C948 C947 1.287 . S
C948 C949 1.524 . S
C948 H967 0.913 . S
C949 H925 0.950 . S
C949 C948 1.524 . S
C949 C950 1.415 . S
C950 H926 0.950 . S
C950 C945 1.363 . S
C950 C949 1.415 . S
C951 H927 0.951 . S
C951 C952 1.366 . S
C951 C953 1.388 . S
C952 C951 1.366 . S
C952 C956 1.385 . S
C953 H928 0.951 . S
C953 C951 1.388 . S
C953 C954 1.366 . S
C954 C953 1.366 . S
C954 C955 1.414 . S
C954 C957 1.499 . S
C955 H929 0.950 . S
C955 C954 1.414 . S
C955 C956 1.374 . S
C956 H930 0.950 . S
C956 C952 1.385 . S
C956 C955 1.374 . S
C957 C954 1.499 . S
C957 C958 1.373 . S
C957 C959 1.389 . S
C958 H931 0.950 . S
C958 C944 1.377 . S
C958 C957 1.373 . S
C959 C943 1.377 . S
C959 C957 1.389 . S
C959 C960 1.524 . S
C960 C959 1.524 . S
C960 C961 1.397 . S
C960 C965 1.363 . S
C961 H932 0.950 . S
C961 C960 1.397 . S
C961 C962 1.334 . S
C962 H933 0.950 . S
C962 C961 1.334 . S
C962 C963 1.287 . S
C963 C962 1.287 . S
C963 C964 1.524 . S
C963 H966 0.999 . S
C964 H934 0.950 . S
C964 C963 1.524 . S
C964 C965 1.415 . S
C965 H935 0.950 . S
C965 C960 1.363 . S
C965 C964 1.415 . S
H966 C963 0.999 . S
H967 C948 0.913 . S
H968 C986 0.951 . S
H969 C988 0.951 . S
H970 C990 0.950 . S
H971 C991 0.950 . S
H972 C993 0.950 . S
H973 C996 0.950 . S
H974 C997 0.950 . S
H975 C999 0.950 . S
H976 C1000 0.950 . S
H977 C1001 0.951 . S
H978 C1003 0.951 . S
H979 C1005 0.950 . S
H980 C1006 0.950 . S
H981 C1008 0.950 . S
H982 C1011 0.950 . S
H983 C1012 0.950 . S
H984 C1014 0.950 . S
H985 C1015 0.950 . S
C986 H968 0.951 . S
C986 C987 1.366 . S
C986 C988 1.388 . S
C987 C986 1.366 . S
C987 C991 1.385 . S
C988 H969 0.951 . S
C988 C986 1.388 . S
C988 C989 1.366 . S
C989 C988 1.366 . S
C989 C990 1.414 . S
C989 C992 1.499 . S
C990 H970 0.950 . S
C990 C989 1.414 . S
C990 C991 1.374 . S
C991 H971 0.950 . S
C991 C987 1.385 . S
C991 C990 1.374 . S
C992 C989 1.499 . S
C992 C993 1.373 . S
C992 C994 1.389 . S
C993 H972 0.950 . S
C993 C992 1.373 . S
C993 C1009 1.377 . S
C994 C992 1.389 . S
C994 C995 1.524 . S
C994 C1008 1.377 . S
C995 C994 1.524 . S
C995 C996 1.397 . S
C995 C1000 1.363 . S
C996 H973 0.950 . S
C996 C995 1.397 . S
C996 C997 1.334 . S
C997 H974 0.950 . S
C997 C996 1.334 . S
C997 C998 1.287 . S
C998 C997 1.287 . S
C998 C999 1.524 . S
C998 H1017 0.913 . S
C999 H975 0.950 . S
C999 C998 1.524 . S
C999 C1000 1.415 . S
C1000 H976 0.950 . S
C1000 C995 1.363 . S
C1000 C999 1.415 . S
C1001 H977 0.951 . S
C1001 C1002 1.366 . S
C1001 C1003 1.388 . S
C1002 C1001 1.366 . S
C1002 C1006 1.385 . S
C1003 H978 0.951 . S
C1003 C1001 1.388 . S
C1003 C1004 1.366 . S
C1004 C1003 1.366 . S
C1004 C1005 1.414 . S
C1004 C1007 1.499 . S
C1005 H979 0.950 . S
C1005 C1004 1.414 . S
C1005 C1006 1.374 . S
C1006 H980 0.950 . S
C1006 C1002 1.385 . S
C1006 C1005 1.374 . S
C1007 C1004 1.499 . S
C1007 C1008 1.373 . S
C1007 C1009 1.389 . S
C1008 H981 0.950 . S
C1008 C994 1.377 . S
C1008 C1007 1.373 . S
C1009 C993 1.377 . S
C1009 C1007 1.389 . S
C1009 C1010 1.524 . S
C1010 C1009 1.524 . S
C1010 C1011 1.397 . S
C1010 C1015 1.363 . S
C1011 H982 0.950 . S
C1011 C1010 1.397 . S
C1011 C1012 1.334 . S
C1012 H983 0.950 . S
C1012 C1011 1.334 . S
C1012 C1013 1.287 . S
C1013 C1012 1.287 . S
C1013 C1014 1.524 . S
C1013 H1016 0.999 . S
C1014 H984 0.950 . S
C1014 C1013 1.524 . S
C1014 C1015 1.415 . S
C1015 H985 0.950 . S
C1015 C1010 1.363 . S
C1015 C1014 1.415 . S
H1016 C1013 0.999 . S
H1017 C998 0.913 . S
H1018 C1036 0.951 . S
H1019 C1038 0.951 . S
H1020 C1040 0.950 . S
H1021 C1041 0.950 . S
H1022 C1043 0.950 . S
H1023 C1046 0.950 . S
H1024 C1047 0.950 . S
H1025 C1049 0.950 . S
H1026 C1050 0.950 . S
H1027 C1051 0.951 . S
H1028 C1053 0.951 . S
H1029 C1055 0.950 . S
H1030 C1056 0.950 . S
H1031 C1058 0.950 . S
H1032 C1061 0.950 . S
H1033 C1062 0.950 . S
H1034 C1064 0.950 . S
H1035 C1065 0.950 . S
C1036 H1018 0.951 . S
C1036 C1037 1.366 . S
C1036 C1038 1.388 . S
C1037 C1036 1.366 . S
C1037 C1041 1.385 . S
C1038 H1019 0.951 . S
C1038 C1036 1.388 . S
C1038 C1039 1.366 . S
C1039 C1038 1.366 . S
C1039 C1040 1.414 . S
C1039 C1042 1.499 . S
C1040 H1020 0.950 . S
C1040 C1039 1.414 . S
C1040 C1041 1.374 . S
C1041 H1021 0.950 . S
C1041 C1037 1.385 . S
C1041 C1040 1.374 . S
C1042 C1039 1.499 . S
C1042 C1043 1.373 . S
C1042 C1044 1.389 . S
C1043 H1022 0.950 . S
C1043 C1042 1.373 . S
C1043 C1059 1.377 . S
C1044 C1042 1.389 . S
C1044 C1045 1.524 . S
C1044 C1058 1.377 . S
C1045 C1044 1.524 . S
C1045 C1046 1.397 . S
C1045 C1050 1.363 . S
C1046 H1023 0.950 . S
C1046 C1045 1.397 . S
C1046 C1047 1.334 . S
C1047 H1024 0.950 . S
C1047 C1046 1.334 . S
C1047 C1048 1.287 . S
C1048 C1047 1.287 . S
C1048 C1049 1.524 . S
C1048 H1067 0.913 . S
C1049 H1025 0.950 . S
C1049 C1048 1.524 . S
C1049 C1050 1.415 . S
C1050 H1026 0.950 . S
C1050 C1045 1.363 . S
C1050 C1049 1.415 . S
C1051 H1027 0.951 . S
C1051 C1052 1.366 . S
C1051 C1053 1.388 . S
C1052 C1051 1.366 . S
C1052 C1056 1.385 . S
C1053 H1028 0.951 . S
C1053 C1051 1.388 . S
C1053 C1054 1.366 . S
C1054 C1053 1.366 . S
C1054 C1055 1.414 . S
C1054 C1057 1.499 . S
C1055 H1029 0.950 . S
C1055 C1054 1.414 . S
C1055 C1056 1.374 . S
C1056 H1030 0.950 . S
C1056 C1052 1.385 . S
C1056 C1055 1.374 . S
C1057 C1054 1.499 . S
C1057 C1058 1.373 . S
C1057 C1059 1.389 . S
C1058 H1031 0.950 . S
C1058 C1044 1.377 . S
C1058 C1057 1.373 . S
C1059 C1043 1.377 . S
C1059 C1057 1.389 . S
C1059 C1060 1.524 . S
C1060 C1059 1.524 . S
C1060 C1061 1.397 . S
C1060 C1065 1.363 . S
C1061 H1032 0.950 . S
C1061 C1060 1.397 . S
C1061 C1062 1.334 . S
C1062 H1033 0.950 . S
C1062 C1061 1.334 . S
C1062 C1063 1.287 . S
C1063 C1062 1.287 . S
C1063 C1064 1.524 . S
C1063 H1066 0.999 . S
C1064 H1034 0.950 . S
C1064 C1063 1.524 . S
C1064 C1065 1.415 . S
C1065 H1035 0.950 . S
C1065 C1060 1.363 . S
C1065 C1064 1.415 . S
H1066 C1063 0.999 . S
H1067 C1048 0.913 . S
H1068 C1086 0.951 . S
H1069 C1088 0.951 . S
H1070 C1090 0.950 . S
H1071 C1091 0.950 1_554 S
H1072 C1093 0.950 . S
H1073 C1096 0.950 . S
H1074 C1097 0.950 . S
H1075 C1099 0.950 . S
H1076 C1100 0.950 . S
H1077 C1101 0.951 . S
H1078 C1103 0.951 . S
H1079 C1105 0.950 . S
H1080 C1106 0.950 . S
H1081 C1108 0.950 . S
H1082 C1111 0.950 . S
H1083 C1112 0.950 . S
H1084 C1114 0.950 1_554 S
H1085 C1115 0.950 . S
C1086 H1068 0.951 . S
C1086 C1087 1.366 . S
C1086 C1088 1.388 . S
C1087 C1086 1.366 . S
C1087 C1091 1.385 . S
C1088 H1069 0.951 . S
C1088 C1086 1.388 . S
C1088 C1089 1.366 . S
C1089 C1088 1.366 . S
C1089 C1090 1.414 . S
C1089 C1092 1.499 . S
C1090 H1070 0.950 . S
C1090 C1089 1.414 . S
C1090 C1091 1.374 . S
C1091 H1071 0.950 1_556 S
C1091 C1087 1.385 . S
C1091 C1090 1.374 . S
C1092 C1089 1.499 . S
C1092 C1093 1.373 . S
C1092 C1094 1.389 . S
C1093 H1072 0.950 . S
C1093 C1092 1.373 . S
C1093 C1109 1.377 1_455 S
C1094 C1092 1.389 . S
C1094 C1095 1.524 . S
C1094 C1108 1.377 . S
C1095 C1094 1.524 . S
C1095 C1096 1.397 . S
C1095 C1100 1.363 . S
C1096 H1073 0.950 . S
C1096 C1095 1.397 . S
C1096 C1097 1.334 . S
C1097 H1074 0.950 . S
C1097 C1096 1.334 . S
C1097 C1098 1.287 . S
C1098 C1097 1.287 . S
C1098 C1099 1.524 . S
C1098 H1117 0.913 . S
C1099 H1075 0.950 . S
C1099 C1098 1.524 . S
C1099 C1100 1.415 . S
C1100 H1076 0.950 . S
C1100 C1095 1.363 . S
C1100 C1099 1.415 . S
C1101 H1077 0.951 . S
C1101 C1102 1.366 . S
C1101 C1103 1.388 . S
C1102 C1101 1.366 . S
C1102 C1106 1.385 . S
C1103 H1078 0.951 . S
C1103 C1101 1.388 . S
C1103 C1104 1.366 . S
C1104 C1103 1.366 . S
C1104 C1105 1.414 . S
C1104 C1107 1.499 . S
C1105 H1079 0.950 . S
C1105 C1104 1.414 . S
C1105 C1106 1.374 . S
C1106 H1080 0.950 . S
C1106 C1102 1.385 . S
C1106 C1105 1.374 . S
C1107 C1104 1.499 . S
C1107 C1108 1.373 1_655 S
C1107 C1109 1.389 . S
C1108 H1081 0.950 . S
C1108 C1094 1.377 . S
C1108 C1107 1.373 1_455 S
C1109 C1093 1.377 1_655 S
C1109 C1107 1.389 . S
C1109 C1110 1.524 . S
C1110 C1109 1.524 . S
C1110 C1111 1.397 . S
C1110 C1115 1.363 . S
C1111 H1082 0.950 . S
C1111 C1110 1.397 . S
C1111 C1112 1.334 . S
C1112 H1083 0.950 . S
C1112 C1111 1.334 . S
C1112 C1113 1.287 . S
C1113 C1112 1.287 . S
C1113 C1114 1.524 . S
C1113 H1116 0.999 1_556 S
C1114 H1084 0.950 1_556 S
C1114 C1113 1.524 . S
C1114 C1115 1.415 . S
C1115 H1085 0.950 . S
C1115 C1110 1.363 . S
C1115 C1114 1.415 . S
H1116 C1113 0.999 1_554 S
H1117 C1098 0.913 . S
H1118 C1136 0.951 . S
H1119 C1138 0.951 . S
H1120 C1140 0.950 1_554 S
H1121 C1141 0.950 . S
H1122 C1143 0.950 . S
H1123 C1146 0.950 1_554 S
H1124 C1147 0.950 . S
H1125 C1149 0.950 . S
H1126 C1150 0.950 . S
H1127 C1151 0.951 . S
H1128 C1153 0.951 . S
H1129 C1155 0.950 . S
H1130 C1156 0.950 . S
H1131 C1158 0.950 . S
H1132 C1161 0.950 . S
H1133 C1162 0.950 . S
H1134 C1164 0.950 . S
H1135 C1165 0.950 . S
C1136 H1118 0.951 . S
C1136 C1137 1.366 . S
C1136 C1138 1.388 . S
C1137 C1136 1.366 . S
C1137 C1141 1.385 . S
C1138 H1119 0.951 . S
C1138 C1136 1.388 . S
C1138 C1139 1.366 . S
C1139 C1138 1.366 . S
C1139 C1140 1.414 . S
C1139 C1142 1.499 1_556 S
C1140 H1120 0.950 1_556 S
C1140 C1139 1.414 . S
C1140 C1141 1.374 . S
C1141 H1121 0.950 . S
C1141 C1137 1.385 . S
C1141 C1140 1.374 . S
C1142 C1139 1.499 1_554 S
C1142 C1143 1.373 . S
C1142 C1144 1.389 . S
C1143 H1122 0.950 . S
C1143 C1142 1.373 . S
C1143 C1159 1.377 1_565 S
C1144 C1142 1.389 . S
C1144 C1145 1.524 1_554 S
C1144 C1158 1.377 1_565 S
C1145 C1144 1.524 1_556 S
C1145 C1146 1.397 . S
C1145 C1150 1.363 1_565 S
C1146 H1123 0.950 1_556 S
C1146 C1145 1.397 . S
C1146 C1147 1.334 . S
C1147 H1124 0.950 . S
C1147 C1146 1.334 . S
C1147 C1148 1.287 . S
C1148 C1147 1.287 . S
C1148 C1149 1.524 1_565 S
C1148 H1167 0.913 . S
C1149 H1125 0.950 . S
C1149 C1148 1.524 1_545 S
C1149 C1150 1.415 . S
C1150 H1126 0.950 . S
C1150 C1145 1.363 1_545 S
C1150 C1149 1.415 . S
C1151 H1127 0.951 . S
C1151 C1152 1.366 . S
C1151 C1153 1.388 . S
C1152 C1151 1.366 . S
C1152 C1156 1.385 . S
C1153 H1128 0.951 . S
C1153 C1151 1.388 . S
C1153 C1154 1.366 . S
C1154 C1153 1.366 . S
C1154 C1155 1.414 . S
C1154 C1157 1.499 . S
C1155 H1129 0.950 . S
C1155 C1154 1.414 . S
C1155 C1156 1.374 . S
C1156 H1130 0.950 . S
C1156 C1152 1.385 . S
C1156 C1155 1.374 . S
C1157 C1154 1.499 . S
C1157 C1158 1.373 . S
C1157 C1159 1.389 . S
C1158 H1131 0.950 . S
C1158 C1144 1.377 1_545 S
C1158 C1157 1.373 . S
C1159 C1143 1.377 1_545 S
C1159 C1157 1.389 . S
C1159 C1160 1.524 . S
C1160 C1159 1.524 . S
C1160 C1161 1.397 . S
C1160 C1165 1.363 1_545 S
C1161 H1132 0.950 . S
C1161 C1160 1.397 . S
C1161 C1162 1.334 . S
C1162 H1133 0.950 . S
C1162 C1161 1.334 . S
C1162 C1163 1.287 . S
C1163 C1162 1.287 . S
C1163 C1164 1.524 1_545 S
C1163 H1166 0.999 . S
C1164 H1134 0.950 . S
C1164 C1163 1.524 1_565 S
C1164 C1165 1.415 . S
C1165 H1135 0.950 . S
C1165 C1160 1.363 1_565 S
C1165 C1164 1.415 . S
H1166 C1163 0.999 . S
H1167 C1148 0.913 . S
H1168 C1186 0.951 . S
H1169 C1188 0.951 . S
H1170 C1190 0.950 . S
H1171 C1191 0.950 . S
H1172 C1193 0.950 . S
H1173 C1196 0.950 . S
H1174 C1197 0.950 . S
H1175 C1199 0.950 . S
H1176 C1200 0.950 . S
H1177 C1201 0.951 . S
H1178 C1203 0.951 . S
H1179 C1205 0.950 . S
H1180 C1206 0.950 . S
H1181 C1208 0.950 . S
H1182 C1211 0.950 . S
H1183 C1212 0.950 . S
H1184 C1214 0.950 . S
H1185 C1215 0.950 . S
C1186 H1168 0.951 . S
C1186 C1187 1.366 . S
C1186 C1188 1.388 . S
C1187 C1186 1.366 . S
C1187 C1191 1.385 . S
C1188 H1169 0.951 . S
C1188 C1186 1.388 . S
C1188 C1189 1.366 . S
C1189 C1188 1.366 . S
C1189 C1190 1.414 . S
C1189 C1192 1.499 . S
C1190 H1170 0.950 . S
C1190 C1189 1.414 . S
C1190 C1191 1.374 . S
C1191 H1171 0.950 . S
C1191 C1187 1.385 . S
C1191 C1190 1.374 . S
C1192 C1189 1.499 . S
C1192 C1193 1.373 . S
C1192 C1194 1.389 . S
C1193 H1172 0.950 . S
C1193 C1192 1.373 . S
C1193 C1209 1.377 . S
C1194 C1192 1.389 . S
C1194 C1195 1.524 . S
C1194 C1208 1.377 . S
C1195 C1194 1.524 . S
C1195 C1196 1.397 . S
C1195 C1200 1.363 . S
C1196 H1173 0.950 . S
C1196 C1195 1.397 . S
C1196 C1197 1.334 . S
C1197 H1174 0.950 . S
C1197 C1196 1.334 . S
C1197 C1198 1.287 . S
C1198 C1197 1.287 . S
C1198 C1199 1.524 . S
C1198 H1217 0.913 . S
C1199 H1175 0.950 . S
C1199 C1198 1.524 . S
C1199 C1200 1.415 . S
C1200 H1176 0.950 . S
C1200 C1195 1.363 . S
C1200 C1199 1.415 . S
C1201 H1177 0.951 . S
C1201 C1202 1.366 . S
C1201 C1203 1.388 . S
C1202 C1201 1.366 . S
C1202 C1206 1.385 . S
C1203 H1178 0.951 . S
C1203 C1201 1.388 . S
C1203 C1204 1.366 . S
C1204 C1203 1.366 . S
C1204 C1205 1.414 . S
C1204 C1207 1.499 . S
C1205 H1179 0.950 . S
C1205 C1204 1.414 . S
C1205 C1206 1.374 . S
C1206 H1180 0.950 . S
C1206 C1202 1.385 . S
C1206 C1205 1.374 . S
C1207 C1204 1.499 . S
C1207 C1208 1.373 . S
C1207 C1209 1.389 . S
C1208 H1181 0.950 . S
C1208 C1194 1.377 . S
C1208 C1207 1.373 . S
C1209 C1193 1.377 . S
C1209 C1207 1.389 . S
C1209 C1210 1.524 . S
C1210 C1209 1.524 . S
C1210 C1211 1.397 . S
C1210 C1215 1.363 . S
C1211 H1182 0.950 . S
C1211 C1210 1.397 . S
C1211 C1212 1.334 . S
C1212 H1183 0.950 . S
C1212 C1211 1.334 . S
C1212 C1213 1.287 . S
C1213 C1212 1.287 . S
C1213 C1214 1.524 . S
C1213 H1216 0.999 . S
C1214 H1184 0.950 . S
C1214 C1213 1.524 . S
C1214 C1215 1.415 . S
C1215 H1185 0.950 . S
C1215 C1210 1.363 . S
C1215 C1214 1.415 . S
H1216 C1213 0.999 . S
H1217 C1198 0.913 . S
H1218 C1236 0.951 . S
H1219 C1238 0.951 . S
H1220 C1240 0.950 . S
H1221 C1241 0.950 . S
H1222 C1243 0.950 . S
H1223 C1246 0.950 . S
H1224 C1247 0.950 . S
H1225 C1249 0.950 . S
H1226 C1250 0.950 . S
H1227 C1251 0.951 . S
H1228 C1253 0.951 . S
H1229 C1255 0.950 . S
H1230 C1256 0.950 . S
H1231 C1258 0.950 . S
H1232 C1261 0.950 . S
H1233 C1262 0.950 . S
H1234 C1264 0.950 . S
H1235 C1265 0.950 . S
C1236 H1218 0.951 . S
C1236 C1237 1.366 . S
C1236 C1238 1.388 . S
C1237 C1236 1.366 . S
C1237 C1241 1.385 . S
C1238 H1219 0.951 . S
C1238 C1236 1.388 . S
C1238 C1239 1.366 . S
C1239 C1238 1.366 . S
C1239 C1240 1.414 . S
C1239 C1242 1.499 . S
C1240 H1220 0.950 . S
C1240 C1239 1.414 . S
C1240 C1241 1.374 . S
C1241 H1221 0.950 . S
C1241 C1237 1.385 . S
C1241 C1240 1.374 . S
C1242 C1239 1.499 . S
C1242 C1243 1.373 1_455 S
C1242 C1244 1.389 . S
C1243 H1222 0.950 . S
C1243 C1242 1.373 1_655 S
C1243 C1259 1.377 . S
C1244 C1242 1.389 . S
C1244 C1245 1.524 . S
C1244 C1258 1.377 1_455 S
C1245 C1244 1.524 . S
C1245 C1246 1.397 . S
C1245 C1250 1.363 . S
C1246 H1223 0.950 . S
C1246 C1245 1.397 . S
C1246 C1247 1.334 . S
C1247 H1224 0.950 . S
C1247 C1246 1.334 . S
C1247 C1248 1.287 . S
C1248 C1247 1.287 . S
C1248 C1249 1.524 . S
C1248 H1267 0.913 . S
C1249 H1225 0.950 . S
C1249 C1248 1.524 . S
C1249 C1250 1.415 . S
C1250 H1226 0.950 . S
C1250 C1245 1.363 . S
C1250 C1249 1.415 . S
C1251 H1227 0.951 . S
C1251 C1252 1.366 . S
C1251 C1253 1.388 . S
C1252 C1251 1.366 . S
C1252 C1256 1.385 . S
C1253 H1228 0.951 . S
C1253 C1251 1.388 . S
C1253 C1254 1.366 . S
C1254 C1253 1.366 . S
C1254 C1255 1.414 . S
C1254 C1257 1.499 . S
C1255 H1229 0.950 . S
C1255 C1254 1.414 . S
C1255 C1256 1.374 . S
C1256 H1230 0.950 . S
C1256 C1252 1.385 . S
C1256 C1255 1.374 . S
C1257 C1254 1.499 . S
C1257 C1258 1.373 . S
C1257 C1259 1.389 . S
C1258 H1231 0.950 . S
C1258 C1244 1.377 1_655 S
C1258 C1257 1.373 . S
C1259 C1243 1.377 . S
C1259 C1257 1.389 . S
C1259 C1260 1.524 . S
C1260 C1259 1.524 . S
C1260 C1261 1.397 . S
C1260 C1265 1.363 . S
C1261 H1232 0.950 . S
C1261 C1260 1.397 . S
C1261 C1262 1.334 . S
C1262 H1233 0.950 . S
C1262 C1261 1.334 . S
C1262 C1263 1.287 . S
C1263 C1262 1.287 . S
C1263 C1264 1.524 . S
C1263 H1266 0.999 . S
C1264 H1234 0.950 . S
C1264 C1263 1.524 . S
C1264 C1265 1.415 . S
C1265 H1235 0.950 . S
C1265 C1260 1.363 . S
C1265 C1264 1.415 . S
H1266 C1263 0.999 . S
H1267 C1248 0.913 . S
H1268 C1286 0.951 . S
H1269 C1288 0.951 . S
H1270 C1290 0.950 . S
H1271 C1291 0.950 . S
H1272 C1293 0.950 . S
H1273 C1296 0.950 . S
H1274 C1297 0.950 . S
H1275 C1299 0.950 . S
H1276 C1300 0.950 . S
H1277 C1301 0.951 . S
H1278 C1303 0.951 . S
H1279 C1305 0.950 . S
H1280 C1306 0.950 . S
H1281 C1308 0.950 . S
H1282 C1311 0.950 . S
H1283 C1312 0.950 . S
H1284 C1314 0.950 . S
H1285 C1315 0.950 . S
C1286 H1268 0.951 . S
C1286 C1287 1.366 . S
C1286 C1288 1.388 . S
C1287 C1286 1.366 . S
C1287 C1291 1.385 . S
C1288 H1269 0.951 . S
C1288 C1286 1.388 . S
C1288 C1289 1.366 . S
C1289 C1288 1.366 . S
C1289 C1290 1.414 . S
C1289 C1292 1.499 . S
C1290 H1270 0.950 . S
C1290 C1289 1.414 . S
C1290 C1291 1.374 . S
C1291 H1271 0.950 . S
C1291 C1287 1.385 . S
C1291 C1290 1.374 . S
C1292 C1289 1.499 . S
C1292 C1293 1.373 . S
C1292 C1294 1.389 . S
C1293 H1272 0.950 . S
C1293 C1292 1.373 . S
C1293 C1309 1.377 1_545 S
C1294 C1292 1.389 . S
C1294 C1295 1.524 . S
C1294 C1308 1.377 1_545 S
C1295 C1294 1.524 . S
C1295 C1296 1.397 . S
C1295 C1300 1.363 1_545 S
C1296 H1273 0.950 . S
C1296 C1295 1.397 . S
C1296 C1297 1.334 . S
C1297 H1274 0.950 . S
C1297 C1296 1.334 . S
C1297 C1298 1.287 . S
C1298 C1297 1.287 . S
C1298 C1299 1.524 1_545 S
C1298 H1317 0.913 . S
C1299 H1275 0.950 . S
C1299 C1298 1.524 1_565 S
C1299 C1300 1.415 . S
C1300 H1276 0.950 . S
C1300 C1295 1.363 1_565 S
C1300 C1299 1.415 . S
C1301 H1277 0.951 . S
C1301 C1302 1.366 . S
C1301 C1303 1.388 . S
C1302 C1301 1.366 . S
C1302 C1306 1.385 . S
C1303 H1278 0.951 . S
C1303 C1301 1.388 . S
C1303 C1304 1.366 . S
C1304 C1303 1.366 . S
C1304 C1305 1.414 . S
C1304 C1307 1.499 . S
C1305 H1279 0.950 . S
C1305 C1304 1.414 . S
C1305 C1306 1.374 . S
C1306 H1280 0.950 . S
C1306 C1302 1.385 . S
C1306 C1305 1.374 . S
C1307 C1304 1.499 . S
C1307 C1308 1.373 . S
C1307 C1309 1.389 . S
C1308 H1281 0.950 . S
C1308 C1294 1.377 1_565 S
C1308 C1307 1.373 . S
C1309 C1293 1.377 1_565 S
C1309 C1307 1.389 . S
C1309 C1310 1.524 . S
C1310 C1309 1.524 . S
C1310 C1311 1.397 . S
C1310 C1315 1.363 1_565 S
C1311 H1282 0.950 . S
C1311 C1310 1.397 . S
C1311 C1312 1.334 . S
C1312 H1283 0.950 . S
C1312 C1311 1.334 . S
C1312 C1313 1.287 . S
C1313 C1312 1.287 . S
C1313 C1314 1.524 1_565 S
C1313 H1316 0.999 . S
C1314 H1284 0.950 . S
C1314 C1313 1.524 1_545 S
C1314 C1315 1.415 . S
C1315 H1285 0.950 . S
C1315 C1310 1.363 1_545 S
C1315 C1314 1.415 . S
H1316 C1313 0.999 . S
H1317 C1298 0.913 . S
H1318 C1336 0.951 . S
H1319 C1338 0.951 . S
H1320 C1340 0.950 . S
H1321 C1341 0.950 . S
H1322 C1343 0.950 . S
H1323 C1346 0.950 . S
H1324 C1347 0.950 . S
H1325 C1349 0.950 . S
H1326 C1350 0.950 . S
H1327 C1351 0.951 . S
H1328 C1353 0.951 . S
H1329 C1355 0.950 . S
H1330 C1356 0.950 . S
H1331 C1358 0.950 . S
H1332 C1361 0.950 . S
H1333 C1362 0.950 . S
H1334 C1364 0.950 . S
H1335 C1365 0.950 . S
C1336 H1318 0.951 . S
C1336 C1337 1.366 . S
C1336 C1338 1.388 . S
C1337 C1336 1.366 . S
C1337 C1341 1.385 . S
C1338 H1319 0.951 . S
C1338 C1336 1.388 . S
C1338 C1339 1.366 . S
C1339 C1338 1.366 . S
C1339 C1340 1.414 . S
C1339 C1342 1.499 . S
C1340 H1320 0.950 . S
C1340 C1339 1.414 . S
C1340 C1341 1.374 . S
C1341 H1321 0.950 . S
C1341 C1337 1.385 . S
C1341 C1340 1.374 . S
C1342 C1339 1.499 . S
C1342 C1343 1.373 . S
C1342 C1344 1.389 . S
C1343 H1322 0.950 . S
C1343 C1342 1.373 . S
C1343 C1359 1.377 . S
C1344 C1342 1.389 . S
C1344 C1345 1.524 . S
C1344 C1358 1.377 . S
C1345 C1344 1.524 . S
C1345 C1346 1.397 . S
C1345 C1350 1.363 . S
C1346 H1323 0.950 . S
C1346 C1345 1.397 . S
C1346 C1347 1.334 . S
C1347 H1324 0.950 . S
C1347 C1346 1.334 . S
C1347 C1348 1.287 . S
C1348 C1347 1.287 . S
C1348 C1349 1.524 . S
C1348 H1367 0.913 . S
C1349 H1325 0.950 . S
C1349 C1348 1.524 . S
C1349 C1350 1.415 . S
C1350 H1326 0.950 . S
C1350 C1345 1.363 . S
C1350 C1349 1.415 . S
C1351 H1327 0.951 . S
C1351 C1352 1.366 . S
C1351 C1353 1.388 . S
C1352 C1351 1.366 . S
C1352 C1356 1.385 . S
C1353 H1328 0.951 . S
C1353 C1351 1.388 . S
C1353 C1354 1.366 . S
C1354 C1353 1.366 . S
C1354 C1355 1.414 . S
C1354 C1357 1.499 . S
C1355 H1329 0.950 . S
C1355 C1354 1.414 . S
C1355 C1356 1.374 . S
C1356 H1330 0.950 . S
C1356 C1352 1.385 . S
C1356 C1355 1.374 . S
C1357 C1354 1.499 . S
C1357 C1358 1.373 . S
C1357 C1359 1.389 . S
C1358 H1331 0.950 . S
C1358 C1344 1.377 . S
C1358 C1357 1.373 . S
C1359 C1343 1.377 . S
C1359 C1357 1.389 . S
C1359 C1360 1.524 . S
C1360 C1359 1.524 . S
C1360 C1361 1.397 . S
C1360 C1365 1.363 . S
C1361 H1332 0.950 . S
C1361 C1360 1.397 . S
C1361 C1362 1.334 . S
C1362 H1333 0.950 . S
C1362 C1361 1.334 . S
C1362 C1363 1.287 . S
C1363 C1362 1.287 . S
C1363 C1364 1.524 . S
C1363 H1366 0.999 . S
C1364 H1334 0.950 . S
C1364 C1363 1.524 . S
C1364 C1365 1.415 . S
C1365 H1335 0.950 . S
C1365 C1360 1.363 . S
C1365 C1364 1.415 . S
H1366 C1363 0.999 . S
H1367 C1348 0.913 . S
C187 C12 1.141 . S
C202 C152 1.141 . S
C237 C166 1.053 . S
C252 C19 0.962 . S
C287 C40 1.053 . S
C302 C89 0.962 . S
C337 C54 1.140 . S
C352 C110 1.141 . S
C387 C61 0.962 . S
C402 C124 1.052 . S
C437 C131 0.963 . S
C452 C82 1.053 . S
C487 C4 1.562 . S
C502 C116 1.553 . S
C537 C25 1.495 . S
C552 C137 1.495 . S
C587 C144 1.562 . S
C602 C32 1.553 . S
C637 C46 1.561 . S
C652 C158 1.553 . S
C687 C67 1.495 . S
C702 C95 1.494 . S
C737 C74 1.553 . S
C752 C102 1.561 . S
C787 C151 0.677 . S
C802 C11 0.677 . S
C837 C18 0.782 . S
C852 C165 0.782 . S
C887 C39 0.782 . S
C902 C88 0.782 . S
C937 C53 0.677 . S
C952 C109 0.677 . S
C987 C123 0.783 . S
C1002 C60 0.781 . S
C1037 C81 0.783 . S
C1052 C130 0.782 . S
C1087 C5 1.271 1_556 S
C1102 C159 1.286 . S
C1137 C96 1.355 . S
C1152 C26 1.356 . S
C1187 C103 1.271 . S
C1202 C33 1.286 . S
C1237 C117 1.285 . S
C1252 C47 1.272 . S
C1287 C138 1.355 . S
C1302 C68 1.356 . S
C1337 C145 1.271 . S
C1352 C75 1.285 . S
