# Generated by pormake.
# Topology whw, (6)-cn, num edge types: 1
# Building blocks:
#     Node 0, Type 0, BuildingBlock: VOLQOD_clean_sbu_1, # of connection points: 6
#     Node 1, Type 0, BuildingBlock: VOLQOD_clean_sbu_1, # of connection points: 6
#     Node 2, Type 0, BuildingBlock: VOLQOD_clean_sbu_1, # of connection points: 6
#     Node 3, Type 0, BuildingBlock: VOLQOD_clean_sbu_1, # of connection points: 6
#     Node 4, Type 0, BuildingBlock: VOLQOD_clean_sbu_1, # of connection points: 6
#     Node 5, Type 0, BuildingBlock: VOLQOD_clean_sbu_1, # of connection points: 6
#     Node 6, Type 0, BuildingBlock: VOLQOD_clean_sbu_1, # of connection points: 6
#     Node 7, Type 0, BuildingBlock: VOLQOD_clean_sbu_1, # of connection points: 6
#     Node 8, Type 0, BuildingBlock: VOLQOD_clean_sbu_1, # of connection points: 6
#     Node 9, Type 0, BuildingBlock: VOLQOD_clean_sbu_1, # of connection points: 6
#     Node 10, Type 0, BuildingBlock: VOLQOD_clean_sbu_1, # of connection points: 6
#     Node 11, Type 0, BuildingBlock: VOLQOD_clean_sbu_1, # of connection points: 6
#     Node 12, Type 0, BuildingBlock: VOLQOD_clean_sbu_1, # of connection points: 6
#     Node 13, Type 0, BuildingBlock: VOLQOD_clean_sbu_1, # of connection points: 6
#     Node 14, Type 0, BuildingBlock: VOLQOD_clean_sbu_1, # of connection points: 6
#     Node 15, Type 0, BuildingBlock: VOLQOD_clean_sbu_1, # of connection points: 6
#     Edge 16, Type (0, 0), BuildingBlock: OJICUG_clean_linker_0, # of connection points: 2
#     Edge 17, Type (0, 0), BuildingBlock: OJICUG_clean_linker_0, # of connection points: 2
#     Edge 18, Type (0, 0), BuildingBlock: OJICUG_clean_linker_0, # of connection points: 2
#     Edge 19, Type (0, 0), BuildingBlock: OJICUG_clean_linker_0, # of connection points: 2
#     Edge 20, Type (0, 0), BuildingBlock: OJICUG_clean_linker_0, # of connection points: 2
#     Edge 21, Type (0, 0), BuildingBlock: OJICUG_clean_linker_0, # of connection points: 2
#     Edge 22, Type (0, 0), BuildingBlock: OJICUG_clean_linker_0, # of connection points: 2
#     Edge 23, Type (0, 0), BuildingBlock: OJICUG_clean_linker_0, # of connection points: 2
#     Edge 24, Type (0, 0), BuildingBlock: OJICUG_clean_linker_0, # of connection points: 2
#     Edge 25, Type (0, 0), BuildingBlock: OJICUG_clean_linker_0, # of connection points: 2
#     Edge 26, Type (0, 0), BuildingBlock: OJICUG_clean_linker_0, # of connection points: 2
#     Edge 27, Type (0, 0), BuildingBlock: OJICUG_clean_linker_0, # of connection points: 2
#     Edge 28, Type (0, 0), BuildingBlock: OJICUG_clean_linker_0, # of connection points: 2
#     Edge 29, Type (0, 0), BuildingBlock: OJICUG_clean_linker_0, # of connection points: 2
#     Edge 30, Type (0, 0), BuildingBlock: OJICUG_clean_linker_0, # of connection points: 2
#     Edge 31, Type (0, 0), BuildingBlock: OJICUG_clean_linker_0, # of connection points: 2
#     Edge 32, Type (0, 0), BuildingBlock: OJICUG_clean_linker_0, # of connection points: 2
#     Edge 33, Type (0, 0), BuildingBlock: OJICUG_clean_linker_0, # of connection points: 2
#     Edge 34, Type (0, 0), BuildingBlock: OJICUG_clean_linker_0, # of connection points: 2
#     Edge 35, Type (0, 0), BuildingBlock: OJICUG_clean_linker_0, # of connection points: 2
#     Edge 36, Type (0, 0), BuildingBlock: OJICUG_clean_linker_0, # of connection points: 2
#     Edge 37, Type (0, 0), BuildingBlock: OJICUG_clean_linker_0, # of connection points: 2
#     Edge 38, Type (0, 0), BuildingBlock: OJICUG_clean_linker_0, # of connection points: 2
#     Edge 39, Type (0, 0), BuildingBlock: OJICUG_clean_linker_0, # of connection points: 2
#     Edge 40, Type (0, 0), BuildingBlock: OJICUG_clean_linker_0, # of connection points: 2
#     Edge 41, Type (0, 0), BuildingBlock: OJICUG_clean_linker_0, # of connection points: 2
#     Edge 42, Type (0, 0), BuildingBlock: OJICUG_clean_linker_0, # of connection points: 2
#     Edge 43, Type (0, 0), BuildingBlock: OJICUG_clean_linker_0, # of connection points: 2
#     Edge 44, Type (0, 0), BuildingBlock: OJICUG_clean_linker_0, # of connection points: 2
#     Edge 45, Type (0, 0), BuildingBlock: OJICUG_clean_linker_0, # of connection points: 2
#     Edge 46, Type (0, 0), BuildingBlock: OJICUG_clean_linker_0, # of connection points: 2
#     Edge 47, Type (0, 0), BuildingBlock: OJICUG_clean_linker_0, # of connection points: 2
#     Edge 48, Type (0, 0), BuildingBlock: OJICUG_clean_linker_0, # of connection points: 2
#     Edge 49, Type (0, 0), BuildingBlock: OJICUG_clean_linker_0, # of connection points: 2
#     Edge 50, Type (0, 0), BuildingBlock: OJICUG_clean_linker_0, # of connection points: 2
#     Edge 51, Type (0, 0), BuildingBlock: OJICUG_clean_linker_0, # of connection points: 2
#     Edge 52, Type (0, 0), BuildingBlock: OJICUG_clean_linker_0, # of connection points: 2
#     Edge 53, Type (0, 0), BuildingBlock: OJICUG_clean_linker_0, # of connection points: 2
#     Edge 54, Type (0, 0), BuildingBlock: OJICUG_clean_linker_0, # of connection points: 2
#     Edge 55, Type (0, 0), BuildingBlock: OJICUG_clean_linker_0, # of connection points: 2
#     Edge 56, Type (0, 0), BuildingBlock: OJICUG_clean_linker_0, # of connection points: 2
#     Edge 57, Type (0, 0), BuildingBlock: OJICUG_clean_linker_0, # of connection points: 2
#     Edge 58, Type (0, 0), BuildingBlock: OJICUG_clean_linker_0, # of connection points: 2
#     Edge 59, Type (0, 0), BuildingBlock: OJICUG_clean_linker_0, # of connection points: 2
#     Edge 60, Type (0, 0), BuildingBlock: OJICUG_clean_linker_0, # of connection points: 2
#     Edge 61, Type (0, 0), BuildingBlock: OJICUG_clean_linker_0, # of connection points: 2
#     Edge 62, Type (0, 0), BuildingBlock: OJICUG_clean_linker_0, # of connection points: 2
#     Edge 63, Type (0, 0), BuildingBlock: OJICUG_clean_linker_0, # of connection points: 2
# Relax obj value: 0.800
# Max RMSD: 0.286
# Mean RMSD: 0.286
data_MOF--net-whw--node1-VOLQOD_clean_sbu_1--edge1-OJICUG_clean_linker_0
_symmetry_space_group_name_H-M    P1
_symmetry_Int_Tables_number       1
_symmetry_cell_setting            triclinic
loop_
_symmetry_equiv_pos_as_xyz
'x, y, z'
_cell_length_a     42.62073
_cell_length_b     42.803147
_cell_length_c     18.085379
_cell_angle_alpha  90.007825
_cell_angle_beta   89.931176
_cell_angle_gamma 89.982743
loop_
_atom_site_label
_atom_site_type_symbol
_atom_site_fract_x
_atom_site_fract_y
_atom_site_fract_z
_atom_type_partial_charge
O0 O 0.93632 0.0944 0.193 0.0
Zn1 Zn 0.96576 0.12341 0.14259 0.0
O2 O 0.00836 0.10963 0.14613 0.0
Zn3 Zn 0.03582 0.14216 0.17353 0.0
Zn4 Zn 0.00737 0.07588 0.21592 0.0
Zn5 Zn 0.02201 0.09876 0.05069 0.0
O6 O 0.06172 0.15855 0.08697 0.0
O7 O 0.06598 0.11258 0.03154 0.0
O8 O 0.96247 0.16049 0.2059 0.0
O9 O 0.01157 0.17375 0.23258 0.0
O10 O 0.06657 0.1238 0.23994 0.0
O11 O 0.04963 0.07695 0.27578 0.0
O12 O -0.00145 0.03739 0.14949 0.0
O13 O 0.95249 0.13282 0.03973 0.0
O14 O 0.01585 0.05364 0.03915 0.0
O15 O -0.00546 0.11934 0.97425 0.0
C16 C 0.94157 0.09282 0.26203 0.0
C17 C 0.07562 0.14044 0.04124 0.0
C18 C 0.07034 0.0988 0.27651 0.0
C19 C 0.98204 0.17699 0.24145 0.0
C20 C 0.00386 0.03271 0.08034 0.0
C21 C 0.96698 0.1307 0.97831 0.0
O22 O 0.9695 0.08666 0.28387 0.0
O23 O 0.09175 0.71849 0.43582 0.0
Zn24 Zn 0.09563 0.74209 0.34175 0.0
O25 O 0.11683 0.78027 0.35238 0.0
Zn26 Zn 0.09065 0.81654 0.35111 0.0
Zn27 Zn 0.14213 0.77887 0.43992 0.0
Zn28 Zn 0.13727 0.78642 0.25886 0.0
O29 O 0.10464 0.85063 0.28206 0.0
O30 O 0.11087 0.81547 0.19554 0.0
O31 O 0.05539 0.7522 0.29631 0.0
O32 O 0.05008 0.80368 0.30961 0.0
O33 O 0.0847 0.83249 0.45151 0.0
O34 O 0.12464 0.81285 0.51575 0.0
O35 O 0.18692 0.77904 0.39138 0.0
O36 O 0.11718 0.7136 0.27261 0.0
O37 O 0.17689 0.80607 0.28889 0.0
O38 O 0.14496 0.7454 0.20194 0.0
C39 C 0.1116 0.71681 0.48812 0.0
C40 C 0.10199 0.8427 0.21475 0.0
C41 C 0.09989 0.8301 0.51164 0.0
C42 C 0.04038 0.77749 0.28594 0.0
C43 C 0.19596 0.79104 0.32952 0.0
C44 C 0.13525 0.71798 0.21785 0.0
O45 O 0.134 0.73668 0.49333 0.0
O46 O 0.57436 0.88488 0.70674 0.0
Zn47 Zn 0.5454 0.8545 0.66012 0.0
O48 O 0.50275 0.86824 0.664 0.0
Zn49 Zn 0.47556 0.83564 0.69287 0.0
Zn50 Zn 0.50322 0.90322 0.73119 0.0
Zn51 Zn 0.48851 0.87736 0.56853 0.0
O52 O 0.45042 0.81739 0.60696 0.0
O53 O 0.44484 0.86293 0.55085 0.0
O54 O 0.54926 0.81795 0.72554 0.0
O55 O 0.50013 0.80497 0.75286 0.0
O56 O 0.44445 0.85425 0.75834 0.0
O57 O 0.46123 0.90138 0.79273 0.0
O58 O 0.50935 0.94194 0.66207 0.0
O59 O 0.55847 0.8442 0.55732 0.0
O60 O 0.49263 0.92208 0.55476 0.0
O61 O 0.51616 0.85705 0.4924 0.0
C62 C 0.56958 0.88716 0.77583 0.0
C63 C 0.43607 0.83486 0.56074 0.0
C64 C 0.44064 0.87941 0.79432 0.0
C65 C 0.52964 0.80168 0.76172 0.0
C66 C 0.50282 0.9448 0.59293 0.0
C67 C 0.54381 0.84591 0.49616 0.0
O68 O 0.54185 0.89388 0.79839 0.0
O69 O 0.36163 0.28714 0.94704 0.0
Zn70 Zn 0.3947 0.26152 0.8988 0.0
O71 O 0.38626 0.21769 0.90199 0.0
Zn72 Zn 0.42212 0.1947 0.93094 0.0
Zn73 Zn 0.35149 0.21432 0.96953 0.0
Zn74 Zn 0.37855 0.20253 0.80627 0.0
O75 O 0.44294 0.17093 0.8459 0.0
O76 O 0.39835 0.16114 0.78789 0.0
O77 O 0.43071 0.26947 0.96378 0.0
O78 O 0.44997 0.22264 0.99118 0.0
O79 O 0.4071 0.16231 0.99735 0.0
O80 O 0.35808 0.17335 0.03149 0.0
O81 O 0.31232 0.21601 0.9004 0.0
O82 O 0.40285 0.27574 0.79619 0.0
O83 O 0.3333 0.20109 0.79258 0.0
O84 O 0.39511 0.23259 0.73024 0.0
C85 C 0.35965 0.28176 0.01593 0.0
C86 C 0.42714 0.15497 0.79926 0.0
C87 C 0.38248 0.15569 0.03352 0.0
C88 C 0.44935 0.2522 1.00013 0.0
C89 C 0.30977 0.20904 0.83141 0.0
C90 C 0.40266 0.2613 0.73466 0.0
O91 O 0.3563 0.25342 0.03745 0.0
O92 O 0.92376 0.81636 0.78086 0.0
Zn93 Zn 0.93809 0.82323 0.88389 0.0
O94 O 0.9553 0.86298 0.89167 0.0
Zn95 Zn -0.00041 0.86368 0.91186 0.0
Zn96 Zn 0.9526 0.88582 0.80139 0.0
Zn97 Zn 0.93716 0.88103 0.97998 0.0
O98 O 0.01022 0.89933 0.97849 0.0
O99 O 0.97286 0.88527 0.05519 0.0
O100 O 0.96925 0.79486 0.92827 0.0
O101 O 0.00796 0.82578 0.96815 0.0
O102 O 0.02701 0.86176 0.82169 0.0
O103 O 0.99322 0.87945 0.73903 0.0
O104 O 0.95155 0.9302 0.84631 0.0
O105 O 0.90028 0.81578 0.94707 0.0
O106 O 0.92137 0.92174 0.94453 0.0
O107 O 0.90163 0.85493 0.02639 0.0
C108 C 0.91175 0.83571 0.73515 0.0
C109 C 0.00093 0.89473 0.04431 0.0
C110 C 0.02052 0.86904 0.75537 0.0
C111 C 0.99357 0.7999 0.96759 0.0
C112 C 0.93933 0.93957 0.90747 0.0
C113 C 0.8895 0.82934 1.00411 0.0
O114 O 0.91679 0.8653 0.74001 0.0
O115 O 0.40872 0.70918 0.00895 0.0
Zn116 Zn 0.41278 0.7411 0.08682 0.0
O117 O 0.37531 0.75633 0.12169 0.0
Zn118 Zn 0.38815 0.79783 0.15464 0.0
Zn119 Zn 0.34831 0.75624 0.03928 0.0
Zn120 Zn 0.36412 0.73292 0.20544 0.0
O121 O 0.37379 0.80781 0.25727 0.0
O122 O 0.37014 0.75899 0.29742 0.0
O123 O 0.4306 0.7803 0.04765 0.0
O124 O 0.43551 0.79663 0.15962 0.0
O125 O 0.37737 0.82928 0.07789 0.0
O126 O 0.35648 0.79939 0.98954 0.0
O127 O 0.30664 0.75388 0.09751 0.0
O128 O 0.4347 0.7234 0.17591 0.0
O129 O 0.31846 0.72435 0.1962 0.0
O130 O 0.39402 0.69716 0.22105 0.0
C131 C 0.38694 0.7035 0.96315 0.0
C132 C 0.37198 0.78818 0.3101 0.0
C133 C 0.36759 0.82571 0.01187 0.0
C134 C 0.44851 0.78768 0.10011 0.0
C135 C 0.29891 0.74054 0.15878 0.0
C136 C 0.42331 0.70334 0.2205 0.0
O137 O 0.36119 0.71932 0.96493 0.0
O138 O 0.56193 0.15265 0.25678 0.0
Zn139 Zn 0.52941 0.1533 0.33339 0.0
O140 O 0.51677 0.11444 0.36606 0.0
Zn141 Zn 0.47385 0.1232 0.39673 0.0
Zn142 Zn 0.5203 0.08815 0.28143 0.0
Zn143 Zn 0.54017 0.10338 0.45062 0.0
O144 O 0.4641 0.10665 0.49722 0.0
O145 O 0.51208 0.09779 0.53986 0.0
O146 O 0.48915 0.16788 0.29266 0.0
O147 O 0.47059 0.17023 0.40342 0.0
O148 O 0.44435 0.10921 0.31887 0.0
O149 O 0.4761 0.08967 0.23215 0.0
O150 O 0.52841 0.04715 0.33737 0.0
O151 O 0.54443 0.17723 0.42223 0.0
O152 O 0.5612 0.06359 0.42487 0.0
O153 O 0.56788 0.13845 0.48243 0.0
C154 C 0.56914 0.13241 0.20851 0.0
C155 C 0.48257 0.0997 0.55002 0.0
C156 C 0.44868 0.0981 0.25434 0.0
C157 C 0.47939 0.18444 0.3454 0.0
C158 C 0.54476 0.04197 0.39586 0.0
C159 C 0.56137 0.16736 0.47524 0.0
O160 O 0.55528 0.10567 0.20738 0.0
O161 O 0.09875 0.27142 0.4958 0.0
Zn162 Zn 0.0936 0.23966 0.57291 0.0
O163 O 0.13081 0.22301 0.60765 0.0
Zn164 Zn 0.11717 0.1815 0.63794 0.0
Zn165 Zn 0.15878 0.22346 0.52577 0.0
Zn166 Zn 0.14305 0.24509 0.69272 0.0
O167 O 0.13187 0.16988 0.73877 0.0
O168 O 0.14335 0.21691 0.7825 0.0
O169 O 0.07496 0.20113 0.53229 0.0
O170 O 0.06982 0.18341 0.64311 0.0
O171 O 0.12813 0.15083 0.56027 0.0
O172 O 0.15214 0.18009 0.47519 0.0
O173 O 0.20028 0.22743 0.5848 0.0
O174 O 0.07065 0.25758 0.66077 0.0
O175 O 0.18571 0.26086 0.6732 0.0
O176 O 0.11157 0.27731 0.72057 0.0
C177 C 0.12053 0.27644 0.44954 0.0
C178 C 0.139 0.18776 0.79241 0.0
C179 C 0.13999 0.15401 0.49609 0.0
C180 C 0.05696 0.19357 0.58457 0.0
C181 C 0.20648 0.24369 0.64293 0.0
C182 C 0.08208 0.27373 0.71333 0.0
O183 O 0.14589 0.26003 0.45088 0.0
O184 O 0.90068 0.18535 0.50829 0.0
Zn185 Zn 0.90547 0.21792 0.58259 0.0
O186 O 0.86845 0.2387 0.60114 0.0
Zn187 Zn 0.88457 0.2786 0.62858 0.0
Zn188 Zn 0.84481 0.23818 0.51056 0.0
Zn189 Zn 0.84851 0.22126 0.68456 0.0
O190 O 0.86324 0.29615 0.71611 0.0
O191 O 0.84102 0.25405 0.76489 0.0
O192 O 0.93271 0.25117 0.54446 0.0
O193 O 0.93038 0.27329 0.65277 0.0
O194 O 0.88251 0.30655 0.54223 0.0
O195 O 0.85803 0.2792 0.45445 0.0
O196 O 0.80053 0.24031 0.55787 0.0
O197 O 0.92148 0.19761 0.67551 0.0
O198 O 0.80926 0.20439 0.64332 0.0
O199 O 0.87571 0.18894 0.7308 0.0
C200 C 0.88077 0.17935 0.45832 0.0
C201 C 0.84821 0.28297 0.76825 0.0
C202 C 0.87283 0.30378 0.47608 0.0
C203 C 0.94653 0.26429 0.59778 0.0
C204 C 0.79129 0.22469 0.61459 0.0
C205 C 0.90527 0.18498 0.72675 0.0
O206 O 0.85678 0.19722 0.44881 0.0
O207 O 0.60947 0.79462 0.02256 0.0
Zn208 Zn 0.60323 0.7617 0.09523 0.0
O209 O 0.63911 0.73904 0.11261 0.0
Zn210 Zn 0.62095 0.70008 0.13931 0.0
Zn211 Zn 0.66252 0.73875 0.02082 0.0
Zn212 Zn 0.66011 0.75546 0.19619 0.0
O213 O 0.64128 0.6817 0.22676 0.0
O214 O 0.66713 0.72179 0.27513 0.0
O215 O 0.57431 0.73041 0.05534 0.0
O216 O 0.57534 0.70738 0.16275 0.0
O217 O 0.62222 0.67201 0.05318 0.0
O218 O 0.64773 0.69816 0.96489 0.0
O219 O 0.70686 0.73443 0.06706 0.0
O220 O 0.588 0.78147 0.18928 0.0
O221 O 0.69866 0.77143 0.14916 0.0
O222 O 0.63401 0.78823 0.24473 0.0
C223 C 0.62907 0.79954 0.97118 0.0
C224 C 0.65782 0.69344 0.27815 0.0
C225 C 0.63209 0.67417 0.98701 0.0
C226 C 0.5598 0.71743 0.10789 0.0
C227 C 0.71562 0.74924 0.12532 0.0
C228 C 0.60456 0.793 0.24123 0.0
O229 O 0.65183 0.78029 0.95974 0.0
O230 O 0.60295 0.21456 0.93618 0.0
Zn231 Zn 0.58854 0.25395 0.88754 0.0
O232 O 0.61962 0.28525 0.8816 0.0
Zn233 Zn 0.60357 0.3245 0.91545 0.0
Zn234 Zn 0.65422 0.27378 0.94691 0.0
Zn235 Zn 0.62981 0.29594 0.78273 0.0
O236 O 0.58289 0.35055 0.83708 0.0
O237 O 0.61805 0.33968 0.75113 0.0
O238 O 0.55768 0.26958 0.96094 0.0
O239 O 0.574 0.31648 0.99867 0.0
O240 O 0.64103 0.34635 0.95137 0.0
O241 O 0.65437 0.30906 0.02723 0.0
O242 O 0.69279 0.26872 0.87632 0.0
O243 O 0.57305 0.24178 0.78642 0.0
O244 O 0.67453 0.28776 0.76934 0.0
O245 O 0.60708 0.26712 0.71466 0.0
C246 C 0.62282 0.21055 0.9876 0.0
C247 C 0.59544 0.35636 0.77484 0.0
C248 C 0.64662 0.33767 0.0168 0.0
C249 C 0.55695 0.29238 0.00651 0.0
C250 C 0.69646 0.27584 0.80764 0.0
C251 C 0.58472 0.24775 0.72295 0.0
O252 O 0.64323 0.23177 1.00179 0.0
O253 O 0.85946 0.77457 0.43451 0.0
Zn254 Zn 0.85773 0.74902 0.34217 0.0
O255 O 0.85902 0.70476 0.36103 0.0
Zn256 Zn 0.89948 0.68848 0.36729 0.0
Zn257 Zn 0.83721 0.69943 0.4534 0.0
Zn258 Zn 0.8401 0.68633 0.27458 0.0
O259 O 0.90651 0.65082 0.30508 0.0
O260 O 0.86773 0.65406 0.22463 0.0
O261 O 0.89532 0.7591 0.2855 0.0
O262 O 0.92674 0.72005 0.32071 0.0
O263 O 0.90929 0.67528 0.47006 0.0
O264 O 0.86146 0.666 0.51631 0.0
O265 O 0.79148 0.69613 0.41309 0.0
O266 O 0.82277 0.76102 0.27585 0.0
O267 O 0.80427 0.66476 0.32191 0.0
O268 O 0.83181 0.72191 0.19972 0.0
C269 C 0.85297 0.76674 0.50052 0.0
C270 C 0.8931 0.64142 0.24656 0.0
C271 C 0.89157 0.66326 0.5193 0.0
C272 C 0.92142 0.745 0.28421 0.0
C273 C 0.78435 0.68271 0.3518 0.0
C274 C 0.82495 0.75069 0.21015 0.0
O275 O 0.84304 0.73924 0.51512 0.0
O276 O 0.46376 0.65699 0.69121 0.0
Zn277 Zn 0.50441 0.66294 0.63645 0.0
O278 O 0.52908 0.62599 0.63305 0.0
Zn279 Zn 0.57123 0.63427 0.66587 0.0
Zn280 Zn 0.51154 0.5941 0.699 0.0
Zn281 Zn 0.5364 0.61351 0.53455 0.0
O282 O 0.60122 0.6487 0.58735 0.0
O283 O 0.58018 0.62166 0.49594 0.0
O284 O 0.52689 0.6915 0.70527 0.0
O285 O 0.56922 0.6659 0.74561 0.0
O286 O 0.58576 0.59439 0.70707 0.0
O287 O 0.54566 0.5895 0.78124 0.0
O288 O 0.50255 0.55492 0.63147 0.0
O289 O 0.49394 0.67886 0.53292 0.0
O290 O 0.52554 0.56974 0.52596 0.0
O291 O 0.50715 0.63636 0.46896 0.0
C292 C 0.45526 0.63745 0.74033 0.0
C293 C 0.6024 0.63828 0.52169 0.0
C294 C 0.57542 0.59175 0.77232 0.0
C295 C 0.54947 0.68793 0.75097 0.0
C296 C 0.51104 0.54952 0.56424 0.0
C297 C 0.49374 0.66281 0.47331 0.0
O298 O 0.47138 0.61253 0.75178 0.0
O299 O 0.04291 0.32016 0.17702 0.0
Zn300 Zn 0.00148 0.31278 0.12762 0.0
O301 O 0.97582 0.34872 0.12105 0.0
Zn302 Zn 0.93414 0.34001 0.15535 0.0
Zn303 Zn 0.99323 0.38083 0.18558 0.0
Zn304 Zn 0.96704 0.36035 0.02177 0.0
O305 O 0.90474 0.32448 0.07706 0.0
O306 O 0.9215 0.3571 0.99113 0.0
O307 O 0.98043 0.28538 0.20092 0.0
O308 O 0.93675 0.3095 0.23815 0.0
O309 O 0.91907 0.38045 0.19223 0.0
O310 O 0.9587 0.38732 0.26658 0.0
O311 O 0.00476 0.41738 0.1143 0.0
O312 O 0.01072 0.29514 0.02649 0.0
O313 O 0.98409 0.40232 1.00617 0.0
O314 O 0.99063 0.33218 0.95419 0.0
C315 C 0.05043 0.33949 0.2273 0.0
C316 C 0.90108 0.33784 0.01495 0.0
C317 C 0.92902 0.38447 0.25732 0.0
C318 C 0.95761 0.28861 0.24614 0.0
C319 C -0.00056 0.42178 0.04498 0.0
C320 C 0.00611 0.30706 0.9627 0.0
O321 O 0.03302 0.36334 0.24035 0.0
O322 O 0.44589 0.33515 0.26389 0.0
Zn323 Zn 0.47858 0.3361 0.33945 0.0
O324 O 0.49255 0.37605 0.35875 0.0
Zn325 Zn 0.53485 0.3673 0.3868 0.0
Zn326 Zn 0.48828 0.39917 0.26853 0.0
Zn327 Zn 0.47198 0.39247 0.44269 0.0
O328 O 0.54887 0.39119 0.4741 0.0
O329 O 0.50306 0.40302 0.52502 0.0
O330 O 0.51645 0.31471 0.30352 0.0
O331 O 0.53751 0.32163 0.41202 0.0
O332 O 0.5623 0.37353 0.30064 0.0
O333 O 0.53111 0.39249 0.21236 0.0
O334 O 0.48351 0.4429 0.31681 0.0
O335 O 0.46069 0.3172 0.43197 0.0
O336 O 0.45004 0.42992 0.40559 0.0
O337 O 0.44344 0.36063 0.48586 0.0
C338 C 0.43641 0.35397 0.21466 0.0
C339 C 0.53295 0.40175 0.52807 0.0
C340 C 0.55791 0.3821 0.23417 0.0
C341 C 0.53175 0.30388 0.35754 0.0
C342 C 0.46719 0.45027 0.3742 0.0
C343 C 0.44486 0.33095 0.48221 0.0
O344 O 0.4497 0.38079 0.20652 0.0
O345 O 0.08185 0.65004 0.78543 0.0
Zn346 Zn 0.07012 0.64065 0.88741 0.0
O347 O 0.03684 0.61123 0.88821 0.0
Zn348 Zn -0.00325 0.62882 0.90306 0.0
Zn349 Zn 0.0347 0.58762 0.79874 0.0
Zn350 Zn 0.04459 0.59228 0.98204 0.0
O351 O 0.96944 0.60282 0.96676 0.0
O352 O 0.00618 0.59375 0.04956 0.0
O353 O 0.05524 0.67734 0.94256 0.0
O354 O 0.00457 0.6671 0.95989 0.0
O355 O 0.97298 0.63612 0.80965 0.0
O356 O 0.99228 0.59652 0.74461 0.0
O357 O 0.0385 0.54174 0.83926 0.0
O358 O 0.10873 0.62902 0.94302 0.0
O359 O 0.05236 0.54876 0.95814 0.0
O360 O 0.08071 0.61259 0.03726 0.0
C361 C 0.08133 0.63364 0.72686 0.0
C362 C 0.97728 0.59546 0.03212 0.0
C363 C 0.97212 0.61852 0.75299 0.0
C364 C 0.02896 0.68339 0.97255 0.0
C365 C 0.0465 0.53103 0.90336 0.0
C366 C 0.10572 0.62496 0.01214 0.0
O367 O 0.06744 0.60694 0.72463 0.0
C368 C 0.115 0.13202 0.94087 0.0
C369 C 0.10009 0.15254 0.99055 0.0
H370 H 0.14018 0.12726 0.8392 0.0
C371 C 0.10564 0.18477 0.98388 0.0
H372 H 0.11192 0.10698 0.94548 0.0
C373 C 0.12241 0.19639 0.92324 0.0
C374 C 0.13351 0.17593 0.8681 0.0
H375 H 0.09493 0.20118 0.0219 0.0
H376 H 0.12377 0.22146 0.91589 0.0
C377 C 0.13148 0.14361 0.88013 0.0
C378 C 0.05047 0.83958 0.15336 0.0
C379 C 0.07682 0.8576 0.17126 0.0
H380 H 0.00446 0.8383 0.10795 0.0
C381 C 0.07707 0.88949 0.15268 0.0
H382 H 0.04987 0.81489 0.16551 0.0
C383 C 0.05178 0.90254 0.11322 0.0
C384 C 0.02515 0.88434 0.09708 0.0
H385 H 0.0971 0.90392 0.16652 0.0
H386 H 0.05308 0.92659 0.09487 0.0
C387 C 0.02446 0.85305 0.11993 0.0
C388 C 0.39329 0.7782 0.43672 0.0
C389 C 0.37959 0.79897 0.38566 0.0
H390 H 0.42214 0.7733 0.53304 0.0
C391 C 0.3793 0.83101 0.4019 0.0
H392 H 0.39387 0.7533 0.4259 0.0
C393 C 0.39543 0.84238 0.46328 0.0
C394 C 0.41235 0.82197 0.50943 0.0
H395 H 0.36861 0.84754 0.36425 0.0
H396 H 0.39645 0.86745 0.47144 0.0
C397 C 0.40963 0.78963 0.49812 0.0
C398 C 0.47541 0.13134 0.74203 0.0
C399 C 0.4426 0.13232 0.74907 0.0
H400 H 0.51428 0.1188 0.67319 0.0
C401 C 0.42421 0.11475 0.69961 0.0
H402 H 0.49026 0.14424 0.77979 0.0
C403 C 0.43791 0.10026 0.63852 0.0
C404 C 0.47029 0.10282 0.62607 0.0
H405 H 0.39887 0.11429 0.7045 0.0
H406 H 0.42281 0.08955 0.59756 0.0
C407 C 0.48919 0.11651 0.68108 0.0
C408 C 0.8395 0.80489 0.16838 0.0
C409 C 0.8325 0.77355 0.15038 0.0
H410 H 0.86311 0.84712 0.13682 0.0
C411 C 0.83943 0.76308 0.07857 0.0
H412 H 0.83447 0.81397 0.22302 0.0
C413 C 0.85574 0.78227 0.02892 0.0
C414 C 0.86579 0.8124 0.04988 0.0
H415 H 0.83427 0.73926 0.06241 0.0
H416 H 0.8623 0.77258 0.97578 0.0
C417 C 0.85613 0.82399 0.11894 0.0
C418 C 0.95352 0.16234 0.78552 0.0
C419 C 0.92103 0.16801 0.78718 0.0
H420 H 0.99373 0.14586 0.84504 0.0
C421 C 0.90375 0.15937 0.85013 0.0
H422 H 0.96738 0.16855 0.73761 0.0
C423 C 0.91872 0.1467 0.91141 0.0
C424 C 0.95131 0.14206 0.91097 0.0
H425 H 0.87865 0.1633 0.85332 0.0
H426 H 0.90476 0.14096 0.95955 0.0
C427 C 0.96853 0.14932 0.84693 0.0
C428 C 0.57804 0.24012 0.5868 0.0
C429 C 0.57588 0.22836 0.65925 0.0
H430 H 0.5749 0.22982 0.47076 0.0
C431 C 0.56913 0.19665 0.6702 0.0
H432 H 0.58341 0.26452 0.57713 0.0
C433 C 0.5656 0.17677 0.60987 0.0
C434 C 0.56795 0.18838 0.53745 0.0
H435 H 0.56775 0.18691 0.72542 0.0
H436 H 0.56052 0.15234 0.61999 0.0
C437 C 0.57353 0.22033 0.5262 0.0
C438 C 0.54198 0.82817 0.36425 0.0
C439 C 0.55933 0.83456 0.42853 0.0
H440 H 0.54274 0.81006 0.2539 0.0
C441 C 0.59184 0.82937 0.4285 0.0
H442 H 0.51685 0.83204 0.36268 0.0
C443 C 0.6066 0.81713 0.36632 0.0
C444 C 0.58917 0.80951 0.30295 0.0
H445 H 0.6059 0.83441 0.47686 0.0
H446 H 0.63163 0.81278 0.36901 0.0
C447 C 0.55676 0.8156 0.30199 0.0
C448 C 0.65489 0.6929 0.41582 0.0
C449 C 0.65779 0.67627 0.34908 0.0
H450 H 0.63471 0.69351 0.52447 0.0
C451 C 0.65016 0.6443 0.3483 0.0
H452 H 0.66068 0.71752 0.41836 0.0
C453 C 0.63462 0.63083 0.40822 0.0
C454 C 0.62729 0.64887 0.47064 0.0
H455 H 0.65266 0.63071 0.29807 0.0
H456 H 0.62598 0.60713 0.40308 0.0
C457 C 0.63971 0.67921 0.47647 0.0
C458 C 0.54827 0.38472 0.72709 0.0
C459 C 0.5807 0.37885 0.7235 0.0
H460 H 0.50714 0.39782 0.66674 0.0
C461 C 0.59775 0.38997 0.66253 0.0
H462 H 0.53456 0.37676 0.77391 0.0
C463 C 0.58214 0.40256 0.6017 0.0
C464 C 0.54916 0.40361 0.60027 0.0
H465 H 0.62289 0.38645 0.65907 0.0
H466 H 0.59569 0.40807 0.55269 0.0
C467 C 0.53255 0.39703 0.66571 0.0
C468 C 0.86856 0.34539 0.902 0.0
C469 C 0.8764 0.32707 0.9636 0.0
H470 H 0.85123 0.34577 0.79133 0.0
C471 C 0.86511 0.29624 0.96761 0.0
H472 H 0.87626 0.36946 0.89821 0.0
C473 C 0.85079 0.28253 0.90597 0.0
C474 C 0.84766 0.29958 0.83994 0.0
H475 H 0.87041 0.28166 0.01494 0.0
H476 H 0.8459 0.2577 0.90732 0.0
C477 C 0.854 0.33183 0.84091 0.0
C478 C 0.94058 0.60917 0.21821 0.0
C479 C 0.9107 0.62005 0.19715 0.0
H480 H 0.98525 0.59217 0.18218 0.0
C481 C 0.90068 0.61515 0.12416 0.0
H482 H 0.94885 0.61198 0.27438 0.0
C483 C 0.92156 0.60353 0.07126 0.0
C484 C 0.95286 0.59677 0.09041 0.0
H485 H 0.87765 0.62277 0.10628 0.0
H486 H 0.91391 0.60251 0.01426 0.0
C487 C 0.96149 0.59767 0.16526 0.0
C488 C 0.43068 0.27983 0.54107 0.0
C489 C 0.43085 0.31266 0.54279 0.0
H490 H 0.42145 0.23759 0.60091 0.0
C491 C 0.4199 0.32817 0.60622 0.0
H492 H 0.43881 0.26728 0.49276 0.0
C493 C 0.41036 0.31133 0.66789 0.0
C494 C 0.41118 0.27858 0.66732 0.0
H495 H 0.41967 0.35345 0.60949 0.0
H496 H 0.40268 0.32406 0.7164 0.0
C497 C 0.42074 0.26289 0.60286 0.0
C498 C 0.47651 0.70497 0.38664 0.0
C499 C 0.47607 0.67357 0.4084 0.0
H500 H 0.46062 0.73874 0.30763 0.0
C501 C 0.45889 0.65176 0.36661 0.0
H502 H 0.48967 0.72211 0.41793 0.0
C503 C 0.44185 0.6613 0.30478 0.0
C504 C 0.44269 0.69255 0.28235 0.0
H505 H 0.45812 0.62739 0.38272 0.0
H506 H 0.42813 0.6443 0.2744 0.0
C507 C 0.46027 0.71432 0.32329 0.0
C508 C 0.14448 0.69642 0.09049 0.0
C509 C 0.13955 0.69134 0.16632 0.0
H510 H 0.13829 0.67854 0.98096 0.0
C511 C 0.13164 0.66103 0.19032 0.0
H512 H 0.15069 0.71942 0.0702 0.0
C513 C 0.12421 0.63769 0.13933 0.0
C514 C 0.12497 0.64404 0.06329 0.0
H515 H 0.12824 0.65614 0.24856 0.0
H516 H 0.1151 0.61565 0.15953 0.0
C517 C 0.13737 0.67286 0.03929 0.0
C518 C 0.03095 0.2924 0.76529 0.0
C519 C 0.06186 0.28214 0.77592 0.0
H520 H 0.98865 0.30847 0.8173 0.0
C521 C 0.07302 0.2773 0.84804 0.0
H522 H 0.02178 0.29578 0.71003 0.0
C523 C 0.05389 0.28325 0.90881 0.0
C524 C 0.02349 0.29495 0.89861 0.0
H525 H 0.09656 0.26864 0.85754 0.0
H526 H 0.06345 0.28008 0.96379 0.0
C527 C 0.01202 0.29928 0.82639 0.0
C528 C 0.93007 0.24304 0.28866 0.0
C529 C 0.954 0.26456 0.30235 0.0
H530 H 0.92112 0.19637 0.25414 0.0
C531 C 0.98217 0.25392 0.33368 0.0
H532 H 0.90741 0.25087 0.26875 0.0
C533 C 0.99072 0.22288 0.32305 0.0
C534 C 0.96991 0.20292 0.28609 0.0
H535 H 0.00029 0.27045 0.34907 0.0
H536 H 0.01476 0.216 0.33369 0.0
C537 C 0.93826 0.21186 0.27871 0.0
C538 C 0.95545 0.79008 0.2644 0.0
C539 C 0.94758 0.75925 0.24662 0.0
H540 H 0.99328 0.82064 0.29118 0.0
C541 C 0.96976 0.73935 0.21466 0.0
H542 H 0.93816 0.80589 0.28756 0.0
C543 C 0.00106 0.74761 0.2169 0.0
C544 C 0.00968 0.77556 0.25163 0.0
H545 H 0.96352 0.71578 0.19835 0.0
H546 H 0.01845 0.73042 0.20077 0.0
C547 C 0.98693 0.79834 0.26711 0.0
C548 C 0.57868 0.73281 0.79395 0.0
C549 C 0.5538 0.7122 0.80612 0.0
H550 H 0.58998 0.78009 0.76939 0.0
C551 C 0.52641 0.72311 0.84051 0.0
H552 H 0.60055 0.72453 0.77036 0.0
C553 C 0.51991 0.75489 0.83873 0.0
C554 C 0.54138 0.77499 0.80426 0.0
H555 H 0.50748 0.7071 0.85352 0.0
H556 H 0.49641 0.76265 0.85252 0.0
C557 C 0.57235 0.76469 0.79241 0.0
C558 C 0.52588 0.26218 0.09222 0.0
C559 C 0.53234 0.29176 0.06238 0.0
H560 H 0.49286 0.22466 0.09087 0.0
C561 C 0.50749 0.3124 0.05009 0.0
H562 H 0.54494 0.24655 0.10663 0.0
C563 C 0.47764 0.29997 0.04004 0.0
C564 C 0.47332 0.26744 0.04571 0.0
H565 H 0.51196 0.33604 0.03132 0.0
H566 H 0.4597 0.31489 0.01663 0.0
C567 C 0.49622 0.24944 0.08148 0.0
C568 C 0.03846 0.76724 1.00219 0.0
C569 C 0.00645 0.77395 0.00852 0.0
H570 H 0.07177 0.73064 0.98758 0.0
C571 C 0.98563 0.75142 0.03541 0.0
H572 H 0.05498 0.7849 0.98402 0.0
C573 C -0.00484 0.72059 0.03819 0.0
C574 C 0.02512 0.7128 0.012 0.0
H575 H 0.96105 0.75687 0.04404 0.0
H576 H 0.97767 0.70281 0.04916 0.0
C577 C 0.04797 0.73622 1.00408 0.0
C578 C 0.51911 0.74576 0.1775 0.0
C579 C 0.52761 0.72754 0.11611 0.0
H580 H 0.4879 0.78077 0.21963 0.0
C581 C 0.50976 0.72867 0.05154 0.0
H582 H 0.53322 0.74567 0.2273 0.0
C583 C 0.4854 0.74972 0.04554 0.0
C584 C 0.47734 0.76913 0.10545 0.0
H585 H 0.51645 0.71514 1.00334 0.0
H586 H 0.47284 0.75062 0.99352 0.0
C587 C 0.49403 0.7666 0.17214 0.0
C588 C 0.49373 0.2316 0.42028 0.0
C589 C 0.49492 0.21482 0.35359 0.0
H590 H 0.50711 0.27359 0.47635 0.0
C591 C 0.51483 0.22513 0.29641 0.0
H592 H 0.47942 0.22363 0.46607 0.0
C593 C 0.53196 0.25228 0.30418 0.0
C594 C 0.52837 0.27053 0.36758 0.0
H595 H 0.51701 0.21247 0.24476 0.0
H596 H 0.5454 0.26076 0.25735 0.0
C597 C 0.51046 0.25945 0.42726 0.0
C598 C 0.02117 0.23359 0.53431 0.0
C599 C 0.02866 0.21283 0.59203 0.0
H600 H 0.99072 0.26936 0.49552 0.0
C601 C 0.01198 0.21456 0.65899 0.0
H602 H 0.03384 0.23347 0.48233 0.0
C603 C 0.98711 0.23555 0.66619 0.0
C604 C 0.9789 0.25485 0.60652 0.0
H605 H 0.01788 0.19954 0.70512 0.0
H606 H 0.97285 0.23489 0.71581 0.0
C607 C -0.00288 0.25492 0.54238 0.0
C608 C 0.00037 -0.00174 0.96937 0.0
C609 C 0.98989 0.0058 0.04114 0.0
H610 H 0.99225 0.97248 0.86983 0.0
C611 C 0.96215 -0.00787 0.06733 0.0
H612 H 0.02154 0.0087 0.9472 0.0
C613 C 0.94489 0.97199 0.02212 0.0
C614 C 0.9551 0.96476 0.94983 0.0
H615 H 0.95302 -0.00198 0.1215 0.0
H616 H 0.92358 0.96188 0.0443 0.0
C617 C 0.98321 0.97802 0.92427 0.0
C618 C 0.23881 0.75117 0.31199 0.0
C619 C 0.22445 0.77935 0.29113 0.0
H620 H 0.27267 0.71596 0.28491 0.0
C621 C 0.23356 0.79334 0.22385 0.0
H622 H 0.23188 0.73933 0.36234 0.0
C623 C 0.25599 0.77945 0.17822 0.0
C624 C 0.27049 0.75135 0.19893 0.0
H625 H 0.22281 0.81491 0.20541 0.0
H626 H 0.26269 0.79138 0.1278 0.0
C627 C 0.26162 0.73738 0.26651 0.0
C628 C 0.55046 0.01129 0.51384 0.0
C629 C 0.53529 0.01598 0.44533 0.0
H630 H 0.55152 0.98572 0.61618 0.0
C631 C 0.50778 -0.00085 0.43047 0.0
H632 H 0.57144 0.02429 0.52775 0.0
C633 C 0.49593 0.97806 0.48204 0.0
C634 C 0.51143 0.97277 0.54962 0.0
H635 H 0.49494 0.00261 0.37947 0.0
H636 H 0.47496 0.96507 0.46787 0.0
C637 C 0.53866 0.98985 0.56549 0.0
C638 C 0.27612 0.20002 0.72108 0.0
C639 C 0.28084 0.21539 0.78913 0.0
H640 H 0.24989 0.19742 0.62045 0.0
C641 C 0.26171 0.24087 0.80716 0.0
H642 H 0.29082 0.18047 0.70517 0.0
C643 C 0.23874 0.25111 0.75756 0.0
C644 C 0.23418 0.23592 0.68902 0.0
H645 H 0.26535 0.25371 0.85806 0.0
H646 H 0.22433 0.27086 0.77345 0.0
C647 C 0.25311 0.21013 0.67167 0.0
C648 C 0.73923 0.23724 0.78265 0.0
C649 C 0.72412 0.26531 0.76496 0.0
H650 H 0.77113 0.20169 0.74768 0.0
C651 C 0.73108 0.27986 0.69693 0.0
H652 H 0.73385 0.2251 0.83367 0.0
C653 C 0.75196 0.26625 0.64679 0.0
C654 C 0.76647 0.2377 0.66339 0.0
H655 H 0.71956 0.30145 0.68138 0.0
H656 H 0.75678 0.2782 0.59523 0.0
C657 C 0.76005 0.22352 0.73233 0.0
C658 C 0.75496 0.73027 0.3083 0.0
C659 C 0.76307 0.69873 0.29904 0.0
H660 H 0.73514 0.77125 0.25945 0.0
C661 C 0.75582 0.68406 0.23135 0.0
H662 H 0.76067 0.74252 0.35892 0.0
C663 C 0.74174 0.70064 0.17364 0.0
C664 C 0.73426 0.73236 0.18217 0.0
H665 H 0.76193 0.65979 0.22214 0.0
H666 H 0.7364 0.68843 0.12274 0.0
C667 C 0.74092 0.7469 0.25046 0.0
C668 C 0.51808 0.51304 0.45864 0.0
C669 C 0.50106 0.52143 0.52258 0.0
H670 H 0.52034 0.48537 0.3605 0.0
C671 C 0.47221 0.50681 0.53615 0.0
H672 H 0.54043 0.52395 0.44627 0.0
C673 C 0.46044 0.48473 0.48591 0.0
C674 C 0.47725 0.47693 0.42104 0.0
H675 H 0.45825 0.51322 0.58388 0.0
H676 H 0.43818 0.47365 0.49806 0.0
C677 C 0.50629 0.49132 0.40842 0.0
C678 C 0.05481 0.4868 0.98976 0.0
C679 C 0.0406 0.49825 0.92468 0.0
H680 H 0.05213 0.45482 0.08081 0.0
C681 C 0.01426 0.48269 0.89667 0.0
H682 H 0.07516 0.49838 0.01289 0.0
C683 C 0.00094 0.45791 0.93617 0.0
C684 C 0.01358 0.44834 1.00462 0.0
H685 H 0.00241 0.49122 0.8477 0.0
H686 H 0.97996 0.44702 0.91437 0.0
C687 C 0.04121 0.4624 0.02981 0.0
C688 C 0.12312 0.11821 0.31087 0.0
C689 C 0.09696 0.09949 0.32907 0.0
H690 H 0.15762 0.1506 0.34996 0.0
C691 C 0.09215 0.09148 0.40326 0.0
H692 H 0.12772 0.12439 0.25376 0.0
C693 C 0.10973 0.10623 0.45866 0.0
C694 C 0.13198 0.12957 0.44055 0.0
H695 H 0.07233 0.07711 0.4191 0.0
H696 H 0.10314 0.102 0.51564 0.0
C697 C 0.14025 0.13342 0.36608 0.0
C698 C 0.06044 0.86674 0.56721 0.0
C699 C 0.08481 0.8448 0.57796 0.0
H700 H 0.02118 0.89127 0.61341 0.0
C701 C 0.09003 0.83373 0.65006 0.0
H702 H 0.05571 0.87611 0.51273 0.0
C703 C 0.07009 0.84282 0.70851 0.0
C704 C 0.0443 0.86294 0.6961 0.0
H705 H 0.10828 0.81667 0.66055 0.0
H706 H 0.07396 0.83276 0.76267 0.0
C707 C 0.0404 0.87545 0.62507 0.0
C708 C 0.40012 0.87225 0.97585 0.0
C709 C 0.37713 0.84981 0.95678 0.0
H710 H 0.43868 0.90027 0.9377 0.0
C711 C 0.36933 0.84629 0.88196 0.0
H712 H 0.40651 0.87607 0.03308 0.0
C713 C 0.38732 0.86102 0.82744 0.0
C714 C 0.41384 0.87901 0.84659 0.0
H715 H 0.35148 0.82975 0.86512 0.0
H716 H 0.38289 0.8551 0.77011 0.0
C717 C 0.41851 0.88657 0.92111 0.0
C718 C 0.39691 0.12154 0.21814 0.0
C719 C 0.4227 0.10215 0.20016 0.0
H720 H 0.36253 0.15384 0.17736 0.0
C721 C 0.42644 0.09273 0.12644 0.0
H722 H 0.39278 0.12883 0.27466 0.0
C723 C 0.40816 0.10635 0.07095 0.0
C724 C 0.3865 0.13024 0.08804 0.0
H725 H 0.4455 0.07736 0.11064 0.0
H726 H 0.41406 0.10136 0.01384 0.0
C727 C 0.37905 0.13567 0.16235 0.0
C728 C 0.87635 0.81722 0.54754 0.0
C729 C 0.86197 0.7881 0.56196 0.0
H730 H 0.90324 0.85559 0.59131 0.0
C731 C 0.86036 0.77766 0.63542 0.0
H732 H 0.87793 0.82608 0.49159 0.0
C733 C 0.87499 0.79442 0.69189 0.0
C734 C 0.89141 0.82224 0.67676 0.0
H735 H 0.84937 0.75556 0.64897 0.0
H736 H 0.87458 0.78481 0.7473 0.0
C737 C 0.89083 0.83422 0.60458 0.0
C738 C 0.88121 0.1514 0.33416 0.0
C739 C 0.88864 0.15213 0.40974 0.0
H740 H 0.89181 0.13167 0.22787 0.0
C741 C 0.90927 0.12908 0.43735 0.0
H742 H 0.86568 0.16882 0.31082 0.0
C743 C 0.92457 0.1081 0.39012 0.0
C744 C 0.91947 0.10915 0.31363 0.0
H745 H 0.9153 0.12853 0.49553 0.0
H746 H 0.94183 0.0923 0.4132 0.0
C747 C 0.8964 0.13006 0.28661 0.0
C748 C 0.62753 0.18502 0.11305 0.0
C749 C 0.61712 0.18373 0.03944 0.0
H750 H 0.62089 0.16897 0.22424 0.0
C751 C 0.59588 0.15968 0.02006 0.0
H752 H 0.6437 0.20309 0.13046 0.0
C753 C 0.58292 0.13976 0.07406 0.0
C754 C 0.59074 0.14352 0.1489 0.0
H755 H 0.58735 0.15776 0.96384 0.0
H756 H 0.56455 0.12363 0.05815 0.0
C757 C 0.61439 0.16532 0.16698 0.0
C758 C 0.61383 0.84877 0.79939 0.0
C759 C 0.59156 0.87043 0.82696 0.0
H760 H 0.64354 0.8092 0.82296 0.0
C761 C 0.58708 0.87194 0.90364 0.0
H762 H 0.61796 0.84679 0.74049 0.0
C763 C 0.60215 0.85074 0.95064 0.0
C764 C 0.62186 0.82693 0.92258 0.0
H765 H 0.57045 0.88833 0.92713 0.0
H766 H 0.59657 0.8517 0.00907 0.0
C767 C 0.62873 0.82716 0.84666 0.0
C768 C 0.62111 0.62499 0.81329 0.0
C769 C 0.59404 0.60741 0.83157 0.0
H770 H 0.65387 0.66051 0.84664 0.0
C771 C 0.58231 0.60953 0.9038 0.0
H772 H 0.63096 0.62405 0.75811 0.0
C773 C 0.59588 0.63007 0.95471 0.0
C774 C 0.6213 0.64952 0.93462 0.0
H775 H 0.56167 0.59645 0.92004 0.0
H776 H 0.58522 0.6318 0.00895 0.0
C777 C 0.63423 0.64617 0.86379 0.0
C778 C 0.58396 0.38745 0.10909 0.0
C779 C 0.58377 0.37529 0.181 0.0
H780 H 0.60497 0.38637 1.00186 0.0
C781 C 0.60765 0.354 0.20115 0.0
H782 H 0.56615 0.40395 0.0918 0.0
C783 C 0.62962 0.34335 0.14941 0.0
C784 C 0.62874 0.35409 0.07627 0.0
H785 H 0.60844 0.34407 0.2562 0.0
H786 H 0.6463 0.32557 0.16585 0.0
C787 C 0.60648 0.37738 0.05772 0.0
C788 C 0.88349 0.35145 0.30008 0.0
C789 C 0.91033 0.36949 0.31751 0.0
H790 H 0.85106 0.31592 0.33519 0.0
C791 C 0.9218 0.3684 0.39005 0.0
H792 H 0.87379 0.35161 0.24475 0.0
C793 C 0.90827 0.34831 0.4421 0.0
C794 C 0.88319 0.32829 0.42285 0.0
H795 H 0.94225 0.38188 0.40566 0.0
H796 H 0.91877 0.34728 0.49654 0.0
C797 C 0.87043 0.33071 0.35172 0.0
C798 C 0.92116 0.64293 0.71114 0.0
C799 C 0.94835 0.62537 0.69453 0.0
H800 H 0.88109 0.66789 0.66894 0.0
C801 C 0.95382 0.61697 0.62059 0.0
H802 H 0.91611 0.64971 0.76762 0.0
C803 C 0.93395 0.62771 0.56432 0.0
C804 C 0.90764 0.64648 0.58052 0.0
H805 H 0.97446 0.6036 0.60563 0.0
H806 H 0.9399 0.62237 0.50743 0.0
C807 C 0.90085 0.65312 0.6548 0.0
C808 C 0.39145 0.31759 0.19246 0.0
C809 C 0.41081 0.34189 0.16567 0.0
H810 H 0.36004 0.27999 0.16728 0.0
C811 C 0.40865 0.3497 0.09044 0.0
H812 H 0.39209 0.31105 0.25033 0.0
C813 C 0.38977 0.33175 0.04241 0.0
C814 C 0.37274 0.30554 0.06851 0.0
H815 H 0.42328 0.36801 0.06767 0.0
H816 H 0.3904 0.33708 0.9839 0.0
C817 C 0.37288 0.29966 0.14477 0.0
C818 C 0.41309 0.65402 0.92149 0.0
C819 C 0.39487 0.68052 0.90353 0.0
H820 H 0.44563 0.61902 0.88434 0.0
C821 C 0.3921 0.68863 0.82857 0.0
H822 H 0.41606 0.64731 0.97882 0.0
C823 C 0.40958 0.6726 0.77418 0.0
C824 C 0.43 0.64779 0.79313 0.0
H825 H 0.37886 0.70916 0.81272 0.0
H826 H 0.40877 0.68114 0.71784 0.0
C827 C 0.43015 0.63772 0.86711 0.0
C828 C 0.08485 0.66814 0.53504 0.0
C829 C 0.10759 0.6918 0.54462 0.0
H830 H 0.05922 0.6303 0.58471 0.0
C831 C 0.1251 0.69214 0.61025 0.0
H832 H 0.07117 0.66687 0.48472 0.0
C833 C 0.11835 0.671 0.66708 0.0
C834 C 0.0941 0.64883 0.65958 0.0
H835 H 0.14297 0.70971 0.61936 0.0
H836 H 0.13098 0.67317 0.71878 0.0
C837 C 0.07826 0.64679 0.59186 0.0
C838 C 0.09683 0.30533 0.26045 0.0
C839 C 0.07624 0.33004 0.2792 0.0
H840 H 0.12814 0.26945 0.29945 0.0
C841 C 0.07675 0.34106 0.35238 0.0
H842 H 0.09724 0.29618 0.20462 0.0
C843 C 0.09453 0.32561 0.40665 0.0
C844 C 0.11269 0.299 0.38928 0.0
H845 H 0.06128 0.35982 0.36933 0.0
H846 H 0.09201 0.33294 0.4637 0.0
C847 C 0.11493 0.29009 0.31474 0.0
loop_
_geom_bond_atom_site_label_1
_geom_bond_atom_site_label_2
_geom_bond_distance
_geom_bond_site_symmetry_2
_ccdc_geom_bond_type
O0 Zn1 1.953 . S
O0 C16 1.225 . S
Zn1 O0 1.953 . S
Zn1 O2 1.949 1_655 S
Zn1 O8 1.919 . S
Zn1 O13 1.924 . S
O2 Zn1 1.949 1_455 S
O2 Zn3 1.923 . S
O2 Zn4 1.950 . S
O2 Zn5 1.945 . S
Zn3 O2 1.923 . S
Zn3 O6 1.933 . S
Zn3 O9 1.941 . S
Zn3 O10 1.965 . S
Zn4 O2 1.950 . S
Zn4 O11 1.938 . S
Zn4 O12 1.906 . S
Zn4 O22 1.953 1_455 S
Zn5 O2 1.945 . S
Zn5 O7 1.932 1_554 S
Zn5 O14 1.977 . S
Zn5 O15 1.910 1_454 S
O6 Zn3 1.933 . S
O6 C17 1.226 1_554 S
O7 Zn5 1.932 1_556 S
O7 C17 1.307 . S
O8 Zn1 1.919 . S
O8 C19 1.253 1_655 S
O9 Zn3 1.941 . S
O9 C19 1.283 . S
O10 Zn3 1.965 . S
O10 C18 1.303 . S
O11 Zn4 1.938 . S
O11 C18 1.247 . S
O12 Zn4 1.906 . S
O12 C20 1.304 . S
O13 Zn1 1.924 . S
O13 C21 1.303 1_554 S
O14 Zn5 1.977 . S
O14 C20 1.272 . S
O15 Zn5 1.910 1_656 S
O15 C21 1.235 . S
C16 O0 1.225 . S
C16 O22 1.298 . S
C17 O6 1.226 1_556 S
C17 O7 1.307 . S
C18 O10 1.303 . S
C18 O11 1.247 . S
C19 O8 1.253 1_455 S
C19 O9 1.283 . S
C20 O12 1.304 . S
C20 O14 1.272 . S
C21 O13 1.303 1_556 S
C21 O15 1.235 . S
O22 Zn4 1.953 1_655 S
O22 C16 1.298 . S
O23 Zn24 1.953 . S
O23 C39 1.225 . S
Zn24 O23 1.953 . S
Zn24 O25 1.949 . S
Zn24 O31 1.919 . S
Zn24 O36 1.924 . S
O25 Zn24 1.949 . S
O25 Zn26 1.923 . S
O25 Zn27 1.950 . S
O25 Zn28 1.945 . S
Zn26 O25 1.923 . S
Zn26 O29 1.933 . S
Zn26 O32 1.941 . S
Zn26 O33 1.965 . S
Zn27 O25 1.950 . S
Zn27 O34 1.938 . S
Zn27 O35 1.906 . S
Zn27 O45 1.953 . S
Zn28 O25 1.945 . S
Zn28 O30 1.932 . S
Zn28 O37 1.977 . S
Zn28 O38 1.910 . S
O29 Zn26 1.933 . S
O29 C40 1.226 . S
O30 Zn28 1.932 . S
O30 C40 1.307 . S
O31 Zn24 1.919 . S
O31 C42 1.253 . S
O32 Zn26 1.941 . S
O32 C42 1.283 . S
O33 Zn26 1.965 . S
O33 C41 1.303 . S
O34 Zn27 1.938 . S
O34 C41 1.247 . S
O35 Zn27 1.906 . S
O35 C43 1.304 . S
O36 Zn24 1.924 . S
O36 C44 1.311 . S
O37 Zn28 1.977 . S
O37 C43 1.272 . S
O38 Zn28 1.910 . S
O38 C44 1.231 . S
C39 O23 1.225 . S
C39 O45 1.298 . S
C40 O29 1.226 . S
C40 O30 1.307 . S
C41 O33 1.303 . S
C41 O34 1.247 . S
C42 O31 1.253 . S
C42 O32 1.283 . S
C43 O35 1.304 . S
C43 O37 1.272 . S
C44 O36 1.311 . S
C44 O38 1.231 . S
O45 Zn27 1.953 . S
O45 C39 1.298 . S
O46 Zn47 1.953 . S
O46 C62 1.225 . S
Zn47 O46 1.953 . S
Zn47 O48 1.949 . S
Zn47 O54 1.919 . S
Zn47 O59 1.924 . S
O48 Zn47 1.949 . S
O48 Zn49 1.923 . S
O48 Zn50 1.950 . S
O48 Zn51 1.945 . S
Zn49 O48 1.923 . S
Zn49 O52 1.933 . S
Zn49 O55 1.941 . S
Zn49 O56 1.965 . S
Zn50 O48 1.950 . S
Zn50 O57 1.938 . S
Zn50 O58 1.906 . S
Zn50 O68 1.953 . S
Zn51 O48 1.945 . S
Zn51 O53 1.932 . S
Zn51 O60 1.977 . S
Zn51 O61 1.910 . S
O52 Zn49 1.933 . S
O52 C63 1.226 . S
O53 Zn51 1.932 . S
O53 C63 1.307 . S
O54 Zn47 1.919 . S
O54 C65 1.253 . S
O55 Zn49 1.941 . S
O55 C65 1.283 . S
O56 Zn49 1.965 . S
O56 C64 1.303 . S
O57 Zn50 1.938 . S
O57 C64 1.247 . S
O58 Zn50 1.906 . S
O58 C66 1.304 . S
O59 Zn47 1.924 . S
O59 C67 1.311 . S
O60 Zn51 1.977 . S
O60 C66 1.272 . S
O61 Zn51 1.910 . S
O61 C67 1.231 . S
C62 O46 1.225 . S
C62 O68 1.298 . S
C63 O52 1.226 . S
C63 O53 1.307 . S
C64 O56 1.303 . S
C64 O57 1.247 . S
C65 O54 1.253 . S
C65 O55 1.283 . S
C66 O58 1.304 . S
C66 O60 1.272 . S
C67 O59 1.311 . S
C67 O61 1.231 . S
O68 Zn50 1.953 . S
O68 C62 1.298 . S
O69 Zn70 1.953 . S
O69 C85 1.225 1_556 S
Zn70 O69 1.953 . S
Zn70 O71 1.949 . S
Zn70 O77 1.919 . S
Zn70 O82 1.924 . S
O71 Zn70 1.949 . S
O71 Zn72 1.923 . S
O71 Zn73 1.950 . S
O71 Zn74 1.945 . S
Zn72 O71 1.923 . S
Zn72 O75 1.933 . S
Zn72 O78 1.941 . S
Zn72 O79 1.965 . S
Zn73 O71 1.950 . S
Zn73 O80 1.938 1_556 S
Zn73 O81 1.906 . S
Zn73 O91 1.953 . S
Zn74 O71 1.945 . S
Zn74 O76 1.932 . S
Zn74 O83 1.977 . S
Zn74 O84 1.910 . S
O75 Zn72 1.933 . S
O75 C86 1.226 . S
O76 Zn74 1.932 . S
O76 C86 1.307 . S
O77 Zn70 1.919 . S
O77 C88 1.253 . S
O78 Zn72 1.941 . S
O78 C88 1.283 . S
O79 Zn72 1.965 . S
O79 C87 1.303 1_556 S
O80 Zn73 1.938 1_554 S
O80 C87 1.247 . S
O81 Zn73 1.906 . S
O81 C89 1.304 . S
O82 Zn70 1.924 . S
O82 C90 1.311 . S
O83 Zn74 1.977 . S
O83 C89 1.272 . S
O84 Zn74 1.910 . S
O84 C90 1.231 . S
C85 O69 1.225 1_554 S
C85 O91 1.298 1_554 S
C86 O75 1.226 . S
C86 O76 1.307 . S
C87 O79 1.303 1_554 S
C87 O80 1.247 . S
C88 O77 1.253 . S
C88 O78 1.283 . S
C89 O81 1.304 . S
C89 O83 1.272 . S
C90 O82 1.311 . S
C90 O84 1.231 . S
O91 Zn73 1.953 . S
O91 C85 1.298 1_556 S
O92 Zn93 1.953 . S
O92 C108 1.225 . S
Zn93 O92 1.953 . S
Zn93 O94 1.949 1_655 S
Zn93 O100 1.919 . S
Zn93 O105 1.924 . S
O94 Zn93 1.949 1_455 S
O94 Zn95 1.923 . S
O94 Zn96 1.950 . S
O94 Zn97 1.945 . S
Zn95 O94 1.923 . S
Zn95 O98 1.933 . S
Zn95 O101 1.941 . S
Zn95 O102 1.965 . S
Zn96 O94 1.950 . S
Zn96 O103 1.938 . S
Zn96 O104 1.906 . S
Zn96 O114 1.953 1_455 S
Zn97 O94 1.945 . S
Zn97 O99 1.932 1_556 S
Zn97 O106 1.977 . S
Zn97 O107 1.910 1_456 S
O98 Zn95 1.933 . S
O98 C109 1.226 1_556 S
O99 Zn97 1.932 1_554 S
O99 C109 1.307 . S
O100 Zn93 1.919 . S
O100 C111 1.253 1_655 S
O101 Zn95 1.941 . S
O101 C111 1.283 . S
O102 Zn95 1.965 . S
O102 C110 1.303 . S
O103 Zn96 1.938 . S
O103 C110 1.247 . S
O104 Zn96 1.906 . S
O104 C112 1.304 . S
O105 Zn93 1.924 . S
O105 C113 1.303 1_556 S
O106 Zn97 1.977 . S
O106 C112 1.272 . S
O107 Zn97 1.910 1_654 S
O107 C113 1.235 . S
C108 O92 1.225 . S
C108 O114 1.298 . S
C109 O98 1.226 1_554 S
C109 O99 1.307 . S
C110 O102 1.303 . S
C110 O103 1.247 . S
C111 O100 1.253 1_455 S
C111 O101 1.283 . S
C112 O104 1.304 . S
C112 O106 1.272 . S
C113 O105 1.303 1_554 S
C113 O107 1.235 . S
O114 Zn96 1.953 1_655 S
O114 C108 1.298 . S
O115 Zn116 1.953 . S
O115 C131 1.225 1_554 S
Zn116 O115 1.953 . S
Zn116 O117 1.949 . S
Zn116 O123 1.919 . S
Zn116 O128 1.924 . S
O117 Zn116 1.949 . S
O117 Zn118 1.923 . S
O117 Zn119 1.950 . S
O117 Zn120 1.945 . S
Zn118 O117 1.923 . S
Zn118 O121 1.933 . S
Zn118 O124 1.941 . S
Zn118 O125 1.965 . S
Zn119 O117 1.950 . S
Zn119 O126 1.938 1_554 S
Zn119 O127 1.906 . S
Zn119 O137 1.953 . S
Zn120 O117 1.945 . S
Zn120 O122 1.932 . S
Zn120 O129 1.977 . S
Zn120 O130 1.910 . S
O121 Zn118 1.933 . S
O121 C132 1.226 . S
O122 Zn120 1.932 . S
O122 C132 1.307 . S
O123 Zn116 1.919 . S
O123 C134 1.253 . S
O124 Zn118 1.941 . S
O124 C134 1.283 . S
O125 Zn118 1.965 . S
O125 C133 1.303 1_554 S
O126 Zn119 1.938 1_556 S
O126 C133 1.247 . S
O127 Zn119 1.906 . S
O127 C135 1.304 . S
O128 Zn116 1.924 . S
O128 C136 1.311 . S
O129 Zn120 1.977 . S
O129 C135 1.272 . S
O130 Zn120 1.910 . S
O130 C136 1.231 . S
C131 O115 1.225 1_556 S
C131 O137 1.298 1_556 S
C132 O121 1.226 . S
C132 O122 1.307 . S
C133 O125 1.303 1_556 S
C133 O126 1.247 . S
C134 O123 1.253 . S
C134 O124 1.283 . S
C135 O127 1.304 . S
C135 O129 1.272 . S
C136 O128 1.311 . S
C136 O130 1.231 . S
O137 Zn119 1.953 . S
O137 C131 1.298 1_554 S
O138 Zn139 1.953 . S
O138 C154 1.225 . S
Zn139 O138 1.953 . S
Zn139 O140 1.949 . S
Zn139 O146 1.919 . S
Zn139 O151 1.924 . S
O140 Zn139 1.949 . S
O140 Zn141 1.923 . S
O140 Zn142 1.950 . S
O140 Zn143 1.945 . S
Zn141 O140 1.923 . S
Zn141 O144 1.933 . S
Zn141 O147 1.941 . S
Zn141 O148 1.965 . S
Zn142 O140 1.950 . S
Zn142 O149 1.938 . S
Zn142 O150 1.906 . S
Zn142 O160 1.953 . S
Zn143 O140 1.945 . S
Zn143 O145 1.932 . S
Zn143 O152 1.977 . S
Zn143 O153 1.910 . S
O144 Zn141 1.933 . S
O144 C155 1.226 . S
O145 Zn143 1.932 . S
O145 C155 1.307 . S
O146 Zn139 1.919 . S
O146 C157 1.253 . S
O147 Zn141 1.941 . S
O147 C157 1.283 . S
O148 Zn141 1.965 . S
O148 C156 1.303 . S
O149 Zn142 1.938 . S
O149 C156 1.247 . S
O150 Zn142 1.906 . S
O150 C158 1.304 . S
O151 Zn139 1.924 . S
O151 C159 1.311 . S
O152 Zn143 1.977 . S
O152 C158 1.272 . S
O153 Zn143 1.910 . S
O153 C159 1.231 . S
C154 O138 1.225 . S
C154 O160 1.298 . S
C155 O144 1.226 . S
C155 O145 1.307 . S
C156 O148 1.303 . S
C156 O149 1.247 . S
C157 O146 1.253 . S
C157 O147 1.283 . S
C158 O150 1.304 . S
C158 O152 1.272 . S
C159 O151 1.311 . S
C159 O153 1.231 . S
O160 Zn142 1.953 . S
O160 C154 1.298 . S
O161 Zn162 1.953 . S
O161 C177 1.225 . S
Zn162 O161 1.953 . S
Zn162 O163 1.949 . S
Zn162 O169 1.919 . S
Zn162 O174 1.924 . S
O163 Zn162 1.949 . S
O163 Zn164 1.923 . S
O163 Zn165 1.950 . S
O163 Zn166 1.945 . S
Zn164 O163 1.923 . S
Zn164 O167 1.933 . S
Zn164 O170 1.941 . S
Zn164 O171 1.965 . S
Zn165 O163 1.950 . S
Zn165 O172 1.938 . S
Zn165 O173 1.906 . S
Zn165 O183 1.953 . S
Zn166 O163 1.945 . S
Zn166 O168 1.932 . S
Zn166 O175 1.977 . S
Zn166 O176 1.910 . S
O167 Zn164 1.933 . S
O167 C178 1.226 . S
O168 Zn166 1.932 . S
O168 C178 1.307 . S
O169 Zn162 1.919 . S
O169 C180 1.253 . S
O170 Zn164 1.941 . S
O170 C180 1.283 . S
O171 Zn164 1.965 . S
O171 C179 1.303 . S
O172 Zn165 1.938 . S
O172 C179 1.247 . S
O173 Zn165 1.906 . S
O173 C181 1.304 . S
O174 Zn162 1.924 . S
O174 C182 1.311 . S
O175 Zn166 1.977 . S
O175 C181 1.272 . S
O176 Zn166 1.910 . S
O176 C182 1.231 . S
C177 O161 1.225 . S
C177 O183 1.298 . S
C178 O167 1.226 . S
C178 O168 1.307 . S
C179 O171 1.303 . S
C179 O172 1.247 . S
C180 O169 1.253 . S
C180 O170 1.283 . S
C181 O173 1.304 . S
C181 O175 1.272 . S
C182 O174 1.311 . S
C182 O176 1.231 . S
O183 Zn165 1.953 . S
O183 C177 1.298 . S
O184 Zn185 1.953 . S
O184 C200 1.225 . S
Zn185 O184 1.953 . S
Zn185 O186 1.949 . S
Zn185 O192 1.919 . S
Zn185 O197 1.924 . S
O186 Zn185 1.949 . S
O186 Zn187 1.923 . S
O186 Zn188 1.950 . S
O186 Zn189 1.945 . S
Zn187 O186 1.923 . S
Zn187 O190 1.933 . S
Zn187 O193 1.941 . S
Zn187 O194 1.965 . S
Zn188 O186 1.950 . S
Zn188 O195 1.938 . S
Zn188 O196 1.906 . S
Zn188 O206 1.953 . S
Zn189 O186 1.945 . S
Zn189 O191 1.932 . S
Zn189 O198 1.977 . S
Zn189 O199 1.910 . S
O190 Zn187 1.933 . S
O190 C201 1.226 . S
O191 Zn189 1.932 . S
O191 C201 1.307 . S
O192 Zn185 1.919 . S
O192 C203 1.253 . S
O193 Zn187 1.941 . S
O193 C203 1.283 . S
O194 Zn187 1.965 . S
O194 C202 1.303 . S
O195 Zn188 1.938 . S
O195 C202 1.247 . S
O196 Zn188 1.906 . S
O196 C204 1.304 . S
O197 Zn185 1.924 . S
O197 C205 1.311 . S
O198 Zn189 1.977 . S
O198 C204 1.272 . S
O199 Zn189 1.910 . S
O199 C205 1.231 . S
C200 O184 1.225 . S
C200 O206 1.298 . S
C201 O190 1.226 . S
C201 O191 1.307 . S
C202 O194 1.303 . S
C202 O195 1.247 . S
C203 O192 1.253 . S
C203 O193 1.283 . S
C204 O196 1.304 . S
C204 O198 1.272 . S
C205 O197 1.311 . S
C205 O199 1.231 . S
O206 Zn188 1.953 . S
O206 C200 1.298 . S
O207 Zn208 1.953 . S
O207 C223 1.225 1_554 S
Zn208 O207 1.953 . S
Zn208 O209 1.949 . S
Zn208 O215 1.919 . S
Zn208 O220 1.924 . S
O209 Zn208 1.949 . S
O209 Zn210 1.923 . S
O209 Zn211 1.950 . S
O209 Zn212 1.945 . S
Zn210 O209 1.923 . S
Zn210 O213 1.933 . S
Zn210 O216 1.941 . S
Zn210 O217 1.965 . S
Zn211 O209 1.950 . S
Zn211 O218 1.938 1_554 S
Zn211 O219 1.906 . S
Zn211 O229 1.953 . S
Zn212 O209 1.945 . S
Zn212 O214 1.932 . S
Zn212 O221 1.977 . S
Zn212 O222 1.910 . S
O213 Zn210 1.933 . S
O213 C224 1.226 . S
O214 Zn212 1.932 . S
O214 C224 1.307 . S
O215 Zn208 1.919 . S
O215 C226 1.253 . S
O216 Zn210 1.941 . S
O216 C226 1.283 . S
O217 Zn210 1.965 . S
O217 C225 1.303 1_554 S
O218 Zn211 1.938 1_556 S
O218 C225 1.247 . S
O219 Zn211 1.906 . S
O219 C227 1.304 . S
O220 Zn208 1.924 . S
O220 C228 1.311 . S
O221 Zn212 1.977 . S
O221 C227 1.272 . S
O222 Zn212 1.910 . S
O222 C228 1.231 . S
C223 O207 1.225 1_556 S
C223 O229 1.298 1_556 S
C224 O213 1.226 . S
C224 O214 1.307 . S
C225 O217 1.303 1_556 S
C225 O218 1.247 . S
C226 O215 1.253 . S
C226 O216 1.283 . S
C227 O219 1.304 . S
C227 O221 1.272 . S
C228 O220 1.311 . S
C228 O222 1.231 . S
O229 Zn211 1.953 . S
O229 C223 1.298 1_554 S
O230 Zn231 1.953 . S
O230 C246 1.225 1_556 S
Zn231 O230 1.953 . S
Zn231 O232 1.949 . S
Zn231 O238 1.919 . S
Zn231 O243 1.924 . S
O232 Zn231 1.949 . S
O232 Zn233 1.923 . S
O232 Zn234 1.950 . S
O232 Zn235 1.945 . S
Zn233 O232 1.923 . S
Zn233 O236 1.933 . S
Zn233 O239 1.941 . S
Zn233 O240 1.965 . S
Zn234 O232 1.950 . S
Zn234 O241 1.938 1_556 S
Zn234 O242 1.906 . S
Zn234 O252 1.953 . S
Zn235 O232 1.945 . S
Zn235 O237 1.932 . S
Zn235 O244 1.977 . S
Zn235 O245 1.910 . S
O236 Zn233 1.933 . S
O236 C247 1.226 . S
O237 Zn235 1.932 . S
O237 C247 1.307 . S
O238 Zn231 1.919 . S
O238 C249 1.253 . S
O239 Zn233 1.941 . S
O239 C249 1.283 . S
O240 Zn233 1.965 . S
O240 C248 1.303 1_556 S
O241 Zn234 1.938 1_554 S
O241 C248 1.247 . S
O242 Zn234 1.906 . S
O242 C250 1.304 . S
O243 Zn231 1.924 . S
O243 C251 1.311 . S
O244 Zn235 1.977 . S
O244 C250 1.272 . S
O245 Zn235 1.910 . S
O245 C251 1.231 . S
C246 O230 1.225 1_554 S
C246 O252 1.298 1_554 S
C247 O236 1.226 . S
C247 O237 1.307 . S
C248 O240 1.303 1_554 S
C248 O241 1.247 . S
C249 O238 1.253 . S
C249 O239 1.283 . S
C250 O242 1.304 . S
C250 O244 1.272 . S
C251 O243 1.311 . S
C251 O245 1.231 . S
O252 Zn234 1.953 . S
O252 C246 1.298 1_556 S
O253 Zn254 1.953 . S
O253 C269 1.225 . S
Zn254 O253 1.953 . S
Zn254 O255 1.949 . S
Zn254 O261 1.919 . S
Zn254 O266 1.924 . S
O255 Zn254 1.949 . S
O255 Zn256 1.923 . S
O255 Zn257 1.950 . S
O255 Zn258 1.945 . S
Zn256 O255 1.923 . S
Zn256 O259 1.933 . S
Zn256 O262 1.941 . S
Zn256 O263 1.965 . S
Zn257 O255 1.950 . S
Zn257 O264 1.938 . S
Zn257 O265 1.906 . S
Zn257 O275 1.953 . S
Zn258 O255 1.945 . S
Zn258 O260 1.932 . S
Zn258 O267 1.977 . S
Zn258 O268 1.910 . S
O259 Zn256 1.933 . S
O259 C270 1.226 . S
O260 Zn258 1.932 . S
O260 C270 1.307 . S
O261 Zn254 1.919 . S
O261 C272 1.253 . S
O262 Zn256 1.941 . S
O262 C272 1.283 . S
O263 Zn256 1.965 . S
O263 C271 1.303 . S
O264 Zn257 1.938 . S
O264 C271 1.247 . S
O265 Zn257 1.906 . S
O265 C273 1.304 . S
O266 Zn254 1.924 . S
O266 C274 1.311 . S
O267 Zn258 1.977 . S
O267 C273 1.272 . S
O268 Zn258 1.910 . S
O268 C274 1.231 . S
C269 O253 1.225 . S
C269 O275 1.298 . S
C270 O259 1.226 . S
C270 O260 1.307 . S
C271 O263 1.303 . S
C271 O264 1.247 . S
C272 O261 1.253 . S
C272 O262 1.283 . S
C273 O265 1.304 . S
C273 O267 1.272 . S
C274 O266 1.311 . S
C274 O268 1.231 . S
O275 Zn257 1.953 . S
O275 C269 1.298 . S
O276 Zn277 1.953 . S
O276 C292 1.225 . S
Zn277 O276 1.953 . S
Zn277 O278 1.949 . S
Zn277 O284 1.919 . S
Zn277 O289 1.924 . S
O278 Zn277 1.949 . S
O278 Zn279 1.923 . S
O278 Zn280 1.950 . S
O278 Zn281 1.945 . S
Zn279 O278 1.923 . S
Zn279 O282 1.933 . S
Zn279 O285 1.941 . S
Zn279 O286 1.965 . S
Zn280 O278 1.950 . S
Zn280 O287 1.938 . S
Zn280 O288 1.906 . S
Zn280 O298 1.953 . S
Zn281 O278 1.945 . S
Zn281 O283 1.932 . S
Zn281 O290 1.977 . S
Zn281 O291 1.910 . S
O282 Zn279 1.933 . S
O282 C293 1.226 . S
O283 Zn281 1.932 . S
O283 C293 1.307 . S
O284 Zn277 1.919 . S
O284 C295 1.253 . S
O285 Zn279 1.941 . S
O285 C295 1.283 . S
O286 Zn279 1.965 . S
O286 C294 1.303 . S
O287 Zn280 1.938 . S
O287 C294 1.247 . S
O288 Zn280 1.906 . S
O288 C296 1.304 . S
O289 Zn277 1.924 . S
O289 C297 1.311 . S
O290 Zn281 1.977 . S
O290 C296 1.272 . S
O291 Zn281 1.910 . S
O291 C297 1.231 . S
C292 O276 1.225 . S
C292 O298 1.298 . S
C293 O282 1.226 . S
C293 O283 1.307 . S
C294 O286 1.303 . S
C294 O287 1.247 . S
C295 O284 1.253 . S
C295 O285 1.283 . S
C296 O288 1.304 . S
C296 O290 1.272 . S
C297 O289 1.311 . S
C297 O291 1.231 . S
O298 Zn280 1.953 . S
O298 C292 1.298 . S
O299 Zn300 1.953 . S
O299 C315 1.225 . S
Zn300 O299 1.953 . S
Zn300 O301 1.949 . S
Zn300 O307 1.919 . S
Zn300 O312 1.924 . S
O301 Zn300 1.949 . S
O301 Zn302 1.923 1_455 S
O301 Zn303 1.950 . S
O301 Zn304 1.945 . S
Zn302 O301 1.923 1_655 S
Zn302 O305 1.933 . S
Zn302 O308 1.941 . S
Zn302 O309 1.965 . S
Zn303 O301 1.950 . S
Zn303 O310 1.938 1_455 S
Zn303 O311 1.906 . S
Zn303 O321 1.953 . S
Zn304 O301 1.945 . S
Zn304 O306 1.932 1_454 S
Zn304 O313 1.977 . S
Zn304 O314 1.910 1_554 S
O305 Zn302 1.933 . S
O305 C316 1.226 1_554 S
O306 Zn304 1.932 1_656 S
O306 C316 1.307 . S
O307 Zn300 1.919 . S
O307 C318 1.253 1_455 S
O308 Zn302 1.941 . S
O308 C318 1.283 . S
O309 Zn302 1.965 . S
O309 C317 1.303 . S
O310 Zn303 1.938 1_655 S
O310 C317 1.247 . S
O311 Zn303 1.906 . S
O311 C319 1.307 . S
O312 Zn300 1.924 . S
O312 C320 1.303 1_554 S
O313 Zn304 1.977 . S
O313 C319 1.279 . S
O314 Zn304 1.910 1_556 S
O314 C320 1.235 . S
C315 O299 1.225 . S
C315 O321 1.298 . S
C316 O305 1.226 1_556 S
C316 O306 1.307 . S
C317 O309 1.303 . S
C317 O310 1.247 . S
C318 O307 1.253 1_655 S
C318 O308 1.283 . S
C319 O311 1.307 . S
C319 O313 1.279 . S
C320 O312 1.303 1_556 S
C320 O314 1.235 . S
O321 Zn303 1.953 . S
O321 C315 1.298 . S
O322 Zn323 1.953 . S
O322 C338 1.225 . S
Zn323 O322 1.953 . S
Zn323 O324 1.949 . S
Zn323 O330 1.919 . S
Zn323 O335 1.924 . S
O324 Zn323 1.949 . S
O324 Zn325 1.923 . S
O324 Zn326 1.950 . S
O324 Zn327 1.945 . S
Zn325 O324 1.923 . S
Zn325 O328 1.933 . S
Zn325 O331 1.941 . S
Zn325 O332 1.965 . S
Zn326 O324 1.950 . S
Zn326 O333 1.938 . S
Zn326 O334 1.906 . S
Zn326 O344 1.953 . S
Zn327 O324 1.945 . S
Zn327 O329 1.932 . S
Zn327 O336 1.977 . S
Zn327 O337 1.910 . S
O328 Zn325 1.933 . S
O328 C339 1.226 . S
O329 Zn327 1.932 . S
O329 C339 1.307 . S
O330 Zn323 1.919 . S
O330 C341 1.253 . S
O331 Zn325 1.941 . S
O331 C341 1.283 . S
O332 Zn325 1.965 . S
O332 C340 1.303 . S
O333 Zn326 1.938 . S
O333 C340 1.247 . S
O334 Zn326 1.906 . S
O334 C342 1.304 . S
O335 Zn323 1.924 . S
O335 C343 1.311 . S
O336 Zn327 1.977 . S
O336 C342 1.272 . S
O337 Zn327 1.910 . S
O337 C343 1.231 . S
C338 O322 1.225 . S
C338 O344 1.298 . S
C339 O328 1.226 . S
C339 O329 1.307 . S
C340 O332 1.303 . S
C340 O333 1.247 . S
C341 O330 1.253 . S
C341 O331 1.283 . S
C342 O334 1.304 . S
C342 O336 1.272 . S
C343 O335 1.311 . S
C343 O337 1.231 . S
O344 Zn326 1.953 . S
O344 C338 1.298 . S
O345 Zn346 1.953 . S
O345 C361 1.225 . S
Zn346 O345 1.953 . S
Zn346 O347 1.949 . S
Zn346 O353 1.919 . S
Zn346 O358 1.924 . S
O347 Zn346 1.949 . S
O347 Zn348 1.923 1_455 S
O347 Zn349 1.950 . S
O347 Zn350 1.945 . S
Zn348 O347 1.923 1_655 S
Zn348 O351 1.933 . S
Zn348 O354 1.941 . S
Zn348 O355 1.965 . S
Zn349 O347 1.950 . S
Zn349 O356 1.938 1_455 S
Zn349 O357 1.906 . S
Zn349 O367 1.953 . S
Zn350 O347 1.945 . S
Zn350 O352 1.932 1_456 S
Zn350 O359 1.977 . S
Zn350 O360 1.910 1_556 S
O351 Zn348 1.933 . S
O351 C362 1.226 1_556 S
O352 Zn350 1.932 1_654 S
O352 C362 1.307 . S
O353 Zn346 1.919 . S
O353 C364 1.253 1_455 S
O354 Zn348 1.941 . S
O354 C364 1.283 . S
O355 Zn348 1.965 . S
O355 C363 1.303 . S
O356 Zn349 1.938 1_655 S
O356 C363 1.247 . S
O357 Zn349 1.906 . S
O357 C365 1.307 . S
O358 Zn346 1.924 . S
O358 C366 1.303 1_556 S
O359 Zn350 1.977 . S
O359 C365 1.279 . S
O360 Zn350 1.910 1_554 S
O360 C366 1.235 . S
C361 O345 1.225 . S
C361 O367 1.298 . S
C362 O351 1.226 1_554 S
C362 O352 1.307 . S
C363 O355 1.303 . S
C363 O356 1.247 . S
C364 O353 1.253 1_655 S
C364 O354 1.283 . S
C365 O357 1.307 . S
C365 O359 1.279 . S
C366 O358 1.303 1_554 S
C366 O360 1.235 . S
O367 Zn349 1.953 . S
O367 C361 1.298 . S
C368 C369 1.387 . S
C368 H372 0.950 . S
C368 C377 1.390 . S
C369 C368 1.387 . S
C369 C371 1.387 . S
H370 C377 0.950 . S
C371 C369 1.387 . S
C371 C373 1.390 . S
C371 H375 0.950 . S
H372 C368 0.950 . S
C373 C371 1.390 . S
C373 C374 1.387 . S
C373 H376 0.950 . S
C374 C373 1.387 . S
C374 C377 1.387 . S
H375 C371 0.950 . S
H376 C373 0.950 . S
C377 C368 1.390 . S
C377 H370 0.950 . S
C377 C374 1.387 . S
C378 C379 1.387 . S
C378 H382 0.950 . S
C378 C387 1.390 . S
C379 C378 1.387 . S
C379 C381 1.387 . S
H380 C387 0.950 . S
C381 C379 1.387 . S
C381 C383 1.390 . S
C381 H385 0.950 . S
H382 C378 0.950 . S
C383 C381 1.390 . S
C383 C384 1.387 . S
C383 H386 0.950 . S
C384 C383 1.387 . S
C384 C387 1.387 . S
H385 C381 0.950 . S
H386 C383 0.950 . S
C387 C378 1.390 . S
C387 H380 0.950 . S
C387 C384 1.387 . S
C388 C389 1.387 . S
C388 H392 0.950 . S
C388 C397 1.390 . S
C389 C388 1.387 . S
C389 C391 1.387 . S
H390 C397 0.950 . S
C391 C389 1.387 . S
C391 C393 1.390 . S
C391 H395 0.950 . S
H392 C388 0.950 . S
C393 C391 1.390 . S
C393 C394 1.387 . S
C393 H396 0.950 . S
C394 C393 1.387 . S
C394 C397 1.387 . S
H395 C391 0.950 . S
H396 C393 0.950 . S
C397 C388 1.390 . S
C397 H390 0.950 . S
C397 C394 1.387 . S
C398 C399 1.387 . S
C398 H402 0.950 . S
C398 C407 1.390 . S
C399 C398 1.387 . S
C399 C401 1.387 . S
H400 C407 0.950 . S
C401 C399 1.387 . S
C401 C403 1.390 . S
C401 H405 0.950 . S
H402 C398 0.950 . S
C403 C401 1.390 . S
C403 C404 1.387 . S
C403 H406 0.950 . S
C404 C403 1.387 . S
C404 C407 1.387 . S
H405 C401 0.950 . S
H406 C403 0.950 . S
C407 C398 1.390 . S
C407 H400 0.950 . S
C407 C404 1.387 . S
C408 C409 1.387 . S
C408 H412 0.950 . S
C408 C417 1.390 . S
C409 C408 1.387 . S
C409 C411 1.387 . S
H410 C417 0.950 . S
C411 C409 1.387 . S
C411 C413 1.390 . S
C411 H415 0.950 . S
H412 C408 0.950 . S
C413 C411 1.390 . S
C413 C414 1.387 . S
C413 H416 0.950 . S
C414 C413 1.387 . S
C414 C417 1.387 . S
H415 C411 0.950 . S
H416 C413 0.950 . S
C417 C408 1.390 . S
C417 H410 0.950 . S
C417 C414 1.387 . S
C418 C419 1.387 . S
C418 H422 0.950 . S
C418 C427 1.390 . S
C419 C418 1.387 . S
C419 C421 1.387 . S
H420 C427 0.950 . S
C421 C419 1.387 . S
C421 C423 1.390 . S
C421 H425 0.950 . S
H422 C418 0.950 . S
C423 C421 1.390 . S
C423 C424 1.387 . S
C423 H426 0.950 . S
C424 C423 1.387 . S
C424 C427 1.387 . S
H425 C421 0.950 . S
H426 C423 0.950 . S
C427 C418 1.390 . S
C427 H420 0.950 . S
C427 C424 1.387 . S
C428 C429 1.387 . S
C428 H432 0.950 . S
C428 C437 1.390 . S
C429 C428 1.387 . S
C429 C431 1.387 . S
H430 C437 0.950 . S
C431 C429 1.387 . S
C431 C433 1.390 . S
C431 H435 0.950 . S
H432 C428 0.950 . S
C433 C431 1.390 . S
C433 C434 1.387 . S
C433 H436 0.950 . S
C434 C433 1.387 . S
C434 C437 1.387 . S
H435 C431 0.950 . S
H436 C433 0.950 . S
C437 C428 1.390 . S
C437 H430 0.950 . S
C437 C434 1.387 . S
C438 C439 1.387 . S
C438 H442 0.950 . S
C438 C447 1.390 . S
C439 C438 1.387 . S
C439 C441 1.387 . S
H440 C447 0.950 . S
C441 C439 1.387 . S
C441 C443 1.390 . S
C441 H445 0.950 . S
H442 C438 0.950 . S
C443 C441 1.390 . S
C443 C444 1.387 . S
C443 H446 0.950 . S
C444 C443 1.387 . S
C444 C447 1.387 . S
H445 C441 0.950 . S
H446 C443 0.950 . S
C447 C438 1.390 . S
C447 H440 0.950 . S
C447 C444 1.387 . S
C448 C449 1.387 . S
C448 H452 0.950 . S
C448 C457 1.390 . S
C449 C448 1.387 . S
C449 C451 1.387 . S
H450 C457 0.950 . S
C451 C449 1.387 . S
C451 C453 1.390 . S
C451 H455 0.950 . S
H452 C448 0.950 . S
C453 C451 1.390 . S
C453 C454 1.387 . S
C453 H456 0.950 . S
C454 C453 1.387 . S
C454 C457 1.387 . S
H455 C451 0.950 . S
H456 C453 0.950 . S
C457 C448 1.390 . S
C457 H450 0.950 . S
C457 C454 1.387 . S
C458 C459 1.387 . S
C458 H462 0.950 . S
C458 C467 1.390 . S
C459 C458 1.387 . S
C459 C461 1.387 . S
H460 C467 0.950 . S
C461 C459 1.387 . S
C461 C463 1.390 . S
C461 H465 0.950 . S
H462 C458 0.950 . S
C463 C461 1.390 . S
C463 C464 1.387 . S
C463 H466 0.950 . S
C464 C463 1.387 . S
C464 C467 1.387 . S
H465 C461 0.950 . S
H466 C463 0.950 . S
C467 C458 1.390 . S
C467 H460 0.950 . S
C467 C464 1.387 . S
C468 C469 1.387 . S
C468 H472 0.950 . S
C468 C477 1.390 . S
C469 C468 1.387 . S
C469 C471 1.387 . S
H470 C477 0.950 . S
C471 C469 1.387 . S
C471 C473 1.390 . S
C471 H475 0.950 . S
H472 C468 0.950 . S
C473 C471 1.390 . S
C473 C474 1.387 . S
C473 H476 0.950 . S
C474 C473 1.387 . S
C474 C477 1.387 . S
H475 C471 0.950 . S
H476 C473 0.950 . S
C477 C468 1.390 . S
C477 H470 0.950 . S
C477 C474 1.387 . S
C478 C479 1.387 . S
C478 H482 0.950 . S
C478 C487 1.390 . S
C479 C478 1.387 . S
C479 C481 1.387 . S
H480 C487 0.950 . S
C481 C479 1.387 . S
C481 C483 1.390 . S
C481 H485 0.950 . S
H482 C478 0.950 . S
C483 C481 1.390 . S
C483 C484 1.387 . S
C483 H486 0.950 . S
C484 C483 1.387 . S
C484 C487 1.387 . S
H485 C481 0.950 . S
H486 C483 0.950 . S
C487 C478 1.390 . S
C487 H480 0.950 . S
C487 C484 1.387 . S
C488 C489 1.387 . S
C488 H492 0.950 . S
C488 C497 1.390 . S
C489 C488 1.387 . S
C489 C491 1.387 . S
H490 C497 0.950 . S
C491 C489 1.387 . S
C491 C493 1.390 . S
C491 H495 0.950 . S
H492 C488 0.950 . S
C493 C491 1.390 . S
C493 C494 1.387 . S
C493 H496 0.950 . S
C494 C493 1.387 . S
C494 C497 1.387 . S
H495 C491 0.950 . S
H496 C493 0.950 . S
C497 C488 1.390 . S
C497 H490 0.950 . S
C497 C494 1.387 . S
C498 C499 1.387 . S
C498 H502 0.950 . S
C498 C507 1.390 . S
C499 C498 1.387 . S
C499 C501 1.387 . S
H500 C507 0.950 . S
C501 C499 1.387 . S
C501 C503 1.390 . S
C501 H505 0.950 . S
H502 C498 0.950 . S
C503 C501 1.390 . S
C503 C504 1.387 . S
C503 H506 0.950 . S
C504 C503 1.387 . S
C504 C507 1.387 . S
H505 C501 0.950 . S
H506 C503 0.950 . S
C507 C498 1.390 . S
C507 H500 0.950 . S
C507 C504 1.387 . S
C508 C509 1.387 . S
C508 H512 0.950 . S
C508 C517 1.390 . S
C509 C508 1.387 . S
C509 C511 1.387 . S
H510 C517 0.950 . S
C511 C509 1.387 . S
C511 C513 1.390 . S
C511 H515 0.950 . S
H512 C508 0.950 . S
C513 C511 1.390 . S
C513 C514 1.387 . S
C513 H516 0.950 . S
C514 C513 1.387 . S
C514 C517 1.387 . S
H515 C511 0.950 . S
H516 C513 0.950 . S
C517 C508 1.390 . S
C517 H510 0.950 . S
C517 C514 1.387 . S
C518 C519 1.387 . S
C518 H522 0.950 . S
C518 C527 1.390 . S
C519 C518 1.387 . S
C519 C521 1.387 . S
H520 C527 0.950 . S
C521 C519 1.387 . S
C521 C523 1.390 . S
C521 H525 0.950 . S
H522 C518 0.950 . S
C523 C521 1.390 . S
C523 C524 1.387 . S
C523 H526 0.950 . S
C524 C523 1.387 . S
C524 C527 1.387 . S
H525 C521 0.950 . S
H526 C523 0.950 . S
C527 C518 1.390 . S
C527 H520 0.950 . S
C527 C524 1.387 . S
C528 C529 1.387 . S
C528 H532 0.959 . S
C528 C537 1.390 1_655 S
C529 C528 1.387 . S
C529 C531 1.387 . S
H530 C537 0.959 . S
C531 C529 1.387 . S
C531 C533 1.390 1_655 S
C531 H535 0.950 . S
H532 C528 0.959 . S
C533 C531 1.390 1_455 S
C533 C534 1.387 . S
C533 H536 0.950 . S
C534 C533 1.387 . S
C534 C537 1.387 . S
H535 C531 0.950 . S
H536 C533 0.950 . S
C537 C528 1.390 1_455 S
C537 H530 0.959 . S
C537 C534 1.387 . S
C538 C539 1.387 . S
C538 H542 0.950 . S
C538 C547 1.390 1_655 S
C539 C538 1.387 . S
C539 C541 1.387 . S
H540 C547 0.950 . S
C541 C539 1.387 . S
C541 C543 1.390 1_655 S
C541 H545 0.950 . S
H542 C538 0.950 . S
C543 C541 1.390 1_455 S
C543 C544 1.387 . S
C543 H546 0.950 . S
C544 C543 1.387 . S
C544 C547 1.387 . S
H545 C541 0.950 . S
H546 C543 0.950 . S
C547 C538 1.390 1_455 S
C547 H540 0.950 . S
C547 C544 1.387 . S
C548 C549 1.387 . S
C548 H552 0.950 . S
C548 C557 1.390 . S
C549 C548 1.387 . S
C549 C551 1.387 . S
H550 C557 0.950 . S
C551 C549 1.387 . S
C551 C553 1.390 . S
C551 H555 0.950 . S
H552 C548 0.950 . S
C553 C551 1.390 . S
C553 C554 1.387 . S
C553 H556 0.950 . S
C554 C553 1.387 . S
C554 C557 1.387 . S
H555 C551 0.950 . S
H556 C553 0.950 . S
C557 C548 1.390 . S
C557 H550 0.950 . S
C557 C554 1.387 . S
C558 C559 1.387 . S
C558 H562 0.950 . S
C558 C567 1.390 . S
C559 C558 1.387 . S
C559 C561 1.387 . S
H560 C567 0.950 . S
C561 C559 1.387 . S
C561 C563 1.390 . S
C561 H565 0.950 . S
H562 C558 0.950 . S
C563 C561 1.390 . S
C563 C564 1.387 . S
C563 H566 0.950 . S
C564 C563 1.387 . S
C564 C567 1.387 . S
H565 C561 0.950 . S
H566 C563 0.950 . S
C567 C558 1.390 . S
C567 H560 0.950 . S
C567 C564 1.387 . S
C568 C569 1.387 . S
C568 H572 0.950 . S
C568 C577 1.390 1_455 S
C569 C568 1.387 . S
C569 C571 1.387 . S
H570 C577 0.950 . S
C571 C569 1.387 . S
C571 C573 1.390 1_455 S
C571 H575 0.959 . S
H572 C568 0.950 . S
C573 C571 1.390 1_655 S
C573 C574 1.387 . S
C573 H576 0.959 . S
C574 C573 1.387 . S
C574 C577 1.387 . S
H575 C571 0.959 . S
H576 C573 0.959 . S
C577 C568 1.390 1_655 S
C577 H570 0.950 . S
C577 C574 1.387 . S
C578 C579 1.387 . S
C578 H582 0.950 . S
C578 C587 1.390 . S
C579 C578 1.387 . S
C579 C581 1.387 . S
H580 C587 0.950 . S
C581 C579 1.387 . S
C581 C583 1.390 . S
C581 H585 0.950 . S
H582 C578 0.950 . S
C583 C581 1.390 . S
C583 C584 1.387 . S
C583 H586 0.950 . S
C584 C583 1.387 . S
C584 C587 1.387 . S
H585 C581 0.950 . S
H586 C583 0.950 . S
C587 C578 1.390 . S
C587 H580 0.950 . S
C587 C584 1.387 . S
C588 C589 1.387 . S
C588 H592 0.950 . S
C588 C597 1.390 . S
C589 C588 1.387 . S
C589 C591 1.387 . S
H590 C597 0.950 . S
C591 C589 1.387 . S
C591 C593 1.390 . S
C591 H595 0.950 . S
H592 C588 0.950 . S
C593 C591 1.390 . S
C593 C594 1.387 . S
C593 H596 0.950 . S
C594 C593 1.387 . S
C594 C597 1.387 . S
H595 C591 0.950 . S
H596 C593 0.950 . S
C597 C588 1.390 . S
C597 H590 0.950 . S
C597 C594 1.387 . S
C598 C599 1.387 . S
C598 H602 0.950 . S
C598 C607 1.390 1_455 S
C599 C598 1.387 . S
C599 C601 1.387 . S
H600 C607 0.950 . S
C601 C599 1.387 . S
C601 C603 1.390 1_455 S
C601 H605 0.950 . S
H602 C598 0.950 . S
C603 C601 1.390 1_655 S
C603 C604 1.387 . S
C603 H606 0.950 . S
C604 C603 1.387 . S
C604 C607 1.387 . S
H605 C601 0.950 . S
H606 C603 0.950 . S
C607 C598 1.390 1_655 S
C607 H600 0.950 . S
C607 C604 1.387 . S
C608 C609 1.387 . S
C608 H612 0.950 . S
C608 C617 1.390 1_544 S
C609 C608 1.387 . S
C609 C611 1.387 1_455 S
H610 C617 0.950 . S
C611 C609 1.387 1_655 S
C611 C613 1.390 1_544 S
C611 H615 0.950 . S
H612 C608 0.950 . S
C613 C611 1.390 1_566 S
C613 C614 1.387 1_655 S
C613 H616 0.950 . S
C614 C613 1.387 1_455 S
C614 C617 1.387 . S
H615 C611 0.950 . S
H616 C613 0.950 . S
C617 C608 1.390 1_566 S
C617 H610 0.950 . S
C617 C614 1.387 . S
C618 C619 1.387 . S
C618 H622 0.950 . S
C618 C627 1.390 . S
C619 C618 1.387 . S
C619 C621 1.387 . S
H620 C627 0.950 . S
C621 C619 1.387 . S
C621 C623 1.390 . S
C621 H625 0.950 . S
H622 C618 0.950 . S
C623 C621 1.390 . S
C623 C624 1.387 . S
C623 H626 0.950 . S
C624 C623 1.387 . S
C624 C627 1.387 . S
H625 C621 0.950 . S
H626 C623 0.950 . S
C627 C618 1.390 . S
C627 H620 0.950 . S
C627 C624 1.387 . S
C628 C629 1.387 . S
C628 H632 0.950 . S
C628 C637 1.390 1_545 S
C629 C628 1.387 . S
C629 C631 1.387 . S
H630 C637 0.950 . S
C631 C629 1.387 . S
C631 C633 1.390 1_545 S
C631 H635 0.950 . S
H632 C628 0.950 . S
C633 C631 1.390 1_565 S
C633 C634 1.387 . S
C633 H636 0.950 . S
C634 C633 1.387 . S
C634 C637 1.387 . S
H635 C631 0.950 . S
H636 C633 0.950 . S
C637 C628 1.390 1_565 S
C637 H630 0.950 . S
C637 C634 1.387 . S
C638 C639 1.387 . S
C638 H642 0.950 . S
C638 C647 1.390 . S
C639 C638 1.387 . S
C639 C641 1.387 . S
H640 C647 0.950 . S
C641 C639 1.387 . S
C641 C643 1.390 . S
C641 H645 0.950 . S
H642 C638 0.950 . S
C643 C641 1.390 . S
C643 C644 1.387 . S
C643 H646 0.950 . S
C644 C643 1.387 . S
C644 C647 1.387 . S
H645 C641 0.950 . S
H646 C643 0.950 . S
C647 C638 1.390 . S
C647 H640 0.950 . S
C647 C644 1.387 . S
C648 C649 1.387 . S
C648 H652 0.950 . S
C648 C657 1.390 . S
C649 C648 1.387 . S
C649 C651 1.387 . S
H650 C657 0.950 . S
C651 C649 1.387 . S
C651 C653 1.390 . S
C651 H655 0.950 . S
H652 C648 0.950 . S
C653 C651 1.390 . S
C653 C654 1.387 . S
C653 H656 0.950 . S
C654 C653 1.387 . S
C654 C657 1.387 . S
H655 C651 0.950 . S
H656 C653 0.950 . S
C657 C648 1.390 . S
C657 H650 0.950 . S
C657 C654 1.387 . S
C658 C659 1.387 . S
C658 H662 0.950 . S
C658 C667 1.390 . S
C659 C658 1.387 . S
C659 C661 1.387 . S
H660 C667 0.950 . S
C661 C659 1.387 . S
C661 C663 1.390 . S
C661 H665 0.950 . S
H662 C658 0.950 . S
C663 C661 1.390 . S
C663 C664 1.387 . S
C663 H666 0.950 . S
C664 C663 1.387 . S
C664 C667 1.387 . S
H665 C661 0.950 . S
H666 C663 0.950 . S
C667 C658 1.390 . S
C667 H660 0.950 . S
C667 C664 1.387 . S
C668 C669 1.387 . S
C668 H672 0.950 . S
C668 C677 1.390 . S
C669 C668 1.387 . S
C669 C671 1.387 . S
H670 C677 0.950 . S
C671 C669 1.387 . S
C671 C673 1.390 . S
C671 H675 0.950 . S
H672 C668 0.950 . S
C673 C671 1.390 . S
C673 C674 1.387 . S
C673 H676 0.950 . S
C674 C673 1.387 . S
C674 C677 1.387 . S
H675 C671 0.950 . S
H676 C673 0.950 . S
C677 C668 1.390 . S
C677 H670 0.950 . S
C677 C674 1.387 . S
C678 C679 1.387 1_455 S
C678 H682 0.950 . S
C678 C687 1.390 1_556 S
C679 C678 1.387 1_655 S
C679 C681 1.387 . S
H680 C687 0.950 . S
C681 C679 1.387 . S
C681 C683 1.390 1_556 S
C681 H685 0.950 . S
H682 C678 0.950 . S
C683 C681 1.390 1_554 S
C683 C684 1.387 . S
C683 H686 0.950 . S
C684 C683 1.387 . S
C684 C687 1.387 1_655 S
H685 C681 0.950 . S
H686 C683 0.950 . S
C687 C678 1.390 1_554 S
C687 H680 0.950 . S
C687 C684 1.387 1_455 S
C688 C689 1.387 . S
C688 H692 0.950 . S
C688 C697 1.390 . S
C689 C688 1.387 . S
C689 C691 1.387 . S
H690 C697 0.950 . S
C691 C689 1.387 . S
C691 C693 1.390 . S
C691 H695 0.950 . S
H692 C688 0.950 . S
C693 C691 1.390 . S
C693 C694 1.387 . S
C693 H696 0.950 . S
C694 C693 1.387 . S
C694 C697 1.387 . S
H695 C691 0.950 . S
H696 C693 0.950 . S
C697 C688 1.390 . S
C697 H690 0.950 . S
C697 C694 1.387 . S
C698 C699 1.387 . S
C698 H702 0.950 . S
C698 C707 1.390 . S
C699 C698 1.387 . S
C699 C701 1.387 . S
H700 C707 0.950 . S
C701 C699 1.387 . S
C701 C703 1.390 . S
C701 H705 0.950 . S
H702 C698 0.950 . S
C703 C701 1.390 . S
C703 C704 1.387 . S
C703 H706 0.950 . S
C704 C703 1.387 . S
C704 C707 1.387 . S
H705 C701 0.950 . S
H706 C703 0.950 . S
C707 C698 1.390 . S
C707 H700 0.950 . S
C707 C704 1.387 . S
C708 C709 1.387 . S
C708 H712 0.950 1_556 S
C708 C717 1.390 . S
C709 C708 1.387 . S
C709 C711 1.387 . S
H710 C717 0.950 . S
C711 C709 1.387 . S
C711 C713 1.390 . S
C711 H715 0.950 . S
H712 C708 0.950 1_554 S
C713 C711 1.390 . S
C713 C714 1.387 . S
C713 H716 0.950 . S
C714 C713 1.387 . S
C714 C717 1.387 . S
H715 C711 0.950 . S
H716 C713 0.950 . S
C717 C708 1.390 . S
C717 H710 0.950 . S
C717 C714 1.387 . S
C718 C719 1.387 . S
C718 H722 0.950 . S
C718 C727 1.390 . S
C719 C718 1.387 . S
C719 C721 1.387 . S
H720 C727 0.950 . S
C721 C719 1.387 . S
C721 C723 1.390 . S
C721 H725 0.950 . S
H722 C718 0.950 . S
C723 C721 1.390 . S
C723 C724 1.387 . S
C723 H726 0.950 . S
C724 C723 1.387 . S
C724 C727 1.387 . S
H725 C721 0.950 . S
H726 C723 0.950 . S
C727 C718 1.390 . S
C727 H720 0.950 . S
C727 C724 1.387 . S
C728 C729 1.387 . S
C728 H732 0.950 . S
C728 C737 1.390 . S
C729 C728 1.387 . S
C729 C731 1.387 . S
H730 C737 0.950 . S
C731 C729 1.387 . S
C731 C733 1.390 . S
C731 H735 0.950 . S
H732 C728 0.950 . S
C733 C731 1.390 . S
C733 C734 1.387 . S
C733 H736 0.950 . S
C734 C733 1.387 . S
C734 C737 1.387 . S
H735 C731 0.950 . S
H736 C733 0.950 . S
C737 C728 1.390 . S
C737 H730 0.950 . S
C737 C734 1.387 . S
C738 C739 1.387 . S
C738 H742 0.950 . S
C738 C747 1.390 . S
C739 C738 1.387 . S
C739 C741 1.387 . S
H740 C747 0.950 . S
C741 C739 1.387 . S
C741 C743 1.390 . S
C741 H745 0.950 . S
H742 C738 0.950 . S
C743 C741 1.390 . S
C743 C744 1.387 . S
C743 H746 0.950 . S
C744 C743 1.387 . S
C744 C747 1.387 . S
H745 C741 0.950 . S
H746 C743 0.950 . S
C747 C738 1.390 . S
C747 H740 0.950 . S
C747 C744 1.387 . S
C748 C749 1.387 . S
C748 H752 0.950 . S
C748 C757 1.390 . S
C749 C748 1.387 . S
C749 C751 1.387 . S
H750 C757 0.950 . S
C751 C749 1.387 . S
C751 C753 1.390 . S
C751 H755 0.950 . S
H752 C748 0.950 . S
C753 C751 1.390 . S
C753 C754 1.387 . S
C753 H756 0.950 . S
C754 C753 1.387 . S
C754 C757 1.387 . S
H755 C751 0.950 . S
H756 C753 0.950 . S
C757 C748 1.390 . S
C757 H750 0.950 . S
C757 C754 1.387 . S
C758 C759 1.387 . S
C758 H762 0.950 . S
C758 C767 1.390 . S
C759 C758 1.387 . S
C759 C761 1.387 . S
H760 C767 0.950 . S
C761 C759 1.387 . S
C761 C763 1.390 . S
C761 H765 0.950 . S
H762 C758 0.950 . S
C763 C761 1.390 . S
C763 C764 1.387 . S
C763 H766 0.950 . S
C764 C763 1.387 . S
C764 C767 1.387 . S
H765 C761 0.950 . S
H766 C763 0.950 . S
C767 C758 1.390 . S
C767 H760 0.950 . S
C767 C764 1.387 . S
C768 C769 1.387 . S
C768 H772 0.950 . S
C768 C777 1.390 . S
C769 C768 1.387 . S
C769 C771 1.387 . S
H770 C777 0.950 . S
C771 C769 1.387 . S
C771 C773 1.390 . S
C771 H775 0.950 . S
H772 C768 0.950 . S
C773 C771 1.390 . S
C773 C774 1.387 . S
C773 H776 0.948 1_556 S
C774 C773 1.387 . S
C774 C777 1.387 . S
H775 C771 0.950 . S
H776 C773 0.948 1_554 S
C777 C768 1.390 . S
C777 H770 0.950 . S
C777 C774 1.387 . S
C778 C779 1.387 . S
C778 H782 0.950 . S
C778 C787 1.390 . S
C779 C778 1.387 . S
C779 C781 1.387 . S
H780 C787 0.950 . S
C781 C779 1.387 . S
C781 C783 1.390 . S
C781 H785 0.950 . S
H782 C778 0.950 . S
C783 C781 1.390 . S
C783 C784 1.387 . S
C783 H786 0.950 . S
C784 C783 1.387 . S
C784 C787 1.387 . S
H785 C781 0.950 . S
H786 C783 0.950 . S
C787 C778 1.390 . S
C787 H780 0.950 . S
C787 C784 1.387 . S
C788 C789 1.387 . S
C788 H792 0.950 . S
C788 C797 1.390 . S
C789 C788 1.387 . S
C789 C791 1.387 . S
H790 C797 0.950 . S
C791 C789 1.387 . S
C791 C793 1.390 . S
C791 H795 0.950 . S
H792 C788 0.950 . S
C793 C791 1.390 . S
C793 C794 1.387 . S
C793 H796 0.950 . S
C794 C793 1.387 . S
C794 C797 1.387 . S
H795 C791 0.950 . S
H796 C793 0.950 . S
C797 C788 1.390 . S
C797 H790 0.950 . S
C797 C794 1.387 . S
C798 C799 1.387 . S
C798 H802 0.950 . S
C798 C807 1.390 . S
C799 C798 1.387 . S
C799 C801 1.387 . S
H800 C807 0.950 . S
C801 C799 1.387 . S
C801 C803 1.390 . S
C801 H805 0.950 . S
H802 C798 0.950 . S
C803 C801 1.390 . S
C803 C804 1.387 . S
C803 H806 0.950 . S
C804 C803 1.387 . S
C804 C807 1.387 . S
H805 C801 0.950 . S
H806 C803 0.950 . S
C807 C798 1.390 . S
C807 H800 0.950 . S
C807 C804 1.387 . S
C808 C809 1.387 . S
C808 H812 0.950 . S
C808 C817 1.390 . S
C809 C808 1.387 . S
C809 C811 1.387 . S
H810 C817 0.950 . S
C811 C809 1.387 . S
C811 C813 1.390 . S
C811 H815 0.950 . S
H812 C808 0.950 . S
C813 C811 1.390 . S
C813 C814 1.387 . S
C813 H816 0.950 . S
C814 C813 1.387 . S
C814 C817 1.387 . S
H815 C811 0.950 . S
H816 C813 0.950 . S
C817 C808 1.390 . S
C817 H810 0.950 . S
C817 C814 1.387 . S
C818 C819 1.387 . S
C818 H822 0.950 . S
C818 C827 1.390 . S
C819 C818 1.387 . S
C819 C821 1.387 . S
H820 C827 0.950 . S
C821 C819 1.387 . S
C821 C823 1.390 . S
C821 H825 0.950 . S
H822 C818 0.950 . S
C823 C821 1.390 . S
C823 C824 1.387 . S
C823 H826 0.950 . S
C824 C823 1.387 . S
C824 C827 1.387 . S
H825 C821 0.950 . S
H826 C823 0.950 . S
C827 C818 1.390 . S
C827 H820 0.950 . S
C827 C824 1.387 . S
C828 C829 1.387 . S
C828 H832 0.950 . S
C828 C837 1.390 . S
C829 C828 1.387 . S
C829 C831 1.387 . S
H830 C837 0.950 . S
C831 C829 1.387 . S
C831 C833 1.390 . S
C831 H835 0.950 . S
H832 C828 0.950 . S
C833 C831 1.390 . S
C833 C834 1.387 . S
C833 H836 0.950 . S
C834 C833 1.387 . S
C834 C837 1.387 . S
H835 C831 0.950 . S
H836 C833 0.950 . S
C837 C828 1.390 . S
C837 H830 0.950 . S
C837 C834 1.387 . S
C838 C839 1.387 . S
C838 H842 0.950 . S
C838 C847 1.390 . S
C839 C838 1.387 . S
C839 C841 1.387 . S
H840 C847 0.950 . S
C841 C839 1.387 . S
C841 C843 1.390 . S
C841 H845 0.950 . S
H842 C838 0.950 . S
C843 C841 1.390 . S
C843 C844 1.387 . S
C843 H846 0.950 . S
C844 C843 1.387 . S
C844 C847 1.387 . S
H845 C841 0.950 . S
H846 C843 0.950 . S
C847 C838 1.390 . S
C847 H840 0.950 . S
C847 C844 1.387 . S
C369 C17 1.140 . S
C374 C178 1.137 . S
C379 C40 1.139 . S
C384 C109 1.139 . S
C389 C132 1.140 . S
C394 C63 1.138 . S
C399 C86 1.140 . S
C404 C155 1.138 . S
C409 C274 1.468 . S
C414 C113 1.472 . S
C419 C205 1.469 . S
C424 C21 1.474 . S
C429 C251 1.467 . S
C434 C159 1.469 . S
C439 C67 1.464 . S
C444 C228 1.468 . S
C449 C224 1.140 . S
C454 C293 1.138 . S
C459 C247 1.137 . S
C464 C339 1.140 . S
C469 C316 1.140 . S
C474 C201 1.137 . S
C479 C270 1.137 . S
C484 C362 1.140 . S
C489 C343 1.469 . S
C494 C90 1.466 . S
C499 C297 1.468 . S
C504 C136 1.467 . S
C509 C44 1.465 . S
C514 C366 1.477 . S
C519 C182 1.468 . S
C524 C320 1.472 . S
C529 C318 0.669 . S
C534 C19 0.669 . S
C539 C272 0.659 . S
C544 C42 0.659 . S
C549 C295 0.669 . S
C554 C65 0.669 . S
C559 C249 0.659 . S
C564 C88 0.659 . S
C569 C111 0.659 . S
C574 C364 0.659 . S
C579 C226 0.669 . S
C584 C134 0.669 . S
C589 C157 0.669 . S
C594 C341 0.669 . S
C599 C180 0.659 . S
C604 C203 0.659 . S
C609 C20 1.093 . S
C614 C112 1.093 . S
C619 C43 1.097 . S
C624 C135 1.097 . S
C629 C158 1.097 . S
C634 C66 1.097 . S
C639 C89 1.093 . S
C644 C181 1.093 . S
C649 C250 1.097 . S
C654 C204 1.097 . S
C659 C273 1.097 . S
C664 C227 1.097 . S
C669 C296 1.093 . S
C674 C342 1.093 . S
C679 C365 1.090 1_655 S
C684 C319 1.090 1_655 S
C689 C18 1.684 . S
C694 C179 1.684 . S
C699 C41 1.683 . S
C704 C110 1.683 . S
C709 C133 1.683 . S
C714 C64 1.683 . S
C719 C156 1.684 . S
C724 C87 1.684 . S
C729 C269 1.624 . S
C734 C108 1.627 . S
C739 C200 1.627 . S
C744 C16 1.626 . S
C749 C246 1.627 . S
C754 C154 1.625 . S
C759 C62 1.624 . S
C764 C223 1.627 . S
C769 C294 1.683 . S
C774 C225 1.682 . S
C779 C340 1.684 . S
C784 C248 1.684 . S
C789 C317 1.682 . S
C794 C202 1.682 . S
C799 C363 1.682 . S
C804 C271 1.682 . S
C809 C338 1.625 . S
C814 C85 1.627 . S
C819 C131 1.624 . S
C824 C292 1.627 . S
C829 C39 1.624 . S
C834 C361 1.627 . S
C839 C315 1.625 . S
C844 C177 1.627 . S
