# Generated by pormake.
# Topology dia, (4)-cn, num edge types: 1
# Building blocks:
#     Node 0, Type 0, BuildingBlock: GALJAG_clean_sbu_0, # of connection points: 4
#     Node 1, Type 0, BuildingBlock: GALJAG_clean_sbu_0, # of connection points: 4
#     Node 2, Type 0, BuildingBlock: GALJAG_clean_sbu_0, # of connection points: 4
#     Node 3, Type 0, BuildingBlock: GALJAG_clean_sbu_0, # of connection points: 4
#     Node 4, Type 0, BuildingBlock: GALJAG_clean_sbu_0, # of connection points: 4
#     Node 5, Type 0, BuildingBlock: GALJAG_clean_sbu_0, # of connection points: 4
#     Node 6, Type 0, BuildingBlock: GALJAG_clean_sbu_0, # of connection points: 4
#     Node 7, Type 0, BuildingBlock: GALJAG_clean_sbu_0, # of connection points: 4
#     Edge 8, Type (0, 0), BuildingBlock: MIFKUJ_clean_linker_0, # of connection points: 2
#     Edge 9, Type (0, 0), BuildingBlock: MIFKUJ_clean_linker_0, # of connection points: 2
#     Edge 10, Type (0, 0), BuildingBlock: MIFKUJ_clean_linker_0, # of connection points: 2
#     Edge 11, Type (0, 0), BuildingBlock: MIFKUJ_clean_linker_0, # of connection points: 2
#     Edge 12, Type (0, 0), BuildingBlock: MIFKUJ_clean_linker_0, # of connection points: 2
#     Edge 13, Type (0, 0), BuildingBlock: MIFKUJ_clean_linker_0, # of connection points: 2
#     Edge 14, Type (0, 0), BuildingBlock: MIFKUJ_clean_linker_0, # of connection points: 2
#     Edge 15, Type (0, 0), BuildingBlock: MIFKUJ_clean_linker_0, # of connection points: 2
#     Edge 16, Type (0, 0), BuildingBlock: MIFKUJ_clean_linker_0, # of connection points: 2
#     Edge 17, Type (0, 0), BuildingBlock: MIFKUJ_clean_linker_0, # of connection points: 2
#     Edge 18, Type (0, 0), BuildingBlock: MIFKUJ_clean_linker_0, # of connection points: 2
#     Edge 19, Type (0, 0), BuildingBlock: MIFKUJ_clean_linker_0, # of connection points: 2
#     Edge 20, Type (0, 0), BuildingBlock: MIFKUJ_clean_linker_0, # of connection points: 2
#     Edge 21, Type (0, 0), BuildingBlock: MIFKUJ_clean_linker_0, # of connection points: 2
#     Edge 22, Type (0, 0), BuildingBlock: MIFKUJ_clean_linker_0, # of connection points: 2
#     Edge 23, Type (0, 0), BuildingBlock: MIFKUJ_clean_linker_0, # of connection points: 2
# Relax obj value: 0.058
# Max RMSD: 0.096
# Mean RMSD: 0.096
data_MOF--net-dia--node1-GALJAG_clean_sbu_0--edge1-MIFKUJ_clean_linker_0
_symmetry_space_group_name_H-M    P1
_symmetry_Int_Tables_number       1
_symmetry_cell_setting            triclinic
loop_
_symmetry_equiv_pos_as_xyz
'x, y, z'
_cell_length_a     29.438183
_cell_length_b     51.756797
_cell_length_c     51.708177
_cell_angle_alpha  89.981608
_cell_angle_beta   90.262305
_cell_angle_gamma 90.224384
loop_
_atom_site_label
_atom_site_type_symbol
_atom_site_fract_x
_atom_site_fract_y
_atom_site_fract_z
_atom_type_partial_charge
In0 In 0.12698 0.12048 0.62303 0.0
O1 O 0.18781 0.13912 0.60282 0.0
O2 O 0.12208 0.15508 0.59649 0.0
C3 C 0.16338 0.08393 0.65364 0.0
C4 C 0.09345 0.15208 0.65943 0.0
C5 C 0.08718 0.09025 0.58716 0.0
O6 O 0.18774 0.09985 0.64129 0.0
O7 O 0.12115 0.08653 0.65039 0.0
O8 O 0.06434 0.10204 0.6041 0.0
O9 O 0.12952 0.09384 0.58847 0.0
C10 C 0.164 0.15612 0.59163 0.0
O11 O 0.06803 0.14055 0.64332 0.0
O12 O 0.1353 0.14748 0.65713 0.0
In13 In 0.88907 0.37289 0.87364 0.0
O14 O 0.94973 0.35117 0.85673 0.0
O15 O 0.8842 0.34466 0.84037 0.0
C16 C 0.92715 0.40513 0.90835 0.0
C17 C 0.8504 0.40791 0.84202 0.0
C18 C 0.85113 0.33805 0.90546 0.0
O19 O 0.949 0.39676 0.88913 0.0
O20 O 0.88672 0.39722 0.90994 0.0
O21 O 0.82743 0.35279 0.89132 0.0
O22 O 0.89357 0.34093 0.90334 0.0
C23 C 0.92595 0.33934 0.84006 0.0
O24 O 0.82696 0.39312 0.85619 0.0
O25 O 0.89276 0.405 0.84403 0.0
In26 In 0.61841 0.12715 0.1214 0.0
O27 O 0.55784 0.1488 0.13824 0.0
O28 O 0.62419 0.15802 0.15216 0.0
C29 C 0.58147 0.09268 0.08856 0.0
C30 C 0.6584 0.15937 0.08757 0.0
C31 C 0.65169 0.09362 0.15629 0.0
O32 O 0.55727 0.10736 0.10231 0.0
O33 O 0.62375 0.09555 0.09147 0.0
O34 O 0.67722 0.10593 0.14095 0.0
O35 O 0.60988 0.09839 0.15398 0.0
C36 C 0.58209 0.1623 0.15336 0.0
O37 O 0.68117 0.14625 0.10365 0.0
O38 O 0.61596 0.15618 0.08874 0.0
In39 In 0.8611 0.87513 0.37211 0.0
O40 O 0.7986 0.89411 0.35362 0.0
O41 O 0.86402 0.90307 0.33863 0.0
C42 C 0.82831 0.84189 0.40734 0.0
C43 C 0.89746 0.84046 0.33971 0.0
C44 C 0.89853 0.9103 0.40409 0.0
O45 O 0.80239 0.85516 0.39299 0.0
O46 O 0.87024 0.84555 0.40382 0.0
O47 O 0.92236 0.89632 0.38944 0.0
O48 O 0.85628 0.90647 0.40246 0.0
C49 C 0.82175 0.90659 0.33724 0.0
O50 O 0.92158 0.85683 0.35174 0.0
O51 O 0.8554 0.84166 0.34415 0.0
In52 In 0.12238 0.62466 0.12797 0.0
O53 O 0.18522 0.64403 0.11041 0.0
O54 O 0.12147 0.6487 0.09147 0.0
C55 C 0.16093 0.59554 0.16504 0.0
C56 C 0.08174 0.66051 0.15752 0.0
C57 C 0.08412 0.58866 0.09718 0.0
O58 O 0.18399 0.60607 0.14732 0.0
O59 O 0.11877 0.59977 0.16394 0.0
O60 O 0.06304 0.60868 0.10416 0.0
O61 O 0.12387 0.58664 0.10612 0.0
C62 C 0.16335 0.65381 0.09175 0.0
O63 O 0.06021 0.64148 0.14819 0.0
O64 O 0.12325 0.66142 0.15173 0.0
In65 In 0.37435 0.37372 0.37574 0.0
O66 O 0.43349 0.35348 0.35594 0.0
O67 O 0.3663 0.34613 0.34212 0.0
C68 C 0.41332 0.40494 0.41104 0.0
C69 C 0.33951 0.40993 0.34423 0.0
C70 C 0.3366 0.3383 0.40708 0.0
O71 O 0.43663 0.3923 0.39495 0.0
O72 O 0.37099 0.40158 0.40927 0.0
O73 O 0.31288 0.35466 0.39491 0.0
O74 O 0.37881 0.33988 0.40325 0.0
C75 C 0.40824 0.3417 0.33991 0.0
O76 O 0.31449 0.39585 0.35827 0.0
O77 O 0.38152 0.4056 0.34619 0.0
In78 In 0.37242 0.87078 0.87511 0.0
O79 O 0.43448 0.85195 0.85659 0.0
O80 O 0.36861 0.83818 0.84617 0.0
C81 C 0.4064 0.90573 0.90837 0.0
C82 C 0.33707 0.90316 0.83977 0.0
C83 C 0.33635 0.83781 0.90953 0.0
O84 O 0.43173 0.89122 0.89508 0.0
O85 O 0.36431 0.90256 0.90471 0.0
O86 O 0.31198 0.84971 0.89323 0.0
O87 O 0.3783 0.84271 0.90836 0.0
C88 C 0.41097 0.83632 0.84325 0.0
O89 O 0.31214 0.88942 0.8542 0.0
O90 O 0.37919 0.90049 0.84336 0.0
In91 In 0.62943 0.62319 0.62605 0.0
O92 O 0.56847 0.64196 0.64565 0.0
O93 O 0.635 0.65432 0.65655 0.0
C94 C 0.59313 0.58991 0.59175 0.0
C95 C 0.66507 0.65753 0.5928 0.0
C96 C 0.66612 0.58961 0.65984 0.0
O97 O 0.56874 0.6032 0.60676 0.0
O98 O 0.63535 0.5935 0.59419 0.0
O99 O 0.69042 0.60393 0.64565 0.0
O100 O 0.62388 0.5923 0.65682 0.0
C101 C 0.59272 0.65667 0.6596 0.0
O102 O 0.68983 0.64294 0.60649 0.0
O103 O 0.62288 0.65463 0.59599 0.0
H104 H 0.3802 0.29803 0.42984 0.0
H105 H 0.34934 0.2669 0.46067 0.0
H106 H 0.21852 0.30391 0.45586 0.0
H107 H 0.24927 0.33524 0.42481 0.0
H108 H 0.24691 0.29465 0.50644 0.0
H109 H 0.23163 0.24786 0.42711 0.0
H110 H 0.25693 0.22948 0.38565 0.0
H111 H 0.35566 0.18323 0.42558 0.0
H112 H 0.33139 0.20163 0.46729 0.0
H113 H 0.11994 0.19664 0.56957 0.0
H114 H 0.14992 0.22778 0.5385 0.0
H115 H 0.28059 0.19045 0.54169 0.0
H116 H 0.25067 0.15903 0.57289 0.0
H117 H 0.25174 0.19994 0.49176 0.0
H118 H 0.26739 0.24686 0.57105 0.0
H119 H 0.2423 0.26528 0.61253 0.0
H120 H 0.14311 0.31133 0.57273 0.0
H121 H 0.16717 0.29289 0.53101 0.0
C122 C 0.34478 0.29948 0.43523 0.0
C123 C 0.31708 0.31903 0.42493 0.0
C124 C 0.32719 0.28164 0.45278 0.0
C125 C 0.28162 0.28303 0.46039 0.0
C126 C 0.25379 0.30253 0.45016 0.0
C127 C 0.27132 0.32031 0.4324 0.0
C128 C 0.26356 0.26443 0.47953 0.0
C129 C 0.24726 0.27395 0.5031 0.0
C130 C 0.26527 0.23744 0.47535 0.0
C131 C 0.27999 0.22633 0.45031 0.0
C132 C 0.25902 0.23395 0.42704 0.0
C133 C 0.27312 0.22349 0.4035 0.0
C134 C 0.30797 0.20525 0.40298 0.0
C135 C 0.32871 0.19739 0.42601 0.0
C136 C 0.31477 0.20781 0.44961 0.0
C137 C 0.15514 0.19511 0.56378 0.0
C138 C 0.18303 0.17543 0.57366 0.0
C139 C 0.17223 0.21298 0.54609 0.0
C140 C 0.21753 0.21151 0.53796 0.0
C141 C 0.24553 0.19189 0.54778 0.0
C142 C 0.22849 0.17406 0.56564 0.0
C143 C 0.23513 0.23015 0.5187 0.0
C144 C 0.25135 0.22063 0.4951 0.0
C145 C 0.23336 0.25715 0.52286 0.0
C146 C 0.21878 0.26828 0.54792 0.0
C147 C 0.23994 0.26074 0.57115 0.0
C148 C 0.22596 0.27122 0.59471 0.0
C149 C 0.19104 0.28941 0.59528 0.0
C150 C 0.17011 0.2972 0.57227 0.0
C151 C 0.18393 0.28676 0.54866 0.0
H152 H 0.18028 0.29751 0.61353 0.0
H153 H 0.31882 0.19717 0.38473 0.0
H154 H 0.75563 0.57922 0.66976 0.0
H155 H 0.78622 0.54824 0.70113 0.0
H156 H 0.65 0.5272 0.72354 0.0
H157 H 0.6193 0.55822 0.69252 0.0
H158 H 0.70397 0.53379 0.76523 0.0
H159 H 0.7103 0.48804 0.68475 0.0
H160 H 0.73051 0.48144 0.63901 0.0
H161 H 0.87218 0.48729 0.65839 0.0
H162 H 0.85277 0.49428 0.70423 0.0
H163 H 0.76031 0.41806 0.83348 0.0
H164 H 0.72802 0.44916 0.80276 0.0
H165 H 0.86306 0.47166 0.77947 0.0
H166 H 0.89542 0.44056 0.80981 0.0
H167 H 0.80847 0.46394 0.73818 0.0
H168 H 0.80126 0.50988 0.81899 0.0
H169 H 0.78017 0.51612 0.86465 0.0
H170 H 0.63895 0.50937 0.84451 0.0
H171 H 0.65925 0.50272 0.79875 0.0
C172 C 0.73227 0.56797 0.68139 0.0
C173 C 0.68511 0.57106 0.67865 0.0
C174 C 0.74974 0.55025 0.69922 0.0
C175 C 0.72033 0.53527 0.71449 0.0
C176 C 0.67327 0.53856 0.71196 0.0
C177 C 0.65581 0.55623 0.69416 0.0
C178 C 0.73849 0.51614 0.73315 0.0
C179 C 0.72638 0.51831 0.75928 0.0
C180 C 0.76827 0.49623 0.72542 0.0
C181 C 0.78006 0.49195 0.69788 0.0
C182 C 0.74575 0.48813 0.67923 0.0
C183 C 0.75706 0.48428 0.65329 0.0
C184 C 0.8026 0.48401 0.64579 0.0
C185 C 0.83692 0.48753 0.66423 0.0
C186 C 0.82579 0.49142 0.69019 0.0
C187 C 0.78304 0.4297 0.82184 0.0
C188 C 0.83035 0.42692 0.82405 0.0
C189 C 0.76459 0.44749 0.80438 0.0
C190 C 0.7932 0.46283 0.78896 0.0
C191 C 0.84041 0.46 0.79114 0.0
C192 C 0.85881 0.44227 0.80856 0.0
C193 C 0.77416 0.48167 0.77029 0.0
C194 C 0.78606 0.47942 0.74414 0.0
C195 C 0.74407 0.50145 0.778 0.0
C196 C 0.7318 0.50553 0.80549 0.0
C197 C 0.76573 0.50951 0.82433 0.0
C198 C 0.75392 0.51317 0.85022 0.0
C199 C 0.70826 0.51307 0.85749 0.0
C200 C 0.67431 0.5094 0.83886 0.0
C201 C 0.68594 0.50571 0.81294 0.0
H202 H 0.69918 0.51591 0.87755 0.0
H203 H 0.81129 0.48103 0.6257 0.0
H204 H 0.49188 0.0816 0.07916 0.0
H205 H 0.46115 0.04965 0.04868 0.0
H206 H 0.59731 0.02862 0.02671 0.0
H207 H 0.62813 0.06055 0.05683 0.0
H208 H 0.54339 0.03469 0.98498 0.0
H209 H 0.53674 0.99017 0.06633 0.0
H210 H 0.51587 0.98422 0.11209 0.0
H211 H 0.37446 0.98854 0.09186 0.0
H212 H 0.39453 0.99487 0.04601 0.0
H213 H 0.49523 0.91717 0.91918 0.0
H214 H 0.52415 0.94913 0.95013 0.0
H215 H 0.38681 0.96949 0.9703 0.0
H216 H 0.35771 0.93747 0.93964 0.0
H217 H 0.4402 0.96407 0.0129 0.0
H218 H 0.44764 0.00814 0.93118 0.0
H219 H 0.46934 0.01375 0.88552 0.0
H220 H 0.61039 0.00989 0.90662 0.0
H221 H 0.58951 0.0039 0.9524 0.0
C222 C 0.51518 0.07014 0.06782 0.0
C223 C 0.56236 0.07352 0.07037 0.0
C224 C 0.49763 0.05186 0.05051 0.0
C225 C 0.52701 0.03666 0.03559 0.0
C226 C 0.57408 0.04017 0.03802 0.0
C227 C 0.5916 0.05837 0.05529 0.0
C228 C 0.50891 0.01719 0.01724 0.0
C229 C 0.52125 0.01907 0.99113 0.0
C230 C 0.47933 0.99714 0.02522 0.0
C231 C 0.46716 0.99328 0.05277 0.0
C232 C 0.50121 0.99007 0.07167 0.0
C233 C 0.48952 0.98659 0.09762 0.0
C234 C 0.44387 0.98608 0.10489 0.0
C235 C 0.40981 0.98898 0.08621 0.0
C236 C 0.42132 0.9925 0.06023 0.0
C237 C 0.47125 0.92847 0.93022 0.0
C238 C 0.42425 0.92491 0.92695 0.0
C239 C 0.48778 0.94675 0.94782 0.0
C240 C 0.45757 0.96182 0.96232 0.0
C241 C 0.41066 0.95806 0.95929 0.0
C242 C 0.39412 0.93983 0.9417 0.0
C243 C 0.47481 0.98155 0.98066 0.0
C244 C 0.46229 0.97973 0.00676 0.0
C245 C 0.50434 0.00162 0.97269 0.0
C246 C 0.51699 0.00532 0.94518 0.0
C247 C 0.48327 0.00828 0.92606 0.0
C248 C 0.49543 0.01157 0.90016 0.0
C249 C 0.54121 0.01211 0.89316 0.0
C250 C 0.57494 0.00943 0.91207 0.0
C251 C 0.56297 0.00612 0.93799 0.0
H252 H 0.55055 0.01465 0.8731 0.0
H253 H 0.43489 0.98337 0.12498 0.0
H254 H 0.98374 0.83881 0.32052 0.0
H255 H 0.01391 0.80818 0.28884 0.0
H256 H 0.88441 0.76896 0.28613 0.0
H257 H 0.85399 0.79952 0.31762 0.0
H258 H 0.95803 0.73533 0.28973 0.0
H259 H 0.90982 0.80797 0.23887 0.0
H260 H 0.90635 0.85398 0.22669 0.0
H261 H 0.05025 0.85467 0.21347 0.0
H262 H 0.05469 0.80873 0.22596 0.0
H263 H 0.99533 0.66056 0.17672 0.0
H264 H 0.96265 0.69152 0.20721 0.0
H265 H 0.08848 0.73456 0.2078 0.0
H266 H 0.12115 0.70388 0.17726 0.0
H267 H 0.01548 0.7663 0.20507 0.0
H268 H 0.06462 0.69435 0.25645 0.0
H269 H 0.0693 0.6485 0.26909 0.0
H270 H 0.92532 0.64662 0.28194 0.0
H271 H 0.91968 0.6924 0.26898 0.0
C272 C 0.96181 0.8236 0.31323 0.0
C273 C 0.91651 0.82158 0.32142 0.0
C274 C 0.979 0.8062 0.29511 0.0
C275 C 0.95121 0.78648 0.28505 0.0
C276 C 0.90632 0.78408 0.29366 0.0
C277 C 0.889 0.80159 0.31157 0.0
C278 C 0.96876 0.76848 0.26531 0.0
C279 C 0.97005 0.74202 0.27108 0.0
C280 C 0.98524 0.77738 0.24124 0.0
C281 C 0.98265 0.80498 0.23362 0.0
C282 C 0.94079 0.81799 0.23359 0.0
C283 C 0.93864 0.84405 0.22659 0.0
C284 C 0.97807 0.85726 0.21938 0.0
C285 C 0.01974 0.84442 0.2191 0.0
C286 C 0.02209 0.81837 0.22612 0.0
C287 C 0.01586 0.67672 0.18324 0.0
C288 C 0.06082 0.67976 0.17474 0.0
C289 C 0.99726 0.69431 0.2007 0.0
C290 C 0.02337 0.71515 0.20995 0.0
C291 C 0.06781 0.71859 0.20091 0.0
C292 C 0.08644 0.701 0.18354 0.0
C293 C 0.00483 0.7331 0.22949 0.0
C294 C 0.00337 0.75957 0.22369 0.0
C295 C 0.98837 0.72422 0.25359 0.0
C296 C 0.99166 0.69672 0.26146 0.0
C297 C 0.03389 0.6841 0.26175 0.0
C298 C 0.03673 0.65814 0.26901 0.0
C299 C 0.99761 0.64463 0.27624 0.0
C300 C 0.95558 0.65709 0.27629 0.0
C301 C 0.95255 0.68305 0.269 0.0
H302 H -0.00012 0.62454 0.28187 0.0
H303 H 0.97633 0.87743 0.21395 0.0
H304 H 0.24824 0.91083 0.82586 0.0
H305 H 0.21927 0.94069 0.7929 0.0
H306 H 0.35617 0.96551 0.77636 0.0
H307 H 0.38523 0.93594 0.80923 0.0
H308 H 0.29904 0.0061 0.78108 0.0
H309 H 0.30246 0.92536 0.73568 0.0
H310 H 0.28543 0.8792 0.72864 0.0
H311 H 0.14252 0.89553 0.72826 0.0
H312 H 0.15869 0.94176 0.73566 0.0
H313 H 0.25274 0.07498 0.66525 0.0
H314 H 0.28313 0.04306 0.69571 0.0
H315 H 0.14707 0.01665 0.71213 0.0
H316 H 0.1166 0.04818 0.68155 0.0
H317 H 0.20463 0.97652 0.70698 0.0
H318 H 0.20155 0.05721 0.75323 0.0
H319 H 0.2189 0.10333 0.76028 0.0
H320 H 0.36175 0.08694 0.7591 0.0
H321 H 0.34524 0.04074 0.75168 0.0
C322 C 0.27208 0.92266 0.81517 0.0
C323 C 0.31896 0.92105 0.82008 0.0
C324 C 0.25555 0.93961 0.79631 0.0
C325 C 0.28566 0.95515 0.78208 0.0
C326 C 0.3324 0.95369 0.78712 0.0
C327 C 0.34892 0.93673 0.80587 0.0
C328 C 0.26858 0.97324 0.76211 0.0
C329 C 0.27889 -0.0004 0.76469 0.0
C330 C 0.24162 0.96476 0.74102 0.0
C331 C 0.23178 0.93699 0.73649 0.0
C332 C 0.26739 0.91908 0.73431 0.0
C333 C 0.25789 0.89291 0.73021 0.0
C334 C 0.21291 0.88443 0.72807 0.0
C335 C 0.17734 0.90212 0.72996 0.0
C336 C 0.18665 0.92831 0.73408 0.0
C337 C 0.22938 0.06227 0.67527 0.0
C338 C 0.18232 0.06415 0.67115 0.0
C339 C 0.24674 0.04412 0.6927 0.0
C340 C 0.21727 0.02769 0.70638 0.0
C341 C 0.17038 0.02914 0.70179 0.0
C342 C 0.15304 0.04724 0.68438 0.0
C343 C 0.23507 0.0094 0.72597 0.0
C344 C 0.22486 0.98301 0.72334 0.0
C345 C 0.26217 0.01783 0.74703 0.0
C346 C 0.27216 0.04557 0.75164 0.0
C347 C 0.23666 0.06347 0.75428 0.0
C348 C 0.24634 0.08962 0.75837 0.0
C349 C 0.2914 0.09807 0.76007 0.0
C350 C 0.32687 0.08037 0.75775 0.0
C351 C 0.31737 0.0542 0.75361 0.0
H352 H 0.29882 0.11832 0.76324 0.0
H353 H 0.20563 0.86416 0.7249 0.0
H354 H 0.90323 0.41027 0.95858 0.0
H355 H 0.93135 0.44197 0.98974 0.0
H356 H 0.02029 0.4739 0.93161 0.0
H357 H 0.99411 0.44095 0.90083 0.0
H358 H 0.06246 0.47547 0.97383 0.0
H359 H 0.91502 0.50276 0.94941 0.0
H360 H 0.83268 0.49921 0.9411 0.0
H361 H 0.80963 0.48261 0.02135 0.0
H362 H 0.89193 0.48573 0.03009 0.0
H363 H 0.01648 0.59639 0.06191 0.0
H364 H 0.99096 0.56653 0.0281 0.0
H365 H 0.08252 0.50844 0.05759 0.0
H366 H 0.10983 0.53875 0.09041 0.0
H367 H 0.95009 0.52401 0.02578 0.0
H368 H 0.12214 0.47023 0.01147 0.0
H369 H 0.2042 0.4798 0.0141 0.0
H370 H 0.17771 0.56029 0.00103 0.0
H371 H 0.09558 0.55116 0.99798 0.0
C372 C 0.92905 0.42395 0.95256 0.0
C373 C 0.94639 0.42335 0.92733 0.0
C374 C 0.94485 0.44221 0.9703 0.0
C375 C 0.97704 0.46087 0.96287 0.0
C376 C 0.99529 0.45982 0.9378 0.0
C377 C 0.98034 0.44104 0.92023 0.0
C378 C 0.99131 0.48147 0.98127 0.0
C379 C 0.03785 0.48612 0.98512 0.0
C380 C 0.95929 0.49607 0.99547 0.0
C381 C 0.9097 0.49428 0.99036 0.0
C382 C 0.89242 0.4982 0.96526 0.0
C383 C 0.84575 0.49628 0.96047 0.0
C384 C 0.81596 0.49064 0.98067 0.0
C385 C 0.83276 0.48696 0.00572 0.0
C386 C 0.87941 0.48883 0.0106 0.0
C387 C 0.03094 0.57719 0.06118 0.0
C388 C 0.06531 0.56988 0.07858 0.0
C389 C 0.01638 0.56013 0.04187 0.0
C390 C 0.03547 0.53537 0.03989 0.0
C391 C 0.06826 0.52768 0.05815 0.0
C392 C 0.08356 0.54492 0.07705 0.0
C393 C 0.02124 0.51758 0.01876 0.0
C394 C 0.97469 0.51346 0.0144 0.0
C395 C 0.05322 0.50441 0.00322 0.0
C396 C 0.10266 0.51002 0.00474 0.0
C397 C 0.13385 0.48995 0.00905 0.0
C398 C 0.18037 0.4953 0.01064 0.0
C399 C 0.19614 0.52064 0.00782 0.0
C400 C 0.16544 0.54068 0.00331 0.0
C401 C 0.1189 0.53543 0.00168 0.0
H402 H 0.23217 0.52474 0.00908 0.0
H403 H 0.77984 0.48915 0.97693 0.0
H404 H 0.49614 0.32643 0.33282 0.0
H405 H 0.52474 0.29662 0.29998 0.0
H406 H 0.38911 0.28764 0.26917 0.0
H407 H 0.36024 0.31696 0.30219 0.0
H408 H 0.42964 0.24205 0.2735 0.0
H409 H 0.46872 0.32508 0.23839 0.0
H410 H 0.5031 0.3686 0.23876 0.0
H411 H 0.63499 0.33553 0.25109 0.0
H412 H 0.6013 0.29181 0.25114 0.0
H413 H 0.49367 0.17784 0.15765 0.0
H414 H 0.4629 0.20937 0.1882 0.0
H415 H 0.5968 0.22092 0.22061 0.0
H416 H 0.62781 0.19 0.18983 0.0
H417 H 0.55544 0.26582 0.21447 0.0
H418 H 0.51628 0.18302 0.25093 0.0
H419 H 0.48212 0.13944 0.25084 0.0
H420 H 0.35061 0.17207 0.2362 0.0
H421 H 0.3841 0.21585 0.23587 0.0
C422 C 0.47249 0.31812 0.319 0.0
C423 C 0.42601 0.32403 0.32002 0.0
C424 C 0.48887 0.30119 0.3002 0.0
C425 C 0.45909 0.29013 0.28195 0.0
C426 C 0.41266 0.29596 0.28305 0.0
C427 C 0.39626 0.31276 0.30189 0.0
C428 C 0.47613 0.27213 0.26196 0.0
C429 C 0.45672 0.24737 0.26034 0.0
C430 C 0.51205 0.27891 0.24516 0.0
C431 C 0.53241 0.30518 0.245 0.0
C432 C 0.50501 0.3271 0.24137 0.0
C433 C 0.52438 0.3518 0.24147 0.0
C434 C 0.57118 0.35483 0.24501 0.0
C435 C 0.59873 0.33316 0.24838 0.0
C436 C 0.57952 0.30841 0.24832 0.0
C437 C 0.51648 0.18716 0.17128 0.0
C438 C 0.56308 0.18142 0.17144 0.0
C439 C 0.49887 0.20508 0.18877 0.0
C440 C 0.52749 0.21727 0.20689 0.0
C441 C 0.5741 0.21176 0.20681 0.0
C442 C 0.59174 0.19402 0.18926 0.0
C443 C 0.50911 0.23569 0.22609 0.0
C444 C 0.52826 0.26054 0.22757 0.0
C445 C 0.47298 0.22898 0.24279 0.0
C446 C 0.45277 0.20268 0.24312 0.0
C447 C 0.48013 0.18089 0.24751 0.0
C448 C 0.46088 0.15615 0.24756 0.0
C449 C 0.41424 0.15298 0.24345 0.0
C450 C 0.38673 0.17455 0.23935 0.0
C451 C 0.40582 0.19933 0.23924 0.0
H452 H 0.39941 0.13382 0.2435 0.0
H453 H 0.58612 0.37398 0.24508 0.0
H454 H 0.87851 0.80977 0.4376 0.0
H455 H 0.85119 0.77859 0.46943 0.0
H456 H 0.71291 0.80054 0.45273 0.0
H457 H 0.74011 0.832 0.42079 0.0
H458 H 0.7304 0.79684 0.50508 0.0
H459 H 0.7528 0.74545 0.42901 0.0
H460 H 0.79551 0.72844 0.39185 0.0
H461 H 0.89504 0.69624 0.44342 0.0
H462 H 0.85325 0.71339 0.4809 0.0
H463 H 0.61733 0.69152 0.56337 0.0
H464 H 0.64691 0.72314 0.53271 0.0
H465 H 0.78368 0.6986 0.54982 0.0
H466 H 0.75415 0.66659 0.58054 0.0
H467 H 0.76853 0.7038 0.49785 0.0
H468 H 0.74584 0.75443 0.57397 0.0
H469 H 0.7035 0.77145 0.61125 0.0
H470 H 0.60519 0.80518 0.55991 0.0
H471 H 0.64659 0.78802 0.5223 0.0
C472 C 0.84226 0.80798 0.44068 0.0
C473 C 0.81138 0.82325 0.42666 0.0
C474 C 0.82673 0.7901 0.45881 0.0
C475 C 0.78004 0.78709 0.46322 0.0
C476 C 0.7491 0.80256 0.44953 0.0
C477 C 0.76463 0.82044 0.43128 0.0
C478 C 0.76369 0.76783 0.48222 0.0
C479 C 0.73817 0.77644 0.50334 0.0
C480 C 0.77501 0.74135 0.48026 0.0
C481 C 0.80013 0.73093 0.45775 0.0
C482 C 0.784 0.73493 0.43242 0.0
C483 C 0.80801 0.72523 0.4113 0.0
C484 C 0.84803 0.71133 0.41527 0.0
C485 C 0.86407 0.70704 0.44038 0.0
C486 C 0.84022 0.71673 0.46157 0.0
C487 C 0.65373 0.69285 0.56066 0.0
C488 C 0.68348 0.67664 0.5744 0.0
C489 C 0.67057 0.71101 0.54321 0.0
C490 C 0.71749 0.71341 0.53923 0.0
C491 C 0.74734 0.69707 0.5527 0.0
C492 C 0.73047 0.67888 0.57026 0.0
C493 C 0.73506 0.73278 0.52068 0.0
C494 C 0.76084 0.7242 0.49964 0.0
C495 C 0.72404 0.7593 0.52275 0.0
C496 C 0.69911 0.76972 0.54532 0.0
C497 C 0.71499 0.76529 0.57063 0.0
C498 C 0.69119 0.775 0.59182 0.0
C499 C 0.65162 0.78933 0.58796 0.0
C500 C 0.63582 0.79404 0.56288 0.0
C501 C 0.65946 0.78435 0.54161 0.0
H502 H 0.63325 0.79683 0.60439 0.0
H503 H 0.86656 0.70383 0.39889 0.0
H504 H 0.2495 0.58048 0.16968 0.0
H505 H 0.28156 0.55068 0.20167 0.0
H506 H 0.15003 0.54288 0.23736 0.0
H507 H 0.11789 0.57278 0.20565 0.0
H508 H 0.21811 0.54699 0.27337 0.0
H509 H 0.18611 0.49746 0.19656 0.0
H510 H 0.19025 0.48733 0.15004 0.0
H511 H 0.33532 0.48074 0.15569 0.0
H512 H 0.33209 0.49121 0.2022 0.0
H513 H 0.25245 0.42804 0.34088 0.0
H514 H 0.22369 0.46158 0.3116 0.0
H515 H 0.35733 0.47027 0.27876 0.0
H516 H 0.38628 0.43698 0.30794 0.0
H517 H 0.28965 0.46636 0.24172 0.0
H518 H 0.32192 0.51454 0.31864 0.0
H519 H 0.31827 0.52449 0.36521 0.0
H520 H 0.17362 0.5335 0.35957 0.0
H521 H 0.17633 0.5232 0.313 0.0
C522 C 0.22753 0.57255 0.18447 0.0
C523 C 0.18115 0.57878 0.18507 0.0
C524 C 0.24583 0.5555 0.20267 0.0
C525 C 0.21801 0.54437 0.22169 0.0
C526 C 0.17204 0.55125 0.22283 0.0
C527 C 0.15372 0.56824 0.20463 0.0
C528 C 0.2363 0.52476 0.23977 0.0
C529 C 0.23332 0.52923 0.26649 0.0
C530 C 0.25689 0.50184 0.23072 0.0
C531 C 0.25889 0.49538 0.2028 0.0
C532 C 0.21892 0.49405 0.18784 0.0
C533 C 0.2211 0.48822 0.16148 0.0
C534 C 0.26304 0.48347 0.1499 0.0
C535 C 0.30287 0.48447 0.16468 0.0
C536 C 0.30088 0.49033 0.19104 0.0
C537 C 0.27563 0.43714 0.32742 0.0
C538 C 0.32157 0.42995 0.32668 0.0
C539 C 0.25924 0.45632 0.31081 0.0
C540 C 0.28852 0.46845 0.29316 0.0
C541 C 0.33426 0.46112 0.29226 0.0
C542 C 0.35072 0.44216 0.30898 0.0
C543 C 0.27141 0.48856 0.2753 0.0
C544 C 0.27455 0.48415 0.24862 0.0
C545 C 0.25104 0.51151 0.2844 0.0
C546 C 0.24927 0.51782 0.31238 0.0
C547 C 0.28927 0.51841 0.32737 0.0
C548 C 0.28739 0.52416 0.35376 0.0
C549 C 0.24572 0.52955 0.36536 0.0
C550 C 0.20586 0.52928 0.35056 0.0
C551 C 0.20756 0.5235 0.32417 0.0
H552 H 0.24433 0.534 0.38579 0.0
H553 H 0.26465 0.47895 0.12949 0.0
H554 H 0.89581 0.30814 0.94049 0.0
H555 H 0.86321 0.27738 0.97106 0.0
H556 H 0.729 0.29411 0.94176 0.0
H557 H 0.76145 0.32549 0.91144 0.0
H558 H 0.72933 0.29293 0.99317 0.0
H559 H 0.78471 0.23779 0.92585 0.0
H560 H 0.84154 0.22052 0.8956 0.0
H561 H 0.92585 0.19755 0.95951 0.0
H562 H 0.86978 0.21501 0.99014 0.0
H563 H 0.61535 0.18739 0.05042 0.0
H564 H 0.64908 0.21727 0.0194 0.0
H565 H 0.78206 0.20192 0.05115 0.0
H566 H 0.74846 0.17152 0.08212 0.0
H567 H 0.78282 0.20228 0.99871 0.0
H568 H 0.72695 0.25741 0.06597 0.0
H569 H 0.66968 0.27449 0.09605 0.0
H570 H 0.58578 0.29729 0.03191 0.0
H571 H 0.64228 0.28001 0.00143 0.0
C572 C 0.85935 0.30522 0.94049 0.0
C573 C 0.83114 0.31914 0.92353 0.0
C574 C 0.84079 0.28754 0.95789 0.0
C575 C 0.79373 0.28316 0.95844 0.0
C576 C 0.76543 0.29714 0.9416 0.0
C577 C 0.78398 0.31499 0.92427 0.0
C578 C 0.77405 0.2644 0.97699 0.0
C579 C 0.74054 0.273 0.99412 0.0
C580 C 0.78957 0.23858 0.97867 0.0
C581 C 0.82322 0.22793 0.96028 0.0
C582 C 0.81552 0.22923 0.93345 0.0
C583 C 0.84757 0.21937 0.91623 0.0
C584 C 0.88733 0.208 0.92562 0.0
C585 C 0.89506 0.20639 0.95226 0.0
C586 C 0.86313 0.21624 0.96956 0.0
C587 C 0.65179 0.19036 0.05083 0.0
C588 C 0.67929 0.17723 0.06877 0.0
C589 C 0.67098 0.20751 0.03314 0.0
C590 C 0.71798 0.21209 0.03322 0.0
C591 C 0.74568 0.19871 0.05085 0.0
C592 C 0.72647 0.18143 0.06854 0.0
C593 C 0.73805 0.23081 0.0148 0.0
C594 C 0.77163 0.2222 0.99773 0.0
C595 C 0.72256 0.25662 0.01313 0.0
C596 C 0.68868 0.2672 0.03142 0.0
C597 C 0.69614 0.2659 0.05828 0.0
C598 C 0.66384 0.27564 0.0754 0.0
C599 C 0.62407 0.28691 0.0659 0.0
C600 C 0.61658 0.28853 0.03925 0.0
C601 C 0.64875 0.27879 0.02204 0.0
H602 H 0.5991 0.29444 0.07919 0.0
H603 H 0.91211 0.20038 0.91227 0.0
H604 H 0.86504 0.93055 0.29765 0.0
H605 H 0.83381 0.96171 0.26708 0.0
H606 H 0.70242 0.95472 0.30312 0.0
H607 H 0.73345 0.92292 0.33364 0.0
H608 H 0.69553 0.95612 0.25069 0.0
H609 H 0.7705 0.0061 0.31646 0.0
H610 H 0.83428 0.0186 0.34496 0.0
H611 H 0.9161 0.03612 0.27865 0.0
H612 H 0.853 0.02338 0.24973 0.0
H613 H 0.6036 0.06896 0.19377 0.0
H614 H 0.63113 0.03695 0.2247 0.0
H615 H 0.76565 0.04304 0.19239 0.0
H616 H 0.73844 0.07564 0.16169 0.0
H617 H 0.76912 0.04229 0.24388 0.0
H618 H 0.69489 0.99176 0.17805 0.0
H619 H 0.63134 0.97927 0.14938 0.0
H620 H 0.54837 0.96274 0.21547 0.0
H621 H 0.61124 0.97549 0.24456 0.0
C622 C 0.82944 0.93555 0.29905 0.0
C623 C 0.80172 0.92448 0.31816 0.0
C624 C 0.81169 0.95343 0.28161 0.0
C625 C 0.76603 0.96089 0.28315 0.0
C626 C 0.73784 0.94931 0.30172 0.0
C627 C 0.75557 0.93122 0.31914 0.0
C628 C 0.7482 0.98108 0.26554 0.0
C629 C 0.71114 0.9751 0.24946 0.0
C630 C 0.76927 0.00564 0.26357 0.0
C631 C 0.80713 0.01358 0.28093 0.0
C632 C 0.80219 0.01246 0.30796 0.0
C633 C 0.83821 0.01961 0.32418 0.0
C634 C 0.87924 0.0281 0.31362 0.0
C635 C 0.8843 0.02953 0.2868 0.0
C636 C 0.8484 0.02237 0.27049 0.0
C637 C 0.63908 0.06351 0.19326 0.0
C638 C 0.66889 0.0747 0.17525 0.0
C639 C 0.6547 0.04512 0.21087 0.0
C640 C 0.70027 0.03729 0.21057 0.0
C641 C 0.7303 0.04875 0.19288 0.0
C642 C 0.71474 0.06732 0.17535 0.0
C643 C 0.71664 0.01729 0.22886 0.0
C644 C 0.75342 0.02333 0.24512 0.0
C645 C 0.69532 0.99279 0.23095 0.0
C646 C 0.65765 0.98481 0.21348 0.0
C647 C 0.663 0.98562 0.18648 0.0
C648 C 0.62711 0.97848 0.17015 0.0
C649 C 0.5858 0.97029 0.18059 0.0
C650 C 0.58036 0.96913 0.2074 0.0
C651 C 0.61613 0.97628 0.22382 0.0
H652 H 0.55804 0.96479 0.16792 0.0
H653 H 0.9071 0.03362 0.32622 0.0
H654 H 0.98684 0.92662 0.40743 0.0
H655 H 0.01869 0.95843 0.43759 0.0
H656 H 0.88644 0.96852 0.47176 0.0
H657 H 0.85428 0.93739 0.44123 0.0
H658 H 0.92604 0.01369 0.4658 0.0
H659 H 0.97049 0.93142 0.50096 0.0
H660 H 0.00566 0.88825 0.50008 0.0
H661 H 0.13508 0.92252 0.48278 0.0
H662 H 0.10054 0.96588 0.48323 0.0
H663 H 0.99812 0.07541 0.58255 0.0
H664 H 0.96544 0.04571 0.5505 0.0
H665 H 0.09713 0.03729 0.51522 0.0
H666 H 0.13002 0.06642 0.54738 0.0
H667 H 0.05786 0.99157 0.52154 0.0
H668 H 0.01306 0.07409 0.48715 0.0
H669 H 0.97746 0.11712 0.48844 0.0
H670 H 0.84819 0.08225 0.50488 0.0
H671 H 0.88315 0.03901 0.50403 0.0
C672 C 0.96463 0.93566 0.42137 0.0
C673 C 0.91816 0.92948 0.42207 0.0
C674 C 0.98285 0.95375 0.43865 0.0
C675 C 0.95504 0.9656 0.45718 0.0
C676 C 0.90853 0.95963 0.45765 0.0
C677 C 0.89025 0.94177 0.44025 0.0
C678 C 0.97425 0.98417 0.47618 0.0
C679 C 0.95454 0.00875 0.47821 0.0
C680 C 0.01197 0.97791 0.49202 0.0
C681 C 0.03283 0.95186 0.49189 0.0
C682 C 0.00638 0.92973 0.49679 0.0
C683 C 0.02621 0.90523 0.4964 0.0
C684 C 0.07255 0.90264 0.49131 0.0
C685 C 0.09918 0.92455 0.48668 0.0
C686 C 0.0795 0.94909 0.48703 0.0
C687 C 0.01997 0.06729 0.56787 0.0
C688 C 0.06658 0.07319 0.56745 0.0
C689 C 0.00128 0.05043 0.54953 0.0
C690 C 0.02882 0.03945 0.53034 0.0
C691 C 0.07528 0.04549 0.52986 0.0
C692 C 0.09399 0.0622 0.54822 0.0
C693 C 0.0097 0.02109 0.51113 0.0
C694 C 0.02941 0.99653 0.5091 0.0
C695 C 0.97192 0.02735 0.49536 0.0
C696 C 0.95082 0.05333 0.49577 0.0
C697 C 0.97711 0.07561 0.49123 0.0
C698 C 0.95704 0.10004 0.49185 0.0
C699 C 0.91062 0.10242 0.4968 0.0
C700 C 0.88415 0.08038 0.50108 0.0
C701 C 0.90407 0.0559 0.50051 0.0
H702 H 0.89514 0.12135 0.49728 0.0
H703 H 0.08784 0.88366 0.49101 0.0
H704 H 0.01368 0.32226 0.83671 0.0
H705 H 0.04352 0.28975 0.80685 0.0
H706 H 0.9105 0.28121 0.77242 0.0
H707 H 0.88045 0.31325 0.80235 0.0
H708 H 0.948 0.23511 0.78143 0.0
H709 H 0.99439 0.31534 0.74217 0.0
H710 H 0.03178 0.35804 0.74084 0.0
H711 H 0.1603 0.32288 0.75805 0.0
H712 H 0.12354 0.27999 0.75982 0.0
H713 H 0.00616 0.1687 0.66596 0.0
H714 H 0.97876 0.19994 0.69778 0.0
H715 H 0.11425 0.20715 0.72924 0.0
H716 H 0.14194 0.17638 0.69723 0.0
H717 H 0.07721 0.25337 0.72286 0.0
H718 H 0.03137 0.17295 0.76096 0.0
H719 H 0.99407 0.13023 0.76228 0.0
H720 H 0.86481 0.16556 0.74744 0.0
H721 H 0.90144 0.20848 0.74569 0.0
C722 C 0.99091 0.31348 0.82271 0.0
C723 C 0.94479 0.32031 0.82181 0.0
C724 C 0.00798 0.29499 0.80564 0.0
C725 C 0.97926 0.28321 0.78729 0.0
C726 C 0.93322 0.29002 0.78644 0.0
C727 C 0.91616 0.3084 0.8035 0.0
C728 C 0.99683 0.26361 0.76904 0.0
C729 C 0.97594 0.23918 0.76841 0.0
C730 C 0.03396 0.26874 0.75252 0.0
C731 C 0.05613 0.2945 0.75139 0.0
C732 C 0.03056 0.31674 0.74587 0.0
C733 C 0.05165 0.34097 0.745 0.0
C734 C 0.09837 0.34318 0.74943 0.0
C735 C 0.12411 0.32115 0.75466 0.0
C736 C 0.10317 0.29687 0.75559 0.0
C737 C 0.03 0.17686 0.67975 0.0
C738 C 0.07614 0.17011 0.67914 0.0
C739 C 0.01431 0.19463 0.69797 0.0
C740 C 0.04442 0.2057 0.71604 0.0
C741 C 0.09045 0.19887 0.71548 0.0
C742 C 0.10617 0.18123 0.69722 0.0
C743 C 0.02823 0.2249 0.73514 0.0
C744 C 0.04938 0.24925 0.73594 0.0
C745 C 0.99136 0.21969 0.75183 0.0
C746 C 0.96922 0.1939 0.75296 0.0
C747 C 0.99504 0.17159 0.75778 0.0
C748 C 0.97401 0.14734 0.75864 0.0
C749 C 0.92712 0.14517 0.75488 0.0
C750 C 0.90114 0.16726 0.75032 0.0
C751 C 0.92201 0.19156 0.74942 0.0
H752 H 0.9109 0.12638 0.75555 0.0
H753 H 0.11464 0.36196 0.74874 0.0
H754 H 0.63887 0.69191 0.68864 0.0
H755 H 0.60796 0.72241 0.71986 0.0
H756 H 0.47274 0.69377 0.70425 0.0
H757 H 0.50349 0.66342 0.67248 0.0
H758 H 0.47424 0.74568 0.70663 0.0
H759 H 0.52987 0.67598 0.75895 0.0
H760 H 0.58653 0.6446 0.7746 0.0
H761 H 0.67381 0.70675 0.79891 0.0
H762 H 0.61793 0.73852 0.78308 0.0
H763 H 0.36615 0.79994 0.81504 0.0
H764 H 0.398 0.76953 0.78408 0.0
H765 H 0.53225 0.79985 0.79917 0.0
H766 H 0.50054 0.83022 0.83066 0.0
H767 H 0.53165 0.74739 0.79702 0.0
H768 H 0.4752 0.8171 0.74494 0.0
H769 H 0.41773 0.84827 0.72985 0.0
H770 H 0.33128 0.78582 0.70536 0.0
H771 H 0.38796 0.75425 0.72066 0.0
C772 C 0.60254 0.69208 0.69184 0.0
C773 C 0.57357 0.6752 0.67823 0.0
C774 C 0.58496 0.70946 0.70976 0.0
C775 C 0.53814 0.71008 0.71466 0.0
C776 C 0.509 0.69353 0.7008 0.0
C777 C 0.52658 0.67618 0.68273 0.0
C778 C 0.51972 0.72812 0.73419 0.0
C779 C 0.48632 0.74582 0.72648 0.0
C780 C 0.53634 0.72869 0.75993 0.0
C781 C 0.56989 0.70962 0.76961 0.0
C782 C 0.56129 0.68296 0.76746 0.0
C783 C 0.59324 0.6651 0.77639 0.0
C784 C 0.63379 0.67368 0.78768 0.0
C785 C 0.64241 0.70013 0.79014 0.0
C786 C 0.6106 0.71807 0.78121 0.0
C787 C 0.40248 0.80013 0.81182 0.0
C788 C 0.43088 0.81755 0.82515 0.0
C789 C 0.42059 0.7828 0.79405 0.0
C790 C 0.46737 0.78273 0.78904 0.0
C791 C 0.49601 0.79971 0.80271 0.0
C792 C 0.47789 0.81704 0.82062 0.0
C793 C 0.48617 0.7649 0.76946 0.0
C794 C 0.51963 0.74725 0.77715 0.0
C795 C 0.46955 0.76435 0.74373 0.0
C796 C 0.43568 0.78331 0.73416 0.0
C797 C 0.44381 0.81001 0.73649 0.0
C798 C 0.41139 0.82775 0.72788 0.0
C799 C 0.37083 0.81903 0.71672 0.0
C800 C 0.36269 0.79255 0.71405 0.0
C801 C 0.39497 0.77472 0.72266 0.0
H802 H 0.34575 0.8328 0.71009 0.0
H803 H 0.65849 0.65982 0.79458 0.0
H804 H 0.124 0.67198 0.0478 0.0
H805 H 0.1562 0.70201 0.0164 0.0
H806 H 0.28159 0.70429 0.05987 0.0
H807 H 0.24937 0.67412 0.09159 0.0
H808 H 0.25067 0.7527 0.04694 0.0
H809 H 0.27843 0.67275 0.00406 0.0
H810 H 0.25952 0.62977 0.98643 0.0
H811 H 0.16274 0.66398 0.93448 0.0
H812 H 0.18056 0.70716 0.95208 0.0
H813 H 0.38041 0.81679 0.95066 0.0
H814 H 0.35128 0.78507 0.98144 0.0
H815 H 0.22205 0.78468 0.94179 0.0
H816 H 0.25098 0.81671 0.91086 0.0
H817 H 0.25668 0.73487 0.95271 0.0
H818 H 0.22818 0.81476 0.99658 0.0
H819 H 0.24759 0.85761 0.01435 0.0
H820 H 0.34693 0.82313 0.06452 0.0
H821 H 0.32858 0.78007 0.04676 0.0
C822 C 0.15856 0.67871 0.0506 0.0
C823 C 0.18422 0.67074 0.07213 0.0
C824 C 0.17695 0.69578 0.03258 0.0
C825 C 0.22135 0.70521 0.03573 0.0
C826 C 0.24726 0.69716 0.05712 0.0
C827 C 0.22892 0.6799 0.07512 0.0
C828 C 0.2398 0.72424 0.01714 0.0
C829 C 0.25274 0.74867 0.02639 0.0
C830 C 0.24131 0.71912 0.99027 0.0
C831 C 0.23053 0.69318 0.97958 0.0
C832 C 0.25282 0.6711 0.98903 0.0
C833 C 0.24236 0.64669 0.97902 0.0
C834 C 0.20986 0.64413 0.9594 0.0
C835 C 0.18786 0.66599 0.94971 0.0
C836 C 0.19816 0.69044 0.95968 0.0
C837 C 0.34572 0.81004 0.94853 0.0
C838 C 0.31788 0.81922 0.9284 0.0
C839 C 0.32914 0.79197 0.96616 0.0
C840 C 0.28451 0.78267 0.96392 0.0
C841 C 0.25661 0.79169 0.94379 0.0
C842 C 0.27307 0.81002 0.92625 0.0
C843 C 0.26737 0.7633 0.98253 0.0
C844 C 0.2547 0.73884 0.97327 0.0
C845 C 0.26622 0.76835 0.0094 0.0
C846 C 0.27734 0.79422 0.02013 0.0
C847 C 0.25447 0.81633 0.01122 0.0
C848 C 0.26521 0.84066 0.02133 0.0
C849 C 0.29856 0.8431 0.0405 0.0
C850 C 0.32116 0.82121 0.04964 0.0
C851 C 0.31057 0.79683 0.03958 0.0
H852 H 0.30682 0.86195 0.0483 0.0
H853 H 0.20181 0.62522 0.95167 0.0
H854 H 0.36904 0.43139 0.44857 0.0
H855 H 0.4008 0.46258 0.47909 0.0
H856 H 0.5342 0.45081 0.44704 0.0
H857 H 0.50259 0.41908 0.41656 0.0
H858 H 0.53624 0.45271 0.4996 0.0
H859 H 0.47325 0.50364 0.43076 0.0
H860 H 0.41338 0.51746 0.4003 0.0
H861 H 0.32881 0.53969 0.46389 0.0
H862 H 0.3879 0.52563 0.49476 0.0
H863 H 0.63942 0.56278 0.55546 0.0
H864 H 0.60906 0.53147 0.52457 0.0
H865 H 0.4742 0.54345 0.55451 0.0
H866 H 0.50436 0.57534 0.58523 0.0
H867 H 0.4736 0.54156 0.50253 0.0
H868 H 0.53567 0.49013 0.57134 0.0
H869 H 0.59498 0.47597 0.60199 0.0
H870 H 0.68074 0.45448 0.53865 0.0
H871 H 0.62218 0.46887 0.5076 0.0
C872 C 0.40518 0.43535 0.44804 0.0
C873 C 0.43335 0.42293 0.43009 0.0
C874 C 0.42323 0.45326 0.46544 0.0
C875 C 0.4697 0.45932 0.46503 0.0
C876 C 0.49818 0.44647 0.44756 0.0
C877 C 0.48012 0.42842 0.43017 0.0
C878 C 0.48828 0.47922 0.48276 0.0
C879 C 0.52305 0.47225 0.5 0.0
C880 C 0.47022 0.50452 0.48364 0.0
C881 C 0.43488 0.51337 0.46509 0.0
C882 C 0.44177 0.51132 0.43826 0.0
C883 C 0.40798 0.51921 0.42092 0.0
C884 C 0.36727 0.52939 0.43015 0.0
C885 C 0.36034 0.53178 0.45676 0.0
C886 C 0.39399 0.52387 0.47419 0.0
C887 C 0.60328 0.55878 0.55547 0.0
C888 C 0.57425 0.57138 0.57285 0.0
C889 C 0.58601 0.54081 0.53786 0.0
C890 C 0.53949 0.53483 0.53752 0.0
C891 C 0.51025 0.54774 0.55453 0.0
C892 C 0.5275 0.56588 0.57209 0.0
C893 C 0.52151 0.51504 0.51944 0.0
C894 C 0.48685 0.52203 0.50212 0.0
C895 C 0.53962 0.48975 0.5185 0.0
C896 C 0.57469 0.4808 0.53714 0.0
C897 C 0.5673 0.48255 0.56394 0.0
C898 C 0.60077 0.47446 0.58139 0.0
C899 C 0.64165 0.46439 0.57228 0.0
C900 C 0.64908 0.46231 0.54569 0.0
C901 C 0.61575 0.47041 0.52815 0.0
H902 H 0.66754 0.45816 0.58582 0.0
H903 H 0.34114 0.53546 0.4167 0.0
loop_
_geom_bond_atom_site_label_1
_geom_bond_atom_site_label_2
_geom_bond_distance
_geom_bond_site_symmetry_2
_ccdc_geom_bond_type
In0 O1 2.294 . S
In0 O2 2.326 . S
In0 O6 2.266 . S
In0 O7 2.326 . S
In0 O8 2.266 . S
In0 O9 2.326 . S
In0 O11 2.294 . S
In0 O12 2.326 . S
O1 In0 2.294 . S
O1 C10 1.240 . S
O2 In0 2.326 . S
O2 C10 1.252 . S
C3 O6 1.252 . S
C3 O7 1.260 . S
C4 O11 1.240 . S
C4 O12 1.252 . S
C5 O8 1.252 . S
C5 O9 1.260 . S
O6 In0 2.266 . S
O6 C3 1.252 . S
O7 In0 2.326 . S
O7 C3 1.260 . S
O8 In0 2.266 . S
O8 C5 1.252 . S
O9 In0 2.326 . S
O9 C5 1.260 . S
C10 O1 1.240 . S
C10 O2 1.252 . S
O11 In0 2.294 . S
O11 C4 1.240 . S
O12 In0 2.326 . S
O12 C4 1.252 . S
In13 O14 2.294 . S
In13 O15 2.326 . S
In13 O19 2.266 . S
In13 O20 2.326 . S
In13 O21 2.266 . S
In13 O22 2.326 . S
In13 O24 2.294 . S
In13 O25 2.326 . S
O14 In13 2.294 . S
O14 C23 1.240 . S
O15 In13 2.326 . S
O15 C23 1.252 . S
C16 O19 1.252 . S
C16 O20 1.260 . S
C17 O24 1.240 . S
C17 O25 1.252 . S
C18 O21 1.252 . S
C18 O22 1.260 . S
O19 In13 2.266 . S
O19 C16 1.252 . S
O20 In13 2.326 . S
O20 C16 1.260 . S
O21 In13 2.266 . S
O21 C18 1.252 . S
O22 In13 2.326 . S
O22 C18 1.260 . S
C23 O14 1.240 . S
C23 O15 1.252 . S
O24 In13 2.294 . S
O24 C17 1.240 . S
O25 In13 2.326 . S
O25 C17 1.252 . S
In26 O27 2.294 . S
In26 O28 2.326 . S
In26 O32 2.266 . S
In26 O33 2.326 . S
In26 O34 2.266 . S
In26 O35 2.326 . S
In26 O37 2.294 . S
In26 O38 2.326 . S
O27 In26 2.294 . S
O27 C36 1.240 . S
O28 In26 2.326 . S
O28 C36 1.252 . S
C29 O32 1.252 . S
C29 O33 1.260 . S
C30 O37 1.240 . S
C30 O38 1.252 . S
C31 O34 1.252 . S
C31 O35 1.260 . S
O32 In26 2.266 . S
O32 C29 1.252 . S
O33 In26 2.326 . S
O33 C29 1.260 . S
O34 In26 2.266 . S
O34 C31 1.252 . S
O35 In26 2.326 . S
O35 C31 1.260 . S
C36 O27 1.240 . S
C36 O28 1.252 . S
O37 In26 2.294 . S
O37 C30 1.240 . S
O38 In26 2.326 . S
O38 C30 1.252 . S
In39 O40 2.294 . S
In39 O41 2.326 . S
In39 O45 2.266 . S
In39 O46 2.326 . S
In39 O47 2.266 . S
In39 O48 2.326 . S
In39 O50 2.294 . S
In39 O51 2.326 . S
O40 In39 2.294 . S
O40 C49 1.240 . S
O41 In39 2.326 . S
O41 C49 1.252 . S
C42 O45 1.252 . S
C42 O46 1.260 . S
C43 O50 1.240 . S
C43 O51 1.252 . S
C44 O47 1.252 . S
C44 O48 1.260 . S
O45 In39 2.266 . S
O45 C42 1.252 . S
O46 In39 2.326 . S
O46 C42 1.260 . S
O47 In39 2.266 . S
O47 C44 1.252 . S
O48 In39 2.326 . S
O48 C44 1.260 . S
C49 O40 1.240 . S
C49 O41 1.252 . S
O50 In39 2.294 . S
O50 C43 1.240 . S
O51 In39 2.326 . S
O51 C43 1.252 . S
In52 O53 2.294 . S
In52 O54 2.326 . S
In52 O58 2.266 . S
In52 O59 2.326 . S
In52 O60 2.266 . S
In52 O61 2.326 . S
In52 O63 2.294 . S
In52 O64 2.326 . S
O53 In52 2.294 . S
O53 C62 1.240 . S
O54 In52 2.326 . S
O54 C62 1.252 . S
C55 O58 1.252 . S
C55 O59 1.260 . S
C56 O63 1.240 . S
C56 O64 1.252 . S
C57 O60 1.252 . S
C57 O61 1.260 . S
O58 In52 2.266 . S
O58 C55 1.252 . S
O59 In52 2.326 . S
O59 C55 1.260 . S
O60 In52 2.266 . S
O60 C57 1.252 . S
O61 In52 2.326 . S
O61 C57 1.260 . S
C62 O53 1.240 . S
C62 O54 1.252 . S
O63 In52 2.294 . S
O63 C56 1.240 . S
O64 In52 2.326 . S
O64 C56 1.252 . S
In65 O66 2.294 . S
In65 O67 2.326 . S
In65 O71 2.266 . S
In65 O72 2.326 . S
In65 O73 2.266 . S
In65 O74 2.326 . S
In65 O76 2.294 . S
In65 O77 2.326 . S
O66 In65 2.294 . S
O66 C75 1.240 . S
O67 In65 2.326 . S
O67 C75 1.252 . S
C68 O71 1.252 . S
C68 O72 1.260 . S
C69 O76 1.240 . S
C69 O77 1.252 . S
C70 O73 1.252 . S
C70 O74 1.260 . S
O71 In65 2.266 . S
O71 C68 1.252 . S
O72 In65 2.326 . S
O72 C68 1.260 . S
O73 In65 2.266 . S
O73 C70 1.252 . S
O74 In65 2.326 . S
O74 C70 1.260 . S
C75 O66 1.240 . S
C75 O67 1.252 . S
O76 In65 2.294 . S
O76 C69 1.240 . S
O77 In65 2.326 . S
O77 C69 1.252 . S
In78 O79 2.294 . S
In78 O80 2.326 . S
In78 O84 2.266 . S
In78 O85 2.326 . S
In78 O86 2.266 . S
In78 O87 2.326 . S
In78 O89 2.294 . S
In78 O90 2.326 . S
O79 In78 2.294 . S
O79 C88 1.240 . S
O80 In78 2.326 . S
O80 C88 1.252 . S
C81 O84 1.252 . S
C81 O85 1.260 . S
C82 O89 1.240 . S
C82 O90 1.252 . S
C83 O86 1.252 . S
C83 O87 1.260 . S
O84 In78 2.266 . S
O84 C81 1.252 . S
O85 In78 2.326 . S
O85 C81 1.260 . S
O86 In78 2.266 . S
O86 C83 1.252 . S
O87 In78 2.326 . S
O87 C83 1.260 . S
C88 O79 1.240 . S
C88 O80 1.252 . S
O89 In78 2.294 . S
O89 C82 1.240 . S
O90 In78 2.326 . S
O90 C82 1.252 . S
In91 O92 2.294 . S
In91 O93 2.326 . S
In91 O97 2.266 . S
In91 O98 2.326 . S
In91 O99 2.266 . S
In91 O100 2.326 . S
In91 O102 2.294 . S
In91 O103 2.326 . S
O92 In91 2.294 . S
O92 C101 1.240 . S
O93 In91 2.326 . S
O93 C101 1.252 . S
C94 O97 1.252 . S
C94 O98 1.260 . S
C95 O102 1.240 . S
C95 O103 1.252 . S
C96 O99 1.252 . S
C96 O100 1.260 . S
O97 In91 2.266 . S
O97 C94 1.252 . S
O98 In91 2.326 . S
O98 C94 1.260 . S
O99 In91 2.266 . S
O99 C96 1.252 . S
O100 In91 2.326 . S
O100 C96 1.260 . S
C101 O92 1.240 . S
C101 O93 1.252 . S
O102 In91 2.294 . S
O102 C95 1.240 . S
O103 In91 2.326 . S
O103 C95 1.252 . S
H104 C122 0.951 . S
H105 C124 0.951 . S
H106 C126 0.950 . S
H107 C127 0.950 . S
H108 C129 0.950 . S
H109 C132 0.950 . S
H110 C133 0.950 . S
H111 C135 0.950 . S
H112 C136 0.950 . S
H113 C137 0.951 . S
H114 C139 0.951 . S
H115 C141 0.950 . S
H116 C142 0.950 . S
H117 C144 0.950 . S
H118 C147 0.950 . S
H119 C148 0.950 . S
H120 C150 0.950 . S
H121 C151 0.950 . S
C122 H104 0.951 . S
C122 C123 1.366 . S
C122 C124 1.388 . S
C123 C122 1.366 . S
C123 C127 1.385 . S
C124 H105 0.951 . S
C124 C122 1.388 . S
C124 C125 1.366 . S
C125 C124 1.366 . S
C125 C126 1.414 . S
C125 C128 1.499 . S
C126 H106 0.950 . S
C126 C125 1.414 . S
C126 C127 1.374 . S
C127 H107 0.950 . S
C127 C123 1.385 . S
C127 C126 1.374 . S
C128 C125 1.499 . S
C128 C129 1.373 . S
C128 C130 1.389 . S
C129 H108 0.950 . S
C129 C128 1.373 . S
C129 C145 1.377 . S
C130 C128 1.389 . S
C130 C131 1.524 . S
C130 C144 1.377 . S
C131 C130 1.524 . S
C131 C132 1.397 . S
C131 C136 1.363 . S
C132 H109 0.950 . S
C132 C131 1.397 . S
C132 C133 1.334 . S
C133 H110 0.950 . S
C133 C132 1.334 . S
C133 C134 1.287 . S
C134 C133 1.287 . S
C134 C135 1.524 . S
C134 H153 0.913 . S
C135 H111 0.950 . S
C135 C134 1.524 . S
C135 C136 1.415 . S
C136 H112 0.950 . S
C136 C131 1.363 . S
C136 C135 1.415 . S
C137 H113 0.951 . S
C137 C138 1.366 . S
C137 C139 1.388 . S
C138 C137 1.366 . S
C138 C142 1.385 . S
C139 H114 0.951 . S
C139 C137 1.388 . S
C139 C140 1.366 . S
C140 C139 1.366 . S
C140 C141 1.414 . S
C140 C143 1.499 . S
C141 H115 0.950 . S
C141 C140 1.414 . S
C141 C142 1.374 . S
C142 H116 0.950 . S
C142 C138 1.385 . S
C142 C141 1.374 . S
C143 C140 1.499 . S
C143 C144 1.373 . S
C143 C145 1.389 . S
C144 H117 0.950 . S
C144 C130 1.377 . S
C144 C143 1.373 . S
C145 C129 1.377 . S
C145 C143 1.389 . S
C145 C146 1.524 . S
C146 C145 1.524 . S
C146 C147 1.397 . S
C146 C151 1.363 . S
C147 H118 0.950 . S
C147 C146 1.397 . S
C147 C148 1.334 . S
C148 H119 0.950 . S
C148 C147 1.334 . S
C148 C149 1.287 . S
C149 C148 1.287 . S
C149 C150 1.524 . S
C149 H152 0.999 . S
C150 H120 0.950 . S
C150 C149 1.524 . S
C150 C151 1.415 . S
C151 H121 0.950 . S
C151 C146 1.363 . S
C151 C150 1.415 . S
H152 C149 0.999 . S
H153 C134 0.913 . S
H154 C172 0.951 . S
H155 C174 0.951 . S
H156 C176 0.950 . S
H157 C177 0.950 . S
H158 C179 0.950 . S
H159 C182 0.950 . S
H160 C183 0.950 . S
H161 C185 0.950 . S
H162 C186 0.950 . S
H163 C187 0.951 . S
H164 C189 0.951 . S
H165 C191 0.950 . S
H166 C192 0.950 . S
H167 C194 0.950 . S
H168 C197 0.950 . S
H169 C198 0.950 . S
H170 C200 0.950 . S
H171 C201 0.950 . S
C172 H154 0.951 . S
C172 C173 1.366 . S
C172 C174 1.388 . S
C173 C172 1.366 . S
C173 C177 1.385 . S
C174 H155 0.951 . S
C174 C172 1.388 . S
C174 C175 1.366 . S
C175 C174 1.366 . S
C175 C176 1.414 . S
C175 C178 1.499 . S
C176 H156 0.950 . S
C176 C175 1.414 . S
C176 C177 1.374 . S
C177 H157 0.950 . S
C177 C173 1.385 . S
C177 C176 1.374 . S
C178 C175 1.499 . S
C178 C179 1.373 . S
C178 C180 1.389 . S
C179 H158 0.950 . S
C179 C178 1.373 . S
C179 C195 1.377 . S
C180 C178 1.389 . S
C180 C181 1.524 . S
C180 C194 1.377 . S
C181 C180 1.524 . S
C181 C182 1.397 . S
C181 C186 1.363 . S
C182 H159 0.950 . S
C182 C181 1.397 . S
C182 C183 1.334 . S
C183 H160 0.950 . S
C183 C182 1.334 . S
C183 C184 1.287 . S
C184 C183 1.287 . S
C184 C185 1.524 . S
C184 H203 0.913 . S
C185 H161 0.950 . S
C185 C184 1.524 . S
C185 C186 1.415 . S
C186 H162 0.950 . S
C186 C181 1.363 . S
C186 C185 1.415 . S
C187 H163 0.951 . S
C187 C188 1.366 . S
C187 C189 1.388 . S
C188 C187 1.366 . S
C188 C192 1.385 . S
C189 H164 0.951 . S
C189 C187 1.388 . S
C189 C190 1.366 . S
C190 C189 1.366 . S
C190 C191 1.414 . S
C190 C193 1.499 . S
C191 H165 0.950 . S
C191 C190 1.414 . S
C191 C192 1.374 . S
C192 H166 0.950 . S
C192 C188 1.385 . S
C192 C191 1.374 . S
C193 C190 1.499 . S
C193 C194 1.373 . S
C193 C195 1.389 . S
C194 H167 0.950 . S
C194 C180 1.377 . S
C194 C193 1.373 . S
C195 C179 1.377 . S
C195 C193 1.389 . S
C195 C196 1.524 . S
C196 C195 1.524 . S
C196 C197 1.397 . S
C196 C201 1.363 . S
C197 H168 0.950 . S
C197 C196 1.397 . S
C197 C198 1.334 . S
C198 H169 0.950 . S
C198 C197 1.334 . S
C198 C199 1.287 . S
C199 C198 1.287 . S
C199 C200 1.524 . S
C199 H202 0.999 . S
C200 H170 0.950 . S
C200 C199 1.524 . S
C200 C201 1.415 . S
C201 H171 0.950 . S
C201 C196 1.363 . S
C201 C200 1.415 . S
H202 C199 0.999 . S
H203 C184 0.913 . S
H204 C222 0.951 . S
H205 C224 0.951 . S
H206 C226 0.950 . S
H207 C227 0.950 . S
H208 C229 0.950 . S
H209 C232 0.950 . S
H210 C233 0.950 . S
H211 C235 0.950 . S
H212 C236 0.950 . S
H213 C237 0.951 . S
H214 C239 0.951 . S
H215 C241 0.950 . S
H216 C242 0.950 . S
H217 C244 0.950 . S
H218 C247 0.950 . S
H219 C248 0.950 . S
H220 C250 0.950 . S
H221 C251 0.947 1_565 S
C222 H204 0.951 . S
C222 C223 1.366 . S
C222 C224 1.388 . S
C223 C222 1.366 . S
C223 C227 1.385 . S
C224 H205 0.951 . S
C224 C222 1.388 . S
C224 C225 1.366 . S
C225 C224 1.366 . S
C225 C226 1.414 . S
C225 C228 1.499 . S
C226 H206 0.950 . S
C226 C225 1.414 . S
C226 C227 1.374 . S
C227 H207 0.950 . S
C227 C223 1.385 . S
C227 C226 1.374 . S
C228 C225 1.499 . S
C228 C229 1.373 1_554 S
C228 C230 1.389 1_545 S
C229 H208 0.950 . S
C229 C228 1.373 1_556 S
C229 C245 1.377 1_545 S
C230 C228 1.389 1_565 S
C230 C231 1.524 . S
C230 C244 1.377 . S
C231 C230 1.524 . S
C231 C232 1.397 . S
C231 C236 1.363 . S
C232 H209 0.950 . S
C232 C231 1.397 . S
C232 C233 1.334 . S
C233 H210 0.950 . S
C233 C232 1.334 . S
C233 C234 1.287 . S
C234 C233 1.287 . S
C234 C235 1.524 . S
C234 H253 0.913 . S
C235 H211 0.950 . S
C235 C234 1.524 . S
C235 C236 1.415 . S
C236 H212 0.950 . S
C236 C231 1.363 . S
C236 C235 1.415 . S
C237 H213 0.951 . S
C237 C238 1.366 . S
C237 C239 1.388 . S
C238 C237 1.366 . S
C238 C242 1.385 . S
C239 H214 0.951 . S
C239 C237 1.388 . S
C239 C240 1.366 . S
C240 C239 1.366 . S
C240 C241 1.414 . S
C240 C243 1.499 . S
C241 H215 0.950 . S
C241 C240 1.414 . S
C241 C242 1.374 . S
C242 H216 0.950 . S
C242 C238 1.385 . S
C242 C241 1.374 . S
C243 C240 1.499 . S
C243 C244 1.373 1_556 S
C243 C245 1.389 . S
C244 H217 0.950 . S
C244 C230 1.377 . S
C244 C243 1.373 1_554 S
C245 C229 1.377 1_565 S
C245 C243 1.389 . S
C245 C246 1.524 1_565 S
C246 C245 1.524 1_545 S
C246 C247 1.397 . S
C246 C251 1.363 . S
C247 H218 0.950 . S
C247 C246 1.397 . S
C247 C248 1.334 . S
C248 H219 0.950 . S
C248 C247 1.334 . S
C248 C249 1.287 . S
C249 C248 1.287 . S
C249 C250 1.524 . S
C249 H252 0.999 . S
C250 H220 0.950 . S
C250 C249 1.524 . S
C250 C251 1.415 . S
C251 H221 0.947 1_545 S
C251 C246 1.363 . S
C251 C250 1.415 . S
H252 C249 0.999 . S
H253 C234 0.913 . S
H254 C272 0.951 . S
H255 C274 0.951 . S
H256 C276 0.950 . S
H257 C277 0.950 . S
H258 C279 0.950 . S
H259 C282 0.950 . S
H260 C283 0.950 . S
H261 C285 0.950 . S
H262 C286 0.950 . S
H263 C287 0.951 . S
H264 C289 0.951 . S
H265 C291 0.950 . S
H266 C292 0.950 . S
H267 C294 0.950 . S
H268 C297 0.950 . S
H269 C298 0.950 . S
H270 C300 0.950 . S
H271 C301 0.950 . S
C272 H254 0.951 . S
C272 C273 1.366 . S
C272 C274 1.388 . S
C273 C272 1.366 . S
C273 C277 1.385 . S
C274 H255 0.951 . S
C274 C272 1.388 . S
C274 C275 1.366 . S
C275 C274 1.366 . S
C275 C276 1.414 . S
C275 C278 1.499 . S
C276 H256 0.950 . S
C276 C275 1.414 . S
C276 C277 1.374 . S
C277 H257 0.950 . S
C277 C273 1.385 . S
C277 C276 1.374 . S
C278 C275 1.499 . S
C278 C279 1.373 1_655 S
C278 C280 1.389 . S
C279 H258 0.950 . S
C279 C278 1.373 1_455 S
C279 C295 1.377 . S
C280 C278 1.389 . S
C280 C281 1.524 . S
C280 C294 1.377 . S
C281 C280 1.524 . S
C281 C282 1.397 . S
C281 C286 1.363 . S
C282 H259 0.950 . S
C282 C281 1.397 . S
C282 C283 1.334 . S
C283 H260 0.950 . S
C283 C282 1.334 . S
C283 C284 1.287 . S
C284 C283 1.287 . S
C284 C285 1.524 . S
C284 H303 0.913 . S
C285 H261 0.950 . S
C285 C284 1.524 . S
C285 C286 1.415 . S
C286 H262 0.950 . S
C286 C281 1.363 . S
C286 C285 1.415 . S
C287 H263 0.951 . S
C287 C288 1.366 . S
C287 C289 1.388 . S
C288 C287 1.366 . S
C288 C292 1.385 . S
C289 H264 0.951 . S
C289 C287 1.388 . S
C289 C290 1.366 . S
C290 C289 1.366 . S
C290 C291 1.414 . S
C290 C293 1.499 . S
C291 H265 0.950 . S
C291 C290 1.414 . S
C291 C292 1.374 . S
C292 H266 0.950 . S
C292 C288 1.385 . S
C292 C291 1.374 . S
C293 C290 1.499 . S
C293 C294 1.373 1_455 S
C293 C295 1.389 . S
C294 H267 0.950 . S
C294 C280 1.377 . S
C294 C293 1.373 1_655 S
C295 C279 1.377 . S
C295 C293 1.389 . S
C295 C296 1.524 . S
C296 C295 1.524 . S
C296 C297 1.397 . S
C296 C301 1.363 . S
C297 H268 0.950 . S
C297 C296 1.397 . S
C297 C298 1.334 . S
C298 H269 0.950 . S
C298 C297 1.334 . S
C298 C299 1.287 . S
C299 C298 1.287 . S
C299 C300 1.524 . S
C299 H302 0.999 . S
C300 H270 0.950 . S
C300 C299 1.524 . S
C300 C301 1.415 . S
C301 H271 0.950 . S
C301 C296 1.363 . S
C301 C300 1.415 . S
H302 C299 0.999 . S
H303 C284 0.913 . S
H304 C322 0.951 . S
H305 C324 0.951 . S
H306 C326 0.950 . S
H307 C327 0.950 . S
H308 C329 0.950 . S
H309 C332 0.950 . S
H310 C333 0.950 . S
H311 C335 0.950 . S
H312 C336 0.950 . S
H313 C337 0.951 . S
H314 C339 0.951 . S
H315 C341 0.950 . S
H316 C342 0.950 . S
H317 C344 0.950 . S
H318 C347 0.950 . S
H319 C348 0.950 . S
H320 C350 0.950 . S
H321 C351 0.950 . S
C322 H304 0.951 . S
C322 C323 1.366 . S
C322 C324 1.388 . S
C323 C322 1.366 . S
C323 C327 1.385 . S
C324 H305 0.951 . S
C324 C322 1.388 . S
C324 C325 1.366 . S
C325 C324 1.366 . S
C325 C326 1.414 . S
C325 C328 1.499 . S
C326 H306 0.950 . S
C326 C325 1.414 . S
C326 C327 1.374 . S
C327 H307 0.950 . S
C327 C323 1.385 . S
C327 C326 1.374 . S
C328 C325 1.499 . S
C328 C329 1.373 1_565 S
C328 C330 1.389 . S
C329 H308 0.950 . S
C329 C328 1.373 1_545 S
C329 C345 1.377 . S
C330 C328 1.389 . S
C330 C331 1.524 . S
C330 C344 1.377 . S
C331 C330 1.524 . S
C331 C332 1.397 . S
C331 C336 1.363 . S
C332 H309 0.950 . S
C332 C331 1.397 . S
C332 C333 1.334 . S
C333 H310 0.950 . S
C333 C332 1.334 . S
C333 C334 1.287 . S
C334 C333 1.287 . S
C334 C335 1.524 . S
C334 H353 0.913 . S
C335 H311 0.950 . S
C335 C334 1.524 . S
C335 C336 1.415 . S
C336 H312 0.950 . S
C336 C331 1.363 . S
C336 C335 1.415 . S
C337 H313 0.951 . S
C337 C338 1.366 . S
C337 C339 1.388 . S
C338 C337 1.366 . S
C338 C342 1.385 . S
C339 H314 0.951 . S
C339 C337 1.388 . S
C339 C340 1.366 . S
C340 C339 1.366 . S
C340 C341 1.414 . S
C340 C343 1.499 . S
C341 H315 0.950 . S
C341 C340 1.414 . S
C341 C342 1.374 . S
C342 H316 0.950 . S
C342 C338 1.385 . S
C342 C341 1.374 . S
C343 C340 1.499 . S
C343 C344 1.373 1_545 S
C343 C345 1.389 . S
C344 H317 0.950 . S
C344 C330 1.377 . S
C344 C343 1.373 1_565 S
C345 C329 1.377 . S
C345 C343 1.389 . S
C345 C346 1.524 . S
C346 C345 1.524 . S
C346 C347 1.397 . S
C346 C351 1.363 . S
C347 H318 0.950 . S
C347 C346 1.397 . S
C347 C348 1.334 . S
C348 H319 0.950 . S
C348 C347 1.334 . S
C348 C349 1.287 . S
C349 C348 1.287 . S
C349 C350 1.524 . S
C349 H352 0.999 . S
C350 H320 0.950 . S
C350 C349 1.524 . S
C350 C351 1.415 . S
C351 H321 0.950 . S
C351 C346 1.363 . S
C351 C350 1.415 . S
H352 C349 0.999 . S
H353 C334 0.913 . S
H354 C372 0.951 . S
H355 C374 0.951 . S
H356 C376 0.950 . S
H357 C377 0.950 . S
H358 C379 0.950 . S
H359 C382 0.925 1_556 S
H360 C383 0.950 1_556 S
H361 C385 0.950 . S
H362 C386 0.950 . S
H363 C387 0.951 . S
H364 C389 0.951 . S
H365 C391 0.950 . S
H366 C392 0.950 . S
H367 C394 0.950 . S
H368 C397 0.950 . S
H369 C398 0.950 . S
H370 C400 0.950 . S
H371 C401 0.950 . S
C372 H354 0.951 . S
C372 C373 1.366 . S
C372 C374 1.388 . S
C373 C372 1.366 . S
C373 C377 1.385 . S
C374 H355 0.951 . S
C374 C372 1.388 . S
C374 C375 1.366 . S
C375 C374 1.366 . S
C375 C376 1.414 . S
C375 C378 1.499 . S
C376 H356 0.950 . S
C376 C375 1.414 . S
C376 C377 1.374 . S
C377 H357 0.950 . S
C377 C373 1.385 . S
C377 C376 1.374 . S
C378 C375 1.499 . S
C378 C379 1.373 1_655 S
C378 C380 1.389 1_556 S
C379 H358 0.950 . S
C379 C378 1.373 1_455 S
C379 C395 1.377 . S
C380 C378 1.389 1_554 S
C380 C381 1.524 . S
C380 C394 1.377 . S
C381 C380 1.524 . S
C381 C382 1.415 . S
C381 C386 1.363 . S
C382 H359 0.925 1_554 S
C382 C381 1.415 . S
C382 C383 1.340 . S
C383 H360 0.950 1_554 S
C383 C382 1.340 . S
C383 C384 1.287 . S
C384 C383 1.287 . S
C384 C385 1.524 . S
C384 H403 0.913 . S
C385 H361 0.950 . S
C385 C384 1.524 . S
C385 C386 1.415 . S
C386 H362 0.950 . S
C386 C381 1.363 . S
C386 C385 1.415 . S
C387 H363 0.951 . S
C387 C388 1.366 . S
C387 C389 1.388 . S
C388 C387 1.366 . S
C388 C392 1.385 . S
C389 H364 0.951 . S
C389 C387 1.388 . S
C389 C390 1.366 . S
C390 C389 1.366 . S
C390 C391 1.414 . S
C390 C393 1.499 . S
C391 H365 0.950 . S
C391 C390 1.414 . S
C391 C392 1.374 . S
C392 H366 0.950 . S
C392 C388 1.385 . S
C392 C391 1.374 . S
C393 C390 1.499 . S
C393 C394 1.373 1_455 S
C393 C395 1.389 1_554 S
C394 H367 0.950 . S
C394 C380 1.377 . S
C394 C393 1.373 1_655 S
C395 C379 1.377 . S
C395 C393 1.389 1_556 S
C395 C396 1.524 . S
C396 C395 1.524 . S
C396 C397 1.397 1_556 S
C396 C401 1.363 . S
C397 H368 0.950 . S
C397 C396 1.397 1_554 S
C397 C398 1.334 . S
C398 H369 0.950 . S
C398 C397 1.334 . S
C398 C399 1.287 1_554 S
C399 C398 1.287 1_556 S
C399 C400 1.524 . S
C399 H402 0.999 . S
C400 H370 0.950 . S
C400 C399 1.524 . S
C400 C401 1.415 . S
C401 H371 0.950 . S
C401 C396 1.363 . S
C401 C400 1.415 . S
H402 C399 0.999 . S
H403 C384 0.913 . S
H404 C422 0.951 . S
H405 C424 0.951 . S
H406 C426 0.950 . S
H407 C427 0.950 . S
H408 C429 0.950 . S
H409 C432 0.950 . S
H410 C433 0.950 . S
H411 C435 0.950 . S
H412 C436 0.950 . S
H413 C437 0.951 . S
H414 C439 0.951 . S
H415 C441 0.950 . S
H416 C442 0.950 . S
H417 C444 0.950 . S
H418 C447 0.950 . S
H419 C448 0.950 . S
H420 C450 0.950 . S
H421 C451 0.950 . S
C422 H404 0.951 . S
C422 C423 1.366 . S
C422 C424 1.388 . S
C423 C422 1.366 . S
C423 C427 1.385 . S
C424 H405 0.951 . S
C424 C422 1.388 . S
C424 C425 1.366 . S
C425 C424 1.366 . S
C425 C426 1.414 . S
C425 C428 1.499 . S
C426 H406 0.950 . S
C426 C425 1.414 . S
C426 C427 1.374 . S
C427 H407 0.950 . S
C427 C423 1.385 . S
C427 C426 1.374 . S
C428 C425 1.499 . S
C428 C429 1.373 . S
C428 C430 1.389 . S
C429 H408 0.950 . S
C429 C428 1.373 . S
C429 C445 1.377 . S
C430 C428 1.389 . S
C430 C431 1.524 . S
C430 C444 1.377 . S
C431 C430 1.524 . S
C431 C432 1.397 . S
C431 C436 1.363 . S
C432 H409 0.950 . S
C432 C431 1.397 . S
C432 C433 1.334 . S
C433 H410 0.950 . S
C433 C432 1.334 . S
C433 C434 1.287 . S
C434 C433 1.287 . S
C434 C435 1.524 . S
C434 H453 0.913 . S
C435 H411 0.950 . S
C435 C434 1.524 . S
C435 C436 1.415 . S
C436 H412 0.950 . S
C436 C431 1.363 . S
C436 C435 1.415 . S
C437 H413 0.951 . S
C437 C438 1.366 . S
C437 C439 1.388 . S
C438 C437 1.366 . S
C438 C442 1.385 . S
C439 H414 0.951 . S
C439 C437 1.388 . S
C439 C440 1.366 . S
C440 C439 1.366 . S
C440 C441 1.414 . S
C440 C443 1.499 . S
C441 H415 0.950 . S
C441 C440 1.414 . S
C441 C442 1.374 . S
C442 H416 0.950 . S
C442 C438 1.385 . S
C442 C441 1.374 . S
C443 C440 1.499 . S
C443 C444 1.373 . S
C443 C445 1.389 . S
C444 H417 0.950 . S
C444 C430 1.377 . S
C444 C443 1.373 . S
C445 C429 1.377 . S
C445 C443 1.389 . S
C445 C446 1.524 . S
C446 C445 1.524 . S
C446 C447 1.397 . S
C446 C451 1.363 . S
C447 H418 0.950 . S
C447 C446 1.397 . S
C447 C448 1.334 . S
C448 H419 0.950 . S
C448 C447 1.334 . S
C448 C449 1.287 . S
C449 C448 1.287 . S
C449 C450 1.524 . S
C449 H452 0.999 . S
C450 H420 0.950 . S
C450 C449 1.524 . S
C450 C451 1.415 . S
C451 H421 0.950 . S
C451 C446 1.363 . S
C451 C450 1.415 . S
H452 C449 0.999 . S
H453 C434 0.913 . S
H454 C472 0.951 . S
H455 C474 0.951 . S
H456 C476 0.950 . S
H457 C477 0.950 . S
H458 C479 0.950 . S
H459 C482 0.950 . S
H460 C483 0.950 . S
H461 C485 0.950 . S
H462 C486 0.950 . S
H463 C487 0.951 . S
H464 C489 0.951 . S
H465 C491 0.950 . S
H466 C492 0.950 . S
H467 C494 0.950 . S
H468 C497 0.950 . S
H469 C498 0.950 . S
H470 C500 0.950 . S
H471 C501 0.950 . S
C472 H454 0.951 . S
C472 C473 1.366 . S
C472 C474 1.388 . S
C473 C472 1.366 . S
C473 C477 1.385 . S
C474 H455 0.951 . S
C474 C472 1.388 . S
C474 C475 1.366 . S
C475 C474 1.366 . S
C475 C476 1.414 . S
C475 C478 1.499 . S
C476 H456 0.950 . S
C476 C475 1.414 . S
C476 C477 1.374 . S
C477 H457 0.950 . S
C477 C473 1.385 . S
C477 C476 1.374 . S
C478 C475 1.499 . S
C478 C479 1.373 . S
C478 C480 1.389 . S
C479 H458 0.950 . S
C479 C478 1.373 . S
C479 C495 1.377 . S
C480 C478 1.389 . S
C480 C481 1.524 . S
C480 C494 1.377 . S
C481 C480 1.524 . S
C481 C482 1.397 . S
C481 C486 1.363 . S
C482 H459 0.950 . S
C482 C481 1.397 . S
C482 C483 1.334 . S
C483 H460 0.950 . S
C483 C482 1.334 . S
C483 C484 1.287 . S
C484 C483 1.287 . S
C484 C485 1.524 . S
C484 H503 0.913 . S
C485 H461 0.950 . S
C485 C484 1.524 . S
C485 C486 1.415 . S
C486 H462 0.950 . S
C486 C481 1.363 . S
C486 C485 1.415 . S
C487 H463 0.951 . S
C487 C488 1.366 . S
C487 C489 1.388 . S
C488 C487 1.366 . S
C488 C492 1.385 . S
C489 H464 0.951 . S
C489 C487 1.388 . S
C489 C490 1.366 . S
C490 C489 1.366 . S
C490 C491 1.414 . S
C490 C493 1.499 . S
C491 H465 0.950 . S
C491 C490 1.414 . S
C491 C492 1.374 . S
C492 H466 0.950 . S
C492 C488 1.385 . S
C492 C491 1.374 . S
C493 C490 1.499 . S
C493 C494 1.373 . S
C493 C495 1.389 . S
C494 H467 0.950 . S
C494 C480 1.377 . S
C494 C493 1.373 . S
C495 C479 1.377 . S
C495 C493 1.389 . S
C495 C496 1.524 . S
C496 C495 1.524 . S
C496 C497 1.397 . S
C496 C501 1.363 . S
C497 H468 0.950 . S
C497 C496 1.397 . S
C497 C498 1.334 . S
C498 H469 0.950 . S
C498 C497 1.334 . S
C498 C499 1.287 . S
C499 C498 1.287 . S
C499 C500 1.524 . S
C499 H502 0.999 . S
C500 H470 0.950 . S
C500 C499 1.524 . S
C500 C501 1.415 . S
C501 H471 0.950 . S
C501 C496 1.363 . S
C501 C500 1.415 . S
H502 C499 0.999 . S
H503 C484 0.913 . S
H504 C522 0.951 . S
H505 C524 0.951 . S
H506 C526 0.950 . S
H507 C527 0.950 . S
H508 C529 0.950 . S
H509 C532 0.950 . S
H510 C533 0.950 . S
H511 C535 0.950 . S
H512 C536 0.950 . S
H513 C537 0.951 . S
H514 C539 0.951 . S
H515 C541 0.950 . S
H516 C542 0.950 . S
H517 C544 0.950 . S
H518 C547 0.950 . S
H519 C548 0.950 . S
H520 C550 0.950 . S
H521 C551 0.950 . S
C522 H504 0.951 . S
C522 C523 1.366 . S
C522 C524 1.388 . S
C523 C522 1.366 . S
C523 C527 1.385 . S
C524 H505 0.951 . S
C524 C522 1.388 . S
C524 C525 1.366 . S
C525 C524 1.366 . S
C525 C526 1.414 . S
C525 C528 1.499 . S
C526 H506 0.950 . S
C526 C525 1.414 . S
C526 C527 1.374 . S
C527 H507 0.950 . S
C527 C523 1.385 . S
C527 C526 1.374 . S
C528 C525 1.499 . S
C528 C529 1.373 . S
C528 C530 1.389 . S
C529 H508 0.950 . S
C529 C528 1.373 . S
C529 C545 1.377 . S
C530 C528 1.389 . S
C530 C531 1.524 . S
C530 C544 1.377 . S
C531 C530 1.524 . S
C531 C532 1.397 . S
C531 C536 1.363 . S
C532 H509 0.950 . S
C532 C531 1.397 . S
C532 C533 1.334 . S
C533 H510 0.950 . S
C533 C532 1.334 . S
C533 C534 1.287 . S
C534 C533 1.287 . S
C534 C535 1.524 . S
C534 H553 0.913 . S
C535 H511 0.950 . S
C535 C534 1.524 . S
C535 C536 1.415 . S
C536 H512 0.950 . S
C536 C531 1.363 . S
C536 C535 1.415 . S
C537 H513 0.951 . S
C537 C538 1.366 . S
C537 C539 1.388 . S
C538 C537 1.366 . S
C538 C542 1.385 . S
C539 H514 0.951 . S
C539 C537 1.388 . S
C539 C540 1.366 . S
C540 C539 1.366 . S
C540 C541 1.414 . S
C540 C543 1.499 . S
C541 H515 0.950 . S
C541 C540 1.414 . S
C541 C542 1.374 . S
C542 H516 0.950 . S
C542 C538 1.385 . S
C542 C541 1.374 . S
C543 C540 1.499 . S
C543 C544 1.373 . S
C543 C545 1.389 . S
C544 H517 0.950 . S
C544 C530 1.377 . S
C544 C543 1.373 . S
C545 C529 1.377 . S
C545 C543 1.389 . S
C545 C546 1.524 . S
C546 C545 1.524 . S
C546 C547 1.397 . S
C546 C551 1.363 . S
C547 H518 0.950 . S
C547 C546 1.397 . S
C547 C548 1.334 . S
C548 H519 0.950 . S
C548 C547 1.334 . S
C548 C549 1.287 . S
C549 C548 1.287 . S
C549 C550 1.524 . S
C549 H552 0.999 . S
C550 H520 0.950 . S
C550 C549 1.524 . S
C550 C551 1.415 . S
C551 H521 0.950 . S
C551 C546 1.363 . S
C551 C550 1.415 . S
H552 C549 0.999 . S
H553 C534 0.913 . S
H554 C572 0.951 . S
H555 C574 0.951 . S
H556 C576 0.950 . S
H557 C577 0.950 . S
H558 C579 0.950 . S
H559 C582 0.950 . S
H560 C583 0.950 . S
H561 C585 0.950 . S
H562 C586 0.950 . S
H563 C587 0.951 . S
H564 C589 0.951 . S
H565 C591 0.950 . S
H566 C592 0.950 . S
H567 C594 0.950 . S
H568 C597 0.950 . S
H569 C598 0.950 . S
H570 C600 0.950 . S
H571 C601 0.950 . S
C572 H554 0.951 . S
C572 C573 1.366 . S
C572 C574 1.388 . S
C573 C572 1.366 . S
C573 C577 1.385 . S
C574 H555 0.951 . S
C574 C572 1.388 . S
C574 C575 1.366 . S
C575 C574 1.366 . S
C575 C576 1.414 . S
C575 C578 1.499 . S
C576 H556 0.950 . S
C576 C575 1.414 . S
C576 C577 1.374 . S
C577 H557 0.950 . S
C577 C573 1.385 . S
C577 C576 1.374 . S
C578 C575 1.499 . S
C578 C579 1.373 . S
C578 C580 1.389 1_556 S
C579 H558 0.950 . S
C579 C578 1.373 . S
C579 C595 1.377 1_556 S
C580 C578 1.389 1_554 S
C580 C581 1.524 1_554 S
C580 C594 1.377 . S
C581 C580 1.524 1_556 S
C581 C582 1.397 . S
C581 C586 1.363 1_556 S
C582 H559 0.950 . S
C582 C581 1.397 . S
C582 C583 1.334 . S
C583 H560 0.950 . S
C583 C582 1.334 . S
C583 C584 1.287 . S
C584 C583 1.287 . S
C584 C585 1.524 1_556 S
C584 H603 0.913 . S
C585 H561 0.950 . S
C585 C584 1.524 1_554 S
C585 C586 1.415 . S
C586 H562 0.950 . S
C586 C581 1.363 1_554 S
C586 C585 1.415 . S
C587 H563 0.951 . S
C587 C588 1.366 . S
C587 C589 1.388 . S
C588 C587 1.366 . S
C588 C592 1.385 . S
C589 H564 0.951 . S
C589 C587 1.388 . S
C589 C590 1.366 . S
C590 C589 1.366 . S
C590 C591 1.414 . S
C590 C593 1.499 . S
C591 H565 0.950 . S
C591 C590 1.414 . S
C591 C592 1.374 . S
C592 H566 0.950 . S
C592 C588 1.385 . S
C592 C591 1.374 . S
C593 C590 1.499 . S
C593 C594 1.373 . S
C593 C595 1.389 . S
C594 H567 0.950 . S
C594 C580 1.377 . S
C594 C593 1.373 . S
C595 C579 1.377 1_554 S
C595 C593 1.389 . S
C595 C596 1.524 . S
C596 C595 1.524 . S
C596 C597 1.397 . S
C596 C601 1.363 1_554 S
C597 H568 0.950 . S
C597 C596 1.397 . S
C597 C598 1.334 . S
C598 H569 0.950 . S
C598 C597 1.334 . S
C598 C599 1.287 . S
C599 C598 1.287 . S
C599 C600 1.524 1_554 S
C599 H602 0.999 . S
C600 H570 0.950 . S
C600 C599 1.524 1_556 S
C600 C601 1.415 . S
C601 H571 0.950 . S
C601 C596 1.363 1_556 S
C601 C600 1.415 . S
H602 C599 0.999 . S
H603 C584 0.913 . S
H604 C622 0.951 . S
H605 C624 0.951 . S
H606 C626 0.950 . S
H607 C627 0.950 . S
H608 C629 0.950 . S
H609 C632 0.950 . S
H610 C633 0.950 . S
H611 C635 0.950 . S
H612 C636 0.950 . S
H613 C637 0.951 . S
H614 C639 0.951 . S
H615 C641 0.950 . S
H616 C642 0.950 . S
H617 C644 0.950 . S
H618 C647 0.950 1_565 S
H619 C648 0.950 . S
H620 C650 0.950 . S
H621 C651 0.950 . S
C622 H604 0.951 . S
C622 C623 1.366 . S
C622 C624 1.388 . S
C623 C622 1.366 . S
C623 C627 1.385 . S
C624 H605 0.951 . S
C624 C622 1.388 . S
C624 C625 1.366 . S
C625 C624 1.366 . S
C625 C626 1.414 . S
C625 C628 1.499 . S
C626 H606 0.950 . S
C626 C625 1.414 . S
C626 C627 1.374 . S
C627 H607 0.950 . S
C627 C623 1.385 . S
C627 C626 1.374 . S
C628 C625 1.499 . S
C628 C629 1.373 . S
C628 C630 1.389 . S
C629 H608 0.950 . S
C629 C628 1.373 . S
C629 C645 1.377 1_565 S
C630 C628 1.389 . S
C630 C631 1.524 . S
C630 C644 1.377 1_565 S
C631 C630 1.524 . S
C631 C632 1.397 . S
C631 C636 1.363 . S
C632 H609 0.950 . S
C632 C631 1.397 . S
C632 C633 1.334 . S
C633 H610 0.950 . S
C633 C632 1.334 . S
C633 C634 1.287 . S
C634 C633 1.287 . S
C634 C635 1.524 . S
C634 H653 0.913 . S
C635 H611 0.950 . S
C635 C634 1.524 . S
C635 C636 1.415 . S
C636 H612 0.950 . S
C636 C631 1.363 . S
C636 C635 1.415 . S
C637 H613 0.951 . S
C637 C638 1.366 . S
C637 C639 1.388 . S
C638 C637 1.366 . S
C638 C642 1.385 . S
C639 H614 0.951 . S
C639 C637 1.388 . S
C639 C640 1.366 . S
C640 C639 1.366 . S
C640 C641 1.414 . S
C640 C643 1.499 . S
C641 H615 0.950 . S
C641 C640 1.414 . S
C641 C642 1.374 . S
C642 H616 0.950 . S
C642 C638 1.385 . S
C642 C641 1.374 . S
C643 C640 1.499 . S
C643 C644 1.373 . S
C643 C645 1.389 . S
C644 H617 0.950 . S
C644 C630 1.377 1_545 S
C644 C643 1.373 . S
C645 C629 1.377 1_545 S
C645 C643 1.389 . S
C645 C646 1.524 . S
C646 C645 1.524 . S
C646 C647 1.397 . S
C646 C651 1.363 . S
C647 H618 0.950 1_545 S
C647 C646 1.397 . S
C647 C648 1.334 . S
C648 H619 0.950 . S
C648 C647 1.334 . S
C648 C649 1.287 . S
C649 C648 1.287 . S
C649 C650 1.524 . S
C649 H652 0.999 . S
C650 H620 0.950 . S
C650 C649 1.524 . S
C650 C651 1.415 . S
C651 H621 0.950 . S
C651 C646 1.363 . S
C651 C650 1.415 . S
H652 C649 0.999 . S
H653 C634 0.913 . S
H654 C672 0.951 . S
H655 C674 0.951 . S
H656 C676 0.950 . S
H657 C677 0.950 . S
H658 C679 0.950 . S
H659 C682 0.950 . S
H660 C683 0.950 . S
H661 C685 0.950 . S
H662 C686 0.950 1_545 S
H663 C687 0.951 . S
H664 C689 0.951 . S
H665 C691 0.950 . S
H666 C692 0.950 . S
H667 C694 0.950 . S
H668 C697 0.950 . S
H669 C698 0.950 . S
H670 C700 0.950 . S
H671 C701 0.950 1_565 S
C672 H654 0.951 . S
C672 C673 1.366 . S
C672 C674 1.388 . S
C673 C672 1.366 . S
C673 C677 1.385 . S
C674 H655 0.951 . S
C674 C672 1.388 . S
C674 C675 1.366 . S
C675 C674 1.366 . S
C675 C676 1.414 . S
C675 C678 1.499 . S
C676 H656 0.950 . S
C676 C675 1.414 . S
C676 C677 1.374 . S
C677 H657 0.950 . S
C677 C673 1.385 . S
C677 C676 1.374 . S
C678 C675 1.499 . S
C678 C679 1.373 . S
C678 C680 1.389 1_655 S
C679 H658 0.950 . S
C679 C678 1.373 . S
C679 C695 1.377 1_565 S
C680 C678 1.389 1_455 S
C680 C681 1.524 . S
C680 C694 1.377 1_565 S
C681 C680 1.524 . S
C681 C682 1.397 . S
C681 C686 1.363 . S
C682 H659 0.950 . S
C682 C681 1.397 . S
C682 C683 1.334 . S
C683 H660 0.950 . S
C683 C682 1.334 . S
C683 C684 1.287 . S
C684 C683 1.287 . S
C684 C685 1.524 . S
C684 H703 0.913 . S
C685 H661 0.950 . S
C685 C684 1.524 . S
C685 C686 1.415 . S
C686 H662 0.950 1_565 S
C686 C681 1.363 . S
C686 C685 1.415 . S
C687 H663 0.951 . S
C687 C688 1.366 . S
C687 C689 1.388 . S
C688 C687 1.366 . S
C688 C692 1.385 . S
C689 H664 0.951 . S
C689 C687 1.388 . S
C689 C690 1.366 . S
C690 C689 1.366 . S
C690 C691 1.414 . S
C690 C693 1.499 . S
C691 H665 0.950 . S
C691 C690 1.414 . S
C691 C692 1.374 . S
C692 H666 0.950 . S
C692 C688 1.385 . S
C692 C691 1.374 . S
C693 C690 1.499 . S
C693 C694 1.373 . S
C693 C695 1.389 1_455 S
C694 H667 0.950 . S
C694 C680 1.377 1_545 S
C694 C693 1.373 . S
C695 C679 1.377 1_545 S
C695 C693 1.389 1_655 S
C695 C696 1.524 . S
C696 C695 1.524 . S
C696 C697 1.397 . S
C696 C701 1.363 . S
C697 H668 0.950 . S
C697 C696 1.397 . S
C697 C698 1.334 . S
C698 H669 0.950 . S
C698 C697 1.334 . S
C698 C699 1.287 . S
C699 C698 1.287 . S
C699 C700 1.524 . S
C699 H702 0.999 . S
C700 H670 0.950 . S
C700 C699 1.524 . S
C700 C701 1.415 . S
C701 H671 0.950 1_545 S
C701 C696 1.363 . S
C701 C700 1.415 . S
H702 C699 0.999 . S
H703 C684 0.913 . S
H704 C722 0.951 . S
H705 C724 0.951 1_455 S
H706 C726 0.950 . S
H707 C727 0.950 . S
H708 C729 0.950 . S
H709 C732 0.950 . S
H710 C733 0.950 . S
H711 C735 0.950 . S
H712 C736 0.950 . S
H713 C737 0.951 . S
H714 C739 0.951 1_655 S
H715 C741 0.950 . S
H716 C742 0.950 . S
H717 C744 0.950 . S
H718 C747 0.950 . S
H719 C748 0.950 . S
H720 C750 0.950 . S
H721 C751 0.950 . S
C722 H704 0.951 . S
C722 C723 1.366 . S
C722 C724 1.388 . S
C723 C722 1.366 . S
C723 C727 1.385 . S
C724 H705 0.951 1_655 S
C724 C722 1.388 . S
C724 C725 1.366 . S
C725 C724 1.366 . S
C725 C726 1.414 . S
C725 C728 1.499 . S
C726 H706 0.950 . S
C726 C725 1.414 . S
C726 C727 1.374 . S
C727 H707 0.950 . S
C727 C723 1.385 . S
C727 C726 1.374 . S
C728 C725 1.499 . S
C728 C729 1.373 . S
C728 C730 1.389 1_655 S
C729 H708 0.950 . S
C729 C728 1.373 . S
C729 C745 1.377 . S
C730 C728 1.389 1_455 S
C730 C731 1.524 . S
C730 C744 1.377 . S
C731 C730 1.524 . S
C731 C732 1.397 . S
C731 C736 1.363 . S
C732 H709 0.950 . S
C732 C731 1.397 . S
C732 C733 1.334 . S
C733 H710 0.950 . S
C733 C732 1.334 . S
C733 C734 1.287 . S
C734 C733 1.287 . S
C734 C735 1.524 . S
C734 H753 0.913 . S
C735 H711 0.950 . S
C735 C734 1.524 . S
C735 C736 1.415 . S
C736 H712 0.950 . S
C736 C731 1.363 . S
C736 C735 1.415 . S
C737 H713 0.951 . S
C737 C738 1.366 . S
C737 C739 1.388 . S
C738 C737 1.366 . S
C738 C742 1.385 . S
C739 H714 0.951 1_455 S
C739 C737 1.388 . S
C739 C740 1.366 . S
C740 C739 1.366 . S
C740 C741 1.414 . S
C740 C743 1.499 . S
C741 H715 0.950 . S
C741 C740 1.414 . S
C741 C742 1.374 . S
C742 H716 0.950 . S
C742 C738 1.385 . S
C742 C741 1.374 . S
C743 C740 1.499 . S
C743 C744 1.373 . S
C743 C745 1.389 1_455 S
C744 H717 0.950 . S
C744 C730 1.377 . S
C744 C743 1.373 . S
C745 C729 1.377 . S
C745 C743 1.389 1_655 S
C745 C746 1.524 . S
C746 C745 1.524 . S
C746 C747 1.397 . S
C746 C751 1.363 . S
C747 H718 0.950 . S
C747 C746 1.397 . S
C747 C748 1.334 . S
C748 H719 0.950 . S
C748 C747 1.334 . S
C748 C749 1.287 . S
C749 C748 1.287 . S
C749 C750 1.524 . S
C749 H752 0.999 . S
C750 H720 0.950 . S
C750 C749 1.524 . S
C750 C751 1.415 . S
C751 H721 0.950 . S
C751 C746 1.363 . S
C751 C750 1.415 . S
H752 C749 0.999 . S
H753 C734 0.913 . S
H754 C772 0.951 . S
H755 C774 0.951 . S
H756 C776 0.950 . S
H757 C777 0.950 . S
H758 C779 0.950 . S
H759 C782 0.950 . S
H760 C783 0.950 . S
H761 C785 0.950 . S
H762 C786 0.950 . S
H763 C787 0.951 . S
H764 C789 0.951 . S
H765 C791 0.950 . S
H766 C792 0.950 . S
H767 C794 0.950 . S
H768 C797 0.950 . S
H769 C798 0.950 . S
H770 C800 0.950 . S
H771 C801 0.950 . S
C772 H754 0.951 . S
C772 C773 1.366 . S
C772 C774 1.388 . S
C773 C772 1.366 . S
C773 C777 1.385 . S
C774 H755 0.951 . S
C774 C772 1.388 . S
C774 C775 1.366 . S
C775 C774 1.366 . S
C775 C776 1.414 . S
C775 C778 1.499 . S
C776 H756 0.950 . S
C776 C775 1.414 . S
C776 C777 1.374 . S
C777 H757 0.950 . S
C777 C773 1.385 . S
C777 C776 1.374 . S
C778 C775 1.499 . S
C778 C779 1.373 . S
C778 C780 1.389 . S
C779 H758 0.950 . S
C779 C778 1.373 . S
C779 C795 1.377 . S
C780 C778 1.389 . S
C780 C781 1.524 . S
C780 C794 1.377 . S
C781 C780 1.524 . S
C781 C782 1.397 . S
C781 C786 1.363 . S
C782 H759 0.950 . S
C782 C781 1.397 . S
C782 C783 1.334 . S
C783 H760 0.950 . S
C783 C782 1.334 . S
C783 C784 1.287 . S
C784 C783 1.287 . S
C784 C785 1.524 . S
C784 H803 0.913 . S
C785 H761 0.950 . S
C785 C784 1.524 . S
C785 C786 1.415 . S
C786 H762 0.950 . S
C786 C781 1.363 . S
C786 C785 1.415 . S
C787 H763 0.951 . S
C787 C788 1.366 . S
C787 C789 1.388 . S
C788 C787 1.366 . S
C788 C792 1.385 . S
C789 H764 0.951 . S
C789 C787 1.388 . S
C789 C790 1.366 . S
C790 C789 1.366 . S
C790 C791 1.414 . S
C790 C793 1.499 . S
C791 H765 0.950 . S
C791 C790 1.414 . S
C791 C792 1.374 . S
C792 H766 0.950 . S
C792 C788 1.385 . S
C792 C791 1.374 . S
C793 C790 1.499 . S
C793 C794 1.373 . S
C793 C795 1.389 . S
C794 H767 0.950 . S
C794 C780 1.377 . S
C794 C793 1.373 . S
C795 C779 1.377 . S
C795 C793 1.389 . S
C795 C796 1.524 . S
C796 C795 1.524 . S
C796 C797 1.397 . S
C796 C801 1.363 . S
C797 H768 0.950 . S
C797 C796 1.397 . S
C797 C798 1.334 . S
C798 H769 0.950 . S
C798 C797 1.334 . S
C798 C799 1.287 . S
C799 C798 1.287 . S
C799 C800 1.524 . S
C799 H802 0.999 . S
C800 H770 0.950 . S
C800 C799 1.524 . S
C800 C801 1.415 . S
C801 H771 0.950 . S
C801 C796 1.363 . S
C801 C800 1.415 . S
H802 C799 0.999 . S
H803 C784 0.913 . S
H804 C822 0.951 . S
H805 C824 0.951 . S
H806 C826 0.950 . S
H807 C827 0.950 . S
H808 C829 0.950 . S
H809 C832 0.950 . S
H810 C833 0.950 . S
H811 C835 0.950 . S
H812 C836 0.950 . S
H813 C837 0.951 . S
H814 C839 0.951 . S
H815 C841 0.950 . S
H816 C842 0.950 . S
H817 C844 0.950 . S
H818 C847 0.950 . S
H819 C848 0.950 . S
H820 C850 0.950 . S
H821 C851 0.950 . S
C822 H804 0.951 . S
C822 C823 1.366 . S
C822 C824 1.388 . S
C823 C822 1.366 . S
C823 C827 1.385 . S
C824 H805 0.951 . S
C824 C822 1.388 . S
C824 C825 1.366 . S
C825 C824 1.366 . S
C825 C826 1.414 . S
C825 C828 1.499 . S
C826 H806 0.950 . S
C826 C825 1.414 . S
C826 C827 1.374 . S
C827 H807 0.950 . S
C827 C823 1.385 . S
C827 C826 1.374 . S
C828 C825 1.499 . S
C828 C829 1.373 . S
C828 C830 1.389 . S
C829 H808 0.950 . S
C829 C828 1.373 . S
C829 C845 1.377 . S
C830 C828 1.389 . S
C830 C831 1.524 . S
C830 C844 1.377 1_554 S
C831 C830 1.524 . S
C831 C832 1.397 . S
C831 C836 1.363 1_554 S
C832 H809 0.950 . S
C832 C831 1.397 . S
C832 C833 1.334 . S
C833 H810 0.950 . S
C833 C832 1.334 . S
C833 C834 1.287 . S
C834 C833 1.287 . S
C834 C835 1.524 1_554 S
C834 H853 0.913 . S
C835 H811 0.950 . S
C835 C834 1.524 1_556 S
C835 C836 1.415 . S
C836 H812 0.950 . S
C836 C831 1.363 1_556 S
C836 C835 1.415 . S
C837 H813 0.951 . S
C837 C838 1.366 . S
C837 C839 1.388 . S
C838 C837 1.366 . S
C838 C842 1.385 . S
C839 H814 0.951 . S
C839 C837 1.388 . S
C839 C840 1.366 . S
C840 C839 1.366 . S
C840 C841 1.414 . S
C840 C843 1.499 . S
C841 H815 0.950 . S
C841 C840 1.414 . S
C841 C842 1.374 . S
C842 H816 0.950 . S
C842 C838 1.385 . S
C842 C841 1.374 . S
C843 C840 1.499 . S
C843 C844 1.373 . S
C843 C845 1.389 1_556 S
C844 H817 0.950 . S
C844 C830 1.377 1_556 S
C844 C843 1.373 . S
C845 C829 1.377 . S
C845 C843 1.389 1_554 S
C845 C846 1.524 . S
C846 C845 1.524 . S
C846 C847 1.397 1_554 S
C846 C851 1.363 . S
C847 H818 0.950 . S
C847 C846 1.397 1_556 S
C847 C848 1.334 . S
C848 H819 0.950 . S
C848 C847 1.334 . S
C848 C849 1.315 . S
C849 C848 1.315 . S
C849 C850 1.493 1_556 S
C849 H852 1.000 . S
C850 H820 0.950 . S
C850 C849 1.493 1_554 S
C850 C851 1.415 . S
C851 H821 0.950 . S
C851 C846 1.363 . S
C851 C850 1.415 . S
H852 C849 1.000 . S
H853 C834 0.913 . S
H854 C872 0.951 . S
H855 C874 0.951 . S
H856 C876 0.950 . S
H857 C877 0.950 . S
H858 C879 0.950 . S
H859 C882 0.950 . S
H860 C883 0.950 . S
H861 C885 0.950 . S
H862 C886 0.950 . S
H863 C887 0.951 . S
H864 C889 0.951 . S
H865 C891 0.950 . S
H866 C892 0.950 . S
H867 C894 0.950 . S
H868 C897 0.950 . S
H869 C898 0.950 . S
H870 C900 0.950 . S
H871 C901 0.950 . S
C872 H854 0.951 . S
C872 C873 1.366 . S
C872 C874 1.388 . S
C873 C872 1.366 . S
C873 C877 1.385 . S
C874 H855 0.951 . S
C874 C872 1.388 . S
C874 C875 1.366 . S
C875 C874 1.366 . S
C875 C876 1.414 . S
C875 C878 1.499 . S
C876 H856 0.950 . S
C876 C875 1.414 . S
C876 C877 1.374 . S
C877 H857 0.950 . S
C877 C873 1.385 . S
C877 C876 1.374 . S
C878 C875 1.499 . S
C878 C879 1.373 . S
C878 C880 1.389 . S
C879 H858 0.950 . S
C879 C878 1.373 . S
C879 C895 1.377 . S
C880 C878 1.389 . S
C880 C881 1.524 . S
C880 C894 1.377 . S
C881 C880 1.524 . S
C881 C882 1.397 . S
C881 C886 1.363 . S
C882 H859 0.950 . S
C882 C881 1.397 . S
C882 C883 1.334 . S
C883 H860 0.950 . S
C883 C882 1.334 . S
C883 C884 1.287 . S
C884 C883 1.287 . S
C884 C885 1.524 . S
C884 H903 0.913 . S
C885 H861 0.950 . S
C885 C884 1.524 . S
C885 C886 1.415 . S
C886 H862 0.950 . S
C886 C881 1.363 . S
C886 C885 1.415 . S
C887 H863 0.951 . S
C887 C888 1.366 . S
C887 C889 1.388 . S
C888 C887 1.366 . S
C888 C892 1.385 . S
C889 H864 0.951 . S
C889 C887 1.388 . S
C889 C890 1.366 . S
C890 C889 1.366 . S
C890 C891 1.414 . S
C890 C893 1.499 . S
C891 H865 0.950 . S
C891 C890 1.414 . S
C891 C892 1.374 . S
C892 H866 0.950 . S
C892 C888 1.385 . S
C892 C891 1.374 . S
C893 C890 1.499 . S
C893 C894 1.373 . S
C893 C895 1.389 . S
C894 H867 0.950 . S
C894 C880 1.377 . S
C894 C893 1.373 . S
C895 C879 1.377 . S
C895 C893 1.389 . S
C895 C896 1.524 . S
C896 C895 1.524 . S
C896 C897 1.397 . S
C896 C901 1.363 . S
C897 H868 0.950 . S
C897 C896 1.397 . S
C897 C898 1.334 . S
C898 H869 0.950 . S
C898 C897 1.334 . S
C898 C899 1.287 . S
C899 C898 1.287 . S
C899 C900 1.524 . S
C899 H902 0.999 . S
C900 H870 0.950 . S
C900 C899 1.524 . S
C900 C901 1.415 . S
C901 H871 0.950 . S
C901 C896 1.363 . S
C901 C900 1.415 . S
H902 C899 0.999 . S
H903 C884 0.913 . S
C123 C70 1.514 . S
C138 C10 1.515 . S
C173 C96 1.514 . S
C188 C17 1.515 . S
C223 C29 1.515 . S
C238 C81 1.515 . S
C273 C43 1.514 . S
C288 C56 1.515 . S
C323 C82 1.515 . S
C338 C3 1.514 . S
C373 C16 1.515 . S
C388 C57 1.515 . S
C423 C75 1.514 . S
C438 C36 1.514 . S
C473 C42 1.514 . S
C488 C95 1.515 . S
C523 C55 1.514 . S
C538 C69 1.515 . S
C573 C18 1.514 . S
C588 C30 1.515 . S
C623 C49 1.515 . S
C638 C31 1.514 . S
C673 C44 1.515 . S
C688 C5 1.515 . S
C723 C23 1.514 . S
C738 C4 1.514 . S
C773 C101 1.515 . S
C788 C88 1.514 . S
C823 C62 1.515 . S
C838 C83 1.514 . S
C873 C68 1.515 . S
C888 C94 1.515 . S
