# Generated by pormake.
# Topology wiq, (6)-cn, num edge types: 1
# Building blocks:
#     Node 0, Type 0, BuildingBlock: MAKGUD_clean_sbu_1, # of connection points: 6
#     Node 1, Type 0, BuildingBlock: MAKGUD_clean_sbu_1, # of connection points: 6
#     Node 2, Type 0, BuildingBlock: MAKGUD_clean_sbu_1, # of connection points: 6
#     Node 3, Type 0, BuildingBlock: MAKGUD_clean_sbu_1, # of connection points: 6
#     Node 4, Type 0, BuildingBlock: MAKGUD_clean_sbu_1, # of connection points: 6
#     Node 5, Type 0, BuildingBlock: MAKGUD_clean_sbu_1, # of connection points: 6
#     Node 6, Type 0, BuildingBlock: MAKGUD_clean_sbu_1, # of connection points: 6
#     Node 7, Type 0, BuildingBlock: MAKGUD_clean_sbu_1, # of connection points: 6
#     Node 8, Type 0, BuildingBlock: MAKGUD_clean_sbu_1, # of connection points: 6
#     Node 9, Type 0, BuildingBlock: MAKGUD_clean_sbu_1, # of connection points: 6
#     Node 10, Type 0, BuildingBlock: MAKGUD_clean_sbu_1, # of connection points: 6
#     Node 11, Type 0, BuildingBlock: MAKGUD_clean_sbu_1, # of connection points: 6
#     Node 12, Type 0, BuildingBlock: MAKGUD_clean_sbu_1, # of connection points: 6
#     Node 13, Type 0, BuildingBlock: MAKGUD_clean_sbu_1, # of connection points: 6
#     Node 14, Type 0, BuildingBlock: MAKGUD_clean_sbu_1, # of connection points: 6
#     Node 15, Type 0, BuildingBlock: MAKGUD_clean_sbu_1, # of connection points: 6
#     Node 16, Type 0, BuildingBlock: MAKGUD_clean_sbu_1, # of connection points: 6
#     Node 17, Type 0, BuildingBlock: MAKGUD_clean_sbu_1, # of connection points: 6
#     Node 18, Type 0, BuildingBlock: MAKGUD_clean_sbu_1, # of connection points: 6
#     Node 19, Type 0, BuildingBlock: MAKGUD_clean_sbu_1, # of connection points: 6
#     Node 20, Type 0, BuildingBlock: MAKGUD_clean_sbu_1, # of connection points: 6
#     Node 21, Type 0, BuildingBlock: MAKGUD_clean_sbu_1, # of connection points: 6
#     Node 22, Type 0, BuildingBlock: MAKGUD_clean_sbu_1, # of connection points: 6
#     Node 23, Type 0, BuildingBlock: MAKGUD_clean_sbu_1, # of connection points: 6
#     Node 24, Type 0, BuildingBlock: MAKGUD_clean_sbu_1, # of connection points: 6
#     Node 25, Type 0, BuildingBlock: MAKGUD_clean_sbu_1, # of connection points: 6
#     Node 26, Type 0, BuildingBlock: MAKGUD_clean_sbu_1, # of connection points: 6
#     Node 27, Type 0, BuildingBlock: MAKGUD_clean_sbu_1, # of connection points: 6
#     Node 28, Type 0, BuildingBlock: MAKGUD_clean_sbu_1, # of connection points: 6
#     Node 29, Type 0, BuildingBlock: MAKGUD_clean_sbu_1, # of connection points: 6
#     Node 30, Type 0, BuildingBlock: MAKGUD_clean_sbu_1, # of connection points: 6
#     Node 31, Type 0, BuildingBlock: MAKGUD_clean_sbu_1, # of connection points: 6
#     Edge 32, Type (0, 0), BuildingBlock: EZIPEK_clean_linker_0, # of connection points: 2
#     Edge 33, Type (0, 0), BuildingBlock: EZIPEK_clean_linker_0, # of connection points: 2
#     Edge 34, Type (0, 0), BuildingBlock: EZIPEK_clean_linker_0, # of connection points: 2
#     Edge 35, Type (0, 0), BuildingBlock: EZIPEK_clean_linker_0, # of connection points: 2
#     Edge 36, Type (0, 0), BuildingBlock: EZIPEK_clean_linker_0, # of connection points: 2
#     Edge 37, Type (0, 0), BuildingBlock: EZIPEK_clean_linker_0, # of connection points: 2
#     Edge 38, Type (0, 0), BuildingBlock: EZIPEK_clean_linker_0, # of connection points: 2
#     Edge 39, Type (0, 0), BuildingBlock: EZIPEK_clean_linker_0, # of connection points: 2
#     Edge 40, Type (0, 0), BuildingBlock: EZIPEK_clean_linker_0, # of connection points: 2
#     Edge 41, Type (0, 0), BuildingBlock: EZIPEK_clean_linker_0, # of connection points: 2
#     Edge 42, Type (0, 0), BuildingBlock: EZIPEK_clean_linker_0, # of connection points: 2
#     Edge 43, Type (0, 0), BuildingBlock: EZIPEK_clean_linker_0, # of connection points: 2
#     Edge 44, Type (0, 0), BuildingBlock: EZIPEK_clean_linker_0, # of connection points: 2
#     Edge 45, Type (0, 0), BuildingBlock: EZIPEK_clean_linker_0, # of connection points: 2
#     Edge 46, Type (0, 0), BuildingBlock: EZIPEK_clean_linker_0, # of connection points: 2
#     Edge 47, Type (0, 0), BuildingBlock: EZIPEK_clean_linker_0, # of connection points: 2
#     Edge 48, Type (0, 0), BuildingBlock: EZIPEK_clean_linker_0, # of connection points: 2
#     Edge 49, Type (0, 0), BuildingBlock: EZIPEK_clean_linker_0, # of connection points: 2
#     Edge 50, Type (0, 0), BuildingBlock: EZIPEK_clean_linker_0, # of connection points: 2
#     Edge 51, Type (0, 0), BuildingBlock: EZIPEK_clean_linker_0, # of connection points: 2
#     Edge 52, Type (0, 0), BuildingBlock: EZIPEK_clean_linker_0, # of connection points: 2
#     Edge 53, Type (0, 0), BuildingBlock: EZIPEK_clean_linker_0, # of connection points: 2
#     Edge 54, Type (0, 0), BuildingBlock: EZIPEK_clean_linker_0, # of connection points: 2
#     Edge 55, Type (0, 0), BuildingBlock: EZIPEK_clean_linker_0, # of connection points: 2
#     Edge 56, Type (0, 0), BuildingBlock: EZIPEK_clean_linker_0, # of connection points: 2
#     Edge 57, Type (0, 0), BuildingBlock: EZIPEK_clean_linker_0, # of connection points: 2
#     Edge 58, Type (0, 0), BuildingBlock: EZIPEK_clean_linker_0, # of connection points: 2
#     Edge 59, Type (0, 0), BuildingBlock: EZIPEK_clean_linker_0, # of connection points: 2
#     Edge 60, Type (0, 0), BuildingBlock: EZIPEK_clean_linker_0, # of connection points: 2
#     Edge 61, Type (0, 0), BuildingBlock: EZIPEK_clean_linker_0, # of connection points: 2
#     Edge 62, Type (0, 0), BuildingBlock: EZIPEK_clean_linker_0, # of connection points: 2
#     Edge 63, Type (0, 0), BuildingBlock: EZIPEK_clean_linker_0, # of connection points: 2
#     Edge 64, Type (0, 0), BuildingBlock: EZIPEK_clean_linker_0, # of connection points: 2
#     Edge 65, Type (0, 0), BuildingBlock: EZIPEK_clean_linker_0, # of connection points: 2
#     Edge 66, Type (0, 0), BuildingBlock: EZIPEK_clean_linker_0, # of connection points: 2
#     Edge 67, Type (0, 0), BuildingBlock: EZIPEK_clean_linker_0, # of connection points: 2
#     Edge 68, Type (0, 0), BuildingBlock: EZIPEK_clean_linker_0, # of connection points: 2
#     Edge 69, Type (0, 0), BuildingBlock: EZIPEK_clean_linker_0, # of connection points: 2
#     Edge 70, Type (0, 0), BuildingBlock: EZIPEK_clean_linker_0, # of connection points: 2
#     Edge 71, Type (0, 0), BuildingBlock: EZIPEK_clean_linker_0, # of connection points: 2
#     Edge 72, Type (0, 0), BuildingBlock: EZIPEK_clean_linker_0, # of connection points: 2
#     Edge 73, Type (0, 0), BuildingBlock: EZIPEK_clean_linker_0, # of connection points: 2
#     Edge 74, Type (0, 0), BuildingBlock: EZIPEK_clean_linker_0, # of connection points: 2
#     Edge 75, Type (0, 0), BuildingBlock: EZIPEK_clean_linker_0, # of connection points: 2
#     Edge 76, Type (0, 0), BuildingBlock: EZIPEK_clean_linker_0, # of connection points: 2
#     Edge 77, Type (0, 0), BuildingBlock: EZIPEK_clean_linker_0, # of connection points: 2
#     Edge 78, Type (0, 0), BuildingBlock: EZIPEK_clean_linker_0, # of connection points: 2
#     Edge 79, Type (0, 0), BuildingBlock: EZIPEK_clean_linker_0, # of connection points: 2
#     Edge 80, Type (0, 0), BuildingBlock: EZIPEK_clean_linker_0, # of connection points: 2
#     Edge 81, Type (0, 0), BuildingBlock: EZIPEK_clean_linker_0, # of connection points: 2
#     Edge 82, Type (0, 0), BuildingBlock: EZIPEK_clean_linker_0, # of connection points: 2
#     Edge 83, Type (0, 0), BuildingBlock: EZIPEK_clean_linker_0, # of connection points: 2
#     Edge 84, Type (0, 0), BuildingBlock: EZIPEK_clean_linker_0, # of connection points: 2
#     Edge 85, Type (0, 0), BuildingBlock: EZIPEK_clean_linker_0, # of connection points: 2
#     Edge 86, Type (0, 0), BuildingBlock: EZIPEK_clean_linker_0, # of connection points: 2
#     Edge 87, Type (0, 0), BuildingBlock: EZIPEK_clean_linker_0, # of connection points: 2
#     Edge 88, Type (0, 0), BuildingBlock: EZIPEK_clean_linker_0, # of connection points: 2
#     Edge 89, Type (0, 0), BuildingBlock: EZIPEK_clean_linker_0, # of connection points: 2
#     Edge 90, Type (0, 0), BuildingBlock: EZIPEK_clean_linker_0, # of connection points: 2
#     Edge 91, Type (0, 0), BuildingBlock: EZIPEK_clean_linker_0, # of connection points: 2
#     Edge 92, Type (0, 0), BuildingBlock: EZIPEK_clean_linker_0, # of connection points: 2
#     Edge 93, Type (0, 0), BuildingBlock: EZIPEK_clean_linker_0, # of connection points: 2
#     Edge 94, Type (0, 0), BuildingBlock: EZIPEK_clean_linker_0, # of connection points: 2
#     Edge 95, Type (0, 0), BuildingBlock: EZIPEK_clean_linker_0, # of connection points: 2
#     Edge 96, Type (0, 0), BuildingBlock: EZIPEK_clean_linker_0, # of connection points: 2
#     Edge 97, Type (0, 0), BuildingBlock: EZIPEK_clean_linker_0, # of connection points: 2
#     Edge 98, Type (0, 0), BuildingBlock: EZIPEK_clean_linker_0, # of connection points: 2
#     Edge 99, Type (0, 0), BuildingBlock: EZIPEK_clean_linker_0, # of connection points: 2
#     Edge 100, Type (0, 0), BuildingBlock: EZIPEK_clean_linker_0, # of connection points: 2
#     Edge 101, Type (0, 0), BuildingBlock: EZIPEK_clean_linker_0, # of connection points: 2
#     Edge 102, Type (0, 0), BuildingBlock: EZIPEK_clean_linker_0, # of connection points: 2
#     Edge 103, Type (0, 0), BuildingBlock: EZIPEK_clean_linker_0, # of connection points: 2
#     Edge 104, Type (0, 0), BuildingBlock: EZIPEK_clean_linker_0, # of connection points: 2
#     Edge 105, Type (0, 0), BuildingBlock: EZIPEK_clean_linker_0, # of connection points: 2
#     Edge 106, Type (0, 0), BuildingBlock: EZIPEK_clean_linker_0, # of connection points: 2
#     Edge 107, Type (0, 0), BuildingBlock: EZIPEK_clean_linker_0, # of connection points: 2
#     Edge 108, Type (0, 0), BuildingBlock: EZIPEK_clean_linker_0, # of connection points: 2
#     Edge 109, Type (0, 0), BuildingBlock: EZIPEK_clean_linker_0, # of connection points: 2
#     Edge 110, Type (0, 0), BuildingBlock: EZIPEK_clean_linker_0, # of connection points: 2
#     Edge 111, Type (0, 0), BuildingBlock: EZIPEK_clean_linker_0, # of connection points: 2
#     Edge 112, Type (0, 0), BuildingBlock: EZIPEK_clean_linker_0, # of connection points: 2
#     Edge 113, Type (0, 0), BuildingBlock: EZIPEK_clean_linker_0, # of connection points: 2
#     Edge 114, Type (0, 0), BuildingBlock: EZIPEK_clean_linker_0, # of connection points: 2
#     Edge 115, Type (0, 0), BuildingBlock: EZIPEK_clean_linker_0, # of connection points: 2
#     Edge 116, Type (0, 0), BuildingBlock: EZIPEK_clean_linker_0, # of connection points: 2
#     Edge 117, Type (0, 0), BuildingBlock: EZIPEK_clean_linker_0, # of connection points: 2
#     Edge 118, Type (0, 0), BuildingBlock: EZIPEK_clean_linker_0, # of connection points: 2
#     Edge 119, Type (0, 0), BuildingBlock: EZIPEK_clean_linker_0, # of connection points: 2
#     Edge 120, Type (0, 0), BuildingBlock: EZIPEK_clean_linker_0, # of connection points: 2
#     Edge 121, Type (0, 0), BuildingBlock: EZIPEK_clean_linker_0, # of connection points: 2
#     Edge 122, Type (0, 0), BuildingBlock: EZIPEK_clean_linker_0, # of connection points: 2
#     Edge 123, Type (0, 0), BuildingBlock: EZIPEK_clean_linker_0, # of connection points: 2
#     Edge 124, Type (0, 0), BuildingBlock: EZIPEK_clean_linker_0, # of connection points: 2
#     Edge 125, Type (0, 0), BuildingBlock: EZIPEK_clean_linker_0, # of connection points: 2
#     Edge 126, Type (0, 0), BuildingBlock: EZIPEK_clean_linker_0, # of connection points: 2
#     Edge 127, Type (0, 0), BuildingBlock: EZIPEK_clean_linker_0, # of connection points: 2
# Relax obj value: 0.275
# Max RMSD: 0.259
# Mean RMSD: 0.259
data_MOF--net-wiq--node1-MAKGUD_clean_sbu_1--edge1-EZIPEK_clean_linker_0
_symmetry_space_group_name_H-M    P1
_symmetry_Int_Tables_number       1
_symmetry_cell_setting            triclinic
loop_
_symmetry_equiv_pos_as_xyz
'x, y, z'
_cell_length_a     39.795055
_cell_length_b     39.844625
_cell_length_c     44.238899
_cell_angle_alpha  89.878368
_cell_angle_beta   89.88469
_cell_angle_gamma 89.691392
loop_
_atom_site_label
_atom_site_type_symbol
_atom_site_fract_x
_atom_site_fract_y
_atom_site_fract_z
_atom_type_partial_charge
O0 O 0.20132 0.27952 0.38767 0.0
Tb1 Tb 0.17026 0.25355 0.35368 0.0
C2 C 0.14422 0.18048 0.35551 0.0
O3 O 0.23644 0.21606 0.31387 0.0
Tb4 Tb 0.19786 0.17776 0.30387 0.0
C5 C 0.22082 0.11404 0.30561 0.0
O6 O 0.20424 0.26463 0.31645 0.0
O7 O 0.182 0.17962 0.25651 0.0
C8 C 0.16108 0.20079 0.24337 0.0
O9 O 0.14876 0.22636 0.25847 0.0
O10 O 0.16337 0.20223 0.36956 0.0
O11 O 0.14895 0.17418 0.32655 0.0
O12 O 0.12489 0.27471 0.33417 0.0
C13 C 0.23316 0.24921 0.31215 0.0
C14 C 0.17619 0.29401 0.40161 0.0
O15 O 0.22298 0.13455 0.28284 0.0
O16 O 0.20776 0.13036 0.3283 0.0
C17 C 0.10277 0.25758 0.31881 0.0
O18 O 0.10999 0.22718 0.30982 0.0
O19 O 0.14834 0.28529 0.38879 0.0
O20 O 0.20974 0.96163 0.57397 0.0
Tb21 Tb 0.16207 0.94584 0.55317 0.0
C22 C 0.09263 0.98557 0.55904 0.0
O23 O 0.13718 0.92231 0.62149 0.0
Tb24 Tb 0.08644 0.927 0.604 0.0
C25 C 0.04483 0.93663 0.65042 0.0
O26 O 0.16681 0.90115 0.58187 0.0
O27 O 0.06667 0.88053 0.58664 0.0
C28 C 0.08271 0.86018 0.5684 0.0
O29 O 0.11067 0.86961 0.55527 0.0
O30 O 0.12588 0.98757 0.56018 0.0
O31 O 0.07678 0.95735 0.56423 0.0
O32 O 0.14989 0.92051 0.51062 0.0
C33 C 0.15821 0.89991 0.61058 0.0
C34 C 0.22611 0.96669 0.54888 0.0
O35 O 0.05664 0.90799 0.64144 0.0
O36 O 0.05676 0.96062 0.63342 0.0
C37 C 0.14668 0.93809 0.48547 0.0
O38 O 0.14784 0.97097 0.48688 0.0
O39 O 0.20586 0.96136 0.52643 0.0
O40 O 0.37591 0.94034 0.82859 0.0
Tb41 Tb 0.3971 0.89789 0.80272 0.0
C42 C 0.35807 0.82819 0.80845 0.0
O43 O 0.42948 0.8676 0.86922 0.0
Tb44 Tb 0.42109 0.81864 0.84885 0.0
C45 C 0.40915 0.77527 0.89382 0.0
O46 O 0.44423 0.89908 0.82791 0.0
O47 O 0.47297 0.80718 0.83726 0.0
C48 C 0.49118 0.82237 0.81661 0.0
O49 O 0.47743 0.84483 0.79868 0.0
O50 O 0.35601 0.86139 0.80869 0.0
O51 O 0.38693 0.8122 0.81095 0.0
O52 O 0.41667 0.89266 0.75665 0.0
C53 C 0.44741 0.89154 0.85672 0.0
C54 C 0.37533 0.96184 0.80634 0.0
O55 O 0.39637 0.80535 0.89175 0.0
O56 O 0.42766 0.76946 0.87021 0.0
C57 C 0.39623 0.89078 0.73331 0.0
O58 O 0.36411 0.88547 0.73818 0.0
O59 O 0.3856 0.94667 0.7821 0.0
O60 O 0.37387 0.12012 1.04013 0.0
Tb61 Tb 0.42218 0.13345 0.06036 0.0
C62 C 0.49175 0.09442 0.06457 0.0
O63 O 0.45264 0.16334 0.12746 0.0
Tb64 Tb 0.50205 0.15254 0.10869 0.0
C65 C 0.54618 0.13807 0.15275 0.0
O66 O 0.42367 0.1807 0.08551 0.0
O67 O 0.51668 0.20358 0.09994 0.0
C68 C 0.5032 0.22381 0.07999 0.0
O69 O 0.47971 0.21324 0.0616 0.0
O70 O 0.45858 0.09151 0.06469 0.0
O71 O 0.50621 0.1236 0.0676 0.0
O72 O 0.42745 0.15481 1.01487 0.0
C73 C 0.43079 0.18357 0.11445 0.0
C74 C 0.35714 0.11594 0.065 0.0
O75 O 0.51472 0.12902 0.15236 0.0
O76 O 0.5525 0.15365 0.1276 0.0
C77 C 0.42615 0.13531 0.99082 0.0
O78 O 0.42646 0.10259 0.99461 0.0
O79 O 0.37772 0.11981 0.08761 0.0
O80 O 0.19772 0.95356 0.31976 0.0
Tb81 Tb 0.19323 0.90454 0.29756 0.0
C82 C 0.23062 0.83345 0.29005 0.0
O83 O 0.17177 0.87752 0.23052 0.0
Tb84 Tb 0.16776 0.82742 0.24876 0.0
C85 C 0.17029 0.78131 0.20456 0.0
O86 O 0.14913 0.90855 0.26847 0.0
O87 O 0.11949 0.82313 0.27282 0.0
C88 C 0.10373 0.79414 0.27215 0.0
O89 O 0.11819 0.82348 0.27354 0.0
O90 O 0.23318 0.86669 0.2899 0.0
O91 O 0.20205 0.81762 0.2859 0.0
O92 O 0.17881 0.89059 0.34372 0.0
C93 C 0.14954 0.89961 0.23986 0.0
C94 C 0.21636 0.96801 0.2996 0.0
O95 O 0.14524 0.80132 0.21016 0.0
O96 O 0.19427 0.78738 0.22372 0.0
C97 C 0.15573 0.90806 0.35846 0.0
O98 O 0.13709 0.92965 0.34342 0.0
O99 O 0.22318 0.94614 0.27854 0.0
O100 O 0.38678 0.95385 0.56666 0.0
Tb101 Tb 0.43629 0.94631 0.54621 0.0
C102 C 0.50208 0.99593 0.5401 0.0
O103 O 0.45773 0.92666 0.47526 0.0
Tb104 Tb 0.50777 0.93507 0.49252 0.0
C105 C 0.55036 0.93509 0.44562 0.0
O106 O 0.43676 0.9016 0.51732 0.0
O107 O 0.5108 0.88644 0.51453 0.0
C108 C 0.53983 0.87358 0.52276 0.0
O109 O 0.56579 0.89335 0.52645 0.0
O110 O 0.47109 0.98947 0.54987 0.0
O111 O 0.51935 0.97739 0.52094 0.0
O112 O 0.43974 0.92228 0.59076 0.0
C113 C 0.43976 0.90281 0.48767 0.0
C114 C 0.37198 0.9668 0.54332 0.0
O115 O 0.52056 0.94874 0.44565 0.0
O116 O 0.55626 0.92227 0.47204 0.0
C117 C 0.44039 0.94068 0.61553 0.0
O118 O 0.44452 0.97325 0.61295 0.0
O119 O 0.39381 0.9692 0.52139 0.0
O120 O 0.37772 0.12489 0.77833 0.0
Tb121 Tb 0.38851 0.17219 0.80225 0.0
C122 C 0.35146 0.24286 0.79215 0.0
O123 O 0.41305 0.1955 0.73509 0.0
Tb124 Tb 0.40991 0.24824 0.74645 0.0
C125 C 0.39801 0.28823 0.69882 0.0
O126 O 0.43568 0.17123 0.77687 0.0
O127 O 0.45599 0.26843 0.76472 0.0
C128 C 0.48363 0.26659 0.7486 0.0
O129 O 0.48389 0.24891 0.72358 0.0
O130 O 0.34823 0.20976 0.7942 0.0
O131 O 0.38052 0.25719 0.78699 0.0
O132 O 0.4099 0.17769 0.84751 0.0
C133 C 0.43705 0.17769 0.74772 0.0
C134 C 0.3683 0.10786 0.80201 0.0
O135 O 0.42414 0.26928 0.70281 0.0
O136 O 0.37709 0.28324 0.72113 0.0
C137 C 0.39045 0.18502 0.87076 0.0
O138 O 0.35966 0.19565 0.86569 0.0
O139 O 0.36867 0.12773 0.8252 0.0
O140 O 1.03006 0.19324 0.98272 0.0
Tb141 Tb 0.07087 0.16851 1.0071 0.0
C142 C 0.14253 0.19252 0.99526 0.0
O143 O 0.11146 0.10546 1.04746 0.0
Tb144 Tb 0.14717 0.14785 0.05369 0.0
C145 C 0.21085 0.12507 0.05825 0.0
O146 O 0.0595 0.13139 1.04092 0.0
O147 O 0.14296 0.17455 0.09676 0.0
C148 C 0.126 0.16252 0.11991 0.0
O149 O 0.10555 0.13735 0.11531 0.0
O150 O 0.11948 0.17222 0.98501 0.0
O151 O 0.15008 0.19259 1.02429 0.0
O152 O 0.06302 0.2135 1.03382 0.0
C153 C 0.07797 0.10506 1.04735 0.0
C154 C 1.0246 0.16977 0.96305 0.0
O155 O 0.1891 0.12696 0.08012 0.0
O156 O 0.19601 0.13428 1.03334 0.0
C157 C 1.03681 0.21639 0.05176 0.0
O158 O 1.0196 0.18958 0.05923 0.0
O159 O 0.04516 0.14492 0.96845 0.0
O160 O 0.89029 0.95452 0.81609 0.0
Tb161 Tb 0.89774 0.90553 0.79464 0.0
C162 C 0.8444 0.84596 0.78112 0.0
O163 O 0.91933 0.89045 0.71973 0.0
Tb164 Tb 0.90031 0.84165 0.73234 0.0
C165 C 0.89961 0.79758 0.68654 0.0
O166 O 0.94245 0.9049 0.76549 0.0
O167 O 0.94345 0.82347 0.75769 0.0
C168 C 0.97151 0.82229 0.74191 0.0
O169 O 0.97149 0.83595 0.71485 0.0
O170 O 0.86188 0.8635 0.80114 0.0
O171 O 0.85074 0.84669 0.75202 0.0
O172 O 0.92204 0.90302 0.83909 0.0
C173 C 0.94244 0.90593 0.7356 0.0
C174 C 0.87525 0.96964 0.79394 0.0
O175 O 0.89883 0.83017 0.68365 0.0
O176 O 0.89929 0.7902 0.71516 0.0
C177 C 0.90386 0.89847 0.86376 0.0
O178 O 0.8719 0.89107 0.86094 0.0
O179 O 0.87129 0.94789 0.77208 0.0
O180 O 0.88644 0.12967 0.52632 0.0
Tb181 Tb 0.93343 0.13967 0.55124 0.0
C182 C 1.00329 0.10014 0.54016 0.0
O183 O 0.95615 0.16715 0.484 0.0
Tb184 Tb 1.00882 0.15873 0.4942 0.0
C185 C 0.04578 0.14907 0.44437 0.0
O186 O 0.93374 0.18801 0.52757 0.0
O187 O 1.03344 0.20296 0.51105 0.0
C188 C 1.02361 0.22105 0.53412 0.0
O189 O 0.99909 0.21076 0.55168 0.0
O190 O 0.96995 0.09858 0.54204 0.0
O191 O 1.0194 0.12793 0.53356 0.0
O192 O 0.94032 0.15613 0.59822 0.0
C193 C 0.93938 0.1908 0.4983 0.0
C194 C 0.8687 0.11948 0.54932 0.0
O195 O 1.03392 0.17757 0.45375 0.0
O196 O 1.03626 0.12526 0.46285 0.0
C197 C 0.92564 0.18356 0.60877 0.0
O198 O 0.91034 0.20391 0.58984 0.0
O199 O 0.88791 0.11995 0.57299 0.0
O200 O 0.6923 0.12917 0.32046 0.0
Tb201 Tb 0.68472 0.17961 0.30188 0.0
C202 C 0.73602 0.23996 0.28818 0.0
O203 O 0.66273 0.19997 0.22846 0.0
Tb204 Tb 0.67883 0.24935 0.24309 0.0
C205 C 0.68155 0.29028 0.1949 0.0
O206 O 0.63997 0.17956 0.27262 0.0
O207 O 0.64913 0.27872 0.2754 0.0
C208 C 0.61923 0.26994 0.28519 0.0
O209 O 0.6129 0.23807 0.28961 0.0
O210 O 0.71967 0.22224 0.30891 0.0
O211 O 0.72859 0.23758 0.25943 0.0
O212 O 0.66192 0.18125 0.34704 0.0
C213 C 0.64007 0.18216 0.24283 0.0
C214 C 0.71113 0.11707 0.29915 0.0
O215 O 0.65802 0.2687 0.20056 0.0
O216 O 0.70441 0.2877 0.21576 0.0
C217 C 0.68137 0.18133 0.37117 0.0
O218 O 0.71404 0.18359 0.36743 0.0
O219 O 0.71611 0.14085 0.27921 0.0
O220 O 0.70387 0.94388 0.06961 0.0
Tb221 Tb 0.65366 0.94292 1.04923 0.0
C222 C 0.58529 0.98482 1.04217 0.0
O223 O 0.62943 0.91859 0.9812 0.0
Tb224 Tb 0.57847 0.92596 0.99696 0.0
C225 C 0.53624 0.93366 0.95052 0.0
O226 O 0.65171 0.89585 1.0239 0.0
O227 O 0.57412 0.87416 1.01049 0.0
C228 C 0.54841 0.8633 1.02621 0.0
O229 O 0.52563 0.88455 1.03614 0.0
O230 O 0.61867 0.98582 1.04255 0.0
O231 O 0.56858 0.95749 1.03574 0.0
O232 O 0.64175 0.93272 0.09671 0.0
C233 C 0.64762 0.89528 0.99439 0.0
C234 C 0.71928 0.95952 1.04804 0.0
O235 O 0.56554 0.94795 0.95276 0.0
O236 O 0.53034 0.91667 0.97499 0.0
C237 C 0.65649 0.9076 0.11109 0.0
O238 O 0.6732 0.88509 0.09536 0.0
O239 O 0.69739 0.96686 1.02707 0.0
O240 O 0.90358 0.13157 0.78784 0.0
Tb241 Tb 0.89289 0.18243 0.80443 0.0
C242 C 0.85006 0.25132 0.80427 0.0
O243 O 0.90206 0.21606 0.87252 0.0
Tb244 Tb 0.90518 0.26427 0.85006 0.0
C245 C 0.89526 0.31209 0.89178 0.0
O246 O 0.93204 0.18449 0.83964 0.0
O247 O 0.95813 0.26285 0.83828 0.0
C248 C 0.971 0.28519 0.81976 0.0
O249 O 0.95121 0.30684 0.80607 0.0
O250 O 0.84934 0.21796 0.80682 0.0
O251 O 0.8777 0.26833 0.80836 0.0
O252 O 0.91199 0.19372 0.75901 0.0
C253 C 0.92662 0.19494 0.86751 0.0
C254 C 0.87795 0.11627 0.79954 0.0
O255 O 0.87725 0.28511 0.8888 0.0
O256 O 0.91725 0.31298 0.87007 0.0
C257 C 0.89099 0.19934 0.7365 0.0
O258 O 0.85906 0.20419 0.7428 0.0
O259 O 0.86008 0.1387 0.81402 0.0
O260 O 0.70381 0.13119 0.53644 0.0
Tb261 Tb 0.65826 0.14619 0.5612 0.0
C262 C 0.58691 0.11039 0.56846 0.0
O263 O 0.63441 0.17502 0.62868 0.0
Tb264 Tb 0.58281 0.16975 0.61341 0.0
C265 C 0.54197 0.15856 0.66037 0.0
O266 O 0.66167 0.19318 0.58641 0.0
O267 O 0.56271 0.21715 0.59727 0.0
C268 C 0.57632 0.23625 0.57647 0.0
O269 O 0.6021 0.22542 0.56068 0.0
O270 O 0.62012 0.10664 0.5684 0.0
O271 O 0.5723 0.13948 0.57381 0.0
O272 O 0.64949 0.16648 0.51593 0.0
C273 C 0.65501 0.19615 0.61543 0.0
C274 C 0.72236 0.12386 0.55963 0.0
O275 O 0.55307 0.18752 0.65168 0.0
O276 O 0.55435 0.13521 0.64287 0.0
C277 C 0.64029 0.14659 0.49371 0.0
O278 O 0.63073 0.11587 0.50011 0.0
O279 O 0.70431 0.12807 0.58399 0.0
O280 O 0.70842 0.95426 0.32836 0.0
Tb281 Tb 0.70171 0.90548 0.30528 0.0
C282 C 0.74144 0.83649 0.31381 0.0
O283 O 0.66776 0.8743 0.37144 0.0
Tb284 Tb 0.67863 0.8244 0.35392 0.0
C285 C 0.69089 0.78084 0.39951 0.0
O286 O 0.65348 0.90471 0.32905 0.0
O287 O 0.62816 0.81056 0.34153 0.0
C288 C 0.61061 0.82411 0.31962 0.0
O289 O 0.62436 0.8463 0.30151 0.0
O290 O 0.74316 0.86974 0.31545 0.0
O291 O 0.71241 0.82096 0.31525 0.0
O292 O 0.67952 0.89553 0.26082 0.0
C293 C 0.64856 0.89644 0.35755 0.0
C294 C 0.71862 0.97118 0.30484 0.0
O295 O 0.67657 0.77406 0.37388 0.0
O296 O 0.69904 0.81248 0.39903 0.0
C297 C 0.69793 0.89669 0.23599 0.0
O298 O 0.73061 0.90017 0.23837 0.0
O299 O 0.72096 0.95049 0.28227 0.0
O300 O 0.88298 0.94843 0.07618 0.0
Tb301 Tb 0.93128 0.93918 0.05273 0.0
C302 C 0.99757 0.98406 0.06113 0.0
O303 O 0.95936 0.90867 0.11918 0.0
Tb304 Tb 1.00838 0.92038 0.10053 0.0
C305 C 0.05248 0.92621 0.14576 0.0
O306 O 0.93216 0.89094 0.07679 0.0
O307 O 1.02 0.87328 0.07878 0.0
C308 C 1.0172 0.84581 0.09488 0.0
O309 O 1.0042 0.84782 0.12215 0.0
O310 O 0.96422 0.98285 0.06104 0.0
O311 O 1.01647 0.95754 0.06579 0.0
O312 O 0.93981 0.91932 1.00723 0.0
C313 C 0.93903 0.88758 0.10577 0.0
C314 C 0.86581 0.95683 0.05225 0.0
O315 O 1.0242 0.9427 0.14371 0.0
O316 O 0.05612 0.90737 0.12211 0.0
C317 C 0.9461 0.93957 0.98431 0.0
O318 O 0.95342 0.97108 0.98981 0.0
O319 O 0.886 0.95662 1.0292 0.0
O320 O 0.68276 0.80084 0.87863 0.0
Tb321 Tb 0.68396 0.74994 0.85999 0.0
C322 C 0.64247 0.68648 0.85674 0.0
O323 O 0.72318 0.73135 0.79253 0.0
Tb324 Tb 0.68815 0.68866 0.79898 0.0
C325 C 0.715 0.62636 0.80192 0.0
O326 O 0.7342 0.74741 0.84172 0.0
O327 O 0.6718 0.69113 0.75162 0.0
C328 C 0.64504 0.67513 0.74166 0.0
O329 O 0.62481 0.66062 0.76113 0.0
O330 O 0.66647 0.70053 0.87252 0.0
O331 O 0.64222 0.68854 0.8269 0.0
O332 O 0.64167 0.76115 0.83035 0.0
C333 C 0.74089 0.74842 0.81271 0.0
C334 C 0.68127 0.79237 0.90695 0.0
O335 O 0.72204 0.65099 0.82038 0.0
O336 O 0.69393 0.63765 0.78206 0.0
C337 C 0.63368 0.79179 0.82175 0.0
O338 O 0.65541 0.81614 0.82511 0.0
O339 O 0.68225 0.75976 0.90892 0.0
O340 O 0.70804 0.45014 0.07422 0.0
Tb341 Tb 0.65817 0.44422 0.05351 0.0
C342 C 0.58898 0.48376 0.06464 0.0
O343 O 0.63589 0.4208 0.12085 0.0
Tb344 Tb 0.58347 0.42345 0.10859 0.0
C345 C 0.54304 0.42945 0.1567 0.0
O346 O 0.65958 0.39735 0.07931 0.0
O347 O 0.56622 0.37852 0.08474 0.0
C348 C 0.56383 0.35099 0.10097 0.0
O349 O 0.56563 0.37754 0.08361 0.0
O350 O 0.62234 0.48524 0.06444 0.0
O351 O 0.57241 0.45623 0.0709 0.0
O352 O 0.64938 0.42348 1.00854 0.0
C353 C 0.65376 0.39669 0.10859 0.0
C354 C 0.72286 0.46336 1.05083 0.0
O355 O 0.56021 0.40292 0.14938 0.0
O356 O 0.54931 0.45336 0.13731 0.0
C357 C 0.63948 0.44362 0.98661 0.0
O358 O 0.63005 0.4743 0.99358 0.0
O359 O 0.70054 0.46776 1.02979 0.0
O360 O 0.88184 0.45441 0.28521 0.0
Tb361 Tb 0.88456 0.4048 0.30691 0.0
C362 C 0.84183 0.3355 0.31732 0.0
O363 O 0.90593 0.38565 0.37617 0.0
Tb364 Tb 0.90353 0.3335 0.36325 0.0
C365 C 0.90424 0.29341 0.41193 0.0
O366 O 0.93041 0.40703 0.33429 0.0
O367 O 0.94615 0.31777 0.3348 0.0
C368 C 0.97493 0.31355 0.34888 0.0
O369 O 0.94711 0.31723 0.33347 0.0
O370 O 0.84242 0.36848 0.31183 0.0
O371 O 0.86595 0.31845 0.33084 0.0
O372 O 0.89826 0.39157 0.26026 0.0
C373 C 0.93002 0.4033 0.36386 0.0
C374 C 0.86369 0.46954 0.30544 0.0
O375 O 0.92992 0.30914 0.40085 0.0
O376 O 0.87768 0.3008 0.396 0.0
C377 C 0.92277 0.4072 0.24581 0.0
O378 O 0.94282 0.42695 0.26112 0.0
O379 O 0.856 0.44757 0.32623 0.0
O380 O 0.88246 0.6308 0.57396 0.0
Tb381 Tb 0.9314 0.63884 0.55155 0.0
C382 C 1.00053 0.59807 0.56313 0.0
O383 O 0.9525 0.66701 0.61855 0.0
Tb384 Tb 1.00475 0.6611 0.60575 0.0
C385 C 0.04467 0.65815 0.6544 0.0
O386 O 0.93064 0.68729 0.57478 0.0
O387 O 1.02281 0.70373 0.5787 0.0
C388 C 1.02621 0.73222 0.59325 0.0
O389 O 1.02345 0.70468 0.57742 0.0
O390 O 0.9671 0.59733 0.56174 0.0
O391 O 1.0177 0.62464 0.5713 0.0
O392 O 0.94194 0.65773 0.50611 0.0
C393 C 0.93472 0.68977 0.60419 0.0
C394 C 0.86606 0.62084 0.55018 0.0
O395 O 1.02992 0.68487 0.64406 0.0
O396 O 1.03661 0.63258 0.63761 0.0
C397 C 0.95371 0.63728 0.48521 0.0
O398 O 0.96306 0.60685 0.49319 0.0
O399 O 0.88714 0.61927 0.52769 0.0
O400 O 0.70624 0.46624 0.82166 0.0
Tb401 Tb 0.70164 0.41692 0.80041 0.0
C402 C 0.73754 0.34482 0.79357 0.0
O403 O 0.678 0.39161 0.73295 0.0
Tb404 Tb 0.6791 0.3402 0.7485 0.0
C405 C 0.6858 0.29626 0.70328 0.0
O406 O 0.65602 0.41967 0.77298 0.0
O407 O 0.63036 0.32906 0.76917 0.0
C408 C 0.60413 0.34256 0.75576 0.0
O409 O 0.62921 0.32838 0.77009 0.0
O410 O 0.74128 0.378 0.79449 0.0
O411 O 0.70826 0.33078 0.78889 0.0
O412 O 0.6866 0.40707 0.84729 0.0
C413 C 0.65486 0.41167 0.74417 0.0
C414 C 0.72329 0.4812 0.80068 0.0
O415 O 0.6582 0.31136 0.71109 0.0
O416 O 0.71023 0.3061 0.72074 0.0
C417 C 0.65743 0.41772 0.85795 0.0
O418 O 0.6353 0.43069 0.83923 0.0
O419 O 0.72984 0.45902 0.77977 0.0
O420 O 0.88351 0.44502 0.06913 0.0
Tb421 Tb 0.93282 0.43658 1.04822 0.0
C422 C 1.00289 0.47551 1.04334 0.0
O423 O 0.95873 0.41504 0.97697 0.0
Tb424 Tb 1.00768 0.41553 0.99848 0.0
C425 C 0.054 0.42034 0.95482 0.0
O426 O 0.93174 0.39354 1.01758 0.0
O427 O 1.0101 0.36422 1.01467 0.0
C428 C 1.00271 0.35512 1.04244 0.0
O429 O 0.99102 0.37732 0.0617 0.0
O430 O 0.9696 0.4777 1.04435 0.0
O431 O 1.01898 0.44759 1.03668 0.0
O432 O 0.94085 0.41557 0.09375 0.0
C433 C 0.9333 0.3982 0.98815 0.0
C434 C 0.86884 0.45877 1.04612 0.0
O435 O 1.02947 0.44156 0.95917 0.0
O436 O 0.05279 0.39705 0.97534 0.0
C437 C 0.93586 0.43456 0.11785 0.0
O438 O 0.9288 0.46652 0.11397 0.0
O439 O 0.89064 0.46117 1.02424 0.0
O440 O 0.89064 0.62596 0.31949 0.0
Tb441 Tb 0.89569 0.67615 0.30058 0.0
C442 C 0.84661 0.73855 0.28637 0.0
O443 O 0.91442 0.68682 0.22553 0.0
Tb444 Tb 0.9008 0.73814 0.23662 0.0
C445 C 0.90119 0.78122 0.18942 0.0
O446 O 0.93944 0.6732 0.27066 0.0
O447 O 0.94 0.75647 0.26606 0.0
C448 C 0.97026 0.75404 0.25439 0.0
O449 O 0.97364 0.73976 0.22783 0.0
O450 O 0.86419 0.72148 0.30668 0.0
O451 O 0.85145 0.7345 0.25718 0.0
O452 O 0.91418 0.68033 0.34703 0.0
C453 C 0.93822 0.67123 0.24089 0.0
C454 C 0.86805 0.61455 0.30123 0.0
O455 O 0.9189 0.75381 0.19156 0.0
O456 O 0.88187 0.78304 0.21301 0.0
C457 C 0.94201 0.66553 0.35636 0.0
O458 O 0.96198 0.65101 0.33659 0.0
O459 O 0.85967 0.6388 0.28261 0.0
O460 O 0.56119 0.6384 0.45457 0.0
Tb461 Tb 0.5796 0.66073 0.49692 0.0
C462 C 0.65126 0.68711 0.49086 0.0
O463 O 0.61764 0.59714 0.54156 0.0
Tb464 Tb 0.65363 0.6393 0.5466 0.0
C465 C 0.71874 0.62007 0.546 0.0
O466 O 0.56719 0.62502 0.53208 0.0
O467 O 0.64444 0.66026 0.59159 0.0
C468 C 0.63387 0.64096 0.61386 0.0
O469 O 0.62494 0.61002 0.60774 0.0
O470 O 0.62946 0.6672 0.47792 0.0
O471 O 0.65549 0.68601 0.52036 0.0
O472 O 0.57251 0.70957 0.51743 0.0
C473 C 0.58421 0.59818 0.54033 0.0
C474 C 0.53517 0.65813 0.45167 0.0
O475 O 0.6991 0.62201 0.52249 0.0
O476 O 0.70106 0.62727 0.56989 0.0
C477 C 0.5779 0.7361 0.50053 0.0
O478 O 0.59045 0.7318 0.4733 0.0
O479 O 0.5339 0.67848 0.47447 0.0
O480 O 0.38911 0.45265 0.31947 0.0
Tb481 Tb 0.391 0.40317 0.29769 0.0
C482 C 0.34919 0.33526 0.2905 0.0
O483 O 0.42217 0.3749 0.2312 0.0
Tb484 Tb 0.41316 0.32552 0.25061 0.0
C485 C 0.40469 0.28158 0.20559 0.0
O486 O 0.43883 0.40341 0.27328 0.0
O487 O 0.4625 0.31516 0.26962 0.0
C488 C 0.48925 0.32238 0.25345 0.0
O489 O 0.48472 0.33763 0.22744 0.0
O490 O 0.34861 0.36859 0.28934 0.0
O491 O 0.37694 0.3177 0.28671 0.0
O492 O 0.40102 0.38838 0.34443 0.0
C493 C 0.44192 0.39681 0.24429 0.0
C494 C 0.37247 0.46864 0.29873 0.0
O495 O 0.38801 0.30958 0.20875 0.0
O496 O 0.42538 0.27812 0.22803 0.0
C497 C 0.42562 0.40266 0.35957 0.0
O498 O 0.4474 0.42123 0.34484 0.0
O499 O 0.36505 0.44715 0.27757 0.0
O500 O 0.38368 0.62546 1.02933 0.0
Tb501 Tb 0.43197 0.63948 1.04998 0.0
C502 C 0.5013 0.59814 1.04189 0.0
O503 O 0.45271 0.65795 0.97974 0.0
Tb504 Tb 0.50432 0.65607 0.99468 0.0
C505 C 0.54703 0.65162 0.94806 0.0
O506 O 0.42868 0.68346 1.02029 0.0
O507 O 0.50403 0.70757 1.00955 0.0
C508 C 0.52945 0.72 1.02455 0.0
O509 O 0.55409 0.70021 1.0333 0.0
O510 O 0.46798 0.59744 1.04392 0.0
O511 O 0.51815 0.62428 1.03225 0.0
O512 O 0.44014 0.66458 0.09336 0.0
C513 C 0.43349 0.68174 0.99087 0.0
C514 C 0.3681 0.61826 0.05441 0.0
O515 O 0.51945 0.63437 0.9509 0.0
O516 O 0.55042 0.67092 0.97141 0.0
C517 C 0.4527 0.64755 0.11632 0.0
O518 O 0.46544 0.61761 0.11116 0.0
O519 O 0.38914 0.6214 0.07662 0.0
O520 O 0.21871 0.63748 0.77811 0.0
Tb521 Tb 0.19277 0.68065 0.79963 0.0
C522 C 0.23686 0.74806 0.79319 0.0
O523 O 0.1665 0.71052 0.73152 0.0
Tb524 Tb 0.1749 0.75973 0.75118 0.0
C525 C 0.18305 0.80423 0.70597 0.0
O526 O 0.1468 0.68159 0.77251 0.0
O527 O 0.12385 0.76828 0.76906 0.0
C528 C 0.09911 0.75716 0.75216 0.0
O529 O 0.12244 0.76885 0.77001 0.0
O530 O 0.23614 0.71472 0.79364 0.0
O531 O 0.21005 0.76677 0.78821 0.0
O532 O 0.17648 0.69121 0.84622 0.0
C533 C 0.14516 0.68923 0.74357 0.0
C534 C 0.21123 0.61531 0.79875 0.0
O535 O 0.16068 0.80601 0.72731 0.0
O536 O 0.20179 0.7778 0.71067 0.0
C537 C 0.19571 0.68252 0.86931 0.0
O538 O 0.22626 0.67138 0.86389 0.0
O539 O 0.19419 0.6303 0.81974 0.0
O540 O 0.20657 0.44839 0.52473 0.0
Tb541 Tb 0.15725 0.44212 0.54725 0.0
C542 C 0.08753 0.48272 0.53954 0.0
O543 O 0.12905 0.41406 0.4808 0.0
Tb544 Tb 0.07836 0.4204 0.49815 0.0
C545 C 1.03423 0.42503 0.45265 0.0
O546 O 0.15744 0.39476 0.52209 0.0
O547 O 0.06039 0.37778 0.52532 0.0
C548 C 0.08045 0.35365 0.53495 0.0
O549 O 0.05978 0.37707 0.52577 0.0
O550 O 0.12094 0.48356 0.53823 0.0
O551 O 0.07016 0.45532 0.53488 0.0
O552 O 0.15128 0.41999 0.59236 0.0
C553 C 0.14947 0.39213 0.49331 0.0
C554 C 0.22236 0.4613 0.54769 0.0
O555 O 0.0474 0.39748 0.46305 0.0
O556 O 0.04627 0.45049 0.46761 0.0
C557 C 0.14539 0.43907 0.61614 0.0
O558 O 0.13668 0.47058 0.61187 0.0
O559 O 0.20071 0.46527 0.56938 0.0
O560 O 0.36505 0.63713 0.32336 0.0
Tb561 Tb 0.39186 0.68027 0.30275 0.0
C562 C 0.34754 0.74813 0.30999 0.0
O563 O 0.41476 0.70868 0.37045 0.0
Tb564 Tb 0.40957 0.75879 0.35195 0.0
C565 C 0.4054 0.80397 0.39688 0.0
O566 O 0.43765 0.68128 0.33015 0.0
O567 O 0.4601 0.76164 0.33408 0.0
C568 C 0.46991 0.78872 0.31967 0.0
O569 O 0.44768 0.81174 0.3122 0.0
O570 O 0.34844 0.71476 0.30913 0.0
O571 O 0.37392 0.76673 0.31571 0.0
O572 O 0.40509 0.68967 0.2552 0.0
C573 C 0.43771 0.68856 0.35916 0.0
C574 C 0.37322 0.61496 0.30291 0.0
O575 O 0.3918 0.77429 0.39714 0.0
O576 O 0.42019 0.80843 0.37104 0.0
C577 C 0.43439 0.67987 0.24402 0.0
O578 O 0.45772 0.66894 0.26261 0.0
O579 O 0.39085 0.63024 0.28255 0.0
O580 O 0.2072 0.62836 1.03716 0.0
Tb581 Tb 0.15724 0.633 0.05774 0.0
C582 C 0.08939 0.59072 0.06274 0.0
O583 O 0.12872 0.65756 0.12421 0.0
Tb584 Tb 0.07845 0.64935 0.10676 0.0
C585 C 1.03694 0.63922 0.1531 0.0
O586 O 0.15682 0.67948 0.08407 0.0
O587 O 0.05551 0.69394 0.08809 0.0
C588 C 0.07094 0.71504 0.07024 0.0
O589 O 0.09924 0.70641 0.05711 0.0
O590 O 0.12271 0.59006 0.06401 0.0
O591 O 0.07196 0.6183 0.06716 0.0
O592 O 0.14629 0.64624 1.01058 0.0
C593 C 0.14813 0.68093 0.11275 0.0
C594 C 0.22224 0.61419 0.05981 0.0
O595 O 0.04749 0.66805 0.14357 0.0
O596 O 0.0502 0.61525 0.13677 0.0
C597 C 0.1628 0.67068 0.99691 0.0
O598 O 0.18163 0.69068 1.01318 0.0
O599 O 0.20021 0.60932 0.08119 0.0
O600 O 0.20494 0.45251 0.82815 0.0
Tb601 Tb 0.19814 0.40414 0.80454 0.0
C602 C 0.23897 0.33446 0.81027 0.0
O603 O 0.17555 0.37671 0.87197 0.0
Tb604 Tb 0.17869 0.3266 0.85365 0.0
C605 C 0.18289 0.28184 0.89887 0.0
O606 O 0.15225 0.40412 0.83208 0.0
O607 O 0.1276 0.3266 0.83714 0.0
C608 C 0.11518 0.30067 0.8228 0.0
O609 O 0.13495 0.27558 0.81516 0.0
O610 O 0.23995 0.36779 0.812 0.0
O611 O 0.21169 0.31715 0.81577 0.0
O612 O 0.17463 0.39904 0.75991 0.0
C613 C 0.15236 0.39681 0.86113 0.0
C614 C 0.21709 0.46909 0.80526 0.0
O615 O 0.20082 0.30901 0.89655 0.0
O616 O 0.16312 0.28003 0.87564 0.0
C617 C 0.19335 0.39698 0.73528 0.0
O618 O 0.22589 0.39225 0.73822 0.0
O619 O 0.22043 0.44836 0.78289 0.0
O620 O 0.38211 0.43694 0.53668 0.0
Tb621 Tb 0.43287 0.4362 0.55561 0.0
C622 C 0.49057 0.49001 0.56936 0.0
O623 O 0.45115 0.41525 0.63106 0.0
Tb624 Tb 0.49939 0.43329 0.61534 0.0
C625 C 0.5468 0.43707 0.65837 0.0
O626 O 0.43389 0.39245 0.58594 0.0
O627 O 0.51758 0.39401 0.58561 0.0
C628 C 0.51846 0.36422 0.59836 0.0
O629 O 0.50593 0.36108 0.62571 0.0
O630 O 0.47387 0.47294 0.54859 0.0
O631 O 0.48769 0.48275 0.59816 0.0
O632 O 0.43966 0.41381 0.51084 0.0
C633 C 0.43398 0.39276 0.61583 0.0
C634 C 0.36866 0.45833 0.55516 0.0
O635 O 0.51802 0.42192 0.66103 0.0
O636 O 0.54798 0.45128 0.63192 0.0
C637 C 0.43413 0.43243 0.48666 0.0
O638 O 0.42649 0.46429 0.49022 0.0
O639 O 0.39192 0.46832 0.57394 0.0
C640 C 0.20478 0.06019 0.27931 0.0
C641 C 0.22246 0.07652 0.30302 0.0
C642 C 0.2382 1.02112 0.32373 0.0
C643 C 0.2226 1.00505 0.29873 0.0
N644 N 0.1967 1.01012 0.24946 0.0
N645 N 0.26028 0.07265 0.34527 0.0
C646 C 0.20817 1.02487 0.27532 0.0
C647 C 0.24038 0.05697 0.32456 0.0
N648 N 0.18217 0.07781 0.26215 0.0
N649 N 0.25069 1.00207 0.3469 0.0
H650 H 0.26246 0.0987 0.34639 0.0
H651 H 0.27669 0.05997 0.35966 0.0
H652 H 0.25188 0.97592 0.34609 0.0
H653 H 0.25843 1.01201 0.36747 0.0
H654 H 0.16588 0.06659 0.24684 0.0
H655 H 0.17647 0.10302 0.26566 0.0
H656 H 0.18996 1.02379 0.23029 0.0
H657 H 0.19645 0.98433 0.24594 0.0
C658 C 0.31761 0.99407 0.5599 0.0
C659 C 0.33475 0.97066 0.54108 0.0
C660 C 0.28106 0.94354 0.52952 0.0
C661 C 0.2635 0.96865 0.54612 0.0
N662 N 0.26458 1.0206 0.57377 0.0
N663 N 0.33203 0.92671 0.50363 0.0
C664 C 0.28167 0.99474 0.56041 0.0
C665 C 0.31616 0.94689 0.5242 0.0
N666 N 0.33572 1.01534 0.57768 0.0
N667 N 0.2649 0.91482 0.52115 0.0
H668 H 0.35789 0.92682 0.50005 0.0
H669 H 0.31913 0.91179 0.48825 0.0
H670 H 0.24006 0.90977 0.52702 0.0
H671 H 0.27712 0.89419 0.51168 0.0
H672 H 0.32506 1.03009 0.59461 0.0
H673 H 0.36186 1.01691 0.57657 0.0
H674 H 0.27615 1.04213 0.5819 0.0
H675 H 0.2384 1.02174 0.57458 0.0
C676 C 0.39181 0.05408 0.82351 0.0
C677 C 0.36819 0.07039 0.80427 0.0
C678 C 0.34744 1.01522 0.78783 0.0
C679 C 0.36983 0.999 0.80836 0.0
N680 N 0.40927 1.00365 0.84977 0.0
N681 N 0.32047 0.06706 0.77119 0.0
C682 C 0.39038 1.01864 0.8277 0.0
C683 C 0.34518 0.05108 0.78721 0.0
N684 N 0.41752 0.07204 0.83597 0.0
N685 N 0.32834 0.99624 0.76881 0.0
H686 H 0.31833 0.09315 0.77017 0.0
H687 H 0.30068 0.05473 0.76073 0.0
H688 H 0.32681 0.97019 0.77056 0.0
H689 H 0.31498 1.00607 0.7506 0.0
H690 H 0.43776 0.06105 0.8472 0.0
H691 H 0.42095 0.09764 0.83237 0.0
H692 H 0.42083 1.01702 0.86705 0.0
H693 H 0.41164 0.97784 0.8525 0.0
C694 C 0.30128 0.09177 1.04941 0.0
C695 C 0.31951 0.11573 0.06648 0.0
C696 C 0.26613 0.14275 0.08146 0.0
C697 C 0.24809 0.1207 0.0621 0.0
N698 N 0.24865 0.07577 1.02574 0.0
N699 N 0.31948 0.16804 0.09408 0.0
C700 C 0.26577 0.09569 1.04548 0.0
C701 C 0.30199 0.14199 0.08165 0.0
N702 N 0.31788 0.06457 1.03775 0.0
N703 N 0.24923 0.1653 0.09922 0.0
H704 H 0.34557 0.16959 0.09409 0.0
H705 H 0.30819 0.19 0.10192 0.0
H706 H 0.22365 0.1704 0.09735 0.0
H707 H 0.26044 0.17798 0.1171 0.0
H708 H 0.30592 0.04435 1.02762 0.0
H709 H 0.34365 0.06076 1.04055 0.0
H710 H 0.26031 0.05998 1.01016 0.0
H711 H 0.22255 0.0763 1.02372 0.0
C712 C 0.88462 1.02661 0.76915 0.0
C713 C 0.87024 1.00712 0.79273 0.0
C714 C 0.85964 0.05932 0.82139 0.0
C715 C 0.87167 0.07898 0.79669 0.0
N716 N 0.88579 0.08019 0.74351 0.0
N717 N 0.83633 1.00605 0.83781 0.0
C718 C 0.88098 0.06224 0.76946 0.0
C719 C 0.85524 1.02391 0.8177 0.0
N720 N 0.90401 1.01164 0.74749 0.0
N721 N 0.85451 0.07367 0.84904 0.0
H722 H 0.83188 0.98043 0.83525 0.0
H723 H 0.82223 1.01725 0.85495 0.0
H724 H 0.85861 0.09894 0.85346 0.0
H725 H 0.84939 0.05973 0.86845 0.0
H726 H 0.91792 1.02515 0.73166 0.0
H727 H 0.90932 0.98606 0.7474 0.0
H728 H 0.8895 0.06893 0.72251 0.0
H729 H 0.88213 0.10603 0.74231 0.0
C730 C 0.81454 0.15037 0.5593 0.0
C731 C 0.83111 0.12011 0.55091 0.0
C732 C 0.77609 0.0922 0.54706 0.0
C733 C 0.75993 0.12156 0.55833 0.0
N734 N 0.76431 0.17757 0.57866 0.0
N735 N 0.82839 0.06123 0.53946 0.0
C736 C 0.77938 0.15026 0.56562 0.0
C737 C 0.81205 0.09071 0.54551 0.0
N738 N 0.83221 0.17972 0.55995 0.0
N739 N 0.75699 0.06591 0.53743 0.0
H740 H 0.85447 0.05965 0.53729 0.0
H741 H 0.81647 1.03808 0.53844 0.0
H742 H 0.73086 0.06568 0.53935 0.0
H743 H 0.76674 0.04528 0.52591 0.0
H744 H 0.82106 0.20324 0.56251 0.0
H745 H 0.85785 0.18099 0.55524 0.0
H746 H 0.77768 0.19738 0.58804 0.0
H747 H 0.73849 0.17956 0.58221 0.0
C748 C 0.73662 0.06431 0.32185 0.0
C749 C 0.72033 0.08045 0.29709 0.0
C750 C 0.70214 1.0254 0.27858 0.0
C751 C 0.71994 1.00886 0.30224 0.0
N752 N 0.75914 1.01262 0.34346 0.0
N753 N 0.69692 0.07488 0.24711 0.0
C754 C 0.73865 1.02837 0.32308 0.0
C755 C 0.70643 0.0605 0.2738 0.0
N756 N 0.75017 0.08346 0.34426 0.0
N757 N 0.67868 1.00837 0.26223 0.0
H758 H 0.70012 0.10028 0.24245 0.0
H759 H 0.68941 0.06089 0.22845 0.0
H760 H 0.6722 0.98354 0.26671 0.0
H761 H 0.66269 1.02003 0.24675 0.0
H762 H 0.75849 0.07373 0.3648 0.0
H763 H 0.75189 0.10953 0.34264 0.0
H764 H 0.77594 1.02521 0.35736 0.0
H765 H 0.76136 0.98656 0.34478 0.0
C766 C 0.8107 0.94042 1.02823 0.0
C767 C 0.82826 0.95955 1.05024 0.0
C768 C 0.77401 0.98046 0.06986 0.0
C769 C 0.75673 0.96311 1.04652 0.0
N770 N 0.75936 0.93114 1.00026 0.0
N771 N 0.82694 1.00223 0.0887 0.0
C772 C 0.77538 0.94494 1.02449 0.0
C773 C 0.80997 0.98077 0.07021 0.0
N774 N 0.82716 0.91574 1.01251 0.0
N775 N 0.75598 0.99653 0.09187 0.0
H776 H 0.8531 1.00345 0.08928 0.0
H777 H 0.81527 1.02081 0.10154 0.0
H778 H 0.72992 0.99925 0.09105 0.0
H779 H 0.76664 1.00578 0.11163 0.0
H780 H 0.81503 0.89855 0.99865 0.0
H781 H 0.85236 0.90962 1.01581 0.0
H782 H 0.77203 0.92145 0.98156 0.0
H783 H 0.73342 0.93163 0.99759 0.0
C784 C 0.7301 0.5734 0.77442 0.0
C785 C 0.72664 0.59029 0.80252 0.0
C786 C 0.73425 0.53571 0.82799 0.0
C787 C 0.7295 0.51853 0.8001 0.0
N788 N 0.71839 0.52308 0.74626 0.0
N789 N 0.72404 0.58617 0.85707 0.0
C790 C 0.7267 0.53783 0.77305 0.0
C791 C 0.7288 0.57119 0.82966 0.0
N792 N 0.73705 0.59138 0.74885 0.0
N793 N 0.7448 0.51825 0.85287 0.0
H794 H 0.72126 0.61193 0.85983 0.0
H795 H 0.72071 0.57263 0.87702 0.0
H796 H 0.7508 0.49275 0.85215 0.0
H797 H 0.75141 0.52976 0.87311 0.0
H798 H 0.74263 0.58016 0.72816 0.0
H799 H 0.74125 0.61721 0.74925 0.0
H800 H 0.71231 0.53689 0.72697 0.0
H801 H 0.71422 0.49755 0.74363 0.0
C802 C 0.81534 0.48478 0.06576 0.0
C803 C 0.83174 0.46418 1.04406 0.0
C804 C 0.77674 0.44848 1.02304 0.0
C805 C 0.7602 0.46609 1.04693 0.0
N806 N 0.76366 0.50023 0.09173 0.0
N807 N 0.82806 0.42245 1.00474 0.0
C808 C 0.77954 0.48404 0.06847 0.0
C809 C 0.81249 0.44544 1.02306 0.0
N810 N 0.83412 0.50585 0.08322 0.0
N811 N 0.75849 0.43372 1.00057 0.0
H812 H 0.85398 0.41881 1.00403 0.0
H813 H 0.81524 0.40473 0.99198 0.0
H814 H 0.73251 0.43124 1.00092 0.0
H815 H 0.76915 0.42534 0.98041 0.0
H816 H 0.82391 0.52397 0.09748 0.0
H817 H 0.86023 0.50723 0.0815 0.0
H818 H 0.7761 0.51003 0.11037 0.0
H819 H 0.7376 0.50266 0.09313 0.0
C820 C 0.85999 0.52649 0.33201 0.0
C821 C 0.85663 0.50675 0.3054 0.0
C822 C 0.85411 0.55884 0.27499 0.0
C823 C 0.85703 0.57843 0.30172 0.0
N824 N 0.84979 0.58033 0.35577 0.0
N825 N 0.83919 0.50505 0.25327 0.0
C826 C 0.85561 0.56197 0.33022 0.0
C827 C 0.85009 0.52328 0.27744 0.0
N828 N 0.86978 0.51215 0.35867 0.0
N829 N 0.85695 0.57349 0.24719 0.0
H830 H 0.83441 0.47938 0.25468 0.0
H831 H 0.83118 0.51596 0.23309 0.0
H832 H 0.85873 0.59925 0.24391 0.0
H833 H 0.85962 0.55974 0.22731 0.0
H834 H 0.87635 0.52618 0.37759 0.0
H835 H 0.8746 0.48667 0.36132 0.0
H836 H 0.84569 0.56945 0.3769 0.0
H837 H 0.84509 0.60613 0.35512 0.0
C838 C 0.77396 0.59519 0.56423 0.0
C839 C 0.7565 0.61832 0.54534 0.0
C840 C 0.81087 0.64008 0.52699 0.0
C841 C 0.82838 0.61883 0.54771 0.0
N842 N 0.82643 0.57813 0.58803 0.0
N843 N 0.75852 0.66751 0.51338 0.0
C844 C 0.8098 0.59705 0.56697 0.0
C845 C 0.77499 0.64172 0.52765 0.0
N846 N 0.75631 0.57056 0.5787 0.0
N847 N 0.82835 0.65957 0.50699 0.0
H848 H 0.73257 0.6709 0.51408 0.0
H849 H 0.77067 0.68771 0.50328 0.0
H850 H 0.85422 0.66307 0.50784 0.0
H851 H 0.81725 0.67116 0.48837 0.0
H852 H 0.76748 0.55071 0.59033 0.0
H853 H 0.73028 0.5683 0.57698 0.0
H854 H 0.81444 0.56498 0.60527 0.0
H855 H 0.85257 0.57693 0.58934 0.0
C856 C 0.36092 0.52252 0.32706 0.0
C857 C 0.36624 0.506 0.29895 0.0
C858 C 0.36371 0.56127 0.27411 0.0
C859 C 0.36624 0.57779 0.30252 0.0
N860 N 0.37203 0.57192 0.35688 0.0
N861 N 0.37834 0.51185 0.24542 0.0
C862 C 0.36582 0.5579 0.32932 0.0
C863 C 0.36886 0.52589 0.27228 0.0
N864 N 0.35031 0.5046 0.3516 0.0
N865 N 0.35557 0.5792 0.24878 0.0
H866 H 0.3841 0.48656 0.24276 0.0
H867 H 0.38398 0.52618 0.22635 0.0
H868 H 0.34938 0.60465 0.24941 0.0
H869 H 0.35083 0.56792 0.22798 0.0
H870 H 0.3434 0.51582 0.37197 0.0
H871 H 0.34428 0.47921 0.35033 0.0
H872 H 0.37558 0.5576 0.37637 0.0
H873 H 0.37695 0.59724 0.36008 0.0
C874 C 0.31293 0.63439 0.07904 0.0
C875 C 0.33088 0.6143 0.05778 0.0
C876 C 0.27717 0.59175 1.03936 0.0
C877 C 0.25955 0.61027 0.06189 0.0
N878 N 0.26167 0.64385 0.10734 0.0
N879 N 0.33053 0.5691 1.02172 0.0
C880 C 0.2778 0.62944 0.08329 0.0
C881 C 0.31309 0.59162 1.03905 0.0
N882 N 0.32862 0.66037 0.09333 0.0
N883 N 0.25954 0.57449 1.018 0.0
H884 H 0.35672 0.5679 1.02136 0.0
H885 H 0.31921 0.54967 1.00986 0.0
H886 H 0.23348 0.57182 1.01882 0.0
H887 H 0.27051 0.5642 0.99873 0.0
H888 H 0.31592 0.67812 0.10636 0.0
H889 H 0.35356 0.66691 0.0895 0.0
H890 H 0.27439 0.65446 0.12549 0.0
H891 H 0.23582 0.64286 0.11069 0.0
C892 C 0.23363 0.56202 0.8228 0.0
C893 C 0.21746 0.57815 0.79795 0.0
C894 C 0.20023 0.52295 0.7787 0.0
C895 C 0.21814 0.50664 0.80247 0.0
N896 N 0.25636 0.51047 0.84438 0.0
N897 N 0.19096 0.57336 0.74907 0.0
C898 C 0.23605 0.52617 0.8238 0.0
C899 C 0.20296 0.55839 0.77473 0.0
N900 N 0.24662 0.58104 0.84559 0.0
N901 N 0.17818 0.50514 0.76137 0.0
H902 H 0.19045 0.59921 0.74574 0.0
H903 H 0.18405 0.55991 0.72991 0.0
H904 H 0.17327 0.47974 0.76462 0.0
H905 H 0.16177 0.51621 0.74595 0.0
H906 H 0.25455 0.57116 0.8662 0.0
H907 H 0.24816 0.60713 0.84442 0.0
H908 H 0.27283 0.5231 0.85856 0.0
H909 H 0.25882 0.48443 0.84562 0.0
C910 C 0.27644 0.45143 0.57708 0.0
C911 C 0.25993 0.46435 0.55088 0.0
C912 C 0.31541 0.47741 0.52883 0.0
C913 C 0.33162 0.46608 0.55568 0.0
N914 N 0.32654 0.45026 0.60814 0.0
N915 N 0.26375 0.49601 0.50457 0.0
C916 C 0.31176 0.4561 0.58079 0.0
C917 C 0.27948 0.47916 0.52752 0.0
N918 N 0.25918 0.43204 0.59733 0.0
N919 N 0.33443 0.48636 0.50439 0.0
H920 H 0.2377 0.49845 0.50323 0.0
H921 H 0.27644 0.5102 0.48844 0.0
H922 H 0.36053 0.48835 0.50533 0.0
H923 H 0.32451 0.49037 0.4829 0.0
H924 H 0.27068 0.41915 0.61504 0.0
H925 H 0.23415 0.42527 0.59462 0.0
H926 H 0.31289 0.44643 0.62796 0.0
H927 H 0.35223 0.45264 0.61175 0.0
C928 C 0.29289 0.31206 0.2745 0.0
C929 C 0.3178 0.31589 0.29723 0.0
C930 C 0.28674 0.27654 0.33012 0.0
C931 C 0.2633 0.27076 0.30652 0.0
N932 N 0.24557 0.28007 0.2552 0.0
N933 N 0.34001 0.30032 0.34594 0.0
C934 C 0.2667 0.28792 0.27847 0.0
C935 C 0.31511 0.29766 0.32482 0.0
N936 N 0.29431 0.33156 0.24906 0.0
N937 N 0.2811 0.26287 0.35805 0.0
H938 H 0.35968 0.3174 0.34402 0.0
H939 H 0.34214 0.28465 0.3647 0.0
H940 H 0.26116 0.24673 0.3626 0.0
H941 H 0.2947 0.26914 0.37727 0.0
H942 H 0.27527 0.33283 0.23301 0.0
H943 H 0.3137 0.34845 0.24485 0.0
H944 H 0.24847 0.28882 0.23319 0.0
H945 H 0.2263 0.26256 0.25732 0.0
C946 C 1.02725 0.04429 0.52363 0.0
C947 C 1.02443 0.06965 0.54606 0.0
C948 C 0.06703 1.04022 0.57693 0.0
C949 C 0.07143 1.01611 0.55361 0.0
N950 N 0.05914 0.99715 0.50326 0.0
N951 N 0.04371 0.09388 0.59275 0.0
C952 C 0.05233 1.01865 0.52658 0.0
C953 C 0.04502 0.06822 0.5723 0.0
N954 N 1.00583 0.04472 0.49949 0.0
N955 N 0.08277 1.03553 0.60408 0.0
H956 H 1.02629 0.11348 0.59137 0.0
H957 H 0.06092 0.09677 0.61023 0.0
H958 H 0.09958 1.01587 0.60813 0.0
H959 H 0.07757 0.04968 0.62329 0.0
H960 H 1.00392 1.02526 0.48396 0.0
H961 H 0.98811 0.0637 0.49599 0.0
H962 H 0.0488 0.9994 0.48177 0.0
H963 H 0.07743 0.97837 0.50466 0.0
C964 C 0.30688 0.79935 0.82996 0.0
C965 C 0.32695 0.80769 0.80439 0.0
C966 C 0.28882 0.7754 0.77171 0.0
C967 C 0.26948 0.76604 0.79743 0.0
N968 N 0.26232 0.76487 0.85139 0.0
N969 N 0.34004 0.80015 0.75168 0.0
C970 C 0.27922 0.7768 0.82669 0.0
C971 C 0.31876 0.79464 0.77547 0.0
N972 N 0.314 0.81351 0.85733 0.0
N973 N 0.27802 0.76654 0.74353 0.0
H974 H 0.36142 0.81507 0.75333 0.0
H975 H 0.33784 0.78838 0.73081 0.0
H976 H 0.25744 0.75092 0.74 0.0
H977 H 0.28821 0.77594 0.72357 0.0
H978 H 0.29866 0.81143 0.8763 0.0
H979 H 0.33441 0.82938 0.86069 0.0
H980 H 0.26984 0.7688 0.8736 0.0
H981 H 0.24187 0.7487 0.84964 0.0
C982 C 0.52367 0.05715 1.02849 0.0
C983 C 0.51421 0.06505 0.0586 0.0
C984 C 0.55709 1.02546 0.0778 0.0
C985 C 0.56451 1.01552 1.04773 0.0
N986 N 0.55345 1.01973 0.99431 0.0
N987 N 0.51934 0.0551 0.11207 0.0
C988 C 0.54736 1.03081 1.02305 0.0
C989 C 0.53032 0.04877 0.08332 0.0
N990 N 0.51088 0.07569 1.0051 0.0
N991 N 0.57585 1.0127 0.10104 0.0
H992 H 0.49974 0.07181 0.11677 0.0
H993 H 0.52767 1.04215 0.1311 0.0
H994 H 0.59519 0.99531 0.09767 0.0
H995 H 0.57418 1.02103 0.12326 0.0
H996 H 0.51952 0.074 0.98293 0.0
H997 H 0.49294 0.09455 1.00817 0.0
H998 H 0.53875 1.02628 0.97575 0.0
H999 H 0.57253 1.0026 0.9892 0.0
C1000 C 0.27212 0.80566 0.32526 0.0
C1001 C 0.26109 0.81225 0.29535 0.0
C1002 C 0.30249 0.77143 0.2757 0.0
C1003 C 0.31529 0.76679 0.30534 0.0
N1004 N 0.31427 0.781 0.3583 0.0
N1005 N 0.26836 0.80535 0.24169 0.0
C1006 C 0.3006 0.78436 0.33011 0.0
C1007 C 0.2769 0.79605 0.27045 0.0
N1008 N 0.25471 0.81902 0.3491 0.0
N1009 N 0.31486 0.75228 0.25256 0.0
H1010 H 0.25029 0.82372 0.23711 0.0
H1011 H 0.28094 0.7971 0.22243 0.0
H1012 H 0.33419 0.73481 0.25548 0.0
H1013 H 0.3044 0.75175 0.23103 0.0
H1014 H 0.25884 0.81231 0.37154 0.0
H1015 H 0.23449 0.83552 0.34636 0.0
H1016 H 0.308 0.79632 0.37651 0.0
H1017 H 0.33321 0.76365 0.36324 0.0
C1018 C 0.53673 1.02869 0.57753 0.0
C1019 C 0.51939 1.02752 0.54953 0.0
C1020 C 0.54508 0.08137 0.53456 0.0
C1021 C 0.56459 0.08118 0.56148 0.0
N1022 N 0.57995 0.05468 0.60851 0.0
N1023 N 0.50772 0.05145 0.50064 0.0
C1024 C 0.56061 0.05482 0.58298 0.0
C1025 C 0.52361 0.05369 0.52796 0.0
N1026 N 0.5301 1.00482 0.59895 0.0
N1027 N 0.54693 0.10823 0.51531 0.0
H1028 H 0.49006 1.03296 0.49584 0.0
H1029 H 0.51289 0.06688 0.48223 0.0
H1030 H 0.56393 0.12778 0.5181 0.0
H1031 H 0.53057 0.11221 0.49732 0.0
H1032 H 0.53931 1.00532 0.62092 0.0
H1033 H 0.51326 0.98526 0.59534 0.0
H1034 H 0.5811 1.03486 0.62379 0.0
H1035 H 0.59643 0.07401 0.61389 0.0
C1036 C 0.27367 0.29698 0.77677 0.0
C1037 C 0.27007 0.31427 0.80465 0.0
C1038 C 0.31996 0.2847 0.82444 0.0
C1039 C 0.32201 0.26555 0.79739 0.0
N1040 N 0.29958 0.25123 0.7486 0.0
N1041 N 0.28689 0.32184 0.85645 0.0
C1042 C 0.29843 0.27106 0.77379 0.0
C1043 C 0.2926 0.30754 0.82882 0.0
N1044 N 0.25376 0.30604 0.75291 0.0
N1045 N 0.34443 0.28125 0.8459 0.0
H1046 H 0.26785 0.33942 0.86029 0.0
H1047 H 0.29958 0.31484 0.87604 0.0
H1048 H 0.36365 0.26342 0.84442 0.0
H1049 H 0.34687 0.29722 0.86435 0.0
H1050 H 0.25693 0.29706 0.73102 0.0
H1051 H 0.23546 0.32481 0.75447 0.0
H1052 H 0.28126 0.25136 0.73186 0.0
H1053 H 0.31789 0.23277 0.74528 0.0
C1054 C 1.01333 0.04251 0.07787 0.0
C1055 C 1.01576 1.0164 0.05612 0.0
C1056 C 0.05975 0.04806 1.02893 0.0
C1057 C 0.05895 0.07309 0.05177 0.0
N1058 N 1.03591 0.09425 0.09843 0.0
N1059 N 1.0419 0.9932 1.01154 0.0
C1060 C 1.03577 0.07039 0.07624 0.0
C1061 C 1.03923 1.0189 1.03187 0.0
N1062 N 0.98956 1.0406 0.1002 0.0
N1063 N 0.07862 0.05315 1.00345 0.0
H1064 H 1.02507 0.97323 1.01086 0.0
H1065 H 0.06146 0.99083 0.99603 0.0
H1066 H 0.09415 0.07387 1.00045 0.0
H1067 H 0.0773 1.03819 0.98425 0.0
H1068 H 0.98349 0.06017 0.11476 0.0
H1069 H 0.97426 1.01978 0.10349 0.0
H1070 H 1.02283 0.09241 0.11872 0.0
H1071 H 0.05074 0.11565 0.09734 0.0
C1072 C 0.80166 0.76683 0.81211 0.0
C1073 C 0.76785 0.77232 0.80285 0.0
C1074 C 0.78358 0.82847 0.78379 0.0
C1075 C 0.81769 0.82206 0.79134 0.0
N1076 N 0.86025 0.78346 0.80886 0.0
N1077 N 0.72677 0.80728 0.77775 0.0
C1078 C 0.82697 0.79085 0.80465 0.0
C1079 C 0.75893 0.8028 0.78792 0.0
N1080 N 0.80958 0.7386 0.82828 0.0
N1081 N 0.77462 0.85974 0.77371 0.0
H1082 H 0.70757 0.79015 0.78173 0.0
H1083 H 0.71933 0.82696 0.76376 0.0
H1084 H 0.79198 0.87901 0.77077 0.0
H1085 H 0.74992 0.86763 0.77057 0.0
H1086 H 0.83246 0.73501 0.83922 0.0
H1087 H 0.79254 0.71923 0.83209 0.0
H1088 H 0.86918 0.75979 0.8149 0.0
H1089 H 0.87945 0.80048 0.80435 0.0
C1090 C 0.75551 0.29254 0.31558 0.0
C1091 C 0.76298 0.26443 0.29681 0.0
C1092 C 0.81861 0.28866 0.28595 0.0
C1093 C 0.81267 0.31459 0.30732 0.0
N1094 N 0.77688 0.33884 0.34551 0.0
N1095 N 0.80394 0.23313 0.26806 0.0
C1096 C 0.78142 0.31596 0.32289 0.0
C1097 C 0.79516 0.26189 0.28299 0.0
N1098 N 0.72333 0.29776 0.32541 0.0
N1099 N 0.84655 0.29003 0.26798 0.0
H1100 H 0.7879 0.21261 0.2662 0.0
H1101 H 0.82814 0.22824 0.26016 0.0
H1102 H 0.86392 0.30951 0.26928 0.0
H1103 H 0.85077 0.27388 0.24987 0.0
H1104 H 0.71552 0.31967 0.33621 0.0
H1105 H 0.70366 0.28147 0.3206 0.0
H1106 H 0.75641 0.33849 0.36021 0.0
H1107 H 0.79479 0.35688 0.3509 0.0
C1108 C 0.81607 0.29302 0.77427 0.0
C1109 C 0.81883 0.27194 0.80015 0.0
C1110 C 0.7685 0.29908 0.82199 0.0
C1111 C 0.76706 0.32163 0.797 0.0
N1112 N 0.79046 0.34173 0.75011 0.0
N1113 N 0.80078 0.25809 0.85068 0.0
C1114 C 0.79122 0.31909 0.77339 0.0
C1115 C 0.79567 0.2756 0.82444 0.0
N1116 N 0.83689 0.28746 0.75012 0.0
N1117 N 0.74378 0.30012 0.84349 0.0
H1118 H 0.81989 0.24032 0.85329 0.0
H1119 H 0.78762 0.26266 0.87061 0.0
H1120 H 0.72517 0.31865 0.844 0.0
H1121 H 0.74064 0.28172 0.85997 0.0
H1122 H 0.8343 0.29915 0.72921 0.0
H1123 H 0.85564 0.2691 0.75022 0.0
H1124 H 0.80934 0.34399 0.73394 0.0
H1125 H 0.77173 0.35992 0.74774 0.0
C1126 C 0.82433 0.79812 0.28384 0.0
C1127 C 0.82227 0.76527 0.29639 0.0
C1128 C 0.77532 0.78505 0.32763 0.0
C1129 C 0.77234 0.8148 0.30997 0.0
N1130 N 0.79368 0.84773 0.26818 0.0
N1131 N 0.79238 0.72671 0.32881 0.0
C1132 C 0.79689 0.82101 0.2873 0.0
C1133 C 0.79692 0.75852 0.31806 0.0
N1134 N 0.85326 0.80822 0.27006 0.0
N1135 N 0.75877 0.78285 0.35452 0.0
H1136 H 0.8069 0.70631 0.32179 0.0
H1137 H 0.7721 0.72018 0.34253 0.0
H1138 H 0.74544 0.80322 0.36318 0.0
H1139 H 0.76239 0.76315 0.36972 0.0
H1140 H 0.85712 0.83277 0.2627 0.0
H1141 H 0.8748 0.79319 0.26967 0.0
H1142 H 0.80915 0.85107 0.24938 0.0
H1143 H 0.77398 0.8649 0.26951 0.0
C1144 C 0.54598 0.51379 1.03293 0.0
C1145 C 0.56815 0.51412 0.0581 0.0
C1146 C 0.54532 0.56902 0.07347 0.0
C1147 C 0.52178 0.56777 1.04932 0.0
N1148 N 0.49725 0.53769 1.00765 0.0
N1149 N 0.58521 0.53903 0.10519 0.0
C1150 C 0.52129 0.53965 1.02963 0.0
C1151 C 0.56695 0.54102 0.07908 0.0
N1152 N 0.54945 0.48928 1.01152 0.0
N1153 N 0.54721 0.59721 0.09096 0.0
H1154 H 0.60154 0.51919 0.11002 0.0
H1155 H 0.58241 0.55568 0.12313 0.0
H1156 H 0.53036 0.61723 0.08908 0.0
H1157 H 0.56654 0.60162 0.10624 0.0
H1158 H 0.53696 0.48943 0.99088 0.0
H1159 H 0.56698 0.46983 1.01326 0.0
H1160 H 0.49285 0.51625 0.9949 0.0
H1161 H 0.47997 0.55682 1.00331 0.0
C1162 C 0.06476 0.53984 0.52471 0.0
C1163 C 0.06744 0.51367 0.54644 0.0
C1164 C 1.02208 0.54012 0.57643 0.0
C1165 C 1.02103 0.56749 0.55579 0.0
N1166 N 0.04409 0.59557 0.5121 0.0
N1167 N 0.05219 0.49097 0.595 0.0
C1168 C 0.04326 0.56797 0.53051 0.0
C1169 C 0.04694 0.51437 0.57281 0.0
N1170 N 0.08149 0.53704 0.4978 0.0
N1171 N 0.99931 0.53875 0.59958 0.0
H1172 H 0.07024 0.47199 0.59319 0.0
H1173 H 1.04086 0.49183 0.6162 0.0
H1174 H 0.98183 0.55774 0.60383 0.0
H1175 H 0.99605 0.51784 0.61339 0.0
H1176 H 0.07745 0.55298 0.47947 0.0
H1177 H 0.09781 0.51722 0.49288 0.0
H1178 H 0.06252 0.59948 0.49575 0.0
H1179 H 1.02738 0.61567 0.51425 0.0
C1180 C 0.05266 0.5558 1.02919 0.0
C1181 C 0.06986 0.55946 0.05707 0.0
C1182 C 0.04295 0.50802 0.07622 0.0
C1183 C 1.02391 0.50576 1.04915 0.0
N1184 N 1.00809 0.52883 1.0008 0.0
N1185 N 0.07887 0.54164 0.10849 0.0
C1186 C 1.02799 0.53014 1.02593 0.0
C1187 C 0.06448 0.53612 0.08091 0.0
N1188 N 0.06081 0.57633 1.00549 0.0
N1189 N 1.04061 0.48305 0.09737 0.0
H1190 H 0.09553 0.56125 0.1125 0.0
H1191 H 0.07286 0.52815 0.12791 0.0
H1192 H 1.02361 0.46331 0.09562 0.0
H1193 H 0.05662 0.48083 0.11585 0.0
H1194 H 0.05191 0.57318 0.98359 0.0
H1195 H 0.07892 0.59509 1.00713 0.0
H1196 H 1.00703 0.54768 0.98451 0.0
H1197 H 0.99068 0.50981 0.99709 0.0
C1198 C 0.53786 0.57331 0.57188 0.0
C1199 C 0.56335 0.56856 0.5497 0.0
C1200 C 0.54233 0.51114 0.54128 0.0
C1201 C 0.51442 0.51758 0.56069 0.0
N1202 N 0.4827 0.55751 0.59019 0.0
N1203 N 0.58654 0.53438 0.50977 0.0
C1204 C 0.51147 0.54943 0.57486 0.0
C1205 C 0.56478 0.53779 0.53349 0.0
N1206 N 0.53932 0.60039 0.59074 0.0
N1207 N 0.54841 0.47925 0.53126 0.0
H1208 H 0.60348 0.55301 0.50347 0.0
H1209 H 0.58596 0.51417 0.49488 0.0
H1210 H 0.53309 0.45896 0.53665 0.0
H1211 H 0.57031 0.47235 0.51988 0.0
H1212 H 0.52354 0.60346 0.60936 0.0
H1213 H 0.55856 0.61804 0.58967 0.0
H1214 H 0.47758 0.58151 0.59835 0.0
H1215 H 0.46235 0.54122 0.592 0.0
C1216 C 0.16163 0.30725 0.45558 0.0
C1217 C 0.17766 0.31687 0.42822 0.0
C1218 C 0.18238 0.37472 0.44701 0.0
C1219 C 0.16479 0.36538 0.47376 0.0
N1220 N 0.1486 0.32072 0.50769 0.0
N1221 N 0.21017 0.35735 0.40044 0.0
C1222 C 0.158 0.33097 0.47945 0.0
C1223 C 0.19052 0.34983 0.42489 0.0
N1224 N 0.14899 0.27555 0.45846 0.0
N1225 N 0.19082 0.4076 0.44266 0.0
H1226 H 0.21592 0.33993 0.38364 0.0
H1227 H 0.22285 0.37991 0.39774 0.0
H1228 H 0.1881 0.42569 0.45952 0.0
H1229 H 0.19974 0.41726 0.42233 0.0
H1230 H 0.13279 0.26838 0.4758 0.0
H1231 H 0.15336 0.25672 0.44255 0.0
H1232 H 0.1461 0.29563 0.51387 0.0
H1233 H 0.14671 0.33695 0.52598 0.0
C1234 C 1.02998 0.92616 0.70409 0.0
C1235 C 1.02057 0.93968 0.67577 0.0
C1236 C 0.96197 0.94238 0.69273 0.0
C1237 C 0.97035 0.9223 0.71836 0.0
N1238 N 1.01352 0.89429 0.74804 0.0
N1239 N 0.9778 0.96141 0.64257 0.0
C1240 C 1.00476 0.91463 0.72441 0.0
C1241 C 0.98672 0.94875 0.67016 0.0
N1242 N 0.06328 0.92434 0.71145 0.0
N1243 N 0.93029 0.95546 0.69004 0.0
H1244 H 0.99533 0.96752 0.62593 0.0
H1245 H 0.95298 0.96426 0.63556 0.0
H1246 H 0.91141 0.95108 0.7059 0.0
H1247 H 0.92358 0.97307 0.67369 0.0
H1248 H 0.07196 0.91784 0.73289 0.0
H1249 H 0.08212 0.93284 0.6969 0.0
H1250 H 1.03746 0.88403 0.75068 0.0
H1251 H 0.99667 0.88548 0.76406 0.0
C1252 C 0.42822 0.76401 0.94709 0.0
C1253 C 0.40952 0.75385 0.9214 0.0
C1254 C 0.40134 0.69816 0.94414 0.0
C1255 C 0.42046 0.70814 0.96974 0.0
N1256 N 0.44381 0.75359 0.99915 0.0
N1257 N 0.37242 0.71443 0.89786 0.0
C1258 C 0.43103 0.74208 0.97248 0.0
C1259 C 0.39424 0.72184 0.92071 0.0
N1260 N 0.44522 0.79377 0.94653 0.0
N1261 N 0.39029 0.6658 0.94216 0.0
H1262 H 0.36673 0.7314 0.88058 0.0
H1263 H 0.3579 0.69282 0.89717 0.0
H1264 H 0.39222 0.64875 0.96001 0.0
H1265 H 0.38011 0.65545 0.92267 0.0
H1266 H 0.46283 0.80056 0.96274 0.0
H1267 H 0.44382 0.81077 0.92863 0.0
H1268 H 0.44861 0.77881 1.00333 0.0
H1269 H 0.4467 0.73876 1.01832 0.0
C1270 C 0.6079 0.13422 0.21905 0.0
C1271 C 0.61135 0.16921 0.22461 0.0
C1272 C 0.56454 0.1807 0.18994 0.0
C1273 C 0.56474 0.14667 0.18077 0.0
N1274 N 0.58596 0.09045 0.18612 0.0
N1275 N 0.5903 0.2258 0.21565 0.0
C1276 C 0.5859 0.12308 0.19553 0.0
C1277 C 0.58898 0.19224 0.21038 0.0
N1278 N 0.62555 0.11179 0.23626 0.0
N1279 N 0.54128 0.20272 0.17853 0.0
H1280 H 0.6074 0.23708 0.23015 0.0
H1281 H 0.6074 0.23708 0.23015 0.0
H1282 H 0.52164 0.19532 0.1645 0.0
H1283 H 0.54072 0.2281 0.18433 0.0
H1284 H 0.62229 0.08593 0.2352 0.0
H1285 H 0.64164 0.1193 0.25351 0.0
H1286 H 0.60325 0.07251 0.19341 0.0
H1287 H 0.56934 0.08171 0.16972 0.0
C1288 C 0.16061 0.74224 0.1264 0.0
C1289 C 0.16197 0.7073 0.1336 0.0
C1290 C 0.17364 0.72119 0.18678 0.0
C1291 C 0.17096 0.75587 0.17988 0.0
N1292 N 0.17085 0.79968 0.1424 0.0
N1293 N 0.18262 0.66484 0.16777 0.0
C1294 C 0.16721 0.76644 0.14942 0.0
C1295 C 0.1725 0.69724 0.16295 0.0
N1296 N 0.15141 0.75263 0.09815 0.0
N1297 N 0.17552 0.71089 0.21621 0.0
H1298 H 0.18388 0.6472 0.15039 0.0
H1299 H 0.19346 0.65659 0.18788 0.0
H1300 H 0.1766 0.72751 0.23435 0.0
H1301 H 0.17338 0.68587 0.22279 0.0
H1302 H 0.14477 0.77728 0.09296 0.0
H1303 H 0.14876 0.7366 0.0799 0.0
H1304 H 0.17207 0.80887 0.12039 0.0
H1305 H 0.17586 0.81793 0.15864 0.0
C1306 C 0.56387 0.91849 0.39179 0.0
C1307 C 0.57407 0.93276 0.41968 0.0
C1308 C 0.633 0.93065 0.40322 0.0
C1309 C 0.62294 0.91492 0.37593 0.0
N1310 N 0.57835 0.90527 0.33996 0.0
N1311 N 0.61646 0.96161 0.44816 0.0
C1312 C 0.58823 0.91297 0.36866 0.0
C1313 C 0.60814 0.9417 0.4242 0.0
N1314 N 0.53157 0.9077 0.3881 0.0
N1315 N 0.66643 0.93487 0.40908 0.0
H1316 H 0.59858 0.97096 0.4633 0.0
H1317 H 0.64028 0.97157 0.45148 0.0
H1318 H 0.68505 0.93051 0.3929 0.0
H1319 H 0.67581 0.94182 0.43009 0.0
H1320 H 0.52381 0.89334 0.36977 0.0
H1321 H 0.51294 0.9105 0.40446 0.0
H1322 H 0.55346 0.9066 0.33282 0.0
H1323 H 0.59513 0.9008 0.32239 0.0
C1324 C 0.42247 0.33071 0.62639 0.0
C1325 C 0.41726 0.36526 0.63345 0.0
C1326 C 0.3911 0.34894 0.68178 0.0
C1327 C 0.39666 0.31455 0.67476 0.0
N1328 N 0.40652 0.27305 0.63639 0.0
N1329 N 0.38627 0.40589 0.66286 0.0
C1330 C 0.40856 0.30567 0.64564 0.0
C1331 C 0.39816 0.37388 0.65954 0.0
N1332 N 0.44253 0.32135 0.60273 0.0
N1333 N 0.38121 0.35829 0.71014 0.0
H1334 H 0.39035 0.42459 0.64675 0.0
H1335 H 0.36941 0.41288 0.6798 0.0
H1336 H 0.37477 0.34135 0.72706 0.0
H1337 H 0.38135 0.38311 0.71749 0.0
H1338 H 0.45055 0.29671 0.59932 0.0
H1339 H 0.45369 0.3381 0.58785 0.0
H1340 H 0.41182 0.26538 0.61438 0.0
H1341 H 0.39585 0.25437 0.64988 0.0
C1342 C 0.97037 0.214 0.9056 0.0
C1343 C 0.95168 0.18762 0.89205 0.0
C1344 C 0.98051 0.1476 0.92612 0.0
C1345 C 1.00161 0.17382 0.93659 0.0
N1346 N 1.02395 0.22894 0.92661 0.0
N1347 N 0.94211 0.12801 0.88736 0.0
C1348 C 0.99876 0.20605 0.92338 0.0
C1349 C 0.95805 0.15393 0.90143 0.0
N1350 N 0.96092 0.24677 0.90273 0.0
N1351 N 0.98038 0.11732 0.94066 0.0
H1352 H 0.92375 0.1316 0.87086 0.0
H1353 H 0.94856 0.10293 0.89083 0.0
H1354 H 0.99575 0.1119 0.95907 0.0
H1355 H 0.963 0.09855 0.93612 0.0
H1356 H 0.97225 0.26601 0.91493 0.0
H1357 H 0.93951 0.25449 0.89149 0.0
H1358 H 1.02401 0.25189 0.91523 0.0
H1359 H 0.04668 0.22317 0.93713 0.0
C1360 C 0.93444 0.75172 0.61673 0.0
C1361 C 0.92112 0.71914 0.62145 0.0
C1362 C 0.88672 0.74151 0.6632 0.0
C1363 C 0.90464 0.77225 0.66193 0.0
N1364 N 0.95037 0.80405 0.63995 0.0
N1365 N 0.88465 0.68253 0.64976 0.0
C1366 C 0.92948 0.77694 0.63911 0.0
C1367 C 0.89725 0.71392 0.64489 0.0
N1368 N 0.95203 0.75878 0.591 0.0
N1369 N 0.85881 0.73906 0.68112 0.0
H1370 H 0.88966 0.66231 0.63547 0.0
H1371 H 0.87059 0.67614 0.66879 0.0
H1372 H 0.84957 0.75914 0.69382 0.0
H1373 H 0.84281 0.71847 0.68098 0.0
H1374 H 0.95932 0.78301 0.58504 0.0
H1375 H 0.95658 0.74113 0.57418 0.0
H1376 H 0.97145 0.8063 0.62609 0.0
H1377 H 0.94905 0.82264 0.65636 0.0
C1378 C 0.1055 0.14382 0.42616 0.0
C1379 C 0.07076 0.14637 0.41934 0.0
C1380 C 0.08445 0.15993 0.36635 0.0
C1381 C 0.11918 0.1611 0.37414 0.0
N1382 N 0.1628 0.14131 0.40724 0.0
N1383 N 1.02675 0.14913 0.38244 0.0
C1384 C 0.12964 0.14886 0.40278 0.0
C1385 C 0.06016 0.15191 0.38914 0.0
N1386 N 0.11549 0.1386 0.45534 0.0
N1387 N 0.07459 0.16749 0.3376 0.0
H1388 H 1.00881 0.14293 0.39874 0.0
H1389 H 1.01684 0.15061 0.36075 0.0
H1390 H 0.09129 0.16841 0.31955 0.0
H1391 H 0.0499 0.17241 0.33129 0.0
H1392 H 0.14026 0.1409 0.46254 0.0
H1393 H 0.09866 0.13367 0.47287 0.0
H1394 H 0.17196 0.12953 0.42659 0.0
H1395 H 0.18066 0.14356 0.39004 0.0
C1396 C 0.65909 0.33434 0.12101 0.0
C1397 C 0.66587 0.36846 0.12817 0.0
C1398 C 0.68427 0.35132 0.1789 0.0
C1399 C 0.67922 0.31704 0.17129 0.0
N1400 N 0.66986 0.2757 0.13257 0.0
N1401 N 0.69487 0.40747 0.16037 0.0
C1402 C 0.66912 0.3085 0.14153 0.0
C1403 C 0.68165 0.37627 0.15599 0.0
N1404 N 0.6416 0.32645 0.0955 0.0
N1405 N 0.68924 0.36067 0.20825 0.0
H1406 H 0.69452 0.42605 0.14371 0.0
H1407 H 0.70951 0.41353 0.17907 0.0
H1408 H 0.68981 0.34388 0.22629 0.0
H1409 H 0.68923 0.38566 0.21517 0.0
H1410 H 0.63226 0.30255 0.09123 0.0
H1411 H 0.63388 0.34421 0.0797 0.0
H1412 H 0.66602 0.26821 0.1103 0.0
H1413 H 0.67781 0.25624 0.1467 0.0
C1414 C 0.45719 0.92579 0.90365 0.0
C1415 C 0.47022 0.91148 0.87661 0.0
C1416 C 0.52773 0.91905 0.89539 0.0
C1417 C 0.51467 0.93175 0.92307 0.0
N1418 N 0.46826 0.95605 0.95028 0.0
N1419 N 0.51774 0.90596 0.84277 0.0
C1420 C 0.47971 0.93793 0.92611 0.0
C1421 C 0.5054 0.91228 0.87103 0.0
N1422 N 0.42318 0.9275 0.90788 0.0
N1423 N 0.56101 0.91069 0.89299 0.0
H1424 H 0.50268 0.90016 0.82438 0.0
H1425 H 0.5428 0.90963 0.83683 0.0
H1426 H 0.57849 0.91467 0.91004 0.0
H1427 H 0.57096 0.89717 0.8749 0.0
H1428 H 0.41186 0.9334 0.92843 0.0
H1429 H 0.40608 0.92215 0.89073 0.0
H1430 H 0.44348 0.96402 0.95285 0.0
H1431 H 0.48439 0.96587 0.96657 0.0
C1432 C 0.90682 0.39264 0.93644 0.0
C1433 C 0.9112 0.37962 0.96617 0.0
C1434 C 0.89616 0.32355 0.94834 0.0
C1435 C 0.89519 0.33566 0.91802 0.0
N1436 N 0.88906 0.38292 0.88452 0.0
N1437 N 0.8902 0.3381 1.00117 0.0
C1438 C 0.8972 0.37071 0.91249 0.0
C1439 C 0.89948 0.34681 0.97252 0.0
N1440 N 0.91153 0.42612 0.93138 0.0
N1441 N 0.89616 0.28988 0.95431 0.0
H1442 H 0.88834 0.35552 1.0186 0.0
H1443 H 0.8794 0.31504 1.00644 0.0
H1444 H 0.89512 0.2715 0.9377 0.0
H1445 H 0.9002 0.28007 0.97586 0.0
H1446 H 0.91328 0.43695 0.91003 0.0
H1447 H 0.91365 0.44327 0.94908 0.0
H1448 H 0.88769 0.40831 0.87916 0.0
H1449 H 0.88078 0.36748 0.86706 0.0
C1450 C 0.52547 0.16501 0.71459 0.0
C1451 C 0.51686 0.15447 0.68505 0.0
C1452 C 0.45811 0.14853 0.70108 0.0
C1453 C 0.46555 0.16534 0.72854 0.0
N1454 N 0.50699 0.18958 0.76187 0.0
N1455 N 0.47485 0.13658 0.64946 0.0
C1456 C 0.49955 0.1729 0.73578 0.0
C1457 C 0.48323 0.14574 0.67822 0.0
N1458 N 0.55863 0.1673 0.72232 0.0
N1459 N 0.42715 0.1345 0.6972 0.0
H1460 H 0.49257 0.13331 0.63232 0.0
H1461 H 0.45014 0.13417 0.6421 0.0
H1462 H 0.4086 0.13516 0.7139 0.0
H1463 H 0.42109 0.11922 0.67895 0.0
H1464 H 0.56696 0.17165 0.74425 0.0
H1465 H 0.57798 0.16151 0.70721 0.0
H1466 H 0.53056 0.19946 0.76655 0.0
H1467 H 0.48911 0.19604 0.77803 0.0
C1468 C 0.6937 0.72175 0.4205 0.0
C1469 C 0.69225 0.75691 0.4259 0.0
C1470 C 0.67171 0.74617 0.47747 0.0
C1471 C 0.67051 0.71112 0.47124 0.0
N1472 N 0.69227 0.66537 0.44155 0.0
N1473 N 0.69545 0.80006 0.4641 0.0
C1474 C 0.68525 0.69887 0.44414 0.0
C1475 C 0.68634 0.76839 0.45585 0.0
N1476 N 0.70324 0.71017 0.39272 0.0
N1477 N 0.65738 0.75881 0.50312 0.0
H1478 H 0.70911 0.8159 0.45007 0.0
H1479 H 0.69399 0.80873 0.48627 0.0
H1480 H 0.64729 0.74393 0.52011 0.0
H1481 H 0.65325 0.78437 0.50653 0.0
H1482 H 0.70016 0.68542 0.3858 0.0
H1483 H 0.71386 0.72566 0.3763 0.0
H1484 H 0.70567 0.65497 0.4236 0.0
H1485 H 0.68778 0.64835 0.45904 0.0
C1486 C 0.13393 0.92694 0.19048 0.0
C1487 C 0.12344 0.91204 0.21819 0.0
C1488 C 0.06484 0.91188 0.20015 0.0
C1489 C 0.07568 0.92552 0.17211 0.0
N1490 N 0.11829 0.95283 0.1426 0.0
N1491 N 0.07808 0.89627 0.25183 0.0
C1492 C 0.10964 0.93503 0.1679 0.0
C1493 C 0.08858 0.90679 0.22393 0.0
N1494 N 0.1673 0.93326 0.18577 0.0
N1495 N 1.03224 0.90166 0.20336 0.0
H1496 H 0.09426 0.88913 0.26911 0.0
H1497 H 0.05308 0.89625 0.25874 0.0
H1498 H 1.01411 0.90468 0.1866 0.0
H1499 H 1.02319 0.88846 0.22192 0.0
H1500 H 0.17752 0.93976 0.16492 0.0
H1501 H 0.1853 0.93117 0.20279 0.0
H1502 H 0.14182 0.96334 0.13896 0.0
H1503 H 0.10089 0.95957 0.12601 0.0
C1504 C 0.65174 0.81055 0.95518 0.0
C1505 C 0.67614 0.81658 0.93228 0.0
C1506 C 0.68359 0.87383 0.95162 0.0
C1507 C 0.66082 0.86702 0.97562 0.0
N1508 N 0.63114 0.8252 1.00492 0.0
N1509 N 0.72189 0.8508 0.91431 0.0
C1510 C 0.64769 0.83412 0.97907 0.0
C1511 C 0.69406 0.84731 0.93218 0.0
N1512 N 0.63051 0.78379 0.95311 0.0
N1513 N 0.69501 0.90574 0.94706 0.0
H1514 H 0.73125 0.83144 0.90083 0.0
H1515 H 0.73779 0.87145 0.91541 0.0
H1516 H 0.68939 0.92559 0.96157 0.0
H1517 H 0.70835 0.91293 0.92785 0.0
H1518 H 0.60996 0.78055 0.96744 0.0
H1519 H 0.63087 0.76683 0.93526 0.0
H1520 H 0.62372 0.80065 1.00948 0.0
H1521 H 0.62795 0.84128 1.0232 0.0
C1522 C 0.52738 0.42247 0.21123 0.0
C1523 C 0.51732 0.42984 0.1812 0.0
C1524 C 0.45825 0.42768 0.19715 0.0
C1525 C 0.46812 0.41375 0.22534 0.0
N1526 N 0.51285 0.39868 0.25995 0.0
N1527 N 0.47286 0.43808 0.14483 0.0
C1528 C 0.50291 0.4121 0.23293 0.0
C1529 C 0.48266 0.4327 0.17405 0.0
N1530 N 0.56044 0.42571 0.21897 0.0
N1531 N 0.42544 0.43672 0.19274 0.0
H1532 H 0.48973 0.44222 0.1272 0.0
H1533 H 0.44804 0.43609 0.13767 0.0
H1534 H 0.40721 0.43426 0.20959 0.0
H1535 H 0.41712 0.44993 0.17381 0.0
H1536 H 0.56926 0.42399 0.24106 0.0
H1537 H 0.57875 0.43338 0.20354 0.0
H1538 H 0.53767 0.39256 0.26501 0.0
H1539 H 0.49622 0.3913 0.27682 0.0
C1540 C 0.92812 0.25271 0.48686 0.0
C1541 C 0.92315 0.21815 0.48004 0.0
C1542 C 0.90063 0.23359 0.43016 0.0
C1543 C 0.90655 0.26794 0.43651 0.0
N1544 N 0.91813 0.31106 0.47289 0.0
N1545 N 0.8935 0.17744 0.45021 0.0
C1546 C 0.91784 0.27774 0.46557 0.0
C1547 C 0.90586 0.2092 0.45322 0.0
N1548 N 0.94396 0.2617 0.51296 0.0
N1549 N 0.89193 0.22387 0.40162 0.0
H1550 H 0.8956 0.15943 0.46727 0.0
H1551 H 0.87793 0.1702 0.43251 0.0
H1552 H 0.88773 0.24075 0.38399 0.0
H1553 H 0.89142 0.19888 0.3948 0.0
H1554 H 0.95252 0.28583 0.51734 0.0
H1555 H 0.95025 0.2447 0.52986 0.0
H1556 H 0.92285 0.32006 0.49453 0.0
H1557 H 0.91064 0.32982 0.4578 0.0
C1558 C 0.10498 0.65774 0.67133 0.0
C1559 C 0.07034 0.65858 0.67882 0.0
C1560 C 0.08425 0.67353 0.73126 0.0
C1561 C 0.11914 0.67366 0.72348 0.0
N1562 N 0.16227 0.65387 0.6895 0.0
N1563 N 1.02715 0.6589 0.71678 0.0
C1564 C 0.12932 0.66201 0.69452 0.0
C1565 C 0.06009 0.66366 0.70915 0.0
N1566 N 0.11472 0.65443 0.64184 0.0
N1567 N 0.07376 0.68474 0.75891 0.0
H1568 H 1.00901 0.65202 0.70098 0.0
H1569 H 1.0183 0.6587 0.73893 0.0
H1570 H 0.08991 0.6918 0.77615 0.0
H1571 H 0.04872 0.68954 0.76426 0.0
H1572 H 0.13936 0.65794 0.63455 0.0
H1573 H 0.09779 0.65043 0.62426 0.0
H1574 H 0.1708 0.64236 0.66979 0.0
H1575 H 0.18044 0.65506 0.70645 0.0
C1576 C 0.68481 0.21171 0.66331 0.0
C1577 C 0.67254 0.22182 0.63453 0.0
C1578 C 0.6827 0.28079 0.64856 0.0
C1579 C 0.68764 0.27063 0.67893 0.0
N1580 N 0.69403 0.2265 0.71578 0.0
N1581 N 0.66324 0.26672 0.59833 0.0
C1582 C 0.68949 0.23608 0.68638 0.0
C1583 C 0.67332 0.25653 0.62641 0.0
N1584 N 0.69296 0.17878 0.66818 0.0
N1585 N 0.68724 0.31375 0.64099 0.0
H1586 H 0.65779 0.25038 0.58082 0.0
H1587 H 0.65856 0.29163 0.59255 0.0
H1588 H 0.69408 0.33184 0.65684 0.0
H1589 H 0.6873 0.32276 0.6189 0.0
H1590 H 0.70474 0.17014 0.68772 0.0
H1591 H 0.69142 0.16074 0.65117 0.0
H1592 H 0.6913 0.20186 0.72326 0.0
H1593 H 0.69865 0.24356 0.7331 0.0
C1594 C 0.06685 0.41054 0.89983 0.0
C1595 C 0.07798 0.42032 0.92898 0.0
C1596 C 0.13577 0.4243 0.90983 0.0
C1597 C 0.12566 0.40939 0.88217 0.0
N1598 N 0.08115 0.38751 0.85078 0.0
N1599 N 0.12295 0.43564 0.96249 0.0
C1600 C 0.09098 0.40285 0.87689 0.0
C1601 C 0.11242 0.4271 0.93414 0.0
N1602 N 1.03317 0.40829 0.89415 0.0
N1603 N 0.16756 0.43683 0.91241 0.0
H1604 H 0.10637 0.43985 0.9804 0.0
H1605 H 0.14814 0.43676 0.9687 0.0
H1606 H 0.18486 0.43626 0.89465 0.0
H1607 H 0.17568 0.45081 0.93083 0.0
H1608 H 1.02316 0.40497 0.87265 0.0
H1609 H 1.01483 0.41227 0.91064 0.0
H1610 H 0.05731 0.37754 0.84751 0.0
H1611 H 0.09718 0.383 0.83266 0.0
C1612 C 0.91128 0.86845 0.15371 0.0
C1613 C 0.92355 0.86022 0.12452 0.0
C1614 C 0.91249 0.80062 0.13579 0.0
C1615 C 0.90667 0.80863 0.16666 0.0
N1616 N 0.90783 0.85124 0.20581 0.0
N1617 N 0.93867 0.81687 0.0886 0.0
C1618 C 0.90771 0.84285 0.17587 0.0
C1619 C 0.92461 0.82587 0.11559 0.0
N1620 N 0.90242 0.90082 0.16022 0.0
N1621 N 0.90557 0.76913 0.12544 0.0
H1622 H 0.94756 0.83411 0.0729 0.0
H1623 H 0.94404 0.79206 0.08286 0.0
H1624 H 0.89564 0.75036 0.13922 0.0
H1625 H 0.9062 0.76277 0.10261 0.0
H1626 H 0.89049 0.90764 0.18031 0.0
H1627 H 0.90327 0.92 0.14413 0.0
H1628 H 0.91197 0.87565 0.21332 0.0
H1629 H 0.90805 0.83377 0.2233 0.0
C1630 C 0.52277 0.67212 0.39731 0.0
C1631 C 0.51156 0.6596 0.42565 0.0
C1632 C 0.45378 0.65741 0.40631 0.0
C1633 C 0.46406 0.67474 0.37981 0.0
N1634 N 0.50846 0.69972 0.35012 0.0
N1635 N 0.46653 0.64076 0.45784 0.0
C1636 C 0.49869 0.68186 0.37502 0.0
C1637 C 0.4771 0.65222 0.43028 0.0
N1638 N 0.55645 0.67511 0.39179 0.0
N1639 N 0.42188 0.64494 0.40806 0.0
H1640 H 0.4831 0.63448 0.47523 0.0
H1641 H 0.44134 0.63901 0.46402 0.0
H1642 H 0.40453 0.64752 0.39054 0.0
H1643 H 0.41362 0.62928 0.42537 0.0
H1644 H 0.56645 0.68043 0.37057 0.0
H1645 H 0.57477 0.66976 0.40791 0.0
H1646 H 0.53224 0.71011 0.34754 0.0
H1647 H 0.4923 0.70593 0.33251 0.0
C1648 C 0.40125 0.19914 0.16281 0.0
C1649 C 0.41346 0.20924 0.13396 0.0
C1650 C 0.41186 0.26825 0.15015 0.0
C1651 C 0.40257 0.25782 0.17971 0.0
N1652 N 0.3796 0.21536 0.21225 0.0
N1653 N 0.41774 0.25414 0.09717 0.0
C1654 C 0.39445 0.22379 0.1854 0.0
C1655 C 0.41423 0.24402 0.12651 0.0
N1656 N 0.39632 0.16578 0.16847 0.0
N1657 N 0.42096 0.30084 0.14508 0.0
H1658 H 0.41927 0.23769 0.07906 0.0
H1659 H 0.41541 0.27904 0.09028 0.0
H1660 H 0.41955 0.31943 0.16156 0.0
H1661 H 0.43241 0.30903 0.12523 0.0
H1662 H 0.39167 0.1558 0.1898 0.0
H1663 H 0.39723 0.14773 0.15141 0.0
H1664 H 0.37062 0.19157 0.2174 0.0
H1665 H 0.37377 0.23312 0.22879 0.0
C1666 C 0.55947 0.68182 0.89971 0.0
C1667 C 0.56728 0.65527 0.92001 0.0
C1668 C 0.61861 0.64262 0.89117 0.0
C1669 C 0.61347 0.67218 0.87383 0.0
N1670 N 0.57779 0.71822 0.85877 0.0
N1671 N 0.60281 0.6092 0.93504 0.0
C1672 C 0.5832 0.69098 0.87694 0.0
C1673 C 0.59621 0.63497 0.91543 0.0
N1674 N 0.52925 0.69815 0.90235 0.0
N1675 N 0.64474 0.62172 0.8839 0.0
H1676 H 0.58613 0.60226 0.95216 0.0
H1677 H 0.62512 0.59549 0.93521 0.0
H1678 H 0.66078 0.6266 0.86574 0.0
H1679 H 0.6489 0.5984 0.89387 0.0
H1680 H 0.52048 0.71624 0.8873 0.0
H1681 H 0.51153 0.69208 0.91886 0.0
H1682 H 0.55861 0.7357 0.86189 0.0
H1683 H 0.59289 0.72354 0.84019 0.0
C1684 C 0.18659 0.86318 0.68554 0.0
C1685 C 0.18495 0.82816 0.67986 0.0
C1686 C 0.17482 0.83978 0.62576 0.0
C1687 C 0.17387 0.87491 0.63206 0.0
N1688 N 0.19191 0.91937 0.66481 0.0
N1689 N 0.18523 0.78291 0.64363 0.0
C1690 C 0.18374 0.88635 0.66108 0.0
C1691 C 0.18194 0.81643 0.64961 0.0
N1692 N 0.19063 0.87442 0.71447 0.0
N1693 N 0.16676 0.82835 0.5976 0.0
H1694 H 0.18785 0.76466 0.6603 0.0
H1695 H 0.18769 0.77308 0.62196 0.0
H1696 H 0.16373 0.84379 0.57891 0.0
H1697 H 0.16147 0.8034 0.59274 0.0
H1698 H 0.18726 0.89938 0.72078 0.0
H1699 H 0.19614 0.85849 0.73256 0.0
H1700 H 0.20217 0.92903 0.68457 0.0
H1701 H 0.19204 0.93642 0.64687 0.0
C1702 C 0.95048 0.43257 0.41068 0.0
C1703 C 0.95837 0.41502 0.38357 0.0
C1704 C 1.01799 0.414 0.39883 0.0
C1705 C 1.00891 0.42616 0.42782 0.0
N1706 N 0.9662 0.44578 0.46227 0.0
N1707 N 1.00046 0.38827 0.35202 0.0
C1708 C 0.97515 0.43558 0.43388 0.0
C1709 C 0.99246 0.40602 0.37743 0.0
N1710 N 0.91953 0.44719 0.41389 0.0
N1711 N 0.05127 0.41068 0.39159 0.0
H1712 H 0.98331 0.3827 0.33516 0.0
H1713 H 1.02379 0.37697 0.34846 0.0
H1714 H 0.07048 0.41646 0.40672 0.0
H1715 H 0.05996 0.40542 0.36989 0.0
H1716 H 0.91324 0.46317 0.43164 0.0
H1717 H 0.90116 0.44612 0.39714 0.0
H1718 H 0.94136 0.4489 0.46921 0.0
H1719 H 0.98354 0.449 0.47965 0.0
C1720 C 0.43455 0.84134 0.47217 0.0
C1721 C 0.42569 0.87579 0.46771 0.0
C1722 C 0.39596 0.86044 0.42076 0.0
C1723 C 0.40876 0.82727 0.42313 0.0
N1724 N 0.44071 0.78559 0.4504 0.0
N1725 N 0.39601 0.91796 0.43889 0.0
C1726 C 0.42761 0.8174 0.44895 0.0
C1727 C 0.40566 0.88517 0.44236 0.0
N1728 N 0.45019 0.83143 0.49823 0.0
N1729 N 0.37353 0.86786 0.39828 0.0
H1730 H 0.39937 0.93603 0.45561 0.0
H1731 H 0.38544 0.92769 0.41923 0.0
H1732 H 0.36563 0.85013 0.38253 0.0
H1733 H 0.36054 0.8905 0.39652 0.0
H1734 H 0.45349 0.80651 0.50465 0.0
H1735 H 0.45824 0.84781 0.51488 0.0
H1736 H 0.45699 0.77715 0.46713 0.0
H1737 H 0.4368 0.76748 0.43386 0.0
C1738 C 1.00027 0.66043 0.2286 0.0
C1739 C 0.9655 0.65383 0.22338 0.0
C1740 C 0.97985 0.62708 0.1749 0.0
C1741 C 1.01388 0.63588 0.17927 0.0
N1742 N 0.05819 0.65002 0.21349 0.0
N1743 N 0.92464 0.62012 0.19739 0.0
C1744 C 1.02456 0.64885 0.20733 0.0
C1745 C 0.95613 0.63357 0.19836 0.0
N1746 N 1.01028 0.67952 0.25253 0.0
N1747 N 0.96984 0.6143 0.14777 0.0
H1748 H 0.90723 0.62354 0.21479 0.0
H1749 H 0.91709 0.60286 0.18116 0.0
H1750 H 0.98679 0.60812 0.13062 0.0
H1751 H 0.94475 0.61136 0.14175 0.0
H1752 H 1.03436 0.68935 0.25456 0.0
H1753 H 0.99446 0.68743 0.26974 0.0
H1754 H 0.06792 0.65605 0.23461 0.0
H1755 H 0.07631 0.64148 0.19818 0.0
C1756 C 0.19826 0.23656 0.93671 0.0
C1757 C 0.17664 0.26296 0.92734 0.0
C1758 C 0.13443 0.24549 0.96444 0.0
C1759 C 0.15586 0.2189 0.97422 0.0
N1760 N 0.21078 0.19314 0.97382 0.0
N1761 N 0.12926 0.29874 0.93818 0.0
C1762 C 0.18876 0.21588 0.96179 0.0
C1763 C 0.14637 0.26937 0.94316 0.0
N1764 N 0.22718 0.23052 0.92089 0.0
N1765 N 0.1021 0.24733 0.97458 0.0
H1766 H 0.1376 0.31702 0.92303 0.0
H1767 H 0.10882 0.30657 0.95114 0.0
H1768 H 0.09253 0.23064 0.99031 0.0
H1769 H 0.0841 0.26365 0.96573 0.0
H1770 H 0.24236 0.20948 0.92417 0.0
H1771 H 0.23516 0.24598 0.90323 0.0
H1772 H 0.23604 0.19163 0.96781 0.0
H1773 H 0.20428 0.17733 0.99164 0.0
C1774 C 0.59281 0.42612 0.7335 0.0
C1775 C 0.62707 0.42399 0.72391 0.0
C1776 C 0.60889 0.43155 0.6713 0.0
C1777 C 0.5749 0.43536 0.68085 0.0
N1778 N 0.53696 0.44713 0.72213 0.0
N1779 N 0.66708 0.43882 0.68508 0.0
C1780 C 0.56763 0.43605 0.7123 0.0
C1781 C 0.63488 0.43119 0.69325 0.0
N1782 N 0.58351 0.41698 0.76209 0.0
N1783 N 0.61678 0.42626 0.64161 0.0
H1784 H 0.68642 0.44123 0.70081 0.0
H1785 H 0.67347 0.44702 0.66343 0.0
H1786 H 0.59909 0.42443 0.62445 0.0
H1787 H 0.64097 0.41987 0.6345 0.0
H1788 H 0.55848 0.41421 0.76855 0.0
H1789 H 0.60011 0.40872 0.77862 0.0
H1790 H 0.53143 0.45125 0.74486 0.0
H1791 H 0.51844 0.45605 0.70749 0.0
C1792 C 0.05104 0.25864 0.35026 0.0
C1793 C 0.06735 0.26738 0.32285 0.0
C1794 C 1.02033 0.3042 0.30905 0.0
C1795 C 1.00385 0.29483 0.33636 0.0
N1796 N 0.99872 0.25582 0.37788 0.0
N1797 N 0.06534 0.29216 0.27331 0.0
C1798 C 1.01772 0.26966 0.35529 0.0
C1799 C 0.05114 0.288 0.30119 0.0
N1800 N 0.06791 0.2412 0.37222 0.0
N1801 N 1.00788 0.32972 0.29162 0.0
H1802 H 0.08811 0.28086 0.2673 0.0
H1803 H 0.05332 0.3043 0.25545 0.0
H1804 H 0.98528 0.34196 0.29613 0.0
H1805 H 1.021 0.34025 0.27359 0.0
H1806 H 0.0586 0.23774 0.39403 0.0
H1807 H 0.09238 0.23227 0.36952 0.0
H1808 H 1.00638 0.23502 0.39046 0.0
H1809 H 0.97379 0.26274 0.38185 0.0
C1810 C 0.08017 0.80781 0.59899 0.0
C1811 C 0.07429 0.82432 0.57102 0.0
C1812 C 1.03947 0.77745 0.55416 0.0
C1813 C 0.04608 0.76086 0.58207 0.0
N1814 N 0.08156 0.75511 0.62591 0.0
N1815 N 0.05509 0.8223 0.51954 0.0
C1816 C 0.06932 0.77443 0.60278 0.0
C1817 C 0.05642 0.80808 0.54764 0.0
N1818 N 0.09476 0.82441 0.62255 0.0
N1819 N 1.01565 0.76543 0.53488 0.0
H1820 H 0.06673 0.84506 0.51451 0.0
H1821 H 0.04507 0.81026 0.50076 0.0
H1822 H 1.00268 0.7432 0.53858 0.0
H1823 H 1.00706 0.77865 0.51607 0.0
H1824 H 0.09558 0.81486 0.64449 0.0
H1825 H 0.10418 0.84867 0.62079 0.0
H1826 H 0.10107 0.76272 0.63997 0.0
H1827 H 0.07491 0.73004 0.62889 0.0
C1828 C 0.54558 0.81834 0.84479 0.0
C1829 C 0.52818 0.81661 0.81679 0.0
C1830 C 0.58124 0.80208 0.79109 0.0
C1831 C 0.59749 0.80043 0.81953 0.0
N1832 N 0.59379 0.80107 0.87407 0.0
N1833 N 0.52835 0.80205 0.76382 0.0
C1834 C 0.57927 0.80688 0.84653 0.0
C1835 C 0.54575 0.80746 0.78995 0.0
N1836 N 0.53038 0.83213 0.86964 0.0
N1837 N 0.59976 0.79857 0.76523 0.0
H1838 H 0.50237 0.80496 0.7622 0.0
H1839 H 0.53916 0.79195 0.74439 0.0
H1840 H 0.62553 0.79357 0.76546 0.0
H1841 H 0.59016 0.80293 0.74369 0.0
H1842 H 0.54305 0.83738 0.88965 0.0
H1843 H 0.50601 0.84175 0.86952 0.0
H1844 H 0.58044 0.80116 0.89435 0.0
H1845 H 0.61849 0.79293 0.87659 0.0
C1846 C 0.50841 0.27617 0.11019 0.0
C1847 C 0.51232 0.25958 0.08198 0.0
C1848 C 0.54855 0.30489 0.06379 0.0
C1849 C 0.54386 0.32165 0.09186 0.0
N1850 N 0.51181 0.32818 0.13787 0.0
N1851 N 0.52979 0.26117 1.02975 0.0
C1852 C 0.52139 0.30881 0.11379 0.0
C1853 C 0.52995 0.27518 0.05791 0.0
N1854 N 0.4934 0.26033 0.13407 0.0
N1855 N 0.57237 0.31565 1.04375 0.0
H1856 H 0.51772 0.23868 1.02491 0.0
H1857 H 0.53919 0.27324 1.01064 0.0
H1858 H 0.58702 0.33682 1.04714 0.0
H1859 H 0.57964 0.30204 1.02475 0.0
H1860 H 0.4942 0.26933 0.15615 0.0
H1861 H 0.48169 0.23713 0.13238 0.0
H1862 H 0.49274 0.32149 0.15284 0.0
H1863 H 0.52034 0.35257 0.14116 0.0
C1864 C 1.01261 0.79795 0.24694 0.0
C1865 C 0.99905 0.77312 0.26617 0.0
C1866 C 0.05105 0.77217 0.29559 0.0
C1867 C 0.06662 0.79182 0.27275 0.0
N1868 N 0.06262 0.82183 0.22509 0.0
N1869 N 1.00283 0.73852 0.31053 0.0
C1870 C 0.04739 0.80504 0.24833 0.0
C1871 C 1.0173 0.76128 0.29147 0.0
N1872 N 0.99202 0.81409 0.22684 0.0
N1873 N 0.06869 0.76404 0.32108 0.0
H1874 H 0.97767 0.73157 0.30859 0.0
H1875 H 1.01571 0.72578 0.32752 0.0
H1876 H 0.09337 0.77188 0.32454 0.0
H1877 H 0.0583 0.75189 0.33969 0.0
H1878 H 0.99957 0.83413 0.21337 0.0
H1879 H 0.9663 0.80929 0.22576 0.0
H1880 H 0.05059 0.82778 0.20488 0.0
H1881 H 0.08797 0.82793 0.22476 0.0
C1882 C 0.57218 0.78492 0.53693 0.0
C1883 C 0.56406 0.76942 0.50898 0.0
C1884 C 0.5389 0.82169 0.49066 0.0
C1885 C 0.54568 0.83707 0.51899 0.0
N1886 N 0.56213 0.83157 0.57112 0.0
N1887 N 0.52976 0.76978 0.46401 0.0
C1888 C 0.56028 0.81809 0.5428 0.0
C1889 C 0.54426 0.7868 0.48738 0.0
N1890 N 0.59235 0.7687 0.55727 0.0
N1891 N 0.52923 0.84042 0.46618 0.0
H1892 H 0.53117 0.74377 0.46184 0.0
H1893 H 0.51318 0.78085 0.44875 0.0
H1894 H 0.52557 0.86624 0.46663 0.0
H1895 H 0.52801 0.83076 0.44436 0.0
H1896 H 0.60242 0.78028 0.57626 0.0
H1897 H 0.60095 0.7442 0.55427 0.0
H1898 H 0.56939 0.81792 0.59014 0.0
H1899 H 0.55344 0.8557 0.5761 0.0
C1900 C 0.51818 0.31471 0.73126 0.0
C1901 C 0.51099 0.29064 0.75398 0.0
C1902 C 0.55844 0.31095 0.78363 0.0
C1903 C 0.56989 0.32876 0.7578 0.0
N1904 N 0.5607 0.34804 0.7066 0.0
N1905 N 0.52346 0.26594 0.80254 0.0
C1906 C 0.54947 0.33131 0.73169 0.0
C1907 C 0.53064 0.289 0.78062 0.0
N1908 N 0.4947 0.32236 0.70978 0.0
N1909 N 0.5729 0.31637 0.81114 0.0
H1910 H 0.50257 0.25031 0.80156 0.0
H1911 H 0.53932 0.26101 0.82074 0.0
H1912 H 0.59118 0.33467 0.8144 0.0
H1913 H 0.5639 0.30596 0.83117 0.0
H1914 H 0.49729 0.34199 0.69437 0.0
H1915 H 0.4709 0.31165 0.70962 0.0
H1916 H 0.54856 0.34722 0.68579 0.0
H1917 H 0.58342 0.36094 0.70586 0.0
C1918 C 1.02843 0.3083 0.07331 0.0
C1919 C 1.00555 0.31902 1.05054 0.0
C1920 C 0.99547 0.26043 1.03621 0.0
C1921 C 1.02198 0.25027 0.05563 0.0
N1922 N 0.06233 0.26274 0.09416 0.0
N1923 N 0.96658 0.30588 1.0107 0.0
C1924 C 1.03773 0.27369 0.07497 0.0
C1925 C 0.98854 0.29516 1.03243 0.0
N1926 N 1.0418 0.33121 0.09281 0.0
N1927 N 0.97682 0.23691 1.02134 0.0
H1928 H 0.95816 0.3306 1.00923 0.0
H1929 H 0.95794 0.29078 0.99323 0.0
H1930 H 0.98143 0.21123 1.02274 0.0
H1931 H 0.95493 0.24243 1.00947 0.0
H1932 H 0.05615 0.32487 0.11161 0.0
H1933 H 1.03708 0.35688 0.09134 0.0
H1934 H 0.07785 0.27843 0.10659 0.0
H1935 H 0.06776 0.23729 0.09711 0.0
C1936 C 0.0493 0.78454 0.77995 0.0
C1937 C 0.06345 0.76828 0.75422 0.0
C1938 C 1.01015 0.77586 0.72764 0.0
C1939 C 0.99975 0.79937 0.74979 0.0
N1940 N 1.00871 0.8255 0.79818 0.0
N1941 N 0.05683 0.74867 0.7028 0.0
C1942 C 1.01891 0.80333 0.77652 0.0
C1943 C 0.0435 0.7635 0.72804 0.0
N1944 N 0.06347 0.7804 0.80778 0.0
N1945 N 0.98783 0.76488 0.70647 0.0
H1946 H 0.08112 0.73876 0.7018 0.0
H1947 H 0.04454 0.7483 0.68204 0.0
H1948 H 0.96276 0.77249 0.70646 0.0
H1949 H 0.99304 0.74545 0.69142 0.0
H1950 H 0.05279 0.78985 0.82754 0.0
H1951 H 0.08316 0.7636 0.81168 0.0
H1952 H 1.02377 0.83236 0.81637 0.0
H1953 H 0.98587 0.83836 0.79706 0.0
C1954 C 0.06552 0.30089 0.5632 0.0
C1955 C 0.06831 0.31878 0.53561 0.0
C1956 C 1.03742 0.27521 0.50917 0.0
C1957 C 1.03682 0.25563 0.53605 0.0
N1958 N 0.05455 0.24742 0.58772 0.0
N1959 N 0.06614 0.31837 0.48111 0.0
C1960 C 0.05192 0.26781 0.56296 0.0
C1961 C 0.05703 0.30454 0.50822 0.0
N1962 N 0.07517 0.31577 0.58956 0.0
N1963 N 1.01827 0.26658 0.48476 0.0
H1964 H 0.08173 0.33926 0.47941 0.0
H1965 H 0.06146 0.30689 0.4604 0.0
H1966 H 1.00239 0.24587 0.48454 0.0
H1967 H 1.01527 0.28207 0.46594 0.0
H1968 H 0.07042 0.30563 0.61085 0.0
H1969 H 0.08629 0.33943 0.59015 0.0
H1970 H 0.06826 0.25363 0.60691 0.0
H1971 H 0.04505 0.2231 0.58829 0.0
C1972 C 0.5328 0.31036 0.2946 0.0
C1973 C 0.52393 0.31269 0.2634 0.0
C1974 C 0.58309 0.30451 0.25076 0.0
C1975 C 0.58996 0.29293 0.2804 0.0
N1976 N 0.57025 0.28464 0.33135 0.0
N1977 N 0.54162 0.30085 0.21179 0.0
C1978 C 0.56438 0.29571 0.30263 0.0
C1979 C 0.54933 0.30683 0.24136 0.0
N1980 N 0.51232 0.32348 0.31643 0.0
N1981 N 0.60823 0.31328 0.2314 0.0
H1982 H 0.5172 0.29676 0.2043 0.0
H1983 H 0.55992 0.2947 0.19577 0.0
H1984 H 0.63299 0.31596 0.2384 0.0
H1985 H 0.60344 0.32304 0.20991 0.0
H1986 H 0.51911 0.32435 0.33915 0.0
H1987 H 0.49073 0.33732 0.31154 0.0
H1988 H 0.55134 0.28276 0.3476 0.0
H1989 H 0.59382 0.27598 0.33829 0.0
C1990 C 0.53675 0.81033 0.99851 0.0
C1991 C 0.54174 0.82694 1.02649 0.0
C1992 C 0.5359 0.77359 0.05354 0.0
C1993 C 0.53357 0.75674 1.02546 0.0
N1994 N 0.53852 0.75823 0.97092 0.0
N1995 N 0.54649 0.82375 0.08117 0.0
C1996 C 0.5357 0.77487 0.99784 0.0
C1997 C 0.54139 0.8086 0.05401 0.0
N1998 N 0.5316 0.82849 0.97264 0.0
N1999 N 0.53298 0.75626 0.08009 0.0
H2000 H 0.55119 0.84932 0.08379 0.0
H2001 H 0.55119 0.84932 0.08379 0.0
H2002 H 0.52828 0.73054 0.08101 0.0
H2003 H 0.53453 0.76795 0.10114 0.0
H2004 H 0.52414 0.81793 0.95223 0.0
H2005 H 0.53139 0.85456 0.97211 0.0
H2006 H 0.54444 0.76998 0.95056 0.0
H2007 H 0.53829 0.73224 0.96911 0.0
C2008 C 1.02381 0.29994 0.84674 0.0
C2009 C 1.00776 0.29029 0.81957 0.0
C2010 C 0.06204 0.29114 0.79322 0.0
C2011 C 0.07827 0.2968 0.82129 0.0
N2012 N 0.07481 0.29882 0.87591 0.0
N2013 N 1.0114 0.27314 0.76745 0.0
C2014 C 0.05923 0.29908 0.84838 0.0
C2015 C 1.0268 0.28496 0.79285 0.0
N2016 N 1.00532 0.31124 0.87073 0.0
N2017 N 0.08004 0.29283 0.76692 0.0
H2018 H 0.98561 0.26879 0.76638 0.0
H2019 H 1.02444 0.26535 0.74825 0.0
H2020 H 0.1058 0.29756 0.76641 0.0
H2021 H 0.06907 0.29234 0.74559 0.0
H2022 H 1.01598 0.32214 0.88981 0.0
H2023 H 0.97926 0.31312 0.87026 0.0
H2024 H 0.06188 0.29722 0.89635 0.0
H2025 H 0.10069 0.2965 0.87845 0.0
C2026 C 0.56549 0.32465 0.60625 0.0
C2027 C 0.54 0.3367 0.58679 0.0
C2028 C 0.54769 0.28724 0.5545 0.0
C2029 C 0.56779 0.27242 0.57746 0.0
N2030 N 0.59361 0.27614 0.62687 0.0
N2031 N 0.50707 0.33087 0.54157 0.0
C2032 C 0.57647 0.29103 0.60363 0.0
C2033 C 0.53159 0.31874 0.56024 0.0
N2034 N 0.57916 0.34553 0.62733 0.0
N2035 N 0.54345 0.27085 0.52771 0.0
H2036 H 0.49571 0.35424 0.54487 0.0
H2037 H 0.49697 0.31733 0.52371 0.0
H2038 H 0.55444 0.24751 0.52335 0.0
H2039 H 0.53133 0.28137 0.50911 0.0
H2040 H 0.60013 0.33918 0.64026 0.0
H2041 H 0.57157 0.37049 0.62961 0.0
H2042 H 0.59681 0.28737 0.64792 0.0
H2043 H 0.60284 0.25166 0.62597 0.0
C2044 C 0.52258 0.80431 0.34668 0.0
C2045 C 0.50599 0.79723 0.31906 0.0
C2046 C 0.55843 0.80689 0.29114 0.0
C2047 C 0.57413 0.81679 0.31851 0.0
N2048 N 0.56856 0.83234 0.3712 0.0
N2049 N 0.50631 0.79583 0.26459 0.0
C2050 C 0.5555 0.81748 0.34597 0.0
C2051 C 0.52333 0.80001 0.29111 0.0
N2052 N 0.50707 0.79855 0.37382 0.0
N2053 N 0.5773 0.80211 0.26563 0.0
H2054 H 0.48108 0.7889 0.26376 0.0
H2055 H 0.51656 0.80132 0.24348 0.0
H2056 H 0.60317 0.80591 0.26486 0.0
H2057 H 0.56791 0.79152 0.2459 0.0
H2058 H 0.51984 0.79849 0.39434 0.0
H2059 H 0.48214 0.79129 0.37605 0.0
H2060 H 0.55469 0.8369 0.39076 0.0
H2061 H 0.59205 0.84365 0.37178 0.0
C2062 C 0.05704 0.79956 0.1069 0.0
C2063 C 1.03509 0.81483 0.08572 0.0
C2064 C 0.04563 0.76847 1.05041 0.0
C2065 C 0.06201 0.75072 0.07395 0.0
N2066 N 0.08045 0.74807 0.12612 0.0
N2067 N 1.00765 0.81393 1.03702 0.0
C2068 C 0.06698 0.76591 0.1026 0.0
C2069 C 1.02952 0.79963 0.0571 0.0
N2070 N 0.06967 0.81766 0.13051 0.0
N2071 N 0.04516 0.75535 1.0219 0.0
H2072 H 0.99574 0.83688 1.0408 0.0
H2073 H 0.99959 0.80209 1.01739 0.0
H2074 H 0.05617 0.73225 1.01666 0.0
H2075 H 1.03641 0.76845 1.00309 0.0
H2076 H 0.08843 0.80859 0.14481 0.0
H2077 H 0.06449 0.84307 0.13366 0.0
H2078 H 0.08028 0.7567 0.14835 0.0
H2079 H 0.09021 0.72391 0.12393 0.0
C2080 C 0.1388 0.20804 0.15886 0.0
C2081 C 0.13387 0.17356 0.1516 0.0
C2082 C 0.13905 0.15969 0.20548 0.0
C2083 C 0.1492 0.19292 0.21209 0.0
N2084 N 0.16383 0.24794 0.19346 0.0
N2085 N 0.14047 0.11583 0.16824 0.0
C2086 C 0.15035 0.21702 0.18837 0.0
C2087 C 0.13698 0.14913 0.17497 0.0
N2088 N 0.13159 0.23238 0.13807 0.0
N2089 N 0.13048 0.13823 0.22831 0.0
H2090 H 0.143 0.10685 0.14625 0.0
H2091 H 0.14558 0.0977 0.18466 0.0
H2092 H 0.12983 0.1455 0.25095 0.0
H2093 H 0.12024 0.11461 0.22433 0.0
H2094 H 0.13143 0.25789 0.14322 0.0
H2095 H 0.1226 0.22709 0.11654 0.0
H2096 H 0.1686 0.26513 0.17622 0.0
H2097 H 0.17312 0.25528 0.21443 0.0
C2098 C 0.181 0.91817 0.44151 0.0
C2099 C 0.14897 0.92181 0.45518 0.0
C2100 C 0.12264 0.90572 0.40714 0.0
C2101 C 0.15429 0.90829 0.39228 0.0
N2102 N 0.21345 0.92224 0.39555 0.0
N2103 N 0.08882 0.91924 0.45142 0.0
C2104 C 0.18359 0.91536 0.40955 0.0
C2105 C 0.1196 0.91534 0.43815 0.0
N2106 N 0.2091 0.91759 0.45914 0.0
N2107 N 0.09567 0.89348 0.3917 0.0
H2108 H 0.08599 0.92441 0.47441 0.0
H2109 H 0.0663 0.91888 0.43948 0.0
H2110 H 0.09737 0.88553 0.36928 0.0
H2111 H 0.07263 0.88823 0.40179 0.0
H2112 H 0.23297 0.91179 0.45087 0.0
H2113 H 0.20783 0.91912 0.48258 0.0
H2114 H 0.23429 0.93151 0.40698 0.0
H2115 H 0.21685 0.92205 0.37224 0.0
C2116 C 0.39181 0.931 0.68946 0.0
C2117 C 0.40769 0.9026 0.70285 0.0
C2118 C 0.44683 0.89989 0.65952 0.0
C2119 C 0.42893 0.92644 0.64514 0.0
N2120 N 0.3793 0.96174 0.64378 0.0
N2121 N 0.44754 0.8571 0.6989 0.0
C2122 C 0.4 0.94038 0.65936 0.0
C2123 C 0.43451 0.88623 0.68739 0.0
N2124 N 0.37 0.95035 0.70592 0.0
N2125 N 0.47623 0.88854 0.64712 0.0
H2126 H 0.43915 0.84654 0.71914 0.0
H2127 H 0.46468 0.84201 0.68734 0.0
H2128 H 0.4858 0.89784 0.62681 0.0
H2129 H 0.4924 0.87182 0.65797 0.0
H2130 H 0.36112 0.97362 0.69856 0.0
H2131 H 0.36328 0.9451 0.72814 0.0
H2132 H 0.35576 0.96923 0.65172 0.0
H2133 H 0.38383 0.96942 0.62167 0.0
C2134 C 0.38 0.14833 0.91617 0.0
C2135 C 0.39992 0.17321 0.90174 0.0
C2136 C 0.43863 0.17231 0.94528 0.0
C2137 C 0.41706 0.1495 0.96055 0.0
N2138 N 0.36311 0.12194 0.96283 0.0
N2139 N 0.44584 0.21221 0.90403 0.0
C2140 C 0.38664 0.13927 0.94662 0.0
C2141 C 0.42867 0.18611 0.91671 0.0
N2142 N 0.35552 0.13195 0.90044 0.0
N2143 N 0.46915 0.17984 0.95757 0.0
H2144 H 0.43927 0.22269 0.88322 0.0
H2145 H 0.46484 0.22516 0.91507 0.0
H2146 H 0.47707 0.17035 0.97838 0.0
H2147 H 0.4876 0.19339 0.94625 0.0
H2148 H 0.34352 0.11055 0.90854 0.0
H2149 H 0.34917 0.13753 0.87821 0.0
H2150 H 0.33879 0.11773 0.95509 0.0
H2151 H 0.36649 0.11457 0.98516 0.0
C2152 C 0.95423 0.90312 0.93783 0.0
C2153 C 0.93663 0.92933 0.95296 0.0
C2154 C 0.90115 0.93769 0.90808 0.0
C2155 C 0.91657 0.90957 0.89391 0.0
N2156 N 0.95578 0.86343 0.89601 0.0
N2157 N 0.8894 0.96781 0.95418 0.0
C2158 C 0.94274 0.89179 0.90892 0.0
C2159 C 0.90915 0.94566 0.93849 0.0
N2160 N 0.98246 0.88975 0.95075 0.0
N2161 N 0.87953 0.95775 0.89212 0.0
H2162 H 0.89443 0.97548 0.97614 0.0
H2163 H 0.86631 0.97659 0.94634 0.0
H2164 H 0.87214 0.95267 0.8701 0.0
H2165 H 0.87118 0.98109 0.89972 0.0
H2166 H 0.99852 0.87302 0.9398 0.0
H2167 H 0.99128 0.89734 0.97184 0.0
H2168 H 0.9723 0.84717 0.90698 0.0
H2169 H 0.94829 0.85487 0.8748 0.0
C2170 C 0.88781 0.17358 0.65345 0.0
C2171 C 0.91828 0.18675 0.64182 0.0
C2172 C 0.93068 0.21035 0.69208 0.0
C2173 C 0.90164 0.19439 0.7042 0.0
N2174 N 0.8582 0.15278 0.69716 0.0
N2175 N 0.97117 0.21388 0.6508 0.0
C2176 C 0.88183 0.17373 0.68509 0.0
C2177 C 0.94058 0.20385 0.66144 0.0
N2178 N 0.86386 0.16167 0.63424 0.0
N2179 N 0.94778 0.23304 0.70921 0.0
H2180 H 0.97863 0.21025 0.6284 0.0
H2181 H 0.99001 0.22343 0.66459 0.0
H2182 H 0.94074 0.23921 0.73122 0.0
H2183 H 0.96709 0.24793 0.7008 0.0
H2184 H 0.83965 0.15543 0.64123 0.0
H2185 H 0.86696 0.1612 0.61092 0.0
H2186 H 0.84582 0.1346 0.68452 0.0
H2187 H 0.85361 0.15063 0.72025 0.0
C2188 C 0.63405 0.18338 0.44712 0.0
C2189 C 0.64921 0.15543 0.46189 0.0
C2190 C 0.68009 0.14183 0.41537 0.0
C2191 C 0.66799 0.17173 0.40157 0.0
N2192 N 0.63556 0.22279 0.40498 0.0
N2193 N 0.69198 0.11202 0.46166 0.0
C2194 C 0.64533 0.19296 0.41757 0.0
C2195 C 0.67358 0.13569 0.44642 0.0
N2196 N 0.60834 0.20019 0.46104 0.0
N2197 N 0.69694 0.11845 0.39851 0.0
H2198 H 0.68864 0.10652 0.48447 0.0
H2199 H 0.71293 0.10002 0.45242 0.0
H2200 H 0.70191 0.12162 0.37563 0.0
H2201 H 0.70285 0.09449 0.4064 0.0
H2202 H 0.59387 0.21861 0.45047 0.0
H2203 H 0.59975 0.19391 0.48262 0.0
H2204 H 0.62204 0.24113 0.41659 0.0
H2205 H 0.64293 0.23022 0.38334 0.0
C2206 C 0.68697 0.93191 0.18992 0.0
C2207 C 0.68196 0.90125 0.2057 0.0
C2208 C 0.65113 0.87926 0.16184 0.0
C2209 C 0.6606 0.90791 0.14468 0.0
N2210 N 0.68987 0.961 0.14212 0.0
N2211 N 0.65981 0.84518 0.20694 0.0
C2212 C 0.67864 0.93434 0.15876 0.0
C2213 C 0.66373 0.87489 0.19189 0.0
N2214 N 0.69912 0.95921 0.20492 0.0
N2215 N 0.62958 0.85654 0.14945 0.0
H2216 H 0.66819 0.84144 0.22903 0.0
H2217 H 0.6501 0.82362 0.1971 0.0
H2218 H 0.61973 0.85941 0.12774 0.0
H2219 H 0.61912 0.83662 0.16139 0.0
H2220 H 0.69911 0.9834 0.19596 0.0
H2221 H 0.70642 0.95837 0.22745 0.0
H2222 H 0.7077 0.97793 0.14994 0.0
H2223 H 0.68313 0.96548 0.11983 0.0
C2224 C 0.62358 0.68194 0.65718 0.0
C2225 C 0.6378 0.65147 0.64614 0.0
C2226 C 0.65329 0.63559 0.69794 0.0
C2227 C 0.64194 0.66723 0.70877 0.0
N2228 N 0.62042 0.7226 0.69813 0.0
N2229 N 0.67544 0.60478 0.65532 0.0
C2230 C 0.62851 0.69115 0.68814 0.0
C2231 C 0.65529 0.62986 0.66633 0.0
N2232 N 0.60411 0.70129 0.63856 0.0
N2233 N 0.6616 0.61053 0.71771 0.0
H2234 H 0.67949 0.60095 0.63228 0.0
H2235 H 0.69135 0.59049 0.66898 0.0
H2236 H 0.65992 0.61312 0.74104 0.0
H2237 H 0.66673 0.58601 0.71088 0.0
H2238 H 0.59027 0.72193 0.646 0.0
H2239 H 0.59955 0.69513 0.61605 0.0
H2240 H 0.61384 0.74228 0.68375 0.0
H2241 H 0.62258 0.72965 0.72075 0.0
C2242 C 0.64009 0.39746 0.91009 0.0
C2243 C 0.65305 0.42312 0.8911 0.0
C2244 C 0.66296 0.45816 0.93559 0.0
C2245 C 0.6456 0.43486 0.95417 0.0
N2246 N 0.61405 0.38349 0.95827 0.0
N2247 N 0.66896 0.48128 0.88553 0.0
C2248 C 0.63336 0.4046 0.94127 0.0
C2249 C 0.66213 0.45447 0.90376 0.0
N2250 N 0.63418 0.36637 0.89837 0.0
N2251 N 0.68175 0.48304 0.94827 0.0
H2252 H 0.66683 0.48036 0.86212 0.0
H2253 H 0.67274 0.50544 0.89382 0.0
H2254 H 0.6851 0.48541 0.97153 0.0
H2255 H 0.69738 0.49865 0.93564 0.0
H2256 H 0.62798 0.34563 0.91157 0.0
H2257 H 0.63789 0.3608 0.87555 0.0
H2258 H 0.6016 0.36283 0.94937 0.0
H2259 H 0.60817 0.38814 0.98085 0.0
C2260 C 0.96014 0.40953 0.16601 0.0
C2261 C 0.93185 0.41983 0.1488 0.0
C2262 C 0.89661 0.41832 0.1945 0.0
C2263 C 0.92469 0.4075 0.21193 0.0
N2264 N 0.98116 0.38544 0.21298 0.0
N2265 N 0.87165 0.42348 0.14486 0.0
C2266 C 0.95587 0.40077 0.19721 0.0
C2267 C 0.89963 0.42075 0.16253 0.0
N2268 N 0.99124 0.40938 0.15288 0.0
N2269 N 0.86765 0.42874 0.20837 0.0
H2270 H 0.87295 0.42432 0.12137 0.0
H2271 H 0.84728 0.42096 0.1532 0.0
H2272 H 0.86398 0.42827 0.23163 0.0
H2273 H 0.8482 0.44087 0.19692 0.0
H2274 H 1.01346 0.40595 0.1649 0.0
H2275 H 0.9949 0.41451 0.12997 0.0
H2276 H 1.00343 0.37709 0.20308 0.0
H2277 H 0.97853 0.37826 0.23556 0.0
C2278 C 0.93357 0.62308 0.43304 0.0
C2279 C 0.95048 0.64579 0.4524 0.0
C2280 C 0.95978 0.68338 0.40887 0.0
C2281 C 0.9465 0.6586 0.38926 0.0
N2282 N 0.92767 0.60154 0.38239 0.0
N2283 N 0.98372 0.69581 0.45811 0.0
C2284 C 0.93562 0.62742 0.40125 0.0
C2285 C 0.96458 0.67563 0.44018 0.0
N2286 N 0.91378 0.59837 0.44494 0.0
N2287 N 0.96771 0.71429 0.39759 0.0
H2288 H 0.98814 0.69069 0.48089 0.0
H2289 H 0.99746 0.71605 0.4499 0.0
H2290 H 0.96574 0.72022 0.37467 0.0
H2291 H 0.97411 0.73461 0.41114 0.0
H2292 H 0.89822 0.58336 0.4318 0.0
H2293 H 0.90966 0.59549 0.46808 0.0
H2294 H 0.92282 0.57731 0.3901 0.0
H2295 H 0.92943 0.6032 0.35897 0.0
C2296 C 0.3992 0.41914 0.44141 0.0
C2297 C 0.43082 0.41734 0.45602 0.0
C2298 C 0.45592 0.39555 0.40914 0.0
C2299 C 0.42576 0.4033 0.39333 0.0
N2300 N 0.36942 0.42684 0.39451 0.0
N2301 N 0.48994 0.40444 0.454 0.0
C2302 C 0.39738 0.41577 0.40951 0.0
C2303 C 0.45934 0.40523 0.44006 0.0
N2304 N 0.37067 0.42366 0.45816 0.0
N2305 N 0.48106 0.37848 0.39463 0.0
H2306 H 0.4931 0.41059 0.47672 0.0
H2307 H 0.51242 0.39964 0.44267 0.0
H2308 H 0.47898 0.37061 0.37222 0.0
H2309 H 0.50247 0.36939 0.40546 0.0
H2310 H 0.34655 0.42182 0.44921 0.0
H2311 H 0.37105 0.42546 0.48163 0.0
H2312 H 0.35009 0.44021 0.40501 0.0
H2313 H 0.36648 0.42555 0.37122 0.0
C2314 C 0.44835 0.69852 0.19043 0.0
C2315 C 0.43811 0.67299 0.21092 0.0
C2316 C 0.4309 0.63446 0.16829 0.0
C2317 C 0.44583 0.65801 0.14831 0.0
N2318 N 0.47206 0.71187 0.14109 0.0
N2319 N 0.42785 0.61393 0.21944 0.0
C2320 C 0.45523 0.69009 0.1595 0.0
C2321 C 0.43179 0.64019 0.19989 0.0
N2322 N 0.45165 0.73069 0.20055 0.0
N2323 N 0.41446 0.60713 0.15712 0.0
H2324 H 0.43036 0.61636 0.24271 0.0
H2325 H 0.4262 0.58906 0.21234 0.0
H2326 H 0.41128 0.60291 0.13406 0.0
H2327 H 0.40041 0.59101 0.1707 0.0
H2328 H 0.45583 0.75108 0.18628 0.0
H2329 H 0.44781 0.73729 0.22312 0.0
H2330 H 0.48264 0.73415 0.14867 0.0
H2331 H 0.47777 0.70641 0.11861 0.0
C2332 C 0.1778 0.64433 0.94656 0.0
C2333 C 0.16548 0.67238 0.96314 0.0
C2334 C 0.17056 0.70749 0.91727 0.0
C2335 C 0.18169 0.67908 0.90063 0.0
N2336 N 0.18603 0.61876 0.89763 0.0
N2337 N 0.14319 0.72869 0.96265 0.0
C2338 C 0.18218 0.64701 0.91475 0.0
C2339 C 0.15969 0.70338 0.94792 0.0
N2340 N 0.18759 0.61563 0.96116 0.0
N2341 N 0.17184 0.73861 0.9043 0.0
H2342 H 0.13448 0.72622 0.98482 0.0
H2343 H 0.13534 0.75076 0.95212 0.0
H2344 H 0.17929 0.74244 0.88194 0.0
H2345 H 0.16778 0.76076 0.91623 0.0
H2346 H 0.20089 0.59635 0.95057 0.0
H2347 H 0.18534 0.61198 0.98434 0.0
H2348 H 0.18296 0.59457 0.90616 0.0
H2349 H 0.18854 0.61949 0.87425 0.0
C2350 C 0.14151 0.40026 0.66176 0.0
C2351 C 0.1568 0.42793 0.64684 0.0
C2352 C 0.19286 0.43699 0.69113 0.0
C2353 C 0.1797 0.40772 0.70518 0.0
N2354 N 0.14391 0.3593 0.70273 0.0
N2355 N 0.20169 0.46861 0.64534 0.0
C2356 C 0.15453 0.3888 0.69022 0.0
C2357 C 0.18364 0.4452 0.66103 0.0
N2358 N 0.11395 0.38559 0.64912 0.0
N2359 N 0.21333 0.45806 0.70692 0.0
H2360 H 0.19575 0.47652 0.62363 0.0
H2361 H 0.22452 0.47816 0.65286 0.0
H2362 H 0.22183 0.45301 0.7286 0.0
H2363 H 0.21952 0.4821 0.69955 0.0
H2364 H 0.09942 0.36758 0.66001 0.0
H2365 H 0.10407 0.39324 0.62837 0.0
H2366 H 0.12829 0.34242 0.69173 0.0
H2367 H 0.15266 0.35051 0.72352 0.0
loop_
_geom_bond_atom_site_label_1
_geom_bond_atom_site_label_2
_geom_bond_distance
_geom_bond_site_symmetry_2
_ccdc_geom_bond_type
O0 Tb1 2.506 . S
O0 C14 1.265 . S
Tb1 O0 2.506 . S
Tb1 O6 2.312 . S
Tb1 O10 2.271 . S
Tb1 O12 2.338 . S
Tb1 O19 2.441 . S
C2 O10 1.252 . S
C2 O11 1.253 . S
O3 Tb4 2.271 . S
O3 C13 1.252 . S
Tb4 O3 2.271 . S
Tb4 O7 2.338 . S
Tb4 O11 2.312 . S
Tb4 O15 2.441 . S
Tb4 O16 2.506 . S
C5 O15 1.244 . S
C5 O16 1.265 . S
O6 Tb1 2.312 . S
O6 C13 1.253 . S
O7 Tb4 2.338 . S
O7 C8 1.258 . S
C8 O7 1.258 . S
C8 O9 1.251 . S
O9 C8 1.251 . S
O10 Tb1 2.271 . S
O10 C2 1.252 . S
O11 C2 1.253 . S
O11 Tb4 2.312 . S
O12 Tb1 2.338 . S
O12 C17 1.258 . S
C13 O3 1.252 . S
C13 O6 1.253 . S
C14 O0 1.265 . S
C14 O19 1.244 . S
O15 Tb4 2.441 . S
O15 C5 1.244 . S
O16 Tb4 2.506 . S
O16 C5 1.265 . S
C17 O12 1.258 . S
C17 O18 1.251 . S
O18 C17 1.251 . S
O19 Tb1 2.441 . S
O19 C14 1.244 . S
O20 Tb21 2.506 . S
O20 C34 1.265 . S
Tb21 O20 2.506 . S
Tb21 O26 2.312 . S
Tb21 O30 2.271 . S
Tb21 O32 2.338 . S
Tb21 O39 2.441 . S
C22 O30 1.252 . S
C22 O31 1.253 . S
O23 Tb24 2.271 . S
O23 C33 1.252 . S
Tb24 O23 2.271 . S
Tb24 O27 2.338 1_455 S
Tb24 O31 2.312 . S
Tb24 O35 2.441 . S
Tb24 O36 2.506 1_455 S
C25 O35 1.244 1_655 S
C25 O36 1.265 . S
O26 Tb21 2.312 . S
O26 C33 1.253 . S
O27 Tb24 2.338 1_655 S
O27 C28 1.258 1_655 S
C28 O27 1.258 1_455 S
C28 O29 1.251 . S
O29 C28 1.251 . S
O30 Tb21 2.271 . S
O30 C22 1.252 . S
O31 C22 1.253 . S
O31 Tb24 2.312 . S
O32 Tb21 2.338 . S
O32 C37 1.258 . S
C33 O23 1.252 . S
C33 O26 1.253 . S
C34 O20 1.265 . S
C34 O39 1.244 . S
O35 Tb24 2.441 . S
O35 C25 1.244 1_455 S
O36 Tb24 2.506 1_655 S
O36 C25 1.265 . S
C37 O32 1.258 . S
C37 O38 1.251 . S
O38 C37 1.251 . S
O39 Tb21 2.441 . S
O39 C34 1.244 . S
O40 Tb41 2.506 . S
O40 C54 1.265 . S
Tb41 O40 2.506 . S
Tb41 O46 2.312 . S
Tb41 O50 2.271 . S
Tb41 O52 2.338 . S
Tb41 O59 2.441 . S
C42 O50 1.252 . S
C42 O51 1.253 . S
O43 Tb44 2.271 . S
O43 C53 1.252 . S
Tb44 O43 2.271 . S
Tb44 O47 2.338 . S
Tb44 O51 2.312 . S
Tb44 O55 2.441 . S
Tb44 O56 2.506 . S
C45 O55 1.244 . S
C45 O56 1.265 . S
O46 Tb41 2.312 . S
O46 C53 1.253 . S
O47 Tb44 2.338 . S
O47 C48 1.258 . S
C48 O47 1.258 . S
C48 O49 1.251 . S
O49 C48 1.251 . S
O50 Tb41 2.271 . S
O50 C42 1.252 . S
O51 C42 1.253 . S
O51 Tb44 2.312 . S
O52 Tb41 2.338 . S
O52 C57 1.258 . S
C53 O43 1.252 . S
C53 O46 1.253 . S
C54 O40 1.265 . S
C54 O59 1.244 . S
O55 Tb44 2.441 . S
O55 C45 1.244 . S
O56 Tb44 2.506 . S
O56 C45 1.265 . S
C57 O52 1.258 . S
C57 O58 1.251 . S
O58 C57 1.251 . S
O59 Tb41 2.441 . S
O59 C54 1.244 . S
O60 Tb61 2.506 . S
O60 C74 1.265 . S
Tb61 O60 2.506 . S
Tb61 O66 2.312 . S
Tb61 O70 2.271 . S
Tb61 O72 2.338 1_554 S
Tb61 O79 2.441 . S
C62 O70 1.252 . S
C62 O71 1.253 . S
O63 Tb64 2.271 . S
O63 C73 1.252 . S
Tb64 O63 2.271 . S
Tb64 O67 2.338 . S
Tb64 O71 2.312 . S
Tb64 O75 2.441 . S
Tb64 O76 2.506 . S
C65 O75 1.244 . S
C65 O76 1.265 . S
O66 Tb61 2.312 . S
O66 C73 1.253 . S
O67 Tb64 2.338 . S
O67 C68 1.258 . S
C68 O67 1.258 . S
C68 O69 1.251 . S
O69 C68 1.251 . S
O70 Tb61 2.271 . S
O70 C62 1.252 . S
O71 C62 1.253 . S
O71 Tb64 2.312 . S
O72 Tb61 2.338 1_556 S
O72 C77 1.258 . S
C73 O63 1.252 . S
C73 O66 1.253 . S
C74 O60 1.265 . S
C74 O79 1.244 . S
O75 Tb64 2.441 . S
O75 C65 1.244 . S
O76 Tb64 2.506 . S
O76 C65 1.265 . S
C77 O72 1.258 . S
C77 O78 1.251 . S
O78 C77 1.251 . S
O79 Tb61 2.441 . S
O79 C74 1.244 . S
O80 Tb81 2.506 . S
O80 C94 1.265 . S
Tb81 O80 2.506 . S
Tb81 O86 2.312 . S
Tb81 O90 2.271 . S
Tb81 O92 2.338 . S
Tb81 O99 2.441 . S
C82 O90 1.252 . S
C82 O91 1.253 . S
O83 Tb84 2.271 . S
O83 C93 1.252 . S
Tb84 O83 2.271 . S
Tb84 O87 2.338 . S
Tb84 O91 2.312 . S
Tb84 O95 2.441 . S
Tb84 O96 2.506 . S
C85 O95 1.244 . S
C85 O96 1.265 . S
O86 Tb81 2.312 . S
O86 C93 1.253 . S
O87 Tb84 2.338 . S
O87 C88 1.258 . S
C88 O87 1.258 . S
C88 O89 1.251 . S
O89 C88 1.251 . S
O90 Tb81 2.271 . S
O90 C82 1.252 . S
O91 C82 1.253 . S
O91 Tb84 2.312 . S
O92 Tb81 2.338 . S
O92 C97 1.258 . S
C93 O83 1.252 . S
C93 O86 1.253 . S
C94 O80 1.265 . S
C94 O99 1.244 . S
O95 Tb84 2.441 . S
O95 C85 1.244 . S
O96 Tb84 2.506 . S
O96 C85 1.265 . S
C97 O92 1.258 . S
C97 O98 1.251 . S
O98 C97 1.251 . S
O99 Tb81 2.441 . S
O99 C94 1.244 . S
O100 Tb101 2.506 . S
O100 C114 1.265 . S
Tb101 O100 2.506 . S
Tb101 O106 2.312 . S
Tb101 O110 2.271 . S
Tb101 O112 2.338 . S
Tb101 O119 2.441 . S
C102 O110 1.252 . S
C102 O111 1.253 . S
O103 Tb104 2.271 . S
O103 C113 1.252 . S
Tb104 O103 2.271 . S
Tb104 O107 2.338 . S
Tb104 O111 2.312 . S
Tb104 O115 2.441 . S
Tb104 O116 2.506 . S
C105 O115 1.244 . S
C105 O116 1.265 . S
O106 Tb101 2.312 . S
O106 C113 1.253 . S
O107 Tb104 2.338 . S
O107 C108 1.258 . S
C108 O107 1.258 . S
C108 O109 1.251 . S
O109 C108 1.251 . S
O110 Tb101 2.271 . S
O110 C102 1.252 . S
O111 C102 1.253 . S
O111 Tb104 2.312 . S
O112 Tb101 2.338 . S
O112 C117 1.258 . S
C113 O103 1.252 . S
C113 O106 1.253 . S
C114 O100 1.265 . S
C114 O119 1.244 . S
O115 Tb104 2.441 . S
O115 C105 1.244 . S
O116 Tb104 2.506 . S
O116 C105 1.265 . S
C117 O112 1.258 . S
C117 O118 1.251 . S
O118 C117 1.251 . S
O119 Tb101 2.441 . S
O119 C114 1.244 . S
O120 Tb121 2.506 . S
O120 C134 1.265 . S
Tb121 O120 2.506 . S
Tb121 O126 2.312 . S
Tb121 O130 2.271 . S
Tb121 O132 2.338 . S
Tb121 O139 2.441 . S
C122 O130 1.252 . S
C122 O131 1.253 . S
O123 Tb124 2.271 . S
O123 C133 1.252 . S
Tb124 O123 2.271 . S
Tb124 O127 2.338 . S
Tb124 O131 2.312 . S
Tb124 O135 2.441 . S
Tb124 O136 2.506 . S
C125 O135 1.244 . S
C125 O136 1.265 . S
O126 Tb121 2.312 . S
O126 C133 1.253 . S
O127 Tb124 2.338 . S
O127 C128 1.258 . S
C128 O127 1.258 . S
C128 O129 1.251 . S
O129 C128 1.251 . S
O130 Tb121 2.271 . S
O130 C122 1.252 . S
O131 C122 1.253 . S
O131 Tb124 2.312 . S
O132 Tb121 2.338 . S
O132 C137 1.258 . S
C133 O123 1.252 . S
C133 O126 1.253 . S
C134 O120 1.265 . S
C134 O139 1.244 . S
O135 Tb124 2.441 . S
O135 C125 1.244 . S
O136 Tb124 2.506 . S
O136 C125 1.265 . S
C137 O132 1.258 . S
C137 O138 1.251 . S
O138 C137 1.251 . S
O139 Tb121 2.441 . S
O139 C134 1.244 . S
O140 Tb141 2.506 1_655 S
O140 C154 1.265 . S
Tb141 O140 2.506 1_455 S
Tb141 O146 2.312 . S
Tb141 O150 2.271 . S
Tb141 O152 2.338 1_455 S
Tb141 O159 2.441 . S
C142 O150 1.252 . S
C142 O151 1.253 . S
O143 Tb144 2.271 . S
O143 C153 1.252 . S
Tb144 O143 2.271 . S
Tb144 O147 2.338 1_556 S
Tb144 O151 2.312 . S
Tb144 O155 2.441 . S
Tb144 O156 2.506 . S
C145 O155 1.244 . S
C145 O156 1.265 . S
O146 Tb141 2.312 . S
O146 C153 1.253 . S
O147 Tb144 2.338 1_554 S
O147 C148 1.258 . S
C148 O147 1.258 . S
C148 O149 1.251 . S
O149 C148 1.251 . S
O150 Tb141 2.271 . S
O150 C142 1.252 . S
O151 C142 1.253 . S
O151 Tb144 2.312 . S
O152 Tb141 2.338 1_655 S
O152 C157 1.258 1_655 S
C153 O143 1.252 . S
C153 O146 1.253 . S
C154 O140 1.265 . S
C154 O159 1.244 1_655 S
O155 Tb144 2.441 . S
O155 C145 1.244 . S
O156 Tb144 2.506 . S
O156 C145 1.265 . S
C157 O152 1.258 1_455 S
C157 O158 1.251 . S
O158 C157 1.251 . S
O159 Tb141 2.441 . S
O159 C154 1.244 1_455 S
O160 Tb161 2.506 . S
O160 C174 1.265 . S
Tb161 O160 2.506 . S
Tb161 O166 2.312 . S
Tb161 O170 2.271 . S
Tb161 O172 2.338 . S
Tb161 O179 2.441 . S
C162 O170 1.252 . S
C162 O171 1.253 . S
O163 Tb164 2.271 . S
O163 C173 1.252 . S
Tb164 O163 2.271 . S
Tb164 O167 2.338 . S
Tb164 O171 2.312 . S
Tb164 O175 2.441 . S
Tb164 O176 2.506 . S
C165 O175 1.244 . S
C165 O176 1.265 . S
O166 Tb161 2.312 . S
O166 C173 1.253 . S
O167 Tb164 2.338 . S
O167 C168 1.258 . S
C168 O167 1.258 . S
C168 O169 1.251 . S
O169 C168 1.251 . S
O170 Tb161 2.271 . S
O170 C162 1.252 . S
O171 C162 1.253 . S
O171 Tb164 2.312 . S
O172 Tb161 2.338 . S
O172 C177 1.258 . S
C173 O163 1.252 . S
C173 O166 1.253 . S
C174 O160 1.265 . S
C174 O179 1.244 . S
O175 Tb164 2.441 . S
O175 C165 1.244 . S
O176 Tb164 2.506 . S
O176 C165 1.265 . S
C177 O172 1.258 . S
C177 O178 1.251 . S
O178 C177 1.251 . S
O179 Tb161 2.441 . S
O179 C174 1.244 . S
O180 Tb181 2.506 . S
O180 C194 1.265 . S
Tb181 O180 2.506 . S
Tb181 O186 2.312 . S
Tb181 O190 2.271 . S
Tb181 O192 2.338 . S
Tb181 O199 2.441 . S
C182 O190 1.252 . S
C182 O191 1.253 . S
O183 Tb184 2.271 . S
O183 C193 1.252 . S
Tb184 O183 2.271 . S
Tb184 O187 2.338 1_655 S
Tb184 O191 2.312 . S
Tb184 O195 2.441 . S
Tb184 O196 2.506 1_655 S
C185 O195 1.244 1_455 S
C185 O196 1.265 . S
O186 Tb181 2.312 . S
O186 C193 1.253 . S
O187 Tb184 2.338 1_455 S
O187 C188 1.258 1_455 S
C188 O187 1.258 1_655 S
C188 O189 1.251 . S
O189 C188 1.251 . S
O190 Tb181 2.271 . S
O190 C182 1.252 . S
O191 C182 1.253 . S
O191 Tb184 2.312 . S
O192 Tb181 2.338 . S
O192 C197 1.258 . S
C193 O183 1.252 . S
C193 O186 1.253 . S
C194 O180 1.265 . S
C194 O199 1.244 . S
O195 Tb184 2.441 . S
O195 C185 1.244 1_655 S
O196 Tb184 2.506 1_455 S
O196 C185 1.265 . S
C197 O192 1.258 . S
C197 O198 1.251 . S
O198 C197 1.251 . S
O199 Tb181 2.441 . S
O199 C194 1.244 . S
O200 Tb201 2.506 . S
O200 C214 1.265 . S
Tb201 O200 2.506 . S
Tb201 O206 2.312 . S
Tb201 O210 2.271 . S
Tb201 O212 2.338 . S
Tb201 O219 2.441 . S
C202 O210 1.252 . S
C202 O211 1.253 . S
O203 Tb204 2.271 . S
O203 C213 1.252 . S
Tb204 O203 2.271 . S
Tb204 O207 2.338 . S
Tb204 O211 2.312 . S
Tb204 O215 2.441 . S
Tb204 O216 2.506 . S
C205 O215 1.244 . S
C205 O216 1.265 . S
O206 Tb201 2.312 . S
O206 C213 1.253 . S
O207 Tb204 2.338 . S
O207 C208 1.258 . S
C208 O207 1.258 . S
C208 O209 1.251 . S
O209 C208 1.251 . S
O210 Tb201 2.271 . S
O210 C202 1.252 . S
O211 C202 1.253 . S
O211 Tb204 2.312 . S
O212 Tb201 2.338 . S
O212 C217 1.258 . S
C213 O203 1.252 . S
C213 O206 1.253 . S
C214 O200 1.265 . S
C214 O219 1.244 . S
O215 Tb204 2.441 . S
O215 C205 1.244 . S
O216 Tb204 2.506 . S
O216 C205 1.265 . S
C217 O212 1.258 . S
C217 O218 1.251 . S
O218 C217 1.251 . S
O219 Tb201 2.441 . S
O219 C214 1.244 . S
O220 Tb221 2.506 . S
O220 C234 1.265 . S
Tb221 O220 2.506 . S
Tb221 O226 2.312 . S
Tb221 O230 2.271 . S
Tb221 O232 2.338 1_556 S
Tb221 O239 2.441 . S
C222 O230 1.252 . S
C222 O231 1.253 . S
O223 Tb224 2.271 . S
O223 C233 1.252 . S
Tb224 O223 2.271 . S
Tb224 O227 2.338 . S
Tb224 O231 2.312 . S
Tb224 O235 2.441 . S
Tb224 O236 2.506 . S
C225 O235 1.244 . S
C225 O236 1.265 . S
O226 Tb221 2.312 . S
O226 C233 1.253 . S
O227 Tb224 2.338 . S
O227 C228 1.258 . S
C228 O227 1.258 . S
C228 O229 1.251 . S
O229 C228 1.251 . S
O230 Tb221 2.271 . S
O230 C222 1.252 . S
O231 C222 1.253 . S
O231 Tb224 2.312 . S
O232 Tb221 2.338 1_554 S
O232 C237 1.258 . S
C233 O223 1.252 . S
C233 O226 1.253 . S
C234 O220 1.265 . S
C234 O239 1.244 . S
O235 Tb224 2.441 . S
O235 C225 1.244 . S
O236 Tb224 2.506 . S
O236 C225 1.265 . S
C237 O232 1.258 . S
C237 O238 1.251 . S
O238 C237 1.251 . S
O239 Tb221 2.441 . S
O239 C234 1.244 . S
O240 Tb241 2.506 . S
O240 C254 1.265 . S
Tb241 O240 2.506 . S
Tb241 O246 2.312 . S
Tb241 O250 2.271 . S
Tb241 O252 2.338 . S
Tb241 O259 2.441 . S
C242 O250 1.252 . S
C242 O251 1.253 . S
O243 Tb244 2.271 . S
O243 C253 1.252 . S
Tb244 O243 2.271 . S
Tb244 O247 2.338 . S
Tb244 O251 2.312 . S
Tb244 O255 2.441 . S
Tb244 O256 2.506 . S
C245 O255 1.244 . S
C245 O256 1.265 . S
O246 Tb241 2.312 . S
O246 C253 1.253 . S
O247 Tb244 2.338 . S
O247 C248 1.258 . S
C248 O247 1.258 . S
C248 O249 1.251 . S
O249 C248 1.251 . S
O250 Tb241 2.271 . S
O250 C242 1.252 . S
O251 C242 1.253 . S
O251 Tb244 2.312 . S
O252 Tb241 2.338 . S
O252 C257 1.258 . S
C253 O243 1.252 . S
C253 O246 1.253 . S
C254 O240 1.265 . S
C254 O259 1.244 . S
O255 Tb244 2.441 . S
O255 C245 1.244 . S
O256 Tb244 2.506 . S
O256 C245 1.265 . S
C257 O252 1.258 . S
C257 O258 1.251 . S
O258 C257 1.251 . S
O259 Tb241 2.441 . S
O259 C254 1.244 . S
O260 Tb261 2.506 . S
O260 C274 1.265 . S
Tb261 O260 2.506 . S
Tb261 O266 2.312 . S
Tb261 O270 2.271 . S
Tb261 O272 2.338 . S
Tb261 O279 2.441 . S
C262 O270 1.252 . S
C262 O271 1.253 . S
O263 Tb264 2.271 . S
O263 C273 1.252 . S
Tb264 O263 2.271 . S
Tb264 O267 2.338 . S
Tb264 O271 2.312 . S
Tb264 O275 2.441 . S
Tb264 O276 2.506 . S
C265 O275 1.244 . S
C265 O276 1.265 . S
O266 Tb261 2.312 . S
O266 C273 1.253 . S
O267 Tb264 2.338 . S
O267 C268 1.258 . S
C268 O267 1.258 . S
C268 O269 1.251 . S
O269 C268 1.251 . S
O270 Tb261 2.271 . S
O270 C262 1.252 . S
O271 C262 1.253 . S
O271 Tb264 2.312 . S
O272 Tb261 2.338 . S
O272 C277 1.258 . S
C273 O263 1.252 . S
C273 O266 1.253 . S
C274 O260 1.265 . S
C274 O279 1.244 . S
O275 Tb264 2.441 . S
O275 C265 1.244 . S
O276 Tb264 2.506 . S
O276 C265 1.265 . S
C277 O272 1.258 . S
C277 O278 1.251 . S
O278 C277 1.251 . S
O279 Tb261 2.441 . S
O279 C274 1.244 . S
O280 Tb281 2.506 . S
O280 C294 1.265 . S
Tb281 O280 2.506 . S
Tb281 O286 2.312 . S
Tb281 O290 2.271 . S
Tb281 O292 2.338 . S
Tb281 O299 2.441 . S
C282 O290 1.252 . S
C282 O291 1.253 . S
O283 Tb284 2.271 . S
O283 C293 1.252 . S
Tb284 O283 2.271 . S
Tb284 O287 2.338 . S
Tb284 O291 2.312 . S
Tb284 O295 2.441 . S
Tb284 O296 2.506 . S
C285 O295 1.244 . S
C285 O296 1.265 . S
O286 Tb281 2.312 . S
O286 C293 1.253 . S
O287 Tb284 2.338 . S
O287 C288 1.258 . S
C288 O287 1.258 . S
C288 O289 1.251 . S
O289 C288 1.251 . S
O290 Tb281 2.271 . S
O290 C282 1.252 . S
O291 C282 1.253 . S
O291 Tb284 2.312 . S
O292 Tb281 2.338 . S
O292 C297 1.258 . S
C293 O283 1.252 . S
C293 O286 1.253 . S
C294 O280 1.265 . S
C294 O299 1.244 . S
O295 Tb284 2.441 . S
O295 C285 1.244 . S
O296 Tb284 2.506 . S
O296 C285 1.265 . S
C297 O292 1.258 . S
C297 O298 1.251 . S
O298 C297 1.251 . S
O299 Tb281 2.441 . S
O299 C294 1.244 . S
O300 Tb301 2.506 . S
O300 C314 1.265 . S
Tb301 O300 2.506 . S
Tb301 O306 2.312 . S
Tb301 O310 2.271 . S
Tb301 O312 2.338 1_554 S
Tb301 O319 2.441 . S
C302 O310 1.252 . S
C302 O311 1.253 . S
O303 Tb304 2.271 . S
O303 C313 1.252 . S
Tb304 O303 2.271 . S
Tb304 O307 2.338 1_655 S
Tb304 O311 2.312 . S
Tb304 O315 2.441 . S
Tb304 O316 2.506 1_655 S
C305 O315 1.244 1_455 S
C305 O316 1.265 . S
O306 Tb301 2.312 . S
O306 C313 1.253 . S
O307 Tb304 2.338 1_455 S
O307 C308 1.258 1_455 S
C308 O307 1.258 1_655 S
C308 O309 1.251 . S
O309 C308 1.251 . S
O310 Tb301 2.271 . S
O310 C302 1.252 . S
O311 C302 1.253 . S
O311 Tb304 2.312 . S
O312 Tb301 2.338 1_556 S
O312 C317 1.258 . S
C313 O303 1.252 . S
C313 O306 1.253 . S
C314 O300 1.265 . S
C314 O319 1.244 . S
O315 Tb304 2.441 . S
O315 C305 1.244 1_655 S
O316 Tb304 2.506 1_455 S
O316 C305 1.265 . S
C317 O312 1.258 . S
C317 O318 1.251 . S
O318 C317 1.251 . S
O319 Tb301 2.441 . S
O319 C314 1.244 . S
O320 Tb321 2.506 . S
O320 C334 1.265 . S
Tb321 O320 2.506 . S
Tb321 O326 2.312 . S
Tb321 O330 2.271 . S
Tb321 O332 2.338 . S
Tb321 O339 2.441 . S
C322 O330 1.252 . S
C322 O331 1.253 . S
O323 Tb324 2.271 . S
O323 C333 1.252 . S
Tb324 O323 2.271 . S
Tb324 O327 2.338 . S
Tb324 O331 2.312 . S
Tb324 O335 2.441 . S
Tb324 O336 2.506 . S
C325 O335 1.244 . S
C325 O336 1.265 . S
O326 Tb321 2.312 . S
O326 C333 1.253 . S
O327 Tb324 2.338 . S
O327 C328 1.258 . S
C328 O327 1.258 . S
C328 O329 1.251 . S
O329 C328 1.251 . S
O330 Tb321 2.271 . S
O330 C322 1.252 . S
O331 C322 1.253 . S
O331 Tb324 2.312 . S
O332 Tb321 2.338 . S
O332 C337 1.258 . S
C333 O323 1.252 . S
C333 O326 1.253 . S
C334 O320 1.265 . S
C334 O339 1.244 . S
O335 Tb324 2.441 . S
O335 C325 1.244 . S
O336 Tb324 2.506 . S
O336 C325 1.265 . S
C337 O332 1.258 . S
C337 O338 1.251 . S
O338 C337 1.251 . S
O339 Tb321 2.441 . S
O339 C334 1.244 . S
O340 Tb341 2.506 . S
O340 C354 1.265 . S
Tb341 O340 2.506 . S
Tb341 O346 2.312 . S
Tb341 O350 2.271 . S
Tb341 O352 2.338 1_554 S
Tb341 O359 2.441 . S
C342 O350 1.252 . S
C342 O351 1.253 . S
O343 Tb344 2.271 . S
O343 C353 1.252 . S
Tb344 O343 2.271 . S
Tb344 O347 2.338 . S
Tb344 O351 2.312 . S
Tb344 O355 2.441 . S
Tb344 O356 2.506 . S
C345 O355 1.244 . S
C345 O356 1.265 . S
O346 Tb341 2.312 . S
O346 C353 1.253 . S
O347 Tb344 2.338 . S
O347 C348 1.258 . S
C348 O347 1.258 . S
C348 O349 1.251 . S
O349 C348 1.251 . S
O350 Tb341 2.271 . S
O350 C342 1.252 . S
O351 C342 1.253 . S
O351 Tb344 2.312 . S
O352 Tb341 2.338 1_556 S
O352 C357 1.258 . S
C353 O343 1.252 . S
C353 O346 1.253 . S
C354 O340 1.265 . S
C354 O359 1.244 . S
O355 Tb344 2.441 . S
O355 C345 1.244 . S
O356 Tb344 2.506 . S
O356 C345 1.265 . S
C357 O352 1.258 . S
C357 O358 1.251 . S
O358 C357 1.251 . S
O359 Tb341 2.441 . S
O359 C354 1.244 . S
O360 Tb361 2.506 . S
O360 C374 1.265 . S
Tb361 O360 2.506 . S
Tb361 O366 2.312 . S
Tb361 O370 2.271 . S
Tb361 O372 2.338 . S
Tb361 O379 2.441 . S
C362 O370 1.252 . S
C362 O371 1.253 . S
O363 Tb364 2.271 . S
O363 C373 1.252 . S
Tb364 O363 2.271 . S
Tb364 O367 2.338 . S
Tb364 O371 2.312 . S
Tb364 O375 2.441 . S
Tb364 O376 2.506 . S
C365 O375 1.244 . S
C365 O376 1.265 . S
O366 Tb361 2.312 . S
O366 C373 1.253 . S
O367 Tb364 2.338 . S
O367 C368 1.258 . S
C368 O367 1.258 . S
C368 O369 1.251 . S
O369 C368 1.251 . S
O370 Tb361 2.271 . S
O370 C362 1.252 . S
O371 C362 1.253 . S
O371 Tb364 2.312 . S
O372 Tb361 2.338 . S
O372 C377 1.258 . S
C373 O363 1.252 . S
C373 O366 1.253 . S
C374 O360 1.265 . S
C374 O379 1.244 . S
O375 Tb364 2.441 . S
O375 C365 1.244 . S
O376 Tb364 2.506 . S
O376 C365 1.265 . S
C377 O372 1.258 . S
C377 O378 1.251 . S
O378 C377 1.251 . S
O379 Tb361 2.441 . S
O379 C374 1.244 . S
O380 Tb381 2.506 . S
O380 C394 1.265 . S
Tb381 O380 2.506 . S
Tb381 O386 2.312 . S
Tb381 O390 2.271 . S
Tb381 O392 2.338 . S
Tb381 O399 2.441 . S
C382 O390 1.252 . S
C382 O391 1.253 . S
O383 Tb384 2.271 . S
O383 C393 1.252 . S
Tb384 O383 2.271 . S
Tb384 O387 2.338 1_655 S
Tb384 O391 2.312 . S
Tb384 O395 2.441 . S
Tb384 O396 2.506 1_655 S
C385 O395 1.244 1_455 S
C385 O396 1.265 . S
O386 Tb381 2.312 . S
O386 C393 1.253 . S
O387 Tb384 2.338 1_455 S
O387 C388 1.258 1_455 S
C388 O387 1.258 1_655 S
C388 O389 1.251 . S
O389 C388 1.251 . S
O390 Tb381 2.271 . S
O390 C382 1.252 . S
O391 C382 1.253 . S
O391 Tb384 2.312 . S
O392 Tb381 2.338 . S
O392 C397 1.258 . S
C393 O383 1.252 . S
C393 O386 1.253 . S
C394 O380 1.265 . S
C394 O399 1.244 . S
O395 Tb384 2.441 . S
O395 C385 1.244 1_655 S
O396 Tb384 2.506 1_455 S
O396 C385 1.265 . S
C397 O392 1.258 . S
C397 O398 1.251 . S
O398 C397 1.251 . S
O399 Tb381 2.441 . S
O399 C394 1.244 . S
O400 Tb401 2.506 . S
O400 C414 1.265 . S
Tb401 O400 2.506 . S
Tb401 O406 2.312 . S
Tb401 O410 2.271 . S
Tb401 O412 2.338 . S
Tb401 O419 2.441 . S
C402 O410 1.252 . S
C402 O411 1.253 . S
O403 Tb404 2.271 . S
O403 C413 1.252 . S
Tb404 O403 2.271 . S
Tb404 O407 2.338 . S
Tb404 O411 2.312 . S
Tb404 O415 2.441 . S
Tb404 O416 2.506 . S
C405 O415 1.244 . S
C405 O416 1.265 . S
O406 Tb401 2.312 . S
O406 C413 1.253 . S
O407 Tb404 2.338 . S
O407 C408 1.258 . S
C408 O407 1.258 . S
C408 O409 1.251 . S
O409 C408 1.251 . S
O410 Tb401 2.271 . S
O410 C402 1.252 . S
O411 C402 1.253 . S
O411 Tb404 2.312 . S
O412 Tb401 2.338 . S
O412 C417 1.258 . S
C413 O403 1.252 . S
C413 O406 1.253 . S
C414 O400 1.265 . S
C414 O419 1.244 . S
O415 Tb404 2.441 . S
O415 C405 1.244 . S
O416 Tb404 2.506 . S
O416 C405 1.265 . S
C417 O412 1.258 . S
C417 O418 1.251 . S
O418 C417 1.251 . S
O419 Tb401 2.441 . S
O419 C414 1.244 . S
O420 Tb421 2.506 . S
O420 C434 1.265 . S
Tb421 O420 2.506 . S
Tb421 O426 2.312 . S
Tb421 O430 2.271 . S
Tb421 O432 2.338 1_556 S
Tb421 O439 2.441 . S
C422 O430 1.252 . S
C422 O431 1.253 . S
O423 Tb424 2.271 . S
O423 C433 1.252 . S
Tb424 O423 2.271 . S
Tb424 O427 2.338 1_655 S
Tb424 O431 2.312 . S
Tb424 O435 2.441 . S
Tb424 O436 2.506 1_655 S
C425 O435 1.244 1_455 S
C425 O436 1.265 . S
O426 Tb421 2.312 . S
O426 C433 1.253 . S
O427 Tb424 2.338 1_455 S
O427 C428 1.258 1_455 S
C428 O427 1.258 1_655 S
C428 O429 1.251 . S
O429 C428 1.251 . S
O430 Tb421 2.271 . S
O430 C422 1.252 . S
O431 C422 1.253 . S
O431 Tb424 2.312 . S
O432 Tb421 2.338 1_554 S
O432 C437 1.258 . S
C433 O423 1.252 . S
C433 O426 1.253 . S
C434 O420 1.265 . S
C434 O439 1.244 . S
O435 Tb424 2.441 . S
O435 C425 1.244 1_655 S
O436 Tb424 2.506 1_455 S
O436 C425 1.265 . S
C437 O432 1.258 . S
C437 O438 1.251 . S
O438 C437 1.251 . S
O439 Tb421 2.441 . S
O439 C434 1.244 . S
O440 Tb441 2.506 . S
O440 C454 1.265 . S
Tb441 O440 2.506 . S
Tb441 O446 2.312 . S
Tb441 O450 2.271 . S
Tb441 O452 2.338 . S
Tb441 O459 2.441 . S
C442 O450 1.252 . S
C442 O451 1.253 . S
O443 Tb444 2.271 . S
O443 C453 1.252 . S
Tb444 O443 2.271 . S
Tb444 O447 2.338 . S
Tb444 O451 2.312 . S
Tb444 O455 2.441 . S
Tb444 O456 2.506 . S
C445 O455 1.244 . S
C445 O456 1.265 . S
O446 Tb441 2.312 . S
O446 C453 1.253 . S
O447 Tb444 2.338 . S
O447 C448 1.258 . S
C448 O447 1.258 . S
C448 O449 1.251 . S
O449 C448 1.251 . S
O450 Tb441 2.271 . S
O450 C442 1.252 . S
O451 C442 1.253 . S
O451 Tb444 2.312 . S
O452 Tb441 2.338 . S
O452 C457 1.258 . S
C453 O443 1.252 . S
C453 O446 1.253 . S
C454 O440 1.265 . S
C454 O459 1.244 . S
O455 Tb444 2.441 . S
O455 C445 1.244 . S
O456 Tb444 2.506 . S
O456 C445 1.265 . S
C457 O452 1.258 . S
C457 O458 1.251 . S
O458 C457 1.251 . S
O459 Tb441 2.441 . S
O459 C454 1.244 . S
O460 Tb461 2.506 . S
O460 C474 1.265 . S
Tb461 O460 2.506 . S
Tb461 O466 2.312 . S
Tb461 O470 2.271 . S
Tb461 O472 2.338 . S
Tb461 O479 2.441 . S
C462 O470 1.252 . S
C462 O471 1.253 . S
O463 Tb464 2.271 . S
O463 C473 1.252 . S
Tb464 O463 2.271 . S
Tb464 O467 2.338 . S
Tb464 O471 2.312 . S
Tb464 O475 2.441 . S
Tb464 O476 2.506 . S
C465 O475 1.244 . S
C465 O476 1.265 . S
O466 Tb461 2.312 . S
O466 C473 1.253 . S
O467 Tb464 2.338 . S
O467 C468 1.258 . S
C468 O467 1.258 . S
C468 O469 1.251 . S
O469 C468 1.251 . S
O470 Tb461 2.271 . S
O470 C462 1.252 . S
O471 C462 1.253 . S
O471 Tb464 2.312 . S
O472 Tb461 2.338 . S
O472 C477 1.258 . S
C473 O463 1.252 . S
C473 O466 1.253 . S
C474 O460 1.265 . S
C474 O479 1.244 . S
O475 Tb464 2.441 . S
O475 C465 1.244 . S
O476 Tb464 2.506 . S
O476 C465 1.265 . S
C477 O472 1.258 . S
C477 O478 1.251 . S
O478 C477 1.251 . S
O479 Tb461 2.441 . S
O479 C474 1.244 . S
O480 Tb481 2.506 . S
O480 C494 1.265 . S
Tb481 O480 2.506 . S
Tb481 O486 2.312 . S
Tb481 O490 2.271 . S
Tb481 O492 2.338 . S
Tb481 O499 2.441 . S
C482 O490 1.252 . S
C482 O491 1.253 . S
O483 Tb484 2.271 . S
O483 C493 1.252 . S
Tb484 O483 2.271 . S
Tb484 O487 2.338 . S
Tb484 O491 2.312 . S
Tb484 O495 2.441 . S
Tb484 O496 2.506 . S
C485 O495 1.244 . S
C485 O496 1.265 . S
O486 Tb481 2.312 . S
O486 C493 1.253 . S
O487 Tb484 2.338 . S
O487 C488 1.258 . S
C488 O487 1.258 . S
C488 O489 1.251 . S
O489 C488 1.251 . S
O490 Tb481 2.271 . S
O490 C482 1.252 . S
O491 C482 1.253 . S
O491 Tb484 2.312 . S
O492 Tb481 2.338 . S
O492 C497 1.258 . S
C493 O483 1.252 . S
C493 O486 1.253 . S
C494 O480 1.265 . S
C494 O499 1.244 . S
O495 Tb484 2.441 . S
O495 C485 1.244 . S
O496 Tb484 2.506 . S
O496 C485 1.265 . S
C497 O492 1.258 . S
C497 O498 1.251 . S
O498 C497 1.251 . S
O499 Tb481 2.441 . S
O499 C494 1.244 . S
O500 Tb501 2.506 . S
O500 C514 1.265 . S
Tb501 O500 2.506 . S
Tb501 O506 2.312 . S
Tb501 O510 2.271 . S
Tb501 O512 2.338 1_556 S
Tb501 O519 2.441 . S
C502 O510 1.252 . S
C502 O511 1.253 . S
O503 Tb504 2.271 . S
O503 C513 1.252 . S
Tb504 O503 2.271 . S
Tb504 O507 2.338 . S
Tb504 O511 2.312 . S
Tb504 O515 2.441 . S
Tb504 O516 2.506 . S
C505 O515 1.244 . S
C505 O516 1.265 . S
O506 Tb501 2.312 . S
O506 C513 1.253 . S
O507 Tb504 2.338 . S
O507 C508 1.258 . S
C508 O507 1.258 . S
C508 O509 1.251 . S
O509 C508 1.251 . S
O510 Tb501 2.271 . S
O510 C502 1.252 . S
O511 C502 1.253 . S
O511 Tb504 2.312 . S
O512 Tb501 2.338 1_554 S
O512 C517 1.258 . S
C513 O503 1.252 . S
C513 O506 1.253 . S
C514 O500 1.265 . S
C514 O519 1.244 . S
O515 Tb504 2.441 . S
O515 C505 1.244 . S
O516 Tb504 2.506 . S
O516 C505 1.265 . S
C517 O512 1.258 . S
C517 O518 1.251 . S
O518 C517 1.251 . S
O519 Tb501 2.441 . S
O519 C514 1.244 . S
O520 Tb521 2.506 . S
O520 C534 1.265 . S
Tb521 O520 2.506 . S
Tb521 O526 2.312 . S
Tb521 O530 2.271 . S
Tb521 O532 2.338 . S
Tb521 O539 2.441 . S
C522 O530 1.252 . S
C522 O531 1.253 . S
O523 Tb524 2.271 . S
O523 C533 1.252 . S
Tb524 O523 2.271 . S
Tb524 O527 2.338 . S
Tb524 O531 2.312 . S
Tb524 O535 2.441 . S
Tb524 O536 2.506 . S
C525 O535 1.244 . S
C525 O536 1.265 . S
O526 Tb521 2.312 . S
O526 C533 1.253 . S
O527 Tb524 2.338 . S
O527 C528 1.258 . S
C528 O527 1.258 . S
C528 O529 1.251 . S
O529 C528 1.251 . S
O530 Tb521 2.271 . S
O530 C522 1.252 . S
O531 C522 1.253 . S
O531 Tb524 2.312 . S
O532 Tb521 2.338 . S
O532 C537 1.258 . S
C533 O523 1.252 . S
C533 O526 1.253 . S
C534 O520 1.265 . S
C534 O539 1.244 . S
O535 Tb524 2.441 . S
O535 C525 1.244 . S
O536 Tb524 2.506 . S
O536 C525 1.265 . S
C537 O532 1.258 . S
C537 O538 1.251 . S
O538 C537 1.251 . S
O539 Tb521 2.441 . S
O539 C534 1.244 . S
O540 Tb541 2.506 . S
O540 C554 1.265 . S
Tb541 O540 2.506 . S
Tb541 O546 2.312 . S
Tb541 O550 2.271 . S
Tb541 O552 2.338 . S
Tb541 O559 2.441 . S
C542 O550 1.252 . S
C542 O551 1.253 . S
O543 Tb544 2.271 . S
O543 C553 1.252 . S
Tb544 O543 2.271 . S
Tb544 O547 2.338 1_455 S
Tb544 O551 2.312 . S
Tb544 O555 2.441 . S
Tb544 O556 2.506 1_455 S
C545 O555 1.244 1_655 S
C545 O556 1.265 . S
O546 Tb541 2.312 . S
O546 C553 1.253 . S
O547 Tb544 2.338 1_655 S
O547 C548 1.258 1_655 S
C548 O547 1.258 1_455 S
C548 O549 1.251 . S
O549 C548 1.251 . S
O550 Tb541 2.271 . S
O550 C542 1.252 . S
O551 C542 1.253 . S
O551 Tb544 2.312 . S
O552 Tb541 2.338 . S
O552 C557 1.258 . S
C553 O543 1.252 . S
C553 O546 1.253 . S
C554 O540 1.265 . S
C554 O559 1.244 . S
O555 Tb544 2.441 . S
O555 C545 1.244 1_455 S
O556 Tb544 2.506 1_655 S
O556 C545 1.265 . S
C557 O552 1.258 . S
C557 O558 1.251 . S
O558 C557 1.251 . S
O559 Tb541 2.441 . S
O559 C554 1.244 . S
O560 Tb561 2.506 . S
O560 C574 1.265 . S
Tb561 O560 2.506 . S
Tb561 O566 2.312 . S
Tb561 O570 2.271 . S
Tb561 O572 2.338 . S
Tb561 O579 2.441 . S
C562 O570 1.252 . S
C562 O571 1.253 . S
O563 Tb564 2.271 . S
O563 C573 1.252 . S
Tb564 O563 2.271 . S
Tb564 O567 2.338 . S
Tb564 O571 2.312 . S
Tb564 O575 2.441 . S
Tb564 O576 2.506 . S
C565 O575 1.244 . S
C565 O576 1.265 . S
O566 Tb561 2.312 . S
O566 C573 1.253 . S
O567 Tb564 2.338 . S
O567 C568 1.258 . S
C568 O567 1.258 . S
C568 O569 1.251 . S
O569 C568 1.251 . S
O570 Tb561 2.271 . S
O570 C562 1.252 . S
O571 C562 1.253 . S
O571 Tb564 2.312 . S
O572 Tb561 2.338 . S
O572 C577 1.258 . S
C573 O563 1.252 . S
C573 O566 1.253 . S
C574 O560 1.265 . S
C574 O579 1.244 . S
O575 Tb564 2.441 . S
O575 C565 1.244 . S
O576 Tb564 2.506 . S
O576 C565 1.265 . S
C577 O572 1.258 . S
C577 O578 1.251 . S
O578 C577 1.251 . S
O579 Tb561 2.441 . S
O579 C574 1.244 . S
O580 Tb581 2.506 . S
O580 C594 1.265 . S
Tb581 O580 2.506 . S
Tb581 O586 2.312 . S
Tb581 O590 2.271 . S
Tb581 O592 2.338 1_554 S
Tb581 O599 2.441 . S
C582 O590 1.252 . S
C582 O591 1.253 . S
O583 Tb584 2.271 . S
O583 C593 1.252 . S
Tb584 O583 2.271 . S
Tb584 O587 2.338 1_455 S
Tb584 O591 2.312 . S
Tb584 O595 2.441 . S
Tb584 O596 2.506 1_455 S
C585 O595 1.244 1_655 S
C585 O596 1.265 . S
O586 Tb581 2.312 . S
O586 C593 1.253 . S
O587 Tb584 2.338 1_655 S
O587 C588 1.258 1_655 S
C588 O587 1.258 1_455 S
C588 O589 1.251 . S
O589 C588 1.251 . S
O590 Tb581 2.271 . S
O590 C582 1.252 . S
O591 C582 1.253 . S
O591 Tb584 2.312 . S
O592 Tb581 2.338 1_556 S
O592 C597 1.258 . S
C593 O583 1.252 . S
C593 O586 1.253 . S
C594 O580 1.265 . S
C594 O599 1.244 . S
O595 Tb584 2.441 . S
O595 C585 1.244 1_455 S
O596 Tb584 2.506 1_655 S
O596 C585 1.265 . S
C597 O592 1.258 . S
C597 O598 1.251 . S
O598 C597 1.251 . S
O599 Tb581 2.441 . S
O599 C594 1.244 . S
O600 Tb601 2.506 . S
O600 C614 1.265 . S
Tb601 O600 2.506 . S
Tb601 O606 2.312 . S
Tb601 O610 2.271 . S
Tb601 O612 2.338 . S
Tb601 O619 2.441 . S
C602 O610 1.252 . S
C602 O611 1.253 . S
O603 Tb604 2.271 . S
O603 C613 1.252 . S
Tb604 O603 2.271 . S
Tb604 O607 2.338 . S
Tb604 O611 2.312 . S
Tb604 O615 2.441 . S
Tb604 O616 2.506 . S
C605 O615 1.244 . S
C605 O616 1.265 . S
O606 Tb601 2.312 . S
O606 C613 1.253 . S
O607 Tb604 2.338 . S
O607 C608 1.258 . S
C608 O607 1.258 . S
C608 O609 1.251 . S
O609 C608 1.251 . S
O610 Tb601 2.271 . S
O610 C602 1.252 . S
O611 C602 1.253 . S
O611 Tb604 2.312 . S
O612 Tb601 2.338 . S
O612 C617 1.258 . S
C613 O603 1.252 . S
C613 O606 1.253 . S
C614 O600 1.265 . S
C614 O619 1.244 . S
O615 Tb604 2.441 . S
O615 C605 1.244 . S
O616 Tb604 2.506 . S
O616 C605 1.265 . S
C617 O612 1.258 . S
C617 O618 1.251 . S
O618 C617 1.251 . S
O619 Tb601 2.441 . S
O619 C614 1.244 . S
O620 Tb621 2.506 . S
O620 C634 1.265 . S
Tb621 O620 2.506 . S
Tb621 O626 2.312 . S
Tb621 O630 2.271 . S
Tb621 O632 2.338 . S
Tb621 O639 2.441 . S
C622 O630 1.252 . S
C622 O631 1.253 . S
O623 Tb624 2.271 . S
O623 C633 1.252 . S
Tb624 O623 2.271 . S
Tb624 O627 2.338 . S
Tb624 O631 2.312 . S
Tb624 O635 2.441 . S
Tb624 O636 2.506 . S
C625 O635 1.244 . S
C625 O636 1.265 . S
O626 Tb621 2.312 . S
O626 C633 1.253 . S
O627 Tb624 2.338 . S
O627 C628 1.258 . S
C628 O627 1.258 . S
C628 O629 1.251 . S
O629 C628 1.251 . S
O630 Tb621 2.271 . S
O630 C622 1.252 . S
O631 C622 1.253 . S
O631 Tb624 2.312 . S
O632 Tb621 2.338 . S
O632 C637 1.258 . S
C633 O623 1.252 . S
C633 O626 1.253 . S
C634 O620 1.265 . S
C634 O639 1.244 . S
O635 Tb624 2.441 . S
O635 C625 1.244 . S
O636 Tb624 2.506 . S
O636 C625 1.265 . S
C637 O632 1.258 . S
C637 O638 1.251 . S
O638 C637 1.251 . S
O639 Tb621 2.441 . S
O639 C634 1.244 . S
C640 C641 1.363 . S
C640 C646 1.379 1_545 S
C640 N648 1.356 . S
C641 C640 1.363 . S
C641 C647 1.363 . S
C642 C643 1.363 . S
C642 C647 1.379 1_565 S
C642 N649 1.356 . S
C643 C642 1.363 . S
C643 C646 1.363 . S
N644 C646 1.356 . S
N644 H656 0.984 . S
N644 H657 0.985 . S
N645 C647 1.356 . S
N645 H650 0.984 . S
N645 H651 0.985 . S
C646 C640 1.379 1_565 S
C646 C643 1.363 . S
C646 N644 1.356 . S
C647 C641 1.363 . S
C647 C642 1.379 1_545 S
C647 N645 1.356 . S
N648 C640 1.356 . S
N648 H654 0.984 . S
N648 H655 0.984 . S
N649 C642 1.356 . S
N649 H652 0.984 . S
N649 H653 0.985 . S
H650 N645 0.984 . S
H651 N645 0.985 . S
H652 N649 0.984 . S
H653 N649 0.985 . S
H654 N648 0.984 . S
H655 N648 0.984 . S
H656 N644 0.984 . S
H657 N644 0.985 . S
C658 C659 1.363 . S
C658 C664 1.379 . S
C658 N666 1.356 . S
C659 C658 1.363 . S
C659 C665 1.363 . S
C660 C661 1.363 . S
C660 C665 1.379 . S
C660 N667 1.356 . S
C661 C660 1.363 . S
C661 C664 1.363 . S
N662 C664 1.356 . S
N662 H674 0.984 1_565 S
N662 H675 0.985 . S
N663 C665 1.356 . S
N663 H668 0.984 . S
N663 H669 0.985 . S
C664 C658 1.379 . S
C664 C661 1.363 . S
C664 N662 1.356 . S
C665 C659 1.363 . S
C665 C660 1.379 . S
C665 N663 1.356 . S
N666 C658 1.356 . S
N666 H672 0.984 1_565 S
N666 H673 0.984 . S
N667 C660 1.356 . S
N667 H670 0.984 . S
N667 H671 0.985 . S
H668 N663 0.984 . S
H669 N663 0.985 . S
H670 N667 0.984 . S
H671 N667 0.985 . S
H672 N666 0.984 1_545 S
H673 N666 0.984 . S
H674 N662 0.984 1_545 S
H675 N662 0.985 . S
C676 C677 1.363 . S
C676 C682 1.379 1_545 S
C676 N684 1.356 . S
C677 C676 1.363 . S
C677 C683 1.363 . S
C678 C679 1.363 . S
C678 C683 1.379 1_565 S
C678 N685 1.356 . S
C679 C678 1.363 . S
C679 C682 1.363 . S
N680 C682 1.356 . S
N680 H692 0.984 . S
N680 H693 0.985 . S
N681 C683 1.356 . S
N681 H686 0.984 . S
N681 H687 0.985 . S
C682 C676 1.379 1_565 S
C682 C679 1.363 . S
C682 N680 1.356 . S
C683 C677 1.363 . S
C683 C678 1.379 1_545 S
C683 N681 1.356 . S
N684 C676 1.356 . S
N684 H690 0.984 . S
N684 H691 0.984 . S
N685 C678 1.356 . S
N685 H688 0.984 . S
N685 H689 0.985 . S
H686 N681 0.984 . S
H687 N681 0.985 . S
H688 N685 0.984 . S
H689 N685 0.985 . S
H690 N684 0.984 . S
H691 N684 0.984 . S
H692 N680 0.984 . S
H693 N680 0.985 . S
C694 C695 1.346 1_556 S
C694 C700 1.379 . S
C694 N702 1.356 . S
C695 C694 1.346 1_554 S
C695 C701 1.379 . S
C696 C697 1.346 1_554 S
C696 C701 1.379 . S
C696 N703 1.356 . S
C697 C696 1.346 1_556 S
C697 C700 1.379 . S
N698 C700 1.356 . S
N698 H710 0.984 1_545 S
N698 H711 0.985 . S
N699 C701 1.356 . S
N699 H704 0.984 . S
N699 H705 0.985 . S
C700 C694 1.379 . S
C700 C697 1.379 . S
C700 N698 1.356 . S
C701 C695 1.379 . S
C701 C696 1.379 . S
C701 N699 1.356 . S
N702 C694 1.356 . S
N702 H708 0.984 1_545 S
N702 H709 0.984 . S
N703 C696 1.356 . S
N703 H706 0.984 . S
N703 H707 0.985 . S
H704 N699 0.984 . S
H705 N699 0.985 . S
H706 N703 0.984 . S
H707 N703 0.985 . S
H708 N702 0.984 1_565 S
H709 N702 0.984 . S
H710 N698 0.984 1_565 S
H711 N698 0.985 . S
C712 C713 1.363 . S
C712 C718 1.379 1_565 S
C712 N720 1.356 . S
C713 C712 1.363 . S
C713 C719 1.363 . S
C714 C715 1.363 . S
C714 C719 1.379 1_545 S
C714 N721 1.356 . S
C715 C714 1.363 . S
C715 C718 1.363 . S
N716 C718 1.356 . S
N716 H728 0.984 . S
N716 H729 0.985 . S
N717 C719 1.356 . S
N717 H722 0.984 . S
N717 H723 0.985 . S
C718 C712 1.379 1_545 S
C718 C715 1.363 . S
C718 N716 1.356 . S
C719 C713 1.363 . S
C719 C714 1.379 1_565 S
C719 N717 1.356 . S
N720 C712 1.356 . S
N720 H726 0.984 . S
N720 H727 0.984 . S
N721 C714 1.356 . S
N721 H724 0.984 . S
N721 H725 0.985 . S
H722 N717 0.984 . S
H723 N717 0.985 . S
H724 N721 0.984 . S
H725 N721 0.985 . S
H726 N720 0.984 . S
H727 N720 0.984 . S
H728 N716 0.984 . S
H729 N716 0.985 . S
C730 C731 1.363 . S
C730 C736 1.379 . S
C730 N738 1.356 . S
C731 C730 1.363 . S
C731 C737 1.363 . S
C732 C733 1.363 . S
C732 C737 1.379 . S
C732 N739 1.356 . S
C733 C732 1.363 . S
C733 C736 1.363 . S
N734 C736 1.356 . S
N734 H746 0.984 . S
N734 H747 0.985 . S
N735 C737 1.356 . S
N735 H740 0.984 . S
N735 H741 0.985 1_545 S
C736 C730 1.379 . S
C736 C733 1.363 . S
C736 N734 1.356 . S
C737 C731 1.363 . S
C737 C732 1.379 . S
C737 N735 1.356 . S
N738 C730 1.356 . S
N738 H744 0.984 . S
N738 H745 0.984 . S
N739 C732 1.356 . S
N739 H742 0.984 . S
N739 H743 0.985 1_545 S
H740 N735 0.984 . S
H741 N735 0.985 1_565 S
H742 N739 0.984 . S
H743 N739 0.985 1_565 S
H744 N738 0.984 . S
H745 N738 0.984 . S
H746 N734 0.984 . S
H747 N734 0.985 . S
C748 C749 1.363 . S
C748 C754 1.379 1_545 S
C748 N756 1.356 . S
C749 C748 1.363 . S
C749 C755 1.363 . S
C750 C751 1.363 . S
C750 C755 1.379 1_565 S
C750 N757 1.356 . S
C751 C750 1.363 . S
C751 C754 1.363 . S
N752 C754 1.356 . S
N752 H764 0.984 . S
N752 H765 0.985 . S
N753 C755 1.356 . S
N753 H758 0.984 . S
N753 H759 0.985 . S
C754 C748 1.379 1_565 S
C754 C751 1.363 . S
C754 N752 1.356 . S
C755 C749 1.363 . S
C755 C750 1.379 1_545 S
C755 N753 1.356 . S
N756 C748 1.356 . S
N756 H762 0.984 . S
N756 H763 0.984 . S
N757 C750 1.356 . S
N757 H760 0.984 . S
N757 H761 0.985 . S
H758 N753 0.984 . S
H759 N753 0.985 . S
H760 N757 0.984 . S
H761 N757 0.985 . S
H762 N756 0.984 . S
H763 N756 0.984 . S
H764 N752 0.984 . S
H765 N752 0.985 . S
C766 C767 1.346 1_556 S
C766 C772 1.379 . S
C766 N774 1.356 . S
C767 C766 1.346 1_554 S
C767 C773 1.379 . S
C768 C769 1.346 1_554 S
C768 C773 1.379 . S
C768 N775 1.356 . S
C769 C768 1.346 1_556 S
C769 C772 1.379 . S
N770 C772 1.356 . S
N770 H782 0.984 . S
N770 H783 0.985 . S
N771 C773 1.356 . S
N771 H776 0.984 . S
N771 H777 0.985 1_565 S
C772 C766 1.379 . S
C772 C769 1.379 . S
C772 N770 1.356 . S
C773 C767 1.379 . S
C773 C768 1.379 . S
C773 N771 1.356 . S
N774 C766 1.356 . S
N774 H780 0.984 . S
N774 H781 0.984 . S
N775 C768 1.356 . S
N775 H778 0.984 . S
N775 H779 0.985 1_565 S
H776 N771 0.984 . S
H777 N771 0.985 1_545 S
H778 N775 0.984 . S
H779 N775 0.985 1_545 S
H780 N774 0.984 . S
H781 N774 0.984 . S
H782 N770 0.984 . S
H783 N770 0.985 . S
C784 C785 1.363 . S
C784 C790 1.379 . S
C784 N792 1.356 . S
C785 C784 1.363 . S
C785 C791 1.363 . S
C786 C787 1.363 . S
C786 C791 1.379 . S
C786 N793 1.356 . S
C787 C786 1.363 . S
C787 C790 1.363 . S
N788 C790 1.356 . S
N788 H800 0.984 . S
N788 H801 0.985 . S
N789 C791 1.356 . S
N789 H794 0.984 . S
N789 H795 0.985 . S
C790 C784 1.379 . S
C790 C787 1.363 . S
C790 N788 1.356 . S
C791 C785 1.363 . S
C791 C786 1.379 . S
C791 N789 1.356 . S
N792 C784 1.356 . S
N792 H798 0.984 . S
N792 H799 0.984 . S
N793 C786 1.356 . S
N793 H796 0.984 . S
N793 H797 0.985 . S
H794 N789 0.984 . S
H795 N789 0.985 . S
H796 N793 0.984 . S
H797 N793 0.985 . S
H798 N792 0.984 . S
H799 N792 0.984 . S
H800 N788 0.984 . S
H801 N788 0.985 . S
C802 C803 1.346 1_554 S
C802 C808 1.379 . S
C802 N810 1.356 . S
C803 C802 1.346 1_556 S
C803 C809 1.379 . S
C804 C805 1.346 1_556 S
C804 C809 1.379 . S
C804 N811 1.356 . S
C805 C804 1.346 1_554 S
C805 C808 1.379 . S
N806 C808 1.356 . S
N806 H818 0.984 . S
N806 H819 0.985 . S
N807 C809 1.356 . S
N807 H812 0.984 . S
N807 H813 0.985 . S
C808 C802 1.379 . S
C808 C805 1.379 . S
C808 N806 1.356 . S
C809 C803 1.379 . S
C809 C804 1.379 . S
C809 N807 1.356 . S
N810 C802 1.356 . S
N810 H816 0.984 . S
N810 H817 0.984 . S
N811 C804 1.356 . S
N811 H814 0.984 . S
N811 H815 0.985 . S
H812 N807 0.984 . S
H813 N807 0.985 . S
H814 N811 0.984 . S
H815 N811 0.985 . S
H816 N810 0.984 . S
H817 N810 0.984 . S
H818 N806 0.984 . S
H819 N806 0.985 . S
C820 C821 1.363 . S
C820 C826 1.379 . S
C820 N828 1.356 . S
C821 C820 1.363 . S
C821 C827 1.363 . S
C822 C823 1.363 . S
C822 C827 1.379 . S
C822 N829 1.356 . S
C823 C822 1.363 . S
C823 C826 1.363 . S
N824 C826 1.356 . S
N824 H836 0.984 . S
N824 H837 0.985 . S
N825 C827 1.356 . S
N825 H830 0.984 . S
N825 H831 0.985 . S
C826 C820 1.379 . S
C826 C823 1.363 . S
C826 N824 1.356 . S
C827 C821 1.363 . S
C827 C822 1.379 . S
C827 N825 1.356 . S
N828 C820 1.356 . S
N828 H834 0.984 . S
N828 H835 0.984 . S
N829 C822 1.356 . S
N829 H832 0.984 . S
N829 H833 0.985 . S
H830 N825 0.984 . S
H831 N825 0.985 . S
H832 N829 0.984 . S
H833 N829 0.985 . S
H834 N828 0.984 . S
H835 N828 0.984 . S
H836 N824 0.984 . S
H837 N824 0.985 . S
C838 C839 1.363 . S
C838 C844 1.379 . S
C838 N846 1.356 . S
C839 C838 1.363 . S
C839 C845 1.363 . S
C840 C841 1.363 . S
C840 C845 1.379 . S
C840 N847 1.356 . S
C841 C840 1.363 . S
C841 C844 1.363 . S
N842 C844 1.356 . S
N842 H854 0.984 . S
N842 H855 0.985 . S
N843 C845 1.356 . S
N843 H848 0.984 . S
N843 H849 0.985 . S
C844 C838 1.379 . S
C844 C841 1.363 . S
C844 N842 1.356 . S
C845 C839 1.363 . S
C845 C840 1.379 . S
C845 N843 1.356 . S
N846 C838 1.356 . S
N846 H852 0.984 . S
N846 H853 0.984 . S
N847 C840 1.356 . S
N847 H850 0.984 . S
N847 H851 0.985 . S
H848 N843 0.984 . S
H849 N843 0.985 . S
H850 N847 0.984 . S
H851 N847 0.985 . S
H852 N846 0.984 . S
H853 N846 0.984 . S
H854 N842 0.984 . S
H855 N842 0.985 . S
C856 C857 1.363 . S
C856 C862 1.379 . S
C856 N864 1.356 . S
C857 C856 1.363 . S
C857 C863 1.363 . S
C858 C859 1.363 . S
C858 C863 1.379 . S
C858 N865 1.356 . S
C859 C858 1.363 . S
C859 C862 1.363 . S
N860 C862 1.356 . S
N860 H872 0.984 . S
N860 H873 0.985 . S
N861 C863 1.356 . S
N861 H866 0.984 . S
N861 H867 0.985 . S
C862 C856 1.379 . S
C862 C859 1.363 . S
C862 N860 1.356 . S
C863 C857 1.363 . S
C863 C858 1.379 . S
C863 N861 1.356 . S
N864 C856 1.356 . S
N864 H870 0.984 . S
N864 H871 0.984 . S
N865 C858 1.356 . S
N865 H868 0.984 . S
N865 H869 0.985 . S
H866 N861 0.984 . S
H867 N861 0.985 . S
H868 N865 0.984 . S
H869 N865 0.985 . S
H870 N864 0.984 . S
H871 N864 0.984 . S
H872 N860 0.984 . S
H873 N860 0.985 . S
C874 C875 1.346 1_554 S
C874 C880 1.379 . S
C874 N882 1.356 . S
C875 C874 1.346 1_556 S
C875 C881 1.379 . S
C876 C877 1.346 1_556 S
C876 C881 1.379 . S
C876 N883 1.356 . S
C877 C876 1.346 1_554 S
C877 C880 1.379 . S
N878 C880 1.356 . S
N878 H890 0.984 . S
N878 H891 0.985 . S
N879 C881 1.356 . S
N879 H884 0.984 . S
N879 H885 0.985 . S
C880 C874 1.379 . S
C880 C877 1.379 . S
C880 N878 1.356 . S
C881 C875 1.379 . S
C881 C876 1.379 . S
C881 N879 1.356 . S
N882 C874 1.356 . S
N882 H888 0.984 . S
N882 H889 0.984 . S
N883 C876 1.356 . S
N883 H886 0.984 . S
N883 H887 0.985 . S
H884 N879 0.984 . S
H885 N879 0.985 . S
H886 N883 0.984 . S
H887 N883 0.985 . S
H888 N882 0.984 . S
H889 N882 0.984 . S
H890 N878 0.984 . S
H891 N878 0.985 . S
C892 C893 1.363 . S
C892 C898 1.379 . S
C892 N900 1.356 . S
C893 C892 1.363 . S
C893 C899 1.363 . S
C894 C895 1.363 . S
C894 C899 1.379 . S
C894 N901 1.356 . S
C895 C894 1.363 . S
C895 C898 1.363 . S
N896 C898 1.356 . S
N896 H908 0.984 . S
N896 H909 0.985 . S
N897 C899 1.356 . S
N897 H902 0.984 . S
N897 H903 0.985 . S
C898 C892 1.379 . S
C898 C895 1.363 . S
C898 N896 1.356 . S
C899 C893 1.363 . S
C899 C894 1.379 . S
C899 N897 1.356 . S
N900 C892 1.356 . S
N900 H906 0.984 . S
N900 H907 0.984 . S
N901 C894 1.356 . S
N901 H904 0.984 . S
N901 H905 0.985 . S
H902 N897 0.984 . S
H903 N897 0.985 . S
H904 N901 0.984 . S
H905 N901 0.985 . S
H906 N900 0.984 . S
H907 N900 0.984 . S
H908 N896 0.984 . S
H909 N896 0.985 . S
C910 C911 1.363 . S
C910 C916 1.379 . S
C910 N918 1.356 . S
C911 C910 1.363 . S
C911 C917 1.363 . S
C912 C913 1.363 . S
C912 C917 1.379 . S
C912 N919 1.356 . S
C913 C912 1.363 . S
C913 C916 1.363 . S
N914 C916 1.356 . S
N914 H926 0.984 . S
N914 H927 0.985 . S
N915 C917 1.356 . S
N915 H920 0.984 . S
N915 H921 0.985 . S
C916 C910 1.379 . S
C916 C913 1.363 . S
C916 N914 1.356 . S
C917 C911 1.363 . S
C917 C912 1.379 . S
C917 N915 1.356 . S
N918 C910 1.356 . S
N918 H924 0.984 . S
N918 H925 0.984 . S
N919 C912 1.356 . S
N919 H922 0.984 . S
N919 H923 0.985 . S
H920 N915 0.984 . S
H921 N915 0.985 . S
H922 N919 0.984 . S
H923 N919 0.985 . S
H924 N918 0.984 . S
H925 N918 0.984 . S
H926 N914 0.984 . S
H927 N914 0.985 . S
C928 C929 1.363 . S
C928 C934 1.379 . S
C928 N936 1.356 . S
C929 C928 1.363 . S
C929 C935 1.363 . S
C930 C931 1.363 . S
C930 C935 1.379 . S
C930 N937 1.356 . S
C931 C930 1.363 . S
C931 C934 1.363 . S
N932 C934 1.356 . S
N932 H944 0.984 . S
N932 H945 0.985 . S
N933 C935 1.356 . S
N933 H938 0.984 . S
N933 H939 0.985 . S
C934 C928 1.379 . S
C934 C931 1.363 . S
C934 N932 1.356 . S
C935 C929 1.363 . S
C935 C930 1.379 . S
C935 N933 1.356 . S
N936 C928 1.356 . S
N936 H942 0.984 . S
N936 H943 0.984 . S
N937 C930 1.356 . S
N937 H940 0.984 . S
N937 H941 0.985 . S
H938 N933 0.984 . S
H939 N933 0.985 . S
H940 N937 0.984 . S
H941 N937 0.985 . S
H942 N936 0.984 . S
H943 N936 0.984 . S
H944 N932 0.984 . S
H945 N932 0.985 . S
C946 C947 1.363 1_565 S
C946 C952 1.379 . S
C946 N954 1.356 . S
C947 C946 1.363 1_545 S
C947 C953 1.363 1_655 S
C948 C949 1.363 1_545 S
C948 C953 1.379 . S
C948 N955 1.356 . S
C949 C948 1.363 1_565 S
C949 C952 1.363 1_455 S
N950 C952 1.356 1_455 S
N950 H962 0.984 1_455 S
N950 H963 0.985 . S
N951 C953 1.356 1_655 S
N951 H956 0.984 . S
N951 H957 0.985 1_655 S
C952 C946 1.379 . S
C952 C949 1.363 1_655 S
C952 N950 1.356 1_655 S
C953 C947 1.363 1_455 S
C953 C948 1.379 . S
C953 N951 1.356 1_455 S
N954 C946 1.356 . S
N954 H960 0.984 . S
N954 H961 0.984 1_565 S
N955 C948 1.356 . S
N955 H958 0.984 1_545 S
N955 H959 0.985 . S
H956 N951 0.984 . S
H957 N951 0.985 1_455 S
H958 N955 0.984 1_565 S
H959 N955 0.985 . S
H960 N954 0.984 . S
H961 N954 0.984 1_545 S
H962 N950 0.984 1_655 S
H963 N950 0.985 . S
C964 C965 1.363 . S
C964 C970 1.379 . S
C964 N972 1.356 . S
C965 C964 1.363 . S
C965 C971 1.363 . S
C966 C967 1.363 . S
C966 C971 1.379 . S
C966 N973 1.356 . S
C967 C966 1.363 . S
C967 C970 1.363 . S
N968 C970 1.356 . S
N968 H980 0.984 . S
N968 H981 0.985 . S
N969 C971 1.356 . S
N969 H974 0.984 . S
N969 H975 0.985 . S
C970 C964 1.379 . S
C970 C967 1.363 . S
C970 N968 1.356 . S
C971 C965 1.363 . S
C971 C966 1.379 . S
C971 N969 1.356 . S
N972 C964 1.356 . S
N972 H978 0.984 . S
N972 H979 0.984 . S
N973 C966 1.356 . S
N973 H976 0.984 . S
N973 H977 0.985 . S
H974 N969 0.984 . S
H975 N969 0.985 . S
H976 N973 0.984 . S
H977 N973 0.985 . S
H978 N972 0.984 . S
H979 N972 0.984 . S
H980 N968 0.984 . S
H981 N968 0.985 . S
C982 C983 1.363 1_566 S
C982 C988 1.379 . S
C982 N990 1.356 1_565 S
C983 C982 1.363 1_544 S
C983 C989 1.363 . S
C984 C985 1.363 1_544 S
C984 C989 1.379 . S
C984 N991 1.356 1_545 S
C985 C984 1.363 1_566 S
C985 C988 1.363 . S
N986 C988 1.356 . S
N986 H998 0.984 . S
N986 H999 0.985 . S
N987 C989 1.356 . S
N987 H992 0.984 . S
N987 H993 0.985 . S
C988 C982 1.379 . S
C988 C985 1.363 . S
C988 N986 1.356 . S
C989 C983 1.363 . S
C989 C984 1.379 . S
C989 N987 1.356 . S
N990 C982 1.356 1_545 S
N990 H996 0.984 1_545 S
N990 H997 0.984 . S
N991 C984 1.356 1_565 S
N991 H994 0.984 . S
N991 H995 0.985 1_565 S
H992 N987 0.984 . S
H993 N987 0.985 . S
H994 N991 0.984 . S
H995 N991 0.985 1_545 S
H996 N990 0.984 1_565 S
H997 N990 0.984 . S
H998 N986 0.984 . S
H999 N986 0.985 . S
C1000 C1001 1.363 . S
C1000 C1006 1.379 . S
C1000 N1008 1.356 . S
C1001 C1000 1.363 . S
C1001 C1007 1.363 . S
C1002 C1003 1.363 . S
C1002 C1007 1.379 . S
C1002 N1009 1.356 . S
C1003 C1002 1.363 . S
C1003 C1006 1.363 . S
N1004 C1006 1.356 . S
N1004 H1016 0.984 . S
N1004 H1017 0.985 . S
N1005 C1007 1.356 . S
N1005 H1010 0.984 . S
N1005 H1011 0.985 . S
C1006 C1000 1.379 . S
C1006 C1003 1.363 . S
C1006 N1004 1.356 . S
C1007 C1001 1.363 . S
C1007 C1002 1.379 . S
C1007 N1005 1.356 . S
N1008 C1000 1.356 . S
N1008 H1014 0.984 . S
N1008 H1015 0.984 . S
N1009 C1002 1.356 . S
N1009 H1012 0.984 . S
N1009 H1013 0.985 . S
H1010 N1005 0.984 . S
H1011 N1005 0.985 . S
H1012 N1009 0.984 . S
H1013 N1009 0.985 . S
H1014 N1008 0.984 . S
H1015 N1008 0.984 . S
H1016 N1004 0.984 . S
H1017 N1004 0.985 . S
C1018 C1019 1.363 . S
C1018 C1024 1.379 1_565 S
C1018 N1026 1.356 . S
C1019 C1018 1.363 . S
C1019 C1025 1.363 . S
C1020 C1021 1.363 . S
C1020 C1025 1.379 1_545 S
C1020 N1027 1.356 . S
C1021 C1020 1.363 . S
C1021 C1024 1.363 . S
N1022 C1024 1.356 . S
N1022 H1034 0.984 . S
N1022 H1035 0.985 . S
N1023 C1025 1.356 . S
N1023 H1028 0.984 . S
N1023 H1029 0.985 . S
C1024 C1018 1.379 1_545 S
C1024 C1021 1.363 . S
C1024 N1022 1.356 . S
C1025 C1019 1.363 . S
C1025 C1020 1.379 1_565 S
C1025 N1023 1.356 . S
N1026 C1018 1.356 . S
N1026 H1032 0.984 . S
N1026 H1033 0.984 . S
N1027 C1020 1.356 . S
N1027 H1030 0.984 . S
N1027 H1031 0.985 . S
H1028 N1023 0.984 . S
H1029 N1023 0.985 . S
H1030 N1027 0.984 . S
H1031 N1027 0.985 . S
H1032 N1026 0.984 . S
H1033 N1026 0.984 . S
H1034 N1022 0.984 . S
H1035 N1022 0.985 . S
C1036 C1037 1.363 . S
C1036 C1042 1.379 . S
C1036 N1044 1.356 . S
C1037 C1036 1.363 . S
C1037 C1043 1.363 . S
C1038 C1039 1.363 . S
C1038 C1043 1.379 . S
C1038 N1045 1.356 . S
C1039 C1038 1.363 . S
C1039 C1042 1.363 . S
N1040 C1042 1.356 . S
N1040 H1052 0.984 . S
N1040 H1053 0.985 . S
N1041 C1043 1.356 . S
N1041 H1046 0.984 . S
N1041 H1047 0.985 . S
C1042 C1036 1.379 . S
C1042 C1039 1.363 . S
C1042 N1040 1.356 . S
C1043 C1037 1.363 . S
C1043 C1038 1.379 . S
C1043 N1041 1.356 . S
N1044 C1036 1.356 . S
N1044 H1050 0.984 . S
N1044 H1051 0.984 . S
N1045 C1038 1.356 . S
N1045 H1048 0.984 . S
N1045 H1049 0.985 . S
H1046 N1041 0.984 . S
H1047 N1041 0.985 . S
H1048 N1045 0.984 . S
H1049 N1045 0.985 . S
H1050 N1044 0.984 . S
H1051 N1044 0.984 . S
H1052 N1040 0.984 . S
H1053 N1040 0.985 . S
C1054 C1055 1.363 1_545 S
C1054 C1060 1.379 1_655 S
C1054 N1062 1.356 . S
C1055 C1054 1.363 1_565 S
C1055 C1061 1.363 1_554 S
C1056 C1057 1.363 1_565 S
C1056 C1061 1.379 1_455 S
C1056 N1063 1.356 . S
C1057 C1056 1.363 1_545 S
C1057 C1060 1.363 1_556 S
N1058 C1060 1.356 . S
N1058 H1070 0.984 . S
N1058 H1071 0.985 . S
N1059 C1061 1.356 . S
N1059 H1064 0.984 . S
N1059 H1065 0.985 . S
C1060 C1054 1.379 1_455 S
C1060 C1057 1.363 1_554 S
C1060 N1058 1.356 . S
C1061 C1055 1.363 1_556 S
C1061 C1056 1.379 1_655 S
C1061 N1059 1.356 . S
N1062 C1054 1.356 . S
N1062 H1068 0.984 . S
N1062 H1069 0.984 1_545 S
N1063 C1056 1.356 . S
N1063 H1066 0.984 1_565 S
N1063 H1067 0.985 . S
H1064 N1059 0.984 . S
H1065 N1059 0.985 . S
H1066 N1063 0.984 1_545 S
H1067 N1063 0.985 . S
H1068 N1062 0.984 . S
H1069 N1062 0.984 1_565 S
H1070 N1058 0.984 . S
H1071 N1058 0.985 . S
C1072 C1073 1.363 . S
C1072 C1078 1.379 . S
C1072 N1080 1.356 . S
C1073 C1072 1.363 . S
C1073 C1079 1.363 . S
C1074 C1075 1.363 . S
C1074 C1079 1.379 . S
C1074 N1081 1.356 . S
C1075 C1074 1.363 . S
C1075 C1078 1.363 . S
N1076 C1078 1.356 . S
N1076 H1088 0.984 . S
N1076 H1089 0.985 . S
N1077 C1079 1.356 . S
N1077 H1082 0.984 . S
N1077 H1083 0.985 . S
C1078 C1072 1.379 . S
C1078 C1075 1.363 . S
C1078 N1076 1.356 . S
C1079 C1073 1.363 . S
C1079 C1074 1.379 . S
C1079 N1077 1.356 . S
N1080 C1072 1.356 . S
N1080 H1086 0.984 . S
N1080 H1087 0.984 . S
N1081 C1074 1.356 . S
N1081 H1084 0.984 . S
N1081 H1085 0.985 . S
H1082 N1077 0.984 . S
H1083 N1077 0.985 . S
H1084 N1081 0.984 . S
H1085 N1081 0.985 . S
H1086 N1080 0.984 . S
H1087 N1080 0.984 . S
H1088 N1076 0.984 . S
H1089 N1076 0.985 . S
C1090 C1091 1.363 . S
C1090 C1096 1.379 . S
C1090 N1098 1.356 . S
C1091 C1090 1.363 . S
C1091 C1097 1.363 . S
C1092 C1093 1.363 . S
C1092 C1097 1.379 . S
C1092 N1099 1.356 . S
C1093 C1092 1.363 . S
C1093 C1096 1.363 . S
N1094 C1096 1.356 . S
N1094 H1106 0.984 . S
N1094 H1107 0.985 . S
N1095 C1097 1.356 . S
N1095 H1100 0.984 . S
N1095 H1101 0.985 . S
C1096 C1090 1.379 . S
C1096 C1093 1.363 . S
C1096 N1094 1.356 . S
C1097 C1091 1.363 . S
C1097 C1092 1.379 . S
C1097 N1095 1.356 . S
N1098 C1090 1.356 . S
N1098 H1104 0.984 . S
N1098 H1105 0.984 . S
N1099 C1092 1.356 . S
N1099 H1102 0.984 . S
N1099 H1103 0.985 . S
H1100 N1095 0.984 . S
H1101 N1095 0.985 . S
H1102 N1099 0.984 . S
H1103 N1099 0.985 . S
H1104 N1098 0.984 . S
H1105 N1098 0.984 . S
H1106 N1094 0.984 . S
H1107 N1094 0.985 . S
C1108 C1109 1.363 . S
C1108 C1114 1.379 . S
C1108 N1116 1.356 . S
C1109 C1108 1.363 . S
C1109 C1115 1.363 . S
C1110 C1111 1.363 . S
C1110 C1115 1.379 . S
C1110 N1117 1.356 . S
C1111 C1110 1.363 . S
C1111 C1114 1.363 . S
N1112 C1114 1.356 . S
N1112 H1124 0.984 . S
N1112 H1125 0.985 . S
N1113 C1115 1.356 . S
N1113 H1118 0.984 . S
N1113 H1119 0.985 . S
C1114 C1108 1.379 . S
C1114 C1111 1.363 . S
C1114 N1112 1.356 . S
C1115 C1109 1.363 . S
C1115 C1110 1.379 . S
C1115 N1113 1.356 . S
N1116 C1108 1.356 . S
N1116 H1122 0.984 . S
N1116 H1123 0.984 . S
N1117 C1110 1.356 . S
N1117 H1120 0.984 . S
N1117 H1121 0.985 . S
H1118 N1113 0.984 . S
H1119 N1113 0.985 . S
H1120 N1117 0.984 . S
H1121 N1117 0.985 . S
H1122 N1116 0.984 . S
H1123 N1116 0.984 . S
H1124 N1112 0.984 . S
H1125 N1112 0.985 . S
C1126 C1127 1.363 . S
C1126 C1132 1.379 . S
C1126 N1134 1.356 . S
C1127 C1126 1.363 . S
C1127 C1133 1.363 . S
C1128 C1129 1.363 . S
C1128 C1133 1.379 . S
C1128 N1135 1.356 . S
C1129 C1128 1.363 . S
C1129 C1132 1.363 . S
N1130 C1132 1.356 . S
N1130 H1142 0.984 . S
N1130 H1143 0.985 . S
N1131 C1133 1.356 . S
N1131 H1136 0.984 . S
N1131 H1137 0.985 . S
C1132 C1126 1.379 . S
C1132 C1129 1.363 . S
C1132 N1130 1.356 . S
C1133 C1127 1.363 . S
C1133 C1128 1.379 . S
C1133 N1131 1.356 . S
N1134 C1126 1.356 . S
N1134 H1140 0.984 . S
N1134 H1141 0.984 . S
N1135 C1128 1.356 . S
N1135 H1138 0.984 . S
N1135 H1139 0.985 . S
H1136 N1131 0.984 . S
H1137 N1131 0.985 . S
H1138 N1135 0.984 . S
H1139 N1135 0.985 . S
H1140 N1134 0.984 . S
H1141 N1134 0.984 . S
H1142 N1130 0.984 . S
H1143 N1130 0.985 . S
C1144 C1145 1.363 . S
C1144 C1150 1.379 . S
C1144 N1152 1.356 . S
C1145 C1144 1.363 . S
C1145 C1151 1.363 1_554 S
C1146 C1147 1.363 . S
C1146 C1151 1.379 . S
C1146 N1153 1.356 . S
C1147 C1146 1.363 . S
C1147 C1150 1.363 1_556 S
N1148 C1150 1.356 . S
N1148 H1160 0.984 . S
N1148 H1161 0.985 . S
N1149 C1151 1.356 . S
N1149 H1154 0.984 . S
N1149 H1155 0.985 . S
C1150 C1144 1.379 . S
C1150 C1147 1.363 1_554 S
C1150 N1148 1.356 . S
C1151 C1145 1.363 1_556 S
C1151 C1146 1.379 . S
C1151 N1149 1.356 . S
N1152 C1144 1.356 . S
N1152 H1158 0.984 . S
N1152 H1159 0.984 . S
N1153 C1146 1.356 . S
N1153 H1156 0.984 . S
N1153 H1157 0.985 . S
H1154 N1149 0.984 . S
H1155 N1149 0.985 . S
H1156 N1153 0.984 . S
H1157 N1153 0.985 . S
H1158 N1152 0.984 . S
H1159 N1152 0.984 . S
H1160 N1148 0.984 . S
H1161 N1148 0.985 . S
C1162 C1163 1.363 . S
C1162 C1168 1.385 . S
C1162 N1170 1.356 . S
C1163 C1162 1.363 . S
C1163 C1169 1.357 1_455 S
C1164 C1165 1.363 . S
C1164 C1169 1.385 . S
C1164 N1171 1.356 . S
C1165 C1164 1.363 . S
C1165 C1168 1.357 1_655 S
N1166 C1168 1.354 1_655 S
N1166 H1178 0.984 1_655 S
N1166 H1179 0.985 . S
N1167 C1169 1.354 1_455 S
N1167 H1172 0.984 . S
N1167 H1173 0.985 1_455 S
C1168 C1162 1.385 . S
C1168 C1165 1.357 1_455 S
C1168 N1166 1.354 1_455 S
C1169 C1163 1.357 1_655 S
C1169 C1164 1.385 . S
C1169 N1167 1.354 1_655 S
N1170 C1162 1.356 . S
N1170 H1176 0.984 . S
N1170 H1177 0.984 . S
N1171 C1164 1.356 . S
N1171 H1174 0.984 . S
N1171 H1175 0.985 . S
H1172 N1167 0.984 . S
H1173 N1167 0.985 1_655 S
H1174 N1171 0.984 . S
H1175 N1171 0.985 . S
H1176 N1170 0.984 . S
H1177 N1170 0.984 . S
H1178 N1166 0.984 1_455 S
H1179 N1166 0.985 . S
C1180 C1181 1.342 1_656 S
C1180 C1186 1.399 . S
C1180 N1188 1.350 1_655 S
C1181 C1180 1.342 1_454 S
C1181 C1187 1.363 . S
C1182 C1183 1.342 1_454 S
C1182 C1187 1.399 . S
C1182 N1189 1.350 1_455 S
C1183 C1182 1.342 1_656 S
C1183 C1186 1.363 . S
N1184 C1186 1.356 . S
N1184 H1196 0.984 . S
N1184 H1197 0.985 . S
N1185 C1187 1.356 . S
N1185 H1190 0.984 . S
N1185 H1191 0.985 . S
C1186 C1180 1.399 . S
C1186 C1183 1.363 . S
C1186 N1184 1.356 . S
C1187 C1181 1.363 . S
C1187 C1182 1.399 . S
C1187 N1185 1.356 . S
N1188 C1180 1.350 1_455 S
N1188 H1194 0.984 1_455 S
N1188 H1195 0.984 . S
N1189 C1182 1.350 1_655 S
N1189 H1192 0.984 . S
N1189 H1193 0.985 1_655 S
H1190 N1185 0.984 . S
H1191 N1185 0.985 . S
H1192 N1189 0.984 . S
H1193 N1189 0.985 1_455 S
H1194 N1188 0.984 1_655 S
H1195 N1188 0.984 . S
H1196 N1184 0.984 . S
H1197 N1184 0.985 . S
C1198 C1199 1.363 . S
C1198 C1204 1.379 . S
C1198 N1206 1.356 . S
C1199 C1198 1.363 . S
C1199 C1205 1.363 . S
C1200 C1201 1.363 . S
C1200 C1205 1.379 . S
C1200 N1207 1.356 . S
C1201 C1200 1.363 . S
C1201 C1204 1.363 . S
N1202 C1204 1.356 . S
N1202 H1214 0.984 . S
N1202 H1215 0.985 . S
N1203 C1205 1.356 . S
N1203 H1208 0.984 . S
N1203 H1209 0.985 . S
C1204 C1198 1.379 . S
C1204 C1201 1.363 . S
C1204 N1202 1.356 . S
C1205 C1199 1.363 . S
C1205 C1200 1.379 . S
C1205 N1203 1.356 . S
N1206 C1198 1.356 . S
N1206 H1212 0.984 . S
N1206 H1213 0.984 . S
N1207 C1200 1.356 . S
N1207 H1210 0.984 . S
N1207 H1211 0.985 . S
H1208 N1203 0.984 . S
H1209 N1203 0.985 . S
H1210 N1207 0.984 . S
H1211 N1207 0.985 . S
H1212 N1206 0.984 . S
H1213 N1206 0.984 . S
H1214 N1202 0.984 . S
H1215 N1202 0.985 . S
C1216 C1217 1.363 . S
C1216 C1222 1.379 . S
C1216 N1224 1.356 . S
C1217 C1216 1.363 . S
C1217 C1223 1.363 . S
C1218 C1219 1.363 . S
C1218 C1223 1.379 . S
C1218 N1225 1.356 . S
C1219 C1218 1.363 . S
C1219 C1222 1.363 . S
N1220 C1222 1.356 . S
N1220 H1232 0.984 . S
N1220 H1233 0.985 . S
N1221 C1223 1.356 . S
N1221 H1226 0.984 . S
N1221 H1227 0.985 . S
C1222 C1216 1.379 . S
C1222 C1219 1.363 . S
C1222 N1220 1.356 . S
C1223 C1217 1.363 . S
C1223 C1218 1.379 . S
C1223 N1221 1.356 . S
N1224 C1216 1.356 . S
N1224 H1230 0.984 . S
N1224 H1231 0.984 . S
N1225 C1218 1.356 . S
N1225 H1228 0.984 . S
N1225 H1229 0.985 . S
H1226 N1221 0.984 . S
H1227 N1221 0.985 . S
H1228 N1225 0.984 . S
H1229 N1225 0.985 . S
H1230 N1224 0.984 . S
H1231 N1224 0.984 . S
H1232 N1220 0.984 . S
H1233 N1220 0.985 . S
C1234 C1235 1.363 . S
C1234 C1240 1.379 . S
C1234 N1242 1.356 . S
C1235 C1234 1.363 . S
C1235 C1241 1.363 . S
C1236 C1237 1.363 . S
C1236 C1241 1.379 . S
C1236 N1243 1.356 . S
C1237 C1236 1.363 . S
C1237 C1240 1.363 . S
N1238 C1240 1.356 . S
N1238 H1250 0.984 . S
N1238 H1251 0.985 . S
N1239 C1241 1.356 . S
N1239 H1244 0.984 . S
N1239 H1245 0.985 . S
C1240 C1234 1.379 . S
C1240 C1237 1.363 . S
C1240 N1238 1.356 . S
C1241 C1235 1.363 . S
C1241 C1236 1.379 . S
C1241 N1239 1.356 . S
N1242 C1234 1.356 . S
N1242 H1248 0.984 . S
N1242 H1249 0.984 1_655 S
N1243 C1236 1.356 . S
N1243 H1246 0.984 . S
N1243 H1247 0.985 . S
H1244 N1239 0.984 . S
H1245 N1239 0.985 . S
H1246 N1243 0.984 . S
H1247 N1243 0.985 . S
H1248 N1242 0.984 . S
H1249 N1242 0.984 1_455 S
H1250 N1238 0.984 . S
H1251 N1238 0.985 . S
C1252 C1253 1.363 . S
C1252 C1258 1.379 . S
C1252 N1260 1.356 . S
C1253 C1252 1.363 . S
C1253 C1259 1.363 . S
C1254 C1255 1.363 . S
C1254 C1259 1.379 . S
C1254 N1261 1.356 . S
C1255 C1254 1.363 . S
C1255 C1258 1.363 . S
N1256 C1258 1.356 . S
N1256 H1268 0.984 . S
N1256 H1269 0.985 . S
N1257 C1259 1.356 . S
N1257 H1262 0.984 . S
N1257 H1263 0.985 . S
C1258 C1252 1.379 . S
C1258 C1255 1.363 . S
C1258 N1256 1.356 . S
C1259 C1253 1.363 . S
C1259 C1254 1.379 . S
C1259 N1257 1.356 . S
N1260 C1252 1.356 . S
N1260 H1266 0.984 . S
N1260 H1267 0.984 . S
N1261 C1254 1.356 . S
N1261 H1264 0.984 . S
N1261 H1265 0.985 . S
H1262 N1257 0.984 . S
H1263 N1257 0.985 . S
H1264 N1261 0.984 . S
H1265 N1261 0.985 . S
H1266 N1260 0.984 . S
H1267 N1260 0.984 . S
H1268 N1256 0.984 . S
H1269 N1256 0.985 . S
C1270 C1271 1.363 . S
C1270 C1276 1.379 . S
C1270 N1278 1.356 . S
C1271 C1270 1.363 . S
C1271 C1277 1.363 . S
C1272 C1273 1.363 . S
C1272 C1277 1.379 . S
C1272 N1279 1.356 . S
C1273 C1272 1.363 . S
C1273 C1276 1.363 . S
N1274 C1276 1.356 . S
N1274 H1286 0.984 . S
N1274 H1287 0.985 . S
N1275 C1277 1.356 . S
N1275 H1280 0.984 . S
N1275 H1281 0.985 . S
C1276 C1270 1.379 . S
C1276 C1273 1.363 . S
C1276 N1274 1.356 . S
C1277 C1271 1.363 . S
C1277 C1272 1.379 . S
C1277 N1275 1.356 . S
N1278 C1270 1.356 . S
N1278 H1284 0.984 . S
N1278 H1285 0.984 . S
N1279 C1272 1.356 . S
N1279 H1282 0.984 . S
N1279 H1283 0.985 . S
H1280 N1275 0.984 . S
H1281 N1275 0.985 . S
H1282 N1279 0.984 . S
H1283 N1279 0.985 . S
H1284 N1278 0.984 . S
H1285 N1278 0.984 . S
H1286 N1274 0.984 . S
H1287 N1274 0.985 . S
C1288 C1289 1.363 . S
C1288 C1294 1.379 . S
C1288 N1296 1.356 . S
C1289 C1288 1.363 . S
C1289 C1295 1.363 . S
C1290 C1291 1.363 . S
C1290 C1295 1.379 . S
C1290 N1297 1.356 . S
C1291 C1290 1.363 . S
C1291 C1294 1.363 . S
N1292 C1294 1.356 . S
N1292 H1304 0.984 . S
N1292 H1305 0.985 . S
N1293 C1295 1.356 . S
N1293 H1298 0.984 . S
N1293 H1299 0.985 . S
C1294 C1288 1.379 . S
C1294 C1291 1.363 . S
C1294 N1292 1.356 . S
C1295 C1289 1.363 . S
C1295 C1290 1.379 . S
C1295 N1293 1.356 . S
N1296 C1288 1.356 . S
N1296 H1302 0.984 . S
N1296 H1303 0.984 . S
N1297 C1290 1.356 . S
N1297 H1300 0.984 . S
N1297 H1301 0.985 . S
H1298 N1293 0.984 . S
H1299 N1293 0.985 . S
H1300 N1297 0.984 . S
H1301 N1297 0.985 . S
H1302 N1296 0.984 . S
H1303 N1296 0.984 . S
H1304 N1292 0.984 . S
H1305 N1292 0.985 . S
C1306 C1307 1.363 . S
C1306 C1312 1.379 . S
C1306 N1314 1.356 . S
C1307 C1306 1.363 . S
C1307 C1313 1.363 . S
C1308 C1309 1.363 . S
C1308 C1313 1.379 . S
C1308 N1315 1.356 . S
C1309 C1308 1.363 . S
C1309 C1312 1.363 . S
N1310 C1312 1.356 . S
N1310 H1322 0.984 . S
N1310 H1323 0.985 . S
N1311 C1313 1.356 . S
N1311 H1316 0.984 . S
N1311 H1317 0.985 . S
C1312 C1306 1.379 . S
C1312 C1309 1.363 . S
C1312 N1310 1.356 . S
C1313 C1307 1.363 . S
C1313 C1308 1.379 . S
C1313 N1311 1.356 . S
N1314 C1306 1.356 . S
N1314 H1320 0.984 . S
N1314 H1321 0.984 . S
N1315 C1308 1.356 . S
N1315 H1318 0.984 . S
N1315 H1319 0.985 . S
H1316 N1311 0.984 . S
H1317 N1311 0.985 . S
H1318 N1315 0.984 . S
H1319 N1315 0.985 . S
H1320 N1314 0.984 . S
H1321 N1314 0.984 . S
H1322 N1310 0.984 . S
H1323 N1310 0.985 . S
C1324 C1325 1.363 . S
C1324 C1330 1.379 . S
C1324 N1332 1.356 . S
C1325 C1324 1.363 . S
C1325 C1331 1.363 . S
C1326 C1327 1.363 . S
C1326 C1331 1.379 . S
C1326 N1333 1.356 . S
C1327 C1326 1.363 . S
C1327 C1330 1.363 . S
N1328 C1330 1.356 . S
N1328 H1340 0.984 . S
N1328 H1341 0.985 . S
N1329 C1331 1.356 . S
N1329 H1334 0.984 . S
N1329 H1335 0.985 . S
C1330 C1324 1.379 . S
C1330 C1327 1.363 . S
C1330 N1328 1.356 . S
C1331 C1325 1.363 . S
C1331 C1326 1.379 . S
C1331 N1329 1.356 . S
N1332 C1324 1.356 . S
N1332 H1338 0.984 . S
N1332 H1339 0.984 . S
N1333 C1326 1.356 . S
N1333 H1336 0.984 . S
N1333 H1337 0.985 . S
H1334 N1329 0.984 . S
H1335 N1329 0.985 . S
H1336 N1333 0.984 . S
H1337 N1333 0.985 . S
H1338 N1332 0.984 . S
H1339 N1332 0.984 . S
H1340 N1328 0.984 . S
H1341 N1328 0.985 . S
C1342 C1343 1.363 . S
C1342 C1348 1.379 . S
C1342 N1350 1.356 . S
C1343 C1342 1.363 . S
C1343 C1349 1.363 . S
C1344 C1345 1.363 . S
C1344 C1349 1.379 . S
C1344 N1351 1.356 . S
C1345 C1344 1.363 . S
C1345 C1348 1.363 . S
N1346 C1348 1.356 . S
N1346 H1358 0.984 . S
N1346 H1359 0.985 1_655 S
N1347 C1349 1.356 . S
N1347 H1352 0.984 . S
N1347 H1353 0.985 . S
C1348 C1342 1.379 . S
C1348 C1345 1.363 . S
C1348 N1346 1.356 . S
C1349 C1343 1.363 . S
C1349 C1344 1.379 . S
C1349 N1347 1.356 . S
N1350 C1342 1.356 . S
N1350 H1356 0.984 . S
N1350 H1357 0.984 . S
N1351 C1344 1.356 . S
N1351 H1354 0.984 . S
N1351 H1355 0.985 . S
H1352 N1347 0.984 . S
H1353 N1347 0.985 . S
H1354 N1351 0.984 . S
H1355 N1351 0.985 . S
H1356 N1350 0.984 . S
H1357 N1350 0.984 . S
H1358 N1346 0.984 . S
H1359 N1346 0.985 1_455 S
C1360 C1361 1.363 . S
C1360 C1366 1.379 . S
C1360 N1368 1.356 . S
C1361 C1360 1.363 . S
C1361 C1367 1.363 . S
C1362 C1363 1.363 . S
C1362 C1367 1.379 . S
C1362 N1369 1.356 . S
C1363 C1362 1.363 . S
C1363 C1366 1.363 . S
N1364 C1366 1.356 . S
N1364 H1376 0.984 . S
N1364 H1377 0.985 . S
N1365 C1367 1.356 . S
N1365 H1370 0.984 . S
N1365 H1371 0.985 . S
C1366 C1360 1.379 . S
C1366 C1363 1.363 . S
C1366 N1364 1.356 . S
C1367 C1361 1.363 . S
C1367 C1362 1.379 . S
C1367 N1365 1.356 . S
N1368 C1360 1.356 . S
N1368 H1374 0.984 . S
N1368 H1375 0.984 . S
N1369 C1362 1.356 . S
N1369 H1372 0.984 . S
N1369 H1373 0.985 . S
H1370 N1365 0.984 . S
H1371 N1365 0.985 . S
H1372 N1369 0.984 . S
H1373 N1369 0.985 . S
H1374 N1368 0.984 . S
H1375 N1368 0.984 . S
H1376 N1364 0.984 . S
H1377 N1364 0.985 . S
C1378 C1379 1.363 . S
C1378 C1384 1.379 . S
C1378 N1386 1.356 . S
C1379 C1378 1.363 . S
C1379 C1385 1.363 . S
C1380 C1381 1.363 . S
C1380 C1385 1.379 . S
C1380 N1387 1.356 . S
C1381 C1380 1.363 . S
C1381 C1384 1.363 . S
N1382 C1384 1.356 . S
N1382 H1394 0.984 . S
N1382 H1395 0.985 . S
N1383 C1385 1.356 . S
N1383 H1388 0.984 . S
N1383 H1389 0.985 . S
C1384 C1378 1.379 . S
C1384 C1381 1.363 . S
C1384 N1382 1.356 . S
C1385 C1379 1.363 . S
C1385 C1380 1.379 . S
C1385 N1383 1.356 . S
N1386 C1378 1.356 . S
N1386 H1392 0.984 . S
N1386 H1393 0.976 1_455 S
N1387 C1380 1.356 . S
N1387 H1390 0.984 . S
N1387 H1391 0.985 . S
H1388 N1383 0.984 . S
H1389 N1383 0.985 . S
H1390 N1387 0.984 . S
H1391 N1387 0.985 . S
H1392 N1386 0.984 . S
H1393 N1386 0.976 1_655 S
H1394 N1382 0.984 . S
H1395 N1382 0.985 . S
C1396 C1397 1.363 . S
C1396 C1402 1.379 . S
C1396 N1404 1.356 . S
C1397 C1396 1.363 . S
C1397 C1403 1.363 . S
C1398 C1399 1.363 . S
C1398 C1403 1.379 . S
C1398 N1405 1.356 . S
C1399 C1398 1.363 . S
C1399 C1402 1.363 . S
N1400 C1402 1.356 . S
N1400 H1412 0.984 . S
N1400 H1413 0.985 . S
N1401 C1403 1.356 . S
N1401 H1406 0.984 . S
N1401 H1407 0.985 . S
C1402 C1396 1.379 . S
C1402 C1399 1.363 . S
C1402 N1400 1.356 . S
C1403 C1397 1.363 . S
C1403 C1398 1.379 . S
C1403 N1401 1.356 . S
N1404 C1396 1.356 . S
N1404 H1410 0.984 . S
N1404 H1411 0.984 . S
N1405 C1398 1.356 . S
N1405 H1408 0.984 . S
N1405 H1409 0.985 . S
H1406 N1401 0.984 . S
H1407 N1401 0.985 . S
H1408 N1405 0.984 . S
H1409 N1405 0.985 . S
H1410 N1404 0.984 . S
H1411 N1404 0.984 . S
H1412 N1400 0.984 . S
H1413 N1400 0.985 . S
C1414 C1415 1.363 . S
C1414 C1420 1.379 . S
C1414 N1422 1.356 . S
C1415 C1414 1.363 . S
C1415 C1421 1.363 . S
C1416 C1417 1.363 . S
C1416 C1421 1.379 . S
C1416 N1423 1.356 . S
C1417 C1416 1.363 . S
C1417 C1420 1.363 . S
N1418 C1420 1.356 . S
N1418 H1430 0.984 . S
N1418 H1431 0.985 . S
N1419 C1421 1.356 . S
N1419 H1424 0.984 . S
N1419 H1425 0.985 . S
C1420 C1414 1.379 . S
C1420 C1417 1.363 . S
C1420 N1418 1.356 . S
C1421 C1415 1.363 . S
C1421 C1416 1.379 . S
C1421 N1419 1.356 . S
N1422 C1414 1.356 . S
N1422 H1428 0.984 . S
N1422 H1429 0.984 . S
N1423 C1416 1.356 . S
N1423 H1426 0.984 . S
N1423 H1427 0.985 . S
H1424 N1419 0.984 . S
H1425 N1419 0.985 . S
H1426 N1423 0.984 . S
H1427 N1423 0.985 . S
H1428 N1422 0.984 . S
H1429 N1422 0.984 . S
H1430 N1418 0.984 . S
H1431 N1418 0.985 . S
C1432 C1433 1.363 . S
C1432 C1438 1.379 . S
C1432 N1440 1.356 . S
C1433 C1432 1.363 . S
C1433 C1439 1.363 . S
C1434 C1435 1.363 . S
C1434 C1439 1.379 . S
C1434 N1441 1.356 . S
C1435 C1434 1.363 . S
C1435 C1438 1.363 . S
N1436 C1438 1.356 . S
N1436 H1448 0.984 . S
N1436 H1449 0.985 . S
N1437 C1439 1.356 . S
N1437 H1442 0.984 . S
N1437 H1443 0.985 . S
C1438 C1432 1.379 . S
C1438 C1435 1.363 . S
C1438 N1436 1.356 . S
C1439 C1433 1.363 . S
C1439 C1434 1.379 . S
C1439 N1437 1.356 . S
N1440 C1432 1.356 . S
N1440 H1446 0.984 . S
N1440 H1447 0.984 . S
N1441 C1434 1.356 . S
N1441 H1444 0.984 . S
N1441 H1445 0.985 . S
H1442 N1437 0.984 . S
H1443 N1437 0.985 . S
H1444 N1441 0.984 . S
H1445 N1441 0.985 . S
H1446 N1440 0.984 . S
H1447 N1440 0.984 . S
H1448 N1436 0.984 . S
H1449 N1436 0.985 . S
C1450 C1451 1.363 . S
C1450 C1456 1.379 . S
C1450 N1458 1.356 . S
C1451 C1450 1.363 . S
C1451 C1457 1.363 . S
C1452 C1453 1.363 . S
C1452 C1457 1.379 . S
C1452 N1459 1.356 . S
C1453 C1452 1.363 . S
C1453 C1456 1.363 . S
N1454 C1456 1.356 . S
N1454 H1466 0.984 . S
N1454 H1467 0.985 . S
N1455 C1457 1.356 . S
N1455 H1460 0.984 . S
N1455 H1461 0.985 . S
C1456 C1450 1.379 . S
C1456 C1453 1.363 . S
C1456 N1454 1.356 . S
C1457 C1451 1.363 . S
C1457 C1452 1.379 . S
C1457 N1455 1.356 . S
N1458 C1450 1.356 . S
N1458 H1464 0.984 . S
N1458 H1465 0.984 . S
N1459 C1452 1.356 . S
N1459 H1462 0.984 . S
N1459 H1463 0.985 . S
H1460 N1455 0.984 . S
H1461 N1455 0.985 . S
H1462 N1459 0.984 . S
H1463 N1459 0.985 . S
H1464 N1458 0.984 . S
H1465 N1458 0.984 . S
H1466 N1454 0.984 . S
H1467 N1454 0.985 . S
C1468 C1469 1.363 . S
C1468 C1474 1.379 . S
C1468 N1476 1.356 . S
C1469 C1468 1.363 . S
C1469 C1475 1.363 . S
C1470 C1471 1.363 . S
C1470 C1475 1.379 . S
C1470 N1477 1.356 . S
C1471 C1470 1.363 . S
C1471 C1474 1.363 . S
N1472 C1474 1.356 . S
N1472 H1484 0.984 . S
N1472 H1485 0.985 . S
N1473 C1475 1.356 . S
N1473 H1478 0.984 . S
N1473 H1479 0.985 . S
C1474 C1468 1.379 . S
C1474 C1471 1.363 . S
C1474 N1472 1.356 . S
C1475 C1469 1.363 . S
C1475 C1470 1.379 . S
C1475 N1473 1.356 . S
N1476 C1468 1.356 . S
N1476 H1482 0.984 . S
N1476 H1483 0.984 . S
N1477 C1470 1.356 . S
N1477 H1480 0.984 . S
N1477 H1481 0.985 . S
H1478 N1473 0.984 . S
H1479 N1473 0.985 . S
H1480 N1477 0.984 . S
H1481 N1477 0.985 . S
H1482 N1476 0.984 . S
H1483 N1476 0.984 . S
H1484 N1472 0.984 . S
H1485 N1472 0.985 . S
C1486 C1487 1.363 . S
C1486 C1492 1.379 . S
C1486 N1494 1.356 . S
C1487 C1486 1.363 . S
C1487 C1493 1.363 . S
C1488 C1489 1.363 . S
C1488 C1493 1.379 . S
C1488 N1495 1.356 1_455 S
C1489 C1488 1.363 . S
C1489 C1492 1.363 . S
N1490 C1492 1.356 . S
N1490 H1502 0.984 . S
N1490 H1503 0.985 . S
N1491 C1493 1.356 . S
N1491 H1496 0.984 . S
N1491 H1497 0.985 . S
C1492 C1486 1.379 . S
C1492 C1489 1.363 . S
C1492 N1490 1.356 . S
C1493 C1487 1.363 . S
C1493 C1488 1.379 . S
C1493 N1491 1.356 . S
N1494 C1486 1.356 . S
N1494 H1500 0.984 . S
N1494 H1501 0.984 . S
N1495 C1488 1.356 1_655 S
N1495 H1498 0.984 . S
N1495 H1499 0.985 . S
H1496 N1491 0.984 . S
H1497 N1491 0.985 . S
H1498 N1495 0.984 . S
H1499 N1495 0.985 . S
H1500 N1494 0.984 . S
H1501 N1494 0.984 . S
H1502 N1490 0.984 . S
H1503 N1490 0.985 . S
C1504 C1505 1.363 . S
C1504 C1510 1.379 . S
C1504 N1512 1.356 . S
C1505 C1504 1.363 . S
C1505 C1511 1.363 . S
C1506 C1507 1.363 . S
C1506 C1511 1.379 . S
C1506 N1513 1.356 . S
C1507 C1506 1.363 . S
C1507 C1510 1.363 . S
N1508 C1510 1.356 . S
N1508 H1520 0.984 . S
N1508 H1521 0.985 . S
N1509 C1511 1.356 . S
N1509 H1514 0.984 . S
N1509 H1515 0.985 . S
C1510 C1504 1.379 . S
C1510 C1507 1.363 . S
C1510 N1508 1.356 . S
C1511 C1505 1.363 . S
C1511 C1506 1.379 . S
C1511 N1509 1.356 . S
N1512 C1504 1.356 . S
N1512 H1518 0.984 . S
N1512 H1519 0.984 . S
N1513 C1506 1.356 . S
N1513 H1516 0.984 . S
N1513 H1517 0.985 . S
H1514 N1509 0.984 . S
H1515 N1509 0.985 . S
H1516 N1513 0.984 . S
H1517 N1513 0.985 . S
H1518 N1512 0.984 . S
H1519 N1512 0.984 . S
H1520 N1508 0.984 . S
H1521 N1508 0.985 . S
C1522 C1523 1.363 . S
C1522 C1528 1.379 . S
C1522 N1530 1.356 . S
C1523 C1522 1.363 . S
C1523 C1529 1.363 . S
C1524 C1525 1.363 . S
C1524 C1529 1.379 . S
C1524 N1531 1.356 . S
C1525 C1524 1.363 . S
C1525 C1528 1.363 . S
N1526 C1528 1.356 . S
N1526 H1538 0.984 . S
N1526 H1539 0.985 . S
N1527 C1529 1.356 . S
N1527 H1532 0.984 . S
N1527 H1533 0.985 . S
C1528 C1522 1.379 . S
C1528 C1525 1.363 . S
C1528 N1526 1.356 . S
C1529 C1523 1.363 . S
C1529 C1524 1.379 . S
C1529 N1527 1.356 . S
N1530 C1522 1.356 . S
N1530 H1536 0.984 . S
N1530 H1537 0.984 . S
N1531 C1524 1.356 . S
N1531 H1534 0.984 . S
N1531 H1535 0.985 . S
H1532 N1527 0.984 . S
H1533 N1527 0.985 . S
H1534 N1531 0.984 . S
H1535 N1531 0.985 . S
H1536 N1530 0.984 . S
H1537 N1530 0.984 . S
H1538 N1526 0.984 . S
H1539 N1526 0.985 . S
C1540 C1541 1.363 . S
C1540 C1546 1.379 . S
C1540 N1548 1.356 . S
C1541 C1540 1.363 . S
C1541 C1547 1.363 . S
C1542 C1543 1.363 . S
C1542 C1547 1.379 . S
C1542 N1549 1.356 . S
C1543 C1542 1.363 . S
C1543 C1546 1.363 . S
N1544 C1546 1.356 . S
N1544 H1556 0.984 . S
N1544 H1557 0.985 . S
N1545 C1547 1.356 . S
N1545 H1550 0.984 . S
N1545 H1551 0.985 . S
C1546 C1540 1.379 . S
C1546 C1543 1.363 . S
C1546 N1544 1.356 . S
C1547 C1541 1.363 . S
C1547 C1542 1.379 . S
C1547 N1545 1.356 . S
N1548 C1540 1.356 . S
N1548 H1554 0.984 . S
N1548 H1555 0.984 . S
N1549 C1542 1.356 . S
N1549 H1552 0.984 . S
N1549 H1553 0.985 . S
H1550 N1545 0.984 . S
H1551 N1545 0.985 . S
H1552 N1549 0.984 . S
H1553 N1549 0.985 . S
H1554 N1548 0.984 . S
H1555 N1548 0.984 . S
H1556 N1544 0.984 . S
H1557 N1544 0.985 . S
C1558 C1559 1.363 . S
C1558 C1564 1.379 . S
C1558 N1566 1.356 . S
C1559 C1558 1.363 . S
C1559 C1565 1.363 . S
C1560 C1561 1.363 . S
C1560 C1565 1.379 . S
C1560 N1567 1.356 . S
C1561 C1560 1.363 . S
C1561 C1564 1.363 . S
N1562 C1564 1.356 . S
N1562 H1574 0.984 . S
N1562 H1575 0.985 . S
N1563 C1565 1.356 . S
N1563 H1568 0.984 1_455 S
N1563 H1569 0.985 . S
C1564 C1558 1.379 . S
C1564 C1561 1.363 . S
C1564 N1562 1.356 . S
C1565 C1559 1.363 . S
C1565 C1560 1.379 . S
C1565 N1563 1.356 . S
N1566 C1558 1.356 . S
N1566 H1572 0.984 . S
N1566 H1573 0.984 . S
N1567 C1560 1.356 . S
N1567 H1570 0.984 . S
N1567 H1571 0.985 . S
H1568 N1563 0.984 1_655 S
H1569 N1563 0.985 . S
H1570 N1567 0.984 . S
H1571 N1567 0.985 . S
H1572 N1566 0.984 . S
H1573 N1566 0.984 . S
H1574 N1562 0.984 . S
H1575 N1562 0.985 . S
C1576 C1577 1.363 . S
C1576 C1582 1.379 . S
C1576 N1584 1.356 . S
C1577 C1576 1.363 . S
C1577 C1583 1.363 . S
C1578 C1579 1.363 . S
C1578 C1583 1.379 . S
C1578 N1585 1.356 . S
C1579 C1578 1.363 . S
C1579 C1582 1.363 . S
N1580 C1582 1.356 . S
N1580 H1592 0.984 . S
N1580 H1593 0.985 . S
N1581 C1583 1.356 . S
N1581 H1586 0.984 . S
N1581 H1587 0.985 . S
C1582 C1576 1.379 . S
C1582 C1579 1.363 . S
C1582 N1580 1.356 . S
C1583 C1577 1.363 . S
C1583 C1578 1.379 . S
C1583 N1581 1.356 . S
N1584 C1576 1.356 . S
N1584 H1590 0.984 . S
N1584 H1591 0.984 . S
N1585 C1578 1.356 . S
N1585 H1588 0.984 . S
N1585 H1589 0.985 . S
H1586 N1581 0.984 . S
H1587 N1581 0.985 . S
H1588 N1585 0.984 . S
H1589 N1585 0.985 . S
H1590 N1584 0.984 . S
H1591 N1584 0.984 . S
H1592 N1580 0.984 . S
H1593 N1580 0.985 . S
C1594 C1595 1.363 . S
C1594 C1600 1.379 . S
C1594 N1602 1.356 . S
C1595 C1594 1.363 . S
C1595 C1601 1.363 . S
C1596 C1597 1.363 . S
C1596 C1601 1.379 . S
C1596 N1603 1.356 . S
C1597 C1596 1.363 . S
C1597 C1600 1.363 . S
N1598 C1600 1.356 . S
N1598 H1610 0.984 . S
N1598 H1611 0.985 . S
N1599 C1601 1.356 . S
N1599 H1604 0.984 . S
N1599 H1605 0.985 . S
C1600 C1594 1.379 . S
C1600 C1597 1.363 . S
C1600 N1598 1.356 . S
C1601 C1595 1.363 . S
C1601 C1596 1.379 . S
C1601 N1599 1.356 . S
N1602 C1594 1.356 . S
N1602 H1608 0.984 1_455 S
N1602 H1609 0.984 1_455 S
N1603 C1596 1.356 . S
N1603 H1606 0.984 . S
N1603 H1607 0.985 . S
H1604 N1599 0.984 . S
H1605 N1599 0.985 . S
H1606 N1603 0.984 . S
H1607 N1603 0.985 . S
H1608 N1602 0.984 1_655 S
H1609 N1602 0.984 1_655 S
H1610 N1598 0.984 . S
H1611 N1598 0.985 . S
C1612 C1613 1.363 . S
C1612 C1618 1.379 . S
C1612 N1620 1.356 . S
C1613 C1612 1.363 . S
C1613 C1619 1.363 . S
C1614 C1615 1.363 . S
C1614 C1619 1.379 . S
C1614 N1621 1.356 . S
C1615 C1614 1.363 . S
C1615 C1618 1.363 . S
N1616 C1618 1.356 . S
N1616 H1628 0.984 . S
N1616 H1629 0.985 . S
N1617 C1619 1.356 . S
N1617 H1622 0.984 . S
N1617 H1623 0.985 . S
C1618 C1612 1.379 . S
C1618 C1615 1.363 . S
C1618 N1616 1.356 . S
C1619 C1613 1.363 . S
C1619 C1614 1.379 . S
C1619 N1617 1.356 . S
N1620 C1612 1.356 . S
N1620 H1626 0.984 . S
N1620 H1627 0.984 . S
N1621 C1614 1.356 . S
N1621 H1624 0.984 . S
N1621 H1625 0.985 . S
H1622 N1617 0.984 . S
H1623 N1617 0.985 . S
H1624 N1621 0.984 . S
H1625 N1621 0.985 . S
H1626 N1620 0.984 . S
H1627 N1620 0.984 . S
H1628 N1616 0.984 . S
H1629 N1616 0.985 . S
C1630 C1631 1.363 . S
C1630 C1636 1.379 . S
C1630 N1638 1.356 . S
C1631 C1630 1.363 . S
C1631 C1637 1.363 . S
C1632 C1633 1.363 . S
C1632 C1637 1.379 . S
C1632 N1639 1.356 . S
C1633 C1632 1.363 . S
C1633 C1636 1.363 . S
N1634 C1636 1.356 . S
N1634 H1646 0.984 . S
N1634 H1647 0.985 . S
N1635 C1637 1.356 . S
N1635 H1640 0.984 . S
N1635 H1641 0.985 . S
C1636 C1630 1.379 . S
C1636 C1633 1.363 . S
C1636 N1634 1.356 . S
C1637 C1631 1.363 . S
C1637 C1632 1.379 . S
C1637 N1635 1.356 . S
N1638 C1630 1.356 . S
N1638 H1644 0.984 . S
N1638 H1645 0.984 . S
N1639 C1632 1.356 . S
N1639 H1642 0.984 . S
N1639 H1643 0.985 . S
H1640 N1635 0.984 . S
H1641 N1635 0.985 . S
H1642 N1639 0.984 . S
H1643 N1639 0.985 . S
H1644 N1638 0.984 . S
H1645 N1638 0.984 . S
H1646 N1634 0.984 . S
H1647 N1634 0.985 . S
C1648 C1649 1.363 . S
C1648 C1654 1.379 . S
C1648 N1656 1.356 . S
C1649 C1648 1.363 . S
C1649 C1655 1.363 . S
C1650 C1651 1.363 . S
C1650 C1655 1.379 . S
C1650 N1657 1.356 . S
C1651 C1650 1.363 . S
C1651 C1654 1.363 . S
N1652 C1654 1.356 . S
N1652 H1664 0.984 . S
N1652 H1665 0.985 . S
N1653 C1655 1.356 . S
N1653 H1658 0.984 . S
N1653 H1659 0.985 . S
C1654 C1648 1.379 . S
C1654 C1651 1.363 . S
C1654 N1652 1.356 . S
C1655 C1649 1.363 . S
C1655 C1650 1.379 . S
C1655 N1653 1.356 . S
N1656 C1648 1.356 . S
N1656 H1662 0.984 . S
N1656 H1663 0.984 . S
N1657 C1650 1.356 . S
N1657 H1660 0.984 . S
N1657 H1661 0.985 . S
H1658 N1653 0.984 . S
H1659 N1653 0.985 . S
H1660 N1657 0.984 . S
H1661 N1657 0.985 . S
H1662 N1656 0.984 . S
H1663 N1656 0.984 . S
H1664 N1652 0.984 . S
H1665 N1652 0.985 . S
C1666 C1667 1.363 . S
C1666 C1672 1.379 . S
C1666 N1674 1.356 . S
C1667 C1666 1.363 . S
C1667 C1673 1.363 . S
C1668 C1669 1.363 . S
C1668 C1673 1.379 . S
C1668 N1675 1.356 . S
C1669 C1668 1.363 . S
C1669 C1672 1.363 . S
N1670 C1672 1.356 . S
N1670 H1682 0.984 . S
N1670 H1683 0.985 . S
N1671 C1673 1.356 . S
N1671 H1676 0.984 . S
N1671 H1677 0.985 . S
C1672 C1666 1.379 . S
C1672 C1669 1.363 . S
C1672 N1670 1.356 . S
C1673 C1667 1.363 . S
C1673 C1668 1.379 . S
C1673 N1671 1.356 . S
N1674 C1666 1.356 . S
N1674 H1680 0.984 . S
N1674 H1681 0.984 . S
N1675 C1668 1.356 . S
N1675 H1678 0.984 . S
N1675 H1679 0.985 . S
H1676 N1671 0.984 . S
H1677 N1671 0.985 . S
H1678 N1675 0.984 . S
H1679 N1675 0.985 . S
H1680 N1674 0.984 . S
H1681 N1674 0.984 . S
H1682 N1670 0.984 . S
H1683 N1670 0.985 . S
C1684 C1685 1.363 . S
C1684 C1690 1.379 . S
C1684 N1692 1.356 . S
C1685 C1684 1.363 . S
C1685 C1691 1.363 . S
C1686 C1687 1.363 . S
C1686 C1691 1.379 . S
C1686 N1693 1.356 . S
C1687 C1686 1.363 . S
C1687 C1690 1.363 . S
N1688 C1690 1.356 . S
N1688 H1700 0.984 . S
N1688 H1701 0.985 . S
N1689 C1691 1.356 . S
N1689 H1694 0.984 . S
N1689 H1695 0.985 . S
C1690 C1684 1.379 . S
C1690 C1687 1.363 . S
C1690 N1688 1.356 . S
C1691 C1685 1.363 . S
C1691 C1686 1.379 . S
C1691 N1689 1.356 . S
N1692 C1684 1.356 . S
N1692 H1698 0.984 . S
N1692 H1699 0.984 . S
N1693 C1686 1.356 . S
N1693 H1696 0.984 . S
N1693 H1697 0.985 . S
H1694 N1689 0.984 . S
H1695 N1689 0.985 . S
H1696 N1693 0.984 . S
H1697 N1693 0.985 . S
H1698 N1692 0.984 . S
H1699 N1692 0.984 . S
H1700 N1688 0.984 . S
H1701 N1688 0.985 . S
C1702 C1703 1.363 . S
C1702 C1708 1.379 . S
C1702 N1710 1.356 . S
C1703 C1702 1.363 . S
C1703 C1709 1.363 . S
C1704 C1705 1.363 . S
C1704 C1709 1.379 . S
C1704 N1711 1.356 . S
C1705 C1704 1.363 . S
C1705 C1708 1.363 . S
N1706 C1708 1.356 . S
N1706 H1718 0.984 . S
N1706 H1719 0.985 . S
N1707 C1709 1.356 . S
N1707 H1712 0.984 . S
N1707 H1713 0.985 . S
C1708 C1702 1.379 . S
C1708 C1705 1.363 . S
C1708 N1706 1.356 . S
C1709 C1703 1.363 . S
C1709 C1704 1.379 . S
C1709 N1707 1.356 . S
N1710 C1702 1.356 . S
N1710 H1716 0.984 . S
N1710 H1717 0.984 . S
N1711 C1704 1.356 . S
N1711 H1714 0.984 . S
N1711 H1715 0.985 . S
H1712 N1707 0.984 . S
H1713 N1707 0.985 . S
H1714 N1711 0.984 . S
H1715 N1711 0.985 . S
H1716 N1710 0.984 . S
H1717 N1710 0.984 . S
H1718 N1706 0.984 . S
H1719 N1706 0.985 . S
C1720 C1721 1.363 . S
C1720 C1726 1.379 . S
C1720 N1728 1.356 . S
C1721 C1720 1.363 . S
C1721 C1727 1.363 . S
C1722 C1723 1.363 . S
C1722 C1727 1.379 . S
C1722 N1729 1.356 . S
C1723 C1722 1.363 . S
C1723 C1726 1.363 . S
N1724 C1726 1.356 . S
N1724 H1736 0.984 . S
N1724 H1737 0.985 . S
N1725 C1727 1.356 . S
N1725 H1730 0.984 . S
N1725 H1731 0.985 . S
C1726 C1720 1.379 . S
C1726 C1723 1.363 . S
C1726 N1724 1.356 . S
C1727 C1721 1.363 . S
C1727 C1722 1.379 . S
C1727 N1725 1.356 . S
N1728 C1720 1.356 . S
N1728 H1734 0.984 . S
N1728 H1735 0.984 . S
N1729 C1722 1.356 . S
N1729 H1732 0.984 . S
N1729 H1733 0.985 . S
H1730 N1725 0.984 . S
H1731 N1725 0.985 . S
H1732 N1729 0.984 . S
H1733 N1729 0.985 . S
H1734 N1728 0.984 . S
H1735 N1728 0.984 . S
H1736 N1724 0.984 . S
H1737 N1724 0.985 . S
C1738 C1739 1.363 . S
C1738 C1744 1.379 . S
C1738 N1746 1.356 . S
C1739 C1738 1.363 . S
C1739 C1745 1.363 . S
C1740 C1741 1.363 . S
C1740 C1745 1.379 . S
C1740 N1747 1.356 . S
C1741 C1740 1.363 . S
C1741 C1744 1.363 . S
N1742 C1744 1.356 . S
N1742 H1754 0.984 . S
N1742 H1755 0.985 1_655 S
N1743 C1745 1.356 . S
N1743 H1748 0.984 . S
N1743 H1749 0.985 . S
C1744 C1738 1.379 . S
C1744 C1741 1.363 . S
C1744 N1742 1.356 . S
C1745 C1739 1.363 . S
C1745 C1740 1.379 . S
C1745 N1743 1.356 . S
N1746 C1738 1.356 . S
N1746 H1752 0.984 . S
N1746 H1753 0.984 . S
N1747 C1740 1.356 . S
N1747 H1750 0.984 . S
N1747 H1751 0.985 . S
H1748 N1743 0.984 . S
H1749 N1743 0.985 . S
H1750 N1747 0.984 . S
H1751 N1747 0.985 . S
H1752 N1746 0.984 . S
H1753 N1746 0.984 . S
H1754 N1742 0.984 . S
H1755 N1742 0.985 1_455 S
C1756 C1757 1.363 . S
C1756 C1762 1.379 . S
C1756 N1764 1.356 . S
C1757 C1756 1.363 . S
C1757 C1763 1.363 . S
C1758 C1759 1.363 . S
C1758 C1763 1.379 . S
C1758 N1765 1.356 . S
C1759 C1758 1.363 . S
C1759 C1762 1.363 . S
N1760 C1762 1.356 . S
N1760 H1772 0.984 . S
N1760 H1773 0.985 . S
N1761 C1763 1.356 . S
N1761 H1766 0.984 . S
N1761 H1767 0.985 . S
C1762 C1756 1.379 . S
C1762 C1759 1.363 . S
C1762 N1760 1.356 . S
C1763 C1757 1.363 . S
C1763 C1758 1.379 . S
C1763 N1761 1.356 . S
N1764 C1756 1.356 . S
N1764 H1770 0.984 . S
N1764 H1771 0.984 . S
N1765 C1758 1.356 . S
N1765 H1768 0.984 . S
N1765 H1769 0.985 . S
H1766 N1761 0.984 . S
H1767 N1761 0.985 . S
H1768 N1765 0.984 . S
H1769 N1765 0.985 . S
H1770 N1764 0.984 . S
H1771 N1764 0.984 . S
H1772 N1760 0.984 . S
H1773 N1760 0.985 . S
C1774 C1775 1.363 . S
C1774 C1780 1.379 . S
C1774 N1782 1.356 . S
C1775 C1774 1.363 . S
C1775 C1781 1.363 . S
C1776 C1777 1.363 . S
C1776 C1781 1.379 . S
C1776 N1783 1.356 . S
C1777 C1776 1.363 . S
C1777 C1780 1.363 . S
N1778 C1780 1.356 . S
N1778 H1790 0.984 . S
N1778 H1791 0.985 . S
N1779 C1781 1.356 . S
N1779 H1784 0.984 . S
N1779 H1785 0.985 . S
C1780 C1774 1.379 . S
C1780 C1777 1.363 . S
C1780 N1778 1.356 . S
C1781 C1775 1.363 . S
C1781 C1776 1.379 . S
C1781 N1779 1.356 . S
N1782 C1774 1.356 . S
N1782 H1788 0.984 . S
N1782 H1789 0.984 . S
N1783 C1776 1.356 . S
N1783 H1786 0.984 . S
N1783 H1787 0.985 . S
H1784 N1779 0.984 . S
H1785 N1779 0.985 . S
H1786 N1783 0.984 . S
H1787 N1783 0.985 . S
H1788 N1782 0.984 . S
H1789 N1782 0.984 . S
H1790 N1778 0.984 . S
H1791 N1778 0.985 . S
C1792 C1793 1.363 . S
C1792 C1798 1.379 1_455 S
C1792 N1800 1.356 . S
C1793 C1792 1.363 . S
C1793 C1799 1.363 . S
C1794 C1795 1.363 . S
C1794 C1799 1.379 1_655 S
C1794 N1801 1.356 . S
C1795 C1794 1.363 . S
C1795 C1798 1.363 . S
N1796 C1798 1.356 . S
N1796 H1808 0.984 . S
N1796 H1809 0.985 . S
N1797 C1799 1.356 . S
N1797 H1802 0.984 . S
N1797 H1803 0.985 . S
C1798 C1792 1.379 1_655 S
C1798 C1795 1.363 . S
C1798 N1796 1.356 . S
C1799 C1793 1.363 . S
C1799 C1794 1.379 1_455 S
C1799 N1797 1.356 . S
N1800 C1792 1.356 . S
N1800 H1806 0.984 . S
N1800 H1807 0.984 . S
N1801 C1794 1.356 . S
N1801 H1804 0.984 . S
N1801 H1805 0.985 . S
H1802 N1797 0.984 . S
H1803 N1797 0.985 . S
H1804 N1801 0.984 . S
H1805 N1801 0.985 . S
H1806 N1800 0.984 . S
H1807 N1800 0.984 . S
H1808 N1796 0.984 . S
H1809 N1796 0.985 . S
C1810 C1811 1.363 . S
C1810 C1816 1.379 . S
C1810 N1818 1.356 . S
C1811 C1810 1.363 . S
C1811 C1817 1.363 1_455 S
C1812 C1813 1.363 . S
C1812 C1817 1.379 . S
C1812 N1819 1.356 . S
C1813 C1812 1.363 . S
C1813 C1816 1.363 1_655 S
N1814 C1816 1.356 . S
N1814 H1826 0.984 . S
N1814 H1827 0.985 . S
N1815 C1817 1.356 . S
N1815 H1820 0.984 . S
N1815 H1821 0.985 . S
C1816 C1810 1.379 . S
C1816 C1813 1.363 1_455 S
C1816 N1814 1.356 . S
C1817 C1811 1.363 1_655 S
C1817 C1812 1.379 . S
C1817 N1815 1.356 . S
N1818 C1810 1.356 . S
N1818 H1824 0.984 . S
N1818 H1825 0.984 . S
N1819 C1812 1.356 . S
N1819 H1822 0.984 . S
N1819 H1823 0.985 . S
H1820 N1815 0.984 . S
H1821 N1815 0.985 . S
H1822 N1819 0.984 . S
H1823 N1819 0.985 . S
H1824 N1818 0.984 . S
H1825 N1818 0.984 . S
H1826 N1814 0.984 . S
H1827 N1814 0.985 . S
C1828 C1829 1.363 . S
C1828 C1834 1.379 . S
C1828 N1836 1.356 . S
C1829 C1828 1.363 . S
C1829 C1835 1.363 . S
C1830 C1831 1.363 . S
C1830 C1835 1.379 . S
C1830 N1837 1.356 . S
C1831 C1830 1.363 . S
C1831 C1834 1.363 . S
N1832 C1834 1.356 . S
N1832 H1844 0.984 . S
N1832 H1845 0.985 . S
N1833 C1835 1.356 . S
N1833 H1838 0.984 . S
N1833 H1839 0.985 . S
C1834 C1828 1.379 . S
C1834 C1831 1.363 . S
C1834 N1832 1.356 . S
C1835 C1829 1.363 . S
C1835 C1830 1.379 . S
C1835 N1833 1.356 . S
N1836 C1828 1.356 . S
N1836 H1842 0.984 . S
N1836 H1843 0.984 . S
N1837 C1830 1.356 . S
N1837 H1840 0.984 . S
N1837 H1841 0.985 . S
H1838 N1833 0.984 . S
H1839 N1833 0.985 . S
H1840 N1837 0.984 . S
H1841 N1837 0.985 . S
H1842 N1836 0.984 . S
H1843 N1836 0.984 . S
H1844 N1832 0.984 . S
H1845 N1832 0.985 . S
C1846 C1847 1.363 . S
C1846 C1852 1.379 . S
C1846 N1854 1.356 . S
C1847 C1846 1.363 . S
C1847 C1853 1.363 . S
C1848 C1849 1.363 . S
C1848 C1853 1.379 . S
C1848 N1855 1.356 . S
C1849 C1848 1.363 . S
C1849 C1852 1.363 . S
N1850 C1852 1.356 . S
N1850 H1862 0.984 . S
N1850 H1863 0.985 . S
N1851 C1853 1.356 . S
N1851 H1856 0.984 . S
N1851 H1857 0.985 . S
C1852 C1846 1.379 . S
C1852 C1849 1.363 . S
C1852 N1850 1.356 . S
C1853 C1847 1.363 . S
C1853 C1848 1.379 . S
C1853 N1851 1.356 . S
N1854 C1846 1.356 . S
N1854 H1860 0.984 . S
N1854 H1861 0.984 . S
N1855 C1848 1.356 . S
N1855 H1858 0.984 . S
N1855 H1859 0.985 . S
H1856 N1851 0.984 . S
H1857 N1851 0.985 . S
H1858 N1855 0.984 . S
H1859 N1855 0.985 . S
H1860 N1854 0.984 . S
H1861 N1854 0.984 . S
H1862 N1850 0.984 . S
H1863 N1850 0.985 . S
C1864 C1865 1.363 . S
C1864 C1870 1.379 1_655 S
C1864 N1872 1.356 . S
C1865 C1864 1.363 . S
C1865 C1871 1.363 . S
C1866 C1867 1.363 . S
C1866 C1871 1.379 1_455 S
C1866 N1873 1.356 . S
C1867 C1866 1.363 . S
C1867 C1870 1.363 . S
N1868 C1870 1.356 . S
N1868 H1880 0.984 . S
N1868 H1881 0.985 . S
N1869 C1871 1.356 . S
N1869 H1874 0.984 . S
N1869 H1875 0.985 . S
C1870 C1864 1.379 1_455 S
C1870 C1867 1.363 . S
C1870 N1868 1.356 . S
C1871 C1865 1.363 . S
C1871 C1866 1.379 1_655 S
C1871 N1869 1.356 . S
N1872 C1864 1.356 . S
N1872 H1878 0.984 . S
N1872 H1879 0.984 . S
N1873 C1866 1.356 . S
N1873 H1876 0.984 . S
N1873 H1877 0.985 . S
H1874 N1869 0.984 . S
H1875 N1869 0.985 . S
H1876 N1873 0.984 . S
H1877 N1873 0.985 . S
H1878 N1872 0.984 . S
H1879 N1872 0.984 . S
H1880 N1868 0.984 . S
H1881 N1868 0.985 . S
C1882 C1883 1.363 . S
C1882 C1888 1.379 . S
C1882 N1890 1.356 . S
C1883 C1882 1.363 . S
C1883 C1889 1.363 . S
C1884 C1885 1.363 . S
C1884 C1889 1.379 . S
C1884 N1891 1.356 . S
C1885 C1884 1.363 . S
C1885 C1888 1.363 . S
N1886 C1888 1.356 . S
N1886 H1898 0.984 . S
N1886 H1899 0.985 . S
N1887 C1889 1.356 . S
N1887 H1892 0.984 . S
N1887 H1893 0.985 . S
C1888 C1882 1.379 . S
C1888 C1885 1.363 . S
C1888 N1886 1.356 . S
C1889 C1883 1.363 . S
C1889 C1884 1.379 . S
C1889 N1887 1.356 . S
N1890 C1882 1.356 . S
N1890 H1896 0.984 . S
N1890 H1897 0.984 . S
N1891 C1884 1.356 . S
N1891 H1894 0.984 . S
N1891 H1895 0.985 . S
H1892 N1887 0.984 . S
H1893 N1887 0.985 . S
H1894 N1891 0.984 . S
H1895 N1891 0.985 . S
H1896 N1890 0.984 . S
H1897 N1890 0.984 . S
H1898 N1886 0.984 . S
H1899 N1886 0.985 . S
C1900 C1901 1.363 . S
C1900 C1906 1.379 . S
C1900 N1908 1.356 . S
C1901 C1900 1.363 . S
C1901 C1907 1.363 . S
C1902 C1903 1.363 . S
C1902 C1907 1.379 . S
C1902 N1909 1.356 . S
C1903 C1902 1.363 . S
C1903 C1906 1.363 . S
N1904 C1906 1.356 . S
N1904 H1916 0.984 . S
N1904 H1917 0.985 . S
N1905 C1907 1.356 . S
N1905 H1910 0.984 . S
N1905 H1911 0.985 . S
C1906 C1900 1.379 . S
C1906 C1903 1.363 . S
C1906 N1904 1.356 . S
C1907 C1901 1.363 . S
C1907 C1902 1.379 . S
C1907 N1905 1.356 . S
N1908 C1900 1.356 . S
N1908 H1914 0.984 . S
N1908 H1915 0.984 . S
N1909 C1902 1.356 . S
N1909 H1912 0.984 . S
N1909 H1913 0.985 . S
H1910 N1905 0.984 . S
H1911 N1905 0.985 . S
H1912 N1909 0.984 . S
H1913 N1909 0.985 . S
H1914 N1908 0.984 . S
H1915 N1908 0.984 . S
H1916 N1904 0.984 . S
H1917 N1904 0.985 . S
C1918 C1919 1.363 1_455 S
C1918 C1924 1.379 . S
C1918 N1926 1.356 . S
C1919 C1918 1.363 1_655 S
C1919 C1925 1.363 . S
C1920 C1921 1.363 1_655 S
C1920 C1925 1.379 . S
C1920 N1927 1.356 . S
C1921 C1920 1.363 1_455 S
C1921 C1924 1.363 . S
N1922 C1924 1.356 . S
N1922 H1934 0.984 . S
N1922 H1935 0.985 . S
N1923 C1925 1.356 . S
N1923 H1928 0.984 . S
N1923 H1929 0.985 . S
C1924 C1918 1.379 . S
C1924 C1921 1.363 . S
C1924 N1922 1.356 . S
C1925 C1919 1.363 . S
C1925 C1920 1.379 . S
C1925 N1923 1.356 . S
N1926 C1918 1.356 . S
N1926 H1932 0.984 . S
N1926 H1933 0.984 . S
N1927 C1920 1.356 . S
N1927 H1930 0.984 . S
N1927 H1931 0.985 . S
H1928 N1923 0.984 . S
H1929 N1923 0.985 . S
H1930 N1927 0.984 . S
H1931 N1927 0.985 . S
H1932 N1926 0.984 . S
H1933 N1926 0.984 . S
H1934 N1922 0.984 . S
H1935 N1922 0.985 . S
C1936 C1937 1.363 . S
C1936 C1942 1.379 1_455 S
C1936 N1944 1.356 . S
C1937 C1936 1.363 . S
C1937 C1943 1.363 . S
C1938 C1939 1.363 . S
C1938 C1943 1.379 1_655 S
C1938 N1945 1.356 . S
C1939 C1938 1.363 . S
C1939 C1942 1.363 . S
N1940 C1942 1.356 . S
N1940 H1952 0.984 . S
N1940 H1953 0.985 . S
N1941 C1943 1.356 . S
N1941 H1946 0.984 . S
N1941 H1947 0.985 . S
C1942 C1936 1.379 1_655 S
C1942 C1939 1.363 . S
C1942 N1940 1.356 . S
C1943 C1937 1.363 . S
C1943 C1938 1.379 1_455 S
C1943 N1941 1.356 . S
N1944 C1936 1.356 . S
N1944 H1950 0.984 . S
N1944 H1951 0.984 . S
N1945 C1938 1.356 . S
N1945 H1948 0.984 . S
N1945 H1949 0.985 . S
H1946 N1941 0.984 . S
H1947 N1941 0.985 . S
H1948 N1945 0.984 . S
H1949 N1945 0.985 . S
H1950 N1944 0.984 . S
H1951 N1944 0.984 . S
H1952 N1940 0.984 . S
H1953 N1940 0.985 . S
C1954 C1955 1.363 . S
C1954 C1960 1.379 . S
C1954 N1962 1.356 . S
C1955 C1954 1.363 . S
C1955 C1961 1.363 1_455 S
C1956 C1957 1.363 . S
C1956 C1961 1.379 . S
C1956 N1963 1.356 . S
C1957 C1956 1.363 . S
C1957 C1960 1.363 1_655 S
N1958 C1960 1.356 . S
N1958 H1970 0.984 . S
N1958 H1971 0.985 . S
N1959 C1961 1.356 . S
N1959 H1964 0.984 . S
N1959 H1965 0.985 . S
C1960 C1954 1.379 . S
C1960 C1957 1.363 1_455 S
C1960 N1958 1.356 . S
C1961 C1955 1.363 1_655 S
C1961 C1956 1.379 . S
C1961 N1959 1.356 . S
N1962 C1954 1.356 . S
N1962 H1968 0.984 . S
N1962 H1969 0.984 . S
N1963 C1956 1.356 . S
N1963 H1966 0.984 . S
N1963 H1967 0.985 . S
H1964 N1959 0.984 . S
H1965 N1959 0.985 . S
H1966 N1963 0.984 . S
H1967 N1963 0.985 . S
H1968 N1962 0.984 . S
H1969 N1962 0.984 . S
H1970 N1958 0.984 . S
H1971 N1958 0.985 . S
C1972 C1973 1.363 . S
C1972 C1978 1.379 . S
C1972 N1980 1.356 . S
C1973 C1972 1.363 . S
C1973 C1979 1.363 . S
C1974 C1975 1.363 . S
C1974 C1979 1.379 . S
C1974 N1981 1.356 . S
C1975 C1974 1.363 . S
C1975 C1978 1.363 . S
N1976 C1978 1.356 . S
N1976 H1988 0.984 . S
N1976 H1989 0.985 . S
N1977 C1979 1.356 . S
N1977 H1982 0.984 . S
N1977 H1983 0.985 . S
C1978 C1972 1.379 . S
C1978 C1975 1.363 . S
C1978 N1976 1.356 . S
C1979 C1973 1.363 . S
C1979 C1974 1.379 . S
C1979 N1977 1.356 . S
N1980 C1972 1.356 . S
N1980 H1986 0.984 . S
N1980 H1987 0.984 . S
N1981 C1974 1.356 . S
N1981 H1984 0.984 . S
N1981 H1985 0.985 . S
H1982 N1977 0.984 . S
H1983 N1977 0.985 . S
H1984 N1981 0.984 . S
H1985 N1981 0.985 . S
H1986 N1980 0.984 . S
H1987 N1980 0.984 . S
H1988 N1976 0.984 . S
H1989 N1976 0.985 . S
C1990 C1991 1.363 . S
C1990 C1996 1.379 . S
C1990 N1998 1.356 . S
C1991 C1990 1.363 . S
C1991 C1997 1.363 . S
C1992 C1993 1.363 . S
C1992 C1997 1.379 . S
C1992 N1999 1.356 . S
C1993 C1992 1.363 . S
C1993 C1996 1.363 . S
N1994 C1996 1.356 . S
N1994 H2006 0.984 . S
N1994 H2007 0.985 . S
N1995 C1997 1.356 . S
N1995 H2000 0.984 . S
N1995 H2001 0.985 . S
C1996 C1990 1.379 . S
C1996 C1993 1.363 . S
C1996 N1994 1.356 . S
C1997 C1991 1.363 . S
C1997 C1992 1.379 . S
C1997 N1995 1.356 . S
N1998 C1990 1.356 . S
N1998 H2004 0.984 . S
N1998 H2005 0.984 . S
N1999 C1992 1.356 . S
N1999 H2002 0.984 . S
N1999 H2003 0.985 . S
H2000 N1995 0.984 . S
H2001 N1995 0.985 . S
H2002 N1999 0.984 . S
H2003 N1999 0.985 . S
H2004 N1998 0.984 . S
H2005 N1998 0.984 . S
H2006 N1994 0.984 . S
H2007 N1994 0.985 . S
C2008 C2009 1.363 . S
C2008 C2014 1.379 1_655 S
C2008 N2016 1.356 . S
C2009 C2008 1.363 . S
C2009 C2015 1.363 . S
C2010 C2011 1.363 . S
C2010 C2015 1.379 1_455 S
C2010 N2017 1.356 . S
C2011 C2010 1.363 . S
C2011 C2014 1.363 . S
N2012 C2014 1.356 . S
N2012 H2024 0.984 . S
N2012 H2025 0.985 . S
N2013 C2015 1.356 . S
N2013 H2018 0.984 . S
N2013 H2019 0.985 . S
C2014 C2008 1.379 1_455 S
C2014 C2011 1.363 . S
C2014 N2012 1.356 . S
C2015 C2009 1.363 . S
C2015 C2010 1.379 1_655 S
C2015 N2013 1.356 . S
N2016 C2008 1.356 . S
N2016 H2022 0.984 . S
N2016 H2023 0.984 . S
N2017 C2010 1.356 . S
N2017 H2020 0.984 . S
N2017 H2021 0.985 . S
H2018 N2013 0.984 . S
H2019 N2013 0.985 . S
H2020 N2017 0.984 . S
H2021 N2017 0.985 . S
H2022 N2016 0.984 . S
H2023 N2016 0.984 . S
H2024 N2012 0.984 . S
H2025 N2012 0.985 . S
C2026 C2027 1.363 . S
C2026 C2032 1.379 . S
C2026 N2034 1.356 . S
C2027 C2026 1.363 . S
C2027 C2033 1.363 . S
C2028 C2029 1.363 . S
C2028 C2033 1.379 . S
C2028 N2035 1.356 . S
C2029 C2028 1.363 . S
C2029 C2032 1.363 . S
N2030 C2032 1.356 . S
N2030 H2042 0.984 . S
N2030 H2043 0.985 . S
N2031 C2033 1.356 . S
N2031 H2036 0.984 . S
N2031 H2037 0.985 . S
C2032 C2026 1.379 . S
C2032 C2029 1.363 . S
C2032 N2030 1.356 . S
C2033 C2027 1.363 . S
C2033 C2028 1.379 . S
C2033 N2031 1.356 . S
N2034 C2026 1.356 . S
N2034 H2040 0.984 . S
N2034 H2041 0.984 . S
N2035 C2028 1.356 . S
N2035 H2038 0.984 . S
N2035 H2039 0.985 . S
H2036 N2031 0.984 . S
H2037 N2031 0.985 . S
H2038 N2035 0.984 . S
H2039 N2035 0.985 . S
H2040 N2034 0.984 . S
H2041 N2034 0.984 . S
H2042 N2030 0.984 . S
H2043 N2030 0.985 . S
C2044 C2045 1.363 . S
C2044 C2050 1.379 . S
C2044 N2052 1.356 . S
C2045 C2044 1.363 . S
C2045 C2051 1.363 . S
C2046 C2047 1.363 . S
C2046 C2051 1.379 . S
C2046 N2053 1.356 . S
C2047 C2046 1.363 . S
C2047 C2050 1.363 . S
N2048 C2050 1.356 . S
N2048 H2060 0.984 . S
N2048 H2061 0.985 . S
N2049 C2051 1.356 . S
N2049 H2054 0.984 . S
N2049 H2055 0.985 . S
C2050 C2044 1.379 . S
C2050 C2047 1.363 . S
C2050 N2048 1.356 . S
C2051 C2045 1.363 . S
C2051 C2046 1.379 . S
C2051 N2049 1.356 . S
N2052 C2044 1.356 . S
N2052 H2058 0.984 . S
N2052 H2059 0.984 . S
N2053 C2046 1.356 . S
N2053 H2056 0.984 . S
N2053 H2057 0.985 . S
H2054 N2049 0.984 . S
H2055 N2049 0.985 . S
H2056 N2053 0.984 . S
H2057 N2053 0.985 . S
H2058 N2052 0.984 . S
H2059 N2052 0.984 . S
H2060 N2048 0.984 . S
H2061 N2048 0.985 . S
C2062 C2063 1.363 1_455 S
C2062 C2068 1.379 . S
C2062 N2070 1.356 . S
C2063 C2062 1.363 1_655 S
C2063 C2069 1.363 . S
C2064 C2065 1.363 1_655 S
C2064 C2069 1.379 . S
C2064 N2071 1.356 . S
C2065 C2064 1.363 1_455 S
C2065 C2068 1.363 . S
N2066 C2068 1.356 . S
N2066 H2078 0.984 . S
N2066 H2079 0.985 . S
N2067 C2069 1.356 . S
N2067 H2072 0.984 . S
N2067 H2073 0.985 . S
C2068 C2062 1.379 . S
C2068 C2065 1.363 . S
C2068 N2066 1.356 . S
C2069 C2063 1.363 . S
C2069 C2064 1.379 . S
C2069 N2067 1.356 . S
N2070 C2062 1.356 . S
N2070 H2076 0.984 . S
N2070 H2077 0.984 . S
N2071 C2064 1.356 . S
N2071 H2074 0.984 . S
N2071 H2075 0.985 . S
H2072 N2067 0.984 . S
H2073 N2067 0.985 . S
H2074 N2071 0.984 . S
H2075 N2071 0.985 . S
H2076 N2070 0.984 . S
H2077 N2070 0.984 . S
H2078 N2066 0.984 . S
H2079 N2066 0.985 . S
C2080 C2081 1.363 . S
C2080 C2086 1.379 . S
C2080 N2088 1.356 . S
C2081 C2080 1.363 . S
C2081 C2087 1.363 . S
C2082 C2083 1.363 . S
C2082 C2087 1.379 . S
C2082 N2089 1.356 . S
C2083 C2082 1.363 . S
C2083 C2086 1.363 . S
N2084 C2086 1.356 . S
N2084 H2096 0.984 . S
N2084 H2097 0.985 . S
N2085 C2087 1.356 . S
N2085 H2090 0.984 . S
N2085 H2091 0.985 . S
C2086 C2080 1.379 . S
C2086 C2083 1.363 . S
C2086 N2084 1.356 . S
C2087 C2081 1.363 . S
C2087 C2082 1.379 . S
C2087 N2085 1.356 . S
N2088 C2080 1.356 . S
N2088 H2094 0.984 . S
N2088 H2095 0.984 . S
N2089 C2082 1.356 . S
N2089 H2092 0.984 . S
N2089 H2093 0.985 . S
H2090 N2085 0.984 . S
H2091 N2085 0.985 . S
H2092 N2089 0.984 . S
H2093 N2089 0.985 . S
H2094 N2088 0.984 . S
H2095 N2088 0.984 . S
H2096 N2084 0.984 . S
H2097 N2084 0.985 . S
C2098 C2099 1.363 . S
C2098 C2104 1.379 . S
C2098 N2106 1.356 . S
C2099 C2098 1.363 . S
C2099 C2105 1.363 . S
C2100 C2101 1.363 . S
C2100 C2105 1.379 . S
C2100 N2107 1.356 . S
C2101 C2100 1.363 . S
C2101 C2104 1.363 . S
N2102 C2104 1.356 . S
N2102 H2114 0.984 . S
N2102 H2115 0.985 . S
N2103 C2105 1.356 . S
N2103 H2108 0.984 . S
N2103 H2109 0.985 . S
C2104 C2098 1.379 . S
C2104 C2101 1.363 . S
C2104 N2102 1.356 . S
C2105 C2099 1.363 . S
C2105 C2100 1.379 . S
C2105 N2103 1.356 . S
N2106 C2098 1.356 . S
N2106 H2112 0.984 . S
N2106 H2113 0.984 . S
N2107 C2100 1.356 . S
N2107 H2110 0.984 . S
N2107 H2111 0.985 . S
H2108 N2103 0.984 . S
H2109 N2103 0.985 . S
H2110 N2107 0.984 . S
H2111 N2107 0.985 . S
H2112 N2106 0.984 . S
H2113 N2106 0.984 . S
H2114 N2102 0.984 . S
H2115 N2102 0.985 . S
C2116 C2117 1.363 . S
C2116 C2122 1.379 . S
C2116 N2124 1.356 . S
C2117 C2116 1.363 . S
C2117 C2123 1.363 . S
C2118 C2119 1.363 . S
C2118 C2123 1.379 . S
C2118 N2125 1.356 . S
C2119 C2118 1.363 . S
C2119 C2122 1.363 . S
N2120 C2122 1.356 . S
N2120 H2132 0.984 . S
N2120 H2133 0.985 . S
N2121 C2123 1.356 . S
N2121 H2126 0.984 . S
N2121 H2127 0.985 . S
C2122 C2116 1.379 . S
C2122 C2119 1.363 . S
C2122 N2120 1.356 . S
C2123 C2117 1.363 . S
C2123 C2118 1.379 . S
C2123 N2121 1.356 . S
N2124 C2116 1.356 . S
N2124 H2130 0.984 . S
N2124 H2131 0.984 . S
N2125 C2118 1.356 . S
N2125 H2128 0.984 . S
N2125 H2129 0.985 . S
H2126 N2121 0.984 . S
H2127 N2121 0.985 . S
H2128 N2125 0.984 . S
H2129 N2125 0.985 . S
H2130 N2124 0.984 . S
H2131 N2124 0.984 . S
H2132 N2120 0.984 . S
H2133 N2120 0.985 . S
C2134 C2135 1.363 . S
C2134 C2140 1.379 . S
C2134 N2142 1.356 . S
C2135 C2134 1.363 . S
C2135 C2141 1.363 . S
C2136 C2137 1.363 . S
C2136 C2141 1.379 . S
C2136 N2143 1.356 . S
C2137 C2136 1.363 . S
C2137 C2140 1.363 . S
N2138 C2140 1.356 . S
N2138 H2150 0.984 . S
N2138 H2151 0.985 . S
N2139 C2141 1.356 . S
N2139 H2144 0.984 . S
N2139 H2145 0.985 . S
C2140 C2134 1.379 . S
C2140 C2137 1.363 . S
C2140 N2138 1.356 . S
C2141 C2135 1.363 . S
C2141 C2136 1.379 . S
C2141 N2139 1.356 . S
N2142 C2134 1.356 . S
N2142 H2148 0.984 . S
N2142 H2149 0.984 . S
N2143 C2136 1.356 . S
N2143 H2146 0.984 . S
N2143 H2147 0.985 . S
H2144 N2139 0.984 . S
H2145 N2139 0.985 . S
H2146 N2143 0.984 . S
H2147 N2143 0.985 . S
H2148 N2142 0.984 . S
H2149 N2142 0.984 . S
H2150 N2138 0.984 . S
H2151 N2138 0.985 . S
C2152 C2153 1.363 . S
C2152 C2158 1.379 . S
C2152 N2160 1.356 . S
C2153 C2152 1.363 . S
C2153 C2159 1.363 . S
C2154 C2155 1.363 . S
C2154 C2159 1.379 . S
C2154 N2161 1.356 . S
C2155 C2154 1.363 . S
C2155 C2158 1.363 . S
N2156 C2158 1.356 . S
N2156 H2168 0.984 . S
N2156 H2169 0.985 . S
N2157 C2159 1.356 . S
N2157 H2162 0.984 . S
N2157 H2163 0.985 . S
C2158 C2152 1.379 . S
C2158 C2155 1.363 . S
C2158 N2156 1.356 . S
C2159 C2153 1.363 . S
C2159 C2154 1.379 . S
C2159 N2157 1.356 . S
N2160 C2152 1.356 . S
N2160 H2166 0.984 . S
N2160 H2167 0.984 . S
N2161 C2154 1.356 . S
N2161 H2164 0.984 . S
N2161 H2165 0.985 . S
H2162 N2157 0.984 . S
H2163 N2157 0.985 . S
H2164 N2161 0.984 . S
H2165 N2161 0.985 . S
H2166 N2160 0.984 . S
H2167 N2160 0.984 . S
H2168 N2156 0.984 . S
H2169 N2156 0.985 . S
C2170 C2171 1.363 . S
C2170 C2176 1.379 . S
C2170 N2178 1.356 . S
C2171 C2170 1.363 . S
C2171 C2177 1.363 . S
C2172 C2173 1.363 . S
C2172 C2177 1.379 . S
C2172 N2179 1.356 . S
C2173 C2172 1.363 . S
C2173 C2176 1.363 . S
N2174 C2176 1.356 . S
N2174 H2186 0.984 . S
N2174 H2187 0.985 . S
N2175 C2177 1.356 . S
N2175 H2180 0.984 . S
N2175 H2181 0.985 . S
C2176 C2170 1.379 . S
C2176 C2173 1.363 . S
C2176 N2174 1.356 . S
C2177 C2171 1.363 . S
C2177 C2172 1.379 . S
C2177 N2175 1.356 . S
N2178 C2170 1.356 . S
N2178 H2184 0.984 . S
N2178 H2185 0.984 . S
N2179 C2172 1.356 . S
N2179 H2182 0.984 . S
N2179 H2183 0.985 . S
H2180 N2175 0.984 . S
H2181 N2175 0.985 . S
H2182 N2179 0.984 . S
H2183 N2179 0.985 . S
H2184 N2178 0.984 . S
H2185 N2178 0.984 . S
H2186 N2174 0.984 . S
H2187 N2174 0.985 . S
C2188 C2189 1.363 . S
C2188 C2194 1.379 . S
C2188 N2196 1.356 . S
C2189 C2188 1.363 . S
C2189 C2195 1.363 . S
C2190 C2191 1.363 . S
C2190 C2195 1.379 . S
C2190 N2197 1.356 . S
C2191 C2190 1.363 . S
C2191 C2194 1.363 . S
N2192 C2194 1.356 . S
N2192 H2204 0.984 . S
N2192 H2205 0.985 . S
N2193 C2195 1.356 . S
N2193 H2198 0.984 . S
N2193 H2199 0.985 . S
C2194 C2188 1.379 . S
C2194 C2191 1.363 . S
C2194 N2192 1.356 . S
C2195 C2189 1.363 . S
C2195 C2190 1.379 . S
C2195 N2193 1.356 . S
N2196 C2188 1.356 . S
N2196 H2202 0.984 . S
N2196 H2203 0.984 . S
N2197 C2190 1.356 . S
N2197 H2200 0.984 . S
N2197 H2201 0.985 . S
H2198 N2193 0.984 . S
H2199 N2193 0.985 . S
H2200 N2197 0.984 . S
H2201 N2197 0.985 . S
H2202 N2196 0.984 . S
H2203 N2196 0.984 . S
H2204 N2192 0.984 . S
H2205 N2192 0.985 . S
C2206 C2207 1.363 . S
C2206 C2212 1.379 . S
C2206 N2214 1.356 . S
C2207 C2206 1.363 . S
C2207 C2213 1.363 . S
C2208 C2209 1.363 . S
C2208 C2213 1.379 . S
C2208 N2215 1.356 . S
C2209 C2208 1.363 . S
C2209 C2212 1.363 . S
N2210 C2212 1.356 . S
N2210 H2222 0.984 . S
N2210 H2223 0.985 . S
N2211 C2213 1.356 . S
N2211 H2216 0.984 . S
N2211 H2217 0.985 . S
C2212 C2206 1.379 . S
C2212 C2209 1.363 . S
C2212 N2210 1.356 . S
C2213 C2207 1.363 . S
C2213 C2208 1.379 . S
C2213 N2211 1.356 . S
N2214 C2206 1.356 . S
N2214 H2220 0.984 . S
N2214 H2221 0.984 . S
N2215 C2208 1.356 . S
N2215 H2218 0.984 . S
N2215 H2219 0.985 . S
H2216 N2211 0.984 . S
H2217 N2211 0.985 . S
H2218 N2215 0.984 . S
H2219 N2215 0.985 . S
H2220 N2214 0.984 . S
H2221 N2214 0.984 . S
H2222 N2210 0.984 . S
H2223 N2210 0.985 . S
C2224 C2225 1.363 . S
C2224 C2230 1.379 . S
C2224 N2232 1.356 . S
C2225 C2224 1.363 . S
C2225 C2231 1.363 . S
C2226 C2227 1.363 . S
C2226 C2231 1.379 . S
C2226 N2233 1.356 . S
C2227 C2226 1.363 . S
C2227 C2230 1.363 . S
N2228 C2230 1.356 . S
N2228 H2240 0.984 . S
N2228 H2241 0.985 . S
N2229 C2231 1.356 . S
N2229 H2234 0.984 . S
N2229 H2235 0.985 . S
C2230 C2224 1.379 . S
C2230 C2227 1.363 . S
C2230 N2228 1.356 . S
C2231 C2225 1.363 . S
C2231 C2226 1.379 . S
C2231 N2229 1.356 . S
N2232 C2224 1.356 . S
N2232 H2238 0.984 . S
N2232 H2239 0.984 . S
N2233 C2226 1.356 . S
N2233 H2236 0.984 . S
N2233 H2237 0.985 . S
H2234 N2229 0.984 . S
H2235 N2229 0.985 . S
H2236 N2233 0.984 . S
H2237 N2233 0.985 . S
H2238 N2232 0.984 . S
H2239 N2232 0.984 . S
H2240 N2228 0.984 . S
H2241 N2228 0.985 . S
C2242 C2243 1.363 . S
C2242 C2248 1.379 . S
C2242 N2250 1.356 . S
C2243 C2242 1.363 . S
C2243 C2249 1.363 . S
C2244 C2245 1.363 . S
C2244 C2249 1.379 . S
C2244 N2251 1.356 . S
C2245 C2244 1.363 . S
C2245 C2248 1.363 . S
N2246 C2248 1.356 . S
N2246 H2258 0.984 . S
N2246 H2259 0.985 . S
N2247 C2249 1.356 . S
N2247 H2252 0.984 . S
N2247 H2253 0.985 . S
C2248 C2242 1.379 . S
C2248 C2245 1.363 . S
C2248 N2246 1.356 . S
C2249 C2243 1.363 . S
C2249 C2244 1.379 . S
C2249 N2247 1.356 . S
N2250 C2242 1.356 . S
N2250 H2256 0.984 . S
N2250 H2257 0.984 . S
N2251 C2244 1.356 . S
N2251 H2254 0.984 . S
N2251 H2255 0.985 . S
H2252 N2247 0.984 . S
H2253 N2247 0.985 . S
H2254 N2251 0.984 . S
H2255 N2251 0.985 . S
H2256 N2250 0.984 . S
H2257 N2250 0.984 . S
H2258 N2246 0.984 . S
H2259 N2246 0.985 . S
C2260 C2261 1.363 . S
C2260 C2266 1.379 . S
C2260 N2268 1.356 . S
C2261 C2260 1.363 . S
C2261 C2267 1.363 . S
C2262 C2263 1.363 . S
C2262 C2267 1.379 . S
C2262 N2269 1.356 . S
C2263 C2262 1.363 . S
C2263 C2266 1.363 . S
N2264 C2266 1.356 . S
N2264 H2276 0.984 . S
N2264 H2277 0.985 . S
N2265 C2267 1.356 . S
N2265 H2270 0.984 . S
N2265 H2271 0.985 . S
C2266 C2260 1.379 . S
C2266 C2263 1.363 . S
C2266 N2264 1.356 . S
C2267 C2261 1.363 . S
C2267 C2262 1.379 . S
C2267 N2265 1.356 . S
N2268 C2260 1.356 . S
N2268 H2274 0.984 . S
N2268 H2275 0.984 . S
N2269 C2262 1.356 . S
N2269 H2272 0.984 . S
N2269 H2273 0.985 . S
H2270 N2265 0.984 . S
H2271 N2265 0.985 . S
H2272 N2269 0.984 . S
H2273 N2269 0.985 . S
H2274 N2268 0.984 . S
H2275 N2268 0.984 . S
H2276 N2264 0.984 . S
H2277 N2264 0.985 . S
C2278 C2279 1.363 . S
C2278 C2284 1.379 . S
C2278 N2286 1.356 . S
C2279 C2278 1.363 . S
C2279 C2285 1.363 . S
C2280 C2281 1.363 . S
C2280 C2285 1.379 . S
C2280 N2287 1.356 . S
C2281 C2280 1.363 . S
C2281 C2284 1.363 . S
N2282 C2284 1.356 . S
N2282 H2294 0.984 . S
N2282 H2295 0.985 . S
N2283 C2285 1.356 . S
N2283 H2288 0.984 . S
N2283 H2289 0.985 . S
C2284 C2278 1.379 . S
C2284 C2281 1.363 . S
C2284 N2282 1.356 . S
C2285 C2279 1.363 . S
C2285 C2280 1.379 . S
C2285 N2283 1.356 . S
N2286 C2278 1.356 . S
N2286 H2292 0.984 . S
N2286 H2293 0.984 . S
N2287 C2280 1.356 . S
N2287 H2290 0.984 . S
N2287 H2291 0.985 . S
H2288 N2283 0.984 . S
H2289 N2283 0.985 . S
H2290 N2287 0.984 . S
H2291 N2287 0.985 . S
H2292 N2286 0.984 . S
H2293 N2286 0.984 . S
H2294 N2282 0.984 . S
H2295 N2282 0.985 . S
C2296 C2297 1.363 . S
C2296 C2302 1.379 . S
C2296 N2304 1.356 . S
C2297 C2296 1.363 . S
C2297 C2303 1.363 . S
C2298 C2299 1.363 . S
C2298 C2303 1.379 . S
C2298 N2305 1.356 . S
C2299 C2298 1.363 . S
C2299 C2302 1.363 . S
N2300 C2302 1.356 . S
N2300 H2312 0.984 . S
N2300 H2313 0.985 . S
N2301 C2303 1.356 . S
N2301 H2306 0.984 . S
N2301 H2307 0.985 . S
C2302 C2296 1.379 . S
C2302 C2299 1.363 . S
C2302 N2300 1.356 . S
C2303 C2297 1.363 . S
C2303 C2298 1.379 . S
C2303 N2301 1.356 . S
N2304 C2296 1.356 . S
N2304 H2310 0.984 . S
N2304 H2311 0.984 . S
N2305 C2298 1.356 . S
N2305 H2308 0.984 . S
N2305 H2309 0.985 . S
H2306 N2301 0.984 . S
H2307 N2301 0.985 . S
H2308 N2305 0.984 . S
H2309 N2305 0.985 . S
H2310 N2304 0.984 . S
H2311 N2304 0.984 . S
H2312 N2300 0.984 . S
H2313 N2300 0.985 . S
C2314 C2315 1.363 . S
C2314 C2320 1.379 . S
C2314 N2322 1.356 . S
C2315 C2314 1.363 . S
C2315 C2321 1.363 . S
C2316 C2317 1.363 . S
C2316 C2321 1.379 . S
C2316 N2323 1.356 . S
C2317 C2316 1.363 . S
C2317 C2320 1.363 . S
N2318 C2320 1.356 . S
N2318 H2330 0.984 . S
N2318 H2331 0.985 . S
N2319 C2321 1.356 . S
N2319 H2324 0.984 . S
N2319 H2325 0.985 . S
C2320 C2314 1.379 . S
C2320 C2317 1.363 . S
C2320 N2318 1.356 . S
C2321 C2315 1.363 . S
C2321 C2316 1.379 . S
C2321 N2319 1.356 . S
N2322 C2314 1.356 . S
N2322 H2328 0.984 . S
N2322 H2329 0.984 . S
N2323 C2316 1.356 . S
N2323 H2326 0.984 . S
N2323 H2327 0.985 . S
H2324 N2319 0.984 . S
H2325 N2319 0.985 . S
H2326 N2323 0.984 . S
H2327 N2323 0.985 . S
H2328 N2322 0.984 . S
H2329 N2322 0.984 . S
H2330 N2318 0.984 . S
H2331 N2318 0.985 . S
C2332 C2333 1.363 . S
C2332 C2338 1.379 . S
C2332 N2340 1.356 . S
C2333 C2332 1.363 . S
C2333 C2339 1.363 . S
C2334 C2335 1.363 . S
C2334 C2339 1.379 . S
C2334 N2341 1.356 . S
C2335 C2334 1.363 . S
C2335 C2338 1.363 . S
N2336 C2338 1.356 . S
N2336 H2348 0.984 . S
N2336 H2349 0.985 . S
N2337 C2339 1.356 . S
N2337 H2342 0.984 . S
N2337 H2343 0.985 . S
C2338 C2332 1.379 . S
C2338 C2335 1.363 . S
C2338 N2336 1.356 . S
C2339 C2333 1.363 . S
C2339 C2334 1.379 . S
C2339 N2337 1.356 . S
N2340 C2332 1.356 . S
N2340 H2346 0.984 . S
N2340 H2347 0.984 . S
N2341 C2334 1.356 . S
N2341 H2344 0.984 . S
N2341 H2345 0.985 . S
H2342 N2337 0.984 . S
H2343 N2337 0.985 . S
H2344 N2341 0.984 . S
H2345 N2341 0.985 . S
H2346 N2340 0.984 . S
H2347 N2340 0.984 . S
H2348 N2336 0.984 . S
H2349 N2336 0.985 . S
C2350 C2351 1.363 . S
C2350 C2356 1.379 . S
C2350 N2358 1.356 . S
C2351 C2350 1.363 . S
C2351 C2357 1.363 . S
C2352 C2353 1.363 . S
C2352 C2357 1.379 . S
C2352 N2359 1.356 . S
C2353 C2352 1.363 . S
C2353 C2356 1.363 . S
N2354 C2356 1.356 . S
N2354 H2366 0.984 . S
N2354 H2367 0.985 . S
N2355 C2357 1.356 . S
N2355 H2360 0.984 . S
N2355 H2361 0.985 . S
C2356 C2350 1.379 . S
C2356 C2353 1.363 . S
C2356 N2354 1.356 . S
C2357 C2351 1.363 . S
C2357 C2352 1.379 . S
C2357 N2355 1.356 . S
N2358 C2350 1.356 . S
N2358 H2364 0.984 . S
N2358 H2365 0.984 . S
N2359 C2352 1.356 . S
N2359 H2362 0.984 . S
N2359 H2363 0.985 . S
H2360 N2355 0.984 . S
H2361 N2355 0.985 . S
H2362 N2359 0.984 . S
H2363 N2359 0.985 . S
H2364 N2358 0.984 . S
H2365 N2358 0.984 . S
H2366 N2354 0.984 . S
H2367 N2354 0.985 . S
C641 C5 1.612 . S
C643 C94 1.612 . S
C659 C114 1.612 . S
C661 C34 1.612 . S
C677 C134 1.612 . S
C679 C54 1.612 . S
C695 C74 1.620 . S
C697 C145 1.620 . S
C713 C174 1.612 . S
C715 C254 1.612 . S
C731 C194 1.612 . S
C733 C274 1.612 . S
C749 C214 1.612 . S
C751 C294 1.612 . S
C767 C314 1.620 . S
C769 C234 1.620 . S
C785 C325 1.612 . S
C787 C414 1.612 . S
C803 C434 1.620 . S
C805 C354 1.620 . S
C821 C374 1.612 . S
C823 C454 1.612 . S
C839 C465 1.612 . S
C841 C394 1.612 . S
C857 C494 1.612 . S
C859 C574 1.612 . S
C875 C514 1.620 . S
C877 C594 1.620 . S
C893 C534 1.612 . S
C895 C614 1.612 . S
C911 C554 1.612 . S
C913 C634 1.612 . S
C929 C482 2.695 . S
C931 C13 2.695 . S
C947 C182 2.695 . S
C949 C22 2.695 . S
C965 C42 2.695 . S
C967 C522 2.695 . S
C983 C62 2.695 . S
C985 C222 2.695 . S
C1001 C82 2.695 . S
C1003 C562 2.695 . S
C1019 C102 2.695 . S
C1021 C262 2.695 . S
C1037 C602 2.695 . S
C1039 C122 2.695 . S
C1055 C302 2.695 . S
C1057 C153 2.695 . S
C1073 C333 2.695 . S
C1075 C162 2.695 . S
C1091 C202 2.695 . S
C1093 C362 2.695 . S
C1109 C242 2.695 . S
C1111 C402 2.695 . S
C1127 C442 2.695 . S
C1129 C282 2.695 . S
C1145 C342 2.695 . S
C1147 C502 2.695 . S
C1163 C542 2.695 . S
C1165 C382 2.695 . S
C1181 C582 2.695 . S
C1183 C422 2.695 . S
C1199 C473 2.695 . S
C1201 C622 2.695 . S
C1217 C14 1.309 . S
C1219 C553 1.351 . S
C1235 C25 1.309 . S
C1237 C173 1.351 . S
C1253 C45 1.309 . S
C1255 C513 1.351 . S
C1271 C213 1.351 . S
C1273 C65 1.309 . S
C1289 C593 1.351 . S
C1291 C85 1.309 . S
C1307 C105 1.309 . S
C1309 C293 1.351 . S
C1325 C633 1.351 . S
C1327 C125 1.309 . S
C1343 C253 1.351 . S
C1345 C154 1.309 . S
C1361 C393 1.351 . S
C1363 C165 1.309 . S
C1379 C185 1.309 . S
C1381 C2 1.351 . S
C1397 C353 1.351 . S
C1399 C205 1.309 . S
C1415 C53 1.351 . S
C1417 C225 1.309 . S
C1433 C433 1.351 . S
C1435 C245 1.309 . S
C1451 C265 1.309 . S
C1453 C133 1.351 . S
C1469 C285 1.309 . S
C1471 C462 1.351 . S
C1487 C93 1.351 . S
C1489 C305 1.309 . S
C1505 C334 1.309 . S
C1507 C233 1.351 . S
C1523 C345 1.309 . S
C1525 C493 1.351 . S
C1541 C193 1.351 . S
C1543 C365 1.309 . S
C1559 C385 1.309 . S
C1561 C533 1.351 . S
C1577 C273 1.351 . S
C1579 C405 1.309 . S
C1595 C425 1.309 . S
C1597 C613 1.351 . S
C1613 C313 1.351 . S
C1615 C445 1.309 . S
C1631 C474 1.309 . S
C1633 C573 1.351 . S
C1649 C73 1.351 . S
C1651 C485 1.309 . S
C1667 C505 1.309 . S
C1669 C322 1.351 . S
C1685 C525 1.309 . S
C1687 C33 1.351 . S
C1703 C373 1.351 . S
C1705 C545 1.309 . S
C1721 C113 1.351 . S
C1723 C565 1.309 . S
C1739 C453 1.351 . S
C1741 C585 1.309 . S
C1757 C605 1.309 . S
C1759 C142 1.351 . S
C1775 C413 1.351 . S
C1777 C625 1.309 . S
C1793 C17 1.814 . S
C1795 C368 1.814 . S
C1811 C28 1.814 . S
C1813 C388 1.814 . S
C1829 C48 1.814 . S
C1831 C337 1.814 . S
C1847 C68 1.814 . S
C1849 C348 1.814 . S
C1865 C448 1.814 . S
C1867 C88 1.814 . S
C1883 C477 1.814 . S
C1885 C108 1.814 . S
C1901 C128 1.814 . S
C1903 C408 1.814 . S
C1919 C428 1.814 . S
C1921 C157 1.814 . S
C1937 C528 1.814 . S
C1939 C168 1.814 . S
C1955 C548 1.814 . S
C1957 C188 1.814 . S
C1973 C488 1.814 . S
C1975 C208 1.814 . S
C1991 C228 1.814 . S
C1993 C508 1.814 . S
C2009 C248 1.814 . S
C2011 C608 1.814 . S
C2027 C628 1.814 . S
C2029 C268 1.814 . S
C2045 C568 1.814 . S
C2047 C288 1.814 . S
C2063 C308 1.814 . S
C2065 C588 1.814 . S
C2081 C148 3.034 . S
C2083 C8 3.034 . S
C2099 C37 3.034 . S
C2101 C97 3.034 . S
C2117 C57 3.034 . S
C2119 C117 3.034 . S
C2135 C137 3.034 . S
C2137 C77 3.034 . S
C2153 C317 3.034 . S
C2155 C177 3.034 . S
C2171 C197 3.034 . S
C2173 C257 3.034 . S
C2189 C277 3.034 . S
C2191 C217 3.034 . S
C2207 C297 3.034 . S
C2209 C237 3.034 . S
C2225 C468 3.034 . S
C2227 C328 3.034 . S
C2243 C417 3.034 . S
C2245 C357 3.034 . S
C2261 C437 3.034 . S
C2263 C377 3.034 . S
C2279 C397 3.034 . S
C2281 C457 3.034 . S
C2297 C637 3.034 . S
C2299 C497 3.034 . S
C2315 C577 3.034 . S
C2317 C517 3.034 . S
C2333 C597 3.034 . S
C2335 C537 3.034 . S
C2351 C557 3.034 . S
C2353 C617 3.034 . S
