# Generated by pormake.
# Topology yfj, (5)-cn, num edge types: 1
# Building blocks:
#     Node 0, Type 0, BuildingBlock: XOMCOT_clean_sbu_0, # of connection points: 5
#     Node 1, Type 0, BuildingBlock: XOMCOT_clean_sbu_0, # of connection points: 5
#     Node 2, Type 0, BuildingBlock: XOMCOT_clean_sbu_0, # of connection points: 5
#     Node 3, Type 0, BuildingBlock: XOMCOT_clean_sbu_0, # of connection points: 5
#     Node 4, Type 0, BuildingBlock: XOMCOT_clean_sbu_0, # of connection points: 5
#     Node 5, Type 0, BuildingBlock: XOMCOT_clean_sbu_0, # of connection points: 5
#     Node 6, Type 0, BuildingBlock: XOMCOT_clean_sbu_0, # of connection points: 5
#     Node 7, Type 0, BuildingBlock: XOMCOT_clean_sbu_0, # of connection points: 5
#     Node 8, Type 0, BuildingBlock: XOMCOT_clean_sbu_0, # of connection points: 5
#     Node 9, Type 0, BuildingBlock: XOMCOT_clean_sbu_0, # of connection points: 5
#     Node 10, Type 0, BuildingBlock: XOMCOT_clean_sbu_0, # of connection points: 5
#     Node 11, Type 0, BuildingBlock: XOMCOT_clean_sbu_0, # of connection points: 5
#     Node 12, Type 0, BuildingBlock: XOMCOT_clean_sbu_0, # of connection points: 5
#     Node 13, Type 0, BuildingBlock: XOMCOT_clean_sbu_0, # of connection points: 5
#     Node 14, Type 0, BuildingBlock: XOMCOT_clean_sbu_0, # of connection points: 5
#     Node 15, Type 0, BuildingBlock: XOMCOT_clean_sbu_0, # of connection points: 5
#     Edge 16, Type (0, 0), BuildingBlock: TEMPAE_clean_linker_10, # of connection points: 2
#     Edge 17, Type (0, 0), BuildingBlock: TEMPAE_clean_linker_10, # of connection points: 2
#     Edge 18, Type (0, 0), BuildingBlock: TEMPAE_clean_linker_10, # of connection points: 2
#     Edge 19, Type (0, 0), BuildingBlock: TEMPAE_clean_linker_10, # of connection points: 2
#     Edge 20, Type (0, 0), BuildingBlock: TEMPAE_clean_linker_10, # of connection points: 2
#     Edge 21, Type (0, 0), BuildingBlock: TEMPAE_clean_linker_10, # of connection points: 2
#     Edge 22, Type (0, 0), BuildingBlock: TEMPAE_clean_linker_10, # of connection points: 2
#     Edge 23, Type (0, 0), BuildingBlock: TEMPAE_clean_linker_10, # of connection points: 2
#     Edge 24, Type (0, 0), BuildingBlock: TEMPAE_clean_linker_10, # of connection points: 2
#     Edge 25, Type (0, 0), BuildingBlock: TEMPAE_clean_linker_10, # of connection points: 2
#     Edge 26, Type (0, 0), BuildingBlock: TEMPAE_clean_linker_10, # of connection points: 2
#     Edge 27, Type (0, 0), BuildingBlock: TEMPAE_clean_linker_10, # of connection points: 2
#     Edge 28, Type (0, 0), BuildingBlock: TEMPAE_clean_linker_10, # of connection points: 2
#     Edge 29, Type (0, 0), BuildingBlock: TEMPAE_clean_linker_10, # of connection points: 2
#     Edge 30, Type (0, 0), BuildingBlock: TEMPAE_clean_linker_10, # of connection points: 2
#     Edge 31, Type (0, 0), BuildingBlock: TEMPAE_clean_linker_10, # of connection points: 2
#     Edge 32, Type (0, 0), BuildingBlock: TEMPAE_clean_linker_10, # of connection points: 2
#     Edge 33, Type (0, 0), BuildingBlock: TEMPAE_clean_linker_10, # of connection points: 2
#     Edge 34, Type (0, 0), BuildingBlock: TEMPAE_clean_linker_10, # of connection points: 2
#     Edge 35, Type (0, 0), BuildingBlock: TEMPAE_clean_linker_10, # of connection points: 2
#     Edge 36, Type (0, 0), BuildingBlock: TEMPAE_clean_linker_10, # of connection points: 2
#     Edge 37, Type (0, 0), BuildingBlock: TEMPAE_clean_linker_10, # of connection points: 2
#     Edge 38, Type (0, 0), BuildingBlock: TEMPAE_clean_linker_10, # of connection points: 2
#     Edge 39, Type (0, 0), BuildingBlock: TEMPAE_clean_linker_10, # of connection points: 2
#     Edge 40, Type (0, 0), BuildingBlock: TEMPAE_clean_linker_10, # of connection points: 2
#     Edge 41, Type (0, 0), BuildingBlock: TEMPAE_clean_linker_10, # of connection points: 2
#     Edge 42, Type (0, 0), BuildingBlock: TEMPAE_clean_linker_10, # of connection points: 2
#     Edge 43, Type (0, 0), BuildingBlock: TEMPAE_clean_linker_10, # of connection points: 2
#     Edge 44, Type (0, 0), BuildingBlock: TEMPAE_clean_linker_10, # of connection points: 2
#     Edge 45, Type (0, 0), BuildingBlock: TEMPAE_clean_linker_10, # of connection points: 2
#     Edge 46, Type (0, 0), BuildingBlock: TEMPAE_clean_linker_10, # of connection points: 2
#     Edge 47, Type (0, 0), BuildingBlock: TEMPAE_clean_linker_10, # of connection points: 2
#     Edge 48, Type (0, 0), BuildingBlock: TEMPAE_clean_linker_10, # of connection points: 2
#     Edge 49, Type (0, 0), BuildingBlock: TEMPAE_clean_linker_10, # of connection points: 2
#     Edge 50, Type (0, 0), BuildingBlock: TEMPAE_clean_linker_10, # of connection points: 2
#     Edge 51, Type (0, 0), BuildingBlock: TEMPAE_clean_linker_10, # of connection points: 2
#     Edge 52, Type (0, 0), BuildingBlock: TEMPAE_clean_linker_10, # of connection points: 2
#     Edge 53, Type (0, 0), BuildingBlock: TEMPAE_clean_linker_10, # of connection points: 2
#     Edge 54, Type (0, 0), BuildingBlock: TEMPAE_clean_linker_10, # of connection points: 2
#     Edge 55, Type (0, 0), BuildingBlock: TEMPAE_clean_linker_10, # of connection points: 2
# Relax obj value: 0.402
# Max RMSD: 0.239
# Mean RMSD: 0.239
data_MOF--net-yfj--node1-XOMCOT_clean_sbu_0--edge1-TEMPAE_clean_linker_10
_symmetry_space_group_name_H-M    P1
_symmetry_Int_Tables_number       1
_symmetry_cell_setting            triclinic
loop_
_symmetry_equiv_pos_as_xyz
'x, y, z'
_cell_length_a     48.212147
_cell_length_b     48.201089
_cell_length_c     48.282794
_cell_angle_alpha  89.963731
_cell_angle_beta   89.935427
_cell_angle_gamma 89.929652
loop_
_atom_site_label
_atom_site_type_symbol
_atom_site_fract_x
_atom_site_fract_y
_atom_site_fract_z
_atom_type_partial_charge
Co0 Co 0.14232 0.14553 0.33445 0.0
C1 C 0.17045 0.14843 0.27943 0.0
C2 C 0.15442 0.18817 0.29122 0.0
C3 C 0.16931 0.19104 0.26686 0.0
N4 N 0.15513 0.16137 0.29924 0.0
N5 N 0.17939 0.16599 0.25945 0.0
H6 H 0.17625 0.12677 0.28019 0.0
H7 H 0.14465 0.20481 0.30263 0.0
C8 C 0.11269 0.1894 0.36875 0.0
O9 O 0.09637 0.17032 0.37927 0.0
N10 N 0.13112 0.12878 0.36944 0.0
C11 C 0.11572 0.10575 0.37316 0.0
C12 C 0.11418 0.10009 0.40111 0.0
C13 C 0.13965 0.13611 0.39513 0.0
N14 N 0.12902 0.11935 0.41492 0.0
C15 C 0.11133 0.11239 0.29771 0.0
C16 C 0.05924 0.12271 0.31888 0.0
C17 C 0.06342 0.09887 0.30267 0.0
C18 C 0.0895 0.09491 0.29065 0.0
C19 C 0.08176 0.14019 0.32492 0.0
N20 N 0.10796 0.13335 0.31648 0.0
H21 H 0.13157 0.10735 0.28972 0.0
H22 H 0.07794 0.15833 0.33706 0.0
H23 H 0.10634 0.09374 0.35677 0.0
H24 H 0.15296 0.1537 0.39923 0.0
O25 O 0.1633 0.11213 0.32775 0.0
O26 O 0.17913 0.14984 0.34896 0.0
O27 O 0.12801 0.18367 0.34758 0.0
C28 C 0.18342 0.12458 0.34042 0.0
H29 H 0.17283 0.21022 0.25573 0.0
H30 H 0.10248 0.08343 0.41057 0.0
H31 H 0.03904 0.12723 0.32762 0.0
H32 H 0.09373 0.07706 0.27769 0.0
Co33 Co 0.86827 0.6534 0.58175 0.0
C34 C 0.8637 0.67082 0.52263 0.0
C35 C 0.82374 0.66258 0.54008 0.0
C36 C 0.82023 0.67537 0.51469 0.0
N37 N 0.85112 0.65971 0.54531 0.0
N38 N 0.84541 0.68039 0.50375 0.0
H39 H 0.88583 0.6739 0.52071 0.0
H40 H 0.80725 0.65793 0.55448 0.0
C41 C 0.81388 0.62774 0.60389 0.0
O42 O 0.81771 0.60367 0.59177 0.0
N43 N 0.88505 0.6491 0.61831 0.0
C44 C 0.91214 0.6448 0.62394 0.0
C45 C 0.91577 0.64451 0.65225 0.0
C46 C 0.8726 0.65125 0.64339 0.0
N47 N 0.89088 0.6484 0.66436 0.0
C48 C 0.88826 0.60894 0.54897 0.0
C49 C 0.8973 0.57338 0.5929 0.0
C50 C 0.91355 0.57057 0.56894 0.0
C51 C 0.90734 0.58738 0.54618 0.0
C52 C 0.87812 0.5953 0.59479 0.0
N53 N 0.87555 0.61422 0.57373 0.0
H54 H 0.88686 0.62339 0.5321 0.0
H55 H 0.86801 0.59889 0.61445 0.0
H56 H 0.92817 0.64182 0.60855 0.0
H57 H 0.85073 0.65508 0.64646 0.0
O58 O 0.90326 0.66718 0.56815 0.0
O59 O 0.86955 0.69278 0.58665 0.0
O60 O 0.83078 0.6477 0.59974 0.0
C61 C 0.89446 0.69136 0.5762 0.0
H62 H 0.80072 0.68192 0.5057 0.0
H63 H 0.93507 0.641 0.66315 0.0
H64 H 0.90123 0.56055 0.6109 0.0
H65 H 0.919 0.5855 0.52707 0.0
Co66 Co 0.36738 0.36514 0.82993 0.0
C67 C 0.33195 0.35683 0.77956 0.0
C68 C 0.36907 0.33232 0.77806 0.0
C69 C 0.35549 0.32999 0.75294 0.0
N70 N 0.35455 0.34952 0.7947 0.0
N71 N 0.33213 0.34532 0.75406 0.0
H72 H 0.31638 0.37155 0.78614 0.0
H73 H 0.38899 0.32338 0.78323 0.0
C74 C 0.39171 0.31718 0.86383 0.0
O75 O 0.40896 0.33378 0.87659 0.0
N76 N 0.37901 0.38138 0.86505 0.0
C77 C 0.39321 0.40519 0.86821 0.0
C78 C 0.39428 0.41173 0.89586 0.0
C79 C 0.37023 0.37469 0.89087 0.0
N80 N 0.37988 0.39252 0.91035 0.0
C81 C 0.40094 0.39046 0.78968 0.0
C82 C 0.44923 0.39215 0.82013 0.0
C83 C 0.44501 0.41211 0.79934 0.0
C84 C 0.42156 0.40936 0.78253 0.0
C85 C 0.42815 0.37297 0.82623 0.0
N86 N 0.40322 0.37416 0.81277 0.0
H87 H 0.38157 0.39168 0.77855 0.0
H88 H 0.43098 0.35999 0.84391 0.0
H89 H 0.40157 0.41754 0.85147 0.0
H90 H 0.35678 0.35724 0.89507 0.0
O91 O 0.35024 0.40029 0.82169 0.0
O92 O 0.33008 0.36492 0.84361 0.0
O93 O 0.37723 0.32588 0.84318 0.0
C94 C 0.32889 0.39048 0.83481 0.0
H95 H 0.36259 0.31854 0.73499 0.0
H96 H 0.40498 0.42947 0.90435 0.0
H97 H 0.46729 0.39303 0.8334 0.0
H98 H 0.41787 0.42348 0.76545 0.0
Co99 Co 0.64003 0.86475 0.08521 0.0
C100 C 0.64108 0.83332 0.03152 0.0
C101 C 0.68038 0.85212 0.04023 0.0
C102 C 0.68271 0.83684 1.01615 0.0
N103 N 0.65429 0.84985 0.05011 0.0
N104 N 0.65796 0.82512 1.01063 0.0
H105 H 0.61974 0.8267 0.03348 0.0
H106 H 0.6969 0.86371 0.04991 0.0
C107 C 0.68846 0.89073 0.11689 0.0
O108 O 0.67208 0.90871 0.12909 0.0
N109 N 0.62528 0.87841 0.12027 0.0
C110 C 0.60425 0.8965 0.12405 0.0
C111 C 0.60039 0.90044 0.15204 0.0
C112 C 0.63272 0.8703 0.14611 0.0
N113 N 0.6184 0.8841 0.16586 0.0
C114 C 0.61061 0.89705 0.04665 0.0
C115 C 0.61998 0.94828 0.07012 0.0
C116 C 0.59667 0.94473 0.05304 0.0
C117 C 0.59336 0.9192 0.03974 0.0
C118 C 0.6372 0.92549 0.07605 0.0
N119 N 0.63067 0.89964 0.06647 0.0
H120 H 0.60567 0.877 0.03815 0.0
H121 H 0.65419 0.9286 0.08984 0.0
H122 H 0.59239 0.90616 0.10769 0.0
H123 H 0.64919 0.85562 0.15034 0.0
O124 O 0.60467 0.84696 0.07953 0.0
O125 O 0.64107 0.8281 0.10067 0.0
O126 O 0.67951 0.87542 0.09697 0.0
C127 C 0.61533 0.82609 0.09278 0.0
H128 H 0.70122 0.83449 1.00365 0.0
H129 H 0.5854 0.91422 0.16155 0.0
H130 H 0.62395 0.96803 0.08003 0.0
H131 H 0.57592 0.91544 0.02612 0.0
Co132 Co 0.14572 0.36992 0.95213 0.0
C133 C 0.17905 0.35885 1.00329 0.0
C134 C 0.14108 0.33578 1.00303 0.0
C135 C 0.15377 0.33231 0.0285 0.0
N136 N 0.15678 0.3527 0.98723 0.0
N137 N 0.17768 0.34681 0.02855 0.0
H138 H 0.19525 0.3732 0.99756 0.0
H139 H 0.12101 0.32778 0.99704 0.0
C140 C 0.11924 0.32617 0.91528 0.0
O141 O 0.10304 0.34499 0.90421 0.0
N142 N 0.13586 0.38792 0.9173 0.0
C143 C 0.12122 0.41151 0.91407 0.0
C144 C 0.12018 0.418 0.88633 0.0
C145 C 0.14497 0.3814 0.89155 0.0
N146 N 0.13492 0.39891 0.87203 0.0
C147 C 0.11359 0.39823 0.99142 0.0
C148 C 0.06402 0.39849 0.96305 0.0
C149 C 0.06902 0.41937 0.98271 0.0
C150 C 0.09325 0.41749 0.99852 0.0
C151 C 0.08493 0.3791 0.95692 0.0
N152 N 0.11042 0.38104 0.96915 0.0
H153 H 0.13324 0.39936 1.00206 0.0
H154 H 0.08101 0.36445 0.94088 0.0
H155 H 0.11202 0.4234 0.9307 0.0
H156 H 0.15824 0.3638 0.88727 0.0
O157 O 0.16535 0.40346 0.96135 0.0
O158 O 0.18318 0.36718 0.93897 0.0
O159 O 0.13311 0.33185 0.93739 0.0
C160 C 0.18615 0.39234 0.94839 0.0
H161 H 0.14568 0.32065 0.04589 0.0
H162 H 0.10878 0.43518 0.87746 0.0
H163 H 0.04519 0.39849 0.95084 0.0
H164 H 0.09752 0.43227 1.01486 0.0
Co165 Co 0.63732 0.64913 0.20084 0.0
C166 C 0.64801 0.68081 0.253 0.0
C167 C 0.67149 0.64309 0.25204 0.0
C168 C 0.67529 0.65569 0.27751 0.0
N169 N 0.654 0.65865 0.23669 0.0
N170 N 0.66052 0.67945 0.27797 0.0
H171 H 0.6338 0.69721 0.2475 0.0
H172 H 0.6799 0.62327 0.24578 0.0
C173 C 0.69457 0.62671 0.18158 0.0
O174 O 0.6934 0.60379 0.19623 0.0
N175 N 0.62071 0.64056 0.16516 0.0
C176 C 0.59449 0.63184 0.1609 0.0
C177 C 0.59027 0.62881 0.13289 0.0
C178 C 0.63211 0.64267 0.13965 0.0
N179 N 0.61394 0.63551 0.1196 0.0
C180 C 0.61798 0.60688 0.2359 0.0
C181 C 0.61753 0.56568 0.19622 0.0
C182 C 0.5996 0.56332 0.21913 0.0
C183 C 0.60141 0.58355 0.23989 0.0
C184 C 0.63397 0.58949 0.19304 0.0
N185 N 0.63262 0.61055 0.21195 0.0
H186 H 0.616 0.62369 0.25055 0.0
H187 H 0.64506 0.59234 0.17378 0.0
H188 H 0.57951 0.62771 0.17707 0.0
H189 H 0.65309 0.64954 0.1357 0.0
O190 O 0.60137 0.66176 0.21349 0.0
O191 O 0.63327 0.68769 0.19241 0.0
O192 O 0.67525 0.64479 0.18329 0.0
C193 C 0.60838 0.68543 0.20272 0.0
H194 H 0.68756 0.64775 0.29452 0.0
H195 H 0.57144 0.62159 0.12306 0.0
H196 H 0.61737 0.55031 0.17988 0.0
H197 H 0.58795 0.58306 0.25784 0.0
Co198 Co 0.37485 0.14375 0.45188 0.0
C199 C 0.34381 0.14656 0.50567 0.0
C200 C 0.3634 0.18534 0.49635 0.0
C201 C 0.34802 0.18833 0.52038 0.0
N202 N 0.3608 0.15908 0.48697 0.0
N203 N 0.33597 0.16383 0.52626 0.0
H204 H 0.33688 0.12527 0.50424 0.0
H205 H 0.37524 0.20151 0.48633 0.0
C206 C 0.40005 0.1922 0.41891 0.0
O207 O 0.41858 0.17618 0.40718 0.0
N208 N 0.38692 0.12814 0.41664 0.0
C209 C 0.4007 0.1041 0.41266 0.0
C210 C 0.40283 0.0992 0.38465 0.0
C211 C 0.37922 0.13647 0.39098 0.0
N212 N 0.38943 0.11964 0.37105 0.0
C213 C 0.40826 0.11913 0.49315 0.0
C214 C 0.45579 0.11432 0.46185 0.0
C215 C 0.45117 0.09523 0.4833 0.0
C216 C 0.42821 0.09953 0.50046 0.0
C217 C 0.43536 0.13416 0.45553 0.0
N218 N 0.41059 0.13455 0.46945 0.0
H219 H 0.38924 0.11873 0.50472 0.0
H220 H 0.43834 0.146 0.43714 0.0
H221 H 0.40816 0.09067 0.42899 0.0
H222 H 0.36679 0.15475 0.38698 0.0
O223 O 0.35762 0.10848 0.45945 0.0
O224 O 0.3378 0.14431 0.43788 0.0
O225 O 0.38477 0.18308 0.4388 0.0
C226 C 0.33626 0.11883 0.44673 0.0
H227 H 0.34583 0.20703 0.53259 0.0
H228 H 0.41298 0.08162 0.37503 0.0
H229 H 0.47352 0.11217 0.44823 0.0
H230 H 0.42424 0.08601 0.51795 0.0
Co231 Co 0.87481 0.86606 0.70014 0.0
C232 C 0.86617 0.83293 0.75176 0.0
C233 C 0.8404 0.8692 0.75086 0.0
C234 C 0.83704 0.85611 0.77615 0.0
N235 N 0.85877 0.85471 0.73554 0.0
N236 N 0.85326 0.83328 0.77665 0.0
H237 H 0.88169 0.81774 0.74621 0.0
H238 H 0.83088 0.88851 0.7445 0.0
C239 C 0.83094 0.89431 0.66498 0.0
O240 O 0.85012 0.91012 0.65393 0.0
N241 N 0.89168 0.87628 0.66492 0.0
C242 C 0.91458 0.89174 0.66073 0.0
C243 C 0.92031 0.89226 0.63276 0.0
C244 C 0.88463 0.86659 0.63959 0.0
N245 N 0.90131 0.87662 0.61944 0.0
C246 C 0.90639 0.89784 0.7372 0.0
C247 C 0.89905 0.94904 0.71285 0.0
C248 C 0.92216 0.94479 0.73003 0.0
C249 C 0.92453 0.91933 0.74373 0.0
C250 C 0.88099 0.92691 0.70727 0.0
N251 N 0.88657 0.90097 0.71723 0.0
H252 H 0.90998 0.87779 0.74653 0.0
H253 H 0.86357 0.93075 0.69419 0.0
H254 H 0.92643 0.90184 0.6768 0.0
H255 H 0.86726 0.85286 0.63602 0.0
O256 O 0.90846 0.84584 0.70772 0.0
O257 O 0.87136 0.82878 0.68643 0.0
O258 O 0.83657 0.87956 0.68658 0.0
C259 C 0.89694 0.82549 0.69448 0.0
H260 H 0.82394 0.8631 0.79299 0.0
H261 H 0.93683 0.90389 0.62298 0.0
H262 H 0.89565 0.96889 0.7029 0.0
H263 H 0.94167 0.91515 0.75761 0.0
Co264 Co 0.639 0.63453 0.83373 0.0
C265 C 0.6722 0.64222 0.782 0.0
C266 C 0.63807 0.67069 0.7839 0.0
C267 C 0.65171 0.6742 0.7589 0.0
N268 N 0.65093 0.65059 0.79845 0.0
N269 N 0.67323 0.65626 0.75777 0.0
H270 H 0.68612 0.62538 0.78694 0.0
H271 H 0.61964 0.68157 0.79067 0.0
C272 C 0.61067 0.67816 0.86902 0.0
O273 O 0.59412 0.65915 0.87926 0.0
N274 N 0.62831 0.61759 0.86875 0.0
C275 C 0.61178 0.59547 0.87288 0.0
C276 C 0.61036 0.59018 0.90089 0.0
C277 C 0.63782 0.6245 0.89418 0.0
N278 N 0.62659 0.6086 0.9144 0.0
C279 C 0.60794 0.60302 0.79608 0.0
C280 C 0.55623 0.61031 0.81932 0.0
C281 C 0.56085 0.58722 0.80216 0.0
C282 C 0.58662 0.58489 0.78903 0.0
C283 C 0.57824 0.62835 0.82547 0.0
N284 N 0.6044 0.62277 0.81606 0.0
H285 H 0.62816 0.59944 0.78714 0.0
H286 H 0.57416 0.64571 0.83859 0.0
H287 H 0.60137 0.58394 0.85678 0.0
H288 H 0.65217 0.64136 0.89767 0.0
O289 O 0.65947 0.60093 0.82632 0.0
O290 O 0.67603 0.63829 0.84772 0.0
O291 O 0.62539 0.67275 0.84734 0.0
C292 C 0.67977 0.61295 0.83917 0.0
H293 H 0.64611 0.68877 0.74278 0.0
H294 H 0.59765 0.57437 0.91043 0.0
H295 H 0.53616 0.6137 0.82884 0.0
H296 H 0.59116 0.56779 0.77521 0.0
Co297 Co 0.37042 0.13859 0.08344 0.0
C298 C 0.36152 0.1716 0.03154 0.0
C299 C 0.33727 0.13437 0.03179 0.0
C300 C 0.33412 0.14735 1.00639 0.0
N301 N 0.35464 0.14948 0.04759 0.0
N302 N 0.34938 0.1708 1.00631 0.0
H303 H 0.37624 0.1874 0.0374 0.0
H304 H 0.3284 0.11468 0.03787 0.0
C305 C 0.32587 0.11182 0.1189 0.0
O306 O 0.3441 0.09478 0.12968 0.0
N307 N 0.38673 0.12912 0.11917 0.0
C308 C 0.40966 0.11384 0.12422 0.0
C309 C 0.41392 0.11271 0.15243 0.0
C310 C 0.37854 0.13861 0.14429 0.0
N311 N 0.39437 0.1283 0.16485 0.0
C312 C 0.40063 0.10717 0.04496 0.0
C313 C 0.4016 0.05747 0.07314 0.0
C314 C 0.42272 0.06303 0.05383 0.0
C315 C 0.42049 0.08733 0.0381 0.0
C316 C 0.38152 0.07786 0.07897 0.0
N317 N 0.38299 0.10348 0.06685 0.0
H318 H 0.40155 0.12689 0.0344 0.0
H319 H 0.36673 0.07344 0.09476 0.0
H320 H 0.42248 0.10417 0.10859 0.0
H321 H 0.36058 0.15172 0.14757 0.0
O322 O 0.40403 0.15869 0.07568 0.0
O323 O 0.36645 0.17602 0.09631 0.0
O324 O 0.33192 0.12551 0.09674 0.0
C325 C 0.39194 0.17937 0.08794 0.0
H326 H 0.32184 0.13988 0.98919 0.0
H327 H 0.42995 0.10114 0.16308 0.0
H328 H 0.40179 0.03859 0.0853 0.0
H329 H 0.43534 0.09203 0.02192 0.0
Co330 Co 0.87374 0.86983 0.33184 0.0
C331 C 0.83894 0.86196 0.28096 0.0
C332 C 0.87652 0.83819 0.27923 0.0
C333 C 0.86255 0.83517 0.25441 0.0
N334 N 0.86184 0.85519 0.29589 0.0
N335 N 0.83889 0.85011 0.25557 0.0
H336 H 0.82311 0.87628 0.28777 0.0
H337 H 0.89651 0.82939 0.28439 0.0
C338 C 0.90239 0.82285 0.36321 0.0
O339 O 0.91935 0.84024 0.37526 0.0
N340 N 0.88424 0.88482 0.36781 0.0
C341 C 0.89564 0.90986 0.37279 0.0
C342 C 0.8966 0.91412 0.40098 0.0
C343 C 0.8771 0.8749 0.39308 0.0
N344 N 0.88515 0.892 0.41371 0.0
C345 C 0.90423 0.90024 0.29244 0.0
C346 C 0.95315 0.90432 0.32159 0.0
C347 C 0.94739 0.92422 0.30114 0.0
C348 C 0.92346 0.92059 0.28517 0.0
C349 C 0.93345 0.88385 0.32791 0.0
N350 N 0.90828 0.88334 0.31486 0.0
H351 H 0.88457 0.90038 0.28178 0.0
H352 H 0.93764 0.87093 0.34527 0.0
H353 H 0.90228 0.92434 0.35701 0.0
H354 H 0.86611 0.85559 0.39627 0.0
O355 O 0.85318 0.90356 0.32595 0.0
O356 O 0.83684 0.86512 0.34581 0.0
O357 O 0.8874 0.8309 0.34266 0.0
C358 C 0.83303 0.89089 0.33854 0.0
H359 H 0.86945 0.82317 0.23675 0.0
H360 H 0.90534 0.93201 0.41131 0.0
H361 H 0.97151 0.90595 0.33439 0.0
H362 H 0.91849 0.93472 0.26845 0.0
Co363 Co 0.13871 0.37526 0.58376 0.0
C364 C 0.13967 0.34814 0.52791 0.0
C365 C 0.17947 0.36469 0.53864 0.0
C366 C 0.18201 0.34987 0.5143 0.0
N367 N 0.1529 0.36357 0.54743 0.0
N368 N 0.15697 0.33956 0.50754 0.0
H369 H 0.11818 0.34187 0.52923 0.0
H370 H 0.19633 0.37449 0.54961 0.0
C371 C 0.18613 0.40164 0.61643 0.0
O372 O 0.16926 0.41855 0.62949 0.0
N373 N 0.12402 0.38544 0.61995 0.0
C374 C 0.10019 0.39916 0.62523 0.0
C375 C 0.096 0.39989 0.65347 0.0
C376 C 0.13332 0.37699 0.64504 0.0
N377 N 0.11702 0.38622 0.66585 0.0
C378 C 0.10514 0.40813 0.54927 0.0
C379 C 0.11308 0.45819 0.57556 0.0
C380 C 0.08883 0.45441 0.55984 0.0
C381 C 0.08608 0.42949 0.5452 0.0
C382 C 0.13183 0.43609 0.57897 0.0
N383 N 0.12629 0.41061 0.56792 0.0
H384 H 0.10093 0.38848 0.53955 0.0
H385 H 0.14967 0.43938 0.59162 0.0
H386 H 0.08659 0.4078 0.60966 0.0
H387 H 0.15186 0.36466 0.64804 0.0
O388 O 0.10454 0.35544 0.57776 0.0
O389 O 0.14283 0.33787 0.59663 0.0
O390 O 0.1777 0.38779 0.59526 0.0
C391 C 0.1171 0.33457 0.58918 0.0
H392 H 0.20098 0.34631 0.50282 0.0
H393 H 0.07912 0.41018 0.66415 0.0
H394 H 0.11691 0.47758 0.5862 0.0
H395 H 0.06804 0.42537 0.53253 0.0
Co396 Co 0.64025 0.87063 0.45373 0.0
C397 C 0.67073 0.86864 0.50783 0.0
C398 C 0.65145 0.8297 0.49854 0.0
C399 C 0.66679 0.82679 0.5225 0.0
N400 N 0.654 0.85594 0.48908 0.0
N401 N 0.67878 0.85131 0.52836 0.0
H402 H 0.67781 0.88985 0.5061 0.0
H403 H 0.63986 0.81339 0.4885 0.0
C404 C 0.61413 0.82298 0.42129 0.0
O405 O 0.59665 0.83967 0.40881 0.0
N406 N 0.62787 0.88566 0.41832 0.0
C407 C 0.60994 0.90672 0.41386 0.0
C408 C 0.60696 0.91047 0.38572 0.0
C409 C 0.63686 0.87813 0.3928 0.0
N410 N 0.62384 0.89246 0.37259 0.0
C411 C 0.60809 0.90067 0.49181 0.0
C412 C 0.55703 0.89305 0.46742 0.0
C413 C 0.56097 0.91608 0.48482 0.0
C414 C 0.58638 0.9185 0.49855 0.0
C415 C 0.57943 0.87526 0.46161 0.0
N416 N 0.60527 0.88093 0.47173 0.0
H417 H 0.62812 0.90495 0.50071 0.0
H418 H 0.57613 0.85861 0.44742 0.0
H419 H 0.59972 0.91864 0.42983 0.0
H420 H 0.6516 0.86159 0.38906 0.0
O421 O 0.65885 0.9055 0.45982 0.0
O422 O 0.67713 0.86842 0.43917 0.0
O423 O 0.62881 0.83151 0.44182 0.0
C424 C 0.67971 0.89405 0.44725 0.0
H425 H 0.6692 0.80799 0.53456 0.0
H426 H 0.59345 0.9253 0.37563 0.0
H427 H 0.53736 0.88975 0.45714 0.0
H428 H 0.59048 0.93568 0.51238 0.0
Co429 Co 0.14527 0.14084 0.70208 0.0
C430 C 0.15007 0.16856 0.7572 0.0
C431 C 0.18913 0.15168 0.74438 0.0
C432 C 0.19299 0.16663 0.76855 0.0
N433 N 0.16212 0.15285 0.73713 0.0
N434 N 0.16833 0.17709 0.77662 0.0
H435 H 0.12856 0.17492 0.75708 0.0
H436 H 0.2053 0.14166 0.73251 0.0
C437 C 0.18918 0.11297 0.66598 0.0
O438 O 0.1703 0.0971 0.6546 0.0
N439 N 0.12777 0.13079 0.66714 0.0
C440 C 0.10376 0.11696 0.66344 0.0
C441 C 0.09763 0.1165 0.63555 0.0
C442 C 0.13505 0.13977 0.64157 0.0
N443 N 0.1175 0.1306 0.62179 0.0
C444 C 0.11536 0.10904 0.74081 0.0
C445 C 0.11653 0.05929 0.71281 0.0
C446 C 0.09486 0.06432 0.73166 0.0
C447 C 0.09606 0.08863 0.74739 0.0
C448 C 0.13611 0.08021 0.70739 0.0
N449 N 0.13356 0.10581 0.71932 0.0
H450 H 0.11331 0.12869 0.75113 0.0
H451 H 0.15166 0.0761 0.69223 0.0
H452 H 0.09133 0.1081 0.67985 0.0
H453 H 0.15315 0.15242 0.63751 0.0
O454 O 0.11186 0.1611 0.71045 0.0
O455 O 0.14883 0.17808 0.6886 0.0
O456 O 0.18324 0.1273 0.68775 0.0
C457 C 0.12373 0.18173 0.69793 0.0
H458 H 0.2125 0.16999 0.77908 0.0
H459 H 0.08017 0.10607 0.62609 0.0
H460 H 0.11719 0.04037 0.70076 0.0
H461 H 0.08074 0.09295 0.76324 0.0
Co462 Co 0.87136 0.63987 0.95157 0.0
C463 C 0.83829 0.64339 1.00421 0.0
C464 C 0.87016 0.67429 1.00245 0.0
C465 C 0.85629 0.67669 0.02741 0.0
N466 N 0.85888 0.6534 0.98779 0.0
N467 N 0.8362 0.65721 0.02856 0.0
H468 H 0.82553 0.62577 0.99895 0.0
H469 H 0.88753 0.68675 0.99565 0.0
C470 C 0.89634 0.68908 0.92018 0.0
O471 O 0.91352 0.67295 0.90662 0.0
N472 N 0.88258 0.62586 0.91539 0.0
C473 C 0.89683 0.6024 0.91026 0.0
C474 C 0.8976 0.59808 0.8821 0.0
C475 C 0.87374 0.63471 0.89027 0.0
N476 N 0.88333 0.6186 0.86932 0.0
C477 C 0.90473 0.6107 0.98926 0.0
C478 C 0.95445 0.61511 0.96145 0.0
C479 C 0.95095 0.59339 0.98052 0.0
C480 C 0.92628 0.59253 0.99576 0.0
C481 C 0.93229 0.63311 0.95574 0.0
N482 N 0.90701 0.6293 0.96799 0.0
H483 H 0.88503 0.60757 0.99943 0.0
H484 H 0.93525 0.64826 0.93998 0.0
H485 H 0.90543 0.58887 0.92594 0.0
H486 H 0.8609 0.65291 0.88758 0.0
O487 O 0.85363 0.60462 0.95762 0.0
O488 O 0.83397 0.64177 0.93831 0.0
O489 O 0.88181 0.67962 0.94048 0.0
C490 C 0.83228 0.61581 0.94566 0.0
H491 H 0.86066 0.6918 0.04338 0.0
H492 H 0.9076 0.58069 0.87207 0.0
H493 H 0.97356 0.61717 0.94982 0.0
H494 H 0.92252 0.5763 1.01083 0.0
Co495 Co 0.37058 0.3735 0.19972 0.0
C496 C 0.36558 0.33903 0.25142 0.0
C497 C 0.34031 0.37563 0.25314 0.0
C498 C 0.33834 0.36186 0.27821 0.0
N499 N 0.35757 0.36146 0.23632 0.0
N500 N 0.35423 0.33882 0.27707 0.0
H501 H 0.38035 0.32367 0.24447 0.0
H502 H 0.33051 0.39513 0.24788 0.0
C503 C 0.32072 0.3993 0.16997 0.0
O504 O 0.33623 0.41747 0.15708 0.0
N505 N 0.38394 0.38426 0.16313 0.0
C506 C 0.40899 0.39537 0.15742 0.0
C507 C 0.41281 0.39575 0.12916 0.0
C508 C 0.37339 0.37702 0.13817 0.0
N509 N 0.39032 0.38443 0.11714 0.0
C510 C 0.40074 0.40596 0.23732 0.0
C511 C 0.40251 0.45405 0.20644 0.0
C512 C 0.42355 0.449 0.2258 0.0
C513 C 0.42134 0.42551 0.24261 0.0
C514 C 0.38217 0.43375 0.20171 0.0
N515 N 0.38278 0.40898 0.21559 0.0
H516 H 0.40182 0.38661 0.24853 0.0
H517 H 0.36851 0.43705 0.18472 0.0
H518 H 0.4239 0.40192 0.17281 0.0
H519 H 0.35403 0.366 0.13544 0.0
O520 O 0.40552 0.35491 0.20498 0.0
O521 O 0.36751 0.33617 0.18654 0.0
O522 O 0.3307 0.38466 0.18991 0.0
C523 C 0.39362 0.3339 0.19316 0.0
H524 H 0.32633 0.36845 0.29598 0.0
H525 H 0.43074 0.40371 0.11823 0.0
H526 H 0.40332 0.47214 0.19314 0.0
H527 H 0.43686 0.42108 0.25822 0.0
C528 C 0.1298 0.09928 0.46203 0.0
C529 C 0.1309 0.12256 0.44463 0.0
C530 C 0.12939 0.10211 0.491 0.0
C531 C 0.12979 0.12893 0.503 0.0
C532 C 0.13184 0.1525 0.48558 0.0
C533 C 0.13238 0.14905 0.45663 0.0
C534 C 0.128 0.07638 0.50879 0.0
C535 C 0.13249 0.18146 0.49739 0.0
C536 C 0.0973 0.13334 0.57482 0.0
C537 C 0.12066 0.13288 0.5921 0.0
C538 C 0.10004 0.13314 0.54582 0.0
C539 C 0.1268 0.13214 0.53369 0.0
C540 C 0.15049 0.1327 0.55102 0.0
C541 C 0.14715 0.13307 0.57997 0.0
C542 C 0.07423 0.13334 0.52815 0.0
C543 C 0.17943 0.13175 0.53912 0.0
H544 H 0.12912 0.07876 0.45292 0.0
H545 H 0.13297 0.16717 0.44336 0.0
H546 H 0.14519 0.07645 0.52406 0.0
H547 H 0.10826 0.07618 0.52062 0.0
H548 H 0.12931 0.05703 0.49636 0.0
H549 H 0.13946 0.19687 0.48179 0.0
H550 H 0.11136 0.18727 0.50447 0.0
H551 H 0.14648 0.18262 0.51557 0.0
H552 H 0.07681 0.13365 0.58404 0.0
H553 H 0.16532 0.13244 0.59313 0.0
H554 H 0.07276 0.11361 0.51641 0.0
H555 H 0.07534 0.15045 0.51279 0.0
H556 H 0.05505 0.13589 0.54066 0.0
H557 H 0.1843 0.11017 0.53275 0.0
H558 H 0.1951 0.13848 0.55452 0.0
H559 H 0.18125 0.14514 0.52052 0.0
C560 C 0.89715 0.60831 0.82079 0.0
C561 C 0.88049 0.6231 0.83964 0.0
C562 C 0.89582 0.61324 0.79215 0.0
C563 C 0.87769 0.63386 0.78172 0.0
C564 C 0.8604 0.6486 0.80036 0.0
C565 C 0.86184 0.64292 0.82899 0.0
C566 C 0.91437 0.59669 0.77306 0.0
C567 C 0.84056 0.67056 0.79011 0.0
C568 C 0.90184 0.66217 0.71221 0.0
C569 C 0.8851 0.6475 0.69362 0.0
C570 C 0.89829 0.65937 0.74099 0.0
C571 C 0.87815 0.64066 0.75145 0.0
C572 C 0.86054 0.62651 0.73268 0.0
C573 C 0.86396 0.63044 0.70397 0.0
C574 C 0.91682 0.67566 0.76019 0.0
C575 C 0.8392 0.60598 0.74281 0.0
H576 H 0.91186 0.59315 0.82828 0.0
H577 H 0.8484 0.65426 0.84292 0.0
H578 H 0.90194 0.58719 0.75622 0.0
H579 H 0.92978 0.61064 0.7632 0.0
H580 H 0.92571 0.57996 0.78411 0.0
H581 H 0.8306 0.68211 0.80737 0.0
H582 H 0.85154 0.68552 0.77651 0.0
H583 H 0.82404 0.66076 0.77753 0.0
H584 H 0.91793 0.67561 0.70412 0.0
H585 H 0.85112 0.61904 0.68951 0.0
H586 H 0.9315 0.66137 0.77067 0.0
H587 H 0.90428 0.68595 0.77652 0.0
H588 H 0.92898 0.69171 0.74899 0.0
H589 H 0.84981 0.58819 0.75287 0.0
H590 H 0.82607 0.59794 0.72572 0.0
H591 H 0.82562 0.61568 0.75861 0.0
C592 C 0.40649 0.37282 0.07021 0.0
C593 C 0.38533 0.38204 0.08784 0.0
C594 C 0.40305 0.37296 0.04132 0.0
C595 C 0.37811 0.3833 0.02971 0.0
C596 C 0.35645 0.3922 0.04751 0.0
C597 C 0.36013 0.39097 0.07642 0.0
C598 C 0.42652 0.36292 0.02318 0.0
C599 C 0.32977 0.40384 0.03599 0.0
C600 C 0.38524 0.41323 0.95717 0.0
C601 C 0.37674 0.39102 0.94028 0.0
C602 C 0.38511 0.41119 0.98618 0.0
C603 C 0.37565 0.38655 0.99901 0.0
C604 C 0.36541 0.3647 0.98235 0.0
C605 C 0.36639 0.367 0.95326 0.0
C606 C 0.39591 0.43519 1.00313 0.0
C607 C 0.35443 0.33836 0.99515 0.0
H608 H 0.42586 0.36574 0.07914 0.0
H609 H 0.34385 0.39824 0.09012 0.0
H610 H 0.4189 0.34688 1.00858 0.0
H611 H 0.43461 0.38042 1.0106 0.0
H612 H 0.44389 0.35403 0.03542 0.0
H613 H 0.31613 0.41239 0.05245 0.0
H614 H 0.33418 0.42059 0.02085 0.0
H615 H 0.31846 0.38731 0.02472 0.0
H616 H 0.39252 0.43227 0.9479 0.0
H617 H 0.35966 0.34959 0.94087 0.0
H618 H 0.41484 0.42869 1.01448 0.0
H619 H 0.38031 0.44153 0.01881 0.0
H620 H 0.40112 0.4535 0.99015 0.0
H621 H 0.37215 0.32529 1.00188 0.0
H622 H 0.34169 0.32634 0.98026 0.0
H623 H 0.34161 0.34286 1.01371 0.0
C624 C 0.60095 0.88508 0.32774 0.0
C625 C 0.62537 0.88789 0.34315 0.0
C626 C 0.60174 0.8818 0.29885 0.0
C627 C 0.62758 0.88229 0.28484 0.0
C628 C 0.65242 0.88454 0.30043 0.0
C629 C 0.651 0.88689 0.3295 0.0
C630 C 0.57484 0.8784 0.28326 0.0
C631 C 0.68036 0.88541 0.28634 0.0
C632 C 0.6278 0.85846 0.20933 0.0
C633 C 0.62273 0.8835 0.19543 0.0
C634 C 0.63029 0.85769 0.23841 0.0
C635 C 0.62816 0.88265 0.25385 0.0
C636 C 0.62443 0.90811 0.23965 0.0
C637 C 0.62143 0.90817 0.21073 0.0
C638 C 0.63378 0.82997 0.25253 0.0
C639 C 0.62298 0.93533 0.25507 0.0
H640 H 0.58118 0.8854 0.33844 0.0
H641 H 0.66983 0.88901 0.34153 0.0
H642 H 0.57117 0.89682 0.26997 0.0
H643 H 0.57603 0.86002 0.26946 0.0
H644 H 0.5568 0.87589 0.29737 0.0
H645 H 0.69772 0.88651 0.3014 0.0
H646 H 0.6832 0.86675 0.2732 0.0
H647 H 0.68146 0.90376 0.27248 0.0
H648 H 0.62881 0.83939 0.19753 0.0
H649 H 0.61811 0.92761 0.19995 0.0
H650 H 0.61321 0.82263 0.25979 0.0
H651 H 0.64751 0.83151 0.27088 0.0
H652 H 0.64245 0.81416 0.2382 0.0
H653 H 0.60391 0.93595 0.26794 0.0
H654 H 0.62274 0.95345 0.24085 0.0
H655 H 0.64097 0.93733 0.26925 0.0
C656 C 0.14869 0.39018 0.7058 0.0
C657 C 0.1222 0.3846 0.6952 0.0
C658 C 0.15324 0.39197 0.73455 0.0
C659 C 0.13099 0.38701 0.75313 0.0
C660 C 0.10448 0.38025 0.74243 0.0
C661 C 0.10034 0.37948 0.71363 0.0
C662 C 0.18163 0.3999 0.74502 0.0
C663 C 0.08023 0.37466 0.76143 0.0
C664 C 0.1429 0.37079 0.82958 0.0
C665 C 0.13686 0.39642 0.84215 0.0
C666 C 0.1422 0.36765 0.80059 0.0
C667 C 0.13483 0.39051 0.78367 0.0
C668 C 0.12972 0.41662 0.7961 0.0
C669 C 0.13102 0.41929 0.82505 0.0
C670 C 0.14842 0.33962 0.78815 0.0
C671 C 0.12208 0.44165 0.77887 0.0
H672 H 0.16555 0.3944 0.69153 0.0
H673 H 0.07993 0.37505 0.70539 0.0
H674 H 0.18011 0.41707 0.76023 0.0
H675 H 0.19106 0.38195 0.75589 0.0
H676 H 0.19564 0.40655 0.728 0.0
H677 H 0.06135 0.3683 0.7499 0.0
H678 H 0.08562 0.35807 0.77644 0.0
H679 H 0.07534 0.39361 0.77354 0.0
H680 H 0.14729 0.35286 0.84234 0.0
H681 H 0.12703 0.43935 0.83426 0.0
H682 H 0.15702 0.32493 0.80367 0.0
H683 H 0.16346 0.34165 0.77086 0.0
H684 H 0.12911 0.33065 0.77947 0.0
H685 H 0.13796 0.44522 0.76261 0.0
H686 H 0.12008 0.46078 0.79153 0.0
H687 H 0.10206 0.43787 0.76821 0.0
C688 C 0.63887 0.6372 0.95546 0.0
C689 C 0.62909 0.61216 0.94413 0.0
C690 C 0.63926 0.64162 0.98425 0.0
C691 C 0.62919 0.62077 1.00227 0.0
C692 C 0.62023 0.59515 0.99115 0.0
C693 C 0.62051 0.59108 0.96235 0.0
C694 C 0.64982 0.66886 0.99541 0.0
C695 C 0.60964 0.57223 1.00968 0.0
C696 C 0.64402 0.62373 0.07983 0.0
C697 C 0.61878 0.63386 0.09019 0.0
C698 C 0.64786 0.61947 0.05124 0.0
C699 C 0.62624 0.62631 0.03256 0.0
C700 C 0.60112 0.63753 0.04292 0.0
C701 C 0.59762 0.64092 0.07159 0.0
C702 C 0.67485 0.60726 0.04112 0.0
C703 C 0.57766 0.64541 0.02375 0.0
H704 H 0.64553 0.6538 0.94193 0.0
H705 H 0.61361 0.57139 0.95417 0.0
H706 H 0.63299 0.67973 1.00675 0.0
H707 H 0.66683 0.66509 1.0104 0.0
H708 H 0.65767 0.68266 0.97875 0.0
H709 H 0.60479 0.553 0.99798 0.0
H710 H 0.62525 0.56723 0.02581 0.0
H711 H 0.59056 0.57923 0.0205 0.0
H712 H 0.66035 0.61815 0.09419 0.0
H713 H 0.57825 0.64907 0.07958 0.0
H714 H 0.68694 0.6235 0.03023 0.0
H715 H 0.67106 0.59027 0.02611 0.0
H716 H 0.68756 0.59895 0.05842 0.0
H717 H 0.58509 0.66045 1.008 0.0
H718 H 0.55985 0.65476 0.03501 0.0
H719 H 0.57026 0.62676 1.01252 0.0
C720 C 0.41038 0.11575 0.32469 0.0
C721 C 0.38783 0.12327 0.34142 0.0
C722 C 0.4094 0.11876 0.29581 0.0
C723 C 0.38503 0.12917 0.28312 0.0
C724 C 0.36217 0.13703 0.29989 0.0
C725 C 0.36395 0.13424 0.3289 0.0
C726 C 0.43442 0.11052 0.27884 0.0
C727 C 0.3357 0.14784 0.28717 0.0
C728 C 0.39525 0.15396 0.20886 0.0
C729 C 0.38904 0.12986 0.19404 0.0
C730 C 0.39272 0.15462 0.23791 0.0
C731 C 0.38349 0.13062 0.25224 0.0
C732 C 0.37571 0.10677 0.23696 0.0
C733 C 0.37888 0.1066 0.20805 0.0
C734 C 0.40136 0.18044 0.2533 0.0
C735 C 0.36518 0.08097 0.25123 0.0
H736 H 0.42904 0.10774 0.33432 0.0
H737 H 0.34644 0.13997 0.34177 0.0
H738 H 0.42897 0.09308 0.26488 0.0
H739 H 0.44111 0.12812 0.26561 0.0
H740 H 0.4522 0.10402 0.29196 0.0
H741 H 0.31993 0.15332 0.30306 0.0
H742 H 0.3401 0.16649 0.27443 0.0
H743 H 0.32678 0.13196 0.27314 0.0
H744 H 0.40314 0.17183 0.19777 0.0
H745 H 0.3739 0.08813 0.19628 0.0
H746 H 0.42103 0.17635 0.26451 0.0
H747 H 0.38555 0.18618 0.26899 0.0
H748 H 0.40459 0.19833 0.23914 0.0
H749 H 0.38227 0.07125 0.26318 0.0
H750 H 0.35705 0.06548 0.23628 0.0
H751 H 0.34847 0.08633 0.26612 0.0
C752 C 0.88075 0.90937 0.4616 0.0
C753 C 0.88373 0.88708 0.44319 0.0
C754 C 0.88191 0.90534 0.49039 0.0
C755 C 0.88646 0.87836 0.50114 0.0
C756 C 0.88861 0.85561 0.48269 0.0
C757 C 0.88702 0.86021 0.45393 0.0
C758 C 0.87905 0.93012 0.5093 0.0
C759 C 0.89337 0.82655 0.49331 0.0
C760 C 0.92076 0.87717 0.57203 0.0
C761 C 0.89796 0.87382 0.5898 0.0
C762 C 0.91742 0.87758 0.54313 0.0
C763 C 0.89061 0.87445 0.53156 0.0
C764 C 0.86771 0.86959 0.5493 0.0
C765 C 0.87162 0.86944 0.57817 0.0
C766 C 0.94249 0.88237 0.52499 0.0
C767 C 0.83884 0.86582 0.53788 0.0
H768 H 0.87775 0.93008 0.45341 0.0
H769 H 0.88948 0.84291 0.43982 0.0
H770 H 0.86247 0.92636 0.52481 0.0
H771 H 0.89868 0.93331 0.52083 0.0
H772 H 0.87409 0.94945 0.49777 0.0
H773 H 0.89532 0.81131 0.47622 0.0
H774 H 0.91253 0.82578 0.50599 0.0
H775 H 0.8759 0.82021 0.50687 0.0
H776 H 0.94125 0.87993 0.58075 0.0
H777 H 0.8538 0.867 0.59161 0.0
H778 H 0.94044 0.90259 0.51418 0.0
H779 H 0.94388 0.86604 0.50886 0.0
H780 H 0.96212 0.88247 0.53702 0.0
H781 H 0.83102 0.88601 0.53005 0.0
H782 H 0.82422 0.858 0.55385 0.0
H783 H 0.83894 0.85115 0.5202 0.0
C784 C 0.30384 0.11532 0.1657 0.0
C785 C 0.3019 0.11999 0.13696 0.0
C786 C 0.28297 0.12387 0.18414 0.0
C787 C 0.25881 0.13699 0.17385 0.0
C788 C 0.25645 0.14164 0.14484 0.0
C789 C 0.27817 0.13345 0.12678 0.0
C790 C 0.28707 0.1191 0.21482 0.0
C791 C 0.23093 0.15524 0.13292 0.0
C792 C 0.19708 0.13343 0.22367 0.0
C793 C 0.19786 0.15955 0.23652 0.0
C794 C 0.21581 0.12637 0.20232 0.0
C795 C 0.23631 0.14565 0.19374 0.0
C796 C 0.23685 0.17227 0.20628 0.0
C797 C 0.21756 0.17894 0.22727 0.0
C798 C 0.21413 0.0979 0.18944 0.0
C799 C 0.25863 0.19332 0.1984 0.0
H800 H 0.32222 0.1055 0.17412 0.0
H801 H 0.27648 0.13737 0.10474 0.0
H802 H 0.28575 0.1391 0.22611 0.0
H803 H 0.27038 0.10553 0.22297 0.0
H804 H 0.30741 0.10933 0.21958 0.0
H805 H 0.23185 0.15683 0.10998 0.0
H806 H 0.21221 0.14321 0.13879 0.0
H807 H 0.22845 0.17637 0.14166 0.0
H808 H 0.18176 0.11844 0.23037 0.0
H809 H 0.21859 0.19905 0.23721 0.0
H810 H 0.23279 0.08568 0.19513 0.0
H811 H 0.21378 0.09958 0.16652 0.0
H812 H 0.19544 0.08632 0.19633 0.0
H813 H 0.2794 0.1856 0.20462 0.0
H814 H 0.25505 0.21374 0.20846 0.0
H815 H 0.25902 0.19632 0.17563 0.0
C816 C 0.84032 0.72424 0.47779 0.0
C817 C 0.85177 0.6976 0.48008 0.0
C818 C 0.8483 0.74232 0.45627 0.0
C819 C 0.8675 0.73322 0.43587 0.0
C820 C 0.87811 0.70579 0.43745 0.0
C821 C 0.87059 0.68856 0.45986 0.0
C822 C 0.8371 0.77159 0.45611 0.0
C823 C 0.89788 0.69479 0.41584 0.0
C824 C 0.8726 0.78036 0.37201 0.0
C825 C 0.89595 0.79654 0.37841 0.0
C826 C 0.86386 0.75868 0.38974 0.0
C827 C 0.87841 0.75338 0.41475 0.0
C828 C 0.9027 0.7688 0.42058 0.0
C829 C 0.91129 0.78978 0.40227 0.0
C830 C 0.83852 0.74205 0.38212 0.0
C831 C 0.91931 0.7638 0.44665 0.0
H832 H 0.82603 0.73132 0.49361 0.0
H833 H 0.87937 0.66792 0.46163 0.0
H834 H 0.85448 0.78663 0.4566 0.0
H835 H 0.82536 0.7754 0.43675 0.0
H836 H 0.82322 0.77578 0.47402 0.0
H837 H 0.89986 0.67185 0.41689 0.0
H838 H 0.89089 0.70071 0.39475 0.0
H839 H 0.91871 0.70393 0.41906 0.0
H840 H 0.86053 0.78525 0.35373 0.0
H841 H 0.92955 0.80179 0.40745 0.0
H842 H 0.82107 0.74771 0.39601 0.0
H843 H 0.84257 0.71954 0.38493 0.0
H844 H 0.83198 0.7458 0.36038 0.0
H845 H 0.90551 0.76221 0.46499 0.0
H846 H 0.93468 0.78052 0.45047 0.0
H847 H 0.93069 0.7439 0.44481 0.0
C848 C 0.32269 0.36013 0.70591 0.0
C849 C 0.31299 0.35105 0.73176 0.0
C850 C 0.30412 0.36767 0.68462 0.0
C851 C 0.27511 0.36537 0.68898 0.0
C852 C 0.26534 0.35505 0.71476 0.0
C853 C 0.28436 0.34847 0.73593 0.0
C854 C 0.31554 0.37889 0.65775 0.0
C855 C 0.23481 0.35048 0.71998 0.0
C856 C 0.22366 0.41185 0.65076 0.0
C857 C 0.21239 0.39385 0.63088 0.0
C858 C 0.24478 0.40315 0.6689 0.0
C859 C 0.25493 0.37557 0.6675 0.0
C860 C 0.24445 0.35758 0.64675 0.0
C861 C 0.22346 0.36696 0.6286 0.0
C862 C 0.25513 0.42307 0.69067 0.0
C863 C 0.25421 0.32791 0.64476 0.0
H864 H 0.34484 0.36225 0.70275 0.0
H865 H 0.27691 0.34105 0.75578 0.0
H866 H 0.30721 0.36691 0.64001 0.0
H867 H 0.3088 0.40074 0.65503 0.0
H868 H 0.33856 0.37812 0.65703 0.0
H869 H 0.23016 0.348 0.74238 0.0
H870 H 0.22222 0.3678 0.71164 0.0
H871 H 0.22819 0.33133 0.70913 0.0
H872 H 0.21519 0.43259 0.65286 0.0
H873 H 0.2146 0.35268 0.61372 0.0
H874 H 0.27812 0.42402 0.69028 0.0
H875 H 0.24886 0.41557 0.7115 0.0
H876 H 0.24677 0.44436 0.68775 0.0
H877 H 0.27719 0.32689 0.64493 0.0
H878 H 0.24647 0.3175 0.62576 0.0
H879 H 0.24668 0.31618 0.66306 0.0
C880 C 0.62612 0.80849 0.97388 0.0
C881 C 0.65149 0.80654 0.98795 0.0
C882 C 0.61961 0.79036 0.95187 0.0
C883 C 0.63848 0.76904 0.94429 0.0
C884 C 0.66423 0.76714 0.9584 0.0
C885 C 0.67056 0.78614 0.97966 0.0
C886 C 0.59233 0.79381 0.93698 0.0
C887 C 0.68472 0.74439 0.95175 0.0
C888 C 0.60809 0.70233 0.91481 0.0
C889 C 0.61634 0.70299 0.88682 0.0
C890 C 0.61506 0.72359 0.9334 0.0
C891 C 0.63015 0.74691 0.92393 0.0
C892 C 0.63786 0.74831 0.89552 0.0
C893 C 0.63127 0.72615 0.8774 0.0
C894 C 0.60655 0.72073 0.96341 0.0
C895 C 0.6532 0.77314 0.8843 0.0
H896 H 0.61148 0.82445 0.97994 0.0
H897 H 0.69013 0.78444 0.99055 0.0
H898 H 0.59558 0.79331 0.91422 0.0
H899 H 0.57833 0.77637 0.94232 0.0
H900 H 0.5818 0.81355 0.94256 0.0
H901 H 0.70318 0.7449 0.96549 0.0
H902 H 0.6746 0.72384 0.95382 0.0
H903 H 0.69179 0.74636 0.92999 0.0
H904 H 0.5968 0.68456 0.92269 0.0
H905 H 0.63783 0.72695 0.85594 0.0
H906 H 0.59018 0.73615 0.96829 0.0
H907 H 0.62437 0.72499 0.97728 0.0
H908 H 0.59835 0.69974 0.96822 0.0
H909 H 0.64247 0.79257 0.89049 0.0
H910 H 0.65497 0.77261 0.86137 0.0
H911 H 0.67437 0.77385 0.8932 0.0
C912 C 0.18618 0.35573 0.07843 0.0
C913 C 0.19641 0.35132 0.05155 0.0
C914 C 0.20414 0.36232 0.10054 0.0
C915 C 0.23314 0.36399 0.09587 0.0
C916 C 0.24359 0.3584 0.06895 0.0
C917 C 0.22513 0.35253 0.04712 0.0
C918 C 0.19198 0.36846 0.12869 0.0
C919 C 0.27434 0.35889 0.06313 0.0
C920 C 0.2805 0.41022 0.13909 0.0
C921 C 0.29443 0.391 0.15596 0.0
C922 C 0.25957 0.40187 0.12059 0.0
C923 C 0.25249 0.37342 0.11841 0.0
C924 C 0.26552 0.35404 0.13635 0.0
C925 C 0.28618 0.36308 0.15501 0.0
C926 C 0.2462 0.42338 0.10218 0.0
C927 C 0.25895 0.3235 0.13463 0.0
H928 H 0.164 0.35505 0.08193 0.0
H929 H 0.23314 0.3488 0.02647 0.0
H930 H 0.20216 0.35548 0.14472 0.0
H931 H 0.19592 0.39046 0.13414 0.0
H932 H 0.16926 0.36468 0.12942 0.0
H933 H 0.27914 0.3552 0.04093 0.0
H934 H 0.28316 0.37915 0.06937 0.0
H935 H 0.28486 0.34272 0.07567 0.0
H936 H 0.28681 0.4318 0.13953 0.0
H937 H 0.29713 0.34794 0.16752 0.0
H938 H 0.22329 0.42123 0.10266 0.0
H939 H 0.25301 0.42013 0.08046 0.0
H940 H 0.25172 0.44486 0.1084 0.0
H941 H 0.2362 0.32012 0.13442 0.0
H942 H 0.26805 0.31166 0.15216 0.0
H943 H 0.26737 0.315 0.115 0.0
C944 C 0.60123 0.78277 0.39125 0.0
C945 C 0.62146 0.7968 0.40669 0.0
C946 C 0.60847 0.76169 0.37241 0.0
C947 C 0.63678 0.75489 0.3682 0.0
C948 C 0.65725 0.76823 0.38454 0.0
C949 C 0.64932 0.78879 0.4038 0.0
C950 C 0.58585 0.74765 0.35602 0.0
C951 C 0.68768 0.76217 0.38039 0.0
C952 C 0.65412 0.68851 0.32815 0.0
C953 C 0.65656 0.6984 0.30091 0.0
C954 C 0.64804 0.7066 0.35032 0.0
C955 C 0.64491 0.73543 0.34528 0.0
C956 C 0.64832 0.7456 0.31791 0.0
C957 C 0.65374 0.72697 0.2961 0.0
C958 C 0.64402 0.69473 0.37897 0.0
C959 C 0.64578 0.77617 0.31149 0.0
H960 H 0.57969 0.78899 0.39323 0.0
H961 H 0.66516 0.79994 0.41517 0.0
H962 H 0.58715 0.75415 0.33401 0.0
H963 H 0.58852 0.72479 0.35665 0.0
H964 H 0.56484 0.75289 0.36393 0.0
H965 H 0.70081 0.77232 0.39633 0.0
H966 H 0.69157 0.7395 0.38093 0.0
H967 H 0.69421 0.76975 0.35968 0.0
H968 H 0.65594 0.66643 0.33197 0.0
H969 H 0.65584 0.73477 0.27514 0.0
H970 H 0.62238 0.69845 0.38589 0.0
H971 H 0.65786 0.7053 0.39394 0.0
H972 H 0.64823 0.67208 0.37972 0.0
H973 H 0.62404 0.78302 0.31469 0.0
H974 H 0.65183 0.781 0.28982 0.0
H975 H 0.65901 0.78846 0.32571 0.0
C976 C 0.23508 0.13772 0.65789 0.0
C977 C 0.21492 0.11849 0.64944 0.0
C978 C 0.2572 0.1453 0.64013 0.0
C979 C 0.25884 0.134 0.613 0.0
C980 C 0.23896 0.1141 0.60472 0.0
C981 C 0.21768 0.10637 0.62305 0.0
C982 C 0.27853 0.16578 0.65024 0.0
C983 C 0.23966 0.10129 0.57615 0.0
C984 C 0.29417 0.1738 0.55419 0.0
C985 C 0.31773 0.15752 0.54917 0.0
C986 C 0.2752 0.16681 0.57532 0.0
C987 C 0.28044 0.14355 0.59261 0.0
C988 C 0.305 0.12785 0.58836 0.0
C989 C 0.323 0.13467 0.56634 0.0
C990 C 0.24892 0.1836 0.57829 0.0
C991 C 0.31208 0.10354 0.60676 0.0
H992 H 0.23329 0.14727 0.67813 0.0
H993 H 0.20245 0.09141 0.61605 0.0
H994 H 0.29976 0.15794 0.64597 0.0
H995 H 0.27614 0.18568 0.63895 0.0
H996 H 0.2765 0.16993 0.67278 0.0
H997 H 0.22056 0.0893 0.57152 0.0
H998 H 0.24224 0.11751 0.56004 0.0
H999 H 0.25765 0.08704 0.5745 0.0
H1000 H 0.29007 0.19137 0.54079 0.0
H1001 H 0.34138 0.12226 0.56259 0.0
H1002 H 0.24744 0.19231 0.59949 0.0
H1003 H 0.23063 0.16998 0.57527 0.0
H1004 H 0.24781 0.20091 0.56314 0.0
H1005 H 0.30894 0.10904 0.62886 0.0
H1006 H 0.33384 0.09654 0.60383 0.0
H1007 H 0.29814 0.0859 0.60201 0.0
C1008 C 0.90956 0.73171 0.89395 0.0
C1009 C 0.88881 0.71563 0.90646 0.0
C1010 C 0.90297 0.75292 0.875 0.0
C1011 C 0.87492 0.75765 0.86755 0.0
C1012 C 0.85377 0.74219 0.88099 0.0
C1013 C 0.86096 0.72159 0.9005 0.0
C1014 C 0.9262 0.76924 0.86181 0.0
C1015 C 0.82368 0.74595 0.87329 0.0
C1016 C 0.85647 0.82351 0.82707 0.0
C1017 C 0.85756 0.81422 0.79952 0.0
C1018 C 0.86186 0.8054 0.84941 0.0
C1019 C 0.86804 0.77711 0.8442 0.0
C1020 C 0.86858 0.76751 0.81643 0.0
C1021 C 0.86358 0.78617 0.79452 0.0
C1022 C 0.8616 0.8167 0.87855 0.0
C1023 C 0.87471 0.73751 0.8098 0.0
H1024 H 0.93113 0.72693 0.89819 0.0
H1025 H 0.84485 0.70873 0.90948 0.0
H1026 H 0.92825 0.76327 0.83972 0.0
H1027 H 0.92154 0.79178 0.86247 0.0
H1028 H 0.9464 0.76551 0.87222 0.0
H1029 H 0.80958 0.7345 0.88747 0.0
H1030 H 0.81795 0.76824 0.87355 0.0
H1031 H 0.82032 0.73825 0.8519 0.0
H1032 H 0.85219 0.84519 0.83116 0.0
H1033 H 0.86417 0.77873 0.77336 0.0
H1034 H 0.88243 0.81415 0.88798 0.0
H1035 H 0.84675 0.80484 0.89151 0.0
H1036 H 0.85583 0.83901 0.87924 0.0
H1037 H 0.89629 0.73239 0.81592 0.0
H1038 H 0.87225 0.73288 0.78741 0.0
H1039 H 0.86075 0.72373 0.82182 0.0
C1040 C 0.71971 0.64239 0.74034 0.0
C1041 C 0.69267 0.65199 0.73515 0.0
C1042 C 0.7388 0.63796 0.71864 0.0
C1043 C 0.73072 0.64298 0.69084 0.0
C1044 C 0.70342 0.65253 0.68544 0.0
C1045 C 0.68483 0.65702 0.70758 0.0
C1046 C 0.76774 0.62816 0.72551 0.0
C1047 C 0.69383 0.65807 0.65621 0.0
C1048 C 0.7878 0.65759 0.63786 0.0
C1049 C 0.79116 0.63175 0.6247 0.0
C1050 C 0.76819 0.6615 0.65912 0.0
C1051 C 0.75112 0.63915 0.66757 0.0
C1052 C 0.75395 0.61315 0.65406 0.0
C1053 C 0.77391 0.60974 0.63287 0.0
C1054 C 0.76611 0.68955 0.6729 0.0
C1055 C 0.73618 0.58875 0.66232 0.0
H1056 H 0.72617 0.63877 0.76152 0.0
H1057 H 0.66395 0.66408 0.70325 0.0
H1058 H 0.7722 0.60841 0.71458 0.0
H1059 H 0.78319 0.64359 0.71824 0.0
H1060 H 0.77072 0.62487 0.74809 0.0
H1061 H 0.6718 0.66479 0.65535 0.0
H1062 H 0.70687 0.67443 0.64665 0.0
H1063 H 0.69628 0.63908 0.64346 0.0
H1064 H 0.80091 0.67484 0.63188 0.0
H1065 H 0.77629 0.58968 0.62304 0.0
H1066 H 0.77102 0.68757 0.69526 0.0
H1067 H 0.74461 0.6976 0.67132 0.0
H1068 H 0.78045 0.70499 0.66358 0.0
H1069 H 0.7403 0.58319 0.68423 0.0
H1070 H 0.74012 0.57023 0.6492 0.0
H1071 H 0.71391 0.59436 0.66078 0.0
C1072 C 0.35796 0.2184 0.98884 0.0
C1073 C 0.35362 0.1901 0.9836 0.0
C1074 C 0.36292 0.23735 0.96716 0.0
C1075 C 0.36421 0.22786 0.93937 0.0
C1076 C 0.35974 0.1993 0.93392 0.0
C1077 C 0.35424 0.18086 0.956 0.0
C1078 C 0.36705 0.26758 0.97409 0.0
C1079 C 0.36148 0.18808 0.9048 0.0
C1080 C 0.35702 0.28324 0.88274 0.0
C1081 C 0.38478 0.29064 0.87806 0.0
C1082 C 0.34997 0.26225 0.90193 0.0
C1083 C 0.3712 0.24779 0.91636 0.0
C1084 C 0.39929 0.25405 0.91029 0.0
C1085 C 0.40569 0.27562 0.89163 0.0
C1086 C 0.31977 0.25691 0.90815 0.0
C1087 C 0.42268 0.23887 0.92452 0.0
H1088 H 0.35724 0.22579 1.01002 0.0
H1089 H 0.35125 0.15902 0.95174 0.0
H1090 H 0.38888 0.27354 0.96995 0.0
H1091 H 0.35369 0.28071 0.96074 0.0
H1092 H 0.36227 0.27216 0.99613 0.0
H1093 H 0.35688 0.16553 0.90384 0.0
H1094 H 0.34672 0.19925 0.89115 0.0
H1095 H 0.3826 0.19165 0.89637 0.0
H1096 H 0.34071 0.2952 0.8729 0.0
H1097 H 0.42717 0.2814 0.88834 0.0
H1098 H 0.31499 0.26403 0.92949 0.0
H1099 H 0.31523 0.23438 0.90728 0.0
H1100 H 0.3058 0.26791 0.89351 0.0
H1101 H 0.42332 0.24485 0.94669 0.0
H1102 H 0.44315 0.24366 0.91508 0.0
H1103 H 0.41927 0.21613 0.9236 0.0
C1104 C 0.82698 0.85572 0.20587 0.0
C1105 C 0.81868 0.85427 0.23373 0.0
C1106 C 0.80769 0.861 0.18456 0.0
C1107 C 0.77919 0.86439 0.19107 0.0
C1108 C 0.77061 0.86229 0.21913 0.0
C1109 C 0.79044 0.85757 0.24006 0.0
C1110 C 0.81791 0.86368 0.15513 0.0
C1111 C 0.74045 0.86522 0.22712 0.0
C1112 C 0.7296 0.90531 0.14483 0.0
C1113 C 0.71511 0.88421 0.13103 0.0
C1114 C 0.75137 0.89919 0.16328 0.0
C1115 C 0.75844 0.87117 0.16883 0.0
C1116 C 0.74453 0.84978 0.15419 0.0
C1117 C 0.72327 0.85657 0.13526 0.0
C1118 C 0.76598 0.92275 0.17776 0.0
C1119 C 0.75091 0.81964 0.15977 0.0
H1120 H 0.84877 0.85353 0.20082 0.0
H1121 H 0.78382 0.8562 0.26147 0.0
H1122 H 0.80689 0.84879 0.14155 0.0
H1123 H 0.81332 0.88482 0.14724 0.0
H1124 H 0.84058 0.8599 0.15334 0.0
H1125 H 0.73693 0.86143 0.24955 0.0
H1126 H 0.73302 0.88641 0.22206 0.0
H1127 H 0.72763 0.85042 0.21507 0.0
H1128 H 0.72327 0.92669 0.14184 0.0
H1129 H 0.71178 0.8401 0.12519 0.0
H1130 H 0.7888 0.92021 0.17609 0.0
H1131 H 0.76064 0.92254 0.20011 0.0
H1132 H 0.76015 0.94329 0.16907 0.0
H1133 H 0.77352 0.81573 0.15805 0.0
H1134 H 0.73986 0.80557 0.1453 0.0
H1135 H 0.74467 0.81436 0.18127 0.0
C1136 C 0.10492 0.21717 0.41196 0.0
C1137 C 0.11704 0.21525 0.38547 0.0
C1138 C 0.11134 0.23889 0.43025 0.0
C1139 C 0.12983 0.26008 0.42185 0.0
C1140 C 0.14115 0.25915 0.39466 0.0
C1141 C 0.13495 0.23658 0.37695 0.0
C1142 C 0.09871 0.23868 0.45892 0.0
C1143 C 0.16019 0.28175 0.38445 0.0
C1144 C 0.12742 0.32441 0.4684 0.0
C1145 C 0.15082 0.32055 0.48518 0.0
C1146 C 0.12122 0.30585 0.44665 0.0
C1147 C 0.13819 0.28217 0.44223 0.0
C1148 C 0.16188 0.27826 0.45923 0.0
C1149 C 0.16814 0.29771 0.48009 0.0
C1150 C 0.09631 0.31147 0.4286 0.0
C1151 C 0.18007 0.25293 0.45612 0.0
H1152 H 0.09104 0.20098 0.41906 0.0
H1153 H 0.14448 0.23545 0.35664 0.0
H1154 H 0.11485 0.24219 0.4749 0.0
H1155 H 0.08339 0.25574 0.46074 0.0
H1156 H 0.08797 0.21883 0.4636 0.0
H1157 H 0.16444 0.27997 0.3619 0.0
H1158 H 0.15098 0.30244 0.38868 0.0
H1159 H 0.1802 0.28068 0.39569 0.0
H1160 H 0.11416 0.3422 0.47213 0.0
H1161 H 0.18612 0.29456 0.49317 0.0
H1162 H 0.07975 0.29625 0.43332 0.0
H1163 H 0.10184 0.309 0.40641 0.0
H1164 H 0.08783 0.33266 0.43185 0.0
H1165 H 0.16747 0.23389 0.45887 0.0
H1166 H 0.19732 0.25258 0.47135 0.0
H1167 H 0.18901 0.25221 0.43497 0.0
C1168 C 0.69575 0.88157 0.56615 0.0
C1169 C 0.69797 0.8571 0.55062 0.0
C1170 C 0.71461 0.88754 0.58766 0.0
C1171 C 0.73692 0.8691 0.59314 0.0
C1172 C 0.73909 0.84426 0.57753 0.0
C1173 C 0.71936 0.83837 0.55685 0.0
C1174 C 0.7109 0.91382 0.60422 0.0
C1175 C 0.76299 0.82445 0.5818 0.0
C1176 C 0.80407 0.89979 0.621 0.0
C1177 C 0.80511 0.88975 0.64838 0.0
C1178 C 0.78202 0.89343 0.60316 0.0
C1179 C 0.75965 0.87713 0.61287 0.0
C1180 C 0.75984 0.86778 0.6408 0.0
C1181 C 0.78274 0.87385 0.65811 0.0
C1182 C 0.7831 0.90371 0.57358 0.0
C1183 C 0.73603 0.85106 0.65227 0.0
H1184 H 0.67904 0.89591 0.56158 0.0
H1185 H 0.72124 0.81954 0.54473 0.0
H1186 H 0.71258 0.90935 0.62671 0.0
H1187 H 0.72755 0.92875 0.5989 0.0
H1188 H 0.69055 0.92387 0.60015 0.0
H1189 H 0.76153 0.80586 0.56829 0.0
H1190 H 0.78284 0.8352 0.57733 0.0
H1191 H 0.76374 0.81754 0.60369 0.0
H1192 H 0.82114 0.91197 0.61292 0.0
H1193 H 0.78323 0.86593 0.67912 0.0
H1194 H 0.76626 0.91898 0.57005 0.0
H1195 H 0.77975 0.88629 0.55895 0.0
H1196 H 0.80318 0.91378 0.56851 0.0
H1197 H 0.71606 0.86161 0.6478 0.0
H1198 H 0.73782 0.84785 0.67498 0.0
H1199 H 0.73538 0.83048 0.64204 0.0
C1200 C 0.11627 0.30006 0.87053 0.0
C1201 C 0.1255 0.30095 0.89819 0.0
C1202 C 0.12403 0.2786 0.85244 0.0
C1203 C 0.14103 0.2567 0.8621 0.0
C1204 C 0.14981 0.25685 0.8902 0.0
C1205 C 0.14225 0.27912 0.90782 0.0
C1206 C 0.11433 0.27973 0.82269 0.0
C1207 C 0.16743 0.23362 0.90156 0.0
C1208 C 0.13854 0.19265 0.81545 0.0
C1209 C 0.16277 0.1956 0.7996 0.0
C1210 C 0.13209 0.21135 0.83699 0.0
C1211 C 0.14982 0.23419 0.84234 0.0
C1212 C 0.17455 0.237 0.8266 0.0
C1213 C 0.1809 0.21749 0.80575 0.0
C1214 C 0.10589 0.20703 0.85355 0.0
C1215 C 0.19363 0.26145 0.83079 0.0
H1216 H 0.10355 0.31677 0.8625 0.0
H1217 H 0.14963 0.27953 0.929 0.0
H1218 H 0.10024 0.26207 0.81847 0.0
H1219 H 0.10314 0.2993 0.81783 0.0
H1220 H 0.13225 0.27776 0.80839 0.0
H1221 H 0.17097 0.23569 0.92419 0.0
H1222 H 0.15736 0.21334 0.89746 0.0
H1223 H 0.18782 0.23338 0.89092 0.0
H1224 H 0.12461 0.17562 0.81094 0.0
H1225 H 0.19949 0.22003 0.79338 0.0
H1226 H 0.09064 0.22348 0.84839 0.0
H1227 H 0.11032 0.2086 0.87604 0.0
H1228 H 0.09624 0.18654 0.84932 0.0
H1229 H 0.1826 0.28088 0.82517 0.0
H1230 H 0.21276 0.25989 0.81803 0.0
H1231 H 0.19963 0.26316 0.85288 0.0
C1232 C 0.79118 0.6391 0.04619 0.0
C1233 C 0.81681 0.65205 0.05111 0.0
C1234 C 0.77204 0.63433 0.06778 0.0
C1235 C 0.77845 0.64265 0.0952 0.0
C1236 C 0.80435 0.65553 0.10039 0.0
C1237 C 0.82312 0.66005 0.0784 0.0
C1238 C 0.74467 0.62077 0.06115 0.0
C1239 C 0.81217 0.66478 0.1292 0.0
C1240 C 0.71797 0.65568 0.14491 0.0
C1241 C 0.71719 0.63112 0.16068 0.0
C1242 C 0.73782 0.65972 0.12387 0.0
C1243 C 0.75768 0.63878 0.1182 0.0
C1244 C 0.75731 0.61409 0.13424 0.0
C1245 C 0.73715 0.61056 0.15523 0.0
C1246 C 0.73727 0.68637 0.10741 0.0
C1247 C 0.77799 0.59117 0.12894 0.0
H1248 H 0.78575 0.63312 0.02528 0.0
H1249 H 0.84291 0.6697 0.08271 0.0
H1250 H 0.74183 0.60195 0.07407 0.0
H1251 H 0.72745 0.63521 0.06618 0.0
H1252 H 0.74302 0.6148 0.03899 0.0
H1253 H 0.83331 0.67388 0.13002 0.0
H1254 H 0.79709 0.68048 0.13671 0.0
H1255 H 0.81125 0.64693 0.1437 0.0
H1256 H 0.70276 0.6718 0.14875 0.0
H1257 H 0.73679 0.59146 0.16707 0.0
H1258 H 0.73346 0.68175 0.08524 0.0
H1259 H 0.75768 0.6969 0.10876 0.0
H1260 H 0.72097 0.70092 0.11477 0.0
H1261 H 0.77547 0.58324 0.10752 0.0
H1262 H 0.77554 0.57359 0.14362 0.0
H1263 H 0.79942 0.59933 0.13068 0.0
C1264 C 0.36061 0.32769 0.32688 0.0
C1265 C 0.3594 0.31901 0.29914 0.0
C1266 C 0.36654 0.30884 0.34845 0.0
C1267 C 0.37085 0.28038 0.34235 0.0
C1268 C 0.36905 0.2714 0.31441 0.0
C1269 C 0.36368 0.29082 0.29319 0.0
C1270 C 0.36883 0.31952 0.37774 0.0
C1271 C 0.37293 0.24125 0.30685 0.0
C1272 C 0.41325 0.2331 0.38979 0.0
C1273 C 0.39262 0.21822 0.40395 0.0
C1274 C 0.40646 0.25417 0.37072 0.0
C1275 C 0.37825 0.26015 0.36494 0.0
C1276 C 0.3573 0.2458 0.37986 0.0
C1277 C 0.36474 0.22525 0.39937 0.0
C1278 C 0.42955 0.26925 0.35592 0.0
C1279 C 0.32699 0.251 0.37406 0.0
H1280 H 0.35766 0.34945 0.33165 0.0
H1281 H 0.36249 0.28389 0.27189 0.0
H1282 H 0.35416 0.30828 0.39143 0.0
H1283 H 0.39003 0.31557 0.38575 0.0
H1284 H 0.36444 0.3421 0.37919 0.0
H1285 H 0.36916 0.23732 0.28449 0.0
H1286 H 0.39438 0.23459 0.31188 0.0
H1287 H 0.35862 0.22809 0.31916 0.0
H1288 H 0.43483 0.22763 0.39301 0.0
H1289 H 0.34863 0.21343 0.4097 0.0
H1290 H 0.42634 0.29201 0.35724 0.0
H1291 H 0.42947 0.26359 0.33366 0.0
H1292 H 0.45027 0.26416 0.36463 0.0
H1293 H 0.32226 0.27348 0.37543 0.0
H1294 H 0.31325 0.23964 0.38865 0.0
H1295 H 0.32208 0.24429 0.35264 0.0
C1296 C 0.02952 0.06633 0.32476 0.0
C1297 C 0.04228 0.07646 0.30067 0.0
C1298 C 0.01342 0.04202 0.32421 0.0
C1299 C 0.0098 0.02757 0.29892 0.0
C1300 C 0.0216 0.0384 0.27432 0.0
C1301 C 0.03776 0.06263 0.2755 0.0
C1302 C 1.00122 0.0312 0.35093 0.0
C1303 C 0.01789 0.02391 0.24686 0.0
C1304 C 0.99285 0.95032 0.30257 0.0
C1305 C 0.96398 0.95033 0.29883 0.0
C1306 C 0.00805 0.97526 0.3024 0.0
C1307 C 0.99411 1.00086 0.29832 0.0
C1308 C 0.96508 1.00098 0.29414 0.0
C1309 C 0.95041 0.97584 0.2946 0.0
C1310 C 0.039 0.97425 0.30698 0.0
C1311 C 0.94939 0.02776 0.28971 0.0
H1312 H 0.0333 0.07662 0.34436 0.0
H1313 H 0.04747 0.07042 0.2568 0.0
H1314 H 0.97856 0.02801 0.34864 0.0
H1315 H 0.01055 0.01075 0.35595 0.0
H1316 H 1.00487 0.04549 0.36859 0.0
H1317 H 0.02718 0.03574 0.22943 0.0
H1318 H 0.02771 1.00309 0.24766 0.0
H1319 H 0.99551 0.02076 0.24256 0.0
H1320 H 1.00359 0.93081 0.30571 0.0
H1321 H 0.92806 0.97633 0.29242 0.0
H1322 H 0.04446 0.98632 0.32575 0.0
H1323 H 0.04991 0.98397 0.28922 0.0
H1324 H 0.0468 0.9527 0.30953 0.0
H1325 H 0.95131 0.0411 0.30832 0.0
H1326 H 0.92702 0.02423 0.28555 0.0
H1327 H 0.95843 0.03939 0.27204 0.0
C1328 C 0.05775 0.48741 0.58588 0.0
C1329 C 0.06517 0.47454 0.56083 0.0
C1330 C 0.0334 0.5034 0.58814 0.0
C1331 C 0.01573 0.50638 0.5649 0.0
C1332 C 0.02339 0.49404 0.5394 0.0
C1333 C 0.04806 0.47855 0.53761 0.0
C1334 C 0.0263 0.51664 0.61557 0.0
C1335 C 1.00521 0.4967 0.51408 0.0
C1336 C 0.93954 0.52562 0.57614 0.0
C1337 C 0.93945 0.55372 0.56872 0.0
C1338 C 0.96423 0.50991 0.57508 0.0
C1339 C 0.98945 0.5228 0.56702 0.0
C1340 C 0.98948 0.55137 0.5603 0.0
C1341 C 0.96453 0.56637 0.56105 0.0
C1342 C 0.96325 0.47942 0.5821 0.0
C1343 C 0.01589 0.56614 0.55218 0.0
H1344 H 0.07045 0.48417 0.60411 0.0
H1345 H 0.05371 0.46916 0.51802 0.0
H1346 H 0.02295 0.53926 0.61283 0.0
H1347 H 0.00666 0.50779 0.62366 0.0
H1348 H 0.04281 0.51346 0.63129 0.0
H1349 H 0.0139 0.48557 0.49589 0.0
H1350 H 0.98428 0.48825 0.51859 0.0
H1351 H 1.00255 0.51888 0.50856 0.0
H1352 H 0.92022 0.51582 0.58215 0.0
H1353 H 0.96465 0.58826 0.55583 0.0
H1354 H 0.9778 0.47479 0.59928 0.0
H1355 H 0.97007 0.46704 0.56394 0.0
H1356 H 0.94213 0.47255 0.58824 0.0
H1357 H 0.03175 0.56351 0.56861 0.0
H1358 H 0.01258 0.58867 0.54863 0.0
H1359 H 0.02446 0.55688 0.53296 0.0
C1360 C 0.49099 0.43729 0.80187 0.0
C1361 C 0.46219 0.43785 0.79775 0.0
C1362 C 0.50663 0.46198 0.80194 0.0
C1363 C 0.49315 0.48785 0.7979 0.0
C1364 C 0.46416 0.48851 0.79358 0.0
C1365 C 0.4491 0.46364 0.79368 0.0
C1366 C 0.53753 0.46043 0.80661 0.0
C1367 C 0.44892 0.51559 0.78934 0.0
C1368 C 0.52837 0.55334 0.82448 0.0
C1369 C 0.54064 0.56392 0.80031 0.0
C1370 C 0.51275 0.52874 0.82396 0.0
C1371 C 0.50919 0.51433 0.79864 0.0
C1372 C 0.52074 0.52539 0.77401 0.0
C1373 C 0.53631 0.55 0.77514 0.0
C1374 C 0.50072 0.51773 0.85067 0.0
C1375 C 0.51713 0.5109 0.74654 0.0
H1376 H 0.50131 0.41755 0.80502 0.0
H1377 H 0.42677 0.46453 0.7913 0.0
H1378 H 0.54866 0.47011 0.78896 0.0
H1379 H 0.54313 0.47227 0.82549 0.0
H1380 H 0.54497 0.43873 0.80902 0.0
H1381 H 0.42645 0.51248 0.78534 0.0
H1382 H 0.45122 0.52885 0.80796 0.0
H1383 H 0.45803 0.52709 0.77163 0.0
H1384 H 0.53201 0.56365 0.84408 0.0
H1385 H 0.54558 0.55812 0.75635 0.0
H1386 H 0.50981 0.4971 0.85537 0.0
H1387 H 0.47799 0.51486 0.84856 0.0
H1388 H 0.50471 0.53176 0.86847 0.0
H1389 H 0.52645 0.48986 0.74753 0.0
H1390 H 0.52691 0.52247 0.7292 0.0
H1391 H 0.49474 0.50825 0.74195 0.0
C1392 C 0.47441 0.05878 0.04906 0.0
C1393 C 0.44849 0.04575 0.05217 0.0
C1394 C 0.4992 0.04348 0.04845 0.0
C1395 C 0.49832 0.01431 0.05137 0.0
C1396 C 0.47233 1.00092 0.05458 0.0
C1397 C 0.44773 0.01677 0.05494 0.0
C1398 C 0.52639 0.05865 0.04504 0.0
C1399 C 0.47053 0.96983 0.05785 0.0
C1400 C 0.56003 0.97119 0.02694 0.0
C1401 C 0.57384 0.96559 0.05191 0.0
C1402 C 0.53568 0.98729 0.0264 0.0
C1403 C 0.5247 0.99795 0.05146 0.0
C1404 C 0.53899 0.99305 0.07663 0.0
C1405 C 0.5634 0.97704 0.07654 0.0
C1406 C 0.52137 0.99239 0.99907 0.0
C1407 C 0.52801 1.00398 0.10382 0.0
H1408 H 0.47549 0.08119 0.04771 0.0
H1409 H 0.42792 1.00645 0.05728 0.0
H1410 H 0.53956 0.05531 0.06357 0.0
H1411 H 0.5379 0.0503 0.02695 0.0
H1412 H 0.52347 0.08132 0.04208 0.0
H1413 H 0.44879 0.96252 0.06001 0.0
H1414 H 0.48005 0.95946 0.03966 0.0
H1415 H 0.48239 0.96321 0.0764 0.0
H1416 H 0.56801 0.96247 1.00783 0.0
H1417 H 0.5736 0.97238 0.09599 0.0
H1418 H 0.51883 0.015 0.99556 0.0
H1419 H 0.5003 0.98315 0.9995 0.0
H1420 H 0.53301 0.98341 0.98134 0.0
H1421 H 0.52536 0.02682 0.10271 0.0
H1422 H 0.54194 0.99901 0.12146 0.0
H1423 H 0.50729 0.99493 0.10806 0.0
C1424 C 0.06415 0.47096 0.98662 0.0
C1425 C 0.05141 0.44483 0.98435 0.0
C1426 C 0.04855 0.49553 0.98684 0.0
C1427 C 0.01936 0.49418 0.98457 0.0
C1428 C 1.00624 0.46794 0.98239 0.0
C1429 C 0.02242 0.44357 0.98223 0.0
C1430 C 0.06343 0.52302 0.98899 0.0
C1431 C 0.97512 0.46565 0.97994 0.0
C1432 C 0.97692 0.55689 1.00743 0.0
C1433 C 0.97088 0.56975 0.98203 0.0
C1434 C 0.9927 0.53236 1.00859 0.0
C1435 C 1.00273 0.52032 0.98376 0.0
C1436 C 0.99728 0.53354 0.95812 0.0
C1437 C 0.98146 0.55804 0.95757 0.0
C1438 C 0.9983 0.51909 0.03636 0.0
C1439 C 0.00765 0.52147 0.93117 0.0
H1440 H 0.08657 0.47232 0.98749 0.0
H1441 H 0.01238 0.42354 0.9805 0.0
H1442 H 0.05959 0.53549 0.97005 0.0
H1443 H 0.05527 0.53505 1.0068 0.0
H1444 H 0.08618 0.52047 0.99158 0.0
H1445 H 0.96803 0.44374 0.97902 0.0
H1446 H 0.96501 0.47593 0.99786 0.0
H1447 H 0.96798 0.47652 0.96098 0.0
H1448 H 0.96898 0.56586 0.02644 0.0
H1449 H 0.97646 0.56745 0.9378 0.0
H1450 H 0.02099 0.51716 0.03971 0.0
H1451 H 0.98954 0.49782 0.03679 0.0
H1452 H 0.98924 0.53114 0.05376 0.0
H1453 H 0.03054 0.51918 0.93179 0.0
H1454 H 1.00206 0.53453 0.91305 0.0
H1455 H 0.9988 0.50046 0.92814 0.0
C1456 C 0.47521 0.45137 0.22319 0.0
C1457 C 0.44973 0.46532 0.22557 0.0
C1458 C 0.50036 0.46593 0.22177 0.0
C1459 C 0.5002 0.49525 0.22317 0.0
C1460 C 0.47454 0.5095 0.22574 0.0
C1461 C 0.44956 0.49437 0.22657 0.0
C1462 C 0.5271 0.44992 0.21837 0.0
C1463 C 0.4735 0.54073 0.22771 0.0
C1464 C 0.56663 0.53197 0.24501 0.0
C1465 C 0.57639 0.54271 0.21974 0.0
C1466 C 0.54198 0.51647 0.24641 0.0
C1467 C 0.52689 0.51094 0.22188 0.0
C1468 C 0.53729 0.52049 0.19615 0.0
C1469 C 0.56171 0.53642 0.19541 0.0
C1470 C 0.53161 0.50674 0.27429 0.0
C1471 C 0.52219 0.51457 0.16942 0.0
H1472 H 0.47541 0.42892 0.2218 0.0
H1473 H 0.42991 0.50519 0.22832 0.0
H1474 H 0.53782 0.4566 0.19915 0.0
H1475 H 0.54124 0.45437 0.23591 0.0
H1476 H 0.52364 0.42716 0.21735 0.0
H1477 H 0.45201 0.54865 0.2303 0.0
H1478 H 0.48618 0.54784 0.24551 0.0
H1479 H 0.48255 0.55009 0.20875 0.0
H1480 H 0.57794 0.53624 0.26391 0.0
H1481 H 0.5686 0.54491 0.17579 0.0
H1482 H 0.52913 0.48387 0.2743 0.0
H1483 H 0.51088 0.51587 0.27849 0.0
H1484 H 0.54582 0.51258 0.29141 0.0
H1485 H 0.51836 0.49197 0.16733 0.0
H1486 H 0.53394 0.5218 0.15098 0.0
H1487 H 0.50168 0.52502 0.16961 0.0
C1488 C 0.52948 0.95013 0.46127 0.0
C1489 C 0.54084 0.93958 0.48588 0.0
C1490 C 0.51449 0.97518 0.46104 0.0
C1491 C 0.51073 0.99012 0.48604 0.0
C1492 C 0.52122 0.97905 0.51111 0.0
C1493 C 0.53608 0.95394 0.51074 0.0
C1494 C 0.50349 0.98613 0.43388 0.0
C1495 C 0.51742 0.99415 0.53824 0.0
C1496 C 0.49596 0.06788 0.4813 0.0
C1497 C 0.46713 0.06872 0.48518 0.0
C1498 C 0.51048 0.04248 0.48176 0.0
C1499 C 0.49581 0.01732 0.48595 0.0
C1500 C 0.46675 0.01807 0.48985 0.0
C1501 C 0.45283 0.04364 0.48937 0.0
C1502 C 0.54151 0.04254 0.47761 0.0
C1503 C 0.45024 0.99179 0.49411 0.0
H1504 H 0.53344 0.93949 0.44189 0.0
H1505 H 0.54462 0.94586 0.52987 0.0
H1506 H 0.4809 0.99024 0.43554 0.0
H1507 H 0.5137 1.00612 0.42885 0.0
H1508 H 0.50709 0.97147 0.4165 0.0
H1509 H 0.5262 0.98243 0.55602 0.0
H1510 H 0.52767 0.01472 0.53718 0.0
H1511 H 0.49505 0.99788 0.54219 0.0
H1512 H 0.50716 0.08708 0.478 0.0
H1513 H 0.43046 0.04389 0.49161 0.0
H1514 H 0.54696 0.03011 0.45905 0.0
H1515 H 0.55184 0.0327 0.49563 0.0
H1516 H 0.54991 0.06383 0.47495 0.0
H1517 H 0.45257 0.97807 0.47581 0.0
H1518 H 0.42781 0.99597 0.49738 0.0
H1519 H 0.45829 0.98025 0.5123 0.0
C1520 C 0.07099 0.01755 0.73013 0.0
C1521 C 0.06951 0.04651 0.73275 0.0
C1522 C 0.04676 1.00122 0.73009 0.0
C1523 C 0.02043 0.01413 0.73277 0.0
C1524 C 0.01883 0.04328 0.73551 0.0
C1525 C 0.04325 0.05904 0.73525 0.0
C1526 C 0.04929 0.97017 0.72698 0.0
C1527 C 0.99125 0.05792 0.73837 0.0
C1528 C 0.9562 0.97634 0.70678 0.0
C1529 C 0.94539 0.96508 0.73132 0.0
C1530 C 0.98059 0.99229 0.70695 0.0
C1531 C 0.99444 0.99731 0.73231 0.0
C1532 C 0.98318 0.98669 0.75727 0.0
C1533 C 0.95887 0.97063 0.75646 0.0
C1534 C 0.99191 1.00317 0.67988 0.0
C1535 C 0.99704 0.99197 0.78478 0.0
H1536 H 0.09108 0.00763 0.72823 0.0
H1537 H 0.04164 0.08143 0.73643 0.0
H1538 H 0.03972 0.95966 0.74506 0.0
H1539 H 0.03786 0.96327 0.70828 0.0
H1540 H 0.07122 0.96329 0.72517 0.0
H1541 H 0.99361 0.08066 0.74124 0.0
H1542 H 0.97847 0.05424 0.71964 0.0
H1543 H 0.97962 0.04942 0.75631 0.0
H1544 H 0.94622 0.97169 0.68721 0.0
H1545 H 0.95057 0.96207 0.7755 0.0
H1546 H 0.01295 0.99457 0.6762 0.0
H1547 H 0.99394 0.02608 0.68078 0.0
H1548 H 0.97851 0.99771 0.66199 0.0
H1549 H 0.01834 0.98324 0.7846 0.0
H1550 H 0.98541 0.98265 0.80235 0.0
H1551 H 0.99894 0.01461 0.78839 0.0
C1552 C 0.31769 0.08068 0.41894 0.0
C1553 C 0.31308 0.10156 0.43851 0.0
C1554 C 0.29612 0.07218 0.40154 0.0
C1555 C 0.26987 0.08492 0.40438 0.0
C1556 C 0.26421 0.10197 0.42765 0.0
C1557 C 0.28625 0.11068 0.44418 0.0
C1558 C 0.30264 0.05303 0.37773 0.0
C1559 C 0.23598 0.11478 0.43235 0.0
C1560 C 0.23372 0.12325 0.34847 0.0
C1561 C 0.20829 0.10958 0.3486 0.0
C1562 C 0.25602 0.11261 0.3635 0.0
C1563 C 0.25199 0.08846 0.37987 0.0
C1564 C 0.22746 0.07274 0.37708 0.0
C1565 C 0.20572 0.0835 0.36113 0.0
C1566 C 0.28255 0.12926 0.36466 0.0
C1567 C 0.2227 0.04648 0.39338 0.0
H1568 H 0.33868 0.07364 0.41485 0.0
H1569 H 0.28297 0.12662 0.45971 0.0
H1570 H 0.28396 0.04162 0.37069 0.0
H1571 H 0.31063 0.0654 0.36005 0.0
H1572 H 0.31898 0.03786 0.38362 0.0
H1573 H 0.23388 0.12325 0.45365 0.0
H1574 H 0.23279 0.13203 0.41744 0.0
H1575 H 0.21933 0.0993 0.42895 0.0
H1576 H 0.23557 0.14317 0.33817 0.0
H1577 H 0.18588 0.0729 0.3609 0.0
H1578 H 0.30089 0.11546 0.36311 0.0
H1579 H 0.28375 0.1404 0.38474 0.0
H1580 H 0.2837 0.14486 0.34774 0.0
H1581 H 0.20931 0.03191 0.38162 0.0
H1582 H 0.21179 0.05163 0.41296 0.0
H1583 H 0.24245 0.03591 0.39864 0.0
C1584 C 0.93878 0.70934 0.59334 0.0
C1585 C 0.91358 0.7145 0.57985 0.0
C1586 C 0.94985 0.7293 0.61122 0.0
C1587 C 0.93547 0.75459 0.6146 0.0
C1588 C 0.91444 0.7621 0.5955 0.0
C1589 C 0.90314 0.74148 0.57864 0.0
C1590 C 0.9736 0.72132 0.62988 0.0
C1591 C 0.90027 0.79004 0.59664 0.0
C1592 C 0.90265 0.77678 0.6804 0.0
C1593 C 0.91378 0.8033 0.68279 0.0
C1594 C 0.91316 0.75833 0.66072 0.0
C1595 C 0.93424 0.76757 0.64227 0.0
C1596 C 0.94804 0.79287 0.64736 0.0
C1597 C 0.93774 0.81048 0.66798 0.0
C1598 C 0.89901 0.73055 0.65731 0.0
C1599 C 0.97122 0.80314 0.62905 0.0
H1600 H 0.94739 0.68855 0.59348 0.0
H1601 H 0.88413 0.74555 0.56733 0.0
H1602 H 0.98506 0.73983 0.63728 0.0
H1603 H 0.96537 0.71008 0.6482 0.0
H1604 H 0.9882 0.7072 0.61897 0.0
H1605 H 0.88838 0.79434 0.5774 0.0
H1606 H 0.88561 0.79052 0.61439 0.0
H1607 H 0.91565 0.80686 0.59967 0.0
H1608 H 0.88435 0.77133 0.6923 0.0
H1609 H 0.9464 0.83114 0.67008 0.0
H1610 H 0.91447 0.71385 0.65393 0.0
H1611 H 0.88511 0.7312 0.63902 0.0
H1612 H 0.88632 0.72504 0.67573 0.0
H1613 H 0.98714 0.81395 0.64167 0.0
H1614 H 0.96281 0.81849 0.61409 0.0
H1615 H 0.98131 0.78613 0.61729 0.0
C1616 C 0.23643 0.39644 0.94141 0.0
C1617 C 0.21027 0.40871 0.94074 0.0
C1618 C 0.25779 0.40693 0.92496 0.0
C1619 C 0.25192 0.4292 0.90661 0.0
C1620 C 0.227 0.44436 0.90948 0.0
C1621 C 0.20624 0.43389 0.92684 0.0
C1622 C 0.28499 0.39132 0.924 0.0
C1623 C 0.22055 0.46904 0.8914 0.0
C1624 C 0.3129 0.43175 0.85984 0.0
C1625 C 0.30646 0.40852 0.84372 0.0
C1626 C 0.29328 0.44248 0.87836 0.0
C1627 C 0.26703 0.42962 0.88005 0.0
C1628 C 0.25905 0.40981 0.85983 0.0
C1629 C 0.27928 0.39891 0.84224 0.0
C1630 C 0.30216 0.46456 0.89858 0.0
C1631 C 0.23054 0.39678 0.85971 0.0
H1632 H 0.23943 0.37727 0.95283 0.0
H1633 H 0.18587 0.4435 0.92677 0.0
H1634 H 0.28559 0.37799 0.90527 0.0
H1635 H 0.30272 0.4059 0.92286 0.0
H1636 H 0.28778 0.37783 0.94247 0.0
H1637 H 0.2074 0.4842 0.90274 0.0
H1638 H 0.23968 0.47958 0.88416 0.0
H1639 H 0.20873 0.46205 0.87298 0.0
H1640 H 0.33409 0.43926 0.86061 0.0
H1641 H 0.27449 0.38121 0.82923 0.0
H1642 H 0.31396 0.45478 0.91573 0.0
H1643 H 0.28417 0.4758 0.90753 0.0
H1644 H 0.31616 0.47971 0.88831 0.0
H1645 H 0.22878 0.3819 0.87718 0.0
H1646 H 0.22647 0.38535 0.84015 0.0
H1647 H 0.21423 0.41279 0.86235 0.0
C1648 C 0.57209 0.80873 0.11415 0.0
C1649 C 0.59812 0.80319 0.10246 0.0
C1650 C 0.55955 0.78935 0.13181 0.0
C1651 C 0.5735 0.76415 0.13735 0.0
C1652 C 0.5975 0.75691 0.1218 0.0
C1653 C 0.60982 0.77688 0.10488 0.0
C1654 C 0.53322 0.79737 0.14667 0.0
C1655 C 0.61237 0.72953 0.12567 0.0
C1656 C 0.59629 0.73474 0.20287 0.0
C1657 C 0.58819 0.70742 0.19804 0.0
C1658 C 0.58606 0.75606 0.18615 0.0
C1659 C 0.56863 0.74908 0.16358 0.0
C1660 C 0.55583 0.72275 0.16283 0.0
C1661 C 0.56582 0.70189 0.18042 0.0
C1662 C 0.59834 0.78467 0.18921 0.0
C1663 C 0.53553 0.71517 0.14038 0.0
H1664 H 0.56291 0.82916 0.11187 0.0
H1665 H 0.6297 0.77264 0.09519 0.0
H1666 H 0.52231 0.77917 0.15556 0.0
H1667 H 0.53826 0.81197 0.1637 0.0
H1668 H 0.51898 0.80837 0.13229 0.0
H1669 H 0.62828 0.72595 0.1094 0.0
H1670 H 0.62293 0.72929 0.14608 0.0
H1671 H 0.59751 0.71202 0.12517 0.0
H1672 H 0.61314 0.73892 0.21714 0.0
H1673 H 0.55913 0.68066 0.17727 0.0
H1674 H 0.58261 0.80088 0.18486 0.0
H1675 H 0.61563 0.78725 0.17422 0.0
H1676 H 0.60665 0.78797 0.21039 0.0
H1677 H 0.52058 0.69936 0.14794 0.0
H1678 H 0.54696 0.70607 0.12259 0.0
H1679 H 0.52396 0.73362 0.13291 0.0
C1680 C 0.73032 0.61037 0.84411 0.0
C1681 C 0.70454 0.59768 0.8469 0.0
C1682 C 0.75288 0.60087 0.8595 0.0
C1683 C 0.7487 0.57914 0.87891 0.0
C1684 C 0.7238 0.56373 0.87857 0.0
C1685 C 0.70178 0.5732 0.86224 0.0
C1686 C 0.77979 0.61688 0.85801 0.0
C1687 C 0.71895 0.5398 0.8981 0.0
C1688 C 0.81349 0.57584 0.92042 0.0
C1689 C 0.80879 0.59911 0.9371 0.0
C1690 C 0.7923 0.56569 0.90344 0.0
C1691 C 0.76627 0.57915 0.90384 0.0
C1692 C 0.76038 0.59936 0.92439 0.0
C1693 C 0.78209 0.60963 0.94044 0.0
C1694 C 0.79908 0.54339 0.88262 0.0
C1695 C 0.7323 0.61318 0.9266 0.0
H1696 H 0.73225 0.62901 0.83165 0.0
H1697 H 0.68163 0.56335 0.86401 0.0
H1698 H 0.78136 0.63091 0.87616 0.0
H1699 H 0.79782 0.6026 0.85849 0.0
H1700 H 0.7811 0.62971 0.83892 0.0
H1701 H 0.70469 0.52437 0.88871 0.0
H1702 H 0.73862 0.52933 0.90386 0.0
H1703 H 0.70902 0.54765 0.91732 0.0
H1704 H 0.83435 0.56767 0.9182 0.0
H1705 H 0.7787 0.62734 0.95389 0.0
H1706 H 0.80858 0.55306 0.86403 0.0
H1707 H 0.7803 0.5319 0.876 0.0
H1708 H 0.81437 0.52847 0.89129 0.0
H1709 H 0.72964 0.62802 0.9092 0.0
H1710 H 0.72999 0.62482 0.94633 0.0
H1711 H 0.71544 0.59763 0.92529 0.0
C1712 C 0.43221 0.20166 0.10972 0.0
C1713 C 0.40725 0.20425 0.09518 0.0
C1714 C 0.44219 0.2239 0.12543 0.0
C1715 C 0.42678 0.24883 0.12594 0.0
C1716 C 0.40438 0.25276 0.10731 0.0
C1717 C 0.39441 0.23001 0.09255 0.0
C1718 C 0.46673 0.21928 0.1442 0.0
C1719 C 0.38836 0.2797 0.106 0.0
C1720 C 0.39898 0.28358 0.18816 0.0
C1721 C 0.40963 0.3101 0.18407 0.0
C1722 C 0.40837 0.26154 0.17197 0.0
C1723 C 0.42778 0.26691 0.15051 0.0
C1724 C 0.44138 0.29281 0.14913 0.0
C1725 C 0.43217 0.31432 0.16628 0.0
C1726 C 0.39438 0.23369 0.17513 0.0
C1727 C 0.46277 0.2991 0.12721 0.0
H1728 H 0.44218 0.18154 0.11137 0.0
H1729 H 0.37539 0.23181 0.08068 0.0
H1730 H 0.47765 0.23898 0.14887 0.0
H1731 H 0.45944 0.21021 0.16404 0.0
H1732 H 0.48164 0.20444 0.13477 0.0
H1733 H 0.3748 0.28071 0.08743 0.0
H1734 H 0.37506 0.28165 0.12469 0.0
H1735 H 0.40267 0.29768 0.10558 0.0
H1736 H 0.38181 0.28057 0.2024 0.0
H1737 H 0.44042 0.33506 0.16345 0.0
H1738 H 0.4096 0.2166 0.17281 0.0
H1739 H 0.37842 0.23125 0.15876 0.0
H1740 H 0.38402 0.23158 0.1956 0.0
H1741 H 0.47825 0.31423 0.13506 0.0
H1742 H 0.45238 0.30864 0.10905 0.0
H1743 H 0.47372 0.28011 0.12018 0.0
C1744 C 0.78274 0.89263 0.3463 0.0
C1745 C 0.80839 0.90582 0.34743 0.0
C1746 C 0.7606 0.90246 0.3621 0.0
C1747 C 0.76496 0.92526 0.38016 0.0
C1748 C 0.78977 0.94074 0.37852 0.0
C1749 C 0.81137 0.93084 0.36182 0.0
C1750 C 0.73387 0.88612 0.36219 0.0
C1751 C 0.79496 0.96556 0.39678 0.0
C1752 C 0.6995 0.93232 0.42021 0.0
C1753 C 0.70354 0.91022 0.43855 0.0
C1754 C 0.72118 0.94105 0.403 0.0
C1755 C 0.74703 0.92733 0.40482 0.0
C1756 C 0.75223 0.90855 0.42684 0.0
C1757 C 0.73004 0.89966 0.44315 0.0
C1758 C 0.71514 0.96181 0.38042 0.0
C1759 C 0.78005 0.89454 0.43045 0.0
H1760 H 0.78061 0.87352 0.33463 0.0
H1761 H 0.83141 0.94103 0.36241 0.0
H1762 H 0.73285 0.87314 0.38117 0.0
H1763 H 0.71572 0.90024 0.3623 0.0
H1764 H 0.73227 0.87221 0.34392 0.0
H1765 H 0.80892 0.98061 0.38632 0.0
H1766 H 0.77539 0.97623 0.40256 0.0
H1767 H 0.80537 0.95863 0.41607 0.0
H1768 H 0.67876 0.94046 0.41695 0.0
H1769 H 0.73291 0.8828 0.45776 0.0
H1770 H 0.70706 0.95073 0.36198 0.0
H1771 H 0.73407 0.97329 0.37416 0.0
H1772 H 0.69905 0.97689 0.38719 0.0
H1773 H 0.78261 0.87827 0.41438 0.0
H1774 H 0.78196 0.88456 0.45111 0.0
H1775 H 0.79718 0.90967 0.42795 0.0
C1776 C 0.08306 0.20275 0.67561 0.0
C1777 C 0.10799 0.20619 0.69002 0.0
C1778 C 0.07274 0.22421 0.65902 0.0
C1779 C 0.0877 0.24934 0.65756 0.0
C1780 C 0.11019 0.2542 0.67586 0.0
C1781 C 0.12053 0.23215 0.69148 0.0
C1782 C 0.04827 0.2185 0.64047 0.0
C1783 C 0.12583 0.28135 0.67604 0.0
C1784 C 0.11332 0.28411 0.59439 0.0
C1785 C 0.10179 0.31032 0.59826 0.0
C1786 C 0.10495 0.26197 0.61104 0.0
C1787 C 0.08571 0.267 0.63272 0.0
C1788 C 0.0712 0.29245 0.63393 0.0
C1789 C 0.07935 0.314 0.61631 0.0
C1790 C 0.11983 0.23452 0.60808 0.0
C1791 C 0.05005 0.29835 0.6562 0.0
H1792 H 0.0734 0.18244 0.67474 0.0
H1793 H 0.13961 0.2346 0.70311 0.0
H1794 H 0.03703 0.23782 0.63494 0.0
H1795 H 0.05571 0.20869 0.62104 0.0
H1796 H 0.03359 0.20387 0.65054 0.0
H1797 H 0.13951 0.2832 0.69445 0.0
H1798 H 0.13897 0.28278 0.65719 0.0
H1799 H 0.11128 0.29918 0.67588 0.0
H1800 H 0.13045 0.2815 0.58002 0.0
H1801 H 0.07046 0.33451 0.61904 0.0
H1802 H 0.1052 0.21698 0.61065 0.0
H1803 H 0.13594 0.23271 0.62441 0.0
H1804 H 0.13017 0.23256 0.58759 0.0
H1805 H 0.03431 0.31347 0.64877 0.0
H1806 H 0.06064 0.30766 0.67435 0.0
H1807 H 0.0394 0.27918 0.66315 0.0
loop_
_geom_bond_atom_site_label_1
_geom_bond_atom_site_label_2
_geom_bond_distance
_geom_bond_site_symmetry_2
_ccdc_geom_bond_type
Co0 N4 2.148 . S
Co0 N10 2.128 . S
Co0 N20 2.194 . S
Co0 O25 2.351 . S
Co0 O26 2.155 . S
Co0 O27 2.096 . S
C1 N4 1.301 . S
C1 N5 1.328 . S
C1 H6 0.930 . S
C2 C3 1.333 . S
C2 N4 1.317 . S
C2 H7 0.930 . S
C3 C2 1.333 . S
C3 N5 1.350 . S
C3 H29 0.931 . S
N4 Co0 2.148 . S
N4 C1 1.301 . S
N4 C2 1.317 . S
N5 C1 1.328 . S
N5 C3 1.350 . S
H6 C1 0.930 . S
H7 C2 0.930 . S
C8 O9 1.224 . S
C8 O27 1.247 . S
O9 C8 1.224 . S
N10 Co0 2.128 . S
N10 C11 1.355 . S
N10 C13 1.311 . S
C11 N10 1.355 . S
C11 C12 1.363 . S
C11 H23 0.929 . S
C12 C11 1.363 . S
C12 N14 1.375 . S
C12 H30 0.931 . S
C13 N10 1.311 . S
C13 N14 1.347 . S
C13 H24 0.929 . S
N14 C12 1.375 . S
N14 C13 1.347 . S
C15 C18 1.365 . S
C15 N20 1.328 . S
C15 H21 0.929 . S
C16 C17 1.362 . S
C16 C19 1.378 . S
C16 H31 0.929 . S
C17 C16 1.362 . S
C17 C18 1.366 . S
C18 C15 1.365 . S
C18 C17 1.366 . S
C18 H32 0.930 . S
C19 C16 1.378 . S
C19 N20 1.315 . S
C19 H22 0.930 . S
N20 Co0 2.194 . S
N20 C15 1.328 . S
N20 C19 1.315 . S
H21 C15 0.929 . S
H22 C19 0.930 . S
H23 C11 0.929 . S
H24 C13 0.929 . S
O25 Co0 2.351 . S
O25 C28 1.244 . S
O26 Co0 2.155 . S
O26 C28 1.240 . S
O27 Co0 2.096 . S
O27 C8 1.247 . S
C28 O25 1.244 . S
C28 O26 1.240 . S
H29 C3 0.931 . S
H30 C12 0.931 . S
H31 C16 0.929 . S
H32 C18 0.930 . S
Co33 N37 2.148 . S
Co33 N43 2.128 . S
Co33 N53 2.194 . S
Co33 O58 2.351 . S
Co33 O59 2.155 . S
Co33 O60 2.096 . S
C34 N37 1.301 . S
C34 N38 1.328 . S
C34 H39 0.930 . S
C35 C36 1.333 . S
C35 N37 1.317 . S
C35 H40 0.930 . S
C36 C35 1.333 . S
C36 N38 1.350 . S
C36 H62 0.931 . S
N37 Co33 2.148 . S
N37 C34 1.301 . S
N37 C35 1.317 . S
N38 C34 1.328 . S
N38 C36 1.350 . S
H39 C34 0.930 . S
H40 C35 0.930 . S
C41 O42 1.224 . S
C41 O60 1.247 . S
O42 C41 1.224 . S
N43 Co33 2.128 . S
N43 C44 1.355 . S
N43 C46 1.311 . S
C44 N43 1.355 . S
C44 C45 1.363 . S
C44 H56 0.929 . S
C45 C44 1.363 . S
C45 N47 1.375 . S
C45 H63 0.931 . S
C46 N43 1.311 . S
C46 N47 1.347 . S
C46 H57 0.929 . S
N47 C45 1.375 . S
N47 C46 1.347 . S
C48 C51 1.365 . S
C48 N53 1.328 . S
C48 H54 0.929 . S
C49 C50 1.362 . S
C49 C52 1.378 . S
C49 H64 0.929 . S
C50 C49 1.362 . S
C50 C51 1.366 . S
C51 C48 1.365 . S
C51 C50 1.366 . S
C51 H65 0.930 . S
C52 C49 1.378 . S
C52 N53 1.315 . S
C52 H55 0.930 . S
N53 Co33 2.194 . S
N53 C48 1.328 . S
N53 C52 1.315 . S
H54 C48 0.929 . S
H55 C52 0.930 . S
H56 C44 0.929 . S
H57 C46 0.929 . S
O58 Co33 2.351 . S
O58 C61 1.244 . S
O59 Co33 2.155 . S
O59 C61 1.240 . S
O60 Co33 2.096 . S
O60 C41 1.247 . S
C61 O58 1.244 . S
C61 O59 1.240 . S
H62 C36 0.931 . S
H63 C45 0.931 . S
H64 C49 0.929 . S
H65 C51 0.930 . S
Co66 N70 2.148 . S
Co66 N76 2.128 . S
Co66 N86 2.194 . S
Co66 O91 2.351 . S
Co66 O92 2.155 . S
Co66 O93 2.096 . S
C67 N70 1.301 . S
C67 N71 1.328 . S
C67 H72 0.930 . S
C68 C69 1.333 . S
C68 N70 1.317 . S
C68 H73 0.930 . S
C69 C68 1.333 . S
C69 N71 1.350 . S
C69 H95 0.931 . S
N70 Co66 2.148 . S
N70 C67 1.301 . S
N70 C68 1.317 . S
N71 C67 1.328 . S
N71 C69 1.350 . S
H72 C67 0.930 . S
H73 C68 0.930 . S
C74 O75 1.224 . S
C74 O93 1.247 . S
O75 C74 1.224 . S
N76 Co66 2.128 . S
N76 C77 1.355 . S
N76 C79 1.311 . S
C77 N76 1.355 . S
C77 C78 1.363 . S
C77 H89 0.929 . S
C78 C77 1.363 . S
C78 N80 1.375 . S
C78 H96 0.931 . S
C79 N76 1.311 . S
C79 N80 1.347 . S
C79 H90 0.929 . S
N80 C78 1.375 . S
N80 C79 1.347 . S
C81 C84 1.365 . S
C81 N86 1.328 . S
C81 H87 0.929 . S
C82 C83 1.362 . S
C82 C85 1.378 . S
C82 H97 0.929 . S
C83 C82 1.362 . S
C83 C84 1.366 . S
C84 C81 1.365 . S
C84 C83 1.366 . S
C84 H98 0.930 . S
C85 C82 1.378 . S
C85 N86 1.315 . S
C85 H88 0.930 . S
N86 Co66 2.194 . S
N86 C81 1.328 . S
N86 C85 1.315 . S
H87 C81 0.929 . S
H88 C85 0.930 . S
H89 C77 0.929 . S
H90 C79 0.929 . S
O91 Co66 2.351 . S
O91 C94 1.244 . S
O92 Co66 2.155 . S
O92 C94 1.240 . S
O93 Co66 2.096 . S
O93 C74 1.247 . S
C94 O91 1.244 . S
C94 O92 1.240 . S
H95 C69 0.931 . S
H96 C78 0.931 . S
H97 C82 0.929 . S
H98 C84 0.930 . S
Co99 N103 2.148 . S
Co99 N109 2.128 . S
Co99 N119 2.194 . S
Co99 O124 2.351 . S
Co99 O125 2.155 . S
Co99 O126 2.096 . S
C100 N103 1.301 . S
C100 N104 1.328 . S
C100 H105 0.930 . S
C101 C102 1.333 . S
C101 N103 1.317 . S
C101 H106 0.930 . S
C102 C101 1.333 . S
C102 N104 1.350 . S
C102 H128 0.931 . S
N103 Co99 2.148 . S
N103 C100 1.301 . S
N103 C101 1.317 . S
N104 C100 1.328 . S
N104 C102 1.350 . S
H105 C100 0.930 . S
H106 C101 0.930 . S
C107 O108 1.224 . S
C107 O126 1.247 . S
O108 C107 1.224 . S
N109 Co99 2.128 . S
N109 C110 1.355 . S
N109 C112 1.311 . S
C110 N109 1.355 . S
C110 C111 1.363 . S
C110 H122 0.929 . S
C111 C110 1.363 . S
C111 N113 1.375 . S
C111 H129 0.931 . S
C112 N109 1.311 . S
C112 N113 1.347 . S
C112 H123 0.929 . S
N113 C111 1.375 . S
N113 C112 1.347 . S
C114 C117 1.365 . S
C114 N119 1.328 . S
C114 H120 0.929 . S
C115 C116 1.362 . S
C115 C118 1.378 . S
C115 H130 0.929 . S
C116 C115 1.362 . S
C116 C117 1.366 . S
C117 C114 1.365 . S
C117 C116 1.366 . S
C117 H131 0.930 . S
C118 C115 1.378 . S
C118 N119 1.315 . S
C118 H121 0.930 . S
N119 Co99 2.194 . S
N119 C114 1.328 . S
N119 C118 1.315 . S
H120 C114 0.929 . S
H121 C118 0.930 . S
H122 C110 0.929 . S
H123 C112 0.929 . S
O124 Co99 2.351 . S
O124 C127 1.244 . S
O125 Co99 2.155 . S
O125 C127 1.240 . S
O126 Co99 2.096 . S
O126 C107 1.247 . S
C127 O124 1.244 . S
C127 O125 1.240 . S
H128 C102 0.931 . S
H129 C111 0.931 . S
H130 C115 0.929 . S
H131 C117 0.930 . S
Co132 N136 2.148 . S
Co132 N142 2.128 . S
Co132 N152 2.194 . S
Co132 O157 2.351 . S
Co132 O158 2.155 . S
Co132 O159 2.096 . S
C133 N136 1.301 . S
C133 N137 1.328 . S
C133 H138 0.930 . S
C134 C135 1.333 . S
C134 N136 1.317 . S
C134 H139 0.930 . S
C135 C134 1.333 . S
C135 N137 1.350 . S
C135 H161 0.931 . S
N136 Co132 2.148 . S
N136 C133 1.301 . S
N136 C134 1.317 . S
N137 C133 1.328 . S
N137 C135 1.350 . S
H138 C133 0.930 . S
H139 C134 0.930 . S
C140 O141 1.224 . S
C140 O159 1.247 . S
O141 C140 1.224 . S
N142 Co132 2.128 . S
N142 C143 1.355 . S
N142 C145 1.311 . S
C143 N142 1.355 . S
C143 C144 1.363 . S
C143 H155 0.929 . S
C144 C143 1.363 . S
C144 N146 1.375 . S
C144 H162 0.931 . S
C145 N142 1.311 . S
C145 N146 1.347 . S
C145 H156 0.929 . S
N146 C144 1.375 . S
N146 C145 1.347 . S
C147 C150 1.365 . S
C147 N152 1.328 . S
C147 H153 0.929 . S
C148 C149 1.362 . S
C148 C151 1.378 . S
C148 H163 0.929 . S
C149 C148 1.362 . S
C149 C150 1.366 . S
C150 C147 1.365 . S
C150 C149 1.366 . S
C150 H164 0.930 . S
C151 C148 1.378 . S
C151 N152 1.315 . S
C151 H154 0.930 . S
N152 Co132 2.194 . S
N152 C147 1.328 . S
N152 C151 1.315 . S
H153 C147 0.929 . S
H154 C151 0.930 . S
H155 C143 0.929 . S
H156 C145 0.929 . S
O157 Co132 2.351 . S
O157 C160 1.244 . S
O158 Co132 2.155 . S
O158 C160 1.240 . S
O159 Co132 2.096 . S
O159 C140 1.247 . S
C160 O157 1.244 . S
C160 O158 1.240 . S
H161 C135 0.931 . S
H162 C144 0.931 . S
H163 C148 0.929 . S
H164 C150 0.930 . S
Co165 N169 2.148 . S
Co165 N175 2.128 . S
Co165 N185 2.194 . S
Co165 O190 2.351 . S
Co165 O191 2.155 . S
Co165 O192 2.096 . S
C166 N169 1.301 . S
C166 N170 1.328 . S
C166 H171 0.930 . S
C167 C168 1.333 . S
C167 N169 1.317 . S
C167 H172 0.930 . S
C168 C167 1.333 . S
C168 N170 1.350 . S
C168 H194 0.931 . S
N169 Co165 2.148 . S
N169 C166 1.301 . S
N169 C167 1.317 . S
N170 C166 1.328 . S
N170 C168 1.350 . S
H171 C166 0.930 . S
H172 C167 0.930 . S
C173 O174 1.224 . S
C173 O192 1.247 . S
O174 C173 1.224 . S
N175 Co165 2.128 . S
N175 C176 1.355 . S
N175 C178 1.311 . S
C176 N175 1.355 . S
C176 C177 1.363 . S
C176 H188 0.929 . S
C177 C176 1.363 . S
C177 N179 1.375 . S
C177 H195 0.931 . S
C178 N175 1.311 . S
C178 N179 1.347 . S
C178 H189 0.929 . S
N179 C177 1.375 . S
N179 C178 1.347 . S
C180 C183 1.365 . S
C180 N185 1.328 . S
C180 H186 0.929 . S
C181 C182 1.362 . S
C181 C184 1.378 . S
C181 H196 0.929 . S
C182 C181 1.362 . S
C182 C183 1.366 . S
C183 C180 1.365 . S
C183 C182 1.366 . S
C183 H197 0.930 . S
C184 C181 1.378 . S
C184 N185 1.315 . S
C184 H187 0.930 . S
N185 Co165 2.194 . S
N185 C180 1.328 . S
N185 C184 1.315 . S
H186 C180 0.929 . S
H187 C184 0.930 . S
H188 C176 0.929 . S
H189 C178 0.929 . S
O190 Co165 2.351 . S
O190 C193 1.244 . S
O191 Co165 2.155 . S
O191 C193 1.240 . S
O192 Co165 2.096 . S
O192 C173 1.247 . S
C193 O190 1.244 . S
C193 O191 1.240 . S
H194 C168 0.931 . S
H195 C177 0.931 . S
H196 C181 0.929 . S
H197 C183 0.930 . S
Co198 N202 2.148 . S
Co198 N208 2.128 . S
Co198 N218 2.194 . S
Co198 O223 2.351 . S
Co198 O224 2.155 . S
Co198 O225 2.096 . S
C199 N202 1.301 . S
C199 N203 1.328 . S
C199 H204 0.930 . S
C200 C201 1.333 . S
C200 N202 1.317 . S
C200 H205 0.930 . S
C201 C200 1.333 . S
C201 N203 1.350 . S
C201 H227 0.931 . S
N202 Co198 2.148 . S
N202 C199 1.301 . S
N202 C200 1.317 . S
N203 C199 1.328 . S
N203 C201 1.350 . S
H204 C199 0.930 . S
H205 C200 0.930 . S
C206 O207 1.224 . S
C206 O225 1.247 . S
O207 C206 1.224 . S
N208 Co198 2.128 . S
N208 C209 1.355 . S
N208 C211 1.311 . S
C209 N208 1.355 . S
C209 C210 1.363 . S
C209 H221 0.929 . S
C210 C209 1.363 . S
C210 N212 1.375 . S
C210 H228 0.931 . S
C211 N208 1.311 . S
C211 N212 1.347 . S
C211 H222 0.929 . S
N212 C210 1.375 . S
N212 C211 1.347 . S
C213 C216 1.365 . S
C213 N218 1.328 . S
C213 H219 0.929 . S
C214 C215 1.362 . S
C214 C217 1.378 . S
C214 H229 0.929 . S
C215 C214 1.362 . S
C215 C216 1.366 . S
C216 C213 1.365 . S
C216 C215 1.366 . S
C216 H230 0.930 . S
C217 C214 1.378 . S
C217 N218 1.315 . S
C217 H220 0.930 . S
N218 Co198 2.194 . S
N218 C213 1.328 . S
N218 C217 1.315 . S
H219 C213 0.929 . S
H220 C217 0.930 . S
H221 C209 0.929 . S
H222 C211 0.929 . S
O223 Co198 2.351 . S
O223 C226 1.244 . S
O224 Co198 2.155 . S
O224 C226 1.240 . S
O225 Co198 2.096 . S
O225 C206 1.247 . S
C226 O223 1.244 . S
C226 O224 1.240 . S
H227 C201 0.931 . S
H228 C210 0.931 . S
H229 C214 0.929 . S
H230 C216 0.930 . S
Co231 N235 2.148 . S
Co231 N241 2.128 . S
Co231 N251 2.194 . S
Co231 O256 2.351 . S
Co231 O257 2.155 . S
Co231 O258 2.096 . S
C232 N235 1.301 . S
C232 N236 1.328 . S
C232 H237 0.930 . S
C233 C234 1.333 . S
C233 N235 1.317 . S
C233 H238 0.930 . S
C234 C233 1.333 . S
C234 N236 1.350 . S
C234 H260 0.931 . S
N235 Co231 2.148 . S
N235 C232 1.301 . S
N235 C233 1.317 . S
N236 C232 1.328 . S
N236 C234 1.350 . S
H237 C232 0.930 . S
H238 C233 0.930 . S
C239 O240 1.224 . S
C239 O258 1.247 . S
O240 C239 1.224 . S
N241 Co231 2.128 . S
N241 C242 1.355 . S
N241 C244 1.311 . S
C242 N241 1.355 . S
C242 C243 1.363 . S
C242 H254 0.929 . S
C243 C242 1.363 . S
C243 N245 1.375 . S
C243 H261 0.931 . S
C244 N241 1.311 . S
C244 N245 1.347 . S
C244 H255 0.929 . S
N245 C243 1.375 . S
N245 C244 1.347 . S
C246 C249 1.365 . S
C246 N251 1.328 . S
C246 H252 0.929 . S
C247 C248 1.362 . S
C247 C250 1.378 . S
C247 H262 0.929 . S
C248 C247 1.362 . S
C248 C249 1.366 . S
C249 C246 1.365 . S
C249 C248 1.366 . S
C249 H263 0.930 . S
C250 C247 1.378 . S
C250 N251 1.315 . S
C250 H253 0.930 . S
N251 Co231 2.194 . S
N251 C246 1.328 . S
N251 C250 1.315 . S
H252 C246 0.929 . S
H253 C250 0.930 . S
H254 C242 0.929 . S
H255 C244 0.929 . S
O256 Co231 2.351 . S
O256 C259 1.244 . S
O257 Co231 2.155 . S
O257 C259 1.240 . S
O258 Co231 2.096 . S
O258 C239 1.247 . S
C259 O256 1.244 . S
C259 O257 1.240 . S
H260 C234 0.931 . S
H261 C243 0.931 . S
H262 C247 0.929 . S
H263 C249 0.930 . S
Co264 N268 2.148 . S
Co264 N274 2.128 . S
Co264 N284 2.194 . S
Co264 O289 2.351 . S
Co264 O290 2.155 . S
Co264 O291 2.096 . S
C265 N268 1.301 . S
C265 N269 1.328 . S
C265 H270 0.930 . S
C266 C267 1.333 . S
C266 N268 1.317 . S
C266 H271 0.930 . S
C267 C266 1.333 . S
C267 N269 1.350 . S
C267 H293 0.931 . S
N268 Co264 2.148 . S
N268 C265 1.301 . S
N268 C266 1.317 . S
N269 C265 1.328 . S
N269 C267 1.350 . S
H270 C265 0.930 . S
H271 C266 0.930 . S
C272 O273 1.224 . S
C272 O291 1.247 . S
O273 C272 1.224 . S
N274 Co264 2.128 . S
N274 C275 1.355 . S
N274 C277 1.311 . S
C275 N274 1.355 . S
C275 C276 1.363 . S
C275 H287 0.929 . S
C276 C275 1.363 . S
C276 N278 1.375 . S
C276 H294 0.931 . S
C277 N274 1.311 . S
C277 N278 1.347 . S
C277 H288 0.929 . S
N278 C276 1.375 . S
N278 C277 1.347 . S
C279 C282 1.365 . S
C279 N284 1.328 . S
C279 H285 0.929 . S
C280 C281 1.362 . S
C280 C283 1.378 . S
C280 H295 0.929 . S
C281 C280 1.362 . S
C281 C282 1.366 . S
C282 C279 1.365 . S
C282 C281 1.366 . S
C282 H296 0.930 . S
C283 C280 1.378 . S
C283 N284 1.315 . S
C283 H286 0.930 . S
N284 Co264 2.194 . S
N284 C279 1.328 . S
N284 C283 1.315 . S
H285 C279 0.929 . S
H286 C283 0.930 . S
H287 C275 0.929 . S
H288 C277 0.929 . S
O289 Co264 2.351 . S
O289 C292 1.244 . S
O290 Co264 2.155 . S
O290 C292 1.240 . S
O291 Co264 2.096 . S
O291 C272 1.247 . S
C292 O289 1.244 . S
C292 O290 1.240 . S
H293 C267 0.931 . S
H294 C276 0.931 . S
H295 C280 0.929 . S
H296 C282 0.930 . S
Co297 N301 2.148 . S
Co297 N307 2.128 . S
Co297 N317 2.194 . S
Co297 O322 2.351 . S
Co297 O323 2.155 . S
Co297 O324 2.096 . S
C298 N301 1.301 . S
C298 N302 1.328 . S
C298 H303 0.930 . S
C299 C300 1.333 . S
C299 N301 1.317 . S
C299 H304 0.930 . S
C300 C299 1.333 . S
C300 N302 1.350 . S
C300 H326 0.931 . S
N301 Co297 2.148 . S
N301 C298 1.301 . S
N301 C299 1.317 . S
N302 C298 1.328 . S
N302 C300 1.350 . S
H303 C298 0.930 . S
H304 C299 0.930 . S
C305 O306 1.224 . S
C305 O324 1.247 . S
O306 C305 1.224 . S
N307 Co297 2.128 . S
N307 C308 1.355 . S
N307 C310 1.311 . S
C308 N307 1.355 . S
C308 C309 1.363 . S
C308 H320 0.929 . S
C309 C308 1.363 . S
C309 N311 1.375 . S
C309 H327 0.931 . S
C310 N307 1.311 . S
C310 N311 1.347 . S
C310 H321 0.929 . S
N311 C309 1.375 . S
N311 C310 1.347 . S
C312 C315 1.365 . S
C312 N317 1.328 . S
C312 H318 0.929 . S
C313 C314 1.362 . S
C313 C316 1.378 . S
C313 H328 0.929 . S
C314 C313 1.362 . S
C314 C315 1.366 . S
C315 C312 1.365 . S
C315 C314 1.366 . S
C315 H329 0.930 . S
C316 C313 1.378 . S
C316 N317 1.315 . S
C316 H319 0.930 . S
N317 Co297 2.194 . S
N317 C312 1.328 . S
N317 C316 1.315 . S
H318 C312 0.929 . S
H319 C316 0.930 . S
H320 C308 0.929 . S
H321 C310 0.929 . S
O322 Co297 2.351 . S
O322 C325 1.244 . S
O323 Co297 2.155 . S
O323 C325 1.240 . S
O324 Co297 2.096 . S
O324 C305 1.247 . S
C325 O322 1.244 . S
C325 O323 1.240 . S
H326 C300 0.931 . S
H327 C309 0.931 . S
H328 C313 0.929 . S
H329 C315 0.930 . S
Co330 N334 2.148 . S
Co330 N340 2.128 . S
Co330 N350 2.194 . S
Co330 O355 2.351 . S
Co330 O356 2.155 . S
Co330 O357 2.096 . S
C331 N334 1.301 . S
C331 N335 1.328 . S
C331 H336 0.930 . S
C332 C333 1.333 . S
C332 N334 1.317 . S
C332 H337 0.930 . S
C333 C332 1.333 . S
C333 N335 1.350 . S
C333 H359 0.931 . S
N334 Co330 2.148 . S
N334 C331 1.301 . S
N334 C332 1.317 . S
N335 C331 1.328 . S
N335 C333 1.350 . S
H336 C331 0.930 . S
H337 C332 0.930 . S
C338 O339 1.224 . S
C338 O357 1.247 . S
O339 C338 1.224 . S
N340 Co330 2.128 . S
N340 C341 1.355 . S
N340 C343 1.311 . S
C341 N340 1.355 . S
C341 C342 1.363 . S
C341 H353 0.929 . S
C342 C341 1.363 . S
C342 N344 1.375 . S
C342 H360 0.931 . S
C343 N340 1.311 . S
C343 N344 1.347 . S
C343 H354 0.929 . S
N344 C342 1.375 . S
N344 C343 1.347 . S
C345 C348 1.365 . S
C345 N350 1.328 . S
C345 H351 0.929 . S
C346 C347 1.362 . S
C346 C349 1.378 . S
C346 H361 0.929 . S
C347 C346 1.362 . S
C347 C348 1.366 . S
C348 C345 1.365 . S
C348 C347 1.366 . S
C348 H362 0.930 . S
C349 C346 1.378 . S
C349 N350 1.315 . S
C349 H352 0.930 . S
N350 Co330 2.194 . S
N350 C345 1.328 . S
N350 C349 1.315 . S
H351 C345 0.929 . S
H352 C349 0.930 . S
H353 C341 0.929 . S
H354 C343 0.929 . S
O355 Co330 2.351 . S
O355 C358 1.244 . S
O356 Co330 2.155 . S
O356 C358 1.240 . S
O357 Co330 2.096 . S
O357 C338 1.247 . S
C358 O355 1.244 . S
C358 O356 1.240 . S
H359 C333 0.931 . S
H360 C342 0.931 . S
H361 C346 0.929 . S
H362 C348 0.930 . S
Co363 N367 2.148 . S
Co363 N373 2.128 . S
Co363 N383 2.194 . S
Co363 O388 2.351 . S
Co363 O389 2.155 . S
Co363 O390 2.096 . S
C364 N367 1.301 . S
C364 N368 1.328 . S
C364 H369 0.930 . S
C365 C366 1.333 . S
C365 N367 1.317 . S
C365 H370 0.930 . S
C366 C365 1.333 . S
C366 N368 1.350 . S
C366 H392 0.931 . S
N367 Co363 2.148 . S
N367 C364 1.301 . S
N367 C365 1.317 . S
N368 C364 1.328 . S
N368 C366 1.350 . S
H369 C364 0.930 . S
H370 C365 0.930 . S
C371 O372 1.224 . S
C371 O390 1.247 . S
O372 C371 1.224 . S
N373 Co363 2.128 . S
N373 C374 1.355 . S
N373 C376 1.311 . S
C374 N373 1.355 . S
C374 C375 1.363 . S
C374 H386 0.929 . S
C375 C374 1.363 . S
C375 N377 1.375 . S
C375 H393 0.931 . S
C376 N373 1.311 . S
C376 N377 1.347 . S
C376 H387 0.929 . S
N377 C375 1.375 . S
N377 C376 1.347 . S
C378 C381 1.365 . S
C378 N383 1.328 . S
C378 H384 0.929 . S
C379 C380 1.362 . S
C379 C382 1.378 . S
C379 H394 0.929 . S
C380 C379 1.362 . S
C380 C381 1.366 . S
C381 C378 1.365 . S
C381 C380 1.366 . S
C381 H395 0.930 . S
C382 C379 1.378 . S
C382 N383 1.315 . S
C382 H385 0.930 . S
N383 Co363 2.194 . S
N383 C378 1.328 . S
N383 C382 1.315 . S
H384 C378 0.929 . S
H385 C382 0.930 . S
H386 C374 0.929 . S
H387 C376 0.929 . S
O388 Co363 2.351 . S
O388 C391 1.244 . S
O389 Co363 2.155 . S
O389 C391 1.240 . S
O390 Co363 2.096 . S
O390 C371 1.247 . S
C391 O388 1.244 . S
C391 O389 1.240 . S
H392 C366 0.931 . S
H393 C375 0.931 . S
H394 C379 0.929 . S
H395 C381 0.930 . S
Co396 N400 2.148 . S
Co396 N406 2.128 . S
Co396 N416 2.194 . S
Co396 O421 2.351 . S
Co396 O422 2.155 . S
Co396 O423 2.096 . S
C397 N400 1.301 . S
C397 N401 1.328 . S
C397 H402 0.930 . S
C398 C399 1.333 . S
C398 N400 1.317 . S
C398 H403 0.930 . S
C399 C398 1.333 . S
C399 N401 1.350 . S
C399 H425 0.931 . S
N400 Co396 2.148 . S
N400 C397 1.301 . S
N400 C398 1.317 . S
N401 C397 1.328 . S
N401 C399 1.350 . S
H402 C397 0.930 . S
H403 C398 0.930 . S
C404 O405 1.224 . S
C404 O423 1.247 . S
O405 C404 1.224 . S
N406 Co396 2.128 . S
N406 C407 1.355 . S
N406 C409 1.311 . S
C407 N406 1.355 . S
C407 C408 1.363 . S
C407 H419 0.929 . S
C408 C407 1.363 . S
C408 N410 1.375 . S
C408 H426 0.931 . S
C409 N406 1.311 . S
C409 N410 1.347 . S
C409 H420 0.929 . S
N410 C408 1.375 . S
N410 C409 1.347 . S
C411 C414 1.365 . S
C411 N416 1.328 . S
C411 H417 0.929 . S
C412 C413 1.362 . S
C412 C415 1.378 . S
C412 H427 0.929 . S
C413 C412 1.362 . S
C413 C414 1.366 . S
C414 C411 1.365 . S
C414 C413 1.366 . S
C414 H428 0.930 . S
C415 C412 1.378 . S
C415 N416 1.315 . S
C415 H418 0.930 . S
N416 Co396 2.194 . S
N416 C411 1.328 . S
N416 C415 1.315 . S
H417 C411 0.929 . S
H418 C415 0.930 . S
H419 C407 0.929 . S
H420 C409 0.929 . S
O421 Co396 2.351 . S
O421 C424 1.244 . S
O422 Co396 2.155 . S
O422 C424 1.240 . S
O423 Co396 2.096 . S
O423 C404 1.247 . S
C424 O421 1.244 . S
C424 O422 1.240 . S
H425 C399 0.931 . S
H426 C408 0.931 . S
H427 C412 0.929 . S
H428 C414 0.930 . S
Co429 N433 2.148 . S
Co429 N439 2.128 . S
Co429 N449 2.194 . S
Co429 O454 2.351 . S
Co429 O455 2.155 . S
Co429 O456 2.096 . S
C430 N433 1.301 . S
C430 N434 1.328 . S
C430 H435 0.930 . S
C431 C432 1.333 . S
C431 N433 1.317 . S
C431 H436 0.930 . S
C432 C431 1.333 . S
C432 N434 1.350 . S
C432 H458 0.931 . S
N433 Co429 2.148 . S
N433 C430 1.301 . S
N433 C431 1.317 . S
N434 C430 1.328 . S
N434 C432 1.350 . S
H435 C430 0.930 . S
H436 C431 0.930 . S
C437 O438 1.224 . S
C437 O456 1.247 . S
O438 C437 1.224 . S
N439 Co429 2.128 . S
N439 C440 1.355 . S
N439 C442 1.311 . S
C440 N439 1.355 . S
C440 C441 1.363 . S
C440 H452 0.929 . S
C441 C440 1.363 . S
C441 N443 1.375 . S
C441 H459 0.931 . S
C442 N439 1.311 . S
C442 N443 1.347 . S
C442 H453 0.929 . S
N443 C441 1.375 . S
N443 C442 1.347 . S
C444 C447 1.365 . S
C444 N449 1.328 . S
C444 H450 0.929 . S
C445 C446 1.362 . S
C445 C448 1.378 . S
C445 H460 0.929 . S
C446 C445 1.362 . S
C446 C447 1.366 . S
C447 C444 1.365 . S
C447 C446 1.366 . S
C447 H461 0.930 . S
C448 C445 1.378 . S
C448 N449 1.315 . S
C448 H451 0.930 . S
N449 Co429 2.194 . S
N449 C444 1.328 . S
N449 C448 1.315 . S
H450 C444 0.929 . S
H451 C448 0.930 . S
H452 C440 0.929 . S
H453 C442 0.929 . S
O454 Co429 2.351 . S
O454 C457 1.244 . S
O455 Co429 2.155 . S
O455 C457 1.240 . S
O456 Co429 2.096 . S
O456 C437 1.247 . S
C457 O454 1.244 . S
C457 O455 1.240 . S
H458 C432 0.931 . S
H459 C441 0.931 . S
H460 C445 0.929 . S
H461 C447 0.930 . S
Co462 N466 2.148 . S
Co462 N472 2.128 . S
Co462 N482 2.194 . S
Co462 O487 2.351 . S
Co462 O488 2.155 . S
Co462 O489 2.096 . S
C463 N466 1.301 . S
C463 N467 1.328 . S
C463 H468 0.930 . S
C464 C465 1.333 . S
C464 N466 1.317 . S
C464 H469 0.930 . S
C465 C464 1.333 . S
C465 N467 1.350 . S
C465 H491 0.931 . S
N466 Co462 2.148 . S
N466 C463 1.301 . S
N466 C464 1.317 . S
N467 C463 1.328 . S
N467 C465 1.350 . S
H468 C463 0.930 . S
H469 C464 0.930 . S
C470 O471 1.224 . S
C470 O489 1.247 . S
O471 C470 1.224 . S
N472 Co462 2.128 . S
N472 C473 1.355 . S
N472 C475 1.311 . S
C473 N472 1.355 . S
C473 C474 1.363 . S
C473 H485 0.929 . S
C474 C473 1.363 . S
C474 N476 1.375 . S
C474 H492 0.931 . S
C475 N472 1.311 . S
C475 N476 1.347 . S
C475 H486 0.929 . S
N476 C474 1.375 . S
N476 C475 1.347 . S
C477 C480 1.365 . S
C477 N482 1.328 . S
C477 H483 0.929 . S
C478 C479 1.362 . S
C478 C481 1.378 . S
C478 H493 0.929 . S
C479 C478 1.362 . S
C479 C480 1.366 . S
C480 C477 1.365 . S
C480 C479 1.366 . S
C480 H494 0.930 . S
C481 C478 1.378 . S
C481 N482 1.315 . S
C481 H484 0.930 . S
N482 Co462 2.194 . S
N482 C477 1.328 . S
N482 C481 1.315 . S
H483 C477 0.929 . S
H484 C481 0.930 . S
H485 C473 0.929 . S
H486 C475 0.929 . S
O487 Co462 2.351 . S
O487 C490 1.244 . S
O488 Co462 2.155 . S
O488 C490 1.240 . S
O489 Co462 2.096 . S
O489 C470 1.247 . S
C490 O487 1.244 . S
C490 O488 1.240 . S
H491 C465 0.931 . S
H492 C474 0.931 . S
H493 C478 0.929 . S
H494 C480 0.930 . S
Co495 N499 2.148 . S
Co495 N505 2.128 . S
Co495 N515 2.194 . S
Co495 O520 2.351 . S
Co495 O521 2.155 . S
Co495 O522 2.096 . S
C496 N499 1.301 . S
C496 N500 1.328 . S
C496 H501 0.930 . S
C497 C498 1.333 . S
C497 N499 1.317 . S
C497 H502 0.930 . S
C498 C497 1.333 . S
C498 N500 1.350 . S
C498 H524 0.931 . S
N499 Co495 2.148 . S
N499 C496 1.301 . S
N499 C497 1.317 . S
N500 C496 1.328 . S
N500 C498 1.350 . S
H501 C496 0.930 . S
H502 C497 0.930 . S
C503 O504 1.224 . S
C503 O522 1.247 . S
O504 C503 1.224 . S
N505 Co495 2.128 . S
N505 C506 1.355 . S
N505 C508 1.311 . S
C506 N505 1.355 . S
C506 C507 1.363 . S
C506 H518 0.929 . S
C507 C506 1.363 . S
C507 N509 1.375 . S
C507 H525 0.931 . S
C508 N505 1.311 . S
C508 N509 1.347 . S
C508 H519 0.929 . S
N509 C507 1.375 . S
N509 C508 1.347 . S
C510 C513 1.365 . S
C510 N515 1.328 . S
C510 H516 0.929 . S
C511 C512 1.362 . S
C511 C514 1.378 . S
C511 H526 0.929 . S
C512 C511 1.362 . S
C512 C513 1.366 . S
C513 C510 1.365 . S
C513 C512 1.366 . S
C513 H527 0.930 . S
C514 C511 1.378 . S
C514 N515 1.315 . S
C514 H517 0.930 . S
N515 Co495 2.194 . S
N515 C510 1.328 . S
N515 C514 1.315 . S
H516 C510 0.929 . S
H517 C514 0.930 . S
H518 C506 0.929 . S
H519 C508 0.929 . S
O520 Co495 2.351 . S
O520 C523 1.244 . S
O521 Co495 2.155 . S
O521 C523 1.240 . S
O522 Co495 2.096 . S
O522 C503 1.247 . S
C523 O520 1.244 . S
C523 O521 1.240 . S
H524 C498 0.931 . S
H525 C507 0.931 . S
H526 C511 0.929 . S
H527 C513 0.930 . S
C528 C529 1.391 . S
C528 C530 1.394 . S
C528 H544 0.931 . S
C529 C528 1.391 . S
C529 C533 1.376 . S
C530 C528 1.394 . S
C530 C531 1.369 . S
C530 C534 1.531 . S
C531 C530 1.369 . S
C531 C532 1.410 . S
C531 C539 1.503 . S
C532 C531 1.410 . S
C532 C533 1.392 . S
C532 C535 1.511 . S
C533 C529 1.376 . S
C533 C532 1.392 . S
C533 H545 0.929 . S
C534 C530 1.531 . S
C534 H546 0.960 . S
C534 H547 0.962 . S
C534 H548 0.960 . S
C535 C532 1.511 . S
C535 H549 0.961 . S
C535 H550 0.961 . S
C535 H551 0.961 . S
C536 C537 1.370 . S
C536 C538 1.363 . S
C536 H552 0.931 . S
C537 C536 1.370 . S
C537 C541 1.408 . S
C538 C536 1.363 . S
C538 C539 1.370 . S
C538 C542 1.524 . S
C539 C531 1.503 . S
C539 C538 1.370 . S
C539 C540 1.403 . S
C540 C539 1.403 . S
C540 C541 1.404 . S
C540 C543 1.539 . S
C541 C537 1.408 . S
C541 C540 1.404 . S
C541 H553 0.930 . S
C542 C538 1.524 . S
C542 H554 0.956 . S
C542 H555 0.961 . S
C542 H556 0.961 . S
C543 C540 1.539 . S
C543 H557 0.958 . S
C543 H558 0.961 . S
C543 H559 0.960 . S
H544 C528 0.931 . S
H545 C533 0.929 . S
H546 C534 0.960 . S
H547 C534 0.962 . S
H548 C534 0.960 . S
H549 C535 0.961 . S
H550 C535 0.961 . S
H551 C535 0.961 . S
H552 C536 0.931 . S
H553 C541 0.930 . S
H554 C542 0.956 . S
H555 C542 0.961 . S
H556 C542 0.961 . S
H557 C543 0.958 . S
H558 C543 0.961 . S
H559 C543 0.960 . S
C560 C561 1.391 . S
C560 C562 1.394 . S
C560 H576 0.931 . S
C561 C560 1.391 . S
C561 C565 1.376 . S
C562 C560 1.394 . S
C562 C563 1.369 . S
C562 C566 1.531 . S
C563 C562 1.369 . S
C563 C564 1.410 . S
C563 C571 1.503 . S
C564 C563 1.410 . S
C564 C565 1.392 . S
C564 C567 1.511 . S
C565 C561 1.376 . S
C565 C564 1.392 . S
C565 H577 0.929 . S
C566 C562 1.531 . S
C566 H578 0.960 . S
C566 H579 0.962 . S
C566 H580 0.960 . S
C567 C564 1.511 . S
C567 H581 0.961 . S
C567 H582 0.961 . S
C567 H583 0.961 . S
C568 C569 1.370 . S
C568 C570 1.363 . S
C568 H584 0.931 . S
C569 C568 1.370 . S
C569 C573 1.408 . S
C570 C568 1.363 . S
C570 C571 1.370 . S
C570 C574 1.524 . S
C571 C563 1.503 . S
C571 C570 1.370 . S
C571 C572 1.403 . S
C572 C571 1.403 . S
C572 C573 1.404 . S
C572 C575 1.539 . S
C573 C569 1.408 . S
C573 C572 1.404 . S
C573 H585 0.930 . S
C574 C570 1.524 . S
C574 H586 0.956 . S
C574 H587 0.961 . S
C574 H588 0.961 . S
C575 C572 1.539 . S
C575 H589 0.958 . S
C575 H590 0.961 . S
C575 H591 0.960 . S
H576 C560 0.931 . S
H577 C565 0.929 . S
H578 C566 0.960 . S
H579 C566 0.962 . S
H580 C566 0.960 . S
H581 C567 0.961 . S
H582 C567 0.961 . S
H583 C567 0.961 . S
H584 C568 0.931 . S
H585 C573 0.930 . S
H586 C574 0.956 . S
H587 C574 0.961 . S
H588 C574 0.961 . S
H589 C575 0.958 . S
H590 C575 0.961 . S
H591 C575 0.960 . S
C592 C593 1.391 . S
C592 C594 1.394 . S
C592 H608 0.931 . S
C593 C592 1.391 . S
C593 C597 1.376 . S
C594 C592 1.394 . S
C594 C595 1.369 . S
C594 C598 1.531 . S
C595 C594 1.369 . S
C595 C596 1.410 . S
C595 C603 1.503 1_554 S
C596 C595 1.410 . S
C596 C597 1.392 . S
C596 C599 1.511 . S
C597 C593 1.376 . S
C597 C596 1.392 . S
C597 H609 0.929 . S
C598 C594 1.531 . S
C598 H610 0.960 . S
C598 H611 0.962 . S
C598 H612 0.960 . S
C599 C596 1.511 . S
C599 H613 0.961 . S
C599 H614 0.961 1_554 S
C599 H615 0.958 1_554 S
C600 C601 1.370 . S
C600 C602 1.363 . S
C600 H616 0.931 . S
C601 C600 1.370 . S
C601 C605 1.408 . S
C602 C600 1.363 . S
C602 C603 1.370 . S
C602 C606 1.524 . S
C603 C595 1.503 1_556 S
C603 C602 1.370 . S
C603 C604 1.403 . S
C604 C603 1.403 . S
C604 C605 1.404 . S
C604 C607 1.539 . S
C605 C601 1.408 . S
C605 C604 1.404 . S
C605 H617 0.930 . S
C606 C602 1.524 . S
C606 H618 0.956 . S
C606 H619 0.961 . S
C606 H620 0.961 . S
C607 C604 1.539 . S
C607 H621 0.958 . S
C607 H622 0.961 . S
C607 H623 0.960 1_556 S
H608 C592 0.931 . S
H609 C597 0.929 . S
H610 C598 0.960 . S
H611 C598 0.962 . S
H612 C598 0.960 . S
H613 C599 0.961 . S
H614 C599 0.961 1_556 S
H615 C599 0.958 1_556 S
H616 C600 0.931 . S
H617 C605 0.930 . S
H618 C606 0.956 . S
H619 C606 0.961 . S
H620 C606 0.961 . S
H621 C607 0.958 . S
H622 C607 0.961 . S
H623 C607 0.960 1_554 S
C624 C625 1.391 . S
C624 C626 1.394 . S
C624 H640 0.931 . S
C625 C624 1.391 . S
C625 C629 1.376 . S
C626 C624 1.394 . S
C626 C627 1.369 . S
C626 C630 1.531 . S
C627 C626 1.369 . S
C627 C628 1.410 . S
C627 C635 1.503 . S
C628 C627 1.410 . S
C628 C629 1.392 . S
C628 C631 1.511 . S
C629 C625 1.376 . S
C629 C628 1.392 . S
C629 H641 0.929 . S
C630 C626 1.531 . S
C630 H642 0.960 . S
C630 H643 0.962 . S
C630 H644 0.960 . S
C631 C628 1.511 . S
C631 H645 0.961 . S
C631 H646 0.961 . S
C631 H647 0.961 . S
C632 C633 1.370 . S
C632 C634 1.363 . S
C632 H648 0.931 . S
C633 C632 1.370 . S
C633 C637 1.408 . S
C634 C632 1.363 . S
C634 C635 1.370 . S
C634 C638 1.524 . S
C635 C627 1.503 . S
C635 C634 1.370 . S
C635 C636 1.403 . S
C636 C635 1.403 . S
C636 C637 1.404 . S
C636 C639 1.539 . S
C637 C633 1.408 . S
C637 C636 1.404 . S
C637 H649 0.930 . S
C638 C634 1.524 . S
C638 H650 0.956 . S
C638 H651 0.961 . S
C638 H652 0.961 . S
C639 C636 1.539 . S
C639 H653 0.958 . S
C639 H654 0.961 . S
C639 H655 0.960 . S
H640 C624 0.931 . S
H641 C629 0.929 . S
H642 C630 0.960 . S
H643 C630 0.962 . S
H644 C630 0.960 . S
H645 C631 0.961 . S
H646 C631 0.961 . S
H647 C631 0.961 . S
H648 C632 0.931 . S
H649 C637 0.930 . S
H650 C638 0.956 . S
H651 C638 0.961 . S
H652 C638 0.961 . S
H653 C639 0.958 . S
H654 C639 0.961 . S
H655 C639 0.960 . S
C656 C657 1.391 . S
C656 C658 1.394 . S
C656 H672 0.931 . S
C657 C656 1.391 . S
C657 C661 1.376 . S
C658 C656 1.394 . S
C658 C659 1.369 . S
C658 C662 1.531 . S
C659 C658 1.369 . S
C659 C660 1.410 . S
C659 C667 1.503 . S
C660 C659 1.410 . S
C660 C661 1.392 . S
C660 C663 1.511 . S
C661 C657 1.376 . S
C661 C660 1.392 . S
C661 H673 0.929 . S
C662 C658 1.531 . S
C662 H674 0.960 . S
C662 H675 0.962 . S
C662 H676 0.960 . S
C663 C660 1.511 . S
C663 H677 0.961 . S
C663 H678 0.961 . S
C663 H679 0.961 . S
C664 C665 1.370 . S
C664 C666 1.363 . S
C664 H680 0.931 . S
C665 C664 1.370 . S
C665 C669 1.408 . S
C666 C664 1.363 . S
C666 C667 1.370 . S
C666 C670 1.524 . S
C667 C659 1.503 . S
C667 C666 1.370 . S
C667 C668 1.403 . S
C668 C667 1.403 . S
C668 C669 1.404 . S
C668 C671 1.539 . S
C669 C665 1.408 . S
C669 C668 1.404 . S
C669 H681 0.930 . S
C670 C666 1.524 . S
C670 H682 0.956 . S
C670 H683 0.961 . S
C670 H684 0.961 . S
C671 C668 1.539 . S
C671 H685 0.958 . S
C671 H686 0.961 . S
C671 H687 0.960 . S
H672 C656 0.931 . S
H673 C661 0.929 . S
H674 C662 0.960 . S
H675 C662 0.962 . S
H676 C662 0.960 . S
H677 C663 0.961 . S
H678 C663 0.961 . S
H679 C663 0.961 . S
H680 C664 0.931 . S
H681 C669 0.930 . S
H682 C670 0.956 . S
H683 C670 0.961 . S
H684 C670 0.961 . S
H685 C671 0.958 . S
H686 C671 0.961 . S
H687 C671 0.960 . S
C688 C689 1.391 . S
C688 C690 1.394 . S
C688 H704 0.931 . S
C689 C688 1.391 . S
C689 C693 1.376 . S
C690 C688 1.394 . S
C690 C691 1.369 . S
C690 C694 1.531 . S
C691 C690 1.369 . S
C691 C692 1.410 . S
C691 C699 1.503 1_556 S
C692 C691 1.410 . S
C692 C693 1.392 . S
C692 C695 1.511 . S
C693 C689 1.376 . S
C693 C692 1.392 . S
C693 H705 0.929 . S
C694 C690 1.531 . S
C694 H706 0.960 1_556 S
C694 H707 0.962 . S
C694 H708 0.960 . S
C695 C692 1.511 . S
C695 H709 0.961 . S
C695 H710 0.961 1_556 S
C695 H711 0.961 . S
C696 C697 1.370 . S
C696 C698 1.363 . S
C696 H712 0.931 . S
C697 C696 1.370 . S
C697 C701 1.408 . S
C698 C696 1.363 . S
C698 C699 1.370 . S
C698 C702 1.524 1_554 S
C699 C691 1.503 1_554 S
C699 C698 1.370 . S
C699 C700 1.403 . S
C700 C699 1.403 . S
C700 C701 1.404 . S
C700 C703 1.539 . S
C701 C697 1.408 . S
C701 C700 1.404 . S
C701 H713 0.930 . S
C702 C698 1.524 1_556 S
C702 H714 0.956 . S
C702 H715 0.961 . S
C702 H716 0.961 1_556 S
C703 C700 1.539 . S
C703 H717 0.958 . S
C703 H718 0.961 . S
C703 H719 0.960 . S
H704 C688 0.931 . S
H705 C693 0.929 . S
H706 C694 0.960 1_554 S
H707 C694 0.962 . S
H708 C694 0.960 . S
H709 C695 0.961 . S
H710 C695 0.961 1_554 S
H711 C695 0.961 . S
H712 C696 0.931 . S
H713 C701 0.930 . S
H714 C702 0.956 . S
H715 C702 0.961 . S
H716 C702 0.961 1_554 S
H717 C703 0.958 . S
H718 C703 0.961 . S
H719 C703 0.960 . S
C720 C721 1.391 . S
C720 C722 1.394 . S
C720 H736 0.931 . S
C721 C720 1.391 . S
C721 C725 1.376 . S
C722 C720 1.394 . S
C722 C723 1.369 . S
C722 C726 1.531 . S
C723 C722 1.369 . S
C723 C724 1.410 . S
C723 C731 1.503 . S
C724 C723 1.410 . S
C724 C725 1.392 . S
C724 C727 1.511 . S
C725 C721 1.376 . S
C725 C724 1.392 . S
C725 H737 0.929 . S
C726 C722 1.531 . S
C726 H738 0.960 . S
C726 H739 0.962 . S
C726 H740 0.960 . S
C727 C724 1.511 . S
C727 H741 0.961 . S
C727 H742 0.961 . S
C727 H743 0.961 . S
C728 C729 1.370 . S
C728 C730 1.363 . S
C728 H744 0.931 . S
C729 C728 1.370 . S
C729 C733 1.408 . S
C730 C728 1.363 . S
C730 C731 1.370 . S
C730 C734 1.524 . S
C731 C723 1.503 . S
C731 C730 1.370 . S
C731 C732 1.403 . S
C732 C731 1.403 . S
C732 C733 1.404 . S
C732 C735 1.539 . S
C733 C729 1.408 . S
C733 C732 1.404 . S
C733 H745 0.930 . S
C734 C730 1.524 . S
C734 H746 0.956 . S
C734 H747 0.961 . S
C734 H748 0.961 . S
C735 C732 1.539 . S
C735 H749 0.958 . S
C735 H750 0.961 . S
C735 H751 0.960 . S
H736 C720 0.931 . S
H737 C725 0.929 . S
H738 C726 0.960 . S
H739 C726 0.962 . S
H740 C726 0.960 . S
H741 C727 0.961 . S
H742 C727 0.961 . S
H743 C727 0.961 . S
H744 C728 0.931 . S
H745 C733 0.930 . S
H746 C734 0.956 . S
H747 C734 0.961 . S
H748 C734 0.961 . S
H749 C735 0.958 . S
H750 C735 0.961 . S
H751 C735 0.960 . S
C752 C753 1.391 . S
C752 C754 1.394 . S
C752 H768 0.931 . S
C753 C752 1.391 . S
C753 C757 1.376 . S
C754 C752 1.394 . S
C754 C755 1.369 . S
C754 C758 1.531 . S
C755 C754 1.369 . S
C755 C756 1.410 . S
C755 C763 1.503 . S
C756 C755 1.410 . S
C756 C757 1.392 . S
C756 C759 1.511 . S
C757 C753 1.376 . S
C757 C756 1.392 . S
C757 H769 0.929 . S
C758 C754 1.531 . S
C758 H770 0.960 . S
C758 H771 0.962 . S
C758 H772 0.960 . S
C759 C756 1.511 . S
C759 H773 0.961 . S
C759 H774 0.961 . S
C759 H775 0.961 . S
C760 C761 1.370 . S
C760 C762 1.363 . S
C760 H776 0.931 . S
C761 C760 1.370 . S
C761 C765 1.408 . S
C762 C760 1.363 . S
C762 C763 1.370 . S
C762 C766 1.524 . S
C763 C755 1.503 . S
C763 C762 1.370 . S
C763 C764 1.403 . S
C764 C763 1.403 . S
C764 C765 1.404 . S
C764 C767 1.539 . S
C765 C761 1.408 . S
C765 C764 1.404 . S
C765 H777 0.930 . S
C766 C762 1.524 . S
C766 H778 0.956 . S
C766 H779 0.961 . S
C766 H780 0.961 . S
C767 C764 1.539 . S
C767 H781 0.958 . S
C767 H782 0.961 . S
C767 H783 0.960 . S
H768 C752 0.931 . S
H769 C757 0.929 . S
H770 C758 0.960 . S
H771 C758 0.962 . S
H772 C758 0.960 . S
H773 C759 0.961 . S
H774 C759 0.961 . S
H775 C759 0.961 . S
H776 C760 0.931 . S
H777 C765 0.930 . S
H778 C766 0.956 . S
H779 C766 0.961 . S
H780 C766 0.961 . S
H781 C767 0.958 . S
H782 C767 0.961 . S
H783 C767 0.960 . S
C784 C785 1.391 . S
C784 C786 1.394 . S
C784 H800 0.931 . S
C785 C784 1.391 . S
C785 C789 1.376 . S
C786 C784 1.394 . S
C786 C787 1.369 . S
C786 C790 1.531 . S
C787 C786 1.369 . S
C787 C788 1.410 . S
C787 C795 1.503 . S
C788 C787 1.410 . S
C788 C789 1.392 . S
C788 C791 1.511 . S
C789 C785 1.376 . S
C789 C788 1.392 . S
C789 H801 0.929 . S
C790 C786 1.531 . S
C790 H802 0.960 . S
C790 H803 0.962 . S
C790 H804 0.960 . S
C791 C788 1.511 . S
C791 H805 0.961 . S
C791 H806 0.961 . S
C791 H807 0.961 . S
C792 C793 1.370 . S
C792 C794 1.363 . S
C792 H808 0.931 . S
C793 C792 1.370 . S
C793 C797 1.408 . S
C794 C792 1.363 . S
C794 C795 1.370 . S
C794 C798 1.524 . S
C795 C787 1.503 . S
C795 C794 1.370 . S
C795 C796 1.403 . S
C796 C795 1.403 . S
C796 C797 1.404 . S
C796 C799 1.539 . S
C797 C793 1.408 . S
C797 C796 1.404 . S
C797 H809 0.930 . S
C798 C794 1.524 . S
C798 H810 0.956 . S
C798 H811 0.961 . S
C798 H812 0.961 . S
C799 C796 1.539 . S
C799 H813 0.958 . S
C799 H814 0.961 . S
C799 H815 0.960 . S
H800 C784 0.931 . S
H801 C789 0.929 . S
H802 C790 0.960 . S
H803 C790 0.962 . S
H804 C790 0.960 . S
H805 C791 0.961 . S
H806 C791 0.961 . S
H807 C791 0.961 . S
H808 C792 0.931 . S
H809 C797 0.930 . S
H810 C798 0.956 . S
H811 C798 0.961 . S
H812 C798 0.961 . S
H813 C799 0.958 . S
H814 C799 0.961 . S
H815 C799 0.960 . S
C816 C817 1.391 . S
C816 C818 1.394 . S
C816 H832 0.931 . S
C817 C816 1.391 . S
C817 C821 1.376 . S
C818 C816 1.394 . S
C818 C819 1.369 . S
C818 C822 1.531 . S
C819 C818 1.369 . S
C819 C820 1.410 . S
C819 C827 1.503 . S
C820 C819 1.410 . S
C820 C821 1.392 . S
C820 C823 1.511 . S
C821 C817 1.376 . S
C821 C820 1.392 . S
C821 H833 0.929 . S
C822 C818 1.531 . S
C822 H834 0.960 . S
C822 H835 0.962 . S
C822 H836 0.960 . S
C823 C820 1.511 . S
C823 H837 0.961 . S
C823 H838 0.961 . S
C823 H839 0.961 . S
C824 C825 1.370 . S
C824 C826 1.363 . S
C824 H840 0.931 . S
C825 C824 1.370 . S
C825 C829 1.408 . S
C826 C824 1.363 . S
C826 C827 1.370 . S
C826 C830 1.524 . S
C827 C819 1.503 . S
C827 C826 1.370 . S
C827 C828 1.403 . S
C828 C827 1.403 . S
C828 C829 1.404 . S
C828 C831 1.539 . S
C829 C825 1.408 . S
C829 C828 1.404 . S
C829 H841 0.930 . S
C830 C826 1.524 . S
C830 H842 0.956 . S
C830 H843 0.961 . S
C830 H844 0.961 . S
C831 C828 1.539 . S
C831 H845 0.958 . S
C831 H846 0.961 . S
C831 H847 0.960 . S
H832 C816 0.931 . S
H833 C821 0.929 . S
H834 C822 0.960 . S
H835 C822 0.962 . S
H836 C822 0.960 . S
H837 C823 0.961 . S
H838 C823 0.961 . S
H839 C823 0.961 . S
H840 C824 0.931 . S
H841 C829 0.930 . S
H842 C830 0.956 . S
H843 C830 0.961 . S
H844 C830 0.961 . S
H845 C831 0.958 . S
H846 C831 0.961 . S
H847 C831 0.960 . S
C848 C849 1.391 . S
C848 C850 1.394 . S
C848 H864 0.931 . S
C849 C848 1.391 . S
C849 C853 1.376 . S
C850 C848 1.394 . S
C850 C851 1.369 . S
C850 C854 1.531 . S
C851 C850 1.369 . S
C851 C852 1.410 . S
C851 C859 1.503 . S
C852 C851 1.410 . S
C852 C853 1.392 . S
C852 C855 1.511 . S
C853 C849 1.376 . S
C853 C852 1.392 . S
C853 H865 0.929 . S
C854 C850 1.531 . S
C854 H866 0.960 . S
C854 H867 0.962 . S
C854 H868 0.960 . S
C855 C852 1.511 . S
C855 H869 0.961 . S
C855 H870 0.961 . S
C855 H871 0.961 . S
C856 C857 1.370 . S
C856 C858 1.363 . S
C856 H872 0.931 . S
C857 C856 1.370 . S
C857 C861 1.408 . S
C858 C856 1.363 . S
C858 C859 1.370 . S
C858 C862 1.524 . S
C859 C851 1.503 . S
C859 C858 1.370 . S
C859 C860 1.403 . S
C860 C859 1.403 . S
C860 C861 1.404 . S
C860 C863 1.539 . S
C861 C857 1.408 . S
C861 C860 1.404 . S
C861 H873 0.930 . S
C862 C858 1.524 . S
C862 H874 0.956 . S
C862 H875 0.961 . S
C862 H876 0.961 . S
C863 C860 1.539 . S
C863 H877 0.958 . S
C863 H878 0.961 . S
C863 H879 0.960 . S
H864 C848 0.931 . S
H865 C853 0.929 . S
H866 C854 0.960 . S
H867 C854 0.962 . S
H868 C854 0.960 . S
H869 C855 0.961 . S
H870 C855 0.961 . S
H871 C855 0.961 . S
H872 C856 0.931 . S
H873 C861 0.930 . S
H874 C862 0.956 . S
H875 C862 0.961 . S
H876 C862 0.961 . S
H877 C863 0.958 . S
H878 C863 0.961 . S
H879 C863 0.960 . S
C880 C881 1.391 . S
C880 C882 1.394 . S
C880 H896 0.931 . S
C881 C880 1.391 . S
C881 C885 1.376 . S
C882 C880 1.394 . S
C882 C883 1.369 . S
C882 C886 1.531 . S
C883 C882 1.369 . S
C883 C884 1.410 . S
C883 C891 1.503 . S
C884 C883 1.410 . S
C884 C885 1.392 . S
C884 C887 1.511 . S
C885 C881 1.376 . S
C885 C884 1.392 . S
C885 H897 0.929 . S
C886 C882 1.531 . S
C886 H898 0.960 . S
C886 H899 0.962 . S
C886 H900 0.960 . S
C887 C884 1.511 . S
C887 H901 0.961 . S
C887 H902 0.961 . S
C887 H903 0.961 . S
C888 C889 1.370 . S
C888 C890 1.363 . S
C888 H904 0.931 . S
C889 C888 1.370 . S
C889 C893 1.408 . S
C890 C888 1.363 . S
C890 C891 1.370 . S
C890 C894 1.524 . S
C891 C883 1.503 . S
C891 C890 1.370 . S
C891 C892 1.403 . S
C892 C891 1.403 . S
C892 C893 1.404 . S
C892 C895 1.539 . S
C893 C889 1.408 . S
C893 C892 1.404 . S
C893 H905 0.930 . S
C894 C890 1.524 . S
C894 H906 0.956 . S
C894 H907 0.961 . S
C894 H908 0.961 . S
C895 C892 1.539 . S
C895 H909 0.958 . S
C895 H910 0.961 . S
C895 H911 0.960 . S
H896 C880 0.931 . S
H897 C885 0.929 . S
H898 C886 0.960 . S
H899 C886 0.962 . S
H900 C886 0.960 . S
H901 C887 0.961 . S
H902 C887 0.961 . S
H903 C887 0.961 . S
H904 C888 0.931 . S
H905 C893 0.930 . S
H906 C894 0.956 . S
H907 C894 0.961 . S
H908 C894 0.961 . S
H909 C895 0.958 . S
H910 C895 0.961 . S
H911 C895 0.960 . S
C912 C913 1.391 . S
C912 C914 1.394 . S
C912 H928 0.931 . S
C913 C912 1.391 . S
C913 C917 1.376 . S
C914 C912 1.394 . S
C914 C915 1.369 . S
C914 C918 1.531 . S
C915 C914 1.369 . S
C915 C916 1.410 . S
C915 C923 1.503 . S
C916 C915 1.410 . S
C916 C917 1.392 . S
C916 C919 1.511 . S
C917 C913 1.376 . S
C917 C916 1.392 . S
C917 H929 0.929 . S
C918 C914 1.531 . S
C918 H930 0.960 . S
C918 H931 0.962 . S
C918 H932 0.960 . S
C919 C916 1.511 . S
C919 H933 0.961 . S
C919 H934 0.961 . S
C919 H935 0.961 . S
C920 C921 1.370 . S
C920 C922 1.363 . S
C920 H936 0.931 . S
C921 C920 1.370 . S
C921 C925 1.408 . S
C922 C920 1.363 . S
C922 C923 1.370 . S
C922 C926 1.524 . S
C923 C915 1.503 . S
C923 C922 1.370 . S
C923 C924 1.403 . S
C924 C923 1.403 . S
C924 C925 1.404 . S
C924 C927 1.539 . S
C925 C921 1.408 . S
C925 C924 1.404 . S
C925 H937 0.930 . S
C926 C922 1.524 . S
C926 H938 0.956 . S
C926 H939 0.961 . S
C926 H940 0.961 . S
C927 C924 1.539 . S
C927 H941 0.958 . S
C927 H942 0.961 . S
C927 H943 0.960 . S
H928 C912 0.931 . S
H929 C917 0.929 . S
H930 C918 0.960 . S
H931 C918 0.962 . S
H932 C918 0.960 . S
H933 C919 0.961 . S
H934 C919 0.961 . S
H935 C919 0.961 . S
H936 C920 0.931 . S
H937 C925 0.930 . S
H938 C926 0.956 . S
H939 C926 0.961 . S
H940 C926 0.961 . S
H941 C927 0.958 . S
H942 C927 0.961 . S
H943 C927 0.960 . S
C944 C945 1.391 . S
C944 C946 1.394 . S
C944 H960 0.931 . S
C945 C944 1.391 . S
C945 C949 1.376 . S
C946 C944 1.394 . S
C946 C947 1.369 . S
C946 C950 1.531 . S
C947 C946 1.369 . S
C947 C948 1.410 . S
C947 C955 1.503 . S
C948 C947 1.410 . S
C948 C949 1.392 . S
C948 C951 1.511 . S
C949 C945 1.376 . S
C949 C948 1.392 . S
C949 H961 0.929 . S
C950 C946 1.531 . S
C950 H962 0.960 . S
C950 H963 0.962 . S
C950 H964 0.960 . S
C951 C948 1.511 . S
C951 H965 0.961 . S
C951 H966 0.961 . S
C951 H967 0.961 . S
C952 C953 1.370 . S
C952 C954 1.363 . S
C952 H968 0.931 . S
C953 C952 1.370 . S
C953 C957 1.408 . S
C954 C952 1.363 . S
C954 C955 1.370 . S
C954 C958 1.524 . S
C955 C947 1.503 . S
C955 C954 1.370 . S
C955 C956 1.403 . S
C956 C955 1.403 . S
C956 C957 1.404 . S
C956 C959 1.539 . S
C957 C953 1.408 . S
C957 C956 1.404 . S
C957 H969 0.930 . S
C958 C954 1.524 . S
C958 H970 0.956 . S
C958 H971 0.961 . S
C958 H972 0.961 . S
C959 C956 1.539 . S
C959 H973 0.958 . S
C959 H974 0.961 . S
C959 H975 0.960 . S
H960 C944 0.931 . S
H961 C949 0.929 . S
H962 C950 0.960 . S
H963 C950 0.962 . S
H964 C950 0.960 . S
H965 C951 0.961 . S
H966 C951 0.961 . S
H967 C951 0.961 . S
H968 C952 0.931 . S
H969 C957 0.930 . S
H970 C958 0.956 . S
H971 C958 0.961 . S
H972 C958 0.961 . S
H973 C959 0.958 . S
H974 C959 0.961 . S
H975 C959 0.960 . S
C976 C977 1.391 . S
C976 C978 1.394 . S
C976 H992 0.931 . S
C977 C976 1.391 . S
C977 C981 1.376 . S
C978 C976 1.394 . S
C978 C979 1.369 . S
C978 C982 1.531 . S
C979 C978 1.369 . S
C979 C980 1.410 . S
C979 C987 1.503 . S
C980 C979 1.410 . S
C980 C981 1.392 . S
C980 C983 1.511 . S
C981 C977 1.376 . S
C981 C980 1.392 . S
C981 H993 0.929 . S
C982 C978 1.531 . S
C982 H994 0.960 . S
C982 H995 0.962 . S
C982 H996 0.960 . S
C983 C980 1.511 . S
C983 H997 0.961 . S
C983 H998 0.961 . S
C983 H999 0.961 . S
C984 C985 1.370 . S
C984 C986 1.363 . S
C984 H1000 0.931 . S
C985 C984 1.370 . S
C985 C989 1.408 . S
C986 C984 1.363 . S
C986 C987 1.370 . S
C986 C990 1.524 . S
C987 C979 1.503 . S
C987 C986 1.370 . S
C987 C988 1.403 . S
C988 C987 1.403 . S
C988 C989 1.404 . S
C988 C991 1.539 . S
C989 C985 1.408 . S
C989 C988 1.404 . S
C989 H1001 0.930 . S
C990 C986 1.524 . S
C990 H1002 0.956 . S
C990 H1003 0.961 . S
C990 H1004 0.961 . S
C991 C988 1.539 . S
C991 H1005 0.958 . S
C991 H1006 0.961 . S
C991 H1007 0.960 . S
H992 C976 0.931 . S
H993 C981 0.929 . S
H994 C982 0.960 . S
H995 C982 0.962 . S
H996 C982 0.960 . S
H997 C983 0.961 . S
H998 C983 0.961 . S
H999 C983 0.961 . S
H1000 C984 0.931 . S
H1001 C989 0.930 . S
H1002 C990 0.956 . S
H1003 C990 0.961 . S
H1004 C990 0.961 . S
H1005 C991 0.958 . S
H1006 C991 0.961 . S
H1007 C991 0.960 . S
C1008 C1009 1.391 . S
C1008 C1010 1.394 . S
C1008 H1024 0.931 . S
C1009 C1008 1.391 . S
C1009 C1013 1.376 . S
C1010 C1008 1.394 . S
C1010 C1011 1.369 . S
C1010 C1014 1.531 . S
C1011 C1010 1.369 . S
C1011 C1012 1.410 . S
C1011 C1019 1.503 . S
C1012 C1011 1.410 . S
C1012 C1013 1.392 . S
C1012 C1015 1.511 . S
C1013 C1009 1.376 . S
C1013 C1012 1.392 . S
C1013 H1025 0.929 . S
C1014 C1010 1.531 . S
C1014 H1026 0.960 . S
C1014 H1027 0.962 . S
C1014 H1028 0.960 . S
C1015 C1012 1.511 . S
C1015 H1029 0.961 . S
C1015 H1030 0.961 . S
C1015 H1031 0.961 . S
C1016 C1017 1.370 . S
C1016 C1018 1.363 . S
C1016 H1032 0.931 . S
C1017 C1016 1.370 . S
C1017 C1021 1.408 . S
C1018 C1016 1.363 . S
C1018 C1019 1.370 . S
C1018 C1022 1.524 . S
C1019 C1011 1.503 . S
C1019 C1018 1.370 . S
C1019 C1020 1.403 . S
C1020 C1019 1.403 . S
C1020 C1021 1.404 . S
C1020 C1023 1.539 . S
C1021 C1017 1.408 . S
C1021 C1020 1.404 . S
C1021 H1033 0.930 . S
C1022 C1018 1.524 . S
C1022 H1034 0.956 . S
C1022 H1035 0.961 . S
C1022 H1036 0.961 . S
C1023 C1020 1.539 . S
C1023 H1037 0.958 . S
C1023 H1038 0.961 . S
C1023 H1039 0.960 . S
H1024 C1008 0.931 . S
H1025 C1013 0.929 . S
H1026 C1014 0.960 . S
H1027 C1014 0.962 . S
H1028 C1014 0.960 . S
H1029 C1015 0.961 . S
H1030 C1015 0.961 . S
H1031 C1015 0.961 . S
H1032 C1016 0.931 . S
H1033 C1021 0.930 . S
H1034 C1022 0.956 . S
H1035 C1022 0.961 . S
H1036 C1022 0.961 . S
H1037 C1023 0.958 . S
H1038 C1023 0.961 . S
H1039 C1023 0.960 . S
C1040 C1041 1.391 . S
C1040 C1042 1.394 . S
C1040 H1056 0.931 . S
C1041 C1040 1.391 . S
C1041 C1045 1.376 . S
C1042 C1040 1.394 . S
C1042 C1043 1.369 . S
C1042 C1046 1.531 . S
C1043 C1042 1.369 . S
C1043 C1044 1.410 . S
C1043 C1051 1.503 . S
C1044 C1043 1.410 . S
C1044 C1045 1.392 . S
C1044 C1047 1.511 . S
C1045 C1041 1.376 . S
C1045 C1044 1.392 . S
C1045 H1057 0.929 . S
C1046 C1042 1.531 . S
C1046 H1058 0.960 . S
C1046 H1059 0.962 . S
C1046 H1060 0.960 . S
C1047 C1044 1.511 . S
C1047 H1061 0.961 . S
C1047 H1062 0.961 . S
C1047 H1063 0.961 . S
C1048 C1049 1.370 . S
C1048 C1050 1.363 . S
C1048 H1064 0.931 . S
C1049 C1048 1.370 . S
C1049 C1053 1.408 . S
C1050 C1048 1.363 . S
C1050 C1051 1.370 . S
C1050 C1054 1.524 . S
C1051 C1043 1.503 . S
C1051 C1050 1.370 . S
C1051 C1052 1.403 . S
C1052 C1051 1.403 . S
C1052 C1053 1.404 . S
C1052 C1055 1.539 . S
C1053 C1049 1.408 . S
C1053 C1052 1.404 . S
C1053 H1065 0.930 . S
C1054 C1050 1.524 . S
C1054 H1066 0.956 . S
C1054 H1067 0.961 . S
C1054 H1068 0.961 . S
C1055 C1052 1.539 . S
C1055 H1069 0.958 . S
C1055 H1070 0.961 . S
C1055 H1071 0.960 . S
H1056 C1040 0.931 . S
H1057 C1045 0.929 . S
H1058 C1046 0.960 . S
H1059 C1046 0.962 . S
H1060 C1046 0.960 . S
H1061 C1047 0.961 . S
H1062 C1047 0.961 . S
H1063 C1047 0.961 . S
H1064 C1048 0.931 . S
H1065 C1053 0.930 . S
H1066 C1054 0.956 . S
H1067 C1054 0.961 . S
H1068 C1054 0.961 . S
H1069 C1055 0.958 . S
H1070 C1055 0.961 . S
H1071 C1055 0.960 . S
C1072 C1073 1.391 . S
C1072 C1074 1.394 . S
C1072 H1088 0.931 . S
C1073 C1072 1.391 . S
C1073 C1077 1.376 . S
C1074 C1072 1.394 . S
C1074 C1075 1.369 . S
C1074 C1078 1.531 . S
C1075 C1074 1.369 . S
C1075 C1076 1.410 . S
C1075 C1083 1.503 . S
C1076 C1075 1.410 . S
C1076 C1077 1.392 . S
C1076 C1079 1.511 . S
C1077 C1073 1.376 . S
C1077 C1076 1.392 . S
C1077 H1089 0.929 . S
C1078 C1074 1.531 . S
C1078 H1090 0.960 . S
C1078 H1091 0.962 . S
C1078 H1092 0.960 . S
C1079 C1076 1.511 . S
C1079 H1093 0.961 . S
C1079 H1094 0.961 . S
C1079 H1095 0.961 . S
C1080 C1081 1.370 . S
C1080 C1082 1.363 . S
C1080 H1096 0.931 . S
C1081 C1080 1.370 . S
C1081 C1085 1.408 . S
C1082 C1080 1.363 . S
C1082 C1083 1.370 . S
C1082 C1086 1.524 . S
C1083 C1075 1.503 . S
C1083 C1082 1.370 . S
C1083 C1084 1.403 . S
C1084 C1083 1.403 . S
C1084 C1085 1.404 . S
C1084 C1087 1.539 . S
C1085 C1081 1.408 . S
C1085 C1084 1.404 . S
C1085 H1097 0.930 . S
C1086 C1082 1.524 . S
C1086 H1098 0.956 . S
C1086 H1099 0.961 . S
C1086 H1100 0.961 . S
C1087 C1084 1.539 . S
C1087 H1101 0.958 . S
C1087 H1102 0.961 . S
C1087 H1103 0.960 . S
H1088 C1072 0.931 . S
H1089 C1077 0.929 . S
H1090 C1078 0.960 . S
H1091 C1078 0.962 . S
H1092 C1078 0.960 . S
H1093 C1079 0.961 . S
H1094 C1079 0.961 . S
H1095 C1079 0.961 . S
H1096 C1080 0.931 . S
H1097 C1085 0.930 . S
H1098 C1086 0.956 . S
H1099 C1086 0.961 . S
H1100 C1086 0.961 . S
H1101 C1087 0.958 . S
H1102 C1087 0.961 . S
H1103 C1087 0.960 . S
C1104 C1105 1.391 . S
C1104 C1106 1.394 . S
C1104 H1120 0.931 . S
C1105 C1104 1.391 . S
C1105 C1109 1.376 . S
C1106 C1104 1.394 . S
C1106 C1107 1.369 . S
C1106 C1110 1.531 . S
C1107 C1106 1.369 . S
C1107 C1108 1.410 . S
C1107 C1115 1.503 . S
C1108 C1107 1.410 . S
C1108 C1109 1.392 . S
C1108 C1111 1.511 . S
C1109 C1105 1.376 . S
C1109 C1108 1.392 . S
C1109 H1121 0.929 . S
C1110 C1106 1.531 . S
C1110 H1122 0.960 . S
C1110 H1123 0.962 . S
C1110 H1124 0.960 . S
C1111 C1108 1.511 . S
C1111 H1125 0.961 . S
C1111 H1126 0.961 . S
C1111 H1127 0.961 . S
C1112 C1113 1.370 . S
C1112 C1114 1.363 . S
C1112 H1128 0.931 . S
C1113 C1112 1.370 . S
C1113 C1117 1.408 . S
C1114 C1112 1.363 . S
C1114 C1115 1.370 . S
C1114 C1118 1.524 . S
C1115 C1107 1.503 . S
C1115 C1114 1.370 . S
C1115 C1116 1.403 . S
C1116 C1115 1.403 . S
C1116 C1117 1.404 . S
C1116 C1119 1.539 . S
C1117 C1113 1.408 . S
C1117 C1116 1.404 . S
C1117 H1129 0.930 . S
C1118 C1114 1.524 . S
C1118 H1130 0.956 . S
C1118 H1131 0.961 . S
C1118 H1132 0.961 . S
C1119 C1116 1.539 . S
C1119 H1133 0.958 . S
C1119 H1134 0.961 . S
C1119 H1135 0.960 . S
H1120 C1104 0.931 . S
H1121 C1109 0.929 . S
H1122 C1110 0.960 . S
H1123 C1110 0.962 . S
H1124 C1110 0.960 . S
H1125 C1111 0.961 . S
H1126 C1111 0.961 . S
H1127 C1111 0.961 . S
H1128 C1112 0.931 . S
H1129 C1117 0.930 . S
H1130 C1118 0.956 . S
H1131 C1118 0.961 . S
H1132 C1118 0.961 . S
H1133 C1119 0.958 . S
H1134 C1119 0.961 . S
H1135 C1119 0.960 . S
C1136 C1137 1.391 . S
C1136 C1138 1.394 . S
C1136 H1152 0.931 . S
C1137 C1136 1.391 . S
C1137 C1141 1.376 . S
C1138 C1136 1.394 . S
C1138 C1139 1.369 . S
C1138 C1142 1.531 . S
C1139 C1138 1.369 . S
C1139 C1140 1.410 . S
C1139 C1147 1.503 . S
C1140 C1139 1.410 . S
C1140 C1141 1.392 . S
C1140 C1143 1.511 . S
C1141 C1137 1.376 . S
C1141 C1140 1.392 . S
C1141 H1153 0.929 . S
C1142 C1138 1.531 . S
C1142 H1154 0.960 . S
C1142 H1155 0.962 . S
C1142 H1156 0.960 . S
C1143 C1140 1.511 . S
C1143 H1157 0.961 . S
C1143 H1158 0.961 . S
C1143 H1159 0.961 . S
C1144 C1145 1.370 . S
C1144 C1146 1.363 . S
C1144 H1160 0.931 . S
C1145 C1144 1.370 . S
C1145 C1149 1.408 . S
C1146 C1144 1.363 . S
C1146 C1147 1.370 . S
C1146 C1150 1.524 . S
C1147 C1139 1.503 . S
C1147 C1146 1.370 . S
C1147 C1148 1.403 . S
C1148 C1147 1.403 . S
C1148 C1149 1.404 . S
C1148 C1151 1.539 . S
C1149 C1145 1.408 . S
C1149 C1148 1.404 . S
C1149 H1161 0.930 . S
C1150 C1146 1.524 . S
C1150 H1162 0.956 . S
C1150 H1163 0.961 . S
C1150 H1164 0.961 . S
C1151 C1148 1.539 . S
C1151 H1165 0.958 . S
C1151 H1166 0.961 . S
C1151 H1167 0.960 . S
H1152 C1136 0.931 . S
H1153 C1141 0.929 . S
H1154 C1142 0.960 . S
H1155 C1142 0.962 . S
H1156 C1142 0.960 . S
H1157 C1143 0.961 . S
H1158 C1143 0.961 . S
H1159 C1143 0.961 . S
H1160 C1144 0.931 . S
H1161 C1149 0.930 . S
H1162 C1150 0.956 . S
H1163 C1150 0.961 . S
H1164 C1150 0.961 . S
H1165 C1151 0.958 . S
H1166 C1151 0.961 . S
H1167 C1151 0.960 . S
C1168 C1169 1.391 . S
C1168 C1170 1.394 . S
C1168 H1184 0.931 . S
C1169 C1168 1.391 . S
C1169 C1173 1.376 . S
C1170 C1168 1.394 . S
C1170 C1171 1.369 . S
C1170 C1174 1.531 . S
C1171 C1170 1.369 . S
C1171 C1172 1.410 . S
C1171 C1179 1.503 . S
C1172 C1171 1.410 . S
C1172 C1173 1.392 . S
C1172 C1175 1.511 . S
C1173 C1169 1.376 . S
C1173 C1172 1.392 . S
C1173 H1185 0.929 . S
C1174 C1170 1.531 . S
C1174 H1186 0.960 . S
C1174 H1187 0.962 . S
C1174 H1188 0.960 . S
C1175 C1172 1.511 . S
C1175 H1189 0.961 . S
C1175 H1190 0.961 . S
C1175 H1191 0.961 . S
C1176 C1177 1.370 . S
C1176 C1178 1.363 . S
C1176 H1192 0.931 . S
C1177 C1176 1.370 . S
C1177 C1181 1.408 . S
C1178 C1176 1.363 . S
C1178 C1179 1.370 . S
C1178 C1182 1.524 . S
C1179 C1171 1.503 . S
C1179 C1178 1.370 . S
C1179 C1180 1.403 . S
C1180 C1179 1.403 . S
C1180 C1181 1.404 . S
C1180 C1183 1.539 . S
C1181 C1177 1.408 . S
C1181 C1180 1.404 . S
C1181 H1193 0.930 . S
C1182 C1178 1.524 . S
C1182 H1194 0.956 . S
C1182 H1195 0.961 . S
C1182 H1196 0.961 . S
C1183 C1180 1.539 . S
C1183 H1197 0.958 . S
C1183 H1198 0.961 . S
C1183 H1199 0.960 . S
H1184 C1168 0.931 . S
H1185 C1173 0.929 . S
H1186 C1174 0.960 . S
H1187 C1174 0.962 . S
H1188 C1174 0.960 . S
H1189 C1175 0.961 . S
H1190 C1175 0.961 . S
H1191 C1175 0.961 . S
H1192 C1176 0.931 . S
H1193 C1181 0.930 . S
H1194 C1182 0.956 . S
H1195 C1182 0.961 . S
H1196 C1182 0.961 . S
H1197 C1183 0.958 . S
H1198 C1183 0.961 . S
H1199 C1183 0.960 . S
C1200 C1201 1.391 . S
C1200 C1202 1.394 . S
C1200 H1216 0.931 . S
C1201 C1200 1.391 . S
C1201 C1205 1.376 . S
C1202 C1200 1.394 . S
C1202 C1203 1.369 . S
C1202 C1206 1.531 . S
C1203 C1202 1.369 . S
C1203 C1204 1.410 . S
C1203 C1211 1.503 . S
C1204 C1203 1.410 . S
C1204 C1205 1.392 . S
C1204 C1207 1.511 . S
C1205 C1201 1.376 . S
C1205 C1204 1.392 . S
C1205 H1217 0.929 . S
C1206 C1202 1.531 . S
C1206 H1218 0.960 . S
C1206 H1219 0.962 . S
C1206 H1220 0.960 . S
C1207 C1204 1.511 . S
C1207 H1221 0.961 . S
C1207 H1222 0.961 . S
C1207 H1223 0.961 . S
C1208 C1209 1.370 . S
C1208 C1210 1.363 . S
C1208 H1224 0.931 . S
C1209 C1208 1.370 . S
C1209 C1213 1.408 . S
C1210 C1208 1.363 . S
C1210 C1211 1.370 . S
C1210 C1214 1.524 . S
C1211 C1203 1.503 . S
C1211 C1210 1.370 . S
C1211 C1212 1.403 . S
C1212 C1211 1.403 . S
C1212 C1213 1.404 . S
C1212 C1215 1.539 . S
C1213 C1209 1.408 . S
C1213 C1212 1.404 . S
C1213 H1225 0.930 . S
C1214 C1210 1.524 . S
C1214 H1226 0.956 . S
C1214 H1227 0.961 . S
C1214 H1228 0.961 . S
C1215 C1212 1.539 . S
C1215 H1229 0.958 . S
C1215 H1230 0.961 . S
C1215 H1231 0.960 . S
H1216 C1200 0.931 . S
H1217 C1205 0.929 . S
H1218 C1206 0.960 . S
H1219 C1206 0.962 . S
H1220 C1206 0.960 . S
H1221 C1207 0.961 . S
H1222 C1207 0.961 . S
H1223 C1207 0.961 . S
H1224 C1208 0.931 . S
H1225 C1213 0.930 . S
H1226 C1214 0.956 . S
H1227 C1214 0.961 . S
H1228 C1214 0.961 . S
H1229 C1215 0.958 . S
H1230 C1215 0.961 . S
H1231 C1215 0.960 . S
C1232 C1233 1.391 . S
C1232 C1234 1.394 . S
C1232 H1248 0.931 1_554 S
C1233 C1232 1.391 . S
C1233 C1237 1.376 . S
C1234 C1232 1.394 . S
C1234 C1235 1.369 . S
C1234 C1238 1.531 . S
C1235 C1234 1.369 . S
C1235 C1236 1.410 . S
C1235 C1243 1.503 . S
C1236 C1235 1.410 . S
C1236 C1237 1.392 . S
C1236 C1239 1.511 . S
C1237 C1233 1.376 . S
C1237 C1236 1.392 . S
C1237 H1249 0.929 . S
C1238 C1234 1.531 . S
C1238 H1250 0.960 . S
C1238 H1251 0.962 . S
C1238 H1252 0.960 . S
C1239 C1236 1.511 . S
C1239 H1253 0.961 . S
C1239 H1254 0.961 . S
C1239 H1255 0.961 . S
C1240 C1241 1.370 . S
C1240 C1242 1.363 . S
C1240 H1256 0.931 . S
C1241 C1240 1.370 . S
C1241 C1245 1.408 . S
C1242 C1240 1.363 . S
C1242 C1243 1.370 . S
C1242 C1246 1.524 . S
C1243 C1235 1.503 . S
C1243 C1242 1.370 . S
C1243 C1244 1.403 . S
C1244 C1243 1.403 . S
C1244 C1245 1.404 . S
C1244 C1247 1.539 . S
C1245 C1241 1.408 . S
C1245 C1244 1.404 . S
C1245 H1257 0.930 . S
C1246 C1242 1.524 . S
C1246 H1258 0.956 . S
C1246 H1259 0.961 . S
C1246 H1260 0.961 . S
C1247 C1244 1.539 . S
C1247 H1261 0.958 . S
C1247 H1262 0.961 . S
C1247 H1263 0.960 . S
H1248 C1232 0.931 1_556 S
H1249 C1237 0.929 . S
H1250 C1238 0.960 . S
H1251 C1238 0.962 . S
H1252 C1238 0.960 . S
H1253 C1239 0.961 . S
H1254 C1239 0.961 . S
H1255 C1239 0.961 . S
H1256 C1240 0.931 . S
H1257 C1245 0.930 . S
H1258 C1246 0.956 . S
H1259 C1246 0.961 . S
H1260 C1246 0.961 . S
H1261 C1247 0.958 . S
H1262 C1247 0.961 . S
H1263 C1247 0.960 . S
C1264 C1265 1.391 . S
C1264 C1266 1.394 . S
C1264 H1280 0.931 . S
C1265 C1264 1.391 . S
C1265 C1269 1.376 . S
C1266 C1264 1.394 . S
C1266 C1267 1.369 . S
C1266 C1270 1.531 . S
C1267 C1266 1.369 . S
C1267 C1268 1.410 . S
C1267 C1275 1.503 . S
C1268 C1267 1.410 . S
C1268 C1269 1.392 . S
C1268 C1271 1.511 . S
C1269 C1265 1.376 . S
C1269 C1268 1.392 . S
C1269 H1281 0.929 . S
C1270 C1266 1.531 . S
C1270 H1282 0.960 . S
C1270 H1283 0.962 . S
C1270 H1284 0.960 . S
C1271 C1268 1.511 . S
C1271 H1285 0.961 . S
C1271 H1286 0.961 . S
C1271 H1287 0.961 . S
C1272 C1273 1.370 . S
C1272 C1274 1.363 . S
C1272 H1288 0.931 . S
C1273 C1272 1.370 . S
C1273 C1277 1.408 . S
C1274 C1272 1.363 . S
C1274 C1275 1.370 . S
C1274 C1278 1.524 . S
C1275 C1267 1.503 . S
C1275 C1274 1.370 . S
C1275 C1276 1.403 . S
C1276 C1275 1.403 . S
C1276 C1277 1.404 . S
C1276 C1279 1.539 . S
C1277 C1273 1.408 . S
C1277 C1276 1.404 . S
C1277 H1289 0.930 . S
C1278 C1274 1.524 . S
C1278 H1290 0.956 . S
C1278 H1291 0.961 . S
C1278 H1292 0.961 . S
C1279 C1276 1.539 . S
C1279 H1293 0.958 . S
C1279 H1294 0.961 . S
C1279 H1295 0.960 . S
H1280 C1264 0.931 . S
H1281 C1269 0.929 . S
H1282 C1270 0.960 . S
H1283 C1270 0.962 . S
H1284 C1270 0.960 . S
H1285 C1271 0.961 . S
H1286 C1271 0.961 . S
H1287 C1271 0.961 . S
H1288 C1272 0.931 . S
H1289 C1277 0.930 . S
H1290 C1278 0.956 . S
H1291 C1278 0.961 . S
H1292 C1278 0.961 . S
H1293 C1279 0.958 . S
H1294 C1279 0.961 . S
H1295 C1279 0.960 . S
C1296 C1297 1.391 . S
C1296 C1298 1.394 . S
C1296 H1312 0.931 . S
C1297 C1296 1.391 . S
C1297 C1301 1.376 . S
C1298 C1296 1.394 . S
C1298 C1299 1.369 . S
C1298 C1302 1.531 1_455 S
C1299 C1298 1.369 . S
C1299 C1300 1.410 . S
C1299 C1307 1.503 1_445 S
C1300 C1299 1.410 . S
C1300 C1301 1.392 . S
C1300 C1303 1.510 . S
C1301 C1297 1.376 . S
C1301 C1300 1.392 . S
C1301 H1313 0.929 . S
C1302 C1298 1.531 1_655 S
C1302 H1314 0.960 . S
C1302 H1315 0.962 . S
C1302 H1316 0.960 . S
C1303 C1300 1.510 . S
C1303 H1317 0.961 1_545 S
C1303 H1318 0.963 1_545 S
C1303 H1319 0.960 . S
C1304 C1305 1.370 . S
C1304 C1306 1.363 . S
C1304 H1320 0.931 . S
C1305 C1304 1.370 . S
C1305 C1309 1.408 . S
C1306 C1304 1.363 . S
C1306 C1307 1.370 . S
C1306 C1310 1.524 1_655 S
C1307 C1299 1.503 1_665 S
C1307 C1306 1.370 . S
C1307 C1308 1.403 . S
C1308 C1307 1.403 . S
C1308 C1309 1.404 . S
C1308 C1311 1.539 1_565 S
C1309 C1305 1.408 . S
C1309 C1308 1.404 . S
C1309 H1321 0.930 . S
C1310 C1306 1.524 1_455 S
C1310 H1322 0.956 . S
C1310 H1323 0.961 . S
C1310 H1324 0.961 . S
C1311 C1308 1.539 1_545 S
C1311 H1325 0.958 . S
C1311 H1326 0.961 . S
C1311 H1327 0.960 . S
H1312 C1296 0.931 . S
H1313 C1301 0.929 . S
H1314 C1302 0.960 . S
H1315 C1302 0.962 . S
H1316 C1302 0.960 . S
H1317 C1303 0.961 1_565 S
H1318 C1303 0.963 1_565 S
H1319 C1303 0.960 . S
H1320 C1304 0.931 . S
H1321 C1309 0.930 . S
H1322 C1310 0.956 . S
H1323 C1310 0.961 . S
H1324 C1310 0.961 . S
H1325 C1311 0.958 . S
H1326 C1311 0.961 . S
H1327 C1311 0.960 . S
C1328 C1329 1.391 . S
C1328 C1330 1.394 . S
C1328 H1344 0.931 . S
C1329 C1328 1.391 . S
C1329 C1333 1.376 . S
C1330 C1328 1.394 . S
C1330 C1331 1.369 . S
C1330 C1334 1.531 1_455 S
C1331 C1330 1.369 . S
C1331 C1332 1.410 . S
C1331 C1339 1.503 1_455 S
C1332 C1331 1.410 . S
C1332 C1333 1.392 . S
C1332 C1335 1.511 . S
C1333 C1329 1.376 . S
C1333 C1332 1.392 . S
C1333 H1345 0.929 . S
C1334 C1330 1.531 1_655 S
C1334 H1346 0.960 . S
C1334 H1347 0.962 . S
C1334 H1348 0.973 . S
C1335 C1332 1.511 . S
C1335 H1349 0.961 . S
C1335 H1350 0.961 . S
C1335 H1351 0.961 . S
C1336 C1337 1.370 . S
C1336 C1338 1.363 . S
C1336 H1352 0.931 . S
C1337 C1336 1.370 . S
C1337 C1341 1.408 . S
C1338 C1336 1.363 . S
C1338 C1339 1.370 . S
C1338 C1342 1.524 . S
C1339 C1331 1.503 1_655 S
C1339 C1338 1.370 . S
C1339 C1340 1.403 . S
C1340 C1339 1.403 . S
C1340 C1341 1.404 . S
C1340 C1343 1.539 1_655 S
C1341 C1337 1.408 . S
C1341 C1340 1.404 . S
C1341 H1353 0.930 . S
C1342 C1338 1.524 . S
C1342 H1354 0.956 . S
C1342 H1355 0.961 . S
C1342 H1356 0.961 . S
C1343 C1340 1.539 1_455 S
C1343 H1357 0.958 . S
C1343 H1358 0.961 . S
C1343 H1359 0.960 . S
H1344 C1328 0.931 . S
H1345 C1333 0.929 . S
H1346 C1334 0.960 . S
H1347 C1334 0.962 . S
H1348 C1334 0.973 . S
H1349 C1335 0.961 . S
H1350 C1335 0.961 . S
H1351 C1335 0.961 . S
H1352 C1336 0.931 . S
H1353 C1341 0.930 . S
H1354 C1342 0.956 . S
H1355 C1342 0.961 . S
H1356 C1342 0.961 . S
H1357 C1343 0.958 . S
H1358 C1343 0.961 . S
H1359 C1343 0.960 . S
C1360 C1361 1.391 . S
C1360 C1362 1.394 . S
C1360 H1376 0.931 . S
C1361 C1360 1.391 . S
C1361 C1365 1.376 . S
C1362 C1360 1.394 . S
C1362 C1363 1.369 . S
C1362 C1366 1.531 . S
C1363 C1362 1.369 . S
C1363 C1364 1.410 . S
C1363 C1371 1.503 . S
C1364 C1363 1.410 . S
C1364 C1365 1.392 . S
C1364 C1367 1.511 . S
C1365 C1361 1.376 . S
C1365 C1364 1.392 . S
C1365 H1377 0.929 . S
C1366 C1362 1.531 . S
C1366 H1378 0.960 . S
C1366 H1379 0.962 . S
C1366 H1380 0.960 . S
C1367 C1364 1.511 . S
C1367 H1381 0.961 . S
C1367 H1382 0.961 . S
C1367 H1383 0.961 . S
C1368 C1369 1.370 . S
C1368 C1370 1.363 . S
C1368 H1384 0.931 . S
C1369 C1368 1.370 . S
C1369 C1373 1.408 . S
C1370 C1368 1.363 . S
C1370 C1371 1.370 . S
C1370 C1374 1.524 . S
C1371 C1363 1.503 . S
C1371 C1370 1.370 . S
C1371 C1372 1.403 . S
C1372 C1371 1.403 . S
C1372 C1373 1.404 . S
C1372 C1375 1.539 . S
C1373 C1369 1.408 . S
C1373 C1372 1.404 . S
C1373 H1385 0.930 . S
C1374 C1370 1.524 . S
C1374 H1386 0.956 . S
C1374 H1387 0.961 . S
C1374 H1388 0.961 . S
C1375 C1372 1.539 . S
C1375 H1389 0.958 . S
C1375 H1390 0.961 . S
C1375 H1391 0.960 . S
H1376 C1360 0.931 . S
H1377 C1365 0.929 . S
H1378 C1366 0.960 . S
H1379 C1366 0.962 . S
H1380 C1366 0.960 . S
H1381 C1367 0.961 . S
H1382 C1367 0.961 . S
H1383 C1367 0.961 . S
H1384 C1368 0.931 . S
H1385 C1373 0.930 . S
H1386 C1374 0.956 . S
H1387 C1374 0.961 . S
H1388 C1374 0.961 . S
H1389 C1375 0.958 . S
H1390 C1375 0.961 . S
H1391 C1375 0.960 . S
C1392 C1393 1.391 . S
C1392 C1394 1.394 . S
C1392 H1408 0.931 . S
C1393 C1392 1.391 . S
C1393 C1397 1.376 . S
C1394 C1392 1.394 . S
C1394 C1395 1.369 . S
C1394 C1398 1.531 . S
C1395 C1394 1.369 . S
C1395 C1396 1.410 1_545 S
C1395 C1403 1.503 1_545 S
C1396 C1395 1.410 1_565 S
C1396 C1397 1.392 1_565 S
C1396 C1399 1.511 . S
C1397 C1393 1.376 . S
C1397 C1396 1.392 1_545 S
C1397 H1409 0.929 . S
C1398 C1394 1.531 . S
C1398 H1410 0.960 . S
C1398 H1411 0.962 . S
C1398 H1412 0.960 . S
C1399 C1396 1.511 . S
C1399 H1413 0.961 . S
C1399 H1414 0.961 . S
C1399 H1415 0.961 . S
C1400 C1401 1.370 . S
C1400 C1402 1.363 . S
C1400 H1416 0.931 . S
C1401 C1400 1.370 . S
C1401 C1405 1.408 . S
C1402 C1400 1.363 . S
C1402 C1403 1.370 . S
C1402 C1406 1.524 1_565 S
C1403 C1395 1.503 1_565 S
C1403 C1402 1.370 . S
C1403 C1404 1.403 . S
C1404 C1403 1.403 . S
C1404 C1405 1.404 . S
C1404 C1407 1.539 . S
C1405 C1401 1.408 . S
C1405 C1404 1.404 . S
C1405 H1417 0.930 . S
C1406 C1402 1.524 1_545 S
C1406 H1418 0.956 . S
C1406 H1419 0.959 1_545 S
C1406 H1420 0.951 1_545 S
C1407 C1404 1.539 . S
C1407 H1421 0.958 . S
C1407 H1422 0.961 . S
C1407 H1423 0.960 . S
H1408 C1392 0.931 . S
H1409 C1397 0.929 . S
H1410 C1398 0.960 . S
H1411 C1398 0.962 . S
H1412 C1398 0.960 . S
H1413 C1399 0.961 . S
H1414 C1399 0.961 . S
H1415 C1399 0.961 . S
H1416 C1400 0.931 . S
H1417 C1405 0.930 . S
H1418 C1406 0.956 . S
H1419 C1406 0.959 1_565 S
H1420 C1406 0.951 1_565 S
H1421 C1407 0.958 . S
H1422 C1407 0.961 . S
H1423 C1407 0.960 . S
C1424 C1425 1.391 . S
C1424 C1426 1.394 . S
C1424 H1440 0.931 . S
C1425 C1424 1.391 . S
C1425 C1429 1.376 . S
C1426 C1424 1.394 . S
C1426 C1427 1.369 . S
C1426 C1430 1.531 . S
C1427 C1426 1.369 . S
C1427 C1428 1.410 1_455 S
C1427 C1435 1.503 1_455 S
C1428 C1427 1.410 1_655 S
C1428 C1429 1.392 1_655 S
C1428 C1431 1.511 . S
C1429 C1425 1.376 . S
C1429 C1428 1.392 1_455 S
C1429 H1441 0.929 . S
C1430 C1426 1.531 . S
C1430 H1442 0.960 . S
C1430 H1443 0.962 . S
C1430 H1444 0.960 . S
C1431 C1428 1.511 . S
C1431 H1445 0.961 . S
C1431 H1446 0.961 . S
C1431 H1447 0.961 . S
C1432 C1433 1.370 . S
C1432 C1434 1.363 . S
C1432 H1448 0.931 . S
C1433 C1432 1.370 . S
C1433 C1437 1.408 . S
C1434 C1432 1.363 . S
C1434 C1435 1.370 . S
C1434 C1438 1.524 1_655 S
C1435 C1427 1.503 1_655 S
C1435 C1434 1.370 . S
C1435 C1436 1.403 . S
C1436 C1435 1.403 . S
C1436 C1437 1.404 . S
C1436 C1439 1.539 . S
C1437 C1433 1.408 . S
C1437 C1436 1.404 . S
C1437 H1449 0.930 . S
C1438 C1434 1.524 1_455 S
C1438 H1450 0.956 . S
C1438 H1451 0.961 . S
C1438 H1452 0.961 . S
C1439 C1436 1.539 . S
C1439 H1453 0.958 . S
C1439 H1454 0.961 . S
C1439 H1455 0.960 . S
H1440 C1424 0.931 . S
H1441 C1429 0.929 . S
H1442 C1430 0.960 . S
H1443 C1430 0.962 . S
H1444 C1430 0.960 . S
H1445 C1431 0.961 . S
H1446 C1431 0.961 . S
H1447 C1431 0.961 . S
H1448 C1432 0.931 . S
H1449 C1437 0.930 . S
H1450 C1438 0.956 . S
H1451 C1438 0.961 . S
H1452 C1438 0.961 . S
H1453 C1439 0.958 . S
H1454 C1439 0.961 . S
H1455 C1439 0.960 . S
C1456 C1457 1.391 . S
C1456 C1458 1.394 . S
C1456 H1472 0.931 . S
C1457 C1456 1.391 . S
C1457 C1461 1.376 . S
C1458 C1456 1.394 . S
C1458 C1459 1.369 . S
C1458 C1462 1.531 . S
C1459 C1458 1.369 . S
C1459 C1460 1.410 . S
C1459 C1467 1.503 . S
C1460 C1459 1.410 . S
C1460 C1461 1.392 . S
C1460 C1463 1.511 . S
C1461 C1457 1.376 . S
C1461 C1460 1.392 . S
C1461 H1473 0.929 . S
C1462 C1458 1.531 . S
C1462 H1474 0.960 . S
C1462 H1475 0.962 . S
C1462 H1476 0.960 . S
C1463 C1460 1.511 . S
C1463 H1477 0.961 . S
C1463 H1478 0.961 . S
C1463 H1479 0.961 . S
C1464 C1465 1.370 . S
C1464 C1466 1.363 . S
C1464 H1480 0.931 . S
C1465 C1464 1.370 . S
C1465 C1469 1.408 . S
C1466 C1464 1.363 . S
C1466 C1467 1.370 . S
C1466 C1470 1.524 . S
C1467 C1459 1.503 . S
C1467 C1466 1.370 . S
C1467 C1468 1.403 . S
C1468 C1467 1.403 . S
C1468 C1469 1.404 . S
C1468 C1471 1.539 . S
C1469 C1465 1.408 . S
C1469 C1468 1.404 . S
C1469 H1481 0.930 . S
C1470 C1466 1.524 . S
C1470 H1482 0.956 . S
C1470 H1483 0.961 . S
C1470 H1484 0.961 . S
C1471 C1468 1.539 . S
C1471 H1485 0.958 . S
C1471 H1486 0.961 . S
C1471 H1487 0.960 . S
H1472 C1456 0.931 . S
H1473 C1461 0.929 . S
H1474 C1462 0.960 . S
H1475 C1462 0.962 . S
H1476 C1462 0.960 . S
H1477 C1463 0.961 . S
H1478 C1463 0.961 . S
H1479 C1463 0.961 . S
H1480 C1464 0.931 . S
H1481 C1469 0.930 . S
H1482 C1470 0.956 . S
H1483 C1470 0.961 . S
H1484 C1470 0.961 . S
H1485 C1471 0.958 . S
H1486 C1471 0.961 . S
H1487 C1471 0.960 . S
C1488 C1489 1.391 . S
C1488 C1490 1.394 . S
C1488 H1504 0.931 . S
C1489 C1488 1.391 . S
C1489 C1493 1.376 . S
C1490 C1488 1.394 . S
C1490 C1491 1.369 . S
C1490 C1494 1.531 . S
C1491 C1490 1.369 . S
C1491 C1492 1.410 . S
C1491 C1499 1.503 1_565 S
C1492 C1491 1.410 . S
C1492 C1493 1.392 . S
C1492 C1495 1.511 . S
C1493 C1489 1.376 . S
C1493 C1492 1.392 . S
C1493 H1505 0.929 . S
C1494 C1490 1.531 . S
C1494 H1506 0.960 . S
C1494 H1507 0.964 1_565 S
C1494 H1508 0.960 . S
C1495 C1492 1.511 . S
C1495 H1509 0.961 . S
C1495 H1510 0.961 1_565 S
C1495 H1511 0.961 . S
C1496 C1497 1.370 . S
C1496 C1498 1.363 . S
C1496 H1512 0.931 . S
C1497 C1496 1.370 . S
C1497 C1501 1.408 . S
C1498 C1496 1.363 . S
C1498 C1499 1.370 . S
C1498 C1502 1.524 . S
C1499 C1491 1.503 1_545 S
C1499 C1498 1.370 . S
C1499 C1500 1.403 . S
C1500 C1499 1.403 . S
C1500 C1501 1.404 . S
C1500 C1503 1.539 1_545 S
C1501 C1497 1.408 . S
C1501 C1500 1.404 . S
C1501 H1513 0.930 . S
C1502 C1498 1.524 . S
C1502 H1514 0.956 . S
C1502 H1515 0.961 . S
C1502 H1516 0.961 . S
C1503 C1500 1.539 1_565 S
C1503 H1517 0.958 . S
C1503 H1518 0.961 . S
C1503 H1519 0.960 . S
H1504 C1488 0.931 . S
H1505 C1493 0.929 . S
H1506 C1494 0.960 . S
H1507 C1494 0.964 1_545 S
H1508 C1494 0.960 . S
H1509 C1495 0.961 . S
H1510 C1495 0.961 1_545 S
H1511 C1495 0.961 . S
H1512 C1496 0.931 . S
H1513 C1501 0.930 . S
H1514 C1502 0.956 . S
H1515 C1502 0.961 . S
H1516 C1502 0.961 . S
H1517 C1503 0.958 . S
H1518 C1503 0.961 . S
H1519 C1503 0.960 . S
C1520 C1521 1.391 . S
C1520 C1522 1.394 . S
C1520 H1536 0.931 . S
C1521 C1520 1.391 . S
C1521 C1525 1.376 . S
C1522 C1520 1.394 . S
C1522 C1523 1.369 . S
C1522 C1526 1.531 1_545 S
C1523 C1522 1.369 . S
C1523 C1524 1.410 . S
C1523 C1531 1.503 1_445 S
C1524 C1523 1.410 . S
C1524 C1525 1.392 . S
C1524 C1527 1.511 1_455 S
C1525 C1521 1.376 . S
C1525 C1524 1.392 . S
C1525 H1537 0.929 . S
C1526 C1522 1.531 1_565 S
C1526 H1538 0.960 . S
C1526 H1539 0.962 . S
C1526 H1540 0.960 . S
C1527 C1524 1.511 1_655 S
C1527 H1541 0.961 . S
C1527 H1542 0.961 . S
C1527 H1543 0.961 . S
C1528 C1529 1.370 . S
C1528 C1530 1.363 . S
C1528 H1544 0.931 . S
C1529 C1528 1.370 . S
C1529 C1533 1.408 . S
C1530 C1528 1.363 . S
C1530 C1531 1.370 . S
C1530 C1534 1.524 1_655 S
C1531 C1523 1.503 1_665 S
C1531 C1530 1.370 . S
C1531 C1532 1.403 . S
C1532 C1531 1.403 . S
C1532 C1533 1.404 . S
C1532 C1535 1.539 1_565 S
C1533 C1529 1.408 . S
C1533 C1532 1.404 . S
C1533 H1545 0.930 . S
C1534 C1530 1.524 1_455 S
C1534 H1546 0.956 . S
C1534 H1547 0.961 . S
C1534 H1548 0.961 1_455 S
C1535 C1532 1.539 1_545 S
C1535 H1549 0.958 . S
C1535 H1550 0.961 . S
C1535 H1551 0.960 . S
H1536 C1520 0.931 . S
H1537 C1525 0.929 . S
H1538 C1526 0.960 . S
H1539 C1526 0.962 . S
H1540 C1526 0.960 . S
H1541 C1527 0.961 . S
H1542 C1527 0.961 . S
H1543 C1527 0.961 . S
H1544 C1528 0.931 . S
H1545 C1533 0.930 . S
H1546 C1534 0.956 . S
H1547 C1534 0.961 . S
H1548 C1534 0.961 1_655 S
H1549 C1535 0.958 . S
H1550 C1535 0.961 . S
H1551 C1535 0.960 . S
C1552 C1553 1.391 . S
C1552 C1554 1.394 . S
C1552 H1568 0.931 . S
C1553 C1552 1.391 . S
C1553 C1557 1.376 . S
C1554 C1552 1.394 . S
C1554 C1555 1.369 . S
C1554 C1558 1.531 . S
C1555 C1554 1.369 . S
C1555 C1556 1.410 . S
C1555 C1563 1.503 . S
C1556 C1555 1.410 . S
C1556 C1557 1.392 . S
C1556 C1559 1.511 . S
C1557 C1553 1.376 . S
C1557 C1556 1.392 . S
C1557 H1569 0.929 . S
C1558 C1554 1.531 . S
C1558 H1570 0.960 . S
C1558 H1571 0.962 . S
C1558 H1572 0.960 . S
C1559 C1556 1.511 . S
C1559 H1573 0.961 . S
C1559 H1574 0.961 . S
C1559 H1575 0.961 . S
C1560 C1561 1.370 . S
C1560 C1562 1.363 . S
C1560 H1576 0.931 . S
C1561 C1560 1.370 . S
C1561 C1565 1.408 . S
C1562 C1560 1.363 . S
C1562 C1563 1.370 . S
C1562 C1566 1.524 . S
C1563 C1555 1.503 . S
C1563 C1562 1.370 . S
C1563 C1564 1.403 . S
C1564 C1563 1.403 . S
C1564 C1565 1.404 . S
C1564 C1567 1.539 . S
C1565 C1561 1.408 . S
C1565 C1564 1.404 . S
C1565 H1577 0.930 . S
C1566 C1562 1.524 . S
C1566 H1578 0.956 . S
C1566 H1579 0.961 . S
C1566 H1580 0.961 . S
C1567 C1564 1.539 . S
C1567 H1581 0.958 . S
C1567 H1582 0.961 . S
C1567 H1583 0.960 . S
H1568 C1552 0.931 . S
H1569 C1557 0.929 . S
H1570 C1558 0.960 . S
H1571 C1558 0.962 . S
H1572 C1558 0.960 . S
H1573 C1559 0.961 . S
H1574 C1559 0.961 . S
H1575 C1559 0.961 . S
H1576 C1560 0.931 . S
H1577 C1565 0.930 . S
H1578 C1566 0.956 . S
H1579 C1566 0.961 . S
H1580 C1566 0.961 . S
H1581 C1567 0.958 . S
H1582 C1567 0.961 . S
H1583 C1567 0.960 . S
C1584 C1585 1.391 . S
C1584 C1586 1.394 . S
C1584 H1600 0.931 . S
C1585 C1584 1.391 . S
C1585 C1589 1.376 . S
C1586 C1584 1.394 . S
C1586 C1587 1.369 . S
C1586 C1590 1.531 . S
C1587 C1586 1.369 . S
C1587 C1588 1.410 . S
C1587 C1595 1.503 . S
C1588 C1587 1.410 . S
C1588 C1589 1.392 . S
C1588 C1591 1.511 . S
C1589 C1585 1.376 . S
C1589 C1588 1.392 . S
C1589 H1601 0.929 . S
C1590 C1586 1.531 . S
C1590 H1602 0.960 . S
C1590 H1603 0.962 . S
C1590 H1604 0.960 . S
C1591 C1588 1.511 . S
C1591 H1605 0.961 . S
C1591 H1606 0.961 . S
C1591 H1607 0.961 . S
C1592 C1593 1.370 . S
C1592 C1594 1.363 . S
C1592 H1608 0.931 . S
C1593 C1592 1.370 . S
C1593 C1597 1.408 . S
C1594 C1592 1.363 . S
C1594 C1595 1.370 . S
C1594 C1598 1.524 . S
C1595 C1587 1.503 . S
C1595 C1594 1.370 . S
C1595 C1596 1.403 . S
C1596 C1595 1.403 . S
C1596 C1597 1.404 . S
C1596 C1599 1.539 . S
C1597 C1593 1.408 . S
C1597 C1596 1.404 . S
C1597 H1609 0.930 . S
C1598 C1594 1.524 . S
C1598 H1610 0.956 . S
C1598 H1611 0.961 . S
C1598 H1612 0.961 . S
C1599 C1596 1.539 . S
C1599 H1613 0.958 . S
C1599 H1614 0.961 . S
C1599 H1615 0.960 . S
H1600 C1584 0.931 . S
H1601 C1589 0.929 . S
H1602 C1590 0.960 . S
H1603 C1590 0.962 . S
H1604 C1590 0.960 . S
H1605 C1591 0.961 . S
H1606 C1591 0.961 . S
H1607 C1591 0.961 . S
H1608 C1592 0.931 . S
H1609 C1597 0.930 . S
H1610 C1598 0.956 . S
H1611 C1598 0.961 . S
H1612 C1598 0.961 . S
H1613 C1599 0.958 . S
H1614 C1599 0.961 . S
H1615 C1599 0.960 . S
C1616 C1617 1.391 . S
C1616 C1618 1.394 . S
C1616 H1632 0.931 . S
C1617 C1616 1.391 . S
C1617 C1621 1.376 . S
C1618 C1616 1.394 . S
C1618 C1619 1.369 . S
C1618 C1622 1.531 . S
C1619 C1618 1.369 . S
C1619 C1620 1.410 . S
C1619 C1627 1.503 . S
C1620 C1619 1.410 . S
C1620 C1621 1.392 . S
C1620 C1623 1.511 . S
C1621 C1617 1.376 . S
C1621 C1620 1.392 . S
C1621 H1633 0.929 . S
C1622 C1618 1.531 . S
C1622 H1634 0.960 . S
C1622 H1635 0.962 . S
C1622 H1636 0.960 . S
C1623 C1620 1.511 . S
C1623 H1637 0.961 . S
C1623 H1638 0.961 . S
C1623 H1639 0.961 . S
C1624 C1625 1.370 . S
C1624 C1626 1.363 . S
C1624 H1640 0.931 . S
C1625 C1624 1.370 . S
C1625 C1629 1.408 . S
C1626 C1624 1.363 . S
C1626 C1627 1.370 . S
C1626 C1630 1.524 . S
C1627 C1619 1.503 . S
C1627 C1626 1.370 . S
C1627 C1628 1.403 . S
C1628 C1627 1.403 . S
C1628 C1629 1.404 . S
C1628 C1631 1.539 . S
C1629 C1625 1.408 . S
C1629 C1628 1.404 . S
C1629 H1641 0.930 . S
C1630 C1626 1.524 . S
C1630 H1642 0.956 . S
C1630 H1643 0.961 . S
C1630 H1644 0.961 . S
C1631 C1628 1.539 . S
C1631 H1645 0.958 . S
C1631 H1646 0.961 . S
C1631 H1647 0.960 . S
H1632 C1616 0.931 . S
H1633 C1621 0.929 . S
H1634 C1622 0.960 . S
H1635 C1622 0.962 . S
H1636 C1622 0.960 . S
H1637 C1623 0.961 . S
H1638 C1623 0.961 . S
H1639 C1623 0.961 . S
H1640 C1624 0.931 . S
H1641 C1629 0.930 . S
H1642 C1630 0.956 . S
H1643 C1630 0.961 . S
H1644 C1630 0.961 . S
H1645 C1631 0.958 . S
H1646 C1631 0.961 . S
H1647 C1631 0.960 . S
C1648 C1649 1.391 . S
C1648 C1650 1.394 . S
C1648 H1664 0.931 . S
C1649 C1648 1.391 . S
C1649 C1653 1.376 . S
C1650 C1648 1.394 . S
C1650 C1651 1.369 . S
C1650 C1654 1.531 . S
C1651 C1650 1.369 . S
C1651 C1652 1.410 . S
C1651 C1659 1.503 . S
C1652 C1651 1.410 . S
C1652 C1653 1.392 . S
C1652 C1655 1.511 . S
C1653 C1649 1.376 . S
C1653 C1652 1.392 . S
C1653 H1665 0.929 . S
C1654 C1650 1.531 . S
C1654 H1666 0.960 . S
C1654 H1667 0.962 . S
C1654 H1668 0.960 . S
C1655 C1652 1.511 . S
C1655 H1669 0.961 . S
C1655 H1670 0.961 . S
C1655 H1671 0.961 . S
C1656 C1657 1.370 . S
C1656 C1658 1.363 . S
C1656 H1672 0.931 . S
C1657 C1656 1.370 . S
C1657 C1661 1.408 . S
C1658 C1656 1.363 . S
C1658 C1659 1.370 . S
C1658 C1662 1.524 . S
C1659 C1651 1.503 . S
C1659 C1658 1.370 . S
C1659 C1660 1.403 . S
C1660 C1659 1.403 . S
C1660 C1661 1.404 . S
C1660 C1663 1.539 . S
C1661 C1657 1.408 . S
C1661 C1660 1.404 . S
C1661 H1673 0.930 . S
C1662 C1658 1.524 . S
C1662 H1674 0.956 . S
C1662 H1675 0.961 . S
C1662 H1676 0.961 . S
C1663 C1660 1.539 . S
C1663 H1677 0.958 . S
C1663 H1678 0.961 . S
C1663 H1679 0.960 . S
H1664 C1648 0.931 . S
H1665 C1653 0.929 . S
H1666 C1654 0.960 . S
H1667 C1654 0.962 . S
H1668 C1654 0.960 . S
H1669 C1655 0.961 . S
H1670 C1655 0.961 . S
H1671 C1655 0.961 . S
H1672 C1656 0.931 . S
H1673 C1661 0.930 . S
H1674 C1662 0.956 . S
H1675 C1662 0.961 . S
H1676 C1662 0.961 . S
H1677 C1663 0.958 . S
H1678 C1663 0.961 . S
H1679 C1663 0.960 . S
C1680 C1681 1.391 . S
C1680 C1682 1.394 . S
C1680 H1696 0.931 . S
C1681 C1680 1.391 . S
C1681 C1685 1.376 . S
C1682 C1680 1.394 . S
C1682 C1683 1.369 . S
C1682 C1686 1.531 . S
C1683 C1682 1.369 . S
C1683 C1684 1.410 . S
C1683 C1691 1.503 . S
C1684 C1683 1.410 . S
C1684 C1685 1.392 . S
C1684 C1687 1.511 . S
C1685 C1681 1.376 . S
C1685 C1684 1.392 . S
C1685 H1697 0.929 . S
C1686 C1682 1.531 . S
C1686 H1698 0.960 . S
C1686 H1699 0.962 . S
C1686 H1700 0.960 . S
C1687 C1684 1.511 . S
C1687 H1701 0.961 . S
C1687 H1702 0.961 . S
C1687 H1703 0.961 . S
C1688 C1689 1.370 . S
C1688 C1690 1.363 . S
C1688 H1704 0.931 . S
C1689 C1688 1.370 . S
C1689 C1693 1.408 . S
C1690 C1688 1.363 . S
C1690 C1691 1.370 . S
C1690 C1694 1.524 . S
C1691 C1683 1.503 . S
C1691 C1690 1.370 . S
C1691 C1692 1.403 . S
C1692 C1691 1.403 . S
C1692 C1693 1.404 . S
C1692 C1695 1.539 . S
C1693 C1689 1.408 . S
C1693 C1692 1.404 . S
C1693 H1705 0.930 . S
C1694 C1690 1.524 . S
C1694 H1706 0.956 . S
C1694 H1707 0.961 . S
C1694 H1708 0.961 . S
C1695 C1692 1.539 . S
C1695 H1709 0.958 . S
C1695 H1710 0.961 . S
C1695 H1711 0.960 . S
H1696 C1680 0.931 . S
H1697 C1685 0.929 . S
H1698 C1686 0.960 . S
H1699 C1686 0.962 . S
H1700 C1686 0.960 . S
H1701 C1687 0.961 . S
H1702 C1687 0.961 . S
H1703 C1687 0.961 . S
H1704 C1688 0.931 . S
H1705 C1693 0.930 . S
H1706 C1694 0.956 . S
H1707 C1694 0.961 . S
H1708 C1694 0.961 . S
H1709 C1695 0.958 . S
H1710 C1695 0.961 . S
H1711 C1695 0.960 . S
C1712 C1713 1.391 . S
C1712 C1714 1.394 . S
C1712 H1728 0.931 . S
C1713 C1712 1.391 . S
C1713 C1717 1.376 . S
C1714 C1712 1.394 . S
C1714 C1715 1.369 . S
C1714 C1718 1.531 . S
C1715 C1714 1.369 . S
C1715 C1716 1.410 . S
C1715 C1723 1.503 . S
C1716 C1715 1.410 . S
C1716 C1717 1.392 . S
C1716 C1719 1.511 . S
C1717 C1713 1.376 . S
C1717 C1716 1.392 . S
C1717 H1729 0.929 . S
C1718 C1714 1.531 . S
C1718 H1730 0.960 . S
C1718 H1731 0.962 . S
C1718 H1732 0.960 . S
C1719 C1716 1.511 . S
C1719 H1733 0.961 . S
C1719 H1734 0.961 . S
C1719 H1735 0.961 . S
C1720 C1721 1.370 . S
C1720 C1722 1.363 . S
C1720 H1736 0.931 . S
C1721 C1720 1.370 . S
C1721 C1725 1.408 . S
C1722 C1720 1.363 . S
C1722 C1723 1.370 . S
C1722 C1726 1.524 . S
C1723 C1715 1.503 . S
C1723 C1722 1.370 . S
C1723 C1724 1.403 . S
C1724 C1723 1.403 . S
C1724 C1725 1.404 . S
C1724 C1727 1.539 . S
C1725 C1721 1.408 . S
C1725 C1724 1.404 . S
C1725 H1737 0.930 . S
C1726 C1722 1.524 . S
C1726 H1738 0.956 . S
C1726 H1739 0.961 . S
C1726 H1740 0.961 . S
C1727 C1724 1.539 . S
C1727 H1741 0.958 . S
C1727 H1742 0.961 . S
C1727 H1743 0.960 . S
H1728 C1712 0.931 . S
H1729 C1717 0.929 . S
H1730 C1718 0.960 . S
H1731 C1718 0.962 . S
H1732 C1718 0.960 . S
H1733 C1719 0.961 . S
H1734 C1719 0.961 . S
H1735 C1719 0.961 . S
H1736 C1720 0.931 . S
H1737 C1725 0.930 . S
H1738 C1726 0.956 . S
H1739 C1726 0.961 . S
H1740 C1726 0.961 . S
H1741 C1727 0.958 . S
H1742 C1727 0.961 . S
H1743 C1727 0.960 . S
C1744 C1745 1.391 . S
C1744 C1746 1.394 . S
C1744 H1760 0.931 . S
C1745 C1744 1.391 . S
C1745 C1749 1.376 . S
C1746 C1744 1.394 . S
C1746 C1747 1.369 . S
C1746 C1750 1.531 . S
C1747 C1746 1.369 . S
C1747 C1748 1.410 . S
C1747 C1755 1.503 . S
C1748 C1747 1.410 . S
C1748 C1749 1.392 . S
C1748 C1751 1.511 . S
C1749 C1745 1.376 . S
C1749 C1748 1.392 . S
C1749 H1761 0.929 . S
C1750 C1746 1.531 . S
C1750 H1762 0.960 . S
C1750 H1763 0.962 . S
C1750 H1764 0.960 . S
C1751 C1748 1.511 . S
C1751 H1765 0.961 . S
C1751 H1766 0.961 . S
C1751 H1767 0.961 . S
C1752 C1753 1.370 . S
C1752 C1754 1.363 . S
C1752 H1768 0.931 . S
C1753 C1752 1.370 . S
C1753 C1757 1.408 . S
C1754 C1752 1.363 . S
C1754 C1755 1.370 . S
C1754 C1758 1.524 . S
C1755 C1747 1.503 . S
C1755 C1754 1.370 . S
C1755 C1756 1.403 . S
C1756 C1755 1.403 . S
C1756 C1757 1.404 . S
C1756 C1759 1.539 . S
C1757 C1753 1.408 . S
C1757 C1756 1.404 . S
C1757 H1769 0.930 . S
C1758 C1754 1.524 . S
C1758 H1770 0.956 . S
C1758 H1771 0.961 . S
C1758 H1772 0.961 . S
C1759 C1756 1.539 . S
C1759 H1773 0.958 . S
C1759 H1774 0.961 . S
C1759 H1775 0.960 . S
H1760 C1744 0.931 . S
H1761 C1749 0.929 . S
H1762 C1750 0.960 . S
H1763 C1750 0.962 . S
H1764 C1750 0.960 . S
H1765 C1751 0.961 . S
H1766 C1751 0.961 . S
H1767 C1751 0.961 . S
H1768 C1752 0.931 . S
H1769 C1757 0.930 . S
H1770 C1758 0.956 . S
H1771 C1758 0.961 . S
H1772 C1758 0.961 . S
H1773 C1759 0.958 . S
H1774 C1759 0.961 . S
H1775 C1759 0.960 . S
C1776 C1777 1.391 . S
C1776 C1778 1.394 . S
C1776 H1792 0.931 . S
C1777 C1776 1.391 . S
C1777 C1781 1.376 . S
C1778 C1776 1.394 . S
C1778 C1779 1.369 . S
C1778 C1782 1.531 . S
C1779 C1778 1.369 . S
C1779 C1780 1.410 . S
C1779 C1787 1.503 . S
C1780 C1779 1.410 . S
C1780 C1781 1.392 . S
C1780 C1783 1.511 . S
C1781 C1777 1.376 . S
C1781 C1780 1.392 . S
C1781 H1793 0.929 . S
C1782 C1778 1.531 . S
C1782 H1794 0.960 . S
C1782 H1795 0.962 . S
C1782 H1796 0.960 . S
C1783 C1780 1.511 . S
C1783 H1797 0.961 . S
C1783 H1798 0.961 . S
C1783 H1799 0.961 . S
C1784 C1785 1.370 . S
C1784 C1786 1.363 . S
C1784 H1800 0.931 . S
C1785 C1784 1.370 . S
C1785 C1789 1.408 . S
C1786 C1784 1.363 . S
C1786 C1787 1.370 . S
C1786 C1790 1.524 . S
C1787 C1779 1.503 . S
C1787 C1786 1.370 . S
C1787 C1788 1.403 . S
C1788 C1787 1.403 . S
C1788 C1789 1.404 . S
C1788 C1791 1.539 . S
C1789 C1785 1.408 . S
C1789 C1788 1.404 . S
C1789 H1801 0.930 . S
C1790 C1786 1.524 . S
C1790 H1802 0.956 . S
C1790 H1803 0.961 . S
C1790 H1804 0.961 . S
C1791 C1788 1.539 . S
C1791 H1805 0.958 . S
C1791 H1806 0.961 . S
C1791 H1807 0.960 . S
H1792 C1776 0.931 . S
H1793 C1781 0.929 . S
H1794 C1782 0.960 . S
H1795 C1782 0.962 . S
H1796 C1782 0.960 . S
H1797 C1783 0.961 . S
H1798 C1783 0.961 . S
H1799 C1783 0.961 . S
H1800 C1784 0.931 . S
H1801 C1789 0.930 . S
H1802 C1790 0.956 . S
H1803 C1790 0.961 . S
H1804 C1790 0.961 . S
H1805 C1791 0.958 . S
H1806 C1791 0.961 . S
H1807 C1791 0.960 . S
C529 N14 0.469 . S
C537 N443 0.555 . S
C561 N476 0.433 . S
C569 N47 0.576 . S
C593 N509 0.502 . S
C601 N80 0.542 . S
C625 N410 0.457 . S
C633 N113 0.571 . S
C657 N377 0.589 . S
C665 N146 0.521 . S
C689 N278 0.636 . S
C697 N179 0.488 . S
C721 N212 0.434 . S
C729 N311 0.576 . S
C753 N344 0.507 . S
C761 N245 0.540 . S
C785 C305 2.101 . S
C793 N5 2.214 . S
C817 N38 2.200 . S
C825 C338 2.138 . S
C849 N71 2.226 . S
C857 C371 2.131 . S
C881 N104 2.228 1_556 S
C889 C272 2.133 . S
C913 N137 2.220 1_554 S
C921 C503 2.127 . S
C945 C404 2.116 . S
C953 N170 2.211 . S
C977 C437 2.155 . S
C985 N203 2.218 . S
C1009 C470 2.103 . S
C1017 N236 2.212 . S
C1041 N269 2.207 . S
C1049 C41 2.142 . S
C1073 N302 2.227 1_556 S
C1081 C74 2.145 . S
C1105 N335 2.213 . S
C1113 C107 2.124 . S
C1137 C8 2.101 . S
C1145 N368 2.213 . S
C1169 N401 2.230 . S
C1177 C239 2.136 . S
C1201 C140 2.112 . S
C1209 N434 2.221 . S
C1233 N467 2.216 1_554 S
C1241 C173 2.145 . S
C1265 N500 2.210 . S
C1273 C206 2.123 . S
C1297 C17 1.454 . S
C1305 C347 1.442 . S
C1329 C380 1.439 . S
C1337 C50 1.437 . S
C1361 C83 1.443 . S
C1369 C281 1.449 . S
C1393 C314 1.433 . S
C1401 C116 1.437 . S
C1425 C149 1.435 . S
C1433 C479 1.437 . S
C1457 C512 1.438 . S
C1465 C182 1.437 . S
C1489 C413 1.450 . S
C1497 C215 1.439 . S
C1521 C446 1.442 . S
C1529 C248 1.449 . S
C1553 C226 0.607 . S
C1561 C28 0.466 . S
C1585 C61 0.591 . S
C1593 C259 0.466 . S
C1617 C160 0.409 . S
C1625 C94 0.535 . S
C1649 C127 0.621 . S
C1657 C193 0.471 . S
C1681 C292 0.433 . S
C1689 C490 0.521 . S
C1713 C325 0.603 . S
C1721 C523 0.465 . S
C1745 C358 0.399 . S
C1753 C424 0.549 . S
C1777 C457 0.584 . S
C1785 C391 0.467 . S
