# Generated by pormake.
# Topology sxe, (6)-cn, num edge types: 1
# Building blocks:
#     Node 0, Type 0, BuildingBlock: IZENUY_clean_sbu_0, # of connection points: 6
#     Node 1, Type 0, BuildingBlock: IZENUY_clean_sbu_0, # of connection points: 6
#     Node 2, Type 0, BuildingBlock: IZENUY_clean_sbu_0, # of connection points: 6
#     Node 3, Type 0, BuildingBlock: IZENUY_clean_sbu_0, # of connection points: 6
#     Node 4, Type 0, BuildingBlock: IZENUY_clean_sbu_0, # of connection points: 6
#     Node 5, Type 0, BuildingBlock: IZENUY_clean_sbu_0, # of connection points: 6
#     Node 6, Type 0, BuildingBlock: IZENUY_clean_sbu_0, # of connection points: 6
#     Node 7, Type 0, BuildingBlock: IZENUY_clean_sbu_0, # of connection points: 6
#     Node 8, Type 0, BuildingBlock: IZENUY_clean_sbu_0, # of connection points: 6
#     Node 9, Type 0, BuildingBlock: IZENUY_clean_sbu_0, # of connection points: 6
#     Node 10, Type 0, BuildingBlock: IZENUY_clean_sbu_0, # of connection points: 6
#     Node 11, Type 0, BuildingBlock: IZENUY_clean_sbu_0, # of connection points: 6
#     Node 12, Type 0, BuildingBlock: IZENUY_clean_sbu_0, # of connection points: 6
#     Node 13, Type 0, BuildingBlock: IZENUY_clean_sbu_0, # of connection points: 6
#     Node 14, Type 0, BuildingBlock: IZENUY_clean_sbu_0, # of connection points: 6
#     Node 15, Type 0, BuildingBlock: IZENUY_clean_sbu_0, # of connection points: 6
#     Node 16, Type 0, BuildingBlock: IZENUY_clean_sbu_0, # of connection points: 6
#     Node 17, Type 0, BuildingBlock: IZENUY_clean_sbu_0, # of connection points: 6
#     Node 18, Type 0, BuildingBlock: IZENUY_clean_sbu_0, # of connection points: 6
#     Node 19, Type 0, BuildingBlock: IZENUY_clean_sbu_0, # of connection points: 6
#     Node 20, Type 0, BuildingBlock: IZENUY_clean_sbu_0, # of connection points: 6
#     Node 21, Type 0, BuildingBlock: IZENUY_clean_sbu_0, # of connection points: 6
#     Node 22, Type 0, BuildingBlock: IZENUY_clean_sbu_0, # of connection points: 6
#     Node 23, Type 0, BuildingBlock: IZENUY_clean_sbu_0, # of connection points: 6
#     Edge 24, Type (0, 0), BuildingBlock: UVAHIK_clean_linker_0, # of connection points: 2
#     Edge 25, Type (0, 0), BuildingBlock: UVAHIK_clean_linker_0, # of connection points: 2
#     Edge 26, Type (0, 0), BuildingBlock: UVAHIK_clean_linker_0, # of connection points: 2
#     Edge 27, Type (0, 0), BuildingBlock: UVAHIK_clean_linker_0, # of connection points: 2
#     Edge 28, Type (0, 0), BuildingBlock: UVAHIK_clean_linker_0, # of connection points: 2
#     Edge 29, Type (0, 0), BuildingBlock: UVAHIK_clean_linker_0, # of connection points: 2
#     Edge 30, Type (0, 0), BuildingBlock: UVAHIK_clean_linker_0, # of connection points: 2
#     Edge 31, Type (0, 0), BuildingBlock: UVAHIK_clean_linker_0, # of connection points: 2
#     Edge 32, Type (0, 0), BuildingBlock: UVAHIK_clean_linker_0, # of connection points: 2
#     Edge 33, Type (0, 0), BuildingBlock: UVAHIK_clean_linker_0, # of connection points: 2
#     Edge 34, Type (0, 0), BuildingBlock: UVAHIK_clean_linker_0, # of connection points: 2
#     Edge 35, Type (0, 0), BuildingBlock: UVAHIK_clean_linker_0, # of connection points: 2
#     Edge 36, Type (0, 0), BuildingBlock: UVAHIK_clean_linker_0, # of connection points: 2
#     Edge 37, Type (0, 0), BuildingBlock: UVAHIK_clean_linker_0, # of connection points: 2
#     Edge 38, Type (0, 0), BuildingBlock: UVAHIK_clean_linker_0, # of connection points: 2
#     Edge 39, Type (0, 0), BuildingBlock: UVAHIK_clean_linker_0, # of connection points: 2
#     Edge 40, Type (0, 0), BuildingBlock: UVAHIK_clean_linker_0, # of connection points: 2
#     Edge 41, Type (0, 0), BuildingBlock: UVAHIK_clean_linker_0, # of connection points: 2
#     Edge 42, Type (0, 0), BuildingBlock: UVAHIK_clean_linker_0, # of connection points: 2
#     Edge 43, Type (0, 0), BuildingBlock: UVAHIK_clean_linker_0, # of connection points: 2
#     Edge 44, Type (0, 0), BuildingBlock: UVAHIK_clean_linker_0, # of connection points: 2
#     Edge 45, Type (0, 0), BuildingBlock: UVAHIK_clean_linker_0, # of connection points: 2
#     Edge 46, Type (0, 0), BuildingBlock: UVAHIK_clean_linker_0, # of connection points: 2
#     Edge 47, Type (0, 0), BuildingBlock: UVAHIK_clean_linker_0, # of connection points: 2
#     Edge 48, Type (0, 0), BuildingBlock: UVAHIK_clean_linker_0, # of connection points: 2
#     Edge 49, Type (0, 0), BuildingBlock: UVAHIK_clean_linker_0, # of connection points: 2
#     Edge 50, Type (0, 0), BuildingBlock: UVAHIK_clean_linker_0, # of connection points: 2
#     Edge 51, Type (0, 0), BuildingBlock: UVAHIK_clean_linker_0, # of connection points: 2
#     Edge 52, Type (0, 0), BuildingBlock: UVAHIK_clean_linker_0, # of connection points: 2
#     Edge 53, Type (0, 0), BuildingBlock: UVAHIK_clean_linker_0, # of connection points: 2
#     Edge 54, Type (0, 0), BuildingBlock: UVAHIK_clean_linker_0, # of connection points: 2
#     Edge 55, Type (0, 0), BuildingBlock: UVAHIK_clean_linker_0, # of connection points: 2
#     Edge 56, Type (0, 0), BuildingBlock: UVAHIK_clean_linker_0, # of connection points: 2
#     Edge 57, Type (0, 0), BuildingBlock: UVAHIK_clean_linker_0, # of connection points: 2
#     Edge 58, Type (0, 0), BuildingBlock: UVAHIK_clean_linker_0, # of connection points: 2
#     Edge 59, Type (0, 0), BuildingBlock: UVAHIK_clean_linker_0, # of connection points: 2
#     Edge 60, Type (0, 0), BuildingBlock: UVAHIK_clean_linker_0, # of connection points: 2
#     Edge 61, Type (0, 0), BuildingBlock: UVAHIK_clean_linker_0, # of connection points: 2
#     Edge 62, Type (0, 0), BuildingBlock: UVAHIK_clean_linker_0, # of connection points: 2
#     Edge 63, Type (0, 0), BuildingBlock: UVAHIK_clean_linker_0, # of connection points: 2
#     Edge 64, Type (0, 0), BuildingBlock: UVAHIK_clean_linker_0, # of connection points: 2
#     Edge 65, Type (0, 0), BuildingBlock: UVAHIK_clean_linker_0, # of connection points: 2
#     Edge 66, Type (0, 0), BuildingBlock: UVAHIK_clean_linker_0, # of connection points: 2
#     Edge 67, Type (0, 0), BuildingBlock: UVAHIK_clean_linker_0, # of connection points: 2
#     Edge 68, Type (0, 0), BuildingBlock: UVAHIK_clean_linker_0, # of connection points: 2
#     Edge 69, Type (0, 0), BuildingBlock: UVAHIK_clean_linker_0, # of connection points: 2
#     Edge 70, Type (0, 0), BuildingBlock: UVAHIK_clean_linker_0, # of connection points: 2
#     Edge 71, Type (0, 0), BuildingBlock: UVAHIK_clean_linker_0, # of connection points: 2
#     Edge 72, Type (0, 0), BuildingBlock: UVAHIK_clean_linker_0, # of connection points: 2
#     Edge 73, Type (0, 0), BuildingBlock: UVAHIK_clean_linker_0, # of connection points: 2
#     Edge 74, Type (0, 0), BuildingBlock: UVAHIK_clean_linker_0, # of connection points: 2
#     Edge 75, Type (0, 0), BuildingBlock: UVAHIK_clean_linker_0, # of connection points: 2
#     Edge 76, Type (0, 0), BuildingBlock: UVAHIK_clean_linker_0, # of connection points: 2
#     Edge 77, Type (0, 0), BuildingBlock: UVAHIK_clean_linker_0, # of connection points: 2
#     Edge 78, Type (0, 0), BuildingBlock: UVAHIK_clean_linker_0, # of connection points: 2
#     Edge 79, Type (0, 0), BuildingBlock: UVAHIK_clean_linker_0, # of connection points: 2
#     Edge 80, Type (0, 0), BuildingBlock: UVAHIK_clean_linker_0, # of connection points: 2
#     Edge 81, Type (0, 0), BuildingBlock: UVAHIK_clean_linker_0, # of connection points: 2
#     Edge 82, Type (0, 0), BuildingBlock: UVAHIK_clean_linker_0, # of connection points: 2
#     Edge 83, Type (0, 0), BuildingBlock: UVAHIK_clean_linker_0, # of connection points: 2
#     Edge 84, Type (0, 0), BuildingBlock: UVAHIK_clean_linker_0, # of connection points: 2
#     Edge 85, Type (0, 0), BuildingBlock: UVAHIK_clean_linker_0, # of connection points: 2
#     Edge 86, Type (0, 0), BuildingBlock: UVAHIK_clean_linker_0, # of connection points: 2
#     Edge 87, Type (0, 0), BuildingBlock: UVAHIK_clean_linker_0, # of connection points: 2
#     Edge 88, Type (0, 0), BuildingBlock: UVAHIK_clean_linker_0, # of connection points: 2
#     Edge 89, Type (0, 0), BuildingBlock: UVAHIK_clean_linker_0, # of connection points: 2
#     Edge 90, Type (0, 0), BuildingBlock: UVAHIK_clean_linker_0, # of connection points: 2
#     Edge 91, Type (0, 0), BuildingBlock: UVAHIK_clean_linker_0, # of connection points: 2
#     Edge 92, Type (0, 0), BuildingBlock: UVAHIK_clean_linker_0, # of connection points: 2
#     Edge 93, Type (0, 0), BuildingBlock: UVAHIK_clean_linker_0, # of connection points: 2
#     Edge 94, Type (0, 0), BuildingBlock: UVAHIK_clean_linker_0, # of connection points: 2
#     Edge 95, Type (0, 0), BuildingBlock: UVAHIK_clean_linker_0, # of connection points: 2
# Relax obj value: 0.307
# Max RMSD: 0.230
# Mean RMSD: 0.230
data_MOF--net-sxe--node1-IZENUY_clean_sbu_0--edge1-UVAHIK_clean_linker_0
_symmetry_space_group_name_H-M    P1
_symmetry_Int_Tables_number       1
_symmetry_cell_setting            triclinic
loop_
_symmetry_equiv_pos_as_xyz
'x, y, z'
_cell_length_a     60.544621
_cell_length_b     60.548806
_cell_length_c     60.538664
_cell_angle_alpha  89.996922
_cell_angle_beta   89.974808
_cell_angle_gamma 89.996465
loop_
_atom_site_label
_atom_site_type_symbol
_atom_site_fract_x
_atom_site_fract_y
_atom_site_fract_z
_atom_type_partial_charge
Fe0 Fe 0.15761 0.43914 0.26094 0.0
Fe1 Fe 0.17824 0.40079 0.23525 0.0
O2 O 0.17654 0.42939 0.2408 0.0
Fe3 Fe 0.19392 0.44814 0.22651 0.0
O4 O 0.20623 0.45777 0.25215 0.0
O5 O 0.17483 0.4623 0.26978 0.0
O6 O 0.17094 0.42301 0.28255 0.0
C7 C 0.17443 0.4025 0.28142 0.0
C8 C 0.15276 0.47031 0.22859 0.0
O9 O 0.17161 0.39225 0.26345 0.0
C10 C 0.18335 0.42013 0.19278 0.0
O11 O 0.1369 0.4176 0.2558 0.0
O12 O 0.14949 0.39965 0.22691 0.0
O13 O 0.17358 0.47052 0.22639 0.0
O14 O 0.14338 0.45603 0.2406 0.0
C15 C 0.22203 0.41157 0.23464 0.0
O16 O 0.18538 0.40413 0.20607 0.0
O17 O 0.18299 0.43977 0.19977 0.0
C18 C 0.13365 0.40516 0.23929 0.0
O19 O 0.20705 0.39998 0.24331 0.0
O20 O 0.21729 0.42896 0.22405 0.0
C21 C 0.19549 0.46505 0.26845 0.0
Fe22 Fe 0.33524 0.56123 0.75777 0.0
Fe23 Fe 0.31604 0.59649 0.72703 0.0
O24 O 0.31828 0.56854 0.73502 0.0
Fe25 Fe 0.3035 0.54811 0.72021 0.0
O26 O 0.29874 0.5302 0.74436 0.0
O27 O 0.31223 0.54903 0.77231 0.0
O28 O 0.32944 0.58667 0.77341 0.0
C29 C 0.31343 0.6001 0.77184 0.0
C30 C 0.34318 0.52736 0.72648 0.0
O31 O 0.3043 0.60373 0.75347 0.0
C32 C 0.31882 0.5773 0.68663 0.0
O33 O 0.35971 0.57306 0.745 0.0
O34 O 0.34383 0.60428 0.7359 0.0
O35 O 0.3288 0.53402 0.71302 0.0
O36 O 0.34371 0.53445 0.74617 0.0
C37 C 0.27253 0.58059 0.72052 0.0
O38 O 0.3275 0.59066 0.70006 0.0
O39 O 0.30578 0.56232 0.69339 0.0
C40 C 0.36108 0.5929 0.73884 0.0
O41 O 0.28785 0.5942 0.71655 0.0
O42 O 0.27697 0.56105 0.72622 0.0
C43 C 0.2998 0.5341 0.76491 0.0
Fe44 Fe 0.69754 0.04833 0.77634 0.0
Fe45 Fe 0.66442 0.06116 0.73998 0.0
O46 O 0.68203 0.06872 0.76214 0.0
Fe47 Fe 0.68437 0.09669 0.77006 0.0
O48 O 0.71329 0.09462 0.77855 0.0
O49 O 0.72356 0.06121 0.76879 0.0
O50 O 0.7011 0.03023 0.75223 0.0
C51 C 0.69998 0.03453 0.7318 0.0
C52 C 0.68365 0.07711 0.81049 0.0
O53 O 0.68721 0.04934 0.72477 0.0
C54 C 0.6388 0.09243 0.75999 0.0
O55 O 0.67261 0.03434 0.7848 0.0
O56 O 0.65673 0.03427 0.75209 0.0
O57 O 0.67452 0.09074 0.79766 0.0
O58 O 0.69677 0.0626 0.80308 0.0
C59 C 0.68489 0.10047 0.72504 0.0
O60 O 0.64023 0.0727 0.75347 0.0
O61 O 0.65595 0.10401 0.76283 0.0
C62 C 0.65793 0.02733 0.77184 0.0
O63 O 0.66922 0.0866 0.72394 0.0
O64 O 0.69448 0.10429 0.74309 0.0
C65 C 0.72815 0.08113 0.77272 0.0
Fe66 Fe 0.83263 0.93589 0.24228 0.0
Fe67 Fe 0.81443 0.90072 0.2739 0.0
O68 O 0.8158 0.92856 0.26515 0.0
Fe69 Fe 0.8002 0.94879 0.27945 0.0
O70 O 0.79498 0.96613 0.25513 0.0
O71 O 0.80953 0.94773 0.22748 0.0
O72 O 0.82705 0.91018 0.227 0.0
C73 C 0.81168 0.89605 0.22913 0.0
C74 C 0.83943 0.97059 0.27319 0.0
O75 O 0.80286 0.89246 0.24769 0.0
C76 C 0.81704 0.92143 0.31361 0.0
O77 O 0.85737 0.92459 0.25497 0.0
O78 O 0.84233 0.89331 0.26501 0.0
O79 O 0.82477 0.96403 0.28642 0.0
O80 O 0.84086 0.9628 0.25378 0.0
C81 C 0.7704 0.91529 0.27986 0.0
O82 O 0.82588 0.90769 0.30064 0.0
O83 O 0.80297 0.93527 0.30653 0.0
C84 C 0.85928 0.90485 0.26121 0.0
O85 O 0.78618 0.90244 0.28451 0.0
O86 O 0.77423 0.93475 0.27354 0.0
C87 C 0.79666 0.96241 0.23463 0.0
Fe88 Fe 0.22226 0.19874 0.45316 0.0
Fe89 Fe 0.25638 0.16362 0.43908 0.0
O90 O 0.23486 0.18238 0.43242 0.0
Fe91 Fe 0.22589 0.18495 0.40478 0.0
O92 O 0.21818 0.21408 0.40698 0.0
O93 O 0.23016 0.22433 0.43958 0.0
O94 O 0.24731 0.20157 0.46995 0.0
C95 C 0.26749 0.19889 0.46518 0.0
C96 C 0.1864 0.18563 0.42604 0.0
O97 O 0.27334 0.18541 0.45046 0.0
C98 C 0.23444 0.13905 0.40844 0.0
O99 O 0.21352 0.17448 0.46809 0.0
O100 O 0.24502 0.15638 0.4664 0.0
O101 O 0.19833 0.17586 0.41201 0.0
O102 O 0.1949 0.19869 0.44004 0.0
C103 C 0.2706 0.184 0.39958 0.0
O104 O 0.24113 0.14028 0.4281 0.0
O105 O 0.2321 0.15636 0.39699 0.0
C106 C 0.22592 0.15908 0.47462 0.0
O107 O 0.2715 0.16783 0.41289 0.0
O108 O 0.25285 0.19437 0.39639 0.0
C109 C 0.22515 0.22891 0.41991 0.0
Fe110 Fe 0.27508 0.82142 0.90295 0.0
Fe111 Fe 0.28097 0.80557 0.95071 0.0
O112 O 0.26784 0.82308 0.93121 0.0
Fe113 Fe 0.24717 0.84199 0.93979 0.0
O114 O 0.22659 0.82891 0.92212 0.0
O115 O 0.2476 0.82837 0.89266 0.0
O116 O 0.26673 0.79279 0.9017 0.0
C117 C 0.27432 0.77768 0.91382 0.0
C118 C 0.27137 0.86595 0.90756 0.0
O119 O 0.28437 0.78223 0.93159 0.0
C120 C 0.27742 0.84661 0.97306 0.0
O121 O 0.30391 0.81407 0.908 0.0
O122 O 0.30814 0.8165 0.94394 0.0
O123 O 0.25404 0.86286 0.91889 0.0
O124 O 0.28372 0.85003 0.9023 0.0
C125 C 0.23809 0.80394 0.96519 0.0
O126 O 0.27984 0.82581 0.97319 0.0
O127 O 0.26633 0.85601 0.9581 0.0
C128 C 0.31619 0.81661 0.9247 0.0
O129 O 0.25484 0.7933 0.95884 0.0
O130 O 0.23667 0.82456 0.96216 0.0
C131 C 0.22903 0.82553 0.90171 0.0
Fe132 Fe 0.72332 0.30105 0.54416 0.0
Fe133 Fe 0.75684 0.33729 0.5569 0.0
O134 O 0.73564 0.31841 0.56429 0.0
Fe135 Fe 0.7267 0.31664 0.59202 0.0
O136 O 0.7197 0.28728 0.59085 0.0
O137 O 0.73182 0.27615 0.55856 0.0
O138 O 0.74834 0.29817 0.52718 0.0
C139 C 0.76847 0.30146 0.53173 0.0
C140 C 0.68721 0.31429 0.57096 0.0
O141 O 0.77399 0.31541 0.5461 0.0
C142 C 0.73459 0.3625 0.58691 0.0
O143 O 0.71401 0.32457 0.52853 0.0
O144 O 0.74505 0.34356 0.52947 0.0
O145 O 0.69898 0.32487 0.5845 0.0
O146 O 0.69597 0.30091 0.55741 0.0
C147 C 0.7715 0.31852 0.59719 0.0
O148 O 0.74153 0.3609 0.56736 0.0
O149 O 0.73227 0.3455 0.59877 0.0
C150 C 0.72601 0.34001 0.5214 0.0
O151 O 0.77228 0.33397 0.58301 0.0
O152 O 0.7538 0.3082 0.60083 0.0
C153 C 0.72698 0.27219 0.5784 0.0
Fe154 Fe 0.77757 0.69016 0.04788 0.0
Fe155 Fe 0.74272 0.65482 0.05892 0.0
O156 O 0.76488 0.67213 0.06719 0.0
Fe157 Fe 0.77397 0.67139 0.0949 0.0
O158 O 0.76773 0.70031 0.09864 0.0
O159 O 0.783 0.71229 0.06792 0.0
O160 O 0.75156 0.70383 0.042 0.0
C161 C 0.73436 0.6942 0.03538 0.0
C162 C 0.81379 0.67581 0.07074 0.0
O163 O 0.73225 0.67354 0.03757 0.0
C164 C 0.76674 0.62762 0.08851 0.0
O165 O 0.77439 0.67091 0.02467 0.0
O166 O 0.76038 0.64066 0.03936 0.0
O167 O 0.80287 0.67713 0.08848 0.0
O168 O 0.80465 0.67814 0.0522 0.0
C169 C 0.72777 0.67031 0.09852 0.0
O170 O 0.74898 0.63268 0.07869 0.0
O171 O 0.78075 0.6423 0.09306 0.0
C172 C 0.77154 0.65014 0.02449 0.0
O173 O 0.72392 0.66833 0.07812 0.0
O174 O 0.7466 0.66568 0.1063 0.0
C175 C 0.77483 0.71591 0.08684 0.0
Fe176 Fe 0.44415 0.22264 0.18823 0.0
Fe177 Fe 0.43539 0.25602 0.15102 0.0
O178 O 0.42571 0.23558 0.16955 0.0
Fe179 Fe 0.39749 0.22828 0.16931 0.0
O180 O 0.39418 0.2365 0.1978 0.0
O181 O 0.42367 0.21948 0.21047 0.0
O182 O 0.4516 0.24889 0.20073 0.0
C183 C 0.45881 0.26531 0.19015 0.0
C184 C 0.41895 0.1873 0.17579 0.0
O185 O 0.45711 0.26622 0.16936 0.0
C186 C 0.40432 0.23227 0.1252 0.0
O187 O 0.46766 0.22352 0.16914 0.0
O188 O 0.45396 0.23644 0.13801 0.0
O189 O 0.40208 0.19952 0.17708 0.0
O190 O 0.43809 0.19541 0.17714 0.0
C191 C 0.3967 0.27446 0.16479 0.0
O192 O 0.41537 0.24961 0.12911 0.0
O193 O 0.39896 0.21952 0.14075 0.0
C194 C 0.46821 0.22517 0.14826 0.0
O195 O 0.41736 0.27668 0.16332 0.0
O196 O 0.38774 0.25586 0.16162 0.0
C197 C 0.40523 0.22888 0.21371 0.0
Fe198 Fe 0.94978 0.27435 0.80186 0.0
Fe199 Fe 0.93889 0.23874 0.83629 0.0
O200 O 0.93007 0.25974 0.8179 0.0
Fe201 Fe 0.90167 0.26594 0.81542 0.0
O202 O 0.90189 0.25964 0.7862 0.0
O203 O 0.93151 0.27883 0.77808 0.0
O204 O 0.95891 0.2491 0.78851 0.0
C205 C 0.9655 0.23221 0.79877 0.0
C206 C 0.9224 0.30798 0.81413 0.0
O207 O 0.96249 0.23035 0.81937 0.0
C208 C 0.90425 0.25957 0.85994 0.0
O209 O 0.97156 0.27274 0.82281 0.0
O210 O 0.95533 0.25833 0.85191 0.0
O211 O 0.90603 0.29547 0.81044 0.0
O212 O 0.94184 0.3005 0.81408 0.0
C213 C 0.90266 0.21941 0.81739 0.0
O214 O 0.91679 0.24321 0.85648 0.0
O215 O 0.89923 0.27259 0.8445 0.0
C216 C 0.97012 0.27042 0.84355 0.0
O217 O 0.92299 0.21792 0.8217 0.0
O218 O 0.89246 0.23749 0.81986 0.0
C219 C 0.9141 0.26893 0.77216 0.0
Fe220 Fe 0.59671 0.73239 0.31952 0.0
Fe221 Fe 0.54991 0.72277 0.30276 0.0
O222 O 0.56794 0.73713 0.32084 0.0
Fe223 Fe 0.55726 0.75635 0.3401 0.0
O224 O 0.57327 0.77879 0.32815 0.0
O225 O 0.60458 0.76054 0.32737 0.0
O226 O 0.5977 0.74139 0.29105 0.0
C227 C 0.58695 0.73243 0.27564 0.0
C228 C 0.59126 0.73459 0.36408 0.0
O229 O 0.56977 0.72121 0.27979 0.0
C230 C 0.52652 0.72347 0.3433 0.0
O231 O 0.59416 0.70334 0.31147 0.0
O232 O 0.55866 0.69618 0.3136 0.0
O233 O 0.57826 0.75077 0.36131 0.0
O234 O 0.59765 0.72314 0.34792 0.0
C235 C 0.53218 0.76428 0.3016 0.0
O236 O 0.52686 0.7217 0.32245 0.0
O237 O 0.54052 0.73529 0.35321 0.0
C238 C 0.57846 0.6897 0.31362 0.0
O239 O 0.54003 0.74836 0.29071 0.0
O240 O 0.53448 0.76531 0.32236 0.0
C241 C 0.59398 0.77849 0.32615 0.0
Fe242 Fe 0.04981 0.77257 0.69979 0.0
Fe243 Fe 0.05821 0.73851 0.66315 0.0
O244 O 0.06832 0.75873 0.68172 0.0
Fe245 Fe 0.09688 0.7649 0.68234 0.0
O246 O 0.09889 0.75742 0.71123 0.0
O247 O 0.06982 0.77597 0.72238 0.0
O248 O 0.04156 0.74673 0.71267 0.0
C249 C 0.03435 0.73023 0.70219 0.0
C250 C 0.0763 0.8068 0.6869 0.0
O251 O 0.03603 0.72915 0.6814 0.0
C252 C 0.09121 0.76039 0.63791 0.0
O253 O 0.02645 0.77183 0.68043 0.0
O254 O 0.04044 0.75853 0.64968 0.0
O255 O 0.0929 0.7942 0.68888 0.0
O256 O 0.0569 0.79929 0.68821 0.0
C257 C 0.0959 0.71837 0.67759 0.0
O258 O 0.07872 0.74402 0.6415 0.0
O259 O 0.09713 0.77283 0.6535 0.0
C260 C 0.02592 0.76974 0.6596 0.0
O261 O 0.07523 0.7172 0.67556 0.0
O262 O 0.10587 0.73668 0.67583 0.0
C263 C 0.08779 0.76612 0.72654 0.0
Fe264 Fe 0.81881 0.59139 0.77418 0.0
Fe265 Fe 0.83663 0.55638 0.74215 0.0
O266 O 0.81961 0.56376 0.76483 0.0
Fe267 Fe 0.80326 0.54358 0.77834 0.0
O268 O 0.77785 0.55807 0.77153 0.0
O269 O 0.78999 0.59022 0.78315 0.0
O270 O 0.80858 0.6007 0.74787 0.0
C271 C 0.81746 0.5971 0.7294 0.0
C272 C 0.81916 0.56984 0.81353 0.0
O273 O 0.83247 0.58262 0.72726 0.0
C274 C 0.84227 0.52147 0.7728 0.0
O275 O 0.84734 0.59791 0.76667 0.0
O276 O 0.86139 0.5664 0.75574 0.0
O277 O 0.80493 0.55669 0.80562 0.0
O278 O 0.82892 0.58351 0.8012 0.0
C279 C 0.80016 0.53124 0.73329 0.0
O280 O 0.84352 0.52888 0.75323 0.0
O281 O 0.82759 0.52817 0.78596 0.0
C282 C 0.86388 0.58574 0.76296 0.0
O283 O 0.81335 0.54587 0.72667 0.0
O284 O 0.7987 0.52658 0.75362 0.0
C285 C 0.77442 0.57802 0.77647 0.0
Fe286 Fe 0.69269 0.44655 0.27267 0.0
Fe287 Fe 0.67233 0.4011 0.26287 0.0
O288 O 0.67429 0.42972 0.2573 0.0
Fe289 Fe 0.65799 0.44147 0.23601 0.0
O290 O 0.67812 0.46274 0.22848 0.0
O291 O 0.70755 0.45461 0.24793 0.0
O292 O 0.71366 0.42499 0.27647 0.0
C293 C 0.71698 0.40696 0.2664 0.0
C294 C 0.65418 0.47277 0.26819 0.0
O295 O 0.70135 0.39697 0.25696 0.0
C296 C 0.62898 0.41012 0.25555 0.0
O297 O 0.67945 0.43963 0.29856 0.0
O298 O 0.67753 0.40384 0.2926 0.0
O299 O 0.64429 0.45968 0.25535 0.0
O300 O 0.67475 0.47099 0.27178 0.0
C301 C 0.67099 0.40321 0.21617 0.0
O302 O 0.64314 0.40318 0.26912 0.0
O303 O 0.63473 0.42228 0.23952 0.0
C304 C 0.67678 0.42022 0.30558 0.0
O305 O 0.66685 0.3932 0.23407 0.0
O306 O 0.67086 0.42401 0.21531 0.0
C307 C 0.69882 0.4632 0.23112 0.0
Fe308 Fe 0.30254 0.95322 0.2211 0.0
Fe309 Fe 0.31911 0.90589 0.22915 0.0
O310 O 0.31946 0.93434 0.23583 0.0
Fe311 Fe 0.33672 0.94384 0.2575 0.0
O312 O 0.31847 0.96632 0.26593 0.0
O313 O 0.2884 0.96186 0.24617 0.0
O314 O 0.2798 0.9336 0.21663 0.0
C315 C 0.27509 0.91551 0.22604 0.0
C316 C 0.34317 0.97561 0.22617 0.0
O317 O 0.28988 0.90397 0.23506 0.0
C318 C 0.3631 0.91127 0.23651 0.0
O319 O 0.31525 0.94609 0.19497 0.0
O320 O 0.31411 0.91011 0.19957 0.0
O321 O 0.35186 0.96156 0.23882 0.0
O322 O 0.32252 0.97593 0.22271 0.0
C323 C 0.32088 0.90599 0.27591 0.0
O324 O 0.3484 0.90576 0.22284 0.0
O325 O 0.35828 0.92305 0.2531 0.0
C326 C 0.31661 0.92682 0.18725 0.0
O327 O 0.32401 0.89646 0.25755 0.0
O328 O 0.32254 0.92667 0.27759 0.0
C329 C 0.29792 0.96879 0.26334 0.0
Fe330 Fe 0.17757 0.09323 0.73005 0.0
Fe331 Fe 0.16066 0.05455 0.75779 0.0
O332 O 0.17829 0.06485 0.73685 0.0
Fe333 Fe 0.19676 0.04676 0.72302 0.0
O334 O 0.21853 0.06746 0.71912 0.0
O335 O 0.20643 0.09658 0.73708 0.0
O336 O 0.17108 0.10254 0.75817 0.0
C337 C 0.1739 0.09327 0.77671 0.0
C338 C 0.1827 0.07216 0.68848 0.0
O339 O 0.17311 0.07251 0.77847 0.0
C340 C 0.15728 0.0218 0.72702 0.0
O341 O 0.14864 0.09192 0.72256 0.0
O342 O 0.13828 0.07426 0.75245 0.0
O343 O 0.18483 0.05294 0.69623 0.0
O344 O 0.18388 0.08901 0.70079 0.0
C345 C 0.20041 0.03143 0.76528 0.0
O346 O 0.14726 0.03607 0.73845 0.0
O347 O 0.17805 0.02285 0.72434 0.0
C348 C 0.13365 0.08577 0.73562 0.0
O349 O 0.17965 0.03289 0.76699 0.0
O350 O 0.21027 0.03943 0.74879 0.0
C351 C 0.22208 0.08568 0.72872 0.0
Fe352 Fe 0.76934 0.81762 0.59664 0.0
Fe353 Fe 0.74355 0.83708 0.55776 0.0
O354 O 0.76366 0.8185 0.56801 0.0
Fe355 Fe 0.77781 0.80069 0.54958 0.0
O356 O 0.78059 0.77791 0.56932 0.0
O357 O 0.76156 0.78878 0.59822 0.0
O358 O 0.74102 0.82428 0.60515 0.0
C359 C 0.72284 0.82234 0.59501 0.0
C360 C 0.81163 0.81286 0.57691 0.0
O361 O 0.72192 0.82425 0.57427 0.0
C362 C 0.77574 0.84129 0.5265 0.0
O363 O 0.77743 0.84642 0.59714 0.0
O364 O 0.74859 0.85835 0.5787 0.0
O365 O 0.80446 0.81199 0.55736 0.0
O366 O 0.79867 0.81084 0.59322 0.0
C367 C 0.73612 0.79863 0.53252 0.0
O368 O 0.76391 0.8509 0.54073 0.0
O369 O 0.77774 0.82045 0.52657 0.0
C370 C 0.76505 0.862 0.59105 0.0
O371 O 0.73485 0.81934 0.53488 0.0
O372 O 0.75209 0.78801 0.54064 0.0
C373 C 0.77011 0.77357 0.58687 0.0
Fe374 Fe 0.72048 0.18339 0.09461 0.0
Fe375 Fe 0.75286 0.16459 0.0606 0.0
O376 O 0.72952 0.18107 0.06697 0.0
Fe377 Fe 0.7152 0.19544 0.04594 0.0
O378 O 0.7203 0.22211 0.05895 0.0
O379 O 0.70923 0.21125 0.09164 0.0
O380 O 0.7464 0.19603 0.10247 0.0
C381 C 0.76513 0.18747 0.09927 0.0
C382 C 0.68112 0.17891 0.07353 0.0
O383 O 0.76743 0.17105 0.08647 0.0
C384 C 0.72292 0.15576 0.02573 0.0
O385 O 0.72995 0.15594 0.10306 0.0
O386 O 0.7403 0.13995 0.07229 0.0
O387 O 0.68806 0.19257 0.05923 0.0
O388 O 0.69404 0.17105 0.08791 0.0
C389 C 0.76011 0.20005 0.03342 0.0
O390 O 0.74235 0.15558 0.03353 0.0
O391 O 0.709 0.16997 0.03178 0.0
C392 C 0.7338 0.13863 0.09203 0.0
O393 O 0.76727 0.18784 0.04866 0.0
O394 O 0.73973 0.20055 0.02878 0.0
C395 C 0.71376 0.22657 0.07821 0.0
Fe396 Fe 0.27887 0.69938 0.45003 0.0
Fe397 Fe 0.27356 0.68362 0.40234 0.0
O398 O 0.2645 0.68353 0.43009 0.0
Fe399 Fe 0.24111 0.66772 0.43779 0.0
O400 O 0.22679 0.69191 0.44776 0.0
O401 O 0.25433 0.70561 0.46692 0.0
O402 O 0.27361 0.72496 0.43516 0.0
C403 C 0.2798 0.72806 0.4155 0.0
C404 C 0.2711 0.66143 0.47321 0.0
O405 O 0.28434 0.71185 0.40312 0.0
C406 C 0.26042 0.63918 0.40877 0.0
O407 O 0.30606 0.69583 0.43692 0.0
O408 O 0.30013 0.6722 0.41 0.0
O409 O 0.25164 0.66092 0.4655 0.0
O410 O 0.28516 0.67495 0.46597 0.0
C411 C 0.22887 0.68682 0.39692 0.0
O412 O 0.26448 0.65542 0.39627 0.0
O413 O 0.25365 0.64224 0.42822 0.0
C414 C 0.31312 0.68141 0.42345 0.0
O415 O 0.24759 0.69516 0.39318 0.0
O416 O 0.22644 0.67197 0.41151 0.0
C417 C 0.23392 0.70491 0.46233 0.0
Fe418 Fe 0.21484 0.31838 0.90362 0.0
Fe419 Fe 0.24896 0.33476 0.93728 0.0
O420 O 0.22524 0.31874 0.93091 0.0
Fe421 Fe 0.21186 0.3029 0.95159 0.0
O422 O 0.21619 0.2772 0.93642 0.0
O423 O 0.20387 0.29027 0.90503 0.0
O424 O 0.24037 0.30667 0.89333 0.0
C425 C 0.25925 0.3151 0.8961 0.0
C426 C 0.17644 0.32107 0.92682 0.0
O427 O 0.26236 0.33005 0.91044 0.0
C428 C 0.22087 0.34103 0.97442 0.0
O429 O 0.22375 0.34635 0.89673 0.0
O430 O 0.23608 0.36022 0.9278 0.0
O431 O 0.18411 0.30668 0.93997 0.0
O432 O 0.18871 0.33001 0.9125 0.0
C433 C 0.25726 0.29731 0.96145 0.0
O434 O 0.2397 0.34198 0.96529 0.0
O435 O 0.20657 0.32726 0.96811 0.0
C436 C 0.22855 0.36285 0.90856 0.0
O437 O 0.26386 0.31078 0.94704 0.0
O438 O 0.23713 0.29645 0.96697 0.0
C439 C 0.20906 0.27406 0.9171 0.0
Fe440 Fe 0.56378 0.74135 0.83542 0.0
Fe441 Fe 0.55172 0.77892 0.80332 0.0
O442 O 0.5717 0.76422 0.81885 0.0
Fe443 Fe 0.59971 0.77244 0.8177 0.0
O444 O 0.60771 0.74594 0.80649 0.0
O445 O 0.58942 0.72577 0.83058 0.0
O446 O 0.55247 0.72685 0.81191 0.0
C447 C 0.53788 0.73427 0.79911 0.0
C448 C 0.59425 0.76048 0.86259 0.0
O449 O 0.53404 0.7548 0.79802 0.0
C450 C 0.5799 0.8127 0.81965 0.0
O451 O 0.53668 0.75291 0.843 0.0
O452 O 0.53668 0.78607 0.82812 0.0
O453 O 0.60636 0.76385 0.84591 0.0
O454 O 0.57461 0.75398 0.86034 0.0
C455 C 0.5854 0.77853 0.77351 0.0
O456 O 0.56563 0.80576 0.80599 0.0
O457 O 0.5933 0.79953 0.82868 0.0
C458 C 0.52958 0.7726 0.84231 0.0
O459 O 0.56568 0.77291 0.77729 0.0
O460 O 0.59844 0.78264 0.78929 0.0
C461 C 0.60365 0.72749 0.8153 0.0
Fe462 Fe 0.04899 0.71886 0.19286 0.0
Fe463 Fe 0.09672 0.72372 0.17716 0.0
O464 O 0.06881 0.73234 0.17601 0.0
Fe465 Fe 0.06083 0.75428 0.15828 0.0
O466 O 0.04951 0.77018 0.18098 0.0
O467 O 0.03123 0.74311 0.19657 0.0
O468 O 0.06329 0.72697 0.21799 0.0
C469 C 0.08334 0.72264 0.22162 0.0
C470 C 0.02651 0.72245 0.15382 0.0
O471 O 0.09575 0.71576 0.20628 0.0
C472 C 0.09113 0.73387 0.13172 0.0
O473 O 0.06286 0.69191 0.19217 0.0
O474 O 0.08961 0.69606 0.16804 0.0
O475 O 0.03378 0.742 0.15148 0.0
O476 O 0.0337 0.71001 0.1689 0.0
C477 C 0.10127 0.76875 0.17708 0.0
O478 O 0.10316 0.73045 0.14841 0.0
O479 O 0.07152 0.74043 0.13396 0.0
C480 C 0.0763 0.68375 0.17835 0.0
O481 O 0.10536 0.75063 0.18647 0.0
O482 O 0.08654 0.77017 0.16222 0.0
C483 C 0.03499 0.76352 0.19428 0.0
Fe484 Fe 0.40399 0.27596 0.67967 0.0
Fe485 Fe 0.43947 0.24345 0.66369 0.0
O486 O 0.43156 0.26638 0.68019 0.0
Fe487 Fe 0.45109 0.27985 0.69746 0.0
O488 O 0.43528 0.27328 0.72223 0.0
O489 O 0.40386 0.28503 0.70841 0.0
O490 O 0.39385 0.24978 0.68947 0.0
C491 C 0.39759 0.23122 0.68084 0.0
C492 C 0.42557 0.31523 0.6804 0.0
O493 O 0.41304 0.22867 0.6669 0.0
C494 C 0.47509 0.27375 0.6596 0.0
O495 O 0.39876 0.26848 0.65097 0.0
O496 O 0.43055 0.25667 0.63829 0.0
O497 O 0.4383 0.3073 0.695 0.0
O498 O 0.41252 0.30287 0.6699 0.0
C499 C 0.46322 0.23474 0.70117 0.0
O500 O 0.46717 0.25442 0.65781 0.0
O501 O 0.46793 0.28711 0.67392 0.0
C502 C 0.41151 0.26434 0.63501 0.0
O503 O 0.44902 0.22813 0.68753 0.0
O504 O 0.46766 0.25508 0.70294 0.0
C505 C 0.41519 0.27826 0.72457 0.0
Fe506 Fe 0.95061 0.2163 0.29973 0.0
Fe507 Fe 0.90382 0.21759 0.31827 0.0
O508 O 0.93075 0.22881 0.31724 0.0
Fe509 Fe 0.93763 0.2523 0.3333 0.0
O510 O 0.94645 0.26787 0.30927 0.0
O511 O 0.96597 0.24162 0.29383 0.0
O512 O 0.93397 0.22217 0.27536 0.0
C513 C 0.91434 0.21547 0.27327 0.0
C514 C 0.97464 0.22365 0.33733 0.0
O515 O 0.90407 0.20776 0.28973 0.0
C516 C 0.91062 0.23098 0.3626 0.0
O517 O 0.93923 0.18833 0.30256 0.0
O518 O 0.91418 0.19142 0.32857 0.0
O519 O 0.96582 0.2426 0.33924 0.0
O520 O 0.96811 0.21 0.32299 0.0
C521 C 0.89511 0.26194 0.31595 0.0
O522 O 0.89817 0.22557 0.3468 0.0
O523 O 0.92942 0.23904 0.35892 0.0
C524 C 0.92763 0.17973 0.31773 0.0
O525 O 0.89214 0.24294 0.30793 0.0
O526 O 0.91045 0.26562 0.32979 0.0
C527 C 0.96069 0.26172 0.29544 0.0
C528 C 0.19747 0.47924 0.30694 0.0
C529 C 0.20651 0.4784 0.2856 0.0
C530 C 0.2066 0.49295 0.32301 0.0
C531 C 0.25515 0.52866 0.33613 0.0
H532 H 0.21189 0.55981 0.37168 0.0
C533 C 0.26979 0.61287 0.37838 0.0
C534 C 0.25989 0.61677 0.39903 0.0
C535 C 0.26656 0.59285 0.36741 0.0
C536 C 0.22424 0.55097 0.36221 0.0
H537 H 0.23272 0.4906 0.26451 0.0
H538 H 0.24824 0.51539 0.29235 0.0
H539 H 0.19981 0.53104 0.34661 0.0
H540 H 0.24006 0.60214 0.42505 0.0
H541 H 0.23426 0.56717 0.40575 0.0
H542 H 0.27943 0.54965 0.35116 0.0
C543 C 0.23436 0.50505 0.29686 0.0
C544 C 0.21733 0.5344 0.34779 0.0
C545 C 0.22541 0.49097 0.28084 0.0
C546 C 0.24782 0.5997 0.40911 0.0
C547 C 0.24441 0.57972 0.39803 0.0
C548 C 0.26205 0.54546 0.35044 0.0
C549 C 0.22477 0.50654 0.31803 0.0
C550 C 0.23263 0.52315 0.33439 0.0
C551 C 0.25323 0.57636 0.3768 0.0
C552 C 0.24661 0.55693 0.36345 0.0
H553 H 0.18315 0.46937 0.31119 0.0
H554 H 0.19916 0.49314 0.33927 0.0
H555 H 0.26744 0.52013 0.32632 0.0
H556 H 0.27937 0.62563 0.37026 0.0
H557 H 0.27346 0.5908 0.35103 0.0
C558 C 0.24331 0.40159 0.90545 0.0
C559 C 0.22927 0.38477 0.89775 0.0
C560 C 0.24716 0.42041 0.89251 0.0
C561 C 0.24837 0.4351 0.83403 0.0
H562 H 0.25595 0.49527 0.85448 0.0
C563 C 0.27238 0.50417 0.77343 0.0
C564 C 0.28818 0.51949 0.78077 0.0
C565 C 0.26235 0.48964 0.78833 0.0
C566 C 0.25407 0.47851 0.84853 0.0
H567 H 0.20667 0.37546 0.87155 0.0
H568 H 0.21322 0.40821 0.84924 0.0
H569 H 0.24324 0.46684 0.88024 0.0
H570 H 0.30542 0.53189 0.80967 0.0
H571 H 0.28849 0.50619 0.83541 0.0
H572 H 0.25988 0.44629 0.80265 0.0
C573 C 0.22167 0.40667 0.86494 0.0
C574 C 0.24673 0.46227 0.8633 0.0
C575 C 0.21786 0.38795 0.87778 0.0
C576 C 0.29331 0.5203 0.80342 0.0
C577 C 0.28345 0.50564 0.81826 0.0
C578 C 0.25586 0.45122 0.81937 0.0
C579 C 0.237 0.42269 0.87172 0.0
C580 C 0.24384 0.44039 0.85618 0.0
C581 C 0.26805 0.48991 0.81088 0.0
C582 C 0.2589 0.47313 0.82641 0.0
H583 H 0.25234 0.39963 0.92076 0.0
H584 H 0.25907 0.4325 0.89816 0.0
H585 H 0.24676 0.41829 0.82814 0.0
H586 H 0.26787 0.50328 0.75615 0.0
H587 H 0.25023 0.47806 0.78211 0.0
C588 C 0.77566 0.8857 0.62319 0.0
C589 C 0.76682 0.88377 0.60183 0.0
C590 C 0.77322 0.90534 0.63508 0.0
C591 C 0.7347 0.95221 0.63718 0.0
H592 H 0.77356 0.97295 0.68365 0.0
C593 C 0.70989 0.02454 0.69291 0.0
C594 C 0.71202 0.02061 0.71571 0.0
C595 C 0.72007 0.01062 0.67763 0.0
C596 C 0.76258 0.96731 0.67071 0.0
H597 H 0.75056 0.90143 0.5753 0.0
H598 H 0.74704 0.93594 0.59566 0.0
H599 H 0.78623 0.94402 0.65842 0.0
H600 H 0.72742 -0.00044 0.7403 0.0
H601 H 0.74502 0.97511 0.71353 0.0
H602 H 0.71094 0.97511 0.64961 0.0
C603 C 0.75507 0.92208 0.60362 0.0
C604 C 0.7698 0.95075 0.65629 0.0
C605 C 0.75721 0.90237 0.59189 0.0
C606 C 0.72531 0.00296 0.72287 0.0
C607 C 0.73555 0.98906 0.70754 0.0
C608 C 0.72758 0.9688 0.65144 0.0
C609 C 0.76214 0.9235 0.6257 0.0
C610 C 0.75579 0.94276 0.63955 0.0
C611 C 0.73267 0.9925 0.68477 0.0
C612 C 0.74128 0.9763 0.66856 0.0
H613 H 0.78314 0.8716 0.63129 0.0
H614 H 0.77877 0.90576 0.65207 0.0
H615 H 0.72322 0.94616 0.62487 0.0
H616 H 0.69999 0.03814 0.68681 0.0
H617 H 0.71781 0.01384 0.66017 0.0
C618 C 0.79044 0.97633 0.19605 0.0
C619 C 0.78536 0.97721 0.21872 0.0
C620 C 0.7814 0.99171 0.18137 0.0
C621 C 0.7583 0.04798 0.18136 0.0
H622 H 0.74283 0.0346 0.12064 0.0
C623 C 0.72446 0.11544 0.12479 0.0
C624 C 0.73434 0.11722 0.10385 0.0
C625 C 0.72751 0.09658 0.13766 0.0
C626 C 0.74718 0.03858 0.13753 0.0
H627 H 0.76576 0.99416 0.24347 0.0
H628 H 0.7497 0.02066 0.21785 0.0
H629 H 0.75377 0.00473 0.14559 0.0
H630 H 0.75407 0.09995 0.07943 0.0
H631 H 0.75964 0.06698 0.10211 0.0
H632 H 0.75208 0.08175 0.17338 0.0
C633 C 0.76112 0.00845 0.21149 0.0
C634 C 0.75346 0.02149 0.15182 0.0
C635 C 0.77025 0.99317 0.22618 0.0
C636 C 0.74626 0.09911 0.09551 0.0
C637 C 0.74941 0.0802 0.10849 0.0
C638 C 0.75199 0.06498 0.16715 0.0
C639 C 0.76697 0.00824 0.18899 0.0
C640 C 0.75918 0.02602 0.1739 0.0
C641 C 0.74061 0.07904 0.12998 0.0
C642 C 0.74641 0.06053 0.14506 0.0
H643 H 0.80199 0.96423 0.18971 0.0
H644 H 0.78642 0.99115 0.16421 0.0
H645 H 0.76309 0.05219 0.19807 0.0
H646 H 0.71487 0.12895 0.13158 0.0
H647 H 0.72006 0.09599 0.15392 0.0
C648 C 0.38374 0.27834 0.60824 0.0
C649 C 0.40217 0.26494 0.61251 0.0
C650 C 0.37169 0.27578 0.58881 0.0
C651 C 0.36958 0.2486 0.53396 0.0
H652 H 0.3076 0.24206 0.54877 0.0
C653 C 0.30653 0.20286 0.47844 0.0
C654 C 0.28451 0.21025 0.47847 0.0
C655 C 0.32219 0.21268 0.49226 0.0
C656 C 0.32474 0.24426 0.54414 0.0
H657 H 0.42362 0.23966 0.59898 0.0
H658 H 0.40226 0.23487 0.56502 0.0
H659 H 0.33332 0.25455 0.57669 0.0
H660 H 0.262 0.23464 0.49194 0.0
H661 H 0.28937 0.2521 0.5156 0.0
H662 H 0.36085 0.23787 0.50136 0.0
C663 C 0.39724 0.24749 0.57667 0.0
C664 C 0.33953 0.25142 0.5602 0.0
C665 C 0.40945 0.2502 0.59612 0.0
C666 C 0.27873 0.22831 0.49183 0.0
C667 C 0.29443 0.23827 0.50544 0.0
C668 C 0.35468 0.24151 0.51775 0.0
C669 C 0.37769 0.2596 0.57331 0.0
C670 C 0.36213 0.25356 0.55538 0.0
C671 C 0.31622 0.23024 0.50624 0.0
C672 C 0.33209 0.2391 0.52274 0.0
H673 H 0.37797 0.29011 0.62044 0.0
H674 H 0.35702 0.28574 0.58642 0.0
H675 H 0.38691 0.25016 0.52977 0.0
H676 H 0.31152 0.189 0.46828 0.0
H677 H 0.33875 0.20593 0.4926 0.0
C678 C 0.12263 0.72485 0.10656 0.0
C679 C 0.10161 0.73426 0.10962 0.0
C680 C 0.13444 0.72858 0.08709 0.0
C681 C 0.14081 0.77194 0.04655 0.0
H682 H 0.17889 0.73033 0.0162 0.0
C683 C 0.19912 0.80173 0.97823 0.0
C684 C 0.22049 0.79274 0.97785 0.0
C685 C 0.18258 0.79213 0.99109 0.0
C686 C 0.16849 0.7422 0.02462 0.0
H687 H 0.07585 0.75364 0.09397 0.0
H688 H 0.09662 0.76031 0.06002 0.0
H689 H 0.15295 0.71703 0.04419 0.0
H690 H 0.24118 0.76625 0.99009 0.0
H691 H 0.21257 0.74996 0.01338 0.0
H692 H 0.15689 0.79725 0.02813 0.0
C693 C 0.10396 0.75015 0.07279 0.0
C694 C 0.15354 0.73454 0.04052 0.0
C695 C 0.09203 0.74622 0.09218 0.0
C696 C 0.22484 0.77353 0.99009 0.0
C697 C 0.20836 0.76412 0.00332 0.0
C698 C 0.15587 0.77961 0.03091 0.0
C699 C 0.12555 0.74195 0.07035 0.0
C700 C 0.1397 0.74938 0.05179 0.0
C701 C 0.18709 0.77353 0.00426 0.0
C702 C 0.17009 0.76491 0.01985 0.0
H703 H 0.1304 0.7154 0.11962 0.0
H704 H 0.15107 0.72212 0.08572 0.0
H705 H 0.13068 0.78384 0.05528 0.0
H706 H 0.19517 0.8163 0.96861 0.0
H707 H 0.16629 0.7995 0.99087 0.0
C708 C 0.88023 0.22245 0.38915 0.0
C709 C 0.90124 0.23151 0.3852 0.0
C710 C 0.86942 0.22613 0.40916 0.0
C711 C 0.86723 0.26793 0.4527 0.0
H712 H 0.82414 0.22788 0.47806 0.0
C713 C 0.80834 0.29529 0.52232 0.0
C714 C 0.78593 0.29022 0.51877 0.0
C715 C 0.82478 0.28554 0.50941 0.0
C716 C 0.83611 0.23923 0.47114 0.0
H717 H 0.92814 0.25006 0.3999 0.0
H718 H 0.90931 0.25627 0.43506 0.0
H719 H 0.84992 0.21439 0.45011 0.0
H720 H 0.76337 0.27028 0.49935 0.0
H721 H 0.79209 0.25339 0.47672 0.0
H722 H 0.85308 0.29289 0.4733 0.0
C723 C 0.90103 0.24669 0.42243 0.0
C724 C 0.85089 0.23152 0.45516 0.0
C725 C 0.91188 0.243 0.40234 0.0
C726 C 0.78043 0.27465 0.50246 0.0
C727 C 0.79691 0.26482 0.48961 0.0
C728 C 0.85254 0.2756 0.46875 0.0
C729 C 0.87938 0.23891 0.42578 0.0
C730 C 0.86623 0.24594 0.4453 0.0
C731 C 0.81924 0.27039 0.49274 0.0
C732 C 0.83646 0.26148 0.47773 0.0
H733 H 0.87161 0.21334 0.37639 0.0
H734 H 0.85271 0.22003 0.41103 0.0
H735 H 0.87857 0.2796 0.44525 0.0
H736 H 0.81321 0.30708 0.53486 0.0
H737 H 0.84186 0.28998 0.51236 0.0
C738 C 0.62338 0.77377 0.88843 0.0
C739 C 0.60461 0.7607 0.88466 0.0
C740 C 0.63532 0.77173 0.90803 0.0
C741 C 0.63519 0.74513 0.9639 0.0
H742 H 0.69852 0.74409 0.95429 0.0
C743 C 0.697 0.6969 0.018 0.0
C744 C 0.71765 0.70653 0.02249 0.0
C745 C 0.68184 0.70754 0.00426 0.0
C746 C 0.68091 0.74471 0.95739 0.0
H747 H 0.58292 0.73604 0.89887 0.0
H748 H 0.60419 0.73178 0.93277 0.0
H749 H 0.67424 0.75554 0.92457 0.0
H750 H 0.73818 0.73536 0.01687 0.0
H751 H 0.71173 0.75381 0.99256 0.0
H752 H 0.64211 0.73304 0.99648 0.0
C753 C 0.60949 0.74403 0.92087 0.0
C754 C 0.66691 0.75135 0.94034 0.0
C755 C 0.5973 0.74638 0.90138 0.0
C756 C 0.72246 0.72745 0.01364 0.0
C757 C 0.70737 0.73799 -0.00031 0.0
C758 C 0.64924 0.73822 0.9809 0.0
C759 C 0.62904 0.75622 0.92416 0.0
C760 C 0.64383 0.75134 0.94322 0.0
C761 C 0.68707 0.72795 0.99457 0.0
C762 C 0.67222 0.73763 0.97768 0.0
H763 H 0.62919 0.7852 0.87593 0.0
H764 H 0.64989 0.78186 0.91023 0.0
H765 H 0.61755 0.74526 0.96687 0.0
H766 H 0.69271 0.68088 0.02471 0.0
H767 H 0.66642 0.69931 0.00047 0.0
C768 C 0.47293 0.30383 0.1918 0.0
C769 C 0.47137 0.28284 0.20153 0.0
C770 C 0.48638 0.32004 0.20104 0.0
C771 C 0.51957 0.33531 0.25048 0.0
H772 H 0.55434 0.36662 0.20673 0.0
C773 C 0.6019 0.38132 0.26811 0.0
C774 C 0.60662 0.40019 0.2554 0.0
C775 C 0.58235 0.36949 0.26468 0.0
C776 C 0.54451 0.35837 0.2192 0.0
H777 H 0.48179 0.26267 0.22919 0.0
H778 H 0.50603 0.29087 0.24505 0.0
H779 H 0.52612 0.34097 0.19478 0.0
H780 H 0.59355 0.42265 0.23072 0.0
H781 H 0.55941 0.40221 0.225 0.0
H782 H 0.5388 0.3524 0.2749 0.0
C783 C 0.49653 0.2949 0.23045 0.0
C784 C 0.52827 0.34362 0.21234 0.0
C785 C 0.48275 0.2787 0.22132 0.0
C786 C 0.5906 0.40798 0.24053 0.0
C787 C 0.57107 0.39623 0.23718 0.0
C788 C 0.536 0.35009 0.25738 0.0
C789 C 0.49893 0.31557 0.22006 0.0
C790 C 0.51559 0.33186 0.22785 0.0
C791 C 0.56714 0.37637 0.24855 0.0
C792 C 0.54866 0.36175 0.24177 0.0
H793 H 0.46397 0.30764 0.17679 0.0
H794 H 0.48732 0.33597 0.19295 0.0
H795 H 0.50999 0.32665 0.26285 0.0
H796 H 0.61384 0.37491 0.27978 0.0
H797 H 0.57982 0.35423 0.27368 0.0
C798 C 0.99078 0.21976 0.7683 0.0
C799 C 0.97832 0.21499 0.78729 0.0
C800 C 0.00432 0.20353 0.75888 0.0
C801 C 0.03302 0.15253 0.7755 0.0
H802 H 0.0461 0.14675 0.71305 0.0
C803 C 0.09419 0.08766 0.74723 0.0
C804 C 0.11151 0.09594 0.73419 0.0
C805 C 0.0747 0.09966 0.7497 0.0
C806 C 0.04254 0.1482 0.73052 0.0
H807 H 0.96875 0.18921 0.81022 0.0
H808 H 0.99166 0.16085 0.7935 0.0
H809 H 0.01784 0.17307 0.72528 0.0
H810 H 0.12117 0.12226 0.71184 0.0
H811 H 0.08718 0.14342 0.71649 0.0
H812 H 0.05778 0.12813 0.78092 0.0
C813 C 0.99178 0.17725 0.78633 0.0
C814 C 0.02645 0.16329 0.73753 0.0
C815 C 0.9786 0.19348 0.7959 0.0
C816 C 0.10817 0.1155 0.72211 0.0
C817 C 0.08866 0.1276 0.7247 0.0
C818 C 0.04889 0.13746 0.76852 0.0
C819 C 0.00533 0.18222 0.76814 0.0
C820 C 0.0216 0.16567 0.76015 0.0
C821 C 0.07216 0.12025 0.7393 0.0
C822 C 0.05393 0.13516 0.746 0.0
H823 H 0.99076 0.23622 0.76129 0.0
H824 H 0.01463 0.20794 0.74495 0.0
H825 H 0.03019 0.15432 0.79307 0.0
H826 H 0.09612 0.07243 0.75643 0.0
H827 H 0.06203 0.09334 0.76065 0.0
C828 C 0.51659 0.80222 0.30021 0.0
C829 C 0.51866 0.78126 0.29054 0.0
C830 C 0.50277 0.81807 0.2909 0.0
C831 C 0.46971 0.83245 0.2411 0.0
H832 H 0.43532 0.86495 0.28429 0.0
C833 C 0.38823 0.8808 0.22377 0.0
C834 C 0.3849 0.90028 0.236 0.0
C835 C 0.40731 0.86813 0.22698 0.0
C836 C 0.44503 0.85629 0.27199 0.0
H837 H 0.50862 0.76069 0.26303 0.0
H838 H 0.48366 0.78822 0.2471 0.0
H839 H 0.46299 0.83891 0.29672 0.0
H840 H 0.39993 0.92293 0.25934 0.0
H841 H 0.43316 0.90098 0.26473 0.0
H842 H 0.45081 0.84954 0.21639 0.0
C843 C 0.49308 0.79253 0.26168 0.0
C844 C 0.46096 0.84135 0.27911 0.0
C845 C 0.50725 0.77672 0.27085 0.0
C846 C 0.40182 0.9078 0.24998 0.0
C847 C 0.42083 0.89521 0.25311 0.0
C848 C 0.45352 0.84737 0.23394 0.0
C849 C 0.49033 0.81324 0.2719 0.0
C850 C 0.4736 0.8293 0.26381 0.0
C851 C 0.42333 0.8748 0.24239 0.0
C852 C 0.44112 0.85951 0.24936 0.0
H853 H 0.52557 0.80635 0.31513 0.0
H854 H 0.50158 0.83405 0.29885 0.0
H855 H 0.47925 0.82353 0.22888 0.0
H856 H 0.37553 0.87461 0.2128 0.0
H857 H 0.40882 0.85245 0.21849 0.0
C858 C 0.88927 0.61651 0.77355 0.0
C859 C 0.88616 0.59576 0.76357 0.0
C860 C 0.90927 0.62775 0.77122 0.0
C861 C 0.9528 0.63328 0.73067 0.0
H862 H 0.98062 0.67088 0.77442 0.0
C863 C 0.02282 0.69102 0.70522 0.0
C864 C 0.02216 0.71258 0.71369 0.0
C865 C 0.00985 0.67441 0.71447 0.0
C866 C 0.97296 0.66057 0.76199 0.0
H867 H 0.90217 0.56983 0.74471 0.0
H868 H 0.9371 0.5896 0.74053 0.0
H869 H 0.95145 0.64527 0.78566 0.0
H870 H 0.00823 0.73357 0.73907 0.0
H871 H 0.98466 0.70474 0.75476 0.0
H872 H 0.97318 0.64914 0.70678 0.0
C873 C 0.92394 0.59719 0.74999 0.0
C874 C 0.95635 0.64583 0.76846 0.0
C875 C 0.90398 0.58585 0.75247 0.0
C876 C 0.00899 0.71705 0.73224 0.0
C877 C 0.99561 0.70048 0.74127 0.0
C878 C 0.96917 0.6481 0.72418 0.0
C879 C 0.92653 0.61854 0.75877 0.0
C880 C 0.94594 0.63223 0.75279 0.0
C881 C 0.9955 0.67906 0.73213 0.0
C882 C 0.97931 0.66214 0.73968 0.0
H883 H 0.87594 0.6245 0.78241 0.0
H884 H 0.91071 0.64422 0.77806 0.0
H885 H 0.94477 0.62337 0.71812 0.0
H886 H 0.03321 0.68704 0.69119 0.0
H887 H 0.01073 0.658 0.70741 0.0
C888 C 0.74596 0.40225 0.59027 0.0
C889 C 0.73329 0.38431 0.59781 0.0
C890 C 0.7484 0.42113 0.60342 0.0
C891 C 0.74655 0.46218 0.63328 0.0
H892 H 0.75955 0.44567 0.69379 0.0
C893 C 0.79344 0.51889 0.6943 0.0
C894 C 0.78812 0.51767 0.71688 0.0
C895 C 0.78329 0.50482 0.67906 0.0
C896 C 0.75554 0.45074 0.67711 0.0
H897 H 0.7114 0.37299 0.62381 0.0
H898 H 0.71529 0.40599 0.64643 0.0
H899 H 0.74713 0.41778 0.66794 0.0
H900 H 0.76699 0.50161 0.74096 0.0
H901 H 0.74897 0.47743 0.71437 0.0
H902 H 0.75541 0.49519 0.64252 0.0
C903 C 0.72389 0.40526 0.63075 0.0
C904 C 0.74841 0.43469 0.66224 0.0
C905 C 0.72158 0.3864 0.61774 0.0
C906 C 0.77172 0.50276 0.72374 0.0
C907 C 0.76144 0.48883 0.70849 0.0
C908 C 0.75362 0.47834 0.64825 0.0
C909 C 0.73809 0.4224 0.62422 0.0
C910 C 0.74399 0.44015 0.64011 0.0
C911 C 0.76746 0.48933 0.68604 0.0
C912 C 0.7584 0.47275 0.67031 0.0
H913 H 0.75519 0.40111 0.57498 0.0
H914 H 0.75948 0.43406 0.59793 0.0
H915 H 0.74315 0.46691 0.61636 0.0
H916 H 0.80598 0.53023 0.68843 0.0
H917 H 0.78851 0.50553 0.66197 0.0
C918 C 0.70379 0.48061 0.19413 0.0
C919 C 0.71255 0.47531 0.21495 0.0
C920 C 0.71617 0.4927 0.17895 0.0
C921 C 0.75886 0.53449 0.17662 0.0
H922 H 0.75541 0.5234 0.1136 0.0
C923 C 0.78516 0.60105 0.11452 0.0
C924 C 0.76876 0.60547 0.09867 0.0
C925 C 0.7846 0.58147 0.12679 0.0
C926 C 0.75661 0.52669 0.13115 0.0
H927 H 0.74146 0.47797 0.23594 0.0
H928 H 0.76305 0.49958 0.20937 0.0
H929 H 0.74232 0.49545 0.13956 0.0
H930 H 0.74006 0.59198 0.08198 0.0
H931 H 0.73892 0.55818 0.10342 0.0
H932 H 0.77192 0.5662 0.16829 0.0
C933 C 0.74656 0.49426 0.20489 0.0
C934 C 0.74915 0.51069 0.14599 0.0
C935 C 0.73423 0.4819 0.22006 0.0
C936 C 0.75282 0.58921 0.09421 0.0
C937 C 0.75229 0.56968 0.10641 0.0
C938 C 0.76622 0.55055 0.16177 0.0
C939 C 0.73756 0.49991 0.18425 0.0
C940 C 0.74944 0.51478 0.16884 0.0
C941 C 0.76771 0.5659 0.12335 0.0
C942 C 0.7644 0.54717 0.13885 0.0
H943 H 0.68722 0.4756 0.1896 0.0
H944 H 0.70865 0.49706 0.16331 0.0
H945 H 0.75915 0.53816 0.19413 0.0
H946 H 0.79781 0.61314 0.11823 0.0
H947 H 0.79691 0.57888 0.1395 0.0
C948 C 0.22511 0.11569 0.37564 0.0
C949 C 0.23351 0.11732 0.39724 0.0
C950 C 0.22748 0.09618 0.36355 0.0
C951 C 0.26634 0.0509 0.35903 0.0
H952 H 0.22434 0.0264 0.31735 0.0
C953 C 0.29238 0.98026 0.3023 0.0
C954 C 0.28566 0.98145 0.28016 0.0
C955 C 0.28262 0.9937 0.31825 0.0
C956 C 0.23631 0.03315 0.32879 0.0
H957 H 0.24954 0.09914 0.42365 0.0
H958 H 0.25377 0.06511 0.40244 0.0
H959 H 0.21264 0.05551 0.34285 0.0
H960 H 0.26284 0.99687 0.25737 0.0
H961 H 0.24631 0.02122 0.2851 0.0
H962 H 0.29032 0.02964 0.34452 0.0
C963 C 0.24553 0.07905 0.39483 0.0
C964 C 0.22955 0.04972 0.34346 0.0
C965 C 0.24302 0.09852 0.407 0.0
C966 C 0.2683 0.99567 0.27437 0.0
C967 C 0.25878 0.00952 0.2903 0.0
C968 C 0.27313 0.03458 0.34428 0.0
C969 C 0.23842 0.07793 0.37275 0.0
C970 C 0.24458 0.05887 0.35862 0.0
C971 C 0.26623 0.00907 0.31236 0.0
C972 C 0.25828 0.02555 0.32884 0.0
H973 H 0.21751 0.12981 0.36769 0.0
H974 H 0.22191 0.09586 0.34655 0.0
H975 H 0.27844 0.05796 0.37016 0.0
H976 H 0.30546 0.9691 0.30727 0.0
H977 H 0.28832 0.99234 0.33514 0.0
C978 C 0.26821 0.90694 0.90746 0.0
C979 C 0.27431 0.88744 0.89658 0.0
C980 C 0.26701 0.92685 0.89588 0.0
C981 C 0.24598 0.95963 0.86554 0.0
H982 H 0.2745 0.97039 0.80923 0.0
C983 C 0.20109 0.00501 0.79682 0.0
C984 C 0.21272 0.01836 0.78184 0.0
C985 C 0.21231 0.99252 0.81252 0.0
C986 C 0.2666 0.96795 0.82509 0.0
H987 H 0.28518 0.87348 0.8655 0.0
H988 H 0.28183 0.90772 0.84493 0.0
H989 H 0.29016 0.9434 0.83458 0.0
H990 H 0.24531 0.02931 0.77177 0.0
H991 H 0.26502 0.00769 0.79969 0.0
H992 H 0.22276 0.98447 0.85634 0.0
C993 C 0.27871 0.90813 0.86252 0.0
C994 C 0.27541 0.9522 0.83954 0.0
C995 C 0.28053 0.88836 0.87429 0.0
C996 C 0.2359 0.01906 0.78303 0.0
C997 C 0.24718 0.00665 0.79898 0.0
C998 C 0.23747 0.9756 0.85133 0.0
C999 C 0.27111 0.92749 0.87297 0.0
C1000 C 0.26468 0.94717 0.85958 0.0
C1001 C 0.23548 0.99323 0.81394 0.0
C1002 C 0.24705 0.97925 0.8305 0.0
H1003 H 0.26363 0.90663 0.92477 0.0
H1004 H 0.26188 0.94151 0.90473 0.0
H1005 H 0.237 0.9563 0.88063 0.0
H1006 H 0.18324 0.00391 0.79627 0.0
H1007 H 0.20272 0.98193 0.82329 0.0
C1008 C 0.71719 0.76431 0.51861 0.0
C1009 C 0.71964 0.7874 0.51842 0.0
C1010 C 0.70102 0.75415 0.50552 0.0
C1011 C 0.64998 0.76738 0.47364 0.0
H1012 H 0.66386 0.71396 0.4413 0.0
C1013 C 0.62464 0.72528 0.38639 0.0
C1014 C 0.60251 0.73214 0.38556 0.0
C1015 C 0.63663 0.72694 0.40602 0.0
C1016 C 0.65972 0.72894 0.45013 0.0
H1017 H 0.70739 0.81786 0.504 0.0
H1018 H 0.68004 0.80029 0.48085 0.0
H1019 H 0.68984 0.72794 0.46863 0.0
H1020 H 0.5749 0.74403 0.40493 0.0
H1021 H 0.59538 0.74573 0.43955 0.0
H1022 H 0.62089 0.76962 0.45411 0.0
C1023 C 0.68993 0.78994 0.49158 0.0
C1024 C 0.67451 0.73679 0.46607 0.0
C1025 C 0.70582 0.80005 0.50475 0.0
C1026 C 0.59206 0.73895 0.40509 0.0
C1027 C 0.60389 0.74009 0.42487 0.0
C1028 C 0.63543 0.7598 0.45751 0.0
C1029 C 0.68713 0.76689 0.49191 0.0
C1030 C 0.67014 0.75654 0.47748 0.0
C1031 C 0.62662 0.73507 0.42539 0.0
C1032 C 0.64036 0.74082 0.44503 0.0
H1033 H 0.72754 0.75415 0.52908 0.0
H1034 H 0.69925 0.73637 0.50626 0.0
H1035 H 0.64575 0.7823 0.48256 0.0
H1036 H 0.63314 0.72004 0.37154 0.0
H1037 H 0.65409 0.72314 0.40554 0.0
C1038 C 0.90155 0.25091 0.90009 0.0
C1039 C 0.89249 0.26093 0.88125 0.0
C1040 C 0.88914 0.249 0.91942 0.0
C1041 C 0.83631 0.26577 0.94674 0.0
H1042 H 0.84153 0.2077 0.97324 0.0
C1043 C 0.76902 0.22442 0.00104 0.0
C1044 C 0.77617 0.21187 0.01924 0.0
C1045 C 0.78436 0.23393 0.98661 0.0
C1046 C 0.84009 0.22412 0.96628 0.0
H1047 H 0.86383 0.27796 0.86821 0.0
H1048 H 0.84183 0.27395 0.90169 0.0
H1049 H 0.86661 0.21831 0.94389 0.0
H1050 H 0.80508 0.20053 0.0372 0.0
H1051 H 0.83171 0.21702 0.01198 0.0
H1052 H 0.80898 0.27097 0.96874 0.0
C1053 C 0.85867 0.26794 0.90176 0.0
C1054 C 0.85455 0.23029 0.94947 0.0
C1055 C 0.87125 0.27018 0.88251 0.0
C1056 C 0.79897 0.20987 0.02321 0.0
C1057 C 0.81425 0.21927 0.00876 0.0
C1058 C 0.82166 0.25948 0.9635 0.0
C1059 C 0.86722 0.25669 0.92022 0.0
C1060 C 0.85279 0.25112 0.93934 0.0
C1061 C 0.80712 0.23099 0.99006 0.0
C1062 C 0.82333 0.23852 0.97331 0.0
H1063 H 0.91803 0.24394 0.89968 0.0
H1064 H 0.89651 0.24082 0.93352 0.0
H1065 H 0.83463 0.28204 0.9395 0.0
H1066 H 0.75158 0.22641 0.99757 0.0
H1067 H 0.77839 0.24277 0.97225 0.0
C1068 C 0.12316 0.77219 0.61441 0.0
C1069 C 0.10228 0.76221 0.61621 0.0
C1070 C 0.13534 0.77041 0.59486 0.0
C1071 C 0.13963 0.73315 0.54677 0.0
H1072 H 0.18378 0.77525 0.52724 0.0
C1073 C 0.19498 0.71461 0.47235 0.0
C1074 C 0.21776 0.71693 0.47627 0.0
C1075 C 0.17958 0.72372 0.48689 0.0
C1076 C 0.1715 0.76337 0.53254 0.0
H1077 H 0.07695 0.74429 0.59839 0.0
H1078 H 0.09774 0.74196 0.56402 0.0
H1079 H 0.15822 0.78536 0.55688 0.0
H1080 H 0.24217 0.73188 0.49784 0.0
H1081 H 0.21517 0.74778 0.52328 0.0
H1082 H 0.15295 0.71114 0.52261 0.0
C1083 C 0.10515 0.75039 0.57794 0.0
C1084 C 0.15689 0.76911 0.54954 0.0
C1085 C 0.09314 0.75186 0.59758 0.0
C1086 C 0.22476 0.72966 0.4944 0.0
C1087 C 0.2093 0.73888 0.50892 0.0
C1088 C 0.15403 0.72754 0.52968 0.0
C1089 C 0.12676 0.75888 0.57658 0.0
C1090 C 0.14096 0.75393 0.55709 0.0
C1091 C 0.18657 0.73548 0.50561 0.0
C1092 C 0.1703 0.74245 0.52257 0.0
H1093 H 0.13068 0.78023 0.62851 0.0
H1094 H 0.15195 0.77702 0.59456 0.0
H1095 H 0.12801 0.72078 0.55241 0.0
H1096 H 0.18896 0.70514 0.45841 0.0
H1097 H 0.16216 0.72112 0.48375 0.0
C1098 C 0.29616 0.28926 0.97296 0.0
C1099 C 0.2736 0.28387 0.97364 0.0
C1100 C 0.31134 0.27767 0.9859 0.0
C1101 C 0.31315 0.2445 0.03688 0.0
H1102 H 0.37482 0.23781 0.02088 0.0
C1103 C 0.3759 0.21479 0.10068 0.0
C1104 C 0.39344 0.22978 0.10345 0.0
C1105 C 0.36281 0.21555 0.0817 0.0
C1106 C 0.35761 0.23945 0.0255 0.0
H1107 H 0.24946 0.26118 0.98727 0.0
H1108 H 0.27602 0.24058 0.00939 0.0
H1109 H 0.3482 0.25 0.99309 0.0
H1110 H 0.41229 0.25579 0.08754 0.0
H1111 H 0.38943 0.25707 0.05449 0.0
H1112 H 0.3226 0.23445 0.06935 0.0
C1113 C 0.28192 0.2542 -0.00059 0.0
C1114 C 0.34238 0.24654 0.00965 0.0
C1115 C 0.2667 0.26596 0.98668 0.0
C1116 C 0.39875 0.24418 0.08602 0.0
C1117 C 0.38574 0.24482 0.067 0.0
C1118 C 0.32831 0.23724 0.05262 0.0
C1119 C 0.30436 0.26024 -0.0004 0.0
C1120 C 0.32005 0.24975 0.01533 0.0
C1121 C 0.36712 0.23112 0.06505 0.0
C1122 C 0.35079 0.23519 0.04727 0.0
H1123 H 0.30202 0.30296 0.96306 0.0
H1124 H 0.3284 0.28303 0.98582 0.0
H1125 H 0.29622 0.24711 0.04203 0.0
H1126 H 0.37147 0.20333 0.11368 0.0
H1127 H 0.34872 0.20459 0.08047 0.0
C1128 C 0.52413 0.69581 0.79219 0.0
C1129 C 0.52317 0.71854 0.78749 0.0
C1130 C 0.50882 0.68124 0.78291 0.0
C1131 C 0.45252 0.68155 0.76013 0.0
H1132 H 0.46565 0.62077 0.74464 0.0
C1133 C 0.38442 0.62502 0.72808 0.0
C1134 C 0.38265 0.60435 0.73849 0.0
C1135 C 0.40347 0.63772 0.73038 0.0
C1136 C 0.46176 0.63769 0.74897 0.0
H1137 H 0.50622 0.74356 0.76825 0.0
H1138 H 0.47982 0.71811 0.75174 0.0
H1139 H 0.49569 0.64572 0.75509 0.0
H1140 H 0.4001 0.58014 0.75829 0.0
H1141 H 0.43345 0.60257 0.76258 0.0
H1142 H 0.41867 0.67357 0.7544 0.0
C1143 C 0.49204 0.71161 0.76307 0.0
C1144 C 0.47894 0.65197 0.75497 0.0
C1145 C 0.50725 0.7262 0.77246 0.0
C1146 C 0.40095 0.59602 0.75011 0.0
C1147 C 0.42006 0.60885 0.75251 0.0
C1148 C 0.43544 0.66735 0.75407 0.0
C1149 C 0.49229 0.68904 0.7686 0.0
C1150 C 0.47448 0.67405 0.76077 0.0
C1151 C 0.4212 0.63014 0.74326 0.0
C1152 C 0.43981 0.64523 0.74854 0.0
H1153 H 0.53623 0.68931 0.80366 0.0
H1154 H 0.50941 0.66402 0.7877 0.0
H1155 H 0.44837 0.69825 0.76499 0.0
H1156 H 0.37075 0.63174 0.71869 0.0
H1157 H 0.40405 0.65382 0.7226 0.0
C1158 C 0.00511 0.77264 0.22139 0.0
C1159 C 0.02038 0.77973 0.2054 0.0
C1160 C 0.99004 0.78746 0.23062 0.0
C1161 C 0.9766 0.84705 0.23724 0.0
H1162 H 0.91677 0.82472 0.24186 0.0
C1163 C 0.89849 0.90226 0.24767 0.0
C1164 C 0.881 0.89365 0.26032 0.0
C1165 C 0.91752 0.88963 0.24389 0.0
C1166 C 0.93344 0.83117 0.24105 0.0
H1167 H 0.03234 0.80823 0.18724 0.0
H1168 H 0.0057 0.83401 0.20306 0.0
H1169 H 0.9461 0.80028 0.22978 0.0
H1170 H 0.87058 0.86593 0.28048 0.0
H1171 H 0.90379 0.84421 0.27426 0.0
H1172 H 0.96359 0.87819 0.24813 0.0
C1173 C 0.00557 0.81702 0.20865 0.0
C1174 C 0.9503 0.81711 0.23411 0.0
C1175 C 0.02076 0.8022 0.19948 0.0
C1176 C 0.8836 0.87289 0.27036 0.0
C1177 C 0.90259 0.86038 0.2667 0.0
C1178 C 0.95964 0.8612 0.24419 0.0
C1179 C 0.98973 0.80972 0.224 0.0
C1180 C 0.9721 0.82482 0.2321 0.0
C1181 C 0.91943 0.86824 0.25278 0.0
C1182 C 0.93785 0.85338 0.24618 0.0
H1183 H 0.00454 0.75552 0.22656 0.0
H1184 H 0.97839 0.78137 0.24276 0.0
H1185 H 0.99325 0.85347 0.23603 0.0
H1186 H 0.89699 0.91821 0.23971 0.0
H1187 H 0.93017 0.89615 0.23305 0.0
C1188 C 0.47642 0.19589 0.70723 0.0
C1189 C 0.47704 0.21838 0.71301 0.0
C1190 C 0.49132 0.18094 0.71661 0.0
C1191 C 0.54661 0.18076 0.74158 0.0
H1192 H 0.53387 0.11921 0.75394 0.0
C1193 C 0.61502 0.12378 0.77207 0.0
C1194 C 0.61706 0.10355 0.7609 0.0
C1195 C 0.59579 0.13632 0.7702 0.0
C1196 C 0.53766 0.13635 0.75049 0.0
H1197 H 0.49276 0.24248 0.73436 0.0
H1198 H 0.51841 0.21637 0.75099 0.0
H1199 H 0.50382 0.1442 0.74354 0.0
H1200 H 0.59996 0.07987 0.74019 0.0
H1201 H 0.5664 0.10203 0.73655 0.0
H1202 H 0.58037 0.173 0.74797 0.0
C1203 C 0.50682 0.21038 0.73876 0.0
C1204 C 0.52047 0.15065 0.74453 0.0
C1205 C 0.49205 0.22534 0.72929 0.0
C1206 C 0.59888 0.09542 0.74897 0.0
C1207 C 0.57963 0.10809 0.74694 0.0
C1208 C 0.56369 0.16654 0.74754 0.0
C1209 C 0.50707 0.18813 0.73208 0.0
C1210 C 0.5248 0.17301 0.73986 0.0
C1211 C 0.57819 0.12903 0.75694 0.0
C1212 C 0.55949 0.14413 0.75195 0.0
H1213 H 0.46502 0.18995 0.69479 0.0
H1214 H 0.49114 0.16396 0.71097 0.0
H1215 H 0.55067 0.19772 0.73759 0.0
H1216 H 0.6286 0.13033 0.78171 0.0
H1217 H 0.59499 0.15211 0.77857 0.0
C1218 C 0.10951 0.37568 0.22287 0.0
C1219 C 0.11206 0.39384 0.23712 0.0
C1220 C 0.09021 0.363 0.22343 0.0
C1221 C 0.03263 0.36097 0.24491 0.0
H1222 H 0.04496 0.29852 0.25163 0.0
C1223 C 0.97382 0.3006 0.28952 0.0
C1224 C 0.97354 0.27834 0.28294 0.0
C1225 C 0.98813 0.31562 0.27937 0.0
C1226 C 0.04103 0.31581 0.24932 0.0
H1227 H 0.09563 0.41391 0.26189 0.0
H1228 H 0.06215 0.39175 0.26294 0.0
H1229 H 0.0745 0.32348 0.2412 0.0
H1230 H 0.98681 0.25479 0.25942 0.0
H1231 H 0.01132 0.28106 0.24139 0.0
H1232 H -0.0008 0.35329 0.2536 0.0
C1233 C 0.075 0.38729 0.25132 0.0
C1234 C 0.05804 0.33016 0.24332 0.0
C1235 C 0.0943 0.3999 0.25083 0.0
C1236 C 0.98689 0.27175 0.26513 0.0
C1237 C 0.00102 0.28679 0.25484 0.0
C1238 C 0.01554 0.34658 0.25082 0.0
C1239 C 0.07301 0.3683 0.23814 0.0
C1240 C 0.05417 0.35296 0.24149 0.0
C1241 C 0.00232 0.30876 0.26226 0.0
C1242 C 0.01965 0.32387 0.25354 0.0
H1243 H 0.12278 0.37065 0.21197 0.0
H1244 H 0.08901 0.34864 0.21284 0.0
H1245 H 0.02909 0.37844 0.24339 0.0
H1246 H 0.96372 0.30621 0.30319 0.0
H1247 H 0.98881 0.33235 0.28566 0.0
C1248 C 0.19515 0.355 0.0038 0.0
C1249 C 0.21635 0.35464 0.99428 0.0
C1250 C 0.1913 0.36643 0.02349 0.0
C1251 C 0.22053 0.38285 0.07332 0.0
H1252 H 0.16708 0.41555 0.08689 0.0
C1253 C 0.1899 0.39399 0.1616 0.0
C1254 C 0.18497 0.41554 0.16876 0.0
C1255 C 0.19348 0.38953 0.13933 0.0
C1256 C 0.18217 0.40666 0.08322 0.0
H1257 H 0.24988 0.3669 0.99752 0.0
H1258 H 0.24315 0.38667 0.03198 0.0
H1259 H 0.17407 0.40323 0.04886 0.0
H1260 H 0.179 0.44915 0.15785 0.0
H1261 H 0.1849 0.44109 0.11848 0.0
H1262 H 0.22833 0.38561 0.10767 0.0
C1263 C 0.22957 0.37798 0.02423 0.0
C1264 C 0.1861 0.39949 0.06156 0.0
C1265 C 0.23339 0.36669 0.00446 0.0
C1266 C 0.18286 0.4324 0.15289 0.0
C1267 C 0.18619 0.42782 0.1304 0.0
C1268 C 0.21648 0.38976 0.09492 0.0
C1269 C 0.20858 0.37764 0.03417 0.0
C1270 C 0.2052 0.38724 0.05648 0.0
C1271 C 0.19199 0.40641 0.12355 0.0
C1272 C 0.1971 0.40137 0.10016 0.0
H1273 H 0.1816 0.34603 0.99631 0.0
H1274 H 0.175 0.36571 0.03084 0.0
H1275 H 0.23528 0.37327 0.07 0.0
H1276 H 0.19157 0.38052 0.17326 0.0
H1277 H 0.19758 0.37281 0.13443 0.0
C1278 C 0.26025 0.64092 0.5074 0.0
C1279 C 0.27679 0.64809 0.49279 0.0
C1280 C 0.26591 0.63035 0.5271 0.0
C1281 C 0.3086 0.59933 0.55614 0.0
H1282 H 0.28686 0.62899 0.60865 0.0
C1283 C 0.31192 0.56693 0.64718 0.0
C1284 C 0.31968 0.58233 0.66276 0.0
C1285 C 0.30913 0.57306 0.62508 0.0
C1286 C 0.29305 0.62059 0.5941 0.0
H1287 H 0.31209 0.64868 0.48664 0.0
H1288 H 0.32191 0.62973 0.52094 0.0
H1289 H 0.27561 0.64214 0.57218 0.0
H1290 H 0.33187 0.61579 0.66709 0.0
H1291 H 0.32651 0.6265 0.62863 0.0
H1292 H 0.3258 0.57756 0.57829 0.0
C1293 C 0.30464 0.63253 0.51721 0.0
C1294 C 0.28648 0.62796 0.57332 0.0
C1295 C 0.29901 0.64348 0.4977 0.0
C1296 C 0.32582 0.60353 0.65555 0.0
C1297 C 0.32268 0.60973 0.63358 0.0
C1298 C 0.31484 0.59164 0.57703 0.0
C1299 C 0.28817 0.62637 0.53229 0.0
C1300 C 0.2943 0.61751 0.55417 0.0
C1301 C 0.31376 0.59473 0.61834 0.0
C1302 C 0.30729 0.60241 0.59614 0.0
H1303 H 0.24299 0.64427 0.50404 0.0
H1304 H 0.25295 0.62565 0.53851 0.0
H1305 H 0.31482 0.59106 0.54155 0.0
H1306 H 0.30718 0.55044 0.65223 0.0
H1307 H 0.30221 0.56125 0.61356 0.0
C1308 C 0.69477 0.13571 0.00342 0.0
C1309 C 0.71701 0.14103 0.00729 0.0
C1310 C 0.68871 0.12383 0.98464 0.0
C1311 C 0.71142 0.09212 0.93675 0.0
H1312 H 0.6589 0.11436 0.90764 0.0
C1313 C 0.6753 0.10077 0.84329 0.0
C1314 C 0.68203 0.08035 0.8346 0.0
C1315 C 0.67649 0.10473 0.86597 0.0
C1316 C 0.67366 0.108 0.91549 0.0
H1317 H 0.75045 0.13744 0.99508 0.0
H1318 H 0.73987 0.11755 0.96179 0.0
H1319 H 0.66809 0.12733 0.94438 0.0
H1320 H 0.69374 0.04754 0.84292 0.0
H1321 H 0.69509 0.0542 0.88259 0.0
H1322 H 0.71787 0.07408 0.90715 0.0
C1323 C 0.72709 0.12194 0.97349 0.0
C1324 C 0.67877 0.11518 0.93678 0.0
C1325 C 0.73319 0.13348 0.99252 0.0
C1326 C 0.68874 0.06356 0.84914 0.0
C1327 C 0.68964 0.06742 0.87186 0.0
C1328 C 0.70647 0.08519 0.91531 0.0
C1329 C 0.7047 0.1174 0.96906 0.0
C1330 C 0.69798 0.10769 0.94752 0.0
C1331 C 0.6841 0.08826 0.8805 0.0
C1332 C 0.68779 0.09343 0.90423 0.0
H1333 H 0.68199 0.14106 0.01476 0.0
H1334 H 0.6714 0.12013 0.9821 0.0
H1335 H 0.72611 0.08566 0.94465 0.0
H1336 H 0.6701 0.11406 0.83251 0.0
H1337 H 0.67237 0.12109 0.87192 0.0
C1338 C 0.78037 0.87664 0.50531 0.0
C1339 C 0.78526 0.8541 0.50799 0.0
C1340 C 0.78814 0.88816 0.48686 0.0
C1341 C 0.82799 0.88544 0.44029 0.0
H1342 H 0.78269 0.9177 0.40859 0.0
C1343 C 0.82994 0.89977 0.34644 0.0
C1344 C 0.8199 0.91879 0.33772 0.0
C1345 C 0.82974 0.89585 0.36918 0.0
C1346 C 0.79575 0.90922 0.41739 0.0
H1347 H 0.80311 0.8263 0.49401 0.0
H1348 H 0.81638 0.84631 0.46184 0.0
H1349 H 0.77492 0.90368 0.44535 0.0
H1350 H 0.80344 0.9495 0.34614 0.0
H1351 H 0.80342 0.94281 0.38581 0.0
H1352 H 0.84858 0.89041 0.41194 0.0
C1353 C 0.80668 0.85514 0.47401 0.0
C1354 C 0.79126 0.90115 0.4385 0.0
C1355 C 0.79886 0.84361 0.49236 0.0
C1356 C 0.811 0.9345 0.35232 0.0
C1357 C 0.81091 0.93064 0.37505 0.0
C1358 C 0.83251 0.89357 0.41916 0.0
C1359 C 0.80106 0.87742 0.47084 0.0
C1360 C 0.80712 0.88869 0.44994 0.0
C1361 C 0.81964 0.91094 0.38368 0.0
C1362 C 0.81623 0.90507 0.40725 0.0
H1363 H 0.77009 0.88527 0.51714 0.0
H1364 H 0.78374 0.9054 0.48496 0.0
H1365 H 0.84065 0.87616 0.44887 0.0
H1366 H 0.83702 0.88737 0.33566 0.0
H1367 H 0.83644 0.88041 0.37523 0.0
C1368 C 0.14875 0.19919 0.43627 0.0
C1369 C 0.16212 0.18509 0.42354 0.0
C1370 C 0.12621 0.20105 0.43186 0.0
C1371 C 0.07924 0.17586 0.4023 0.0
H1372 H 0.06167 0.23662 0.39212 0.0
C1373 C 0.00656 0.19903 0.34619 0.0
C1374 C 0.99391 0.21785 0.35112 0.0
C1375 C 0.02507 0.19374 0.35881 0.0
C1376 C 0.06604 0.21958 0.39533 0.0
H1377 H 0.162 0.16063 0.39732 0.0
H1378 H 0.12262 0.16394 0.38963 0.0
H1379 H 0.0975 0.2288 0.40838 0.0
H1380 H 0.99026 0.24542 0.37371 0.0
H1381 H 0.02243 0.23597 0.39602 0.0
H1382 H 0.04789 0.16662 0.3889 0.0
C1383 C 0.12962 0.17356 0.40299 0.0
C1384 C 0.08662 0.21511 0.40463 0.0
C1385 C 0.1522 0.17179 0.4073 0.0
C1386 C -0.00016 0.23097 0.36931 0.0
C1387 C 0.01829 0.22557 0.38207 0.0
C1388 C 0.05854 0.18034 0.39315 0.0
C1389 C 0.11657 0.1887 0.41478 0.0
C1390 C 0.09362 0.19321 0.40774 0.0
C1391 C 0.03127 0.20703 0.3768 0.0
C1392 C 0.05195 0.20225 0.38905 0.0
H1393 H 0.15581 0.20951 0.44907 0.0
H1394 H 0.11644 0.21263 0.44138 0.0
H1395 H 0.08417 0.15884 0.40475 0.0
H1396 H 0.00245 0.18855 0.33228 0.0
H1397 H 0.03489 0.17958 0.35401 0.0
C1398 C 0.35533 0.81336 0.93865 0.0
C1399 C 0.34039 0.81703 0.92124 0.0
C1400 C 0.37806 0.81183 0.93443 0.0
C1401 C 0.42027 0.82386 0.89131 0.0
H1402 H 0.45154 0.77392 0.91632 0.0
C1403 C 0.50712 0.80196 0.86068 0.0
C1404 C 0.51115 0.77944 0.85681 0.0
C1405 C 0.48882 0.80865 0.87302 0.0
C1406 C 0.44304 0.78793 0.90915 0.0
H1407 H 0.33773 0.82291 0.88595 0.0
H1408 H 0.37687 0.82 0.87867 0.0
H1409 H 0.41439 0.7827 0.92928 0.0
H1410 H 0.49963 0.74622 0.86352 0.0
H1411 H 0.46718 0.75784 0.88428 0.0
H1412 H 0.44805 0.82831 0.87015 0.0
C1413 C 0.37127 0.81849 0.89559 0.0
C1414 C 0.42185 0.79315 0.91682 0.0
C1415 C 0.34871 0.81994 0.89976 0.0
C1416 C 0.49695 0.7637 0.86622 0.0
C1417 C 0.47842 0.7704 0.87829 0.0
C1418 C 0.4413 0.81855 0.88353 0.0
C1419 C 0.38623 0.81414 0.91278 0.0
C1420 C 0.40998 0.81079 0.9075 0.0
C1421 C 0.47387 0.79299 0.8815 0.0
C1422 C 0.45276 0.80017 0.89193 0.0
H1423 H 0.34943 0.81108 0.95539 0.0
H1424 H 0.38921 0.80862 0.94805 0.0
H1425 H 0.41174 0.83781 0.88405 0.0
H1426 H 0.518 0.81447 0.85395 0.0
H1427 H 0.48619 0.82615 0.87559 0.0
C1428 C 0.50639 0.29932 0.65086 0.0
C1429 C 0.49427 0.28016 0.64591 0.0
C1430 C 0.52509 0.30484 0.63855 0.0
C1431 C 0.5673 0.27907 0.60322 0.0
H1432 H 0.58476 0.33982 0.59279 0.0
C1433 C 0.64975 0.29953 0.56164 0.0
C1434 C 0.66293 0.31436 0.5737 0.0
C1435 C 0.62728 0.29739 0.56634 0.0
C1436 C 0.58004 0.32279 0.59557 0.0
H1437 H 0.49166 0.25232 0.62349 0.0
H1438 H 0.52405 0.26219 0.60175 0.0
H1439 H 0.54848 0.33191 0.60863 0.0
H1440 H 0.66251 0.33974 0.59903 0.0
H1441 H 0.6233 0.3359 0.60726 0.0
H1442 H 0.59894 0.26996 0.59051 0.0
C1443 C 0.51942 0.27266 0.61549 0.0
C1444 C 0.55933 0.31824 0.6047 0.0
C1445 C 0.50083 0.26703 0.62793 0.0
C1446 C 0.65287 0.32802 0.58957 0.0
C1447 C 0.63036 0.32594 0.59419 0.0
C1448 C 0.58789 0.28361 0.59396 0.0
C1449 C 0.53198 0.29145 0.62088 0.0
C1450 C 0.55291 0.29633 0.60905 0.0
C1451 C 0.61751 0.31014 0.58307 0.0
C1452 C 0.59465 0.30552 0.59042 0.0
H1453 H 0.50178 0.30981 0.6646 0.0
H1454 H 0.53453 0.31924 0.64338 0.0
H1455 H 0.56309 0.26203 0.60668 0.0
H1456 H 0.65691 0.28892 0.54914 0.0
H1457 H 0.61767 0.2853 0.55731 0.0
C1458 C 0.99832 0.6938 0.14447 0.0
C1459 C 0.00761 0.7147 0.14038 0.0
C1460 C 0.97938 0.68703 0.13331 0.0
C1461 C 0.94362 0.69622 0.08538 0.0
H1462 H 0.89719 0.6778 0.12544 0.0
C1463 C 0.85128 0.68953 0.0605 0.0
C1464 C 0.83796 0.67476 0.07238 0.0
C1465 C 0.8737 0.6917 0.06572 0.0
C1466 C 0.91003 0.68235 0.11386 0.0
H1467 H 0.00498 0.74431 0.12033 0.0
H1468 H 0.97168 0.73231 0.10075 0.0
H1469 H 0.93333 0.68678 0.13995 0.0
H1470 H 0.83763 0.64925 0.0974 0.0
H1471 H 0.8769 0.65195 0.10558 0.0
H1472 H 0.92022 0.69165 0.0592 0.0
C1473 C 0.97918 0.7213 0.11269 0.0
C1474 C 0.93075 0.68766 0.12226 0.0
C1475 C 0.99813 0.7282 0.12401 0.0
C1476 C 0.84762 0.66092 0.08821 0.0
C1477 C 0.87006 0.66268 0.09302 0.0
C1478 C 0.92285 0.69059 0.07686 0.0
C1479 C 0.96936 0.70088 0.11767 0.0
C1480 C 0.94772 0.69472 0.10816 0.0
C1481 C 0.88316 0.67884 0.08264 0.0
C1482 C 0.90576 0.68364 0.09105 0.0
H1483 H 0.0053 0.68283 0.15676 0.0
H1484 H 0.97226 0.67109 0.13725 0.0
H1485 H 0.95651 0.70157 0.07417 0.0
H1486 H 0.84406 0.70048 0.04832 0.0
H1487 H 0.88319 0.70438 0.05742 0.0
C1488 C 0.35425 0.99852 0.19409 0.0
C1489 C 0.3569 0.993 0.21639 0.0
C1490 C 0.36621 0.01595 0.18491 0.0
C1491 C 0.41003 0.05827 0.19775 0.0
H1492 H 0.37506 0.09332 0.15722 0.0
C1493 C 0.43365 0.14833 0.17463 0.0
C1494 C 0.41572 0.16309 0.1752 0.0
C1495 C 0.42999 0.12547 0.17515 0.0
C1496 C 0.38507 0.08377 0.16856 0.0
H1497 H 0.37442 0.00058 0.24657 0.0
H1498 H 0.39408 0.03215 0.2312 0.0
H1499 H 0.3625 0.05697 0.16745 0.0
H1500 H 0.37991 0.16536 0.17633 0.0
H1501 H 0.37367 0.12613 0.17787 0.0
H1502 H 0.43147 0.08628 0.20033 0.0
C1503 C 0.3836 0.02259 0.22033 0.0
C1504 C 0.37805 0.06261 0.17419 0.0
C1505 C 0.37216 0.00465 0.22929 0.0
C1506 C 0.39416 0.15455 0.17584 0.0
C1507 C 0.39054 0.13191 0.17648 0.0
C1508 C 0.41681 0.07973 0.19246 0.0
C1509 C 0.38044 0.0288 0.1981 0.0
C1510 C 0.39002 0.04978 0.18944 0.0
C1511 C 0.40835 0.11703 0.17623 0.0
C1512 C 0.4039 0.093 0.17847 0.0
H1513 H 0.34284 0.98938 0.18376 0.0
H1514 H 0.36383 0.01962 0.16758 0.0
H1515 H 0.42009 0.04871 0.20901 0.0
H1516 H 0.45046 0.15441 0.17404 0.0
H1517 H 0.44406 0.11444 0.17481 0.0
C1518 C 0.93625 0.34712 0.81426 0.0
C1519 C 0.91862 0.33205 0.81562 0.0
C1520 C 0.93214 0.36986 0.81358 0.0
C1521 C 0.88845 0.41163 0.82384 0.0
H1522 H 0.91698 0.44427 0.77669 0.0
C1523 C 0.86684 0.48927 0.76435 0.0
C1524 C 0.85672 0.50319 0.7799 0.0
C1525 C 0.87874 0.47077 0.77131 0.0
C1526 C 0.90888 0.43539 0.78994 0.0
H1527 H 0.883 0.32904 0.81839 0.0
H1528 H 0.87589 0.36838 0.81698 0.0
H1529 H 0.92917 0.40681 0.7852 0.0
H1530 H 0.85252 0.5097 0.81489 0.0
H1531 H 0.87377 0.47783 0.82702 0.0
H1532 H 0.8672 0.43942 0.8277 0.0
C1533 C 0.89288 0.36279 0.8166 0.0
C1534 C 0.91606 0.41404 0.79501 0.0
C1535 C 0.89695 0.34017 0.81721 0.0
C1536 C 0.85978 0.49899 0.80251 0.0
C1537 C 0.87193 0.4807 0.80946 0.0
C1538 C 0.88119 0.43285 0.8187 0.0
C1539 C 0.91036 0.37789 0.81444 0.0
C1540 C 0.90545 0.4017 0.81157 0.0
C1541 C 0.88101 0.466 0.79396 0.0
C1542 C 0.89091 0.44478 0.80129 0.0
H1543 H 0.95315 0.34137 0.8131 0.0
H1544 H 0.94595 0.38113 0.81209 0.0
H1545 H 0.88017 0.40265 0.83693 0.0
H1546 H 0.86478 0.49214 0.74681 0.0
H1547 H 0.88528 0.45968 0.7589 0.0
C1548 C 0.64862 0.50071 0.29784 0.0
C1549 C 0.64227 0.49188 0.27739 0.0
C1550 C 0.63849 0.51974 0.306 0.0
C1551 C 0.59218 0.5597 0.29557 0.0
H1552 H 0.63267 0.60034 0.32392 0.0
C1553 C 0.5674 0.64979 0.31771 0.0
C1554 C 0.58363 0.66582 0.31332 0.0
C1555 C 0.57266 0.62726 0.31683 0.0
C1556 C 0.62113 0.58926 0.31592 0.0
H1557 H 0.61997 0.49551 0.24967 0.0
H1558 H 0.60314 0.52945 0.26317 0.0
H1559 H 0.64483 0.56333 0.31537 0.0
H1560 H 0.61805 0.67071 0.30443 0.0
H1561 H 0.62693 0.63191 0.30225 0.0
H1562 H 0.56908 0.58646 0.29467 0.0
C1563 C 0.61536 0.52138 0.27341 0.0
C1564 C 0.62799 0.56778 0.31134 0.0
C1565 C 0.62513 0.502 0.26553 0.0
C1566 C 0.60515 0.65887 0.30812 0.0
C1567 C 0.61032 0.63651 0.30704 0.0
C1568 C 0.58543 0.5814 0.29983 0.0
C1569 C 0.6222 0.53076 0.29358 0.0
C1570 C 0.6138 0.55279 0.30068 0.0
C1571 C 0.59421 0.62038 0.31143 0.0
C1572 C 0.60006 0.59659 0.30954 0.0
H1573 H 0.66154 0.49294 0.30749 0.0
H1574 H 0.64377 0.526 0.32189 0.0
H1575 H 0.58059 0.54853 0.2878 0.0
H1576 H 0.55068 0.65464 0.32185 0.0
H1577 H 0.5599 0.61527 0.32047 0.0
C1578 C 0.1563 0.98565 0.707 0.0
C1579 C 0.1451 0.0023 0.71867 0.0
C1580 C 0.14519 0.96672 0.7 0.0
C1581 C 0.09689 0.93264 0.71341 0.0
H1582 H 0.11288 0.90295 0.65893 0.0
C1583 C 0.0633 0.84601 0.69116 0.0
C1584 C 0.08004 0.8309 0.68561 0.0
C1585 C 0.0678 0.86868 0.69191 0.0
C1586 C 0.1082 0.91109 0.67417 0.0
H1587 H 0.11315 0.0124 0.73147 0.0
H1588 H 0.09371 0.97931 0.7191 0.0
H1589 H 0.12708 0.93992 0.66638 0.0
H1590 H 0.11425 0.82778 0.67536 0.0
H1591 H 0.12202 0.86714 0.67661 0.0
H1592 H 0.07848 0.90353 0.72143 0.0
C1593 C 0.1112 0.98083 0.71565 0.0
C1594 C 0.11637 0.93222 0.67847 0.0
C1595 C 0.12234 -0.00018 0.72266 0.0
C1596 C 0.10103 0.83897 0.67986 0.0
C1597 C 0.10544 0.86156 0.68039 0.0
C1598 C 0.08864 0.91152 0.70906 0.0
C1599 C 0.12255 0.96396 0.70443 0.0
C1600 C 0.11135 0.94297 0.69844 0.0
C1601 C 0.08902 0.87664 0.6868 0.0
C1602 C 0.09474 0.90028 0.68969 0.0
H1603 H 0.17381 0.98701 0.70359 0.0
H1604 H 0.15454 0.95392 0.69172 0.0
H1605 H 0.09285 0.94036 0.72903 0.0
H1606 H 0.04694 0.84029 0.69563 0.0
H1607 H 0.05479 0.87996 0.69678 0.0
C1608 C 0.83139 0.59039 0.84727 0.0
C1609 C 0.8212 0.57184 0.83776 0.0
C1610 C 0.83034 0.59385 0.87004 0.0
C1611 C 0.83065 0.59542 0.92002 0.0
H1612 H 0.77134 0.58709 0.94281 0.0
C1613 C 0.77483 0.61476 0.00312 0.0
C1614 C 0.78029 0.63718 0.00575 0.0
C1615 C 0.78286 0.60284 0.98504 0.0
C1616 C 0.78812 0.5891 0.93691 0.0
H1617 H 0.8037 0.54137 0.84483 0.0
H1618 H 0.80217 0.54728 0.8846 0.0
H1619 H 0.78086 0.57267 0.9066 0.0
H1620 H 0.79908 0.66442 0.9919 0.0
H1621 H 0.8128 0.64372 0.96038 0.0
H1622 H 0.83748 0.61281 0.95005 0.0
C1623 C 0.81043 0.55943 0.87441 0.0
C1624 C 0.79361 0.5808 0.91614 0.0
C1625 C 0.81136 0.55604 0.85163 0.0
C1626 C 0.7944 0.64723 0.99029 0.0
C1627 C 0.80249 0.6353 0.97234 0.0
C1628 C 0.82511 0.6038 0.94078 0.0
C1629 C 0.81923 0.57875 0.88377 0.0
C1630 C 0.81475 0.5844 0.90719 0.0
C1631 C 0.79663 0.61306 0.9694 0.0
C1632 C 0.8036 0.60126 0.94914 0.0
H1633 H 0.8392 0.60283 0.83704 0.0
H1634 H 0.83714 0.609 0.87667 0.0
H1635 H 0.84718 0.59812 0.91373 0.0
H1636 H 0.76414 0.60648 0.01484 0.0
H1637 H 0.77818 0.58566 0.98322 0.0
C1638 C 0.69941 0.34512 0.49031 0.0
C1639 C 0.71852 0.35214 0.50151 0.0
C1640 C 0.69316 0.35498 0.47049 0.0
C1641 C 0.69699 0.40354 0.43566 0.0
H1642 H 0.69079 0.36178 0.3875 0.0
C1643 C 0.68833 0.43011 0.34399 0.0
C1644 C 0.67677 0.41607 0.32959 0.0
C1645 C 0.69148 0.42415 0.36608 0.0
C1646 C 0.69194 0.3737 0.40078 0.0
H1647 H 0.74537 0.37589 0.5012 0.0
H1648 H 0.73408 0.3934 0.46641 0.0
H1649 H 0.70012 0.34852 0.42415 0.0
H1650 H 0.65792 0.38577 0.32728 0.0
H1651 H 0.66232 0.37592 0.36601 0.0
H1652 H 0.6883 0.42873 0.4124 0.0
C1653 C 0.72417 0.38009 0.4731 0.0
C1654 C 0.6975 0.36606 0.42175 0.0
C1655 C 0.73065 0.37 0.4929 0.0
C1656 C 0.66715 0.39675 0.33799 0.0
C1657 C 0.66989 0.39102 0.36014 0.0
C1658 C 0.69105 0.41121 0.41466 0.0
C1659 C 0.70566 0.37227 0.46152 0.0
C1660 C 0.70006 0.38087 0.43937 0.0
C1661 C 0.6828 0.40421 0.37429 0.0
C1662 C 0.68841 0.39635 0.39693 0.0
H1663 H 0.68954 0.33153 0.49647 0.0
H1664 H 0.67869 0.34881 0.46194 0.0
H1665 H 0.69879 0.41524 0.44908 0.0
H1666 H 0.69603 0.44507 0.3379 0.0
H1667 H 0.70163 0.43467 0.37637 0.0
C1668 C 0.31324 0.94071 0.1483 0.0
C1669 C 0.31839 0.92355 0.16311 0.0
C1670 C 0.31276 0.93676 0.12553 0.0
C1671 C 0.29566 0.91659 0.08224 0.0
H1672 H 0.33903 0.87951 0.05313 0.0
C1673 C 0.28148 0.88224 0.99415 0.0
C1674 C 0.28595 0.85954 0.99199 0.0
C1675 C 0.28867 0.89387 0.01281 0.0
C1676 C 0.32675 0.88987 0.06101 0.0
H1677 H 0.32824 0.8892 0.16559 0.0
H1678 H 0.3276 0.88241 0.12597 0.0
H1679 H 0.3462 0.89313 0.09037 0.0
H1680 H 0.30216 0.8315 0.00742 0.0
H1681 H 0.31424 0.85155 0.03983 0.0
H1682 H 0.27568 0.91242 0.05339 0.0
C1683 C 0.32387 0.89887 0.13192 0.0
C1684 C 0.33091 0.89771 0.0823 0.0
C1685 C 0.32406 0.90271 0.15463 0.0
C1686 C 0.29831 0.84894 0.00854 0.0
C1687 C 0.30547 0.86052 0.02708 0.0
C1688 C 0.29142 0.90862 0.06098 0.0
C1689 C 0.3178 0.91571 0.11716 0.0
C1690 C 0.31512 0.91059 0.09337 0.0
C1691 C 0.30056 0.88306 0.0296 0.0
C1692 C 0.30662 0.89457 0.05042 0.0
H1693 H 0.30882 0.95696 0.15433 0.0
H1694 H 0.30814 0.95005 0.11449 0.0
H1695 H 0.28312 0.92636 0.09045 0.0
H1696 H 0.27212 0.89094 0.98163 0.0
H1697 H 0.28479 0.91128 0.01417 0.0
C1698 C 0.17003 0.09344 0.65585 0.0
C1699 C 0.1821 0.07565 0.66442 0.0
C1700 C 0.17208 0.09932 0.63368 0.0
C1701 C 0.19622 0.08243 0.57933 0.0
H1702 H 0.19774 0.14589 0.57071 0.0
C1703 C 0.23198 0.12849 0.50215 0.0
C1704 C 0.21885 0.14584 0.49396 0.0
C1705 C 0.22594 0.11737 0.52153 0.0
C1706 C 0.19717 0.12812 0.57281 0.0
H1707 H 0.20502 0.04936 0.65652 0.0
H1708 H 0.20941 0.06016 0.61785 0.0
H1709 H 0.18968 0.13111 0.60703 0.0
H1710 H 0.18851 0.16431 0.49918 0.0
H1711 H 0.17831 0.14517 0.53296 0.0
H1712 H 0.20473 0.07982 0.54494 0.0
C1713 C 0.19789 0.06928 0.62805 0.0
C1714 C 0.19238 0.11959 0.59362 0.0
C1715 C 0.19543 0.06309 0.65021 0.0
C1716 C 0.19916 0.15119 0.50507 0.0
C1717 C 0.19328 0.14026 0.52446 0.0
C1718 C 0.20136 0.09105 0.55845 0.0
C1719 C 0.18676 0.08792 0.61969 0.0
C1720 C 0.19162 0.09663 0.59718 0.0
C1721 C 0.20681 0.12356 0.53311 0.0
C1722 C 0.20168 0.11399 0.55502 0.0
H1723 H 0.15944 0.10321 0.66647 0.0
H1724 H 0.16264 0.11328 0.6277 0.0
H1725 H 0.19567 0.06468 0.5814 0.0
H1726 H 0.24716 0.12385 0.4939 0.0
H1727 H 0.23667 0.10456 0.52793 0.0
C1728 C 0.00423 0.77448 0.62445 0.0
C1729 C 0.00663 0.77836 0.64724 0.0
C1730 C 0.9853 0.78165 0.61326 0.0
C1731 C 0.93677 0.81905 0.61856 0.0
H1732 H 0.90806 0.77672 0.58003 0.0
C1733 C 0.84355 0.81876 0.60231 0.0
C1734 C 0.8357 0.8136 0.58109 0.0
C1735 C 0.86607 0.81777 0.60704 0.0
C1736 C 0.91606 0.78891 0.5904 0.0
H1737 H 0.99127 0.79343 0.67594 0.0
H1738 H 0.95835 0.80554 0.6566 0.0
H1739 H 0.94481 0.76876 0.59449 0.0
H1740 H 0.84546 0.80403 0.54795 0.0
H1741 H 0.88498 0.80205 0.55637 0.0
H1742 H 0.90759 0.83876 0.61519 0.0
C1743 C 0.97114 0.79723 0.64725 0.0
C1744 C 0.93713 0.78436 0.59869 0.0
C1745 C 0.98998 0.79009 0.65841 0.0
C1746 C 0.85099 0.80808 0.56448 0.0
C1747 C 0.87358 0.80684 0.5693 0.0
C1748 C 0.91568 0.82354 0.61037 0.0
C1749 C 0.96843 0.79291 0.62459 0.0
C1750 C 0.94748 0.79911 0.61335 0.0
C1751 C 0.8813 0.81144 0.59072 0.0
C1752 C 0.90487 0.80825 0.59667 0.0
H1753 H 0.01679 0.76561 0.61531 0.0
H1754 H 0.98383 0.77826 0.59576 0.0
H1755 H 0.94447 0.831 0.62943 0.0
H1756 H 0.83223 0.8232 0.61544 0.0
H1757 H 0.87146 0.82117 0.62376 0.0
C1758 C 0.50242 0.20215 0.14741 0.0
C1759 C 0.48696 0.21528 0.13612 0.0
C1760 C 0.52068 0.19348 0.1364 0.0
C1761 C 0.55642 0.20534 0.0895 0.0
H1762 H 0.58213 0.14858 0.10447 0.0
C1763 C 0.64275 0.18282 0.05899 0.0
C1764 C 0.65706 0.17555 0.07576 0.0
C1765 C 0.61995 0.18291 0.06231 0.0
C1766 C 0.57512 0.16445 0.10009 0.0
H1767 H 0.47809 0.22884 0.10414 0.0
H1768 H 0.51016 0.21368 0.08488 0.0
H1769 H 0.54516 0.15791 0.11773 0.0
H1770 H 0.6586 0.1611 0.10852 0.0
H1771 H 0.61883 0.16166 0.11449 0.0
H1772 H 0.58659 0.21234 0.07268 0.0
C1773 C 0.50817 0.21031 0.10234 0.0
C1774 C 0.55399 0.16979 0.10767 0.0
C1775 C 0.48981 0.21897 0.11337 0.0
C1776 C 0.64802 0.16692 0.09532 0.0
C1777 C 0.62519 0.16712 0.09868 0.0
C1778 C 0.57752 0.20002 0.08194 0.0
C1779 C 0.52394 0.19772 0.11383 0.0
C1780 C 0.54469 0.19055 0.10297 0.0
C1781 C 0.61097 0.17581 0.08249 0.0
C1782 C 0.58735 0.17976 0.08765 0.0
H1783 H 0.50066 0.19882 0.1649 0.0
H1784 H 0.53268 0.18412 0.1458 0.0
H1785 H 0.54985 0.22157 0.08582 0.0
H1786 H 0.64919 0.18922 0.04357 0.0
H1787 H 0.60939 0.18927 0.04934 0.0
C1788 C 0.35192 0.68779 0.43612 0.0
C1789 C 0.33724 0.67859 0.42068 0.0
C1790 C 0.37462 0.68803 0.432 0.0
C1791 C 0.41854 0.66652 0.39448 0.0
H1792 H 0.44471 0.72407 0.40473 0.0
C1793 C 0.49234 0.70028 0.34505 0.0
C1794 C 0.50791 0.71373 0.35582 0.0
C1795 C 0.47381 0.69247 0.35632 0.0
C1796 C 0.43786 0.70775 0.40214 0.0
H1797 H 0.33503 0.66113 0.38945 0.0
H1798 H 0.37449 0.662 0.38203 0.0
H1799 H 0.40798 0.71626 0.41879 0.0
H1800 H 0.51673 0.72859 0.38724 0.0
H1801 H 0.48426 0.71495 0.40688 0.0
H1802 H 0.44823 0.65846 0.37696 0.0
C1803 C 0.36856 0.66881 0.39747 0.0
C1804 C 0.41676 0.70323 0.41024 0.0
C1805 C 0.34587 0.66842 0.40167 0.0
C1806 C 0.50496 0.71844 0.37838 0.0
C1807 C 0.48635 0.71068 0.38963 0.0
C1808 C 0.43964 0.67109 0.38629 0.0
C1809 C 0.38313 0.67921 0.41228 0.0
C1810 C 0.40664 0.68274 0.40612 0.0
C1811 C 0.47037 0.69795 0.37861 0.0
C1812 C 0.44932 0.69193 0.38963 0.0
H1813 H 0.34583 0.69547 0.4511 0.0
H1814 H 0.38543 0.69574 0.44398 0.0
H1815 H 0.41136 0.65045 0.39132 0.0
H1816 H 0.49417 0.6962 0.32773 0.0
H1817 H 0.46169 0.68289 0.34728 0.0
C1818 C 0.13844 0.31452 0.94157 0.0
C1819 C 0.15223 0.32396 0.92544 0.0
C1820 C 0.11561 0.31381 0.9385 0.0
C1821 C 0.06969 0.33352 0.90259 0.0
H1822 H 0.04779 0.27386 0.9106 0.0
C1823 C 0.00226 0.29566 0.84864 0.0
C1824 C 0.98724 0.28049 0.85775 0.0
C1825 C 0.01914 0.30458 0.86148 0.0
C1826 C 0.05338 0.29074 0.90872 0.0
H1827 H 0.15271 0.34169 0.89429 0.0
H1828 H 0.11297 0.34009 0.88872 0.0
H1829 H 0.08361 0.28396 0.92549 0.0
H1830 H 0.97759 0.26349 0.88779 0.0
H1831 H 0.00736 0.27902 0.91027 0.0
H1832 H 0.03978 0.33989 0.88482 0.0
C1833 C 0.11973 0.33338 0.90386 0.0
C1834 C 0.07395 0.29657 0.91728 0.0
C1835 C 0.14257 0.33417 0.90698 0.0
C1836 C 0.98902 0.27499 0.88024 0.0
C1837 C 0.00605 0.28386 0.8931 0.0
C1838 C 0.04909 0.32767 0.89399 0.0
C1839 C 0.10609 0.32248 0.9192 0.0
C1840 C 0.08266 0.31781 0.91368 0.0
C1841 C 0.02145 0.29853 0.88375 0.0
C1842 C 0.04108 0.306 0.89632 0.0
H1843 H 0.14534 0.30683 0.95618 0.0
H1844 H 0.10549 0.30571 0.95083 0.0
H1845 H 0.07578 0.35012 0.89988 0.0
H1846 H 0.00124 0.30044 0.83142 0.0
H1847 H 0.0309 0.31557 0.85367 0.0
C1848 C 0.63566 0.99347 0.76373 0.0
C1849 C 0.64414 0.00858 0.77912 0.0
C1850 C 0.62489 0.97434 0.7709 0.0
C1851 C 0.62121 0.93817 0.82017 0.0
H1852 H 0.5771 0.90859 0.78451 0.0
C1853 C 0.56688 0.85161 0.81532 0.0
C1854 C 0.5836 0.83674 0.82146 0.0
C1855 C 0.57127 0.87421 0.81383 0.0
C1856 C 0.58909 0.91674 0.79498 0.0
H1857 H 0.64673 0.01638 0.81397 0.0
H1858 H 0.62716 0.98355 0.82647 0.0
H1859 H 0.58881 0.94563 0.77471 0.0
H1860 H 0.61776 0.83397 0.83184 0.0
H1861 H 0.62567 0.87315 0.82852 0.0
H1862 H 0.62109 0.9095 0.84075 0.0
C1863 C 0.62952 0.98592 0.8089 0.0
C1864 C 0.5961 0.93791 0.7891 0.0
C1865 C 0.64061 0.00483 0.80174 0.0
C1866 C 0.60449 0.84503 0.82715 0.0
C1867 C 0.60899 0.86758 0.82533 0.0
C1868 C 0.61396 0.91713 0.82624 0.0
C1869 C 0.62204 0.97012 0.79361 0.0
C1870 C 0.61267 0.94869 0.80128 0.0
C1871 C 0.59258 0.88241 0.81811 0.0
C1872 C 0.59822 0.90589 0.8134 0.0
H1873 H 0.63823 0.99588 0.74619 0.0
H1874 H 0.61967 0.96247 0.7586 0.0
H1875 H 0.63414 0.94578 0.82989 0.0
H1876 H 0.55053 0.8457 0.8111 0.0
H1877 H 0.55807 0.88516 0.80878 0.0
C1878 C 0.11784 0.4926 0.22503 0.0
C1879 C 0.13986 0.48864 0.21883 0.0
C1880 C 0.1066 0.51116 0.21702 0.0
C1881 C 0.10908 0.55551 0.17444 0.0
H1882 H 0.08043 0.59096 0.2194 0.0
C1883 C 0.09745 0.64976 0.16746 0.0
C1884 C 0.07882 0.65946 0.17736 0.0
C1885 C 0.10109 0.62702 0.1692 0.0
C1886 C 0.08795 0.58111 0.20649 0.0
H1887 H 0.16692 0.50041 0.19841 0.0
H1888 H 0.14752 0.53267 0.18476 0.0
H1889 H 0.09326 0.55403 0.2285 0.0
H1890 H 0.04857 0.65264 0.19537 0.0
H1891 H 0.05481 0.61303 0.19813 0.0
H1892 H 0.10441 0.58298 0.15264 0.0
C1893 C 0.13881 0.52147 0.19567 0.0
C1894 C 0.09529 0.5599 0.21172 0.0
C1895 C 0.15003 0.50305 0.20371 0.0
C1896 C 0.06328 0.64575 0.18786 0.0
C1897 C 0.06688 0.62304 0.18951 0.0
C1898 C 0.10173 0.57676 0.1692 0.0
C1899 C 0.11712 0.52599 0.20252 0.0
C1900 C 0.10643 0.54706 0.19593 0.0
C1901 C 0.08613 0.6135 0.18076 0.0
C1902 C 0.09153 0.58999 0.18531 0.0
H1903 H 0.10949 0.48174 0.23654 0.0
H1904 H 0.0898 0.5141 0.22243 0.0
H1905 H 0.11731 0.54587 0.16181 0.0
H1906 H 0.10972 0.65984 0.15921 0.0
H1907 H 0.11619 0.62023 0.1624 0.0
C1908 C 0.43903 0.35366 0.68743 0.0
C1909 C 0.42281 0.33942 0.67894 0.0
C1910 C 0.43512 0.37637 0.6888 0.0
C1911 C 0.39492 0.42051 0.67234 0.0
H1912 H 0.41415 0.44733 0.72718 0.0
C1913 C 0.3634 0.50637 0.69736 0.0
C1914 C 0.35787 0.50916 0.7197 0.0
C1915 C 0.37579 0.48815 0.69056 0.0
C1916 C 0.4085 0.44008 0.71185 0.0
H1917 H 0.39017 0.33792 0.66427 0.0
H1918 H 0.38296 0.37713 0.66745 0.0
H1919 H 0.42695 0.41063 0.71761 0.0
H1920 H 0.36136 0.49548 0.75257 0.0
H1921 H 0.38197 0.46312 0.7407 0.0
H1922 H 0.37501 0.44911 0.66746 0.0
C1923 C 0.39898 0.37106 0.67256 0.0
C1924 C 0.41619 0.4191 0.70612 0.0
C1925 C 0.40304 0.34845 0.67085 0.0
C1926 C 0.3655 0.49377 0.73524 0.0
C1927 C 0.37748 0.47528 0.7284 0.0
C1928 C 0.3869 0.44129 0.67827 0.0
C1929 C 0.41475 0.38528 0.68204 0.0
C1930 C 0.40908 0.40879 0.68654 0.0
C1931 C 0.38249 0.47202 0.70589 0.0
C1932 C 0.39317 0.45115 0.69836 0.0
H1933 H 0.45455 0.34718 0.69354 0.0
H1934 H 0.44788 0.38683 0.69568 0.0
H1935 H 0.38946 0.41336 0.65689 0.0
H1936 H 0.35796 0.5182 0.68507 0.0
H1937 H 0.37978 0.48656 0.6732 0.0
C1938 C 0.91003 0.14501 0.33204 0.0
C1939 C 0.9262 0.15537 0.31898 0.0
C1940 C 0.90619 0.12234 0.33002 0.0
C1941 C 0.90883 0.08058 0.28735 0.0
H1942 H 0.89219 0.0402 0.33416 0.0
C1943 C 0.87233 0.99515 0.26735 0.0
C1944 C 0.85398 0.98894 0.28012 0.0
C1945 C 0.8855 0.01301 0.27374 0.0
C1946 C 0.89669 0.05132 0.32088 0.0
H1947 H 0.95242 0.14967 0.29514 0.0
H1948 H 0.94559 0.11021 0.29161 0.0
H1949 H 0.90787 0.0762 0.34349 0.0
H1950 H 0.83536 0.99632 0.3099 0.0
H1951 H 0.85772 0.02772 0.32055 0.0
H1952 H 0.89663 0.05648 0.26474 0.0
C1953 C 0.93568 0.11969 0.30311 0.0
C1954 C 0.90575 0.07185 0.32626 0.0
C1955 C 0.93958 0.14229 0.30519 0.0
C1956 C 0.84938 0.00064 0.29965 0.0
C1957 C 0.86238 0.01857 0.3059 0.0
C1958 C 0.89958 0.06019 0.28198 0.0
C1959 C 0.91843 0.10966 0.31491 0.0
C1960 C 0.91152 0.08683 0.30954 0.0
C1961 C 0.88048 0.02514 0.29294 0.0
C1962 C 0.89294 0.04549 0.29868 0.0
H1963 H 0.89954 0.15457 0.34294 0.0
H1964 H 0.89273 0.11502 0.33927 0.0
H1965 H 0.91282 0.09193 0.2741 0.0
H1966 H 0.87646 0.98629 0.25236 0.0
H1967 H 0.89952 0.01741 0.26354 0.0
C1968 C 0.17995 0.39806 0.32256 0.0
C1969 C 0.18212 0.38991 0.30089 0.0
C1970 C 0.18781 0.38569 0.34054 0.0
C1971 C 0.2277 0.34204 0.35413 0.0
H1972 H 0.18627 0.3216 0.3985 0.0
C1973 C 0.23011 0.25578 0.38949 0.0
C1974 C 0.22559 0.25188 0.41188 0.0
C1975 C 0.22871 0.27701 0.38081 0.0
C1976 C 0.19825 0.3276 0.38663 0.0
H1977 H 0.1947 0.36275 0.2811 0.0
H1978 H 0.20845 0.3416 0.31215 0.0
H1979 H 0.17589 0.35198 0.37382 0.0
H1980 H 0.21662 0.26714 0.44298 0.0
H1981 H 0.21353 0.30464 0.42749 0.0
H1982 H 0.24953 0.31688 0.3659 0.0
C1983 C 0.20066 0.3574 0.31534 0.0
C1984 C 0.19229 0.34495 0.37252 0.0
C1985 C 0.19253 0.36944 0.29756 0.0
C1986 C 0.22025 0.26979 0.42566 0.0
C1987 C 0.21841 0.29114 0.41682 0.0
C1988 C 0.23364 0.3248 0.36818 0.0
C1989 C 0.19842 0.36534 0.33699 0.0
C1990 C 0.20658 0.35153 0.35545 0.0
C1991 C 0.22247 0.29487 0.39424 0.0
C1992 C 0.21856 0.31667 0.38382 0.0
H1993 H 0.17206 0.41382 0.32559 0.0
H1994 H 0.18582 0.39208 0.35713 0.0
H1995 H 0.23913 0.34705 0.34129 0.0
H1996 H 0.23439 0.24228 0.37854 0.0
H1997 H 0.23163 0.27928 0.3633 0.0
C1998 C 0.28752 0.73848 0.91529 0.0
C1999 C 0.27417 0.75476 0.90548 0.0
C2000 C 0.28923 0.71752 0.9058 0.0
C2001 C 0.26407 0.68 0.86446 0.0
H2002 H 0.32461 0.66241 0.85309 0.0
C2003 C 0.28914 0.62842 0.78949 0.0
C2004 C 0.30669 0.61333 0.79123 0.0
C2005 C 0.28336 0.64174 0.80735 0.0
C2006 C 0.30759 0.66674 0.85651 0.0
H2007 H 0.25104 0.76137 0.8789 0.0
H2008 H 0.25415 0.72494 0.86233 0.0
H2009 H 0.31717 0.69289 0.8782 0.0
H2010 H 0.33135 0.59975 0.81342 0.0
H2011 H 0.32117 0.62309 0.84471 0.0
H2012 H 0.25455 0.65434 0.84211 0.0
C2013 C 0.26325 0.72831 0.87736 0.0
C2014 C 0.30332 0.68422 0.87091 0.0
C2015 C 0.26163 0.74927 0.88674 0.0
C2016 C 0.31787 0.61135 0.81148 0.0
C2017 C 0.31208 0.62473 0.82939 0.0
C2018 C 0.26833 0.66248 0.8501 0.0
C2019 C 0.27747 0.71239 0.88646 0.0
C2020 C 0.28156 0.69148 0.87447 0.0
C2021 C 0.29494 0.64026 0.8274 0.0
C2022 C 0.29017 0.65615 0.84541 0.0
H2023 H 0.29728 0.74215 0.92982 0.0
H2024 H 0.30015 0.70548 0.91327 0.0
H2025 H 0.24712 0.68504 0.86718 0.0
H2026 H 0.28008 0.63029 0.77418 0.0
H2027 H 0.2703 0.65377 0.80516 0.0
C2028 C 0.72003 0.23151 0.57481 0.0
C2029 C 0.72777 0.24957 0.58715 0.0
C2030 C 0.71808 0.21068 0.58473 0.0
C2031 C 0.73699 0.177 0.63138 0.0
H2032 H 0.67657 0.15645 0.63683 0.0
C2033 C 0.70777 0.12972 0.7071 0.0
C2034 C 0.69134 0.11343 0.70532 0.0
C2035 C 0.71399 0.14217 0.68878 0.0
C2036 C 0.69363 0.16154 0.63508 0.0
H2037 H 0.74065 0.26001 0.61884 0.0
H2038 H 0.73804 0.22362 0.63583 0.0
H2039 H 0.6855 0.18552 0.6103 0.0
H2040 H 0.66889 0.09711 0.68265 0.0
H2041 H 0.67993 0.1189 0.65045 0.0
H2042 H 0.74515 0.15359 0.6565 0.0
C2043 C 0.73324 0.22549 0.61869 0.0
C2044 C 0.69872 0.17818 0.61987 0.0
C2045 C 0.73464 0.2463 0.60903 0.0
C2046 C 0.68149 0.10966 0.68462 0.0
C2047 C 0.68779 0.12215 0.66618 0.0
C2048 C 0.73198 0.16023 0.64636 0.0
C2049 C 0.72448 0.20761 0.60683 0.0
C2050 C 0.72026 0.18664 0.61858 0.0
C2051 C 0.70409 0.1386 0.66809 0.0
C2052 C 0.71006 0.15301 0.64912 0.0
H2053 H 0.7145 0.23375 0.55795 0.0
H2054 H 0.7112 0.1971 0.57533 0.0
H2055 H 0.75377 0.18317 0.63051 0.0
H2056 H 0.71575 0.1331 0.72276 0.0
H2057 H 0.72622 0.15502 0.69103 0.0
C2058 C 0.78865 0.75495 0.08671 0.0
C2059 C 0.77554 0.73837 0.09632 0.0
C2060 C 0.79057 0.77562 0.09681 0.0
C2061 C 0.76507 0.81206 0.13873 0.0
H2062 H 0.82509 0.83168 0.14943 0.0
C2063 C 0.78856 0.86621 0.21245 0.0
C2064 C 0.80544 0.88198 0.21018 0.0
C2065 C 0.78334 0.85209 0.19503 0.0
C2066 C 0.80819 0.82676 0.14621 0.0
H2067 H 0.75329 0.7308 0.12342 0.0
H2068 H 0.7567 0.76673 0.14099 0.0
H2069 H 0.81843 0.80072 0.12462 0.0
H2070 H 0.82953 0.89582 0.1875 0.0
H2071 H 0.82031 0.8711 0.157 0.0
H2072 H 0.75488 0.83766 0.16086 0.0
C2073 C 0.76545 0.76383 0.12565 0.0
C2074 C 0.80438 0.80901 0.132 0.0
C2075 C 0.76368 0.74316 0.11569 0.0
C2076 C 0.81655 0.88374 0.18984 0.0
C2077 C 0.81132 0.86956 0.17239 0.0
C2078 C 0.76886 0.82985 0.15289 0.0
C2079 C 0.7792 0.78015 0.11654 0.0
C2080 C 0.78284 0.80108 0.12865 0.0
C2081 C 0.79483 0.85341 0.17491 0.0
C2082 C 0.79052 0.83694 0.15731 0.0
H2083 H 0.79794 0.75178 0.07175 0.0
H2084 H 0.80116 0.78797 0.08937 0.0
H2085 H 0.74826 0.80651 0.13615 0.0
H2086 H 0.7796 0.86445 0.22784 0.0
H2087 H 0.77078 0.83962 0.19764 0.0
C2088 C 0.40722 0.22148 0.25445 0.0
C2089 C 0.39497 0.22804 0.23585 0.0
C2090 C 0.39693 0.21907 0.27501 0.0
C2091 C 0.34473 0.23233 0.30499 0.0
H2092 H 0.36079 0.18182 0.34089 0.0
C2093 C 0.29444 0.21222 0.38208 0.0
C2094 C 0.28977 0.18989 0.38595 0.0
C2095 C 0.3109 0.21827 0.36717 0.0
C2096 C 0.35598 0.19592 0.331 0.0
H2097 H 0.36238 0.23758 0.22435 0.0
H2098 H 0.34442 0.2327 0.25971 0.0
H2099 H 0.38196 0.19017 0.30775 0.0
H2100 H 0.2989 0.15627 0.37808 0.0
H2101 H 0.32685 0.16668 0.35091 0.0
H2102 H 0.3178 0.23719 0.32701 0.0
C2103 C 0.36206 0.22996 0.25875 0.0
C2104 C 0.36837 0.20093 0.31215 0.0
C2105 C 0.37236 0.23262 0.23834 0.0
C2106 C 0.30236 0.17361 0.37536 0.0
C2107 C 0.31846 0.17965 0.3599 0.0
C2108 C 0.33215 0.22711 0.32354 0.0
C2109 C 0.37414 0.22299 0.27733 0.0
C2110 C 0.36262 0.21896 0.29867 0.0
C2111 C 0.32255 0.2021 0.3552 0.0
C2112 C 0.33737 0.20864 0.33666 0.0
H2113 H 0.42471 0.21797 0.25309 0.0
H2114 H 0.40682 0.21402 0.28902 0.0
H2115 H 0.34008 0.24663 0.29531 0.0
H2116 H 0.28507 0.22504 0.39036 0.0
H2117 H 0.31403 0.23569 0.36463 0.0
C2118 C 0.21523 0.80634 0.86821 0.0
C2119 C 0.21048 0.81778 0.88784 0.0
C2120 C 0.1983 0.79832 0.85491 0.0
C2121 C 0.14269 0.80851 0.83733 0.0
H2122 H 0.14675 0.74898 0.81398 0.0
C2123 C 0.08652 0.77909 0.76596 0.0
C2124 C 0.09758 0.76777 0.74893 0.0
C2125 C 0.09683 0.78268 0.78634 0.0
C2126 C 0.14538 0.76566 0.82028 0.0
H2127 H 0.18419 0.82973 0.909 0.0
H2128 H 0.15421 0.81622 0.88502 0.0
H2129 H 0.17132 0.76048 0.84374 0.0
H2130 H 0.12783 0.75054 0.74038 0.0
H2131 H 0.14586 0.7571 0.77554 0.0
H2132 H 0.11769 0.8142 0.81301 0.0
C2133 C 0.17122 0.81334 0.88025 0.0
C2134 C 0.15935 0.77218 0.83741 0.0
C2135 C 0.1883 0.82104 0.89391 0.0
C2136 C 0.1188 0.75934 0.75308 0.0
C2137 C 0.1291 0.76298 0.77338 0.0
C2138 C 0.12882 0.80207 0.82 0.0
C2139 C 0.17614 0.80178 0.86071 0.0
C2140 C 0.1586 0.79385 0.84564 0.0
C2141 C 0.11842 0.77502 0.79015 0.0
C2142 C 0.1305 0.78076 0.81079 0.0
H2143 H 0.23214 0.80331 0.86316 0.0
H2144 H 0.20256 0.78971 0.83981 0.0
H2145 H 0.1419 0.82536 0.8433 0.0
H2146 H 0.07009 0.78569 0.76339 0.0
H2147 H 0.088 0.79174 0.79899 0.0
C2148 C 0.81033 0.32599 0.6101 0.0
C2149 C 0.79112 0.31296 0.61063 0.0
C2150 C 0.82853 0.32052 0.6233 0.0
C2151 C 0.85251 0.27437 0.65581 0.0
H2152 H 0.8766 0.32061 0.69295 0.0
C2153 C 0.88805 0.25866 0.74185 0.0
C2154 C 0.90609 0.27124 0.74922 0.0
C2155 C 0.87878 0.2626 0.72113 0.0
C2156 C 0.87043 0.30757 0.68238 0.0
H2157 H 0.7762 0.28364 0.625 0.0
H2158 H 0.80755 0.27437 0.64796 0.0
H2159 H 0.85137 0.33024 0.66306 0.0
H2160 H 0.92924 0.29709 0.74019 0.0
H2161 H 0.91285 0.30405 0.70399 0.0
H2162 H 0.87073 0.25162 0.67581 0.0
C2163 C 0.80878 0.28866 0.63725 0.0
C2164 C 0.85598 0.31309 0.66525 0.0
C2165 C 0.79066 0.29415 0.62424 0.0
C2166 C 0.9153 0.28715 0.73501 0.0
C2167 C 0.90588 0.29122 0.71434 0.0
C2168 C 0.86688 0.26886 0.67295 0.0
C2169 C 0.82787 0.3018 0.63705 0.0
C2170 C 0.84627 0.29647 0.65231 0.0
C2171 C 0.88726 0.27927 0.70738 0.0
C2172 C 0.87538 0.28533 0.68687 0.0
H2173 H 0.81123 0.34053 0.5997 0.0
H2174 H 0.84307 0.33092 0.62279 0.0
H2175 H 0.84563 0.26125 0.64579 0.0
H2176 H 0.88065 0.24619 0.75234 0.0
H2177 H 0.86429 0.25326 0.71633 0.0
C2178 C 0.58667 0.71943 0.23624 0.0
C2179 C 0.59717 0.731 0.25347 0.0
C2180 C 0.59808 0.71462 0.21671 0.0
C2181 C 0.65278 0.70026 0.20126 0.0
H2182 H 0.6386 0.71273 0.14004 0.0
C2183 C 0.7168 0.68653 0.13444 0.0
C2184 C 0.71042 0.67762 0.11401 0.0
C2185 C 0.70105 0.69334 0.14968 0.0
C2186 C 0.64255 0.70882 0.15704 0.0
H2187 H 0.62723 0.7482 0.26288 0.0
H2188 H 0.64709 0.73941 0.22904 0.0
H2189 H 0.61373 0.72548 0.16955 0.0
H2190 H 0.68248 0.6695 0.09318 0.0
H2191 H 0.65458 0.68089 0.1204 0.0
H2192 H 0.68113 0.68323 0.18926 0.0
C2193 C 0.6301 0.73405 0.23074 0.0
C2194 C 0.62842 0.71622 0.17384 0.0
C2195 C 0.61869 0.73906 0.25009 0.0
C2196 C 0.68782 0.67616 0.1089 0.0
C2197 C 0.67191 0.68278 0.12441 0.0
C2198 C 0.66663 0.69262 0.18461 0.0
C2199 C 0.62015 0.72118 0.21425 0.0
C2200 C 0.6338 0.71243 0.19607 0.0
C2201 C 0.67842 0.69114 0.14511 0.0
C2202 C 0.66207 0.69733 0.16233 0.0
H2203 H 0.57004 0.71315 0.23825 0.0
H2204 H 0.59013 0.70465 0.20415 0.0
H2205 H 0.65696 0.69672 0.21831 0.0
H2206 H 0.73408 0.68843 0.13868 0.0
H2207 H 0.7067 0.70039 0.16512 0.0
C2208 C 0.35979 0.29231 0.16561 0.0
C2209 C 0.3824 0.29331 0.17059 0.0
C2210 C 0.34524 0.30786 0.17423 0.0
C2211 C 0.33989 0.36209 0.20099 0.0
H2212 H 0.28611 0.33551 0.22349 0.0
C2213 C 0.25088 0.38441 0.2464 0.0
C2214 C 0.24464 0.40246 0.23324 0.0
C2215 C 0.27089 0.37359 0.2426 0.0
C2216 C 0.30117 0.34325 0.21773 0.0
H2217 H 0.40778 0.31211 0.18744 0.0
H2218 H 0.38209 0.33945 0.2028 0.0
H2219 H 0.31478 0.31218 0.20821 0.0
H2220 H 0.2552 0.42432 0.20685 0.0
H2221 H 0.2897 0.40505 0.19979 0.0
H2222 H 0.32609 0.39326 0.21061 0.0
C2223 C 0.37573 0.32661 0.1921 0.0
C2224 C 0.31747 0.32987 0.2086 0.0
C2225 C 0.39041 0.31102 0.18329 0.0
C2226 C 0.25949 0.4104 0.21724 0.0
C2227 C 0.27938 0.39942 0.21327 0.0
C2228 C 0.3235 0.37557 0.21021 0.0
C2229 C 0.3529 0.32468 0.18824 0.0
C2230 C 0.33675 0.33915 0.19961 0.0
C2231 C 0.28494 0.38041 0.22538 0.0
C2232 C 0.30375 0.36631 0.2183 0.0
H2233 H 0.35317 0.27904 0.1556 0.0
H2234 H 0.32782 0.30633 0.17043 0.0
H2235 H 0.35463 0.36967 0.19426 0.0
H2236 H 0.23995 0.37814 0.25912 0.0
H2237 H 0.27494 0.35932 0.2526 0.0
C2238 C 0.87016 0.20317 0.79838 0.0
C2239 C 0.89018 0.19995 0.80962 0.0
C2240 C 0.85808 0.18523 0.79064 0.0
C2241 C 0.84503 0.12855 0.80197 0.0
H2242 H 0.8163 0.13289 0.74487 0.0
C2243 C 0.769 0.07516 0.77745 0.0
C2244 C 0.75117 0.08898 0.77198 0.0
C2245 C 0.79049 0.08378 0.77852 0.0
C2246 C 0.82442 0.13124 0.76073 0.0
H2247 H 0.91339 0.17536 0.82143 0.0
H2248 H 0.89165 0.14362 0.80832 0.0
H2249 H 0.84682 0.15765 0.75376 0.0
H2250 H 0.74179 0.12211 0.76216 0.0
H2251 H 0.77902 0.13694 0.76364 0.0
H2252 H 0.82157 0.10308 0.80943 0.0
C2253 C 0.88559 0.1602 0.80539 0.0
C2254 C 0.84184 0.14539 0.76582 0.0
C2255 C 0.89796 0.1783 0.81287 0.0
C2256 C 0.75523 0.11114 0.76661 0.0
C2257 C 0.77658 0.11958 0.76725 0.0
C2258 C 0.82752 0.11434 0.79686 0.0
C2259 C 0.86559 0.16358 0.79411 0.0
C2260 C 0.85154 0.14493 0.78688 0.0
C2261 C 0.79439 0.10612 0.77355 0.0
C2262 C 0.81637 0.11637 0.7766 0.0
H2263 H 0.8638 0.21964 0.79541 0.0
H2264 H 0.84254 0.18832 0.78233 0.0
H2265 H 0.85222 0.12791 0.81834 0.0
H2266 H 0.76624 0.058 0.78169 0.0
H2267 H 0.80397 0.07311 0.78348 0.0
C2268 C 0.74486 0.89084 0.30068 0.0
C2269 C 0.74771 0.90823 0.28558 0.0
C2270 C 0.72385 0.88358 0.30639 0.0
C2271 C 0.66862 0.87704 0.28586 0.0
H2272 H 0.65764 0.86042 0.34679 0.0
C2273 C 0.5976 0.81775 0.31312 0.0
C2274 C 0.60647 0.79932 0.32414 0.0
C2275 C 0.61057 0.83663 0.30964 0.0
C2276 C 0.66027 0.86524 0.32976 0.0
H2277 H 0.73065 0.93172 0.26463 0.0
H2278 H 0.6934 0.91841 0.27433 0.0
H2279 H 0.68871 0.8845 0.33795 0.0
H2280 H 0.63535 0.7865 0.34098 0.0
H2281 H 0.65764 0.81942 0.3354 0.0
H2282 H 0.64084 0.8566 0.27762 0.0
C2283 C 0.70769 0.91071 0.28185 0.0
C2284 C 0.67804 0.87899 0.32469 0.0
C2285 C 0.72892 0.9183 0.27634 0.0
C2286 C 0.62811 0.80041 0.33235 0.0
C2287 C 0.64082 0.81933 0.3293 0.0
C2288 C 0.65072 0.86327 0.29096 0.0
C2289 C 0.70503 0.89333 0.29705 0.0
C2290 C 0.68305 0.88409 0.30261 0.0
C2291 C 0.63233 0.83751 0.31766 0.0
C2292 C 0.6471 0.8564 0.31285 0.0
H2293 H 0.75893 0.88276 0.30822 0.0
H2294 H 0.72237 0.86988 0.31782 0.0
H2295 H 0.67216 0.88067 0.2687 0.0
H2296 H 0.58097 0.81724 0.30653 0.0
H2297 H 0.60371 0.85043 0.30055 0.0
C2298 C 0.24669 0.60387 0.69897 0.0
C2299 C 0.24975 0.58709 0.71468 0.0
C2300 C 0.22563 0.61121 0.69361 0.0
C2301 C 0.17129 0.61908 0.71641 0.0
H2302 H 0.15903 0.63705 0.65611 0.0
C2303 C 0.10009 0.67922 0.69062 0.0
C2304 C 0.10899 0.69797 0.68016 0.0
C2305 C 0.11314 0.66038 0.69393 0.0
C2306 C 0.16203 0.63185 0.67297 0.0
H2307 H 0.23307 0.56449 0.73686 0.0
H2308 H 0.19569 0.57788 0.72772 0.0
H2309 H 0.18957 0.61185 0.66359 0.0
H2310 H 0.13818 0.71152 0.66442 0.0
H2311 H 0.16065 0.67858 0.66969 0.0
H2312 H 0.14427 0.64008 0.72577 0.0
C2313 C 0.20984 0.58511 0.7195 0.0
C2314 C 0.17948 0.61747 0.67727 0.0
C2315 C 0.23113 0.57745 0.72468 0.0
C2316 C 0.1309 0.69736 0.6726 0.0
C2317 C 0.1437 0.67846 0.67546 0.0
C2318 C 0.15363 0.6334 0.71206 0.0
C2319 C 0.20696 0.60211 0.7039 0.0
C2320 C 0.18502 0.61189 0.69912 0.0
C2321 C 0.13504 0.65988 0.68631 0.0
C2322 C 0.1496 0.64071 0.69041 0.0
H2323 H 0.26065 0.61154 0.6908 0.0
H2324 H 0.22404 0.6246 0.68184 0.0
H2325 H 0.17523 0.61512 0.7334 0.0
H2326 H 0.08325 0.67933 0.6967 0.0
H2327 H 0.10618 0.64625 0.70242 0.0
C2328 C 0.79357 0.62627 0.71284 0.0
C2329 C 0.81088 0.61098 0.71043 0.0
C2330 C 0.78726 0.63967 0.69528 0.0
C2331 C 0.80884 0.66466 0.64497 0.0
H2332 H 0.74752 0.68145 0.63691 0.0
C2333 C 0.78412 0.73468 0.58588 0.0
C2334 C 0.77082 0.7509 0.59589 0.0
C2335 C 0.78688 0.71406 0.59582 0.0
C2336 C 0.76469 0.67685 0.63891 0.0
H2337 H 0.83481 0.59744 0.68743 0.0
H2338 H 0.82373 0.62109 0.65657 0.0
H2339 H 0.75679 0.65113 0.6618 0.0
H2340 H 0.74889 0.75768 0.62344 0.0
H2341 H 0.7538 0.72176 0.6408 0.0
H2342 H 0.8168 0.69086 0.62266 0.0
C2343 C 0.81519 0.62269 0.67221 0.0
C2344 C 0.77001 0.65954 0.65316 0.0
C2345 C 0.82151 0.60915 0.68985 0.0
C2346 C 0.75938 0.74562 0.61539 0.0
C2347 C 0.76205 0.72497 0.62525 0.0
C2348 C 0.80351 0.68193 0.63066 0.0
C2349 C 0.79805 0.63815 0.67481 0.0
C2350 C 0.79219 0.65376 0.6569 0.0
C2351 C 0.77625 0.70919 0.61585 0.0
C2352 C 0.78144 0.68864 0.62804 0.0
H2353 H 0.78495 0.62809 0.72841 0.0
H2354 H 0.77428 0.65169 0.69796 0.0
H2355 H 0.82609 0.66074 0.64765 0.0
H2356 H 0.79304 0.73814 0.57076 0.0
H2357 H 0.79773 0.70211 0.58811 0.0
C2358 C 0.719 0.26782 0.07564 0.0
C2359 C 0.70799 0.24941 0.08452 0.0
C2360 C 0.71412 0.28915 0.08336 0.0
C2361 C 0.67161 0.32055 0.11438 0.0
H2362 H 0.72042 0.35355 0.13947 0.0
C2363 C 0.66484 0.36894 0.19428 0.0
C2364 C 0.67389 0.39024 0.19572 0.0
C2365 C 0.66797 0.35619 0.17539 0.0
C2366 C 0.70665 0.34483 0.1321 0.0
H2367 H 0.68261 0.23891 0.10758 0.0
H2368 H 0.6741 0.27565 0.12073 0.0
H2369 H 0.7279 0.32263 0.11445 0.0
H2370 H 0.69331 0.41494 0.17853 0.0
H2371 H 0.6994 0.3921 0.14548 0.0
H2372 H 0.65043 0.34165 0.13325 0.0
C2373 C 0.68645 0.27386 0.10789 0.0
C2374 C 0.71091 0.32718 0.11775 0.0
C2375 C 0.69153 0.25273 0.10052 0.0
C2376 C 0.68607 0.3986 0.17778 0.0
C2377 C 0.6896 0.38558 0.15895 0.0
C2378 C 0.66737 0.33802 0.12877 0.0
C2379 C 0.69781 0.2923 0.09964 0.0
C2380 C 0.69344 0.31423 0.10963 0.0
C2381 C 0.68052 0.36427 0.15763 0.0
C2382 C 0.68487 0.34965 0.13853 0.0
H2383 H 0.7318 0.26567 0.06331 0.0
H2384 H 0.72316 0.30312 0.07678 0.0
H2385 H 0.65781 0.31109 0.10804 0.0
H2386 H 0.65531 0.36209 0.2078 0.0
H2387 H 0.66105 0.33969 0.17492 0.0
C2388 C 0.29898 0.75303 0.38917 0.0
C2389 C 0.28493 0.75054 0.40748 0.0
C2390 C 0.30403 0.77389 0.38103 0.0
C2391 C 0.28269 0.82899 0.37473 0.0
H2392 H 0.34242 0.84 0.35423 0.0
C2393 C 0.30772 0.90086 0.31498 0.0
C2394 C 0.31792 0.89235 0.29591 0.0
C2395 C 0.30452 0.88736 0.33354 0.0
C2396 C 0.32573 0.83733 0.36011 0.0
H2397 H 0.26512 0.76807 0.43164 0.0
H2398 H 0.27371 0.80499 0.41686 0.0
H2399 H 0.33522 0.80907 0.37903 0.0
H2400 H 0.33318 0.86331 0.28146 0.0
H2401 H 0.32798 0.84009 0.31377 0.0
H2402 H 0.27313 0.8567 0.35475 0.0
C2403 C 0.28091 0.79057 0.4091 0.0
C2404 C 0.3216 0.81965 0.37426 0.0
C2405 C 0.27605 0.76952 0.41754 0.0
C2406 C 0.32519 0.87033 0.29586 0.0
C2407 C 0.32239 0.85708 0.31442 0.0
C2408 C 0.28686 0.84682 0.36057 0.0
C2409 C 0.29506 0.79288 0.39082 0.0
C2410 C 0.29991 0.81466 0.38082 0.0
C2411 C 0.31196 0.86539 0.33339 0.0
C2412 C 0.30827 0.85044 0.35235 0.0
H2413 H 0.30619 0.73881 0.38105 0.0
H2414 H 0.31464 0.7751 0.36667 0.0
H2415 H 0.26581 0.82546 0.37951 0.0
H2416 H 0.30188 0.91777 0.31541 0.0
H2417 H 0.29636 0.89407 0.34798 0.0
C2418 C 0.18964 0.24897 0.89099 0.0
C2419 C 0.20417 0.25152 0.90891 0.0
C2420 C 0.18525 0.22818 0.88227 0.0
C2421 C 0.20886 0.17364 0.87439 0.0
H2422 H 0.14965 0.16094 0.85346 0.0
C2423 C 0.18663 0.09987 0.81579 0.0
C2424 C 0.17584 0.10733 0.79661 0.0
C2425 C 0.18934 0.11402 0.83397 0.0
C2426 C 0.16623 0.16413 0.85938 0.0
H2427 H 0.2254 0.23407 0.93185 0.0
H2428 H 0.21788 0.1973 0.91617 0.0
H2429 H 0.15577 0.19211 0.8782 0.0
H2430 H 0.15888 0.13514 0.78169 0.0
H2431 H 0.16318 0.15945 0.81332 0.0
H2432 H 0.21933 0.14603 0.85471 0.0
C2433 C 0.20985 0.21163 0.90908 0.0
C2434 C 0.16975 0.18198 0.87351 0.0
C2435 C 0.21408 0.23261 0.91808 0.0
C2436 C 0.16735 0.12891 0.79617 0.0
C2437 C 0.16967 0.1428 0.81436 0.0
C2438 C 0.20529 0.15563 0.86027 0.0
C2439 C 0.19533 0.20925 0.89107 0.0
C2440 C 0.19122 0.18754 0.88038 0.0
C2441 C 0.18081 0.13562 0.83338 0.0
C2442 C 0.18406 0.15132 0.85192 0.0
H2443 H 0.18164 0.26313 0.88352 0.0
H2444 H 0.17432 0.22702 0.86815 0.0
H2445 H 0.22558 0.17756 0.87937 0.0
H2446 H 0.19343 0.08334 0.81653 0.0
H2447 H 0.19803 0.10812 0.84844 0.0
C2448 C 0.68378 0.80886 0.59977 0.0
C2449 C 0.70239 0.81996 0.60814 0.0
C2450 C 0.66521 0.80538 0.61322 0.0
C2451 C 0.63768 0.82619 0.66328 0.0
H2452 H 0.62088 0.76558 0.67552 0.0
C2453 C 0.61064 0.79846 0.74802 0.0
C2454 C 0.59281 0.78386 0.75082 0.0
C2455 C 0.61835 0.80373 0.72704 0.0
C2456 C 0.62493 0.78263 0.67189 0.0
H2457 H 0.71587 0.8368 0.63673 0.0
H2458 H 0.68354 0.83119 0.65984 0.0
H2459 H 0.64509 0.77379 0.64405 0.0
H2460 H 0.56902 0.76335 0.73367 0.0
H2461 H 0.58309 0.77227 0.69648 0.0
H2462 H 0.61864 0.83497 0.69171 0.0
C2463 C 0.68324 0.82504 0.64303 0.0
C2464 C 0.63878 0.78732 0.65392 0.0
C2465 C 0.70183 0.82811 0.62984 0.0
C2466 C 0.58276 0.77468 0.73199 0.0
C2467 C 0.5908 0.77973 0.71079 0.0
C2468 C 0.62387 0.82153 0.68112 0.0
C2469 C 0.66483 0.81346 0.635 0.0
C2470 C 0.64609 0.80904 0.65013 0.0
C2471 C 0.60862 0.79442 0.70819 0.0
C2472 C 0.61823 0.79961 0.68624 0.0
H2473 H 0.68385 0.80232 0.58312 0.0
H2474 H 0.65122 0.79634 0.60669 0.0
H2475 H 0.64281 0.84311 0.66052 0.0
H2476 H 0.61872 0.80596 0.76212 0.0
H2477 H 0.63235 0.81479 0.72562 0.0
C2478 C 0.88098 0.20843 0.25054 0.0
C2479 C 0.90296 0.21581 0.25169 0.0
C2480 C 0.86915 0.20997 0.23098 0.0
C2481 C 0.84382 0.22881 0.19309 0.0
H2482 H 0.86426 0.20173 0.13881 0.0
C2483 C 0.78384 0.21667 0.12155 0.0
C2484 C 0.78421 0.19549 0.11212 0.0
C2485 C 0.80136 0.2239 0.13465 0.0
C2486 C 0.85836 0.20944 0.15383 0.0
H2487 H 0.92993 0.23014 0.23293 0.0
H2488 H 0.90897 0.23254 0.19818 0.0
H2489 H 0.88959 0.20539 0.17013 0.0
H2490 H 0.80358 0.16563 0.10815 0.0
H2491 H 0.83368 0.17779 0.13183 0.0
H2492 H 0.81231 0.23154 0.17779 0.0
C2493 C 0.90109 0.2257 0.21272 0.0
C2494 C 0.87294 0.21176 0.17162 0.0
C2495 C 0.91303 0.22431 0.23253 0.0
C2496 C 0.80281 0.18201 0.1153 0.0
C2497 C 0.82019 0.18911 0.12869 0.0
C2498 C 0.82929 0.22643 0.17545 0.0
C2499 C 0.8789 0.21889 0.21197 0.0
C2500 C 0.86547 0.22066 0.19168 0.0
C2501 C 0.81946 0.20996 0.13892 0.0
C2502 C 0.83613 0.21601 0.15587 0.0
H2503 H 0.87265 0.20171 0.26488 0.0
H2504 H 0.85223 0.20412 0.23074 0.0
H2505 H 0.83776 0.23601 0.20832 0.0
H2506 H 0.76991 0.2276 0.11898 0.0
H2507 H 0.80047 0.24024 0.14187 0.0
C2508 C 0.21287 0.70799 0.36526 0.0
C2509 C 0.20985 0.69341 0.38305 0.0
C2510 C 0.19508 0.71409 0.35197 0.0
C2511 C 0.14018 0.69519 0.33427 0.0
H2512 H 0.13886 0.75314 0.307 0.0
C2513 C 0.08037 0.71806 0.26277 0.0
C2514 C 0.09262 0.72412 0.24402 0.0
C2515 C 0.09059 0.71727 0.28354 0.0
C2516 C 0.13885 0.73699 0.31471 0.0
H2517 H 0.18557 0.67424 0.40119 0.0
H2518 H 0.1544 0.68509 0.37802 0.0
H2519 H 0.16476 0.74583 0.33699 0.0
H2520 H 0.12453 0.73528 0.23224 0.0
H2521 H 0.14208 0.73455 0.26837 0.0
H2522 H 0.11462 0.68628 0.31144 0.0
C2523 C 0.17064 0.69154 0.37419 0.0
C2524 C 0.15378 0.73273 0.33174 0.0
C2525 C 0.18851 0.68535 0.38747 0.0
C2526 C 0.11477 0.73046 0.24646 0.0
C2527 C 0.12476 0.73019 0.26714 0.0
C2528 C 0.12507 0.69955 0.31736 0.0
C2529 C 0.17375 0.70591 0.35622 0.0
C2530 C 0.15526 0.71151 0.34108 0.0
C2531 C 0.11295 0.72317 0.2858 0.0
C2532 C 0.12491 0.72022 0.30687 0.0
H2533 H 0.22906 0.71452 0.36136 0.0
H2534 H 0.1982 0.72482 0.338 0.0
H2535 H 0.14093 0.67864 0.34101 0.0
H2536 H 0.06327 0.71303 0.26122 0.0
H2537 H 0.08121 0.71174 0.29774 0.0
C2538 C 0.27372 0.29451 0.86329 0.0
C2539 C 0.27749 0.30898 0.88103 0.0
C2540 C 0.29065 0.28954 0.84847 0.0
C2541 C 0.35091 0.28983 0.84011 0.0
H2542 H 0.33438 0.29371 0.77839 0.0
C2543 C 0.41213 0.28762 0.76489 0.0
C2544 C 0.40406 0.27678 0.74606 0.0
C2545 C 0.3986 0.28986 0.78361 0.0
C2546 C 0.33924 0.29226 0.79555 0.0
H2547 H 0.30232 0.32884 0.89764 0.0
H2548 H 0.33189 0.32016 0.87157 0.0
H2549 H 0.30692 0.30085 0.80667 0.0
H2550 H 0.37676 0.25826 0.73244 0.0
H2551 H 0.3537 0.26123 0.76508 0.0
H2552 H 0.38341 0.28118 0.8287 0.0
C2553 C 0.3158 0.31269 0.86922 0.0
C2554 C 0.32348 0.29638 0.81174 0.0
C2555 C 0.29881 0.31777 0.88403 0.0
C2556 C 0.38322 0.26679 0.74674 0.0
C2557 C 0.36996 0.26869 0.76536 0.0
C2558 C 0.36679 0.2856 0.82378 0.0
C2559 C 0.31176 0.29883 0.85109 0.0
C2560 C 0.32902 0.29493 0.83418 0.0
C2561 C 0.37703 0.28112 0.78361 0.0
C2562 C 0.36097 0.28643 0.80133 0.0
H2563 H 0.25758 0.28727 0.8606 0.0
H2564 H 0.28716 0.27852 0.83481 0.0
H2565 H 0.35561 0.28864 0.85733 0.0
H2566 H 0.42816 0.29556 0.76458 0.0
H2567 H 0.40449 0.29949 0.79748 0.0
C2568 C 0.73338 0.57549 0.78226 0.0
C2569 C 0.75208 0.58751 0.77562 0.0
C2570 C 0.71274 0.58595 0.78357 0.0
C2571 C 0.6815 0.6342 0.76417 0.0
H2572 H 0.6575 0.63822 0.82343 0.0
C2573 C 0.63403 0.71011 0.79333 0.0
C2574 C 0.61673 0.70793 0.80865 0.0
C2575 C 0.64657 0.69181 0.78715 0.0
C2576 C 0.66358 0.63692 0.80665 0.0
H2577 H 0.76388 0.61925 0.76402 0.0
H2578 H 0.72798 0.63718 0.7656 0.0
H2579 H 0.68625 0.61112 0.81531 0.0
H2580 H 0.5987 0.68462 0.82908 0.0
H2581 H 0.62058 0.65256 0.8181 0.0
H2582 H 0.65943 0.66036 0.75556 0.0
C2583 C 0.72915 0.61987 0.77002 0.0
C2584 C 0.68002 0.62136 0.80203 0.0
C2585 C 0.7497 0.60966 0.76926 0.0
C2586 C 0.61204 0.68691 0.81738 0.0
C2587 C 0.62458 0.66853 0.81111 0.0
C2588 C 0.66494 0.64957 0.76871 0.0
C2589 C 0.71057 0.60829 0.7776 0.0
C2590 C 0.68972 0.62052 0.78098 0.0
C2591 C 0.64206 0.6708 0.79599 0.0
C2592 C 0.65647 0.65177 0.79024 0.0
H2593 H 0.7349 0.5584 0.78732 0.0
H2594 H 0.6986 0.57676 0.78955 0.0
H2595 H 0.68863 0.6337 0.74776 0.0
H2596 H 0.63812 0.72603 0.78627 0.0
H2597 H 0.6602 0.69428 0.77582 0.0
C2598 C 0.24653 0.88738 0.23595 0.0
C2599 C 0.25264 0.90615 0.22375 0.0
C2600 C 0.22628 0.87705 0.23217 0.0
C2601 C 0.1863 0.86813 0.18817 0.0
H2602 H 0.15231 0.84075 0.23505 0.0
C2603 C 0.11389 0.80786 0.17061 0.0
C2604 C 0.1149 0.78818 0.18292 0.0
C2605 C 0.12737 0.82583 0.17616 0.0
C2606 C 0.16162 0.84831 0.22177 0.0
H2607 H 0.24184 0.92935 0.19864 0.0
H2608 H 0.20644 0.91115 0.19198 0.0
H2609 H 0.18198 0.86637 0.24431 0.0
H2610 H 0.13044 0.77221 0.21104 0.0
H2611 H 0.15387 0.80323 0.22046 0.0
H2612 H 0.16652 0.84937 0.16564 0.0
C2613 C 0.21743 0.90442 0.20439 0.0
C2614 C 0.17858 0.86298 0.22708 0.0
C2615 C 0.23765 0.91489 0.20829 0.0
C2616 C 0.12929 0.78704 0.20111 0.0
C2617 C 0.14259 0.80495 0.20668 0.0
C2618 C 0.16934 0.8534 0.18284 0.0
C2619 C 0.21171 0.88518 0.21604 0.0
C2620 C 0.19153 0.87253 0.21036 0.0
C2621 C 0.1419 0.82451 0.19424 0.0
C2622 C 0.15729 0.8428 0.19962 0.0
H2623 H 0.25764 0.88028 0.24805 0.0
H2624 H 0.22247 0.86211 0.24125 0.0
H2625 H 0.19611 0.8751 0.17492 0.0
H2626 H 0.10292 0.80928 0.15656 0.0
H2627 H 0.12643 0.84074 0.16632 0.0
C2628 C 0.24851 0.11615 0.73766 0.0
C2629 C 0.24428 0.09577 0.72741 0.0
C2630 C 0.26874 0.12675 0.73465 0.0
C2631 C 0.31346 0.13104 0.69439 0.0
H2632 H 0.34037 0.16681 0.74017 0.0
C2633 C 0.38664 0.19119 0.67815 0.0
C2634 C 0.38295 0.21252 0.6866 0.0
C2635 C 0.3728 0.17366 0.6842 0.0
C2636 C 0.33308 0.15682 0.72724 0.0
H2637 H 0.25843 0.07002 0.70682 0.0
H2638 H 0.29381 0.08858 0.70164 0.0
H2639 H 0.31065 0.14134 0.74973 0.0
H2640 H 0.36153 0.23214 0.70768 0.0
H2641 H 0.3378 0.20178 0.71827 0.0
H2642 H 0.33547 0.14711 0.6718 0.0
C2643 C 0.28133 0.09643 0.71178 0.0
C2644 C 0.31607 0.14229 0.7327 0.0
C2645 C 0.26109 0.08578 0.71485 0.0
C2646 C 0.36514 0.21592 0.70111 0.0
C2647 C 0.35154 0.19847 0.70728 0.0
C2648 C 0.33055 0.14556 0.68893 0.0
C2649 C 0.28522 0.11721 0.72134 0.0
C2650 C 0.30558 0.12979 0.71622 0.0
C2651 C 0.35523 0.17717 0.69897 0.0
C2652 C 0.33998 0.15911 0.7052 0.0
H2653 H 0.23597 0.12426 0.74752 0.0
H2654 H 0.27111 0.14287 0.74203 0.0
H2655 H 0.30559 0.12174 0.68129 0.0
H2656 H 0.40022 0.18801 0.66694 0.0
H2657 H 0.37595 0.15737 0.67753 0.0
C2658 C 0.75529 0.40489 0.28194 0.0
C2659 C 0.73874 0.39599 0.26829 0.0
C2660 C 0.77501 0.39343 0.28544 0.0
C2661 C 0.80962 0.34783 0.26397 0.0
H2662 H 0.82728 0.34104 0.32518 0.0
C2663 C 0.86355 0.27595 0.2934 0.0
C2664 C 0.87963 0.27978 0.30971 0.0
C2665 C 0.84881 0.29255 0.28735 0.0
C2666 C 0.82284 0.34309 0.30798 0.0
H2667 H 0.73038 0.36854 0.2468 0.0
H2668 H 0.76468 0.34853 0.25302 0.0
H2669 H 0.79724 0.36616 0.3158 0.0
H2670 H 0.893 0.30425 0.33223 0.0
H2671 H 0.86709 0.33335 0.32158 0.0
H2672 H 0.83486 0.32436 0.25621 0.0
C2673 C 0.76247 0.36443 0.26093 0.0
C2674 C 0.80563 0.35748 0.30259 0.0
C2675 C 0.74273 0.37583 0.25749 0.0
C2676 C 0.88074 0.30073 0.31969 0.0
C2677 C 0.86589 0.31737 0.31364 0.0
C2678 C 0.82683 0.33348 0.26935 0.0
C2679 C 0.77864 0.3729 0.27527 0.0
C2680 C 0.79853 0.35963 0.28059 0.0
C2681 C 0.84975 0.31342 0.29741 0.0
C2682 C 0.83329 0.33056 0.29146 0.0
H2683 H 0.75281 0.42045 0.29043 0.0
H2684 H 0.78729 0.4005 0.29635 0.0
H2685 H 0.80475 0.34944 0.24683 0.0
H2686 H 0.86224 0.26006 0.28529 0.0
H2687 H 0.83634 0.28884 0.27506 0.0
loop_
_geom_bond_atom_site_label_1
_geom_bond_atom_site_label_2
_geom_bond_distance
_geom_bond_site_symmetry_2
_ccdc_geom_bond_type
Fe0 O2 1.918 . S
Fe0 O5 1.997 . S
Fe0 O6 2.002 . S
Fe0 O11 1.976 . S
Fe0 O14 1.996 . S
Fe1 O2 1.918 . S
Fe1 O9 1.997 . S
Fe1 O12 1.996 . S
Fe1 O16 1.976 . S
Fe1 O19 2.002 . S
O2 Fe0 1.918 . S
O2 Fe1 1.918 . S
O2 Fe3 1.918 . S
Fe3 O2 1.918 . S
Fe3 O4 2.002 . S
Fe3 O13 1.976 . S
Fe3 O17 1.996 . S
Fe3 O20 1.997 . S
O4 Fe3 2.002 . S
O4 C21 1.295 . S
O5 Fe0 1.997 . S
O5 C21 1.235 . S
O6 Fe0 2.002 . S
O6 C7 1.295 . S
C7 O6 1.295 . S
C7 O9 1.235 . S
C8 O13 1.287 . S
C8 O14 1.255 . S
O9 Fe1 1.997 . S
O9 C7 1.235 . S
C10 O16 1.287 . S
C10 O17 1.255 . S
O11 Fe0 1.976 . S
O11 C18 1.287 . S
O12 Fe1 1.996 . S
O12 C18 1.255 . S
O13 Fe3 1.976 . S
O13 C8 1.287 . S
O14 Fe0 1.996 . S
O14 C8 1.255 . S
C15 O19 1.295 . S
C15 O20 1.235 . S
O16 Fe1 1.976 . S
O16 C10 1.287 . S
O17 Fe3 1.996 . S
O17 C10 1.255 . S
C18 O11 1.287 . S
C18 O12 1.255 . S
O19 Fe1 2.002 . S
O19 C15 1.295 . S
O20 Fe3 1.997 . S
O20 C15 1.235 . S
C21 O4 1.295 . S
C21 O5 1.235 . S
Fe22 O24 1.918 . S
Fe22 O27 1.997 . S
Fe22 O28 2.002 . S
Fe22 O33 1.976 . S
Fe22 O36 1.996 . S
Fe23 O24 1.918 . S
Fe23 O31 1.997 . S
Fe23 O34 1.996 . S
Fe23 O38 1.976 . S
Fe23 O41 2.002 . S
O24 Fe22 1.918 . S
O24 Fe23 1.918 . S
O24 Fe25 1.918 . S
Fe25 O24 1.918 . S
Fe25 O26 2.002 . S
Fe25 O35 1.976 . S
Fe25 O39 1.996 . S
Fe25 O42 1.997 . S
O26 Fe25 2.002 . S
O26 C43 1.295 . S
O27 Fe22 1.997 . S
O27 C43 1.235 . S
O28 Fe22 2.002 . S
O28 C29 1.295 . S
C29 O28 1.295 . S
C29 O31 1.235 . S
C30 O35 1.287 . S
C30 O36 1.255 . S
O31 Fe23 1.997 . S
O31 C29 1.235 . S
C32 O38 1.287 . S
C32 O39 1.255 . S
O33 Fe22 1.976 . S
O33 C40 1.287 . S
O34 Fe23 1.996 . S
O34 C40 1.255 . S
O35 Fe25 1.976 . S
O35 C30 1.287 . S
O36 Fe22 1.996 . S
O36 C30 1.255 . S
C37 O41 1.295 . S
C37 O42 1.235 . S
O38 Fe23 1.976 . S
O38 C32 1.287 . S
O39 Fe25 1.996 . S
O39 C32 1.255 . S
C40 O33 1.287 . S
C40 O34 1.255 . S
O41 Fe23 2.002 . S
O41 C37 1.295 . S
O42 Fe25 1.997 . S
O42 C37 1.235 . S
C43 O26 1.295 . S
C43 O27 1.235 . S
Fe44 O46 1.918 . S
Fe44 O49 1.997 . S
Fe44 O50 2.002 . S
Fe44 O55 1.976 . S
Fe44 O58 1.996 . S
Fe45 O46 1.918 . S
Fe45 O53 1.997 . S
Fe45 O56 1.996 . S
Fe45 O60 1.976 . S
Fe45 O63 2.002 . S
O46 Fe44 1.918 . S
O46 Fe45 1.918 . S
O46 Fe47 1.918 . S
Fe47 O46 1.918 . S
Fe47 O48 2.002 . S
Fe47 O57 1.976 . S
Fe47 O61 1.996 . S
Fe47 O64 1.997 . S
O48 Fe47 2.002 . S
O48 C65 1.295 . S
O49 Fe44 1.997 . S
O49 C65 1.235 . S
O50 Fe44 2.002 . S
O50 C51 1.295 . S
C51 O50 1.295 . S
C51 O53 1.235 . S
C52 O57 1.287 . S
C52 O58 1.255 . S
O53 Fe45 1.997 . S
O53 C51 1.235 . S
C54 O60 1.287 . S
C54 O61 1.255 . S
O55 Fe44 1.976 . S
O55 C62 1.287 . S
O56 Fe45 1.996 . S
O56 C62 1.255 . S
O57 Fe47 1.976 . S
O57 C52 1.287 . S
O58 Fe44 1.996 . S
O58 C52 1.255 . S
C59 O63 1.295 . S
C59 O64 1.235 . S
O60 Fe45 1.976 . S
O60 C54 1.287 . S
O61 Fe47 1.996 . S
O61 C54 1.255 . S
C62 O55 1.287 . S
C62 O56 1.255 . S
O63 Fe45 2.002 . S
O63 C59 1.295 . S
O64 Fe47 1.997 . S
O64 C59 1.235 . S
C65 O48 1.295 . S
C65 O49 1.235 . S
Fe66 O68 1.918 . S
Fe66 O71 1.997 . S
Fe66 O72 2.002 . S
Fe66 O77 1.976 . S
Fe66 O80 1.996 . S
Fe67 O68 1.918 . S
Fe67 O75 1.997 . S
Fe67 O78 1.996 . S
Fe67 O82 1.976 . S
Fe67 O85 2.002 . S
O68 Fe66 1.918 . S
O68 Fe67 1.918 . S
O68 Fe69 1.918 . S
Fe69 O68 1.918 . S
Fe69 O70 2.002 . S
Fe69 O79 1.976 . S
Fe69 O83 1.996 . S
Fe69 O86 1.997 . S
O70 Fe69 2.002 . S
O70 C87 1.295 . S
O71 Fe66 1.997 . S
O71 C87 1.235 . S
O72 Fe66 2.002 . S
O72 C73 1.295 . S
C73 O72 1.295 . S
C73 O75 1.235 . S
C74 O79 1.287 . S
C74 O80 1.255 . S
O75 Fe67 1.997 . S
O75 C73 1.235 . S
C76 O82 1.287 . S
C76 O83 1.255 . S
O77 Fe66 1.976 . S
O77 C84 1.287 . S
O78 Fe67 1.996 . S
O78 C84 1.255 . S
O79 Fe69 1.976 . S
O79 C74 1.287 . S
O80 Fe66 1.996 . S
O80 C74 1.255 . S
C81 O85 1.295 . S
C81 O86 1.235 . S
O82 Fe67 1.976 . S
O82 C76 1.287 . S
O83 Fe69 1.996 . S
O83 C76 1.255 . S
C84 O77 1.287 . S
C84 O78 1.255 . S
O85 Fe67 2.002 . S
O85 C81 1.295 . S
O86 Fe69 1.997 . S
O86 C81 1.235 . S
C87 O70 1.295 . S
C87 O71 1.235 . S
Fe88 O90 1.918 . S
Fe88 O93 1.997 . S
Fe88 O94 2.002 . S
Fe88 O99 1.976 . S
Fe88 O102 1.996 . S
Fe89 O90 1.918 . S
Fe89 O97 1.997 . S
Fe89 O100 1.996 . S
Fe89 O104 1.976 . S
Fe89 O107 2.002 . S
O90 Fe88 1.918 . S
O90 Fe89 1.918 . S
O90 Fe91 1.918 . S
Fe91 O90 1.918 . S
Fe91 O92 2.002 . S
Fe91 O101 1.976 . S
Fe91 O105 1.996 . S
Fe91 O108 1.997 . S
O92 Fe91 2.002 . S
O92 C109 1.295 . S
O93 Fe88 1.997 . S
O93 C109 1.235 . S
O94 Fe88 2.002 . S
O94 C95 1.295 . S
C95 O94 1.295 . S
C95 O97 1.235 . S
C96 O101 1.287 . S
C96 O102 1.255 . S
O97 Fe89 1.997 . S
O97 C95 1.235 . S
C98 O104 1.287 . S
C98 O105 1.255 . S
O99 Fe88 1.976 . S
O99 C106 1.287 . S
O100 Fe89 1.996 . S
O100 C106 1.255 . S
O101 Fe91 1.976 . S
O101 C96 1.287 . S
O102 Fe88 1.996 . S
O102 C96 1.255 . S
C103 O107 1.295 . S
C103 O108 1.235 . S
O104 Fe89 1.976 . S
O104 C98 1.287 . S
O105 Fe91 1.996 . S
O105 C98 1.255 . S
C106 O99 1.287 . S
C106 O100 1.255 . S
O107 Fe89 2.002 . S
O107 C103 1.295 . S
O108 Fe91 1.997 . S
O108 C103 1.235 . S
C109 O92 1.295 . S
C109 O93 1.235 . S
Fe110 O112 1.918 . S
Fe110 O115 1.997 . S
Fe110 O116 2.002 . S
Fe110 O121 1.976 . S
Fe110 O124 1.996 . S
Fe111 O112 1.918 . S
Fe111 O119 1.997 . S
Fe111 O122 1.996 . S
Fe111 O126 1.976 . S
Fe111 O129 2.002 . S
O112 Fe110 1.918 . S
O112 Fe111 1.918 . S
O112 Fe113 1.918 . S
Fe113 O112 1.918 . S
Fe113 O114 2.002 . S
Fe113 O123 1.976 . S
Fe113 O127 1.996 . S
Fe113 O130 1.997 . S
O114 Fe113 2.002 . S
O114 C131 1.295 . S
O115 Fe110 1.997 . S
O115 C131 1.235 . S
O116 Fe110 2.002 . S
O116 C117 1.295 . S
C117 O116 1.295 . S
C117 O119 1.235 . S
C118 O123 1.287 . S
C118 O124 1.255 . S
O119 Fe111 1.997 . S
O119 C117 1.235 . S
C120 O126 1.287 . S
C120 O127 1.255 . S
O121 Fe110 1.976 . S
O121 C128 1.287 . S
O122 Fe111 1.996 . S
O122 C128 1.255 . S
O123 Fe113 1.976 . S
O123 C118 1.287 . S
O124 Fe110 1.996 . S
O124 C118 1.255 . S
C125 O129 1.295 . S
C125 O130 1.235 . S
O126 Fe111 1.976 . S
O126 C120 1.287 . S
O127 Fe113 1.996 . S
O127 C120 1.255 . S
C128 O121 1.287 . S
C128 O122 1.255 . S
O129 Fe111 2.002 . S
O129 C125 1.295 . S
O130 Fe113 1.997 . S
O130 C125 1.235 . S
C131 O114 1.295 . S
C131 O115 1.235 . S
Fe132 O134 1.918 . S
Fe132 O137 1.997 . S
Fe132 O138 2.002 . S
Fe132 O143 1.976 . S
Fe132 O146 1.996 . S
Fe133 O134 1.918 . S
Fe133 O141 1.997 . S
Fe133 O144 1.996 . S
Fe133 O148 1.976 . S
Fe133 O151 2.002 . S
O134 Fe132 1.918 . S
O134 Fe133 1.918 . S
O134 Fe135 1.918 . S
Fe135 O134 1.918 . S
Fe135 O136 2.002 . S
Fe135 O145 1.976 . S
Fe135 O149 1.996 . S
Fe135 O152 1.997 . S
O136 Fe135 2.002 . S
O136 C153 1.295 . S
O137 Fe132 1.997 . S
O137 C153 1.235 . S
O138 Fe132 2.002 . S
O138 C139 1.295 . S
C139 O138 1.295 . S
C139 O141 1.235 . S
C140 O145 1.287 . S
C140 O146 1.255 . S
O141 Fe133 1.997 . S
O141 C139 1.235 . S
C142 O148 1.287 . S
C142 O149 1.255 . S
O143 Fe132 1.976 . S
O143 C150 1.287 . S
O144 Fe133 1.996 . S
O144 C150 1.255 . S
O145 Fe135 1.976 . S
O145 C140 1.287 . S
O146 Fe132 1.996 . S
O146 C140 1.255 . S
C147 O151 1.295 . S
C147 O152 1.235 . S
O148 Fe133 1.976 . S
O148 C142 1.287 . S
O149 Fe135 1.996 . S
O149 C142 1.255 . S
C150 O143 1.287 . S
C150 O144 1.255 . S
O151 Fe133 2.002 . S
O151 C147 1.295 . S
O152 Fe135 1.997 . S
O152 C147 1.235 . S
C153 O136 1.295 . S
C153 O137 1.235 . S
Fe154 O156 1.918 . S
Fe154 O159 1.997 . S
Fe154 O160 2.002 . S
Fe154 O165 1.976 . S
Fe154 O168 1.996 . S
Fe155 O156 1.918 . S
Fe155 O163 1.997 . S
Fe155 O166 1.996 . S
Fe155 O170 1.976 . S
Fe155 O173 2.002 . S
O156 Fe154 1.918 . S
O156 Fe155 1.918 . S
O156 Fe157 1.918 . S
Fe157 O156 1.918 . S
Fe157 O158 2.002 . S
Fe157 O167 1.976 . S
Fe157 O171 1.996 . S
Fe157 O174 1.997 . S
O158 Fe157 2.002 . S
O158 C175 1.295 . S
O159 Fe154 1.997 . S
O159 C175 1.235 . S
O160 Fe154 2.002 . S
O160 C161 1.295 . S
C161 O160 1.295 . S
C161 O163 1.235 . S
C162 O167 1.287 . S
C162 O168 1.255 . S
O163 Fe155 1.997 . S
O163 C161 1.235 . S
C164 O170 1.287 . S
C164 O171 1.255 . S
O165 Fe154 1.976 . S
O165 C172 1.287 . S
O166 Fe155 1.996 . S
O166 C172 1.255 . S
O167 Fe157 1.976 . S
O167 C162 1.287 . S
O168 Fe154 1.996 . S
O168 C162 1.255 . S
C169 O173 1.295 . S
C169 O174 1.235 . S
O170 Fe155 1.976 . S
O170 C164 1.287 . S
O171 Fe157 1.996 . S
O171 C164 1.255 . S
C172 O165 1.287 . S
C172 O166 1.255 . S
O173 Fe155 2.002 . S
O173 C169 1.295 . S
O174 Fe157 1.997 . S
O174 C169 1.235 . S
C175 O158 1.295 . S
C175 O159 1.235 . S
Fe176 O178 1.918 . S
Fe176 O181 1.997 . S
Fe176 O182 2.002 . S
Fe176 O187 1.976 . S
Fe176 O190 1.996 . S
Fe177 O178 1.918 . S
Fe177 O185 1.997 . S
Fe177 O188 1.996 . S
Fe177 O192 1.976 . S
Fe177 O195 2.002 . S
O178 Fe176 1.918 . S
O178 Fe177 1.918 . S
O178 Fe179 1.918 . S
Fe179 O178 1.918 . S
Fe179 O180 2.002 . S
Fe179 O189 1.976 . S
Fe179 O193 1.996 . S
Fe179 O196 1.997 . S
O180 Fe179 2.002 . S
O180 C197 1.295 . S
O181 Fe176 1.997 . S
O181 C197 1.235 . S
O182 Fe176 2.002 . S
O182 C183 1.295 . S
C183 O182 1.295 . S
C183 O185 1.235 . S
C184 O189 1.287 . S
C184 O190 1.255 . S
O185 Fe177 1.997 . S
O185 C183 1.235 . S
C186 O192 1.287 . S
C186 O193 1.255 . S
O187 Fe176 1.976 . S
O187 C194 1.287 . S
O188 Fe177 1.996 . S
O188 C194 1.255 . S
O189 Fe179 1.976 . S
O189 C184 1.287 . S
O190 Fe176 1.996 . S
O190 C184 1.255 . S
C191 O195 1.295 . S
C191 O196 1.235 . S
O192 Fe177 1.976 . S
O192 C186 1.287 . S
O193 Fe179 1.996 . S
O193 C186 1.255 . S
C194 O187 1.287 . S
C194 O188 1.255 . S
O195 Fe177 2.002 . S
O195 C191 1.295 . S
O196 Fe179 1.997 . S
O196 C191 1.235 . S
C197 O180 1.295 . S
C197 O181 1.235 . S
Fe198 O200 1.918 . S
Fe198 O203 1.997 . S
Fe198 O204 2.002 . S
Fe198 O209 1.976 . S
Fe198 O212 1.996 . S
Fe199 O200 1.918 . S
Fe199 O207 1.997 . S
Fe199 O210 1.996 . S
Fe199 O214 1.976 . S
Fe199 O217 2.002 . S
O200 Fe198 1.918 . S
O200 Fe199 1.918 . S
O200 Fe201 1.918 . S
Fe201 O200 1.918 . S
Fe201 O202 2.002 . S
Fe201 O211 1.976 . S
Fe201 O215 1.996 . S
Fe201 O218 1.997 . S
O202 Fe201 2.002 . S
O202 C219 1.295 . S
O203 Fe198 1.997 . S
O203 C219 1.235 . S
O204 Fe198 2.002 . S
O204 C205 1.295 . S
C205 O204 1.295 . S
C205 O207 1.235 . S
C206 O211 1.287 . S
C206 O212 1.255 . S
O207 Fe199 1.997 . S
O207 C205 1.235 . S
C208 O214 1.287 . S
C208 O215 1.255 . S
O209 Fe198 1.976 . S
O209 C216 1.287 . S
O210 Fe199 1.996 . S
O210 C216 1.255 . S
O211 Fe201 1.976 . S
O211 C206 1.287 . S
O212 Fe198 1.996 . S
O212 C206 1.255 . S
C213 O217 1.295 . S
C213 O218 1.235 . S
O214 Fe199 1.976 . S
O214 C208 1.287 . S
O215 Fe201 1.996 . S
O215 C208 1.255 . S
C216 O209 1.287 . S
C216 O210 1.255 . S
O217 Fe199 2.002 . S
O217 C213 1.295 . S
O218 Fe201 1.997 . S
O218 C213 1.235 . S
C219 O202 1.295 . S
C219 O203 1.235 . S
Fe220 O222 1.918 . S
Fe220 O225 1.997 . S
Fe220 O226 2.002 . S
Fe220 O231 1.976 . S
Fe220 O234 1.996 . S
Fe221 O222 1.918 . S
Fe221 O229 1.997 . S
Fe221 O232 1.996 . S
Fe221 O236 1.976 . S
Fe221 O239 2.002 . S
O222 Fe220 1.918 . S
O222 Fe221 1.918 . S
O222 Fe223 1.918 . S
Fe223 O222 1.918 . S
Fe223 O224 2.002 . S
Fe223 O233 1.976 . S
Fe223 O237 1.996 . S
Fe223 O240 1.997 . S
O224 Fe223 2.002 . S
O224 C241 1.295 . S
O225 Fe220 1.997 . S
O225 C241 1.235 . S
O226 Fe220 2.002 . S
O226 C227 1.295 . S
C227 O226 1.295 . S
C227 O229 1.235 . S
C228 O233 1.287 . S
C228 O234 1.255 . S
O229 Fe221 1.997 . S
O229 C227 1.235 . S
C230 O236 1.287 . S
C230 O237 1.255 . S
O231 Fe220 1.976 . S
O231 C238 1.287 . S
O232 Fe221 1.996 . S
O232 C238 1.255 . S
O233 Fe223 1.976 . S
O233 C228 1.287 . S
O234 Fe220 1.996 . S
O234 C228 1.255 . S
C235 O239 1.295 . S
C235 O240 1.235 . S
O236 Fe221 1.976 . S
O236 C230 1.287 . S
O237 Fe223 1.996 . S
O237 C230 1.255 . S
C238 O231 1.287 . S
C238 O232 1.255 . S
O239 Fe221 2.002 . S
O239 C235 1.295 . S
O240 Fe223 1.997 . S
O240 C235 1.235 . S
C241 O224 1.295 . S
C241 O225 1.235 . S
Fe242 O244 1.918 . S
Fe242 O247 1.997 . S
Fe242 O248 2.002 . S
Fe242 O253 1.976 . S
Fe242 O256 1.996 . S
Fe243 O244 1.918 . S
Fe243 O251 1.997 . S
Fe243 O254 1.996 . S
Fe243 O258 1.976 . S
Fe243 O261 2.002 . S
O244 Fe242 1.918 . S
O244 Fe243 1.918 . S
O244 Fe245 1.918 . S
Fe245 O244 1.918 . S
Fe245 O246 2.002 . S
Fe245 O255 1.976 . S
Fe245 O259 1.996 . S
Fe245 O262 1.997 . S
O246 Fe245 2.002 . S
O246 C263 1.295 . S
O247 Fe242 1.997 . S
O247 C263 1.235 . S
O248 Fe242 2.002 . S
O248 C249 1.295 . S
C249 O248 1.295 . S
C249 O251 1.235 . S
C250 O255 1.287 . S
C250 O256 1.255 . S
O251 Fe243 1.997 . S
O251 C249 1.235 . S
C252 O258 1.287 . S
C252 O259 1.255 . S
O253 Fe242 1.976 . S
O253 C260 1.287 . S
O254 Fe243 1.996 . S
O254 C260 1.255 . S
O255 Fe245 1.976 . S
O255 C250 1.287 . S
O256 Fe242 1.996 . S
O256 C250 1.255 . S
C257 O261 1.295 . S
C257 O262 1.235 . S
O258 Fe243 1.976 . S
O258 C252 1.287 . S
O259 Fe245 1.996 . S
O259 C252 1.255 . S
C260 O253 1.287 . S
C260 O254 1.255 . S
O261 Fe243 2.002 . S
O261 C257 1.295 . S
O262 Fe245 1.997 . S
O262 C257 1.235 . S
C263 O246 1.295 . S
C263 O247 1.235 . S
Fe264 O266 1.918 . S
Fe264 O269 1.997 . S
Fe264 O270 2.002 . S
Fe264 O275 1.976 . S
Fe264 O278 1.996 . S
Fe265 O266 1.918 . S
Fe265 O273 1.997 . S
Fe265 O276 1.996 . S
Fe265 O280 1.976 . S
Fe265 O283 2.002 . S
O266 Fe264 1.918 . S
O266 Fe265 1.918 . S
O266 Fe267 1.918 . S
Fe267 O266 1.918 . S
Fe267 O268 2.002 . S
Fe267 O277 1.976 . S
Fe267 O281 1.996 . S
Fe267 O284 1.997 . S
O268 Fe267 2.002 . S
O268 C285 1.295 . S
O269 Fe264 1.997 . S
O269 C285 1.235 . S
O270 Fe264 2.002 . S
O270 C271 1.295 . S
C271 O270 1.295 . S
C271 O273 1.235 . S
C272 O277 1.287 . S
C272 O278 1.255 . S
O273 Fe265 1.997 . S
O273 C271 1.235 . S
C274 O280 1.287 . S
C274 O281 1.255 . S
O275 Fe264 1.976 . S
O275 C282 1.287 . S
O276 Fe265 1.996 . S
O276 C282 1.255 . S
O277 Fe267 1.976 . S
O277 C272 1.287 . S
O278 Fe264 1.996 . S
O278 C272 1.255 . S
C279 O283 1.295 . S
C279 O284 1.235 . S
O280 Fe265 1.976 . S
O280 C274 1.287 . S
O281 Fe267 1.996 . S
O281 C274 1.255 . S
C282 O275 1.287 . S
C282 O276 1.255 . S
O283 Fe265 2.002 . S
O283 C279 1.295 . S
O284 Fe267 1.997 . S
O284 C279 1.235 . S
C285 O268 1.295 . S
C285 O269 1.235 . S
Fe286 O288 1.918 . S
Fe286 O291 1.997 . S
Fe286 O292 2.002 . S
Fe286 O297 1.976 . S
Fe286 O300 1.996 . S
Fe287 O288 1.918 . S
Fe287 O295 1.997 . S
Fe287 O298 1.996 . S
Fe287 O302 1.976 . S
Fe287 O305 2.002 . S
O288 Fe286 1.918 . S
O288 Fe287 1.918 . S
O288 Fe289 1.918 . S
Fe289 O288 1.918 . S
Fe289 O290 2.002 . S
Fe289 O299 1.976 . S
Fe289 O303 1.996 . S
Fe289 O306 1.997 . S
O290 Fe289 2.002 . S
O290 C307 1.295 . S
O291 Fe286 1.997 . S
O291 C307 1.235 . S
O292 Fe286 2.002 . S
O292 C293 1.295 . S
C293 O292 1.295 . S
C293 O295 1.235 . S
C294 O299 1.287 . S
C294 O300 1.255 . S
O295 Fe287 1.997 . S
O295 C293 1.235 . S
C296 O302 1.287 . S
C296 O303 1.255 . S
O297 Fe286 1.976 . S
O297 C304 1.287 . S
O298 Fe287 1.996 . S
O298 C304 1.255 . S
O299 Fe289 1.976 . S
O299 C294 1.287 . S
O300 Fe286 1.996 . S
O300 C294 1.255 . S
C301 O305 1.295 . S
C301 O306 1.235 . S
O302 Fe287 1.976 . S
O302 C296 1.287 . S
O303 Fe289 1.996 . S
O303 C296 1.255 . S
C304 O297 1.287 . S
C304 O298 1.255 . S
O305 Fe287 2.002 . S
O305 C301 1.295 . S
O306 Fe289 1.997 . S
O306 C301 1.235 . S
C307 O290 1.295 . S
C307 O291 1.235 . S
Fe308 O310 1.918 . S
Fe308 O313 1.997 . S
Fe308 O314 2.002 . S
Fe308 O319 1.976 . S
Fe308 O322 1.996 . S
Fe309 O310 1.918 . S
Fe309 O317 1.997 . S
Fe309 O320 1.996 . S
Fe309 O324 1.976 . S
Fe309 O327 2.002 . S
O310 Fe308 1.918 . S
O310 Fe309 1.918 . S
O310 Fe311 1.918 . S
Fe311 O310 1.918 . S
Fe311 O312 2.002 . S
Fe311 O321 1.976 . S
Fe311 O325 1.996 . S
Fe311 O328 1.997 . S
O312 Fe311 2.002 . S
O312 C329 1.295 . S
O313 Fe308 1.997 . S
O313 C329 1.235 . S
O314 Fe308 2.002 . S
O314 C315 1.295 . S
C315 O314 1.295 . S
C315 O317 1.235 . S
C316 O321 1.287 . S
C316 O322 1.255 . S
O317 Fe309 1.997 . S
O317 C315 1.235 . S
C318 O324 1.287 . S
C318 O325 1.255 . S
O319 Fe308 1.976 . S
O319 C326 1.287 . S
O320 Fe309 1.996 . S
O320 C326 1.255 . S
O321 Fe311 1.976 . S
O321 C316 1.287 . S
O322 Fe308 1.996 . S
O322 C316 1.255 . S
C323 O327 1.295 . S
C323 O328 1.235 . S
O324 Fe309 1.976 . S
O324 C318 1.287 . S
O325 Fe311 1.996 . S
O325 C318 1.255 . S
C326 O319 1.287 . S
C326 O320 1.255 . S
O327 Fe309 2.002 . S
O327 C323 1.295 . S
O328 Fe311 1.997 . S
O328 C323 1.235 . S
C329 O312 1.295 . S
C329 O313 1.235 . S
Fe330 O332 1.918 . S
Fe330 O335 1.997 . S
Fe330 O336 2.002 . S
Fe330 O341 1.976 . S
Fe330 O344 1.996 . S
Fe331 O332 1.918 . S
Fe331 O339 1.997 . S
Fe331 O342 1.996 . S
Fe331 O346 1.976 . S
Fe331 O349 2.002 . S
O332 Fe330 1.918 . S
O332 Fe331 1.918 . S
O332 Fe333 1.918 . S
Fe333 O332 1.918 . S
Fe333 O334 2.002 . S
Fe333 O343 1.976 . S
Fe333 O347 1.996 . S
Fe333 O350 1.997 . S
O334 Fe333 2.002 . S
O334 C351 1.295 . S
O335 Fe330 1.997 . S
O335 C351 1.235 . S
O336 Fe330 2.002 . S
O336 C337 1.295 . S
C337 O336 1.295 . S
C337 O339 1.235 . S
C338 O343 1.287 . S
C338 O344 1.255 . S
O339 Fe331 1.997 . S
O339 C337 1.235 . S
C340 O346 1.287 . S
C340 O347 1.255 . S
O341 Fe330 1.976 . S
O341 C348 1.287 . S
O342 Fe331 1.996 . S
O342 C348 1.255 . S
O343 Fe333 1.976 . S
O343 C338 1.287 . S
O344 Fe330 1.996 . S
O344 C338 1.255 . S
C345 O349 1.295 . S
C345 O350 1.235 . S
O346 Fe331 1.976 . S
O346 C340 1.287 . S
O347 Fe333 1.996 . S
O347 C340 1.255 . S
C348 O341 1.287 . S
C348 O342 1.255 . S
O349 Fe331 2.002 . S
O349 C345 1.295 . S
O350 Fe333 1.997 . S
O350 C345 1.235 . S
C351 O334 1.295 . S
C351 O335 1.235 . S
Fe352 O354 1.918 . S
Fe352 O357 1.997 . S
Fe352 O358 2.002 . S
Fe352 O363 1.976 . S
Fe352 O366 1.996 . S
Fe353 O354 1.918 . S
Fe353 O361 1.997 . S
Fe353 O364 1.996 . S
Fe353 O368 1.976 . S
Fe353 O371 2.002 . S
O354 Fe352 1.918 . S
O354 Fe353 1.918 . S
O354 Fe355 1.918 . S
Fe355 O354 1.918 . S
Fe355 O356 2.002 . S
Fe355 O365 1.976 . S
Fe355 O369 1.996 . S
Fe355 O372 1.997 . S
O356 Fe355 2.002 . S
O356 C373 1.295 . S
O357 Fe352 1.997 . S
O357 C373 1.235 . S
O358 Fe352 2.002 . S
O358 C359 1.295 . S
C359 O358 1.295 . S
C359 O361 1.235 . S
C360 O365 1.287 . S
C360 O366 1.255 . S
O361 Fe353 1.997 . S
O361 C359 1.235 . S
C362 O368 1.287 . S
C362 O369 1.255 . S
O363 Fe352 1.976 . S
O363 C370 1.287 . S
O364 Fe353 1.996 . S
O364 C370 1.255 . S
O365 Fe355 1.976 . S
O365 C360 1.287 . S
O366 Fe352 1.996 . S
O366 C360 1.255 . S
C367 O371 1.295 . S
C367 O372 1.235 . S
O368 Fe353 1.976 . S
O368 C362 1.287 . S
O369 Fe355 1.996 . S
O369 C362 1.255 . S
C370 O363 1.287 . S
C370 O364 1.255 . S
O371 Fe353 2.002 . S
O371 C367 1.295 . S
O372 Fe355 1.997 . S
O372 C367 1.235 . S
C373 O356 1.295 . S
C373 O357 1.235 . S
Fe374 O376 1.918 . S
Fe374 O379 1.997 . S
Fe374 O380 2.002 . S
Fe374 O385 1.976 . S
Fe374 O388 1.996 . S
Fe375 O376 1.918 . S
Fe375 O383 1.997 . S
Fe375 O386 1.996 . S
Fe375 O390 1.976 . S
Fe375 O393 2.002 . S
O376 Fe374 1.918 . S
O376 Fe375 1.918 . S
O376 Fe377 1.918 . S
Fe377 O376 1.918 . S
Fe377 O378 2.002 . S
Fe377 O387 1.976 . S
Fe377 O391 1.996 . S
Fe377 O394 1.997 . S
O378 Fe377 2.002 . S
O378 C395 1.295 . S
O379 Fe374 1.997 . S
O379 C395 1.235 . S
O380 Fe374 2.002 . S
O380 C381 1.295 . S
C381 O380 1.295 . S
C381 O383 1.235 . S
C382 O387 1.287 . S
C382 O388 1.255 . S
O383 Fe375 1.997 . S
O383 C381 1.235 . S
C384 O390 1.287 . S
C384 O391 1.255 . S
O385 Fe374 1.976 . S
O385 C392 1.287 . S
O386 Fe375 1.996 . S
O386 C392 1.255 . S
O387 Fe377 1.976 . S
O387 C382 1.287 . S
O388 Fe374 1.996 . S
O388 C382 1.255 . S
C389 O393 1.295 . S
C389 O394 1.235 . S
O390 Fe375 1.976 . S
O390 C384 1.287 . S
O391 Fe377 1.996 . S
O391 C384 1.255 . S
C392 O385 1.287 . S
C392 O386 1.255 . S
O393 Fe375 2.002 . S
O393 C389 1.295 . S
O394 Fe377 1.997 . S
O394 C389 1.235 . S
C395 O378 1.295 . S
C395 O379 1.235 . S
Fe396 O398 1.918 . S
Fe396 O401 1.997 . S
Fe396 O402 2.002 . S
Fe396 O407 1.976 . S
Fe396 O410 1.996 . S
Fe397 O398 1.918 . S
Fe397 O405 1.997 . S
Fe397 O408 1.996 . S
Fe397 O412 1.976 . S
Fe397 O415 2.002 . S
O398 Fe396 1.918 . S
O398 Fe397 1.918 . S
O398 Fe399 1.918 . S
Fe399 O398 1.918 . S
Fe399 O400 2.002 . S
Fe399 O409 1.976 . S
Fe399 O413 1.996 . S
Fe399 O416 1.997 . S
O400 Fe399 2.002 . S
O400 C417 1.295 . S
O401 Fe396 1.997 . S
O401 C417 1.235 . S
O402 Fe396 2.002 . S
O402 C403 1.295 . S
C403 O402 1.295 . S
C403 O405 1.235 . S
C404 O409 1.287 . S
C404 O410 1.255 . S
O405 Fe397 1.997 . S
O405 C403 1.235 . S
C406 O412 1.287 . S
C406 O413 1.255 . S
O407 Fe396 1.976 . S
O407 C414 1.287 . S
O408 Fe397 1.996 . S
O408 C414 1.255 . S
O409 Fe399 1.976 . S
O409 C404 1.287 . S
O410 Fe396 1.996 . S
O410 C404 1.255 . S
C411 O415 1.295 . S
C411 O416 1.235 . S
O412 Fe397 1.976 . S
O412 C406 1.287 . S
O413 Fe399 1.996 . S
O413 C406 1.255 . S
C414 O407 1.287 . S
C414 O408 1.255 . S
O415 Fe397 2.002 . S
O415 C411 1.295 . S
O416 Fe399 1.997 . S
O416 C411 1.235 . S
C417 O400 1.295 . S
C417 O401 1.235 . S
Fe418 O420 1.918 . S
Fe418 O423 1.997 . S
Fe418 O424 2.002 . S
Fe418 O429 1.976 . S
Fe418 O432 1.996 . S
Fe419 O420 1.918 . S
Fe419 O427 1.997 . S
Fe419 O430 1.996 . S
Fe419 O434 1.976 . S
Fe419 O437 2.002 . S
O420 Fe418 1.918 . S
O420 Fe419 1.918 . S
O420 Fe421 1.918 . S
Fe421 O420 1.918 . S
Fe421 O422 2.002 . S
Fe421 O431 1.976 . S
Fe421 O435 1.996 . S
Fe421 O438 1.997 . S
O422 Fe421 2.002 . S
O422 C439 1.295 . S
O423 Fe418 1.997 . S
O423 C439 1.235 . S
O424 Fe418 2.002 . S
O424 C425 1.295 . S
C425 O424 1.295 . S
C425 O427 1.235 . S
C426 O431 1.287 . S
C426 O432 1.255 . S
O427 Fe419 1.997 . S
O427 C425 1.235 . S
C428 O434 1.287 . S
C428 O435 1.255 . S
O429 Fe418 1.976 . S
O429 C436 1.287 . S
O430 Fe419 1.996 . S
O430 C436 1.255 . S
O431 Fe421 1.976 . S
O431 C426 1.287 . S
O432 Fe418 1.996 . S
O432 C426 1.255 . S
C433 O437 1.295 . S
C433 O438 1.235 . S
O434 Fe419 1.976 . S
O434 C428 1.287 . S
O435 Fe421 1.996 . S
O435 C428 1.255 . S
C436 O429 1.287 . S
C436 O430 1.255 . S
O437 Fe419 2.002 . S
O437 C433 1.295 . S
O438 Fe421 1.997 . S
O438 C433 1.235 . S
C439 O422 1.295 . S
C439 O423 1.235 . S
Fe440 O442 1.918 . S
Fe440 O445 1.997 . S
Fe440 O446 2.002 . S
Fe440 O451 1.976 . S
Fe440 O454 1.996 . S
Fe441 O442 1.918 . S
Fe441 O449 1.997 . S
Fe441 O452 1.996 . S
Fe441 O456 1.976 . S
Fe441 O459 2.002 . S
O442 Fe440 1.918 . S
O442 Fe441 1.918 . S
O442 Fe443 1.918 . S
Fe443 O442 1.918 . S
Fe443 O444 2.002 . S
Fe443 O453 1.976 . S
Fe443 O457 1.996 . S
Fe443 O460 1.997 . S
O444 Fe443 2.002 . S
O444 C461 1.295 . S
O445 Fe440 1.997 . S
O445 C461 1.235 . S
O446 Fe440 2.002 . S
O446 C447 1.295 . S
C447 O446 1.295 . S
C447 O449 1.235 . S
C448 O453 1.287 . S
C448 O454 1.255 . S
O449 Fe441 1.997 . S
O449 C447 1.235 . S
C450 O456 1.287 . S
C450 O457 1.255 . S
O451 Fe440 1.976 . S
O451 C458 1.287 . S
O452 Fe441 1.996 . S
O452 C458 1.255 . S
O453 Fe443 1.976 . S
O453 C448 1.287 . S
O454 Fe440 1.996 . S
O454 C448 1.255 . S
C455 O459 1.295 . S
C455 O460 1.235 . S
O456 Fe441 1.976 . S
O456 C450 1.287 . S
O457 Fe443 1.996 . S
O457 C450 1.255 . S
C458 O451 1.287 . S
C458 O452 1.255 . S
O459 Fe441 2.002 . S
O459 C455 1.295 . S
O460 Fe443 1.997 . S
O460 C455 1.235 . S
C461 O444 1.295 . S
C461 O445 1.235 . S
Fe462 O464 1.918 . S
Fe462 O467 1.997 . S
Fe462 O468 2.002 . S
Fe462 O473 1.976 . S
Fe462 O476 1.996 . S
Fe463 O464 1.918 . S
Fe463 O471 1.997 . S
Fe463 O474 1.996 . S
Fe463 O478 1.976 . S
Fe463 O481 2.002 . S
O464 Fe462 1.918 . S
O464 Fe463 1.918 . S
O464 Fe465 1.918 . S
Fe465 O464 1.918 . S
Fe465 O466 2.002 . S
Fe465 O475 1.976 . S
Fe465 O479 1.996 . S
Fe465 O482 1.997 . S
O466 Fe465 2.002 . S
O466 C483 1.295 . S
O467 Fe462 1.997 . S
O467 C483 1.235 . S
O468 Fe462 2.002 . S
O468 C469 1.295 . S
C469 O468 1.295 . S
C469 O471 1.235 . S
C470 O475 1.287 . S
C470 O476 1.255 . S
O471 Fe463 1.997 . S
O471 C469 1.235 . S
C472 O478 1.287 . S
C472 O479 1.255 . S
O473 Fe462 1.976 . S
O473 C480 1.287 . S
O474 Fe463 1.996 . S
O474 C480 1.255 . S
O475 Fe465 1.976 . S
O475 C470 1.287 . S
O476 Fe462 1.996 . S
O476 C470 1.255 . S
C477 O481 1.295 . S
C477 O482 1.235 . S
O478 Fe463 1.976 . S
O478 C472 1.287 . S
O479 Fe465 1.996 . S
O479 C472 1.255 . S
C480 O473 1.287 . S
C480 O474 1.255 . S
O481 Fe463 2.002 . S
O481 C477 1.295 . S
O482 Fe465 1.997 . S
O482 C477 1.235 . S
C483 O466 1.295 . S
C483 O467 1.235 . S
Fe484 O486 1.918 . S
Fe484 O489 1.997 . S
Fe484 O490 2.002 . S
Fe484 O495 1.976 . S
Fe484 O498 1.996 . S
Fe485 O486 1.918 . S
Fe485 O493 1.997 . S
Fe485 O496 1.996 . S
Fe485 O500 1.976 . S
Fe485 O503 2.002 . S
O486 Fe484 1.918 . S
O486 Fe485 1.918 . S
O486 Fe487 1.918 . S
Fe487 O486 1.918 . S
Fe487 O488 2.002 . S
Fe487 O497 1.976 . S
Fe487 O501 1.996 . S
Fe487 O504 1.997 . S
O488 Fe487 2.002 . S
O488 C505 1.295 . S
O489 Fe484 1.997 . S
O489 C505 1.235 . S
O490 Fe484 2.002 . S
O490 C491 1.295 . S
C491 O490 1.295 . S
C491 O493 1.235 . S
C492 O497 1.287 . S
C492 O498 1.255 . S
O493 Fe485 1.997 . S
O493 C491 1.235 . S
C494 O500 1.287 . S
C494 O501 1.255 . S
O495 Fe484 1.976 . S
O495 C502 1.287 . S
O496 Fe485 1.996 . S
O496 C502 1.255 . S
O497 Fe487 1.976 . S
O497 C492 1.287 . S
O498 Fe484 1.996 . S
O498 C492 1.255 . S
C499 O503 1.295 . S
C499 O504 1.235 . S
O500 Fe485 1.976 . S
O500 C494 1.287 . S
O501 Fe487 1.996 . S
O501 C494 1.255 . S
C502 O495 1.287 . S
C502 O496 1.255 . S
O503 Fe485 2.002 . S
O503 C499 1.295 . S
O504 Fe487 1.997 . S
O504 C499 1.235 . S
C505 O488 1.295 . S
C505 O489 1.235 . S
Fe506 O508 1.918 . S
Fe506 O511 1.997 . S
Fe506 O512 2.002 . S
Fe506 O517 1.976 . S
Fe506 O520 1.996 . S
Fe507 O508 1.918 . S
Fe507 O515 1.997 . S
Fe507 O518 1.996 . S
Fe507 O522 1.976 . S
Fe507 O525 2.002 . S
O508 Fe506 1.918 . S
O508 Fe507 1.918 . S
O508 Fe509 1.918 . S
Fe509 O508 1.918 . S
Fe509 O510 2.002 . S
Fe509 O519 1.976 . S
Fe509 O523 1.996 . S
Fe509 O526 1.997 . S
O510 Fe509 2.002 . S
O510 C527 1.295 . S
O511 Fe506 1.997 . S
O511 C527 1.235 . S
O512 Fe506 2.002 . S
O512 C513 1.295 . S
C513 O512 1.295 . S
C513 O515 1.235 . S
C514 O519 1.287 . S
C514 O520 1.255 . S
O515 Fe507 1.997 . S
O515 C513 1.235 . S
C516 O522 1.287 . S
C516 O523 1.255 . S
O517 Fe506 1.976 . S
O517 C524 1.287 . S
O518 Fe507 1.996 . S
O518 C524 1.255 . S
O519 Fe509 1.976 . S
O519 C514 1.287 . S
O520 Fe506 1.996 . S
O520 C514 1.255 . S
C521 O525 1.295 . S
C521 O526 1.235 . S
O522 Fe507 1.976 . S
O522 C516 1.287 . S
O523 Fe509 1.996 . S
O523 C516 1.255 . S
C524 O517 1.287 . S
C524 O518 1.255 . S
O525 Fe507 2.002 . S
O525 C521 1.295 . S
O526 Fe509 1.997 . S
O526 C521 1.235 . S
C527 O510 1.295 . S
C527 O511 1.235 . S
C528 C529 1.349 . S
C528 C530 1.327 . S
C528 H553 0.950 . S
C529 C528 1.349 . S
C529 C545 1.349 . S
C530 C528 1.327 . S
C530 C549 1.429 . S
C530 H554 0.950 . S
C531 C548 1.574 . S
C531 C550 1.368 . S
C531 H555 0.949 . S
H532 C536 0.949 . S
C533 C534 1.349 . S
C533 C535 1.327 . S
C533 H556 0.950 . S
C534 C533 1.349 . S
C534 C546 1.349 . S
C535 C533 1.327 . S
C535 C551 1.429 . S
C535 H557 0.950 . S
C536 H532 0.949 . S
C536 C544 1.574 . S
C536 C552 1.368 . S
H537 C545 0.950 . S
H538 C543 0.950 . S
H539 C544 0.949 . S
H540 C546 0.950 . S
H541 C547 0.950 . S
H542 C548 0.949 . S
C543 H538 0.950 . S
C543 C545 1.327 . S
C543 C549 1.429 . S
C544 C536 1.574 . S
C544 H539 0.949 . S
C544 C550 1.368 . S
C545 C529 1.349 . S
C545 H537 0.950 . S
C545 C543 1.327 . S
C546 C534 1.349 . S
C546 H540 0.950 . S
C546 C547 1.327 . S
C547 H541 0.950 . S
C547 C546 1.327 . S
C547 C551 1.429 . S
C548 C531 1.574 . S
C548 H542 0.949 . S
C548 C552 1.368 . S
C549 C530 1.429 . S
C549 C543 1.429 . S
C549 C550 1.523 . S
C550 C531 1.368 . S
C550 C544 1.368 . S
C550 C549 1.523 . S
C551 C535 1.429 . S
C551 C547 1.429 . S
C551 C552 1.523 . S
C552 C536 1.368 . S
C552 C548 1.368 . S
C552 C551 1.523 . S
H553 C528 0.950 . S
H554 C530 0.950 . S
H555 C531 0.949 . S
H556 C533 0.950 . S
H557 C535 0.950 . S
C558 C559 1.349 . S
C558 C560 1.327 . S
C558 H583 0.950 . S
C559 C558 1.349 . S
C559 C575 1.349 . S
C560 C558 1.327 . S
C560 C579 1.429 . S
C560 H584 0.950 . S
C561 C578 1.574 . S
C561 C580 1.368 . S
C561 H585 0.949 . S
H562 C566 0.949 . S
C563 C564 1.349 . S
C563 C565 1.327 . S
C563 H586 0.950 . S
C564 C563 1.349 . S
C564 C576 1.349 . S
C565 C563 1.327 . S
C565 C581 1.429 . S
C565 H587 0.950 . S
C566 H562 0.949 . S
C566 C574 1.574 . S
C566 C582 1.368 . S
H567 C575 0.950 . S
H568 C573 0.950 . S
H569 C574 0.949 . S
H570 C576 0.950 . S
H571 C577 0.950 . S
H572 C578 0.949 . S
C573 H568 0.950 . S
C573 C575 1.327 . S
C573 C579 1.429 . S
C574 C566 1.574 . S
C574 H569 0.949 . S
C574 C580 1.368 . S
C575 C559 1.349 . S
C575 H567 0.950 . S
C575 C573 1.327 . S
C576 C564 1.349 . S
C576 H570 0.950 . S
C576 C577 1.327 . S
C577 H571 0.950 . S
C577 C576 1.327 . S
C577 C581 1.429 . S
C578 C561 1.574 . S
C578 H572 0.949 . S
C578 C582 1.368 . S
C579 C560 1.429 . S
C579 C573 1.429 . S
C579 C580 1.523 . S
C580 C561 1.368 . S
C580 C574 1.368 . S
C580 C579 1.523 . S
C581 C565 1.429 . S
C581 C577 1.429 . S
C581 C582 1.523 . S
C582 C566 1.368 . S
C582 C578 1.368 . S
C582 C581 1.523 . S
H583 C558 0.950 . S
H584 C560 0.950 . S
H585 C561 0.949 . S
H586 C563 0.950 . S
H587 C565 0.950 . S
C588 C589 1.349 . S
C588 C590 1.327 . S
C588 H613 0.950 . S
C589 C588 1.349 . S
C589 C605 1.349 . S
C590 C588 1.327 . S
C590 C609 1.429 . S
C590 H614 0.950 . S
C591 C608 1.574 . S
C591 C610 1.368 . S
C591 H615 0.949 . S
H592 C596 0.949 . S
C593 C594 1.349 . S
C593 C595 1.327 1_545 S
C593 H616 0.950 . S
C594 C593 1.349 . S
C594 C606 1.349 . S
C595 C593 1.327 1_565 S
C595 C611 1.429 . S
C595 H617 0.950 . S
C596 H592 0.949 . S
C596 C604 1.574 . S
C596 C612 1.368 . S
H597 C605 0.950 . S
H598 C603 0.950 . S
H599 C604 0.949 . S
H600 C606 0.950 . S
H601 C607 0.950 . S
H602 C608 0.949 . S
C603 H598 0.950 . S
C603 C605 1.327 . S
C603 C609 1.429 . S
C604 C596 1.574 . S
C604 H599 0.949 . S
C604 C610 1.368 . S
C605 C589 1.349 . S
C605 H597 0.950 . S
C605 C603 1.327 . S
C606 C594 1.349 . S
C606 H600 0.950 . S
C606 C607 1.327 . S
C607 H601 0.950 . S
C607 C606 1.327 . S
C607 C611 1.429 1_545 S
C608 C591 1.574 . S
C608 H602 0.949 . S
C608 C612 1.368 . S
C609 C590 1.429 . S
C609 C603 1.429 . S
C609 C610 1.523 . S
C610 C591 1.368 . S
C610 C604 1.368 . S
C610 C609 1.523 . S
C611 C595 1.429 . S
C611 C607 1.429 1_565 S
C611 C612 1.523 . S
C612 C596 1.368 . S
C612 C608 1.368 . S
C612 C611 1.523 . S
H613 C588 0.950 . S
H614 C590 0.950 . S
H615 C591 0.949 . S
H616 C593 0.950 . S
H617 C595 0.950 . S
C618 C619 1.349 . S
C618 C620 1.327 . S
C618 H643 0.950 . S
C619 C618 1.349 . S
C619 C635 1.349 . S
C620 C618 1.327 . S
C620 C639 1.429 1_565 S
C620 H644 0.950 . S
C621 C638 1.574 . S
C621 C640 1.368 . S
C621 H645 0.949 . S
H622 C626 0.949 . S
C623 C624 1.349 . S
C623 C625 1.327 . S
C623 H646 0.950 . S
C624 C623 1.349 . S
C624 C636 1.349 . S
C625 C623 1.327 . S
C625 C641 1.429 . S
C625 H647 0.950 . S
C626 H622 0.949 . S
C626 C634 1.574 . S
C626 C642 1.368 . S
H627 C635 0.950 . S
H628 C633 0.950 . S
H629 C634 0.949 1_565 S
H630 C636 0.950 . S
H631 C637 0.950 . S
H632 C638 0.949 . S
C633 H628 0.950 . S
C633 C635 1.327 1_545 S
C633 C639 1.429 . S
C634 C626 1.574 . S
C634 H629 0.949 1_545 S
C634 C640 1.368 . S
C635 C619 1.349 . S
C635 H627 0.950 . S
C635 C633 1.327 1_565 S
C636 C624 1.349 . S
C636 H630 0.950 . S
C636 C637 1.327 . S
C637 H631 0.950 . S
C637 C636 1.327 . S
C637 C641 1.429 . S
C638 C621 1.574 . S
C638 H632 0.949 . S
C638 C642 1.368 . S
C639 C620 1.429 1_545 S
C639 C633 1.429 . S
C639 C640 1.523 . S
C640 C621 1.368 . S
C640 C634 1.368 . S
C640 C639 1.523 . S
C641 C625 1.429 . S
C641 C637 1.429 . S
C641 C642 1.523 . S
C642 C626 1.368 . S
C642 C638 1.368 . S
C642 C641 1.523 . S
H643 C618 0.950 . S
H644 C620 0.950 . S
H645 C621 0.949 . S
H646 C623 0.950 . S
H647 C625 0.950 . S
C648 C649 1.349 . S
C648 C650 1.327 . S
C648 H673 0.950 . S
C649 C648 1.349 . S
C649 C665 1.349 . S
C650 C648 1.327 . S
C650 C669 1.429 . S
C650 H674 0.950 . S
C651 C668 1.574 . S
C651 C670 1.368 . S
C651 H675 0.949 . S
H652 C656 0.949 . S
C653 C654 1.349 . S
C653 C655 1.327 . S
C653 H676 0.950 . S
C654 C653 1.349 . S
C654 C666 1.349 . S
C655 C653 1.327 . S
C655 C671 1.429 . S
C655 H677 0.950 . S
C656 H652 0.949 . S
C656 C664 1.574 . S
C656 C672 1.368 . S
H657 C665 0.950 . S
H658 C663 0.950 . S
H659 C664 0.949 . S
H660 C666 0.950 . S
H661 C667 0.950 . S
H662 C668 0.949 . S
C663 H658 0.950 . S
C663 C665 1.327 . S
C663 C669 1.429 . S
C664 C656 1.574 . S
C664 H659 0.949 . S
C664 C670 1.368 . S
C665 C649 1.349 . S
C665 H657 0.950 . S
C665 C663 1.327 . S
C666 C654 1.349 . S
C666 H660 0.950 . S
C666 C667 1.327 . S
C667 H661 0.950 . S
C667 C666 1.327 . S
C667 C671 1.429 . S
C668 C651 1.574 . S
C668 H662 0.949 . S
C668 C672 1.368 . S
C669 C650 1.429 . S
C669 C663 1.429 . S
C669 C670 1.523 . S
C670 C651 1.368 . S
C670 C664 1.368 . S
C670 C669 1.523 . S
C671 C655 1.429 . S
C671 C667 1.429 . S
C671 C672 1.523 . S
C672 C656 1.368 . S
C672 C668 1.368 . S
C672 C671 1.523 . S
H673 C648 0.950 . S
H674 C650 0.950 . S
H675 C651 0.949 . S
H676 C653 0.950 . S
H677 C655 0.950 . S
C678 C679 1.349 . S
C678 C680 1.327 . S
C678 H703 0.950 . S
C679 C678 1.349 . S
C679 C695 1.349 . S
C680 C678 1.327 . S
C680 C699 1.429 . S
C680 H704 0.950 . S
C681 C698 1.574 . S
C681 C700 1.368 . S
C681 H705 0.949 . S
H682 C686 0.949 . S
C683 C684 1.349 . S
C683 C685 1.327 1_556 S
C683 H706 0.950 . S
C684 C683 1.349 . S
C684 C696 1.349 . S
C685 C683 1.327 1_554 S
C685 C701 1.429 . S
C685 H707 0.950 . S
C686 H682 0.949 . S
C686 C694 1.574 . S
C686 C702 1.368 . S
H687 C695 0.950 . S
H688 C693 0.950 . S
H689 C694 0.949 . S
H690 C696 0.950 . S
H691 C697 0.950 . S
H692 C698 0.949 . S
C693 H688 0.950 . S
C693 C695 1.327 . S
C693 C699 1.429 . S
C694 C686 1.574 . S
C694 H689 0.949 . S
C694 C700 1.368 . S
C695 C679 1.349 . S
C695 H687 0.950 . S
C695 C693 1.327 . S
C696 C684 1.349 . S
C696 H690 0.950 . S
C696 C697 1.327 . S
C697 H691 0.950 . S
C697 C696 1.327 . S
C697 C701 1.429 1_556 S
C698 C681 1.574 . S
C698 H692 0.949 . S
C698 C702 1.368 . S
C699 C680 1.429 . S
C699 C693 1.429 . S
C699 C700 1.523 . S
C700 C681 1.368 . S
C700 C694 1.368 . S
C700 C699 1.523 . S
C701 C685 1.429 . S
C701 C697 1.429 1_554 S
C701 C702 1.523 . S
C702 C686 1.368 . S
C702 C698 1.368 . S
C702 C701 1.523 . S
H703 C678 0.950 . S
H704 C680 0.950 . S
H705 C681 0.949 . S
H706 C683 0.950 . S
H707 C685 0.950 . S
C708 C709 1.349 . S
C708 C710 1.327 . S
C708 H733 0.950 . S
C709 C708 1.349 . S
C709 C725 1.349 . S
C710 C708 1.327 . S
C710 C729 1.429 . S
C710 H734 0.950 . S
C711 C728 1.574 . S
C711 C730 1.368 . S
C711 H735 0.949 . S
H712 C716 0.949 . S
C713 C714 1.349 . S
C713 C715 1.327 . S
C713 H736 0.950 . S
C714 C713 1.349 . S
C714 C726 1.349 . S
C715 C713 1.327 . S
C715 C731 1.429 . S
C715 H737 0.950 . S
C716 H712 0.949 . S
C716 C724 1.574 . S
C716 C732 1.368 . S
H717 C725 0.950 . S
H718 C723 0.950 . S
H719 C724 0.949 . S
H720 C726 0.950 . S
H721 C727 0.950 . S
H722 C728 0.949 . S
C723 H718 0.950 . S
C723 C725 1.327 . S
C723 C729 1.429 . S
C724 C716 1.574 . S
C724 H719 0.949 . S
C724 C730 1.368 . S
C725 C709 1.349 . S
C725 H717 0.950 . S
C725 C723 1.327 . S
C726 C714 1.349 . S
C726 H720 0.950 . S
C726 C727 1.327 . S
C727 H721 0.950 . S
C727 C726 1.327 . S
C727 C731 1.429 . S
C728 C711 1.574 . S
C728 H722 0.949 . S
C728 C732 1.368 . S
C729 C710 1.429 . S
C729 C723 1.429 . S
C729 C730 1.523 . S
C730 C711 1.368 . S
C730 C724 1.368 . S
C730 C729 1.523 . S
C731 C715 1.429 . S
C731 C727 1.429 . S
C731 C732 1.523 . S
C732 C716 1.368 . S
C732 C728 1.368 . S
C732 C731 1.523 . S
H733 C708 0.950 . S
H734 C710 0.950 . S
H735 C711 0.949 . S
H736 C713 0.950 . S
H737 C715 0.950 . S
C738 C739 1.349 . S
C738 C740 1.327 . S
C738 H763 0.950 . S
C739 C738 1.349 . S
C739 C755 1.349 . S
C740 C738 1.327 . S
C740 C759 1.429 . S
C740 H764 0.950 . S
C741 C758 1.574 . S
C741 C760 1.368 . S
C741 H765 0.949 . S
H742 C746 0.949 . S
C743 C744 1.349 . S
C743 C745 1.327 . S
C743 H766 0.950 . S
C744 C743 1.349 . S
C744 C756 1.349 . S
C745 C743 1.327 . S
C745 C761 1.429 1_554 S
C745 H767 0.950 . S
C746 H742 0.949 . S
C746 C754 1.574 . S
C746 C762 1.368 . S
H747 C755 0.950 . S
H748 C753 0.950 . S
H749 C754 0.949 . S
H750 C756 0.950 . S
H751 C757 0.950 . S
H752 C758 0.914 1_554 S
C753 H748 0.950 . S
C753 C755 1.327 . S
C753 C759 1.429 . S
C754 C746 1.574 . S
C754 H749 0.949 . S
C754 C760 1.368 . S
C755 C739 1.349 . S
C755 H747 0.950 . S
C755 C753 1.327 . S
C756 C744 1.349 . S
C756 H750 0.950 . S
C756 C757 1.327 1_554 S
C757 H751 0.950 . S
C757 C756 1.327 1_556 S
C757 C761 1.429 . S
C758 C741 1.574 . S
C758 H752 0.914 1_556 S
C758 C762 1.368 . S
C759 C740 1.429 . S
C759 C753 1.429 . S
C759 C760 1.523 . S
C760 C741 1.368 . S
C760 C754 1.368 . S
C760 C759 1.523 . S
C761 C745 1.429 1_556 S
C761 C757 1.429 . S
C761 C762 1.523 . S
C762 C746 1.368 . S
C762 C758 1.368 . S
C762 C761 1.523 . S
H763 C738 0.950 . S
H764 C740 0.950 . S
H765 C741 0.949 . S
H766 C743 0.950 . S
H767 C745 0.950 . S
C768 C769 1.349 . S
C768 C770 1.327 . S
C768 H793 0.950 . S
C769 C768 1.349 . S
C769 C785 1.349 . S
C770 C768 1.327 . S
C770 C789 1.429 . S
C770 H794 0.950 . S
C771 C788 1.574 . S
C771 C790 1.368 . S
C771 H795 0.949 . S
H772 C776 0.949 . S
C773 C774 1.349 . S
C773 C775 1.327 . S
C773 H796 0.950 . S
C774 C773 1.349 . S
C774 C786 1.349 . S
C775 C773 1.327 . S
C775 C791 1.429 . S
C775 H797 0.950 . S
C776 H772 0.949 . S
C776 C784 1.574 . S
C776 C792 1.368 . S
H777 C785 0.950 . S
H778 C783 0.950 . S
H779 C784 0.949 . S
H780 C786 0.950 . S
H781 C787 0.950 . S
H782 C788 0.949 . S
C783 H778 0.950 . S
C783 C785 1.327 . S
C783 C789 1.429 . S
C784 C776 1.574 . S
C784 H779 0.949 . S
C784 C790 1.368 . S
C785 C769 1.349 . S
C785 H777 0.950 . S
C785 C783 1.327 . S
C786 C774 1.349 . S
C786 H780 0.950 . S
C786 C787 1.327 . S
C787 H781 0.950 . S
C787 C786 1.327 . S
C787 C791 1.429 . S
C788 C771 1.574 . S
C788 H782 0.949 . S
C788 C792 1.368 . S
C789 C770 1.429 . S
C789 C783 1.429 . S
C789 C790 1.523 . S
C790 C771 1.368 . S
C790 C784 1.368 . S
C790 C789 1.523 . S
C791 C775 1.429 . S
C791 C787 1.429 . S
C791 C792 1.523 . S
C792 C776 1.368 . S
C792 C788 1.368 . S
C792 C791 1.523 . S
H793 C768 0.950 . S
H794 C770 0.950 . S
H795 C771 0.949 . S
H796 C773 0.950 . S
H797 C775 0.950 . S
C798 C799 1.349 . S
C798 C800 1.327 . S
C798 H823 0.950 . S
C799 C798 1.349 . S
C799 C815 1.349 . S
C800 C798 1.327 . S
C800 C819 1.429 1_655 S
C800 H824 0.950 1_655 S
C801 C818 1.574 . S
C801 C820 1.368 . S
C801 H825 0.949 . S
H802 C806 0.949 . S
C803 C804 1.349 . S
C803 C805 1.327 . S
C803 H826 0.950 . S
C804 C803 1.349 . S
C804 C816 1.349 . S
C805 C803 1.327 . S
C805 C821 1.429 . S
C805 H827 0.950 . S
C806 H802 0.949 . S
C806 C814 1.574 . S
C806 C822 1.368 . S
H807 C815 0.950 . S
H808 C813 0.950 . S
H809 C814 0.949 . S
H810 C816 0.950 . S
H811 C817 0.950 . S
H812 C818 0.949 . S
C813 H808 0.950 . S
C813 C815 1.327 . S
C813 C819 1.429 1_655 S
C814 C806 1.574 . S
C814 H809 0.949 . S
C814 C820 1.368 . S
C815 C799 1.349 . S
C815 H807 0.950 . S
C815 C813 1.327 . S
C816 C804 1.349 . S
C816 H810 0.950 . S
C816 C817 1.327 . S
C817 H811 0.950 . S
C817 C816 1.327 . S
C817 C821 1.429 . S
C818 C801 1.574 . S
C818 H812 0.949 . S
C818 C822 1.368 . S
C819 C800 1.429 1_455 S
C819 C813 1.429 1_455 S
C819 C820 1.523 . S
C820 C801 1.368 . S
C820 C814 1.368 . S
C820 C819 1.523 . S
C821 C805 1.429 . S
C821 C817 1.429 . S
C821 C822 1.523 . S
C822 C806 1.368 . S
C822 C818 1.368 . S
C822 C821 1.523 . S
H823 C798 0.950 . S
H824 C800 0.950 1_455 S
H825 C801 0.949 . S
H826 C803 0.950 . S
H827 C805 0.950 . S
C828 C829 1.349 . S
C828 C830 1.327 . S
C828 H853 0.950 . S
C829 C828 1.349 . S
C829 C845 1.349 . S
C830 C828 1.327 . S
C830 C849 1.429 . S
C830 H854 0.950 . S
C831 C848 1.574 . S
C831 C850 1.368 . S
C831 H855 0.949 . S
H832 C836 0.949 . S
C833 C834 1.349 . S
C833 C835 1.327 . S
C833 H856 0.950 . S
C834 C833 1.349 . S
C834 C846 1.349 . S
C835 C833 1.327 . S
C835 C851 1.429 . S
C835 H857 0.950 . S
C836 H832 0.949 . S
C836 C844 1.574 . S
C836 C852 1.368 . S
H837 C845 0.950 . S
H838 C843 0.950 . S
H839 C844 0.949 . S
H840 C846 0.950 . S
H841 C847 0.950 . S
H842 C848 0.949 . S
C843 H838 0.950 . S
C843 C845 1.327 . S
C843 C849 1.429 . S
C844 C836 1.574 . S
C844 H839 0.949 . S
C844 C850 1.368 . S
C845 C829 1.349 . S
C845 H837 0.950 . S
C845 C843 1.327 . S
C846 C834 1.349 . S
C846 H840 0.950 . S
C846 C847 1.327 . S
C847 H841 0.950 . S
C847 C846 1.327 . S
C847 C851 1.429 . S
C848 C831 1.574 . S
C848 H842 0.949 . S
C848 C852 1.368 . S
C849 C830 1.429 . S
C849 C843 1.429 . S
C849 C850 1.523 . S
C850 C831 1.368 . S
C850 C844 1.368 . S
C850 C849 1.523 . S
C851 C835 1.429 . S
C851 C847 1.429 . S
C851 C852 1.523 . S
C852 C836 1.368 . S
C852 C848 1.368 . S
C852 C851 1.523 . S
H853 C828 0.950 . S
H854 C830 0.950 . S
H855 C831 0.949 . S
H856 C833 0.950 . S
H857 C835 0.950 . S
C858 C859 1.349 . S
C858 C860 1.327 . S
C858 H883 0.950 . S
C859 C858 1.349 . S
C859 C875 1.349 . S
C860 C858 1.327 . S
C860 C879 1.429 . S
C860 H884 0.950 . S
C861 C878 1.574 . S
C861 C880 1.368 . S
C861 H885 0.949 . S
H862 C866 0.949 . S
C863 C864 1.349 . S
C863 C865 1.327 . S
C863 H886 0.950 . S
C864 C863 1.349 . S
C864 C876 1.349 . S
C865 C863 1.327 . S
C865 C881 1.429 1_455 S
C865 H887 0.950 1_455 S
C866 H862 0.949 . S
C866 C874 1.574 . S
C866 C882 1.368 . S
H867 C875 0.950 . S
H868 C873 0.950 . S
H869 C874 0.949 . S
H870 C876 0.950 . S
H871 C877 0.950 . S
H872 C878 0.949 . S
C873 H868 0.950 . S
C873 C875 1.327 . S
C873 C879 1.429 . S
C874 C866 1.574 . S
C874 H869 0.949 . S
C874 C880 1.368 . S
C875 C859 1.349 . S
C875 H867 0.950 . S
C875 C873 1.327 . S
C876 C864 1.349 . S
C876 H870 0.950 . S
C876 C877 1.327 . S
C877 H871 0.950 . S
C877 C876 1.327 . S
C877 C881 1.429 1_455 S
C878 C861 1.574 . S
C878 H872 0.949 . S
C878 C882 1.368 . S
C879 C860 1.429 . S
C879 C873 1.429 . S
C879 C880 1.523 . S
C880 C861 1.368 . S
C880 C874 1.368 . S
C880 C879 1.523 . S
C881 C865 1.429 1_655 S
C881 C877 1.429 1_655 S
C881 C882 1.523 . S
C882 C866 1.368 . S
C882 C878 1.368 . S
C882 C881 1.523 . S
H883 C858 0.950 . S
H884 C860 0.950 . S
H885 C861 0.949 . S
H886 C863 0.950 . S
H887 C865 0.950 1_655 S
C888 C889 1.349 . S
C888 C890 1.327 . S
C888 H913 0.950 . S
C889 C888 1.349 . S
C889 C905 1.349 . S
C890 C888 1.327 . S
C890 C909 1.429 . S
C890 H914 0.950 . S
C891 C908 1.574 . S
C891 C910 1.368 . S
C891 H915 0.949 . S
H892 C896 0.949 . S
C893 C894 1.349 . S
C893 C895 1.327 . S
C893 H916 0.950 . S
C894 C893 1.349 . S
C894 C906 1.349 . S
C895 C893 1.327 . S
C895 C911 1.429 . S
C895 H917 0.950 . S
C896 H892 0.949 . S
C896 C904 1.574 . S
C896 C912 1.368 . S
H897 C905 0.950 . S
H898 C903 0.950 . S
H899 C904 0.949 . S
H900 C906 0.950 . S
H901 C907 0.950 . S
H902 C908 0.949 . S
C903 H898 0.950 . S
C903 C905 1.327 . S
C903 C909 1.429 . S
C904 C896 1.574 . S
C904 H899 0.949 . S
C904 C910 1.368 . S
C905 C889 1.349 . S
C905 H897 0.950 . S
C905 C903 1.327 . S
C906 C894 1.349 . S
C906 H900 0.950 . S
C906 C907 1.327 . S
C907 H901 0.950 . S
C907 C906 1.327 . S
C907 C911 1.429 . S
C908 C891 1.574 . S
C908 H902 0.949 . S
C908 C912 1.368 . S
C909 C890 1.429 . S
C909 C903 1.429 . S
C909 C910 1.523 . S
C910 C891 1.368 . S
C910 C904 1.368 . S
C910 C909 1.523 . S
C911 C895 1.429 . S
C911 C907 1.429 . S
C911 C912 1.523 . S
C912 C896 1.368 . S
C912 C908 1.368 . S
C912 C911 1.523 . S
H913 C888 0.950 . S
H914 C890 0.950 . S
H915 C891 0.949 . S
H916 C893 0.950 . S
H917 C895 0.950 . S
C918 C919 1.349 . S
C918 C920 1.327 . S
C918 H943 0.950 . S
C919 C918 1.349 . S
C919 C935 1.349 . S
C920 C918 1.327 . S
C920 C939 1.429 . S
C920 H944 0.950 . S
C921 C938 1.574 . S
C921 C940 1.368 . S
C921 H945 0.949 . S
H922 C926 0.949 . S
C923 C924 1.349 . S
C923 C925 1.327 . S
C923 H946 0.950 . S
C924 C923 1.349 . S
C924 C936 1.349 . S
C925 C923 1.327 . S
C925 C941 1.429 . S
C925 H947 0.950 . S
C926 H922 0.949 . S
C926 C934 1.574 . S
C926 C942 1.368 . S
H927 C935 0.950 . S
H928 C933 0.950 . S
H929 C934 0.949 . S
H930 C936 0.950 . S
H931 C937 0.950 . S
H932 C938 0.949 . S
C933 H928 0.950 . S
C933 C935 1.327 . S
C933 C939 1.429 . S
C934 C926 1.574 . S
C934 H929 0.949 . S
C934 C940 1.368 . S
C935 C919 1.349 . S
C935 H927 0.950 . S
C935 C933 1.327 . S
C936 C924 1.349 . S
C936 H930 0.950 . S
C936 C937 1.327 . S
C937 H931 0.950 . S
C937 C936 1.327 . S
C937 C941 1.429 . S
C938 C921 1.574 . S
C938 H932 0.949 . S
C938 C942 1.368 . S
C939 C920 1.429 . S
C939 C933 1.429 . S
C939 C940 1.523 . S
C940 C921 1.368 . S
C940 C934 1.368 . S
C940 C939 1.523 . S
C941 C925 1.429 . S
C941 C937 1.429 . S
C941 C942 1.523 . S
C942 C926 1.368 . S
C942 C938 1.368 . S
C942 C941 1.523 . S
H943 C918 0.950 . S
H944 C920 0.950 . S
H945 C921 0.949 . S
H946 C923 0.950 . S
H947 C925 0.950 . S
C948 C949 1.349 . S
C948 C950 1.327 . S
C948 H973 0.950 . S
C949 C948 1.349 . S
C949 C965 1.349 . S
C950 C948 1.327 . S
C950 C969 1.429 . S
C950 H974 0.950 . S
C951 C968 1.574 . S
C951 C970 1.368 . S
C951 H975 0.949 . S
H952 C956 0.949 . S
C953 C954 1.349 . S
C953 C955 1.327 . S
C953 H976 0.950 . S
C954 C953 1.349 . S
C954 C966 1.349 . S
C955 C953 1.327 . S
C955 C971 1.429 1_565 S
C955 H977 0.950 . S
C956 H952 0.949 . S
C956 C964 1.574 . S
C956 C972 1.368 . S
H957 C965 0.950 . S
H958 C963 0.950 . S
H959 C964 0.949 . S
H960 C966 0.950 . S
H961 C967 0.935 1_545 S
H962 C968 0.949 . S
C963 H958 0.950 . S
C963 C965 1.327 . S
C963 C969 1.429 . S
C964 C956 1.574 . S
C964 H959 0.949 . S
C964 C970 1.368 . S
C965 C949 1.349 . S
C965 H957 0.950 . S
C965 C963 1.327 . S
C966 C954 1.349 . S
C966 H960 0.950 . S
C966 C967 1.327 . S
C967 H961 0.935 1_565 S
C967 C966 1.327 . S
C967 C971 1.429 1_565 S
C968 C951 1.574 . S
C968 H962 0.949 . S
C968 C972 1.368 . S
C969 C950 1.429 . S
C969 C963 1.429 . S
C969 C970 1.523 . S
C970 C951 1.368 . S
C970 C964 1.368 . S
C970 C969 1.523 . S
C971 C955 1.429 1_545 S
C971 C967 1.429 1_545 S
C971 C972 1.523 . S
C972 C956 1.368 . S
C972 C968 1.368 . S
C972 C971 1.523 . S
H973 C948 0.950 . S
H974 C950 0.950 . S
H975 C951 0.949 . S
H976 C953 0.950 . S
H977 C955 0.950 . S
C978 C979 1.349 . S
C978 C980 1.327 . S
C978 H1003 0.950 . S
C979 C978 1.349 . S
C979 C995 1.349 . S
C980 C978 1.327 . S
C980 C999 1.429 . S
C980 H1004 0.950 . S
C981 C998 1.574 . S
C981 C1000 1.368 . S
C981 H1005 0.949 . S
H982 C986 0.949 . S
C983 C984 1.349 . S
C983 C985 1.327 1_545 S
C983 H1006 0.950 . S
C984 C983 1.349 . S
C984 C996 1.349 . S
C985 C983 1.327 1_565 S
C985 C1001 1.429 . S
C985 H1007 0.950 . S
C986 H982 0.949 . S
C986 C994 1.574 . S
C986 C1002 1.368 . S
H987 C995 0.950 . S
H988 C993 0.950 . S
H989 C994 0.949 . S
H990 C996 0.950 . S
H991 C997 0.950 . S
H992 C998 0.949 . S
C993 H988 0.950 . S
C993 C995 1.327 . S
C993 C999 1.429 . S
C994 C986 1.574 . S
C994 H989 0.949 . S
C994 C1000 1.368 . S
C995 C979 1.349 . S
C995 H987 0.950 . S
C995 C993 1.327 . S
C996 C984 1.349 . S
C996 H990 0.950 . S
C996 C997 1.327 . S
C997 H991 0.950 . S
C997 C996 1.327 . S
C997 C1001 1.429 1_545 S
C998 C981 1.574 . S
C998 H992 0.949 . S
C998 C1002 1.368 . S
C999 C980 1.429 . S
C999 C993 1.429 . S
C999 C1000 1.523 . S
C1000 C981 1.368 . S
C1000 C994 1.368 . S
C1000 C999 1.523 . S
C1001 C985 1.429 . S
C1001 C997 1.429 1_565 S
C1001 C1002 1.523 . S
C1002 C986 1.368 . S
C1002 C998 1.368 . S
C1002 C1001 1.523 . S
H1003 C978 0.950 . S
H1004 C980 0.950 . S
H1005 C981 0.949 . S
H1006 C983 0.950 . S
H1007 C985 0.950 . S
C1008 C1009 1.349 . S
C1008 C1010 1.327 . S
C1008 H1033 0.950 . S
C1009 C1008 1.349 . S
C1009 C1025 1.349 . S
C1010 C1008 1.327 . S
C1010 C1029 1.429 . S
C1010 H1034 0.950 . S
C1011 C1028 1.574 . S
C1011 C1030 1.368 . S
C1011 H1035 0.949 . S
H1012 C1016 0.949 . S
C1013 C1014 1.349 . S
C1013 C1015 1.327 . S
C1013 H1036 0.950 . S
C1014 C1013 1.349 . S
C1014 C1026 1.349 . S
C1015 C1013 1.327 . S
C1015 C1031 1.429 . S
C1015 H1037 0.950 . S
C1016 H1012 0.949 . S
C1016 C1024 1.574 . S
C1016 C1032 1.368 . S
H1017 C1025 0.950 . S
H1018 C1023 0.950 . S
H1019 C1024 0.949 . S
H1020 C1026 0.950 . S
H1021 C1027 0.950 . S
H1022 C1028 0.949 . S
C1023 H1018 0.950 . S
C1023 C1025 1.327 . S
C1023 C1029 1.429 . S
C1024 C1016 1.574 . S
C1024 H1019 0.949 . S
C1024 C1030 1.368 . S
C1025 C1009 1.349 . S
C1025 H1017 0.950 . S
C1025 C1023 1.327 . S
C1026 C1014 1.349 . S
C1026 H1020 0.950 . S
C1026 C1027 1.327 . S
C1027 H1021 0.950 . S
C1027 C1026 1.327 . S
C1027 C1031 1.429 . S
C1028 C1011 1.574 . S
C1028 H1022 0.949 . S
C1028 C1032 1.368 . S
C1029 C1010 1.429 . S
C1029 C1023 1.429 . S
C1029 C1030 1.523 . S
C1030 C1011 1.368 . S
C1030 C1024 1.368 . S
C1030 C1029 1.523 . S
C1031 C1015 1.429 . S
C1031 C1027 1.429 . S
C1031 C1032 1.523 . S
C1032 C1016 1.368 . S
C1032 C1028 1.368 . S
C1032 C1031 1.523 . S
H1033 C1008 0.950 . S
H1034 C1010 0.950 . S
H1035 C1011 0.949 . S
H1036 C1013 0.950 . S
H1037 C1015 0.950 . S
C1038 C1039 1.349 . S
C1038 C1040 1.327 . S
C1038 H1063 0.950 . S
C1039 C1038 1.349 . S
C1039 C1055 1.349 . S
C1040 C1038 1.327 . S
C1040 C1059 1.429 . S
C1040 H1064 0.950 . S
C1041 C1058 1.574 . S
C1041 C1060 1.368 . S
C1041 H1065 0.949 . S
H1042 C1046 0.949 . S
C1043 C1044 1.349 . S
C1043 C1045 1.327 1_554 S
C1043 H1066 0.950 . S
C1044 C1043 1.349 . S
C1044 C1056 1.349 . S
C1045 C1043 1.327 1_556 S
C1045 C1061 1.429 . S
C1045 H1067 0.950 . S
C1046 H1042 0.949 . S
C1046 C1054 1.574 . S
C1046 C1062 1.368 . S
H1047 C1055 0.950 . S
H1048 C1053 0.950 . S
H1049 C1054 0.949 . S
H1050 C1056 0.950 . S
H1051 C1057 0.950 . S
H1052 C1058 0.949 . S
C1053 H1048 0.950 . S
C1053 C1055 1.327 . S
C1053 C1059 1.429 . S
C1054 C1046 1.574 . S
C1054 H1049 0.949 . S
C1054 C1060 1.368 . S
C1055 C1039 1.349 . S
C1055 H1047 0.950 . S
C1055 C1053 1.327 . S
C1056 C1044 1.349 . S
C1056 H1050 0.950 . S
C1056 C1057 1.327 . S
C1057 H1051 0.950 . S
C1057 C1056 1.327 . S
C1057 C1061 1.429 1_554 S
C1058 C1041 1.574 . S
C1058 H1052 0.949 . S
C1058 C1062 1.368 . S
C1059 C1040 1.429 . S
C1059 C1053 1.429 . S
C1059 C1060 1.523 . S
C1060 C1041 1.368 . S
C1060 C1054 1.368 . S
C1060 C1059 1.523 . S
C1061 C1045 1.429 . S
C1061 C1057 1.429 1_556 S
C1061 C1062 1.523 . S
C1062 C1046 1.368 . S
C1062 C1058 1.368 . S
C1062 C1061 1.523 . S
H1063 C1038 0.950 . S
H1064 C1040 0.950 . S
H1065 C1041 0.949 . S
H1066 C1043 0.950 . S
H1067 C1045 0.950 . S
C1068 C1069 1.349 . S
C1068 C1070 1.327 . S
C1068 H1093 0.950 . S
C1069 C1068 1.349 . S
C1069 C1085 1.349 . S
C1070 C1068 1.327 . S
C1070 C1089 1.429 . S
C1070 H1094 0.950 . S
C1071 C1088 1.574 . S
C1071 C1090 1.368 . S
C1071 H1095 0.949 . S
H1072 C1076 0.949 . S
C1073 C1074 1.349 . S
C1073 C1075 1.327 . S
C1073 H1096 0.950 . S
C1074 C1073 1.349 . S
C1074 C1086 1.349 . S
C1075 C1073 1.327 . S
C1075 C1091 1.429 . S
C1075 H1097 0.950 . S
C1076 H1072 0.949 . S
C1076 C1084 1.574 . S
C1076 C1092 1.368 . S
H1077 C1085 0.950 . S
H1078 C1083 0.950 . S
H1079 C1084 0.949 . S
H1080 C1086 0.950 . S
H1081 C1087 0.950 . S
H1082 C1088 0.949 . S
C1083 H1078 0.950 . S
C1083 C1085 1.327 . S
C1083 C1089 1.429 . S
C1084 C1076 1.574 . S
C1084 H1079 0.949 . S
C1084 C1090 1.368 . S
C1085 C1069 1.349 . S
C1085 H1077 0.950 . S
C1085 C1083 1.327 . S
C1086 C1074 1.349 . S
C1086 H1080 0.950 . S
C1086 C1087 1.327 . S
C1087 H1081 0.950 . S
C1087 C1086 1.327 . S
C1087 C1091 1.429 . S
C1088 C1071 1.574 . S
C1088 H1082 0.949 . S
C1088 C1092 1.368 . S
C1089 C1070 1.429 . S
C1089 C1083 1.429 . S
C1089 C1090 1.523 . S
C1090 C1071 1.368 . S
C1090 C1084 1.368 . S
C1090 C1089 1.523 . S
C1091 C1075 1.429 . S
C1091 C1087 1.429 . S
C1091 C1092 1.523 . S
C1092 C1076 1.368 . S
C1092 C1088 1.368 . S
C1092 C1091 1.523 . S
H1093 C1068 0.950 . S
H1094 C1070 0.950 . S
H1095 C1071 0.949 . S
H1096 C1073 0.950 . S
H1097 C1075 0.950 . S
C1098 C1099 1.349 . S
C1098 C1100 1.327 . S
C1098 H1123 0.950 . S
C1099 C1098 1.349 . S
C1099 C1115 1.349 . S
C1100 C1098 1.327 . S
C1100 C1119 1.429 1_556 S
C1100 H1124 0.950 . S
C1101 C1118 1.574 . S
C1101 C1120 1.368 . S
C1101 H1125 0.949 . S
H1102 C1106 0.949 . S
C1103 C1104 1.349 . S
C1103 C1105 1.327 . S
C1103 H1126 0.950 . S
C1104 C1103 1.349 . S
C1104 C1116 1.349 . S
C1105 C1103 1.327 . S
C1105 C1121 1.429 . S
C1105 H1127 0.950 . S
C1106 H1102 0.949 . S
C1106 C1114 1.574 . S
C1106 C1122 1.368 . S
H1107 C1115 0.950 . S
H1108 C1113 0.950 . S
H1109 C1114 0.949 1_556 S
H1110 C1116 0.950 . S
H1111 C1117 0.950 . S
H1112 C1118 0.949 . S
C1113 H1108 0.950 . S
C1113 C1115 1.327 1_554 S
C1113 C1119 1.429 . S
C1114 C1106 1.574 . S
C1114 H1109 0.949 1_554 S
C1114 C1120 1.368 . S
C1115 C1099 1.349 . S
C1115 H1107 0.950 . S
C1115 C1113 1.327 1_556 S
C1116 C1104 1.349 . S
C1116 H1110 0.950 . S
C1116 C1117 1.327 . S
C1117 H1111 0.950 . S
C1117 C1116 1.327 . S
C1117 C1121 1.429 . S
C1118 C1101 1.574 . S
C1118 H1112 0.949 . S
C1118 C1122 1.368 . S
C1119 C1100 1.429 1_554 S
C1119 C1113 1.429 . S
C1119 C1120 1.523 . S
C1120 C1101 1.368 . S
C1120 C1114 1.368 . S
C1120 C1119 1.523 . S
C1121 C1105 1.429 . S
C1121 C1117 1.429 . S
C1121 C1122 1.523 . S
C1122 C1106 1.368 . S
C1122 C1118 1.368 . S
C1122 C1121 1.523 . S
H1123 C1098 0.950 . S
H1124 C1100 0.950 . S
H1125 C1101 0.949 . S
H1126 C1103 0.950 . S
H1127 C1105 0.950 . S
C1128 C1129 1.349 . S
C1128 C1130 1.327 . S
C1128 H1153 0.950 . S
C1129 C1128 1.349 . S
C1129 C1145 1.349 . S
C1130 C1128 1.327 . S
C1130 C1149 1.429 . S
C1130 H1154 0.950 . S
C1131 C1148 1.574 . S
C1131 C1150 1.368 . S
C1131 H1155 0.949 . S
H1132 C1136 0.949 . S
C1133 C1134 1.349 . S
C1133 C1135 1.327 . S
C1133 H1156 0.950 . S
C1134 C1133 1.349 . S
C1134 C1146 1.349 . S
C1135 C1133 1.327 . S
C1135 C1151 1.429 . S
C1135 H1157 0.950 . S
C1136 H1132 0.949 . S
C1136 C1144 1.574 . S
C1136 C1152 1.368 . S
H1137 C1145 0.950 . S
H1138 C1143 0.950 . S
H1139 C1144 0.949 . S
H1140 C1146 0.950 . S
H1141 C1147 0.950 . S
H1142 C1148 0.949 . S
C1143 H1138 0.950 . S
C1143 C1145 1.327 . S
C1143 C1149 1.429 . S
C1144 C1136 1.574 . S
C1144 H1139 0.949 . S
C1144 C1150 1.368 . S
C1145 C1129 1.349 . S
C1145 H1137 0.950 . S
C1145 C1143 1.327 . S
C1146 C1134 1.349 . S
C1146 H1140 0.950 . S
C1146 C1147 1.327 . S
C1147 H1141 0.950 . S
C1147 C1146 1.327 . S
C1147 C1151 1.429 . S
C1148 C1131 1.574 . S
C1148 H1142 0.949 . S
C1148 C1152 1.368 . S
C1149 C1130 1.429 . S
C1149 C1143 1.429 . S
C1149 C1150 1.523 . S
C1150 C1131 1.368 . S
C1150 C1144 1.368 . S
C1150 C1149 1.523 . S
C1151 C1135 1.429 . S
C1151 C1147 1.429 . S
C1151 C1152 1.523 . S
C1152 C1136 1.368 . S
C1152 C1148 1.368 . S
C1152 C1151 1.523 . S
H1153 C1128 0.950 . S
H1154 C1130 0.950 . S
H1155 C1131 0.949 . S
H1156 C1133 0.950 . S
H1157 C1135 0.950 . S
C1158 C1159 1.349 . S
C1158 C1160 1.327 1_455 S
C1158 H1183 0.950 . S
C1159 C1158 1.349 . S
C1159 C1175 1.349 . S
C1160 C1158 1.327 1_655 S
C1160 C1179 1.429 . S
C1160 H1184 0.950 . S
C1161 C1178 1.574 . S
C1161 C1180 1.368 . S
C1161 H1185 0.949 1_655 S
H1162 C1166 0.949 . S
C1163 C1164 1.349 . S
C1163 C1165 1.327 . S
C1163 H1186 0.950 . S
C1164 C1163 1.349 . S
C1164 C1176 1.349 . S
C1165 C1163 1.327 . S
C1165 C1181 1.429 . S
C1165 H1187 0.950 . S
C1166 H1162 0.949 . S
C1166 C1174 1.574 . S
C1166 C1182 1.368 . S
H1167 C1175 0.950 . S
H1168 C1173 0.950 . S
H1169 C1174 0.949 . S
H1170 C1176 0.950 . S
H1171 C1177 0.950 . S
H1172 C1178 0.949 . S
C1173 H1168 0.950 . S
C1173 C1175 1.327 . S
C1173 C1179 1.429 1_455 S
C1174 C1166 1.574 . S
C1174 H1169 0.949 . S
C1174 C1180 1.368 . S
C1175 C1159 1.349 . S
C1175 H1167 0.950 . S
C1175 C1173 1.327 . S
C1176 C1164 1.349 . S
C1176 H1170 0.950 . S
C1176 C1177 1.327 . S
C1177 H1171 0.950 . S
C1177 C1176 1.327 . S
C1177 C1181 1.429 . S
C1178 C1161 1.574 . S
C1178 H1172 0.949 . S
C1178 C1182 1.368 . S
C1179 C1160 1.429 . S
C1179 C1173 1.429 1_655 S
C1179 C1180 1.523 . S
C1180 C1161 1.368 . S
C1180 C1174 1.368 . S
C1180 C1179 1.523 . S
C1181 C1165 1.429 . S
C1181 C1177 1.429 . S
C1181 C1182 1.523 . S
C1182 C1166 1.368 . S
C1182 C1178 1.368 . S
C1182 C1181 1.523 . S
H1183 C1158 0.950 . S
H1184 C1160 0.950 . S
H1185 C1161 0.949 1_455 S
H1186 C1163 0.950 . S
H1187 C1165 0.950 . S
C1188 C1189 1.349 . S
C1188 C1190 1.327 . S
C1188 H1213 0.950 . S
C1189 C1188 1.349 . S
C1189 C1205 1.349 . S
C1190 C1188 1.327 . S
C1190 C1209 1.429 . S
C1190 H1214 0.950 . S
C1191 C1208 1.574 . S
C1191 C1210 1.368 . S
C1191 H1215 0.949 . S
H1192 C1196 0.949 . S
C1193 C1194 1.349 . S
C1193 C1195 1.327 . S
C1193 H1216 0.950 . S
C1194 C1193 1.349 . S
C1194 C1206 1.349 . S
C1195 C1193 1.327 . S
C1195 C1211 1.429 . S
C1195 H1217 0.950 . S
C1196 H1192 0.949 . S
C1196 C1204 1.574 . S
C1196 C1212 1.368 . S
H1197 C1205 0.950 . S
H1198 C1203 0.950 . S
H1199 C1204 0.949 . S
H1200 C1206 0.950 . S
H1201 C1207 0.950 . S
H1202 C1208 0.949 . S
C1203 H1198 0.950 . S
C1203 C1205 1.327 . S
C1203 C1209 1.429 . S
C1204 C1196 1.574 . S
C1204 H1199 0.949 . S
C1204 C1210 1.368 . S
C1205 C1189 1.349 . S
C1205 H1197 0.950 . S
C1205 C1203 1.327 . S
C1206 C1194 1.349 . S
C1206 H1200 0.950 . S
C1206 C1207 1.327 . S
C1207 H1201 0.950 . S
C1207 C1206 1.327 . S
C1207 C1211 1.429 . S
C1208 C1191 1.574 . S
C1208 H1202 0.949 . S
C1208 C1212 1.368 . S
C1209 C1190 1.429 . S
C1209 C1203 1.429 . S
C1209 C1210 1.523 . S
C1210 C1191 1.368 . S
C1210 C1204 1.368 . S
C1210 C1209 1.523 . S
C1211 C1195 1.429 . S
C1211 C1207 1.429 . S
C1211 C1212 1.523 . S
C1212 C1196 1.368 . S
C1212 C1208 1.368 . S
C1212 C1211 1.523 . S
H1213 C1188 0.950 . S
H1214 C1190 0.950 . S
H1215 C1191 0.949 . S
H1216 C1193 0.950 . S
H1217 C1195 0.950 . S
C1218 C1219 1.349 . S
C1218 C1220 1.327 . S
C1218 H1243 0.950 . S
C1219 C1218 1.349 . S
C1219 C1235 1.349 . S
C1220 C1218 1.327 . S
C1220 C1239 1.429 . S
C1220 H1244 0.950 . S
C1221 C1238 1.574 . S
C1221 C1240 1.368 . S
C1221 H1245 0.949 . S
H1222 C1226 0.949 . S
C1223 C1224 1.349 . S
C1223 C1225 1.327 . S
C1223 H1246 0.950 . S
C1224 C1223 1.349 . S
C1224 C1236 1.349 . S
C1225 C1223 1.327 . S
C1225 C1241 1.429 1_655 S
C1225 H1247 0.950 . S
C1226 H1222 0.949 . S
C1226 C1234 1.574 . S
C1226 C1242 1.368 . S
H1227 C1235 0.950 . S
H1228 C1233 0.950 . S
H1229 C1234 0.949 . S
H1230 C1236 0.950 . S
H1231 C1237 0.950 . S
H1232 C1238 0.982 . S
C1233 H1228 0.950 . S
C1233 C1235 1.327 . S
C1233 C1239 1.429 . S
C1234 C1226 1.574 . S
C1234 H1229 0.949 . S
C1234 C1240 1.368 . S
C1235 C1219 1.349 . S
C1235 H1227 0.950 . S
C1235 C1233 1.327 . S
C1236 C1224 1.349 . S
C1236 H1230 0.950 . S
C1236 C1237 1.327 1_655 S
C1237 H1231 0.950 . S
C1237 C1236 1.327 1_455 S
C1237 C1241 1.429 . S
C1238 C1221 1.574 . S
C1238 H1232 0.982 . S
C1238 C1242 1.368 . S
C1239 C1220 1.429 . S
C1239 C1233 1.429 . S
C1239 C1240 1.523 . S
C1240 C1221 1.368 . S
C1240 C1234 1.368 . S
C1240 C1239 1.523 . S
C1241 C1225 1.429 1_455 S
C1241 C1237 1.429 . S
C1241 C1242 1.523 . S
C1242 C1226 1.368 . S
C1242 C1238 1.368 . S
C1242 C1241 1.523 . S
H1243 C1218 0.950 . S
H1244 C1220 0.950 . S
H1245 C1221 0.949 . S
H1246 C1223 0.950 . S
H1247 C1225 0.950 . S
C1248 C1249 1.349 . S
C1248 C1250 1.327 1_556 S
C1248 H1273 0.950 . S
C1249 C1248 1.349 . S
C1249 C1265 1.349 . S
C1250 C1248 1.327 1_554 S
C1250 C1269 1.429 . S
C1250 H1274 0.950 . S
C1251 C1268 1.574 . S
C1251 C1270 1.368 . S
C1251 H1275 0.949 . S
H1252 C1256 0.949 . S
C1253 C1254 1.349 . S
C1253 C1255 1.327 . S
C1253 H1276 0.950 . S
C1254 C1253 1.349 . S
C1254 C1266 1.349 . S
C1255 C1253 1.327 . S
C1255 C1271 1.429 . S
C1255 H1277 0.950 . S
C1256 H1252 0.949 . S
C1256 C1264 1.574 . S
C1256 C1272 1.368 . S
H1257 C1265 0.950 . S
H1258 C1263 0.950 . S
H1259 C1264 0.949 . S
H1260 C1266 0.950 . S
H1261 C1267 0.950 . S
H1262 C1268 0.949 . S
C1263 H1258 0.950 . S
C1263 C1265 1.327 1_554 S
C1263 C1269 1.429 . S
C1264 C1256 1.574 . S
C1264 H1259 0.949 . S
C1264 C1270 1.368 . S
C1265 C1249 1.349 . S
C1265 H1257 0.950 . S
C1265 C1263 1.327 1_556 S
C1266 C1254 1.349 . S
C1266 H1260 0.950 . S
C1266 C1267 1.327 . S
C1267 H1261 0.950 . S
C1267 C1266 1.327 . S
C1267 C1271 1.429 . S
C1268 C1251 1.574 . S
C1268 H1262 0.949 . S
C1268 C1272 1.368 . S
C1269 C1250 1.429 . S
C1269 C1263 1.429 . S
C1269 C1270 1.523 . S
C1270 C1251 1.368 . S
C1270 C1264 1.368 . S
C1270 C1269 1.523 . S
C1271 C1255 1.429 . S
C1271 C1267 1.429 . S
C1271 C1272 1.523 . S
C1272 C1256 1.368 . S
C1272 C1268 1.368 . S
C1272 C1271 1.523 . S
H1273 C1248 0.950 . S
H1274 C1250 0.950 . S
H1275 C1251 0.949 . S
H1276 C1253 0.950 . S
H1277 C1255 0.950 . S
C1278 C1279 1.349 . S
C1278 C1280 1.327 . S
C1278 H1303 0.950 . S
C1279 C1278 1.349 . S
C1279 C1295 1.349 . S
C1280 C1278 1.327 . S
C1280 C1299 1.429 . S
C1280 H1304 0.950 . S
C1281 C1298 1.574 . S
C1281 C1300 1.368 . S
C1281 H1305 0.949 . S
H1282 C1286 0.949 . S
C1283 C1284 1.349 . S
C1283 C1285 1.327 . S
C1283 H1306 0.950 . S
C1284 C1283 1.349 . S
C1284 C1296 1.349 . S
C1285 C1283 1.327 . S
C1285 C1301 1.429 . S
C1285 H1307 0.950 . S
C1286 H1282 0.949 . S
C1286 C1294 1.574 . S
C1286 C1302 1.368 . S
H1287 C1295 0.950 . S
H1288 C1293 0.950 . S
H1289 C1294 0.949 . S
H1290 C1296 0.950 . S
H1291 C1297 0.950 . S
H1292 C1298 0.949 . S
C1293 H1288 0.950 . S
C1293 C1295 1.327 . S
C1293 C1299 1.429 . S
C1294 C1286 1.574 . S
C1294 H1289 0.949 . S
C1294 C1300 1.368 . S
C1295 C1279 1.349 . S
C1295 H1287 0.950 . S
C1295 C1293 1.327 . S
C1296 C1284 1.349 . S
C1296 H1290 0.950 . S
C1296 C1297 1.327 . S
C1297 H1291 0.950 . S
C1297 C1296 1.327 . S
C1297 C1301 1.429 . S
C1298 C1281 1.574 . S
C1298 H1292 0.949 . S
C1298 C1302 1.368 . S
C1299 C1280 1.429 . S
C1299 C1293 1.429 . S
C1299 C1300 1.523 . S
C1300 C1281 1.368 . S
C1300 C1294 1.368 . S
C1300 C1299 1.523 . S
C1301 C1285 1.429 . S
C1301 C1297 1.429 . S
C1301 C1302 1.523 . S
C1302 C1286 1.368 . S
C1302 C1298 1.368 . S
C1302 C1301 1.523 . S
H1303 C1278 0.950 . S
H1304 C1280 0.950 . S
H1305 C1281 0.949 . S
H1306 C1283 0.950 . S
H1307 C1285 0.950 . S
C1308 C1309 1.349 . S
C1308 C1310 1.327 1_554 S
C1308 H1333 0.950 . S
C1309 C1308 1.349 . S
C1309 C1325 1.349 . S
C1310 C1308 1.327 1_556 S
C1310 C1329 1.429 . S
C1310 H1334 0.950 . S
C1311 C1328 1.574 . S
C1311 C1330 1.368 . S
C1311 H1335 0.949 . S
H1312 C1316 0.949 . S
C1313 C1314 1.349 . S
C1313 C1315 1.327 . S
C1313 H1336 0.950 . S
C1314 C1313 1.349 . S
C1314 C1326 1.349 . S
C1315 C1313 1.327 . S
C1315 C1331 1.429 . S
C1315 H1337 0.950 . S
C1316 H1312 0.949 . S
C1316 C1324 1.574 . S
C1316 C1332 1.368 . S
H1317 C1325 0.950 . S
H1318 C1323 0.950 . S
H1319 C1324 0.949 . S
H1320 C1326 0.950 . S
H1321 C1327 0.950 . S
H1322 C1328 0.949 . S
C1323 H1318 0.950 . S
C1323 C1325 1.327 1_556 S
C1323 C1329 1.429 . S
C1324 C1316 1.574 . S
C1324 H1319 0.949 . S
C1324 C1330 1.368 . S
C1325 C1309 1.349 . S
C1325 H1317 0.950 . S
C1325 C1323 1.327 1_554 S
C1326 C1314 1.349 . S
C1326 H1320 0.950 . S
C1326 C1327 1.327 . S
C1327 H1321 0.950 . S
C1327 C1326 1.327 . S
C1327 C1331 1.429 . S
C1328 C1311 1.574 . S
C1328 H1322 0.949 . S
C1328 C1332 1.368 . S
C1329 C1310 1.429 . S
C1329 C1323 1.429 . S
C1329 C1330 1.523 . S
C1330 C1311 1.368 . S
C1330 C1324 1.368 . S
C1330 C1329 1.523 . S
C1331 C1315 1.429 . S
C1331 C1327 1.429 . S
C1331 C1332 1.523 . S
C1332 C1316 1.368 . S
C1332 C1328 1.368 . S
C1332 C1331 1.523 . S
H1333 C1308 0.950 . S
H1334 C1310 0.950 . S
H1335 C1311 0.949 . S
H1336 C1313 0.950 . S
H1337 C1315 0.950 . S
C1338 C1339 1.349 . S
C1338 C1340 1.327 . S
C1338 H1363 0.950 . S
C1339 C1338 1.349 . S
C1339 C1355 1.349 . S
C1340 C1338 1.327 . S
C1340 C1359 1.429 . S
C1340 H1364 0.950 . S
C1341 C1358 1.574 . S
C1341 C1360 1.368 . S
C1341 H1365 0.949 . S
H1342 C1346 0.949 . S
C1343 C1344 1.349 . S
C1343 C1345 1.327 . S
C1343 H1366 0.950 . S
C1344 C1343 1.349 . S
C1344 C1356 1.349 . S
C1345 C1343 1.327 . S
C1345 C1361 1.429 . S
C1345 H1367 0.950 . S
C1346 H1342 0.949 . S
C1346 C1354 1.574 . S
C1346 C1362 1.368 . S
H1347 C1355 0.950 . S
H1348 C1353 0.950 . S
H1349 C1354 0.949 . S
H1350 C1356 0.950 . S
H1351 C1357 0.950 . S
H1352 C1358 0.949 . S
C1353 H1348 0.950 . S
C1353 C1355 1.327 . S
C1353 C1359 1.429 . S
C1354 C1346 1.574 . S
C1354 H1349 0.949 . S
C1354 C1360 1.368 . S
C1355 C1339 1.349 . S
C1355 H1347 0.950 . S
C1355 C1353 1.327 . S
C1356 C1344 1.349 . S
C1356 H1350 0.950 . S
C1356 C1357 1.327 . S
C1357 H1351 0.950 . S
C1357 C1356 1.327 . S
C1357 C1361 1.429 . S
C1358 C1341 1.574 . S
C1358 H1352 0.949 . S
C1358 C1362 1.368 . S
C1359 C1340 1.429 . S
C1359 C1353 1.429 . S
C1359 C1360 1.523 . S
C1360 C1341 1.368 . S
C1360 C1354 1.368 . S
C1360 C1359 1.523 . S
C1361 C1345 1.429 . S
C1361 C1357 1.429 . S
C1361 C1362 1.523 . S
C1362 C1346 1.368 . S
C1362 C1358 1.368 . S
C1362 C1361 1.523 . S
H1363 C1338 0.950 . S
H1364 C1340 0.950 . S
H1365 C1341 0.949 . S
H1366 C1343 0.950 . S
H1367 C1345 0.950 . S
C1368 C1369 1.349 . S
C1368 C1370 1.327 . S
C1368 H1393 0.950 . S
C1369 C1368 1.349 . S
C1369 C1385 1.349 . S
C1370 C1368 1.327 . S
C1370 C1389 1.429 . S
C1370 H1394 0.950 . S
C1371 C1388 1.574 . S
C1371 C1390 1.368 . S
C1371 H1395 0.949 . S
H1372 C1376 0.949 . S
C1373 C1374 1.349 . S
C1373 C1375 1.327 1_655 S
C1373 H1396 0.950 . S
C1374 C1373 1.349 . S
C1374 C1386 1.349 . S
C1375 C1373 1.327 1_455 S
C1375 C1391 1.429 . S
C1375 H1397 0.950 . S
C1376 H1372 0.949 . S
C1376 C1384 1.574 . S
C1376 C1392 1.368 . S
H1377 C1385 0.950 . S
H1378 C1383 0.950 . S
H1379 C1384 0.949 . S
H1380 C1386 0.950 . S
H1381 C1387 0.950 . S
H1382 C1388 0.949 . S
C1383 H1378 0.950 . S
C1383 C1385 1.327 . S
C1383 C1389 1.429 . S
C1384 C1376 1.574 . S
C1384 H1379 0.949 . S
C1384 C1390 1.368 . S
C1385 C1369 1.349 . S
C1385 H1377 0.950 . S
C1385 C1383 1.327 . S
C1386 C1374 1.349 . S
C1386 H1380 0.950 . S
C1386 C1387 1.327 1_655 S
C1387 H1381 0.950 . S
C1387 C1386 1.327 1_455 S
C1387 C1391 1.429 . S
C1388 C1371 1.574 . S
C1388 H1382 0.949 . S
C1388 C1392 1.368 . S
C1389 C1370 1.429 . S
C1389 C1383 1.429 . S
C1389 C1390 1.523 . S
C1390 C1371 1.368 . S
C1390 C1384 1.368 . S
C1390 C1389 1.523 . S
C1391 C1375 1.429 . S
C1391 C1387 1.429 . S
C1391 C1392 1.523 . S
C1392 C1376 1.368 . S
C1392 C1388 1.368 . S
C1392 C1391 1.523 . S
H1393 C1368 0.950 . S
H1394 C1370 0.950 . S
H1395 C1371 0.949 . S
H1396 C1373 0.950 . S
H1397 C1375 0.950 . S
C1398 C1399 1.349 . S
C1398 C1400 1.327 . S
C1398 H1423 0.950 . S
C1399 C1398 1.349 . S
C1399 C1415 1.349 . S
C1400 C1398 1.327 . S
C1400 C1419 1.429 . S
C1400 H1424 0.950 . S
C1401 C1418 1.574 . S
C1401 C1420 1.368 . S
C1401 H1425 0.949 . S
H1402 C1406 0.949 . S
C1403 C1404 1.349 . S
C1403 C1405 1.327 . S
C1403 H1426 0.950 . S
C1404 C1403 1.349 . S
C1404 C1416 1.349 . S
C1405 C1403 1.327 . S
C1405 C1421 1.429 . S
C1405 H1427 0.950 . S
C1406 H1402 0.949 . S
C1406 C1414 1.574 . S
C1406 C1422 1.368 . S
H1407 C1415 0.950 . S
H1408 C1413 0.950 . S
H1409 C1414 0.949 . S
H1410 C1416 0.950 . S
H1411 C1417 0.950 . S
H1412 C1418 0.949 . S
C1413 H1408 0.950 . S
C1413 C1415 1.327 . S
C1413 C1419 1.429 . S
C1414 C1406 1.574 . S
C1414 H1409 0.949 . S
C1414 C1420 1.368 . S
C1415 C1399 1.349 . S
C1415 H1407 0.950 . S
C1415 C1413 1.327 . S
C1416 C1404 1.349 . S
C1416 H1410 0.950 . S
C1416 C1417 1.327 . S
C1417 H1411 0.950 . S
C1417 C1416 1.327 . S
C1417 C1421 1.429 . S
C1418 C1401 1.574 . S
C1418 H1412 0.949 . S
C1418 C1422 1.368 . S
C1419 C1400 1.429 . S
C1419 C1413 1.429 . S
C1419 C1420 1.523 . S
C1420 C1401 1.368 . S
C1420 C1414 1.368 . S
C1420 C1419 1.523 . S
C1421 C1405 1.429 . S
C1421 C1417 1.429 . S
C1421 C1422 1.523 . S
C1422 C1406 1.368 . S
C1422 C1418 1.368 . S
C1422 C1421 1.523 . S
H1423 C1398 0.950 . S
H1424 C1400 0.950 . S
H1425 C1401 0.949 . S
H1426 C1403 0.950 . S
H1427 C1405 0.950 . S
C1428 C1429 1.349 . S
C1428 C1430 1.327 . S
C1428 H1453 0.950 . S
C1429 C1428 1.349 . S
C1429 C1445 1.349 . S
C1430 C1428 1.327 . S
C1430 C1449 1.429 . S
C1430 H1454 0.950 . S
C1431 C1448 1.574 . S
C1431 C1450 1.368 . S
C1431 H1455 0.949 . S
H1432 C1436 0.949 . S
C1433 C1434 1.349 . S
C1433 C1435 1.327 . S
C1433 H1456 0.950 . S
C1434 C1433 1.349 . S
C1434 C1446 1.349 . S
C1435 C1433 1.327 . S
C1435 C1451 1.429 . S
C1435 H1457 0.950 . S
C1436 H1432 0.949 . S
C1436 C1444 1.574 . S
C1436 C1452 1.368 . S
H1437 C1445 0.950 . S
H1438 C1443 0.950 . S
H1439 C1444 0.949 . S
H1440 C1446 0.950 . S
H1441 C1447 0.950 . S
H1442 C1448 0.949 . S
C1443 H1438 0.950 . S
C1443 C1445 1.327 . S
C1443 C1449 1.429 . S
C1444 C1436 1.574 . S
C1444 H1439 0.949 . S
C1444 C1450 1.368 . S
C1445 C1429 1.349 . S
C1445 H1437 0.950 . S
C1445 C1443 1.327 . S
C1446 C1434 1.349 . S
C1446 H1440 0.950 . S
C1446 C1447 1.327 . S
C1447 H1441 0.950 . S
C1447 C1446 1.327 . S
C1447 C1451 1.429 . S
C1448 C1431 1.574 . S
C1448 H1442 0.949 . S
C1448 C1452 1.368 . S
C1449 C1430 1.429 . S
C1449 C1443 1.429 . S
C1449 C1450 1.523 . S
C1450 C1431 1.368 . S
C1450 C1444 1.368 . S
C1450 C1449 1.523 . S
C1451 C1435 1.429 . S
C1451 C1447 1.429 . S
C1451 C1452 1.523 . S
C1452 C1436 1.368 . S
C1452 C1448 1.368 . S
C1452 C1451 1.523 . S
H1453 C1428 0.950 . S
H1454 C1430 0.950 . S
H1455 C1431 0.949 . S
H1456 C1433 0.950 . S
H1457 C1435 0.950 . S
C1458 C1459 1.349 . S
C1458 C1460 1.327 1_455 S
C1458 H1483 0.950 . S
C1459 C1458 1.349 . S
C1459 C1475 1.349 . S
C1460 C1458 1.327 1_655 S
C1460 C1479 1.429 . S
C1460 H1484 0.950 . S
C1461 C1478 1.574 . S
C1461 C1480 1.368 . S
C1461 H1485 0.949 . S
H1462 C1466 0.949 . S
C1463 C1464 1.349 . S
C1463 C1465 1.327 . S
C1463 H1486 0.950 . S
C1464 C1463 1.349 . S
C1464 C1476 1.349 . S
C1465 C1463 1.327 . S
C1465 C1481 1.429 . S
C1465 H1487 0.950 . S
C1466 H1462 0.949 . S
C1466 C1474 1.574 . S
C1466 C1482 1.368 . S
H1467 C1475 0.950 . S
H1468 C1473 0.950 . S
H1469 C1474 0.949 . S
H1470 C1476 0.950 . S
H1471 C1477 0.950 . S
H1472 C1478 0.949 . S
C1473 H1468 0.950 . S
C1473 C1475 1.327 1_655 S
C1473 C1479 1.429 . S
C1474 C1466 1.574 . S
C1474 H1469 0.949 . S
C1474 C1480 1.368 . S
C1475 C1459 1.349 . S
C1475 H1467 0.950 . S
C1475 C1473 1.327 1_455 S
C1476 C1464 1.349 . S
C1476 H1470 0.950 . S
C1476 C1477 1.327 . S
C1477 H1471 0.950 . S
C1477 C1476 1.327 . S
C1477 C1481 1.429 . S
C1478 C1461 1.574 . S
C1478 H1472 0.949 . S
C1478 C1482 1.368 . S
C1479 C1460 1.429 . S
C1479 C1473 1.429 . S
C1479 C1480 1.523 . S
C1480 C1461 1.368 . S
C1480 C1474 1.368 . S
C1480 C1479 1.523 . S
C1481 C1465 1.429 . S
C1481 C1477 1.429 . S
C1481 C1482 1.523 . S
C1482 C1466 1.368 . S
C1482 C1478 1.368 . S
C1482 C1481 1.523 . S
H1483 C1458 0.950 . S
H1484 C1460 0.950 . S
H1485 C1461 0.949 . S
H1486 C1463 0.950 . S
H1487 C1465 0.950 . S
C1488 C1489 1.349 . S
C1488 C1490 1.327 1_565 S
C1488 H1513 0.950 . S
C1489 C1488 1.349 . S
C1489 C1505 1.349 . S
C1490 C1488 1.327 1_545 S
C1490 C1509 1.429 . S
C1490 H1514 0.950 . S
C1491 C1508 1.574 . S
C1491 C1510 1.368 . S
C1491 H1515 0.949 . S
H1492 C1496 0.949 . S
C1493 C1494 1.349 . S
C1493 C1495 1.327 . S
C1493 H1516 0.950 . S
C1494 C1493 1.349 . S
C1494 C1506 1.349 . S
C1495 C1493 1.327 . S
C1495 C1511 1.429 . S
C1495 H1517 0.950 . S
C1496 H1492 0.949 . S
C1496 C1504 1.574 . S
C1496 C1512 1.368 . S
H1497 C1505 0.950 . S
H1498 C1503 0.950 . S
H1499 C1504 0.949 . S
H1500 C1506 0.950 . S
H1501 C1507 0.950 . S
H1502 C1508 0.949 . S
C1503 H1498 0.950 . S
C1503 C1505 1.327 1_545 S
C1503 C1509 1.429 . S
C1504 C1496 1.574 . S
C1504 H1499 0.949 . S
C1504 C1510 1.368 . S
C1505 C1489 1.349 . S
C1505 H1497 0.950 . S
C1505 C1503 1.327 1_565 S
C1506 C1494 1.349 . S
C1506 H1500 0.950 . S
C1506 C1507 1.327 . S
C1507 H1501 0.950 . S
C1507 C1506 1.327 . S
C1507 C1511 1.429 . S
C1508 C1491 1.574 . S
C1508 H1502 0.949 . S
C1508 C1512 1.368 . S
C1509 C1490 1.429 . S
C1509 C1503 1.429 . S
C1509 C1510 1.523 . S
C1510 C1491 1.368 . S
C1510 C1504 1.368 . S
C1510 C1509 1.523 . S
C1511 C1495 1.429 . S
C1511 C1507 1.429 . S
C1511 C1512 1.523 . S
C1512 C1496 1.368 . S
C1512 C1508 1.368 . S
C1512 C1511 1.523 . S
H1513 C1488 0.950 . S
H1514 C1490 0.950 . S
H1515 C1491 0.949 . S
H1516 C1493 0.950 . S
H1517 C1495 0.950 . S
C1518 C1519 1.349 . S
C1518 C1520 1.327 . S
C1518 H1543 0.950 . S
C1519 C1518 1.349 . S
C1519 C1535 1.349 . S
C1520 C1518 1.327 . S
C1520 C1539 1.429 . S
C1520 H1544 0.950 . S
C1521 C1538 1.574 . S
C1521 C1540 1.368 . S
C1521 H1545 0.949 . S
H1522 C1526 0.949 . S
C1523 C1524 1.349 . S
C1523 C1525 1.327 . S
C1523 H1546 0.950 . S
C1524 C1523 1.349 . S
C1524 C1536 1.349 . S
C1525 C1523 1.327 . S
C1525 C1541 1.429 . S
C1525 H1547 0.950 . S
C1526 H1522 0.949 . S
C1526 C1534 1.574 . S
C1526 C1542 1.368 . S
H1527 C1535 0.950 . S
H1528 C1533 0.950 . S
H1529 C1534 0.949 . S
H1530 C1536 0.950 . S
H1531 C1537 0.950 . S
H1532 C1538 0.949 . S
C1533 H1528 0.950 . S
C1533 C1535 1.327 . S
C1533 C1539 1.429 . S
C1534 C1526 1.574 . S
C1534 H1529 0.949 . S
C1534 C1540 1.368 . S
C1535 C1519 1.349 . S
C1535 H1527 0.950 . S
C1535 C1533 1.327 . S
C1536 C1524 1.349 . S
C1536 H1530 0.950 . S
C1536 C1537 1.327 . S
C1537 H1531 0.950 . S
C1537 C1536 1.327 . S
C1537 C1541 1.429 . S
C1538 C1521 1.574 . S
C1538 H1532 0.949 . S
C1538 C1542 1.368 . S
C1539 C1520 1.429 . S
C1539 C1533 1.429 . S
C1539 C1540 1.523 . S
C1540 C1521 1.368 . S
C1540 C1534 1.368 . S
C1540 C1539 1.523 . S
C1541 C1525 1.429 . S
C1541 C1537 1.429 . S
C1541 C1542 1.523 . S
C1542 C1526 1.368 . S
C1542 C1538 1.368 . S
C1542 C1541 1.523 . S
H1543 C1518 0.950 . S
H1544 C1520 0.950 . S
H1545 C1521 0.949 . S
H1546 C1523 0.950 . S
H1547 C1525 0.950 . S
C1548 C1549 1.349 . S
C1548 C1550 1.327 . S
C1548 H1573 0.950 . S
C1549 C1548 1.349 . S
C1549 C1565 1.349 . S
C1550 C1548 1.327 . S
C1550 C1569 1.429 . S
C1550 H1574 0.950 . S
C1551 C1568 1.574 . S
C1551 C1570 1.368 . S
C1551 H1575 0.949 . S
H1552 C1556 0.949 . S
C1553 C1554 1.349 . S
C1553 C1555 1.327 . S
C1553 H1576 0.950 . S
C1554 C1553 1.349 . S
C1554 C1566 1.349 . S
C1555 C1553 1.327 . S
C1555 C1571 1.429 . S
C1555 H1577 0.950 . S
C1556 H1552 0.949 . S
C1556 C1564 1.574 . S
C1556 C1572 1.368 . S
H1557 C1565 0.950 . S
H1558 C1563 0.950 . S
H1559 C1564 0.949 . S
H1560 C1566 0.950 . S
H1561 C1567 0.950 . S
H1562 C1568 0.949 . S
C1563 H1558 0.950 . S
C1563 C1565 1.327 . S
C1563 C1569 1.429 . S
C1564 C1556 1.574 . S
C1564 H1559 0.949 . S
C1564 C1570 1.368 . S
C1565 C1549 1.349 . S
C1565 H1557 0.950 . S
C1565 C1563 1.327 . S
C1566 C1554 1.349 . S
C1566 H1560 0.950 . S
C1566 C1567 1.327 . S
C1567 H1561 0.950 . S
C1567 C1566 1.327 . S
C1567 C1571 1.429 . S
C1568 C1551 1.574 . S
C1568 H1562 0.949 . S
C1568 C1572 1.368 . S
C1569 C1550 1.429 . S
C1569 C1563 1.429 . S
C1569 C1570 1.523 . S
C1570 C1551 1.368 . S
C1570 C1564 1.368 . S
C1570 C1569 1.523 . S
C1571 C1555 1.429 . S
C1571 C1567 1.429 . S
C1571 C1572 1.523 . S
C1572 C1556 1.368 . S
C1572 C1568 1.368 . S
C1572 C1571 1.523 . S
H1573 C1548 0.950 . S
H1574 C1550 0.950 . S
H1575 C1551 0.949 . S
H1576 C1553 0.950 . S
H1577 C1555 0.950 . S
C1578 C1579 1.349 . S
C1578 C1580 1.327 1_545 S
C1578 H1603 0.950 . S
C1579 C1578 1.349 . S
C1579 C1595 1.349 . S
C1580 C1578 1.327 1_565 S
C1580 C1599 1.429 . S
C1580 H1604 0.950 . S
C1581 C1598 1.574 . S
C1581 C1600 1.368 . S
C1581 H1605 0.949 . S
H1582 C1586 0.949 . S
C1583 C1584 1.349 . S
C1583 C1585 1.327 . S
C1583 H1606 0.950 . S
C1584 C1583 1.349 . S
C1584 C1596 1.349 . S
C1585 C1583 1.327 . S
C1585 C1601 1.429 . S
C1585 H1607 0.950 . S
C1586 H1582 0.949 . S
C1586 C1594 1.574 . S
C1586 C1602 1.368 . S
H1587 C1595 0.950 . S
H1588 C1593 0.950 . S
H1589 C1594 0.949 . S
H1590 C1596 0.950 . S
H1591 C1597 0.950 . S
H1592 C1598 0.949 . S
C1593 H1588 0.950 . S
C1593 C1595 1.327 1_565 S
C1593 C1599 1.429 . S
C1594 C1586 1.574 . S
C1594 H1589 0.949 . S
C1594 C1600 1.368 . S
C1595 C1579 1.349 . S
C1595 H1587 0.950 . S
C1595 C1593 1.327 1_545 S
C1596 C1584 1.349 . S
C1596 H1590 0.950 . S
C1596 C1597 1.327 . S
C1597 H1591 0.950 . S
C1597 C1596 1.327 . S
C1597 C1601 1.429 . S
C1598 C1581 1.574 . S
C1598 H1592 0.949 . S
C1598 C1602 1.368 . S
C1599 C1580 1.429 . S
C1599 C1593 1.429 . S
C1599 C1600 1.523 . S
C1600 C1581 1.368 . S
C1600 C1594 1.368 . S
C1600 C1599 1.523 . S
C1601 C1585 1.429 . S
C1601 C1597 1.429 . S
C1601 C1602 1.523 . S
C1602 C1586 1.368 . S
C1602 C1598 1.368 . S
C1602 C1601 1.523 . S
H1603 C1578 0.950 . S
H1604 C1580 0.950 . S
H1605 C1581 0.949 . S
H1606 C1583 0.950 . S
H1607 C1585 0.950 . S
C1608 C1609 1.349 . S
C1608 C1610 1.327 . S
C1608 H1633 0.950 . S
C1609 C1608 1.349 . S
C1609 C1625 1.349 . S
C1610 C1608 1.327 . S
C1610 C1629 1.429 . S
C1610 H1634 0.950 . S
C1611 C1628 1.574 . S
C1611 C1630 1.368 . S
C1611 H1635 0.949 . S
H1612 C1616 0.949 . S
C1613 C1614 1.349 . S
C1613 C1615 1.327 1_554 S
C1613 H1636 0.950 . S
C1614 C1613 1.349 . S
C1614 C1626 1.349 . S
C1615 C1613 1.327 1_556 S
C1615 C1631 1.429 . S
C1615 H1637 0.950 . S
C1616 H1612 0.949 . S
C1616 C1624 1.574 . S
C1616 C1632 1.368 . S
H1617 C1625 0.950 . S
H1618 C1623 0.950 . S
H1619 C1624 0.949 . S
H1620 C1626 0.950 . S
H1621 C1627 0.950 . S
H1622 C1628 0.949 . S
C1623 H1618 0.950 . S
C1623 C1625 1.327 . S
C1623 C1629 1.429 . S
C1624 C1616 1.574 . S
C1624 H1619 0.949 . S
C1624 C1630 1.368 . S
C1625 C1609 1.349 . S
C1625 H1617 0.950 . S
C1625 C1623 1.327 . S
C1626 C1614 1.349 . S
C1626 H1620 0.950 . S
C1626 C1627 1.327 1_554 S
C1627 H1621 0.950 . S
C1627 C1626 1.327 1_556 S
C1627 C1631 1.429 . S
C1628 C1611 1.574 . S
C1628 H1622 0.949 . S
C1628 C1632 1.368 . S
C1629 C1610 1.429 . S
C1629 C1623 1.429 . S
C1629 C1630 1.523 . S
C1630 C1611 1.368 . S
C1630 C1624 1.368 . S
C1630 C1629 1.523 . S
C1631 C1615 1.429 . S
C1631 C1627 1.429 . S
C1631 C1632 1.523 . S
C1632 C1616 1.368 . S
C1632 C1628 1.368 . S
C1632 C1631 1.523 . S
H1633 C1608 0.950 . S
H1634 C1610 0.950 . S
H1635 C1611 0.949 . S
H1636 C1613 0.950 . S
H1637 C1615 0.950 . S
C1638 C1639 1.349 . S
C1638 C1640 1.327 . S
C1638 H1663 0.950 . S
C1639 C1638 1.349 . S
C1639 C1655 1.349 . S
C1640 C1638 1.327 . S
C1640 C1659 1.429 . S
C1640 H1664 0.950 . S
C1641 C1658 1.574 . S
C1641 C1660 1.368 . S
C1641 H1665 0.949 . S
H1642 C1646 0.949 . S
C1643 C1644 1.349 . S
C1643 C1645 1.327 . S
C1643 H1666 0.950 . S
C1644 C1643 1.349 . S
C1644 C1656 1.349 . S
C1645 C1643 1.327 . S
C1645 C1661 1.429 . S
C1645 H1667 0.950 . S
C1646 H1642 0.949 . S
C1646 C1654 1.574 . S
C1646 C1662 1.368 . S
H1647 C1655 0.950 . S
H1648 C1653 0.950 . S
H1649 C1654 0.949 . S
H1650 C1656 0.950 . S
H1651 C1657 0.950 . S
H1652 C1658 0.949 . S
C1653 H1648 0.950 . S
C1653 C1655 1.327 . S
C1653 C1659 1.429 . S
C1654 C1646 1.574 . S
C1654 H1649 0.949 . S
C1654 C1660 1.368 . S
C1655 C1639 1.349 . S
C1655 H1647 0.950 . S
C1655 C1653 1.327 . S
C1656 C1644 1.349 . S
C1656 H1650 0.950 . S
C1656 C1657 1.327 . S
C1657 H1651 0.950 . S
C1657 C1656 1.327 . S
C1657 C1661 1.429 . S
C1658 C1641 1.574 . S
C1658 H1652 0.949 . S
C1658 C1662 1.368 . S
C1659 C1640 1.429 . S
C1659 C1653 1.429 . S
C1659 C1660 1.523 . S
C1660 C1641 1.368 . S
C1660 C1654 1.368 . S
C1660 C1659 1.523 . S
C1661 C1645 1.429 . S
C1661 C1657 1.429 . S
C1661 C1662 1.523 . S
C1662 C1646 1.368 . S
C1662 C1658 1.368 . S
C1662 C1661 1.523 . S
H1663 C1638 0.950 . S
H1664 C1640 0.950 . S
H1665 C1641 0.949 . S
H1666 C1643 0.950 . S
H1667 C1645 0.950 . S
C1668 C1669 1.349 . S
C1668 C1670 1.327 . S
C1668 H1693 0.950 . S
C1669 C1668 1.349 . S
C1669 C1685 1.349 . S
C1670 C1668 1.327 . S
C1670 C1689 1.429 . S
C1670 H1694 0.950 . S
C1671 C1688 1.574 . S
C1671 C1690 1.368 . S
C1671 H1695 0.949 . S
H1672 C1676 0.949 . S
C1673 C1674 1.349 . S
C1673 C1675 1.327 1_556 S
C1673 H1696 0.950 . S
C1674 C1673 1.349 . S
C1674 C1686 1.349 . S
C1675 C1673 1.327 1_554 S
C1675 C1691 1.429 . S
C1675 H1697 0.950 . S
C1676 H1672 0.949 . S
C1676 C1684 1.574 . S
C1676 C1692 1.368 . S
H1677 C1685 0.950 . S
H1678 C1683 0.950 . S
H1679 C1684 0.949 . S
H1680 C1686 0.950 . S
H1681 C1687 0.950 . S
H1682 C1688 0.949 . S
C1683 H1678 0.950 . S
C1683 C1685 1.327 . S
C1683 C1689 1.429 . S
C1684 C1676 1.574 . S
C1684 H1679 0.949 . S
C1684 C1690 1.368 . S
C1685 C1669 1.349 . S
C1685 H1677 0.950 . S
C1685 C1683 1.327 . S
C1686 C1674 1.349 . S
C1686 H1680 0.950 . S
C1686 C1687 1.327 1_556 S
C1687 H1681 0.950 . S
C1687 C1686 1.327 1_554 S
C1687 C1691 1.429 . S
C1688 C1671 1.574 . S
C1688 H1682 0.949 . S
C1688 C1692 1.368 . S
C1689 C1670 1.429 . S
C1689 C1683 1.429 . S
C1689 C1690 1.523 . S
C1690 C1671 1.368 . S
C1690 C1684 1.368 . S
C1690 C1689 1.523 . S
C1691 C1675 1.429 . S
C1691 C1687 1.429 . S
C1691 C1692 1.523 . S
C1692 C1676 1.368 . S
C1692 C1688 1.368 . S
C1692 C1691 1.523 . S
H1693 C1668 0.950 . S
H1694 C1670 0.950 . S
H1695 C1671 0.949 . S
H1696 C1673 0.950 . S
H1697 C1675 0.950 . S
C1698 C1699 1.349 . S
C1698 C1700 1.327 . S
C1698 H1723 0.950 . S
C1699 C1698 1.349 . S
C1699 C1715 1.349 . S
C1700 C1698 1.327 . S
C1700 C1719 1.429 . S
C1700 H1724 0.950 . S
C1701 C1718 1.574 . S
C1701 C1720 1.368 . S
C1701 H1725 0.949 . S
H1702 C1706 0.949 . S
C1703 C1704 1.349 . S
C1703 C1705 1.327 . S
C1703 H1726 0.950 . S
C1704 C1703 1.349 . S
C1704 C1716 1.349 . S
C1705 C1703 1.327 . S
C1705 C1721 1.429 . S
C1705 H1727 0.950 . S
C1706 H1702 0.949 . S
C1706 C1714 1.574 . S
C1706 C1722 1.368 . S
H1707 C1715 0.950 . S
H1708 C1713 0.950 . S
H1709 C1714 0.949 . S
H1710 C1716 0.950 . S
H1711 C1717 0.950 . S
H1712 C1718 0.949 . S
C1713 H1708 0.950 . S
C1713 C1715 1.327 . S
C1713 C1719 1.429 . S
C1714 C1706 1.574 . S
C1714 H1709 0.949 . S
C1714 C1720 1.368 . S
C1715 C1699 1.349 . S
C1715 H1707 0.950 . S
C1715 C1713 1.327 . S
C1716 C1704 1.349 . S
C1716 H1710 0.950 . S
C1716 C1717 1.327 . S
C1717 H1711 0.950 . S
C1717 C1716 1.327 . S
C1717 C1721 1.429 . S
C1718 C1701 1.574 . S
C1718 H1712 0.949 . S
C1718 C1722 1.368 . S
C1719 C1700 1.429 . S
C1719 C1713 1.429 . S
C1719 C1720 1.523 . S
C1720 C1701 1.368 . S
C1720 C1714 1.368 . S
C1720 C1719 1.523 . S
C1721 C1705 1.429 . S
C1721 C1717 1.429 . S
C1721 C1722 1.523 . S
C1722 C1706 1.368 . S
C1722 C1718 1.368 . S
C1722 C1721 1.523 . S
H1723 C1698 0.950 . S
H1724 C1700 0.950 . S
H1725 C1701 0.949 . S
H1726 C1703 0.950 . S
H1727 C1705 0.950 . S
C1728 C1729 1.349 . S
C1728 C1730 1.327 1_455 S
C1728 H1753 0.950 . S
C1729 C1728 1.349 . S
C1729 C1745 1.349 . S
C1730 C1728 1.327 1_655 S
C1730 C1749 1.429 . S
C1730 H1754 0.950 . S
C1731 C1748 1.574 . S
C1731 C1750 1.368 . S
C1731 H1755 0.949 . S
H1732 C1736 0.949 . S
C1733 C1734 1.349 . S
C1733 C1735 1.327 . S
C1733 H1756 0.950 . S
C1734 C1733 1.349 . S
C1734 C1746 1.349 . S
C1735 C1733 1.327 . S
C1735 C1751 1.429 . S
C1735 H1757 0.950 . S
C1736 H1732 0.949 . S
C1736 C1744 1.574 . S
C1736 C1752 1.368 . S
H1737 C1745 0.950 . S
H1738 C1743 0.950 . S
H1739 C1744 0.949 . S
H1740 C1746 0.950 . S
H1741 C1747 0.950 . S
H1742 C1748 0.949 . S
C1743 H1738 0.950 . S
C1743 C1745 1.327 1_655 S
C1743 C1749 1.429 . S
C1744 C1736 1.574 . S
C1744 H1739 0.949 . S
C1744 C1750 1.368 . S
C1745 C1729 1.349 . S
C1745 H1737 0.950 . S
C1745 C1743 1.327 1_455 S
C1746 C1734 1.349 . S
C1746 H1740 0.950 . S
C1746 C1747 1.327 . S
C1747 H1741 0.950 . S
C1747 C1746 1.327 . S
C1747 C1751 1.429 . S
C1748 C1731 1.574 . S
C1748 H1742 0.949 . S
C1748 C1752 1.368 . S
C1749 C1730 1.429 . S
C1749 C1743 1.429 . S
C1749 C1750 1.523 . S
C1750 C1731 1.368 . S
C1750 C1744 1.368 . S
C1750 C1749 1.523 . S
C1751 C1735 1.429 . S
C1751 C1747 1.429 . S
C1751 C1752 1.523 . S
C1752 C1736 1.368 . S
C1752 C1748 1.368 . S
C1752 C1751 1.523 . S
H1753 C1728 0.950 . S
H1754 C1730 0.950 . S
H1755 C1731 0.949 . S
H1756 C1733 0.950 . S
H1757 C1735 0.950 . S
C1758 C1759 1.349 . S
C1758 C1760 1.327 . S
C1758 H1783 0.950 . S
C1759 C1758 1.349 . S
C1759 C1775 1.349 . S
C1760 C1758 1.327 . S
C1760 C1779 1.429 . S
C1760 H1784 0.950 . S
C1761 C1778 1.574 . S
C1761 C1780 1.368 . S
C1761 H1785 0.949 . S
H1762 C1766 0.949 . S
C1763 C1764 1.349 . S
C1763 C1765 1.327 . S
C1763 H1786 0.950 . S
C1764 C1763 1.349 . S
C1764 C1776 1.349 . S
C1765 C1763 1.327 . S
C1765 C1781 1.429 . S
C1765 H1787 0.950 . S
C1766 H1762 0.949 . S
C1766 C1774 1.574 . S
C1766 C1782 1.368 . S
H1767 C1775 0.950 . S
H1768 C1773 0.950 . S
H1769 C1774 0.949 . S
H1770 C1776 0.950 . S
H1771 C1777 0.950 . S
H1772 C1778 0.949 . S
C1773 H1768 0.950 . S
C1773 C1775 1.327 . S
C1773 C1779 1.429 . S
C1774 C1766 1.574 . S
C1774 H1769 0.949 . S
C1774 C1780 1.368 . S
C1775 C1759 1.349 . S
C1775 H1767 0.950 . S
C1775 C1773 1.327 . S
C1776 C1764 1.349 . S
C1776 H1770 0.950 . S
C1776 C1777 1.327 . S
C1777 H1771 0.950 . S
C1777 C1776 1.327 . S
C1777 C1781 1.429 . S
C1778 C1761 1.574 . S
C1778 H1772 0.949 . S
C1778 C1782 1.368 . S
C1779 C1760 1.429 . S
C1779 C1773 1.429 . S
C1779 C1780 1.523 . S
C1780 C1761 1.368 . S
C1780 C1774 1.368 . S
C1780 C1779 1.523 . S
C1781 C1765 1.429 . S
C1781 C1777 1.429 . S
C1781 C1782 1.523 . S
C1782 C1766 1.368 . S
C1782 C1778 1.368 . S
C1782 C1781 1.523 . S
H1783 C1758 0.950 . S
H1784 C1760 0.950 . S
H1785 C1761 0.949 . S
H1786 C1763 0.950 . S
H1787 C1765 0.950 . S
C1788 C1789 1.349 . S
C1788 C1790 1.327 . S
C1788 H1813 0.950 . S
C1789 C1788 1.349 . S
C1789 C1805 1.349 . S
C1790 C1788 1.327 . S
C1790 C1809 1.429 . S
C1790 H1814 0.950 . S
C1791 C1808 1.574 . S
C1791 C1810 1.368 . S
C1791 H1815 0.949 . S
H1792 C1796 0.949 . S
C1793 C1794 1.349 . S
C1793 C1795 1.327 . S
C1793 H1816 0.950 . S
C1794 C1793 1.349 . S
C1794 C1806 1.349 . S
C1795 C1793 1.327 . S
C1795 C1811 1.429 . S
C1795 H1817 0.950 . S
C1796 H1792 0.949 . S
C1796 C1804 1.574 . S
C1796 C1812 1.368 . S
H1797 C1805 0.950 . S
H1798 C1803 0.950 . S
H1799 C1804 0.949 . S
H1800 C1806 0.950 . S
H1801 C1807 0.950 . S
H1802 C1808 0.949 . S
C1803 H1798 0.950 . S
C1803 C1805 1.327 . S
C1803 C1809 1.429 . S
C1804 C1796 1.574 . S
C1804 H1799 0.949 . S
C1804 C1810 1.368 . S
C1805 C1789 1.349 . S
C1805 H1797 0.950 . S
C1805 C1803 1.327 . S
C1806 C1794 1.349 . S
C1806 H1800 0.950 . S
C1806 C1807 1.327 . S
C1807 H1801 0.950 . S
C1807 C1806 1.327 . S
C1807 C1811 1.429 . S
C1808 C1791 1.574 . S
C1808 H1802 0.949 . S
C1808 C1812 1.368 . S
C1809 C1790 1.429 . S
C1809 C1803 1.429 . S
C1809 C1810 1.523 . S
C1810 C1791 1.368 . S
C1810 C1804 1.368 . S
C1810 C1809 1.523 . S
C1811 C1795 1.429 . S
C1811 C1807 1.429 . S
C1811 C1812 1.523 . S
C1812 C1796 1.368 . S
C1812 C1808 1.368 . S
C1812 C1811 1.523 . S
H1813 C1788 0.950 . S
H1814 C1790 0.950 . S
H1815 C1791 0.949 . S
H1816 C1793 0.950 . S
H1817 C1795 0.950 . S
C1818 C1819 1.349 . S
C1818 C1820 1.327 . S
C1818 H1843 0.950 . S
C1819 C1818 1.349 . S
C1819 C1835 1.349 . S
C1820 C1818 1.327 . S
C1820 C1839 1.429 . S
C1820 H1844 0.950 . S
C1821 C1838 1.574 . S
C1821 C1840 1.368 . S
C1821 H1845 0.949 . S
H1822 C1826 0.949 . S
C1823 C1824 1.349 . S
C1823 C1825 1.327 1_655 S
C1823 H1846 0.950 . S
C1824 C1823 1.349 . S
C1824 C1836 1.349 . S
C1825 C1823 1.327 1_455 S
C1825 C1841 1.429 . S
C1825 H1847 0.950 . S
C1826 H1822 0.949 . S
C1826 C1834 1.574 . S
C1826 C1842 1.368 . S
H1827 C1835 0.950 . S
H1828 C1833 0.950 . S
H1829 C1834 0.949 . S
H1830 C1836 0.950 . S
H1831 C1837 0.950 . S
H1832 C1838 0.949 . S
C1833 H1828 0.950 . S
C1833 C1835 1.327 . S
C1833 C1839 1.429 . S
C1834 C1826 1.574 . S
C1834 H1829 0.949 . S
C1834 C1840 1.368 . S
C1835 C1819 1.349 . S
C1835 H1827 0.950 . S
C1835 C1833 1.327 . S
C1836 C1824 1.349 . S
C1836 H1830 0.950 . S
C1836 C1837 1.327 1_655 S
C1837 H1831 0.950 . S
C1837 C1836 1.327 1_455 S
C1837 C1841 1.429 . S
C1838 C1821 1.574 . S
C1838 H1832 0.949 . S
C1838 C1842 1.368 . S
C1839 C1820 1.429 . S
C1839 C1833 1.429 . S
C1839 C1840 1.523 . S
C1840 C1821 1.368 . S
C1840 C1834 1.368 . S
C1840 C1839 1.523 . S
C1841 C1825 1.429 . S
C1841 C1837 1.429 . S
C1841 C1842 1.523 . S
C1842 C1826 1.368 . S
C1842 C1838 1.368 . S
C1842 C1841 1.523 . S
H1843 C1818 0.950 . S
H1844 C1820 0.950 . S
H1845 C1821 0.949 . S
H1846 C1823 0.950 . S
H1847 C1825 0.950 . S
C1848 C1849 1.349 . S
C1848 C1850 1.327 1_545 S
C1848 H1873 0.950 . S
C1849 C1848 1.349 . S
C1849 C1865 1.349 . S
C1850 C1848 1.327 1_565 S
C1850 C1869 1.429 . S
C1850 H1874 0.950 . S
C1851 C1868 1.574 . S
C1851 C1870 1.368 . S
C1851 H1875 0.949 . S
H1852 C1856 0.949 . S
C1853 C1854 1.349 . S
C1853 C1855 1.327 . S
C1853 H1876 0.950 . S
C1854 C1853 1.349 . S
C1854 C1866 1.349 . S
C1855 C1853 1.327 . S
C1855 C1871 1.429 . S
C1855 H1877 0.950 . S
C1856 H1852 0.949 . S
C1856 C1864 1.574 . S
C1856 C1872 1.368 . S
H1857 C1865 0.950 . S
H1858 C1863 0.950 . S
H1859 C1864 0.949 . S
H1860 C1866 0.950 . S
H1861 C1867 0.950 . S
H1862 C1868 0.949 . S
C1863 H1858 0.950 . S
C1863 C1865 1.327 1_565 S
C1863 C1869 1.429 . S
C1864 C1856 1.574 . S
C1864 H1859 0.949 . S
C1864 C1870 1.368 . S
C1865 C1849 1.349 . S
C1865 H1857 0.950 . S
C1865 C1863 1.327 1_545 S
C1866 C1854 1.349 . S
C1866 H1860 0.950 . S
C1866 C1867 1.327 . S
C1867 H1861 0.950 . S
C1867 C1866 1.327 . S
C1867 C1871 1.429 . S
C1868 C1851 1.574 . S
C1868 H1862 0.949 . S
C1868 C1872 1.368 . S
C1869 C1850 1.429 . S
C1869 C1863 1.429 . S
C1869 C1870 1.523 . S
C1870 C1851 1.368 . S
C1870 C1864 1.368 . S
C1870 C1869 1.523 . S
C1871 C1855 1.429 . S
C1871 C1867 1.429 . S
C1871 C1872 1.523 . S
C1872 C1856 1.368 . S
C1872 C1868 1.368 . S
C1872 C1871 1.523 . S
H1873 C1848 0.950 . S
H1874 C1850 0.950 . S
H1875 C1851 0.949 . S
H1876 C1853 0.950 . S
H1877 C1855 0.950 . S
C1878 C1879 1.349 . S
C1878 C1880 1.327 . S
C1878 H1903 0.950 . S
C1879 C1878 1.349 . S
C1879 C1895 1.349 . S
C1880 C1878 1.327 . S
C1880 C1899 1.429 . S
C1880 H1904 0.950 . S
C1881 C1898 1.574 . S
C1881 C1900 1.368 . S
C1881 H1905 0.949 . S
H1882 C1886 0.949 . S
C1883 C1884 1.349 . S
C1883 C1885 1.327 . S
C1883 H1906 0.950 . S
C1884 C1883 1.349 . S
C1884 C1896 1.349 . S
C1885 C1883 1.327 . S
C1885 C1901 1.429 . S
C1885 H1907 0.950 . S
C1886 H1882 0.949 . S
C1886 C1894 1.574 . S
C1886 C1902 1.368 . S
H1887 C1895 0.950 . S
H1888 C1893 0.950 . S
H1889 C1894 0.949 . S
H1890 C1896 0.950 . S
H1891 C1897 0.950 . S
H1892 C1898 0.949 . S
C1893 H1888 0.950 . S
C1893 C1895 1.327 . S
C1893 C1899 1.429 . S
C1894 C1886 1.574 . S
C1894 H1889 0.949 . S
C1894 C1900 1.368 . S
C1895 C1879 1.349 . S
C1895 H1887 0.950 . S
C1895 C1893 1.327 . S
C1896 C1884 1.349 . S
C1896 H1890 0.950 . S
C1896 C1897 1.327 . S
C1897 H1891 0.950 . S
C1897 C1896 1.327 . S
C1897 C1901 1.429 . S
C1898 C1881 1.574 . S
C1898 H1892 0.949 . S
C1898 C1902 1.368 . S
C1899 C1880 1.429 . S
C1899 C1893 1.429 . S
C1899 C1900 1.523 . S
C1900 C1881 1.368 . S
C1900 C1894 1.368 . S
C1900 C1899 1.523 . S
C1901 C1885 1.429 . S
C1901 C1897 1.429 . S
C1901 C1902 1.523 . S
C1902 C1886 1.368 . S
C1902 C1898 1.368 . S
C1902 C1901 1.523 . S
H1903 C1878 0.950 . S
H1904 C1880 0.950 . S
H1905 C1881 0.949 . S
H1906 C1883 0.950 . S
H1907 C1885 0.950 . S
C1908 C1909 1.349 . S
C1908 C1910 1.327 . S
C1908 H1933 0.950 . S
C1909 C1908 1.349 . S
C1909 C1925 1.349 . S
C1910 C1908 1.327 . S
C1910 C1929 1.429 . S
C1910 H1934 0.950 . S
C1911 C1928 1.574 . S
C1911 C1930 1.368 . S
C1911 H1935 0.949 . S
H1912 C1916 0.949 . S
C1913 C1914 1.349 . S
C1913 C1915 1.327 . S
C1913 H1936 0.950 . S
C1914 C1913 1.349 . S
C1914 C1926 1.349 . S
C1915 C1913 1.327 . S
C1915 C1931 1.429 . S
C1915 H1937 0.950 . S
C1916 H1912 0.949 . S
C1916 C1924 1.574 . S
C1916 C1932 1.368 . S
H1917 C1925 0.950 . S
H1918 C1923 0.950 . S
H1919 C1924 0.949 . S
H1920 C1926 0.950 . S
H1921 C1927 0.950 . S
H1922 C1928 0.949 . S
C1923 H1918 0.950 . S
C1923 C1925 1.327 . S
C1923 C1929 1.429 . S
C1924 C1916 1.574 . S
C1924 H1919 0.949 . S
C1924 C1930 1.368 . S
C1925 C1909 1.349 . S
C1925 H1917 0.950 . S
C1925 C1923 1.327 . S
C1926 C1914 1.349 . S
C1926 H1920 0.950 . S
C1926 C1927 1.327 . S
C1927 H1921 0.950 . S
C1927 C1926 1.327 . S
C1927 C1931 1.429 . S
C1928 C1911 1.574 . S
C1928 H1922 0.949 . S
C1928 C1932 1.368 . S
C1929 C1910 1.429 . S
C1929 C1923 1.429 . S
C1929 C1930 1.523 . S
C1930 C1911 1.368 . S
C1930 C1924 1.368 . S
C1930 C1929 1.523 . S
C1931 C1915 1.429 . S
C1931 C1927 1.429 . S
C1931 C1932 1.523 . S
C1932 C1916 1.368 . S
C1932 C1928 1.368 . S
C1932 C1931 1.523 . S
H1933 C1908 0.950 . S
H1934 C1910 0.950 . S
H1935 C1911 0.949 . S
H1936 C1913 0.950 . S
H1937 C1915 0.950 . S
C1938 C1939 1.349 . S
C1938 C1940 1.327 . S
C1938 H1963 0.950 . S
C1939 C1938 1.349 . S
C1939 C1955 1.349 . S
C1940 C1938 1.327 . S
C1940 C1959 1.429 . S
C1940 H1964 0.950 . S
C1941 C1958 1.574 . S
C1941 C1960 1.368 . S
C1941 H1965 0.949 . S
H1942 C1946 0.949 . S
C1943 C1944 1.349 . S
C1943 C1945 1.327 1_565 S
C1943 H1966 0.950 . S
C1944 C1943 1.349 . S
C1944 C1956 1.349 . S
C1945 C1943 1.327 1_545 S
C1945 C1961 1.429 . S
C1945 H1967 0.950 . S
C1946 H1942 0.949 . S
C1946 C1954 1.574 . S
C1946 C1962 1.368 . S
H1947 C1955 0.950 . S
H1948 C1953 0.950 . S
H1949 C1954 0.949 . S
H1950 C1956 0.950 . S
H1951 C1957 0.950 . S
H1952 C1958 0.949 . S
C1953 H1948 0.950 . S
C1953 C1955 1.327 . S
C1953 C1959 1.429 . S
C1954 C1946 1.574 . S
C1954 H1949 0.949 . S
C1954 C1960 1.368 . S
C1955 C1939 1.349 . S
C1955 H1947 0.950 . S
C1955 C1953 1.327 . S
C1956 C1944 1.349 . S
C1956 H1950 0.950 . S
C1956 C1957 1.327 1_565 S
C1957 H1951 0.950 . S
C1957 C1956 1.327 1_545 S
C1957 C1961 1.429 . S
C1958 C1941 1.574 . S
C1958 H1952 0.949 . S
C1958 C1962 1.368 . S
C1959 C1940 1.429 . S
C1959 C1953 1.429 . S
C1959 C1960 1.523 . S
C1960 C1941 1.368 . S
C1960 C1954 1.368 . S
C1960 C1959 1.523 . S
C1961 C1945 1.429 . S
C1961 C1957 1.429 . S
C1961 C1962 1.523 . S
C1962 C1946 1.368 . S
C1962 C1958 1.368 . S
C1962 C1961 1.523 . S
H1963 C1938 0.950 . S
H1964 C1940 0.950 . S
H1965 C1941 0.949 . S
H1966 C1943 0.950 . S
H1967 C1945 0.950 . S
C1968 C1969 1.349 . S
C1968 C1970 1.327 . S
C1968 H1993 0.950 . S
C1969 C1968 1.349 . S
C1969 C1985 1.349 . S
C1970 C1968 1.327 . S
C1970 C1989 1.429 . S
C1970 H1994 0.950 . S
C1971 C1988 1.574 . S
C1971 C1990 1.368 . S
C1971 H1995 0.949 . S
H1972 C1976 0.949 . S
C1973 C1974 1.349 . S
C1973 C1975 1.327 . S
C1973 H1996 0.950 . S
C1974 C1973 1.349 . S
C1974 C1986 1.349 . S
C1975 C1973 1.327 . S
C1975 C1991 1.429 . S
C1975 H1997 0.950 . S
C1976 H1972 0.949 . S
C1976 C1984 1.574 . S
C1976 C1992 1.368 . S
H1977 C1985 0.950 . S
H1978 C1983 0.950 . S
H1979 C1984 0.949 . S
H1980 C1986 0.950 . S
H1981 C1987 0.950 . S
H1982 C1988 0.949 . S
C1983 H1978 0.950 . S
C1983 C1985 1.327 . S
C1983 C1989 1.429 . S
C1984 C1976 1.574 . S
C1984 H1979 0.949 . S
C1984 C1990 1.368 . S
C1985 C1969 1.349 . S
C1985 H1977 0.950 . S
C1985 C1983 1.327 . S
C1986 C1974 1.349 . S
C1986 H1980 0.950 . S
C1986 C1987 1.327 . S
C1987 H1981 0.950 . S
C1987 C1986 1.327 . S
C1987 C1991 1.429 . S
C1988 C1971 1.574 . S
C1988 H1982 0.949 . S
C1988 C1992 1.368 . S
C1989 C1970 1.429 . S
C1989 C1983 1.429 . S
C1989 C1990 1.523 . S
C1990 C1971 1.368 . S
C1990 C1984 1.368 . S
C1990 C1989 1.523 . S
C1991 C1975 1.429 . S
C1991 C1987 1.429 . S
C1991 C1992 1.523 . S
C1992 C1976 1.368 . S
C1992 C1988 1.368 . S
C1992 C1991 1.523 . S
H1993 C1968 0.950 . S
H1994 C1970 0.950 . S
H1995 C1971 0.949 . S
H1996 C1973 0.950 . S
H1997 C1975 0.950 . S
C1998 C1999 1.349 . S
C1998 C2000 1.327 . S
C1998 H2023 0.950 . S
C1999 C1998 1.349 . S
C1999 C2015 1.349 . S
C2000 C1998 1.327 . S
C2000 C2019 1.429 . S
C2000 H2024 0.950 . S
C2001 C2018 1.574 . S
C2001 C2020 1.368 . S
C2001 H2025 0.949 . S
H2002 C2006 0.949 . S
C2003 C2004 1.349 . S
C2003 C2005 1.327 . S
C2003 H2026 0.950 . S
C2004 C2003 1.349 . S
C2004 C2016 1.349 . S
C2005 C2003 1.327 . S
C2005 C2021 1.429 . S
C2005 H2027 0.950 . S
C2006 H2002 0.949 . S
C2006 C2014 1.574 . S
C2006 C2022 1.368 . S
H2007 C2015 0.950 . S
H2008 C2013 0.950 . S
H2009 C2014 0.949 . S
H2010 C2016 0.950 . S
H2011 C2017 0.950 . S
H2012 C2018 0.949 . S
C2013 H2008 0.950 . S
C2013 C2015 1.327 . S
C2013 C2019 1.429 . S
C2014 C2006 1.574 . S
C2014 H2009 0.949 . S
C2014 C2020 1.368 . S
C2015 C1999 1.349 . S
C2015 H2007 0.950 . S
C2015 C2013 1.327 . S
C2016 C2004 1.349 . S
C2016 H2010 0.950 . S
C2016 C2017 1.327 . S
C2017 H2011 0.950 . S
C2017 C2016 1.327 . S
C2017 C2021 1.429 . S
C2018 C2001 1.574 . S
C2018 H2012 0.949 . S
C2018 C2022 1.368 . S
C2019 C2000 1.429 . S
C2019 C2013 1.429 . S
C2019 C2020 1.523 . S
C2020 C2001 1.368 . S
C2020 C2014 1.368 . S
C2020 C2019 1.523 . S
C2021 C2005 1.429 . S
C2021 C2017 1.429 . S
C2021 C2022 1.523 . S
C2022 C2006 1.368 . S
C2022 C2018 1.368 . S
C2022 C2021 1.523 . S
H2023 C1998 0.950 . S
H2024 C2000 0.950 . S
H2025 C2001 0.949 . S
H2026 C2003 0.950 . S
H2027 C2005 0.950 . S
C2028 C2029 1.349 . S
C2028 C2030 1.327 . S
C2028 H2053 0.950 . S
C2029 C2028 1.349 . S
C2029 C2045 1.349 . S
C2030 C2028 1.327 . S
C2030 C2049 1.429 . S
C2030 H2054 0.950 . S
C2031 C2048 1.574 . S
C2031 C2050 1.368 . S
C2031 H2055 0.949 . S
H2032 C2036 0.949 . S
C2033 C2034 1.349 . S
C2033 C2035 1.327 . S
C2033 H2056 0.950 . S
C2034 C2033 1.349 . S
C2034 C2046 1.349 . S
C2035 C2033 1.327 . S
C2035 C2051 1.429 . S
C2035 H2057 0.950 . S
C2036 H2032 0.949 . S
C2036 C2044 1.574 . S
C2036 C2052 1.368 . S
H2037 C2045 0.950 . S
H2038 C2043 0.950 . S
H2039 C2044 0.949 . S
H2040 C2046 0.950 . S
H2041 C2047 0.950 . S
H2042 C2048 0.949 . S
C2043 H2038 0.950 . S
C2043 C2045 1.327 . S
C2043 C2049 1.429 . S
C2044 C2036 1.574 . S
C2044 H2039 0.949 . S
C2044 C2050 1.368 . S
C2045 C2029 1.349 . S
C2045 H2037 0.950 . S
C2045 C2043 1.327 . S
C2046 C2034 1.349 . S
C2046 H2040 0.950 . S
C2046 C2047 1.327 . S
C2047 H2041 0.950 . S
C2047 C2046 1.327 . S
C2047 C2051 1.429 . S
C2048 C2031 1.574 . S
C2048 H2042 0.949 . S
C2048 C2052 1.368 . S
C2049 C2030 1.429 . S
C2049 C2043 1.429 . S
C2049 C2050 1.523 . S
C2050 C2031 1.368 . S
C2050 C2044 1.368 . S
C2050 C2049 1.523 . S
C2051 C2035 1.429 . S
C2051 C2047 1.429 . S
C2051 C2052 1.523 . S
C2052 C2036 1.368 . S
C2052 C2048 1.368 . S
C2052 C2051 1.523 . S
H2053 C2028 0.950 . S
H2054 C2030 0.950 . S
H2055 C2031 0.949 . S
H2056 C2033 0.950 . S
H2057 C2035 0.950 . S
C2058 C2059 1.349 . S
C2058 C2060 1.327 . S
C2058 H2083 0.950 . S
C2059 C2058 1.349 . S
C2059 C2075 1.349 . S
C2060 C2058 1.327 . S
C2060 C2079 1.429 . S
C2060 H2084 0.950 . S
C2061 C2078 1.574 . S
C2061 C2080 1.368 . S
C2061 H2085 0.949 . S
H2062 C2066 0.949 . S
C2063 C2064 1.349 . S
C2063 C2065 1.327 . S
C2063 H2086 0.950 . S
C2064 C2063 1.349 . S
C2064 C2076 1.349 . S
C2065 C2063 1.327 . S
C2065 C2081 1.429 . S
C2065 H2087 0.950 . S
C2066 H2062 0.949 . S
C2066 C2074 1.574 . S
C2066 C2082 1.368 . S
H2067 C2075 0.950 . S
H2068 C2073 0.950 . S
H2069 C2074 0.949 . S
H2070 C2076 0.950 . S
H2071 C2077 0.950 . S
H2072 C2078 0.949 . S
C2073 H2068 0.950 . S
C2073 C2075 1.327 . S
C2073 C2079 1.429 . S
C2074 C2066 1.574 . S
C2074 H2069 0.949 . S
C2074 C2080 1.368 . S
C2075 C2059 1.349 . S
C2075 H2067 0.950 . S
C2075 C2073 1.327 . S
C2076 C2064 1.349 . S
C2076 H2070 0.950 . S
C2076 C2077 1.327 . S
C2077 H2071 0.950 . S
C2077 C2076 1.327 . S
C2077 C2081 1.429 . S
C2078 C2061 1.574 . S
C2078 H2072 0.949 . S
C2078 C2082 1.368 . S
C2079 C2060 1.429 . S
C2079 C2073 1.429 . S
C2079 C2080 1.523 . S
C2080 C2061 1.368 . S
C2080 C2074 1.368 . S
C2080 C2079 1.523 . S
C2081 C2065 1.429 . S
C2081 C2077 1.429 . S
C2081 C2082 1.523 . S
C2082 C2066 1.368 . S
C2082 C2078 1.368 . S
C2082 C2081 1.523 . S
H2083 C2058 0.950 . S
H2084 C2060 0.950 . S
H2085 C2061 0.949 . S
H2086 C2063 0.950 . S
H2087 C2065 0.950 . S
C2088 C2089 1.349 . S
C2088 C2090 1.327 . S
C2088 H2113 0.950 . S
C2089 C2088 1.349 . S
C2089 C2105 1.349 . S
C2090 C2088 1.327 . S
C2090 C2109 1.429 . S
C2090 H2114 0.950 . S
C2091 C2108 1.574 . S
C2091 C2110 1.368 . S
C2091 H2115 0.949 . S
H2092 C2096 0.949 . S
C2093 C2094 1.349 . S
C2093 C2095 1.327 . S
C2093 H2116 0.950 . S
C2094 C2093 1.349 . S
C2094 C2106 1.349 . S
C2095 C2093 1.327 . S
C2095 C2111 1.429 . S
C2095 H2117 0.950 . S
C2096 H2092 0.949 . S
C2096 C2104 1.574 . S
C2096 C2112 1.368 . S
H2097 C2105 0.950 . S
H2098 C2103 0.950 . S
H2099 C2104 0.949 . S
H2100 C2106 0.950 . S
H2101 C2107 0.950 . S
H2102 C2108 0.949 . S
C2103 H2098 0.950 . S
C2103 C2105 1.327 . S
C2103 C2109 1.429 . S
C2104 C2096 1.574 . S
C2104 H2099 0.949 . S
C2104 C2110 1.368 . S
C2105 C2089 1.349 . S
C2105 H2097 0.950 . S
C2105 C2103 1.327 . S
C2106 C2094 1.349 . S
C2106 H2100 0.950 . S
C2106 C2107 1.327 . S
C2107 H2101 0.950 . S
C2107 C2106 1.327 . S
C2107 C2111 1.429 . S
C2108 C2091 1.574 . S
C2108 H2102 0.949 . S
C2108 C2112 1.368 . S
C2109 C2090 1.429 . S
C2109 C2103 1.429 . S
C2109 C2110 1.523 . S
C2110 C2091 1.368 . S
C2110 C2104 1.368 . S
C2110 C2109 1.523 . S
C2111 C2095 1.429 . S
C2111 C2107 1.429 . S
C2111 C2112 1.523 . S
C2112 C2096 1.368 . S
C2112 C2108 1.368 . S
C2112 C2111 1.523 . S
H2113 C2088 0.950 . S
H2114 C2090 0.950 . S
H2115 C2091 0.949 . S
H2116 C2093 0.950 . S
H2117 C2095 0.950 . S
C2118 C2119 1.349 . S
C2118 C2120 1.327 . S
C2118 H2143 0.950 . S
C2119 C2118 1.349 . S
C2119 C2135 1.349 . S
C2120 C2118 1.327 . S
C2120 C2139 1.429 . S
C2120 H2144 0.950 . S
C2121 C2138 1.574 . S
C2121 C2140 1.368 . S
C2121 H2145 0.949 . S
H2122 C2126 0.949 . S
C2123 C2124 1.349 . S
C2123 C2125 1.327 . S
C2123 H2146 0.950 . S
C2124 C2123 1.349 . S
C2124 C2136 1.349 . S
C2125 C2123 1.327 . S
C2125 C2141 1.429 . S
C2125 H2147 0.950 . S
C2126 H2122 0.949 . S
C2126 C2134 1.574 . S
C2126 C2142 1.368 . S
H2127 C2135 0.950 . S
H2128 C2133 0.950 . S
H2129 C2134 0.949 . S
H2130 C2136 0.950 . S
H2131 C2137 0.950 . S
H2132 C2138 0.949 . S
C2133 H2128 0.950 . S
C2133 C2135 1.327 . S
C2133 C2139 1.429 . S
C2134 C2126 1.574 . S
C2134 H2129 0.949 . S
C2134 C2140 1.368 . S
C2135 C2119 1.349 . S
C2135 H2127 0.950 . S
C2135 C2133 1.327 . S
C2136 C2124 1.349 . S
C2136 H2130 0.950 . S
C2136 C2137 1.327 . S
C2137 H2131 0.950 . S
C2137 C2136 1.327 . S
C2137 C2141 1.429 . S
C2138 C2121 1.574 . S
C2138 H2132 0.949 . S
C2138 C2142 1.368 . S
C2139 C2120 1.429 . S
C2139 C2133 1.429 . S
C2139 C2140 1.523 . S
C2140 C2121 1.368 . S
C2140 C2134 1.368 . S
C2140 C2139 1.523 . S
C2141 C2125 1.429 . S
C2141 C2137 1.429 . S
C2141 C2142 1.523 . S
C2142 C2126 1.368 . S
C2142 C2138 1.368 . S
C2142 C2141 1.523 . S
H2143 C2118 0.950 . S
H2144 C2120 0.950 . S
H2145 C2121 0.949 . S
H2146 C2123 0.950 . S
H2147 C2125 0.950 . S
C2148 C2149 1.349 . S
C2148 C2150 1.327 . S
C2148 H2173 0.950 . S
C2149 C2148 1.349 . S
C2149 C2165 1.349 . S
C2150 C2148 1.327 . S
C2150 C2169 1.429 . S
C2150 H2174 0.950 . S
C2151 C2168 1.574 . S
C2151 C2170 1.368 . S
C2151 H2175 0.949 . S
H2152 C2156 0.949 . S
C2153 C2154 1.349 . S
C2153 C2155 1.327 . S
C2153 H2176 0.950 . S
C2154 C2153 1.349 . S
C2154 C2166 1.349 . S
C2155 C2153 1.327 . S
C2155 C2171 1.429 . S
C2155 H2177 0.950 . S
C2156 H2152 0.949 . S
C2156 C2164 1.574 . S
C2156 C2172 1.368 . S
H2157 C2165 0.950 . S
H2158 C2163 0.950 . S
H2159 C2164 0.949 . S
H2160 C2166 0.950 . S
H2161 C2167 0.950 . S
H2162 C2168 0.949 . S
C2163 H2158 0.950 . S
C2163 C2165 1.327 . S
C2163 C2169 1.429 . S
C2164 C2156 1.574 . S
C2164 H2159 0.949 . S
C2164 C2170 1.368 . S
C2165 C2149 1.349 . S
C2165 H2157 0.950 . S
C2165 C2163 1.327 . S
C2166 C2154 1.349 . S
C2166 H2160 0.950 . S
C2166 C2167 1.327 . S
C2167 H2161 0.950 . S
C2167 C2166 1.327 . S
C2167 C2171 1.429 . S
C2168 C2151 1.574 . S
C2168 H2162 0.949 . S
C2168 C2172 1.368 . S
C2169 C2150 1.429 . S
C2169 C2163 1.429 . S
C2169 C2170 1.523 . S
C2170 C2151 1.368 . S
C2170 C2164 1.368 . S
C2170 C2169 1.523 . S
C2171 C2155 1.429 . S
C2171 C2167 1.429 . S
C2171 C2172 1.523 . S
C2172 C2156 1.368 . S
C2172 C2168 1.368 . S
C2172 C2171 1.523 . S
H2173 C2148 0.950 . S
H2174 C2150 0.950 . S
H2175 C2151 0.949 . S
H2176 C2153 0.950 . S
H2177 C2155 0.950 . S
C2178 C2179 1.349 . S
C2178 C2180 1.327 . S
C2178 H2203 0.950 . S
C2179 C2178 1.349 . S
C2179 C2195 1.349 . S
C2180 C2178 1.327 . S
C2180 C2199 1.429 . S
C2180 H2204 0.950 . S
C2181 C2198 1.574 . S
C2181 C2200 1.368 . S
C2181 H2205 0.949 . S
H2182 C2186 0.949 . S
C2183 C2184 1.349 . S
C2183 C2185 1.327 . S
C2183 H2206 0.950 . S
C2184 C2183 1.349 . S
C2184 C2196 1.349 . S
C2185 C2183 1.327 . S
C2185 C2201 1.429 . S
C2185 H2207 0.950 . S
C2186 H2182 0.949 . S
C2186 C2194 1.574 . S
C2186 C2202 1.368 . S
H2187 C2195 0.950 . S
H2188 C2193 0.950 . S
H2189 C2194 0.949 . S
H2190 C2196 0.950 . S
H2191 C2197 0.950 . S
H2192 C2198 0.949 . S
C2193 H2188 0.950 . S
C2193 C2195 1.327 . S
C2193 C2199 1.429 . S
C2194 C2186 1.574 . S
C2194 H2189 0.949 . S
C2194 C2200 1.368 . S
C2195 C2179 1.349 . S
C2195 H2187 0.950 . S
C2195 C2193 1.327 . S
C2196 C2184 1.349 . S
C2196 H2190 0.950 . S
C2196 C2197 1.327 . S
C2197 H2191 0.950 . S
C2197 C2196 1.327 . S
C2197 C2201 1.429 . S
C2198 C2181 1.574 . S
C2198 H2192 0.949 . S
C2198 C2202 1.368 . S
C2199 C2180 1.429 . S
C2199 C2193 1.429 . S
C2199 C2200 1.523 . S
C2200 C2181 1.368 . S
C2200 C2194 1.368 . S
C2200 C2199 1.523 . S
C2201 C2185 1.429 . S
C2201 C2197 1.429 . S
C2201 C2202 1.523 . S
C2202 C2186 1.368 . S
C2202 C2198 1.368 . S
C2202 C2201 1.523 . S
H2203 C2178 0.950 . S
H2204 C2180 0.950 . S
H2205 C2181 0.949 . S
H2206 C2183 0.950 . S
H2207 C2185 0.950 . S
C2208 C2209 1.349 . S
C2208 C2210 1.327 . S
C2208 H2233 0.950 . S
C2209 C2208 1.349 . S
C2209 C2225 1.349 . S
C2210 C2208 1.327 . S
C2210 C2229 1.429 . S
C2210 H2234 0.950 . S
C2211 C2228 1.574 . S
C2211 C2230 1.368 . S
C2211 H2235 0.949 . S
H2212 C2216 0.949 . S
C2213 C2214 1.349 . S
C2213 C2215 1.327 . S
C2213 H2236 0.950 . S
C2214 C2213 1.349 . S
C2214 C2226 1.349 . S
C2215 C2213 1.327 . S
C2215 C2231 1.429 . S
C2215 H2237 0.950 . S
C2216 H2212 0.949 . S
C2216 C2224 1.574 . S
C2216 C2232 1.368 . S
H2217 C2225 0.950 . S
H2218 C2223 0.950 . S
H2219 C2224 0.949 . S
H2220 C2226 0.950 . S
H2221 C2227 0.950 . S
H2222 C2228 0.949 . S
C2223 H2218 0.950 . S
C2223 C2225 1.327 . S
C2223 C2229 1.429 . S
C2224 C2216 1.574 . S
C2224 H2219 0.949 . S
C2224 C2230 1.368 . S
C2225 C2209 1.349 . S
C2225 H2217 0.950 . S
C2225 C2223 1.327 . S
C2226 C2214 1.349 . S
C2226 H2220 0.950 . S
C2226 C2227 1.327 . S
C2227 H2221 0.950 . S
C2227 C2226 1.327 . S
C2227 C2231 1.429 . S
C2228 C2211 1.574 . S
C2228 H2222 0.949 . S
C2228 C2232 1.368 . S
C2229 C2210 1.429 . S
C2229 C2223 1.429 . S
C2229 C2230 1.523 . S
C2230 C2211 1.368 . S
C2230 C2224 1.368 . S
C2230 C2229 1.523 . S
C2231 C2215 1.429 . S
C2231 C2227 1.429 . S
C2231 C2232 1.523 . S
C2232 C2216 1.368 . S
C2232 C2228 1.368 . S
C2232 C2231 1.523 . S
H2233 C2208 0.950 . S
H2234 C2210 0.950 . S
H2235 C2211 0.949 . S
H2236 C2213 0.950 . S
H2237 C2215 0.950 . S
C2238 C2239 1.349 . S
C2238 C2240 1.327 . S
C2238 H2263 0.950 . S
C2239 C2238 1.349 . S
C2239 C2255 1.349 . S
C2240 C2238 1.327 . S
C2240 C2259 1.429 . S
C2240 H2264 0.950 . S
C2241 C2258 1.574 . S
C2241 C2260 1.368 . S
C2241 H2265 0.949 . S
H2242 C2246 0.949 . S
C2243 C2244 1.349 . S
C2243 C2245 1.327 . S
C2243 H2266 0.950 . S
C2244 C2243 1.349 . S
C2244 C2256 1.349 . S
C2245 C2243 1.327 . S
C2245 C2261 1.429 . S
C2245 H2267 0.950 . S
C2246 H2242 0.949 . S
C2246 C2254 1.574 . S
C2246 C2262 1.368 . S
H2247 C2255 0.950 . S
H2248 C2253 0.950 . S
H2249 C2254 0.949 . S
H2250 C2256 0.950 . S
H2251 C2257 0.950 . S
H2252 C2258 0.949 . S
C2253 H2248 0.950 . S
C2253 C2255 1.327 . S
C2253 C2259 1.429 . S
C2254 C2246 1.574 . S
C2254 H2249 0.949 . S
C2254 C2260 1.368 . S
C2255 C2239 1.349 . S
C2255 H2247 0.950 . S
C2255 C2253 1.327 . S
C2256 C2244 1.349 . S
C2256 H2250 0.950 . S
C2256 C2257 1.327 . S
C2257 H2251 0.950 . S
C2257 C2256 1.327 . S
C2257 C2261 1.429 . S
C2258 C2241 1.574 . S
C2258 H2252 0.949 . S
C2258 C2262 1.368 . S
C2259 C2240 1.429 . S
C2259 C2253 1.429 . S
C2259 C2260 1.523 . S
C2260 C2241 1.368 . S
C2260 C2254 1.368 . S
C2260 C2259 1.523 . S
C2261 C2245 1.429 . S
C2261 C2257 1.429 . S
C2261 C2262 1.523 . S
C2262 C2246 1.368 . S
C2262 C2258 1.368 . S
C2262 C2261 1.523 . S
H2263 C2238 0.950 . S
H2264 C2240 0.950 . S
H2265 C2241 0.949 . S
H2266 C2243 0.950 . S
H2267 C2245 0.950 . S
C2268 C2269 1.349 . S
C2268 C2270 1.327 . S
C2268 H2293 0.950 . S
C2269 C2268 1.349 . S
C2269 C2285 1.349 . S
C2270 C2268 1.327 . S
C2270 C2289 1.429 . S
C2270 H2294 0.950 . S
C2271 C2288 1.574 . S
C2271 C2290 1.368 . S
C2271 H2295 0.949 . S
H2272 C2276 0.949 . S
C2273 C2274 1.349 . S
C2273 C2275 1.327 . S
C2273 H2296 0.950 . S
C2274 C2273 1.349 . S
C2274 C2286 1.349 . S
C2275 C2273 1.327 . S
C2275 C2291 1.429 . S
C2275 H2297 0.950 . S
C2276 H2272 0.949 . S
C2276 C2284 1.574 . S
C2276 C2292 1.368 . S
H2277 C2285 0.950 . S
H2278 C2283 0.950 . S
H2279 C2284 0.949 . S
H2280 C2286 0.950 . S
H2281 C2287 0.950 . S
H2282 C2288 0.949 . S
C2283 H2278 0.950 . S
C2283 C2285 1.327 . S
C2283 C2289 1.429 . S
C2284 C2276 1.574 . S
C2284 H2279 0.949 . S
C2284 C2290 1.368 . S
C2285 C2269 1.349 . S
C2285 H2277 0.950 . S
C2285 C2283 1.327 . S
C2286 C2274 1.349 . S
C2286 H2280 0.950 . S
C2286 C2287 1.327 . S
C2287 H2281 0.950 . S
C2287 C2286 1.327 . S
C2287 C2291 1.429 . S
C2288 C2271 1.574 . S
C2288 H2282 0.949 . S
C2288 C2292 1.368 . S
C2289 C2270 1.429 . S
C2289 C2283 1.429 . S
C2289 C2290 1.523 . S
C2290 C2271 1.368 . S
C2290 C2284 1.368 . S
C2290 C2289 1.523 . S
C2291 C2275 1.429 . S
C2291 C2287 1.429 . S
C2291 C2292 1.523 . S
C2292 C2276 1.368 . S
C2292 C2288 1.368 . S
C2292 C2291 1.523 . S
H2293 C2268 0.950 . S
H2294 C2270 0.950 . S
H2295 C2271 0.949 . S
H2296 C2273 0.950 . S
H2297 C2275 0.950 . S
C2298 C2299 1.349 . S
C2298 C2300 1.327 . S
C2298 H2323 0.950 . S
C2299 C2298 1.349 . S
C2299 C2315 1.349 . S
C2300 C2298 1.327 . S
C2300 C2319 1.429 . S
C2300 H2324 0.950 . S
C2301 C2318 1.574 . S
C2301 C2320 1.368 . S
C2301 H2325 0.949 . S
H2302 C2306 0.949 . S
C2303 C2304 1.349 . S
C2303 C2305 1.327 . S
C2303 H2326 0.950 . S
C2304 C2303 1.349 . S
C2304 C2316 1.349 . S
C2305 C2303 1.327 . S
C2305 C2321 1.429 . S
C2305 H2327 0.950 . S
C2306 H2302 0.949 . S
C2306 C2314 1.574 . S
C2306 C2322 1.368 . S
H2307 C2315 0.950 . S
H2308 C2313 0.950 . S
H2309 C2314 0.949 . S
H2310 C2316 0.950 . S
H2311 C2317 0.950 . S
H2312 C2318 0.949 . S
C2313 H2308 0.950 . S
C2313 C2315 1.327 . S
C2313 C2319 1.429 . S
C2314 C2306 1.574 . S
C2314 H2309 0.949 . S
C2314 C2320 1.368 . S
C2315 C2299 1.349 . S
C2315 H2307 0.950 . S
C2315 C2313 1.327 . S
C2316 C2304 1.349 . S
C2316 H2310 0.950 . S
C2316 C2317 1.327 . S
C2317 H2311 0.950 . S
C2317 C2316 1.327 . S
C2317 C2321 1.429 . S
C2318 C2301 1.574 . S
C2318 H2312 0.949 . S
C2318 C2322 1.368 . S
C2319 C2300 1.429 . S
C2319 C2313 1.429 . S
C2319 C2320 1.523 . S
C2320 C2301 1.368 . S
C2320 C2314 1.368 . S
C2320 C2319 1.523 . S
C2321 C2305 1.429 . S
C2321 C2317 1.429 . S
C2321 C2322 1.523 . S
C2322 C2306 1.368 . S
C2322 C2318 1.368 . S
C2322 C2321 1.523 . S
H2323 C2298 0.950 . S
H2324 C2300 0.950 . S
H2325 C2301 0.949 . S
H2326 C2303 0.950 . S
H2327 C2305 0.950 . S
C2328 C2329 1.349 . S
C2328 C2330 1.327 . S
C2328 H2353 0.950 . S
C2329 C2328 1.349 . S
C2329 C2345 1.349 . S
C2330 C2328 1.327 . S
C2330 C2349 1.429 . S
C2330 H2354 0.950 . S
C2331 C2348 1.574 . S
C2331 C2350 1.368 . S
C2331 H2355 0.949 . S
H2332 C2336 0.949 . S
C2333 C2334 1.349 . S
C2333 C2335 1.327 . S
C2333 H2356 0.950 . S
C2334 C2333 1.349 . S
C2334 C2346 1.349 . S
C2335 C2333 1.327 . S
C2335 C2351 1.429 . S
C2335 H2357 0.950 . S
C2336 H2332 0.949 . S
C2336 C2344 1.574 . S
C2336 C2352 1.368 . S
H2337 C2345 0.950 . S
H2338 C2343 0.950 . S
H2339 C2344 0.949 . S
H2340 C2346 0.950 . S
H2341 C2347 0.950 . S
H2342 C2348 0.949 . S
C2343 H2338 0.950 . S
C2343 C2345 1.327 . S
C2343 C2349 1.429 . S
C2344 C2336 1.574 . S
C2344 H2339 0.949 . S
C2344 C2350 1.368 . S
C2345 C2329 1.349 . S
C2345 H2337 0.950 . S
C2345 C2343 1.327 . S
C2346 C2334 1.349 . S
C2346 H2340 0.950 . S
C2346 C2347 1.327 . S
C2347 H2341 0.950 . S
C2347 C2346 1.327 . S
C2347 C2351 1.429 . S
C2348 C2331 1.574 . S
C2348 H2342 0.949 . S
C2348 C2352 1.368 . S
C2349 C2330 1.429 . S
C2349 C2343 1.429 . S
C2349 C2350 1.523 . S
C2350 C2331 1.368 . S
C2350 C2344 1.368 . S
C2350 C2349 1.523 . S
C2351 C2335 1.429 . S
C2351 C2347 1.429 . S
C2351 C2352 1.523 . S
C2352 C2336 1.368 . S
C2352 C2348 1.368 . S
C2352 C2351 1.523 . S
H2353 C2328 0.950 . S
H2354 C2330 0.950 . S
H2355 C2331 0.949 . S
H2356 C2333 0.950 . S
H2357 C2335 0.950 . S
C2358 C2359 1.349 . S
C2358 C2360 1.327 . S
C2358 H2383 0.950 . S
C2359 C2358 1.349 . S
C2359 C2375 1.349 . S
C2360 C2358 1.327 . S
C2360 C2379 1.429 . S
C2360 H2384 0.950 . S
C2361 C2378 1.574 . S
C2361 C2380 1.368 . S
C2361 H2385 0.949 . S
H2362 C2366 0.949 . S
C2363 C2364 1.349 . S
C2363 C2365 1.327 . S
C2363 H2386 0.950 . S
C2364 C2363 1.349 . S
C2364 C2376 1.349 . S
C2365 C2363 1.327 . S
C2365 C2381 1.429 . S
C2365 H2387 0.950 . S
C2366 H2362 0.949 . S
C2366 C2374 1.574 . S
C2366 C2382 1.368 . S
H2367 C2375 0.950 . S
H2368 C2373 0.950 . S
H2369 C2374 0.949 . S
H2370 C2376 0.950 . S
H2371 C2377 0.950 . S
H2372 C2378 0.949 . S
C2373 H2368 0.950 . S
C2373 C2375 1.327 . S
C2373 C2379 1.429 . S
C2374 C2366 1.574 . S
C2374 H2369 0.949 . S
C2374 C2380 1.368 . S
C2375 C2359 1.349 . S
C2375 H2367 0.950 . S
C2375 C2373 1.327 . S
C2376 C2364 1.349 . S
C2376 H2370 0.950 . S
C2376 C2377 1.327 . S
C2377 H2371 0.950 . S
C2377 C2376 1.327 . S
C2377 C2381 1.429 . S
C2378 C2361 1.574 . S
C2378 H2372 0.949 . S
C2378 C2382 1.368 . S
C2379 C2360 1.429 . S
C2379 C2373 1.429 . S
C2379 C2380 1.523 . S
C2380 C2361 1.368 . S
C2380 C2374 1.368 . S
C2380 C2379 1.523 . S
C2381 C2365 1.429 . S
C2381 C2377 1.429 . S
C2381 C2382 1.523 . S
C2382 C2366 1.368 . S
C2382 C2378 1.368 . S
C2382 C2381 1.523 . S
H2383 C2358 0.950 . S
H2384 C2360 0.950 . S
H2385 C2361 0.949 . S
H2386 C2363 0.950 . S
H2387 C2365 0.950 . S
C2388 C2389 1.349 . S
C2388 C2390 1.327 . S
C2388 H2413 0.950 . S
C2389 C2388 1.349 . S
C2389 C2405 1.349 . S
C2390 C2388 1.327 . S
C2390 C2409 1.429 . S
C2390 H2414 0.950 . S
C2391 C2408 1.574 . S
C2391 C2410 1.368 . S
C2391 H2415 0.949 . S
H2392 C2396 0.949 . S
C2393 C2394 1.349 . S
C2393 C2395 1.327 . S
C2393 H2416 0.950 . S
C2394 C2393 1.349 . S
C2394 C2406 1.349 . S
C2395 C2393 1.327 . S
C2395 C2411 1.429 . S
C2395 H2417 0.950 . S
C2396 H2392 0.949 . S
C2396 C2404 1.574 . S
C2396 C2412 1.368 . S
H2397 C2405 0.950 . S
H2398 C2403 0.950 . S
H2399 C2404 0.949 . S
H2400 C2406 0.950 . S
H2401 C2407 0.950 . S
H2402 C2408 0.949 . S
C2403 H2398 0.950 . S
C2403 C2405 1.327 . S
C2403 C2409 1.429 . S
C2404 C2396 1.574 . S
C2404 H2399 0.949 . S
C2404 C2410 1.368 . S
C2405 C2389 1.349 . S
C2405 H2397 0.950 . S
C2405 C2403 1.327 . S
C2406 C2394 1.349 . S
C2406 H2400 0.950 . S
C2406 C2407 1.327 . S
C2407 H2401 0.950 . S
C2407 C2406 1.327 . S
C2407 C2411 1.429 . S
C2408 C2391 1.574 . S
C2408 H2402 0.949 . S
C2408 C2412 1.368 . S
C2409 C2390 1.429 . S
C2409 C2403 1.429 . S
C2409 C2410 1.523 . S
C2410 C2391 1.368 . S
C2410 C2404 1.368 . S
C2410 C2409 1.523 . S
C2411 C2395 1.429 . S
C2411 C2407 1.429 . S
C2411 C2412 1.523 . S
C2412 C2396 1.368 . S
C2412 C2408 1.368 . S
C2412 C2411 1.523 . S
H2413 C2388 0.950 . S
H2414 C2390 0.950 . S
H2415 C2391 0.949 . S
H2416 C2393 0.950 . S
H2417 C2395 0.950 . S
C2418 C2419 1.349 . S
C2418 C2420 1.327 . S
C2418 H2443 0.950 . S
C2419 C2418 1.349 . S
C2419 C2435 1.349 . S
C2420 C2418 1.327 . S
C2420 C2439 1.429 . S
C2420 H2444 0.950 . S
C2421 C2438 1.574 . S
C2421 C2440 1.368 . S
C2421 H2445 0.949 . S
H2422 C2426 0.949 . S
C2423 C2424 1.349 . S
C2423 C2425 1.327 . S
C2423 H2446 0.950 . S
C2424 C2423 1.349 . S
C2424 C2436 1.349 . S
C2425 C2423 1.327 . S
C2425 C2441 1.429 . S
C2425 H2447 0.950 . S
C2426 H2422 0.949 . S
C2426 C2434 1.574 . S
C2426 C2442 1.368 . S
H2427 C2435 0.950 . S
H2428 C2433 0.950 . S
H2429 C2434 0.949 . S
H2430 C2436 0.950 . S
H2431 C2437 0.950 . S
H2432 C2438 0.949 . S
C2433 H2428 0.950 . S
C2433 C2435 1.327 . S
C2433 C2439 1.429 . S
C2434 C2426 1.574 . S
C2434 H2429 0.949 . S
C2434 C2440 1.368 . S
C2435 C2419 1.349 . S
C2435 H2427 0.950 . S
C2435 C2433 1.327 . S
C2436 C2424 1.349 . S
C2436 H2430 0.950 . S
C2436 C2437 1.327 . S
C2437 H2431 0.950 . S
C2437 C2436 1.327 . S
C2437 C2441 1.429 . S
C2438 C2421 1.574 . S
C2438 H2432 0.949 . S
C2438 C2442 1.368 . S
C2439 C2420 1.429 . S
C2439 C2433 1.429 . S
C2439 C2440 1.523 . S
C2440 C2421 1.368 . S
C2440 C2434 1.368 . S
C2440 C2439 1.523 . S
C2441 C2425 1.429 . S
C2441 C2437 1.429 . S
C2441 C2442 1.523 . S
C2442 C2426 1.368 . S
C2442 C2438 1.368 . S
C2442 C2441 1.523 . S
H2443 C2418 0.950 . S
H2444 C2420 0.950 . S
H2445 C2421 0.949 . S
H2446 C2423 0.950 . S
H2447 C2425 0.950 . S
C2448 C2449 1.349 . S
C2448 C2450 1.327 . S
C2448 H2473 0.950 . S
C2449 C2448 1.349 . S
C2449 C2465 1.349 . S
C2450 C2448 1.327 . S
C2450 C2469 1.429 . S
C2450 H2474 0.950 . S
C2451 C2468 1.574 . S
C2451 C2470 1.368 . S
C2451 H2475 0.949 . S
H2452 C2456 0.949 . S
C2453 C2454 1.349 . S
C2453 C2455 1.327 . S
C2453 H2476 0.950 . S
C2454 C2453 1.349 . S
C2454 C2466 1.349 . S
C2455 C2453 1.327 . S
C2455 C2471 1.429 . S
C2455 H2477 0.950 . S
C2456 H2452 0.949 . S
C2456 C2464 1.574 . S
C2456 C2472 1.368 . S
H2457 C2465 0.950 . S
H2458 C2463 0.950 . S
H2459 C2464 0.949 . S
H2460 C2466 0.950 . S
H2461 C2467 0.950 . S
H2462 C2468 0.949 . S
C2463 H2458 0.950 . S
C2463 C2465 1.327 . S
C2463 C2469 1.429 . S
C2464 C2456 1.574 . S
C2464 H2459 0.949 . S
C2464 C2470 1.368 . S
C2465 C2449 1.349 . S
C2465 H2457 0.950 . S
C2465 C2463 1.327 . S
C2466 C2454 1.349 . S
C2466 H2460 0.950 . S
C2466 C2467 1.327 . S
C2467 H2461 0.950 . S
C2467 C2466 1.327 . S
C2467 C2471 1.429 . S
C2468 C2451 1.574 . S
C2468 H2462 0.949 . S
C2468 C2472 1.368 . S
C2469 C2450 1.429 . S
C2469 C2463 1.429 . S
C2469 C2470 1.523 . S
C2470 C2451 1.368 . S
C2470 C2464 1.368 . S
C2470 C2469 1.523 . S
C2471 C2455 1.429 . S
C2471 C2467 1.429 . S
C2471 C2472 1.523 . S
C2472 C2456 1.368 . S
C2472 C2468 1.368 . S
C2472 C2471 1.523 . S
H2473 C2448 0.950 . S
H2474 C2450 0.950 . S
H2475 C2451 0.949 . S
H2476 C2453 0.950 . S
H2477 C2455 0.950 . S
C2478 C2479 1.349 . S
C2478 C2480 1.327 . S
C2478 H2503 0.950 . S
C2479 C2478 1.349 . S
C2479 C2495 1.349 . S
C2480 C2478 1.327 . S
C2480 C2499 1.429 . S
C2480 H2504 0.950 . S
C2481 C2498 1.574 . S
C2481 C2500 1.368 . S
C2481 H2505 0.949 . S
H2482 C2486 0.949 . S
C2483 C2484 1.349 . S
C2483 C2485 1.327 . S
C2483 H2506 0.950 . S
C2484 C2483 1.349 . S
C2484 C2496 1.349 . S
C2485 C2483 1.327 . S
C2485 C2501 1.429 . S
C2485 H2507 0.950 . S
C2486 H2482 0.949 . S
C2486 C2494 1.574 . S
C2486 C2502 1.368 . S
H2487 C2495 0.950 . S
H2488 C2493 0.950 . S
H2489 C2494 0.949 . S
H2490 C2496 0.950 . S
H2491 C2497 0.950 . S
H2492 C2498 0.949 . S
C2493 H2488 0.950 . S
C2493 C2495 1.327 . S
C2493 C2499 1.429 . S
C2494 C2486 1.574 . S
C2494 H2489 0.949 . S
C2494 C2500 1.368 . S
C2495 C2479 1.349 . S
C2495 H2487 0.950 . S
C2495 C2493 1.327 . S
C2496 C2484 1.349 . S
C2496 H2490 0.950 . S
C2496 C2497 1.327 . S
C2497 H2491 0.950 . S
C2497 C2496 1.327 . S
C2497 C2501 1.429 . S
C2498 C2481 1.574 . S
C2498 H2492 0.949 . S
C2498 C2502 1.368 . S
C2499 C2480 1.429 . S
C2499 C2493 1.429 . S
C2499 C2500 1.523 . S
C2500 C2481 1.368 . S
C2500 C2494 1.368 . S
C2500 C2499 1.523 . S
C2501 C2485 1.429 . S
C2501 C2497 1.429 . S
C2501 C2502 1.523 . S
C2502 C2486 1.368 . S
C2502 C2498 1.368 . S
C2502 C2501 1.523 . S
H2503 C2478 0.950 . S
H2504 C2480 0.950 . S
H2505 C2481 0.949 . S
H2506 C2483 0.950 . S
H2507 C2485 0.950 . S
C2508 C2509 1.349 . S
C2508 C2510 1.327 . S
C2508 H2533 0.950 . S
C2509 C2508 1.349 . S
C2509 C2525 1.349 . S
C2510 C2508 1.327 . S
C2510 C2529 1.429 . S
C2510 H2534 0.950 . S
C2511 C2528 1.574 . S
C2511 C2530 1.368 . S
C2511 H2535 0.949 . S
H2512 C2516 0.949 . S
C2513 C2514 1.349 . S
C2513 C2515 1.327 . S
C2513 H2536 0.950 . S
C2514 C2513 1.349 . S
C2514 C2526 1.349 . S
C2515 C2513 1.327 . S
C2515 C2531 1.429 . S
C2515 H2537 0.950 . S
C2516 H2512 0.949 . S
C2516 C2524 1.574 . S
C2516 C2532 1.368 . S
H2517 C2525 0.950 . S
H2518 C2523 0.950 . S
H2519 C2524 0.949 . S
H2520 C2526 0.950 . S
H2521 C2527 0.950 . S
H2522 C2528 0.949 . S
C2523 H2518 0.950 . S
C2523 C2525 1.327 . S
C2523 C2529 1.429 . S
C2524 C2516 1.574 . S
C2524 H2519 0.949 . S
C2524 C2530 1.368 . S
C2525 C2509 1.349 . S
C2525 H2517 0.950 . S
C2525 C2523 1.327 . S
C2526 C2514 1.349 . S
C2526 H2520 0.950 . S
C2526 C2527 1.327 . S
C2527 H2521 0.950 . S
C2527 C2526 1.327 . S
C2527 C2531 1.429 . S
C2528 C2511 1.574 . S
C2528 H2522 0.949 . S
C2528 C2532 1.368 . S
C2529 C2510 1.429 . S
C2529 C2523 1.429 . S
C2529 C2530 1.523 . S
C2530 C2511 1.368 . S
C2530 C2524 1.368 . S
C2530 C2529 1.523 . S
C2531 C2515 1.429 . S
C2531 C2527 1.429 . S
C2531 C2532 1.523 . S
C2532 C2516 1.368 . S
C2532 C2528 1.368 . S
C2532 C2531 1.523 . S
H2533 C2508 0.950 . S
H2534 C2510 0.950 . S
H2535 C2511 0.949 . S
H2536 C2513 0.950 . S
H2537 C2515 0.950 . S
C2538 C2539 1.349 . S
C2538 C2540 1.327 . S
C2538 H2563 0.950 . S
C2539 C2538 1.349 . S
C2539 C2555 1.349 . S
C2540 C2538 1.327 . S
C2540 C2559 1.429 . S
C2540 H2564 0.950 . S
C2541 C2558 1.574 . S
C2541 C2560 1.368 . S
C2541 H2565 0.949 . S
H2542 C2546 0.949 . S
C2543 C2544 1.349 . S
C2543 C2545 1.327 . S
C2543 H2566 0.950 . S
C2544 C2543 1.349 . S
C2544 C2556 1.349 . S
C2545 C2543 1.327 . S
C2545 C2561 1.429 . S
C2545 H2567 0.950 . S
C2546 H2542 0.949 . S
C2546 C2554 1.574 . S
C2546 C2562 1.368 . S
H2547 C2555 0.950 . S
H2548 C2553 0.950 . S
H2549 C2554 0.949 . S
H2550 C2556 0.950 . S
H2551 C2557 0.950 . S
H2552 C2558 0.949 . S
C2553 H2548 0.950 . S
C2553 C2555 1.327 . S
C2553 C2559 1.429 . S
C2554 C2546 1.574 . S
C2554 H2549 0.949 . S
C2554 C2560 1.368 . S
C2555 C2539 1.349 . S
C2555 H2547 0.950 . S
C2555 C2553 1.327 . S
C2556 C2544 1.349 . S
C2556 H2550 0.950 . S
C2556 C2557 1.327 . S
C2557 H2551 0.950 . S
C2557 C2556 1.327 . S
C2557 C2561 1.429 . S
C2558 C2541 1.574 . S
C2558 H2552 0.949 . S
C2558 C2562 1.368 . S
C2559 C2540 1.429 . S
C2559 C2553 1.429 . S
C2559 C2560 1.523 . S
C2560 C2541 1.368 . S
C2560 C2554 1.368 . S
C2560 C2559 1.523 . S
C2561 C2545 1.429 . S
C2561 C2557 1.429 . S
C2561 C2562 1.523 . S
C2562 C2546 1.368 . S
C2562 C2558 1.368 . S
C2562 C2561 1.523 . S
H2563 C2538 0.950 . S
H2564 C2540 0.950 . S
H2565 C2541 0.949 . S
H2566 C2543 0.950 . S
H2567 C2545 0.950 . S
C2568 C2569 1.349 . S
C2568 C2570 1.327 . S
C2568 H2593 0.950 . S
C2569 C2568 1.349 . S
C2569 C2585 1.349 . S
C2570 C2568 1.327 . S
C2570 C2589 1.429 . S
C2570 H2594 0.950 . S
C2571 C2588 1.574 . S
C2571 C2590 1.368 . S
C2571 H2595 0.949 . S
H2572 C2576 0.949 . S
C2573 C2574 1.349 . S
C2573 C2575 1.327 . S
C2573 H2596 0.950 . S
C2574 C2573 1.349 . S
C2574 C2586 1.349 . S
C2575 C2573 1.327 . S
C2575 C2591 1.429 . S
C2575 H2597 0.950 . S
C2576 H2572 0.949 . S
C2576 C2584 1.574 . S
C2576 C2592 1.368 . S
H2577 C2585 0.950 . S
H2578 C2583 0.950 . S
H2579 C2584 0.949 . S
H2580 C2586 0.950 . S
H2581 C2587 0.950 . S
H2582 C2588 0.949 . S
C2583 H2578 0.950 . S
C2583 C2585 1.327 . S
C2583 C2589 1.429 . S
C2584 C2576 1.574 . S
C2584 H2579 0.949 . S
C2584 C2590 1.368 . S
C2585 C2569 1.349 . S
C2585 H2577 0.950 . S
C2585 C2583 1.327 . S
C2586 C2574 1.349 . S
C2586 H2580 0.950 . S
C2586 C2587 1.327 . S
C2587 H2581 0.950 . S
C2587 C2586 1.327 . S
C2587 C2591 1.429 . S
C2588 C2571 1.574 . S
C2588 H2582 0.949 . S
C2588 C2592 1.368 . S
C2589 C2570 1.429 . S
C2589 C2583 1.429 . S
C2589 C2590 1.523 . S
C2590 C2571 1.368 . S
C2590 C2584 1.368 . S
C2590 C2589 1.523 . S
C2591 C2575 1.429 . S
C2591 C2587 1.429 . S
C2591 C2592 1.523 . S
C2592 C2576 1.368 . S
C2592 C2588 1.368 . S
C2592 C2591 1.523 . S
H2593 C2568 0.950 . S
H2594 C2570 0.950 . S
H2595 C2571 0.949 . S
H2596 C2573 0.950 . S
H2597 C2575 0.950 . S
C2598 C2599 1.349 . S
C2598 C2600 1.327 . S
C2598 H2623 0.950 . S
C2599 C2598 1.349 . S
C2599 C2615 1.349 . S
C2600 C2598 1.327 . S
C2600 C2619 1.429 . S
C2600 H2624 0.950 . S
C2601 C2618 1.574 . S
C2601 C2620 1.368 . S
C2601 H2625 0.949 . S
H2602 C2606 0.949 . S
C2603 C2604 1.349 . S
C2603 C2605 1.327 . S
C2603 H2626 0.950 . S
C2604 C2603 1.349 . S
C2604 C2616 1.349 . S
C2605 C2603 1.327 . S
C2605 C2621 1.429 . S
C2605 H2627 0.950 . S
C2606 H2602 0.949 . S
C2606 C2614 1.574 . S
C2606 C2622 1.368 . S
H2607 C2615 0.950 . S
H2608 C2613 0.950 . S
H2609 C2614 0.949 . S
H2610 C2616 0.950 . S
H2611 C2617 0.950 . S
H2612 C2618 0.949 . S
C2613 H2608 0.950 . S
C2613 C2615 1.327 . S
C2613 C2619 1.429 . S
C2614 C2606 1.574 . S
C2614 H2609 0.949 . S
C2614 C2620 1.368 . S
C2615 C2599 1.349 . S
C2615 H2607 0.950 . S
C2615 C2613 1.327 . S
C2616 C2604 1.349 . S
C2616 H2610 0.950 . S
C2616 C2617 1.327 . S
C2617 H2611 0.950 . S
C2617 C2616 1.327 . S
C2617 C2621 1.429 . S
C2618 C2601 1.574 . S
C2618 H2612 0.949 . S
C2618 C2622 1.368 . S
C2619 C2600 1.429 . S
C2619 C2613 1.429 . S
C2619 C2620 1.523 . S
C2620 C2601 1.368 . S
C2620 C2614 1.368 . S
C2620 C2619 1.523 . S
C2621 C2605 1.429 . S
C2621 C2617 1.429 . S
C2621 C2622 1.523 . S
C2622 C2606 1.368 . S
C2622 C2618 1.368 . S
C2622 C2621 1.523 . S
H2623 C2598 0.950 . S
H2624 C2600 0.950 . S
H2625 C2601 0.949 . S
H2626 C2603 0.950 . S
H2627 C2605 0.950 . S
C2628 C2629 1.349 . S
C2628 C2630 1.327 . S
C2628 H2653 0.950 . S
C2629 C2628 1.349 . S
C2629 C2645 1.349 . S
C2630 C2628 1.327 . S
C2630 C2649 1.429 . S
C2630 H2654 0.950 . S
C2631 C2648 1.574 . S
C2631 C2650 1.368 . S
C2631 H2655 0.949 . S
H2632 C2636 0.949 . S
C2633 C2634 1.349 . S
C2633 C2635 1.327 . S
C2633 H2656 0.950 . S
C2634 C2633 1.349 . S
C2634 C2646 1.349 . S
C2635 C2633 1.327 . S
C2635 C2651 1.429 . S
C2635 H2657 0.950 . S
C2636 H2632 0.949 . S
C2636 C2644 1.574 . S
C2636 C2652 1.368 . S
H2637 C2645 0.950 . S
H2638 C2643 0.950 . S
H2639 C2644 0.949 . S
H2640 C2646 0.950 . S
H2641 C2647 0.950 . S
H2642 C2648 0.949 . S
C2643 H2638 0.950 . S
C2643 C2645 1.327 . S
C2643 C2649 1.429 . S
C2644 C2636 1.574 . S
C2644 H2639 0.949 . S
C2644 C2650 1.368 . S
C2645 C2629 1.349 . S
C2645 H2637 0.950 . S
C2645 C2643 1.327 . S
C2646 C2634 1.349 . S
C2646 H2640 0.950 . S
C2646 C2647 1.327 . S
C2647 H2641 0.950 . S
C2647 C2646 1.327 . S
C2647 C2651 1.429 . S
C2648 C2631 1.574 . S
C2648 H2642 0.949 . S
C2648 C2652 1.368 . S
C2649 C2630 1.429 . S
C2649 C2643 1.429 . S
C2649 C2650 1.523 . S
C2650 C2631 1.368 . S
C2650 C2644 1.368 . S
C2650 C2649 1.523 . S
C2651 C2635 1.429 . S
C2651 C2647 1.429 . S
C2651 C2652 1.523 . S
C2652 C2636 1.368 . S
C2652 C2648 1.368 . S
C2652 C2651 1.523 . S
H2653 C2628 0.950 . S
H2654 C2630 0.950 . S
H2655 C2631 0.949 . S
H2656 C2633 0.950 . S
H2657 C2635 0.950 . S
C2658 C2659 1.349 . S
C2658 C2660 1.327 . S
C2658 H2683 0.950 . S
C2659 C2658 1.349 . S
C2659 C2675 1.349 . S
C2660 C2658 1.327 . S
C2660 C2679 1.429 . S
C2660 H2684 0.950 . S
C2661 C2678 1.574 . S
C2661 C2680 1.368 . S
C2661 H2685 0.949 . S
H2662 C2666 0.949 . S
C2663 C2664 1.349 . S
C2663 C2665 1.327 . S
C2663 H2686 0.950 . S
C2664 C2663 1.349 . S
C2664 C2676 1.349 . S
C2665 C2663 1.327 . S
C2665 C2681 1.429 . S
C2665 H2687 0.950 . S
C2666 H2662 0.949 . S
C2666 C2674 1.574 . S
C2666 C2682 1.368 . S
H2667 C2675 0.950 . S
H2668 C2673 0.950 . S
H2669 C2674 0.949 . S
H2670 C2676 0.950 . S
H2671 C2677 0.950 . S
H2672 C2678 0.949 . S
C2673 H2668 0.950 . S
C2673 C2675 1.327 . S
C2673 C2679 1.429 . S
C2674 C2666 1.574 . S
C2674 H2669 0.949 . S
C2674 C2680 1.368 . S
C2675 C2659 1.349 . S
C2675 H2667 0.950 . S
C2675 C2673 1.327 . S
C2676 C2664 1.349 . S
C2676 H2670 0.950 . S
C2676 C2677 1.327 . S
C2677 H2671 0.950 . S
C2677 C2676 1.327 . S
C2677 C2681 1.429 . S
C2678 C2661 1.574 . S
C2678 H2672 0.949 . S
C2678 C2682 1.368 . S
C2679 C2660 1.429 . S
C2679 C2673 1.429 . S
C2679 C2680 1.523 . S
C2680 C2661 1.368 . S
C2680 C2674 1.368 . S
C2680 C2679 1.523 . S
C2681 C2665 1.429 . S
C2681 C2677 1.429 . S
C2681 C2682 1.523 . S
C2682 C2666 1.368 . S
C2682 C2678 1.368 . S
C2682 C2681 1.523 . S
H2683 C2658 0.950 . S
H2684 C2660 0.950 . S
H2685 C2661 0.949 . S
H2686 C2663 0.950 . S
H2687 C2665 0.950 . S
C529 C21 1.491 . S
C534 C406 1.484 . S
C559 C436 1.484 . S
C564 C43 1.491 . S
C589 C370 1.484 . S
C594 C51 1.491 . S
C619 C87 1.491 . S
C624 C392 1.484 . S
C649 C502 1.484 . S
C654 C95 1.491 . S
C679 C472 1.484 . S
C684 C125 1.491 . S
C709 C516 1.484 . S
C714 C139 1.491 . S
C739 C448 1.484 . S
C744 C161 1.491 . S
C769 C183 1.491 . S
C774 C296 1.484 . S
C799 C205 1.491 . S
C804 C348 1.484 . S
C829 C235 1.491 . S
C834 C318 1.484 . S
C859 C282 1.484 . S
C864 C249 1.491 . S
C889 C142 1.485 . S
C894 C279 1.491 . S
C919 C307 1.491 . S
C924 C164 1.485 . S
C949 C98 1.485 . S
C954 C329 1.491 . S
C979 C118 1.485 . S
C984 C345 1.491 . S
C1009 C367 1.491 . S
C1014 C228 1.485 . S
C1039 C208 1.485 . S
C1044 C389 1.491 . S
C1069 C252 1.485 . S
C1074 C417 1.491 . S
C1099 C433 1.491 . S
C1104 C186 1.485 . S
C1129 C447 1.491 . S
C1134 C40 1.485 . S
C1159 C483 1.491 . S
C1164 C84 1.485 . S
C1189 C499 1.491 . S
C1194 C54 1.485 . S
C1219 C18 1.485 . S
C1224 C527 1.491 . S
C1249 C428 1.058 . S
C1254 C10 1.056 . S
C1279 C404 1.058 . S
C1284 C32 1.056 . S
C1309 C384 1.058 . S
C1314 C52 1.056 . S
C1339 C362 1.058 . S
C1344 C76 1.056 . S
C1369 C96 1.056 . S
C1374 C514 1.058 . S
C1399 C128 1.056 . S
C1404 C458 1.058 . S
C1429 C494 1.058 . S
C1434 C140 1.056 . S
C1459 C470 1.058 . S
C1464 C162 1.056 . S
C1489 C316 1.058 . S
C1494 C184 1.056 . S
C1519 C206 1.056 . S
C1524 C274 1.058 . S
C1549 C294 1.058 . S
C1554 C238 1.056 . S
C1579 C340 1.058 . S
C1584 C250 1.056 . S
C1609 C272 1.058 . S
C1614 C172 1.062 . S
C1639 C150 1.062 . S
C1644 C304 1.058 . S
C1669 C326 1.058 . S
C1674 C120 1.062 . S
C1699 C338 1.058 . S
C1704 C106 1.062 . S
C1729 C260 1.062 . S
C1734 C360 1.058 . S
C1759 C194 1.062 . S
C1764 C382 1.058 . S
C1789 C414 1.058 . S
C1794 C230 1.062 . S
C1819 C426 1.058 . S
C1824 C216 1.062 . S
C1849 C62 1.062 . S
C1854 C450 1.058 . S
C1879 C8 1.062 . S
C1884 C480 1.058 . S
C1909 C492 1.058 . S
C1914 C30 1.062 . S
C1939 C524 1.058 . S
C1944 C74 1.062 . S
C1969 C7 0.762 . S
C1974 C109 0.762 . S
C1999 C117 0.762 . S
C2004 C29 0.762 . S
C2029 C153 0.762 . S
C2034 C59 0.762 . S
C2059 C175 0.762 . S
C2064 C73 0.762 . S
C2089 C197 0.762 . S
C2094 C103 0.762 . S
C2119 C131 0.762 . S
C2124 C263 0.762 . S
C2149 C147 0.762 . S
C2154 C219 0.762 . S
C2179 C227 0.762 . S
C2184 C169 0.762 . S
C2209 C191 0.762 . S
C2214 C15 0.762 . S
C2239 C213 0.762 . S
C2244 C65 0.762 . S
C2269 C81 0.762 . S
C2274 C241 0.762 . S
C2299 C37 0.762 . S
C2304 C257 0.762 . S
C2329 C271 0.764 . S
C2334 C373 0.764 . S
C2359 C395 0.764 . S
C2364 C301 0.764 . S
C2389 C403 0.764 . S
C2394 C323 0.764 . S
C2419 C439 0.764 . S
C2424 C337 0.764 . S
C2449 C359 0.764 . S
C2454 C455 0.764 . S
C2479 C513 0.764 . S
C2484 C381 0.764 . S
C2509 C411 0.764 . S
C2514 C469 0.764 . S
C2539 C425 0.764 . S
C2544 C505 0.764 . S
C2569 C285 0.764 . S
C2574 C461 0.764 . S
C2599 C315 0.764 . S
C2604 C477 0.764 . S
C2629 C351 0.764 . S
C2634 C491 0.764 . S
C2659 C293 0.764 . S
C2664 C521 0.764 . S
