# Generated by pormake.
# Topology yfz, (5)-cn, num edge types: 1
# Building blocks:
#     Node 0, Type 0, BuildingBlock: BEQFEK_clean_sbu_0, # of connection points: 5
#     Node 1, Type 0, BuildingBlock: BEQFEK_clean_sbu_0, # of connection points: 5
#     Node 2, Type 0, BuildingBlock: BEQFEK_clean_sbu_0, # of connection points: 5
#     Node 3, Type 0, BuildingBlock: BEQFEK_clean_sbu_0, # of connection points: 5
#     Node 4, Type 0, BuildingBlock: BEQFEK_clean_sbu_0, # of connection points: 5
#     Node 5, Type 0, BuildingBlock: BEQFEK_clean_sbu_0, # of connection points: 5
#     Node 6, Type 0, BuildingBlock: BEQFEK_clean_sbu_0, # of connection points: 5
#     Node 7, Type 0, BuildingBlock: BEQFEK_clean_sbu_0, # of connection points: 5
#     Edge 8, Type (0, 0), BuildingBlock: EZIPEK_clean_linker_0, # of connection points: 2
#     Edge 9, Type (0, 0), BuildingBlock: EZIPEK_clean_linker_0, # of connection points: 2
#     Edge 10, Type (0, 0), BuildingBlock: EZIPEK_clean_linker_0, # of connection points: 2
#     Edge 11, Type (0, 0), BuildingBlock: EZIPEK_clean_linker_0, # of connection points: 2
#     Edge 12, Type (0, 0), BuildingBlock: EZIPEK_clean_linker_0, # of connection points: 2
#     Edge 13, Type (0, 0), BuildingBlock: EZIPEK_clean_linker_0, # of connection points: 2
#     Edge 14, Type (0, 0), BuildingBlock: EZIPEK_clean_linker_0, # of connection points: 2
#     Edge 15, Type (0, 0), BuildingBlock: EZIPEK_clean_linker_0, # of connection points: 2
#     Edge 16, Type (0, 0), BuildingBlock: EZIPEK_clean_linker_0, # of connection points: 2
#     Edge 17, Type (0, 0), BuildingBlock: EZIPEK_clean_linker_0, # of connection points: 2
#     Edge 18, Type (0, 0), BuildingBlock: EZIPEK_clean_linker_0, # of connection points: 2
#     Edge 19, Type (0, 0), BuildingBlock: EZIPEK_clean_linker_0, # of connection points: 2
#     Edge 20, Type (0, 0), BuildingBlock: EZIPEK_clean_linker_0, # of connection points: 2
#     Edge 21, Type (0, 0), BuildingBlock: EZIPEK_clean_linker_0, # of connection points: 2
#     Edge 22, Type (0, 0), BuildingBlock: EZIPEK_clean_linker_0, # of connection points: 2
#     Edge 23, Type (0, 0), BuildingBlock: EZIPEK_clean_linker_0, # of connection points: 2
#     Edge 24, Type (0, 0), BuildingBlock: EZIPEK_clean_linker_0, # of connection points: 2
#     Edge 25, Type (0, 0), BuildingBlock: EZIPEK_clean_linker_0, # of connection points: 2
#     Edge 26, Type (0, 0), BuildingBlock: EZIPEK_clean_linker_0, # of connection points: 2
#     Edge 27, Type (0, 0), BuildingBlock: EZIPEK_clean_linker_0, # of connection points: 2
# Relax obj value: 0.214
# Max RMSD: 0.182
# Mean RMSD: 0.182
data_MOF--net-yfz--node1-BEQFEK_clean_sbu_0--edge1-EZIPEK_clean_linker_0
_symmetry_space_group_name_H-M    P1
_symmetry_Int_Tables_number       1
_symmetry_cell_setting            triclinic
loop_
_symmetry_equiv_pos_as_xyz
'x, y, z'
_cell_length_a     38.250421
_cell_length_b     38.246398
_cell_length_c     14.89987
_cell_angle_alpha  89.975329
_cell_angle_beta   90.043216
_cell_angle_gamma 89.990743
loop_
_atom_site_label
_atom_site_type_symbol
_atom_site_fract_x
_atom_site_fract_y
_atom_site_fract_z
_atom_type_partial_charge
Co0 Co 0.60591 0.10225 0.23462 0.0
Co1 Co 0.619 0.12586 0.43396 0.0
C2 C 0.67736 0.10227 0.31473 0.0
O3 O 0.6562 0.09723 0.25078 0.0
O4 O 0.66693 0.11227 0.39171 0.0
C5 C 0.61914 0.06935 0.06821 0.0
O6 O 0.64326 0.05248 0.11361 0.0
C7 C 0.63672 0.10951 0.62017 0.0
C8 C 0.60223 0.14553 0.69484 0.0
C9 C 0.62442 0.11717 0.70553 0.0
N10 N 0.62111 0.13125 0.56138 0.0
N11 N 0.60124 0.15329 0.60672 0.0
C12 C 0.66158 0.08114 0.59375 0.0
H13 H 0.68495 0.09304 0.562 0.0
H14 H 0.64901 0.06402 0.54296 0.0
H15 H 0.66995 0.06542 0.65263 0.0
C16 C 0.55599 0.05383 0.32555 0.0
N17 N 0.5804 0.07928 0.32551 0.0
N18 N 0.58368 0.0918 0.40741 0.0
C19 C 0.55993 0.07611 0.46071 0.0
C20 C 0.54248 0.05091 0.41179 0.0
C21 C 0.54546 0.03351 0.24433 0.0
H22 H 0.53162 0.05116 0.19704 0.0
H23 H 0.56917 0.02366 0.20965 0.0
H24 H 0.52805 0.01136 0.26226 0.0
O25 O 0.59631 0.15299 0.23602 0.0
O26 O 0.60759 0.17112 0.3752 0.0
H27 H 0.5456 0.1165 0.55248 0.0
H28 H 0.527 0.07445 0.57951 0.0
C29 C 0.5505 0.08794 0.55318 0.0
H30 H 0.57225 0.08257 0.59894 0.0
H31 H 0.58542 0.1723 0.57702 0.0
O32 O 0.59659 0.0876 0.10981 0.0
C33 C 0.59884 0.17725 0.29408 0.0
Co34 Co 0.40241 0.60382 0.72735 0.0
Co35 Co 0.37456 0.61866 0.92304 0.0
C36 C 0.40169 0.67571 0.80268 0.0
O37 O 0.40829 0.65405 0.74087 0.0
O38 O 0.38943 0.66594 0.87814 0.0
C39 C 0.43459 0.6153 0.55809 0.0
O40 O 0.45019 0.64107 0.60031 0.0
C41 C 0.39441 0.63245 0.10863 0.0
C42 C 0.35243 0.60638 0.18505 0.0
C43 C 0.38489 0.62212 0.1946 0.0
N44 N 0.36954 0.62174 0.05076 0.0
N45 N 0.34417 0.60682 0.09713 0.0
C46 C 0.42698 0.65115 0.08067 0.0
H47 H 0.44182 0.63456 0.0329 0.0
H48 H 0.44364 0.65772 0.13933 0.0
H49 H 0.41978 0.67552 0.04474 0.0
C50 C 0.44868 0.55457 0.8322 0.0
N51 N 0.4232 0.5788 0.82344 0.0
N52 N 0.407 0.58194 0.9009 0.0
C53 C 0.41928 0.55767 0.95815 0.0
C54 C 0.44697 0.54067 0.91843 0.0
C55 C 0.47344 0.54428 0.75945 0.0
H56 H 0.47344 0.56405 0.70491 0.0
H57 H 0.50019 0.54114 0.78729 0.0
H58 H 0.46523 0.51865 0.73158 0.0
O59 O 0.35094 0.59559 0.72577 0.0
O60 O 0.33007 0.60781 0.86207 0.0
H61 H 0.40656 0.51775 0.05564 0.0
H62 H 0.40823 0.56111 0.09882 0.0
C63 C 0.40041 0.54548 0.04041 0.0
H64 H 0.37181 0.54814 0.03056 0.0
H65 H 0.32216 0.59523 0.06834 0.0
O66 O 0.41773 0.59255 0.60302 0.0
C67 C 0.32551 0.59898 0.78037 0.0
Co68 Co 0.89446 0.39981 0.24179 0.0
Co69 Co 0.87988 0.37546 0.43982 0.0
C70 C 0.82334 0.40329 0.31604 0.0
O71 O 0.84518 0.4104 0.25506 0.0
O72 O 0.8328 0.38944 0.39004 0.0
C73 C 0.88633 0.43433 0.07417 0.0
O74 O 0.86397 0.45363 0.11897 0.0
C75 C 0.86621 0.39831 0.62354 0.0
C76 C 0.89027 0.35598 0.70331 0.0
C77 C 0.87569 0.38904 0.71036 0.0
N78 N 0.87628 0.37256 0.56759 0.0
N79 N 0.89002 0.34705 0.61592 0.0
C80 C 0.84893 0.43132 0.59303 0.0
H81 H 0.86676 0.44557 0.54702 0.0
H82 H 0.8419 0.44829 0.65068 0.0
H83 H 0.82503 0.42475 0.55435 0.0
C84 C 0.94606 0.44568 0.33949 0.0
N85 N 0.92101 0.42087 0.33446 0.0
N86 N 0.91728 0.40657 0.41419 0.0
C87 C 0.94191 0.41931 0.46963 0.0
C88 C 0.95987 0.44542 0.42591 0.0
C89 C 0.95687 0.46861 0.26328 0.0
H90 H 0.93495 0.47185 0.21514 0.0
H91 H 0.96569 0.49447 0.28842 0.0
H92 H 0.97907 0.45612 0.22769 0.0
O93 O 0.89865 0.34737 0.24595 0.0
O94 O 0.89091 0.3299 0.38738 0.0
H95 H 0.94961 0.37374 0.55108 0.0
H96 H 0.9807 0.40838 0.57141 0.0
C97 C 0.95295 0.40247 0.55575 0.0
H98 H 0.93696 0.4123 0.61142 0.0
H99 H 0.90084 0.32434 0.58883 0.0
O100 O 0.9061 0.4132 0.11644 0.0
C101 C 0.89684 0.32323 0.30503 0.0
Co102 Co 0.10031 0.89372 0.73367 0.0
Co103 Co 0.12545 0.8807 0.93182 0.0
C104 C 0.10068 0.82233 0.81307 0.0
O105 O 0.09511 0.84336 0.74904 0.0
O106 O 0.11105 0.83304 0.88955 0.0
C107 C 0.0679 0.88111 0.56617 0.0
O108 O 0.05261 0.85553 0.60977 0.0
C109 C 0.10754 0.86493 0.11767 0.0
C110 C 0.14698 0.89526 0.19287 0.0
C111 C 0.11652 0.87601 0.20331 0.0
N112 N 0.1307 0.87843 0.05912 0.0
N113 N 0.15462 0.89591 0.10469 0.0
C114 C 0.07697 0.8429 0.09076 0.0
H115 H 0.08662 0.81869 0.05812 0.0
H116 H 0.061 0.85724 0.04054 0.0
H117 H 0.06064 0.83574 0.1495 0.0
C118 C 0.05274 0.94377 0.82875 0.0
N119 N 0.0782 0.91935 0.82608 0.0
N120 N 0.09233 0.91663 0.90632 0.0
C121 C 0.07823 0.94104 0.9604 0.0
C122 C 0.05191 0.95807 0.91452 0.0
C123 C 0.03052 0.95377 0.75038 0.0
H124 H 0.02493 0.9304 0.70862 0.0
H125 H 0.00576 0.9661 0.77292 0.0
H126 H 0.04507 0.97281 0.7084 0.0
O127 O 0.15148 0.90256 0.73372 0.0
O128 O 0.17042 0.89136 0.87241 0.0
H129 H 0.0832 0.97798 0.07024 0.0
H130 H 0.08714 0.93305 0.10035 0.0
C131 C 0.09346 0.95226 0.0483 0.0
H132 H 0.12231 0.9539 0.04236 0.0
H133 H 0.17512 0.90978 0.07523 0.0
O134 O 0.08498 0.9041 0.6096 0.0
C135 C 0.17609 0.89982 0.79096 0.0
Co136 Co 0.60743 0.39365 0.27063 0.0
Co137 Co 0.62351 0.3821 0.06812 0.0
C138 C 0.68008 0.4011 0.19353 0.0
O139 O 0.65782 0.40192 0.25634 0.0
O140 O 0.67112 0.3942 0.11313 0.0
C141 C 0.61777 0.42832 0.43295 0.0
O142 O 0.63676 0.44917 0.3828 0.0
C143 C 0.64306 0.39625 0.88058 0.0
C144 C 0.60101 0.36764 0.80989 0.0
C145 C 0.62838 0.39071 0.79676 0.0
N146 N 0.62396 0.37851 0.94119 0.0
N147 N 0.59949 0.36078 0.89823 0.0
C148 C 0.67349 0.41907 0.90376 0.0
H149 H 0.69404 0.40294 0.93624 0.0
H150 H 0.66517 0.43914 0.9531 0.0
H151 H 0.6845 0.4319 0.8432 0.0
C152 C 0.55311 0.44149 0.19347 0.0
N153 N 0.58054 0.41937 0.18694 0.0
N154 N 0.58902 0.41577 0.10187 0.0
C155 C 0.5678 0.43614 0.05219 0.0
C156 C 0.54434 0.45288 0.10767 0.0
C157 C 0.53549 0.45076 0.27967 0.0
H158 H 0.52977 0.42656 0.31805 0.0
H159 H 0.55355 0.46683 0.32087 0.0
H160 H 0.51099 0.46563 0.26755 0.0
O161 O 0.60051 0.34293 0.25857 0.0
O162 O 0.61041 0.33477 0.11343 0.0
H163 H 0.5593 0.41657 0.91992 0.0
H164 H 0.55496 0.46331 0.92881 0.0
C165 C 0.56987 0.44025 0.95292 0.0
H166 H 0.59749 0.44376 0.93508 0.0
H167 H 0.58057 0.34547 0.92986 0.0
O168 O 0.59858 0.40529 0.39633 0.0
C169 C 0.60327 0.3228 0.19107 0.0
Co170 Co 0.11011 0.60553 0.7669 0.0
Co171 Co 0.11953 0.62344 0.56407 0.0
C172 C 0.10294 0.67904 0.69155 0.0
O173 O 0.10297 0.65601 0.75258 0.0
O174 O 0.10845 0.67112 0.60985 0.0
C175 C 0.07469 0.61648 0.92711 0.0
O176 O 0.05412 0.63499 0.87492 0.0
C177 C 0.10318 0.64174 0.37624 0.0
C178 C 0.13391 0.60134 0.30522 0.0
C179 C 0.1094 0.62745 0.29231 0.0
N180 N 0.12217 0.62373 0.4367 0.0
N181 N 0.14102 0.60018 0.3935 0.0
C182 C 0.0788 0.67094 0.39953 0.0
H183 H 0.0616 0.66291 0.45583 0.0
H184 H 0.06281 0.67894 0.3408 0.0
H185 H 0.09435 0.69366 0.42296 0.0
C186 C 0.06176 0.55187 0.69149 0.0
N187 N 0.08354 0.57952 0.68447 0.0
N188 N 0.08605 0.58877 0.59967 0.0
C189 C 0.06517 0.56782 0.55076 0.0
C190 C 0.04937 0.54373 0.60635 0.0
C191 C 0.05372 0.53348 0.77751 0.0
H192 H 0.0783 0.52879 0.81525 0.0
H193 H 0.03691 0.55058 0.81941 0.0
H194 H 0.03998 0.50837 0.76513 0.0
O195 O 0.16027 0.5971 0.752 0.0
O196 O 0.16729 0.61066 0.60802 0.0
H197 H 0.08261 0.56324 0.41533 0.0
H198 H 0.03647 0.55554 0.42934 0.0
C199 C 0.05899 0.57143 0.45266 0.0
H200 H 0.05333 0.59917 0.43982 0.0
H201 H 0.15746 0.58216 0.42492 0.0
O202 O 0.09837 0.59745 0.89282 0.0
C203 C 0.17974 0.60129 0.68374 0.0
Co204 Co 0.89182 0.10575 0.26089 0.0
Co205 Co 0.87503 0.12347 0.05997 0.0
C206 C 0.8188 0.10256 0.18397 0.0
O207 O 0.84111 0.10084 0.24653 0.0
O208 O 0.82767 0.10973 0.10377 0.0
C209 C 0.87807 0.07313 0.42537 0.0
O210 O 0.85502 0.05579 0.37763 0.0
C211 C 0.8547 0.11051 0.8727 0.0
C212 C 0.89425 0.14196 0.80084 0.0
C213 C 0.86841 0.11709 0.78814 0.0
N214 N 0.87308 0.12925 0.93299 0.0
N215 N 0.89596 0.14872 0.8893 0.0
C216 C 0.82594 0.08576 0.89687 0.0
H217 H 0.80466 0.10048 0.93053 0.0
H218 H 0.83591 0.06613 0.94543 0.0
H219 H 0.81526 0.07244 0.8366 0.0
C220 C 0.94304 0.05757 0.17602 0.0
N221 N 0.91694 0.08127 0.17244 0.0
N222 N 0.91069 0.08952 0.08809 0.0
C223 C 0.93319 0.07157 0.03575 0.0
C224 C 0.95391 0.05047 0.08901 0.0
C225 C 0.95774 0.04305 0.26116 0.0
H226 H 0.96663 0.06488 0.30458 0.0
H227 H 0.93681 0.02895 0.29791 0.0
H228 H 0.97987 0.025 0.24782 0.0
O229 O 0.90182 0.15605 0.25452 0.0
O230 O 0.88596 0.16982 0.11508 0.0
H231 H 0.94743 0.10226 0.92201 0.0
H232 H 0.95428 0.05596 0.9065 0.0
C233 C 0.93684 0.0759 0.93673 0.0
H234 H 0.91101 0.07341 0.90609 0.0
H235 H 0.91418 0.16502 0.9204 0.0
O236 O 0.90096 0.09169 0.38592 0.0
C237 C 0.89677 0.17851 0.19291 0.0
Co238 Co 0.3934 0.88875 0.74837 0.0
Co239 Co 0.3758 0.8742 0.54689 0.0
C240 C 0.39724 0.81664 0.66868 0.0
O241 O 0.39899 0.83817 0.73297 0.0
O242 O 0.39004 0.82664 0.58933 0.0
C243 C 0.4269 0.87561 0.91238 0.0
O244 O 0.44454 0.85289 0.86443 0.0
C245 C 0.39117 0.85511 0.36073 0.0
C246 C 0.35733 0.89206 0.28672 0.0
C247 C 0.38394 0.86787 0.27562 0.0
N248 N 0.37096 0.8724 0.41987 0.0
N249 N 0.3502 0.89378 0.37498 0.0
C250 C 0.41775 0.82823 0.38644 0.0
H251 H 0.4043 0.80574 0.41836 0.0
H252 H 0.43595 0.83947 0.43683 0.0
H253 H 0.43258 0.81882 0.32717 0.0
C254 C 0.44223 0.9403 0.6656 0.0
N255 N 0.41811 0.91462 0.66101 0.0
N256 N 0.40917 0.90975 0.57658 0.0
C257 C 0.4265 0.93309 0.5254 0.0
C258 C 0.44848 0.95257 0.57929 0.0
C259 C 0.45807 0.95325 0.75102 0.0
H260 H 0.47114 0.93119 0.78594 0.0
H261 H 0.47723 0.97448 0.73833 0.0
H262 H 0.43702 0.96295 0.79579 0.0
O263 O 0.34277 0.89846 0.74196 0.0
O264 O 0.32944 0.88568 0.60024 0.0
H265 H 0.39258 0.94775 0.41809 0.0
H266 H 0.43775 0.95924 0.39906 0.0
C267 C 0.42003 0.93924 0.42786 0.0
H268 H 0.42408 0.91475 0.39158 0.0
H269 H 0.33248 0.91089 0.40504 0.0
O270 O 0.40731 0.89775 0.87333 0.0
C271 C 0.32051 0.89512 0.67907 0.0
C272 C 0.50872 0.96997 0.53155 0.0
C273 C 0.4734 0.97958 0.54687 0.0
C274 C 0.48271 0.0354 0.46863 0.0
C275 C 0.51753 0.02498 0.44939 0.0
N276 N 0.56347 0.9819 0.45474 0.0
N277 N 0.42582 0.02026 0.53025 0.0
C278 C 0.53048 0.99211 0.4788 0.0
C279 C 0.46021 0.01215 0.51595 0.0
N280 N 0.52146 0.93976 0.5684 0.0
N281 N 0.4716 0.06792 0.44306 0.0
H282 H 0.4094 0.00488 0.56982 0.0
H283 H 0.41304 0.04143 0.50123 0.0
H284 H 0.48677 0.08468 0.40386 0.0
H285 H 0.44805 0.07908 0.46286 0.0
H286 H 0.54769 0.93265 0.5681 0.0
H287 H 0.50608 0.92251 0.60543 0.0
H288 H 0.57353 0.95699 0.46548 0.0
H289 H 0.58047 0.99772 0.41817 0.0
C290 C 0.51963 0.5122 0.07666 0.0
C291 C 0.51523 0.47545 0.07557 0.0
C292 C 0.46539 0.48125 0.97219 0.0
C293 C 0.47198 0.51766 0.96665 0.0
N294 N 0.50568 0.56832 0.00902 0.0
N295 N 0.48426 0.42424 0.02567 0.0
C296 C 0.49907 0.53333 0.01819 0.0
C297 C 0.48788 0.45982 0.02493 0.0
N298 N 0.54355 0.52676 0.13374 0.0
N299 N 0.43715 0.46745 0.92835 0.0
H300 H 0.49853 0.40818 0.06891 0.0
H301 H 0.46805 0.4104 0.98233 0.0
H302 H 0.42116 0.48221 0.88605 0.0
H303 H 0.42837 0.44192 0.93666 0.0
H304 H 0.54603 0.55348 0.14494 0.0
H305 H 0.55941 0.51185 0.17588 0.0
H306 H 0.52698 0.58104 0.03757 0.0
H307 H 0.49105 0.58468 0.96747 0.0
C308 C 0.01984 0.46433 0.47402 0.0
C309 C 0.9834 0.47084 0.47073 0.0
C310 C 0.98989 0.51898 0.57867 0.0
C311 C 0.02662 0.51471 0.57503 0.0
N312 N 0.07739 0.48417 0.52043 0.0
N313 N 0.9333 0.50527 0.5137 0.0
C314 C 0.0418 0.48736 0.52356 0.0
C315 C 0.96827 0.49832 0.52184 0.0
N316 N 0.0332 0.4356 0.43151 0.0
N317 N 0.97581 0.54284 0.63663 0.0
H318 H 0.91662 0.49073 0.47281 0.0
H319 H 0.92103 0.5269 0.54191 0.0
H320 H 0.99106 0.5588 0.67765 0.0
H321 H 0.94919 0.54502 0.6498 0.0
H322 H 0.05881 0.42692 0.43909 0.0
H323 H 0.018 0.4191 0.39166 0.0
H324 H 0.0906 0.468 0.47574 0.0
H325 H 0.09403 0.49885 0.56122 0.0
C326 C 0.01228 0.04023 0.01724 0.0
C327 C 0.98133 0.02615 0.0556 0.0
C328 C 0.99512 0.96835 0.9934 0.0
C329 C 0.02617 0.98237 0.9555 0.0
N330 N 0.0663 0.03013 0.935 0.0
N331 N 0.9449 0.97668 0.091 0.0
C332 C 0.03526 0.01798 0.9683 0.0
C333 C 0.97332 0.99009 0.0471 0.0
N334 N 0.01909 0.07518 0.0263 0.0
N335 N 0.9862 0.93434 0.97619 0.0
H336 H 0.92776 0.99199 0.12847 0.0
H337 H 0.93929 0.95016 0.09585 0.0
H338 H 0.00184 0.91739 0.93897 0.0
H339 H 0.96238 0.92314 0.99356 0.0
H340 H 0.03874 0.08841 0.99214 0.0
H341 H 0.00416 0.09154 0.06716 0.0
H342 H 0.07666 0.05465 0.94904 0.0
H343 H 0.08274 0.01493 0.89502 0.0
C344 C 0.57023 0.23627 0.28456 0.0
C345 C 0.59823 0.21378 0.26153 0.0
C346 C 0.62754 0.26142 0.18026 0.0
C347 C 0.59998 0.28443 0.20594 0.0
N348 N 0.54139 0.29215 0.2619 0.0
N349 N 0.65477 0.20432 0.19396 0.0
C350 C 0.57029 0.27138 0.25264 0.0
C351 C 0.6269 0.22603 0.20963 0.0
N352 N 0.54404 0.2242 0.33877 0.0
N353 N 0.65438 0.27319 0.12761 0.0
H354 H 0.65525 0.17803 0.21219 0.0
H355 H 0.67865 0.2124 0.16794 0.0
H356 H 0.65839 0.29923 0.11117 0.0
H357 H 0.67218 0.25697 0.09528 0.0
H358 H 0.52498 0.24011 0.36727 0.0
H359 H 0.54245 0.19823 0.35987 0.0
H360 H 0.51765 0.28354 0.28776 0.0
H361 H 0.53995 0.31739 0.2356 0.0
C362 C 0.2401 0.62718 0.6749 0.0
C363 C 0.21812 0.59836 0.69606 0.0
C364 C 0.26734 0.56877 0.76988 0.0
C365 C 0.28945 0.59686 0.74502 0.0
N366 N 0.29901 0.64855 0.6546 0.0
N367 N 0.21249 0.53846 0.74441 0.0
C368 C 0.27657 0.6245 0.69063 0.0
C369 C 0.23227 0.56811 0.73788 0.0
N370 N 0.22611 0.65819 0.6464 0.0
N371 N 0.27974 0.54293 0.82474 0.0
H372 H 0.1871 0.53685 0.71906 0.0
H373 H 0.22226 0.51458 0.76673 0.0
H374 H 0.30577 0.54166 0.84547 0.0
H375 H 0.26385 0.52394 0.85377 0.0
H376 H 0.24057 0.68119 0.64131 0.0
H377 H 0.19951 0.66225 0.63605 0.0
H378 H 0.29143 0.66669 0.60616 0.0
H379 H 0.32581 0.64866 0.66683 0.0
C380 C 0.92481 0.23799 0.19254 0.0
C381 C 0.89692 0.21582 0.21854 0.0
C382 C 0.8677 0.26484 0.29312 0.0
C383 C 0.89728 0.28623 0.2754 0.0
N384 N 0.95599 0.29236 0.21859 0.0
N385 N 0.84366 0.20652 0.30257 0.0
C386 C 0.92635 0.27267 0.22733 0.0
C387 C 0.86898 0.22876 0.27171 0.0
N388 N 0.94969 0.2259 0.13453 0.0
N389 N 0.83757 0.27927 0.32598 0.0
H390 H 0.84213 0.18026 0.28437 0.0
H391 H 0.82542 0.21348 0.35126 0.0
H392 H 0.835 0.30561 0.34236 0.0
H393 H 0.8139 0.26588 0.32925 0.0
H394 H 0.96865 0.24178 0.10538 0.0
H395 H 0.94985 0.20029 0.11037 0.0
H396 H 0.97931 0.2828 0.19231 0.0
H397 H 0.95826 0.31756 0.24466 0.0
C398 C 0.26144 0.86757 0.69337 0.0
C399 C 0.28291 0.89766 0.70198 0.0
C400 C 0.23444 0.92933 0.77326 0.0
C401 C 0.21246 0.9001 0.75783 0.0
N402 N 0.20297 0.84376 0.68833 0.0
N403 N 0.28887 0.95887 0.7371 0.0
C404 C 0.22528 0.87008 0.71265 0.0
C405 C 0.26914 0.92908 0.73844 0.0
N406 N 0.27599 0.83588 0.673 0.0
N407 N 0.22225 0.95704 0.82192 0.0
H408 H 0.31417 0.9596 0.71098 0.0
H409 H 0.27929 0.9834 0.75469 0.0
H410 H 0.19658 0.95851 0.84528 0.0
H411 H 0.23804 0.97749 0.84395 0.0
H412 H 0.26232 0.81236 0.67608 0.0
H413 H 0.30263 0.83243 0.66216 0.0
H414 H 0.21019 0.82336 0.64588 0.0
H415 H 0.17646 0.84355 0.70439 0.0
C416 C 0.43194 0.76612 0.72921 0.0
C417 C 0.40034 0.77902 0.69138 0.0
C418 C 0.36918 0.72709 0.74454 0.0
C419 C 0.40112 0.71299 0.77669 0.0
N420 N 0.46369 0.71646 0.79058 0.0
N421 N 0.34093 0.76798 0.64429 0.0
C422 C 0.43281 0.73176 0.76628 0.0
C423 C 0.3696 0.7583 0.69313 0.0
N424 N 0.46101 0.7869 0.7301 0.0
N425 N 0.33823 0.71091 0.76422 0.0
H426 H 0.34029 0.79017 0.60394 0.0
H427 H 0.31908 0.75207 0.63575 0.0
H428 H 0.33664 0.68779 0.80105 0.0
H429 H 0.31387 0.72199 0.75122 0.0
H430 H 0.48361 0.78095 0.76594 0.0
H431 H 0.46196 0.81104 0.69751 0.0
H432 H 0.48811 0.72696 0.77565 0.0
H433 H 0.46487 0.69212 0.82217 0.0
C434 C 0.76393 0.43122 0.30747 0.0
C435 C 0.78621 0.40259 0.28884 0.0
C436 C 0.73891 0.37294 0.20813 0.0
C437 C 0.71748 0.40294 0.2192 0.0
N438 N 0.71068 0.46249 0.26887 0.0
N439 N 0.7972 0.34879 0.20826 0.0
C440 C 0.73029 0.43263 0.26627 0.0
C441 C 0.77438 0.37428 0.23508 0.0
N442 N 0.77489 0.4568 0.36497 0.0
N443 N 0.72493 0.34234 0.17707 0.0
H444 H 0.82326 0.34783 0.22856 0.0
H445 H 0.79107 0.33011 0.15987 0.0
H446 H 0.69891 0.33975 0.15801 0.0
H447 H 0.73824 0.31858 0.1783 0.0
H448 H 0.75876 0.47671 0.38846 0.0
H449 H 0.7996 0.45656 0.39471 0.0
H450 H 0.71962 0.48607 0.29508 0.0
H451 H 0.68635 0.46452 0.23755 0.0
C452 C 0.06957 0.7696 0.75323 0.0
C453 C 0.10016 0.7845 0.79156 0.0
C454 C 0.13188 0.72966 0.76652 0.0
C455 C 0.10231 0.71599 0.72065 0.0
N456 N 0.04427 0.72354 0.66139 0.0
N457 N 0.16249 0.78096 0.81895 0.0
C458 C 0.0715 0.7362 0.71113 0.0
C459 C 0.13182 0.76508 0.79478 0.0
N460 N 0.03848 0.78706 0.75974 0.0
N461 N 0.16017 0.70876 0.78354 0.0
H462 H 0.16424 0.80683 0.84007 0.0
H463 H 0.18692 0.76939 0.81064 0.0
H464 H 0.16264 0.68337 0.759 0.0
H465 H 0.18023 0.71576 0.82731 0.0
H466 H 0.01455 0.77646 0.74062 0.0
H467 H 0.03617 0.81117 0.79196 0.0
H468 H 0.02245 0.73833 0.64399 0.0
H469 H 0.04464 0.69884 0.6317 0.0
C470 C 0.7659 0.06929 0.23506 0.0
C471 C 0.78158 0.10149 0.21034 0.0
C472 C 0.73229 0.13363 0.27532 0.0
C473 C 0.71502 0.10146 0.29234 0.0
N474 N 0.71334 0.03865 0.28184 0.0
N475 N 0.77772 0.16412 0.19356 0.0
C476 C 0.73128 0.06923 0.27028 0.0
C477 C 0.76413 0.1336 0.22642 0.0
N478 N 0.78435 0.03889 0.22605 0.0
N479 N 0.71851 0.16425 0.30683 0.0
H480 H 0.80118 0.16536 0.15817 0.0
H481 H 0.76435 0.18784 0.1943 0.0
H482 H 0.69502 0.16563 0.34194 0.0
H483 H 0.73177 0.18801 0.30526 0.0
H484 H 0.77615 0.01503 0.25227 0.0
H485 H 0.80898 0.03788 0.19605 0.0
H486 H 0.72189 0.01464 0.25742 0.0
H487 H 0.68885 0.03759 0.31259 0.0
C488 C 0.64947 0.11774 0.86024 0.0
C489 C 0.63104 0.09933 0.79261 0.0
C490 C 0.60783 0.05854 0.90504 0.0
C491 C 0.62551 0.07745 0.97272 0.0
N492 N 0.66899 0.12024 0.01499 0.0
N493 N 0.60212 0.04613 0.74659 0.0
C494 C 0.64838 0.10544 0.95024 0.0
C495 C 0.61322 0.06773 0.81364 0.0
N496 N 0.66716 0.14763 0.83841 0.0
N497 N 0.5851 0.03248 0.92836 0.0
H498 H 0.60755 0.05086 0.67949 0.0
H499 H 0.59141 0.02148 0.7576 0.0
H500 H 0.58161 0.02426 0.99455 0.0
H501 H 0.56809 0.02056 0.8832 0.0
H502 H 0.67721 0.16506 0.88542 0.0
H503 H 0.67077 0.15573 0.77216 0.0
H504 H 0.68879 0.13815 0.00165 0.0
H505 H 0.66812 0.11284 0.08221 0.0
C506 C 0.398 0.64365 0.43934 0.0
C507 C 0.42548 0.62017 0.46226 0.0
C508 C 0.43289 0.60469 0.30355 0.0
C509 C 0.40362 0.62614 0.28179 0.0
N510 N 0.36532 0.67334 0.32204 0.0
N511 N 0.46857 0.57755 0.41991 0.0
C512 C 0.38833 0.64785 0.34787 0.0
C513 C 0.44305 0.60072 0.39518 0.0
N514 N 0.37974 0.66037 0.50565 0.0
N515 N 0.45158 0.5891 0.23656 0.0
H516 H 0.47727 0.57502 0.486 0.0
H517 H 0.48004 0.55953 0.37679 0.0
H518 H 0.44623 0.59314 0.16913 0.0
H519 H 0.47452 0.575 0.24624 0.0
H520 H 0.35677 0.67432 0.49477 0.0
H521 H 0.38601 0.65841 0.57349 0.0
H522 H 0.35566 0.69253 0.36482 0.0
H523 H 0.35846 0.67747 0.25505 0.0
C524 C 0.90053 0.44421 0.91175 0.0
C525 C 0.87966 0.42772 0.97781 0.0
C526 C 0.84852 0.39462 0.86124 0.0
C527 C 0.87175 0.40836 0.79645 0.0
N528 N 0.91168 0.45413 0.7535 0.0
N529 N 0.83383 0.38723 0.01838 0.0
C530 C 0.89532 0.43565 0.81963 0.0
C531 C 0.85317 0.40338 0.95319 0.0
N532 N 0.92617 0.46699 0.93772 0.0
N533 N 0.82146 0.37385 0.83357 0.0
H534 H 0.83584 0.39343 0.0862 0.0
H535 H 0.81697 0.3664 0.00675 0.0
H536 H 0.81718 0.36792 0.76606 0.0
H537 H 0.8015 0.36504 0.87517 0.0
H538 H 0.94513 0.47699 0.89478 0.0
H539 H 0.92971 0.47465 0.00434 0.0
H540 H 0.92748 0.47583 0.76464 0.0
H541 H 0.90627 0.45027 0.68599 0.0
C542 C 0.06648 0.88685 0.31173 0.0
C543 C 0.09874 0.87006 0.29083 0.0
C544 C 0.10856 0.85755 0.44994 0.0
C545 C 0.07706 0.87546 0.47107 0.0
N546 N 0.02212 0.89978 0.42386 0.0
N547 N 0.14439 0.83046 0.33507 0.0
C548 C 0.0547 0.88771 0.40235 0.0
C549 C 0.11782 0.85254 0.35867 0.0
N550 N 0.04774 0.90316 0.24599 0.0
N551 N 0.13017 0.84625 0.51718 0.0
H552 H 0.15106 0.82568 0.26827 0.0
H553 H 0.15736 0.81425 0.3803 0.0
H554 H 0.12376 0.84793 0.58499 0.0
H555 H 0.15545 0.83708 0.50632 0.0
H556 H 0.02725 0.92041 0.25842 0.0
H557 H 0.05297 0.89989 0.17827 0.0
H558 H 0.00298 0.90573 0.37656 0.0
H559 H 0.01318 0.90134 0.48991 0.0
C560 C 0.64877 0.39409 0.55081 0.0
C561 C 0.62761 0.42325 0.52744 0.0
C562 C 0.62291 0.43922 0.68526 0.0
C563 C 0.63714 0.4062 0.70873 0.0
N564 N 0.6663 0.35304 0.66656 0.0
N565 N 0.59497 0.47439 0.57014 0.0
C566 C 0.65142 0.38413 0.64216 0.0
C567 C 0.6152 0.44642 0.59396 0.0
N568 N 0.66653 0.37626 0.48573 0.0
N569 N 0.61737 0.46376 0.74996 0.0
H570 H 0.58974 0.48085 0.5034 0.0
H571 H 0.58167 0.48991 0.61626 0.0
H572 H 0.62559 0.46001 0.81562 0.0
H573 H 0.6091 0.48918 0.73674 0.0
H574 H 0.68487 0.35684 0.49918 0.0
H575 H 0.6653 0.38304 0.41813 0.0
H576 H 0.67308 0.3335 0.62116 0.0
H577 H 0.67071 0.34633 0.73355 0.0
C578 C 0.05637 0.61043 0.08709 0.0
C579 C 0.07808 0.6262 0.02209 0.0
C580 C 0.11394 0.65299 0.13947 0.0
C581 C 0.09342 0.63557 0.20437 0.0
N582 N 0.0382 0.6095 0.24242 0.0
N583 N 0.12054 0.67053 0.98419 0.0
C584 C 0.06231 0.61804 0.17892 0.0
C585 C 0.10458 0.65027 0.04764 0.0
N586 N 0.03099 0.58737 0.06129 0.0
N587 N 0.1431 0.67092 0.16578 0.0
H588 H 0.1141 0.66922 0.9164 0.0
H589 H 0.13779 0.69075 -0.00076 0.0
H590 H 0.14915 0.67512 0.23327 0.0
H591 H 0.16179 0.68053 0.12141 0.0
H592 H 0.01703 0.57189 0.10624 0.0
H593 H 0.02531 0.58219 0.99407 0.0
H594 H 0.01396 0.59845 0.22805 0.0
H595 H 0.04069 0.61815 0.30806 0.0
C596 C 0.87585 0.05643 0.5876 0.0
C597 C 0.86952 0.08139 0.51952 0.0
C598 C 0.84799 0.12318 0.63135 0.0
C599 C 0.86042 0.10089 0.69991 0.0
N600 N 0.88239 0.04451 0.74615 0.0
N601 N 0.84674 0.13754 0.47304 0.0
C602 C 0.87264 0.06668 0.67899 0.0
C603 C 0.85437 0.11438 0.5403 0.0
N604 N 0.88473 0.02296 0.56463 0.0
N605 N 0.82961 0.15251 0.65428 0.0
H606 H 0.84853 0.13123 0.40521 0.0
H607 H 0.83989 0.16352 0.48387 0.0
H608 H 0.82404 0.15879 0.72096 0.0
H609 H 0.81713 0.16877 0.60832 0.0
H610 H 0.88634 0.0024 0.61018 0.0
H611 H 0.88824 0.01503 0.49824 0.0
H612 H 0.89684 0.02179 0.73633 0.0
H613 H 0.87571 0.04883 0.81262 0.0
C614 C 0.4339 0.87394 0.16593 0.0
C615 C 0.40055 0.85987 0.18807 0.0
C616 C 0.3876 0.85042 0.02939 0.0
C617 C 0.41957 0.8673 0.00705 0.0
N618 N 0.47687 0.88687 0.05026 0.0
N619 N 0.35117 0.82491 0.14584 0.0
C620 C 0.44403 0.87628 0.0743 0.0
C621 C 0.37921 0.84487 0.12099 0.0
N622 N 0.45526 0.88625 0.23205 0.0
N623 N 0.36492 0.84055 0.96303 0.0
H624 H 0.34519 0.82 0.21304 0.0
H625 H 0.33591 0.81062 0.10117 0.0
H626 H 0.37102 0.84199 0.89499 0.0
H627 H 0.33943 0.83224 0.97474 0.0
H628 H 0.47713 0.90181 0.22063 0.0
H629 H 0.4511 0.88069 0.29929 0.0
H630 H 0.49722 0.89066 0.09559 0.0
H631 H 0.48462 0.88954 0.98348 0.0
loop_
_geom_bond_atom_site_label_1
_geom_bond_atom_site_label_2
_geom_bond_distance
_geom_bond_site_symmetry_2
_ccdc_geom_bond_type
Co0 O3 1.970 . S
Co0 N17 1.989 . S
Co0 O25 1.967 . S
Co0 O32 1.920 . S
Co1 O4 1.966 . S
Co1 N10 2.022 . S
Co1 N18 1.993 . S
Co1 O26 1.941 . S
C2 O3 1.258 . S
C2 O4 1.263 . S
O3 Co0 1.970 . S
O3 C2 1.258 . S
O4 Co1 1.966 . S
O4 C2 1.263 . S
C5 O6 1.235 . S
C5 O32 1.289 . S
O6 C5 1.235 . S
C7 C9 1.400 . S
C7 N10 1.351 . S
C7 C12 1.501 . S
C8 C9 1.387 . S
C8 N11 1.341 . S
C9 C7 1.400 . S
C9 C8 1.387 . S
N10 Co1 2.022 . S
N10 C7 1.351 . S
N10 N11 1.365 . S
N11 C8 1.341 . S
N11 N10 1.365 . S
N11 H31 0.862 . S
C12 C7 1.501 . S
C12 H13 0.961 . S
C12 H14 0.961 . S
C12 H15 0.960 . S
H13 C12 0.961 . S
H14 C12 0.961 . S
H15 C12 0.960 . S
C16 N17 1.342 . S
C16 C20 1.401 . S
C16 C21 1.499 . S
N17 Co0 1.989 . S
N17 C16 1.342 . S
N17 N18 1.388 . S
N18 Co1 1.993 . S
N18 N17 1.388 . S
N18 C19 1.346 . S
C19 N18 1.346 . S
C19 C20 1.396 . S
C19 C29 1.510 . S
C20 C16 1.401 . S
C20 C19 1.396 . S
C21 C16 1.499 . S
C21 H22 0.959 . S
C21 H23 0.960 . S
C21 H24 0.961 . S
H22 C21 0.959 . S
H23 C21 0.960 . S
H24 C21 0.961 . S
O25 Co0 1.967 . S
O25 C33 1.258 . S
O26 Co1 1.941 . S
O26 C33 1.266 . S
H27 C29 0.959 . S
H28 C29 0.961 . S
C29 C19 1.510 . S
C29 H27 0.959 . S
C29 H28 0.961 . S
C29 H30 0.960 . S
H30 C29 0.960 . S
H31 N11 0.862 . S
O32 Co0 1.920 . S
O32 C5 1.289 . S
C33 O25 1.258 . S
C33 O26 1.266 . S
Co34 O37 1.970 . S
Co34 N51 1.989 . S
Co34 O59 1.967 . S
Co34 O66 1.920 . S
Co35 O38 1.966 . S
Co35 N44 2.022 1_556 S
Co35 N52 1.993 . S
Co35 O60 1.941 . S
C36 O37 1.258 . S
C36 O38 1.263 . S
O37 Co34 1.970 . S
O37 C36 1.258 . S
O38 Co35 1.966 . S
O38 C36 1.263 . S
C39 O40 1.235 . S
C39 O66 1.289 . S
O40 C39 1.235 . S
C41 C43 1.400 . S
C41 N44 1.351 . S
C41 C46 1.501 . S
C42 C43 1.387 . S
C42 N45 1.341 . S
C43 C41 1.400 . S
C43 C42 1.387 . S
N44 Co35 2.022 1_554 S
N44 C41 1.351 . S
N44 N45 1.365 . S
N45 C42 1.341 . S
N45 N44 1.365 . S
N45 H65 0.862 . S
C46 C41 1.501 . S
C46 H47 0.961 . S
C46 H48 0.961 . S
C46 H49 0.960 . S
H47 C46 0.961 . S
H48 C46 0.961 . S
H49 C46 0.960 . S
C50 N51 1.342 . S
C50 C54 1.401 . S
C50 C55 1.499 . S
N51 Co34 1.989 . S
N51 C50 1.342 . S
N51 N52 1.388 . S
N52 Co35 1.993 . S
N52 N51 1.388 . S
N52 C53 1.346 . S
C53 N52 1.346 . S
C53 C54 1.396 . S
C53 C63 1.510 1_556 S
C54 C50 1.401 . S
C54 C53 1.396 . S
C55 C50 1.499 . S
C55 H56 0.959 . S
C55 H57 0.960 . S
C55 H58 0.961 . S
H56 C55 0.959 . S
H57 C55 0.960 . S
H58 C55 0.961 . S
O59 Co34 1.967 . S
O59 C67 1.258 . S
O60 Co35 1.941 . S
O60 C67 1.266 . S
H61 C63 0.959 . S
H62 C63 0.961 . S
C63 C53 1.510 1_554 S
C63 H61 0.959 . S
C63 H62 0.961 . S
C63 H64 0.960 . S
H64 C63 0.960 . S
H65 N45 0.862 . S
O66 Co34 1.920 . S
O66 C39 1.289 . S
C67 O59 1.258 . S
C67 O60 1.266 . S
Co68 O71 1.970 . S
Co68 N85 1.989 . S
Co68 O93 1.967 . S
Co68 O100 1.920 . S
Co69 O72 1.966 . S
Co69 N78 2.022 . S
Co69 N86 1.993 . S
Co69 O94 1.941 . S
C70 O71 1.258 . S
C70 O72 1.263 . S
O71 Co68 1.970 . S
O71 C70 1.258 . S
O72 Co69 1.966 . S
O72 C70 1.263 . S
C73 O74 1.235 . S
C73 O100 1.289 . S
O74 C73 1.235 . S
C75 C77 1.400 . S
C75 N78 1.351 . S
C75 C80 1.501 . S
C76 C77 1.387 . S
C76 N79 1.341 . S
C77 C75 1.400 . S
C77 C76 1.387 . S
N78 Co69 2.022 . S
N78 C75 1.351 . S
N78 N79 1.365 . S
N79 C76 1.341 . S
N79 N78 1.365 . S
N79 H99 0.862 . S
C80 C75 1.501 . S
C80 H81 0.961 . S
C80 H82 0.961 . S
C80 H83 0.960 . S
H81 C80 0.961 . S
H82 C80 0.961 . S
H83 C80 0.960 . S
C84 N85 1.342 . S
C84 C88 1.401 . S
C84 C89 1.499 . S
N85 Co68 1.989 . S
N85 C84 1.342 . S
N85 N86 1.388 . S
N86 Co69 1.993 . S
N86 N85 1.388 . S
N86 C87 1.346 . S
C87 N86 1.346 . S
C87 C88 1.396 . S
C87 C97 1.510 . S
C88 C84 1.401 . S
C88 C87 1.396 . S
C89 C84 1.499 . S
C89 H90 0.959 . S
C89 H91 0.960 . S
C89 H92 0.961 . S
H90 C89 0.959 . S
H91 C89 0.960 . S
H92 C89 0.961 . S
O93 Co68 1.967 . S
O93 C101 1.258 . S
O94 Co69 1.941 . S
O94 C101 1.266 . S
H95 C97 0.959 . S
H96 C97 0.961 . S
C97 C87 1.510 . S
C97 H95 0.959 . S
C97 H96 0.961 . S
C97 H98 0.960 . S
H98 C97 0.960 . S
H99 N79 0.862 . S
O100 Co68 1.920 . S
O100 C73 1.289 . S
C101 O93 1.258 . S
C101 O94 1.266 . S
Co102 O105 1.970 . S
Co102 N119 1.989 . S
Co102 O127 1.967 . S
Co102 O134 1.920 . S
Co103 O106 1.966 . S
Co103 N112 2.022 1_556 S
Co103 N120 1.993 . S
Co103 O128 1.941 . S
C104 O105 1.258 . S
C104 O106 1.263 . S
O105 Co102 1.970 . S
O105 C104 1.258 . S
O106 Co103 1.966 . S
O106 C104 1.263 . S
C107 O108 1.235 . S
C107 O134 1.289 . S
O108 C107 1.235 . S
C109 C111 1.400 . S
C109 N112 1.351 . S
C109 C114 1.501 . S
C110 C111 1.387 . S
C110 N113 1.341 . S
C111 C109 1.400 . S
C111 C110 1.387 . S
N112 Co103 2.022 1_554 S
N112 C109 1.351 . S
N112 N113 1.365 . S
N113 C110 1.341 . S
N113 N112 1.365 . S
N113 H133 0.862 . S
C114 C109 1.501 . S
C114 H115 0.961 . S
C114 H116 0.961 . S
C114 H117 0.960 . S
H115 C114 0.961 . S
H116 C114 0.961 . S
H117 C114 0.960 . S
C118 N119 1.342 . S
C118 C122 1.401 . S
C118 C123 1.499 . S
N119 Co102 1.989 . S
N119 C118 1.342 . S
N119 N120 1.388 . S
N120 Co103 1.993 . S
N120 N119 1.388 . S
N120 C121 1.346 . S
C121 N120 1.346 . S
C121 C122 1.396 . S
C121 C131 1.510 1_556 S
C122 C118 1.401 . S
C122 C121 1.396 . S
C123 C118 1.499 . S
C123 H124 0.959 . S
C123 H125 0.960 . S
C123 H126 0.961 . S
H124 C123 0.959 . S
H125 C123 0.960 . S
H126 C123 0.961 . S
O127 Co102 1.967 . S
O127 C135 1.258 . S
O128 Co103 1.941 . S
O128 C135 1.266 . S
H129 C131 0.959 . S
H130 C131 0.961 . S
C131 C121 1.510 1_554 S
C131 H129 0.959 . S
C131 H130 0.961 . S
C131 H132 0.960 . S
H132 C131 0.960 . S
H133 N113 0.862 . S
O134 Co102 1.920 . S
O134 C107 1.289 . S
C135 O127 1.258 . S
C135 O128 1.266 . S
Co136 O139 1.970 . S
Co136 N153 1.989 . S
Co136 O161 1.967 . S
Co136 O168 1.920 . S
Co137 O140 1.966 . S
Co137 N146 2.022 1_554 S
Co137 N154 1.993 . S
Co137 O162 1.941 . S
C138 O139 1.258 . S
C138 O140 1.263 . S
O139 Co136 1.970 . S
O139 C138 1.258 . S
O140 Co137 1.966 . S
O140 C138 1.263 . S
C141 O142 1.235 . S
C141 O168 1.289 . S
O142 C141 1.235 . S
C143 C145 1.400 . S
C143 N146 1.351 . S
C143 C148 1.501 . S
C144 C145 1.387 . S
C144 N147 1.341 . S
C145 C143 1.400 . S
C145 C144 1.387 . S
N146 Co137 2.022 1_556 S
N146 C143 1.351 . S
N146 N147 1.365 . S
N147 C144 1.341 . S
N147 N146 1.365 . S
N147 H167 0.862 . S
C148 C143 1.501 . S
C148 H149 0.961 . S
C148 H150 0.961 . S
C148 H151 0.960 . S
H149 C148 0.961 . S
H150 C148 0.961 . S
H151 C148 0.960 . S
C152 N153 1.342 . S
C152 C156 1.401 . S
C152 C157 1.499 . S
N153 Co136 1.989 . S
N153 C152 1.342 . S
N153 N154 1.388 . S
N154 Co137 1.993 . S
N154 N153 1.388 . S
N154 C155 1.346 . S
C155 N154 1.346 . S
C155 C156 1.396 . S
C155 C165 1.510 1_554 S
C156 C152 1.401 . S
C156 C155 1.396 . S
C157 C152 1.499 . S
C157 H158 0.959 . S
C157 H159 0.960 . S
C157 H160 0.961 . S
H158 C157 0.959 . S
H159 C157 0.960 . S
H160 C157 0.961 . S
O161 Co136 1.967 . S
O161 C169 1.258 . S
O162 Co137 1.941 . S
O162 C169 1.266 . S
H163 C165 0.959 . S
H164 C165 0.961 . S
C165 C155 1.510 1_556 S
C165 H163 0.959 . S
C165 H164 0.961 . S
C165 H166 0.960 . S
H166 C165 0.960 . S
H167 N147 0.862 . S
O168 Co136 1.920 . S
O168 C141 1.289 . S
C169 O161 1.258 . S
C169 O162 1.266 . S
Co170 O173 1.970 . S
Co170 N187 1.989 . S
Co170 O195 1.967 . S
Co170 O202 1.920 . S
Co171 O174 1.966 . S
Co171 N180 2.022 . S
Co171 N188 1.993 . S
Co171 O196 1.941 . S
C172 O173 1.258 . S
C172 O174 1.263 . S
O173 Co170 1.970 . S
O173 C172 1.258 . S
O174 Co171 1.966 . S
O174 C172 1.263 . S
C175 O176 1.235 . S
C175 O202 1.289 . S
O176 C175 1.235 . S
C177 C179 1.400 . S
C177 N180 1.351 . S
C177 C182 1.501 . S
C178 C179 1.387 . S
C178 N181 1.341 . S
C179 C177 1.400 . S
C179 C178 1.387 . S
N180 Co171 2.022 . S
N180 C177 1.351 . S
N180 N181 1.365 . S
N181 C178 1.341 . S
N181 N180 1.365 . S
N181 H201 0.862 . S
C182 C177 1.501 . S
C182 H183 0.961 . S
C182 H184 0.961 . S
C182 H185 0.960 . S
H183 C182 0.961 . S
H184 C182 0.961 . S
H185 C182 0.960 . S
C186 N187 1.342 . S
C186 C190 1.401 . S
C186 C191 1.499 . S
N187 Co170 1.989 . S
N187 C186 1.342 . S
N187 N188 1.388 . S
N188 Co171 1.993 . S
N188 N187 1.388 . S
N188 C189 1.346 . S
C189 N188 1.346 . S
C189 C190 1.396 . S
C189 C199 1.510 . S
C190 C186 1.401 . S
C190 C189 1.396 . S
C191 C186 1.499 . S
C191 H192 0.959 . S
C191 H193 0.960 . S
C191 H194 0.961 . S
H192 C191 0.959 . S
H193 C191 0.960 . S
H194 C191 0.961 . S
O195 Co170 1.967 . S
O195 C203 1.258 . S
O196 Co171 1.941 . S
O196 C203 1.266 . S
H197 C199 0.959 . S
H198 C199 0.961 . S
C199 C189 1.510 . S
C199 H197 0.959 . S
C199 H198 0.961 . S
C199 H200 0.960 . S
H200 C199 0.960 . S
H201 N181 0.862 . S
O202 Co170 1.920 . S
O202 C175 1.289 . S
C203 O195 1.258 . S
C203 O196 1.266 . S
Co204 O207 1.970 . S
Co204 N221 1.989 . S
Co204 O229 1.967 . S
Co204 O236 1.920 . S
Co205 O208 1.966 . S
Co205 N214 2.022 1_554 S
Co205 N222 1.993 . S
Co205 O230 1.941 . S
C206 O207 1.258 . S
C206 O208 1.263 . S
O207 Co204 1.970 . S
O207 C206 1.258 . S
O208 Co205 1.966 . S
O208 C206 1.263 . S
C209 O210 1.235 . S
C209 O236 1.289 . S
O210 C209 1.235 . S
C211 C213 1.400 . S
C211 N214 1.351 . S
C211 C216 1.501 . S
C212 C213 1.387 . S
C212 N215 1.341 . S
C213 C211 1.400 . S
C213 C212 1.387 . S
N214 Co205 2.022 1_556 S
N214 C211 1.351 . S
N214 N215 1.365 . S
N215 C212 1.341 . S
N215 N214 1.365 . S
N215 H235 0.862 . S
C216 C211 1.501 . S
C216 H217 0.961 . S
C216 H218 0.961 . S
C216 H219 0.960 . S
H217 C216 0.961 . S
H218 C216 0.961 . S
H219 C216 0.960 . S
C220 N221 1.342 . S
C220 C224 1.401 . S
C220 C225 1.499 . S
N221 Co204 1.989 . S
N221 C220 1.342 . S
N221 N222 1.388 . S
N222 Co205 1.993 . S
N222 N221 1.388 . S
N222 C223 1.346 . S
C223 N222 1.346 . S
C223 C224 1.396 . S
C223 C233 1.510 1_554 S
C224 C220 1.401 . S
C224 C223 1.396 . S
C225 C220 1.499 . S
C225 H226 0.959 . S
C225 H227 0.960 . S
C225 H228 0.961 . S
H226 C225 0.959 . S
H227 C225 0.960 . S
H228 C225 0.961 . S
O229 Co204 1.967 . S
O229 C237 1.258 . S
O230 Co205 1.941 . S
O230 C237 1.266 . S
H231 C233 0.959 . S
H232 C233 0.961 . S
C233 C223 1.510 1_556 S
C233 H231 0.959 . S
C233 H232 0.961 . S
C233 H234 0.960 . S
H234 C233 0.960 . S
H235 N215 0.862 . S
O236 Co204 1.920 . S
O236 C209 1.289 . S
C237 O229 1.258 . S
C237 O230 1.266 . S
Co238 O241 1.970 . S
Co238 N255 1.989 . S
Co238 O263 1.967 . S
Co238 O270 1.920 . S
Co239 O242 1.966 . S
Co239 N248 2.022 . S
Co239 N256 1.993 . S
Co239 O264 1.941 . S
C240 O241 1.258 . S
C240 O242 1.263 . S
O241 Co238 1.970 . S
O241 C240 1.258 . S
O242 Co239 1.966 . S
O242 C240 1.263 . S
C243 O244 1.235 . S
C243 O270 1.289 . S
O244 C243 1.235 . S
C245 C247 1.400 . S
C245 N248 1.351 . S
C245 C250 1.501 . S
C246 C247 1.387 . S
C246 N249 1.341 . S
C247 C245 1.400 . S
C247 C246 1.387 . S
N248 Co239 2.022 . S
N248 C245 1.351 . S
N248 N249 1.365 . S
N249 C246 1.341 . S
N249 N248 1.365 . S
N249 H269 0.862 . S
C250 C245 1.501 . S
C250 H251 0.961 . S
C250 H252 0.961 . S
C250 H253 0.960 . S
H251 C250 0.961 . S
H252 C250 0.961 . S
H253 C250 0.960 . S
C254 N255 1.342 . S
C254 C258 1.401 . S
C254 C259 1.499 . S
N255 Co238 1.989 . S
N255 C254 1.342 . S
N255 N256 1.388 . S
N256 Co239 1.993 . S
N256 N255 1.388 . S
N256 C257 1.346 . S
C257 N256 1.346 . S
C257 C258 1.396 . S
C257 C267 1.510 . S
C258 C254 1.401 . S
C258 C257 1.396 . S
C259 C254 1.499 . S
C259 H260 0.959 . S
C259 H261 0.960 . S
C259 H262 0.961 . S
H260 C259 0.959 . S
H261 C259 0.960 . S
H262 C259 0.961 . S
O263 Co238 1.967 . S
O263 C271 1.258 . S
O264 Co239 1.941 . S
O264 C271 1.266 . S
H265 C267 0.959 . S
H266 C267 0.961 . S
C267 C257 1.510 . S
C267 H265 0.959 . S
C267 H266 0.961 . S
C267 H268 0.960 . S
H268 C267 0.960 . S
H269 N249 0.862 . S
O270 Co238 1.920 . S
O270 C243 1.289 . S
C271 O263 1.258 . S
C271 O264 1.266 . S
C272 C273 1.363 . S
C272 C278 1.379 . S
C272 N280 1.356 . S
C273 C272 1.363 . S
C273 C279 1.363 1_565 S
C274 C275 1.363 . S
C274 C279 1.379 . S
C274 N281 1.356 . S
C275 C274 1.363 . S
C275 C278 1.363 1_545 S
N276 C278 1.356 . S
N276 H288 0.984 . S
N276 H289 0.985 1_565 S
N277 C279 1.356 . S
N277 H282 0.984 . S
N277 H283 0.985 . S
C278 C272 1.379 . S
C278 C275 1.363 1_565 S
C278 N276 1.356 . S
C279 C273 1.363 1_545 S
C279 C274 1.379 . S
C279 N277 1.356 . S
N280 C272 1.356 . S
N280 H286 0.984 . S
N280 H287 0.984 . S
N281 C274 1.356 . S
N281 H284 0.984 . S
N281 H285 0.985 . S
H282 N277 0.984 . S
H283 N277 0.985 . S
H284 N281 0.984 . S
H285 N281 0.985 . S
H286 N280 0.984 . S
H287 N280 0.984 . S
H288 N276 0.984 . S
H289 N276 0.985 1_545 S
C290 C291 1.363 . S
C290 C296 1.379 . S
C290 N298 1.356 . S
C291 C290 1.363 . S
C291 C297 1.363 1_554 S
C292 C293 1.363 . S
C292 C297 1.379 . S
C292 N299 1.356 . S
C293 C292 1.363 . S
C293 C296 1.363 1_556 S
N294 C296 1.356 . S
N294 H306 0.984 . S
N294 H307 0.985 1_554 S
N295 C297 1.356 . S
N295 H300 0.984 1_556 S
N295 H301 0.985 . S
C296 C290 1.379 . S
C296 C293 1.363 1_554 S
C296 N294 1.356 . S
C297 C291 1.363 1_556 S
C297 C292 1.379 . S
C297 N295 1.356 . S
N298 C290 1.356 . S
N298 H304 0.984 . S
N298 H305 0.984 . S
N299 C292 1.356 . S
N299 H302 0.984 . S
N299 H303 0.985 . S
H300 N295 0.984 1_554 S
H301 N295 0.985 . S
H302 N299 0.984 . S
H303 N299 0.985 . S
H304 N298 0.984 . S
H305 N298 0.984 . S
H306 N294 0.984 . S
H307 N294 0.985 1_556 S
C308 C309 1.363 1_455 S
C308 C314 1.379 . S
C308 N316 1.356 . S
C309 C308 1.363 1_655 S
C309 C315 1.363 . S
C310 C311 1.373 . S
C310 C315 1.373 1_455 S
C310 N317 1.355 1_455 S
C311 C310 1.373 . S
C311 C314 1.363 . S
N312 C314 1.356 . S
N312 H324 0.984 . S
N312 H325 0.985 . S
N313 C315 1.356 . S
N313 H318 0.984 . S
N313 H319 0.985 . S
C314 C308 1.379 . S
C314 C311 1.363 . S
C314 N312 1.356 . S
C315 C309 1.363 . S
C315 C310 1.373 1_655 S
C315 N313 1.356 . S
N316 C308 1.356 . S
N316 H322 0.984 . S
N316 H323 0.984 . S
N317 C310 1.355 1_655 S
N317 H320 0.984 1_655 S
N317 H321 0.985 . S
H318 N313 0.984 . S
H319 N313 0.985 . S
H320 N317 0.984 1_455 S
H321 N317 0.985 . S
H322 N316 0.984 . S
H323 N316 0.984 . S
H324 N312 0.984 . S
H325 N312 0.985 . S
C326 C327 1.363 1_556 S
C326 C332 1.379 1_655 S
C326 N334 1.356 . S
C327 C326 1.363 1_554 S
C327 C333 1.363 1_655 S
C328 C329 1.363 1_554 S
C328 C333 1.379 1_565 S
C328 N335 1.356 . S
C329 C328 1.363 1_556 S
C329 C332 1.363 1_565 S
N330 C332 1.356 . S
N330 H342 0.984 . S
N330 H343 0.985 . S
N331 C333 1.356 . S
N331 H336 0.984 1_455 S
N331 H337 0.985 1_545 S
C332 C326 1.379 1_455 S
C332 C329 1.363 1_545 S
C332 N330 1.356 . S
C333 C327 1.363 1_455 S
C333 C328 1.379 1_545 S
C333 N331 1.356 . S
N334 C326 1.356 . S
N334 H340 0.984 . S
N334 H341 0.984 1_556 S
N335 C328 1.356 . S
N335 H338 0.984 1_554 S
N335 H339 0.985 . S
H336 N331 0.984 1_655 S
H337 N331 0.985 1_565 S
H338 N335 0.984 1_556 S
H339 N335 0.985 . S
H340 N334 0.984 . S
H341 N334 0.984 1_554 S
H342 N330 0.984 . S
H343 N330 0.985 . S
C344 C345 1.363 . S
C344 C350 1.379 . S
C344 N352 1.356 . S
C345 C344 1.363 . S
C345 C351 1.363 . S
C346 C347 1.363 . S
C346 C351 1.379 . S
C346 N353 1.356 . S
C347 C346 1.363 . S
C347 C350 1.363 . S
N348 C350 1.356 . S
N348 H360 0.984 . S
N348 H361 0.985 . S
N349 C351 1.356 . S
N349 H354 0.984 . S
N349 H355 0.985 . S
C350 C344 1.379 . S
C350 C347 1.363 . S
C350 N348 1.356 . S
C351 C345 1.363 . S
C351 C346 1.379 . S
C351 N349 1.356 . S
N352 C344 1.356 . S
N352 H358 0.984 . S
N352 H359 0.984 . S
N353 C346 1.356 . S
N353 H356 0.984 . S
N353 H357 0.985 . S
H354 N349 0.984 . S
H355 N349 0.985 . S
H356 N353 0.984 . S
H357 N353 0.985 . S
H358 N352 0.984 . S
H359 N352 0.984 . S
H360 N348 0.984 . S
H361 N348 0.985 . S
C362 C363 1.363 . S
C362 C368 1.379 . S
C362 N370 1.356 . S
C363 C362 1.363 . S
C363 C369 1.363 . S
C364 C365 1.363 . S
C364 C369 1.379 . S
C364 N371 1.356 . S
C365 C364 1.363 . S
C365 C368 1.363 . S
N366 C368 1.356 . S
N366 H378 0.984 . S
N366 H379 0.985 . S
N367 C369 1.356 . S
N367 H372 0.984 . S
N367 H373 0.985 . S
C368 C362 1.379 . S
C368 C365 1.363 . S
C368 N366 1.356 . S
C369 C363 1.363 . S
C369 C364 1.379 . S
C369 N367 1.356 . S
N370 C362 1.356 . S
N370 H376 0.984 . S
N370 H377 0.984 . S
N371 C364 1.356 . S
N371 H374 0.984 . S
N371 H375 0.985 . S
H372 N367 0.984 . S
H373 N367 0.985 . S
H374 N371 0.984 . S
H375 N371 0.985 . S
H376 N370 0.984 . S
H377 N370 0.984 . S
H378 N366 0.984 . S
H379 N366 0.985 . S
C380 C381 1.363 . S
C380 C386 1.379 . S
C380 N388 1.356 . S
C381 C380 1.363 . S
C381 C387 1.363 . S
C382 C383 1.363 . S
C382 C387 1.379 . S
C382 N389 1.356 . S
C383 C382 1.363 . S
C383 C386 1.363 . S
N384 C386 1.356 . S
N384 H396 0.984 . S
N384 H397 0.985 . S
N385 C387 1.356 . S
N385 H390 0.984 . S
N385 H391 0.985 . S
C386 C380 1.379 . S
C386 C383 1.363 . S
C386 N384 1.356 . S
C387 C381 1.363 . S
C387 C382 1.379 . S
C387 N385 1.356 . S
N388 C380 1.356 . S
N388 H394 0.984 . S
N388 H395 0.984 . S
N389 C382 1.356 . S
N389 H392 0.984 . S
N389 H393 0.985 . S
H390 N385 0.984 . S
H391 N385 0.985 . S
H392 N389 0.984 . S
H393 N389 0.985 . S
H394 N388 0.984 . S
H395 N388 0.984 . S
H396 N384 0.984 . S
H397 N384 0.985 . S
C398 C399 1.363 . S
C398 C404 1.379 . S
C398 N406 1.356 . S
C399 C398 1.363 . S
C399 C405 1.363 . S
C400 C401 1.363 . S
C400 C405 1.379 . S
C400 N407 1.356 . S
C401 C400 1.363 . S
C401 C404 1.363 . S
N402 C404 1.356 . S
N402 H414 0.984 . S
N402 H415 0.985 . S
N403 C405 1.356 . S
N403 H408 0.984 . S
N403 H409 0.985 . S
C404 C398 1.379 . S
C404 C401 1.363 . S
C404 N402 1.356 . S
C405 C399 1.363 . S
C405 C400 1.379 . S
C405 N403 1.356 . S
N406 C398 1.356 . S
N406 H412 0.984 . S
N406 H413 0.984 . S
N407 C400 1.356 . S
N407 H410 0.984 . S
N407 H411 0.985 . S
H408 N403 0.984 . S
H409 N403 0.985 . S
H410 N407 0.984 . S
H411 N407 0.985 . S
H412 N406 0.984 . S
H413 N406 0.984 . S
H414 N402 0.984 . S
H415 N402 0.985 . S
C416 C417 1.363 . S
C416 C422 1.379 . S
C416 N424 1.356 . S
C417 C416 1.363 . S
C417 C423 1.363 . S
C418 C419 1.363 . S
C418 C423 1.379 . S
C418 N425 1.356 . S
C419 C418 1.363 . S
C419 C422 1.363 . S
N420 C422 1.356 . S
N420 H432 0.984 . S
N420 H433 0.985 . S
N421 C423 1.356 . S
N421 H426 0.984 . S
N421 H427 0.985 . S
C422 C416 1.379 . S
C422 C419 1.363 . S
C422 N420 1.356 . S
C423 C417 1.363 . S
C423 C418 1.379 . S
C423 N421 1.356 . S
N424 C416 1.356 . S
N424 H430 0.984 . S
N424 H431 0.984 . S
N425 C418 1.356 . S
N425 H428 0.984 . S
N425 H429 0.985 . S
H426 N421 0.984 . S
H427 N421 0.985 . S
H428 N425 0.984 . S
H429 N425 0.985 . S
H430 N424 0.984 . S
H431 N424 0.984 . S
H432 N420 0.984 . S
H433 N420 0.985 . S
C434 C435 1.363 . S
C434 C440 1.379 . S
C434 N442 1.356 . S
C435 C434 1.363 . S
C435 C441 1.363 . S
C436 C437 1.363 . S
C436 C441 1.379 . S
C436 N443 1.356 . S
C437 C436 1.363 . S
C437 C440 1.363 . S
N438 C440 1.356 . S
N438 H450 0.984 . S
N438 H451 0.985 . S
N439 C441 1.356 . S
N439 H444 0.984 . S
N439 H445 0.985 . S
C440 C434 1.379 . S
C440 C437 1.363 . S
C440 N438 1.356 . S
C441 C435 1.363 . S
C441 C436 1.379 . S
C441 N439 1.356 . S
N442 C434 1.356 . S
N442 H448 0.984 . S
N442 H449 0.984 . S
N443 C436 1.356 . S
N443 H446 0.984 . S
N443 H447 0.985 . S
H444 N439 0.984 . S
H445 N439 0.985 . S
H446 N443 0.984 . S
H447 N443 0.985 . S
H448 N442 0.984 . S
H449 N442 0.984 . S
H450 N438 0.984 . S
H451 N438 0.985 . S
C452 C453 1.363 . S
C452 C458 1.379 . S
C452 N460 1.356 . S
C453 C452 1.363 . S
C453 C459 1.363 . S
C454 C455 1.363 . S
C454 C459 1.379 . S
C454 N461 1.356 . S
C455 C454 1.363 . S
C455 C458 1.363 . S
N456 C458 1.356 . S
N456 H468 0.984 . S
N456 H469 0.985 . S
N457 C459 1.356 . S
N457 H462 0.984 . S
N457 H463 0.985 . S
C458 C452 1.379 . S
C458 C455 1.363 . S
C458 N456 1.356 . S
C459 C453 1.363 . S
C459 C454 1.379 . S
C459 N457 1.356 . S
N460 C452 1.356 . S
N460 H466 0.984 . S
N460 H467 0.984 . S
N461 C454 1.356 . S
N461 H464 0.984 . S
N461 H465 0.985 . S
H462 N457 0.984 . S
H463 N457 0.985 . S
H464 N461 0.984 . S
H465 N461 0.985 . S
H466 N460 0.984 . S
H467 N460 0.984 . S
H468 N456 0.984 . S
H469 N456 0.985 . S
C470 C471 1.363 . S
C470 C476 1.379 . S
C470 N478 1.356 . S
C471 C470 1.363 . S
C471 C477 1.363 . S
C472 C473 1.363 . S
C472 C477 1.379 . S
C472 N479 1.356 . S
C473 C472 1.363 . S
C473 C476 1.363 . S
N474 C476 1.356 . S
N474 H486 0.984 . S
N474 H487 0.985 . S
N475 C477 1.356 . S
N475 H480 0.984 . S
N475 H481 0.985 . S
C476 C470 1.379 . S
C476 C473 1.363 . S
C476 N474 1.356 . S
C477 C471 1.363 . S
C477 C472 1.379 . S
C477 N475 1.356 . S
N478 C470 1.356 . S
N478 H484 0.984 . S
N478 H485 0.984 . S
N479 C472 1.356 . S
N479 H482 0.984 . S
N479 H483 0.985 . S
H480 N475 0.984 . S
H481 N475 0.985 . S
H482 N479 0.984 . S
H483 N479 0.985 . S
H484 N478 0.984 . S
H485 N478 0.984 . S
H486 N474 0.984 . S
H487 N474 0.985 . S
C488 C489 1.363 . S
C488 C494 1.379 . S
C488 N496 1.356 . S
C489 C488 1.363 . S
C489 C495 1.363 . S
C490 C491 1.363 . S
C490 C495 1.379 . S
C490 N497 1.356 . S
C491 C490 1.363 . S
C491 C494 1.363 . S
N492 C494 1.356 1_554 S
N492 H504 0.984 . S
N492 H505 0.985 . S
N493 C495 1.356 . S
N493 H498 0.984 . S
N493 H499 0.985 . S
C494 C488 1.379 . S
C494 C491 1.363 . S
C494 N492 1.356 1_556 S
C495 C489 1.363 . S
C495 C490 1.379 . S
C495 N493 1.356 . S
N496 C488 1.356 . S
N496 H502 0.984 . S
N496 H503 0.984 . S
N497 C490 1.356 . S
N497 H500 0.984 1_556 S
N497 H501 0.985 . S
H498 N493 0.984 . S
H499 N493 0.985 . S
H500 N497 0.984 1_554 S
H501 N497 0.985 . S
H502 N496 0.984 . S
H503 N496 0.984 . S
H504 N492 0.984 . S
H505 N492 0.985 . S
C506 C507 1.363 . S
C506 C512 1.379 . S
C506 N514 1.356 . S
C507 C506 1.363 . S
C507 C513 1.363 . S
C508 C509 1.363 . S
C508 C513 1.379 . S
C508 N515 1.356 . S
C509 C508 1.363 . S
C509 C512 1.363 . S
N510 C512 1.356 . S
N510 H522 0.984 . S
N510 H523 0.985 . S
N511 C513 1.356 . S
N511 H516 0.984 . S
N511 H517 0.985 . S
C512 C506 1.379 . S
C512 C509 1.363 . S
C512 N510 1.356 . S
C513 C507 1.363 . S
C513 C508 1.379 . S
C513 N511 1.356 . S
N514 C506 1.356 . S
N514 H520 0.984 . S
N514 H521 0.984 . S
N515 C508 1.356 . S
N515 H518 0.984 . S
N515 H519 0.985 . S
H516 N511 0.984 . S
H517 N511 0.985 . S
H518 N515 0.984 . S
H519 N515 0.985 . S
H520 N514 0.984 . S
H521 N514 0.984 . S
H522 N510 0.984 . S
H523 N510 0.985 . S
C524 C525 1.363 . S
C524 C530 1.379 . S
C524 N532 1.356 . S
C525 C524 1.363 . S
C525 C531 1.363 . S
C526 C527 1.363 . S
C526 C531 1.379 . S
C526 N533 1.356 . S
C527 C526 1.363 . S
C527 C530 1.363 . S
N528 C530 1.356 . S
N528 H540 0.984 . S
N528 H541 0.985 . S
N529 C531 1.356 1_554 S
N529 H534 0.984 . S
N529 H535 0.985 . S
C530 C524 1.379 . S
C530 C527 1.363 . S
C530 N528 1.356 . S
C531 C525 1.363 . S
C531 C526 1.379 . S
C531 N529 1.356 1_556 S
N532 C524 1.356 . S
N532 H538 0.984 . S
N532 H539 0.984 1_556 S
N533 C526 1.356 . S
N533 H536 0.984 . S
N533 H537 0.985 . S
H534 N529 0.984 . S
H535 N529 0.985 . S
H536 N533 0.984 . S
H537 N533 0.985 . S
H538 N532 0.984 . S
H539 N532 0.984 1_554 S
H540 N528 0.984 . S
H541 N528 0.985 . S
C542 C543 1.363 . S
C542 C548 1.379 . S
C542 N550 1.356 . S
C543 C542 1.363 . S
C543 C549 1.363 . S
C544 C545 1.363 . S
C544 C549 1.379 . S
C544 N551 1.356 . S
C545 C544 1.363 . S
C545 C548 1.363 . S
N546 C548 1.356 . S
N546 H558 0.984 . S
N546 H559 0.985 . S
N547 C549 1.356 . S
N547 H552 0.984 . S
N547 H553 0.985 . S
C548 C542 1.379 . S
C548 C545 1.363 . S
C548 N546 1.356 . S
C549 C543 1.363 . S
C549 C544 1.379 . S
C549 N547 1.356 . S
N550 C542 1.356 . S
N550 H556 0.984 . S
N550 H557 0.984 . S
N551 C544 1.356 . S
N551 H554 0.984 . S
N551 H555 0.985 . S
H552 N547 0.984 . S
H553 N547 0.985 . S
H554 N551 0.984 . S
H555 N551 0.985 . S
H556 N550 0.984 . S
H557 N550 0.984 . S
H558 N546 0.984 . S
H559 N546 0.985 . S
C560 C561 1.363 . S
C560 C566 1.379 . S
C560 N568 1.356 . S
C561 C560 1.363 . S
C561 C567 1.363 . S
C562 C563 1.363 . S
C562 C567 1.379 . S
C562 N569 1.356 . S
C563 C562 1.363 . S
C563 C566 1.363 . S
N564 C566 1.356 . S
N564 H576 0.984 . S
N564 H577 0.985 . S
N565 C567 1.356 . S
N565 H570 0.984 . S
N565 H571 0.985 . S
C566 C560 1.379 . S
C566 C563 1.363 . S
C566 N564 1.356 . S
C567 C561 1.363 . S
C567 C562 1.379 . S
C567 N565 1.356 . S
N568 C560 1.356 . S
N568 H574 0.984 . S
N568 H575 0.984 . S
N569 C562 1.356 . S
N569 H572 0.984 . S
N569 H573 0.985 . S
H570 N565 0.984 . S
H571 N565 0.985 . S
H572 N569 0.984 . S
H573 N569 0.985 . S
H574 N568 0.984 . S
H575 N568 0.984 . S
H576 N564 0.984 . S
H577 N564 0.985 . S
C578 C579 1.363 . S
C578 C584 1.379 . S
C578 N586 1.356 . S
C579 C578 1.363 . S
C579 C585 1.363 . S
C580 C581 1.363 . S
C580 C585 1.379 . S
C580 N587 1.356 . S
C581 C580 1.363 . S
C581 C584 1.363 . S
N582 C584 1.356 . S
N582 H594 0.984 . S
N582 H595 0.985 . S
N583 C585 1.356 1_556 S
N583 H588 0.984 . S
N583 H589 0.985 . S
C584 C578 1.379 . S
C584 C581 1.363 . S
C584 N582 1.356 . S
C585 C579 1.363 . S
C585 C580 1.379 . S
C585 N583 1.356 1_554 S
N586 C578 1.356 . S
N586 H592 0.984 . S
N586 H593 0.973 1_554 S
N587 C580 1.356 . S
N587 H590 0.984 . S
N587 H591 0.985 . S
H588 N583 0.984 . S
H589 N583 0.985 . S
H590 N587 0.984 . S
H591 N587 0.985 . S
H592 N586 0.984 . S
H593 N586 0.973 1_556 S
H594 N582 0.984 . S
H595 N582 0.985 . S
C596 C597 1.363 . S
C596 C602 1.379 . S
C596 N604 1.356 . S
C597 C596 1.363 . S
C597 C603 1.363 . S
C598 C599 1.363 . S
C598 C603 1.379 . S
C598 N605 1.356 . S
C599 C598 1.363 . S
C599 C602 1.363 . S
N600 C602 1.356 . S
N600 H612 0.984 . S
N600 H613 0.985 . S
N601 C603 1.356 . S
N601 H606 0.984 . S
N601 H607 0.985 . S
C602 C596 1.379 . S
C602 C599 1.363 . S
C602 N600 1.356 . S
C603 C597 1.363 . S
C603 C598 1.379 . S
C603 N601 1.356 . S
N604 C596 1.356 . S
N604 H610 0.984 . S
N604 H611 0.984 . S
N605 C598 1.356 . S
N605 H608 0.984 . S
N605 H609 0.985 . S
H606 N601 0.984 . S
H607 N601 0.985 . S
H608 N605 0.984 . S
H609 N605 0.985 . S
H610 N604 0.984 . S
H611 N604 0.984 . S
H612 N600 0.984 . S
H613 N600 0.985 . S
C614 C615 1.363 . S
C614 C620 1.379 . S
C614 N622 1.356 . S
C615 C614 1.363 . S
C615 C621 1.363 . S
C616 C617 1.363 . S
C616 C621 1.379 . S
C616 N623 1.356 1_554 S
C617 C616 1.363 . S
C617 C620 1.363 . S
N618 C620 1.356 . S
N618 H630 0.984 . S
N618 H631 0.985 1_554 S
N619 C621 1.356 . S
N619 H624 0.984 . S
N619 H625 0.985 . S
C620 C614 1.379 . S
C620 C617 1.363 . S
C620 N618 1.356 . S
C621 C615 1.363 . S
C621 C616 1.379 . S
C621 N619 1.356 . S
N622 C614 1.356 . S
N622 H628 0.984 . S
N622 H629 0.984 . S
N623 C616 1.356 1_556 S
N623 H626 0.984 . S
N623 H627 0.985 1_556 S
H624 N619 0.984 . S
H625 N619 0.985 . S
H626 N623 0.984 . S
H627 N623 0.985 1_554 S
H628 N622 0.984 . S
H629 N622 0.984 . S
H630 N618 0.984 . S
H631 N618 0.985 1_556 S
C273 C258 1.630 . S
C275 C20 1.630 . S
C291 C156 1.630 . S
C293 C54 1.630 . S
C309 C88 1.630 . S
C311 C190 1.630 . S
C327 C224 1.630 . S
C329 C122 1.630 . S
C345 C33 1.281 . S
C347 C169 1.281 . S
C363 C203 1.281 . S
C365 C67 1.281 . S
C381 C237 1.281 . S
C383 C101 1.281 . S
C399 C271 1.281 . S
C401 C135 1.281 . S
C417 C240 1.646 . S
C419 C36 1.646 . S
C435 C70 1.646 . S
C437 C138 1.646 . S
C453 C104 1.646 . S
C455 C172 1.646 . S
C471 C206 1.646 . S
C473 C2 1.646 . S
C489 C9 1.269 . S
C491 C5 1.332 1_556 S
C507 C39 1.332 . S
C509 C43 1.269 . S
C525 C73 1.332 1_556 S
C527 C77 1.269 . S
C543 C111 1.269 . S
C545 C107 1.332 . S
C561 C141 1.332 . S
C563 C145 1.269 . S
C579 C175 1.332 1_554 S
C581 C179 1.269 . S
C597 C209 1.332 . S
C599 C213 1.269 . S
C615 C247 1.269 . S
C617 C243 1.332 1_554 S
