# Generated by pormake.
# Topology bcg, (8)-cn, num edge types: 1
# Building blocks:
#     Node 0, Type 0, BuildingBlock: HISSIN_clean_sbu_1, # of connection points: 8
#     Node 1, Type 0, BuildingBlock: HISSIN_clean_sbu_1, # of connection points: 8
#     Node 2, Type 0, BuildingBlock: HISSIN_clean_sbu_1, # of connection points: 8
#     Node 3, Type 0, BuildingBlock: HISSIN_clean_sbu_1, # of connection points: 8
#     Edge 4, Type (0, 0), BuildingBlock: MIFKUJ_clean_linker_0, # of connection points: 2
#     Edge 5, Type (0, 0), BuildingBlock: MIFKUJ_clean_linker_0, # of connection points: 2
#     Edge 6, Type (0, 0), BuildingBlock: MIFKUJ_clean_linker_0, # of connection points: 2
#     Edge 7, Type (0, 0), BuildingBlock: MIFKUJ_clean_linker_0, # of connection points: 2
#     Edge 8, Type (0, 0), BuildingBlock: MIFKUJ_clean_linker_0, # of connection points: 2
#     Edge 9, Type (0, 0), BuildingBlock: MIFKUJ_clean_linker_0, # of connection points: 2
#     Edge 10, Type (0, 0), BuildingBlock: MIFKUJ_clean_linker_0, # of connection points: 2
#     Edge 11, Type (0, 0), BuildingBlock: MIFKUJ_clean_linker_0, # of connection points: 2
#     Edge 12, Type (0, 0), BuildingBlock: MIFKUJ_clean_linker_0, # of connection points: 2
#     Edge 13, Type (0, 0), BuildingBlock: MIFKUJ_clean_linker_0, # of connection points: 2
#     Edge 14, Type (0, 0), BuildingBlock: MIFKUJ_clean_linker_0, # of connection points: 2
#     Edge 15, Type (0, 0), BuildingBlock: MIFKUJ_clean_linker_0, # of connection points: 2
#     Edge 16, Type (0, 0), BuildingBlock: MIFKUJ_clean_linker_0, # of connection points: 2
#     Edge 17, Type (0, 0), BuildingBlock: MIFKUJ_clean_linker_0, # of connection points: 2
#     Edge 18, Type (0, 0), BuildingBlock: MIFKUJ_clean_linker_0, # of connection points: 2
#     Edge 19, Type (0, 0), BuildingBlock: MIFKUJ_clean_linker_0, # of connection points: 2
# Relax obj value: 0.149
# Max RMSD: 0.213
# Mean RMSD: 0.213
data_MOF--net-bcg--node1-HISSIN_clean_sbu_1--edge1-MIFKUJ_clean_linker_0
_symmetry_space_group_name_H-M    P1
_symmetry_Int_Tables_number       1
_symmetry_cell_setting            triclinic
loop_
_symmetry_equiv_pos_as_xyz
'x, y, z'
_cell_length_a     27.063712
_cell_length_b     26.38342
_cell_length_c     41.0399
_cell_angle_alpha  80.734353
_cell_angle_beta   90.242363
_cell_angle_gamma 89.795677
loop_
_atom_site_label
_atom_site_type_symbol
_atom_site_fract_x
_atom_site_fract_y
_atom_site_fract_z
_atom_type_partial_charge
Eu0 Eu 0.31687 0.21428 0.02506 0.0
C1 C 0.29965 0.33037 -0.00302 0.0
O2 O 0.36329 0.21103 0.07103 0.0
C3 C 0.08996 0.29429 0.03649 0.0
C4 C 0.9964 0.2705 0.06309 0.0
C5 C 0.05006 0.28727 0.01549 0.0
C6 C 1.00319 0.27512 0.02895 0.0
C7 C 0.08247 0.2896 0.07064 0.0
C8 C 0.03553 0.2782 0.08416 0.0
Eu9 Eu 0.19816 0.28987 0.97722 0.0
O10 O 0.24926 0.16463 0.03113 0.0
O11 O 0.15586 0.29305 0.92976 0.0
O12 O 0.26695 0.33774 0.97292 0.0
O13 O 0.22195 0.20718 0.98196 0.0
C14 C 0.17065 0.26651 0.90712 0.0
O15 O 0.21123 0.23885 0.9122 0.0
O16 O 0.17329 0.27204 0.02819 0.0
C17 C 0.13948 0.30838 0.02359 0.0
C18 C 0.34646 0.23118 0.0961 0.0
O19 O 0.30219 0.25211 0.09395 0.0
O20 O 0.14178 0.33762 0.99451 0.0
O21 O 0.29078 0.29573 0.02299 0.0
C22 C 0.3695 0.20111 0.97438 0.0
O23 O 0.33236 0.23358 0.97252 0.0
C24 C 0.41471 0.2201 0.95688 0.0
C25 C 0.49954 0.25521 0.92168 0.0
C26 C 0.45505 0.23819 0.97344 0.0
C27 C 0.49772 0.25565 0.95578 0.0
C28 C 0.41774 0.21853 0.92292 0.0
C29 C 0.46024 0.23588 0.90521 0.0
C30 C 0.21406 0.17374 0.00876 0.0
O31 O 0.37486 0.17302 0.00371 0.0
H32 H 0.95956 0.26334 0.07301 0.0
H33 H 0.05527 0.2915 0.98902 0.0
H34 H 0.11322 0.29543 0.08664 0.0
H35 H 0.53325 0.26662 0.90828 0.0
H36 H 0.45359 0.23798 -0.00014 0.0
H37 H 0.38724 0.20326 0.91032 0.0
Eu38 Eu 0.81823 0.7061 0.01651 0.0
C39 C 0.81546 0.82569 0.99258 0.0
O40 O 0.8561 0.6899 0.066 0.0
C41 C 0.61201 0.77492 0.03857 0.0
C42 C 0.51952 0.75256 0.06768 0.0
C43 C 0.57236 0.76045 0.01958 0.0
C44 C 0.52603 0.74898 0.03433 0.0
C45 C 0.60456 0.77859 0.07204 0.0
C46 C 0.55796 0.76852 0.08654 0.0
Eu47 Eu 0.71449 0.77922 0.97322 0.0
O48 O 0.74852 0.65947 0.01847 0.0
O49 O 0.6666 0.79076 0.92767 0.0
O50 O 0.78386 0.82681 0.96802 0.0
O51 O 0.72487 0.69697 0.96692 0.0
C52 C 0.68617 0.79482 0.89815 0.0
O53 O 0.73451 0.79565 0.89528 0.0
O54 O 0.69482 0.75513 0.02498 0.0
C55 C 0.66026 0.79064 0.02361 0.0
C56 C 0.84449 0.71621 0.08948 0.0
O57 O 0.80796 0.74953 0.08464 0.0
O58 O 0.6591 0.82238 0.99539 0.0
O59 O 0.81258 0.79035 0.01893 0.0
C60 C 0.8807 0.68913 0.97168 0.0
O61 O 0.84422 0.72249 0.96559 0.0
C62 C 0.93012 0.70581 0.95891 0.0
C63 C 0.02367 0.73144 0.93253 0.0
C64 C 0.97104 0.7085 0.98013 0.0
C65 C 0.01787 0.72164 0.96676 0.0
C66 C 0.93688 0.71608 0.92449 0.0
C67 C 0.98381 0.72857 0.91103 0.0
C68 C 0.72036 0.6601 0.99225 0.0
O69 O 0.87886 0.6614 0.00129 0.0
H70 H 0.48343 0.74462 0.07873 0.0
H71 H 0.57722 0.75904 0.99354 0.0
H72 H 0.63438 0.7916 0.08633 0.0
H73 H 0.06052 0.73881 0.92275 0.0
H74 H 0.96675 0.69986 0.00668 0.0
H75 H 0.90565 0.71344 0.90823 0.0
Eu76 Eu 0.31017 0.77966 0.47093 0.0
C77 C 0.29669 0.66153 0.49309 0.0
O78 O 0.35864 0.78766 0.42606 0.0
C79 C 0.09222 0.70001 0.45477 0.0
C80 C 0.01433 0.6942 0.41043 0.0
C81 C 0.04265 0.70068 0.46555 0.0
C82 C 1.00335 0.69905 0.44311 0.0
C83 C 0.1021 0.69728 0.42147 0.0
C84 C 0.0631 0.69407 0.39943 0.0
Eu85 Eu 0.20408 0.7146 0.51876 0.0
O86 O 0.24093 0.82772 0.46569 0.0
O87 O 0.17473 0.70123 0.57041 0.0
O88 O 0.2675 0.65926 0.51877 0.0
O89 O 0.22254 0.79752 0.51923 0.0
C90 C 0.19562 0.72305 0.5935 0.0
O91 O 0.23625 0.7497 0.58669 0.0
O92 O 0.17636 0.72554 0.46783 0.0
C93 C 0.13348 0.70528 0.47769 0.0
C94 C 0.34122 0.80729 0.39682 0.0
O95 O 0.29535 0.82397 0.39422 0.0
O96 O 0.12976 0.68887 0.50955 0.0
O97 O 0.29096 0.69807 0.46762 0.0
C98 C 0.36203 0.79169 0.5225 0.0
O99 O 0.33073 0.75373 0.52252 0.0
C100 C 0.41006 0.77991 0.53918 0.0
C101 C 0.50102 0.76819 0.57205 0.0
C102 C 0.45375 0.77402 0.52137 0.0
C103 C 0.49981 0.769 0.53779 0.0
C104 C 0.41261 0.78004 0.57341 0.0
C105 C 0.45826 0.77516 0.5898 0.0
C106 C 0.21542 0.83107 0.4924 0.0
O107 O 0.3622 0.82443 0.49472 0.0
H108 H 0.98455 0.6922 0.39289 0.0
H109 H 0.03476 0.70491 0.49084 0.0
H110 H 0.13983 0.69817 0.41262 0.0
H111 H 0.53598 0.76307 0.58522 0.0
H112 H 0.45207 0.77556 0.49484 0.0
H113 H 0.37946 0.78647 0.58696 0.0
Eu114 Eu 0.8164 0.28277 0.47651 0.0
C115 C 0.80803 0.16704 0.50961 0.0
O116 O 0.85497 0.28537 0.42812 0.0
C117 C 0.61125 0.22309 0.45993 0.0
C118 C 0.52822 0.24712 0.41919 0.0
C119 C 0.5643 0.22943 0.47399 0.0
C120 C 0.52218 0.24041 0.45356 0.0
C121 C 0.61546 0.22811 0.42538 0.0
C122 C 0.5741 0.24034 0.40505 0.0
Eu123 Eu 0.71506 0.22927 0.52535 0.0
O124 O 0.74964 0.33428 0.46656 0.0
O125 O 0.67617 0.22817 0.5737 0.0
O126 O 0.78211 0.17807 0.53454 0.0
O127 O 0.72568 0.31419 0.52008 0.0
C128 C 0.66377 0.18516 0.59264 0.0
O129 O 0.675 0.14107 0.58348 0.0
O130 O 0.69675 0.23127 0.47335 0.0
C131 C 0.65545 0.20568 0.48031 0.0
C132 C 0.84976 0.32402 0.40386 0.0
O133 O 0.82144 0.36307 0.40786 0.0
O134 O 0.64942 0.18955 0.51206 0.0
O135 O 0.80747 0.1972 0.48089 0.0
C136 C 0.87685 0.3072 0.52077 0.0
O137 O 0.83479 0.28315 0.52814 0.0
C138 C 0.92054 0.28902 0.54151 0.0
C139 C 1.00147 0.26071 0.58343 0.0
C140 C 0.96826 0.28393 0.52813 0.0
C141 C 1.00918 0.26955 0.54922 0.0
C142 C 0.91447 0.28002 0.57599 0.0
C143 C 0.95467 0.26537 0.59691 0.0
C144 C 0.72138 0.34282 0.49102 0.0
O145 O 0.88318 0.32165 0.48887 0.0
H146 H 0.49644 0.25556 0.40303 0.0
H147 H 0.56015 0.22352 0.50057 0.0
H148 H 0.65063 0.22107 0.41431 0.0
H149 H 0.03266 0.25202 0.60008 0.0
H150 H 0.97355 0.29118 0.50165 0.0
H151 H 0.87849 0.28492 0.58663 0.0
H152 H 0.55134 0.34356 0.94354 0.0
H153 H 0.63897 0.35133 0.95617 0.0
H154 H 0.63676 0.20121 0.01615 0.0
H155 H 0.54876 0.19361 0.00369 0.0
H156 H 0.70296 0.26005 0.04022 0.0
H157 H 0.66513 0.21637 0.93403 0.0
H158 H 0.6235 0.22799 0.87974 0.0
H159 H 0.69603 0.37298 0.85224 0.0
H160 H 0.73734 0.36267 0.90668 0.0
H161 H 0.94804 0.19069 0.02767 0.0
H162 H 0.8607 0.19031 0.01203 0.0
H163 H 0.86967 0.35104 0.97086 0.0
H164 H 0.95731 0.35121 0.98681 0.0
H165 H 0.80116 0.2887 0.93688 0.0
H166 H 0.83837 0.33084 0.04485 0.0
H167 H 0.88129 0.31533 0.09872 0.0
H168 H 0.81083 0.16851 0.12211 0.0
H169 H 0.76798 0.18289 0.06814 0.0
C170 C 0.56919 0.31318 0.96048 0.0
C171 C 0.54364 0.26782 0.97245 0.0
C172 C 0.61932 0.31746 0.96753 0.0
C173 C 0.6448 0.27625 0.98633 0.0
C174 C 0.61799 0.23331 0.00133 0.0
C175 C 0.56764 0.22911 0.99441 0.0
C176 C 0.69971 0.27529 0.98707 0.0
C177 C 0.7243 0.26591 0.01762 0.0
C178 C 0.72779 0.28321 0.95756 0.0
C179 C 0.70404 0.28893 0.9245 0.0
C180 C 0.67205 0.25082 0.91645 0.0
C181 C 0.64848 0.25719 0.88567 0.0
C182 C 0.65707 0.30122 0.86258 0.0
C183 C 0.68938 0.33891 0.87018 0.0
C184 C 0.71289 0.33283 0.90099 0.0
C185 C 0.9318 0.22514 0.01394 0.0
C186 C 0.95902 0.27082 0.00842 0.0
C187 C 0.88196 0.22511 0.00523 0.0
C188 C 0.85865 0.27092 0.9909 0.0
C189 C 0.88709 0.31536 0.98197 0.0
C190 C 0.93714 0.31536 0.99083 0.0
C191 C 0.80401 0.27394 0.98993 0.0
C192 C 0.77961 0.28327 0.9594 0.0
C193 C 0.77608 0.26571 0.01942 0.0
C194 C 0.8003 0.25776 0.05237 0.0
C195 C 0.83219 0.29517 0.06144 0.0
C196 C 0.85645 0.28661 0.09199 0.0
C197 C 0.84887 0.24092 0.11379 0.0
C198 C 0.81671 0.20386 0.10517 0.0
C199 C 0.79235 0.21223 0.07463 0.0
H200 H 0.86783 0.2343 0.13738 0.0
H201 H 0.63875 0.30611 0.83877 0.0
H202 H 0.07055 0.80433 0.97763 0.0
H203 H 0.15905 0.80402 0.99041 0.0
H204 H 0.15835 0.63845 0.00998 0.0
H205 H 0.06955 0.63892 -0.00265 0.0
H206 H 0.22598 0.6838 0.05053 0.0
H207 H 0.18028 0.69651 0.93512 0.0
H208 H 0.13436 0.73735 0.88573 0.0
H209 H 0.21157 0.87858 0.88761 0.0
H210 H 0.25687 0.8392 0.93768 0.0
H211 H 0.48063 0.65722 0.03464 0.0
H212 H 0.39359 0.64585 0.02152 0.0
H213 H 0.38174 0.80745 0.98254 0.0
H214 H 0.4692 0.81833 0.99505 0.0
H215 H 0.31958 0.75875 0.9506 0.0
H216 H 0.35787 0.75674 0.06497 0.0
H217 H 0.40036 0.72617 0.11779 0.0
H218 H 0.33593 0.57697 0.12075 0.0
H219 H 0.29347 0.60659 0.06773 0.0
C220 C 0.08886 0.76806 0.98628 0.0
C221 C 0.06328 0.72169 0.98692 0.0
C222 C 0.13951 0.76783 0.99315 0.0
C223 C 0.16553 0.72115 0.00042 0.0
C224 C 0.13905 0.67487 0.00432 0.0
C225 C 0.08824 0.67514 -0.00253 0.0
C226 C 0.22053 0.72057 -6e-05 0.0
C227 C 0.24649 0.6995 0.02858 0.0
C228 C 0.24729 0.74209 0.97143 0.0
C229 C 0.22179 0.76495 0.94034 0.0
C230 C 0.18736 0.73634 0.92511 0.0
C231 C 0.16136 0.75926 0.89703 0.0
C232 C 0.1701 0.81043 0.88351 0.0
C233 C 0.20488 0.83888 0.89808 0.0
C234 C 0.23068 0.81632 0.92636 0.0
C235 C 0.45994 0.68967 0.02177 0.0
C236 C 0.48157 0.73853 0.0155 0.0
C237 C 0.40996 0.68336 0.01461 0.0
C238 C 0.38046 0.72602 0.00174 0.0
C239 C 0.40341 0.77391 0.99257 0.0
C240 C 0.45355 0.78011 -0.00055 0.0
C241 C 0.32537 0.72236 0.00139 0.0
C242 C 0.29925 0.74256 0.97252 0.0
C243 C 0.29838 0.70123 0.02995 0.0
C244 C 0.32305 0.68364 0.06216 0.0
C245 C 0.35298 0.71733 0.0768 0.0
C246 C 0.37703 0.7002 0.10678 0.0
C247 C 0.37098 0.6496 0.12256 0.0
C248 C 0.34069 0.61611 0.10845 0.0
C249 C 0.31662 0.63304 0.07844 0.0
H250 H 0.38965 0.63639 0.14576 0.0
H251 H 0.14987 0.82803 0.86177 0.0
H252 H 0.58456 0.81892 0.54872 0.0
H253 H 0.66652 0.80557 0.52841 0.0
H254 H 0.60706 0.70543 0.46468 0.0
H255 H 0.52409 0.71583 0.48714 0.0
H256 H 0.68653 0.66365 0.49252 0.0
H257 H 0.65192 0.83056 0.43501 0.0
H258 H 0.62474 0.92104 0.42666 0.0
H259 H 0.73977 0.95684 0.49155 0.0
H260 H 0.76717 0.86641 0.50074 0.0
H261 H 0.9357 0.76167 0.40784 0.0
H262 H 0.84826 0.77043 0.41868 0.0
H263 H 0.86378 0.66478 0.51008 0.0
H264 H 0.95204 0.65398 0.49837 0.0
H265 H 0.80305 0.80797 0.46215 0.0
H266 H 0.74882 0.60324 0.5286 0.0
H267 H 0.77082 0.51258 0.52803 0.0
H268 H 0.82872 0.55242 0.43005 0.0
H269 H 0.80621 0.64311 0.42975 0.0
C270 C 0.58862 0.79386 0.53042 0.0
C271 C 0.54772 0.76753 0.52012 0.0
C272 C 0.63572 0.78684 0.51842 0.0
C273 C 0.64332 0.75489 0.49469 0.0
C274 C 0.60224 0.73035 0.48299 0.0
C275 C 0.55472 0.7368 0.4955 0.0
C276 C 0.69462 0.74589 0.48366 0.0
C277 C 0.71197 0.6952 0.48565 0.0
C278 C 0.72782 0.78699 0.47411 0.0
C279 C 0.71138 0.84153 0.46874 0.0
C280 C 0.67119 0.85762 0.44771 0.0
C281 C 0.65577 0.90893 0.4428 0.0
C282 C 0.68044 0.94464 0.45861 0.0
C283 C 0.72066 0.92913 0.47934 0.0
C284 C 0.73618 0.87785 0.48438 0.0
C285 C 0.92055 0.73971 0.43011 0.0
C286 C 0.95079 0.70651 0.45202 0.0
C287 C 0.87042 0.74505 0.4364 0.0
C288 C 0.84894 0.71785 0.465 0.0
C289 C 0.87916 0.68544 0.48748 0.0
C290 C 0.9297 0.67975 0.48102 0.0
C291 C 0.7954 0.72566 0.47139 0.0
C292 C 0.77768 0.77628 0.46877 0.0
C293 C 0.76169 0.68449 0.47916 0.0
C294 C 0.77649 0.6302 0.47938 0.0
C295 C 0.7663 0.59269 0.50694 0.0
C296 C 0.77877 0.54126 0.50674 0.0
C297 C 0.80137 0.52679 0.47909 0.0
C298 C 0.81146 0.56372 0.45153 0.0
C299 C 0.79892 0.61518 0.45156 0.0
H300 H 0.8109 0.48694 0.47896 0.0
H301 H 0.66846 0.98435 0.45476 0.0
H302 H 0.07849 0.19713 0.57268 0.0
H303 H 0.16565 0.19578 0.5595 0.0
H304 H 0.14512 0.32752 0.48337 0.0
H305 H 0.05753 0.3314 0.49835 0.0
H306 H 0.21339 0.17842 0.51134 0.0
H307 H 0.2552 0.39594 0.47101 0.0
H308 H 0.22692 0.47985 0.48326 0.0
H309 H 0.17408 0.4074 0.57785 0.0
H310 H 0.20302 0.32333 0.56645 0.0
H311 H 0.43975 0.19798 0.43109 0.0
H312 H 0.35471 0.20632 0.44751 0.0
H313 H 0.40205 0.28827 0.525 0.0
H314 H 0.48807 0.28405 0.50633 0.0
H315 H 0.32227 0.33095 0.50032 0.0
H316 H 0.36314 0.1565 0.53906 0.0
H317 H 0.39512 0.06946 0.53694 0.0
H318 H 0.28706 0.05023 0.46305 0.0
H319 H 0.25485 0.13745 0.46438 0.0
C320 C 0.09237 0.22638 0.55336 0.0
C321 C 0.0608 0.26496 0.53698 0.0
C322 C 0.14247 0.22526 0.54563 0.0
C323 C 0.16267 0.26195 0.52072 0.0
C324 C 0.13094 0.29938 0.50323 0.0
C325 C 0.08057 0.30107 0.51141 0.0
C326 C 0.2166 0.25956 0.51297 0.0
C327 C 0.23703 0.21193 0.50894 0.0
C328 C 0.24823 0.30277 0.51062 0.0
C329 C 0.2306 0.35321 0.51764 0.0
C330 C 0.23761 0.39794 0.49444 0.0
C331 C 0.22153 0.44555 0.50125 0.0
C332 C 0.1985 0.44893 0.53124 0.0
C333 C 0.19171 0.40473 0.55456 0.0
C334 C 0.20791 0.35708 0.54792 0.0
C335 C 0.43228 0.21851 0.45135 0.0
C336 C 0.47095 0.24101 0.46703 0.0
C337 C 0.38337 0.22248 0.46115 0.0
C338 C 0.37148 0.24706 0.488 0.0
C339 C 0.41004 0.26891 0.50426 0.0
C340 C 0.45933 0.2659 0.49389 0.0
C341 C 0.31874 0.24989 0.49852 0.0
C342 C 0.29853 0.29753 0.50286 0.0
C343 C 0.28754 0.20623 0.50258 0.0
C344 C 0.30684 0.15371 0.50164 0.0
C345 C 0.34642 0.13386 0.52219 0.0
C346 C 0.36456 0.08446 0.52115 0.0
C347 C 0.34321 0.05438 0.49982 0.0
C348 C 0.3036 0.0736 0.47953 0.0
C349 C 0.28535 0.12299 0.48044 0.0
H350 H 0.35729 0.01614 0.49907 0.0
H351 H 0.18606 0.48582 0.53645 0.0
H352 H 0.69663 0.57993 0.0407 0.0
H353 H 0.62621 0.5218 0.04132 0.0
H354 H 0.58243 0.59805 0.94448 0.0
H355 H 0.65212 0.65643 0.9437 0.0
H356 H 0.50515 0.58465 0.98753 0.0
H357 H 0.63858 0.48292 0.95363 0.0
H358 H 0.7217 0.44384 0.96022 0.0
H359 H 0.67901 0.35545 0.05288 0.0
H360 H 0.59572 0.39443 0.04695 0.0
H361 H 0.32768 0.40772 0.94809 0.0
H362 H 0.40109 0.46166 0.94706 0.0
H363 H 0.44682 0.37817 0.04159 0.0
H364 H 0.37401 0.32362 0.04259 0.0
H365 H 0.52348 0.39517 0.00075 0.0
H366 H 0.39065 0.49475 0.03516 0.0
H367 H 0.30925 0.53749 0.03185 0.0
H368 H 0.3511 0.63277 0.94143 0.0
H369 H 0.43244 0.58974 0.94375 0.0
C370 C 0.67224 0.58403 0.01944 0.0
C371 C 0.68008 0.62261 0.99212 0.0
C372 C 0.63208 0.55082 0.01983 0.0
C373 C 0.59939 0.55557 0.99285 0.0
C374 C 0.60728 0.59385 0.96553 0.0
C375 C 0.64732 0.62697 0.96509 0.0
C376 C 0.55639 0.52117 0.99314 0.0
C377 C 0.50905 0.54325 0.98993 0.0
C378 C 0.56178 0.46719 -0.00277 0.0
C379 C 0.61112 0.44205 5e-05 0.0
C380 C 0.64701 0.45537 0.9755 0.0
C381 C 0.69417 0.4333 0.97912 0.0
C382 C 0.70577 0.39759 0.0071 0.0
C383 C 0.67005 0.38336 0.03131 0.0
C384 C 0.62283 0.40531 0.02779 0.0
C385 C 0.35343 0.40075 0.96861 0.0
C386 C 0.3448 0.36179 0.99558 0.0
C387 C 0.39523 0.43171 0.96804 0.0
C388 C 0.4289 0.42442 0.99451 0.0
C389 C 0.42113 0.38458 0.021 0.0
C390 C 0.3794 0.35357 0.02157 0.0
C391 C 0.47201 0.45866 0.99477 0.0
C392 C 0.51943 0.43656 -0.00182 0.0
C393 C 0.46665 0.51274 0.99101 0.0
C394 C 0.41747 0.53841 0.98939 0.0
C395 C 0.38232 0.52434 0.01433 0.0
C396 C 0.33618 0.54869 0.01266 0.0
C397 C 0.32488 0.58763 0.98635 0.0
C398 C 0.35976 0.60234 0.96167 0.0
C399 C 0.40591 0.57798 0.96315 0.0
H400 H 0.28927 0.60667 0.98522 0.0
H401 H 0.74237 0.38072 0.00991 0.0
H402 H 0.62764 0.31594 0.50609 0.0
H403 H 0.55492 0.37181 0.50198 0.0
H404 H 0.64444 0.50063 0.4596 0.0
H405 H 0.71753 0.44394 0.46283 0.0
H406 H 0.58964 0.51454 0.5167 0.0
H407 H 0.56261 0.46342 0.41193 0.0
H408 H 0.55025 0.40779 0.36985 0.0
H409 H 0.42538 0.33765 0.42314 0.0
H410 H 0.43742 0.39235 0.4659 0.0
H411 H 0.38782 0.68971 0.47053 0.0
H412 H 0.46168 0.63565 0.47187 0.0
H413 H 0.37885 0.50556 0.52001 0.0
H414 H 0.30488 0.56016 0.51972 0.0
H415 H 0.4309 0.49313 0.45978 0.0
H416 H 0.45385 0.54934 0.5624 0.0
H417 H 0.46453 0.60646 0.60371 0.0
H418 H 0.59859 0.66511 0.5568 0.0
H419 H 0.58747 0.61046 0.514 0.0
C420 C 0.63153 0.35604 0.49538 0.0
C421 C 0.67781 0.37607 0.48489 0.0
C422 C 0.59004 0.38776 0.4929 0.0
C423 C 0.59443 0.44018 0.48045 0.0
C424 C 0.64049 0.46011 0.46913 0.0
C425 C 0.68199 0.42794 0.47091 0.0
C426 C 0.55175 0.47448 0.4824 0.0
C427 C 0.55516 0.5109 0.50372 0.0
C428 C 0.5064 0.46755 0.46655 0.0
C429 C 0.50122 0.43177 0.44229 0.0
C430 C 0.53305 0.43551 0.41502 0.0
C431 C 0.52596 0.40427 0.39096 0.0
C432 C 0.48703 0.36923 0.3938 0.0
C433 C 0.45547 0.36488 0.42095 0.0
C434 C 0.46244 0.39597 0.44512 0.0
C435 C 0.38546 0.64959 0.48151 0.0
C436 C 0.34078 0.62868 0.49471 0.0
C437 C 0.42768 0.61901 0.48252 0.0
C438 C 0.42554 0.56688 0.49616 0.0
C439 C 0.38102 0.5459 0.50956 0.0
C440 C 0.33899 0.5769 0.50935 0.0
C441 C 0.46883 0.53365 0.49387 0.0
C442 C 0.46544 0.49718 0.47262 0.0
C443 C 0.51413 0.54058 0.50992 0.0
C444 C 0.51922 0.57622 0.53443 0.0
C445 C 0.48489 0.57539 0.5602 0.0
C446 C 0.49113 0.60728 0.58402 0.0
C447 C 0.5321 0.6395 0.5828 0.0
C448 C 0.56675 0.64023 0.55763 0.0
C449 C 0.5603 0.60904 0.53343 0.0
H450 H 0.53711 0.66372 0.60145 0.0
H451 H 0.48123 0.34556 0.37491 0.0
H452 H 0.12115 0.19986 0.98716 0.0
H453 H 0.05011 0.14245 0.98603 0.0
H454 H 0.13985 0.0137 0.02972 0.0
H455 H 0.21031 0.07128 0.03244 0.0
H456 H 0.08002 0.01579 0.9612 0.0
H457 H 0.07582 0.02669 0.07673 0.0
H458 H 0.07305 0.06895 0.12596 0.0
H459 H 0.9339 0.13877 0.09389 0.0
H460 H 0.93624 0.09733 0.04409 0.0
H461 H 0.90525 0.81238 0.02166 0.0
H462 H 0.97054 0.876 0.02209 0.0
H463 H 0.87977 0.99 0.96251 0.0
H464 H 0.81434 0.92569 0.96104 0.0
H465 H 0.93769 0.99779 0.03804 0.0
H466 H 0.94847 0.99169 0.91905 0.0
H467 H 0.95219 0.94531 0.87152 0.0
H468 H 0.07887 0.86045 0.91404 0.0
H469 H 0.07556 0.90621 0.96201 0.0
C470 C 0.12538 0.1594 -0.00305 0.0
C471 C 0.17092 0.1398 0.00999 0.0
C472 C 0.08494 0.12682 0.99631 0.0
C473 C 0.08998 0.0741 0.00792 0.0
C474 C 0.13541 0.05444 0.02093 0.0
C475 C 0.17542 0.08726 0.02254 0.0
C476 C 0.04855 0.03914 0.00464 0.0
C477 C 0.04897 0.01176 0.97805 0.0
C478 C 1.00803 0.0344 0.02653 0.0
C479 C 1.00699 0.06019 0.0561 0.0
C480 C 0.04521 0.052 0.07971 0.0
C481 C 0.04352 0.07546 0.10789 0.0
C482 C 1.00349 0.10674 0.11297 0.0
C483 C 0.96501 0.11464 0.08987 0.0
C484 C 0.96652 0.09118 0.06165 0.0
C485 C 0.8992 0.85096 0.00853 0.0
C486 C 0.85471 0.86437 0.99146 0.0
C487 C 0.93653 0.88709 0.00875 0.0
C488 C 0.92974 0.93736 0.99233 0.0
C489 C 0.88551 0.95109 0.97514 0.0
C490 C 0.84836 0.9145 0.9743 0.0
C491 C 0.96885 0.97541 0.99431 0.0
C492 C 0.96837 0.00275 0.0209 0.0
C493 C 1.00948 0.97991 0.97264 0.0
C494 C 0.01137 0.95185 0.94422 0.0
C495 C 0.97672 0.96269 0.91843 0.0
C496 C 0.97888 0.93671 0.89137 0.0
C497 C 0.0157 0.89998 0.88977 0.0
C498 C 0.05038 0.88897 0.9153 0.0
C499 C 0.04842 0.91496 0.94242 0.0
H500 H 0.01745 0.88044 0.86858 0.0
H501 H 1.00212 0.12436 0.13499 0.0
H502 H 0.88656 0.15282 0.55109 0.0
H503 H 0.95512 0.09215 0.54879 0.0
H504 H 0.87656 0.02534 0.47451 0.0
H505 H 0.80895 0.08715 0.47595 0.0
H506 H 0.92595 0.9525 0.52237 0.0
H507 H 0.94966 0.10998 0.45166 0.0
H508 H 0.96007 0.20238 0.43261 0.0
H509 H 0.09613 0.19981 0.48661 0.0
H510 H 0.08398 0.10872 0.50922 0.0
H511 H 0.14642 0.85924 0.4443 0.0
H512 H 0.07274 0.91297 0.44829 0.0
H513 H 0.1213 0.94047 0.5441 0.0
H514 H 0.19353 0.88522 0.54089 0.0
H515 H 0.08551 0.03086 0.48256 0.0
H516 H 0.05048 0.86942 0.55717 0.0
H517 H 0.03917 0.77566 0.56912 0.0
H518 H 0.92464 0.78622 0.49558 0.0
H519 H 0.93687 0.87959 0.48216 0.0
C520 C 0.8835 0.12407 0.53507 0.0
C521 C 0.84268 0.12384 0.51394 0.0
C522 C 0.92265 0.08987 0.53357 0.0
C523 C 0.92085 0.05471 0.51129 0.0
C524 C 0.87845 0.05221 0.49185 0.0
C525 C 0.83996 0.08726 0.49273 0.0
C526 C 0.96459 0.02331 0.50632 0.0
C527 C 0.96081 0.96968 0.51363 0.0
C528 C 1.00978 0.04601 0.49436 0.0
C529 C 0.01507 0.10226 0.48297 0.0
C530 C 0.98073 0.12937 0.46075 0.0
C531 C 0.9869 0.18179 0.44936 0.0
C532 C 0.02823 0.20734 0.45894 0.0
C533 C 0.06335 0.18048 0.48007 0.0
C534 C 0.05654 0.12852 0.49249 0.0
C535 C 0.14152 0.87744 0.46593 0.0
C536 C 0.17541 0.86863 0.49224 0.0
C537 C 0.09946 0.90756 0.4683 0.0
C538 C 0.09168 0.92984 0.49667 0.0
C539 C 0.12672 0.92302 0.52221 0.0
C540 C 0.16786 0.8918 0.52029 0.0
C541 C 0.04714 0.96073 0.49984 0.0
C542 C 0.0507 0.01414 0.49176 0.0
C543 C 1.00164 0.93797 0.51052 0.0
C544 C 0.99539 0.88147 0.51815 0.0
C545 C 0.02379 0.85162 0.54295 0.0
C546 C 0.01713 0.79845 0.55005 0.0
C547 C 0.98152 0.77481 0.53291 0.0
C548 C 0.9526 0.8043 0.50861 0.0
C549 C 0.9595 0.85735 0.50117 0.0
H550 H 0.9761 0.73372 0.53861 0.0
H551 H 0.03339 0.24775 0.44968 0.0
H552 H 0.57237 0.32204 0.35533 0.0
H553 H 0.54769 0.3197 0.29793 0.0
H554 H 0.54986 0.15415 0.31772 0.0
H555 H 0.57481 0.15661 0.37495 0.0
H556 H 0.57813 0.26756 0.24153 0.0
H557 H 0.43276 0.12252 0.29743 0.0
H558 H 0.39081 0.09522 0.35066 0.0
H559 H 0.40587 0.24721 0.3743 0.0
H560 H 0.44749 0.27537 0.32118 0.0
H561 H 0.43806 0.18799 0.10992 0.0
H562 H 0.48811 0.18864 0.1597 0.0
H563 H 0.37466 0.27609 0.19945 0.0
H564 H 0.32413 0.27468 0.15025 0.0
H565 H 0.40616 0.20194 0.24522 0.0
H566 H 0.48246 0.33129 0.16509 0.0
H567 H 0.5227 0.36428 0.11212 0.0
H568 H 0.64177 0.25657 0.13609 0.0
H569 H 0.60184 0.22235 0.18898 0.0
C570 C 0.56963 0.28535 0.34689 0.0
C571 C 0.57565 0.23954 0.36923 0.0
C572 C 0.55562 0.28398 0.31418 0.0
C573 C 0.54668 0.23674 0.30372 0.0
C574 C 0.55675 0.19095 0.32534 0.0
C575 C 0.5712 0.19235 0.35791 0.0
C576 C 0.51873 0.23526 0.27277 0.0
C577 C 0.54068 0.25294 0.24218 0.0
C578 C 0.46955 0.21719 0.2738 0.0
C579 C 0.44365 0.20083 0.30551 0.0
C580 C 0.42696 0.15008 0.31397 0.0
C581 C 0.4033 0.13446 0.34414 0.0
C582 C 0.39586 0.16939 0.36592 0.0
C583 C 0.41187 0.22009 0.35751 0.0
C584 C 0.43558 0.23586 0.32741 0.0
C585 C 0.42378 0.20734 0.12928 0.0
C586 C 0.37709 0.23131 0.1261 0.0
C587 C 0.45255 0.20789 0.15766 0.0
C588 C 0.4354 0.23287 0.18321 0.0
C589 C 0.3887 0.25655 0.1801 0.0
C590 C 0.35987 0.2558 0.15188 0.0
C591 C 0.46545 0.23391 0.21352 0.0
C592 C 0.4438 0.21613 0.24425 0.0
C593 C 0.51453 0.25282 0.21246 0.0
C594 C 0.53889 0.2739 0.18086 0.0
C595 C 0.51705 0.3144 0.15897 0.0
C596 C 0.53982 0.33334 0.12897 0.0
C597 C 0.58469 0.31242 0.12072 0.0
C598 C 0.60697 0.27266 0.1425 0.0
C599 C 0.5843 0.2535 0.1725 0.0
H600 H 0.60227 0.32704 0.0975 0.0
H601 H 0.37757 0.15722 0.38926 0.0
H602 H 0.48073 0.82226 0.1058 0.0
H603 H 0.45789 0.83294 0.16163 0.0
H604 H 0.58781 0.74814 0.20005 0.0
H605 H 0.61067 0.73663 0.14366 0.0
H606 H 0.50383 0.71413 0.23395 0.0
H607 H 0.58257 0.87454 0.20134 0.0
H608 H 0.60246 0.95603 0.16547 0.0
H609 H 0.45226 0.00674 0.17103 0.0
H610 H 0.43121 0.92519 0.20651 0.0
H611 H 0.4341 0.76723 0.39307 0.0
H612 H 0.48317 0.76472 0.34341 0.0
H613 H 0.36736 0.84578 0.28368 0.0
H614 H 0.3182 0.84878 0.33315 0.0
H615 H 0.45903 0.88265 0.26479 0.0
H616 H 0.37874 0.71724 0.28987 0.0
H617 H 0.35804 0.63568 0.32549 0.0
H618 H 0.51188 0.59505 0.33395 0.0
H619 H 0.53353 0.67674 0.29868 0.0
C620 C 0.50462 0.80603 0.1261 0.0
C621 C 0.54732 0.77827 0.12044 0.0
C622 C 0.49173 0.81256 0.15799 0.0
C623 C 0.52136 0.79177 0.18501 0.0
C624 C 0.56456 0.76468 0.17949 0.0
C625 C 0.57771 0.75836 0.14736 0.0
C626 C 0.50499 0.79621 0.21892 0.0
C627 C 0.49519 0.75104 0.24103 0.0
C628 C 0.49285 0.84435 0.22791 0.0
C629 C 0.50525 0.89351 0.20646 0.0
C630 C 0.55366 0.90286 0.19471 0.0
C631 C 0.56516 0.94912 0.17447 0.0
C632 C 0.52863 0.98651 0.16594 0.0
C633 C 0.48052 0.97773 0.17765 0.0
C634 C 0.4688 0.93151 0.19787 0.0
C635 C 0.41918 0.78484 0.36939 0.0
C636 C 0.3721 0.80802 0.36704 0.0
C637 C 0.44724 0.78321 0.34103 0.0
C638 C 0.42873 0.80466 0.30983 0.0
C639 C 0.38236 0.82901 0.30752 0.0
C640 C 0.35422 0.83052 0.33583 0.0
C641 C 0.45679 0.80061 0.27935 0.0
C642 C 0.46865 0.84584 0.25793 0.0
C643 C 0.4708 0.75258 0.27099 0.0
C644 C 0.4578 0.70334 0.29199 0.0
C645 C 0.40818 0.69109 0.29955 0.0
C646 C 0.39627 0.64481 0.31963 0.0
C647 C 0.43364 0.61028 0.33208 0.0
C648 C 0.48299 0.62188 0.32435 0.0
C649 C 0.4951 0.66814 0.3043 0.0
H650 H 0.42435 0.57449 0.34763 0.0
H651 H 0.53762 0.02231 0.15029 0.0
H652 H 0.51712 0.84292 0.61376 0.0
H653 H 0.53989 0.84368 0.67127 0.0
H654 H 0.43528 0.723 0.7026 0.0
H655 H 0.41253 0.72161 0.64443 0.0
H656 H 0.45689 0.82511 0.7425 0.0
H657 H 0.52157 0.66777 0.708 0.0
H658 H 0.5576 0.62367 0.66499 0.0
H659 H 0.68021 0.72779 0.65543 0.0
H660 H 0.64451 0.77286 0.69816 0.0
H661 H 0.58828 0.76967 0.89672 0.0
H662 H 0.53714 0.76372 0.84824 0.0
H663 H 0.66035 0.81379 0.78485 0.0
H664 H 0.71205 0.81814 0.83324 0.0
H665 H 0.61868 0.73659 0.76436 0.0
H666 H 0.55842 0.89384 0.79639 0.0
H667 H 0.52277 0.94754 0.83439 0.0
H668 H 0.39334 0.85274 0.84569 0.0
H669 H 0.42849 0.79817 0.80798 0.0
C670 C 0.49817 0.81729 0.63294 0.0
C671 C 0.46355 0.78175 0.62478 0.0
C672 C 0.51101 0.81798 0.66572 0.0
C673 C 0.48937 0.78332 0.69101 0.0
C674 C 0.45208 0.75023 0.68329 0.0
C675 C 0.43917 0.74943 0.6502 0.0
C676 C 0.51162 0.77753 0.72434 0.0
C677 C 0.49155 0.80462 0.74787 0.0
C678 C 0.55754 0.7522 0.73062 0.0
C679 C 0.58027 0.72377 0.7061 0.0
C680 C 0.55614 0.68131 0.69664 0.0
C681 C 0.57649 0.65615 0.67233 0.0
C682 C 0.62111 0.673 0.65742 0.0
C683 C 0.64565 0.7148 0.66699 0.0
C684 C 0.62543 0.74008 0.6913 0.0
C685 C 0.60437 0.77981 0.87243 0.0
C686 C 0.65424 0.79449 0.8688 0.0
C687 C 0.57501 0.77651 0.84471 0.0
C688 C 0.59467 0.78871 0.81279 0.0
C689 C 0.64432 0.80397 0.80919 0.0
C690 C 0.67383 0.80666 0.83688 0.0
C691 C 0.56426 0.78447 0.78305 0.0
C692 C 0.58327 0.75589 0.75982 0.0
C693 C 0.5175 0.80879 0.7771 0.0
C694 C 0.49632 0.84161 0.79968 0.0
C695 C 0.52252 0.88424 0.80718 0.0
C696 C 0.50237 0.91487 0.82862 0.0
C697 C 0.45589 0.90345 0.84253 0.0
C698 C 0.42938 0.86148 0.83494 0.0
C699 C 0.44937 0.83073 0.81351 0.0
H700 H 0.44036 0.9272 0.85914 0.0
H701 H 0.63668 0.65363 0.63848 0.0
H702 H 0.48781 0.30829 0.85358 0.0
H703 H 0.51104 0.29421 0.79805 0.0
H704 H 0.47318 0.13411 0.82347 0.0
H705 H 0.44916 0.14822 0.87895 0.0
H706 H 0.57178 0.15527 0.79852 0.0
H707 H 0.40381 0.19937 0.7704 0.0
H708 H 0.32785 0.25175 0.76775 0.0
H709 H 0.4038 0.37894 0.71132 0.0
H710 H 0.48048 0.32757 0.71405 0.0
H711 H 0.63129 0.10427 0.63786 0.0
H712 H 0.58733 0.10818 0.68942 0.0
H713 H 0.59225 0.27372 0.66952 0.0
H714 H 0.63534 0.27021 0.61787 0.0
H715 H 0.50341 0.24228 0.69157 0.0
H716 H 0.67192 0.20483 0.72441 0.0
H717 H 0.7506 0.15676 0.72843 0.0
H718 H 0.67686 0.02193 0.77726 0.0
H719 H 0.59755 0.06907 0.77313 0.0
C720 C 0.48341 0.2704 0.847 0.0
C721 C 0.46649 0.22938 0.87035 0.0
C722 C 0.49662 0.26241 0.81537 0.0
C723 C 0.49369 0.21315 0.80676 0.0
C724 C 0.47545 0.1724 0.8297 0.0
C725 C 0.46145 0.18057 0.8612 0.0
C726 C 0.51361 0.20371 0.77476 0.0
C727 C 0.55627 0.17332 0.77506 0.0
C728 C 0.49407 0.22862 0.74437 0.0
C729 C 0.44804 0.25972 0.74269 0.0
C730 C 0.40447 0.23867 0.75769 0.0
C731 C 0.36124 0.26814 0.75612 0.0
C732 C 0.36103 0.31868 0.73945 0.0
C733 C 0.40403 0.3398 0.72426 0.0
C734 C 0.44738 0.3105 0.72578 0.0
C735 C 0.62295 0.1415 0.64445 0.0
C736 C 0.63704 0.18692 0.62383 0.0
C737 C 0.59793 0.14366 0.67396 0.0
C738 C 0.58686 0.19125 0.68345 0.0
C739 C 0.60031 0.23658 0.66267 0.0
C740 C 0.62519 0.23447 0.6332 0.0
C741 C 0.56199 0.19414 0.71526 0.0
C742 C 0.51854 0.22351 0.71497 0.0
C743 C 0.58116 0.16881 0.74575 0.0
C744 C 0.6287 0.14028 0.74807 0.0
C745 C 0.6724 0.16479 0.73571 0.0
C746 C 0.71712 0.13775 0.73808 0.0
C747 C 0.7187 0.08628 0.75299 0.0
C748 C 0.67556 0.06177 0.76564 0.0
C749 C 0.63072 0.08863 0.76331 0.0
H750 H 0.75337 0.06542 0.75482 0.0
H751 H 0.32752 0.34143 0.73824 0.0
H752 H 0.07236 0.61292 0.36676 0.0
H753 H 0.05278 0.615 0.30804 0.0
H754 H 0.04475 0.78026 0.29448 0.0
H755 H 0.06531 0.77826 0.35284 0.0
H756 H 0.95105 0.70524 0.29077 0.0
H757 H 0.11439 0.75914 0.25032 0.0
H758 H 0.20463 0.74884 0.24641 0.0
H759 H 0.18422 0.60586 0.2109 0.0
H760 H 0.09378 0.61492 0.21515 0.0
H761 H 0.84597 0.78094 0.13487 0.0
H762 H 0.89726 0.77475 0.18429 0.0
H763 H 0.96191 0.63403 0.16293 0.0
H764 H 0.9118 0.64111 0.11252 0.0
H765 H 0.03128 0.69041 0.18424 0.0
H766 H 0.87172 0.6335 0.2226 0.0
H767 H 0.78114 0.63661 0.22829 0.0
H768 H 0.79311 0.77473 0.27058 0.0
H769 H 0.88375 0.77286 0.26472 0.0
C770 C 0.06933 0.64965 0.3507 0.0
C771 C 0.07096 0.69548 0.3639 0.0
C772 C 0.05794 0.65083 0.3173 0.0
C773 C 0.04762 0.69781 0.29707 0.0
C774 C 0.05339 0.74377 0.30968 0.0
C775 C 0.06535 0.74263 0.34288 0.0
C776 C 0.02005 0.69845 0.26596 0.0
C777 C 0.96852 0.70266 0.26732 0.0
C778 C 0.04303 0.69287 0.23595 0.0
C779 C 0.09734 0.68734 0.23352 0.0
C780 C 0.12914 0.72516 0.24212 0.0
C781 C 0.18033 0.71965 0.23972 0.0
C782 C 0.20017 0.67662 0.22854 0.0
C783 C 0.16882 0.63911 0.21964 0.0
C784 C 0.11759 0.64443 0.22202 0.0
C785 C 0.87091 0.74852 0.14072 0.0
C786 C 0.87447 0.7112 0.12 0.0
C787 C 0.90022 0.74499 0.16903 0.0
C788 C 0.93285 0.70343 0.17767 0.0
C789 C 0.93693 0.66637 0.15681 0.0
C790 C 0.90808 0.6703 0.12814 0.0
C791 C 0.96198 0.69862 0.20875 0.0
C792 C 0.01364 0.69305 0.20759 0.0
C793 C 0.93908 0.70205 0.23928 0.0
C794 C 0.88453 0.70327 0.24294 0.0
C795 C 0.85502 0.66475 0.23289 0.0
C796 C 0.80366 0.66626 0.23618 0.0
C797 C 0.78138 0.70591 0.24971 0.0
C798 C 0.81042 0.74407 0.26006 0.0
C799 C 0.86179 0.74278 0.25679 0.0
H800 H 0.74161 0.70702 0.25224 0.0
H801 H 0.23981 0.67244 0.22668 0.0
H802 H 0.84341 0.3936 0.34657 0.0
H803 H 0.88132 0.3866 0.29332 0.0
H804 H 0.94908 0.24287 0.33614 0.0
H805 H 0.91149 0.24944 0.3891 0.0
H806 H 0.0128 0.30279 0.29606 0.0
H807 H 0.84599 0.24177 0.29284 0.0
H808 H 0.75523 0.2465 0.29674 0.0
H809 H 0.75249 0.37575 0.21839 0.0
H810 H 0.84337 0.37227 0.21438 0.0
H811 H 0.97583 0.21307 0.12479 0.0
H812 H 0.95139 0.2193 0.18106 0.0
H813 H 0.0465 0.35046 0.17998 0.0
H814 H 0.07147 0.3442 0.12361 0.0
H815 H 0.9027 0.29623 0.19987 0.0
H816 H 0.08299 0.35638 0.25987 0.0
H817 H 0.17294 0.34221 0.25704 0.0
H818 H 0.14776 0.19831 0.22369 0.0
H819 H 0.05773 0.21127 0.22675 0.0
C820 C 0.86668 0.36072 0.34468 0.0
C821 C 0.87436 0.32198 0.37203 0.0
C822 C 0.88824 0.35677 0.31428 0.0
C823 C 0.91774 0.31407 0.31084 0.0
C824 C 0.92659 0.27621 0.33834 0.0
C825 C 0.90493 0.27999 0.36859 0.0
C826 C 0.93761 0.30728 0.27832 0.0
C827 C 0.98884 0.30166 0.27493 0.0
C828 C 0.90613 0.30472 0.25105 0.0
C829 C 0.85153 0.30717 0.25361 0.0
C830 C 0.82608 0.27154 0.27668 0.0
C831 C 0.77461 0.27392 0.27886 0.0
C832 C 0.74812 0.31151 0.2579 0.0
C833 C 0.77306 0.34674 0.23467 0.0
C834 C 0.82455 0.34457 0.23243 0.0
C835 C 0.99223 0.24269 0.13668 0.0
C836 C 0.02578 0.27795 0.11973 0.0
C837 C 0.97809 0.24632 0.16881 0.0
C838 C 0.99715 0.28531 0.18469 0.0
C839 C 0.03187 0.31963 0.16832 0.0
C840 C 0.04624 0.31587 0.13614 0.0
C841 C 0.97802 0.29198 0.21745 0.0
C842 C 0.92683 0.29775 0.22088 0.0
C843 C 1.00949 0.29355 0.24487 0.0
C844 C 0.0636 0.28513 0.2432 0.0
C845 C 0.09666 0.32165 0.25203 0.0
C846 C 0.14766 0.31383 0.25037 0.0
C847 C 0.16605 0.26948 0.24008 0.0
C848 C 0.13347 0.23276 0.23152 0.0
C849 C 0.08245 0.24036 0.23316 0.0
H850 H 0.20554 0.26351 0.2388 0.0
H851 H 0.70826 0.31324 0.25959 0.0
H852 H 0.09037 0.32643 0.88632 0.0
H853 H 0.04124 0.32607 0.83626 0.0
H854 H 0.13426 0.20616 0.80959 0.0
H855 H 0.18433 0.20728 0.8591 0.0
H856 H 0.11753 0.27584 0.75774 0.0
H857 H 0.01737 0.18213 0.84317 0.0
H858 H 0.97289 0.16891 0.89617 0.0
H859 H 0.87906 0.29812 0.86153 0.0
H860 H 0.9235 0.31259 0.80846 0.0
H861 H 0.98181 0.18177 0.64064 0.0
H862 H 1.00141 0.18084 0.6989 0.0
H863 H 0.94004 0.33304 0.69313 0.0
H864 H 0.92048 0.33425 0.6345 0.0
H865 H 0.93552 0.2517 0.76132 0.0
H866 H 0.04322 0.34716 0.67663 0.0
H867 H 0.08507 0.35332 0.62282 0.0
H868 H 0.16349 0.213 0.65712 0.0
H869 H 0.12145 0.20564 0.71098 0.0
C870 C 0.1004 0.30001 0.86977 0.0
C871 C 0.14119 0.26679 0.87669 0.0
C872 C 0.0721 0.29967 0.84126 0.0
C873 C 0.08363 0.26558 0.8194 0.0
C874 C 0.12464 0.23275 0.82613 0.0
C875 C 0.15319 0.23338 0.85447 0.0
C876 C 0.05352 0.26445 0.78923 0.0
C877 C 0.07782 0.27031 0.75872 0.0
C878 C 1.00148 0.25794 0.79029 0.0
C879 C 0.97411 0.24877 0.82196 0.0
C880 C 0.98746 0.20793 0.84692 0.0
C881 C 0.96223 0.20019 0.87697 0.0
C882 C 0.92328 0.23277 0.88226 0.0
C883 C 0.90931 0.27299 0.85743 0.0
C884 C 0.93448 0.28095 0.82734 0.0
C885 C 0.97053 0.21408 0.65221 0.0
C886 C 0.95023 0.25831 0.6332 0.0
C887 C 0.98157 0.21344 0.68544 0.0
C888 C 0.97254 0.25705 0.70005 0.0
C889 C 0.94692 0.29896 0.68221 0.0
C890 C 0.93581 0.29962 0.64879 0.0
C891 C 0.99982 0.26289 0.73042 0.0
C892 C 0.97514 0.25784 0.76068 0.0
C893 C 0.05159 0.26983 0.72934 0.0
C894 C 0.07899 0.2757 0.69771 0.0
C895 C 0.06932 0.31759 0.67265 0.0
C896 C 0.09305 0.32129 0.64216 0.0
C897 C 0.12685 0.28353 0.63654 0.0
C898 C 0.13728 0.24221 0.66151 0.0
C899 C 0.11358 0.2383 0.69204 0.0
H900 H 0.1449 0.28625 0.61285 0.0
H901 H 0.90385 0.22679 0.90556 0.0
H902 H 0.10897 0.67562 0.61395 0.0
H903 H 0.06645 0.67658 0.66623 0.0
H904 H 0.18332 0.76865 0.69781 0.0
H905 H 0.22652 0.76719 0.64582 0.0
H906 H 0.15813 0.69319 0.74591 0.0
H907 H 0.07237 0.82257 0.67058 0.0
H908 H 0.02636 0.85689 0.61979 0.0
H909 H 0.91139 0.74655 0.64669 0.0
H910 H 0.95694 0.71129 0.6976 0.0
H911 H 0.04763 0.79496 0.8746 0.0
H912 H 0.07624 0.79254 0.81881 0.0
H913 H 0.97095 0.67371 0.80897 0.0
H914 H 0.94301 0.67436 0.86562 0.0
H915 H 0.98587 0.75715 0.74989 0.0
H916 H 0.07217 0.63192 0.82784 0.0
H917 H 0.12084 0.59858 0.87761 0.0
H918 H 0.23793 0.70351 0.84462 0.0
H919 H 0.18933 0.73857 0.79506 0.0
C920 C 0.1258 0.69584 0.63209 0.0
C921 C 0.17115 0.72135 0.62576 0.0
C922 C 0.10124 0.69665 0.66185 0.0
C923 C 0.1214 0.72327 0.6857 0.0
C924 C 0.16707 0.74798 0.67968 0.0
C925 C 0.19171 0.74711 0.64996 0.0
C926 C 0.09533 0.72491 0.71717 0.0
C927 C 0.12068 0.70772 0.74676 0.0
C928 C 0.04597 0.74262 0.71819 0.0
C929 C 0.0183 0.76396 0.68774 0.0
C930 C 0.03743 0.80539 0.66556 0.0
C931 C 0.0114 0.82507 0.63677 0.0
C932 C 0.96605 0.8038 0.62995 0.0
C933 C 0.94655 0.76294 0.65199 0.0
C934 C 0.97241 0.74315 0.68085 0.0
C935 C 0.02987 0.76876 0.86057 0.0
C936 C 0.99334 0.73444 0.87491 0.0
C937 C 0.04629 0.76754 0.82861 0.0
C938 C 0.02608 0.73251 0.81008 0.0
C939 C 0.98694 0.70097 0.82307 0.0
C940 C 0.97085 0.70166 0.85538 0.0
C941 C 0.04911 0.72618 0.77844 0.0
C942 C 0.02323 0.74242 0.74892 0.0
C943 C 0.09823 0.708 0.77741 0.0
C944 C 0.1268 0.68828 0.80785 0.0
C945 C 0.10794 0.64849 0.83142 0.0
C946 C 0.13563 0.62911 0.85954 0.0
C947 C 0.18254 0.64875 0.86421 0.0
C948 C 0.2017 0.68812 0.84088 0.0
C949 C 0.174 0.70791 0.81284 0.0
H950 H 0.20395 0.63366 0.88597 0.0
H951 H 0.94598 0.81906 0.60763 0.0
loop_
_geom_bond_atom_site_label_1
_geom_bond_atom_site_label_2
_geom_bond_distance
_geom_bond_site_symmetry_2
_ccdc_geom_bond_type
Eu0 O2 2.323 . S
Eu0 O10 2.328 . S
Eu0 O21 2.316 . S
Eu0 C22 2.837 1_554 S
Eu0 O23 2.488 1_554 S
Eu0 O31 2.461 . S
C1 O12 1.251 1_554 S
C1 O21 1.237 . S
O2 Eu0 2.323 . S
O2 C18 1.279 . S
C3 C5 1.383 . S
C3 C7 1.388 . S
C3 C17 1.491 . S
C4 C6 1.403 . S
C4 C8 1.385 . S
C4 H32 0.931 1_455 S
C5 C3 1.383 . S
C5 C6 1.393 . S
C5 H33 0.930 . S
C6 C4 1.403 . S
C6 C5 1.393 . S
C7 C3 1.388 . S
C7 C8 1.394 . S
C7 H34 0.930 . S
C8 C4 1.385 . S
C8 C7 1.394 . S
Eu9 O11 2.323 . S
Eu9 O12 2.328 . S
Eu9 O13 2.316 . S
Eu9 O16 2.488 1_556 S
Eu9 C17 2.837 1_556 S
Eu9 O20 2.461 . S
O10 Eu0 2.328 . S
O10 C30 1.251 1_554 S
O11 Eu9 2.323 . S
O11 C14 1.279 . S
O12 C1 1.251 1_556 S
O12 Eu9 2.328 . S
O13 Eu9 2.316 . S
O13 C30 1.237 . S
C14 O11 1.279 . S
C14 O15 1.244 . S
O15 C14 1.244 . S
O16 Eu9 2.488 1_554 S
O16 C17 1.271 . S
C17 C3 1.491 . S
C17 Eu9 2.837 1_554 S
C17 O16 1.271 . S
C17 O20 1.261 1_554 S
C18 O2 1.279 . S
C18 O19 1.244 . S
O19 C18 1.244 . S
O20 Eu9 2.461 . S
O20 C17 1.261 1_556 S
O21 Eu0 2.316 . S
O21 C1 1.237 . S
C22 Eu0 2.837 1_556 S
C22 O23 1.271 . S
C22 C24 1.491 . S
C22 O31 1.261 1_556 S
O23 Eu0 2.488 1_556 S
O23 C22 1.271 . S
C24 C22 1.491 . S
C24 C26 1.383 . S
C24 C28 1.388 . S
C25 C27 1.403 . S
C25 C29 1.385 . S
C25 H35 0.931 . S
C26 C24 1.383 . S
C26 C27 1.393 . S
C26 H36 0.930 . S
C27 C25 1.403 . S
C27 C26 1.393 . S
C28 C24 1.388 . S
C28 C29 1.394 . S
C28 H37 0.930 . S
C29 C25 1.385 . S
C29 C28 1.394 . S
C30 O10 1.251 1_556 S
C30 O13 1.237 . S
O31 Eu0 2.461 . S
O31 C22 1.261 1_554 S
H32 C4 0.931 1_655 S
H33 C5 0.930 . S
H34 C7 0.930 . S
H35 C25 0.931 . S
H36 C26 0.930 . S
H37 C28 0.930 . S
Eu38 O40 2.323 . S
Eu38 O48 2.328 . S
Eu38 O59 2.316 . S
Eu38 C60 2.837 1_554 S
Eu38 O61 2.488 1_554 S
Eu38 O69 2.461 . S
C39 O50 1.251 1_554 S
C39 O59 1.237 . S
O40 Eu38 2.323 . S
O40 C56 1.279 . S
C41 C43 1.383 . S
C41 C45 1.388 . S
C41 C55 1.491 . S
C42 C44 1.403 . S
C42 C46 1.385 . S
C42 H70 0.931 . S
C43 C41 1.383 . S
C43 C44 1.393 . S
C43 H71 0.930 . S
C44 C42 1.403 . S
C44 C43 1.393 . S
C45 C41 1.388 . S
C45 C46 1.394 . S
C45 H72 0.930 . S
C46 C42 1.385 . S
C46 C45 1.394 . S
Eu47 O49 2.323 . S
Eu47 O50 2.328 . S
Eu47 O51 2.316 . S
Eu47 O54 2.488 1_556 S
Eu47 C55 2.837 1_556 S
Eu47 O58 2.461 . S
O48 Eu38 2.328 . S
O48 C68 1.251 1_554 S
O49 Eu47 2.323 . S
O49 C52 1.279 . S
O50 C39 1.251 1_556 S
O50 Eu47 2.328 . S
O51 Eu47 2.316 . S
O51 C68 1.237 . S
C52 O49 1.279 . S
C52 O53 1.244 . S
O53 C52 1.244 . S
O54 Eu47 2.488 1_554 S
O54 C55 1.271 . S
C55 C41 1.491 . S
C55 Eu47 2.837 1_554 S
C55 O54 1.271 . S
C55 O58 1.261 1_554 S
C56 O40 1.279 . S
C56 O57 1.244 . S
O57 C56 1.244 . S
O58 Eu47 2.461 . S
O58 C55 1.261 1_556 S
O59 Eu38 2.316 . S
O59 C39 1.237 . S
C60 Eu38 2.837 1_556 S
C60 O61 1.271 . S
C60 C62 1.491 . S
C60 O69 1.261 1_556 S
O61 Eu38 2.488 1_556 S
O61 C60 1.271 . S
C62 C60 1.491 . S
C62 C64 1.383 . S
C62 C66 1.388 . S
C63 C65 1.403 . S
C63 C67 1.385 . S
C63 H73 0.931 1_655 S
C64 C62 1.383 . S
C64 C65 1.393 . S
C64 H74 0.930 . S
C65 C63 1.403 . S
C65 C64 1.393 . S
C66 C62 1.388 . S
C66 C67 1.394 . S
C66 H75 0.930 . S
C67 C63 1.385 . S
C67 C66 1.394 . S
C68 O48 1.251 1_556 S
C68 O51 1.237 . S
O69 Eu38 2.461 . S
O69 C60 1.261 1_554 S
H70 C42 0.931 . S
H71 C43 0.930 . S
H72 C45 0.930 . S
H73 C63 0.931 1_455 S
H74 C64 0.930 . S
H75 C66 0.930 . S
Eu76 O78 2.323 . S
Eu76 O86 2.328 . S
Eu76 O97 2.316 . S
Eu76 C98 2.837 . S
Eu76 O99 2.488 . S
Eu76 O107 2.461 . S
C77 O88 1.251 . S
C77 O97 1.237 . S
O78 Eu76 2.323 . S
O78 C94 1.279 . S
C79 C81 1.383 . S
C79 C83 1.388 . S
C79 C93 1.491 . S
C80 C82 1.403 . S
C80 C84 1.385 . S
C80 H108 0.931 1_455 S
C81 C79 1.383 . S
C81 C82 1.393 . S
C81 H109 0.930 . S
C82 C80 1.403 . S
C82 C81 1.393 . S
C83 C79 1.388 . S
C83 C84 1.394 . S
C83 H110 0.930 . S
C84 C80 1.385 . S
C84 C83 1.394 . S
Eu85 O87 2.323 . S
Eu85 O88 2.328 . S
Eu85 O89 2.316 . S
Eu85 O92 2.488 . S
Eu85 C93 2.837 . S
Eu85 O96 2.461 . S
O86 Eu76 2.328 . S
O86 C106 1.251 . S
O87 Eu85 2.323 . S
O87 C90 1.279 . S
O88 C77 1.251 . S
O88 Eu85 2.328 . S
O89 Eu85 2.316 . S
O89 C106 1.237 . S
C90 O87 1.279 . S
C90 O91 1.244 . S
O91 C90 1.244 . S
O92 Eu85 2.488 . S
O92 C93 1.271 . S
C93 C79 1.491 . S
C93 Eu85 2.837 . S
C93 O92 1.271 . S
C93 O96 1.261 . S
C94 O78 1.279 . S
C94 O95 1.244 . S
O95 C94 1.244 . S
O96 Eu85 2.461 . S
O96 C93 1.261 . S
O97 Eu76 2.316 . S
O97 C77 1.237 . S
C98 Eu76 2.837 . S
C98 O99 1.271 . S
C98 C100 1.491 . S
C98 O107 1.261 . S
O99 Eu76 2.488 . S
O99 C98 1.271 . S
C100 C98 1.491 . S
C100 C102 1.383 . S
C100 C104 1.388 . S
C101 C103 1.403 . S
C101 C105 1.385 . S
C101 H111 0.931 . S
C102 C100 1.383 . S
C102 C103 1.393 . S
C102 H112 0.930 . S
C103 C101 1.403 . S
C103 C102 1.393 . S
C104 C100 1.388 . S
C104 C105 1.394 . S
C104 H113 0.930 . S
C105 C101 1.385 . S
C105 C104 1.394 . S
C106 O86 1.251 . S
C106 O89 1.237 . S
O107 Eu76 2.461 . S
O107 C98 1.261 . S
H108 C80 0.931 1_655 S
H109 C81 0.930 . S
H110 C83 0.930 . S
H111 C101 0.931 . S
H112 C102 0.930 . S
H113 C104 0.930 . S
Eu114 O116 2.323 . S
Eu114 O124 2.328 . S
Eu114 O135 2.316 . S
Eu114 C136 2.837 . S
Eu114 O137 2.488 . S
Eu114 O145 2.461 . S
C115 O126 1.251 . S
C115 O135 1.237 . S
O116 Eu114 2.323 . S
O116 C132 1.279 . S
C117 C119 1.383 . S
C117 C121 1.388 . S
C117 C131 1.491 . S
C118 C120 1.403 . S
C118 C122 1.385 . S
C118 H146 0.931 . S
C119 C117 1.383 . S
C119 C120 1.393 . S
C119 H147 0.930 . S
C120 C118 1.403 . S
C120 C119 1.393 . S
C121 C117 1.388 . S
C121 C122 1.394 . S
C121 H148 0.930 . S
C122 C118 1.385 . S
C122 C121 1.394 . S
Eu123 O125 2.323 . S
Eu123 O126 2.328 . S
Eu123 O127 2.316 . S
Eu123 O130 2.488 . S
Eu123 C131 2.837 . S
Eu123 O134 2.461 . S
O124 Eu114 2.328 . S
O124 C144 1.251 . S
O125 Eu123 2.323 . S
O125 C128 1.279 . S
O126 C115 1.251 . S
O126 Eu123 2.328 . S
O127 Eu123 2.316 . S
O127 C144 1.237 . S
C128 O125 1.279 . S
C128 O129 1.244 . S
O129 C128 1.244 . S
O130 Eu123 2.488 . S
O130 C131 1.271 . S
C131 C117 1.491 . S
C131 Eu123 2.837 . S
C131 O130 1.271 . S
C131 O134 1.261 . S
C132 O116 1.279 . S
C132 O133 1.244 . S
O133 C132 1.244 . S
O134 Eu123 2.461 . S
O134 C131 1.261 . S
O135 Eu114 2.316 . S
O135 C115 1.237 . S
C136 Eu114 2.837 . S
C136 O137 1.271 . S
C136 C138 1.491 . S
C136 O145 1.261 . S
O137 Eu114 2.488 . S
O137 C136 1.271 . S
C138 C136 1.491 . S
C138 C140 1.383 . S
C138 C142 1.388 . S
C139 C141 1.403 . S
C139 C143 1.385 . S
C139 H149 0.931 1_655 S
C140 C138 1.383 . S
C140 C141 1.393 . S
C140 H150 0.930 . S
C141 C139 1.403 . S
C141 C140 1.393 . S
C142 C138 1.388 . S
C142 C143 1.394 . S
C142 H151 0.930 . S
C143 C139 1.385 . S
C143 C142 1.394 . S
C144 O124 1.251 . S
C144 O127 1.237 . S
O145 Eu114 2.461 . S
O145 C136 1.261 . S
H146 C118 0.931 . S
H147 C119 0.930 . S
H148 C121 0.930 . S
H149 C139 0.931 1_455 S
H150 C140 0.930 . S
H151 C142 0.930 . S
H152 C170 0.951 . S
H153 C172 0.951 . S
H154 C174 0.950 1_554 S
H155 C175 0.950 . S
H156 C177 0.950 . S
H157 C180 0.950 . S
H158 C181 0.950 . S
H159 C183 0.950 . S
H160 C184 0.950 . S
H161 C185 0.951 . S
H162 C187 0.951 . S
H163 C189 0.950 1_556 S
H164 C190 0.950 . S
H165 C192 0.950 . S
H166 C195 0.950 . S
H167 C196 0.950 . S
H168 C198 0.950 . S
H169 C199 0.950 . S
C170 H152 0.951 . S
C170 C171 1.366 . S
C170 C172 1.388 . S
C171 C170 1.366 . S
C171 C175 1.385 . S
C172 H153 0.951 . S
C172 C170 1.388 . S
C172 C173 1.366 . S
C173 C172 1.366 . S
C173 C174 1.414 . S
C173 C176 1.499 . S
C174 H154 0.950 1_556 S
C174 C173 1.414 . S
C174 C175 1.374 . S
C175 H155 0.950 . S
C175 C171 1.385 . S
C175 C174 1.374 . S
C176 C173 1.499 . S
C176 C177 1.373 1_556 S
C176 C178 1.389 . S
C177 H156 0.950 . S
C177 C176 1.373 1_554 S
C177 C193 1.377 . S
C178 C176 1.389 . S
C178 C179 1.524 . S
C178 C192 1.377 . S
C179 C178 1.524 . S
C179 C180 1.397 . S
C179 C184 1.363 . S
C180 H157 0.950 . S
C180 C179 1.397 . S
C180 C181 1.334 . S
C181 H158 0.950 . S
C181 C180 1.334 . S
C181 C182 1.287 . S
C182 C181 1.287 . S
C182 C183 1.524 . S
C182 H201 0.913 . S
C183 H159 0.950 . S
C183 C182 1.524 . S
C183 C184 1.415 . S
C184 H160 0.950 . S
C184 C179 1.363 . S
C184 C183 1.415 . S
C185 H161 0.951 . S
C185 C186 1.366 . S
C185 C187 1.388 . S
C186 C185 1.366 . S
C186 C190 1.385 . S
C187 H162 0.951 . S
C187 C185 1.388 . S
C187 C188 1.366 . S
C188 C187 1.366 . S
C188 C189 1.414 . S
C188 C191 1.499 . S
C189 H163 0.950 1_554 S
C189 C188 1.414 . S
C189 C190 1.374 . S
C190 H164 0.950 . S
C190 C186 1.385 . S
C190 C189 1.374 . S
C191 C188 1.499 . S
C191 C192 1.373 1_554 S
C191 C193 1.389 . S
C192 H165 0.950 . S
C192 C178 1.377 . S
C192 C191 1.373 1_556 S
C193 C177 1.377 . S
C193 C191 1.389 . S
C193 C194 1.524 . S
C194 C193 1.524 . S
C194 C195 1.397 . S
C194 C199 1.363 . S
C195 H166 0.950 . S
C195 C194 1.397 . S
C195 C196 1.334 . S
C196 H167 0.950 . S
C196 C195 1.334 . S
C196 C197 1.287 . S
C197 C196 1.287 . S
C197 C198 1.524 . S
C197 H200 0.999 . S
C198 H168 0.950 . S
C198 C197 1.524 . S
C198 C199 1.415 . S
C199 H169 0.950 . S
C199 C194 1.363 . S
C199 C198 1.415 . S
H200 C197 0.999 . S
H201 C182 0.913 . S
H202 C220 0.951 . S
H203 C222 0.951 . S
H204 C224 0.950 . S
H205 C225 0.950 . S
H206 C227 0.950 . S
H207 C230 0.950 . S
H208 C231 0.950 . S
H209 C233 0.950 . S
H210 C234 0.950 . S
H211 C235 0.951 . S
H212 C237 0.951 . S
H213 C239 0.950 . S
H214 C240 0.950 . S
H215 C242 0.950 . S
H216 C245 0.950 . S
H217 C246 0.950 . S
H218 C248 0.950 . S
H219 C249 0.950 . S
C220 H202 0.951 . S
C220 C221 1.366 . S
C220 C222 1.388 . S
C221 C220 1.366 . S
C221 C225 1.385 . S
C222 H203 0.951 . S
C222 C220 1.388 . S
C222 C223 1.366 . S
C223 C222 1.366 . S
C223 C224 1.414 . S
C223 C226 1.499 . S
C224 H204 0.950 . S
C224 C223 1.414 . S
C224 C225 1.374 . S
C225 H205 0.950 . S
C225 C221 1.385 . S
C225 C224 1.374 . S
C226 C223 1.499 . S
C226 C227 1.373 1_556 S
C226 C228 1.389 . S
C227 H206 0.950 . S
C227 C226 1.373 1_554 S
C227 C243 1.377 . S
C228 C226 1.389 . S
C228 C229 1.524 . S
C228 C242 1.377 . S
C229 C228 1.524 . S
C229 C230 1.397 . S
C229 C234 1.363 . S
C230 H207 0.950 . S
C230 C229 1.397 . S
C230 C231 1.334 . S
C231 H208 0.950 . S
C231 C230 1.334 . S
C231 C232 1.287 . S
C232 C231 1.287 . S
C232 C233 1.524 . S
C232 H251 0.913 . S
C233 H209 0.950 . S
C233 C232 1.524 . S
C233 C234 1.415 . S
C234 H210 0.950 . S
C234 C229 1.363 . S
C234 C233 1.415 . S
C235 H211 0.951 . S
C235 C236 1.366 . S
C235 C237 1.388 . S
C236 C235 1.366 . S
C236 C240 1.385 . S
C237 H212 0.951 . S
C237 C235 1.388 . S
C237 C238 1.366 . S
C238 C237 1.366 . S
C238 C239 1.414 . S
C238 C241 1.499 . S
C239 H213 0.950 . S
C239 C238 1.414 . S
C239 C240 1.374 . S
C240 H214 0.950 . S
C240 C236 1.385 . S
C240 C239 1.374 . S
C241 C238 1.499 . S
C241 C242 1.373 1_554 S
C241 C243 1.389 . S
C242 H215 0.950 . S
C242 C228 1.377 . S
C242 C241 1.373 1_556 S
C243 C227 1.377 . S
C243 C241 1.389 . S
C243 C244 1.524 . S
C244 C243 1.524 . S
C244 C245 1.397 . S
C244 C249 1.363 . S
C245 H216 0.950 . S
C245 C244 1.397 . S
C245 C246 1.334 . S
C246 H217 0.950 . S
C246 C245 1.334 . S
C246 C247 1.287 . S
C247 C246 1.287 . S
C247 C248 1.524 . S
C247 H250 0.999 . S
C248 H218 0.950 . S
C248 C247 1.524 . S
C248 C249 1.415 . S
C249 H219 0.950 . S
C249 C244 1.363 . S
C249 C248 1.415 . S
H250 C247 0.999 . S
H251 C232 0.913 . S
H252 C270 0.951 . S
H253 C272 0.951 . S
H254 C274 0.950 . S
H255 C275 0.950 . S
H256 C277 0.950 . S
H257 C280 0.950 . S
H258 C281 0.950 . S
H259 C283 0.950 . S
H260 C284 0.950 . S
H261 C285 0.951 . S
H262 C287 0.951 . S
H263 C289 0.950 . S
H264 C290 0.950 . S
H265 C292 0.950 . S
H266 C295 0.950 . S
H267 C296 0.950 . S
H268 C298 0.950 . S
H269 C299 0.950 . S
C270 H252 0.951 . S
C270 C271 1.366 . S
C270 C272 1.388 . S
C271 C270 1.366 . S
C271 C275 1.385 . S
C272 H253 0.951 . S
C272 C270 1.388 . S
C272 C273 1.366 . S
C273 C272 1.366 . S
C273 C274 1.414 . S
C273 C276 1.499 . S
C274 H254 0.950 . S
C274 C273 1.414 . S
C274 C275 1.374 . S
C275 H255 0.950 . S
C275 C271 1.385 . S
C275 C274 1.374 . S
C276 C273 1.499 . S
C276 C277 1.373 . S
C276 C278 1.389 . S
C277 H256 0.950 . S
C277 C276 1.373 . S
C277 C293 1.377 . S
C278 C276 1.389 . S
C278 C279 1.524 . S
C278 C292 1.377 . S
C279 C278 1.524 . S
C279 C280 1.397 . S
C279 C284 1.363 . S
C280 H257 0.950 . S
C280 C279 1.397 . S
C280 C281 1.334 . S
C281 H258 0.950 . S
C281 C280 1.334 . S
C281 C282 1.287 . S
C282 C281 1.287 . S
C282 C283 1.524 . S
C282 H301 0.913 . S
C283 H259 0.950 . S
C283 C282 1.524 . S
C283 C284 1.415 . S
C284 H260 0.950 . S
C284 C279 1.363 . S
C284 C283 1.415 . S
C285 H261 0.951 . S
C285 C286 1.366 . S
C285 C287 1.388 . S
C286 C285 1.366 . S
C286 C290 1.385 . S
C287 H262 0.951 . S
C287 C285 1.388 . S
C287 C288 1.366 . S
C288 C287 1.366 . S
C288 C289 1.414 . S
C288 C291 1.499 . S
C289 H263 0.950 . S
C289 C288 1.414 . S
C289 C290 1.374 . S
C290 H264 0.950 . S
C290 C286 1.385 . S
C290 C289 1.374 . S
C291 C288 1.499 . S
C291 C292 1.373 . S
C291 C293 1.389 . S
C292 H265 0.950 . S
C292 C278 1.377 . S
C292 C291 1.373 . S
C293 C277 1.377 . S
C293 C291 1.389 . S
C293 C294 1.524 . S
C294 C293 1.524 . S
C294 C295 1.397 . S
C294 C299 1.363 . S
C295 H266 0.950 . S
C295 C294 1.397 . S
C295 C296 1.334 . S
C296 H267 0.950 . S
C296 C295 1.334 . S
C296 C297 1.287 . S
C297 C296 1.287 . S
C297 C298 1.524 . S
C297 H300 0.999 . S
C298 H268 0.950 . S
C298 C297 1.524 . S
C298 C299 1.415 . S
C299 H269 0.950 . S
C299 C294 1.363 . S
C299 C298 1.415 . S
H300 C297 0.999 . S
H301 C282 0.913 . S
H302 C320 0.951 . S
H303 C322 0.951 . S
H304 C324 0.950 . S
H305 C325 0.950 . S
H306 C327 0.950 . S
H307 C330 0.950 . S
H308 C331 0.950 . S
H309 C333 0.950 . S
H310 C334 0.950 . S
H311 C335 0.951 . S
H312 C337 0.951 . S
H313 C339 0.950 . S
H314 C340 0.950 . S
H315 C342 0.950 . S
H316 C345 0.950 . S
H317 C346 0.950 . S
H318 C348 0.950 . S
H319 C349 0.950 . S
C320 H302 0.951 . S
C320 C321 1.366 . S
C320 C322 1.388 . S
C321 C320 1.366 . S
C321 C325 1.385 . S
C322 H303 0.951 . S
C322 C320 1.388 . S
C322 C323 1.366 . S
C323 C322 1.366 . S
C323 C324 1.414 . S
C323 C326 1.499 . S
C324 H304 0.950 . S
C324 C323 1.414 . S
C324 C325 1.374 . S
C325 H305 0.950 . S
C325 C321 1.385 . S
C325 C324 1.374 . S
C326 C323 1.499 . S
C326 C327 1.373 . S
C326 C328 1.389 . S
C327 H306 0.950 . S
C327 C326 1.373 . S
C327 C343 1.377 . S
C328 C326 1.389 . S
C328 C329 1.524 . S
C328 C342 1.377 . S
C329 C328 1.524 . S
C329 C330 1.397 . S
C329 C334 1.363 . S
C330 H307 0.950 . S
C330 C329 1.397 . S
C330 C331 1.334 . S
C331 H308 0.950 . S
C331 C330 1.334 . S
C331 C332 1.287 . S
C332 C331 1.287 . S
C332 C333 1.524 . S
C332 H351 0.913 . S
C333 H309 0.950 . S
C333 C332 1.524 . S
C333 C334 1.415 . S
C334 H310 0.950 . S
C334 C329 1.363 . S
C334 C333 1.415 . S
C335 H311 0.951 . S
C335 C336 1.366 . S
C335 C337 1.388 . S
C336 C335 1.366 . S
C336 C340 1.385 . S
C337 H312 0.951 . S
C337 C335 1.388 . S
C337 C338 1.366 . S
C338 C337 1.366 . S
C338 C339 1.414 . S
C338 C341 1.499 . S
C339 H313 0.950 . S
C339 C338 1.414 . S
C339 C340 1.374 . S
C340 H314 0.950 . S
C340 C336 1.385 . S
C340 C339 1.374 . S
C341 C338 1.499 . S
C341 C342 1.373 . S
C341 C343 1.389 . S
C342 H315 0.950 . S
C342 C328 1.377 . S
C342 C341 1.373 . S
C343 C327 1.377 . S
C343 C341 1.389 . S
C343 C344 1.524 . S
C344 C343 1.524 . S
C344 C345 1.397 . S
C344 C349 1.363 . S
C345 H316 0.950 . S
C345 C344 1.397 . S
C345 C346 1.334 . S
C346 H317 0.950 . S
C346 C345 1.334 . S
C346 C347 1.287 . S
C347 C346 1.287 . S
C347 C348 1.524 . S
C347 H350 0.999 . S
C348 H318 0.950 . S
C348 C347 1.524 . S
C348 C349 1.415 . S
C349 H319 0.950 . S
C349 C344 1.363 . S
C349 C348 1.415 . S
H350 C347 0.999 . S
H351 C332 0.913 . S
H352 C370 0.951 . S
H353 C372 0.951 . S
H354 C374 0.950 . S
H355 C375 0.950 . S
H356 C377 0.950 . S
H357 C380 0.950 . S
H358 C381 0.950 . S
H359 C383 0.950 . S
H360 C384 0.950 . S
H361 C385 0.951 . S
H362 C387 0.951 . S
H363 C389 0.950 . S
H364 C390 0.950 . S
H365 C392 0.950 . S
H366 C395 0.950 . S
H367 C396 0.950 . S
H368 C398 0.950 . S
H369 C399 0.950 . S
C370 H352 0.951 . S
C370 C371 1.366 1_554 S
C370 C372 1.388 . S
C371 C370 1.366 1_556 S
C371 C375 1.385 . S
C372 H353 0.951 . S
C372 C370 1.388 . S
C372 C373 1.366 1_554 S
C373 C372 1.366 1_556 S
C373 C374 1.414 . S
C373 C376 1.499 . S
C374 H354 0.950 . S
C374 C373 1.414 . S
C374 C375 1.374 . S
C375 H355 0.950 . S
C375 C371 1.385 . S
C375 C374 1.374 . S
C376 C373 1.499 . S
C376 C377 1.373 . S
C376 C378 1.389 . S
C377 H356 0.950 . S
C377 C376 1.373 . S
C377 C393 1.377 1_556 S
C378 C376 1.389 . S
C378 C379 1.524 . S
C378 C392 1.377 1_556 S
C379 C378 1.524 . S
C379 C380 1.397 . S
C379 C384 1.363 1_556 S
C380 H357 0.950 . S
C380 C379 1.397 . S
C380 C381 1.334 . S
C381 H358 0.950 . S
C381 C380 1.334 . S
C381 C382 1.287 . S
C382 C381 1.287 . S
C382 C383 1.524 1_556 S
C382 H401 0.913 . S
C383 H359 0.950 . S
C383 C382 1.524 1_554 S
C383 C384 1.415 . S
C384 H360 0.950 . S
C384 C379 1.363 1_554 S
C384 C383 1.415 . S
C385 H361 0.951 . S
C385 C386 1.366 1_556 S
C385 C387 1.388 . S
C386 C385 1.366 1_554 S
C386 C390 1.385 . S
C387 H362 0.951 . S
C387 C385 1.388 . S
C387 C388 1.366 1_556 S
C388 C387 1.366 1_554 S
C388 C389 1.414 . S
C388 C391 1.499 . S
C389 H363 0.950 . S
C389 C388 1.414 . S
C389 C390 1.374 . S
C390 H364 0.950 . S
C390 C386 1.385 . S
C390 C389 1.374 . S
C391 C388 1.499 . S
C391 C392 1.373 . S
C391 C393 1.389 . S
C392 H365 0.950 . S
C392 C378 1.377 1_554 S
C392 C391 1.373 . S
C393 C377 1.377 1_554 S
C393 C391 1.389 . S
C393 C394 1.524 . S
C394 C393 1.524 . S
C394 C395 1.397 . S
C394 C399 1.363 1_554 S
C395 H366 0.950 . S
C395 C394 1.397 . S
C395 C396 1.334 . S
C396 H367 0.950 . S
C396 C395 1.334 . S
C396 C397 1.287 . S
C397 C396 1.287 . S
C397 C398 1.524 1_554 S
C397 H400 0.999 . S
C398 H368 0.950 . S
C398 C397 1.524 1_556 S
C398 C399 1.415 . S
C399 H369 0.950 . S
C399 C394 1.363 1_556 S
C399 C398 1.415 . S
H400 C397 0.999 . S
H401 C382 0.913 . S
H402 C420 0.951 . S
H403 C422 0.951 . S
H404 C424 0.950 . S
H405 C425 0.950 . S
H406 C427 0.950 . S
H407 C430 0.950 . S
H408 C431 0.950 . S
H409 C433 0.950 . S
H410 C434 0.950 . S
H411 C435 0.951 . S
H412 C437 0.951 . S
H413 C439 0.950 . S
H414 C440 0.950 . S
H415 C442 0.950 . S
H416 C445 0.950 . S
H417 C446 0.950 . S
H418 C448 0.950 . S
H419 C449 0.950 . S
C420 H402 0.951 . S
C420 C421 1.366 . S
C420 C422 1.388 . S
C421 C420 1.366 . S
C421 C425 1.385 . S
C422 H403 0.951 . S
C422 C420 1.388 . S
C422 C423 1.366 . S
C423 C422 1.366 . S
C423 C424 1.414 . S
C423 C426 1.499 . S
C424 H404 0.950 . S
C424 C423 1.414 . S
C424 C425 1.374 . S
C425 H405 0.950 . S
C425 C421 1.385 . S
C425 C424 1.374 . S
C426 C423 1.499 . S
C426 C427 1.373 . S
C426 C428 1.389 . S
C427 H406 0.950 . S
C427 C426 1.373 . S
C427 C443 1.377 . S
C428 C426 1.389 . S
C428 C429 1.524 . S
C428 C442 1.377 . S
C429 C428 1.524 . S
C429 C430 1.397 . S
C429 C434 1.363 . S
C430 H407 0.950 . S
C430 C429 1.397 . S
C430 C431 1.334 . S
C431 H408 0.950 . S
C431 C430 1.334 . S
C431 C432 1.287 . S
C432 C431 1.287 . S
C432 C433 1.524 . S
C432 H451 0.913 . S
C433 H409 0.950 . S
C433 C432 1.524 . S
C433 C434 1.415 . S
C434 H410 0.950 . S
C434 C429 1.363 . S
C434 C433 1.415 . S
C435 H411 0.951 . S
C435 C436 1.366 . S
C435 C437 1.388 . S
C436 C435 1.366 . S
C436 C440 1.385 . S
C437 H412 0.951 . S
C437 C435 1.388 . S
C437 C438 1.366 . S
C438 C437 1.366 . S
C438 C439 1.414 . S
C438 C441 1.499 . S
C439 H413 0.950 . S
C439 C438 1.414 . S
C439 C440 1.374 . S
C440 H414 0.950 . S
C440 C436 1.385 . S
C440 C439 1.374 . S
C441 C438 1.499 . S
C441 C442 1.373 . S
C441 C443 1.389 . S
C442 H415 0.950 . S
C442 C428 1.377 . S
C442 C441 1.373 . S
C443 C427 1.377 . S
C443 C441 1.389 . S
C443 C444 1.524 . S
C444 C443 1.524 . S
C444 C445 1.397 . S
C444 C449 1.363 . S
C445 H416 0.950 . S
C445 C444 1.397 . S
C445 C446 1.334 . S
C446 H417 0.950 . S
C446 C445 1.334 . S
C446 C447 1.287 . S
C447 C446 1.287 . S
C447 C448 1.524 . S
C447 H450 0.999 . S
C448 H418 0.950 . S
C448 C447 1.524 . S
C448 C449 1.415 . S
C449 H419 0.950 . S
C449 C444 1.363 . S
C449 C448 1.415 . S
H450 C447 0.999 . S
H451 C432 0.913 . S
H452 C470 0.959 . S
H453 C472 0.951 . S
H454 C474 0.950 . S
H455 C475 0.950 . S
H456 C477 0.950 . S
H457 C480 0.950 . S
H458 C481 0.950 . S
H459 C483 0.950 . S
H460 C484 0.950 . S
H461 C485 0.957 . S
H462 C487 0.951 . S
H463 C489 0.950 . S
H464 C490 0.950 . S
H465 C492 0.950 . S
H466 C495 0.950 . S
H467 C496 0.950 . S
H468 C498 0.950 . S
H469 C499 0.950 . S
C470 H452 0.959 . S
C470 C471 1.361 1_554 S
C470 C472 1.386 . S
C471 C470 1.361 1_556 S
C471 C475 1.385 . S
C472 H453 0.951 . S
C472 C470 1.386 . S
C472 C473 1.370 . S
C473 C472 1.370 . S
C473 C474 1.410 1_554 S
C473 C476 1.497 . S
C474 H454 0.950 . S
C474 C473 1.410 1_556 S
C474 C475 1.374 . S
C475 H455 0.950 . S
C475 C471 1.385 . S
C475 C474 1.374 . S
C476 C473 1.497 . S
C476 C477 1.373 1_554 S
C476 C478 1.389 . S
C477 H456 0.950 . S
C477 C476 1.373 1_556 S
C477 C493 1.377 1_445 S
C478 C476 1.389 . S
C478 C479 1.524 . S
C478 C492 1.377 1_445 S
C479 C478 1.524 . S
C479 C480 1.397 . S
C479 C484 1.363 1_455 S
C480 H457 0.950 . S
C480 C479 1.397 . S
C480 C481 1.334 . S
C481 H458 0.950 . S
C481 C480 1.334 . S
C481 C482 1.287 . S
C482 C481 1.287 . S
C482 C483 1.524 1_455 S
C482 H501 0.913 . S
C483 H459 0.950 . S
C483 C482 1.524 1_655 S
C483 C484 1.415 . S
C484 H460 0.950 . S
C484 C479 1.363 1_655 S
C484 C483 1.415 . S
C485 H461 0.957 . S
C485 C486 1.362 1_556 S
C485 C487 1.386 . S
C486 C485 1.362 1_554 S
C486 C490 1.385 . S
C487 H462 0.951 . S
C487 C485 1.386 . S
C487 C488 1.368 . S
C488 C487 1.368 . S
C488 C489 1.412 1_556 S
C488 C491 1.498 . S
C489 H463 0.950 . S
C489 C488 1.412 1_554 S
C489 C490 1.374 . S
C490 H464 0.950 . S
C490 C486 1.385 . S
C490 C489 1.374 . S
C491 C488 1.498 . S
C491 C492 1.373 1_556 S
C491 C493 1.389 . S
C492 H465 0.950 . S
C492 C478 1.377 1_665 S
C492 C491 1.373 1_554 S
C493 C477 1.377 1_665 S
C493 C491 1.389 . S
C493 C494 1.524 . S
C494 C493 1.524 . S
C494 C495 1.397 . S
C494 C499 1.363 1_655 S
C495 H466 0.950 . S
C495 C494 1.397 . S
C495 C496 1.334 . S
C496 H467 0.950 . S
C496 C495 1.334 . S
C496 C497 1.287 . S
C497 C496 1.287 . S
C497 C498 1.524 1_655 S
C497 H500 0.999 . S
C498 H468 0.950 . S
C498 C497 1.524 1_455 S
C498 C499 1.415 . S
C499 H469 0.950 . S
C499 C494 1.363 1_455 S
C499 C498 1.415 . S
H500 C497 0.999 . S
H501 C482 0.913 . S
H502 C520 0.951 . S
H503 C522 0.951 . S
H504 C524 0.950 . S
H505 C525 0.950 . S
H506 C527 0.950 . S
H507 C530 0.950 1_655 S
H508 C531 0.950 . S
H509 C533 0.950 . S
H510 C534 0.950 . S
H511 C535 0.951 . S
H512 C537 0.951 . S
H513 C539 0.950 . S
H514 C540 0.950 . S
H515 C542 0.950 . S
H516 C545 0.950 1_455 S
H517 C546 0.950 . S
H518 C548 0.950 . S
H519 C549 0.950 . S
C520 H502 0.951 . S
C520 C521 1.366 . S
C520 C522 1.388 . S
C521 C520 1.366 . S
C521 C525 1.385 . S
C522 H503 0.951 . S
C522 C520 1.388 . S
C522 C523 1.366 . S
C523 C522 1.366 . S
C523 C524 1.414 . S
C523 C526 1.499 . S
C524 H504 0.950 . S
C524 C523 1.414 . S
C524 C525 1.374 . S
C525 H505 0.950 . S
C525 C521 1.385 . S
C525 C524 1.374 . S
C526 C523 1.499 . S
C526 C527 1.373 1_545 S
C526 C528 1.389 1_655 S
C527 H506 0.950 . S
C527 C526 1.373 1_565 S
C527 C543 1.377 . S
C528 C526 1.389 1_455 S
C528 C529 1.524 . S
C528 C542 1.377 . S
C529 C528 1.524 . S
C529 C530 1.397 . S
C529 C534 1.363 . S
C530 H507 0.950 1_455 S
C530 C529 1.397 . S
C530 C531 1.334 . S
C531 H508 0.950 . S
C531 C530 1.334 . S
C531 C532 1.287 . S
C532 C531 1.287 . S
C532 C533 1.524 . S
C532 H551 0.913 . S
C533 H509 0.950 . S
C533 C532 1.524 . S
C533 C534 1.415 . S
C534 H510 0.950 . S
C534 C529 1.363 . S
C534 C533 1.415 . S
C535 H511 0.951 . S
C535 C536 1.366 . S
C535 C537 1.388 . S
C536 C535 1.366 . S
C536 C540 1.385 . S
C537 H512 0.951 . S
C537 C535 1.388 . S
C537 C538 1.366 . S
C538 C537 1.366 . S
C538 C539 1.414 . S
C538 C541 1.499 . S
C539 H513 0.950 . S
C539 C538 1.414 . S
C539 C540 1.374 . S
C540 H514 0.950 . S
C540 C536 1.385 . S
C540 C539 1.374 . S
C541 C538 1.499 . S
C541 C542 1.373 1_565 S
C541 C543 1.389 1_455 S
C542 H515 0.950 . S
C542 C528 1.377 . S
C542 C541 1.373 1_545 S
C543 C527 1.377 . S
C543 C541 1.389 1_655 S
C543 C544 1.524 . S
C544 C543 1.524 . S
C544 C545 1.397 . S
C544 C549 1.363 . S
C545 H516 0.950 1_655 S
C545 C544 1.397 . S
C545 C546 1.334 . S
C546 H517 0.950 . S
C546 C545 1.334 . S
C546 C547 1.287 . S
C547 C546 1.287 . S
C547 C548 1.524 . S
C547 H550 0.999 . S
C548 H518 0.950 . S
C548 C547 1.524 . S
C548 C549 1.415 . S
C549 H519 0.950 . S
C549 C544 1.363 . S
C549 C548 1.415 . S
H550 C547 0.999 . S
H551 C532 0.913 . S
H552 C570 0.951 . S
H553 C572 0.951 . S
H554 C574 0.950 . S
H555 C575 0.950 . S
H556 C577 0.950 . S
H557 C580 0.950 . S
H558 C581 0.950 . S
H559 C583 0.950 . S
H560 C584 0.950 . S
H561 C585 0.951 . S
H562 C587 0.951 . S
H563 C589 0.950 . S
H564 C590 0.950 . S
H565 C592 0.950 . S
H566 C595 0.950 . S
H567 C596 0.950 . S
H568 C598 0.950 . S
H569 C599 0.950 . S
C570 H552 0.951 . S
C570 C571 1.366 . S
C570 C572 1.388 . S
C571 C570 1.366 . S
C571 C575 1.385 . S
C572 H553 0.951 . S
C572 C570 1.388 . S
C572 C573 1.366 . S
C573 C572 1.366 . S
C573 C574 1.414 . S
C573 C576 1.499 . S
C574 H554 0.950 . S
C574 C573 1.414 . S
C574 C575 1.374 . S
C575 H555 0.950 . S
C575 C571 1.385 . S
C575 C574 1.374 . S
C576 C573 1.499 . S
C576 C577 1.373 . S
C576 C578 1.389 . S
C577 H556 0.950 . S
C577 C576 1.373 . S
C577 C593 1.377 . S
C578 C576 1.389 . S
C578 C579 1.524 . S
C578 C592 1.377 . S
C579 C578 1.524 . S
C579 C580 1.397 . S
C579 C584 1.363 . S
C580 H557 0.950 . S
C580 C579 1.397 . S
C580 C581 1.334 . S
C581 H558 0.950 . S
C581 C580 1.334 . S
C581 C582 1.287 . S
C582 C581 1.287 . S
C582 C583 1.524 . S
C582 H601 0.913 . S
C583 H559 0.950 . S
C583 C582 1.524 . S
C583 C584 1.415 . S
C584 H560 0.950 . S
C584 C579 1.363 . S
C584 C583 1.415 . S
C585 H561 0.951 . S
C585 C586 1.366 . S
C585 C587 1.388 . S
C586 C585 1.366 . S
C586 C590 1.385 . S
C587 H562 0.951 . S
C587 C585 1.388 . S
C587 C588 1.366 . S
C588 C587 1.366 . S
C588 C589 1.414 . S
C588 C591 1.499 . S
C589 H563 0.950 . S
C589 C588 1.414 . S
C589 C590 1.374 . S
C590 H564 0.950 . S
C590 C586 1.385 . S
C590 C589 1.374 . S
C591 C588 1.499 . S
C591 C592 1.373 . S
C591 C593 1.389 . S
C592 H565 0.950 . S
C592 C578 1.377 . S
C592 C591 1.373 . S
C593 C577 1.377 . S
C593 C591 1.389 . S
C593 C594 1.524 . S
C594 C593 1.524 . S
C594 C595 1.397 . S
C594 C599 1.363 . S
C595 H566 0.950 . S
C595 C594 1.397 . S
C595 C596 1.334 . S
C596 H567 0.950 . S
C596 C595 1.334 . S
C596 C597 1.287 . S
C597 C596 1.287 . S
C597 C598 1.524 . S
C597 H600 0.999 . S
C598 H568 0.950 . S
C598 C597 1.524 . S
C598 C599 1.415 . S
C599 H569 0.950 . S
C599 C594 1.363 . S
C599 C598 1.415 . S
H600 C597 0.999 . S
H601 C582 0.913 . S
H602 C620 0.951 . S
H603 C622 0.951 . S
H604 C624 0.950 . S
H605 C625 0.950 . S
H606 C627 0.950 . S
H607 C630 0.950 . S
H608 C631 0.950 . S
H609 C633 0.950 . S
H610 C634 0.950 . S
H611 C635 0.951 . S
H612 C637 0.951 . S
H613 C639 0.950 . S
H614 C640 0.950 . S
H615 C642 0.950 . S
H616 C645 0.950 . S
H617 C646 0.950 . S
H618 C648 0.950 . S
H619 C649 0.950 . S
C620 H602 0.951 . S
C620 C621 1.366 . S
C620 C622 1.388 . S
C621 C620 1.366 . S
C621 C625 1.385 . S
C622 H603 0.951 . S
C622 C620 1.388 . S
C622 C623 1.366 . S
C623 C622 1.366 . S
C623 C624 1.414 . S
C623 C626 1.499 . S
C624 H604 0.950 . S
C624 C623 1.414 . S
C624 C625 1.374 . S
C625 H605 0.950 . S
C625 C621 1.385 . S
C625 C624 1.374 . S
C626 C623 1.499 . S
C626 C627 1.373 . S
C626 C628 1.389 . S
C627 H606 0.950 . S
C627 C626 1.373 . S
C627 C643 1.377 . S
C628 C626 1.389 . S
C628 C629 1.524 . S
C628 C642 1.377 . S
C629 C628 1.524 . S
C629 C630 1.397 . S
C629 C634 1.363 . S
C630 H607 0.950 . S
C630 C629 1.397 . S
C630 C631 1.334 . S
C631 H608 0.950 . S
C631 C630 1.334 . S
C631 C632 1.287 . S
C632 C631 1.287 . S
C632 C633 1.524 . S
C632 H651 0.930 . S
C633 H609 0.950 . S
C633 C632 1.524 . S
C633 C634 1.415 . S
C634 H610 0.950 . S
C634 C629 1.363 . S
C634 C633 1.415 . S
C635 H611 0.951 . S
C635 C636 1.366 . S
C635 C637 1.388 . S
C636 C635 1.366 . S
C636 C640 1.385 . S
C637 H612 0.951 . S
C637 C635 1.388 . S
C637 C638 1.366 . S
C638 C637 1.366 . S
C638 C639 1.414 . S
C638 C641 1.499 . S
C639 H613 0.950 . S
C639 C638 1.414 . S
C639 C640 1.374 . S
C640 H614 0.950 . S
C640 C636 1.385 . S
C640 C639 1.374 . S
C641 C638 1.499 . S
C641 C642 1.373 . S
C641 C643 1.389 . S
C642 H615 0.950 . S
C642 C628 1.377 . S
C642 C641 1.373 . S
C643 C627 1.377 . S
C643 C641 1.389 . S
C643 C644 1.524 . S
C644 C643 1.524 . S
C644 C645 1.397 . S
C644 C649 1.363 . S
C645 H616 0.950 . S
C645 C644 1.397 . S
C645 C646 1.334 . S
C646 H617 0.950 . S
C646 C645 1.334 . S
C646 C647 1.287 . S
C647 C646 1.287 . S
C647 C648 1.524 . S
C647 H650 0.999 . S
C648 H618 0.950 . S
C648 C647 1.524 . S
C648 C649 1.415 . S
C649 H619 0.950 . S
C649 C644 1.363 . S
C649 C648 1.415 . S
H650 C647 0.999 . S
H651 C632 0.930 . S
H652 C670 0.951 . S
H653 C672 0.951 . S
H654 C674 0.950 . S
H655 C675 0.950 . S
H656 C677 0.950 . S
H657 C680 0.950 . S
H658 C681 0.950 . S
H659 C683 0.950 . S
H660 C684 0.950 . S
H661 C685 0.951 . S
H662 C687 0.951 . S
H663 C689 0.950 . S
H664 C690 0.950 . S
H665 C692 0.950 . S
H666 C695 0.950 . S
H667 C696 0.950 . S
H668 C698 0.950 . S
H669 C699 0.950 . S
C670 H652 0.951 . S
C670 C671 1.366 . S
C670 C672 1.388 . S
C671 C670 1.366 . S
C671 C675 1.385 . S
C672 H653 0.951 . S
C672 C670 1.388 . S
C672 C673 1.366 . S
C673 C672 1.366 . S
C673 C674 1.414 . S
C673 C676 1.499 . S
C674 H654 0.950 . S
C674 C673 1.414 . S
C674 C675 1.374 . S
C675 H655 0.950 . S
C675 C671 1.385 . S
C675 C674 1.374 . S
C676 C673 1.499 . S
C676 C677 1.373 . S
C676 C678 1.389 . S
C677 H656 0.950 . S
C677 C676 1.373 . S
C677 C693 1.377 . S
C678 C676 1.389 . S
C678 C679 1.524 . S
C678 C692 1.377 . S
C679 C678 1.524 . S
C679 C680 1.397 . S
C679 C684 1.363 . S
C680 H657 0.950 . S
C680 C679 1.397 . S
C680 C681 1.334 . S
C681 H658 0.950 . S
C681 C680 1.334 . S
C681 C682 1.287 . S
C682 C681 1.287 . S
C682 C683 1.524 . S
C682 H701 0.913 . S
C683 H659 0.950 . S
C683 C682 1.524 . S
C683 C684 1.415 . S
C684 H660 0.950 . S
C684 C679 1.363 . S
C684 C683 1.415 . S
C685 H661 0.951 . S
C685 C686 1.366 . S
C685 C687 1.388 . S
C686 C685 1.366 . S
C686 C690 1.385 . S
C687 H662 0.951 . S
C687 C685 1.388 . S
C687 C688 1.366 . S
C688 C687 1.366 . S
C688 C689 1.414 . S
C688 C691 1.499 . S
C689 H663 0.950 . S
C689 C688 1.414 . S
C689 C690 1.374 . S
C690 H664 0.950 . S
C690 C686 1.385 . S
C690 C689 1.374 . S
C691 C688 1.499 . S
C691 C692 1.373 . S
C691 C693 1.389 . S
C692 H665 0.950 . S
C692 C678 1.377 . S
C692 C691 1.373 . S
C693 C677 1.377 . S
C693 C691 1.389 . S
C693 C694 1.524 . S
C694 C693 1.524 . S
C694 C695 1.397 . S
C694 C699 1.363 . S
C695 H666 0.950 . S
C695 C694 1.397 . S
C695 C696 1.334 . S
C696 H667 0.950 . S
C696 C695 1.334 . S
C696 C697 1.287 . S
C697 C696 1.287 . S
C697 C698 1.524 . S
C697 H700 0.999 . S
C698 H668 0.950 . S
C698 C697 1.524 . S
C698 C699 1.415 . S
C699 H669 0.950 . S
C699 C694 1.363 . S
C699 C698 1.415 . S
H700 C697 0.999 . S
H701 C682 0.913 . S
H702 C720 0.951 . S
H703 C722 0.951 . S
H704 C724 0.950 . S
H705 C725 0.950 . S
H706 C727 0.950 . S
H707 C730 0.950 . S
H708 C731 0.950 . S
H709 C733 0.950 . S
H710 C734 0.950 . S
H711 C735 0.951 . S
H712 C737 0.951 . S
H713 C739 0.950 . S
H714 C740 0.950 . S
H715 C742 0.950 . S
H716 C745 0.950 . S
H717 C746 0.950 . S
H718 C748 0.950 . S
H719 C749 0.950 . S
C720 H702 0.951 . S
C720 C721 1.366 . S
C720 C722 1.388 . S
C721 C720 1.366 . S
C721 C725 1.385 . S
C722 H703 0.951 . S
C722 C720 1.388 . S
C722 C723 1.366 . S
C723 C722 1.366 . S
C723 C724 1.414 . S
C723 C726 1.499 . S
C724 H704 0.950 . S
C724 C723 1.414 . S
C724 C725 1.374 . S
C725 H705 0.950 . S
C725 C721 1.385 . S
C725 C724 1.374 . S
C726 C723 1.499 . S
C726 C727 1.373 . S
C726 C728 1.389 . S
C727 H706 0.950 . S
C727 C726 1.373 . S
C727 C743 1.377 . S
C728 C726 1.389 . S
C728 C729 1.524 . S
C728 C742 1.377 . S
C729 C728 1.524 . S
C729 C730 1.397 . S
C729 C734 1.363 . S
C730 H707 0.950 . S
C730 C729 1.397 . S
C730 C731 1.334 . S
C731 H708 0.950 . S
C731 C730 1.334 . S
C731 C732 1.287 . S
C732 C731 1.287 . S
C732 C733 1.524 . S
C732 H751 0.913 . S
C733 H709 0.950 . S
C733 C732 1.524 . S
C733 C734 1.415 . S
C734 H710 0.950 . S
C734 C729 1.363 . S
C734 C733 1.415 . S
C735 H711 0.951 . S
C735 C736 1.366 . S
C735 C737 1.388 . S
C736 C735 1.366 . S
C736 C740 1.385 . S
C737 H712 0.951 . S
C737 C735 1.388 . S
C737 C738 1.366 . S
C738 C737 1.366 . S
C738 C739 1.414 . S
C738 C741 1.499 . S
C739 H713 0.950 . S
C739 C738 1.414 . S
C739 C740 1.374 . S
C740 H714 0.950 . S
C740 C736 1.385 . S
C740 C739 1.374 . S
C741 C738 1.499 . S
C741 C742 1.373 . S
C741 C743 1.389 . S
C742 H715 0.950 . S
C742 C728 1.377 . S
C742 C741 1.373 . S
C743 C727 1.377 . S
C743 C741 1.389 . S
C743 C744 1.524 . S
C744 C743 1.524 . S
C744 C745 1.397 . S
C744 C749 1.363 . S
C745 H716 0.950 . S
C745 C744 1.397 . S
C745 C746 1.334 . S
C746 H717 0.950 . S
C746 C745 1.334 . S
C746 C747 1.287 . S
C747 C746 1.287 . S
C747 C748 1.524 . S
C747 H750 0.999 . S
C748 H718 0.950 . S
C748 C747 1.524 . S
C748 C749 1.415 . S
C749 H719 0.950 . S
C749 C744 1.363 . S
C749 C748 1.415 . S
H750 C747 0.999 . S
H751 C732 0.913 . S
H752 C770 0.951 . S
H753 C772 0.951 . S
H754 C774 0.950 1_655 S
H755 C775 0.950 . S
H756 C777 0.950 . S
H757 C780 0.950 . S
H758 C781 0.950 . S
H759 C783 0.950 . S
H760 C784 0.950 . S
H761 C785 0.951 . S
H762 C787 0.951 . S
H763 C789 0.950 . S
H764 C790 0.950 . S
H765 C792 0.950 1_455 S
H766 C795 0.950 . S
H767 C796 0.950 . S
H768 C798 0.950 . S
H769 C799 0.950 . S
C770 H752 0.951 . S
C770 C771 1.366 . S
C770 C772 1.388 . S
C771 C770 1.366 . S
C771 C775 1.385 . S
C772 H753 0.951 . S
C772 C770 1.388 . S
C772 C773 1.366 . S
C773 C772 1.366 . S
C773 C774 1.414 . S
C773 C776 1.499 1_455 S
C774 H754 0.950 1_455 S
C774 C773 1.414 . S
C774 C775 1.374 . S
C775 H755 0.950 . S
C775 C771 1.385 . S
C775 C774 1.374 . S
C776 C773 1.499 1_655 S
C776 C777 1.373 . S
C776 C778 1.389 1_655 S
C777 H756 0.950 . S
C777 C776 1.373 . S
C777 C793 1.377 . S
C778 C776 1.389 1_455 S
C778 C779 1.524 . S
C778 C792 1.377 1_455 S
C779 C778 1.524 . S
C779 C780 1.397 . S
C779 C784 1.363 . S
C780 H757 0.950 . S
C780 C779 1.397 . S
C780 C781 1.334 . S
C781 H758 0.950 . S
C781 C780 1.334 . S
C781 C782 1.287 . S
C782 C781 1.287 . S
C782 C783 1.524 . S
C782 H801 0.913 . S
C783 H759 0.950 . S
C783 C782 1.524 . S
C783 C784 1.415 . S
C784 H760 0.950 . S
C784 C779 1.363 . S
C784 C783 1.415 . S
C785 H761 0.951 . S
C785 C786 1.366 . S
C785 C787 1.388 . S
C786 C785 1.366 . S
C786 C790 1.385 . S
C787 H762 0.951 . S
C787 C785 1.388 . S
C787 C788 1.366 . S
C788 C787 1.366 . S
C788 C789 1.414 . S
C788 C791 1.499 . S
C789 H763 0.950 . S
C789 C788 1.414 . S
C789 C790 1.374 . S
C790 H764 0.950 . S
C790 C786 1.385 . S
C790 C789 1.374 . S
C791 C788 1.499 . S
C791 C792 1.373 . S
C791 C793 1.389 . S
C792 H765 0.950 1_655 S
C792 C778 1.377 1_655 S
C792 C791 1.373 . S
C793 C777 1.377 . S
C793 C791 1.389 . S
C793 C794 1.524 . S
C794 C793 1.524 . S
C794 C795 1.397 . S
C794 C799 1.363 . S
C795 H766 0.950 . S
C795 C794 1.397 . S
C795 C796 1.334 . S
C796 H767 0.950 . S
C796 C795 1.334 . S
C796 C797 1.287 . S
C797 C796 1.287 . S
C797 C798 1.524 . S
C797 H800 0.999 . S
C798 H768 0.950 . S
C798 C797 1.524 . S
C798 C799 1.415 . S
C799 H769 0.950 . S
C799 C794 1.363 . S
C799 C798 1.415 . S
H800 C797 0.999 . S
H801 C782 0.913 . S
H802 C820 0.951 . S
H803 C822 0.951 . S
H804 C824 0.950 . S
H805 C825 0.950 . S
H806 C827 0.950 1_455 S
H807 C830 0.950 . S
H808 C831 0.950 . S
H809 C833 0.950 . S
H810 C834 0.950 . S
H811 C835 0.951 . S
H812 C837 0.951 . S
H813 C839 0.950 1_655 S
H814 C840 0.950 . S
H815 C842 0.950 . S
H816 C845 0.950 . S
H817 C846 0.950 . S
H818 C848 0.950 . S
H819 C849 0.950 . S
C820 H802 0.951 . S
C820 C821 1.366 . S
C820 C822 1.388 . S
C821 C820 1.366 . S
C821 C825 1.385 . S
C822 H803 0.951 . S
C822 C820 1.388 . S
C822 C823 1.366 . S
C823 C822 1.366 . S
C823 C824 1.414 . S
C823 C826 1.499 . S
C824 H804 0.950 . S
C824 C823 1.414 . S
C824 C825 1.374 . S
C825 H805 0.950 . S
C825 C821 1.385 . S
C825 C824 1.374 . S
C826 C823 1.499 . S
C826 C827 1.373 . S
C826 C828 1.389 . S
C827 H806 0.950 1_655 S
C827 C826 1.373 . S
C827 C843 1.377 1_655 S
C828 C826 1.389 . S
C828 C829 1.524 . S
C828 C842 1.377 . S
C829 C828 1.524 . S
C829 C830 1.397 . S
C829 C834 1.363 . S
C830 H807 0.950 . S
C830 C829 1.397 . S
C830 C831 1.334 . S
C831 H808 0.950 . S
C831 C830 1.334 . S
C831 C832 1.287 . S
C832 C831 1.287 . S
C832 C833 1.524 . S
C832 H851 0.913 . S
C833 H809 0.950 . S
C833 C832 1.524 . S
C833 C834 1.415 . S
C834 H810 0.950 . S
C834 C829 1.363 . S
C834 C833 1.415 . S
C835 H811 0.951 . S
C835 C836 1.366 . S
C835 C837 1.388 . S
C836 C835 1.366 . S
C836 C840 1.385 . S
C837 H812 0.951 . S
C837 C835 1.388 . S
C837 C838 1.366 . S
C838 C837 1.366 . S
C838 C839 1.414 . S
C838 C841 1.499 1_455 S
C839 H813 0.950 1_455 S
C839 C838 1.414 . S
C839 C840 1.374 . S
C840 H814 0.950 . S
C840 C836 1.385 . S
C840 C839 1.374 . S
C841 C838 1.499 1_655 S
C841 C842 1.373 . S
C841 C843 1.389 1_655 S
C842 H815 0.950 . S
C842 C828 1.377 . S
C842 C841 1.373 . S
C843 C827 1.377 1_455 S
C843 C841 1.389 1_455 S
C843 C844 1.524 . S
C844 C843 1.524 . S
C844 C845 1.397 . S
C844 C849 1.363 . S
C845 H816 0.950 . S
C845 C844 1.397 . S
C845 C846 1.334 . S
C846 H817 0.950 . S
C846 C845 1.334 . S
C846 C847 1.287 . S
C847 C846 1.287 . S
C847 C848 1.524 . S
C847 H850 0.999 . S
C848 H818 0.950 . S
C848 C847 1.524 . S
C848 C849 1.415 . S
C849 H819 0.950 . S
C849 C844 1.363 . S
C849 C848 1.415 . S
H850 C847 0.999 . S
H851 C832 0.913 . S
H852 C870 0.951 . S
H853 C872 0.951 . S
H854 C874 0.950 . S
H855 C875 0.950 . S
H856 C877 0.950 . S
H857 C880 0.950 1_455 S
H858 C881 0.950 . S
H859 C883 0.950 . S
H860 C884 0.950 . S
H861 C885 0.951 . S
H862 C887 0.946 1_455 S
H863 C889 0.950 . S
H864 C890 0.950 . S
H865 C892 0.950 . S
H866 C895 0.950 . S
H867 C896 0.950 . S
H868 C898 0.950 . S
H869 C899 0.950 . S
C870 H852 0.951 . S
C870 C871 1.366 . S
C870 C872 1.388 . S
C871 C870 1.366 . S
C871 C875 1.385 . S
C872 H853 0.951 . S
C872 C870 1.388 . S
C872 C873 1.366 . S
C873 C872 1.366 . S
C873 C874 1.414 . S
C873 C876 1.499 . S
C874 H854 0.950 . S
C874 C873 1.414 . S
C874 C875 1.374 . S
C875 H855 0.950 . S
C875 C871 1.385 . S
C875 C874 1.374 . S
C876 C873 1.499 . S
C876 C877 1.373 . S
C876 C878 1.389 . S
C877 H856 0.950 . S
C877 C876 1.373 . S
C877 C893 1.377 . S
C878 C876 1.389 . S
C878 C879 1.524 1_455 S
C878 C892 1.377 1_455 S
C879 C878 1.524 1_655 S
C879 C880 1.397 . S
C879 C884 1.363 . S
C880 H857 0.950 1_655 S
C880 C879 1.397 . S
C880 C881 1.334 . S
C881 H858 0.950 . S
C881 C880 1.334 . S
C881 C882 1.287 . S
C882 C881 1.287 . S
C882 C883 1.524 . S
C882 H901 0.913 . S
C883 H859 0.950 . S
C883 C882 1.524 . S
C883 C884 1.415 . S
C884 H860 0.950 . S
C884 C879 1.363 . S
C884 C883 1.415 . S
C885 H861 0.951 . S
C885 C886 1.366 . S
C885 C887 1.390 . S
C886 C885 1.366 . S
C886 C890 1.385 . S
C887 H862 0.946 1_655 S
C887 C885 1.390 . S
C887 C888 1.367 . S
C888 C887 1.367 . S
C888 C889 1.414 . S
C888 C891 1.499 1_655 S
C889 H863 0.950 . S
C889 C888 1.414 . S
C889 C890 1.374 . S
C890 H864 0.950 . S
C890 C886 1.385 . S
C890 C889 1.374 . S
C891 C888 1.499 1_455 S
C891 C892 1.373 1_455 S
C891 C893 1.389 . S
C892 H865 0.950 . S
C892 C878 1.377 1_655 S
C892 C891 1.373 1_655 S
C893 C877 1.377 . S
C893 C891 1.389 . S
C893 C894 1.524 . S
C894 C893 1.524 . S
C894 C895 1.397 . S
C894 C899 1.363 . S
C895 H866 0.950 . S
C895 C894 1.397 . S
C895 C896 1.334 . S
C896 H867 0.950 . S
C896 C895 1.334 . S
C896 C897 1.287 . S
C897 C896 1.287 . S
C897 C898 1.524 . S
C897 H900 0.999 . S
C898 H868 0.950 . S
C898 C897 1.524 . S
C898 C899 1.415 . S
C899 H869 0.950 . S
C899 C894 1.363 . S
C899 C898 1.415 . S
H900 C897 0.999 . S
H901 C882 0.913 . S
H902 C920 0.951 . S
H903 C922 0.951 . S
H904 C924 0.950 . S
H905 C925 0.950 . S
H906 C927 0.950 . S
H907 C930 0.932 1_455 S
H908 C931 0.950 . S
H909 C933 0.950 . S
H910 C934 0.950 . S
H911 C935 0.951 . S
H912 C937 0.950 1_455 S
H913 C939 0.950 . S
H914 C940 0.950 . S
H915 C942 0.950 . S
H916 C945 0.950 . S
H917 C946 0.950 . S
H918 C948 0.950 . S
H919 C949 0.950 . S
C920 H902 0.951 . S
C920 C921 1.366 . S
C920 C922 1.388 . S
C921 C920 1.366 . S
C921 C925 1.385 . S
C922 H903 0.951 . S
C922 C920 1.388 . S
C922 C923 1.366 . S
C923 C922 1.366 . S
C923 C924 1.414 . S
C923 C926 1.499 . S
C924 H904 0.950 . S
C924 C923 1.414 . S
C924 C925 1.374 . S
C925 H905 0.950 . S
C925 C921 1.385 . S
C925 C924 1.374 . S
C926 C923 1.499 . S
C926 C927 1.373 . S
C926 C928 1.389 . S
C927 H906 0.950 . S
C927 C926 1.373 . S
C927 C943 1.377 . S
C928 C926 1.389 . S
C928 C929 1.524 1_455 S
C928 C942 1.377 1_455 S
C929 C928 1.524 1_655 S
C929 C930 1.404 . S
C929 C934 1.363 . S
C930 H907 0.932 1_655 S
C930 C929 1.404 . S
C930 C931 1.344 . S
C931 H908 0.950 . S
C931 C930 1.344 . S
C931 C932 1.287 . S
C932 C931 1.287 . S
C932 C933 1.524 . S
C932 H951 0.913 . S
C933 H909 0.950 . S
C933 C932 1.524 . S
C933 C934 1.415 . S
C934 H910 0.950 . S
C934 C929 1.363 . S
C934 C933 1.415 . S
C935 H911 0.951 . S
C935 C936 1.366 . S
C935 C937 1.388 . S
C936 C935 1.366 . S
C936 C940 1.385 . S
C937 H912 0.950 1_655 S
C937 C935 1.388 . S
C937 C938 1.366 . S
C938 C937 1.366 . S
C938 C939 1.414 . S
C938 C941 1.499 1_655 S
C939 H913 0.950 . S
C939 C938 1.414 . S
C939 C940 1.374 . S
C940 H914 0.950 . S
C940 C936 1.385 . S
C940 C939 1.374 . S
C941 C938 1.499 1_455 S
C941 C942 1.373 1_455 S
C941 C943 1.389 . S
C942 H915 0.950 . S
C942 C928 1.377 1_655 S
C942 C941 1.373 1_655 S
C943 C927 1.377 . S
C943 C941 1.389 . S
C943 C944 1.524 . S
C944 C943 1.524 . S
C944 C945 1.397 . S
C944 C949 1.363 . S
C945 H916 0.950 . S
C945 C944 1.397 . S
C945 C946 1.334 . S
C946 H917 0.950 . S
C946 C945 1.334 . S
C946 C947 1.287 . S
C947 C946 1.287 . S
C947 C948 1.524 . S
C947 H950 0.999 . S
C948 H918 0.950 . S
C948 C947 1.524 . S
C948 C949 1.415 . S
C949 H919 0.950 . S
C949 C944 1.363 . S
C949 C948 1.415 . S
H950 C947 0.999 . S
H951 C932 0.913 . S
C171 C27 1.859 . S
C186 C6 1.859 1_655 S
C221 C65 1.859 1_455 S
C236 C44 1.859 . S
C271 C103 1.860 . S
C286 C82 1.860 1_655 S
C321 C141 1.860 1_455 S
C336 C120 1.860 . S
C371 C68 1.581 . S
C386 C1 1.581 . S
C421 C144 1.581 . S
C436 C77 1.581 . S
C471 C30 1.581 . S
C486 C39 1.581 . S
C521 C115 1.581 . S
C536 C106 1.581 . S
C571 C122 1.080 . S
C586 C18 1.111 . S
C621 C46 1.079 . S
C636 C94 1.111 . S
C671 C105 1.080 . S
C686 C52 1.118 . S
C721 C29 1.078 . S
C736 C128 1.118 . S
C771 C84 1.078 . S
C786 C56 1.113 . S
C821 C132 1.115 . S
C836 C8 1.074 . S
C871 C14 1.114 . S
C886 C143 1.084 . S
C921 C90 1.114 . S
C936 C67 1.084 . S
