# Generated by pormake.
# Topology wjq, (5)-cn, num edge types: 1
# Building blocks:
#     Node 0, Type 0, BuildingBlock: XOMCOT_clean_sbu_1, # of connection points: 5
#     Node 1, Type 0, BuildingBlock: XOMCOT_clean_sbu_1, # of connection points: 5
#     Node 2, Type 0, BuildingBlock: XOMCOT_clean_sbu_1, # of connection points: 5
#     Node 3, Type 0, BuildingBlock: XOMCOT_clean_sbu_1, # of connection points: 5
#     Node 4, Type 0, BuildingBlock: XOMCOT_clean_sbu_1, # of connection points: 5
#     Node 5, Type 0, BuildingBlock: XOMCOT_clean_sbu_1, # of connection points: 5
#     Node 6, Type 0, BuildingBlock: XOMCOT_clean_sbu_1, # of connection points: 5
#     Node 7, Type 0, BuildingBlock: XOMCOT_clean_sbu_1, # of connection points: 5
#     Node 8, Type 0, BuildingBlock: XOMCOT_clean_sbu_1, # of connection points: 5
#     Node 9, Type 0, BuildingBlock: XOMCOT_clean_sbu_1, # of connection points: 5
#     Node 10, Type 0, BuildingBlock: XOMCOT_clean_sbu_1, # of connection points: 5
#     Node 11, Type 0, BuildingBlock: XOMCOT_clean_sbu_1, # of connection points: 5
#     Edge 12, Type (0, 0), BuildingBlock: CIFDUS_clean_linker_0, # of connection points: 2
#     Edge 13, Type (0, 0), BuildingBlock: CIFDUS_clean_linker_0, # of connection points: 2
#     Edge 14, Type (0, 0), BuildingBlock: CIFDUS_clean_linker_0, # of connection points: 2
#     Edge 15, Type (0, 0), BuildingBlock: CIFDUS_clean_linker_0, # of connection points: 2
#     Edge 16, Type (0, 0), BuildingBlock: CIFDUS_clean_linker_0, # of connection points: 2
#     Edge 17, Type (0, 0), BuildingBlock: CIFDUS_clean_linker_0, # of connection points: 2
#     Edge 18, Type (0, 0), BuildingBlock: CIFDUS_clean_linker_0, # of connection points: 2
#     Edge 19, Type (0, 0), BuildingBlock: CIFDUS_clean_linker_0, # of connection points: 2
#     Edge 20, Type (0, 0), BuildingBlock: CIFDUS_clean_linker_0, # of connection points: 2
#     Edge 21, Type (0, 0), BuildingBlock: CIFDUS_clean_linker_0, # of connection points: 2
#     Edge 22, Type (0, 0), BuildingBlock: CIFDUS_clean_linker_0, # of connection points: 2
#     Edge 23, Type (0, 0), BuildingBlock: CIFDUS_clean_linker_0, # of connection points: 2
#     Edge 24, Type (0, 0), BuildingBlock: CIFDUS_clean_linker_0, # of connection points: 2
#     Edge 25, Type (0, 0), BuildingBlock: CIFDUS_clean_linker_0, # of connection points: 2
#     Edge 26, Type (0, 0), BuildingBlock: CIFDUS_clean_linker_0, # of connection points: 2
#     Edge 27, Type (0, 0), BuildingBlock: CIFDUS_clean_linker_0, # of connection points: 2
#     Edge 28, Type (0, 0), BuildingBlock: CIFDUS_clean_linker_0, # of connection points: 2
#     Edge 29, Type (0, 0), BuildingBlock: CIFDUS_clean_linker_0, # of connection points: 2
#     Edge 30, Type (0, 0), BuildingBlock: CIFDUS_clean_linker_0, # of connection points: 2
#     Edge 31, Type (0, 0), BuildingBlock: CIFDUS_clean_linker_0, # of connection points: 2
#     Edge 32, Type (0, 0), BuildingBlock: CIFDUS_clean_linker_0, # of connection points: 2
#     Edge 33, Type (0, 0), BuildingBlock: CIFDUS_clean_linker_0, # of connection points: 2
#     Edge 34, Type (0, 0), BuildingBlock: CIFDUS_clean_linker_0, # of connection points: 2
#     Edge 35, Type (0, 0), BuildingBlock: CIFDUS_clean_linker_0, # of connection points: 2
#     Edge 36, Type (0, 0), BuildingBlock: CIFDUS_clean_linker_0, # of connection points: 2
#     Edge 37, Type (0, 0), BuildingBlock: CIFDUS_clean_linker_0, # of connection points: 2
#     Edge 38, Type (0, 0), BuildingBlock: CIFDUS_clean_linker_0, # of connection points: 2
#     Edge 39, Type (0, 0), BuildingBlock: CIFDUS_clean_linker_0, # of connection points: 2
#     Edge 40, Type (0, 0), BuildingBlock: CIFDUS_clean_linker_0, # of connection points: 2
#     Edge 41, Type (0, 0), BuildingBlock: CIFDUS_clean_linker_0, # of connection points: 2
# Relax obj value: 0.561
# Max RMSD: 0.291
# Mean RMSD: 0.291
data_MOF--net-wjq--node1-XOMCOT_clean_sbu_1--edge1-CIFDUS_clean_linker_0
_symmetry_space_group_name_H-M    P1
_symmetry_Int_Tables_number       1
_symmetry_cell_setting            triclinic
loop_
_symmetry_equiv_pos_as_xyz
'x, y, z'
_cell_length_a     24.488326
_cell_length_b     24.403184
_cell_length_c     80.6536
_cell_angle_alpha  89.990581
_cell_angle_beta   90.130831
_cell_angle_gamma 120.39466
loop_
_atom_site_label
_atom_site_type_symbol
_atom_site_fract_x
_atom_site_fract_y
_atom_site_fract_z
_atom_type_partial_charge
C0 C 0.31775 0.34336 0.04407 0.0
C1 C 0.2832 0.3478 0.0311 0.0
N2 N 0.23753 0.28866 0.02688 0.0
N3 N 0.29354 0.2817 0.04813 0.0
C4 C 0.2447 0.24973 0.03742 0.0
H5 H 0.35829 0.38262 0.05001 0.0
Co6 Co 0.32046 0.24596 0.06467 0.0
C7 C 0.19948 0.13429 0.07703 0.0
O8 O 0.22835 0.10244 0.08024 0.0
N9 N 0.34587 0.20913 0.08136 0.0
C10 C 0.39013 0.16506 0.09629 0.0
C11 C 0.38138 0.18118 0.08052 0.0
C12 C 0.33401 0.20963 0.09768 0.0
N13 N 0.3605 0.18346 0.10704 0.0
O14 O 0.33481 0.31372 0.07976 0.0
H15 H 0.40089 0.17396 0.06929 0.0
H16 H 0.30607 0.22884 0.10259 0.0
O17 O 0.23084 0.19086 0.07117 0.0
C18 C 0.39541 0.34709 0.0808 0.0
O19 O 0.42914 0.32797 0.07265 0.0
N20 N 0.31907 0.18974 0.04913 0.0
C21 C 0.34869 0.13616 0.02301 0.0
C22 C 0.28975 0.10196 0.03092 0.0
C23 C 0.27524 0.13015 0.04394 0.0
C24 C 0.3763 0.22299 0.04147 0.0
C25 C 0.39219 0.19719 0.02838 0.0
H26 H 0.22843 0.10503 0.04912 0.0
H27 H 0.40963 0.2708 0.04542 0.0
H28 H 0.21454 0.19861 0.03737 0.0
H29 H 0.29208 0.39097 0.02494 0.0
H30 H 0.41786 0.14348 0.09961 0.0
H31 H 0.25441 0.05517 0.02658 0.0
H32 H 0.43763 0.22501 0.02234 0.0
C33 C 0.0639 0.34045 0.38586 0.0
C34 C 0.03201 0.3218 0.371 0.0
N35 N 1.00504 0.25833 0.36962 0.0
N36 N 0.05745 0.28921 0.39395 0.0
C37 C 0.02092 0.23947 0.38374 0.0
H38 H 0.09273 0.38885 0.39018 0.0
Co39 Co 0.10661 0.29822 0.41284 0.0
C40 C 0.08593 0.16961 0.4201 0.0
O41 O 0.14649 0.197 0.42362 0.0
N42 N 0.15813 0.30885 0.43196 0.0
C43 C 0.24053 0.33202 0.44839 0.0
C44 C 0.2208 0.32854 0.43234 0.0
C45 C 0.14138 0.30103 0.44821 0.0
N46 N 0.19078 0.31518 0.45837 0.0
O47 O 0.04687 0.30788 0.42612 0.0
H48 H 0.25137 0.33937 0.42177 0.0
H49 H 0.09408 0.28585 0.45258 0.0
O50 O 0.06221 0.20396 0.41572 0.0
C51 C 0.07173 0.36602 0.43072 0.0
O52 O 0.1333 0.40323 0.42935 0.0
N53 N 0.16673 0.30047 0.39886 0.0
C54 C 0.25103 0.33341 0.37298 0.0
C55 C 0.20875 0.26927 0.37655 0.0
C56 C 0.16534 0.2536 0.38935 0.0
C57 C 0.20803 0.36294 0.39552 0.0
C58 C 0.25107 0.38063 0.38265 0.0
H59 H 0.12826 0.20479 0.39061 0.0
H60 H 0.20537 0.39925 0.40256 0.0
H61 H 0.00984 0.19121 0.38604 0.0
H62 H 0.03036 0.3528 0.36166 0.0
H63 H 0.2884 0.34765 0.45245 0.0
H64 H 0.20589 0.23196 0.36866 0.0
H65 H 0.28189 0.43047 0.37978 0.0
C66 C 0.64168 0.01643 0.70087 0.0
C67 C 0.64283 0.98369 0.68712 0.0
N68 N 0.68453 0.96409 0.68987 0.0
N69 N 0.68264 0.01792 0.71229 0.0
C70 C 0.70775 0.98505 0.70528 0.0
H71 H 0.61509 0.04055 0.70211 0.0
Co72 Co 0.705 0.06915 0.73129 0.0
C73 C 0.80461 0.05532 0.74876 0.0
O74 O 0.83292 0.11628 0.75217 0.0
N75 N 0.7259 0.12081 0.75051 0.0
C76 C 0.75965 0.19877 0.76911 0.0
C77 C 0.7495 0.18387 0.7525 0.0
C78 C 0.71955 0.09841 0.76615 0.0
N79 N 0.7416 0.14491 0.77766 0.0
O80 O 0.62705 0.00889 0.74177 0.0
H81 H 0.76089 0.21784 0.74265 0.0
H82 H 0.70222 0.04891 0.76893 0.0
O83 O 0.75285 0.02887 0.74029 0.0
C84 C 0.59241 0.03418 0.74048 0.0
O85 O 0.61586 0.08889 0.73274 0.0
N86 N 0.77508 0.13085 0.71988 0.0
C87 C 0.85985 0.22071 0.69783 0.0
C88 C 0.8712 0.17423 0.70442 0.0
C89 C 0.82734 0.12862 0.71512 0.0
C90 C 0.76258 0.17462 0.71315 0.0
C91 C 0.80472 0.22061 0.70221 0.0
H92 H 0.83413 0.08997 0.71864 0.0
H93 H 0.71851 0.17266 0.71598 0.0
H94 H 0.74533 0.9802 0.71083 0.0
H95 H 0.61654 0.97662 0.67573 0.0
H96 H 0.78234 0.2461 0.77435 0.0
H97 H 0.91187 0.171 0.70058 0.0
H98 H 0.7937 0.25478 0.69698 0.0
C99 C 0.6664 0.74201 0.03358 0.0
C100 C 0.69242 0.72749 0.02042 0.0
N101 N 0.75556 0.75602 0.02274 0.0
N102 N 0.71245 0.77943 0.04434 0.0
C103 C 0.76641 0.78696 0.03744 0.0
H104 H 0.61697 0.72729 0.03502 0.0
Co105 Co 0.69722 0.81512 0.06321 0.0
C106 C 0.82224 0.90915 0.07629 0.0
O107 O 0.7973 0.94512 0.07875 0.0
N108 N 0.68092 0.84956 0.08248 0.0
C109 C 0.65177 0.89537 0.10167 0.0
C110 C 0.65493 0.8864 0.08492 0.0
C111 C 0.69262 0.83673 0.09797 0.0
N112 N 0.67535 0.86381 0.10984 0.0
O113 O 0.66654 0.73557 0.07497 0.0
H114 H 0.63861 0.90567 0.07539 0.0
H115 H 0.71422 0.80834 0.10047 0.0
O116 O 0.78729 0.85267 0.07046 0.0
C117 C 0.60652 0.71216 0.07355 0.0
O118 O 0.58681 0.74582 0.06555 0.0
N119 N 0.71537 0.88598 0.05045 0.0
C120 C 0.71355 0.956 0.02361 0.0
C121 C 0.77076 0.96197 0.02898 0.0
C122 C 0.77049 0.92518 0.04227 0.0
C123 C 0.66004 0.88172 0.04554 0.0
C124 C 0.65814 0.91695 0.03231 0.0
H125 H 0.81314 0.924 0.04478 0.0
H126 H 0.6159 0.84697 0.0511 0.0
H127 H 0.81299 0.8165 0.04275 0.0
H128 H 0.66652 0.69815 0.00992 0.0
H129 H 0.63218 0.9218 0.10736 0.0
H130 H 0.81393 0.98989 0.02198 0.0
H131 H 0.61297 0.90998 0.02812 0.0
C132 C 0.93606 0.66352 0.36184 0.0
C133 C 0.97323 0.69718 0.34859 0.0
N134 N 0.02091 0.75321 0.35415 0.0
N135 N 0.95968 0.6978 0.37584 0.0
C136 C 0.01179 0.75217 0.37077 0.0
H137 H 0.89345 0.6174 0.36124 0.0
Co138 Co 0.91959 0.67284 0.39675 0.0
C139 C 0.94489 0.79387 0.41216 0.0
O140 O 0.88526 0.76359 0.41679 0.0
N141 N 0.88052 0.64764 0.41788 0.0
C142 C 0.81704 0.60882 0.43984 0.0
C143 C 0.82086 0.60577 0.42289 0.0
C144 C 0.91232 0.67274 0.4322 0.0
N145 N 0.87459 0.6518 0.44565 0.0
O146 O 0.98163 0.65225 0.40429 0.0
H147 H 0.78141 0.57542 0.41502 0.0
H148 H 0.96226 0.70786 0.43265 0.0
O149 O 0.96737 0.76339 0.40445 0.0
C150 C 0.95331 0.59379 0.39979 0.0
O151 O 0.89976 0.57114 0.39159 0.0
N152 N 0.85389 0.68185 0.3883 0.0
C153 C 0.75403 0.67485 0.37021 0.0
C154 C 0.80926 0.73364 0.37301 0.0
C155 C 0.85948 0.7359 0.38169 0.0
C156 C 0.8013 0.62441 0.38519 0.0
C157 C 0.75002 0.61985 0.3766 0.0
H158 H 0.90397 0.78018 0.38199 0.0
H159 H 0.80069 0.5812 0.38841 0.0
H160 H 0.04132 0.79112 0.37901 0.0
H161 H 0.96562 0.6814 0.33581 0.0
H162 H 0.77442 0.58364 0.44718 0.0
H163 H 0.81586 0.77679 0.36731 0.0
H164 H 0.70947 0.57343 0.37401 0.0
C165 C 0.15964 0.8842 0.70389 0.0
C166 C 0.18294 0.92885 0.6914 0.0
N167 N 0.19038 0.98378 0.6974 0.0
N168 N 0.15147 0.91048 0.71768 0.0
C169 C 0.17125 0.97136 0.71337 0.0
H170 H 0.149 0.83556 0.70294 0.0
Co171 Co 0.11926 0.8715 0.73834 0.0
C172 C 0.05963 0.94433 0.75069 0.0
O173 O 0.08727 0.95408 0.76525 0.0
N174 N 0.08644 0.83301 0.75901 0.0
C175 C 0.01912 0.78136 0.77952 0.0
C176 C 0.02522 0.805 0.76373 0.0
C177 C 0.11638 0.82507 0.77209 0.0
N178 N 0.07662 0.79401 0.78475 0.0
O179 O 0.19369 0.93845 0.7487 0.0
H180 H 0.98727 0.80188 0.75615 0.0
H181 H 0.16656 0.84239 0.77253 0.0
O182 O 0.07114 0.9148 0.73948 0.0
C183 C 0.2304 0.91548 0.74745 0.0
O184 O 0.20705 0.85823 0.74111 0.0
N185 N 0.05288 0.80256 0.72784 0.0
C186 C 0.99291 0.70673 0.70477 0.0
C187 C 0.97976 0.7564 0.70543 0.0
C188 C 0.01111 0.80481 0.71707 0.0
C189 C 0.05945 0.75043 0.72872 0.0
C190 C 0.02987 0.70169 0.71719 0.0
H191 H 1.00738 0.84688 0.71612 0.0
H192 H 0.09346 0.75005 0.73722 0.0
H193 H 0.17076 1.00573 0.72176 0.0
H194 H 0.19434 0.92166 0.67892 0.0
H195 H 0.97561 0.75624 0.78651 0.0
H196 H 0.95241 0.76217 0.69572 0.0
H197 H 0.04167 0.66448 0.7168 0.0
C198 C 0.85603 0.73204 0.62389 0.0
C199 C 0.83101 0.74053 0.63823 0.0
N200 N 0.80052 0.77215 0.63461 0.0
N201 N 0.84306 0.75929 0.61109 0.0
C202 C 0.80669 0.78074 0.61793 0.0
H203 H 0.88353 0.70886 0.62308 0.0
Co204 Co 0.87102 0.76622 0.58873 0.0
C205 C 0.92942 0.9049 0.5997 0.0
O206 O 0.91737 0.89104 0.61547 0.0
N207 N 0.89809 0.77242 0.56674 0.0
C208 C 0.96206 0.80352 0.54493 0.0
C209 C 0.95672 0.81468 0.56132 0.0
C210 C 0.86867 0.73571 0.55337 0.0
N211 N 0.90658 0.75379 0.53988 0.0
O212 O 0.79121 0.75438 0.58144 0.0
H213 H 0.9943 0.84978 0.569 0.0
H214 H 0.82065 0.69614 0.5535 0.0
O215 O 0.91302 0.86057 0.58894 0.0
C216 C 0.75624 0.69375 0.58113 0.0
O217 O 0.78262 0.6598 0.58475 0.0
N218 N 0.9444 0.76765 0.59563 0.0
C219 C 0.01829 0.73152 0.61299 0.0
C220 C 0.03141 0.79456 0.61381 0.0
C221 C 0.99329 0.81182 0.60501 0.0
C222 C 0.93859 0.71002 0.59252 0.0
C223 C 0.97545 0.69088 0.60106 0.0
H224 H 0.99948 0.85803 0.60719 0.0
H225 H 0.90018 0.67594 0.58481 0.0
H226 H 0.78832 0.80555 0.61085 0.0
H227 H 0.83768 0.72679 0.65047 0.0
H228 H 1.00447 0.82875 0.53752 0.0
H229 H 0.06434 0.82735 0.62291 0.0
H230 H 0.96426 0.64198 0.6001 0.0
C231 C 0.09976 0.71779 0.96327 0.0
C232 C 0.06879 0.71991 0.97724 0.0
N233 N 0.02514 0.73535 0.97276 0.0
N234 N 0.07609 0.73164 0.94987 0.0
C235 C 0.03031 0.74169 0.95603 0.0
H236 H 0.1382 0.70808 0.96295 0.0
Co237 Co 0.10883 0.74008 0.92826 0.0
C238 C 0.07938 0.83001 0.91097 0.0
O239 O 0.13392 0.85365 0.90328 0.0
N240 N 0.14057 0.74699 0.90648 0.0
C241 C 0.19682 0.76919 0.88324 0.0
C242 C 0.19941 0.7695 0.9003 0.0
C243 C 0.10311 0.73069 0.89288 0.0
N244 N 0.13614 0.74563 0.87859 0.0
O245 O 0.04182 0.65686 0.92259 0.0
H246 H 0.24238 0.7877 0.90743 0.0
H247 H 0.05253 0.71154 0.89354 0.0
O248 O 0.06202 0.78333 0.92107 0.0
C249 C 0.0675 0.62345 0.9257 0.0
O250 O 0.12297 0.65141 0.93311 0.0
N251 N 0.17895 0.81631 0.93472 0.0
C252 C 0.28262 0.91077 0.95168 0.0
C253 C 0.23088 0.9182 0.94774 0.0
C254 C 0.17867 0.86957 0.93967 0.0
C255 C 0.22934 0.80893 0.93825 0.0
C256 C 0.28223 0.85601 0.94652 0.0
H257 H 0.13658 0.87286 0.93888 0.0
H258 H 0.22679 0.76432 0.93555 0.0
H259 H 1.00248 0.75508 0.94846 0.0
H260 H 0.07801 0.71071 0.98975 0.0
H261 H 0.23713 0.78863 0.87499 0.0
H262 H 0.22785 0.95825 0.95238 0.0
H263 H 0.32029 0.84771 0.94989 0.0
C264 C 0.34997 0.06097 0.27569 0.0
C265 C 0.3185 0.01815 0.28827 0.0
N266 N 0.25595 0.99606 0.28664 0.0
N267 N 0.30772 0.06618 0.26609 0.0
C268 C 0.2508 0.02594 0.27306 0.0
H269 H 0.40065 0.08766 0.27384 0.0
Co270 Co 0.32921 0.12433 0.24852 0.0
C271 C 0.20797 0.1108 0.2372 0.0
O272 O 0.23704 0.17251 0.23485 0.0
N273 N 0.35105 0.18297 0.2307 0.0
C274 C 0.38866 0.26864 0.21459 0.0
C275 C 0.3828 0.24728 0.23061 0.0
C276 C 0.3386 0.16678 0.2145 0.0
N277 N 0.36101 0.21789 0.20448 0.0
O278 O 0.34244 0.06903 0.23444 0.0
H279 H 0.4012 0.27774 0.24131 0.0
H280 H 0.31287 0.11816 0.21014 0.0
O281 O 0.23936 0.08512 0.24236 0.0
C282 C 0.40279 0.09638 0.23358 0.0
O283 O 0.43665 0.15121 0.24116 0.0
N284 N 0.32621 0.18048 0.26325 0.0
C285 C 0.34722 0.26017 0.28987 0.0
C286 C 0.28539 0.21914 0.28416 0.0
C287 C 0.27564 0.17819 0.27098 0.0
C288 C 0.38629 0.21995 0.26882 0.0
C289 C 0.39807 0.26099 0.28195 0.0
H290 H 0.22779 0.1423 0.26795 0.0
H291 H 0.42544 0.21824 0.26326 0.0
H292 H 0.20646 0.0202 0.26865 0.0
H293 H 0.34014 1.00425 0.29784 0.0
H294 H 0.41268 0.3178 0.21067 0.0
H295 H 0.24487 0.21529 0.29063 0.0
H296 H 0.44613 0.29086 0.28639 0.0
C297 C 0.35716 0.37049 0.62505 0.0
C298 C 0.3528 0.32871 0.63731 0.0
N299 N 0.29587 0.27523 0.63601 0.0
N300 N 0.30314 0.34339 0.61609 0.0
C301 C 0.26672 0.28588 0.62325 0.0
H302 H 0.39735 0.41724 0.62275 0.0
Co303 Co 0.27944 0.37464 0.59767 0.0
C304 C 0.23278 0.24434 0.58314 0.0
O305 O 0.28885 0.25659 0.57814 0.0
N306 N 0.25385 0.40284 0.5793 0.0
C307 C 0.22037 0.45125 0.56224 0.0
C308 C 0.23938 0.44918 0.57824 0.0
C309 C 0.24405 0.37806 0.5639 0.0
N310 N 0.22329 0.40621 0.55323 0.0
O311 O 0.3536 0.38942 0.58586 0.0
H312 H 0.24199 0.47912 0.58846 0.0
H313 H 0.25115 0.33918 0.56068 0.0
O314 O 0.22644 0.28766 0.5901 0.0
C315 C 0.38987 0.44959 0.58751 0.0
O316 O 0.36848 0.48092 0.59595 0.0
N317 N 0.21402 0.37001 0.6098 0.0
C318 C 0.13168 0.37181 0.63288 0.0
C319 C 0.10848 0.32862 0.61955 0.0
C320 C 0.15077 0.32922 0.60788 0.0
C321 C 0.23653 0.41566 0.62174 0.0
C322 C 0.19612 0.41769 0.6334 0.0
H323 H 0.13303 0.29627 0.59763 0.0
H324 H 0.28679 0.44924 0.62255 0.0
H325 H 0.21903 0.25217 0.6193 0.0
H326 H 0.38932 0.33637 0.64616 0.0
H327 H 0.20611 0.48378 0.55763 0.0
H328 H 0.05887 0.29269 0.6186 0.0
H329 H 0.21562 0.45301 0.64316 0.0
C330 C 0.89897 0.2019 0.94202 0.0
C331 C 0.92906 0.22622 0.95699 0.0
N332 N 0.98557 0.22954 0.95664 0.0
N333 N 0.93597 0.18905 0.93226 0.0
C334 C 0.98916 0.20834 0.94147 0.0
H335 H 0.85365 0.19577 0.93855 0.0
Co336 Co 0.92645 0.16106 0.90983 0.0
C337 C 0.96379 0.07765 0.92778 0.0
O338 O 0.92864 0.07525 0.94037 0.0
N339 N 0.91967 0.13545 0.88779 0.0
C340 C 0.93861 0.10651 0.86337 0.0
C341 C 0.9593 0.12212 0.87947 0.0
C342 C 0.87581 0.12849 0.87649 0.0
N343 N 0.88627 0.11084 0.86154 0.0
O344 O 1.003 0.23838 0.90522 0.0
H345 H 1.00152 0.12514 0.88462 0.0
H346 H 0.83731 0.13683 0.87915 0.0
O347 O 0.96905 0.11186 0.91509 0.0
C348 C 0.98161 0.274 0.90038 0.0
O349 O 0.92139 0.24656 0.89638 0.0
N350 N 0.84651 0.09113 0.91378 0.0
C351 C 0.73301 0.01182 0.92873 0.0
C352 C 0.77139 0.98771 0.92345 0.0
C353 C 0.8282 0.02851 0.9154 0.0
C354 C 0.80252 0.10937 0.91482 0.0
C355 C 0.74452 0.06994 0.92229 0.0
H356 H 0.85924 0.01111 0.91194 0.0
H357 H 0.81534 0.15743 0.91162 0.0
H358 H 0.03034 0.2073 0.93705 0.0
H359 H 0.91065 0.24002 0.96736 0.0
H360 H 0.96164 0.09528 0.85361 0.0
H361 H 0.76238 0.9415 0.92746 0.0
H362 H 0.71441 0.08898 0.9255 0.0
C363 C 0.68166 1.00134 0.2823 0.0
C364 C 0.70468 0.03083 0.29733 0.0
N365 N 0.76671 0.0499 0.29825 0.0
N366 N 0.72864 1.00125 0.27366 0.0
C367 C 0.78035 0.03197 0.28366 0.0
H368 H 0.63275 0.9779 0.27833 0.0
Co369 Co 0.71246 0.95096 0.2545 0.0
C370 C 0.83443 0.96598 0.24437 0.0
O371 O 0.8046 0.90435 0.24179 0.0
N372 N 0.69523 0.90004 0.23512 0.0
C373 C 0.65734 0.82284 0.21621 0.0
C374 C 0.66133 0.83637 0.23287 0.0
C375 C 0.71162 0.92371 0.21959 0.0
N376 N 0.68862 0.87798 0.20786 0.0
O377 O 0.70306 0.01179 0.24171 0.0
H378 H 0.63911 0.80127 0.24249 0.0
H379 H 0.73928 0.974 0.21693 0.0
O380 O 0.80372 0.99206 0.24977 0.0
C381 C 0.64309 0.98505 0.23978 0.0
O382 O 0.60718 0.92892 0.2465 0.0
N383 N 0.71139 0.88901 0.26784 0.0
C384 C 0.68331 0.81057 0.29497 0.0
C385 C 0.74646 0.85191 0.29056 0.0
C386 C 0.75976 0.89187 0.27697 0.0
C387 C 0.64986 0.8476 0.27191 0.0
C388 C 0.6346 0.8072 0.28537 0.0
H389 H 0.80821 0.92841 0.27489 0.0
H390 H 0.61217 0.8489 0.26531 0.0
H391 H 0.82584 0.03692 0.28087 0.0
H392 H 0.67733 0.03584 0.30712 0.0
H393 H 0.63098 0.7761 0.21066 0.0
H394 H 0.78487 0.85644 0.29826 0.0
H395 H 0.5855 0.77669 0.28884 0.0
H396 H 0.62119 0.6188 0.08886 0.0
H397 H 0.4797 0.66149 0.07158 0.0
H398 H 0.39707 0.55273 0.07599 0.0
H399 H 0.36687 0.44119 0.07974 0.0
H400 H 0.50605 0.39674 0.09737 0.0
H401 H 0.58598 0.5094 0.0985 0.0
C402 C 0.57222 0.6045 0.08638 0.0
C403 C 0.55749 0.64812 0.07936 0.0
C404 C 0.52376 0.541 0.08904 0.0
C405 C 0.49328 0.62887 0.07656 0.0
C406 C 0.44539 0.56638 0.07914 0.0
C407 C 0.41379 0.4564 0.08459 0.0
C408 C 0.43081 0.41097 0.08824 0.0
C409 C 0.46025 0.52135 0.0847 0.0
C410 C 0.49206 0.43122 0.09437 0.0
C411 C 0.53813 0.49565 0.09481 0.0
H412 H 0.98711 0.35687 0.40809 0.0
H413 H 0.08143 0.454 0.453 0.0
H414 H 0.05536 0.53697 0.44739 0.0
H415 H 0.01526 0.58798 0.42784 0.0
H416 H 0.93424 0.49466 0.38126 0.0
H417 H 0.94862 0.40654 0.38887 0.0
C418 C 1.00036 0.39524 0.41686 0.0
C419 C 0.03524 0.39888 0.43102 0.0
C420 C 0.99024 0.44535 0.41281 0.0
C421 C 0.05312 0.44951 0.44218 0.0
C422 C 0.03955 0.49772 0.43877 0.0
C423 C 1.002 0.54889 0.41929 0.0
C424 C 0.97425 0.54824 0.40395 0.0
C425 C 0.01039 0.49758 0.42376 0.0
C426 C 0.956 0.49654 0.39313 0.0
C427 C 0.96351 0.44562 0.39752 0.0
H428 H 0.52373 0.09144 0.74482 0.0
H429 H 0.51336 0.91033 0.75007 0.0
H430 H 0.39968 0.85966 0.75579 0.0
H431 H 0.30233 0.86494 0.75526 0.0
H432 H 0.31173 0.0447 0.74802 0.0
H433 H 0.42776 0.09861 0.74753 0.0
C434 C 0.49684 0.04089 0.74739 0.0
C435 C 0.52666 1.00428 0.74669 0.0
C436 C 0.43163 0.01218 0.75028 0.0
C437 C 0.49145 0.93931 0.75041 0.0
C438 C 0.4265 0.91043 0.75361 0.0
C439 C 0.32981 0.91618 0.75387 0.0
C440 C 0.29866 0.95089 0.75144 0.0
C441 C 0.39591 0.94609 0.75299 0.0
C442 C 0.33466 0.01713 0.74994 0.0
C443 C 0.40087 0.0477 0.74948 0.0
H444 H 0.68072 0.56899 0.57432 0.0
H445 H 0.67588 0.74153 0.58205 0.0
H446 H 0.55986 0.67989 0.58243 0.0
H447 H 0.46194 0.57659 0.58405 0.0
H448 H 0.46708 0.4035 0.57801 0.0
H449 H 0.58166 0.46618 0.57324 0.0
C450 C 0.65437 0.59339 0.5759 0.0
C451 C 0.68691 0.65981 0.57839 0.0
C452 C 0.58806 0.55749 0.57651 0.0
C453 C 0.65204 0.69064 0.58013 0.0
C454 C 0.58577 0.65529 0.58046 0.0
C455 C 0.4879 0.55236 0.58151 0.0
C456 C 0.4562 0.48531 0.58164 0.0
C457 C 0.55357 0.58861 0.5792 0.0
C458 C 0.49034 0.45487 0.57802 0.0
C459 C 0.55584 0.49075 0.57541 0.0
H460 H 0.94438 0.35586 0.89067 0.0
H461 H 0.0906 0.34674 0.91843 0.0
H462 H 0.12897 0.45459 0.92881 0.0
H463 H 0.11546 0.54698 0.93162 0.0
H464 H 0.9662 0.55416 0.90486 0.0
H465 H 0.93267 0.44944 0.89287 0.0
C466 C 0.98526 0.37762 0.89883 0.0
C467 C 0.01464 0.34313 0.90378 0.0
C468 C 1.00515 0.43823 0.90526 0.0
C469 C 0.06761 0.37232 0.91428 0.0
C470 C 0.0889 0.4336 0.92039 0.0
C471 C 0.07539 0.52579 0.92319 0.0
C472 C 0.04293 0.55826 0.91924 0.0
C473 C 0.05696 0.46617 0.91628 0.0
C474 C 0.9914 0.52995 0.90826 0.0
C475 C 0.97269 0.47041 0.90131 0.0
H476 H 0.52247 0.92712 0.2292 0.0
H477 H 0.69207 0.11141 0.23239 0.0
H478 H 0.63003 0.16221 0.22606 0.0
H479 H 0.52626 0.15396 0.22586 0.0
H480 H 0.35593 0.96983 0.22693 0.0
H481 H 0.41969 0.91865 0.22485 0.0
C482 C 0.54618 0.97847 0.22824 0.0
C483 C 0.61143 0.01579 0.23174 0.0
C484 C 0.50983 1.00701 0.22549 0.0
C485 C 0.64183 0.0819 0.22995 0.0
C486 C 0.60625 0.1108 0.22644 0.0
C487 C 0.50291 0.10254 0.22528 0.0
C488 C 0.43662 0.06547 0.22702 0.0
C489 C 0.53992 0.07384 0.22515 0.0
C490 C 0.40685 0.9992 0.22578 0.0
C491 C 0.44338 0.97008 0.22477 0.0
H492 H 0.34825 0.03901 0.95224 0.0
H493 H 0.31337 0.87385 0.9802 0.0
H494 H 0.34335 0.93544 0.00575 0.0
H495 H 0.35021 0.02694 0.02044 0.0
H496 H 0.37792 0.18981 0.99261 0.0
H497 H 0.37971 0.13882 0.96671 0.0
C498 C 0.34996 0.01752 0.96386 0.0
C499 C 0.32714 0.95209 0.96451 0.0
C500 C 0.36364 0.05222 0.97858 0.0
C501 C 0.33041 0.92431 0.97947 0.0
C502 C 0.34643 0.95919 0.99413 0.0
C503 C 0.3581 0.05148 0.00868 0.0
C504 C 0.3623 0.11078 0.00816 0.0
C505 C 0.35827 0.02163 0.99392 0.0
C506 C 0.37384 0.1435 0.99309 0.0
C507 C 0.37484 0.11445 0.97834 0.0
H508 H 0.34197 0.30807 0.36463 0.0
H509 H 0.23588 0.39303 0.3468 0.0
H510 H 0.26827 0.38967 0.31835 0.0
H511 H 0.30627 0.33992 0.2986 0.0
H512 H 0.4091 0.25146 0.31658 0.0
H513 H 0.40029 0.28027 0.34498 0.0
C514 C 0.32816 0.3279 0.35451 0.0
C515 C 0.28634 0.34986 0.35747 0.0
C516 C 0.34569 0.32438 0.33828 0.0
C517 C 0.26831 0.3759 0.34455 0.0
C518 C 0.28627 0.37343 0.32834 0.0
C519 C 0.32827 0.32888 0.30875 0.0
C520 C 0.35708 0.29289 0.30575 0.0
C521 C 0.32181 0.34432 0.32501 0.0
C522 C 0.38645 0.27914 0.31877 0.0
C523 C 0.38102 0.2951 0.33498 0.0
H524 H 0.00844 0.34255 0.63272 0.0
H525 H 0.16398 0.38141 0.66544 0.0
H526 H 0.0939 0.34917 0.68918 0.0
H527 H 0.98633 0.29285 0.69998 0.0
H528 H 0.82875 0.24506 0.66736 0.0
H529 H 0.90146 0.29836 0.64432 0.0
C530 C 0.02697 0.34462 0.64508 0.0
C531 C 0.09105 0.36362 0.64726 0.0
C532 C 0.98594 0.32383 0.65869 0.0
C533 C 0.11491 0.36747 0.66338 0.0
C534 C 0.07477 0.34843 0.67699 0.0
C535 C 0.96823 0.29533 0.68787 0.0
C536 C 0.90282 0.26457 0.68519 0.0
C537 C 0.00992 0.32405 0.67468 0.0
C538 C 0.87927 0.26861 0.66962 0.0
C539 C 0.92071 0.2985 0.65644 0.0
H540 H 0.64691 0.88425 -0.00217 0.0
H541 H 0.77286 0.07824 0.01274 0.0
H542 H 0.77694 0.11373 0.9841 0.0
H543 H 0.75787 0.0872 0.95493 0.0
H544 H 0.64491 0.89185 0.93928 0.0
H545 H 0.62051 0.85854 0.96835 0.0
C546 C 0.67387 0.93442 -0.00522 0.0
C547 C 0.70935 0.97901 0.00715 0.0
C548 C 0.67803 0.9537 0.97829 0.0
C549 C 0.74532 0.04364 0.00326 0.0
C550 C 0.74755 0.06366 0.98697 0.0
C551 C 0.72576 0.03752 0.95781 0.0
C552 C 0.70232 0.99189 0.94504 0.0
C553 C 0.71573 0.01882 0.97437 0.0
C554 C 0.66268 0.92757 0.94896 0.0
C555 C 0.64944 0.90868 0.96553 0.0
H556 H 0.66539 0.69458 0.30101 0.0
H557 H 0.67094 0.85639 0.32409 0.0
H558 H 0.67382 0.81551 0.35158 0.0
H559 H 0.70114 0.7483 0.36785 0.0
H560 H 0.70716 0.59305 0.34415 0.0
H561 H 0.66962 0.61397 0.31831 0.0
C562 C 0.66513 0.71936 0.31216 0.0
C563 C 0.66906 0.77827 0.31089 0.0
C564 C 0.66881 0.69661 0.32776 0.0
C565 C 0.66851 0.81091 0.32511 0.0
C566 C 0.67025 0.78768 0.34073 0.0
C567 C 0.69194 0.71783 0.35715 0.0
C568 C 0.70846 0.67068 0.35766 0.0
C569 C 0.6743 0.73264 0.3421 0.0
C570 C 0.69518 0.63011 0.34398 0.0
C571 C 0.67464 0.64263 0.32911 0.0
H572 H 0.08844 0.72693 0.6853 0.0
H573 H 0.88484 0.62321 0.68818 0.0
H574 H 0.87785 0.6033 0.65825 0.0
H575 H 0.92873 0.63999 0.63148 0.0
H576 H 0.13071 0.76568 0.62863 0.0
H577 H 0.14049 0.75075 0.6583 0.0
C578 C 0.04272 0.69758 0.6794 0.0
C579 C 0.98712 0.67606 0.68871 0.0
C580 C 0.03935 0.69125 0.66216 0.0
C581 C 0.92793 0.63953 0.68112 0.0
C582 C 0.92415 0.62879 0.66405 0.0
C583 C 0.97521 0.66183 0.63722 0.0
C584 C 0.02904 0.70406 0.62802 0.0
C585 C 0.97941 0.65789 0.65439 0.0
C586 C 0.0889 0.73288 0.63555 0.0
C587 C 0.0942 0.72496 0.65251 0.0
H588 H 0.11652 1.00641 0.07704 0.0
H589 H 0.12463 0.1872 0.07878 0.0
H590 H 0.00906 0.13268 0.07955 0.0
H591 H 0.90658 0.03484 0.07905 0.0
H592 H 0.8961 0.85328 0.0754 0.0
H593 H 0.01224 0.90714 0.0761 0.0
C594 C 0.09302 0.03391 0.07773 0.0
C595 C 0.12933 0.10098 0.078 0.0
C596 C 0.02634 1.00215 0.07779 0.0
C597 C 0.09799 0.13574 0.0786 0.0
C598 C 0.03189 0.10454 0.07904 0.0
C599 C 0.92933 1.0066 0.07854 0.0
C600 C 0.89236 0.93979 0.07734 0.0
C601 C 0.99571 0.0379 0.07856 0.0
C602 C 0.92322 0.90457 0.07642 0.0
C603 C 0.98962 0.93544 0.0768 0.0
H604 H 0.13309 0.09062 0.41699 0.0
H605 H 0.95673 0.08981 0.41996 0.0
H606 H 0.89818 0.97342 0.41822 0.0
H607 H 0.89746 0.87243 0.41592 0.0
H608 H 0.07374 0.87393 0.41126 0.0
H609 H 0.13228 0.9901 0.41363 0.0
C610 C 0.08178 0.06513 0.41734 0.0
C611 C 0.04931 0.09906 0.41881 0.0
C612 C 0.04862 0.99848 0.41604 0.0
C613 C 0.98287 0.06505 0.41891 0.0
C614 C 0.94946 0.9985 0.41794 0.0
C615 C 0.94877 0.89802 0.41553 0.0
C616 C 0.98129 0.86431 0.41363 0.0
C617 C 0.98188 0.96478 0.41655 0.0
C618 C 0.04763 0.89853 0.4128 0.0
C619 C 0.08103 0.96494 0.41415 0.0
H620 H 0.84188 0.99521 0.72707 0.0
H621 H 0.85294 0.04934 0.77832 0.0
H622 H 0.93191 0.01853 0.7837 0.0
H623 H 1.00427 0.98424 0.77335 0.0
H624 H 1.00028 0.93927 0.72146 0.0
H625 H 0.91344 0.95918 0.71677 0.0
C626 C 0.86032 0.99842 0.73949 0.0
C627 C 0.84035 0.02285 0.7524 0.0
C628 C 0.90841 0.98378 0.74228 0.0
C629 C 0.86635 0.02907 0.7683 0.0
C630 C 0.91223 0.01231 0.77133 0.0
C631 C 0.98458 0.97892 0.761 0.0
C632 C 0.00894 0.95998 0.74782 0.0
C633 C 0.93486 0.99115 0.75832 0.0
C634 C 0.9824 0.95321 0.73191 0.0
C635 C 0.93253 0.96459 0.72919 0.0
H636 H 0.02667 0.95198 0.57733 0.0
H637 H 0.93454 0.00857 0.61327 0.0
H638 H 0.01863 0.11927 0.61049 0.0
H639 H 0.12239 0.1975 0.60003 0.0
H640 H 0.21886 0.1425 0.56503 0.0
H641 H 0.12928 0.03311 0.56541 0.0
C642 C 0.02418 0.98869 0.5842 0.0
C643 C 0.97407 0.97209 0.59539 0.0
C644 C 0.07403 0.0522 0.58295 0.0
C645 C 0.97242 0.0202 0.60453 0.0
C646 C 0.02067 0.08342 0.60302 0.0
C647 C 0.12357 0.16227 0.59216 0.0
C648 C 0.17731 0.17869 0.58239 0.0
C649 C 0.0724 0.09968 0.59259 0.0
C650 C 0.17823 0.13135 0.57267 0.0
C651 C 0.12692 0.06878 0.57287 0.0
H652 H 0.02848 0.85928 0.93708 0.0
H653 H 0.06529 0.89093 0.8847 0.0
H654 H 0.03448 0.97197 0.88514 0.0
H655 H 1.00244 0.03794 0.90077 0.0
H656 H 0.97106 0.00945 0.95349 0.0
H657 H 0.99548 0.92428 0.95262 0.0
C658 C 0.02825 0.8828 0.9257 0.0
C659 C 0.04825 0.86852 0.91083 0.0
C660 C 0.01303 0.93123 0.92619 0.0
C661 C 0.04937 0.90071 0.89627 0.0
C662 C 0.0324 0.94749 0.89655 0.0
C663 C 1.00164 0.01364 0.91209 0.0
C664 C 0.9853 0.0306 0.92718 0.0
C665 C 0.0155 0.96421 0.91151 0.0
C666 C 0.98367 0.99773 0.94169 0.0
C667 C 0.99729 0.94863 0.94121 0.0
H668 H 0.12829 0.15758 0.23792 0.0
H669 H 0.13015 0.98165 0.2369 0.0
H670 H 0.01448 0.92167 0.23852 0.0
H671 H 0.91362 0.91946 0.24101 0.0
H672 H 0.91204 0.09535 0.24364 0.0
H673 H 0.02735 0.15534 0.24065 0.0
C674 C 0.10346 0.10608 0.23787 0.0
C675 C 0.13785 0.07408 0.23713 0.0
C676 C 0.03719 0.07204 0.2392 0.0
C677 C 0.10484 1.00738 0.23737 0.0
C678 C 0.03875 0.97312 0.23834 0.0
C679 C 0.93834 0.97096 0.24085 0.0
C680 C 0.90415 1.00292 0.24247 0.0
C681 C 1.00454 1.00499 0.23938 0.0
C682 C 0.93716 0.06962 0.24242 0.0
C683 C 1.00306 0.10389 0.24068 0.0
H684 H 0.05206 0.17431 0.96588 0.0
H685 H 0.02155 0.32907 0.97732 0.0
H686 H 0.09885 0.3628 1e-05 0.0
H687 H 0.17489 0.34746 0.01682 0.0
H688 H 0.19959 0.18819 0.00647 0.0
H689 H 0.12511 0.15681 0.98325 0.0
C690 C 0.06283 0.21566 0.97329 0.0
C691 C 0.03164 0.24956 0.96987 0.0
C692 C 0.10614 0.2337 0.98657 0.0
C693 C 0.04494 0.30228 0.97976 0.0
C694 C 0.08918 0.32157 0.9927 0.0
C695 C 0.16401 0.30608 0.00941 0.0
C696 C 0.19286 0.2703 0.01333 0.0
C697 C 0.12004 0.28759 -0.00374 0.0
C698 C 0.17767 0.21619 0.00378 0.0
C699 C 0.13529 0.19841 0.99046 0.0
H700 H 0.89357 0.14744 0.36844 0.0
H701 H 0.04344 0.28726 0.33797 0.0
H702 H 0.98527 0.23196 0.31286 0.0
H703 H 0.88771 0.14736 0.29939 0.0
H704 H 0.73464 0.01198 0.3299 0.0
H705 H 0.79722 0.06094 0.35493 0.0
C706 C 0.91363 0.165 0.35628 0.0
C707 C 0.97272 0.2213 0.35506 0.0
C708 C 0.87883 0.13384 0.34183 0.0
C709 C 0.9979 0.24419 0.33921 0.0
C710 C 0.96461 0.21257 0.32485 0.0
C711 C 0.86861 0.12831 0.31153 0.0
C712 C 0.80653 0.07629 0.31277 0.0
C713 C 0.90445 0.15792 0.32596 0.0
C714 C 0.78204 0.05239 0.32861 0.0
C715 C 0.81789 0.08033 0.34295 0.0
H716 H 0.77246 0.86563 0.62938 0.0
H717 H 0.77098 0.739 0.66706 0.0
H718 H 0.73835 0.78932 0.68764 0.0
H719 H 0.71055 0.87046 0.69532 0.0
H720 H 0.70537 0.99175 0.65732 0.0
H721 H 0.73948 0.9422 0.63663 0.0
C722 C 0.76426 0.84809 0.64199 0.0
C723 C 0.77525 0.79854 0.64646 0.0
C724 C 0.74428 0.87667 0.65386 0.0
C725 C 0.76444 0.77759 0.66308 0.0
C726 C 0.74537 0.80629 0.67496 0.0
C727 C 0.71714 0.88597 0.68251 0.0
C728 C 0.70548 0.93471 0.67787 0.0
C729 C 0.73564 0.85626 0.67056 0.0
C730 C 0.71351 0.95398 0.66118 0.0
C731 C 0.73317 0.92573 0.64935 0.0
H732 H 0.87109 0.77194 0.03009 0.0
H733 H 0.74302 0.73808 0.98942 0.0
H734 H 0.81526 0.72971 0.97032 0.0
H735 H 0.91354 0.72826 0.96509 0.0
H736 H 0.0431 0.76485 0.00559 0.0
H737 H 0.97211 0.77581 0.02457 0.0
C738 C 0.85922 0.76336 0.01704 0.0
C739 C 0.80091 0.75487 0.01138 0.0
C740 C 0.90132 0.7586 0.00598 0.0
C741 C 0.7866 0.74345 0.99434 0.0
C742 C 0.82823 0.73901 0.98331 0.0
C743 C 0.9267 0.73924 0.97801 0.0
C744 C 0.9837 0.74479 0.98378 0.0
C745 C 0.8855 0.74582 0.98899 0.0
C746 C 0.99922 0.75876 0.0007 0.0
C747 C 0.95866 0.76553 0.01163 0.0
H748 H 0.26315 0.97423 0.31937 0.0
H749 H 0.13421 0.91429 0.27784 0.0
H750 H 0.04957 0.83484 0.29522 0.0
H751 H 0.01242 0.78043 0.32204 0.0
H752 H 0.14058 0.83998 0.3637 0.0
H753 H 0.22489 0.92151 0.34652 0.0
C754 C 0.21667 0.94359 0.31408 0.0
C755 C 0.20549 0.95031 0.2972 0.0
C756 C 0.16789 0.89784 0.32421 0.0
C757 C 0.14435 0.91079 0.29074 0.0
C758 C 0.09588 0.865 0.30068 0.0
C759 C 0.05886 0.8109 0.32737 0.0
C760 C 0.07003 0.8034 0.34418 0.0
C761 C 0.10716 0.85777 0.3174 0.0
C762 C 0.13032 0.84464 0.35089 0.0
C763 C 0.17873 0.89113 0.34102 0.0
H764 H 0.17231 0.99853 0.66511 0.0
H765 H 0.26131 0.10283 0.70977 0.0
H766 H 0.30332 0.2033 0.69466 0.0
H767 H 0.31538 0.26182 0.66847 0.0
H768 H 0.22248 0.15624 0.62422 0.0
H769 H 0.18164 0.05647 0.63933 0.0
C770 C 0.20118 0.04325 0.67151 0.0
C771 C 0.21391 0.04308 0.68854 0.0
C772 C 0.22451 0.1008 0.66277 0.0
C773 C 0.25044 0.10158 0.69671 0.0
C774 C 0.27473 0.15906 0.68804 0.0
C775 C 0.28645 0.21691 0.66217 0.0
C776 C 0.27212 0.21666 0.64522 0.0
C777 C 0.26224 0.15933 0.67104 0.0
C778 C 0.23377 0.15798 0.63727 0.0
C779 C 0.21058 0.10078 0.64589 0.0
H780 H 0.35516 0.26504 0.12839 0.0
H781 H 0.36594 0.0943 0.12581 0.0
H782 H 0.36561 0.08877 0.15613 0.0
H783 H 0.36325 0.13353 0.18336 0.0
H784 H 0.35251 0.30439 0.18557 0.0
H785 H 0.35122 0.3086 0.15534 0.0
C786 C 0.35657 0.22612 0.13444 0.0
C787 C 0.36014 0.1799 0.12486 0.0
C788 C 0.35643 0.22338 0.15179 0.0
C789 C 0.36361 0.13068 0.13292 0.0
C790 C 0.3631 0.12735 0.15023 0.0
C791 C 0.35988 0.17119 0.1772 0.0
C792 C 0.35795 0.21859 0.18667 0.0
C793 C 0.35957 0.17351 0.1598 0.0
C794 C 0.35472 0.26779 0.17854 0.0
C795 C 0.35374 0.27008 0.16127 0.0
H796 H 0.13615 0.36203 0.4784 0.0
H797 H 0.25393 0.27774 0.47809 0.0
H798 H 0.27366 0.29769 0.50779 0.0
H799 H 0.26411 0.34601 0.53312 0.0
H800 H 0.14641 0.43079 0.53408 0.0
H801 H 0.12104 0.40508 0.50476 0.0
C802 C 0.16493 0.34692 0.48498 0.0
C803 C 0.1936 0.31845 0.47616 0.0
C804 C 0.17715 0.35984 0.50203 0.0
C805 C 0.23171 0.29995 0.48469 0.0
C806 C 0.24314 0.31155 0.50162 0.0
C807 C 0.23199 0.35803 0.52711 0.0
C808 C 0.20738 0.39046 0.53594 0.0
C809 C 0.21719 0.34263 0.51033 0.0
C810 C 0.16693 0.4067 0.52762 0.0
C811 C 0.15193 0.39152 0.51085 0.0
H812 H 0.83522 0.18026 0.8514 0.0
H813 H 0.86251 0.02532 0.83745 0.0
H814 H 0.81342 0.01796 0.81049 0.0
H815 H 0.77018 0.0606 0.79034 0.0
H816 H 0.74844 0.21982 0.80331 0.0
H817 H 0.78704 0.22013 0.83138 0.0
C818 C 0.82932 0.14426 0.84254 0.0
C819 C 0.8524 0.10338 0.84634 0.0
C820 C 0.80235 0.14134 0.82693 0.0
C821 C 0.84553 0.05756 0.83468 0.0
C822 C 0.81739 0.05329 0.81932 0.0
C823 C 0.77285 0.09473 0.79934 0.0
C824 C 0.75668 0.1403 0.7947 0.0
C825 C 0.79667 0.09565 0.81521 0.0
C826 C 0.76113 0.18464 0.80654 0.0
C827 C 0.78319 0.1848 0.82257 0.0
H828 H 0.68276 0.79604 0.18457 0.0
H829 H 0.69885 0.97912 0.19113 0.0
H830 H 0.69785 0.99167 0.16117 0.0
H831 H 0.68935 0.94936 0.13306 0.0
H832 H 0.67008 0.76496 0.1265 0.0
H833 H 0.67525 0.75416 0.15645 0.0
C834 C 0.68581 0.83855 0.17945 0.0
C835 C 0.69093 0.88649 0.19013 0.0
C836 C 0.6845 0.8452 0.16218 0.0
C837 C 0.69583 0.9418 0.18325 0.0
C838 C 0.69472 0.94883 0.16609 0.0
C839 C 0.68589 0.90668 0.13819 0.0
C840 C 0.6793 0.85809 0.12753 0.0
C841 C 0.68857 0.90063 0.15544 0.0
C842 C 0.67597 0.80347 0.13439 0.0
C843 C 0.67854 0.79707 0.15153 0.0
H844 H 0.81849 0.59263 0.47423 0.0
H845 H 0.9644 0.77128 0.45422 0.0
H846 H 0.98688 0.8183 0.48175 0.0
H847 H 0.96299 0.81032 0.51123 0.0
H848 H 0.81795 0.63238 0.53174 0.0
H849 H 0.79573 0.58422 0.50419 0.0
C850 C 0.85514 0.64182 0.47591 0.0
C851 C 0.88995 0.67804 0.46215 0.0
C852 C 0.8674 0.66904 0.49182 0.0
C853 C 0.93771 0.7417 0.46457 0.0
C854 C 0.9502 0.76896 0.48031 0.0
C855 C 0.92704 0.76078 0.50978 0.0
C856 C 0.89241 0.72518 0.52362 0.0
C857 C 0.91517 0.73319 0.49399 0.0
C858 C 0.84492 0.66132 0.52134 0.0
C859 C 0.8325 0.63353 0.50558 0.0
H860 H 0.01699 0.78199 0.81367 0.0
H861 H 0.1733 0.77378 0.79183 0.0
H862 H 0.20407 0.75475 0.81909 0.0
H863 H 0.18822 0.74354 0.84929 0.0
H864 H 0.03317 0.75501 0.87092 0.0
H865 H 0.99915 0.76739 0.84358 0.0
C866 C 0.05721 0.77512 0.81482 0.0
C867 C 0.09288 0.77964 0.80071 0.0
C868 C 0.07469 0.7643 0.83052 0.0
C869 C 0.14555 0.77157 0.8025 0.0
C870 C 0.16298 0.7603 0.81808 0.0
C871 C 0.14699 0.74869 0.84803 0.0
C872 C 0.11337 0.74798 0.86223 0.0
C873 C 0.12827 0.75725 0.83221 0.0
C874 C 0.05949 0.75404 0.86029 0.0
C875 C 0.04024 0.76185 0.84462 0.0
loop_
_geom_bond_atom_site_label_1
_geom_bond_atom_site_label_2
_geom_bond_distance
_geom_bond_site_symmetry_2
_ccdc_geom_bond_type
C0 C1 1.351 . S
C0 N3 1.368 . S
C0 H5 0.931 . S
C1 C0 1.351 . S
C1 N2 1.373 . S
C1 H29 0.930 . S
N2 C1 1.373 . S
N2 C4 1.340 . S
N3 C0 1.368 . S
N3 C4 1.321 . S
N3 Co6 2.135 . S
C4 N2 1.340 . S
C4 N3 1.321 . S
C4 H28 0.930 . S
H5 C0 0.931 . S
Co6 N3 2.135 . S
Co6 N9 2.121 . S
Co6 O14 2.055 . S
Co6 O17 2.039 . S
Co6 N20 2.140 . S
C7 O8 1.227 . S
C7 O17 1.265 . S
O8 C7 1.227 . S
N9 Co6 2.121 . S
N9 C11 1.375 . S
N9 C12 1.313 . S
C10 C11 1.338 . S
C10 N13 1.377 . S
C10 H30 0.930 . S
C11 N9 1.375 . S
C11 C10 1.338 . S
C11 H15 0.931 . S
C12 N9 1.313 . S
C12 N13 1.344 . S
C12 H16 0.930 . S
N13 C10 1.377 . S
N13 C12 1.344 . S
O14 Co6 2.055 . S
O14 C18 1.253 . S
H15 C11 0.931 . S
H16 C12 0.930 . S
O17 Co6 2.039 . S
O17 C7 1.265 . S
C18 O14 1.253 . S
C18 O19 1.227 . S
O19 C18 1.227 . S
N20 Co6 2.140 . S
N20 C23 1.346 . S
N20 C24 1.345 . S
C21 C22 1.387 . S
C21 C25 1.391 . S
C22 C21 1.387 . S
C22 C23 1.369 . S
C22 H31 0.929 . S
C23 N20 1.346 . S
C23 C22 1.369 . S
C23 H26 0.928 . S
C24 N20 1.345 . S
C24 C25 1.371 . S
C24 H27 0.931 . S
C25 C21 1.391 . S
C25 C24 1.371 . S
C25 H32 0.930 . S
H26 C23 0.928 . S
H27 C24 0.931 . S
H28 C4 0.930 . S
H29 C1 0.930 . S
H30 C10 0.930 . S
H31 C22 0.929 . S
H32 C25 0.930 . S
C33 C34 1.351 . S
C33 N36 1.368 . S
C33 H38 0.931 . S
C34 C33 1.351 . S
C34 N35 1.373 1_455 S
C34 H62 0.930 . S
N35 C34 1.373 1_655 S
N35 C37 1.340 1_655 S
N36 C33 1.368 . S
N36 C37 1.321 . S
N36 Co39 2.135 . S
C37 N35 1.340 1_455 S
C37 N36 1.321 . S
C37 H61 0.930 . S
H38 C33 0.931 . S
Co39 N36 2.135 . S
Co39 N42 2.121 . S
Co39 O47 2.055 . S
Co39 O50 2.039 . S
Co39 N53 2.140 . S
C40 O41 1.227 . S
C40 O50 1.265 . S
O41 C40 1.227 . S
N42 Co39 2.121 . S
N42 C44 1.375 . S
N42 C45 1.313 . S
C43 C44 1.338 . S
C43 N46 1.377 . S
C43 H63 0.930 . S
C44 N42 1.375 . S
C44 C43 1.338 . S
C44 H48 0.931 . S
C45 N42 1.313 . S
C45 N46 1.344 . S
C45 H49 0.930 . S
N46 C43 1.377 . S
N46 C45 1.344 . S
O47 Co39 2.055 . S
O47 C51 1.253 . S
H48 C44 0.931 . S
H49 C45 0.930 . S
O50 Co39 2.039 . S
O50 C40 1.265 . S
C51 O47 1.253 . S
C51 O52 1.227 . S
O52 C51 1.227 . S
N53 Co39 2.140 . S
N53 C56 1.346 . S
N53 C57 1.345 . S
C54 C55 1.387 . S
C54 C58 1.391 . S
C55 C54 1.387 . S
C55 C56 1.369 . S
C55 H64 0.929 . S
C56 N53 1.346 . S
C56 C55 1.369 . S
C56 H59 0.928 . S
C57 N53 1.345 . S
C57 C58 1.371 . S
C57 H60 0.931 . S
C58 C54 1.391 . S
C58 C57 1.371 . S
C58 H65 0.930 . S
H59 C56 0.928 . S
H60 C57 0.931 . S
H61 C37 0.930 . S
H62 C34 0.930 . S
H63 C43 0.930 . S
H64 C55 0.929 . S
H65 C58 0.930 . S
C66 C67 1.351 . S
C66 N69 1.368 . S
C66 H71 0.931 . S
C67 C66 1.351 . S
C67 N68 1.373 1_545 S
C67 H95 0.930 . S
N68 C67 1.373 1_565 S
N68 C70 1.340 1_565 S
N69 C66 1.368 . S
N69 C70 1.321 . S
N69 Co72 2.135 . S
C70 N68 1.340 1_545 S
C70 N69 1.321 . S
C70 H94 0.930 . S
H71 C66 0.931 . S
Co72 N69 2.135 . S
Co72 N75 2.121 . S
Co72 O80 2.055 . S
Co72 O83 2.039 . S
Co72 N86 2.140 . S
C73 O74 1.227 . S
C73 O83 1.265 . S
O74 C73 1.227 . S
N75 Co72 2.121 . S
N75 C77 1.375 . S
N75 C78 1.313 . S
C76 C77 1.338 . S
C76 N79 1.377 . S
C76 H96 0.930 . S
C77 N75 1.375 . S
C77 C76 1.338 . S
C77 H81 0.931 . S
C78 N75 1.313 . S
C78 N79 1.344 . S
C78 H82 0.930 . S
N79 C76 1.377 . S
N79 C78 1.344 . S
O80 Co72 2.055 . S
O80 C84 1.253 . S
H81 C77 0.931 . S
H82 C78 0.930 . S
O83 Co72 2.039 . S
O83 C73 1.265 . S
C84 O80 1.253 . S
C84 O85 1.227 . S
O85 C84 1.227 . S
N86 Co72 2.140 . S
N86 C89 1.346 . S
N86 C90 1.345 . S
C87 C88 1.387 . S
C87 C91 1.391 . S
C88 C87 1.387 . S
C88 C89 1.369 . S
C88 H97 0.929 . S
C89 N86 1.346 . S
C89 C88 1.369 . S
C89 H92 0.928 . S
C90 N86 1.345 . S
C90 C91 1.371 . S
C90 H93 0.931 . S
C91 C87 1.391 . S
C91 C90 1.371 . S
C91 H98 0.930 . S
H92 C89 0.928 . S
H93 C90 0.931 . S
H94 C70 0.930 . S
H95 C67 0.930 . S
H96 C76 0.930 . S
H97 C88 0.929 . S
H98 C91 0.930 . S
C99 C100 1.351 . S
C99 N102 1.368 . S
C99 H104 0.931 . S
C100 C99 1.351 . S
C100 N101 1.373 . S
C100 H128 0.930 . S
N101 C100 1.373 . S
N101 C103 1.340 . S
N102 C99 1.368 . S
N102 C103 1.321 . S
N102 Co105 2.135 . S
C103 N101 1.340 . S
C103 N102 1.321 . S
C103 H127 0.930 . S
H104 C99 0.931 . S
Co105 N102 2.135 . S
Co105 N108 2.121 . S
Co105 O113 2.055 . S
Co105 O116 2.039 . S
Co105 N119 2.140 . S
C106 O107 1.227 . S
C106 O116 1.265 . S
O107 C106 1.227 . S
N108 Co105 2.121 . S
N108 C110 1.375 . S
N108 C111 1.313 . S
C109 C110 1.338 . S
C109 N112 1.377 . S
C109 H129 0.930 . S
C110 N108 1.375 . S
C110 C109 1.338 . S
C110 H114 0.931 . S
C111 N108 1.313 . S
C111 N112 1.344 . S
C111 H115 0.930 . S
N112 C109 1.377 . S
N112 C111 1.344 . S
O113 Co105 2.055 . S
O113 C117 1.253 . S
H114 C110 0.931 . S
H115 C111 0.930 . S
O116 Co105 2.039 . S
O116 C106 1.265 . S
C117 O113 1.253 . S
C117 O118 1.227 . S
O118 C117 1.227 . S
N119 Co105 2.140 . S
N119 C122 1.346 . S
N119 C123 1.345 . S
C120 C121 1.387 . S
C120 C124 1.391 . S
C121 C120 1.387 . S
C121 C122 1.369 . S
C121 H130 0.929 . S
C122 N119 1.346 . S
C122 C121 1.369 . S
C122 H125 0.928 . S
C123 N119 1.345 . S
C123 C124 1.371 . S
C123 H126 0.931 . S
C124 C120 1.391 . S
C124 C123 1.371 . S
C124 H131 0.930 . S
H125 C122 0.928 . S
H126 C123 0.931 . S
H127 C103 0.930 . S
H128 C100 0.930 . S
H129 C109 0.930 . S
H130 C121 0.929 . S
H131 C124 0.930 . S
C132 C133 1.351 . S
C132 N135 1.368 . S
C132 H137 0.931 . S
C133 C132 1.351 . S
C133 N134 1.373 1_655 S
C133 H161 0.930 . S
N134 C133 1.373 1_455 S
N134 C136 1.340 1_455 S
N135 C132 1.368 . S
N135 C136 1.321 . S
N135 Co138 2.135 . S
C136 N134 1.340 1_655 S
C136 N135 1.321 . S
C136 H160 0.930 . S
H137 C132 0.931 . S
Co138 N135 2.135 . S
Co138 N141 2.121 . S
Co138 O146 2.055 . S
Co138 O149 2.039 . S
Co138 N152 2.140 . S
C139 O140 1.227 . S
C139 O149 1.265 . S
O140 C139 1.227 . S
N141 Co138 2.121 . S
N141 C143 1.375 . S
N141 C144 1.313 . S
C142 C143 1.338 . S
C142 N145 1.377 . S
C142 H162 0.930 . S
C143 N141 1.375 . S
C143 C142 1.338 . S
C143 H147 0.931 . S
C144 N141 1.313 . S
C144 N145 1.344 . S
C144 H148 0.930 . S
N145 C142 1.377 . S
N145 C144 1.344 . S
O146 Co138 2.055 . S
O146 C150 1.253 . S
H147 C143 0.931 . S
H148 C144 0.930 . S
O149 Co138 2.039 . S
O149 C139 1.265 . S
C150 O146 1.253 . S
C150 O151 1.227 . S
O151 C150 1.227 . S
N152 Co138 2.140 . S
N152 C155 1.346 . S
N152 C156 1.345 . S
C153 C154 1.387 . S
C153 C157 1.391 . S
C154 C153 1.387 . S
C154 C155 1.369 . S
C154 H163 0.929 . S
C155 N152 1.346 . S
C155 C154 1.369 . S
C155 H158 0.928 . S
C156 N152 1.345 . S
C156 C157 1.371 . S
C156 H159 0.931 . S
C157 C153 1.391 . S
C157 C156 1.371 . S
C157 H164 0.930 . S
H158 C155 0.928 . S
H159 C156 0.931 . S
H160 C136 0.930 . S
H161 C133 0.930 . S
H162 C142 0.930 . S
H163 C154 0.929 . S
H164 C157 0.930 . S
C165 C166 1.351 . S
C165 N168 1.368 . S
C165 H170 0.931 . S
C166 C165 1.351 . S
C166 N167 1.373 1_565 S
C166 H194 0.930 . S
N167 C166 1.373 1_545 S
N167 C169 1.340 1_545 S
N168 C165 1.368 . S
N168 C169 1.321 . S
N168 Co171 2.135 . S
C169 N167 1.340 1_565 S
C169 N168 1.321 . S
C169 H193 0.930 . S
H170 C165 0.931 . S
Co171 N168 2.135 . S
Co171 N174 2.121 . S
Co171 O179 2.055 . S
Co171 O182 2.039 . S
Co171 N185 2.140 . S
C172 O173 1.227 . S
C172 O182 1.265 . S
O173 C172 1.227 . S
N174 Co171 2.121 . S
N174 C176 1.375 . S
N174 C177 1.313 . S
C175 C176 1.338 . S
C175 N178 1.377 . S
C175 H195 0.930 . S
C176 N174 1.375 . S
C176 C175 1.338 . S
C176 H180 0.931 . S
C177 N174 1.313 . S
C177 N178 1.344 . S
C177 H181 0.930 . S
N178 C175 1.377 . S
N178 C177 1.344 . S
O179 Co171 2.055 . S
O179 C183 1.253 . S
H180 C176 0.931 . S
H181 C177 0.930 . S
O182 Co171 2.039 . S
O182 C172 1.265 . S
C183 O179 1.253 . S
C183 O184 1.227 . S
O184 C183 1.227 . S
N185 Co171 2.140 . S
N185 C188 1.346 . S
N185 C189 1.345 . S
C186 C187 1.387 . S
C186 C190 1.391 . S
C187 C186 1.387 . S
C187 C188 1.369 . S
C187 H196 0.929 . S
C188 N185 1.346 . S
C188 C187 1.369 . S
C188 H191 0.928 . S
C189 N185 1.345 . S
C189 C190 1.371 . S
C189 H192 0.931 . S
C190 C186 1.391 . S
C190 C189 1.371 . S
C190 H197 0.930 . S
H191 C188 0.928 . S
H192 C189 0.931 . S
H193 C169 0.930 . S
H194 C166 0.930 . S
H195 C175 0.930 . S
H196 C187 0.929 . S
H197 C190 0.930 . S
C198 C199 1.351 . S
C198 N201 1.368 . S
C198 H203 0.931 . S
C199 C198 1.351 . S
C199 N200 1.373 . S
C199 H227 0.930 . S
N200 C199 1.373 . S
N200 C202 1.340 . S
N201 C198 1.368 . S
N201 C202 1.321 . S
N201 Co204 2.135 . S
C202 N200 1.340 . S
C202 N201 1.321 . S
C202 H226 0.930 . S
H203 C198 0.931 . S
Co204 N201 2.135 . S
Co204 N207 2.121 . S
Co204 O212 2.055 . S
Co204 O215 2.039 . S
Co204 N218 2.140 . S
C205 O206 1.227 . S
C205 O215 1.265 . S
O206 C205 1.227 . S
N207 Co204 2.121 . S
N207 C209 1.375 . S
N207 C210 1.313 . S
C208 C209 1.338 . S
C208 N211 1.377 . S
C208 H228 0.930 . S
C209 N207 1.375 . S
C209 C208 1.338 . S
C209 H213 0.931 . S
C210 N207 1.313 . S
C210 N211 1.344 . S
C210 H214 0.930 . S
N211 C208 1.377 . S
N211 C210 1.344 . S
O212 Co204 2.055 . S
O212 C216 1.253 . S
H213 C209 0.931 . S
H214 C210 0.930 . S
O215 Co204 2.039 . S
O215 C205 1.265 . S
C216 O212 1.253 . S
C216 O217 1.227 . S
O217 C216 1.227 . S
N218 Co204 2.140 . S
N218 C221 1.346 . S
N218 C222 1.345 . S
C219 C220 1.387 . S
C219 C223 1.391 . S
C220 C219 1.387 . S
C220 C221 1.369 . S
C220 H229 0.929 . S
C221 N218 1.346 . S
C221 C220 1.369 . S
C221 H224 0.928 . S
C222 N218 1.345 . S
C222 C223 1.371 . S
C222 H225 0.931 . S
C223 C219 1.391 . S
C223 C222 1.371 . S
C223 H230 0.930 . S
H224 C221 0.928 . S
H225 C222 0.931 . S
H226 C202 0.930 . S
H227 C199 0.930 . S
H228 C208 0.930 . S
H229 C220 0.929 . S
H230 C223 0.930 . S
C231 C232 1.351 . S
C231 N234 1.368 . S
C231 H236 0.931 . S
C232 C231 1.351 . S
C232 N233 1.373 1_455 S
C232 H260 0.930 . S
N233 C232 1.373 1_655 S
N233 C235 1.340 1_655 S
N234 C231 1.368 . S
N234 C235 1.321 . S
N234 Co237 2.135 . S
C235 N233 1.340 1_455 S
C235 N234 1.321 . S
C235 H259 0.930 . S
H236 C231 0.931 . S
Co237 N234 2.135 . S
Co237 N240 2.121 . S
Co237 O245 2.055 . S
Co237 O248 2.039 . S
Co237 N251 2.140 . S
C238 O239 1.227 . S
C238 O248 1.265 . S
O239 C238 1.227 . S
N240 Co237 2.121 . S
N240 C242 1.375 . S
N240 C243 1.313 . S
C241 C242 1.338 . S
C241 N244 1.377 . S
C241 H261 0.930 . S
C242 N240 1.375 . S
C242 C241 1.338 . S
C242 H246 0.931 . S
C243 N240 1.313 . S
C243 N244 1.344 . S
C243 H247 0.930 . S
N244 C241 1.377 . S
N244 C243 1.344 . S
O245 Co237 2.055 . S
O245 C249 1.253 . S
H246 C242 0.931 . S
H247 C243 0.930 . S
O248 Co237 2.039 . S
O248 C238 1.265 . S
C249 O245 1.253 . S
C249 O250 1.227 . S
O250 C249 1.227 . S
N251 Co237 2.140 . S
N251 C254 1.346 . S
N251 C255 1.345 . S
C252 C253 1.387 . S
C252 C256 1.391 . S
C253 C252 1.387 . S
C253 C254 1.369 . S
C253 H262 0.929 . S
C254 N251 1.346 . S
C254 C253 1.369 . S
C254 H257 0.928 . S
C255 N251 1.345 . S
C255 C256 1.371 . S
C255 H258 0.931 . S
C256 C252 1.391 . S
C256 C255 1.371 . S
C256 H263 0.930 . S
H257 C254 0.928 . S
H258 C255 0.931 . S
H259 C235 0.930 . S
H260 C232 0.930 . S
H261 C241 0.930 . S
H262 C253 0.929 . S
H263 C256 0.930 . S
C264 C265 1.351 . S
C264 N267 1.368 . S
C264 H269 0.931 . S
C265 C264 1.351 . S
C265 N266 1.373 1_545 S
C265 H293 0.930 . S
N266 C265 1.373 1_565 S
N266 C268 1.340 1_565 S
N267 C264 1.368 . S
N267 C268 1.321 . S
N267 Co270 2.135 . S
C268 N266 1.340 1_545 S
C268 N267 1.321 . S
C268 H292 0.930 . S
H269 C264 0.931 . S
Co270 N267 2.135 . S
Co270 N273 2.121 . S
Co270 O278 2.055 . S
Co270 O281 2.039 . S
Co270 N284 2.140 . S
C271 O272 1.227 . S
C271 O281 1.265 . S
O272 C271 1.227 . S
N273 Co270 2.121 . S
N273 C275 1.375 . S
N273 C276 1.313 . S
C274 C275 1.338 . S
C274 N277 1.377 . S
C274 H294 0.930 . S
C275 N273 1.375 . S
C275 C274 1.338 . S
C275 H279 0.931 . S
C276 N273 1.313 . S
C276 N277 1.344 . S
C276 H280 0.930 . S
N277 C274 1.377 . S
N277 C276 1.344 . S
O278 Co270 2.055 . S
O278 C282 1.253 . S
H279 C275 0.931 . S
H280 C276 0.930 . S
O281 Co270 2.039 . S
O281 C271 1.265 . S
C282 O278 1.253 . S
C282 O283 1.227 . S
O283 C282 1.227 . S
N284 Co270 2.140 . S
N284 C287 1.346 . S
N284 C288 1.345 . S
C285 C286 1.387 . S
C285 C289 1.391 . S
C286 C285 1.387 . S
C286 C287 1.369 . S
C286 H295 0.929 . S
C287 N284 1.346 . S
C287 C286 1.369 . S
C287 H290 0.928 . S
C288 N284 1.345 . S
C288 C289 1.371 . S
C288 H291 0.931 . S
C289 C285 1.391 . S
C289 C288 1.371 . S
C289 H296 0.930 . S
H290 C287 0.928 . S
H291 C288 0.931 . S
H292 C268 0.930 . S
H293 C265 0.930 . S
H294 C274 0.930 . S
H295 C286 0.929 . S
H296 C289 0.930 . S
C297 C298 1.351 . S
C297 N300 1.368 . S
C297 H302 0.931 . S
C298 C297 1.351 . S
C298 N299 1.373 . S
C298 H326 0.930 . S
N299 C298 1.373 . S
N299 C301 1.340 . S
N300 C297 1.368 . S
N300 C301 1.321 . S
N300 Co303 2.135 . S
C301 N299 1.340 . S
C301 N300 1.321 . S
C301 H325 0.930 . S
H302 C297 0.931 . S
Co303 N300 2.135 . S
Co303 N306 2.121 . S
Co303 O311 2.055 . S
Co303 O314 2.039 . S
Co303 N317 2.140 . S
C304 O305 1.227 . S
C304 O314 1.265 . S
O305 C304 1.227 . S
N306 Co303 2.121 . S
N306 C308 1.375 . S
N306 C309 1.313 . S
C307 C308 1.338 . S
C307 N310 1.377 . S
C307 H327 0.930 . S
C308 N306 1.375 . S
C308 C307 1.338 . S
C308 H312 0.931 . S
C309 N306 1.313 . S
C309 N310 1.344 . S
C309 H313 0.930 . S
N310 C307 1.377 . S
N310 C309 1.344 . S
O311 Co303 2.055 . S
O311 C315 1.253 . S
H312 C308 0.931 . S
H313 C309 0.930 . S
O314 Co303 2.039 . S
O314 C304 1.265 . S
C315 O311 1.253 . S
C315 O316 1.227 . S
O316 C315 1.227 . S
N317 Co303 2.140 . S
N317 C320 1.346 . S
N317 C321 1.345 . S
C318 C319 1.387 . S
C318 C322 1.391 . S
C319 C318 1.387 . S
C319 C320 1.369 . S
C319 H328 0.929 . S
C320 N317 1.346 . S
C320 C319 1.369 . S
C320 H323 0.928 . S
C321 N317 1.345 . S
C321 C322 1.371 . S
C321 H324 0.931 . S
C322 C318 1.391 . S
C322 C321 1.371 . S
C322 H329 0.930 . S
H323 C320 0.928 . S
H324 C321 0.931 . S
H325 C301 0.930 . S
H326 C298 0.930 . S
H327 C307 0.930 . S
H328 C319 0.929 . S
H329 C322 0.930 . S
C330 C331 1.351 . S
C330 N333 1.368 . S
C330 H335 0.931 . S
C331 C330 1.351 . S
C331 N332 1.373 1_655 S
C331 H359 0.930 . S
N332 C331 1.373 1_455 S
N332 C334 1.340 1_455 S
N333 C330 1.368 . S
N333 C334 1.321 . S
N333 Co336 2.135 . S
C334 N332 1.340 1_655 S
C334 N333 1.321 . S
C334 H358 0.930 . S
H335 C330 0.931 . S
Co336 N333 2.135 . S
Co336 N339 2.121 . S
Co336 O344 2.055 . S
Co336 O347 2.039 . S
Co336 N350 2.140 . S
C337 O338 1.227 . S
C337 O347 1.265 . S
O338 C337 1.227 . S
N339 Co336 2.121 . S
N339 C341 1.375 . S
N339 C342 1.313 . S
C340 C341 1.338 . S
C340 N343 1.377 . S
C340 H360 0.930 . S
C341 N339 1.375 . S
C341 C340 1.338 . S
C341 H345 0.931 . S
C342 N339 1.313 . S
C342 N343 1.344 . S
C342 H346 0.930 . S
N343 C340 1.377 . S
N343 C342 1.344 . S
O344 Co336 2.055 . S
O344 C348 1.253 . S
H345 C341 0.931 . S
H346 C342 0.930 . S
O347 Co336 2.039 . S
O347 C337 1.265 . S
C348 O344 1.253 . S
C348 O349 1.227 . S
O349 C348 1.227 . S
N350 Co336 2.140 . S
N350 C353 1.346 . S
N350 C354 1.345 . S
C351 C352 1.387 . S
C351 C355 1.391 . S
C352 C351 1.387 . S
C352 C353 1.369 . S
C352 H361 0.929 . S
C353 N350 1.346 . S
C353 C352 1.369 . S
C353 H356 0.928 . S
C354 N350 1.345 . S
C354 C355 1.371 . S
C354 H357 0.931 . S
C355 C351 1.391 . S
C355 C354 1.371 . S
C355 H362 0.930 . S
H356 C353 0.928 . S
H357 C354 0.931 . S
H358 C334 0.930 . S
H359 C331 0.930 . S
H360 C340 0.930 . S
H361 C352 0.929 . S
H362 C355 0.930 . S
C363 C364 1.351 . S
C363 N366 1.368 . S
C363 H368 0.931 . S
C364 C363 1.351 . S
C364 N365 1.373 1_565 S
C364 H392 0.930 . S
N365 C364 1.373 1_545 S
N365 C367 1.340 1_545 S
N366 C363 1.368 . S
N366 C367 1.321 . S
N366 Co369 2.135 . S
C367 N365 1.340 1_565 S
C367 N366 1.321 . S
C367 H391 0.930 . S
H368 C363 0.931 . S
Co369 N366 2.135 . S
Co369 N372 2.121 . S
Co369 O377 2.055 . S
Co369 O380 2.039 . S
Co369 N383 2.140 . S
C370 O371 1.227 . S
C370 O380 1.265 . S
O371 C370 1.227 . S
N372 Co369 2.121 . S
N372 C374 1.375 . S
N372 C375 1.313 . S
C373 C374 1.338 . S
C373 N376 1.377 . S
C373 H393 0.930 . S
C374 N372 1.375 . S
C374 C373 1.338 . S
C374 H378 0.931 . S
C375 N372 1.313 . S
C375 N376 1.344 . S
C375 H379 0.930 . S
N376 C373 1.377 . S
N376 C375 1.344 . S
O377 Co369 2.055 . S
O377 C381 1.253 . S
H378 C374 0.931 . S
H379 C375 0.930 . S
O380 Co369 2.039 . S
O380 C370 1.265 . S
C381 O377 1.253 . S
C381 O382 1.227 . S
O382 C381 1.227 . S
N383 Co369 2.140 . S
N383 C386 1.346 . S
N383 C387 1.345 . S
C384 C385 1.387 . S
C384 C388 1.391 . S
C385 C384 1.387 . S
C385 C386 1.369 . S
C385 H394 0.929 . S
C386 N383 1.346 . S
C386 C385 1.369 . S
C386 H389 0.928 . S
C387 N383 1.345 . S
C387 C388 1.371 . S
C387 H390 0.931 . S
C388 C384 1.391 . S
C388 C387 1.371 . S
C388 H395 0.930 . S
H389 C386 0.928 . S
H390 C387 0.931 . S
H391 C367 0.930 . S
H392 C364 0.930 . S
H393 C373 0.930 . S
H394 C385 0.929 . S
H395 C388 0.930 . S
H396 C402 0.930 . S
H397 C405 0.930 . S
H398 C406 0.930 . S
H399 C407 0.930 . S
H400 C410 0.930 . S
H401 C411 0.930 . S
C402 H396 0.930 . S
C402 C403 1.355 . S
C402 C404 1.415 . S
C403 C402 1.355 . S
C403 C405 1.419 . S
C404 C402 1.415 . S
C404 C409 1.425 . S
C404 C411 1.409 . S
C405 H397 0.930 . S
C405 C403 1.419 . S
C405 C406 1.362 . S
C406 H398 0.930 . S
C406 C405 1.362 . S
C406 C409 1.409 . S
C407 H399 0.930 . S
C407 C408 1.355 . S
C407 C409 1.415 . S
C408 C407 1.355 . S
C408 C410 1.419 . S
C409 C404 1.425 . S
C409 C406 1.409 . S
C409 C407 1.415 . S
C410 H400 0.930 . S
C410 C408 1.419 . S
C410 C411 1.362 . S
C411 H401 0.930 . S
C411 C404 1.409 . S
C411 C410 1.362 . S
H412 C418 0.930 . S
H413 C421 0.930 . S
H414 C422 0.930 . S
H415 C423 0.930 . S
H416 C426 0.930 . S
H417 C427 0.930 . S
C418 H412 0.930 . S
C418 C419 1.355 1_655 S
C418 C420 1.415 . S
C419 C418 1.355 1_455 S
C419 C421 1.419 . S
C420 C418 1.415 . S
C420 C425 1.425 1_655 S
C420 C427 1.409 . S
C421 H413 0.930 . S
C421 C419 1.419 . S
C421 C422 1.362 . S
C422 H414 0.930 . S
C422 C421 1.362 . S
C422 C425 1.409 . S
C423 H415 0.930 . S
C423 C424 1.355 1_455 S
C423 C425 1.415 . S
C424 C423 1.355 1_655 S
C424 C426 1.419 . S
C425 C420 1.425 1_455 S
C425 C422 1.409 . S
C425 C423 1.415 . S
C426 H416 0.930 . S
C426 C424 1.419 . S
C426 C427 1.362 . S
C427 H417 0.930 . S
C427 C420 1.409 . S
C427 C426 1.362 . S
H428 C434 0.930 . S
H429 C437 0.930 . S
H430 C438 0.930 . S
H431 C439 0.930 . S
H432 C442 0.930 . S
H433 C443 0.930 . S
C434 H428 0.930 . S
C434 C435 1.355 . S
C434 C436 1.415 1_545 S
C435 C434 1.355 . S
C435 C437 1.419 . S
C436 C434 1.415 1_565 S
C436 C441 1.425 1_565 S
C436 C443 1.409 . S
C437 H429 0.930 . S
C437 C435 1.419 . S
C437 C438 1.362 . S
C438 H430 0.930 . S
C438 C437 1.362 . S
C438 C441 1.409 . S
C439 H431 0.930 . S
C439 C440 1.355 . S
C439 C441 1.415 1_565 S
C440 C439 1.355 . S
C440 C442 1.419 . S
C441 C436 1.425 1_545 S
C441 C438 1.409 . S
C441 C439 1.415 1_545 S
C442 H432 0.930 . S
C442 C440 1.419 . S
C442 C443 1.362 . S
C443 H433 0.930 . S
C443 C436 1.409 . S
C443 C442 1.362 . S
H444 C450 0.930 . S
H445 C453 0.930 . S
H446 C454 0.930 . S
H447 C455 0.930 . S
H448 C458 0.930 . S
H449 C459 0.930 . S
C450 H444 0.930 . S
C450 C451 1.355 . S
C450 C452 1.415 . S
C451 C450 1.355 . S
C451 C453 1.419 . S
C452 C450 1.415 . S
C452 C457 1.425 . S
C452 C459 1.409 . S
C453 H445 0.930 . S
C453 C451 1.419 . S
C453 C454 1.362 . S
C454 H446 0.930 . S
C454 C453 1.362 . S
C454 C457 1.409 . S
C455 H447 0.930 . S
C455 C456 1.355 . S
C455 C457 1.415 . S
C456 C455 1.355 . S
C456 C458 1.419 . S
C457 C452 1.425 . S
C457 C454 1.409 . S
C457 C455 1.415 . S
C458 H448 0.930 . S
C458 C456 1.419 . S
C458 C459 1.362 . S
C459 H449 0.930 . S
C459 C452 1.409 . S
C459 C458 1.362 . S
H460 C466 0.930 . S
H461 C469 0.930 . S
H462 C470 0.930 . S
H463 C471 0.930 . S
H464 C474 0.930 . S
H465 C475 0.930 . S
C466 H460 0.930 . S
C466 C467 1.355 . S
C466 C468 1.415 . S
C467 C466 1.355 . S
C467 C469 1.419 1_655 S
C468 C466 1.415 . S
C468 C473 1.425 1_655 S
C468 C475 1.409 . S
C469 H461 0.930 . S
C469 C467 1.419 1_455 S
C469 C470 1.362 . S
C470 H462 0.930 . S
C470 C469 1.362 . S
C470 C473 1.409 . S
C471 H463 0.930 . S
C471 C472 1.355 . S
C471 C473 1.415 . S
C472 C471 1.355 . S
C472 C474 1.419 1_455 S
C473 C468 1.425 1_455 S
C473 C470 1.409 . S
C473 C471 1.415 . S
C474 H464 0.930 . S
C474 C472 1.419 1_655 S
C474 C475 1.362 . S
C475 H465 0.930 . S
C475 C468 1.409 . S
C475 C474 1.362 . S
H476 C482 0.930 . S
H477 C485 0.930 . S
H478 C486 0.930 . S
H479 C487 0.930 . S
H480 C490 0.930 . S
H481 C491 0.930 . S
C482 H476 0.930 . S
C482 C483 1.355 . S
C482 C484 1.415 . S
C483 C482 1.355 . S
C483 C485 1.419 1_565 S
C484 C482 1.415 . S
C484 C489 1.425 1_565 S
C484 C491 1.409 . S
C485 H477 0.930 . S
C485 C483 1.419 1_545 S
C485 C486 1.362 . S
C486 H478 0.930 . S
C486 C485 1.362 . S
C486 C489 1.409 . S
C487 H479 0.930 . S
C487 C488 1.355 . S
C487 C489 1.415 . S
C488 C487 1.355 . S
C488 C490 1.419 1_545 S
C489 C484 1.425 1_545 S
C489 C486 1.409 . S
C489 C487 1.415 . S
C490 H480 0.930 . S
C490 C488 1.419 1_565 S
C490 C491 1.362 . S
C491 H481 0.930 . S
C491 C484 1.409 . S
C491 C490 1.362 . S
H492 C498 0.930 . S
H493 C501 0.930 . S
H494 C502 0.928 1_554 S
H495 C503 0.930 . S
H496 C506 0.930 . S
H497 C507 0.928 1_556 S
C498 H492 0.930 . S
C498 C499 1.355 1_545 S
C498 C500 1.415 . S
C499 C498 1.355 1_565 S
C499 C501 1.419 . S
C500 C498 1.415 . S
C500 C505 1.425 1_546 S
C500 C507 1.408 1_556 S
C501 H493 0.930 . S
C501 C499 1.419 . S
C501 C502 1.366 . S
C502 H494 0.928 1_556 S
C502 C501 1.366 . S
C502 C505 1.408 1_556 S
C503 H495 0.930 . S
C503 C504 1.355 1_565 S
C503 C505 1.415 . S
C504 C503 1.355 1_545 S
C504 C506 1.419 . S
C505 C500 1.425 1_564 S
C505 C502 1.408 1_554 S
C505 C503 1.415 . S
C506 H496 0.930 . S
C506 C504 1.419 . S
C506 C507 1.366 . S
C507 H497 0.928 1_554 S
C507 C500 1.408 1_554 S
C507 C506 1.366 . S
H508 C514 0.930 . S
H509 C517 0.930 . S
H510 C518 0.930 . S
H511 C519 0.930 . S
H512 C522 0.930 . S
H513 C523 0.930 . S
C514 H508 0.930 . S
C514 C515 1.355 . S
C514 C516 1.415 . S
C515 C514 1.355 . S
C515 C517 1.419 . S
C516 C514 1.415 . S
C516 C521 1.425 . S
C516 C523 1.409 . S
C517 H509 0.930 . S
C517 C515 1.419 . S
C517 C518 1.362 . S
C518 H510 0.930 . S
C518 C517 1.362 . S
C518 C521 1.409 . S
C519 H511 0.930 . S
C519 C520 1.355 . S
C519 C521 1.415 . S
C520 C519 1.355 . S
C520 C522 1.419 . S
C521 C516 1.425 . S
C521 C518 1.409 . S
C521 C519 1.415 . S
C522 H512 0.930 . S
C522 C520 1.419 . S
C522 C523 1.362 . S
C523 H513 0.930 . S
C523 C516 1.409 . S
C523 C522 1.362 . S
H524 C530 0.930 . S
H525 C533 0.930 . S
H526 C534 0.930 . S
H527 C535 0.930 . S
H528 C538 0.930 . S
H529 C539 0.930 . S
C530 H524 0.930 . S
C530 C531 1.355 1_655 S
C530 C532 1.415 . S
C531 C530 1.355 1_455 S
C531 C533 1.419 . S
C532 C530 1.415 . S
C532 C537 1.425 1_655 S
C532 C539 1.409 . S
C533 H525 0.930 . S
C533 C531 1.419 . S
C533 C534 1.362 . S
C534 H526 0.930 . S
C534 C533 1.362 . S
C534 C537 1.409 . S
C535 H527 0.930 . S
C535 C536 1.355 1_455 S
C535 C537 1.415 . S
C536 C535 1.355 1_655 S
C536 C538 1.419 . S
C537 C532 1.425 1_455 S
C537 C534 1.409 . S
C537 C535 1.415 . S
C538 H528 0.930 . S
C538 C536 1.419 . S
C538 C539 1.362 . S
C539 H529 0.930 . S
C539 C532 1.409 . S
C539 C538 1.362 . S
H540 C546 0.930 . S
H541 C549 0.930 . S
H542 C550 0.930 . S
H543 C551 0.930 . S
H544 C554 0.930 . S
H545 C555 0.930 . S
C546 H540 0.930 . S
C546 C547 1.355 . S
C546 C548 1.453 . S
C547 C546 1.355 . S
C547 C549 1.419 1_565 S
C548 C546 1.453 . S
C548 C553 1.422 1_564 S
C548 C555 1.374 1_554 S
C549 H541 0.930 . S
C549 C547 1.419 1_545 S
C549 C550 1.362 . S
C550 H542 0.930 . S
C550 C549 1.362 . S
C550 C553 1.374 1_554 S
C551 H543 0.930 . S
C551 C552 1.355 . S
C551 C553 1.453 . S
C552 C551 1.355 . S
C552 C554 1.419 1_545 S
C553 C548 1.422 1_546 S
C553 C550 1.374 1_556 S
C553 C551 1.453 . S
C554 H544 0.930 . S
C554 C552 1.419 1_565 S
C554 C555 1.362 . S
C555 H545 0.930 . S
C555 C548 1.374 1_556 S
C555 C554 1.362 . S
H556 C562 0.930 . S
H557 C565 0.930 . S
H558 C566 0.930 . S
H559 C567 0.930 . S
H560 C570 0.930 . S
H561 C571 0.930 . S
C562 H556 0.930 . S
C562 C563 1.355 . S
C562 C564 1.415 . S
C563 C562 1.355 . S
C563 C565 1.419 . S
C564 C562 1.415 . S
C564 C569 1.425 . S
C564 C571 1.409 . S
C565 H557 0.930 . S
C565 C563 1.419 . S
C565 C566 1.362 . S
C566 H558 0.930 . S
C566 C565 1.362 . S
C566 C569 1.409 . S
C567 H559 0.930 . S
C567 C568 1.355 . S
C567 C569 1.415 . S
C568 C567 1.355 . S
C568 C570 1.419 . S
C569 C564 1.425 . S
C569 C566 1.409 . S
C569 C567 1.415 . S
C570 H560 0.930 . S
C570 C568 1.419 . S
C570 C571 1.362 . S
C571 H561 0.930 . S
C571 C564 1.409 . S
C571 C570 1.362 . S
H572 C578 0.930 . S
H573 C581 0.930 . S
H574 C582 0.930 . S
H575 C583 0.930 . S
H576 C586 0.930 . S
H577 C587 0.930 . S
C578 H572 0.930 . S
C578 C579 1.355 . S
C578 C580 1.415 . S
C579 C578 1.355 . S
C579 C581 1.419 1_455 S
C580 C578 1.415 . S
C580 C585 1.425 1_455 S
C580 C587 1.409 . S
C581 H573 0.930 . S
C581 C579 1.419 1_655 S
C581 C582 1.362 . S
C582 H574 0.930 . S
C582 C581 1.362 . S
C582 C585 1.409 . S
C583 H575 0.930 . S
C583 C584 1.355 . S
C583 C585 1.415 . S
C584 C583 1.355 . S
C584 C586 1.419 1_655 S
C585 C580 1.425 1_655 S
C585 C582 1.409 . S
C585 C583 1.415 . S
C586 H576 0.930 . S
C586 C584 1.419 1_455 S
C586 C587 1.362 . S
C587 H577 0.930 . S
C587 C580 1.409 . S
C587 C586 1.362 . S
H588 C594 0.930 . S
H589 C597 0.930 . S
H590 C598 0.930 . S
H591 C599 0.930 . S
H592 C602 0.930 . S
H593 C603 0.930 . S
C594 H588 0.930 . S
C594 C595 1.355 . S
C594 C596 1.415 . S
C595 C594 1.355 . S
C595 C597 1.419 . S
C596 C594 1.415 . S
C596 C601 1.425 1_445 S
C596 C603 1.409 1_455 S
C597 H589 0.930 . S
C597 C595 1.419 . S
C597 C598 1.362 1_545 S
C598 H590 0.930 . S
C598 C597 1.362 1_565 S
C598 C601 1.409 1_455 S
C599 H591 0.930 . S
C599 C600 1.355 . S
C599 C601 1.415 . S
C600 C599 1.355 . S
C600 C602 1.419 . S
C601 C596 1.425 1_665 S
C601 C598 1.409 1_655 S
C601 C599 1.415 . S
C602 H592 0.930 . S
C602 C600 1.419 . S
C602 C603 1.362 1_565 S
C603 H593 0.930 . S
C603 C596 1.409 1_655 S
C603 C602 1.362 1_545 S
H604 C610 0.930 . S
H605 C613 0.930 . S
H606 C614 0.930 1_565 S
H607 C615 0.930 . S
H608 C618 0.930 . S
H609 C619 0.930 1_545 S
C610 H604 0.930 . S
C610 C611 1.355 . S
C610 C612 1.415 . S
C611 C610 1.355 . S
C611 C613 1.419 1_455 S
C612 C610 1.415 . S
C612 C617 1.425 1_445 S
C612 C619 1.409 1_545 S
C613 H605 0.930 . S
C613 C611 1.419 1_655 S
C613 C614 1.362 . S
C614 H606 0.930 1_545 S
C614 C613 1.362 . S
C614 C617 1.409 1_545 S
C615 H607 0.930 . S
C615 C616 1.355 . S
C615 C617 1.415 . S
C616 C615 1.355 . S
C616 C618 1.419 1_655 S
C617 C612 1.425 1_665 S
C617 C614 1.409 1_565 S
C617 C615 1.415 . S
C618 H608 0.930 . S
C618 C616 1.419 1_455 S
C618 C619 1.362 . S
C619 H609 0.930 1_565 S
C619 C612 1.409 1_565 S
C619 C618 1.362 . S
H620 C626 0.930 1_565 S
H621 C629 0.930 . S
H622 C630 0.930 . S
H623 C631 0.930 1_545 S
H624 C634 0.930 . S
H625 C635 0.930 . S
C626 H620 0.930 1_545 S
C626 C627 1.355 . S
C626 C628 1.415 1_545 S
C627 C626 1.355 . S
C627 C629 1.419 . S
C628 C626 1.415 1_565 S
C628 C633 1.425 1_665 S
C628 C635 1.409 . S
C629 H621 0.930 . S
C629 C627 1.419 . S
C629 C630 1.362 1_655 S
C630 H622 0.930 . S
C630 C629 1.362 1_455 S
C630 C633 1.409 . S
C631 H623 0.930 1_565 S
C631 C632 1.355 . S
C631 C633 1.415 1_565 S
C632 C631 1.355 . S
C632 C634 1.419 . S
C633 C628 1.425 1_445 S
C633 C630 1.409 . S
C633 C631 1.415 1_545 S
C634 H624 0.930 . S
C634 C632 1.419 . S
C634 C635 1.362 1_455 S
C635 H625 0.930 . S
C635 C628 1.409 . S
C635 C634 1.362 1_655 S
H636 C642 0.930 . S
H637 C645 0.930 . S
H638 C646 0.930 . S
H639 C647 0.930 . S
H640 C650 0.930 . S
H641 C651 0.930 . S
C642 H636 0.930 . S
C642 C643 1.355 . S
C642 C644 1.415 . S
C643 C642 1.355 . S
C643 C645 1.419 . S
C644 C642 1.415 . S
C644 C649 1.425 1_665 S
C644 C651 1.409 1_565 S
C645 H637 0.930 . S
C645 C643 1.419 . S
C645 C646 1.362 1_655 S
C646 H638 0.930 . S
C646 C645 1.362 1_455 S
C646 C649 1.409 1_565 S
C647 H639 0.930 . S
C647 C648 1.355 . S
C647 C649 1.415 . S
C648 C647 1.355 . S
C648 C650 1.419 . S
C649 C644 1.425 1_445 S
C649 C646 1.409 1_545 S
C649 C647 1.415 . S
C650 H640 0.930 . S
C650 C648 1.419 . S
C650 C651 1.362 1_455 S
C651 H641 0.930 . S
C651 C644 1.409 1_545 S
C651 C650 1.362 1_655 S
H652 C658 0.930 . S
H653 C661 0.930 . S
H654 C662 0.930 . S
H655 C663 0.930 . S
H656 C666 0.930 . S
H657 C667 0.930 . S
C658 H652 0.930 . S
C658 C659 1.355 1_655 S
C658 C660 1.415 . S
C659 C658 1.355 1_455 S
C659 C661 1.419 . S
C660 C658 1.415 . S
C660 C665 1.425 1_665 S
C660 C667 1.409 . S
C661 H653 0.930 . S
C661 C659 1.419 . S
C661 C662 1.362 1_565 S
C662 H654 0.930 . S
C662 C661 1.362 1_545 S
C662 C665 1.409 . S
C663 H655 0.930 . S
C663 C664 1.355 1_455 S
C663 C665 1.415 . S
C664 C663 1.355 1_655 S
C664 C666 1.419 . S
C665 C660 1.425 1_445 S
C665 C662 1.409 . S
C665 C663 1.415 . S
C666 H656 0.930 . S
C666 C664 1.419 . S
C666 C667 1.362 1_545 S
C667 H657 0.930 . S
C667 C660 1.409 . S
C667 C666 1.362 1_565 S
H668 C674 0.930 . S
H669 C677 0.930 . S
H670 C678 0.930 1_655 S
H671 C679 0.930 . S
H672 C682 0.930 . S
H673 C683 0.930 1_455 S
C674 H668 0.930 . S
C674 C675 1.355 . S
C674 C676 1.415 . S
C675 C674 1.355 . S
C675 C677 1.419 1_545 S
C676 C674 1.415 . S
C676 C681 1.425 1_445 S
C676 C683 1.409 1_455 S
C677 H669 0.930 . S
C677 C675 1.419 1_565 S
C677 C678 1.362 . S
C678 H670 0.930 1_455 S
C678 C677 1.362 . S
C678 C681 1.409 1_455 S
C679 H671 0.930 . S
C679 C680 1.355 . S
C679 C681 1.415 . S
C680 C679 1.355 . S
C680 C682 1.419 1_565 S
C681 C676 1.425 1_665 S
C681 C678 1.409 1_655 S
C681 C679 1.415 . S
C682 H672 0.930 . S
C682 C680 1.419 1_545 S
C682 C683 1.362 . S
C683 H673 0.930 1_655 S
C683 C676 1.409 1_655 S
C683 C682 1.362 . S
H684 C690 0.930 . S
H685 C693 0.930 . S
H686 C694 0.930 1_554 S
H687 C695 0.930 . S
H688 C698 0.930 . S
H689 C699 0.930 1_556 S
C690 H684 0.930 . S
C690 C691 1.355 . S
C690 C692 1.415 . S
C691 C690 1.355 . S
C691 C693 1.419 . S
C692 C690 1.415 . S
C692 C697 1.425 1_556 S
C692 C699 1.409 1_556 S
C693 H685 0.930 . S
C693 C691 1.419 . S
C693 C694 1.362 . S
C694 H686 0.930 1_556 S
C694 C693 1.362 . S
C694 C697 1.409 1_556 S
C695 H687 0.930 . S
C695 C696 1.355 . S
C695 C697 1.415 . S
C696 C695 1.355 . S
C696 C698 1.419 . S
C697 C692 1.425 1_554 S
C697 C694 1.409 1_554 S
C697 C695 1.415 . S
C698 H688 0.930 . S
C698 C696 1.419 . S
C698 C699 1.362 . S
C699 H689 0.930 1_554 S
C699 C692 1.409 1_554 S
C699 C698 1.362 . S
H700 C706 0.930 . S
H701 C709 0.930 . S
H702 C710 0.930 . S
H703 C711 0.930 . S
H704 C714 0.930 . S
H705 C715 0.930 . S
C706 H700 0.930 . S
C706 C707 1.355 . S
C706 C708 1.415 . S
C707 C706 1.355 . S
C707 C709 1.419 1_655 S
C708 C706 1.415 . S
C708 C713 1.425 . S
C708 C715 1.409 . S
C709 H701 0.930 . S
C709 C707 1.419 1_455 S
C709 C710 1.362 1_455 S
C710 H702 0.930 . S
C710 C709 1.362 1_655 S
C710 C713 1.409 . S
C711 H703 0.930 . S
C711 C712 1.355 . S
C711 C713 1.415 . S
C712 C711 1.355 . S
C712 C714 1.419 . S
C713 C708 1.425 . S
C713 C710 1.409 . S
C713 C711 1.415 . S
C714 H704 0.930 . S
C714 C712 1.419 . S
C714 C715 1.362 . S
C715 H705 0.930 . S
C715 C708 1.409 . S
C715 C714 1.362 . S
H716 C722 0.930 . S
H717 C725 0.930 . S
H718 C726 0.930 . S
H719 C727 0.930 . S
H720 C730 0.940 . S
H721 C731 0.930 . S
C722 H716 0.930 . S
C722 C723 1.355 . S
C722 C724 1.415 . S
C723 C722 1.355 . S
C723 C725 1.419 . S
C724 C722 1.415 . S
C724 C729 1.425 . S
C724 C731 1.409 . S
C725 H717 0.930 . S
C725 C723 1.419 . S
C725 C726 1.362 . S
C726 H718 0.930 . S
C726 C725 1.362 . S
C726 C729 1.409 . S
C727 H719 0.930 . S
C727 C728 1.355 . S
C727 C729 1.415 . S
C728 C727 1.355 . S
C728 C730 1.417 1_565 S
C729 C724 1.425 . S
C729 C726 1.409 . S
C729 C727 1.415 . S
C730 H720 0.940 . S
C730 C728 1.417 1_545 S
C730 C731 1.354 1_545 S
C731 H721 0.930 . S
C731 C724 1.409 . S
C731 C730 1.354 1_565 S
H732 C738 0.930 . S
H733 C741 0.930 . S
H734 C742 0.930 . S
H735 C743 0.930 . S
H736 C746 0.921 1_455 S
H737 C747 0.930 . S
C738 H732 0.930 . S
C738 C739 1.355 . S
C738 C740 1.415 . S
C739 C738 1.355 . S
C739 C741 1.419 1_554 S
C740 C738 1.415 . S
C740 C745 1.425 1_554 S
C740 C747 1.409 . S
C741 H733 0.930 . S
C741 C739 1.419 1_556 S
C741 C742 1.362 . S
C742 H734 0.930 . S
C742 C741 1.362 . S
C742 C745 1.409 . S
C743 H735 0.930 . S
C743 C744 1.355 . S
C743 C745 1.415 . S
C744 C743 1.355 . S
C744 C746 1.421 1_556 S
C745 C740 1.425 1_556 S
C745 C742 1.409 . S
C745 C743 1.415 . S
C746 H736 0.921 1_655 S
C746 C744 1.421 1_554 S
C746 C747 1.370 . S
C747 H737 0.930 . S
C747 C740 1.409 . S
C747 C746 1.370 . S
H748 C754 0.930 . S
H749 C757 0.930 . S
H750 C758 0.930 . S
H751 C759 0.930 1_655 S
H752 C762 0.930 . S
H753 C763 0.930 . S
C754 H748 0.930 . S
C754 C755 1.355 . S
C754 C756 1.415 . S
C755 C754 1.355 . S
C755 C757 1.419 . S
C756 C754 1.415 . S
C756 C761 1.425 . S
C756 C763 1.409 . S
C757 H749 0.930 . S
C757 C755 1.419 . S
C757 C758 1.362 . S
C758 H750 0.930 . S
C758 C757 1.362 . S
C758 C761 1.409 . S
C759 H751 0.930 1_455 S
C759 C760 1.355 . S
C759 C761 1.415 . S
C760 C759 1.355 . S
C760 C762 1.419 . S
C761 C756 1.425 . S
C761 C758 1.409 . S
C761 C759 1.415 . S
C762 H752 0.930 . S
C762 C760 1.419 . S
C762 C763 1.362 . S
C763 H753 0.930 . S
C763 C756 1.409 . S
C763 C762 1.362 . S
H764 C770 0.930 . S
H765 C773 0.930 . S
H766 C774 0.930 . S
H767 C775 0.930 . S
H768 C778 0.930 . S
H769 C779 0.930 . S
C770 H764 0.930 . S
C770 C771 1.355 . S
C770 C772 1.415 . S
C771 C770 1.355 . S
C771 C773 1.419 . S
C772 C770 1.415 . S
C772 C777 1.425 . S
C772 C779 1.409 . S
C773 H765 0.930 . S
C773 C771 1.419 . S
C773 C774 1.362 . S
C774 H766 0.930 . S
C774 C773 1.362 . S
C774 C777 1.409 . S
C775 H767 0.930 . S
C775 C776 1.355 . S
C775 C777 1.415 . S
C776 C775 1.355 . S
C776 C778 1.419 . S
C777 C772 1.425 . S
C777 C774 1.409 . S
C777 C775 1.415 . S
C778 H768 0.930 . S
C778 C776 1.419 . S
C778 C779 1.362 . S
C779 H769 0.930 . S
C779 C772 1.409 . S
C779 C778 1.362 . S
H780 C786 0.930 . S
H781 C789 0.930 . S
H782 C790 0.930 . S
H783 C791 0.930 . S
H784 C794 0.930 . S
H785 C795 0.930 . S
C786 H780 0.930 . S
C786 C787 1.355 . S
C786 C788 1.415 . S
C787 C786 1.355 . S
C787 C789 1.419 . S
C788 C786 1.415 . S
C788 C793 1.425 . S
C788 C795 1.409 . S
C789 H781 0.930 . S
C789 C787 1.419 . S
C789 C790 1.362 . S
C790 H782 0.930 . S
C790 C789 1.362 . S
C790 C793 1.409 . S
C791 H783 0.930 . S
C791 C792 1.355 . S
C791 C793 1.415 . S
C792 C791 1.355 . S
C792 C794 1.419 . S
C793 C788 1.425 . S
C793 C790 1.409 . S
C793 C791 1.415 . S
C794 H784 0.930 . S
C794 C792 1.419 . S
C794 C795 1.362 . S
C795 H785 0.930 . S
C795 C788 1.409 . S
C795 C794 1.362 . S
H796 C802 0.930 . S
H797 C805 0.930 . S
H798 C806 0.930 . S
H799 C807 0.930 . S
H800 C810 0.930 . S
H801 C811 0.930 . S
C802 H796 0.930 . S
C802 C803 1.355 . S
C802 C804 1.415 . S
C803 C802 1.355 . S
C803 C805 1.419 . S
C804 C802 1.415 . S
C804 C809 1.425 . S
C804 C811 1.409 . S
C805 H797 0.930 . S
C805 C803 1.419 . S
C805 C806 1.362 . S
C806 H798 0.930 . S
C806 C805 1.362 . S
C806 C809 1.409 . S
C807 H799 0.930 . S
C807 C808 1.355 . S
C807 C809 1.415 . S
C808 C807 1.355 . S
C808 C810 1.419 . S
C809 C804 1.425 . S
C809 C806 1.409 . S
C809 C807 1.415 . S
C810 H800 0.930 . S
C810 C808 1.419 . S
C810 C811 1.362 . S
C811 H801 0.930 . S
C811 C804 1.409 . S
C811 C810 1.362 . S
H812 C818 0.930 . S
H813 C821 0.930 . S
H814 C822 0.930 . S
H815 C823 0.930 . S
H816 C826 0.930 . S
H817 C827 0.930 . S
C818 H812 0.930 . S
C818 C819 1.355 . S
C818 C820 1.415 . S
C819 C818 1.355 . S
C819 C821 1.419 . S
C820 C818 1.415 . S
C820 C825 1.425 . S
C820 C827 1.409 . S
C821 H813 0.930 . S
C821 C819 1.419 . S
C821 C822 1.362 . S
C822 H814 0.930 . S
C822 C821 1.362 . S
C822 C825 1.409 . S
C823 H815 0.930 . S
C823 C824 1.355 . S
C823 C825 1.415 . S
C824 C823 1.355 . S
C824 C826 1.419 . S
C825 C820 1.425 . S
C825 C822 1.409 . S
C825 C823 1.415 . S
C826 H816 0.930 . S
C826 C824 1.419 . S
C826 C827 1.362 . S
C827 H817 0.930 . S
C827 C820 1.409 . S
C827 C826 1.362 . S
H828 C834 0.930 . S
H829 C837 0.930 . S
H830 C838 0.930 . S
H831 C839 0.930 . S
H832 C842 0.930 . S
H833 C843 0.930 . S
C834 H828 0.930 . S
C834 C835 1.355 . S
C834 C836 1.415 . S
C835 C834 1.355 . S
C835 C837 1.419 . S
C836 C834 1.415 . S
C836 C841 1.425 . S
C836 C843 1.409 . S
C837 H829 0.930 . S
C837 C835 1.419 . S
C837 C838 1.362 . S
C838 H830 0.930 . S
C838 C837 1.362 . S
C838 C841 1.409 . S
C839 H831 0.930 . S
C839 C840 1.355 . S
C839 C841 1.415 . S
C840 C839 1.355 . S
C840 C842 1.419 . S
C841 C836 1.425 . S
C841 C838 1.409 . S
C841 C839 1.415 . S
C842 H832 0.930 . S
C842 C840 1.419 . S
C842 C843 1.362 . S
C843 H833 0.930 . S
C843 C836 1.409 . S
C843 C842 1.362 . S
H844 C850 0.930 . S
H845 C853 0.930 . S
H846 C854 0.930 . S
H847 C855 0.930 . S
H848 C858 0.930 . S
H849 C859 0.930 . S
C850 H844 0.930 . S
C850 C851 1.355 . S
C850 C852 1.415 . S
C851 C850 1.355 . S
C851 C853 1.419 . S
C852 C850 1.415 . S
C852 C857 1.425 . S
C852 C859 1.409 . S
C853 H845 0.930 . S
C853 C851 1.419 . S
C853 C854 1.362 . S
C854 H846 0.930 . S
C854 C853 1.362 . S
C854 C857 1.409 . S
C855 H847 0.930 . S
C855 C856 1.355 . S
C855 C857 1.415 . S
C856 C855 1.355 . S
C856 C858 1.419 . S
C857 C852 1.425 . S
C857 C854 1.409 . S
C857 C855 1.415 . S
C858 H848 0.930 . S
C858 C856 1.419 . S
C858 C859 1.362 . S
C859 H849 0.930 . S
C859 C852 1.409 . S
C859 C858 1.362 . S
H860 C866 0.930 . S
H861 C869 0.930 . S
H862 C870 0.930 . S
H863 C871 0.930 . S
H864 C874 0.930 . S
H865 C875 0.930 . S
C866 H860 0.930 . S
C866 C867 1.355 . S
C866 C868 1.415 . S
C867 C866 1.355 . S
C867 C869 1.419 . S
C868 C866 1.415 . S
C868 C873 1.425 . S
C868 C875 1.409 . S
C869 H861 0.930 . S
C869 C867 1.419 . S
C869 C870 1.362 . S
C870 H862 0.930 . S
C870 C869 1.362 . S
C870 C873 1.409 . S
C871 H863 0.930 . S
C871 C872 1.355 . S
C871 C873 1.415 . S
C872 C871 1.355 . S
C872 C874 1.419 . S
C873 C868 1.425 . S
C873 C870 1.409 . S
C873 C871 1.415 . S
C874 H864 0.930 . S
C874 C872 1.419 . S
C874 C875 1.362 . S
C875 H865 0.930 . S
C875 C868 1.409 . S
C875 C874 1.362 . S
C403 C117 1.530 . S
C408 C18 1.531 . S
C419 C51 1.523 . S
C424 C150 1.533 . S
C435 C84 1.536 . S
C440 C183 1.518 . S
C451 C216 1.526 . S
C456 C315 1.533 . S
C467 C348 1.513 . S
C472 C249 1.513 . S
C483 C381 1.510 . S
C488 C282 1.515 . S
C499 C252 0.939 . S
C504 C21 0.889 . S
C515 C54 0.904 . S
C520 C285 0.920 . S
C531 C318 0.902 . S
C536 C87 0.922 . S
C547 C120 1.007 . S
C552 C351 0.944 . S
C563 C384 0.975 . S
C568 C153 0.869 . S
C579 C186 1.013 . S
C584 C219 0.932 . S
C595 C7 1.191 . S
C600 C106 1.228 . S
C611 C40 1.205 . S
C616 C139 1.264 . S
C627 C73 1.259 . S
C632 C172 1.183 . S
C643 C205 1.211 . S
C648 C304 1.205 . S
C659 C238 1.233 . S
C664 C337 1.188 . S
C675 C271 1.252 . S
C680 C370 1.229 . S
C691 N332 0.871 . S
C696 N2 0.926 . S
C707 N35 0.924 . S
C712 N365 0.867 . S
C723 N200 0.912 . S
C728 N68 0.918 . S
C739 N101 0.914 . S
C744 N233 0.916 . S
C755 N266 0.861 . S
C760 N134 0.847 . S
C771 N167 0.842 . S
C776 N299 0.870 . S
C787 N13 1.830 . S
C792 N277 1.761 . S
C803 N46 1.797 . S
C808 N310 1.809 . S
C819 N343 1.773 . S
C824 N79 1.825 . S
C835 N376 1.755 . S
C840 N112 1.831 . S
C851 N145 1.763 . S
C856 N211 1.830 . S
C867 N178 1.800 . S
C872 N244 1.757 . S
