# Generated by pormake.
# Topology wji, (4)-cn, num edge types: 1
# Building blocks:
#     Node 0, Type 0, BuildingBlock: KUFVIS_clean_sbu_0, # of connection points: 4
#     Node 1, Type 0, BuildingBlock: KUFVIS_clean_sbu_0, # of connection points: 4
#     Node 2, Type 0, BuildingBlock: KUFVIS_clean_sbu_0, # of connection points: 4
#     Node 3, Type 0, BuildingBlock: KUFVIS_clean_sbu_0, # of connection points: 4
#     Node 4, Type 0, BuildingBlock: KUFVIS_clean_sbu_0, # of connection points: 4
#     Node 5, Type 0, BuildingBlock: KUFVIS_clean_sbu_0, # of connection points: 4
#     Node 6, Type 0, BuildingBlock: KUFVIS_clean_sbu_0, # of connection points: 4
#     Node 7, Type 0, BuildingBlock: KUFVIS_clean_sbu_0, # of connection points: 4
#     Node 8, Type 0, BuildingBlock: KUFVIS_clean_sbu_0, # of connection points: 4
#     Node 9, Type 0, BuildingBlock: KUFVIS_clean_sbu_0, # of connection points: 4
#     Node 10, Type 0, BuildingBlock: KUFVIS_clean_sbu_0, # of connection points: 4
#     Node 11, Type 0, BuildingBlock: KUFVIS_clean_sbu_0, # of connection points: 4
#     Edge 12, Type (0, 0), None
#     Edge 13, Type (0, 0), None
#     Edge 14, Type (0, 0), None
#     Edge 15, Type (0, 0), None
#     Edge 16, Type (0, 0), None
#     Edge 17, Type (0, 0), None
#     Edge 18, Type (0, 0), None
#     Edge 19, Type (0, 0), None
#     Edge 20, Type (0, 0), None
#     Edge 21, Type (0, 0), None
#     Edge 22, Type (0, 0), None
#     Edge 23, Type (0, 0), None
#     Edge 24, Type (0, 0), None
#     Edge 25, Type (0, 0), None
#     Edge 26, Type (0, 0), None
#     Edge 27, Type (0, 0), None
#     Edge 28, Type (0, 0), None
#     Edge 29, Type (0, 0), None
#     Edge 30, Type (0, 0), None
#     Edge 31, Type (0, 0), None
#     Edge 32, Type (0, 0), None
#     Edge 33, Type (0, 0), None
#     Edge 34, Type (0, 0), None
#     Edge 35, Type (0, 0), None
# Relax obj value: 0.166
# Max RMSD: 0.125
# Mean RMSD: 0.125
data_MOF--net-wji--node1-KUFVIS_clean_sbu_0--edge1-none
_symmetry_space_group_name_H-M    P1
_symmetry_Int_Tables_number       1
_symmetry_cell_setting            triclinic
loop_
_symmetry_equiv_pos_as_xyz
'x, y, z'
_cell_length_a     25.450798
_cell_length_b     25.450854
_cell_length_c     11.136419
_cell_angle_alpha  90.006655
_cell_angle_beta   89.986688
_cell_angle_gamma 119.99993
loop_
_atom_site_label
_atom_site_type_symbol
_atom_site_fract_x
_atom_site_fract_y
_atom_site_fract_z
_atom_type_partial_charge
Mn0 Mn 0.41743 0.32688 0.44743 0.0
Mn1 Mn 0.39583 0.44745 0.41311 0.0
C2 C 0.34578 0.3359 0.57428 0.0
C3 C 0.43731 0.24958 0.53348 0.0
C4 C 0.37055 0.36129 0.21052 0.0
O5 O 0.51034 0.39624 0.41027 0.0
O6 O 0.47844 0.46315 0.39552 0.0
C7 C 0.47585 0.54385 0.5786 0.0
N8 N 0.41912 0.50653 0.53636 0.0
C9 C 0.39042 0.58182 0.57686 0.0
C10 C 0.4481 0.61997 0.62266 0.0
C11 C 0.49098 0.6008 0.62464 0.0
C12 C 0.37821 0.52576 0.5316 0.0
H13 H 0.51046 0.53237 0.56788 0.0
C14 C 0.52188 0.45169 0.39577 0.0
O15 O 0.4251 0.25204 0.42397 0.0
O16 O 0.44049 0.29396 0.5956 0.0
N17 N 0.31733 0.43628 0.43078 0.0
C18 C 0.26506 0.39472 0.37687 0.0
C19 C 0.21938 0.40914 0.35782 0.0
C20 C 0.22994 0.46741 0.38656 0.0
C21 C 0.28193 0.50707 0.4525 0.0
C22 C 0.32508 0.48945 0.47118 0.0
H23 H 0.25959 0.35212 0.34502 0.0
O24 O 0.33316 0.28469 0.52507 0.0
O25 O 0.39066 0.38195 0.52228 0.0
O26 O 0.39018 0.33041 0.26656 0.0
O27 O 0.36869 0.40345 0.26298 0.0
C28 C 0.29121 0.56115 0.50681 0.0
C29 C 0.34572 0.5987 0.56832 0.0
H30 H 0.46045 0.66534 0.64822 0.0
H31 H 0.53646 0.63056 0.65612 0.0
H32 H 0.17621 0.37568 0.32055 0.0
H33 H 0.19384 0.47703 0.37313 0.0
H34 H 0.25664 0.57395 0.50464 0.0
H35 H 0.35301 0.64045 0.60874 0.0
Mn36 Mn 0.10417 0.41062 0.61408 0.0
Mn37 Mn 0.96201 0.38902 0.57976 0.0
C38 C 0.02351 0.33897 0.7409 0.0
C39 C 0.20135 0.43049 0.70014 0.0
C40 C 0.02289 0.36374 0.37716 0.0
O41 O 0.12773 0.50354 0.57696 0.0
O42 O 0.02892 0.47163 0.56216 0.0
C43 C 0.94563 0.46905 0.74526 0.0
N44 N 0.92623 0.41232 0.70302 0.0
C45 C 0.82224 0.38363 0.74353 0.0
C46 C 0.84176 0.44131 0.78932 0.0
C47 C 0.90382 0.48419 0.7913 0.0
C48 C 0.86609 0.37141 0.69827 0.0
H49 H 0.99172 0.50366 0.73454 0.0
C50 C 0.08381 0.51507 0.56243 0.0
O51 O 0.18669 0.41829 0.59062 0.0
O52 O 0.16015 0.43367 0.76226 0.0
N53 N 0.89468 0.31051 0.59745 0.0
C54 C 0.88398 0.25824 0.54354 0.0
C55 C 0.82387 0.21256 0.52448 0.0
C56 C 0.77616 0.22312 0.55322 0.0
C57 C 0.78849 0.27512 0.61917 0.0
C58 C 0.84927 0.31827 0.63785 0.0
H59 H 0.9211 0.25277 0.51167 0.0
O60 O 0.0621 0.32635 0.69167 0.0
O61 O 0.02234 0.38385 0.68893 0.0
O62 O 0.07341 0.38339 0.43319 0.0
O63 O 0.97887 0.36186 0.42964 0.0
C64 C 0.74369 0.28441 0.67349 0.0
C65 C 0.76066 0.33892 0.735 0.0
H66 H 0.80875 0.45367 0.81486 0.0
H67 H 0.91952 0.52967 0.82276 0.0
H68 H 0.81415 0.16939 0.4872 0.0
H69 H 0.73043 0.18702 0.53977 0.0
H70 H 0.69632 0.24983 0.67133 0.0
H71 H 0.7262 0.34621 0.77543 0.0
Mn72 Mn 0.70715 0.09737 0.78076 0.0
Mn73 Mn 0.5866 0.95521 0.74641 0.0
C74 C 0.69814 0.0167 0.90755 0.0
C75 C 0.78447 0.19455 0.86681 0.0
C76 C 0.67276 0.01608 0.54382 0.0
O77 O 0.63779 0.12092 0.74366 0.0
O78 O 0.57089 0.02211 0.72882 0.0
C79 C 0.49018 0.93883 0.9119 0.0
N80 N 0.52751 0.91943 0.86967 0.0
C81 C 0.45223 0.81544 0.91018 0.0
C82 C 0.41407 0.83496 0.95596 0.0
C83 C 0.43323 0.89702 0.95794 0.0
C84 C 0.50829 0.85929 0.86492 0.0
H85 H 0.50166 0.98492 0.90119 0.0
C86 C 0.58235 0.077 0.7291 0.0
O87 O 0.782 0.17988 0.75729 0.0
O88 O 0.74009 0.15335 0.92894 0.0
N89 N 0.59778 0.88788 0.76409 0.0
C90 C 0.63936 0.87718 0.7102 0.0
C91 C 0.62494 0.81707 0.69115 0.0
C92 C 0.56667 0.76936 0.71988 0.0
C93 C 0.527 0.78169 0.78583 0.0
C94 C 0.54461 0.84247 0.80449 0.0
H95 H 0.68195 0.9143 0.67834 0.0
O96 O 0.74935 0.0553 0.85833 0.0
O97 O 0.65209 0.01554 0.8556 0.0
O98 O 0.70362 0.0666 0.59986 0.0
O99 O 0.63062 0.97206 0.59629 0.0
C100 C 0.47292 0.7369 0.84015 0.0
C101 C 0.43536 0.75386 0.90166 0.0
H102 H 0.3687 0.80195 -0.01849 0.0
H103 H 0.40346 0.91272 -0.01059 0.0
H104 H 0.65841 0.80736 0.65388 0.0
H105 H 0.55705 0.72364 0.70644 0.0
H106 H 0.46013 0.68953 0.83801 0.0
H107 H 0.39361 0.7194 0.94209 0.0
Mn108 Mn 0.62339 0.70033 0.94744 0.0
Mn109 Mn 0.645 0.57978 0.91306 0.0
C110 C 0.69503 0.6913 0.07424 0.0
C111 C 0.60351 0.77764 0.03348 0.0
C112 C 0.67028 0.66592 0.71049 0.0
O113 O 0.53047 0.63096 0.91033 0.0
O114 O 0.56238 0.56406 0.89548 0.0
C115 C 0.56496 0.48336 0.07854 0.0
N116 N 0.62169 0.52069 0.0363 0.0
C117 C 0.65041 0.44542 0.07681 0.0
C118 C 0.59273 0.40726 0.12261 0.0
C119 C 0.54983 0.42641 0.12458 0.0
C120 C 0.66261 0.50147 0.03154 0.0
H121 H 0.53034 0.49483 0.06783 0.0
C122 C 0.51894 0.57552 0.89578 0.0
O123 O 0.61571 0.77516 0.92396 0.0
O124 O 0.60033 0.73327 0.09562 0.0
N125 N 0.7235 0.59096 0.93073 0.0
C126 C 0.77578 0.63254 0.87686 0.0
C127 C 0.82148 0.61814 0.85782 0.0
C128 C 0.81093 0.55987 0.88654 0.0
C129 C 0.75893 0.5202 0.95247 0.0
C130 C 0.71575 0.5378 0.97112 0.0
H131 H 0.78125 0.67513 0.84501 0.0
O132 O 0.70765 0.74252 0.02505 0.0
O133 O 0.65015 0.64526 0.02227 0.0
O134 O 0.65063 0.69679 0.76656 0.0
O135 O 0.67216 0.62378 0.76294 0.0
C136 C 0.74965 0.46613 0.00679 0.0
C137 C 0.69513 0.42857 0.0683 0.0
H138 H 0.58039 0.3619 0.14818 0.0
H139 H 0.50435 0.39664 0.15605 0.0
H140 H 0.86466 0.65161 0.82056 0.0
H141 H 0.84705 0.55026 0.87311 0.0
H142 H 0.78424 0.45335 0.00466 0.0
H143 H 0.68785 0.38682 0.10873 0.0
Mn144 Mn 0.93669 0.61658 0.11412 0.0
Mn145 Mn 0.07885 0.63818 0.07973 0.0
C146 C 1.01735 0.68822 0.24095 0.0
C147 C 0.83949 0.59669 0.20015 0.0
C148 C 1.01799 0.66347 0.87718 0.0
O149 O 0.91314 0.52367 0.07697 0.0
O150 O 1.01195 0.55557 0.06216 0.0
C151 C 0.09523 0.55816 0.2452 0.0
N152 N 0.11463 0.61489 0.20296 0.0
C153 C 0.21862 0.64361 0.24347 0.0
C154 C 0.1991 0.58594 0.28927 0.0
C155 C 0.13705 0.54304 0.29125 0.0
C156 C 0.17477 0.65581 0.1982 0.0
H157 H 0.04915 0.52354 0.2345 0.0
C158 C 0.95705 0.51214 0.06244 0.0
O159 O 0.85418 0.6089 0.09063 0.0
O160 O 0.88068 0.59351 0.26229 0.0
N161 N 0.14617 0.71669 0.0974 0.0
C162 C 0.15686 0.76896 0.04353 0.0
C163 C 0.21697 0.81466 0.0245 0.0
C164 C 0.26469 0.80412 0.05321 0.0
C165 C 0.25236 0.75212 0.11913 0.0
C166 C 0.19158 0.70894 0.13778 0.0
H167 H 0.11974 0.77442 0.01168 0.0
O168 O 0.97875 0.70084 0.19178 0.0
O169 O 1.01851 0.64334 0.18894 0.0
O170 O 0.96747 0.64384 0.93325 0.0
O171 O 0.062 0.66533 0.92962 0.0
C172 C 0.29715 0.74285 0.17345 0.0
C173 C 0.28019 0.68833 0.23495 0.0
H174 H 0.23212 0.5736 0.31486 0.0
H175 H 0.12135 0.49757 0.32273 0.0
H176 H 0.22667 0.85784 -0.01275 0.0
H177 H 0.31041 0.84024 0.0398 0.0
H178 H 0.34452 0.77744 0.17132 0.0
H179 H 0.31466 0.68106 0.27538 0.0
Mn180 Mn 0.33371 0.92988 0.28079 0.0
Mn181 Mn 0.45428 0.07204 0.24643 0.0
C182 C 0.34273 1.01055 0.40764 0.0
C183 C 0.25641 0.83269 0.36681 0.0
C184 C 0.36813 1.01118 0.04387 0.0
O185 O 0.40307 0.90633 0.24361 0.0
O186 O 0.46998 1.00514 0.22885 0.0
C187 C 0.55067 0.08843 0.41191 0.0
N188 N 0.51335 0.10783 0.36967 0.0
C189 C 0.58863 0.21182 0.41016 0.0
C190 C 0.62678 0.1923 0.45597 0.0
C191 C 0.60762 0.13024 0.45795 0.0
C192 C 0.53258 0.16797 0.3649 0.0
H193 H 0.5392 0.04234 0.40119 0.0
C194 C 0.45852 0.95025 0.22911 0.0
O195 O 0.25887 0.84737 0.25731 0.0
O196 O 0.30078 0.87388 0.42895 0.0
N197 N 0.4431 0.13937 0.26409 0.0
C198 C 0.40153 0.15007 0.21021 0.0
C199 C 0.41595 0.21018 0.19116 0.0
C200 C 0.47421 0.25789 0.21989 0.0
C201 C 0.51387 0.24556 0.28582 0.0
C202 C 0.49626 0.18479 0.30448 0.0
H203 H 0.35894 0.11295 0.17836 0.0
O204 O 0.29152 0.97195 0.35846 0.0
O205 O 0.38878 1.01171 0.35562 0.0
O206 O 0.33723 0.96067 0.09992 0.0
O207 O 0.41029 0.05519 0.09631 0.0
C208 C 0.56795 0.29036 0.34012 0.0
C209 C 0.60549 0.2734 0.40163 0.0
H210 H 0.67214 0.22531 0.48155 0.0
H211 H 0.63738 0.11454 0.48943 0.0
H212 H 0.38248 0.21989 0.15391 0.0
H213 H 0.48382 0.30361 0.20647 0.0
H214 H 0.58074 0.33773 0.33797 0.0
H215 H 0.64724 0.30786 0.44206 0.0
Mn216 Mn 0.70713 0.6166 0.33737 0.0
Mn217 Mn 0.58655 0.63817 0.37178 0.0
C218 C 0.69812 0.68819 0.21063 0.0
C219 C 0.78444 0.59673 0.25133 0.0
C220 C 0.67271 0.66348 0.57429 0.0
O221 O 0.63777 0.52368 0.37454 0.0
O222 O 0.57083 0.55556 0.38937 0.0
C223 C 0.49013 0.55814 0.20632 0.0
N224 N 0.52747 0.61487 0.24855 0.0
C225 C 0.45223 0.64361 0.20798 0.0
C226 C 0.41406 0.58594 0.16218 0.0
C227 C 0.4332 0.54303 0.16025 0.0
C228 C 0.50826 0.6558 0.25327 0.0
H229 H 0.50159 0.52352 0.21706 0.0
C230 C 0.58231 0.51214 0.38907 0.0
O231 O 0.78196 0.60892 0.36086 0.0
O232 O 0.74006 0.59352 0.1892 0.0
N233 N 0.59774 0.71668 0.35409 0.0
C234 C 0.63932 0.76895 0.40796 0.0
C235 C 0.62492 0.81465 0.42698 0.0
C236 C 0.56666 0.80411 0.39824 0.0
C237 C 0.52699 0.75212 0.33231 0.0
C238 C 0.54458 0.70893 0.31369 0.0
H239 H 0.6819 0.77441 0.43982 0.0
O240 O 0.74936 0.70087 0.25976 0.0
O241 O 0.65203 0.64332 0.26254 0.0
O242 O 0.70361 0.64386 0.51824 0.0
O243 O 0.63054 0.66532 0.52189 0.0
C244 C 0.47293 0.74286 0.27797 0.0
C245 C 0.43538 0.68834 0.21646 0.0
H246 H 0.36871 0.57361 0.13657 0.0
H247 H 0.40343 0.49755 0.12879 0.0
H248 H 0.65839 0.85783 0.46423 0.0
H249 H 0.55706 0.84024 0.41163 0.0
H250 H 0.46016 0.77745 0.28008 0.0
H251 H 0.39365 0.68107 0.17601 0.0
Mn252 Mn 0.10416 0.70032 0.50404 0.0
Mn253 Mn 0.96201 0.57975 0.53845 0.0
C254 C 0.02355 0.69131 0.37734 0.0
C255 C 0.20133 0.77764 0.418 0.0
C256 C 0.02286 0.66591 0.74098 0.0
O257 O 0.12771 0.63096 0.54118 0.0
O258 O 0.02889 0.56402 0.55605 0.0
C259 C 0.94562 0.48332 0.37299 0.0
N260 N 0.92623 0.52066 0.41521 0.0
C261 C 0.82225 0.44541 0.37463 0.0
C262 C 0.84176 0.40724 0.32885 0.0
C263 C 0.90381 0.42638 0.32692 0.0
C264 C 0.86609 0.50145 0.41993 0.0
H265 H 0.99171 0.49478 0.38373 0.0
C266 C 0.0838 0.5755 0.55573 0.0
O267 O 0.18667 0.77515 0.52753 0.0
O268 O 0.16015 0.73325 0.35587 0.0
N269 N 0.89469 0.59094 0.52076 0.0
C270 C 0.88399 0.63252 0.57463 0.0
C271 C 0.82389 0.61812 0.59365 0.0
C272 C 0.77617 0.55986 0.5649 0.0
C273 C 0.7885 0.52019 0.49897 0.0
C274 C 0.84928 0.53778 0.48034 0.0
H275 H 0.92112 0.6751 0.60649 0.0
O276 O 0.06211 0.74255 0.42649 0.0
O277 O 0.02234 0.64522 0.42922 0.0
O278 O 0.07338 0.69679 0.68494 0.0
O279 O 0.97885 0.62376 0.68856 0.0
C280 C 0.74371 0.46612 0.44462 0.0
C281 C 0.76067 0.42857 0.38311 0.0
H282 H 0.80874 0.36189 0.30325 0.0
H283 H 0.91951 0.39661 0.29546 0.0
H284 H 0.81418 0.65159 0.6309 0.0
H285 H 0.73045 0.55026 0.57831 0.0
H286 H 0.69634 0.45335 0.44673 0.0
H287 H 0.72621 0.38683 0.34265 0.0
Mn288 Mn 0.41744 0.09735 0.67074 0.0
Mn289 Mn 0.39586 0.95519 0.7051 0.0
C290 C 0.34584 0.01674 0.54403 0.0
C291 C 0.43729 0.19451 0.58467 0.0
C292 C 0.37056 0.01606 0.90766 0.0
O293 O 0.51036 0.1209 0.70786 0.0
O294 O 0.47847 0.02209 0.72272 0.0
C295 C 0.47591 0.93881 0.53964 0.0
N296 N 0.41917 0.91942 0.58185 0.0
C297 C 0.39045 0.81543 0.54127 0.0
C298 C 0.44813 0.83495 0.4955 0.0
C299 C 0.49104 0.897 0.49357 0.0
C300 C 0.37825 0.85928 0.58656 0.0
H301 H 0.51053 0.9849 0.55038 0.0
C302 C 0.5219 0.07699 0.72241 0.0
O303 O 0.42511 0.17986 0.69421 0.0
O304 O 0.4405 0.15332 0.52255 0.0
N305 N 0.31735 0.88787 0.6874 0.0
C306 C 0.26508 0.87717 0.7413 0.0
C307 C 0.21938 0.81707 0.76032 0.0
C308 C 0.22993 0.76935 0.73157 0.0
C309 C 0.28193 0.78169 0.66562 0.0
C310 C 0.32511 0.84246 0.64698 0.0
H311 H 0.25961 0.9143 0.77317 0.0
O312 O 0.33317 0.0553 0.59321 0.0
O313 O 0.39072 0.01552 0.5959 0.0
O314 O 0.3902 0.06658 0.85164 0.0
O315 O 0.36868 0.97204 0.85522 0.0
C316 C 0.29121 0.73689 0.61127 0.0
C317 C 0.34573 0.75385 0.54976 0.0
H318 H 0.46048 0.80193 0.46992 0.0
H319 H 0.53652 0.9127 0.46212 0.0
H320 H 0.1762 0.80736 0.7976 0.0
H321 H 0.19382 0.72363 0.74499 0.0
H322 H 0.25662 0.68952 0.61339 0.0
H323 H 0.35301 0.71939 0.5093 0.0
Mn324 Mn 0.3337 0.41061 0.83741 0.0
Mn325 Mn 0.45428 0.38903 0.87175 0.0
C326 C 0.3427 0.339 0.71068 0.0
C327 C 0.25639 0.43046 0.75134 0.0
C328 C 0.3681 0.36373 0.07431 0.0
O329 O 0.40305 0.50352 0.87455 0.0
O330 O 0.46999 0.47164 0.88937 0.0
C331 C 0.5507 0.46907 0.70627 0.0
N332 N 0.51337 0.41234 0.74849 0.0
C333 C 0.58864 0.38363 0.70791 0.0
C334 C 0.62681 0.44131 0.66214 0.0
C335 C 0.60765 0.48421 0.6602 0.0
C336 C 0.53259 0.37142 0.7532 0.0
H337 H 0.53923 0.50369 0.71702 0.0
C338 C 0.45851 0.51507 0.88908 0.0
O339 O 0.25885 0.41828 0.86087 0.0
O340 O 0.30079 0.43367 0.68922 0.0
N341 N 0.4431 0.31053 0.85404 0.0
C342 C 0.40153 0.25826 0.90796 0.0
C343 C 0.41596 0.21257 0.927 0.0
C344 C 0.47423 0.22313 0.89823 0.0
C345 C 0.51388 0.27512 0.83227 0.0
C346 C 0.49627 0.31828 0.81362 0.0
H347 H 0.35894 0.25279 0.93983 0.0
O348 O 0.29147 0.32633 0.75987 0.0
O349 O 0.3888 0.38388 0.76255 0.0
O350 O 0.33722 0.38337 0.0183 0.0
O351 O 0.41026 0.36187 0.02186 0.0
C352 C 0.56796 0.2844 0.77793 0.0
C353 C 0.60551 0.33892 0.71641 0.0
H354 H 0.67217 0.45366 0.63656 0.0
H355 H 0.63742 0.52968 0.62875 0.0
H356 H 0.38249 0.1694 0.96428 0.0
H357 H 0.48384 0.18702 0.91165 0.0
H358 H 0.58075 0.24982 0.78007 0.0
H359 H 0.64726 0.3462 0.67596 0.0
Mn360 Mn 0.93672 0.32689 0.00406 0.0
Mn361 Mn 0.07887 0.44747 0.0384 0.0
C362 C 1.01733 0.33589 0.8773 0.0
C363 C 0.83955 0.24959 0.91801 0.0
C364 C 1.01801 0.3613 0.24095 0.0
O365 O 0.91316 0.39624 0.04124 0.0
O366 O 1.01197 0.46318 0.05601 0.0
C367 C 0.09526 0.54389 0.87293 0.0
N368 N 0.11466 0.50656 0.91515 0.0
C369 C 0.21864 0.58183 0.87458 0.0
C370 C 0.19913 0.61999 0.8288 0.0
C371 C 0.13707 0.60083 0.82686 0.0
C372 C 0.1748 0.52578 0.91987 0.0
H373 H 0.04917 0.53242 0.88368 0.0
C374 C 0.95706 0.4517 0.05574 0.0
O375 O 0.8542 0.25205 0.02753 0.0
O376 O 0.88074 0.29398 0.85589 0.0
N377 N 0.1462 0.4363 0.0207 0.0
C378 C 0.1569 0.39474 0.07461 0.0
C379 C 0.21701 0.40916 0.09365 0.0
C380 C 0.26472 0.46743 0.06489 0.0
C381 C 0.25239 0.50708 -0.00106 0.0
C382 C 0.19161 0.48947 -0.01971 0.0
H383 H 0.11978 0.35215 0.10648 0.0
O384 O 0.97876 0.28466 0.92647 0.0
O385 O 1.01855 0.38199 0.9292 0.0
O386 O 0.96749 0.33041 0.18493 0.0
O387 O 0.06202 0.40348 0.18852 0.0
C388 C 0.29719 0.56115 0.9446 0.0
C389 C 0.28022 0.5987 0.88309 0.0
H390 H 0.23214 0.66535 0.80321 0.0
H391 H 0.12137 0.6306 0.7954 0.0
H392 H 0.22672 0.3757 0.13092 0.0
H393 H 0.31044 0.47704 0.07829 0.0
H394 H 0.34456 0.57394 0.94675 0.0
H395 H 0.31469 0.64044 0.84264 0.0
Mn396 Mn 0.62343 0.92991 0.17071 0.0
Mn397 Mn 0.645 0.07206 0.20509 0.0
C398 C 0.69503 1.01051 0.04395 0.0
C399 C 0.60356 0.83273 0.08467 0.0
C400 C 0.67031 1.0112 0.40761 0.0
O401 O 0.53052 0.90635 0.2079 0.0
O402 O 0.56239 1.00516 0.22269 0.0
C403 C 0.56498 0.08845 0.03963 0.0
N404 N 0.62171 0.10784 0.08185 0.0
C405 C 0.65044 0.21183 0.04129 0.0
C406 C 0.59277 0.19232 -0.00451 0.0
C407 C 0.54986 0.13026 -0.00644 0.0
C408 C 0.66263 0.16798 0.08658 0.0
H409 H 0.53036 0.04236 0.05037 0.0
C410 C 0.51897 0.95026 0.2224 0.0
O411 O 0.61575 0.84739 0.19419 0.0
O412 O 0.60035 0.87391 0.02254 0.0
N413 N 0.7235 0.13938 0.1874 0.0
C414 C 0.77577 0.15008 0.24129 0.0
C415 C 0.82146 0.21018 0.26031 0.0
C416 C 0.81092 0.2579 0.23156 0.0
C417 C 0.75893 0.24557 0.16563 0.0
C418 C 0.71576 0.1848 0.14699 0.0
H419 H 0.78123 0.11295 0.27315 0.0
O420 O 0.7077 0.97195 0.09309 0.0
O421 O 0.65016 1.01173 0.09587 0.0
O422 O 0.65069 0.96068 0.35158 0.0
O423 O 0.67213 0.0552 0.3552 0.0
C424 C 0.74967 0.29037 0.11129 0.0
C425 C 0.69516 0.27341 0.04978 0.0
H426 H 0.58043 0.22533 0.96989 0.0
H427 H 0.50439 0.11456 0.96209 0.0
H428 H 0.86464 0.21989 0.29756 0.0
H429 H 0.84704 0.30362 0.24495 0.0
H430 H 0.78425 0.33773 0.11342 0.0
H431 H 0.68788 0.30787 0.00934 0.0
loop_
_geom_bond_atom_site_label_1
_geom_bond_atom_site_label_2
_geom_bond_distance
_geom_bond_site_symmetry_2
_ccdc_geom_bond_type
Mn0 O5 2.095 . S
Mn0 O15 2.162 . S
Mn0 O16 2.297 . S
Mn0 O24 2.385 . S
Mn0 O25 2.209 . S
Mn0 O26 2.094 . S
Mn1 O6 2.121 . S
Mn1 N8 2.257 . S
Mn1 N17 2.282 . S
Mn1 O25 2.215 . S
Mn1 O27 2.117 . S
C2 O24 1.234 . S
C2 O25 1.283 . S
C3 O15 1.281 . S
C3 O16 1.236 . S
C4 O26 1.240 . S
C4 O27 1.264 . S
O5 Mn0 2.095 . S
O5 C14 1.250 . S
O6 Mn1 2.121 . S
O6 C14 1.258 . S
C7 N8 1.326 . S
C7 C11 1.460 . S
C7 H13 0.929 . S
N8 Mn1 2.257 . S
N8 C7 1.326 . S
N8 C12 1.362 . S
C9 C10 1.258 . S
C9 C12 1.431 . S
C9 C29 1.449 . S
C10 C9 1.258 . S
C10 C11 1.477 . S
C10 H30 0.931 . S
C11 C7 1.460 . S
C11 C10 1.477 . S
C11 H31 0.930 . S
C12 N8 1.362 . S
C12 C9 1.431 . S
C12 C22 1.476 . S
H13 C7 0.929 . S
C14 O5 1.250 . S
C14 O6 1.258 . S
O15 Mn0 2.162 . S
O15 C3 1.281 . S
O16 Mn0 2.297 . S
O16 C3 1.236 . S
N17 Mn1 2.282 . S
N17 C18 1.328 . S
N17 C22 1.318 . S
C18 N17 1.328 . S
C18 C19 1.457 . S
C18 H23 0.929 . S
C19 C18 1.457 . S
C19 C20 1.291 . S
C19 H32 0.931 . S
C20 C19 1.291 . S
C20 C21 1.373 . S
C20 H33 0.929 . S
C21 C20 1.373 . S
C21 C22 1.396 . S
C21 C28 1.403 . S
C22 C12 1.476 . S
C22 N17 1.318 . S
C22 C21 1.396 . S
H23 C18 0.929 . S
O24 Mn0 2.385 . S
O24 C2 1.234 . S
O25 Mn0 2.209 . S
O25 Mn1 2.215 . S
O25 C2 1.283 . S
O26 Mn0 2.094 . S
O26 C4 1.240 . S
O27 Mn1 2.117 . S
O27 C4 1.264 . S
C28 C21 1.403 . S
C28 C29 1.399 . S
C28 H34 0.929 . S
C29 C9 1.449 . S
C29 C28 1.399 . S
C29 H35 0.930 . S
H30 C10 0.931 . S
H31 C11 0.930 . S
H32 C19 0.931 . S
H33 C20 0.929 . S
H34 C28 0.929 . S
H35 C29 0.930 . S
Mn36 O41 2.095 . S
Mn36 O51 2.162 . S
Mn36 O52 2.297 . S
Mn36 O60 2.385 . S
Mn36 O61 2.209 . S
Mn36 O62 2.094 . S
Mn37 O42 2.121 1_655 S
Mn37 N44 2.257 . S
Mn37 N53 2.282 . S
Mn37 O61 2.215 1_655 S
Mn37 O63 2.117 . S
C38 O60 1.234 . S
C38 O61 1.283 . S
C39 O51 1.281 . S
C39 O52 1.236 . S
C40 O62 1.240 . S
C40 O63 1.264 1_455 S
O41 Mn36 2.095 . S
O41 C50 1.250 . S
O42 Mn37 2.121 1_455 S
O42 C50 1.258 . S
C43 N44 1.326 . S
C43 C47 1.460 . S
C43 H49 0.929 1_655 S
N44 Mn37 2.257 . S
N44 C43 1.326 . S
N44 C48 1.362 . S
C45 C46 1.258 . S
C45 C48 1.431 . S
C45 C65 1.449 . S
C46 C45 1.258 . S
C46 C47 1.477 . S
C46 H66 0.931 1_556 S
C47 C43 1.460 . S
C47 C46 1.477 . S
C47 H67 0.930 . S
C48 N44 1.362 . S
C48 C45 1.431 . S
C48 C58 1.476 . S
H49 C43 0.929 1_455 S
C50 O41 1.250 . S
C50 O42 1.258 . S
O51 Mn36 2.162 . S
O51 C39 1.281 . S
O52 Mn36 2.297 . S
O52 C39 1.236 . S
N53 Mn37 2.282 . S
N53 C54 1.328 . S
N53 C58 1.318 . S
C54 N53 1.328 . S
C54 C55 1.457 . S
C54 H59 0.929 . S
C55 C54 1.457 . S
C55 C56 1.291 . S
C55 H68 0.931 . S
C56 C55 1.291 . S
C56 C57 1.373 . S
C56 H69 0.929 . S
C57 C56 1.373 . S
C57 C58 1.396 . S
C57 C64 1.403 . S
C58 C48 1.476 . S
C58 N53 1.318 . S
C58 C57 1.396 . S
H59 C54 0.929 . S
O60 Mn36 2.385 . S
O60 C38 1.234 . S
O61 Mn36 2.209 . S
O61 Mn37 2.215 1_455 S
O61 C38 1.283 . S
O62 Mn36 2.094 . S
O62 C40 1.240 . S
O63 Mn37 2.117 . S
O63 C40 1.264 1_655 S
C64 C57 1.403 . S
C64 C65 1.399 . S
C64 H70 0.929 . S
C65 C45 1.449 . S
C65 C64 1.399 . S
C65 H71 0.930 1_556 S
H66 C46 0.931 1_554 S
H67 C47 0.930 . S
H68 C55 0.931 . S
H69 C56 0.929 . S
H70 C64 0.929 . S
H71 C65 0.930 1_554 S
Mn72 O77 2.095 . S
Mn72 O87 2.162 . S
Mn72 O88 2.297 . S
Mn72 O96 2.385 . S
Mn72 O97 2.209 . S
Mn72 O98 2.094 . S
Mn73 O78 2.121 1_565 S
Mn73 N80 2.257 . S
Mn73 N89 2.282 . S
Mn73 O97 2.215 1_565 S
Mn73 O99 2.117 . S
C74 O96 1.234 . S
C74 O97 1.283 . S
C75 O87 1.281 . S
C75 O88 1.236 . S
C76 O98 1.240 . S
C76 O99 1.264 1_545 S
O77 Mn72 2.095 . S
O77 C86 1.250 . S
O78 Mn73 2.121 1_545 S
O78 C86 1.258 . S
C79 N80 1.326 . S
C79 C83 1.460 1_556 S
C79 H85 0.929 1_565 S
N80 Mn73 2.257 . S
N80 C79 1.326 . S
N80 C84 1.362 . S
C81 C82 1.258 . S
C81 C84 1.431 1_554 S
C81 C101 1.449 . S
C82 C81 1.258 . S
C82 C83 1.477 . S
C82 H102 0.931 . S
C83 C79 1.460 1_554 S
C83 C82 1.477 . S
C83 H103 0.930 . S
C84 N80 1.362 . S
C84 C81 1.431 1_556 S
C84 C94 1.476 . S
H85 C79 0.929 1_545 S
C86 O77 1.250 . S
C86 O78 1.258 . S
O87 Mn72 2.162 . S
O87 C75 1.281 . S
O88 Mn72 2.297 . S
O88 C75 1.236 . S
N89 Mn73 2.282 . S
N89 C90 1.328 . S
N89 C94 1.318 . S
C90 N89 1.328 . S
C90 C91 1.457 . S
C90 H95 0.929 . S
C91 C90 1.457 . S
C91 C92 1.291 . S
C91 H104 0.931 . S
C92 C91 1.291 . S
C92 C93 1.373 . S
C92 H105 0.929 . S
C93 C92 1.373 . S
C93 C94 1.396 . S
C93 C100 1.403 1_556 S
C94 C84 1.476 . S
C94 N89 1.318 . S
C94 C93 1.396 . S
H95 C90 0.929 . S
O96 Mn72 2.385 . S
O96 C74 1.234 . S
O97 Mn72 2.209 . S
O97 Mn73 2.215 1_545 S
O97 C74 1.283 . S
O98 Mn72 2.094 . S
O98 C76 1.240 . S
O99 Mn73 2.117 . S
O99 C76 1.264 1_565 S
C100 C93 1.403 1_554 S
C100 C101 1.399 . S
C100 H106 0.929 . S
C101 C81 1.449 . S
C101 C100 1.399 . S
C101 H107 0.930 . S
H102 C82 0.931 . S
H103 C83 0.930 . S
H104 C91 0.931 . S
H105 C92 0.929 . S
H106 C100 0.929 . S
H107 C101 0.930 . S
Mn108 O113 2.095 . S
Mn108 O123 2.162 . S
Mn108 O124 2.297 1_556 S
Mn108 O132 2.385 1_556 S
Mn108 O133 2.209 1_556 S
Mn108 O134 2.094 . S
Mn109 O114 2.121 . S
Mn109 N116 2.257 1_556 S
Mn109 N125 2.282 . S
Mn109 O133 2.215 1_556 S
Mn109 O135 2.117 . S
C110 O132 1.234 . S
C110 O133 1.283 . S
C111 O123 1.281 1_554 S
C111 O124 1.236 . S
C112 O134 1.240 . S
C112 O135 1.264 . S
O113 Mn108 2.095 . S
O113 C122 1.250 . S
O114 Mn109 2.121 . S
O114 C122 1.258 . S
C115 N116 1.326 . S
C115 C119 1.460 . S
C115 H121 0.929 . S
N116 Mn109 2.257 1_554 S
N116 C115 1.326 . S
N116 C120 1.362 . S
C117 C118 1.258 . S
C117 C120 1.431 . S
C117 C137 1.449 . S
C118 C117 1.258 . S
C118 C119 1.477 . S
C118 H138 0.931 . S
C119 C115 1.460 . S
C119 C118 1.477 . S
C119 H139 0.930 . S
C120 N116 1.362 . S
C120 C117 1.431 . S
C120 C130 1.476 . S
H121 C115 0.929 . S
C122 O113 1.250 . S
C122 O114 1.258 . S
O123 Mn108 2.162 . S
O123 C111 1.281 1_556 S
O124 Mn108 2.297 1_554 S
O124 C111 1.236 . S
N125 Mn109 2.282 . S
N125 C126 1.328 . S
N125 C130 1.318 1_556 S
C126 N125 1.328 . S
C126 C127 1.457 . S
C126 H131 0.929 . S
C127 C126 1.457 . S
C127 C128 1.291 1_556 S
C127 H140 0.931 . S
C128 C127 1.291 1_554 S
C128 C129 1.373 . S
C128 H141 0.929 . S
C129 C128 1.373 . S
C129 C130 1.396 . S
C129 C136 1.403 . S
C130 C120 1.476 . S
C130 N125 1.318 1_554 S
C130 C129 1.396 . S
H131 C126 0.929 . S
O132 Mn108 2.385 1_554 S
O132 C110 1.234 . S
O133 Mn108 2.209 1_554 S
O133 Mn109 2.215 1_554 S
O133 C110 1.283 . S
O134 Mn108 2.094 . S
O134 C112 1.240 . S
O135 Mn109 2.117 . S
O135 C112 1.264 . S
C136 C129 1.403 . S
C136 C137 1.399 . S
C136 H142 0.929 . S
C137 C117 1.449 . S
C137 C136 1.399 . S
C137 H143 0.930 . S
H138 C118 0.931 . S
H139 C119 0.930 . S
H140 C127 0.931 . S
H141 C128 0.929 . S
H142 C136 0.929 . S
H143 C137 0.930 . S
Mn144 O149 2.095 . S
Mn144 O159 2.162 . S
Mn144 O160 2.297 . S
Mn144 O168 2.385 . S
Mn144 O169 2.209 . S
Mn144 O170 2.094 1_554 S
Mn145 O150 2.121 1_455 S
Mn145 N152 2.257 . S
Mn145 N161 2.282 . S
Mn145 O169 2.215 1_455 S
Mn145 O171 2.117 1_554 S
C146 O168 1.234 . S
C146 O169 1.283 . S
C147 O159 1.281 . S
C147 O160 1.236 . S
C148 O170 1.240 . S
C148 O171 1.264 1_655 S
O149 Mn144 2.095 . S
O149 C158 1.250 . S
O150 Mn145 2.121 1_655 S
O150 C158 1.258 . S
C151 N152 1.326 . S
C151 C155 1.460 . S
C151 H157 0.929 1_455 S
N152 Mn145 2.257 . S
N152 C151 1.326 . S
N152 C156 1.362 . S
C153 C154 1.258 . S
C153 C156 1.431 . S
C153 C173 1.449 . S
C154 C153 1.258 . S
C154 C155 1.477 . S
C154 H174 0.931 . S
C155 C151 1.460 . S
C155 C154 1.477 . S
C155 H175 0.930 . S
C156 N152 1.362 . S
C156 C153 1.431 . S
C156 C166 1.476 . S
H157 C151 0.929 1_655 S
C158 O149 1.250 . S
C158 O150 1.258 . S
O159 Mn144 2.162 . S
O159 C147 1.281 . S
O160 Mn144 2.297 . S
O160 C147 1.236 . S
N161 Mn145 2.282 . S
N161 C162 1.328 . S
N161 C166 1.318 . S
C162 N161 1.328 . S
C162 C163 1.457 . S
C162 H167 0.929 . S
C163 C162 1.457 . S
C163 C164 1.291 . S
C163 H176 0.931 . S
C164 C163 1.291 . S
C164 C165 1.373 . S
C164 H177 0.929 . S
C165 C164 1.373 . S
C165 C166 1.396 . S
C165 C172 1.403 . S
C166 C156 1.476 . S
C166 N161 1.318 . S
C166 C165 1.396 . S
H167 C162 0.929 . S
O168 Mn144 2.385 . S
O168 C146 1.234 . S
O169 Mn144 2.209 . S
O169 Mn145 2.215 1_655 S
O169 C146 1.283 . S
O170 Mn144 2.094 1_556 S
O170 C148 1.240 . S
O171 Mn145 2.117 1_556 S
O171 C148 1.264 1_455 S
C172 C165 1.403 . S
C172 C173 1.399 . S
C172 H178 0.929 . S
C173 C153 1.449 . S
C173 C172 1.399 . S
C173 H179 0.930 . S
H174 C154 0.931 . S
H175 C155 0.930 . S
H176 C163 0.931 . S
H177 C164 0.929 . S
H178 C172 0.929 . S
H179 C173 0.930 . S
Mn180 O185 2.095 . S
Mn180 O195 2.162 . S
Mn180 O196 2.297 . S
Mn180 O204 2.385 . S
Mn180 O205 2.209 . S
Mn180 O206 2.094 . S
Mn181 O186 2.121 1_545 S
Mn181 N188 2.257 . S
Mn181 N197 2.282 . S
Mn181 O205 2.215 1_545 S
Mn181 O207 2.117 . S
C182 O204 1.234 . S
C182 O205 1.283 . S
C183 O195 1.281 . S
C183 O196 1.236 . S
C184 O206 1.240 . S
C184 O207 1.264 1_565 S
O185 Mn180 2.095 . S
O185 C194 1.250 . S
O186 Mn181 2.121 1_565 S
O186 C194 1.258 . S
C187 N188 1.326 . S
C187 C191 1.460 . S
C187 H193 0.929 1_545 S
N188 Mn181 2.257 . S
N188 C187 1.326 . S
N188 C192 1.362 . S
C189 C190 1.258 . S
C189 C192 1.431 . S
C189 C209 1.449 . S
C190 C189 1.258 . S
C190 C191 1.477 . S
C190 H210 0.931 . S
C191 C187 1.460 . S
C191 C190 1.477 . S
C191 H211 0.930 . S
C192 N188 1.362 . S
C192 C189 1.431 . S
C192 C202 1.476 . S
H193 C187 0.929 1_565 S
C194 O185 1.250 . S
C194 O186 1.258 . S
O195 Mn180 2.162 . S
O195 C183 1.281 . S
O196 Mn180 2.297 . S
O196 C183 1.236 . S
N197 Mn181 2.282 . S
N197 C198 1.328 . S
N197 C202 1.318 . S
C198 N197 1.328 . S
C198 C199 1.457 . S
C198 H203 0.929 . S
C199 C198 1.457 . S
C199 C200 1.291 . S
C199 H212 0.931 . S
C200 C199 1.291 . S
C200 C201 1.373 . S
C200 H213 0.929 . S
C201 C200 1.373 . S
C201 C202 1.396 . S
C201 C208 1.403 . S
C202 C192 1.476 . S
C202 N197 1.318 . S
C202 C201 1.396 . S
H203 C198 0.929 . S
O204 Mn180 2.385 . S
O204 C182 1.234 . S
O205 Mn180 2.209 . S
O205 Mn181 2.215 1_565 S
O205 C182 1.283 . S
O206 Mn180 2.094 . S
O206 C184 1.240 . S
O207 Mn181 2.117 . S
O207 C184 1.264 1_545 S
C208 C201 1.403 . S
C208 C209 1.399 . S
C208 H214 0.929 . S
C209 C189 1.449 . S
C209 C208 1.399 . S
C209 H215 0.930 . S
H210 C190 0.931 . S
H211 C191 0.930 . S
H212 C199 0.931 . S
H213 C200 0.929 . S
H214 C208 0.929 . S
H215 C209 0.930 . S
Mn216 O221 2.095 . S
Mn216 O231 2.162 . S
Mn216 O232 2.297 . S
Mn216 O240 2.385 . S
Mn216 O241 2.209 . S
Mn216 O242 2.094 . S
Mn217 O222 2.121 . S
Mn217 N224 2.257 . S
Mn217 N233 2.282 . S
Mn217 O241 2.215 . S
Mn217 O243 2.117 . S
C218 O240 1.234 . S
C218 O241 1.283 . S
C219 O231 1.281 . S
C219 O232 1.236 . S
C220 O242 1.240 . S
C220 O243 1.264 . S
O221 Mn216 2.095 . S
O221 C230 1.250 . S
O222 Mn217 2.121 . S
O222 C230 1.258 . S
C223 N224 1.326 . S
C223 C227 1.460 . S
C223 H229 0.929 . S
N224 Mn217 2.257 . S
N224 C223 1.326 . S
N224 C228 1.362 . S
C225 C226 1.258 . S
C225 C228 1.431 . S
C225 C245 1.449 . S
C226 C225 1.258 . S
C226 C227 1.477 . S
C226 H246 0.931 1_554 S
C227 C223 1.460 . S
C227 C226 1.477 . S
C227 H247 0.930 . S
C228 N224 1.362 . S
C228 C225 1.431 . S
C228 C238 1.476 . S
H229 C223 0.929 . S
C230 O221 1.250 . S
C230 O222 1.258 . S
O231 Mn216 2.162 . S
O231 C219 1.281 . S
O232 Mn216 2.297 . S
O232 C219 1.236 . S
N233 Mn217 2.282 . S
N233 C234 1.328 . S
N233 C238 1.318 . S
C234 N233 1.328 . S
C234 C235 1.457 . S
C234 H239 0.929 . S
C235 C234 1.457 . S
C235 C236 1.291 . S
C235 H248 0.931 . S
C236 C235 1.291 . S
C236 C237 1.373 . S
C236 H249 0.929 . S
C237 C236 1.373 . S
C237 C238 1.396 . S
C237 C244 1.403 . S
C238 C228 1.476 . S
C238 N233 1.318 . S
C238 C237 1.396 . S
H239 C234 0.929 . S
O240 Mn216 2.385 . S
O240 C218 1.234 . S
O241 Mn216 2.209 . S
O241 Mn217 2.215 . S
O241 C218 1.283 . S
O242 Mn216 2.094 . S
O242 C220 1.240 . S
O243 Mn217 2.117 . S
O243 C220 1.264 . S
C244 C237 1.403 . S
C244 C245 1.399 . S
C244 H250 0.929 . S
C245 C225 1.449 . S
C245 C244 1.399 . S
C245 H251 0.930 1_554 S
H246 C226 0.931 1_556 S
H247 C227 0.930 . S
H248 C235 0.931 . S
H249 C236 0.929 . S
H250 C244 0.929 . S
H251 C245 0.930 1_556 S
Mn252 O257 2.095 . S
Mn252 O267 2.162 . S
Mn252 O268 2.297 . S
Mn252 O276 2.385 . S
Mn252 O277 2.209 . S
Mn252 O278 2.094 . S
Mn253 O258 2.121 1_655 S
Mn253 N260 2.257 . S
Mn253 N269 2.282 . S
Mn253 O277 2.215 1_655 S
Mn253 O279 2.117 . S
C254 O276 1.234 . S
C254 O277 1.283 . S
C255 O267 1.281 . S
C255 O268 1.236 . S
C256 O278 1.240 . S
C256 O279 1.264 1_455 S
O257 Mn252 2.095 . S
O257 C266 1.250 . S
O258 Mn253 2.121 1_455 S
O258 C266 1.258 . S
C259 N260 1.326 . S
C259 C263 1.460 . S
C259 H265 0.929 1_655 S
N260 Mn253 2.257 . S
N260 C259 1.326 . S
N260 C264 1.362 . S
C261 C262 1.258 . S
C261 C264 1.431 . S
C261 C281 1.449 . S
C262 C261 1.258 . S
C262 C263 1.477 . S
C262 H282 0.931 . S
C263 C259 1.460 . S
C263 C262 1.477 . S
C263 H283 0.930 . S
C264 N260 1.362 . S
C264 C261 1.431 . S
C264 C274 1.476 . S
H265 C259 0.929 1_455 S
C266 O257 1.250 . S
C266 O258 1.258 . S
O267 Mn252 2.162 . S
O267 C255 1.281 . S
O268 Mn252 2.297 . S
O268 C255 1.236 . S
N269 Mn253 2.282 . S
N269 C270 1.328 . S
N269 C274 1.318 . S
C270 N269 1.328 . S
C270 C271 1.457 . S
C270 H275 0.929 . S
C271 C270 1.457 . S
C271 C272 1.291 . S
C271 H284 0.931 . S
C272 C271 1.291 . S
C272 C273 1.373 . S
C272 H285 0.929 . S
C273 C272 1.373 . S
C273 C274 1.396 . S
C273 C280 1.403 . S
C274 C264 1.476 . S
C274 N269 1.318 . S
C274 C273 1.396 . S
H275 C270 0.929 . S
O276 Mn252 2.385 . S
O276 C254 1.234 . S
O277 Mn252 2.209 . S
O277 Mn253 2.215 1_455 S
O277 C254 1.283 . S
O278 Mn252 2.094 . S
O278 C256 1.240 . S
O279 Mn253 2.117 . S
O279 C256 1.264 1_655 S
C280 C273 1.403 . S
C280 C281 1.399 . S
C280 H286 0.929 . S
C281 C261 1.449 . S
C281 C280 1.399 . S
C281 H287 0.930 . S
H282 C262 0.931 . S
H283 C263 0.930 . S
H284 C271 0.931 . S
H285 C272 0.929 . S
H286 C280 0.929 . S
H287 C281 0.930 . S
Mn288 O293 2.095 . S
Mn288 O303 2.162 . S
Mn288 O304 2.297 . S
Mn288 O312 2.385 . S
Mn288 O313 2.209 . S
Mn288 O314 2.094 . S
Mn289 O294 2.121 1_565 S
Mn289 N296 2.257 . S
Mn289 N305 2.282 . S
Mn289 O313 2.215 1_565 S
Mn289 O315 2.117 . S
C290 O312 1.234 . S
C290 O313 1.283 . S
C291 O303 1.281 . S
C291 O304 1.236 . S
C292 O314 1.240 . S
C292 O315 1.264 1_545 S
O293 Mn288 2.095 . S
O293 C302 1.250 . S
O294 Mn289 2.121 1_545 S
O294 C302 1.258 . S
C295 N296 1.326 . S
C295 C299 1.460 . S
C295 H301 0.929 1_565 S
N296 Mn289 2.257 . S
N296 C295 1.326 . S
N296 C300 1.362 . S
C297 C298 1.258 . S
C297 C300 1.431 . S
C297 C317 1.449 . S
C298 C297 1.258 . S
C298 C299 1.477 . S
C298 H318 0.931 . S
C299 C295 1.460 . S
C299 C298 1.477 . S
C299 H319 0.930 . S
C300 N296 1.362 . S
C300 C297 1.431 . S
C300 C310 1.476 . S
H301 C295 0.929 1_545 S
C302 O293 1.250 . S
C302 O294 1.258 . S
O303 Mn288 2.162 . S
O303 C291 1.281 . S
O304 Mn288 2.297 . S
O304 C291 1.236 . S
N305 Mn289 2.282 . S
N305 C306 1.328 . S
N305 C310 1.318 . S
C306 N305 1.328 . S
C306 C307 1.457 . S
C306 H311 0.929 . S
C307 C306 1.457 . S
C307 C308 1.291 . S
C307 H320 0.931 . S
C308 C307 1.291 . S
C308 C309 1.373 . S
C308 H321 0.929 . S
C309 C308 1.373 . S
C309 C310 1.396 . S
C309 C316 1.403 . S
C310 C300 1.476 . S
C310 N305 1.318 . S
C310 C309 1.396 . S
H311 C306 0.929 . S
O312 Mn288 2.385 . S
O312 C290 1.234 . S
O313 Mn288 2.209 . S
O313 Mn289 2.215 1_545 S
O313 C290 1.283 . S
O314 Mn288 2.094 . S
O314 C292 1.240 . S
O315 Mn289 2.117 . S
O315 C292 1.264 1_565 S
C316 C309 1.403 . S
C316 C317 1.399 . S
C316 H322 0.929 . S
C317 C297 1.449 . S
C317 C316 1.399 . S
C317 H323 0.930 . S
H318 C298 0.931 . S
H319 C299 0.930 . S
H320 C307 0.931 . S
H321 C308 0.929 . S
H322 C316 0.929 . S
H323 C317 0.930 . S
Mn324 O329 2.095 . S
Mn324 O339 2.162 . S
Mn324 O340 2.297 . S
Mn324 O348 2.385 . S
Mn324 O349 2.209 . S
Mn324 O350 2.094 1_556 S
Mn325 O330 2.121 . S
Mn325 N332 2.257 . S
Mn325 N341 2.282 . S
Mn325 O349 2.215 . S
Mn325 O351 2.117 1_556 S
C326 O348 1.234 . S
C326 O349 1.283 . S
C327 O339 1.281 . S
C327 O340 1.236 . S
C328 O350 1.240 . S
C328 O351 1.264 . S
O329 Mn324 2.095 . S
O329 C338 1.250 . S
O330 Mn325 2.121 . S
O330 C338 1.258 . S
C331 N332 1.326 . S
C331 C335 1.460 . S
C331 H337 0.929 . S
N332 Mn325 2.257 . S
N332 C331 1.326 . S
N332 C336 1.362 . S
C333 C334 1.258 . S
C333 C336 1.431 . S
C333 C353 1.449 . S
C334 C333 1.258 . S
C334 C335 1.477 . S
C334 H354 0.931 . S
C335 C331 1.460 . S
C335 C334 1.477 . S
C335 H355 0.930 . S
C336 N332 1.362 . S
C336 C333 1.431 . S
C336 C346 1.476 . S
H337 C331 0.929 . S
C338 O329 1.250 . S
C338 O330 1.258 . S
O339 Mn324 2.162 . S
O339 C327 1.281 . S
O340 Mn324 2.297 . S
O340 C327 1.236 . S
N341 Mn325 2.282 . S
N341 C342 1.328 . S
N341 C346 1.318 . S
C342 N341 1.328 . S
C342 C343 1.457 . S
C342 H347 0.929 . S
C343 C342 1.457 . S
C343 C344 1.291 . S
C343 H356 0.931 . S
C344 C343 1.291 . S
C344 C345 1.373 . S
C344 H357 0.929 . S
C345 C344 1.373 . S
C345 C346 1.396 . S
C345 C352 1.403 . S
C346 C336 1.476 . S
C346 N341 1.318 . S
C346 C345 1.396 . S
H347 C342 0.929 . S
O348 Mn324 2.385 . S
O348 C326 1.234 . S
O349 Mn324 2.209 . S
O349 Mn325 2.215 . S
O349 C326 1.283 . S
O350 Mn324 2.094 1_554 S
O350 C328 1.240 . S
O351 Mn325 2.117 1_554 S
O351 C328 1.264 . S
C352 C345 1.403 . S
C352 C353 1.399 . S
C352 H358 0.929 . S
C353 C333 1.449 . S
C353 C352 1.399 . S
C353 H359 0.930 . S
H354 C334 0.931 . S
H355 C335 0.930 . S
H356 C343 0.931 . S
H357 C344 0.929 . S
H358 C352 0.929 . S
H359 C353 0.930 . S
Mn360 O365 2.095 . S
Mn360 O375 2.162 . S
Mn360 O376 2.297 1_554 S
Mn360 O384 2.385 1_554 S
Mn360 O385 2.209 1_554 S
Mn360 O386 2.094 . S
Mn361 O366 2.121 1_455 S
Mn361 N368 2.257 1_554 S
Mn361 N377 2.282 . S
Mn361 O385 2.215 1_454 S
Mn361 O387 2.117 . S
C362 O384 1.234 . S
C362 O385 1.283 . S
C363 O375 1.281 1_556 S
C363 O376 1.236 . S
C364 O386 1.240 . S
C364 O387 1.264 1_655 S
O365 Mn360 2.095 . S
O365 C374 1.250 . S
O366 Mn361 2.121 1_655 S
O366 C374 1.258 . S
C367 N368 1.326 . S
C367 C371 1.460 . S
C367 H373 0.929 1_455 S
N368 Mn361 2.257 1_556 S
N368 C367 1.326 . S
N368 C372 1.362 . S
C369 C370 1.258 . S
C369 C372 1.431 . S
C369 C389 1.449 . S
C370 C369 1.258 . S
C370 C371 1.477 . S
C370 H390 0.931 . S
C371 C367 1.460 . S
C371 C370 1.477 . S
C371 H391 0.930 . S
C372 N368 1.362 . S
C372 C369 1.431 . S
C372 C382 1.476 . S
H373 C367 0.929 1_655 S
C374 O365 1.250 . S
C374 O366 1.258 . S
O375 Mn360 2.162 . S
O375 C363 1.281 1_554 S
O376 Mn360 2.297 1_556 S
O376 C363 1.236 . S
N377 Mn361 2.282 . S
N377 C378 1.328 . S
N377 C382 1.318 1_554 S
C378 N377 1.328 . S
C378 C379 1.457 . S
C378 H383 0.929 . S
C379 C378 1.457 . S
C379 C380 1.291 1_554 S
C379 H392 0.931 . S
C380 C379 1.291 1_556 S
C380 C381 1.373 . S
C380 H393 0.929 . S
C381 C380 1.373 . S
C381 C382 1.396 . S
C381 C388 1.403 . S
C382 C372 1.476 . S
C382 N377 1.318 1_556 S
C382 C381 1.396 . S
H383 C378 0.929 . S
O384 Mn360 2.385 1_556 S
O384 C362 1.234 . S
O385 Mn360 2.209 1_556 S
O385 Mn361 2.215 1_656 S
O385 C362 1.283 . S
O386 Mn360 2.094 . S
O386 C364 1.240 . S
O387 Mn361 2.117 . S
O387 C364 1.264 1_455 S
C388 C381 1.403 . S
C388 C389 1.399 . S
C388 H394 0.929 . S
C389 C369 1.449 . S
C389 C388 1.399 . S
C389 H395 0.930 . S
H390 C370 0.931 . S
H391 C371 0.930 . S
H392 C379 0.931 . S
H393 C380 0.929 . S
H394 C388 0.929 . S
H395 C389 0.930 . S
Mn396 O401 2.095 . S
Mn396 O411 2.162 . S
Mn396 O412 2.297 . S
Mn396 O420 2.385 . S
Mn396 O421 2.209 . S
Mn396 O422 2.094 . S
Mn397 O402 2.121 1_545 S
Mn397 N404 2.257 . S
Mn397 N413 2.282 . S
Mn397 O421 2.215 1_545 S
Mn397 O423 2.117 . S
C398 O420 1.234 . S
C398 O421 1.283 . S
C399 O411 1.281 . S
C399 O412 1.236 . S
C400 O422 1.240 . S
C400 O423 1.264 1_565 S
O401 Mn396 2.095 . S
O401 C410 1.250 . S
O402 Mn397 2.121 1_565 S
O402 C410 1.258 . S
C403 N404 1.326 . S
C403 C407 1.460 1_554 S
C403 H409 0.929 1_545 S
N404 Mn397 2.257 . S
N404 C403 1.326 . S
N404 C408 1.362 . S
C405 C406 1.258 . S
C405 C408 1.431 1_556 S
C405 C425 1.449 . S
C406 C405 1.258 . S
C406 C407 1.477 . S
C406 H426 0.931 . S
C407 C403 1.460 1_556 S
C407 C406 1.477 . S
C407 H427 0.930 . S
C408 N404 1.362 . S
C408 C405 1.431 1_554 S
C408 C418 1.476 . S
H409 C403 0.929 1_565 S
C410 O401 1.250 . S
C410 O402 1.258 . S
O411 Mn396 2.162 . S
O411 C399 1.281 . S
O412 Mn396 2.297 . S
O412 C399 1.236 . S
N413 Mn397 2.282 . S
N413 C414 1.328 . S
N413 C418 1.318 . S
C414 N413 1.328 . S
C414 C415 1.457 . S
C414 H419 0.929 . S
C415 C414 1.457 . S
C415 C416 1.291 . S
C415 H428 0.931 . S
C416 C415 1.291 . S
C416 C417 1.373 . S
C416 H429 0.929 . S
C417 C416 1.373 . S
C417 C418 1.396 . S
C417 C424 1.403 1_554 S
C418 C408 1.476 . S
C418 N413 1.318 . S
C418 C417 1.396 . S
H419 C414 0.929 . S
O420 Mn396 2.385 . S
O420 C398 1.234 . S
O421 Mn396 2.209 . S
O421 Mn397 2.215 1_565 S
O421 C398 1.283 . S
O422 Mn396 2.094 . S
O422 C400 1.240 . S
O423 Mn397 2.117 . S
O423 C400 1.264 1_545 S
C424 C417 1.403 1_556 S
C424 C425 1.399 . S
C424 H430 0.929 . S
C425 C405 1.449 . S
C425 C424 1.399 . S
C425 H431 0.930 . S
H426 C406 0.931 . S
H427 C407 0.930 . S
H428 C415 0.931 . S
H429 C416 0.929 . S
H430 C424 0.929 . S
H431 C425 0.930 . S
C328 C4 1.367 . S
C40 C364 1.367 1_455 S
C400 C76 1.367 1_565 S
C220 C112 1.367 . S
C256 C148 1.367 1_455 S
C292 C184 1.367 1_546 S
C230 C14 1.323 . S
C50 C266 1.323 . S
C302 C86 1.323 . S
C122 C338 1.323 . S
C374 C158 1.323 . S
C194 C410 1.323 . S
C326 C2 1.692 . S
C362 C38 1.692 1_655 S
C398 C74 1.692 1_564 S
C110 C218 1.692 . S
C254 C146 1.692 1_455 S
C182 C290 1.692 1_565 S
C3 C291 1.406 . S
C327 C39 1.406 . S
C363 C75 1.406 . S
C399 C111 1.406 . S
C219 C147 1.406 . S
C255 C183 1.406 . S
