# Generated by pormake.
# Topology sxc, (6)-cn, num edge types: 1
# Building blocks:
#     Node 0, Type 0, BuildingBlock: JUFBIX_clean_sbu_0, # of connection points: 6
#     Node 1, Type 0, BuildingBlock: JUFBIX_clean_sbu_0, # of connection points: 6
#     Node 2, Type 0, BuildingBlock: JUFBIX_clean_sbu_0, # of connection points: 6
#     Edge 3, Type (0, 0), BuildingBlock: KIFKEQ_clean_linker_1, # of connection points: 2
#     Edge 4, Type (0, 0), BuildingBlock: KIFKEQ_clean_linker_1, # of connection points: 2
#     Edge 5, Type (0, 0), BuildingBlock: KIFKEQ_clean_linker_1, # of connection points: 2
#     Edge 6, Type (0, 0), BuildingBlock: KIFKEQ_clean_linker_1, # of connection points: 2
#     Edge 7, Type (0, 0), BuildingBlock: KIFKEQ_clean_linker_1, # of connection points: 2
#     Edge 8, Type (0, 0), BuildingBlock: KIFKEQ_clean_linker_1, # of connection points: 2
#     Edge 9, Type (0, 0), BuildingBlock: KIFKEQ_clean_linker_1, # of connection points: 2
#     Edge 10, Type (0, 0), BuildingBlock: KIFKEQ_clean_linker_1, # of connection points: 2
#     Edge 11, Type (0, 0), BuildingBlock: KIFKEQ_clean_linker_1, # of connection points: 2
# Relax obj value: 0.472
# Max RMSD: 0.153
# Mean RMSD: 0.152
data_MOF--net-sxc--node1-JUFBIX_clean_sbu_0--edge1-KIFKEQ_clean_linker_1
_symmetry_space_group_name_H-M    P1
_symmetry_Int_Tables_number       1
_symmetry_cell_setting            triclinic
loop_
_symmetry_equiv_pos_as_xyz
'x, y, z'
_cell_length_a     15.569537
_cell_length_b     15.620486
_cell_length_c     45.541477
_cell_angle_alpha  93.623303
_cell_angle_beta   88.552983
_cell_angle_gamma 120.116
loop_
_atom_site_label
_atom_site_type_symbol
_atom_site_fract_x
_atom_site_fract_y
_atom_site_fract_z
_atom_type_partial_charge
Co0 Co 0.1392 1.01752 1.00389 0.0
C1 C 1.08742 1.05217 0.94981 0.0
Co2 Co 1.05138 0.09113 0.00735 0.0
C3 C 0.2359 0.91592 0.02138 0.0
C4 C 0.30005 0.99205 0.98236 0.0
N5 N 0.22272 0.96623 1.00084 0.0
N6 N 0.3193 0.91095 0.01707 0.0
C7 C 0.35902 0.95689 0.9921 0.0
H8 H 0.1848 0.8833 0.0393 0.0
H9 H 0.31511 1.0374 0.9638 0.0
C10 C 0.1036 1.058 0.06161 0.0
N11 N 0.97082 0.14563 0.01156 0.0
C12 C 0.99784 0.2386 0.0056 0.0
C13 C 0.89554 0.11858 0.03086 0.0
N14 N 0.94965 0.2747 0.02246 0.0
C15 C 0.88343 0.19869 0.03795 0.0
C16 C 0.93406 0.88032 0.00501 0.0
O17 O 0.14865 1.02356 0.04581 0.0
O18 O 1.05478 0.0902 0.04903 0.0
O19 O 0.93353 0.96161 0.00563 0.0
O20 O 1.01853 0.88476 1.00456 0.0
O21 O 1.04795 0.09299 0.96567 0.0
H22 H 0.86306 1.05126 0.04258 0.0
H23 H 1.06453 0.28519 0.99353 0.0
O24 O 0.12973 1.01234 0.96224 0.0
O25 O 0.25709 0.14685 1.00328 0.0
O26 O 0.1734 0.22375 0.00916 0.0
C27 C 0.2573 0.22826 0.00625 0.0
H28 H 0.42562 0.9645 0.98172 0.0
H29 H 0.84131 0.20525 0.05636 0.0
Co30 Co 0.21715 0.14573 0.33937 0.0
C31 C 0.12999 0.08901 0.28369 0.0
Co32 Co 1.05527 1.05809 0.34026 0.0
C33 C 0.41953 0.19944 0.34242 0.0
C34 C 0.39919 0.30296 0.31944 0.0
N35 N 0.35261 0.22663 0.33716 0.0
N36 N 0.50244 0.24858 0.32648 0.0
C37 C 0.49113 0.31574 0.31253 0.0
H38 H 0.40079 0.13223 0.35307 0.0
H39 H 0.36312 0.3358 0.30834 0.0
C40 C 0.14276 0.11427 0.39577 0.0
N41 N 0.92029 0.97453 0.3411 0.0
C42 C 0.85595 0.96169 0.3199 0.0
C43 C 0.86939 0.89692 0.35815 0.0
N44 N 0.76751 0.87825 0.32243 0.0
C45 C 0.77478 0.83808 0.34689 0.0
C46 C 0.14825 0.93981 0.33931 0.0
O47 O 0.22323 0.154 0.38129 0.0
O48 O 1.06044 0.06947 0.38191 0.0
O49 O 1.06691 0.94018 0.34057 0.0
O50 O 0.2279 1.02362 0.33813 0.0
O51 O 1.05082 1.04682 0.29841 0.0
H52 H 0.90041 0.88167 0.37677 0.0
H53 H 0.87392 1.01318 0.30283 0.0
O54 O 0.21199 0.13753 0.2974 0.0
O55 O 0.20486 0.26348 0.34058 0.0
O56 O 1.04275 0.17857 0.33988 0.0
C57 C 0.1229 0.26301 0.3403 0.0
H58 H 0.5381 0.35886 0.29496 0.0
H59 H 0.71608 0.77139 0.35596 0.0
Co60 Co 1.08568 1.01017 0.67007 0.0
C61 C 0.13446 0.10391 0.61735 0.0
Co62 Co 0.16168 0.17237 0.67561 0.0
C63 C 0.96635 0.81353 0.68596 0.0
C64 C 1.04997 0.81746 0.64768 0.0
N65 N 1.02558 0.87421 0.66561 0.0
N66 N 0.95625 0.7229 0.6825 0.0
C67 C 1.00603 0.7232 0.6579 0.0
H68 H 0.93417 0.8366 0.70392 0.0
H69 H 0.10177 0.84458 0.62967 0.0
C70 C 0.1138 0.0796 0.72858 0.0
N71 N 0.2233 0.30923 0.68258 0.0
C72 C 0.32241 0.36765 0.68428 0.0
C73 C 0.18808 0.35253 0.70224 0.0
N74 N 0.35062 0.43699 0.70667 0.0
C75 C 0.26652 0.43017 0.71746 0.0
C76 C 0.95259 0.08465 0.67243 0.0
O77 O 1.08269 1.00207 0.71178 0.0
O78 O 0.14986 0.16224 0.71711 0.0
O79 O 1.03454 0.16639 0.67383 0.0
O80 O 0.95607 1.00437 0.67111 0.0
O81 O 0.1739 0.1829 0.63409 0.0
H82 H 0.11175 0.31852 0.7094 0.0
H83 H 0.37357 0.34835 0.67347 0.0
O84 O 1.09019 1.02005 0.62875 0.0
O85 O 0.21238 1.01487 0.66905 0.0
O86 O 0.28995 0.17496 0.67726 0.0
C87 C 0.29392 0.09553 0.6732 0.0
H88 H 1.01363 0.66158 0.64887 0.0
H89 H 0.26125 0.46644 0.73792 0.0
H90 H 0.99542 0.43069 0.99161 0.0
H91 H 1.03119 0.34319 0.07624 0.0
H92 H 0.14088 0.59379 1.00152 0.0
H93 H 0.17835 0.50711 0.08632 0.0
H94 H 0.2914 0.87325 0.07482 0.0
H95 H 0.21844 0.70221 0.08785 0.0
H96 H 0.33405 0.63524 0.00819 0.0
H97 H 0.40157 0.8043 0.99428 0.0
C98 C 1.03223 0.44839 0.01282 0.0
C99 C 1.00242 0.37572 0.03319 0.0
C100 C 0.11699 0.53986 0.01817 0.0
C101 C 0.17326 0.55982 0.044 0.0
C102 C 0.13757 0.49147 0.0659 0.0
C103 C 1.05225 0.39939 0.06047 0.0
C104 C 0.30621 0.82328 0.06093 0.0
C105 C 0.34322 0.84812 0.03234 0.0
C106 C 0.26522 0.72554 0.06859 0.0
C107 C 0.26525 0.65559 0.04785 0.0
C108 C 0.33018 0.68838 0.02385 0.0
C109 C 0.36891 0.78548 0.01586 0.0
H110 H 0.61444 0.19823 0.35575 0.0
H111 H 0.48477 0.17274 0.27086 0.0
H112 H 0.63088 1.0538 0.342 0.0
H113 H 0.50034 1.02668 0.25691 0.0
H114 H 0.75444 0.91098 0.26537 0.0
H115 H 0.65574 0.9857 0.25413 0.0
H116 H 0.47686 0.86216 0.33059 0.0
H117 H 0.57876 0.79259 0.34279 0.0
C118 C 0.59364 0.16395 0.33372 0.0
C119 C 0.54936 0.19631 0.31433 0.0
C120 C 0.59972 0.07979 0.32613 0.0
C121 C 0.56133 1.02667 0.29902 0.0
C122 C 0.52715 0.06502 0.27825 0.0
C123 C 0.52102 0.14972 0.28592 0.0
C124 C 0.69026 0.89488 0.27882 0.0
C125 C 0.67963 0.85513 0.30644 0.0
C126 C 0.63312 0.93689 0.27216 0.0
C127 C 0.56418 0.93491 0.2928 0.0
C128 C 0.53297 0.86736 0.31506 0.0
C129 C 0.59171 0.82756 0.32211 0.0
H130 H 0.83098 0.53105 0.66623 0.0
H131 H 0.95144 0.73765 0.7416 0.0
H132 H 0.68138 0.42932 0.69378 0.0
H133 H 0.79978 0.63856 0.76881 0.0
H134 H 0.49913 0.6214 0.72066 0.0
H135 H 0.66659 0.66201 0.73455 0.0
H136 H 0.56377 0.35154 0.74321 0.0
H137 H 0.39542 0.3123 0.73086 0.0
C138 C 0.82802 0.55127 0.68927 0.0
C139 C 0.89926 0.64411 0.70144 0.0
C140 C 0.74258 0.49291 0.7052 0.0
C141 C 0.72831 0.52886 0.73294 0.0
C142 C 0.80887 0.61048 0.74728 0.0
C143 C 0.89488 0.66761 0.73156 0.0
C144 C 0.51173 0.56317 0.72726 0.0
C145 C 0.43678 0.46422 0.72396 0.0
C146 C 0.60691 0.58586 0.73542 0.0
C147 C 0.62753 0.50924 0.73962 0.0
C148 C 0.54931 0.41147 0.74024 0.0
C149 C 0.45385 0.38926 0.73285 0.0
H150 H 0.92289 0.24196 0.66613 0.0
H151 H 0.76052 0.92855 0.67903 0.0
H152 H 0.76844 0.24521 0.66596 0.0
H153 H 0.60534 0.93189 0.68032 0.0
H154 H 0.32687 0.94163 0.65732 0.0
H155 H 0.48155 0.93875 0.65667 0.0
H156 H 0.63766 0.24487 0.68995 0.0
H157 H 0.48278 0.24848 0.68894 0.0
C158 C 0.8541 0.17341 0.66916 0.0
C159 C 0.85541 0.08483 0.67247 0.0
C160 C 0.76445 0.17538 0.66933 0.0
C161 C 0.67175 0.08897 0.6732 0.0
C162 C 0.67345 1.00029 0.67669 0.0
C163 C 0.76329 0.99819 0.67616 0.0
C164 C 0.39419 1.00867 0.66445 0.0
C165 C 0.39107 0.09534 0.6732 0.0
C166 C 0.48389 1.00685 0.66434 0.0
C167 C 0.57472 0.09136 0.67335 0.0
C168 C 0.57118 0.17814 0.68227 0.0
C169 C 0.48141 0.18025 0.68198 0.0
H170 H 0.89655 0.68902 0.01287 0.0
H171 H 0.74659 0.85088 0.99735 0.0
H172 H 0.7361 0.53592 0.01435 0.0
H173 H 0.58723 0.69863 0.99745 0.0
H174 H 0.29782 0.4212 0.02087 0.0
H175 H 0.45859 0.57476 0.02169 0.0
H176 H 0.59996 0.40878 0.99065 0.0
H177 H 0.44101 0.25637 0.99129 0.0
C178 C 0.82958 0.69209 0.00946 0.0
C179 C 0.836 0.78355 0.00498 0.0
C180 C 0.73648 0.60346 0.01012 0.0
C181 C 0.64586 0.60237 0.00601 0.0
C182 C 0.65319 0.69431 1.00134 0.0
C183 C 0.74586 0.78266 1.00099 0.0
C184 C 0.36328 0.41751 0.01426 0.0
C185 C 0.35511 0.32513 0.0061 0.0
C186 C 0.45643 0.50637 0.0145 0.0
C187 C 0.54509 0.50668 0.00623 0.0
C188 C 0.53581 0.4138 0.99783 0.0
C189 C 0.44329 0.3253 0.99794 0.0
H190 H 0.96794 0.29976 0.331 0.0
H191 H 0.28199 0.45148 0.34952 0.0
H192 H 0.97513 0.45952 0.32966 0.0
H193 H 0.28913 0.61033 0.34957 0.0
H194 H 0.30049 0.89766 0.32719 0.0
H195 H 0.29286 0.73715 0.32631 0.0
H196 H 0.98533 0.59855 0.35238 0.0
H197 H 0.99222 0.75715 0.35174 0.0
C198 C 1.03852 0.367 0.3351 0.0
C199 C 0.12415 0.36103 0.34037 0.0
C200 C 1.04293 0.45986 0.33453 0.0
C201 C 0.13304 0.551 0.33951 0.0
C202 C 0.21826 0.54411 0.34498 0.0
C203 C 0.21396 0.45164 0.34524 0.0
C204 C 0.23119 0.83291 0.33271 0.0
C205 C 0.14708 0.84192 0.33948 0.0
C206 C 0.22667 0.73981 0.33244 0.0
C207 C 0.13822 0.65181 0.33932 0.0
C208 C 1.05468 0.66194 0.34631 0.0
C209 C 1.05889 0.75438 0.34621 0.0
H210 H 0.96606 1.01156 0.24813 0.0
H211 H 0.286 0.15118 0.24556 0.0
H212 H 0.96015 1.00223 0.19449 0.0
H213 H 0.27982 0.1421 0.19183 0.0
H214 H 0.21369 1.00959 0.09574 0.0
H215 H 0.22034 1.01546 0.14945 0.0
H216 H 1.01022 0.11953 0.15465 0.0
H217 H 1.0031 0.11342 0.1011 0.0
C218 C 1.03514 1.04018 0.23613 0.0
C219 C 0.12654 0.0823 0.25112 0.0
C220 C 1.03173 1.03528 0.2054 0.0
C221 C 0.11953 0.07162 0.18893 0.0
C222 C 0.21087 0.1127 0.2039 0.0
C223 C 0.21439 0.11841 0.23467 0.0
C224 C 0.16889 1.03368 0.10835 0.0
C225 C 0.10783 1.06099 0.09414 0.0
C226 C 0.1731 1.03749 0.1391 0.0
C227 C 0.11569 0.06782 0.15627 0.0
C228 C 1.05444 0.09475 0.14203 0.0
C229 C 1.0508 0.09171 0.11134 0.0
H230 H 0.98496 1.01899 0.43212 0.0
H231 H 0.30277 0.21686 0.43316 0.0
H232 H 0.98561 1.02017 0.48556 0.0
H233 H 0.30317 0.21738 0.48692 0.0
H234 H 0.23597 0.26795 0.58495 0.0
H235 H 0.24037 0.27385 0.53133 0.0
H236 H 1.04826 0.95612 0.523 0.0
H237 H 1.04325 0.94997 0.5763 0.0
C238 C 1.05504 0.06297 0.44374 0.0
C239 C 0.14391 0.11767 0.42834 0.0
C240 C 1.0554 0.06315 0.47439 0.0
C241 C 0.14449 0.11843 0.49044 0.0
C242 C 0.23328 0.17458 0.47514 0.0
C243 C 0.23307 0.17385 0.44437 0.0
C244 C 0.19473 0.19941 0.57165 0.0
C245 C 0.13894 0.10856 0.58492 0.0
C246 C 0.19773 0.20278 0.54097 0.0
C247 C 0.14428 0.11551 0.52298 0.0
C248 C 1.08913 1.02479 0.53628 0.0
C249 C 1.0867 1.02129 0.56685 0.0
H250 H 1.05125 0.91567 0.76025 0.0
H251 H 0.16267 0.23112 0.77017 0.0
H252 H 1.04074 0.90675 0.81365 0.0
H253 H 0.15287 0.22219 0.82353 0.0
H254 H 1.02227 0.14779 0.91615 0.0
H255 H 1.02587 0.15253 0.86261 0.0
H256 H 0.15546 0.96401 0.85648 0.0
H257 H 0.15135 0.95856 0.90991 0.0
C258 C 1.07351 0.98305 0.77381 0.0
C259 C 0.1077 0.07402 0.76096 0.0
C260 C 1.06792 0.97802 0.8044 0.0
C261 C 0.09586 0.06375 0.82281 0.0
C262 C 0.12966 0.15464 0.80994 0.0
C263 C 0.13582 0.1598 0.77936 0.0
C264 C 1.05111 0.10698 0.90338 0.0
C265 C 1.08652 1.05281 0.91731 0.0
C266 C 1.0537 0.1102 0.87272 0.0
C267 C 1.09108 1.05876 0.85533 0.0
C268 C 0.12528 1.00358 0.86925 0.0
C269 C 0.12334 1.00091 0.89989 0.0
loop_
_geom_bond_atom_site_label_1
_geom_bond_atom_site_label_2
_geom_bond_distance
_geom_bond_site_symmetry_2
_ccdc_geom_bond_type
Co0 N5 2.057 1_554 S
Co0 O17 2.021 . S
Co0 O20 2.062 1_455 S
Co0 O24 2.117 1_554 S
Co0 O25 2.020 1_565 S
C1 O21 1.259 1_455 S
C1 O24 1.258 1_545 S
Co2 N11 2.057 . S
Co2 O18 2.116 1_655 S
Co2 O19 2.020 1_545 S
Co2 O21 2.021 1_554 S
Co2 O26 2.062 1_655 S
C3 N5 1.316 1_554 S
C3 N6 1.343 1_554 S
C3 H8 0.931 . S
C4 N5 1.375 . S
C4 C7 1.350 . S
C4 H9 0.930 . S
N5 Co0 2.057 1_556 S
N5 C3 1.316 1_556 S
N5 C4 1.375 . S
N6 C3 1.343 1_556 S
N6 C7 1.380 . S
C7 C4 1.350 . S
C7 N6 1.380 . S
C7 H28 0.931 . S
H8 C3 0.931 . S
H9 C4 0.930 . S
C10 O17 1.259 1_545 S
C10 O18 1.260 . S
N11 Co2 2.057 . S
N11 C12 1.316 1_554 S
N11 C13 1.375 . S
C12 N11 1.316 1_556 S
C12 N14 1.347 1_556 S
C12 H23 0.931 . S
C13 N11 1.375 . S
C13 C15 1.350 . S
C13 H22 0.930 . S
N14 C12 1.347 1_554 S
N14 C15 1.373 . S
C15 C13 1.350 . S
C15 N14 1.373 . S
C15 H29 0.931 . S
C16 O19 1.256 . S
C16 O20 1.255 . S
O17 Co0 2.021 . S
O17 C10 1.259 1_565 S
O18 Co2 2.116 1_455 S
O18 C10 1.260 . S
O19 Co2 2.020 1_565 S
O19 C16 1.256 . S
O20 Co0 2.062 1_655 S
O20 C16 1.255 . S
O21 C1 1.259 1_655 S
O21 Co2 2.021 1_556 S
H22 C13 0.930 . S
H23 C12 0.931 . S
O24 Co0 2.117 1_556 S
O24 C1 1.258 1_565 S
O25 Co0 2.020 1_545 S
O25 C27 1.256 . S
O26 Co2 2.062 1_455 S
O26 C27 1.255 . S
C27 O25 1.256 . S
C27 O26 1.255 . S
H28 C7 0.931 . S
H29 C15 0.931 . S
Co30 N35 2.057 . S
Co30 O47 2.021 . S
Co30 O50 2.062 1_545 S
Co30 O54 2.117 . S
Co30 O55 2.020 . S
C31 O51 1.259 1_445 S
C31 O54 1.258 . S
Co32 N41 2.057 . S
Co32 O48 2.117 1_565 S
Co32 O49 2.020 . S
Co32 O51 2.021 . S
Co32 O56 2.060 1_565 S
C33 N35 1.316 . S
C33 N36 1.347 . S
C33 H38 0.931 . S
C34 N35 1.375 . S
C34 C37 1.350 . S
C34 H39 0.930 . S
N35 Co30 2.057 . S
N35 C33 1.316 . S
N35 C34 1.375 . S
N36 C33 1.347 . S
N36 C37 1.373 . S
C37 C34 1.350 . S
C37 N36 1.373 . S
C37 H58 0.931 . S
H38 C33 0.931 . S
H39 C34 0.930 . S
C40 O47 1.259 . S
C40 O48 1.258 1_455 S
N41 Co32 2.057 . S
N41 C42 1.316 . S
N41 C43 1.375 . S
C42 N41 1.316 . S
C42 N44 1.347 . S
C42 H53 0.931 . S
C43 N41 1.375 . S
C43 C45 1.350 . S
C43 H52 0.930 . S
N44 C42 1.347 . S
N44 C45 1.373 . S
C45 C43 1.350 . S
C45 N44 1.373 . S
C45 H59 0.931 . S
C46 O49 1.256 1_455 S
C46 O50 1.255 . S
O47 Co30 2.021 . S
O47 C40 1.259 . S
O48 Co32 2.117 1_545 S
O48 C40 1.258 1_655 S
O49 Co32 2.020 . S
O49 C46 1.256 1_655 S
O50 Co30 2.062 1_565 S
O50 C46 1.255 . S
O51 C31 1.259 1_665 S
O51 Co32 2.021 . S
H52 C43 0.930 . S
H53 C42 0.931 . S
O54 Co30 2.117 . S
O54 C31 1.258 . S
O55 Co30 2.020 . S
O55 C57 1.256 . S
O56 Co32 2.060 1_545 S
O56 C57 1.250 1_655 S
C57 O55 1.256 . S
C57 O56 1.250 1_455 S
H58 C37 0.931 . S
H59 C45 0.931 . S
Co60 N65 2.057 . S
Co60 O77 2.021 . S
Co60 O80 2.062 . S
Co60 O84 2.116 1_655 S
Co60 O85 2.020 1_655 S
C61 O81 1.259 . S
C61 O84 1.261 1_545 S
Co62 N71 2.057 . S
Co62 O78 2.117 . S
Co62 O79 2.020 1_455 S
Co62 O81 2.021 . S
Co62 O86 2.062 . S
C63 N65 1.316 . S
C63 N66 1.347 . S
C63 H68 0.931 . S
C64 N65 1.375 . S
C64 C67 1.350 . S
C64 H69 0.930 . S
N65 Co60 2.057 . S
N65 C63 1.316 . S
N65 C64 1.375 . S
N66 C63 1.347 . S
N66 C67 1.373 . S
C67 C64 1.350 . S
C67 N66 1.373 . S
C67 H88 0.931 . S
H68 C63 0.931 . S
H69 C64 0.930 . S
C70 O77 1.259 1_445 S
C70 O78 1.258 . S
N71 Co62 2.057 . S
N71 C72 1.316 . S
N71 C73 1.375 . S
C72 N71 1.316 . S
C72 N74 1.347 . S
C72 H83 0.931 . S
C73 N71 1.375 . S
C73 C75 1.350 . S
C73 H82 0.930 . S
N74 C72 1.347 . S
N74 C75 1.373 . S
C75 C73 1.350 . S
C75 N74 1.373 . S
C75 H89 0.931 . S
C76 O79 1.256 . S
C76 O80 1.255 1_545 S
O77 Co60 2.021 . S
O77 C70 1.259 1_665 S
O78 Co62 2.117 . S
O78 C70 1.258 . S
O79 Co62 2.020 1_655 S
O79 C76 1.256 . S
O80 Co60 2.062 . S
O80 C76 1.255 1_565 S
O81 C61 1.259 . S
O81 Co62 2.021 . S
H82 C73 0.930 . S
H83 C72 0.931 . S
O84 Co60 2.116 1_455 S
O84 C61 1.261 1_565 S
O85 Co60 2.020 1_455 S
O85 C87 1.256 . S
O86 Co62 2.062 . S
O86 C87 1.255 1_545 S
C87 O85 1.256 . S
C87 O86 1.255 1_565 S
H88 C67 0.931 . S
H89 C75 0.931 . S
H90 C98 0.950 1_455 S
H91 C103 0.950 . S
H92 C100 0.950 . S
H93 C102 0.950 . S
H94 C104 0.950 . S
H95 C106 0.950 1_655 S
H96 C108 0.950 . S
H97 C109 0.950 . S
C98 H90 0.950 1_655 S
C98 C99 1.386 1_556 S
C98 C100 1.391 1_655 S
C99 C98 1.386 1_554 S
C99 C103 1.393 . S
C100 H92 0.950 . S
C100 C98 1.391 1_455 S
C100 C101 1.400 1_456 S
C101 C100 1.400 1_654 S
C101 C102 1.398 . S
C101 C107 1.491 1_655 S
C102 H93 0.950 . S
C102 C101 1.398 . S
C102 C103 1.391 . S
C103 H91 0.950 . S
C103 C99 1.393 . S
C103 C102 1.391 . S
C104 H94 0.950 . S
C104 C105 1.386 . S
C104 C106 1.391 . S
C105 C104 1.386 . S
C105 C109 1.393 1_554 S
C106 H95 0.950 1_455 S
C106 C104 1.391 . S
C106 C107 1.400 . S
C107 C101 1.491 1_455 S
C107 C106 1.400 . S
C107 C108 1.398 1_554 S
C108 H96 0.950 . S
C108 C107 1.398 1_556 S
C108 C109 1.391 . S
C109 H97 0.950 . S
C109 C105 1.393 1_556 S
C109 C108 1.391 . S
H110 C118 0.950 . S
H111 C123 0.950 . S
H112 C120 0.950 . S
H113 C122 0.950 . S
H114 C124 0.950 . S
H115 C126 0.950 . S
H116 C128 0.950 . S
H117 C129 0.950 1_545 S
C118 H110 0.950 . S
C118 C119 1.386 . S
C118 C120 1.391 . S
C119 C118 1.386 . S
C119 C123 1.393 . S
C120 H112 0.950 . S
C120 C118 1.391 . S
C120 C121 1.400 . S
C121 C120 1.400 . S
C121 C122 1.398 1_545 S
C121 C127 1.491 1_545 S
C122 H113 0.950 . S
C122 C121 1.398 1_565 S
C122 C123 1.391 1_565 S
C123 H111 0.950 . S
C123 C119 1.393 . S
C123 C122 1.391 1_545 S
C124 H114 0.950 . S
C124 C125 1.386 . S
C124 C126 1.391 . S
C125 C124 1.386 . S
C125 C129 1.393 . S
C126 H115 0.950 . S
C126 C124 1.391 . S
C126 C127 1.400 . S
C127 C121 1.491 1_565 S
C127 C126 1.400 . S
C127 C128 1.398 1_565 S
C128 H116 0.950 . S
C128 C127 1.398 1_545 S
C128 C129 1.391 1_545 S
C129 H117 0.950 1_565 S
C129 C125 1.393 . S
C129 C128 1.391 1_565 S
H130 C138 0.950 . S
H131 C143 0.950 . S
H132 C140 0.950 . S
H133 C142 0.950 . S
H134 C144 0.950 . S
H135 C146 0.950 . S
H136 C148 0.950 . S
H137 C149 0.950 . S
C138 H130 0.950 . S
C138 C139 1.386 . S
C138 C140 1.391 . S
C139 C138 1.386 . S
C139 C143 1.393 . S
C140 H132 0.950 . S
C140 C138 1.391 . S
C140 C141 1.400 . S
C141 C140 1.400 . S
C141 C142 1.398 . S
C141 C147 1.491 . S
C142 H133 0.950 . S
C142 C141 1.398 . S
C142 C143 1.391 . S
C143 H131 0.950 . S
C143 C139 1.393 . S
C143 C142 1.391 . S
C144 H134 0.950 . S
C144 C145 1.386 . S
C144 C146 1.391 . S
C145 C144 1.386 . S
C145 C149 1.393 . S
C146 H135 0.950 . S
C146 C144 1.391 . S
C146 C147 1.400 . S
C147 C141 1.491 . S
C147 C146 1.400 . S
C147 C148 1.398 . S
C148 H136 0.950 . S
C148 C147 1.398 . S
C148 C149 1.391 . S
C149 H137 0.950 . S
C149 C145 1.393 . S
C149 C148 1.391 . S
H150 C158 0.950 . S
H151 C163 0.950 . S
H152 C160 0.950 . S
H153 C162 0.950 . S
H154 C164 0.950 . S
H155 C166 0.950 . S
H156 C168 0.950 . S
H157 C169 0.950 . S
C158 H150 0.950 . S
C158 C159 1.386 . S
C158 C160 1.391 . S
C159 C158 1.386 . S
C159 C163 1.393 1_545 S
C160 H152 0.950 . S
C160 C158 1.391 . S
C160 C161 1.400 . S
C161 C160 1.400 . S
C161 C162 1.398 1_545 S
C161 C167 1.491 . S
C162 H153 0.950 . S
C162 C161 1.398 1_565 S
C162 C163 1.391 . S
C163 H151 0.950 . S
C163 C159 1.393 1_565 S
C163 C162 1.391 . S
C164 H154 0.950 . S
C164 C165 1.386 . S
C164 C166 1.391 . S
C165 C164 1.386 . S
C165 C169 1.393 1_565 S
C166 H155 0.950 . S
C166 C164 1.391 . S
C166 C167 1.400 1_565 S
C167 C161 1.491 . S
C167 C166 1.400 1_545 S
C167 C168 1.398 . S
C168 H156 0.950 . S
C168 C167 1.398 . S
C168 C169 1.391 . S
C169 H157 0.950 . S
C169 C165 1.393 1_545 S
C169 C168 1.391 . S
H170 C178 0.950 . S
H171 C183 0.950 1_556 S
H172 C180 0.950 . S
H173 C182 0.950 1_556 S
H174 C184 0.955 . S
H175 C186 0.951 . S
H176 C188 0.950 . S
H177 C189 0.950 . S
C178 H170 0.950 . S
C178 C179 1.386 . S
C178 C180 1.391 . S
C179 C178 1.386 . S
C179 C183 1.393 . S
C180 H172 0.950 . S
C180 C178 1.391 . S
C180 C181 1.400 . S
C181 C180 1.400 . S
C181 C182 1.398 . S
C181 C187 1.491 . S
C182 H173 0.950 1_554 S
C182 C181 1.398 . S
C182 C183 1.391 . S
C183 H171 0.950 1_554 S
C183 C179 1.393 . S
C183 C182 1.391 . S
C184 H174 0.955 . S
C184 C185 1.380 1_556 S
C184 C186 1.392 . S
C185 C184 1.380 1_554 S
C185 C189 1.393 . S
C186 H175 0.951 . S
C186 C184 1.392 . S
C186 C187 1.399 1_556 S
C187 C181 1.491 . S
C187 C186 1.399 1_554 S
C187 C188 1.398 . S
C188 H176 0.950 . S
C188 C187 1.398 . S
C188 C189 1.391 . S
C189 H177 0.950 . S
C189 C185 1.393 . S
C189 C188 1.391 . S
H190 C198 0.950 . S
H191 C203 0.950 . S
H192 C200 0.950 . S
H193 C202 0.950 . S
H194 C204 0.950 . S
H195 C206 0.950 . S
H196 C208 0.950 . S
H197 C209 0.950 . S
C198 H190 0.950 . S
C198 C199 1.386 1_655 S
C198 C200 1.391 . S
C199 C198 1.386 1_455 S
C199 C203 1.393 . S
C200 H192 0.950 . S
C200 C198 1.391 . S
C200 C201 1.400 1_655 S
C201 C200 1.400 1_455 S
C201 C202 1.398 . S
C201 C207 1.491 . S
C202 H193 0.950 . S
C202 C201 1.398 . S
C202 C203 1.391 . S
C203 H191 0.950 . S
C203 C199 1.393 . S
C203 C202 1.391 . S
C204 H194 0.950 . S
C204 C205 1.386 . S
C204 C206 1.391 . S
C205 C204 1.386 . S
C205 C209 1.393 1_455 S
C206 H195 0.950 . S
C206 C204 1.391 . S
C206 C207 1.400 . S
C207 C201 1.491 . S
C207 C206 1.400 . S
C207 C208 1.398 1_455 S
C208 H196 0.950 . S
C208 C207 1.398 1_655 S
C208 C209 1.391 . S
C209 H197 0.950 . S
C209 C205 1.393 1_655 S
C209 C208 1.391 . S
H210 C218 0.950 1_655 S
H211 C223 0.950 . S
H212 C220 0.949 1_655 S
H213 C222 0.950 . S
H214 C224 0.950 . S
H215 C226 0.950 . S
H216 C228 0.950 . S
H217 C229 0.950 . S
C218 H210 0.950 1_455 S
C218 C219 1.386 . S
C218 C220 1.391 . S
C219 C218 1.386 . S
C219 C223 1.393 1_545 S
C220 H212 0.949 1_455 S
C220 C218 1.391 . S
C220 C221 1.401 . S
C221 C220 1.401 . S
C221 C222 1.398 1_545 S
C221 C227 1.491 . S
C222 H213 0.950 . S
C222 C221 1.398 1_565 S
C222 C223 1.391 . S
C223 H211 0.950 . S
C223 C219 1.393 1_565 S
C223 C222 1.391 . S
C224 H214 0.950 . S
C224 C225 1.386 1_565 S
C224 C226 1.391 . S
C225 C224 1.386 1_545 S
C225 C229 1.393 1_455 S
C226 H215 0.950 . S
C226 C224 1.391 . S
C226 C227 1.400 1_565 S
C227 C221 1.491 . S
C227 C226 1.400 1_545 S
C227 C228 1.398 1_455 S
C228 H216 0.950 . S
C228 C227 1.398 1_655 S
C228 C229 1.391 . S
C229 H217 0.950 . S
C229 C225 1.393 1_655 S
C229 C228 1.391 . S
H230 C238 0.950 . S
H231 C243 0.950 . S
H232 C240 0.950 . S
H233 C242 0.950 . S
H234 C244 0.950 . S
H235 C246 0.950 . S
H236 C248 0.950 . S
H237 C249 0.950 . S
C238 H230 0.950 . S
C238 C239 1.386 1_665 S
C238 C240 1.391 . S
C239 C238 1.386 1_445 S
C239 C243 1.393 . S
C240 H232 0.950 . S
C240 C238 1.391 . S
C240 C241 1.400 1_665 S
C241 C240 1.400 1_445 S
C241 C242 1.398 . S
C241 C247 1.491 . S
C242 H233 0.950 . S
C242 C241 1.398 . S
C242 C243 1.391 . S
C243 H231 0.950 . S
C243 C239 1.393 . S
C243 C242 1.391 . S
C244 H234 0.950 . S
C244 C245 1.386 . S
C244 C246 1.391 . S
C245 C244 1.386 . S
C245 C249 1.393 1_445 S
C246 H235 0.950 . S
C246 C244 1.391 . S
C246 C247 1.400 . S
C247 C241 1.491 . S
C247 C246 1.400 . S
C247 C248 1.398 1_445 S
C248 H236 0.950 . S
C248 C247 1.398 1_665 S
C248 C249 1.391 . S
C249 H237 0.950 . S
C249 C245 1.393 1_665 S
C249 C248 1.391 . S
H250 C258 0.950 . S
H251 C263 0.950 . S
H252 C260 0.950 . S
H253 C262 0.950 . S
H254 C264 0.950 . S
H255 C266 0.950 . S
H256 C268 0.950 . S
H257 C269 0.950 . S
C258 H250 0.950 . S
C258 C259 1.386 1_565 S
C258 C260 1.391 . S
C259 C258 1.386 1_545 S
C259 C263 1.393 1_455 S
C260 H252 0.950 . S
C260 C258 1.391 . S
C260 C261 1.400 1_565 S
C261 C260 1.400 1_545 S
C261 C262 1.398 1_455 S
C261 C267 1.491 . S
C262 H253 0.950 . S
C262 C261 1.398 1_655 S
C262 C263 1.391 . S
C263 H251 0.950 . S
C263 C259 1.393 1_655 S
C263 C262 1.391 . S
C264 H254 0.950 . S
C264 C265 1.386 1_655 S
C264 C266 1.391 . S
C265 C264 1.386 1_455 S
C265 C269 1.393 1_545 S
C266 H255 0.950 . S
C266 C264 1.391 . S
C266 C267 1.400 1_655 S
C267 C261 1.491 . S
C267 C266 1.400 1_455 S
C267 C268 1.398 1_545 S
C268 H256 0.950 . S
C268 C267 1.398 1_565 S
C268 C269 1.391 . S
C269 H257 0.950 . S
C269 C265 1.393 1_565 S
C269 C268 1.391 . S
C99 N14 0.425 . S
C105 N6 0.420 1_554 S
C119 N36 0.410 . S
C125 N44 0.410 . S
C139 N66 0.405 . S
C145 N74 0.405 . S
C159 C76 2.676 . S
C165 C87 2.676 . S
C179 C16 2.678 . S
C185 C27 2.678 . S
C199 C57 2.680 . S
C205 C46 2.680 . S
C219 C31 1.501 . S
C225 C10 1.498 . S
C239 C40 1.498 . S
C245 C61 1.494 . S
C259 C70 1.500 . S
C265 C1 1.500 . S
