# Generated by pormake.
# Topology umg, (4)-cn, num edge types: 1
# Building blocks:
#     Node 0, Type 0, BuildingBlock: GALJAG_clean_sbu_0, # of connection points: 4
#     Node 1, Type 0, BuildingBlock: GALJAG_clean_sbu_0, # of connection points: 4
#     Node 2, Type 0, BuildingBlock: GALJAG_clean_sbu_0, # of connection points: 4
#     Node 3, Type 0, BuildingBlock: GALJAG_clean_sbu_0, # of connection points: 4
#     Node 4, Type 0, BuildingBlock: GALJAG_clean_sbu_0, # of connection points: 4
#     Node 5, Type 0, BuildingBlock: GALJAG_clean_sbu_0, # of connection points: 4
#     Node 6, Type 0, BuildingBlock: GALJAG_clean_sbu_0, # of connection points: 4
#     Node 7, Type 0, BuildingBlock: GALJAG_clean_sbu_0, # of connection points: 4
#     Node 8, Type 0, BuildingBlock: GALJAG_clean_sbu_0, # of connection points: 4
#     Node 9, Type 0, BuildingBlock: GALJAG_clean_sbu_0, # of connection points: 4
#     Node 10, Type 0, BuildingBlock: GALJAG_clean_sbu_0, # of connection points: 4
#     Node 11, Type 0, BuildingBlock: GALJAG_clean_sbu_0, # of connection points: 4
#     Edge 12, Type (0, 0), BuildingBlock: EZIPEK_clean_linker_0, # of connection points: 2
#     Edge 13, Type (0, 0), BuildingBlock: EZIPEK_clean_linker_0, # of connection points: 2
#     Edge 14, Type (0, 0), BuildingBlock: EZIPEK_clean_linker_0, # of connection points: 2
#     Edge 15, Type (0, 0), BuildingBlock: EZIPEK_clean_linker_0, # of connection points: 2
#     Edge 16, Type (0, 0), BuildingBlock: EZIPEK_clean_linker_0, # of connection points: 2
#     Edge 17, Type (0, 0), BuildingBlock: EZIPEK_clean_linker_0, # of connection points: 2
#     Edge 18, Type (0, 0), BuildingBlock: EZIPEK_clean_linker_0, # of connection points: 2
#     Edge 19, Type (0, 0), BuildingBlock: EZIPEK_clean_linker_0, # of connection points: 2
#     Edge 20, Type (0, 0), BuildingBlock: EZIPEK_clean_linker_0, # of connection points: 2
#     Edge 21, Type (0, 0), BuildingBlock: EZIPEK_clean_linker_0, # of connection points: 2
#     Edge 22, Type (0, 0), BuildingBlock: EZIPEK_clean_linker_0, # of connection points: 2
#     Edge 23, Type (0, 0), BuildingBlock: EZIPEK_clean_linker_0, # of connection points: 2
#     Edge 24, Type (0, 0), BuildingBlock: EZIPEK_clean_linker_0, # of connection points: 2
#     Edge 25, Type (0, 0), BuildingBlock: EZIPEK_clean_linker_0, # of connection points: 2
#     Edge 26, Type (0, 0), BuildingBlock: EZIPEK_clean_linker_0, # of connection points: 2
#     Edge 27, Type (0, 0), BuildingBlock: EZIPEK_clean_linker_0, # of connection points: 2
#     Edge 28, Type (0, 0), BuildingBlock: EZIPEK_clean_linker_0, # of connection points: 2
#     Edge 29, Type (0, 0), BuildingBlock: EZIPEK_clean_linker_0, # of connection points: 2
#     Edge 30, Type (0, 0), BuildingBlock: EZIPEK_clean_linker_0, # of connection points: 2
#     Edge 31, Type (0, 0), BuildingBlock: EZIPEK_clean_linker_0, # of connection points: 2
#     Edge 32, Type (0, 0), BuildingBlock: EZIPEK_clean_linker_0, # of connection points: 2
#     Edge 33, Type (0, 0), BuildingBlock: EZIPEK_clean_linker_0, # of connection points: 2
#     Edge 34, Type (0, 0), BuildingBlock: EZIPEK_clean_linker_0, # of connection points: 2
#     Edge 35, Type (0, 0), BuildingBlock: EZIPEK_clean_linker_0, # of connection points: 2
# Relax obj value: 0.078
# Max RMSD: 0.314
# Mean RMSD: 0.210
data_MOF--net-umg--node1-GALJAG_clean_sbu_0--edge1-EZIPEK_clean_linker_0
_symmetry_space_group_name_H-M    P1
_symmetry_Int_Tables_number       1
_symmetry_cell_setting            triclinic
loop_
_symmetry_equiv_pos_as_xyz
'x, y, z'
_cell_length_a     21.068561
_cell_length_b     21.047953
_cell_length_c     62.857242
_cell_angle_alpha  87.707934
_cell_angle_beta   87.883612
_cell_angle_gamma 120.57814
loop_
_atom_site_label
_atom_site_type_symbol
_atom_site_fract_x
_atom_site_fract_y
_atom_site_fract_z
_atom_type_partial_charge
In0 In 0.32429 0.64259 0.08208 0.0
O1 O 0.37983 0.71122 0.05055 0.0
O2 O 0.28717 0.60058 0.05073 0.0
C3 C 0.35328 0.69466 0.12039 0.0
C4 C 0.41344 0.58709 0.08119 0.0
C5 C 0.18535 0.61243 0.0833 0.0
O6 O 0.37783 0.7384 0.10362 0.0
O7 O 0.31499 0.62639 0.11745 0.0
O8 O 0.20144 0.56261 0.08711 0.0
O9 O 0.23971 0.67801 0.07979 0.0
C10 C 0.33696 0.65708 0.03986 0.0
O11 O 0.34373 0.54536 0.08424 0.0
O12 O 0.43716 0.65575 0.07937 0.0
In13 In 0.65398 0.29911 0.40676 0.0
O14 O 0.77282 0.32402 0.4012 0.0
O15 O 0.75523 0.41203 0.40899 0.0
C16 C 0.56274 0.15276 0.40483 0.0
C17 C 0.62453 0.34892 0.37109 0.0
C18 C 0.63135 0.30503 0.44835 0.0
O19 O 0.63221 0.18262 0.4021 0.0
O20 O 0.53967 0.19654 0.40814 0.0
O21 O 0.60942 0.3341 0.43466 0.0
O22 O 0.66346 0.27298 0.44103 0.0
C23 C 0.80087 0.39167 0.40471 0.0
O24 O 0.60382 0.35887 0.38916 0.0
O25 O 0.65857 0.31404 0.37122 0.0
In26 In 0.44086 0.68353 0.73881 0.0
O27 O 0.32695 0.63562 0.72565 0.0
O28 O 0.42275 0.67828 0.70386 0.0
C29 C 0.42447 0.67571 0.78121 0.0
C30 C 0.49982 0.83016 0.73363 0.0
C31 C 0.48347 0.58291 0.73649 0.0
O32 O 0.36926 0.6454 0.76991 0.0
O33 O 0.48681 0.70976 0.77108 0.0
O34 O 0.52938 0.65181 0.73385 0.0
O35 O 0.41685 0.56549 0.73948 0.0
C36 C 0.35344 0.64855 0.7065 0.0
O37 O 0.53717 0.8002 0.72884 0.0
O38 O 0.4337 0.78644 0.74043 0.0
In39 In 0.7288 0.45192 0.07581 0.0
O40 O 0.67964 0.3467 0.05763 0.0
O41 O 0.73409 0.45227 0.03997 0.0
C42 C 0.71116 0.42202 0.118 0.0
C43 C 0.62762 0.49261 0.07448 0.0
C44 C 0.87621 0.51369 0.07564 0.0
O45 O 0.70077 0.37277 0.10525 0.0
O46 O 0.72775 0.48399 0.10929 0.0
O47 O 0.84633 0.55284 0.07418 0.0
O48 O 0.83217 0.44477 0.0761 0.0
C49 C 0.70031 0.38265 0.03958 0.0
O50 O 0.69568 0.53837 0.06971 0.0
O51 O 0.61094 0.42664 0.07907 0.0
In52 In 0.2579 0.69051 0.41147 0.0
O53 O 0.14255 0.67009 0.40623 0.0
O54 O 0.15667 0.57656 0.41046 0.0
C55 C 0.35215 0.83774 0.40911 0.0
C56 C 0.30394 0.66156 0.37498 0.0
C57 C 0.26185 0.66646 0.45358 0.0
O58 O 0.28339 0.81027 0.40749 0.0
O59 O 0.37251 0.79127 0.4119 0.0
O60 O 0.30112 0.65626 0.43996 0.0
O61 O 0.21937 0.68571 0.44581 0.0
C62 C 0.11328 0.60036 0.40735 0.0
O63 O 0.31031 0.63521 0.39273 0.0
O64 O 0.27485 0.70105 0.37589 0.0
In65 In 0.63833 0.28203 0.73987 0.0
O66 O 0.54778 0.16141 0.73778 0.0
O67 O 0.6595 0.18697 0.73988 0.0
C68 C 0.58114 0.3704 0.73869 0.0
C69 C 0.69563 0.3184 0.69983 0.0
C70 C 0.67927 0.30128 0.77997 0.0
O71 O 0.54035 0.30062 0.74129 0.0
O72 O 0.64979 0.39496 0.7369 0.0
O73 O 0.72677 0.32659 0.76421 0.0
O74 O 0.61256 0.26705 0.77542 0.0
C75 C 0.59274 0.13823 0.73814 0.0
O76 O 0.73742 0.34053 0.71524 0.0
O77 O 0.62731 0.27879 0.70481 0.0
In78 In 0.36304 0.68168 0.58174 0.0
O79 O 0.46047 0.66193 0.57914 0.0
O80 O 0.3511 0.56844 0.58462 0.0
C81 C 0.413 0.82751 0.58241 0.0
C82 C 0.30782 0.64797 0.62204 0.0
C83 C 0.31193 0.65882 0.54282 0.0
O84 O 0.45652 0.80254 0.58246 0.0
O85 O 0.34549 0.77949 0.58164 0.0
O86 O 0.26847 0.63515 0.55946 0.0
O87 O 0.37997 0.69321 0.54587 0.0
C88 C 0.41942 0.59231 0.5821 0.0
O89 O 0.26539 0.62518 0.60683 0.0
O90 O 0.376 0.68693 0.61679 0.0
In91 In 0.72982 0.37186 0.91071 0.0
O92 O 0.85178 0.45512 0.91171 0.0
O93 O 0.81612 0.33913 0.91176 0.0
C94 C 0.62966 0.4131 0.90972 0.0
C95 C 0.70127 0.33582 0.95226 0.0
C96 C 0.72069 0.34521 0.86962 0.0
O97 O 0.69865 0.46033 0.90827 0.0
O98 O 0.61208 0.34584 0.91161 0.0
O99 O 0.68774 0.29257 0.88408 0.0
O100 O 0.75888 0.40942 0.87613 0.0
C101 C 0.86908 0.40533 0.91207 0.0
O102 O 0.67935 0.2856 0.939 0.0
O103 O 0.73716 0.40202 0.94442 0.0
In104 In 0.31853 0.74601 0.25138 0.0
O105 O 0.34216 0.86426 0.25446 0.0
O106 O 0.43317 0.84647 0.25156 0.0
C107 C 0.17121 0.65591 0.25356 0.0
C108 C 0.33964 0.69557 0.28853 0.0
C109 C 0.34804 0.73865 0.20985 0.0
O110 O 0.20079 0.72523 0.25468 0.0
O111 O 0.21558 0.63259 0.25143 0.0
O112 O 0.38192 0.72738 0.22438 0.0
O113 O 0.29956 0.75273 0.21645 0.0
C114 C 0.41161 0.89205 0.25342 0.0
O115 O 0.35462 0.67681 0.27101 0.0
O116 O 0.31556 0.73941 0.2871 0.0
In117 In 0.56757 0.28586 0.58172 0.0
O118 O 0.68003 0.33693 0.59611 0.0
O119 O 0.58202 0.28962 0.61702 0.0
C120 C 0.59452 0.30111 0.53953 0.0
C121 C 0.51732 0.38037 0.58411 0.0
C122 C 0.50927 0.13815 0.58538 0.0
O123 O 0.64658 0.32806 0.55197 0.0
O124 O 0.53003 0.26737 0.54836 0.0
O125 O 0.47027 0.16708 0.58911 0.0
O126 O 0.57667 0.1833 0.58035 0.0
C127 C 0.65159 0.32167 0.61505 0.0
O128 O 0.47515 0.31138 0.58824 0.0
O129 O 0.58399 0.40113 0.57924 0.0
In130 In 0.32471 0.56183 0.9109 0.0
O131 O 0.20858 0.45838 0.91461 0.0
O132 O 0.2192 0.5644 0.90968 0.0
C133 C 0.41576 0.50823 0.91088 0.0
C134 C 0.34308 0.61333 0.94987 0.0
C135 C 0.36509 0.62324 0.87134 0.0
O136 O 0.3463 0.46613 0.91061 0.0
O137 O 0.43865 0.57657 0.91123 0.0
O138 O 0.3864 0.6626 0.8872 0.0
O139 O 0.32386 0.55465 0.87554 0.0
C140 C 0.1768 0.49544 0.91254 0.0
O141 O 0.33579 0.64815 0.93421 0.0
O142 O 0.34466 0.55649 0.94529 0.0
In143 In 0.71119 0.35339 0.25076 0.0
O144 O 0.6898 0.2356 0.25574 0.0
O145 O 0.59819 0.2502 0.25066 0.0
C146 C 0.85749 0.44648 0.25288 0.0
C147 C 0.66187 0.38415 0.28624 0.0
C148 C 0.70089 0.37473 0.2093 0.0
O149 O 0.82807 0.37724 0.25646 0.0
O150 O 0.81351 0.46821 0.24829 0.0
O151 O 0.67473 0.39826 0.2233 0.0
O152 O 0.73226 0.34126 0.21617 0.0
C153 C 0.62096 0.20588 0.25387 0.0
O154 O 0.64967 0.40209 0.26807 0.0
O155 O 0.69884 0.35228 0.2863 0.0
C156 C 0.37528 0.70351 0.97928 0.0
C157 C 0.34094 0.63019 0.97248 0.0
C158 C 0.32585 0.58264 0.00919 0.0
C159 C 0.34688 0.65309 0.01655 0.0
N160 N 0.3794 0.77967 0.00773 0.0
N161 N 0.25711 0.50007 0.9828 0.0
C162 C 0.36843 0.71376 0.0014 0.0
C163 C 0.30801 0.5697 0.98796 0.0
N164 N 0.4164 0.76297 0.9651 0.0
N165 N 0.3246 0.52818 0.02211 0.0
H166 H 0.23538 0.48877 0.96785 0.0
H167 H 0.22923 0.45595 0.99429 0.0
H168 H 0.34382 0.53662 0.03738 0.0
H169 H 0.31364 0.47783 0.01647 0.0
H170 H 0.44763 0.81676 0.96983 0.0
H171 H 0.42542 0.75806 0.94901 0.0
H172 H 0.38835 0.82279 -0.00306 0.0
H173 H 0.37244 0.78887 0.02357 0.0
C174 C 0.67447 0.44454 0.34133 0.0
C175 C 0.61403 0.37808 0.35076 0.0
C176 C 0.56593 0.34049 0.31586 0.0
C177 C 0.63481 0.39729 0.30648 0.0
N178 N 0.74958 0.51085 0.30878 0.0
N179 N 0.49544 0.26907 0.3485 0.0
C180 C 0.6867 0.45307 0.31877 0.0
C181 C 0.55636 0.32898 0.33846 0.0
N182 N 0.72131 0.49705 0.35415 0.0
N183 N 0.51194 0.29615 0.30302 0.0
H184 H 0.48729 0.26202 0.36512 0.0
H185 H 0.45384 0.22653 0.34066 0.0
H186 H 0.51918 0.30461 0.28641 0.0
H187 H 0.45907 0.25477 0.30858 0.0
H188 H 0.76547 0.54846 0.34855 0.0
H189 H 0.71219 0.49047 0.37075 0.0
H190 H 0.7937 0.55028 0.31667 0.0
H191 H 0.75754 0.51851 0.29216 0.0
C192 C 0.29062 0.56808 0.67731 0.0
C193 C 0.30822 0.63238 0.68798 0.0
C194 C 0.28391 0.68653 0.6565 0.0
C195 C 0.28236 0.62998 0.64473 0.0
N196 N 0.2729 0.51166 0.64333 0.0
N197 N 0.31101 0.74755 0.68984 0.0
C198 C 0.28002 0.56785 0.65512 0.0
C199 C 0.29962 0.68927 0.67834 0.0
N200 N 0.28649 0.50883 0.68843 0.0
N201 N 0.27301 0.73851 0.64635 0.0
H202 H 0.31989 0.74875 0.70608 0.0
H203 H 0.31267 0.79477 0.68347 0.0
H204 H 0.26129 0.73623 0.6303 0.0
H205 H 0.27057 0.78039 0.65388 0.0
H206 H 0.27056 0.45835 0.68208 0.0
H207 H 0.29416 0.50884 0.70475 0.0
H208 H 0.2784 0.46795 0.64922 0.0
H209 H 0.26246 0.50981 0.62719 0.0
C210 C 0.73051 0.32166 0.01077 0.0
C211 C 0.6846 0.34725 0.01905 0.0
C212 C 0.62927 0.33346 0.98467 0.0
C213 C 0.68402 0.32087 0.97554 0.0
N214 N 0.78492 0.2995 0.97919 0.0
N215 N 0.58711 0.37384 0.01494 0.0
C216 C 0.7331 0.31222 0.9885 0.0
C217 C 0.63206 0.35085 0.00637 0.0
N218 N 0.77255 0.3081 0.02417 0.0
N219 N 0.57533 0.32941 0.97236 0.0
H220 H 0.58506 0.38281 0.03111 0.0
H221 H 0.55372 0.38645 0.00609 0.0
H222 H 0.57234 0.31615 0.95646 0.0
H223 H 0.53051 0.33312 0.97814 0.0
H224 H 0.80302 0.28397 0.01961 0.0
H225 H 0.77255 0.31597 0.04045 0.0
H226 H 0.82837 0.30141 0.98707 0.0
H227 H 0.78589 0.28956 0.96308 0.0
C228 C 0.29084 0.60206 0.31936 0.0
C229 C 0.3491 0.66977 0.30968 0.0
C230 C 0.39706 0.71035 0.3445 0.0
C231 C 0.33041 0.65086 0.35417 0.0
N232 N 0.21925 0.53368 0.35223 0.0
N233 N 0.46405 0.78354 0.31175 0.0
C234 C 0.2798 0.59351 0.34202 0.0
C235 C 0.40537 0.72166 0.32189 0.0
N236 N 0.245 0.54793 0.30677 0.0
N237 N 0.45058 0.75685 0.35714 0.0
H238 H 0.47218 0.79077 0.29514 0.0
H239 H 0.50382 0.8278 0.31953 0.0
H240 H 0.4445 0.74836 0.37376 0.0
H241 H 0.50235 0.79998 0.3514 0.0
H242 H 0.20268 0.49576 0.31256 0.0
H243 H 0.25277 0.55402 0.29016 0.0
H244 H 0.17577 0.49259 0.34454 0.0
H245 H 0.2124 0.52589 0.36886 0.0
C246 C 0.72644 0.40032 0.66717 0.0
C247 C 0.72175 0.33661 0.67717 0.0
C248 C 0.70707 0.28181 0.64282 0.0
C249 C 0.69499 0.33737 0.63399 0.0
N250 N 0.70042 0.4538 0.63609 0.0
N251 N 0.71681 0.2206 0.67513 0.0
C252 C 0.70875 0.39908 0.64553 0.0
C253 C 0.71694 0.27936 0.66501 0.0
N254 N 0.74505 0.46026 0.67873 0.0
N255 N 0.70666 0.23059 0.63005 0.0
H256 H 0.72705 0.21977 0.69124 0.0
H257 H 0.70491 0.17244 0.66792 0.0
H258 H 0.69912 0.23175 0.61375 0.0
H259 H 0.71915 0.19075 0.63508 0.0
H260 H 0.75338 0.51048 0.67232 0.0
H261 H 0.75772 0.46108 0.69466 0.0
H262 H 0.70153 0.49652 0.64416 0.0
H263 H 0.69029 0.45508 0.61999 0.0
C264 C 0.37496 0.68009 0.179 0.0
C265 C 0.36285 0.73594 0.18667 0.0
C266 C 0.35261 0.77238 0.14993 0.0
C267 C 0.36835 0.71903 0.14236 0.0
N268 N 0.41999 0.64154 0.14915 0.0
N269 N 0.36525 0.85064 0.17849 0.0
C270 C 0.38824 0.67954 0.15676 0.0
C271 C 0.35977 0.78712 0.17183 0.0
N272 N 0.3683 0.62413 0.19247 0.0
N273 N 0.32651 0.80585 0.13675 0.0
H274 H 0.37355 0.86532 0.1942 0.0
H275 H 0.37009 0.89261 0.16794 0.0
H276 H 0.31897 0.7961 0.12067 0.0
H277 H 0.30623 0.83859 0.14228 0.0
H278 H 0.36961 0.57863 0.18704 0.0
H279 H 0.35317 0.61811 0.2087 0.0
H280 H 0.44111 0.61677 0.15904 0.0
H281 H 0.43291 0.64237 0.13291 0.0
C282 C 0.57785 0.23734 0.48369 0.0
C283 C 0.61897 0.30579 0.4715 0.0
C284 C 0.64212 0.37257 0.504 0.0
C285 C 0.60701 0.30385 0.51623 0.0
N286 N 0.55514 0.17159 0.51815 0.0
N287 N 0.70008 0.43835 0.46982 0.0
C288 C 0.57858 0.23634 0.5062 0.0
C289 C 0.65369 0.37355 0.48155 0.0
N290 N 0.53624 0.17353 0.47376 0.0
N291 N 0.66213 0.43651 0.51371 0.0
H292 H 0.70962 0.44144 0.45331 0.0
H293 H 0.73354 0.48815 0.47661 0.0
H294 H 0.65558 0.43815 0.53017 0.0
H295 H 0.68002 0.48708 0.50534 0.0
H296 H 0.4994 0.12302 0.48194 0.0
H297 H 0.53288 0.17239 0.45724 0.0
H298 H 0.54055 0.12172 0.51155 0.0
H299 H 0.55748 0.16906 0.53468 0.0
C300 C 0.37192 0.69574 0.81484 0.0
C301 C 0.41706 0.67222 0.8047 0.0
C302 C 0.44596 0.6409 0.83952 0.0
C303 C 0.39159 0.65272 0.84925 0.0
N304 N 0.30021 0.68863 0.84689 0.0
N305 N 0.49465 0.61837 0.80716 0.0
C306 C 0.35429 0.68015 0.83715 0.0
C307 C 0.45447 0.64475 0.81696 0.0
N308 N 0.34815 0.73514 0.80325 0.0
N309 N 0.48947 0.62614 0.85195 0.0
H310 H 0.50374 0.62083 0.79069 0.0
H311 H 0.51479 0.5889 0.81528 0.0
H312 H 0.48432 0.62306 0.86859 0.0
H313 H 0.53497 0.62392 0.84595 0.0
H314 H 0.32096 0.75977 0.8101 0.0
H315 H 0.36191 0.74947 0.78696 0.0
H316 H 0.26472 0.69972 0.83857 0.0
H317 H 0.28822 0.68052 0.86337 0.0
C318 C 0.76214 0.46477 0.15355 0.0
C319 C 0.70665 0.40994 0.14153 0.0
C320 C 0.64701 0.33107 0.17435 0.0
C321 C 0.69887 0.38841 0.1863 0.0
N322 N 0.79613 0.51517 0.18803 0.0
N323 N 0.58632 0.29936 0.14124 0.0
C324 C 0.75312 0.4571 0.17613 0.0
C325 C 0.64628 0.34517 0.1521 0.0
N326 N 0.82563 0.52211 0.1436 0.0
N327 N 0.59875 0.26307 0.18423 0.0
H328 H 0.58152 0.30976 0.1252 0.0
H329 H 0.53789 0.25537 0.14865 0.0
H330 H 0.59544 0.25171 0.20068 0.0
H331 H 0.56561 0.21677 0.17592 0.0
H332 H 0.87112 0.55804 0.15178 0.0
H333 H 0.83677 0.53006 0.12715 0.0
H334 H 0.83099 0.5689 0.18144 0.0
H335 H 0.79216 0.51127 0.20467 0.0
C336 C 0.2733 0.70726 0.51238 0.0
C337 C 0.28637 0.65232 0.52106 0.0
C338 C 0.26835 0.59799 0.48646 0.0
C339 C 0.26735 0.65993 0.47699 0.0
N340 N 0.28117 0.78061 0.48085 0.0
N341 N 0.30137 0.54752 0.5166 0.0
C342 C 0.27225 0.71618 0.48993 0.0
C343 C 0.28527 0.59815 0.50817 0.0
N344 N 0.2623 0.75132 0.52558 0.0
N345 N 0.24982 0.53763 0.47507 0.0
H346 H 0.30982 0.54352 0.53274 0.0
H347 H 0.31039 0.51244 0.5074 0.0
H348 H 0.23358 0.53386 0.45948 0.0
H349 H 0.24302 0.4883 0.48176 0.0
H350 H 0.24503 0.78735 0.52034 0.0
H351 H 0.26341 0.74668 0.54213 0.0
H352 H 0.29379 0.82643 0.48946 0.0
H353 H 0.28372 0.79202 0.46449 0.0
C354 C 0.68977 0.37643 0.83401 0.0
C355 C 0.71245 0.33438 0.84647 0.0
C356 C 0.71796 0.27269 0.81467 0.0
C357 C 0.69872 0.3173 0.80223 0.0
N358 N 0.68131 0.42165 0.79877 0.0
N359 N 0.7619 0.25314 0.84805 0.0
C360 C 0.68931 0.3723 0.81154 0.0
C361 C 0.73024 0.28522 0.83665 0.0
N362 N 0.66515 0.41771 0.84369 0.0
N363 N 0.72283 0.21731 0.80556 0.0
H364 H 0.77262 0.26165 0.86407 0.0
H365 H 0.78327 0.22307 0.84124 0.0
H366 H 0.71802 0.20936 0.78929 0.0
H367 H 0.72755 0.17692 0.81425 0.0
H368 H 0.63921 0.44171 0.83574 0.0
H369 H 0.66439 0.423 0.86007 0.0
H370 H 0.6822 0.46806 0.80429 0.0
H371 H 0.68071 0.42021 0.7822 0.0
C372 C 0.97969 0.5248 0.09697 0.0
C373 C 0.95637 0.54493 0.07818 0.0
C374 C 0.08423 0.61065 0.06265 0.0
C375 C 0.10774 0.59407 0.08193 0.0
N376 N 0.08116 0.55111 0.11904 0.0
N377 N 0.98748 0.61615 0.0444 0.0
C378 C 0.05637 0.55565 0.09955 0.0
C379 C 0.00914 0.59146 0.06152 0.0
N380 N 0.92878 0.47519 0.11227 0.0
N381 N 0.13227 0.64022 0.04493 0.0
H382 H 0.93249 0.59929 0.04215 0.0
H383 H 0.02452 0.65725 0.03311 0.0
H384 H 0.18728 0.65394 0.04483 0.0
H385 H 0.1163 0.64539 0.02979 0.0
H386 H 0.94235 0.45165 0.12488 0.0
H387 H 0.87211 0.45325 0.11176 0.0
H388 H 0.04716 0.53101 0.13307 0.0
H389 H 0.13712 0.5744 0.12163 0.0
C390 C 0.46225 0.04116 0.38881 0.0
C391 C 0.51144 0.07176 0.40529 0.0
C392 C 0.45228 0.95018 0.42496 0.0
C393 C 0.40595 0.91857 0.40788 0.0
N394 N 0.37623 0.9307 0.3718 0.0
N395 N 0.56053 0.05522 0.43775 0.0
C396 C 0.41314 0.96322 0.38935 0.0
C397 C 0.50885 0.02608 0.42292 0.0
N398 N 0.46251 0.08667 0.37261 0.0
N399 N 0.43994 0.90848 0.44359 0.0
H400 H 0.60042 0.11123 0.43755 0.0
H401 H 0.56732 0.0233 0.4495 0.0
H402 H 0.3997 0.85264 0.44577 0.0
H403 H 0.46534 0.93024 0.45755 0.0
H404 H 0.42214 0.0693 0.36159 0.0
H405 H 0.50103 0.14323 0.37084 0.0
H406 H 0.38528 0.95912 0.35702 0.0
H407 H 0.34104 0.87375 0.37137 0.0
C408 C 0.56154 0.46339 0.71847 0.0
C409 C 0.55149 0.42086 0.73774 0.0
C410 C 0.48924 0.47819 0.75536 0.0
C411 C 0.50579 0.52622 0.73673 0.0
N412 N 0.56023 0.56726 0.70072 0.0
N413 N 0.5158 0.39434 0.77535 0.0
C414 C 0.54306 0.51982 0.71836 0.0
C415 C 0.51754 0.42959 0.75637 0.0
N416 N 0.58589 0.4475 0.70008 0.0
N417 N 0.44619 0.4785 0.77214 0.0
H418 H 0.53501 0.35754 0.77674 0.0
H419 H 0.50089 0.40588 0.79004 0.0
H420 H 0.42712 0.51531 0.77283 0.0
H421 H 0.42478 0.43863 0.78489 0.0
H422 H 0.58775 0.47104 0.68502 0.0
H423 H 0.59864 0.40573 0.69956 0.0
H424 H 0.5953 0.5719 0.68788 0.0
H425 H 0.54214 0.60493 0.69924 0.0
C426 C 0.49655 0.02164 0.60222 0.0
C427 C 0.47886 0.05717 0.58577 0.0
C428 C 0.42495 0.94433 0.56628 0.0
C429 C 0.43824 0.90727 0.58335 0.0
N430 N 0.47422 0.9059 0.61927 0.0
N431 N 0.41573 0.04983 0.55391 0.0
C432 C 0.47088 0.94466 0.60179 0.0
C433 C 0.43941 0.01753 0.5684 0.0
N434 N 0.53834 0.06169 0.61818 0.0
N435 N 0.40205 0.91083 0.5476 0.0
H436 H 0.42688 0.10395 0.5546 0.0
H437 H 0.38011 0.02131 0.54219 0.0
H438 H 0.39324 0.85824 0.54524 0.0
H439 H 0.39855 0.93747 0.53376 0.0
H440 H 0.56084 0.0416 0.62915 0.0
H441 H 0.55397 0.11683 0.61979 0.0
H442 H 0.48971 0.928 0.63401 0.0
H443 H 0.45569 0.8495 0.61963 0.0
C444 C 0.51252 0.49332 0.92854 0.0
C445 C 0.46744 0.48012 0.91109 0.0
C446 C 0.52139 0.41372 0.89429 0.0
C447 C 0.57277 0.43477 0.9104 0.0
N448 N 0.61945 0.49642 0.94271 0.0
N449 N 0.43638 0.4382 0.87576 0.0
C450 C 0.56922 0.4755 0.92743 0.0
C451 C 0.47348 0.44271 0.89358 0.0
N452 N 0.49867 0.51958 0.94662 0.0
N453 N 0.51756 0.36546 0.87976 0.0
H454 H 0.40115 0.4592 0.87451 0.0
H455 H 0.44549 0.41961 0.86151 0.0
H456 H 0.55226 0.34375 0.87929 0.0
H457 H 0.47575 0.3419 0.86923 0.0
H458 H 0.52392 0.52289 0.96079 0.0
H459 H 0.45679 0.53197 0.94819 0.0
H460 H 0.62598 0.53418 0.95388 0.0
H461 H 0.65745 0.47882 0.94373 0.0
C462 C 0.05167 0.55785 0.27242 0.0
C463 C 0.09024 0.60495 0.2539 0.0
C464 C 0.97819 0.54211 0.23426 0.0
C465 C 0.93811 0.49897 0.25322 0.0
N466 N 0.93303 0.47296 0.29116 0.0
N467 N 0.0892 0.64966 0.21807 0.0
C468 C 0.97389 0.50848 0.27254 0.0
C469 C 0.05302 0.59964 0.23511 0.0
N470 N 0.08955 0.56 0.28985 0.0
N471 N 0.94576 0.52549 0.21523 0.0
H472 H 0.14472 0.69096 0.21779 0.0
H473 H 0.06294 0.65395 0.20485 0.0
H474 H 0.89192 0.48209 0.21386 0.0
H475 H 0.97405 0.54975 0.20051 0.0
H476 H 0.06664 0.52128 0.30287 0.0
H477 H 0.14562 0.59827 0.29079 0.0
H478 H 0.95439 0.48364 0.30613 0.0
H479 H 0.87601 0.43671 0.29188 0.0
C480 C 0.53106 0.50398 0.09575 0.0
C481 C 0.57143 0.51507 0.07596 0.0
C482 C 0.50879 0.5742 0.05968 0.0
C483 C 0.46477 0.55861 0.07908 0.0
N484 N 0.42686 0.50033 0.11477 0.0
N485 N 0.58929 0.54745 0.03814 0.0
C486 C 0.4733 0.52033 0.0968 0.0
C487 C 0.55786 0.54672 0.05766 0.0
N488 N 0.55078 0.48189 0.11386 0.0
N489 N 0.50431 0.61583 0.04318 0.0
H490 H 0.62508 0.52732 0.03601 0.0
H491 H 0.575 0.56179 0.02381 0.0
H492 H 0.46625 0.63348 0.04329 0.0
H493 H 0.54145 0.6369 0.0298 0.0
H494 H 0.52947 0.48105 0.12914 0.0
H495 H 0.59349 0.47057 0.11395 0.0
H496 H 0.42434 0.46458 0.12714 0.0
H497 H 0.38699 0.51529 0.11681 0.0
C498 C 0.92816 0.46345 0.38631 0.0
C499 C 0.88136 0.44328 0.40523 0.0
C500 C 0.98515 0.53323 0.42461 0.0
C501 C 0.03305 0.54922 0.40618 0.0
N502 N 0.05349 0.5256 0.37011 0.0
N503 N 0.86654 0.44863 0.44324 0.0
C504 C 0.00552 0.51294 0.38721 0.0
C505 C 0.91013 0.47558 0.42461 0.0
N506 N 0.8982 0.438 0.36733 0.0
N507 N 0.01128 0.57353 0.44207 0.0
H508 H 0.81183 0.40515 0.444 0.0
H509 H 0.88615 0.46438 0.45823 0.0
H510 H 0.06644 0.61456 0.44295 0.0
H511 H 0.97745 0.57042 0.45505 0.0
H512 H 0.92801 0.45686 0.3526 0.0
H513 H 0.84184 0.40175 0.36607 0.0
H514 H 0.0385 0.49471 0.35674 0.0
H515 H 0.10979 0.56473 0.36978 0.0
C516 C 0.57959 0.02088 0.75394 0.0
C517 C 0.56977 0.0595 0.73658 0.0
C518 C 0.51803 0.94821 0.71641 0.0
C519 C 0.53162 0.91103 0.73333 0.0
N520 N 0.58663 0.91432 0.76652 0.0
N521 N 0.54256 0.06538 0.69984 0.0
C522 C 0.56628 0.94832 0.75154 0.0
C523 C 0.54243 0.02468 0.71738 0.0
N524 N 0.59806 0.05223 0.77309 0.0
N525 N 0.4807 0.90999 0.69958 0.0
H526 H 0.56001 0.12145 0.69995 0.0
H527 H 0.53099 0.0453 0.68474 0.0
H528 H 0.46588 0.85513 0.69781 0.0
H529 H 0.46105 0.93119 0.68801 0.0
H530 H 0.59865 0.02416 0.78702 0.0
H531 H 0.60627 0.10451 0.7756 0.0
H532 H 0.61881 0.94113 0.77904 0.0
H533 H 0.57685 0.86081 0.7654 0.0
C534 C 0.44993 0.50782 0.60256 0.0
C535 C 0.44827 0.54117 0.58266 0.0
C536 C 0.49243 0.46962 0.56381 0.0
C537 C 0.49061 0.43345 0.58363 0.0
N538 N 0.46255 0.41246 0.62167 0.0
N539 N 0.45962 0.54967 0.54426 0.0
C540 C 0.46757 0.45075 0.60296 0.0
C541 C 0.46777 0.52132 0.56325 0.0
N542 N 0.43697 0.53273 0.62106 0.0
N543 N 0.51775 0.45435 0.54549 0.0
H544 H 0.44393 0.58933 0.54325 0.0
H545 H 0.46406 0.53118 0.52948 0.0
H546 H 0.52978 0.41213 0.54485 0.0
H547 H 0.52987 0.48523 0.53101 0.0
H548 H 0.44376 0.51623 0.63621 0.0
H549 H 0.42416 0.57452 0.62128 0.0
H550 H 0.43879 0.41631 0.636 0.0
H551 H 0.47866 0.37314 0.62274 0.0
C552 C 0.06144 0.47732 0.93126 0.0
C553 C 0.09568 0.46229 0.91387 0.0
C554 C 0.98103 0.4094 0.89532 0.0
C555 C 0.9464 0.42305 0.91291 0.0
N556 N 0.94742 0.4551 0.94933 0.0
N557 N 0.08637 0.40314 0.88114 0.0
C558 C 0.98485 0.45279 0.9314 0.0
C559 C 0.05466 0.42428 0.89653 0.0
N560 N 0.10257 0.51615 0.94749 0.0
N561 N 0.94492 0.38611 0.87702 0.0
H562 H 0.14101 0.41556 0.88109 0.0
H563 H 0.05724 0.36853 0.8693 0.0
H564 H 0.89133 0.37548 0.87543 0.0
H565 H 0.96964 0.38275 0.86281 0.0
H566 H 0.08356 0.53717 0.95922 0.0
H567 H 0.15754 0.5307 0.94871 0.0
H568 H 0.97014 0.46857 0.96406 0.0
H569 H 0.89125 0.43749 0.95 0.0
C570 C 0.46543 0.01094 0.2718 0.0
C571 C 0.46498 0.97252 0.2537 0.0
C572 C 0.57348 0.08519 0.23717 0.0
C573 C 0.5701 0.12489 0.25446 0.0
N574 N 0.51002 0.12889 0.28737 0.0
N575 N 0.51177 0.97402 0.21793 0.0
C576 C 0.515 0.08873 0.2715 0.0
C577 C 0.51755 0.00978 0.23611 0.0
N578 N 0.42122 0.97244 0.2897 0.0
N579 N 0.63004 0.11967 0.22168 0.0
H580 H 0.47201 0.9188 0.21648 0.0
H581 H 0.54237 1.00018 0.20364 0.0
H582 H 0.66947 0.17591 0.22107 0.0
H583 H 0.64101 0.09185 0.21013 0.0
H584 H 0.42464 0.99568 0.30423 0.0
H585 H 0.38489 0.91537 0.29064 0.0
H586 H 0.46576 0.10801 0.29876 0.0
H587 H 0.54849 0.1848 0.28856 0.0
loop_
_geom_bond_atom_site_label_1
_geom_bond_atom_site_label_2
_geom_bond_distance
_geom_bond_site_symmetry_2
_ccdc_geom_bond_type
In0 O1 2.294 . S
In0 O2 2.326 . S
In0 O6 2.266 . S
In0 O7 2.326 . S
In0 O8 2.266 . S
In0 O9 2.326 . S
In0 O11 2.294 . S
In0 O12 2.326 . S
O1 In0 2.294 . S
O1 C10 1.240 . S
O2 In0 2.326 . S
O2 C10 1.252 . S
C3 O6 1.252 . S
C3 O7 1.260 . S
C4 O11 1.240 . S
C4 O12 1.252 . S
C5 O8 1.252 . S
C5 O9 1.260 . S
O6 In0 2.266 . S
O6 C3 1.252 . S
O7 In0 2.326 . S
O7 C3 1.260 . S
O8 In0 2.266 . S
O8 C5 1.252 . S
O9 In0 2.326 . S
O9 C5 1.260 . S
C10 O1 1.240 . S
C10 O2 1.252 . S
O11 In0 2.294 . S
O11 C4 1.240 . S
O12 In0 2.326 . S
O12 C4 1.252 . S
In13 O14 2.294 . S
In13 O15 2.326 . S
In13 O19 2.266 . S
In13 O20 2.326 . S
In13 O21 2.266 . S
In13 O22 2.326 . S
In13 O24 2.294 . S
In13 O25 2.326 . S
O14 In13 2.294 . S
O14 C23 1.240 . S
O15 In13 2.326 . S
O15 C23 1.252 . S
C16 O19 1.252 . S
C16 O20 1.260 . S
C17 O24 1.240 . S
C17 O25 1.252 . S
C18 O21 1.252 . S
C18 O22 1.260 . S
O19 In13 2.266 . S
O19 C16 1.252 . S
O20 In13 2.326 . S
O20 C16 1.260 . S
O21 In13 2.266 . S
O21 C18 1.252 . S
O22 In13 2.326 . S
O22 C18 1.260 . S
C23 O14 1.240 . S
C23 O15 1.252 . S
O24 In13 2.294 . S
O24 C17 1.240 . S
O25 In13 2.326 . S
O25 C17 1.252 . S
In26 O27 2.294 . S
In26 O28 2.326 . S
In26 O32 2.266 . S
In26 O33 2.326 . S
In26 O34 2.266 . S
In26 O35 2.326 . S
In26 O37 2.294 . S
In26 O38 2.326 . S
O27 In26 2.294 . S
O27 C36 1.240 . S
O28 In26 2.326 . S
O28 C36 1.252 . S
C29 O32 1.252 . S
C29 O33 1.260 . S
C30 O37 1.240 . S
C30 O38 1.252 . S
C31 O34 1.252 . S
C31 O35 1.260 . S
O32 In26 2.266 . S
O32 C29 1.252 . S
O33 In26 2.326 . S
O33 C29 1.260 . S
O34 In26 2.266 . S
O34 C31 1.252 . S
O35 In26 2.326 . S
O35 C31 1.260 . S
C36 O27 1.240 . S
C36 O28 1.252 . S
O37 In26 2.294 . S
O37 C30 1.240 . S
O38 In26 2.326 . S
O38 C30 1.252 . S
In39 O40 2.294 . S
In39 O41 2.326 . S
In39 O45 2.266 . S
In39 O46 2.326 . S
In39 O47 2.266 . S
In39 O48 2.326 . S
In39 O50 2.294 . S
In39 O51 2.326 . S
O40 In39 2.294 . S
O40 C49 1.240 . S
O41 In39 2.326 . S
O41 C49 1.252 . S
C42 O45 1.252 . S
C42 O46 1.260 . S
C43 O50 1.240 . S
C43 O51 1.252 . S
C44 O47 1.252 . S
C44 O48 1.260 . S
O45 In39 2.266 . S
O45 C42 1.252 . S
O46 In39 2.326 . S
O46 C42 1.260 . S
O47 In39 2.266 . S
O47 C44 1.252 . S
O48 In39 2.326 . S
O48 C44 1.260 . S
C49 O40 1.240 . S
C49 O41 1.252 . S
O50 In39 2.294 . S
O50 C43 1.240 . S
O51 In39 2.326 . S
O51 C43 1.252 . S
In52 O53 2.294 . S
In52 O54 2.326 . S
In52 O58 2.266 . S
In52 O59 2.326 . S
In52 O60 2.266 . S
In52 O61 2.326 . S
In52 O63 2.294 . S
In52 O64 2.326 . S
O53 In52 2.294 . S
O53 C62 1.240 . S
O54 In52 2.326 . S
O54 C62 1.252 . S
C55 O58 1.252 . S
C55 O59 1.260 . S
C56 O63 1.240 . S
C56 O64 1.252 . S
C57 O60 1.252 . S
C57 O61 1.260 . S
O58 In52 2.266 . S
O58 C55 1.252 . S
O59 In52 2.326 . S
O59 C55 1.260 . S
O60 In52 2.266 . S
O60 C57 1.252 . S
O61 In52 2.326 . S
O61 C57 1.260 . S
C62 O53 1.240 . S
C62 O54 1.252 . S
O63 In52 2.294 . S
O63 C56 1.240 . S
O64 In52 2.326 . S
O64 C56 1.252 . S
In65 O66 2.294 . S
In65 O67 2.326 . S
In65 O71 2.266 . S
In65 O72 2.326 . S
In65 O73 2.266 . S
In65 O74 2.326 . S
In65 O76 2.294 . S
In65 O77 2.326 . S
O66 In65 2.294 . S
O66 C75 1.240 . S
O67 In65 2.326 . S
O67 C75 1.252 . S
C68 O71 1.252 . S
C68 O72 1.260 . S
C69 O76 1.240 . S
C69 O77 1.252 . S
C70 O73 1.252 . S
C70 O74 1.260 . S
O71 In65 2.266 . S
O71 C68 1.252 . S
O72 In65 2.326 . S
O72 C68 1.260 . S
O73 In65 2.266 . S
O73 C70 1.252 . S
O74 In65 2.326 . S
O74 C70 1.260 . S
C75 O66 1.240 . S
C75 O67 1.252 . S
O76 In65 2.294 . S
O76 C69 1.240 . S
O77 In65 2.326 . S
O77 C69 1.252 . S
In78 O79 2.294 . S
In78 O80 2.326 . S
In78 O84 2.266 . S
In78 O85 2.326 . S
In78 O86 2.266 . S
In78 O87 2.326 . S
In78 O89 2.294 . S
In78 O90 2.326 . S
O79 In78 2.294 . S
O79 C88 1.240 . S
O80 In78 2.326 . S
O80 C88 1.252 . S
C81 O84 1.252 . S
C81 O85 1.260 . S
C82 O89 1.240 . S
C82 O90 1.252 . S
C83 O86 1.252 . S
C83 O87 1.260 . S
O84 In78 2.266 . S
O84 C81 1.252 . S
O85 In78 2.326 . S
O85 C81 1.260 . S
O86 In78 2.266 . S
O86 C83 1.252 . S
O87 In78 2.326 . S
O87 C83 1.260 . S
C88 O79 1.240 . S
C88 O80 1.252 . S
O89 In78 2.294 . S
O89 C82 1.240 . S
O90 In78 2.326 . S
O90 C82 1.252 . S
In91 O92 2.294 . S
In91 O93 2.326 . S
In91 O97 2.266 . S
In91 O98 2.326 . S
In91 O99 2.266 . S
In91 O100 2.326 . S
In91 O102 2.294 . S
In91 O103 2.326 . S
O92 In91 2.294 . S
O92 C101 1.240 . S
O93 In91 2.326 . S
O93 C101 1.252 . S
C94 O97 1.252 . S
C94 O98 1.260 . S
C95 O102 1.240 . S
C95 O103 1.252 . S
C96 O99 1.252 . S
C96 O100 1.260 . S
O97 In91 2.266 . S
O97 C94 1.252 . S
O98 In91 2.326 . S
O98 C94 1.260 . S
O99 In91 2.266 . S
O99 C96 1.252 . S
O100 In91 2.326 . S
O100 C96 1.260 . S
C101 O92 1.240 . S
C101 O93 1.252 . S
O102 In91 2.294 . S
O102 C95 1.240 . S
O103 In91 2.326 . S
O103 C95 1.252 . S
In104 O105 2.294 . S
In104 O106 2.326 . S
In104 O110 2.266 . S
In104 O111 2.326 . S
In104 O112 2.266 . S
In104 O113 2.326 . S
In104 O115 2.294 . S
In104 O116 2.326 . S
O105 In104 2.294 . S
O105 C114 1.240 . S
O106 In104 2.326 . S
O106 C114 1.252 . S
C107 O110 1.252 . S
C107 O111 1.260 . S
C108 O115 1.240 . S
C108 O116 1.252 . S
C109 O112 1.252 . S
C109 O113 1.260 . S
O110 In104 2.266 . S
O110 C107 1.252 . S
O111 In104 2.326 . S
O111 C107 1.260 . S
O112 In104 2.266 . S
O112 C109 1.252 . S
O113 In104 2.326 . S
O113 C109 1.260 . S
C114 O105 1.240 . S
C114 O106 1.252 . S
O115 In104 2.294 . S
O115 C108 1.240 . S
O116 In104 2.326 . S
O116 C108 1.252 . S
In117 O118 2.294 . S
In117 O119 2.326 . S
In117 O123 2.266 . S
In117 O124 2.326 . S
In117 O125 2.266 . S
In117 O126 2.326 . S
In117 O128 2.294 . S
In117 O129 2.326 . S
O118 In117 2.294 . S
O118 C127 1.240 . S
O119 In117 2.326 . S
O119 C127 1.252 . S
C120 O123 1.252 . S
C120 O124 1.260 . S
C121 O128 1.240 . S
C121 O129 1.252 . S
C122 O125 1.252 . S
C122 O126 1.260 . S
O123 In117 2.266 . S
O123 C120 1.252 . S
O124 In117 2.326 . S
O124 C120 1.260 . S
O125 In117 2.266 . S
O125 C122 1.252 . S
O126 In117 2.326 . S
O126 C122 1.260 . S
C127 O118 1.240 . S
C127 O119 1.252 . S
O128 In117 2.294 . S
O128 C121 1.240 . S
O129 In117 2.326 . S
O129 C121 1.252 . S
In130 O131 2.294 . S
In130 O132 2.326 . S
In130 O136 2.266 . S
In130 O137 2.326 . S
In130 O138 2.266 . S
In130 O139 2.326 . S
In130 O141 2.294 . S
In130 O142 2.326 . S
O131 In130 2.294 . S
O131 C140 1.240 . S
O132 In130 2.326 . S
O132 C140 1.252 . S
C133 O136 1.252 . S
C133 O137 1.260 . S
C134 O141 1.240 . S
C134 O142 1.252 . S
C135 O138 1.252 . S
C135 O139 1.260 . S
O136 In130 2.266 . S
O136 C133 1.252 . S
O137 In130 2.326 . S
O137 C133 1.260 . S
O138 In130 2.266 . S
O138 C135 1.252 . S
O139 In130 2.326 . S
O139 C135 1.260 . S
C140 O131 1.240 . S
C140 O132 1.252 . S
O141 In130 2.294 . S
O141 C134 1.240 . S
O142 In130 2.326 . S
O142 C134 1.252 . S
In143 O144 2.294 . S
In143 O145 2.326 . S
In143 O149 2.266 . S
In143 O150 2.326 . S
In143 O151 2.266 . S
In143 O152 2.326 . S
In143 O154 2.294 . S
In143 O155 2.326 . S
O144 In143 2.294 . S
O144 C153 1.240 . S
O145 In143 2.326 . S
O145 C153 1.252 . S
C146 O149 1.252 . S
C146 O150 1.260 . S
C147 O154 1.240 . S
C147 O155 1.252 . S
C148 O151 1.252 . S
C148 O152 1.260 . S
O149 In143 2.266 . S
O149 C146 1.252 . S
O150 In143 2.326 . S
O150 C146 1.260 . S
O151 In143 2.266 . S
O151 C148 1.252 . S
O152 In143 2.326 . S
O152 C148 1.260 . S
C153 O144 1.240 . S
C153 O145 1.252 . S
O154 In143 2.294 . S
O154 C147 1.240 . S
O155 In143 2.326 . S
O155 C147 1.252 . S
C156 C157 1.363 . S
C156 C162 1.379 . S
C156 N164 1.356 . S
C157 C156 1.363 . S
C157 C163 1.363 . S
C158 C159 1.363 . S
C158 C163 1.379 1_554 S
C158 N165 1.356 . S
C159 C158 1.363 . S
C159 C162 1.363 1_554 S
N160 C162 1.356 . S
N160 H172 0.984 . S
N160 H173 0.985 1_556 S
N161 C163 1.356 . S
N161 H166 0.984 . S
N161 H167 0.985 1_556 S
C162 C156 1.379 . S
C162 C159 1.363 1_556 S
C162 N160 1.356 . S
C163 C157 1.363 . S
C163 C158 1.379 1_556 S
C163 N161 1.356 . S
N164 C156 1.356 . S
N164 H170 0.984 . S
N164 H171 0.984 . S
N165 C158 1.356 . S
N165 H168 0.984 . S
N165 H169 0.985 . S
H166 N161 0.984 . S
H167 N161 0.985 1_554 S
H168 N165 0.984 . S
H169 N165 0.985 . S
H170 N164 0.984 . S
H171 N164 0.984 . S
H172 N160 0.984 . S
H173 N160 0.985 1_554 S
C174 C175 1.363 . S
C174 C180 1.379 . S
C174 N182 1.356 . S
C175 C174 1.363 . S
C175 C181 1.363 . S
C176 C177 1.363 . S
C176 C181 1.379 . S
C176 N183 1.356 . S
C177 C176 1.363 . S
C177 C180 1.363 . S
N178 C180 1.356 . S
N178 H190 0.984 . S
N178 H191 0.985 . S
N179 C181 1.356 . S
N179 H184 0.984 . S
N179 H185 0.985 . S
C180 C174 1.379 . S
C180 C177 1.363 . S
C180 N178 1.356 . S
C181 C175 1.363 . S
C181 C176 1.379 . S
C181 N179 1.356 . S
N182 C174 1.356 . S
N182 H188 0.984 . S
N182 H189 0.984 . S
N183 C176 1.356 . S
N183 H186 0.984 . S
N183 H187 0.985 . S
H184 N179 0.984 . S
H185 N179 0.985 . S
H186 N183 0.984 . S
H187 N183 0.985 . S
H188 N182 0.984 . S
H189 N182 0.984 . S
H190 N178 0.984 . S
H191 N178 0.985 . S
C192 C193 1.363 . S
C192 C198 1.379 . S
C192 N200 1.356 . S
C193 C192 1.363 . S
C193 C199 1.363 . S
C194 C195 1.363 . S
C194 C199 1.379 . S
C194 N201 1.356 . S
C195 C194 1.363 . S
C195 C198 1.363 . S
N196 C198 1.356 . S
N196 H208 0.984 . S
N196 H209 0.985 . S
N197 C199 1.356 . S
N197 H202 0.984 . S
N197 H203 0.985 . S
C198 C192 1.379 . S
C198 C195 1.363 . S
C198 N196 1.356 . S
C199 C193 1.363 . S
C199 C194 1.379 . S
C199 N197 1.356 . S
N200 C192 1.356 . S
N200 H206 0.984 . S
N200 H207 0.984 . S
N201 C194 1.356 . S
N201 H204 0.984 . S
N201 H205 0.985 . S
H202 N197 0.984 . S
H203 N197 0.985 . S
H204 N201 0.984 . S
H205 N201 0.985 . S
H206 N200 0.984 . S
H207 N200 0.984 . S
H208 N196 0.984 . S
H209 N196 0.985 . S
C210 C211 1.363 . S
C210 C216 1.379 . S
C210 N218 1.356 . S
C211 C210 1.363 . S
C211 C217 1.363 . S
C212 C213 1.363 . S
C212 C217 1.379 1_556 S
C212 N219 1.356 . S
C213 C212 1.363 . S
C213 C216 1.363 1_556 S
N214 C216 1.358 . S
N214 H226 0.990 . S
N214 H227 0.977 1_554 S
N215 C217 1.356 . S
N215 H220 0.984 . S
N215 H221 0.985 1_554 S
C216 C210 1.379 . S
C216 C213 1.363 1_554 S
C216 N214 1.358 . S
C217 C211 1.363 . S
C217 C212 1.379 1_554 S
C217 N215 1.356 . S
N218 C210 1.356 . S
N218 H224 0.984 . S
N218 H225 0.984 . S
N219 C212 1.356 . S
N219 H222 0.984 . S
N219 H223 0.985 . S
H220 N215 0.984 . S
H221 N215 0.985 1_556 S
H222 N219 0.984 . S
H223 N219 0.985 . S
H224 N218 0.984 . S
H225 N218 0.984 . S
H226 N214 0.990 . S
H227 N214 0.977 1_556 S
C228 C229 1.363 . S
C228 C234 1.379 . S
C228 N236 1.356 . S
C229 C228 1.363 . S
C229 C235 1.363 . S
C230 C231 1.363 . S
C230 C235 1.379 . S
C230 N237 1.356 . S
C231 C230 1.363 . S
C231 C234 1.363 . S
N232 C234 1.356 . S
N232 H244 0.984 . S
N232 H245 0.985 . S
N233 C235 1.356 . S
N233 H238 0.984 . S
N233 H239 0.985 . S
C234 C228 1.379 . S
C234 C231 1.363 . S
C234 N232 1.356 . S
C235 C229 1.363 . S
C235 C230 1.379 . S
C235 N233 1.356 . S
N236 C228 1.356 . S
N236 H242 0.984 . S
N236 H243 0.984 . S
N237 C230 1.356 . S
N237 H240 0.984 . S
N237 H241 0.985 . S
H238 N233 0.984 . S
H239 N233 0.985 . S
H240 N237 0.984 . S
H241 N237 0.985 . S
H242 N236 0.984 . S
H243 N236 0.984 . S
H244 N232 0.984 . S
H245 N232 0.985 . S
C246 C247 1.363 . S
C246 C252 1.379 . S
C246 N254 1.356 . S
C247 C246 1.363 . S
C247 C253 1.363 . S
C248 C249 1.363 . S
C248 C253 1.379 . S
C248 N255 1.356 . S
C249 C248 1.363 . S
C249 C252 1.363 . S
N250 C252 1.356 . S
N250 H262 0.984 . S
N250 H263 0.985 . S
N251 C253 1.356 . S
N251 H256 0.984 . S
N251 H257 0.985 . S
C252 C246 1.379 . S
C252 C249 1.363 . S
C252 N250 1.356 . S
C253 C247 1.363 . S
C253 C248 1.379 . S
C253 N251 1.356 . S
N254 C246 1.356 . S
N254 H260 0.984 . S
N254 H261 0.984 . S
N255 C248 1.356 . S
N255 H258 0.984 . S
N255 H259 0.985 . S
H256 N251 0.984 . S
H257 N251 0.985 . S
H258 N255 0.984 . S
H259 N255 0.985 . S
H260 N254 0.984 . S
H261 N254 0.984 . S
H262 N250 0.984 . S
H263 N250 0.985 . S
C264 C265 1.363 . S
C264 C270 1.379 . S
C264 N272 1.356 . S
C265 C264 1.363 . S
C265 C271 1.363 . S
C266 C267 1.363 . S
C266 C271 1.379 . S
C266 N273 1.356 . S
C267 C266 1.363 . S
C267 C270 1.363 . S
N268 C270 1.356 . S
N268 H280 0.984 . S
N268 H281 0.985 . S
N269 C271 1.356 . S
N269 H274 0.984 . S
N269 H275 0.985 . S
C270 C264 1.379 . S
C270 C267 1.363 . S
C270 N268 1.356 . S
C271 C265 1.363 . S
C271 C266 1.379 . S
C271 N269 1.356 . S
N272 C264 1.356 . S
N272 H278 0.984 . S
N272 H279 0.984 . S
N273 C266 1.356 . S
N273 H276 0.984 . S
N273 H277 0.985 . S
H274 N269 0.984 . S
H275 N269 0.985 . S
H276 N273 0.984 . S
H277 N273 0.985 . S
H278 N272 0.984 . S
H279 N272 0.984 . S
H280 N268 0.984 . S
H281 N268 0.985 . S
C282 C283 1.363 . S
C282 C288 1.379 . S
C282 N290 1.356 . S
C283 C282 1.363 . S
C283 C289 1.363 . S
C284 C285 1.363 . S
C284 C289 1.379 . S
C284 N291 1.356 . S
C285 C284 1.363 . S
C285 C288 1.363 . S
N286 C288 1.356 . S
N286 H298 0.984 . S
N286 H299 0.985 . S
N287 C289 1.356 . S
N287 H292 0.984 . S
N287 H293 0.985 . S
C288 C282 1.379 . S
C288 C285 1.363 . S
C288 N286 1.356 . S
C289 C283 1.363 . S
C289 C284 1.379 . S
C289 N287 1.356 . S
N290 C282 1.356 . S
N290 H296 0.984 . S
N290 H297 0.984 . S
N291 C284 1.356 . S
N291 H294 0.984 . S
N291 H295 0.985 . S
H292 N287 0.984 . S
H293 N287 0.985 . S
H294 N291 0.984 . S
H295 N291 0.985 . S
H296 N290 0.984 . S
H297 N290 0.984 . S
H298 N286 0.984 . S
H299 N286 0.985 . S
C300 C301 1.363 . S
C300 C306 1.379 . S
C300 N308 1.356 . S
C301 C300 1.363 . S
C301 C307 1.363 . S
C302 C303 1.363 . S
C302 C307 1.379 . S
C302 N309 1.356 . S
C303 C302 1.363 . S
C303 C306 1.363 . S
N304 C306 1.356 . S
N304 H316 0.984 . S
N304 H317 0.985 . S
N305 C307 1.356 . S
N305 H310 0.984 . S
N305 H311 0.985 . S
C306 C300 1.379 . S
C306 C303 1.363 . S
C306 N304 1.356 . S
C307 C301 1.363 . S
C307 C302 1.379 . S
C307 N305 1.356 . S
N308 C300 1.356 . S
N308 H314 0.984 . S
N308 H315 0.984 . S
N309 C302 1.356 . S
N309 H312 0.984 . S
N309 H313 0.985 . S
H310 N305 0.984 . S
H311 N305 0.985 . S
H312 N309 0.984 . S
H313 N309 0.985 . S
H314 N308 0.984 . S
H315 N308 0.984 . S
H316 N304 0.984 . S
H317 N304 0.985 . S
C318 C319 1.363 . S
C318 C324 1.379 . S
C318 N326 1.356 . S
C319 C318 1.363 . S
C319 C325 1.363 . S
C320 C321 1.363 . S
C320 C325 1.379 . S
C320 N327 1.356 . S
C321 C320 1.363 . S
C321 C324 1.363 . S
N322 C324 1.356 . S
N322 H334 0.984 . S
N322 H335 0.985 . S
N323 C325 1.356 . S
N323 H328 0.984 . S
N323 H329 0.985 . S
C324 C318 1.379 . S
C324 C321 1.363 . S
C324 N322 1.356 . S
C325 C319 1.363 . S
C325 C320 1.379 . S
C325 N323 1.356 . S
N326 C318 1.356 . S
N326 H332 0.984 . S
N326 H333 0.984 . S
N327 C320 1.356 . S
N327 H330 0.984 . S
N327 H331 0.985 . S
H328 N323 0.984 . S
H329 N323 0.985 . S
H330 N327 0.984 . S
H331 N327 0.985 . S
H332 N326 0.984 . S
H333 N326 0.984 . S
H334 N322 0.984 . S
H335 N322 0.985 . S
C336 C337 1.363 . S
C336 C342 1.379 . S
C336 N344 1.356 . S
C337 C336 1.363 . S
C337 C343 1.363 . S
C338 C339 1.363 . S
C338 C343 1.379 . S
C338 N345 1.356 . S
C339 C338 1.363 . S
C339 C342 1.363 . S
N340 C342 1.356 . S
N340 H352 0.984 . S
N340 H353 0.985 . S
N341 C343 1.356 . S
N341 H346 0.984 . S
N341 H347 0.985 . S
C342 C336 1.379 . S
C342 C339 1.363 . S
C342 N340 1.356 . S
C343 C337 1.363 . S
C343 C338 1.379 . S
C343 N341 1.356 . S
N344 C336 1.356 . S
N344 H350 0.984 . S
N344 H351 0.984 . S
N345 C338 1.356 . S
N345 H348 0.984 . S
N345 H349 0.985 . S
H346 N341 0.984 . S
H347 N341 0.985 . S
H348 N345 0.984 . S
H349 N345 0.985 . S
H350 N344 0.984 . S
H351 N344 0.984 . S
H352 N340 0.984 . S
H353 N340 0.985 . S
C354 C355 1.363 . S
C354 C360 1.379 . S
C354 N362 1.356 . S
C355 C354 1.363 . S
C355 C361 1.363 . S
C356 C357 1.363 . S
C356 C361 1.379 . S
C356 N363 1.356 . S
C357 C356 1.363 . S
C357 C360 1.363 . S
N358 C360 1.356 . S
N358 H370 0.984 . S
N358 H371 0.985 . S
N359 C361 1.356 . S
N359 H364 0.984 . S
N359 H365 0.985 . S
C360 C354 1.379 . S
C360 C357 1.363 . S
C360 N358 1.356 . S
C361 C355 1.363 . S
C361 C356 1.379 . S
C361 N359 1.356 . S
N362 C354 1.356 . S
N362 H368 0.984 . S
N362 H369 0.984 . S
N363 C356 1.356 . S
N363 H366 0.984 . S
N363 H367 0.985 . S
H364 N359 0.984 . S
H365 N359 0.985 . S
H366 N363 0.984 . S
H367 N363 0.985 . S
H368 N362 0.984 . S
H369 N362 0.984 . S
H370 N358 0.984 . S
H371 N358 0.985 . S
C372 C373 1.363 . S
C372 C378 1.379 1_655 S
C372 N380 1.356 . S
C373 C372 1.363 . S
C373 C379 1.363 1_655 S
C374 C375 1.363 . S
C374 C379 1.379 . S
C374 N381 1.356 . S
C375 C374 1.363 . S
C375 C378 1.363 . S
N376 C378 1.356 . S
N376 H388 0.984 . S
N376 H389 0.985 . S
N377 C379 1.356 . S
N377 H382 0.984 1_455 S
N377 H383 0.985 . S
C378 C372 1.379 1_455 S
C378 C375 1.363 . S
C378 N376 1.356 . S
C379 C373 1.363 1_455 S
C379 C374 1.379 . S
C379 N377 1.356 . S
N380 C372 1.356 . S
N380 H386 0.984 . S
N380 H387 0.984 . S
N381 C374 1.356 . S
N381 H384 0.984 . S
N381 H385 0.985 . S
H382 N377 0.984 1_655 S
H383 N377 0.985 . S
H384 N381 0.984 . S
H385 N381 0.985 . S
H386 N380 0.984 . S
H387 N380 0.984 . S
H388 N376 0.984 . S
H389 N376 0.985 . S
C390 C391 1.363 . S
C390 C396 1.379 1_545 S
C390 N398 1.356 . S
C391 C390 1.363 . S
C391 C397 1.363 . S
C392 C393 1.363 . S
C392 C397 1.379 1_565 S
C392 N399 1.356 . S
C393 C392 1.363 . S
C393 C396 1.363 . S
N394 C396 1.356 . S
N394 H406 0.984 . S
N394 H407 0.985 . S
N395 C397 1.356 . S
N395 H400 0.984 . S
N395 H401 0.985 . S
C396 C390 1.379 1_565 S
C396 C393 1.363 . S
C396 N394 1.356 . S
C397 C391 1.363 . S
C397 C392 1.379 1_545 S
C397 N395 1.356 . S
N398 C390 1.356 . S
N398 H404 0.984 . S
N398 H405 0.984 . S
N399 C392 1.356 . S
N399 H402 0.984 . S
N399 H403 0.985 . S
H400 N395 0.984 . S
H401 N395 0.985 . S
H402 N399 0.984 . S
H403 N399 0.985 . S
H404 N398 0.984 . S
H405 N398 0.984 . S
H406 N394 0.984 . S
H407 N394 0.985 . S
C408 C409 1.363 . S
C408 C414 1.379 . S
C408 N416 1.356 . S
C409 C408 1.363 . S
C409 C415 1.363 . S
C410 C411 1.363 . S
C410 C415 1.379 . S
C410 N417 1.356 . S
C411 C410 1.363 . S
C411 C414 1.363 . S
N412 C414 1.356 . S
N412 H424 0.984 . S
N412 H425 0.985 . S
N413 C415 1.356 . S
N413 H418 0.984 . S
N413 H419 0.985 . S
C414 C408 1.379 . S
C414 C411 1.363 . S
C414 N412 1.356 . S
C415 C409 1.363 . S
C415 C410 1.379 . S
C415 N413 1.356 . S
N416 C408 1.356 . S
N416 H422 0.984 . S
N416 H423 0.984 . S
N417 C410 1.356 . S
N417 H420 0.984 . S
N417 H421 0.985 . S
H418 N413 0.984 . S
H419 N413 0.985 . S
H420 N417 0.984 . S
H421 N417 0.985 . S
H422 N416 0.984 . S
H423 N416 0.984 . S
H424 N412 0.984 . S
H425 N412 0.985 . S
C426 C427 1.363 1_565 S
C426 C432 1.379 . S
C426 N434 1.356 1_565 S
C427 C426 1.363 1_545 S
C427 C433 1.363 1_545 S
C428 C429 1.363 . S
C428 C433 1.379 . S
C428 N435 1.356 . S
C429 C428 1.363 . S
C429 C432 1.363 . S
N430 C432 1.356 . S
N430 H442 0.984 . S
N430 H443 0.985 . S
N431 C433 1.356 . S
N431 H436 0.984 1_565 S
N431 H437 0.985 . S
C432 C426 1.379 . S
C432 C429 1.363 . S
C432 N430 1.356 . S
C433 C427 1.363 1_565 S
C433 C428 1.379 . S
C433 N431 1.356 . S
N434 C426 1.356 1_545 S
N434 H440 0.984 . S
N434 H441 0.984 . S
N435 C428 1.356 . S
N435 H438 0.984 . S
N435 H439 0.985 . S
H436 N431 0.984 1_545 S
H437 N431 0.985 . S
H438 N435 0.984 . S
H439 N435 0.985 . S
H440 N434 0.984 . S
H441 N434 0.984 . S
H442 N430 0.984 . S
H443 N430 0.985 . S
C444 C445 1.363 . S
C444 C450 1.379 . S
C444 N452 1.356 . S
C445 C444 1.363 . S
C445 C451 1.363 . S
C446 C447 1.363 . S
C446 C451 1.379 . S
C446 N453 1.356 . S
C447 C446 1.363 . S
C447 C450 1.363 . S
N448 C450 1.356 . S
N448 H460 0.984 . S
N448 H461 0.985 . S
N449 C451 1.356 . S
N449 H454 0.984 . S
N449 H455 0.985 . S
C450 C444 1.379 . S
C450 C447 1.363 . S
C450 N448 1.356 . S
C451 C445 1.363 . S
C451 C446 1.379 . S
C451 N449 1.356 . S
N452 C444 1.356 . S
N452 H458 0.984 . S
N452 H459 0.984 . S
N453 C446 1.356 . S
N453 H456 0.984 . S
N453 H457 0.985 . S
H454 N449 0.984 . S
H455 N449 0.985 . S
H456 N453 0.984 . S
H457 N453 0.985 . S
H458 N452 0.984 . S
H459 N452 0.984 . S
H460 N448 0.984 . S
H461 N448 0.985 . S
C462 C463 1.363 . S
C462 C468 1.379 1_455 S
C462 N470 1.356 . S
C463 C462 1.363 . S
C463 C469 1.363 . S
C464 C465 1.363 . S
C464 C469 1.379 1_655 S
C464 N471 1.356 . S
C465 C464 1.363 . S
C465 C468 1.363 . S
N466 C468 1.356 . S
N466 H478 0.984 . S
N466 H479 0.985 . S
N467 C469 1.356 . S
N467 H472 0.984 . S
N467 H473 0.985 . S
C468 C462 1.379 1_655 S
C468 C465 1.363 . S
C468 N466 1.356 . S
C469 C463 1.363 . S
C469 C464 1.379 1_455 S
C469 N467 1.356 . S
N470 C462 1.356 . S
N470 H476 0.984 . S
N470 H477 0.984 . S
N471 C464 1.356 . S
N471 H474 0.984 . S
N471 H475 0.985 . S
H472 N467 0.984 . S
H473 N467 0.985 . S
H474 N471 0.984 . S
H475 N471 0.985 . S
H476 N470 0.984 . S
H477 N470 0.984 . S
H478 N466 0.984 . S
H479 N466 0.985 . S
C480 C481 1.363 . S
C480 C486 1.379 . S
C480 N488 1.356 . S
C481 C480 1.363 . S
C481 C487 1.363 . S
C482 C483 1.363 . S
C482 C487 1.379 . S
C482 N489 1.356 . S
C483 C482 1.363 . S
C483 C486 1.363 . S
N484 C486 1.356 . S
N484 H496 0.984 . S
N484 H497 0.985 . S
N485 C487 1.356 . S
N485 H490 0.984 . S
N485 H491 0.985 . S
C486 C480 1.379 . S
C486 C483 1.363 . S
C486 N484 1.356 . S
C487 C481 1.363 . S
C487 C482 1.379 . S
C487 N485 1.356 . S
N488 C480 1.356 . S
N488 H494 0.984 . S
N488 H495 0.984 . S
N489 C482 1.356 . S
N489 H492 0.984 . S
N489 H493 0.985 . S
H490 N485 0.984 . S
H491 N485 0.985 . S
H492 N489 0.984 . S
H493 N489 0.985 . S
H494 N488 0.984 . S
H495 N488 0.984 . S
H496 N484 0.984 . S
H497 N484 0.985 . S
C498 C499 1.363 . S
C498 C504 1.379 1_655 S
C498 N506 1.356 . S
C499 C498 1.363 . S
C499 C505 1.363 . S
C500 C501 1.363 1_655 S
C500 C505 1.379 . S
C500 N507 1.356 1_655 S
C501 C500 1.363 1_455 S
C501 C504 1.363 . S
N502 C504 1.356 . S
N502 H514 0.984 . S
N502 H515 0.985 . S
N503 C505 1.356 . S
N503 H508 0.984 . S
N503 H509 0.985 . S
C504 C498 1.379 1_455 S
C504 C501 1.363 . S
C504 N502 1.356 . S
C505 C499 1.363 . S
C505 C500 1.379 . S
C505 N503 1.356 . S
N506 C498 1.356 . S
N506 H512 0.984 . S
N506 H513 0.984 . S
N507 C500 1.356 1_455 S
N507 H510 0.984 . S
N507 H511 0.985 1_455 S
H508 N503 0.984 . S
H509 N503 0.985 . S
H510 N507 0.984 . S
H511 N507 0.985 1_655 S
H512 N506 0.984 . S
H513 N506 0.984 . S
H514 N502 0.984 . S
H515 N502 0.985 . S
C516 C517 1.363 . S
C516 C522 1.379 1_545 S
C516 N524 1.356 . S
C517 C516 1.363 . S
C517 C523 1.363 . S
C518 C519 1.363 . S
C518 C523 1.379 1_565 S
C518 N525 1.356 . S
C519 C518 1.363 . S
C519 C522 1.363 . S
N520 C522 1.356 . S
N520 H532 0.984 . S
N520 H533 0.985 . S
N521 C523 1.356 . S
N521 H526 0.984 . S
N521 H527 0.985 . S
C522 C516 1.379 1_565 S
C522 C519 1.363 . S
C522 N520 1.356 . S
C523 C517 1.363 . S
C523 C518 1.379 1_545 S
C523 N521 1.356 . S
N524 C516 1.356 . S
N524 H530 0.984 . S
N524 H531 0.984 . S
N525 C518 1.356 . S
N525 H528 0.984 . S
N525 H529 0.985 . S
H526 N521 0.984 . S
H527 N521 0.985 . S
H528 N525 0.984 . S
H529 N525 0.985 . S
H530 N524 0.984 . S
H531 N524 0.984 . S
H532 N520 0.984 . S
H533 N520 0.985 . S
C534 C535 1.363 . S
C534 C540 1.379 . S
C534 N542 1.356 . S
C535 C534 1.363 . S
C535 C541 1.363 . S
C536 C537 1.363 . S
C536 C541 1.379 . S
C536 N543 1.356 . S
C537 C536 1.363 . S
C537 C540 1.363 . S
N538 C540 1.356 . S
N538 H550 0.984 . S
N538 H551 0.985 . S
N539 C541 1.356 . S
N539 H544 0.984 . S
N539 H545 0.985 . S
C540 C534 1.379 . S
C540 C537 1.363 . S
C540 N538 1.356 . S
C541 C535 1.363 . S
C541 C536 1.379 . S
C541 N539 1.356 . S
N542 C534 1.356 . S
N542 H548 0.984 . S
N542 H549 0.984 . S
N543 C536 1.356 . S
N543 H546 0.984 . S
N543 H547 0.985 . S
H544 N539 0.984 . S
H545 N539 0.985 . S
H546 N543 0.984 . S
H547 N543 0.985 . S
H548 N542 0.984 . S
H549 N542 0.984 . S
H550 N538 0.984 . S
H551 N538 0.985 . S
C552 C553 1.363 . S
C552 C558 1.379 1_455 S
C552 N560 1.356 . S
C553 C552 1.363 . S
C553 C559 1.363 . S
C554 C555 1.363 . S
C554 C559 1.379 1_655 S
C554 N561 1.356 . S
C555 C554 1.363 . S
C555 C558 1.363 . S
N556 C558 1.356 . S
N556 H568 0.984 . S
N556 H569 0.985 . S
N557 C559 1.356 . S
N557 H562 0.984 . S
N557 H563 0.985 . S
C558 C552 1.379 1_655 S
C558 C555 1.363 . S
C558 N556 1.356 . S
C559 C553 1.363 . S
C559 C554 1.379 1_455 S
C559 N557 1.356 . S
N560 C552 1.356 . S
N560 H566 0.984 . S
N560 H567 0.984 . S
N561 C554 1.356 . S
N561 H564 0.984 . S
N561 H565 0.985 . S
H562 N557 0.984 . S
H563 N557 0.985 . S
H564 N561 0.984 . S
H565 N561 0.985 . S
H566 N560 0.984 . S
H567 N560 0.984 . S
H568 N556 0.984 . S
H569 N556 0.985 . S
C570 C571 1.363 1_545 S
C570 C576 1.379 . S
C570 N578 1.356 1_545 S
C571 C570 1.363 1_565 S
C571 C577 1.363 . S
C572 C573 1.363 . S
C572 C577 1.379 1_545 S
C572 N579 1.356 . S
C573 C572 1.363 . S
C573 C576 1.363 . S
N574 C576 1.356 . S
N574 H586 0.984 . S
N574 H587 0.985 . S
N575 C577 1.356 . S
N575 H580 0.984 . S
N575 H581 0.985 . S
C576 C570 1.379 . S
C576 C573 1.363 . S
C576 N574 1.356 . S
C577 C571 1.363 . S
C577 C572 1.379 1_565 S
C577 N575 1.356 . S
N578 C570 1.356 1_565 S
N578 H584 0.984 . S
N578 H585 0.984 . S
N579 C572 1.356 . S
N579 H582 0.984 . S
N579 H583 0.985 . S
H580 N575 0.984 . S
H581 N575 0.985 . S
H582 N579 0.984 . S
H583 N579 0.985 . S
H584 N578 0.984 . S
H585 N578 0.984 . S
H586 N574 0.984 . S
H587 N574 0.985 . S
C157 C134 1.617 . S
C159 C10 1.506 . S
C175 C17 1.374 . S
C177 C147 1.374 . S
C193 C36 1.617 . S
C195 C82 1.506 . S
C211 C49 1.659 . S
C213 C95 1.542 . S
C229 C108 1.454 . S
C231 C56 1.454 . S
C247 C69 1.542 . S
C249 C127 1.659 . S
C265 C109 1.672 . S
C267 C3 1.604 . S
C283 C18 1.367 . S
C285 C120 1.398 . S
C301 C29 1.347 . S
C303 C135 1.347 . S
C319 C42 1.399 . S
C321 C148 1.367 . S
C337 C83 1.605 . S
C339 C57 1.673 . S
C355 C96 1.840 . S
C357 C70 1.840 . S
C373 C44 1.316 . S
C375 C5 1.314 . S
C391 C16 1.293 . S
C393 C55 1.293 . S
C409 C68 1.297 . S
C411 C31 1.299 . S
C427 C122 1.316 . S
C429 C81 1.315 . S
C445 C133 1.299 . S
C447 C94 1.297 . S
C463 C107 1.292 . S
C465 C146 1.292 . S
C481 C43 1.587 . S
C483 C4 1.585 . S
C499 C23 1.592 . S
C501 C62 1.592 . S
C517 C75 1.606 . S
C519 C30 1.609 . S
C535 C88 1.585 . S
C537 C121 1.587 . S
C553 C140 1.609 . S
C555 C101 1.606 . S
C571 C114 1.593 . S
C573 C153 1.593 . S
