# Generated by pormake.
# Topology uns, (4)-cn, num edge types: 1
# Building blocks:
#     Node 0, Type 0, BuildingBlock: NAWXER_clean_sbu_0, # of connection points: 4
#     Node 1, Type 0, BuildingBlock: NAWXER_clean_sbu_0, # of connection points: 4
#     Node 2, Type 0, BuildingBlock: NAWXER_clean_sbu_0, # of connection points: 4
#     Node 3, Type 0, BuildingBlock: NAWXER_clean_sbu_0, # of connection points: 4
#     Node 4, Type 0, BuildingBlock: NAWXER_clean_sbu_0, # of connection points: 4
#     Node 5, Type 0, BuildingBlock: NAWXER_clean_sbu_0, # of connection points: 4
#     Node 6, Type 0, BuildingBlock: NAWXER_clean_sbu_0, # of connection points: 4
#     Node 7, Type 0, BuildingBlock: NAWXER_clean_sbu_0, # of connection points: 4
#     Node 8, Type 0, BuildingBlock: NAWXER_clean_sbu_0, # of connection points: 4
#     Node 9, Type 0, BuildingBlock: NAWXER_clean_sbu_0, # of connection points: 4
#     Node 10, Type 0, BuildingBlock: NAWXER_clean_sbu_0, # of connection points: 4
#     Node 11, Type 0, BuildingBlock: NAWXER_clean_sbu_0, # of connection points: 4
#     Node 12, Type 0, BuildingBlock: NAWXER_clean_sbu_0, # of connection points: 4
#     Node 13, Type 0, BuildingBlock: NAWXER_clean_sbu_0, # of connection points: 4
#     Node 14, Type 0, BuildingBlock: NAWXER_clean_sbu_0, # of connection points: 4
#     Node 15, Type 0, BuildingBlock: NAWXER_clean_sbu_0, # of connection points: 4
#     Node 16, Type 0, BuildingBlock: NAWXER_clean_sbu_0, # of connection points: 4
#     Node 17, Type 0, BuildingBlock: NAWXER_clean_sbu_0, # of connection points: 4
#     Node 18, Type 0, BuildingBlock: NAWXER_clean_sbu_0, # of connection points: 4
#     Node 19, Type 0, BuildingBlock: NAWXER_clean_sbu_0, # of connection points: 4
#     Node 20, Type 0, BuildingBlock: NAWXER_clean_sbu_0, # of connection points: 4
#     Node 21, Type 0, BuildingBlock: NAWXER_clean_sbu_0, # of connection points: 4
#     Node 22, Type 0, BuildingBlock: NAWXER_clean_sbu_0, # of connection points: 4
#     Node 23, Type 0, BuildingBlock: NAWXER_clean_sbu_0, # of connection points: 4
#     Node 24, Type 0, BuildingBlock: NAWXER_clean_sbu_0, # of connection points: 4
#     Node 25, Type 0, BuildingBlock: NAWXER_clean_sbu_0, # of connection points: 4
#     Node 26, Type 0, BuildingBlock: NAWXER_clean_sbu_0, # of connection points: 4
#     Node 27, Type 0, BuildingBlock: NAWXER_clean_sbu_0, # of connection points: 4
#     Node 28, Type 0, BuildingBlock: NAWXER_clean_sbu_0, # of connection points: 4
#     Node 29, Type 0, BuildingBlock: NAWXER_clean_sbu_0, # of connection points: 4
#     Node 30, Type 0, BuildingBlock: NAWXER_clean_sbu_0, # of connection points: 4
#     Node 31, Type 0, BuildingBlock: NAWXER_clean_sbu_0, # of connection points: 4
#     Node 32, Type 0, BuildingBlock: NAWXER_clean_sbu_0, # of connection points: 4
#     Node 33, Type 0, BuildingBlock: NAWXER_clean_sbu_0, # of connection points: 4
#     Node 34, Type 0, BuildingBlock: NAWXER_clean_sbu_0, # of connection points: 4
#     Node 35, Type 0, BuildingBlock: NAWXER_clean_sbu_0, # of connection points: 4
#     Edge 36, Type (0, 0), BuildingBlock: CIFDUS_clean_linker_0, # of connection points: 2
#     Edge 37, Type (0, 0), BuildingBlock: CIFDUS_clean_linker_0, # of connection points: 2
#     Edge 38, Type (0, 0), BuildingBlock: CIFDUS_clean_linker_0, # of connection points: 2
#     Edge 39, Type (0, 0), BuildingBlock: CIFDUS_clean_linker_0, # of connection points: 2
#     Edge 40, Type (0, 0), BuildingBlock: CIFDUS_clean_linker_0, # of connection points: 2
#     Edge 41, Type (0, 0), BuildingBlock: CIFDUS_clean_linker_0, # of connection points: 2
#     Edge 42, Type (0, 0), BuildingBlock: CIFDUS_clean_linker_0, # of connection points: 2
#     Edge 43, Type (0, 0), BuildingBlock: CIFDUS_clean_linker_0, # of connection points: 2
#     Edge 44, Type (0, 0), BuildingBlock: CIFDUS_clean_linker_0, # of connection points: 2
#     Edge 45, Type (0, 0), BuildingBlock: CIFDUS_clean_linker_0, # of connection points: 2
#     Edge 46, Type (0, 0), BuildingBlock: CIFDUS_clean_linker_0, # of connection points: 2
#     Edge 47, Type (0, 0), BuildingBlock: CIFDUS_clean_linker_0, # of connection points: 2
#     Edge 48, Type (0, 0), BuildingBlock: CIFDUS_clean_linker_0, # of connection points: 2
#     Edge 49, Type (0, 0), BuildingBlock: CIFDUS_clean_linker_0, # of connection points: 2
#     Edge 50, Type (0, 0), BuildingBlock: CIFDUS_clean_linker_0, # of connection points: 2
#     Edge 51, Type (0, 0), BuildingBlock: CIFDUS_clean_linker_0, # of connection points: 2
#     Edge 52, Type (0, 0), BuildingBlock: CIFDUS_clean_linker_0, # of connection points: 2
#     Edge 53, Type (0, 0), BuildingBlock: CIFDUS_clean_linker_0, # of connection points: 2
#     Edge 54, Type (0, 0), BuildingBlock: CIFDUS_clean_linker_0, # of connection points: 2
#     Edge 55, Type (0, 0), BuildingBlock: CIFDUS_clean_linker_0, # of connection points: 2
#     Edge 56, Type (0, 0), BuildingBlock: CIFDUS_clean_linker_0, # of connection points: 2
#     Edge 57, Type (0, 0), BuildingBlock: CIFDUS_clean_linker_0, # of connection points: 2
#     Edge 58, Type (0, 0), BuildingBlock: CIFDUS_clean_linker_0, # of connection points: 2
#     Edge 59, Type (0, 0), BuildingBlock: CIFDUS_clean_linker_0, # of connection points: 2
#     Edge 60, Type (0, 0), BuildingBlock: CIFDUS_clean_linker_0, # of connection points: 2
#     Edge 61, Type (0, 0), BuildingBlock: CIFDUS_clean_linker_0, # of connection points: 2
#     Edge 62, Type (0, 0), BuildingBlock: CIFDUS_clean_linker_0, # of connection points: 2
#     Edge 63, Type (0, 0), BuildingBlock: CIFDUS_clean_linker_0, # of connection points: 2
#     Edge 64, Type (0, 0), BuildingBlock: CIFDUS_clean_linker_0, # of connection points: 2
#     Edge 65, Type (0, 0), BuildingBlock: CIFDUS_clean_linker_0, # of connection points: 2
#     Edge 66, Type (0, 0), BuildingBlock: CIFDUS_clean_linker_0, # of connection points: 2
#     Edge 67, Type (0, 0), BuildingBlock: CIFDUS_clean_linker_0, # of connection points: 2
#     Edge 68, Type (0, 0), BuildingBlock: CIFDUS_clean_linker_0, # of connection points: 2
#     Edge 69, Type (0, 0), BuildingBlock: CIFDUS_clean_linker_0, # of connection points: 2
#     Edge 70, Type (0, 0), BuildingBlock: CIFDUS_clean_linker_0, # of connection points: 2
#     Edge 71, Type (0, 0), BuildingBlock: CIFDUS_clean_linker_0, # of connection points: 2
#     Edge 72, Type (0, 0), BuildingBlock: CIFDUS_clean_linker_0, # of connection points: 2
#     Edge 73, Type (0, 0), BuildingBlock: CIFDUS_clean_linker_0, # of connection points: 2
#     Edge 74, Type (0, 0), BuildingBlock: CIFDUS_clean_linker_0, # of connection points: 2
#     Edge 75, Type (0, 0), BuildingBlock: CIFDUS_clean_linker_0, # of connection points: 2
#     Edge 76, Type (0, 0), BuildingBlock: CIFDUS_clean_linker_0, # of connection points: 2
#     Edge 77, Type (0, 0), BuildingBlock: CIFDUS_clean_linker_0, # of connection points: 2
#     Edge 78, Type (0, 0), BuildingBlock: CIFDUS_clean_linker_0, # of connection points: 2
#     Edge 79, Type (0, 0), BuildingBlock: CIFDUS_clean_linker_0, # of connection points: 2
#     Edge 80, Type (0, 0), BuildingBlock: CIFDUS_clean_linker_0, # of connection points: 2
#     Edge 81, Type (0, 0), BuildingBlock: CIFDUS_clean_linker_0, # of connection points: 2
#     Edge 82, Type (0, 0), BuildingBlock: CIFDUS_clean_linker_0, # of connection points: 2
#     Edge 83, Type (0, 0), BuildingBlock: CIFDUS_clean_linker_0, # of connection points: 2
#     Edge 84, Type (0, 0), BuildingBlock: CIFDUS_clean_linker_0, # of connection points: 2
#     Edge 85, Type (0, 0), BuildingBlock: CIFDUS_clean_linker_0, # of connection points: 2
#     Edge 86, Type (0, 0), BuildingBlock: CIFDUS_clean_linker_0, # of connection points: 2
#     Edge 87, Type (0, 0), BuildingBlock: CIFDUS_clean_linker_0, # of connection points: 2
#     Edge 88, Type (0, 0), BuildingBlock: CIFDUS_clean_linker_0, # of connection points: 2
#     Edge 89, Type (0, 0), BuildingBlock: CIFDUS_clean_linker_0, # of connection points: 2
#     Edge 90, Type (0, 0), BuildingBlock: CIFDUS_clean_linker_0, # of connection points: 2
#     Edge 91, Type (0, 0), BuildingBlock: CIFDUS_clean_linker_0, # of connection points: 2
#     Edge 92, Type (0, 0), BuildingBlock: CIFDUS_clean_linker_0, # of connection points: 2
#     Edge 93, Type (0, 0), BuildingBlock: CIFDUS_clean_linker_0, # of connection points: 2
#     Edge 94, Type (0, 0), BuildingBlock: CIFDUS_clean_linker_0, # of connection points: 2
#     Edge 95, Type (0, 0), BuildingBlock: CIFDUS_clean_linker_0, # of connection points: 2
#     Edge 96, Type (0, 0), BuildingBlock: CIFDUS_clean_linker_0, # of connection points: 2
#     Edge 97, Type (0, 0), BuildingBlock: CIFDUS_clean_linker_0, # of connection points: 2
#     Edge 98, Type (0, 0), BuildingBlock: CIFDUS_clean_linker_0, # of connection points: 2
#     Edge 99, Type (0, 0), BuildingBlock: CIFDUS_clean_linker_0, # of connection points: 2
#     Edge 100, Type (0, 0), BuildingBlock: CIFDUS_clean_linker_0, # of connection points: 2
#     Edge 101, Type (0, 0), BuildingBlock: CIFDUS_clean_linker_0, # of connection points: 2
#     Edge 102, Type (0, 0), BuildingBlock: CIFDUS_clean_linker_0, # of connection points: 2
#     Edge 103, Type (0, 0), BuildingBlock: CIFDUS_clean_linker_0, # of connection points: 2
#     Edge 104, Type (0, 0), BuildingBlock: CIFDUS_clean_linker_0, # of connection points: 2
#     Edge 105, Type (0, 0), BuildingBlock: CIFDUS_clean_linker_0, # of connection points: 2
#     Edge 106, Type (0, 0), BuildingBlock: CIFDUS_clean_linker_0, # of connection points: 2
#     Edge 107, Type (0, 0), BuildingBlock: CIFDUS_clean_linker_0, # of connection points: 2
# Relax obj value: 0.008
# Max RMSD: 0.156
# Mean RMSD: 0.156
data_MOF--net-uns--node1-NAWXER_clean_sbu_0--edge1-CIFDUS_clean_linker_0
_symmetry_space_group_name_H-M    P1
_symmetry_Int_Tables_number       1
_symmetry_cell_setting            triclinic
loop_
_symmetry_equiv_pos_as_xyz
'x, y, z'
_cell_length_a     52.416797
_cell_length_b     52.643794
_cell_length_c     39.956854
_cell_angle_alpha  89.907103
_cell_angle_beta   90.017764
_cell_angle_gamma 120.03302
loop_
_atom_site_label
_atom_site_type_symbol
_atom_site_fract_x
_atom_site_fract_y
_atom_site_fract_z
_atom_type_partial_charge
C0 C 0.30052 0.19672 0.10189 0.0
C1 C 0.21978 0.20531 0.05199 0.0
O2 O 0.27758 0.19352 0.11669 0.0
Zn3 Zn 0.25977 0.20103 0.07833 0.0
O4 O 0.3041 0.20305 0.07059 0.0
Zn5 Zn 0.28129 0.21081 0.03059 0.0
O6 O 0.30835 0.25131 0.01823 0.0
O7 O 0.29017 0.24609 0.06926 0.0
O8 O 0.23991 0.20914 0.03109 0.0
O9 O 0.2224 0.20052 0.08264 0.0
O10 O 0.24958 0.16385 0.04761 0.0
O11 O 0.27373 0.17968 0.99978 0.0
C12 C 0.30712 0.26254 0.04589 0.0
C13 C 0.25622 0.15856 0.01856 0.0
C14 C 0.81794 0.01248 0.0638 0.0
C15 C 0.83089 0.10103 0.11764 0.0
O16 O 0.82457 0.02061 0.09396 0.0
Zn17 Zn 0.82558 0.05767 0.09009 0.0
O18 O 0.81496 0.02935 0.04293 0.0
Zn19 Zn 0.81722 0.07133 0.04409 0.0
O20 O 0.84877 0.09474 0.01342 0.0
O21 O 0.86443 0.0855 0.06061 0.0
O22 O 0.82516 0.10067 0.08628 0.0
O23 O 0.83314 0.08004 0.13015 0.0
O24 O 0.77991 0.04435 0.08069 0.0
O25 O 0.77789 0.06083 0.0305 0.0
C26 C 0.86994 0.09795 0.03176 0.0
C27 C 0.76488 0.04691 0.05691 0.0
C28 C 0.9205 0.77422 0.02923 0.0
C29 C 0.97138 0.7219 0.06122 0.0
O30 O 0.92392 0.75571 0.01241 0.0
Zn31 Zn 0.947 0.74897 0.04487 0.0
O32 O 0.93238 0.78201 0.05829 0.0
Zn33 Zn 0.95946 0.77203 0.09032 0.0
O34 O 0.99624 0.80837 0.09407 0.0
O35 O 0.98862 0.78919 0.04355 0.0
O36 O 0.97329 0.73996 0.08395 0.0
O37 O 0.95824 0.72037 0.03394 0.0
O38 O 0.91675 0.72828 0.0865 0.0
O39 O 0.9359 0.75789 0.12983 0.0
C40 C 1.00487 0.80961 0.06415 0.0
C41 C 0.91546 0.73418 0.11745 0.0
C42 C 0.15815 0.24348 0.47335 0.0
C43 C 0.25505 0.2878 0.42151 0.0
O44 O 0.18272 0.26308 0.48498 0.0
Zn45 Zn 0.20678 0.26463 0.44795 0.0
O46 O 0.15725 0.23193 0.44476 0.0
Zn47 Zn 0.18862 0.23644 0.40661 0.0
O48 O 0.18739 0.19911 0.40596 0.0
O49 O 0.20692 0.22409 0.45225 0.0
O50 O 0.23527 0.26747 0.40321 0.0
O51 O 0.24799 0.29315 0.44996 0.0
O52 O 0.19211 0.28127 0.4071 0.0
O53 O 0.17416 0.24712 0.36799 0.0
C54 C 0.19912 0.20117 0.43436 0.0
C55 C 0.18031 0.27243 0.37816 0.0
C56 C 0.80249 0.99413 0.46104 0.0
C57 C 0.73621 0.90606 0.39921 0.0
O58 O 0.80571 0.98684 0.43176 0.0
Zn59 Zn 0.76938 0.94992 0.43019 0.0
O60 O 0.77919 0.97731 0.47783 0.0
Zn61 Zn 0.73926 0.93629 0.47045 0.0
O62 O 0.74101 0.91265 0.50638 0.0
O63 O 0.77489 0.92341 0.4676 0.0
O64 O 0.7256 0.90693 0.4279 0.0
O65 O 0.76149 0.92674 0.39064 0.0
O66 O 0.73696 0.9634 0.42673 0.0
O67 O 0.70953 0.9478 0.47225 0.0
C68 C 0.76271 0.91074 0.49529 0.0
C69 C 0.7156 0.96132 0.44442 0.0
C70 C 0.02087 0.81034 0.43559 0.0
C71 C 0.11288 0.82293 0.38932 0.0
O72 O 0.03046 0.81734 0.40586 0.0
Zn73 Zn 0.06766 0.81816 0.41238 0.0
O74 O 0.03672 0.80691 0.45756 0.0
Zn75 Zn 0.07832 0.80847 0.45998 0.0
O76 O 0.10047 0.83949 0.49171 0.0
O77 O 0.09397 0.85598 0.44355 0.0
O78 O 0.11001 0.81666 0.42067 0.0
O79 O 0.09317 0.82604 0.37439 0.0
O80 O 0.05335 0.77259 0.4213 0.0
O81 O 0.06631 0.76859 0.47274 0.0
C82 C 0.1049 0.86095 0.47319 0.0
C83 C 0.05413 0.75667 0.44517 0.0
C84 C 0.77406 0.86065 0.97393 0.0
C85 C 0.72193 0.758 0.93827 0.0
O86 O 0.78142 0.85685 0.94454 0.0
Zn87 Zn 0.77173 0.82113 0.91127 0.0
O88 O 0.75608 0.83851 0.99114 0.0
Zn89 Zn 0.74889 0.80886 0.95789 0.0
O90 O 0.78954 0.80881 0.95749 0.0
O91 O 0.8086 0.82111 0.90686 0.0
O92 O 0.72039 0.7678 0.96682 0.0
O93 O 0.73988 0.77557 0.91626 0.0
O94 O 0.75611 0.83139 0.87318 0.0
O95 O 0.72787 0.81963 0.91816 0.0
C96 C 0.81009 0.81361 0.93671 0.0
C97 C 0.73279 0.82777 0.88739 0.0
C98 C 0.20845 1.00279 0.93849 0.0
C99 C 0.19495 0.91255 0.89064 0.0
O100 O 0.21179 0.98697 0.96054 0.0
Zn101 Zn 0.20963 0.94515 0.96233 0.0
O102 O 0.20141 0.99334 0.90882 0.0
Zn103 Zn 0.20054 0.95679 0.9154 0.0
O104 O 0.16226 0.93053 0.94603 0.0
O105 O 0.1786 0.92312 0.99383 0.0
O106 O 0.19244 0.93294 0.87686 0.0
O107 O 0.20115 0.91416 0.92198 0.0
O108 O 0.2491 0.95622 0.9759 0.0
O109 O 0.24618 0.97032 0.92464 0.0
C110 C 0.15719 0.91929 0.9755 0.0
C111 C 0.26159 0.96882 0.94871 0.0
C112 C 0.10447 0.25217 0.9927 0.0
C113 C 0.05302 0.29769 0.94043 0.0
O114 O 0.09524 0.24245 0.9631 0.0
Zn115 Zn 0.07078 0.24883 0.9239 0.0
O116 O 0.0989 0.271 0.00537 0.0
Zn117 Zn 0.07763 0.27425 0.96766 0.0
O118 O 0.03763 0.23259 0.96764 0.0
O119 O 0.03507 0.21107 0.91946 0.0
O120 O 0.06314 0.30157 0.97006 0.0
O121 O 0.05453 0.27888 0.92146 0.0
O122 O 0.09881 0.26334 0.88748 0.0
O123 O 0.11137 0.29437 0.92965 0.0
C124 C 0.02389 0.21076 0.94777 0.0
C125 C 0.11666 0.28808 0.90037 0.0
C126 C 0.86685 0.76765 0.52164 0.0
C127 C 0.76455 0.71762 0.56236 0.0
O128 O 0.86341 0.77603 0.55058 0.0
Zn129 Zn 0.82883 0.76799 0.58494 0.0
O130 O 0.84436 0.74905 0.50527 0.0
Zn131 Zn 0.81497 0.74318 0.53913 0.0
O132 O 0.81567 0.78385 0.53757 0.0
O133 O 0.82871 0.80496 0.58717 0.0
O134 O 0.773 0.71455 0.53353 0.0
O135 O 0.78327 0.73657 0.58262 0.0
O136 O 0.84015 0.75317 0.62318 0.0
O137 O 0.82682 0.72389 0.57918 0.0
C138 C 0.82089 0.80516 0.5571 0.0
C139 C 0.83587 0.72949 0.60954 0.0
C140 C 0.28917 0.10374 0.61497 0.0
C141 C 0.21394 0.01393 0.56128 0.0
O142 O 0.29514 0.10292 0.58391 0.0
Zn143 Zn 0.27436 0.07264 0.54218 0.0
O144 O 0.26566 0.08278 0.62726 0.0
Zn145 Zn 0.25132 0.0595 0.58768 0.0
O146 O 0.28363 0.04612 0.58043 0.0
O147 O 0.30345 0.06197 0.53058 0.0
O148 O 0.215 0.02238 0.59124 0.0
O149 O 0.23432 0.03057 0.54071 0.0
O150 O 0.26667 0.09533 0.5101 0.0
O151 O 0.24065 0.08639 0.55645 0.0
C152 C 0.30178 0.04836 0.55752 0.0
C153 C 0.24808 0.09837 0.52742 0.0
C154 C 0.91433 0.18678 0.60827 0.0
C155 C 0.9997 0.2042 0.54185 0.0
O156 O 0.91363 0.19583 0.57858 0.0
Zn157 Zn 0.9412 0.20877 0.53424 0.0
O158 O 0.93593 0.18364 0.61692 0.0
Zn159 Zn 0.95717 0.1959 0.57542 0.0
O160 O 0.97041 0.24177 0.57413 0.0
O161 O 0.95194 0.24903 0.52786 0.0
O162 O 0.99435 0.19642 0.57231 0.0
O163 O 0.98174 0.20922 0.52531 0.0
O164 O 0.91612 0.18146 0.50121 0.0
O165 O 0.92818 0.16092 0.54187 0.0
C166 C 0.96694 0.25906 0.55444 0.0
C167 C 0.91435 0.15871 0.5145 0.0
C168 C 0.96068 0.52095 0.4434 0.0
C169 C 0.88293 0.53478 0.39333 0.0
O170 O 0.93778 0.5184 0.45758 0.0
Zn171 Zn 0.92153 0.52746 0.41895 0.0
O172 O 0.96509 0.52777 0.41222 0.0
Zn173 Zn 0.94333 0.5374 0.37213 0.0
O174 O 0.97187 0.57739 0.36053 0.0
O175 O 0.9534 0.573 0.4112 0.0
O176 O 0.90296 0.53841 0.37232 0.0
O177 O 0.8849 0.52827 0.42349 0.0
O178 O 0.91019 0.49012 0.38712 0.0
O179 O 0.93504 0.50699 0.33996 0.0
C180 C 0.97091 0.5891 0.38794 0.0
C181 C 0.91687 0.48546 0.35773 0.0
C182 C 0.48424 0.34473 0.39749 0.0
C183 C 0.49767 0.43821 0.43886 0.0
O184 O 0.49195 0.3551 0.42681 0.0
Zn185 Zn 0.49206 0.39182 0.41919 0.0
O186 O 0.47945 0.35945 0.37533 0.0
Zn187 Zn 0.47936 0.3997 0.37108 0.0
O188 O 0.50912 0.42069 0.33718 0.0
O189 O 0.52769 0.41645 0.38509 0.0
O190 O 0.48962 0.43319 0.40811 0.0
O191 O 0.50186 0.41975 0.45508 0.0
O192 O 0.44641 0.37743 0.41362 0.0
O193 O 0.438 0.38616 0.36188 0.0
C194 C 0.53142 0.42609 0.35494 0.0
C195 C 0.42853 0.37641 0.39112 0.0
C196 C 0.58614 0.10509 0.3676 0.0
C197 C 0.6345 0.05281 0.41059 0.0
O198 O 0.58884 0.08515 0.35293 0.0
Zn199 Zn 0.61166 0.07979 0.38758 0.0
O200 O 0.59828 0.1145 0.39626 0.0
Zn201 Zn 0.62458 0.10623 0.43119 0.0
O202 O 0.66239 0.14224 0.43212 0.0
O203 O 0.65346 0.11936 0.3837 0.0
O204 O 0.6365 0.07279 0.43049 0.0
O205 O 0.6224 0.04963 0.38214 0.0
O206 O 0.58099 0.06297 0.42938 0.0
O207 O 0.60022 0.09505 0.47057 0.0
C208 C 0.67038 0.1411 0.40243 0.0
C209 C 0.57943 0.07089 0.45937 0.0
C210 C 0.82566 0.5842 0.81881 0.0
C211 C 0.92944 0.63239 0.78483 0.0
O212 O 0.84774 0.6014 0.83666 0.0
Zn213 Zn 0.87801 0.60745 0.80428 0.0
O214 O 0.82977 0.57661 0.78972 0.0
Zn215 Zn 0.86573 0.58455 0.75745 0.0
O216 O 0.86426 0.54686 0.75411 0.0
O217 O 0.87554 0.56592 0.80478 0.0
O218 O 0.91152 0.6148 0.76292 0.0
O219 O 0.91976 0.63451 0.81327 0.0
O220 O 0.86908 0.62922 0.7641 0.0
O221 O 0.8571 0.60122 0.71905 0.0
C222 C 0.8704 0.54511 0.78449 0.0
C223 C 0.86145 0.62474 0.73319 0.0
C224 C 0.39419 0.29883 0.7632 0.0
C225 C 0.44099 0.24383 0.80196 0.0
O226 O 0.38878 0.28441 0.79038 0.0
Zn227 Zn 0.41842 0.27272 0.78513 0.0
O228 O 0.41523 0.30176 0.74431 0.0
Zn229 Zn 0.4478 0.28884 0.74316 0.0
O230 O 0.43749 0.26729 0.70107 0.0
O231 O 0.40371 0.24622 0.74052 0.0
O232 O 0.45246 0.25848 0.77504 0.0
O233 O 0.4208 0.24613 0.81688 0.0
O234 O 0.45836 0.31233 0.7947 0.0
O235 O 0.48476 0.32621 0.74841 0.0
C236 C 0.41258 0.24629 0.71056 0.0
C237 C 0.48167 0.33069 0.77902 0.0
C238 C 0.77782 0.19542 0.80608 0.0
C239 C 0.72494 0.09164 0.77483 0.0
O240 O 0.77702 0.17416 0.82213 0.0
Zn241 Zn 0.75077 0.14338 0.79184 0.0
O242 O 0.76267 0.1904 0.77918 0.0
Zn243 Zn 0.73271 0.1531 0.74957 0.0
O244 O 0.69539 0.15208 0.75359 0.0
O245 O 0.70998 0.14215 0.80109 0.0
O246 O 0.72054 0.1078 0.75432 0.0
O247 O 0.74074 0.10316 0.80065 0.0
O248 O 0.7765 0.15384 0.74616 0.0
O249 O 0.75235 0.16289 0.70697 0.0
C250 C 0.69111 0.14577 0.78452 0.0
C251 C 0.77456 0.16082 0.71581 0.0
C252 C 0.44403 0.19345 0.30936 0.0
C253 C 0.3911 0.09255 0.26669 0.0
O254 O 0.45181 0.19037 0.2799 0.0
Zn255 Zn 0.44234 0.15646 0.24433 0.0
O256 O 0.42517 0.17092 0.32545 0.0
Zn257 Zn 0.41807 0.14224 0.29048 0.0
O258 O 0.45828 0.14148 0.29011 0.0
O259 O 0.47898 0.15553 0.24038 0.0
O260 O 0.38876 0.10068 0.29596 0.0
O261 O 0.40995 0.11123 0.24623 0.0
O262 O 0.42753 0.1691 0.20723 0.0
O263 O 0.39859 0.15549 0.25171 0.0
C264 C 0.47932 0.14667 0.26991 0.0
C265 C 0.40408 0.16514 0.22154 0.0
C266 C 0.86478 0.33283 0.26575 0.0
C267 C 0.84656 0.24291 0.20995 0.0
O268 O 0.87009 0.31648 0.28492 0.0
Zn269 Zn 0.86818 0.27489 0.28196 0.0
O270 O 0.85508 0.32413 0.23641 0.0
Zn271 Zn 0.85441 0.28706 0.2381 0.0
O272 O 0.81947 0.26002 0.27248 0.0
O273 O 0.84003 0.25196 0.31635 0.0
O274 O 0.84254 0.2632 0.19855 0.0
O275 O 0.85573 0.24454 0.24015 0.0
O276 O 0.9091 0.28619 0.28862 0.0
O277 O 0.90049 0.30043 0.23999 0.0
C278 C 0.81705 0.24824 0.30133 0.0
C279 C 0.91846 0.29883 0.26051 0.0
C280 C 0.76879 0.56893 0.29915 0.0
C281 C 0.7183 0.62038 0.2599 0.0
O282 O 0.75694 0.56008 0.27023 0.0
Zn283 Zn 0.72984 0.56844 0.23634 0.0
O284 O 0.76494 0.58774 0.31477 0.0
Zn285 Zn 0.74179 0.59338 0.2808 0.0
O286 O 0.70001 0.55352 0.28294 0.0
O287 O 0.69269 0.53209 0.23377 0.0
O288 O 0.73055 0.62287 0.28813 0.0
O289 O 0.7167 0.60121 0.23893 0.0
O290 O 0.75396 0.58106 0.19697 0.0
O291 O 0.77241 0.61216 0.23917 0.0
C292 C 0.68375 0.53231 0.26321 0.0
C293 C 0.7742 0.60521 0.20879 0.0
C294 C 0.50251 0.06251 0.94512 0.0
C295 C 0.4828 0.13349 0.89048 0.0
O296 O 0.49335 0.05454 0.91501 0.0
Zn297 Zn 0.48035 0.07255 0.87347 0.0
O298 O 0.50584 0.08663 0.95594 0.0
Zn299 Zn 0.49356 0.09808 0.91652 0.0
O300 O 0.44683 0.06556 0.91378 0.0
O301 O 0.44056 0.04309 0.86538 0.0
O302 O 0.49265 0.13411 0.91964 0.0
O303 O 0.47769 0.11222 0.87077 0.0
O304 O 0.50701 0.07769 0.83838 0.0
O305 O 0.52879 0.10751 0.88086 0.0
C306 C 0.42982 0.0463 0.8924 0.0
C307 C 0.53024 0.09785 0.85179 0.0
C308 C 0.95557 0.44649 0.93553 0.0
C309 C 0.88216 0.35162 0.88934 0.0
O310 O 0.96257 0.44158 0.90644 0.0
Zn311 Zn 0.94414 0.40756 0.86891 0.0
O312 O 0.93118 0.4277 0.94861 0.0
Zn313 Zn 0.91804 0.39953 0.9126 0.0
O314 O 0.95001 0.38564 0.91538 0.0
O315 O 0.97323 0.39518 0.8669 0.0
O316 O 0.8813 0.3626 0.91732 0.0
O317 O 0.9039 0.3663 0.86949 0.0
O318 O 0.93924 0.42741 0.83083 0.0
O319 O 0.91003 0.42251 0.8731 0.0
C320 C 0.9695 0.3851 0.89654 0.0
C321 C 0.91953 0.43183 0.84342 0.0
C322 C 0.57619 0.50901 0.95653 0.0
C323 C 0.66868 0.53176 0.90296 0.0
O324 O 0.57878 0.521 0.92774 0.0
Zn325 Zn 0.61077 0.53622 0.88707 0.0
O326 O 0.59576 0.50311 0.96607 0.0
Zn327 Zn 0.62122 0.51853 0.92807 0.0
O328 O 0.6357 0.56509 0.93141 0.0
O329 O 0.62212 0.57692 0.88436 0.0
O330 O 0.65819 0.51898 0.93068 0.0
O331 O 0.65327 0.53888 0.88434 0.0
O332 O 0.58979 0.51224 0.84931 0.0
O333 O 0.59677 0.4871 0.88876 0.0
C334 C 0.63463 0.58442 0.91274 0.0
C335 C 0.58642 0.48803 0.85991 0.0
C336 C 0.58363 0.82163 0.68086 0.0
C337 C 0.63832 0.92562 0.71161 0.0
O338 O 0.601 0.84314 0.66249 0.0
Zn339 Zn 0.61023 0.87387 0.6951 0.0
O340 O 0.57796 0.8265 0.71065 0.0
Zn341 Zn 0.59002 0.86364 0.74283 0.0
O342 O 0.55374 0.86399 0.75007 0.0
O343 O 0.56975 0.87463 0.69808 0.0
O344 O 0.62159 0.9092 0.73518 0.0
O345 O 0.63833 0.91429 0.68354 0.0
O346 O 0.63334 0.86435 0.73379 0.0
O347 O 0.60704 0.85453 0.78011 0.0
C348 C 0.55056 0.8707 0.72044 0.0
C349 C 0.62965 0.85736 0.76496 0.0
C350 C 0.1036 0.7113 0.75894 0.0
C351 C 0.20388 0.76101 0.71404 0.0
O352 O 0.11224 0.72361 0.73054 0.0
Zn353 Zn 0.15323 0.73452 0.73505 0.0
O354 O 0.12207 0.70964 0.77859 0.0
Zn355 Zn 0.16815 0.72281 0.77858 0.0
O356 O 0.18133 0.74741 0.81763 0.0
O357 O 0.16718 0.76524 0.77601 0.0
O358 O 0.20214 0.74944 0.74288 0.0
O359 O 0.18052 0.7571 0.69977 0.0
O360 O 0.15123 0.69311 0.73221 0.0
O361 O 0.1674 0.68573 0.78012 0.0
C362 C 0.17721 0.76753 0.80585 0.0
C363 C 0.15698 0.6769 0.75104 0.0
C364 C 0.30714 0.38476 0.73064 0.0
C365 C 0.25533 0.43165 0.68242 0.0
O366 O 0.29653 0.38157 0.70133 0.0
Zn367 Zn 0.28246 0.40905 0.70569 0.0
O368 O 0.30609 0.40324 0.75064 0.0
Zn369 Zn 0.29009 0.43374 0.75007 0.0
O370 O 0.26266 0.4188 0.78705 0.0
O371 O 0.24925 0.38843 0.74415 0.0
O372 O 0.26486 0.44089 0.7121 0.0
O373 O 0.26095 0.41318 0.66887 0.0
O374 O 0.32278 0.45034 0.70604 0.0
O375 O 0.32628 0.47135 0.7548 0.0
C376 C 0.24448 0.39431 0.77389 0.0
C377 C 0.33708 0.47182 0.7262 0.0
C378 C 0.48988 0.90475 0.13242 0.0
C379 C 0.59433 0.96107 0.10488 0.0
O380 O 0.511 0.92403 0.1497 0.0
Zn381 Zn 0.54232 0.93205 0.1188 0.0
O382 O 0.49535 0.89693 0.10411 0.0
Zn383 Zn 0.53418 0.90815 0.07432 0.0
O384 O 0.53714 0.87302 0.0731 0.0
O385 O 0.54695 0.89377 0.12282 0.0
O386 O 0.57953 0.94216 0.08213 0.0
O387 O 0.58123 0.96262 0.13087 0.0
O388 O 0.53233 0.95043 0.07508 0.0
O389 O 0.52504 0.92037 0.03307 0.0
C390 C 0.54466 0.87339 0.10335 0.0
C391 C 0.52625 0.94357 0.04406 0.0
C392 C 0.138 0.66287 0.11523 0.0
C393 C 0.05769 0.57604 0.06147 0.0
O394 O 0.13593 0.65603 0.08446 0.0
Zn395 Zn 0.0982 0.61953 0.08739 0.0
O396 O 0.11739 0.64627 0.13549 0.0
Zn397 Zn 0.07581 0.60677 0.13418 0.0
O398 O 0.08221 0.58208 0.16464 0.0
O399 O 0.10719 0.5908 0.11741 0.0
O400 O 0.05341 0.57771 0.09283 0.0
O401 O 0.08119 0.59594 0.04779 0.0
O402 O 0.06798 0.63493 0.09648 0.0
O403 O 0.04886 0.62018 0.14682 0.0
C404 C 0.09976 0.57828 0.14617 0.0
C405 C 0.05072 0.63385 0.11985 0.0
C406 C 0.38798 0.4257 0.11573 0.0
C407 C 0.43963 0.52479 0.1585 0.0
O408 O 0.40237 0.43534 0.14274 0.0
Zn409 Zn 0.4132 0.47538 0.1367 0.0
O410 O 0.38496 0.44329 0.096 0.0
Zn411 Zn 0.39865 0.48954 0.09555 0.0
O412 O 0.42104 0.50232 0.05454 0.0
O413 O 0.44134 0.4879 0.09293 0.0
O414 O 0.4267 0.52369 0.13075 0.0
O415 O 0.43747 0.50155 0.1707 0.0
O416 O 0.37228 0.47447 0.14448 0.0
O417 O 0.36123 0.48884 0.09755 0.0
C418 C 0.44159 0.49757 0.06333 0.0
C419 C 0.35479 0.47991 0.12756 0.0
C420 C 0.06185 0.49123 0.56987 0.0
C421 C 0.13872 0.47785 0.62361 0.0
O422 O 0.05671 0.48383 0.60084 0.0
Zn423 Zn 0.07711 0.47366 0.64169 0.0
O424 O 0.08519 0.49423 0.55633 0.0
Zn425 Zn 0.10064 0.48457 0.59549 0.0
O426 O 0.06876 0.43917 0.60193 0.0
O427 O 0.04872 0.43324 0.65201 0.0
O428 O 0.13771 0.48403 0.59304 0.0
O429 O 0.1178 0.47384 0.64338 0.0
O430 O 0.08406 0.50346 0.67404 0.0
O431 O 0.11059 0.52104 0.62795 0.0
C432 C 0.05064 0.42242 0.62435 0.0
C433 C 0.1029 0.52521 0.65701 0.0
C434 C 0.53561 0.667 0.59572 0.0
C435 C 0.52002 0.5733 0.55164 0.0
O436 O 0.54124 0.6522 0.61693 0.0
Zn437 Zn 0.54098 0.61167 0.61954 0.0
O438 O 0.52648 0.65655 0.56668 0.0
Zn439 Zn 0.52659 0.61977 0.57241 0.0
O440 O 0.49219 0.59475 0.6076 0.0
O441 O 0.51184 0.59009 0.65443 0.0
O442 O 0.51542 0.59178 0.53607 0.0
O443 O 0.52915 0.5784 0.582 0.0
O444 O 0.58281 0.62469 0.62557 0.0
O445 O 0.57234 0.63401 0.57516 0.0
C446 C 0.4891 0.58467 0.63748 0.0
C447 C 0.59114 0.63466 0.59609 0.0
C448 C 0.43408 0.90818 0.64001 0.0
C449 C 0.38242 0.96087 0.6131 0.0
O450 O 0.42063 0.90013 0.6118 0.0
Zn451 Zn 0.39207 0.90991 0.58221 0.0
O452 O 0.43159 0.92683 0.65772 0.0
Zn453 Zn 0.40698 0.93344 0.62737 0.0
O454 O 0.36548 0.89335 0.63115 0.0
O455 O 0.3546 0.87358 0.5809 0.0
O456 O 0.39656 0.9625 0.6396 0.0
O457 O 0.37935 0.9425 0.59021 0.0
O458 O 0.41414 0.92373 0.54133 0.0
O459 O 0.4355 0.95333 0.58418 0.0
C460 C 0.34786 0.87272 0.61156 0.0
C461 C 0.43547 0.94724 0.55304 0.0
C462 C 0.16627 0.3986 0.28308 0.0
C463 C 0.14823 0.47145 0.23034 0.0
O464 O 0.15561 0.39073 0.25347 0.0
Zn465 Zn 0.14238 0.40923 0.21283 0.0
O466 O 0.17171 0.4234 0.29421 0.0
Zn467 Zn 0.15854 0.43536 0.25586 0.0
O468 O 0.11185 0.40376 0.25629 0.0
O469 O 0.10125 0.38058 0.20786 0.0
O470 O 0.15918 0.47221 0.25889 0.0
O471 O 0.14145 0.44961 0.2109 0.0
O472 O 0.16838 0.41324 0.17661 0.0
O473 O 0.19174 0.44246 0.21903 0.0
C474 C 0.09294 0.3844 0.23635 0.0
C475 C 0.1923 0.43251 0.18988 0.0
C476 C 0.62051 0.76779 0.29273 0.0
C477 C 0.55159 0.68505 0.22485 0.0
O478 O 0.63022 0.76864 0.26298 0.0
Zn479 Zn 0.61531 0.74238 0.21787 0.0
O480 O 0.59533 0.74677 0.30116 0.0
Zn481 Zn 0.58605 0.72644 0.25926 0.0
O482 O 0.61787 0.71224 0.25776 0.0
O483 O 0.64435 0.73008 0.21184 0.0
O484 O 0.54903 0.69017 0.25533 0.0
O485 O 0.57485 0.70274 0.20855 0.0
O486 O 0.61313 0.76886 0.18576 0.0
O487 O 0.58117 0.75662 0.22718 0.0
C488 C 0.63864 0.71496 0.2385 0.0
C489 C 0.59267 0.77103 0.20014 0.0
C490 C 0.24354 0.84701 0.26612 0.0
C491 C 0.33667 0.86338 0.21856 0.0
O492 O 0.24883 0.85873 0.2369 0.0
Zn493 Zn 0.28272 0.87307 0.19913 0.0
O494 O 0.26176 0.84068 0.27933 0.0
Zn495 Zn 0.28985 0.85456 0.2429 0.0
O496 O 0.30587 0.90079 0.24557 0.0
O497 O 0.29681 0.91483 0.19717 0.0
O498 O 0.32572 0.85256 0.24697 0.0
O499 O 0.32276 0.87145 0.19883 0.0
O500 O 0.26146 0.84862 0.1614 0.0
O501 O 0.26514 0.82373 0.20378 0.0
C502 C 0.30712 0.92109 0.22671 0.0
C503 C 0.25579 0.82422 0.17421 0.0
H504 H 0.29984 0.18138 0.16733 0.0
H505 H 0.35205 0.20343 0.07712 0.0
H506 H 0.38888 0.19624 0.10604 0.0
H507 H 0.40609 0.18284 0.15673 0.0
H508 H 0.35363 0.16051 0.24678 0.0
H509 H 0.31737 0.1687 0.21817 0.0
C510 C 0.3193 0.18469 0.15401 0.0
C511 C 0.32304 0.19288 0.12008 0.0
C512 C 0.34046 0.18042 0.17075 0.0
C513 C 0.34846 0.19707 0.10325 0.0
C514 C 0.36962 0.19296 0.11976 0.0
C515 C 0.38678 0.17986 0.17013 0.0
C516 C 0.38267 0.17101 0.20385 0.0
C517 C 0.36581 0.18451 0.15348 0.0
C518 C 0.35744 0.16724 0.22078 0.0
C519 C 0.3366 0.17192 0.20445 0.0
H520 H 0.82367 0.14723 0.10039 0.0
H521 H 0.84664 0.11005 0.18353 0.0
H522 H 0.85304 0.15029 0.2193 0.0
H523 H 0.85253 0.19615 0.22706 0.0
H524 H 0.82941 0.23349 0.14425 0.0
H525 H 0.82258 0.19301 0.10841 0.0
C526 C 0.8301 0.14792 0.12632 0.0
C527 C 0.83472 0.12562 0.13917 0.0
C528 C 0.83368 0.17113 0.14689 0.0
C529 C 0.84294 0.12687 0.17291 0.0
C530 C 0.84661 0.1499 0.19344 0.0
C531 C 0.84593 0.19546 0.20119 0.0
C532 C 0.84153 0.2179 0.18842 0.0
C533 C 0.84208 0.17215 0.1807 0.0
C534 C 0.83295 0.21654 0.15481 0.0
C535 C 0.82907 0.1934 0.13424 0.0
H536 H 0.8194 0.65895 0.22588 0.0
H537 H 0.78519 0.59772 0.14365 0.0
H538 H 0.82571 0.6323 0.10812 0.0
H539 H 0.87062 0.68005 0.10026 0.0
H540 H 0.90466 0.74112 0.18268 0.0
H541 H 0.86432 0.70643 0.21818 0.0
C542 C 0.8208 0.65308 0.20022 0.0
C543 C 0.79925 0.62575 0.1875 0.0
C544 C 0.84407 0.67308 0.17988 0.0
C545 C 0.80146 0.61859 0.15414 0.0
C546 C 0.82461 0.63837 0.13376 0.0
C547 C 0.8692 0.68583 0.12596 0.0
C548 C 0.89065 0.71321 0.13872 0.0
C549 C 0.84598 0.66572 0.14634 0.0
C550 C 0.88849 0.72023 0.17215 0.0
C551 C 0.86542 0.70039 0.19252 0.0
H552 H 0.19385 0.32838 0.39145 0.0
H553 H 0.15502 0.26096 0.31594 0.0
H554 H 0.14767 0.29418 0.27969 0.0
H555 H 0.15244 0.34243 0.26937 0.0
H556 H 0.19131 0.40963 0.34517 0.0
H557 H 0.19856 0.37638 0.38125 0.0
C558 C 0.18368 0.32085 0.36711 0.0
C559 C 0.17497 0.29217 0.35649 0.0
C560 C 0.17964 0.34007 0.34635 0.0
C561 C 0.16191 0.2829 0.3248 0.0
C562 C 0.15774 0.3019 0.30401 0.0
C563 C 0.16259 0.34986 0.29373 0.0
C564 C 0.17134 0.37854 0.30447 0.0
C565 C 0.1666 0.33057 0.31449 0.0
C566 C 0.18435 0.38771 0.3362 0.0
C567 C 0.18849 0.36869 0.35691 0.0
H568 H 0.67593 0.81355 0.2834 0.0
H569 H 0.60595 0.77467 0.35651 0.0
H570 H 0.63586 0.81369 0.39609 0.0
H571 H 0.68152 0.85916 0.40961 0.0
H572 H 0.75141 0.89795 0.33637 0.0
H573 H 0.72181 0.85849 0.29722 0.0
C574 C 0.66717 0.81356 0.30799 0.0
C575 C 0.63868 0.79123 0.31691 0.0
C576 C 0.68446 0.83602 0.33062 0.0
C577 C 0.62778 0.79158 0.34895 0.0
C578 C 0.64487 0.81389 0.37161 0.0
C579 C 0.69035 0.85897 0.38513 0.0
C580 C 0.71865 0.88154 0.37596 0.0
C581 C 0.67319 0.83626 0.36267 0.0
C582 C 0.72971 0.88089 0.34412 0.0
C583 C 0.71279 0.85834 0.32167 0.0
H584 H 0.12612 0.83607 0.32331 0.0
H585 H 0.15801 0.8165 0.41381 0.0
H586 H 0.20061 0.82118 0.38366 0.0
H587 H 0.22935 0.8315 0.33168 0.0
H588 H 0.19758 0.85168 0.24148 0.0
H589 H 0.15451 0.84592 0.27139 0.0
C590 C 0.14237 0.83282 0.33647 0.0
C591 C 0.13881 0.826 0.37081 0.0
C592 C 0.16691 0.83558 0.319 0.0
C593 C 0.16014 0.82184 0.3874 0.0
C594 C 0.18455 0.82447 0.37016 0.0
C595 C 0.21292 0.83446 0.31852 0.0
C596 C 0.21678 0.84202 0.28437 0.0
C597 C 0.18821 0.83138 0.33596 0.0
C598 C 0.19529 0.84592 0.26778 0.0
C599 C 0.17059 0.84265 0.28487 0.0
H600 H 0.62871 0.84266 0.83043 0.0
H601 H 0.68042 0.86198 0.74011 0.0
H602 H 0.71698 0.85476 0.76988 0.0
H603 H 0.73431 0.84286 0.82164 0.0
H604 H 0.68222 0.82348 0.91172 0.0
H605 H 0.64593 0.83087 0.88191 0.0
C606 C 0.64796 0.8453 0.8172 0.0
C607 C 0.65174 0.85284 0.78307 0.0
C608 C 0.66892 0.84112 0.83444 0.0
C609 C 0.67688 0.85616 0.76639 0.0
C610 C 0.69785 0.85205 0.7834 0.0
C611 C 0.71505 0.84029 0.83476 0.0
C612 C 0.71108 0.83262 0.86889 0.0
C613 C 0.6941 0.84452 0.81744 0.0
C614 C 0.68591 0.82935 0.88546 0.0
C615 C 0.66508 0.83357 0.86844 0.0
H616 H 0.20218 0.86701 0.9107 0.0
H617 H 0.17874 0.90139 0.82517 0.0
H618 H 0.1719 0.85993 0.79156 0.0
H619 H 0.17199 0.81393 0.78642 0.0
H620 H 0.19528 0.77884 0.87132 0.0
H621 H 0.20292 0.82078 0.90518 0.0
C622 C 0.19556 0.86542 0.88472 0.0
C623 C 0.19091 0.88726 0.87054 0.0
C624 C 0.1917 0.84148 0.86541 0.0
C625 C 0.18245 0.88492 0.83678 0.0
C626 C 0.17854 0.86121 0.81749 0.0
C627 C 0.1788 0.81539 0.81232 0.0
C628 C 0.183 0.79323 0.82633 0.0
C629 C 0.18304 0.83938 0.83156 0.0
C630 C 0.19191 0.79561 0.85991 0.0
C631 C 0.19623 0.81954 0.8793 0.0
H632 H 0.13073 0.28592 0.83504 0.0
H633 H 0.16104 0.34056 0.92312 0.0
H634 H 0.20273 0.37839 0.89182 0.0
H635 H 0.2306 0.3963 0.83934 0.0
H636 H 0.20022 0.3417 0.75122 0.0
H637 H 0.15863 0.30381 0.78257 0.0
C638 C 0.14653 0.30602 0.84746 0.0
C639 C 0.1427 0.31028 0.88143 0.0
C640 C 0.17043 0.32788 0.82924 0.0
C641 C 0.16337 0.3366 0.89701 0.0
C642 C 0.18725 0.35834 0.87911 0.0
C643 C 0.21482 0.37618 0.82693 0.0
C644 C 0.2186 0.37197 0.79292 0.0
C645 C 0.19094 0.3543 0.84517 0.0
C646 C 0.19794 0.34563 0.77735 0.0
C647 C 0.17411 0.32385 0.79528 0.0
H648 H 0.851 0.73096 0.67529 0.0
H649 H 0.83114 0.67898 0.58538 0.0
H650 H 0.83727 0.64217 0.61543 0.0
H651 H 0.84771 0.62418 0.6673 0.0
H652 H 0.86751 0.67592 0.75735 0.0
H653 H 0.86194 0.71311 0.7272 0.0
C654 C 0.84811 0.71164 0.66226 0.0
C655 C 0.84058 0.70782 0.62815 0.0
C656 C 0.85157 0.69034 0.67972 0.0
C657 C 0.83689 0.68257 0.61167 0.0
C658 C 0.84037 0.66141 0.62882 0.0
C659 C 0.8508 0.64358 0.68034 0.0
C660 C 0.85797 0.64715 0.71453 0.0
C661 C 0.84759 0.66498 0.66287 0.0
C662 C 0.86196 0.67251 0.73101 0.0
C663 C 0.85879 0.69387 0.7138 0.0
H664 H 0.35976 0.19887 0.72539 0.0
H665 H 0.42189 0.23858 0.64437 0.0
H666 H 0.3892 0.19808 0.60744 0.0
H667 H 0.34265 0.15125 0.59834 0.0
H668 H 0.28137 0.11245 0.68043 0.0
H669 H 0.31412 0.15284 0.71664 0.0
C670 C 0.36629 0.19881 0.69966 0.0
C671 C 0.39332 0.22185 0.68773 0.0
C672 C 0.34747 0.17556 0.67869 0.0
C673 C 0.40126 0.22118 0.65427 0.0
C674 C 0.38254 0.19801 0.63313 0.0
C675 C 0.33646 0.15165 0.62414 0.0
C676 C 0.30948 0.12874 0.63654 0.0
C677 C 0.35554 0.17507 0.64507 0.0
C678 C 0.3019 0.12967 0.6701 0.0
C679 C 0.32065 0.1528 0.69091 0.0
H680 H 0.86487 0.19018 0.59718 0.0
H681 H 0.90964 0.16893 0.67341 0.0
H682 H 0.87036 0.15897 0.71316 0.0
H683 H 0.82357 0.15662 0.72647 0.0
H684 H 0.77866 0.17773 0.65029 0.0
H685 H 0.81778 0.1874 0.61037 0.0
C686 C 0.86607 0.18335 0.62247 0.0
C687 C 0.89025 0.18036 0.63224 0.0
C688 C 0.84339 0.17764 0.64525 0.0
C689 C 0.89133 0.17143 0.66515 0.0
C690 C 0.86887 0.16573 0.68794 0.0
C691 C 0.82228 0.16332 0.70114 0.0
C692 C 0.79817 0.16647 0.69146 0.0
C693 C 0.84484 0.16883 0.67829 0.0
C694 C 0.79692 0.17513 0.65847 0.0
C695 C 0.81931 0.18068 0.6356 0.0
H696 H 0.95873 0.5065 0.50941 0.0
H697 H 1.01163 0.52493 0.42021 0.0
H698 H 0.04753 0.51754 0.45113 0.0
H699 H 0.06414 0.50581 0.50363 0.0
H700 H 1.01098 0.48734 0.59266 0.0
H701 H 0.97523 0.49478 0.5617 0.0
C702 C 0.97809 0.5089 0.49669 0.0
C703 C 0.98235 0.51627 0.46248 0.0
C704 C 0.99875 0.50462 0.51463 0.0
C705 C 1.00766 0.51927 0.4465 0.0
C706 C 0.02829 0.51505 0.46418 0.0
C707 C 0.04475 0.50343 0.51628 0.0
C708 C 0.04039 0.49602 0.55049 0.0
C709 C 0.02409 0.50772 0.49827 0.0
C710 C 0.01504 0.49302 0.56638 0.0
C711 C 0.99449 0.49727 0.54868 0.0
H712 H 0.51009 0.45427 0.50434 0.0
H713 H 0.49306 0.48265 0.40971 0.0
H714 H 0.49778 0.52651 0.43607 0.0
H715 H 0.5069 0.55713 0.48605 0.0
H716 H 0.52392 0.52852 0.58056 0.0
H717 H 0.51893 0.48464 0.5542 0.0
C718 C 0.50749 0.47007 0.48945 0.0
C719 C 0.50127 0.46511 0.4551 0.0
C720 C 0.51013 0.49529 0.50476 0.0
C721 C 0.49786 0.48583 0.43624 0.0
C722 C 0.50053 0.51098 0.45128 0.0
C723 C 0.50939 0.54124 0.50089 0.0
C724 C 0.51579 0.54623 0.53522 0.0
C725 C 0.50662 0.51595 0.48555 0.0
C726 C 0.51904 0.52538 0.55405 0.0
C727 C 0.51621 0.5002 0.53901 0.0
H728 H 0.53166 0.01849 0.44275 0.0
H729 H 0.56991 0.07953 0.52468 0.0
H730 H 0.52878 0.04679 0.56069 0.0
H731 H 0.48234 1.00051 0.56923 0.0
H732 H 0.44412 0.9396 0.48717 0.0
H733 H 0.48489 0.97266 0.451 0.0
C734 C 0.53102 0.02473 0.46845 0.0
C735 C 0.55394 0.05148 0.48094 0.0
C736 C 0.50732 1.00577 0.48908 0.0
C737 C 0.55262 0.05912 0.51434 0.0
C738 C 0.5291 0.04037 0.53501 0.0
C739 C 0.48289 0.99443 0.54343 0.0
C740 C 0.46016 0.96752 0.53103 0.0
C741 C 0.5064 0.01358 0.52269 0.0
C742 C 0.46126 0.96012 0.49746 0.0
C743 C 0.4846 0.97903 0.47671 0.0
H744 H 0.49843 0.00996 0.93036 0.0
H745 H 0.52025 0.07258 0.01035 0.0
H746 H 0.52937 0.04143 0.0478 0.0
H747 H 0.53089 0.9963 0.05822 0.0
H748 H 0.50946 0.93369 0.97834 0.0
H749 H 0.50048 0.96492 0.94067 0.0
C750 C 0.50523 0.01683 0.95596 0.0
C751 C 0.5086 0.04361 0.96743 0.0
C752 C 0.51048 0.99878 0.9775 0.0
C753 C 0.51746 0.05212 1.00074 0.0
C754 C 0.52268 0.03429 0.02226 0.0
C755 C 0.52423 0.98944 0.03258 0.0
C756 C 0.52082 0.96262 0.02123 0.0
C757 C 0.51919 0.00754 0.01096 0.0
C758 C 0.51227 0.95419 0.98784 0.0
C759 C 0.50712 0.97205 0.96622 0.0
H760 H 0.95171 0.46088 1.00015 0.0
H761 H 1.00701 0.4925 0.91235 0.0
H762 H 0.04312 0.53555 0.94313 0.0
H763 H 0.05985 0.56369 0.99547 0.0
H764 H 1.00477 0.53158 0.08342 0.0
H765 H 0.96794 0.48946 0.0521 0.0
C766 C 0.97156 0.47727 0.98767 0.0
C767 C 0.97657 0.47335 0.95399 0.0
C768 C 0.99245 0.50192 0.0056 0.0
C769 C 1.00253 0.49484 0.93828 0.0
C770 C 0.02327 0.51951 0.95587 0.0
C771 C 0.03976 0.54754 0.00777 0.0
C772 C 0.03522 0.55085 0.04181 0.0
C773 C 0.0186 0.52318 0.98963 0.0
C774 C 1.00899 0.52964 0.05729 0.0
C775 C 0.98783 0.50548 0.03939 0.0
H776 H 0.53316 0.52314 0.94669 0.0
H777 H 0.5641 0.48291 0.01801 0.0
H778 H 0.52561 0.47628 0.05717 0.0
H779 H 0.48372 0.48246 0.07175 0.0
H780 H 0.45216 0.5223 1.00076 0.0
H781 H 0.4904 0.5286 0.96106 0.0
C782 C 0.53138 0.51276 0.97071 0.0
C783 C 0.55158 0.50356 0.9793 0.0
C784 C 0.5092 0.5091 0.99332 0.0
C785 C 0.54893 0.49023 0.01064 0.0
C786 C 0.52694 0.48647 0.03315 0.0
C787 C 0.48521 0.49263 0.04765 0.0
C788 C 0.46513 0.50202 0.03938 0.0
C789 C 0.50709 0.49599 0.02486 0.0
C790 C 0.46733 0.51492 0.00787 0.0
C791 C 0.48919 0.5185 0.9851 0.0
H792 H 0.20933 0.02369 1.0004 0.0
H793 H 0.22213 0.04877 0.89624 0.0
H794 H 0.23784 0.09948 0.91164 0.0
H795 H 0.25039 0.13717 0.95517 0.0
H796 H 0.23566 0.11096 0.05904 0.0
H797 H 0.2183 0.06025 0.04325 0.0
C798 C 0.21537 0.04022 0.98105 0.0
C799 C 0.21482 0.0326 0.94731 0.0
C800 C 0.22423 0.06917 0.99004 0.0
C801 C 0.22234 0.05413 0.92245 0.0
C802 C 0.23148 0.08314 0.93123 0.0
C803 C 0.2433 0.1203 0.97426 0.0
C804 C 0.24452 0.12782 0.00819 0.0
C805 C 0.23294 0.091 0.965 0.0
C806 C 0.23491 0.10573 0.03271 0.0
C807 C 0.22503 0.07672 0.02375 0.0
H808 H 1.00399 0.19198 0.01058 0.0
H809 H 0.97815 0.17471 0.90692 0.0
H810 H 0.92813 0.13764 0.92362 0.0
H811 H 0.89104 0.11215 0.96802 0.0
H812 H 0.91807 0.12768 0.07149 0.0
H813 H 0.96833 0.16329 0.05457 0.0
C814 C 0.98744 0.17994 0.99165 0.0
C815 C 0.99463 0.18624 0.95759 0.0
C816 C 0.95893 0.15843 0.00142 0.0
C817 C 0.97313 0.1702 0.93331 0.0
C818 C 0.94451 0.14912 0.94285 0.0
C819 C 0.90801 0.12321 0.98681 0.0
C820 C 0.90079 0.11747 0.02097 0.0
C821 C 0.93704 0.14336 0.97687 0.0
C822 C 0.92306 0.13166 0.04504 0.0
C823 C 0.95179 0.15212 0.03539 0.0
H824 H 0.9057 0.77674 0.96436 0.0
H825 H 0.89296 0.79718 0.06538 0.0
H826 H 0.85873 0.81246 0.04533 0.0
H827 H 0.83032 0.8174 0.9997 0.0
H828 H 0.84413 0.79914 0.89823 0.0
H829 H 0.88033 0.78595 0.91777 0.0
C830 C 0.89553 0.7847 0.98191 0.0
C831 C 0.90164 0.78556 0.01634 0.0
C832 C 0.87609 0.79382 0.97015 0.0
C833 C 0.88864 0.79629 0.03877 0.0
C834 C 0.86899 0.80496 0.02735 0.0
C835 C 0.84142 0.81074 0.98183 0.0
C836 C 0.83438 0.80895 0.94764 0.0
C837 C 0.86225 0.80343 0.99319 0.0
C838 C 0.84922 0.80071 0.92469 0.0
C839 C 0.86978 0.79302 0.93587 0.0
H840 H 0.05306 0.22031 0.56989 0.0
H841 H 1.00614 0.19637 0.47604 0.0
H842 H 0.05054 0.20439 0.44697 0.0
H843 H 0.10319 0.22036 0.44766 0.0
H844 H 0.15148 0.24828 0.54045 0.0
H845 H 0.10618 0.23653 0.5705 0.0
C846 C 0.05257 0.2166 0.54315 0.0
C847 C 0.02641 0.2077 0.52513 0.0
C848 C 0.07846 0.22211 0.52639 0.0
C849 C 0.0261 0.20335 0.49041 0.0
C850 C 0.05145 0.20789 0.47377 0.0
C851 C 0.10374 0.22359 0.47452 0.0
C852 C 0.13058 0.23504 0.49183 0.0
C853 C 0.07783 0.21759 0.49143 0.0
C854 C 0.13106 0.23954 0.52655 0.0
C855 C 0.10517 0.23281 0.54375 0.0
H856 H 0.79254 0.83064 0.58681 0.0
H857 H 0.83898 0.8319 0.49725 0.0
H858 H 0.82675 0.86642 0.47106 0.0
H859 H 0.79983 0.89311 0.4719 0.0
H860 H 0.74977 0.8892 0.55941 0.0
H861 H 0.76627 0.85884 0.58809 0.0
C862 C 0.80042 0.83902 0.56185 0.0
C863 C 0.81684 0.82908 0.54401 0.0
C864 C 0.79228 0.858 0.54642 0.0
C865 C 0.82641 0.83945 0.51141 0.0
C866 C 0.81932 0.85905 0.4964 0.0
C867 C 0.79269 0.88585 0.49736 0.0
C868 C 0.77353 0.89338 0.51343 0.0
C869 C 0.80175 0.86797 0.51338 0.0
C870 C 0.76438 0.88359 0.54637 0.0
C871 C 0.77387 0.86627 0.56282 0.0
H872 H 0.19587 0.99511 0.49775 0.0
H873 H 0.17941 0.96642 0.60066 0.0
H874 H 0.14378 0.91662 0.58269 0.0
H875 H 0.11897 0.88062 0.53746 0.0
H876 H 0.1339 0.91008 0.43476 0.0
H877 H 0.16827 0.96008 0.45292 0.0
C878 C 0.18435 0.97799 0.51626 0.0
C879 C 0.19047 0.98444 0.55048 0.0
C880 C 0.16366 0.94947 0.50577 0.0
C881 C 0.17509 0.96208 0.57416 0.0
C882 C 0.1548 0.93355 0.56389 0.0
C883 C 0.12964 0.89803 0.51909 0.0
C884 C 0.12401 0.89155 0.48479 0.0
C885 C 0.14917 0.9269 0.52974 0.0
C886 C 0.13777 0.91443 0.46132 0.0
C887 C 0.15753 0.94304 0.47167 0.0
H888 H 0.77761 0.87903 0.03869 0.0
H889 H 0.79555 0.9103 0.93669 0.0
H890 H 0.81157 0.96002 0.95554 0.0
H891 H 0.81867 0.99443 1.00054 0.0
H892 H 0.80308 0.96436 0.10295 0.0
H893 H 0.7883 0.91457 0.08448 0.0
C894 C 0.78514 0.89677 0.02067 0.0
C895 C 0.7852 0.89089 0.98633 0.0
C896 C 0.79478 0.92557 0.03172 0.0
C897 C 0.79533 0.91418 0.96328 0.0
C898 C 0.80443 0.94266 0.974 0.0
C899 C 0.81221 0.97702 0.01885 0.0
C900 C 0.81177 0.98304 0.05302 0.0
C901 C 0.804 0.94856 0.0081 0.0
C902 C 0.80367 0.96032 0.07647 0.0
C903 C 0.79507 0.9318 0.06591 0.0
H904 H 0.13786 0.90533 0.03971 0.0
H905 H 0.10776 0.89096 0.93727 0.0
H906 H 0.05767 0.85648 0.95578 0.0
H907 H 0.02299 0.8284 1.00078 0.0
H908 H 0.05241 0.84413 0.10342 0.0
H909 H 0.10214 0.88026 0.08515 0.0
C910 C 0.12028 0.89477 0.02148 0.0
C911 C 0.12655 0.90049 0.98717 0.0
C912 C 0.09144 0.87518 0.03231 0.0
C913 C 0.1035 0.88695 0.96384 0.0
C914 C 0.07487 0.86714 0.97438 0.0
C915 C 0.04026 0.83988 0.01915 0.0
C916 C 0.03413 0.83342 0.05335 0.0
C917 C 0.06868 0.86079 0.0085 0.0
C918 C 0.05659 0.84874 0.07693 0.0
C919 C 0.08505 0.8693 0.0665 0.0
H920 H 0.12523 0.21783 0.96902 0.0
H921 H 0.1251 0.26488 0.0573 0.0
H922 H 0.15838 0.25164 0.08529 0.0
H923 H 0.19073 0.22978 0.08285 0.0
H924 H 0.19257 0.18587 0.99262 0.0
H925 H 0.15515 0.19442 0.96744 0.0
C926 C 0.1322 0.22501 0.99451 0.0
C927 C 0.12277 0.24247 0.01093 0.0
C928 C 0.15172 0.21783 0.01013 0.0
C929 C 0.13213 0.25154 0.04397 0.0
C930 C 0.15117 0.24397 0.06001 0.0
C931 C 0.18244 0.22165 0.05796 0.0
C932 C 0.19427 0.20719 0.03959 0.0
C933 C 0.16153 0.22753 0.04312 0.0
C934 C 0.18379 0.19712 0.00716 0.0
C935 C 0.16246 0.20207 0.99271 0.0
H936 H 0.88591 0.76955 0.45694 0.0
H937 H 0.9163 0.78973 0.55913 0.0
H938 H 0.96639 0.80571 0.54132 0.0
H939 H 1.00154 0.81237 0.49752 0.0
H940 H 0.97312 0.79462 0.39471 0.0
H941 H 0.92258 0.77972 0.41183 0.0
C942 C 0.90356 0.77754 0.4752 0.0
C943 C 0.89724 0.77828 0.50934 0.0
C944 C 0.93274 0.78723 0.46471 0.0
C945 C 0.92043 0.78898 0.53268 0.0
C946 C 0.94917 0.79809 0.52257 0.0
C947 C 0.98434 0.80543 0.47879 0.0
C948 C 0.99103 0.80441 0.44496 0.0
C949 C 0.95554 0.79711 0.48876 0.0
C950 C 0.96855 0.79569 0.42095 0.0
C951 C 0.93962 0.787 0.43076 0.0
H952 H 0.20327 0.18726 0.4986 0.0
H953 H 0.20946 0.16405 0.39668 0.0
H954 H 0.22507 0.12987 0.41638 0.0
H955 H 0.23932 0.10843 0.46275 0.0
H956 H 0.23 0.12955 0.56463 0.0
H957 H 0.2132 0.16266 0.54485 0.0
C958 C 0.20784 0.17455 0.48073 0.0
C959 C 0.20546 0.17831 0.44626 0.0
C960 C 0.21638 0.1547 0.49225 0.0
C961 C 0.21106 0.16145 0.42336 0.0
C962 C 0.22014 0.14204 0.43461 0.0
C963 C 0.23348 0.12022 0.48055 0.0
C964 C 0.23614 0.1168 0.51506 0.0
C965 C 0.22327 0.13879 0.46899 0.0
C966 C 0.2281 0.13182 0.53793 0.0
C967 C 0.21859 0.15082 0.52664 0.0
H968 H 0.8361 0.04546 0.42838 0.0
H969 H 0.818 1.00575 0.52637 0.0
H970 H 0.85269 0.05304 0.55141 0.0
H971 H 0.88639 0.10605 0.5457 0.0
H972 H 0.90095 0.14669 0.44845 0.0
H973 H 0.86945 0.09874 0.42276 0.0
C974 C 0.84007 0.0472 0.45514 0.0
C975 C 0.82478 0.02228 0.47554 0.0
C976 C 0.85922 0.07462 0.46947 0.0
C977 C 0.82959 0.02475 0.51025 0.0
C978 C 0.84938 0.05174 0.52455 0.0
C979 C 0.88282 0.10433 0.51886 0.0
C980 C 0.89598 0.12974 0.49894 0.0
C981 C 0.86404 0.07687 0.50445 0.0
C982 C 0.8909 0.12736 0.46426 0.0
C983 C 0.87297 0.09999 0.44958 0.0
H984 H 0.9086 0.46662 0.29303 0.0
H985 H 0.89708 0.436 0.39515 0.0
H986 H 0.87901 0.38591 0.37571 0.0
H987 H 0.86846 0.35112 0.32981 0.0
H988 H 0.87733 0.38082 0.22756 0.0
H989 H 0.89411 0.43084 0.24688 0.0
C990 C 0.90203 0.44893 0.31097 0.0
C991 C 0.90441 0.45503 0.34546 0.0
C992 C 0.89114 0.42002 0.2996 0.0
C993 C 0.89544 0.43186 0.36846 0.0
C994 C 0.88517 0.40322 0.35737 0.0
C995 C 0.87387 0.36852 0.31176 0.0
C996 C 0.87187 0.36234 0.27733 0.0
C997 C 0.8832 0.3971 0.32303 0.0
C998 C 0.87861 0.385 0.25422 0.0
C999 C 0.88836 0.41364 0.26525 0.0
H1000 H 0.55011 0.4382 0.28985 0.0
H1001 H 0.58094 0.45685 0.39195 0.0
H1002 H 0.63074 0.4906 0.37258 0.0
H1003 H 0.66532 0.51638 0.32698 0.0
H1004 H 0.63592 0.49662 0.2246 0.0
H1005 H 0.58597 0.46162 0.24367 0.0
C1006 C 0.56779 0.44958 0.30778 0.0
C1007 C 0.56175 0.44512 0.34228 0.0
C1008 C 0.59666 0.46877 0.29645 0.0
C1009 C 0.58495 0.45979 0.36524 0.0
C1010 C 0.61347 0.4792 0.35422 0.0
C1011 C 0.64801 0.50429 0.30882 0.0
C1012 C 0.65424 0.50923 0.27447 0.0
C1013 C 0.61952 0.48406 0.31993 0.0
C1014 C 0.63168 0.49315 0.25123 0.0
C1015 C 0.60309 0.47324 0.26211 0.0
H1016 H 0.57154 0.10582 0.30181 0.0
H1017 H 0.55911 0.12958 0.40135 0.0
H1018 H 0.52617 0.14572 0.37955 0.0
H1019 H 0.499 0.15096 0.33299 0.0
H1020 H 0.51241 0.12988 0.23271 0.0
H1021 H 0.54715 0.11521 0.25385 0.0
C1022 C 0.56168 0.11465 0.31862 0.0
C1023 C 0.5676 0.11627 0.35319 0.0
C1024 C 0.543 0.12442 0.3058 0.0
C1025 C 0.55498 0.12811 0.37464 0.0
C1026 C 0.53606 0.13729 0.36223 0.0
C1027 C 0.5097 0.14336 0.31571 0.0
C1028 C 0.50299 0.14124 0.28142 0.0
C1029 C 0.52968 0.13526 0.32798 0.0
C1030 C 0.51731 0.13177 0.25924 0.0
C1031 C 0.53701 0.12321 0.27136 0.0
H1032 H 0.6912 0.54255 0.84018 0.0
H1033 H 0.71426 0.53941 0.9431 0.0
H1034 H 0.76527 0.55624 0.92662 0.0
H1035 H 0.80374 0.57288 0.88267 0.0
H1036 H 0.77911 0.57264 0.77958 0.0
H1037 H 0.7285 0.55629 0.79637 0.0
C1038 C 0.70737 0.54546 0.85899 0.0
C1039 C 0.699 0.53988 0.89279 0.0
C1040 C 0.73648 0.5547 0.8493 0.0
C1041 C 0.72013 0.54344 0.91685 0.0
C1042 C 0.74934 0.55321 0.90748 0.0
C1043 C 0.78724 0.56927 0.864 0.0
C1044 C 0.79517 0.5741 0.82998 0.0
C1045 C 0.75785 0.55912 0.87376 0.0
C1046 C 0.77352 0.56897 0.80594 0.0
C1047 C 0.74458 0.55967 0.81549 0.0
H1048 H 0.44347 0.22772 0.86634 0.0
H1049 H 0.45939 0.21361 0.76399 0.0
H1050 H 0.47377 0.1783 0.78222 0.0
H1051 H 0.4811 0.15077 0.82706 0.0
H1052 H 0.46878 0.16707 0.92987 0.0
H1053 H 0.45399 0.20228 0.9118 0.0
C1054 C 0.4501 0.21687 0.84814 0.0
C1055 C 0.45022 0.2231 0.8139 0.0
C1056 C 0.45907 0.19706 0.85888 0.0
C1057 C 0.45922 0.20923 0.79052 0.0
C1058 C 0.46738 0.18899 0.8009 0.0
C1059 C 0.47527 0.16212 0.84549 0.0
C1060 C 0.47586 0.15623 0.87969 0.0
C1061 C 0.46731 0.18266 0.83497 0.0
C1062 C 0.4686 0.17133 0.90336 0.0
C1063 C 0.46 0.19136 0.89304 0.0
H1064 H 0.86507 0.33058 0.82684 0.0
H1065 H 0.84848 0.30514 0.93068 0.0
H1066 H 0.81495 0.2541 0.91432 0.0
H1067 H 0.7919 0.2163 0.86999 0.0
H1068 H 0.80648 0.24322 0.76644 0.0
H1069 H 0.83932 0.29402 0.78311 0.0
C1070 C 0.85394 0.31389 0.84589 0.0
C1071 C 0.85936 0.32153 0.87988 0.0
C1072 C 0.83452 0.28481 0.83631 0.0
C1073 C 0.84454 0.29978 0.90432 0.0
C1074 C 0.82554 0.27059 0.89497 0.0
C1075 C 0.80232 0.23336 0.85119 0.0
C1076 C 0.79705 0.22605 0.81705 0.0
C1077 C 0.82065 0.26276 0.861 0.0
C1078 C 0.81023 0.24835 0.79288 0.0
C1079 C 0.82903 0.27738 0.80237 0.0
H1080 H 0.44381 0.21092 0.37433 0.0
H1081 H 0.47014 0.2439 0.27369 0.0
H1082 H 0.48639 0.29343 0.29263 0.0
H1083 H 0.49069 0.32726 0.33657 0.0
H1084 H 0.4666 0.29645 0.43795 0.0
H1085 H 0.45239 0.24643 0.42012 0.0
C1086 C 0.45327 0.22901 0.35668 0.0
C1087 C 0.45551 0.22355 0.32258 0.0
C1088 C 0.46303 0.25787 0.36783 0.0
C1089 C 0.46812 0.24731 0.30007 0.0
C1090 C 0.4774 0.27575 0.31082 0.0
C1091 C 0.48257 0.30964 0.35486 0.0
C1092 C 0.47944 0.31542 0.38842 0.0
C1093 C 0.47461 0.28122 0.34447 0.0
C1094 C 0.46928 0.29251 0.41194 0.0
C1095 C 0.46097 0.2639 0.40169 0.0
H1096 H 0.68497 0.15745 0.33789 0.0
H1097 H 0.7206 0.17608 0.4379 0.0
H1098 H 0.76937 0.21112 0.41562 0.0
H1099 H 0.80229 0.23504 0.36719 0.0
H1100 H 0.76535 0.21819 0.26771 0.0
H1101 H 0.71674 0.18398 0.29027 0.0
C1102 C 0.7034 0.16928 0.35482 0.0
C1103 C 0.69929 0.16402 0.38944 0.0
C1104 C 0.73116 0.18967 0.34189 0.0
C1105 C 0.72323 0.1798 0.41113 0.0
C1106 C 0.75113 0.19974 0.39839 0.0
C1107 C 0.78354 0.22394 0.35053 0.0
C1108 C 0.78746 0.229 0.31581 0.0
C1109 C 0.75543 0.20462 0.36375 0.0
C1110 C 0.76292 0.21475 0.29453 0.0
C1111 C 0.73512 0.1951 0.30739 0.0
H1112 H 0.86132 0.5288 0.33058 0.0
H1113 H 0.84995 0.55125 0.43105 0.0
H1114 H 0.8131 0.56341 0.41109 0.0
H1115 H 0.78592 0.57003 0.36423 0.0
H1116 H 0.79615 0.54502 0.26446 0.0
H1117 H 0.83148 0.53145 0.28501 0.0
C1118 C 0.85064 0.53619 0.34817 0.0
C1119 C 0.85854 0.53937 0.38219 0.0
C1120 C 0.82932 0.5428 0.33659 0.0
C1121 C 0.84422 0.54857 0.40473 0.0
C1122 C 0.82326 0.55567 0.39329 0.0
C1123 C 0.79577 0.56145 0.34707 0.0
C1124 C 0.78851 0.55876 0.31279 0.0
C1125 C 0.81591 0.55325 0.35916 0.0
C1126 C 0.80124 0.54729 0.29095 0.0
C1127 C 0.82157 0.5396 0.30265 0.0
H1128 H 0.58504 0.12226 0.87908 0.0
H1129 H 0.53895 0.09844 0.78471 0.0
H1130 H 0.58514 0.11357 0.75513 0.0
H1131 H 0.63817 0.13062 0.75632 0.0
H1132 H 0.68363 0.15086 0.85105 0.0
H1133 H 0.63837 0.1403 0.88015 0.0
C1134 C 0.58523 0.12075 0.85202 0.0
C1135 C 0.55867 0.10927 0.83411 0.0
C1136 C 0.61177 0.1287 0.83522 0.0
C1137 C 0.55913 0.10708 0.79907 0.0
C1138 C 0.58552 0.11573 0.78212 0.0
C1139 C 0.63821 0.13305 0.78328 0.0
C1140 C 0.66417 0.1415 0.80149 0.0
C1141 C 0.61191 0.12613 0.79997 0.0
C1142 C 0.66385 0.14424 0.83647 0.0
C1143 C 0.63799 0.13821 0.85315 0.0
H1144 H 0.8854 0.45258 0.86799 0.0
H1145 H 0.93 0.45073 0.77807 0.0
H1146 H 0.91565 0.48313 0.75015 0.0
H1147 H 0.89377 0.51537 0.75305 0.0
H1148 H 0.85275 0.51934 0.84491 0.0
H1149 H 0.86197 0.48247 0.87014 0.0
C1150 C 0.89174 0.45894 0.84214 0.0
C1151 C 0.90886 0.44931 0.82523 0.0
C1152 C 0.88404 0.47805 0.82659 0.0
C1153 C 0.91694 0.45793 0.79176 0.0
C1154 C 0.90874 0.47647 0.77578 0.0
C1155 C 0.88639 0.50765 0.77833 0.0
C1156 C 0.87254 0.51991 0.79713 0.0
C1157 C 0.89273 0.48713 0.79315 0.0
C1158 C 0.86349 0.5102 0.83004 0.0
C1159 C 0.86883 0.48919 0.8445 0.0
H1160 H 0.56064 0.43117 0.88066 0.0
H1161 H 0.5755 0.48447 0.79273 0.0
H1162 H 0.54695 0.4404 0.75898 0.0
H1163 H 0.51514 0.3865 0.75499 0.0
H1164 H 0.4973 0.33391 0.84406 0.0
H1165 H 0.52974 0.37761 0.87657 0.0
C1166 C 0.55786 0.43314 0.85405 0.0
C1167 C 0.57019 0.46111 0.8393 0.0
C1168 C 0.5408 0.40771 0.83491 0.0
C1169 C 0.56611 0.46322 0.80481 0.0
C1170 C 0.54982 0.43801 0.78544 0.0
C1171 C 0.51881 0.38466 0.78138 0.0
C1172 C 0.50402 0.35704 0.79707 0.0
C1173 C 0.53673 0.4101 0.80026 0.0
C1174 C 0.50847 0.35496 0.83143 0.0
C1175 C 0.52696 0.37995 0.85007 0.0
H1176 H 0.53598 0.68682 0.65805 0.0
H1177 H 0.54884 0.71384 0.5546 0.0
H1178 H 0.5645 0.76434 0.57154 0.0
H1179 H 0.57734 0.80138 0.61641 0.0
H1180 H 0.56221 0.77279 0.71949 0.0
H1181 H 0.54469 0.72244 0.70202 0.0
C1182 C 0.54198 0.70371 0.63916 0.0
C1183 C 0.54149 0.69666 0.60515 0.0
C1184 C 0.55077 0.7325 0.64906 0.0
C1185 C 0.54896 0.7187 0.58096 0.0
C1186 C 0.55809 0.7476 0.59066 0.0
C1187 C 0.57007 0.78408 0.63497 0.0
C1188 C 0.57133 0.79095 0.66924 0.0
C1189 C 0.55956 0.75487 0.62472 0.0
C1190 C 0.56149 0.7682 0.69297 0.0
C1191 C 0.5515 0.73935 0.68303 0.0
H1192 H 0.21713 0.77642 0.64825 0.0
H1193 H 0.25651 0.78964 0.7462 0.0
H1194 H 0.30451 0.82476 0.72304 0.0
H1195 H 0.33502 0.85341 0.67555 0.0
H1196 H 0.29686 0.83874 0.5769 0.0
H1197 H 0.24881 0.8024 0.59962 0.0
C1198 C 0.23627 0.78688 0.66444 0.0
C1199 C 0.23317 0.78054 0.69894 0.0
C1200 C 0.26403 0.80684 0.65085 0.0
C1201 C 0.25825 0.79404 0.71955 0.0
C1202 C 0.28573 0.81424 0.70636 0.0
C1203 C 0.31621 0.84214 0.659 0.0
C1204 C 0.31942 0.84893 0.62466 0.0
C1205 C 0.28882 0.82105 0.67214 0.0
C1206 C 0.29496 0.83387 0.60344 0.0
C1207 C 0.26746 0.81318 0.61644 0.0
H1208 H 0.23018 0.46125 0.70899 0.0
H1209 H 0.23818 0.42358 0.61655 0.0
H1210 H 0.20491 0.43703 0.58897 0.0
H1211 H 0.1709 0.45691 0.59216 0.0
H1212 H 0.16111 0.49142 0.68609 0.0
H1213 H 0.19784 0.48213 0.71182 0.0
C1214 C 0.22491 0.45621 0.68272 0.0
C1215 C 0.23667 0.44138 0.66494 0.0
C1216 C 0.20532 0.46344 0.66723 0.0
C1217 C 0.22938 0.43488 0.63092 0.0
C1218 C 0.21034 0.44258 0.6151 0.0
C1219 C 0.17721 0.46277 0.61809 0.0
C1220 C 0.16335 0.47486 0.63719 0.0
C1221 C 0.19783 0.45653 0.63312 0.0
C1222 C 0.17139 0.48198 0.67091 0.0
C1223 C 0.19237 0.47665 0.68567 0.0
H1224 H 0.35558 0.86294 0.15566 0.0
H1225 H 0.38329 0.87464 0.25883 0.0
H1226 H 0.43327 0.88786 0.24143 0.0
H1227 H 0.46976 0.89897 0.19644 0.0
H1228 H 0.44093 0.8842 0.09357 0.0
H1229 H 0.39069 0.86914 0.11126 0.0
C1230 C 0.37253 0.86817 0.17433 0.0
C1231 C 0.36589 0.86811 0.20844 0.0
C1232 C 0.40101 0.87529 0.16417 0.0
C1233 C 0.38789 0.8745 0.23241 0.0
C1234 C 0.41648 0.88219 0.22246 0.0
C1235 C 0.4524 0.89223 0.17796 0.0
C1236 C 0.45909 0.89294 0.14373 0.0
C1237 C 0.42341 0.88312 0.18836 0.0
C1238 C 0.43633 0.88379 0.12007 0.0
C1239 C 0.40763 0.8753 0.13015 0.0
H1240 H 0.14255 0.48678 0.16719 0.0
H1241 H 0.13864 0.50761 0.27074 0.0
H1242 H 0.12309 0.54253 0.25401 0.0
H1243 H 0.10869 0.56575 0.20979 0.0
H1244 H 0.1156 0.54684 0.10626 0.0
H1245 H 0.13185 0.51259 0.12309 0.0
C1246 C 0.13845 0.4991 0.18607 0.0
C1247 C 0.14153 0.49449 0.22013 0.0
C1248 C 0.1299 0.51937 0.17627 0.0
C1249 C 0.1365 0.51085 0.24433 0.0
C1250 C 0.12746 0.5307 0.23479 0.0
C1251 C 0.11382 0.55413 0.19099 0.0
C1252 C 0.11073 0.5586 0.15687 0.0
C1253 C 0.12375 0.53489 0.20083 0.0
C1254 C 0.11785 0.54377 0.1327 0.0
C1255 C 0.12707 0.52414 0.14228 0.0
H1256 H 0.51587 0.63212 0.25338 0.0
H1257 H 0.53701 0.67801 0.15896 0.0
H1258 H 0.50229 0.63272 0.13022 0.0
H1259 H 0.46819 0.57943 0.1315 0.0
H1260 H 0.45058 0.53286 0.22526 0.0
H1261 H 0.48151 0.57893 0.25472 0.0
C1262 C 0.51252 0.63221 0.2266 0.0
C1263 C 0.52878 0.65826 0.20829 0.0
C1264 C 0.49333 0.60591 0.21011 0.0
C1265 C 0.52469 0.65811 0.17352 0.0
C1266 C 0.5049 0.63225 0.15709 0.0
C1267 C 0.47094 0.57947 0.15841 0.0
C1268 C 0.45719 0.55288 0.1762 0.0
C1269 C 0.48945 0.60592 0.17504 0.0
C1270 C 0.46114 0.5531 0.21101 0.0
C1271 C 0.47876 0.57941 0.22788 0.0
H1272 H 0.15311 0.65925 0.68696 0.0
H1273 H 0.14407 0.62852 0.78877 0.0
H1274 H 0.12637 0.57848 0.76873 0.0
H1275 H 0.11112 0.54311 0.72199 0.0
H1276 H 0.1228 0.57494 0.62038 0.0
H1277 H 0.14173 0.62493 0.6406 0.0
C1278 C 0.14746 0.64162 0.70476 0.0
C1279 C 0.14965 0.64745 0.73925 0.0
C1280 C 0.13757 0.6131 0.69308 0.0
C1281 C 0.14264 0.62454 0.76205 0.0
C1282 C 0.13235 0.59592 0.75062 0.0
C1283 C 0.11787 0.56105 0.70437 0.0
C1284 C 0.11533 0.55538 0.66979 0.0
C1285 C 0.1293 0.58988 0.71617 0.0
C1286 C 0.12456 0.5788 0.64713 0.0
C1287 C 0.13534 0.60736 0.65865 0.0
H1288 H 0.35608 0.49016 0.66333 0.0
H1289 H 0.38387 0.50796 0.76632 0.0
H1290 H 0.43372 0.54484 0.74841 0.0
H1291 H 0.47008 0.57046 0.70273 0.0
H1292 H 0.44007 0.55341 0.60021 0.0
H1293 H 0.39063 0.51796 0.61869 0.0
C1294 C 0.373 0.50223 0.6819 0.0
C1295 C 0.36639 0.49619 0.71605 0.0
C1296 C 0.40134 0.52351 0.67146 0.0
C1297 C 0.38842 0.51228 0.73983 0.0
C1298 C 0.41695 0.53325 0.72959 0.0
C1299 C 0.45264 0.55906 0.68454 0.0
C1300 C 0.4589 0.56456 0.65012 0.0
C1301 C 0.42381 0.53881 0.69538 0.0
C1302 C 0.43597 0.54978 0.62686 0.0
C1303 C 0.40761 0.52937 0.63735 0.0
H1304 H 0.52682 0.86651 0.65915 0.0
H1305 H 0.51904 0.88576 0.76228 0.0
H1306 H 0.48158 0.89843 0.74674 0.0
H1307 H 0.45307 0.90665 0.70314 0.0
H1308 H 0.45958 0.88511 0.60049 0.0
H1309 H 0.49539 0.87061 0.61656 0.0
C1310 C 0.51678 0.8733 0.67825 0.0
C1311 C 0.52586 0.87547 0.71174 0.0
C1312 C 0.49511 0.88025 0.66919 0.0
C1313 C 0.51238 0.8839 0.73631 0.0
C1314 C 0.49107 0.89127 0.72742 0.0
C1315 C 0.46222 0.89861 0.68436 0.0
C1316 C 0.45387 0.8972 0.65064 0.0
C1317 C 0.48259 0.88995 0.69384 0.0
C1318 C 0.46561 0.88639 0.62663 0.0
C1319 C 0.48618 0.87818 0.63576 0.0
H1320 H 0.24661 0.45674 0.21788 0.0
H1321 H 0.20172 0.43023 0.12293 0.0
H1322 H 0.24848 0.44477 0.09466 0.0
H1323 H 0.30202 0.46302 0.09736 0.0
H1324 H 0.34567 0.48557 0.1932 0.0
H1325 H 0.29969 0.47484 0.22062 0.0
C1326 C 0.2471 0.4544 0.19095 0.0
C1327 C 0.22075 0.44252 0.17253 0.0
C1328 C 0.2739 0.46206 0.17502 0.0
C1329 C 0.2217 0.43925 0.13771 0.0
C1330 C 0.24843 0.44759 0.12152 0.0
C1331 C 0.30145 0.46587 0.12418 0.0
C1332 C 0.32718 0.47517 0.14323 0.0
C1333 C 0.27466 0.45876 0.13997 0.0
C1334 C 0.3261 0.47836 0.17803 0.0
C1335 C 0.29983 0.47223 0.19373 0.0
H1336 H 0.54576 0.85774 0.16778 0.0
H1337 H 0.56177 0.84068 0.06665 0.0
H1338 H 0.5789 0.80807 0.08752 0.0
H1339 H 0.59054 0.78527 0.1349 0.0
H1340 H 0.5714 0.80023 0.23556 0.0
H1341 H 0.55447 0.83285 0.21456 0.0
C1342 C 0.55287 0.84677 0.1503 0.0
C1343 C 0.55262 0.85173 0.11575 0.0
C1344 C 0.56233 0.82781 0.16243 0.0
C1345 C 0.56162 0.83714 0.09339 0.0
C1346 C 0.57158 0.81861 0.10531 0.0
C1347 C 0.58272 0.79577 0.15215 0.0
C1348 C 0.58242 0.79057 0.18672 0.0
C1349 C 0.57229 0.81397 0.13982 0.0
C1350 C 0.5718 0.80389 0.20882 0.0
C1351 C 0.56214 0.82256 0.19685 0.0
H1352 H 0.23212 0.76923 0.19941 0.0
H1353 H 0.23698 0.81623 0.10885 0.0
H1354 H 0.20315 0.7699 0.08112 0.0
H1355 H 0.16931 0.71607 0.08405 0.0
H1356 H 0.16266 0.67057 0.17638 0.0
H1357 H 0.20027 0.71615 0.20178 0.0
C1358 C 0.22607 0.76941 0.17348 0.0
C1359 C 0.23705 0.79622 0.1563 0.0
C1360 C 0.20619 0.74286 0.15799 0.0
C1361 C 0.22878 0.79593 0.12274 0.0
C1362 C 0.20942 0.76943 0.10686 0.0
C1363 C 0.17654 0.71617 0.10951 0.0
C1364 C 0.16331 0.69004 0.12833 0.0
C1365 C 0.1976 0.74276 0.1244 0.0
C1366 C 0.17248 0.69045 0.16146 0.0
C1367 C 0.19394 0.7165 0.17603 0.0
H1368 H 0.32654 0.2885 0.10546 0.0
H1369 H 0.32755 0.3076 1.00031 0.0
H1370 H 0.35305 0.36036 0.01265 0.0
H1371 H 0.37289 0.40067 0.05404 0.0
H1372 H 0.37311 0.38052 0.1588 0.0
H1373 H 0.34911 0.32832 0.14588 0.0
C1374 C 0.33242 0.30422 0.08519 0.0
C1375 C 0.32493 0.29431 0.0521 0.0
C1376 C 0.34709 0.3342 0.09246 0.0
C1377 C 0.33313 0.31483 0.026 0.0
C1378 C 0.34754 0.3449 0.03308 0.0
C1379 C 0.36766 0.3848 0.07398 0.0
C1380 C 0.37445 0.39434 0.10736 0.0
C1381 C 0.35424 0.35479 0.06631 0.0
C1382 C 0.36805 0.37368 0.13293 0.0
C1383 C 0.35431 0.34385 0.12559 0.0
H1384 H 0.6261 0.97781 0.04731 0.0
H1385 H 0.63489 0.98652 0.15466 0.0
H1386 H 0.68854 0.01437 0.14925 0.0
H1387 H 0.73298 0.03427 0.11411 0.0
H1388 H 0.72426 0.028 0.00665 0.0
H1389 H 0.67054 1.0013 0.01196 0.0
C1390 C 0.63979 0.98594 0.06949 0.0
C1391 C 0.6266 0.9799 0.10135 0.0
C1392 C 0.6706 1.00229 0.06617 0.0
C1393 C 0.64454 0.99091 0.12986 0.0
C1394 C 0.67521 0.00673 0.12679 0.0
C1395 C 0.71929 0.02715 0.09187 0.0
C1396 C 0.73251 0.03281 0.06006 0.0
C1397 C 0.68848 0.01223 0.0951 0.0
C1398 C 0.71457 0.02389 0.03142 0.0
C1399 C 0.68387 0.00854 0.03444 0.0
H1400 H 0.98398 0.70577 0.12076 0.0
H1401 H 0.98871 0.69634 0.01402 0.0
H1402 H 0.01319 0.66775 0.02297 0.0
H1403 H 0.0347 0.64695 0.06095 0.0
H1404 H 0.0281 0.65417 0.16775 0.0
H1405 H 1.00265 0.68199 0.15898 0.0
C1406 C 0.99036 0.69742 0.09948 0.0
C1407 C 0.98483 0.70339 0.06676 0.0
C1408 C 1.00404 0.68064 0.10482 0.0
C1409 C 0.99275 0.69205 0.03943 0.0
C1410 C 1.00681 0.67577 0.04453 0.0
C1411 C 0.02764 0.65457 0.08233 0.0
C1412 C 0.03352 0.64881 0.11495 0.0
C1413 C 0.01278 0.67018 0.07708 0.0
C1414 C 0.02382 0.65836 0.1424 0.0
C1415 C 1.00938 0.67434 0.13739 0.0
H1416 H 0.30361 0.32364 0.45789 0.0
H1417 H 0.2757 0.28947 0.35823 0.0
H1418 H 0.32684 0.31582 0.33901 0.0
H1419 H 0.38001 0.34687 0.35129 0.0
H1420 H 0.40724 0.37832 0.45197 0.0
H1421 H 0.35598 0.35506 0.46986 0.0
C1422 C 0.30866 0.32209 0.43191 0.0
C1423 C 0.28589 0.30456 0.4096 0.0
C1424 C 0.33809 0.33686 0.42117 0.0
C1425 C 0.29286 0.30269 0.37602 0.0
C1426 C 0.3221 0.3178 0.36496 0.0
C1427 C 0.3746 0.34886 0.37699 0.0
C1428 C 0.39729 0.3642 0.40028 0.0
C1429 C 0.34496 0.33473 0.3874 0.0
C1430 C 0.3901 0.36641 0.43363 0.0
C1431 C 0.36081 0.35314 0.44391 0.0
H1432 H 0.657 0.02612 0.37181 0.0
H1433 H 0.6382 0.037 0.47417 0.0
H1434 H 0.65954 0.00771 0.49362 0.0
H1435 H 0.68587 0.98107 0.4819 0.0
H1436 H 0.70833 0.97342 0.38004 0.0
H1437 H 0.68326 0.99915 0.36005 0.0
C1438 C 0.65737 0.0218 0.39831 0.0
C1439 C 0.64607 0.03367 0.42151 0.0
C1440 C 0.67047 1.0056 0.40944 0.0
C1441 C 0.64695 0.02823 0.45583 0.0
C1442 C 0.65911 0.01145 0.46699 0.0
C1443 C 0.68499 0.98478 0.45532 0.0
C1444 C 0.69886 0.97533 0.4325 0.0
C1445 C 0.67128 1.00033 0.44408 0.0
C1446 C 0.6979 0.98062 0.39814 0.0
C1447 C 0.68355 0.99531 0.38667 0.0
H1448 H 0.04262 0.72747 0.38632 0.0
H1449 H 0.0347 0.71396 0.49322 0.0
H1450 H 1.00876 0.66079 0.48486 0.0
H1451 H 0.98654 0.61825 0.44707 0.0
H1452 H 0.99624 0.63186 0.34023 0.0
H1453 H 0.02346 0.68499 0.34868 0.0
C1454 C 0.03529 0.71288 0.4078 0.0
C1455 C 0.0403 0.72461 0.44035 0.0
C1456 C 0.02069 0.68242 0.4028 0.0
C1457 C 0.03109 0.70547 0.46793 0.0
C1458 C 0.01618 0.67508 0.46315 0.0
C1459 C 0.99469 0.63285 0.42563 0.0
C1460 C 0.98914 0.62115 0.39305 0.0
C1461 C 1.01057 0.66333 0.4307 0.0
C1462 C 1.00021 0.64032 0.36555 0.0
C1463 C 0.01569 0.67069 0.37036 0.0
H1464 H 0.65012 0.63235 0.87412 0.0
H1465 H 0.65122 0.60602 0.97615 0.0
H1466 H 0.67649 0.6574 0.99383 0.0
H1467 H 0.70034 0.71024 0.97968 0.0
H1468 H 0.70172 0.73578 0.87675 0.0
H1469 H 0.67331 0.68444 0.86013 0.0
C1470 C 0.65566 0.63781 0.90028 0.0
C1471 C 0.64877 0.61539 0.92376 0.0
C1472 C 0.67074 0.66735 0.91012 0.0
C1473 C 0.65638 0.62289 0.95752 0.0
C1474 C 0.67081 0.65227 0.96766 0.0
C1475 C 0.69412 0.70446 0.95372 0.0
C1476 C 0.7031 0.72672 0.92949 0.0
C1477 C 0.67838 0.67475 0.94412 0.0
C1478 C 0.69521 0.71901 0.89584 0.0
C1479 C 0.67895 0.68966 0.8863 0.0
H1480 H 0.29114 0.97722 0.89076 0.0
H1481 H 0.30395 0.98996 0.99735 0.0
H1482 H 0.35747 0.0149 0.98953 0.0
H1483 H 0.40062 0.03475 0.95187 0.0
H1484 H 0.38698 0.01939 0.84557 0.0
H1485 H 0.33376 0.9937 0.85382 0.0
C1486 C 0.30567 0.98541 0.91228 0.0
C1487 C 0.29373 0.98208 0.94452 0.0
C1488 C 0.33623 0.99927 0.90763 0.0
C1489 C 0.31271 0.99231 0.97227 0.0
C1490 C 0.34327 0.00664 0.9678 0.0
C1491 C 0.38595 0.02566 0.93058 0.0
C1492 C 0.3977 0.02914 0.89816 0.0
C1493 C 0.35528 0.01052 0.93553 0.0
C1494 C 0.37849 0.01696 0.8708 0.0
C1495 C 0.34805 1.00235 0.87546 0.0
H1496 H 0.03187 0.32749 0.97567 0.0
H1497 H 0.04473 0.30619 0.87512 0.0
H1498 H 0.0219 0.33307 0.85243 0.0
H1499 H 0.99643 0.36104 0.86108 0.0
H1500 H 0.98099 0.37987 0.96168 0.0
H1501 H 1.00677 0.35582 0.98431 0.0
C1502 C 0.02982 0.3289 0.94881 0.0
C1503 C 0.0399 0.3148 0.92717 0.0
C1504 C 0.01616 0.34395 0.93588 0.0
C1505 C 0.03693 0.31666 0.89238 0.0
C1506 C 0.02395 0.3321 0.87934 0.0
C1507 C 0.999 0.36011 0.88792 0.0
C1508 C 0.98685 0.37219 0.90964 0.0
C1509 C 0.01323 0.34561 0.90083 0.0
C1510 C 0.99004 0.37057 0.94441 0.0
C1511 C 1.00478 0.35684 0.9574 0.0
H1512 H 0.71486 0.68996 0.52386 0.0
H1513 H 0.74473 0.70558 0.62633 0.0
H1514 H 0.69394 0.67974 0.64615 0.0
H1515 H 0.64072 0.65501 0.63458 0.0
H1516 H 0.61091 0.64158 0.53207 0.0
H1517 H 0.66158 0.66396 0.51229 0.0
C1518 C 0.7102 0.6874 0.55049 0.0
C1519 C 0.73354 0.69979 0.57351 0.0
C1520 C 0.68082 0.67302 0.56183 0.0
C1521 C 0.72715 0.69647 0.608 0.0
C1522 C 0.69808 0.68166 0.61943 0.0
C1523 C 0.64534 0.65677 0.60795 0.0
C1524 C 0.62205 0.64678 0.58493 0.0
C1525 C 0.67469 0.67022 0.59661 0.0
C1526 C 0.62843 0.64935 0.55043 0.0
C1527 C 0.65744 0.66211 0.53901 0.0
H1528 H 0.31795 0.03481 0.61631 0.0
H1529 H 0.32576 0.03003 0.50931 0.0
H1530 H 0.35188 1.00283 0.51717 0.0
H1531 H 0.37044 0.97852 0.55445 0.0
H1532 H 0.36491 0.98545 0.66146 0.0
H1533 H 0.34001 0.01386 0.65364 0.0
C1534 C 0.32549 0.02791 0.59473 0.0
C1535 C 0.3197 0.03414 0.56227 0.0
C1536 C 0.34078 0.01263 0.59945 0.0
C1537 C 0.32997 0.02549 0.53454 0.0
C1538 C 0.34479 0.00985 0.53902 0.0
C1539 C 0.36383 0.98633 0.57604 0.0
C1540 C 0.36917 0.97965 0.60848 0.0
C1541 C 0.34997 1.00298 0.57134 0.0
C1542 C 0.36099 0.9903 0.63625 0.0
C1543 C 0.3467 1.00645 0.63179 0.0
H1544 H 0.03241 0.39681 0.56405 0.0
H1545 H 0.02821 0.3772 0.66942 0.0
H1546 H 1.00157 0.32453 0.65706 0.0
H1547 H 0.9814 0.28427 0.61586 0.0
H1548 H 0.98346 0.30436 0.5108 0.0
H1549 H 1.00903 0.35678 0.52345 0.0
C1550 C 0.02556 0.38098 0.58431 0.0
C1551 C 0.03249 0.39075 0.61755 0.0
C1552 C 1.01001 0.35092 0.57704 0.0
C1553 C 0.02309 0.37011 0.64364 0.0
C1554 C 1.008 0.34006 0.63656 0.0
C1555 C 0.98743 0.30018 0.59579 0.0
C1556 C 0.98088 0.29057 0.56242 0.0
C1557 C 1.00167 0.33024 0.60331 0.0
C1558 C 0.98831 0.31128 0.53667 0.0
C1559 C 1.00298 0.34122 0.54387 0.0
H1560 H 0.97732 0.65251 0.82609 0.0
H1561 H 0.95213 0.65143 0.72309 0.0
H1562 H 1.00372 0.67721 0.70612 0.0
H1563 H 0.05597 0.69782 0.71987 0.0
H1564 H 0.08145 0.69642 0.82223 0.0
H1565 H 0.03009 0.67399 0.84002 0.0
C1566 C 0.98323 0.65825 0.80004 0.0
C1567 C 0.96098 0.65006 0.77591 0.0
C1568 C 0.01305 0.67245 0.79023 0.0
C1569 C 0.96888 0.65733 0.74214 0.0
C1570 C 0.99839 0.67209 0.73237 0.0
C1571 C 0.0503 0.6928 0.74609 0.0
C1572 C 0.07251 0.69873 0.76961 0.0
C1573 C 0.02065 0.67938 0.7561 0.0
C1574 C 0.06476 0.6919 0.80351 0.0
C1575 C 0.03537 0.67912 0.81376 0.0
H1576 H 0.32948 0.35789 0.69229 0.0
H1577 H 0.31532 0.37305 0.79491 0.0
H1578 H 0.3391 0.34596 0.81436 0.0
H1579 H 0.36589 0.31956 0.8022 0.0
H1580 H 0.38287 0.30761 0.69948 0.0
H1581 H 0.35597 0.33155 0.68016 0.0
C1582 C 0.33143 0.35507 0.71889 0.0
C1583 C 0.32069 0.36746 0.74208 0.0
C1584 C 0.34573 0.34005 0.72993 0.0
C1585 C 0.32359 0.36386 0.77651 0.0
C1586 C 0.33714 0.34832 0.78768 0.0
C1587 C 0.36341 0.322 0.77563 0.0
C1588 C 0.37632 0.31188 0.75232 0.0
C1589 C 0.34856 0.33655 0.76463 0.0
C1590 C 0.37327 0.31543 0.71793 0.0
C1591 C 0.35787 0.32908 0.70683 0.0
H1592 H 0.65889 0.95321 0.77101 0.0
H1593 H 0.65937 0.9697 0.66516 0.0
H1594 H 0.68673 0.02264 0.67542 0.0
H1595 H 0.70854 0.06413 0.7148 0.0
H1596 H 0.71036 0.04766 0.82033 0.0
H1597 H 0.68417 0.99474 0.80989 0.0
C1598 C 0.66509 0.96841 0.75018 0.0
C1599 C 0.65686 0.95758 0.71739 0.0
C1600 C 0.68114 0.99876 0.75624 0.0
C1601 C 0.66544 0.9775 0.6906 0.0
C1602 C 0.68098 0.00775 0.69648 0.0
C1603 C 0.70328 0.04894 0.7355 0.0
C1604 C 0.71109 0.05976 0.76835 0.0
C1605 C 0.68863 0.01861 0.72923 0.0
C1606 C 0.70458 0.03987 0.79484 0.0
C1607 C 0.68952 0.00963 0.78889 0.0
H1608 H 0.32404 0.9714 0.19148 0.0
H1609 H 0.32018 0.93887 0.29164 0.0
H1610 H 0.3436 0.98878 0.31354 0.0
H1611 H 0.36751 0.04222 0.30396 0.0
H1612 H 0.37355 0.07444 0.20326 0.0
H1613 H 0.34682 0.02436 0.18207 0.0
C1614 C 0.32816 0.97521 0.21812 0.0
C1615 C 0.32046 0.95142 0.23979 0.0
C1616 C 0.34208 1.00403 0.23054 0.0
C1617 C 0.32607 0.9568 0.27428 0.0
C1618 C 0.33942 0.98535 0.2869 0.0
C1619 C 0.3626 0.03818 0.27748 0.0
C1620 C 0.37251 0.06196 0.25524 0.0
C1621 C 0.34782 0.00922 0.26524 0.0
C1622 C 0.36631 0.05647 0.22089 0.0
C1623 C 0.35103 0.02783 0.20871 0.0
H1624 H 0.96613 0.32041 0.3018 0.0
H1625 H 0.94094 0.30683 0.19773 0.0
H1626 H 0.99263 0.33046 0.18106 0.0
H1627 H 0.04511 0.35686 0.19585 0.0
H1628 H 0.07062 0.37371 0.29968 0.0
H1629 H 0.01887 0.34697 0.31663 0.0
C1630 C 0.97202 0.32243 0.27552 0.0
C1631 C 0.9498 0.31188 0.25105 0.0
C1632 C 1.00187 0.33677 0.26605 0.0
C1633 C 0.95769 0.31492 0.21704 0.0
C1634 C 0.98723 0.3284 0.20747 0.0
C1635 C 0.03933 0.35446 0.22219 0.0
C1636 C 0.06164 0.3672 0.24645 0.0
C1637 C 1.00953 0.33969 0.23172 0.0
C1638 C 0.05382 0.36421 0.28049 0.0
C1639 C 0.02424 0.34889 0.29022 0.0
H1640 H 0.69872 0.64785 0.30166 0.0
H1641 H 0.71025 0.63537 0.19726 0.0
H1642 H 0.6887 0.66538 0.18125 0.0
H1643 H 0.66459 0.69362 0.19682 0.0
H1644 H 0.64959 0.70276 0.30109 0.0
H1645 H 0.67453 0.67591 0.31721 0.0
C1646 C 0.69669 0.6519 0.27543 0.0
C1647 C 0.70607 0.63941 0.25072 0.0
C1648 C 0.68357 0.66858 0.26635 0.0
C1649 C 0.70302 0.64459 0.2168 0.0
C1650 C 0.69075 0.66181 0.20759 0.0
C1651 C 0.66708 0.68995 0.22304 0.0
C1652 C 0.65536 0.7002 0.24771 0.0
C1653 C 0.68068 0.6737 0.23213 0.0
C1654 C 0.65835 0.69497 0.28161 0.0
C1655 C 0.67261 0.67963 0.29087 0.0
loop_
_geom_bond_atom_site_label_1
_geom_bond_atom_site_label_2
_geom_bond_distance
_geom_bond_site_symmetry_2
_ccdc_geom_bond_type
C0 O2 1.247 . S
C0 O4 1.258 . S
C1 O8 1.247 . S
C1 O9 1.258 . S
O2 C0 1.247 . S
O2 Zn3 2.028 . S
Zn3 O2 2.028 . S
Zn3 O7 2.035 . S
Zn3 O9 2.035 . S
Zn3 O10 2.028 . S
O4 C0 1.258 . S
O4 Zn5 2.035 . S
Zn5 O4 2.035 . S
Zn5 O6 2.028 . S
Zn5 O8 2.028 . S
Zn5 O11 2.035 . S
O6 Zn5 2.028 . S
O6 C12 1.247 . S
O7 Zn3 2.035 . S
O7 C12 1.258 . S
O8 C1 1.247 . S
O8 Zn5 2.028 . S
O9 C1 1.258 . S
O9 Zn3 2.035 . S
O10 Zn3 2.028 . S
O10 C13 1.247 . S
O11 Zn5 2.035 . S
O11 C13 1.258 . S
C12 O6 1.247 . S
C12 O7 1.258 . S
C13 O10 1.247 . S
C13 O11 1.258 . S
C14 O16 1.247 . S
C14 O18 1.258 . S
C15 O22 1.247 . S
C15 O23 1.258 . S
O16 C14 1.247 . S
O16 Zn17 2.028 . S
Zn17 O16 2.028 . S
Zn17 O21 2.035 . S
Zn17 O23 2.035 . S
Zn17 O24 2.028 . S
O18 C14 1.258 . S
O18 Zn19 2.035 . S
Zn19 O18 2.035 . S
Zn19 O20 2.028 . S
Zn19 O22 2.028 . S
Zn19 O25 2.035 . S
O20 Zn19 2.028 . S
O20 C26 1.247 . S
O21 Zn17 2.035 . S
O21 C26 1.258 . S
O22 C15 1.247 . S
O22 Zn19 2.028 . S
O23 C15 1.258 . S
O23 Zn17 2.035 . S
O24 Zn17 2.028 . S
O24 C27 1.247 . S
O25 Zn19 2.035 . S
O25 C27 1.258 . S
C26 O20 1.247 . S
C26 O21 1.258 . S
C27 O24 1.247 . S
C27 O25 1.258 . S
C28 O30 1.247 . S
C28 O32 1.258 . S
C29 O36 1.247 . S
C29 O37 1.258 . S
O30 C28 1.247 . S
O30 Zn31 2.028 . S
Zn31 O30 2.028 . S
Zn31 O35 2.035 . S
Zn31 O37 2.035 . S
Zn31 O38 2.028 . S
O32 C28 1.258 . S
O32 Zn33 2.035 . S
Zn33 O32 2.035 . S
Zn33 O34 2.028 . S
Zn33 O36 2.028 . S
Zn33 O39 2.035 . S
O34 Zn33 2.028 . S
O34 C40 1.247 . S
O35 Zn31 2.035 . S
O35 C40 1.258 . S
O36 C29 1.247 . S
O36 Zn33 2.028 . S
O37 C29 1.258 . S
O37 Zn31 2.035 . S
O38 Zn31 2.028 . S
O38 C41 1.247 . S
O39 Zn33 2.035 . S
O39 C41 1.258 . S
C40 O34 1.247 . S
C40 O35 1.258 . S
C41 O38 1.247 . S
C41 O39 1.258 . S
C42 O44 1.247 . S
C42 O46 1.258 . S
C43 O50 1.247 . S
C43 O51 1.258 . S
O44 C42 1.247 . S
O44 Zn45 2.028 . S
Zn45 O44 2.028 . S
Zn45 O49 2.035 . S
Zn45 O51 2.035 . S
Zn45 O52 2.028 . S
O46 C42 1.258 . S
O46 Zn47 2.035 . S
Zn47 O46 2.035 . S
Zn47 O48 2.028 . S
Zn47 O50 2.028 . S
Zn47 O53 2.035 . S
O48 Zn47 2.028 . S
O48 C54 1.247 . S
O49 Zn45 2.035 . S
O49 C54 1.258 . S
O50 C43 1.247 . S
O50 Zn47 2.028 . S
O51 C43 1.258 . S
O51 Zn45 2.035 . S
O52 Zn45 2.028 . S
O52 C55 1.247 . S
O53 Zn47 2.035 . S
O53 C55 1.258 . S
C54 O48 1.247 . S
C54 O49 1.258 . S
C55 O52 1.247 . S
C55 O53 1.258 . S
C56 O58 1.247 . S
C56 O60 1.258 . S
C57 O64 1.247 . S
C57 O65 1.258 . S
O58 C56 1.247 . S
O58 Zn59 2.028 . S
Zn59 O58 2.028 . S
Zn59 O63 2.035 . S
Zn59 O65 2.035 . S
Zn59 O66 2.028 . S
O60 C56 1.258 . S
O60 Zn61 2.035 . S
Zn61 O60 2.035 . S
Zn61 O62 2.028 . S
Zn61 O64 2.028 . S
Zn61 O67 2.035 . S
O62 Zn61 2.028 . S
O62 C68 1.247 . S
O63 Zn59 2.035 . S
O63 C68 1.258 . S
O64 C57 1.247 . S
O64 Zn61 2.028 . S
O65 C57 1.258 . S
O65 Zn59 2.035 . S
O66 Zn59 2.028 . S
O66 C69 1.247 . S
O67 Zn61 2.035 . S
O67 C69 1.258 . S
C68 O62 1.247 . S
C68 O63 1.258 . S
C69 O66 1.247 . S
C69 O67 1.258 . S
C70 O72 1.247 . S
C70 O74 1.258 . S
C71 O78 1.247 . S
C71 O79 1.258 . S
O72 C70 1.247 . S
O72 Zn73 2.028 . S
Zn73 O72 2.028 . S
Zn73 O77 2.035 . S
Zn73 O79 2.035 . S
Zn73 O80 2.028 . S
O74 C70 1.258 . S
O74 Zn75 2.035 . S
Zn75 O74 2.035 . S
Zn75 O76 2.028 . S
Zn75 O78 2.028 . S
Zn75 O81 2.035 . S
O76 Zn75 2.028 . S
O76 C82 1.247 . S
O77 Zn73 2.035 . S
O77 C82 1.258 . S
O78 C71 1.247 . S
O78 Zn75 2.028 . S
O79 C71 1.258 . S
O79 Zn73 2.035 . S
O80 Zn73 2.028 . S
O80 C83 1.247 . S
O81 Zn75 2.035 . S
O81 C83 1.258 . S
C82 O76 1.247 . S
C82 O77 1.258 . S
C83 O80 1.247 . S
C83 O81 1.258 . S
C84 O86 1.247 . S
C84 O88 1.258 . S
C85 O92 1.247 . S
C85 O93 1.258 . S
O86 C84 1.247 . S
O86 Zn87 2.028 . S
Zn87 O86 2.028 . S
Zn87 O91 2.035 . S
Zn87 O93 2.035 . S
Zn87 O94 2.028 . S
O88 C84 1.258 . S
O88 Zn89 2.035 . S
Zn89 O88 2.035 . S
Zn89 O90 2.028 . S
Zn89 O92 2.028 . S
Zn89 O95 2.035 . S
O90 Zn89 2.028 . S
O90 C96 1.247 . S
O91 Zn87 2.035 . S
O91 C96 1.258 . S
O92 C85 1.247 . S
O92 Zn89 2.028 . S
O93 C85 1.258 . S
O93 Zn87 2.035 . S
O94 Zn87 2.028 . S
O94 C97 1.247 . S
O95 Zn89 2.035 . S
O95 C97 1.258 . S
C96 O90 1.247 . S
C96 O91 1.258 . S
C97 O94 1.247 . S
C97 O95 1.258 . S
C98 O100 1.247 . S
C98 O102 1.258 . S
C99 O106 1.247 . S
C99 O107 1.258 . S
O100 C98 1.247 . S
O100 Zn101 2.028 . S
Zn101 O100 2.028 . S
Zn101 O105 2.035 . S
Zn101 O107 2.035 . S
Zn101 O108 2.028 . S
O102 C98 1.258 . S
O102 Zn103 2.035 . S
Zn103 O102 2.035 . S
Zn103 O104 2.028 . S
Zn103 O106 2.028 . S
Zn103 O109 2.035 . S
O104 Zn103 2.028 . S
O104 C110 1.247 . S
O105 Zn101 2.035 . S
O105 C110 1.258 . S
O106 C99 1.247 . S
O106 Zn103 2.028 . S
O107 C99 1.258 . S
O107 Zn101 2.035 . S
O108 Zn101 2.028 . S
O108 C111 1.247 . S
O109 Zn103 2.035 . S
O109 C111 1.258 . S
C110 O104 1.247 . S
C110 O105 1.258 . S
C111 O108 1.247 . S
C111 O109 1.258 . S
C112 O114 1.247 . S
C112 O116 1.258 . S
C113 O120 1.247 . S
C113 O121 1.258 . S
O114 C112 1.247 . S
O114 Zn115 2.028 . S
Zn115 O114 2.028 . S
Zn115 O119 2.035 . S
Zn115 O121 2.035 . S
Zn115 O122 2.028 . S
O116 C112 1.258 . S
O116 Zn117 2.035 . S
Zn117 O116 2.035 . S
Zn117 O118 2.028 . S
Zn117 O120 2.028 . S
Zn117 O123 2.035 . S
O118 Zn117 2.028 . S
O118 C124 1.247 . S
O119 Zn115 2.035 . S
O119 C124 1.258 . S
O120 C113 1.247 . S
O120 Zn117 2.028 . S
O121 C113 1.258 . S
O121 Zn115 2.035 . S
O122 Zn115 2.028 . S
O122 C125 1.247 . S
O123 Zn117 2.035 . S
O123 C125 1.258 . S
C124 O118 1.247 . S
C124 O119 1.258 . S
C125 O122 1.247 . S
C125 O123 1.258 . S
C126 O128 1.247 . S
C126 O130 1.258 . S
C127 O134 1.247 . S
C127 O135 1.258 . S
O128 C126 1.247 . S
O128 Zn129 2.028 . S
Zn129 O128 2.028 . S
Zn129 O133 2.035 . S
Zn129 O135 2.035 . S
Zn129 O136 2.028 . S
O130 C126 1.258 . S
O130 Zn131 2.035 . S
Zn131 O130 2.035 . S
Zn131 O132 2.028 . S
Zn131 O134 2.028 . S
Zn131 O137 2.035 . S
O132 Zn131 2.028 . S
O132 C138 1.247 . S
O133 Zn129 2.035 . S
O133 C138 1.258 . S
O134 C127 1.247 . S
O134 Zn131 2.028 . S
O135 C127 1.258 . S
O135 Zn129 2.035 . S
O136 Zn129 2.028 . S
O136 C139 1.247 . S
O137 Zn131 2.035 . S
O137 C139 1.258 . S
C138 O132 1.247 . S
C138 O133 1.258 . S
C139 O136 1.247 . S
C139 O137 1.258 . S
C140 O142 1.247 . S
C140 O144 1.258 . S
C141 O148 1.247 . S
C141 O149 1.258 . S
O142 C140 1.247 . S
O142 Zn143 2.028 . S
Zn143 O142 2.028 . S
Zn143 O147 2.035 . S
Zn143 O149 2.035 . S
Zn143 O150 2.028 . S
O144 C140 1.258 . S
O144 Zn145 2.035 . S
Zn145 O144 2.035 . S
Zn145 O146 2.028 . S
Zn145 O148 2.028 . S
Zn145 O151 2.035 . S
O146 Zn145 2.028 . S
O146 C152 1.247 . S
O147 Zn143 2.035 . S
O147 C152 1.258 . S
O148 C141 1.247 . S
O148 Zn145 2.028 . S
O149 C141 1.258 . S
O149 Zn143 2.035 . S
O150 Zn143 2.028 . S
O150 C153 1.247 . S
O151 Zn145 2.035 . S
O151 C153 1.258 . S
C152 O146 1.247 . S
C152 O147 1.258 . S
C153 O150 1.247 . S
C153 O151 1.258 . S
C154 O156 1.247 . S
C154 O158 1.258 . S
C155 O162 1.247 . S
C155 O163 1.258 . S
O156 C154 1.247 . S
O156 Zn157 2.028 . S
Zn157 O156 2.028 . S
Zn157 O161 2.035 . S
Zn157 O163 2.035 . S
Zn157 O164 2.028 . S
O158 C154 1.258 . S
O158 Zn159 2.035 . S
Zn159 O158 2.035 . S
Zn159 O160 2.028 . S
Zn159 O162 2.028 . S
Zn159 O165 2.035 . S
O160 Zn159 2.028 . S
O160 C166 1.247 . S
O161 Zn157 2.035 . S
O161 C166 1.258 . S
O162 C155 1.247 . S
O162 Zn159 2.028 . S
O163 C155 1.258 . S
O163 Zn157 2.035 . S
O164 Zn157 2.028 . S
O164 C167 1.247 . S
O165 Zn159 2.035 . S
O165 C167 1.258 . S
C166 O160 1.247 . S
C166 O161 1.258 . S
C167 O164 1.247 . S
C167 O165 1.258 . S
C168 O170 1.247 . S
C168 O172 1.258 . S
C169 O176 1.247 . S
C169 O177 1.258 . S
O170 C168 1.247 . S
O170 Zn171 2.028 . S
Zn171 O170 2.028 . S
Zn171 O175 2.035 . S
Zn171 O177 2.035 . S
Zn171 O178 2.028 . S
O172 C168 1.258 . S
O172 Zn173 2.035 . S
Zn173 O172 2.035 . S
Zn173 O174 2.028 . S
Zn173 O176 2.028 . S
Zn173 O179 2.035 . S
O174 Zn173 2.028 . S
O174 C180 1.247 . S
O175 Zn171 2.035 . S
O175 C180 1.258 . S
O176 C169 1.247 . S
O176 Zn173 2.028 . S
O177 C169 1.258 . S
O177 Zn171 2.035 . S
O178 Zn171 2.028 . S
O178 C181 1.247 . S
O179 Zn173 2.035 . S
O179 C181 1.258 . S
C180 O174 1.247 . S
C180 O175 1.258 . S
C181 O178 1.247 . S
C181 O179 1.258 . S
C182 O184 1.247 . S
C182 O186 1.258 . S
C183 O190 1.247 . S
C183 O191 1.258 . S
O184 C182 1.247 . S
O184 Zn185 2.028 . S
Zn185 O184 2.028 . S
Zn185 O189 2.035 . S
Zn185 O191 2.035 . S
Zn185 O192 2.028 . S
O186 C182 1.258 . S
O186 Zn187 2.035 . S
Zn187 O186 2.035 . S
Zn187 O188 2.028 . S
Zn187 O190 2.028 . S
Zn187 O193 2.035 . S
O188 Zn187 2.028 . S
O188 C194 1.247 . S
O189 Zn185 2.035 . S
O189 C194 1.258 . S
O190 C183 1.247 . S
O190 Zn187 2.028 . S
O191 C183 1.258 . S
O191 Zn185 2.035 . S
O192 Zn185 2.028 . S
O192 C195 1.247 . S
O193 Zn187 2.035 . S
O193 C195 1.258 . S
C194 O188 1.247 . S
C194 O189 1.258 . S
C195 O192 1.247 . S
C195 O193 1.258 . S
C196 O198 1.247 . S
C196 O200 1.258 . S
C197 O204 1.247 . S
C197 O205 1.258 . S
O198 C196 1.247 . S
O198 Zn199 2.028 . S
Zn199 O198 2.028 . S
Zn199 O203 2.035 . S
Zn199 O205 2.035 . S
Zn199 O206 2.028 . S
O200 C196 1.258 . S
O200 Zn201 2.035 . S
Zn201 O200 2.035 . S
Zn201 O202 2.028 . S
Zn201 O204 2.028 . S
Zn201 O207 2.035 . S
O202 Zn201 2.028 . S
O202 C208 1.247 . S
O203 Zn199 2.035 . S
O203 C208 1.258 . S
O204 C197 1.247 . S
O204 Zn201 2.028 . S
O205 C197 1.258 . S
O205 Zn199 2.035 . S
O206 Zn199 2.028 . S
O206 C209 1.247 . S
O207 Zn201 2.035 . S
O207 C209 1.258 . S
C208 O202 1.247 . S
C208 O203 1.258 . S
C209 O206 1.247 . S
C209 O207 1.258 . S
C210 O212 1.247 . S
C210 O214 1.258 . S
C211 O218 1.247 . S
C211 O219 1.258 . S
O212 C210 1.247 . S
O212 Zn213 2.028 . S
Zn213 O212 2.028 . S
Zn213 O217 2.035 . S
Zn213 O219 2.035 . S
Zn213 O220 2.028 . S
O214 C210 1.258 . S
O214 Zn215 2.035 . S
Zn215 O214 2.035 . S
Zn215 O216 2.028 . S
Zn215 O218 2.028 . S
Zn215 O221 2.035 . S
O216 Zn215 2.028 . S
O216 C222 1.247 . S
O217 Zn213 2.035 . S
O217 C222 1.258 . S
O218 C211 1.247 . S
O218 Zn215 2.028 . S
O219 C211 1.258 . S
O219 Zn213 2.035 . S
O220 Zn213 2.028 . S
O220 C223 1.247 . S
O221 Zn215 2.035 . S
O221 C223 1.258 . S
C222 O216 1.247 . S
C222 O217 1.258 . S
C223 O220 1.247 . S
C223 O221 1.258 . S
C224 O226 1.247 . S
C224 O228 1.258 . S
C225 O232 1.247 . S
C225 O233 1.258 . S
O226 C224 1.247 . S
O226 Zn227 2.028 . S
Zn227 O226 2.028 . S
Zn227 O231 2.035 . S
Zn227 O233 2.035 . S
Zn227 O234 2.028 . S
O228 C224 1.258 . S
O228 Zn229 2.035 . S
Zn229 O228 2.035 . S
Zn229 O230 2.028 . S
Zn229 O232 2.028 . S
Zn229 O235 2.035 . S
O230 Zn229 2.028 . S
O230 C236 1.247 . S
O231 Zn227 2.035 . S
O231 C236 1.258 . S
O232 C225 1.247 . S
O232 Zn229 2.028 . S
O233 C225 1.258 . S
O233 Zn227 2.035 . S
O234 Zn227 2.028 . S
O234 C237 1.247 . S
O235 Zn229 2.035 . S
O235 C237 1.258 . S
C236 O230 1.247 . S
C236 O231 1.258 . S
C237 O234 1.247 . S
C237 O235 1.258 . S
C238 O240 1.247 . S
C238 O242 1.258 . S
C239 O246 1.247 . S
C239 O247 1.258 . S
O240 C238 1.247 . S
O240 Zn241 2.028 . S
Zn241 O240 2.028 . S
Zn241 O245 2.035 . S
Zn241 O247 2.035 . S
Zn241 O248 2.028 . S
O242 C238 1.258 . S
O242 Zn243 2.035 . S
Zn243 O242 2.035 . S
Zn243 O244 2.028 . S
Zn243 O246 2.028 . S
Zn243 O249 2.035 . S
O244 Zn243 2.028 . S
O244 C250 1.247 . S
O245 Zn241 2.035 . S
O245 C250 1.258 . S
O246 C239 1.247 . S
O246 Zn243 2.028 . S
O247 C239 1.258 . S
O247 Zn241 2.035 . S
O248 Zn241 2.028 . S
O248 C251 1.247 . S
O249 Zn243 2.035 . S
O249 C251 1.258 . S
C250 O244 1.247 . S
C250 O245 1.258 . S
C251 O248 1.247 . S
C251 O249 1.258 . S
C252 O254 1.247 . S
C252 O256 1.258 . S
C253 O260 1.247 . S
C253 O261 1.258 . S
O254 C252 1.247 . S
O254 Zn255 2.028 . S
Zn255 O254 2.028 . S
Zn255 O259 2.035 . S
Zn255 O261 2.035 . S
Zn255 O262 2.028 . S
O256 C252 1.258 . S
O256 Zn257 2.035 . S
Zn257 O256 2.035 . S
Zn257 O258 2.028 . S
Zn257 O260 2.028 . S
Zn257 O263 2.035 . S
O258 Zn257 2.028 . S
O258 C264 1.247 . S
O259 Zn255 2.035 . S
O259 C264 1.258 . S
O260 C253 1.247 . S
O260 Zn257 2.028 . S
O261 C253 1.258 . S
O261 Zn255 2.035 . S
O262 Zn255 2.028 . S
O262 C265 1.247 . S
O263 Zn257 2.035 . S
O263 C265 1.258 . S
C264 O258 1.247 . S
C264 O259 1.258 . S
C265 O262 1.247 . S
C265 O263 1.258 . S
C266 O268 1.247 . S
C266 O270 1.258 . S
C267 O274 1.247 . S
C267 O275 1.258 . S
O268 C266 1.247 . S
O268 Zn269 2.028 . S
Zn269 O268 2.028 . S
Zn269 O273 2.035 . S
Zn269 O275 2.035 . S
Zn269 O276 2.028 . S
O270 C266 1.258 . S
O270 Zn271 2.035 . S
Zn271 O270 2.035 . S
Zn271 O272 2.028 . S
Zn271 O274 2.028 . S
Zn271 O277 2.035 . S
O272 Zn271 2.028 . S
O272 C278 1.247 . S
O273 Zn269 2.035 . S
O273 C278 1.258 . S
O274 C267 1.247 . S
O274 Zn271 2.028 . S
O275 C267 1.258 . S
O275 Zn269 2.035 . S
O276 Zn269 2.028 . S
O276 C279 1.247 . S
O277 Zn271 2.035 . S
O277 C279 1.258 . S
C278 O272 1.247 . S
C278 O273 1.258 . S
C279 O276 1.247 . S
C279 O277 1.258 . S
C280 O282 1.247 . S
C280 O284 1.258 . S
C281 O288 1.247 . S
C281 O289 1.258 . S
O282 C280 1.247 . S
O282 Zn283 2.028 . S
Zn283 O282 2.028 . S
Zn283 O287 2.035 . S
Zn283 O289 2.035 . S
Zn283 O290 2.028 . S
O284 C280 1.258 . S
O284 Zn285 2.035 . S
Zn285 O284 2.035 . S
Zn285 O286 2.028 . S
Zn285 O288 2.028 . S
Zn285 O291 2.035 . S
O286 Zn285 2.028 . S
O286 C292 1.247 . S
O287 Zn283 2.035 . S
O287 C292 1.258 . S
O288 C281 1.247 . S
O288 Zn285 2.028 . S
O289 C281 1.258 . S
O289 Zn283 2.035 . S
O290 Zn283 2.028 . S
O290 C293 1.247 . S
O291 Zn285 2.035 . S
O291 C293 1.258 . S
C292 O286 1.247 . S
C292 O287 1.258 . S
C293 O290 1.247 . S
C293 O291 1.258 . S
C294 O296 1.247 . S
C294 O298 1.258 . S
C295 O302 1.247 . S
C295 O303 1.258 . S
O296 C294 1.247 . S
O296 Zn297 2.028 . S
Zn297 O296 2.028 . S
Zn297 O301 2.035 . S
Zn297 O303 2.035 . S
Zn297 O304 2.028 . S
O298 C294 1.258 . S
O298 Zn299 2.035 . S
Zn299 O298 2.035 . S
Zn299 O300 2.028 . S
Zn299 O302 2.028 . S
Zn299 O305 2.035 . S
O300 Zn299 2.028 . S
O300 C306 1.247 . S
O301 Zn297 2.035 . S
O301 C306 1.258 . S
O302 C295 1.247 . S
O302 Zn299 2.028 . S
O303 C295 1.258 . S
O303 Zn297 2.035 . S
O304 Zn297 2.028 . S
O304 C307 1.247 . S
O305 Zn299 2.035 . S
O305 C307 1.258 . S
C306 O300 1.247 . S
C306 O301 1.258 . S
C307 O304 1.247 . S
C307 O305 1.258 . S
C308 O310 1.247 . S
C308 O312 1.258 . S
C309 O316 1.247 . S
C309 O317 1.258 . S
O310 C308 1.247 . S
O310 Zn311 2.028 . S
Zn311 O310 2.028 . S
Zn311 O315 2.035 . S
Zn311 O317 2.035 . S
Zn311 O318 2.028 . S
O312 C308 1.258 . S
O312 Zn313 2.035 . S
Zn313 O312 2.035 . S
Zn313 O314 2.028 . S
Zn313 O316 2.028 . S
Zn313 O319 2.035 . S
O314 Zn313 2.028 . S
O314 C320 1.247 . S
O315 Zn311 2.035 . S
O315 C320 1.258 . S
O316 C309 1.247 . S
O316 Zn313 2.028 . S
O317 C309 1.258 . S
O317 Zn311 2.035 . S
O318 Zn311 2.028 . S
O318 C321 1.247 . S
O319 Zn313 2.035 . S
O319 C321 1.258 . S
C320 O314 1.247 . S
C320 O315 1.258 . S
C321 O318 1.247 . S
C321 O319 1.258 . S
C322 O324 1.247 . S
C322 O326 1.258 . S
C323 O330 1.247 . S
C323 O331 1.258 . S
O324 C322 1.247 . S
O324 Zn325 2.028 . S
Zn325 O324 2.028 . S
Zn325 O329 2.035 . S
Zn325 O331 2.035 . S
Zn325 O332 2.028 . S
O326 C322 1.258 . S
O326 Zn327 2.035 . S
Zn327 O326 2.035 . S
Zn327 O328 2.028 . S
Zn327 O330 2.028 . S
Zn327 O333 2.035 . S
O328 Zn327 2.028 . S
O328 C334 1.247 . S
O329 Zn325 2.035 . S
O329 C334 1.258 . S
O330 C323 1.247 . S
O330 Zn327 2.028 . S
O331 C323 1.258 . S
O331 Zn325 2.035 . S
O332 Zn325 2.028 . S
O332 C335 1.247 . S
O333 Zn327 2.035 . S
O333 C335 1.258 . S
C334 O328 1.247 . S
C334 O329 1.258 . S
C335 O332 1.247 . S
C335 O333 1.258 . S
C336 O338 1.247 . S
C336 O340 1.258 . S
C337 O344 1.247 . S
C337 O345 1.258 . S
O338 C336 1.247 . S
O338 Zn339 2.028 . S
Zn339 O338 2.028 . S
Zn339 O343 2.035 . S
Zn339 O345 2.035 . S
Zn339 O346 2.028 . S
O340 C336 1.258 . S
O340 Zn341 2.035 . S
Zn341 O340 2.035 . S
Zn341 O342 2.028 . S
Zn341 O344 2.028 . S
Zn341 O347 2.035 . S
O342 Zn341 2.028 . S
O342 C348 1.247 . S
O343 Zn339 2.035 . S
O343 C348 1.258 . S
O344 C337 1.247 . S
O344 Zn341 2.028 . S
O345 C337 1.258 . S
O345 Zn339 2.035 . S
O346 Zn339 2.028 . S
O346 C349 1.247 . S
O347 Zn341 2.035 . S
O347 C349 1.258 . S
C348 O342 1.247 . S
C348 O343 1.258 . S
C349 O346 1.247 . S
C349 O347 1.258 . S
C350 O352 1.247 . S
C350 O354 1.258 . S
C351 O358 1.247 . S
C351 O359 1.258 . S
O352 C350 1.247 . S
O352 Zn353 2.028 . S
Zn353 O352 2.028 . S
Zn353 O357 2.035 . S
Zn353 O359 2.035 . S
Zn353 O360 2.028 . S
O354 C350 1.258 . S
O354 Zn355 2.035 . S
Zn355 O354 2.035 . S
Zn355 O356 2.028 . S
Zn355 O358 2.028 . S
Zn355 O361 2.035 . S
O356 Zn355 2.028 . S
O356 C362 1.247 . S
O357 Zn353 2.035 . S
O357 C362 1.258 . S
O358 C351 1.247 . S
O358 Zn355 2.028 . S
O359 C351 1.258 . S
O359 Zn353 2.035 . S
O360 Zn353 2.028 . S
O360 C363 1.247 . S
O361 Zn355 2.035 . S
O361 C363 1.258 . S
C362 O356 1.247 . S
C362 O357 1.258 . S
C363 O360 1.247 . S
C363 O361 1.258 . S
C364 O366 1.247 . S
C364 O368 1.258 . S
C365 O372 1.247 . S
C365 O373 1.258 . S
O366 C364 1.247 . S
O366 Zn367 2.028 . S
Zn367 O366 2.028 . S
Zn367 O371 2.035 . S
Zn367 O373 2.035 . S
Zn367 O374 2.028 . S
O368 C364 1.258 . S
O368 Zn369 2.035 . S
Zn369 O368 2.035 . S
Zn369 O370 2.028 . S
Zn369 O372 2.028 . S
Zn369 O375 2.035 . S
O370 Zn369 2.028 . S
O370 C376 1.247 . S
O371 Zn367 2.035 . S
O371 C376 1.258 . S
O372 C365 1.247 . S
O372 Zn369 2.028 . S
O373 C365 1.258 . S
O373 Zn367 2.035 . S
O374 Zn367 2.028 . S
O374 C377 1.247 . S
O375 Zn369 2.035 . S
O375 C377 1.258 . S
C376 O370 1.247 . S
C376 O371 1.258 . S
C377 O374 1.247 . S
C377 O375 1.258 . S
C378 O380 1.247 . S
C378 O382 1.258 . S
C379 O386 1.247 . S
C379 O387 1.258 . S
O380 C378 1.247 . S
O380 Zn381 2.028 . S
Zn381 O380 2.028 . S
Zn381 O385 2.035 . S
Zn381 O387 2.035 . S
Zn381 O388 2.028 . S
O382 C378 1.258 . S
O382 Zn383 2.035 . S
Zn383 O382 2.035 . S
Zn383 O384 2.028 . S
Zn383 O386 2.028 . S
Zn383 O389 2.035 . S
O384 Zn383 2.028 . S
O384 C390 1.247 . S
O385 Zn381 2.035 . S
O385 C390 1.258 . S
O386 C379 1.247 . S
O386 Zn383 2.028 . S
O387 C379 1.258 . S
O387 Zn381 2.035 . S
O388 Zn381 2.028 . S
O388 C391 1.247 . S
O389 Zn383 2.035 . S
O389 C391 1.258 . S
C390 O384 1.247 . S
C390 O385 1.258 . S
C391 O388 1.247 . S
C391 O389 1.258 . S
C392 O394 1.247 . S
C392 O396 1.258 . S
C393 O400 1.247 . S
C393 O401 1.258 . S
O394 C392 1.247 . S
O394 Zn395 2.028 . S
Zn395 O394 2.028 . S
Zn395 O399 2.035 . S
Zn395 O401 2.035 . S
Zn395 O402 2.028 . S
O396 C392 1.258 . S
O396 Zn397 2.035 . S
Zn397 O396 2.035 . S
Zn397 O398 2.028 . S
Zn397 O400 2.028 . S
Zn397 O403 2.035 . S
O398 Zn397 2.028 . S
O398 C404 1.247 . S
O399 Zn395 2.035 . S
O399 C404 1.258 . S
O400 C393 1.247 . S
O400 Zn397 2.028 . S
O401 C393 1.258 . S
O401 Zn395 2.035 . S
O402 Zn395 2.028 . S
O402 C405 1.247 . S
O403 Zn397 2.035 . S
O403 C405 1.258 . S
C404 O398 1.247 . S
C404 O399 1.258 . S
C405 O402 1.247 . S
C405 O403 1.258 . S
C406 O408 1.247 . S
C406 O410 1.258 . S
C407 O414 1.247 . S
C407 O415 1.258 . S
O408 C406 1.247 . S
O408 Zn409 2.028 . S
Zn409 O408 2.028 . S
Zn409 O413 2.035 . S
Zn409 O415 2.035 . S
Zn409 O416 2.028 . S
O410 C406 1.258 . S
O410 Zn411 2.035 . S
Zn411 O410 2.035 . S
Zn411 O412 2.028 . S
Zn411 O414 2.028 . S
Zn411 O417 2.035 . S
O412 Zn411 2.028 . S
O412 C418 1.247 . S
O413 Zn409 2.035 . S
O413 C418 1.258 . S
O414 C407 1.247 . S
O414 Zn411 2.028 . S
O415 C407 1.258 . S
O415 Zn409 2.035 . S
O416 Zn409 2.028 . S
O416 C419 1.247 . S
O417 Zn411 2.035 . S
O417 C419 1.258 . S
C418 O412 1.247 . S
C418 O413 1.258 . S
C419 O416 1.247 . S
C419 O417 1.258 . S
C420 O422 1.247 . S
C420 O424 1.258 . S
C421 O428 1.247 . S
C421 O429 1.258 . S
O422 C420 1.247 . S
O422 Zn423 2.028 . S
Zn423 O422 2.028 . S
Zn423 O427 2.035 . S
Zn423 O429 2.035 . S
Zn423 O430 2.028 . S
O424 C420 1.258 . S
O424 Zn425 2.035 . S
Zn425 O424 2.035 . S
Zn425 O426 2.028 . S
Zn425 O428 2.028 . S
Zn425 O431 2.035 . S
O426 Zn425 2.028 . S
O426 C432 1.247 . S
O427 Zn423 2.035 . S
O427 C432 1.258 . S
O428 C421 1.247 . S
O428 Zn425 2.028 . S
O429 C421 1.258 . S
O429 Zn423 2.035 . S
O430 Zn423 2.028 . S
O430 C433 1.247 . S
O431 Zn425 2.035 . S
O431 C433 1.258 . S
C432 O426 1.247 . S
C432 O427 1.258 . S
C433 O430 1.247 . S
C433 O431 1.258 . S
C434 O436 1.247 . S
C434 O438 1.258 . S
C435 O442 1.247 . S
C435 O443 1.258 . S
O436 C434 1.247 . S
O436 Zn437 2.028 . S
Zn437 O436 2.028 . S
Zn437 O441 2.035 . S
Zn437 O443 2.035 . S
Zn437 O444 2.028 . S
O438 C434 1.258 . S
O438 Zn439 2.035 . S
Zn439 O438 2.035 . S
Zn439 O440 2.028 . S
Zn439 O442 2.028 . S
Zn439 O445 2.035 . S
O440 Zn439 2.028 . S
O440 C446 1.247 . S
O441 Zn437 2.035 . S
O441 C446 1.258 . S
O442 C435 1.247 . S
O442 Zn439 2.028 . S
O443 C435 1.258 . S
O443 Zn437 2.035 . S
O444 Zn437 2.028 . S
O444 C447 1.247 . S
O445 Zn439 2.035 . S
O445 C447 1.258 . S
C446 O440 1.247 . S
C446 O441 1.258 . S
C447 O444 1.247 . S
C447 O445 1.258 . S
C448 O450 1.247 . S
C448 O452 1.258 . S
C449 O456 1.247 . S
C449 O457 1.258 . S
O450 C448 1.247 . S
O450 Zn451 2.028 . S
Zn451 O450 2.028 . S
Zn451 O455 2.035 . S
Zn451 O457 2.035 . S
Zn451 O458 2.028 . S
O452 C448 1.258 . S
O452 Zn453 2.035 . S
Zn453 O452 2.035 . S
Zn453 O454 2.028 . S
Zn453 O456 2.028 . S
Zn453 O459 2.035 . S
O454 Zn453 2.028 . S
O454 C460 1.247 . S
O455 Zn451 2.035 . S
O455 C460 1.258 . S
O456 C449 1.247 . S
O456 Zn453 2.028 . S
O457 C449 1.258 . S
O457 Zn451 2.035 . S
O458 Zn451 2.028 . S
O458 C461 1.247 . S
O459 Zn453 2.035 . S
O459 C461 1.258 . S
C460 O454 1.247 . S
C460 O455 1.258 . S
C461 O458 1.247 . S
C461 O459 1.258 . S
C462 O464 1.247 . S
C462 O466 1.258 . S
C463 O470 1.247 . S
C463 O471 1.258 . S
O464 C462 1.247 . S
O464 Zn465 2.028 . S
Zn465 O464 2.028 . S
Zn465 O469 2.035 . S
Zn465 O471 2.035 . S
Zn465 O472 2.028 . S
O466 C462 1.258 . S
O466 Zn467 2.035 . S
Zn467 O466 2.035 . S
Zn467 O468 2.028 . S
Zn467 O470 2.028 . S
Zn467 O473 2.035 . S
O468 Zn467 2.028 . S
O468 C474 1.247 . S
O469 Zn465 2.035 . S
O469 C474 1.258 . S
O470 C463 1.247 . S
O470 Zn467 2.028 . S
O471 C463 1.258 . S
O471 Zn465 2.035 . S
O472 Zn465 2.028 . S
O472 C475 1.247 . S
O473 Zn467 2.035 . S
O473 C475 1.258 . S
C474 O468 1.247 . S
C474 O469 1.258 . S
C475 O472 1.247 . S
C475 O473 1.258 . S
C476 O478 1.247 . S
C476 O480 1.258 . S
C477 O484 1.247 . S
C477 O485 1.258 . S
O478 C476 1.247 . S
O478 Zn479 2.028 . S
Zn479 O478 2.028 . S
Zn479 O483 2.035 . S
Zn479 O485 2.035 . S
Zn479 O486 2.028 . S
O480 C476 1.258 . S
O480 Zn481 2.035 . S
Zn481 O480 2.035 . S
Zn481 O482 2.028 . S
Zn481 O484 2.028 . S
Zn481 O487 2.035 . S
O482 Zn481 2.028 . S
O482 C488 1.247 . S
O483 Zn479 2.035 . S
O483 C488 1.258 . S
O484 C477 1.247 . S
O484 Zn481 2.028 . S
O485 C477 1.258 . S
O485 Zn479 2.035 . S
O486 Zn479 2.028 . S
O486 C489 1.247 . S
O487 Zn481 2.035 . S
O487 C489 1.258 . S
C488 O482 1.247 . S
C488 O483 1.258 . S
C489 O486 1.247 . S
C489 O487 1.258 . S
C490 O492 1.247 . S
C490 O494 1.258 . S
C491 O498 1.247 . S
C491 O499 1.258 . S
O492 C490 1.247 . S
O492 Zn493 2.028 . S
Zn493 O492 2.028 . S
Zn493 O497 2.035 . S
Zn493 O499 2.035 . S
Zn493 O500 2.028 . S
O494 C490 1.258 . S
O494 Zn495 2.035 . S
Zn495 O494 2.035 . S
Zn495 O496 2.028 . S
Zn495 O498 2.028 . S
Zn495 O501 2.035 . S
O496 Zn495 2.028 . S
O496 C502 1.247 . S
O497 Zn493 2.035 . S
O497 C502 1.258 . S
O498 C491 1.247 . S
O498 Zn495 2.028 . S
O499 C491 1.258 . S
O499 Zn493 2.035 . S
O500 Zn493 2.028 . S
O500 C503 1.247 . S
O501 Zn495 2.035 . S
O501 C503 1.258 . S
C502 O496 1.247 . S
C502 O497 1.258 . S
C503 O500 1.247 . S
C503 O501 1.258 . S
H504 C510 0.930 . S
H505 C513 0.930 . S
H506 C514 0.930 . S
H507 C515 0.930 . S
H508 C518 0.930 . S
H509 C519 0.930 . S
C510 H504 0.930 . S
C510 C511 1.355 . S
C510 C512 1.415 . S
C511 C510 1.355 . S
C511 C513 1.419 . S
C512 C510 1.415 . S
C512 C517 1.425 . S
C512 C519 1.409 . S
C513 H505 0.930 . S
C513 C511 1.419 . S
C513 C514 1.362 . S
C514 H506 0.930 . S
C514 C513 1.362 . S
C514 C517 1.409 . S
C515 H507 0.930 . S
C515 C516 1.355 . S
C515 C517 1.415 . S
C516 C515 1.355 . S
C516 C518 1.419 . S
C517 C512 1.425 . S
C517 C514 1.409 . S
C517 C515 1.415 . S
C518 H508 0.930 . S
C518 C516 1.419 . S
C518 C519 1.362 . S
C519 H509 0.930 . S
C519 C512 1.409 . S
C519 C518 1.362 . S
H520 C526 0.930 . S
H521 C529 0.930 . S
H522 C530 0.930 . S
H523 C531 0.930 . S
H524 C534 0.930 . S
H525 C535 0.930 . S
C526 H520 0.930 . S
C526 C527 1.355 . S
C526 C528 1.415 . S
C527 C526 1.355 . S
C527 C529 1.419 . S
C528 C526 1.415 . S
C528 C533 1.425 . S
C528 C535 1.409 . S
C529 H521 0.930 . S
C529 C527 1.419 . S
C529 C530 1.362 . S
C530 H522 0.930 . S
C530 C529 1.362 . S
C530 C533 1.409 . S
C531 H523 0.930 . S
C531 C532 1.355 . S
C531 C533 1.415 . S
C532 C531 1.355 . S
C532 C534 1.419 . S
C533 C528 1.425 . S
C533 C530 1.409 . S
C533 C531 1.415 . S
C534 H524 0.930 . S
C534 C532 1.419 . S
C534 C535 1.362 . S
C535 H525 0.930 . S
C535 C528 1.409 . S
C535 C534 1.362 . S
H536 C542 0.930 . S
H537 C545 0.930 . S
H538 C546 0.930 . S
H539 C547 0.930 . S
H540 C550 0.930 . S
H541 C551 0.930 . S
C542 H536 0.930 . S
C542 C543 1.355 . S
C542 C544 1.415 . S
C543 C542 1.355 . S
C543 C545 1.419 . S
C544 C542 1.415 . S
C544 C549 1.425 . S
C544 C551 1.409 . S
C545 H537 0.930 . S
C545 C543 1.419 . S
C545 C546 1.362 . S
C546 H538 0.930 . S
C546 C545 1.362 . S
C546 C549 1.409 . S
C547 H539 0.930 . S
C547 C548 1.355 . S
C547 C549 1.415 . S
C548 C547 1.355 . S
C548 C550 1.419 . S
C549 C544 1.425 . S
C549 C546 1.409 . S
C549 C547 1.415 . S
C550 H540 0.930 . S
C550 C548 1.419 . S
C550 C551 1.362 . S
C551 H541 0.930 . S
C551 C544 1.409 . S
C551 C550 1.362 . S
H552 C558 0.930 . S
H553 C561 0.930 . S
H554 C562 0.930 . S
H555 C563 0.930 . S
H556 C566 0.930 . S
H557 C567 0.930 . S
C558 H552 0.930 . S
C558 C559 1.355 . S
C558 C560 1.415 . S
C559 C558 1.355 . S
C559 C561 1.419 . S
C560 C558 1.415 . S
C560 C565 1.425 . S
C560 C567 1.409 . S
C561 H553 0.930 . S
C561 C559 1.419 . S
C561 C562 1.362 . S
C562 H554 0.930 . S
C562 C561 1.362 . S
C562 C565 1.409 . S
C563 H555 0.930 . S
C563 C564 1.355 . S
C563 C565 1.415 . S
C564 C563 1.355 . S
C564 C566 1.419 . S
C565 C560 1.425 . S
C565 C562 1.409 . S
C565 C563 1.415 . S
C566 H556 0.930 . S
C566 C564 1.419 . S
C566 C567 1.362 . S
C567 H557 0.930 . S
C567 C560 1.409 . S
C567 C566 1.362 . S
H568 C574 0.930 . S
H569 C577 0.930 . S
H570 C578 0.930 . S
H571 C579 0.930 . S
H572 C582 0.930 . S
H573 C583 0.930 . S
C574 H568 0.930 . S
C574 C575 1.355 . S
C574 C576 1.415 . S
C575 C574 1.355 . S
C575 C577 1.419 . S
C576 C574 1.415 . S
C576 C581 1.425 . S
C576 C583 1.409 . S
C577 H569 0.930 . S
C577 C575 1.419 . S
C577 C578 1.362 . S
C578 H570 0.930 . S
C578 C577 1.362 . S
C578 C581 1.409 . S
C579 H571 0.930 . S
C579 C580 1.355 . S
C579 C581 1.415 . S
C580 C579 1.355 . S
C580 C582 1.419 . S
C581 C576 1.425 . S
C581 C578 1.409 . S
C581 C579 1.415 . S
C582 H572 0.930 . S
C582 C580 1.419 . S
C582 C583 1.362 . S
C583 H573 0.930 . S
C583 C576 1.409 . S
C583 C582 1.362 . S
H584 C590 0.930 . S
H585 C593 0.930 . S
H586 C594 0.930 . S
H587 C595 0.930 . S
H588 C598 0.930 . S
H589 C599 0.930 . S
C590 H584 0.930 . S
C590 C591 1.355 . S
C590 C592 1.415 . S
C591 C590 1.355 . S
C591 C593 1.419 . S
C592 C590 1.415 . S
C592 C597 1.425 . S
C592 C599 1.409 . S
C593 H585 0.930 . S
C593 C591 1.419 . S
C593 C594 1.362 . S
C594 H586 0.930 . S
C594 C593 1.362 . S
C594 C597 1.409 . S
C595 H587 0.930 . S
C595 C596 1.355 . S
C595 C597 1.415 . S
C596 C595 1.355 . S
C596 C598 1.419 . S
C597 C592 1.425 . S
C597 C594 1.409 . S
C597 C595 1.415 . S
C598 H588 0.930 . S
C598 C596 1.419 . S
C598 C599 1.362 . S
C599 H589 0.930 . S
C599 C592 1.409 . S
C599 C598 1.362 . S
H600 C606 0.930 . S
H601 C609 0.930 . S
H602 C610 0.930 . S
H603 C611 0.930 . S
H604 C614 0.930 . S
H605 C615 0.930 . S
C606 H600 0.930 . S
C606 C607 1.355 . S
C606 C608 1.415 . S
C607 C606 1.355 . S
C607 C609 1.419 . S
C608 C606 1.415 . S
C608 C613 1.425 . S
C608 C615 1.409 . S
C609 H601 0.930 . S
C609 C607 1.419 . S
C609 C610 1.362 . S
C610 H602 0.930 . S
C610 C609 1.362 . S
C610 C613 1.409 . S
C611 H603 0.930 . S
C611 C612 1.355 . S
C611 C613 1.415 . S
C612 C611 1.355 . S
C612 C614 1.419 . S
C613 C608 1.425 . S
C613 C610 1.409 . S
C613 C611 1.415 . S
C614 H604 0.930 . S
C614 C612 1.419 . S
C614 C615 1.362 . S
C615 H605 0.930 . S
C615 C608 1.409 . S
C615 C614 1.362 . S
H616 C622 0.930 . S
H617 C625 0.930 . S
H618 C626 0.930 . S
H619 C627 0.930 . S
H620 C630 0.930 . S
H621 C631 0.930 . S
C622 H616 0.930 . S
C622 C623 1.355 . S
C622 C624 1.415 . S
C623 C622 1.355 . S
C623 C625 1.419 . S
C624 C622 1.415 . S
C624 C629 1.425 . S
C624 C631 1.409 . S
C625 H617 0.930 . S
C625 C623 1.419 . S
C625 C626 1.362 . S
C626 H618 0.930 . S
C626 C625 1.362 . S
C626 C629 1.409 . S
C627 H619 0.930 . S
C627 C628 1.355 . S
C627 C629 1.415 . S
C628 C627 1.355 . S
C628 C630 1.419 . S
C629 C624 1.425 . S
C629 C626 1.409 . S
C629 C627 1.415 . S
C630 H620 0.930 . S
C630 C628 1.419 . S
C630 C631 1.362 . S
C631 H621 0.930 . S
C631 C624 1.409 . S
C631 C630 1.362 . S
H632 C638 0.930 . S
H633 C641 0.930 . S
H634 C642 0.930 . S
H635 C643 0.930 . S
H636 C646 0.930 . S
H637 C647 0.930 . S
C638 H632 0.930 . S
C638 C639 1.355 . S
C638 C640 1.415 . S
C639 C638 1.355 . S
C639 C641 1.419 . S
C640 C638 1.415 . S
C640 C645 1.425 . S
C640 C647 1.409 . S
C641 H633 0.930 . S
C641 C639 1.419 . S
C641 C642 1.362 . S
C642 H634 0.930 . S
C642 C641 1.362 . S
C642 C645 1.409 . S
C643 H635 0.930 . S
C643 C644 1.355 . S
C643 C645 1.415 . S
C644 C643 1.355 . S
C644 C646 1.419 . S
C645 C640 1.425 . S
C645 C642 1.409 . S
C645 C643 1.415 . S
C646 H636 0.930 . S
C646 C644 1.419 . S
C646 C647 1.362 . S
C647 H637 0.930 . S
C647 C640 1.409 . S
C647 C646 1.362 . S
H648 C654 0.930 . S
H649 C657 0.930 . S
H650 C658 0.930 . S
H651 C659 0.930 . S
H652 C662 0.930 . S
H653 C663 0.930 . S
C654 H648 0.930 . S
C654 C655 1.355 . S
C654 C656 1.415 . S
C655 C654 1.355 . S
C655 C657 1.419 . S
C656 C654 1.415 . S
C656 C661 1.425 . S
C656 C663 1.409 . S
C657 H649 0.930 . S
C657 C655 1.419 . S
C657 C658 1.362 . S
C658 H650 0.930 . S
C658 C657 1.362 . S
C658 C661 1.409 . S
C659 H651 0.930 . S
C659 C660 1.355 . S
C659 C661 1.415 . S
C660 C659 1.355 . S
C660 C662 1.419 . S
C661 C656 1.425 . S
C661 C658 1.409 . S
C661 C659 1.415 . S
C662 H652 0.930 . S
C662 C660 1.419 . S
C662 C663 1.362 . S
C663 H653 0.930 . S
C663 C656 1.409 . S
C663 C662 1.362 . S
H664 C670 0.930 . S
H665 C673 0.930 . S
H666 C674 0.930 . S
H667 C675 0.930 . S
H668 C678 0.930 . S
H669 C679 0.930 . S
C670 H664 0.930 . S
C670 C671 1.355 . S
C670 C672 1.415 . S
C671 C670 1.355 . S
C671 C673 1.419 . S
C672 C670 1.415 . S
C672 C677 1.425 . S
C672 C679 1.409 . S
C673 H665 0.930 . S
C673 C671 1.419 . S
C673 C674 1.362 . S
C674 H666 0.930 . S
C674 C673 1.362 . S
C674 C677 1.409 . S
C675 H667 0.930 . S
C675 C676 1.355 . S
C675 C677 1.415 . S
C676 C675 1.355 . S
C676 C678 1.419 . S
C677 C672 1.425 . S
C677 C674 1.409 . S
C677 C675 1.415 . S
C678 H668 0.930 . S
C678 C676 1.419 . S
C678 C679 1.362 . S
C679 H669 0.930 . S
C679 C672 1.409 . S
C679 C678 1.362 . S
H680 C686 0.930 . S
H681 C689 0.930 . S
H682 C690 0.930 . S
H683 C691 0.930 . S
H684 C694 0.930 . S
H685 C695 0.930 . S
C686 H680 0.930 . S
C686 C687 1.355 . S
C686 C688 1.415 . S
C687 C686 1.355 . S
C687 C689 1.419 . S
C688 C686 1.415 . S
C688 C693 1.425 . S
C688 C695 1.409 . S
C689 H681 0.930 . S
C689 C687 1.419 . S
C689 C690 1.362 . S
C690 H682 0.930 . S
C690 C689 1.362 . S
C690 C693 1.409 . S
C691 H683 0.930 . S
C691 C692 1.355 . S
C691 C693 1.415 . S
C692 C691 1.355 . S
C692 C694 1.419 . S
C693 C688 1.425 . S
C693 C690 1.409 . S
C693 C691 1.415 . S
C694 H684 0.930 . S
C694 C692 1.419 . S
C694 C695 1.362 . S
C695 H685 0.930 . S
C695 C688 1.409 . S
C695 C694 1.362 . S
H696 C702 0.930 . S
H697 C705 0.930 . S
H698 C706 0.930 . S
H699 C707 0.930 . S
H700 C710 0.930 . S
H701 C711 0.930 . S
C702 H696 0.930 . S
C702 C703 1.355 . S
C702 C704 1.415 . S
C703 C702 1.355 . S
C703 C705 1.419 . S
C704 C702 1.415 . S
C704 C709 1.425 1_655 S
C704 C711 1.409 . S
C705 H697 0.930 . S
C705 C703 1.419 . S
C705 C706 1.362 1_655 S
C706 H698 0.930 . S
C706 C705 1.362 1_455 S
C706 C709 1.409 . S
C707 H699 0.930 . S
C707 C708 1.355 . S
C707 C709 1.415 . S
C708 C707 1.355 . S
C708 C710 1.419 . S
C709 C704 1.425 1_455 S
C709 C706 1.409 . S
C709 C707 1.415 . S
C710 H700 0.930 . S
C710 C708 1.419 . S
C710 C711 1.362 1_455 S
C711 H701 0.930 . S
C711 C704 1.409 . S
C711 C710 1.362 1_655 S
H712 C718 0.930 . S
H713 C721 0.930 . S
H714 C722 0.930 . S
H715 C723 0.930 . S
H716 C726 0.930 . S
H717 C727 0.930 . S
C718 H712 0.930 . S
C718 C719 1.355 . S
C718 C720 1.415 . S
C719 C718 1.355 . S
C719 C721 1.419 . S
C720 C718 1.415 . S
C720 C725 1.425 . S
C720 C727 1.409 . S
C721 H713 0.930 . S
C721 C719 1.419 . S
C721 C722 1.362 . S
C722 H714 0.930 . S
C722 C721 1.362 . S
C722 C725 1.409 . S
C723 H715 0.930 . S
C723 C724 1.355 . S
C723 C725 1.415 . S
C724 C723 1.355 . S
C724 C726 1.419 . S
C725 C720 1.425 . S
C725 C722 1.409 . S
C725 C723 1.415 . S
C726 H716 0.930 . S
C726 C724 1.419 . S
C726 C727 1.362 . S
C727 H717 0.930 . S
C727 C720 1.409 . S
C727 C726 1.362 . S
H728 C734 0.930 . S
H729 C737 0.930 . S
H730 C738 0.930 . S
H731 C739 0.930 . S
H732 C742 0.930 . S
H733 C743 0.930 . S
C734 H728 0.930 . S
C734 C735 1.355 . S
C734 C736 1.415 . S
C735 C734 1.355 . S
C735 C737 1.419 . S
C736 C734 1.415 . S
C736 C741 1.425 1_545 S
C736 C743 1.409 1_545 S
C737 H729 0.930 . S
C737 C735 1.419 . S
C737 C738 1.362 . S
C738 H730 0.930 . S
C738 C737 1.362 . S
C738 C741 1.409 1_545 S
C739 H731 0.930 . S
C739 C740 1.355 . S
C739 C741 1.415 . S
C740 C739 1.355 . S
C740 C742 1.419 . S
C741 C736 1.425 1_565 S
C741 C738 1.409 1_565 S
C741 C739 1.415 . S
C742 H732 0.930 . S
C742 C740 1.419 . S
C742 C743 1.362 . S
C743 H733 0.930 . S
C743 C736 1.409 1_565 S
C743 C742 1.362 . S
H744 C750 0.930 . S
H745 C753 0.930 . S
H746 C754 0.930 . S
H747 C755 0.930 . S
H748 C758 0.930 . S
H749 C759 0.930 . S
C750 H744 0.930 . S
C750 C751 1.355 . S
C750 C752 1.415 . S
C751 C750 1.355 . S
C751 C753 1.419 . S
C752 C750 1.415 . S
C752 C757 1.425 1_546 S
C752 C759 1.409 . S
C753 H745 0.930 . S
C753 C751 1.419 . S
C753 C754 1.362 1_546 S
C754 H746 0.930 . S
C754 C753 1.362 1_564 S
C754 C757 1.409 . S
C755 H747 0.930 . S
C755 C756 1.355 . S
C755 C757 1.415 . S
C756 C755 1.355 . S
C756 C758 1.419 . S
C757 C752 1.425 1_564 S
C757 C754 1.409 . S
C757 C755 1.415 . S
C758 H748 0.930 . S
C758 C756 1.419 . S
C758 C759 1.362 1_564 S
C759 H749 0.930 . S
C759 C752 1.409 . S
C759 C758 1.362 1_546 S
H760 C766 0.930 1_554 S
H761 C769 0.930 . S
H762 C770 0.930 . S
H763 C771 0.930 1_556 S
H764 C774 0.930 . S
H765 C775 0.930 . S
C766 H760 0.930 1_556 S
C766 C767 1.355 . S
C766 C768 1.415 1_556 S
C767 C766 1.355 . S
C767 C769 1.419 . S
C768 C766 1.415 1_554 S
C768 C773 1.425 1_654 S
C768 C775 1.409 . S
C769 H761 0.930 . S
C769 C767 1.419 . S
C769 C770 1.362 1_655 S
C770 H762 0.930 . S
C770 C769 1.362 1_455 S
C770 C773 1.409 . S
C771 H763 0.930 1_554 S
C771 C772 1.355 . S
C771 C773 1.415 1_554 S
C772 C771 1.355 . S
C772 C774 1.419 . S
C773 C768 1.425 1_456 S
C773 C770 1.409 . S
C773 C771 1.415 1_556 S
C774 H764 0.930 . S
C774 C772 1.419 . S
C774 C775 1.362 1_455 S
C775 H765 0.930 . S
C775 C768 1.409 . S
C775 C774 1.362 1_655 S
H776 C782 0.930 . S
H777 C785 0.930 . S
H778 C786 0.930 . S
H779 C787 0.930 . S
H780 C790 0.930 . S
H781 C791 0.930 . S
C782 H776 0.930 . S
C782 C783 1.355 . S
C782 C784 1.415 . S
C783 C782 1.355 . S
C783 C785 1.419 . S
C784 C782 1.415 . S
C784 C789 1.425 1_556 S
C784 C791 1.409 . S
C785 H777 0.930 . S
C785 C783 1.419 . S
C785 C786 1.362 1_556 S
C786 H778 0.930 . S
C786 C785 1.362 1_554 S
C786 C789 1.409 . S
C787 H779 0.930 . S
C787 C788 1.355 . S
C787 C789 1.415 . S
C788 C787 1.355 . S
C788 C790 1.419 . S
C789 C784 1.425 1_554 S
C789 C786 1.409 . S
C789 C787 1.415 . S
C790 H780 0.930 . S
C790 C788 1.419 . S
C790 C791 1.362 1_554 S
C791 H781 0.930 . S
C791 C784 1.409 . S
C791 C790 1.362 1_556 S
H792 C798 0.929 1_554 S
H793 C801 0.930 . S
H794 C802 0.930 . S
H795 C803 0.930 . S
H796 C806 0.930 . S
H797 C807 0.930 . S
C798 H792 0.929 1_556 S
C798 C799 1.355 . S
C798 C800 1.415 1_556 S
C799 C798 1.355 . S
C799 C801 1.419 . S
C800 C798 1.415 1_554 S
C800 C805 1.425 . S
C800 C807 1.409 . S
C801 H793 0.930 . S
C801 C799 1.419 . S
C801 C802 1.362 . S
C802 H794 0.930 . S
C802 C801 1.362 . S
C802 C805 1.409 1_556 S
C803 H795 0.930 . S
C803 C804 1.355 . S
C803 C805 1.415 . S
C804 C803 1.355 . S
C804 C806 1.419 . S
C805 C800 1.425 . S
C805 C802 1.409 1_554 S
C805 C803 1.415 . S
C806 H796 0.930 . S
C806 C804 1.419 . S
C806 C807 1.362 . S
C807 H797 0.930 . S
C807 C800 1.409 . S
C807 C806 1.362 . S
H808 C814 0.930 . S
H809 C817 0.930 . S
H810 C818 0.930 . S
H811 C819 0.930 . S
H812 C822 0.930 . S
H813 C823 0.930 . S
C814 H808 0.930 . S
C814 C815 1.355 1_554 S
C814 C816 1.415 . S
C815 C814 1.355 1_556 S
C815 C817 1.419 . S
C816 C814 1.415 . S
C816 C821 1.425 . S
C816 C823 1.409 . S
C817 H809 0.930 . S
C817 C815 1.419 . S
C817 C818 1.362 . S
C818 H810 0.930 . S
C818 C817 1.362 . S
C818 C821 1.409 1_556 S
C819 H811 0.930 . S
C819 C820 1.355 . S
C819 C821 1.415 . S
C820 C819 1.355 . S
C820 C822 1.419 . S
C821 C816 1.425 . S
C821 C818 1.409 1_554 S
C821 C819 1.415 . S
C822 H812 0.930 . S
C822 C820 1.419 . S
C822 C823 1.362 . S
C823 H813 0.930 . S
C823 C816 1.409 . S
C823 C822 1.362 . S
H824 C830 0.918 1_556 S
H825 C833 0.930 . S
H826 C834 0.930 . S
H827 C835 0.930 . S
H828 C838 0.930 . S
H829 C839 0.930 . S
C830 H824 0.918 1_554 S
C830 C831 1.355 . S
C830 C832 1.416 . S
C831 C830 1.355 . S
C831 C833 1.419 . S
C832 C830 1.416 . S
C832 C837 1.427 . S
C832 C839 1.406 1_554 S
C833 H825 0.930 . S
C833 C831 1.419 . S
C833 C834 1.362 . S
C834 H826 0.930 . S
C834 C833 1.362 . S
C834 C837 1.409 . S
C835 H827 0.930 . S
C835 C836 1.355 1_554 S
C835 C837 1.415 . S
C836 C835 1.355 1_556 S
C836 C838 1.419 . S
C837 C832 1.427 . S
C837 C834 1.409 . S
C837 C835 1.415 . S
C838 H828 0.930 . S
C838 C836 1.419 . S
C838 C839 1.362 . S
C839 H829 0.930 . S
C839 C832 1.406 1_556 S
C839 C838 1.362 . S
H840 C846 0.930 . S
H841 C849 0.930 1_655 S
H842 C850 0.930 . S
H843 C851 0.930 . S
H844 C854 0.930 . S
H845 C855 0.930 . S
C846 H840 0.930 . S
C846 C847 1.355 . S
C846 C848 1.415 . S
C847 C846 1.355 . S
C847 C849 1.419 . S
C848 C846 1.415 . S
C848 C853 1.425 . S
C848 C855 1.409 . S
C849 H841 0.930 1_455 S
C849 C847 1.419 . S
C849 C850 1.362 . S
C850 H842 0.930 . S
C850 C849 1.362 . S
C850 C853 1.409 . S
C851 H843 0.930 . S
C851 C852 1.355 . S
C851 C853 1.415 . S
C852 C851 1.355 . S
C852 C854 1.419 . S
C853 C848 1.425 . S
C853 C850 1.409 . S
C853 C851 1.415 . S
C854 H844 0.930 . S
C854 C852 1.419 . S
C854 C855 1.362 . S
C855 H845 0.930 . S
C855 C848 1.409 . S
C855 C854 1.362 . S
H856 C862 0.930 . S
H857 C865 0.930 . S
H858 C866 0.930 . S
H859 C867 0.930 . S
H860 C870 0.930 . S
H861 C871 0.930 . S
C862 H856 0.930 . S
C862 C863 1.355 . S
C862 C864 1.415 . S
C863 C862 1.355 . S
C863 C865 1.419 . S
C864 C862 1.415 . S
C864 C869 1.425 . S
C864 C871 1.409 . S
C865 H857 0.930 . S
C865 C863 1.419 . S
C865 C866 1.362 . S
C866 H858 0.930 . S
C866 C865 1.362 . S
C866 C869 1.409 . S
C867 H859 0.930 . S
C867 C868 1.355 . S
C867 C869 1.415 . S
C868 C867 1.355 . S
C868 C870 1.419 . S
C869 C864 1.425 . S
C869 C866 1.409 . S
C869 C867 1.415 . S
C870 H860 0.930 . S
C870 C868 1.419 . S
C870 C871 1.362 . S
C871 H861 0.930 . S
C871 C864 1.409 . S
C871 C870 1.362 . S
H872 C878 0.930 . S
H873 C881 0.930 . S
H874 C882 0.930 . S
H875 C883 0.930 . S
H876 C886 0.930 . S
H877 C887 0.930 . S
C878 H872 0.930 . S
C878 C879 1.355 . S
C878 C880 1.415 . S
C879 C878 1.355 . S
C879 C881 1.419 . S
C880 C878 1.415 . S
C880 C885 1.425 . S
C880 C887 1.409 . S
C881 H873 0.930 . S
C881 C879 1.419 . S
C881 C882 1.362 . S
C882 H874 0.930 . S
C882 C881 1.362 . S
C882 C885 1.409 . S
C883 H875 0.930 . S
C883 C884 1.355 . S
C883 C885 1.415 . S
C884 C883 1.355 . S
C884 C886 1.419 . S
C885 C880 1.425 . S
C885 C882 1.409 . S
C885 C883 1.415 . S
C886 H876 0.930 . S
C886 C884 1.419 . S
C886 C887 1.362 . S
C887 H877 0.930 . S
C887 C880 1.409 . S
C887 C886 1.362 . S
H888 C894 0.930 . S
H889 C897 0.930 . S
H890 C898 0.930 . S
H891 C899 0.930 . S
H892 C902 0.930 . S
H893 C903 0.930 . S
C894 H888 0.930 . S
C894 C895 1.355 . S
C894 C896 1.415 . S
C895 C894 1.355 . S
C895 C897 1.419 . S
C896 C894 1.415 . S
C896 C901 1.425 . S
C896 C903 1.409 1_556 S
C897 H889 0.930 . S
C897 C895 1.419 . S
C897 C898 1.362 . S
C898 H890 0.930 . S
C898 C897 1.362 . S
C898 C901 1.409 . S
C899 H891 0.930 . S
C899 C900 1.355 1_556 S
C899 C901 1.415 . S
C900 C899 1.355 1_554 S
C900 C902 1.419 . S
C901 C896 1.425 . S
C901 C898 1.409 . S
C901 C899 1.415 . S
C902 H892 0.930 . S
C902 C900 1.419 . S
C902 C903 1.362 . S
C903 H893 0.930 . S
C903 C896 1.409 1_554 S
C903 C902 1.362 . S
H904 C910 0.930 . S
H905 C913 0.930 . S
H906 C914 0.930 . S
H907 C915 0.930 . S
H908 C918 0.930 . S
H909 C919 0.930 . S
C910 H904 0.930 . S
C910 C911 1.355 . S
C910 C912 1.415 . S
C911 C910 1.355 . S
C911 C913 1.419 . S
C912 C910 1.415 . S
C912 C917 1.425 . S
C912 C919 1.409 1_556 S
C913 H905 0.930 . S
C913 C911 1.419 . S
C913 C914 1.362 . S
C914 H906 0.930 . S
C914 C913 1.362 . S
C914 C917 1.409 . S
C915 H907 0.930 . S
C915 C916 1.355 1_556 S
C915 C917 1.415 . S
C916 C915 1.355 1_554 S
C916 C918 1.419 . S
C917 C912 1.425 . S
C917 C914 1.409 . S
C917 C915 1.415 . S
C918 H908 0.930 . S
C918 C916 1.419 . S
C918 C919 1.362 . S
C919 H909 0.930 . S
C919 C912 1.409 1_554 S
C919 C918 1.362 . S
H920 C926 0.930 . S
H921 C929 0.930 . S
H922 C930 0.930 . S
H923 C931 0.930 . S
H924 C934 0.930 . S
H925 C935 0.930 . S
C926 H920 0.930 . S
C926 C927 1.355 . S
C926 C928 1.415 . S
C927 C926 1.355 . S
C927 C929 1.419 . S
C928 C926 1.415 . S
C928 C933 1.425 1_556 S
C928 C935 1.409 . S
C929 H921 0.930 . S
C929 C927 1.419 . S
C929 C930 1.362 1_556 S
C930 H922 0.930 . S
C930 C929 1.362 1_554 S
C930 C933 1.409 . S
C931 H923 0.930 . S
C931 C932 1.355 . S
C931 C933 1.415 . S
C932 C931 1.355 . S
C932 C934 1.419 1_554 S
C933 C928 1.425 1_554 S
C933 C930 1.409 . S
C933 C931 1.415 . S
C934 H924 0.930 . S
C934 C932 1.419 1_556 S
C934 C935 1.362 . S
C935 H925 0.930 . S
C935 C928 1.409 . S
C935 C934 1.362 . S
H936 C942 0.930 . S
H937 C945 0.930 . S
H938 C946 0.930 . S
H939 C947 0.930 . S
H940 C950 0.930 . S
H941 C951 0.930 . S
C942 H936 0.930 . S
C942 C943 1.355 . S
C942 C944 1.415 . S
C943 C942 1.355 . S
C943 C945 1.419 . S
C944 C942 1.415 . S
C944 C949 1.425 . S
C944 C951 1.409 . S
C945 H937 0.930 . S
C945 C943 1.419 . S
C945 C946 1.362 . S
C946 H938 0.930 . S
C946 C945 1.362 . S
C946 C949 1.409 . S
C947 H939 0.930 . S
C947 C948 1.355 . S
C947 C949 1.415 . S
C948 C947 1.355 . S
C948 C950 1.419 . S
C949 C944 1.425 . S
C949 C946 1.409 . S
C949 C947 1.415 . S
C950 H940 0.930 . S
C950 C948 1.419 . S
C950 C951 1.362 . S
C951 H941 0.930 . S
C951 C944 1.409 . S
C951 C950 1.362 . S
H952 C958 0.930 . S
H953 C961 0.930 . S
H954 C962 0.930 . S
H955 C963 0.930 . S
H956 C966 0.930 . S
H957 C967 0.930 . S
C958 H952 0.930 . S
C958 C959 1.355 . S
C958 C960 1.415 . S
C959 C958 1.355 . S
C959 C961 1.419 . S
C960 C958 1.415 . S
C960 C965 1.425 . S
C960 C967 1.409 . S
C961 H953 0.930 . S
C961 C959 1.419 . S
C961 C962 1.362 . S
C962 H954 0.930 . S
C962 C961 1.362 . S
C962 C965 1.409 . S
C963 H955 0.930 . S
C963 C964 1.355 . S
C963 C965 1.415 . S
C964 C963 1.355 . S
C964 C966 1.419 . S
C965 C960 1.425 . S
C965 C962 1.409 . S
C965 C963 1.415 . S
C966 H956 0.930 . S
C966 C964 1.419 . S
C966 C967 1.362 . S
C967 H957 0.930 . S
C967 C960 1.409 . S
C967 C966 1.362 . S
H968 C974 0.930 . S
H969 C977 0.930 1_565 S
H970 C978 0.930 . S
H971 C979 0.930 . S
H972 C982 0.930 . S
H973 C983 0.930 . S
C974 H968 0.930 . S
C974 C975 1.355 . S
C974 C976 1.415 . S
C975 C974 1.355 . S
C975 C977 1.419 . S
C976 C974 1.415 . S
C976 C981 1.425 . S
C976 C983 1.409 . S
C977 H969 0.930 1_545 S
C977 C975 1.419 . S
C977 C978 1.362 . S
C978 H970 0.930 . S
C978 C977 1.362 . S
C978 C981 1.409 . S
C979 H971 0.930 . S
C979 C980 1.355 . S
C979 C981 1.415 . S
C980 C979 1.355 . S
C980 C982 1.419 . S
C981 C976 1.425 . S
C981 C978 1.409 . S
C981 C979 1.415 . S
C982 H972 0.930 . S
C982 C980 1.419 . S
C982 C983 1.362 . S
C983 H973 0.930 . S
C983 C976 1.409 . S
C983 C982 1.362 . S
H984 C990 0.930 . S
H985 C993 0.930 . S
H986 C994 0.930 . S
H987 C995 0.930 . S
H988 C998 0.930 . S
H989 C999 0.930 . S
C990 H984 0.930 . S
C990 C991 1.355 . S
C990 C992 1.415 . S
C991 C990 1.355 . S
C991 C993 1.419 . S
C992 C990 1.415 . S
C992 C997 1.425 . S
C992 C999 1.409 . S
C993 H985 0.930 . S
C993 C991 1.419 . S
C993 C994 1.362 . S
C994 H986 0.930 . S
C994 C993 1.362 . S
C994 C997 1.409 . S
C995 H987 0.930 . S
C995 C996 1.355 . S
C995 C997 1.415 . S
C996 C995 1.355 . S
C996 C998 1.419 . S
C997 C992 1.425 . S
C997 C994 1.409 . S
C997 C995 1.415 . S
C998 H988 0.930 . S
C998 C996 1.419 . S
C998 C999 1.362 . S
C999 H989 0.930 . S
C999 C992 1.409 . S
C999 C998 1.362 . S
H1000 C1006 0.930 . S
H1001 C1009 0.930 . S
H1002 C1010 0.930 . S
H1003 C1011 0.930 . S
H1004 C1014 0.930 . S
H1005 C1015 0.930 . S
C1006 H1000 0.930 . S
C1006 C1007 1.355 . S
C1006 C1008 1.415 . S
C1007 C1006 1.355 . S
C1007 C1009 1.419 . S
C1008 C1006 1.415 . S
C1008 C1013 1.425 . S
C1008 C1015 1.409 . S
C1009 H1001 0.930 . S
C1009 C1007 1.419 . S
C1009 C1010 1.362 . S
C1010 H1002 0.930 . S
C1010 C1009 1.362 . S
C1010 C1013 1.409 . S
C1011 H1003 0.930 . S
C1011 C1012 1.355 . S
C1011 C1013 1.415 . S
C1012 C1011 1.355 . S
C1012 C1014 1.419 . S
C1013 C1008 1.425 . S
C1013 C1010 1.409 . S
C1013 C1011 1.415 . S
C1014 H1004 0.930 . S
C1014 C1012 1.419 . S
C1014 C1015 1.362 . S
C1015 H1005 0.930 . S
C1015 C1008 1.409 . S
C1015 C1014 1.362 . S
H1016 C1022 0.930 . S
H1017 C1025 0.930 . S
H1018 C1026 0.930 . S
H1019 C1027 0.930 . S
H1020 C1030 0.930 . S
H1021 C1031 0.930 . S
C1022 H1016 0.930 . S
C1022 C1023 1.355 . S
C1022 C1024 1.415 . S
C1023 C1022 1.355 . S
C1023 C1025 1.419 . S
C1024 C1022 1.415 . S
C1024 C1029 1.425 . S
C1024 C1031 1.409 . S
C1025 H1017 0.930 . S
C1025 C1023 1.419 . S
C1025 C1026 1.362 . S
C1026 H1018 0.930 . S
C1026 C1025 1.362 . S
C1026 C1029 1.409 . S
C1027 H1019 0.930 . S
C1027 C1028 1.355 . S
C1027 C1029 1.415 . S
C1028 C1027 1.355 . S
C1028 C1030 1.419 . S
C1029 C1024 1.425 . S
C1029 C1026 1.409 . S
C1029 C1027 1.415 . S
C1030 H1020 0.930 . S
C1030 C1028 1.419 . S
C1030 C1031 1.362 . S
C1031 H1021 0.930 . S
C1031 C1024 1.409 . S
C1031 C1030 1.362 . S
H1032 C1038 0.930 . S
H1033 C1041 0.930 . S
H1034 C1042 0.930 . S
H1035 C1043 0.930 . S
H1036 C1046 0.930 . S
H1037 C1047 0.930 . S
C1038 H1032 0.930 . S
C1038 C1039 1.355 . S
C1038 C1040 1.415 . S
C1039 C1038 1.355 . S
C1039 C1041 1.419 . S
C1040 C1038 1.415 . S
C1040 C1045 1.425 . S
C1040 C1047 1.409 . S
C1041 H1033 0.930 . S
C1041 C1039 1.419 . S
C1041 C1042 1.362 . S
C1042 H1034 0.930 . S
C1042 C1041 1.362 . S
C1042 C1045 1.409 . S
C1043 H1035 0.930 . S
C1043 C1044 1.355 . S
C1043 C1045 1.415 . S
C1044 C1043 1.355 . S
C1044 C1046 1.419 . S
C1045 C1040 1.425 . S
C1045 C1042 1.409 . S
C1045 C1043 1.415 . S
C1046 H1036 0.930 . S
C1046 C1044 1.419 . S
C1046 C1047 1.362 . S
C1047 H1037 0.930 . S
C1047 C1040 1.409 . S
C1047 C1046 1.362 . S
H1048 C1054 0.930 . S
H1049 C1057 0.930 . S
H1050 C1058 0.930 . S
H1051 C1059 0.930 . S
H1052 C1062 0.930 . S
H1053 C1063 0.930 . S
C1054 H1048 0.930 . S
C1054 C1055 1.355 . S
C1054 C1056 1.415 . S
C1055 C1054 1.355 . S
C1055 C1057 1.419 . S
C1056 C1054 1.415 . S
C1056 C1061 1.425 . S
C1056 C1063 1.409 . S
C1057 H1049 0.930 . S
C1057 C1055 1.419 . S
C1057 C1058 1.362 . S
C1058 H1050 0.930 . S
C1058 C1057 1.362 . S
C1058 C1061 1.409 . S
C1059 H1051 0.930 . S
C1059 C1060 1.355 . S
C1059 C1061 1.415 . S
C1060 C1059 1.355 . S
C1060 C1062 1.419 . S
C1061 C1056 1.425 . S
C1061 C1058 1.409 . S
C1061 C1059 1.415 . S
C1062 H1052 0.930 . S
C1062 C1060 1.419 . S
C1062 C1063 1.362 . S
C1063 H1053 0.930 . S
C1063 C1056 1.409 . S
C1063 C1062 1.362 . S
H1064 C1070 0.930 . S
H1065 C1073 0.930 . S
H1066 C1074 0.930 . S
H1067 C1075 0.930 . S
H1068 C1078 0.930 . S
H1069 C1079 0.930 . S
C1070 H1064 0.930 . S
C1070 C1071 1.355 . S
C1070 C1072 1.415 . S
C1071 C1070 1.355 . S
C1071 C1073 1.419 . S
C1072 C1070 1.415 . S
C1072 C1077 1.425 . S
C1072 C1079 1.409 . S
C1073 H1065 0.930 . S
C1073 C1071 1.419 . S
C1073 C1074 1.362 . S
C1074 H1066 0.930 . S
C1074 C1073 1.362 . S
C1074 C1077 1.409 . S
C1075 H1067 0.930 . S
C1075 C1076 1.355 . S
C1075 C1077 1.415 . S
C1076 C1075 1.355 . S
C1076 C1078 1.419 . S
C1077 C1072 1.425 . S
C1077 C1074 1.409 . S
C1077 C1075 1.415 . S
C1078 H1068 0.930 . S
C1078 C1076 1.419 . S
C1078 C1079 1.362 . S
C1079 H1069 0.930 . S
C1079 C1072 1.409 . S
C1079 C1078 1.362 . S
H1080 C1086 0.930 . S
H1081 C1089 0.930 . S
H1082 C1090 0.930 . S
H1083 C1091 0.930 . S
H1084 C1094 0.930 . S
H1085 C1095 0.930 . S
C1086 H1080 0.930 . S
C1086 C1087 1.355 . S
C1086 C1088 1.415 . S
C1087 C1086 1.355 . S
C1087 C1089 1.419 . S
C1088 C1086 1.415 . S
C1088 C1093 1.425 . S
C1088 C1095 1.409 . S
C1089 H1081 0.930 . S
C1089 C1087 1.419 . S
C1089 C1090 1.362 . S
C1090 H1082 0.930 . S
C1090 C1089 1.362 . S
C1090 C1093 1.409 . S
C1091 H1083 0.930 . S
C1091 C1092 1.355 . S
C1091 C1093 1.415 . S
C1092 C1091 1.355 . S
C1092 C1094 1.419 . S
C1093 C1088 1.425 . S
C1093 C1090 1.409 . S
C1093 C1091 1.415 . S
C1094 H1084 0.930 . S
C1094 C1092 1.419 . S
C1094 C1095 1.362 . S
C1095 H1085 0.930 . S
C1095 C1088 1.409 . S
C1095 C1094 1.362 . S
H1096 C1102 0.930 . S
H1097 C1105 0.930 . S
H1098 C1106 0.930 . S
H1099 C1107 0.930 . S
H1100 C1110 0.930 . S
H1101 C1111 0.930 . S
C1102 H1096 0.930 . S
C1102 C1103 1.355 . S
C1102 C1104 1.415 . S
C1103 C1102 1.355 . S
C1103 C1105 1.419 . S
C1104 C1102 1.415 . S
C1104 C1109 1.425 . S
C1104 C1111 1.409 . S
C1105 H1097 0.930 . S
C1105 C1103 1.419 . S
C1105 C1106 1.362 . S
C1106 H1098 0.930 . S
C1106 C1105 1.362 . S
C1106 C1109 1.409 . S
C1107 H1099 0.930 . S
C1107 C1108 1.355 . S
C1107 C1109 1.415 . S
C1108 C1107 1.355 . S
C1108 C1110 1.419 . S
C1109 C1104 1.425 . S
C1109 C1106 1.409 . S
C1109 C1107 1.415 . S
C1110 H1100 0.930 . S
C1110 C1108 1.419 . S
C1110 C1111 1.362 . S
C1111 H1101 0.930 . S
C1111 C1104 1.409 . S
C1111 C1110 1.362 . S
H1112 C1118 0.930 . S
H1113 C1121 0.930 . S
H1114 C1122 0.930 . S
H1115 C1123 0.930 . S
H1116 C1126 0.930 . S
H1117 C1127 0.930 . S
C1118 H1112 0.930 . S
C1118 C1119 1.355 . S
C1118 C1120 1.415 . S
C1119 C1118 1.355 . S
C1119 C1121 1.419 . S
C1120 C1118 1.415 . S
C1120 C1125 1.425 . S
C1120 C1127 1.409 . S
C1121 H1113 0.930 . S
C1121 C1119 1.419 . S
C1121 C1122 1.362 . S
C1122 H1114 0.930 . S
C1122 C1121 1.362 . S
C1122 C1125 1.409 . S
C1123 H1115 0.930 . S
C1123 C1124 1.355 . S
C1123 C1125 1.415 . S
C1124 C1123 1.355 . S
C1124 C1126 1.419 . S
C1125 C1120 1.425 . S
C1125 C1122 1.409 . S
C1125 C1123 1.415 . S
C1126 H1116 0.930 . S
C1126 C1124 1.419 . S
C1126 C1127 1.362 . S
C1127 H1117 0.930 . S
C1127 C1120 1.409 . S
C1127 C1126 1.362 . S
H1128 C1134 0.930 . S
H1129 C1137 0.930 . S
H1130 C1138 0.930 . S
H1131 C1139 0.930 . S
H1132 C1142 0.930 . S
H1133 C1143 0.930 . S
C1134 H1128 0.930 . S
C1134 C1135 1.355 . S
C1134 C1136 1.415 . S
C1135 C1134 1.355 . S
C1135 C1137 1.419 . S
C1136 C1134 1.415 . S
C1136 C1141 1.425 . S
C1136 C1143 1.409 . S
C1137 H1129 0.930 . S
C1137 C1135 1.419 . S
C1137 C1138 1.362 . S
C1138 H1130 0.930 . S
C1138 C1137 1.362 . S
C1138 C1141 1.409 . S
C1139 H1131 0.930 . S
C1139 C1140 1.355 . S
C1139 C1141 1.415 . S
C1140 C1139 1.355 . S
C1140 C1142 1.419 . S
C1141 C1136 1.425 . S
C1141 C1138 1.409 . S
C1141 C1139 1.415 . S
C1142 H1132 0.930 . S
C1142 C1140 1.419 . S
C1142 C1143 1.362 . S
C1143 H1133 0.930 . S
C1143 C1136 1.409 . S
C1143 C1142 1.362 . S
H1144 C1150 0.930 . S
H1145 C1153 0.930 . S
H1146 C1154 0.930 . S
H1147 C1155 0.930 . S
H1148 C1158 0.930 . S
H1149 C1159 0.930 . S
C1150 H1144 0.930 . S
C1150 C1151 1.355 . S
C1150 C1152 1.415 . S
C1151 C1150 1.355 . S
C1151 C1153 1.419 . S
C1152 C1150 1.415 . S
C1152 C1157 1.425 . S
C1152 C1159 1.409 . S
C1153 H1145 0.930 . S
C1153 C1151 1.419 . S
C1153 C1154 1.362 . S
C1154 H1146 0.930 . S
C1154 C1153 1.362 . S
C1154 C1157 1.409 . S
C1155 H1147 0.930 . S
C1155 C1156 1.355 . S
C1155 C1157 1.415 . S
C1156 C1155 1.355 . S
C1156 C1158 1.419 . S
C1157 C1152 1.425 . S
C1157 C1154 1.409 . S
C1157 C1155 1.415 . S
C1158 H1148 0.930 . S
C1158 C1156 1.419 . S
C1158 C1159 1.362 . S
C1159 H1149 0.930 . S
C1159 C1152 1.409 . S
C1159 C1158 1.362 . S
H1160 C1166 0.930 . S
H1161 C1169 0.930 . S
H1162 C1170 0.930 . S
H1163 C1171 0.930 . S
H1164 C1174 0.930 . S
H1165 C1175 0.930 . S
C1166 H1160 0.930 . S
C1166 C1167 1.355 . S
C1166 C1168 1.415 . S
C1167 C1166 1.355 . S
C1167 C1169 1.419 . S
C1168 C1166 1.415 . S
C1168 C1173 1.425 . S
C1168 C1175 1.409 . S
C1169 H1161 0.930 . S
C1169 C1167 1.419 . S
C1169 C1170 1.362 . S
C1170 H1162 0.930 . S
C1170 C1169 1.362 . S
C1170 C1173 1.409 . S
C1171 H1163 0.930 . S
C1171 C1172 1.355 . S
C1171 C1173 1.415 . S
C1172 C1171 1.355 . S
C1172 C1174 1.419 . S
C1173 C1168 1.425 . S
C1173 C1170 1.409 . S
C1173 C1171 1.415 . S
C1174 H1164 0.930 . S
C1174 C1172 1.419 . S
C1174 C1175 1.362 . S
C1175 H1165 0.930 . S
C1175 C1168 1.409 . S
C1175 C1174 1.362 . S
H1176 C1182 0.930 . S
H1177 C1185 0.930 . S
H1178 C1186 0.930 . S
H1179 C1187 0.930 . S
H1180 C1190 0.930 . S
H1181 C1191 0.930 . S
C1182 H1176 0.930 . S
C1182 C1183 1.355 . S
C1182 C1184 1.415 . S
C1183 C1182 1.355 . S
C1183 C1185 1.419 . S
C1184 C1182 1.415 . S
C1184 C1189 1.425 . S
C1184 C1191 1.409 . S
C1185 H1177 0.930 . S
C1185 C1183 1.419 . S
C1185 C1186 1.362 . S
C1186 H1178 0.930 . S
C1186 C1185 1.362 . S
C1186 C1189 1.409 . S
C1187 H1179 0.930 . S
C1187 C1188 1.355 . S
C1187 C1189 1.415 . S
C1188 C1187 1.355 . S
C1188 C1190 1.419 . S
C1189 C1184 1.425 . S
C1189 C1186 1.409 . S
C1189 C1187 1.415 . S
C1190 H1180 0.930 . S
C1190 C1188 1.419 . S
C1190 C1191 1.362 . S
C1191 H1181 0.930 . S
C1191 C1184 1.409 . S
C1191 C1190 1.362 . S
H1192 C1198 0.930 . S
H1193 C1201 0.930 . S
H1194 C1202 0.930 . S
H1195 C1203 0.930 . S
H1196 C1206 0.930 . S
H1197 C1207 0.930 . S
C1198 H1192 0.930 . S
C1198 C1199 1.355 . S
C1198 C1200 1.415 . S
C1199 C1198 1.355 . S
C1199 C1201 1.419 . S
C1200 C1198 1.415 . S
C1200 C1205 1.425 . S
C1200 C1207 1.409 . S
C1201 H1193 0.930 . S
C1201 C1199 1.419 . S
C1201 C1202 1.362 . S
C1202 H1194 0.930 . S
C1202 C1201 1.362 . S
C1202 C1205 1.409 . S
C1203 H1195 0.930 . S
C1203 C1204 1.355 . S
C1203 C1205 1.415 . S
C1204 C1203 1.355 . S
C1204 C1206 1.419 . S
C1205 C1200 1.425 . S
C1205 C1202 1.409 . S
C1205 C1203 1.415 . S
C1206 H1196 0.930 . S
C1206 C1204 1.419 . S
C1206 C1207 1.362 . S
C1207 H1197 0.930 . S
C1207 C1200 1.409 . S
C1207 C1206 1.362 . S
H1208 C1214 0.930 . S
H1209 C1217 0.930 . S
H1210 C1218 0.930 . S
H1211 C1219 0.930 . S
H1212 C1222 0.930 . S
H1213 C1223 0.930 . S
C1214 H1208 0.930 . S
C1214 C1215 1.355 . S
C1214 C1216 1.415 . S
C1215 C1214 1.355 . S
C1215 C1217 1.419 . S
C1216 C1214 1.415 . S
C1216 C1221 1.425 . S
C1216 C1223 1.409 . S
C1217 H1209 0.930 . S
C1217 C1215 1.419 . S
C1217 C1218 1.362 . S
C1218 H1210 0.930 . S
C1218 C1217 1.362 . S
C1218 C1221 1.409 . S
C1219 H1211 0.930 . S
C1219 C1220 1.355 . S
C1219 C1221 1.415 . S
C1220 C1219 1.355 . S
C1220 C1222 1.419 . S
C1221 C1216 1.425 . S
C1221 C1218 1.409 . S
C1221 C1219 1.415 . S
C1222 H1212 0.930 . S
C1222 C1220 1.419 . S
C1222 C1223 1.362 . S
C1223 H1213 0.930 . S
C1223 C1216 1.409 . S
C1223 C1222 1.362 . S
H1224 C1230 0.930 . S
H1225 C1233 0.930 . S
H1226 C1234 0.930 . S
H1227 C1235 0.930 . S
H1228 C1238 0.930 . S
H1229 C1239 0.930 . S
C1230 H1224 0.930 . S
C1230 C1231 1.355 . S
C1230 C1232 1.415 . S
C1231 C1230 1.355 . S
C1231 C1233 1.419 . S
C1232 C1230 1.415 . S
C1232 C1237 1.425 . S
C1232 C1239 1.409 . S
C1233 H1225 0.930 . S
C1233 C1231 1.419 . S
C1233 C1234 1.362 . S
C1234 H1226 0.930 . S
C1234 C1233 1.362 . S
C1234 C1237 1.409 . S
C1235 H1227 0.930 . S
C1235 C1236 1.355 . S
C1235 C1237 1.415 . S
C1236 C1235 1.355 . S
C1236 C1238 1.419 . S
C1237 C1232 1.425 . S
C1237 C1234 1.409 . S
C1237 C1235 1.415 . S
C1238 H1228 0.930 . S
C1238 C1236 1.419 . S
C1238 C1239 1.362 . S
C1239 H1229 0.930 . S
C1239 C1232 1.409 . S
C1239 C1238 1.362 . S
H1240 C1246 0.930 . S
H1241 C1249 0.930 . S
H1242 C1250 0.930 . S
H1243 C1251 0.930 . S
H1244 C1254 0.930 . S
H1245 C1255 0.930 . S
C1246 H1240 0.930 . S
C1246 C1247 1.355 . S
C1246 C1248 1.415 . S
C1247 C1246 1.355 . S
C1247 C1249 1.419 . S
C1248 C1246 1.415 . S
C1248 C1253 1.425 . S
C1248 C1255 1.409 . S
C1249 H1241 0.930 . S
C1249 C1247 1.419 . S
C1249 C1250 1.362 . S
C1250 H1242 0.930 . S
C1250 C1249 1.362 . S
C1250 C1253 1.409 . S
C1251 H1243 0.930 . S
C1251 C1252 1.355 . S
C1251 C1253 1.415 . S
C1252 C1251 1.355 . S
C1252 C1254 1.419 . S
C1253 C1248 1.425 . S
C1253 C1250 1.409 . S
C1253 C1251 1.415 . S
C1254 H1244 0.930 . S
C1254 C1252 1.419 . S
C1254 C1255 1.362 . S
C1255 H1245 0.930 . S
C1255 C1248 1.409 . S
C1255 C1254 1.362 . S
H1256 C1262 0.930 . S
H1257 C1265 0.930 . S
H1258 C1266 0.930 . S
H1259 C1267 0.930 . S
H1260 C1270 0.930 . S
H1261 C1271 0.930 . S
C1262 H1256 0.930 . S
C1262 C1263 1.355 . S
C1262 C1264 1.415 . S
C1263 C1262 1.355 . S
C1263 C1265 1.419 . S
C1264 C1262 1.415 . S
C1264 C1269 1.425 . S
C1264 C1271 1.409 . S
C1265 H1257 0.930 . S
C1265 C1263 1.419 . S
C1265 C1266 1.362 . S
C1266 H1258 0.930 . S
C1266 C1265 1.362 . S
C1266 C1269 1.409 . S
C1267 H1259 0.930 . S
C1267 C1268 1.355 . S
C1267 C1269 1.415 . S
C1268 C1267 1.355 . S
C1268 C1270 1.419 . S
C1269 C1264 1.425 . S
C1269 C1266 1.409 . S
C1269 C1267 1.415 . S
C1270 H1260 0.930 . S
C1270 C1268 1.419 . S
C1270 C1271 1.362 . S
C1271 H1261 0.930 . S
C1271 C1264 1.409 . S
C1271 C1270 1.362 . S
H1272 C1278 0.930 . S
H1273 C1281 0.930 . S
H1274 C1282 0.930 . S
H1275 C1283 0.930 . S
H1276 C1286 0.930 . S
H1277 C1287 0.930 . S
C1278 H1272 0.930 . S
C1278 C1279 1.355 . S
C1278 C1280 1.415 . S
C1279 C1278 1.355 . S
C1279 C1281 1.419 . S
C1280 C1278 1.415 . S
C1280 C1285 1.425 . S
C1280 C1287 1.409 . S
C1281 H1273 0.930 . S
C1281 C1279 1.419 . S
C1281 C1282 1.362 . S
C1282 H1274 0.930 . S
C1282 C1281 1.362 . S
C1282 C1285 1.409 . S
C1283 H1275 0.930 . S
C1283 C1284 1.355 . S
C1283 C1285 1.415 . S
C1284 C1283 1.355 . S
C1284 C1286 1.419 . S
C1285 C1280 1.425 . S
C1285 C1282 1.409 . S
C1285 C1283 1.415 . S
C1286 H1276 0.930 . S
C1286 C1284 1.419 . S
C1286 C1287 1.362 . S
C1287 H1277 0.930 . S
C1287 C1280 1.409 . S
C1287 C1286 1.362 . S
H1288 C1294 0.930 . S
H1289 C1297 0.930 . S
H1290 C1298 0.930 . S
H1291 C1299 0.930 . S
H1292 C1302 0.930 . S
H1293 C1303 0.930 . S
C1294 H1288 0.930 . S
C1294 C1295 1.355 . S
C1294 C1296 1.415 . S
C1295 C1294 1.355 . S
C1295 C1297 1.419 . S
C1296 C1294 1.415 . S
C1296 C1301 1.425 . S
C1296 C1303 1.409 . S
C1297 H1289 0.930 . S
C1297 C1295 1.419 . S
C1297 C1298 1.362 . S
C1298 H1290 0.930 . S
C1298 C1297 1.362 . S
C1298 C1301 1.409 . S
C1299 H1291 0.930 . S
C1299 C1300 1.355 . S
C1299 C1301 1.415 . S
C1300 C1299 1.355 . S
C1300 C1302 1.419 . S
C1301 C1296 1.425 . S
C1301 C1298 1.409 . S
C1301 C1299 1.415 . S
C1302 H1292 0.930 . S
C1302 C1300 1.419 . S
C1302 C1303 1.362 . S
C1303 H1293 0.930 . S
C1303 C1296 1.409 . S
C1303 C1302 1.362 . S
H1304 C1310 0.930 . S
H1305 C1313 0.930 . S
H1306 C1314 0.930 . S
H1307 C1315 0.930 . S
H1308 C1318 0.930 . S
H1309 C1319 0.930 . S
C1310 H1304 0.930 . S
C1310 C1311 1.355 . S
C1310 C1312 1.415 . S
C1311 C1310 1.355 . S
C1311 C1313 1.419 . S
C1312 C1310 1.415 . S
C1312 C1317 1.425 . S
C1312 C1319 1.409 . S
C1313 H1305 0.930 . S
C1313 C1311 1.419 . S
C1313 C1314 1.362 . S
C1314 H1306 0.930 . S
C1314 C1313 1.362 . S
C1314 C1317 1.409 . S
C1315 H1307 0.930 . S
C1315 C1316 1.355 . S
C1315 C1317 1.415 . S
C1316 C1315 1.355 . S
C1316 C1318 1.419 . S
C1317 C1312 1.425 . S
C1317 C1314 1.409 . S
C1317 C1315 1.415 . S
C1318 H1308 0.930 . S
C1318 C1316 1.419 . S
C1318 C1319 1.362 . S
C1319 H1309 0.930 . S
C1319 C1312 1.409 . S
C1319 C1318 1.362 . S
H1320 C1326 0.930 . S
H1321 C1329 0.930 . S
H1322 C1330 0.930 . S
H1323 C1331 0.930 . S
H1324 C1334 0.930 . S
H1325 C1335 0.930 . S
C1326 H1320 0.930 . S
C1326 C1327 1.355 . S
C1326 C1328 1.415 . S
C1327 C1326 1.355 . S
C1327 C1329 1.419 . S
C1328 C1326 1.415 . S
C1328 C1333 1.425 . S
C1328 C1335 1.409 . S
C1329 H1321 0.930 . S
C1329 C1327 1.419 . S
C1329 C1330 1.362 . S
C1330 H1322 0.930 . S
C1330 C1329 1.362 . S
C1330 C1333 1.409 . S
C1331 H1323 0.930 . S
C1331 C1332 1.355 . S
C1331 C1333 1.415 . S
C1332 C1331 1.355 . S
C1332 C1334 1.419 . S
C1333 C1328 1.425 . S
C1333 C1330 1.409 . S
C1333 C1331 1.415 . S
C1334 H1324 0.930 . S
C1334 C1332 1.419 . S
C1334 C1335 1.362 . S
C1335 H1325 0.930 . S
C1335 C1328 1.409 . S
C1335 C1334 1.362 . S
H1336 C1342 0.930 . S
H1337 C1345 0.930 . S
H1338 C1346 0.930 . S
H1339 C1347 0.930 . S
H1340 C1350 0.930 . S
H1341 C1351 0.930 . S
C1342 H1336 0.930 . S
C1342 C1343 1.355 . S
C1342 C1344 1.415 . S
C1343 C1342 1.355 . S
C1343 C1345 1.419 . S
C1344 C1342 1.415 . S
C1344 C1349 1.425 . S
C1344 C1351 1.409 . S
C1345 H1337 0.930 . S
C1345 C1343 1.419 . S
C1345 C1346 1.362 . S
C1346 H1338 0.930 . S
C1346 C1345 1.362 . S
C1346 C1349 1.409 . S
C1347 H1339 0.930 . S
C1347 C1348 1.355 . S
C1347 C1349 1.415 . S
C1348 C1347 1.355 . S
C1348 C1350 1.419 . S
C1349 C1344 1.425 . S
C1349 C1346 1.409 . S
C1349 C1347 1.415 . S
C1350 H1340 0.930 . S
C1350 C1348 1.419 . S
C1350 C1351 1.362 . S
C1351 H1341 0.930 . S
C1351 C1344 1.409 . S
C1351 C1350 1.362 . S
H1352 C1358 0.930 . S
H1353 C1361 0.930 . S
H1354 C1362 0.930 . S
H1355 C1363 0.930 . S
H1356 C1366 0.930 . S
H1357 C1367 0.930 . S
C1358 H1352 0.930 . S
C1358 C1359 1.355 . S
C1358 C1360 1.415 . S
C1359 C1358 1.355 . S
C1359 C1361 1.419 . S
C1360 C1358 1.415 . S
C1360 C1365 1.425 . S
C1360 C1367 1.409 . S
C1361 H1353 0.930 . S
C1361 C1359 1.419 . S
C1361 C1362 1.362 . S
C1362 H1354 0.930 . S
C1362 C1361 1.362 . S
C1362 C1365 1.409 . S
C1363 H1355 0.930 . S
C1363 C1364 1.355 . S
C1363 C1365 1.415 . S
C1364 C1363 1.355 . S
C1364 C1366 1.419 . S
C1365 C1360 1.425 . S
C1365 C1362 1.409 . S
C1365 C1363 1.415 . S
C1366 H1356 0.930 . S
C1366 C1364 1.419 . S
C1366 C1367 1.362 . S
C1367 H1357 0.930 . S
C1367 C1360 1.409 . S
C1367 C1366 1.362 . S
H1368 C1374 0.930 . S
H1369 C1377 0.930 . S
H1370 C1378 0.930 . S
H1371 C1379 0.930 . S
H1372 C1382 0.930 . S
H1373 C1383 0.930 . S
C1374 H1368 0.930 . S
C1374 C1375 1.355 . S
C1374 C1376 1.415 . S
C1375 C1374 1.355 . S
C1375 C1377 1.419 . S
C1376 C1374 1.415 . S
C1376 C1381 1.425 . S
C1376 C1383 1.409 . S
C1377 H1369 0.930 . S
C1377 C1375 1.419 . S
C1377 C1378 1.362 . S
C1378 H1370 0.930 . S
C1378 C1377 1.362 . S
C1378 C1381 1.409 . S
C1379 H1371 0.930 . S
C1379 C1380 1.355 . S
C1379 C1381 1.415 . S
C1380 C1379 1.355 . S
C1380 C1382 1.419 . S
C1381 C1376 1.425 . S
C1381 C1378 1.409 . S
C1381 C1379 1.415 . S
C1382 H1372 0.930 . S
C1382 C1380 1.419 . S
C1382 C1383 1.362 . S
C1383 H1373 0.930 . S
C1383 C1376 1.409 . S
C1383 C1382 1.362 . S
H1384 C1390 0.930 . S
H1385 C1393 0.930 . S
H1386 C1394 0.930 . S
H1387 C1395 0.930 . S
H1388 C1398 0.930 . S
H1389 C1399 0.930 . S
C1390 H1384 0.930 . S
C1390 C1391 1.355 . S
C1390 C1392 1.415 . S
C1391 C1390 1.355 . S
C1391 C1393 1.419 . S
C1392 C1390 1.415 . S
C1392 C1397 1.425 . S
C1392 C1399 1.409 1_565 S
C1393 H1385 0.930 . S
C1393 C1391 1.419 . S
C1393 C1394 1.362 . S
C1394 H1386 0.930 . S
C1394 C1393 1.362 . S
C1394 C1397 1.409 . S
C1395 H1387 0.930 . S
C1395 C1396 1.355 1_565 S
C1395 C1397 1.415 . S
C1396 C1395 1.355 1_545 S
C1396 C1398 1.419 . S
C1397 C1392 1.425 . S
C1397 C1394 1.409 . S
C1397 C1395 1.415 . S
C1398 H1388 0.930 . S
C1398 C1396 1.419 . S
C1398 C1399 1.362 . S
C1399 H1389 0.930 . S
C1399 C1392 1.409 1_545 S
C1399 C1398 1.362 . S
H1400 C1406 0.930 . S
H1401 C1409 0.930 . S
H1402 C1410 0.930 . S
H1403 C1411 0.930 . S
H1404 C1414 0.930 . S
H1405 C1415 0.930 . S
C1406 H1400 0.930 . S
C1406 C1407 1.355 1_455 S
C1406 C1408 1.415 . S
C1407 C1406 1.355 1_655 S
C1407 C1409 1.419 . S
C1408 C1406 1.415 . S
C1408 C1413 1.425 . S
C1408 C1415 1.409 . S
C1409 H1401 0.930 . S
C1409 C1407 1.419 . S
C1409 C1410 1.362 . S
C1410 H1402 0.930 . S
C1410 C1409 1.362 . S
C1410 C1413 1.409 1_655 S
C1411 H1403 0.930 . S
C1411 C1412 1.355 . S
C1411 C1413 1.415 . S
C1412 C1411 1.355 . S
C1412 C1414 1.419 . S
C1413 C1408 1.425 . S
C1413 C1410 1.409 1_455 S
C1413 C1411 1.415 . S
C1414 H1404 0.930 . S
C1414 C1412 1.419 . S
C1414 C1415 1.362 . S
C1415 H1405 0.930 . S
C1415 C1408 1.409 . S
C1415 C1414 1.362 . S
H1416 C1422 0.930 . S
H1417 C1425 0.930 . S
H1418 C1426 0.930 . S
H1419 C1427 0.930 . S
H1420 C1430 0.930 . S
H1421 C1431 0.930 . S
C1422 H1416 0.930 . S
C1422 C1423 1.355 . S
C1422 C1424 1.415 . S
C1423 C1422 1.355 . S
C1423 C1425 1.419 . S
C1424 C1422 1.415 . S
C1424 C1429 1.425 . S
C1424 C1431 1.409 . S
C1425 H1417 0.930 . S
C1425 C1423 1.419 . S
C1425 C1426 1.362 . S
C1426 H1418 0.930 . S
C1426 C1425 1.362 . S
C1426 C1429 1.409 . S
C1427 H1419 0.930 . S
C1427 C1428 1.355 . S
C1427 C1429 1.415 . S
C1428 C1427 1.355 . S
C1428 C1430 1.419 . S
C1429 C1424 1.425 . S
C1429 C1426 1.409 . S
C1429 C1427 1.415 . S
C1430 H1420 0.930 . S
C1430 C1428 1.419 . S
C1430 C1431 1.362 . S
C1431 H1421 0.930 . S
C1431 C1424 1.409 . S
C1431 C1430 1.362 . S
H1432 C1438 0.930 . S
H1433 C1441 0.930 . S
H1434 C1442 0.930 . S
H1435 C1443 0.930 . S
H1436 C1446 0.930 1_565 S
H1437 C1447 0.930 . S
C1438 H1432 0.930 . S
C1438 C1439 1.355 . S
C1438 C1440 1.415 . S
C1439 C1438 1.355 . S
C1439 C1441 1.419 . S
C1440 C1438 1.415 . S
C1440 C1445 1.425 . S
C1440 C1447 1.409 . S
C1441 H1433 0.930 . S
C1441 C1439 1.419 . S
C1441 C1442 1.362 . S
C1442 H1434 0.930 . S
C1442 C1441 1.362 . S
C1442 C1445 1.409 . S
C1443 H1435 0.930 . S
C1443 C1444 1.355 1_545 S
C1443 C1445 1.415 . S
C1444 C1443 1.355 1_565 S
C1444 C1446 1.419 1_565 S
C1445 C1440 1.425 . S
C1445 C1442 1.409 . S
C1445 C1443 1.415 . S
C1446 H1436 0.930 1_545 S
C1446 C1444 1.419 1_545 S
C1446 C1447 1.362 . S
C1447 H1437 0.930 . S
C1447 C1440 1.409 . S
C1447 C1446 1.362 . S
H1448 C1454 0.930 . S
H1449 C1457 0.930 . S
H1450 C1458 0.930 . S
H1451 C1459 0.930 . S
H1452 C1462 0.930 . S
H1453 C1463 0.930 . S
C1454 H1448 0.930 . S
C1454 C1455 1.355 1_655 S
C1454 C1456 1.415 . S
C1455 C1454 1.355 1_455 S
C1455 C1457 1.419 . S
C1456 C1454 1.415 . S
C1456 C1461 1.425 . S
C1456 C1463 1.409 . S
C1457 H1449 0.930 . S
C1457 C1455 1.419 . S
C1457 C1458 1.362 . S
C1458 H1450 0.930 . S
C1458 C1457 1.362 . S
C1458 C1461 1.409 1_455 S
C1459 H1451 0.930 . S
C1459 C1460 1.355 . S
C1459 C1461 1.415 . S
C1460 C1459 1.355 . S
C1460 C1462 1.419 . S
C1461 C1456 1.425 . S
C1461 C1458 1.409 1_655 S
C1461 C1459 1.415 . S
C1462 H1452 0.930 . S
C1462 C1460 1.419 . S
C1462 C1463 1.362 . S
C1463 H1453 0.930 . S
C1463 C1456 1.409 . S
C1463 C1462 1.362 . S
H1464 C1470 0.930 . S
H1465 C1473 0.930 . S
H1466 C1474 0.930 . S
H1467 C1475 0.930 . S
H1468 C1478 0.930 . S
H1469 C1479 0.930 . S
C1470 H1464 0.930 . S
C1470 C1471 1.355 . S
C1470 C1472 1.415 . S
C1471 C1470 1.355 . S
C1471 C1473 1.419 . S
C1472 C1470 1.415 . S
C1472 C1477 1.425 . S
C1472 C1479 1.409 . S
C1473 H1465 0.930 . S
C1473 C1471 1.419 . S
C1473 C1474 1.362 . S
C1474 H1466 0.930 . S
C1474 C1473 1.362 . S
C1474 C1477 1.409 . S
C1475 H1467 0.930 . S
C1475 C1476 1.355 . S
C1475 C1477 1.415 . S
C1476 C1475 1.355 . S
C1476 C1478 1.419 . S
C1477 C1472 1.425 . S
C1477 C1474 1.409 . S
C1477 C1475 1.415 . S
C1478 H1468 0.930 . S
C1478 C1476 1.419 . S
C1478 C1479 1.362 . S
C1479 H1469 0.930 . S
C1479 C1472 1.409 . S
C1479 C1478 1.362 . S
H1480 C1486 0.930 . S
H1481 C1489 0.930 . S
H1482 C1490 0.930 . S
H1483 C1491 0.930 . S
H1484 C1494 0.930 . S
H1485 C1495 0.930 1_565 S
C1486 H1480 0.930 . S
C1486 C1487 1.358 1_565 S
C1486 C1488 1.415 1_565 S
C1487 C1486 1.358 1_545 S
C1487 C1489 1.415 . S
C1488 C1486 1.415 1_545 S
C1488 C1493 1.425 . S
C1488 C1495 1.409 . S
C1489 H1481 0.930 . S
C1489 C1487 1.415 . S
C1489 C1490 1.362 . S
C1490 H1482 0.930 . S
C1490 C1489 1.362 . S
C1490 C1493 1.409 . S
C1491 H1483 0.930 . S
C1491 C1492 1.355 . S
C1491 C1493 1.415 . S
C1492 C1491 1.355 . S
C1492 C1494 1.419 . S
C1493 C1488 1.425 . S
C1493 C1490 1.409 . S
C1493 C1491 1.415 . S
C1494 H1484 0.930 . S
C1494 C1492 1.419 . S
C1494 C1495 1.362 . S
C1495 H1485 0.930 1_545 S
C1495 C1488 1.409 . S
C1495 C1494 1.362 . S
H1496 C1502 0.930 . S
H1497 C1505 0.930 . S
H1498 C1506 0.930 . S
H1499 C1507 0.930 . S
H1500 C1510 0.930 . S
H1501 C1511 0.930 1_455 S
C1502 H1496 0.930 . S
C1502 C1503 1.359 1_455 S
C1502 C1504 1.415 1_455 S
C1503 C1502 1.359 1_655 S
C1503 C1505 1.439 . S
C1504 C1502 1.415 1_655 S
C1504 C1509 1.425 . S
C1504 C1511 1.409 . S
C1505 H1497 0.930 . S
C1505 C1503 1.439 . S
C1505 C1506 1.362 . S
C1506 H1498 0.930 . S
C1506 C1505 1.362 . S
C1506 C1509 1.409 . S
C1507 H1499 0.930 . S
C1507 C1508 1.355 . S
C1507 C1509 1.415 . S
C1508 C1507 1.355 . S
C1508 C1510 1.419 . S
C1509 C1504 1.425 . S
C1509 C1506 1.409 . S
C1509 C1507 1.415 . S
C1510 H1500 0.930 . S
C1510 C1508 1.419 . S
C1510 C1511 1.362 . S
C1511 H1501 0.930 1_655 S
C1511 C1504 1.409 . S
C1511 C1510 1.362 . S
H1512 C1518 0.930 . S
H1513 C1521 0.930 . S
H1514 C1522 0.930 . S
H1515 C1523 0.930 . S
H1516 C1526 0.930 . S
H1517 C1527 0.930 . S
C1518 H1512 0.930 . S
C1518 C1519 1.355 . S
C1518 C1520 1.415 . S
C1519 C1518 1.355 . S
C1519 C1521 1.419 . S
C1520 C1518 1.415 . S
C1520 C1525 1.425 . S
C1520 C1527 1.409 . S
C1521 H1513 0.930 . S
C1521 C1519 1.419 . S
C1521 C1522 1.362 . S
C1522 H1514 0.930 . S
C1522 C1521 1.362 . S
C1522 C1525 1.409 . S
C1523 H1515 0.930 . S
C1523 C1524 1.355 . S
C1523 C1525 1.415 . S
C1524 C1523 1.355 . S
C1524 C1526 1.419 . S
C1525 C1520 1.425 . S
C1525 C1522 1.409 . S
C1525 C1523 1.415 . S
C1526 H1516 0.930 . S
C1526 C1524 1.419 . S
C1526 C1527 1.362 . S
C1527 H1517 0.930 . S
C1527 C1520 1.409 . S
C1527 C1526 1.362 . S
H1528 C1534 0.930 . S
H1529 C1537 0.930 . S
H1530 C1538 0.930 . S
H1531 C1539 0.930 . S
H1532 C1542 0.930 . S
H1533 C1543 0.930 1_545 S
C1534 H1528 0.930 . S
C1534 C1535 1.343 . S
C1534 C1536 1.415 1_545 S
C1535 C1534 1.343 . S
C1535 C1537 1.398 1_545 S
C1536 C1534 1.415 1_565 S
C1536 C1541 1.425 . S
C1536 C1543 1.409 . S
C1537 H1529 0.930 . S
C1537 C1535 1.398 1_565 S
C1537 C1538 1.362 . S
C1538 H1530 0.930 . S
C1538 C1537 1.362 . S
C1538 C1541 1.409 . S
C1539 H1531 0.930 . S
C1539 C1540 1.355 . S
C1539 C1541 1.415 . S
C1540 C1539 1.355 . S
C1540 C1542 1.419 . S
C1541 C1536 1.425 . S
C1541 C1538 1.409 . S
C1541 C1539 1.415 . S
C1542 H1532 0.930 . S
C1542 C1540 1.419 . S
C1542 C1543 1.362 . S
C1543 H1533 0.930 1_565 S
C1543 C1536 1.409 . S
C1543 C1542 1.362 . S
H1544 C1550 0.930 . S
H1545 C1553 0.930 . S
H1546 C1554 0.930 . S
H1547 C1555 0.935 . S
H1548 C1558 0.930 . S
H1549 C1559 0.930 . S
C1550 H1544 0.930 . S
C1550 C1551 1.355 . S
C1550 C1552 1.415 . S
C1551 C1550 1.355 . S
C1551 C1553 1.419 . S
C1552 C1550 1.415 . S
C1552 C1557 1.425 . S
C1552 C1559 1.409 . S
C1553 H1545 0.930 . S
C1553 C1551 1.419 . S
C1553 C1554 1.362 . S
C1554 H1546 0.930 . S
C1554 C1553 1.362 . S
C1554 C1557 1.409 . S
C1555 H1547 0.935 . S
C1555 C1556 1.361 1_455 S
C1555 C1557 1.415 . S
C1556 C1555 1.361 1_655 S
C1556 C1558 1.412 1_655 S
C1557 C1552 1.425 . S
C1557 C1554 1.409 . S
C1557 C1555 1.415 . S
C1558 H1548 0.930 . S
C1558 C1556 1.412 1_455 S
C1558 C1559 1.362 . S
C1559 H1549 0.930 . S
C1559 C1552 1.409 . S
C1559 C1558 1.362 . S
H1560 C1566 0.930 . S
H1561 C1569 0.930 . S
H1562 C1570 0.930 . S
H1563 C1571 0.930 . S
H1564 C1574 0.930 . S
H1565 C1575 0.930 . S
C1566 H1560 0.930 . S
C1566 C1567 1.355 . S
C1566 C1568 1.415 . S
C1567 C1566 1.355 . S
C1567 C1569 1.419 . S
C1568 C1566 1.415 . S
C1568 C1573 1.425 1_655 S
C1568 C1575 1.409 1_655 S
C1569 H1561 0.930 . S
C1569 C1567 1.419 . S
C1569 C1570 1.362 . S
C1570 H1562 0.930 . S
C1570 C1569 1.362 . S
C1570 C1573 1.409 1_655 S
C1571 H1563 0.930 . S
C1571 C1572 1.355 . S
C1571 C1573 1.415 . S
C1572 C1571 1.355 . S
C1572 C1574 1.419 . S
C1573 C1568 1.425 1_455 S
C1573 C1570 1.409 1_455 S
C1573 C1571 1.415 . S
C1574 H1564 0.930 . S
C1574 C1572 1.419 . S
C1574 C1575 1.362 . S
C1575 H1565 0.930 . S
C1575 C1568 1.409 1_455 S
C1575 C1574 1.362 . S
H1576 C1582 0.930 . S
H1577 C1585 0.930 . S
H1578 C1586 0.930 . S
H1579 C1587 0.930 . S
H1580 C1590 0.930 . S
H1581 C1591 0.930 . S
C1582 H1576 0.930 . S
C1582 C1583 1.355 . S
C1582 C1584 1.415 . S
C1583 C1582 1.355 . S
C1583 C1585 1.419 . S
C1584 C1582 1.415 . S
C1584 C1589 1.425 . S
C1584 C1591 1.409 . S
C1585 H1577 0.930 . S
C1585 C1583 1.419 . S
C1585 C1586 1.362 . S
C1586 H1578 0.930 . S
C1586 C1585 1.362 . S
C1586 C1589 1.409 . S
C1587 H1579 0.930 . S
C1587 C1588 1.355 . S
C1587 C1589 1.415 . S
C1588 C1587 1.355 . S
C1588 C1590 1.419 . S
C1589 C1584 1.425 . S
C1589 C1586 1.409 . S
C1589 C1587 1.415 . S
C1590 H1580 0.930 . S
C1590 C1588 1.419 . S
C1590 C1591 1.362 . S
C1591 H1581 0.930 . S
C1591 C1584 1.409 . S
C1591 C1590 1.362 . S
H1592 C1598 0.930 . S
H1593 C1601 0.930 . S
H1594 C1602 0.930 . S
H1595 C1603 0.930 . S
H1596 C1606 0.930 . S
H1597 C1607 0.930 . S
C1598 H1592 0.930 . S
C1598 C1599 1.355 . S
C1598 C1600 1.415 . S
C1599 C1598 1.355 . S
C1599 C1601 1.419 . S
C1600 C1598 1.415 . S
C1600 C1605 1.425 1_565 S
C1600 C1607 1.409 1_565 S
C1601 H1593 0.930 . S
C1601 C1599 1.419 . S
C1601 C1602 1.362 . S
C1602 H1594 0.930 . S
C1602 C1601 1.362 . S
C1602 C1605 1.409 1_565 S
C1603 H1595 0.930 . S
C1603 C1604 1.355 . S
C1603 C1605 1.415 . S
C1604 C1603 1.355 . S
C1604 C1606 1.419 . S
C1605 C1600 1.425 1_545 S
C1605 C1602 1.409 1_545 S
C1605 C1603 1.415 . S
C1606 H1596 0.930 . S
C1606 C1604 1.419 . S
C1606 C1607 1.362 . S
C1607 H1597 0.930 . S
C1607 C1600 1.409 1_545 S
C1607 C1606 1.362 . S
H1608 C1614 0.930 . S
H1609 C1617 0.930 . S
H1610 C1618 0.930 . S
H1611 C1619 0.930 . S
H1612 C1622 0.930 . S
H1613 C1623 0.930 . S
C1614 H1608 0.930 . S
C1614 C1615 1.355 . S
C1614 C1616 1.415 . S
C1615 C1614 1.355 . S
C1615 C1617 1.419 . S
C1616 C1614 1.415 . S
C1616 C1621 1.425 1_565 S
C1616 C1623 1.409 1_565 S
C1617 H1609 0.930 . S
C1617 C1615 1.419 . S
C1617 C1618 1.362 . S
C1618 H1610 0.930 . S
C1618 C1617 1.362 . S
C1618 C1621 1.409 1_565 S
C1619 H1611 0.930 . S
C1619 C1620 1.355 . S
C1619 C1621 1.415 . S
C1620 C1619 1.355 . S
C1620 C1622 1.419 . S
C1621 C1616 1.425 1_545 S
C1621 C1618 1.409 1_545 S
C1621 C1619 1.415 . S
C1622 H1612 0.930 . S
C1622 C1620 1.419 . S
C1622 C1623 1.362 . S
C1623 H1613 0.930 . S
C1623 C1616 1.409 1_545 S
C1623 C1622 1.362 . S
H1624 C1630 0.930 . S
H1625 C1633 0.930 . S
H1626 C1634 0.930 . S
H1627 C1635 0.930 . S
H1628 C1638 0.930 . S
H1629 C1639 0.930 . S
C1630 H1624 0.930 . S
C1630 C1631 1.355 . S
C1630 C1632 1.415 . S
C1631 C1630 1.355 . S
C1631 C1633 1.419 . S
C1632 C1630 1.415 . S
C1632 C1637 1.425 1_655 S
C1632 C1639 1.409 1_655 S
C1633 H1625 0.930 . S
C1633 C1631 1.419 . S
C1633 C1634 1.362 . S
C1634 H1626 0.930 . S
C1634 C1633 1.362 . S
C1634 C1637 1.409 1_655 S
C1635 H1627 0.930 . S
C1635 C1636 1.355 . S
C1635 C1637 1.415 . S
C1636 C1635 1.355 . S
C1636 C1638 1.419 . S
C1637 C1632 1.425 1_455 S
C1637 C1634 1.409 1_455 S
C1637 C1635 1.415 . S
C1638 H1628 0.930 . S
C1638 C1636 1.419 . S
C1638 C1639 1.362 . S
C1639 H1629 0.930 . S
C1639 C1632 1.409 1_455 S
C1639 C1638 1.362 . S
H1640 C1646 0.930 . S
H1641 C1649 0.930 . S
H1642 C1650 0.930 . S
H1643 C1651 0.930 . S
H1644 C1654 0.930 . S
H1645 C1655 0.930 . S
C1646 H1640 0.930 . S
C1646 C1647 1.355 . S
C1646 C1648 1.415 . S
C1647 C1646 1.355 . S
C1647 C1649 1.419 . S
C1648 C1646 1.415 . S
C1648 C1653 1.425 . S
C1648 C1655 1.409 . S
C1649 H1641 0.930 . S
C1649 C1647 1.419 . S
C1649 C1650 1.362 . S
C1650 H1642 0.930 . S
C1650 C1649 1.362 . S
C1650 C1653 1.409 . S
C1651 H1643 0.930 . S
C1651 C1652 1.355 . S
C1651 C1653 1.415 . S
C1652 C1651 1.355 . S
C1652 C1654 1.419 . S
C1653 C1648 1.425 . S
C1653 C1650 1.409 . S
C1653 C1651 1.415 . S
C1654 H1644 0.930 . S
C1654 C1652 1.419 . S
C1654 C1655 1.362 . S
C1655 H1645 0.930 . S
C1655 C1648 1.409 . S
C1655 C1654 1.362 . S
C511 C0 1.531 . S
C516 C265 1.531 . S
C527 C15 1.534 . S
C532 C267 1.533 . S
C543 C293 1.542 . S
C548 C41 1.544 . S
C559 C55 1.549 . S
C564 C462 1.549 . S
C575 C476 1.530 . S
C580 C57 1.530 . S
C591 C71 1.530 . S
C596 C490 1.530 . S
C607 C349 1.547 . S
C612 C97 1.547 . S
C623 C99 1.531 . S
C628 C362 1.531 . S
C639 C125 1.538 . S
C644 C376 1.538 . S
C655 C139 1.551 . S
C660 C223 1.552 . S
C671 C236 1.528 . S
C676 C140 1.529 . S
C687 C154 1.529 . S
C692 C251 1.529 . S
C703 C168 1.547 . S
C708 C420 1.547 . S
C719 C183 1.533 . S
C724 C435 1.533 . S
C735 C209 1.529 . S
C740 C461 1.528 . S
C751 C294 1.534 . S
C756 C391 1.534 . S
C767 C308 1.553 . S
C772 C393 1.553 . S
C783 C322 1.530 . S
C788 C418 1.529 . S
C799 C98 1.602 1_545 S
C804 C13 1.580 . S
C815 C124 1.614 1_655 S
C820 C26 1.611 . S
C831 C28 1.611 . S
C836 C96 1.618 . S
C847 C155 1.607 1_455 S
C852 C42 1.568 . S
C863 C138 1.609 . S
C868 C68 1.570 . S
C879 C141 1.603 1_565 S
C884 C82 1.590 . S
C895 C84 1.590 . S
C900 C14 1.603 1_565 S
C911 C110 1.587 . S
C916 C40 1.602 1_455 S
C927 C112 1.594 . S
C932 C1 1.618 . S
C943 C126 1.611 . S
C948 C70 1.612 1_655 S
C959 C54 1.617 . S
C964 C153 1.585 . S
C975 C56 1.602 1_545 S
C980 C167 1.574 . S
C991 C181 1.611 . S
C996 C266 1.613 . S
C1007 C194 1.592 . S
C1012 C292 1.618 . S
C1023 C196 1.603 . S
C1028 C264 1.619 . S
C1039 C323 1.603 . S
C1044 C210 1.593 . S
C1055 C225 1.608 . S
C1060 C295 1.610 . S
C1071 C309 1.618 . S
C1076 C238 1.594 . S
C1087 C252 1.587 . S
C1092 C182 1.602 . S
C1103 C208 1.616 . S
C1108 C278 1.586 . S
C1119 C169 1.605 . S
C1124 C280 1.597 . S
C1135 C307 1.585 . S
C1140 C250 1.616 . S
C1151 C321 1.567 . S
C1156 C222 1.605 . S
C1167 C335 1.591 . S
C1172 C237 1.617 . S
C1183 C434 1.602 . S
C1188 C336 1.574 . S
C1199 C351 1.605 . S
C1204 C460 1.619 . S
C1215 C365 1.582 . S
C1220 C421 1.602 . S
C1231 C491 1.602 . S
C1236 C378 1.586 . S
C1247 C463 1.616 . S
C1252 C404 1.611 . S
C1263 C477 1.618 . S
C1268 C407 1.592 . S
C1279 C363 1.618 . S
C1284 C433 1.595 . S
C1295 C377 1.604 . S
C1300 C446 1.591 . S
C1311 C348 1.613 . S
C1316 C448 1.612 . S
C1327 C475 1.571 . S
C1332 C419 1.602 . S
C1343 C390 1.619 . S
C1348 C489 1.605 . S
C1359 C503 1.572 . S
C1364 C392 1.611 . S
C1375 C12 1.696 . S
C1380 C406 1.719 . S
C1391 C379 1.722 . S
C1396 C27 1.699 . S
C1407 C29 1.701 . S
C1412 C405 1.723 . S
C1423 C43 1.739 . S
C1428 C195 1.737 . S
C1439 C197 1.734 . S
C1444 C69 1.740 . S
C1455 C83 1.696 . S
C1460 C180 1.713 . S
C1471 C334 1.730 . S
C1476 C85 1.739 . S
C1487 C111 1.715 1_545 S
C1492 C306 1.697 . S
C1503 C113 1.706 1_655 S
C1508 C320 1.708 . S
C1519 C127 1.733 . S
C1524 C447 1.710 . S
C1535 C152 1.741 . S
C1540 C449 1.691 . S
C1551 C432 1.694 . S
C1556 C166 1.712 . S
C1567 C211 1.739 . S
C1572 C350 1.734 . S
C1583 C364 1.739 . S
C1588 C224 1.728 . S
C1599 C337 1.734 . S
C1604 C239 1.712 . S
C1615 C502 1.740 . S
C1620 C253 1.721 . S
C1631 C279 1.724 . S
C1636 C474 1.703 . S
C1647 C281 1.730 . S
C1652 C488 1.740 . S
