# Generated by pormake.
# Topology unr, (4)-cn, num edge types: 1
# Building blocks:
#     Node 0, Type 0, BuildingBlock: AZAVOO_clean_sbu_0, # of connection points: 4
#     Node 1, Type 0, BuildingBlock: AZAVOO_clean_sbu_0, # of connection points: 4
#     Node 2, Type 0, BuildingBlock: AZAVOO_clean_sbu_0, # of connection points: 4
#     Node 3, Type 0, BuildingBlock: AZAVOO_clean_sbu_0, # of connection points: 4
#     Node 4, Type 0, BuildingBlock: AZAVOO_clean_sbu_0, # of connection points: 4
#     Node 5, Type 0, BuildingBlock: AZAVOO_clean_sbu_0, # of connection points: 4
#     Node 6, Type 0, BuildingBlock: AZAVOO_clean_sbu_0, # of connection points: 4
#     Node 7, Type 0, BuildingBlock: AZAVOO_clean_sbu_0, # of connection points: 4
#     Node 8, Type 0, BuildingBlock: AZAVOO_clean_sbu_0, # of connection points: 4
#     Node 9, Type 0, BuildingBlock: AZAVOO_clean_sbu_0, # of connection points: 4
#     Node 10, Type 0, BuildingBlock: AZAVOO_clean_sbu_0, # of connection points: 4
#     Node 11, Type 0, BuildingBlock: AZAVOO_clean_sbu_0, # of connection points: 4
#     Node 12, Type 0, BuildingBlock: AZAVOO_clean_sbu_0, # of connection points: 4
#     Node 13, Type 0, BuildingBlock: AZAVOO_clean_sbu_0, # of connection points: 4
#     Node 14, Type 0, BuildingBlock: AZAVOO_clean_sbu_0, # of connection points: 4
#     Node 15, Type 0, BuildingBlock: AZAVOO_clean_sbu_0, # of connection points: 4
#     Node 16, Type 0, BuildingBlock: AZAVOO_clean_sbu_0, # of connection points: 4
#     Node 17, Type 0, BuildingBlock: AZAVOO_clean_sbu_0, # of connection points: 4
#     Node 18, Type 0, BuildingBlock: AZAVOO_clean_sbu_0, # of connection points: 4
#     Node 19, Type 0, BuildingBlock: AZAVOO_clean_sbu_0, # of connection points: 4
#     Node 20, Type 0, BuildingBlock: AZAVOO_clean_sbu_0, # of connection points: 4
#     Node 21, Type 0, BuildingBlock: AZAVOO_clean_sbu_0, # of connection points: 4
#     Node 22, Type 0, BuildingBlock: AZAVOO_clean_sbu_0, # of connection points: 4
#     Node 23, Type 0, BuildingBlock: AZAVOO_clean_sbu_0, # of connection points: 4
#     Node 24, Type 0, BuildingBlock: AZAVOO_clean_sbu_0, # of connection points: 4
#     Node 25, Type 0, BuildingBlock: AZAVOO_clean_sbu_0, # of connection points: 4
#     Node 26, Type 0, BuildingBlock: AZAVOO_clean_sbu_0, # of connection points: 4
#     Node 27, Type 0, BuildingBlock: AZAVOO_clean_sbu_0, # of connection points: 4
#     Node 28, Type 0, BuildingBlock: AZAVOO_clean_sbu_0, # of connection points: 4
#     Node 29, Type 0, BuildingBlock: AZAVOO_clean_sbu_0, # of connection points: 4
#     Node 30, Type 0, BuildingBlock: AZAVOO_clean_sbu_0, # of connection points: 4
#     Node 31, Type 0, BuildingBlock: AZAVOO_clean_sbu_0, # of connection points: 4
#     Node 32, Type 0, BuildingBlock: AZAVOO_clean_sbu_0, # of connection points: 4
#     Node 33, Type 0, BuildingBlock: AZAVOO_clean_sbu_0, # of connection points: 4
#     Node 34, Type 0, BuildingBlock: AZAVOO_clean_sbu_0, # of connection points: 4
#     Node 35, Type 0, BuildingBlock: AZAVOO_clean_sbu_0, # of connection points: 4
#     Edge 36, Type (0, 0), BuildingBlock: UVAHIK_clean_linker_0, # of connection points: 2
#     Edge 37, Type (0, 0), BuildingBlock: UVAHIK_clean_linker_0, # of connection points: 2
#     Edge 38, Type (0, 0), BuildingBlock: UVAHIK_clean_linker_0, # of connection points: 2
#     Edge 39, Type (0, 0), BuildingBlock: UVAHIK_clean_linker_0, # of connection points: 2
#     Edge 40, Type (0, 0), BuildingBlock: UVAHIK_clean_linker_0, # of connection points: 2
#     Edge 41, Type (0, 0), BuildingBlock: UVAHIK_clean_linker_0, # of connection points: 2
#     Edge 42, Type (0, 0), BuildingBlock: UVAHIK_clean_linker_0, # of connection points: 2
#     Edge 43, Type (0, 0), BuildingBlock: UVAHIK_clean_linker_0, # of connection points: 2
#     Edge 44, Type (0, 0), BuildingBlock: UVAHIK_clean_linker_0, # of connection points: 2
#     Edge 45, Type (0, 0), BuildingBlock: UVAHIK_clean_linker_0, # of connection points: 2
#     Edge 46, Type (0, 0), BuildingBlock: UVAHIK_clean_linker_0, # of connection points: 2
#     Edge 47, Type (0, 0), BuildingBlock: UVAHIK_clean_linker_0, # of connection points: 2
#     Edge 48, Type (0, 0), BuildingBlock: UVAHIK_clean_linker_0, # of connection points: 2
#     Edge 49, Type (0, 0), BuildingBlock: UVAHIK_clean_linker_0, # of connection points: 2
#     Edge 50, Type (0, 0), BuildingBlock: UVAHIK_clean_linker_0, # of connection points: 2
#     Edge 51, Type (0, 0), BuildingBlock: UVAHIK_clean_linker_0, # of connection points: 2
#     Edge 52, Type (0, 0), BuildingBlock: UVAHIK_clean_linker_0, # of connection points: 2
#     Edge 53, Type (0, 0), BuildingBlock: UVAHIK_clean_linker_0, # of connection points: 2
#     Edge 54, Type (0, 0), BuildingBlock: UVAHIK_clean_linker_0, # of connection points: 2
#     Edge 55, Type (0, 0), BuildingBlock: UVAHIK_clean_linker_0, # of connection points: 2
#     Edge 56, Type (0, 0), BuildingBlock: UVAHIK_clean_linker_0, # of connection points: 2
#     Edge 57, Type (0, 0), BuildingBlock: UVAHIK_clean_linker_0, # of connection points: 2
#     Edge 58, Type (0, 0), BuildingBlock: UVAHIK_clean_linker_0, # of connection points: 2
#     Edge 59, Type (0, 0), BuildingBlock: UVAHIK_clean_linker_0, # of connection points: 2
#     Edge 60, Type (0, 0), BuildingBlock: UVAHIK_clean_linker_0, # of connection points: 2
#     Edge 61, Type (0, 0), BuildingBlock: UVAHIK_clean_linker_0, # of connection points: 2
#     Edge 62, Type (0, 0), BuildingBlock: UVAHIK_clean_linker_0, # of connection points: 2
#     Edge 63, Type (0, 0), BuildingBlock: UVAHIK_clean_linker_0, # of connection points: 2
#     Edge 64, Type (0, 0), BuildingBlock: UVAHIK_clean_linker_0, # of connection points: 2
#     Edge 65, Type (0, 0), BuildingBlock: UVAHIK_clean_linker_0, # of connection points: 2
#     Edge 66, Type (0, 0), BuildingBlock: UVAHIK_clean_linker_0, # of connection points: 2
#     Edge 67, Type (0, 0), BuildingBlock: UVAHIK_clean_linker_0, # of connection points: 2
#     Edge 68, Type (0, 0), BuildingBlock: UVAHIK_clean_linker_0, # of connection points: 2
#     Edge 69, Type (0, 0), BuildingBlock: UVAHIK_clean_linker_0, # of connection points: 2
#     Edge 70, Type (0, 0), BuildingBlock: UVAHIK_clean_linker_0, # of connection points: 2
#     Edge 71, Type (0, 0), BuildingBlock: UVAHIK_clean_linker_0, # of connection points: 2
#     Edge 72, Type (0, 0), BuildingBlock: UVAHIK_clean_linker_0, # of connection points: 2
#     Edge 73, Type (0, 0), BuildingBlock: UVAHIK_clean_linker_0, # of connection points: 2
#     Edge 74, Type (0, 0), BuildingBlock: UVAHIK_clean_linker_0, # of connection points: 2
#     Edge 75, Type (0, 0), BuildingBlock: UVAHIK_clean_linker_0, # of connection points: 2
#     Edge 76, Type (0, 0), BuildingBlock: UVAHIK_clean_linker_0, # of connection points: 2
#     Edge 77, Type (0, 0), BuildingBlock: UVAHIK_clean_linker_0, # of connection points: 2
#     Edge 78, Type (0, 0), BuildingBlock: UVAHIK_clean_linker_0, # of connection points: 2
#     Edge 79, Type (0, 0), BuildingBlock: UVAHIK_clean_linker_0, # of connection points: 2
#     Edge 80, Type (0, 0), BuildingBlock: UVAHIK_clean_linker_0, # of connection points: 2
#     Edge 81, Type (0, 0), BuildingBlock: UVAHIK_clean_linker_0, # of connection points: 2
#     Edge 82, Type (0, 0), BuildingBlock: UVAHIK_clean_linker_0, # of connection points: 2
#     Edge 83, Type (0, 0), BuildingBlock: UVAHIK_clean_linker_0, # of connection points: 2
#     Edge 84, Type (0, 0), BuildingBlock: UVAHIK_clean_linker_0, # of connection points: 2
#     Edge 85, Type (0, 0), BuildingBlock: UVAHIK_clean_linker_0, # of connection points: 2
#     Edge 86, Type (0, 0), BuildingBlock: UVAHIK_clean_linker_0, # of connection points: 2
#     Edge 87, Type (0, 0), BuildingBlock: UVAHIK_clean_linker_0, # of connection points: 2
#     Edge 88, Type (0, 0), BuildingBlock: UVAHIK_clean_linker_0, # of connection points: 2
#     Edge 89, Type (0, 0), BuildingBlock: UVAHIK_clean_linker_0, # of connection points: 2
#     Edge 90, Type (0, 0), BuildingBlock: UVAHIK_clean_linker_0, # of connection points: 2
#     Edge 91, Type (0, 0), BuildingBlock: UVAHIK_clean_linker_0, # of connection points: 2
#     Edge 92, Type (0, 0), BuildingBlock: UVAHIK_clean_linker_0, # of connection points: 2
#     Edge 93, Type (0, 0), BuildingBlock: UVAHIK_clean_linker_0, # of connection points: 2
#     Edge 94, Type (0, 0), BuildingBlock: UVAHIK_clean_linker_0, # of connection points: 2
#     Edge 95, Type (0, 0), BuildingBlock: UVAHIK_clean_linker_0, # of connection points: 2
#     Edge 96, Type (0, 0), BuildingBlock: UVAHIK_clean_linker_0, # of connection points: 2
#     Edge 97, Type (0, 0), BuildingBlock: UVAHIK_clean_linker_0, # of connection points: 2
#     Edge 98, Type (0, 0), BuildingBlock: UVAHIK_clean_linker_0, # of connection points: 2
#     Edge 99, Type (0, 0), BuildingBlock: UVAHIK_clean_linker_0, # of connection points: 2
#     Edge 100, Type (0, 0), BuildingBlock: UVAHIK_clean_linker_0, # of connection points: 2
#     Edge 101, Type (0, 0), BuildingBlock: UVAHIK_clean_linker_0, # of connection points: 2
#     Edge 102, Type (0, 0), BuildingBlock: UVAHIK_clean_linker_0, # of connection points: 2
#     Edge 103, Type (0, 0), BuildingBlock: UVAHIK_clean_linker_0, # of connection points: 2
#     Edge 104, Type (0, 0), BuildingBlock: UVAHIK_clean_linker_0, # of connection points: 2
#     Edge 105, Type (0, 0), BuildingBlock: UVAHIK_clean_linker_0, # of connection points: 2
#     Edge 106, Type (0, 0), BuildingBlock: UVAHIK_clean_linker_0, # of connection points: 2
#     Edge 107, Type (0, 0), BuildingBlock: UVAHIK_clean_linker_0, # of connection points: 2
# Relax obj value: 0.391
# Max RMSD: 0.231
# Mean RMSD: 0.231
data_MOF--net-unr--node1-AZAVOO_clean_sbu_0--edge1-UVAHIK_clean_linker_0
_symmetry_space_group_name_H-M    P1
_symmetry_Int_Tables_number       1
_symmetry_cell_setting            triclinic
loop_
_symmetry_equiv_pos_as_xyz
'x, y, z'
_cell_length_a     56.142239
_cell_length_b     56.145674
_cell_length_c     172.08353
_cell_angle_alpha  90.021201
_cell_angle_beta   89.981939
_cell_angle_gamma 120.00676
loop_
_atom_site_label
_atom_site_type_symbol
_atom_site_fract_x
_atom_site_fract_y
_atom_site_fract_z
_atom_type_partial_charge
Mg0 Mg 0.18937 0.20152 0.19469 0.0
O1 O 0.16612 0.15469 0.19549 0.0
O2 O 0.12528 0.1398 0.20112 0.0
Mg3 Mg 0.1237 0.1783 0.2048 0.0
C4 C 0.14283 0.1352 0.19774 0.0
C5 C 0.23288 0.20028 0.18367 0.0
O6 O 0.21805 0.20506 0.17868 0.0
O7 O 0.20168 0.20608 0.20768 0.0
O8 O 0.16036 0.19226 0.21289 0.0
O9 O 0.16486 0.19561 0.18376 0.0
O10 O 0.15229 0.20177 0.19539 0.0
C11 C 0.18614 0.20149 0.2136 0.0
C12 C 0.14628 0.19563 0.1882 0.0
O13 O 0.22706 0.19875 0.19087 0.0
Mg14 Mg 0.7974 0.98462 0.19229 0.0
O15 O 0.8436 0.00815 0.19436 0.0
O16 O 0.8565 0.9814 0.20049 0.0
Mg17 Mg 0.81698 0.9404 0.20296 0.0
C18 C 0.86221 0.00406 0.19721 0.0
C19 C 0.79665 0.02896 0.18158 0.0
O20 O 0.78911 0.00853 0.17666 0.0
O21 O 0.78908 0.99037 0.20508 0.0
O22 O 0.79968 0.96105 0.21081 0.0
O23 O 0.80736 0.96893 0.18152 0.0
O24 O 0.7975 0.94739 0.19283 0.0
C25 C 0.79085 0.97802 0.2111 0.0
C26 C 0.80654 0.94969 0.18585 0.0
O27 O 0.80073 0.02537 0.18864 0.0
Mg28 Mg 0.01393 0.80962 0.19122 0.0
O29 O 0.99235 0.83374 0.19423 0.0
O30 O 0.02292 0.87438 0.1993 0.0
Mg31 Mg 0.06326 0.87388 0.20096 0.0
C32 C 0.99878 0.85748 0.19684 0.0
C33 C 0.96726 0.76505 0.1812 0.0
O34 O 0.98719 0.77772 0.17612 0.0
O35 O 0.01158 0.79625 0.20399 0.0
O36 O 0.04342 0.83655 0.20902 0.0
O37 O 0.02736 0.83456 0.18022 0.0
O38 O 0.05201 0.84617 0.19098 0.0
C39 C 0.02606 0.81095 0.2097 0.0
C40 C 0.0482 0.85278 0.18414 0.0
O41 O 0.9718 0.7727 0.18827 0.0
Mg42 Mg 0.208 0.19156 0.31239 0.0
O43 O 0.16155 0.16662 0.31035 0.0
O44 O 0.14979 0.12484 0.30586 0.0
Mg45 Mg 0.19018 0.12537 0.30335 0.0
C46 C 0.14341 0.14242 0.30829 0.0
C47 C 0.18596 0.22524 0.32074 0.0
O48 O 0.1721 0.20092 0.32402 0.0
O49 O 0.21528 0.20245 0.29933 0.0
O50 O 0.20389 0.16083 0.29476 0.0
O51 O 0.20012 0.16864 0.32371 0.0
O52 O 0.21006 0.15539 0.31269 0.0
C53 C 0.21225 0.18631 0.29367 0.0
C54 C 0.20209 0.15003 0.31979 0.0
O55 O 0.20313 0.22876 0.3154 0.0
Mg56 Mg 0.81475 0.01922 0.30997 0.0
O57 O 0.83665 0.99482 0.30806 0.0
O58 O 0.87725 0.02089 0.30233 0.0
Mg59 Mg 0.8797 0.06214 0.2996 0.0
C60 C 0.85943 0.99829 0.30546 0.0
C61 C 0.77965 0.96538 0.31907 0.0
O62 O 0.80403 0.9753 0.32228 0.0
O63 O 0.80157 0.01351 0.29711 0.0
O64 O 0.84225 0.04147 0.29156 0.0
O65 O 0.83965 0.0348 0.32087 0.0
O66 O 0.85263 0.05597 0.30953 0.0
C67 C 0.81632 0.02512 0.29111 0.0
C68 C 0.85865 0.05372 0.31659 0.0
O69 O 0.77653 0.97892 0.31363 0.0
Mg70 Mg 0.99201 0.8029 0.30861 0.0
O71 O 0.01628 0.85005 0.30868 0.0
O72 O 0.99313 0.86654 0.30223 0.0
Mg73 Mg 0.95502 0.82934 0.29716 0.0
C74 C 0.01367 0.87014 0.3063 0.0
C75 C 0.04059 0.81717 0.31984 0.0
O76 O 0.0284 0.82909 0.32329 0.0
O77 O 0.00526 0.80154 0.29603 0.0
O78 O 0.98242 0.81896 0.28978 0.0
O79 O 0.96901 0.80589 0.31889 0.0
O80 O 0.95569 0.80357 0.30669 0.0
C81 C 0.99876 0.80934 0.2898 0.0
C82 C 0.95267 0.80756 0.31389 0.0
O83 O 0.03025 0.80376 0.3136 0.0
Mg84 Mg 0.80992 0.79581 0.81102 0.0
O85 O 0.83513 0.84236 0.80938 0.0
O86 O 0.87661 0.85399 0.80465 0.0
Mg87 Mg 0.87586 0.81362 0.80187 0.0
C88 C 0.85933 0.86045 0.80729 0.0
C89 C 0.76297 0.79448 0.82083 0.0
O90 O 0.77299 0.78351 0.82563 0.0
O91 O 0.7993 0.78973 0.79798 0.0
O92 O 0.84047 0.80017 0.79321 0.0
O93 O 0.83235 0.80259 0.82234 0.0
O94 O 0.84598 0.79349 0.81126 0.0
C95 C 0.81502 0.79231 0.79226 0.0
C96 C 0.85112 0.80097 0.8184 0.0
O97 O 0.77305 0.80101 0.81403 0.0
Mg98 Mg 0.1989 0.00961 0.80836 0.0
O99 O 0.15183 0.9835 0.80821 0.0
O100 O 0.1343 0.0043 0.80112 0.0
Mg101 Mg 0.17076 0.0422 0.79572 0.0
C102 C 0.13129 0.98474 0.80554 0.0
C103 C 0.18584 0.96292 0.82027 0.0
O104 O 0.17262 0.97437 0.82338 0.0
O105 O 0.20218 0.99506 0.79612 0.0
O106 O 0.18349 0.01506 0.78907 0.0
O107 O 0.19398 0.03357 0.81807 0.0
O108 O 0.19658 0.04458 0.80565 0.0
C109 C 0.19433 0.99986 0.78963 0.0
C110 C 0.19199 0.04865 0.8127 0.0
O111 O 0.19957 0.97313 0.81407 0.0
Mg112 Mg 0.97956 0.18718 0.8143 0.0
O113 O 0.00338 0.16537 0.81122 0.0
O114 O 0.97562 0.12531 0.80541 0.0
Mg115 Mg 0.93396 0.12311 0.80386 0.0
C116 C 0.999 0.14275 0.80823 0.0
C117 C 0.03488 0.22155 0.82281 0.0
O118 O 0.0256 0.19682 0.82572 0.0
O119 O 0.98246 0.20161 0.80159 0.0
O120 O 0.9533 0.16121 0.79611 0.0
O121 O 0.9664 0.16119 0.82506 0.0
O122 O 0.94269 0.14936 0.81411 0.0
C123 C 0.96952 0.18715 0.79565 0.0
C124 C 0.94657 0.1426 0.82092 0.0
O125 O 0.02053 0.22511 0.81771 0.0
Mg126 Mg 0.79536 0.80882 0.693 0.0
O127 O 0.84175 0.83138 0.69478 0.0
O128 O 0.85523 0.87018 0.70142 0.0
Mg129 Mg 0.81588 0.87108 0.70461 0.0
C130 C 0.86064 0.85366 0.69775 0.0
C131 C 0.81439 0.77567 0.68284 0.0
O132 O 0.82801 0.80024 0.6797 0.0
O133 O 0.78816 0.79291 0.70563 0.0
O134 O 0.79928 0.83206 0.71194 0.0
O135 O 0.80359 0.83624 0.6826 0.0
O136 O 0.79518 0.8457 0.69439 0.0
C137 C 0.79047 0.80625 0.71188 0.0
C138 C 0.80278 0.85364 0.68737 0.0
O139 O 0.79838 0.77193 0.68853 0.0
Mg140 Mg 0.19288 0.98774 0.69198 0.0
O141 O 0.17289 0.0138 0.69433 0.0
O142 O 0.13479 0.98996 0.70138 0.0
Mg143 Mg 0.13205 0.94881 0.70435 0.0
C144 C 0.15152 0.01155 0.69762 0.0
C145 C 0.22645 0.03949 0.68177 0.0
O146 O 0.20151 0.02966 0.67896 0.0
O147 O 0.21098 0.99551 0.70434 0.0
O148 O 0.17238 0.96996 0.71117 0.0
O149 O 0.16368 0.96967 0.6819 0.0
O150 O 0.15508 0.95191 0.69371 0.0
C151 C 0.1984 0.98564 0.71075 0.0
C152 C 0.14641 0.95198 0.68681 0.0
O153 O 0.2303 0.02655 0.68724 0.0
Mg154 Mg 0.01473 0.2025 0.69727 0.0
O155 O 0.99103 0.15547 0.69772 0.0
O156 O 0.01643 0.1402 0.70348 0.0
Mg157 Mg 0.05613 0.1783 0.7075 0.0
C158 C 0.99458 0.13584 0.69997 0.0
C159 C 0.96383 0.18641 0.68702 0.0
O160 O 0.97588 0.17451 0.68348 0.0
O161 O 0.00536 0.2054 0.71021 0.0
O162 O 0.03196 0.19071 0.71556 0.0
O163 O 0.03478 0.19853 0.68639 0.0
O164 O 0.05192 0.20261 0.69818 0.0
C165 C 0.01519 0.19971 0.71618 0.0
C166 C 0.05284 0.19785 0.69092 0.0
O167 O 0.97494 0.20051 0.69311 0.0
Mg168 Mg 0.85588 0.53407 0.5273 0.0
O169 O 0.83128 0.48779 0.52937 0.0
O170 O 0.79076 0.47597 0.53482 0.0
Mg171 Mg 0.79203 0.51649 0.53778 0.0
C172 C 0.80767 0.46963 0.53183 0.0
C173 C 0.88706 0.51059 0.51826 0.0
O174 O 0.86194 0.49643 0.5155 0.0
O175 O 0.86966 0.5413 0.54012 0.0
O176 O 0.82958 0.53099 0.54567 0.0
O177 O 0.83067 0.52633 0.51646 0.0
O178 O 0.81959 0.53602 0.52787 0.0
C179 C 0.85523 0.53912 0.54612 0.0
C180 C 0.81277 0.52802 0.52082 0.0
O181 O 0.89217 0.52878 0.52343 0.0
Mg182 Mg 0.46101 0.32286 0.52377 0.0
O183 O 0.50723 0.34732 0.52604 0.0
O184 O 0.52028 0.32181 0.53275 0.0
Mg185 Mg 0.48106 0.28093 0.53543 0.0
C186 C 0.5259 0.34397 0.52919 0.0
C187 C 0.48035 0.37555 0.51396 0.0
O188 O 0.49456 0.36504 0.51093 0.0
O189 O 0.45149 0.32988 0.53631 0.0
O190 O 0.46268 0.30199 0.54265 0.0
O191 O 0.47093 0.30523 0.51335 0.0
O192 O 0.46163 0.28612 0.52499 0.0
C193 C 0.45333 0.31854 0.54255 0.0
C194 C 0.47014 0.28677 0.51802 0.0
O195 O 0.46371 0.36276 0.51948 0.0
Mg196 Mg 0.68018 0.14709 0.52621 0.0
O197 O 0.65684 0.17062 0.52723 0.0
O198 O 0.68426 0.21292 0.53181 0.0
Mg199 Mg 0.72496 0.21502 0.5349 0.0
C200 C 0.66119 0.19446 0.52909 0.0
C201 C 0.62616 0.11123 0.51744 0.0
O202 O 0.63722 0.13487 0.51376 0.0
O203 O 0.67547 0.13768 0.5394 0.0
O204 O 0.70347 0.18034 0.5437 0.0
O205 O 0.69562 0.16872 0.51478 0.0
O206 O 0.7176 0.18436 0.52591 0.0
C207 C 0.68716 0.15479 0.54497 0.0
C208 C 0.71523 0.18848 0.51868 0.0
O209 O 0.63904 0.10868 0.52318 0.0
Mg210 Mg 0.87759 0.5248 0.64476 0.0
O211 O 0.83157 0.50191 0.64231 0.0
O212 O 0.81984 0.46331 0.63574 0.0
Mg213 Mg 0.8598 0.46249 0.63347 0.0
C214 C 0.81349 0.47963 0.63913 0.0
C215 C 0.85693 0.55778 0.6543 0.0
O216 O 0.84306 0.5332 0.65743 0.0
O217 O 0.8867 0.54042 0.63209 0.0
O218 O 0.87735 0.50134 0.62604 0.0
O219 O 0.86785 0.49775 0.65531 0.0
O220 O 0.87822 0.48798 0.64382 0.0
C221 C 0.88579 0.52708 0.62596 0.0
C222 C 0.86945 0.48022 0.65077 0.0
O223 O 0.87365 0.56162 0.6488 0.0
Mg224 Mg 0.48 0.34473 0.64056 0.0
O225 O 0.50078 0.31858 0.63969 0.0
O226 O 0.53922 0.34057 0.63266 0.0
Mg227 Mg 0.54096 0.37957 0.62805 0.0
C228 C 0.52249 0.32019 0.63683 0.0
C229 C 0.4464 0.29588 0.65184 0.0
O230 O 0.47121 0.30652 0.65481 0.0
O231 O 0.46231 0.33213 0.62822 0.0
O232 O 0.50123 0.35333 0.62127 0.0
O233 O 0.50884 0.3669 0.65045 0.0
O234 O 0.51737 0.38008 0.63818 0.0
C235 C 0.47517 0.33796 0.62174 0.0
C236 C 0.52598 0.38287 0.64522 0.0
O237 O 0.44275 0.30737 0.64594 0.0
Mg238 Mg 0.65917 0.12931 0.64405 0.0
O239 O 0.6827 0.17635 0.6433 0.0
O240 O 0.65885 0.19069 0.63628 0.0
Mg241 Mg 0.62094 0.152 0.63171 0.0
C242 C 0.67964 0.19562 0.64045 0.0
C243 C 0.70811 0.1465 0.65546 0.0
O244 O 0.69586 0.15893 0.65858 0.0
O245 O 0.67253 0.12577 0.63165 0.0
O246 O 0.64869 0.14077 0.62478 0.0
O247 O 0.63576 0.13378 0.65401 0.0
O248 O 0.62237 0.12856 0.64175 0.0
C249 C 0.6655 0.13177 0.6252 0.0
C250 C 0.61903 0.13367 0.64882 0.0
O251 O 0.69777 0.13194 0.6494 0.0
Mg252 Mg 0.47624 0.12878 0.14468 0.0
O253 O 0.49937 0.1749 0.14238 0.0
O254 O 0.53948 0.18718 0.1366 0.0
Mg255 Mg 0.54069 0.1474 0.13445 0.0
C256 C 0.52238 0.19323 0.13961 0.0
C257 C 0.43188 0.13003 0.15517 0.0
O258 O 0.44547 0.12374 0.1602 0.0
O259 O 0.46297 0.11994 0.13183 0.0
O260 O 0.50335 0.13059 0.12642 0.0
O261 O 0.50131 0.13918 0.15558 0.0
O262 O 0.51345 0.12853 0.14447 0.0
C263 C 0.47758 0.12175 0.1259 0.0
C264 C 0.51989 0.13798 0.15142 0.0
O265 O 0.43878 0.13262 0.14804 0.0
Mg266 Mg 0.86683 0.34462 0.14362 0.0
O267 O 0.82071 0.32342 0.14121 0.0
O268 O 0.81017 0.354 0.13643 0.0
Mg269 Mg 0.85099 0.39388 0.13425 0.0
C270 C 0.80312 0.32993 0.13891 0.0
C271 C 0.86636 0.29837 0.15348 0.0
O272 O 0.87554 0.31883 0.15845 0.0
O273 O 0.87551 0.34125 0.13068 0.0
O274 O 0.86637 0.37289 0.1259 0.0
O275 O 0.85731 0.35897 0.15479 0.0
O276 O 0.869 0.38297 0.14391 0.0
C277 C 0.87429 0.35535 0.12501 0.0
C278 C 0.85966 0.3797 0.15087 0.0
O279 O 0.86141 0.30241 0.14654 0.0
Mg280 Mg 0.65473 0.52364 0.14105 0.0
O281 O 0.67864 0.50091 0.13994 0.0
O282 O 0.65412 0.46188 0.13332 0.0
Mg283 Mg 0.61411 0.46067 0.12964 0.0
C284 C 0.67555 0.47848 0.13716 0.0
C285 C 0.69838 0.56545 0.15274 0.0
O286 O 0.67867 0.54976 0.1576 0.0
O287 O 0.66433 0.53874 0.12835 0.0
O288 O 0.63671 0.49926 0.12214 0.0
O289 O 0.63474 0.49697 0.15152 0.0
O290 O 0.61776 0.48665 0.13964 0.0
C291 C 0.65366 0.52508 0.12212 0.0
C292 C 0.61692 0.47921 0.14673 0.0
O293 O 0.69446 0.56066 0.14549 0.0
Mg294 Mg 0.46615 0.14412 0.02685 0.0
O295 O 0.51249 0.16858 0.02899 0.0
O296 O 0.52346 0.20887 0.03448 0.0
Mg297 Mg 0.48293 0.20772 0.0373 0.0
C298 C 0.53027 0.19229 0.0315 0.0
C299 C 0.48769 0.11132 0.01766 0.0
O300 O 0.50157 0.1359 0.01452 0.0
O301 O 0.45836 0.13026 0.03965 0.0
O302 O 0.46754 0.17007 0.04519 0.0
O303 O 0.47451 0.16929 0.01599 0.0
O304 O 0.4643 0.18047 0.0273 0.0
C305 C 0.4597 0.14449 0.04562 0.0
C306 C 0.47293 0.18735 0.02029 0.0
O307 O 0.47086 0.10746 0.02313 0.0
Mg308 Mg 0.85207 0.31723 0.0253 0.0
O309 O 0.82844 0.34057 0.02624 0.0
O310 O 0.78576 0.3124 0.03053 0.0
Mg311 Mg 0.7847 0.27274 0.03423 0.0
C312 C 0.80422 0.33564 0.0279 0.0
C313 C 0.89982 0.36194 0.01538 0.0
O314 O 0.88856 0.34139 0.01043 0.0
O315 O 0.86167 0.32307 0.03838 0.0
O316 O 0.81912 0.29664 0.04303 0.0
O317 O 0.83028 0.30154 0.01396 0.0
O318 O 0.81491 0.27974 0.02513 0.0
C319 C 0.84479 0.31308 0.04406 0.0
C320 C 0.8105 0.28217 0.01792 0.0
O321 O 0.89025 0.3583 0.02225 0.0
Mg322 Mg 0.68331 0.53764 0.02299 0.0
O323 O 0.66115 0.4912 0.02492 0.0
O324 O 0.68965 0.47907 0.03033 0.0
Mg325 Mg 0.73033 0.5191 0.03252 0.0
C326 C 0.6663 0.4729 0.02745 0.0
C327 C 0.62845 0.5171 0.01432 0.0
O328 O 0.63932 0.50396 0.01084 0.0
O329 O 0.67916 0.54504 0.03599 0.0
O330 O 0.70964 0.53461 0.04096 0.0
O331 O 0.69813 0.52931 0.01179 0.0
O332 O 0.72114 0.53868 0.02284 0.0
C333 C 0.69241 0.54298 0.04176 0.0
C334 C 0.71816 0.53032 0.01577 0.0
O335 O 0.64163 0.53344 0.01987 0.0
Mg336 Mg 0.52207 0.87047 0.85883 0.0
O337 O 0.49683 0.82368 0.8602 0.0
O338 O 0.45455 0.81156 0.86434 0.0
Mg339 Mg 0.45473 0.85152 0.86721 0.0
C340 C 0.47229 0.80537 0.86194 0.0
C341 C 0.57031 0.87288 0.84951 0.0
O342 O 0.5607 0.88413 0.84467 0.0
O343 O 0.53095 0.8759 0.872 0.0
O344 O 0.48879 0.86385 0.87624 0.0
O345 O 0.5012 0.86414 0.84728 0.0
O346 O 0.48589 0.87248 0.85818 0.0
C347 C 0.51413 0.87204 0.87753 0.0
C348 C 0.48174 0.86525 0.851 0.0
O349 O 0.5595 0.86577 0.85622 0.0
Mg350 Mg 0.13477 0.65574 0.86029 0.0
O351 O 0.18189 0.67914 0.86017 0.0
O352 O 0.19788 0.65357 0.86544 0.0
Mg353 Mg 0.16026 0.61476 0.87006 0.0
C354 C 0.20178 0.67537 0.862 0.0
C355 C 0.15002 0.70695 0.8502 0.0
O356 O 0.16136 0.69494 0.84636 0.0
O357 O 0.13404 0.66576 0.87322 0.0
O358 O 0.15096 0.64075 0.87841 0.0
O359 O 0.13756 0.63588 0.84931 0.0
O360 O 0.13458 0.61848 0.86103 0.0
C361 C 0.14185 0.65742 0.87909 0.0
C362 C 0.13894 0.61795 0.85372 0.0
O363 O 0.13657 0.69563 0.85637 0.0
Mg364 Mg 0.34844 0.48012 0.85892 0.0
O365 O 0.32626 0.50422 0.86124 0.0
O366 O 0.35609 0.54639 0.86553 0.0
Mg367 Mg 0.39648 0.5467 0.8678 0.0
C368 C 0.33206 0.52838 0.86327 0.0
C369 C 0.29191 0.44548 0.85109 0.0
O370 O 0.30148 0.46978 0.84786 0.0
O371 O 0.3461 0.46947 0.87194 0.0
O372 O 0.37573 0.51128 0.87651 0.0
O373 O 0.36139 0.50265 0.84758 0.0
O374 O 0.38617 0.51706 0.85832 0.0
C375 C 0.35907 0.48567 0.87758 0.0
C376 C 0.38197 0.52199 0.85132 0.0
O377 O 0.30648 0.44228 0.8562 0.0
Mg378 Mg 0.53478 0.85352 0.97693 0.0
O379 O 0.48778 0.83016 0.9764 0.0
O380 O 0.47261 0.78911 0.97087 0.0
Mg381 Mg 0.51084 0.78723 0.9671 0.0
C382 C 0.46818 0.8068 0.97424 0.0
C383 C 0.51862 0.88903 0.98684 0.0
O384 O 0.50626 0.86516 0.99041 0.0
O385 O 0.53809 0.86499 0.9639 0.0
O386 O 0.52427 0.82343 0.95884 0.0
O387 O 0.53033 0.83016 0.98797 0.0
O388 O 0.53483 0.81635 0.97634 0.0
C389 C 0.53328 0.84915 0.95804 0.0
C390 C 0.52965 0.81109 0.9836 0.0
O391 O 0.53293 0.89167 0.98082 0.0
Mg392 Mg 0.14419 0.67997 0.9786 0.0
O393 O 0.169 0.65873 0.97611 0.0
O394 O 0.21048 0.68945 0.97156 0.0
Mg395 Mg 0.21007 0.72973 0.96968 0.0
C396 C 0.19316 0.66522 0.97387 0.0
C397 C 0.09718 0.63343 0.98804 0.0
O398 O 0.10751 0.65392 0.99303 0.0
O399 O 0.13307 0.67786 0.96561 0.0
O400 O 0.17424 0.70985 0.96112 0.0
O401 O 0.16716 0.69314 0.98992 0.0
O402 O 0.18056 0.71813 0.97922 0.0
C403 C 0.1488 0.69249 0.96007 0.0
C404 C 0.186 0.71413 0.98619 0.0
O405 O 0.10712 0.63761 0.98121 0.0
Mg406 Mg 0.3172 0.46315 0.97671 0.0
O407 O 0.34155 0.50993 0.97572 0.0
O408 O 0.31571 0.52565 0.97051 0.0
Mg409 Mg 0.27492 0.48754 0.96709 0.0
C410 C 0.3381 0.52975 0.97361 0.0
C411 C 0.36976 0.47985 0.98616 0.0
O412 O 0.3587 0.49269 0.98971 0.0
O413 O 0.32375 0.45841 0.96366 0.0
O414 O 0.29668 0.47318 0.9587 0.0
O415 O 0.30052 0.46983 0.98784 0.0
O416 O 0.2803 0.46402 0.97643 0.0
C417 C 0.31282 0.46351 0.95784 0.0
C418 C 0.28183 0.47061 0.98363 0.0
O419 O 0.3574 0.46485 0.9803 0.0
Mg420 Mg 0.14299 0.46309 0.47707 0.0
O421 O 0.16632 0.50995 0.47631 0.0
O422 O 0.20785 0.52486 0.47114 0.0
Mg423 Mg 0.2099 0.48641 0.46773 0.0
C424 C 0.18986 0.52945 0.47423 0.0
C425 C 0.09358 0.45585 0.48704 0.0
O426 O 0.10303 0.44305 0.49134 0.0
O427 O 0.13246 0.45908 0.46396 0.0
O428 O 0.17442 0.47302 0.45919 0.0
O429 O 0.16569 0.46845 0.4883 0.0
O430 O 0.18009 0.46284 0.47687 0.0
C431 C 0.14876 0.46396 0.45821 0.0
C432 C 0.18492 0.46855 0.48413 0.0
O433 O 0.10491 0.46563 0.48051 0.0
Mg434 Mg 0.53064 0.67855 0.47194 0.0
O435 O 0.4836 0.65265 0.47234 0.0
O436 O 0.46506 0.67306 0.46551 0.0
Mg437 Mg 0.50085 0.71052 0.4597 0.0
C438 C 0.46269 0.65376 0.46994 0.0
C439 C 0.51839 0.63219 0.48388 0.0
O440 O 0.50533 0.64369 0.48705 0.0
O441 O 0.53192 0.66299 0.45967 0.0
O442 O 0.51239 0.68275 0.45289 0.0
O443 O 0.52733 0.70337 0.48171 0.0
O444 O 0.52821 0.71346 0.46926 0.0
C445 C 0.52317 0.66745 0.45328 0.0
C446 C 0.5248 0.71818 0.47636 0.0
O447 O 0.53185 0.64233 0.47763 0.0
Mg448 Mg 0.31402 0.85873 0.47917 0.0
O449 O 0.33838 0.83754 0.47607 0.0
O450 O 0.31196 0.79928 0.46932 0.0
Mg451 Mg 0.27033 0.79701 0.46755 0.0
C452 C 0.33469 0.81584 0.47263 0.0
C453 C 0.36768 0.89159 0.48857 0.0
O454 O 0.35771 0.86654 0.4913 0.0
O455 O 0.31919 0.87571 0.46669 0.0
O456 O 0.29004 0.83673 0.46049 0.0
O457 O 0.2983 0.83077 0.48956 0.0
O458 O 0.27728 0.8211 0.4782 0.0
C459 C 0.3066 0.86264 0.46055 0.0
C460 C 0.27926 0.81306 0.48503 0.0
O461 O 0.35431 0.89588 0.48331 0.0
Mg462 Mg 0.12878 0.47959 0.35907 0.0
O463 O 0.17534 0.50512 0.36083 0.0
O464 O 0.18674 0.54661 0.36548 0.0
Mg465 Mg 0.14618 0.54529 0.36835 0.0
C466 C 0.19334 0.5294 0.36288 0.0
C467 C 0.15098 0.44647 0.35041 0.0
O468 O 0.16452 0.47081 0.34713 0.0
O469 O 0.12251 0.46842 0.37212 0.0
O470 O 0.13345 0.50972 0.37686 0.0
O471 O 0.13553 0.5026 0.34782 0.0
O472 O 0.12606 0.51541 0.35898 0.0
C473 C 0.12555 0.48429 0.37785 0.0
C474 C 0.13352 0.52097 0.35186 0.0
O475 O 0.13404 0.44281 0.35584 0.0
Mg476 Mg 0.52209 0.65192 0.35548 0.0
O477 O 0.50159 0.67655 0.35893 0.0
O478 O 0.462 0.6496 0.36505 0.0
Mg479 Mg 0.45896 0.60745 0.36645 0.0
C480 C 0.47951 0.67278 0.36213 0.0
C481 C 0.55644 0.70709 0.34689 0.0
O482 O 0.53158 0.69816 0.34413 0.0
O483 O 0.53791 0.65456 0.368 0.0
O484 O 0.49805 0.62551 0.37382 0.0
O485 O 0.49481 0.63905 0.34497 0.0
O486 O 0.48389 0.61547 0.35594 0.0
C487 C 0.52407 0.64145 0.37399 0.0
C488 C 0.47651 0.61938 0.34922 0.0
O489 O 0.56009 0.69249 0.35189 0.0
Mg490 Mg 0.34396 0.86872 0.3624 0.0
O491 O 0.31887 0.82159 0.36249 0.0
O492 O 0.34101 0.80475 0.36928 0.0
Mg493 Mg 0.37932 0.84171 0.37434 0.0
C494 C 0.32085 0.80134 0.36506 0.0
C495 C 0.2961 0.85491 0.35091 0.0
O496 O 0.30806 0.84252 0.3476 0.0
O497 O 0.33036 0.87107 0.37485 0.0
O498 O 0.35222 0.85331 0.38145 0.0
O499 O 0.36717 0.86486 0.35232 0.0
O500 O 0.37975 0.86728 0.36459 0.0
C501 C 0.33632 0.86344 0.38121 0.0
C502 C 0.38307 0.86302 0.35744 0.0
O503 O 0.30636 0.86847 0.35714 0.0
C504 C 0.10539 0.15796 0.1814 0.0
C505 C 0.11703 0.18187 0.18599 0.0
C506 C 0.07686 0.14002 0.18145 0.0
C507 C 0.02149 0.11812 0.19533 0.0
H508 H 0.97136 0.08028 0.17832 0.0
C509 C 0.91276 0.02395 0.19977 0.0
C510 C 0.89136 0.02531 0.19594 0.0
C511 C 0.94024 0.04322 0.19815 0.0
C512 C 0.9852 0.09075 0.18311 0.0
H513 H 0.1081 0.20724 0.19356 0.0
H514 H 0.05849 0.1762 0.19358 0.0
H515 H 0.01932 0.11511 0.17553 0.0
H516 H 0.88214 0.04793 0.18735 0.0
H517 H 0.93 0.08125 0.18451 0.0
H518 H 0.98769 0.09373 0.20292 0.0
C519 C 0.07128 0.17103 0.19006 0.0
C520 C 0.01256 0.11053 0.18151 0.0
C521 C 0.09961 0.18889 0.18999 0.0
C522 C 0.89807 0.04636 0.19046 0.0
C523 C 0.92548 0.06532 0.18877 0.0
C524 C 0.99436 0.09812 0.19692 0.0
C525 C 0.05979 0.14584 0.1861 0.0
C526 C 0.03083 0.12462 0.18762 0.0
C527 C 0.94683 0.06392 0.19258 0.0
C528 C 0.97588 0.08439 0.19084 0.0
H529 H 0.11841 0.15191 0.17835 0.0
H530 H 0.06844 0.12069 0.17835 0.0
H531 H 0.0353 0.12841 0.20015 0.0
H532 H 0.90831 0.00795 0.20399 0.0
H533 H 0.95636 0.04166 0.20115 0.0
C534 C 0.81353 0.90949 0.18642 0.0
C535 C 0.82285 0.93655 0.18397 0.0
C536 C 0.83159 0.89922 0.18677 0.0
C537 C 0.90342 0.91532 0.18212 0.0
H538 H 0.89223 0.87058 0.20043 0.0
C539 C 0.98692 0.89451 0.19487 0.0
C540 C 0.97832 0.86661 0.19612 0.0
C541 C 0.96769 0.90267 0.19314 0.0
C542 C 0.89552 0.88293 0.19527 0.0
H543 H 0.85795 0.97387 0.17971 0.0
H544 H 0.88982 0.95642 0.18055 0.0
H545 H 0.85882 0.88451 0.19719 0.0
H546 H 0.94288 0.82553 0.19678 0.0
H547 H 0.90925 0.83996 0.19402 0.0
H548 H 0.94088 0.91446 0.18046 0.0
C549 C 0.86842 0.94265 0.18197 0.0
C550 C 0.87624 0.89074 0.19335 0.0
C551 C 0.85013 0.95269 0.18144 0.0
C552 C 0.95009 0.84718 0.19587 0.0
C553 C 0.93085 0.85541 0.1943 0.0
C554 C 0.92296 0.90784 0.18413 0.0
C555 C 0.85961 0.91611 0.18492 0.0
C556 C 0.87982 0.90697 0.18673 0.0
C557 C 0.93951 0.88315 0.19278 0.0
C558 C 0.91913 0.89153 0.19071 0.0
H559 H 0.79259 0.89676 0.18845 0.0
H560 H 0.82377 0.8784 0.18883 0.0
H561 H 0.90679 0.92751 0.17693 0.0
H562 H 0.00857 0.9099 0.19491 0.0
H563 H 0.97485 0.92421 0.19206 0.0
C564 C 0.15028 0.10169 0.19002 0.0
C565 C 0.13507 0.1066 0.19565 0.0
C566 C 0.14188 0.07498 0.18751 0.0
C567 C 0.08117 0.00409 0.18733 0.0
H568 H 0.13609 0.98389 0.18235 0.0
C569 C 0.04847 0.89346 0.17811 0.0
C570 C 0.06244 0.88219 0.18205 0.0
C571 C 0.05894 0.92195 0.17814 0.0
C572 C 0.12044 0.98913 0.18372 0.0
H573 H 0.09937 0.08711 0.20318 0.0
H574 H 0.08532 0.04036 0.19905 0.0
H575 H 0.1506 0.03057 0.18643 0.0
H576 H 0.0993 0.89178 0.18849 0.0
H577 H 0.11742 0.94106 0.18861 0.0
H578 H 0.05104 0.96215 0.18509 0.0
C579 C 0.10331 0.05725 0.19639 0.0
C580 C 0.12878 0.01608 0.18599 0.0
C581 C 0.11153 0.08406 0.19883 0.0
C582 C 0.08811 0.89995 0.18541 0.0
C583 C 0.09854 0.92829 0.18545 0.0
C584 C 0.07283 0.97704 0.18515 0.0
C585 C 0.11822 0.05237 0.19064 0.0
C586 C 0.10927 0.02387 0.18792 0.0
C587 C 0.08358 0.9396 0.18209 0.0
C588 C 0.09238 0.9691 0.18343 0.0
H589 H 0.16834 0.11857 0.18737 0.0
H590 H 0.15367 0.0722 0.18299 0.0
H591 H 0.06551 0.0094 0.18861 0.0
H592 H 0.02852 0.88022 0.17552 0.0
H593 H 0.04714 0.93001 0.17536 0.0
C594 C 0.16262 0.10904 0.32596 0.0
C595 C 0.1884 0.12107 0.32228 0.0
C596 C 0.1453 0.08041 0.32582 0.0
C597 C 0.13088 0.02599 0.31228 0.0
H598 H 0.08337 0.97502 0.32805 0.0
C599 C 0.03627 0.92133 0.30482 0.0
C600 C 0.03445 0.8984 0.30867 0.0
C601 C 0.05555 0.94797 0.30717 0.0
C602 C 0.09662 0.98909 0.32361 0.0
H603 H 0.21753 0.11285 0.31634 0.0
H604 H 0.18757 0.06305 0.31621 0.0
H605 H 0.11756 0.02242 0.33171 0.0
H606 H 0.05118 0.88553 0.3181 0.0
H607 H 0.08461 0.93219 0.32224 0.0
H608 H 0.10972 0.99314 0.30415 0.0
C609 C 0.18052 0.07558 0.31908 0.0
C610 C 0.11604 0.01611 0.3257 0.0
C611 C 0.19773 0.10403 0.31921 0.0
C612 C 0.05217 0.90274 0.31497 0.0
C613 C 0.07115 0.92941 0.31739 0.0
C614 C 0.11126 0.99925 0.31018 0.0
C615 C 0.15364 0.06364 0.32201 0.0
C616 C 0.13344 0.03473 0.32004 0.0
C617 C 0.07311 0.95225 0.31348 0.0
C618 C 0.09395 0.98054 0.31581 0.0
H619 H 0.15479 0.12175 0.32826 0.0
H620 H 0.12462 0.07167 0.32811 0.0
H621 H 0.14375 0.04006 0.30778 0.0
H622 H 0.02291 0.91871 0.29996 0.0
H623 H 0.05659 0.96528 0.30408 0.0
C624 C 0.89844 0.05037 0.32158 0.0
C625 C 0.88787 0.06662 0.31873 0.0
C626 C 0.9268 0.06029 0.32147 0.0
C627 C 0.98876 0.11242 0.31084 0.0
H628 H 0.02674 0.08751 0.32451 0.0
C629 C 0.10604 0.15409 0.30965 0.0
C630 C 0.1141 0.13409 0.30932 0.0
C631 C 0.07869 0.14651 0.31114 0.0
C632 C 0.01629 0.09451 0.32064 0.0
H633 H 0.89834 0.10647 0.31409 0.0
H634 H 0.94786 0.12466 0.31444 0.0
H635 H 0.97917 0.07486 0.32732 0.0
H636 H 0.09986 0.09049 0.31038 0.0
H637 H 0.052 0.07733 0.31311 0.0
H638 H 0.02618 0.13255 0.30429 0.0
C639 C 0.93444 0.10382 0.31643 0.0
C640 C 0.98901 0.08723 0.32223 0.0
C641 C 0.9061 0.09364 0.31635 0.0
C642 C 0.0942 0.10633 0.31051 0.0
C643 C 0.06692 0.09882 0.31215 0.0
C644 C 0.01611 0.12005 0.30935 0.0
C645 C 0.94514 0.08685 0.31863 0.0
C646 C 0.97477 0.09594 0.31731 0.0
C647 C 0.05894 0.11885 0.31249 0.0
C648 C 0.03006 0.111 0.31419 0.0
H649 H 0.8847 0.02921 0.32327 0.0
H650 H 0.93405 0.04643 0.32314 0.0
H651 H 0.97844 0.11894 0.30678 0.0
H652 H 0.12092 0.17565 0.30879 0.0
H653 H 0.07306 0.16235 0.3114 0.0
C654 C 0.84781 0.95244 0.31098 0.0
C655 C 0.86617 0.97624 0.30682 0.0
C656 C 0.85493 0.93265 0.3129 0.0
C657 C 0.9153 0.92299 0.315 0.0
H658 H 0.86048 0.84555 0.31385 0.0
C659 C 0.91414 0.81572 0.3109 0.0
C660 C 0.93588 0.82019 0.31585 0.0
C661 C 0.90247 0.83251 0.31133 0.0
C662 C 0.87603 0.86709 0.31422 0.0
H663 H 0.90624 0.99749 0.30129 0.0
H664 H 0.91834 0.96253 0.30445 0.0
H665 H 0.8475 0.87991 0.31087 0.0
H666 H 0.96112 0.84436 0.32551 0.0
H667 H 0.94032 0.8736 0.32636 0.0
H668 H 0.94414 0.91012 0.31795 0.0
C669 C 0.89866 0.95952 0.30638 0.0
C670 C 0.86854 0.88683 0.31257 0.0
C671 C 0.8916 0.97944 0.30449 0.0
C672 C 0.94427 0.84037 0.32166 0.0
C673 C 0.93261 0.85732 0.32207 0.0
C674 C 0.92282 0.90324 0.31661 0.0
C675 C 0.88052 0.93601 0.31068 0.0
C676 C 0.88819 0.91503 0.31281 0.0
C677 C 0.91228 0.85421 0.31671 0.0
C678 C 0.90338 0.87503 0.3161 0.0
H679 H 0.82808 0.94928 0.31292 0.0
H680 H 0.84057 0.91499 0.31628 0.0
H681 H 0.93085 0.94453 0.31539 0.0
H682 H 0.90728 0.80027 0.30637 0.0
H683 H 0.88704 0.8296 0.30707 0.0
C684 C 0.89778 0.80668 0.8176 0.0
C685 C 0.87993 0.81432 0.82105 0.0
C686 C 0.9262 0.82377 0.81814 0.0
C687 C 0.98701 0.86145 0.8208 0.0
H688 H 0.00775 0.93712 0.81644 0.0
C689 C 0.09947 0.94498 0.814 0.0
C690 C 0.10324 0.96398 0.80812 0.0
C691 C 0.07316 0.92671 0.81683 0.0
C692 C 0.00231 0.91605 0.81762 0.0
H693 H 0.87767 0.84458 0.82834 0.0
H694 H 0.92753 0.87435 0.82943 0.0
H695 H 0.96045 0.90432 0.81991 0.0
H696 H 0.0821 0.97817 0.8005 0.0
H697 H 0.03628 0.94588 0.80527 0.0
H698 H 0.02854 0.87285 0.81805 0.0
C699 C 0.91953 0.85533 0.82619 0.0
C700 C 0.97525 0.89732 0.81976 0.0
C701 C 0.89098 0.83811 0.82567 0.0
C702 C 0.08001 0.96391 0.80505 0.0
C703 C 0.05372 0.94556 0.80785 0.0
C704 C 0.01407 0.88017 0.81862 0.0
C705 C 0.93742 0.84892 0.82215 0.0
C706 C 0.96709 0.86962 0.8212 0.0
C707 C 0.04996 0.92691 0.81383 0.0
C708 C 0.02189 0.90756 0.81682 0.0
H709 H 0.88976 0.78843 0.81401 0.0
H710 H 0.93923 0.81818 0.81491 0.0
H711 H 0.98151 0.84034 0.82196 0.0
H712 H 0.11689 0.94453 0.81654 0.0
H713 H 0.07109 0.91281 0.82148 0.0
C714 C 0.04521 0.15237 0.81295 0.0
C715 C 0.02111 0.13568 0.80867 0.0
C716 C 0.06523 0.14478 0.8139 0.0
C717 C 0.09185 0.10336 0.80515 0.0
H718 H 0.12312 0.10706 0.82554 0.0
C719 C 0.18255 0.08552 0.80866 0.0
C720 C 0.17886 0.06536 0.81412 0.0
C721 C 0.16554 0.09697 0.80872 0.0
C722 C 0.11454 0.10593 0.81982 0.0
H723 H 0.99946 0.09808 0.80194 0.0
H724 H 0.03468 0.08508 0.8035 0.0
H725 H 0.08797 0.12043 0.82394 0.0
H726 H 0.15588 0.04287 0.82429 0.0
H727 H 0.12604 0.06316 0.82444 0.0
H728 H 0.11812 0.08872 0.80102 0.0
C729 C 0.03796 0.10403 0.80613 0.0
C730 C 0.0946 0.11372 0.8189 0.0
C731 C 0.01778 0.11147 0.80524 0.0
C732 C 0.15928 0.05851 0.82005 0.0
C733 C 0.14216 0.07003 0.82011 0.0
C734 C 0.11192 0.09586 0.80606 0.0
C735 C 0.06177 0.12049 0.81052 0.0
C736 C 0.08301 0.11242 0.81155 0.0
C737 C 0.14444 0.08853 0.81425 0.0
C738 C 0.12351 0.09709 0.8134 0.0
H739 H 0.04849 0.17114 0.8157 0.0
H740 H 0.08352 0.15803 0.81723 0.0
H741 H 0.08344 0.10232 0.79941 0.0
H742 H 0.1977 0.0914 0.80407 0.0
H743 H 0.16816 0.11164 0.80424 0.0
C744 C 0.84842 0.89812 0.80924 0.0
C745 C 0.86812 0.88974 0.80863 0.0
C746 C 0.85634 0.92525 0.81118 0.0
C747 C 0.90915 0.98544 0.82143 0.0
H748 H 0.88294 0.02571 0.80924 0.0
C749 C 0.95161 0.10266 0.82477 0.0
C750 C 0.93448 0.11315 0.82267 0.0
C751 C 0.94226 0.0745 0.82407 0.0
C752 C 0.88999 0.01466 0.81284 0.0
H753 H 0.91159 0.90324 0.80959 0.0
H754 H 0.92537 0.95072 0.81306 0.0
H755 H 0.86971 0.97885 0.80563 0.0
H756 H 0.8937 0.10257 0.81883 0.0
H757 H 0.87663 0.05328 0.81815 0.0
H758 H 0.92905 0.02101 0.82874 0.0
C759 C 0.90383 0.93622 0.81199 0.0
C760 C 0.88257 0.98783 0.81071 0.0
C761 C 0.89597 0.90916 0.80993 0.0
C762 C 0.90721 0.09488 0.82051 0.0
C763 C 0.89765 0.06671 0.81999 0.0
C764 C 0.91629 0.01221 0.82364 0.0
C765 C 0.88406 0.94447 0.81267 0.0
C766 C 0.89216 0.973 0.81496 0.0
C767 C 0.91545 0.05629 0.82138 0.0
C768 C 0.90685 0.02723 0.81936 0.0
H769 H 0.82681 0.88362 0.8083 0.0
H770 H 0.84067 0.93104 0.81169 0.0
H771 H 0.91657 0.9743 0.82486 0.0
H772 H 0.97295 0.11645 0.82628 0.0
H773 H 0.95669 0.0674 0.82514 0.0
C774 C 0.97378 0.08477 0.70149 0.0
C775 C 0.97334 0.10723 0.69803 0.0
C776 C 0.95417 0.05784 0.69947 0.0
C777 C 0.90659 0.01587 0.68405 0.0
H778 H 0.8685 0.96376 0.70064 0.0
C779 C 0.84031 0.89609 0.68106 0.0
C780 C 0.81656 0.88336 0.68571 0.0
C781 C 0.85781 0.92467 0.6814 0.0
C782 C 0.87884 0.97812 0.69594 0.0
H783 H 0.95207 0.1189 0.68966 0.0
H784 H 0.91804 0.07184 0.6861 0.0
H785 H 0.90313 0.01092 0.70382 0.0
H786 H 0.79098 0.89053 0.6937 0.0
H787 H 0.82124 0.94021 0.69423 0.0
H788 H 0.88236 0.98269 0.67617 0.0
C789 C 0.93357 0.07518 0.69038 0.0
C790 C 0.89884 0.00503 0.69776 0.0
C791 C 0.95294 0.10211 0.69247 0.0
C792 C 0.80927 0.89982 0.6901 0.0
C793 C 0.82666 0.92821 0.69045 0.0
C794 C 0.88677 0.98873 0.68221 0.0
C795 C 0.93394 0.05279 0.69387 0.0
C796 C 0.91288 0.0242 0.69185 0.0
C797 C 0.85171 0.94076 0.6864 0.0
C798 C 0.87258 0.96968 0.68815 0.0
H799 H 0.98924 0.08797 0.70577 0.0
H800 H 0.955 0.04092 0.70223 0.0
H801 H 0.91726 0.03025 0.67938 0.0
H802 H 0.84654 0.88384 0.67769 0.0
H803 H 0.87703 0.93387 0.67822 0.0
C804 C 0.10423 0.94697 0.68026 0.0
C805 C 0.11652 0.93666 0.68533 0.0
C806 C 0.07562 0.93572 0.68027 0.0
C807 C 0.00999 0.87646 0.68751 0.0
H808 H 0.98622 0.93039 0.68866 0.0
C809 C 0.8958 0.84503 0.69141 0.0
C810 C 0.88968 0.86152 0.69623 0.0
C811 C 0.92294 0.85335 0.68939 0.0
C812 C 0.99254 0.91508 0.68841 0.0
H813 H 0.10858 0.90536 0.69393 0.0
H814 H 0.05906 0.88588 0.69396 0.0
H815 H 0.03413 0.9453 0.68576 0.0
H816 H 0.90756 0.89949 0.70284 0.0
H817 H 0.95503 0.91364 0.69949 0.0
H818 H 0.96876 0.8464 0.69053 0.0
C819 C 0.07119 0.9025 0.68996 0.0
C820 C 0.01993 0.92357 0.6866 0.0
C821 C 0.09965 0.91376 0.68998 0.0
C822 C 0.91149 0.88629 0.69912 0.0
C823 C 0.93871 0.89454 0.69712 0.0
C824 C 0.98265 0.86799 0.68935 0.0
C825 C 0.05886 0.91387 0.6853 0.0
C826 C 0.02909 0.90442 0.68625 0.0
C827 C 0.94475 0.87829 0.69217 0.0
C828 C 0.97364 0.88723 0.68993 0.0
H829 H 0.11677 0.96472 0.67666 0.0
H830 H 0.0667 0.94469 0.67652 0.0
H831 H 0.01627 0.86112 0.68721 0.0
H832 H 0.87958 0.82589 0.68903 0.0
H833 H 0.92673 0.84046 0.68549 0.0
C834 C 0.05948 0.16431 0.68295 0.0
C835 C 0.06947 0.18553 0.68848 0.0
C836 C 0.07151 0.14776 0.68223 0.0
C837 C 0.08411 0.10364 0.68759 0.0
H838 H 0.16134 0.12891 0.69115 0.0
C839 C 0.12047 0.03135 0.69947 0.0
C840 C 0.14468 0.03359 0.69636 0.0
C841 C 0.11277 0.05083 0.69764 0.0
C842 C 0.13974 0.12145 0.69007 0.0
H843 H 0.10115 0.20768 0.69708 0.0
H844 H 0.1221 0.1791 0.69584 0.0
H845 H 0.14672 0.16222 0.68836 0.0
H846 H 0.18005 0.05854 0.68902 0.0
H847 H 0.16646 0.09221 0.6858 0.0
H848 H 0.07711 0.06289 0.68928 0.0
C849 C 0.10511 0.17505 0.69203 0.0
C850 C 0.13134 0.14058 0.68852 0.0
C851 C 0.09304 0.19142 0.69277 0.0
C852 C 0.16131 0.05615 0.69154 0.0
C853 C 0.15355 0.07556 0.6897 0.0
C854 C 0.09252 0.08451 0.68912 0.0
C855 C 0.09382 0.15233 0.68698 0.0
C856 C 0.10335 0.13195 0.68742 0.0
C857 C 0.12902 0.07297 0.69265 0.0
C858 C 0.12036 0.09322 0.69054 0.0
H859 H 0.0412 0.15922 0.6796 0.0
H860 H 0.06259 0.13065 0.6782 0.0
H861 H 0.06236 0.09626 0.68687 0.0
H862 H 0.10719 0.0143 0.70321 0.0
H863 H 0.09403 0.04851 0.70015 0.0
C864 C 0.57652 0.36274 0.53128 0.0
C865 C 0.55508 0.36536 0.52796 0.0
C866 C 0.60397 0.38161 0.5295 0.0
C867 C 0.64907 0.45123 0.52124 0.0
H868 H 0.70048 0.42454 0.51916 0.0
C869 C 0.77154 0.49127 0.51386 0.0
C870 C 0.7834 0.51456 0.51869 0.0
C871 C 0.74289 0.47439 0.51354 0.0
C872 C 0.68634 0.43231 0.51957 0.0
H873 H 0.54585 0.39027 0.52023 0.0
H874 H 0.59345 0.42271 0.51705 0.0
H875 H 0.65225 0.39217 0.52179 0.0
H876 H 0.77481 0.53973 0.52644 0.0
H877 H 0.72519 0.51051 0.52592 0.0
H878 H 0.68309 0.49132 0.51891 0.0
C879 C 0.58918 0.40636 0.52113 0.0
C880 C 0.65872 0.41378 0.52123 0.0
C881 C 0.56179 0.38764 0.52295 0.0
C882 C 0.76618 0.52187 0.52267 0.0
C883 C 0.73767 0.50511 0.52235 0.0
C884 C 0.67664 0.46973 0.51953 0.0
C885 C 0.61064 0.40346 0.52432 0.0
C886 C 0.63981 0.42305 0.52222 0.0
C887 C 0.72567 0.48061 0.51801 0.0
C888 C 0.69574 0.46059 0.51881 0.0
H889 H 0.57214 0.34589 0.53518 0.0
H890 H 0.61997 0.37905 0.5322 0.0
H891 H 0.63519 0.45918 0.522 0.0
H892 H 0.78434 0.48504 0.51077 0.0
H893 H 0.73429 0.4559 0.51003 0.0
C894 C 0.50658 0.28181 0.51101 0.0
C895 C 0.48441 0.27136 0.51624 0.0
C896 C 0.52406 0.27072 0.51078 0.0
C897 C 0.56866 0.25971 0.51668 0.0
H898 H 0.54451 0.18347 0.52143 0.0
C899 C 0.64266 0.22695 0.52958 0.0
C900 C 0.63965 0.20156 0.52729 0.0
C901 C 0.62323 0.23431 0.52737 0.0
C902 C 0.55172 0.20479 0.52 0.0
H903 H 0.46172 0.23976 0.52482 0.0
H904 H 0.4921 0.22074 0.52453 0.0
H905 H 0.51076 0.19674 0.51802 0.0
H906 H 0.61371 0.16399 0.52087 0.0
H907 H 0.58038 0.17707 0.51689 0.0
H908 H 0.60968 0.26768 0.51853 0.0
C909 C 0.49616 0.23731 0.52055 0.0
C910 C 0.53228 0.21246 0.51812 0.0
C911 C 0.47877 0.24833 0.52076 0.0
C912 C 0.61663 0.18363 0.5228 0.0
C913 C 0.59739 0.19111 0.52053 0.0
C914 C 0.58814 0.252 0.51849 0.0
C915 C 0.51959 0.24896 0.51577 0.0
C916 C 0.54043 0.24012 0.51661 0.0
C917 C 0.60046 0.21659 0.52276 0.0
C918 C 0.57989 0.22453 0.52034 0.0
H919 H 0.51145 0.29961 0.50746 0.0
H920 H 0.54165 0.27986 0.50692 0.0
H921 H 0.57573 0.28126 0.51564 0.0
H922 H 0.66012 0.24125 0.53304 0.0
H923 H 0.62601 0.25387 0.52934 0.0
C924 C 0.75624 0.23483 0.51771 0.0
C925 C 0.72842 0.21711 0.51601 0.0
C926 C 0.76695 0.26325 0.51786 0.0
C927 C 0.74962 0.31903 0.51459 0.0
H928 H 0.79829 0.35162 0.53226 0.0
C929 C 0.77097 0.42083 0.52939 0.0
C930 C 0.79894 0.44043 0.53039 0.0
C931 C 0.76308 0.39397 0.52708 0.0
C932 C 0.78486 0.34285 0.52728 0.0
H933 H 0.69023 0.21492 0.51267 0.0
H934 H 0.70843 0.26438 0.51321 0.0
H935 H 0.78436 0.30484 0.52841 0.0
H936 H 0.84046 0.44711 0.52993 0.0
H937 H 0.82655 0.40001 0.52615 0.0
H938 H 0.74934 0.35705 0.51378 0.0
C939 C 0.72243 0.2567 0.5142 0.0
C940 C 0.77705 0.31608 0.525 0.0
C941 C 0.71194 0.22827 0.51384 0.0
C942 C 0.81875 0.43243 0.52924 0.0
C943 C 0.81082 0.40551 0.52707 0.0
C944 C 0.75712 0.34574 0.51697 0.0
C945 C 0.74976 0.27446 0.51659 0.0
C946 C 0.75933 0.30373 0.51861 0.0
C947 C 0.78296 0.38614 0.52586 0.0
C948 C 0.7748 0.35785 0.52334 0.0
H949 H 0.76924 0.2266 0.51946 0.0
H950 H 0.78833 0.27627 0.51945 0.0
H951 H 0.73621 0.31042 0.50961 0.0
H952 H 0.75527 0.42647 0.53013 0.0
H953 H 0.74144 0.37932 0.52625 0.0
C954 C 0.86301 0.43379 0.64841 0.0
C955 C 0.85552 0.45057 0.65257 0.0
C956 C 0.84582 0.40534 0.6483 0.0
C957 C 0.78575 0.34564 0.657 0.0
H958 H 0.77068 0.31984 0.63566 0.0
C959 C 0.72 0.23056 0.64817 0.0
C960 C 0.70036 0.22452 0.64228 0.0
C961 C 0.73915 0.25782 0.65003 0.0
C962 C 0.7746 0.32674 0.64165 0.0
H963 H 0.82535 0.45064 0.66041 0.0
H964 H 0.79521 0.40054 0.66027 0.0
H965 H 0.80489 0.36755 0.63836 0.0
H966 H 0.6855 0.24251 0.63377 0.0
H967 H 0.71923 0.29005 0.63695 0.0
H968 H 0.75521 0.30459 0.66025 0.0
C969 C 0.81442 0.40952 0.65709 0.0
C970 C 0.79439 0.35397 0.6432 0.0
C971 C 0.83172 0.43816 0.6572 0.0
C972 C 0.70036 0.24639 0.63831 0.0
C973 C 0.71972 0.27363 0.64012 0.0
C974 C 0.76612 0.31818 0.65545 0.0
C975 C 0.82076 0.39302 0.65235 0.0
C976 C 0.80019 0.36374 0.65089 0.0
C977 C 0.7393 0.27962 0.64599 0.0
C978 C 0.76026 0.30854 0.64774 0.0
H979 H 0.88137 0.44282 0.64484 0.0
H980 H 0.85148 0.39305 0.64472 0.0
H981 H 0.7898 0.35267 0.66298 0.0
H982 H 0.72052 0.21424 0.65138 0.0
H983 H 0.75416 0.26185 0.65454 0.0
C984 C 0.56852 0.39108 0.65228 0.0
C985 C 0.55584 0.39922 0.64667 0.0
C986 C 0.59716 0.40247 0.65226 0.0
C987 C 0.65322 0.43118 0.63815 0.0
H988 H 0.70183 0.45184 0.65596 0.0
C989 C 0.76338 0.44822 0.63618 0.0
C990 C 0.78415 0.47173 0.63992 0.0
C991 C 0.73568 0.44013 0.6373 0.0
C992 C 0.68847 0.44622 0.65094 0.0
H993 H 0.56311 0.42732 0.63715 0.0
H994 H 0.61287 0.44735 0.63718 0.0
H995 H 0.65331 0.43804 0.65785 0.0
H996 H 0.79192 0.50519 0.64778 0.0
H997 H 0.74366 0.49099 0.64971 0.0
H998 H 0.68814 0.43923 0.63124 0.0
C999 C 0.6008 0.43179 0.64147 0.0
C1000 C 0.66073 0.43818 0.65203 0.0
C1001 C 0.57235 0.42046 0.64149 0.0
C1002 C 0.77652 0.487 0.64478 0.0
C1003 C 0.74885 0.47877 0.64595 0.0
C1004 C 0.68079 0.43894 0.63708 0.0
C1005 C 0.61341 0.42213 0.64663 0.0
C1006 C 0.64289 0.43078 0.64563 0.0
C1007 C 0.72813 0.45522 0.64224 0.0
C1008 C 0.69875 0.44663 0.64345 0.0
H1009 H 0.55625 0.3746 0.65631 0.0
H1010 H 0.60637 0.39466 0.65631 0.0
H1011 H 0.63986 0.42517 0.63312 0.0
H1012 H 0.76849 0.43592 0.63243 0.0
H1013 H 0.72011 0.42177 0.6344 0.0
C1014 C 0.60933 0.16776 0.65535 0.0
C1015 C 0.60104 0.14528 0.65031 0.0
C1016 C 0.59642 0.18361 0.65503 0.0
C1017 C 0.56282 0.2031 0.64028 0.0
H1018 H 0.54823 0.24024 0.65702 0.0
C1019 C 0.55111 0.29778 0.63499 0.0
C1020 C 0.52908 0.29835 0.63869 0.0
C1021 C 0.55783 0.27768 0.6369 0.0
C1022 C 0.55204 0.22984 0.6523 0.0
H1023 H 0.57121 0.12001 0.6416 0.0
H1024 H 0.54831 0.14711 0.64118 0.0
H1025 H 0.56169 0.20589 0.66006 0.0
H1026 H 0.49693 0.27821 0.64735 0.0
H1027 H 0.50882 0.24317 0.65069 0.0
H1028 H 0.55357 0.22709 0.63251 0.0
C1029 C 0.56514 0.15301 0.64522 0.0
C1030 C 0.55989 0.21034 0.65404 0.0
C1031 C 0.57809 0.13737 0.64551 0.0
C1032 C 0.51397 0.27835 0.64436 0.0
C1033 C 0.52087 0.25838 0.64633 0.0
C1034 C 0.55525 0.22266 0.63855 0.0
C1035 C 0.57503 0.17706 0.64969 0.0
C1036 C 0.56536 0.19679 0.64803 0.0
C1037 C 0.54282 0.25781 0.6426 0.0
C1038 C 0.54995 0.23638 0.64453 0.0
H1039 H 0.62717 0.17444 0.65905 0.0
H1040 H 0.60451 0.20206 0.65853 0.0
H1041 H 0.56734 0.19337 0.63551 0.0
H1042 H 0.56325 0.31289 0.63061 0.0
H1043 H 0.57504 0.2779 0.63398 0.0
C1044 C 0.7545 0.31833 0.14135 0.0
C1045 C 0.77364 0.30961 0.13995 0.0
C1046 C 0.72728 0.29924 0.14329 0.0
C1047 C 0.67482 0.22676 0.14161 0.0
H1048 H 0.64233 0.23939 0.15992 0.0
C1049 C 0.56712 0.14506 0.1511 0.0
C1050 C 0.54926 0.15446 0.15336 0.0
C1051 C 0.59541 0.16322 0.15068 0.0
C1052 C 0.65095 0.23563 0.15475 0.0
H1053 H 0.77912 0.27407 0.13929 0.0
H1054 H 0.73139 0.24071 0.14246 0.0
H1055 H 0.68922 0.27336 0.15611 0.0
H1056 H 0.54682 0.18979 0.15731 0.0
H1057 H 0.5961 0.22181 0.15636 0.0
H1058 H 0.63658 0.18974 0.14 0.0
C1059 C 0.73752 0.2623 0.14212 0.0
C1060 C 0.67781 0.25511 0.15258 0.0
C1061 C 0.76481 0.28139 0.14031 0.0
C1062 C 0.56028 0.18192 0.15571 0.0
C1063 C 0.58857 0.2003 0.15512 0.0
C1064 C 0.6479 0.20752 0.14371 0.0
C1065 C 0.7186 0.27107 0.14375 0.0
C1066 C 0.68999 0.2508 0.14599 0.0
C1067 C 0.60638 0.19139 0.15229 0.0
C1068 C 0.63557 0.21158 0.15033 0.0
H1069 H 0.76078 0.33999 0.14122 0.0
H1070 H 0.71302 0.3065 0.14447 0.0
H1071 H 0.68361 0.22308 0.13646 0.0
H1072 H 0.55902 0.12397 0.14922 0.0
H1073 H 0.60852 0.15537 0.14873 0.0
C1074 C 0.8194 0.38023 0.1569 0.0
C1075 C 0.84497 0.39427 0.15312 0.0
C1076 C 0.80165 0.39102 0.15684 0.0
C1077 C 0.79722 0.45338 0.15151 0.0
H1078 H 0.72243 0.39949 0.14585 0.0
C1079 C 0.71575 0.48474 0.14504 0.0
C1080 C 0.69618 0.47036 0.13921 0.0
C1081 C 0.73369 0.47587 0.14755 0.0
C1082 C 0.74329 0.41487 0.14735 0.0
H1083 H 0.87306 0.43147 0.14695 0.0
H1084 H 0.84244 0.45024 0.14683 0.0
H1085 H 0.75449 0.38424 0.14952 0.0
H1086 H 0.68063 0.43569 0.13131 0.0
H1087 H 0.71269 0.42082 0.13545 0.0
H1088 H 0.78659 0.48408 0.14889 0.0
C1089 C 0.83585 0.43106 0.14987 0.0
C1090 C 0.76157 0.40607 0.14961 0.0
C1091 C 0.85348 0.42029 0.14993 0.0
C1092 C 0.69542 0.44722 0.13582 0.0
C1093 C 0.71363 0.43852 0.13826 0.0
C1094 C 0.77904 0.46219 0.14917 0.0
C1095 C 0.80926 0.41605 0.15304 0.0
C1096 C 0.78891 0.42524 0.15162 0.0
C1097 C 0.73283 0.45257 0.14422 0.0
C1098 C 0.75191 0.44307 0.14696 0.0
H1099 H 0.81221 0.35997 0.15933 0.0
H1100 H 0.78151 0.37915 0.15946 0.0
H1101 H 0.81799 0.46874 0.15309 0.0
H1102 H 0.71678 0.50248 0.14786 0.0
H1103 H 0.7478 0.48699 0.15223 0.0
C1104 C 0.5152 0.22978 0.14562 0.0
C1105 C 0.53032 0.22251 0.14059 0.0
C1106 C 0.52357 0.25736 0.14702 0.0
C1107 C 0.56214 0.32572 0.13851 0.0
H1108 H 0.56576 0.35215 0.15957 0.0
C1109 C 0.57802 0.43256 0.14396 0.0
C1110 C 0.60097 0.44961 0.14857 0.0
C1111 C 0.56717 0.40418 0.14395 0.0
C1112 C 0.56482 0.345 0.15367 0.0
H1113 H 0.56599 0.23864 0.13303 0.0
H1114 H 0.58026 0.28693 0.13537 0.0
H1115 H 0.55232 0.30384 0.15733 0.0
H1116 H 0.62912 0.45024 0.15728 0.0
H1117 H 0.60974 0.40021 0.15736 0.0
H1118 H 0.57448 0.36666 0.13483 0.0
C1119 C 0.56199 0.27114 0.13824 0.0
C1120 C 0.55703 0.31742 0.15238 0.0
C1121 C 0.55382 0.24352 0.13691 0.0
C1122 C 0.61128 0.43754 0.15372 0.0
C1123 C 0.6003 0.40896 0.15373 0.0
C1124 C 0.56953 0.3531 0.13979 0.0
C1125 C 0.54706 0.27831 0.14336 0.0
C1126 C 0.55565 0.30756 0.14478 0.0
C1127 C 0.57897 0.39222 0.14857 0.0
C1128 C 0.57086 0.363 0.14737 0.0
H1129 H 0.49709 0.21417 0.1486 0.0
H1130 H 0.51152 0.26232 0.15092 0.0
H1131 H 0.56109 0.31864 0.13259 0.0
H1132 H 0.56954 0.44134 0.13997 0.0
H1133 H 0.55037 0.39167 0.14004 0.0
C1134 C 0.64755 0.42262 0.03013 0.0
C1135 C 0.64521 0.44358 0.02637 0.0
C1136 C 0.6282 0.39496 0.02877 0.0
C1137 C 0.57835 0.34841 0.01447 0.0
H1138 H 0.54365 0.29986 0.03201 0.0
C1139 C 0.5113 0.22813 0.0136 0.0
C1140 C 0.48758 0.21685 0.01828 0.0
C1141 C 0.5295 0.2566 0.01357 0.0
C1142 C 0.55313 0.31323 0.02706 0.0
H1143 H 0.62077 0.45182 0.01818 0.0
H1144 H 0.58734 0.40362 0.01577 0.0
H1145 H 0.57852 0.34784 0.03429 0.0
H1146 H 0.46291 0.22649 0.02593 0.0
H1147 H 0.4946 0.27599 0.02586 0.0
H1148 H 0.55304 0.31351 0.00724 0.0
C1149 C 0.6041 0.40864 0.01977 0.0
C1150 C 0.57322 0.34057 0.02837 0.0
C1151 C 0.62314 0.43625 0.02122 0.0
C1152 C 0.48116 0.23463 0.02233 0.0
C1153 C 0.49935 0.26291 0.02234 0.0
C1154 C 0.55853 0.32086 0.01316 0.0
C1155 C 0.60644 0.38774 0.02353 0.0
C1156 C 0.58587 0.35849 0.02209 0.0
C1157 C 0.52421 0.27403 0.01822 0.0
C1158 C 0.54553 0.30313 0.01945 0.0
H1159 H 0.66433 0.42756 0.03411 0.0
H1160 H 0.63049 0.37919 0.03173 0.0
H1161 H 0.58796 0.36182 0.00953 0.0
H1162 H 0.5169 0.2149 0.01048 0.0
H1163 H 0.54857 0.26474 0.01034 0.0
C1164 C 0.77211 0.28654 0.01232 0.0
C1165 C 0.78173 0.26969 0.01536 0.0
C1166 C 0.74399 0.27775 0.01246 0.0
C1167 C 0.67427 0.21885 0.01499 0.0
H1168 H 0.66169 0.26803 0.02794 0.0
C1169 C 0.56868 0.18282 0.02908 0.0
C1170 C 0.55961 0.20186 0.02998 0.0
C1171 C 0.59561 0.19148 0.02672 0.0
C1172 C 0.66461 0.25423 0.02419 0.0
H1173 H 0.76968 0.2298 0.0203 0.0
H1174 H 0.72042 0.21386 0.02017 0.0
H1175 H 0.70806 0.28194 0.02358 0.0
H1176 H 0.57158 0.24493 0.02908 0.0
H1177 H 0.61822 0.25999 0.02471 0.0
H1178 H 0.63091 0.19122 0.01548 0.0
C1179 C 0.73454 0.23393 0.01778 0.0
C1180 C 0.69126 0.26226 0.02169 0.0
C1181 C 0.76267 0.24297 0.01782 0.0
C1182 C 0.57814 0.22983 0.02858 0.0
C1183 C 0.60494 0.23844 0.02607 0.0
C1184 C 0.6475 0.21099 0.01736 0.0
C1185 C 0.72509 0.25174 0.01546 0.0
C1186 C 0.69639 0.24448 0.01717 0.0
C1187 C 0.61399 0.21935 0.02502 0.0
C1188 C 0.64234 0.22835 0.02213 0.0
H1189 H 0.78643 0.30745 0.01054 0.0
H1190 H 0.73715 0.29183 0.01063 0.0
H1191 H 0.67773 0.20481 0.0115 0.0
H1192 H 0.55483 0.16111 0.03013 0.0
H1193 H 0.60192 0.17621 0.0262 0.0
C1194 C 0.81748 0.38466 0.02542 0.0
C1195 C 0.79688 0.35691 0.02609 0.0
C1196 C 0.81077 0.40458 0.02327 0.0
C1197 C 0.75983 0.41447 0.01281 0.0
H1198 H 0.7854 0.47954 0.02561 0.0
C1199 C 0.71522 0.48739 0.01084 0.0
C1200 C 0.73144 0.51459 0.01341 0.0
C1201 C 0.72558 0.46933 0.01103 0.0
C1202 C 0.7786 0.4619 0.02183 0.0
H1203 H 0.75315 0.32824 0.02495 0.0
H1204 H 0.74149 0.36313 0.0211 0.0
H1205 H 0.79846 0.44555 0.02888 0.0
H1206 H 0.77171 0.54509 0.01753 0.0
H1207 H 0.79059 0.51432 0.0173 0.0
H1208 H 0.74024 0.43088 0.00568 0.0
C1209 C 0.76278 0.36937 0.02228 0.0
C1210 C 0.78594 0.44229 0.02377 0.0
C1211 C 0.76942 0.34949 0.02456 0.0
C1212 C 0.7589 0.52419 0.01548 0.0
C1213 C 0.76949 0.50638 0.01548 0.0
C1214 C 0.75282 0.43433 0.01078 0.0
C1215 C 0.7834 0.39709 0.02162 0.0
C1216 C 0.77637 0.41826 0.01934 0.0
C1217 C 0.75253 0.47834 0.01366 0.0
C1218 C 0.76187 0.45821 0.01532 0.0
H1219 H 0.83882 0.39098 0.02654 0.0
H1220 H 0.82705 0.42581 0.02278 0.0
H1221 H 0.75245 0.3962 0.00925 0.0
H1222 H 0.69376 0.47937 0.00938 0.0
H1223 H 0.71174 0.44791 0.00964 0.0
C1224 C 0.25296 0.69517 0.86236 0.0
C1225 C 0.22996 0.69605 0.85952 0.0
C1226 C 0.2794 0.71399 0.85974 0.0
C1227 C 0.31902 0.78158 0.84983 0.0
H1228 H 0.37422 0.75955 0.8485 0.0
C1229 C 0.44325 0.8276 0.84346 0.0
C1230 C 0.45321 0.85127 0.8481 0.0
C1231 C 0.41488 0.80962 0.84276 0.0
C1232 C 0.35899 0.76599 0.84866 0.0
H1233 H 0.21676 0.71728 0.8516 0.0
H1234 H 0.2626 0.74949 0.84689 0.0
H1235 H 0.32697 0.72544 0.85155 0.0
H1236 H 0.44162 0.87616 0.85498 0.0
H1237 H 0.39252 0.84505 0.85383 0.0
H1238 H 0.35097 0.82204 0.84682 0.0
C1239 C 0.2604 0.73475 0.85129 0.0
C1240 C 0.33191 0.74648 0.85057 0.0
C1241 C 0.23402 0.71617 0.85399 0.0
C1242 C 0.43445 0.85801 0.85138 0.0
C1243 C 0.40622 0.84013 0.85069 0.0
C1244 C 0.34602 0.80102 0.84783 0.0
C1245 C 0.28348 0.73394 0.85413 0.0
C1246 C 0.31172 0.75415 0.85139 0.0
C1247 C 0.39607 0.81509 0.84667 0.0
C1248 C 0.36653 0.79366 0.84743 0.0
H1249 H 0.25058 0.67998 0.86664 0.0
H1250 H 0.29667 0.71306 0.86219 0.0
H1251 H 0.30415 0.78838 0.85043 0.0
H1252 H 0.45727 0.82182 0.84091 0.0
H1253 H 0.40774 0.79077 0.83949 0.0
C1254 C 0.14396 0.57659 0.85383 0.0
C1255 C 0.1533 0.60345 0.85121 0.0
C1256 C 0.16137 0.56554 0.85371 0.0
C1257 C 0.23178 0.57977 0.84781 0.0
H1258 H 0.22434 0.53827 0.86657 0.0
C1259 C 0.31849 0.56377 0.86053 0.0
C1260 C 0.31086 0.53632 0.86216 0.0
C1261 C 0.29852 0.57073 0.85862 0.0
C1262 C 0.22654 0.54966 0.86128 0.0
H1263 H 0.18754 0.6395 0.84607 0.0
H1264 H 0.21844 0.62084 0.84615 0.0
H1265 H 0.1902 0.55143 0.86361 0.0
H1266 H 0.27638 0.49478 0.86322 0.0
H1267 H 0.24145 0.50719 0.86017 0.0
H1268 H 0.26912 0.57899 0.84578 0.0
C1269 C 0.19744 0.60773 0.84805 0.0
C1270 C 0.20681 0.55702 0.85952 0.0
C1271 C 0.17969 0.61847 0.84797 0.0
C1272 C 0.28285 0.51612 0.86203 0.0
C1273 C 0.26288 0.52318 0.86028 0.0
C1274 C 0.25181 0.5728 0.84967 0.0
C1275 C 0.18887 0.58154 0.85124 0.0
C1276 C 0.2091 0.57221 0.85276 0.0
C1277 C 0.27056 0.55047 0.85846 0.0
C1278 C 0.24936 0.55774 0.85643 0.0
H1279 H 0.1237 0.56475 0.8564 0.0
H1280 H 0.15367 0.54496 0.85596 0.0
H1281 H 0.23414 0.59112 0.84251 0.0
H1282 H 0.33995 0.57971 0.86047 0.0
H1283 H 0.3049 0.59195 0.85729 0.0
C1284 C 0.37769 0.56151 0.8466 0.0
C1285 C 0.39455 0.55091 0.84889 0.0
C1286 C 0.38773 0.58989 0.84679 0.0
C1287 C 0.44185 0.6511 0.85709 0.0
H1288 H 0.41469 0.69014 0.8447 0.0
C1289 C 0.48351 0.76789 0.85995 0.0
C1290 C 0.46372 0.77617 0.86052 0.0
C1291 C 0.47569 0.74073 0.85808 0.0
C1292 C 0.42232 0.6794 0.84822 0.0
H1293 H 0.43553 0.56135 0.85249 0.0
H1294 H 0.45375 0.61089 0.85227 0.0
H1295 H 0.40147 0.64278 0.84135 0.0
H1296 H 0.42021 0.76246 0.8595 0.0
H1297 H 0.40663 0.71497 0.85617 0.0
H1298 H 0.46295 0.68785 0.86389 0.0
C1299 C 0.43245 0.59747 0.85067 0.0
C1300 C 0.41475 0.65226 0.84632 0.0
C1301 C 0.42222 0.56912 0.85066 0.0
C1302 C 0.43591 0.75665 0.85919 0.0
C1303 C 0.42816 0.72956 0.8572 0.0
C1304 C 0.44969 0.67827 0.85892 0.0
C1305 C 0.41497 0.60817 0.84914 0.0
C1306 C 0.42431 0.63768 0.85076 0.0
C1307 C 0.44799 0.72136 0.85661 0.0
C1308 C 0.43987 0.69264 0.85455 0.0
H1309 H 0.35608 0.54782 0.84537 0.0
H1310 H 0.37353 0.5972 0.84563 0.0
H1311 H 0.44905 0.64045 0.86081 0.0
H1312 H 0.5051 0.78245 0.86091 0.0
H1313 H 0.49142 0.73499 0.85762 0.0
C1314 C 0.3819 0.56272 0.98037 0.0
C1315 C 0.35981 0.5582 0.97554 0.0
C1316 C 0.40126 0.58926 0.98275 0.0
C1317 C 0.41219 0.66016 0.98435 0.0
H1318 H 0.48897 0.68044 0.98577 0.0
C1319 C 0.52226 0.76403 0.98202 0.0
C1320 C 0.51646 0.78216 0.98612 0.0
C1321 C 0.50486 0.73569 0.9826 0.0
C1322 C 0.46761 0.67512 0.98542 0.0
H1323 H 0.34114 0.57825 0.96929 0.0
H1324 H 0.37551 0.62468 0.97319 0.0
H1325 H 0.45478 0.63358 0.98233 0.0
H1326 H 0.4893 0.78497 0.99454 0.0
H1327 H 0.45906 0.73516 0.99572 0.0
H1328 H 0.42527 0.70215 0.98696 0.0
C1329 C 0.37743 0.60759 0.97534 0.0
C1330 C 0.44791 0.64813 0.98351 0.0
C1331 C 0.35786 0.58097 0.97302 0.0
C1332 C 0.49434 0.77142 0.99136 0.0
C1333 C 0.47681 0.74292 0.99193 0.0
C1334 C 0.43193 0.68723 0.98619 0.0
C1335 C 0.39925 0.61207 0.98029 0.0
C1336 C 0.41999 0.6404 0.98281 0.0
C1337 C 0.48124 0.72479 0.9873 0.0
C1338 C 0.45997 0.6952 0.98659 0.0
H1339 H 0.38398 0.54569 0.98249 0.0
H1340 H 0.4175 0.59179 0.98665 0.0
H1341 H 0.39083 0.65484 0.98403 0.0
H1342 H 0.5392 0.77183 0.97794 0.0
H1343 H 0.5089 0.72252 0.97889 0.0
C1344 C 0.22569 0.71404 0.99276 0.0
C1345 C 0.21505 0.72826 0.98866 0.0
C1346 C 0.25414 0.72437 0.99304 0.0
C1347 C 0.32221 0.78565 0.9879 0.0
H1348 H 0.34206 0.73022 0.9833 0.0
C1349 C 0.43479 0.81462 0.98192 0.0
C1350 C 0.43962 0.79918 0.97635 0.0
C1351 C 0.40809 0.80641 0.9844 0.0
C1352 C 0.33689 0.74602 0.98451 0.0
H1353 H 0.22565 0.76545 0.98225 0.0
H1354 H 0.27486 0.78332 0.98266 0.0
H1355 H 0.29472 0.71618 0.98654 0.0
H1356 H 0.42 0.7633 0.96888 0.0
H1357 H 0.37332 0.74962 0.97295 0.0
H1358 H 0.36391 0.81553 0.98536 0.0
C1359 C 0.26164 0.76435 0.98572 0.0
C1360 C 0.30975 0.73793 0.98653 0.0
C1361 C 0.23333 0.75407 0.98546 0.0
C1362 C 0.41702 0.77562 0.9732 0.0
C1363 C 0.39024 0.76761 0.97561 0.0
C1364 C 0.34924 0.79375 0.98578 0.0
C1365 C 0.27239 0.74911 0.98922 0.0
C1366 C 0.30194 0.75765 0.98813 0.0
C1367 C 0.38542 0.78275 0.9813 0.0
C1368 C 0.35689 0.77406 0.98394 0.0
H1369 H 0.21205 0.69398 0.99524 0.0
H1370 H 0.26174 0.71235 0.99593 0.0
H1371 H 0.31707 0.80143 0.98919 0.0
H1372 H 0.45171 0.83273 0.98454 0.0
H1373 H 0.40535 0.81839 0.98888 0.0
C1374 C 0.1823 0.61639 0.97485 0.0
C1375 C 0.20195 0.64456 0.97475 0.0
C1376 C 0.1901 0.59688 0.97648 0.0
C1377 C 0.24163 0.58762 0.98676 0.0
H1378 H 0.21771 0.52403 0.97343 0.0
C1379 C 0.28514 0.51347 0.98877 0.0
C1380 C 0.26877 0.48649 0.98603 0.0
C1381 C 0.27532 0.53198 0.98852 0.0
C1382 C 0.22408 0.54127 0.97735 0.0
H1383 H 0.24522 0.67443 0.97627 0.0
H1384 H 0.25881 0.64018 0.97919 0.0
H1385 H 0.20463 0.55814 0.97033 0.0
H1386 H 0.22874 0.45685 0.98156 0.0
H1387 H 0.21073 0.48835 0.98169 0.0
H1388 H 0.26071 0.57058 0.99387 0.0
C1389 C 0.2374 0.6333 0.97797 0.0
C1390 C 0.21676 0.56097 0.9755 0.0
C1391 C 0.22967 0.65283 0.97621 0.0
C1392 C 0.24163 0.47755 0.98375 0.0
C1393 C 0.23157 0.49579 0.98368 0.0
C1394 C 0.24865 0.56767 0.98868 0.0
C1395 C 0.21765 0.60516 0.97816 0.0
C1396 C 0.22557 0.58439 0.98016 0.0
C1397 C 0.24877 0.52365 0.98566 0.0
C1398 C 0.24004 0.54424 0.98398 0.0
H1399 H 0.16078 0.60942 0.97378 0.0
H1400 H 0.17446 0.57532 0.97662 0.0
H1401 H 0.24843 0.60539 0.9905 0.0
H1402 H 0.30638 0.521 0.99039 0.0
H1403 H 0.28929 0.55324 0.99004 0.0
C1404 C 0.22465 0.50489 0.49163 0.0
C1405 C 0.21369 0.48166 0.48679 0.0
C1406 C 0.2532 0.52223 0.49215 0.0
C1407 C 0.32081 0.52965 0.48617 0.0
H1408 H 0.34044 0.60538 0.4824 0.0
C1409 C 0.43215 0.614 0.47859 0.0
C1410 C 0.43504 0.63307 0.47283 0.0
C1411 C 0.40628 0.59563 0.48167 0.0
C1412 C 0.33532 0.5843 0.48341 0.0
H1413 H 0.22364 0.45681 0.47933 0.0
H1414 H 0.27306 0.4867 0.48023 0.0
H1415 H 0.29358 0.57202 0.4861 0.0
H1416 H 0.41278 0.64733 0.4657 0.0
H1417 H 0.3677 0.61485 0.4709 0.0
H1418 H 0.36215 0.54162 0.48301 0.0
C1419 C 0.26001 0.49177 0.48365 0.0
C1420 C 0.30851 0.56524 0.48569 0.0
C1421 C 0.23161 0.4746 0.48311 0.0
C1422 C 0.41137 0.63301 0.47015 0.0
C1423 C 0.38551 0.61455 0.4732 0.0
C1424 C 0.34759 0.5487 0.48385 0.0
C1425 C 0.27115 0.51648 0.48788 0.0
C1426 C 0.30071 0.5375 0.4869 0.0
C1427 C 0.38264 0.59577 0.47904 0.0
C1428 C 0.35498 0.57612 0.48225 0.0
H1429 H 0.21126 0.51091 0.49448 0.0
H1430 H 0.26115 0.54089 0.49557 0.0
H1431 H 0.3156 0.50853 0.48714 0.0
H1432 H 0.44992 0.61352 0.48083 0.0
H1433 H 0.4049 0.58163 0.4862 0.0
C1434 C 0.49288 0.72875 0.48384 0.0
C1435 C 0.51239 0.73546 0.47791 0.0
C1436 C 0.47625 0.74084 0.48399 0.0
C1437 C 0.44922 0.77715 0.48393 0.0
H1438 H 0.41987 0.77665 0.46346 0.0
C1439 C 0.38033 0.82457 0.47763 0.0
C1440 C 0.35681 0.80876 0.47304 0.0
C1441 C 0.40032 0.81689 0.47849 0.0
C1442 C 0.42778 0.77682 0.46922 0.0
H1443 H 0.53166 0.76172 0.46793 0.0
H1444 H 0.50316 0.7831 0.46828 0.0
H1445 H 0.45396 0.76228 0.46496 0.0
H1446 H 0.33618 0.77266 0.46567 0.0
H1447 H 0.37125 0.75944 0.46713 0.0
H1448 H 0.42259 0.79138 0.48817 0.0
C1449 C 0.50013 0.76809 0.47269 0.0
C1450 C 0.44755 0.7689 0.47007 0.0
C1451 C 0.51658 0.75601 0.47253 0.0
C1452 C 0.35405 0.78537 0.46922 0.0
C1453 C 0.37416 0.77781 0.47005 0.0
C1454 C 0.42953 0.78531 0.48306 0.0
C1455 C 0.47901 0.75979 0.47821 0.0
C1456 C 0.45851 0.76898 0.47742 0.0
C1457 C 0.39739 0.79337 0.47474 0.0
C1458 C 0.41854 0.78511 0.47569 0.0
H1459 H 0.48909 0.71279 0.48802 0.0
H1460 H 0.46012 0.73404 0.48831 0.0
H1461 H 0.4573 0.77741 0.48966 0.0
H1462 H 0.38317 0.84271 0.48067 0.0
H1463 H 0.41817 0.82947 0.48207 0.0
C1464 C 0.24133 0.76555 0.48237 0.0
C1465 C 0.26474 0.78328 0.48673 0.0
C1466 C 0.23096 0.73721 0.48251 0.0
C1467 C 0.25516 0.68815 0.48577 0.0
H1468 H 0.17848 0.6347 0.48205 0.0
C1469 C 0.22174 0.58054 0.47332 0.0
C1470 C 0.19707 0.55814 0.47602 0.0
C1471 C 0.2291 0.60745 0.4754 0.0
C1472 C 0.19995 0.64921 0.48319 0.0
H1473 H 0.29441 0.78516 0.49511 0.0
H1474 H 0.27583 0.73538 0.49551 0.0
H1475 H 0.19151 0.6818 0.48532 0.0
H1476 H 0.16084 0.54656 0.48309 0.0
H1477 H 0.1739 0.59322 0.48684 0.0
H1478 H 0.26354 0.65546 0.48376 0.0
C1479 C 0.26588 0.74349 0.49185 0.0
C1480 C 0.20746 0.67635 0.48499 0.0
C1481 C 0.27631 0.77196 0.4917 0.0
C1482 C 0.17988 0.56331 0.48083 0.0
C1483 C 0.18734 0.59015 0.48297 0.0
C1484 C 0.24762 0.66095 0.48403 0.0
C1485 C 0.24365 0.72588 0.48704 0.0
C1486 C 0.23522 0.6963 0.48615 0.0
C1487 C 0.21208 0.61259 0.4803 0.0
C1488 C 0.21997 0.64122 0.48258 0.0
H1489 H 0.23187 0.7737 0.47852 0.0
H1490 H 0.21398 0.72443 0.47868 0.0
H1491 H 0.27677 0.70298 0.48654 0.0
H1492 H 0.23545 0.57732 0.4696 0.0
H1493 H 0.24805 0.62423 0.47312 0.0
C1494 C 0.29761 0.75018 0.3667 0.0
C1495 C 0.2998 0.7731 0.36275 0.0
C1496 C 0.27817 0.72354 0.3644 0.0
C1497 C 0.23721 0.68223 0.34795 0.0
H1498 H 0.19032 0.63144 0.36384 0.0
C1499 C 0.17225 0.56238 0.34561 0.0
C1500 C 0.14667 0.54994 0.34941 0.0
C1501 C 0.18918 0.59106 0.34574 0.0
C1502 C 0.20309 0.64545 0.35932 0.0
H1503 H 0.28351 0.78594 0.3532 0.0
H1504 H 0.24977 0.73927 0.34915 0.0
H1505 H 0.22411 0.67848 0.36741 0.0
H1506 H 0.11744 0.55747 0.35556 0.0
H1507 H 0.14667 0.60737 0.35566 0.0
H1508 H 0.21641 0.64873 0.3399 0.0
C1509 C 0.26308 0.74206 0.35404 0.0
C1510 C 0.2226 0.67228 0.36138 0.0
C1511 C 0.28225 0.76875 0.35641 0.0
C1512 C 0.13709 0.56661 0.35259 0.0
C1513 C 0.1539 0.59512 0.35271 0.0
C1514 C 0.21789 0.65514 0.3459 0.0
C1515 C 0.26078 0.71923 0.35804 0.0
C1516 C 0.23988 0.69092 0.35573 0.0
C1517 C 0.18064 0.6075 0.34966 0.0
C1518 C 0.20058 0.63656 0.35158 0.0
H1519 H 0.31083 0.7528 0.37159 0.0
H1520 H 0.2769 0.70625 0.36756 0.0
H1521 H 0.25044 0.69623 0.3435 0.0
H1522 H 0.18028 0.54996 0.34321 0.0
H1523 H 0.20976 0.60012 0.34335 0.0
C1524 C 0.23117 0.51879 0.36076 0.0
C1525 C 0.22267 0.53836 0.36153 0.0
C1526 C 0.25839 0.52696 0.35886 0.0
C1527 C 0.31877 0.58063 0.34891 0.0
H1528 H 0.35918 0.55447 0.36106 0.0
C1529 C 0.43621 0.62426 0.34566 0.0
C1530 C 0.44693 0.60725 0.34766 0.0
C1531 C 0.40801 0.61469 0.3464 0.0
C1532 C 0.34811 0.56153 0.35748 0.0
H1533 H 0.23606 0.58186 0.36087 0.0
H1534 H 0.28368 0.59608 0.35744 0.0
H1535 H 0.31204 0.54052 0.36456 0.0
H1536 H 0.43674 0.56652 0.35146 0.0
H1537 H 0.3874 0.54908 0.35223 0.0
H1538 H 0.35456 0.6012 0.34172 0.0
C1539 C 0.2692 0.57445 0.35837 0.0
C1540 C 0.32112 0.55368 0.35954 0.0
C1541 C 0.24205 0.56633 0.3604 0.0
C1542 C 0.42886 0.57994 0.34983 0.0
C1543 C 0.40066 0.57017 0.35041 0.0
C1544 C 0.34569 0.58817 0.34676 0.0
C1545 C 0.27758 0.55482 0.35755 0.0
C1546 C 0.30623 0.56325 0.35531 0.0
C1547 C 0.38998 0.58777 0.34905 0.0
C1548 C 0.36079 0.57879 0.35103 0.0
H1549 H 0.2167 0.49708 0.36156 0.0
H1550 H 0.26429 0.5114 0.35823 0.0
H1551 H 0.30759 0.58805 0.3455 0.0
H1552 H 0.44985 0.64562 0.34414 0.0
H1553 H 0.40073 0.62899 0.34537 0.0
C1554 C 0.42085 0.85401 0.3608 0.0
C1555 C 0.39994 0.85033 0.35562 0.0
C1556 C 0.43287 0.83754 0.36028 0.0
C1557 C 0.46096 0.80465 0.35697 0.0
H1558 H 0.40767 0.7272 0.35445 0.0
C1559 C 0.49116 0.72016 0.35797 0.0
C1560 C 0.47286 0.69519 0.36165 0.0
C1561 C 0.48382 0.74021 0.3567 0.0
C1562 C 0.42278 0.74874 0.35522 0.0
H1563 H 0.3765 0.82787 0.34551 0.0
H1564 H 0.39786 0.79916 0.34452 0.0
H1565 H 0.39352 0.7613 0.35251 0.0
H1566 H 0.43276 0.6722 0.3671 0.0
H1567 H 0.42023 0.70752 0.36506 0.0
H1568 H 0.48991 0.79202 0.36002 0.0
C1569 C 0.40465 0.81457 0.34905 0.0
C1570 C 0.41478 0.76833 0.35397 0.0
C1571 C 0.39266 0.83121 0.34955 0.0
C1572 C 0.44736 0.69115 0.36425 0.0
C1573 C 0.44005 0.71129 0.363 0.0
C1574 C 0.46894 0.78505 0.35824 0.0
C1575 C 0.42422 0.81695 0.35458 0.0
C1576 C 0.43367 0.79651 0.35494 0.0
C1577 C 0.45804 0.73589 0.35911 0.0
C1578 C 0.44984 0.75682 0.35749 0.0
H1579 H 0.42692 0.86868 0.36552 0.0
H1580 H 0.4477 0.83984 0.36467 0.0
H1581 H 0.47608 0.8262 0.35771 0.0
H1582 H 0.51095 0.724 0.35586 0.0
H1583 H 0.49808 0.75878 0.35363 0.0
C1584 C 0.21795 0.17888 0.27966 0.0
C1585 C 0.21898 0.19672 0.28557 0.0
C1586 C 0.22338 0.18753 0.27196 0.0
C1587 C 0.22015 0.23605 0.25852 0.0
H1588 H 0.24972 0.20342 0.24439 0.0
C1589 C 0.18042 0.20633 0.22777 0.0
C1590 C 0.19768 0.2081 0.2216 0.0
C1591 C 0.1903 0.21253 0.23534 0.0
C1592 C 0.24196 0.21325 0.24823 0.0
H1593 H 0.22733 0.23811 0.28796 0.0
H1594 H 0.23682 0.25335 0.27437 0.0
H1595 H 0.25556 0.20136 0.25836 0.0
H1596 H 0.23919 0.21814 0.2186 0.0
H1597 H 0.25656 0.22875 0.23201 0.0
H1598 H 0.20611 0.24749 0.2484 0.0
C1599 C 0.23163 0.23251 0.27578 0.0
C1600 C 0.24501 0.21179 0.25626 0.0
C1601 C 0.22622 0.2238 0.28356 0.0
C1602 C 0.22533 0.21648 0.22322 0.0
C1603 C 0.23526 0.22257 0.23089 0.0
C1604 C 0.21728 0.23767 0.2505 0.0
C1605 C 0.23011 0.21434 0.26988 0.0
C1606 C 0.2329 0.22192 0.2615 0.0
C1607 C 0.21778 0.2207 0.23703 0.0
C1608 C 0.2269 0.22504 0.24528 0.0
H1609 H 0.21254 0.15787 0.28093 0.0
H1610 H 0.22132 0.17272 0.2676 0.0
H1611 H 0.21064 0.24415 0.26237 0.0
H1612 H 0.15901 0.20003 0.2268 0.0
H1613 H 0.17603 0.21014 0.23992 0.0
C1614 C 0.79304 0.00929 0.22182 0.0
C1615 C 0.78229 0.9827 0.21878 0.0
C1616 C 0.78909 0.01298 0.22968 0.0
C1617 C 0.77429 0.97442 0.24826 0.0
H1618 H 0.77682 0.03959 0.25674 0.0
C1619 C 0.78089 0.99443 0.28131 0.0
C1620 C 0.8037 0.01993 0.2833 0.0
C1621 C 0.77165 0.98892 0.2736 0.0
C1622 C 0.77588 0.02117 0.25444 0.0
H1623 H 0.75719 0.93925 0.22127 0.0
H1624 H 0.74887 0.94556 0.23479 0.0
H1625 H 0.77218 0.03165 0.24271 0.0
H1626 H 0.83351 0.06025 0.27891 0.0
H1627 H 0.81721 0.0508 0.26555 0.0
H1628 H 0.77836 0.96417 0.25997 0.0
C1629 C 0.76141 0.96364 0.2313 0.0
C1630 C 0.77343 0.0167 0.2464 0.0
C1631 C 0.7659 0.95998 0.22353 0.0
C1632 C 0.81602 0.0403 0.27754 0.0
C1633 C 0.80653 0.03499 0.2699 0.0
C1634 C 0.77638 0.97871 0.25628 0.0
C1635 C 0.77391 0.99012 0.23459 0.0
C1636 C 0.77325 0.99357 0.24318 0.0
C1637 C 0.78473 0.00904 0.26779 0.0
C1638 C 0.77788 0.00245 0.25945 0.0
H1639 H 0.80596 0.02709 0.21827 0.0
H1640 H 0.79925 0.0337 0.23198 0.0
H1641 H 0.77483 0.95664 0.24605 0.0
H1642 H 0.77103 0.97837 0.28564 0.0
H1643 H 0.75473 0.96875 0.27213 0.0
C1644 C 0.00938 0.78235 0.28016 0.0
C1645 C 0.00917 0.80648 0.28219 0.0
C1646 C 0.01441 0.778 0.27244 0.0
C1647 C 0.04422 0.81395 0.25402 0.0
H1648 H 0.98737 0.74868 0.24372 0.0
C1649 C 0.04839 0.80488 0.22131 0.0
C1650 C 0.02402 0.7987 0.21741 0.0
C1651 C 0.04804 0.7993 0.22921 0.0
C1652 C 0.00348 0.76692 0.24653 0.0
H1653 H 0.01538 0.8455 0.27795 0.0
H1654 H 0.02498 0.83838 0.26462 0.0
H1655 H 0.98624 0.75298 0.25789 0.0
H1656 H 0.97991 0.78024 0.21852 0.0
H1657 H 0.97922 0.77106 0.23248 0.0
H1658 H 0.0608 0.82871 0.24275 0.0
C1659 C 0.02105 0.82269 0.26891 0.0
C1660 C 0.00299 0.76924 0.25463 0.0
C1661 C 0.01551 0.82675 0.27653 0.0
C1662 C 0.99891 0.78497 0.22141 0.0
C1663 C 0.99858 0.77973 0.22939 0.0
C1664 C 0.0448 0.81159 0.24597 0.0
C1665 C 0.01993 0.79804 0.26673 0.0
C1666 C 0.02297 0.79315 0.25842 0.0
C1667 C 0.02335 0.78796 0.23344 0.0
C1668 C 0.02413 0.78834 0.24209 0.0
H1669 H 0.00422 0.76629 0.28442 0.0
H1670 H 0.01352 0.75886 0.27091 0.0
H1671 H 0.05991 0.83256 0.25679 0.0
H1672 H 0.06798 0.81531 0.21831 0.0
H1673 H 0.06737 0.80524 0.23209 0.0
C1674 C 0.7624 0.79474 0.72382 0.0
C1675 C 0.78187 0.792 0.7194 0.0
C1676 C 0.75825 0.78711 0.73163 0.0
C1677 C 0.77712 0.75378 0.74743 0.0
H1678 H 0.7737 0.80901 0.76019 0.0
C1679 C 0.81816 0.77911 0.77863 0.0
C1680 C 0.80397 0.78546 0.78425 0.0
C1681 C 0.80929 0.77413 0.77093 0.0
C1682 C 0.77407 0.79307 0.75673 0.0
H1683 H 0.81154 0.77817 0.71948 0.0
H1684 H 0.80505 0.76549 0.73325 0.0
H1685 H 0.76935 0.81016 0.74618 0.0
H1686 H 0.76878 0.79076 0.78621 0.0
H1687 H 0.75343 0.78251 0.77261 0.0
H1688 H 0.78334 0.73769 0.75806 0.0
C1689 C 0.79234 0.77283 0.73066 0.0
C1690 C 0.77154 0.79366 0.74867 0.0
C1691 C 0.79612 0.78006 0.72278 0.0
C1692 C 0.78015 0.78597 0.78201 0.0
C1693 C 0.77144 0.78132 0.77424 0.0
C1694 C 0.77987 0.75334 0.75551 0.0
C1695 C 0.77405 0.77722 0.73526 0.0
C1696 C 0.77356 0.77436 0.74389 0.0
C1697 C 0.78611 0.7756 0.76861 0.0
C1698 C 0.77897 0.77335 0.76023 0.0
H1699 H 0.75121 0.80396 0.72131 0.0
H1700 H 0.74347 0.79008 0.73491 0.0
H1701 H 0.77831 0.73832 0.74397 0.0
H1702 H 0.83646 0.77828 0.78016 0.0
H1703 H 0.82126 0.77014 0.76674 0.0
C1704 C 0.22628 0.9951 0.78048 0.0
C1705 C 0.19967 0.98975 0.78231 0.0
C1706 C 0.23278 0.99176 0.77284 0.0
C1707 C 0.20313 0.95999 0.75393 0.0
H1708 H 0.25965 0.02798 0.74469 0.0
C1709 C 0.21602 0.96814 0.72108 0.0
C1710 C 0.21379 0.99006 0.71801 0.0
C1711 C 0.22249 0.96803 0.72891 0.0
C1712 C 0.24405 0.00876 0.7472 0.0
H1713 H 0.15865 0.97519 0.77783 0.0
H1714 H 0.16962 0.96824 0.76461 0.0
H1715 H 0.25371 0.02454 0.75883 0.0
H1716 H 0.2178 0.02965 0.72048 0.0
H1717 H 0.22931 0.02969 0.73421 0.0
H1718 H 0.19247 0.94453 0.74235 0.0
C1719 C 0.18554 0.97525 0.769 0.0
C1720 C 0.24081 0.00671 0.75529 0.0
C1721 C 0.17924 0.9792 0.77656 0.0
C1722 C 0.22004 0.01283 0.72271 0.0
C1723 C 0.22654 0.01276 0.73057 0.0
C1724 C 0.20656 0.9619 0.74588 0.0
C1725 C 0.21257 0.98238 0.767 0.0
C1726 C 0.21971 0.98259 0.7587 0.0
C1727 C 0.22656 0.98976 0.73382 0.0
C1728 C 0.2265 0.98658 0.7424 0.0
H1729 H 0.24245 0.00367 0.78481 0.0
H1730 H 0.25376 0.99737 0.77143 0.0
H1731 H 0.18672 0.94118 0.75642 0.0
H1732 H 0.21085 0.95018 0.71756 0.0
H1733 H 0.22265 0.95018 0.73123 0.0
C1734 C 0.01761 0.1956 0.73054 0.0
C1735 C 0.00865 0.20476 0.72417 0.0
C1736 C 0.01409 0.20194 0.73811 0.0
C1737 C 0.97279 0.21974 0.75051 0.0
H1738 H 0.03163 0.23529 0.76506 0.0
C1739 C 0.95331 0.18587 0.78211 0.0
C1740 C 0.97328 0.1999 0.78787 0.0
C1741 C 0.95782 0.19511 0.77445 0.0
C1742 C 0.01515 0.23165 0.7611 0.0
H1743 H 0.98809 0.2272 0.72084 0.0
H1744 H 0.98156 0.23809 0.73425 0.0
H1745 H 0.03969 0.2352 0.75119 0.0
H1746 H 0.01293 0.23582 0.7902 0.0
H1747 H 0.02096 0.25215 0.77671 0.0
H1748 H 0.94804 0.21555 0.76046 0.0
C1749 C 0.99157 0.22612 0.73328 0.0
C1750 C 0.01968 0.23124 0.75313 0.0
C1751 C 0.99522 0.21982 0.72561 0.0
C1752 C 0.99722 0.22449 0.78588 0.0
C1753 C 0.00185 0.23373 0.77815 0.0
C1754 C 0.96827 0.22026 0.7585 0.0
C1755 C 0.00147 0.21763 0.73959 0.0
C1756 C 0.99819 0.22399 0.74778 0.0
C1757 C 0.98248 0.21868 0.77231 0.0
C1758 C 0.98903 0.22495 0.7639 0.0
H1759 H 0.02772 0.18365 0.72971 0.0
H1760 H 0.02118 0.19432 0.74284 0.0
H1761 H 0.95587 0.21425 0.74653 0.0
H1762 H 0.93444 0.16703 0.78346 0.0
H1763 H 0.94257 0.18272 0.77014 0.0
C1764 C 0.85579 0.55506 0.55966 0.0
C1765 C 0.86804 0.54683 0.55392 0.0
C1766 C 0.86594 0.56042 0.56723 0.0
C1767 C 0.89991 0.53888 0.58105 0.0
H1768 H 0.90132 0.5964 0.59389 0.0
C1769 C 0.91283 0.53644 0.61386 0.0
C1770 C 0.89477 0.54104 0.61841 0.0
C1771 C 0.91707 0.54405 0.60605 0.0
C1772 C 0.90094 0.58016 0.5904 0.0
H1773 H 0.90124 0.53873 0.55157 0.0
H1774 H 0.91881 0.5476 0.56497 0.0
H1775 H 0.89537 0.59705 0.57984 0.0
H1776 H 0.86793 0.55831 0.61853 0.0
H1777 H 0.87447 0.57086 0.60475 0.0
H1778 H 0.90384 0.521 0.59155 0.0
C1779 C 0.90134 0.54998 0.56353 0.0
C1780 C 0.89768 0.58062 0.58235 0.0
C1781 C 0.89137 0.54499 0.55587 0.0
C1782 C 0.88222 0.55488 0.61514 0.0
C1783 C 0.88602 0.56205 0.60725 0.0
C1784 C 0.90292 0.53827 0.58909 0.0
C1785 C 0.88847 0.55743 0.5693 0.0
C1786 C 0.89651 0.55963 0.57761 0.0
C1787 C 0.90274 0.55577 0.60253 0.0
C1788 C 0.90291 0.55858 0.5939 0.0
H1789 H 0.83794 0.55695 0.55833 0.0
H1790 H 0.85534 0.56577 0.57154 0.0
H1791 H 0.89866 0.52219 0.57758 0.0
H1792 H 0.92282 0.52586 0.61628 0.0
H1793 H 0.93071 0.53963 0.60269 0.0
C1794 C 0.41995 0.2997 0.55331 0.0
C1795 C 0.44262 0.32246 0.54993 0.0
C1796 C 0.41382 0.30004 0.56115 0.0
C1797 C 0.43207 0.34306 0.57905 0.0
H1798 H 0.42579 0.27784 0.58879 0.0
C1799 C 0.43845 0.3327 0.61249 0.0
C1800 C 0.46009 0.32799 0.61437 0.0
C1801 C 0.42854 0.32885 0.60484 0.0
C1802 C 0.42713 0.296 0.58616 0.0
H1803 H 0.4759 0.36392 0.55186 0.0
H1804 H 0.46547 0.3646 0.56567 0.0
H1805 H 0.4226 0.27958 0.57473 0.0
H1806 H 0.48729 0.31422 0.60997 0.0
H1807 H 0.4694 0.3065 0.59675 0.0
H1808 H 0.43806 0.35989 0.59055 0.0
C1809 C 0.45201 0.34665 0.56224 0.0
C1810 C 0.42512 0.29698 0.5781 0.0
C1811 C 0.45801 0.34635 0.55435 0.0
C1812 C 0.47044 0.31776 0.60866 0.0
C1813 C 0.46018 0.31335 0.6011 0.0
C1814 C 0.43385 0.34197 0.58715 0.0
C1815 C 0.43059 0.32302 0.5658 0.0
C1816 C 0.42835 0.3208 0.57442 0.0
C1817 C 0.43973 0.31963 0.59905 0.0
C1818 C 0.43227 0.31874 0.59075 0.0
H1819 H 0.40798 0.28098 0.55 0.0
H1820 H 0.39692 0.2817 0.56368 0.0
H1821 H 0.43446 0.36162 0.57639 0.0
H1822 H 0.43046 0.34099 0.61679 0.0
H1823 H 0.41273 0.3338 0.60339 0.0
C1824 C 0.67124 0.1175 0.55525 0.0
C1825 C 0.68367 0.14547 0.55319 0.0
C1826 C 0.671 0.10984 0.56304 0.0
C1827 C 0.70954 0.13812 0.58124 0.0
H1828 H 0.64247 0.08868 0.59224 0.0
C1829 C 0.69205 0.15109 0.61313 0.0
C1830 C 0.67626 0.12803 0.61781 0.0
C1831 C 0.69659 0.14789 0.60533 0.0
C1832 C 0.66152 0.10202 0.58922 0.0
H1833 H 0.70425 0.18713 0.55781 0.0
H1834 H 0.70383 0.17382 0.57117 0.0
H1835 H 0.64171 0.09231 0.57806 0.0
H1836 H 0.65329 0.08357 0.61815 0.0
H1837 H 0.66106 0.07782 0.60438 0.0
H1838 H 0.72911 0.14891 0.59237 0.0
C1839 C 0.6948 0.15781 0.5668 0.0
C1840 C 0.66104 0.1041 0.58111 0.0
C1841 C 0.69486 0.16539 0.55911 0.0
C1842 C 0.66605 0.10161 0.61467 0.0
C1843 C 0.67022 0.09836 0.60679 0.0
C1844 C 0.71002 0.13604 0.58931 0.0
C1845 C 0.68343 0.13007 0.56885 0.0
C1846 C 0.68481 0.12308 0.57709 0.0
C1847 C 0.68495 0.12152 0.602 0.0
C1848 C 0.68579 0.11884 0.59342 0.0
H1849 H 0.66239 0.10165 0.55084 0.0
H1850 H 0.66185 0.08826 0.5645 0.0
H1851 H 0.7283 0.15255 0.57826 0.0
H1852 H 0.69959 0.17163 0.61541 0.0
H1853 H 0.70767 0.16616 0.60179 0.0
C1854 C 0.46139 0.11559 0.05649 0.0
C1855 C 0.45095 0.1315 0.05332 0.0
C1856 C 0.45675 0.10784 0.06435 0.0
C1857 C 0.44055 0.13147 0.08271 0.0
H1858 H 0.44012 0.06758 0.09138 0.0
C1859 C 0.44323 0.11772 0.11583 0.0
C1860 C 0.46511 0.11387 0.11808 0.0
C1861 C 0.43469 0.11407 0.10804 0.0
C1862 C 0.44003 0.08543 0.08903 0.0
H1863 H 0.42567 0.14986 0.05555 0.0
H1864 H 0.41631 0.1352 0.06904 0.0
H1865 H 0.4376 0.07161 0.0773 0.0
H1866 H 0.49377 0.1012 0.11411 0.0
H1867 H 0.47875 0.09457 0.10065 0.0
H1868 H 0.44347 0.1455 0.09442 0.0
C1869 C 0.42909 0.12965 0.06567 0.0
C1870 C 0.43878 0.08784 0.08096 0.0
C1871 C 0.43422 0.13784 0.05792 0.0
C1872 C 0.47701 0.10457 0.11253 0.0
C1873 C 0.46824 0.10053 0.10482 0.0
C1874 C 0.44151 0.12891 0.09076 0.0
C1875 C 0.4412 0.11554 0.0691 0.0
C1876 C 0.43961 0.1112 0.07768 0.0
C1877 C 0.44756 0.106 0.10243 0.0
C1878 C 0.4419 0.10619 0.09401 0.0
H1879 H 0.4745 0.11063 0.05306 0.0
H1880 H 0.46658 0.09714 0.06677 0.0
H1881 H 0.44183 0.15006 0.08045 0.0
H1882 H 0.43372 0.12491 0.11998 0.0
H1883 H 0.41857 0.11829 0.10636 0.0
C1884 C 0.88147 0.32791 0.05438 0.0
C1885 C 0.8545 0.32045 0.05217 0.0
C1886 C 0.8894 0.33309 0.06222 0.0
C1887 C 0.87292 0.35587 0.08019 0.0
H1888 H 0.90015 0.31454 0.09149 0.0
C1889 C 0.89555 0.37567 0.11232 0.0
C1890 C 0.88242 0.35227 0.11708 0.0
C1891 C 0.89879 0.37315 0.1044 0.0
C1892 C 0.89268 0.32629 0.08839 0.0
H1893 H 0.81498 0.31324 0.05639 0.0
H1894 H 0.82898 0.32289 0.06991 0.0
H1895 H 0.89299 0.30841 0.07735 0.0
H1896 H 0.86421 0.308 0.11742 0.0
H1897 H 0.86932 0.30339 0.1034 0.0
H1898 H 0.87166 0.37319 0.0911 0.0
C1899 C 0.84389 0.32443 0.06564 0.0
C1900 C 0.88884 0.32297 0.08032 0.0
C1901 C 0.83588 0.31883 0.05789 0.0
C1902 C 0.87442 0.32634 0.11387 0.0
C1903 C 0.8774 0.32375 0.10586 0.0
C1904 C 0.87699 0.35939 0.08818 0.0
C1905 C 0.87063 0.33149 0.0679 0.0
C1906 C 0.87839 0.33737 0.07619 0.0
C1907 C 0.8886 0.3471 0.10101 0.0
C1908 C 0.88656 0.3444 0.09241 0.0
H1909 H 0.89618 0.32915 0.0501 0.0
H1910 H 0.91018 0.33861 0.06384 0.0
H1911 H 0.86486 0.36721 0.07714 0.0
H1912 H 0.90232 0.39597 0.11468 0.0
H1913 H 0.9081 0.39156 0.10086 0.0
C1914 C 0.68534 0.55196 0.11123 0.0
C1915 C 0.65905 0.53908 0.11457 0.0
C1916 C 0.68875 0.55958 0.10337 0.0
C1917 C 0.64754 0.53883 0.08528 0.0
H1918 H 0.7143 0.59746 0.07615 0.0
C1919 C 0.66358 0.54885 0.05201 0.0
C1920 C 0.68838 0.5505 0.04971 0.0
C1921 C 0.65941 0.55319 0.0598 0.0
C1922 C 0.69546 0.58106 0.07863 0.0
H1923 H 0.61613 0.52584 0.11262 0.0
H1924 H 0.62214 0.5403 0.09908 0.0
H1925 H 0.70846 0.59527 0.09026 0.0
H1926 H 0.72884 0.55971 0.05366 0.0
H1927 H 0.72162 0.56734 0.06712 0.0
H1928 H 0.63483 0.52427 0.07369 0.0
C1929 C 0.64004 0.54371 0.10236 0.0
C1930 C 0.69217 0.57973 0.08671 0.0
C1931 C 0.63661 0.5357 0.11014 0.0
C1932 C 0.70936 0.55799 0.05525 0.0
C1933 C 0.70535 0.56266 0.06297 0.0
C1934 C 0.65076 0.54029 0.07722 0.0
C1935 C 0.66592 0.55466 0.09877 0.0
C1936 C 0.66841 0.55823 0.09016 0.0
C1937 C 0.68015 0.55974 0.06538 0.0
C1938 C 0.67502 0.56101 0.07381 0.0
H1939 H 0.70285 0.55443 0.11454 0.0
H1940 H 0.70896 0.56776 0.10081 0.0
H1941 H 0.62917 0.52164 0.08769 0.0
H1942 H 0.64708 0.54314 0.04786 0.0
H1943 H 0.6398 0.55093 0.0615 0.0
C1944 C 0.53905 0.84329 0.94393 0.0
C1945 C 0.53926 0.86024 0.94999 0.0
C1946 C 0.54416 0.85261 0.9363 0.0
C1947 C 0.53828 0.90007 0.92315 0.0
H1948 H 0.57358 0.87328 0.90903 0.0
C1949 C 0.50475 0.87407 0.89163 0.0
C1950 C 0.52368 0.87777 0.88573 0.0
C1951 C 0.51292 0.87932 0.89937 0.0
C1952 C 0.56415 0.88148 0.91287 0.0
H1953 H 0.5456 0.90071 0.95272 0.0
H1954 H 0.55431 0.91707 0.9392 0.0
H1955 H 0.5782 0.87013 0.92301 0.0
H1956 H 0.56633 0.89032 0.88342 0.0
H1957 H 0.58069 0.89945 0.89707 0.0
H1958 H 0.5238 0.91096 0.91301 0.0
C1959 C 0.55016 0.89644 0.94046 0.0
C1960 C 0.56655 0.87941 0.92089 0.0
C1961 C 0.54519 0.8871 0.9482 0.0
C1962 C 0.5512 0.88714 0.88781 0.0
C1963 C 0.55941 0.89238 0.89563 0.0
C1964 C 0.536 0.90227 0.91512 0.0
C1965 C 0.54965 0.8792 0.93443 0.0
C1966 C 0.55256 0.88747 0.92611 0.0
C1967 C 0.54029 0.88849 0.9015 0.0
C1968 C 0.54783 0.89182 0.90989 0.0
H1969 H 0.53473 0.82252 0.94505 0.0
H1970 H 0.54296 0.83852 0.93181 0.0
H1971 H 0.52731 0.90654 0.92699 0.0
H1972 H 0.48335 0.86685 0.8903 0.0
H1973 H 0.49744 0.8754 0.90373 0.0
C1974 C 0.12144 0.66481 0.94853 0.0
C1975 C 0.13809 0.69035 0.95212 0.0
C1976 C 0.11663 0.66344 0.94049 0.0
C1977 C 0.15285 0.70361 0.92328 0.0
H1978 H 0.08846 0.65039 0.91189 0.0
C1979 C 0.15894 0.66813 0.89267 0.0
C1980 C 0.14006 0.66642 0.88703 0.0
C1981 C 0.15622 0.67378 0.90039 0.0
C1982 C 0.10643 0.66562 0.91501 0.0
H1983 H 0.16039 0.73447 0.95036 0.0
H1984 H 0.15135 0.73217 0.93649 0.0
H1985 H 0.08585 0.65427 0.92606 0.0
H1986 H 0.10364 0.66959 0.88504 0.0
H1987 H 0.09858 0.67915 0.89873 0.0
H1988 H 0.17367 0.71445 0.91234 0.0
C1989 C 0.14274 0.71315 0.93975 0.0
C1990 C 0.10502 0.66765 0.9231 0.0
C1991 C 0.14782 0.71448 0.9477 0.0
C1992 C 0.1186 0.67102 0.88926 0.0
C1993 C 0.11557 0.67623 0.89708 0.0
C1994 C 0.15428 0.70145 0.91525 0.0
C1995 C 0.12824 0.68763 0.93597 0.0
C1996 C 0.12836 0.68648 0.92734 0.0
C1997 C 0.13434 0.67752 0.90271 0.0
C1998 C 0.13129 0.68212 0.91104 0.0
H1999 H 0.1138 0.64593 0.95182 0.0
H2000 H 0.1054 0.64344 0.93774 0.0
H2001 H 0.17136 0.71805 0.92635 0.0
H2002 H 0.1757 0.66471 0.89112 0.0
H2003 H 0.17086 0.67444 0.90461 0.0
C2004 C 0.37185 0.4929 0.89164 0.0
C2005 C 0.35535 0.47515 0.88568 0.0
C2006 C 0.36819 0.48412 0.89933 0.0
C2007 C 0.31544 0.43491 0.91251 0.0
H2008 H 0.37646 0.46663 0.92704 0.0
C2009 C 0.30231 0.45968 0.94366 0.0
C2010 C 0.3178 0.45757 0.94977 0.0
C2011 C 0.3066 0.45474 0.93601 0.0
C2012 C 0.35918 0.45708 0.92308 0.0
H2013 H 0.3225 0.43376 0.88317 0.0
H2014 H 0.31604 0.41828 0.89673 0.0
H2015 H 0.38552 0.47017 0.91312 0.0
H2016 H 0.3498 0.44808 0.95257 0.0
H2017 H 0.35751 0.43956 0.93905 0.0
H2018 H 0.28911 0.42218 0.92247 0.0
C2019 C 0.33175 0.43917 0.89538 0.0
C2020 C 0.36436 0.4594 0.91508 0.0
C2021 C 0.33547 0.44801 0.88762 0.0
C2022 C 0.33756 0.44995 0.94801 0.0
C2023 C 0.34199 0.44511 0.94027 0.0
C2024 C 0.31027 0.43246 0.9205 0.0
C2025 C 0.34794 0.45726 0.90134 0.0
C2026 C 0.34255 0.44945 0.9097 0.0
C2027 C 0.32652 0.44751 0.93418 0.0
C2028 C 0.33207 0.44463 0.92587 0.0
H2029 H 0.38747 0.51394 0.8904 0.0
H2030 H 0.38066 0.49885 0.90375 0.0
H2031 H 0.29812 0.42697 0.90856 0.0
H2032 H 0.28683 0.4654 0.94475 0.0
H2033 H 0.29474 0.45744 0.93148 0.0
C2034 C 0.11059 0.4489 0.44825 0.0
C2035 C 0.1383 0.45822 0.45009 0.0
C2036 C 0.10162 0.44359 0.44049 0.0
C2037 C 0.12296 0.43247 0.42086 0.0
H2038 H 0.0815 0.46563 0.41312 0.0
C2039 C 0.11338 0.4468 0.38785 0.0
C2040 C 0.11923 0.47354 0.38593 0.0
C2041 C 0.10835 0.43779 0.3956 0.0
C2042 C 0.09297 0.45609 0.41519 0.0
H2043 H 0.17813 0.46896 0.44516 0.0
H2044 H 0.16272 0.46017 0.43187 0.0
H2045 H 0.08688 0.46288 0.42709 0.0
H2046 H 0.12351 0.51139 0.39068 0.0
H2047 H 0.11533 0.49602 0.40399 0.0
H2048 H 0.13079 0.42752 0.40897 0.0
C2049 C 0.1477 0.45641 0.43635 0.0
C2050 C 0.09578 0.45424 0.42321 0.0
C2051 C 0.15662 0.46181 0.44402 0.0
C2052 C 0.11923 0.49069 0.39189 0.0
C2053 C 0.11414 0.48172 0.39957 0.0
C2054 C 0.12029 0.43446 0.41284 0.0
C2055 C 0.12014 0.44724 0.43445 0.0
C2056 C 0.11186 0.44354 0.42613 0.0
C2057 C 0.10884 0.45527 0.40156 0.0
C2058 C 0.10631 0.44743 0.40991 0.0
H2059 H 0.09593 0.44585 0.45277 0.0
H2060 H 0.08023 0.43657 0.43921 0.0
H2061 H 0.13496 0.42351 0.42293 0.0
H2062 H 0.1131 0.43302 0.38339 0.0
H2063 H 0.10427 0.41724 0.39695 0.0
C2064 C 0.55027 0.66852 0.38562 0.0
C2065 C 0.53776 0.64372 0.38146 0.0
C2066 C 0.55594 0.66859 0.39356 0.0
C2067 C 0.52626 0.62063 0.40985 0.0
H2068 H 0.58171 0.68116 0.42199 0.0
C2069 C 0.50649 0.64795 0.44016 0.0
C2070 C 0.5269 0.6564 0.4459 0.0
C2071 C 0.51143 0.64227 0.43264 0.0
C2072 C 0.56638 0.66386 0.41868 0.0
H2073 H 0.52359 0.60015 0.38202 0.0
H2074 H 0.53452 0.60039 0.39574 0.0
H2075 H 0.58698 0.68078 0.40786 0.0
H2076 H 0.56822 0.66479 0.44837 0.0
H2077 H 0.57715 0.65525 0.43505 0.0
H2078 H 0.50516 0.60423 0.42059 0.0
C2079 C 0.53927 0.61965 0.393 0.0
C2080 C 0.56924 0.66378 0.41059 0.0
C2081 C 0.53327 0.61953 0.38513 0.0
C2082 C 0.55205 0.65798 0.44406 0.0
C2083 C 0.55723 0.65281 0.43644 0.0
C2084 C 0.52336 0.6208 0.4179 0.0
C2085 C 0.54929 0.64387 0.39741 0.0
C2086 C 0.54886 0.64246 0.40606 0.0
C2087 C 0.53708 0.64536 0.43064 0.0
C2088 C 0.54296 0.64276 0.42237 0.0
H2089 H 0.55353 0.68733 0.3829 0.0
H2090 H 0.56351 0.6876 0.39678 0.0
H2091 H 0.50992 0.60404 0.40657 0.0
H2092 H 0.48699 0.6467 0.44143 0.0
H2093 H 0.4956 0.63683 0.42829 0.0
C2094 C 0.33524 0.88895 0.44915 0.0
C2095 C 0.31012 0.8771 0.45314 0.0
C2096 C 0.3362 0.89497 0.4412 0.0
C2097 C 0.28955 0.86639 0.42467 0.0
H2098 H 0.35096 0.9217 0.41276 0.0
C2099 C 0.31826 0.84708 0.39446 0.0
C2100 C 0.32591 0.86726 0.38869 0.0
C2101 C 0.31275 0.85198 0.402 0.0
C2102 C 0.33344 0.90641 0.41601 0.0
H2103 H 0.26695 0.86447 0.45229 0.0
H2104 H 0.26873 0.87588 0.43856 0.0
H2105 H 0.34989 0.92677 0.4269 0.0
H2106 H 0.33326 0.9082 0.3862 0.0
H2107 H 0.32411 0.91712 0.39957 0.0
H2108 H 0.27368 0.84543 0.41388 0.0
C2109 C 0.28756 0.87995 0.44143 0.0
C2110 C 0.33295 0.90917 0.4241 0.0
C2111 C 0.28657 0.87367 0.4493 0.0
C2112 C 0.32705 0.8922 0.39054 0.0
C2113 C 0.3221 0.89738 0.39817 0.0
C2114 C 0.29016 0.86354 0.41664 0.0
C2115 C 0.31202 0.88926 0.43718 0.0
C2116 C 0.31125 0.88887 0.42854 0.0
C2117 C 0.31526 0.8774 0.40399 0.0
C2118 C 0.31241 0.88313 0.41225 0.0
H2119 H 0.35355 0.89136 0.45198 0.0
H2120 H 0.35535 0.90199 0.4381 0.0
H2121 H 0.27269 0.85012 0.42789 0.0
H2122 H 0.31737 0.82774 0.39319 0.0
H2123 H 0.30777 0.8363 0.40638 0.0
C2124 C 0.26867 0.18664 0.186 0.0
C2125 C 0.25465 0.1948 0.18084 0.0
C2126 C 0.288 0.1799 0.18321 0.0
C2127 C 0.33229 0.18839 0.16625 0.0
H2128 H 0.33155 0.12395 0.17464 0.0
C2129 C 0.39671 0.14443 0.15271 0.0
C2130 C 0.41019 0.13578 0.1579 0.0
C2131 C 0.37731 0.1512 0.15542 0.0
C2132 C 0.33224 0.14217 0.17228 0.0
H2133 H 0.25038 0.20273 0.16873 0.0
H2134 H 0.28392 0.19091 0.1639 0.0
H2135 H 0.2995 0.13753 0.17967 0.0
H2136 H 0.41355 0.12716 0.17002 0.0
H2137 H 0.38005 0.13914 0.17473 0.0
H2138 H 0.36508 0.19308 0.15887 0.0
C2139 C 0.28016 0.18991 0.17009 0.0
C2140 C 0.31388 0.14999 0.17518 0.0
C2141 C 0.26081 0.19657 0.17287 0.0
C2142 C 0.40352 0.13366 0.16584 0.0
C2143 C 0.38416 0.14041 0.16855 0.0
C2144 C 0.35069 0.1806 0.16335 0.0
C2145 C 0.29383 0.18126 0.17522 0.0
C2146 C 0.31368 0.17321 0.1722 0.0
C2147 C 0.37093 0.14944 0.16338 0.0
C2148 C 0.35092 0.1574 0.16634 0.0
H2149 H 0.26445 0.18508 0.19218 0.0
H2150 H 0.29843 0.17367 0.18733 0.0
H2151 H 0.33294 0.20659 0.16389 0.0
H2152 H 0.40133 0.14626 0.14655 0.0
H2153 H 0.36723 0.15773 0.15126 0.0
C2154 C 0.81303 0.07904 0.18381 0.0
C2155 C 0.80215 0.05624 0.17879 0.0
C2156 C 0.81969 0.10508 0.18103 0.0
C2157 C 0.80662 0.1404 0.16482 0.0
H2158 H 0.8753 0.2033 0.17148 0.0
C2159 C 0.84896 0.24816 0.15099 0.0
C2160 C 0.86038 0.27075 0.1561 0.0
C2161 C 0.84221 0.22192 0.15363 0.0
C2162 C 0.85591 0.18601 0.16962 0.0
H2163 H 0.7893 0.04289 0.16692 0.0
H2164 H 0.80099 0.08823 0.16209 0.0
H2165 H 0.86202 0.15772 0.17648 0.0
H2166 H 0.87391 0.28347 0.16796 0.0
H2167 H 0.86194 0.23786 0.17254 0.0
H2168 H 0.80046 0.16872 0.15797 0.0
C2169 C 0.80419 0.08598 0.16819 0.0
C2170 C 0.84828 0.15987 0.1725 0.0
C2171 C 0.79761 0.05999 0.17096 0.0
C2172 C 0.86522 0.26657 0.16386 0.0
C2173 C 0.85849 0.24039 0.16649 0.0
C2174 C 0.81423 0.16657 0.16195 0.0
C2175 C 0.81555 0.1089 0.17317 0.0
C2176 C 0.82351 0.13674 0.17014 0.0
C2177 C 0.84675 0.21769 0.16142 0.0
C2178 C 0.83895 0.18972 0.16432 0.0
H2179 H 0.81676 0.07689 0.18988 0.0
H2180 H 0.82805 0.12222 0.18505 0.0
H2181 H 0.78724 0.12308 0.16296 0.0
H2182 H 0.84499 0.25067 0.14498 0.0
H2183 H 0.83353 0.20496 0.14955 0.0
C2184 C 0.91769 0.73021 0.18386 0.0
C2185 C 0.93965 0.74337 0.17859 0.0
C2186 C 0.89145 0.7106 0.18125 0.0
C2187 C 0.85522 0.66456 0.16456 0.0
H2188 H 0.79127 0.66486 0.17296 0.0
C2189 C 0.74774 0.60165 0.15064 0.0
C2190 C 0.72543 0.5871 0.15572 0.0
C2191 C 0.77365 0.62087 0.15353 0.0
C2192 C 0.8089 0.66435 0.17061 0.0
H2193 H 0.95121 0.74606 0.16645 0.0
H2194 H 0.90561 0.71228 0.16192 0.0
H2195 H 0.83693 0.69737 0.17793 0.0
H2196 H 0.71277 0.58178 0.16781 0.0
H2197 H 0.75793 0.61527 0.17283 0.0
H2198 H 0.82722 0.6317 0.1572 0.0
C2199 C 0.90865 0.71673 0.16808 0.0
C2200 C 0.83508 0.68293 0.17347 0.0
C2201 C 0.93483 0.73626 0.17068 0.0
C2202 C 0.72949 0.59263 0.16373 0.0
C2203 C 0.75537 0.61193 0.16661 0.0
C2204 C 0.82908 0.64606 0.16168 0.0
C2205 C 0.88658 0.70371 0.17332 0.0
C2206 C 0.85859 0.68335 0.17046 0.0
C2207 C 0.77783 0.62607 0.16155 0.0
C2208 C 0.80561 0.64579 0.16465 0.0
H2209 H 0.92071 0.73518 0.18999 0.0
H2210 H 0.875 0.70072 0.18546 0.0
H2211 H 0.87279 0.66395 0.16221 0.0
H2212 H 0.74534 0.59793 0.14444 0.0
H2213 H 0.79044 0.6317 0.14947 0.0
C2214 C 0.1395 0.39701 0.35065 0.0
C2215 C 0.15499 0.42373 0.34761 0.0
C2216 C 0.14293 0.37558 0.34777 0.0
C2217 C 0.19162 0.36188 0.33674 0.0
H2218 H 0.12722 0.29055 0.33307 0.0
C2219 C 0.19764 0.27477 0.3204 0.0
C2220 C 0.18201 0.24811 0.32346 0.0
C2221 C 0.19423 0.2963 0.32321 0.0
C2222 C 0.14545 0.31026 0.33413 0.0
H2223 H 0.18648 0.44889 0.33921 0.0
H2224 H 0.19226 0.41163 0.33418 0.0
H2225 H 0.12177 0.32767 0.33849 0.0
H2226 H 0.15034 0.22316 0.33185 0.0
H2227 H 0.14463 0.26057 0.33677 0.0
H2228 H 0.21531 0.34445 0.33239 0.0
C2229 C 0.17766 0.40721 0.33883 0.0
C2230 C 0.14232 0.33154 0.33725 0.0
C2231 C 0.1742 0.42858 0.3417 0.0
C2232 C 0.16272 0.24342 0.32934 0.0
C2233 C 0.1593 0.26487 0.33213 0.0
C2234 C 0.19475 0.34059 0.33362 0.0
C2235 C 0.162 0.38042 0.3418 0.0
C2236 C 0.16536 0.35762 0.3386 0.0
C2237 C 0.17507 0.29162 0.32914 0.0
C2238 C 0.17171 0.3145 0.33228 0.0
H2239 H 0.12458 0.39259 0.35522 0.0
H2240 H 0.13078 0.35525 0.35025 0.0
H2241 H 0.20985 0.38159 0.3378 0.0
H2242 H 0.21263 0.27907 0.31586 0.0
H2243 H 0.20648 0.31659 0.32071 0.0
C2244 C 0.60638 0.7439 0.34704 0.0
C2245 C 0.57959 0.73367 0.34415 0.0
C2246 C 0.62803 0.76898 0.34436 0.0
C2247 C 0.64227 0.83339 0.33437 0.0
H2248 H 0.71351 0.8406 0.33033 0.0
C2249 C 0.72986 0.92822 0.31875 0.0
C2250 C 0.75649 0.93877 0.3218 0.0
C2251 C 0.70818 0.90313 0.32141 0.0
C2252 C 0.69381 0.83901 0.3315 0.0
H2253 H 0.5546 0.74183 0.33616 0.0
H2254 H 0.59226 0.78517 0.33144 0.0
H2255 H 0.67612 0.79719 0.33524 0.0
H2256 H 0.78119 0.93112 0.33003 0.0
H2257 H 0.74349 0.88765 0.33469 0.0
H2258 H 0.65997 0.8752 0.33061 0.0
C2259 C 0.59655 0.7741 0.33586 0.0
C2260 C 0.67238 0.81413 0.33433 0.0
C2261 C 0.57495 0.7491 0.33854 0.0
C2262 C 0.76095 0.92362 0.32754 0.0
C2263 C 0.73935 0.89857 0.33019 0.0
C2264 C 0.66369 0.85825 0.33153 0.0
C2265 C 0.62337 0.78438 0.33873 0.0
C2266 C 0.64633 0.81099 0.33581 0.0
C2267 C 0.71269 0.888 0.32717 0.0
C2268 C 0.68974 0.86139 0.33006 0.0
H2269 H 0.61063 0.73258 0.35139 0.0
H2270 H 0.64838 0.77645 0.34676 0.0
H2271 H 0.6226 0.83185 0.33555 0.0
H2272 H 0.72574 0.93934 0.3143 0.0
H2273 H 0.68794 0.89542 0.31891 0.0
C2274 C 0.07814 0.83604 0.32981 0.0
C2275 C 0.06653 0.82034 0.32305 0.0
C2276 C 0.10296 0.83979 0.33277 0.0
C2277 C 0.1491 0.81053 0.33236 0.0
H2278 H 0.20328 0.88247 0.34009 0.0
C2279 C 0.25897 0.83633 0.34082 0.0
C2280 C 0.27041 0.85201 0.34758 0.0
C2281 C 0.2343 0.83273 0.33778 0.0
C2282 C 0.18826 0.86218 0.33804 0.0
H2283 H 0.07193 0.79615 0.31413 0.0
H2284 H 0.11539 0.80283 0.31928 0.0
H2285 H 0.15984 0.87542 0.33488 0.0
H2286 H 0.26491 0.87636 0.35643 0.0
H2287 H 0.22172 0.86992 0.35115 0.0
H2288 H 0.1775 0.79728 0.33553 0.0
C2289 C 0.10511 0.81202 0.32233 0.0
C2290 C 0.16334 0.85813 0.33505 0.0
C2291 C 0.08026 0.80829 0.31936 0.0
C2292 C 0.25671 0.86423 0.3512 0.0
C2293 C 0.23201 0.86064 0.34815 0.0
C2294 C 0.17402 0.81458 0.33536 0.0
C2295 C 0.11683 0.82792 0.32905 0.0
C2296 C 0.14344 0.83225 0.33218 0.0
C2297 C 0.22043 0.84472 0.34142 0.0
C2298 C 0.19391 0.84045 0.33823 0.0
H2299 H 0.06811 0.84559 0.33282 0.0
H2300 H 0.11117 0.85181 0.33802 0.0
H2301 H 0.13407 0.79024 0.33031 0.0
H2302 H 0.26899 0.82666 0.33787 0.0
H2303 H 0.2262 0.8207 0.33252 0.0
C2304 C 0.7311 0.7939 0.83112 0.0
C2305 C 0.74183 0.80104 0.82355 0.0
C2306 C 0.71244 0.80147 0.83391 0.0
C2307 C 0.68938 0.8518 0.83071 0.0
H2308 H 0.62738 0.80187 0.84347 0.0
C2309 C 0.60291 0.87396 0.83939 0.0
C2310 C 0.59175 0.86657 0.84691 0.0
C2311 C 0.62176 0.86653 0.83668 0.0
C2312 C 0.6448 0.8162 0.84 0.0
H2313 H 0.74089 0.82133 0.81293 0.0
H2314 H 0.70808 0.83432 0.81778 0.0
H2315 H 0.65826 0.78701 0.83827 0.0
H2316 H 0.59215 0.84602 0.85753 0.0
H2317 H 0.62535 0.8333 0.85283 0.0
H2318 H 0.67594 0.881 0.83244 0.0
C2319 C 0.71441 0.82316 0.82159 0.0
C2320 C 0.66248 0.80766 0.837 0.0
C2321 C 0.73306 0.81552 0.81879 0.0
C2322 C 0.60031 0.85201 0.85171 0.0
C2323 C 0.61918 0.84454 0.84899 0.0
C2324 C 0.67172 0.86035 0.83371 0.0
C2325 C 0.70404 0.81641 0.82921 0.0
C2326 C 0.68498 0.82534 0.83231 0.0
C2327 C 0.62996 0.8515 0.84142 0.0
C2328 C 0.64918 0.84265 0.83838 0.0
H2329 H 0.73743 0.78279 0.83496 0.0
H2330 H 0.70511 0.79619 0.83983 0.0
H2331 H 0.70678 0.86612 0.82723 0.0
H2332 H 0.59674 0.88512 0.83552 0.0
H2333 H 0.62937 0.87197 0.83079 0.0
C2334 C 0.16964 0.74621 0.8408 0.0
C2335 C 0.15359 0.73355 0.84743 0.0
C2336 C 0.1735 0.77143 0.83817 0.0
C2337 C 0.14365 0.81686 0.83908 0.0
H2338 H 0.21559 0.87212 0.83163 0.0
C2339 C 0.16771 0.92619 0.83049 0.0
C2340 C 0.18352 0.93768 0.82375 0.0
C2341 C 0.16458 0.90184 0.83364 0.0
C2342 C 0.1953 0.85681 0.83361 0.0
H2343 H 0.12899 0.73756 0.8565 0.0
H2344 H 0.13583 0.78177 0.85191 0.0
H2345 H 0.20896 0.82865 0.83668 0.0
H2346 H 0.20864 0.93261 0.81506 0.0
H2347 H 0.203 0.88999 0.82051 0.0
H2348 H 0.12994 0.84495 0.83596 0.0
C2349 C 0.14523 0.77198 0.84871 0.0
C2350 C 0.1915 0.83189 0.83652 0.0
C2351 C 0.14141 0.74671 0.85136 0.0
C2352 C 0.1964 0.92439 0.82027 0.0
C2353 C 0.19326 0.90001 0.82342 0.0
C2354 C 0.14744 0.84179 0.83617 0.0
C2355 C 0.1614 0.78468 0.8421 0.0
C2356 C 0.16559 0.81154 0.83924 0.0
C2357 C 0.17719 0.88834 0.83012 0.0
C2358 C 0.17329 0.86203 0.83336 0.0
H2359 H 0.17931 0.73666 0.83762 0.0
H2360 H 0.18572 0.7804 0.83299 0.0
H2361 H 0.12334 0.8015 0.84103 0.0
H2362 H 0.15755 0.93591 0.83333 0.0
H2363 H 0.15239 0.89366 0.83886 0.0
C2364 C 0.24916 0.42677 0.84305 0.0
C2365 C 0.26496 0.42231 0.84858 0.0
C2366 C 0.22412 0.40506 0.84044 0.0
C2367 C 0.18523 0.32945 0.83866 0.0
H2368 H 0.12327 0.34061 0.83513 0.0
C2369 C 0.07689 0.23997 0.83117 0.0
C2370 C 0.06141 0.24469 0.82559 0.0
C2371 C 0.10168 0.26161 0.83396 0.0
C2372 C 0.14047 0.33724 0.83599 0.0
H2373 H 0.26656 0.39146 0.85578 0.0
H2374 H 0.22261 0.35346 0.85125 0.0
H2375 H 0.16614 0.37812 0.84028 0.0
H2376 H 0.06006 0.27593 0.81851 0.0
H2377 H 0.10356 0.31376 0.82333 0.0
H2378 H 0.15958 0.28859 0.83436 0.0
C2379 C 0.22983 0.37379 0.84887 0.0
C2380 C 0.16505 0.35874 0.83896 0.0
C2381 C 0.25494 0.39559 0.8515 0.0
C2382 C 0.07143 0.2716 0.82283 0.0
C2383 C 0.09628 0.2933 0.82562 0.0
C2384 C 0.16066 0.30795 0.83569 0.0
C2385 C 0.21417 0.37827 0.84328 0.0
C2386 C 0.18776 0.35513 0.84032 0.0
C2387 C 0.11168 0.28856 0.83124 0.0
C2388 C 0.13796 0.31158 0.83431 0.0
H2389 H 0.25623 0.44707 0.84066 0.0
H2390 H 0.21281 0.40921 0.83606 0.0
H2391 H 0.20244 0.32609 0.83951 0.0
H2392 H 0.0698 0.21952 0.83345 0.0
H2393 H 0.11278 0.25725 0.83835 0.0
C2394 C 0.86692 0.60673 0.65378 0.0
C2395 C 0.85284 0.58042 0.65716 0.0
C2396 C 0.86278 0.62789 0.65652 0.0
C2397 C 0.83779 0.64894 0.67366 0.0
H2398 H 0.83113 0.69788 0.65907 0.0
C2399 C 0.80426 0.72668 0.68324 0.0
C2400 C 0.81822 0.753 0.67987 0.0
C2401 C 0.80831 0.70554 0.68044 0.0
C2402 C 0.83323 0.68458 0.66323 0.0
H2403 H 0.82327 0.55573 0.66604 0.0
H2404 H 0.81599 0.59246 0.67075 0.0
H2405 H 0.83898 0.66153 0.65425 0.0
H2406 H 0.84743 0.77771 0.67092 0.0
H2407 H 0.85462 0.74101 0.66611 0.0
H2408 H 0.83208 0.67199 0.68265 0.0
C2409 C 0.83048 0.59689 0.66606 0.0
C2410 C 0.83776 0.66375 0.66046 0.0
C2411 C 0.83456 0.57577 0.66332 0.0
C2412 C 0.83624 0.75766 0.67363 0.0
C2413 C 0.84026 0.73655 0.67084 0.0
C2414 C 0.83328 0.66978 0.67644 0.0
C2415 C 0.84454 0.62323 0.6627 0.0
C2416 C 0.84006 0.64564 0.66564 0.0
C2417 C 0.82639 0.71023 0.67421 0.0
C2418 C 0.83093 0.68787 0.67126 0.0
H2419 H 0.88116 0.61102 0.64903 0.0
H2420 H 0.87415 0.648 0.65385 0.0
H2421 H 0.83988 0.63563 0.67782 0.0
H2422 H 0.7902 0.72237 0.68804 0.0
H2423 H 0.79705 0.68543 0.68312 0.0
C2424 C 0.42817 0.25683 0.66133 0.0
C2425 C 0.42345 0.27019 0.65511 0.0
C2426 C 0.40687 0.23212 0.66428 0.0
C2427 C 0.33894 0.17326 0.65904 0.0
H2428 H 0.33234 0.15939 0.68123 0.0
C2429 C 0.24466 0.07956 0.67265 0.0
C2430 C 0.24939 0.06562 0.6787 0.0
C2431 C 0.26601 0.10442 0.6698 0.0
C2432 C 0.33409 0.16281 0.67501 0.0
H2433 H 0.39247 0.26815 0.64718 0.0
H2434 H 0.35519 0.22518 0.65239 0.0
H2435 H 0.36897 0.2032 0.67627 0.0
H2436 H 0.28036 0.06692 0.6865 0.0
H2437 H 0.31772 0.1103 0.68148 0.0
H2438 H 0.30402 0.1329 0.65778 0.0
C2439 C 0.3755 0.23363 0.65492 0.0
C2440 C 0.35508 0.18794 0.67217 0.0
C2441 C 0.39684 0.25837 0.65196 0.0
C2442 C 0.27601 0.07713 0.68183 0.0
C2443 C 0.29739 0.10207 0.67899 0.0
C2444 C 0.31793 0.14815 0.66189 0.0
C2445 C 0.38028 0.22013 0.66109 0.0
C2446 C 0.35777 0.19349 0.66414 0.0
C2447 C 0.29263 0.11602 0.67293 0.0
C2448 C 0.31523 0.14262 0.66991 0.0
H2449 H 0.44845 0.26528 0.66388 0.0
H2450 H 0.41139 0.22212 0.66897 0.0
H2451 H 0.34068 0.17663 0.65282 0.0
H2452 H 0.22439 0.07137 0.67012 0.0
H2453 H 0.26153 0.11479 0.6652 0.0
C2454 C 0.74542 0.16664 0.6655 0.0
C2455 C 0.73402 0.15019 0.65886 0.0
C2456 C 0.77014 0.1707 0.66865 0.0
C2457 C 0.83249 0.16764 0.66355 0.0
H2458 H 0.84152 0.1671 0.68588 0.0
C2459 C 0.9256 0.16674 0.67729 0.0
C2460 C 0.93763 0.18297 0.68394 0.0
C2461 C 0.90089 0.16321 0.67432 0.0
C2462 C 0.83946 0.16766 0.67964 0.0
H2463 H 0.73964 0.12493 0.65034 0.0
H2464 H 0.78268 0.13184 0.65586 0.0
H2465 H 0.79803 0.15959 0.68054 0.0
H2466 H 0.933 0.2082 0.69268 0.0
H2467 H 0.88986 0.20221 0.68744 0.0
H2468 H 0.87387 0.17569 0.66263 0.0
C2469 C 0.77264 0.14187 0.65859 0.0
C2470 C 0.81451 0.16332 0.67657 0.0
C2471 C 0.74786 0.13777 0.65546 0.0
C2472 C 0.92428 0.19555 0.68756 0.0
C2473 C 0.89948 0.19199 0.68458 0.0
C2474 C 0.85742 0.17199 0.66661 0.0
C2475 C 0.78412 0.15845 0.66521 0.0
C2476 C 0.81068 0.16316 0.66849 0.0
C2477 C 0.88752 0.17582 0.67791 0.0
C2478 C 0.86119 0.17193 0.67469 0.0
H2479 H 0.73536 0.1766 0.66827 0.0
H2480 H 0.77856 0.18385 0.67369 0.0
H2481 H 0.83043 0.16815 0.6573 0.0
H2482 H 0.9352 0.1566 0.67438 0.0
H2483 H 0.89206 0.15025 0.66926 0.0
C2484 C 0.06458 0.47834 0.48621 0.0
C2485 C 0.07145 0.46048 0.49004 0.0
C2486 C 0.04479 0.48384 0.48933 0.0
C2487 C 0.98578 0.45619 0.5028 0.0
H2488 H 0.99974 0.53118 0.50319 0.0
C2489 C 0.9016 0.48255 0.51041 0.0
C2490 C 0.90874 0.50516 0.51532 0.0
C2491 C 0.92173 0.47727 0.5075 0.0
C2492 C 0.99564 0.51017 0.50317 0.0
H2493 H 0.06258 0.43411 0.50011 0.0
H2494 H 0.02803 0.44358 0.50551 0.0
H2495 H 0.03411 0.52144 0.49767 0.0
H2496 H 0.94274 0.53995 0.52105 0.0
H2497 H 0.97805 0.53073 0.51593 0.0
H2498 H 0.9474 0.4449 0.50833 0.0
C2499 C 0.03786 0.45327 0.50008 0.0
C2500 C 0.01518 0.50455 0.49993 0.0
C2501 C 0.05776 0.44792 0.497 0.0
C2502 C 0.93656 0.52237 0.51728 0.0
C2503 C 0.95679 0.51718 0.51431 0.0
C2504 C 0.96618 0.46178 0.50599 0.0
C2505 C 0.03127 0.47144 0.49631 0.0
C2506 C 0.01046 0.47748 0.4997 0.0
C2507 C 0.94956 0.49453 0.5094 0.0
C2508 C 0.97084 0.48882 0.5062 0.0
H2509 H 0.07476 0.4884 0.48085 0.0
H2510 H 0.03994 0.4977 0.48624 0.0
H2511 H 0.98143 0.4351 0.50267 0.0
H2512 H 0.88037 0.46883 0.50878 0.0
H2513 H 0.9155 0.45984 0.50366 0.0
C2514 C 0.46999 0.41425 0.51437 0.0
C2515 C 0.48416 0.40205 0.51103 0.0
C2516 C 0.47395 0.4394 0.51158 0.0
C2517 C 0.498 0.48451 0.49429 0.0
H2518 H 0.50552 0.54105 0.50867 0.0
C2519 C 0.52986 0.5943 0.48397 0.0
C2520 C 0.516 0.60684 0.48729 0.0
C2521 C 0.52654 0.56971 0.48701 0.0
C2522 C 0.50317 0.52537 0.50457 0.0
H2523 H 0.5137 0.40685 0.50215 0.0
H2524 H 0.52063 0.45059 0.49733 0.0
H2525 H 0.49799 0.49714 0.51367 0.0
H2526 H 0.48793 0.60344 0.49646 0.0
H2527 H 0.48193 0.56051 0.5017 0.0
H2528 H 0.50301 0.51258 0.48519 0.0
C2529 C 0.50623 0.44061 0.50204 0.0
C2530 C 0.49884 0.5002 0.50744 0.0
C2531 C 0.50235 0.41557 0.50484 0.0
C2532 C 0.49903 0.59442 0.49378 0.0
C2533 C 0.49568 0.56983 0.49681 0.0
C2534 C 0.50227 0.50963 0.49142 0.0
C2535 C 0.49208 0.45284 0.50537 0.0
C2536 C 0.49627 0.47949 0.50234 0.0
C2537 C 0.50924 0.55706 0.49344 0.0
C2538 C 0.50496 0.53041 0.49652 0.0
H2539 H 0.45584 0.40438 0.51915 0.0
H2540 H 0.46253 0.44815 0.51422 0.0
H2541 H 0.49567 0.46883 0.4902 0.0
H2542 H 0.54316 0.60336 0.47898 0.0
H2543 H 0.53763 0.56067 0.48434 0.0
C2544 C 0.58476 0.0926 0.50886 0.0
C2545 C 0.5992 0.08829 0.51486 0.0
C2546 C 0.55948 0.07122 0.50628 0.0
C2547 C 0.51732 0.99569 0.50556 0.0
H2548 H 0.45833 0.01027 0.50072 0.0
C2549 C 0.40805 0.909 0.49755 0.0
C2550 C 0.39405 0.91421 0.49161 0.0
C2551 C 0.43288 0.93012 0.50049 0.0
C2552 C 0.47469 0.00591 0.50195 0.0
H2553 H 0.59824 0.05806 0.52288 0.0
H2554 H 0.55388 0.02058 0.51837 0.0
H2555 H 0.50169 0.04707 0.50585 0.0
H2556 H 0.39533 0.94577 0.48408 0.0
H2557 H 0.4389 0.98263 0.48915 0.0
H2558 H 0.49041 0.9546 0.50162 0.0
C2559 C 0.56234 0.04055 0.51563 0.0
C2560 C 0.49954 0.027 0.50491 0.0
C2561 C 0.58767 0.06204 0.51824 0.0
C2562 C 0.40552 0.94107 0.48867 0.0
C2563 C 0.43043 0.96223 0.49161 0.0
C2564 C 0.49248 0.9746 0.50259 0.0
C2565 C 0.54796 0.04492 0.50961 0.0
C2566 C 0.5212 0.02218 0.50672 0.0
C2567 C 0.44441 0.95701 0.49756 0.0
C2568 C 0.47087 0.97946 0.50073 0.0
H2569 H 0.593 0.11254 0.50611 0.0
H2570 H 0.54918 0.07521 0.50156 0.0
H2571 H 0.53372 0.99139 0.50679 0.0
H2572 H 0.39979 0.88857 0.49997 0.0
H2573 H 0.44284 0.92541 0.50515 0.0
C2574 C 0.50944 0.09315 0.00847 0.0
C2575 C 0.49132 0.08854 0.01468 0.0
C2576 C 0.51261 0.07174 0.0055 0.0
C2577 C 0.47791 0.99584 0.00449 0.0
H2578 H 0.55005 0.00944 0.99824 0.0
C2579 C 0.4984 0.90809 0.99623 0.0
C2580 C 0.51567 0.91218 0.98985 0.0
C2581 C 0.49548 0.92969 0.99916 0.0
C2582 C 0.52972 0.00538 0.99987 0.0
H2583 H 0.46256 0.05777 0.02269 0.0
H2584 H 0.46834 0.02041 0.01756 0.0
H2585 H 0.54508 0.04677 0.00374 0.0
H2586 H 0.54339 0.94227 0.98151 0.0
H2587 H 0.53822 0.98008 0.98663 0.0
H2588 H 0.46258 0.95443 1.00065 0.0
C2589 C 0.4798 0.04056 0.01491 0.0
C2590 C 0.52685 0.02678 0.00303 0.0
C2591 C 0.4766 0.06201 0.01789 0.0
C2592 C 0.52996 0.93844 0.98645 0.0
C2593 C 0.52711 0.96013 0.98941 0.0
C2594 C 0.48079 0.97445 1.00134 0.0
C2595 C 0.49779 0.04514 0.00866 0.0
C2596 C 0.50091 0.02228 0.00538 0.0
C2597 C 0.50981 0.95599 0.9958 0.0
C2598 C 0.50673 0.97894 0.999 0.0
H2599 H 0.52107 0.11331 0.00584 0.0
H2600 H 0.52635 0.07596 1.00062 0.0
H2601 H 0.45756 0.99175 0.0061 0.0
H2602 H 0.48708 0.88815 0.999 0.0
H2603 H 0.48228 0.92586 0.00415 0.0
C2604 C 0.93184 0.39323 0.00512 0.0
C2605 C 0.92174 0.38943 0.01276 0.0
C2606 C 0.95118 0.41939 0.00244 0.0
C2607 C 0.00251 0.48942 0.00905 0.0
H2608 H 0.99307 0.51057 0.98832 0.0
C2609 C 0.06547 0.60134 0.99822 0.0
C2610 C 0.07577 0.60559 0.99059 0.0
C2611 C 0.04654 0.57494 1.00083 0.0
C2612 C 0.99619 0.5049 0.99409 0.0
H2613 H 0.92447 0.4102 0.02364 0.0
H2614 H 0.95808 0.45591 0.01895 0.0
H2615 H 0.96097 0.4646 0.99314 0.0
H2616 H 0.07387 0.58537 0.97967 0.0
H2617 H 0.04087 0.53921 0.98425 0.0
H2618 H 0.03768 0.52975 0.01 0.0
C2619 C 0.95123 0.43857 0.01504 0.0
C2620 C 0.97779 0.47852 0.99685 0.0
C2621 C 0.93188 0.41237 0.01772 0.0
C2622 C 0.06628 0.58284 0.98558 0.0
C2623 C 0.04729 0.55638 0.98819 0.0
C2624 C 0.02089 0.5158 0.00628 0.0
C2625 C 0.96091 0.44245 0.00733 0.0
C2626 C 0.9807 0.47045 0.00437 0.0
C2627 C 0.03741 0.55209 0.99588 0.0
C2628 C 0.01792 0.5239 0.99877 0.0
H2629 H 0.92459 0.37601 1.00115 0.0
H2630 H 0.95853 0.42154 0.99652 0.0
H2631 H 0.00562 0.48378 0.01482 0.0
H2632 H 0.07222 0.61839 0.00223 0.0
H2633 H 0.03899 0.57246 0.00673 0.0
C2634 C 0.40987 0.50097 0.99525 0.0
C2635 C 0.39625 0.48327 0.98897 0.0
C2636 C 0.43484 0.50447 0.99798 0.0
C2637 C 0.47761 0.47157 0.99828 0.0
H2638 H 0.53575 0.5445 0.00407 0.0
C2639 C 0.58751 0.49473 0.00554 0.0
C2640 C 0.60151 0.51298 0.01168 0.0
C2641 C 0.56233 0.49092 0.00289 0.0
C2642 C 0.51961 0.52395 0.00258 0.0
H2643 H 0.3983 0.45539 0.98063 0.0
H2644 H 0.44211 0.46163 0.98539 0.0
H2645 H 0.49241 0.53829 0.99904 0.0
H2646 H 0.59981 0.54135 0.0199 0.0
H2647 H 0.5556 0.53451 0.01531 0.0
H2648 H 0.50479 0.45722 0.00182 0.0
C2649 C 0.43325 0.47259 0.98824 0.0
C2650 C 0.49477 0.52038 0.99968 0.0
C2651 C 0.40823 0.46913 0.98549 0.0
C2652 C 0.5896 0.52722 0.01514 0.0
C2653 C 0.56435 0.5234 0.01248 0.0
C2654 C 0.50244 0.47513 1.00119 0.0
C2655 C 0.44687 0.49035 0.99452 0.0
C2656 C 0.47345 0.49415 0.99749 0.0
C2657 C 0.55043 0.50523 0.00631 0.0
C2658 C 0.52378 0.50137 0.00336 0.0
H2659 H 0.40125 0.51218 0.99808 0.0
H2660 H 0.44454 0.51799 0.00289 0.0
H2661 H 0.46147 0.45103 0.99677 0.0
H2662 H 0.59607 0.48344 0.00272 0.0
H2663 H 0.55242 0.47708 0.99805 0.0
loop_
_geom_bond_atom_site_label_1
_geom_bond_atom_site_label_2
_geom_bond_distance
_geom_bond_site_symmetry_2
_ccdc_geom_bond_type
Mg0 O1 2.028 . S
Mg0 O7 1.986 . S
Mg0 O9 2.114 . S
Mg0 O10 2.251 . S
Mg0 O13 2.010 . S
O1 Mg0 2.028 . S
O1 C4 1.250 . S
O2 Mg3 2.028 . S
O2 C4 1.248 . S
Mg3 O2 2.028 . S
Mg3 O8 2.032 . S
Mg3 O10 2.079 . S
C4 O1 1.250 . S
C4 O2 1.248 . S
C5 O6 1.264 . S
C5 O13 1.249 . S
O6 C5 1.264 . S
O7 Mg0 1.986 . S
O7 C11 1.246 . S
O8 Mg3 2.032 . S
O8 C11 1.259 . S
O9 Mg0 2.114 . S
O9 C12 1.252 . S
O10 Mg0 2.251 . S
O10 Mg3 2.079 . S
O10 C12 1.273 . S
C11 O7 1.246 . S
C11 O8 1.259 . S
C12 O9 1.252 . S
C12 O10 1.273 . S
O13 Mg0 2.010 . S
O13 C5 1.249 . S
Mg14 O15 2.028 . S
Mg14 O21 1.986 . S
Mg14 O23 2.114 1_545 S
Mg14 O24 2.251 1_545 S
Mg14 O27 2.010 . S
O15 Mg14 2.028 . S
O15 C18 1.250 . S
O16 Mg17 2.028 1_545 S
O16 C18 1.248 . S
Mg17 O16 2.028 1_565 S
Mg17 O22 2.054 . S
Mg17 O24 2.079 . S
C18 O15 1.250 . S
C18 O16 1.248 . S
C19 O20 1.264 . S
C19 O27 1.249 . S
O20 C19 1.264 . S
O21 Mg14 1.986 . S
O21 C25 1.246 . S
O22 Mg17 2.054 . S
O22 C25 1.236 1_565 S
O23 Mg14 2.114 1_565 S
O23 C26 1.252 . S
O24 Mg14 2.251 1_565 S
O24 Mg17 2.079 . S
O24 C26 1.273 . S
C25 O21 1.246 . S
C25 O22 1.236 1_545 S
C26 O23 1.252 . S
C26 O24 1.273 . S
O27 Mg14 2.010 . S
O27 C19 1.249 . S
Mg28 O29 2.028 . S
Mg28 O35 1.986 . S
Mg28 O37 2.114 1_655 S
Mg28 O38 2.251 1_655 S
Mg28 O41 2.010 . S
O29 Mg28 2.028 . S
O29 C32 1.250 . S
O30 Mg31 2.028 1_655 S
O30 C32 1.248 . S
Mg31 O30 2.028 1_455 S
Mg31 O36 2.030 . S
Mg31 O38 2.079 . S
C32 O29 1.250 . S
C32 O30 1.248 . S
C33 O34 1.264 . S
C33 O41 1.249 . S
O34 C33 1.264 . S
O35 Mg28 1.986 . S
O35 C39 1.246 . S
O36 Mg31 2.030 . S
O36 C39 1.264 1_455 S
O37 Mg28 2.114 1_455 S
O37 C40 1.252 . S
O38 Mg28 2.251 1_455 S
O38 Mg31 2.079 . S
O38 C40 1.273 . S
C39 O35 1.246 . S
C39 O36 1.264 1_655 S
C40 O37 1.252 . S
C40 O38 1.273 . S
O41 Mg28 2.010 . S
O41 C33 1.249 . S
Mg42 O43 2.028 . S
Mg42 O49 1.986 . S
Mg42 O51 2.114 . S
Mg42 O52 2.251 . S
Mg42 O55 2.010 . S
O43 Mg42 2.028 . S
O43 C46 1.250 . S
O44 Mg45 2.028 . S
O44 C46 1.248 . S
Mg45 O44 2.028 . S
Mg45 O50 2.032 . S
Mg45 O52 2.079 . S
C46 O43 1.250 . S
C46 O44 1.248 . S
C47 O48 1.264 . S
C47 O55 1.249 . S
O48 C47 1.264 . S
O49 Mg42 1.986 . S
O49 C53 1.246 . S
O50 Mg45 2.032 . S
O50 C53 1.259 . S
O51 Mg42 2.114 . S
O51 C54 1.252 . S
O52 Mg42 2.251 . S
O52 Mg45 2.079 . S
O52 C54 1.273 . S
C53 O49 1.246 . S
C53 O50 1.259 . S
C54 O51 1.252 . S
C54 O52 1.273 . S
O55 Mg42 2.010 . S
O55 C47 1.249 . S
Mg56 O57 2.028 . S
Mg56 O63 1.986 . S
Mg56 O65 2.114 1_565 S
Mg56 O66 2.251 1_565 S
Mg56 O69 2.010 . S
O57 Mg56 2.028 . S
O57 C60 1.250 . S
O58 Mg59 2.028 1_565 S
O58 C60 1.248 . S
Mg59 O58 2.028 1_545 S
Mg59 O64 2.030 . S
Mg59 O66 2.079 . S
C60 O57 1.250 . S
C60 O58 1.248 . S
C61 O62 1.264 . S
C61 O69 1.249 . S
O62 C61 1.264 . S
O63 Mg56 1.986 . S
O63 C67 1.246 . S
O64 Mg59 2.030 . S
O64 C67 1.265 1_545 S
O65 Mg56 2.114 1_545 S
O65 C68 1.252 . S
O66 Mg56 2.251 1_545 S
O66 Mg59 2.079 . S
O66 C68 1.273 . S
C67 O63 1.246 . S
C67 O64 1.265 1_565 S
C68 O65 1.252 . S
C68 O66 1.273 . S
O69 Mg56 2.010 . S
O69 C61 1.249 . S
Mg70 O71 2.028 . S
Mg70 O77 1.986 . S
Mg70 O79 2.114 1_455 S
Mg70 O80 2.251 1_455 S
Mg70 O83 2.010 . S
O71 Mg70 2.028 . S
O71 C74 1.250 . S
O72 Mg73 2.028 1_455 S
O72 C74 1.248 . S
Mg73 O72 2.028 1_655 S
Mg73 O78 2.057 . S
Mg73 O80 2.079 . S
C74 O71 1.250 . S
C74 O72 1.248 . S
C75 O76 1.264 . S
C75 O83 1.249 . S
O76 C75 1.264 . S
O77 Mg70 1.986 . S
O77 C81 1.246 . S
O78 Mg73 2.057 . S
O78 C81 1.232 1_655 S
O79 Mg70 2.114 1_655 S
O79 C82 1.252 . S
O80 Mg70 2.251 1_655 S
O80 Mg73 2.079 . S
O80 C82 1.273 . S
C81 O77 1.246 . S
C81 O78 1.232 1_455 S
C82 O79 1.252 . S
C82 O80 1.273 . S
O83 Mg70 2.010 . S
O83 C75 1.249 . S
Mg84 O85 2.028 . S
Mg84 O91 1.986 . S
Mg84 O93 2.114 . S
Mg84 O94 2.251 . S
Mg84 O97 2.010 . S
O85 Mg84 2.028 . S
O85 C88 1.250 . S
O86 Mg87 2.028 . S
O86 C88 1.248 . S
Mg87 O86 2.028 . S
Mg87 O92 2.032 . S
Mg87 O94 2.079 . S
C88 O85 1.250 . S
C88 O86 1.248 . S
C89 O90 1.264 . S
C89 O97 1.249 . S
O90 C89 1.264 . S
O91 Mg84 1.986 . S
O91 C95 1.246 . S
O92 Mg87 2.032 . S
O92 C95 1.259 . S
O93 Mg84 2.114 . S
O93 C96 1.252 . S
O94 Mg84 2.251 . S
O94 Mg87 2.079 . S
O94 C96 1.273 . S
C95 O91 1.246 . S
C95 O92 1.259 . S
C96 O93 1.252 . S
C96 O94 1.273 . S
O97 Mg84 2.010 . S
O97 C89 1.249 . S
Mg98 O99 2.028 . S
Mg98 O105 1.986 . S
Mg98 O107 2.114 1_565 S
Mg98 O108 2.251 1_565 S
Mg98 O111 2.010 . S
O99 Mg98 2.028 . S
O99 C102 1.250 . S
O100 Mg101 2.028 1_565 S
O100 C102 1.248 . S
Mg101 O100 2.028 1_545 S
Mg101 O106 2.054 . S
Mg101 O108 2.079 . S
C102 O99 1.250 . S
C102 O100 1.248 . S
C103 O104 1.264 . S
C103 O111 1.249 . S
O104 C103 1.264 . S
O105 Mg98 1.986 . S
O105 C109 1.246 . S
O106 Mg101 2.054 . S
O106 C109 1.236 1_545 S
O107 Mg98 2.114 1_545 S
O107 C110 1.252 . S
O108 Mg98 2.251 1_545 S
O108 Mg101 2.079 . S
O108 C110 1.273 . S
C109 O105 1.246 . S
C109 O106 1.236 1_565 S
C110 O107 1.252 . S
C110 O108 1.273 . S
O111 Mg98 2.010 . S
O111 C103 1.249 . S
Mg112 O113 2.028 . S
Mg112 O119 1.986 . S
Mg112 O121 2.114 1_455 S
Mg112 O122 2.251 1_455 S
Mg112 O125 2.010 . S
O113 Mg112 2.028 . S
O113 C116 1.250 . S
O114 Mg115 2.028 1_455 S
O114 C116 1.248 . S
Mg115 O114 2.028 1_655 S
Mg115 O120 2.030 . S
Mg115 O122 2.079 . S
C116 O113 1.250 . S
C116 O114 1.248 . S
C117 O118 1.264 . S
C117 O125 1.249 . S
O118 C117 1.264 . S
O119 Mg112 1.986 . S
O119 C123 1.246 . S
O120 Mg115 2.030 . S
O120 C123 1.264 1_655 S
O121 Mg112 2.114 1_655 S
O121 C124 1.252 . S
O122 Mg112 2.251 1_655 S
O122 Mg115 2.079 . S
O122 C124 1.273 . S
C123 O119 1.246 . S
C123 O120 1.264 1_455 S
C124 O121 1.252 . S
C124 O122 1.273 . S
O125 Mg112 2.010 . S
O125 C117 1.249 . S
Mg126 O127 2.028 . S
Mg126 O133 1.986 . S
Mg126 O135 2.114 . S
Mg126 O136 2.251 . S
Mg126 O139 2.010 . S
O127 Mg126 2.028 . S
O127 C130 1.250 . S
O128 Mg129 2.028 . S
O128 C130 1.248 . S
Mg129 O128 2.028 . S
Mg129 O134 2.032 . S
Mg129 O136 2.079 . S
C130 O127 1.250 . S
C130 O128 1.248 . S
C131 O132 1.264 . S
C131 O139 1.249 . S
O132 C131 1.264 . S
O133 Mg126 1.986 . S
O133 C137 1.246 . S
O134 Mg129 2.032 . S
O134 C137 1.259 . S
O135 Mg126 2.114 . S
O135 C138 1.252 . S
O136 Mg126 2.251 . S
O136 Mg129 2.079 . S
O136 C138 1.273 . S
C137 O133 1.246 . S
C137 O134 1.259 . S
C138 O135 1.252 . S
C138 O136 1.273 . S
O139 Mg126 2.010 . S
O139 C131 1.249 . S
Mg140 O141 2.028 . S
Mg140 O147 1.986 . S
Mg140 O149 2.114 1_545 S
Mg140 O150 2.251 1_545 S
Mg140 O153 2.010 . S
O141 Mg140 2.028 . S
O141 C144 1.250 . S
O142 Mg143 2.028 1_545 S
O142 C144 1.248 . S
Mg143 O142 2.028 1_565 S
Mg143 O148 2.030 . S
Mg143 O150 2.079 . S
C144 O141 1.250 . S
C144 O142 1.248 . S
C145 O146 1.264 . S
C145 O153 1.249 . S
O146 C145 1.264 . S
O147 Mg140 1.986 . S
O147 C151 1.246 . S
O148 Mg143 2.030 . S
O148 C151 1.265 1_565 S
O149 Mg140 2.114 1_565 S
O149 C152 1.252 . S
O150 Mg140 2.251 1_565 S
O150 Mg143 2.079 . S
O150 C152 1.273 . S
C151 O147 1.246 . S
C151 O148 1.265 1_545 S
C152 O149 1.252 . S
C152 O150 1.273 . S
O153 Mg140 2.010 . S
O153 C145 1.249 . S
Mg154 O155 2.028 . S
Mg154 O161 1.986 . S
Mg154 O163 2.114 1_655 S
Mg154 O164 2.251 1_655 S
Mg154 O167 2.010 . S
O155 Mg154 2.028 . S
O155 C158 1.250 . S
O156 Mg157 2.028 1_655 S
O156 C158 1.248 . S
Mg157 O156 2.028 1_455 S
Mg157 O162 2.057 . S
Mg157 O164 2.079 . S
C158 O155 1.250 . S
C158 O156 1.248 . S
C159 O160 1.264 . S
C159 O167 1.249 . S
O160 C159 1.264 . S
O161 Mg154 1.986 . S
O161 C165 1.246 . S
O162 Mg157 2.057 . S
O162 C165 1.232 1_455 S
O163 Mg154 2.114 1_455 S
O163 C166 1.252 . S
O164 Mg154 2.251 1_455 S
O164 Mg157 2.079 . S
O164 C166 1.273 . S
C165 O161 1.246 . S
C165 O162 1.232 1_655 S
C166 O163 1.252 . S
C166 O164 1.273 . S
O167 Mg154 2.010 . S
O167 C159 1.249 . S
Mg168 O169 2.028 . S
Mg168 O175 1.986 . S
Mg168 O177 2.114 . S
Mg168 O178 2.251 . S
Mg168 O181 2.010 . S
O169 Mg168 2.028 . S
O169 C172 1.250 . S
O170 Mg171 2.028 . S
O170 C172 1.248 . S
Mg171 O170 2.028 . S
Mg171 O176 2.032 . S
Mg171 O178 2.079 . S
C172 O169 1.250 . S
C172 O170 1.248 . S
C173 O174 1.264 . S
C173 O181 1.249 . S
O174 C173 1.264 . S
O175 Mg168 1.986 . S
O175 C179 1.246 . S
O176 Mg171 2.032 . S
O176 C179 1.259 . S
O177 Mg168 2.114 . S
O177 C180 1.252 . S
O178 Mg168 2.251 . S
O178 Mg171 2.079 . S
O178 C180 1.273 . S
C179 O175 1.246 . S
C179 O176 1.259 . S
C180 O177 1.252 . S
C180 O178 1.273 . S
O181 Mg168 2.010 . S
O181 C173 1.249 . S
Mg182 O183 2.028 . S
Mg182 O189 1.986 . S
Mg182 O191 2.114 . S
Mg182 O192 2.251 . S
Mg182 O195 2.010 . S
O183 Mg182 2.028 . S
O183 C186 1.250 . S
O184 Mg185 2.028 . S
O184 C186 1.248 . S
Mg185 O184 2.028 . S
Mg185 O190 2.032 . S
Mg185 O192 2.079 . S
C186 O183 1.250 . S
C186 O184 1.248 . S
C187 O188 1.264 . S
C187 O195 1.249 . S
O188 C187 1.264 . S
O189 Mg182 1.986 . S
O189 C193 1.246 . S
O190 Mg185 2.032 . S
O190 C193 1.259 . S
O191 Mg182 2.114 . S
O191 C194 1.252 . S
O192 Mg182 2.251 . S
O192 Mg185 2.079 . S
O192 C194 1.273 . S
C193 O189 1.246 . S
C193 O190 1.259 . S
C194 O191 1.252 . S
C194 O192 1.273 . S
O195 Mg182 2.010 . S
O195 C187 1.249 . S
Mg196 O197 2.028 . S
Mg196 O203 1.986 . S
Mg196 O205 2.114 . S
Mg196 O206 2.251 . S
Mg196 O209 2.010 . S
O197 Mg196 2.028 . S
O197 C200 1.250 . S
O198 Mg199 2.028 . S
O198 C200 1.248 . S
Mg199 O198 2.028 . S
Mg199 O204 2.032 . S
Mg199 O206 2.079 . S
C200 O197 1.250 . S
C200 O198 1.248 . S
C201 O202 1.264 . S
C201 O209 1.249 . S
O202 C201 1.264 . S
O203 Mg196 1.986 . S
O203 C207 1.246 . S
O204 Mg199 2.032 . S
O204 C207 1.259 . S
O205 Mg196 2.114 . S
O205 C208 1.252 . S
O206 Mg196 2.251 . S
O206 Mg199 2.079 . S
O206 C208 1.273 . S
C207 O203 1.246 . S
C207 O204 1.259 . S
C208 O205 1.252 . S
C208 O206 1.273 . S
O209 Mg196 2.010 . S
O209 C201 1.249 . S
Mg210 O211 2.028 . S
Mg210 O217 1.986 . S
Mg210 O219 2.114 . S
Mg210 O220 2.251 . S
Mg210 O223 2.010 . S
O211 Mg210 2.028 . S
O211 C214 1.250 . S
O212 Mg213 2.028 . S
O212 C214 1.248 . S
Mg213 O212 2.028 . S
Mg213 O218 2.032 . S
Mg213 O220 2.079 . S
C214 O211 1.250 . S
C214 O212 1.248 . S
C215 O216 1.264 . S
C215 O223 1.249 . S
O216 C215 1.264 . S
O217 Mg210 1.986 . S
O217 C221 1.246 . S
O218 Mg213 2.032 . S
O218 C221 1.259 . S
O219 Mg210 2.114 . S
O219 C222 1.252 . S
O220 Mg210 2.251 . S
O220 Mg213 2.079 . S
O220 C222 1.273 . S
C221 O217 1.246 . S
C221 O218 1.259 . S
C222 O219 1.252 . S
C222 O220 1.273 . S
O223 Mg210 2.010 . S
O223 C215 1.249 . S
Mg224 O225 2.028 . S
Mg224 O231 1.986 . S
Mg224 O233 2.114 . S
Mg224 O234 2.251 . S
Mg224 O237 2.010 . S
O225 Mg224 2.028 . S
O225 C228 1.250 . S
O226 Mg227 2.028 . S
O226 C228 1.248 . S
Mg227 O226 2.028 . S
Mg227 O232 2.032 . S
Mg227 O234 2.079 . S
C228 O225 1.250 . S
C228 O226 1.248 . S
C229 O230 1.264 . S
C229 O237 1.249 . S
O230 C229 1.264 . S
O231 Mg224 1.986 . S
O231 C235 1.246 . S
O232 Mg227 2.032 . S
O232 C235 1.259 . S
O233 Mg224 2.114 . S
O233 C236 1.252 . S
O234 Mg224 2.251 . S
O234 Mg227 2.079 . S
O234 C236 1.273 . S
C235 O231 1.246 . S
C235 O232 1.259 . S
C236 O233 1.252 . S
C236 O234 1.273 . S
O237 Mg224 2.010 . S
O237 C229 1.249 . S
Mg238 O239 2.028 . S
Mg238 O245 1.986 . S
Mg238 O247 2.114 . S
Mg238 O248 2.251 . S
Mg238 O251 2.010 . S
O239 Mg238 2.028 . S
O239 C242 1.250 . S
O240 Mg241 2.028 . S
O240 C242 1.248 . S
Mg241 O240 2.028 . S
Mg241 O246 2.032 . S
Mg241 O248 2.079 . S
C242 O239 1.250 . S
C242 O240 1.248 . S
C243 O244 1.264 . S
C243 O251 1.249 . S
O244 C243 1.264 . S
O245 Mg238 1.986 . S
O245 C249 1.246 . S
O246 Mg241 2.032 . S
O246 C249 1.259 . S
O247 Mg238 2.114 . S
O247 C250 1.252 . S
O248 Mg238 2.251 . S
O248 Mg241 2.079 . S
O248 C250 1.273 . S
C249 O245 1.246 . S
C249 O246 1.259 . S
C250 O247 1.252 . S
C250 O248 1.273 . S
O251 Mg238 2.010 . S
O251 C243 1.249 . S
Mg252 O253 2.028 . S
Mg252 O259 1.986 . S
Mg252 O261 2.114 . S
Mg252 O262 2.251 . S
Mg252 O265 2.010 . S
O253 Mg252 2.028 . S
O253 C256 1.250 . S
O254 Mg255 2.028 . S
O254 C256 1.248 . S
Mg255 O254 2.028 . S
Mg255 O260 2.032 . S
Mg255 O262 2.079 . S
C256 O253 1.250 . S
C256 O254 1.248 . S
C257 O258 1.264 . S
C257 O265 1.249 . S
O258 C257 1.264 . S
O259 Mg252 1.986 . S
O259 C263 1.246 . S
O260 Mg255 2.032 . S
O260 C263 1.259 . S
O261 Mg252 2.114 . S
O261 C264 1.252 . S
O262 Mg252 2.251 . S
O262 Mg255 2.079 . S
O262 C264 1.273 . S
C263 O259 1.246 . S
C263 O260 1.259 . S
C264 O261 1.252 . S
C264 O262 1.273 . S
O265 Mg252 2.010 . S
O265 C257 1.249 . S
Mg266 O267 2.028 . S
Mg266 O273 1.986 . S
Mg266 O275 2.114 . S
Mg266 O276 2.251 . S
Mg266 O279 2.010 . S
O267 Mg266 2.028 . S
O267 C270 1.250 . S
O268 Mg269 2.028 . S
O268 C270 1.248 . S
Mg269 O268 2.028 . S
Mg269 O274 2.032 . S
Mg269 O276 2.079 . S
C270 O267 1.250 . S
C270 O268 1.248 . S
C271 O272 1.264 . S
C271 O279 1.249 . S
O272 C271 1.264 . S
O273 Mg266 1.986 . S
O273 C277 1.246 . S
O274 Mg269 2.032 . S
O274 C277 1.259 . S
O275 Mg266 2.114 . S
O275 C278 1.252 . S
O276 Mg266 2.251 . S
O276 Mg269 2.079 . S
O276 C278 1.273 . S
C277 O273 1.246 . S
C277 O274 1.259 . S
C278 O275 1.252 . S
C278 O276 1.273 . S
O279 Mg266 2.010 . S
O279 C271 1.249 . S
Mg280 O281 2.028 . S
Mg280 O287 1.986 . S
Mg280 O289 2.114 . S
Mg280 O290 2.251 . S
Mg280 O293 2.010 . S
O281 Mg280 2.028 . S
O281 C284 1.250 . S
O282 Mg283 2.028 . S
O282 C284 1.248 . S
Mg283 O282 2.028 . S
Mg283 O288 2.032 . S
Mg283 O290 2.079 . S
C284 O281 1.250 . S
C284 O282 1.248 . S
C285 O286 1.264 . S
C285 O293 1.249 . S
O286 C285 1.264 . S
O287 Mg280 1.986 . S
O287 C291 1.246 . S
O288 Mg283 2.032 . S
O288 C291 1.259 . S
O289 Mg280 2.114 . S
O289 C292 1.252 . S
O290 Mg280 2.251 . S
O290 Mg283 2.079 . S
O290 C292 1.273 . S
C291 O287 1.246 . S
C291 O288 1.259 . S
C292 O289 1.252 . S
C292 O290 1.273 . S
O293 Mg280 2.010 . S
O293 C285 1.249 . S
Mg294 O295 2.028 . S
Mg294 O301 1.986 . S
Mg294 O303 2.114 . S
Mg294 O304 2.251 . S
Mg294 O307 2.010 . S
O295 Mg294 2.028 . S
O295 C298 1.250 . S
O296 Mg297 2.028 . S
O296 C298 1.248 . S
Mg297 O296 2.028 . S
Mg297 O302 2.032 . S
Mg297 O304 2.079 . S
C298 O295 1.250 . S
C298 O296 1.248 . S
C299 O300 1.264 . S
C299 O307 1.249 . S
O300 C299 1.264 . S
O301 Mg294 1.986 . S
O301 C305 1.246 . S
O302 Mg297 2.032 . S
O302 C305 1.259 . S
O303 Mg294 2.114 . S
O303 C306 1.252 . S
O304 Mg294 2.251 . S
O304 Mg297 2.079 . S
O304 C306 1.273 . S
C305 O301 1.246 . S
C305 O302 1.259 . S
C306 O303 1.252 . S
C306 O304 1.273 . S
O307 Mg294 2.010 . S
O307 C299 1.249 . S
Mg308 O309 2.028 . S
Mg308 O315 1.986 . S
Mg308 O317 2.114 . S
Mg308 O318 2.251 . S
Mg308 O321 2.010 . S
O309 Mg308 2.028 . S
O309 C312 1.250 . S
O310 Mg311 2.028 . S
O310 C312 1.248 . S
Mg311 O310 2.028 . S
Mg311 O316 2.032 . S
Mg311 O318 2.079 . S
C312 O309 1.250 . S
C312 O310 1.248 . S
C313 O314 1.264 . S
C313 O321 1.249 . S
O314 C313 1.264 . S
O315 Mg308 1.986 . S
O315 C319 1.246 . S
O316 Mg311 2.032 . S
O316 C319 1.259 . S
O317 Mg308 2.114 . S
O317 C320 1.252 . S
O318 Mg308 2.251 . S
O318 Mg311 2.079 . S
O318 C320 1.273 . S
C319 O315 1.246 . S
C319 O316 1.259 . S
C320 O317 1.252 . S
C320 O318 1.273 . S
O321 Mg308 2.010 . S
O321 C313 1.249 . S
Mg322 O323 2.028 . S
Mg322 O329 1.986 . S
Mg322 O331 2.114 . S
Mg322 O332 2.251 . S
Mg322 O335 2.010 . S
O323 Mg322 2.028 . S
O323 C326 1.250 . S
O324 Mg325 2.028 . S
O324 C326 1.248 . S
Mg325 O324 2.028 . S
Mg325 O330 2.032 . S
Mg325 O332 2.079 . S
C326 O323 1.250 . S
C326 O324 1.248 . S
C327 O328 1.264 . S
C327 O335 1.249 . S
O328 C327 1.264 . S
O329 Mg322 1.986 . S
O329 C333 1.246 . S
O330 Mg325 2.032 . S
O330 C333 1.259 . S
O331 Mg322 2.114 . S
O331 C334 1.252 . S
O332 Mg322 2.251 . S
O332 Mg325 2.079 . S
O332 C334 1.273 . S
C333 O329 1.246 . S
C333 O330 1.259 . S
C334 O331 1.252 . S
C334 O332 1.273 . S
O335 Mg322 2.010 . S
O335 C327 1.249 . S
Mg336 O337 2.028 . S
Mg336 O343 1.986 . S
Mg336 O345 2.114 . S
Mg336 O346 2.251 . S
Mg336 O349 2.010 . S
O337 Mg336 2.028 . S
O337 C340 1.250 . S
O338 Mg339 2.028 . S
O338 C340 1.248 . S
Mg339 O338 2.028 . S
Mg339 O344 2.032 . S
Mg339 O346 2.079 . S
C340 O337 1.250 . S
C340 O338 1.248 . S
C341 O342 1.264 . S
C341 O349 1.249 . S
O342 C341 1.264 . S
O343 Mg336 1.986 . S
O343 C347 1.246 . S
O344 Mg339 2.032 . S
O344 C347 1.259 . S
O345 Mg336 2.114 . S
O345 C348 1.252 . S
O346 Mg336 2.251 . S
O346 Mg339 2.079 . S
O346 C348 1.273 . S
C347 O343 1.246 . S
C347 O344 1.259 . S
C348 O345 1.252 . S
C348 O346 1.273 . S
O349 Mg336 2.010 . S
O349 C341 1.249 . S
Mg350 O351 2.028 . S
Mg350 O357 1.986 . S
Mg350 O359 2.114 . S
Mg350 O360 2.251 . S
Mg350 O363 2.010 . S
O351 Mg350 2.028 . S
O351 C354 1.250 . S
O352 Mg353 2.028 . S
O352 C354 1.248 . S
Mg353 O352 2.028 . S
Mg353 O358 2.032 . S
Mg353 O360 2.079 . S
C354 O351 1.250 . S
C354 O352 1.248 . S
C355 O356 1.264 . S
C355 O363 1.249 . S
O356 C355 1.264 . S
O357 Mg350 1.986 . S
O357 C361 1.246 . S
O358 Mg353 2.032 . S
O358 C361 1.259 . S
O359 Mg350 2.114 . S
O359 C362 1.252 . S
O360 Mg350 2.251 . S
O360 Mg353 2.079 . S
O360 C362 1.273 . S
C361 O357 1.246 . S
C361 O358 1.259 . S
C362 O359 1.252 . S
C362 O360 1.273 . S
O363 Mg350 2.010 . S
O363 C355 1.249 . S
Mg364 O365 2.028 . S
Mg364 O371 1.986 . S
Mg364 O373 2.114 . S
Mg364 O374 2.251 . S
Mg364 O377 2.010 . S
O365 Mg364 2.028 . S
O365 C368 1.250 . S
O366 Mg367 2.028 . S
O366 C368 1.248 . S
Mg367 O366 2.028 . S
Mg367 O372 2.032 . S
Mg367 O374 2.079 . S
C368 O365 1.250 . S
C368 O366 1.248 . S
C369 O370 1.264 . S
C369 O377 1.249 . S
O370 C369 1.264 . S
O371 Mg364 1.986 . S
O371 C375 1.246 . S
O372 Mg367 2.032 . S
O372 C375 1.259 . S
O373 Mg364 2.114 . S
O373 C376 1.252 . S
O374 Mg364 2.251 . S
O374 Mg367 2.079 . S
O374 C376 1.273 . S
C375 O371 1.246 . S
C375 O372 1.259 . S
C376 O373 1.252 . S
C376 O374 1.273 . S
O377 Mg364 2.010 . S
O377 C369 1.249 . S
Mg378 O379 2.028 . S
Mg378 O385 1.986 . S
Mg378 O387 2.114 . S
Mg378 O388 2.251 . S
Mg378 O391 2.010 . S
O379 Mg378 2.028 . S
O379 C382 1.250 . S
O380 Mg381 2.028 . S
O380 C382 1.248 . S
Mg381 O380 2.028 . S
Mg381 O386 2.032 . S
Mg381 O388 2.079 . S
C382 O379 1.250 . S
C382 O380 1.248 . S
C383 O384 1.264 . S
C383 O391 1.249 . S
O384 C383 1.264 . S
O385 Mg378 1.986 . S
O385 C389 1.246 . S
O386 Mg381 2.032 . S
O386 C389 1.259 . S
O387 Mg378 2.114 . S
O387 C390 1.252 . S
O388 Mg378 2.251 . S
O388 Mg381 2.079 . S
O388 C390 1.273 . S
C389 O385 1.246 . S
C389 O386 1.259 . S
C390 O387 1.252 . S
C390 O388 1.273 . S
O391 Mg378 2.010 . S
O391 C383 1.249 . S
Mg392 O393 2.028 . S
Mg392 O399 1.986 . S
Mg392 O401 2.114 . S
Mg392 O402 2.251 . S
Mg392 O405 2.010 . S
O393 Mg392 2.028 . S
O393 C396 1.250 . S
O394 Mg395 2.028 . S
O394 C396 1.248 . S
Mg395 O394 2.028 . S
Mg395 O400 2.032 . S
Mg395 O402 2.079 . S
C396 O393 1.250 . S
C396 O394 1.248 . S
C397 O398 1.264 . S
C397 O405 1.249 . S
O398 C397 1.264 . S
O399 Mg392 1.986 . S
O399 C403 1.246 . S
O400 Mg395 2.032 . S
O400 C403 1.259 . S
O401 Mg392 2.114 . S
O401 C404 1.252 . S
O402 Mg392 2.251 . S
O402 Mg395 2.079 . S
O402 C404 1.273 . S
C403 O399 1.246 . S
C403 O400 1.259 . S
C404 O401 1.252 . S
C404 O402 1.273 . S
O405 Mg392 2.010 . S
O405 C397 1.249 . S
Mg406 O407 2.028 . S
Mg406 O413 1.986 . S
Mg406 O415 2.114 . S
Mg406 O416 2.251 . S
Mg406 O419 2.010 . S
O407 Mg406 2.028 . S
O407 C410 1.250 . S
O408 Mg409 2.028 . S
O408 C410 1.248 . S
Mg409 O408 2.028 . S
Mg409 O414 2.032 . S
Mg409 O416 2.079 . S
C410 O407 1.250 . S
C410 O408 1.248 . S
C411 O412 1.264 . S
C411 O419 1.249 . S
O412 C411 1.264 . S
O413 Mg406 1.986 . S
O413 C417 1.246 . S
O414 Mg409 2.032 . S
O414 C417 1.259 . S
O415 Mg406 2.114 . S
O415 C418 1.252 . S
O416 Mg406 2.251 . S
O416 Mg409 2.079 . S
O416 C418 1.273 . S
C417 O413 1.246 . S
C417 O414 1.259 . S
C418 O415 1.252 . S
C418 O416 1.273 . S
O419 Mg406 2.010 . S
O419 C411 1.249 . S
Mg420 O421 2.028 . S
Mg420 O427 1.986 . S
Mg420 O429 2.114 . S
Mg420 O430 2.251 . S
Mg420 O433 2.010 . S
O421 Mg420 2.028 . S
O421 C424 1.250 . S
O422 Mg423 2.028 . S
O422 C424 1.248 . S
Mg423 O422 2.028 . S
Mg423 O428 2.032 . S
Mg423 O430 2.079 . S
C424 O421 1.250 . S
C424 O422 1.248 . S
C425 O426 1.264 . S
C425 O433 1.249 . S
O426 C425 1.264 . S
O427 Mg420 1.986 . S
O427 C431 1.246 . S
O428 Mg423 2.032 . S
O428 C431 1.259 . S
O429 Mg420 2.114 . S
O429 C432 1.252 . S
O430 Mg420 2.251 . S
O430 Mg423 2.079 . S
O430 C432 1.273 . S
C431 O427 1.246 . S
C431 O428 1.259 . S
C432 O429 1.252 . S
C432 O430 1.273 . S
O433 Mg420 2.010 . S
O433 C425 1.249 . S
Mg434 O435 2.028 . S
Mg434 O441 1.986 . S
Mg434 O443 2.114 . S
Mg434 O444 2.251 . S
Mg434 O447 2.010 . S
O435 Mg434 2.028 . S
O435 C438 1.250 . S
O436 Mg437 2.028 . S
O436 C438 1.248 . S
Mg437 O436 2.028 . S
Mg437 O442 2.032 . S
Mg437 O444 2.079 . S
C438 O435 1.250 . S
C438 O436 1.248 . S
C439 O440 1.264 . S
C439 O447 1.249 . S
O440 C439 1.264 . S
O441 Mg434 1.986 . S
O441 C445 1.246 . S
O442 Mg437 2.032 . S
O442 C445 1.259 . S
O443 Mg434 2.114 . S
O443 C446 1.252 . S
O444 Mg434 2.251 . S
O444 Mg437 2.079 . S
O444 C446 1.273 . S
C445 O441 1.246 . S
C445 O442 1.259 . S
C446 O443 1.252 . S
C446 O444 1.273 . S
O447 Mg434 2.010 . S
O447 C439 1.249 . S
Mg448 O449 2.028 . S
Mg448 O455 1.986 . S
Mg448 O457 2.114 . S
Mg448 O458 2.251 . S
Mg448 O461 2.010 . S
O449 Mg448 2.028 . S
O449 C452 1.250 . S
O450 Mg451 2.028 . S
O450 C452 1.248 . S
Mg451 O450 2.028 . S
Mg451 O456 2.032 . S
Mg451 O458 2.079 . S
C452 O449 1.250 . S
C452 O450 1.248 . S
C453 O454 1.264 . S
C453 O461 1.249 . S
O454 C453 1.264 . S
O455 Mg448 1.986 . S
O455 C459 1.246 . S
O456 Mg451 2.032 . S
O456 C459 1.259 . S
O457 Mg448 2.114 . S
O457 C460 1.252 . S
O458 Mg448 2.251 . S
O458 Mg451 2.079 . S
O458 C460 1.273 . S
C459 O455 1.246 . S
C459 O456 1.259 . S
C460 O457 1.252 . S
C460 O458 1.273 . S
O461 Mg448 2.010 . S
O461 C453 1.249 . S
Mg462 O463 2.028 . S
Mg462 O469 1.986 . S
Mg462 O471 2.114 . S
Mg462 O472 2.251 . S
Mg462 O475 2.010 . S
O463 Mg462 2.028 . S
O463 C466 1.250 . S
O464 Mg465 2.028 . S
O464 C466 1.248 . S
Mg465 O464 2.028 . S
Mg465 O470 2.032 . S
Mg465 O472 2.079 . S
C466 O463 1.250 . S
C466 O464 1.248 . S
C467 O468 1.264 . S
C467 O475 1.249 . S
O468 C467 1.264 . S
O469 Mg462 1.986 . S
O469 C473 1.246 . S
O470 Mg465 2.032 . S
O470 C473 1.259 . S
O471 Mg462 2.114 . S
O471 C474 1.252 . S
O472 Mg462 2.251 . S
O472 Mg465 2.079 . S
O472 C474 1.273 . S
C473 O469 1.246 . S
C473 O470 1.259 . S
C474 O471 1.252 . S
C474 O472 1.273 . S
O475 Mg462 2.010 . S
O475 C467 1.249 . S
Mg476 O477 2.028 . S
Mg476 O483 1.986 . S
Mg476 O485 2.114 . S
Mg476 O486 2.251 . S
Mg476 O489 2.010 . S
O477 Mg476 2.028 . S
O477 C480 1.250 . S
O478 Mg479 2.028 . S
O478 C480 1.248 . S
Mg479 O478 2.028 . S
Mg479 O484 2.032 . S
Mg479 O486 2.079 . S
C480 O477 1.250 . S
C480 O478 1.248 . S
C481 O482 1.264 . S
C481 O489 1.249 . S
O482 C481 1.264 . S
O483 Mg476 1.986 . S
O483 C487 1.246 . S
O484 Mg479 2.032 . S
O484 C487 1.259 . S
O485 Mg476 2.114 . S
O485 C488 1.252 . S
O486 Mg476 2.251 . S
O486 Mg479 2.079 . S
O486 C488 1.273 . S
C487 O483 1.246 . S
C487 O484 1.259 . S
C488 O485 1.252 . S
C488 O486 1.273 . S
O489 Mg476 2.010 . S
O489 C481 1.249 . S
Mg490 O491 2.028 . S
Mg490 O497 1.986 . S
Mg490 O499 2.114 . S
Mg490 O500 2.251 . S
Mg490 O503 2.010 . S
O491 Mg490 2.028 . S
O491 C494 1.250 . S
O492 Mg493 2.028 . S
O492 C494 1.248 . S
Mg493 O492 2.028 . S
Mg493 O498 2.032 . S
Mg493 O500 2.079 . S
C494 O491 1.250 . S
C494 O492 1.248 . S
C495 O496 1.264 . S
C495 O503 1.249 . S
O496 C495 1.264 . S
O497 Mg490 1.986 . S
O497 C501 1.246 . S
O498 Mg493 2.032 . S
O498 C501 1.259 . S
O499 Mg490 2.114 . S
O499 C502 1.252 . S
O500 Mg490 2.251 . S
O500 Mg493 2.079 . S
O500 C502 1.273 . S
C501 O497 1.246 . S
C501 O498 1.259 . S
C502 O499 1.252 . S
C502 O500 1.273 . S
O503 Mg490 2.010 . S
O503 C495 1.249 . S
C504 C505 1.349 . S
C504 C506 1.327 . S
C504 H529 0.950 . S
C505 C504 1.349 . S
C505 C521 1.349 . S
C506 C504 1.327 . S
C506 C525 1.429 . S
C506 H530 0.950 . S
C507 C524 1.574 1_455 S
C507 C526 1.368 . S
C507 H531 0.949 . S
H508 C512 0.949 . S
C509 C510 1.349 . S
C509 C511 1.327 . S
C509 H532 0.950 . S
C510 C509 1.349 . S
C510 C522 1.349 . S
C511 C509 1.327 . S
C511 C527 1.429 . S
C511 H533 0.950 . S
C512 H508 0.949 . S
C512 C520 1.574 1_655 S
C512 C528 1.368 . S
H513 C521 0.950 . S
H514 C519 0.950 . S
H515 C520 0.949 . S
H516 C522 0.950 . S
H517 C523 0.950 . S
H518 C524 0.949 . S
C519 H514 0.950 . S
C519 C521 1.327 . S
C519 C525 1.429 . S
C520 C512 1.574 1_455 S
C520 H515 0.949 . S
C520 C526 1.368 . S
C521 C505 1.349 . S
C521 H513 0.950 . S
C521 C519 1.327 . S
C522 C510 1.349 . S
C522 H516 0.950 . S
C522 C523 1.327 . S
C523 H517 0.950 . S
C523 C522 1.327 . S
C523 C527 1.429 . S
C524 C507 1.574 1_655 S
C524 H518 0.949 . S
C524 C528 1.368 . S
C525 C506 1.429 . S
C525 C519 1.429 . S
C525 C526 1.523 . S
C526 C507 1.368 . S
C526 C520 1.368 . S
C526 C525 1.523 . S
C527 C511 1.429 . S
C527 C523 1.429 . S
C527 C528 1.523 . S
C528 C512 1.368 . S
C528 C524 1.368 . S
C528 C527 1.523 . S
H529 C504 0.950 . S
H530 C506 0.950 . S
H531 C507 0.949 . S
H532 C509 0.950 . S
H533 C511 0.950 . S
C534 C535 1.349 . S
C534 C536 1.327 . S
C534 H559 0.950 . S
C535 C534 1.349 . S
C535 C551 1.349 . S
C536 C534 1.327 . S
C536 C555 1.429 . S
C536 H560 0.950 . S
C537 C554 1.574 . S
C537 C556 1.368 . S
C537 H561 0.949 . S
H538 C542 0.949 . S
C539 C540 1.349 . S
C539 C541 1.327 . S
C539 H562 0.950 . S
C540 C539 1.349 . S
C540 C552 1.349 . S
C541 C539 1.327 . S
C541 C557 1.429 . S
C541 H563 0.950 . S
C542 H538 0.949 . S
C542 C550 1.574 . S
C542 C558 1.368 . S
H543 C551 0.950 . S
H544 C549 0.950 . S
H545 C550 0.949 . S
H546 C552 0.950 . S
H547 C553 0.950 . S
H548 C554 0.949 . S
C549 H544 0.950 . S
C549 C551 1.327 . S
C549 C555 1.429 . S
C550 C542 1.574 . S
C550 H545 0.949 . S
C550 C556 1.368 . S
C551 C535 1.349 . S
C551 H543 0.950 . S
C551 C549 1.327 . S
C552 C540 1.349 . S
C552 H546 0.950 . S
C552 C553 1.327 . S
C553 H547 0.950 . S
C553 C552 1.327 . S
C553 C557 1.429 . S
C554 C537 1.574 . S
C554 H548 0.949 . S
C554 C558 1.368 . S
C555 C536 1.429 . S
C555 C549 1.429 . S
C555 C556 1.523 . S
C556 C537 1.368 . S
C556 C550 1.368 . S
C556 C555 1.523 . S
C557 C541 1.429 . S
C557 C553 1.429 . S
C557 C558 1.523 . S
C558 C542 1.368 . S
C558 C554 1.368 . S
C558 C557 1.523 . S
H559 C534 0.950 . S
H560 C536 0.950 . S
H561 C537 0.949 . S
H562 C539 0.950 . S
H563 C541 0.950 . S
C564 C565 1.349 . S
C564 C566 1.327 . S
C564 H589 0.950 . S
C565 C564 1.349 . S
C565 C581 1.349 . S
C566 C564 1.327 . S
C566 C585 1.429 . S
C566 H590 0.950 . S
C567 C584 1.574 1_545 S
C567 C586 1.368 . S
C567 H591 0.949 . S
H568 C572 0.949 . S
C569 C570 1.349 . S
C569 C571 1.327 . S
C569 H592 0.950 . S
C570 C569 1.349 . S
C570 C582 1.349 . S
C571 C569 1.327 . S
C571 C587 1.429 . S
C571 H593 0.950 . S
C572 H568 0.949 . S
C572 C580 1.574 1_565 S
C572 C588 1.368 . S
H573 C581 0.950 . S
H574 C579 0.950 . S
H575 C580 0.949 . S
H576 C582 0.950 . S
H577 C583 0.950 . S
H578 C584 0.949 . S
C579 H574 0.950 . S
C579 C581 1.327 . S
C579 C585 1.429 . S
C580 C572 1.574 1_545 S
C580 H575 0.949 . S
C580 C586 1.368 . S
C581 C565 1.349 . S
C581 H573 0.950 . S
C581 C579 1.327 . S
C582 C570 1.349 . S
C582 H576 0.950 . S
C582 C583 1.327 . S
C583 H577 0.950 . S
C583 C582 1.327 . S
C583 C587 1.429 . S
C584 C567 1.574 1_565 S
C584 H578 0.949 . S
C584 C588 1.368 . S
C585 C566 1.429 . S
C585 C579 1.429 . S
C585 C586 1.523 . S
C586 C567 1.368 . S
C586 C580 1.368 . S
C586 C585 1.523 . S
C587 C571 1.429 . S
C587 C583 1.429 . S
C587 C588 1.523 . S
C588 C572 1.368 . S
C588 C584 1.368 . S
C588 C587 1.523 . S
H589 C564 0.950 . S
H590 C566 0.950 . S
H591 C567 0.949 . S
H592 C569 0.950 . S
H593 C571 0.950 . S
C594 C595 1.349 . S
C594 C596 1.327 . S
C594 H619 0.950 . S
C595 C594 1.349 . S
C595 C611 1.349 . S
C596 C594 1.327 . S
C596 C615 1.429 . S
C596 H620 0.950 . S
C597 C614 1.574 1_545 S
C597 C616 1.368 . S
C597 H621 0.949 . S
H598 C602 0.949 . S
C599 C600 1.349 . S
C599 C601 1.327 . S
C599 H622 0.950 . S
C600 C599 1.349 . S
C600 C612 1.349 . S
C601 C599 1.327 . S
C601 C617 1.429 . S
C601 H623 0.950 . S
C602 H598 0.949 . S
C602 C610 1.574 1_565 S
C602 C618 1.368 . S
H603 C611 0.950 . S
H604 C609 0.950 . S
H605 C610 0.949 . S
H606 C612 0.950 . S
H607 C613 0.950 . S
H608 C614 0.949 . S
C609 H604 0.950 . S
C609 C611 1.327 . S
C609 C615 1.429 . S
C610 C602 1.574 1_545 S
C610 H605 0.949 . S
C610 C616 1.368 . S
C611 C595 1.349 . S
C611 H603 0.950 . S
C611 C609 1.327 . S
C612 C600 1.349 . S
C612 H606 0.950 . S
C612 C613 1.327 . S
C613 H607 0.950 . S
C613 C612 1.327 . S
C613 C617 1.429 . S
C614 C597 1.574 1_565 S
C614 H608 0.949 . S
C614 C618 1.368 . S
C615 C596 1.429 . S
C615 C609 1.429 . S
C615 C616 1.523 . S
C616 C597 1.368 . S
C616 C610 1.368 . S
C616 C615 1.523 . S
C617 C601 1.429 . S
C617 C613 1.429 . S
C617 C618 1.523 . S
C618 C602 1.368 . S
C618 C614 1.368 . S
C618 C617 1.523 . S
H619 C594 0.950 . S
H620 C596 0.950 . S
H621 C597 0.949 . S
H622 C599 0.950 . S
H623 C601 0.950 . S
C624 C625 1.349 . S
C624 C626 1.327 . S
C624 H649 0.950 . S
C625 C624 1.349 . S
C625 C641 1.349 . S
C626 C624 1.327 . S
C626 C645 1.429 . S
C626 H650 0.950 . S
C627 C644 1.574 1_655 S
C627 C646 1.368 . S
C627 H651 0.949 . S
H628 C632 0.949 . S
C629 C630 1.349 . S
C629 C631 1.327 . S
C629 H652 0.950 . S
C630 C629 1.349 . S
C630 C642 1.349 . S
C631 C629 1.327 . S
C631 C647 1.429 . S
C631 H653 0.950 . S
C632 H628 0.949 . S
C632 C640 1.574 1_455 S
C632 C648 1.368 . S
H633 C641 0.950 . S
H634 C639 0.950 . S
H635 C640 0.949 . S
H636 C642 0.950 . S
H637 C643 0.950 . S
H638 C644 0.949 . S
C639 H634 0.950 . S
C639 C641 1.327 . S
C639 C645 1.429 . S
C640 C632 1.574 1_655 S
C640 H635 0.949 . S
C640 C646 1.368 . S
C641 C625 1.349 . S
C641 H633 0.950 . S
C641 C639 1.327 . S
C642 C630 1.349 . S
C642 H636 0.950 . S
C642 C643 1.327 . S
C643 H637 0.950 . S
C643 C642 1.327 . S
C643 C647 1.429 . S
C644 C627 1.574 1_455 S
C644 H638 0.949 . S
C644 C648 1.368 . S
C645 C626 1.429 . S
C645 C639 1.429 . S
C645 C646 1.523 . S
C646 C627 1.368 . S
C646 C640 1.368 . S
C646 C645 1.523 . S
C647 C631 1.429 . S
C647 C643 1.429 . S
C647 C648 1.523 . S
C648 C632 1.368 . S
C648 C644 1.368 . S
C648 C647 1.523 . S
H649 C624 0.950 . S
H650 C626 0.950 . S
H651 C627 0.949 . S
H652 C629 0.950 . S
H653 C631 0.950 . S
C654 C655 1.349 . S
C654 C656 1.327 . S
C654 H679 0.950 . S
C655 C654 1.349 . S
C655 C671 1.349 . S
C656 C654 1.327 . S
C656 C675 1.429 . S
C656 H680 0.950 . S
C657 C674 1.574 . S
C657 C676 1.368 . S
C657 H681 0.949 . S
H658 C662 0.949 . S
C659 C660 1.349 . S
C659 C661 1.327 . S
C659 H682 0.950 . S
C660 C659 1.349 . S
C660 C672 1.349 . S
C661 C659 1.327 . S
C661 C677 1.429 . S
C661 H683 0.950 . S
C662 H658 0.949 . S
C662 C670 1.574 . S
C662 C678 1.368 . S
H663 C671 0.950 . S
H664 C669 0.950 . S
H665 C670 0.949 . S
H666 C672 0.950 . S
H667 C673 0.950 . S
H668 C674 0.949 . S
C669 H664 0.950 . S
C669 C671 1.327 . S
C669 C675 1.429 . S
C670 C662 1.574 . S
C670 H665 0.949 . S
C670 C676 1.368 . S
C671 C655 1.349 . S
C671 H663 0.950 . S
C671 C669 1.327 . S
C672 C660 1.349 . S
C672 H666 0.950 . S
C672 C673 1.327 . S
C673 H667 0.950 . S
C673 C672 1.327 . S
C673 C677 1.429 . S
C674 C657 1.574 . S
C674 H668 0.949 . S
C674 C678 1.368 . S
C675 C656 1.429 . S
C675 C669 1.429 . S
C675 C676 1.523 . S
C676 C657 1.368 . S
C676 C670 1.368 . S
C676 C675 1.523 . S
C677 C661 1.429 . S
C677 C673 1.429 . S
C677 C678 1.523 . S
C678 C662 1.368 . S
C678 C674 1.368 . S
C678 C677 1.523 . S
H679 C654 0.950 . S
H680 C656 0.950 . S
H681 C657 0.949 . S
H682 C659 0.950 . S
H683 C661 0.950 . S
C684 C685 1.349 . S
C684 C686 1.327 . S
C684 H709 0.950 . S
C685 C684 1.349 . S
C685 C701 1.349 . S
C686 C684 1.327 . S
C686 C705 1.429 . S
C686 H710 0.950 . S
C687 C704 1.574 1_655 S
C687 C706 1.368 . S
C687 H711 0.949 . S
H688 C692 0.949 . S
C689 C690 1.349 . S
C689 C691 1.327 . S
C689 H712 0.950 . S
C690 C689 1.349 . S
C690 C702 1.349 . S
C691 C689 1.327 . S
C691 C707 1.429 . S
C691 H713 0.950 . S
C692 H688 0.949 . S
C692 C700 1.574 1_455 S
C692 C708 1.368 . S
H693 C701 0.950 . S
H694 C699 0.950 . S
H695 C700 0.949 . S
H696 C702 0.950 . S
H697 C703 0.950 . S
H698 C704 0.949 . S
C699 H694 0.950 . S
C699 C701 1.327 . S
C699 C705 1.429 . S
C700 C692 1.574 1_655 S
C700 H695 0.949 . S
C700 C706 1.368 . S
C701 C685 1.349 . S
C701 H693 0.950 . S
C701 C699 1.327 . S
C702 C690 1.349 . S
C702 H696 0.950 . S
C702 C703 1.327 . S
C703 H697 0.950 . S
C703 C702 1.327 . S
C703 C707 1.429 . S
C704 C687 1.574 1_455 S
C704 H698 0.949 . S
C704 C708 1.368 . S
C705 C686 1.429 . S
C705 C699 1.429 . S
C705 C706 1.523 . S
C706 C687 1.368 . S
C706 C700 1.368 . S
C706 C705 1.523 . S
C707 C691 1.429 . S
C707 C703 1.429 . S
C707 C708 1.523 . S
C708 C692 1.368 . S
C708 C704 1.368 . S
C708 C707 1.523 . S
H709 C684 0.950 . S
H710 C686 0.950 . S
H711 C687 0.949 . S
H712 C689 0.950 . S
H713 C691 0.950 . S
C714 C715 1.349 . S
C714 C716 1.327 . S
C714 H739 0.950 . S
C715 C714 1.349 . S
C715 C731 1.349 . S
C716 C714 1.327 . S
C716 C735 1.429 . S
C716 H740 0.950 . S
C717 C734 1.574 . S
C717 C736 1.368 . S
C717 H741 0.949 . S
H718 C722 0.949 . S
C719 C720 1.349 . S
C719 C721 1.327 . S
C719 H742 0.950 . S
C720 C719 1.349 . S
C720 C732 1.349 . S
C721 C719 1.327 . S
C721 C737 1.429 . S
C721 H743 0.950 . S
C722 H718 0.949 . S
C722 C730 1.574 . S
C722 C738 1.368 . S
H723 C731 0.950 . S
H724 C729 0.950 . S
H725 C730 0.949 . S
H726 C732 0.950 . S
H727 C733 0.950 . S
H728 C734 0.949 . S
C729 H724 0.950 . S
C729 C731 1.327 . S
C729 C735 1.429 . S
C730 C722 1.574 . S
C730 H725 0.949 . S
C730 C736 1.368 . S
C731 C715 1.349 . S
C731 H723 0.950 . S
C731 C729 1.327 . S
C732 C720 1.349 . S
C732 H726 0.950 . S
C732 C733 1.327 . S
C733 H727 0.950 . S
C733 C732 1.327 . S
C733 C737 1.429 . S
C734 C717 1.574 . S
C734 H728 0.949 . S
C734 C738 1.368 . S
C735 C716 1.429 . S
C735 C729 1.429 . S
C735 C736 1.523 . S
C736 C717 1.368 . S
C736 C730 1.368 . S
C736 C735 1.523 . S
C737 C721 1.429 . S
C737 C733 1.429 . S
C737 C738 1.523 . S
C738 C722 1.368 . S
C738 C734 1.368 . S
C738 C737 1.523 . S
H739 C714 0.950 . S
H740 C716 0.950 . S
H741 C717 0.949 . S
H742 C719 0.950 . S
H743 C721 0.950 . S
C744 C745 1.349 . S
C744 C746 1.327 . S
C744 H769 0.950 . S
C745 C744 1.349 . S
C745 C761 1.349 . S
C746 C744 1.327 . S
C746 C765 1.429 . S
C746 H770 0.950 . S
C747 C764 1.574 1_565 S
C747 C766 1.368 . S
C747 H771 0.949 . S
H748 C752 0.949 . S
C749 C750 1.349 . S
C749 C751 1.327 . S
C749 H772 0.950 . S
C750 C749 1.349 . S
C750 C762 1.349 . S
C751 C749 1.327 . S
C751 C767 1.429 . S
C751 H773 0.950 . S
C752 H748 0.949 . S
C752 C760 1.574 1_545 S
C752 C768 1.368 . S
H753 C761 0.950 . S
H754 C759 0.950 . S
H755 C760 0.949 . S
H756 C762 0.950 . S
H757 C763 0.950 . S
H758 C764 0.949 . S
C759 H754 0.950 . S
C759 C761 1.327 . S
C759 C765 1.429 . S
C760 C752 1.574 1_565 S
C760 H755 0.949 . S
C760 C766 1.368 . S
C761 C745 1.349 . S
C761 H753 0.950 . S
C761 C759 1.327 . S
C762 C750 1.349 . S
C762 H756 0.950 . S
C762 C763 1.327 . S
C763 H757 0.950 . S
C763 C762 1.327 . S
C763 C767 1.429 . S
C764 C747 1.574 1_545 S
C764 H758 0.949 . S
C764 C768 1.368 . S
C765 C746 1.429 . S
C765 C759 1.429 . S
C765 C766 1.523 . S
C766 C747 1.368 . S
C766 C760 1.368 . S
C766 C765 1.523 . S
C767 C751 1.429 . S
C767 C763 1.429 . S
C767 C768 1.523 . S
C768 C752 1.368 . S
C768 C764 1.368 . S
C768 C767 1.523 . S
H769 C744 0.950 . S
H770 C746 0.950 . S
H771 C747 0.949 . S
H772 C749 0.950 . S
H773 C751 0.950 . S
C774 C775 1.349 . S
C774 C776 1.327 . S
C774 H799 0.950 . S
C775 C774 1.349 . S
C775 C791 1.349 . S
C776 C774 1.327 . S
C776 C795 1.429 . S
C776 H800 0.950 . S
C777 C794 1.574 1_545 S
C777 C796 1.368 . S
C777 H801 0.949 . S
H778 C782 0.949 . S
C779 C780 1.349 . S
C779 C781 1.327 . S
C779 H802 0.950 . S
C780 C779 1.349 . S
C780 C792 1.349 . S
C781 C779 1.327 . S
C781 C797 1.429 . S
C781 H803 0.950 . S
C782 H778 0.949 . S
C782 C790 1.574 1_565 S
C782 C798 1.368 . S
H783 C791 0.950 . S
H784 C789 0.950 . S
H785 C790 0.949 . S
H786 C792 0.950 . S
H787 C793 0.950 . S
H788 C794 0.949 . S
C789 H784 0.950 . S
C789 C791 1.327 . S
C789 C795 1.429 . S
C790 C782 1.574 1_545 S
C790 H785 0.949 . S
C790 C796 1.368 . S
C791 C775 1.349 . S
C791 H783 0.950 . S
C791 C789 1.327 . S
C792 C780 1.349 . S
C792 H786 0.950 . S
C792 C793 1.327 . S
C793 H787 0.950 . S
C793 C792 1.327 . S
C793 C797 1.429 . S
C794 C777 1.574 1_565 S
C794 H788 0.949 . S
C794 C798 1.368 . S
C795 C776 1.429 . S
C795 C789 1.429 . S
C795 C796 1.523 . S
C796 C777 1.368 . S
C796 C790 1.368 . S
C796 C795 1.523 . S
C797 C781 1.429 . S
C797 C793 1.429 . S
C797 C798 1.523 . S
C798 C782 1.368 . S
C798 C794 1.368 . S
C798 C797 1.523 . S
H799 C774 0.950 . S
H800 C776 0.950 . S
H801 C777 0.949 . S
H802 C779 0.950 . S
H803 C781 0.950 . S
C804 C805 1.349 . S
C804 C806 1.327 . S
C804 H829 0.950 . S
C805 C804 1.349 . S
C805 C821 1.349 . S
C806 C804 1.327 . S
C806 C825 1.429 . S
C806 H830 0.950 . S
C807 C824 1.574 1_455 S
C807 C826 1.368 . S
C807 H831 0.949 . S
H808 C812 0.949 . S
C809 C810 1.349 . S
C809 C811 1.327 . S
C809 H832 0.950 . S
C810 C809 1.349 . S
C810 C822 1.349 . S
C811 C809 1.327 . S
C811 C827 1.429 . S
C811 H833 0.950 . S
C812 H808 0.949 . S
C812 C820 1.574 1_655 S
C812 C828 1.368 . S
H813 C821 0.950 . S
H814 C819 0.950 . S
H815 C820 0.949 . S
H816 C822 0.950 . S
H817 C823 0.950 . S
H818 C824 0.949 . S
C819 H814 0.950 . S
C819 C821 1.327 . S
C819 C825 1.429 . S
C820 C812 1.574 1_455 S
C820 H815 0.949 . S
C820 C826 1.368 . S
C821 C805 1.349 . S
C821 H813 0.950 . S
C821 C819 1.327 . S
C822 C810 1.349 . S
C822 H816 0.950 . S
C822 C823 1.327 . S
C823 H817 0.950 . S
C823 C822 1.327 . S
C823 C827 1.429 . S
C824 C807 1.574 1_655 S
C824 H818 0.949 . S
C824 C828 1.368 . S
C825 C806 1.429 . S
C825 C819 1.429 . S
C825 C826 1.523 . S
C826 C807 1.368 . S
C826 C820 1.368 . S
C826 C825 1.523 . S
C827 C811 1.429 . S
C827 C823 1.429 . S
C827 C828 1.523 . S
C828 C812 1.368 . S
C828 C824 1.368 . S
C828 C827 1.523 . S
H829 C804 0.950 . S
H830 C806 0.950 . S
H831 C807 0.949 . S
H832 C809 0.950 . S
H833 C811 0.950 . S
C834 C835 1.349 . S
C834 C836 1.327 . S
C834 H859 0.950 . S
C835 C834 1.349 . S
C835 C851 1.349 . S
C836 C834 1.327 . S
C836 C855 1.429 . S
C836 H860 0.950 . S
C837 C854 1.574 . S
C837 C856 1.368 . S
C837 H861 0.949 . S
H838 C842 0.949 . S
C839 C840 1.349 . S
C839 C841 1.327 . S
C839 H862 0.950 . S
C840 C839 1.349 . S
C840 C852 1.349 . S
C841 C839 1.327 . S
C841 C857 1.429 . S
C841 H863 0.950 . S
C842 H838 0.949 . S
C842 C850 1.574 . S
C842 C858 1.368 . S
H843 C851 0.950 . S
H844 C849 0.950 . S
H845 C850 0.949 . S
H846 C852 0.950 . S
H847 C853 0.950 . S
H848 C854 0.949 . S
C849 H844 0.950 . S
C849 C851 1.327 . S
C849 C855 1.429 . S
C850 C842 1.574 . S
C850 H845 0.949 . S
C850 C856 1.368 . S
C851 C835 1.349 . S
C851 H843 0.950 . S
C851 C849 1.327 . S
C852 C840 1.349 . S
C852 H846 0.950 . S
C852 C853 1.327 . S
C853 H847 0.950 . S
C853 C852 1.327 . S
C853 C857 1.429 . S
C854 C837 1.574 . S
C854 H848 0.949 . S
C854 C858 1.368 . S
C855 C836 1.429 . S
C855 C849 1.429 . S
C855 C856 1.523 . S
C856 C837 1.368 . S
C856 C850 1.368 . S
C856 C855 1.523 . S
C857 C841 1.429 . S
C857 C853 1.429 . S
C857 C858 1.523 . S
C858 C842 1.368 . S
C858 C854 1.368 . S
C858 C857 1.523 . S
H859 C834 0.950 . S
H860 C836 0.950 . S
H861 C837 0.949 . S
H862 C839 0.950 . S
H863 C841 0.950 . S
C864 C865 1.349 . S
C864 C866 1.327 . S
C864 H889 0.950 . S
C865 C864 1.349 . S
C865 C881 1.349 . S
C866 C864 1.327 . S
C866 C885 1.429 . S
C866 H890 0.950 . S
C867 C884 1.574 . S
C867 C886 1.368 . S
C867 H891 0.949 . S
H868 C872 0.949 . S
C869 C870 1.349 . S
C869 C871 1.327 . S
C869 H892 0.950 . S
C870 C869 1.349 . S
C870 C882 1.349 . S
C871 C869 1.327 . S
C871 C887 1.429 . S
C871 H893 0.950 . S
C872 H868 0.949 . S
C872 C880 1.574 . S
C872 C888 1.368 . S
H873 C881 0.950 . S
H874 C879 0.950 . S
H875 C880 0.949 . S
H876 C882 0.950 . S
H877 C883 0.950 . S
H878 C884 0.949 . S
C879 H874 0.950 . S
C879 C881 1.327 . S
C879 C885 1.429 . S
C880 C872 1.574 . S
C880 H875 0.949 . S
C880 C886 1.368 . S
C881 C865 1.349 . S
C881 H873 0.950 . S
C881 C879 1.327 . S
C882 C870 1.349 . S
C882 H876 0.950 . S
C882 C883 1.327 . S
C883 H877 0.950 . S
C883 C882 1.327 . S
C883 C887 1.429 . S
C884 C867 1.574 . S
C884 H878 0.949 . S
C884 C888 1.368 . S
C885 C866 1.429 . S
C885 C879 1.429 . S
C885 C886 1.523 . S
C886 C867 1.368 . S
C886 C880 1.368 . S
C886 C885 1.523 . S
C887 C871 1.429 . S
C887 C883 1.429 . S
C887 C888 1.523 . S
C888 C872 1.368 . S
C888 C884 1.368 . S
C888 C887 1.523 . S
H889 C864 0.950 . S
H890 C866 0.950 . S
H891 C867 0.949 . S
H892 C869 0.950 . S
H893 C871 0.950 . S
C894 C895 1.349 . S
C894 C896 1.327 . S
C894 H919 0.950 . S
C895 C894 1.349 . S
C895 C911 1.349 . S
C896 C894 1.327 . S
C896 C915 1.429 . S
C896 H920 0.950 . S
C897 C914 1.574 . S
C897 C916 1.368 . S
C897 H921 0.949 . S
H898 C902 0.949 . S
C899 C900 1.349 . S
C899 C901 1.327 . S
C899 H922 0.950 . S
C900 C899 1.349 . S
C900 C912 1.349 . S
C901 C899 1.327 . S
C901 C917 1.429 . S
C901 H923 0.950 . S
C902 H898 0.949 . S
C902 C910 1.574 . S
C902 C918 1.368 . S
H903 C911 0.950 . S
H904 C909 0.950 . S
H905 C910 0.949 . S
H906 C912 0.950 . S
H907 C913 0.950 . S
H908 C914 0.949 . S
C909 H904 0.950 . S
C909 C911 1.327 . S
C909 C915 1.429 . S
C910 C902 1.574 . S
C910 H905 0.949 . S
C910 C916 1.368 . S
C911 C895 1.349 . S
C911 H903 0.950 . S
C911 C909 1.327 . S
C912 C900 1.349 . S
C912 H906 0.950 . S
C912 C913 1.327 . S
C913 H907 0.950 . S
C913 C912 1.327 . S
C913 C917 1.429 . S
C914 C897 1.574 . S
C914 H908 0.949 . S
C914 C918 1.368 . S
C915 C896 1.429 . S
C915 C909 1.429 . S
C915 C916 1.523 . S
C916 C897 1.368 . S
C916 C910 1.368 . S
C916 C915 1.523 . S
C917 C901 1.429 . S
C917 C913 1.429 . S
C917 C918 1.523 . S
C918 C902 1.368 . S
C918 C914 1.368 . S
C918 C917 1.523 . S
H919 C894 0.950 . S
H920 C896 0.950 . S
H921 C897 0.949 . S
H922 C899 0.950 . S
H923 C901 0.950 . S
C924 C925 1.349 . S
C924 C926 1.327 . S
C924 H949 0.950 . S
C925 C924 1.349 . S
C925 C941 1.349 . S
C926 C924 1.327 . S
C926 C945 1.429 . S
C926 H950 0.950 . S
C927 C944 1.574 . S
C927 C946 1.368 . S
C927 H951 0.949 . S
H928 C932 0.949 . S
C929 C930 1.349 . S
C929 C931 1.327 . S
C929 H952 0.950 . S
C930 C929 1.349 . S
C930 C942 1.349 . S
C931 C929 1.327 . S
C931 C947 1.429 . S
C931 H953 0.950 . S
C932 H928 0.949 . S
C932 C940 1.574 . S
C932 C948 1.368 . S
H933 C941 0.950 . S
H934 C939 0.950 . S
H935 C940 0.949 . S
H936 C942 0.950 . S
H937 C943 0.950 . S
H938 C944 0.949 . S
C939 H934 0.950 . S
C939 C941 1.327 . S
C939 C945 1.429 . S
C940 C932 1.574 . S
C940 H935 0.949 . S
C940 C946 1.368 . S
C941 C925 1.349 . S
C941 H933 0.950 . S
C941 C939 1.327 . S
C942 C930 1.349 . S
C942 H936 0.950 . S
C942 C943 1.327 . S
C943 H937 0.950 . S
C943 C942 1.327 . S
C943 C947 1.429 . S
C944 C927 1.574 . S
C944 H938 0.949 . S
C944 C948 1.368 . S
C945 C926 1.429 . S
C945 C939 1.429 . S
C945 C946 1.523 . S
C946 C927 1.368 . S
C946 C940 1.368 . S
C946 C945 1.523 . S
C947 C931 1.429 . S
C947 C943 1.429 . S
C947 C948 1.523 . S
C948 C932 1.368 . S
C948 C944 1.368 . S
C948 C947 1.523 . S
H949 C924 0.950 . S
H950 C926 0.950 . S
H951 C927 0.949 . S
H952 C929 0.950 . S
H953 C931 0.950 . S
C954 C955 1.349 . S
C954 C956 1.327 . S
C954 H979 0.950 . S
C955 C954 1.349 . S
C955 C971 1.349 . S
C956 C954 1.327 . S
C956 C975 1.429 . S
C956 H980 0.950 . S
C957 C974 1.574 . S
C957 C976 1.368 . S
C957 H981 0.949 . S
H958 C962 0.949 . S
C959 C960 1.349 . S
C959 C961 1.327 . S
C959 H982 0.950 . S
C960 C959 1.349 . S
C960 C972 1.349 . S
C961 C959 1.327 . S
C961 C977 1.429 . S
C961 H983 0.950 . S
C962 H958 0.949 . S
C962 C970 1.574 . S
C962 C978 1.368 . S
H963 C971 0.950 . S
H964 C969 0.950 . S
H965 C970 0.949 . S
H966 C972 0.950 . S
H967 C973 0.950 . S
H968 C974 0.949 . S
C969 H964 0.950 . S
C969 C971 1.327 . S
C969 C975 1.429 . S
C970 C962 1.574 . S
C970 H965 0.949 . S
C970 C976 1.368 . S
C971 C955 1.349 . S
C971 H963 0.950 . S
C971 C969 1.327 . S
C972 C960 1.349 . S
C972 H966 0.950 . S
C972 C973 1.327 . S
C973 H967 0.950 . S
C973 C972 1.327 . S
C973 C977 1.429 . S
C974 C957 1.574 . S
C974 H968 0.949 . S
C974 C978 1.368 . S
C975 C956 1.429 . S
C975 C969 1.429 . S
C975 C976 1.523 . S
C976 C957 1.368 . S
C976 C970 1.368 . S
C976 C975 1.523 . S
C977 C961 1.429 . S
C977 C973 1.429 . S
C977 C978 1.523 . S
C978 C962 1.368 . S
C978 C974 1.368 . S
C978 C977 1.523 . S
H979 C954 0.950 . S
H980 C956 0.950 . S
H981 C957 0.949 . S
H982 C959 0.950 . S
H983 C961 0.950 . S
C984 C985 1.349 . S
C984 C986 1.327 . S
C984 H1009 0.950 . S
C985 C984 1.349 . S
C985 C1001 1.349 . S
C986 C984 1.327 . S
C986 C1005 1.429 . S
C986 H1010 0.950 . S
C987 C1004 1.574 . S
C987 C1006 1.368 . S
C987 H1011 0.949 . S
H988 C992 0.949 . S
C989 C990 1.349 . S
C989 C991 1.327 . S
C989 H1012 0.950 . S
C990 C989 1.349 . S
C990 C1002 1.349 . S
C991 C989 1.327 . S
C991 C1007 1.429 . S
C991 H1013 0.950 . S
C992 H988 0.949 . S
C992 C1000 1.574 . S
C992 C1008 1.368 . S
H993 C1001 0.950 . S
H994 C999 0.950 . S
H995 C1000 0.949 . S
H996 C1002 0.950 . S
H997 C1003 0.950 . S
H998 C1004 0.949 . S
C999 H994 0.950 . S
C999 C1001 1.327 . S
C999 C1005 1.429 . S
C1000 C992 1.574 . S
C1000 H995 0.949 . S
C1000 C1006 1.368 . S
C1001 C985 1.349 . S
C1001 H993 0.950 . S
C1001 C999 1.327 . S
C1002 C990 1.349 . S
C1002 H996 0.950 . S
C1002 C1003 1.327 . S
C1003 H997 0.950 . S
C1003 C1002 1.327 . S
C1003 C1007 1.429 . S
C1004 C987 1.574 . S
C1004 H998 0.949 . S
C1004 C1008 1.368 . S
C1005 C986 1.429 . S
C1005 C999 1.429 . S
C1005 C1006 1.523 . S
C1006 C987 1.368 . S
C1006 C1000 1.368 . S
C1006 C1005 1.523 . S
C1007 C991 1.429 . S
C1007 C1003 1.429 . S
C1007 C1008 1.523 . S
C1008 C992 1.368 . S
C1008 C1004 1.368 . S
C1008 C1007 1.523 . S
H1009 C984 0.950 . S
H1010 C986 0.950 . S
H1011 C987 0.949 . S
H1012 C989 0.950 . S
H1013 C991 0.950 . S
C1014 C1015 1.349 . S
C1014 C1016 1.327 . S
C1014 H1039 0.950 . S
C1015 C1014 1.349 . S
C1015 C1031 1.349 . S
C1016 C1014 1.327 . S
C1016 C1035 1.429 . S
C1016 H1040 0.950 . S
C1017 C1034 1.574 . S
C1017 C1036 1.368 . S
C1017 H1041 0.949 . S
H1018 C1022 0.949 . S
C1019 C1020 1.349 . S
C1019 C1021 1.327 . S
C1019 H1042 0.950 . S
C1020 C1019 1.349 . S
C1020 C1032 1.349 . S
C1021 C1019 1.327 . S
C1021 C1037 1.429 . S
C1021 H1043 0.950 . S
C1022 H1018 0.949 . S
C1022 C1030 1.574 . S
C1022 C1038 1.368 . S
H1023 C1031 0.950 . S
H1024 C1029 0.950 . S
H1025 C1030 0.949 . S
H1026 C1032 0.950 . S
H1027 C1033 0.950 . S
H1028 C1034 0.949 . S
C1029 H1024 0.950 . S
C1029 C1031 1.327 . S
C1029 C1035 1.429 . S
C1030 C1022 1.574 . S
C1030 H1025 0.949 . S
C1030 C1036 1.368 . S
C1031 C1015 1.349 . S
C1031 H1023 0.950 . S
C1031 C1029 1.327 . S
C1032 C1020 1.349 . S
C1032 H1026 0.950 . S
C1032 C1033 1.327 . S
C1033 H1027 0.950 . S
C1033 C1032 1.327 . S
C1033 C1037 1.429 . S
C1034 C1017 1.574 . S
C1034 H1028 0.949 . S
C1034 C1038 1.368 . S
C1035 C1016 1.429 . S
C1035 C1029 1.429 . S
C1035 C1036 1.523 . S
C1036 C1017 1.368 . S
C1036 C1030 1.368 . S
C1036 C1035 1.523 . S
C1037 C1021 1.429 . S
C1037 C1033 1.429 . S
C1037 C1038 1.523 . S
C1038 C1022 1.368 . S
C1038 C1034 1.368 . S
C1038 C1037 1.523 . S
H1039 C1014 0.950 . S
H1040 C1016 0.950 . S
H1041 C1017 0.949 . S
H1042 C1019 0.950 . S
H1043 C1021 0.950 . S
C1044 C1045 1.349 . S
C1044 C1046 1.327 . S
C1044 H1069 0.950 . S
C1045 C1044 1.349 . S
C1045 C1061 1.349 . S
C1046 C1044 1.327 . S
C1046 C1065 1.429 . S
C1046 H1070 0.950 . S
C1047 C1064 1.574 . S
C1047 C1066 1.368 . S
C1047 H1071 0.949 . S
H1048 C1052 0.949 . S
C1049 C1050 1.349 . S
C1049 C1051 1.327 . S
C1049 H1072 0.950 . S
C1050 C1049 1.349 . S
C1050 C1062 1.349 . S
C1051 C1049 1.327 . S
C1051 C1067 1.429 . S
C1051 H1073 0.950 . S
C1052 H1048 0.949 . S
C1052 C1060 1.574 . S
C1052 C1068 1.368 . S
H1053 C1061 0.950 . S
H1054 C1059 0.950 . S
H1055 C1060 0.949 . S
H1056 C1062 0.950 . S
H1057 C1063 0.950 . S
H1058 C1064 0.949 . S
C1059 H1054 0.950 . S
C1059 C1061 1.327 . S
C1059 C1065 1.429 . S
C1060 C1052 1.574 . S
C1060 H1055 0.949 . S
C1060 C1066 1.368 . S
C1061 C1045 1.349 . S
C1061 H1053 0.950 . S
C1061 C1059 1.327 . S
C1062 C1050 1.349 . S
C1062 H1056 0.950 . S
C1062 C1063 1.327 . S
C1063 H1057 0.950 . S
C1063 C1062 1.327 . S
C1063 C1067 1.429 . S
C1064 C1047 1.574 . S
C1064 H1058 0.949 . S
C1064 C1068 1.368 . S
C1065 C1046 1.429 . S
C1065 C1059 1.429 . S
C1065 C1066 1.523 . S
C1066 C1047 1.368 . S
C1066 C1060 1.368 . S
C1066 C1065 1.523 . S
C1067 C1051 1.429 . S
C1067 C1063 1.429 . S
C1067 C1068 1.523 . S
C1068 C1052 1.368 . S
C1068 C1064 1.368 . S
C1068 C1067 1.523 . S
H1069 C1044 0.950 . S
H1070 C1046 0.950 . S
H1071 C1047 0.949 . S
H1072 C1049 0.950 . S
H1073 C1051 0.950 . S
C1074 C1075 1.349 . S
C1074 C1076 1.327 . S
C1074 H1099 0.950 . S
C1075 C1074 1.349 . S
C1075 C1091 1.349 . S
C1076 C1074 1.327 . S
C1076 C1095 1.429 . S
C1076 H1100 0.950 . S
C1077 C1094 1.574 . S
C1077 C1096 1.368 . S
C1077 H1101 0.949 . S
H1078 C1082 0.949 . S
C1079 C1080 1.349 . S
C1079 C1081 1.327 . S
C1079 H1102 0.950 . S
C1080 C1079 1.349 . S
C1080 C1092 1.349 . S
C1081 C1079 1.327 . S
C1081 C1097 1.429 . S
C1081 H1103 0.950 . S
C1082 H1078 0.949 . S
C1082 C1090 1.574 . S
C1082 C1098 1.368 . S
H1083 C1091 0.950 . S
H1084 C1089 0.950 . S
H1085 C1090 0.949 . S
H1086 C1092 0.950 . S
H1087 C1093 0.950 . S
H1088 C1094 0.949 . S
C1089 H1084 0.950 . S
C1089 C1091 1.327 . S
C1089 C1095 1.429 . S
C1090 C1082 1.574 . S
C1090 H1085 0.949 . S
C1090 C1096 1.368 . S
C1091 C1075 1.349 . S
C1091 H1083 0.950 . S
C1091 C1089 1.327 . S
C1092 C1080 1.349 . S
C1092 H1086 0.950 . S
C1092 C1093 1.327 . S
C1093 H1087 0.950 . S
C1093 C1092 1.327 . S
C1093 C1097 1.429 . S
C1094 C1077 1.574 . S
C1094 H1088 0.949 . S
C1094 C1098 1.368 . S
C1095 C1076 1.429 . S
C1095 C1089 1.429 . S
C1095 C1096 1.523 . S
C1096 C1077 1.368 . S
C1096 C1090 1.368 . S
C1096 C1095 1.523 . S
C1097 C1081 1.429 . S
C1097 C1093 1.429 . S
C1097 C1098 1.523 . S
C1098 C1082 1.368 . S
C1098 C1094 1.368 . S
C1098 C1097 1.523 . S
H1099 C1074 0.950 . S
H1100 C1076 0.950 . S
H1101 C1077 0.949 . S
H1102 C1079 0.950 . S
H1103 C1081 0.950 . S
C1104 C1105 1.349 . S
C1104 C1106 1.327 . S
C1104 H1129 0.950 . S
C1105 C1104 1.349 . S
C1105 C1121 1.349 . S
C1106 C1104 1.327 . S
C1106 C1125 1.429 . S
C1106 H1130 0.950 . S
C1107 C1124 1.574 . S
C1107 C1126 1.368 . S
C1107 H1131 0.949 . S
H1108 C1112 0.949 . S
C1109 C1110 1.349 . S
C1109 C1111 1.327 . S
C1109 H1132 0.950 . S
C1110 C1109 1.349 . S
C1110 C1122 1.349 . S
C1111 C1109 1.327 . S
C1111 C1127 1.429 . S
C1111 H1133 0.950 . S
C1112 H1108 0.949 . S
C1112 C1120 1.574 . S
C1112 C1128 1.368 . S
H1113 C1121 0.950 . S
H1114 C1119 0.950 . S
H1115 C1120 0.949 . S
H1116 C1122 0.950 . S
H1117 C1123 0.950 . S
H1118 C1124 0.949 . S
C1119 H1114 0.950 . S
C1119 C1121 1.327 . S
C1119 C1125 1.429 . S
C1120 C1112 1.574 . S
C1120 H1115 0.949 . S
C1120 C1126 1.368 . S
C1121 C1105 1.349 . S
C1121 H1113 0.950 . S
C1121 C1119 1.327 . S
C1122 C1110 1.349 . S
C1122 H1116 0.950 . S
C1122 C1123 1.327 . S
C1123 H1117 0.950 . S
C1123 C1122 1.327 . S
C1123 C1127 1.429 . S
C1124 C1107 1.574 . S
C1124 H1118 0.949 . S
C1124 C1128 1.368 . S
C1125 C1106 1.429 . S
C1125 C1119 1.429 . S
C1125 C1126 1.523 . S
C1126 C1107 1.368 . S
C1126 C1120 1.368 . S
C1126 C1125 1.523 . S
C1127 C1111 1.429 . S
C1127 C1123 1.429 . S
C1127 C1128 1.523 . S
C1128 C1112 1.368 . S
C1128 C1124 1.368 . S
C1128 C1127 1.523 . S
H1129 C1104 0.950 . S
H1130 C1106 0.950 . S
H1131 C1107 0.949 . S
H1132 C1109 0.950 . S
H1133 C1111 0.950 . S
C1134 C1135 1.349 . S
C1134 C1136 1.327 . S
C1134 H1159 0.950 . S
C1135 C1134 1.349 . S
C1135 C1151 1.349 . S
C1136 C1134 1.327 . S
C1136 C1155 1.429 . S
C1136 H1160 0.950 . S
C1137 C1154 1.574 . S
C1137 C1156 1.368 . S
C1137 H1161 0.949 . S
H1138 C1142 0.949 . S
C1139 C1140 1.349 . S
C1139 C1141 1.327 . S
C1139 H1162 0.950 . S
C1140 C1139 1.349 . S
C1140 C1152 1.349 . S
C1141 C1139 1.327 . S
C1141 C1157 1.429 . S
C1141 H1163 0.950 . S
C1142 H1138 0.949 . S
C1142 C1150 1.574 . S
C1142 C1158 1.368 . S
H1143 C1151 0.950 . S
H1144 C1149 0.950 . S
H1145 C1150 0.949 . S
H1146 C1152 0.950 . S
H1147 C1153 0.950 . S
H1148 C1154 0.949 . S
C1149 H1144 0.950 . S
C1149 C1151 1.327 . S
C1149 C1155 1.429 . S
C1150 C1142 1.574 . S
C1150 H1145 0.949 . S
C1150 C1156 1.368 . S
C1151 C1135 1.349 . S
C1151 H1143 0.950 . S
C1151 C1149 1.327 . S
C1152 C1140 1.349 . S
C1152 H1146 0.950 . S
C1152 C1153 1.327 . S
C1153 H1147 0.950 . S
C1153 C1152 1.327 . S
C1153 C1157 1.429 . S
C1154 C1137 1.574 . S
C1154 H1148 0.949 . S
C1154 C1158 1.368 . S
C1155 C1136 1.429 . S
C1155 C1149 1.429 . S
C1155 C1156 1.523 . S
C1156 C1137 1.368 . S
C1156 C1150 1.368 . S
C1156 C1155 1.523 . S
C1157 C1141 1.429 . S
C1157 C1153 1.429 . S
C1157 C1158 1.523 . S
C1158 C1142 1.368 . S
C1158 C1154 1.368 . S
C1158 C1157 1.523 . S
H1159 C1134 0.950 . S
H1160 C1136 0.950 . S
H1161 C1137 0.949 . S
H1162 C1139 0.950 . S
H1163 C1141 0.950 . S
C1164 C1165 1.349 . S
C1164 C1166 1.327 . S
C1164 H1189 0.950 . S
C1165 C1164 1.349 . S
C1165 C1181 1.349 . S
C1166 C1164 1.327 . S
C1166 C1185 1.429 . S
C1166 H1190 0.950 . S
C1167 C1184 1.574 . S
C1167 C1186 1.368 . S
C1167 H1191 0.949 . S
H1168 C1172 0.949 . S
C1169 C1170 1.349 . S
C1169 C1171 1.327 . S
C1169 H1192 0.950 . S
C1170 C1169 1.349 . S
C1170 C1182 1.349 . S
C1171 C1169 1.327 . S
C1171 C1187 1.429 . S
C1171 H1193 0.950 . S
C1172 H1168 0.949 . S
C1172 C1180 1.574 . S
C1172 C1188 1.368 . S
H1173 C1181 0.950 . S
H1174 C1179 0.950 . S
H1175 C1180 0.949 . S
H1176 C1182 0.950 . S
H1177 C1183 0.950 . S
H1178 C1184 0.949 . S
C1179 H1174 0.950 . S
C1179 C1181 1.327 . S
C1179 C1185 1.429 . S
C1180 C1172 1.574 . S
C1180 H1175 0.949 . S
C1180 C1186 1.368 . S
C1181 C1165 1.349 . S
C1181 H1173 0.950 . S
C1181 C1179 1.327 . S
C1182 C1170 1.349 . S
C1182 H1176 0.950 . S
C1182 C1183 1.327 . S
C1183 H1177 0.950 . S
C1183 C1182 1.327 . S
C1183 C1187 1.429 . S
C1184 C1167 1.574 . S
C1184 H1178 0.949 . S
C1184 C1188 1.368 . S
C1185 C1166 1.429 . S
C1185 C1179 1.429 . S
C1185 C1186 1.523 . S
C1186 C1167 1.368 . S
C1186 C1180 1.368 . S
C1186 C1185 1.523 . S
C1187 C1171 1.429 . S
C1187 C1183 1.429 . S
C1187 C1188 1.523 . S
C1188 C1172 1.368 . S
C1188 C1184 1.368 . S
C1188 C1187 1.523 . S
H1189 C1164 0.950 . S
H1190 C1166 0.950 . S
H1191 C1167 0.949 . S
H1192 C1169 0.950 . S
H1193 C1171 0.950 . S
C1194 C1195 1.349 . S
C1194 C1196 1.327 . S
C1194 H1219 0.950 . S
C1195 C1194 1.349 . S
C1195 C1211 1.349 . S
C1196 C1194 1.327 . S
C1196 C1215 1.429 . S
C1196 H1220 0.950 . S
C1197 C1214 1.574 . S
C1197 C1216 1.368 . S
C1197 H1221 0.949 . S
H1198 C1202 0.949 . S
C1199 C1200 1.349 . S
C1199 C1201 1.327 . S
C1199 H1222 0.950 . S
C1200 C1199 1.349 . S
C1200 C1212 1.349 . S
C1201 C1199 1.327 . S
C1201 C1217 1.429 . S
C1201 H1223 0.950 . S
C1202 H1198 0.949 . S
C1202 C1210 1.574 . S
C1202 C1218 1.368 . S
H1203 C1211 0.950 . S
H1204 C1209 0.950 . S
H1205 C1210 0.949 . S
H1206 C1212 0.950 . S
H1207 C1213 0.950 . S
H1208 C1214 0.949 . S
C1209 H1204 0.950 . S
C1209 C1211 1.327 . S
C1209 C1215 1.429 . S
C1210 C1202 1.574 . S
C1210 H1205 0.949 . S
C1210 C1216 1.368 . S
C1211 C1195 1.349 . S
C1211 H1203 0.950 . S
C1211 C1209 1.327 . S
C1212 C1200 1.349 . S
C1212 H1206 0.950 . S
C1212 C1213 1.327 . S
C1213 H1207 0.950 . S
C1213 C1212 1.327 . S
C1213 C1217 1.429 . S
C1214 C1197 1.574 . S
C1214 H1208 0.949 . S
C1214 C1218 1.368 . S
C1215 C1196 1.429 . S
C1215 C1209 1.429 . S
C1215 C1216 1.523 . S
C1216 C1197 1.368 . S
C1216 C1210 1.368 . S
C1216 C1215 1.523 . S
C1217 C1201 1.429 . S
C1217 C1213 1.429 . S
C1217 C1218 1.523 . S
C1218 C1202 1.368 . S
C1218 C1214 1.368 . S
C1218 C1217 1.523 . S
H1219 C1194 0.950 . S
H1220 C1196 0.950 . S
H1221 C1197 0.949 . S
H1222 C1199 0.950 . S
H1223 C1201 0.950 . S
C1224 C1225 1.349 . S
C1224 C1226 1.327 . S
C1224 H1249 0.950 . S
C1225 C1224 1.349 . S
C1225 C1241 1.349 . S
C1226 C1224 1.327 . S
C1226 C1245 1.429 . S
C1226 H1250 0.950 . S
C1227 C1244 1.574 . S
C1227 C1246 1.368 . S
C1227 H1251 0.949 . S
H1228 C1232 0.949 . S
C1229 C1230 1.349 . S
C1229 C1231 1.327 . S
C1229 H1252 0.950 . S
C1230 C1229 1.349 . S
C1230 C1242 1.349 . S
C1231 C1229 1.327 . S
C1231 C1247 1.429 . S
C1231 H1253 0.950 . S
C1232 H1228 0.949 . S
C1232 C1240 1.574 . S
C1232 C1248 1.368 . S
H1233 C1241 0.950 . S
H1234 C1239 0.950 . S
H1235 C1240 0.949 . S
H1236 C1242 0.950 . S
H1237 C1243 0.950 . S
H1238 C1244 0.949 . S
C1239 H1234 0.950 . S
C1239 C1241 1.327 . S
C1239 C1245 1.429 . S
C1240 C1232 1.574 . S
C1240 H1235 0.949 . S
C1240 C1246 1.368 . S
C1241 C1225 1.349 . S
C1241 H1233 0.950 . S
C1241 C1239 1.327 . S
C1242 C1230 1.349 . S
C1242 H1236 0.950 . S
C1242 C1243 1.327 . S
C1243 H1237 0.950 . S
C1243 C1242 1.327 . S
C1243 C1247 1.429 . S
C1244 C1227 1.574 . S
C1244 H1238 0.949 . S
C1244 C1248 1.368 . S
C1245 C1226 1.429 . S
C1245 C1239 1.429 . S
C1245 C1246 1.523 . S
C1246 C1227 1.368 . S
C1246 C1240 1.368 . S
C1246 C1245 1.523 . S
C1247 C1231 1.429 . S
C1247 C1243 1.429 . S
C1247 C1248 1.523 . S
C1248 C1232 1.368 . S
C1248 C1244 1.368 . S
C1248 C1247 1.523 . S
H1249 C1224 0.950 . S
H1250 C1226 0.950 . S
H1251 C1227 0.949 . S
H1252 C1229 0.950 . S
H1253 C1231 0.950 . S
C1254 C1255 1.349 . S
C1254 C1256 1.327 . S
C1254 H1279 0.950 . S
C1255 C1254 1.349 . S
C1255 C1271 1.349 . S
C1256 C1254 1.327 . S
C1256 C1275 1.429 . S
C1256 H1280 0.950 . S
C1257 C1274 1.574 . S
C1257 C1276 1.368 . S
C1257 H1281 0.949 . S
H1258 C1262 0.949 . S
C1259 C1260 1.349 . S
C1259 C1261 1.327 . S
C1259 H1282 0.950 . S
C1260 C1259 1.349 . S
C1260 C1272 1.349 . S
C1261 C1259 1.327 . S
C1261 C1277 1.429 . S
C1261 H1283 0.950 . S
C1262 H1258 0.949 . S
C1262 C1270 1.574 . S
C1262 C1278 1.368 . S
H1263 C1271 0.950 . S
H1264 C1269 0.950 . S
H1265 C1270 0.949 . S
H1266 C1272 0.950 . S
H1267 C1273 0.950 . S
H1268 C1274 0.949 . S
C1269 H1264 0.950 . S
C1269 C1271 1.327 . S
C1269 C1275 1.429 . S
C1270 C1262 1.574 . S
C1270 H1265 0.949 . S
C1270 C1276 1.368 . S
C1271 C1255 1.349 . S
C1271 H1263 0.950 . S
C1271 C1269 1.327 . S
C1272 C1260 1.349 . S
C1272 H1266 0.950 . S
C1272 C1273 1.327 . S
C1273 H1267 0.950 . S
C1273 C1272 1.327 . S
C1273 C1277 1.429 . S
C1274 C1257 1.574 . S
C1274 H1268 0.949 . S
C1274 C1278 1.368 . S
C1275 C1256 1.429 . S
C1275 C1269 1.429 . S
C1275 C1276 1.523 . S
C1276 C1257 1.368 . S
C1276 C1270 1.368 . S
C1276 C1275 1.523 . S
C1277 C1261 1.429 . S
C1277 C1273 1.429 . S
C1277 C1278 1.523 . S
C1278 C1262 1.368 . S
C1278 C1274 1.368 . S
C1278 C1277 1.523 . S
H1279 C1254 0.950 . S
H1280 C1256 0.950 . S
H1281 C1257 0.949 . S
H1282 C1259 0.950 . S
H1283 C1261 0.950 . S
C1284 C1285 1.349 . S
C1284 C1286 1.327 . S
C1284 H1309 0.950 . S
C1285 C1284 1.349 . S
C1285 C1301 1.349 . S
C1286 C1284 1.327 . S
C1286 C1305 1.429 . S
C1286 H1310 0.950 . S
C1287 C1304 1.574 . S
C1287 C1306 1.368 . S
C1287 H1311 0.949 . S
H1288 C1292 0.949 . S
C1289 C1290 1.349 . S
C1289 C1291 1.327 . S
C1289 H1312 0.950 . S
C1290 C1289 1.349 . S
C1290 C1302 1.349 . S
C1291 C1289 1.327 . S
C1291 C1307 1.429 . S
C1291 H1313 0.950 . S
C1292 H1288 0.949 . S
C1292 C1300 1.574 . S
C1292 C1308 1.368 . S
H1293 C1301 0.950 . S
H1294 C1299 0.950 . S
H1295 C1300 0.949 . S
H1296 C1302 0.950 . S
H1297 C1303 0.950 . S
H1298 C1304 0.949 . S
C1299 H1294 0.950 . S
C1299 C1301 1.327 . S
C1299 C1305 1.429 . S
C1300 C1292 1.574 . S
C1300 H1295 0.949 . S
C1300 C1306 1.368 . S
C1301 C1285 1.349 . S
C1301 H1293 0.950 . S
C1301 C1299 1.327 . S
C1302 C1290 1.349 . S
C1302 H1296 0.950 . S
C1302 C1303 1.327 . S
C1303 H1297 0.950 . S
C1303 C1302 1.327 . S
C1303 C1307 1.429 . S
C1304 C1287 1.574 . S
C1304 H1298 0.949 . S
C1304 C1308 1.368 . S
C1305 C1286 1.429 . S
C1305 C1299 1.429 . S
C1305 C1306 1.523 . S
C1306 C1287 1.368 . S
C1306 C1300 1.368 . S
C1306 C1305 1.523 . S
C1307 C1291 1.429 . S
C1307 C1303 1.429 . S
C1307 C1308 1.523 . S
C1308 C1292 1.368 . S
C1308 C1304 1.368 . S
C1308 C1307 1.523 . S
H1309 C1284 0.950 . S
H1310 C1286 0.950 . S
H1311 C1287 0.949 . S
H1312 C1289 0.950 . S
H1313 C1291 0.950 . S
C1314 C1315 1.349 . S
C1314 C1316 1.327 . S
C1314 H1339 0.950 . S
C1315 C1314 1.349 . S
C1315 C1331 1.349 . S
C1316 C1314 1.327 . S
C1316 C1335 1.429 . S
C1316 H1340 0.950 . S
C1317 C1334 1.574 . S
C1317 C1336 1.368 . S
C1317 H1341 0.949 . S
H1318 C1322 0.949 . S
C1319 C1320 1.349 . S
C1319 C1321 1.327 . S
C1319 H1342 0.950 . S
C1320 C1319 1.349 . S
C1320 C1332 1.349 . S
C1321 C1319 1.327 . S
C1321 C1337 1.429 . S
C1321 H1343 0.950 . S
C1322 H1318 0.949 . S
C1322 C1330 1.574 . S
C1322 C1338 1.368 . S
H1323 C1331 0.950 . S
H1324 C1329 0.950 . S
H1325 C1330 0.949 . S
H1326 C1332 0.950 . S
H1327 C1333 0.950 . S
H1328 C1334 0.949 . S
C1329 H1324 0.950 . S
C1329 C1331 1.327 . S
C1329 C1335 1.429 . S
C1330 C1322 1.574 . S
C1330 H1325 0.949 . S
C1330 C1336 1.368 . S
C1331 C1315 1.349 . S
C1331 H1323 0.950 . S
C1331 C1329 1.327 . S
C1332 C1320 1.349 . S
C1332 H1326 0.950 . S
C1332 C1333 1.327 . S
C1333 H1327 0.950 . S
C1333 C1332 1.327 . S
C1333 C1337 1.429 . S
C1334 C1317 1.574 . S
C1334 H1328 0.949 . S
C1334 C1338 1.368 . S
C1335 C1316 1.429 . S
C1335 C1329 1.429 . S
C1335 C1336 1.523 . S
C1336 C1317 1.368 . S
C1336 C1330 1.368 . S
C1336 C1335 1.523 . S
C1337 C1321 1.429 . S
C1337 C1333 1.429 . S
C1337 C1338 1.523 . S
C1338 C1322 1.368 . S
C1338 C1334 1.368 . S
C1338 C1337 1.523 . S
H1339 C1314 0.950 . S
H1340 C1316 0.950 . S
H1341 C1317 0.949 . S
H1342 C1319 0.950 . S
H1343 C1321 0.950 . S
C1344 C1345 1.349 . S
C1344 C1346 1.327 . S
C1344 H1369 0.950 . S
C1345 C1344 1.349 . S
C1345 C1361 1.349 . S
C1346 C1344 1.327 . S
C1346 C1365 1.429 . S
C1346 H1370 0.950 . S
C1347 C1364 1.574 . S
C1347 C1366 1.368 . S
C1347 H1371 0.949 . S
H1348 C1352 0.949 . S
C1349 C1350 1.349 . S
C1349 C1351 1.327 . S
C1349 H1372 0.950 . S
C1350 C1349 1.349 . S
C1350 C1362 1.349 . S
C1351 C1349 1.327 . S
C1351 C1367 1.429 . S
C1351 H1373 0.950 . S
C1352 H1348 0.949 . S
C1352 C1360 1.574 . S
C1352 C1368 1.368 . S
H1353 C1361 0.950 . S
H1354 C1359 0.950 . S
H1355 C1360 0.949 . S
H1356 C1362 0.950 . S
H1357 C1363 0.950 . S
H1358 C1364 0.949 . S
C1359 H1354 0.950 . S
C1359 C1361 1.327 . S
C1359 C1365 1.429 . S
C1360 C1352 1.574 . S
C1360 H1355 0.949 . S
C1360 C1366 1.368 . S
C1361 C1345 1.349 . S
C1361 H1353 0.950 . S
C1361 C1359 1.327 . S
C1362 C1350 1.349 . S
C1362 H1356 0.950 . S
C1362 C1363 1.327 . S
C1363 H1357 0.950 . S
C1363 C1362 1.327 . S
C1363 C1367 1.429 . S
C1364 C1347 1.574 . S
C1364 H1358 0.949 . S
C1364 C1368 1.368 . S
C1365 C1346 1.429 . S
C1365 C1359 1.429 . S
C1365 C1366 1.523 . S
C1366 C1347 1.368 . S
C1366 C1360 1.368 . S
C1366 C1365 1.523 . S
C1367 C1351 1.429 . S
C1367 C1363 1.429 . S
C1367 C1368 1.523 . S
C1368 C1352 1.368 . S
C1368 C1364 1.368 . S
C1368 C1367 1.523 . S
H1369 C1344 0.950 . S
H1370 C1346 0.950 . S
H1371 C1347 0.949 . S
H1372 C1349 0.950 . S
H1373 C1351 0.950 . S
C1374 C1375 1.349 . S
C1374 C1376 1.327 . S
C1374 H1399 0.950 . S
C1375 C1374 1.349 . S
C1375 C1391 1.349 . S
C1376 C1374 1.327 . S
C1376 C1395 1.429 . S
C1376 H1400 0.950 . S
C1377 C1394 1.574 . S
C1377 C1396 1.368 . S
C1377 H1401 0.949 . S
H1378 C1382 0.949 . S
C1379 C1380 1.349 . S
C1379 C1381 1.327 . S
C1379 H1402 0.950 . S
C1380 C1379 1.349 . S
C1380 C1392 1.349 . S
C1381 C1379 1.327 . S
C1381 C1397 1.429 . S
C1381 H1403 0.950 . S
C1382 H1378 0.949 . S
C1382 C1390 1.574 . S
C1382 C1398 1.368 . S
H1383 C1391 0.950 . S
H1384 C1389 0.950 . S
H1385 C1390 0.949 . S
H1386 C1392 0.950 . S
H1387 C1393 0.950 . S
H1388 C1394 0.949 . S
C1389 H1384 0.950 . S
C1389 C1391 1.327 . S
C1389 C1395 1.429 . S
C1390 C1382 1.574 . S
C1390 H1385 0.949 . S
C1390 C1396 1.368 . S
C1391 C1375 1.349 . S
C1391 H1383 0.950 . S
C1391 C1389 1.327 . S
C1392 C1380 1.349 . S
C1392 H1386 0.950 . S
C1392 C1393 1.327 . S
C1393 H1387 0.950 . S
C1393 C1392 1.327 . S
C1393 C1397 1.429 . S
C1394 C1377 1.574 . S
C1394 H1388 0.949 . S
C1394 C1398 1.368 . S
C1395 C1376 1.429 . S
C1395 C1389 1.429 . S
C1395 C1396 1.523 . S
C1396 C1377 1.368 . S
C1396 C1390 1.368 . S
C1396 C1395 1.523 . S
C1397 C1381 1.429 . S
C1397 C1393 1.429 . S
C1397 C1398 1.523 . S
C1398 C1382 1.368 . S
C1398 C1394 1.368 . S
C1398 C1397 1.523 . S
H1399 C1374 0.950 . S
H1400 C1376 0.950 . S
H1401 C1377 0.949 . S
H1402 C1379 0.950 . S
H1403 C1381 0.950 . S
C1404 C1405 1.349 . S
C1404 C1406 1.327 . S
C1404 H1429 0.950 . S
C1405 C1404 1.349 . S
C1405 C1421 1.349 . S
C1406 C1404 1.327 . S
C1406 C1425 1.429 . S
C1406 H1430 0.950 . S
C1407 C1424 1.574 . S
C1407 C1426 1.368 . S
C1407 H1431 0.949 . S
H1408 C1412 0.949 . S
C1409 C1410 1.349 . S
C1409 C1411 1.327 . S
C1409 H1432 0.950 . S
C1410 C1409 1.349 . S
C1410 C1422 1.349 . S
C1411 C1409 1.327 . S
C1411 C1427 1.429 . S
C1411 H1433 0.950 . S
C1412 H1408 0.949 . S
C1412 C1420 1.574 . S
C1412 C1428 1.368 . S
H1413 C1421 0.950 . S
H1414 C1419 0.950 . S
H1415 C1420 0.949 . S
H1416 C1422 0.950 . S
H1417 C1423 0.950 . S
H1418 C1424 0.949 . S
C1419 H1414 0.950 . S
C1419 C1421 1.327 . S
C1419 C1425 1.429 . S
C1420 C1412 1.574 . S
C1420 H1415 0.949 . S
C1420 C1426 1.368 . S
C1421 C1405 1.349 . S
C1421 H1413 0.950 . S
C1421 C1419 1.327 . S
C1422 C1410 1.349 . S
C1422 H1416 0.950 . S
C1422 C1423 1.327 . S
C1423 H1417 0.950 . S
C1423 C1422 1.327 . S
C1423 C1427 1.429 . S
C1424 C1407 1.574 . S
C1424 H1418 0.949 . S
C1424 C1428 1.368 . S
C1425 C1406 1.429 . S
C1425 C1419 1.429 . S
C1425 C1426 1.523 . S
C1426 C1407 1.368 . S
C1426 C1420 1.368 . S
C1426 C1425 1.523 . S
C1427 C1411 1.429 . S
C1427 C1423 1.429 . S
C1427 C1428 1.523 . S
C1428 C1412 1.368 . S
C1428 C1424 1.368 . S
C1428 C1427 1.523 . S
H1429 C1404 0.950 . S
H1430 C1406 0.950 . S
H1431 C1407 0.949 . S
H1432 C1409 0.950 . S
H1433 C1411 0.950 . S
C1434 C1435 1.349 . S
C1434 C1436 1.327 . S
C1434 H1459 0.950 . S
C1435 C1434 1.349 . S
C1435 C1451 1.349 . S
C1436 C1434 1.327 . S
C1436 C1455 1.429 . S
C1436 H1460 0.950 . S
C1437 C1454 1.574 . S
C1437 C1456 1.368 . S
C1437 H1461 0.949 . S
H1438 C1442 0.949 . S
C1439 C1440 1.349 . S
C1439 C1441 1.327 . S
C1439 H1462 0.950 . S
C1440 C1439 1.349 . S
C1440 C1452 1.349 . S
C1441 C1439 1.327 . S
C1441 C1457 1.429 . S
C1441 H1463 0.950 . S
C1442 H1438 0.949 . S
C1442 C1450 1.574 . S
C1442 C1458 1.368 . S
H1443 C1451 0.950 . S
H1444 C1449 0.950 . S
H1445 C1450 0.949 . S
H1446 C1452 0.950 . S
H1447 C1453 0.950 . S
H1448 C1454 0.949 . S
C1449 H1444 0.950 . S
C1449 C1451 1.327 . S
C1449 C1455 1.429 . S
C1450 C1442 1.574 . S
C1450 H1445 0.949 . S
C1450 C1456 1.368 . S
C1451 C1435 1.349 . S
C1451 H1443 0.950 . S
C1451 C1449 1.327 . S
C1452 C1440 1.349 . S
C1452 H1446 0.950 . S
C1452 C1453 1.327 . S
C1453 H1447 0.950 . S
C1453 C1452 1.327 . S
C1453 C1457 1.429 . S
C1454 C1437 1.574 . S
C1454 H1448 0.949 . S
C1454 C1458 1.368 . S
C1455 C1436 1.429 . S
C1455 C1449 1.429 . S
C1455 C1456 1.523 . S
C1456 C1437 1.368 . S
C1456 C1450 1.368 . S
C1456 C1455 1.523 . S
C1457 C1441 1.429 . S
C1457 C1453 1.429 . S
C1457 C1458 1.523 . S
C1458 C1442 1.368 . S
C1458 C1454 1.368 . S
C1458 C1457 1.523 . S
H1459 C1434 0.950 . S
H1460 C1436 0.950 . S
H1461 C1437 0.949 . S
H1462 C1439 0.950 . S
H1463 C1441 0.950 . S
C1464 C1465 1.349 . S
C1464 C1466 1.327 . S
C1464 H1489 0.950 . S
C1465 C1464 1.349 . S
C1465 C1481 1.349 . S
C1466 C1464 1.327 . S
C1466 C1485 1.429 . S
C1466 H1490 0.950 . S
C1467 C1484 1.574 . S
C1467 C1486 1.368 . S
C1467 H1491 0.949 . S
H1468 C1472 0.949 . S
C1469 C1470 1.349 . S
C1469 C1471 1.327 . S
C1469 H1492 0.950 . S
C1470 C1469 1.349 . S
C1470 C1482 1.349 . S
C1471 C1469 1.327 . S
C1471 C1487 1.429 . S
C1471 H1493 0.950 . S
C1472 H1468 0.949 . S
C1472 C1480 1.574 . S
C1472 C1488 1.368 . S
H1473 C1481 0.950 . S
H1474 C1479 0.950 . S
H1475 C1480 0.949 . S
H1476 C1482 0.950 . S
H1477 C1483 0.950 . S
H1478 C1484 0.949 . S
C1479 H1474 0.950 . S
C1479 C1481 1.327 . S
C1479 C1485 1.429 . S
C1480 C1472 1.574 . S
C1480 H1475 0.949 . S
C1480 C1486 1.368 . S
C1481 C1465 1.349 . S
C1481 H1473 0.950 . S
C1481 C1479 1.327 . S
C1482 C1470 1.349 . S
C1482 H1476 0.950 . S
C1482 C1483 1.327 . S
C1483 H1477 0.950 . S
C1483 C1482 1.327 . S
C1483 C1487 1.429 . S
C1484 C1467 1.574 . S
C1484 H1478 0.949 . S
C1484 C1488 1.368 . S
C1485 C1466 1.429 . S
C1485 C1479 1.429 . S
C1485 C1486 1.523 . S
C1486 C1467 1.368 . S
C1486 C1480 1.368 . S
C1486 C1485 1.523 . S
C1487 C1471 1.429 . S
C1487 C1483 1.429 . S
C1487 C1488 1.523 . S
C1488 C1472 1.368 . S
C1488 C1484 1.368 . S
C1488 C1487 1.523 . S
H1489 C1464 0.950 . S
H1490 C1466 0.950 . S
H1491 C1467 0.949 . S
H1492 C1469 0.950 . S
H1493 C1471 0.950 . S
C1494 C1495 1.349 . S
C1494 C1496 1.327 . S
C1494 H1519 0.950 . S
C1495 C1494 1.349 . S
C1495 C1511 1.349 . S
C1496 C1494 1.327 . S
C1496 C1515 1.429 . S
C1496 H1520 0.950 . S
C1497 C1514 1.574 . S
C1497 C1516 1.368 . S
C1497 H1521 0.949 . S
H1498 C1502 0.949 . S
C1499 C1500 1.349 . S
C1499 C1501 1.327 . S
C1499 H1522 0.950 . S
C1500 C1499 1.349 . S
C1500 C1512 1.349 . S
C1501 C1499 1.327 . S
C1501 C1517 1.429 . S
C1501 H1523 0.950 . S
C1502 H1498 0.949 . S
C1502 C1510 1.574 . S
C1502 C1518 1.368 . S
H1503 C1511 0.950 . S
H1504 C1509 0.950 . S
H1505 C1510 0.949 . S
H1506 C1512 0.950 . S
H1507 C1513 0.950 . S
H1508 C1514 0.949 . S
C1509 H1504 0.950 . S
C1509 C1511 1.327 . S
C1509 C1515 1.429 . S
C1510 C1502 1.574 . S
C1510 H1505 0.949 . S
C1510 C1516 1.368 . S
C1511 C1495 1.349 . S
C1511 H1503 0.950 . S
C1511 C1509 1.327 . S
C1512 C1500 1.349 . S
C1512 H1506 0.950 . S
C1512 C1513 1.327 . S
C1513 H1507 0.950 . S
C1513 C1512 1.327 . S
C1513 C1517 1.429 . S
C1514 C1497 1.574 . S
C1514 H1508 0.949 . S
C1514 C1518 1.368 . S
C1515 C1496 1.429 . S
C1515 C1509 1.429 . S
C1515 C1516 1.523 . S
C1516 C1497 1.368 . S
C1516 C1510 1.368 . S
C1516 C1515 1.523 . S
C1517 C1501 1.429 . S
C1517 C1513 1.429 . S
C1517 C1518 1.523 . S
C1518 C1502 1.368 . S
C1518 C1514 1.368 . S
C1518 C1517 1.523 . S
H1519 C1494 0.950 . S
H1520 C1496 0.950 . S
H1521 C1497 0.949 . S
H1522 C1499 0.950 . S
H1523 C1501 0.950 . S
C1524 C1525 1.349 . S
C1524 C1526 1.327 . S
C1524 H1549 0.950 . S
C1525 C1524 1.349 . S
C1525 C1541 1.349 . S
C1526 C1524 1.327 . S
C1526 C1545 1.429 . S
C1526 H1550 0.950 . S
C1527 C1544 1.574 . S
C1527 C1546 1.368 . S
C1527 H1551 0.949 . S
H1528 C1532 0.949 . S
C1529 C1530 1.349 . S
C1529 C1531 1.327 . S
C1529 H1552 0.950 . S
C1530 C1529 1.349 . S
C1530 C1542 1.349 . S
C1531 C1529 1.327 . S
C1531 C1547 1.429 . S
C1531 H1553 0.950 . S
C1532 H1528 0.949 . S
C1532 C1540 1.574 . S
C1532 C1548 1.368 . S
H1533 C1541 0.950 . S
H1534 C1539 0.950 . S
H1535 C1540 0.949 . S
H1536 C1542 0.950 . S
H1537 C1543 0.950 . S
H1538 C1544 0.949 . S
C1539 H1534 0.950 . S
C1539 C1541 1.327 . S
C1539 C1545 1.429 . S
C1540 C1532 1.574 . S
C1540 H1535 0.949 . S
C1540 C1546 1.368 . S
C1541 C1525 1.349 . S
C1541 H1533 0.950 . S
C1541 C1539 1.327 . S
C1542 C1530 1.349 . S
C1542 H1536 0.950 . S
C1542 C1543 1.327 . S
C1543 H1537 0.950 . S
C1543 C1542 1.327 . S
C1543 C1547 1.429 . S
C1544 C1527 1.574 . S
C1544 H1538 0.949 . S
C1544 C1548 1.368 . S
C1545 C1526 1.429 . S
C1545 C1539 1.429 . S
C1545 C1546 1.523 . S
C1546 C1527 1.368 . S
C1546 C1540 1.368 . S
C1546 C1545 1.523 . S
C1547 C1531 1.429 . S
C1547 C1543 1.429 . S
C1547 C1548 1.523 . S
C1548 C1532 1.368 . S
C1548 C1544 1.368 . S
C1548 C1547 1.523 . S
H1549 C1524 0.950 . S
H1550 C1526 0.950 . S
H1551 C1527 0.949 . S
H1552 C1529 0.950 . S
H1553 C1531 0.950 . S
C1554 C1555 1.349 . S
C1554 C1556 1.327 . S
C1554 H1579 0.950 . S
C1555 C1554 1.349 . S
C1555 C1571 1.349 . S
C1556 C1554 1.327 . S
C1556 C1575 1.429 . S
C1556 H1580 0.950 . S
C1557 C1574 1.574 . S
C1557 C1576 1.368 . S
C1557 H1581 0.949 . S
H1558 C1562 0.949 . S
C1559 C1560 1.349 . S
C1559 C1561 1.327 . S
C1559 H1582 0.950 . S
C1560 C1559 1.349 . S
C1560 C1572 1.349 . S
C1561 C1559 1.327 . S
C1561 C1577 1.429 . S
C1561 H1583 0.950 . S
C1562 H1558 0.949 . S
C1562 C1570 1.574 . S
C1562 C1578 1.368 . S
H1563 C1571 0.950 . S
H1564 C1569 0.950 . S
H1565 C1570 0.949 . S
H1566 C1572 0.950 . S
H1567 C1573 0.950 . S
H1568 C1574 0.949 . S
C1569 H1564 0.950 . S
C1569 C1571 1.327 . S
C1569 C1575 1.429 . S
C1570 C1562 1.574 . S
C1570 H1565 0.949 . S
C1570 C1576 1.368 . S
C1571 C1555 1.349 . S
C1571 H1563 0.950 . S
C1571 C1569 1.327 . S
C1572 C1560 1.349 . S
C1572 H1566 0.950 . S
C1572 C1573 1.327 . S
C1573 H1567 0.950 . S
C1573 C1572 1.327 . S
C1573 C1577 1.429 . S
C1574 C1557 1.574 . S
C1574 H1568 0.949 . S
C1574 C1578 1.368 . S
C1575 C1556 1.429 . S
C1575 C1569 1.429 . S
C1575 C1576 1.523 . S
C1576 C1557 1.368 . S
C1576 C1570 1.368 . S
C1576 C1575 1.523 . S
C1577 C1561 1.429 . S
C1577 C1573 1.429 . S
C1577 C1578 1.523 . S
C1578 C1562 1.368 . S
C1578 C1574 1.368 . S
C1578 C1577 1.523 . S
H1579 C1554 0.950 . S
H1580 C1556 0.950 . S
H1581 C1557 0.949 . S
H1582 C1559 0.950 . S
H1583 C1561 0.950 . S
C1584 C1585 1.349 . S
C1584 C1586 1.327 . S
C1584 H1609 0.950 . S
C1585 C1584 1.349 . S
C1585 C1601 1.349 . S
C1586 C1584 1.327 . S
C1586 C1605 1.429 . S
C1586 H1610 0.950 . S
C1587 C1604 1.574 . S
C1587 C1606 1.368 . S
C1587 H1611 0.949 . S
H1588 C1592 0.949 . S
C1589 C1590 1.349 . S
C1589 C1591 1.327 . S
C1589 H1612 0.950 . S
C1590 C1589 1.349 . S
C1590 C1602 1.349 . S
C1591 C1589 1.327 . S
C1591 C1607 1.429 . S
C1591 H1613 0.950 . S
C1592 H1588 0.949 . S
C1592 C1600 1.574 . S
C1592 C1608 1.368 . S
H1593 C1601 0.950 . S
H1594 C1599 0.950 . S
H1595 C1600 0.949 . S
H1596 C1602 0.950 . S
H1597 C1603 0.950 . S
H1598 C1604 0.949 . S
C1599 H1594 0.950 . S
C1599 C1601 1.327 . S
C1599 C1605 1.429 . S
C1600 C1592 1.574 . S
C1600 H1595 0.949 . S
C1600 C1606 1.368 . S
C1601 C1585 1.349 . S
C1601 H1593 0.950 . S
C1601 C1599 1.327 . S
C1602 C1590 1.349 . S
C1602 H1596 0.950 . S
C1602 C1603 1.327 . S
C1603 H1597 0.950 . S
C1603 C1602 1.327 . S
C1603 C1607 1.429 . S
C1604 C1587 1.574 . S
C1604 H1598 0.949 . S
C1604 C1608 1.368 . S
C1605 C1586 1.429 . S
C1605 C1599 1.429 . S
C1605 C1606 1.523 . S
C1606 C1587 1.368 . S
C1606 C1600 1.368 . S
C1606 C1605 1.523 . S
C1607 C1591 1.429 . S
C1607 C1603 1.429 . S
C1607 C1608 1.523 . S
C1608 C1592 1.368 . S
C1608 C1604 1.368 . S
C1608 C1607 1.523 . S
H1609 C1584 0.950 . S
H1610 C1586 0.950 . S
H1611 C1587 0.949 . S
H1612 C1589 0.950 . S
H1613 C1591 0.950 . S
C1614 C1615 1.349 . S
C1614 C1616 1.327 . S
C1614 H1639 0.950 . S
C1615 C1614 1.349 . S
C1615 C1631 1.349 1_545 S
C1616 C1614 1.327 . S
C1616 C1635 1.429 . S
C1616 H1640 0.950 . S
C1617 C1634 1.574 . S
C1617 C1636 1.368 1_565 S
C1617 H1641 0.949 . S
H1618 C1622 0.949 . S
C1619 C1620 1.349 . S
C1619 C1621 1.327 . S
C1619 H1642 0.950 . S
C1620 C1619 1.349 . S
C1620 C1632 1.349 1_565 S
C1621 C1619 1.327 . S
C1621 C1637 1.429 . S
C1621 H1643 0.950 . S
C1622 H1618 0.949 . S
C1622 C1630 1.574 . S
C1622 C1638 1.368 1_545 S
H1623 C1631 0.950 . S
H1624 C1629 0.950 . S
H1625 C1630 0.949 . S
H1626 C1632 0.950 . S
H1627 C1633 0.950 . S
H1628 C1634 0.949 . S
C1629 H1624 0.950 . S
C1629 C1631 1.327 . S
C1629 C1635 1.429 1_565 S
C1630 C1622 1.574 . S
C1630 H1625 0.949 . S
C1630 C1636 1.368 . S
C1631 C1615 1.349 1_565 S
C1631 H1623 0.950 . S
C1631 C1629 1.327 . S
C1632 C1620 1.349 1_545 S
C1632 H1626 0.950 . S
C1632 C1633 1.327 . S
C1633 H1627 0.950 . S
C1633 C1632 1.327 . S
C1633 C1637 1.429 1_545 S
C1634 C1617 1.574 . S
C1634 H1628 0.949 . S
C1634 C1638 1.368 . S
C1635 C1616 1.429 . S
C1635 C1629 1.429 1_545 S
C1635 C1636 1.523 . S
C1636 C1617 1.368 1_545 S
C1636 C1630 1.368 . S
C1636 C1635 1.523 . S
C1637 C1621 1.429 . S
C1637 C1633 1.429 1_565 S
C1637 C1638 1.523 . S
C1638 C1622 1.368 1_565 S
C1638 C1634 1.368 . S
C1638 C1637 1.523 . S
H1639 C1614 0.950 . S
H1640 C1616 0.950 . S
H1641 C1617 0.949 . S
H1642 C1619 0.950 . S
H1643 C1621 0.950 . S
C1644 C1645 1.349 1_655 S
C1644 C1646 1.327 . S
C1644 H1669 0.950 . S
C1645 C1644 1.349 1_455 S
C1645 C1661 1.349 . S
C1646 C1644 1.327 . S
C1646 C1665 1.429 1_655 S
C1646 H1670 0.950 . S
C1647 C1664 1.574 . S
C1647 C1666 1.368 . S
C1647 H1671 0.949 . S
H1648 C1652 0.949 . S
C1649 C1650 1.349 1_455 S
C1649 C1651 1.327 . S
C1649 H1672 0.950 . S
C1650 C1649 1.349 1_655 S
C1650 C1662 1.349 . S
C1651 C1649 1.327 . S
C1651 C1667 1.429 1_455 S
C1651 H1673 0.950 . S
C1652 H1648 0.949 . S
C1652 C1660 1.574 . S
C1652 C1668 1.368 . S
H1653 C1661 0.950 . S
H1654 C1659 0.950 . S
H1655 C1660 0.949 . S
H1656 C1662 0.950 . S
H1657 C1663 0.950 . S
H1658 C1664 0.949 . S
C1659 H1654 0.950 . S
C1659 C1661 1.327 . S
C1659 C1665 1.429 . S
C1660 C1652 1.574 . S
C1660 H1655 0.949 . S
C1660 C1666 1.368 1_655 S
C1661 C1645 1.349 . S
C1661 H1653 0.950 . S
C1661 C1659 1.327 . S
C1662 C1650 1.349 . S
C1662 H1656 0.950 . S
C1662 C1663 1.327 . S
C1663 H1657 0.950 . S
C1663 C1662 1.327 . S
C1663 C1667 1.429 . S
C1664 C1647 1.574 . S
C1664 H1658 0.949 . S
C1664 C1668 1.368 1_455 S
C1665 C1646 1.429 1_455 S
C1665 C1659 1.429 . S
C1665 C1666 1.523 . S
C1666 C1647 1.368 . S
C1666 C1660 1.368 1_455 S
C1666 C1665 1.523 . S
C1667 C1651 1.429 1_655 S
C1667 C1663 1.429 . S
C1667 C1668 1.523 . S
C1668 C1652 1.368 . S
C1668 C1664 1.368 1_655 S
C1668 C1667 1.523 . S
H1669 C1644 0.950 . S
H1670 C1646 0.950 . S
H1671 C1647 0.949 . S
H1672 C1649 0.950 . S
H1673 C1651 0.950 . S
C1674 C1675 1.349 . S
C1674 C1676 1.327 . S
C1674 H1699 0.950 . S
C1675 C1674 1.349 . S
C1675 C1691 1.349 . S
C1676 C1674 1.327 . S
C1676 C1695 1.429 . S
C1676 H1700 0.950 . S
C1677 C1694 1.574 . S
C1677 C1696 1.368 . S
C1677 H1701 0.949 . S
H1678 C1682 0.949 . S
C1679 C1680 1.349 . S
C1679 C1681 1.327 . S
C1679 H1702 0.950 . S
C1680 C1679 1.349 . S
C1680 C1692 1.349 . S
C1681 C1679 1.327 . S
C1681 C1697 1.429 . S
C1681 H1703 0.950 . S
C1682 H1678 0.949 . S
C1682 C1690 1.574 . S
C1682 C1698 1.368 . S
H1683 C1691 0.950 . S
H1684 C1689 0.950 . S
H1685 C1690 0.949 . S
H1686 C1692 0.950 . S
H1687 C1693 0.950 . S
H1688 C1694 0.949 . S
C1689 H1684 0.950 . S
C1689 C1691 1.327 . S
C1689 C1695 1.429 . S
C1690 C1682 1.574 . S
C1690 H1685 0.949 . S
C1690 C1696 1.368 . S
C1691 C1675 1.349 . S
C1691 H1683 0.950 . S
C1691 C1689 1.327 . S
C1692 C1680 1.349 . S
C1692 H1686 0.950 . S
C1692 C1693 1.327 . S
C1693 H1687 0.950 . S
C1693 C1692 1.327 . S
C1693 C1697 1.429 . S
C1694 C1677 1.574 . S
C1694 H1688 0.949 . S
C1694 C1698 1.368 . S
C1695 C1676 1.429 . S
C1695 C1689 1.429 . S
C1695 C1696 1.523 . S
C1696 C1677 1.368 . S
C1696 C1690 1.368 . S
C1696 C1695 1.523 . S
C1697 C1681 1.429 . S
C1697 C1693 1.429 . S
C1697 C1698 1.523 . S
C1698 C1682 1.368 . S
C1698 C1694 1.368 . S
C1698 C1697 1.523 . S
H1699 C1674 0.950 . S
H1700 C1676 0.950 . S
H1701 C1677 0.949 . S
H1702 C1679 0.950 . S
H1703 C1681 0.950 . S
C1704 C1705 1.349 1_545 S
C1704 C1706 1.327 . S
C1704 H1729 0.950 . S
C1705 C1704 1.349 1_565 S
C1705 C1721 1.349 . S
C1706 C1704 1.327 . S
C1706 C1725 1.429 1_545 S
C1706 H1730 0.950 . S
C1707 C1724 1.574 . S
C1707 C1726 1.368 . S
C1707 H1731 0.949 . S
H1708 C1712 0.949 . S
C1709 C1710 1.349 1_565 S
C1709 C1711 1.327 . S
C1709 H1732 0.950 . S
C1710 C1709 1.349 1_545 S
C1710 C1722 1.349 . S
C1711 C1709 1.327 . S
C1711 C1727 1.429 1_565 S
C1711 H1733 0.950 . S
C1712 H1708 0.949 . S
C1712 C1720 1.574 . S
C1712 C1728 1.368 . S
H1713 C1721 0.950 . S
H1714 C1719 0.950 . S
H1715 C1720 0.949 . S
H1716 C1722 0.950 . S
H1717 C1723 0.950 . S
H1718 C1724 0.949 . S
C1719 H1714 0.950 . S
C1719 C1721 1.327 . S
C1719 C1725 1.429 . S
C1720 C1712 1.574 . S
C1720 H1715 0.949 . S
C1720 C1726 1.368 1_545 S
C1721 C1705 1.349 . S
C1721 H1713 0.950 . S
C1721 C1719 1.327 . S
C1722 C1710 1.349 . S
C1722 H1716 0.950 . S
C1722 C1723 1.327 . S
C1723 H1717 0.950 . S
C1723 C1722 1.327 . S
C1723 C1727 1.429 . S
C1724 C1707 1.574 . S
C1724 H1718 0.949 . S
C1724 C1728 1.368 1_565 S
C1725 C1706 1.429 1_565 S
C1725 C1719 1.429 . S
C1725 C1726 1.523 . S
C1726 C1707 1.368 . S
C1726 C1720 1.368 1_565 S
C1726 C1725 1.523 . S
C1727 C1711 1.429 1_545 S
C1727 C1723 1.429 . S
C1727 C1728 1.523 . S
C1728 C1712 1.368 . S
C1728 C1724 1.368 1_545 S
C1728 C1727 1.523 . S
H1729 C1704 0.950 . S
H1730 C1706 0.950 . S
H1731 C1707 0.949 . S
H1732 C1709 0.950 . S
H1733 C1711 0.950 . S
C1734 C1735 1.349 . S
C1734 C1736 1.327 . S
C1734 H1759 0.950 . S
C1735 C1734 1.349 . S
C1735 C1751 1.349 . S
C1736 C1734 1.327 . S
C1736 C1755 1.429 . S
C1736 H1760 0.950 . S
C1737 C1754 1.574 . S
C1737 C1756 1.368 . S
C1737 H1761 0.949 . S
H1738 C1742 0.949 . S
C1739 C1740 1.349 . S
C1739 C1741 1.327 . S
C1739 H1762 0.950 . S
C1740 C1739 1.349 . S
C1740 C1752 1.349 . S
C1741 C1739 1.327 . S
C1741 C1757 1.429 . S
C1741 H1763 0.950 . S
C1742 H1738 0.949 . S
C1742 C1750 1.575 . S
C1742 C1758 1.368 . S
H1743 C1751 0.950 . S
H1744 C1749 0.950 . S
H1745 C1750 0.944 . S
H1746 C1752 0.950 . S
H1747 C1753 0.950 . S
H1748 C1754 0.944 . S
C1749 H1744 0.950 . S
C1749 C1751 1.327 . S
C1749 C1755 1.429 . S
C1750 C1742 1.575 . S
C1750 H1745 0.944 . S
C1750 C1756 1.355 1_455 S
C1751 C1735 1.349 . S
C1751 H1743 0.950 . S
C1751 C1749 1.327 . S
C1752 C1740 1.349 . S
C1752 H1746 0.950 . S
C1752 C1753 1.327 . S
C1753 H1747 0.950 . S
C1753 C1752 1.327 . S
C1753 C1757 1.429 . S
C1754 C1737 1.574 . S
C1754 H1748 0.944 . S
C1754 C1758 1.363 1_655 S
C1755 C1736 1.429 . S
C1755 C1749 1.429 . S
C1755 C1756 1.523 . S
C1756 C1737 1.368 . S
C1756 C1750 1.355 1_655 S
C1756 C1755 1.523 . S
C1757 C1741 1.429 . S
C1757 C1753 1.429 . S
C1757 C1758 1.523 . S
C1758 C1742 1.368 . S
C1758 C1754 1.363 1_455 S
C1758 C1757 1.523 . S
H1759 C1734 0.950 . S
H1760 C1736 0.950 . S
H1761 C1737 0.949 . S
H1762 C1739 0.950 . S
H1763 C1741 0.950 . S
C1764 C1765 1.349 . S
C1764 C1766 1.327 . S
C1764 H1789 0.950 . S
C1765 C1764 1.349 . S
C1765 C1781 1.349 . S
C1766 C1764 1.327 . S
C1766 C1785 1.429 . S
C1766 H1790 0.950 . S
C1767 C1784 1.574 . S
C1767 C1786 1.368 . S
C1767 H1791 0.949 . S
H1768 C1772 0.949 . S
C1769 C1770 1.349 . S
C1769 C1771 1.327 . S
C1769 H1792 0.950 . S
C1770 C1769 1.349 . S
C1770 C1782 1.349 . S
C1771 C1769 1.327 . S
C1771 C1787 1.429 . S
C1771 H1793 0.950 . S
C1772 H1768 0.949 . S
C1772 C1780 1.574 . S
C1772 C1788 1.368 . S
H1773 C1781 0.950 . S
H1774 C1779 0.950 . S
H1775 C1780 0.949 . S
H1776 C1782 0.950 . S
H1777 C1783 0.950 . S
H1778 C1784 0.949 . S
C1779 H1774 0.950 . S
C1779 C1781 1.327 . S
C1779 C1785 1.429 . S
C1780 C1772 1.574 . S
C1780 H1775 0.949 . S
C1780 C1786 1.368 . S
C1781 C1765 1.349 . S
C1781 H1773 0.950 . S
C1781 C1779 1.327 . S
C1782 C1770 1.349 . S
C1782 H1776 0.950 . S
C1782 C1783 1.327 . S
C1783 H1777 0.950 . S
C1783 C1782 1.327 . S
C1783 C1787 1.429 . S
C1784 C1767 1.574 . S
C1784 H1778 0.949 . S
C1784 C1788 1.368 . S
C1785 C1766 1.429 . S
C1785 C1779 1.429 . S
C1785 C1786 1.523 . S
C1786 C1767 1.368 . S
C1786 C1780 1.368 . S
C1786 C1785 1.523 . S
C1787 C1771 1.429 . S
C1787 C1783 1.429 . S
C1787 C1788 1.523 . S
C1788 C1772 1.368 . S
C1788 C1784 1.368 . S
C1788 C1787 1.523 . S
H1789 C1764 0.950 . S
H1790 C1766 0.950 . S
H1791 C1767 0.949 . S
H1792 C1769 0.950 . S
H1793 C1771 0.950 . S
C1794 C1795 1.349 . S
C1794 C1796 1.327 . S
C1794 H1819 0.950 . S
C1795 C1794 1.349 . S
C1795 C1811 1.349 . S
C1796 C1794 1.327 . S
C1796 C1815 1.429 . S
C1796 H1820 0.950 . S
C1797 C1814 1.574 . S
C1797 C1816 1.368 . S
C1797 H1821 0.949 . S
H1798 C1802 0.949 . S
C1799 C1800 1.349 . S
C1799 C1801 1.327 . S
C1799 H1822 0.950 . S
C1800 C1799 1.349 . S
C1800 C1812 1.349 . S
C1801 C1799 1.327 . S
C1801 C1817 1.429 . S
C1801 H1823 0.950 . S
C1802 H1798 0.949 . S
C1802 C1810 1.574 . S
C1802 C1818 1.368 . S
H1803 C1811 0.950 . S
H1804 C1809 0.950 . S
H1805 C1810 0.949 . S
H1806 C1812 0.950 . S
H1807 C1813 0.950 . S
H1808 C1814 0.949 . S
C1809 H1804 0.950 . S
C1809 C1811 1.327 . S
C1809 C1815 1.429 . S
C1810 C1802 1.574 . S
C1810 H1805 0.949 . S
C1810 C1816 1.368 . S
C1811 C1795 1.349 . S
C1811 H1803 0.950 . S
C1811 C1809 1.327 . S
C1812 C1800 1.349 . S
C1812 H1806 0.950 . S
C1812 C1813 1.327 . S
C1813 H1807 0.950 . S
C1813 C1812 1.327 . S
C1813 C1817 1.429 . S
C1814 C1797 1.574 . S
C1814 H1808 0.949 . S
C1814 C1818 1.368 . S
C1815 C1796 1.429 . S
C1815 C1809 1.429 . S
C1815 C1816 1.523 . S
C1816 C1797 1.368 . S
C1816 C1810 1.368 . S
C1816 C1815 1.523 . S
C1817 C1801 1.429 . S
C1817 C1813 1.429 . S
C1817 C1818 1.523 . S
C1818 C1802 1.368 . S
C1818 C1814 1.368 . S
C1818 C1817 1.523 . S
H1819 C1794 0.950 . S
H1820 C1796 0.950 . S
H1821 C1797 0.949 . S
H1822 C1799 0.950 . S
H1823 C1801 0.950 . S
C1824 C1825 1.349 . S
C1824 C1826 1.327 . S
C1824 H1849 0.950 . S
C1825 C1824 1.349 . S
C1825 C1841 1.349 . S
C1826 C1824 1.327 . S
C1826 C1845 1.429 . S
C1826 H1850 0.950 . S
C1827 C1844 1.574 . S
C1827 C1846 1.368 . S
C1827 H1851 0.949 . S
H1828 C1832 0.949 . S
C1829 C1830 1.349 . S
C1829 C1831 1.327 . S
C1829 H1852 0.950 . S
C1830 C1829 1.349 . S
C1830 C1842 1.349 . S
C1831 C1829 1.327 . S
C1831 C1847 1.429 . S
C1831 H1853 0.950 . S
C1832 H1828 0.949 . S
C1832 C1840 1.574 . S
C1832 C1848 1.368 . S
H1833 C1841 0.950 . S
H1834 C1839 0.950 . S
H1835 C1840 0.949 . S
H1836 C1842 0.950 . S
H1837 C1843 0.950 . S
H1838 C1844 0.949 . S
C1839 H1834 0.950 . S
C1839 C1841 1.327 . S
C1839 C1845 1.429 . S
C1840 C1832 1.574 . S
C1840 H1835 0.949 . S
C1840 C1846 1.368 . S
C1841 C1825 1.349 . S
C1841 H1833 0.950 . S
C1841 C1839 1.327 . S
C1842 C1830 1.349 . S
C1842 H1836 0.950 . S
C1842 C1843 1.327 . S
C1843 H1837 0.950 . S
C1843 C1842 1.327 . S
C1843 C1847 1.429 . S
C1844 C1827 1.574 . S
C1844 H1838 0.949 . S
C1844 C1848 1.368 . S
C1845 C1826 1.429 . S
C1845 C1839 1.429 . S
C1845 C1846 1.523 . S
C1846 C1827 1.368 . S
C1846 C1840 1.368 . S
C1846 C1845 1.523 . S
C1847 C1831 1.429 . S
C1847 C1843 1.429 . S
C1847 C1848 1.523 . S
C1848 C1832 1.368 . S
C1848 C1844 1.368 . S
C1848 C1847 1.523 . S
H1849 C1824 0.950 . S
H1850 C1826 0.950 . S
H1851 C1827 0.949 . S
H1852 C1829 0.950 . S
H1853 C1831 0.950 . S
C1854 C1855 1.349 . S
C1854 C1856 1.327 . S
C1854 H1879 0.950 . S
C1855 C1854 1.349 . S
C1855 C1871 1.349 . S
C1856 C1854 1.327 . S
C1856 C1875 1.429 . S
C1856 H1880 0.950 . S
C1857 C1874 1.574 . S
C1857 C1876 1.368 . S
C1857 H1881 0.949 . S
H1858 C1862 0.949 . S
C1859 C1860 1.349 . S
C1859 C1861 1.327 . S
C1859 H1882 0.950 . S
C1860 C1859 1.349 . S
C1860 C1872 1.349 . S
C1861 C1859 1.327 . S
C1861 C1877 1.429 . S
C1861 H1883 0.950 . S
C1862 H1858 0.949 . S
C1862 C1870 1.574 . S
C1862 C1878 1.368 . S
H1863 C1871 0.950 . S
H1864 C1869 0.950 . S
H1865 C1870 0.949 . S
H1866 C1872 0.950 . S
H1867 C1873 0.950 . S
H1868 C1874 0.949 . S
C1869 H1864 0.950 . S
C1869 C1871 1.327 . S
C1869 C1875 1.429 . S
C1870 C1862 1.574 . S
C1870 H1865 0.949 . S
C1870 C1876 1.368 . S
C1871 C1855 1.349 . S
C1871 H1863 0.950 . S
C1871 C1869 1.327 . S
C1872 C1860 1.349 . S
C1872 H1866 0.950 . S
C1872 C1873 1.327 . S
C1873 H1867 0.950 . S
C1873 C1872 1.327 . S
C1873 C1877 1.429 . S
C1874 C1857 1.574 . S
C1874 H1868 0.949 . S
C1874 C1878 1.368 . S
C1875 C1856 1.429 . S
C1875 C1869 1.429 . S
C1875 C1876 1.523 . S
C1876 C1857 1.368 . S
C1876 C1870 1.368 . S
C1876 C1875 1.523 . S
C1877 C1861 1.429 . S
C1877 C1873 1.429 . S
C1877 C1878 1.523 . S
C1878 C1862 1.368 . S
C1878 C1874 1.368 . S
C1878 C1877 1.523 . S
H1879 C1854 0.950 . S
H1880 C1856 0.950 . S
H1881 C1857 0.949 . S
H1882 C1859 0.950 . S
H1883 C1861 0.950 . S
C1884 C1885 1.349 . S
C1884 C1886 1.327 . S
C1884 H1909 0.950 . S
C1885 C1884 1.349 . S
C1885 C1901 1.349 . S
C1886 C1884 1.327 . S
C1886 C1905 1.429 . S
C1886 H1910 0.950 . S
C1887 C1904 1.574 . S
C1887 C1906 1.368 . S
C1887 H1911 0.949 . S
H1888 C1892 0.949 . S
C1889 C1890 1.349 . S
C1889 C1891 1.327 . S
C1889 H1912 0.950 . S
C1890 C1889 1.349 . S
C1890 C1902 1.349 . S
C1891 C1889 1.327 . S
C1891 C1907 1.429 . S
C1891 H1913 0.950 . S
C1892 H1888 0.949 . S
C1892 C1900 1.574 . S
C1892 C1908 1.368 . S
H1893 C1901 0.950 . S
H1894 C1899 0.950 . S
H1895 C1900 0.949 . S
H1896 C1902 0.950 . S
H1897 C1903 0.950 . S
H1898 C1904 0.949 . S
C1899 H1894 0.950 . S
C1899 C1901 1.327 . S
C1899 C1905 1.429 . S
C1900 C1892 1.574 . S
C1900 H1895 0.949 . S
C1900 C1906 1.368 . S
C1901 C1885 1.349 . S
C1901 H1893 0.950 . S
C1901 C1899 1.327 . S
C1902 C1890 1.349 . S
C1902 H1896 0.950 . S
C1902 C1903 1.327 . S
C1903 H1897 0.950 . S
C1903 C1902 1.327 . S
C1903 C1907 1.429 . S
C1904 C1887 1.574 . S
C1904 H1898 0.949 . S
C1904 C1908 1.368 . S
C1905 C1886 1.429 . S
C1905 C1899 1.429 . S
C1905 C1906 1.523 . S
C1906 C1887 1.368 . S
C1906 C1900 1.368 . S
C1906 C1905 1.523 . S
C1907 C1891 1.429 . S
C1907 C1903 1.429 . S
C1907 C1908 1.523 . S
C1908 C1892 1.368 . S
C1908 C1904 1.368 . S
C1908 C1907 1.523 . S
H1909 C1884 0.950 . S
H1910 C1886 0.950 . S
H1911 C1887 0.949 . S
H1912 C1889 0.950 . S
H1913 C1891 0.950 . S
C1914 C1915 1.349 . S
C1914 C1916 1.327 . S
C1914 H1939 0.950 . S
C1915 C1914 1.349 . S
C1915 C1931 1.349 . S
C1916 C1914 1.327 . S
C1916 C1935 1.429 . S
C1916 H1940 0.950 . S
C1917 C1934 1.574 . S
C1917 C1936 1.368 . S
C1917 H1941 0.949 . S
H1918 C1922 0.949 . S
C1919 C1920 1.349 . S
C1919 C1921 1.327 . S
C1919 H1942 0.950 . S
C1920 C1919 1.349 . S
C1920 C1932 1.349 . S
C1921 C1919 1.327 . S
C1921 C1937 1.429 . S
C1921 H1943 0.950 . S
C1922 H1918 0.949 . S
C1922 C1930 1.574 . S
C1922 C1938 1.368 . S
H1923 C1931 0.950 . S
H1924 C1929 0.950 . S
H1925 C1930 0.949 . S
H1926 C1932 0.950 . S
H1927 C1933 0.950 . S
H1928 C1934 0.949 . S
C1929 H1924 0.950 . S
C1929 C1931 1.327 . S
C1929 C1935 1.429 . S
C1930 C1922 1.574 . S
C1930 H1925 0.949 . S
C1930 C1936 1.368 . S
C1931 C1915 1.349 . S
C1931 H1923 0.950 . S
C1931 C1929 1.327 . S
C1932 C1920 1.349 . S
C1932 H1926 0.950 . S
C1932 C1933 1.327 . S
C1933 H1927 0.950 . S
C1933 C1932 1.327 . S
C1933 C1937 1.429 . S
C1934 C1917 1.574 . S
C1934 H1928 0.949 . S
C1934 C1938 1.368 . S
C1935 C1916 1.429 . S
C1935 C1929 1.429 . S
C1935 C1936 1.523 . S
C1936 C1917 1.368 . S
C1936 C1930 1.368 . S
C1936 C1935 1.523 . S
C1937 C1921 1.429 . S
C1937 C1933 1.429 . S
C1937 C1938 1.523 . S
C1938 C1922 1.368 . S
C1938 C1934 1.368 . S
C1938 C1937 1.523 . S
H1939 C1914 0.950 . S
H1940 C1916 0.950 . S
H1941 C1917 0.949 . S
H1942 C1919 0.950 . S
H1943 C1921 0.950 . S
C1944 C1945 1.349 . S
C1944 C1946 1.327 . S
C1944 H1969 0.950 . S
C1945 C1944 1.349 . S
C1945 C1961 1.349 . S
C1946 C1944 1.327 . S
C1946 C1965 1.429 . S
C1946 H1970 0.950 . S
C1947 C1964 1.574 . S
C1947 C1966 1.368 . S
C1947 H1971 0.949 . S
H1948 C1952 0.949 . S
C1949 C1950 1.349 . S
C1949 C1951 1.327 . S
C1949 H1972 0.950 . S
C1950 C1949 1.349 . S
C1950 C1962 1.349 . S
C1951 C1949 1.327 . S
C1951 C1967 1.429 . S
C1951 H1973 0.950 . S
C1952 H1948 0.949 . S
C1952 C1960 1.574 . S
C1952 C1968 1.368 . S
H1953 C1961 0.950 . S
H1954 C1959 0.950 . S
H1955 C1960 0.949 . S
H1956 C1962 0.950 . S
H1957 C1963 0.950 . S
H1958 C1964 0.949 . S
C1959 H1954 0.950 . S
C1959 C1961 1.327 . S
C1959 C1965 1.429 . S
C1960 C1952 1.574 . S
C1960 H1955 0.949 . S
C1960 C1966 1.368 . S
C1961 C1945 1.349 . S
C1961 H1953 0.950 . S
C1961 C1959 1.327 . S
C1962 C1950 1.349 . S
C1962 H1956 0.950 . S
C1962 C1963 1.327 . S
C1963 H1957 0.950 . S
C1963 C1962 1.327 . S
C1963 C1967 1.429 . S
C1964 C1947 1.574 . S
C1964 H1958 0.949 . S
C1964 C1968 1.368 . S
C1965 C1946 1.429 . S
C1965 C1959 1.429 . S
C1965 C1966 1.523 . S
C1966 C1947 1.368 . S
C1966 C1960 1.368 . S
C1966 C1965 1.523 . S
C1967 C1951 1.429 . S
C1967 C1963 1.429 . S
C1967 C1968 1.523 . S
C1968 C1952 1.368 . S
C1968 C1964 1.368 . S
C1968 C1967 1.523 . S
H1969 C1944 0.950 . S
H1970 C1946 0.950 . S
H1971 C1947 0.949 . S
H1972 C1949 0.950 . S
H1973 C1951 0.950 . S
C1974 C1975 1.349 . S
C1974 C1976 1.327 . S
C1974 H1999 0.950 . S
C1975 C1974 1.349 . S
C1975 C1991 1.349 . S
C1976 C1974 1.327 . S
C1976 C1995 1.429 . S
C1976 H2000 0.950 . S
C1977 C1994 1.574 . S
C1977 C1996 1.368 . S
C1977 H2001 0.949 . S
H1978 C1982 0.949 . S
C1979 C1980 1.349 . S
C1979 C1981 1.327 . S
C1979 H2002 0.950 . S
C1980 C1979 1.349 . S
C1980 C1992 1.349 . S
C1981 C1979 1.327 . S
C1981 C1997 1.429 . S
C1981 H2003 0.950 . S
C1982 H1978 0.949 . S
C1982 C1990 1.574 . S
C1982 C1998 1.368 . S
H1983 C1991 0.950 . S
H1984 C1989 0.950 . S
H1985 C1990 0.949 . S
H1986 C1992 0.950 . S
H1987 C1993 0.950 . S
H1988 C1994 0.949 . S
C1989 H1984 0.950 . S
C1989 C1991 1.327 . S
C1989 C1995 1.429 . S
C1990 C1982 1.574 . S
C1990 H1985 0.949 . S
C1990 C1996 1.368 . S
C1991 C1975 1.349 . S
C1991 H1983 0.950 . S
C1991 C1989 1.327 . S
C1992 C1980 1.349 . S
C1992 H1986 0.950 . S
C1992 C1993 1.327 . S
C1993 H1987 0.950 . S
C1993 C1992 1.327 . S
C1993 C1997 1.429 . S
C1994 C1977 1.574 . S
C1994 H1988 0.949 . S
C1994 C1998 1.368 . S
C1995 C1976 1.429 . S
C1995 C1989 1.429 . S
C1995 C1996 1.523 . S
C1996 C1977 1.368 . S
C1996 C1990 1.368 . S
C1996 C1995 1.523 . S
C1997 C1981 1.429 . S
C1997 C1993 1.429 . S
C1997 C1998 1.523 . S
C1998 C1982 1.368 . S
C1998 C1994 1.368 . S
C1998 C1997 1.523 . S
H1999 C1974 0.950 . S
H2000 C1976 0.950 . S
H2001 C1977 0.949 . S
H2002 C1979 0.950 . S
H2003 C1981 0.950 . S
C2004 C2005 1.349 . S
C2004 C2006 1.327 . S
C2004 H2029 0.950 . S
C2005 C2004 1.349 . S
C2005 C2021 1.349 . S
C2006 C2004 1.327 . S
C2006 C2025 1.429 . S
C2006 H2030 0.950 . S
C2007 C2024 1.574 . S
C2007 C2026 1.368 . S
C2007 H2031 0.949 . S
H2008 C2012 0.949 . S
C2009 C2010 1.349 . S
C2009 C2011 1.327 . S
C2009 H2032 0.950 . S
C2010 C2009 1.349 . S
C2010 C2022 1.349 . S
C2011 C2009 1.327 . S
C2011 C2027 1.429 . S
C2011 H2033 0.950 . S
C2012 H2008 0.949 . S
C2012 C2020 1.574 . S
C2012 C2028 1.368 . S
H2013 C2021 0.950 . S
H2014 C2019 0.950 . S
H2015 C2020 0.949 . S
H2016 C2022 0.950 . S
H2017 C2023 0.950 . S
H2018 C2024 0.949 . S
C2019 H2014 0.950 . S
C2019 C2021 1.327 . S
C2019 C2025 1.429 . S
C2020 C2012 1.574 . S
C2020 H2015 0.949 . S
C2020 C2026 1.368 . S
C2021 C2005 1.349 . S
C2021 H2013 0.950 . S
C2021 C2019 1.327 . S
C2022 C2010 1.349 . S
C2022 H2016 0.950 . S
C2022 C2023 1.327 . S
C2023 H2017 0.950 . S
C2023 C2022 1.327 . S
C2023 C2027 1.429 . S
C2024 C2007 1.574 . S
C2024 H2018 0.949 . S
C2024 C2028 1.368 . S
C2025 C2006 1.429 . S
C2025 C2019 1.429 . S
C2025 C2026 1.523 . S
C2026 C2007 1.368 . S
C2026 C2020 1.368 . S
C2026 C2025 1.523 . S
C2027 C2011 1.429 . S
C2027 C2023 1.429 . S
C2027 C2028 1.523 . S
C2028 C2012 1.368 . S
C2028 C2024 1.368 . S
C2028 C2027 1.523 . S
H2029 C2004 0.950 . S
H2030 C2006 0.950 . S
H2031 C2007 0.949 . S
H2032 C2009 0.950 . S
H2033 C2011 0.950 . S
C2034 C2035 1.349 . S
C2034 C2036 1.327 . S
C2034 H2059 0.950 . S
C2035 C2034 1.349 . S
C2035 C2051 1.349 . S
C2036 C2034 1.327 . S
C2036 C2055 1.429 . S
C2036 H2060 0.950 . S
C2037 C2054 1.574 . S
C2037 C2056 1.368 . S
C2037 H2061 0.949 . S
H2038 C2042 0.949 . S
C2039 C2040 1.349 . S
C2039 C2041 1.327 . S
C2039 H2062 0.950 . S
C2040 C2039 1.349 . S
C2040 C2052 1.349 . S
C2041 C2039 1.327 . S
C2041 C2057 1.429 . S
C2041 H2063 0.950 . S
C2042 H2038 0.949 . S
C2042 C2050 1.574 . S
C2042 C2058 1.368 . S
H2043 C2051 0.950 . S
H2044 C2049 0.950 . S
H2045 C2050 0.949 . S
H2046 C2052 0.950 . S
H2047 C2053 0.950 . S
H2048 C2054 0.949 . S
C2049 H2044 0.950 . S
C2049 C2051 1.327 . S
C2049 C2055 1.429 . S
C2050 C2042 1.574 . S
C2050 H2045 0.949 . S
C2050 C2056 1.368 . S
C2051 C2035 1.349 . S
C2051 H2043 0.950 . S
C2051 C2049 1.327 . S
C2052 C2040 1.349 . S
C2052 H2046 0.950 . S
C2052 C2053 1.327 . S
C2053 H2047 0.950 . S
C2053 C2052 1.327 . S
C2053 C2057 1.429 . S
C2054 C2037 1.574 . S
C2054 H2048 0.949 . S
C2054 C2058 1.368 . S
C2055 C2036 1.429 . S
C2055 C2049 1.429 . S
C2055 C2056 1.523 . S
C2056 C2037 1.368 . S
C2056 C2050 1.368 . S
C2056 C2055 1.523 . S
C2057 C2041 1.429 . S
C2057 C2053 1.429 . S
C2057 C2058 1.523 . S
C2058 C2042 1.368 . S
C2058 C2054 1.368 . S
C2058 C2057 1.523 . S
H2059 C2034 0.950 . S
H2060 C2036 0.950 . S
H2061 C2037 0.949 . S
H2062 C2039 0.950 . S
H2063 C2041 0.950 . S
C2064 C2065 1.349 . S
C2064 C2066 1.327 . S
C2064 H2089 0.950 . S
C2065 C2064 1.349 . S
C2065 C2081 1.349 . S
C2066 C2064 1.327 . S
C2066 C2085 1.429 . S
C2066 H2090 0.950 . S
C2067 C2084 1.574 . S
C2067 C2086 1.368 . S
C2067 H2091 0.949 . S
H2068 C2072 0.949 . S
C2069 C2070 1.349 . S
C2069 C2071 1.327 . S
C2069 H2092 0.950 . S
C2070 C2069 1.349 . S
C2070 C2082 1.349 . S
C2071 C2069 1.327 . S
C2071 C2087 1.429 . S
C2071 H2093 0.950 . S
C2072 H2068 0.949 . S
C2072 C2080 1.574 . S
C2072 C2088 1.368 . S
H2073 C2081 0.950 . S
H2074 C2079 0.950 . S
H2075 C2080 0.949 . S
H2076 C2082 0.950 . S
H2077 C2083 0.950 . S
H2078 C2084 0.949 . S
C2079 H2074 0.950 . S
C2079 C2081 1.327 . S
C2079 C2085 1.429 . S
C2080 C2072 1.574 . S
C2080 H2075 0.949 . S
C2080 C2086 1.368 . S
C2081 C2065 1.349 . S
C2081 H2073 0.950 . S
C2081 C2079 1.327 . S
C2082 C2070 1.349 . S
C2082 H2076 0.950 . S
C2082 C2083 1.327 . S
C2083 H2077 0.950 . S
C2083 C2082 1.327 . S
C2083 C2087 1.429 . S
C2084 C2067 1.574 . S
C2084 H2078 0.949 . S
C2084 C2088 1.368 . S
C2085 C2066 1.429 . S
C2085 C2079 1.429 . S
C2085 C2086 1.523 . S
C2086 C2067 1.368 . S
C2086 C2080 1.368 . S
C2086 C2085 1.523 . S
C2087 C2071 1.429 . S
C2087 C2083 1.429 . S
C2087 C2088 1.523 . S
C2088 C2072 1.368 . S
C2088 C2084 1.368 . S
C2088 C2087 1.523 . S
H2089 C2064 0.950 . S
H2090 C2066 0.950 . S
H2091 C2067 0.949 . S
H2092 C2069 0.950 . S
H2093 C2071 0.950 . S
C2094 C2095 1.349 . S
C2094 C2096 1.327 . S
C2094 H2119 0.950 . S
C2095 C2094 1.349 . S
C2095 C2111 1.349 . S
C2096 C2094 1.327 . S
C2096 C2115 1.429 . S
C2096 H2120 0.950 . S
C2097 C2114 1.574 . S
C2097 C2116 1.368 . S
C2097 H2121 0.949 . S
H2098 C2102 0.949 . S
C2099 C2100 1.349 . S
C2099 C2101 1.327 . S
C2099 H2122 0.950 . S
C2100 C2099 1.349 . S
C2100 C2112 1.349 . S
C2101 C2099 1.327 . S
C2101 C2117 1.429 . S
C2101 H2123 0.950 . S
C2102 H2098 0.949 . S
C2102 C2110 1.574 . S
C2102 C2118 1.368 . S
H2103 C2111 0.950 . S
H2104 C2109 0.950 . S
H2105 C2110 0.949 . S
H2106 C2112 0.950 . S
H2107 C2113 0.950 . S
H2108 C2114 0.949 . S
C2109 H2104 0.950 . S
C2109 C2111 1.327 . S
C2109 C2115 1.429 . S
C2110 C2102 1.574 . S
C2110 H2105 0.949 . S
C2110 C2116 1.368 . S
C2111 C2095 1.349 . S
C2111 H2103 0.950 . S
C2111 C2109 1.327 . S
C2112 C2100 1.349 . S
C2112 H2106 0.950 . S
C2112 C2113 1.327 . S
C2113 H2107 0.950 . S
C2113 C2112 1.327 . S
C2113 C2117 1.429 . S
C2114 C2097 1.574 . S
C2114 H2108 0.949 . S
C2114 C2118 1.368 . S
C2115 C2096 1.429 . S
C2115 C2109 1.429 . S
C2115 C2116 1.523 . S
C2116 C2097 1.368 . S
C2116 C2110 1.368 . S
C2116 C2115 1.523 . S
C2117 C2101 1.429 . S
C2117 C2113 1.429 . S
C2117 C2118 1.523 . S
C2118 C2102 1.368 . S
C2118 C2114 1.368 . S
C2118 C2117 1.523 . S
H2119 C2094 0.950 . S
H2120 C2096 0.950 . S
H2121 C2097 0.949 . S
H2122 C2099 0.950 . S
H2123 C2101 0.950 . S
C2124 C2125 1.349 . S
C2124 C2126 1.327 . S
C2124 H2149 0.950 . S
C2125 C2124 1.349 . S
C2125 C2141 1.349 . S
C2126 C2124 1.327 . S
C2126 C2145 1.429 . S
C2126 H2150 0.950 . S
C2127 C2144 1.574 . S
C2127 C2146 1.368 . S
C2127 H2151 0.949 . S
H2128 C2132 0.949 . S
C2129 C2130 1.349 . S
C2129 C2131 1.327 . S
C2129 H2152 0.950 . S
C2130 C2129 1.349 . S
C2130 C2142 1.349 . S
C2131 C2129 1.327 . S
C2131 C2147 1.429 . S
C2131 H2153 0.950 . S
C2132 H2128 0.949 . S
C2132 C2140 1.574 . S
C2132 C2148 1.368 . S
H2133 C2141 0.950 . S
H2134 C2139 0.950 . S
H2135 C2140 0.949 . S
H2136 C2142 0.950 . S
H2137 C2143 0.950 . S
H2138 C2144 0.949 . S
C2139 H2134 0.950 . S
C2139 C2141 1.327 . S
C2139 C2145 1.429 . S
C2140 C2132 1.574 . S
C2140 H2135 0.949 . S
C2140 C2146 1.368 . S
C2141 C2125 1.349 . S
C2141 H2133 0.950 . S
C2141 C2139 1.327 . S
C2142 C2130 1.349 . S
C2142 H2136 0.950 . S
C2142 C2143 1.327 . S
C2143 H2137 0.950 . S
C2143 C2142 1.327 . S
C2143 C2147 1.429 . S
C2144 C2127 1.574 . S
C2144 H2138 0.949 . S
C2144 C2148 1.368 . S
C2145 C2126 1.429 . S
C2145 C2139 1.429 . S
C2145 C2146 1.523 . S
C2146 C2127 1.368 . S
C2146 C2140 1.368 . S
C2146 C2145 1.523 . S
C2147 C2131 1.429 . S
C2147 C2143 1.429 . S
C2147 C2148 1.523 . S
C2148 C2132 1.368 . S
C2148 C2144 1.368 . S
C2148 C2147 1.523 . S
H2149 C2124 0.950 . S
H2150 C2126 0.950 . S
H2151 C2127 0.949 . S
H2152 C2129 0.950 . S
H2153 C2131 0.950 . S
C2154 C2155 1.349 . S
C2154 C2156 1.327 . S
C2154 H2179 0.950 . S
C2155 C2154 1.349 . S
C2155 C2171 1.349 . S
C2156 C2154 1.327 . S
C2156 C2175 1.429 . S
C2156 H2180 0.950 . S
C2157 C2174 1.574 . S
C2157 C2176 1.368 . S
C2157 H2181 0.949 . S
H2158 C2162 0.949 . S
C2159 C2160 1.349 . S
C2159 C2161 1.327 . S
C2159 H2182 0.950 . S
C2160 C2159 1.349 . S
C2160 C2172 1.349 . S
C2161 C2159 1.327 . S
C2161 C2177 1.429 . S
C2161 H2183 0.950 . S
C2162 H2158 0.949 . S
C2162 C2170 1.574 . S
C2162 C2178 1.368 . S
H2163 C2171 0.950 . S
H2164 C2169 0.950 . S
H2165 C2170 0.949 . S
H2166 C2172 0.950 . S
H2167 C2173 0.950 . S
H2168 C2174 0.949 . S
C2169 H2164 0.950 . S
C2169 C2171 1.327 . S
C2169 C2175 1.429 . S
C2170 C2162 1.574 . S
C2170 H2165 0.949 . S
C2170 C2176 1.368 . S
C2171 C2155 1.349 . S
C2171 H2163 0.950 . S
C2171 C2169 1.327 . S
C2172 C2160 1.349 . S
C2172 H2166 0.950 . S
C2172 C2173 1.327 . S
C2173 H2167 0.950 . S
C2173 C2172 1.327 . S
C2173 C2177 1.429 . S
C2174 C2157 1.574 . S
C2174 H2168 0.949 . S
C2174 C2178 1.368 . S
C2175 C2156 1.429 . S
C2175 C2169 1.429 . S
C2175 C2176 1.523 . S
C2176 C2157 1.368 . S
C2176 C2170 1.368 . S
C2176 C2175 1.523 . S
C2177 C2161 1.429 . S
C2177 C2173 1.429 . S
C2177 C2178 1.523 . S
C2178 C2162 1.368 . S
C2178 C2174 1.368 . S
C2178 C2177 1.523 . S
H2179 C2154 0.950 . S
H2180 C2156 0.950 . S
H2181 C2157 0.949 . S
H2182 C2159 0.950 . S
H2183 C2161 0.950 . S
C2184 C2185 1.349 . S
C2184 C2186 1.327 . S
C2184 H2209 0.950 . S
C2185 C2184 1.349 . S
C2185 C2201 1.349 . S
C2186 C2184 1.327 . S
C2186 C2205 1.429 . S
C2186 H2210 0.950 . S
C2187 C2204 1.574 . S
C2187 C2206 1.368 . S
C2187 H2211 0.949 . S
H2188 C2192 0.949 . S
C2189 C2190 1.349 . S
C2189 C2191 1.327 . S
C2189 H2212 0.950 . S
C2190 C2189 1.349 . S
C2190 C2202 1.349 . S
C2191 C2189 1.327 . S
C2191 C2207 1.429 . S
C2191 H2213 0.950 . S
C2192 H2188 0.949 . S
C2192 C2200 1.574 . S
C2192 C2208 1.368 . S
H2193 C2201 0.950 . S
H2194 C2199 0.950 . S
H2195 C2200 0.949 . S
H2196 C2202 0.950 . S
H2197 C2203 0.950 . S
H2198 C2204 0.949 . S
C2199 H2194 0.950 . S
C2199 C2201 1.327 . S
C2199 C2205 1.429 . S
C2200 C2192 1.574 . S
C2200 H2195 0.949 . S
C2200 C2206 1.368 . S
C2201 C2185 1.349 . S
C2201 H2193 0.950 . S
C2201 C2199 1.327 . S
C2202 C2190 1.349 . S
C2202 H2196 0.950 . S
C2202 C2203 1.327 . S
C2203 H2197 0.950 . S
C2203 C2202 1.327 . S
C2203 C2207 1.429 . S
C2204 C2187 1.574 . S
C2204 H2198 0.949 . S
C2204 C2208 1.368 . S
C2205 C2186 1.429 . S
C2205 C2199 1.429 . S
C2205 C2206 1.523 . S
C2206 C2187 1.368 . S
C2206 C2200 1.368 . S
C2206 C2205 1.523 . S
C2207 C2191 1.429 . S
C2207 C2203 1.429 . S
C2207 C2208 1.523 . S
C2208 C2192 1.368 . S
C2208 C2204 1.368 . S
C2208 C2207 1.523 . S
H2209 C2184 0.950 . S
H2210 C2186 0.950 . S
H2211 C2187 0.949 . S
H2212 C2189 0.950 . S
H2213 C2191 0.950 . S
C2214 C2215 1.349 . S
C2214 C2216 1.327 . S
C2214 H2239 0.950 . S
C2215 C2214 1.349 . S
C2215 C2231 1.349 . S
C2216 C2214 1.327 . S
C2216 C2235 1.429 . S
C2216 H2240 0.950 . S
C2217 C2234 1.574 . S
C2217 C2236 1.368 . S
C2217 H2241 0.949 . S
H2218 C2222 0.949 . S
C2219 C2220 1.349 . S
C2219 C2221 1.327 . S
C2219 H2242 0.950 . S
C2220 C2219 1.349 . S
C2220 C2232 1.349 . S
C2221 C2219 1.327 . S
C2221 C2237 1.429 . S
C2221 H2243 0.950 . S
C2222 H2218 0.949 . S
C2222 C2230 1.574 . S
C2222 C2238 1.368 . S
H2223 C2231 0.950 . S
H2224 C2229 0.950 . S
H2225 C2230 0.949 . S
H2226 C2232 0.950 . S
H2227 C2233 0.950 . S
H2228 C2234 0.949 . S
C2229 H2224 0.950 . S
C2229 C2231 1.327 . S
C2229 C2235 1.429 . S
C2230 C2222 1.574 . S
C2230 H2225 0.949 . S
C2230 C2236 1.368 . S
C2231 C2215 1.349 . S
C2231 H2223 0.950 . S
C2231 C2229 1.327 . S
C2232 C2220 1.349 . S
C2232 H2226 0.950 . S
C2232 C2233 1.327 . S
C2233 H2227 0.950 . S
C2233 C2232 1.327 . S
C2233 C2237 1.429 . S
C2234 C2217 1.574 . S
C2234 H2228 0.949 . S
C2234 C2238 1.368 . S
C2235 C2216 1.429 . S
C2235 C2229 1.429 . S
C2235 C2236 1.523 . S
C2236 C2217 1.368 . S
C2236 C2230 1.368 . S
C2236 C2235 1.523 . S
C2237 C2221 1.429 . S
C2237 C2233 1.429 . S
C2237 C2238 1.523 . S
C2238 C2222 1.368 . S
C2238 C2234 1.368 . S
C2238 C2237 1.523 . S
H2239 C2214 0.950 . S
H2240 C2216 0.950 . S
H2241 C2217 0.949 . S
H2242 C2219 0.950 . S
H2243 C2221 0.950 . S
C2244 C2245 1.349 . S
C2244 C2246 1.327 . S
C2244 H2269 0.950 . S
C2245 C2244 1.349 . S
C2245 C2261 1.349 . S
C2246 C2244 1.327 . S
C2246 C2265 1.429 . S
C2246 H2270 0.950 . S
C2247 C2264 1.574 . S
C2247 C2266 1.368 . S
C2247 H2271 0.949 . S
H2248 C2252 0.949 . S
C2249 C2250 1.349 . S
C2249 C2251 1.327 . S
C2249 H2272 0.950 . S
C2250 C2249 1.349 . S
C2250 C2262 1.349 . S
C2251 C2249 1.327 . S
C2251 C2267 1.429 . S
C2251 H2273 0.950 . S
C2252 H2248 0.949 . S
C2252 C2260 1.574 . S
C2252 C2268 1.368 . S
H2253 C2261 0.950 . S
H2254 C2259 0.950 . S
H2255 C2260 0.949 . S
H2256 C2262 0.950 . S
H2257 C2263 0.950 . S
H2258 C2264 0.949 . S
C2259 H2254 0.950 . S
C2259 C2261 1.327 . S
C2259 C2265 1.429 . S
C2260 C2252 1.574 . S
C2260 H2255 0.949 . S
C2260 C2266 1.368 . S
C2261 C2245 1.349 . S
C2261 H2253 0.950 . S
C2261 C2259 1.327 . S
C2262 C2250 1.349 . S
C2262 H2256 0.950 . S
C2262 C2263 1.327 . S
C2263 H2257 0.950 . S
C2263 C2262 1.327 . S
C2263 C2267 1.429 . S
C2264 C2247 1.574 . S
C2264 H2258 0.949 . S
C2264 C2268 1.368 . S
C2265 C2246 1.429 . S
C2265 C2259 1.429 . S
C2265 C2266 1.523 . S
C2266 C2247 1.368 . S
C2266 C2260 1.368 . S
C2266 C2265 1.523 . S
C2267 C2251 1.429 . S
C2267 C2263 1.429 . S
C2267 C2268 1.523 . S
C2268 C2252 1.368 . S
C2268 C2264 1.368 . S
C2268 C2267 1.523 . S
H2269 C2244 0.950 . S
H2270 C2246 0.950 . S
H2271 C2247 0.949 . S
H2272 C2249 0.950 . S
H2273 C2251 0.950 . S
C2274 C2275 1.349 . S
C2274 C2276 1.327 . S
C2274 H2299 0.950 . S
C2275 C2274 1.349 . S
C2275 C2291 1.349 . S
C2276 C2274 1.327 . S
C2276 C2295 1.429 . S
C2276 H2300 0.950 . S
C2277 C2294 1.574 . S
C2277 C2296 1.368 . S
C2277 H2301 0.949 . S
H2278 C2282 0.949 . S
C2279 C2280 1.349 . S
C2279 C2281 1.327 . S
C2279 H2302 0.950 . S
C2280 C2279 1.349 . S
C2280 C2292 1.349 . S
C2281 C2279 1.327 . S
C2281 C2297 1.429 . S
C2281 H2303 0.950 . S
C2282 H2278 0.949 . S
C2282 C2290 1.574 . S
C2282 C2298 1.368 . S
H2283 C2291 0.950 . S
H2284 C2289 0.950 . S
H2285 C2290 0.949 . S
H2286 C2292 0.950 . S
H2287 C2293 0.950 . S
H2288 C2294 0.949 . S
C2289 H2284 0.950 . S
C2289 C2291 1.327 . S
C2289 C2295 1.429 . S
C2290 C2282 1.574 . S
C2290 H2285 0.949 . S
C2290 C2296 1.368 . S
C2291 C2275 1.349 . S
C2291 H2283 0.950 . S
C2291 C2289 1.327 . S
C2292 C2280 1.349 . S
C2292 H2286 0.950 . S
C2292 C2293 1.327 . S
C2293 H2287 0.950 . S
C2293 C2292 1.327 . S
C2293 C2297 1.429 . S
C2294 C2277 1.574 . S
C2294 H2288 0.949 . S
C2294 C2298 1.368 . S
C2295 C2276 1.429 . S
C2295 C2289 1.429 . S
C2295 C2296 1.523 . S
C2296 C2277 1.368 . S
C2296 C2290 1.368 . S
C2296 C2295 1.523 . S
C2297 C2281 1.429 . S
C2297 C2293 1.429 . S
C2297 C2298 1.523 . S
C2298 C2282 1.368 . S
C2298 C2294 1.368 . S
C2298 C2297 1.523 . S
H2299 C2274 0.950 . S
H2300 C2276 0.950 . S
H2301 C2277 0.949 . S
H2302 C2279 0.950 . S
H2303 C2281 0.950 . S
C2304 C2305 1.349 . S
C2304 C2306 1.327 . S
C2304 H2329 0.950 . S
C2305 C2304 1.349 . S
C2305 C2321 1.349 . S
C2306 C2304 1.327 . S
C2306 C2325 1.429 . S
C2306 H2330 0.950 . S
C2307 C2324 1.574 . S
C2307 C2326 1.368 . S
C2307 H2331 0.949 . S
H2308 C2312 0.949 . S
C2309 C2310 1.349 . S
C2309 C2311 1.327 . S
C2309 H2332 0.950 . S
C2310 C2309 1.349 . S
C2310 C2322 1.349 . S
C2311 C2309 1.327 . S
C2311 C2327 1.429 . S
C2311 H2333 0.950 . S
C2312 H2308 0.949 . S
C2312 C2320 1.574 . S
C2312 C2328 1.368 . S
H2313 C2321 0.950 . S
H2314 C2319 0.950 . S
H2315 C2320 0.949 . S
H2316 C2322 0.950 . S
H2317 C2323 0.950 . S
H2318 C2324 0.949 . S
C2319 H2314 0.950 . S
C2319 C2321 1.327 . S
C2319 C2325 1.429 . S
C2320 C2312 1.574 . S
C2320 H2315 0.949 . S
C2320 C2326 1.368 . S
C2321 C2305 1.349 . S
C2321 H2313 0.950 . S
C2321 C2319 1.327 . S
C2322 C2310 1.349 . S
C2322 H2316 0.950 . S
C2322 C2323 1.327 . S
C2323 H2317 0.950 . S
C2323 C2322 1.327 . S
C2323 C2327 1.429 . S
C2324 C2307 1.574 . S
C2324 H2318 0.949 . S
C2324 C2328 1.368 . S
C2325 C2306 1.429 . S
C2325 C2319 1.429 . S
C2325 C2326 1.523 . S
C2326 C2307 1.368 . S
C2326 C2320 1.368 . S
C2326 C2325 1.523 . S
C2327 C2311 1.429 . S
C2327 C2323 1.429 . S
C2327 C2328 1.523 . S
C2328 C2312 1.368 . S
C2328 C2324 1.368 . S
C2328 C2327 1.523 . S
H2329 C2304 0.950 . S
H2330 C2306 0.950 . S
H2331 C2307 0.949 . S
H2332 C2309 0.950 . S
H2333 C2311 0.950 . S
C2334 C2335 1.349 . S
C2334 C2336 1.327 . S
C2334 H2359 0.950 . S
C2335 C2334 1.349 . S
C2335 C2351 1.349 . S
C2336 C2334 1.327 . S
C2336 C2355 1.429 . S
C2336 H2360 0.950 . S
C2337 C2354 1.574 . S
C2337 C2356 1.368 . S
C2337 H2361 0.949 . S
H2338 C2342 0.949 . S
C2339 C2340 1.349 . S
C2339 C2341 1.327 . S
C2339 H2362 0.950 . S
C2340 C2339 1.349 . S
C2340 C2352 1.349 . S
C2341 C2339 1.327 . S
C2341 C2357 1.429 . S
C2341 H2363 0.950 . S
C2342 H2338 0.949 . S
C2342 C2350 1.574 . S
C2342 C2358 1.368 . S
H2343 C2351 0.950 . S
H2344 C2349 0.950 . S
H2345 C2350 0.949 . S
H2346 C2352 0.950 . S
H2347 C2353 0.950 . S
H2348 C2354 0.949 . S
C2349 H2344 0.950 . S
C2349 C2351 1.327 . S
C2349 C2355 1.429 . S
C2350 C2342 1.574 . S
C2350 H2345 0.949 . S
C2350 C2356 1.368 . S
C2351 C2335 1.349 . S
C2351 H2343 0.950 . S
C2351 C2349 1.327 . S
C2352 C2340 1.349 . S
C2352 H2346 0.950 . S
C2352 C2353 1.327 . S
C2353 H2347 0.950 . S
C2353 C2352 1.327 . S
C2353 C2357 1.429 . S
C2354 C2337 1.574 . S
C2354 H2348 0.949 . S
C2354 C2358 1.368 . S
C2355 C2336 1.429 . S
C2355 C2349 1.429 . S
C2355 C2356 1.523 . S
C2356 C2337 1.368 . S
C2356 C2350 1.368 . S
C2356 C2355 1.523 . S
C2357 C2341 1.429 . S
C2357 C2353 1.429 . S
C2357 C2358 1.523 . S
C2358 C2342 1.368 . S
C2358 C2354 1.368 . S
C2358 C2357 1.523 . S
H2359 C2334 0.950 . S
H2360 C2336 0.950 . S
H2361 C2337 0.949 . S
H2362 C2339 0.950 . S
H2363 C2341 0.950 . S
C2364 C2365 1.349 . S
C2364 C2366 1.327 . S
C2364 H2389 0.950 . S
C2365 C2364 1.349 . S
C2365 C2381 1.349 . S
C2366 C2364 1.327 . S
C2366 C2385 1.429 . S
C2366 H2390 0.950 . S
C2367 C2384 1.574 . S
C2367 C2386 1.368 . S
C2367 H2391 0.949 . S
H2368 C2372 0.949 . S
C2369 C2370 1.349 . S
C2369 C2371 1.327 . S
C2369 H2392 0.950 . S
C2370 C2369 1.349 . S
C2370 C2382 1.349 . S
C2371 C2369 1.327 . S
C2371 C2387 1.429 . S
C2371 H2393 0.950 . S
C2372 H2368 0.949 . S
C2372 C2380 1.574 . S
C2372 C2388 1.368 . S
H2373 C2381 0.950 . S
H2374 C2379 0.950 . S
H2375 C2380 0.949 . S
H2376 C2382 0.950 . S
H2377 C2383 0.950 . S
H2378 C2384 0.949 . S
C2379 H2374 0.950 . S
C2379 C2381 1.327 . S
C2379 C2385 1.429 . S
C2380 C2372 1.574 . S
C2380 H2375 0.949 . S
C2380 C2386 1.368 . S
C2381 C2365 1.349 . S
C2381 H2373 0.950 . S
C2381 C2379 1.327 . S
C2382 C2370 1.349 . S
C2382 H2376 0.950 . S
C2382 C2383 1.327 . S
C2383 H2377 0.950 . S
C2383 C2382 1.327 . S
C2383 C2387 1.429 . S
C2384 C2367 1.574 . S
C2384 H2378 0.949 . S
C2384 C2388 1.368 . S
C2385 C2366 1.429 . S
C2385 C2379 1.429 . S
C2385 C2386 1.523 . S
C2386 C2367 1.368 . S
C2386 C2380 1.368 . S
C2386 C2385 1.523 . S
C2387 C2371 1.429 . S
C2387 C2383 1.429 . S
C2387 C2388 1.523 . S
C2388 C2372 1.368 . S
C2388 C2384 1.368 . S
C2388 C2387 1.523 . S
H2389 C2364 0.950 . S
H2390 C2366 0.950 . S
H2391 C2367 0.949 . S
H2392 C2369 0.950 . S
H2393 C2371 0.950 . S
C2394 C2395 1.349 . S
C2394 C2396 1.327 . S
C2394 H2419 0.950 . S
C2395 C2394 1.349 . S
C2395 C2411 1.349 . S
C2396 C2394 1.327 . S
C2396 C2415 1.429 . S
C2396 H2420 0.950 . S
C2397 C2414 1.574 . S
C2397 C2416 1.368 . S
C2397 H2421 0.949 . S
H2398 C2402 0.949 . S
C2399 C2400 1.349 . S
C2399 C2401 1.327 . S
C2399 H2422 0.950 . S
C2400 C2399 1.349 . S
C2400 C2412 1.349 . S
C2401 C2399 1.327 . S
C2401 C2417 1.429 . S
C2401 H2423 0.950 . S
C2402 H2398 0.949 . S
C2402 C2410 1.574 . S
C2402 C2418 1.368 . S
H2403 C2411 0.950 . S
H2404 C2409 0.950 . S
H2405 C2410 0.949 . S
H2406 C2412 0.950 . S
H2407 C2413 0.950 . S
H2408 C2414 0.949 . S
C2409 H2404 0.950 . S
C2409 C2411 1.327 . S
C2409 C2415 1.429 . S
C2410 C2402 1.574 . S
C2410 H2405 0.949 . S
C2410 C2416 1.368 . S
C2411 C2395 1.349 . S
C2411 H2403 0.950 . S
C2411 C2409 1.327 . S
C2412 C2400 1.349 . S
C2412 H2406 0.950 . S
C2412 C2413 1.327 . S
C2413 H2407 0.950 . S
C2413 C2412 1.327 . S
C2413 C2417 1.429 . S
C2414 C2397 1.574 . S
C2414 H2408 0.949 . S
C2414 C2418 1.368 . S
C2415 C2396 1.429 . S
C2415 C2409 1.429 . S
C2415 C2416 1.523 . S
C2416 C2397 1.368 . S
C2416 C2410 1.368 . S
C2416 C2415 1.523 . S
C2417 C2401 1.429 . S
C2417 C2413 1.429 . S
C2417 C2418 1.523 . S
C2418 C2402 1.368 . S
C2418 C2414 1.368 . S
C2418 C2417 1.523 . S
H2419 C2394 0.950 . S
H2420 C2396 0.950 . S
H2421 C2397 0.949 . S
H2422 C2399 0.950 . S
H2423 C2401 0.950 . S
C2424 C2425 1.349 . S
C2424 C2426 1.327 . S
C2424 H2449 0.950 . S
C2425 C2424 1.349 . S
C2425 C2441 1.349 . S
C2426 C2424 1.327 . S
C2426 C2445 1.429 . S
C2426 H2450 0.950 . S
C2427 C2444 1.574 . S
C2427 C2446 1.368 . S
C2427 H2451 0.949 . S
H2428 C2432 0.949 . S
C2429 C2430 1.349 . S
C2429 C2431 1.327 . S
C2429 H2452 0.950 . S
C2430 C2429 1.349 . S
C2430 C2442 1.349 . S
C2431 C2429 1.327 . S
C2431 C2447 1.429 . S
C2431 H2453 0.950 . S
C2432 H2428 0.949 . S
C2432 C2440 1.574 . S
C2432 C2448 1.368 . S
H2433 C2441 0.950 . S
H2434 C2439 0.950 . S
H2435 C2440 0.949 . S
H2436 C2442 0.950 . S
H2437 C2443 0.950 . S
H2438 C2444 0.949 . S
C2439 H2434 0.950 . S
C2439 C2441 1.327 . S
C2439 C2445 1.429 . S
C2440 C2432 1.574 . S
C2440 H2435 0.949 . S
C2440 C2446 1.368 . S
C2441 C2425 1.349 . S
C2441 H2433 0.950 . S
C2441 C2439 1.327 . S
C2442 C2430 1.349 . S
C2442 H2436 0.950 . S
C2442 C2443 1.327 . S
C2443 H2437 0.950 . S
C2443 C2442 1.327 . S
C2443 C2447 1.429 . S
C2444 C2427 1.574 . S
C2444 H2438 0.949 . S
C2444 C2448 1.368 . S
C2445 C2426 1.429 . S
C2445 C2439 1.429 . S
C2445 C2446 1.523 . S
C2446 C2427 1.368 . S
C2446 C2440 1.368 . S
C2446 C2445 1.523 . S
C2447 C2431 1.429 . S
C2447 C2443 1.429 . S
C2447 C2448 1.523 . S
C2448 C2432 1.368 . S
C2448 C2444 1.368 . S
C2448 C2447 1.523 . S
H2449 C2424 0.950 . S
H2450 C2426 0.950 . S
H2451 C2427 0.949 . S
H2452 C2429 0.950 . S
H2453 C2431 0.950 . S
C2454 C2455 1.349 . S
C2454 C2456 1.327 . S
C2454 H2479 0.950 . S
C2455 C2454 1.349 . S
C2455 C2471 1.349 . S
C2456 C2454 1.327 . S
C2456 C2475 1.429 . S
C2456 H2480 0.950 . S
C2457 C2474 1.574 . S
C2457 C2476 1.368 . S
C2457 H2481 0.949 . S
H2458 C2462 0.949 . S
C2459 C2460 1.349 . S
C2459 C2461 1.327 . S
C2459 H2482 0.950 . S
C2460 C2459 1.349 . S
C2460 C2472 1.349 . S
C2461 C2459 1.327 . S
C2461 C2477 1.429 . S
C2461 H2483 0.950 . S
C2462 H2458 0.949 . S
C2462 C2470 1.574 . S
C2462 C2478 1.368 . S
H2463 C2471 0.950 . S
H2464 C2469 0.950 . S
H2465 C2470 0.949 . S
H2466 C2472 0.950 . S
H2467 C2473 0.950 . S
H2468 C2474 0.949 . S
C2469 H2464 0.950 . S
C2469 C2471 1.327 . S
C2469 C2475 1.429 . S
C2470 C2462 1.574 . S
C2470 H2465 0.949 . S
C2470 C2476 1.368 . S
C2471 C2455 1.349 . S
C2471 H2463 0.950 . S
C2471 C2469 1.327 . S
C2472 C2460 1.349 . S
C2472 H2466 0.950 . S
C2472 C2473 1.327 . S
C2473 H2467 0.950 . S
C2473 C2472 1.327 . S
C2473 C2477 1.429 . S
C2474 C2457 1.574 . S
C2474 H2468 0.949 . S
C2474 C2478 1.368 . S
C2475 C2456 1.429 . S
C2475 C2469 1.429 . S
C2475 C2476 1.523 . S
C2476 C2457 1.368 . S
C2476 C2470 1.368 . S
C2476 C2475 1.523 . S
C2477 C2461 1.429 . S
C2477 C2473 1.429 . S
C2477 C2478 1.523 . S
C2478 C2462 1.368 . S
C2478 C2474 1.368 . S
C2478 C2477 1.523 . S
H2479 C2454 0.950 . S
H2480 C2456 0.950 . S
H2481 C2457 0.949 . S
H2482 C2459 0.950 . S
H2483 C2461 0.950 . S
C2484 C2485 1.349 . S
C2484 C2486 1.327 . S
C2484 H2509 0.950 . S
C2485 C2484 1.349 . S
C2485 C2501 1.349 . S
C2486 C2484 1.327 . S
C2486 C2505 1.429 . S
C2486 H2510 0.950 . S
C2487 C2504 1.574 . S
C2487 C2506 1.368 1_655 S
C2487 H2511 0.949 . S
H2488 C2492 0.949 . S
C2489 C2490 1.349 . S
C2489 C2491 1.327 . S
C2489 H2512 0.950 . S
C2490 C2489 1.349 . S
C2490 C2502 1.349 . S
C2491 C2489 1.327 . S
C2491 C2507 1.429 . S
C2491 H2513 0.950 . S
C2492 H2488 0.949 . S
C2492 C2500 1.574 . S
C2492 C2508 1.368 1_455 S
H2493 C2501 0.950 . S
H2494 C2499 0.950 . S
H2495 C2500 0.949 . S
H2496 C2502 0.950 . S
H2497 C2503 0.950 . S
H2498 C2504 0.949 . S
C2499 H2494 0.950 . S
C2499 C2501 1.327 . S
C2499 C2505 1.429 . S
C2500 C2492 1.574 . S
C2500 H2495 0.949 . S
C2500 C2506 1.368 . S
C2501 C2485 1.349 . S
C2501 H2493 0.950 . S
C2501 C2499 1.327 . S
C2502 C2490 1.349 . S
C2502 H2496 0.950 . S
C2502 C2503 1.327 . S
C2503 H2497 0.950 . S
C2503 C2502 1.327 . S
C2503 C2507 1.429 . S
C2504 C2487 1.574 . S
C2504 H2498 0.949 . S
C2504 C2508 1.368 . S
C2505 C2486 1.429 . S
C2505 C2499 1.429 . S
C2505 C2506 1.523 . S
C2506 C2487 1.368 1_455 S
C2506 C2500 1.368 . S
C2506 C2505 1.523 . S
C2507 C2491 1.429 . S
C2507 C2503 1.429 . S
C2507 C2508 1.523 . S
C2508 C2492 1.368 1_655 S
C2508 C2504 1.368 . S
C2508 C2507 1.523 . S
H2509 C2484 0.950 . S
H2510 C2486 0.950 . S
H2511 C2487 0.949 . S
H2512 C2489 0.950 . S
H2513 C2491 0.950 . S
C2514 C2515 1.349 . S
C2514 C2516 1.327 . S
C2514 H2539 0.950 . S
C2515 C2514 1.349 . S
C2515 C2531 1.349 . S
C2516 C2514 1.327 . S
C2516 C2535 1.429 . S
C2516 H2540 0.950 . S
C2517 C2534 1.574 . S
C2517 C2536 1.368 . S
C2517 H2541 0.949 . S
H2518 C2522 0.949 . S
C2519 C2520 1.349 . S
C2519 C2521 1.327 . S
C2519 H2542 0.950 . S
C2520 C2519 1.349 . S
C2520 C2532 1.349 . S
C2521 C2519 1.327 . S
C2521 C2537 1.429 . S
C2521 H2543 0.950 . S
C2522 H2518 0.949 . S
C2522 C2530 1.574 . S
C2522 C2538 1.368 . S
H2523 C2531 0.950 . S
H2524 C2529 0.950 . S
H2525 C2530 0.949 . S
H2526 C2532 0.950 . S
H2527 C2533 0.950 . S
H2528 C2534 0.949 . S
C2529 H2524 0.950 . S
C2529 C2531 1.327 . S
C2529 C2535 1.429 . S
C2530 C2522 1.574 . S
C2530 H2525 0.949 . S
C2530 C2536 1.368 . S
C2531 C2515 1.349 . S
C2531 H2523 0.950 . S
C2531 C2529 1.327 . S
C2532 C2520 1.349 . S
C2532 H2526 0.950 . S
C2532 C2533 1.327 . S
C2533 H2527 0.950 . S
C2533 C2532 1.327 . S
C2533 C2537 1.429 . S
C2534 C2517 1.574 . S
C2534 H2528 0.949 . S
C2534 C2538 1.368 . S
C2535 C2516 1.429 . S
C2535 C2529 1.429 . S
C2535 C2536 1.523 . S
C2536 C2517 1.368 . S
C2536 C2530 1.368 . S
C2536 C2535 1.523 . S
C2537 C2521 1.429 . S
C2537 C2533 1.429 . S
C2537 C2538 1.523 . S
C2538 C2522 1.368 . S
C2538 C2534 1.368 . S
C2538 C2537 1.523 . S
H2539 C2514 0.950 . S
H2540 C2516 0.950 . S
H2541 C2517 0.949 . S
H2542 C2519 0.950 . S
H2543 C2521 0.950 . S
C2544 C2545 1.349 . S
C2544 C2546 1.327 . S
C2544 H2569 0.950 . S
C2545 C2544 1.349 . S
C2545 C2561 1.349 . S
C2546 C2544 1.327 . S
C2546 C2565 1.429 . S
C2546 H2570 0.950 . S
C2547 C2564 1.574 . S
C2547 C2566 1.368 1_565 S
C2547 H2571 0.949 . S
H2548 C2552 0.949 . S
C2549 C2550 1.349 . S
C2549 C2551 1.327 . S
C2549 H2572 0.950 . S
C2550 C2549 1.349 . S
C2550 C2562 1.349 . S
C2551 C2549 1.327 . S
C2551 C2567 1.429 . S
C2551 H2573 0.950 . S
C2552 H2548 0.949 . S
C2552 C2560 1.574 . S
C2552 C2568 1.368 1_545 S
H2553 C2561 0.950 . S
H2554 C2559 0.950 . S
H2555 C2560 0.949 . S
H2556 C2562 0.950 . S
H2557 C2563 0.950 . S
H2558 C2564 0.949 . S
C2559 H2554 0.950 . S
C2559 C2561 1.327 . S
C2559 C2565 1.429 . S
C2560 C2552 1.574 . S
C2560 H2555 0.949 . S
C2560 C2566 1.368 . S
C2561 C2545 1.349 . S
C2561 H2553 0.950 . S
C2561 C2559 1.327 . S
C2562 C2550 1.349 . S
C2562 H2556 0.950 . S
C2562 C2563 1.327 . S
C2563 H2557 0.950 . S
C2563 C2562 1.327 . S
C2563 C2567 1.429 . S
C2564 C2547 1.574 . S
C2564 H2558 0.949 . S
C2564 C2568 1.368 . S
C2565 C2546 1.429 . S
C2565 C2559 1.429 . S
C2565 C2566 1.523 . S
C2566 C2547 1.368 1_545 S
C2566 C2560 1.368 . S
C2566 C2565 1.523 . S
C2567 C2551 1.429 . S
C2567 C2563 1.429 . S
C2567 C2568 1.523 . S
C2568 C2552 1.368 1_565 S
C2568 C2564 1.368 . S
C2568 C2567 1.523 . S
H2569 C2544 0.950 . S
H2570 C2546 0.950 . S
H2571 C2547 0.949 . S
H2572 C2549 0.950 . S
H2573 C2551 0.950 . S
C2574 C2575 1.349 . S
C2574 C2576 1.327 . S
C2574 H2599 0.950 . S
C2575 C2574 1.349 . S
C2575 C2591 1.349 . S
C2576 C2574 1.327 . S
C2576 C2595 1.429 . S
C2576 H2600 0.950 1_554 S
C2577 C2594 1.574 . S
C2577 C2596 1.368 1_565 S
C2577 H2601 0.949 . S
H2578 C2582 0.949 . S
C2579 C2580 1.349 . S
C2579 C2581 1.327 . S
C2579 H2602 0.950 . S
C2580 C2579 1.349 . S
C2580 C2592 1.349 . S
C2581 C2579 1.327 . S
C2581 C2597 1.429 . S
C2581 H2603 0.950 1_556 S
C2582 H2578 0.949 . S
C2582 C2590 1.574 . S
C2582 C2598 1.368 1_545 S
H2583 C2591 0.950 . S
H2584 C2589 0.950 . S
H2585 C2590 0.949 . S
H2586 C2592 0.950 . S
H2587 C2593 0.950 . S
H2588 C2594 0.949 . S
C2589 H2584 0.950 . S
C2589 C2591 1.327 . S
C2589 C2595 1.429 . S
C2590 C2582 1.574 . S
C2590 H2585 0.949 . S
C2590 C2596 1.368 1_556 S
C2591 C2575 1.349 . S
C2591 H2583 0.950 . S
C2591 C2589 1.327 . S
C2592 C2580 1.349 . S
C2592 H2586 0.950 . S
C2592 C2593 1.327 . S
C2593 H2587 0.950 . S
C2593 C2592 1.327 . S
C2593 C2597 1.429 . S
C2594 C2577 1.574 . S
C2594 H2588 0.949 . S
C2594 C2598 1.368 1_554 S
C2595 C2576 1.429 . S
C2595 C2589 1.429 . S
C2595 C2596 1.523 . S
C2596 C2577 1.368 1_545 S
C2596 C2590 1.368 1_554 S
C2596 C2595 1.523 . S
C2597 C2581 1.429 . S
C2597 C2593 1.429 . S
C2597 C2598 1.523 . S
C2598 C2582 1.368 1_565 S
C2598 C2594 1.368 1_556 S
C2598 C2597 1.523 . S
H2599 C2574 0.950 . S
H2600 C2576 0.950 1_556 S
H2601 C2577 0.949 . S
H2602 C2579 0.950 . S
H2603 C2581 0.950 1_554 S
C2604 C2605 1.349 . S
C2604 C2606 1.327 . S
C2604 H2629 0.950 . S
C2605 C2604 1.349 . S
C2605 C2621 1.349 . S
C2606 C2604 1.327 . S
C2606 C2625 1.429 . S
C2606 H2630 0.950 1_554 S
C2607 C2624 1.588 . S
C2607 C2626 1.346 1_455 S
C2607 H2631 0.959 . S
H2608 C2612 0.959 . S
C2609 C2610 1.349 . S
C2609 C2611 1.327 . S
C2609 H2632 0.950 . S
C2610 C2609 1.349 . S
C2610 C2622 1.349 . S
C2611 C2609 1.327 . S
C2611 C2627 1.429 . S
C2611 H2633 0.950 1_556 S
C2612 H2608 0.959 . S
C2612 C2620 1.588 . S
C2612 C2628 1.346 1_655 S
H2613 C2621 0.950 . S
H2614 C2619 0.950 . S
H2615 C2620 0.949 . S
H2616 C2622 0.950 . S
H2617 C2623 0.950 . S
H2618 C2624 0.949 . S
C2619 H2614 0.950 . S
C2619 C2621 1.327 . S
C2619 C2625 1.429 . S
C2620 C2612 1.588 . S
C2620 H2615 0.949 . S
C2620 C2626 1.368 1_556 S
C2621 C2605 1.349 . S
C2621 H2613 0.950 . S
C2621 C2619 1.327 . S
C2622 C2610 1.349 . S
C2622 H2616 0.950 . S
C2622 C2623 1.327 . S
C2623 H2617 0.950 . S
C2623 C2622 1.327 . S
C2623 C2627 1.429 . S
C2624 C2607 1.588 . S
C2624 H2618 0.949 . S
C2624 C2628 1.368 1_554 S
C2625 C2606 1.429 . S
C2625 C2619 1.429 . S
C2625 C2626 1.523 . S
C2626 C2607 1.346 1_655 S
C2626 C2620 1.368 1_554 S
C2626 C2625 1.523 . S
C2627 C2611 1.429 . S
C2627 C2623 1.429 . S
C2627 C2628 1.523 . S
C2628 C2612 1.346 1_455 S
C2628 C2624 1.368 1_556 S
C2628 C2627 1.523 . S
H2629 C2604 0.950 . S
H2630 C2606 0.950 1_556 S
H2631 C2607 0.959 . S
H2632 C2609 0.950 . S
H2633 C2611 0.950 1_554 S
C2634 C2635 1.349 . S
C2634 C2636 1.327 . S
C2634 H2659 0.950 . S
C2635 C2634 1.349 . S
C2635 C2651 1.349 . S
C2636 C2634 1.327 . S
C2636 C2655 1.429 . S
C2636 H2660 0.950 1_556 S
C2637 C2654 1.574 . S
C2637 C2656 1.368 . S
C2637 H2661 0.949 . S
H2638 C2642 0.949 . S
C2639 C2640 1.349 . S
C2639 C2641 1.327 . S
C2639 H2662 0.950 . S
C2640 C2639 1.349 . S
C2640 C2652 1.349 . S
C2641 C2639 1.327 . S
C2641 C2657 1.429 . S
C2641 H2663 0.950 1_554 S
C2642 H2638 0.949 . S
C2642 C2650 1.574 . S
C2642 C2658 1.368 . S
H2643 C2651 0.950 . S
H2644 C2649 0.950 . S
H2645 C2650 0.949 . S
H2646 C2652 0.950 . S
H2647 C2653 0.950 . S
H2648 C2654 0.949 . S
C2649 H2644 0.950 . S
C2649 C2651 1.327 . S
C2649 C2655 1.429 . S
C2650 C2642 1.574 . S
C2650 H2645 0.949 . S
C2650 C2656 1.368 1_554 S
C2651 C2635 1.349 . S
C2651 H2643 0.950 . S
C2651 C2649 1.327 . S
C2652 C2640 1.349 . S
C2652 H2646 0.950 . S
C2652 C2653 1.327 . S
C2653 H2647 0.950 . S
C2653 C2652 1.327 . S
C2653 C2657 1.429 . S
C2654 C2637 1.574 . S
C2654 H2648 0.949 . S
C2654 C2658 1.368 1_556 S
C2655 C2636 1.429 . S
C2655 C2649 1.429 . S
C2655 C2656 1.523 . S
C2656 C2637 1.368 . S
C2656 C2650 1.368 1_556 S
C2656 C2655 1.523 . S
C2657 C2641 1.429 . S
C2657 C2653 1.429 . S
C2657 C2658 1.523 . S
C2658 C2642 1.368 . S
C2658 C2654 1.368 1_554 S
C2658 C2657 1.523 . S
H2659 C2634 0.950 . S
H2660 C2636 0.950 1_554 S
H2661 C2637 0.949 . S
H2662 C2639 0.950 . S
H2663 C2641 0.950 1_556 S
C505 C12 0.783 . S
C510 C18 0.793 . S
C535 C26 0.783 . S
C540 C32 0.792 . S
C565 C4 0.792 . S
C570 C40 0.783 . S
C595 C54 0.783 . S
C600 C74 0.793 . S
C625 C68 0.783 . S
C630 C46 0.792 . S
C655 C60 0.793 . S
C660 C82 0.783 . S
C685 C96 0.783 . S
C690 C102 0.793 . S
C715 C116 0.792 . S
C720 C110 0.783 . S
C745 C88 0.792 . S
C750 C124 0.783 . S
C775 C158 0.793 . S
C780 C138 0.783 . S
C805 C152 0.783 . S
C810 C130 0.792 . S
C835 C166 0.783 . S
C840 C144 0.793 . S
C865 C186 0.793 . S
C870 C180 0.783 . S
C895 C194 0.783 . S
C900 C200 0.792 . S
C925 C208 0.783 . S
C930 C172 0.792 . S
C955 C222 0.783 . S
C960 C242 0.793 . S
C985 C236 0.783 . S
C990 C214 0.792 . S
C1015 C250 0.783 . S
C1020 C228 0.793 . S
C1045 C270 0.793 . S
C1050 C264 0.783 . S
C1075 C278 0.783 . S
C1080 C284 0.793 . S
C1105 C256 0.792 . S
C1110 C292 0.783 . S
C1135 C326 0.793 . S
C1140 C306 0.783 . S
C1165 C320 0.783 . S
C1170 C298 0.793 . S
C1195 C312 0.793 . S
C1200 C334 0.783 . S
C1225 C354 0.793 . S
C1230 C348 0.783 . S
C1255 C362 0.783 . S
C1260 C368 0.793 . S
C1285 C376 0.783 . S
C1290 C340 0.792 . S
C1315 C410 0.793 . S
C1320 C390 0.783 . S
C1345 C404 0.783 . S
C1350 C382 0.793 . S
C1375 C396 0.793 . S
C1380 C418 0.783 . S
C1405 C432 0.783 . S
C1410 C438 0.793 . S
C1435 C446 0.783 . S
C1440 C452 0.792 . S
C1465 C460 0.783 . S
C1470 C424 0.792 . S
C1495 C494 0.793 . S
C1500 C474 0.783 . S
C1525 C466 0.792 . S
C1530 C488 0.783 . S
C1555 C502 0.783 . S
C1560 C480 0.793 . S
C1585 C53 1.469 . S
C1590 C11 1.469 . S
C1615 C25 1.468 . S
C1620 C67 1.468 . S
C1645 C81 1.468 . S
C1650 C39 1.468 . S
C1675 C137 1.469 . S
C1680 C95 1.469 . S
C1705 C109 1.468 . S
C1710 C151 1.468 . S
C1735 C165 1.468 . S
C1740 C123 1.468 . S
C1765 C179 1.468 . S
C1770 C221 1.468 . S
C1795 C193 1.468 . S
C1800 C235 1.468 . S
C1825 C207 1.469 . S
C1830 C249 1.469 . S
C1855 C305 1.469 . S
C1860 C263 1.469 . S
C1885 C319 1.469 . S
C1890 C277 1.469 . S
C1915 C291 1.468 . S
C1920 C333 1.468 . S
C1945 C389 1.469 . S
C1950 C347 1.469 . S
C1975 C403 1.469 . S
C1980 C361 1.469 . S
C2005 C375 1.468 . S
C2010 C417 1.468 . S
C2035 C431 1.468 . S
C2040 C473 1.468 . S
C2065 C487 1.468 . S
C2070 C445 1.468 . S
C2095 C459 1.469 . S
C2100 C501 1.469 . S
C2125 C5 1.530 . S
C2130 C257 1.530 . S
C2155 C19 1.529 . S
C2160 C271 1.529 . S
C2185 C33 1.529 . S
C2190 C285 1.529 . S
C2215 C467 1.530 . S
C2220 C47 1.530 . S
C2245 C481 1.529 . S
C2250 C61 1.529 . S
C2275 C75 1.530 . S
C2280 C495 1.530 . S
C2305 C89 1.530 . S
C2310 C341 1.530 . S
C2335 C355 1.529 . S
C2340 C103 1.529 . S
C2365 C369 1.529 . S
C2370 C117 1.529 . S
C2395 C215 1.530 . S
C2400 C131 1.530 . S
C2425 C229 1.529 . S
C2430 C145 1.529 . S
C2455 C243 1.530 . S
C2460 C159 1.530 . S
C2485 C425 1.530 . S
C2490 C173 1.530 . S
C2515 C187 1.529 . S
C2520 C439 1.529 . S
C2545 C201 1.530 . S
C2550 C453 1.530 . S
C2575 C299 1.530 . S
C2580 C383 1.530 . S
C2605 C313 1.529 . S
C2610 C397 1.529 . S
C2635 C411 1.529 . S
C2640 C327 1.529 . S
