# Generated by pormake.
# Topology uox, (4)-cn, num edge types: 1
# Building blocks:
#     Node 0, Type 0, BuildingBlock: QUQFOY_clean_sbu_3, # of connection points: 4
#     Node 1, Type 0, BuildingBlock: QUQFOY_clean_sbu_3, # of connection points: 4
#     Node 2, Type 0, BuildingBlock: QUQFOY_clean_sbu_3, # of connection points: 4
#     Node 3, Type 0, BuildingBlock: QUQFOY_clean_sbu_3, # of connection points: 4
#     Node 4, Type 0, BuildingBlock: QUQFOY_clean_sbu_3, # of connection points: 4
#     Node 5, Type 0, BuildingBlock: QUQFOY_clean_sbu_3, # of connection points: 4
#     Node 6, Type 0, BuildingBlock: QUQFOY_clean_sbu_3, # of connection points: 4
#     Node 7, Type 0, BuildingBlock: QUQFOY_clean_sbu_3, # of connection points: 4
#     Node 8, Type 0, BuildingBlock: QUQFOY_clean_sbu_3, # of connection points: 4
#     Node 9, Type 0, BuildingBlock: QUQFOY_clean_sbu_3, # of connection points: 4
#     Node 10, Type 0, BuildingBlock: QUQFOY_clean_sbu_3, # of connection points: 4
#     Node 11, Type 0, BuildingBlock: QUQFOY_clean_sbu_3, # of connection points: 4
#     Node 12, Type 0, BuildingBlock: QUQFOY_clean_sbu_3, # of connection points: 4
#     Node 13, Type 0, BuildingBlock: QUQFOY_clean_sbu_3, # of connection points: 4
#     Node 14, Type 0, BuildingBlock: QUQFOY_clean_sbu_3, # of connection points: 4
#     Node 15, Type 0, BuildingBlock: QUQFOY_clean_sbu_3, # of connection points: 4
#     Node 16, Type 0, BuildingBlock: QUQFOY_clean_sbu_3, # of connection points: 4
#     Node 17, Type 0, BuildingBlock: QUQFOY_clean_sbu_3, # of connection points: 4
#     Node 18, Type 0, BuildingBlock: QUQFOY_clean_sbu_3, # of connection points: 4
#     Node 19, Type 0, BuildingBlock: QUQFOY_clean_sbu_3, # of connection points: 4
#     Node 20, Type 0, BuildingBlock: QUQFOY_clean_sbu_3, # of connection points: 4
#     Node 21, Type 0, BuildingBlock: QUQFOY_clean_sbu_3, # of connection points: 4
#     Node 22, Type 0, BuildingBlock: QUQFOY_clean_sbu_3, # of connection points: 4
#     Node 23, Type 0, BuildingBlock: QUQFOY_clean_sbu_3, # of connection points: 4
#     Node 24, Type 0, BuildingBlock: QUQFOY_clean_sbu_3, # of connection points: 4
#     Node 25, Type 0, BuildingBlock: QUQFOY_clean_sbu_3, # of connection points: 4
#     Node 26, Type 0, BuildingBlock: QUQFOY_clean_sbu_3, # of connection points: 4
#     Node 27, Type 0, BuildingBlock: QUQFOY_clean_sbu_3, # of connection points: 4
#     Node 28, Type 0, BuildingBlock: QUQFOY_clean_sbu_3, # of connection points: 4
#     Node 29, Type 0, BuildingBlock: QUQFOY_clean_sbu_3, # of connection points: 4
#     Node 30, Type 0, BuildingBlock: QUQFOY_clean_sbu_3, # of connection points: 4
#     Node 31, Type 0, BuildingBlock: QUQFOY_clean_sbu_3, # of connection points: 4
#     Edge 32, Type (0, 0), BuildingBlock: MIFKUJ_clean_linker_0, # of connection points: 2
#     Edge 33, Type (0, 0), BuildingBlock: MIFKUJ_clean_linker_0, # of connection points: 2
#     Edge 34, Type (0, 0), BuildingBlock: MIFKUJ_clean_linker_0, # of connection points: 2
#     Edge 35, Type (0, 0), BuildingBlock: MIFKUJ_clean_linker_0, # of connection points: 2
#     Edge 36, Type (0, 0), BuildingBlock: MIFKUJ_clean_linker_0, # of connection points: 2
#     Edge 37, Type (0, 0), BuildingBlock: MIFKUJ_clean_linker_0, # of connection points: 2
#     Edge 38, Type (0, 0), BuildingBlock: MIFKUJ_clean_linker_0, # of connection points: 2
#     Edge 39, Type (0, 0), BuildingBlock: MIFKUJ_clean_linker_0, # of connection points: 2
#     Edge 40, Type (0, 0), BuildingBlock: MIFKUJ_clean_linker_0, # of connection points: 2
#     Edge 41, Type (0, 0), BuildingBlock: MIFKUJ_clean_linker_0, # of connection points: 2
#     Edge 42, Type (0, 0), BuildingBlock: MIFKUJ_clean_linker_0, # of connection points: 2
#     Edge 43, Type (0, 0), BuildingBlock: MIFKUJ_clean_linker_0, # of connection points: 2
#     Edge 44, Type (0, 0), BuildingBlock: MIFKUJ_clean_linker_0, # of connection points: 2
#     Edge 45, Type (0, 0), BuildingBlock: MIFKUJ_clean_linker_0, # of connection points: 2
#     Edge 46, Type (0, 0), BuildingBlock: MIFKUJ_clean_linker_0, # of connection points: 2
#     Edge 47, Type (0, 0), BuildingBlock: MIFKUJ_clean_linker_0, # of connection points: 2
#     Edge 48, Type (0, 0), BuildingBlock: MIFKUJ_clean_linker_0, # of connection points: 2
#     Edge 49, Type (0, 0), BuildingBlock: MIFKUJ_clean_linker_0, # of connection points: 2
#     Edge 50, Type (0, 0), BuildingBlock: MIFKUJ_clean_linker_0, # of connection points: 2
#     Edge 51, Type (0, 0), BuildingBlock: MIFKUJ_clean_linker_0, # of connection points: 2
#     Edge 52, Type (0, 0), BuildingBlock: MIFKUJ_clean_linker_0, # of connection points: 2
#     Edge 53, Type (0, 0), BuildingBlock: MIFKUJ_clean_linker_0, # of connection points: 2
#     Edge 54, Type (0, 0), BuildingBlock: MIFKUJ_clean_linker_0, # of connection points: 2
#     Edge 55, Type (0, 0), BuildingBlock: MIFKUJ_clean_linker_0, # of connection points: 2
#     Edge 56, Type (0, 0), BuildingBlock: MIFKUJ_clean_linker_0, # of connection points: 2
#     Edge 57, Type (0, 0), BuildingBlock: MIFKUJ_clean_linker_0, # of connection points: 2
#     Edge 58, Type (0, 0), BuildingBlock: MIFKUJ_clean_linker_0, # of connection points: 2
#     Edge 59, Type (0, 0), BuildingBlock: MIFKUJ_clean_linker_0, # of connection points: 2
#     Edge 60, Type (0, 0), BuildingBlock: MIFKUJ_clean_linker_0, # of connection points: 2
#     Edge 61, Type (0, 0), BuildingBlock: MIFKUJ_clean_linker_0, # of connection points: 2
#     Edge 62, Type (0, 0), BuildingBlock: MIFKUJ_clean_linker_0, # of connection points: 2
#     Edge 63, Type (0, 0), BuildingBlock: MIFKUJ_clean_linker_0, # of connection points: 2
#     Edge 64, Type (0, 0), BuildingBlock: MIFKUJ_clean_linker_0, # of connection points: 2
#     Edge 65, Type (0, 0), BuildingBlock: MIFKUJ_clean_linker_0, # of connection points: 2
#     Edge 66, Type (0, 0), BuildingBlock: MIFKUJ_clean_linker_0, # of connection points: 2
#     Edge 67, Type (0, 0), BuildingBlock: MIFKUJ_clean_linker_0, # of connection points: 2
#     Edge 68, Type (0, 0), BuildingBlock: MIFKUJ_clean_linker_0, # of connection points: 2
#     Edge 69, Type (0, 0), BuildingBlock: MIFKUJ_clean_linker_0, # of connection points: 2
#     Edge 70, Type (0, 0), BuildingBlock: MIFKUJ_clean_linker_0, # of connection points: 2
#     Edge 71, Type (0, 0), BuildingBlock: MIFKUJ_clean_linker_0, # of connection points: 2
#     Edge 72, Type (0, 0), BuildingBlock: MIFKUJ_clean_linker_0, # of connection points: 2
#     Edge 73, Type (0, 0), BuildingBlock: MIFKUJ_clean_linker_0, # of connection points: 2
#     Edge 74, Type (0, 0), BuildingBlock: MIFKUJ_clean_linker_0, # of connection points: 2
#     Edge 75, Type (0, 0), BuildingBlock: MIFKUJ_clean_linker_0, # of connection points: 2
#     Edge 76, Type (0, 0), BuildingBlock: MIFKUJ_clean_linker_0, # of connection points: 2
#     Edge 77, Type (0, 0), BuildingBlock: MIFKUJ_clean_linker_0, # of connection points: 2
#     Edge 78, Type (0, 0), BuildingBlock: MIFKUJ_clean_linker_0, # of connection points: 2
#     Edge 79, Type (0, 0), BuildingBlock: MIFKUJ_clean_linker_0, # of connection points: 2
#     Edge 80, Type (0, 0), BuildingBlock: MIFKUJ_clean_linker_0, # of connection points: 2
#     Edge 81, Type (0, 0), BuildingBlock: MIFKUJ_clean_linker_0, # of connection points: 2
#     Edge 82, Type (0, 0), BuildingBlock: MIFKUJ_clean_linker_0, # of connection points: 2
#     Edge 83, Type (0, 0), BuildingBlock: MIFKUJ_clean_linker_0, # of connection points: 2
#     Edge 84, Type (0, 0), BuildingBlock: MIFKUJ_clean_linker_0, # of connection points: 2
#     Edge 85, Type (0, 0), BuildingBlock: MIFKUJ_clean_linker_0, # of connection points: 2
#     Edge 86, Type (0, 0), BuildingBlock: MIFKUJ_clean_linker_0, # of connection points: 2
#     Edge 87, Type (0, 0), BuildingBlock: MIFKUJ_clean_linker_0, # of connection points: 2
#     Edge 88, Type (0, 0), BuildingBlock: MIFKUJ_clean_linker_0, # of connection points: 2
#     Edge 89, Type (0, 0), BuildingBlock: MIFKUJ_clean_linker_0, # of connection points: 2
#     Edge 90, Type (0, 0), BuildingBlock: MIFKUJ_clean_linker_0, # of connection points: 2
#     Edge 91, Type (0, 0), BuildingBlock: MIFKUJ_clean_linker_0, # of connection points: 2
#     Edge 92, Type (0, 0), BuildingBlock: MIFKUJ_clean_linker_0, # of connection points: 2
#     Edge 93, Type (0, 0), BuildingBlock: MIFKUJ_clean_linker_0, # of connection points: 2
#     Edge 94, Type (0, 0), BuildingBlock: MIFKUJ_clean_linker_0, # of connection points: 2
#     Edge 95, Type (0, 0), BuildingBlock: MIFKUJ_clean_linker_0, # of connection points: 2
# Relax obj value: 0.059
# Max RMSD: 0.086
# Mean RMSD: 0.086
data_MOF--net-uox--node1-QUQFOY_clean_sbu_3--edge1-MIFKUJ_clean_linker_0
_symmetry_space_group_name_H-M    P1
_symmetry_Int_Tables_number       1
_symmetry_cell_setting            triclinic
loop_
_symmetry_equiv_pos_as_xyz
'x, y, z'
_cell_length_a     61.09852
_cell_length_b     61.090228
_cell_length_c     104.75313
_cell_angle_alpha  89.912054
_cell_angle_beta   90.020262
_cell_angle_gamma 90.035121
loop_
_atom_site_label
_atom_site_type_symbol
_atom_site_fract_x
_atom_site_fract_y
_atom_site_fract_z
_atom_type_partial_charge
C0 C 0.46291 0.03381 0.12392 0.0
O1 O 0.44999 0.02777 0.11509 0.0
Cd2 Cd 0.41325 0.01455 0.11809 0.0
O3 O 0.45685 0.03319 0.13557 0.0
Cd4 Cd 0.42327 0.02332 0.1477 0.0
C5 C 0.39146 0.06027 0.13194 0.0
O6 O 0.41316 0.99036 0.13592 0.0
O7 O 0.38885 0.00299 0.1489 0.0
O8 O 0.44298 0.00522 0.16504 0.0
C9 C 0.39467 0.98802 0.14124 0.0
O10 O 0.3911 0.04665 0.12275 0.0
C11 C 0.43641 0.01801 0.17378 0.0
O12 O 0.40331 0.05692 0.14178 0.0
O13 O 0.42436 0.03391 0.17035 0.0
C14 C 0.20003 0.21573 0.37596 0.0
O15 O 0.20815 0.20472 0.36685 0.0
Cd16 Cd 0.22149 0.16793 0.36848 0.0
O17 O 0.19934 0.20783 0.38724 0.0
Cd18 Cd 0.21066 0.17361 0.39842 0.0
C19 C 0.17516 0.14348 0.38063 0.0
O20 O 0.24436 0.16621 0.38679 0.0
O21 O 0.23196 0.13969 0.39833 0.0
O22 O 0.22772 0.19238 0.41637 0.0
C23 C 0.24703 0.14705 0.39119 0.0
O24 O 0.18895 0.14538 0.37158 0.0
C25 C 0.21523 0.18442 0.42488 0.0
O26 O 0.17814 0.15321 0.39126 0.0
O27 O 0.19988 0.17199 0.42107 0.0
C28 C 0.00976 0.94636 0.62525 0.0
O29 O 0.0204 0.95302 0.61559 0.0
Cd30 Cd 0.05792 0.96421 0.61607 0.0
O31 O 0.01864 0.94623 0.63627 0.0
Cd32 Cd 0.05475 0.95633 0.64575 0.0
C33 C 0.08096 0.91748 0.62852 0.0
O34 O 0.06392 0.98908 0.63334 0.0
O35 O 0.09057 0.97338 0.64333 0.0
O36 O 0.04021 0.97666 0.66393 0.0
C37 C 0.0838 0.98955 0.63684 0.0
O38 O 0.0785 0.93039 0.61907 0.0
C39 C 0.04735 0.96368 0.67244 0.0
O40 O 0.07293 0.92218 0.63941 0.0
O41 O 0.05744 0.94677 0.66856 0.0
C42 C 0.28018 0.76086 0.87693 0.0
O43 O 0.27254 0.77178 0.86763 0.0
Cd44 Cd 0.26027 0.80891 0.86899 0.0
O45 O 0.28069 0.7691 0.88811 0.0
Cd46 Cd 0.26992 0.80401 0.89871 0.0
C47 C 0.30731 0.83187 0.88114 0.0
O48 O 0.23654 0.81288 0.88696 0.0
O49 O 0.2515 0.83935 0.89745 0.0
O50 O 0.25161 0.78657 0.91677 0.0
C51 C 0.23549 0.8325 0.89086 0.0
O52 O 0.29391 0.82988 0.87189 0.0
C53 C 0.26418 0.79433 0.92528 0.0
O54 O 0.30334 0.82306 0.89194 0.0
O55 O 0.28002 0.80613 0.92144 0.0
C56 C 0.47101 0.94533 0.35528 0.0
O57 O 0.45978 0.9522 0.36466 0.0
Cd58 Cd 0.42307 0.96592 0.3635 0.0
O59 O 0.46327 0.94594 0.34397 0.0
Cd60 Cd 0.42897 0.9578 0.33307 0.0
C61 C 0.39835 0.92097 0.34987 0.0
O62 O 0.42129 0.99035 0.34581 0.0
O63 O 0.39566 0.97973 0.33303 0.0
O64 O 0.44813 0.97581 0.3155 0.0
C65 C 0.40249 -0.00631 0.34104 0.0
O66 O 0.40087 0.9336 0.35942 0.0
C67 C 0.4402 0.96383 0.30675 0.0
O68 O 0.40759 0.92518 0.33922 0.0
O69 O 0.4276 0.94839 0.31025 0.0
C70 C 0.28458 0.21838 0.60667 0.0
O71 O 0.27688 0.20714 0.61583 0.0
Cd72 Cd 0.26492 0.16991 0.61392 0.0
O73 O 0.28535 0.21042 0.59543 0.0
Cd74 Cd 0.27507 0.17559 0.58464 0.0
C75 C 0.31237 0.14761 0.60201 0.0
O76 O 0.24134 0.16595 0.59589 0.0
O77 O 0.25755 0.13975 0.58583 0.0
O78 O 0.25641 0.19333 0.56684 0.0
C79 C 0.24092 0.14632 0.59196 0.0
O80 O 0.29839 0.14872 0.61102 0.0
C81 C 0.26871 0.18568 0.55818 0.0
O82 O 0.309 0.15734 0.59141 0.0
O83 O 0.28468 0.17388 0.56181 0.0
C84 C 0.00724 0.03024 0.85339 0.0
O85 O 0.0171 0.02162 0.8628 0.0
Cd86 Cd 0.055 0.01215 0.86253 0.0
O87 O 0.01692 0.03245 0.84268 0.0
Cd88 Cd 0.05303 0.02256 0.83305 0.0
C89 C 0.07726 0.06068 0.85158 0.0
O90 O 0.06191 0.98898 0.84464 0.0
O91 O 0.089 0.00567 0.83564 0.0
O92 O 0.03762 0.00371 0.81461 0.0
C93 C 0.08198 0.98893 0.84153 0.0
O94 O 0.07437 0.04713 0.86069 0.0
C95 C 0.04581 0.01634 0.80625 0.0
O96 O 0.07031 0.05647 0.84037 0.0
O97 O 0.05689 0.03251 0.81032 0.0
C98 C 0.19352 0.76056 0.10688 0.0
O99 O 0.19969 0.77184 0.1164 0.0
Cd100 Cd 0.2114 0.80916 0.11567 0.0
O101 O 0.19398 0.76864 0.09564 0.0
Cd102 Cd 0.20464 0.80392 0.0852 0.0
C103 C 0.16554 0.83174 0.10181 0.0
O104 O 0.23642 0.81248 0.09836 0.0
O105 O 0.22495 0.8384 0.08606 0.0
O106 O 0.22413 0.78685 0.06745 0.0
C107 C 0.23908 0.83167 0.09401 0.0
O108 O 0.17781 0.82942 0.11156 0.0
C109 C 0.21153 0.7941 0.05878 0.0
O110 O 0.17086 0.82345 0.09108 0.0
O111 O 0.19522 0.80538 0.0624 0.0
C112 C 0.50962 0.94633 0.85896 0.0
O113 O 0.52049 0.95381 0.86831 0.0
Cd114 Cd 0.55751 0.96624 0.86694 0.0
O115 O 0.51789 0.94611 0.84778 0.0
Cd116 Cd 0.5529 0.95753 0.83741 0.0
C117 C 0.58041 0.91945 0.8545 0.0
O118 O 0.56114 -0.00901 0.84935 0.0
O119 O 0.588 0.97628 0.83912 0.0
O120 O 0.53338 0.97446 0.81956 0.0
C121 C 0.5808 -0.0077 0.84554 0.0
O122 O 0.57858 0.93274 0.8638 0.0
C123 C 0.54357 0.96421 0.81087 0.0
O124 O 0.57147 0.92362 0.84376 0.0
O125 O 0.55759 0.95018 0.81452 0.0
C126 C 0.7797 0.76117 0.60779 0.0
O127 O 0.77225 0.77161 0.61731 0.0
Cd128 Cd 0.75994 0.80877 0.61663 0.0
O129 O 0.78001 0.76998 0.59675 0.0
Cd130 Cd 0.76906 0.8055 0.5869 0.0
C131 C 0.80674 0.83251 0.60469 0.0
O132 O 0.73577 0.81375 0.59891 0.0
O133 O 0.75076 0.84077 0.58888 0.0
O134 O 0.75034 0.78927 0.56862 0.0
C135 C 0.73474 0.83357 0.59533 0.0
O136 O 0.79348 0.83002 0.61397 0.0
C137 C 0.76294 0.79734 0.5602 0.0
O138 O 0.80259 0.82424 0.59378 0.0
O139 O 0.77893 0.80876 0.56419 0.0
C140 C 0.97303 0.03208 0.3543 0.0
O141 O 0.96279 0.02376 0.36366 0.0
Cd142 Cd 0.92521 0.01267 0.36283 0.0
O143 O 0.96392 0.03356 0.34337 0.0
Cd144 Cd 0.92842 0.02322 0.33325 0.0
C145 C 0.90158 0.06015 0.35146 0.0
O146 O 0.91953 0.98954 0.34478 0.0
O147 O 0.89277 0.00555 0.33506 0.0
O148 O 0.94415 0.00436 0.31492 0.0
C149 C 0.89965 0.98911 0.34127 0.0
O150 O 0.90431 0.04657 0.36057 0.0
C151 C 0.93696 0.01758 0.30656 0.0
O152 O 0.90966 0.05646 0.34045 0.0
O153 O 0.92623 0.03399 0.3106 0.0
C154 C 0.68986 0.21862 0.10547 0.0
O155 O 0.69633 0.20732 0.11493 0.0
Cd156 Cd 0.71012 0.17066 0.11404 0.0
O157 O 0.69081 0.2109 0.09417 0.0
Cd158 Cd 0.70287 0.17621 0.08371 0.0
C159 C 0.66538 0.14606 0.1003 0.0
O160 O 0.73537 0.16916 0.09672 0.0
O161 O 0.72512 0.14301 0.08427 0.0
O162 O 0.71962 0.19587 0.06582 0.0
C163 C 0.73902 0.15029 0.09218 0.0
O164 O 0.67789 0.14826 0.10993 0.0
C165 C 0.70873 0.18614 0.05719 0.0
O166 O 0.66986 0.15545 0.08973 0.0
O167 O 0.69449 0.17239 0.06093 0.0
C168 C 0.5152 0.03825 0.62986 0.0
O169 O 0.52572 0.02914 0.62087 0.0
Cd170 Cd 0.56237 0.01554 0.62289 0.0
O171 O 0.5235 0.0396 0.641 0.0
Cd172 Cd 0.55769 0.02787 0.65201 0.0
C173 C 0.58703 0.06257 0.63369 0.0
O174 O 0.56417 -0.0072 0.64139 0.0
O175 O 0.59177 0.00701 0.65114 0.0
O176 O 0.53612 0.0153 0.67027 0.0
C177 C 0.58373 -0.0092 0.64524 0.0
O178 O 0.58579 0.04787 0.6251 0.0
C179 C 0.54771 0.02478 0.67867 0.0
O180 O 0.57673 0.06057 0.64421 0.0
O181 O 0.5635 0.03644 0.67466 0.0
C182 C 0.70193 0.76132 0.37831 0.0
O183 O 0.71061 0.77136 0.36898 0.0
Cd184 Cd 0.7211 0.80906 0.36962 0.0
O185 O 0.69998 0.77067 0.38913 0.0
Cd186 Cd 0.71009 0.8063 0.39917 0.0
C187 C 0.67291 0.8319 0.38049 0.0
O188 O 0.74388 0.81494 0.38782 0.0
O189 O 0.72786 0.84197 0.39721 0.0
O190 O 0.72834 0.79047 0.41772 0.0
C191 C 0.74437 0.83488 0.39117 0.0
O192 O 0.68663 0.82921 0.37147 0.0
C193 C 0.71519 0.79812 0.42595 0.0
O194 O 0.67671 0.82431 0.39162 0.0
O195 O 0.69909 0.80916 0.42174 0.0
C196 C 0.96575 0.94977 0.12378 0.0
O197 O 0.95412 0.95702 0.11465 0.0
Cd198 Cd 0.91713 0.96976 0.11679 0.0
O199 O 0.95839 0.94977 0.13517 0.0
Cd200 Cd 0.92455 0.96084 0.14667 0.0
C201 C 0.89474 0.92341 0.13012 0.0
O202 O 0.91527 -0.00611 0.13462 0.0
O203 O 0.89014 0.981 0.14702 0.0
O204 O 0.94403 0.97877 0.16412 0.0
C205 C 0.89643 -0.00392 0.13954 0.0
O206 O 0.89574 0.93674 0.12078 0.0
C207 C 0.93639 0.96663 0.17289 0.0
O208 O 0.90485 0.92733 0.14052 0.0
O209 O 0.92388 0.95109 0.16944 0.0
C210 C 0.78273 0.21844 0.87583 0.0
O211 O 0.77448 0.20741 0.86676 0.0
Cd212 Cd 0.76137 0.17061 0.8688 0.0
O213 O 0.7837 0.21044 0.88707 0.0
Cd214 Cd 0.77297 0.17593 0.8981 0.0
C215 C 0.80854 0.1468 0.88009 0.0
O216 O 0.73844 0.16803 0.88721 0.0
O217 O 0.75326 0.14123 0.89748 0.0
O218 O 0.75762 0.19589 0.91617 0.0
C219 C 0.73697 0.14854 0.89131 0.0
O220 O 0.79427 0.14834 0.87127 0.0
C221 C 0.7688 0.18617 0.92467 0.0
O222 O 0.80587 0.15662 0.89072 0.0
O223 O 0.78268 0.1722 0.92079 0.0
C224 C 0.9721 0.53419 0.62744 0.0
O225 O 0.96212 0.52524 0.61819 0.0
Cd226 Cd 0.92419 0.5155 0.61903 0.0
O227 O 0.96275 0.53645 0.63824 0.0
Cd228 Cd 0.92744 0.52593 0.64853 0.0
C229 C 0.90148 0.56352 0.63041 0.0
O230 O 0.91823 0.49235 0.63706 0.0
O231 O 0.89163 0.50848 0.64681 0.0
O232 O 0.94437 0.50714 0.66653 0.0
C233 C 0.89838 0.49201 0.6406 0.0
O234 O 0.90413 0.55 0.62128 0.0
C235 C 0.93661 0.51957 0.6751 0.0
O236 O 0.90925 0.55952 0.64147 0.0
O237 O 0.92503 0.53562 0.67133 0.0
C238 C 0.69593 0.71766 0.87629 0.0
O239 O 0.70329 0.70687 0.86687 0.0
Cd240 Cd 0.71713 0.67021 0.86779 0.0
O241 O 0.69617 0.70949 0.88751 0.0
Cd242 Cd 0.70802 0.67493 0.89818 0.0
C243 C 0.67141 0.64552 0.88059 0.0
O244 O 0.74107 0.66804 0.88569 0.0
O245 O 0.73029 0.64183 0.89801 0.0
O246 O 0.72387 0.69517 0.91603 0.0
C247 C 0.74445 0.6491 0.89025 0.0
O248 O 0.68444 0.64818 0.87123 0.0
C249 C 0.71319 0.68521 0.92467 0.0
O250 O 0.67535 0.6543 0.8914 0.0
O251 O 0.69935 0.67104 0.92095 0.0
C252 C 0.51075 0.45138 0.13037 0.0
O253 O 0.51978 0.46072 0.12091 0.0
Cd254 Cd 0.55761 0.47095 0.12081 0.0
O255 O 0.52102 0.44914 0.14089 0.0
Cd256 Cd 0.55685 0.46021 0.15031 0.0
C257 C 0.58127 0.42281 0.13143 0.0
O258 O 0.5648 0.49402 0.1387 0.0
O259 O 0.59236 0.47795 0.14759 0.0
O260 O 0.54109 0.47867 0.16873 0.0
C261 C 0.58493 0.49448 0.14166 0.0
O262 O 0.57792 0.43643 0.12241 0.0
C263 C 0.54938 0.46609 0.17708 0.0
O264 O 0.57444 0.42672 0.14269 0.0
O265 O 0.56081 0.45018 0.17302 0.0
C266 C 0.7828 0.25895 0.37532 0.0
O267 O 0.77587 0.27004 0.3659 0.0
Cd268 Cd 0.76434 0.30741 0.36708 0.0
O269 O 0.78311 0.26723 0.38649 0.0
Cd270 Cd 0.77306 0.30275 0.39662 0.0
C271 C 0.81135 0.32991 0.37939 0.0
O272 O 0.73988 0.31213 0.38469 0.0
O273 O 0.75558 0.33846 0.39494 0.0
O274 O 0.75392 0.28677 0.41487 0.0
C275 C 0.73929 0.33181 0.38853 0.0
O276 O 0.7981 0.32814 0.37005 0.0
C277 C 0.76674 0.29441 0.42329 0.0
O278 O 0.80702 0.3211 0.39013 0.0
O279 O 0.78307 0.30535 0.41931 0.0
C280 C 0.96871 0.44575 0.85668 0.0
O281 O 0.95751 0.45283 0.866 0.0
Cd282 Cd 0.92061 0.46587 0.86464 0.0
O283 O 0.9609 0.44603 0.84538 0.0
Cd284 Cd 0.92634 0.45739 0.83455 0.0
C285 C 0.89727 0.41981 0.85155 0.0
O286 O 0.91777 0.49022 0.84689 0.0
O287 O 0.89203 0.47762 0.83483 0.0
O288 O 0.9445 0.47601 0.81685 0.0
C289 C 0.8987 0.49253 0.84228 0.0
O290 O 0.89946 0.4327 0.86101 0.0
C291 C 0.93693 0.46366 0.80817 0.0
O292 O 0.90616 0.42417 0.84082 0.0
O293 O 0.92505 0.44772 0.81177 0.0
C294 C 0.786 0.71889 0.10586 0.0
O295 O 0.7774 0.70832 0.11502 0.0
Cd296 Cd 0.7645 0.67127 0.1134 0.0
O297 O 0.78712 0.71046 0.09475 0.0
Cd298 Cd 0.77579 0.67583 0.08416 0.0
C299 C 0.81148 0.64722 0.1022 0.0
O300 O 0.74133 0.66784 0.09519 0.0
O301 O 0.75664 0.64082 0.08543 0.0
O302 O 0.76014 0.69495 0.06579 0.0
C303 C 0.74021 0.64813 0.09146 0.0
O304 O 0.7971 0.6484 0.11098 0.0
C305 C 0.77156 0.68511 0.05746 0.0
O306 O 0.80899 0.65733 0.09165 0.0
O307 O 0.7856 0.67147 0.06157 0.0
C308 C 0.51226 0.53563 0.35889 0.0
O309 O 0.52345 0.52842 0.3682 0.0
Cd310 Cd 0.56047 0.51579 0.36657 0.0
O311 O 0.52026 0.53581 0.34764 0.0
Cd312 Cd 0.55525 0.52512 0.3372 0.0
C313 C 0.58397 0.56231 0.35428 0.0
O314 O 0.56409 0.49153 0.34882 0.0
O315 O 0.59073 0.50707 0.33874 0.0
O316 O 0.53831 0.50631 0.31919 0.0
C317 C 0.58374 0.49067 0.34496 0.0
O318 O 0.58255 0.54868 0.36346 0.0
C319 C 0.54616 0.51875 0.31063 0.0
O320 O 0.57418 0.55877 0.34372 0.0
O321 O 0.55765 0.53483 0.31441 0.0
C322 C 0.70153 0.26205 0.60397 0.0
O323 O 0.71097 0.27137 0.61328 0.0
Cd324 Cd 0.72004 0.30949 0.61303 0.0
O325 O 0.69875 0.27216 0.59344 0.0
Cd326 Cd 0.709 0.308 0.58367 0.0
C327 C 0.67127 0.33195 0.60246 0.0
O328 O 0.74274 0.31717 0.59502 0.0
O329 O 0.72567 0.34406 0.58604 0.0
O330 O 0.7277 0.2921 0.56538 0.0
C331 C 0.74251 0.33725 0.59191 0.0
O332 O 0.68497 0.32884 0.61147 0.0
C333 C 0.71498 0.29997 0.55697 0.0
O334 O 0.67527 0.3252 0.59119 0.0
O335 O 0.69888 0.31123 0.56095 0.0
C336 C 0.01465 0.44339 0.35863 0.0
O337 O 0.02645 0.44901 0.36806 0.0
Cd338 Cd 0.06339 0.4623 0.3668 0.0
O339 O 0.02202 0.44471 0.34726 0.0
Cd340 Cd 0.05664 0.4557 0.33654 0.0
C341 C 0.0866 0.41745 0.35263 0.0
O342 O 0.06508 0.48769 0.34954 0.0
O343 O 0.09072 0.47662 0.33695 0.0
O344 O 0.03873 0.47466 0.31883 0.0
C345 C 0.08398 0.49076 0.34487 0.0
O346 O 0.08553 0.43009 0.36227 0.0
C347 C 0.04621 0.46224 0.31017 0.0
O348 O 0.0764 0.42201 0.34233 0.0
O349 O 0.05794 0.44622 0.31378 0.0
C350 C 0.28386 0.26452 0.1059 0.0
O351 O 0.27464 0.27513 0.11481 0.0
Cd352 Cd 0.26305 0.3125 0.11288 0.0
O353 O 0.28616 0.27299 0.09485 0.0
Cd354 Cd 0.27595 0.30761 0.08379 0.0
C355 C 0.31122 0.33558 0.10241 0.0
O356 O 0.24109 0.31566 0.09417 0.0
O357 O 0.2568 0.34274 0.08465 0.0
O358 O 0.26112 0.28804 0.06541 0.0
C359 C 0.2401 0.33536 0.09041 0.0
O360 O 0.29641 0.33459 0.11095 0.0
C361 C 0.27265 0.29787 0.05711 0.0
O362 O 0.30903 0.32563 0.0918 0.0
O363 O 0.28645 0.31173 0.06126 0.0
C364 C 0.46889 0.53232 0.85725 0.0
O365 O 0.45779 0.52493 0.86655 0.0
Cd366 Cd 0.42045 0.5135 0.8651 0.0
O367 O 0.46061 0.5332 0.84607 0.0
Cd368 Cd 0.42522 0.52357 0.83553 0.0
C369 C 0.39797 0.56107 0.85329 0.0
O370 O 0.41632 0.48995 0.84704 0.0
O371 O 0.38973 0.50525 0.83681 0.0
O372 O 0.4419 0.5051 0.81733 0.0
C373 C 0.3967 0.48897 0.84314 0.0
O374 O 0.39999 0.54752 0.86247 0.0
C375 C 0.43445 0.51802 0.80889 0.0
O376 O 0.40651 0.55713 0.84243 0.0
O377 O 0.42322 0.53415 0.81283 0.0
C378 C 0.19987 0.71825 0.60568 0.0
O379 O 0.20722 0.70681 0.61486 0.0
Cd380 Cd 0.22038 0.66992 0.61282 0.0
O381 O 0.19962 0.7106 0.59437 0.0
Cd382 Cd 0.20999 0.67604 0.58349 0.0
C383 C 0.17379 0.64642 0.6008 0.0
O384 O 0.24386 0.66683 0.59473 0.0
O385 O 0.22814 0.64054 0.58446 0.0
O386 O 0.22831 0.69347 0.56545 0.0
C387 C 0.24459 0.64725 0.59072 0.0
O388 O 0.18797 0.64717 0.6097 0.0
C389 C 0.21532 0.68632 0.55697 0.0
O390 O 0.1765 0.6571 0.59045 0.0
O391 O 0.19925 0.67486 0.56082 0.0
C392 C 0.01018 0.5298 0.12956 0.0
O393 O 0.01931 0.52033 0.12019 0.0
Cd394 Cd 0.05715 0.51003 0.12041 0.0
O395 O 0.02026 0.53203 0.14014 0.0
Cd396 Cd 0.0556 0.52078 0.14997 0.0
C397 C 0.08075 0.55804 0.13125 0.0
O398 O 0.06406 0.4871 0.13843 0.0
O399 O 0.09116 0.50321 0.14776 0.0
O400 O 0.039 0.5025 0.16824 0.0
C401 C 0.08409 0.48678 0.14162 0.0
O402 O 0.07754 0.54449 0.12219 0.0
C403 C 0.04724 0.51496 0.17665 0.0
O404 O 0.07359 0.55412 0.14246 0.0
O405 O 0.05903 0.53071 0.17267 0.0
C406 C 0.1967 0.25902 0.87664 0.0
O407 O 0.20495 0.26928 0.86726 0.0
Cd408 Cd 0.2169 0.30653 0.86821 0.0
O409 O 0.19586 0.2679 0.88764 0.0
Cd410 Cd 0.2074 0.30302 0.89772 0.0
C411 C 0.16959 0.32955 0.88002 0.0
O412 O 0.24097 0.31165 0.88595 0.0
O413 O 0.22521 0.33849 0.89565 0.0
O414 O 0.22494 0.28465 0.91575 0.0
C415 C 0.24158 0.33151 0.88945 0.0
O416 O 0.18309 0.32739 0.87084 0.0
C417 C 0.21404 0.29441 0.92434 0.0
O418 O 0.17357 0.32114 0.89092 0.0
O419 O 0.19936 0.30765 0.92056 0.0
C420 C 0.47063 0.44706 0.6278 0.0
O421 O 0.46005 0.45458 0.61833 0.0
Cd422 Cd 0.42274 0.46614 0.61915 0.0
O423 O 0.46192 0.44652 0.63886 0.0
Cd424 Cd 0.4265 0.45743 0.64893 0.0
C425 C 0.39978 0.41913 0.63158 0.0
O426 O 0.41793 0.49044 0.63676 0.0
O427 O 0.39099 0.4754 0.64681 0.0
O428 O 0.44303 0.47685 0.66685 0.0
C429 C 0.39811 0.4914 0.6403 0.0
O430 O 0.40224 0.43221 0.62221 0.0
C431 C 0.43519 0.46455 0.67549 0.0
O432 O 0.40788 0.42358 0.6425 0.0
O433 O 0.42378 0.44835 0.6718 0.0
C434 C 0.28143 0.72137 0.37403 0.0
O435 O 0.27456 0.70935 0.36499 0.0
Cd436 Cd 0.26324 0.672 0.36709 0.0
O437 O 0.28192 0.71414 0.38547 0.0
Cd438 Cd 0.27238 0.67967 0.39705 0.0
C439 C 0.31047 0.65106 0.38023 0.0
O440 O 0.23961 0.6693 0.38512 0.0
O441 O 0.25323 0.64468 0.3976 0.0
O442 O 0.25378 0.69812 0.41463 0.0
C443 C 0.23801 0.65042 0.39009 0.0
O444 O 0.29728 0.65233 0.37084 0.0
C445 C 0.26644 0.6911 0.42334 0.0
O446 O 0.30608 0.66033 0.39083 0.0
O447 O 0.28256 0.67948 0.41979 0.0
H448 H 0.45504 0.00204 0.29646 0.0
H449 H 0.45796 0.01155 0.27381 0.0
H450 H 0.43749 0.94639 0.26354 0.0
H451 H 0.4339 0.93686 0.28622 0.0
H452 H 0.47744 0.96863 0.24938 0.0
H453 H 0.40034 0.97654 0.26132 0.0
H454 H 0.37097 -0.00912 0.27511 0.0
H455 H 0.3921 0.05665 0.26744 0.0
H456 H 0.42182 0.04264 0.25375 0.0
H457 H 0.44793 0.97911 0.1845 0.0
H458 H 0.45214 0.97068 0.20711 0.0
H459 H 0.44072 0.03856 0.21643 0.0
H460 H 0.43513 0.04674 0.19377 0.0
H461 H 0.41894 0.01626 0.2318 0.0
H462 H 0.49333 0.01138 0.21892 0.0
H463 H 0.525 -0.00018 0.20601 0.0
H464 H 0.51306 0.93274 0.21615 0.0
H465 H 0.48112 0.94387 0.22899 0.0
C466 C 0.45142 0.98963 0.28939 0.0
C467 C 0.44418 0.96871 0.29311 0.0
C468 C 0.45308 -0.00489 0.27647 0.0
C469 C 0.44792 0.97967 0.26706 0.0
C470 C 0.4416 0.95848 0.2707 0.0
C471 C 0.43949 0.9531 0.28364 0.0
C472 C 0.44775 0.98612 0.25344 0.0
C473 C 0.46458 0.97884 0.24543 0.0
C474 C 0.43142 0.00014 0.24852 0.0
C475 C 0.41344 0.00854 0.25664 0.0
C476 C 0.39885 -0.00596 0.26267 0.0
C477 C 0.38212 0.00211 0.27045 0.0
C478 C 0.37972 0.02466 0.27219 0.0
C479 C 0.394 0.03919 0.26611 0.0
C480 C 0.41078 0.0312 0.25833 0.0
C481 C 0.44658 -0.00771 0.19136 0.0
C482 C 0.44125 0.0136 0.18737 0.0
C483 C 0.44914 0.98749 0.20432 0.0
C484 C 0.44714 0.00402 0.21357 0.0
C485 C 0.44235 0.02547 0.20953 0.0
C486 C 0.43924 0.03017 0.19657 0.0
C487 C 0.44864 -0.00135 0.22744 0.0
C488 C 0.432 0.00615 0.2356 0.0
C489 C 0.4655 0.98524 0.23254 0.0
C490 C 0.48471 0.97845 0.22483 0.0
C491 C 0.49736 -0.00585 0.21832 0.0
C492 C 0.51537 0.98767 0.21103 0.0
C493 C 0.52101 0.96555 0.21024 0.0
C494 C 0.50866 0.94987 0.21676 0.0
C495 C 0.49061 0.95625 0.22406 0.0
H496 H 0.53496 0.96057 0.20458 0.0
H497 H 0.36675 0.03087 0.27821 0.0
H498 H 0.23003 0.19892 0.54781 0.0
H499 H 0.22052 0.20151 0.52516 0.0
H500 H 0.28631 0.18315 0.51495 0.0
H501 H 0.29587 0.1799 0.53766 0.0
H502 H 0.26316 0.22274 0.50106 0.0
H503 H 0.25686 0.1452 0.51247 0.0
H504 H 0.24298 0.11528 0.52608 0.0
H505 H 0.17688 0.13499 0.5182 0.0
H506 H 0.19042 0.16525 0.50469 0.0
H507 H 0.25377 0.19598 0.43592 0.0
H508 H 0.26198 0.19897 0.4586 0.0
H509 H 0.19438 0.18513 0.46758 0.0
H510 H 0.18647 0.18071 0.4448 0.0
H511 H 0.21704 0.16361 0.48286 0.0
H512 H 0.22005 0.23851 0.4708 0.0
H513 H 0.23076 0.27097 0.45826 0.0
H514 H 0.29812 0.26056 0.46825 0.0
H515 H 0.28785 0.22785 0.48072 0.0
C516 C 0.24256 0.19566 0.54076 0.0
C517 C 0.2637 0.18916 0.5445 0.0
C518 C 0.23707 0.19712 0.52784 0.0
C519 C 0.25272 0.1925 0.51844 0.0
C520 C 0.27406 0.18682 0.52211 0.0
C521 C 0.27946 0.18492 0.53505 0.0
C522 C 0.2464 0.19248 0.50481 0.0
C523 C 0.2533 0.20974 0.49697 0.0
C524 C 0.23277 0.17598 0.49972 0.0
C525 C 0.22465 0.15761 0.50769 0.0
C526 C 0.23938 0.14327 0.51374 0.0
C527 C 0.23157 0.12623 0.52141 0.0
C528 C 0.20906 0.12328 0.52304 0.0
C529 C 0.19431 0.13732 0.51695 0.0
C530 C 0.20204 0.1544 0.50928 0.0
C531 C 0.2406 0.19381 0.44272 0.0
C532 C 0.21945 0.1882 0.43859 0.0
C533 C 0.24528 0.19568 0.45573 0.0
C534 C 0.22875 0.19272 0.4649 0.0
C535 C 0.20747 0.18751 0.46074 0.0
C536 C 0.20291 0.18507 0.44772 0.0
C537 C 0.23398 0.19388 0.4788 0.0
C538 C 0.22683 0.1768 0.4868 0.0
C539 C 0.24692 0.21092 0.48409 0.0
C540 C 0.25319 0.2306 0.47661 0.0
C541 C 0.23717 0.24304 0.47025 0.0
C542 C 0.24316 0.26151 0.46316 0.0
C543 C 0.26511 0.26779 0.46243 0.0
C544 C 0.28112 0.25566 0.46882 0.0
C545 C 0.27522 0.23717 0.47591 0.0
H546 H 0.26972 0.2821 0.45694 0.0
H547 H 0.20305 0.11008 0.52899 0.0
H548 H 0.05277 0.04411 0.78608 0.0
H549 H 0.05082 0.03524 0.76324 0.0
H550 H 0.03283 0.96885 0.77251 0.0
H551 H 0.03417 0.97767 0.79528 0.0
H552 H 0.07037 0.97574 0.7544 0.0
H553 H -0.00522 -0.00395 0.76215 0.0
H554 H 0.96571 0.02097 0.76954 0.0
H555 H 0.98736 0.07002 0.74298 0.0
H556 H 0.01679 0.04548 0.73556 0.0
H557 H 0.04918 0.93525 0.6926 0.0
H558 H 0.04672 0.94407 0.71533 0.0
H559 H 0.03924 0.01252 0.70595 0.0
H560 H 0.04035 0.00354 0.68326 0.0
H561 H 0.01446 0.00493 0.72455 0.0
H562 H 0.08963 0.98808 0.71677 0.0
H563 H 0.1211 0.96624 0.70939 0.0
H564 H 0.10416 0.91499 0.73569 0.0
H565 H 0.07241 0.93642 0.74312 0.0
C566 C 0.04821 0.02769 0.78323 0.0
C567 C 0.04358 0.0116 0.79246 0.0
C568 C 0.04709 0.02266 0.77021 0.0
C569 C 0.0417 0.0014 0.76624 0.0
C570 C 0.03702 0.98535 0.77541 0.0
C571 C 0.0377 0.99045 0.7884 0.0
C572 C 0.04155 -0.00434 0.75251 0.0
C573 C 0.05802 0.98186 0.74786 0.0
C574 C 0.02586 0.00432 0.74398 0.0
C575 C 0.00813 0.01902 0.7484 0.0
C576 C -0.00652 0.01223 0.75797 0.0
C577 C 0.9769 0.02626 0.76215 0.0
C578 C 0.97473 0.04709 0.75676 0.0
C579 C 0.98909 0.0539 0.74716 0.0
C580 C 0.0057 0.03992 0.74296 0.0
C581 C 0.04686 0.95215 0.69542 0.0
C582 C 0.04503 0.96871 0.68617 0.0
C583 C 0.04563 0.95723 0.70842 0.0
C584 C 0.0433 0.97907 0.71244 0.0
C585 C 0.04106 -0.00445 0.70316 0.0
C586 C 0.04174 0.99041 0.69017 0.0
C587 C 0.04336 0.98483 0.72628 0.0
C588 C 0.02689 -0.00129 0.731 0.0
C589 C 0.05943 0.97669 0.73483 0.0
C590 C 0.07852 0.96376 0.73041 0.0
C591 C 0.09253 0.97209 0.72092 0.0
C592 C 0.11043 0.9598 0.71673 0.0
C593 C 0.11459 0.93922 0.72204 0.0
C594 C 0.1009 0.93092 0.73157 0.0
C595 C 0.08296 0.94314 0.73578 0.0
H596 H 0.12846 0.92973 0.71879 0.0
H597 H 0.96188 0.05793 0.76 0.0
H598 H 0.226 0.78083 0.93617 0.0
H599 H 0.21744 0.77822 0.95895 0.0
H600 H 0.28349 0.79718 0.96826 0.0
H601 H 0.2921 0.80043 0.94543 0.0
H602 H 0.26195 0.75799 0.98269 0.0
H603 H 0.25322 0.83481 0.97105 0.0
H604 H 0.23844 0.86453 0.95763 0.0
H605 H 0.17292 0.84376 0.96624 0.0
H606 H 0.18736 0.81369 0.97956 0.0
H607 H 0.25098 0.78457 0.04809 0.0
H608 H 0.25988 0.78202 0.02545 0.0
H609 H 0.19192 0.79254 0.01591 0.0
H610 H 0.18324 0.79644 0.03861 0.0
H611 H 0.21413 0.81555 0.00101 0.0
H612 H 0.22011 0.74055 0.01306 0.0
H613 H 0.23239 0.70871 0.02566 0.0
H614 H 0.29915 0.72238 0.01562 0.0
H615 H 0.2873 0.75448 0.00309 0.0
C616 C 0.23879 0.78423 0.94305 0.0
C617 C 0.25972 0.7909 0.93902 0.0
C618 C 0.23385 0.78275 0.95605 0.0
C619 C 0.24983 0.78753 0.96523 0.0
C620 C 0.27098 0.79338 0.96127 0.0
C621 C 0.27583 0.79529 0.94826 0.0
C622 C 0.24403 0.78758 0.97894 0.0
C623 C 0.25172 0.77067 0.9868 0.0
C624 C 0.23004 0.8037 0.98409 0.0
C625 C 0.22137 0.82187 0.97618 0.0
C626 C 0.23567 0.83646 0.96998 0.0
C627 C 0.22735 0.85339 0.96241 0.0
C628 C 0.20475 0.85599 0.96105 0.0
C629 C 0.19042 0.8417 0.96729 0.0
C630 C 0.19866 0.82473 0.97485 0.0
C631 C 0.2379 0.78612 0.04116 0.0
C632 C 0.2164 0.79065 0.04511 0.0
C633 C 0.24298 0.78452 0.02819 0.0
C634 C 0.22654 0.7867 0.01888 0.0
C635 C 0.20494 0.7908 0.02286 0.0
C636 C 0.19996 0.79295 0.03584 0.0
C637 C 0.23206 0.78588 0.00502 0.0
C638 C 0.2243 0.80271 -0.00296 0.0
C639 C 0.24562 0.76936 -0.00028 0.0
C640 C 0.25282 0.75005 0.00723 0.0
C641 C 0.23742 0.73686 0.01362 0.0
C642 C 0.24431 0.71875 0.02073 0.0
C643 C 0.26654 0.71356 0.02146 0.0
C644 C 0.28193 0.72643 0.01505 0.0
C645 C 0.27514 0.74458 0.00793 0.0
H646 H 0.27183 0.69953 0.02698 0.0
H647 H 0.19834 0.86911 0.95519 0.0
H648 H 0.51502 -0.00626 0.80051 0.0
H649 H 0.51152 0.00436 0.77808 0.0
H650 H 0.56156 0.95774 0.76792 0.0
H651 H 0.56489 0.9468 0.79029 0.0
H652 H 0.54034 0.02289 0.76278 0.0
H653 H 0.55272 0.93866 0.73806 0.0
H654 H 0.54424 0.89974 0.74197 0.0
H655 H 0.4906 0.91811 0.76616 0.0
H656 H 0.49856 0.95712 0.76225 0.0
H657 H 0.57428 0.03617 0.69859 0.0
H658 H 0.56971 0.02678 0.7211 0.0
H659 H 0.50789 -0.00411 0.71254 0.0
H660 H 0.51273 0.00462 0.68993 0.0
H661 H 0.53015 0.97035 0.72722 0.0
H662 H 0.51155 0.04613 0.72869 0.0
H663 H 0.51623 0.08569 0.72485 0.0
H664 H 0.57505 0.08549 0.7473 0.0
H665 H 0.57088 0.04586 0.75114 0.0
C666 C 0.5251 0.98556 0.79348 0.0
C667 C 0.54021 0.96939 0.79718 0.0
C668 C 0.52314 -0.00828 0.78067 0.0
C669 C 0.53618 0.98179 0.77129 0.0
C670 C 0.55108 0.96542 0.77495 0.0
C671 C 0.55301 0.95921 0.78775 0.0
C672 C 0.53486 0.98914 0.75777 0.0
C673 C 0.53804 0.01141 0.75501 0.0
C674 C 0.53141 0.97427 0.74762 0.0
C675 C 0.52639 0.95082 0.74995 0.0
C676 C 0.53906 0.9344 0.74417 0.0
C677 C 0.53436 0.91232 0.7464 0.0
C678 C 0.51694 0.90646 0.75434 0.0
C679 C 0.50414 0.92267 0.76004 0.0
C680 C 0.50877 0.94477 0.75784 0.0
C681 C 0.55958 0.02761 0.70152 0.0
C682 C 0.54386 0.02114 0.69247 0.0
C683 C 0.55694 0.02231 0.71442 0.0
C684 C 0.53834 0.01078 0.71858 0.0
C685 C 0.52239 0.00475 0.70958 0.0
C686 C 0.52514 0.00984 0.69666 0.0
C687 C 0.53606 0.00407 0.73218 0.0
C688 C 0.5323 0.98188 0.73498 0.0
C689 C 0.53846 0.01912 0.74237 0.0
C690 C 0.54099 0.04298 0.74012 0.0
C691 C 0.52557 0.05449 0.73273 0.0
C692 C 0.52812 0.07693 0.73057 0.0
C693 C 0.54595 0.08809 0.7358 0.0
C694 C 0.56125 0.07683 0.74324 0.0
C695 C 0.55879 0.05438 0.74543 0.0
H696 H 0.5479 0.10546 0.73412 0.0
H697 H 0.51333 0.88936 0.75605 0.0
H698 H 0.75385 0.78874 0.43759 0.0
H699 H 0.76128 0.78641 0.46041 0.0
H700 H 0.69291 0.79785 0.46841 0.0
H701 H 0.68569 0.80151 0.44551 0.0
H702 H 0.71455 0.82035 0.48392 0.0
H703 H 0.71985 0.74547 0.47195 0.0
H704 H 0.73205 0.71342 0.45958 0.0
H705 H 0.79858 0.72567 0.4707 0.0
H706 H 0.78682 0.75798 0.48301 0.0
H707 H 0.72447 0.78517 0.54912 0.0
H708 H 0.71607 0.78316 0.52629 0.0
H709 H 0.78262 0.80083 0.51731 0.0
H710 H 0.79107 0.80348 0.54018 0.0
H711 H 0.76081 0.76208 0.50296 0.0
H712 H 0.75264 0.83902 0.51441 0.0
H713 H 0.7377 0.86889 0.5276 0.0
H714 H 0.67229 0.84897 0.51809 0.0
H715 H 0.68687 0.81875 0.505 0.0
C716 C 0.74036 0.79058 0.44422 0.0
C717 C 0.71917 0.79522 0.43977 0.0
C718 C 0.7446 0.78909 0.45729 0.0
C719 C 0.72761 0.7915 0.46622 0.0
C720 C 0.70634 0.79589 0.46176 0.0
C721 C 0.70219 0.79791 0.44867 0.0
C722 C 0.73227 0.79048 0.48019 0.0
C723 C 0.72437 0.80736 0.48804 0.0
C724 C 0.7453 0.7737 0.4857 0.0
C725 C 0.75246 0.75427 0.47832 0.0
C726 C 0.7371 0.74143 0.47169 0.0
C727 C 0.74394 0.7232 0.4647 0.0
C728 C 0.76608 0.71755 0.46433 0.0
C729 C 0.78144 0.73008 0.47098 0.0
C730 C 0.77469 0.74834 0.47798 0.0
C731 C 0.73739 0.78845 0.54229 0.0
C732 C 0.75843 0.79453 0.54643 0.0
C733 C 0.73253 0.78732 0.52927 0.0
C734 C 0.74873 0.79188 0.52017 0.0
C735 C 0.76995 0.79723 0.52423 0.0
C736 C 0.77471 0.79879 0.53727 0.0
C737 C 0.74321 0.79194 0.50642 0.0
C738 C 0.75092 0.77491 0.4987 0.0
C739 C 0.72959 0.80823 0.50107 0.0
C740 C 0.72085 0.82649 0.50885 0.0
C741 C 0.73508 0.84088 0.51524 0.0
C742 C 0.72667 0.8579 0.52267 0.0
C743 C 0.70406 0.86078 0.52371 0.0
C744 C 0.6898 0.84669 0.51729 0.0
C745 C 0.69813 0.82963 0.50986 0.0
H746 H 0.69758 0.87397 0.52947 0.0
H747 H 0.77135 0.70343 0.45891 0.0
H748 H 0.9352 0.04694 0.28683 0.0
H749 H 0.93863 0.03922 0.26399 0.0
H750 H 0.94736 0.97056 0.27242 0.0
H751 H 0.94532 0.97847 0.29521 0.0
H752 H 0.97234 0.97941 0.25413 0.0
H753 H 0.89659 -0.00532 0.26174 0.0
H754 H 0.86469 0.01587 0.26915 0.0
H755 H 0.88135 0.06809 0.24343 0.0
H756 H 0.91351 0.04731 0.23598 0.0
H757 H 0.93085 0.93937 0.19341 0.0
H758 H 0.93467 0.94874 0.21609 0.0
H759 H 0.95378 0.01437 0.20582 0.0
H760 H 0.95064 0.00501 0.18317 0.0
H761 H 0.91587 0.00788 0.2244 0.0
H762 H -0.00852 0.98862 0.2163 0.0
H763 H 0.02085 0.96415 0.20881 0.0
H764 H 0.0006 0.91501 0.23568 0.0
H765 H 0.97087 0.93908 0.2432 0.0
C766 C 0.93802 0.03025 0.28378 0.0
C767 C 0.93991 0.0133 0.29278 0.0
C768 C 0.93982 0.02579 0.27072 0.0
C769 C 0.94276 0.00419 0.26639 0.0
C770 C 0.94509 0.98735 0.27544 0.0
C771 C 0.94386 -0.00812 0.28849 0.0
C772 C 0.94306 -0.00102 0.25248 0.0
C773 C 0.95982 0.9855 0.2477 0.0
C774 C 0.9269 0.00701 0.24395 0.0
C775 C 0.90758 0.01954 0.24841 0.0
C776 C 0.89353 0.01075 0.25773 0.0
C777 C 0.87539 0.02267 0.26193 0.0
C778 C 0.87103 0.04334 0.25679 0.0
C779 C 0.88477 0.0521 0.24742 0.0
C780 C 0.90295 0.04025 0.2432 0.0
C781 C 0.93617 0.9557 0.19599 0.0
C782 C 0.94048 0.97145 0.18652 0.0
C783 C 0.93834 0.96101 0.20893 0.0
C784 C 0.94448 0.98223 0.21257 0.0
C785 C 0.94906 -0.0021 0.20316 0.0
C786 C 0.94734 -0.00752 0.19024 0.0
C787 C 0.94501 0.9884 0.22622 0.0
C788 C 0.92837 0.00197 0.23091 0.0
C789 C 0.9609 0.98001 0.2347 0.0
C790 C 0.97881 0.96556 0.23021 0.0
C791 C -0.00685 0.97251 0.22052 0.0
C792 C 0.00989 0.95874 0.21629 0.0
C793 C 0.01255 0.93801 0.22174 0.0
C794 C -0.0015 0.93105 0.23145 0.0
C795 C 0.98171 0.94477 0.23571 0.0
H796 H 0.02553 0.92737 0.21845 0.0
H797 H 0.85698 0.05254 0.26005 0.0
H798 H 0.79033 0.16809 0.94506 0.0
H799 H 0.78059 0.17102 0.96765 0.0
H800 H 0.72753 0.21455 0.95797 0.0
H801 H 0.73747 0.21212 0.93543 0.0
H802 H 0.74622 0.22771 0.97938 0.0
H803 H 0.71854 0.1598 0.96306 0.0
H804 H 0.72072 0.12398 0.9523 0.0
H805 H 0.76622 0.10131 0.98064 0.0
H806 H 0.76452 0.13712 0.99147 0.0
H807 H 0.68646 0.16955 0.03674 0.0
H808 H 0.6961 0.17267 0.01416 0.0
H809 H 0.75189 0.21254 0.02405 0.0
H810 H 0.74201 0.20996 0.0466 0.0
H811 H 0.7304 0.15827 0.00222 0.0
H812 H 0.76483 0.24669 -0.00043 0.0
H813 H 0.75866 0.28269 0.00958 0.0
H814 H 0.69228 0.26473 0.01806 0.0
H815 H 0.69796 0.22875 0.00795 0.0
C816 C 0.77677 0.17852 0.94776 0.0
C817 C 0.76457 0.18974 0.93844 0.0
C818 C 0.77116 0.1801 0.96067 0.0
C819 C 0.75308 0.1927 0.96449 0.0
C820 C 0.7415 0.20469 0.95526 0.0
C821 C 0.74719 0.20323 0.94236 0.0
C822 C 0.74551 0.19254 0.97798 0.0
C823 C 0.74283 0.21253 0.98439 0.0
C824 C 0.74058 0.17277 0.98445 0.0
C825 C 0.74156 0.1512 0.978 0.0
C826 C 0.72912 0.14722 0.96694 0.0
C827 C 0.73026 0.12692 0.96084 0.0
C828 C 0.74365 0.1104 0.96576 0.0
C829 C 0.75588 0.11414 0.97682 0.0
C830 C 0.75483 0.13442 0.98295 0.0
C831 C 0.70061 0.17923 0.03409 0.0
C832 C 0.71345 0.18954 0.04346 0.0
C833 C 0.70616 0.18092 0.02118 0.0
C834 C 0.72468 0.19291 0.01737 0.0
C835 C 0.73733 0.20349 0.0267 0.0
C836 C 0.73169 0.20195 0.03961 0.0
C837 C 0.73129 0.19344 0.0037 0.0
C838 C 0.73384 0.17348 -0.00275 0.0
C839 C 0.73557 0.21326 -0.00288 0.0
C840 C 0.73191 0.23494 0.00311 0.0
C841 C 0.7489 0.25045 0.00353 0.0
C842 C 0.74549 0.27085 0.00923 0.0
C843 C 0.72511 0.27596 0.01449 0.0
C844 C 0.70808 0.26072 0.01402 0.0
C845 C 0.71139 0.24031 0.00833 0.0
H846 H 0.72251 0.29176 0.0189 0.0
H847 H 0.7445 0.09469 0.96103 0.0
H848 H 0.94938 0.48091 0.68567 0.0
H849 H 0.95189 0.47169 0.70837 0.0
H850 H 0.93402 0.53777 0.71824 0.0
H851 H 0.93083 0.54703 0.69548 0.0
H852 H 0.97376 0.51417 0.73213 0.0
H853 H 0.89604 0.50948 0.72144 0.0
H854 H 0.86529 0.4965 0.70819 0.0
H855 H 0.88356 0.42983 0.71568 0.0
H856 H 0.91463 0.44246 0.72881 0.0
H857 H 0.94839 0.50275 0.79764 0.0
H858 H 0.95091 0.51201 0.77505 0.0
H859 H 0.93681 0.44486 0.76517 0.0
H860 H 0.93298 0.43586 0.78785 0.0
H861 H 0.91447 0.46859 0.75066 0.0
H862 H 0.98995 0.47046 0.7619 0.0
H863 H 0.02279 0.48067 0.77422 0.0
H864 H 0.0124 0.54836 0.76495 0.0
H865 H 0.97932 0.53859 0.7527 0.0
C866 C 0.94618 0.49356 0.69266 0.0
C867 C 0.93986 0.5147 0.68881 0.0
C868 C 0.94761 0.48824 0.70561 0.0
C869 C 0.94313 0.50405 0.71492 0.0
C870 C 0.93758 0.52539 0.71115 0.0
C871 C 0.93571 0.53062 0.69817 0.0
C872 C 0.94317 0.49789 0.72858 0.0
C873 C 0.96071 0.50445 0.73629 0.0
C874 C 0.92656 0.4845 0.73377 0.0
C875 C 0.90779 0.47692 0.72597 0.0
C876 C 0.89362 0.49206 0.72015 0.0
C877 C 0.87611 0.48477 0.71269 0.0
C878 C 0.87251 0.46235 0.71106 0.0
C879 C 0.88638 0.44719 0.71693 0.0
C880 C 0.90394 0.45441 0.72439 0.0
C881 C 0.94607 0.4899 0.79066 0.0
C882 C 0.94055 0.46856 0.79451 0.0
C883 C 0.94765 0.49519 0.77771 0.0
C884 C 0.94443 0.4791 0.76831 0.0
C885 C 0.93936 0.45762 0.77219 0.0
C886 C 0.93727 0.45244 0.78515 0.0
C887 C 0.94511 0.48494 0.75449 0.0
C888 C 0.92767 0.47827 0.74665 0.0
C889 C 0.96213 0.49784 0.74913 0.0
C890 C 0.98204 0.5038 0.75648 0.0
C891 C -0.00543 0.48754 0.76256 0.0
C892 C 0.01325 0.49325 0.76952 0.0
C893 C 0.01964 0.51516 0.77039 0.0
C894 C 0.00741 0.5314 0.76428 0.0
C895 C 0.98871 0.52578 0.75731 0.0
H896 H 0.03411 0.51954 0.77579 0.0
H897 H 0.85894 0.45674 0.70528 0.0
H898 H 0.79466 0.66792 0.03747 0.0
H899 H 0.7863 0.67099 0.0147 0.0
H900 H 0.73068 0.7118 0.02345 0.0
H901 H 0.73929 0.70927 0.04616 0.0
H902 H 0.7525 0.65706 0.00213 0.0
H903 H 0.7195 0.74611 -0.00109 0.0
H904 H 0.72611 0.78208 0.00887 0.0
H905 H 0.79183 0.7629 0.01813 0.0
H906 H 0.78571 0.72694 0.00809 0.0
H907 H 0.69219 0.66724 0.94525 0.0
H908 H 0.70262 0.67005 0.96773 0.0
H909 H 0.75578 0.71319 0.95756 0.0
H910 H 0.74513 0.71088 0.93512 0.0
H911 H 0.73787 0.72653 0.97907 0.0
H912 H 0.76456 0.65844 0.96284 0.0
H913 H 0.76208 0.62262 0.95212 0.0
H914 H 0.71668 0.60022 0.98057 0.0
H915 H 0.71866 0.63603 0.99137 0.0
C916 C 0.78083 0.67779 0.03453 0.0
C917 C 0.76766 0.68837 0.04362 0.0
C918 C 0.77601 0.67947 0.02151 0.0
C919 C 0.75792 0.69173 0.01732 0.0
C920 C 0.74495 0.70256 0.02639 0.0
C921 C 0.74985 0.70103 0.0394 0.0
C922 C 0.75197 0.69225 0.00355 0.0
C923 C 0.74935 0.67228 -0.0029 0.0
C924 C 0.74814 0.71208 -0.00312 0.0
C925 C 0.75205 0.73374 0.00285 0.0
C926 C 0.73538 0.7496 0.00303 0.0
C927 C 0.73904 0.76998 0.0087 0.0
C928 C 0.75936 0.77475 0.01416 0.0
C929 C 0.77608 0.75916 0.01394 0.0
C930 C 0.77251 0.73876 0.00828 0.0
C931 C 0.70593 0.67755 0.94782 0.0
C932 C 0.71792 0.68871 0.93839 0.0
C933 C 0.71194 0.67905 0.96067 0.0
C934 C 0.73025 0.69151 0.96432 0.0
C935 C 0.74165 0.70343 0.95498 0.0
C936 C 0.73555 0.70205 0.94214 0.0
C937 C 0.73808 0.69135 0.97776 0.0
C938 C 0.74102 0.71135 0.98413 0.0
C939 C 0.74277 0.67158 0.98428 0.0
C940 C 0.74161 0.64998 0.97784 0.0
C941 C 0.75393 0.64593 0.96676 0.0
C942 C 0.75263 0.62562 0.96067 0.0
C943 C 0.73919 0.60917 0.96564 0.0
C944 C 0.72706 0.61298 0.97672 0.0
C945 C 0.72828 0.63328 0.98284 0.0
H946 H 0.7382 0.59346 0.96091 0.0
H947 H 0.76215 0.79053 0.01855 0.0
H948 H 0.53422 0.47986 0.30002 0.0
H949 H 0.53265 0.47057 0.27731 0.0
H950 H 0.54978 0.53694 0.2675 0.0
H951 H 0.55202 0.54629 0.29026 0.0
H952 H 0.51102 0.51293 0.25325 0.0
H953 H 0.58841 0.50872 0.26512 0.0
H954 H 0.61845 0.49556 0.27886 0.0
H955 H 0.60082 0.42899 0.27065 0.0
H956 H 0.57046 0.4418 0.257 0.0
H957 H 0.53858 0.50477 0.18822 0.0
H958 H 0.53595 0.51294 0.21092 0.0
H959 H 0.55048 0.44547 0.21987 0.0
H960 H 0.55441 0.43756 0.19706 0.0
H961 H 0.57169 0.46869 0.23526 0.0
H962 H 0.49694 0.46976 0.22285 0.0
H963 H 0.46444 0.4797 0.21015 0.0
H964 H 0.47299 0.54725 0.22026 0.0
H965 H 0.50574 0.53776 0.23289 0.0
C966 C 0.53743 0.49256 0.29304 0.0
C967 C 0.54328 0.51381 0.29691 0.0
C968 C 0.53656 0.48719 0.28008 0.0
C969 C 0.54113 0.50307 0.27079 0.0
C970 C 0.54617 0.52451 0.27458 0.0
C971 C 0.54749 0.52979 0.28755 0.0
C972 C 0.54164 0.49697 0.25714 0.0
C973 C 0.52436 0.5035 0.24921 0.0
C974 C 0.55861 0.48388 0.25211 0.0
C975 C 0.57703 0.47621 0.26016 0.0
C976 C 0.59082 0.49128 0.26634 0.0
C977 C 0.60793 0.48389 0.27409 0.0
C978 C 0.6115 0.46145 0.27566 0.0
C979 C 0.59802 0.44636 0.26944 0.0
C980 C 0.58087 0.45368 0.26169 0.0
C981 C 0.54107 0.49163 0.19502 0.0
C982 C 0.54661 0.47049 0.19087 0.0
C983 C 0.5394 0.49628 0.20803 0.0
C984 C 0.54254 0.47975 0.2172 0.0
C985 C 0.54793 0.45854 0.21303 0.0
C986 C 0.55011 0.45399 0.2 0.0
C987 C 0.54109 0.48486 0.23109 0.0
C988 C 0.5582 0.47808 0.23916 0.0
C989 C 0.52361 0.49726 0.23631 0.0
C990 C 0.50392 0.50306 0.22873 0.0
C991 C 0.49199 0.48676 0.22229 0.0
C992 C 0.47351 0.49231 0.21512 0.0
C993 C 0.46669 0.5141 0.21437 0.0
C994 C 0.47831 0.53038 0.22084 0.0
C995 C 0.49682 0.52492 0.22802 0.0
H996 H 0.45237 0.51837 0.20882 0.0
H997 H 0.62474 0.45575 0.28167 0.0
H998 H 0.75355 0.28823 0.54596 0.0
H999 H 0.76186 0.2855 0.52316 0.0
H1000 H 0.69505 0.30184 0.51405 0.0
H1001 H 0.68667 0.30526 0.53691 0.0
H1002 H 0.71875 0.26185 0.50048 0.0
H1003 H 0.72229 0.34006 0.50969 0.0
H1004 H 0.7351 0.37182 0.52213 0.0
H1005 H 0.80183 0.35475 0.51404 0.0
H1006 H 0.78939 0.32267 0.5017 0.0
H1007 H 0.72785 0.28369 0.43434 0.0
H1008 H 0.71912 0.28259 0.45704 0.0
H1009 H 0.7864 0.29762 0.46613 0.0
H1010 H 0.79491 0.2999 0.44333 0.0
H1011 H 0.76257 0.32089 0.48028 0.0
H1012 H 0.76172 0.24473 0.47066 0.0
H1013 H 0.75171 0.21102 0.45913 0.0
H1014 H 0.68413 0.22086 0.46877 0.0
H1015 H 0.6937 0.2548 0.48023 0.0
C1016 C 0.74056 0.2911 0.53912 0.0
C1017 C 0.71945 0.297 0.54321 0.0
C1018 C 0.74536 0.28955 0.52611 0.0
C1019 C 0.72906 0.29348 0.51698 0.0
C1020 C 0.7078 0.29872 0.521 0.0
C1021 C 0.70308 0.30073 0.53403 0.0
C1022 C 0.73458 0.29292 0.50324 0.0
C1023 C 0.72806 0.27485 0.49595 0.0
C1024 C 0.74744 0.30949 0.49757 0.0
C1025 C 0.75491 0.32884 0.50491 0.0
C1026 C 0.73969 0.34295 0.51068 0.0
C1027 C 0.74688 0.36104 0.51768 0.0
C1028 C 0.76927 0.36526 0.51891 0.0
C1029 C 0.7845 0.35144 0.5131 0.0
C1030 C 0.77739 0.33331 0.50609 0.0
C1031 C 0.74084 0.28654 0.44118 0.0
C1032 C 0.76208 0.29183 0.43706 0.0
C1033 C 0.73585 0.28578 0.45419 0.0
C1034 C 0.75215 0.28968 0.46339 0.0
C1035 C 0.77351 0.29457 0.45926 0.0
C1036 C 0.77839 0.29578 0.44623 0.0
C1037 C 0.74667 0.28976 0.47726 0.0
C1038 C 0.75325 0.30777 0.48466 0.0
C1039 C 0.73424 0.27283 0.48308 0.0
C1040 C 0.72841 0.25243 0.4762 0.0
C1041 C 0.7447 0.2398 0.47024 0.0
C1042 C 0.73911 0.22063 0.46374 0.0
C1043 C 0.71729 0.21383 0.46319 0.0
C1044 C 0.70102 0.22616 0.46919 0.0
C1045 C 0.70652 0.24535 0.4757 0.0
H1046 H 0.713 0.19899 0.45815 0.0
H1047 H 0.77481 0.37927 0.52434 0.0
H1048 H 0.03596 0.50155 0.29947 0.0
H1049 H 0.03366 0.51054 0.27682 0.0
H1050 H 0.04541 0.4428 0.2673 0.0
H1051 H 0.04907 0.43405 0.29001 0.0
H1052 H 0.06852 0.46545 0.25269 0.0
H1053 H -0.00687 0.47028 0.26396 0.0
H1054 H 0.96077 0.48202 0.27622 0.0
H1055 H 0.97374 0.54905 0.26639 0.0
H1056 H 0.00636 0.53774 0.2542 0.0
H1057 H 0.03386 0.47685 0.18767 0.0
H1058 H 0.03132 0.46841 0.21047 0.0
H1059 H 0.05077 0.53439 0.21959 0.0
H1060 H 0.05396 0.54287 0.19672 0.0
H1061 H 0.01079 0.51254 0.23381 0.0
H1062 H 0.08809 0.50486 0.22295 0.0
H1063 H 0.11828 0.49046 0.2098 0.0
H1064 H 0.09796 0.42467 0.21815 0.0
H1065 H 0.06743 0.43873 0.2312 0.0
C1066 C 0.03781 0.48853 0.29254 0.0
C1067 C 0.04264 0.46708 0.2965 0.0
C1068 C 0.03635 0.49366 0.27957 0.0
C1069 C 0.03899 0.47732 0.27026 0.0
C1070 C 0.04333 0.45575 0.27425 0.0
C1071 C 0.04533 0.45072 0.28723 0.0
C1072 C 0.03849 0.48293 0.2564 0.0
C1073 C 0.05565 0.47547 0.2486 0.0
C1074 C 0.02193 0.49629 0.25095 0.0
C1075 C 0.00231 0.50317 0.25826 0.0
C1076 C 0.98917 0.48754 0.26449 0.0
C1077 C 0.97077 0.49412 0.27142 0.0
C1078 C 0.96523 0.51627 0.27211 0.0
C1079 C 0.97807 0.53189 0.26586 0.0
C1080 C -0.0035 0.52541 0.25893 0.0
C1081 C 0.03742 0.48964 0.19451 0.0
C1082 C 0.04417 0.51052 0.19042 0.0
C1083 C 0.03597 0.48477 0.20751 0.0
C1084 C 0.04087 0.50078 0.21665 0.0
C1085 C 0.04688 0.52187 0.21263 0.0
C1086 C 0.04877 0.52664 0.1996 0.0
C1087 C 0.04073 0.49508 0.23037 0.0
C1088 C 0.0235 0.50249 0.23805 0.0
C1089 C 0.0569 0.48129 0.23567 0.0
C1090 C 0.07535 0.47285 0.22792 0.0
C1091 C 0.08993 0.48733 0.22188 0.0
C1092 C 0.10714 0.47923 0.21447 0.0
C1093 C 0.11 0.45666 0.21311 0.0
C1094 C 0.09571 0.44215 0.21919 0.0
C1095 C 0.07846 0.45017 0.2266 0.0
H1096 H 0.12333 0.45042 0.20737 0.0
H1097 H 0.95098 0.52133 0.27748 0.0
H1098 H 0.24108 0.27294 0.04576 0.0
H1099 H 0.23284 0.27006 0.02303 0.0
H1100 H 0.28777 0.31195 0.01436 0.0
H1101 H 0.29576 0.31537 0.03716 0.0
H1102 H 0.2538 0.32506 0.00156 0.0
H1103 H 0.28842 0.25603 0.00795 0.0
H1104 H 0.29522 0.22034 0.01824 0.0
H1105 H 0.23001 0.19956 0.0089 0.0
H1106 H 0.22271 0.23525 -0.00129 0.0
H1107 H 0.24704 0.27015 0.93482 0.0
H1108 H 0.25817 0.26866 0.95722 0.0
H1109 H 0.20409 0.31057 0.96732 0.0
H1110 H 0.19315 0.31254 0.94488 0.0
H1111 H 0.24068 0.25507 0.97883 0.0
H1112 H 0.21962 0.34526 0.99074 0.0
H1113 H 0.21686 0.38093 0.97977 0.0
H1114 H 0.26254 0.35923 0.95133 0.0
H1115 H 0.26579 0.32356 0.96223 0.0
C1116 C 0.25158 0.28134 0.03902 0.0
C1117 C 0.26908 0.2944 0.04328 0.0
C1118 C 0.24689 0.27961 0.026 0.0
C1119 C 0.25977 0.29065 0.01694 0.0
C1120 C 0.27756 0.30331 0.02116 0.0
C1121 C 0.28217 0.30518 0.0342 0.0
C1122 C 0.254 0.28988 0.00315 0.0
C1123 C 0.25098 0.30973 -0.0034 0.0
C1124 C 0.25062 0.26991 -0.00342 0.0
C1125 C 0.25496 0.24839 0.00266 0.0
C1126 C 0.27547 0.24391 0.00818 0.0
C1127 C 0.27943 0.22367 0.01398 0.0
C1128 C 0.26304 0.20771 0.01425 0.0
C1129 C 0.24268 0.21194 0.00869 0.0
C1130 C 0.23863 0.23217 0.00289 0.0
C1131 C 0.23739 0.2789 0.94182 0.0
C1132 C 0.21931 0.29162 0.93806 0.0
C1133 C 0.24376 0.27799 0.95463 0.0
C1134 C 0.23219 0.28977 0.96393 0.0
C1135 C 0.21353 0.30168 0.96028 0.0
C1136 C 0.20722 0.3027 0.94745 0.0
C1137 C 0.24012 0.29023 0.97736 0.0
C1138 C 0.24351 0.27036 0.98381 0.0
C1139 C 0.2444 0.31017 0.98377 0.0
C1140 C 0.24276 0.33167 0.97723 0.0
C1141 C 0.22913 0.34814 0.98217 0.0
C1142 C 0.22748 0.36835 0.97596 0.0
C1143 C 0.23947 0.37232 0.96484 0.0
C1144 C 0.2532 0.35611 0.95992 0.0
C1145 C 0.25494 0.33589 0.9661 0.0
H1146 H 0.23815 0.38796 0.96004 0.0
H1147 H 0.26613 0.19205 0.01874 0.0
H1148 H 0.4453 0.47929 0.7978 0.0
H1149 H 0.44784 0.47106 0.7751 0.0
H1150 H 0.43413 0.53868 0.76612 0.0
H1151 H 0.43031 0.54669 0.78892 0.0
H1152 H 0.41209 0.51564 0.75102 0.0
H1153 H 0.48718 0.51349 0.76273 0.0
H1154 H 0.51987 0.50308 0.77514 0.0
H1155 H 0.50997 0.43564 0.76518 0.0
H1156 H 0.47704 0.44561 0.75285 0.0
H1157 H 0.44715 0.50361 0.68589 0.0
H1158 H 0.44935 0.51308 0.70856 0.0
H1159 H 0.43251 0.44678 0.71871 0.0
H1160 H 0.42965 0.43726 0.696 0.0
H1161 H 0.47157 0.47042 0.73251 0.0
H1162 H 0.39402 0.47553 0.72141 0.0
H1163 H 0.36361 0.4889 0.70803 0.0
H1164 H 0.382 0.55534 0.71602 0.0
H1165 H 0.41275 0.54232 0.7293 0.0
C1166 C 0.44303 0.49246 0.79099 0.0
C1167 C 0.43768 0.51366 0.79514 0.0
C1168 C 0.44463 0.48776 0.77798 0.0
C1169 C 0.4416 0.5043 0.76881 0.0
C1170 C 0.43656 0.5256 0.77296 0.0
C1171 C 0.43447 0.5302 0.786 0.0
C1172 C 0.44259 0.49909 0.75491 0.0
C1173 C 0.42534 0.50604 0.74701 0.0
C1174 C 0.45972 0.48638 0.74955 0.0
C1175 C 0.47952 0.48029 0.75695 0.0
C1176 C 0.49188 0.49642 0.76326 0.0
C1177 C 0.51047 0.4906 0.77027 0.0
C1178 C 0.51696 0.46871 0.77097 0.0
C1179 C 0.5049 0.45259 0.76464 0.0
C1180 C 0.48629 0.45832 0.75763 0.0
C1181 C 0.4441 0.49097 0.69294 0.0
C1182 C 0.43818 0.46968 0.68918 0.0
C1183 C 0.44535 0.49644 0.70587 0.0
C1184 C 0.44108 0.48062 0.71525 0.0
C1185 C 0.4359 0.45917 0.71157 0.0
C1186 C 0.43421 0.45379 0.69862 0.0
C1187 C 0.44107 0.48681 0.7289 0.0
C1188 C 0.45849 0.48008 0.73666 0.0
C1189 C 0.42443 0.50015 0.73408 0.0
C1190 C 0.40582 0.50795 0.72622 0.0
C1191 C 0.39171 0.49298 0.72021 0.0
C1192 C 0.37438 0.5005 0.71267 0.0
C1193 C 0.37091 0.52296 0.71114 0.0
C1194 C 0.38473 0.53795 0.71719 0.0
C1195 C 0.40209 0.53051 0.72473 0.0
H1196 H 0.35749 0.52875 0.7053 0.0
H1197 H 0.53136 0.46423 0.7764 0.0
H1198 H 0.1861 0.68453 0.53719 0.0
H1199 H 0.19384 0.68897 0.51441 0.0
H1200 H 0.26216 0.6995 0.52302 0.0
H1201 H 0.2542 0.69643 0.54578 0.0
H1202 H 0.25271 0.72468 0.50488 0.0
H1203 H 0.23963 0.64832 0.51192 0.0
H1204 H 0.21936 0.61562 0.51909 0.0
H1205 H 0.16676 0.63131 0.49347 0.0
H1206 H 0.18662 0.66427 0.48626 0.0
H1207 H 0.29403 0.68646 0.44377 0.0
H1208 H 0.28463 0.68944 0.46649 0.0
H1209 H 0.21822 0.70589 0.45646 0.0
H1210 H 0.22757 0.70356 0.43377 0.0
H1211 H 0.22597 0.66815 0.47472 0.0
H1212 H 0.24307 0.74448 0.46718 0.0
H1213 H 0.26668 0.7748 0.45993 0.0
H1214 H 0.31626 0.75542 0.48671 0.0
H1215 H 0.29306 0.72477 0.49399 0.0
C1216 C 0.20272 0.68798 0.5342 0.0
C1217 C 0.21956 0.69005 0.54324 0.0
C1218 C 0.20718 0.69035 0.52117 0.0
C1219 C 0.22871 0.69407 0.5169 0.0
C1220 C 0.24542 0.69663 0.526 0.0
C1221 C 0.24086 0.69482 0.53902 0.0
C1222 C 0.234 0.69488 0.503 0.0
C1223 C 0.247 0.71215 0.49836 0.0
C1224 C 0.22648 0.67869 0.49434 0.0
C1225 C 0.21451 0.65888 0.49865 0.0
C1226 C 0.22368 0.64488 0.50788 0.0
C1227 C 0.21227 0.62629 0.51194 0.0
C1228 C 0.19176 0.62143 0.50677 0.0
C1229 C 0.18264 0.63512 0.49749 0.0
C1230 C 0.19396 0.65375 0.4934 0.0
C1231 C 0.27752 0.69102 0.44641 0.0
C1232 C 0.26155 0.6948 0.437 0.0
C1233 C 0.27219 0.69272 0.45937 0.0
C1234 C 0.25074 0.69786 0.4631 0.0
C1235 C 0.23486 0.70193 0.45374 0.0
C1236 C 0.24027 0.70068 0.4408 0.0
C1237 C 0.24459 0.69782 0.47676 0.0
C1238 C 0.23151 0.68065 0.48132 0.0
C1239 C 0.2525 0.71373 0.48537 0.0
C1240 C 0.26642 0.73219 0.48103 0.0
C1241 C 0.2591 0.74655 0.47143 0.0
C1242 C 0.27238 0.76383 0.46734 0.0
C1243 C 0.29298 0.767 0.47283 0.0
C1244 C 0.30031 0.75293 0.48246 0.0
C1245 C 0.2871 0.73561 0.48657 0.0
H1246 H 0.30324 0.78039 0.46966 0.0
H1247 H 0.18296 0.60702 0.50992 0.0
H1248 H 0.35581 0.97712 0.15241 0.0
H1249 H 0.33009 0.94865 0.14577 0.0
H1250 H 0.37313 0.93105 0.11478 0.0
H1251 H 0.39918 0.95903 0.1216 0.0
H1252 H 0.30733 0.94448 0.12513 0.0
H1253 H 0.36796 0.87767 0.10745 0.0
H1254 H 0.40468 0.86359 0.1128 0.0
H1255 H 0.39755 0.88673 0.15126 0.0
H1256 H 0.36069 0.90067 0.14619 0.0
H1257 H 0.25134 0.87165 0.08482 0.0
H1258 H 0.27846 0.89668 0.09379 0.0
H1259 H 0.29203 0.85034 0.1239 0.0
H1260 H 0.2654 0.82492 0.11473 0.0
H1261 H 0.32864 0.86767 0.11615 0.0
H1262 H 0.25921 0.89562 0.12895 0.0
H1263 H 0.22125 0.90839 0.12606 0.0
H1264 H 0.24383 0.96082 0.1021 0.0
H1265 H 0.28192 0.94817 0.1047 0.0
C1266 C 0.35987 0.96705 0.14425 0.0
C1267 C 0.37953 0.97027 0.13754 0.0
C1268 C 0.34513 0.95083 0.14044 0.0
C1269 C 0.34974 0.93757 0.12984 0.0
C1270 C 0.3694 0.94077 0.12314 0.0
C1271 C 0.38424 0.95684 0.12701 0.0
C1272 C 0.33362 0.92098 0.1255 0.0
C1273 C 0.312 0.92768 0.1232 0.0
C1274 C 0.33955 0.89893 0.12322 0.0
C1275 C 0.36164 0.8904 0.12639 0.0
C1276 C 0.37419 0.87967 0.11706 0.0
C1277 C 0.39504 0.87173 0.12004 0.0
C1278 C 0.40347 0.87433 0.13235 0.0
C1279 C 0.39104 0.88481 0.14171 0.0
C1280 C 0.37018 0.89276 0.13879 0.0
C1281 C 0.26017 0.86676 0.09331 0.0
C1282 C 0.25615 0.8464 0.09911 0.0
C1283 C 0.27559 0.88112 0.09847 0.0
C1284 C 0.28701 0.87556 0.10966 0.0
C1285 C 0.28339 0.855 0.11529 0.0
C1286 C 0.26814 0.84053 0.11004 0.0
C1287 C 0.3025 0.8913 0.11556 0.0
C1288 C 0.32399 0.88446 0.11812 0.0
C1289 C 0.29628 0.91306 0.11845 0.0
C1290 C 0.27341 0.92083 0.11693 0.0
C1291 C 0.25607 0.90978 0.12299 0.0
C1292 C 0.23453 0.91701 0.12142 0.0
C1293 C 0.23012 0.93537 0.11388 0.0
C1294 C 0.24727 0.94658 0.10792 0.0
C1295 C 0.26884 0.93941 0.10946 0.0
H1296 H 0.21344 0.94093 0.11266 0.0
H1297 H 0.41961 0.86818 0.13463 0.0
H1298 H 0.27737 0.15621 0.3728 0.0
H1299 H 0.30509 0.13158 0.36409 0.0
H1300 H 0.28531 0.08144 0.39076 0.0
H1301 H 0.25721 0.10581 0.39933 0.0
H1302 H 0.33998 0.11116 0.37322 0.0
H1303 H 0.28773 0.03199 0.37641 0.0
H1304 H 0.24883 0.02112 0.37605 0.0
H1305 H 0.23289 0.07896 0.35465 0.0
H1306 H 0.27172 0.09001 0.35472 0.0
H1307 H 0.40699 0.01788 0.36279 0.0
H1308 H 0.38181 0.04553 0.37105 0.0
H1309 H 0.34088 0.03761 0.33777 0.0
H1310 H 0.36554 0.00934 0.32974 0.0
H1311 H 0.31641 0.03829 0.35748 0.0
H1312 H 0.37486 0.08365 0.3426 0.0
H1313 H 0.41301 0.0964 0.34056 0.0
H1314 H 0.41538 0.10941 0.38081 0.0
H1315 H 0.37732 0.09648 0.38312 0.0
C1316 C 0.27901 0.13999 0.37686 0.0
C1317 C 0.26497 0.13286 0.38666 0.0
C1318 C 0.29491 0.12595 0.3719 0.0
C1319 C 0.29706 0.10457 0.37665 0.0
C1320 C 0.28366 0.09774 0.38679 0.0
C1321 C 0.26767 0.1117 0.3917 0.0
C1322 C 0.31275 0.08917 0.37069 0.0
C1323 C 0.33486 0.0952 0.36978 0.0
C1324 C 0.30597 0.06858 0.36593 0.0
C1325 C 0.2826 0.06193 0.3657 0.0
C1326 C 0.27593 0.04234 0.37159 0.0
C1327 C 0.2539 0.03615 0.37144 0.0
C1328 C 0.23839 0.04938 0.36537 0.0
C1329 C 0.2449 0.06877 0.35939 0.0
C1330 C 0.26692 0.07502 0.35949 0.0
C1331 C 0.3927 0.02218 0.3572 0.0
C1332 C 0.38819 0.01146 0.34563 0.0
C1333 C 0.37837 0.03805 0.3619 0.0
C1334 C 0.35953 0.04384 0.35497 0.0
C1335 C 0.35525 0.03339 0.34331 0.0
C1336 C 0.36938 0.01728 0.33871 0.0
C1337 C 0.34379 0.06012 0.36011 0.0
C1338 C 0.32161 0.05422 0.3609 0.0
C1339 C 0.35044 0.08107 0.3644 0.0
C1340 C 0.37331 0.08891 0.36305 0.0
C1341 C 0.38357 0.08909 0.35103 0.0
C1342 C 0.40517 0.09637 0.34983 0.0
C1343 C 0.41663 0.10366 0.36056 0.0
C1344 C 0.40649 0.10374 0.37251 0.0
C1345 C 0.3849 0.09646 0.37377 0.0
H1346 H 0.43335 0.10929 0.3596 0.0
H1347 H 0.22134 0.04457 0.36528 0.0
H1348 H 0.12827 0.98772 0.63604 0.0
H1349 H 0.15348 0.01565 0.62828 0.0
H1350 H 0.099 0.05844 0.62013 0.0
H1351 H 0.07357 0.02997 0.62735 0.0
H1352 H 0.12643 0.06137 0.60169 0.0
H1353 H 0.13377 0.06562 0.64684 0.0
H1354 H 0.13938 0.05219 0.66881 0.0
H1355 H 0.20363 0.02957 0.65877 0.0
H1356 H 0.19829 0.04259 0.63669 0.0
H1357 H 0.19949 0.15618 0.59983 0.0
H1358 H 0.17115 0.13049 0.60711 0.0
H1359 H 0.21522 0.07648 0.60091 0.0
H1360 H 0.24335 0.10187 0.59326 0.0
H1361 H 0.19182 0.08196 0.62711 0.0
H1362 H 0.18157 0.07717 0.58106 0.0
H1363 H 0.17493 0.09317 0.55978 0.0
H1364 H 0.1143 0.12052 0.57297 0.0
H1365 H 0.12078 0.10496 0.5944 0.0
C1366 C 0.12166 0.0031 0.63263 0.0
C1367 C 0.09897 0.00674 0.63237 0.0
C1368 C 0.1361 0.01913 0.62826 0.0
C1369 C 0.12821 0.03939 0.62387 0.0
C1370 C 0.10551 0.04299 0.62352 0.0
C1371 C 0.091 0.02676 0.62767 0.0
C1372 C 0.14371 0.05656 0.61945 0.0
C1373 C 0.14051 0.06608 0.60737 0.0
C1374 C 0.16222 0.06273 0.62678 0.0
C1375 C 0.16555 0.05493 0.64008 0.0
C1376 C 0.14904 0.05765 0.64929 0.0
C1377 C 0.15218 0.05013 0.66177 0.0
C1378 C 0.17183 0.03999 0.66518 0.0
C1379 C 0.1884 0.0374 0.65612 0.0
C1380 C 0.18534 0.04487 0.64362 0.0
C1381 C 0.20305 0.13881 0.59994 0.0
C1382 C 0.22358 0.13099 0.59598 0.0
C1383 C 0.18689 0.12422 0.60408 0.0
C1384 C 0.19121 0.10169 0.60452 0.0
C1385 C 0.21167 0.09385 0.6006 0.0
C1386 C 0.22765 0.10835 0.59621 0.0
C1387 C 0.17459 0.08627 0.60938 0.0
C1388 C 0.1776 0.07723 0.62155 0.0
C1389 C 0.15574 0.08089 0.60225 0.0
C1390 C 0.1518 0.09015 0.58937 0.0
C1391 C 0.16695 0.08681 0.57946 0.0
C1392 C 0.16319 0.09574 0.56736 0.0
C1393 C 0.14424 0.10791 0.56503 0.0
C1394 C 0.12899 0.11112 0.57479 0.0
C1395 C 0.1327 0.10224 0.58691 0.0
H1396 H 0.14135 0.11481 0.55566 0.0
H1397 H 0.17423 0.03418 0.67484 0.0
H1398 H 0.07179 0.94719 0.84864 0.0
H1399 H 0.09674 0.919 0.85661 0.0
H1400 H 0.15077 0.9643 0.85343 0.0
H1401 H 0.12608 -0.00799 0.84479 0.0
H1402 H 0.16418 0.92743 0.84607 0.0
H1403 H 0.12404 0.95071 0.88288 0.0
H1404 H 0.09131 0.95862 0.89584 0.0
H1405 H 0.07186 0.89118 0.89362 0.0
H1406 H 0.10435 0.88291 0.8805 0.0
H1407 H 0.23655 0.87708 0.89072 0.0
H1408 H 0.209 0.90207 0.88204 0.0
H1409 H 0.16793 0.84718 0.87227 0.0
H1410 H 0.1957 0.82193 0.88068 0.0
H1411 H 0.14742 0.88677 0.88594 0.0
H1412 H 0.19091 0.8651 0.84929 0.0
H1413 H 0.22583 0.85946 0.83797 0.0
H1414 H 0.24125 0.92768 0.84206 0.0
H1415 H 0.20655 0.93365 0.85359 0.0
C1416 C 0.08902 0.95104 0.84961 0.0
C1417 C 0.09701 0.97177 0.84614 0.0
C1418 C 0.10325 0.93499 0.85425 0.0
C1419 C 0.12563 0.93961 0.85588 0.0
C1420 C 0.13361 0.96028 0.85227 0.0
C1421 C 0.11948 0.97614 0.84735 0.0
C1422 C 0.1408 0.92298 0.8613 0.0
C1423 C 0.16052 0.91875 0.85486 0.0
C1424 C 0.13603 0.91134 0.87269 0.0
C1425 C 0.1165 0.91624 0.88059 0.0
C1426 C 0.1127 0.9376 0.88507 0.0
C1427 C 0.09421 0.94214 0.89246 0.0
C1428 C 0.07948 0.92543 0.89552 0.0
C1429 C 0.08326 0.90412 0.89123 0.0
C1430 C 0.10172 0.89949 0.88382 0.0
C1431 C 0.2216 0.87032 0.8868 0.0
C1432 C 0.21828 0.84756 0.88633 0.0
C1433 C 0.20593 0.8846 0.88184 0.0
C1434 C 0.18656 0.87639 0.87651 0.0
C1435 C 0.18283 0.85374 0.87637 0.0
C1436 C 0.1987 0.83939 0.88112 0.0
C1437 C 0.17056 0.89155 0.87073 0.0
C1438 C 0.15082 0.89546 0.87712 0.0
C1439 C 0.1755 0.90329 0.85948 0.0
C1440 C 0.19623 0.89977 0.85241 0.0
C1441 C 0.20183 0.87886 0.84788 0.0
C1442 C 0.22157 0.87561 0.8414 0.0
C1443 C 0.23577 0.89319 0.83933 0.0
C1444 C 0.23024 0.91407 0.84369 0.0
C1445 C 0.21053 0.9174 0.85018 0.0
H1446 H 0.25105 0.89064 0.83432 0.0
H1447 H 0.06518 0.92898 0.90124 0.0
H1448 H 0.73669 0.10397 0.89129 0.0
H1449 H 0.70785 0.07979 0.88331 0.0
H1450 H 0.66764 0.13579 0.87455 0.0
H1451 H 0.69673 0.16026 0.88221 0.0
H1452 H 0.64808 0.09425 0.88921 0.0
H1453 H 0.6858 0.11989 0.85097 0.0
H1454 H 0.71916 0.12722 0.83842 0.0
H1455 H 0.73694 0.05933 0.84073 0.0
H1456 H 0.70384 0.05168 0.85348 0.0
H1457 H 0.56958 0.03299 0.85408 0.0
H1458 H 0.59423 0.06189 0.86153 0.0
H1459 H 0.64967 0.01956 0.85496 0.0
H1460 H 0.62523 -0.00877 0.84687 0.0
H1461 H 0.66026 0.05733 0.84765 0.0
H1462 H 0.62632 0.03003 0.88576 0.0
H1463 H 0.59581 0.02004 0.90003 0.0
H1464 H 0.5738 0.08679 0.90016 0.0
H1465 H 0.60404 0.09712 0.88574 0.0
C1466 C 0.72166 0.11116 0.88776 0.0
C1467 C 0.71896 0.134 0.88731 0.0
C1468 C 0.70524 0.09734 0.88321 0.0
C1469 C 0.68575 0.1061 0.87836 0.0
C1470 C 0.68263 0.12883 0.87829 0.0
C1471 C 0.69924 0.14272 0.88262 0.0
C1472 C 0.66912 0.09137 0.87286 0.0
C1473 C 0.65042 0.08641 0.88003 0.0
C1474 C 0.67274 0.08074 0.8611 0.0
C1475 C 0.69246 0.08526 0.85328 0.0
C1476 C 0.69693 0.10657 0.8489 0.0
C1477 C 0.71576 0.11077 0.84173 0.0
C1478 C 0.73019 0.09377 0.8388 0.0
C1479 C 0.72576 0.0725 0.84301 0.0
C1480 C 0.70696 0.06822 0.8502 0.0
C1481 C 0.58705 0.02995 0.8542 0.0
C1482 C 0.59551 0.00989 0.84993 0.0
C1483 C 0.60111 0.0464 0.85854 0.0
C1484 C 0.62383 0.04282 0.85903 0.0
C1485 C 0.63224 0.02279 0.85466 0.0
C1486 C 0.61825 0.00657 0.85006 0.0
C1487 C 0.63898 0.05982 0.86403 0.0
C1488 C 0.65757 0.06523 0.85678 0.0
C1489 C 0.63548 0.07045 0.87589 0.0
C1490 C 0.61729 0.06429 0.88455 0.0
C1491 C 0.61487 0.04254 0.88875 0.0
C1492 C 0.59765 0.03683 0.89688 0.0
C1493 C 0.58283 0.05276 0.90097 0.0
C1494 C 0.58526 0.07445 0.89696 0.0
C1495 C 0.60244 0.08025 0.88882 0.0
H1496 H 0.56951 0.0483 0.90726 0.0
H1497 H 0.74477 0.09705 0.83326 0.0
H1498 H 0.62826 0.98961 0.64428 0.0
H1499 H 0.65129 0.96046 0.63561 0.0
H1500 H 0.59397 0.9214 0.62806 0.0
H1501 H 0.57063 0.95081 0.63642 0.0
H1502 H 0.63691 0.90118 0.64169 0.0
H1503 H 0.60771 0.93869 0.6042 0.0
H1504 H 0.59922 0.97199 0.59183 0.0
H1505 H 0.66719 0.98992 0.59195 0.0
H1506 H 0.67602 0.95687 0.60452 0.0
H1507 H 0.69454 0.82251 0.60477 0.0
H1508 H 0.66631 0.84723 0.61292 0.0
H1509 H 0.7083 0.90257 0.60518 0.0
H1510 H 0.73596 0.87806 0.59645 0.0
H1511 H 0.66979 0.9132 0.59893 0.0
H1512 H 0.70053 0.87922 0.63616 0.0
H1513 H 0.71171 0.84863 0.6501 0.0
H1514 H 0.64502 0.82676 0.65237 0.0
H1515 H 0.63348 0.85707 0.6383 0.0
C1516 C 0.62054 0.97475 0.64088 0.0
C1517 C 0.59764 0.97248 0.64097 0.0
C1518 C 0.63371 0.95816 0.63593 0.0
C1519 C 0.62425 0.93892 0.63121 0.0
C1520 C 0.60148 0.9362 0.6317 0.0
C1521 C 0.58822 0.95299 0.63642 0.0
C1522 C 0.63826 0.92218 0.62522 0.0
C1523 C 0.64384 0.90348 0.63224 0.0
C1524 C 0.64772 0.92574 0.61311 0.0
C1525 C 0.64248 0.94544 0.60541 0.0
C1526 C 0.62081 0.94984 0.6017 0.0
C1527 C 0.61594 0.96865 0.59463 0.0
C1528 C 0.63264 0.9831 0.59114 0.0
C1529 C 0.65426 0.97873 0.59467 0.0
C1530 C 0.65921 0.95995 0.60176 0.0
C1531 C 0.69765 0.83997 0.60477 0.0
C1532 C 0.71744 0.84837 0.60001 0.0
C1533 C 0.68158 0.85408 0.6095 0.0
C1534 C 0.68529 0.87678 0.60989 0.0
C1535 C 0.70499 0.88515 0.60498 0.0
C1536 C 0.72083 0.87111 0.60002 0.0
C1537 C 0.66879 0.89195 0.6154 0.0
C1538 C 0.66275 0.91053 0.60831 0.0
C1539 C 0.6593 0.88848 0.6276 0.0
C1540 C 0.66619 0.87025 0.63606 0.0
C1541 C 0.68828 0.86778 0.63955 0.0
C1542 C 0.69468 0.85052 0.64749 0.0
C1543 C 0.6791 0.83572 0.65208 0.0
C1544 C 0.65708 0.8382 0.64878 0.0
C1545 C 0.6506 0.85543 0.64083 0.0
H1546 H 0.68408 0.82237 0.65823 0.0
H1547 H 0.62884 -0.00235 0.58567 0.0
H1548 H 0.74251 0.87934 0.38932 0.0
H1549 H 0.77036 0.90394 0.38053 0.0
H1550 H 0.81318 0.84899 0.37409 0.0
H1551 H 0.78513 0.82411 0.38258 0.0
H1552 H 0.83164 0.89051 0.38696 0.0
H1553 H 0.79231 0.86371 0.34983 0.0
H1554 H 0.7587 0.856 0.3376 0.0
H1555 H 0.74166 0.92416 0.33848 0.0
H1556 H 0.77502 0.93222 0.3509 0.0
H1557 H 0.90982 0.94822 0.34997 0.0
H1558 H 0.88459 0.92033 0.35805 0.0
H1559 H 0.83023 0.9641 0.35157 0.0
H1560 H 0.85524 -0.00853 0.34288 0.0
H1561 H 0.81821 0.92611 0.34507 0.0
H1562 H 0.85417 0.95443 0.38215 0.0
H1563 H 0.88542 0.96456 0.39583 0.0
H1564 H 0.90626 0.89747 0.39694 0.0
H1565 H 0.87528 0.88698 0.38312 0.0
C1566 C 0.7579 0.8725 0.38611 0.0
C1567 C 0.76166 0.84982 0.38659 0.0
C1568 C 0.77374 0.88655 0.38108 0.0
C1569 C 0.7937 0.87819 0.37667 0.0
C1570 C 0.79782 0.85566 0.37748 0.0
C1571 C 0.7818 0.84152 0.38228 0.0
C1572 C 0.80997 0.89303 0.37085 0.0
C1573 C 0.82898 0.89808 0.37771 0.0
C1574 C 0.80597 0.90332 0.359 0.0
C1575 C 0.78605 0.89853 0.35141 0.0
C1576 C 0.7813 0.87702 0.34752 0.0
C1577 C 0.76231 0.87259 0.34053 0.0
C1578 C 0.74802 0.88957 0.33729 0.0
C1579 C 0.75273 0.91102 0.34101 0.0
C1580 C 0.77168 0.91553 0.34801 0.0
C1581 C 0.89247 0.9518 0.35023 0.0
C1582 C 0.88449 0.97201 0.34585 0.0
C1583 C 0.87807 0.93592 0.35492 0.0
C1584 C 0.8555 0.94023 0.35566 0.0
C1585 C 0.84753 0.96034 0.35111 0.0
C1586 C 0.86186 0.97601 0.34616 0.0
C1587 C 0.84011 0.9239 0.36119 0.0
C1588 C 0.82114 0.91853 0.35428 0.0
C1589 C 0.84392 0.91372 0.37316 0.0
C1590 C 0.86255 0.91996 0.38149 0.0
C1591 C 0.86551 0.94186 0.38523 0.0
C1592 C 0.88316 0.94767 0.39303 0.0
C1593 C 0.89785 0.93168 0.39722 0.0
C1594 C 0.89489 0.90984 0.39367 0.0
C1595 C 0.87728 0.90395 0.38586 0.0
H1596 H 0.9115 0.9362 0.40326 0.0
H1597 H 0.73333 0.88611 0.33188 0.0
H1598 H 0.75297 0.11131 0.08254 0.0
H1599 H 0.78103 0.08709 0.09129 0.0
H1600 H 0.79315 0.1331 0.1217 0.0
H1601 H 0.76549 0.15772 0.11278 0.0
H1602 H 0.83049 0.11649 0.11378 0.0
H1603 H 0.76131 0.08754 0.12657 0.0
H1604 H 0.72352 0.07426 0.12365 0.0
H1605 H 0.74679 0.02243 0.09958 0.0
H1606 H 0.78471 0.03559 0.10221 0.0
H1607 H 0.8575 0.00719 0.15042 0.0
H1608 H 0.83207 0.03573 0.14356 0.0
H1609 H 0.87585 0.05332 0.11288 0.0
H1610 H 0.90166 0.02522 0.11994 0.0
H1611 H 0.80989 0.03942 0.12279 0.0
H1612 H 0.87 0.10677 0.1051 0.0
H1613 H 0.90657 0.12124 0.11046 0.0
H1614 H 0.89944 0.09824 0.14899 0.0
H1615 H 0.86272 0.0839 0.14391 0.0
C1616 C 0.76171 0.11634 0.09105 0.0
C1617 C 0.75691 0.13633 0.09704 0.0
C1618 C 0.77769 0.10245 0.09606 0.0
C1619 C 0.78891 0.1081 0.10728 0.0
C1620 C 0.78465 0.12838 0.11305 0.0
C1621 C 0.76881 0.1424 0.10796 0.0
C1622 C 0.8046 0.09255 0.11317 0.0
C1623 C 0.82601 0.09964 0.11576 0.0
C1624 C 0.7986 0.07071 0.11606 0.0
C1625 C 0.77583 0.06267 0.1145 0.0
C1626 C 0.75835 0.0734 0.12058 0.0
C1627 C 0.73691 0.06588 0.11899 0.0
C1628 C 0.73275 0.04754 0.11141 0.0
C1629 C 0.75003 0.03665 0.10544 0.0
C1630 C 0.77151 0.04412 0.10698 0.0
C1631 C 0.86179 0.01728 0.14228 0.0
C1632 C 0.88156 0.01398 0.13571 0.0
C1633 C 0.84723 0.03355 0.13835 0.0
C1634 C 0.85209 0.04679 0.12776 0.0
C1635 C 0.87191 0.0436 0.12123 0.0
C1636 C 0.8866 0.02746 0.12523 0.0
C1637 C 0.83595 0.06321 0.12322 0.0
C1638 C 0.81442 0.05628 0.12085 0.0
C1639 C 0.8417 0.08533 0.1209 0.0
C1640 C 0.86369 0.09408 0.12408 0.0
C1641 C 0.8762 0.10488 0.11473 0.0
C1642 C 0.89696 0.11304 0.11772 0.0
C1643 C 0.90535 0.1106 0.13005 0.0
C1644 C 0.89296 0.10004 0.13943 0.0
C1645 C 0.87219 0.09187 0.1365 0.0
H1646 H 0.92143 0.11692 0.13234 0.0
H1647 H 0.71614 0.04175 0.11019 0.0
H1648 H 0.78421 0.32761 0.59933 0.0
H1649 H 0.81203 0.353 0.60726 0.0
H1650 H 0.76641 0.40655 0.6033 0.0
H1651 H 0.73906 0.38142 0.59473 0.0
H1652 H 0.80339 0.42014 0.59609 0.0
H1653 H 0.7794 0.38084 0.63303 0.0
H1654 H 0.77118 0.34847 0.64628 0.0
H1655 H 0.8387 0.32916 0.64485 0.0
H1656 H 0.84727 0.36128 0.63145 0.0
H1657 H 0.85383 0.49391 0.63987 0.0
H1658 H 0.82863 0.46639 0.63138 0.0
H1659 H 0.88305 0.4239 0.62297 0.0
H1660 H 0.90851 0.4516 0.63121 0.0
H1661 H 0.84333 0.40441 0.63633 0.0
H1662 H 0.8656 0.44707 0.59938 0.0
H1663 H 0.87144 0.48179 0.58783 0.0
H1664 H 0.80318 0.49724 0.59149 0.0
H1665 H 0.79701 0.46274 0.60324 0.0
C1666 C 0.78021 0.34482 0.60012 0.0
C1667 C 0.75949 0.35255 0.59646 0.0
C1668 C 0.79605 0.35931 0.60473 0.0
C1669 C 0.79123 0.38168 0.60613 0.0
C1670 C 0.77058 0.3894 0.60232 0.0
C1671 C 0.75492 0.37501 0.59744 0.0
C1672 C 0.80762 0.39711 0.61154 0.0
C1673 C 0.8119 0.41671 0.60496 0.0
C1674 C 0.81901 0.39267 0.62305 0.0
C1675 C 0.81392 0.37334 0.63112 0.0
C1676 C 0.79246 0.3696 0.63546 0.0
C1677 C 0.78774 0.35131 0.64301 0.0
C1678 C 0.80439 0.33673 0.64637 0.0
C1679 C 0.82581 0.34044 0.64222 0.0
C1680 C 0.83061 0.3587 0.63465 0.0
C1681 C 0.86044 0.47866 0.63629 0.0
C1682 C 0.88314 0.4749 0.63615 0.0
C1683 C 0.84604 0.46301 0.63143 0.0
C1684 C 0.85406 0.44324 0.62654 0.0
C1685 C 0.87663 0.43912 0.62673 0.0
C1686 C 0.8911 0.45494 0.63138 0.0
C1687 C 0.83882 0.42719 0.62088 0.0
C1688 C 0.8348 0.40759 0.62743 0.0
C1689 C 0.82726 0.43185 0.60953 0.0
C1690 C 0.83089 0.45243 0.60229 0.0
C1691 C 0.85187 0.45796 0.59781 0.0
C1692 C 0.85523 0.47758 0.59121 0.0
C1693 C 0.8377 0.49174 0.58895 0.0
C1694 C 0.81675 0.48627 0.59326 0.0
C1695 C 0.81331 0.46667 0.59988 0.0
H1696 H 0.84033 0.50693 0.58385 0.0
H1697 H 0.80071 0.32258 0.65222 0.0
H1698 H 0.85877 0.50315 0.83247 0.0
H1699 H 0.8339 0.53185 0.83969 0.0
H1700 H 0.88029 0.5506 0.86878 0.0
H1701 H 0.90551 0.52226 0.86137 0.0
H1702 H 0.81364 0.5364 0.86121 0.0
H1703 H 0.87519 0.6047 0.87548 0.0
H1704 H 0.91119 0.61882 0.86867 0.0
H1705 H 0.90051 0.59359 0.83094 0.0
H1706 H 0.86434 0.57959 0.83747 0.0
H1707 H 0.75917 0.61103 0.90072 0.0
H1708 H 0.78691 0.58631 0.89216 0.0
H1709 H 0.79723 0.63012 0.86036 0.0
H1710 H 0.76998 0.65531 0.86914 0.0
H1711 H 0.83487 0.614 0.86772 0.0
H1712 H 0.76469 0.58405 0.85759 0.0
H1713 H 0.72723 0.57101 0.86199 0.0
H1714 H 0.7527 0.52117 0.88682 0.0
H1715 H 0.79031 0.5341 0.8827 0.0
C1716 C 0.86375 0.5135 0.84035 0.0
C1717 C 0.88409 0.51046 0.84636 0.0
C1718 C 0.8495 0.52986 0.84448 0.0
C1719 C 0.85526 0.54348 0.85472 0.0
C1720 C 0.87563 0.54055 0.86071 0.0
C1721 C 0.88999 0.52429 0.85651 0.0
C1722 C 0.83957 0.56015 0.85944 0.0
C1723 C 0.81831 0.55337 0.86261 0.0
C1724 C 0.84549 0.58238 0.86106 0.0
C1725 C 0.86715 0.5909 0.85701 0.0
C1726 C 0.8805 0.60224 0.86572 0.0
C1727 C 0.90094 0.61021 0.86191 0.0
C1728 C 0.90817 0.60704 0.84939 0.0
C1729 C 0.89494 0.59595 0.84065 0.0
C1730 C 0.87448 0.58797 0.8444 0.0
C1731 C 0.76748 0.61547 0.89196 0.0
C1732 C 0.7623 0.63499 0.88553 0.0
C1733 C 0.78326 0.6013 0.88705 0.0
C1734 C 0.79383 0.60614 0.87548 0.0
C1735 C 0.78923 0.62601 0.86928 0.0
C1736 C 0.77364 0.64036 0.87429 0.0
C1737 C 0.80909 0.59014 0.86966 0.0
C1738 C 0.83025 0.59703 0.8663 0.0
C1739 C 0.80289 0.56811 0.86751 0.0
C1740 C 0.7803 0.56017 0.86992 0.0
C1741 C 0.76229 0.57039 0.86405 0.0
C1742 C 0.74104 0.56302 0.86649 0.0
C1743 C 0.73758 0.54531 0.8747 0.0
C1744 C 0.7554 0.5349 0.88047 0.0
C1745 C 0.77669 0.54223 0.87808 0.0
H1746 H 0.72111 0.53962 0.87658 0.0
H1747 H 0.924 0.61321 0.84647 0.0
H1748 H 0.69996 0.65945 0.10068 0.0
H1749 H 0.67131 0.6349 0.10858 0.0
H1750 H 0.71248 0.5792 0.10049 0.0
H1751 H 0.74061 0.60356 0.09204 0.0
H1752 H 0.67358 0.56921 0.0943 0.0
H1753 H 0.70549 0.60175 0.13152 0.0
H1754 H 0.71755 0.63178 0.14557 0.0
H1755 H 0.6514 0.65498 0.14833 0.0
H1756 H 0.63897 0.62522 0.13415 0.0
H1757 H 0.62921 0.4925 0.13886 0.0
H1758 H 0.65335 0.52047 0.12977 0.0
H1759 H 0.59821 0.56361 0.1247 0.0
H1760 H 0.57376 0.53544 0.13348 0.0
H1761 H 0.64136 0.58107 0.13721 0.0
H1762 H 0.61077 0.54482 0.10003 0.0
H1763 H 0.6012 0.51221 0.08735 0.0
H1764 H 0.66884 0.49325 0.08627 0.0
H1765 H 0.67875 0.52559 0.09913 0.0
C1766 C 0.70279 0.64195 0.10053 0.0
C1767 C 0.72252 0.63342 0.09579 0.0
C1768 C 0.68648 0.62793 0.10511 0.0
C1769 C 0.68986 0.60517 0.10537 0.0
C1770 C 0.70944 0.59667 0.10041 0.0
C1771 C 0.72554 0.61062 0.0956 0.0
C1772 C 0.6732 0.59014 0.11087 0.0
C1773 C 0.66671 0.57181 0.10372 0.0
C1774 C 0.66394 0.59353 0.12313 0.0
C1775 C 0.67135 0.61142 0.13166 0.0
C1776 C 0.69354 0.61336 0.13505 0.0
C1777 C 0.70044 0.63031 0.14305 0.0
C1778 C 0.68526 0.64532 0.14781 0.0
C1779 C 0.66314 0.64336 0.14461 0.0
C1780 C 0.65616 0.62645 0.1366 0.0
C1781 C 0.62222 0.50798 0.13587 0.0
C1782 C 0.5996 0.5118 0.13684 0.0
C1783 C 0.63602 0.52388 0.13068 0.0
C1784 C 0.62747 0.54398 0.12657 0.0
C1785 C 0.60502 0.54815 0.12784 0.0
C1786 C 0.59112 0.53205 0.13281 0.0
C1787 C 0.64207 0.56035 0.12065 0.0
C1788 C 0.64817 0.57879 0.12774 0.0
C1789 C 0.65137 0.55682 0.10849 0.0
C1790 C 0.64546 0.5375 0.10065 0.0
C1791 C 0.62357 0.53359 0.09719 0.0
C1792 C 0.61809 0.51518 0.08995 0.0
C1793 C 0.6344 0.50063 0.08603 0.0
C1794 C 0.65622 0.50451 0.08932 0.0
C1795 C 0.66178 0.52289 0.09657 0.0
H1796 H 0.63012 0.48639 0.08043 0.0
H1797 H 0.69063 0.65843 0.154 0.0
H1798 H 0.74028 0.37634 0.38897 0.0
H1799 H 0.71201 0.4016 0.38175 0.0
H1800 H 0.67031 0.34703 0.37203 0.0
H1801 H 0.6991 0.32158 0.37873 0.0
H1802 H 0.66762 0.37568 0.35414 0.0
H1803 H 0.66159 0.37972 0.3993 0.0
H1804 H 0.67399 0.38387 0.42157 0.0
H1805 H 0.69614 0.44913 0.41342 0.0
H1806 H 0.68416 0.44527 0.39105 0.0
H1807 H 0.57292 0.44945 0.35282 0.0
H1808 H 0.59794 0.42057 0.36017 0.0
H1809 H 0.65289 0.4637 0.35427 0.0
H1810 H 0.62818 0.49235 0.34655 0.0
H1811 H 0.64553 0.43916 0.38068 0.0
H1812 H 0.65319 0.43164 0.33439 0.0
H1813 H 0.63813 0.42638 0.31276 0.0
H1814 H 0.60905 0.36559 0.32452 0.0
H1815 H 0.62367 0.3707 0.34628 0.0
C1816 C 0.72505 0.3697 0.38535 0.0
C1817 C 0.72183 0.34699 0.38447 0.0
C1818 C 0.70883 0.38417 0.38128 0.0
C1819 C 0.6888 0.37626 0.37658 0.0
C1820 C 0.68558 0.35354 0.37566 0.0
C1821 C 0.702 0.33902 0.37952 0.0
C1822 C 0.67155 0.39177 0.37234 0.0
C1823 C 0.66258 0.38933 0.36006 0.0
C1824 C 0.66492 0.4097 0.38 0.0
C1825 C 0.67212 0.41213 0.39346 0.0
C1826 C 0.66925 0.3949 0.40223 0.0
C1827 C 0.67618 0.39721 0.41488 0.0
C1828 C 0.68589 0.41673 0.4189 0.0
C1829 C 0.68864 0.43401 0.41029 0.0
C1830 C 0.68175 0.43178 0.39763 0.0
C1831 C 0.59035 0.45269 0.35303 0.0
C1832 C 0.59865 0.47308 0.34911 0.0
C1833 C 0.60456 0.43623 0.3572 0.0
C1834 C 0.62715 0.44013 0.35773 0.0
C1835 C 0.63546 0.46048 0.3539 0.0
C1836 C 0.62135 0.47675 0.34945 0.0
C1837 C 0.64218 0.42315 0.36253 0.0
C1838 C 0.65058 0.42534 0.37489 0.0
C1839 C 0.64794 0.40481 0.35508 0.0
C1840 C 0.63926 0.40171 0.342 0.0
C1841 C 0.64337 0.41729 0.3324 0.0
C1842 C 0.63497 0.4143 0.32011 0.0
C1843 C 0.62257 0.3957 0.31728 0.0
C1844 C 0.61861 0.38002 0.32673 0.0
C1845 C 0.62696 0.38295 0.33904 0.0
H1846 H 0.61608 0.39341 0.30776 0.0
H1847 H 0.69125 0.41849 0.4287 0.0
H1848 H 0.123 0.50396 0.33484 0.0
H1849 H 0.1477 0.53202 0.34313 0.0
H1850 H 0.10269 0.54494 0.37395 0.0
H1851 H 0.07759 0.51735 0.36547 0.0
H1852 H 0.11864 0.58188 0.36559 0.0
H1853 H 0.14891 0.51325 0.37839 0.0
H1854 H 0.16252 0.47559 0.3755 0.0
H1855 H 0.21316 0.49922 0.35061 0.0
H1856 H 0.19965 0.537 0.35321 0.0
H1857 H 0.22818 0.61114 0.40104 0.0
H1858 H 0.20021 0.58493 0.3944 0.0
H1859 H 0.18114 0.62811 0.3637 0.0
H1860 H 0.20866 0.65469 0.37055 0.0
H1861 H 0.19625 0.56245 0.37371 0.0
H1862 H 0.12761 0.62149 0.35661 0.0
H1863 H 0.11283 0.65788 0.36202 0.0
H1864 H 0.13705 0.65129 0.40032 0.0
H1865 H 0.15171 0.61475 0.39519 0.0
C1866 C 0.11833 0.51285 0.34335 0.0
C1867 C 0.09844 0.50837 0.34956 0.0
C1868 C 0.13249 0.52882 0.34811 0.0
C1869 C 0.12722 0.54032 0.35929 0.0
C1870 C 0.10711 0.53625 0.36532 0.0
C1871 C 0.09282 0.52044 0.36049 0.0
C1872 C 0.14286 0.5563 0.36482 0.0
C1873 C 0.13561 0.57765 0.36737 0.0
C1874 C 0.16488 0.55063 0.36744 0.0
C1875 C 0.17314 0.52794 0.36591 0.0
C1876 C 0.16286 0.5104 0.37223 0.0
C1877 C 0.17057 0.48903 0.37066 0.0
C1878 C 0.18866 0.48501 0.36285 0.0
C1879 C 0.19912 0.50236 0.35664 0.0
C1880 C 0.19146 0.52375 0.35817 0.0
C1881 C 0.21791 0.61512 0.39294 0.0
C1882 C 0.22058 0.63497 0.38632 0.0
C1883 C 0.20197 0.60011 0.38913 0.0
C1884 C 0.18845 0.6046 0.37861 0.0
C1885 C 0.19109 0.62445 0.37199 0.0
C1886 C 0.20689 0.63959 0.37588 0.0
C1887 C 0.17214 0.58817 0.37431 0.0
C1888 C 0.17928 0.56672 0.37196 0.0
C1889 C 0.14989 0.59359 0.37225 0.0
C1890 C 0.14095 0.61547 0.37546 0.0
C1891 C 0.12971 0.62778 0.36619 0.0
C1892 C 0.12137 0.64844 0.36921 0.0
C1893 C 0.12406 0.65692 0.38149 0.0
C1894 C 0.13505 0.64474 0.39079 0.0
C1895 C 0.14341 0.62406 0.38783 0.0
H1896 H 0.1176 0.67292 0.38381 0.0
H1897 H 0.1946 0.46845 0.36164 0.0
H1898 H 0.24086 0.37991 0.09176 0.0
H1899 H 0.2125 0.40394 0.10045 0.0
H1900 H 0.17081 0.34812 0.10709 0.0
H1901 H 0.19937 0.32381 0.09871 0.0
H1902 H 0.15153 0.39019 0.09442 0.0
H1903 H 0.1913 0.36209 0.13119 0.0
H1904 H 0.22517 0.35404 0.14311 0.0
H1905 H 0.24221 0.42224 0.14268 0.0
H1906 H 0.20858 0.43064 0.13056 0.0
H1907 H 0.07375 0.44615 0.13259 0.0
H1908 H 0.09885 0.41863 0.12402 0.0
H1909 H 0.15329 0.4623 0.13058 0.0
H1910 H 0.12845 0.48929 0.13972 0.0
H1911 H 0.16536 0.42407 0.13669 0.0
H1912 H 0.12879 0.45374 0.10011 0.0
H1913 H 0.09729 0.46426 0.08672 0.0
H1914 H 0.07668 0.39712 0.08493 0.0
H1915 H 0.10791 0.38623 0.09846 0.0
C1916 C 0.22558 0.37275 0.09496 0.0
C1917 C 0.22232 0.34999 0.09462 0.0
C1918 C 0.20945 0.38649 0.09992 0.0
C1919 C 0.1897 0.37771 0.10441 0.0
C1920 C 0.18601 0.35511 0.10364 0.0
C1921 C 0.20232 0.34129 0.0989 0.0
C1922 C 0.17339 0.39215 0.11046 0.0
C1923 C 0.15427 0.39738 0.10375 0.0
C1924 C 0.17749 0.40194 0.12243 0.0
C1925 C 0.19755 0.39695 0.12986 0.0
C1926 C 0.20237 0.37534 0.13354 0.0
C1927 C 0.2215 0.37072 0.14035 0.0
C1928 C 0.23586 0.38761 0.14362 0.0
C1929 C 0.23108 0.40917 0.14013 0.0
C1930 C 0.21198 0.41387 0.13329 0.0
C1931 C 0.0911 0.44978 0.13225 0.0
C1932 C 0.09916 0.46986 0.13678 0.0
C1933 C 0.10542 0.43412 0.12727 0.0
C1934 C 0.12796 0.43852 0.12642 0.0
C1935 C 0.136 0.45848 0.13113 0.0
C1936 C 0.12177 0.47393 0.13633 0.0
C1937 C 0.14326 0.42243 0.12065 0.0
C1938 C 0.16234 0.41686 0.1274 0.0
C1939 C 0.13932 0.41273 0.10857 0.0
C1940 C 0.12054 0.41921 0.10042 0.0
C1941 C 0.11744 0.44124 0.09694 0.0
C1942 C 0.09965 0.44726 0.08931 0.0
C1943 C 0.08496 0.43137 0.08501 0.0
C1944 C 0.08805 0.40941 0.08829 0.0
C1945 C 0.1058 0.40331 0.09594 0.0
H1946 H 0.0712 0.43607 0.0791 0.0
H1947 H 0.25067 0.384 0.14889 0.0
H1948 H 0.35211 0.48957 0.84355 0.0
H1949 H 0.32755 0.461 0.85156 0.0
H1950 H 0.38302 0.41977 0.85985 0.0
H1951 H 0.40782 0.44853 0.85214 0.0
H1952 H 0.3427 0.40025 0.84568 0.0
H1953 H 0.36613 0.43978 0.88356 0.0
H1954 H 0.37237 0.47351 0.89595 0.0
H1955 H 0.30411 0.48954 0.89312 0.0
H1956 H 0.29755 0.45606 0.88053 0.0
H1957 H 0.28279 0.32128 0.8813 0.0
H1958 H 0.31103 0.34658 0.87367 0.0
H1959 H 0.26675 0.40084 0.87916 0.0
H1960 H 0.23907 0.3758 0.88743 0.0
H1961 H 0.30396 0.41291 0.88663 0.0
H1962 H 0.27888 0.37681 0.84875 0.0
H1963 H 0.27024 0.34551 0.83479 0.0
H1964 H 0.33759 0.32552 0.83555 0.0
H1965 H 0.34659 0.35656 0.84966 0.0
C1966 C 0.35908 0.47438 0.847 0.0
C1967 C 0.38187 0.47127 0.84728 0.0
C1968 C 0.34505 0.45812 0.85157 0.0
C1969 C 0.35356 0.4384 0.85628 0.0
C1970 C 0.37623 0.43493 0.85622 0.0
C1971 C 0.39033 0.45136 0.85187 0.0
C1972 C 0.33869 0.42179 0.86172 0.0
C1973 C 0.33444 0.40274 0.85473 0.0
C1974 C 0.32751 0.42555 0.8733 0.0
C1975 C 0.3314 0.44553 0.881 0.0
C1976 C 0.3525 0.4506 0.88548 0.0
C1977 C 0.35608 0.46965 0.89256 0.0
C1978 C 0.33866 0.48369 0.89529 0.0
C1979 C 0.3176 0.47867 0.89099 0.0
C1980 C 0.31394 0.45965 0.88389 0.0
C1981 C 0.27918 0.33863 0.8809 0.0
C1982 C 0.25877 0.3466 0.88493 0.0
C1983 C 0.29525 0.35306 0.87646 0.0
C1984 C 0.29094 0.37563 0.87562 0.0
C1985 C 0.27055 0.38354 0.87973 0.0
C1986 C 0.2547 0.3692 0.88443 0.0
C1987 C 0.30758 0.39114 0.87056 0.0
C1988 C 0.31223 0.41013 0.87762 0.0
C1989 C 0.3187 0.38753 0.85886 0.0
C1990 C 0.31335 0.36886 0.85038 0.0
C1991 C 0.29181 0.36564 0.84602 0.0
C1992 C 0.28686 0.34797 0.83807 0.0
C1993 C 0.30334 0.3335 0.83431 0.0
C1994 C 0.32483 0.33672 0.83848 0.0
C1995 C 0.32987 0.35436 0.84645 0.0
H1996 H 0.29947 0.31983 0.82815 0.0
H1997 H 0.34147 0.49843 0.90077 0.0
H1998 H 0.40904 0.53185 0.63122 0.0
H1999 H 0.38423 0.5598 0.62257 0.0
H2000 H 0.32918 0.51716 0.62931 0.0
H2001 H 0.3537 0.48943 0.6383 0.0
H2002 H 0.33545 0.538 0.6027 0.0
H2003 H 0.33062 0.55308 0.6483 0.0
H2004 H 0.34662 0.56155 0.66933 0.0
H2005 H 0.37559 0.62002 0.65403 0.0
H2006 H 0.36002 0.61169 0.63283 0.0
H2007 H 0.24252 0.60279 0.59178 0.0
H2008 H 0.27027 0.57764 0.59978 0.0
H2009 H 0.31386 0.63201 0.60672 0.0
H2010 H 0.28552 0.65741 0.59934 0.0
H2011 H 0.31635 0.60631 0.6257 0.0
H2012 H 0.32057 0.59444 0.58092 0.0
H2013 H 0.30723 0.58693 0.55914 0.0
H2014 H 0.28327 0.52419 0.57131 0.0
H2015 H 0.29621 0.53144 0.5932 0.0
C2016 C 0.39163 0.52852 0.63092 0.0
C2017 C 0.38326 0.50852 0.63544 0.0
C2018 C 0.37753 0.54446 0.62599 0.0
C2019 C 0.35497 0.54042 0.62532 0.0
C2020 C 0.34658 0.52047 0.62977 0.0
C2021 C 0.36058 0.50474 0.63495 0.0
C2022 C 0.34006 0.55689 0.61979 0.0
C2023 C 0.33104 0.55287 0.60773 0.0
C2024 C 0.33514 0.57658 0.62621 0.0
C2025 C 0.3444 0.58162 0.63895 0.0
C2026 C 0.3406 0.56761 0.64938 0.0
C2027 C 0.34954 0.57242 0.66134 0.0
C2028 C 0.36218 0.59127 0.66301 0.0
C2029 C 0.36584 0.6054 0.65272 0.0
C2030 C 0.35695 0.60065 0.64074 0.0
C2031 C 0.25808 0.60938 0.59493 0.0
C2032 C 0.26192 0.63204 0.5949 0.0
C2033 C 0.27401 0.59496 0.59943 0.0
C2034 C 0.2944 0.60283 0.60363 0.0
C2035 C 0.2983 0.6255 0.60352 0.0
C2036 C 0.28215 0.64 0.59927 0.0
C2037 C 0.31124 0.58742 0.60855 0.0
C2038 C 0.32075 0.59159 0.62053 0.0
C2039 C 0.31698 0.56805 0.60191 0.0
C2040 C 0.30921 0.56357 0.58873 0.0
C2041 C 0.31233 0.57911 0.57897 0.0
C2042 C 0.30485 0.57488 0.5666 0.0
C2043 C 0.29437 0.55511 0.56385 0.0
C2044 C 0.29138 0.5395 0.57345 0.0
C2045 C 0.29881 0.54365 0.58584 0.0
H2046 H 0.28859 0.55187 0.55427 0.0
H2047 H 0.36908 0.59497 0.67227 0.0
H2048 H 0.40092 0.10091 0.14133 0.0
H2049 H 0.38059 0.13483 0.13757 0.0
H2050 H 0.33144 0.09858 0.11679 0.0
H2051 H 0.35246 0.06503 0.11985 0.0
H2052 H 0.33903 0.13203 0.10421 0.0
H2053 H 0.32368 0.12117 0.14833 0.0
H2054 H 0.33164 0.11453 0.17109 0.0
H2055 H 0.36845 0.17434 0.17283 0.0
H2056 H 0.36094 0.18121 0.15003 0.0
H2057 H 0.27155 0.23613 0.12473 0.0
H2058 H 0.28717 0.20023 0.12957 0.0
H2059 H 0.33307 0.20809 0.09856 0.0
H2060 H 0.31672 0.24343 0.0933 0.0
H2061 H 0.32403 0.18761 0.13751 0.0
H2062 H 0.34856 0.1606 0.08618 0.0
H2063 H 0.33516 0.16477 0.06409 0.0
H2064 H 0.27 0.17578 0.07799 0.0
H2065 H 0.28294 0.1714 0.10015 0.0
C2066 C 0.38566 0.10023 0.13607 0.0
C2067 C 0.37826 0.0804 0.13086 0.0
C2068 C 0.37397 0.1196 0.13397 0.0
C2069 C 0.35428 0.11935 0.12699 0.0
C2070 C 0.34662 0.09934 0.12212 0.0
C2071 C 0.35859 0.08013 0.12392 0.0
C2072 C 0.34219 0.13997 0.12418 0.0
C2073 C 0.33569 0.1441 0.11153 0.0
C2074 C 0.33734 0.15565 0.13372 0.0
C2075 C 0.3419 0.1516 0.14744 0.0
C2076 C 0.3336 0.13283 0.15354 0.0
C2077 C 0.33801 0.12904 0.16645 0.0
C2078 C 0.35058 0.14398 0.17339 0.0
C2079 C 0.35873 0.16277 0.16744 0.0
C2080 C 0.35438 0.16663 0.15452 0.0
C2081 C 0.28482 0.23007 0.11887 0.0
C2082 C 0.2928 0.24249 0.10857 0.0
C2083 C 0.29382 0.20959 0.12168 0.0
C2084 C 0.31117 0.20125 0.11436 0.0
C2085 C 0.31933 0.21383 0.10416 0.0
C2086 C 0.31002 0.23409 0.10118 0.0
C2087 C 0.32102 0.17964 0.11755 0.0
C2088 C 0.32722 0.17542 0.13023 0.0
C2089 C 0.32476 0.16345 0.10814 0.0
C2090 C 0.31678 0.16587 0.09483 0.0
C2091 C 0.33136 0.16382 0.08452 0.0
C2092 C 0.32384 0.16624 0.07198 0.0
C2093 C 0.30176 0.17061 0.06964 0.0
C2094 C 0.28712 0.17248 0.07982 0.0
C2095 C 0.29454 0.17006 0.09237 0.0
H2096 H 0.29598 0.17249 0.05993 0.0
H2097 H 0.35398 0.14101 0.18339 0.0
H2098 H 0.1683 0.11293 0.36211 0.0
H2099 H 0.13471 0.09263 0.35765 0.0
H2100 H 0.1031 0.12383 0.3896 0.0
H2101 H 0.1368 0.14417 0.39423 0.0
H2102 H 0.11011 0.06359 0.37249 0.0
H2103 H 0.04999 0.13553 0.3791 0.0
H2104 H 0.04967 0.17585 0.37756 0.0
H2105 H 0.10223 0.17368 0.3504 0.0
H2106 H 0.10263 0.13337 0.35163 0.0
H2107 H -0.00094 0.02775 0.3754 0.0
H2108 H 0.03435 0.04524 0.37945 0.0
H2109 H 0.0324 0.07509 0.34214 0.0
H2110 H -0.00297 0.05767 0.33797 0.0
H2111 H 0.0428 0.1046 0.361 0.0
H2112 H 0.06612 0.03348 0.34722 0.0
H2113 H 0.06697 -0.00687 0.34734 0.0
H2114 H 0.08925 -0.00655 0.38621 0.0
H2115 H 0.08825 0.03383 0.38639 0.0
C2116 C 0.15426 0.11541 0.36825 0.0
C2117 C 0.15517 0.13026 0.37849 0.0
C2118 C 0.13512 0.10371 0.36571 0.0
C2119 C 0.11643 0.10685 0.37324 0.0
C2120 C 0.11736 0.12131 0.38363 0.0
C2121 C 0.13662 0.13285 0.38629 0.0
C2122 C 0.09579 0.09549 0.3699 0.0
C2123 C 0.09535 0.07253 0.37003 0.0
C2124 C 0.0767 0.1072 0.36647 0.0
C2125 C 0.07649 0.13144 0.36558 0.0
C2126 C 0.06143 0.14366 0.37278 0.0
C2127 C 0.06124 0.16651 0.37196 0.0
C2128 C 0.07597 0.17732 0.36392 0.0
C2129 C 0.09089 0.16529 0.35666 0.0
C2130 C 0.09113 0.14245 0.35743 0.0
C2131 C 0.00619 0.03789 0.36799 0.0
C2132 C -0.0048 0.0413 0.35635 0.0
C2133 C 0.02639 0.04784 0.37033 0.0
C2134 C 0.03599 0.06142 0.36108 0.0
C2135 C 0.02522 0.06469 0.3494 0.0
C2136 C 0.00507 0.05462 0.34702 0.0
C2137 C 0.057 0.07266 0.36376 0.0
C2138 C 0.05751 0.09563 0.36352 0.0
C2139 C 0.07622 0.06095 0.36695 0.0
C2140 C 0.07691 0.03667 0.36685 0.0
C2141 C 0.07103 0.02494 0.35583 0.0
C2142 C 0.07157 0.00207 0.35584 0.0
C2143 C 0.07811 -0.00927 0.36678 0.0
C2144 C 0.08417 0.00225 0.37774 0.0
C2145 C 0.08364 0.02513 0.37779 0.0
H2146 H 0.07852 0.97302 0.36677 0.0
H2147 H 0.07575 0.19499 0.36326 0.0
H2148 H 0.09549 0.88872 0.64684 0.0
H2149 H 0.11659 0.85509 0.64355 0.0
H2150 H 0.11558 0.86612 0.60288 0.0
H2151 H 0.09458 0.89961 0.60604 0.0
H2152 H 0.10536 0.82357 0.60936 0.0
H2153 H 0.1607 0.87731 0.61931 0.0
H2154 H 0.17817 0.90588 0.63243 0.0
H2155 H 0.18498 0.86033 0.66344 0.0
H2156 H 0.16726 0.83155 0.65055 0.0
H2157 H 0.18443 0.7482 0.58842 0.0
H2158 H 0.16532 0.78244 0.59291 0.0
H2159 H 0.17333 0.77144 0.63333 0.0
H2160 H 0.19289 0.73743 0.62893 0.0
H2161 H 0.17948 0.81349 0.62785 0.0
H2162 H 0.12496 0.75968 0.6184 0.0
H2163 H 0.10696 0.73069 0.60585 0.0
H2164 H 0.09755 0.77562 0.57477 0.0
H2165 H 0.11578 0.80482 0.58708 0.0
C2166 C 0.09972 0.88396 0.6372 0.0
C2167 C 0.09338 0.8969 0.62671 0.0
C2168 C 0.11185 0.8648 0.63534 0.0
C2169 C 0.11776 0.85822 0.62298 0.0
C2170 C 0.11119 0.87092 0.6125 0.0
C2171 C 0.09924 0.89011 0.61434 0.0
C2172 C 0.13072 0.83806 0.62086 0.0
C2173 C 0.12167 0.82145 0.61328 0.0
C2174 C 0.15173 0.83509 0.62628 0.0
C2175 C 0.16244 0.85235 0.63402 0.0
C2176 C 0.16575 0.87344 0.62897 0.0
C2177 C 0.17573 0.88966 0.63635 0.0
C2178 C 0.18262 0.88494 0.64878 0.0
C2179 C 0.1796 0.86397 0.65383 0.0
C2180 C 0.1696 0.8477 0.64648 0.0
C2181 C 0.18232 0.75314 0.59826 0.0
C2182 C 0.19005 0.73996 0.60831 0.0
C2183 C 0.17129 0.77268 0.60082 0.0
C2184 C 0.16752 0.77929 0.61347 0.0
C2185 C 0.17597 0.76662 0.6235 0.0
C2186 C 0.18712 0.74715 0.62096 0.0
C2187 C 0.15422 0.79905 0.61622 0.0
C2188 C 0.16316 0.81556 0.62394 0.0
C2189 C 0.133 0.80187 0.61103 0.0
C2190 C 0.12193 0.78438 0.60362 0.0
C2191 C 0.1192 0.76334 0.60886 0.0
C2192 C 0.10893 0.74687 0.60179 0.0
C2193 C 0.10117 0.75129 0.58951 0.0
C2194 C 0.1036 0.77221 0.58428 0.0
C2195 C 0.11388 0.78873 0.5913 0.0
H2196 H 0.09322 0.73852 0.58405 0.0
H2197 H 0.19035 0.89752 0.65448 0.0
H2198 H 0.47925 0.93307 0.84128 0.0
H2199 H 0.44415 0.91497 0.84536 0.0
H2200 H 0.45568 0.91906 0.8859 0.0
H2201 H 0.49064 0.93722 0.88196 0.0
H2202 H 0.44306 0.87734 0.8778 0.0
H2203 H 0.41962 0.95214 0.87317 0.0
H2204 H 0.41662 0.98783 0.86229 0.0
H2205 H 0.38486 0.95707 0.83044 0.0
H2206 H 0.38795 0.92112 0.84106 0.0
H2207 H 0.33797 0.84374 0.899 0.0
H2208 H 0.37176 0.86436 0.89547 0.0
H2209 H 0.35701 0.8686 0.85526 0.0
H2210 H 0.32304 0.84853 0.85873 0.0
H2211 H 0.37141 0.90655 0.8634 0.0
H2212 H 0.39509 0.83208 0.8671 0.0
H2213 H 0.39838 0.79574 0.8772 0.0
H2214 H 0.43021 0.82464 0.90961 0.0
H2215 H 0.42682 0.86122 0.89979 0.0
C2216 C 0.47424 0.93027 0.85106 0.0
C2217 C 0.48776 0.93661 0.86129 0.0
C2218 C 0.45418 0.91997 0.85338 0.0
C2219 C 0.44734 0.91573 0.86594 0.0
C2220 C 0.46069 0.92217 0.87614 0.0
C2221 C 0.48062 0.93265 0.87385 0.0
C2222 C 0.42653 0.90405 0.86846 0.0
C2223 C 0.42734 0.88383 0.87481 0.0
C2224 C 0.40615 0.9123 0.86425 0.0
C2225 C 0.40423 0.93391 0.85786 0.0
C2226 C 0.41217 0.95295 0.8638 0.0
C2227 C 0.41042 0.97324 0.85769 0.0
C2228 C 0.40061 0.97471 0.84567 0.0
C2229 C 0.39248 0.9559 0.83975 0.0
C2230 C 0.39421 0.93557 0.84581 0.0
C2231 C 0.34191 0.84906 0.88941 0.0
C2232 C 0.32781 0.8444 0.87915 0.0
C2233 C 0.36128 0.86079 0.88739 0.0
C2234 C 0.36706 0.86781 0.87506 0.0
C2235 C 0.3529 0.86337 0.86485 0.0
C2236 C 0.33349 0.85182 0.86686 0.0
C2237 C 0.38787 0.87975 0.87276 0.0
C2238 C 0.3871 0.90002 0.86642 0.0
C2239 C 0.40833 0.87141 0.87686 0.0
C2240 C 0.41049 0.84942 0.88277 0.0
C2241 C 0.40264 0.83071 0.87643 0.0
C2242 C 0.40455 0.81006 0.88209 0.0
C2243 C 0.41444 0.80789 0.89405 0.0
C2244 C 0.42252 0.82635 0.90036 0.0
C2245 C 0.42062 0.84705 0.89474 0.0
H2246 H 0.4159 0.79189 0.89842 0.0
H2247 H 0.39926 0.99043 0.84095 0.0
H2248 H 0.28867 0.73922 0.35047 0.0
H2249 H 0.30623 0.77408 0.34546 0.0
H2250 H 0.31207 0.78828 0.38562 0.0
H2251 H 0.29454 0.75329 0.39078 0.0
H2252 H 0.29828 0.82444 0.37066 0.0
H2253 H 0.35495 0.76933 0.37083 0.0
H2254 H 0.37199 0.73453 0.3643 0.0
H2255 H 0.3723 0.75591 0.32523 0.0
H2256 H 0.35495 0.79074 0.33151 0.0
H2257 H 0.37995 0.90533 0.37179 0.0
H2258 H 0.35781 0.87258 0.37456 0.0
H2259 H 0.36309 0.85872 0.33431 0.0
H2260 H 0.38584 0.89144 0.33146 0.0
H2261 H 0.36943 0.82267 0.34783 0.0
H2262 H 0.31515 0.8785 0.34732 0.0
H2263 H 0.29752 0.91329 0.35333 0.0
H2264 H 0.2916 0.89096 0.39206 0.0
H2265 H 0.30948 0.85615 0.38633 0.0
C2266 C 0.29347 0.7498 0.35827 0.0
C2267 C 0.29031 0.74337 0.37105 0.0
C2268 C 0.30357 0.7697 0.35537 0.0
C2269 C 0.31063 0.78362 0.36517 0.0
C2270 C 0.30675 0.77771 0.37793 0.0
C2271 C 0.29679 0.75769 0.38085 0.0
C2272 C 0.32283 0.80392 0.36212 0.0
C2273 C 0.31394 0.8241 0.36578 0.0
C2274 C 0.34291 0.80342 0.3554 0.0
C2275 C 0.35343 0.78254 0.35162 0.0
C2276 C 0.35847 0.76654 0.36083 0.0
C2277 C 0.36822 0.74682 0.35718 0.0
C2278 C 0.37316 0.74298 0.34435 0.0
C2279 C 0.36843 0.75889 0.33516 0.0
C2280 C 0.35865 0.77863 0.33876 0.0
C2281 C 0.37638 0.89542 0.36347 0.0
C2282 C 0.38464 0.90109 0.35137 0.0
C2283 C 0.36357 0.87672 0.36508 0.0
C2284 C 0.35845 0.86337 0.35461 0.0
C2285 C 0.36676 0.86885 0.34252 0.0
C2286 C 0.37973 0.88756 0.3409 0.0
C2287 C 0.34503 0.84334 0.35648 0.0
C2288 C 0.35368 0.82314 0.3526 0.0
C2289 C 0.32463 0.84386 0.36291 0.0
C2290 C 0.31382 0.86477 0.36641 0.0
C2291 C 0.31024 0.88107 0.35714 0.0
C2292 C 0.30018 0.90078 0.36049 0.0
C2293 C 0.29349 0.90435 0.37307 0.0
C2294 C 0.29681 0.88818 0.38232 0.0
C2295 C 0.30688 0.86844 0.37902 0.0
H2296 H 0.2857 0.91962 0.37565 0.0
H2297 H 0.38071 0.72771 0.34154 0.0
H2298 H 0.32114 0.11886 0.62128 0.0
H2299 H 0.35529 0.09948 0.6255 0.0
H2300 H 0.3842 0.12861 0.59198 0.0
H2301 H 0.34993 0.14813 0.58762 0.0
H2302 H 0.37875 0.06961 0.61117 0.0
H2303 H 0.43831 0.14022 0.60019 0.0
H2304 H 0.43875 0.18062 0.59982 0.0
H2305 H 0.38843 0.18216 0.62841 0.0
H2306 H 0.38792 0.14181 0.62907 0.0
H2307 H 0.48982 0.03306 0.60856 0.0
H2308 H 0.45491 0.05078 0.60373 0.0
H2309 H 0.4568 0.08384 0.64005 0.0
H2310 H 0.4917 0.06613 0.64502 0.0
H2311 H 0.44673 0.11167 0.61969 0.0
H2312 H 0.42351 0.04231 0.63681 0.0
H2313 H 0.42264 0.00203 0.63828 0.0
H2314 H 0.39934 -0.0019 0.59968 0.0
H2315 H 0.40036 0.03837 0.59792 0.0
C2316 C 0.33471 0.12112 0.61475 0.0
C2317 C 0.33284 0.13515 0.60414 0.0
C2318 C 0.35418 0.10993 0.61716 0.0
C2319 C 0.37228 0.11271 0.60911 0.0
C2320 C 0.37043 0.12638 0.59837 0.0
C2321 C 0.35084 0.13746 0.59587 0.0
C2322 C 0.39322 0.10172 0.61223 0.0
C2323 C 0.39365 0.07879 0.61297 0.0
C2324 C 0.41255 0.11374 0.61474 0.0
C2325 C 0.41291 0.13801 0.61456 0.0
C2326 C 0.42739 0.1492 0.60642 0.0
C2327 C 0.42765 0.17208 0.60616 0.0
C2328 C 0.41357 0.18395 0.61406 0.0
C2329 C 0.39926 0.17296 0.62226 0.0
C2330 C 0.39896 0.15008 0.62257 0.0
C2331 C 0.48278 0.04402 0.61556 0.0
C2332 C 0.49355 0.04815 0.62719 0.0
C2333 C 0.46282 0.0541 0.61278 0.0
C2334 C 0.45329 0.06858 0.62154 0.0
C2335 C 0.46394 0.07274 0.63316 0.0
C2336 C 0.48381 0.0625 0.636 0.0
C2337 C 0.4323 0.07955 0.61853 0.0
C2338 C 0.43187 0.10248 0.6178 0.0
C2339 C 0.41293 0.06754 0.61614 0.0
C2340 C 0.41223 0.04334 0.61719 0.0
C2341 C 0.41838 0.03284 0.6286 0.0
C2342 C 0.41782 0.01002 0.62949 0.0
C2343 C 0.411 -0.00249 0.61907 0.0
C2344 C 0.40465 0.00781 0.60774 0.0
C2345 C 0.4052 0.03063 0.60679 0.0
H2346 H 0.41057 0.97983 0.61978 0.0
H2347 H 0.41378 0.20166 0.61383 0.0
H2348 H 0.09516 0.08914 0.83422 0.0
H2349 H 0.11595 0.12258 0.83868 0.0
H2350 H 0.10679 0.11256 0.87908 0.0
H2351 H 0.08617 0.07908 0.87475 0.0
H2352 H 0.09918 0.15612 0.87094 0.0
H2353 H 0.15383 0.09953 0.86701 0.0
H2354 H 0.17271 0.0691 0.8562 0.0
H2355 H 0.18843 0.11132 0.8247 0.0
H2356 H 0.16935 0.14194 0.83524 0.0
H2357 H 0.17658 0.23236 0.89418 0.0
H2358 H 0.15694 0.19821 0.89008 0.0
H2359 H 0.17346 0.20273 0.85013 0.0
H2360 H 0.19347 0.23657 0.85416 0.0
H2361 H 0.17712 0.16177 0.85801 0.0
H2362 H 0.12298 0.21804 0.86097 0.0
H2363 H 0.1034 0.24905 0.87077 0.0
H2364 H 0.08568 0.20859 0.90269 0.0
H2365 H 0.10543 0.17741 0.89317 0.0
C2366 C 0.09748 0.0941 0.84405 0.0
C2367 C 0.0891 0.08139 0.85413 0.0
C2368 C 0.10941 0.11316 0.84658 0.0
C2369 C 0.113 0.11992 0.85921 0.0
C2370 C 0.1042 0.10758 0.86927 0.0
C2371 C 0.09251 0.08841 0.86677 0.0
C2372 C 0.12625 0.13966 0.86198 0.0
C2373 C 0.1163 0.15729 0.86827 0.0
C2374 C 0.1484 0.14133 0.85818 0.0
C2375 C 0.15996 0.12296 0.85185 0.0
C2376 C 0.16115 0.10228 0.85773 0.0
C2377 C 0.17192 0.085 0.85166 0.0
C2378 C 0.18171 0.08825 0.83975 0.0
C2379 C 0.18081 0.10881 0.83391 0.0
C2380 C 0.17003 0.12614 0.83993 0.0
C2381 C 0.17623 0.22599 0.88454 0.0
C2382 C 0.1865 0.23731 0.87449 0.0
C2383 C 0.16488 0.20652 0.8822 0.0
C2384 C 0.1634 0.19812 0.86975 0.0
C2385 C 0.17431 0.20894 0.8598 0.0
C2386 C 0.18573 0.22833 0.86213 0.0
C2387 C 0.1501 0.17832 0.86702 0.0
C2388 C 0.16002 0.16066 0.86072 0.0
C2389 C 0.12782 0.17674 0.87067 0.0
C2390 C 0.11589 0.19545 0.87642 0.0
C2391 C 0.11506 0.2158 0.87013 0.0
C2392 C 0.10391 0.2334 0.87563 0.0
C2393 C 0.09336 0.23081 0.88736 0.0
C2394 C 0.09389 0.21059 0.89361 0.0
C2395 C 0.10505 0.19294 0.88817 0.0
H2396 H 0.08472 0.24446 0.8916 0.0
H2397 H 0.19005 0.07486 0.83507 0.0
H2398 H 0.13913 0.84824 0.08287 0.0
H2399 H 0.105 0.86893 0.08551 0.0
H2400 H 0.11086 0.86334 0.12641 0.0
H2401 H 0.14488 0.84292 0.12391 0.0
H2402 H 0.06876 0.85338 0.11704 0.0
H2403 H 0.12426 0.90961 0.11309 0.0
H2404 H 0.15473 0.92864 0.10234 0.0
H2405 H 0.11381 0.94092 0.06977 0.0
H2406 H 0.08317 0.92167 0.08027 0.0
H2407 H -0.00578 0.93068 0.14064 0.0
H2408 H 0.02811 0.91129 0.13573 0.0
H2409 H 0.01995 0.92636 0.09577 0.0
H2410 H 0.98613 0.94603 0.10059 0.0
H2411 H 0.06223 0.93071 0.10296 0.0
H2412 H 0.00642 0.87666 0.1065 0.0
H2413 H 0.97539 0.85719 0.11638 0.0
H2414 H 0.01579 0.83968 0.14835 0.0
H2415 H 0.047 0.85936 0.13874 0.0
C2416 C 0.13312 0.8514 0.09242 0.0
C2417 C 0.14476 0.84399 0.10318 0.0
C2418 C 0.11368 0.86325 0.09391 0.0
C2419 C 0.1055 0.8677 0.10616 0.0
C2420 C 0.1169 0.86005 0.11688 0.0
C2421 C 0.13641 0.84847 0.11542 0.0
C2422 C 0.08511 0.88043 0.10792 0.0
C2423 C 0.06737 0.87034 0.11407 0.0
C2424 C 0.08313 0.90233 0.10368 0.0
C2425 C 0.10151 0.91398 0.0974 0.0
C2426 C 0.12182 0.91619 0.10359 0.0
C2427 C 0.13911 0.92706 0.09755 0.0
C2428 C 0.13623 0.93593 0.08536 0.0
C2429 C 0.11603 0.93401 0.0792 0.0
C2430 C 0.0987 0.92313 0.08519 0.0
C2431 C -0.0003 0.93008 0.13081 0.0
C2432 C 0.98734 0.93979 0.121 0.0
C2433 C 0.01904 0.91889 0.12802 0.0
C2434 C 0.02635 0.91707 0.11535 0.0
C2435 C 0.01455 0.92748 0.1056 0.0
C2436 C -0.00481 0.93869 0.10838 0.0
C2437 C 0.04597 0.90378 0.1123 0.0
C2438 C 0.06353 0.91371 0.10587 0.0
C2439 C 0.0477 0.88162 0.11615 0.0
C2440 C 0.029 0.86967 0.12195 0.0
C2441 C 0.00865 0.86881 0.11568 0.0
C2442 C -0.00897 0.8577 0.12123 0.0
C2443 C -0.0064 0.84724 0.133 0.0
C2444 C 0.01381 0.84781 0.13924 0.0
C2445 C 0.03148 0.85893 0.13374 0.0
H2446 H 0.97994 0.83865 0.13728 0.0
H2447 H 0.14964 0.94433 0.08071 0.0
H2448 H 0.68645 0.73684 0.85337 0.0
H2449 H 0.66788 0.77153 0.84959 0.0
H2450 H 0.66437 0.78274 0.8902 0.0
H2451 H 0.68242 0.74762 0.89409 0.0
H2452 H 0.6265 0.79139 0.87967 0.0
H2453 H 0.70065 0.81125 0.87039 0.0
H2454 H 0.73675 0.80807 0.86005 0.0
H2455 H 0.70688 0.81624 0.82324 0.0
H2456 H 0.67054 0.81919 0.83335 0.0
H2457 H 0.59694 0.90326 0.87681 0.0
H2458 H 0.61718 0.86932 0.88007 0.0
H2459 H 0.61254 0.855 0.83987 0.0
H2460 H 0.59219 0.88908 0.83646 0.0
H2461 H 0.65448 0.8482 0.84994 0.0
H2462 H 0.58022 0.82848 0.85967 0.0
H2463 H 0.54449 0.83231 0.87037 0.0
H2464 H 0.57543 0.8246 0.90691 0.0
H2465 H 0.61141 0.82104 0.89643 0.0
C2466 C 0.68192 0.74674 0.86152 0.0
C2467 C 0.68597 0.73944 0.87404 0.0
C2468 C 0.67136 0.76666 0.85933 0.0
C2469 C 0.66495 0.77992 0.8696 0.0
C2470 C 0.66918 0.7728 0.88212 0.0
C2471 C 0.67956 0.75275 0.88433 0.0
C2472 C 0.65308 0.80077 0.86728 0.0
C2473 C 0.63282 0.80395 0.87332 0.0
C2474 C 0.661 0.81694 0.85874 0.0
C2475 C 0.68285 0.81523 0.85263 0.0
C2476 C 0.70175 0.8122 0.86008 0.0
C2477 C 0.72227 0.81047 0.85426 0.0
C2478 C 0.7241 0.8119 0.84099 0.0
C2479 C 0.70543 0.81512 0.83352 0.0
C2480 C 0.68488 0.81684 0.83929 0.0
C2481 C 0.6002 0.89295 0.86863 0.0
C2482 C 0.59286 0.89888 0.85636 0.0
C2483 C 0.61173 0.87351 0.87053 0.0
C2484 C 0.61618 0.85958 0.86023 0.0
C2485 C 0.60922 0.86554 0.84794 0.0
C2486 C 0.59753 0.88497 0.84602 0.0
C2487 C 0.62807 0.83876 0.86238 0.0
C2488 C 0.64826 0.83561 0.85629 0.0
C2489 C 0.62017 0.82267 0.87094 0.0
C2490 C 0.59854 0.8247 0.87727 0.0
C2491 C 0.57943 0.82778 0.86999 0.0
C2492 C 0.55913 0.82987 0.87601 0.0
C2493 C 0.5577 0.82875 0.88931 0.0
C2494 C 0.57656 0.82549 0.89661 0.0
C2495 C 0.59691 0.82341 0.89063 0.0
H2496 H 0.54196 0.83037 0.89396 0.0
H2497 H 0.74 0.81055 0.83651 0.0
H2498 H 0.98877 0.93804 0.60275 0.0
H2499 H 0.95347 0.92032 0.59966 0.0
H2500 H 0.94463 0.9165 0.64047 0.0
H2501 H 0.9804 0.9337 0.64366 0.0
H2502 H 0.93469 0.87896 0.63014 0.0
H2503 H 0.91512 0.95311 0.62133 0.0
H2504 H 0.918 0.98942 0.61116 0.0
H2505 H 0.90804 0.96035 0.57432 0.0
H2506 H 0.90539 0.92381 0.58425 0.0
H2507 H 0.82269 0.8483 0.62724 0.0
H2508 H 0.85644 0.86877 0.63078 0.0
H2509 H 0.87102 0.86574 0.59055 0.0
H2510 H 0.83715 0.84521 0.58686 0.0
H2511 H 0.87728 0.90726 0.60097 0.0
H2512 H 0.89715 0.83268 0.61052 0.0
H2513 H 0.89343 0.79698 0.62134 0.0
H2514 H 0.90182 0.8281 0.65775 0.0
H2515 H 0.90522 0.86403 0.64716 0.0
C2516 C 0.97926 0.93367 0.6111 0.0
C2517 C 0.98744 0.93733 0.62347 0.0
C2518 C 0.95898 0.9236 0.6093 0.0
C2519 C 0.94622 0.91729 0.61983 0.0
C2520 C 0.95417 0.92123 0.6322 0.0
C2521 C 0.97459 0.93114 0.63401 0.0
C2522 C 0.92511 0.90565 0.61788 0.0
C2523 C 0.922 0.88536 0.62393 0.0
C2524 C 0.9087 0.91372 0.60955 0.0
C2525 C 0.91025 0.93569 0.60354 0.0
C2526 C 0.91371 0.95443 0.61105 0.0
C2527 C 0.91527 0.97506 0.60533 0.0
C2528 C 0.91326 0.97718 0.5921 0.0
C2529 C 0.90962 0.95868 0.58457 0.0
C2530 C 0.90806 0.93801 0.59024 0.0
C2531 C 0.83303 0.85196 0.61912 0.0
C2532 C 0.82722 0.84503 0.60676 0.0
C2533 C 0.85236 0.86362 0.62118 0.0
C2534 C 0.8663 0.86859 0.61095 0.0
C2535 C 0.86047 0.86201 0.59858 0.0
C2536 C 0.84115 0.85022 0.5965 0.0
C2537 C 0.88699 0.88066 0.61321 0.0
C2538 C 0.88999 0.90098 0.60721 0.0
C2539 C 0.9032 0.87273 0.62168 0.0
C2540 C 0.90123 0.85109 0.62805 0.0
C2541 C 0.89801 0.83194 0.62084 0.0
C2542 C 0.89599 0.81165 0.62693 0.0
C2543 C 0.89735 0.81029 0.64022 0.0
C2544 C 0.90075 0.82919 0.64745 0.0
C2545 C 0.90273 0.84951 0.64141 0.0
H2546 H 0.89583 0.79458 0.64493 0.0
H2547 H 0.91447 -0.00683 0.58769 0.0
H2548 H 0.79129 0.23945 0.35241 0.0
H2549 H 0.80972 0.20474 0.34862 0.0
H2550 H 0.8137 0.19348 0.38923 0.0
H2551 H 0.7958 0.22866 0.39313 0.0
H2552 H 0.85154 0.18551 0.37873 0.0
H2553 H 0.77798 0.16413 0.36935 0.0
H2554 H 0.74175 0.16656 0.35907 0.0
H2555 H 0.77161 0.15964 0.3222 0.0
H2556 H 0.80806 0.15746 0.33225 0.0
H2557 H 0.8856 0.07491 0.37423 0.0
H2558 H 0.86417 0.10787 0.37818 0.0
H2559 H 0.86679 0.12411 0.33813 0.0
H2560 H 0.88826 0.091 0.33403 0.0
H2561 H 0.82515 0.12883 0.34853 0.0
H2562 H 0.89884 0.15091 0.35832 0.0
H2563 H 0.93475 0.14792 0.36893 0.0
H2564 H 0.90376 0.15283 0.4056 0.0
H2565 H 0.86761 0.15554 0.39521 0.0
C2566 C 0.79582 0.2295 0.36056 0.0
C2567 C 0.79206 0.23686 0.37309 0.0
C2568 C 0.8063 0.20957 0.35836 0.0
C2569 C 0.8129 0.19633 0.36863 0.0
C2570 C 0.80876 0.20341 0.38115 0.0
C2571 C 0.79846 0.22349 0.38337 0.0
C2572 C 0.82519 0.17574 0.36629 0.0
C2573 C 0.84555 0.17296 0.3723 0.0
C2574 C 0.81769 0.15957 0.35763 0.0
C2575 C 0.79578 0.16082 0.35155 0.0
C2576 C 0.77684 0.16329 0.35904 0.0
C2577 C 0.75626 0.1646 0.35326 0.0
C2578 C 0.75439 0.16331 0.33999 0.0
C2579 C 0.77309 0.16066 0.33247 0.0
C2580 C 0.79371 0.15936 0.33821 0.0
C2581 C 0.88167 0.08545 0.36623 0.0
C2582 C 0.88873 0.08032 0.3538 0.0
C2583 C 0.86945 0.10433 0.36853 0.0
C2584 C 0.86405 0.11851 0.35847 0.0
C2585 C 0.87082 0.11337 0.34603 0.0
C2586 C 0.88317 0.0945 0.34371 0.0
C2587 C 0.85136 0.13871 0.36099 0.0
C2588 C 0.831 0.1414 0.355 0.0
C2589 C 0.85876 0.15473 0.36973 0.0
C2590 C 0.8805 0.15321 0.37599 0.0
C2591 C 0.89966 0.15117 0.36865 0.0
C2592 C 0.92006 0.14956 0.37462 0.0
C2593 C 0.92153 0.15013 0.38793 0.0
C2594 C 0.9026 0.15236 0.39529 0.0
C2595 C 0.88215 0.15396 0.38937 0.0
H2596 H 0.93734 0.14888 0.39254 0.0
H2597 H 0.73844 0.16433 0.33552 0.0
H2598 H 0.63525 0.1356 0.08178 0.0
H2599 H 0.60164 0.1142 0.08435 0.0
H2600 H 0.6161 0.10535 0.12434 0.0
H2601 H 0.64979 0.12622 0.12183 0.0
H2602 H 0.60179 0.06825 0.11449 0.0
H2603 H 0.57859 0.14359 0.11382 0.0
H2604 H 0.57529 0.18082 0.10489 0.0
H2605 H 0.5427 0.15506 0.07183 0.0
H2606 H 0.54608 0.11762 0.0805 0.0
H2607 H 0.49669 0.04399 0.14007 0.0
H2608 H 0.5319 0.06051 0.13452 0.0
H2609 H 0.51377 0.06047 0.09473 0.0
H2610 H 0.47853 0.04392 0.10016 0.0
H2611 H 0.52997 0.10035 0.10275 0.0
H2612 H 0.55079 0.02492 0.10471 0.0
H2613 H 0.5536 0.98816 0.11431 0.0
H2614 H 0.59023 0.01462 0.1457 0.0
H2615 H 0.58736 0.05161 0.13637 0.0
C2616 C 0.6313 0.12905 0.09111 0.0
C2617 C 0.64519 0.13274 0.10161 0.0
C2618 C 0.61205 0.11687 0.09257 0.0
C2619 C 0.60622 0.10837 0.10458 0.0
C2620 C 0.62025 0.11172 0.11499 0.0
C2621 C 0.6395 0.12375 0.11353 0.0
C2622 C 0.58536 0.09627 0.10644 0.0
C2623 C 0.58607 0.07535 0.11201 0.0
C2624 C 0.56487 0.10531 0.10296 0.0
C2625 C 0.56281 0.12779 0.09774 0.0
C2626 C 0.57088 0.14585 0.1046 0.0
C2627 C 0.56897 0.16699 0.09959 0.0
C2628 C 0.55885 0.1703 0.08778 0.0
C2629 C 0.55058 0.15247 0.08097 0.0
C2630 C 0.55247 0.13129 0.08592 0.0
C2631 C 0.50023 0.04733 0.13012 0.0
C2632 C 0.48477 0.04262 0.12056 0.0
C2633 C 0.5204 0.05671 0.12697 0.0
C2634 C 0.52547 0.0616 0.11421 0.0
C2635 C 0.51017 0.05679 0.10463 0.0
C2636 C 0.49007 0.04726 0.10776 0.0
C2637 C 0.54642 0.0725 0.11093 0.0
C2638 C 0.54571 0.09318 0.1051 0.0
C2639 C 0.56688 0.06332 0.11427 0.0
C2640 C 0.56869 0.04108 0.11989 0.0
C2641 C 0.55929 0.02294 0.11371 0.0
C2642 C 0.56092 0.00205 0.11909 0.0
C2643 C 0.57204 -0.00094 0.13062 0.0
C2644 C 0.5816 0.01696 0.13677 0.0
C2645 C 0.58 0.03789 0.13143 0.0
H2646 H 0.57329 0.98288 0.13477 0.0
H2647 H 0.55738 0.18668 0.08393 0.0
H2648 H 0.6669 0.24391 0.5914 0.0
H2649 H 0.64833 0.20951 0.59638 0.0
H2650 H 0.69681 0.19553 0.62526 0.0
H2651 H 0.71469 0.23051 0.62078 0.0
H2652 H 0.65592 0.16907 0.59556 0.0
H2653 H 0.67557 0.16795 0.64984 0.0
H2654 H 0.68282 0.19414 0.66726 0.0
H2655 H 0.64715 0.24392 0.64711 0.0
H2656 H 0.63946 0.21796 0.62966 0.0
H2657 H 0.62339 0.06606 0.61882 0.0
H2658 H 0.64428 0.0991 0.61387 0.0
H2659 H 0.60027 0.13714 0.63724 0.0
H2660 H 0.5802 0.10381 0.64283 0.0
H2661 H 0.63782 0.15223 0.64068 0.0
H2662 H 0.5978 0.13502 0.60291 0.0
H2663 H 0.58467 0.11216 0.58509 0.0
H2664 H 0.65057 0.10495 0.5715 0.0
H2665 H 0.66412 0.12755 0.58933 0.0
C2666 C 0.6737 0.2334 0.59874 0.0
C2667 C 0.69211 0.23998 0.6058 0.0
C2668 C 0.66307 0.21372 0.60158 0.0
C2669 C 0.67085 0.20008 0.6114 0.0
C2670 C 0.69006 0.20604 0.61791 0.0
C2671 C 0.70038 0.22596 0.61528 0.0
C2672 C 0.65849 0.18001 0.61504 0.0
C2673 C 0.65199 0.1654 0.60543 0.0
C2674 C 0.65279 0.1754 0.62789 0.0
C2675 C 0.65716 0.19107 0.63839 0.0
C2676 C 0.66922 0.18447 0.64916 0.0
C2677 C 0.67341 0.19927 0.65903 0.0
C2678 C 0.66551 0.2207 0.65827 0.0
C2679 C 0.65333 0.22734 0.64766 0.0
C2680 C 0.64907 0.2126 0.63777 0.0
C2681 C 0.61828 0.08147 0.62295 0.0
C2682 C 0.60012 0.08242 0.63115 0.0
C2683 C 0.63013 0.10039 0.62005 0.0
C2684 C 0.62359 0.12079 0.62491 0.0
C2685 C 0.60568 0.12165 0.63333 0.0
C2686 C 0.59417 0.10261 0.63651 0.0
C2687 C 0.63529 0.14122 0.62119 0.0
C2688 C 0.64175 0.15588 0.6308 0.0
C2689 C 0.64007 0.14637 0.60828 0.0
C2690 C 0.63199 0.1328 0.59753 0.0
C2691 C 0.6095 0.12844 0.59617 0.0
C2692 C 0.60199 0.11554 0.58606 0.0
C2693 C 0.61678 0.10706 0.57719 0.0
C2694 C 0.63913 0.11151 0.57839 0.0
C2695 C 0.64673 0.12437 0.58849 0.0
H2696 H 0.61093 0.09708 0.56937 0.0
H2697 H 0.66879 0.23214 0.66592 0.0
H2698 H 0.50118 0.93145 0.33768 0.0
H2699 H 0.53614 0.91332 0.34182 0.0
H2700 H 0.52481 0.9182 0.38237 0.0
H2701 H 0.49018 0.9368 0.37834 0.0
H2702 H 0.56601 0.92707 0.37733 0.0
H2703 H 0.51572 0.87008 0.3658 0.0
H2704 H 0.48849 0.85135 0.35229 0.0
H2705 H 0.53538 0.847 0.32188 0.0
H2706 H 0.56281 0.86598 0.33516 0.0
H2707 H 0.64193 0.84546 0.3977 0.0
H2708 H 0.60821 0.86572 0.39325 0.0
H2709 H 0.62362 0.86593 0.35308 0.0
H2710 H 0.65728 0.8457 0.3574 0.0
H2711 H 0.58076 0.85463 0.35779 0.0
H2712 H 0.63134 0.91122 0.37009 0.0
H2713 H 0.6582 0.92921 0.38418 0.0
H2714 H 0.61006 0.93324 0.41394 0.0
H2715 H 0.583 0.91499 0.40008 0.0
C2716 C 0.50618 0.92879 0.34748 0.0
C2717 C 0.4928 0.93548 0.35767 0.0
C2718 C 0.52613 0.91832 0.34983 0.0
C2719 C 0.53294 0.91406 0.36241 0.0
C2720 C 0.51989 0.92126 0.37259 0.0
C2721 C 0.50005 0.93187 0.37025 0.0
C2722 C 0.55345 0.90179 0.365 0.0
C2723 C 0.56911 0.91111 0.37317 0.0
C2724 C 0.55768 0.88112 0.35942 0.0
C2725 C 0.54124 0.86965 0.35143 0.0
C2726 C 0.52017 0.86528 0.3562 0.0
C2727 C 0.50471 0.85459 0.34859 0.0
C2728 C 0.51018 0.84804 0.33622 0.0
C2729 C 0.53115 0.85211 0.33145 0.0
C2730 C 0.54667 0.86282 0.33902 0.0
C2731 C 0.63815 0.8498 0.38792 0.0
C2732 C 0.65235 0.844 0.37791 0.0
C2733 C 0.61892 0.86145 0.3854 0.0
C2734 C 0.61353 0.86746 0.37285 0.0
C2735 C 0.6275 0.86146 0.36284 0.0
C2736 C 0.64677 0.84996 0.36534 0.0
C2737 C 0.59325 0.87991 0.3701 0.0
C2738 C 0.57764 0.8706 0.36192 0.0
C2739 C 0.58899 0.90049 0.37575 0.0
C2740 C 0.60521 0.91154 0.38408 0.0
C2741 C 0.62654 0.91578 0.37967 0.0
C2742 C 0.64179 0.92605 0.38761 0.0
C2743 C 0.63586 0.93231 0.39996 0.0
C2744 C 0.61464 0.92836 0.40438 0.0
C2745 C 0.59934 0.91806 0.39648 0.0
H2746 H 0.64769 0.94027 0.40609 0.0
H2747 H 0.49819 0.83977 0.33034 0.0
H2748 H 0.78107 0.74463 0.12702 0.0
H2749 H 0.79872 0.77974 0.13148 0.0
H2750 H 0.83103 0.77744 0.09492 0.0
H2751 H 0.81336 0.74236 0.09032 0.0
H2752 H 0.85924 0.78814 0.11518 0.0
H2753 H 0.78942 0.81026 0.09806 0.0
H2754 H 0.74912 0.81068 0.09683 0.0
H2755 H 0.7456 0.83499 0.13522 0.0
H2756 H 0.7859 0.83443 0.13673 0.0
H2757 H 0.86539 0.91355 0.11137 0.0
H2758 H 0.84609 0.87907 0.10798 0.0
H2759 H 0.87607 0.85216 0.1418 0.0
H2760 H 0.89554 0.88675 0.14532 0.0
H2761 H 0.81672 0.85604 0.12291 0.0
H2762 H 0.8878 0.7976 0.13453 0.0
H2763 H 0.92819 0.79764 0.13493 0.0
H2764 H 0.92935 0.84684 0.10562 0.0
H2765 H 0.889 0.84685 0.10492 0.0
C2766 C 0.79184 0.75162 0.11989 0.0
C2767 C 0.79577 0.7407 0.1083 0.0
C2768 C 0.80189 0.7717 0.12246 0.0
C2769 C 0.81616 0.78116 0.11353 0.0
C2770 C 0.82011 0.77035 0.10195 0.0
C2771 C 0.80989 0.75038 0.09931 0.0
C2772 C 0.82702 0.80232 0.11628 0.0
C2773 C 0.84996 0.80298 0.11691 0.0
C2774 C 0.81488 0.82166 0.11847 0.0
C2775 C 0.79066 0.82209 0.11755 0.0
C2776 C 0.78005 0.81552 0.10628 0.0
C2777 C 0.75721 0.81582 0.10552 0.0
C2778 C 0.7448 0.8228 0.11595 0.0
C2779 C 0.75523 0.82956 0.12715 0.0
C2780 C 0.77807 0.82927 0.12796 0.0
C2781 C 0.86784 0.90036 0.11814 0.0
C2782 C 0.88211 0.90287 0.12858 0.0
C2783 C 0.8567 0.8807 0.11621 0.0
C2784 C 0.85977 0.86305 0.12458 0.0
C2785 C 0.87362 0.86557 0.13518 0.0
C2786 C 0.88467 0.88535 0.13719 0.0
C2787 C 0.84894 0.84184 0.1219 0.0
C2788 C 0.826 0.84116 0.1213 0.0
C2789 C 0.86109 0.82252 0.11964 0.0
C2790 C 0.88538 0.82238 0.11978 0.0
C2791 C 0.89669 0.80836 0.12814 0.0
C2792 C 0.91957 0.80838 0.12842 0.0
C2793 C 0.93133 0.82229 0.12033 0.0
C2794 C 0.92022 0.83614 0.11191 0.0
C2795 C 0.89734 0.83615 0.11158 0.0
H2796 H 0.94904 0.82228 0.12057 0.0
H2797 H 0.72712 0.82302 0.11534 0.0
H2798 H 0.98506 0.05902 0.83804 0.0
H2799 H 0.95027 0.07724 0.84267 0.0
H2800 H 0.94451 0.04046 0.87767 0.0
H2801 H 0.97925 0.02223 0.87318 0.0
H2802 H 0.90491 0.04405 0.86453 0.0
H2803 H 0.96357 0.09002 0.87946 0.0
H2804 H -0.00197 0.11074 0.87732 0.0
H2805 H 0.96902 0.15095 0.84823 0.0
H2806 H 0.93447 0.13023 0.85007 0.0
H2807 H 0.84555 0.14422 0.89489 0.0
H2808 H 0.87861 0.12272 0.89068 0.0
H2809 H 0.84977 0.09819 0.85595 0.0
H2810 H 0.81676 0.1195 0.86004 0.0
H2811 H 0.90697 0.12469 0.8702 0.0
H2812 H 0.86646 0.04486 0.85225 0.0
H2813 H 0.83245 0.02378 0.85551 0.0
H2814 H 0.82583 0.05088 0.89311 0.0
H2815 H 0.85995 0.07187 0.89014 0.0
C2816 C 0.97624 0.05456 0.84663 0.0
C2817 C 0.985 0.03928 0.85529 0.0
C2818 C 0.95642 0.06505 0.84928 0.0
C2819 C 0.94498 0.06034 0.86058 0.0
C2820 C 0.95313 0.04433 0.86892 0.0
C2821 C 0.97302 0.034 0.86634 0.0
C2822 C 0.92514 0.07291 0.86407 0.0
C2823 C 0.90531 0.06168 0.86572 0.0
C2824 C 0.92582 0.09585 0.86587 0.0
C2825 C 0.94651 0.10844 0.86481 0.0
C2826 C 0.9646 0.10317 0.87254 0.0
C2827 C 0.98413 0.11493 0.87139 0.0
C2828 C 0.98573 0.13212 0.86263 0.0
C2829 C 0.96777 0.13761 0.85501 0.0
C2830 C 0.9482 0.12588 0.8561 0.0
C2831 C 0.84621 0.13418 0.88638 0.0
C2832 C 0.82849 0.13358 0.87781 0.0
C2833 C 0.86513 0.12198 0.88397 0.0
C2834 C 0.86656 0.10877 0.87305 0.0
C2835 C 0.84891 0.1081 0.8645 0.0
C2836 C 0.83008 0.12038 0.86685 0.0
C2837 C 0.88661 0.09589 0.87045 0.0
C2838 C 0.90652 0.10707 0.86897 0.0
C2839 C 0.88603 0.07287 0.86895 0.0
C2840 C 0.86565 0.0601 0.87091 0.0
C2841 C 0.85779 0.04625 0.86123 0.0
C2842 C 0.83849 0.03433 0.86303 0.0
C2843 C 0.82695 0.03605 0.8745 0.0
C2844 C 0.83474 0.04963 0.88421 0.0
C2845 C 0.85404 0.06157 0.88247 0.0
H2846 H 0.812 0.02682 0.87587 0.0
H2847 H 0.00087 0.14121 0.86175 0.0
H2848 H 0.78785 0.74071 0.63051 0.0
H2849 H 0.80758 0.70651 0.634 0.0
H2850 H 0.81417 0.6979 0.59334 0.0
H2851 H 0.79448 0.73229 0.5897 0.0
H2852 H 0.80281 0.65897 0.60689 0.0
H2853 H 0.85595 0.717 0.60838 0.0
H2854 H 0.87101 0.75228 0.61571 0.0
H2855 H 0.87297 0.72824 0.65423 0.0
H2856 H 0.85761 0.69291 0.64716 0.0
H2857 H 0.88656 0.57927 0.60758 0.0
H2858 H 0.86511 0.61226 0.60373 0.0
H2859 H 0.86594 0.62674 0.64402 0.0
H2860 H 0.8879 0.59393 0.64795 0.0
H2861 H 0.87314 0.66279 0.63053 0.0
H2862 H 0.82031 0.60486 0.62939 0.0
H2863 H 0.8047 0.56962 0.62242 0.0
H2864 H 0.80136 0.59319 0.58383 0.0
H2865 H 0.81725 0.62849 0.59054 0.0
C2866 C 0.79325 0.73148 0.62227 0.0
C2867 C 0.78969 0.73933 0.60981 0.0
C2868 C 0.8046 0.71196 0.62431 0.0
C2869 C 0.81253 0.69985 0.61393 0.0
C2870 C 0.80822 0.70709 0.60147 0.0
C2871 C 0.79701 0.72675 0.59941 0.0
C2872 C 0.82605 0.68011 0.61617 0.0
C2873 C 0.81833 0.65978 0.61191 0.0
C2874 C 0.84602 0.68121 0.62299 0.0
C2875 C 0.85542 0.70238 0.62726 0.0
C2876 C 0.85942 0.7193 0.61843 0.0
C2877 C 0.86804 0.73929 0.62254 0.0
C2878 C 0.87288 0.74251 0.63543 0.0
C2879 C 0.86918 0.72572 0.64425 0.0
C2880 C 0.86053 0.70571 0.64019 0.0
C2881 C 0.88222 0.58945 0.61565 0.0
C2882 C 0.88888 0.58387 0.62809 0.0
C2883 C 0.86985 0.60827 0.61342 0.0
C2884 C 0.86358 0.62179 0.62361 0.0
C2885 C 0.87051 0.6165 0.63602 0.0
C2886 C 0.88304 0.59772 0.63825 0.0
C2887 C 0.84992 0.6415 0.62128 0.0
C2888 C 0.85762 0.66188 0.62552 0.0
C2889 C 0.82987 0.64041 0.6145 0.0
C2890 C 0.82017 0.61925 0.61045 0.0
C2891 C 0.8164 0.60248 0.6194 0.0
C2892 C 0.80748 0.5825 0.6155 0.0
C2893 C 0.8021 0.57914 0.60268 0.0
C2894 C 0.80557 0.5958 0.59375 0.0
C2895 C 0.81451 0.6158 0.5976 0.0
H2896 H 0.79521 0.56366 0.59968 0.0
H2897 H 0.87955 0.75799 0.63859 0.0
H2898 H 0.6415 0.63193 0.89855 0.0
H2899 H 0.60784 0.61098 0.89487 0.0
H2900 H 0.62198 0.60887 0.85457 0.0
H2901 H 0.65549 0.62966 0.8581 0.0
H2902 H 0.57949 0.62128 0.85968 0.0
H2903 H 0.62991 0.56444 0.87219 0.0
H2904 H 0.65671 0.54661 0.8864 0.0
H2905 H 0.60871 0.54353 0.91628 0.0
H2906 H 0.5817 0.56164 0.9023 0.0
H2907 H 0.49939 0.54568 0.83968 0.0
H2908 H 0.53474 0.56303 0.84387 0.0
H2909 H 0.52347 0.55742 0.88441 0.0
H2910 H 0.48851 0.53948 0.88031 0.0
H2911 H 0.5646 0.54902 0.87955 0.0
H2912 H 0.51444 0.60597 0.86796 0.0
H2913 H 0.48714 0.62472 0.85449 0.0
H2914 H 0.5338 0.62905 0.82394 0.0
H2915 H 0.5613 0.61005 0.83718 0.0
C2916 C 0.63747 0.62695 0.88891 0.0
C2917 C 0.65121 0.63248 0.87863 0.0
C2918 C 0.61829 0.61492 0.88684 0.0
C2919 C 0.6125 0.60831 0.87445 0.0
C2920 C 0.62615 0.61383 0.86419 0.0
C2921 C 0.64535 0.62567 0.86626 0.0
C2922 C 0.59199 0.59603 0.87205 0.0
C2923 C 0.57633 0.60535 0.86389 0.0
C2924 C 0.58766 0.57556 0.87784 0.0
C2925 C 0.60386 0.5646 0.88624 0.0
C2926 C 0.62512 0.56013 0.88183 0.0
C2927 C 0.64034 0.54994 0.88983 0.0
C2928 C 0.63443 0.544 0.90225 0.0
C2929 C 0.61327 0.54818 0.90667 0.0
C2930 C 0.598 0.55839 0.8987 0.0
C2931 C 0.50452 0.54796 0.84948 0.0
C2932 C 0.49104 0.54132 0.85965 0.0
C2933 C 0.52469 0.55799 0.85187 0.0
C2934 C 0.53158 0.56192 0.86447 0.0
C2935 C 0.51849 0.55462 0.87462 0.0
C2936 C 0.49846 0.5444 0.87224 0.0
C2937 C 0.55209 0.5742 0.86709 0.0
C2938 C 0.56773 0.56493 0.87532 0.0
C2939 C 0.55633 0.59488 0.86148 0.0
C2940 C 0.53985 0.60639 0.85352 0.0
C2941 C 0.51883 0.61078 0.85834 0.0
C2942 C 0.50333 0.62147 0.85075 0.0
C2943 C 0.50871 0.62802 0.83836 0.0
C2944 C 0.52964 0.62394 0.83354 0.0
C2945 C 0.5452 0.61322 0.84108 0.0
H2946 H 0.49669 0.6363 0.8325 0.0
H2947 H 0.64624 0.53611 0.90844 0.0
H2948 H 0.59569 0.40807 0.10827 0.0
H2949 H 0.61502 0.37405 0.10365 0.0
H2950 H 0.61314 0.35669 0.14356 0.0
H2951 H 0.59387 0.39083 0.14832 0.0
H2952 H 0.6536 0.34958 0.13282 0.0
H2953 H 0.57846 0.33284 0.12309 0.0
H2954 H 0.54276 0.33862 0.11263 0.0
H2955 H 0.57304 0.33263 0.07582 0.0
H2956 H 0.609 0.32712 0.08606 0.0
H2957 H 0.68019 0.23746 0.12841 0.0
H2958 H 0.66297 0.27275 0.13228 0.0
H2959 H 0.66079 0.28514 0.09174 0.0
H2960 H 0.67756 0.24941 0.08773 0.0
H2961 H 0.62308 0.29558 0.10226 0.0
H2962 H 0.698 0.31147 0.11166 0.0
H2963 H 0.73399 0.30617 0.12186 0.0
H2964 H 0.70485 0.31436 0.15883 0.0
H2965 H 0.66862 0.31942 0.14886 0.0
C2966 C 0.59936 0.39706 0.11609 0.0
C2967 C 0.59313 0.40217 0.12867 0.0
C2968 C 0.61037 0.37757 0.11341 0.0
C2969 C 0.61532 0.36275 0.12324 0.0
C2970 C 0.60943 0.36791 0.13583 0.0
C2971 C 0.59835 0.38739 0.13853 0.0
C2972 C 0.62666 0.34188 0.12036 0.0
C2973 C 0.64683 0.33762 0.12626 0.0
C2974 C 0.61809 0.32662 0.11152 0.0
C2975 C 0.59646 0.32979 0.10534 0.0
C2976 C 0.57754 0.33293 0.11276 0.0
C2977 C 0.55725 0.33613 0.10687 0.0
C2978 C 0.55564 0.33605 0.09357 0.0
C2979 C 0.57432 0.33272 0.08612 0.0
C2980 C 0.59465 0.32954 0.09197 0.0
C2981 C 0.67621 0.24771 0.12029 0.0
C2982 C 0.68034 0.24059 0.10775 0.0
C2983 C 0.66643 0.26797 0.12253 0.0
C2984 C 0.66086 0.28178 0.11232 0.0
C2985 C 0.665 0.27478 0.09978 0.0
C2986 C 0.67464 0.25438 0.09751 0.0
C2987 C 0.65007 0.30316 0.11476 0.0
C2988 C 0.62996 0.30754 0.10878 0.0
C2989 C 0.65877 0.31859 0.12348 0.0
C2990 C 0.68056 0.31564 0.12951 0.0
C2991 C 0.69924 0.31198 0.12197 0.0
C2992 C 0.71969 0.30905 0.12771 0.0
C2993 C 0.7217 0.30987 0.14099 0.0
C2994 C 0.70327 0.3137 0.14855 0.0
C2995 C 0.68277 0.31663 0.14286 0.0
H2996 H 0.73755 0.3076 0.14541 0.0
H2997 H 0.53992 0.33854 0.08903 0.0
H2998 H 0.8422 0.3405 0.39742 0.0
H2999 H 0.87624 0.36096 0.39419 0.0
H3000 H 0.86118 0.3678 0.35416 0.0
H3001 H 0.82729 0.34735 0.35724 0.0
H3002 H 0.90342 0.35498 0.35815 0.0
H3003 H 0.85429 0.41035 0.37396 0.0
H3004 H 0.82819 0.42641 0.38926 0.0
H3005 H 0.8771 0.42441 0.41868 0.0
H3006 H 0.90341 0.40805 0.4036 0.0
H3007 H 0.98315 0.43311 0.34099 0.0
H3008 H 0.94798 0.41522 0.34484 0.0
H3009 H 0.96147 0.41382 0.38527 0.0
H3010 H -0.00364 0.43222 0.38155 0.0
H3011 H 0.92004 0.42371 0.38141 0.0
H3012 H 0.96902 0.36826 0.36629 0.0
H3013 H -0.00445 0.35144 0.35153 0.0
H3014 H 0.94761 0.35236 0.32155 0.0
H3015 H 0.92088 0.36946 0.33609 0.0
C3016 C 0.84612 0.34636 0.38793 0.0
C3017 C 0.83198 0.3423 0.3776 0.0
C3018 C 0.86553 0.35813 0.38612 0.0
C3019 C 0.87113 0.36603 0.37395 0.0
C3020 C 0.85715 0.36185 0.36362 0.0
C3021 C 0.83774 0.3502 0.36543 0.0
C3022 C 0.89171 0.37839 0.37188 0.0
C3023 C 0.90695 0.37016 0.36311 0.0
C3024 C 0.89653 0.39786 0.37862 0.0
C3025 C 0.88075 0.40777 0.38769 0.0
C3026 C 0.85942 0.41317 0.38372 0.0
C3027 C 0.8446 0.42236 0.39235 0.0
C3028 C 0.85096 0.42637 0.40494 0.0
C3029 C 0.87218 0.42126 0.40893 0.0
C3030 C 0.88706 0.41205 0.40034 0.0
C3031 C 0.97858 0.42915 0.35072 0.0
C3032 C -0.00734 0.43397 0.36095 0.0
C3033 C 0.9585 0.41882 0.3529 0.0
C3034 C 0.95227 0.4128 0.36532 0.0
C3035 C 0.96596 0.41824 0.3756 0.0
C3036 C 0.98594 0.42874 0.37344 0.0
C3037 C 0.93175 0.40037 0.3676 0.0
C3038 C 0.91653 0.40854 0.37643 0.0
C3039 C 0.92702 0.38071 0.361 0.0
C3040 C 0.94302 0.37034 0.35225 0.0
C3041 C 0.96419 0.36502 0.35653 0.0
C3042 C 0.97926 0.35541 0.3482 0.0
C3043 C 0.97329 0.35089 0.3356 0.0
C3044 C 0.95222 0.3559 0.33131 0.0
C3045 C 0.9371 0.36553 0.33959 0.0
H3046 H 0.98498 0.34345 0.32917 0.0
H3047 H 0.83946 0.43349 0.4116 0.0
H3048 H 0.88269 0.4023 0.87394 0.0
H3049 H 0.86257 0.36827 0.8771 0.0
H3050 H 0.86291 0.35668 0.83651 0.0
H3051 H 0.88327 0.39088 0.83319 0.0
H3052 H 0.82153 0.3495 0.84856 0.0
H3053 H 0.89672 0.32855 0.85348 0.0
H3054 H 0.93418 0.33135 0.86209 0.0
H3055 H 0.90968 0.32136 0.90007 0.0
H3056 H 0.87201 0.31882 0.89171 0.0
H3057 H 0.78823 0.23808 0.85257 0.0
H3058 H 0.80654 0.27266 0.84794 0.0
H3059 H 0.81729 0.2829 0.88821 0.0
H3060 H 0.79943 0.24798 0.89291 0.0
H3061 H 0.85349 0.29064 0.87542 0.0
H3062 H 0.77853 0.31242 0.87104 0.0
H3063 H 0.7407 0.31042 0.86291 0.0
H3064 H 0.764 0.31963 0.82461 0.0
H3065 H 0.80202 0.32139 0.83249 0.0
C3066 C 0.87848 0.3926 0.86564 0.0
C3067 C 0.88467 0.3993 0.8533 0.0
C3068 C 0.86702 0.37311 0.86749 0.0
C3069 C 0.86142 0.35992 0.85706 0.0
C3070 C 0.86714 0.36667 0.84468 0.0
C3071 C 0.87883 0.38614 0.84282 0.0
C3072 C 0.84978 0.33898 0.8592 0.0
C3073 C 0.8286 0.33645 0.85426 0.0
C3074 C 0.85886 0.32228 0.86692 0.0
C3075 C 0.88151 0.3237 0.87197 0.0
C3076 C 0.89929 0.32714 0.86368 0.0
C3077 C 0.92057 0.32864 0.86852 0.0
C3078 C 0.9243 0.32659 0.88162 0.0
C3079 C 0.90676 0.32297 0.88992 0.0
C3080 C 0.88545 0.32148 0.88514 0.0
C3081 C 0.7943 0.24775 0.86047 0.0
C3082 C 0.79236 0.24023 0.87312 0.0
C3083 C 0.8047 0.2676 0.8578 0.0
C3084 C 0.81312 0.2805 0.86773 0.0
C3085 C 0.81093 0.27321 0.88039 0.0
C3086 C 0.80065 0.25327 0.88307 0.0
C3087 C 0.82504 0.30113 0.86489 0.0
C3088 C 0.84635 0.30362 0.8697 0.0
C3089 C 0.81599 0.31784 0.85712 0.0
C3090 C 0.79315 0.31681 0.85235 0.0
C3091 C 0.77561 0.31383 0.86087 0.0
C3092 C 0.75413 0.31278 0.85631 0.0
C3093 C 0.74996 0.31484 0.84325 0.0
C3094 C 0.76726 0.31801 0.83472 0.0
C3095 C 0.78878 0.31905 0.83924 0.0
H3096 H 0.73332 0.31402 0.83974 0.0
H3097 H 0.94079 0.32776 0.88535 0.0
H3098 H 0.97814 0.5177 0.11281 0.0
H3099 H 0.94355 0.53648 0.10861 0.0
H3100 H 0.95938 0.58441 0.13744 0.0
H3101 H -0.00669 0.56491 0.14216 0.0
H3102 H 0.91906 0.57775 0.13876 0.0
H3103 H 0.96676 0.59332 0.10392 0.0
H3104 H -0.00819 0.58525 0.08609 0.0
H3105 H 0.9405 0.5506 0.06667 0.0
H3106 H 0.91522 0.55824 0.08448 0.0
H3107 H 0.85235 0.65401 0.09242 0.0
H3108 H 0.88584 0.63381 0.09749 0.0
H3109 H 0.84869 0.59 0.12157 0.0
H3110 H 0.81555 0.61098 0.11714 0.0
H3111 H 0.90054 0.5961 0.09389 0.0
H3112 H 0.87791 0.57035 0.14576 0.0
H3113 H 0.85641 0.58437 0.16392 0.0
H3114 H 0.86386 0.65004 0.14989 0.0
H3115 H 0.88562 0.63644 0.13174 0.0
C3116 C 0.97407 0.53209 0.11835 0.0
C3117 C 0.98843 0.5399 0.12778 0.0
C3118 C 0.95439 0.54294 0.11587 0.0
C3119 C 0.94904 0.56223 0.12247 0.0
C3120 C 0.96309 0.56961 0.13218 0.0
C3121 C 0.9825 0.55846 0.13488 0.0
C3122 C 0.9291 0.57499 0.11911 0.0
C3123 C 0.91504 0.58174 0.12894 0.0
C3124 C 0.92403 0.58078 0.10633 0.0
C3125 C 0.93917 0.57617 0.09559 0.0
C3126 C 0.96086 0.58385 0.09589 0.0
C3127 C 0.9751 0.57937 0.08578 0.0
C3128 C 0.96777 0.56737 0.07527 0.0
C3129 C 0.94617 0.55987 0.07483 0.0
C3130 C 0.93187 0.56428 0.08493 0.0
C3131 C 0.8514 0.64006 0.09879 0.0
C3132 C 0.83144 0.63419 0.1045 0.0
C3133 C 0.87052 0.62849 0.10168 0.0
C3134 C 0.86996 0.61059 0.11013 0.0
C3135 C 0.84977 0.60415 0.11536 0.0
C3136 C 0.83079 0.61606 0.11275 0.0
C3137 C 0.89045 0.59877 0.11354 0.0
C3138 C 0.90457 0.59212 0.10371 0.0
C3139 C 0.89611 0.59397 0.12637 0.0
C3140 C 0.8832 0.60233 0.13732 0.0
C3141 C 0.87502 0.58778 0.14658 0.0
C3142 C 0.86278 0.59566 0.15687 0.0
C3143 C 0.85871 0.61807 0.15804 0.0
C3144 C 0.86695 0.63267 0.14895 0.0
C3145 C 0.87922 0.62489 0.13865 0.0
H3146 H 0.84922 0.62413 0.166 0.0
H3147 H 0.97881 0.56392 0.06745 0.0
H3148 H 0.58543 0.5987 0.3389 0.0
H3149 H 0.60701 0.63206 0.34219 0.0
H3150 H 0.63377 0.60481 0.37683 0.0
H3151 H 0.61232 0.57155 0.37368 0.0
H3152 H 0.60619 0.6612 0.36256 0.0
H3153 H 0.68755 0.62136 0.37877 0.0
H3154 H 0.70849 0.58742 0.37514 0.0
H3155 H 0.67844 0.5801 0.33834 0.0
H3156 H 0.65756 0.61414 0.34167 0.0
H3157 H 0.67365 0.73882 0.3938 0.0
H3158 H 0.65501 0.70428 0.38912 0.0
H3159 H 0.68996 0.69951 0.35347 0.0
H3160 H 0.70861 0.73405 0.35803 0.0
H3161 H 0.68716 0.65961 0.36644 0.0
H3162 H 0.64023 0.71812 0.35257 0.0
H3163 H 0.61952 0.75248 0.35512 0.0
H3164 H 0.58096 0.72309 0.38482 0.0
H3165 H 0.60168 0.68864 0.38258 0.0
C3166 C 0.59596 0.59978 0.3472 0.0
C3167 C 0.59715 0.58245 0.35603 0.0
C3168 C 0.60821 0.61887 0.34908 0.0
C3169 C 0.62207 0.62081 0.3597 0.0
C3170 C 0.62333 0.60354 0.3685 0.0
C3171 C 0.61098 0.58457 0.3667 0.0
C3172 C 0.63504 0.641 0.36175 0.0
C3173 C 0.62389 0.66086 0.3634 0.0
C3174 C 0.65814 0.64055 0.36271 0.0
C3175 C 0.67083 0.6202 0.36053 0.0
C3176 C 0.68548 0.61255 0.36989 0.0
C3177 C 0.69733 0.59329 0.36788 0.0
C3178 C 0.69475 0.58158 0.35653 0.0
C3179 C 0.68036 0.58914 0.34714 0.0
C3180 C 0.66849 0.6084 0.34909 0.0
C3181 C 0.6776 0.73029 0.38504 0.0
C3182 C 0.69252 0.73926 0.37625 0.0
C3183 C 0.66687 0.71061 0.38236 0.0
C3184 C 0.67096 0.69951 0.37089 0.0
C3185 C 0.68656 0.70788 0.36237 0.0
C3186 C 0.69714 0.72764 0.36498 0.0
C3187 C 0.65827 0.67968 0.3675 0.0
C3188 C 0.66947 0.65991 0.36562 0.0
C3189 C 0.63523 0.68024 0.36619 0.0
C3190 C 0.62265 0.70088 0.36749 0.0
C3191 C 0.62745 0.71905 0.35972 0.0
C3192 C 0.61569 0.73852 0.36109 0.0
C3193 C 0.59897 0.73999 0.37015 0.0
C3194 C 0.59394 0.72195 0.37782 0.0
C3195 C 0.60567 0.70244 0.3765 0.0
H3196 H 0.58989 0.75508 0.37119 0.0
H3197 H 0.70393 0.56666 0.35501 0.0
H3198 H 0.6416 0.34847 0.58534 0.0
H3199 H 0.6081 0.36892 0.59003 0.0
H3200 H 0.62073 0.36262 0.63037 0.0
H3201 H 0.65423 0.34226 0.62581 0.0
H3202 H 0.57735 0.3535 0.6237 0.0
H3203 H 0.6315 0.40959 0.61642 0.0
H3204 H 0.66037 0.42853 0.60422 0.0
H3205 H 0.61529 0.43989 0.57347 0.0
H3206 H 0.58621 0.42072 0.58542 0.0
H3207 H 0.49866 0.42965 0.6456 0.0
H3208 H 0.53351 0.41116 0.64167 0.0
H3209 H 0.52681 0.4236 0.6013 0.0
H3210 H 0.49233 0.4425 0.60515 0.0
H3211 H 0.5677 0.42973 0.60827 0.0
H3212 H 0.51411 0.3734 0.6143 0.0
H3213 H 0.48461 0.35353 0.62546 0.0
H3214 H 0.52751 0.34141 0.65717 0.0
H3215 H 0.5572 0.36146 0.64626 0.0
C3216 C 0.63723 0.35137 0.59521 0.0
C3217 C 0.65064 0.34379 0.60519 0.0
C3218 C 0.61813 0.36313 0.59787 0.0
C3219 C 0.61207 0.36741 0.61055 0.0
C3220 C 0.62516 0.35951 0.62053 0.0
C3221 C 0.64434 0.34794 0.61788 0.0
C3222 C 0.59211 0.38025 0.61343 0.0
C3223 C 0.57533 0.37027 0.62049 0.0
C3224 C 0.5893 0.40191 0.60893 0.0
C3225 C 0.60674 0.41353 0.60176 0.0
C3226 C 0.62779 0.41596 0.60702 0.0
C3227 C 0.64419 0.42677 0.60015 0.0
C3228 C 0.63969 0.43536 0.58806 0.0
C3229 C 0.61876 0.4332 0.58282 0.0
C3230 C 0.60231 0.42239 0.58964 0.0
C3231 C 0.5047 0.42864 0.6359 0.0
C3232 C 0.49261 0.43746 0.62569 0.0
C3233 C 0.52457 0.41795 0.63366 0.0
C3234 C 0.53259 0.41566 0.62116 0.0
C3235 C 0.52093 0.42511 0.61102 0.0
C3236 C 0.50117 0.43589 0.61325 0.0
C3237 C 0.55285 0.403 0.61856 0.0
C3238 C 0.56969 0.41298 0.61153 0.0
C3239 C 0.55559 0.38123 0.62294 0.0
C3240 C 0.5378 0.36913 0.62952 0.0
C3241 C 0.5172 0.36665 0.6237 0.0
C3242 C 0.50045 0.35533 0.62997 0.0
C3243 C 0.50416 0.34628 0.64203 0.0
C3244 C 0.52465 0.34847 0.64783 0.0
C3245 C 0.54144 0.35979 0.64161 0.0
H3246 H 0.49118 0.33752 0.64688 0.0
H3247 H 0.6524 0.44372 0.58277 0.0
H3248 H 0.11825 0.40775 0.37009 0.0
H3249 H 0.13855 0.37354 0.37243 0.0
H3250 H 0.1043 0.34652 0.34008 0.0
H3251 H 0.08399 0.38089 0.33755 0.0
H3252 H 0.10526 0.31881 0.36204 0.0
H3253 H 0.15435 0.36 0.33555 0.0
H3254 H 0.17629 0.39225 0.32945 0.0
H3255 H 0.21373 0.3864 0.36398 0.0
H3256 H 0.19179 0.35429 0.37039 0.0
H3257 H 0.20284 0.23954 0.35389 0.0
H3258 H 0.18437 0.27393 0.34881 0.0
H3259 H 0.15644 0.27542 0.3866 0.0
H3260 H 0.17483 0.24097 0.3918 0.0
H3261 H 0.18632 0.31504 0.35973 0.0
H3262 H 0.10365 0.29466 0.38346 0.0
H3263 H 0.08166 0.26225 0.38925 0.0
H3264 H 0.11112 0.2258 0.35876 0.0
H3265 H 0.13306 0.25808 0.35267 0.0
C3266 C 0.11507 0.39458 0.36342 0.0
C3267 C 0.09949 0.39702 0.35363 0.0
C3268 C 0.12674 0.37508 0.36476 0.0
C3269 C 0.12294 0.35758 0.35641 0.0
C3270 C 0.10744 0.3599 0.34661 0.0
C3271 C 0.09595 0.37955 0.34515 0.0
C3272 C 0.13489 0.33672 0.35816 0.0
C3273 C 0.12297 0.31793 0.36149 0.0
C3274 C 0.15797 0.33564 0.35736 0.0
C3275 C 0.1713 0.35485 0.3535 0.0
C3276 C 0.16714 0.3657 0.3419 0.0
C3277 C 0.1796 0.38393 0.33837 0.0
C3278 C 0.19636 0.3914 0.34634 0.0
C3279 C 0.20073 0.3806 0.35783 0.0
C3280 C 0.1883 0.36237 0.3614 0.0
C3281 C 0.19289 0.24722 0.36117 0.0
C3282 C 0.19023 0.23742 0.37324 0.0
C3283 C 0.1824 0.26691 0.35825 0.0
C3284 C 0.16887 0.27706 0.36727 0.0
C3285 C 0.16663 0.26768 0.37945 0.0
C3286 C 0.17723 0.24805 0.38242 0.0
C3287 C 0.15672 0.29721 0.36384 0.0
C3288 C 0.1686 0.31587 0.36023 0.0
C3289 C 0.13359 0.29815 0.36432 0.0
C3290 C 0.12014 0.27874 0.36769 0.0
C3291 C 0.10535 0.27976 0.37795 0.0
C3292 C 0.09291 0.26141 0.38129 0.0
C3293 C 0.09505 0.24196 0.37441 0.0
C3294 C 0.10955 0.24085 0.36411 0.0
C3295 C 0.12201 0.25917 0.36072 0.0
H3296 H 0.08545 0.22777 0.37705 0.0
H3297 H 0.20598 0.40552 0.34359 0.0
H3298 H 0.35242 0.32781 0.09344 0.0
H3299 H 0.38604 0.34748 0.0989 0.0
H3300 H 0.34863 0.39239 0.12203 0.0
H3301 H 0.31531 0.37188 0.11725 0.0
H3302 H 0.40148 0.3846 0.09504 0.0
H3303 H 0.37734 0.41294 0.14616 0.0
H3304 H 0.35493 0.40004 0.16427 0.0
H3305 H 0.36177 0.33368 0.15142 0.0
H3306 H 0.38445 0.34615 0.13334 0.0
H3307 H 0.47891 0.46316 0.11341 0.0
H3308 H 0.44424 0.44447 0.10934 0.0
H3309 H 0.45918 0.39763 0.13899 0.0
H3310 H 0.49329 0.417 0.14354 0.0
H3311 H 0.41861 0.40467 0.13982 0.0
H3312 H 0.46734 0.38697 0.10596 0.0
H3313 H 0.49322 0.39384 0.08834 0.0
H3314 H 0.44323 0.42815 0.06758 0.0
H3315 H 0.41711 0.42171 0.08516 0.0
C3316 C 0.35144 0.34187 0.09971 0.0
C3317 C 0.33134 0.34821 0.10503 0.0
C3318 C 0.37064 0.35314 0.10281 0.0
C3319 C 0.37004 0.37123 0.11109 0.0
C3320 C 0.34974 0.37809 0.11597 0.0
C3321 C 0.33066 0.36646 0.11315 0.0
C3322 C 0.3906 0.38292 0.11459 0.0
C3323 C 0.40519 0.38894 0.10485 0.0
C3324 C 0.39585 0.3882 0.12741 0.0
C3325 C 0.3824 0.38052 0.13833 0.0
C3326 C 0.37413 0.39559 0.14723 0.0
C3327 C 0.36137 0.38835 0.15748 0.0
C3328 C 0.35687 0.36606 0.15897 0.0
C3329 C 0.3652 0.35095 0.15023 0.0
C3330 C 0.37798 0.35809 0.13997 0.0
C3331 C 0.47465 0.44903 0.11916 0.0
C3332 C 0.48885 0.44146 0.12875 0.0
C3333 C 0.4549 0.43824 0.11676 0.0
C3334 C 0.44929 0.41926 0.12362 0.0
C3335 C 0.46311 0.41218 0.13352 0.0
C3336 C 0.48263 0.42326 0.13613 0.0
C3337 C 0.42937 0.40646 0.12026 0.0
C3338 C 0.41488 0.4003 0.13002 0.0
C3339 C 0.42471 0.40014 0.10753 0.0
C3340 C 0.44034 0.40404 0.09692 0.0
C3341 C 0.46191 0.39611 0.09767 0.0
C3342 C 0.47662 0.39991 0.08769 0.0
C3343 C 0.46989 0.41148 0.07686 0.0
C3344 C 0.44842 0.41922 0.07598 0.0
C3345 C 0.43366 0.41549 0.08594 0.0
H3346 H 0.4813 0.4144 0.06914 0.0
H3347 H 0.34697 0.3605 0.1669 0.0
H3348 H 0.2956 0.7313 0.89449 0.0
H3349 H 0.31456 0.69684 0.89026 0.0
H3350 H 0.3068 0.70711 0.84976 0.0
H3351 H 0.28732 0.7412 0.85389 0.0
H3352 H 0.30035 0.66575 0.85506 0.0
H3353 H 0.35553 0.71849 0.86523 0.0
H3354 H 0.37382 0.74697 0.87804 0.0
H3355 H 0.38174 0.70146 0.90898 0.0
H3356 H 0.36323 0.67276 0.8964 0.0
H3357 H 0.38425 0.59109 0.83546 0.0
H3358 H 0.36338 0.62471 0.83925 0.0
H3359 H 0.36297 0.61112 0.87966 0.0
H3360 H 0.3837 0.57759 0.876 0.0
H3361 H 0.37392 0.65424 0.87399 0.0
H3362 H 0.31831 0.60138 0.86278 0.0
H3363 H 0.30099 0.57359 0.84903 0.0
H3364 H 0.29542 0.62066 0.81872 0.0
H3365 H 0.313 0.64866 0.83224 0.0
C3366 C 0.29775 0.72613 0.88469 0.0
C3367 C 0.29005 0.7391 0.87453 0.0
C3368 C 0.30871 0.70648 0.88228 0.0
C3369 C 0.31249 0.69958 0.86968 0.0
C3370 C 0.30415 0.71211 0.85955 0.0
C3371 C 0.29303 0.73164 0.86195 0.0
C3372 C 0.32553 0.67959 0.86701 0.0
C3373 C 0.31655 0.66338 0.85908 0.0
C3374 C 0.34659 0.67635 0.87234 0.0
C3375 C 0.35779 0.69354 0.87992 0.0
C3376 C 0.36103 0.7146 0.8748 0.0
C3377 C 0.37146 0.73078 0.88201 0.0
C3378 C 0.37888 0.72605 0.89433 0.0
C3379 C 0.37594 0.70511 0.89944 0.0
C3380 C 0.3655 0.68887 0.89227 0.0
C3381 C 0.37974 0.59527 0.84516 0.0
C3382 C 0.38559 0.5816 0.85542 0.0
C3383 C 0.36776 0.61444 0.8473 0.0
C3384 C 0.36153 0.62031 0.85973 0.0
C3385 C 0.36762 0.60688 0.87 0.0
C3386 C 0.3794 0.58766 0.86787 0.0
C3387 C 0.34867 0.64045 0.86212 0.0
C3388 C 0.35772 0.65668 0.86998 0.0
C3389 C 0.32783 0.64384 0.85659 0.0
C3390 C 0.31718 0.62704 0.84848 0.0
C3391 C 0.31356 0.60575 0.85315 0.0
C3392 C 0.30367 0.58997 0.8454 0.0
C3393 C 0.29717 0.59534 0.833 0.0
C3394 C 0.3005 0.61652 0.82832 0.0
C3395 C 0.31041 0.63235 0.83603 0.0
H3396 H 0.2895 0.5831 0.82701 0.0
H3397 H 0.38696 0.73859 0.8999 0.0
H3398 H 0.00235 0.52098 0.60993 0.0
H3399 H 0.03816 0.53724 0.60563 0.0
H3400 H 0.02687 0.58504 0.63523 0.0
H3401 H -0.00835 0.56802 0.64002 0.0
H3402 H 0.04962 0.57358 0.59687 0.0
H3403 H 0.07296 0.60437 0.64771 0.0
H3404 H 0.06845 0.5929 0.67014 0.0
H3405 H 0.06109 0.52604 0.65831 0.0
H3406 H 0.06584 0.53706 0.63582 0.0
H3407 H 0.13281 0.65362 0.59119 0.0
H3408 H 0.09955 0.63262 0.59567 0.0
H3409 H 0.1371 0.5875 0.61868 0.0
H3410 H 0.16998 0.60923 0.61486 0.0
H3411 H 0.10271 0.59465 0.63049 0.0
H3412 H 0.11644 0.57532 0.58722 0.0
H3413 H 0.1239 0.58125 0.56434 0.0
H3414 H 0.06265 0.61497 0.56026 0.0
H3415 H 0.05495 0.60949 0.58316 0.0
C3416 C 0.00768 0.53477 0.61563 0.0
C3417 C -0.00571 0.54314 0.62537 0.0
C3418 C 0.02811 0.54413 0.61313 0.0
C3419 C 0.03542 0.56229 0.62016 0.0
C3420 C 0.02196 0.57071 0.62987 0.0
C3421 C 0.00176 0.56102 0.63258 0.0
C3422 C 0.05671 0.57289 0.61703 0.0
C3423 C 0.06127 0.57808 0.60423 0.0
C3424 C 0.07223 0.57839 0.62655 0.0
C3425 C 0.06955 0.57159 0.64007 0.0
C3426 C 0.07046 0.58721 0.6499 0.0
C3427 C 0.06785 0.58079 0.66262 0.0
C3428 C 0.06441 0.55877 0.66564 0.0
C3429 C 0.06366 0.5431 0.65595 0.0
C3430 C 0.06629 0.54943 0.64321 0.0
C3431 C 0.13392 0.63913 0.59714 0.0
C3432 C 0.15393 0.63304 0.60269 0.0
C3433 C 0.11493 0.62705 0.59964 0.0
C3434 C 0.11576 0.60822 0.60739 0.0
C3435 C 0.13591 0.60197 0.61274 0.0
C3436 C 0.15473 0.61436 0.61051 0.0
C3437 C 0.0956 0.59544 0.61032 0.0
C3438 C 0.09117 0.58998 0.6231 0.0
C3439 C 0.08067 0.58883 0.60072 0.0
C3440 C 0.08522 0.59216 0.58693 0.0
C3441 C 0.10464 0.58413 0.58146 0.0
C3442 C 0.10889 0.58739 0.56849 0.0
C3443 C 0.09378 0.59853 0.56086 0.0
C3444 C 0.07435 0.60638 0.56618 0.0
C3445 C 0.07002 0.60318 0.57916 0.0
H3446 H 0.09711 0.60103 0.55081 0.0
H3447 H 0.06238 0.55384 0.6755 0.0
H3448 H 0.09477 0.58879 0.14845 0.0
H3449 H 0.11508 0.62242 0.14402 0.0
H3450 H 0.11446 0.60751 0.10378 0.0
H3451 H 0.09461 0.57362 0.10813 0.0
H3452 H 0.15356 0.62182 0.11056 0.0
H3453 H 0.07981 0.64604 0.11663 0.0
H3454 H 0.04448 0.64963 0.1278 0.0
H3455 H 0.07661 0.68083 0.15937 0.0
H3456 H 0.11221 0.67715 0.14847 0.0
H3457 H 0.18028 0.7304 0.08904 0.0
H3458 H 0.16259 0.69504 0.09299 0.0
H3459 H 0.16806 0.70537 0.13358 0.0
H3460 H 0.18572 0.74058 0.12978 0.0
H3461 H 0.12648 0.69346 0.12621 0.0
H3462 H 0.2005 0.66914 0.11951 0.0
H3463 H 0.23529 0.66589 0.10774 0.0
H3464 H 0.20168 0.63545 0.07644 0.0
H3465 H 0.16662 0.63879 0.08795 0.0
C3466 C 0.09892 0.59266 0.13865 0.0
C3467 C 0.09297 0.57853 0.12864 0.0
C3468 C 0.11048 0.61194 0.13613 0.0
C3469 C 0.11606 0.61763 0.12354 0.0
C3470 C 0.11034 0.60346 0.11356 0.0
C3471 C 0.09891 0.58412 0.11607 0.0
C3472 C 0.12783 0.63838 0.12077 0.0
C3473 C 0.14748 0.63752 0.11384 0.0
C3474 C 0.12009 0.65884 0.12521 0.0
C3475 C 0.09871 0.66112 0.13179 0.0
C3476 C 0.07937 0.65351 0.126 0.0
C3477 C 0.05929 0.65559 0.13227 0.0
C3478 C 0.05831 0.6654 0.1443 0.0
C3479 C 0.0774 0.6732 0.15007 0.0
C3480 C 0.09753 0.67114 0.14384 0.0
C3481 C 0.17792 0.72505 0.09881 0.0
C3482 C 0.18439 0.73837 0.10908 0.0
C3483 C 0.16785 0.70483 0.10104 0.0
C3484 C 0.16405 0.69761 0.11358 0.0
C3485 C 0.17081 0.71068 0.12384 0.0
C3486 C 0.18098 0.73078 0.12162 0.0
C3487 C 0.15223 0.67685 0.11607 0.0
C3488 C 0.13253 0.67774 0.12293 0.0
C3489 C 0.15983 0.65648 0.11147 0.0
C3490 C 0.1809 0.65443 0.10454 0.0
C3491 C 0.20049 0.66193 0.11007 0.0
C3492 C 0.22027 0.66003 0.10346 0.0
C3493 C 0.22069 0.65053 0.09134 0.0
C3494 C 0.20133 0.64284 0.08582 0.0
C3495 C 0.1815 0.64471 0.09239 0.0
H3496 H 0.23601 0.64907 0.08623 0.0
H3497 H 0.04274 0.667 0.14914 0.0
H3498 H 0.1382 0.34081 0.89756 0.0
H3499 H 0.10448 0.36136 0.89374 0.0
H3500 H 0.12062 0.36647 0.85376 0.0
H3501 H 0.15449 0.3464 0.85751 0.0
H3502 H 0.10625 0.40441 0.86219 0.0
H3503 H 0.08208 0.33004 0.8646 0.0
H3504 H 0.07827 0.2933 0.87413 0.0
H3505 H 0.04519 0.32094 0.90647 0.0
H3506 H 0.0491 0.35791 0.89721 0.0
H3507 H -0.00042 0.43295 0.8392 0.0
H3508 H 0.03426 0.41422 0.84344 0.0
H3509 H 0.02136 0.41669 0.88388 0.0
H3510 H 0.98679 0.43548 0.87978 0.0
H3511 H 0.03389 0.37516 0.87532 0.0
H3512 H 0.05822 0.44998 0.87202 0.0
H3513 H 0.06188 0.48606 0.86164 0.0
H3514 H 0.09425 0.45625 0.82972 0.0
H3515 H 0.0905 0.41993 0.83983 0.0
C3516 C 0.13457 0.34629 0.88795 0.0
C3517 C 0.14905 0.3419 0.87784 0.0
C3518 C 0.11524 0.35798 0.88578 0.0
C3519 C 0.1099 0.36526 0.87343 0.0
C3520 C 0.1244 0.36104 0.86336 0.0
C3521 C 0.14375 0.34948 0.86553 0.0
C3522 C 0.08926 0.37737 0.87098 0.0
C3523 C 0.09041 0.39787 0.86493 0.0
C3524 C 0.0686 0.36901 0.87471 0.0
C3525 C 0.06609 0.34678 0.88027 0.0
C3526 C 0.07414 0.32831 0.87379 0.0
C3527 C 0.07194 0.30744 0.87913 0.0
C3528 C 0.06155 0.3048 0.89091 0.0
C3529 C 0.05327 0.32302 0.89735 0.0
C3530 C 0.05546 0.34394 0.89206 0.0
C3531 C 0.00419 0.42967 0.849 0.0
C3532 C -0.00959 0.43575 0.85914 0.0
C3533 C 0.02402 0.41899 0.8514 0.0
C3534 C 0.03035 0.41411 0.86397 0.0
C3535 C 0.01673 0.42029 0.87411 0.0
C3536 C -0.00297 0.43113 0.87173 0.0
C3537 C 0.05096 0.40214 0.86656 0.0
C3538 C 0.04976 0.38166 0.87262 0.0
C3539 C 0.07154 0.41039 0.8627 0.0
C3540 C 0.07388 0.43221 0.85663 0.0
C3541 C 0.06595 0.45109 0.86274 0.0
C3542 C 0.06807 0.47159 0.85691 0.0
C3543 C 0.07824 0.47344 0.84501 0.0
C3544 C 0.08635 0.45479 0.83893 0.0
C3545 C 0.08425 0.43425 0.84471 0.0
H3546 H 0.07987 0.48932 0.84052 0.0
H3547 H 0.05986 0.28863 0.89504 0.0
H3548 H 0.28938 0.23849 0.62982 0.0
H3549 H 0.30789 0.27297 0.63437 0.0
H3550 H 0.31987 0.28245 0.59415 0.0
H3551 H 0.30176 0.24765 0.58951 0.0
H3552 H 0.35598 0.2898 0.60743 0.0
H3553 H 0.28114 0.31276 0.61054 0.0
H3554 H 0.24299 0.31139 0.61817 0.0
H3555 H 0.26494 0.3209 0.65671 0.0
H3556 H 0.30327 0.32203 0.64933 0.0
H3557 H 0.38713 0.4012 0.60892 0.0
H3558 H 0.36699 0.36725 0.60546 0.0
H3559 H 0.36424 0.35627 0.6461 0.0
H3560 H 0.38458 0.39035 0.6497 0.0
H3561 H 0.32379 0.3496 0.63335 0.0
H3562 H 0.39871 0.32734 0.62993 0.0
H3563 H 0.43667 0.32939 0.62205 0.0
H3564 H 0.41417 0.31906 0.58369 0.0
H3565 H 0.37601 0.3173 0.59132 0.0
C3566 C 0.29573 0.24798 0.6219 0.0
C3567 C 0.29407 0.24027 0.60929 0.0
C3568 C 0.30627 0.26777 0.62453 0.0
C3569 C 0.31513 0.28041 0.61459 0.0
C3570 C 0.31317 0.27295 0.60197 0.0
C3571 C 0.30273 0.25309 0.59933 0.0
C3572 C 0.32725 0.30092 0.61742 0.0
C3573 C 0.3488 0.303 0.61294 0.0
C3574 C 0.31813 0.3179 0.62493 0.0
C3575 C 0.29509 0.31726 0.62939 0.0
C3576 C 0.27785 0.31438 0.62066 0.0
C3577 C 0.25619 0.31368 0.62493 0.0
C3578 C 0.25155 0.316 0.63792 0.0
C3579 C 0.26856 0.31908 0.64666 0.0
C3580 C 0.29025 0.31977 0.64243 0.0
C3581 C 0.38226 0.39162 0.61715 0.0
C3582 C 0.38752 0.39848 0.6296 0.0
C3583 C 0.3708 0.37218 0.61514 0.0
C3584 C 0.36427 0.35921 0.62552 0.0
C3585 C 0.36918 0.36608 0.63797 0.0
C3586 C 0.38087 0.38548 0.64 0.0
C3587 C 0.35235 0.33846 0.62324 0.0
C3588 C 0.3309 0.33635 0.62785 0.0
C3589 C 0.36151 0.32148 0.61581 0.0
C3590 C 0.38447 0.32239 0.61119 0.0
C3591 C 0.40183 0.32569 0.6198 0.0
C3592 C 0.42339 0.32677 0.61538 0.0
C3593 C 0.42782 0.32441 0.60237 0.0
C3594 C 0.4107 0.32091 0.59376 0.0
C3595 C 0.38911 0.31985 0.59813 0.0
H3596 H 0.44453 0.32525 0.59897 0.0
H3597 H 0.23476 0.31546 0.64121 0.0
H3598 H 0.4823 0.55011 0.34133 0.0
H3599 H 0.4476 0.56864 0.3455 0.0
H3600 H 0.45837 0.56218 0.38604 0.0
H3601 H 0.49276 0.54315 0.38196 0.0
H3602 H 0.41684 0.55495 0.3808 0.0
H3603 H 0.46896 0.61053 0.37023 0.0
H3604 H 0.49729 0.62885 0.35729 0.0
H3605 H 0.45184 0.63555 0.32626 0.0
H3606 H 0.42331 0.61698 0.33896 0.0
H3607 H 0.33982 0.63834 0.39869 0.0
H3608 H 0.3739 0.61779 0.39564 0.0
H3609 H 0.36202 0.61571 0.35508 0.0
H3610 H 0.32809 0.63607 0.358 0.0
H3611 H 0.40449 0.62786 0.36115 0.0
H3612 H 0.35244 0.57152 0.37238 0.0
H3613 H 0.32458 0.55395 0.38601 0.0
H3614 H 0.3708 0.55003 0.41682 0.0
H3615 H 0.39886 0.56787 0.40342 0.0
C3616 C 0.4772 0.55246 0.35113 0.0
C3617 C 0.4904 0.54527 0.36131 0.0
C3618 C 0.45741 0.56316 0.35351 0.0
C3619 C 0.45058 0.56719 0.3661 0.0
C3620 C 0.46333 0.55934 0.37626 0.0
C3621 C 0.48303 0.54848 0.37389 0.0
C3622 C 0.43044 0.58004 0.36868 0.0
C3623 C 0.41428 0.57101 0.37663 0.0
C3624 C 0.42697 0.60093 0.36316 0.0
C3625 C 0.44407 0.61217 0.3555 0.0
C3626 C 0.46505 0.61576 0.36061 0.0
C3627 C 0.48114 0.62621 0.35333 0.0
C3628 C 0.47638 0.63331 0.34095 0.0
C3629 C 0.45551 0.63001 0.33584 0.0
C3630 C 0.43937 0.61954 0.34308 0.0
C3631 C 0.34448 0.63351 0.38913 0.0
C3632 C 0.3312 0.63881 0.3786 0.0
C3633 C 0.3639 0.62172 0.38741 0.0
C3634 C 0.37038 0.61515 0.37514 0.0
C3635 C 0.3573 0.62063 0.36463 0.0
C3636 C 0.33785 0.63221 0.36633 0.0
C3637 C 0.39087 0.60266 0.37315 0.0
C3638 C 0.40712 0.61181 0.36533 0.0
C3639 C 0.39449 0.58202 0.3789 0.0
C3640 C 0.37766 0.57125 0.38695 0.0
C3641 C 0.3566 0.56709 0.3821 0.0
C3642 C 0.34079 0.55705 0.38978 0.0
C3643 C 0.3459 0.55094 0.40229 0.0
C3644 C 0.36686 0.55481 0.40713 0.0
C3645 C 0.38272 0.56487 0.3995 0.0
H3646 H 0.33364 0.54316 0.40821 0.0
H3647 H 0.48885 0.6414 0.33532 0.0
loop_
_geom_bond_atom_site_label_1
_geom_bond_atom_site_label_2
_geom_bond_distance
_geom_bond_site_symmetry_2
_ccdc_geom_bond_type
C0 O1 1.306 . S
C0 O3 1.160 . S
O1 C0 1.306 . S
O1 Cd2 2.228 . S
Cd2 O1 2.228 . S
Cd2 O6 2.273 . S
Cd2 O10 2.277 . S
O3 C0 1.160 . S
O3 Cd4 2.203 . S
Cd4 O3 2.203 . S
Cd4 O6 2.411 . S
Cd4 O7 2.333 . S
Cd4 O8 2.352 . S
Cd4 O12 2.277 . S
Cd4 O13 2.356 . S
C5 O10 1.209 . S
C5 O12 1.226 . S
O6 Cd2 2.273 . S
O6 Cd4 2.411 . S
O6 C9 1.320 . S
O7 Cd4 2.333 . S
O7 C9 1.214 . S
O8 Cd4 2.352 . S
O8 C11 1.258 . S
C9 O6 1.320 . S
C9 O7 1.214 . S
O10 Cd2 2.277 . S
O10 C5 1.209 . S
C11 O8 1.258 . S
C11 O13 1.282 . S
O12 Cd4 2.277 . S
O12 C5 1.226 . S
O13 Cd4 2.356 . S
O13 C11 1.282 . S
C14 O15 1.306 . S
C14 O17 1.160 . S
O15 C14 1.306 . S
O15 Cd16 2.228 . S
Cd16 O15 2.228 . S
Cd16 O20 2.273 . S
Cd16 O24 2.277 . S
O17 C14 1.160 . S
O17 Cd18 2.203 . S
Cd18 O17 2.203 . S
Cd18 O20 2.411 . S
Cd18 O21 2.333 . S
Cd18 O22 2.352 . S
Cd18 O26 2.277 . S
Cd18 O27 2.356 . S
C19 O24 1.209 . S
C19 O26 1.226 . S
O20 Cd16 2.273 . S
O20 Cd18 2.411 . S
O20 C23 1.320 . S
O21 Cd18 2.333 . S
O21 C23 1.214 . S
O22 Cd18 2.352 . S
O22 C25 1.258 . S
C23 O20 1.320 . S
C23 O21 1.214 . S
O24 Cd16 2.277 . S
O24 C19 1.209 . S
C25 O22 1.258 . S
C25 O27 1.282 . S
O26 Cd18 2.277 . S
O26 C19 1.226 . S
O27 Cd18 2.356 . S
O27 C25 1.282 . S
C28 O29 1.306 . S
C28 O31 1.160 . S
O29 C28 1.306 . S
O29 Cd30 2.228 . S
Cd30 O29 2.228 . S
Cd30 O34 2.273 . S
Cd30 O38 2.277 . S
O31 C28 1.160 . S
O31 Cd32 2.203 . S
Cd32 O31 2.203 . S
Cd32 O34 2.411 . S
Cd32 O35 2.333 . S
Cd32 O36 2.352 . S
Cd32 O40 2.277 . S
Cd32 O41 2.356 . S
C33 O38 1.209 . S
C33 O40 1.226 . S
O34 Cd30 2.273 . S
O34 Cd32 2.411 . S
O34 C37 1.320 . S
O35 Cd32 2.333 . S
O35 C37 1.214 . S
O36 Cd32 2.352 . S
O36 C39 1.258 . S
C37 O34 1.320 . S
C37 O35 1.214 . S
O38 Cd30 2.277 . S
O38 C33 1.209 . S
C39 O36 1.258 . S
C39 O41 1.282 . S
O40 Cd32 2.277 . S
O40 C33 1.226 . S
O41 Cd32 2.356 . S
O41 C39 1.282 . S
C42 O43 1.306 . S
C42 O45 1.160 . S
O43 C42 1.306 . S
O43 Cd44 2.228 . S
Cd44 O43 2.228 . S
Cd44 O48 2.273 . S
Cd44 O52 2.277 . S
O45 C42 1.160 . S
O45 Cd46 2.203 . S
Cd46 O45 2.203 . S
Cd46 O48 2.411 . S
Cd46 O49 2.333 . S
Cd46 O50 2.352 . S
Cd46 O54 2.277 . S
Cd46 O55 2.356 . S
C47 O52 1.209 . S
C47 O54 1.226 . S
O48 Cd44 2.273 . S
O48 Cd46 2.411 . S
O48 C51 1.320 . S
O49 Cd46 2.333 . S
O49 C51 1.214 . S
O50 Cd46 2.352 . S
O50 C53 1.258 . S
C51 O48 1.320 . S
C51 O49 1.214 . S
O52 Cd44 2.277 . S
O52 C47 1.209 . S
C53 O50 1.258 . S
C53 O55 1.282 . S
O54 Cd46 2.277 . S
O54 C47 1.226 . S
O55 Cd46 2.356 . S
O55 C53 1.282 . S
C56 O57 1.306 . S
C56 O59 1.160 . S
O57 C56 1.306 . S
O57 Cd58 2.228 . S
Cd58 O57 2.228 . S
Cd58 O62 2.273 . S
Cd58 O66 2.277 . S
O59 C56 1.160 . S
O59 Cd60 2.203 . S
Cd60 O59 2.203 . S
Cd60 O62 2.411 . S
Cd60 O63 2.333 . S
Cd60 O64 2.352 . S
Cd60 O68 2.277 . S
Cd60 O69 2.356 . S
C61 O66 1.209 . S
C61 O68 1.226 . S
O62 Cd58 2.273 . S
O62 Cd60 2.411 . S
O62 C65 1.320 . S
O63 Cd60 2.333 . S
O63 C65 1.214 . S
O64 Cd60 2.352 . S
O64 C67 1.258 . S
C65 O62 1.320 . S
C65 O63 1.214 . S
O66 Cd58 2.277 . S
O66 C61 1.209 . S
C67 O64 1.258 . S
C67 O69 1.282 . S
O68 Cd60 2.277 . S
O68 C61 1.226 . S
O69 Cd60 2.356 . S
O69 C67 1.282 . S
C70 O71 1.306 . S
C70 O73 1.160 . S
O71 C70 1.306 . S
O71 Cd72 2.228 . S
Cd72 O71 2.228 . S
Cd72 O76 2.273 . S
Cd72 O80 2.277 . S
O73 C70 1.160 . S
O73 Cd74 2.203 . S
Cd74 O73 2.203 . S
Cd74 O76 2.411 . S
Cd74 O77 2.333 . S
Cd74 O78 2.352 . S
Cd74 O82 2.277 . S
Cd74 O83 2.356 . S
C75 O80 1.209 . S
C75 O82 1.226 . S
O76 Cd72 2.273 . S
O76 Cd74 2.411 . S
O76 C79 1.320 . S
O77 Cd74 2.333 . S
O77 C79 1.214 . S
O78 Cd74 2.352 . S
O78 C81 1.258 . S
C79 O76 1.320 . S
C79 O77 1.214 . S
O80 Cd72 2.277 . S
O80 C75 1.209 . S
C81 O78 1.258 . S
C81 O83 1.282 . S
O82 Cd74 2.277 . S
O82 C75 1.226 . S
O83 Cd74 2.356 . S
O83 C81 1.282 . S
C84 O85 1.306 . S
C84 O87 1.160 . S
O85 C84 1.306 . S
O85 Cd86 2.228 . S
Cd86 O85 2.228 . S
Cd86 O90 2.273 . S
Cd86 O94 2.277 . S
O87 C84 1.160 . S
O87 Cd88 2.203 . S
Cd88 O87 2.203 . S
Cd88 O90 2.411 . S
Cd88 O91 2.333 . S
Cd88 O92 2.352 . S
Cd88 O96 2.277 . S
Cd88 O97 2.356 . S
C89 O94 1.209 . S
C89 O96 1.226 . S
O90 Cd86 2.273 . S
O90 Cd88 2.411 . S
O90 C93 1.320 . S
O91 Cd88 2.333 . S
O91 C93 1.214 . S
O92 Cd88 2.352 . S
O92 C95 1.258 . S
C93 O90 1.320 . S
C93 O91 1.214 . S
O94 Cd86 2.277 . S
O94 C89 1.209 . S
C95 O92 1.258 . S
C95 O97 1.282 . S
O96 Cd88 2.277 . S
O96 C89 1.226 . S
O97 Cd88 2.356 . S
O97 C95 1.282 . S
C98 O99 1.306 . S
C98 O101 1.160 . S
O99 C98 1.306 . S
O99 Cd100 2.228 . S
Cd100 O99 2.228 . S
Cd100 O104 2.273 . S
Cd100 O108 2.277 . S
O101 C98 1.160 . S
O101 Cd102 2.203 . S
Cd102 O101 2.203 . S
Cd102 O104 2.411 . S
Cd102 O105 2.333 . S
Cd102 O106 2.352 . S
Cd102 O110 2.277 . S
Cd102 O111 2.356 . S
C103 O108 1.209 . S
C103 O110 1.226 . S
O104 Cd100 2.273 . S
O104 Cd102 2.411 . S
O104 C107 1.320 . S
O105 Cd102 2.333 . S
O105 C107 1.214 . S
O106 Cd102 2.352 . S
O106 C109 1.258 . S
C107 O104 1.320 . S
C107 O105 1.214 . S
O108 Cd100 2.277 . S
O108 C103 1.209 . S
C109 O106 1.258 . S
C109 O111 1.282 . S
O110 Cd102 2.277 . S
O110 C103 1.226 . S
O111 Cd102 2.356 . S
O111 C109 1.282 . S
C112 O113 1.306 . S
C112 O115 1.160 . S
O113 C112 1.306 . S
O113 Cd114 2.228 . S
Cd114 O113 2.228 . S
Cd114 O118 2.273 . S
Cd114 O122 2.277 . S
O115 C112 1.160 . S
O115 Cd116 2.203 . S
Cd116 O115 2.203 . S
Cd116 O118 2.411 . S
Cd116 O119 2.333 . S
Cd116 O120 2.352 . S
Cd116 O124 2.277 . S
Cd116 O125 2.356 . S
C117 O122 1.209 . S
C117 O124 1.226 . S
O118 Cd114 2.273 . S
O118 Cd116 2.411 . S
O118 C121 1.320 . S
O119 Cd116 2.333 . S
O119 C121 1.214 . S
O120 Cd116 2.352 . S
O120 C123 1.258 . S
C121 O118 1.320 . S
C121 O119 1.214 . S
O122 Cd114 2.277 . S
O122 C117 1.209 . S
C123 O120 1.258 . S
C123 O125 1.282 . S
O124 Cd116 2.277 . S
O124 C117 1.226 . S
O125 Cd116 2.356 . S
O125 C123 1.282 . S
C126 O127 1.306 . S
C126 O129 1.160 . S
O127 C126 1.306 . S
O127 Cd128 2.228 . S
Cd128 O127 2.228 . S
Cd128 O132 2.273 . S
Cd128 O136 2.277 . S
O129 C126 1.160 . S
O129 Cd130 2.203 . S
Cd130 O129 2.203 . S
Cd130 O132 2.411 . S
Cd130 O133 2.333 . S
Cd130 O134 2.352 . S
Cd130 O138 2.277 . S
Cd130 O139 2.356 . S
C131 O136 1.209 . S
C131 O138 1.226 . S
O132 Cd128 2.273 . S
O132 Cd130 2.411 . S
O132 C135 1.320 . S
O133 Cd130 2.333 . S
O133 C135 1.214 . S
O134 Cd130 2.352 . S
O134 C137 1.258 . S
C135 O132 1.320 . S
C135 O133 1.214 . S
O136 Cd128 2.277 . S
O136 C131 1.209 . S
C137 O134 1.258 . S
C137 O139 1.282 . S
O138 Cd130 2.277 . S
O138 C131 1.226 . S
O139 Cd130 2.356 . S
O139 C137 1.282 . S
C140 O141 1.306 . S
C140 O143 1.160 . S
O141 C140 1.306 . S
O141 Cd142 2.228 . S
Cd142 O141 2.228 . S
Cd142 O146 2.273 . S
Cd142 O150 2.277 . S
O143 C140 1.160 . S
O143 Cd144 2.203 . S
Cd144 O143 2.203 . S
Cd144 O146 2.411 . S
Cd144 O147 2.333 . S
Cd144 O148 2.352 . S
Cd144 O152 2.277 . S
Cd144 O153 2.356 . S
C145 O150 1.209 . S
C145 O152 1.226 . S
O146 Cd142 2.273 . S
O146 Cd144 2.411 . S
O146 C149 1.320 . S
O147 Cd144 2.333 . S
O147 C149 1.214 . S
O148 Cd144 2.352 . S
O148 C151 1.258 . S
C149 O146 1.320 . S
C149 O147 1.214 . S
O150 Cd142 2.277 . S
O150 C145 1.209 . S
C151 O148 1.258 . S
C151 O153 1.282 . S
O152 Cd144 2.277 . S
O152 C145 1.226 . S
O153 Cd144 2.356 . S
O153 C151 1.282 . S
C154 O155 1.306 . S
C154 O157 1.160 . S
O155 C154 1.306 . S
O155 Cd156 2.228 . S
Cd156 O155 2.228 . S
Cd156 O160 2.273 . S
Cd156 O164 2.277 . S
O157 C154 1.160 . S
O157 Cd158 2.203 . S
Cd158 O157 2.203 . S
Cd158 O160 2.411 . S
Cd158 O161 2.333 . S
Cd158 O162 2.352 . S
Cd158 O166 2.277 . S
Cd158 O167 2.356 . S
C159 O164 1.209 . S
C159 O166 1.226 . S
O160 Cd156 2.273 . S
O160 Cd158 2.411 . S
O160 C163 1.320 . S
O161 Cd158 2.333 . S
O161 C163 1.214 . S
O162 Cd158 2.352 . S
O162 C165 1.258 . S
C163 O160 1.320 . S
C163 O161 1.214 . S
O164 Cd156 2.277 . S
O164 C159 1.209 . S
C165 O162 1.258 . S
C165 O167 1.282 . S
O166 Cd158 2.277 . S
O166 C159 1.226 . S
O167 Cd158 2.356 . S
O167 C165 1.282 . S
C168 O169 1.306 . S
C168 O171 1.160 . S
O169 C168 1.306 . S
O169 Cd170 2.228 . S
Cd170 O169 2.228 . S
Cd170 O174 2.273 . S
Cd170 O178 2.277 . S
O171 C168 1.160 . S
O171 Cd172 2.203 . S
Cd172 O171 2.203 . S
Cd172 O174 2.411 . S
Cd172 O175 2.333 . S
Cd172 O176 2.352 . S
Cd172 O180 2.277 . S
Cd172 O181 2.356 . S
C173 O178 1.209 . S
C173 O180 1.226 . S
O174 Cd170 2.273 . S
O174 Cd172 2.411 . S
O174 C177 1.320 . S
O175 Cd172 2.333 . S
O175 C177 1.214 . S
O176 Cd172 2.352 . S
O176 C179 1.258 . S
C177 O174 1.320 . S
C177 O175 1.214 . S
O178 Cd170 2.277 . S
O178 C173 1.209 . S
C179 O176 1.258 . S
C179 O181 1.282 . S
O180 Cd172 2.277 . S
O180 C173 1.226 . S
O181 Cd172 2.356 . S
O181 C179 1.282 . S
C182 O183 1.306 . S
C182 O185 1.160 . S
O183 C182 1.306 . S
O183 Cd184 2.228 . S
Cd184 O183 2.228 . S
Cd184 O188 2.273 . S
Cd184 O192 2.277 . S
O185 C182 1.160 . S
O185 Cd186 2.203 . S
Cd186 O185 2.203 . S
Cd186 O188 2.411 . S
Cd186 O189 2.333 . S
Cd186 O190 2.352 . S
Cd186 O194 2.277 . S
Cd186 O195 2.356 . S
C187 O192 1.209 . S
C187 O194 1.226 . S
O188 Cd184 2.273 . S
O188 Cd186 2.411 . S
O188 C191 1.320 . S
O189 Cd186 2.333 . S
O189 C191 1.214 . S
O190 Cd186 2.352 . S
O190 C193 1.258 . S
C191 O188 1.320 . S
C191 O189 1.214 . S
O192 Cd184 2.277 . S
O192 C187 1.209 . S
C193 O190 1.258 . S
C193 O195 1.282 . S
O194 Cd186 2.277 . S
O194 C187 1.226 . S
O195 Cd186 2.356 . S
O195 C193 1.282 . S
C196 O197 1.306 . S
C196 O199 1.160 . S
O197 C196 1.306 . S
O197 Cd198 2.228 . S
Cd198 O197 2.228 . S
Cd198 O202 2.273 . S
Cd198 O206 2.277 . S
O199 C196 1.160 . S
O199 Cd200 2.203 . S
Cd200 O199 2.203 . S
Cd200 O202 2.411 . S
Cd200 O203 2.333 . S
Cd200 O204 2.352 . S
Cd200 O208 2.277 . S
Cd200 O209 2.356 . S
C201 O206 1.209 . S
C201 O208 1.226 . S
O202 Cd198 2.273 . S
O202 Cd200 2.411 . S
O202 C205 1.320 . S
O203 Cd200 2.333 . S
O203 C205 1.214 . S
O204 Cd200 2.352 . S
O204 C207 1.258 . S
C205 O202 1.320 . S
C205 O203 1.214 . S
O206 Cd198 2.277 . S
O206 C201 1.209 . S
C207 O204 1.258 . S
C207 O209 1.282 . S
O208 Cd200 2.277 . S
O208 C201 1.226 . S
O209 Cd200 2.356 . S
O209 C207 1.282 . S
C210 O211 1.306 . S
C210 O213 1.160 . S
O211 C210 1.306 . S
O211 Cd212 2.228 . S
Cd212 O211 2.228 . S
Cd212 O216 2.273 . S
Cd212 O220 2.277 . S
O213 C210 1.160 . S
O213 Cd214 2.203 . S
Cd214 O213 2.203 . S
Cd214 O216 2.411 . S
Cd214 O217 2.333 . S
Cd214 O218 2.352 . S
Cd214 O222 2.277 . S
Cd214 O223 2.356 . S
C215 O220 1.209 . S
C215 O222 1.226 . S
O216 Cd212 2.273 . S
O216 Cd214 2.411 . S
O216 C219 1.320 . S
O217 Cd214 2.333 . S
O217 C219 1.214 . S
O218 Cd214 2.352 . S
O218 C221 1.258 . S
C219 O216 1.320 . S
C219 O217 1.214 . S
O220 Cd212 2.277 . S
O220 C215 1.209 . S
C221 O218 1.258 . S
C221 O223 1.282 . S
O222 Cd214 2.277 . S
O222 C215 1.226 . S
O223 Cd214 2.356 . S
O223 C221 1.282 . S
C224 O225 1.306 . S
C224 O227 1.160 . S
O225 C224 1.306 . S
O225 Cd226 2.228 . S
Cd226 O225 2.228 . S
Cd226 O230 2.273 . S
Cd226 O234 2.277 . S
O227 C224 1.160 . S
O227 Cd228 2.203 . S
Cd228 O227 2.203 . S
Cd228 O230 2.411 . S
Cd228 O231 2.333 . S
Cd228 O232 2.352 . S
Cd228 O236 2.277 . S
Cd228 O237 2.356 . S
C229 O234 1.209 . S
C229 O236 1.226 . S
O230 Cd226 2.273 . S
O230 Cd228 2.411 . S
O230 C233 1.320 . S
O231 Cd228 2.333 . S
O231 C233 1.214 . S
O232 Cd228 2.352 . S
O232 C235 1.258 . S
C233 O230 1.320 . S
C233 O231 1.214 . S
O234 Cd226 2.277 . S
O234 C229 1.209 . S
C235 O232 1.258 . S
C235 O237 1.282 . S
O236 Cd228 2.277 . S
O236 C229 1.226 . S
O237 Cd228 2.356 . S
O237 C235 1.282 . S
C238 O239 1.306 . S
C238 O241 1.160 . S
O239 C238 1.306 . S
O239 Cd240 2.228 . S
Cd240 O239 2.228 . S
Cd240 O244 2.273 . S
Cd240 O248 2.277 . S
O241 C238 1.160 . S
O241 Cd242 2.203 . S
Cd242 O241 2.203 . S
Cd242 O244 2.411 . S
Cd242 O245 2.333 . S
Cd242 O246 2.352 . S
Cd242 O250 2.277 . S
Cd242 O251 2.356 . S
C243 O248 1.209 . S
C243 O250 1.226 . S
O244 Cd240 2.273 . S
O244 Cd242 2.411 . S
O244 C247 1.320 . S
O245 Cd242 2.333 . S
O245 C247 1.214 . S
O246 Cd242 2.352 . S
O246 C249 1.258 . S
C247 O244 1.320 . S
C247 O245 1.214 . S
O248 Cd240 2.277 . S
O248 C243 1.209 . S
C249 O246 1.258 . S
C249 O251 1.282 . S
O250 Cd242 2.277 . S
O250 C243 1.226 . S
O251 Cd242 2.356 . S
O251 C249 1.282 . S
C252 O253 1.306 . S
C252 O255 1.160 . S
O253 C252 1.306 . S
O253 Cd254 2.228 . S
Cd254 O253 2.228 . S
Cd254 O258 2.273 . S
Cd254 O262 2.277 . S
O255 C252 1.160 . S
O255 Cd256 2.203 . S
Cd256 O255 2.203 . S
Cd256 O258 2.411 . S
Cd256 O259 2.333 . S
Cd256 O260 2.352 . S
Cd256 O264 2.277 . S
Cd256 O265 2.356 . S
C257 O262 1.209 . S
C257 O264 1.226 . S
O258 Cd254 2.273 . S
O258 Cd256 2.411 . S
O258 C261 1.320 . S
O259 Cd256 2.333 . S
O259 C261 1.214 . S
O260 Cd256 2.352 . S
O260 C263 1.258 . S
C261 O258 1.320 . S
C261 O259 1.214 . S
O262 Cd254 2.277 . S
O262 C257 1.209 . S
C263 O260 1.258 . S
C263 O265 1.282 . S
O264 Cd256 2.277 . S
O264 C257 1.226 . S
O265 Cd256 2.356 . S
O265 C263 1.282 . S
C266 O267 1.306 . S
C266 O269 1.160 . S
O267 C266 1.306 . S
O267 Cd268 2.228 . S
Cd268 O267 2.228 . S
Cd268 O272 2.273 . S
Cd268 O276 2.277 . S
O269 C266 1.160 . S
O269 Cd270 2.203 . S
Cd270 O269 2.203 . S
Cd270 O272 2.411 . S
Cd270 O273 2.333 . S
Cd270 O274 2.352 . S
Cd270 O278 2.277 . S
Cd270 O279 2.356 . S
C271 O276 1.209 . S
C271 O278 1.226 . S
O272 Cd268 2.273 . S
O272 Cd270 2.411 . S
O272 C275 1.320 . S
O273 Cd270 2.333 . S
O273 C275 1.214 . S
O274 Cd270 2.352 . S
O274 C277 1.258 . S
C275 O272 1.320 . S
C275 O273 1.214 . S
O276 Cd268 2.277 . S
O276 C271 1.209 . S
C277 O274 1.258 . S
C277 O279 1.282 . S
O278 Cd270 2.277 . S
O278 C271 1.226 . S
O279 Cd270 2.356 . S
O279 C277 1.282 . S
C280 O281 1.306 . S
C280 O283 1.160 . S
O281 C280 1.306 . S
O281 Cd282 2.228 . S
Cd282 O281 2.228 . S
Cd282 O286 2.273 . S
Cd282 O290 2.277 . S
O283 C280 1.160 . S
O283 Cd284 2.203 . S
Cd284 O283 2.203 . S
Cd284 O286 2.411 . S
Cd284 O287 2.333 . S
Cd284 O288 2.352 . S
Cd284 O292 2.277 . S
Cd284 O293 2.356 . S
C285 O290 1.209 . S
C285 O292 1.226 . S
O286 Cd282 2.273 . S
O286 Cd284 2.411 . S
O286 C289 1.320 . S
O287 Cd284 2.333 . S
O287 C289 1.214 . S
O288 Cd284 2.352 . S
O288 C291 1.258 . S
C289 O286 1.320 . S
C289 O287 1.214 . S
O290 Cd282 2.277 . S
O290 C285 1.209 . S
C291 O288 1.258 . S
C291 O293 1.282 . S
O292 Cd284 2.277 . S
O292 C285 1.226 . S
O293 Cd284 2.356 . S
O293 C291 1.282 . S
C294 O295 1.306 . S
C294 O297 1.160 . S
O295 C294 1.306 . S
O295 Cd296 2.228 . S
Cd296 O295 2.228 . S
Cd296 O300 2.273 . S
Cd296 O304 2.277 . S
O297 C294 1.160 . S
O297 Cd298 2.203 . S
Cd298 O297 2.203 . S
Cd298 O300 2.411 . S
Cd298 O301 2.333 . S
Cd298 O302 2.352 . S
Cd298 O306 2.277 . S
Cd298 O307 2.356 . S
C299 O304 1.209 . S
C299 O306 1.226 . S
O300 Cd296 2.273 . S
O300 Cd298 2.411 . S
O300 C303 1.320 . S
O301 Cd298 2.333 . S
O301 C303 1.214 . S
O302 Cd298 2.352 . S
O302 C305 1.258 . S
C303 O300 1.320 . S
C303 O301 1.214 . S
O304 Cd296 2.277 . S
O304 C299 1.209 . S
C305 O302 1.258 . S
C305 O307 1.282 . S
O306 Cd298 2.277 . S
O306 C299 1.226 . S
O307 Cd298 2.356 . S
O307 C305 1.282 . S
C308 O309 1.306 . S
C308 O311 1.160 . S
O309 C308 1.306 . S
O309 Cd310 2.228 . S
Cd310 O309 2.228 . S
Cd310 O314 2.273 . S
Cd310 O318 2.277 . S
O311 C308 1.160 . S
O311 Cd312 2.203 . S
Cd312 O311 2.203 . S
Cd312 O314 2.411 . S
Cd312 O315 2.333 . S
Cd312 O316 2.352 . S
Cd312 O320 2.277 . S
Cd312 O321 2.356 . S
C313 O318 1.209 . S
C313 O320 1.226 . S
O314 Cd310 2.273 . S
O314 Cd312 2.411 . S
O314 C317 1.320 . S
O315 Cd312 2.333 . S
O315 C317 1.214 . S
O316 Cd312 2.352 . S
O316 C319 1.258 . S
C317 O314 1.320 . S
C317 O315 1.214 . S
O318 Cd310 2.277 . S
O318 C313 1.209 . S
C319 O316 1.258 . S
C319 O321 1.282 . S
O320 Cd312 2.277 . S
O320 C313 1.226 . S
O321 Cd312 2.356 . S
O321 C319 1.282 . S
C322 O323 1.306 . S
C322 O325 1.160 . S
O323 C322 1.306 . S
O323 Cd324 2.228 . S
Cd324 O323 2.228 . S
Cd324 O328 2.273 . S
Cd324 O332 2.277 . S
O325 C322 1.160 . S
O325 Cd326 2.203 . S
Cd326 O325 2.203 . S
Cd326 O328 2.411 . S
Cd326 O329 2.333 . S
Cd326 O330 2.352 . S
Cd326 O334 2.277 . S
Cd326 O335 2.356 . S
C327 O332 1.209 . S
C327 O334 1.226 . S
O328 Cd324 2.273 . S
O328 Cd326 2.411 . S
O328 C331 1.320 . S
O329 Cd326 2.333 . S
O329 C331 1.214 . S
O330 Cd326 2.352 . S
O330 C333 1.258 . S
C331 O328 1.320 . S
C331 O329 1.214 . S
O332 Cd324 2.277 . S
O332 C327 1.209 . S
C333 O330 1.258 . S
C333 O335 1.282 . S
O334 Cd326 2.277 . S
O334 C327 1.226 . S
O335 Cd326 2.356 . S
O335 C333 1.282 . S
C336 O337 1.306 . S
C336 O339 1.160 . S
O337 C336 1.306 . S
O337 Cd338 2.228 . S
Cd338 O337 2.228 . S
Cd338 O342 2.273 . S
Cd338 O346 2.277 . S
O339 C336 1.160 . S
O339 Cd340 2.203 . S
Cd340 O339 2.203 . S
Cd340 O342 2.411 . S
Cd340 O343 2.333 . S
Cd340 O344 2.352 . S
Cd340 O348 2.277 . S
Cd340 O349 2.356 . S
C341 O346 1.209 . S
C341 O348 1.226 . S
O342 Cd338 2.273 . S
O342 Cd340 2.411 . S
O342 C345 1.320 . S
O343 Cd340 2.333 . S
O343 C345 1.214 . S
O344 Cd340 2.352 . S
O344 C347 1.258 . S
C345 O342 1.320 . S
C345 O343 1.214 . S
O346 Cd338 2.277 . S
O346 C341 1.209 . S
C347 O344 1.258 . S
C347 O349 1.282 . S
O348 Cd340 2.277 . S
O348 C341 1.226 . S
O349 Cd340 2.356 . S
O349 C347 1.282 . S
C350 O351 1.306 . S
C350 O353 1.160 . S
O351 C350 1.306 . S
O351 Cd352 2.228 . S
Cd352 O351 2.228 . S
Cd352 O356 2.273 . S
Cd352 O360 2.277 . S
O353 C350 1.160 . S
O353 Cd354 2.203 . S
Cd354 O353 2.203 . S
Cd354 O356 2.411 . S
Cd354 O357 2.333 . S
Cd354 O358 2.352 . S
Cd354 O362 2.277 . S
Cd354 O363 2.356 . S
C355 O360 1.209 . S
C355 O362 1.226 . S
O356 Cd352 2.273 . S
O356 Cd354 2.411 . S
O356 C359 1.320 . S
O357 Cd354 2.333 . S
O357 C359 1.214 . S
O358 Cd354 2.352 . S
O358 C361 1.258 . S
C359 O356 1.320 . S
C359 O357 1.214 . S
O360 Cd352 2.277 . S
O360 C355 1.209 . S
C361 O358 1.258 . S
C361 O363 1.282 . S
O362 Cd354 2.277 . S
O362 C355 1.226 . S
O363 Cd354 2.356 . S
O363 C361 1.282 . S
C364 O365 1.306 . S
C364 O367 1.160 . S
O365 C364 1.306 . S
O365 Cd366 2.228 . S
Cd366 O365 2.228 . S
Cd366 O370 2.273 . S
Cd366 O374 2.277 . S
O367 C364 1.160 . S
O367 Cd368 2.203 . S
Cd368 O367 2.203 . S
Cd368 O370 2.411 . S
Cd368 O371 2.333 . S
Cd368 O372 2.352 . S
Cd368 O376 2.277 . S
Cd368 O377 2.356 . S
C369 O374 1.209 . S
C369 O376 1.226 . S
O370 Cd366 2.273 . S
O370 Cd368 2.411 . S
O370 C373 1.320 . S
O371 Cd368 2.333 . S
O371 C373 1.214 . S
O372 Cd368 2.352 . S
O372 C375 1.258 . S
C373 O370 1.320 . S
C373 O371 1.214 . S
O374 Cd366 2.277 . S
O374 C369 1.209 . S
C375 O372 1.258 . S
C375 O377 1.282 . S
O376 Cd368 2.277 . S
O376 C369 1.226 . S
O377 Cd368 2.356 . S
O377 C375 1.282 . S
C378 O379 1.306 . S
C378 O381 1.160 . S
O379 C378 1.306 . S
O379 Cd380 2.228 . S
Cd380 O379 2.228 . S
Cd380 O384 2.273 . S
Cd380 O388 2.277 . S
O381 C378 1.160 . S
O381 Cd382 2.203 . S
Cd382 O381 2.203 . S
Cd382 O384 2.411 . S
Cd382 O385 2.333 . S
Cd382 O386 2.352 . S
Cd382 O390 2.277 . S
Cd382 O391 2.356 . S
C383 O388 1.209 . S
C383 O390 1.226 . S
O384 Cd380 2.273 . S
O384 Cd382 2.411 . S
O384 C387 1.320 . S
O385 Cd382 2.333 . S
O385 C387 1.214 . S
O386 Cd382 2.352 . S
O386 C389 1.258 . S
C387 O384 1.320 . S
C387 O385 1.214 . S
O388 Cd380 2.277 . S
O388 C383 1.209 . S
C389 O386 1.258 . S
C389 O391 1.282 . S
O390 Cd382 2.277 . S
O390 C383 1.226 . S
O391 Cd382 2.356 . S
O391 C389 1.282 . S
C392 O393 1.306 . S
C392 O395 1.160 . S
O393 C392 1.306 . S
O393 Cd394 2.228 . S
Cd394 O393 2.228 . S
Cd394 O398 2.273 . S
Cd394 O402 2.277 . S
O395 C392 1.160 . S
O395 Cd396 2.203 . S
Cd396 O395 2.203 . S
Cd396 O398 2.411 . S
Cd396 O399 2.333 . S
Cd396 O400 2.352 . S
Cd396 O404 2.277 . S
Cd396 O405 2.356 . S
C397 O402 1.209 . S
C397 O404 1.226 . S
O398 Cd394 2.273 . S
O398 Cd396 2.411 . S
O398 C401 1.320 . S
O399 Cd396 2.333 . S
O399 C401 1.214 . S
O400 Cd396 2.352 . S
O400 C403 1.258 . S
C401 O398 1.320 . S
C401 O399 1.214 . S
O402 Cd394 2.277 . S
O402 C397 1.209 . S
C403 O400 1.258 . S
C403 O405 1.282 . S
O404 Cd396 2.277 . S
O404 C397 1.226 . S
O405 Cd396 2.356 . S
O405 C403 1.282 . S
C406 O407 1.306 . S
C406 O409 1.160 . S
O407 C406 1.306 . S
O407 Cd408 2.228 . S
Cd408 O407 2.228 . S
Cd408 O412 2.273 . S
Cd408 O416 2.277 . S
O409 C406 1.160 . S
O409 Cd410 2.203 . S
Cd410 O409 2.203 . S
Cd410 O412 2.411 . S
Cd410 O413 2.333 . S
Cd410 O414 2.352 . S
Cd410 O418 2.277 . S
Cd410 O419 2.356 . S
C411 O416 1.209 . S
C411 O418 1.226 . S
O412 Cd408 2.273 . S
O412 Cd410 2.411 . S
O412 C415 1.320 . S
O413 Cd410 2.333 . S
O413 C415 1.214 . S
O414 Cd410 2.352 . S
O414 C417 1.258 . S
C415 O412 1.320 . S
C415 O413 1.214 . S
O416 Cd408 2.277 . S
O416 C411 1.209 . S
C417 O414 1.258 . S
C417 O419 1.282 . S
O418 Cd410 2.277 . S
O418 C411 1.226 . S
O419 Cd410 2.356 . S
O419 C417 1.282 . S
C420 O421 1.306 . S
C420 O423 1.160 . S
O421 C420 1.306 . S
O421 Cd422 2.228 . S
Cd422 O421 2.228 . S
Cd422 O426 2.273 . S
Cd422 O430 2.277 . S
O423 C420 1.160 . S
O423 Cd424 2.203 . S
Cd424 O423 2.203 . S
Cd424 O426 2.411 . S
Cd424 O427 2.333 . S
Cd424 O428 2.352 . S
Cd424 O432 2.277 . S
Cd424 O433 2.356 . S
C425 O430 1.209 . S
C425 O432 1.226 . S
O426 Cd422 2.273 . S
O426 Cd424 2.411 . S
O426 C429 1.320 . S
O427 Cd424 2.333 . S
O427 C429 1.214 . S
O428 Cd424 2.352 . S
O428 C431 1.258 . S
C429 O426 1.320 . S
C429 O427 1.214 . S
O430 Cd422 2.277 . S
O430 C425 1.209 . S
C431 O428 1.258 . S
C431 O433 1.282 . S
O432 Cd424 2.277 . S
O432 C425 1.226 . S
O433 Cd424 2.356 . S
O433 C431 1.282 . S
C434 O435 1.306 . S
C434 O437 1.160 . S
O435 C434 1.306 . S
O435 Cd436 2.228 . S
Cd436 O435 2.228 . S
Cd436 O440 2.273 . S
Cd436 O444 2.277 . S
O437 C434 1.160 . S
O437 Cd438 2.203 . S
Cd438 O437 2.203 . S
Cd438 O440 2.411 . S
Cd438 O441 2.333 . S
Cd438 O442 2.352 . S
Cd438 O446 2.277 . S
Cd438 O447 2.356 . S
C439 O444 1.209 . S
C439 O446 1.226 . S
O440 Cd436 2.273 . S
O440 Cd438 2.411 . S
O440 C443 1.320 . S
O441 Cd438 2.333 . S
O441 C443 1.214 . S
O442 Cd438 2.352 . S
O442 C445 1.258 . S
C443 O440 1.320 . S
C443 O441 1.214 . S
O444 Cd436 2.277 . S
O444 C439 1.209 . S
C445 O442 1.258 . S
C445 O447 1.282 . S
O446 Cd438 2.277 . S
O446 C439 1.226 . S
O447 Cd438 2.356 . S
O447 C445 1.282 . S
H448 C466 0.951 1_545 S
H449 C468 0.951 . S
H450 C470 0.950 . S
H451 C471 0.950 . S
H452 C473 0.950 . S
H453 C476 0.950 . S
H454 C477 0.950 . S
H455 C479 0.950 . S
H456 C480 0.950 . S
H457 C481 0.951 1_565 S
H458 C483 0.951 . S
H459 C485 0.950 . S
H460 C486 0.950 . S
H461 C488 0.950 . S
H462 C491 0.950 . S
H463 C492 0.950 . S
H464 C494 0.950 . S
H465 C495 0.950 . S
C466 H448 0.951 1_565 S
C466 C467 1.366 . S
C466 C468 1.388 1_565 S
C467 C466 1.366 . S
C467 C471 1.385 . S
C468 H449 0.951 . S
C468 C466 1.388 1_545 S
C468 C469 1.366 1_545 S
C469 C468 1.366 1_565 S
C469 C470 1.414 . S
C469 C472 1.499 . S
C470 H450 0.950 . S
C470 C469 1.414 . S
C470 C471 1.374 . S
C471 H451 0.950 . S
C471 C467 1.385 . S
C471 C470 1.374 . S
C472 C469 1.499 . S
C472 C473 1.373 . S
C472 C474 1.389 1_565 S
C473 H452 0.950 . S
C473 C472 1.373 . S
C473 C489 1.377 . S
C474 C472 1.389 1_545 S
C474 C475 1.524 . S
C474 C488 1.377 . S
C475 C474 1.524 . S
C475 C476 1.397 . S
C475 C480 1.363 . S
C476 H453 0.950 . S
C476 C475 1.397 . S
C476 C477 1.334 . S
C477 H454 0.950 . S
C477 C476 1.334 . S
C477 C478 1.287 . S
C478 C477 1.287 . S
C478 C479 1.524 . S
C478 H497 0.913 . S
C479 H455 0.950 . S
C479 C478 1.524 . S
C479 C480 1.415 . S
C480 H456 0.950 . S
C480 C475 1.363 . S
C480 C479 1.415 . S
C481 H457 0.951 1_545 S
C481 C482 1.366 . S
C481 C483 1.388 1_545 S
C482 C481 1.366 . S
C482 C486 1.385 . S
C483 H458 0.951 . S
C483 C481 1.388 1_565 S
C483 C484 1.366 1_565 S
C484 C483 1.366 1_545 S
C484 C485 1.414 . S
C484 C487 1.499 . S
C485 H459 0.950 . S
C485 C484 1.414 . S
C485 C486 1.374 . S
C486 H460 0.950 . S
C486 C482 1.385 . S
C486 C485 1.374 . S
C487 C484 1.499 . S
C487 C488 1.373 . S
C487 C489 1.389 1_545 S
C488 H461 0.950 . S
C488 C474 1.377 . S
C488 C487 1.373 . S
C489 C473 1.377 . S
C489 C487 1.389 1_565 S
C489 C490 1.524 . S
C490 C489 1.524 . S
C490 C491 1.397 . S
C490 C495 1.363 . S
C491 H462 0.950 . S
C491 C490 1.397 . S
C491 C492 1.334 . S
C492 H463 0.950 . S
C492 C491 1.334 . S
C492 C493 1.287 . S
C493 C492 1.287 . S
C493 C494 1.524 . S
C493 H496 0.999 . S
C494 H464 0.950 . S
C494 C493 1.524 . S
C494 C495 1.415 . S
C495 H465 0.950 . S
C495 C490 1.363 . S
C495 C494 1.415 . S
H496 C493 0.999 . S
H497 C478 0.913 . S
H498 C516 0.951 . S
H499 C518 0.951 . S
H500 C520 0.950 . S
H501 C521 0.950 . S
H502 C523 0.950 . S
H503 C526 0.950 . S
H504 C527 0.950 . S
H505 C529 0.950 . S
H506 C530 0.950 . S
H507 C531 0.951 . S
H508 C533 0.951 . S
H509 C535 0.950 . S
H510 C536 0.950 . S
H511 C538 0.950 . S
H512 C541 0.950 . S
H513 C542 0.950 . S
H514 C544 0.950 . S
H515 C545 0.950 . S
C516 H498 0.951 . S
C516 C517 1.366 . S
C516 C518 1.388 . S
C517 C516 1.366 . S
C517 C521 1.385 . S
C518 H499 0.951 . S
C518 C516 1.388 . S
C518 C519 1.366 . S
C519 C518 1.366 . S
C519 C520 1.414 . S
C519 C522 1.499 . S
C520 H500 0.950 . S
C520 C519 1.414 . S
C520 C521 1.374 . S
C521 H501 0.950 . S
C521 C517 1.385 . S
C521 C520 1.374 . S
C522 C519 1.499 . S
C522 C523 1.373 . S
C522 C524 1.389 . S
C523 H502 0.950 . S
C523 C522 1.373 . S
C523 C539 1.377 . S
C524 C522 1.389 . S
C524 C525 1.524 . S
C524 C538 1.377 . S
C525 C524 1.524 . S
C525 C526 1.397 . S
C525 C530 1.363 . S
C526 H503 0.950 . S
C526 C525 1.397 . S
C526 C527 1.334 . S
C527 H504 0.950 . S
C527 C526 1.334 . S
C527 C528 1.287 . S
C528 C527 1.287 . S
C528 C529 1.524 . S
C528 H547 0.913 . S
C529 H505 0.950 . S
C529 C528 1.524 . S
C529 C530 1.415 . S
C530 H506 0.950 . S
C530 C525 1.363 . S
C530 C529 1.415 . S
C531 H507 0.951 . S
C531 C532 1.366 . S
C531 C533 1.388 . S
C532 C531 1.366 . S
C532 C536 1.385 . S
C533 H508 0.951 . S
C533 C531 1.388 . S
C533 C534 1.366 . S
C534 C533 1.366 . S
C534 C535 1.414 . S
C534 C537 1.499 . S
C535 H509 0.950 . S
C535 C534 1.414 . S
C535 C536 1.374 . S
C536 H510 0.950 . S
C536 C532 1.385 . S
C536 C535 1.374 . S
C537 C534 1.499 . S
C537 C538 1.373 . S
C537 C539 1.389 . S
C538 H511 0.950 . S
C538 C524 1.377 . S
C538 C537 1.373 . S
C539 C523 1.377 . S
C539 C537 1.389 . S
C539 C540 1.524 . S
C540 C539 1.524 . S
C540 C541 1.397 . S
C540 C545 1.363 . S
C541 H512 0.950 . S
C541 C540 1.397 . S
C541 C542 1.334 . S
C542 H513 0.950 . S
C542 C541 1.334 . S
C542 C543 1.287 . S
C543 C542 1.287 . S
C543 C544 1.524 . S
C543 H546 0.999 . S
C544 H514 0.950 . S
C544 C543 1.524 . S
C544 C545 1.415 . S
C545 H515 0.950 . S
C545 C540 1.363 . S
C545 C544 1.415 . S
H546 C543 0.999 . S
H547 C528 0.913 . S
H548 C566 0.951 . S
H549 C568 0.951 . S
H550 C570 0.928 1_565 S
H551 C571 0.950 1_565 S
H552 C573 0.950 . S
H553 C576 0.950 . S
H554 C577 0.950 . S
H555 C579 0.950 . S
H556 C580 0.950 . S
H557 C581 0.951 . S
H558 C583 0.951 . S
H559 C585 0.928 1_545 S
H560 C586 0.950 1_545 S
H561 C588 0.950 . S
H562 C591 0.950 . S
H563 C592 0.950 . S
H564 C594 0.950 . S
H565 C595 0.950 . S
C566 H548 0.951 . S
C566 C567 1.366 . S
C566 C568 1.388 . S
C567 C566 1.366 . S
C567 C571 1.385 . S
C568 H549 0.951 . S
C568 C566 1.388 . S
C568 C569 1.366 . S
C569 C568 1.366 . S
C569 C570 1.429 . S
C569 C572 1.499 . S
C570 H550 0.928 1_545 S
C570 C569 1.429 . S
C570 C571 1.381 . S
C571 H551 0.950 1_545 S
C571 C567 1.385 . S
C571 C570 1.381 . S
C572 C569 1.499 . S
C572 C573 1.373 1_545 S
C572 C574 1.389 . S
C573 H552 0.950 . S
C573 C572 1.373 1_565 S
C573 C589 1.377 . S
C574 C572 1.389 . S
C574 C575 1.524 . S
C574 C588 1.377 . S
C575 C574 1.524 . S
C575 C576 1.397 . S
C575 C580 1.363 . S
C576 H553 0.950 . S
C576 C575 1.397 . S
C576 C577 1.334 . S
C577 H554 0.950 . S
C577 C576 1.334 . S
C577 C578 1.287 . S
C578 C577 1.287 . S
C578 C579 1.524 . S
C578 H597 0.913 . S
C579 H555 0.950 . S
C579 C578 1.524 . S
C579 C580 1.415 . S
C580 H556 0.950 . S
C580 C575 1.363 . S
C580 C579 1.415 . S
C581 H557 0.951 . S
C581 C582 1.366 . S
C581 C583 1.388 . S
C582 C581 1.366 . S
C582 C586 1.385 . S
C583 H558 0.951 . S
C583 C581 1.388 . S
C583 C584 1.366 . S
C584 C583 1.366 . S
C584 C585 1.429 . S
C584 C587 1.499 . S
C585 H559 0.928 1_565 S
C585 C584 1.429 . S
C585 C586 1.381 . S
C586 H560 0.950 1_565 S
C586 C582 1.385 . S
C586 C585 1.381 . S
C587 C584 1.499 . S
C587 C588 1.373 1_565 S
C587 C589 1.389 . S
C588 H561 0.950 . S
C588 C574 1.377 . S
C588 C587 1.373 1_545 S
C589 C573 1.377 . S
C589 C587 1.389 . S
C589 C590 1.524 . S
C590 C589 1.524 . S
C590 C591 1.397 . S
C590 C595 1.363 . S
C591 H562 0.950 . S
C591 C590 1.397 . S
C591 C592 1.334 . S
C592 H563 0.950 . S
C592 C591 1.334 . S
C592 C593 1.287 . S
C593 C592 1.287 . S
C593 C594 1.524 . S
C593 H596 0.999 . S
C594 H564 0.950 . S
C594 C593 1.524 . S
C594 C595 1.415 . S
C595 H565 0.950 . S
C595 C590 1.363 . S
C595 C594 1.415 . S
H596 C593 0.999 . S
H597 C578 0.913 . S
H598 C616 0.951 . S
H599 C618 0.951 . S
H600 C620 0.950 . S
H601 C621 0.950 . S
H602 C623 0.950 . S
H603 C626 0.950 . S
H604 C627 0.950 . S
H605 C629 0.950 . S
H606 C630 0.950 . S
H607 C631 0.951 . S
H608 C633 0.951 . S
H609 C635 0.950 . S
H610 C636 0.950 . S
H611 C638 0.950 . S
H612 C641 0.950 . S
H613 C642 0.950 . S
H614 C644 0.950 . S
H615 C645 0.950 . S
C616 H598 0.951 . S
C616 C617 1.366 . S
C616 C618 1.388 . S
C617 C616 1.366 . S
C617 C621 1.385 . S
C618 H599 0.951 . S
C618 C616 1.388 . S
C618 C619 1.366 . S
C619 C618 1.366 . S
C619 C620 1.414 . S
C619 C622 1.499 . S
C620 H600 0.950 . S
C620 C619 1.414 . S
C620 C621 1.374 . S
C621 H601 0.950 . S
C621 C617 1.385 . S
C621 C620 1.374 . S
C622 C619 1.499 . S
C622 C623 1.373 . S
C622 C624 1.389 . S
C623 H602 0.950 . S
C623 C622 1.373 . S
C623 C639 1.377 1_556 S
C624 C622 1.389 . S
C624 C625 1.524 . S
C624 C638 1.377 1_556 S
C625 C624 1.524 . S
C625 C626 1.397 . S
C625 C630 1.363 . S
C626 H603 0.950 . S
C626 C625 1.397 . S
C626 C627 1.334 . S
C627 H604 0.950 . S
C627 C626 1.334 . S
C627 C628 1.287 . S
C628 C627 1.287 . S
C628 C629 1.524 . S
C628 H647 0.913 . S
C629 H605 0.950 . S
C629 C628 1.524 . S
C629 C630 1.415 . S
C630 H606 0.950 . S
C630 C625 1.363 . S
C630 C629 1.415 . S
C631 H607 0.951 . S
C631 C632 1.366 . S
C631 C633 1.388 . S
C632 C631 1.366 . S
C632 C636 1.385 . S
C633 H608 0.951 . S
C633 C631 1.388 . S
C633 C634 1.366 . S
C634 C633 1.366 . S
C634 C635 1.414 . S
C634 C637 1.499 . S
C635 H609 0.950 . S
C635 C634 1.414 . S
C635 C636 1.374 . S
C636 H610 0.950 . S
C636 C632 1.385 . S
C636 C635 1.374 . S
C637 C634 1.499 . S
C637 C638 1.373 . S
C637 C639 1.389 . S
C638 H611 0.950 . S
C638 C624 1.377 1_554 S
C638 C637 1.373 . S
C639 C623 1.377 1_554 S
C639 C637 1.389 . S
C639 C640 1.524 . S
C640 C639 1.524 . S
C640 C641 1.397 . S
C640 C645 1.363 . S
C641 H612 0.950 . S
C641 C640 1.397 . S
C641 C642 1.334 . S
C642 H613 0.950 . S
C642 C641 1.334 . S
C642 C643 1.287 . S
C643 C642 1.287 . S
C643 C644 1.524 . S
C643 H646 0.999 . S
C644 H614 0.950 . S
C644 C643 1.524 . S
C644 C645 1.415 . S
C645 H615 0.950 . S
C645 C640 1.363 . S
C645 C644 1.415 . S
H646 C643 0.999 . S
H647 C628 0.913 . S
H648 C666 0.951 . S
H649 C668 0.951 . S
H650 C670 0.950 . S
H651 C671 0.950 . S
H652 C673 0.950 . S
H653 C676 0.950 . S
H654 C677 0.950 . S
H655 C679 0.950 . S
H656 C680 0.950 . S
H657 C681 0.951 . S
H658 C683 0.951 . S
H659 C685 0.950 . S
H660 C686 0.950 . S
H661 C688 0.950 . S
H662 C691 0.950 . S
H663 C692 0.950 . S
H664 C694 0.950 . S
H665 C695 0.950 . S
C666 H648 0.951 . S
C666 C667 1.366 . S
C666 C668 1.388 . S
C667 C666 1.366 . S
C667 C671 1.385 . S
C668 H649 0.951 . S
C668 C666 1.388 . S
C668 C669 1.366 . S
C669 C668 1.366 . S
C669 C670 1.414 . S
C669 C672 1.499 . S
C670 H650 0.950 . S
C670 C669 1.414 . S
C670 C671 1.374 . S
C671 H651 0.950 . S
C671 C667 1.385 . S
C671 C670 1.374 . S
C672 C669 1.499 . S
C672 C673 1.373 1_565 S
C672 C674 1.389 . S
C673 H652 0.950 . S
C673 C672 1.373 1_545 S
C673 C689 1.377 . S
C674 C672 1.389 . S
C674 C675 1.524 . S
C674 C688 1.377 . S
C675 C674 1.524 . S
C675 C676 1.397 . S
C675 C680 1.363 . S
C676 H653 0.950 . S
C676 C675 1.397 . S
C676 C677 1.334 . S
C677 H654 0.950 . S
C677 C676 1.334 . S
C677 C678 1.287 . S
C678 C677 1.287 . S
C678 C679 1.524 . S
C678 H697 0.913 . S
C679 H655 0.950 . S
C679 C678 1.524 . S
C679 C680 1.415 . S
C680 H656 0.950 . S
C680 C675 1.363 . S
C680 C679 1.415 . S
C681 H657 0.951 . S
C681 C682 1.366 . S
C681 C683 1.388 . S
C682 C681 1.366 . S
C682 C686 1.385 . S
C683 H658 0.951 . S
C683 C681 1.388 . S
C683 C684 1.366 . S
C684 C683 1.366 . S
C684 C685 1.414 . S
C684 C687 1.499 . S
C685 H659 0.950 . S
C685 C684 1.414 . S
C685 C686 1.374 . S
C686 H660 0.950 . S
C686 C682 1.385 . S
C686 C685 1.374 . S
C687 C684 1.499 . S
C687 C688 1.373 1_545 S
C687 C689 1.389 . S
C688 H661 0.950 . S
C688 C674 1.377 . S
C688 C687 1.373 1_565 S
C689 C673 1.377 . S
C689 C687 1.389 . S
C689 C690 1.524 . S
C690 C689 1.524 . S
C690 C691 1.397 . S
C690 C695 1.363 . S
C691 H662 0.950 . S
C691 C690 1.397 . S
C691 C692 1.334 . S
C692 H663 0.950 . S
C692 C691 1.334 . S
C692 C693 1.287 . S
C693 C692 1.287 . S
C693 C694 1.524 . S
C693 H696 0.999 . S
C694 H664 0.950 . S
C694 C693 1.524 . S
C694 C695 1.415 . S
C695 H665 0.950 . S
C695 C690 1.363 . S
C695 C694 1.415 . S
H696 C693 0.999 . S
H697 C678 0.913 . S
H698 C716 0.951 . S
H699 C718 0.951 . S
H700 C720 0.950 . S
H701 C721 0.950 . S
H702 C723 0.950 . S
H703 C726 0.950 . S
H704 C727 0.950 . S
H705 C729 0.950 . S
H706 C730 0.950 . S
H707 C731 0.951 . S
H708 C733 0.951 . S
H709 C735 0.950 . S
H710 C736 0.950 . S
H711 C738 0.950 . S
H712 C741 0.950 . S
H713 C742 0.950 . S
H714 C744 0.950 . S
H715 C745 0.950 . S
C716 H698 0.951 . S
C716 C717 1.366 . S
C716 C718 1.388 . S
C717 C716 1.366 . S
C717 C721 1.385 . S
C718 H699 0.951 . S
C718 C716 1.388 . S
C718 C719 1.366 . S
C719 C718 1.366 . S
C719 C720 1.414 . S
C719 C722 1.499 . S
C720 H700 0.950 . S
C720 C719 1.414 . S
C720 C721 1.374 . S
C721 H701 0.950 . S
C721 C717 1.385 . S
C721 C720 1.374 . S
C722 C719 1.499 . S
C722 C723 1.373 . S
C722 C724 1.389 . S
C723 H702 0.950 . S
C723 C722 1.373 . S
C723 C739 1.377 . S
C724 C722 1.389 . S
C724 C725 1.524 . S
C724 C738 1.377 . S
C725 C724 1.524 . S
C725 C726 1.397 . S
C725 C730 1.363 . S
C726 H703 0.950 . S
C726 C725 1.397 . S
C726 C727 1.334 . S
C727 H704 0.950 . S
C727 C726 1.334 . S
C727 C728 1.287 . S
C728 C727 1.287 . S
C728 C729 1.524 . S
C728 H747 0.913 . S
C729 H705 0.950 . S
C729 C728 1.524 . S
C729 C730 1.415 . S
C730 H706 0.950 . S
C730 C725 1.363 . S
C730 C729 1.415 . S
C731 H707 0.951 . S
C731 C732 1.366 . S
C731 C733 1.388 . S
C732 C731 1.366 . S
C732 C736 1.385 . S
C733 H708 0.951 . S
C733 C731 1.388 . S
C733 C734 1.366 . S
C734 C733 1.366 . S
C734 C735 1.414 . S
C734 C737 1.499 . S
C735 H709 0.950 . S
C735 C734 1.414 . S
C735 C736 1.374 . S
C736 H710 0.950 . S
C736 C732 1.385 . S
C736 C735 1.374 . S
C737 C734 1.499 . S
C737 C738 1.373 . S
C737 C739 1.389 . S
C738 H711 0.950 . S
C738 C724 1.377 . S
C738 C737 1.373 . S
C739 C723 1.377 . S
C739 C737 1.389 . S
C739 C740 1.524 . S
C740 C739 1.524 . S
C740 C741 1.397 . S
C740 C745 1.363 . S
C741 H712 0.950 . S
C741 C740 1.397 . S
C741 C742 1.334 . S
C742 H713 0.950 . S
C742 C741 1.334 . S
C742 C743 1.287 . S
C743 C742 1.287 . S
C743 C744 1.524 . S
C743 H746 0.999 . S
C744 H714 0.950 . S
C744 C743 1.524 . S
C744 C745 1.415 . S
C745 H715 0.950 . S
C745 C740 1.363 . S
C745 C744 1.415 . S
H746 C743 0.999 . S
H747 C728 0.913 . S
H748 C766 0.951 . S
H749 C768 0.951 . S
H750 C770 0.950 . S
H751 C771 0.950 1_565 S
H752 C773 0.950 . S
H753 C776 0.950 . S
H754 C777 0.950 . S
H755 C779 0.950 . S
H756 C780 0.950 . S
H757 C781 0.951 . S
H758 C783 0.951 . S
H759 C785 0.950 . S
H760 C786 0.950 1_545 S
H761 C788 0.950 . S
H762 C791 0.950 . S
H763 C792 0.950 . S
H764 C794 0.950 . S
H765 C795 0.950 . S
C766 H748 0.951 . S
C766 C767 1.366 . S
C766 C768 1.388 . S
C767 C766 1.366 . S
C767 C771 1.385 . S
C768 H749 0.951 . S
C768 C766 1.388 . S
C768 C769 1.366 . S
C769 C768 1.366 . S
C769 C770 1.414 1_545 S
C769 C772 1.499 . S
C770 H750 0.950 . S
C770 C769 1.414 1_565 S
C770 C771 1.374 1_565 S
C771 H751 0.950 1_545 S
C771 C767 1.385 . S
C771 C770 1.374 1_545 S
C772 C769 1.499 . S
C772 C773 1.373 1_545 S
C772 C774 1.389 . S
C773 H752 0.950 . S
C773 C772 1.373 1_565 S
C773 C789 1.377 . S
C774 C772 1.389 . S
C774 C775 1.524 . S
C774 C788 1.377 . S
C775 C774 1.524 . S
C775 C776 1.397 . S
C775 C780 1.363 . S
C776 H753 0.950 . S
C776 C775 1.397 . S
C776 C777 1.334 . S
C777 H754 0.950 . S
C777 C776 1.334 . S
C777 C778 1.287 . S
C778 C777 1.287 . S
C778 C779 1.524 . S
C778 H797 0.913 . S
C779 H755 0.950 . S
C779 C778 1.524 . S
C779 C780 1.415 . S
C780 H756 0.950 . S
C780 C775 1.363 . S
C780 C779 1.415 . S
C781 H757 0.951 . S
C781 C782 1.366 . S
C781 C783 1.388 . S
C782 C781 1.366 . S
C782 C786 1.385 . S
C783 H758 0.951 . S
C783 C781 1.388 . S
C783 C784 1.366 . S
C784 C783 1.366 . S
C784 C785 1.414 1_565 S
C784 C787 1.499 . S
C785 H759 0.950 . S
C785 C784 1.414 1_545 S
C785 C786 1.374 1_545 S
C786 H760 0.950 1_565 S
C786 C782 1.385 . S
C786 C785 1.374 1_565 S
C787 C784 1.499 . S
C787 C788 1.373 1_565 S
C787 C789 1.389 . S
C788 H761 0.950 . S
C788 C774 1.377 . S
C788 C787 1.373 1_545 S
C789 C773 1.377 . S
C789 C787 1.389 . S
C789 C790 1.524 . S
C790 C789 1.524 . S
C790 C791 1.397 . S
C790 C795 1.363 . S
C791 H762 0.950 . S
C791 C790 1.397 . S
C791 C792 1.334 . S
C792 H763 0.950 . S
C792 C791 1.334 . S
C792 C793 1.287 . S
C793 C792 1.287 . S
C793 C794 1.524 . S
C793 H796 0.999 . S
C794 H764 0.950 . S
C794 C793 1.524 . S
C794 C795 1.415 . S
C795 H765 0.950 . S
C795 C790 1.363 . S
C795 C794 1.415 . S
H796 C793 0.999 . S
H797 C778 0.913 . S
H798 C816 0.951 . S
H799 C818 0.951 . S
H800 C820 0.950 . S
H801 C821 0.950 . S
H802 C823 0.950 . S
H803 C826 0.950 . S
H804 C827 0.950 . S
H805 C829 0.950 . S
H806 C830 0.950 1_554 S
H807 C831 0.951 . S
H808 C833 0.951 . S
H809 C835 0.950 . S
H810 C836 0.950 . S
H811 C838 0.950 . S
H812 C841 0.950 . S
H813 C842 0.950 . S
H814 C844 0.950 . S
H815 C845 0.950 1_556 S
C816 H798 0.951 . S
C816 C817 1.366 . S
C816 C818 1.388 . S
C817 C816 1.366 . S
C817 C821 1.385 . S
C818 H799 0.951 . S
C818 C816 1.388 . S
C818 C819 1.366 . S
C819 C818 1.366 . S
C819 C820 1.414 . S
C819 C822 1.499 . S
C820 H800 0.950 . S
C820 C819 1.414 . S
C820 C821 1.374 . S
C821 H801 0.950 . S
C821 C817 1.385 . S
C821 C820 1.374 . S
C822 C819 1.499 . S
C822 C823 1.373 . S
C822 C824 1.389 . S
C823 H802 0.950 . S
C823 C822 1.373 . S
C823 C839 1.377 1_556 S
C824 C822 1.389 . S
C824 C825 1.524 . S
C824 C838 1.377 1_556 S
C825 C824 1.524 . S
C825 C826 1.397 . S
C825 C830 1.363 . S
C826 H803 0.950 . S
C826 C825 1.397 . S
C826 C827 1.334 . S
C827 H804 0.950 . S
C827 C826 1.334 . S
C827 C828 1.287 . S
C828 C827 1.287 . S
C828 C829 1.524 . S
C828 H847 0.913 . S
C829 H805 0.950 . S
C829 C828 1.524 . S
C829 C830 1.415 . S
C830 H806 0.950 1_556 S
C830 C825 1.363 . S
C830 C829 1.415 . S
C831 H807 0.951 . S
C831 C832 1.366 . S
C831 C833 1.388 . S
C832 C831 1.366 . S
C832 C836 1.385 . S
C833 H808 0.951 . S
C833 C831 1.388 . S
C833 C834 1.366 . S
C834 C833 1.366 . S
C834 C835 1.414 . S
C834 C837 1.499 . S
C835 H809 0.950 . S
C835 C834 1.414 . S
C835 C836 1.374 . S
C836 H810 0.950 . S
C836 C832 1.385 . S
C836 C835 1.374 . S
C837 C834 1.499 . S
C837 C838 1.373 . S
C837 C839 1.389 . S
C838 H811 0.950 . S
C838 C824 1.377 1_554 S
C838 C837 1.373 . S
C839 C823 1.377 1_554 S
C839 C837 1.389 . S
C839 C840 1.524 . S
C840 C839 1.524 . S
C840 C841 1.397 . S
C840 C845 1.363 . S
C841 H812 0.950 . S
C841 C840 1.397 . S
C841 C842 1.334 . S
C842 H813 0.950 . S
C842 C841 1.334 . S
C842 C843 1.287 . S
C843 C842 1.287 . S
C843 C844 1.524 . S
C843 H846 0.999 . S
C844 H814 0.950 . S
C844 C843 1.524 . S
C844 C845 1.415 . S
C845 H815 0.950 1_554 S
C845 C840 1.363 . S
C845 C844 1.415 . S
H846 C843 0.999 . S
H847 C828 0.913 . S
H848 C866 0.951 . S
H849 C868 0.951 . S
H850 C870 0.950 . S
H851 C871 0.950 . S
H852 C873 0.950 . S
H853 C876 0.950 . S
H854 C877 0.950 . S
H855 C879 0.950 . S
H856 C880 0.950 . S
H857 C881 0.951 . S
H858 C883 0.951 . S
H859 C885 0.950 . S
H860 C886 0.950 . S
H861 C888 0.950 . S
H862 C891 0.950 . S
H863 C892 0.950 . S
H864 C894 0.950 . S
H865 C895 0.950 . S
C866 H848 0.951 . S
C866 C867 1.366 . S
C866 C868 1.388 . S
C867 C866 1.366 . S
C867 C871 1.385 . S
C868 H849 0.951 . S
C868 C866 1.388 . S
C868 C869 1.366 . S
C869 C868 1.366 . S
C869 C870 1.414 . S
C869 C872 1.499 . S
C870 H850 0.950 . S
C870 C869 1.414 . S
C870 C871 1.374 . S
C871 H851 0.950 . S
C871 C867 1.385 . S
C871 C870 1.374 . S
C872 C869 1.499 . S
C872 C873 1.373 . S
C872 C874 1.389 . S
C873 H852 0.950 . S
C873 C872 1.373 . S
C873 C889 1.377 . S
C874 C872 1.389 . S
C874 C875 1.524 . S
C874 C888 1.377 . S
C875 C874 1.524 . S
C875 C876 1.397 . S
C875 C880 1.363 . S
C876 H853 0.950 . S
C876 C875 1.397 . S
C876 C877 1.334 . S
C877 H854 0.950 . S
C877 C876 1.334 . S
C877 C878 1.287 . S
C878 C877 1.287 . S
C878 C879 1.524 . S
C878 H897 0.913 . S
C879 H855 0.950 . S
C879 C878 1.524 . S
C879 C880 1.415 . S
C880 H856 0.950 . S
C880 C875 1.363 . S
C880 C879 1.415 . S
C881 H857 0.951 . S
C881 C882 1.366 . S
C881 C883 1.388 . S
C882 C881 1.366 . S
C882 C886 1.385 . S
C883 H858 0.951 . S
C883 C881 1.388 . S
C883 C884 1.366 . S
C884 C883 1.366 . S
C884 C885 1.414 . S
C884 C887 1.499 . S
C885 H859 0.950 . S
C885 C884 1.414 . S
C885 C886 1.374 . S
C886 H860 0.950 . S
C886 C882 1.385 . S
C886 C885 1.374 . S
C887 C884 1.499 . S
C887 C888 1.373 . S
C887 C889 1.389 . S
C888 H861 0.950 . S
C888 C874 1.377 . S
C888 C887 1.373 . S
C889 C873 1.377 . S
C889 C887 1.389 . S
C889 C890 1.524 . S
C890 C889 1.524 . S
C890 C891 1.397 . S
C890 C895 1.363 . S
C891 H862 0.950 . S
C891 C890 1.397 . S
C891 C892 1.334 . S
C892 H863 0.950 . S
C892 C891 1.334 . S
C892 C893 1.287 . S
C893 C892 1.287 . S
C893 C894 1.524 . S
C893 H896 0.999 . S
C894 H864 0.950 . S
C894 C893 1.524 . S
C894 C895 1.415 . S
C895 H865 0.950 . S
C895 C890 1.363 . S
C895 C894 1.415 . S
H896 C893 0.999 . S
H897 C878 0.913 . S
H898 C916 0.951 . S
H899 C918 0.951 . S
H900 C920 0.950 . S
H901 C921 0.950 . S
H902 C923 0.950 . S
H903 C926 0.950 . S
H904 C927 0.950 . S
H905 C929 0.950 . S
H906 C930 0.950 1_556 S
H907 C931 0.951 . S
H908 C933 0.951 . S
H909 C935 0.950 . S
H910 C936 0.950 . S
H911 C938 0.950 . S
H912 C941 0.950 . S
H913 C942 0.950 . S
H914 C944 0.950 . S
H915 C945 0.950 1_554 S
C916 H898 0.951 . S
C916 C917 1.366 . S
C916 C918 1.388 . S
C917 C916 1.366 . S
C917 C921 1.385 . S
C918 H899 0.951 . S
C918 C916 1.388 . S
C918 C919 1.366 . S
C919 C918 1.366 . S
C919 C920 1.414 . S
C919 C922 1.499 . S
C920 H900 0.950 . S
C920 C919 1.414 . S
C920 C921 1.374 . S
C921 H901 0.950 . S
C921 C917 1.385 . S
C921 C920 1.374 . S
C922 C919 1.499 . S
C922 C923 1.373 . S
C922 C924 1.389 . S
C923 H902 0.950 . S
C923 C922 1.373 . S
C923 C939 1.377 1_554 S
C924 C922 1.389 . S
C924 C925 1.524 . S
C924 C938 1.377 1_554 S
C925 C924 1.524 . S
C925 C926 1.397 . S
C925 C930 1.363 . S
C926 H903 0.950 . S
C926 C925 1.397 . S
C926 C927 1.334 . S
C927 H904 0.950 . S
C927 C926 1.334 . S
C927 C928 1.287 . S
C928 C927 1.287 . S
C928 C929 1.524 . S
C928 H947 0.913 . S
C929 H905 0.950 . S
C929 C928 1.524 . S
C929 C930 1.415 . S
C930 H906 0.950 1_554 S
C930 C925 1.363 . S
C930 C929 1.415 . S
C931 H907 0.951 . S
C931 C932 1.366 . S
C931 C933 1.388 . S
C932 C931 1.366 . S
C932 C936 1.385 . S
C933 H908 0.951 . S
C933 C931 1.388 . S
C933 C934 1.366 . S
C934 C933 1.366 . S
C934 C935 1.414 . S
C934 C937 1.499 . S
C935 H909 0.950 . S
C935 C934 1.414 . S
C935 C936 1.374 . S
C936 H910 0.950 . S
C936 C932 1.385 . S
C936 C935 1.374 . S
C937 C934 1.499 . S
C937 C938 1.373 . S
C937 C939 1.389 . S
C938 H911 0.950 . S
C938 C924 1.377 1_556 S
C938 C937 1.373 . S
C939 C923 1.377 1_556 S
C939 C937 1.389 . S
C939 C940 1.524 . S
C940 C939 1.524 . S
C940 C941 1.397 . S
C940 C945 1.363 . S
C941 H912 0.950 . S
C941 C940 1.397 . S
C941 C942 1.334 . S
C942 H913 0.950 . S
C942 C941 1.334 . S
C942 C943 1.287 . S
C943 C942 1.287 . S
C943 C944 1.524 . S
C943 H946 0.999 . S
C944 H914 0.950 . S
C944 C943 1.524 . S
C944 C945 1.415 . S
C945 H915 0.950 1_556 S
C945 C940 1.363 . S
C945 C944 1.415 . S
H946 C943 0.999 . S
H947 C928 0.913 . S
H948 C966 0.951 . S
H949 C968 0.951 . S
H950 C970 0.950 . S
H951 C971 0.950 . S
H952 C973 0.950 . S
H953 C976 0.950 . S
H954 C977 0.950 . S
H955 C979 0.950 . S
H956 C980 0.950 . S
H957 C981 0.951 . S
H958 C983 0.951 . S
H959 C985 0.950 . S
H960 C986 0.950 . S
H961 C988 0.950 . S
H962 C991 0.950 . S
H963 C992 0.950 . S
H964 C994 0.950 . S
H965 C995 0.950 . S
C966 H948 0.951 . S
C966 C967 1.366 . S
C966 C968 1.388 . S
C967 C966 1.366 . S
C967 C971 1.385 . S
C968 H949 0.951 . S
C968 C966 1.388 . S
C968 C969 1.366 . S
C969 C968 1.366 . S
C969 C970 1.414 . S
C969 C972 1.499 . S
C970 H950 0.950 . S
C970 C969 1.414 . S
C970 C971 1.374 . S
C971 H951 0.950 . S
C971 C967 1.385 . S
C971 C970 1.374 . S
C972 C969 1.499 . S
C972 C973 1.373 . S
C972 C974 1.389 . S
C973 H952 0.950 . S
C973 C972 1.373 . S
C973 C989 1.377 . S
C974 C972 1.389 . S
C974 C975 1.524 . S
C974 C988 1.377 . S
C975 C974 1.524 . S
C975 C976 1.397 . S
C975 C980 1.363 . S
C976 H953 0.950 . S
C976 C975 1.397 . S
C976 C977 1.334 . S
C977 H954 0.950 . S
C977 C976 1.334 . S
C977 C978 1.287 . S
C978 C977 1.287 . S
C978 C979 1.524 . S
C978 H997 0.913 . S
C979 H955 0.950 . S
C979 C978 1.524 . S
C979 C980 1.415 . S
C980 H956 0.950 . S
C980 C975 1.363 . S
C980 C979 1.415 . S
C981 H957 0.951 . S
C981 C982 1.366 . S
C981 C983 1.388 . S
C982 C981 1.366 . S
C982 C986 1.385 . S
C983 H958 0.951 . S
C983 C981 1.388 . S
C983 C984 1.366 . S
C984 C983 1.366 . S
C984 C985 1.414 . S
C984 C987 1.499 . S
C985 H959 0.950 . S
C985 C984 1.414 . S
C985 C986 1.374 . S
C986 H960 0.950 . S
C986 C982 1.385 . S
C986 C985 1.374 . S
C987 C984 1.499 . S
C987 C988 1.373 . S
C987 C989 1.389 . S
C988 H961 0.950 . S
C988 C974 1.377 . S
C988 C987 1.373 . S
C989 C973 1.377 . S
C989 C987 1.389 . S
C989 C990 1.524 . S
C990 C989 1.524 . S
C990 C991 1.397 . S
C990 C995 1.363 . S
C991 H962 0.950 . S
C991 C990 1.397 . S
C991 C992 1.334 . S
C992 H963 0.950 . S
C992 C991 1.334 . S
C992 C993 1.287 . S
C993 C992 1.287 . S
C993 C994 1.524 . S
C993 H996 0.999 . S
C994 H964 0.950 . S
C994 C993 1.524 . S
C994 C995 1.415 . S
C995 H965 0.950 . S
C995 C990 1.363 . S
C995 C994 1.415 . S
H996 C993 0.999 . S
H997 C978 0.913 . S
H998 C1016 0.951 . S
H999 C1018 0.951 . S
H1000 C1020 0.950 . S
H1001 C1021 0.950 . S
H1002 C1023 0.950 . S
H1003 C1026 0.950 . S
H1004 C1027 0.950 . S
H1005 C1029 0.950 . S
H1006 C1030 0.950 . S
H1007 C1031 0.951 . S
H1008 C1033 0.951 . S
H1009 C1035 0.950 . S
H1010 C1036 0.950 . S
H1011 C1038 0.950 . S
H1012 C1041 0.950 . S
H1013 C1042 0.950 . S
H1014 C1044 0.950 . S
H1015 C1045 0.950 . S
C1016 H998 0.951 . S
C1016 C1017 1.366 . S
C1016 C1018 1.388 . S
C1017 C1016 1.366 . S
C1017 C1021 1.385 . S
C1018 H999 0.951 . S
C1018 C1016 1.388 . S
C1018 C1019 1.366 . S
C1019 C1018 1.366 . S
C1019 C1020 1.414 . S
C1019 C1022 1.499 . S
C1020 H1000 0.950 . S
C1020 C1019 1.414 . S
C1020 C1021 1.374 . S
C1021 H1001 0.950 . S
C1021 C1017 1.385 . S
C1021 C1020 1.374 . S
C1022 C1019 1.499 . S
C1022 C1023 1.373 . S
C1022 C1024 1.389 . S
C1023 H1002 0.950 . S
C1023 C1022 1.373 . S
C1023 C1039 1.377 . S
C1024 C1022 1.389 . S
C1024 C1025 1.524 . S
C1024 C1038 1.377 . S
C1025 C1024 1.524 . S
C1025 C1026 1.397 . S
C1025 C1030 1.363 . S
C1026 H1003 0.950 . S
C1026 C1025 1.397 . S
C1026 C1027 1.334 . S
C1027 H1004 0.950 . S
C1027 C1026 1.334 . S
C1027 C1028 1.287 . S
C1028 C1027 1.287 . S
C1028 C1029 1.524 . S
C1028 H1047 0.913 . S
C1029 H1005 0.950 . S
C1029 C1028 1.524 . S
C1029 C1030 1.415 . S
C1030 H1006 0.950 . S
C1030 C1025 1.363 . S
C1030 C1029 1.415 . S
C1031 H1007 0.951 . S
C1031 C1032 1.366 . S
C1031 C1033 1.388 . S
C1032 C1031 1.366 . S
C1032 C1036 1.385 . S
C1033 H1008 0.951 . S
C1033 C1031 1.388 . S
C1033 C1034 1.366 . S
C1034 C1033 1.366 . S
C1034 C1035 1.414 . S
C1034 C1037 1.499 . S
C1035 H1009 0.950 . S
C1035 C1034 1.414 . S
C1035 C1036 1.374 . S
C1036 H1010 0.950 . S
C1036 C1032 1.385 . S
C1036 C1035 1.374 . S
C1037 C1034 1.499 . S
C1037 C1038 1.373 . S
C1037 C1039 1.389 . S
C1038 H1011 0.950 . S
C1038 C1024 1.377 . S
C1038 C1037 1.373 . S
C1039 C1023 1.377 . S
C1039 C1037 1.389 . S
C1039 C1040 1.524 . S
C1040 C1039 1.524 . S
C1040 C1041 1.397 . S
C1040 C1045 1.363 . S
C1041 H1012 0.950 . S
C1041 C1040 1.397 . S
C1041 C1042 1.334 . S
C1042 H1013 0.950 . S
C1042 C1041 1.334 . S
C1042 C1043 1.287 . S
C1043 C1042 1.287 . S
C1043 C1044 1.524 . S
C1043 H1046 0.999 . S
C1044 H1014 0.950 . S
C1044 C1043 1.524 . S
C1044 C1045 1.415 . S
C1045 H1015 0.950 . S
C1045 C1040 1.363 . S
C1045 C1044 1.415 . S
H1046 C1043 0.999 . S
H1047 C1028 0.913 . S
H1048 C1066 0.951 . S
H1049 C1068 0.951 . S
H1050 C1070 0.950 . S
H1051 C1071 0.950 . S
H1052 C1073 0.950 . S
H1053 C1076 0.950 . S
H1054 C1077 0.950 . S
H1055 C1079 0.950 . S
H1056 C1080 0.950 . S
H1057 C1081 0.951 . S
H1058 C1083 0.951 . S
H1059 C1085 0.950 . S
H1060 C1086 0.950 . S
H1061 C1088 0.950 . S
H1062 C1091 0.950 . S
H1063 C1092 0.950 . S
H1064 C1094 0.950 . S
H1065 C1095 0.950 . S
C1066 H1048 0.951 . S
C1066 C1067 1.366 . S
C1066 C1068 1.388 . S
C1067 C1066 1.366 . S
C1067 C1071 1.385 . S
C1068 H1049 0.951 . S
C1068 C1066 1.388 . S
C1068 C1069 1.366 . S
C1069 C1068 1.366 . S
C1069 C1070 1.414 . S
C1069 C1072 1.499 . S
C1070 H1050 0.950 . S
C1070 C1069 1.414 . S
C1070 C1071 1.374 . S
C1071 H1051 0.950 . S
C1071 C1067 1.385 . S
C1071 C1070 1.374 . S
C1072 C1069 1.499 . S
C1072 C1073 1.373 . S
C1072 C1074 1.389 . S
C1073 H1052 0.950 . S
C1073 C1072 1.373 . S
C1073 C1089 1.377 . S
C1074 C1072 1.389 . S
C1074 C1075 1.524 . S
C1074 C1088 1.377 . S
C1075 C1074 1.524 . S
C1075 C1076 1.397 . S
C1075 C1080 1.363 . S
C1076 H1053 0.950 . S
C1076 C1075 1.397 . S
C1076 C1077 1.334 . S
C1077 H1054 0.950 . S
C1077 C1076 1.334 . S
C1077 C1078 1.287 . S
C1078 C1077 1.287 . S
C1078 C1079 1.524 . S
C1078 H1097 0.913 . S
C1079 H1055 0.950 . S
C1079 C1078 1.524 . S
C1079 C1080 1.415 . S
C1080 H1056 0.950 . S
C1080 C1075 1.363 . S
C1080 C1079 1.415 . S
C1081 H1057 0.951 . S
C1081 C1082 1.366 . S
C1081 C1083 1.388 . S
C1082 C1081 1.366 . S
C1082 C1086 1.385 . S
C1083 H1058 0.951 . S
C1083 C1081 1.388 . S
C1083 C1084 1.366 . S
C1084 C1083 1.366 . S
C1084 C1085 1.414 . S
C1084 C1087 1.499 . S
C1085 H1059 0.950 . S
C1085 C1084 1.414 . S
C1085 C1086 1.374 . S
C1086 H1060 0.950 . S
C1086 C1082 1.385 . S
C1086 C1085 1.374 . S
C1087 C1084 1.499 . S
C1087 C1088 1.373 . S
C1087 C1089 1.389 . S
C1088 H1061 0.950 . S
C1088 C1074 1.377 . S
C1088 C1087 1.373 . S
C1089 C1073 1.377 . S
C1089 C1087 1.389 . S
C1089 C1090 1.524 . S
C1090 C1089 1.524 . S
C1090 C1091 1.397 . S
C1090 C1095 1.363 . S
C1091 H1062 0.950 . S
C1091 C1090 1.397 . S
C1091 C1092 1.334 . S
C1092 H1063 0.950 . S
C1092 C1091 1.334 . S
C1092 C1093 1.287 . S
C1093 C1092 1.287 . S
C1093 C1094 1.524 . S
C1093 H1096 0.999 . S
C1094 H1064 0.950 . S
C1094 C1093 1.524 . S
C1094 C1095 1.415 . S
C1095 H1065 0.950 . S
C1095 C1090 1.363 . S
C1095 C1094 1.415 . S
H1096 C1093 0.999 . S
H1097 C1078 0.913 . S
H1098 C1116 0.951 . S
H1099 C1118 0.951 . S
H1100 C1120 0.950 . S
H1101 C1121 0.950 . S
H1102 C1123 0.950 . S
H1103 C1126 0.950 . S
H1104 C1127 0.950 . S
H1105 C1129 0.950 . S
H1106 C1130 0.950 . S
H1107 C1131 0.951 . S
H1108 C1133 0.951 . S
H1109 C1135 0.950 . S
H1110 C1136 0.950 . S
H1111 C1138 0.950 . S
H1112 C1141 0.950 . S
H1113 C1142 0.950 . S
H1114 C1144 0.950 . S
H1115 C1145 0.950 . S
C1116 H1098 0.951 . S
C1116 C1117 1.366 . S
C1116 C1118 1.388 . S
C1117 C1116 1.366 . S
C1117 C1121 1.385 . S
C1118 H1099 0.951 . S
C1118 C1116 1.388 . S
C1118 C1119 1.366 . S
C1119 C1118 1.366 . S
C1119 C1120 1.414 . S
C1119 C1122 1.499 . S
C1120 H1100 0.950 . S
C1120 C1119 1.414 . S
C1120 C1121 1.374 . S
C1121 H1101 0.950 . S
C1121 C1117 1.385 . S
C1121 C1120 1.374 . S
C1122 C1119 1.499 . S
C1122 C1123 1.373 . S
C1122 C1124 1.389 . S
C1123 H1102 0.950 . S
C1123 C1122 1.373 . S
C1123 C1139 1.377 1_554 S
C1124 C1122 1.389 . S
C1124 C1125 1.524 . S
C1124 C1138 1.377 1_554 S
C1125 C1124 1.524 . S
C1125 C1126 1.397 . S
C1125 C1130 1.363 . S
C1126 H1103 0.950 . S
C1126 C1125 1.397 . S
C1126 C1127 1.334 . S
C1127 H1104 0.950 . S
C1127 C1126 1.334 . S
C1127 C1128 1.287 . S
C1128 C1127 1.287 . S
C1128 C1129 1.524 . S
C1128 H1147 0.913 . S
C1129 H1105 0.950 . S
C1129 C1128 1.524 . S
C1129 C1130 1.415 . S
C1130 H1106 0.950 . S
C1130 C1125 1.363 . S
C1130 C1129 1.415 . S
C1131 H1107 0.951 . S
C1131 C1132 1.366 . S
C1131 C1133 1.388 . S
C1132 C1131 1.366 . S
C1132 C1136 1.385 . S
C1133 H1108 0.951 . S
C1133 C1131 1.388 . S
C1133 C1134 1.366 . S
C1134 C1133 1.366 . S
C1134 C1135 1.414 . S
C1134 C1137 1.499 . S
C1135 H1109 0.950 . S
C1135 C1134 1.414 . S
C1135 C1136 1.374 . S
C1136 H1110 0.950 . S
C1136 C1132 1.385 . S
C1136 C1135 1.374 . S
C1137 C1134 1.499 . S
C1137 C1138 1.373 . S
C1137 C1139 1.389 . S
C1138 H1111 0.950 . S
C1138 C1124 1.377 1_556 S
C1138 C1137 1.373 . S
C1139 C1123 1.377 1_556 S
C1139 C1137 1.389 . S
C1139 C1140 1.524 . S
C1140 C1139 1.524 . S
C1140 C1141 1.397 . S
C1140 C1145 1.363 . S
C1141 H1112 0.950 . S
C1141 C1140 1.397 . S
C1141 C1142 1.334 . S
C1142 H1113 0.950 . S
C1142 C1141 1.334 . S
C1142 C1143 1.287 . S
C1143 C1142 1.287 . S
C1143 C1144 1.524 . S
C1143 H1146 0.999 . S
C1144 H1114 0.950 . S
C1144 C1143 1.524 . S
C1144 C1145 1.415 . S
C1145 H1115 0.950 . S
C1145 C1140 1.363 . S
C1145 C1144 1.415 . S
H1146 C1143 0.999 . S
H1147 C1128 0.913 . S
H1148 C1166 0.951 . S
H1149 C1168 0.951 . S
H1150 C1170 0.950 . S
H1151 C1171 0.950 . S
H1152 C1173 0.950 . S
H1153 C1176 0.950 . S
H1154 C1177 0.950 . S
H1155 C1179 0.950 . S
H1156 C1180 0.950 . S
H1157 C1181 0.951 . S
H1158 C1183 0.951 . S
H1159 C1185 0.950 . S
H1160 C1186 0.950 . S
H1161 C1188 0.950 . S
H1162 C1191 0.950 . S
H1163 C1192 0.950 . S
H1164 C1194 0.950 . S
H1165 C1195 0.950 . S
C1166 H1148 0.951 . S
C1166 C1167 1.366 . S
C1166 C1168 1.388 . S
C1167 C1166 1.366 . S
C1167 C1171 1.385 . S
C1168 H1149 0.951 . S
C1168 C1166 1.388 . S
C1168 C1169 1.366 . S
C1169 C1168 1.366 . S
C1169 C1170 1.414 . S
C1169 C1172 1.499 . S
C1170 H1150 0.950 . S
C1170 C1169 1.414 . S
C1170 C1171 1.374 . S
C1171 H1151 0.950 . S
C1171 C1167 1.385 . S
C1171 C1170 1.374 . S
C1172 C1169 1.499 . S
C1172 C1173 1.373 . S
C1172 C1174 1.389 . S
C1173 H1152 0.950 . S
C1173 C1172 1.373 . S
C1173 C1189 1.377 . S
C1174 C1172 1.389 . S
C1174 C1175 1.524 . S
C1174 C1188 1.377 . S
C1175 C1174 1.524 . S
C1175 C1176 1.397 . S
C1175 C1180 1.363 . S
C1176 H1153 0.950 . S
C1176 C1175 1.397 . S
C1176 C1177 1.334 . S
C1177 H1154 0.950 . S
C1177 C1176 1.334 . S
C1177 C1178 1.287 . S
C1178 C1177 1.287 . S
C1178 C1179 1.524 . S
C1178 H1197 0.913 . S
C1179 H1155 0.950 . S
C1179 C1178 1.524 . S
C1179 C1180 1.415 . S
C1180 H1156 0.950 . S
C1180 C1175 1.363 . S
C1180 C1179 1.415 . S
C1181 H1157 0.951 . S
C1181 C1182 1.366 . S
C1181 C1183 1.388 . S
C1182 C1181 1.366 . S
C1182 C1186 1.385 . S
C1183 H1158 0.951 . S
C1183 C1181 1.388 . S
C1183 C1184 1.366 . S
C1184 C1183 1.366 . S
C1184 C1185 1.414 . S
C1184 C1187 1.499 . S
C1185 H1159 0.950 . S
C1185 C1184 1.414 . S
C1185 C1186 1.374 . S
C1186 H1160 0.950 . S
C1186 C1182 1.385 . S
C1186 C1185 1.374 . S
C1187 C1184 1.499 . S
C1187 C1188 1.373 . S
C1187 C1189 1.389 . S
C1188 H1161 0.950 . S
C1188 C1174 1.377 . S
C1188 C1187 1.373 . S
C1189 C1173 1.377 . S
C1189 C1187 1.389 . S
C1189 C1190 1.524 . S
C1190 C1189 1.524 . S
C1190 C1191 1.397 . S
C1190 C1195 1.363 . S
C1191 H1162 0.950 . S
C1191 C1190 1.397 . S
C1191 C1192 1.334 . S
C1192 H1163 0.950 . S
C1192 C1191 1.334 . S
C1192 C1193 1.287 . S
C1193 C1192 1.287 . S
C1193 C1194 1.524 . S
C1193 H1196 0.999 . S
C1194 H1164 0.950 . S
C1194 C1193 1.524 . S
C1194 C1195 1.415 . S
C1195 H1165 0.950 . S
C1195 C1190 1.363 . S
C1195 C1194 1.415 . S
H1196 C1193 0.999 . S
H1197 C1178 0.913 . S
H1198 C1216 0.951 . S
H1199 C1218 0.951 . S
H1200 C1220 0.950 . S
H1201 C1221 0.950 . S
H1202 C1223 0.950 . S
H1203 C1226 0.950 . S
H1204 C1227 0.950 . S
H1205 C1229 0.950 . S
H1206 C1230 0.950 . S
H1207 C1231 0.951 . S
H1208 C1233 0.951 . S
H1209 C1235 0.950 . S
H1210 C1236 0.950 . S
H1211 C1238 0.950 . S
H1212 C1241 0.950 . S
H1213 C1242 0.950 . S
H1214 C1244 0.950 . S
H1215 C1245 0.950 . S
C1216 H1198 0.951 . S
C1216 C1217 1.366 . S
C1216 C1218 1.388 . S
C1217 C1216 1.366 . S
C1217 C1221 1.385 . S
C1218 H1199 0.951 . S
C1218 C1216 1.388 . S
C1218 C1219 1.366 . S
C1219 C1218 1.366 . S
C1219 C1220 1.414 . S
C1219 C1222 1.499 . S
C1220 H1200 0.950 . S
C1220 C1219 1.414 . S
C1220 C1221 1.374 . S
C1221 H1201 0.950 . S
C1221 C1217 1.385 . S
C1221 C1220 1.374 . S
C1222 C1219 1.499 . S
C1222 C1223 1.373 . S
C1222 C1224 1.389 . S
C1223 H1202 0.950 . S
C1223 C1222 1.373 . S
C1223 C1239 1.377 . S
C1224 C1222 1.389 . S
C1224 C1225 1.524 . S
C1224 C1238 1.377 . S
C1225 C1224 1.524 . S
C1225 C1226 1.397 . S
C1225 C1230 1.363 . S
C1226 H1203 0.950 . S
C1226 C1225 1.397 . S
C1226 C1227 1.334 . S
C1227 H1204 0.950 . S
C1227 C1226 1.334 . S
C1227 C1228 1.287 . S
C1228 C1227 1.287 . S
C1228 C1229 1.524 . S
C1228 H1247 0.913 . S
C1229 H1205 0.950 . S
C1229 C1228 1.524 . S
C1229 C1230 1.415 . S
C1230 H1206 0.950 . S
C1230 C1225 1.363 . S
C1230 C1229 1.415 . S
C1231 H1207 0.951 . S
C1231 C1232 1.366 . S
C1231 C1233 1.388 . S
C1232 C1231 1.366 . S
C1232 C1236 1.385 . S
C1233 H1208 0.951 . S
C1233 C1231 1.388 . S
C1233 C1234 1.366 . S
C1234 C1233 1.366 . S
C1234 C1235 1.414 . S
C1234 C1237 1.499 . S
C1235 H1209 0.950 . S
C1235 C1234 1.414 . S
C1235 C1236 1.374 . S
C1236 H1210 0.950 . S
C1236 C1232 1.385 . S
C1236 C1235 1.374 . S
C1237 C1234 1.499 . S
C1237 C1238 1.373 . S
C1237 C1239 1.389 . S
C1238 H1211 0.950 . S
C1238 C1224 1.377 . S
C1238 C1237 1.373 . S
C1239 C1223 1.377 . S
C1239 C1237 1.389 . S
C1239 C1240 1.524 . S
C1240 C1239 1.524 . S
C1240 C1241 1.397 . S
C1240 C1245 1.363 . S
C1241 H1212 0.950 . S
C1241 C1240 1.397 . S
C1241 C1242 1.334 . S
C1242 H1213 0.950 . S
C1242 C1241 1.334 . S
C1242 C1243 1.287 . S
C1243 C1242 1.287 . S
C1243 C1244 1.524 . S
C1243 H1246 0.999 . S
C1244 H1214 0.950 . S
C1244 C1243 1.524 . S
C1244 C1245 1.415 . S
C1245 H1215 0.950 . S
C1245 C1240 1.363 . S
C1245 C1244 1.415 . S
H1246 C1243 0.999 . S
H1247 C1228 0.913 . S
H1248 C1266 0.951 . S
H1249 C1268 0.951 . S
H1250 C1270 0.950 . S
H1251 C1271 0.950 . S
H1252 C1273 0.950 . S
H1253 C1276 0.950 . S
H1254 C1277 0.950 . S
H1255 C1279 0.950 . S
H1256 C1280 0.950 . S
H1257 C1281 0.951 . S
H1258 C1283 0.951 . S
H1259 C1285 0.950 . S
H1260 C1286 0.950 . S
H1261 C1288 0.950 . S
H1262 C1291 0.950 . S
H1263 C1292 0.950 . S
H1264 C1294 0.950 . S
H1265 C1295 0.950 . S
C1266 H1248 0.951 . S
C1266 C1267 1.366 1_565 S
C1266 C1268 1.388 . S
C1267 C1266 1.366 1_545 S
C1267 C1271 1.385 . S
C1268 H1249 0.951 . S
C1268 C1266 1.388 . S
C1268 C1269 1.366 . S
C1269 C1268 1.366 . S
C1269 C1270 1.414 . S
C1269 C1272 1.499 . S
C1270 H1250 0.950 . S
C1270 C1269 1.414 . S
C1270 C1271 1.374 1_565 S
C1271 H1251 0.950 . S
C1271 C1267 1.385 . S
C1271 C1270 1.374 1_545 S
C1272 C1269 1.499 . S
C1272 C1273 1.373 . S
C1272 C1274 1.389 . S
C1273 H1252 0.950 . S
C1273 C1272 1.373 . S
C1273 C1289 1.377 . S
C1274 C1272 1.389 . S
C1274 C1275 1.524 . S
C1274 C1288 1.377 . S
C1275 C1274 1.524 . S
C1275 C1276 1.397 . S
C1275 C1280 1.363 . S
C1276 H1253 0.950 . S
C1276 C1275 1.397 . S
C1276 C1277 1.334 . S
C1277 H1254 0.950 . S
C1277 C1276 1.334 . S
C1277 C1278 1.287 . S
C1278 C1277 1.287 . S
C1278 C1279 1.524 . S
C1278 H1297 0.913 . S
C1279 H1255 0.950 . S
C1279 C1278 1.524 . S
C1279 C1280 1.415 . S
C1280 H1256 0.950 . S
C1280 C1275 1.363 . S
C1280 C1279 1.415 . S
C1281 H1257 0.951 . S
C1281 C1282 1.366 . S
C1281 C1283 1.388 . S
C1282 C1281 1.366 . S
C1282 C1286 1.385 . S
C1283 H1258 0.951 . S
C1283 C1281 1.388 . S
C1283 C1284 1.366 . S
C1284 C1283 1.366 . S
C1284 C1285 1.414 . S
C1284 C1287 1.499 . S
C1285 H1259 0.950 . S
C1285 C1284 1.414 . S
C1285 C1286 1.374 . S
C1286 H1260 0.950 . S
C1286 C1282 1.385 . S
C1286 C1285 1.374 . S
C1287 C1284 1.499 . S
C1287 C1288 1.373 . S
C1287 C1289 1.389 . S
C1288 H1261 0.950 . S
C1288 C1274 1.377 . S
C1288 C1287 1.373 . S
C1289 C1273 1.377 . S
C1289 C1287 1.389 . S
C1289 C1290 1.524 . S
C1290 C1289 1.524 . S
C1290 C1291 1.397 . S
C1290 C1295 1.363 . S
C1291 H1262 0.950 . S
C1291 C1290 1.397 . S
C1291 C1292 1.334 . S
C1292 H1263 0.950 . S
C1292 C1291 1.334 . S
C1292 C1293 1.287 . S
C1293 C1292 1.287 . S
C1293 C1294 1.524 . S
C1293 H1296 0.999 . S
C1294 H1264 0.950 . S
C1294 C1293 1.524 . S
C1294 C1295 1.415 . S
C1295 H1265 0.950 . S
C1295 C1290 1.363 . S
C1295 C1294 1.415 . S
H1296 C1293 0.999 . S
H1297 C1278 0.913 . S
H1298 C1316 0.951 . S
H1299 C1318 0.951 . S
H1300 C1320 0.950 . S
H1301 C1321 0.950 . S
H1302 C1323 0.950 . S
H1303 C1326 0.950 . S
H1304 C1327 0.950 . S
H1305 C1329 0.950 . S
H1306 C1330 0.950 . S
H1307 C1331 0.951 . S
H1308 C1333 0.951 . S
H1309 C1335 0.950 . S
H1310 C1336 0.950 . S
H1311 C1338 0.950 . S
H1312 C1341 0.950 . S
H1313 C1342 0.950 . S
H1314 C1344 0.950 . S
H1315 C1345 0.950 . S
C1316 H1298 0.951 . S
C1316 C1317 1.366 . S
C1316 C1318 1.388 . S
C1317 C1316 1.366 . S
C1317 C1321 1.385 . S
C1318 H1299 0.951 . S
C1318 C1316 1.388 . S
C1318 C1319 1.366 . S
C1319 C1318 1.366 . S
C1319 C1320 1.414 . S
C1319 C1322 1.499 . S
C1320 H1300 0.950 . S
C1320 C1319 1.414 . S
C1320 C1321 1.374 . S
C1321 H1301 0.950 . S
C1321 C1317 1.385 . S
C1321 C1320 1.374 . S
C1322 C1319 1.499 . S
C1322 C1323 1.373 . S
C1322 C1324 1.389 . S
C1323 H1302 0.950 . S
C1323 C1322 1.373 . S
C1323 C1339 1.377 . S
C1324 C1322 1.389 . S
C1324 C1325 1.524 . S
C1324 C1338 1.377 . S
C1325 C1324 1.524 . S
C1325 C1326 1.397 . S
C1325 C1330 1.363 . S
C1326 H1303 0.950 . S
C1326 C1325 1.397 . S
C1326 C1327 1.334 . S
C1327 H1304 0.950 . S
C1327 C1326 1.334 . S
C1327 C1328 1.287 . S
C1328 C1327 1.287 . S
C1328 C1329 1.524 . S
C1328 H1347 0.913 . S
C1329 H1305 0.950 . S
C1329 C1328 1.524 . S
C1329 C1330 1.415 . S
C1330 H1306 0.950 . S
C1330 C1325 1.363 . S
C1330 C1329 1.415 . S
C1331 H1307 0.951 . S
C1331 C1332 1.366 . S
C1331 C1333 1.388 1_565 S
C1332 C1331 1.366 . S
C1332 C1336 1.385 1_565 S
C1333 H1308 0.951 . S
C1333 C1331 1.388 1_545 S
C1333 C1334 1.366 . S
C1334 C1333 1.366 . S
C1334 C1335 1.414 . S
C1334 C1337 1.499 . S
C1335 H1309 0.950 . S
C1335 C1334 1.414 . S
C1335 C1336 1.374 . S
C1336 H1310 0.950 . S
C1336 C1332 1.385 1_545 S
C1336 C1335 1.374 . S
C1337 C1334 1.499 . S
C1337 C1338 1.373 . S
C1337 C1339 1.389 . S
C1338 H1311 0.950 . S
C1338 C1324 1.377 . S
C1338 C1337 1.373 . S
C1339 C1323 1.377 . S
C1339 C1337 1.389 . S
C1339 C1340 1.524 . S
C1340 C1339 1.524 . S
C1340 C1341 1.397 . S
C1340 C1345 1.363 . S
C1341 H1312 0.950 . S
C1341 C1340 1.397 . S
C1341 C1342 1.334 . S
C1342 H1313 0.950 . S
C1342 C1341 1.334 . S
C1342 C1343 1.287 . S
C1343 C1342 1.287 . S
C1343 C1344 1.524 . S
C1343 H1346 0.999 . S
C1344 H1314 0.950 . S
C1344 C1343 1.524 . S
C1344 C1345 1.415 . S
C1345 H1315 0.950 . S
C1345 C1340 1.363 . S
C1345 C1344 1.415 . S
H1346 C1343 0.999 . S
H1347 C1328 0.913 . S
H1348 C1366 0.951 . S
H1349 C1368 0.951 . S
H1350 C1370 0.950 . S
H1351 C1371 0.950 . S
H1352 C1373 0.950 . S
H1353 C1376 0.950 . S
H1354 C1377 0.950 . S
H1355 C1379 0.950 . S
H1356 C1380 0.950 . S
H1357 C1381 0.951 . S
H1358 C1383 0.951 . S
H1359 C1385 0.950 . S
H1360 C1386 0.950 . S
H1361 C1388 0.950 . S
H1362 C1391 0.950 . S
H1363 C1392 0.950 . S
H1364 C1394 0.950 . S
H1365 C1395 0.950 . S
C1366 H1348 0.951 . S
C1366 C1367 1.366 . S
C1366 C1368 1.388 1_565 S
C1367 C1366 1.366 . S
C1367 C1371 1.385 1_565 S
C1368 H1349 0.951 . S
C1368 C1366 1.388 1_545 S
C1368 C1369 1.366 . S
C1369 C1368 1.366 . S
C1369 C1370 1.414 . S
C1369 C1372 1.499 . S
C1370 H1350 0.950 . S
C1370 C1369 1.414 . S
C1370 C1371 1.374 . S
C1371 H1351 0.950 . S
C1371 C1367 1.385 1_545 S
C1371 C1370 1.374 . S
C1372 C1369 1.499 . S
C1372 C1373 1.373 . S
C1372 C1374 1.389 . S
C1373 H1352 0.950 . S
C1373 C1372 1.373 . S
C1373 C1389 1.377 . S
C1374 C1372 1.389 . S
C1374 C1375 1.524 . S
C1374 C1388 1.377 . S
C1375 C1374 1.524 . S
C1375 C1376 1.397 . S
C1375 C1380 1.363 . S
C1376 H1353 0.950 . S
C1376 C1375 1.397 . S
C1376 C1377 1.334 . S
C1377 H1354 0.950 . S
C1377 C1376 1.334 . S
C1377 C1378 1.287 . S
C1378 C1377 1.287 . S
C1378 C1379 1.524 . S
C1378 H1397 0.913 . S
C1379 H1355 0.950 . S
C1379 C1378 1.524 . S
C1379 C1380 1.415 . S
C1380 H1356 0.950 . S
C1380 C1375 1.363 . S
C1380 C1379 1.415 . S
C1381 H1357 0.951 . S
C1381 C1382 1.366 . S
C1381 C1383 1.388 . S
C1382 C1381 1.366 . S
C1382 C1386 1.385 . S
C1383 H1358 0.951 . S
C1383 C1381 1.388 . S
C1383 C1384 1.366 . S
C1384 C1383 1.366 . S
C1384 C1385 1.414 . S
C1384 C1387 1.499 . S
C1385 H1359 0.950 . S
C1385 C1384 1.414 . S
C1385 C1386 1.374 . S
C1386 H1360 0.950 . S
C1386 C1382 1.385 . S
C1386 C1385 1.374 . S
C1387 C1384 1.499 . S
C1387 C1388 1.373 . S
C1387 C1389 1.389 . S
C1388 H1361 0.950 . S
C1388 C1374 1.377 . S
C1388 C1387 1.373 . S
C1389 C1373 1.377 . S
C1389 C1387 1.389 . S
C1389 C1390 1.524 . S
C1390 C1389 1.524 . S
C1390 C1391 1.397 . S
C1390 C1395 1.363 . S
C1391 H1362 0.950 . S
C1391 C1390 1.397 . S
C1391 C1392 1.334 . S
C1392 H1363 0.950 . S
C1392 C1391 1.334 . S
C1392 C1393 1.287 . S
C1393 C1392 1.287 . S
C1393 C1394 1.524 . S
C1393 H1396 0.999 . S
C1394 H1364 0.950 . S
C1394 C1393 1.524 . S
C1394 C1395 1.415 . S
C1395 H1365 0.950 . S
C1395 C1390 1.363 . S
C1395 C1394 1.415 . S
H1396 C1393 0.999 . S
H1397 C1378 0.913 . S
H1398 C1416 0.951 . S
H1399 C1418 0.951 . S
H1400 C1420 0.954 . S
H1401 C1421 0.950 . S
H1402 C1423 0.950 . S
H1403 C1426 0.950 . S
H1404 C1427 0.950 . S
H1405 C1429 0.950 . S
H1406 C1430 0.950 . S
H1407 C1431 0.951 . S
H1408 C1433 0.951 . S
H1409 C1435 0.950 . S
H1410 C1436 0.950 . S
H1411 C1438 0.950 . S
H1412 C1441 0.950 . S
H1413 C1442 0.950 . S
H1414 C1444 0.955 . S
H1415 C1445 0.950 . S
C1416 H1398 0.951 . S
C1416 C1417 1.366 1_565 S
C1416 C1418 1.388 . S
C1417 C1416 1.366 1_545 S
C1417 C1421 1.385 . S
C1418 H1399 0.951 . S
C1418 C1416 1.388 . S
C1418 C1419 1.366 . S
C1419 C1418 1.366 . S
C1419 C1420 1.414 . S
C1419 C1422 1.499 . S
C1420 H1400 0.954 . S
C1420 C1419 1.414 . S
C1420 C1421 1.374 1_565 S
C1421 H1401 0.950 . S
C1421 C1417 1.385 . S
C1421 C1420 1.374 1_545 S
C1422 C1419 1.499 . S
C1422 C1423 1.373 . S
C1422 C1424 1.389 . S
C1423 H1402 0.950 . S
C1423 C1422 1.373 . S
C1423 C1439 1.377 . S
C1424 C1422 1.389 . S
C1424 C1425 1.524 . S
C1424 C1438 1.377 . S
C1425 C1424 1.524 . S
C1425 C1426 1.397 . S
C1425 C1430 1.363 . S
C1426 H1403 0.950 . S
C1426 C1425 1.397 . S
C1426 C1427 1.334 . S
C1427 H1404 0.950 . S
C1427 C1426 1.334 . S
C1427 C1428 1.287 . S
C1428 C1427 1.287 . S
C1428 C1429 1.524 . S
C1428 H1447 0.913 . S
C1429 H1405 0.950 . S
C1429 C1428 1.524 . S
C1429 C1430 1.415 . S
C1430 H1406 0.950 . S
C1430 C1425 1.363 . S
C1430 C1429 1.415 . S
C1431 H1407 0.951 . S
C1431 C1432 1.366 . S
C1431 C1433 1.388 . S
C1432 C1431 1.366 . S
C1432 C1436 1.385 . S
C1433 H1408 0.951 . S
C1433 C1431 1.388 . S
C1433 C1434 1.366 . S
C1434 C1433 1.366 . S
C1434 C1435 1.414 . S
C1434 C1437 1.499 . S
C1435 H1409 0.950 . S
C1435 C1434 1.414 . S
C1435 C1436 1.374 . S
C1436 H1410 0.950 . S
C1436 C1432 1.385 . S
C1436 C1435 1.374 . S
C1437 C1434 1.499 . S
C1437 C1438 1.373 . S
C1437 C1439 1.389 . S
C1438 H1411 0.950 . S
C1438 C1424 1.377 . S
C1438 C1437 1.373 . S
C1439 C1423 1.377 . S
C1439 C1437 1.389 . S
C1439 C1440 1.524 . S
C1440 C1439 1.524 . S
C1440 C1441 1.397 . S
C1440 C1445 1.363 . S
C1441 H1412 0.950 . S
C1441 C1440 1.397 . S
C1441 C1442 1.334 . S
C1442 H1413 0.950 . S
C1442 C1441 1.334 . S
C1442 C1443 1.287 . S
C1443 C1442 1.287 . S
C1443 C1444 1.524 . S
C1443 H1446 0.999 . S
C1444 H1414 0.955 . S
C1444 C1443 1.524 . S
C1444 C1445 1.415 . S
C1445 H1415 0.950 . S
C1445 C1440 1.363 . S
C1445 C1444 1.415 . S
H1446 C1443 0.999 . S
H1447 C1428 0.913 . S
H1448 C1466 0.951 . S
H1449 C1468 0.951 . S
H1450 C1470 0.950 . S
H1451 C1471 0.950 . S
H1452 C1473 0.950 . S
H1453 C1476 0.950 . S
H1454 C1477 0.950 . S
H1455 C1479 0.950 . S
H1456 C1480 0.950 . S
H1457 C1481 0.951 . S
H1458 C1483 0.951 . S
H1459 C1485 0.940 1_565 S
H1460 C1486 0.950 . S
H1461 C1488 0.950 . S
H1462 C1491 0.950 . S
H1463 C1492 0.950 . S
H1464 C1494 0.950 . S
H1465 C1495 0.950 . S
C1466 H1448 0.951 . S
C1466 C1467 1.366 . S
C1466 C1468 1.388 . S
C1467 C1466 1.366 . S
C1467 C1471 1.385 . S
C1468 H1449 0.951 . S
C1468 C1466 1.388 . S
C1468 C1469 1.366 . S
C1469 C1468 1.366 . S
C1469 C1470 1.414 . S
C1469 C1472 1.499 . S
C1470 H1450 0.950 . S
C1470 C1469 1.414 . S
C1470 C1471 1.374 . S
C1471 H1451 0.950 . S
C1471 C1467 1.385 . S
C1471 C1470 1.374 . S
C1472 C1469 1.499 . S
C1472 C1473 1.373 . S
C1472 C1474 1.389 . S
C1473 H1452 0.950 . S
C1473 C1472 1.373 . S
C1473 C1489 1.377 . S
C1474 C1472 1.389 . S
C1474 C1475 1.524 . S
C1474 C1488 1.377 . S
C1475 C1474 1.524 . S
C1475 C1476 1.397 . S
C1475 C1480 1.363 . S
C1476 H1453 0.950 . S
C1476 C1475 1.397 . S
C1476 C1477 1.334 . S
C1477 H1454 0.950 . S
C1477 C1476 1.334 . S
C1477 C1478 1.287 . S
C1478 C1477 1.287 . S
C1478 C1479 1.524 . S
C1478 H1497 0.913 . S
C1479 H1455 0.950 . S
C1479 C1478 1.524 . S
C1479 C1480 1.415 . S
C1480 H1456 0.950 . S
C1480 C1475 1.363 . S
C1480 C1479 1.415 . S
C1481 H1457 0.951 . S
C1481 C1482 1.366 1_545 S
C1481 C1483 1.388 . S
C1482 C1481 1.366 1_565 S
C1482 C1486 1.385 . S
C1483 H1458 0.951 . S
C1483 C1481 1.388 . S
C1483 C1484 1.366 . S
C1484 C1483 1.366 . S
C1484 C1485 1.452 . S
C1484 C1487 1.499 . S
C1485 H1459 0.940 1_545 S
C1485 C1484 1.452 . S
C1485 C1486 1.348 1_545 S
C1486 H1460 0.950 . S
C1486 C1482 1.385 . S
C1486 C1485 1.348 1_565 S
C1487 C1484 1.499 . S
C1487 C1488 1.373 . S
C1487 C1489 1.389 . S
C1488 H1461 0.950 . S
C1488 C1474 1.377 . S
C1488 C1487 1.373 . S
C1489 C1473 1.377 . S
C1489 C1487 1.389 . S
C1489 C1490 1.524 . S
C1490 C1489 1.524 . S
C1490 C1491 1.397 . S
C1490 C1495 1.363 . S
C1491 H1462 0.950 . S
C1491 C1490 1.397 . S
C1491 C1492 1.334 . S
C1492 H1463 0.950 . S
C1492 C1491 1.334 . S
C1492 C1493 1.287 . S
C1493 C1492 1.287 . S
C1493 C1494 1.524 . S
C1493 H1496 0.999 . S
C1494 H1464 0.950 . S
C1494 C1493 1.524 . S
C1494 C1495 1.415 . S
C1495 H1465 0.950 . S
C1495 C1490 1.363 . S
C1495 C1494 1.415 . S
H1496 C1493 0.999 . S
H1497 C1478 0.913 . S
H1498 C1516 0.951 . S
H1499 C1518 0.951 1_545 S
H1500 C1520 0.950 . S
H1501 C1521 0.950 . S
H1502 C1523 0.950 . S
H1503 C1526 0.950 . S
H1504 C1527 0.947 1_545 S
H1505 C1529 0.950 . S
H1506 C1530 0.950 . S
H1507 C1531 0.951 . S
H1508 C1533 0.951 . S
H1509 C1535 0.950 . S
H1510 C1536 0.950 . S
H1511 C1538 0.950 . S
H1512 C1541 0.950 . S
H1513 C1542 0.950 . S
H1514 C1544 0.950 . S
H1515 C1545 0.950 . S
C1516 H1498 0.951 . S
C1516 C1517 1.366 . S
C1516 C1518 1.388 1_545 S
C1517 C1516 1.366 . S
C1517 C1521 1.385 1_545 S
C1518 H1499 0.951 1_565 S
C1518 C1516 1.388 1_565 S
C1518 C1519 1.366 . S
C1519 C1518 1.366 . S
C1519 C1520 1.414 . S
C1519 C1522 1.499 . S
C1520 H1500 0.950 . S
C1520 C1519 1.414 . S
C1520 C1521 1.374 . S
C1521 H1501 0.950 . S
C1521 C1517 1.385 1_565 S
C1521 C1520 1.374 . S
C1522 C1519 1.499 . S
C1522 C1523 1.373 . S
C1522 C1524 1.389 . S
C1523 H1502 0.950 . S
C1523 C1522 1.373 . S
C1523 C1539 1.377 . S
C1524 C1522 1.389 . S
C1524 C1525 1.524 . S
C1524 C1538 1.377 . S
C1525 C1524 1.524 . S
C1525 C1526 1.397 . S
C1525 C1530 1.363 . S
C1526 H1503 0.950 . S
C1526 C1525 1.397 . S
C1526 C1527 1.353 . S
C1527 H1504 0.947 1_565 S
C1527 C1526 1.353 . S
C1527 C1528 1.272 1_565 S
C1528 C1527 1.272 1_545 S
C1528 C1529 1.524 . S
C1528 H1547 0.913 . S
C1529 H1505 0.950 . S
C1529 C1528 1.524 . S
C1529 C1530 1.415 1_545 S
C1530 H1506 0.950 . S
C1530 C1525 1.363 . S
C1530 C1529 1.415 1_565 S
C1531 H1507 0.951 . S
C1531 C1532 1.366 . S
C1531 C1533 1.388 . S
C1532 C1531 1.366 . S
C1532 C1536 1.385 . S
C1533 H1508 0.951 . S
C1533 C1531 1.388 . S
C1533 C1534 1.366 . S
C1534 C1533 1.366 . S
C1534 C1535 1.414 . S
C1534 C1537 1.499 . S
C1535 H1509 0.950 . S
C1535 C1534 1.414 . S
C1535 C1536 1.374 . S
C1536 H1510 0.950 . S
C1536 C1532 1.385 . S
C1536 C1535 1.374 . S
C1537 C1534 1.499 . S
C1537 C1538 1.373 . S
C1537 C1539 1.389 . S
C1538 H1511 0.950 . S
C1538 C1524 1.377 . S
C1538 C1537 1.373 . S
C1539 C1523 1.377 . S
C1539 C1537 1.389 . S
C1539 C1540 1.524 . S
C1540 C1539 1.524 . S
C1540 C1541 1.397 . S
C1540 C1545 1.363 . S
C1541 H1512 0.950 . S
C1541 C1540 1.397 . S
C1541 C1542 1.334 . S
C1542 H1513 0.950 . S
C1542 C1541 1.334 . S
C1542 C1543 1.287 . S
C1543 C1542 1.287 . S
C1543 C1544 1.524 . S
C1543 H1546 0.999 . S
C1544 H1514 0.950 . S
C1544 C1543 1.524 . S
C1544 C1545 1.415 . S
C1545 H1515 0.950 . S
C1545 C1540 1.363 . S
C1545 C1544 1.415 . S
H1546 C1543 0.999 . S
H1547 C1528 0.913 . S
H1548 C1566 0.951 . S
H1549 C1568 0.951 . S
H1550 C1570 0.950 . S
H1551 C1571 0.950 . S
H1552 C1573 0.950 . S
H1553 C1576 0.950 . S
H1554 C1577 0.950 . S
H1555 C1579 0.950 . S
H1556 C1580 0.950 . S
H1557 C1581 0.951 . S
H1558 C1583 0.951 . S
H1559 C1585 0.945 1_545 S
H1560 C1586 0.950 . S
H1561 C1588 0.950 . S
H1562 C1591 0.950 . S
H1563 C1592 0.950 . S
H1564 C1594 0.950 . S
H1565 C1595 0.950 . S
C1566 H1548 0.951 . S
C1566 C1567 1.366 . S
C1566 C1568 1.388 . S
C1567 C1566 1.366 . S
C1567 C1571 1.385 . S
C1568 H1549 0.951 . S
C1568 C1566 1.388 . S
C1568 C1569 1.366 . S
C1569 C1568 1.366 . S
C1569 C1570 1.414 . S
C1569 C1572 1.499 . S
C1570 H1550 0.950 . S
C1570 C1569 1.414 . S
C1570 C1571 1.374 . S
C1571 H1551 0.950 . S
C1571 C1567 1.385 . S
C1571 C1570 1.374 . S
C1572 C1569 1.499 . S
C1572 C1573 1.373 . S
C1572 C1574 1.389 . S
C1573 H1552 0.950 . S
C1573 C1572 1.373 . S
C1573 C1589 1.377 . S
C1574 C1572 1.389 . S
C1574 C1575 1.524 . S
C1574 C1588 1.377 . S
C1575 C1574 1.524 . S
C1575 C1576 1.397 . S
C1575 C1580 1.363 . S
C1576 H1553 0.950 . S
C1576 C1575 1.397 . S
C1576 C1577 1.334 . S
C1577 H1554 0.950 . S
C1577 C1576 1.334 . S
C1577 C1578 1.287 . S
C1578 C1577 1.287 . S
C1578 C1579 1.524 . S
C1578 H1597 0.913 . S
C1579 H1555 0.950 . S
C1579 C1578 1.524 . S
C1579 C1580 1.415 . S
C1580 H1556 0.950 . S
C1580 C1575 1.363 . S
C1580 C1579 1.415 . S
C1581 H1557 0.951 . S
C1581 C1582 1.366 1_565 S
C1581 C1583 1.388 . S
C1582 C1581 1.366 1_545 S
C1582 C1586 1.385 . S
C1583 H1558 0.951 . S
C1583 C1581 1.388 . S
C1583 C1584 1.366 . S
C1584 C1583 1.366 . S
C1584 C1585 1.431 . S
C1584 C1587 1.499 . S
C1585 H1559 0.945 1_565 S
C1585 C1584 1.431 . S
C1585 C1586 1.362 1_565 S
C1586 H1560 0.950 . S
C1586 C1582 1.385 . S
C1586 C1585 1.362 1_545 S
C1587 C1584 1.499 . S
C1587 C1588 1.373 . S
C1587 C1589 1.389 . S
C1588 H1561 0.950 . S
C1588 C1574 1.377 . S
C1588 C1587 1.373 . S
C1589 C1573 1.377 . S
C1589 C1587 1.389 . S
C1589 C1590 1.524 . S
C1590 C1589 1.524 . S
C1590 C1591 1.397 . S
C1590 C1595 1.363 . S
C1591 H1562 0.950 . S
C1591 C1590 1.397 . S
C1591 C1592 1.334 . S
C1592 H1563 0.950 . S
C1592 C1591 1.334 . S
C1592 C1593 1.287 . S
C1593 C1592 1.287 . S
C1593 C1594 1.524 . S
C1593 H1596 0.999 . S
C1594 H1564 0.950 . S
C1594 C1593 1.524 . S
C1594 C1595 1.415 . S
C1595 H1565 0.950 . S
C1595 C1590 1.363 . S
C1595 C1594 1.415 . S
H1596 C1593 0.999 . S
H1597 C1578 0.913 . S
H1598 C1616 0.951 . S
H1599 C1618 0.951 . S
H1600 C1620 0.950 . S
H1601 C1621 0.950 . S
H1602 C1623 0.950 . S
H1603 C1626 0.950 . S
H1604 C1627 0.950 . S
H1605 C1629 0.950 . S
H1606 C1630 0.950 . S
H1607 C1631 0.951 . S
H1608 C1633 0.951 . S
H1609 C1635 0.950 . S
H1610 C1636 0.950 . S
H1611 C1638 0.950 . S
H1612 C1641 0.950 . S
H1613 C1642 0.950 . S
H1614 C1644 0.950 . S
H1615 C1645 0.950 . S
C1616 H1598 0.951 . S
C1616 C1617 1.366 . S
C1616 C1618 1.388 . S
C1617 C1616 1.366 . S
C1617 C1621 1.385 . S
C1618 H1599 0.951 . S
C1618 C1616 1.388 . S
C1618 C1619 1.366 . S
C1619 C1618 1.366 . S
C1619 C1620 1.414 . S
C1619 C1622 1.499 . S
C1620 H1600 0.950 . S
C1620 C1619 1.414 . S
C1620 C1621 1.374 . S
C1621 H1601 0.950 . S
C1621 C1617 1.385 . S
C1621 C1620 1.374 . S
C1622 C1619 1.499 . S
C1622 C1623 1.373 . S
C1622 C1624 1.389 . S
C1623 H1602 0.950 . S
C1623 C1622 1.373 . S
C1623 C1639 1.377 . S
C1624 C1622 1.389 . S
C1624 C1625 1.524 . S
C1624 C1638 1.377 . S
C1625 C1624 1.524 . S
C1625 C1626 1.397 . S
C1625 C1630 1.363 . S
C1626 H1603 0.950 . S
C1626 C1625 1.397 . S
C1626 C1627 1.334 . S
C1627 H1604 0.950 . S
C1627 C1626 1.334 . S
C1627 C1628 1.287 . S
C1628 C1627 1.287 . S
C1628 C1629 1.524 . S
C1628 H1647 0.913 . S
C1629 H1605 0.950 . S
C1629 C1628 1.524 . S
C1629 C1630 1.415 . S
C1630 H1606 0.950 . S
C1630 C1625 1.363 . S
C1630 C1629 1.415 . S
C1631 H1607 0.951 . S
C1631 C1632 1.366 1_545 S
C1631 C1633 1.388 . S
C1632 C1631 1.366 1_565 S
C1632 C1636 1.385 . S
C1633 H1608 0.951 . S
C1633 C1631 1.388 . S
C1633 C1634 1.366 . S
C1634 C1633 1.366 . S
C1634 C1635 1.414 . S
C1634 C1637 1.499 . S
C1635 H1609 0.950 . S
C1635 C1634 1.414 . S
C1635 C1636 1.374 1_545 S
C1636 H1610 0.950 . S
C1636 C1632 1.385 . S
C1636 C1635 1.374 1_565 S
C1637 C1634 1.499 . S
C1637 C1638 1.373 . S
C1637 C1639 1.389 . S
C1638 H1611 0.950 . S
C1638 C1624 1.377 . S
C1638 C1637 1.373 . S
C1639 C1623 1.377 . S
C1639 C1637 1.389 . S
C1639 C1640 1.524 . S
C1640 C1639 1.524 . S
C1640 C1641 1.397 . S
C1640 C1645 1.363 . S
C1641 H1612 0.950 . S
C1641 C1640 1.397 . S
C1641 C1642 1.334 . S
C1642 H1613 0.950 . S
C1642 C1641 1.334 . S
C1642 C1643 1.287 . S
C1643 C1642 1.287 . S
C1643 C1644 1.524 . S
C1643 H1646 0.999 . S
C1644 H1614 0.950 . S
C1644 C1643 1.524 . S
C1644 C1645 1.415 . S
C1645 H1615 0.950 . S
C1645 C1640 1.363 . S
C1645 C1644 1.415 . S
H1646 C1643 0.999 . S
H1647 C1628 0.913 . S
H1648 C1666 0.951 . S
H1649 C1668 0.951 . S
H1650 C1670 0.950 . S
H1651 C1671 0.950 . S
H1652 C1673 0.950 . S
H1653 C1676 0.950 . S
H1654 C1677 0.950 . S
H1655 C1679 0.950 . S
H1656 C1680 0.950 . S
H1657 C1681 0.951 . S
H1658 C1683 0.951 . S
H1659 C1685 0.950 . S
H1660 C1686 0.950 . S
H1661 C1688 0.950 . S
H1662 C1691 0.950 . S
H1663 C1692 0.950 . S
H1664 C1694 0.950 . S
H1665 C1695 0.950 . S
C1666 H1648 0.951 . S
C1666 C1667 1.366 . S
C1666 C1668 1.388 . S
C1667 C1666 1.366 . S
C1667 C1671 1.385 . S
C1668 H1649 0.951 . S
C1668 C1666 1.388 . S
C1668 C1669 1.366 . S
C1669 C1668 1.366 . S
C1669 C1670 1.414 . S
C1669 C1672 1.499 . S
C1670 H1650 0.950 . S
C1670 C1669 1.414 . S
C1670 C1671 1.374 . S
C1671 H1651 0.950 . S
C1671 C1667 1.385 . S
C1671 C1670 1.374 . S
C1672 C1669 1.499 . S
C1672 C1673 1.373 . S
C1672 C1674 1.389 . S
C1673 H1652 0.950 . S
C1673 C1672 1.373 . S
C1673 C1689 1.377 . S
C1674 C1672 1.389 . S
C1674 C1675 1.524 . S
C1674 C1688 1.377 . S
C1675 C1674 1.524 . S
C1675 C1676 1.397 . S
C1675 C1680 1.363 . S
C1676 H1653 0.950 . S
C1676 C1675 1.397 . S
C1676 C1677 1.334 . S
C1677 H1654 0.950 . S
C1677 C1676 1.334 . S
C1677 C1678 1.287 . S
C1678 C1677 1.287 . S
C1678 C1679 1.524 . S
C1678 H1697 0.913 . S
C1679 H1655 0.950 . S
C1679 C1678 1.524 . S
C1679 C1680 1.415 . S
C1680 H1656 0.950 . S
C1680 C1675 1.363 . S
C1680 C1679 1.415 . S
C1681 H1657 0.951 . S
C1681 C1682 1.366 . S
C1681 C1683 1.388 . S
C1682 C1681 1.366 . S
C1682 C1686 1.385 . S
C1683 H1658 0.951 . S
C1683 C1681 1.388 . S
C1683 C1684 1.366 . S
C1684 C1683 1.366 . S
C1684 C1685 1.414 . S
C1684 C1687 1.499 . S
C1685 H1659 0.950 . S
C1685 C1684 1.414 . S
C1685 C1686 1.374 . S
C1686 H1660 0.950 . S
C1686 C1682 1.385 . S
C1686 C1685 1.374 . S
C1687 C1684 1.499 . S
C1687 C1688 1.373 . S
C1687 C1689 1.389 . S
C1688 H1661 0.950 . S
C1688 C1674 1.377 . S
C1688 C1687 1.373 . S
C1689 C1673 1.377 . S
C1689 C1687 1.389 . S
C1689 C1690 1.524 . S
C1690 C1689 1.524 . S
C1690 C1691 1.397 . S
C1690 C1695 1.363 . S
C1691 H1662 0.950 . S
C1691 C1690 1.397 . S
C1691 C1692 1.334 . S
C1692 H1663 0.950 . S
C1692 C1691 1.334 . S
C1692 C1693 1.287 . S
C1693 C1692 1.287 . S
C1693 C1694 1.524 . S
C1693 H1696 0.999 . S
C1694 H1664 0.950 . S
C1694 C1693 1.524 . S
C1694 C1695 1.415 . S
C1695 H1665 0.950 . S
C1695 C1690 1.363 . S
C1695 C1694 1.415 . S
H1696 C1693 0.999 . S
H1697 C1678 0.913 . S
H1698 C1716 0.951 . S
H1699 C1718 0.951 . S
H1700 C1720 0.950 . S
H1701 C1721 0.950 . S
H1702 C1723 0.950 . S
H1703 C1726 0.950 . S
H1704 C1727 0.950 . S
H1705 C1729 0.950 . S
H1706 C1730 0.950 . S
H1707 C1731 0.951 . S
H1708 C1733 0.951 . S
H1709 C1735 0.950 . S
H1710 C1736 0.950 . S
H1711 C1738 0.950 . S
H1712 C1741 0.950 . S
H1713 C1742 0.950 . S
H1714 C1744 0.950 . S
H1715 C1745 0.950 . S
C1716 H1698 0.951 . S
C1716 C1717 1.366 . S
C1716 C1718 1.388 . S
C1717 C1716 1.366 . S
C1717 C1721 1.385 . S
C1718 H1699 0.951 . S
C1718 C1716 1.388 . S
C1718 C1719 1.366 . S
C1719 C1718 1.366 . S
C1719 C1720 1.414 . S
C1719 C1722 1.499 . S
C1720 H1700 0.950 . S
C1720 C1719 1.414 . S
C1720 C1721 1.374 . S
C1721 H1701 0.950 . S
C1721 C1717 1.385 . S
C1721 C1720 1.374 . S
C1722 C1719 1.499 . S
C1722 C1723 1.373 . S
C1722 C1724 1.389 . S
C1723 H1702 0.950 . S
C1723 C1722 1.373 . S
C1723 C1739 1.377 . S
C1724 C1722 1.389 . S
C1724 C1725 1.524 . S
C1724 C1738 1.377 . S
C1725 C1724 1.524 . S
C1725 C1726 1.397 . S
C1725 C1730 1.363 . S
C1726 H1703 0.950 . S
C1726 C1725 1.397 . S
C1726 C1727 1.334 . S
C1727 H1704 0.950 . S
C1727 C1726 1.334 . S
C1727 C1728 1.287 . S
C1728 C1727 1.287 . S
C1728 C1729 1.524 . S
C1728 H1747 0.913 . S
C1729 H1705 0.950 . S
C1729 C1728 1.524 . S
C1729 C1730 1.415 . S
C1730 H1706 0.950 . S
C1730 C1725 1.363 . S
C1730 C1729 1.415 . S
C1731 H1707 0.951 . S
C1731 C1732 1.366 . S
C1731 C1733 1.388 . S
C1732 C1731 1.366 . S
C1732 C1736 1.385 . S
C1733 H1708 0.951 . S
C1733 C1731 1.388 . S
C1733 C1734 1.366 . S
C1734 C1733 1.366 . S
C1734 C1735 1.414 . S
C1734 C1737 1.499 . S
C1735 H1709 0.950 . S
C1735 C1734 1.414 . S
C1735 C1736 1.374 . S
C1736 H1710 0.950 . S
C1736 C1732 1.385 . S
C1736 C1735 1.374 . S
C1737 C1734 1.499 . S
C1737 C1738 1.373 . S
C1737 C1739 1.389 . S
C1738 H1711 0.950 . S
C1738 C1724 1.377 . S
C1738 C1737 1.373 . S
C1739 C1723 1.377 . S
C1739 C1737 1.389 . S
C1739 C1740 1.524 . S
C1740 C1739 1.524 . S
C1740 C1741 1.397 . S
C1740 C1745 1.363 . S
C1741 H1712 0.950 . S
C1741 C1740 1.397 . S
C1741 C1742 1.334 . S
C1742 H1713 0.950 . S
C1742 C1741 1.334 . S
C1742 C1743 1.287 . S
C1743 C1742 1.287 . S
C1743 C1744 1.524 . S
C1743 H1746 0.999 . S
C1744 H1714 0.950 . S
C1744 C1743 1.524 . S
C1744 C1745 1.415 . S
C1745 H1715 0.950 . S
C1745 C1740 1.363 . S
C1745 C1744 1.415 . S
H1746 C1743 0.999 . S
H1747 C1728 0.913 . S
H1748 C1766 0.951 . S
H1749 C1768 0.951 . S
H1750 C1770 0.950 . S
H1751 C1771 0.950 . S
H1752 C1773 0.950 . S
H1753 C1776 0.950 . S
H1754 C1777 0.950 . S
H1755 C1779 0.950 . S
H1756 C1780 0.950 . S
H1757 C1781 0.951 . S
H1758 C1783 0.951 . S
H1759 C1785 0.950 . S
H1760 C1786 0.950 . S
H1761 C1788 0.950 . S
H1762 C1791 0.950 . S
H1763 C1792 0.950 . S
H1764 C1794 0.950 . S
H1765 C1795 0.950 . S
C1766 H1748 0.951 . S
C1766 C1767 1.366 . S
C1766 C1768 1.388 . S
C1767 C1766 1.366 . S
C1767 C1771 1.385 . S
C1768 H1749 0.951 . S
C1768 C1766 1.388 . S
C1768 C1769 1.366 . S
C1769 C1768 1.366 . S
C1769 C1770 1.414 . S
C1769 C1772 1.499 . S
C1770 H1750 0.950 . S
C1770 C1769 1.414 . S
C1770 C1771 1.374 . S
C1771 H1751 0.950 . S
C1771 C1767 1.385 . S
C1771 C1770 1.374 . S
C1772 C1769 1.499 . S
C1772 C1773 1.373 . S
C1772 C1774 1.389 . S
C1773 H1752 0.950 . S
C1773 C1772 1.373 . S
C1773 C1789 1.377 . S
C1774 C1772 1.389 . S
C1774 C1775 1.524 . S
C1774 C1788 1.377 . S
C1775 C1774 1.524 . S
C1775 C1776 1.397 . S
C1775 C1780 1.363 . S
C1776 H1753 0.950 . S
C1776 C1775 1.397 . S
C1776 C1777 1.334 . S
C1777 H1754 0.950 . S
C1777 C1776 1.334 . S
C1777 C1778 1.287 . S
C1778 C1777 1.287 . S
C1778 C1779 1.524 . S
C1778 H1797 0.913 . S
C1779 H1755 0.950 . S
C1779 C1778 1.524 . S
C1779 C1780 1.415 . S
C1780 H1756 0.950 . S
C1780 C1775 1.363 . S
C1780 C1779 1.415 . S
C1781 H1757 0.951 . S
C1781 C1782 1.366 . S
C1781 C1783 1.388 . S
C1782 C1781 1.366 . S
C1782 C1786 1.385 . S
C1783 H1758 0.951 . S
C1783 C1781 1.388 . S
C1783 C1784 1.366 . S
C1784 C1783 1.366 . S
C1784 C1785 1.414 . S
C1784 C1787 1.499 . S
C1785 H1759 0.950 . S
C1785 C1784 1.414 . S
C1785 C1786 1.374 . S
C1786 H1760 0.950 . S
C1786 C1782 1.385 . S
C1786 C1785 1.374 . S
C1787 C1784 1.499 . S
C1787 C1788 1.373 . S
C1787 C1789 1.389 . S
C1788 H1761 0.950 . S
C1788 C1774 1.377 . S
C1788 C1787 1.373 . S
C1789 C1773 1.377 . S
C1789 C1787 1.389 . S
C1789 C1790 1.524 . S
C1790 C1789 1.524 . S
C1790 C1791 1.397 . S
C1790 C1795 1.363 . S
C1791 H1762 0.950 . S
C1791 C1790 1.397 . S
C1791 C1792 1.334 . S
C1792 H1763 0.950 . S
C1792 C1791 1.334 . S
C1792 C1793 1.287 . S
C1793 C1792 1.287 . S
C1793 C1794 1.524 . S
C1793 H1796 0.999 . S
C1794 H1764 0.950 . S
C1794 C1793 1.524 . S
C1794 C1795 1.415 . S
C1795 H1765 0.950 . S
C1795 C1790 1.363 . S
C1795 C1794 1.415 . S
H1796 C1793 0.999 . S
H1797 C1778 0.913 . S
H1798 C1816 0.951 . S
H1799 C1818 0.951 . S
H1800 C1820 0.950 . S
H1801 C1821 0.950 . S
H1802 C1823 0.950 . S
H1803 C1826 0.950 . S
H1804 C1827 0.950 . S
H1805 C1829 0.950 . S
H1806 C1830 0.950 . S
H1807 C1831 0.951 . S
H1808 C1833 0.951 . S
H1809 C1835 0.950 . S
H1810 C1836 0.950 . S
H1811 C1838 0.950 . S
H1812 C1841 0.950 . S
H1813 C1842 0.950 . S
H1814 C1844 0.950 . S
H1815 C1845 0.950 . S
C1816 H1798 0.951 . S
C1816 C1817 1.366 . S
C1816 C1818 1.388 . S
C1817 C1816 1.366 . S
C1817 C1821 1.385 . S
C1818 H1799 0.951 . S
C1818 C1816 1.388 . S
C1818 C1819 1.366 . S
C1819 C1818 1.366 . S
C1819 C1820 1.414 . S
C1819 C1822 1.499 . S
C1820 H1800 0.950 . S
C1820 C1819 1.414 . S
C1820 C1821 1.374 . S
C1821 H1801 0.950 . S
C1821 C1817 1.385 . S
C1821 C1820 1.374 . S
C1822 C1819 1.499 . S
C1822 C1823 1.373 . S
C1822 C1824 1.389 . S
C1823 H1802 0.950 . S
C1823 C1822 1.373 . S
C1823 C1839 1.377 . S
C1824 C1822 1.389 . S
C1824 C1825 1.524 . S
C1824 C1838 1.377 . S
C1825 C1824 1.524 . S
C1825 C1826 1.397 . S
C1825 C1830 1.363 . S
C1826 H1803 0.950 . S
C1826 C1825 1.397 . S
C1826 C1827 1.334 . S
C1827 H1804 0.950 . S
C1827 C1826 1.334 . S
C1827 C1828 1.287 . S
C1828 C1827 1.287 . S
C1828 C1829 1.524 . S
C1828 H1847 0.913 . S
C1829 H1805 0.950 . S
C1829 C1828 1.524 . S
C1829 C1830 1.415 . S
C1830 H1806 0.950 . S
C1830 C1825 1.363 . S
C1830 C1829 1.415 . S
C1831 H1807 0.951 . S
C1831 C1832 1.366 . S
C1831 C1833 1.388 . S
C1832 C1831 1.366 . S
C1832 C1836 1.385 . S
C1833 H1808 0.951 . S
C1833 C1831 1.388 . S
C1833 C1834 1.366 . S
C1834 C1833 1.366 . S
C1834 C1835 1.414 . S
C1834 C1837 1.499 . S
C1835 H1809 0.950 . S
C1835 C1834 1.414 . S
C1835 C1836 1.374 . S
C1836 H1810 0.950 . S
C1836 C1832 1.385 . S
C1836 C1835 1.374 . S
C1837 C1834 1.499 . S
C1837 C1838 1.373 . S
C1837 C1839 1.389 . S
C1838 H1811 0.950 . S
C1838 C1824 1.377 . S
C1838 C1837 1.373 . S
C1839 C1823 1.377 . S
C1839 C1837 1.389 . S
C1839 C1840 1.524 . S
C1840 C1839 1.524 . S
C1840 C1841 1.397 . S
C1840 C1845 1.363 . S
C1841 H1812 0.950 . S
C1841 C1840 1.397 . S
C1841 C1842 1.334 . S
C1842 H1813 0.950 . S
C1842 C1841 1.334 . S
C1842 C1843 1.287 . S
C1843 C1842 1.287 . S
C1843 C1844 1.524 . S
C1843 H1846 0.999 . S
C1844 H1814 0.950 . S
C1844 C1843 1.524 . S
C1844 C1845 1.415 . S
C1845 H1815 0.950 . S
C1845 C1840 1.363 . S
C1845 C1844 1.415 . S
H1846 C1843 0.999 . S
H1847 C1828 0.913 . S
H1848 C1866 0.951 . S
H1849 C1868 0.951 . S
H1850 C1870 0.950 . S
H1851 C1871 0.950 . S
H1852 C1873 0.950 . S
H1853 C1876 0.950 . S
H1854 C1877 0.950 . S
H1855 C1879 0.950 . S
H1856 C1880 0.950 . S
H1857 C1881 0.951 . S
H1858 C1883 0.951 . S
H1859 C1885 0.950 . S
H1860 C1886 0.950 . S
H1861 C1888 0.950 . S
H1862 C1891 0.950 . S
H1863 C1892 0.950 . S
H1864 C1894 0.950 . S
H1865 C1895 0.950 . S
C1866 H1848 0.951 . S
C1866 C1867 1.366 . S
C1866 C1868 1.388 . S
C1867 C1866 1.366 . S
C1867 C1871 1.385 . S
C1868 H1849 0.951 . S
C1868 C1866 1.388 . S
C1868 C1869 1.366 . S
C1869 C1868 1.366 . S
C1869 C1870 1.414 . S
C1869 C1872 1.499 . S
C1870 H1850 0.950 . S
C1870 C1869 1.414 . S
C1870 C1871 1.374 . S
C1871 H1851 0.950 . S
C1871 C1867 1.385 . S
C1871 C1870 1.374 . S
C1872 C1869 1.499 . S
C1872 C1873 1.373 . S
C1872 C1874 1.389 . S
C1873 H1852 0.950 . S
C1873 C1872 1.373 . S
C1873 C1889 1.377 . S
C1874 C1872 1.389 . S
C1874 C1875 1.524 . S
C1874 C1888 1.377 . S
C1875 C1874 1.524 . S
C1875 C1876 1.397 . S
C1875 C1880 1.363 . S
C1876 H1853 0.950 . S
C1876 C1875 1.397 . S
C1876 C1877 1.334 . S
C1877 H1854 0.950 . S
C1877 C1876 1.334 . S
C1877 C1878 1.287 . S
C1878 C1877 1.287 . S
C1878 C1879 1.524 . S
C1878 H1897 0.913 . S
C1879 H1855 0.950 . S
C1879 C1878 1.524 . S
C1879 C1880 1.415 . S
C1880 H1856 0.950 . S
C1880 C1875 1.363 . S
C1880 C1879 1.415 . S
C1881 H1857 0.951 . S
C1881 C1882 1.366 . S
C1881 C1883 1.388 . S
C1882 C1881 1.366 . S
C1882 C1886 1.385 . S
C1883 H1858 0.951 . S
C1883 C1881 1.388 . S
C1883 C1884 1.366 . S
C1884 C1883 1.366 . S
C1884 C1885 1.414 . S
C1884 C1887 1.499 . S
C1885 H1859 0.950 . S
C1885 C1884 1.414 . S
C1885 C1886 1.374 . S
C1886 H1860 0.950 . S
C1886 C1882 1.385 . S
C1886 C1885 1.374 . S
C1887 C1884 1.499 . S
C1887 C1888 1.373 . S
C1887 C1889 1.389 . S
C1888 H1861 0.950 . S
C1888 C1874 1.377 . S
C1888 C1887 1.373 . S
C1889 C1873 1.377 . S
C1889 C1887 1.389 . S
C1889 C1890 1.524 . S
C1890 C1889 1.524 . S
C1890 C1891 1.397 . S
C1890 C1895 1.363 . S
C1891 H1862 0.950 . S
C1891 C1890 1.397 . S
C1891 C1892 1.334 . S
C1892 H1863 0.950 . S
C1892 C1891 1.334 . S
C1892 C1893 1.287 . S
C1893 C1892 1.287 . S
C1893 C1894 1.524 . S
C1893 H1896 0.999 . S
C1894 H1864 0.950 . S
C1894 C1893 1.524 . S
C1894 C1895 1.415 . S
C1895 H1865 0.950 . S
C1895 C1890 1.363 . S
C1895 C1894 1.415 . S
H1896 C1893 0.999 . S
H1897 C1878 0.913 . S
H1898 C1916 0.951 . S
H1899 C1918 0.951 . S
H1900 C1920 0.950 . S
H1901 C1921 0.950 . S
H1902 C1923 0.950 . S
H1903 C1926 0.950 . S
H1904 C1927 0.950 . S
H1905 C1929 0.950 . S
H1906 C1930 0.950 . S
H1907 C1931 0.951 . S
H1908 C1933 0.951 . S
H1909 C1935 0.950 . S
H1910 C1936 0.950 . S
H1911 C1938 0.950 . S
H1912 C1941 0.950 . S
H1913 C1942 0.950 . S
H1914 C1944 0.950 . S
H1915 C1945 0.950 . S
C1916 H1898 0.951 . S
C1916 C1917 1.366 . S
C1916 C1918 1.388 . S
C1917 C1916 1.366 . S
C1917 C1921 1.385 . S
C1918 H1899 0.951 . S
C1918 C1916 1.388 . S
C1918 C1919 1.366 . S
C1919 C1918 1.366 . S
C1919 C1920 1.414 . S
C1919 C1922 1.499 . S
C1920 H1900 0.950 . S
C1920 C1919 1.414 . S
C1920 C1921 1.374 . S
C1921 H1901 0.950 . S
C1921 C1917 1.385 . S
C1921 C1920 1.374 . S
C1922 C1919 1.499 . S
C1922 C1923 1.373 . S
C1922 C1924 1.389 . S
C1923 H1902 0.950 . S
C1923 C1922 1.373 . S
C1923 C1939 1.377 . S
C1924 C1922 1.389 . S
C1924 C1925 1.524 . S
C1924 C1938 1.377 . S
C1925 C1924 1.524 . S
C1925 C1926 1.397 . S
C1925 C1930 1.363 . S
C1926 H1903 0.950 . S
C1926 C1925 1.397 . S
C1926 C1927 1.334 . S
C1927 H1904 0.950 . S
C1927 C1926 1.334 . S
C1927 C1928 1.287 . S
C1928 C1927 1.287 . S
C1928 C1929 1.524 . S
C1928 H1947 0.913 . S
C1929 H1905 0.950 . S
C1929 C1928 1.524 . S
C1929 C1930 1.415 . S
C1930 H1906 0.950 . S
C1930 C1925 1.363 . S
C1930 C1929 1.415 . S
C1931 H1907 0.951 . S
C1931 C1932 1.366 . S
C1931 C1933 1.388 . S
C1932 C1931 1.366 . S
C1932 C1936 1.385 . S
C1933 H1908 0.951 . S
C1933 C1931 1.388 . S
C1933 C1934 1.366 . S
C1934 C1933 1.366 . S
C1934 C1935 1.414 . S
C1934 C1937 1.499 . S
C1935 H1909 0.950 . S
C1935 C1934 1.414 . S
C1935 C1936 1.374 . S
C1936 H1910 0.950 . S
C1936 C1932 1.385 . S
C1936 C1935 1.374 . S
C1937 C1934 1.499 . S
C1937 C1938 1.373 . S
C1937 C1939 1.389 . S
C1938 H1911 0.950 . S
C1938 C1924 1.377 . S
C1938 C1937 1.373 . S
C1939 C1923 1.377 . S
C1939 C1937 1.389 . S
C1939 C1940 1.524 . S
C1940 C1939 1.524 . S
C1940 C1941 1.397 . S
C1940 C1945 1.363 . S
C1941 H1912 0.950 . S
C1941 C1940 1.397 . S
C1941 C1942 1.334 . S
C1942 H1913 0.950 . S
C1942 C1941 1.334 . S
C1942 C1943 1.287 . S
C1943 C1942 1.287 . S
C1943 C1944 1.524 . S
C1943 H1946 0.999 . S
C1944 H1914 0.950 . S
C1944 C1943 1.524 . S
C1944 C1945 1.415 . S
C1945 H1915 0.950 . S
C1945 C1940 1.363 . S
C1945 C1944 1.415 . S
H1946 C1943 0.999 . S
H1947 C1928 0.913 . S
H1948 C1966 0.951 . S
H1949 C1968 0.951 . S
H1950 C1970 0.950 . S
H1951 C1971 0.950 . S
H1952 C1973 0.950 . S
H1953 C1976 0.950 . S
H1954 C1977 0.950 . S
H1955 C1979 0.950 . S
H1956 C1980 0.950 . S
H1957 C1981 0.951 . S
H1958 C1983 0.951 . S
H1959 C1985 0.950 . S
H1960 C1986 0.950 . S
H1961 C1988 0.950 . S
H1962 C1991 0.950 . S
H1963 C1992 0.950 . S
H1964 C1994 0.950 . S
H1965 C1995 0.950 . S
C1966 H1948 0.951 . S
C1966 C1967 1.366 . S
C1966 C1968 1.388 . S
C1967 C1966 1.366 . S
C1967 C1971 1.385 . S
C1968 H1949 0.951 . S
C1968 C1966 1.388 . S
C1968 C1969 1.366 . S
C1969 C1968 1.366 . S
C1969 C1970 1.414 . S
C1969 C1972 1.499 . S
C1970 H1950 0.950 . S
C1970 C1969 1.414 . S
C1970 C1971 1.374 . S
C1971 H1951 0.950 . S
C1971 C1967 1.385 . S
C1971 C1970 1.374 . S
C1972 C1969 1.499 . S
C1972 C1973 1.373 . S
C1972 C1974 1.389 . S
C1973 H1952 0.950 . S
C1973 C1972 1.373 . S
C1973 C1989 1.377 . S
C1974 C1972 1.389 . S
C1974 C1975 1.524 . S
C1974 C1988 1.377 . S
C1975 C1974 1.524 . S
C1975 C1976 1.397 . S
C1975 C1980 1.363 . S
C1976 H1953 0.950 . S
C1976 C1975 1.397 . S
C1976 C1977 1.334 . S
C1977 H1954 0.950 . S
C1977 C1976 1.334 . S
C1977 C1978 1.287 . S
C1978 C1977 1.287 . S
C1978 C1979 1.524 . S
C1978 H1997 0.913 . S
C1979 H1955 0.950 . S
C1979 C1978 1.524 . S
C1979 C1980 1.415 . S
C1980 H1956 0.950 . S
C1980 C1975 1.363 . S
C1980 C1979 1.415 . S
C1981 H1957 0.951 . S
C1981 C1982 1.366 . S
C1981 C1983 1.388 . S
C1982 C1981 1.366 . S
C1982 C1986 1.385 . S
C1983 H1958 0.951 . S
C1983 C1981 1.388 . S
C1983 C1984 1.366 . S
C1984 C1983 1.366 . S
C1984 C1985 1.414 . S
C1984 C1987 1.499 . S
C1985 H1959 0.950 . S
C1985 C1984 1.414 . S
C1985 C1986 1.374 . S
C1986 H1960 0.950 . S
C1986 C1982 1.385 . S
C1986 C1985 1.374 . S
C1987 C1984 1.499 . S
C1987 C1988 1.373 . S
C1987 C1989 1.389 . S
C1988 H1961 0.950 . S
C1988 C1974 1.377 . S
C1988 C1987 1.373 . S
C1989 C1973 1.377 . S
C1989 C1987 1.389 . S
C1989 C1990 1.524 . S
C1990 C1989 1.524 . S
C1990 C1991 1.397 . S
C1990 C1995 1.363 . S
C1991 H1962 0.950 . S
C1991 C1990 1.397 . S
C1991 C1992 1.334 . S
C1992 H1963 0.950 . S
C1992 C1991 1.334 . S
C1992 C1993 1.287 . S
C1993 C1992 1.287 . S
C1993 C1994 1.524 . S
C1993 H1996 0.999 . S
C1994 H1964 0.950 . S
C1994 C1993 1.524 . S
C1994 C1995 1.415 . S
C1995 H1965 0.950 . S
C1995 C1990 1.363 . S
C1995 C1994 1.415 . S
H1996 C1993 0.999 . S
H1997 C1978 0.913 . S
H1998 C2016 0.951 . S
H1999 C2018 0.951 . S
H2000 C2020 0.950 . S
H2001 C2021 0.950 . S
H2002 C2023 0.950 . S
H2003 C2026 0.950 . S
H2004 C2027 0.950 . S
H2005 C2029 0.950 . S
H2006 C2030 0.950 . S
H2007 C2031 0.951 . S
H2008 C2033 0.951 . S
H2009 C2035 0.950 . S
H2010 C2036 0.950 . S
H2011 C2038 0.950 . S
H2012 C2041 0.950 . S
H2013 C2042 0.950 . S
H2014 C2044 0.950 . S
H2015 C2045 0.950 . S
C2016 H1998 0.951 . S
C2016 C2017 1.366 . S
C2016 C2018 1.388 . S
C2017 C2016 1.366 . S
C2017 C2021 1.385 . S
C2018 H1999 0.951 . S
C2018 C2016 1.388 . S
C2018 C2019 1.366 . S
C2019 C2018 1.366 . S
C2019 C2020 1.414 . S
C2019 C2022 1.499 . S
C2020 H2000 0.950 . S
C2020 C2019 1.414 . S
C2020 C2021 1.374 . S
C2021 H2001 0.950 . S
C2021 C2017 1.385 . S
C2021 C2020 1.374 . S
C2022 C2019 1.499 . S
C2022 C2023 1.373 . S
C2022 C2024 1.389 . S
C2023 H2002 0.950 . S
C2023 C2022 1.373 . S
C2023 C2039 1.377 . S
C2024 C2022 1.389 . S
C2024 C2025 1.524 . S
C2024 C2038 1.377 . S
C2025 C2024 1.524 . S
C2025 C2026 1.397 . S
C2025 C2030 1.363 . S
C2026 H2003 0.950 . S
C2026 C2025 1.397 . S
C2026 C2027 1.334 . S
C2027 H2004 0.950 . S
C2027 C2026 1.334 . S
C2027 C2028 1.287 . S
C2028 C2027 1.287 . S
C2028 C2029 1.524 . S
C2028 H2047 0.913 . S
C2029 H2005 0.950 . S
C2029 C2028 1.524 . S
C2029 C2030 1.415 . S
C2030 H2006 0.950 . S
C2030 C2025 1.363 . S
C2030 C2029 1.415 . S
C2031 H2007 0.951 . S
C2031 C2032 1.366 . S
C2031 C2033 1.388 . S
C2032 C2031 1.366 . S
C2032 C2036 1.385 . S
C2033 H2008 0.951 . S
C2033 C2031 1.388 . S
C2033 C2034 1.366 . S
C2034 C2033 1.366 . S
C2034 C2035 1.414 . S
C2034 C2037 1.499 . S
C2035 H2009 0.950 . S
C2035 C2034 1.414 . S
C2035 C2036 1.374 . S
C2036 H2010 0.950 . S
C2036 C2032 1.385 . S
C2036 C2035 1.374 . S
C2037 C2034 1.499 . S
C2037 C2038 1.373 . S
C2037 C2039 1.389 . S
C2038 H2011 0.950 . S
C2038 C2024 1.377 . S
C2038 C2037 1.373 . S
C2039 C2023 1.377 . S
C2039 C2037 1.389 . S
C2039 C2040 1.524 . S
C2040 C2039 1.524 . S
C2040 C2041 1.397 . S
C2040 C2045 1.363 . S
C2041 H2012 0.950 . S
C2041 C2040 1.397 . S
C2041 C2042 1.334 . S
C2042 H2013 0.950 . S
C2042 C2041 1.334 . S
C2042 C2043 1.287 . S
C2043 C2042 1.287 . S
C2043 C2044 1.524 . S
C2043 H2046 0.999 . S
C2044 H2014 0.950 . S
C2044 C2043 1.524 . S
C2044 C2045 1.415 . S
C2045 H2015 0.950 . S
C2045 C2040 1.363 . S
C2045 C2044 1.415 . S
H2046 C2043 0.999 . S
H2047 C2028 0.913 . S
H2048 C2066 0.951 . S
H2049 C2068 0.951 . S
H2050 C2070 0.950 . S
H2051 C2071 0.950 . S
H2052 C2073 0.950 . S
H2053 C2076 0.950 . S
H2054 C2077 0.950 . S
H2055 C2079 0.950 . S
H2056 C2080 0.950 . S
H2057 C2081 0.951 . S
H2058 C2083 0.951 . S
H2059 C2085 0.950 . S
H2060 C2086 0.950 . S
H2061 C2088 0.950 . S
H2062 C2091 0.950 . S
H2063 C2092 0.950 . S
H2064 C2094 0.950 . S
H2065 C2095 0.950 . S
C2066 H2048 0.951 . S
C2066 C2067 1.366 . S
C2066 C2068 1.388 . S
C2067 C2066 1.366 . S
C2067 C2071 1.385 . S
C2068 H2049 0.951 . S
C2068 C2066 1.388 . S
C2068 C2069 1.366 . S
C2069 C2068 1.366 . S
C2069 C2070 1.414 . S
C2069 C2072 1.499 . S
C2070 H2050 0.950 . S
C2070 C2069 1.414 . S
C2070 C2071 1.374 . S
C2071 H2051 0.950 . S
C2071 C2067 1.385 . S
C2071 C2070 1.374 . S
C2072 C2069 1.499 . S
C2072 C2073 1.373 . S
C2072 C2074 1.389 . S
C2073 H2052 0.950 . S
C2073 C2072 1.373 . S
C2073 C2089 1.377 . S
C2074 C2072 1.389 . S
C2074 C2075 1.524 . S
C2074 C2088 1.377 . S
C2075 C2074 1.524 . S
C2075 C2076 1.397 . S
C2075 C2080 1.363 . S
C2076 H2053 0.950 . S
C2076 C2075 1.397 . S
C2076 C2077 1.334 . S
C2077 H2054 0.950 . S
C2077 C2076 1.334 . S
C2077 C2078 1.287 . S
C2078 C2077 1.287 . S
C2078 C2079 1.524 . S
C2078 H2097 0.913 . S
C2079 H2055 0.950 . S
C2079 C2078 1.524 . S
C2079 C2080 1.415 . S
C2080 H2056 0.950 . S
C2080 C2075 1.363 . S
C2080 C2079 1.415 . S
C2081 H2057 0.951 . S
C2081 C2082 1.366 . S
C2081 C2083 1.388 . S
C2082 C2081 1.366 . S
C2082 C2086 1.385 . S
C2083 H2058 0.951 . S
C2083 C2081 1.388 . S
C2083 C2084 1.366 . S
C2084 C2083 1.366 . S
C2084 C2085 1.414 . S
C2084 C2087 1.499 . S
C2085 H2059 0.950 . S
C2085 C2084 1.414 . S
C2085 C2086 1.374 . S
C2086 H2060 0.950 . S
C2086 C2082 1.385 . S
C2086 C2085 1.374 . S
C2087 C2084 1.499 . S
C2087 C2088 1.373 . S
C2087 C2089 1.389 . S
C2088 H2061 0.950 . S
C2088 C2074 1.377 . S
C2088 C2087 1.373 . S
C2089 C2073 1.377 . S
C2089 C2087 1.389 . S
C2089 C2090 1.524 . S
C2090 C2089 1.524 . S
C2090 C2091 1.397 . S
C2090 C2095 1.363 . S
C2091 H2062 0.950 . S
C2091 C2090 1.397 . S
C2091 C2092 1.334 . S
C2092 H2063 0.950 . S
C2092 C2091 1.334 . S
C2092 C2093 1.287 . S
C2093 C2092 1.287 . S
C2093 C2094 1.524 . S
C2093 H2096 0.999 . S
C2094 H2064 0.950 . S
C2094 C2093 1.524 . S
C2094 C2095 1.415 . S
C2095 H2065 0.950 . S
C2095 C2090 1.363 . S
C2095 C2094 1.415 . S
H2096 C2093 0.999 . S
H2097 C2078 0.913 . S
H2098 C2116 0.951 . S
H2099 C2118 0.951 . S
H2100 C2120 0.950 . S
H2101 C2121 0.950 . S
H2102 C2123 0.950 . S
H2103 C2126 0.950 . S
H2104 C2127 0.950 . S
H2105 C2129 0.950 . S
H2106 C2130 0.950 . S
H2107 C2131 0.951 . S
H2108 C2133 0.951 . S
H2109 C2135 0.953 . S
H2110 C2136 0.950 . S
H2111 C2138 0.950 . S
H2112 C2141 0.950 . S
H2113 C2142 0.950 . S
H2114 C2144 0.950 . S
H2115 C2145 0.950 . S
C2116 H2098 0.951 . S
C2116 C2117 1.366 . S
C2116 C2118 1.388 . S
C2117 C2116 1.366 . S
C2117 C2121 1.385 . S
C2118 H2099 0.951 . S
C2118 C2116 1.388 . S
C2118 C2119 1.366 . S
C2119 C2118 1.366 . S
C2119 C2120 1.414 . S
C2119 C2122 1.499 . S
C2120 H2100 0.950 . S
C2120 C2119 1.414 . S
C2120 C2121 1.374 . S
C2121 H2101 0.950 . S
C2121 C2117 1.385 . S
C2121 C2120 1.374 . S
C2122 C2119 1.499 . S
C2122 C2123 1.373 . S
C2122 C2124 1.389 . S
C2123 H2102 0.950 . S
C2123 C2122 1.373 . S
C2123 C2139 1.377 . S
C2124 C2122 1.389 . S
C2124 C2125 1.524 . S
C2124 C2138 1.377 . S
C2125 C2124 1.524 . S
C2125 C2126 1.397 . S
C2125 C2130 1.363 . S
C2126 H2103 0.950 . S
C2126 C2125 1.397 . S
C2126 C2127 1.334 . S
C2127 H2104 0.950 . S
C2127 C2126 1.334 . S
C2127 C2128 1.287 . S
C2128 C2127 1.287 . S
C2128 C2129 1.524 . S
C2128 H2147 0.913 . S
C2129 H2105 0.950 . S
C2129 C2128 1.524 . S
C2129 C2130 1.415 . S
C2130 H2106 0.950 . S
C2130 C2125 1.363 . S
C2130 C2129 1.415 . S
C2131 H2107 0.951 . S
C2131 C2132 1.366 . S
C2131 C2133 1.388 1_655 S
C2132 C2131 1.366 . S
C2132 C2136 1.385 . S
C2133 H2108 0.951 . S
C2133 C2131 1.388 1_455 S
C2133 C2134 1.366 . S
C2134 C2133 1.366 . S
C2134 C2135 1.421 . S
C2134 C2137 1.499 . S
C2135 H2109 0.953 . S
C2135 C2134 1.421 . S
C2135 C2136 1.364 1_455 S
C2136 H2110 0.950 . S
C2136 C2132 1.385 . S
C2136 C2135 1.364 1_655 S
C2137 C2134 1.499 . S
C2137 C2138 1.373 . S
C2137 C2139 1.389 . S
C2138 H2111 0.950 . S
C2138 C2124 1.377 . S
C2138 C2137 1.373 . S
C2139 C2123 1.377 . S
C2139 C2137 1.389 . S
C2139 C2140 1.524 . S
C2140 C2139 1.524 . S
C2140 C2141 1.397 . S
C2140 C2145 1.363 . S
C2141 H2112 0.950 . S
C2141 C2140 1.397 . S
C2141 C2142 1.334 . S
C2142 H2113 0.950 . S
C2142 C2141 1.334 . S
C2142 C2143 1.287 . S
C2143 C2142 1.287 . S
C2143 C2144 1.524 . S
C2143 H2146 0.999 . S
C2144 H2114 0.950 . S
C2144 C2143 1.524 . S
C2144 C2145 1.415 . S
C2145 H2115 0.950 . S
C2145 C2140 1.363 . S
C2145 C2144 1.415 . S
H2146 C2143 0.999 . S
H2147 C2128 0.913 . S
H2148 C2166 0.951 . S
H2149 C2168 0.951 . S
H2150 C2170 0.950 . S
H2151 C2171 0.950 . S
H2152 C2173 0.950 . S
H2153 C2176 0.950 . S
H2154 C2177 0.950 . S
H2155 C2179 0.950 . S
H2156 C2180 0.950 . S
H2157 C2181 0.951 . S
H2158 C2183 0.951 . S
H2159 C2185 0.950 . S
H2160 C2186 0.950 . S
H2161 C2188 0.950 . S
H2162 C2191 0.950 . S
H2163 C2192 0.950 . S
H2164 C2194 0.950 . S
H2165 C2195 0.950 . S
C2166 H2148 0.951 . S
C2166 C2167 1.366 . S
C2166 C2168 1.388 . S
C2167 C2166 1.366 . S
C2167 C2171 1.385 . S
C2168 H2149 0.951 . S
C2168 C2166 1.388 . S
C2168 C2169 1.366 . S
C2169 C2168 1.366 . S
C2169 C2170 1.414 . S
C2169 C2172 1.499 . S
C2170 H2150 0.950 . S
C2170 C2169 1.414 . S
C2170 C2171 1.374 . S
C2171 H2151 0.950 . S
C2171 C2167 1.385 . S
C2171 C2170 1.374 . S
C2172 C2169 1.499 . S
C2172 C2173 1.373 . S
C2172 C2174 1.389 . S
C2173 H2152 0.950 . S
C2173 C2172 1.373 . S
C2173 C2189 1.377 . S
C2174 C2172 1.389 . S
C2174 C2175 1.524 . S
C2174 C2188 1.377 . S
C2175 C2174 1.524 . S
C2175 C2176 1.397 . S
C2175 C2180 1.363 . S
C2176 H2153 0.950 . S
C2176 C2175 1.397 . S
C2176 C2177 1.334 . S
C2177 H2154 0.950 . S
C2177 C2176 1.334 . S
C2177 C2178 1.287 . S
C2178 C2177 1.287 . S
C2178 C2179 1.524 . S
C2178 H2197 0.913 . S
C2179 H2155 0.950 . S
C2179 C2178 1.524 . S
C2179 C2180 1.415 . S
C2180 H2156 0.950 . S
C2180 C2175 1.363 . S
C2180 C2179 1.415 . S
C2181 H2157 0.951 . S
C2181 C2182 1.366 . S
C2181 C2183 1.388 . S
C2182 C2181 1.366 . S
C2182 C2186 1.385 . S
C2183 H2158 0.951 . S
C2183 C2181 1.388 . S
C2183 C2184 1.366 . S
C2184 C2183 1.366 . S
C2184 C2185 1.414 . S
C2184 C2187 1.499 . S
C2185 H2159 0.950 . S
C2185 C2184 1.414 . S
C2185 C2186 1.374 . S
C2186 H2160 0.950 . S
C2186 C2182 1.385 . S
C2186 C2185 1.374 . S
C2187 C2184 1.499 . S
C2187 C2188 1.373 . S
C2187 C2189 1.389 . S
C2188 H2161 0.950 . S
C2188 C2174 1.377 . S
C2188 C2187 1.373 . S
C2189 C2173 1.377 . S
C2189 C2187 1.389 . S
C2189 C2190 1.524 . S
C2190 C2189 1.524 . S
C2190 C2191 1.397 . S
C2190 C2195 1.363 . S
C2191 H2162 0.950 . S
C2191 C2190 1.397 . S
C2191 C2192 1.334 . S
C2192 H2163 0.950 . S
C2192 C2191 1.334 . S
C2192 C2193 1.287 . S
C2193 C2192 1.287 . S
C2193 C2194 1.524 . S
C2193 H2196 0.999 . S
C2194 H2164 0.950 . S
C2194 C2193 1.524 . S
C2194 C2195 1.415 . S
C2195 H2165 0.950 . S
C2195 C2190 1.363 . S
C2195 C2194 1.415 . S
H2196 C2193 0.999 . S
H2197 C2178 0.913 . S
H2198 C2216 0.951 . S
H2199 C2218 0.951 . S
H2200 C2220 0.950 . S
H2201 C2221 0.950 . S
H2202 C2223 0.950 . S
H2203 C2226 0.950 . S
H2204 C2227 0.950 . S
H2205 C2229 0.950 . S
H2206 C2230 0.950 . S
H2207 C2231 0.951 . S
H2208 C2233 0.951 . S
H2209 C2235 0.950 . S
H2210 C2236 0.950 . S
H2211 C2238 0.950 . S
H2212 C2241 0.950 . S
H2213 C2242 0.950 . S
H2214 C2244 0.950 . S
H2215 C2245 0.950 . S
C2216 H2198 0.951 . S
C2216 C2217 1.366 . S
C2216 C2218 1.388 . S
C2217 C2216 1.366 . S
C2217 C2221 1.385 . S
C2218 H2199 0.951 . S
C2218 C2216 1.388 . S
C2218 C2219 1.366 . S
C2219 C2218 1.366 . S
C2219 C2220 1.414 . S
C2219 C2222 1.499 . S
C2220 H2200 0.950 . S
C2220 C2219 1.414 . S
C2220 C2221 1.374 . S
C2221 H2201 0.950 . S
C2221 C2217 1.385 . S
C2221 C2220 1.374 . S
C2222 C2219 1.499 . S
C2222 C2223 1.373 . S
C2222 C2224 1.389 . S
C2223 H2202 0.950 . S
C2223 C2222 1.373 . S
C2223 C2239 1.377 . S
C2224 C2222 1.389 . S
C2224 C2225 1.524 . S
C2224 C2238 1.377 . S
C2225 C2224 1.524 . S
C2225 C2226 1.397 . S
C2225 C2230 1.363 . S
C2226 H2203 0.950 . S
C2226 C2225 1.397 . S
C2226 C2227 1.334 . S
C2227 H2204 0.950 . S
C2227 C2226 1.334 . S
C2227 C2228 1.287 . S
C2228 C2227 1.287 . S
C2228 C2229 1.524 . S
C2228 H2247 0.913 1_565 S
C2229 H2205 0.950 . S
C2229 C2228 1.524 . S
C2229 C2230 1.415 . S
C2230 H2206 0.950 . S
C2230 C2225 1.363 . S
C2230 C2229 1.415 . S
C2231 H2207 0.951 . S
C2231 C2232 1.366 . S
C2231 C2233 1.388 . S
C2232 C2231 1.366 . S
C2232 C2236 1.385 . S
C2233 H2208 0.951 . S
C2233 C2231 1.388 . S
C2233 C2234 1.366 . S
C2234 C2233 1.366 . S
C2234 C2235 1.414 . S
C2234 C2237 1.499 . S
C2235 H2209 0.950 . S
C2235 C2234 1.414 . S
C2235 C2236 1.374 . S
C2236 H2210 0.950 . S
C2236 C2232 1.385 . S
C2236 C2235 1.374 . S
C2237 C2234 1.499 . S
C2237 C2238 1.373 . S
C2237 C2239 1.389 . S
C2238 H2211 0.950 . S
C2238 C2224 1.377 . S
C2238 C2237 1.373 . S
C2239 C2223 1.377 . S
C2239 C2237 1.389 . S
C2239 C2240 1.524 . S
C2240 C2239 1.524 . S
C2240 C2241 1.397 . S
C2240 C2245 1.363 . S
C2241 H2212 0.950 . S
C2241 C2240 1.397 . S
C2241 C2242 1.334 . S
C2242 H2213 0.950 . S
C2242 C2241 1.334 . S
C2242 C2243 1.287 . S
C2243 C2242 1.287 . S
C2243 C2244 1.524 . S
C2243 H2246 0.999 . S
C2244 H2214 0.950 . S
C2244 C2243 1.524 . S
C2244 C2245 1.415 . S
C2245 H2215 0.950 . S
C2245 C2240 1.363 . S
C2245 C2244 1.415 . S
H2246 C2243 0.999 . S
H2247 C2228 0.913 1_545 S
H2248 C2266 0.951 . S
H2249 C2268 0.951 . S
H2250 C2270 0.950 . S
H2251 C2271 0.950 . S
H2252 C2273 0.950 . S
H2253 C2276 0.950 . S
H2254 C2277 0.950 . S
H2255 C2279 0.950 . S
H2256 C2280 0.950 . S
H2257 C2281 0.951 . S
H2258 C2283 0.951 . S
H2259 C2285 0.950 . S
H2260 C2286 0.950 . S
H2261 C2288 0.950 . S
H2262 C2291 0.950 . S
H2263 C2292 0.950 . S
H2264 C2294 0.950 . S
H2265 C2295 0.950 . S
C2266 H2248 0.951 . S
C2266 C2267 1.366 . S
C2266 C2268 1.388 . S
C2267 C2266 1.366 . S
C2267 C2271 1.385 . S
C2268 H2249 0.951 . S
C2268 C2266 1.388 . S
C2268 C2269 1.366 . S
C2269 C2268 1.366 . S
C2269 C2270 1.414 . S
C2269 C2272 1.499 . S
C2270 H2250 0.950 . S
C2270 C2269 1.414 . S
C2270 C2271 1.374 . S
C2271 H2251 0.950 . S
C2271 C2267 1.385 . S
C2271 C2270 1.374 . S
C2272 C2269 1.499 . S
C2272 C2273 1.373 . S
C2272 C2274 1.389 . S
C2273 H2252 0.950 . S
C2273 C2272 1.373 . S
C2273 C2289 1.377 . S
C2274 C2272 1.389 . S
C2274 C2275 1.524 . S
C2274 C2288 1.377 . S
C2275 C2274 1.524 . S
C2275 C2276 1.397 . S
C2275 C2280 1.363 . S
C2276 H2253 0.950 . S
C2276 C2275 1.397 . S
C2276 C2277 1.334 . S
C2277 H2254 0.950 . S
C2277 C2276 1.334 . S
C2277 C2278 1.287 . S
C2278 C2277 1.287 . S
C2278 C2279 1.524 . S
C2278 H2297 0.913 . S
C2279 H2255 0.950 . S
C2279 C2278 1.524 . S
C2279 C2280 1.415 . S
C2280 H2256 0.950 . S
C2280 C2275 1.363 . S
C2280 C2279 1.415 . S
C2281 H2257 0.951 . S
C2281 C2282 1.366 . S
C2281 C2283 1.388 . S
C2282 C2281 1.366 . S
C2282 C2286 1.385 . S
C2283 H2258 0.951 . S
C2283 C2281 1.388 . S
C2283 C2284 1.366 . S
C2284 C2283 1.366 . S
C2284 C2285 1.414 . S
C2284 C2287 1.499 . S
C2285 H2259 0.950 . S
C2285 C2284 1.414 . S
C2285 C2286 1.374 . S
C2286 H2260 0.950 . S
C2286 C2282 1.385 . S
C2286 C2285 1.374 . S
C2287 C2284 1.499 . S
C2287 C2288 1.373 . S
C2287 C2289 1.389 . S
C2288 H2261 0.950 . S
C2288 C2274 1.377 . S
C2288 C2287 1.373 . S
C2289 C2273 1.377 . S
C2289 C2287 1.389 . S
C2289 C2290 1.524 . S
C2290 C2289 1.524 . S
C2290 C2291 1.397 . S
C2290 C2295 1.363 . S
C2291 H2262 0.950 . S
C2291 C2290 1.397 . S
C2291 C2292 1.334 . S
C2292 H2263 0.950 . S
C2292 C2291 1.334 . S
C2292 C2293 1.287 . S
C2293 C2292 1.287 . S
C2293 C2294 1.524 . S
C2293 H2296 0.999 . S
C2294 H2264 0.950 . S
C2294 C2293 1.524 . S
C2294 C2295 1.415 . S
C2295 H2265 0.950 . S
C2295 C2290 1.363 . S
C2295 C2294 1.415 . S
H2296 C2293 0.999 . S
H2297 C2278 0.913 . S
H2298 C2316 0.951 . S
H2299 C2318 0.951 . S
H2300 C2320 0.950 . S
H2301 C2321 0.950 . S
H2302 C2323 0.950 . S
H2303 C2326 0.950 . S
H2304 C2327 0.950 . S
H2305 C2329 0.950 . S
H2306 C2330 0.950 . S
H2307 C2331 0.951 . S
H2308 C2333 0.951 . S
H2309 C2335 0.950 . S
H2310 C2336 0.950 . S
H2311 C2338 0.950 . S
H2312 C2341 0.950 . S
H2313 C2342 0.950 . S
H2314 C2344 0.950 . S
H2315 C2345 0.950 . S
C2316 H2298 0.951 . S
C2316 C2317 1.366 . S
C2316 C2318 1.388 . S
C2317 C2316 1.366 . S
C2317 C2321 1.385 . S
C2318 H2299 0.951 . S
C2318 C2316 1.388 . S
C2318 C2319 1.366 . S
C2319 C2318 1.366 . S
C2319 C2320 1.414 . S
C2319 C2322 1.499 . S
C2320 H2300 0.950 . S
C2320 C2319 1.414 . S
C2320 C2321 1.374 . S
C2321 H2301 0.950 . S
C2321 C2317 1.385 . S
C2321 C2320 1.374 . S
C2322 C2319 1.499 . S
C2322 C2323 1.373 . S
C2322 C2324 1.389 . S
C2323 H2302 0.950 . S
C2323 C2322 1.373 . S
C2323 C2339 1.377 . S
C2324 C2322 1.389 . S
C2324 C2325 1.524 . S
C2324 C2338 1.377 . S
C2325 C2324 1.524 . S
C2325 C2326 1.397 . S
C2325 C2330 1.363 . S
C2326 H2303 0.950 . S
C2326 C2325 1.397 . S
C2326 C2327 1.334 . S
C2327 H2304 0.950 . S
C2327 C2326 1.334 . S
C2327 C2328 1.287 . S
C2328 C2327 1.287 . S
C2328 C2329 1.524 . S
C2328 H2347 0.913 . S
C2329 H2305 0.950 . S
C2329 C2328 1.524 . S
C2329 C2330 1.415 . S
C2330 H2306 0.950 . S
C2330 C2325 1.363 . S
C2330 C2329 1.415 . S
C2331 H2307 0.951 . S
C2331 C2332 1.366 . S
C2331 C2333 1.388 . S
C2332 C2331 1.366 . S
C2332 C2336 1.385 . S
C2333 H2308 0.951 . S
C2333 C2331 1.388 . S
C2333 C2334 1.366 . S
C2334 C2333 1.366 . S
C2334 C2335 1.414 . S
C2334 C2337 1.499 . S
C2335 H2309 0.950 . S
C2335 C2334 1.414 . S
C2335 C2336 1.374 . S
C2336 H2310 0.950 . S
C2336 C2332 1.385 . S
C2336 C2335 1.374 . S
C2337 C2334 1.499 . S
C2337 C2338 1.373 . S
C2337 C2339 1.389 . S
C2338 H2311 0.950 . S
C2338 C2324 1.377 . S
C2338 C2337 1.373 . S
C2339 C2323 1.377 . S
C2339 C2337 1.389 . S
C2339 C2340 1.524 . S
C2340 C2339 1.524 . S
C2340 C2341 1.397 . S
C2340 C2345 1.363 . S
C2341 H2312 0.950 . S
C2341 C2340 1.397 . S
C2341 C2342 1.334 . S
C2342 H2313 0.950 . S
C2342 C2341 1.334 . S
C2342 C2343 1.287 . S
C2343 C2342 1.287 . S
C2343 C2344 1.524 . S
C2343 H2346 0.999 . S
C2344 H2314 0.950 . S
C2344 C2343 1.524 . S
C2344 C2345 1.415 . S
C2345 H2315 0.950 . S
C2345 C2340 1.363 . S
C2345 C2344 1.415 . S
H2346 C2343 0.999 . S
H2347 C2328 0.913 . S
H2348 C2366 0.951 . S
H2349 C2368 0.951 . S
H2350 C2370 0.950 . S
H2351 C2371 0.950 . S
H2352 C2373 0.950 . S
H2353 C2376 0.950 . S
H2354 C2377 0.950 . S
H2355 C2379 0.950 . S
H2356 C2380 0.950 . S
H2357 C2381 0.951 . S
H2358 C2383 0.951 . S
H2359 C2385 0.950 . S
H2360 C2386 0.950 . S
H2361 C2388 0.950 . S
H2362 C2391 0.950 . S
H2363 C2392 0.950 . S
H2364 C2394 0.950 . S
H2365 C2395 0.950 . S
C2366 H2348 0.951 . S
C2366 C2367 1.366 . S
C2366 C2368 1.388 . S
C2367 C2366 1.366 . S
C2367 C2371 1.385 . S
C2368 H2349 0.951 . S
C2368 C2366 1.388 . S
C2368 C2369 1.366 . S
C2369 C2368 1.366 . S
C2369 C2370 1.414 . S
C2369 C2372 1.499 . S
C2370 H2350 0.950 . S
C2370 C2369 1.414 . S
C2370 C2371 1.374 . S
C2371 H2351 0.950 . S
C2371 C2367 1.385 . S
C2371 C2370 1.374 . S
C2372 C2369 1.499 . S
C2372 C2373 1.373 . S
C2372 C2374 1.389 . S
C2373 H2352 0.950 . S
C2373 C2372 1.373 . S
C2373 C2389 1.377 . S
C2374 C2372 1.389 . S
C2374 C2375 1.524 . S
C2374 C2388 1.377 . S
C2375 C2374 1.524 . S
C2375 C2376 1.397 . S
C2375 C2380 1.363 . S
C2376 H2353 0.950 . S
C2376 C2375 1.397 . S
C2376 C2377 1.334 . S
C2377 H2354 0.950 . S
C2377 C2376 1.334 . S
C2377 C2378 1.287 . S
C2378 C2377 1.287 . S
C2378 C2379 1.524 . S
C2378 H2397 0.913 . S
C2379 H2355 0.950 . S
C2379 C2378 1.524 . S
C2379 C2380 1.415 . S
C2380 H2356 0.950 . S
C2380 C2375 1.363 . S
C2380 C2379 1.415 . S
C2381 H2357 0.951 . S
C2381 C2382 1.366 . S
C2381 C2383 1.388 . S
C2382 C2381 1.366 . S
C2382 C2386 1.385 . S
C2383 H2358 0.951 . S
C2383 C2381 1.388 . S
C2383 C2384 1.366 . S
C2384 C2383 1.366 . S
C2384 C2385 1.414 . S
C2384 C2387 1.499 . S
C2385 H2359 0.950 . S
C2385 C2384 1.414 . S
C2385 C2386 1.374 . S
C2386 H2360 0.950 . S
C2386 C2382 1.385 . S
C2386 C2385 1.374 . S
C2387 C2384 1.499 . S
C2387 C2388 1.373 . S
C2387 C2389 1.389 . S
C2388 H2361 0.950 . S
C2388 C2374 1.377 . S
C2388 C2387 1.373 . S
C2389 C2373 1.377 . S
C2389 C2387 1.389 . S
C2389 C2390 1.524 . S
C2390 C2389 1.524 . S
C2390 C2391 1.397 . S
C2390 C2395 1.363 . S
C2391 H2362 0.950 . S
C2391 C2390 1.397 . S
C2391 C2392 1.334 . S
C2392 H2363 0.950 . S
C2392 C2391 1.334 . S
C2392 C2393 1.287 . S
C2393 C2392 1.287 . S
C2393 C2394 1.524 . S
C2393 H2396 0.999 . S
C2394 H2364 0.950 . S
C2394 C2393 1.524 . S
C2394 C2395 1.415 . S
C2395 H2365 0.950 . S
C2395 C2390 1.363 . S
C2395 C2394 1.415 . S
H2396 C2393 0.999 . S
H2397 C2378 0.913 . S
H2398 C2416 0.951 . S
H2399 C2418 0.951 . S
H2400 C2420 0.950 . S
H2401 C2421 0.950 . S
H2402 C2423 0.950 . S
H2403 C2426 0.950 . S
H2404 C2427 0.950 . S
H2405 C2429 0.950 . S
H2406 C2430 0.950 . S
H2407 C2431 0.951 . S
H2408 C2433 0.951 . S
H2409 C2435 0.954 . S
H2410 C2436 0.950 . S
H2411 C2438 0.950 . S
H2412 C2441 0.950 . S
H2413 C2442 0.950 . S
H2414 C2444 0.950 . S
H2415 C2445 0.950 . S
C2416 H2398 0.951 . S
C2416 C2417 1.366 . S
C2416 C2418 1.388 . S
C2417 C2416 1.366 . S
C2417 C2421 1.385 . S
C2418 H2399 0.951 . S
C2418 C2416 1.388 . S
C2418 C2419 1.366 . S
C2419 C2418 1.366 . S
C2419 C2420 1.414 . S
C2419 C2422 1.499 . S
C2420 H2400 0.950 . S
C2420 C2419 1.414 . S
C2420 C2421 1.374 . S
C2421 H2401 0.950 . S
C2421 C2417 1.385 . S
C2421 C2420 1.374 . S
C2422 C2419 1.499 . S
C2422 C2423 1.373 . S
C2422 C2424 1.389 . S
C2423 H2402 0.950 . S
C2423 C2422 1.373 . S
C2423 C2439 1.377 . S
C2424 C2422 1.389 . S
C2424 C2425 1.524 . S
C2424 C2438 1.377 . S
C2425 C2424 1.524 . S
C2425 C2426 1.397 . S
C2425 C2430 1.363 . S
C2426 H2403 0.950 . S
C2426 C2425 1.397 . S
C2426 C2427 1.334 . S
C2427 H2404 0.950 . S
C2427 C2426 1.334 . S
C2427 C2428 1.287 . S
C2428 C2427 1.287 . S
C2428 C2429 1.524 . S
C2428 H2447 0.913 . S
C2429 H2405 0.950 . S
C2429 C2428 1.524 . S
C2429 C2430 1.415 . S
C2430 H2406 0.950 . S
C2430 C2425 1.363 . S
C2430 C2429 1.415 . S
C2431 H2407 0.951 . S
C2431 C2432 1.366 . S
C2431 C2433 1.388 1_655 S
C2432 C2431 1.366 . S
C2432 C2436 1.385 . S
C2433 H2408 0.951 . S
C2433 C2431 1.388 1_455 S
C2433 C2434 1.366 . S
C2434 C2433 1.366 . S
C2434 C2435 1.422 . S
C2434 C2437 1.499 . S
C2435 H2409 0.954 . S
C2435 C2434 1.422 . S
C2435 C2436 1.362 1_455 S
C2436 H2410 0.950 . S
C2436 C2432 1.385 . S
C2436 C2435 1.362 1_655 S
C2437 C2434 1.499 . S
C2437 C2438 1.373 . S
C2437 C2439 1.389 . S
C2438 H2411 0.950 . S
C2438 C2424 1.377 . S
C2438 C2437 1.373 . S
C2439 C2423 1.377 . S
C2439 C2437 1.389 . S
C2439 C2440 1.524 . S
C2440 C2439 1.524 . S
C2440 C2441 1.397 . S
C2440 C2445 1.363 . S
C2441 H2412 0.950 . S
C2441 C2440 1.397 . S
C2441 C2442 1.334 1_455 S
C2442 H2413 0.950 . S
C2442 C2441 1.334 1_655 S
C2442 C2443 1.287 1_655 S
C2443 C2442 1.287 1_455 S
C2443 C2444 1.524 . S
C2443 H2446 0.999 1_455 S
C2444 H2414 0.950 . S
C2444 C2443 1.524 . S
C2444 C2445 1.415 . S
C2445 H2415 0.950 . S
C2445 C2440 1.363 . S
C2445 C2444 1.415 . S
H2446 C2443 0.999 1_655 S
H2447 C2428 0.913 . S
H2448 C2466 0.951 . S
H2449 C2468 0.951 . S
H2450 C2470 0.950 . S
H2451 C2471 0.950 . S
H2452 C2473 0.950 . S
H2453 C2476 0.950 . S
H2454 C2477 0.950 . S
H2455 C2479 0.950 . S
H2456 C2480 0.950 . S
H2457 C2481 0.951 . S
H2458 C2483 0.951 . S
H2459 C2485 0.950 . S
H2460 C2486 0.950 . S
H2461 C2488 0.950 . S
H2462 C2491 0.950 . S
H2463 C2492 0.950 . S
H2464 C2494 0.950 . S
H2465 C2495 0.950 . S
C2466 H2448 0.951 . S
C2466 C2467 1.366 . S
C2466 C2468 1.388 . S
C2467 C2466 1.366 . S
C2467 C2471 1.385 . S
C2468 H2449 0.951 . S
C2468 C2466 1.388 . S
C2468 C2469 1.366 . S
C2469 C2468 1.366 . S
C2469 C2470 1.414 . S
C2469 C2472 1.499 . S
C2470 H2450 0.950 . S
C2470 C2469 1.414 . S
C2470 C2471 1.374 . S
C2471 H2451 0.950 . S
C2471 C2467 1.385 . S
C2471 C2470 1.374 . S
C2472 C2469 1.499 . S
C2472 C2473 1.373 . S
C2472 C2474 1.389 . S
C2473 H2452 0.950 . S
C2473 C2472 1.373 . S
C2473 C2489 1.377 . S
C2474 C2472 1.389 . S
C2474 C2475 1.524 . S
C2474 C2488 1.377 . S
C2475 C2474 1.524 . S
C2475 C2476 1.397 . S
C2475 C2480 1.363 . S
C2476 H2453 0.950 . S
C2476 C2475 1.397 . S
C2476 C2477 1.334 . S
C2477 H2454 0.950 . S
C2477 C2476 1.334 . S
C2477 C2478 1.287 . S
C2478 C2477 1.287 . S
C2478 C2479 1.524 . S
C2478 H2497 0.913 . S
C2479 H2455 0.950 . S
C2479 C2478 1.524 . S
C2479 C2480 1.415 . S
C2480 H2456 0.950 . S
C2480 C2475 1.363 . S
C2480 C2479 1.415 . S
C2481 H2457 0.951 . S
C2481 C2482 1.366 . S
C2481 C2483 1.388 . S
C2482 C2481 1.366 . S
C2482 C2486 1.385 . S
C2483 H2458 0.951 . S
C2483 C2481 1.388 . S
C2483 C2484 1.366 . S
C2484 C2483 1.366 . S
C2484 C2485 1.414 . S
C2484 C2487 1.499 . S
C2485 H2459 0.950 . S
C2485 C2484 1.414 . S
C2485 C2486 1.374 . S
C2486 H2460 0.950 . S
C2486 C2482 1.385 . S
C2486 C2485 1.374 . S
C2487 C2484 1.499 . S
C2487 C2488 1.373 . S
C2487 C2489 1.389 . S
C2488 H2461 0.950 . S
C2488 C2474 1.377 . S
C2488 C2487 1.373 . S
C2489 C2473 1.377 . S
C2489 C2487 1.389 . S
C2489 C2490 1.524 . S
C2490 C2489 1.524 . S
C2490 C2491 1.397 . S
C2490 C2495 1.363 . S
C2491 H2462 0.950 . S
C2491 C2490 1.397 . S
C2491 C2492 1.334 . S
C2492 H2463 0.950 . S
C2492 C2491 1.334 . S
C2492 C2493 1.287 . S
C2493 C2492 1.287 . S
C2493 C2494 1.524 . S
C2493 H2496 0.999 . S
C2494 H2464 0.950 . S
C2494 C2493 1.524 . S
C2494 C2495 1.415 . S
C2495 H2465 0.950 . S
C2495 C2490 1.363 . S
C2495 C2494 1.415 . S
H2496 C2493 0.999 . S
H2497 C2478 0.913 . S
H2498 C2516 0.951 . S
H2499 C2518 0.951 . S
H2500 C2520 0.950 . S
H2501 C2521 0.950 . S
H2502 C2523 0.950 . S
H2503 C2526 0.950 . S
H2504 C2527 0.950 . S
H2505 C2529 0.950 . S
H2506 C2530 0.950 . S
H2507 C2531 0.951 . S
H2508 C2533 0.951 . S
H2509 C2535 0.950 . S
H2510 C2536 0.950 . S
H2511 C2538 0.950 . S
H2512 C2541 0.950 . S
H2513 C2542 0.950 . S
H2514 C2544 0.950 . S
H2515 C2545 0.950 . S
C2516 H2498 0.951 . S
C2516 C2517 1.366 . S
C2516 C2518 1.388 . S
C2517 C2516 1.366 . S
C2517 C2521 1.385 . S
C2518 H2499 0.951 . S
C2518 C2516 1.388 . S
C2518 C2519 1.366 1_455 S
C2519 C2518 1.366 1_655 S
C2519 C2520 1.414 . S
C2519 C2522 1.499 . S
C2520 H2500 0.950 . S
C2520 C2519 1.414 . S
C2520 C2521 1.374 1_655 S
C2521 H2501 0.950 . S
C2521 C2517 1.385 . S
C2521 C2520 1.374 1_455 S
C2522 C2519 1.499 . S
C2522 C2523 1.373 . S
C2522 C2524 1.389 . S
C2523 H2502 0.950 . S
C2523 C2522 1.373 . S
C2523 C2539 1.377 . S
C2524 C2522 1.389 . S
C2524 C2525 1.524 . S
C2524 C2538 1.377 . S
C2525 C2524 1.524 . S
C2525 C2526 1.397 . S
C2525 C2530 1.363 . S
C2526 H2503 0.950 . S
C2526 C2525 1.397 . S
C2526 C2527 1.334 . S
C2527 H2504 0.950 . S
C2527 C2526 1.334 . S
C2527 C2528 1.287 . S
C2528 C2527 1.287 . S
C2528 C2529 1.524 . S
C2528 H2547 0.913 . S
C2529 H2505 0.950 . S
C2529 C2528 1.524 . S
C2529 C2530 1.415 . S
C2530 H2506 0.950 . S
C2530 C2525 1.363 . S
C2530 C2529 1.415 . S
C2531 H2507 0.951 . S
C2531 C2532 1.366 . S
C2531 C2533 1.388 . S
C2532 C2531 1.366 . S
C2532 C2536 1.385 . S
C2533 H2508 0.951 . S
C2533 C2531 1.388 . S
C2533 C2534 1.366 . S
C2534 C2533 1.366 . S
C2534 C2535 1.414 . S
C2534 C2537 1.499 . S
C2535 H2509 0.950 . S
C2535 C2534 1.414 . S
C2535 C2536 1.374 . S
C2536 H2510 0.950 . S
C2536 C2532 1.385 . S
C2536 C2535 1.374 . S
C2537 C2534 1.499 . S
C2537 C2538 1.373 . S
C2537 C2539 1.389 . S
C2538 H2511 0.950 . S
C2538 C2524 1.377 . S
C2538 C2537 1.373 . S
C2539 C2523 1.377 . S
C2539 C2537 1.389 . S
C2539 C2540 1.524 . S
C2540 C2539 1.524 . S
C2540 C2541 1.397 . S
C2540 C2545 1.363 . S
C2541 H2512 0.950 . S
C2541 C2540 1.397 . S
C2541 C2542 1.334 . S
C2542 H2513 0.950 . S
C2542 C2541 1.334 . S
C2542 C2543 1.287 . S
C2543 C2542 1.287 . S
C2543 C2544 1.524 . S
C2543 H2546 0.999 . S
C2544 H2514 0.950 . S
C2544 C2543 1.524 . S
C2544 C2545 1.415 . S
C2545 H2515 0.950 . S
C2545 C2540 1.363 . S
C2545 C2544 1.415 . S
H2546 C2543 0.999 . S
H2547 C2528 0.913 . S
H2548 C2566 0.951 . S
H2549 C2568 0.951 . S
H2550 C2570 0.950 . S
H2551 C2571 0.950 . S
H2552 C2573 0.950 . S
H2553 C2576 0.950 . S
H2554 C2577 0.950 . S
H2555 C2579 0.950 . S
H2556 C2580 0.950 . S
H2557 C2581 0.951 . S
H2558 C2583 0.951 . S
H2559 C2585 0.950 . S
H2560 C2586 0.950 . S
H2561 C2588 0.950 . S
H2562 C2591 0.950 . S
H2563 C2592 0.950 . S
H2564 C2594 0.950 . S
H2565 C2595 0.950 . S
C2566 H2548 0.951 . S
C2566 C2567 1.366 . S
C2566 C2568 1.388 . S
C2567 C2566 1.366 . S
C2567 C2571 1.385 . S
C2568 H2549 0.951 . S
C2568 C2566 1.388 . S
C2568 C2569 1.366 . S
C2569 C2568 1.366 . S
C2569 C2570 1.414 . S
C2569 C2572 1.499 . S
C2570 H2550 0.950 . S
C2570 C2569 1.414 . S
C2570 C2571 1.374 . S
C2571 H2551 0.950 . S
C2571 C2567 1.385 . S
C2571 C2570 1.374 . S
C2572 C2569 1.499 . S
C2572 C2573 1.373 . S
C2572 C2574 1.389 . S
C2573 H2552 0.950 . S
C2573 C2572 1.373 . S
C2573 C2589 1.377 . S
C2574 C2572 1.389 . S
C2574 C2575 1.524 . S
C2574 C2588 1.377 . S
C2575 C2574 1.524 . S
C2575 C2576 1.397 . S
C2575 C2580 1.363 . S
C2576 H2553 0.950 . S
C2576 C2575 1.397 . S
C2576 C2577 1.334 . S
C2577 H2554 0.950 . S
C2577 C2576 1.334 . S
C2577 C2578 1.287 . S
C2578 C2577 1.287 . S
C2578 C2579 1.524 . S
C2578 H2597 0.913 . S
C2579 H2555 0.950 . S
C2579 C2578 1.524 . S
C2579 C2580 1.415 . S
C2580 H2556 0.950 . S
C2580 C2575 1.363 . S
C2580 C2579 1.415 . S
C2581 H2557 0.951 . S
C2581 C2582 1.366 . S
C2581 C2583 1.388 . S
C2582 C2581 1.366 . S
C2582 C2586 1.385 . S
C2583 H2558 0.951 . S
C2583 C2581 1.388 . S
C2583 C2584 1.366 . S
C2584 C2583 1.366 . S
C2584 C2585 1.414 . S
C2584 C2587 1.499 . S
C2585 H2559 0.950 . S
C2585 C2584 1.414 . S
C2585 C2586 1.374 . S
C2586 H2560 0.950 . S
C2586 C2582 1.385 . S
C2586 C2585 1.374 . S
C2587 C2584 1.499 . S
C2587 C2588 1.373 . S
C2587 C2589 1.389 . S
C2588 H2561 0.950 . S
C2588 C2574 1.377 . S
C2588 C2587 1.373 . S
C2589 C2573 1.377 . S
C2589 C2587 1.389 . S
C2589 C2590 1.524 . S
C2590 C2589 1.524 . S
C2590 C2591 1.397 . S
C2590 C2595 1.363 . S
C2591 H2562 0.950 . S
C2591 C2590 1.397 . S
C2591 C2592 1.334 . S
C2592 H2563 0.950 . S
C2592 C2591 1.334 . S
C2592 C2593 1.287 . S
C2593 C2592 1.287 . S
C2593 C2594 1.524 . S
C2593 H2596 0.999 . S
C2594 H2564 0.950 . S
C2594 C2593 1.524 . S
C2594 C2595 1.415 . S
C2595 H2565 0.950 . S
C2595 C2590 1.363 . S
C2595 C2594 1.415 . S
H2596 C2593 0.999 . S
H2597 C2578 0.913 . S
H2598 C2616 0.951 . S
H2599 C2618 0.951 . S
H2600 C2620 0.950 . S
H2601 C2621 0.950 . S
H2602 C2623 0.950 . S
H2603 C2626 0.950 . S
H2604 C2627 0.950 . S
H2605 C2629 0.950 . S
H2606 C2630 0.950 . S
H2607 C2631 0.951 . S
H2608 C2633 0.951 . S
H2609 C2635 0.950 . S
H2610 C2636 0.950 . S
H2611 C2638 0.950 . S
H2612 C2641 0.950 . S
H2613 C2642 0.950 . S
H2614 C2644 0.950 . S
H2615 C2645 0.950 . S
C2616 H2598 0.951 . S
C2616 C2617 1.366 . S
C2616 C2618 1.388 . S
C2617 C2616 1.366 . S
C2617 C2621 1.385 . S
C2618 H2599 0.951 . S
C2618 C2616 1.388 . S
C2618 C2619 1.366 . S
C2619 C2618 1.366 . S
C2619 C2620 1.414 . S
C2619 C2622 1.499 . S
C2620 H2600 0.950 . S
C2620 C2619 1.414 . S
C2620 C2621 1.374 . S
C2621 H2601 0.950 . S
C2621 C2617 1.385 . S
C2621 C2620 1.374 . S
C2622 C2619 1.499 . S
C2622 C2623 1.373 . S
C2622 C2624 1.389 . S
C2623 H2602 0.950 . S
C2623 C2622 1.373 . S
C2623 C2639 1.377 . S
C2624 C2622 1.389 . S
C2624 C2625 1.524 . S
C2624 C2638 1.377 . S
C2625 C2624 1.524 . S
C2625 C2626 1.397 . S
C2625 C2630 1.363 . S
C2626 H2603 0.950 . S
C2626 C2625 1.397 . S
C2626 C2627 1.334 . S
C2627 H2604 0.950 . S
C2627 C2626 1.334 . S
C2627 C2628 1.287 . S
C2628 C2627 1.287 . S
C2628 C2629 1.524 . S
C2628 H2647 0.913 . S
C2629 H2605 0.950 . S
C2629 C2628 1.524 . S
C2629 C2630 1.415 . S
C2630 H2606 0.950 . S
C2630 C2625 1.363 . S
C2630 C2629 1.415 . S
C2631 H2607 0.951 . S
C2631 C2632 1.366 . S
C2631 C2633 1.388 . S
C2632 C2631 1.366 . S
C2632 C2636 1.385 . S
C2633 H2608 0.951 . S
C2633 C2631 1.388 . S
C2633 C2634 1.366 . S
C2634 C2633 1.366 . S
C2634 C2635 1.414 . S
C2634 C2637 1.499 . S
C2635 H2609 0.950 . S
C2635 C2634 1.414 . S
C2635 C2636 1.374 . S
C2636 H2610 0.950 . S
C2636 C2632 1.385 . S
C2636 C2635 1.374 . S
C2637 C2634 1.499 . S
C2637 C2638 1.373 . S
C2637 C2639 1.389 . S
C2638 H2611 0.950 . S
C2638 C2624 1.377 . S
C2638 C2637 1.373 . S
C2639 C2623 1.377 . S
C2639 C2637 1.389 . S
C2639 C2640 1.524 . S
C2640 C2639 1.524 . S
C2640 C2641 1.397 . S
C2640 C2645 1.363 . S
C2641 H2612 0.950 . S
C2641 C2640 1.397 . S
C2641 C2642 1.334 . S
C2642 H2613 0.950 . S
C2642 C2641 1.334 . S
C2642 C2643 1.287 . S
C2643 C2642 1.287 . S
C2643 C2644 1.524 . S
C2643 H2646 0.999 1_545 S
C2644 H2614 0.950 . S
C2644 C2643 1.524 . S
C2644 C2645 1.415 . S
C2645 H2615 0.950 . S
C2645 C2640 1.363 . S
C2645 C2644 1.415 . S
H2646 C2643 0.999 1_565 S
H2647 C2628 0.913 . S
H2648 C2666 0.951 . S
H2649 C2668 0.951 . S
H2650 C2670 0.950 . S
H2651 C2671 0.950 . S
H2652 C2673 0.950 . S
H2653 C2676 0.950 . S
H2654 C2677 0.950 . S
H2655 C2679 0.950 . S
H2656 C2680 0.950 . S
H2657 C2681 0.951 . S
H2658 C2683 0.951 . S
H2659 C2685 0.950 . S
H2660 C2686 0.950 . S
H2661 C2688 0.950 . S
H2662 C2691 0.950 . S
H2663 C2692 0.950 . S
H2664 C2694 0.950 . S
H2665 C2695 0.950 . S
C2666 H2648 0.951 . S
C2666 C2667 1.366 . S
C2666 C2668 1.388 . S
C2667 C2666 1.366 . S
C2667 C2671 1.385 . S
C2668 H2649 0.951 . S
C2668 C2666 1.388 . S
C2668 C2669 1.366 . S
C2669 C2668 1.366 . S
C2669 C2670 1.414 . S
C2669 C2672 1.499 . S
C2670 H2650 0.950 . S
C2670 C2669 1.414 . S
C2670 C2671 1.374 . S
C2671 H2651 0.950 . S
C2671 C2667 1.385 . S
C2671 C2670 1.374 . S
C2672 C2669 1.499 . S
C2672 C2673 1.373 . S
C2672 C2674 1.389 . S
C2673 H2652 0.950 . S
C2673 C2672 1.373 . S
C2673 C2689 1.377 . S
C2674 C2672 1.389 . S
C2674 C2675 1.524 . S
C2674 C2688 1.377 . S
C2675 C2674 1.524 . S
C2675 C2676 1.397 . S
C2675 C2680 1.363 . S
C2676 H2653 0.950 . S
C2676 C2675 1.397 . S
C2676 C2677 1.334 . S
C2677 H2654 0.950 . S
C2677 C2676 1.334 . S
C2677 C2678 1.287 . S
C2678 C2677 1.287 . S
C2678 C2679 1.524 . S
C2678 H2697 0.913 . S
C2679 H2655 0.950 . S
C2679 C2678 1.524 . S
C2679 C2680 1.415 . S
C2680 H2656 0.950 . S
C2680 C2675 1.363 . S
C2680 C2679 1.415 . S
C2681 H2657 0.951 . S
C2681 C2682 1.366 . S
C2681 C2683 1.388 . S
C2682 C2681 1.366 . S
C2682 C2686 1.385 . S
C2683 H2658 0.951 . S
C2683 C2681 1.388 . S
C2683 C2684 1.366 . S
C2684 C2683 1.366 . S
C2684 C2685 1.414 . S
C2684 C2687 1.499 . S
C2685 H2659 0.950 . S
C2685 C2684 1.414 . S
C2685 C2686 1.374 . S
C2686 H2660 0.950 . S
C2686 C2682 1.385 . S
C2686 C2685 1.374 . S
C2687 C2684 1.499 . S
C2687 C2688 1.373 . S
C2687 C2689 1.389 . S
C2688 H2661 0.950 . S
C2688 C2674 1.377 . S
C2688 C2687 1.373 . S
C2689 C2673 1.377 . S
C2689 C2687 1.389 . S
C2689 C2690 1.524 . S
C2690 C2689 1.524 . S
C2690 C2691 1.397 . S
C2690 C2695 1.363 . S
C2691 H2662 0.950 . S
C2691 C2690 1.397 . S
C2691 C2692 1.334 . S
C2692 H2663 0.950 . S
C2692 C2691 1.334 . S
C2692 C2693 1.287 . S
C2693 C2692 1.287 . S
C2693 C2694 1.524 . S
C2693 H2696 0.999 . S
C2694 H2664 0.950 . S
C2694 C2693 1.524 . S
C2694 C2695 1.415 . S
C2695 H2665 0.950 . S
C2695 C2690 1.363 . S
C2695 C2694 1.415 . S
H2696 C2693 0.999 . S
H2697 C2678 0.913 . S
H2698 C2716 0.951 . S
H2699 C2718 0.951 . S
H2700 C2720 0.950 . S
H2701 C2721 0.950 . S
H2702 C2723 0.950 . S
H2703 C2726 0.950 . S
H2704 C2727 0.950 . S
H2705 C2729 0.950 . S
H2706 C2730 0.950 . S
H2707 C2731 0.951 . S
H2708 C2733 0.951 . S
H2709 C2735 0.950 . S
H2710 C2736 0.950 . S
H2711 C2738 0.950 . S
H2712 C2741 0.950 . S
H2713 C2742 0.950 . S
H2714 C2744 0.950 . S
H2715 C2745 0.950 . S
C2716 H2698 0.951 . S
C2716 C2717 1.366 . S
C2716 C2718 1.388 . S
C2717 C2716 1.366 . S
C2717 C2721 1.385 . S
C2718 H2699 0.951 . S
C2718 C2716 1.388 . S
C2718 C2719 1.366 . S
C2719 C2718 1.366 . S
C2719 C2720 1.414 . S
C2719 C2722 1.499 . S
C2720 H2700 0.950 . S
C2720 C2719 1.414 . S
C2720 C2721 1.374 . S
C2721 H2701 0.950 . S
C2721 C2717 1.385 . S
C2721 C2720 1.374 . S
C2722 C2719 1.499 . S
C2722 C2723 1.373 . S
C2722 C2724 1.389 . S
C2723 H2702 0.950 . S
C2723 C2722 1.373 . S
C2723 C2739 1.377 . S
C2724 C2722 1.389 . S
C2724 C2725 1.524 . S
C2724 C2738 1.377 . S
C2725 C2724 1.524 . S
C2725 C2726 1.397 . S
C2725 C2730 1.363 . S
C2726 H2703 0.950 . S
C2726 C2725 1.397 . S
C2726 C2727 1.334 . S
C2727 H2704 0.950 . S
C2727 C2726 1.334 . S
C2727 C2728 1.287 . S
C2728 C2727 1.287 . S
C2728 C2729 1.524 . S
C2728 H2747 0.913 . S
C2729 H2705 0.950 . S
C2729 C2728 1.524 . S
C2729 C2730 1.415 . S
C2730 H2706 0.950 . S
C2730 C2725 1.363 . S
C2730 C2729 1.415 . S
C2731 H2707 0.951 . S
C2731 C2732 1.366 . S
C2731 C2733 1.388 . S
C2732 C2731 1.366 . S
C2732 C2736 1.385 . S
C2733 H2708 0.951 . S
C2733 C2731 1.388 . S
C2733 C2734 1.366 . S
C2734 C2733 1.366 . S
C2734 C2735 1.414 . S
C2734 C2737 1.499 . S
C2735 H2709 0.950 . S
C2735 C2734 1.414 . S
C2735 C2736 1.374 . S
C2736 H2710 0.950 . S
C2736 C2732 1.385 . S
C2736 C2735 1.374 . S
C2737 C2734 1.499 . S
C2737 C2738 1.373 . S
C2737 C2739 1.389 . S
C2738 H2711 0.950 . S
C2738 C2724 1.377 . S
C2738 C2737 1.373 . S
C2739 C2723 1.377 . S
C2739 C2737 1.389 . S
C2739 C2740 1.524 . S
C2740 C2739 1.524 . S
C2740 C2741 1.397 . S
C2740 C2745 1.363 . S
C2741 H2712 0.950 . S
C2741 C2740 1.397 . S
C2741 C2742 1.334 . S
C2742 H2713 0.950 . S
C2742 C2741 1.334 . S
C2742 C2743 1.287 . S
C2743 C2742 1.287 . S
C2743 C2744 1.524 . S
C2743 H2746 0.999 . S
C2744 H2714 0.950 . S
C2744 C2743 1.524 . S
C2744 C2745 1.415 . S
C2745 H2715 0.950 . S
C2745 C2740 1.363 . S
C2745 C2744 1.415 . S
H2746 C2743 0.999 . S
H2747 C2728 0.913 . S
H2748 C2766 0.951 . S
H2749 C2768 0.951 . S
H2750 C2770 0.950 . S
H2751 C2771 0.950 . S
H2752 C2773 0.950 . S
H2753 C2776 0.950 . S
H2754 C2777 0.950 . S
H2755 C2779 0.950 . S
H2756 C2780 0.950 . S
H2757 C2781 0.951 . S
H2758 C2783 0.951 . S
H2759 C2785 0.950 . S
H2760 C2786 0.950 . S
H2761 C2788 0.950 . S
H2762 C2791 0.950 . S
H2763 C2792 0.950 . S
H2764 C2794 0.950 . S
H2765 C2795 0.950 . S
C2766 H2748 0.951 . S
C2766 C2767 1.366 . S
C2766 C2768 1.388 . S
C2767 C2766 1.366 . S
C2767 C2771 1.385 . S
C2768 H2749 0.951 . S
C2768 C2766 1.388 . S
C2768 C2769 1.366 . S
C2769 C2768 1.366 . S
C2769 C2770 1.414 . S
C2769 C2772 1.499 . S
C2770 H2750 0.950 . S
C2770 C2769 1.414 . S
C2770 C2771 1.374 . S
C2771 H2751 0.950 . S
C2771 C2767 1.385 . S
C2771 C2770 1.374 . S
C2772 C2769 1.499 . S
C2772 C2773 1.373 . S
C2772 C2774 1.389 . S
C2773 H2752 0.950 . S
C2773 C2772 1.373 . S
C2773 C2789 1.377 . S
C2774 C2772 1.389 . S
C2774 C2775 1.524 . S
C2774 C2788 1.377 . S
C2775 C2774 1.524 . S
C2775 C2776 1.397 . S
C2775 C2780 1.363 . S
C2776 H2753 0.950 . S
C2776 C2775 1.397 . S
C2776 C2777 1.334 . S
C2777 H2754 0.950 . S
C2777 C2776 1.334 . S
C2777 C2778 1.287 . S
C2778 C2777 1.287 . S
C2778 C2779 1.524 . S
C2778 H2797 0.913 . S
C2779 H2755 0.950 . S
C2779 C2778 1.524 . S
C2779 C2780 1.415 . S
C2780 H2756 0.950 . S
C2780 C2775 1.363 . S
C2780 C2779 1.415 . S
C2781 H2757 0.951 . S
C2781 C2782 1.366 . S
C2781 C2783 1.388 . S
C2782 C2781 1.366 . S
C2782 C2786 1.385 . S
C2783 H2758 0.951 . S
C2783 C2781 1.388 . S
C2783 C2784 1.366 . S
C2784 C2783 1.366 . S
C2784 C2785 1.414 . S
C2784 C2787 1.499 . S
C2785 H2759 0.950 . S
C2785 C2784 1.414 . S
C2785 C2786 1.374 . S
C2786 H2760 0.950 . S
C2786 C2782 1.385 . S
C2786 C2785 1.374 . S
C2787 C2784 1.499 . S
C2787 C2788 1.373 . S
C2787 C2789 1.389 . S
C2788 H2761 0.950 . S
C2788 C2774 1.377 . S
C2788 C2787 1.373 . S
C2789 C2773 1.377 . S
C2789 C2787 1.389 . S
C2789 C2790 1.524 . S
C2790 C2789 1.524 . S
C2790 C2791 1.397 . S
C2790 C2795 1.363 . S
C2791 H2762 0.950 . S
C2791 C2790 1.397 . S
C2791 C2792 1.334 . S
C2792 H2763 0.950 . S
C2792 C2791 1.334 . S
C2792 C2793 1.287 . S
C2793 C2792 1.287 . S
C2793 C2794 1.524 . S
C2793 H2796 0.999 . S
C2794 H2764 0.950 . S
C2794 C2793 1.524 . S
C2794 C2795 1.415 . S
C2795 H2765 0.950 . S
C2795 C2790 1.363 . S
C2795 C2794 1.415 . S
H2796 C2793 0.999 . S
H2797 C2778 0.913 . S
H2798 C2816 0.951 . S
H2799 C2818 0.945 1_655 S
H2800 C2820 0.950 . S
H2801 C2821 0.950 . S
H2802 C2823 0.950 . S
H2803 C2826 0.950 . S
H2804 C2827 0.950 . S
H2805 C2829 0.950 . S
H2806 C2830 0.950 . S
H2807 C2831 0.951 . S
H2808 C2833 0.951 . S
H2809 C2835 0.950 . S
H2810 C2836 0.950 . S
H2811 C2838 0.950 . S
H2812 C2841 0.950 . S
H2813 C2842 0.950 . S
H2814 C2844 0.950 . S
H2815 C2845 0.950 . S
C2816 H2798 0.951 . S
C2816 C2817 1.366 . S
C2816 C2818 1.416 . S
C2817 C2816 1.366 . S
C2817 C2821 1.385 . S
C2818 H2799 0.945 1_455 S
C2818 C2816 1.416 . S
C2818 C2819 1.344 1_455 S
C2819 C2818 1.344 1_655 S
C2819 C2820 1.414 . S
C2819 C2822 1.499 . S
C2820 H2800 0.950 . S
C2820 C2819 1.414 . S
C2820 C2821 1.374 1_655 S
C2821 H2801 0.950 . S
C2821 C2817 1.385 . S
C2821 C2820 1.374 1_455 S
C2822 C2819 1.499 . S
C2822 C2823 1.373 . S
C2822 C2824 1.389 . S
C2823 H2802 0.950 . S
C2823 C2822 1.373 . S
C2823 C2839 1.377 . S
C2824 C2822 1.389 . S
C2824 C2825 1.524 . S
C2824 C2838 1.377 . S
C2825 C2824 1.524 . S
C2825 C2826 1.397 . S
C2825 C2830 1.363 . S
C2826 H2803 0.950 . S
C2826 C2825 1.397 . S
C2826 C2827 1.334 1_655 S
C2827 H2804 0.950 . S
C2827 C2826 1.334 1_455 S
C2827 C2828 1.287 . S
C2828 C2827 1.287 . S
C2828 C2829 1.524 . S
C2828 H2847 0.913 . S
C2829 H2805 0.950 . S
C2829 C2828 1.524 . S
C2829 C2830 1.415 1_455 S
C2830 H2806 0.950 . S
C2830 C2825 1.363 . S
C2830 C2829 1.415 1_655 S
C2831 H2807 0.951 . S
C2831 C2832 1.366 . S
C2831 C2833 1.388 . S
C2832 C2831 1.366 . S
C2832 C2836 1.385 . S
C2833 H2808 0.951 . S
C2833 C2831 1.388 . S
C2833 C2834 1.366 . S
C2834 C2833 1.366 . S
C2834 C2835 1.414 . S
C2834 C2837 1.499 . S
C2835 H2809 0.950 . S
C2835 C2834 1.414 . S
C2835 C2836 1.374 . S
C2836 H2810 0.950 . S
C2836 C2832 1.385 . S
C2836 C2835 1.374 . S
C2837 C2834 1.499 . S
C2837 C2838 1.373 . S
C2837 C2839 1.389 . S
C2838 H2811 0.950 . S
C2838 C2824 1.377 . S
C2838 C2837 1.373 . S
C2839 C2823 1.377 . S
C2839 C2837 1.389 . S
C2839 C2840 1.524 . S
C2840 C2839 1.524 . S
C2840 C2841 1.397 . S
C2840 C2845 1.363 . S
C2841 H2812 0.950 . S
C2841 C2840 1.397 . S
C2841 C2842 1.334 . S
C2842 H2813 0.950 . S
C2842 C2841 1.334 . S
C2842 C2843 1.287 . S
C2843 C2842 1.287 . S
C2843 C2844 1.524 . S
C2843 H2846 0.999 . S
C2844 H2814 0.950 . S
C2844 C2843 1.524 . S
C2844 C2845 1.415 . S
C2845 H2815 0.950 . S
C2845 C2840 1.363 . S
C2845 C2844 1.415 . S
H2846 C2843 0.999 . S
H2847 C2828 0.913 . S
H2848 C2866 0.951 . S
H2849 C2868 0.951 . S
H2850 C2870 0.950 . S
H2851 C2871 0.950 . S
H2852 C2873 0.950 . S
H2853 C2876 0.950 . S
H2854 C2877 0.950 . S
H2855 C2879 0.950 . S
H2856 C2880 0.950 . S
H2857 C2881 0.951 . S
H2858 C2883 0.951 . S
H2859 C2885 0.950 . S
H2860 C2886 0.950 . S
H2861 C2888 0.950 . S
H2862 C2891 0.950 . S
H2863 C2892 0.950 . S
H2864 C2894 0.950 . S
H2865 C2895 0.950 . S
C2866 H2848 0.951 . S
C2866 C2867 1.366 . S
C2866 C2868 1.388 . S
C2867 C2866 1.366 . S
C2867 C2871 1.385 . S
C2868 H2849 0.951 . S
C2868 C2866 1.388 . S
C2868 C2869 1.366 . S
C2869 C2868 1.366 . S
C2869 C2870 1.414 . S
C2869 C2872 1.499 . S
C2870 H2850 0.950 . S
C2870 C2869 1.414 . S
C2870 C2871 1.374 . S
C2871 H2851 0.950 . S
C2871 C2867 1.385 . S
C2871 C2870 1.374 . S
C2872 C2869 1.499 . S
C2872 C2873 1.373 . S
C2872 C2874 1.389 . S
C2873 H2852 0.950 . S
C2873 C2872 1.373 . S
C2873 C2889 1.377 . S
C2874 C2872 1.389 . S
C2874 C2875 1.524 . S
C2874 C2888 1.377 . S
C2875 C2874 1.524 . S
C2875 C2876 1.397 . S
C2875 C2880 1.363 . S
C2876 H2853 0.950 . S
C2876 C2875 1.397 . S
C2876 C2877 1.334 . S
C2877 H2854 0.950 . S
C2877 C2876 1.334 . S
C2877 C2878 1.287 . S
C2878 C2877 1.287 . S
C2878 C2879 1.524 . S
C2878 H2897 0.913 . S
C2879 H2855 0.950 . S
C2879 C2878 1.524 . S
C2879 C2880 1.415 . S
C2880 H2856 0.950 . S
C2880 C2875 1.363 . S
C2880 C2879 1.415 . S
C2881 H2857 0.951 . S
C2881 C2882 1.366 . S
C2881 C2883 1.388 . S
C2882 C2881 1.366 . S
C2882 C2886 1.385 . S
C2883 H2858 0.951 . S
C2883 C2881 1.388 . S
C2883 C2884 1.366 . S
C2884 C2883 1.366 . S
C2884 C2885 1.414 . S
C2884 C2887 1.499 . S
C2885 H2859 0.950 . S
C2885 C2884 1.414 . S
C2885 C2886 1.374 . S
C2886 H2860 0.950 . S
C2886 C2882 1.385 . S
C2886 C2885 1.374 . S
C2887 C2884 1.499 . S
C2887 C2888 1.373 . S
C2887 C2889 1.389 . S
C2888 H2861 0.950 . S
C2888 C2874 1.377 . S
C2888 C2887 1.373 . S
C2889 C2873 1.377 . S
C2889 C2887 1.389 . S
C2889 C2890 1.524 . S
C2890 C2889 1.524 . S
C2890 C2891 1.397 . S
C2890 C2895 1.363 . S
C2891 H2862 0.950 . S
C2891 C2890 1.397 . S
C2891 C2892 1.334 . S
C2892 H2863 0.950 . S
C2892 C2891 1.334 . S
C2892 C2893 1.287 . S
C2893 C2892 1.287 . S
C2893 C2894 1.524 . S
C2893 H2896 0.999 . S
C2894 H2864 0.950 . S
C2894 C2893 1.524 . S
C2894 C2895 1.415 . S
C2895 H2865 0.950 . S
C2895 C2890 1.363 . S
C2895 C2894 1.415 . S
H2896 C2893 0.999 . S
H2897 C2878 0.913 . S
H2898 C2916 0.951 . S
H2899 C2918 0.951 . S
H2900 C2920 0.950 . S
H2901 C2921 0.950 . S
H2902 C2923 0.950 . S
H2903 C2926 0.950 . S
H2904 C2927 0.950 . S
H2905 C2929 0.950 . S
H2906 C2930 0.950 . S
H2907 C2931 0.951 . S
H2908 C2933 0.951 . S
H2909 C2935 0.950 . S
H2910 C2936 0.950 . S
H2911 C2938 0.950 . S
H2912 C2941 0.950 . S
H2913 C2942 0.950 . S
H2914 C2944 0.950 . S
H2915 C2945 0.950 . S
C2916 H2898 0.951 . S
C2916 C2917 1.366 . S
C2916 C2918 1.388 . S
C2917 C2916 1.366 . S
C2917 C2921 1.385 . S
C2918 H2899 0.951 . S
C2918 C2916 1.388 . S
C2918 C2919 1.366 . S
C2919 C2918 1.366 . S
C2919 C2920 1.414 . S
C2919 C2922 1.499 . S
C2920 H2900 0.950 . S
C2920 C2919 1.414 . S
C2920 C2921 1.374 . S
C2921 H2901 0.950 . S
C2921 C2917 1.385 . S
C2921 C2920 1.374 . S
C2922 C2919 1.499 . S
C2922 C2923 1.373 . S
C2922 C2924 1.389 . S
C2923 H2902 0.950 . S
C2923 C2922 1.373 . S
C2923 C2939 1.377 . S
C2924 C2922 1.389 . S
C2924 C2925 1.524 . S
C2924 C2938 1.377 . S
C2925 C2924 1.524 . S
C2925 C2926 1.397 . S
C2925 C2930 1.363 . S
C2926 H2903 0.950 . S
C2926 C2925 1.397 . S
C2926 C2927 1.334 . S
C2927 H2904 0.950 . S
C2927 C2926 1.334 . S
C2927 C2928 1.287 . S
C2928 C2927 1.287 . S
C2928 C2929 1.524 . S
C2928 H2947 0.913 . S
C2929 H2905 0.950 . S
C2929 C2928 1.524 . S
C2929 C2930 1.415 . S
C2930 H2906 0.950 . S
C2930 C2925 1.363 . S
C2930 C2929 1.415 . S
C2931 H2907 0.951 . S
C2931 C2932 1.366 . S
C2931 C2933 1.388 . S
C2932 C2931 1.366 . S
C2932 C2936 1.385 . S
C2933 H2908 0.951 . S
C2933 C2931 1.388 . S
C2933 C2934 1.366 . S
C2934 C2933 1.366 . S
C2934 C2935 1.414 . S
C2934 C2937 1.499 . S
C2935 H2909 0.950 . S
C2935 C2934 1.414 . S
C2935 C2936 1.374 . S
C2936 H2910 0.950 . S
C2936 C2932 1.385 . S
C2936 C2935 1.374 . S
C2937 C2934 1.499 . S
C2937 C2938 1.373 . S
C2937 C2939 1.389 . S
C2938 H2911 0.950 . S
C2938 C2924 1.377 . S
C2938 C2937 1.373 . S
C2939 C2923 1.377 . S
C2939 C2937 1.389 . S
C2939 C2940 1.524 . S
C2940 C2939 1.524 . S
C2940 C2941 1.397 . S
C2940 C2945 1.363 . S
C2941 H2912 0.950 . S
C2941 C2940 1.397 . S
C2941 C2942 1.334 . S
C2942 H2913 0.950 . S
C2942 C2941 1.334 . S
C2942 C2943 1.287 . S
C2943 C2942 1.287 . S
C2943 C2944 1.524 . S
C2943 H2946 0.999 . S
C2944 H2914 0.950 . S
C2944 C2943 1.524 . S
C2944 C2945 1.415 . S
C2945 H2915 0.950 . S
C2945 C2940 1.363 . S
C2945 C2944 1.415 . S
H2946 C2943 0.999 . S
H2947 C2928 0.913 . S
H2948 C2966 0.951 . S
H2949 C2968 0.951 . S
H2950 C2970 0.950 . S
H2951 C2971 0.950 . S
H2952 C2973 0.950 . S
H2953 C2976 0.950 . S
H2954 C2977 0.950 . S
H2955 C2979 0.950 . S
H2956 C2980 0.950 . S
H2957 C2981 0.951 . S
H2958 C2983 0.951 . S
H2959 C2985 0.950 . S
H2960 C2986 0.950 . S
H2961 C2988 0.950 . S
H2962 C2991 0.950 . S
H2963 C2992 0.950 . S
H2964 C2994 0.950 . S
H2965 C2995 0.950 . S
C2966 H2948 0.951 . S
C2966 C2967 1.366 . S
C2966 C2968 1.388 . S
C2967 C2966 1.366 . S
C2967 C2971 1.385 . S
C2968 H2949 0.951 . S
C2968 C2966 1.388 . S
C2968 C2969 1.366 . S
C2969 C2968 1.366 . S
C2969 C2970 1.414 . S
C2969 C2972 1.499 . S
C2970 H2950 0.950 . S
C2970 C2969 1.414 . S
C2970 C2971 1.374 . S
C2971 H2951 0.950 . S
C2971 C2967 1.385 . S
C2971 C2970 1.374 . S
C2972 C2969 1.499 . S
C2972 C2973 1.373 . S
C2972 C2974 1.389 . S
C2973 H2952 0.950 . S
C2973 C2972 1.373 . S
C2973 C2989 1.377 . S
C2974 C2972 1.389 . S
C2974 C2975 1.524 . S
C2974 C2988 1.377 . S
C2975 C2974 1.524 . S
C2975 C2976 1.397 . S
C2975 C2980 1.363 . S
C2976 H2953 0.950 . S
C2976 C2975 1.397 . S
C2976 C2977 1.334 . S
C2977 H2954 0.950 . S
C2977 C2976 1.334 . S
C2977 C2978 1.287 . S
C2978 C2977 1.287 . S
C2978 C2979 1.524 . S
C2978 H2997 0.913 . S
C2979 H2955 0.950 . S
C2979 C2978 1.524 . S
C2979 C2980 1.415 . S
C2980 H2956 0.950 . S
C2980 C2975 1.363 . S
C2980 C2979 1.415 . S
C2981 H2957 0.951 . S
C2981 C2982 1.366 . S
C2981 C2983 1.388 . S
C2982 C2981 1.366 . S
C2982 C2986 1.385 . S
C2983 H2958 0.951 . S
C2983 C2981 1.388 . S
C2983 C2984 1.366 . S
C2984 C2983 1.366 . S
C2984 C2985 1.414 . S
C2984 C2987 1.499 . S
C2985 H2959 0.950 . S
C2985 C2984 1.414 . S
C2985 C2986 1.374 . S
C2986 H2960 0.950 . S
C2986 C2982 1.385 . S
C2986 C2985 1.374 . S
C2987 C2984 1.499 . S
C2987 C2988 1.373 . S
C2987 C2989 1.389 . S
C2988 H2961 0.950 . S
C2988 C2974 1.377 . S
C2988 C2987 1.373 . S
C2989 C2973 1.377 . S
C2989 C2987 1.389 . S
C2989 C2990 1.524 . S
C2990 C2989 1.524 . S
C2990 C2991 1.397 . S
C2990 C2995 1.363 . S
C2991 H2962 0.950 . S
C2991 C2990 1.397 . S
C2991 C2992 1.334 . S
C2992 H2963 0.950 . S
C2992 C2991 1.334 . S
C2992 C2993 1.287 . S
C2993 C2992 1.287 . S
C2993 C2994 1.524 . S
C2993 H2996 0.999 . S
C2994 H2964 0.950 . S
C2994 C2993 1.524 . S
C2994 C2995 1.415 . S
C2995 H2965 0.950 . S
C2995 C2990 1.363 . S
C2995 C2994 1.415 . S
H2996 C2993 0.999 . S
H2997 C2978 0.913 . S
H2998 C3016 0.951 . S
H2999 C3018 0.951 . S
H3000 C3020 0.950 . S
H3001 C3021 0.950 . S
H3002 C3023 0.950 . S
H3003 C3026 0.950 . S
H3004 C3027 0.950 . S
H3005 C3029 0.950 . S
H3006 C3030 0.950 . S
H3007 C3031 0.951 . S
H3008 C3033 0.951 . S
H3009 C3035 0.950 . S
H3010 C3036 0.950 . S
H3011 C3038 0.950 . S
H3012 C3041 0.950 . S
H3013 C3042 0.950 . S
H3014 C3044 0.950 . S
H3015 C3045 0.950 . S
C3016 H2998 0.951 . S
C3016 C3017 1.366 . S
C3016 C3018 1.388 . S
C3017 C3016 1.366 . S
C3017 C3021 1.385 . S
C3018 H2999 0.951 . S
C3018 C3016 1.388 . S
C3018 C3019 1.366 . S
C3019 C3018 1.366 . S
C3019 C3020 1.414 . S
C3019 C3022 1.499 . S
C3020 H3000 0.950 . S
C3020 C3019 1.414 . S
C3020 C3021 1.374 . S
C3021 H3001 0.950 . S
C3021 C3017 1.385 . S
C3021 C3020 1.374 . S
C3022 C3019 1.499 . S
C3022 C3023 1.373 . S
C3022 C3024 1.389 . S
C3023 H3002 0.950 . S
C3023 C3022 1.373 . S
C3023 C3039 1.377 . S
C3024 C3022 1.389 . S
C3024 C3025 1.524 . S
C3024 C3038 1.377 . S
C3025 C3024 1.524 . S
C3025 C3026 1.397 . S
C3025 C3030 1.363 . S
C3026 H3003 0.950 . S
C3026 C3025 1.397 . S
C3026 C3027 1.334 . S
C3027 H3004 0.950 . S
C3027 C3026 1.334 . S
C3027 C3028 1.287 . S
C3028 C3027 1.287 . S
C3028 C3029 1.524 . S
C3028 H3047 0.913 . S
C3029 H3005 0.950 . S
C3029 C3028 1.524 . S
C3029 C3030 1.415 . S
C3030 H3006 0.950 . S
C3030 C3025 1.363 . S
C3030 C3029 1.415 . S
C3031 H3007 0.951 . S
C3031 C3032 1.366 . S
C3031 C3033 1.388 1_455 S
C3032 C3031 1.366 . S
C3032 C3036 1.385 . S
C3033 H3008 0.951 . S
C3033 C3031 1.388 1_655 S
C3033 C3034 1.366 . S
C3034 C3033 1.366 . S
C3034 C3035 1.414 1_655 S
C3034 C3037 1.499 . S
C3035 H3009 0.950 . S
C3035 C3034 1.414 1_455 S
C3035 C3036 1.374 . S
C3036 H3010 0.950 . S
C3036 C3032 1.385 . S
C3036 C3035 1.374 . S
C3037 C3034 1.499 . S
C3037 C3038 1.373 . S
C3037 C3039 1.389 . S
C3038 H3011 0.950 . S
C3038 C3024 1.377 . S
C3038 C3037 1.373 . S
C3039 C3023 1.377 . S
C3039 C3037 1.389 . S
C3039 C3040 1.524 . S
C3040 C3039 1.524 . S
C3040 C3041 1.397 . S
C3040 C3045 1.363 . S
C3041 H3012 0.950 . S
C3041 C3040 1.397 . S
C3041 C3042 1.334 . S
C3042 H3013 0.950 . S
C3042 C3041 1.334 . S
C3042 C3043 1.287 . S
C3043 C3042 1.287 . S
C3043 C3044 1.524 . S
C3043 H3046 0.999 . S
C3044 H3014 0.950 . S
C3044 C3043 1.524 . S
C3044 C3045 1.415 . S
C3045 H3015 0.950 . S
C3045 C3040 1.363 . S
C3045 C3044 1.415 . S
H3046 C3043 0.999 . S
H3047 C3028 0.913 . S
H3048 C3066 0.951 . S
H3049 C3068 0.951 . S
H3050 C3070 0.950 . S
H3051 C3071 0.950 . S
H3052 C3073 0.950 . S
H3053 C3076 0.950 . S
H3054 C3077 0.950 . S
H3055 C3079 0.950 . S
H3056 C3080 0.950 . S
H3057 C3081 0.951 . S
H3058 C3083 0.951 . S
H3059 C3085 0.950 . S
H3060 C3086 0.950 . S
H3061 C3088 0.950 . S
H3062 C3091 0.950 . S
H3063 C3092 0.950 . S
H3064 C3094 0.950 . S
H3065 C3095 0.950 . S
C3066 H3048 0.951 . S
C3066 C3067 1.366 . S
C3066 C3068 1.388 . S
C3067 C3066 1.366 . S
C3067 C3071 1.385 . S
C3068 H3049 0.951 . S
C3068 C3066 1.388 . S
C3068 C3069 1.366 . S
C3069 C3068 1.366 . S
C3069 C3070 1.414 . S
C3069 C3072 1.499 . S
C3070 H3050 0.950 . S
C3070 C3069 1.414 . S
C3070 C3071 1.374 . S
C3071 H3051 0.950 . S
C3071 C3067 1.385 . S
C3071 C3070 1.374 . S
C3072 C3069 1.499 . S
C3072 C3073 1.373 . S
C3072 C3074 1.389 . S
C3073 H3052 0.950 . S
C3073 C3072 1.373 . S
C3073 C3089 1.377 . S
C3074 C3072 1.389 . S
C3074 C3075 1.524 . S
C3074 C3088 1.377 . S
C3075 C3074 1.524 . S
C3075 C3076 1.397 . S
C3075 C3080 1.363 . S
C3076 H3053 0.950 . S
C3076 C3075 1.397 . S
C3076 C3077 1.334 . S
C3077 H3054 0.950 . S
C3077 C3076 1.334 . S
C3077 C3078 1.287 . S
C3078 C3077 1.287 . S
C3078 C3079 1.524 . S
C3078 H3097 0.913 . S
C3079 H3055 0.950 . S
C3079 C3078 1.524 . S
C3079 C3080 1.415 . S
C3080 H3056 0.950 . S
C3080 C3075 1.363 . S
C3080 C3079 1.415 . S
C3081 H3057 0.951 . S
C3081 C3082 1.366 . S
C3081 C3083 1.388 . S
C3082 C3081 1.366 . S
C3082 C3086 1.385 . S
C3083 H3058 0.951 . S
C3083 C3081 1.388 . S
C3083 C3084 1.366 . S
C3084 C3083 1.366 . S
C3084 C3085 1.414 . S
C3084 C3087 1.499 . S
C3085 H3059 0.950 . S
C3085 C3084 1.414 . S
C3085 C3086 1.374 . S
C3086 H3060 0.950 . S
C3086 C3082 1.385 . S
C3086 C3085 1.374 . S
C3087 C3084 1.499 . S
C3087 C3088 1.373 . S
C3087 C3089 1.389 . S
C3088 H3061 0.950 . S
C3088 C3074 1.377 . S
C3088 C3087 1.373 . S
C3089 C3073 1.377 . S
C3089 C3087 1.389 . S
C3089 C3090 1.524 . S
C3090 C3089 1.524 . S
C3090 C3091 1.397 . S
C3090 C3095 1.363 . S
C3091 H3062 0.950 . S
C3091 C3090 1.397 . S
C3091 C3092 1.334 . S
C3092 H3063 0.950 . S
C3092 C3091 1.334 . S
C3092 C3093 1.287 . S
C3093 C3092 1.287 . S
C3093 C3094 1.524 . S
C3093 H3096 0.999 . S
C3094 H3064 0.950 . S
C3094 C3093 1.524 . S
C3094 C3095 1.415 . S
C3095 H3065 0.950 . S
C3095 C3090 1.363 . S
C3095 C3094 1.415 . S
H3096 C3093 0.999 . S
H3097 C3078 0.913 . S
H3098 C3116 0.951 . S
H3099 C3118 0.951 . S
H3100 C3120 0.950 1_655 S
H3101 C3121 0.950 . S
H3102 C3123 0.950 . S
H3103 C3126 0.950 . S
H3104 C3127 0.948 1_455 S
H3105 C3129 0.950 . S
H3106 C3130 0.950 . S
H3107 C3131 0.951 . S
H3108 C3133 0.951 . S
H3109 C3135 0.950 . S
H3110 C3136 0.950 . S
H3111 C3138 0.950 . S
H3112 C3141 0.950 . S
H3113 C3142 0.950 . S
H3114 C3144 0.950 . S
H3115 C3145 0.950 . S
C3116 H3098 0.951 . S
C3116 C3117 1.366 . S
C3116 C3118 1.388 1_455 S
C3117 C3116 1.366 . S
C3117 C3121 1.385 . S
C3118 H3099 0.951 . S
C3118 C3116 1.388 1_655 S
C3118 C3119 1.366 . S
C3119 C3118 1.366 . S
C3119 C3120 1.414 1_655 S
C3119 C3122 1.499 . S
C3120 H3100 0.950 1_455 S
C3120 C3119 1.414 1_455 S
C3120 C3121 1.374 . S
C3121 H3101 0.950 . S
C3121 C3117 1.385 . S
C3121 C3120 1.374 . S
C3122 C3119 1.499 . S
C3122 C3123 1.373 . S
C3122 C3124 1.389 . S
C3123 H3102 0.950 . S
C3123 C3122 1.373 . S
C3123 C3139 1.377 . S
C3124 C3122 1.389 . S
C3124 C3125 1.524 . S
C3124 C3138 1.377 . S
C3125 C3124 1.524 . S
C3125 C3126 1.397 . S
C3125 C3130 1.363 . S
C3126 H3103 0.950 . S
C3126 C3125 1.397 . S
C3126 C3127 1.336 . S
C3127 H3104 0.948 1_655 S
C3127 C3126 1.336 . S
C3127 C3128 1.288 . S
C3128 C3127 1.288 . S
C3128 C3129 1.524 . S
C3128 H3147 0.930 . S
C3129 H3105 0.950 . S
C3129 C3128 1.524 . S
C3129 C3130 1.415 . S
C3130 H3106 0.950 . S
C3130 C3125 1.363 . S
C3130 C3129 1.415 . S
C3131 H3107 0.951 . S
C3131 C3132 1.366 . S
C3131 C3133 1.388 . S
C3132 C3131 1.366 . S
C3132 C3136 1.385 . S
C3133 H3108 0.951 . S
C3133 C3131 1.388 . S
C3133 C3134 1.366 . S
C3134 C3133 1.366 . S
C3134 C3135 1.414 . S
C3134 C3137 1.499 . S
C3135 H3109 0.950 . S
C3135 C3134 1.414 . S
C3135 C3136 1.374 . S
C3136 H3110 0.950 . S
C3136 C3132 1.385 . S
C3136 C3135 1.374 . S
C3137 C3134 1.499 . S
C3137 C3138 1.373 . S
C3137 C3139 1.389 . S
C3138 H3111 0.950 . S
C3138 C3124 1.377 . S
C3138 C3137 1.373 . S
C3139 C3123 1.377 . S
C3139 C3137 1.389 . S
C3139 C3140 1.524 . S
C3140 C3139 1.524 . S
C3140 C3141 1.397 . S
C3140 C3145 1.363 . S
C3141 H3112 0.950 . S
C3141 C3140 1.397 . S
C3141 C3142 1.334 . S
C3142 H3113 0.950 . S
C3142 C3141 1.334 . S
C3142 C3143 1.287 . S
C3143 C3142 1.287 . S
C3143 C3144 1.524 . S
C3143 H3146 0.999 . S
C3144 H3114 0.950 . S
C3144 C3143 1.524 . S
C3144 C3145 1.415 . S
C3145 H3115 0.950 . S
C3145 C3140 1.363 . S
C3145 C3144 1.415 . S
H3146 C3143 0.999 . S
H3147 C3128 0.930 . S
H3148 C3166 0.951 . S
H3149 C3168 0.951 . S
H3150 C3170 0.950 . S
H3151 C3171 0.950 . S
H3152 C3173 0.950 . S
H3153 C3176 0.950 . S
H3154 C3177 0.950 . S
H3155 C3179 0.950 . S
H3156 C3180 0.950 . S
H3157 C3181 0.951 . S
H3158 C3183 0.951 . S
H3159 C3185 0.950 . S
H3160 C3186 0.950 . S
H3161 C3188 0.950 . S
H3162 C3191 0.950 . S
H3163 C3192 0.950 . S
H3164 C3194 0.950 . S
H3165 C3195 0.950 . S
C3166 H3148 0.951 . S
C3166 C3167 1.366 . S
C3166 C3168 1.388 . S
C3167 C3166 1.366 . S
C3167 C3171 1.385 . S
C3168 H3149 0.951 . S
C3168 C3166 1.388 . S
C3168 C3169 1.366 . S
C3169 C3168 1.366 . S
C3169 C3170 1.414 . S
C3169 C3172 1.499 . S
C3170 H3150 0.950 . S
C3170 C3169 1.414 . S
C3170 C3171 1.374 . S
C3171 H3151 0.950 . S
C3171 C3167 1.385 . S
C3171 C3170 1.374 . S
C3172 C3169 1.499 . S
C3172 C3173 1.373 . S
C3172 C3174 1.389 . S
C3173 H3152 0.950 . S
C3173 C3172 1.373 . S
C3173 C3189 1.377 . S
C3174 C3172 1.389 . S
C3174 C3175 1.524 . S
C3174 C3188 1.377 . S
C3175 C3174 1.524 . S
C3175 C3176 1.397 . S
C3175 C3180 1.363 . S
C3176 H3153 0.950 . S
C3176 C3175 1.397 . S
C3176 C3177 1.334 . S
C3177 H3154 0.950 . S
C3177 C3176 1.334 . S
C3177 C3178 1.287 . S
C3178 C3177 1.287 . S
C3178 C3179 1.524 . S
C3178 H3197 0.913 . S
C3179 H3155 0.950 . S
C3179 C3178 1.524 . S
C3179 C3180 1.415 . S
C3180 H3156 0.950 . S
C3180 C3175 1.363 . S
C3180 C3179 1.415 . S
C3181 H3157 0.951 . S
C3181 C3182 1.366 . S
C3181 C3183 1.388 . S
C3182 C3181 1.366 . S
C3182 C3186 1.385 . S
C3183 H3158 0.951 . S
C3183 C3181 1.388 . S
C3183 C3184 1.366 . S
C3184 C3183 1.366 . S
C3184 C3185 1.414 . S
C3184 C3187 1.499 . S
C3185 H3159 0.950 . S
C3185 C3184 1.414 . S
C3185 C3186 1.374 . S
C3186 H3160 0.950 . S
C3186 C3182 1.385 . S
C3186 C3185 1.374 . S
C3187 C3184 1.499 . S
C3187 C3188 1.373 . S
C3187 C3189 1.389 . S
C3188 H3161 0.950 . S
C3188 C3174 1.377 . S
C3188 C3187 1.373 . S
C3189 C3173 1.377 . S
C3189 C3187 1.389 . S
C3189 C3190 1.524 . S
C3190 C3189 1.524 . S
C3190 C3191 1.397 . S
C3190 C3195 1.363 . S
C3191 H3162 0.950 . S
C3191 C3190 1.397 . S
C3191 C3192 1.334 . S
C3192 H3163 0.950 . S
C3192 C3191 1.334 . S
C3192 C3193 1.287 . S
C3193 C3192 1.287 . S
C3193 C3194 1.524 . S
C3193 H3196 0.999 . S
C3194 H3164 0.950 . S
C3194 C3193 1.524 . S
C3194 C3195 1.415 . S
C3195 H3165 0.950 . S
C3195 C3190 1.363 . S
C3195 C3194 1.415 . S
H3196 C3193 0.999 . S
H3197 C3178 0.913 . S
H3198 C3216 0.951 . S
H3199 C3218 0.951 . S
H3200 C3220 0.950 . S
H3201 C3221 0.950 . S
H3202 C3223 0.950 . S
H3203 C3226 0.950 . S
H3204 C3227 0.950 . S
H3205 C3229 0.950 . S
H3206 C3230 0.950 . S
H3207 C3231 0.951 . S
H3208 C3233 0.951 . S
H3209 C3235 0.950 . S
H3210 C3236 0.950 . S
H3211 C3238 0.950 . S
H3212 C3241 0.950 . S
H3213 C3242 0.950 . S
H3214 C3244 0.950 . S
H3215 C3245 0.950 . S
C3216 H3198 0.951 . S
C3216 C3217 1.366 . S
C3216 C3218 1.388 . S
C3217 C3216 1.366 . S
C3217 C3221 1.385 . S
C3218 H3199 0.951 . S
C3218 C3216 1.388 . S
C3218 C3219 1.366 . S
C3219 C3218 1.366 . S
C3219 C3220 1.414 . S
C3219 C3222 1.499 . S
C3220 H3200 0.950 . S
C3220 C3219 1.414 . S
C3220 C3221 1.374 . S
C3221 H3201 0.950 . S
C3221 C3217 1.385 . S
C3221 C3220 1.374 . S
C3222 C3219 1.499 . S
C3222 C3223 1.373 . S
C3222 C3224 1.389 . S
C3223 H3202 0.950 . S
C3223 C3222 1.373 . S
C3223 C3239 1.377 . S
C3224 C3222 1.389 . S
C3224 C3225 1.524 . S
C3224 C3238 1.377 . S
C3225 C3224 1.524 . S
C3225 C3226 1.397 . S
C3225 C3230 1.363 . S
C3226 H3203 0.950 . S
C3226 C3225 1.397 . S
C3226 C3227 1.334 . S
C3227 H3204 0.950 . S
C3227 C3226 1.334 . S
C3227 C3228 1.287 . S
C3228 C3227 1.287 . S
C3228 C3229 1.524 . S
C3228 H3247 0.913 . S
C3229 H3205 0.950 . S
C3229 C3228 1.524 . S
C3229 C3230 1.415 . S
C3230 H3206 0.950 . S
C3230 C3225 1.363 . S
C3230 C3229 1.415 . S
C3231 H3207 0.951 . S
C3231 C3232 1.366 . S
C3231 C3233 1.388 . S
C3232 C3231 1.366 . S
C3232 C3236 1.385 . S
C3233 H3208 0.951 . S
C3233 C3231 1.388 . S
C3233 C3234 1.366 . S
C3234 C3233 1.366 . S
C3234 C3235 1.414 . S
C3234 C3237 1.499 . S
C3235 H3209 0.950 . S
C3235 C3234 1.414 . S
C3235 C3236 1.374 . S
C3236 H3210 0.950 . S
C3236 C3232 1.385 . S
C3236 C3235 1.374 . S
C3237 C3234 1.499 . S
C3237 C3238 1.373 . S
C3237 C3239 1.389 . S
C3238 H3211 0.950 . S
C3238 C3224 1.377 . S
C3238 C3237 1.373 . S
C3239 C3223 1.377 . S
C3239 C3237 1.389 . S
C3239 C3240 1.524 . S
C3240 C3239 1.524 . S
C3240 C3241 1.397 . S
C3240 C3245 1.363 . S
C3241 H3212 0.950 . S
C3241 C3240 1.397 . S
C3241 C3242 1.334 . S
C3242 H3213 0.950 . S
C3242 C3241 1.334 . S
C3242 C3243 1.287 . S
C3243 C3242 1.287 . S
C3243 C3244 1.524 . S
C3243 H3246 0.999 . S
C3244 H3214 0.950 . S
C3244 C3243 1.524 . S
C3244 C3245 1.415 . S
C3245 H3215 0.950 . S
C3245 C3240 1.363 . S
C3245 C3244 1.415 . S
H3246 C3243 0.999 . S
H3247 C3228 0.913 . S
H3248 C3266 0.951 . S
H3249 C3268 0.951 . S
H3250 C3270 0.950 . S
H3251 C3271 0.950 . S
H3252 C3273 0.950 . S
H3253 C3276 0.950 . S
H3254 C3277 0.950 . S
H3255 C3279 0.950 . S
H3256 C3280 0.950 . S
H3257 C3281 0.951 . S
H3258 C3283 0.951 . S
H3259 C3285 0.950 . S
H3260 C3286 0.950 . S
H3261 C3288 0.950 . S
H3262 C3291 0.950 . S
H3263 C3292 0.950 . S
H3264 C3294 0.950 . S
H3265 C3295 0.950 . S
C3266 H3248 0.951 . S
C3266 C3267 1.366 . S
C3266 C3268 1.388 . S
C3267 C3266 1.366 . S
C3267 C3271 1.385 . S
C3268 H3249 0.951 . S
C3268 C3266 1.388 . S
C3268 C3269 1.366 . S
C3269 C3268 1.366 . S
C3269 C3270 1.414 . S
C3269 C3272 1.499 . S
C3270 H3250 0.950 . S
C3270 C3269 1.414 . S
C3270 C3271 1.374 . S
C3271 H3251 0.950 . S
C3271 C3267 1.385 . S
C3271 C3270 1.374 . S
C3272 C3269 1.499 . S
C3272 C3273 1.373 . S
C3272 C3274 1.389 . S
C3273 H3252 0.950 . S
C3273 C3272 1.373 . S
C3273 C3289 1.377 . S
C3274 C3272 1.389 . S
C3274 C3275 1.524 . S
C3274 C3288 1.377 . S
C3275 C3274 1.524 . S
C3275 C3276 1.397 . S
C3275 C3280 1.363 . S
C3276 H3253 0.950 . S
C3276 C3275 1.397 . S
C3276 C3277 1.334 . S
C3277 H3254 0.950 . S
C3277 C3276 1.334 . S
C3277 C3278 1.287 . S
C3278 C3277 1.287 . S
C3278 C3279 1.524 . S
C3278 H3297 0.913 . S
C3279 H3255 0.950 . S
C3279 C3278 1.524 . S
C3279 C3280 1.415 . S
C3280 H3256 0.950 . S
C3280 C3275 1.363 . S
C3280 C3279 1.415 . S
C3281 H3257 0.951 . S
C3281 C3282 1.366 . S
C3281 C3283 1.388 . S
C3282 C3281 1.366 . S
C3282 C3286 1.385 . S
C3283 H3258 0.951 . S
C3283 C3281 1.388 . S
C3283 C3284 1.366 . S
C3284 C3283 1.366 . S
C3284 C3285 1.414 . S
C3284 C3287 1.499 . S
C3285 H3259 0.950 . S
C3285 C3284 1.414 . S
C3285 C3286 1.374 . S
C3286 H3260 0.950 . S
C3286 C3282 1.385 . S
C3286 C3285 1.374 . S
C3287 C3284 1.499 . S
C3287 C3288 1.373 . S
C3287 C3289 1.389 . S
C3288 H3261 0.950 . S
C3288 C3274 1.377 . S
C3288 C3287 1.373 . S
C3289 C3273 1.377 . S
C3289 C3287 1.389 . S
C3289 C3290 1.524 . S
C3290 C3289 1.524 . S
C3290 C3291 1.397 . S
C3290 C3295 1.363 . S
C3291 H3262 0.950 . S
C3291 C3290 1.397 . S
C3291 C3292 1.334 . S
C3292 H3263 0.950 . S
C3292 C3291 1.334 . S
C3292 C3293 1.287 . S
C3293 C3292 1.287 . S
C3293 C3294 1.524 . S
C3293 H3296 0.999 . S
C3294 H3264 0.950 . S
C3294 C3293 1.524 . S
C3294 C3295 1.415 . S
C3295 H3265 0.950 . S
C3295 C3290 1.363 . S
C3295 C3294 1.415 . S
H3296 C3293 0.999 . S
H3297 C3278 0.913 . S
H3298 C3316 0.951 . S
H3299 C3318 0.951 . S
H3300 C3320 0.950 . S
H3301 C3321 0.950 . S
H3302 C3323 0.950 . S
H3303 C3326 0.950 . S
H3304 C3327 0.950 . S
H3305 C3329 0.950 . S
H3306 C3330 0.950 . S
H3307 C3331 0.951 . S
H3308 C3333 0.951 . S
H3309 C3335 0.950 . S
H3310 C3336 0.950 . S
H3311 C3338 0.950 . S
H3312 C3341 0.950 . S
H3313 C3342 0.950 . S
H3314 C3344 0.950 . S
H3315 C3345 0.950 . S
C3316 H3298 0.951 . S
C3316 C3317 1.366 . S
C3316 C3318 1.388 . S
C3317 C3316 1.366 . S
C3317 C3321 1.385 . S
C3318 H3299 0.951 . S
C3318 C3316 1.388 . S
C3318 C3319 1.366 . S
C3319 C3318 1.366 . S
C3319 C3320 1.414 . S
C3319 C3322 1.499 . S
C3320 H3300 0.950 . S
C3320 C3319 1.414 . S
C3320 C3321 1.374 . S
C3321 H3301 0.950 . S
C3321 C3317 1.385 . S
C3321 C3320 1.374 . S
C3322 C3319 1.499 . S
C3322 C3323 1.373 . S
C3322 C3324 1.389 . S
C3323 H3302 0.950 . S
C3323 C3322 1.373 . S
C3323 C3339 1.377 . S
C3324 C3322 1.389 . S
C3324 C3325 1.524 . S
C3324 C3338 1.377 . S
C3325 C3324 1.524 . S
C3325 C3326 1.397 . S
C3325 C3330 1.363 . S
C3326 H3303 0.950 . S
C3326 C3325 1.397 . S
C3326 C3327 1.334 . S
C3327 H3304 0.950 . S
C3327 C3326 1.334 . S
C3327 C3328 1.287 . S
C3328 C3327 1.287 . S
C3328 C3329 1.524 . S
C3328 H3347 0.913 . S
C3329 H3305 0.950 . S
C3329 C3328 1.524 . S
C3329 C3330 1.415 . S
C3330 H3306 0.950 . S
C3330 C3325 1.363 . S
C3330 C3329 1.415 . S
C3331 H3307 0.951 . S
C3331 C3332 1.366 . S
C3331 C3333 1.388 . S
C3332 C3331 1.366 . S
C3332 C3336 1.385 . S
C3333 H3308 0.951 . S
C3333 C3331 1.388 . S
C3333 C3334 1.366 . S
C3334 C3333 1.366 . S
C3334 C3335 1.414 . S
C3334 C3337 1.499 . S
C3335 H3309 0.950 . S
C3335 C3334 1.414 . S
C3335 C3336 1.374 . S
C3336 H3310 0.950 . S
C3336 C3332 1.385 . S
C3336 C3335 1.374 . S
C3337 C3334 1.499 . S
C3337 C3338 1.373 . S
C3337 C3339 1.389 . S
C3338 H3311 0.950 . S
C3338 C3324 1.377 . S
C3338 C3337 1.373 . S
C3339 C3323 1.377 . S
C3339 C3337 1.389 . S
C3339 C3340 1.524 . S
C3340 C3339 1.524 . S
C3340 C3341 1.397 . S
C3340 C3345 1.363 . S
C3341 H3312 0.950 . S
C3341 C3340 1.397 . S
C3341 C3342 1.334 . S
C3342 H3313 0.950 . S
C3342 C3341 1.334 . S
C3342 C3343 1.287 . S
C3343 C3342 1.287 . S
C3343 C3344 1.524 . S
C3343 H3346 0.999 . S
C3344 H3314 0.950 . S
C3344 C3343 1.524 . S
C3344 C3345 1.415 . S
C3345 H3315 0.950 . S
C3345 C3340 1.363 . S
C3345 C3344 1.415 . S
H3346 C3343 0.999 . S
H3347 C3328 0.913 . S
H3348 C3366 0.951 . S
H3349 C3368 0.951 . S
H3350 C3370 0.950 . S
H3351 C3371 0.950 . S
H3352 C3373 0.950 . S
H3353 C3376 0.950 . S
H3354 C3377 0.950 . S
H3355 C3379 0.950 . S
H3356 C3380 0.950 . S
H3357 C3381 0.951 . S
H3358 C3383 0.951 . S
H3359 C3385 0.950 . S
H3360 C3386 0.950 . S
H3361 C3388 0.950 . S
H3362 C3391 0.950 . S
H3363 C3392 0.950 . S
H3364 C3394 0.950 . S
H3365 C3395 0.950 . S
C3366 H3348 0.951 . S
C3366 C3367 1.366 . S
C3366 C3368 1.388 . S
C3367 C3366 1.366 . S
C3367 C3371 1.385 . S
C3368 H3349 0.951 . S
C3368 C3366 1.388 . S
C3368 C3369 1.366 . S
C3369 C3368 1.366 . S
C3369 C3370 1.414 . S
C3369 C3372 1.499 . S
C3370 H3350 0.950 . S
C3370 C3369 1.414 . S
C3370 C3371 1.374 . S
C3371 H3351 0.950 . S
C3371 C3367 1.385 . S
C3371 C3370 1.374 . S
C3372 C3369 1.499 . S
C3372 C3373 1.373 . S
C3372 C3374 1.389 . S
C3373 H3352 0.950 . S
C3373 C3372 1.373 . S
C3373 C3389 1.377 . S
C3374 C3372 1.389 . S
C3374 C3375 1.524 . S
C3374 C3388 1.377 . S
C3375 C3374 1.524 . S
C3375 C3376 1.397 . S
C3375 C3380 1.363 . S
C3376 H3353 0.950 . S
C3376 C3375 1.397 . S
C3376 C3377 1.334 . S
C3377 H3354 0.950 . S
C3377 C3376 1.334 . S
C3377 C3378 1.287 . S
C3378 C3377 1.287 . S
C3378 C3379 1.524 . S
C3378 H3397 0.913 . S
C3379 H3355 0.950 . S
C3379 C3378 1.524 . S
C3379 C3380 1.415 . S
C3380 H3356 0.950 . S
C3380 C3375 1.363 . S
C3380 C3379 1.415 . S
C3381 H3357 0.951 . S
C3381 C3382 1.366 . S
C3381 C3383 1.388 . S
C3382 C3381 1.366 . S
C3382 C3386 1.385 . S
C3383 H3358 0.951 . S
C3383 C3381 1.388 . S
C3383 C3384 1.366 . S
C3384 C3383 1.366 . S
C3384 C3385 1.414 . S
C3384 C3387 1.499 . S
C3385 H3359 0.950 . S
C3385 C3384 1.414 . S
C3385 C3386 1.374 . S
C3386 H3360 0.950 . S
C3386 C3382 1.385 . S
C3386 C3385 1.374 . S
C3387 C3384 1.499 . S
C3387 C3388 1.373 . S
C3387 C3389 1.389 . S
C3388 H3361 0.950 . S
C3388 C3374 1.377 . S
C3388 C3387 1.373 . S
C3389 C3373 1.377 . S
C3389 C3387 1.389 . S
C3389 C3390 1.524 . S
C3390 C3389 1.524 . S
C3390 C3391 1.397 . S
C3390 C3395 1.363 . S
C3391 H3362 0.950 . S
C3391 C3390 1.397 . S
C3391 C3392 1.334 . S
C3392 H3363 0.950 . S
C3392 C3391 1.334 . S
C3392 C3393 1.287 . S
C3393 C3392 1.287 . S
C3393 C3394 1.524 . S
C3393 H3396 0.999 . S
C3394 H3364 0.950 . S
C3394 C3393 1.524 . S
C3394 C3395 1.415 . S
C3395 H3365 0.950 . S
C3395 C3390 1.363 . S
C3395 C3394 1.415 . S
H3396 C3393 0.999 . S
H3397 C3378 0.913 . S
H3398 C3416 0.951 . S
H3399 C3418 0.951 . S
H3400 C3420 0.950 . S
H3401 C3421 0.950 . S
H3402 C3423 0.950 . S
H3403 C3426 0.950 . S
H3404 C3427 0.950 . S
H3405 C3429 0.950 . S
H3406 C3430 0.950 . S
H3407 C3431 0.951 . S
H3408 C3433 0.951 . S
H3409 C3435 0.950 . S
H3410 C3436 0.950 . S
H3411 C3438 0.950 . S
H3412 C3441 0.950 . S
H3413 C3442 0.950 . S
H3414 C3444 0.950 . S
H3415 C3445 0.950 . S
C3416 H3398 0.951 . S
C3416 C3417 1.366 . S
C3416 C3418 1.388 1_655 S
C3417 C3416 1.366 . S
C3417 C3421 1.385 . S
C3418 H3399 0.951 . S
C3418 C3416 1.388 1_455 S
C3418 C3419 1.366 . S
C3419 C3418 1.366 . S
C3419 C3420 1.414 1_455 S
C3419 C3422 1.499 . S
C3420 H3400 0.950 . S
C3420 C3419 1.414 1_655 S
C3420 C3421 1.374 . S
C3421 H3401 0.950 . S
C3421 C3417 1.385 . S
C3421 C3420 1.374 . S
C3422 C3419 1.499 . S
C3422 C3423 1.373 . S
C3422 C3424 1.389 . S
C3423 H3402 0.950 . S
C3423 C3422 1.373 . S
C3423 C3439 1.377 . S
C3424 C3422 1.389 . S
C3424 C3425 1.524 . S
C3424 C3438 1.377 . S
C3425 C3424 1.524 . S
C3425 C3426 1.397 . S
C3425 C3430 1.363 . S
C3426 H3403 0.950 . S
C3426 C3425 1.397 . S
C3426 C3427 1.334 . S
C3427 H3404 0.950 . S
C3427 C3426 1.334 . S
C3427 C3428 1.287 . S
C3428 C3427 1.287 . S
C3428 C3429 1.524 . S
C3428 H3447 0.913 . S
C3429 H3405 0.950 . S
C3429 C3428 1.524 . S
C3429 C3430 1.415 . S
C3430 H3406 0.950 . S
C3430 C3425 1.363 . S
C3430 C3429 1.415 . S
C3431 H3407 0.951 . S
C3431 C3432 1.366 . S
C3431 C3433 1.388 . S
C3432 C3431 1.366 . S
C3432 C3436 1.385 . S
C3433 H3408 0.951 . S
C3433 C3431 1.388 . S
C3433 C3434 1.366 . S
C3434 C3433 1.366 . S
C3434 C3435 1.414 . S
C3434 C3437 1.499 . S
C3435 H3409 0.950 . S
C3435 C3434 1.414 . S
C3435 C3436 1.374 . S
C3436 H3410 0.950 . S
C3436 C3432 1.385 . S
C3436 C3435 1.374 . S
C3437 C3434 1.499 . S
C3437 C3438 1.373 . S
C3437 C3439 1.389 . S
C3438 H3411 0.950 . S
C3438 C3424 1.377 . S
C3438 C3437 1.373 . S
C3439 C3423 1.377 . S
C3439 C3437 1.389 . S
C3439 C3440 1.524 . S
C3440 C3439 1.524 . S
C3440 C3441 1.397 . S
C3440 C3445 1.363 . S
C3441 H3412 0.950 . S
C3441 C3440 1.397 . S
C3441 C3442 1.334 . S
C3442 H3413 0.950 . S
C3442 C3441 1.334 . S
C3442 C3443 1.287 . S
C3443 C3442 1.287 . S
C3443 C3444 1.524 . S
C3443 H3446 0.999 . S
C3444 H3414 0.950 . S
C3444 C3443 1.524 . S
C3444 C3445 1.415 . S
C3445 H3415 0.950 . S
C3445 C3440 1.363 . S
C3445 C3444 1.415 . S
H3446 C3443 0.999 . S
H3447 C3428 0.913 . S
H3448 C3466 0.951 . S
H3449 C3468 0.951 . S
H3450 C3470 0.950 . S
H3451 C3471 0.950 . S
H3452 C3473 0.950 . S
H3453 C3476 0.950 . S
H3454 C3477 0.950 . S
H3455 C3479 0.950 . S
H3456 C3480 0.950 . S
H3457 C3481 0.951 . S
H3458 C3483 0.951 . S
H3459 C3485 0.950 . S
H3460 C3486 0.950 . S
H3461 C3488 0.950 . S
H3462 C3491 0.950 . S
H3463 C3492 0.950 . S
H3464 C3494 0.950 . S
H3465 C3495 0.950 . S
C3466 H3448 0.951 . S
C3466 C3467 1.366 . S
C3466 C3468 1.388 . S
C3467 C3466 1.366 . S
C3467 C3471 1.385 . S
C3468 H3449 0.951 . S
C3468 C3466 1.388 . S
C3468 C3469 1.366 . S
C3469 C3468 1.366 . S
C3469 C3470 1.414 . S
C3469 C3472 1.499 . S
C3470 H3450 0.950 . S
C3470 C3469 1.414 . S
C3470 C3471 1.374 . S
C3471 H3451 0.950 . S
C3471 C3467 1.385 . S
C3471 C3470 1.374 . S
C3472 C3469 1.499 . S
C3472 C3473 1.373 . S
C3472 C3474 1.389 . S
C3473 H3452 0.950 . S
C3473 C3472 1.373 . S
C3473 C3489 1.377 . S
C3474 C3472 1.389 . S
C3474 C3475 1.524 . S
C3474 C3488 1.377 . S
C3475 C3474 1.524 . S
C3475 C3476 1.397 . S
C3475 C3480 1.363 . S
C3476 H3453 0.950 . S
C3476 C3475 1.397 . S
C3476 C3477 1.334 . S
C3477 H3454 0.950 . S
C3477 C3476 1.334 . S
C3477 C3478 1.287 . S
C3478 C3477 1.287 . S
C3478 C3479 1.524 . S
C3478 H3497 0.913 . S
C3479 H3455 0.950 . S
C3479 C3478 1.524 . S
C3479 C3480 1.415 . S
C3480 H3456 0.950 . S
C3480 C3475 1.363 . S
C3480 C3479 1.415 . S
C3481 H3457 0.951 . S
C3481 C3482 1.366 . S
C3481 C3483 1.388 . S
C3482 C3481 1.366 . S
C3482 C3486 1.385 . S
C3483 H3458 0.951 . S
C3483 C3481 1.388 . S
C3483 C3484 1.366 . S
C3484 C3483 1.366 . S
C3484 C3485 1.414 . S
C3484 C3487 1.499 . S
C3485 H3459 0.950 . S
C3485 C3484 1.414 . S
C3485 C3486 1.374 . S
C3486 H3460 0.950 . S
C3486 C3482 1.385 . S
C3486 C3485 1.374 . S
C3487 C3484 1.499 . S
C3487 C3488 1.373 . S
C3487 C3489 1.389 . S
C3488 H3461 0.950 . S
C3488 C3474 1.377 . S
C3488 C3487 1.373 . S
C3489 C3473 1.377 . S
C3489 C3487 1.389 . S
C3489 C3490 1.524 . S
C3490 C3489 1.524 . S
C3490 C3491 1.397 . S
C3490 C3495 1.363 . S
C3491 H3462 0.950 . S
C3491 C3490 1.397 . S
C3491 C3492 1.334 . S
C3492 H3463 0.950 . S
C3492 C3491 1.334 . S
C3492 C3493 1.287 . S
C3493 C3492 1.287 . S
C3493 C3494 1.524 . S
C3493 H3496 0.999 . S
C3494 H3464 0.950 . S
C3494 C3493 1.524 . S
C3494 C3495 1.415 . S
C3495 H3465 0.950 . S
C3495 C3490 1.363 . S
C3495 C3494 1.415 . S
H3496 C3493 0.999 . S
H3497 C3478 0.913 . S
H3498 C3516 0.951 . S
H3499 C3518 0.951 . S
H3500 C3520 0.950 . S
H3501 C3521 0.950 . S
H3502 C3523 0.950 . S
H3503 C3526 0.950 . S
H3504 C3527 0.950 . S
H3505 C3529 0.950 . S
H3506 C3530 0.950 . S
H3507 C3531 0.951 . S
H3508 C3533 0.951 . S
H3509 C3535 0.950 1_455 S
H3510 C3536 0.950 . S
H3511 C3538 0.950 . S
H3512 C3541 0.950 . S
H3513 C3542 0.950 . S
H3514 C3544 0.950 . S
H3515 C3545 0.950 . S
C3516 H3498 0.951 . S
C3516 C3517 1.366 . S
C3516 C3518 1.388 . S
C3517 C3516 1.366 . S
C3517 C3521 1.385 . S
C3518 H3499 0.951 . S
C3518 C3516 1.388 . S
C3518 C3519 1.366 . S
C3519 C3518 1.366 . S
C3519 C3520 1.414 . S
C3519 C3522 1.499 . S
C3520 H3500 0.950 . S
C3520 C3519 1.414 . S
C3520 C3521 1.374 . S
C3521 H3501 0.950 . S
C3521 C3517 1.385 . S
C3521 C3520 1.374 . S
C3522 C3519 1.499 . S
C3522 C3523 1.373 . S
C3522 C3524 1.389 . S
C3523 H3502 0.950 . S
C3523 C3522 1.373 . S
C3523 C3539 1.377 . S
C3524 C3522 1.389 . S
C3524 C3525 1.524 . S
C3524 C3538 1.377 . S
C3525 C3524 1.524 . S
C3525 C3526 1.397 . S
C3525 C3530 1.363 . S
C3526 H3503 0.950 . S
C3526 C3525 1.397 . S
C3526 C3527 1.334 . S
C3527 H3504 0.950 . S
C3527 C3526 1.334 . S
C3527 C3528 1.287 . S
C3528 C3527 1.287 . S
C3528 C3529 1.524 . S
C3528 H3547 0.913 . S
C3529 H3505 0.950 . S
C3529 C3528 1.524 . S
C3529 C3530 1.415 . S
C3530 H3506 0.950 . S
C3530 C3525 1.363 . S
C3530 C3529 1.415 . S
C3531 H3507 0.951 . S
C3531 C3532 1.366 . S
C3531 C3533 1.388 1_655 S
C3532 C3531 1.366 . S
C3532 C3536 1.385 . S
C3533 H3508 0.951 . S
C3533 C3531 1.388 1_455 S
C3533 C3534 1.366 . S
C3534 C3533 1.366 . S
C3534 C3535 1.414 1_455 S
C3534 C3537 1.499 . S
C3535 H3509 0.950 1_655 S
C3535 C3534 1.414 1_655 S
C3535 C3536 1.374 . S
C3536 H3510 0.950 . S
C3536 C3532 1.385 . S
C3536 C3535 1.374 . S
C3537 C3534 1.499 . S
C3537 C3538 1.373 . S
C3537 C3539 1.389 . S
C3538 H3511 0.950 . S
C3538 C3524 1.377 . S
C3538 C3537 1.373 . S
C3539 C3523 1.377 . S
C3539 C3537 1.389 . S
C3539 C3540 1.524 . S
C3540 C3539 1.524 . S
C3540 C3541 1.397 . S
C3540 C3545 1.363 . S
C3541 H3512 0.950 . S
C3541 C3540 1.397 . S
C3541 C3542 1.334 . S
C3542 H3513 0.950 . S
C3542 C3541 1.334 . S
C3542 C3543 1.287 . S
C3543 C3542 1.287 . S
C3543 C3544 1.524 . S
C3543 H3546 0.999 . S
C3544 H3514 0.950 . S
C3544 C3543 1.524 . S
C3544 C3545 1.415 . S
C3545 H3515 0.950 . S
C3545 C3540 1.363 . S
C3545 C3544 1.415 . S
H3546 C3543 0.999 . S
H3547 C3528 0.913 . S
H3548 C3566 0.951 . S
H3549 C3568 0.951 . S
H3550 C3570 0.950 . S
H3551 C3571 0.950 . S
H3552 C3573 0.950 . S
H3553 C3576 0.950 . S
H3554 C3577 0.950 . S
H3555 C3579 0.950 . S
H3556 C3580 0.950 . S
H3557 C3581 0.951 . S
H3558 C3583 0.951 . S
H3559 C3585 0.950 . S
H3560 C3586 0.950 . S
H3561 C3588 0.950 . S
H3562 C3591 0.950 . S
H3563 C3592 0.950 . S
H3564 C3594 0.950 . S
H3565 C3595 0.950 . S
C3566 H3548 0.951 . S
C3566 C3567 1.366 . S
C3566 C3568 1.388 . S
C3567 C3566 1.366 . S
C3567 C3571 1.385 . S
C3568 H3549 0.951 . S
C3568 C3566 1.388 . S
C3568 C3569 1.366 . S
C3569 C3568 1.366 . S
C3569 C3570 1.414 . S
C3569 C3572 1.499 . S
C3570 H3550 0.950 . S
C3570 C3569 1.414 . S
C3570 C3571 1.374 . S
C3571 H3551 0.950 . S
C3571 C3567 1.385 . S
C3571 C3570 1.374 . S
C3572 C3569 1.499 . S
C3572 C3573 1.373 . S
C3572 C3574 1.389 . S
C3573 H3552 0.950 . S
C3573 C3572 1.373 . S
C3573 C3589 1.377 . S
C3574 C3572 1.389 . S
C3574 C3575 1.524 . S
C3574 C3588 1.377 . S
C3575 C3574 1.524 . S
C3575 C3576 1.397 . S
C3575 C3580 1.363 . S
C3576 H3553 0.950 . S
C3576 C3575 1.397 . S
C3576 C3577 1.334 . S
C3577 H3554 0.950 . S
C3577 C3576 1.334 . S
C3577 C3578 1.287 . S
C3578 C3577 1.287 . S
C3578 C3579 1.524 . S
C3578 H3597 0.913 . S
C3579 H3555 0.950 . S
C3579 C3578 1.524 . S
C3579 C3580 1.415 . S
C3580 H3556 0.950 . S
C3580 C3575 1.363 . S
C3580 C3579 1.415 . S
C3581 H3557 0.951 . S
C3581 C3582 1.366 . S
C3581 C3583 1.388 . S
C3582 C3581 1.366 . S
C3582 C3586 1.385 . S
C3583 H3558 0.951 . S
C3583 C3581 1.388 . S
C3583 C3584 1.366 . S
C3584 C3583 1.366 . S
C3584 C3585 1.414 . S
C3584 C3587 1.499 . S
C3585 H3559 0.950 . S
C3585 C3584 1.414 . S
C3585 C3586 1.374 . S
C3586 H3560 0.950 . S
C3586 C3582 1.385 . S
C3586 C3585 1.374 . S
C3587 C3584 1.499 . S
C3587 C3588 1.373 . S
C3587 C3589 1.389 . S
C3588 H3561 0.950 . S
C3588 C3574 1.377 . S
C3588 C3587 1.373 . S
C3589 C3573 1.377 . S
C3589 C3587 1.389 . S
C3589 C3590 1.524 . S
C3590 C3589 1.524 . S
C3590 C3591 1.397 . S
C3590 C3595 1.363 . S
C3591 H3562 0.950 . S
C3591 C3590 1.397 . S
C3591 C3592 1.334 . S
C3592 H3563 0.950 . S
C3592 C3591 1.334 . S
C3592 C3593 1.287 . S
C3593 C3592 1.287 . S
C3593 C3594 1.524 . S
C3593 H3596 0.999 . S
C3594 H3564 0.950 . S
C3594 C3593 1.524 . S
C3594 C3595 1.415 . S
C3595 H3565 0.950 . S
C3595 C3590 1.363 . S
C3595 C3594 1.415 . S
H3596 C3593 0.999 . S
H3597 C3578 0.913 . S
H3598 C3616 0.951 . S
H3599 C3618 0.951 . S
H3600 C3620 0.950 . S
H3601 C3621 0.950 . S
H3602 C3623 0.950 . S
H3603 C3626 0.950 . S
H3604 C3627 0.950 . S
H3605 C3629 0.950 . S
H3606 C3630 0.950 . S
H3607 C3631 0.951 . S
H3608 C3633 0.951 . S
H3609 C3635 0.950 . S
H3610 C3636 0.950 . S
H3611 C3638 0.950 . S
H3612 C3641 0.950 . S
H3613 C3642 0.950 . S
H3614 C3644 0.950 . S
H3615 C3645 0.950 . S
C3616 H3598 0.951 . S
C3616 C3617 1.366 . S
C3616 C3618 1.388 . S
C3617 C3616 1.366 . S
C3617 C3621 1.385 . S
C3618 H3599 0.951 . S
C3618 C3616 1.388 . S
C3618 C3619 1.366 . S
C3619 C3618 1.366 . S
C3619 C3620 1.414 . S
C3619 C3622 1.499 . S
C3620 H3600 0.950 . S
C3620 C3619 1.414 . S
C3620 C3621 1.374 . S
C3621 H3601 0.950 . S
C3621 C3617 1.385 . S
C3621 C3620 1.374 . S
C3622 C3619 1.499 . S
C3622 C3623 1.373 . S
C3622 C3624 1.389 . S
C3623 H3602 0.950 . S
C3623 C3622 1.373 . S
C3623 C3639 1.377 . S
C3624 C3622 1.389 . S
C3624 C3625 1.524 . S
C3624 C3638 1.377 . S
C3625 C3624 1.524 . S
C3625 C3626 1.397 . S
C3625 C3630 1.363 . S
C3626 H3603 0.950 . S
C3626 C3625 1.397 . S
C3626 C3627 1.334 . S
C3627 H3604 0.950 . S
C3627 C3626 1.334 . S
C3627 C3628 1.287 . S
C3628 C3627 1.287 . S
C3628 C3629 1.524 . S
C3628 H3647 0.913 . S
C3629 H3605 0.950 . S
C3629 C3628 1.524 . S
C3629 C3630 1.415 . S
C3630 H3606 0.950 . S
C3630 C3625 1.363 . S
C3630 C3629 1.415 . S
C3631 H3607 0.951 . S
C3631 C3632 1.366 . S
C3631 C3633 1.388 . S
C3632 C3631 1.366 . S
C3632 C3636 1.385 . S
C3633 H3608 0.951 . S
C3633 C3631 1.388 . S
C3633 C3634 1.366 . S
C3634 C3633 1.366 . S
C3634 C3635 1.414 . S
C3634 C3637 1.499 . S
C3635 H3609 0.950 . S
C3635 C3634 1.414 . S
C3635 C3636 1.374 . S
C3636 H3610 0.950 . S
C3636 C3632 1.385 . S
C3636 C3635 1.374 . S
C3637 C3634 1.499 . S
C3637 C3638 1.373 . S
C3637 C3639 1.389 . S
C3638 H3611 0.950 . S
C3638 C3624 1.377 . S
C3638 C3637 1.373 . S
C3639 C3623 1.377 . S
C3639 C3637 1.389 . S
C3639 C3640 1.524 . S
C3640 C3639 1.524 . S
C3640 C3641 1.397 . S
C3640 C3645 1.363 . S
C3641 H3612 0.950 . S
C3641 C3640 1.397 . S
C3641 C3642 1.334 . S
C3642 H3613 0.950 . S
C3642 C3641 1.334 . S
C3642 C3643 1.287 . S
C3643 C3642 1.287 . S
C3643 C3644 1.524 . S
C3643 H3646 0.999 . S
C3644 H3614 0.950 . S
C3644 C3643 1.524 . S
C3644 C3645 1.415 . S
C3645 H3615 0.950 . S
C3645 C3640 1.363 . S
C3645 C3644 1.415 . S
H3646 C3643 0.999 . S
H3647 C3628 0.913 . S
C467 C67 1.511 . S
C482 C11 1.511 . S
C517 C81 1.512 . S
C532 C25 1.511 . S
C567 C95 1.511 . S
C582 C39 1.512 . S
C617 C53 1.512 . S
C632 C109 1.511 . S
C667 C123 1.511 . S
C682 C179 1.512 . S
C717 C193 1.511 . S
C732 C137 1.512 . S
C767 C151 1.512 . S
C782 C207 1.511 . S
C817 C221 1.512 . S
C832 C165 1.511 . S
C867 C235 1.512 . S
C882 C291 1.511 . S
C917 C305 1.511 . S
C932 C249 1.512 . S
C967 C319 1.512 . S
C982 C263 1.511 . S
C1017 C333 1.512 . S
C1032 C277 1.511 . S
C1067 C347 1.511 . S
C1082 C403 1.512 . S
C1117 C361 1.511 . S
C1132 C417 1.512 . S
C1167 C375 1.511 . S
C1182 C431 1.512 . S
C1217 C389 1.512 . S
C1232 C445 1.511 . S
C1267 C9 1.207 . S
C1282 C107 1.207 . S
C1317 C23 1.207 . S
C1332 C65 1.206 . S
C1367 C37 1.207 . S
C1382 C79 1.207 . S
C1417 C93 1.206 . S
C1432 C51 1.207 . S
C1467 C219 1.206 . S
C1482 C121 1.206 . S
C1517 C177 1.206 . S
C1532 C135 1.206 . S
C1567 C191 1.206 . S
C1582 C149 1.206 . S
C1617 C163 1.207 . S
C1632 C205 1.207 . S
C1667 C331 1.206 . S
C1682 C233 1.206 . S
C1717 C289 1.207 . S
C1732 C247 1.207 . S
C1767 C303 1.206 . S
C1782 C261 1.206 . S
C1817 C275 1.207 . S
C1832 C317 1.207 . S
C1867 C345 1.207 . S
C1882 C443 1.207 . S
C1917 C359 1.206 . S
C1932 C401 1.206 . S
C1967 C373 1.206 . S
C1982 C415 1.206 . S
C2017 C429 1.207 . S
C2032 C387 1.207 . S
C2067 C5 1.444 . S
C2082 C350 1.426 . S
C2117 C19 1.444 . S
C2132 C140 1.426 . S
C2167 C33 1.444 . S
C2182 C378 1.427 . S
C2217 C112 1.426 . S
C2232 C47 1.444 . S
C2267 C434 1.427 . S
C2282 C61 1.444 . S
C2317 C75 1.444 . S
C2332 C168 1.426 . S
C2367 C89 1.444 . S
C2382 C406 1.427 . S
C2417 C103 1.444 . S
C2432 C196 1.427 . S
C2467 C238 1.427 . S
C2482 C117 1.444 . S
C2517 C28 1.427 . S
C2532 C131 1.444 . S
C2567 C266 1.427 . S
C2582 C145 1.444 . S
C2617 C159 1.444 . S
C2632 C0 1.427 . S
C2667 C322 1.427 . S
C2682 C173 1.444 . S
C2717 C56 1.427 . S
C2732 C187 1.444 . S
C2767 C294 1.426 . S
C2782 C201 1.444 . S
C2817 C84 1.427 . S
C2832 C215 1.444 . S
C2867 C126 1.427 . S
C2882 C229 1.444 . S
C2917 C243 1.443 . S
C2932 C364 1.426 . S
C2967 C257 1.444 . S
C2982 C154 1.427 . S
C3017 C271 1.443 . S
C3032 C336 1.426 . S
C3067 C285 1.444 . S
C3082 C210 1.426 . S
C3117 C392 1.427 . S
C3132 C299 1.443 . S
C3167 C313 1.444 . S
C3182 C182 1.427 . S
C3217 C327 1.443 . S
C3232 C420 1.426 . S
C3267 C341 1.444 . S
C3282 C14 1.427 . S
C3317 C355 1.443 . S
C3332 C252 1.427 . S
C3367 C42 1.427 . S
C3382 C369 1.444 . S
C3417 C224 1.426 . S
C3432 C383 1.444 . S
C3467 C397 1.444 . S
C3482 C98 1.427 . S
C3517 C411 1.444 . S
C3532 C280 1.426 . S
C3567 C70 1.427 . S
C3582 C425 1.444 . S
C3617 C308 1.427 . S
C3632 C439 1.443 . S
