# Generated by pormake.
# Topology unn, (4)-cn, num edge types: 1
# Building blocks:
#     Node 0, Type 0, BuildingBlock: NAWXER_clean_sbu_0, # of connection points: 4
#     Node 1, Type 0, BuildingBlock: NAWXER_clean_sbu_0, # of connection points: 4
#     Node 2, Type 0, BuildingBlock: NAWXER_clean_sbu_0, # of connection points: 4
#     Node 3, Type 0, BuildingBlock: NAWXER_clean_sbu_0, # of connection points: 4
#     Node 4, Type 0, BuildingBlock: NAWXER_clean_sbu_0, # of connection points: 4
#     Node 5, Type 0, BuildingBlock: NAWXER_clean_sbu_0, # of connection points: 4
#     Node 6, Type 0, BuildingBlock: NAWXER_clean_sbu_0, # of connection points: 4
#     Node 7, Type 0, BuildingBlock: NAWXER_clean_sbu_0, # of connection points: 4
#     Node 8, Type 0, BuildingBlock: NAWXER_clean_sbu_0, # of connection points: 4
#     Node 9, Type 0, BuildingBlock: NAWXER_clean_sbu_0, # of connection points: 4
#     Node 10, Type 0, BuildingBlock: NAWXER_clean_sbu_0, # of connection points: 4
#     Node 11, Type 0, BuildingBlock: NAWXER_clean_sbu_0, # of connection points: 4
#     Node 12, Type 0, BuildingBlock: NAWXER_clean_sbu_0, # of connection points: 4
#     Node 13, Type 0, BuildingBlock: NAWXER_clean_sbu_0, # of connection points: 4
#     Node 14, Type 0, BuildingBlock: NAWXER_clean_sbu_0, # of connection points: 4
#     Node 15, Type 0, BuildingBlock: NAWXER_clean_sbu_0, # of connection points: 4
#     Node 16, Type 0, BuildingBlock: NAWXER_clean_sbu_0, # of connection points: 4
#     Node 17, Type 0, BuildingBlock: NAWXER_clean_sbu_0, # of connection points: 4
#     Edge 18, Type (0, 0), BuildingBlock: XUDNAN_clean_linker_2, # of connection points: 2
#     Edge 19, Type (0, 0), BuildingBlock: XUDNAN_clean_linker_2, # of connection points: 2
#     Edge 20, Type (0, 0), BuildingBlock: XUDNAN_clean_linker_2, # of connection points: 2
#     Edge 21, Type (0, 0), BuildingBlock: XUDNAN_clean_linker_2, # of connection points: 2
#     Edge 22, Type (0, 0), BuildingBlock: XUDNAN_clean_linker_2, # of connection points: 2
#     Edge 23, Type (0, 0), BuildingBlock: XUDNAN_clean_linker_2, # of connection points: 2
#     Edge 24, Type (0, 0), BuildingBlock: XUDNAN_clean_linker_2, # of connection points: 2
#     Edge 25, Type (0, 0), BuildingBlock: XUDNAN_clean_linker_2, # of connection points: 2
#     Edge 26, Type (0, 0), BuildingBlock: XUDNAN_clean_linker_2, # of connection points: 2
#     Edge 27, Type (0, 0), BuildingBlock: XUDNAN_clean_linker_2, # of connection points: 2
#     Edge 28, Type (0, 0), BuildingBlock: XUDNAN_clean_linker_2, # of connection points: 2
#     Edge 29, Type (0, 0), BuildingBlock: XUDNAN_clean_linker_2, # of connection points: 2
#     Edge 30, Type (0, 0), BuildingBlock: XUDNAN_clean_linker_2, # of connection points: 2
#     Edge 31, Type (0, 0), BuildingBlock: XUDNAN_clean_linker_2, # of connection points: 2
#     Edge 32, Type (0, 0), BuildingBlock: XUDNAN_clean_linker_2, # of connection points: 2
#     Edge 33, Type (0, 0), BuildingBlock: XUDNAN_clean_linker_2, # of connection points: 2
#     Edge 34, Type (0, 0), BuildingBlock: XUDNAN_clean_linker_2, # of connection points: 2
#     Edge 35, Type (0, 0), BuildingBlock: XUDNAN_clean_linker_2, # of connection points: 2
#     Edge 36, Type (0, 0), BuildingBlock: XUDNAN_clean_linker_2, # of connection points: 2
#     Edge 37, Type (0, 0), BuildingBlock: XUDNAN_clean_linker_2, # of connection points: 2
#     Edge 38, Type (0, 0), BuildingBlock: XUDNAN_clean_linker_2, # of connection points: 2
#     Edge 39, Type (0, 0), BuildingBlock: XUDNAN_clean_linker_2, # of connection points: 2
#     Edge 40, Type (0, 0), BuildingBlock: XUDNAN_clean_linker_2, # of connection points: 2
#     Edge 41, Type (0, 0), BuildingBlock: XUDNAN_clean_linker_2, # of connection points: 2
#     Edge 42, Type (0, 0), BuildingBlock: XUDNAN_clean_linker_2, # of connection points: 2
#     Edge 43, Type (0, 0), BuildingBlock: XUDNAN_clean_linker_2, # of connection points: 2
#     Edge 44, Type (0, 0), BuildingBlock: XUDNAN_clean_linker_2, # of connection points: 2
#     Edge 45, Type (0, 0), BuildingBlock: XUDNAN_clean_linker_2, # of connection points: 2
#     Edge 46, Type (0, 0), BuildingBlock: XUDNAN_clean_linker_2, # of connection points: 2
#     Edge 47, Type (0, 0), BuildingBlock: XUDNAN_clean_linker_2, # of connection points: 2
#     Edge 48, Type (0, 0), BuildingBlock: XUDNAN_clean_linker_2, # of connection points: 2
#     Edge 49, Type (0, 0), BuildingBlock: XUDNAN_clean_linker_2, # of connection points: 2
#     Edge 50, Type (0, 0), BuildingBlock: XUDNAN_clean_linker_2, # of connection points: 2
#     Edge 51, Type (0, 0), BuildingBlock: XUDNAN_clean_linker_2, # of connection points: 2
#     Edge 52, Type (0, 0), BuildingBlock: XUDNAN_clean_linker_2, # of connection points: 2
#     Edge 53, Type (0, 0), BuildingBlock: XUDNAN_clean_linker_2, # of connection points: 2
# Relax obj value: 0.039
# Max RMSD: 0.205
# Mean RMSD: 0.205
data_MOF--net-unn--node1-NAWXER_clean_sbu_0--edge1-XUDNAN_clean_linker_2
_symmetry_space_group_name_H-M    P1
_symmetry_Int_Tables_number       1
_symmetry_cell_setting            triclinic
loop_
_symmetry_equiv_pos_as_xyz
'x, y, z'
_cell_length_a     44.830027
_cell_length_b     44.890751
_cell_length_c     41.945802
_cell_angle_alpha  89.914985
_cell_angle_beta   90.10125
_cell_angle_gamma 119.96942
loop_
_atom_site_label
_atom_site_type_symbol
_atom_site_fract_x
_atom_site_fract_y
_atom_site_fract_z
_atom_type_partial_charge
C0 C 0.95372 0.70961 0.21185 0.0
C1 C 0.06824 0.78832 0.25746 0.0
O2 O 0.96664 0.74141 0.21812 0.0
Zn3 Zn 1.01087 0.75002 0.23498 0.0
O4 O 0.97085 0.69462 0.21896 0.0
Zn5 Zn 1.01984 0.70802 0.23986 0.0
O6 O 1.00834 0.68205 0.27922 0.0
O7 O 0.99996 0.72647 0.28112 0.0
O8 O 0.0614 0.75702 0.25569 0.0
O9 O 0.04636 0.79622 0.24705 0.0
O10 O 0.03403 0.74055 0.19454 0.0
O11 O 0.04237 0.69725 0.20642 0.0
C12 C 1.00064 0.70139 0.29505 0.0
C13 C 0.04494 0.72005 0.18683 0.0
C14 C 0.3392 0.25237 0.22286 0.0
C15 C 0.25966 0.28572 0.27192 0.0
O16 O 0.30709 0.23259 0.22752 0.0
Zn17 Zn 0.29769 0.26684 0.24733 0.0
O18 O 0.35337 0.28369 0.23225 0.0
Zn19 Zn 0.33985 0.31787 0.25499 0.0
O20 O 0.36507 0.32911 0.29444 0.0
O21 O 0.32131 0.27589 0.29315 0.0
O22 O 0.29111 0.30987 0.27085 0.0
O23 O 0.25146 0.25638 0.26026 0.0
O24 O 0.30876 0.30219 0.20902 0.0
O25 O 0.3518 0.35311 0.22332 0.0
C26 C 0.3462 0.30053 0.30833 0.0
C27 C 0.32963 0.33394 0.20277 0.0
C28 C 0.77366 0.98867 0.26833 0.0
C29 C 0.8263 0.10643 0.22634 0.0
O30 O 0.80529 1.01089 0.26485 0.0
Zn31 Zn 0.80002 0.04753 0.24683 0.0
O32 O 0.75079 0.99579 0.25847 0.0
Zn33 Zn 0.75099 0.03946 0.23559 0.0
O34 O 0.73065 0.02201 0.19463 0.0
O35 O 0.78385 0.03171 0.19849 0.0
O36 O 0.79342 0.0902 0.2232 0.0
O37 O 0.84068 0.09157 0.24002 0.0
O38 O 0.77451 0.05837 0.28463 0.0
O39 O 0.7253 0.05059 0.26516 0.0
C40 C 0.75676 0.02303 0.18177 0.0
C41 C 0.74627 0.05866 0.28826 0.0
C42 C 0.9999 0.31234 0.78354 0.0
C43 C 0.03894 0.29697 0.68077 0.0
O44 O 0.99488 0.28187 0.77956 0.0
Zn45 Zn 1.00509 0.25361 0.74424 0.0
O46 O 1.01503 0.33533 0.76235 0.0
Zn47 Zn 1.02192 0.30639 0.73328 0.0
O48 O 0.97003 0.27006 0.71982 0.0
O49 O 0.95797 0.21751 0.73278 0.0
O50 O 0.04324 0.32475 0.69294 0.0
O51 O 1.02569 0.26944 0.69753 0.0
O52 O 0.03845 0.2445 0.76683 0.0
O53 O 0.05895 0.29977 0.75886 0.0
C54 C 0.94871 0.23763 0.72043 0.0
C55 C 0.0625 0.27546 0.77068 0.0
C56 C 0.77235 0.7239 0.7992 0.0
C57 C 0.73605 0.73466 0.69282 0.0
O58 O 0.79458 0.7517 0.78541 0.0
Zn59 Zn 0.80086 0.77514 0.73939 0.0
O60 O 0.74639 0.70181 0.78359 0.0
Zn61 Zn 0.7553 0.72833 0.74502 0.0
O62 O 0.7966 0.72424 0.72147 0.0
O63 O 0.84095 0.77687 0.72164 0.0
O64 O 0.71962 0.71114 0.71322 0.0
O65 O 0.76625 0.75949 0.69937 0.0
O66 O 0.80444 0.81796 0.75135 0.0
O67 O 0.75365 0.77339 0.76246 0.0
C68 C 0.8281 0.74544 0.71415 0.0
C69 C 0.77461 0.80596 0.76338 0.0
C70 C 0.3445 0.10795 0.72415 0.0
C71 C 0.28064 0.98591 0.75977 0.0
O72 O 0.3604 0.09105 0.72194 0.0
Zn73 Zn 0.35356 0.0416 0.73011 0.0
O74 O 0.31377 0.09304 0.73492 0.0
Zn75 Zn 0.30956 0.04732 0.74242 0.0
O76 O 0.34642 0.05836 0.77943 0.0
O77 O 0.38913 0.05181 0.76123 0.0
O78 O 0.26839 1.00616 0.76043 0.0
O79 O 0.31108 0.99701 0.74901 0.0
O80 O 0.35708 0.02751 0.68761 0.0
O81 O 0.31124 0.03319 0.69427 0.0
C82 C 0.37517 0.05927 0.78387 0.0
C83 C 0.33039 0.02678 0.67624 0.0
C84 C 0.61439 0.06727 0.55398 0.0
C85 C 0.73179 0.12925 0.59734 0.0
O86 O 0.63074 0.09745 0.56554 0.0
Zn87 Zn 0.67358 0.09883 0.57438 0.0
O88 O 0.62903 0.04895 0.55301 0.0
Zn89 Zn 0.67845 0.05509 0.56725 0.0
O90 O 0.66498 0.0202 0.59968 0.0
O91 O 0.66076 0.06518 0.61459 0.0
O92 O 0.72298 0.09831 0.58941 0.0
O93 O 0.7114 0.14053 0.59133 0.0
O94 O 0.69035 0.09463 0.52764 0.0
O95 O 0.69627 0.04871 0.52768 0.0
C96 C 0.65851 0.03623 0.62103 0.0
C97 C 0.69798 0.07428 0.51301 0.0
C98 C 1.00851 0.62146 0.63215 0.0
C99 C 1.00489 0.6551 0.52262 0.0
O100 O 0.03341 0.64405 0.61578 0.0
Zn101 Zn 1.00836 0.63738 0.57644 0.0
O102 O 0.9793 0.60246 0.61874 0.0
Zn103 Zn 0.95599 0.5972 0.57307 0.0
O104 O 0.94704 0.55266 0.5575 0.0
O105 O 1.00249 0.59056 0.55711 0.0
O106 O 0.97666 0.62861 0.53124 0.0
O107 O 0.03011 0.6693 0.5419 0.0
O108 O 0.97051 0.65068 0.59065 0.0
O109 O 0.91844 0.60575 0.58526 0.0
C110 C 0.97776 0.56024 0.55093 0.0
C111 C 0.93778 0.63707 0.5933 0.0
C112 C 0.46807 0.43825 0.55578 0.0
C113 C 0.43292 0.32611 0.60688 0.0
O114 O 0.48737 0.42568 0.56198 0.0
Zn115 Zn 0.45244 0.38259 0.58148 0.0
O116 O 0.43636 0.4216 0.56425 0.0
Zn117 Zn 0.40133 0.3741 0.5873 0.0
O118 O 0.38904 0.38834 0.62611 0.0
O119 O 0.44223 0.39754 0.62641 0.0
O120 O 0.40877 0.33337 0.60467 0.0
O121 O 0.46261 0.34711 0.59574 0.0
O122 O 0.41826 0.35817 0.54249 0.0
O123 O 0.3669 0.35046 0.55493 0.0
C124 C 0.41726 0.39796 0.64077 0.0
C125 C 0.3867 0.34728 0.53528 0.0
C126 C 0.66516 0.63881 0.13036 0.0
C127 C 0.71379 0.67146 0.02388 0.0
O128 O 0.66513 0.61402 0.11519 0.0
Zn129 Zn 0.67865 0.60455 0.06885 0.0
O130 O 0.67451 0.66719 0.1162 0.0
Zn131 Zn 0.68748 0.65527 0.07636 0.0
O132 O 0.63898 0.62104 0.05417 0.0
O133 O 0.63467 0.57016 0.05005 0.0
O134 O 0.71062 0.69041 0.0445 0.0
O135 O 0.70283 0.63967 0.03006 0.0
O136 O 0.71422 0.59339 0.08094 0.0
O137 O 0.72849 0.64692 0.09181 0.0
C138 C 0.62186 0.5895 0.04535 0.0
C139 C 0.73567 0.62264 0.09256 0.0
C140 C 0.42439 0.05062 0.11832 0.0
C141 C 0.42966 0.09215 0.01095 0.0
O142 O 0.45193 0.07942 0.11347 0.0
Zn143 Zn 0.47525 0.11472 0.07456 0.0
O144 O 0.40248 0.03638 0.09611 0.0
Zn145 Zn 0.42629 0.07235 0.06546 0.0
O146 O 0.4692 0.06481 0.05344 0.0
O147 O 0.51648 0.11213 0.06772 0.0
O148 O 0.40441 0.0674 0.02506 0.0
O149 O 0.45727 0.11171 0.02654 0.0
O150 O 0.47929 0.1565 0.09177 0.0
O151 O 0.42521 0.11535 0.08781 0.0
C152 C 0.50213 0.08208 0.05579 0.0
C153 C 0.44756 0.1459 0.09659 0.0
C154 C 1.00128 0.43418 0.0478 0.0
C155 C 0.94128 0.31858 0.09801 0.0
O156 O 1.01804 0.41813 0.04968 0.0
Zn157 Zn 1.01278 0.37088 0.06376 0.0
O158 O 0.96992 0.41918 0.05678 0.0
Zn159 Zn 0.96701 0.37504 0.07017 0.0
O160 O 1.00258 0.39108 0.10936 0.0
O161 O 0.04781 0.38618 0.09603 0.0
O162 O 0.92675 0.3361 0.09146 0.0
O163 O 0.97188 0.32891 0.08806 0.0
O164 O 1.01867 0.3526 0.02459 0.0
O165 O 0.97025 0.35428 0.02555 0.0
C166 C 0.03167 0.39376 0.11642 0.0
C167 C 0.99124 0.34752 0.0109 0.0
C168 C 0.28 0.38357 0.89342 0.0
C169 C 0.39695 0.46448 0.93554 0.0
O170 O 0.29292 0.41589 0.897 0.0
Zn171 Zn 0.33804 0.42609 0.91438 0.0
O172 O 0.2977 0.36961 0.90182 0.0
Zn173 Zn 0.347 0.38382 0.92145 0.0
O174 O 0.33578 0.35991 0.96152 0.0
O175 O 0.32648 0.40384 0.96095 0.0
O176 O 0.38894 0.43283 0.93494 0.0
O177 O 0.37534 0.47282 0.92517 0.0
O178 O 0.35953 0.41362 0.87477 0.0
O179 O 0.36801 0.37077 0.88847 0.0
C180 C 0.32704 0.37925 0.97597 0.0
C181 C 0.36986 0.39246 0.86791 0.0
C182 C 0.66012 0.99817 0.84997 0.0
C183 C 0.71226 1.00109 0.95282 0.0
O184 O 0.68674 0.02352 0.86201 0.0
Zn185 Zn 0.68735 1.00174 0.90168 0.0
O186 O 0.64309 0.97053 0.86621 0.0
Zn187 Zn 0.64528 0.95006 0.91122 0.0
O188 O 0.60487 0.94583 0.93456 0.0
O189 O 0.64665 0.9996 0.92895 0.0
O190 O 0.68386 0.97322 0.94752 0.0
O191 O 0.72495 0.02465 0.93172 0.0
O192 O 0.69531 0.96149 0.88618 0.0
O193 O 0.65084 0.91071 0.89758 0.0
C194 C 0.61726 0.97775 0.94033 0.0
C195 C 0.68076 0.92868 0.88546 0.0
C196 C 0.1567 0.76525 0.87599 0.0
C197 C 0.10163 0.65258 0.92848 0.0
O198 O 0.16898 0.74614 0.88359 0.0
Zn199 Zn 0.12893 0.70881 0.90258 0.0
O200 O 0.12545 0.75586 0.88355 0.0
Zn201 Zn 0.08366 0.71129 0.9074 0.0
O202 O 0.07515 0.72984 0.94568 0.0
O203 O 0.12325 0.72784 0.9475 0.0
O204 O 0.0811 0.66467 0.92628 0.0
O205 O 0.13176 0.66962 0.91683 0.0
O206 O 0.09405 0.6884 0.86321 0.0
O207 O 0.04818 0.69233 0.87519 0.0
C208 C 0.10135 0.73397 0.96117 0.0
C209 C 0.06415 0.68346 0.8559 0.0
C210 C 0.32616 0.99308 0.44638 0.0
C211 C 0.37607 0.99467 0.34342 0.0
O212 O 0.32698 0.96552 0.44031 0.0
Zn213 Zn 0.34265 0.94389 0.40288 0.0
O214 O 0.33618 1.01688 0.42563 0.0
Zn215 Zn 0.35104 0.99516 0.39488 0.0
O216 O 0.30317 0.955 0.37817 0.0
O217 O 0.29825 0.90459 0.38845 0.0
O218 O 0.37378 0.01901 0.3564 0.0
O219 O 0.3657 0.96633 0.35846 0.0
O220 O 0.37915 0.9395 0.42574 0.0
O221 O 0.39016 0.99306 0.4216 0.0
C222 C 0.28566 0.92217 0.3767 0.0
C223 C 0.39821 0.97131 0.43231 0.0
C224 C 0.06639 0.42997 0.43254 0.0
C225 C 0.12715 0.3709 0.38987 0.0
O226 O 0.04771 0.39972 0.42121 0.0
Zn227 Zn 0.05089 0.3591 0.39945 0.0
O228 O 0.09911 0.44381 0.43125 0.0
Zn229 Zn 0.10078 0.4044 0.41098 0.0
O230 O 0.08261 0.40313 0.3643 0.0
O231 O 0.03183 0.3565 0.35739 0.0
O232 O 0.14277 0.4015 0.40093 0.0
O233 O 0.09426 0.35439 0.38881 0.0
O234 O 1.0283 0.32279 0.43089 0.0
O235 O 0.07774 0.36677 0.44723 0.0
C236 C 0.05691 0.38411 0.34639 0.0
C237 C 0.05097 0.33752 0.45256 0.0
C238 C 0.66853 0.76734 0.38468 0.0
C239 C 0.59027 0.6521 0.42979 0.0
O240 O 0.68322 0.75014 0.39249 0.0
Zn241 Zn 0.67031 0.70129 0.41257 0.0
O242 O 0.63633 0.7542 0.38942 0.0
Zn243 Zn 0.62784 0.70984 0.4067 0.0
O244 O 0.65206 0.72252 0.45278 0.0
O245 O 0.69628 0.71362 0.45172 0.0
O246 O 0.58167 0.67331 0.419 0.0
O247 O 0.62184 0.65977 0.42824 0.0
O248 O 0.68238 0.67988 0.3792 0.0
O249 O 0.63918 0.68807 0.36623 0.0
C250 C 0.67742 0.72246 0.46692 0.0
C251 C 0.66034 0.67781 0.35892 0.0
H252 H 1.0268 0.73866 0.13163 0.0
H253 H 0.09748 0.70863 0.17086 0.0
H254 H 0.12452 0.71641 0.11773 0.0
H255 H 1.01222 0.69265 0.05933 0.0
H256 H 1.00839 0.72395 0.03538 0.0
H257 H 0.99733 0.71946 0.07699 0.0
H258 H 0.04042 0.78436 0.08539 0.0
H259 H 0.05194 0.78894 0.0438 0.0
H260 H 0.08481 0.80179 0.07395 0.0
H261 H 0.14315 0.72688 0.06065 0.0
H262 H 0.14643 0.7298 0.00214 0.0
H263 H 0.06065 0.74906 -0.00074 0.0
C264 C 0.04823 0.73409 0.12903 0.0
C265 C 0.06044 0.72343 0.15521 0.0
C266 C 0.08789 0.71685 0.15096 0.0
C267 C 0.10354 0.7215 0.12102 0.0
C268 C 0.09103 0.73229 0.09568 0.0
C269 C 0.06359 0.73788 0.09924 0.0
C270 C 0.05286 0.746 0.06763 0.0
C271 C 1.0155 0.71889 0.05935 0.0
C272 C 0.05782 0.78244 0.06771 0.0
C273 C 0.07831 0.74368 0.04558 0.0
C274 C 0.1006 0.73658 0.06238 0.0
C275 C 0.12588 0.73247 0.04723 0.0
C276 C 0.1276 0.73435 0.01392 0.0
C277 C 0.10373 0.73962 -0.00397 0.0
C278 C 0.07938 0.74523 0.01223 0.0
H279 H 0.31161 0.32404 0.01453 0.0
H280 H 0.33313 0.42966 0.016 0.0
H281 H 0.33394 0.42916 0.07473 0.0
H282 H 0.25537 0.29621 0.08593 0.0
H283 H 0.2709 0.26811 0.09897 0.0
H284 H 0.26937 0.27608 0.05705 0.0
H285 H 0.33434 0.29596 0.05234 0.0
H286 H 0.33618 0.28849 0.09426 0.0
H287 H 0.36483 0.33024 0.07753 0.0
H288 H 0.34028 0.41974 0.13284 0.0
H289 H 0.34355 0.39888 0.18683 0.0
H290 H 0.31372 0.29856 0.14735 0.0
C291 C 0.31578 0.34678 0.02725 0.0
C292 C 0.32227 0.37682 0.01079 0.0
C293 C 0.32777 0.40621 0.02818 0.0
C294 C 0.32846 0.40627 0.06154 0.0
C295 C 0.32291 0.37655 0.07708 0.0
C296 C 0.3159 0.34709 0.06056 0.0
C297 C 0.31143 0.31876 0.08297 0.0
C298 C 0.27457 0.28797 0.08112 0.0
C299 C 0.3383 0.30774 0.07637 0.0
C300 C 0.31802 0.33724 0.11452 0.0
C301 C 0.32484 0.37062 0.11068 0.0
C302 C 0.33426 0.39341 0.13628 0.0
C303 C 0.33629 0.38151 0.16672 0.0
C304 C 0.32842 0.34711 0.17107 0.0
C305 C 0.31915 0.32481 0.14466 0.0
H306 H 0.70186 0.99041 0.14124 0.0
H307 H 0.81357 0.04654 0.14381 0.0
H308 H 0.81511 0.04594 0.08496 0.0
H309 H 0.69385 0.93593 0.07277 0.0
H310 H 0.65676 0.93684 0.05733 0.0
H311 H 0.66483 0.94017 0.09962 0.0
H312 H 0.66326 0.99715 0.10066 0.0
H313 H 0.65562 0.99421 0.05834 0.0
H314 H 0.69174 0.03208 0.07496 0.0
H315 H 0.804 0.04503 0.0254 0.0
H316 H 0.7807 0.03704 0.97027 0.0
H317 H 0.67702 0.97829 0.00779 0.0
C318 C 0.72663 1.00205 0.12943 0.0
C319 C 0.75756 1.01845 0.14702 0.0
C320 C 0.78952 0.03351 0.13075 0.0
C321 C 0.79068 0.03349 0.09734 0.0
C322 C 0.75967 1.0178 0.08064 0.0
C323 C 0.72826 1.00177 0.09619 0.0
C324 C 0.69864 0.98702 0.07283 0.0
C325 C 0.67727 0.94765 0.07581 0.0
C326 C 0.676 1.00362 0.07695 0.0
C327 C 0.71826 0.99775 0.04177 0.0
C328 C 0.75343 1.01579 0.04661 0.0
C329 C 0.77651 0.03032 0.02127 0.0
C330 C 0.76316 0.02586 0.99016 0.0
C331 C 0.72724 1.00657 0.98494 0.0
C332 C 0.7047 0.99244 0.0111 0.0
H333 H 0.73284 0.0502 0.47745 0.0
H334 H 0.67965 0.10849 0.47083 0.0
H335 H 0.68751 0.11231 0.41248 0.0
H336 H 0.79633 0.09832 0.41514 0.0
H337 H 0.79665 0.06072 0.40059 0.0
H338 H 0.78776 0.06355 0.44201 0.0
H339 H 0.73027 1.00586 0.43718 0.0
H340 H 0.73887 1.00298 0.39574 0.0
H341 H 0.69937 1.00136 0.40725 0.0
H342 H 0.69591 0.10467 0.35449 0.0
H343 H 0.71042 0.09174 0.30119 0.0
H344 H 0.76209 0.04271 0.34599 0.0
C345 C 0.7232 0.06406 0.46372 0.0
C346 C 0.70562 0.07902 0.47859 0.0
C347 C 0.69342 0.09705 0.45991 0.0
C348 C 0.69762 0.09924 0.42675 0.0
C349 C 0.71462 0.0838 0.41274 0.0
C350 C 0.72777 0.0671 0.43065 0.0
C351 C 0.7451 0.0528 0.40969 0.0
C352 C 0.78375 0.06988 0.41731 0.0
C353 C 0.72733 1.01342 0.41265 0.0
C354 C 0.73902 0.06352 0.3772 0.0
C355 C 0.72111 0.08108 0.37942 0.0
C356 C 0.7105 0.0915 0.35243 0.0
C357 C 0.71867 0.08395 0.32235 0.0
C358 C 0.73774 0.06675 0.3197 0.0
C359 C 0.74811 0.05658 0.34747 0.0
H360 H 0.98421 0.61857 0.4675 0.0
H361 H 0.03131 0.72212 0.50535 0.0
H362 H 0.03158 0.74446 0.45119 0.0
H363 H 0.03474 0.64289 0.39506 0.0
H364 H 1.00017 0.611 0.37102 0.0
H365 H 1.00228 0.60331 0.41289 0.0
H366 H 0.94043 0.59296 0.42021 0.0
H367 H 0.93828 0.60105 0.37842 0.0
H368 H 0.93073 0.6257 0.40791 0.0
H369 H 1.02374 0.75469 0.39397 0.0
H370 H 1.01798 0.75449 0.3356 0.0
H371 H 0.98127 0.64484 0.33371 0.0
C372 C 0.99457 0.64594 0.46424 0.0
C373 C 1.00749 0.66877 0.49033 0.0
C374 C 1.0214 0.70442 0.48544 0.0
C375 C 1.0214 0.71721 0.45492 0.0
C376 C 1.00806 0.69397 0.42966 0.0
C377 C 0.99567 0.65921 0.43383 0.0
C378 C 0.98495 0.64009 0.40238 0.0
C379 C 1.00685 0.62335 0.3949 0.0
C380 C 0.9463 0.61337 0.40224 0.0
C381 C 0.99299 0.66953 0.37983 0.0
C382 C 1.00563 0.70022 0.39622 0.0
C383 C 1.01411 0.73089 0.38083 0.0
C384 C 1.01045 0.73041 0.34769 0.0
C385 C 0.99907 0.69959 0.33017 0.0
C386 C 0.98998 0.66871 0.34653 0.0
H387 H 0.42314 0.36816 0.48057 0.0
H388 H 0.323 0.29444 0.51846 0.0
H389 H 0.30407 0.26982 0.46433 0.0
H390 H 0.39112 0.38553 0.41029 0.0
H391 H 0.4266 0.39133 0.38574 0.0
H392 H 0.43296 0.40024 0.42777 0.0
H393 H 0.45604 0.35778 0.43325 0.0
H394 H 0.4494 0.34845 0.39122 0.0
H395 H 0.42985 0.31401 0.41988 0.0
H396 H 0.29647 0.25405 0.4063 0.0
H397 H 0.29675 0.25357 0.34763 0.0
H398 H 0.4008 0.34089 0.34748 0.0
C399 C 0.39736 0.34652 0.47749 0.0
C400 C 0.37454 0.33272 0.50347 0.0
C401 C 0.34074 0.30514 0.49865 0.0
C402 C 0.32997 0.2909 0.46815 0.0
C403 C 0.35326 0.30502 0.44297 0.0
C404 C 0.38604 0.33262 0.44725 0.0
C405 C 0.40496 0.34531 0.41594 0.0
C406 C 0.41444 0.38281 0.40957 0.0
C407 C 0.43695 0.34112 0.41503 0.0
C408 C 0.37754 0.32077 0.39319 0.0
C409 C 0.34825 0.29721 0.40933 0.0
C410 C 0.31925 0.2723 0.39341 0.0
C411 C 0.31979 0.27215 0.36006 0.0
C412 C 0.34887 0.29723 0.34303 0.0
C413 C 0.37832 0.32136 0.35989 0.0
H414 H 0.04495 0.34583 0.8307 0.0
H415 H 0.93662 0.29449 0.80644 0.0
H416 H 0.92225 0.29866 0.86276 0.0
H417 H 0.03443 0.30199 0.90185 0.0
H418 H 0.06821 0.33768 0.92336 0.0
H419 H 0.07058 0.33561 0.88066 0.0
H420 H 0.07589 0.3955 0.87503 0.0
H421 H 0.07438 0.39824 0.91778 0.0
H422 H 0.04412 0.40338 0.89336 0.0
H423 H 0.91993 0.30565 0.92184 0.0
H424 H 0.92954 0.31594 0.9798 0.0
H425 H 0.03933 0.35863 0.96561 0.0
C426 C 1.01838 0.33674 0.83721 0.0
C427 C 0.99182 0.32096 0.81456 0.0
C428 C 0.95715 0.30759 0.82368 0.0
C429 C 0.94885 0.30965 0.8555 0.0
C430 C 0.9756 0.32459 0.87763 0.0
C431 C 1.00969 0.33802 0.86889 0.0
C432 C 0.03331 0.35016 0.89756 0.0
C433 C 0.05276 0.33015 0.90105 0.0
C434 C 0.0584 0.38914 0.89583 0.0
C435 C 1.00717 0.34117 0.92387 0.0
C436 C 0.97409 0.32676 0.91186 0.0
C437 C 0.94569 0.31691 0.93156 0.0
C438 C 0.95137 0.3227 0.96438 0.0
C439 C 0.98509 0.33769 0.97708 0.0
C440 C 1.01321 0.34654 0.95658 0.0
H441 H 0.69945 0.63685 0.96765 0.0
H442 H 0.76334 0.73751 0.00972 0.0
H443 H 0.79026 0.76019 0.9571 0.0
H444 H 0.76134 0.63951 0.90976 0.0
H445 H 0.7292 0.6184 0.8792 0.0
H446 H 0.71746 0.60935 0.92062 0.0
H447 H 0.67033 0.62612 0.91297 0.0
H448 H 0.68168 0.63488 0.87153 0.0
H449 H 0.68197 0.66766 0.89651 0.0
H450 H 0.80925 0.77181 0.8999 0.0
H451 H 0.81345 0.77412 0.84132 0.0
H452 H 0.7343 0.66648 0.83613 0.0
C453 C 0.71944 0.66357 0.96584 0.0
C454 C 0.7297 0.68543 -0.00732 0.0
C455 C 0.75525 0.72042 0.98935 0.0
C456 C 0.77082 0.73339 0.95968 0.0
C457 C 0.76018 0.71108 0.93365 0.0
C458 C 0.7347 0.67704 0.93636 0.0
C459 C 0.72564 0.65924 0.90427 0.0
C460 C 0.73391 0.62989 0.90343 0.0
C461 C 0.68766 0.64623 0.89583 0.0
C462 C 0.74972 0.68871 0.88294 0.0
C463 C 0.76995 0.71816 0.90045 0.0
C464 C 0.79363 0.74889 0.88596 0.0
C465 C 0.79592 0.74987 0.85263 0.0
C466 C 0.7742 0.72044 0.83411 0.0
C467 C 0.75137 0.68932 0.84962 0.0
H468 H 0.37295 0.0682 0.97261 0.0
H469 H 0.48466 0.12302 0.97067 0.0
H470 H 0.4834 0.12159 0.91179 0.0
H471 H 0.35924 1.01234 0.90932 0.0
H472 H 0.32256 1.0135 0.89313 0.0
H473 H 0.33218 0.02088 0.93501 0.0
H474 H 0.33429 0.07956 0.93099 0.0
H475 H 0.32415 0.07212 0.88916 0.0
H476 H 0.36213 0.11076 0.90202 0.0
H477 H 0.46952 0.10823 0.85319 0.0
H478 H 0.44389 0.09078 0.79918 0.0
H479 H 0.34185 0.04795 0.84021 0.0
C480 C 0.39714 0.08043 0.95977 0.0
C481 C 0.42887 0.09573 0.9761 0.0
C482 C 0.46003 0.11144 0.95855 0.0
C483 C 0.45959 0.11057 0.92513 0.0
C484 C 0.42781 0.09444 0.90974 0.0
C485 C 0.39717 0.0803 0.92649 0.0
C486 C 0.36646 0.06423 0.90438 0.0
C487 C 0.34379 0.02545 0.91086 0.0
C488 C 0.34553 0.08279 0.90678 0.0
C489 C 0.38458 0.07088 0.87264 0.0
C490 C 0.41994 0.08808 0.87612 0.0
C491 C 0.44187 0.09527 0.8501 0.0
C492 C 0.42717 0.08509 0.81963 0.0
C493 C 0.39104 0.06842 0.81568 0.0
C494 C 0.36963 0.06119 0.84255 0.0
H495 H 0.34978 0.99354 0.63342 0.0
H496 H 0.29424 0.04937 0.64162 0.0
H497 H 0.28472 0.04514 0.58346 0.0
H498 H 0.39217 0.03022 0.56054 0.0
H499 H 0.3879 0.99079 0.5452 0.0
H500 H 0.38957 0.99772 0.58756 0.0
H501 H 0.33144 0.94072 0.59392 0.0
H502 H 0.32972 0.93395 0.55147 0.0
H503 H 0.29444 0.93451 0.57145 0.0
H504 H 0.28663 0.04006 0.52366 0.0
H505 H 0.29469 0.0287 0.46726 0.0
H506 H 0.34404 0.97197 0.49941 0.0
C507 C 0.33538 1.00459 0.62296 0.0
C508 C 0.32277 0.02177 0.64189 0.0
C509 C 0.30391 0.03584 0.62748 0.0
C510 C 0.29847 0.03371 0.59448 0.0
C511 C 0.31153 1.01689 0.57638 0.0
C512 C 0.3291 1.00209 0.59015 0.0
C513 C 0.34034 0.98534 0.56539 0.0
C514 C 0.37983 1.00203 0.56464 0.0
C515 C 0.32293 0.94631 0.57089 0.0
C516 C 0.32688 0.99359 0.53558 0.0
C517 C 0.31065 1.01211 0.54226 0.0
C518 C 0.29862 0.02492 0.51813 0.0
C519 C 0.30332 1.01847 0.48629 0.0
C520 C 0.3192 0.99887 0.47926 0.0
C521 C 0.33085 0.98617 0.50424 0.0
H522 H 0.07516 0.35022 0.63954 0.0
H523 H 1.01213 0.23905 0.64402 0.0
H524 H 1.01053 0.23629 0.58528 0.0
H525 H 0.03298 0.3629 0.57742 0.0
H526 H 0.07069 0.397 0.55848 0.0
H527 H 0.07085 0.39007 0.60069 0.0
H528 H 0.12494 0.38362 0.59495 0.0
H529 H 0.12537 0.3912 0.55271 0.0
H530 H 0.12446 0.35288 0.56704 0.0
H531 H 1.00847 0.24673 0.52604 0.0
H532 H 1.01304 0.26949 0.47111 0.0
H533 H 0.07912 0.37294 0.50666 0.0
C534 C 0.06184 0.32524 0.62818 0.0
C535 C 0.04383 0.29492 0.64629 0.0
C536 C 1.02641 0.26266 0.63058 0.0
C537 C 1.02519 0.2608 0.59721 0.0
C538 C 0.04205 0.29136 0.58001 0.0
C539 C 0.06072 0.32289 0.59499 0.0
C540 C 0.07527 0.35206 0.57126 0.0
C541 C 0.06162 0.37695 0.57734 0.0
C542 C 0.11486 0.37105 0.5715 0.0
C543 C 0.06093 0.33213 0.54075 0.0
C544 C 0.04178 0.29715 0.54608 0.0
C545 C 1.02404 0.27402 0.52145 0.0
C546 C 1.02651 0.2871 0.49047 0.0
C547 C 0.04675 0.32282 0.4847 0.0
C548 C 0.06401 0.34539 0.51024 0.0
H549 H 0.73545 0.74217 0.50329 0.0
H550 H 0.62783 0.71403 0.50907 0.0
H551 H 0.63146 0.71574 0.56772 0.0
H552 H 0.73668 0.69393 0.56855 0.0
H553 H 0.77862 0.72563 0.58291 0.0
H554 H 0.76839 0.72418 0.54123 0.0
H555 H 0.78414 0.78812 0.54305 0.0
H556 H 0.79478 0.78987 0.58471 0.0
H557 H 0.76367 0.8017 0.57198 0.0
H558 H 0.64469 0.71332 0.6254 0.0
H559 H 0.66932 0.71518 0.67881 0.0
H560 H 0.76931 0.74998 0.63592 0.0
C561 C 0.71286 0.73695 0.51694 0.0
C562 C 0.6814 0.72802 0.50168 0.0
C563 C 0.65232 0.72127 0.52028 0.0
C564 C 0.65404 0.72198 0.55361 0.0
C565 C 0.68521 0.73017 0.56797 0.0
C566 C 0.71432 0.7383 0.55029 0.0
C567 C 0.7446 0.74619 0.57171 0.0
C568 C 0.75783 0.72097 0.56574 0.0
C569 C 0.7735 0.78371 0.56762 0.0
C570 C 0.7277 0.74038 0.60409 0.0
C571 C 0.69333 0.7308 0.6014 0.0
C572 C 0.67174 0.7215 0.6279 0.0
C573 C 0.68581 0.72242 0.65803 0.0
C574 C 0.72115 0.73318 0.66126 0.0
C575 C 0.74232 0.74237 0.63399 0.0
H576 H 0.3462 0.40415 0.81261 0.0
H577 H 0.42354 0.3831 0.85134 0.0
H578 H 0.44789 0.38849 0.79719 0.0
H579 H 0.33074 0.35381 0.74238 0.0
H580 H 0.32321 0.38216 0.71747 0.0
H581 H 0.314 0.37933 0.75945 0.0
H582 H 0.35388 0.4453 0.76452 0.0
H583 H 0.36358 0.44826 0.72257 0.0
H584 H 0.39799 0.46479 0.75144 0.0
H585 H 0.46389 0.39705 0.73944 0.0
H586 H 0.46517 0.3982 0.68085 0.0
H587 H 0.37426 0.40922 0.6793 0.0
C588 C 0.36842 0.4009 0.80963 0.0
C589 C 0.38339 0.39359 0.83589 0.0
C590 C 0.41187 0.38871 0.8313 0.0
C591 C 0.42597 0.39203 0.80079 0.0
C592 C 0.41081 0.39967 0.77536 0.0
C593 C 0.38223 0.40333 0.77936 0.0
C594 C 0.369 0.40852 0.74783 0.0
C595 C 0.33206 0.3792 0.74141 0.0
C596 C 0.37126 0.44382 0.74653 0.0
C597 C 0.39452 0.40702 0.72533 0.0
C598 C 0.41886 0.4027 0.7418 0.0
C599 C 0.44497 0.40036 0.72627 0.0
C600 C 0.44554 0.40127 0.69294 0.0
C601 C 0.41975 0.40378 0.67549 0.0
C602 C 0.39435 0.4074 0.69199 0.0
H603 H 0.68287 0.07454 0.6745 0.0
H604 H 0.61951 0.96968 0.64144 0.0
H605 H 0.60859 0.94936 0.69753 0.0
H606 H 0.72374 0.05371 0.73586 0.0
H607 H 0.72667 0.08615 0.76301 0.0
H608 H 0.72627 0.09249 0.72067 0.0
H609 H 0.67392 0.10165 0.72721 0.0
H610 H 0.67401 0.09513 0.7696 0.0
H611 H 0.63555 0.06909 0.74666 0.0
H612 H 0.60518 0.94092 0.75671 0.0
H613 H 0.61521 0.94299 0.81451 0.0
H614 H 0.68486 0.05327 0.8087 0.0
C615 C 0.66623 0.04735 0.67917 0.0
C616 C 0.65142 0.02358 0.65397 0.0
C617 C 0.63077 0.98814 0.66065 0.0
C618 C 0.62433 0.9765 0.69232 0.0
C619 C 0.63931 1.00067 0.71672 0.0
C620 C 0.6603 0.03529 0.71049 0.0
C621 C 0.67594 0.05554 0.74074 0.0
C622 C 0.71549 0.07298 0.74002 0.0
C623 C 0.66413 0.08191 0.74638 0.0
C624 C 0.66053 0.02687 0.76509 0.0
C625 C 0.63898 0.99556 0.75075 0.0
C626 C 0.62198 0.96525 0.76821 0.0
C627 C 0.62779 0.96678 0.8011 0.0
C628 C 0.65089 0.99834 0.81616 0.0
C629 C 0.66703 0.02882 0.7979 0.0
H630 H 0.09846 0.69037 0.80055 0.0
H631 H 0.99596 0.64224 0.84136 0.0
H632 H 0.97121 0.61556 0.78911 0.0
H633 H 0.07517 0.71256 0.72741 0.0
H634 H 0.10473 0.7057 0.70374 0.0
H635 H 0.11425 0.71782 0.74497 0.0
H636 H 0.1201 0.66403 0.75544 0.0
H637 H 0.11025 0.65155 0.71424 0.0
H638 H 0.08492 0.62202 0.74538 0.0
H639 H 0.95795 0.59498 0.73259 0.0
H640 H 0.95563 0.58847 0.67427 0.0
H641 H 0.0668 0.65352 0.66946 0.0
C642 C 0.07082 0.67384 0.79854 0.0
C643 C 0.04902 0.66791 0.8249 0.0
C644 C 1.01298 0.64695 0.82133 0.0
C645 C 0.9988 0.63152 0.79189 0.0
C646 C 1.02106 0.63778 0.76633 0.0
C647 C 0.05625 0.6589 0.76923 0.0
C648 C 0.07423 0.6641 0.73748 0.0
C649 C 0.0932 0.7023 0.72783 0.0
C650 C 0.09883 0.64955 0.73819 0.0
C651 C 0.04359 0.64293 0.71609 0.0
C652 C 1.01328 0.62735 0.73336 0.0
C653 C 0.9815 0.607 0.71882 0.0
C654 C 0.98052 0.60335 0.68564 0.0
C655 C 1.01107 0.62052 0.66724 0.0
C656 C 0.04306 0.63996 0.68285 0.0
H657 H 0.64765 0.70115 0.30364 0.0
H658 H 0.672 0.62588 0.34156 0.0
H659 H 0.67018 0.60407 0.28692 0.0
H660 H 0.59131 0.64993 0.23882 0.0
H661 H 0.60797 0.68562 0.21141 0.0
H662 H 0.60788 0.69306 0.25361 0.0
H663 H 0.67359 0.73582 0.25204 0.0
H664 H 0.67384 0.7287 0.20985 0.0
H665 H 0.70193 0.72196 0.23594 0.0
H666 H 0.6658 0.59085 0.22855 0.0
H667 H 0.66741 0.59186 0.1699 0.0
H668 H 0.65068 0.67916 0.16954 0.0
C669 C 0.65214 0.67977 0.3004 0.0
C670 C 0.65949 0.66475 0.32662 0.0
C671 C 0.6662 0.63751 0.32162 0.0
C672 C 0.66499 0.62488 0.29079 0.0
C673 C 0.65761 0.64024 0.26536 0.0
C674 C 0.65188 0.66746 0.26977 0.0
C675 C 0.64765 0.68145 0.23824 0.0
C676 C 0.61155 0.67725 0.23536 0.0
C677 C 0.67595 0.71921 0.23376 0.0
C678 C 0.65212 0.65797 0.21532 0.0
C679 C 0.65708 0.63393 0.23152 0.0
C680 C 0.66195 0.60953 0.21561 0.0
C681 C 0.66264 0.61024 0.18224 0.0
C682 C 0.65914 0.6356 0.16513 0.0
C683 C 0.65334 0.65945 0.18197 0.0
H684 H 0.43882 0.08474 0.17442 0.0
H685 H 0.39391 0.98251 0.1338 0.0
H686 H 0.38232 0.95751 0.18819 0.0
H687 H 0.47718 0.07064 0.24557 0.0
H688 H 0.46576 0.09602 0.27059 0.0
H689 H 0.47406 0.10598 0.22878 0.0
H690 H 0.41407 0.10064 0.22211 0.0
H691 H 0.40567 0.09087 0.26386 0.0
H692 H 0.37617 0.06166 0.23452 0.0
H693 H 0.37488 0.94406 0.24645 0.0
H694 H 0.36461 0.94166 0.30427 0.0
H695 H 0.41034 0.05274 0.30653 0.0
C696 C 0.42708 0.05713 0.17708 0.0
C697 C 0.41768 0.0354 0.15025 0.0
C698 C 0.4014 0.99939 0.1543 0.0
C699 C 0.39498 0.98509 0.18499 0.0
C700 C 0.40455 1.00726 0.21106 0.0
C701 C 0.41975 0.04246 0.20741 0.0
C702 C 0.42428 0.06033 0.23908 0.0
C703 C 0.4626 0.08468 0.24643 0.0
C704 C 0.40382 0.07949 0.23993 0.0
C705 C 0.40895 0.02962 0.26118 0.0
C706 C 0.39843 0.99936 0.2446 0.0
C707 C 0.38304 0.96755 0.25973 0.0
C708 C 0.37746 0.96651 0.29261 0.0
C709 C 0.38667 0.99706 0.30985 0.0
C710 C 0.4031 0.02902 0.29396 0.0
H711 H 1.00434 0.36053 0.30236 0.0
H712 H 0.1147 0.42749 0.31348 0.0
H713 H 0.12031 0.43945 0.25593 0.0
H714 H 1.00667 0.32393 0.22838 0.0
H715 H 0.969 0.32328 0.21244 0.0
H716 H 0.97358 0.32085 0.25483 0.0
H717 H 0.96581 0.37401 0.26241 0.0
H718 H 0.96148 0.37647 0.21992 0.0
H719 H 0.99378 0.41331 0.24139 0.0
H720 H 0.1151 0.43912 0.19651 0.0
H721 H 0.09759 0.43121 0.13954 0.0
H722 H 0.99074 0.36901 0.16791 0.0
C723 C 0.02957 0.37798 0.29269 0.0
C724 C 0.05901 0.39304 0.31235 0.0
C725 C 0.09167 0.41581 0.29889 0.0
C726 C 0.09522 0.42272 0.26619 0.0
C727 C 0.06581 0.40714 0.24736 0.0
C728 C 0.03353 0.3857 0.26012 0.0
C729 C 1.00614 0.37223 0.2345 0.0
C730 C 0.9878 0.33274 0.23243 0.0
C731 C 0.98028 0.38477 0.23988 0.0
C732 C 1.02822 0.38893 0.20545 0.0
C733 C 0.06262 0.4087 0.21326 0.0
C734 C 0.08816 0.42435 0.19006 0.0
C735 C 0.07812 0.4197 0.15791 0.0
C736 C 0.04293 0.40022 0.1497 0.0
C737 C 1.01779 0.38488 0.17376 0.0
H738 H 0.2439 0.85445 0.35637 0.0
H739 H 0.25028 0.95422 0.35963 0.0
H740 H 0.19643 0.93119 0.32933 0.0
H741 H 0.21071 0.83314 0.27679 0.0
H742 H 0.18185 0.78822 0.28492 0.0
H743 H 0.22065 0.81184 0.30804 0.0
H744 H 0.18484 0.79451 0.36011 0.0
H745 H 0.14596 0.7706 0.33715 0.0
H746 H 0.15012 0.80356 0.3643 0.0
H747 H 0.14274 0.89852 0.29733 0.0
H748 H 0.09092 0.85683 0.2676 0.0
H749 H 0.11827 0.77796 0.28453 0.0
C750 C 0.23374 0.87129 0.351 0.0
C751 C 0.25157 0.90623 0.36045 0.0
C752 C 0.2374 0.92743 0.35265 0.0
C753 C 0.2067 0.91461 0.33538 0.0
C754 C 0.19011 0.88039 0.32594 0.0
C755 C 0.20287 0.85886 0.33359 0.0
C756 C 0.17978 0.82313 0.32012 0.0
C757 C 0.19943 0.81353 0.29604 0.0
C758 C 0.16426 0.79637 0.34703 0.0
C759 C 0.15237 0.82818 0.30369 0.0
C760 C 0.15888 0.86142 0.30735 0.0
C761 C 0.13728 0.87234 0.29432 0.0
C762 C 0.10795 0.84849 0.27738 0.0
C763 C 0.10044 0.8141 0.27358 0.0
C764 C 0.12323 0.80404 0.28683 0.0
H765 H 0.26759 0.34782 0.29101 0.0
H766 H 0.19474 0.2381 0.29215 0.0
H767 H 0.15515 0.24856 0.32501 0.0
H768 H 0.25381 0.36586 0.37105 0.0
H769 H 0.25712 0.40658 0.36158 0.0
H770 H 0.27986 0.39088 0.3379 0.0
H771 H 0.25021 0.39592 0.28676 0.0
H772 H 0.22776 0.4121 0.31021 0.0
H773 H 0.20388 0.37493 0.28519 0.0
H774 H 0.12457 0.27041 0.35884 0.0
H775 H 0.10117 0.30223 0.38677 0.0
H776 H 0.19287 0.39878 0.36327 0.0
C777 C 0.2432 0.32594 0.29799 0.0
C778 C 0.23429 0.29201 0.28899 0.0
C779 C 0.20209 0.26424 0.29856 0.0
C780 C 0.17955 0.26995 0.31742 0.0
C781 C 0.18948 0.3036 0.32636 0.0
C782 C 0.22029 0.33121 0.31661 0.0
C783 C 0.2243 0.3649 0.32893 0.0
C784 C 0.25564 0.38312 0.35119 0.0
C785 C 0.22667 0.38834 0.30111 0.0
C786 C 0.19086 0.35191 0.34723 0.0
C787 C 0.17143 0.31641 0.34555 0.0
C788 C 0.13948 0.29817 0.36016 0.0
C789 C 0.12645 0.31661 0.37604 0.0
C790 C 0.1451 0.3531 0.37723 0.0
C791 C 0.17816 0.37096 0.36314 0.0
H792 H 0.70841 0.93792 0.28661 0.0
H793 H 0.81592 0.96492 0.28875 0.0
H794 H 0.8003 0.91211 0.31907 0.0
H795 H 0.68762 0.90281 0.36587 0.0
H796 H 0.64518 0.86845 0.35568 0.0
H797 H 0.66426 0.90805 0.33337 0.0
H798 H 0.65567 0.8743 0.28093 0.0
H799 H 0.63634 0.83457 0.30304 0.0
H800 H 0.67285 0.84569 0.27767 0.0
H801 H 0.77393 0.85742 0.34963 0.0
H802 H 0.73814 0.80269 0.3774 0.0
H803 H 0.64679 0.80953 0.35642 0.0
C804 C 0.72863 0.93259 0.29324 0.0
C805 C 0.76348 0.95571 0.28514 0.0
C806 C 0.7891 0.94777 0.29454 0.0
C807 C 0.78049 0.9178 0.31185 0.0
C808 C 0.74609 0.89584 0.31971 0.0
C809 C 0.72048 0.90267 0.31066 0.0
C810 C 0.68552 0.87462 0.32248 0.0
C811 C 0.66972 0.88937 0.34573 0.0
C812 C 0.66116 0.8562 0.29435 0.0
C813 C 0.69557 0.85101 0.33954 0.0
C814 C 0.73069 0.86394 0.3376 0.0
C815 C 0.74639 0.847 0.35127 0.0
C816 C 0.72571 0.81583 0.36707 0.0
C817 C 0.68951 0.80158 0.36923 0.0
C818 C 0.67434 0.8197 0.35538 0.0
H819 H 0.8067 0.14028 0.18331 0.0
H820 H 0.89415 0.15167 0.23802 0.0
H821 H 0.93086 0.20832 0.21333 0.0
H822 H 0.85278 0.17713 0.11188 0.0
H823 H 0.82957 0.19887 0.10117 0.0
H824 H 0.80894 0.1603 0.1249 0.0
H825 H 0.7955 0.19261 0.16853 0.0
H826 H 0.81602 0.23132 0.14489 0.0
H827 H 0.83007 0.23165 0.18525 0.0
H828 H 0.95897 0.26105 0.18114 0.0
H829 H 0.97799 0.30816 0.14261 0.0
H830 H 0.87331 0.26515 0.10743 0.0
C831 C 0.83344 0.15498 0.19048 0.0
C832 C 0.84749 0.14152 0.21283 0.0
C833 C 0.88275 0.16133 0.22108 0.0
C834 C 0.90381 0.19362 0.20723 0.0
C835 C 0.88934 0.20589 0.18507 0.0
C836 C 0.85501 0.18737 0.17668 0.0
C837 C 0.84669 0.2061 0.15093 0.0
C838 C 0.83373 0.1843 0.12042 0.0
C839 C 0.82051 0.21601 0.16314 0.0
C840 C 0.88188 0.23777 0.14586 0.0
C841 C 0.90588 0.23692 0.16606 0.0
C842 C 0.94041 0.2621 0.16533 0.0
C843 C 0.95095 0.28872 0.14317 0.0
C844 C 0.92719 0.29034 0.12187 0.0
C845 C 0.89197 0.26476 0.12358 0.0
H846 H 0.78584 0.68288 0.11895 0.0
H847 H 0.75867 0.57673 0.10297 0.0
H848 H 0.81109 0.58726 0.13224 0.0
H849 H 0.87779 0.72007 0.10996 0.0
H850 H 0.88781 0.75177 0.14065 0.0
H851 H 0.8486 0.7358 0.118 0.0
H852 H 0.81335 0.71813 0.1704 0.0
H853 H 0.85242 0.73382 0.19322 0.0
H854 H 0.81816 0.69002 0.19804 0.0
H855 H 0.86625 0.60948 0.1644 0.0
H856 H 0.92025 0.6416 0.19489 0.0
H857 H 0.91118 0.73337 0.1898 0.0
C858 C 0.7909 0.66179 0.12136 0.0
C859 C 0.76801 0.62889 0.10852 0.0
C860 C 0.77576 0.60214 0.11243 0.0
C861 C 0.80546 0.60788 0.12911 0.0
C862 C 0.8272 0.64053 0.14173 0.0
C863 C 0.82033 0.66706 0.13789 0.0
C864 C 0.84766 0.69975 0.15381 0.0
C865 C 0.86659 0.72854 0.12913 0.0
C866 C 0.83195 0.71108 0.18045 0.0
C867 C 0.87108 0.68753 0.16733 0.0
C868 C 0.8588 0.65328 0.16015 0.0
C869 C 0.87606 0.63631 0.17009 0.0
C870 C 0.90676 0.65483 0.18751 0.0
C871 C 0.92011 0.6901 0.19491 0.0
C872 C 0.90173 0.70645 0.18472 0.0
H873 H 0.31905 0.18931 0.19365 0.0
H874 H 0.40823 0.28967 0.21215 0.0
H875 H 0.44448 0.27361 0.18126 0.0
H876 H 0.36485 0.14131 0.19883 0.0
H877 H 0.34054 0.11205 0.16716 0.0
H878 H 0.32112 0.13102 0.19121 0.0
H879 H 0.30729 0.15445 0.14018 0.0
H880 H 0.32693 0.13579 0.11602 0.0
H881 H 0.34162 0.18112 0.11313 0.0
H882 H 0.47156 0.24788 0.14791 0.0
H883 H 0.48817 0.21263 0.11569 0.0
H884 H 0.38246 0.12836 0.11805 0.0
C885 C 0.34623 0.20779 0.19138 0.0
C886 C 0.36062 0.24083 0.20547 0.0
C887 C 0.39637 0.26422 0.20171 0.0
C888 C 0.41731 0.25539 0.18411 0.0
C889 C 0.40237 0.22295 0.17027 0.0
C890 C 0.36774 0.19934 0.17379 0.0
C891 C 0.35853 0.16616 0.15633 0.0
C892 C 0.34549 0.13584 0.17979 0.0
C893 C 0.33202 0.15897 0.12984 0.0
C894 C 0.39334 0.175 0.14248 0.0
C895 C 0.41819 0.20794 0.15085 0.0
C896 C 0.45234 0.22201 0.1412 0.0
C897 C 0.46152 0.20176 0.12281 0.0
C898 C 0.43671 0.16771 0.11415 0.0
C899 C 0.40206 0.15435 0.12402 0.0
H900 H 0.7774 0.11048 0.6219 0.0
H901 H 0.75932 0.19671 0.61432 0.0
H902 H 0.81093 0.23192 0.64695 0.0
H903 H 0.8074 0.12611 0.70347 0.0
H904 H 0.83979 0.11406 0.69743 0.0
H905 H 0.80141 0.09511 0.67322 0.0
H906 H 0.83855 0.1154 0.622 0.0
H907 H 0.87704 0.13409 0.646 0.0
H908 H 0.87033 0.16022 0.61744 0.0
H909 H 0.86383 0.25795 0.67997 0.0
H910 H 0.91724 0.27482 0.70956 0.0
H911 H 0.90262 0.17234 0.69695 0.0
C912 C 0.78443 0.13685 0.62691 0.0
C913 C 0.76421 0.15082 0.61537 0.0
C914 C 0.77427 0.18537 0.62275 0.0
C915 C 0.80354 0.20558 0.64138 0.0
C916 C 0.82258 0.19095 0.65265 0.0
C917 C 0.81366 0.15748 0.64563 0.0
C918 C 0.83897 0.14835 0.66069 0.0
C919 C 0.82081 0.11918 0.68516 0.0
C920 C 0.85731 0.13897 0.635 0.0
C921 C 0.86372 0.1821 0.67695 0.0
C922 C 0.85345 0.20612 0.67205 0.0
C923 C 0.87213 0.23938 0.68398 0.0
C924 C 0.90252 0.24869 0.70079 0.0
C925 C 0.91426 0.22495 0.70567 0.0
C926 C 0.89419 0.19096 0.69397 0.0
H927 H 0.87358 0.61597 0.62077 0.0
H928 H 0.97141 0.70653 0.59782 0.0
H929 H 0.95332 0.74296 0.62553 0.0
H930 H 0.82106 0.6583 0.61266 0.0
H931 H 0.7934 0.63512 0.64566 0.0
H932 H 0.81283 0.61569 0.62225 0.0
H933 H 0.83919 0.60613 0.67356 0.0
H934 H 0.82015 0.62586 0.69706 0.0
H935 H 0.86594 0.64232 0.69878 0.0
H936 H 0.92751 0.76966 0.65818 0.0
H937 H 0.89308 0.78613 0.69145 0.0
H938 H 0.81046 0.67964 0.69387 0.0
C939 C 0.89085 0.64352 0.6211 0.0
C940 C 0.92399 0.65829 0.60705 0.0
C941 C 0.946 0.69445 0.60843 0.0
C942 C 0.93598 0.71548 0.62414 0.0
C943 C 0.90371 0.70018 0.63842 0.0
C944 C 0.88121 0.66515 0.63686 0.0
C945 C 0.84829 0.65568 0.6551 0.0
C946 C 0.81704 0.64029 0.63257 0.0
C947 C 0.8431 0.63103 0.68276 0.0
C948 C 0.85622 0.69079 0.66736 0.0
C949 C 0.8884 0.71595 0.65735 0.0
C950 C 0.90212 0.75026 0.66599 0.0
C951 C 0.88233 0.75933 0.68506 0.0
C952 C 0.84895 0.73428 0.69538 0.0
C953 C 0.83583 0.69945 0.68641 0.0
H954 H 0.31752 0.14637 0.69749 0.0
H955 H 0.41336 0.15066 0.72344 0.0
H956 H 0.44613 0.20649 0.69646 0.0
H957 H 0.3432 0.18147 0.62049 0.0
H958 H 0.32211 0.20672 0.62104 0.0
H959 H 0.30545 0.16821 0.64475 0.0
H960 H 0.30982 0.20277 0.69566 0.0
H961 H 0.32595 0.2413 0.672 0.0
H962 H 0.35031 0.2402 0.70576 0.0
H963 H 0.4689 0.25922 0.66275 0.0
H964 H 0.48014 0.30906 0.62914 0.0
H965 H 0.37032 0.27217 0.62536 0.0
C966 C 0.34537 0.15956 0.69821 0.0
C967 C 0.36282 0.14409 0.71267 0.0
C968 C 0.39936 0.1619 0.71249 0.0
C969 C 0.4183 0.19366 0.69716 0.0
C970 C 0.40047 0.20765 0.6821 0.0
C971 C 0.36488 0.19157 0.68287 0.0
C972 C 0.35236 0.21206 0.6639 0.0
C973 C 0.32942 0.19084 0.63589 0.0
C974 C 0.3335 0.22485 0.68563 0.0
C975 C 0.38638 0.24171 0.65218 0.0
C976 C 0.41378 0.23855 0.66287 0.0
C977 C 0.44767 0.26221 0.65447 0.0
C978 C 0.45382 0.29032 0.63517 0.0
C979 C 0.42623 0.29467 0.6246 0.0
C980 C 0.39206 0.26974 0.63311 0.0
H981 H 0.22255 0.95362 0.79957 0.0
H982 H 0.29635 0.93627 0.74763 0.0
H983 H 0.27185 0.87894 0.77111 0.0
H984 H 0.22299 0.91097 0.87096 0.0
H985 H 0.17747 0.89098 0.87879 0.0
H986 H 0.19896 0.9307 0.85672 0.0
H987 H 0.15605 0.90262 0.81001 0.0
H988 H 0.1342 0.86289 0.83207 0.0
H989 H 0.1503 0.86339 0.79261 0.0
H990 H 0.24444 0.82635 0.80287 0.0
H991 H 0.2102 0.77696 0.8379 0.0
H992 H 0.15039 0.82362 0.86866 0.0
C993 C 0.23305 0.93746 0.79275 0.0
C994 C 0.26166 0.94983 0.7718 0.0
C995 C 0.27475 0.92783 0.76375 0.0
C996 C 0.26099 0.89502 0.77696 0.0
C997 C 0.23369 0.88398 0.7981 0.0
C998 C 0.21931 0.90406 0.8057 0.0
C999 C 0.19014 0.88532 0.8296 0.0
C1000 C 0.19786 0.90572 0.86087 0.0
C1001 C 0.15562 0.87813 0.8152 0.0
C1002 C 0.19105 0.8521 0.83443 0.0
C1003 C 0.21662 0.85226 0.81603 0.0
C1004 C 0.224 0.82563 0.81714 0.0
C1005 C 0.2045 0.79774 0.83733 0.0
C1006 C 0.17752 0.79626 0.85604 0.0
C1007 C 0.17066 0.82388 0.85446 0.0
H1008 H 0.11264 0.33977 0.78935 0.0
H1009 H 0.08296 0.23198 0.79681 0.0
H1010 H 0.13434 0.24802 0.83039 0.0
H1011 H 0.20372 0.37389 0.78443 0.0
H1012 H 0.21417 0.41141 0.80801 0.0
H1013 H 0.17512 0.39127 0.78483 0.0
H1014 H 0.13959 0.38482 0.83567 0.0
H1015 H 0.17854 0.40484 0.85905 0.0
H1016 H 0.14376 0.36292 0.86995 0.0
H1017 H 0.18948 0.27617 0.86252 0.0
H1018 H 0.24421 0.31352 0.89005 0.0
H1019 H 0.23782 0.40341 0.86234 0.0
C1020 C 0.11691 0.31941 0.79786 0.0
C1021 C 0.09372 0.28449 0.79018 0.0
C1022 C 0.10029 0.25883 0.80219 0.0
C1023 C 0.1294 0.26774 0.82135 0.0
C1024 C 0.15158 0.3024 0.82849 0.0
C1025 C 0.14563 0.32782 0.81711 0.0
C1026 C 0.17335 0.36317 0.82822 0.0
C1027 C 0.19274 0.38629 0.79967 0.0
C1028 C 0.15788 0.37992 0.84948 0.0
C1029 C 0.19627 0.35381 0.84733 0.0
C1030 C 0.1831 0.31859 0.84726 0.0
C1031 C 0.19991 0.30373 0.86276 0.0
C1032 C 0.23112 0.3253 0.87837 0.0
C1033 C 0.24553 0.36158 0.87852 0.0
C1034 C 0.2275 0.37587 0.86295 0.0
H1035 H 0.7119 0.79034 0.79029 0.0
H1036 H 0.81644 0.87418 0.77557 0.0
H1037 H 0.80342 0.91252 0.8068 0.0
H1038 H 0.67117 0.84294 0.78404 0.0
H1039 H 0.63949 0.81958 0.81437 0.0
H1040 H 0.65667 0.79808 0.79084 0.0
H1041 H 0.67496 0.77978 0.8425 0.0
H1042 H 0.65813 0.8015 0.86619 0.0
H1043 H 0.70235 0.81216 0.87085 0.0
H1044 H 0.78093 0.94145 0.84023 0.0
H1045 H 0.74849 0.9621 0.87077 0.0
H1046 H 0.65659 0.86128 0.86399 0.0
C1047 C 0.73196 0.81683 0.7935 0.0
C1048 C 0.7653 0.82917 0.78041 0.0
C1049 C 0.79076 0.86402 0.78519 0.0
C1050 C 0.78366 0.88603 0.80305 0.0
C1051 C 0.75087 0.87301 0.81592 0.0
C1052 C 0.72522 0.83942 0.81118 0.0
C1053 C 0.69197 0.83261 0.82734 0.0
C1054 C 0.66312 0.82272 0.80268 0.0
C1055 C 0.68123 0.80486 0.85326 0.0
C1056 C 0.70314 0.86767 0.8419 0.0
C1057 C 0.73737 0.89029 0.83506 0.0
C1058 C 0.75406 0.9241 0.84559 0.0
C1059 C 0.73523 0.93554 0.863 0.0
C1060 C 0.69977 0.91345 0.86974 0.0
C1061 C 0.68362 0.87878 0.85939 0.0
H1062 H 0.53293 0.47996 0.53016 0.0
H1063 H 0.43204 0.47038 0.5395 0.0
H1064 H 0.45144 0.52272 0.50722 0.0
H1065 H 0.58186 0.57276 0.53515 0.0
H1066 H 0.61341 0.5769 0.50624 0.0
H1067 H 0.59155 0.5386 0.53023 0.0
H1068 H 0.57157 0.50146 0.47896 0.0
H1069 H 0.59316 0.53969 0.45483 0.0
H1070 H 0.54791 0.51 0.44902 0.0
H1071 H 0.48176 0.57645 0.47332 0.0
H1072 H 0.52161 0.62831 0.44243 0.0
H1073 H 0.60241 0.60279 0.45511 0.0
C1074 C 0.51497 0.48895 0.52558 0.0
C1075 C 0.48093 0.4709 0.53752 0.0
C1076 C 0.45827 0.48362 0.53076 0.0
C1077 C 0.46901 0.51337 0.51233 0.0
C1078 C 0.50256 0.53036 0.5007 0.0
C1079 C 0.52527 0.51871 0.50717 0.0
C1080 C 0.56001 0.5419 0.49192 0.0
C1081 C 0.58837 0.55852 0.51741 0.0
C1082 C 0.56866 0.52207 0.46722 0.0
C1083 C 0.55326 0.56834 0.476 0.0
C1084 C 0.51994 0.56121 0.48122 0.0
C1085 C 0.50793 0.58228 0.46905 0.0
C1086 C 0.53071 0.61164 0.45144 0.0
C1087 C 0.56516 0.61973 0.44618 0.0
C1088 C 0.57624 0.59743 0.4585 0.0
H1089 H 0.57904 1.01411 0.51124 0.0
H1090 H 0.56984 0.09009 0.56772 0.0
H1091 H 0.51174 0.06948 0.54581 0.0
H1092 H 0.53855 0.02318 0.44199 0.0
H1093 H 0.51676 0.97831 0.43123 0.0
H1094 H 0.55646 0.9966 0.4534 0.0
H1095 H 0.52646 0.95056 0.49736 0.0
H1096 H 0.4866 0.93213 0.47535 0.0
H1097 H 0.48806 0.9456 0.51606 0.0
H1098 H 0.4569 0.04373 0.5165 0.0
H1099 H 0.40852 1.01606 0.47899 0.0
H1100 H 0.45126 0.95603 0.43964 0.0
C1101 C 0.56453 0.02601 0.51933 0.0
C1102 C 0.57893 0.05361 0.54143 0.0
C1103 C 0.55941 0.06896 0.55091 0.0
C1104 C 0.5263 0.05731 0.53869 0.0
C1105 C 0.51299 0.03034 0.51684 0.0
C1106 C 0.5314 1.01489 0.50704 0.0
C1107 C 0.51167 0.9879 0.48158 0.0
C1108 C 0.53208 0.99706 0.45019 0.0
C1109 C 0.50266 0.95191 0.4933 0.0
C1110 C 0.47953 0.99102 0.47832 0.0
C1111 C 0.48094 1.0155 0.49925 0.0
C1112 C 0.45542 0.02442 0.50013 0.0
C1113 C 0.42806 1.00857 0.47863 0.0
C1114 C 0.4261 0.98388 0.45642 0.0
C1115 C 0.45187 0.97444 0.45666 0.0
H1116 H 0.09399 0.4932 0.46461 0.0
H1117 H 0.99731 0.40369 0.43656 0.0
H1118 H 0.96531 0.4265 0.46463 0.0
H1119 H 0.06663 0.50252 0.54296 0.0
H1120 H 0.08865 0.54884 0.54206 0.0
H1121 H 0.10514 0.5261 0.51945 0.0
H1122 H 0.10308 0.55682 0.46787 0.0
H1123 H 0.08686 0.57984 0.49039 0.0
H1124 H 0.06326 0.55459 0.45631 0.0
H1125 H 0.94267 0.45702 0.49668 0.0
H1126 H 0.93107 0.49655 0.52803 0.0
H1127 H 0.04105 0.56782 0.53517 0.0
C1128 C 0.06613 0.47858 0.46421 0.0
C1129 C 0.04843 0.44647 0.44828 0.0
C1130 C 1.01182 0.42824 0.44849 0.0
C1131 C 0.99317 0.44093 0.46449 0.0
C1132 C 1.0112 0.47218 0.48024 0.0
C1133 C 0.0468 0.49107 0.48006 0.0
C1134 C 0.05935 0.52425 0.49875 0.0
C1135 C 0.08124 0.52549 0.52751 0.0
C1136 C 0.07932 0.55574 0.47703 0.0
C1137 C 1.02526 0.52073 0.50939 0.0
C1138 C 0.9979 0.49034 0.49853 0.0
C1139 C 0.96387 0.48102 0.50528 0.0
C1140 C 0.95752 0.50361 0.52323 0.0
C1141 C 0.98503 0.53534 0.53417 0.0
C1142 C 1.01938 0.54376 0.52725 0.0
H1143 H 0.4477 0.45277 0.95772 0.0
H1144 H 0.42255 0.53386 0.94633 0.0
H1145 H 0.47743 0.57466 0.97296 0.0
H1146 H 0.48512 0.47696 0.03492 0.0
H1147 H 0.51809 0.46605 0.02739 0.0
H1148 H 0.4776 0.44379 0.00654 0.0
H1149 H 0.50965 0.4606 0.95241 0.0
H1150 H 0.55027 0.48276 0.97309 0.0
H1151 H 0.53933 0.50525 0.94388 0.0
H1152 H 0.53468 0.60605 0.00244 0.0
H1153 H 0.58973 0.62602 0.03063 0.0
H1154 H 0.57726 0.52399 0.0226 0.0
C1155 C 0.45368 0.47916 0.96056 0.0
C1156 C 0.43065 0.49006 0.9498 0.0
C1157 C 0.43971 0.52486 0.9542 0.0
C1158 C 0.47082 0.54819 0.96937 0.0
C1159 C 0.49266 0.53636 0.97997 0.0
C1160 C 0.48451 0.50267 0.97558 0.0
C1161 C 0.51209 0.49618 0.9894 0.0
C1162 C 0.49734 0.46915 0.01615 0.0
C1163 C 0.52882 0.48558 0.96312 0.0
C1164 C 0.53712 0.5315 0.00248 0.0
C1165 C 0.52543 0.55431 -0.0032 0.0
C1166 C 0.54403 0.58838 0.00689 0.0
C1167 C 0.57534 0.59946 0.02299 0.0
C1168 C 0.58803 0.57664 0.02897 0.0
C1169 C 0.56842 0.54214 0.01851 0.0
H1170 H 0.55007 0.96585 0.94521 0.0
H1171 H 0.65135 0.01985 0.98879 0.0
H1172 H 0.63165 0.0493 0.02528 0.0
H1173 H 0.53551 0.03588 0.94576 0.0
H1174 H 0.4903 1.01163 0.95522 0.0
H1175 H 0.51051 0.99118 0.9347 0.0
H1176 H 0.48993 0.94442 0.97859 0.0
H1177 H 0.46935 0.96459 -0.00088 0.0
H1178 H 0.50035 0.95712 0.0197 0.0
H1179 H 0.60413 0.078 0.05265 0.0
H1180 H 0.56833 0.1016 0.07232 0.0
H1181 H 0.48373 0.02928 0.01279 0.0
C1182 C 0.56764 0.98316 0.96305 0.0
C1183 C 0.60219 0.99049 0.96433 0.0
C1184 C 0.62478 1.01392 0.98745 0.0
C1185 C 0.61385 0.03077 0.00832 0.0
C1186 C 0.58011 0.02402 0.0059 0.0
C1187 C 0.55711 1.00057 0.98416 0.0
C1188 C 0.52287 0.99988 0.98564 0.0
C1189 C 0.51431 1.01027 0.95341 0.0
C1190 C 0.49391 0.96439 -0.00359 0.0
C1191 C 0.53067 0.02704 0.01098 0.0
C1192 C 0.56386 0.04051 0.02231 0.0
C1193 C 0.57788 0.06731 0.04437 0.0
C1194 C 0.55741 0.08068 0.05529 0.0
C1195 C 0.52317 0.06716 0.04435 0.0
C1196 C 0.50964 0.0398 0.02201 0.0
H1197 H 0.0361 0.60042 0.94461 0.0
H1198 H 0.14463 0.63325 0.95515 0.0
H1199 H 0.12965 0.58335 0.9896 0.0
H1200 H 1.00928 0.56685 0.02443 0.0
H1201 H 0.96926 0.53006 0.01219 0.0
H1202 H 0.98783 0.56897 0.98882 0.0
H1203 H 0.98705 0.53497 0.93872 0.0
H1204 H 0.96812 0.49592 0.96183 0.0
H1205 H 1.00751 0.50915 0.94021 0.0
H1206 H 0.10442 0.5321 0.02342 0.0
H1207 H 0.06985 0.47665 0.05 0.0
H1208 H 0.976 0.47254 0.01674 0.0
C1209 C 0.05664 0.59699 0.95415 0.0
C1210 C 0.09163 0.62087 0.9472 0.0
C1211 C 0.11772 0.61533 0.95993 0.0
C1212 C 0.10948 0.58717 0.97975 0.0
C1213 C 0.07495 0.56441 0.98643 0.0
C1214 C 0.04881 0.56847 0.97368 0.0
C1215 C 1.01376 0.53886 0.98365 0.0
C1216 C 0.99386 0.55198 0.00345 0.0
C1217 C 0.99288 0.51852 0.95436 0.0
C1218 C 1.02447 0.51765 0.00399 0.0
C1219 C 0.05998 0.53343 0.00542 0.0
C1220 C 0.07661 0.51935 0.02232 0.0
C1221 C 0.0566 0.48772 0.03736 0.0
C1222 C 1.02012 0.46996 0.03534 0.0
C1223 C 1.00376 0.48555 0.01895 0.0
loop_
_geom_bond_atom_site_label_1
_geom_bond_atom_site_label_2
_geom_bond_distance
_geom_bond_site_symmetry_2
_ccdc_geom_bond_type
C0 O2 1.247 . S
C0 O4 1.258 . S
C1 O8 1.247 . S
C1 O9 1.258 . S
O2 C0 1.247 . S
O2 Zn3 2.028 1_655 S
Zn3 O2 2.028 1_455 S
Zn3 O7 2.035 1_455 S
Zn3 O9 2.035 . S
Zn3 O10 2.028 . S
O4 C0 1.258 . S
O4 Zn5 2.035 1_655 S
Zn5 O4 2.035 1_455 S
Zn5 O6 2.028 1_455 S
Zn5 O8 2.028 . S
Zn5 O11 2.035 . S
O6 Zn5 2.028 1_655 S
O6 C12 1.247 . S
O7 Zn3 2.035 1_655 S
O7 C12 1.258 . S
O8 C1 1.247 . S
O8 Zn5 2.028 . S
O9 C1 1.258 . S
O9 Zn3 2.035 . S
O10 Zn3 2.028 . S
O10 C13 1.247 . S
O11 Zn5 2.035 . S
O11 C13 1.258 . S
C12 O6 1.247 . S
C12 O7 1.258 . S
C13 O10 1.247 . S
C13 O11 1.258 . S
C14 O16 1.247 . S
C14 O18 1.258 . S
C15 O22 1.247 . S
C15 O23 1.258 . S
O16 C14 1.247 . S
O16 Zn17 2.028 . S
Zn17 O16 2.028 . S
Zn17 O21 2.035 . S
Zn17 O23 2.035 . S
Zn17 O24 2.028 . S
O18 C14 1.258 . S
O18 Zn19 2.035 . S
Zn19 O18 2.035 . S
Zn19 O20 2.028 . S
Zn19 O22 2.028 . S
Zn19 O25 2.035 . S
O20 Zn19 2.028 . S
O20 C26 1.247 . S
O21 Zn17 2.035 . S
O21 C26 1.258 . S
O22 C15 1.247 . S
O22 Zn19 2.028 . S
O23 C15 1.258 . S
O23 Zn17 2.035 . S
O24 Zn17 2.028 . S
O24 C27 1.247 . S
O25 Zn19 2.035 . S
O25 C27 1.258 . S
C26 O20 1.247 . S
C26 O21 1.258 . S
C27 O24 1.247 . S
C27 O25 1.258 . S
C28 O30 1.247 . S
C28 O32 1.258 . S
C29 O36 1.247 . S
C29 O37 1.258 . S
O30 C28 1.247 . S
O30 Zn31 2.028 1_565 S
Zn31 O30 2.028 1_545 S
Zn31 O35 2.035 1_545 S
Zn31 O37 2.035 . S
Zn31 O38 2.028 . S
O32 C28 1.258 . S
O32 Zn33 2.035 1_565 S
Zn33 O32 2.035 1_545 S
Zn33 O34 2.028 1_545 S
Zn33 O36 2.028 . S
Zn33 O39 2.035 . S
O34 Zn33 2.028 1_565 S
O34 C40 1.247 . S
O35 Zn31 2.035 1_565 S
O35 C40 1.258 . S
O36 C29 1.247 . S
O36 Zn33 2.028 . S
O37 C29 1.258 . S
O37 Zn31 2.035 . S
O38 Zn31 2.028 . S
O38 C41 1.247 . S
O39 Zn33 2.035 . S
O39 C41 1.258 . S
C40 O34 1.247 . S
C40 O35 1.258 . S
C41 O38 1.247 . S
C41 O39 1.258 . S
C42 O44 1.247 . S
C42 O46 1.258 . S
C43 O50 1.247 . S
C43 O51 1.258 . S
O44 C42 1.247 . S
O44 Zn45 2.028 1_655 S
Zn45 O44 2.028 1_455 S
Zn45 O49 2.035 1_455 S
Zn45 O51 2.035 . S
Zn45 O52 2.028 . S
O46 C42 1.258 . S
O46 Zn47 2.035 1_655 S
Zn47 O46 2.035 1_455 S
Zn47 O48 2.028 1_455 S
Zn47 O50 2.028 . S
Zn47 O53 2.035 . S
O48 Zn47 2.028 1_655 S
O48 C54 1.247 . S
O49 Zn45 2.035 1_655 S
O49 C54 1.258 . S
O50 C43 1.247 . S
O50 Zn47 2.028 . S
O51 C43 1.258 . S
O51 Zn45 2.035 . S
O52 Zn45 2.028 . S
O52 C55 1.247 . S
O53 Zn47 2.035 . S
O53 C55 1.258 . S
C54 O48 1.247 . S
C54 O49 1.258 . S
C55 O52 1.247 . S
C55 O53 1.258 . S
C56 O58 1.247 . S
C56 O60 1.258 . S
C57 O64 1.247 . S
C57 O65 1.258 . S
O58 C56 1.247 . S
O58 Zn59 2.028 . S
Zn59 O58 2.028 . S
Zn59 O63 2.035 . S
Zn59 O65 2.035 . S
Zn59 O66 2.028 . S
O60 C56 1.258 . S
O60 Zn61 2.035 . S
Zn61 O60 2.035 . S
Zn61 O62 2.028 . S
Zn61 O64 2.028 . S
Zn61 O67 2.035 . S
O62 Zn61 2.028 . S
O62 C68 1.247 . S
O63 Zn59 2.035 . S
O63 C68 1.258 . S
O64 C57 1.247 . S
O64 Zn61 2.028 . S
O65 C57 1.258 . S
O65 Zn59 2.035 . S
O66 Zn59 2.028 . S
O66 C69 1.247 . S
O67 Zn61 2.035 . S
O67 C69 1.258 . S
C68 O62 1.247 . S
C68 O63 1.258 . S
C69 O66 1.247 . S
C69 O67 1.258 . S
C70 O72 1.247 . S
C70 O74 1.258 . S
C71 O78 1.247 . S
C71 O79 1.258 . S
O72 C70 1.247 . S
O72 Zn73 2.028 . S
Zn73 O72 2.028 . S
Zn73 O77 2.035 . S
Zn73 O79 2.035 1_545 S
Zn73 O80 2.028 1_545 S
O74 C70 1.258 . S
O74 Zn75 2.035 . S
Zn75 O74 2.035 . S
Zn75 O76 2.028 . S
Zn75 O78 2.028 1_545 S
Zn75 O81 2.035 1_545 S
O76 Zn75 2.028 . S
O76 C82 1.247 . S
O77 Zn73 2.035 . S
O77 C82 1.258 . S
O78 C71 1.247 . S
O78 Zn75 2.028 1_565 S
O79 C71 1.258 . S
O79 Zn73 2.035 1_565 S
O80 Zn73 2.028 1_565 S
O80 C83 1.247 . S
O81 Zn75 2.035 1_565 S
O81 C83 1.258 . S
C82 O76 1.247 . S
C82 O77 1.258 . S
C83 O80 1.247 . S
C83 O81 1.258 . S
C84 O86 1.247 . S
C84 O88 1.258 . S
C85 O92 1.247 . S
C85 O93 1.258 . S
O86 C84 1.247 . S
O86 Zn87 2.028 . S
Zn87 O86 2.028 . S
Zn87 O91 2.035 . S
Zn87 O93 2.035 . S
Zn87 O94 2.028 . S
O88 C84 1.258 . S
O88 Zn89 2.035 . S
Zn89 O88 2.035 . S
Zn89 O90 2.028 . S
Zn89 O92 2.028 . S
Zn89 O95 2.035 . S
O90 Zn89 2.028 . S
O90 C96 1.247 . S
O91 Zn87 2.035 . S
O91 C96 1.258 . S
O92 C85 1.247 . S
O92 Zn89 2.028 . S
O93 C85 1.258 . S
O93 Zn87 2.035 . S
O94 Zn87 2.028 . S
O94 C97 1.247 . S
O95 Zn89 2.035 . S
O95 C97 1.258 . S
C96 O90 1.247 . S
C96 O91 1.258 . S
C97 O94 1.247 . S
C97 O95 1.258 . S
C98 O100 1.247 . S
C98 O102 1.258 . S
C99 O106 1.247 . S
C99 O107 1.258 . S
O100 C98 1.247 . S
O100 Zn101 2.028 . S
Zn101 O100 2.028 . S
Zn101 O105 2.035 . S
Zn101 O107 2.035 . S
Zn101 O108 2.028 . S
O102 C98 1.258 . S
O102 Zn103 2.035 . S
Zn103 O102 2.035 . S
Zn103 O104 2.028 . S
Zn103 O106 2.028 . S
Zn103 O109 2.035 . S
O104 Zn103 2.028 . S
O104 C110 1.247 . S
O105 Zn101 2.035 . S
O105 C110 1.258 . S
O106 C99 1.247 . S
O106 Zn103 2.028 . S
O107 C99 1.258 . S
O107 Zn101 2.035 . S
O108 Zn101 2.028 . S
O108 C111 1.247 . S
O109 Zn103 2.035 . S
O109 C111 1.258 . S
C110 O104 1.247 . S
C110 O105 1.258 . S
C111 O108 1.247 . S
C111 O109 1.258 . S
C112 O114 1.247 . S
C112 O116 1.258 . S
C113 O120 1.247 . S
C113 O121 1.258 . S
O114 C112 1.247 . S
O114 Zn115 2.028 . S
Zn115 O114 2.028 . S
Zn115 O119 2.035 . S
Zn115 O121 2.035 . S
Zn115 O122 2.028 . S
O116 C112 1.258 . S
O116 Zn117 2.035 . S
Zn117 O116 2.035 . S
Zn117 O118 2.028 . S
Zn117 O120 2.028 . S
Zn117 O123 2.035 . S
O118 Zn117 2.028 . S
O118 C124 1.247 . S
O119 Zn115 2.035 . S
O119 C124 1.258 . S
O120 C113 1.247 . S
O120 Zn117 2.028 . S
O121 C113 1.258 . S
O121 Zn115 2.035 . S
O122 Zn115 2.028 . S
O122 C125 1.247 . S
O123 Zn117 2.035 . S
O123 C125 1.258 . S
C124 O118 1.247 . S
C124 O119 1.258 . S
C125 O122 1.247 . S
C125 O123 1.258 . S
C126 O128 1.247 . S
C126 O130 1.258 . S
C127 O134 1.247 . S
C127 O135 1.258 . S
O128 C126 1.247 . S
O128 Zn129 2.028 . S
Zn129 O128 2.028 . S
Zn129 O133 2.035 . S
Zn129 O135 2.035 . S
Zn129 O136 2.028 . S
O130 C126 1.258 . S
O130 Zn131 2.035 . S
Zn131 O130 2.035 . S
Zn131 O132 2.028 . S
Zn131 O134 2.028 . S
Zn131 O137 2.035 . S
O132 Zn131 2.028 . S
O132 C138 1.247 . S
O133 Zn129 2.035 . S
O133 C138 1.258 . S
O134 C127 1.247 . S
O134 Zn131 2.028 . S
O135 C127 1.258 . S
O135 Zn129 2.035 . S
O136 Zn129 2.028 . S
O136 C139 1.247 . S
O137 Zn131 2.035 . S
O137 C139 1.258 . S
C138 O132 1.247 . S
C138 O133 1.258 . S
C139 O136 1.247 . S
C139 O137 1.258 . S
C140 O142 1.247 . S
C140 O144 1.258 . S
C141 O148 1.247 . S
C141 O149 1.258 . S
O142 C140 1.247 . S
O142 Zn143 2.028 . S
Zn143 O142 2.028 . S
Zn143 O147 2.035 . S
Zn143 O149 2.035 . S
Zn143 O150 2.028 . S
O144 C140 1.258 . S
O144 Zn145 2.035 . S
Zn145 O144 2.035 . S
Zn145 O146 2.028 . S
Zn145 O148 2.028 . S
Zn145 O151 2.035 . S
O146 Zn145 2.028 . S
O146 C152 1.247 . S
O147 Zn143 2.035 . S
O147 C152 1.258 . S
O148 C141 1.247 . S
O148 Zn145 2.028 . S
O149 C141 1.258 . S
O149 Zn143 2.035 . S
O150 Zn143 2.028 . S
O150 C153 1.247 . S
O151 Zn145 2.035 . S
O151 C153 1.258 . S
C152 O146 1.247 . S
C152 O147 1.258 . S
C153 O150 1.247 . S
C153 O151 1.258 . S
C154 O156 1.247 . S
C154 O158 1.258 . S
C155 O162 1.247 . S
C155 O163 1.258 . S
O156 C154 1.247 . S
O156 Zn157 2.028 . S
Zn157 O156 2.028 . S
Zn157 O161 2.035 . S
Zn157 O163 2.035 . S
Zn157 O164 2.028 . S
O158 C154 1.258 . S
O158 Zn159 2.035 . S
Zn159 O158 2.035 . S
Zn159 O160 2.028 . S
Zn159 O162 2.028 . S
Zn159 O165 2.035 . S
O160 Zn159 2.028 . S
O160 C166 1.247 . S
O161 Zn157 2.035 . S
O161 C166 1.258 . S
O162 C155 1.247 . S
O162 Zn159 2.028 . S
O163 C155 1.258 . S
O163 Zn157 2.035 . S
O164 Zn157 2.028 . S
O164 C167 1.247 . S
O165 Zn159 2.035 . S
O165 C167 1.258 . S
C166 O160 1.247 . S
C166 O161 1.258 . S
C167 O164 1.247 . S
C167 O165 1.258 . S
C168 O170 1.247 . S
C168 O172 1.258 . S
C169 O176 1.247 . S
C169 O177 1.258 . S
O170 C168 1.247 . S
O170 Zn171 2.028 . S
Zn171 O170 2.028 . S
Zn171 O175 2.035 . S
Zn171 O177 2.035 . S
Zn171 O178 2.028 . S
O172 C168 1.258 . S
O172 Zn173 2.035 . S
Zn173 O172 2.035 . S
Zn173 O174 2.028 . S
Zn173 O176 2.028 . S
Zn173 O179 2.035 . S
O174 Zn173 2.028 . S
O174 C180 1.247 . S
O175 Zn171 2.035 . S
O175 C180 1.258 . S
O176 C169 1.247 . S
O176 Zn173 2.028 . S
O177 C169 1.258 . S
O177 Zn171 2.035 . S
O178 Zn171 2.028 . S
O178 C181 1.247 . S
O179 Zn173 2.035 . S
O179 C181 1.258 . S
C180 O174 1.247 . S
C180 O175 1.258 . S
C181 O178 1.247 . S
C181 O179 1.258 . S
C182 O184 1.247 . S
C182 O186 1.258 . S
C183 O190 1.247 . S
C183 O191 1.258 . S
O184 C182 1.247 . S
O184 Zn185 2.028 . S
Zn185 O184 2.028 . S
Zn185 O189 2.035 . S
Zn185 O191 2.035 . S
Zn185 O192 2.028 . S
O186 C182 1.258 . S
O186 Zn187 2.035 . S
Zn187 O186 2.035 . S
Zn187 O188 2.028 . S
Zn187 O190 2.028 . S
Zn187 O193 2.035 . S
O188 Zn187 2.028 . S
O188 C194 1.247 . S
O189 Zn185 2.035 . S
O189 C194 1.258 . S
O190 C183 1.247 . S
O190 Zn187 2.028 . S
O191 C183 1.258 . S
O191 Zn185 2.035 . S
O192 Zn185 2.028 . S
O192 C195 1.247 . S
O193 Zn187 2.035 . S
O193 C195 1.258 . S
C194 O188 1.247 . S
C194 O189 1.258 . S
C195 O192 1.247 . S
C195 O193 1.258 . S
C196 O198 1.247 . S
C196 O200 1.258 . S
C197 O204 1.247 . S
C197 O205 1.258 . S
O198 C196 1.247 . S
O198 Zn199 2.028 . S
Zn199 O198 2.028 . S
Zn199 O203 2.035 . S
Zn199 O205 2.035 . S
Zn199 O206 2.028 . S
O200 C196 1.258 . S
O200 Zn201 2.035 . S
Zn201 O200 2.035 . S
Zn201 O202 2.028 . S
Zn201 O204 2.028 . S
Zn201 O207 2.035 . S
O202 Zn201 2.028 . S
O202 C208 1.247 . S
O203 Zn199 2.035 . S
O203 C208 1.258 . S
O204 C197 1.247 . S
O204 Zn201 2.028 . S
O205 C197 1.258 . S
O205 Zn199 2.035 . S
O206 Zn199 2.028 . S
O206 C209 1.247 . S
O207 Zn201 2.035 . S
O207 C209 1.258 . S
C208 O202 1.247 . S
C208 O203 1.258 . S
C209 O206 1.247 . S
C209 O207 1.258 . S
C210 O212 1.247 . S
C210 O214 1.258 . S
C211 O218 1.247 . S
C211 O219 1.258 . S
O212 C210 1.247 . S
O212 Zn213 2.028 . S
Zn213 O212 2.028 . S
Zn213 O217 2.035 . S
Zn213 O219 2.035 . S
Zn213 O220 2.028 . S
O214 C210 1.258 . S
O214 Zn215 2.035 . S
Zn215 O214 2.035 . S
Zn215 O216 2.028 . S
Zn215 O218 2.028 . S
Zn215 O221 2.035 . S
O216 Zn215 2.028 . S
O216 C222 1.247 . S
O217 Zn213 2.035 . S
O217 C222 1.258 . S
O218 C211 1.247 . S
O218 Zn215 2.028 . S
O219 C211 1.258 . S
O219 Zn213 2.035 . S
O220 Zn213 2.028 . S
O220 C223 1.247 . S
O221 Zn215 2.035 . S
O221 C223 1.258 . S
C222 O216 1.247 . S
C222 O217 1.258 . S
C223 O220 1.247 . S
C223 O221 1.258 . S
C224 O226 1.247 . S
C224 O228 1.258 . S
C225 O232 1.247 . S
C225 O233 1.258 . S
O226 C224 1.247 . S
O226 Zn227 2.028 . S
Zn227 O226 2.028 . S
Zn227 O231 2.035 . S
Zn227 O233 2.035 . S
Zn227 O234 2.028 . S
O228 C224 1.258 . S
O228 Zn229 2.035 . S
Zn229 O228 2.035 . S
Zn229 O230 2.028 . S
Zn229 O232 2.028 . S
Zn229 O235 2.035 . S
O230 Zn229 2.028 . S
O230 C236 1.247 . S
O231 Zn227 2.035 . S
O231 C236 1.258 . S
O232 C225 1.247 . S
O232 Zn229 2.028 . S
O233 C225 1.258 . S
O233 Zn227 2.035 . S
O234 Zn227 2.028 . S
O234 C237 1.247 . S
O235 Zn229 2.035 . S
O235 C237 1.258 . S
C236 O230 1.247 . S
C236 O231 1.258 . S
C237 O234 1.247 . S
C237 O235 1.258 . S
C238 O240 1.247 . S
C238 O242 1.258 . S
C239 O246 1.247 . S
C239 O247 1.258 . S
O240 C238 1.247 . S
O240 Zn241 2.028 . S
Zn241 O240 2.028 . S
Zn241 O245 2.035 . S
Zn241 O247 2.035 . S
Zn241 O248 2.028 . S
O242 C238 1.258 . S
O242 Zn243 2.035 . S
Zn243 O242 2.035 . S
Zn243 O244 2.028 . S
Zn243 O246 2.028 . S
Zn243 O249 2.035 . S
O244 Zn243 2.028 . S
O244 C250 1.247 . S
O245 Zn241 2.035 . S
O245 C250 1.258 . S
O246 C239 1.247 . S
O246 Zn243 2.028 . S
O247 C239 1.258 . S
O247 Zn241 2.035 . S
O248 Zn241 2.028 . S
O248 C251 1.247 . S
O249 Zn243 2.035 . S
O249 C251 1.258 . S
C250 O244 1.247 . S
C250 O245 1.258 . S
C251 O248 1.247 . S
C251 O249 1.258 . S
H252 C264 0.930 . S
H253 C266 0.930 . S
H254 C267 0.930 . S
H255 C271 0.959 . S
H256 C271 0.959 . S
H257 C271 0.961 . S
H258 C272 0.960 . S
H259 C272 0.961 . S
H260 C272 0.959 . S
H261 C275 0.929 . S
H262 C276 0.931 . S
H263 C278 0.930 . S
C264 H252 0.930 . S
C264 C265 1.399 . S
C264 C269 1.399 . S
C265 C264 1.399 . S
C265 C266 1.376 . S
C266 H253 0.930 . S
C266 C265 1.376 . S
C266 C267 1.388 . S
C267 H254 0.930 . S
C267 C266 1.388 . S
C267 C268 1.390 . S
C268 C267 1.390 . S
C268 C269 1.394 . S
C268 C274 1.465 . S
C269 C264 1.399 . S
C269 C268 1.394 . S
C269 C270 1.516 . S
C270 C269 1.516 . S
C270 C271 1.502 . S
C270 C272 1.561 . S
C270 C273 1.526 . S
C271 H255 0.959 . S
C271 H256 0.959 . S
C271 H257 0.961 . S
C271 C270 1.502 . S
C272 H258 0.960 . S
C272 H259 0.961 . S
C272 H260 0.959 . S
C272 C270 1.561 . S
C273 C270 1.526 . S
C273 C274 1.396 . S
C273 C278 1.390 . S
C274 C268 1.465 . S
C274 C273 1.396 . S
C274 C275 1.399 . S
C275 H261 0.929 . S
C275 C274 1.399 . S
C275 C276 1.385 . S
C276 H262 0.931 . S
C276 C275 1.385 . S
C276 C277 1.389 . S
C277 C276 1.389 . S
C277 C278 1.387 . S
C278 H263 0.930 . S
C278 C273 1.390 . S
C278 C277 1.387 . S
H279 C291 0.930 . S
H280 C293 0.930 . S
H281 C294 0.930 . S
H282 C298 0.959 . S
H283 C298 0.959 . S
H284 C298 0.961 . S
H285 C299 0.960 . S
H286 C299 0.961 . S
H287 C299 0.959 . S
H288 C302 0.929 . S
H289 C303 0.931 . S
H290 C305 0.930 . S
C291 H279 0.930 . S
C291 C292 1.399 . S
C291 C296 1.399 . S
C292 C291 1.399 . S
C292 C293 1.376 . S
C293 H280 0.930 . S
C293 C292 1.376 . S
C293 C294 1.388 . S
C294 H281 0.930 . S
C294 C293 1.388 . S
C294 C295 1.390 . S
C295 C294 1.390 . S
C295 C296 1.394 . S
C295 C301 1.465 . S
C296 C291 1.399 . S
C296 C295 1.394 . S
C296 C297 1.516 . S
C297 C296 1.516 . S
C297 C298 1.502 . S
C297 C299 1.561 . S
C297 C300 1.526 . S
C298 H282 0.959 . S
C298 H283 0.959 . S
C298 H284 0.961 . S
C298 C297 1.502 . S
C299 H285 0.960 . S
C299 H286 0.961 . S
C299 H287 0.959 . S
C299 C297 1.561 . S
C300 C297 1.526 . S
C300 C301 1.396 . S
C300 C305 1.390 . S
C301 C295 1.465 . S
C301 C300 1.396 . S
C301 C302 1.399 . S
C302 H288 0.929 . S
C302 C301 1.399 . S
C302 C303 1.385 . S
C303 H289 0.931 . S
C303 C302 1.385 . S
C303 C304 1.389 . S
C304 C303 1.389 . S
C304 C305 1.387 . S
C305 H290 0.930 . S
C305 C300 1.390 . S
C305 C304 1.387 . S
H306 C318 0.930 . S
H307 C320 0.930 . S
H308 C321 0.930 . S
H309 C325 0.959 . S
H310 C325 0.959 . S
H311 C325 0.961 . S
H312 C326 0.960 . S
H313 C326 0.961 . S
H314 C326 0.959 . S
H315 C329 0.929 . S
H316 C330 0.931 1_556 S
H317 C332 0.930 . S
C318 H306 0.930 . S
C318 C319 1.399 . S
C318 C323 1.399 . S
C319 C318 1.399 . S
C319 C320 1.376 . S
C320 H307 0.930 . S
C320 C319 1.376 . S
C320 C321 1.388 . S
C321 H308 0.930 . S
C321 C320 1.388 . S
C321 C322 1.390 . S
C322 C321 1.390 . S
C322 C323 1.394 . S
C322 C328 1.465 . S
C323 C318 1.399 . S
C323 C322 1.394 . S
C323 C324 1.516 . S
C324 C323 1.516 . S
C324 C325 1.502 . S
C324 C326 1.561 1_565 S
C324 C327 1.526 . S
C325 H309 0.959 . S
C325 H310 0.959 . S
C325 H311 0.961 . S
C325 C324 1.502 . S
C326 H312 0.960 . S
C326 H313 0.961 . S
C326 H314 0.959 . S
C326 C324 1.561 1_545 S
C327 C324 1.526 . S
C327 C328 1.396 . S
C327 C332 1.390 . S
C328 C322 1.465 . S
C328 C327 1.396 . S
C328 C329 1.399 . S
C329 H315 0.929 . S
C329 C328 1.399 . S
C329 C330 1.385 . S
C330 H316 0.931 1_554 S
C330 C329 1.385 . S
C330 C331 1.389 . S
C331 C330 1.389 . S
C331 C332 1.387 . S
C332 H317 0.930 . S
C332 C327 1.390 . S
C332 C331 1.387 . S
H333 C345 0.930 . S
H334 C347 0.930 . S
H335 C348 0.930 . S
H336 C352 0.959 . S
H337 C352 0.959 . S
H338 C352 0.961 . S
H339 C353 0.961 . S
H340 C353 0.985 . S
H341 C353 0.960 . S
H342 C356 0.929 . S
H343 C357 0.931 . S
H344 C359 0.930 . S
C345 H333 0.930 . S
C345 C346 1.399 . S
C345 C350 1.399 . S
C346 C345 1.399 . S
C346 C347 1.376 . S
C347 H334 0.930 . S
C347 C346 1.376 . S
C347 C348 1.388 . S
C348 H335 0.930 . S
C348 C347 1.388 . S
C348 C349 1.390 . S
C349 C348 1.390 . S
C349 C350 1.394 . S
C349 C355 1.465 . S
C350 C345 1.399 . S
C350 C349 1.394 . S
C350 C351 1.516 . S
C351 C350 1.516 . S
C351 C352 1.502 . S
C351 C353 1.547 1_545 S
C351 C354 1.526 . S
C352 H336 0.959 . S
C352 H337 0.959 . S
C352 H338 0.961 . S
C352 C351 1.502 . S
C353 H339 0.961 . S
C353 H340 0.985 . S
C353 H341 0.960 . S
C353 C351 1.547 1_565 S
C354 C351 1.526 . S
C354 C355 1.396 . S
C354 C359 1.390 . S
C355 C349 1.465 . S
C355 C354 1.396 . S
C355 C356 1.399 . S
C356 H342 0.929 . S
C356 C355 1.399 . S
C356 C357 1.385 . S
C357 H343 0.931 . S
C357 C356 1.385 . S
C357 C358 1.389 . S
C358 C357 1.389 . S
C358 C359 1.387 . S
C359 H344 0.930 . S
C359 C354 1.390 . S
C359 C358 1.387 . S
H360 C372 0.930 . S
H361 C374 0.930 . S
H362 C375 0.930 . S
H363 C379 0.959 . S
H364 C379 0.959 . S
H365 C379 0.961 . S
H366 C380 0.960 . S
H367 C380 0.961 . S
H368 C380 0.959 . S
H369 C383 0.929 . S
H370 C384 0.931 . S
H371 C386 0.930 . S
C372 H360 0.930 . S
C372 C373 1.399 . S
C372 C377 1.399 . S
C373 C372 1.399 . S
C373 C374 1.376 . S
C374 H361 0.930 . S
C374 C373 1.376 . S
C374 C375 1.388 . S
C375 H362 0.930 . S
C375 C374 1.388 . S
C375 C376 1.390 . S
C376 C375 1.390 . S
C376 C377 1.394 . S
C376 C382 1.465 . S
C377 C372 1.399 . S
C377 C376 1.394 . S
C377 C378 1.516 . S
C378 C377 1.516 . S
C378 C379 1.502 . S
C378 C380 1.561 . S
C378 C381 1.526 . S
C379 H363 0.959 . S
C379 H364 0.959 . S
C379 H365 0.961 . S
C379 C378 1.502 . S
C380 H366 0.960 . S
C380 H367 0.961 . S
C380 H368 0.959 . S
C380 C378 1.561 . S
C381 C378 1.526 . S
C381 C382 1.396 . S
C381 C386 1.390 . S
C382 C376 1.465 . S
C382 C381 1.396 . S
C382 C383 1.399 . S
C383 H369 0.929 . S
C383 C382 1.399 . S
C383 C384 1.385 . S
C384 H370 0.931 . S
C384 C383 1.385 . S
C384 C385 1.389 . S
C385 C384 1.389 . S
C385 C386 1.387 . S
C386 H371 0.930 . S
C386 C381 1.390 . S
C386 C385 1.387 . S
H387 C399 0.930 . S
H388 C401 0.930 . S
H389 C402 0.930 . S
H390 C406 0.959 . S
H391 C406 0.959 . S
H392 C406 0.961 . S
H393 C407 0.960 . S
H394 C407 0.961 . S
H395 C407 0.959 . S
H396 C410 0.929 . S
H397 C411 0.931 . S
H398 C413 0.930 . S
C399 H387 0.930 . S
C399 C400 1.399 . S
C399 C404 1.399 . S
C400 C399 1.399 . S
C400 C401 1.376 . S
C401 H388 0.930 . S
C401 C400 1.376 . S
C401 C402 1.388 . S
C402 H389 0.930 . S
C402 C401 1.388 . S
C402 C403 1.390 . S
C403 C402 1.390 . S
C403 C404 1.394 . S
C403 C409 1.465 . S
C404 C399 1.399 . S
C404 C403 1.394 . S
C404 C405 1.516 . S
C405 C404 1.516 . S
C405 C406 1.502 . S
C405 C407 1.561 . S
C405 C408 1.526 . S
C406 H390 0.959 . S
C406 H391 0.959 . S
C406 H392 0.961 . S
C406 C405 1.502 . S
C407 H393 0.960 . S
C407 H394 0.961 . S
C407 H395 0.959 . S
C407 C405 1.561 . S
C408 C405 1.526 . S
C408 C409 1.396 . S
C408 C413 1.390 . S
C409 C403 1.465 . S
C409 C408 1.396 . S
C409 C410 1.399 . S
C410 H396 0.929 . S
C410 C409 1.399 . S
C410 C411 1.385 . S
C411 H397 0.931 . S
C411 C410 1.385 . S
C411 C412 1.389 . S
C412 C411 1.389 . S
C412 C413 1.387 . S
C413 H398 0.930 . S
C413 C408 1.390 . S
C413 C412 1.387 . S
H414 C426 0.930 1_455 S
H415 C428 0.930 . S
H416 C429 0.930 . S
H417 C433 0.960 . S
H418 C433 0.959 . S
H419 C433 0.961 . S
H420 C434 0.960 . S
H421 C434 0.961 . S
H422 C434 0.959 1_655 S
H423 C437 0.929 . S
H424 C438 0.931 . S
H425 C440 0.930 . S
C426 H414 0.930 1_655 S
C426 C427 1.399 . S
C426 C431 1.399 . S
C427 C426 1.399 . S
C427 C428 1.376 . S
C428 H415 0.930 . S
C428 C427 1.376 . S
C428 C429 1.388 . S
C429 H416 0.930 . S
C429 C428 1.388 . S
C429 C430 1.390 . S
C430 C429 1.390 . S
C430 C431 1.394 . S
C430 C436 1.465 . S
C431 C426 1.399 . S
C431 C430 1.394 . S
C431 C432 1.516 . S
C432 C431 1.516 . S
C432 C433 1.502 1_655 S
C432 C434 1.561 1_655 S
C432 C435 1.526 . S
C433 H417 0.960 . S
C433 H418 0.959 . S
C433 H419 0.961 . S
C433 C432 1.502 1_455 S
C434 H420 0.960 . S
C434 H421 0.961 . S
C434 H422 0.959 1_455 S
C434 C432 1.561 1_455 S
C435 C432 1.526 . S
C435 C436 1.396 . S
C435 C440 1.390 . S
C436 C430 1.465 . S
C436 C435 1.396 . S
C436 C437 1.399 . S
C437 H423 0.929 . S
C437 C436 1.399 . S
C437 C438 1.385 . S
C438 H424 0.931 . S
C438 C437 1.385 . S
C438 C439 1.389 . S
C439 C438 1.389 . S
C439 C440 1.387 . S
C440 H425 0.930 . S
C440 C435 1.390 . S
C440 C439 1.387 . S
H441 C453 0.930 . S
H442 C455 0.930 1_554 S
H443 C456 0.930 . S
H444 C460 0.959 . S
H445 C460 0.959 . S
H446 C460 0.961 . S
H447 C461 0.960 . S
H448 C461 0.961 . S
H449 C461 0.959 . S
H450 C464 0.929 . S
H451 C465 0.931 . S
H452 C467 0.930 . S
C453 H441 0.930 . S
C453 C454 1.399 . S
C453 C458 1.399 . S
C454 C453 1.399 . S
C454 C455 1.376 . S
C455 H442 0.930 1_556 S
C455 C454 1.376 . S
C455 C456 1.388 . S
C456 H443 0.930 . S
C456 C455 1.388 . S
C456 C457 1.390 . S
C457 C456 1.390 . S
C457 C458 1.394 . S
C457 C463 1.465 . S
C458 C453 1.399 . S
C458 C457 1.394 . S
C458 C459 1.516 . S
C459 C458 1.516 . S
C459 C460 1.502 . S
C459 C461 1.561 . S
C459 C462 1.526 . S
C460 H444 0.959 . S
C460 H445 0.959 . S
C460 H446 0.961 . S
C460 C459 1.502 . S
C461 H447 0.960 . S
C461 H448 0.961 . S
C461 H449 0.959 . S
C461 C459 1.561 . S
C462 C459 1.526 . S
C462 C463 1.396 . S
C462 C467 1.390 . S
C463 C457 1.465 . S
C463 C462 1.396 . S
C463 C464 1.399 . S
C464 H450 0.929 . S
C464 C463 1.399 . S
C464 C465 1.385 . S
C465 H451 0.931 . S
C465 C464 1.385 . S
C465 C466 1.389 . S
C466 C465 1.389 . S
C466 C467 1.387 . S
C467 H452 0.930 . S
C467 C462 1.390 . S
C467 C466 1.387 . S
H468 C480 0.930 . S
H469 C482 0.930 . S
H470 C483 0.930 . S
H471 C487 0.959 . S
H472 C487 0.959 . S
H473 C487 0.961 . S
H474 C488 0.960 . S
H475 C488 0.961 . S
H476 C488 0.959 . S
H477 C491 0.929 . S
H478 C492 0.931 . S
H479 C494 0.930 . S
C480 H468 0.930 . S
C480 C481 1.399 . S
C480 C485 1.399 . S
C481 C480 1.399 . S
C481 C482 1.376 . S
C482 H469 0.930 . S
C482 C481 1.376 . S
C482 C483 1.388 . S
C483 H470 0.930 . S
C483 C482 1.388 . S
C483 C484 1.390 . S
C484 C483 1.390 . S
C484 C485 1.394 . S
C484 C490 1.465 . S
C485 C480 1.399 . S
C485 C484 1.394 . S
C485 C486 1.516 . S
C486 C485 1.516 . S
C486 C487 1.502 . S
C486 C488 1.561 . S
C486 C489 1.526 . S
C487 H471 0.959 . S
C487 H472 0.959 . S
C487 H473 0.961 . S
C487 C486 1.502 . S
C488 H474 0.960 . S
C488 H475 0.961 . S
C488 H476 0.959 . S
C488 C486 1.561 . S
C489 C486 1.526 . S
C489 C490 1.396 . S
C489 C494 1.390 . S
C490 C484 1.465 . S
C490 C489 1.396 . S
C490 C491 1.399 . S
C491 H477 0.929 . S
C491 C490 1.399 . S
C491 C492 1.385 . S
C492 H478 0.931 . S
C492 C491 1.385 . S
C492 C493 1.389 . S
C493 C492 1.389 . S
C493 C494 1.387 . S
C494 H479 0.930 . S
C494 C489 1.390 . S
C494 C493 1.387 . S
H495 C507 0.930 . S
H496 C509 0.926 1_545 S
H497 C510 0.930 1_545 S
H498 C514 0.959 . S
H499 C514 0.959 . S
H500 C514 0.961 . S
H501 C515 0.960 . S
H502 C515 0.961 . S
H503 C515 0.959 . S
H504 C518 0.929 . S
H505 C519 0.931 . S
H506 C521 0.930 . S
C507 H495 0.930 . S
C507 C508 1.399 . S
C507 C512 1.399 . S
C508 C507 1.399 . S
C508 C509 1.380 . S
C509 H496 0.926 1_565 S
C509 C508 1.380 . S
C509 C510 1.390 . S
C510 H497 0.930 1_565 S
C510 C509 1.390 . S
C510 C511 1.390 . S
C511 C510 1.390 . S
C511 C512 1.394 . S
C511 C517 1.465 . S
C512 C507 1.399 . S
C512 C511 1.394 . S
C512 C513 1.516 . S
C513 C512 1.516 . S
C513 C514 1.502 . S
C513 C515 1.561 . S
C513 C516 1.526 . S
C514 H498 0.959 . S
C514 H499 0.959 . S
C514 H500 0.961 . S
C514 C513 1.502 . S
C515 H501 0.960 . S
C515 H502 0.961 . S
C515 H503 0.959 . S
C515 C513 1.561 . S
C516 C513 1.526 . S
C516 C517 1.396 . S
C516 C521 1.390 . S
C517 C511 1.465 . S
C517 C516 1.396 . S
C517 C518 1.399 . S
C518 H504 0.929 . S
C518 C517 1.399 . S
C518 C519 1.385 . S
C519 H505 0.931 . S
C519 C518 1.385 . S
C519 C520 1.389 . S
C520 C519 1.389 . S
C520 C521 1.387 . S
C521 H506 0.930 . S
C521 C516 1.390 . S
C521 C520 1.387 . S
H522 C534 0.930 . S
H523 C536 0.930 . S
H524 C537 0.930 . S
H525 C541 0.959 . S
H526 C541 0.959 . S
H527 C541 0.961 . S
H528 C542 0.960 . S
H529 C542 0.961 . S
H530 C542 0.959 . S
H531 C545 0.929 . S
H532 C546 0.931 . S
H533 C548 0.930 . S
C534 H522 0.930 . S
C534 C535 1.399 . S
C534 C539 1.399 . S
C535 C534 1.399 . S
C535 C536 1.376 . S
C536 H523 0.930 . S
C536 C535 1.376 . S
C536 C537 1.388 . S
C537 H524 0.930 . S
C537 C536 1.388 . S
C537 C538 1.390 . S
C538 C537 1.390 . S
C538 C539 1.394 . S
C538 C544 1.465 . S
C539 C534 1.399 . S
C539 C538 1.394 . S
C539 C540 1.516 . S
C540 C539 1.516 . S
C540 C541 1.502 . S
C540 C542 1.561 . S
C540 C543 1.526 . S
C541 H525 0.959 . S
C541 H526 0.959 . S
C541 H527 0.961 . S
C541 C540 1.502 . S
C542 H528 0.960 . S
C542 H529 0.961 . S
C542 H530 0.959 . S
C542 C540 1.561 . S
C543 C540 1.526 . S
C543 C544 1.396 . S
C543 C548 1.390 . S
C544 C538 1.465 . S
C544 C543 1.396 . S
C544 C545 1.399 . S
C545 H531 0.929 . S
C545 C544 1.399 . S
C545 C546 1.385 . S
C546 H532 0.931 . S
C546 C545 1.385 . S
C546 C547 1.389 . S
C547 C546 1.389 . S
C547 C548 1.387 . S
C548 H533 0.930 . S
C548 C543 1.390 . S
C548 C547 1.387 . S
H549 C561 0.930 . S
H550 C563 0.930 . S
H551 C564 0.930 . S
H552 C568 0.959 . S
H553 C568 0.959 . S
H554 C568 0.961 . S
H555 C569 0.960 . S
H556 C569 0.961 . S
H557 C569 0.959 . S
H558 C572 0.929 . S
H559 C573 0.931 . S
H560 C575 0.930 . S
C561 H549 0.930 . S
C561 C562 1.399 . S
C561 C566 1.399 . S
C562 C561 1.399 . S
C562 C563 1.376 . S
C563 H550 0.930 . S
C563 C562 1.376 . S
C563 C564 1.388 . S
C564 H551 0.930 . S
C564 C563 1.388 . S
C564 C565 1.390 . S
C565 C564 1.390 . S
C565 C566 1.394 . S
C565 C571 1.465 . S
C566 C561 1.399 . S
C566 C565 1.394 . S
C566 C567 1.516 . S
C567 C566 1.516 . S
C567 C568 1.502 . S
C567 C569 1.561 . S
C567 C570 1.526 . S
C568 H552 0.959 . S
C568 H553 0.959 . S
C568 H554 0.961 . S
C568 C567 1.502 . S
C569 H555 0.960 . S
C569 H556 0.961 . S
C569 H557 0.959 . S
C569 C567 1.561 . S
C570 C567 1.526 . S
C570 C571 1.396 . S
C570 C575 1.390 . S
C571 C565 1.465 . S
C571 C570 1.396 . S
C571 C572 1.399 . S
C572 H558 0.929 . S
C572 C571 1.399 . S
C572 C573 1.385 . S
C573 H559 0.931 . S
C573 C572 1.385 . S
C573 C574 1.389 . S
C574 C573 1.389 . S
C574 C575 1.387 . S
C575 H560 0.930 . S
C575 C570 1.390 . S
C575 C574 1.387 . S
H576 C588 0.930 . S
H577 C590 0.930 . S
H578 C591 0.930 . S
H579 C595 0.959 . S
H580 C595 0.959 . S
H581 C595 0.961 . S
H582 C596 0.960 . S
H583 C596 0.961 . S
H584 C596 0.959 . S
H585 C599 0.929 . S
H586 C600 0.931 . S
H587 C602 0.930 . S
C588 H576 0.930 . S
C588 C589 1.399 . S
C588 C593 1.399 . S
C589 C588 1.399 . S
C589 C590 1.376 . S
C590 H577 0.930 . S
C590 C589 1.376 . S
C590 C591 1.388 . S
C591 H578 0.930 . S
C591 C590 1.388 . S
C591 C592 1.390 . S
C592 C591 1.390 . S
C592 C593 1.394 . S
C592 C598 1.465 . S
C593 C588 1.399 . S
C593 C592 1.394 . S
C593 C594 1.516 . S
C594 C593 1.516 . S
C594 C595 1.502 . S
C594 C596 1.561 . S
C594 C597 1.526 . S
C595 H579 0.959 . S
C595 H580 0.959 . S
C595 H581 0.961 . S
C595 C594 1.502 . S
C596 H582 0.960 . S
C596 H583 0.961 . S
C596 H584 0.959 . S
C596 C594 1.561 . S
C597 C594 1.526 . S
C597 C598 1.396 . S
C597 C602 1.390 . S
C598 C592 1.465 . S
C598 C597 1.396 . S
C598 C599 1.399 . S
C599 H585 0.929 . S
C599 C598 1.399 . S
C599 C600 1.385 . S
C600 H586 0.931 . S
C600 C599 1.385 . S
C600 C601 1.389 . S
C601 C600 1.389 . S
C601 C602 1.387 . S
C602 H587 0.930 . S
C602 C597 1.390 . S
C602 C601 1.387 . S
H603 C615 0.930 . S
H604 C617 0.930 . S
H605 C618 0.930 . S
H606 C622 0.959 . S
H607 C622 0.959 . S
H608 C622 0.961 . S
H609 C623 0.960 . S
H610 C623 0.961 . S
H611 C623 0.959 . S
H612 C626 0.929 . S
H613 C627 0.931 . S
H614 C629 0.930 . S
C615 H603 0.930 . S
C615 C616 1.399 . S
C615 C620 1.399 . S
C616 C615 1.399 . S
C616 C617 1.376 . S
C617 H604 0.930 . S
C617 C616 1.376 . S
C617 C618 1.388 1_545 S
C618 H605 0.930 . S
C618 C617 1.388 1_565 S
C618 C619 1.390 1_565 S
C619 C618 1.390 1_545 S
C619 C620 1.394 . S
C619 C625 1.465 1_545 S
C620 C615 1.399 . S
C620 C619 1.394 . S
C620 C621 1.516 . S
C621 C620 1.516 . S
C621 C622 1.502 . S
C621 C623 1.561 . S
C621 C624 1.526 . S
C622 H606 0.959 . S
C622 H607 0.959 . S
C622 H608 0.961 . S
C622 C621 1.502 . S
C623 H609 0.960 . S
C623 H610 0.961 . S
C623 H611 0.959 . S
C623 C621 1.561 . S
C624 C621 1.526 . S
C624 C625 1.396 1_545 S
C624 C629 1.390 1_545 S
C625 C619 1.465 1_565 S
C625 C624 1.396 1_565 S
C625 C626 1.399 . S
C626 H612 0.929 . S
C626 C625 1.399 . S
C626 C627 1.385 . S
C627 H613 0.931 . S
C627 C626 1.385 . S
C627 C628 1.389 . S
C628 C627 1.389 . S
C628 C629 1.387 . S
C629 H614 0.930 . S
C629 C624 1.390 1_565 S
C629 C628 1.387 . S
H630 C642 0.930 . S
H631 C644 0.930 . S
H632 C645 0.930 . S
H633 C649 0.959 . S
H634 C649 0.959 . S
H635 C649 0.961 . S
H636 C650 0.960 1_455 S
H637 C650 0.961 . S
H638 C650 0.959 . S
H639 C653 0.929 . S
H640 C654 0.931 . S
H641 C656 0.930 . S
C642 H630 0.930 . S
C642 C643 1.399 . S
C642 C647 1.399 . S
C643 C642 1.399 . S
C643 C644 1.376 . S
C644 H631 0.930 . S
C644 C643 1.376 . S
C644 C645 1.388 . S
C645 H632 0.930 . S
C645 C644 1.388 . S
C645 C646 1.390 . S
C646 C645 1.390 . S
C646 C647 1.394 . S
C646 C652 1.465 1_455 S
C647 C642 1.399 . S
C647 C646 1.394 . S
C647 C648 1.516 . S
C648 C647 1.516 . S
C648 C649 1.502 . S
C648 C650 1.561 1_455 S
C648 C651 1.526 1_455 S
C649 H633 0.959 . S
C649 H634 0.959 . S
C649 H635 0.961 . S
C649 C648 1.502 . S
C650 H636 0.960 1_655 S
C650 H637 0.961 . S
C650 H638 0.959 . S
C650 C648 1.561 1_655 S
C651 C648 1.526 1_655 S
C651 C652 1.396 . S
C651 C656 1.390 . S
C652 C646 1.465 1_655 S
C652 C651 1.396 . S
C652 C653 1.399 . S
C653 H639 0.929 . S
C653 C652 1.399 . S
C653 C654 1.385 . S
C654 H640 0.931 . S
C654 C653 1.385 . S
C654 C655 1.389 . S
C655 C654 1.389 . S
C655 C656 1.387 . S
C656 H641 0.930 . S
C656 C651 1.390 . S
C656 C655 1.387 . S
H657 C669 0.930 . S
H658 C671 0.930 . S
H659 C672 0.930 . S
H660 C676 0.959 . S
H661 C676 0.959 . S
H662 C676 0.961 . S
H663 C677 0.960 . S
H664 C677 0.961 . S
H665 C677 0.959 . S
H666 C680 0.929 . S
H667 C681 0.931 . S
H668 C683 0.930 . S
C669 H657 0.930 . S
C669 C670 1.399 . S
C669 C674 1.399 . S
C670 C669 1.399 . S
C670 C671 1.376 . S
C671 H658 0.930 . S
C671 C670 1.376 . S
C671 C672 1.388 . S
C672 H659 0.930 . S
C672 C671 1.388 . S
C672 C673 1.390 . S
C673 C672 1.390 . S
C673 C674 1.394 . S
C673 C679 1.465 . S
C674 C669 1.399 . S
C674 C673 1.394 . S
C674 C675 1.516 . S
C675 C674 1.516 . S
C675 C676 1.502 . S
C675 C677 1.561 . S
C675 C678 1.526 . S
C676 H660 0.959 . S
C676 H661 0.959 . S
C676 H662 0.961 . S
C676 C675 1.502 . S
C677 H663 0.960 . S
C677 H664 0.961 . S
C677 H665 0.959 . S
C677 C675 1.561 . S
C678 C675 1.526 . S
C678 C679 1.396 . S
C678 C683 1.390 . S
C679 C673 1.465 . S
C679 C678 1.396 . S
C679 C680 1.399 . S
C680 H666 0.929 . S
C680 C679 1.399 . S
C680 C681 1.385 . S
C681 H667 0.931 . S
C681 C680 1.385 . S
C681 C682 1.389 . S
C682 C681 1.389 . S
C682 C683 1.387 . S
C683 H668 0.930 . S
C683 C678 1.390 . S
C683 C682 1.387 . S
H684 C696 0.930 . S
H685 C698 0.930 . S
H686 C699 0.930 1_565 S
H687 C703 0.959 . S
H688 C703 0.959 . S
H689 C703 0.961 . S
H690 C704 0.960 . S
H691 C704 0.961 . S
H692 C704 0.959 1_565 S
H693 C707 0.929 . S
H694 C708 0.931 . S
H695 C710 0.930 . S
C696 H684 0.930 . S
C696 C697 1.399 . S
C696 C701 1.399 . S
C697 C696 1.399 . S
C697 C698 1.376 . S
C698 H685 0.930 . S
C698 C697 1.376 . S
C698 C699 1.388 . S
C699 H686 0.930 1_545 S
C699 C698 1.388 . S
C699 C700 1.390 . S
C700 C699 1.390 . S
C700 C701 1.394 . S
C700 C706 1.465 1_545 S
C701 C696 1.399 . S
C701 C700 1.394 . S
C701 C702 1.516 . S
C702 C701 1.516 . S
C702 C703 1.502 . S
C702 C704 1.561 . S
C702 C705 1.526 1_545 S
C703 H687 0.959 . S
C703 H688 0.959 . S
C703 H689 0.961 . S
C703 C702 1.502 . S
C704 H690 0.960 . S
C704 H691 0.961 . S
C704 H692 0.959 1_545 S
C704 C702 1.561 . S
C705 C702 1.526 1_565 S
C705 C706 1.396 . S
C705 C710 1.390 . S
C706 C700 1.465 1_565 S
C706 C705 1.396 . S
C706 C707 1.399 . S
C707 H693 0.929 . S
C707 C706 1.399 . S
C707 C708 1.385 . S
C708 H694 0.931 . S
C708 C707 1.385 . S
C708 C709 1.389 . S
C709 C708 1.389 . S
C709 C710 1.387 . S
C710 H695 0.930 . S
C710 C705 1.390 . S
C710 C709 1.387 . S
H711 C723 0.930 . S
H712 C725 0.930 . S
H713 C726 0.930 . S
H714 C730 0.959 . S
H715 C730 0.959 1_655 S
H716 C730 0.961 . S
H717 C731 0.960 . S
H718 C731 0.961 . S
H719 C731 0.959 . S
H720 C734 0.929 1_455 S
H721 C735 0.931 . S
H722 C737 0.930 . S
C723 H711 0.930 . S
C723 C724 1.399 . S
C723 C728 1.399 . S
C724 C723 1.399 . S
C724 C725 1.376 . S
C725 H712 0.930 . S
C725 C724 1.376 . S
C725 C726 1.388 . S
C726 H713 0.930 . S
C726 C725 1.388 . S
C726 C727 1.390 . S
C727 C726 1.390 . S
C727 C728 1.394 . S
C727 C733 1.465 1_455 S
C728 C723 1.399 . S
C728 C727 1.394 . S
C728 C729 1.516 1_455 S
C729 C728 1.516 1_655 S
C729 C730 1.502 1_655 S
C729 C731 1.561 . S
C729 C732 1.526 . S
C730 H714 0.959 . S
C730 H715 0.959 1_455 S
C730 H716 0.961 . S
C730 C729 1.502 1_455 S
C731 H717 0.960 . S
C731 H718 0.961 . S
C731 H719 0.959 . S
C731 C729 1.561 . S
C732 C729 1.526 . S
C732 C733 1.396 . S
C732 C737 1.390 . S
C733 C727 1.465 1_655 S
C733 C732 1.396 . S
C733 C734 1.399 . S
C734 H720 0.929 1_655 S
C734 C733 1.399 . S
C734 C735 1.385 . S
C735 H721 0.931 . S
C735 C734 1.385 . S
C735 C736 1.389 . S
C736 C735 1.389 . S
C736 C737 1.387 . S
C737 H722 0.930 . S
C737 C732 1.390 . S
C737 C736 1.387 . S
H738 C750 0.930 . S
H739 C752 0.930 . S
H740 C753 0.930 . S
H741 C757 0.959 . S
H742 C757 0.959 . S
H743 C757 0.961 . S
H744 C758 0.960 . S
H745 C758 0.961 . S
H746 C758 0.959 . S
H747 C761 0.929 . S
H748 C762 0.931 . S
H749 C764 0.930 . S
C750 H738 0.930 . S
C750 C751 1.399 . S
C750 C755 1.399 . S
C751 C750 1.399 . S
C751 C752 1.376 . S
C752 H739 0.930 . S
C752 C751 1.376 . S
C752 C753 1.388 . S
C753 H740 0.930 . S
C753 C752 1.388 . S
C753 C754 1.390 . S
C754 C753 1.390 . S
C754 C755 1.394 . S
C754 C760 1.465 . S
C755 C750 1.399 . S
C755 C754 1.394 . S
C755 C756 1.516 . S
C756 C755 1.516 . S
C756 C757 1.502 . S
C756 C758 1.561 . S
C756 C759 1.526 . S
C757 H741 0.959 . S
C757 H742 0.959 . S
C757 H743 0.961 . S
C757 C756 1.502 . S
C758 H744 0.960 . S
C758 H745 0.961 . S
C758 H746 0.959 . S
C758 C756 1.561 . S
C759 C756 1.526 . S
C759 C760 1.396 . S
C759 C764 1.390 . S
C760 C754 1.465 . S
C760 C759 1.396 . S
C760 C761 1.399 . S
C761 H747 0.929 . S
C761 C760 1.399 . S
C761 C762 1.385 . S
C762 H748 0.931 . S
C762 C761 1.385 . S
C762 C763 1.389 . S
C763 C762 1.389 . S
C763 C764 1.387 . S
C764 H749 0.930 . S
C764 C759 1.390 . S
C764 C763 1.387 . S
H765 C777 0.930 . S
H766 C779 0.930 . S
H767 C780 0.930 . S
H768 C784 0.959 . S
H769 C784 0.959 . S
H770 C784 0.961 . S
H771 C785 0.960 . S
H772 C785 0.961 . S
H773 C785 0.959 . S
H774 C788 0.929 . S
H775 C789 0.931 . S
H776 C791 0.930 . S
C777 H765 0.930 . S
C777 C778 1.399 . S
C777 C782 1.399 . S
C778 C777 1.399 . S
C778 C779 1.376 . S
C779 H766 0.930 . S
C779 C778 1.376 . S
C779 C780 1.388 . S
C780 H767 0.930 . S
C780 C779 1.388 . S
C780 C781 1.390 . S
C781 C780 1.390 . S
C781 C782 1.394 . S
C781 C787 1.465 . S
C782 C777 1.399 . S
C782 C781 1.394 . S
C782 C783 1.516 . S
C783 C782 1.516 . S
C783 C784 1.502 . S
C783 C785 1.561 . S
C783 C786 1.526 . S
C784 H768 0.959 . S
C784 H769 0.959 . S
C784 H770 0.961 . S
C784 C783 1.502 . S
C785 H771 0.960 . S
C785 H772 0.961 . S
C785 H773 0.959 . S
C785 C783 1.561 . S
C786 C783 1.526 . S
C786 C787 1.396 . S
C786 C791 1.390 . S
C787 C781 1.465 . S
C787 C786 1.396 . S
C787 C788 1.399 . S
C788 H774 0.929 . S
C788 C787 1.399 . S
C788 C789 1.385 . S
C789 H775 0.931 . S
C789 C788 1.385 . S
C789 C790 1.389 . S
C790 C789 1.389 . S
C790 C791 1.387 . S
C791 H776 0.930 . S
C791 C786 1.390 . S
C791 C790 1.387 . S
H792 C804 0.930 . S
H793 C806 0.930 . S
H794 C807 0.930 . S
H795 C811 0.959 . S
H796 C811 0.959 . S
H797 C811 0.961 . S
H798 C812 0.960 . S
H799 C812 0.961 . S
H800 C812 0.959 . S
H801 C815 0.929 . S
H802 C816 0.931 . S
H803 C818 0.930 . S
C804 H792 0.930 . S
C804 C805 1.399 . S
C804 C809 1.399 . S
C805 C804 1.399 . S
C805 C806 1.376 . S
C806 H793 0.930 . S
C806 C805 1.376 . S
C806 C807 1.388 . S
C807 H794 0.930 . S
C807 C806 1.388 . S
C807 C808 1.390 . S
C808 C807 1.390 . S
C808 C809 1.394 . S
C808 C814 1.465 . S
C809 C804 1.399 . S
C809 C808 1.394 . S
C809 C810 1.516 . S
C810 C809 1.516 . S
C810 C811 1.502 . S
C810 C812 1.561 . S
C810 C813 1.526 . S
C811 H795 0.959 . S
C811 H796 0.959 . S
C811 H797 0.961 . S
C811 C810 1.502 . S
C812 H798 0.960 . S
C812 H799 0.961 . S
C812 H800 0.959 . S
C812 C810 1.561 . S
C813 C810 1.526 . S
C813 C814 1.396 . S
C813 C818 1.390 . S
C814 C808 1.465 . S
C814 C813 1.396 . S
C814 C815 1.399 . S
C815 H801 0.929 . S
C815 C814 1.399 . S
C815 C816 1.385 . S
C816 H802 0.931 . S
C816 C815 1.385 . S
C816 C817 1.389 . S
C817 C816 1.389 . S
C817 C818 1.387 . S
C818 H803 0.930 . S
C818 C813 1.390 . S
C818 C817 1.387 . S
H819 C831 0.930 . S
H820 C833 0.930 . S
H821 C834 0.930 . S
H822 C838 0.959 . S
H823 C838 0.959 . S
H824 C838 0.961 . S
H825 C839 0.960 . S
H826 C839 0.961 . S
H827 C839 0.959 . S
H828 C842 0.929 . S
H829 C843 0.931 . S
H830 C845 0.930 . S
C831 H819 0.930 . S
C831 C832 1.399 . S
C831 C836 1.399 . S
C832 C831 1.399 . S
C832 C833 1.376 . S
C833 H820 0.930 . S
C833 C832 1.376 . S
C833 C834 1.388 . S
C834 H821 0.930 . S
C834 C833 1.388 . S
C834 C835 1.390 . S
C835 C834 1.390 . S
C835 C836 1.394 . S
C835 C841 1.465 . S
C836 C831 1.399 . S
C836 C835 1.394 . S
C836 C837 1.516 . S
C837 C836 1.516 . S
C837 C838 1.502 . S
C837 C839 1.561 . S
C837 C840 1.526 . S
C838 H822 0.959 . S
C838 H823 0.959 . S
C838 H824 0.961 . S
C838 C837 1.502 . S
C839 H825 0.960 . S
C839 H826 0.961 . S
C839 H827 0.959 . S
C839 C837 1.561 . S
C840 C837 1.526 . S
C840 C841 1.396 . S
C840 C845 1.390 . S
C841 C835 1.465 . S
C841 C840 1.396 . S
C841 C842 1.399 . S
C842 H828 0.929 . S
C842 C841 1.399 . S
C842 C843 1.385 . S
C843 H829 0.931 . S
C843 C842 1.385 . S
C843 C844 1.389 . S
C844 C843 1.389 . S
C844 C845 1.387 . S
C845 H830 0.930 . S
C845 C840 1.390 . S
C845 C844 1.387 . S
H846 C858 0.930 . S
H847 C860 0.930 . S
H848 C861 0.930 . S
H849 C865 0.959 . S
H850 C865 0.959 . S
H851 C865 0.961 . S
H852 C866 0.960 . S
H853 C866 0.961 . S
H854 C866 0.959 . S
H855 C869 0.929 . S
H856 C870 0.931 . S
H857 C872 0.930 . S
C858 H846 0.930 . S
C858 C859 1.399 . S
C858 C863 1.399 . S
C859 C858 1.399 . S
C859 C860 1.376 . S
C860 H847 0.930 . S
C860 C859 1.376 . S
C860 C861 1.388 . S
C861 H848 0.930 . S
C861 C860 1.388 . S
C861 C862 1.390 . S
C862 C861 1.390 . S
C862 C863 1.394 . S
C862 C868 1.465 . S
C863 C858 1.399 . S
C863 C862 1.394 . S
C863 C864 1.516 . S
C864 C863 1.516 . S
C864 C865 1.502 . S
C864 C866 1.561 . S
C864 C867 1.526 . S
C865 H849 0.959 . S
C865 H850 0.959 . S
C865 H851 0.961 . S
C865 C864 1.502 . S
C866 H852 0.960 . S
C866 H853 0.961 . S
C866 H854 0.959 . S
C866 C864 1.561 . S
C867 C864 1.526 . S
C867 C868 1.396 . S
C867 C872 1.390 . S
C868 C862 1.465 . S
C868 C867 1.396 . S
C868 C869 1.399 . S
C869 H855 0.929 . S
C869 C868 1.399 . S
C869 C870 1.385 . S
C870 H856 0.931 . S
C870 C869 1.385 . S
C870 C871 1.389 . S
C871 C870 1.389 . S
C871 C872 1.387 . S
C872 H857 0.930 . S
C872 C867 1.390 . S
C872 C871 1.387 . S
H873 C885 0.930 . S
H874 C887 0.930 . S
H875 C888 0.930 . S
H876 C892 0.959 . S
H877 C892 0.959 . S
H878 C892 0.961 . S
H879 C893 0.960 . S
H880 C893 0.961 . S
H881 C893 0.959 . S
H882 C896 0.929 . S
H883 C897 0.931 . S
H884 C899 0.930 . S
C885 H873 0.930 . S
C885 C886 1.399 . S
C885 C890 1.399 . S
C886 C885 1.399 . S
C886 C887 1.376 . S
C887 H874 0.930 . S
C887 C886 1.376 . S
C887 C888 1.388 . S
C888 H875 0.930 . S
C888 C887 1.388 . S
C888 C889 1.390 . S
C889 C888 1.390 . S
C889 C890 1.394 . S
C889 C895 1.465 . S
C890 C885 1.399 . S
C890 C889 1.394 . S
C890 C891 1.516 . S
C891 C890 1.516 . S
C891 C892 1.502 . S
C891 C893 1.561 . S
C891 C894 1.526 . S
C892 H876 0.959 . S
C892 H877 0.959 . S
C892 H878 0.961 . S
C892 C891 1.502 . S
C893 H879 0.960 . S
C893 H880 0.961 . S
C893 H881 0.959 . S
C893 C891 1.561 . S
C894 C891 1.526 . S
C894 C895 1.396 . S
C894 C899 1.390 . S
C895 C889 1.465 . S
C895 C894 1.396 . S
C895 C896 1.399 . S
C896 H882 0.929 . S
C896 C895 1.399 . S
C896 C897 1.385 . S
C897 H883 0.931 . S
C897 C896 1.385 . S
C897 C898 1.389 . S
C898 C897 1.389 . S
C898 C899 1.387 . S
C899 H884 0.930 . S
C899 C894 1.390 . S
C899 C898 1.387 . S
H900 C912 0.930 . S
H901 C914 0.930 . S
H902 C915 0.930 . S
H903 C919 0.959 . S
H904 C919 0.959 . S
H905 C919 0.961 . S
H906 C920 0.960 . S
H907 C920 0.961 . S
H908 C920 0.959 . S
H909 C923 0.929 . S
H910 C924 0.931 . S
H911 C926 0.930 . S
C912 H900 0.930 . S
C912 C913 1.399 . S
C912 C917 1.399 . S
C913 C912 1.399 . S
C913 C914 1.376 . S
C914 H901 0.930 . S
C914 C913 1.376 . S
C914 C915 1.388 . S
C915 H902 0.930 . S
C915 C914 1.388 . S
C915 C916 1.390 . S
C916 C915 1.390 . S
C916 C917 1.394 . S
C916 C922 1.465 . S
C917 C912 1.399 . S
C917 C916 1.394 . S
C917 C918 1.516 . S
C918 C917 1.516 . S
C918 C919 1.502 . S
C918 C920 1.561 . S
C918 C921 1.526 . S
C919 H903 0.959 . S
C919 H904 0.959 . S
C919 H905 0.961 . S
C919 C918 1.502 . S
C920 H906 0.960 . S
C920 H907 0.961 . S
C920 H908 0.959 . S
C920 C918 1.561 . S
C921 C918 1.526 . S
C921 C922 1.396 . S
C921 C926 1.390 . S
C922 C916 1.465 . S
C922 C921 1.396 . S
C922 C923 1.399 . S
C923 H909 0.929 . S
C923 C922 1.399 . S
C923 C924 1.385 . S
C924 H910 0.931 . S
C924 C923 1.385 . S
C924 C925 1.389 . S
C925 C924 1.389 . S
C925 C926 1.387 . S
C926 H911 0.930 . S
C926 C921 1.390 . S
C926 C925 1.387 . S
H927 C939 0.930 . S
H928 C941 0.930 . S
H929 C942 0.930 . S
H930 C946 0.959 . S
H931 C946 0.959 . S
H932 C946 0.961 . S
H933 C947 0.960 . S
H934 C947 0.961 . S
H935 C947 0.959 . S
H936 C950 0.929 . S
H937 C951 0.931 . S
H938 C953 0.930 . S
C939 H927 0.930 . S
C939 C940 1.399 . S
C939 C944 1.399 . S
C940 C939 1.399 . S
C940 C941 1.376 . S
C941 H928 0.930 . S
C941 C940 1.376 . S
C941 C942 1.388 . S
C942 H929 0.930 . S
C942 C941 1.388 . S
C942 C943 1.390 . S
C943 C942 1.390 . S
C943 C944 1.394 . S
C943 C949 1.465 . S
C944 C939 1.399 . S
C944 C943 1.394 . S
C944 C945 1.516 . S
C945 C944 1.516 . S
C945 C946 1.502 . S
C945 C947 1.561 . S
C945 C948 1.526 . S
C946 H930 0.959 . S
C946 H931 0.959 . S
C946 H932 0.961 . S
C946 C945 1.502 . S
C947 H933 0.960 . S
C947 H934 0.961 . S
C947 H935 0.959 . S
C947 C945 1.561 . S
C948 C945 1.526 . S
C948 C949 1.396 . S
C948 C953 1.390 . S
C949 C943 1.465 . S
C949 C948 1.396 . S
C949 C950 1.399 . S
C950 H936 0.929 . S
C950 C949 1.399 . S
C950 C951 1.385 . S
C951 H937 0.931 . S
C951 C950 1.385 . S
C951 C952 1.389 . S
C952 C951 1.389 . S
C952 C953 1.387 . S
C953 H938 0.930 . S
C953 C948 1.390 . S
C953 C952 1.387 . S
H954 C966 0.930 . S
H955 C968 0.930 . S
H956 C969 0.930 . S
H957 C973 0.959 . S
H958 C973 0.959 . S
H959 C973 0.961 . S
H960 C974 0.960 . S
H961 C974 0.961 . S
H962 C974 0.959 . S
H963 C977 0.929 . S
H964 C978 0.931 . S
H965 C980 0.930 . S
C966 H954 0.930 . S
C966 C967 1.399 . S
C966 C971 1.399 . S
C967 C966 1.399 . S
C967 C968 1.376 . S
C968 H955 0.930 . S
C968 C967 1.376 . S
C968 C969 1.388 . S
C969 H956 0.930 . S
C969 C968 1.388 . S
C969 C970 1.390 . S
C970 C969 1.390 . S
C970 C971 1.394 . S
C970 C976 1.465 . S
C971 C966 1.399 . S
C971 C970 1.394 . S
C971 C972 1.516 . S
C972 C971 1.516 . S
C972 C973 1.502 . S
C972 C974 1.561 . S
C972 C975 1.526 . S
C973 H957 0.959 . S
C973 H958 0.959 . S
C973 H959 0.961 . S
C973 C972 1.502 . S
C974 H960 0.960 . S
C974 H961 0.961 . S
C974 H962 0.959 . S
C974 C972 1.561 . S
C975 C972 1.526 . S
C975 C976 1.396 . S
C975 C980 1.390 . S
C976 C970 1.465 . S
C976 C975 1.396 . S
C976 C977 1.399 . S
C977 H963 0.929 . S
C977 C976 1.399 . S
C977 C978 1.385 . S
C978 H964 0.931 . S
C978 C977 1.385 . S
C978 C979 1.389 . S
C979 C978 1.389 . S
C979 C980 1.387 . S
C980 H965 0.930 . S
C980 C975 1.390 . S
C980 C979 1.387 . S
H981 C993 0.930 . S
H982 C995 0.930 . S
H983 C996 0.930 . S
H984 C1000 0.959 . S
H985 C1000 0.959 . S
H986 C1000 0.961 . S
H987 C1001 0.960 . S
H988 C1001 0.961 . S
H989 C1001 0.959 . S
H990 C1004 0.929 . S
H991 C1005 0.931 . S
H992 C1007 0.930 . S
C993 H981 0.930 . S
C993 C994 1.399 . S
C993 C998 1.399 . S
C994 C993 1.399 . S
C994 C995 1.376 . S
C995 H982 0.930 . S
C995 C994 1.376 . S
C995 C996 1.388 . S
C996 H983 0.930 . S
C996 C995 1.388 . S
C996 C997 1.390 . S
C997 C996 1.390 . S
C997 C998 1.394 . S
C997 C1003 1.465 . S
C998 C993 1.399 . S
C998 C997 1.394 . S
C998 C999 1.516 . S
C999 C998 1.516 . S
C999 C1000 1.502 . S
C999 C1001 1.561 . S
C999 C1002 1.526 . S
C1000 H984 0.959 . S
C1000 H985 0.959 . S
C1000 H986 0.961 . S
C1000 C999 1.502 . S
C1001 H987 0.960 . S
C1001 H988 0.961 . S
C1001 H989 0.959 . S
C1001 C999 1.561 . S
C1002 C999 1.526 . S
C1002 C1003 1.396 . S
C1002 C1007 1.390 . S
C1003 C997 1.465 . S
C1003 C1002 1.396 . S
C1003 C1004 1.399 . S
C1004 H990 0.929 . S
C1004 C1003 1.399 . S
C1004 C1005 1.385 . S
C1005 H991 0.931 . S
C1005 C1004 1.385 . S
C1005 C1006 1.389 . S
C1006 C1005 1.389 . S
C1006 C1007 1.387 . S
C1007 H992 0.930 . S
C1007 C1002 1.390 . S
C1007 C1006 1.387 . S
H1008 C1020 0.930 . S
H1009 C1022 0.930 . S
H1010 C1023 0.930 . S
H1011 C1027 0.959 . S
H1012 C1027 0.959 . S
H1013 C1027 0.961 . S
H1014 C1028 0.960 . S
H1015 C1028 0.961 . S
H1016 C1028 0.959 . S
H1017 C1031 0.929 . S
H1018 C1032 0.931 . S
H1019 C1034 0.930 . S
C1020 H1008 0.930 . S
C1020 C1021 1.399 . S
C1020 C1025 1.399 . S
C1021 C1020 1.399 . S
C1021 C1022 1.376 . S
C1022 H1009 0.930 . S
C1022 C1021 1.376 . S
C1022 C1023 1.388 . S
C1023 H1010 0.930 . S
C1023 C1022 1.388 . S
C1023 C1024 1.390 . S
C1024 C1023 1.390 . S
C1024 C1025 1.394 . S
C1024 C1030 1.465 . S
C1025 C1020 1.399 . S
C1025 C1024 1.394 . S
C1025 C1026 1.516 . S
C1026 C1025 1.516 . S
C1026 C1027 1.502 . S
C1026 C1028 1.561 . S
C1026 C1029 1.526 . S
C1027 H1011 0.959 . S
C1027 H1012 0.959 . S
C1027 H1013 0.961 . S
C1027 C1026 1.502 . S
C1028 H1014 0.960 . S
C1028 H1015 0.961 . S
C1028 H1016 0.959 . S
C1028 C1026 1.561 . S
C1029 C1026 1.526 . S
C1029 C1030 1.396 . S
C1029 C1034 1.390 . S
C1030 C1024 1.465 . S
C1030 C1029 1.396 . S
C1030 C1031 1.399 . S
C1031 H1017 0.929 . S
C1031 C1030 1.399 . S
C1031 C1032 1.385 . S
C1032 H1018 0.931 . S
C1032 C1031 1.385 . S
C1032 C1033 1.389 . S
C1033 C1032 1.389 . S
C1033 C1034 1.387 . S
C1034 H1019 0.930 . S
C1034 C1029 1.390 . S
C1034 C1033 1.387 . S
H1035 C1047 0.930 . S
H1036 C1049 0.930 . S
H1037 C1050 0.930 . S
H1038 C1054 0.959 . S
H1039 C1054 0.959 . S
H1040 C1054 0.961 . S
H1041 C1055 0.960 . S
H1042 C1055 0.961 . S
H1043 C1055 0.959 . S
H1044 C1058 0.929 . S
H1045 C1059 0.931 . S
H1046 C1061 0.930 . S
C1047 H1035 0.930 . S
C1047 C1048 1.399 . S
C1047 C1052 1.399 . S
C1048 C1047 1.399 . S
C1048 C1049 1.376 . S
C1049 H1036 0.930 . S
C1049 C1048 1.376 . S
C1049 C1050 1.388 . S
C1050 H1037 0.930 . S
C1050 C1049 1.388 . S
C1050 C1051 1.390 . S
C1051 C1050 1.390 . S
C1051 C1052 1.394 . S
C1051 C1057 1.465 . S
C1052 C1047 1.399 . S
C1052 C1051 1.394 . S
C1052 C1053 1.516 . S
C1053 C1052 1.516 . S
C1053 C1054 1.502 . S
C1053 C1055 1.561 . S
C1053 C1056 1.526 . S
C1054 H1038 0.959 . S
C1054 H1039 0.959 . S
C1054 H1040 0.961 . S
C1054 C1053 1.502 . S
C1055 H1041 0.960 . S
C1055 H1042 0.961 . S
C1055 H1043 0.959 . S
C1055 C1053 1.561 . S
C1056 C1053 1.526 . S
C1056 C1057 1.396 . S
C1056 C1061 1.390 . S
C1057 C1051 1.465 . S
C1057 C1056 1.396 . S
C1057 C1058 1.399 . S
C1058 H1044 0.929 . S
C1058 C1057 1.399 . S
C1058 C1059 1.385 . S
C1059 H1045 0.931 . S
C1059 C1058 1.385 . S
C1059 C1060 1.389 . S
C1060 C1059 1.389 . S
C1060 C1061 1.387 . S
C1061 H1046 0.930 . S
C1061 C1056 1.390 . S
C1061 C1060 1.387 . S
H1062 C1074 0.930 . S
H1063 C1076 0.930 . S
H1064 C1077 0.930 . S
H1065 C1081 0.959 . S
H1066 C1081 0.959 . S
H1067 C1081 0.961 . S
H1068 C1082 0.960 . S
H1069 C1082 0.961 . S
H1070 C1082 0.959 . S
H1071 C1085 0.929 . S
H1072 C1086 0.931 . S
H1073 C1088 0.930 . S
C1074 H1062 0.930 . S
C1074 C1075 1.399 . S
C1074 C1079 1.399 . S
C1075 C1074 1.399 . S
C1075 C1076 1.376 . S
C1076 H1063 0.930 . S
C1076 C1075 1.376 . S
C1076 C1077 1.388 . S
C1077 H1064 0.930 . S
C1077 C1076 1.388 . S
C1077 C1078 1.390 . S
C1078 C1077 1.390 . S
C1078 C1079 1.394 . S
C1078 C1084 1.465 . S
C1079 C1074 1.399 . S
C1079 C1078 1.394 . S
C1079 C1080 1.516 . S
C1080 C1079 1.516 . S
C1080 C1081 1.502 . S
C1080 C1082 1.561 . S
C1080 C1083 1.526 . S
C1081 H1065 0.959 . S
C1081 H1066 0.959 . S
C1081 H1067 0.961 . S
C1081 C1080 1.502 . S
C1082 H1068 0.960 . S
C1082 H1069 0.961 . S
C1082 H1070 0.959 . S
C1082 C1080 1.561 . S
C1083 C1080 1.526 . S
C1083 C1084 1.396 . S
C1083 C1088 1.390 . S
C1084 C1078 1.465 . S
C1084 C1083 1.396 . S
C1084 C1085 1.399 . S
C1085 H1071 0.929 . S
C1085 C1084 1.399 . S
C1085 C1086 1.385 . S
C1086 H1072 0.931 . S
C1086 C1085 1.385 . S
C1086 C1087 1.389 . S
C1087 C1086 1.389 . S
C1087 C1088 1.387 . S
C1088 H1073 0.930 . S
C1088 C1083 1.390 . S
C1088 C1087 1.387 . S
H1089 C1101 0.930 . S
H1090 C1103 0.930 . S
H1091 C1104 0.930 . S
H1092 C1108 0.959 . S
H1093 C1108 0.959 . S
H1094 C1108 0.961 . S
H1095 C1109 0.960 . S
H1096 C1109 0.961 . S
H1097 C1109 0.959 1_545 S
H1098 C1112 0.929 . S
H1099 C1113 0.922 1_545 S
H1100 C1115 0.930 . S
C1101 H1089 0.930 . S
C1101 C1102 1.399 . S
C1101 C1106 1.399 . S
C1102 C1101 1.399 . S
C1102 C1103 1.376 . S
C1103 H1090 0.930 . S
C1103 C1102 1.376 . S
C1103 C1104 1.388 . S
C1104 H1091 0.930 . S
C1104 C1103 1.388 . S
C1104 C1105 1.390 . S
C1105 C1104 1.390 . S
C1105 C1106 1.394 . S
C1105 C1111 1.465 . S
C1106 C1101 1.399 . S
C1106 C1105 1.394 . S
C1106 C1107 1.516 1_545 S
C1107 C1106 1.516 1_565 S
C1107 C1108 1.502 . S
C1107 C1109 1.561 . S
C1107 C1110 1.526 . S
C1108 H1092 0.959 . S
C1108 H1093 0.959 . S
C1108 H1094 0.961 . S
C1108 C1107 1.502 . S
C1109 H1095 0.960 . S
C1109 H1096 0.961 . S
C1109 H1097 0.959 1_565 S
C1109 C1107 1.561 . S
C1110 C1107 1.526 . S
C1110 C1111 1.396 1_565 S
C1110 C1115 1.390 . S
C1111 C1105 1.465 . S
C1111 C1110 1.396 1_545 S
C1111 C1112 1.399 . S
C1112 H1098 0.929 . S
C1112 C1111 1.399 . S
C1112 C1113 1.382 1_545 S
C1113 H1099 0.922 1_565 S
C1113 C1112 1.382 1_565 S
C1113 C1114 1.401 . S
C1114 C1113 1.401 . S
C1114 C1115 1.387 . S
C1115 H1100 0.930 . S
C1115 C1110 1.390 . S
C1115 C1114 1.387 . S
H1116 C1128 0.930 . S
H1117 C1130 0.930 1_655 S
H1118 C1131 0.930 . S
H1119 C1135 0.959 . S
H1120 C1135 0.959 . S
H1121 C1135 0.961 . S
H1122 C1136 0.960 . S
H1123 C1136 0.961 . S
H1124 C1136 0.959 . S
H1125 C1139 0.929 . S
H1126 C1140 0.931 . S
H1127 C1142 0.943 . S
C1128 H1116 0.930 . S
C1128 C1129 1.399 . S
C1128 C1133 1.399 . S
C1129 C1128 1.399 . S
C1129 C1130 1.376 . S
C1130 H1117 0.930 1_455 S
C1130 C1129 1.376 . S
C1130 C1131 1.388 1_455 S
C1131 H1118 0.930 . S
C1131 C1130 1.388 1_655 S
C1131 C1132 1.390 . S
C1132 C1131 1.390 . S
C1132 C1133 1.371 1_655 S
C1132 C1138 1.486 . S
C1133 C1128 1.399 . S
C1133 C1132 1.371 1_455 S
C1133 C1134 1.516 . S
C1134 C1133 1.516 . S
C1134 C1135 1.502 . S
C1134 C1136 1.561 . S
C1134 C1137 1.526 . S
C1135 H1119 0.959 . S
C1135 H1120 0.959 . S
C1135 H1121 0.961 . S
C1135 C1134 1.502 . S
C1136 H1122 0.960 . S
C1136 H1123 0.961 . S
C1136 H1124 0.959 . S
C1136 C1134 1.561 . S
C1137 C1134 1.526 . S
C1137 C1138 1.396 1_455 S
C1137 C1142 1.411 . S
C1138 C1132 1.486 . S
C1138 C1137 1.396 1_655 S
C1138 C1139 1.399 . S
C1139 H1125 0.929 . S
C1139 C1138 1.399 . S
C1139 C1140 1.385 . S
C1140 H1126 0.931 . S
C1140 C1139 1.385 . S
C1140 C1141 1.389 . S
C1141 C1140 1.389 . S
C1141 C1142 1.354 1_655 S
C1142 H1127 0.943 . S
C1142 C1137 1.411 . S
C1142 C1141 1.354 1_455 S
H1143 C1155 0.930 . S
H1144 C1157 0.930 . S
H1145 C1158 0.930 . S
H1146 C1162 0.959 . S
H1147 C1162 0.959 . S
H1148 C1162 0.961 . S
H1149 C1163 0.960 . S
H1150 C1163 0.961 . S
H1151 C1163 0.959 . S
H1152 C1166 0.929 . S
H1153 C1167 0.931 . S
H1154 C1169 0.930 1_556 S
C1155 H1143 0.930 . S
C1155 C1156 1.399 . S
C1155 C1160 1.399 . S
C1156 C1155 1.399 . S
C1156 C1157 1.376 . S
C1157 H1144 0.930 . S
C1157 C1156 1.376 . S
C1157 C1158 1.388 1_556 S
C1158 H1145 0.930 . S
C1158 C1157 1.388 1_554 S
C1158 C1159 1.390 . S
C1159 C1158 1.390 . S
C1159 C1160 1.394 1_554 S
C1159 C1165 1.465 . S
C1160 C1155 1.399 . S
C1160 C1159 1.394 1_556 S
C1160 C1161 1.516 . S
C1161 C1160 1.516 . S
C1161 C1162 1.502 . S
C1161 C1163 1.561 . S
C1161 C1164 1.496 1_556 S
C1162 H1146 0.959 . S
C1162 H1147 0.959 . S
C1162 H1148 0.961 . S
C1162 C1161 1.502 . S
C1163 H1149 0.960 . S
C1163 H1150 0.961 . S
C1163 H1151 0.959 . S
C1163 C1161 1.561 . S
C1164 C1161 1.496 1_554 S
C1164 C1165 1.416 . S
C1164 C1169 1.401 . S
C1165 C1159 1.465 . S
C1165 C1164 1.416 . S
C1165 C1166 1.399 . S
C1166 H1152 0.929 . S
C1166 C1165 1.399 . S
C1166 C1167 1.385 . S
C1167 H1153 0.931 . S
C1167 C1166 1.385 . S
C1167 C1168 1.389 . S
C1168 C1167 1.389 . S
C1168 C1169 1.387 . S
C1169 H1154 0.930 1_554 S
C1169 C1164 1.401 . S
C1169 C1168 1.387 . S
H1170 C1182 0.930 . S
H1171 C1184 0.930 . S
H1172 C1185 0.930 . S
H1173 C1189 0.959 1_556 S
H1174 C1189 0.959 . S
H1175 C1189 0.963 . S
H1176 C1190 0.960 . S
H1177 C1190 0.961 . S
H1178 C1190 0.959 . S
H1179 C1193 0.929 1_556 S
H1180 C1194 0.931 . S
H1181 C1196 0.930 1_565 S
C1182 H1170 0.930 . S
C1182 C1183 1.399 . S
C1182 C1187 1.399 . S
C1183 C1182 1.399 . S
C1183 C1184 1.376 1_565 S
C1184 H1171 0.930 . S
C1184 C1183 1.376 1_545 S
C1184 C1185 1.388 . S
C1185 H1172 0.930 . S
C1185 C1184 1.388 . S
C1185 C1186 1.390 . S
C1186 C1185 1.390 . S
C1186 C1187 1.394 1_545 S
C1186 C1192 1.465 1_556 S
C1187 C1182 1.399 . S
C1187 C1186 1.394 1_565 S
C1187 C1188 1.516 1_556 S
C1188 C1187 1.516 1_554 S
C1188 C1189 1.502 . S
C1188 C1190 1.561 . S
C1188 C1191 1.526 1_565 S
C1189 H1173 0.959 1_554 S
C1189 H1174 0.959 . S
C1189 H1175 0.963 . S
C1189 C1188 1.502 . S
C1190 H1176 0.960 . S
C1190 H1177 0.961 . S
C1190 H1178 0.959 . S
C1190 C1188 1.561 . S
C1191 C1188 1.526 1_545 S
C1191 C1192 1.396 . S
C1191 C1196 1.390 . S
C1192 C1186 1.465 1_554 S
C1192 C1191 1.396 . S
C1192 C1193 1.399 . S
C1193 H1179 0.929 1_554 S
C1193 C1192 1.399 . S
C1193 C1194 1.385 . S
C1194 H1180 0.931 . S
C1194 C1193 1.385 . S
C1194 C1195 1.389 . S
C1195 C1194 1.389 . S
C1195 C1196 1.387 . S
C1196 H1181 0.930 1_545 S
C1196 C1191 1.390 . S
C1196 C1195 1.387 . S
H1197 C1209 0.930 . S
H1198 C1211 0.930 . S
H1199 C1212 0.930 . S
H1200 C1216 0.959 . S
H1201 C1216 0.959 . S
H1202 C1216 0.961 . S
H1203 C1217 0.960 . S
H1204 C1217 0.961 1_655 S
H1205 C1217 0.959 . S
H1206 C1220 0.929 . S
H1207 C1221 0.931 . S
H1208 C1223 0.930 1_556 S
C1209 H1197 0.930 . S
C1209 C1210 1.399 . S
C1209 C1214 1.399 . S
C1210 C1209 1.399 . S
C1210 C1211 1.376 . S
C1211 H1198 0.930 . S
C1211 C1210 1.376 . S
C1211 C1212 1.388 1_556 S
C1212 H1199 0.930 . S
C1212 C1211 1.388 1_554 S
C1212 C1213 1.390 . S
C1213 C1212 1.390 . S
C1213 C1214 1.394 1_554 S
C1213 C1219 1.465 . S
C1214 C1209 1.399 . S
C1214 C1213 1.394 1_556 S
C1214 C1215 1.516 1_455 S
C1215 C1214 1.516 1_655 S
C1215 C1216 1.502 . S
C1215 C1217 1.561 1_655 S
C1215 C1218 1.504 1_556 S
C1216 H1200 0.959 . S
C1216 H1201 0.959 . S
C1216 H1202 0.961 . S
C1216 C1215 1.502 . S
C1217 H1203 0.960 . S
C1217 H1204 0.961 1_455 S
C1217 H1205 0.959 . S
C1217 C1215 1.561 1_455 S
C1218 C1215 1.504 1_554 S
C1218 C1219 1.411 1_655 S
C1218 C1223 1.398 . S
C1219 C1213 1.465 . S
C1219 C1218 1.411 1_455 S
C1219 C1220 1.399 . S
C1220 H1206 0.929 . S
C1220 C1219 1.399 . S
C1220 C1221 1.385 1_455 S
C1221 H1207 0.931 . S
C1221 C1220 1.385 1_655 S
C1221 C1222 1.389 . S
C1222 C1221 1.389 . S
C1222 C1223 1.387 . S
C1223 H1208 0.930 1_554 S
C1223 C1218 1.398 . S
C1223 C1222 1.387 . S
C265 C13 1.852 . S
C277 C208 1.905 1_554 S
C292 C180 1.883 1_554 S
C304 C27 1.853 . S
C319 C40 1.909 . S
C331 C183 1.864 1_554 S
C346 C97 1.910 . S
C358 C41 1.855 . S
C373 C99 1.869 . S
C385 C12 1.907 . S
C400 C125 1.892 . S
C412 C26 1.894 . S
C427 C42 1.865 . S
C439 C167 1.901 1_556 S
C454 C127 1.849 1_556 S
C466 C56 1.910 . S
C481 C141 1.898 1_556 S
C493 C82 1.854 . S
C508 C83 1.904 . S
C520 C210 1.850 . S
C535 C43 1.894 . S
C547 C237 1.870 . S
C562 C250 1.910 . S
C574 C57 1.851 . S
C589 C181 1.849 . S
C601 C124 1.892 . S
C616 C96 1.851 . S
C628 C182 1.907 . S
C643 C209 1.851 . S
C655 C98 1.884 . S
C670 C251 1.858 . S
C682 C126 1.905 . S
C697 C140 1.858 . S
C709 C211 1.905 . S
C724 C236 1.887 . S
C736 C166 1.883 . S
C751 C222 1.554 . S
C763 C1 1.553 . S
C778 C15 1.552 . S
C790 C225 1.554 . S
C805 C28 1.553 . S
C817 C238 1.554 . S
C832 C29 1.552 . S
C844 C155 1.555 . S
C859 C139 1.553 . S
C871 C0 1.554 . S
C886 C14 1.554 . S
C898 C153 1.552 . S
C913 C85 1.554 . S
C925 C54 1.553 . S
C940 C111 1.553 . S
C952 C68 1.553 . S
C967 C70 1.553 . S
C979 C113 1.554 . S
C994 C71 1.554 . S
C1006 C196 1.553 . S
C1021 C55 1.551 . S
C1033 C168 1.555 . S
C1048 C69 1.551 . S
C1060 C195 1.554 . S
C1075 C112 1.555 . S
C1087 C239 1.553 . S
C1102 C84 1.551 . S
C1114 C223 1.554 . S
C1129 C224 1.554 . S
C1141 C110 1.552 . S
C1156 C169 1.553 . S
C1168 C138 1.554 . S
C1183 C194 1.555 . S
C1195 C152 1.553 . S
C1210 C197 1.552 . S
C1222 C154 1.554 . S
