# Generated by pormake.
# Topology nfb, (4)-cn, num edge types: 1
# Building blocks:
#     Node 0, Type 0, BuildingBlock: NAHDIM_clean_sbu_0, # of connection points: 4
#     Node 1, Type 0, BuildingBlock: NAHDIM_clean_sbu_0, # of connection points: 4
#     Node 2, Type 0, BuildingBlock: NAHDIM_clean_sbu_0, # of connection points: 4
#     Node 3, Type 0, BuildingBlock: NAHDIM_clean_sbu_0, # of connection points: 4
#     Node 4, Type 0, BuildingBlock: NAHDIM_clean_sbu_0, # of connection points: 4
#     Node 5, Type 0, BuildingBlock: NAHDIM_clean_sbu_0, # of connection points: 4
#     Node 6, Type 0, BuildingBlock: NAHDIM_clean_sbu_0, # of connection points: 4
#     Node 7, Type 0, BuildingBlock: NAHDIM_clean_sbu_0, # of connection points: 4
#     Node 8, Type 0, BuildingBlock: NAHDIM_clean_sbu_0, # of connection points: 4
#     Node 9, Type 0, BuildingBlock: NAHDIM_clean_sbu_0, # of connection points: 4
#     Node 10, Type 0, BuildingBlock: NAHDIM_clean_sbu_0, # of connection points: 4
#     Node 11, Type 0, BuildingBlock: NAHDIM_clean_sbu_0, # of connection points: 4
#     Node 12, Type 0, BuildingBlock: NAHDIM_clean_sbu_0, # of connection points: 4
#     Node 13, Type 0, BuildingBlock: NAHDIM_clean_sbu_0, # of connection points: 4
#     Node 14, Type 0, BuildingBlock: NAHDIM_clean_sbu_0, # of connection points: 4
#     Node 15, Type 0, BuildingBlock: NAHDIM_clean_sbu_0, # of connection points: 4
#     Node 16, Type 0, BuildingBlock: NAHDIM_clean_sbu_0, # of connection points: 4
#     Node 17, Type 0, BuildingBlock: NAHDIM_clean_sbu_0, # of connection points: 4
#     Node 18, Type 0, BuildingBlock: NAHDIM_clean_sbu_0, # of connection points: 4
#     Node 19, Type 0, BuildingBlock: NAHDIM_clean_sbu_0, # of connection points: 4
#     Node 20, Type 0, BuildingBlock: NAHDIM_clean_sbu_0, # of connection points: 4
#     Node 21, Type 0, BuildingBlock: NAHDIM_clean_sbu_0, # of connection points: 4
#     Node 22, Type 0, BuildingBlock: NAHDIM_clean_sbu_0, # of connection points: 4
#     Node 23, Type 0, BuildingBlock: NAHDIM_clean_sbu_0, # of connection points: 4
#     Node 24, Type 0, BuildingBlock: NAHDIM_clean_sbu_0, # of connection points: 4
#     Node 25, Type 0, BuildingBlock: NAHDIM_clean_sbu_0, # of connection points: 4
#     Node 26, Type 0, BuildingBlock: NAHDIM_clean_sbu_0, # of connection points: 4
#     Node 27, Type 0, BuildingBlock: NAHDIM_clean_sbu_0, # of connection points: 4
#     Node 28, Type 0, BuildingBlock: NAHDIM_clean_sbu_0, # of connection points: 4
#     Node 29, Type 0, BuildingBlock: NAHDIM_clean_sbu_0, # of connection points: 4
#     Node 30, Type 0, BuildingBlock: NAHDIM_clean_sbu_0, # of connection points: 4
#     Node 31, Type 0, BuildingBlock: NAHDIM_clean_sbu_0, # of connection points: 4
#     Node 32, Type 0, BuildingBlock: NAHDIM_clean_sbu_0, # of connection points: 4
#     Node 33, Type 0, BuildingBlock: NAHDIM_clean_sbu_0, # of connection points: 4
#     Node 34, Type 0, BuildingBlock: NAHDIM_clean_sbu_0, # of connection points: 4
#     Node 35, Type 0, BuildingBlock: NAHDIM_clean_sbu_0, # of connection points: 4
#     Node 36, Type 0, BuildingBlock: NAHDIM_clean_sbu_0, # of connection points: 4
#     Node 37, Type 0, BuildingBlock: NAHDIM_clean_sbu_0, # of connection points: 4
#     Node 38, Type 0, BuildingBlock: NAHDIM_clean_sbu_0, # of connection points: 4
#     Node 39, Type 0, BuildingBlock: NAHDIM_clean_sbu_0, # of connection points: 4
#     Node 40, Type 0, BuildingBlock: NAHDIM_clean_sbu_0, # of connection points: 4
#     Node 41, Type 0, BuildingBlock: NAHDIM_clean_sbu_0, # of connection points: 4
#     Node 42, Type 0, BuildingBlock: NAHDIM_clean_sbu_0, # of connection points: 4
#     Node 43, Type 0, BuildingBlock: NAHDIM_clean_sbu_0, # of connection points: 4
#     Node 44, Type 0, BuildingBlock: NAHDIM_clean_sbu_0, # of connection points: 4
#     Node 45, Type 0, BuildingBlock: NAHDIM_clean_sbu_0, # of connection points: 4
#     Node 46, Type 0, BuildingBlock: NAHDIM_clean_sbu_0, # of connection points: 4
#     Node 47, Type 0, BuildingBlock: NAHDIM_clean_sbu_0, # of connection points: 4
#     Edge 48, Type (0, 0), BuildingBlock: ZUJKAS_clean_linker_0, # of connection points: 2
#     Edge 49, Type (0, 0), BuildingBlock: ZUJKAS_clean_linker_0, # of connection points: 2
#     Edge 50, Type (0, 0), BuildingBlock: ZUJKAS_clean_linker_0, # of connection points: 2
#     Edge 51, Type (0, 0), BuildingBlock: ZUJKAS_clean_linker_0, # of connection points: 2
#     Edge 52, Type (0, 0), BuildingBlock: ZUJKAS_clean_linker_0, # of connection points: 2
#     Edge 53, Type (0, 0), BuildingBlock: ZUJKAS_clean_linker_0, # of connection points: 2
#     Edge 54, Type (0, 0), BuildingBlock: ZUJKAS_clean_linker_0, # of connection points: 2
#     Edge 55, Type (0, 0), BuildingBlock: ZUJKAS_clean_linker_0, # of connection points: 2
#     Edge 56, Type (0, 0), BuildingBlock: ZUJKAS_clean_linker_0, # of connection points: 2
#     Edge 57, Type (0, 0), BuildingBlock: ZUJKAS_clean_linker_0, # of connection points: 2
#     Edge 58, Type (0, 0), BuildingBlock: ZUJKAS_clean_linker_0, # of connection points: 2
#     Edge 59, Type (0, 0), BuildingBlock: ZUJKAS_clean_linker_0, # of connection points: 2
#     Edge 60, Type (0, 0), BuildingBlock: ZUJKAS_clean_linker_0, # of connection points: 2
#     Edge 61, Type (0, 0), BuildingBlock: ZUJKAS_clean_linker_0, # of connection points: 2
#     Edge 62, Type (0, 0), BuildingBlock: ZUJKAS_clean_linker_0, # of connection points: 2
#     Edge 63, Type (0, 0), BuildingBlock: ZUJKAS_clean_linker_0, # of connection points: 2
#     Edge 64, Type (0, 0), BuildingBlock: ZUJKAS_clean_linker_0, # of connection points: 2
#     Edge 65, Type (0, 0), BuildingBlock: ZUJKAS_clean_linker_0, # of connection points: 2
#     Edge 66, Type (0, 0), BuildingBlock: ZUJKAS_clean_linker_0, # of connection points: 2
#     Edge 67, Type (0, 0), BuildingBlock: ZUJKAS_clean_linker_0, # of connection points: 2
#     Edge 68, Type (0, 0), BuildingBlock: ZUJKAS_clean_linker_0, # of connection points: 2
#     Edge 69, Type (0, 0), BuildingBlock: ZUJKAS_clean_linker_0, # of connection points: 2
#     Edge 70, Type (0, 0), BuildingBlock: ZUJKAS_clean_linker_0, # of connection points: 2
#     Edge 71, Type (0, 0), BuildingBlock: ZUJKAS_clean_linker_0, # of connection points: 2
#     Edge 72, Type (0, 0), BuildingBlock: ZUJKAS_clean_linker_0, # of connection points: 2
#     Edge 73, Type (0, 0), BuildingBlock: ZUJKAS_clean_linker_0, # of connection points: 2
#     Edge 74, Type (0, 0), BuildingBlock: ZUJKAS_clean_linker_0, # of connection points: 2
#     Edge 75, Type (0, 0), BuildingBlock: ZUJKAS_clean_linker_0, # of connection points: 2
#     Edge 76, Type (0, 0), BuildingBlock: ZUJKAS_clean_linker_0, # of connection points: 2
#     Edge 77, Type (0, 0), BuildingBlock: ZUJKAS_clean_linker_0, # of connection points: 2
#     Edge 78, Type (0, 0), BuildingBlock: ZUJKAS_clean_linker_0, # of connection points: 2
#     Edge 79, Type (0, 0), BuildingBlock: ZUJKAS_clean_linker_0, # of connection points: 2
#     Edge 80, Type (0, 0), BuildingBlock: ZUJKAS_clean_linker_0, # of connection points: 2
#     Edge 81, Type (0, 0), BuildingBlock: ZUJKAS_clean_linker_0, # of connection points: 2
#     Edge 82, Type (0, 0), BuildingBlock: ZUJKAS_clean_linker_0, # of connection points: 2
#     Edge 83, Type (0, 0), BuildingBlock: ZUJKAS_clean_linker_0, # of connection points: 2
#     Edge 84, Type (0, 0), BuildingBlock: ZUJKAS_clean_linker_0, # of connection points: 2
#     Edge 85, Type (0, 0), BuildingBlock: ZUJKAS_clean_linker_0, # of connection points: 2
#     Edge 86, Type (0, 0), BuildingBlock: ZUJKAS_clean_linker_0, # of connection points: 2
#     Edge 87, Type (0, 0), BuildingBlock: ZUJKAS_clean_linker_0, # of connection points: 2
#     Edge 88, Type (0, 0), BuildingBlock: ZUJKAS_clean_linker_0, # of connection points: 2
#     Edge 89, Type (0, 0), BuildingBlock: ZUJKAS_clean_linker_0, # of connection points: 2
#     Edge 90, Type (0, 0), BuildingBlock: ZUJKAS_clean_linker_0, # of connection points: 2
#     Edge 91, Type (0, 0), BuildingBlock: ZUJKAS_clean_linker_0, # of connection points: 2
#     Edge 92, Type (0, 0), BuildingBlock: ZUJKAS_clean_linker_0, # of connection points: 2
#     Edge 93, Type (0, 0), BuildingBlock: ZUJKAS_clean_linker_0, # of connection points: 2
#     Edge 94, Type (0, 0), BuildingBlock: ZUJKAS_clean_linker_0, # of connection points: 2
#     Edge 95, Type (0, 0), BuildingBlock: ZUJKAS_clean_linker_0, # of connection points: 2
#     Edge 96, Type (0, 0), BuildingBlock: ZUJKAS_clean_linker_0, # of connection points: 2
#     Edge 97, Type (0, 0), BuildingBlock: ZUJKAS_clean_linker_0, # of connection points: 2
#     Edge 98, Type (0, 0), BuildingBlock: ZUJKAS_clean_linker_0, # of connection points: 2
#     Edge 99, Type (0, 0), BuildingBlock: ZUJKAS_clean_linker_0, # of connection points: 2
#     Edge 100, Type (0, 0), BuildingBlock: ZUJKAS_clean_linker_0, # of connection points: 2
#     Edge 101, Type (0, 0), BuildingBlock: ZUJKAS_clean_linker_0, # of connection points: 2
#     Edge 102, Type (0, 0), BuildingBlock: ZUJKAS_clean_linker_0, # of connection points: 2
#     Edge 103, Type (0, 0), BuildingBlock: ZUJKAS_clean_linker_0, # of connection points: 2
#     Edge 104, Type (0, 0), BuildingBlock: ZUJKAS_clean_linker_0, # of connection points: 2
#     Edge 105, Type (0, 0), BuildingBlock: ZUJKAS_clean_linker_0, # of connection points: 2
#     Edge 106, Type (0, 0), BuildingBlock: ZUJKAS_clean_linker_0, # of connection points: 2
#     Edge 107, Type (0, 0), BuildingBlock: ZUJKAS_clean_linker_0, # of connection points: 2
#     Edge 108, Type (0, 0), BuildingBlock: ZUJKAS_clean_linker_0, # of connection points: 2
#     Edge 109, Type (0, 0), BuildingBlock: ZUJKAS_clean_linker_0, # of connection points: 2
#     Edge 110, Type (0, 0), BuildingBlock: ZUJKAS_clean_linker_0, # of connection points: 2
#     Edge 111, Type (0, 0), BuildingBlock: ZUJKAS_clean_linker_0, # of connection points: 2
#     Edge 112, Type (0, 0), BuildingBlock: ZUJKAS_clean_linker_0, # of connection points: 2
#     Edge 113, Type (0, 0), BuildingBlock: ZUJKAS_clean_linker_0, # of connection points: 2
#     Edge 114, Type (0, 0), BuildingBlock: ZUJKAS_clean_linker_0, # of connection points: 2
#     Edge 115, Type (0, 0), BuildingBlock: ZUJKAS_clean_linker_0, # of connection points: 2
#     Edge 116, Type (0, 0), BuildingBlock: ZUJKAS_clean_linker_0, # of connection points: 2
#     Edge 117, Type (0, 0), BuildingBlock: ZUJKAS_clean_linker_0, # of connection points: 2
#     Edge 118, Type (0, 0), BuildingBlock: ZUJKAS_clean_linker_0, # of connection points: 2
#     Edge 119, Type (0, 0), BuildingBlock: ZUJKAS_clean_linker_0, # of connection points: 2
#     Edge 120, Type (0, 0), BuildingBlock: ZUJKAS_clean_linker_0, # of connection points: 2
#     Edge 121, Type (0, 0), BuildingBlock: ZUJKAS_clean_linker_0, # of connection points: 2
#     Edge 122, Type (0, 0), BuildingBlock: ZUJKAS_clean_linker_0, # of connection points: 2
#     Edge 123, Type (0, 0), BuildingBlock: ZUJKAS_clean_linker_0, # of connection points: 2
#     Edge 124, Type (0, 0), BuildingBlock: ZUJKAS_clean_linker_0, # of connection points: 2
#     Edge 125, Type (0, 0), BuildingBlock: ZUJKAS_clean_linker_0, # of connection points: 2
#     Edge 126, Type (0, 0), BuildingBlock: ZUJKAS_clean_linker_0, # of connection points: 2
#     Edge 127, Type (0, 0), BuildingBlock: ZUJKAS_clean_linker_0, # of connection points: 2
#     Edge 128, Type (0, 0), BuildingBlock: ZUJKAS_clean_linker_0, # of connection points: 2
#     Edge 129, Type (0, 0), BuildingBlock: ZUJKAS_clean_linker_0, # of connection points: 2
#     Edge 130, Type (0, 0), BuildingBlock: ZUJKAS_clean_linker_0, # of connection points: 2
#     Edge 131, Type (0, 0), BuildingBlock: ZUJKAS_clean_linker_0, # of connection points: 2
#     Edge 132, Type (0, 0), BuildingBlock: ZUJKAS_clean_linker_0, # of connection points: 2
#     Edge 133, Type (0, 0), BuildingBlock: ZUJKAS_clean_linker_0, # of connection points: 2
#     Edge 134, Type (0, 0), BuildingBlock: ZUJKAS_clean_linker_0, # of connection points: 2
#     Edge 135, Type (0, 0), BuildingBlock: ZUJKAS_clean_linker_0, # of connection points: 2
#     Edge 136, Type (0, 0), BuildingBlock: ZUJKAS_clean_linker_0, # of connection points: 2
#     Edge 137, Type (0, 0), BuildingBlock: ZUJKAS_clean_linker_0, # of connection points: 2
#     Edge 138, Type (0, 0), BuildingBlock: ZUJKAS_clean_linker_0, # of connection points: 2
#     Edge 139, Type (0, 0), BuildingBlock: ZUJKAS_clean_linker_0, # of connection points: 2
#     Edge 140, Type (0, 0), BuildingBlock: ZUJKAS_clean_linker_0, # of connection points: 2
#     Edge 141, Type (0, 0), BuildingBlock: ZUJKAS_clean_linker_0, # of connection points: 2
#     Edge 142, Type (0, 0), BuildingBlock: ZUJKAS_clean_linker_0, # of connection points: 2
#     Edge 143, Type (0, 0), BuildingBlock: ZUJKAS_clean_linker_0, # of connection points: 2
# Relax obj value: 0.316
# Max RMSD: 0.203
# Mean RMSD: 0.171
data_MOF--net-nfb--node1-NAHDIM_clean_sbu_0--edge1-ZUJKAS_clean_linker_0
_symmetry_space_group_name_H-M    P1
_symmetry_Int_Tables_number       1
_symmetry_cell_setting            triclinic
loop_
_symmetry_equiv_pos_as_xyz
'x, y, z'
_cell_length_a     76.454193
_cell_length_b     76.476102
_cell_length_c     76.487231
_cell_angle_alpha  90.215581
_cell_angle_beta   90.099365
_cell_angle_gamma 90.209357
loop_
_atom_site_label
_atom_site_type_symbol
_atom_site_fract_x
_atom_site_fract_y
_atom_site_fract_z
_atom_type_partial_charge
C0 C 0.15778 0.13021 0.38824 0.0
O1 O 0.14982 0.1389 0.40075 0.0
O2 O 0.11734 0.12172 0.40555 0.0
Zn3 Zn 0.12278 0.12862 0.38076 0.0
O4 O 0.12096 0.15481 0.37971 0.0
C5 C 0.09621 0.10418 0.36959 0.0
O6 O 0.10252 0.0952 0.38277 0.0
O7 O 0.14844 0.12311 0.37631 0.0
C8 C 0.10731 0.16331 0.37564 0.0
O9 O 0.09297 0.1548 0.37134 0.0
C10 C 0.10275 0.12528 0.41264 0.0
O11 O 0.09064 0.13318 0.40342 0.0
O12 O 0.10419 0.11801 0.36489 0.0
C13 C 0.38247 0.58324 0.86938 0.0
O14 O 0.37252 0.5866 0.88297 0.0
O15 O 0.3567 0.62094 0.87356 0.0
Zn16 Zn 0.38287 0.61885 0.87372 0.0
O17 O 0.38947 0.61667 0.89899 0.0
C18 C 0.38304 0.65085 0.8541 0.0
O19 O 0.37032 0.64283 0.84568 0.0
O20 O 0.38958 0.59609 0.8615 0.0
C21 C 0.40256 0.62397 0.90624 0.0
O22 O 0.41325 0.63355 0.89682 0.0
C23 C 0.35008 0.63376 0.8818 0.0
O24 O 0.3605 0.64477 0.89002 0.0
O25 O 0.39215 0.64215 0.86494 0.0
C26 C 0.84479 0.86626 0.34835 0.0
O27 O 0.85205 0.85331 0.33974 0.0
O28 O 0.88213 0.87354 0.39025 0.0
Zn29 Zn 0.8789 0.86788 0.36485 0.0
O30 O 0.87967 0.84158 0.36309 0.0
C31 C 0.91401 0.8713 0.35776 0.0
O32 O 0.91278 0.85912 0.36978 0.0
O33 O 0.85432 0.87569 0.35831 0.0
C34 C 0.88578 0.83322 0.35009 0.0
O35 O 0.89193 0.84191 0.33664 0.0
C36 C 0.87086 0.86829 0.40124 0.0
O37 O 0.85707 0.85962 0.39562 0.0
O38 O 0.89996 0.8783 0.35219 0.0
C39 C 0.62457 0.40862 0.85954 0.0
O40 O 0.63965 0.40693 0.86759 0.0
O41 O 0.64925 0.37353 0.87241 0.0
Zn42 Zn 0.62295 0.37452 0.87298 0.0
O43 O 0.61676 0.37888 0.89805 0.0
C44 C 0.62375 0.34083 0.85623 0.0
O45 O 0.63654 0.34835 0.84758 0.0
O46 O 0.61419 0.39554 0.85907 0.0
C47 C 0.60339 0.37253 0.90558 0.0
O48 O 0.59238 0.3628 0.89657 0.0
C49 C 0.657 0.3644 0.88388 0.0
O50 O 0.64762 0.35574 0.89536 0.0
O51 O 0.61448 0.35013 0.86645 0.0
C52 C 0.1004 0.88728 0.64733 0.0
O53 O 0.10764 0.87292 0.65326 0.0
O54 O 0.12705 0.85949 0.62328 0.0
Zn55 Zn 0.12941 0.88565 0.62316 0.0
O56 O 0.12776 0.89237 0.59782 0.0
C57 C 0.16238 0.88101 0.64141 0.0
O58 O 0.15398 0.86777 0.64843 0.0
O59 O 0.10837 0.89599 0.63562 0.0
C60 C 0.13939 0.90115 0.58984 0.0
O61 O 0.15297 0.90714 0.59856 0.0
C62 C 0.13704 0.85068 0.61337 0.0
O63 O 0.1485 0.85895 0.60361 0.0
O64 O 0.15393 0.89163 0.63182 0.0
C65 C 0.62911 0.65913 0.14622 0.0
O66 O 0.64277 0.65281 0.15446 0.0
O67 O 0.62143 0.6198 0.10669 0.0
Zn68 Zn 0.62752 0.62398 0.13186 0.0
O69 O 0.65385 0.62353 0.13344 0.0
C70 C 0.62448 0.58921 0.14036 0.0
O71 O 0.63666 0.59008 0.12828 0.0
O72 O 0.61941 0.64872 0.13746 0.0
C73 C 0.66219 0.61834 0.14683 0.0
O74 O 0.65346 0.61297 0.16059 0.0
C75 C 0.62748 0.63009 0.09518 0.0
O76 O 0.63747 0.64323 0.10013 0.0
O77 O 0.61733 0.6034 0.1454 0.0
C78 C 0.90703 0.09715 0.64289 0.0
O79 O 0.90165 0.08846 0.62903 0.0
O80 O 0.87726 0.14353 0.63531 0.0
Zn81 Zn 0.87556 0.11731 0.63608 0.0
O82 O 0.87686 0.1093 0.61092 0.0
C83 C 0.84264 0.1219 0.65464 0.0
O84 O 0.85066 0.13575 0.66102 0.0
O85 O 0.89718 0.10894 0.64929 0.0
C86 C 0.86314 0.10567 0.60219 0.0
O87 O 0.84784 0.10634 0.60992 0.0
C88 C 0.86656 0.1523 0.62615 0.0
O89 O 0.85427 0.14405 0.61735 0.0
O90 O 0.85136 0.11105 0.64552 0.0
C91 C 0.37199 0.34964 0.14979 0.0
O92 O 0.35861 0.35747 0.15715 0.0
O93 O 0.38154 0.38514 0.10762 0.0
Zn94 Zn 0.37569 0.38324 0.13313 0.0
O95 O 0.34953 0.38475 0.13438 0.0
C96 C 0.39757 0.41356 0.13897 0.0
O97 O 0.40416 0.40832 0.124 0.0
O98 O 0.38245 0.35867 0.1405 0.0
C99 C 0.34118 0.39693 0.12686 0.0
O100 O 0.34993 0.40936 0.11886 0.0
C101 C 0.374 0.3746 0.09716 0.0
O102 O 0.36305 0.36294 0.10347 0.0
O103 O 0.38611 0.40401 0.1464 0.0
C104 C 0.351 0.16412 0.12842 0.0
O105 O 0.34447 0.15619 0.14215 0.0
O106 O 0.39422 0.13071 0.11855 0.0
Zn107 Zn 0.36858 0.13103 0.12413 0.0
O108 O 0.3673 0.12887 0.15024 0.0
C109 C 0.36457 0.10045 0.10213 0.0
O110 O 0.37918 0.10652 0.09545 0.0
O111 O 0.35997 0.15527 0.11754 0.0
C112 C 0.3769 0.1179 0.15815 0.0
O113 O 0.38698 0.10748 0.14895 0.0
C114 C 0.40353 0.14287 0.12511 0.0
O115 O 0.39593 0.15501 0.13459 0.0
O116 O 0.35661 0.10962 0.11352 0.0
C117 C 0.41761 0.8698 0.62492 0.0
O118 O 0.41559 0.88254 0.6363 0.0
O119 O 0.38286 0.87693 0.65231 0.0
Zn120 Zn 0.38253 0.87692 0.62599 0.0
O121 O 0.38583 0.90198 0.61881 0.0
C122 C 0.34872 0.86003 0.62863 0.0
O123 O 0.35601 0.85303 0.64249 0.0
O124 O 0.404 0.86363 0.6174 0.0
C125 C 0.37622 0.90986 0.60782 0.0
O126 O 0.36344 0.90132 0.60006 0.0
C127 C 0.37469 0.88882 0.66054 0.0
O128 O 0.36599 0.90063 0.65167 0.0
O129 O 0.35817 0.86912 0.61838 0.0
C130 C 0.63582 0.84247 0.10619 0.0
O131 O 0.62309 0.84891 0.09666 0.0
O132 O 0.60881 0.87669 0.11758 0.0
Zn133 Zn 0.6347 0.87678 0.12231 0.0
O134 O 0.63695 0.87928 0.14831 0.0
C135 C 0.63731 0.90788 0.10116 0.0
O136 O 0.62213 0.90211 0.09546 0.0
O137 O 0.64419 0.85266 0.11644 0.0
C138 C 0.62808 0.89078 0.15634 0.0
O139 O 0.61822 0.90151 0.1473 0.0
C140 C 0.59935 0.86597 0.12602 0.0
O141 O 0.60685 0.85523 0.1371 0.0
O142 O 0.64611 0.8983 0.11151 0.0
C143 C 0.59275 0.14821 0.62892 0.0
O144 O 0.59786 0.15144 0.64502 0.0
O145 O 0.61946 0.12326 0.65591 0.0
Zn146 Zn 0.62206 0.12413 0.62979 0.0
O147 O 0.61879 0.09953 0.62113 0.0
C148 C 0.65619 0.13967 0.63597 0.0
O149 O 0.64809 0.14633 0.64957 0.0
O150 O 0.60213 0.13835 0.61933 0.0
C151 C 0.62634 0.09361 0.60758 0.0
O152 O 0.63681 0.10388 0.59864 0.0
C153 C 0.60825 0.11356 0.6634 0.0
O154 O 0.59758 0.10399 0.65383 0.0
O155 O 0.6473 0.13119 0.62465 0.0
C156 C 0.35039 0.89978 0.88527 0.0
O157 O 0.3451 0.89453 0.86976 0.0
O158 O 0.37197 0.87329 0.85556 0.0
Zn159 Zn 0.37328 0.86991 0.88158 0.0
O160 O 0.39867 0.87144 0.88794 0.0
C161 C 0.35781 0.83585 0.8756 0.0
O162 O 0.35155 0.84373 0.86171 0.0
O163 O 0.36102 0.89021 0.89374 0.0
C164 C 0.40924 0.86165 0.8797 0.0
O165 O 0.40309 0.85101 0.86762 0.0
C166 C 0.3797 0.8859 0.84803 0.0
O167 O 0.38856 0.89725 0.8575 0.0
O168 O 0.36584 0.84494 0.88708 0.0
C169 C 0.65945 0.84645 0.37118 0.0
O170 O 0.65134 0.84045 0.35723 0.0
O171 O 0.62674 0.88973 0.38244 0.0
Zn172 Zn 0.62659 0.86423 0.37613 0.0
O173 O 0.62438 0.86377 0.34998 0.0
C174 C 0.59541 0.86046 0.39712 0.0
O175 O 0.60116 0.87531 0.40366 0.0
O176 O 0.65075 0.8551 0.38243 0.0
C177 C 0.61364 0.87383 0.34233 0.0
O178 O 0.60334 0.88379 0.35179 0.0
C179 C 0.63896 0.89889 0.37588 0.0
O180 O 0.65079 0.89116 0.36612 0.0
O181 O 0.60497 0.85228 0.38621 0.0
C182 C 0.63825 0.09209 0.90501 0.0
O183 O 0.62457 0.09735 0.91394 0.0
O184 O 0.62767 0.11958 0.85774 0.0
Zn185 Zn 0.62927 0.122 0.88382 0.0
O186 O 0.60476 0.11981 0.89291 0.0
C187 C 0.64526 0.15565 0.8775 0.0
O188 O 0.65102 0.1475 0.86351 0.0
O189 O 0.64384 0.10159 0.89257 0.0
C190 C 0.59348 0.13064 0.88743 0.0
O191 O 0.59838 0.14284 0.8764 0.0
C192 C 0.6179 0.10818 0.85051 0.0
O193 O 0.60878 0.09746 0.86035 0.0
O194 O 0.63731 0.14685 0.88916 0.0
C195 C 0.34577 0.13586 0.39769 0.0
O196 O 0.35304 0.12346 0.40703 0.0
O197 O 0.37934 0.10885 0.38409 0.0
Zn198 Zn 0.37887 0.1347 0.37945 0.0
O199 O 0.38033 0.13712 0.3534 0.0
C200 C 0.40844 0.13946 0.40286 0.0
O201 O 0.40087 0.12664 0.41142 0.0
O202 O 0.35504 0.14394 0.3865 0.0
C203 C 0.39162 0.12837 0.34494 0.0
O204 O 0.40271 0.11854 0.35358 0.0
C205 C 0.36818 0.09948 0.37602 0.0
O206 O 0.3569 0.10709 0.36557 0.0
O207 O 0.40057 0.14605 0.38979 0.0
C208 C 0.10408 0.38822 0.15869 0.0
O209 O 0.09781 0.40264 0.15189 0.0
O210 O 0.1171 0.41051 0.12121 0.0
Zn211 Zn 0.11983 0.38452 0.1243 0.0
O212 O 0.14565 0.38016 0.1234 0.0
C213 C 0.09726 0.37988 0.09431 0.0
O214 O 0.09084 0.39471 0.10011 0.0
O215 O 0.11226 0.37757 0.14883 0.0
C216 C 0.15466 0.38478 0.11026 0.0
O217 O 0.14669 0.39149 0.09662 0.0
C218 C 0.12782 0.42082 0.12872 0.0
O219 O 0.14005 0.4143 0.13884 0.0
O220 O 0.10874 0.37208 0.10346 0.0
C221 C 0.11802 0.6351 0.83031 0.0
O222 O 0.11182 0.62034 0.83651 0.0
O223 O 0.12258 0.61394 0.87001 0.0
Zn224 Zn 0.1293 0.63906 0.86629 0.0
O225 O 0.15536 0.63965 0.8688 0.0
C226 C 0.10572 0.64794 0.8946 0.0
O227 O 0.09645 0.63518 0.88767 0.0
O228 O 0.12449 0.64625 0.84096 0.0
C229 C 0.16379 0.65283 0.8745 0.0
O230 O 0.15523 0.66699 0.87908 0.0
C231 C 0.12788 0.60629 0.88375 0.0
O232 O 0.13721 0.61516 0.89521 0.0
O233 O 0.11926 0.6533 0.88652 0.0
C234 C 0.8637 0.61066 0.40363 0.0
O235 O 0.8595 0.6263 0.39801 0.0
O236 O 0.88498 0.63807 0.37374 0.0
Zn237 Zn 0.88752 0.61191 0.37418 0.0
O238 O 0.91305 0.60769 0.37867 0.0
C239 C 0.87018 0.61142 0.34077 0.0
O240 O 0.86061 0.62341 0.34848 0.0
O241 O 0.87426 0.60147 0.39465 0.0
C242 C 0.92302 0.59889 0.36873 0.0
O243 O 0.91649 0.59138 0.35468 0.0
C244 C 0.8937 0.64615 0.36215 0.0
O245 O 0.90374 0.63713 0.35153 0.0
O246 O 0.88136 0.60313 0.34985 0.0
C247 C 0.8926 0.35731 0.91456 0.0
O248 O 0.891 0.37418 0.91189 0.0
O249 O 0.85336 0.35823 0.88163 0.0
Zn250 Zn 0.87955 0.35857 0.87982 0.0
O251 O 0.88698 0.38376 0.87888 0.0
C252 C 0.87408 0.34007 0.84727 0.0
O253 O 0.8606 0.33364 0.85574 0.0
O254 O 0.88948 0.34688 0.90187 0.0
C255 C 0.87944 0.39395 0.86819 0.0
O256 O 0.86707 0.3877 0.85796 0.0
C257 C 0.84466 0.3663 0.89324 0.0
O258 O 0.85297 0.37537 0.90529 0.0
O259 O 0.88544 0.34892 0.85573 0.0
C260 C 0.13251 0.38385 0.34468 0.0
O261 O 0.13904 0.36927 0.35088 0.0
O262 O 0.09239 0.39104 0.38252 0.0
Zn263 Zn 0.11788 0.38574 0.37945 0.0
O264 O 0.11986 0.35953 0.37998 0.0
C265 C 0.12567 0.40872 0.40876 0.0
O266 O 0.11295 0.41802 0.40196 0.0
O267 O 0.12451 0.39411 0.35508 0.0
C268 C 0.11149 0.35058 0.39117 0.0
O269 O 0.102 0.3587 0.40296 0.0
C270 C 0.0817 0.38313 0.37249 0.0
O271 O 0.08782 0.37242 0.36051 0.0
O272 O 0.13109 0.39535 0.40047 0.0
C273 C 0.88318 0.6257 0.08751 0.0
O274 O 0.86876 0.61662 0.08984 0.0
O275 O 0.85748 0.62146 0.12469 0.0
Zn276 Zn 0.8833 0.61682 0.12246 0.0
O277 O 0.88518 0.59093 0.11855 0.0
C278 C 0.88726 0.63407 0.15572 0.0
O279 O 0.87546 0.64448 0.1489 0.0
O280 O 0.89293 0.62869 0.10073 0.0
C281 C 0.89655 0.58128 0.1258 0.0
O282 O 0.90828 0.58839 0.13622 0.0
C283 C 0.84945 0.61341 0.13679 0.0
O284 O 0.85833 0.60299 0.14712 0.0
O285 O 0.89427 0.62254 0.14598 0.0
C286 C 0.86135 0.38269 0.59642 0.0
O287 O 0.87656 0.37516 0.59888 0.0
O288 O 0.86281 0.34866 0.62891 0.0
Zn289 Zn 0.86279 0.37492 0.63167 0.0
O290 O 0.88785 0.3829 0.63311 0.0
C291 C 0.84436 0.36859 0.66402 0.0
O292 O 0.83907 0.35453 0.6556 0.0
O293 O 0.85157 0.38518 0.60968 0.0
C294 C 0.8966 0.37902 0.64669 0.0
O295 O 0.88885 0.37043 0.65937 0.0
C296 C 0.8761 0.33978 0.62441 0.0
O297 O 0.89085 0.34784 0.62083 0.0
O298 O 0.85244 0.38045 0.65558 0.0
C299 C 0.14566 0.62377 0.57662 0.0
O300 O 0.13078 0.63194 0.5791 0.0
O301 O 0.1407 0.65432 0.61099 0.0
Zn302 Zn 0.14178 0.62796 0.61205 0.0
O303 O 0.11734 0.61833 0.61039 0.0
C304 C 0.15735 0.63307 0.64628 0.0
O305 O 0.16201 0.64808 0.63939 0.0
O306 O 0.15467 0.61967 0.59005 0.0
C307 C 0.10677 0.6192 0.62316 0.0
O308 O 0.112 0.62638 0.63791 0.0
C309 C 0.12699 0.66321 0.6081 0.0
O310 O 0.11208 0.65512 0.6052 0.0
O311 O 0.15061 0.62139 0.63639 0.0
C312 C 0.85134 0.87377 0.63886 0.0
O313 O 0.8587 0.8601 0.64611 0.0
O314 O 0.88693 0.85069 0.62326 0.0
Zn315 Zn 0.88498 0.87684 0.62152 0.0
O316 O 0.88594 0.88237 0.59597 0.0
C317 C 0.91455 0.88004 0.64499 0.0
O318 O 0.90803 0.86539 0.65114 0.0
O319 O 0.86066 0.88391 0.62951 0.0
C320 C 0.89811 0.8764 0.58641 0.0
O321 O 0.9107 0.86726 0.59365 0.0
C322 C 0.87698 0.84122 0.61382 0.0
O323 O 0.86574 0.8488 0.6033 0.0
O324 O 0.90609 0.88819 0.63323 0.0
C325 C 0.60393 0.41239 0.13068 0.0
O326 O 0.61154 0.41124 0.11536 0.0
O327 O 0.60809 0.37748 0.10188 0.0
Zn328 Zn 0.61314 0.37707 0.12791 0.0
O329 O 0.63911 0.37865 0.13155 0.0
C330 C 0.59639 0.34318 0.12728 0.0
O331 O 0.58773 0.35026 0.11428 0.0
O332 O 0.60222 0.39851 0.13972 0.0
C333 C 0.64858 0.36589 0.12672 0.0
O334 O 0.64112 0.35225 0.11929 0.0
C335 C 0.61922 0.38201 0.09041 0.0
O336 O 0.63485 0.38722 0.09539 0.0
O337 O 0.60628 0.35289 0.13662 0.0
C338 C 0.15606 0.13111 0.62604 0.0
O339 O 0.14846 0.14072 0.61404 0.0
O340 O 0.11816 0.15387 0.63481 0.0
Zn341 Zn 0.12067 0.12786 0.63121 0.0
O342 O 0.11716 0.12278 0.60556 0.0
C343 C 0.09066 0.12325 0.65398 0.0
O344 O 0.09412 0.13964 0.65787 0.0
O345 O 0.14634 0.12264 0.63663 0.0
C346 C 0.10296 0.11725 0.59883 0.0
O347 O 0.08944 0.11416 0.60895 0.0
C348 C 0.11049 0.16382 0.62398 0.0
O349 O 0.10306 0.157 0.61004 0.0
O350 O 0.10137 0.11485 0.64439 0.0
C351 C 0.38509 0.59527 0.13358 0.0
O352 O 0.37347 0.59764 0.12116 0.0
O353 O 0.39104 0.62859 0.10187 0.0
Zn354 Zn 0.38421 0.63066 0.12735 0.0
O355 O 0.35799 0.63094 0.12899 0.0
C356 C 0.40192 0.66409 0.12675 0.0
O357 O 0.41019 0.65675 0.11361 0.0
O358 O 0.39277 0.60869 0.13994 0.0
C359 C 0.34947 0.6438 0.1229 0.0
O360 O 0.35802 0.65676 0.11556 0.0
C361 C 0.38052 0.62418 0.08973 0.0
O362 O 0.3642 0.62045 0.09358 0.0
O363 O 0.39191 0.65467 0.13614 0.0
C364 C 0.91251 0.11011 0.37931 0.0
O365 O 0.90967 0.11931 0.39356 0.0
O366 O 0.87683 0.11014 0.40619 0.0
Zn367 Zn 0.87688 0.11535 0.38036 0.0
O368 O 0.87795 0.14155 0.37789 0.0
C369 C 0.84452 0.09551 0.3778 0.0
O370 O 0.85199 0.08581 0.3898 0.0
O371 O 0.89941 0.10572 0.36991 0.0
C372 C 0.86425 0.15069 0.37585 0.0
O373 O 0.84892 0.1429 0.37522 0.0
C374 C 0.86425 0.11486 0.41593 0.0
O375 O 0.85089 0.12309 0.40898 0.0
O376 O 0.85362 0.1072 0.3702 0.0
C377 C 0.37168 0.33639 0.85955 0.0
O378 O 0.35814 0.34366 0.85191 0.0
O379 O 0.34865 0.37327 0.87112 0.0
Zn380 Zn 0.37429 0.37046 0.87606 0.0
O381 O 0.37677 0.37138 0.90222 0.0
C382 C 0.38153 0.39936 0.85243 0.0
O383 O 0.36845 0.39254 0.84354 0.0
O384 O 0.38168 0.34588 0.86899 0.0
C385 C 0.38719 0.38142 0.9105 0.0
O386 O 0.39738 0.39214 0.90178 0.0
C387 C 0.33999 0.38505 0.87898 0.0
O388 O 0.34812 0.3956 0.88992 0.0
O389 O 0.38728 0.39126 0.86575 0.0
C390 C 0.09241 0.89317 0.36676 0.0
O391 O 0.09452 0.88539 0.3819 0.0
O392 O 0.12819 0.89077 0.39387 0.0
Zn393 Zn 0.1278 0.8852 0.36809 0.0
O394 O 0.12557 0.85901 0.36582 0.0
C395 C 0.16083 0.90368 0.36607 0.0
O396 O 0.15338 0.9138 0.37778 0.0
O397 O 0.10581 0.8956 0.35717 0.0
C398 C 0.13871 0.84925 0.36303 0.0
O399 O 0.15428 0.85636 0.36145 0.0
C400 C 0.14023 0.88453 0.40346 0.0
O401 O 0.15228 0.87463 0.39631 0.0
O402 O 0.15152 0.89223 0.35825 0.0
C403 C 0.61038 0.65842 0.87926 0.0
O404 O 0.60735 0.65289 0.8952 0.0
O405 O 0.65022 0.62368 0.87247 0.0
Zn406 Zn 0.62421 0.62352 0.87601 0.0
O407 O 0.62089 0.62148 0.902 0.0
C408 C 0.62366 0.58828 0.86696 0.0
O409 O 0.63777 0.59016 0.87662 0.0
O410 O 0.6159 0.64755 0.86788 0.0
C411 C 0.61082 0.61109 0.91014 0.0
O412 O 0.60115 0.59987 0.90134 0.0
C413 C 0.65949 0.63437 0.88127 0.0
O414 O 0.65173 0.64543 0.89188 0.0
O415 O 0.61425 0.6017 0.86405 0.0
C416 C 0.63026 0.84431 0.86055 0.0
O417 O 0.6226 0.85057 0.84653 0.0
O418 O 0.63083 0.88492 0.84209 0.0
Zn419 Zn 0.6279 0.88017 0.86776 0.0
O420 O 0.60213 0.88152 0.87271 0.0
C421 C 0.63371 0.90878 0.89249 0.0
O422 O 0.61849 0.90371 0.8986 0.0
O423 O 0.63503 0.85494 0.87255 0.0
C424 C 0.59529 0.87344 0.8855 0.0
O425 O 0.60539 0.86456 0.89615 0.0
C426 C 0.62199 0.89689 0.83478 0.0
O427 O 0.61144 0.9065 0.84433 0.0
O428 O 0.64093 0.89976 0.8805 0.0
C429 C 0.59169 0.12701 0.38235 0.0
O430 O 0.59392 0.11661 0.36882 0.0
O431 O 0.62582 0.09525 0.383 0.0
Zn432 Zn 0.6271 0.12131 0.3802 0.0
O433 O 0.62665 0.12551 0.3543 0.0
C434 C 0.6598 0.11984 0.39923 0.0
O435 O 0.65171 0.10721 0.40759 0.0
O436 O 0.60517 0.13195 0.39089 0.0
C437 C 0.63363 0.13876 0.34714 0.0
O438 O 0.64111 0.15076 0.35699 0.0
C439 C 0.63703 0.08621 0.37475 0.0
O440 O 0.64871 0.09427 0.36507 0.0
O441 O 0.65108 0.12924 0.38866 0.0
C442 C 0.35702 0.15015 0.8788 0.0
O443 O 0.34955 0.14219 0.86548 0.0
O444 O 0.37395 0.11628 0.85475 0.0
Zn445 Zn 0.37619 0.11766 0.8809 0.0
O446 O 0.40193 0.11797 0.88604 0.0
C447 C 0.3725 0.08202 0.88369 0.0
O448 O 0.38464 0.08467 0.87184 0.0
O449 O 0.36715 0.14143 0.88869 0.0
C450 C 0.40918 0.11131 0.89939 0.0
O451 O 0.39956 0.10323 0.91107 0.0
C452 C 0.38317 0.1263 0.84525 0.0
O453 O 0.3938 0.13759 0.85278 0.0
O454 O 0.36556 0.09533 0.89095 0.0
C455 C 0.4132 0.87343 0.3789 0.0
O456 O 0.41099 0.88671 0.36827 0.0
O457 O 0.37877 0.90287 0.3794 0.0
Zn458 Zn 0.37768 0.87698 0.3748 0.0
O459 O 0.37834 0.87425 0.34867 0.0
C460 C 0.34454 0.87747 0.39319 0.0
O461 O 0.3522 0.89003 0.40215 0.0
O462 O 0.39964 0.86567 0.38474 0.0
C463 C 0.36907 0.86294 0.34068 0.0
O464 O 0.35932 0.8521 0.34974 0.0
C465 C 0.3679 0.91247 0.37137 0.0
O466 O 0.35655 0.90512 0.36069 0.0
O467 O 0.35367 0.86847 0.38258 0.0
C468 C 0.62782 0.09128 0.12128 0.0
O469 O 0.61519 0.09387 0.13263 0.0
O470 O 0.59969 0.12633 0.12282 0.0
Zn471 Zn 0.62583 0.12698 0.12569 0.0
O472 O 0.63038 0.12675 0.15169 0.0
C473 C 0.62457 0.15887 0.10547 0.0
O474 O 0.61196 0.15052 0.09722 0.0
O475 O 0.6358 0.10459 0.1152 0.0
C476 C 0.63768 0.13942 0.15971 0.0
O477 O 0.64315 0.15301 0.1508 0.0
C478 C 0.59062 0.13796 0.13045 0.0
O479 O 0.59859 0.14993 0.13995 0.0
O480 O 0.63401 0.15047 0.11626 0.0
C481 C 0.34418 0.14596 0.62931 0.0
O482 O 0.35202 0.15103 0.64377 0.0
O483 O 0.38077 0.12845 0.64887 0.0
Zn484 Zn 0.37778 0.12957 0.6228 0.0
O485 O 0.37861 0.10491 0.61393 0.0
C486 C 0.40795 0.15251 0.62233 0.0
O487 O 0.40191 0.15673 0.63785 0.0
O488 O 0.35316 0.13834 0.61753 0.0
C489 C 0.3915 0.09514 0.61753 0.0
O490 O 0.40457 0.10155 0.62675 0.0
C491 C 0.37199 0.11772 0.658 0.0
O492 O 0.36095 0.10705 0.65018 0.0
O493 O 0.39882 0.14242 0.61262 0.0
C494 C 0.3756 0.91678 0.11505 0.0
O495 O 0.38887 0.91422 0.12566 0.0
O496 O 0.40321 0.8814 0.11697 0.0
Zn497 Zn 0.37713 0.8813 0.12034 0.0
O498 O 0.37331 0.88254 0.14628 0.0
C499 C 0.37742 0.84814 0.102 0.0
O500 O 0.39016 0.85567 0.09329 0.0
O501 O 0.367 0.90349 0.10968 0.0
C502 C 0.36123 0.87395 0.15379 0.0
O503 O 0.35038 0.86451 0.14429 0.0
C504 C 0.41214 0.87046 0.12566 0.0
O505 O 0.40403 0.85963 0.13621 0.0
O506 O 0.36831 0.85741 0.1124 0.0
C507 C 0.66493 0.88286 0.61554 0.0
O508 O 0.65856 0.89843 0.61891 0.0
O509 O 0.625 0.88297 0.64024 0.0
Zn510 Zn 0.62891 0.87871 0.61441 0.0
O511 O 0.62651 0.90165 0.60189 0.0
C512 C 0.60016 0.85413 0.6162 0.0
O513 O 0.60572 0.8527 0.63239 0.0
O514 O 0.65423 0.87049 0.61205 0.0
C515 C 0.61214 0.90993 0.60213 0.0
O516 O 0.59857 0.90292 0.60999 0.0
C517 C 0.62598 0.89784 0.64767 0.0
O518 O 0.62946 0.91177 0.6383 0.0
O519 O 0.60927 0.86298 0.60545 0.0
C520 C 0.87702 0.61767 0.83724 0.0
O521 O 0.86297 0.60928 0.84249 0.0
O522 O 0.85597 0.61895 0.87644 0.0
Zn523 Zn 0.88153 0.61339 0.87272 0.0
O524 O 0.88426 0.58728 0.87138 0.0
C525 C 0.89121 0.61372 0.90761 0.0
O526 O 0.88088 0.60006 0.90588 0.0
O527 O 0.88842 0.62216 0.8486 0.0
C528 C 0.89868 0.57945 0.87379 0.0
O529 O 0.91277 0.5886 0.87758 0.0
C530 C 0.84491 0.60726 0.8807 0.0
O531 O 0.85025 0.59116 0.88323 0.0
O532 O 0.89467 0.62274 0.89406 0.0
C533 C 0.88555 0.36282 0.16404 0.0
O534 O 0.89251 0.37713 0.15759 0.0
O535 O 0.84425 0.35954 0.12968 0.0
Zn536 Zn 0.87052 0.36048 0.12931 0.0
O537 O 0.87755 0.38575 0.12644 0.0
C538 C 0.86933 0.3472 0.09472 0.0
O539 O 0.85381 0.35422 0.09663 0.0
O540 O 0.87747 0.3524 0.15375 0.0
C541 C 0.86922 0.39609 0.11652 0.0
O542 O 0.8558 0.39014 0.10752 0.0
C543 C 0.83573 0.36942 0.13995 0.0
O544 O 0.84429 0.3802 0.15032 0.0
O545 O 0.87962 0.34701 0.10787 0.0
C546 C 0.11976 0.38925 0.592 0.0
O547 O 0.1085 0.37655 0.59486 0.0
O548 O 0.09179 0.38942 0.62884 0.0
Zn549 Zn 0.11782 0.38593 0.62779 0.0
O550 O 0.12112 0.35983 0.62618 0.0
C551 C 0.11985 0.4057 0.66006 0.0
O552 O 0.10735 0.41476 0.6526 0.0
O553 O 0.1268 0.39674 0.60518 0.0
C554 C 0.12605 0.35039 0.63889 0.0
O555 O 0.13015 0.35782 0.65385 0.0
C556 C 0.08357 0.38251 0.6415 0.0
O557 O 0.09237 0.37371 0.65331 0.0
O558 O 0.12792 0.3943 0.65101 0.0
C559 C 0.10484 0.6468 0.08098 0.0
O560 O 0.09695 0.6329 0.08728 0.0
O561 O 0.12235 0.61582 0.10935 0.0
Zn562 Zn 0.12695 0.64166 0.11139 0.0
O563 O 0.15298 0.64473 0.1108 0.0
C564 C 0.11113 0.63925 0.14565 0.0
O565 O 0.10362 0.62549 0.13851 0.0
O566 O 0.11699 0.65394 0.08995 0.0
C567 C 0.16191 0.63636 0.12199 0.0
O568 O 0.15377 0.62619 0.13318 0.0
C569 C 0.13149 0.60595 0.09963 0.0
O570 O 0.1439 0.61286 0.08998 0.0
O571 O 0.1199 0.64954 0.13593 0.0
C572 C 0.89685 0.60957 0.65085 0.0
O573 O 0.91274 0.61148 0.64468 0.0
O574 O 0.88363 0.64412 0.61391 0.0
Zn575 Zn 0.88883 0.6184 0.6152 0.0
O576 O 0.91448 0.61618 0.61018 0.0
C577 C 0.86386 0.61307 0.58712 0.0
O578 O 0.85789 0.62815 0.59279 0.0
O579 O 0.88391 0.61074 0.64037 0.0
C580 C 0.92201 0.60192 0.60628 0.0
O581 O 0.91267 0.58754 0.60478 0.0
C582 C 0.89307 0.65454 0.62287 0.0
O583 O 0.90561 0.64812 0.63267 0.0
O584 O 0.87599 0.60559 0.59568 0.0
C585 C 0.09493 0.37951 0.9094 0.0
O586 O 0.08728 0.39364 0.90342 0.0
O587 O 0.11303 0.41103 0.88191 0.0
Zn588 Zn 0.11737 0.38527 0.87943 0.0
O589 O 0.14344 0.38257 0.88042 0.0
C590 C 0.10047 0.38767 0.84572 0.0
O591 O 0.09282 0.40104 0.85331 0.0
O592 O 0.1071 0.37258 0.9004 0.0
C593 C 0.15245 0.38851 0.8678 0.0
O594 O 0.14438 0.3958 0.85453 0.0
C595 C 0.12039 0.41981 0.89399 0.0
O596 O 0.13046 0.41173 0.90529 0.0
O597 O 0.10998 0.37764 0.85496 0.0
C598 C 0.15158 0.60623 0.3942 0.0
O599 O 0.13793 0.59702 0.38913 0.0
O600 O 0.1168 0.61919 0.36782 0.0
Zn601 Zn 0.1415 0.62763 0.36456 0.0
O602 O 0.1406 0.6537 0.36693 0.0
C603 C 0.13914 0.61373 0.32938 0.0
O604 O 0.12669 0.60431 0.33654 0.0
O605 O 0.15678 0.61879 0.3846 0.0
C606 C 0.13028 0.66208 0.35702 0.0
O607 O 0.12058 0.65339 0.34574 0.0
C608 C 0.10767 0.62415 0.38076 0.0
O609 O 0.11473 0.63455 0.39256 0.0
O610 O 0.14878 0.62319 0.33923 0.0
C611 C 0.84551 0.37137 0.34736 0.0
O612 O 0.83746 0.35787 0.35429 0.0
O613 O 0.86124 0.3466 0.38071 0.0
Zn614 Zn 0.86171 0.37293 0.38153 0.0
O615 O 0.88677 0.38023 0.3847 0.0
C616 C 0.84683 0.37114 0.41554 0.0
O617 O 0.85235 0.35507 0.4132 0.0
O618 O 0.85473 0.3812 0.35724 0.0
C619 C 0.8972 0.3715 0.3942 0.0
O620 O 0.89133 0.35769 0.40253 0.0
C621 C 0.87087 0.33817 0.37013 0.0
O622 O 0.88116 0.34683 0.35945 0.0
O623 O 0.84823 0.38192 0.40292 0.0
H624 H 0.0928 0.32756 0.41112 0.0
H625 H 0.092 0.29569 0.40849 0.0
H626 H 0.12951 0.29804 0.36652 0.0
H627 H 0.1302 0.32992 0.36883 0.0
H628 H 0.10116 0.27677 0.35898 0.0
H629 H 0.12923 0.26087 0.42396 0.0
H630 H 0.11058 0.27505 0.42482 0.0
H631 H 0.13043 0.2825 0.41467 0.0
C632 C 0.10099 0.3213 0.40142 0.0
C633 C 0.11161 0.33127 0.39022 0.0
C634 C 0.10056 0.30308 0.39999 0.0
C635 C 0.11086 0.29451 0.38746 0.0
C636 C 0.12151 0.30442 0.37631 0.0
H637 H 0.13533 0.18455 0.38224 0.0
H638 H 0.13572 0.21638 0.38441 0.0
C639 C 0.12191 0.32263 0.37768 0.0
C640 C 0.11019 0.27525 0.38561 0.0
H641 H 0.11762 0.23718 0.40747 0.0
C642 C 0.10478 0.26809 0.36956 0.0
C643 C 0.1151 0.264 0.39939 0.0
C644 C 0.12182 0.27095 0.41664 0.0
C645 C 0.10403 0.24993 0.36693 0.0
C646 C 0.10852 0.23868 0.38085 0.0
C647 C 0.11404 0.24585 0.39687 0.0
C648 C 0.10812 0.21941 0.37896 0.0
C649 C 0.09882 0.24297 0.34918 0.0
C650 C 0.09244 0.21056 0.37521 0.0
C651 C 0.09217 0.19231 0.37386 0.0
C652 C 0.10756 0.18264 0.37641 0.0
C653 C 0.12323 0.19159 0.38018 0.0
C654 C 0.12349 0.20979 0.38146 0.0
H655 H 0.10012 0.25309 0.33887 0.0
H656 H 0.10693 0.23152 0.34547 0.0
H657 H 0.08494 0.2387 0.34956 0.0
H658 H 0.08036 0.21773 0.37357 0.0
H659 H 0.07987 0.1858 0.37106 0.0
H660 H 0.3322 0.66173 0.89495 0.0
H661 H 0.3005 0.66617 0.89507 0.0
H662 H 0.29314 0.6167 0.86881 0.0
H663 H 0.32477 0.61207 0.86867 0.0
H664 H 0.27728 0.6666 0.86516 0.0
H665 H 0.26101 0.61417 0.91255 0.0
H666 H 0.28282 0.62304 0.9103 0.0
H667 H 0.27466 0.6074 0.89468 0.0
C668 C 0.32383 0.65174 0.88927 0.0
C669 C 0.33097 0.63648 0.88189 0.0
C670 C 0.30576 0.65434 0.88932 0.0
C671 C 0.29455 0.64166 0.88216 0.0
C672 C 0.30161 0.6265 0.87465 0.0
H673 H 0.1851 0.62598 0.86484 0.0
H674 H 0.21688 0.62457 0.86715 0.0
C675 C 0.31967 0.62392 0.87452 0.0
C676 C 0.27544 0.64436 0.88223 0.0
H677 H 0.23722 0.62696 0.89728 0.0
C678 C 0.26848 0.65806 0.87229 0.0
C679 C 0.2641 0.63318 0.89159 0.0
C680 C 0.27098 0.6187 0.90302 0.0
C681 C 0.25035 0.66049 0.87093 0.0
C682 C 0.23899 0.64909 0.88004 0.0
C683 C 0.24599 0.63564 0.89029 0.0
C684 C 0.21975 0.65036 0.87853 0.0
C685 C 0.24349 0.6748 0.85928 0.0
C686 C 0.21084 0.66532 0.88429 0.0
C687 C 0.19262 0.66621 0.88294 0.0
C688 C 0.18305 0.65209 0.87592 0.0
C689 C 0.19206 0.6371 0.87029 0.0
C690 C 0.21022 0.63625 0.87161 0.0
H691 H 0.2537 0.67977 0.85022 0.0
H692 H 0.23216 0.67009 0.85144 0.0
H693 H 0.23902 0.6859 0.86749 0.0
H694 H 0.21795 0.67621 0.88999 0.0
H695 H 0.18606 0.6779 0.88748 0.0
H696 H 0.8721 0.81158 0.3749 0.0
H697 H 0.87326 0.77967 0.37572 0.0
H698 H 0.90112 0.77915 0.32677 0.0
H699 H 0.90013 0.81115 0.32583 0.0
H700 H 0.86043 0.75507 0.34982 0.0
H701 H 0.93221 0.7505 0.36097 0.0
H702 H 0.92013 0.77043 0.36461 0.0
H703 H 0.92544 0.76366 0.34276 0.0
C704 C 0.8785 0.80471 0.36429 0.0
C705 C 0.88612 0.8139 0.35033 0.0
C706 C 0.8791 0.78648 0.36478 0.0
C707 C 0.88744 0.77713 0.35142 0.0
C708 C 0.89485 0.7862 0.33733 0.0
H709 H 0.90871 0.66667 0.33718 0.0
H710 H 0.90647 0.69836 0.33403 0.0
C711 C 0.8942 0.80446 0.33678 0.0
C712 C 0.88835 0.75786 0.35229 0.0
H713 H 0.91678 0.72395 0.35725 0.0
C714 C 0.87273 0.74822 0.35144 0.0
C715 C 0.90444 0.74906 0.35437 0.0
C716 C 0.92153 0.75889 0.35587 0.0
C717 C 0.87277 0.72991 0.35247 0.0
C718 C 0.88885 0.7211 0.35478 0.0
C719 C 0.90448 0.73076 0.35549 0.0
C720 C 0.88978 0.70187 0.35658 0.0
C721 C 0.85566 0.72015 0.35075 0.0
C722 C 0.88126 0.69337 0.37041 0.0
C723 C 0.88246 0.67523 0.37222 0.0
C724 C 0.89235 0.66532 0.36032 0.0
C725 C 0.90098 0.67391 0.34657 0.0
C726 C 0.89972 0.69202 0.34474 0.0
H727 H 0.8455 0.72823 0.34427 0.0
H728 H 0.85732 0.70787 0.34315 0.0
H729 H 0.85083 0.7167 0.36397 0.0
H730 H 0.87384 0.70078 0.37992 0.0
H731 H 0.87574 0.66902 0.38301 0.0
H732 H 0.82387 0.35161 0.86811 0.0
H733 H 0.79198 0.35138 0.86678 0.0
H734 H 0.78976 0.37919 0.91589 0.0
H735 H 0.82175 0.37982 0.91717 0.0
H736 H 0.7682 0.33716 0.88932 0.0
H737 H 0.75905 0.40895 0.88432 0.0
H738 H 0.78006 0.39866 0.88143 0.0
H739 H 0.77155 0.40231 0.90304 0.0
C740 C 0.81662 0.35772 0.87864 0.0
C741 C 0.82534 0.36583 0.89272 0.0
C742 C 0.7984 0.35755 0.87785 0.0
C743 C 0.78853 0.36549 0.8911 0.0
C744 C 0.79716 0.37333 0.90534 0.0
H745 H 0.67747 0.34895 0.90865 0.0
H746 H 0.70938 0.34892 0.91034 0.0
C747 C 0.81543 0.37359 0.9061 0.0
C748 C 0.7692 0.36531 0.89003 0.0
H749 H 0.73343 0.39179 0.88813 0.0
C750 C 0.76058 0.3491 0.88904 0.0
C751 C 0.75935 0.38091 0.88939 0.0
C752 C 0.76795 0.3987 0.88943 0.0
C753 C 0.74232 0.34805 0.88759 0.0
C754 C 0.73243 0.36364 0.88751 0.0
C755 C 0.74106 0.37986 0.88833 0.0
C756 C 0.7131 0.36346 0.88641 0.0
C757 C 0.73383 0.33028 0.88578 0.0
C758 C 0.70461 0.372 0.8726 0.0
C759 C 0.68637 0.37221 0.87169 0.0
C760 C 0.6763 0.36389 0.8846 0.0
C761 C 0.68485 0.35536 0.89843 0.0
C762 C 0.70309 0.35524 0.89937 0.0
H763 H 0.74329 0.32026 0.88123 0.0
H764 H 0.72879 0.32611 0.89871 0.0
H765 H 0.72268 0.33066 0.87648 0.0
H766 H 0.71212 0.37848 0.8625 0.0
H767 H 0.68018 0.37891 0.86089 0.0
H768 H 0.10033 0.68628 0.60238 0.0
H769 H 0.10185 0.71824 0.60307 0.0
H770 H 0.15697 0.71576 0.61478 0.0
H771 H 0.15559 0.68384 0.61432 0.0
H772 H 0.13821 0.73879 0.63639 0.0
H773 H 0.12433 0.75012 0.56602 0.0
H774 H 0.1086 0.7366 0.57705 0.0
H775 H 0.13066 0.72903 0.57442 0.0
C776 C 0.1128 0.69252 0.60504 0.0
C777 C 0.12786 0.68252 0.60823 0.0
C778 C 0.11365 0.71078 0.60534 0.0
C779 C 0.12957 0.71931 0.60875 0.0
C780 C 0.14458 0.70938 0.61205 0.0
H781 H 0.15635 0.82816 0.59353 0.0
H782 H 0.1545 0.79624 0.59284 0.0
C783 C 0.14376 0.69115 0.61175 0.0
C784 C 0.13054 0.73861 0.60929 0.0
H785 H 0.12531 0.77516 0.58439 0.0
C786 C 0.13541 0.74677 0.62504 0.0
C787 C 0.12706 0.74891 0.59438 0.0
C788 C 0.12252 0.74077 0.57695 0.0
C789 C 0.13673 0.76502 0.62633 0.0
C790 C 0.13283 0.77533 0.61153 0.0
C791 C 0.12814 0.76718 0.59574 0.0
C792 C 0.13386 0.79463 0.61208 0.0
C793 C 0.14258 0.7731 0.6434 0.0
C794 C 0.12274 0.80425 0.62302 0.0
C795 C 0.12377 0.82248 0.62347 0.0
C796 C 0.13589 0.83139 0.61291 0.0
C797 C 0.1469 0.8217 0.60185 0.0
C798 C 0.14585 0.80347 0.60141 0.0
H799 H 0.14902 0.76339 0.65203 0.0
H800 H 0.15181 0.7841 0.6411 0.0
H801 H 0.13102 0.77834 0.6504 0.0
H802 H 0.11319 0.79765 0.63113 0.0
H803 H 0.11504 0.82958 0.63207 0.0
H804 H 0.68392 0.63091 0.12148 0.0
H805 H 0.71589 0.63074 0.12128 0.0
H806 H 0.71624 0.60614 0.1719 0.0
H807 H 0.68421 0.60616 0.17223 0.0
H808 H 0.73957 0.64601 0.14694 0.0
H809 H 0.74658 0.57391 0.14009 0.0
H810 H 0.72638 0.58512 0.1353 0.0
H811 H 0.73274 0.58135 0.15757 0.0
C812 C 0.69077 0.62544 0.13258 0.0
C813 C 0.68153 0.61846 0.14684 0.0
C814 C 0.70903 0.6254 0.13244 0.0
C815 C 0.71836 0.61827 0.14648 0.0
C816 C 0.70922 0.61149 0.16084 0.0
H817 H 0.82916 0.60023 0.16296 0.0
H818 H 0.79745 0.6025 0.16614 0.0
C819 C 0.69094 0.61157 0.16103 0.0
C820 C 0.73768 0.61794 0.14603 0.0
H821 H 0.77254 0.59036 0.14339 0.0
C822 C 0.74682 0.63387 0.14617 0.0
C823 C 0.74701 0.60205 0.14507 0.0
C824 C 0.73774 0.5846 0.14436 0.0
C825 C 0.76516 0.63434 0.14553 0.0
C826 C 0.7745 0.61845 0.14433 0.0
C827 C 0.76533 0.60252 0.14432 0.0
C828 C 0.7938 0.61798 0.14281 0.0
C829 C 0.77435 0.65181 0.14644 0.0
C830 C 0.80225 0.62592 0.1286 0.0
C831 C 0.82039 0.62472 0.12678 0.0
C832 C 0.83036 0.61538 0.13904 0.0
C833 C 0.82185 0.6075 0.15328 0.0
C834 C 0.80374 0.60878 0.15513 0.0
H835 H 0.76587 0.66203 0.15231 0.0
H836 H 0.7866 0.65096 0.15421 0.0
H837 H 0.77779 0.65605 0.13301 0.0
H838 H 0.79478 0.63274 0.11873 0.0
H839 H 0.82655 0.63083 0.11561 0.0
H840 H 0.8457 0.17487 0.60805 0.0
H841 H 0.84775 0.20676 0.60724 0.0
H842 H 0.89223 0.20524 0.64194 0.0
H843 H 0.8902 0.17335 0.64301 0.0
H844 H 0.86668 0.22967 0.65161 0.0
H845 H 0.88497 0.23606 0.58168 0.0
H846 H 0.86563 0.22324 0.58552 0.0
H847 H 0.88642 0.21563 0.59334 0.0
C848 C 0.85596 0.1813 0.61547 0.0
C849 C 0.86783 0.17157 0.62555 0.0
C850 C 0.85716 0.19951 0.61491 0.0
C851 C 0.8703 0.20829 0.62432 0.0
C852 C 0.88207 0.19866 0.63451 0.0
H853 H 0.90198 0.31687 0.61549 0.0
H854 H 0.90057 0.28491 0.61561 0.0
C855 C 0.88089 0.18045 0.63508 0.0
C856 C 0.87147 0.22758 0.62395 0.0
H857 H 0.87796 0.2623 0.5968 0.0
C858 C 0.86919 0.23683 0.63965 0.0
C859 C 0.87495 0.23681 0.60835 0.0
C860 C 0.8783 0.22746 0.59128 0.0
C861 C 0.87001 0.25514 0.64012 0.0
C862 C 0.87295 0.26439 0.62442 0.0
C863 C 0.87553 0.25514 0.60877 0.0
C864 C 0.87359 0.2837 0.62402 0.0
C865 C 0.86797 0.26443 0.65744 0.0
C866 C 0.85879 0.29353 0.62843 0.0
C867 C 0.85954 0.31177 0.62839 0.0
C868 C 0.87511 0.32048 0.62385 0.0
C869 C 0.88981 0.31057 0.6191 0.0
C870 C 0.88904 0.29232 0.61914 0.0
H871 H 0.87009 0.25547 0.66864 0.0
H872 H 0.87729 0.27555 0.65855 0.0
H873 H 0.85451 0.26971 0.65843 0.0
H874 H 0.84666 0.28708 0.63193 0.0
H875 H 0.84795 0.31902 0.63204 0.0
H876 H 0.31904 0.42115 0.11274 0.0
H877 H 0.28719 0.41903 0.10985 0.0
H878 H 0.28787 0.36905 0.13571 0.0
H879 H 0.31965 0.371 0.13868 0.0
H880 H 0.26868 0.37062 0.1026 0.0
H881 H 0.25011 0.42258 0.15015 0.0
H882 H 0.26639 0.42838 0.1342 0.0
H883 H 0.2713 0.41221 0.15041 0.0
C884 C 0.31241 0.40978 0.11794 0.0
C885 C 0.32187 0.39626 0.12596 0.0
C886 C 0.29422 0.40862 0.11631 0.0
C887 C 0.28525 0.39394 0.12266 0.0
C888 C 0.29461 0.38049 0.13076 0.0
H889 H 0.17497 0.37611 0.1383 0.0
H890 H 0.20682 0.37774 0.14058 0.0
C891 C 0.31276 0.38167 0.13249 0.0
C892 C 0.26612 0.39231 0.12043 0.0
H893 H 0.22725 0.40959 0.13372 0.0
C894 C 0.25959 0.37913 0.10937 0.0
C895 C 0.25439 0.40338 0.12941 0.0
C896 C 0.26081 0.41738 0.14183 0.0
C897 C 0.24153 0.37681 0.10694 0.0
C898 C 0.22981 0.38801 0.11577 0.0
C899 C 0.23634 0.40111 0.12692 0.0
C900 C 0.21067 0.38614 0.1139 0.0
C901 C 0.23507 0.36226 0.09521 0.0
C902 C 0.20237 0.39023 0.09808 0.0
C903 C 0.18415 0.38937 0.09671 0.0
C904 C 0.17397 0.38437 0.11117 0.0
C905 C 0.18241 0.37995 0.12689 0.0
C906 C 0.2006 0.38092 0.12826 0.0
H907 H 0.24562 0.35288 0.09186 0.0
H908 H 0.2242 0.35501 0.10156 0.0
H909 H 0.22997 0.36792 0.08288 0.0
H910 H 0.20997 0.39446 0.08691 0.0
H911 H 0.17804 0.3929 0.08445 0.0
H912 H 0.39788 0.09803 0.17909 0.0
H913 H 0.4003 0.09924 0.21099 0.0
H914 H 0.36054 0.13905 0.21271 0.0
H915 H 0.35791 0.13787 0.18088 0.0
H916 H 0.40917 0.12937 0.23116 0.0
H917 H 0.34391 0.10273 0.24886 0.0
H918 H 0.3533 0.09998 0.22738 0.0
H919 H 0.34344 0.12041 0.23346 0.0
C920 C 0.38951 0.10691 0.18626 0.0
C921 C 0.37767 0.11782 0.17746 0.0
C922 C 0.39095 0.1076 0.20447 0.0
C923 C 0.38047 0.11909 0.21417 0.0
C924 C 0.36853 0.12988 0.20546 0.0
H925 H 0.37024 0.14695 0.32324 0.0
H926 H 0.36846 0.14509 0.29138 0.0
C927 C 0.3671 0.12923 0.18726 0.0
C928 C 0.38256 0.12036 0.23335 0.0
H929 H 0.36073 0.11524 0.27186 0.0
C930 C 0.39864 0.12619 0.2401 0.0
C931 C 0.36875 0.11625 0.2449 0.0
C932 C 0.35141 0.10935 0.23834 0.0
C933 C 0.40118 0.12837 0.25815 0.0
C934 C 0.38734 0.12432 0.2697 0.0
C935 C 0.37129 0.1184 0.26294 0.0
C936 C 0.38919 0.12607 0.28888 0.0
C937 C 0.41847 0.13542 0.26465 0.0
C938 C 0.40147 0.116 0.29801 0.0
C939 C 0.40258 0.11708 0.31622 0.0
C940 C 0.3913 0.12813 0.32562 0.0
C941 C 0.37913 0.13833 0.3164 0.0
C942 C 0.37807 0.13726 0.2982 0.0
H943 H 0.42589 0.1421 0.25411 0.0
H944 H 0.41655 0.14478 0.27562 0.0
H945 H 0.42655 0.12443 0.26949 0.0
H946 H 0.40995 0.10703 0.29108 0.0
H947 H 0.41201 0.10897 0.32293 0.0
H948 H 0.36122 0.9141 0.68191 0.0
H949 H 0.3625 0.91544 0.71383 0.0
H950 H 0.39011 0.86637 0.71476 0.0
H951 H 0.38922 0.86508 0.68285 0.0
H952 H 0.3491 0.89277 0.73786 0.0
H953 H 0.42112 0.89742 0.74502 0.0
H954 H 0.41016 0.90062 0.72437 0.0
H955 H 0.41422 0.87888 0.73227 0.0
C956 C 0.36763 0.90362 0.6889 0.0
C957 C 0.37521 0.88952 0.67985 0.0
C958 C 0.36834 0.90442 0.70713 0.0
C959 C 0.37667 0.89117 0.71663 0.0
C960 C 0.38401 0.87695 0.70766 0.0
H961 H 0.36379 0.86375 0.82483 0.0
H962 H 0.36279 0.86619 0.79305 0.0
C963 C 0.38338 0.87618 0.68942 0.0
C964 C 0.37719 0.89194 0.73596 0.0
H965 H 0.40494 0.89121 0.77096 0.0
C966 C 0.3613 0.89256 0.7451 0.0
C967 C 0.39314 0.89195 0.74537 0.0
C968 C 0.41063 0.89236 0.73627 0.0
C969 C 0.36092 0.89266 0.76343 0.0
C970 C 0.37684 0.89178 0.77283 0.0
C971 C 0.39274 0.8917 0.7637 0.0
C972 C 0.37727 0.89053 0.79212 0.0
C973 C 0.34348 0.89383 0.77256 0.0
C974 C 0.38613 0.9032 0.80212 0.0
C975 C 0.38686 0.90178 0.82032 0.0
C976 C 0.37881 0.88761 0.82881 0.0
C977 C 0.37002 0.8749 0.81872 0.0
C978 C 0.36934 0.87632 0.80055 0.0
H979 H 0.33329 0.89951 0.76392 0.0
H980 H 0.33913 0.8805 0.77629 0.0
H981 H 0.34443 0.9019 0.78463 0.0
H982 H 0.39244 0.91421 0.79582 0.0
H983 H 0.39376 0.91176 0.82771 0.0
H984 H 0.60826 0.91159 0.17762 0.0
H985 H 0.60596 0.91027 0.2095 0.0
H986 H 0.64406 0.86884 0.21055 0.0
H987 H 0.64658 0.87014 0.17876 0.0
H988 H 0.59568 0.88054 0.22883 0.0
H989 H 0.66205 0.90333 0.24786 0.0
H990 H 0.65303 0.90686 0.22632 0.0
H991 H 0.66194 0.88592 0.23203 0.0
C992 C 0.61632 0.90235 0.18465 0.0
C993 C 0.62763 0.89098 0.17566 0.0
C994 C 0.61496 0.9016 0.20285 0.0
C995 C 0.62498 0.88959 0.21235 0.0
C996 C 0.63645 0.87842 0.20346 0.0
H997 H 0.6337 0.85551 0.31915 0.0
H998 H 0.63545 0.85945 0.28751 0.0
C999 C 0.63781 0.87913 0.18528 0.0
C1000 C 0.62274 0.88802 0.23148 0.0
H1001 H 0.64482 0.8903 0.27022 0.0
C1002 C 0.60636 0.88282 0.23792 0.0
C1003 C 0.63673 0.89096 0.24324 0.0
C1004 C 0.6544 0.89723 0.23707 0.0
C1005 C 0.60372 0.87998 0.25584 0.0
C1006 C 0.61778 0.88272 0.26758 0.0
C1007 C 0.63409 0.88814 0.26115 0.0
C1008 C 0.61594 0.87985 0.2866 0.0
C1009 C 0.58608 0.87358 0.26199 0.0
C1010 C 0.60435 0.89 0.29653 0.0
C1011 C 0.60326 0.88774 0.31461 0.0
C1012 C 0.61386 0.87538 0.32308 0.0
C1013 C 0.62533 0.86512 0.31304 0.0
C1014 C 0.62638 0.86737 0.29497 0.0
H1015 H 0.57817 0.86808 0.25107 0.0
H1016 H 0.58755 0.86342 0.27221 0.0
H1017 H 0.57875 0.88469 0.26773 0.0
H1018 H 0.59641 0.89992 0.29034 0.0
H1019 H 0.59438 0.89593 0.32198 0.0
H1020 H 0.59686 0.08682 0.83072 0.0
H1021 H 0.59445 0.08597 0.79877 0.0
H1022 H 0.63315 0.12692 0.79491 0.0
H1023 H 0.63575 0.12783 0.82671 0.0
H1024 H 0.58532 0.11426 0.77612 0.0
H1025 H 0.65148 0.08819 0.76201 0.0
H1026 H 0.64153 0.08681 0.78336 0.0
H1027 H 0.6514 0.10692 0.77624 0.0
C1028 C 0.60494 0.09557 0.82306 0.0
C1029 C 0.61656 0.10734 0.83125 0.0
C1030 C 0.60352 0.09508 0.80484 0.0
C1031 C 0.6138 0.10621 0.79453 0.0
C1032 C 0.62534 0.118 0.80265 0.0
H1033 H 0.62809 0.13216 0.68667 0.0
H1034 H 0.62823 0.12979 0.71849 0.0
C1035 C 0.62674 0.11855 0.82083 0.0
C1036 C 0.61217 0.10593 0.77528 0.0
H1037 H 0.6356 0.09971 0.73788 0.0
C1038 C 0.59622 0.11091 0.76771 0.0
C1039 C 0.62645 0.10155 0.76443 0.0
C1040 C 0.64365 0.09541 0.77188 0.0
C1041 C 0.59438 0.11225 0.7495 0.0
C1042 C 0.60879 0.10822 0.73866 0.0
C1043 C 0.62461 0.10287 0.74625 0.0
C1044 C 0.60799 0.10997 0.71943 0.0
C1045 C 0.57726 0.11856 0.74204 0.0
C1046 C 0.59655 0.09959 0.70943 0.0
C1047 C 0.59639 0.10094 0.6912 0.0
C1048 C 0.60778 0.11261 0.6827 0.0
C1049 C 0.61915 0.12304 0.6928 0.0
C1050 C 0.61927 0.1217 0.71098 0.0
H1051 H 0.56895 0.12484 0.75216 0.0
H1052 H 0.57953 0.12807 0.73133 0.0
H1053 H 0.56993 0.10726 0.73654 0.0
H1054 H 0.58796 0.09024 0.7157 0.0
H1055 H 0.58754 0.09266 0.68379 0.0
H1056 H 0.85734 0.81734 0.59568 0.0
H1057 H 0.85872 0.78545 0.59752 0.0
H1058 H 0.90004 0.78962 0.63578 0.0
H1059 H 0.89864 0.8215 0.6342 0.0
H1060 H 0.88746 0.76378 0.59074 0.0
H1061 H 0.86459 0.75686 0.6592 0.0
H1062 H 0.86187 0.77677 0.64689 0.0
H1063 H 0.88265 0.7717 0.65662 0.0
C1064 C 0.86668 0.81149 0.60455 0.0
C1065 C 0.87783 0.82195 0.61486 0.0
C1066 C 0.86744 0.79327 0.60557 0.0
C1067 C 0.87929 0.78522 0.61698 0.0
C1068 C 0.89055 0.7956 0.62716 0.0
H1069 H 0.9109 0.68003 0.64057 0.0
H1070 H 0.90687 0.71164 0.63865 0.0
C1071 C 0.8898 0.81382 0.62616 0.0
C1072 C 0.88023 0.76593 0.61785 0.0
H1073 H 0.87636 0.73141 0.64574 0.0
C1074 C 0.8849 0.75666 0.60271 0.0
C1075 C 0.87687 0.75674 0.6335 0.0
C1076 C 0.87106 0.76598 0.64995 0.0
C1077 C 0.88679 0.73842 0.60293 0.0
C1078 C 0.88364 0.72926 0.61864 0.0
C1079 C 0.87878 0.73851 0.63373 0.0
C1080 C 0.88577 0.71009 0.61982 0.0
C1081 C 0.89263 0.72916 0.5865 0.0
C1082 C 0.87506 0.69878 0.61003 0.0
C1083 C 0.87733 0.68069 0.61107 0.0
C1084 C 0.89031 0.67363 0.622 0.0
C1085 C 0.90083 0.68503 0.63198 0.0
C1086 C 0.89853 0.7031 0.63093 0.0
H1087 H 0.89825 0.73838 0.57681 0.0
H1088 H 0.90254 0.71903 0.58954 0.0
H1089 H 0.88121 0.72255 0.58036 0.0
H1090 H 0.86493 0.70395 0.60161 0.0
H1091 H 0.86897 0.67225 0.60328 0.0
H1092 H 0.81341 0.39109 0.15755 0.0
H1093 H 0.78138 0.39064 0.15689 0.0
H1094 H 0.78238 0.34657 0.12159 0.0
H1095 H 0.81434 0.34689 0.12212 0.0
H1096 H 0.75975 0.39316 0.1252 0.0
H1097 H 0.74903 0.33174 0.16239 0.0
H1098 H 0.76924 0.34402 0.16351 0.0
H1099 H 0.76463 0.33043 0.14486 0.0
C1100 C 0.80682 0.38124 0.14972 0.0
C1101 C 0.81641 0.369 0.13991 0.0
C1102 C 0.78855 0.38102 0.14936 0.0
C1103 C 0.7796 0.36845 0.13935 0.0
C1104 C 0.7891 0.3562 0.12959 0.0
H1105 H 0.67267 0.34237 0.11496 0.0
H1106 H 0.70443 0.34371 0.1184 0.0
C1107 C 0.80735 0.35647 0.12985 0.0
C1108 C 0.76031 0.36847 0.13858 0.0
H1109 H 0.72427 0.34403 0.14841 0.0
C1110 C 0.75193 0.38252 0.13039 0.0
C1111 C 0.75027 0.3545 0.1453 0.0
C1112 C 0.75869 0.33935 0.15465 0.0
C1113 C 0.7337 0.38273 0.12828 0.0
C1114 C 0.72363 0.3687 0.13493 0.0
C1115 C 0.73204 0.35475 0.14332 0.0
C1116 C 0.70438 0.36802 0.13298 0.0
C1117 C 0.72548 0.39767 0.11843 0.0
C1118 C 0.69383 0.38114 0.14022 0.0
C1119 C 0.67568 0.38049 0.13818 0.0
C1120 C 0.66776 0.36657 0.12902 0.0
C1121 C 0.67836 0.35329 0.12205 0.0
C1122 C 0.69651 0.35401 0.12402 0.0
H1123 H 0.73521 0.40478 0.11032 0.0
H1124 H 0.71475 0.39295 0.1098 0.0
H1125 H 0.71989 0.40712 0.12792 0.0
H1126 H 0.69962 0.39185 0.14753 0.0
H1127 H 0.66786 0.39084 0.14383 0.0
H1128 H 0.09878 0.18899 0.60158 0.0
H1129 H 0.10183 0.22069 0.60472 0.0
H1130 H 0.12649 0.21376 0.65497 0.0
H1131 H 0.12379 0.18205 0.65184 0.0
H1132 H 0.08926 0.24325 0.63023 0.0
H1133 H 0.16189 0.24391 0.62879 0.0
H1134 H 0.14916 0.22497 0.62254 0.0
H1135 H 0.15267 0.22999 0.64526 0.0
C1136 C 0.10481 0.1942 0.61333 0.0
C1137 C 0.11118 0.183 0.6264 0.0
C1138 C 0.10655 0.21231 0.61509 0.0
C1139 C 0.1147 0.21952 0.62991 0.0
C1140 C 0.12054 0.20842 0.64324 0.0
H1141 H 0.13565 0.32622 0.66335 0.0
H1142 H 0.13297 0.29436 0.66123 0.0
C1143 C 0.11888 0.19031 0.64147 0.0
C1144 C 0.11701 0.23868 0.63142 0.0
H1145 H 0.14793 0.27082 0.63524 0.0
C1146 C 0.10208 0.24929 0.63127 0.0
C1147 C 0.13377 0.2465 0.63277 0.0
C1148 C 0.15031 0.23579 0.63219 0.0
C1149 C 0.10345 0.26754 0.63265 0.0
C1150 C 0.1202 0.27532 0.63399 0.0
C1151 C 0.13513 0.26474 0.63424 0.0
C1152 C 0.12245 0.29449 0.63496 0.0
C1153 C 0.08697 0.27834 0.63291 0.0
C1154 C 0.1178 0.30499 0.62073 0.0
C1155 C 0.11937 0.32315 0.62185 0.0
C1156 C 0.12563 0.33112 0.63726 0.0
C1157 C 0.13073 0.3205 0.65133 0.0
C1158 C 0.12921 0.30232 0.65016 0.0
H1159 H 0.07522 0.27026 0.63572 0.0
H1160 H 0.08793 0.28893 0.64285 0.0
H1161 H 0.08514 0.28452 0.61993 0.0
H1162 H 0.11283 0.29913 0.60879 0.0
H1163 H 0.11539 0.33094 0.61075 0.0
H1164 H 0.18482 0.61756 0.14178 0.0
H1165 H 0.21675 0.61976 0.14207 0.0
H1166 H 0.21454 0.66048 0.10331 0.0
H1167 H 0.18258 0.65839 0.10286 0.0
H1168 H 0.23946 0.61595 0.11089 0.0
H1169 H 0.24556 0.68032 0.14462 0.0
H1170 H 0.2261 0.66692 0.1461 0.0
H1171 H 0.23048 0.67905 0.12655 0.0
C1172 C 0.1911 0.62704 0.13336 0.0
C1173 C 0.18118 0.63782 0.12231 0.0
C1174 C 0.20932 0.62826 0.13354 0.0
C1175 C 0.21789 0.64039 0.12284 0.0
C1176 C 0.20808 0.65119 0.11181 0.0
H1177 H 0.3272 0.66707 0.10757 0.0
H1178 H 0.29521 0.66611 0.10731 0.0
C1179 C 0.18985 0.64992 0.11153 0.0
C1180 C 0.23717 0.64135 0.12284 0.0
H1181 H 0.27164 0.66739 0.1344 0.0
C1182 C 0.24654 0.62715 0.11605 0.0
C1183 C 0.24624 0.65606 0.12949 0.0
C1184 C 0.23666 0.67145 0.13723 0.0
C1185 C 0.26487 0.62735 0.11556 0.0
C1186 C 0.274 0.64195 0.12247 0.0
C1187 C 0.26459 0.6562 0.12916 0.0
C1188 C 0.29334 0.64265 0.12293 0.0
C1189 C 0.27425 0.61207 0.10731 0.0
C1190 C 0.30283 0.62996 0.13208 0.0
C1191 C 0.32108 0.6304 0.13216 0.0
C1192 C 0.33016 0.64368 0.12328 0.0
C1193 C 0.3206 0.65664 0.1145 0.0
C1194 C 0.30233 0.65613 0.11434 0.0
H1195 H 0.26554 0.60458 0.09835 0.0
H1196 H 0.2859 0.6165 0.09986 0.0
H1197 H 0.2787 0.60306 0.11773 0.0
H1198 H 0.29612 0.6197 0.13916 0.0
H1199 H 0.32807 0.62031 0.13918 0.0
H1200 H 0.89375 0.17103 0.3773 0.0
H1201 H 0.89559 0.20292 0.37554 0.0
H1202 H 0.83957 0.20575 0.36967 0.0
H1203 H 0.83757 0.17389 0.37124 0.0
H1204 H 0.85867 0.22676 0.3458 0.0
H1205 H 0.88005 0.2369 0.41462 0.0
H1206 H 0.89306 0.22182 0.40217 0.0
H1207 H 0.87067 0.21656 0.40697 0.0
C1208 C 0.88181 0.17843 0.37563 0.0
C1209 C 0.86549 0.16993 0.3745 0.0
C1210 C 0.88289 0.19664 0.3747 0.0
C1211 C 0.86769 0.20665 0.3727 0.0
C1212 C 0.85143 0.19822 0.37127 0.0
H1213 H 0.85159 0.31661 0.391 0.0
H1214 H 0.85108 0.28467 0.39088 0.0
C1215 C 0.85033 0.18002 0.37221 0.0
C1216 C 0.86868 0.22594 0.37211 0.0
H1217 H 0.87939 0.26188 0.39648 0.0
C1218 C 0.86322 0.23447 0.35685 0.0
C1219 C 0.87444 0.23589 0.38664 0.0
C1220 C 0.87976 0.22739 0.4036 0.0
C1221 C 0.86346 0.25278 0.3557 0.0
C1222 C 0.8695 0.26271 0.37013 0.0
C1223 C 0.87489 0.25417 0.38541 0.0
C1224 C 0.86981 0.28203 0.36988 0.0
C1225 C 0.85686 0.26135 0.33923 0.0
C1226 C 0.88062 0.29109 0.35817 0.0
C1227 C 0.88094 0.30936 0.35818 0.0
C1228 C 0.8705 0.31885 0.36996 0.0
C1229 C 0.85976 0.3097 0.38173 0.0
C1230 C 0.85946 0.29145 0.38171 0.0
H1231 H 0.84909 0.25215 0.33102 0.0
H1232 H 0.84865 0.27288 0.34239 0.0
H1233 H 0.86818 0.26593 0.3314 0.0
H1234 H 0.88892 0.28402 0.34914 0.0
H1235 H 0.88941 0.31603 0.34901 0.0
H1236 H 0.17331 0.37865 0.89508 0.0
H1237 H 0.20527 0.37856 0.89615 0.0
H1238 H 0.20721 0.3962 0.84269 0.0
H1239 H 0.17526 0.39672 0.84162 0.0
H1240 H 0.22889 0.36034 0.87668 0.0
H1241 H 0.2383 0.43167 0.86737 0.0
H1242 H 0.21727 0.42214 0.87234 0.0
H1243 H 0.22564 0.42142 0.85039 0.0
C1244 C 0.18053 0.38253 0.88355 0.0
C1245 C 0.17176 0.38781 0.8683 0.0
C1246 C 0.19878 0.38246 0.88419 0.0
C1247 C 0.20859 0.38767 0.8696 0.0
C1248 C 0.19988 0.39255 0.85423 0.0
H1249 H 0.31959 0.36679 0.85582 0.0
H1250 H 0.28775 0.36762 0.85299 0.0
C1251 C 0.18162 0.39274 0.85361 0.0
C1252 C 0.22794 0.38776 0.87046 0.0
H1253 H 0.26383 0.41411 0.86639 0.0
C1254 C 0.23654 0.37209 0.87446 0.0
C1255 C 0.23786 0.40317 0.86778 0.0
C1256 C 0.22931 0.4206 0.8644 0.0
C1257 C 0.25483 0.37138 0.87572 0.0
C1258 C 0.26477 0.38667 0.8725 0.0
C1259 C 0.25617 0.40237 0.86865 0.0
C1260 C 0.28411 0.38675 0.87357 0.0
C1261 C 0.26329 0.35435 0.88089 0.0
C1262 C 0.29265 0.39774 0.88561 0.0
C1263 C 0.31085 0.39745 0.88713 0.0
C1264 C 0.32083 0.38616 0.87662 0.0
C1265 C 0.31226 0.37551 0.86423 0.0
C1266 C 0.29406 0.37589 0.86266 0.0
H1267 H 0.25384 0.3454 0.88734 0.0
H1268 H 0.26827 0.34768 0.869 0.0
H1269 H 0.27448 0.35664 0.88989 0.0
H1270 H 0.28519 0.4063 0.89408 0.0
H1271 H 0.31706 0.40585 0.89677 0.0
H1272 H 0.16405 0.82488 0.35714 0.0
H1273 H 0.16058 0.79316 0.35556 0.0
H1274 H 0.10518 0.7984 0.36458 0.0
H1275 H 0.10852 0.8302 0.36636 0.0
H1276 H 0.12137 0.773 0.3855 0.0
H1277 H 0.13842 0.76472 0.31548 0.0
H1278 H 0.15438 0.77685 0.32784 0.0
H1279 H 0.13281 0.78566 0.32488 0.0
C1280 C 0.1511 0.81932 0.35871 0.0
C1281 C 0.13655 0.83007 0.36181 0.0
C1282 C 0.14914 0.80119 0.35771 0.0
C1283 C 0.13259 0.79349 0.35969 0.0
C1284 C 0.11804 0.80414 0.36291 0.0
H1285 H 0.11023 0.68389 0.33715 0.0
H1286 H 0.10942 0.71585 0.33823 0.0
C1287 C 0.11998 0.82229 0.3639 0.0
C1288 C 0.1306 0.77427 0.35894 0.0
H1289 H 0.1373 0.7388 0.33265 0.0
C1290 C 0.12472 0.7655 0.37391 0.0
C1291 C 0.13477 0.7646 0.34373 0.0
C1292 C 0.14029 0.77342 0.327 0.0
C1293 C 0.12341 0.74721 0.37425 0.0
C1294 C 0.12833 0.7375 0.3593 0.0
C1295 C 0.13369 0.7463 0.34415 0.0
C1296 C 0.12835 0.71816 0.35917 0.0
C1297 C 0.1167 0.73844 0.39057 0.0
C1298 C 0.13935 0.70893 0.37052 0.0
C1299 C 0.13986 0.69069 0.36995 0.0
C1300 C 0.12943 0.68137 0.35793 0.0
C1301 C 0.1184 0.69067 0.34658 0.0
C1302 C 0.11792 0.70892 0.34716 0.0
H1303 H 0.10911 0.74763 0.39887 0.0
H1304 H 0.10828 0.72703 0.38728 0.0
H1305 H 0.12796 0.7337 0.39838 0.0
H1306 H 0.14776 0.71585 0.37964 0.0
H1307 H 0.14855 0.68392 0.37882 0.0
H1308 H 0.81796 0.58512 0.88845 0.0
H1309 H 0.78671 0.59169 0.8886 0.0
H1310 H 0.79795 0.6454 0.87564 0.0
H1311 H 0.82926 0.63892 0.87523 0.0
H1312 H 0.76802 0.61611 0.90865 0.0
H1313 H 0.76315 0.62975 0.83746 0.0
H1314 H 0.7818 0.61899 0.84707 0.0
H1315 H 0.77943 0.64228 0.84901 0.0
C1316 C 0.81382 0.59835 0.88566 0.0
C1317 C 0.82609 0.61147 0.88171 0.0
C1318 C 0.79596 0.60207 0.88577 0.0
C1319 C 0.79005 0.61895 0.88188 0.0
C1320 C 0.80226 0.63221 0.87836 0.0
H1321 H 0.68311 0.65464 0.89909 0.0
H1322 H 0.71499 0.65194 0.89914 0.0
C1323 C 0.82014 0.6285 0.87823 0.0
C1324 C 0.77107 0.62257 0.88146 0.0
H1325 H 0.73766 0.6343 0.85432 0.0
C1326 C 0.76136 0.62015 0.89681 0.0
C1327 C 0.76247 0.62763 0.86591 0.0
C1328 C 0.77217 0.62969 0.84887 0.0
C1329 C 0.7432 0.62265 0.89703 0.0
C1330 C 0.73463 0.62796 0.88154 0.0
C1331 C 0.74434 0.63038 0.86619 0.0
C1332 C 0.71546 0.63031 0.88084 0.0
C1333 C 0.73327 0.61912 0.91369 0.0
C1334 C 0.70527 0.6194 0.8701 0.0
C1335 C 0.68708 0.62095 0.86996 0.0
C1336 C 0.67878 0.63351 0.88053 0.0
C1337 C 0.68909 0.64476 0.89089 0.0
C1338 C 0.70729 0.64319 0.89101 0.0
H1339 H 0.74115 0.61146 0.92316 0.0
H1340 H 0.72981 0.63175 0.91997 0.0
H1341 H 0.72095 0.61189 0.91092 0.0
H1342 H 0.71137 0.60942 0.86211 0.0
H1343 H 0.67953 0.61211 0.8618 0.0
H1344 H 0.64253 0.87932 0.81144 0.0
H1345 H 0.64267 0.88208 0.77963 0.0
H1346 H 0.60339 0.92228 0.78285 0.0
H1347 H 0.60305 0.91955 0.81473 0.0
H1348 H 0.59582 0.8954 0.75849 0.0
H1349 H 0.66283 0.92201 0.74963 0.0
H1350 H 0.66187 0.90261 0.76276 0.0
H1351 H 0.6517 0.92235 0.77044 0.0
C1352 C 0.63403 0.88887 0.80542 0.0
C1353 C 0.6228 0.89925 0.81562 0.0
C1354 C 0.63419 0.89048 0.78725 0.0
C1355 C 0.6232 0.90253 0.77895 0.0
C1356 C 0.61204 0.91297 0.78906 0.0
H1357 H 0.62932 0.92722 0.66791 0.0
H1358 H 0.62741 0.92933 0.69977 0.0
C1359 C 0.61189 0.91141 0.80726 0.0
C1360 C 0.62278 0.90359 0.75965 0.0
H1361 H 0.64835 0.91148 0.72401 0.0
C1362 C 0.60724 0.89906 0.75093 0.0
C1363 C 0.63765 0.90855 0.74988 0.0
C1364 C 0.65442 0.91432 0.75863 0.0
C1365 C 0.60635 0.89883 0.73261 0.0
C1366 C 0.62146 0.90304 0.72283 0.0
C1367 C 0.63683 0.90811 0.73157 0.0
C1368 C 0.62175 0.90187 0.70353 0.0
C1369 C 0.58926 0.89409 0.72386 0.0
C1370 C 0.61925 0.88571 0.69515 0.0
C1371 C 0.62034 0.88444 0.67697 0.0
C1372 C 0.62405 0.89931 0.66685 0.0
C1373 C 0.62642 0.91552 0.67531 0.0
C1374 C 0.62535 0.91676 0.6935 0.0
H1375 H 0.578 0.89583 0.73285 0.0
H1376 H 0.58708 0.90216 0.71202 0.0
H1377 H 0.58962 0.88016 0.71979 0.0
H1378 H 0.61677 0.87401 0.7027 0.0
H1379 H 0.6185 0.87175 0.67087 0.0
H1380 H 0.65149 0.16485 0.18087 0.0
H1381 H 0.6524 0.16532 0.21283 0.0
H1382 H 0.62738 0.11471 0.21415 0.0
H1383 H 0.6266 0.11399 0.18222 0.0
H1384 H 0.62382 0.16362 0.23548 0.0
H1385 H 0.66942 0.10852 0.24673 0.0
H1386 H 0.66711 0.11896 0.22572 0.0
H1387 H 0.65128 0.10305 0.23278 0.0
C1388 C 0.64634 0.15373 0.18794 0.0
C1389 C 0.63902 0.13935 0.179 0.0
C1390 C 0.64685 0.15405 0.2062 0.0
C1391 C 0.64016 0.13996 0.21582 0.0
C1392 C 0.63293 0.12556 0.20695 0.0
H1393 H 0.62056 0.11538 0.3234 0.0
H1394 H 0.62234 0.11679 0.29158 0.0
C1395 C 0.63242 0.12521 0.1887 0.0
C1396 C 0.64002 0.14065 0.23514 0.0
H1397 H 0.65378 0.11899 0.27155 0.0
C1398 C 0.6305 0.15398 0.2434 0.0
C1399 C 0.64877 0.12804 0.24538 0.0
C1400 C 0.65986 0.11392 0.23723 0.0
C1401 C 0.62902 0.15471 0.26167 0.0
C1402 C 0.6375 0.14191 0.27188 0.0
C1403 C 0.64725 0.12875 0.26364 0.0
C1404 C 0.63602 0.14159 0.29114 0.0
C1405 C 0.61798 0.16882 0.2699 0.0
C1406 C 0.64314 0.1551 0.30139 0.0
C1407 C 0.64215 0.15436 0.31963 0.0
C1408 C 0.63407 0.14005 0.32787 0.0
C1409 C 0.62685 0.12661 0.31749 0.0
C1410 C 0.62788 0.12736 0.2993 0.0
H1411 H 0.60947 0.17539 0.26015 0.0
H1412 H 0.60962 0.16333 0.28041 0.0
H1413 H 0.62666 0.17886 0.27587 0.0
H1414 H 0.6497 0.16607 0.2953 0.0
H1415 H 0.6479 0.16488 0.32725 0.0
H1416 H 0.35442 0.0974 0.68157 0.0
H1417 H 0.35632 0.09871 0.71351 0.0
H1418 H 0.3951 0.13962 0.70988 0.0
H1419 H 0.39319 0.13856 0.67801 0.0
H1420 H 0.38601 0.09409 0.73541 0.0
H1421 H 0.35753 0.16048 0.74229 0.0
H1422 H 0.35568 0.14778 0.72241 0.0
H1423 H 0.37569 0.15912 0.72749 0.0
C1424 C 0.36336 0.10667 0.68756 0.0
C1425 C 0.37357 0.11795 0.67726 0.0
C1426 C 0.36442 0.10739 0.70579 0.0
C1427 C 0.37563 0.11945 0.714 0.0
C1428 C 0.38611 0.13046 0.70377 0.0
H1429 H 0.40095 0.14582 0.82122 0.0
H1430 H 0.39925 0.14364 0.78935 0.0
C1431 C 0.38506 0.12976 0.68556 0.0
C1432 C 0.37648 0.12045 0.73328 0.0
H1433 H 0.36957 0.14786 0.76788 0.0
C1434 C 0.38234 0.1058 0.74255 0.0
C1435 C 0.37169 0.13577 0.74248 0.0
C1436 C 0.36464 0.15165 0.73321 0.0
C1437 C 0.38388 0.10617 0.76082 0.0
C1438 C 0.37914 0.12151 0.77002 0.0
C1439 C 0.37323 0.13614 0.76075 0.0
C1440 C 0.38018 0.12266 0.78929 0.0
C1441 C 0.39093 0.0903 0.77011 0.0
C1442 C 0.36985 0.11174 0.79976 0.0
C1443 C 0.37079 0.11293 0.81796 0.0
C1444 C 0.38202 0.12516 0.82599 0.0
C1445 C 0.39221 0.13623 0.81544 0.0
C1446 C 0.39125 0.13502 0.79724 0.0
H1447 H 0.39797 0.08143 0.76102 0.0
H1448 H 0.39996 0.09418 0.78084 0.0
H1449 H 0.37989 0.08288 0.77591 0.0
H1450 H 0.36096 0.10236 0.79385 0.0
H1451 H 0.3627 0.10428 0.82571 0.0
H1452 H 0.33934 0.85436 0.17417 0.0
H1453 H 0.33913 0.8525 0.20612 0.0
H1454 H 0.38091 0.89044 0.2089 0.0
H1455 H 0.38118 0.89249 0.17705 0.0
H1456 H 0.36817 0.84265 0.22734 0.0
H1457 H 0.34419 0.90916 0.2437 0.0
H1458 H 0.34162 0.89954 0.22224 0.0
H1459 H 0.36229 0.90877 0.22876 0.0
C1460 C 0.34835 0.86246 0.18158 0.0
C1461 C 0.36026 0.8736 0.17308 0.0
C1462 C 0.34823 0.86135 0.19981 0.0
C1463 C 0.35987 0.87147 0.20982 0.0
C1464 C 0.37162 0.88275 0.2014 0.0
H1465 H 0.38805 0.88312 0.31819 0.0
H1466 H 0.38565 0.88418 0.28635 0.0
C1467 C 0.3718 0.88383 0.18319 0.0
C1468 C 0.3604 0.86964 0.22903 0.0
H1469 H 0.35587 0.89248 0.26713 0.0
C1470 C 0.36533 0.85347 0.23609 0.0
C1471 C 0.35674 0.88382 0.24032 0.0
C1472 C 0.35076 0.90127 0.23342 0.0
C1473 C 0.36722 0.85126 0.25419 0.0
C1474 C 0.36376 0.86552 0.26547 0.0
C1475 C 0.35858 0.8816 0.25841 0.0
C1476 C 0.36565 0.86415 0.28467 0.0
C1477 C 0.37342 0.83387 0.26104 0.0
C1478 C 0.3552 0.85251 0.29423 0.0
C1479 C 0.35659 0.8518 0.31243 0.0
C1480 C 0.36835 0.86286 0.32137 0.0
C1481 C 0.37888 0.87442 0.31171 0.0
C1482 C 0.37751 0.87507 0.29352 0.0
H1483 H 0.37962 0.82585 0.25063 0.0
H1484 H 0.38296 0.8357 0.27186 0.0
H1485 H 0.36206 0.82644 0.26619 0.0
H1486 H 0.34573 0.84421 0.28766 0.0
H1487 H 0.34821 0.84285 0.3195 0.0
H1488 H 0.07456 0.10624 0.57976 0.0
H1489 H 0.07174 0.10528 0.54783 0.0
H1490 H 0.12486 0.12365 0.54267 0.0
H1491 H 0.12783 0.12472 0.57443 0.0
H1492 H 0.0986 0.14281 0.52333 0.0
H1493 H 0.09555 0.07083 0.51228 0.0
H1494 H 0.08127 0.07983 0.52868 0.0
H1495 H 0.10449 0.08034 0.53204 0.0
C1496 C 0.08569 0.10992 0.57182 0.0
C1497 C 0.10141 0.11558 0.57963 0.0
C1498 C 0.08407 0.1093 0.55361 0.0
C1499 C 0.09813 0.11429 0.54297 0.0
C1500 C 0.11388 0.11971 0.55071 0.0
H1501 H 0.12469 0.10819 0.43496 0.0
H1502 H 0.1214 0.10466 0.46652 0.0
C1503 C 0.11554 0.12029 0.56886 0.0
C1504 C 0.09633 0.11476 0.52375 0.0
H1505 H 0.09321 0.08887 0.48742 0.0
C1506 C 0.09727 0.13105 0.51545 0.0
C1507 C 0.0947 0.09935 0.51362 0.0
C1508 C 0.09404 0.08154 0.52201 0.0
C1509 C 0.09691 0.13234 0.49719 0.0
C1510 C 0.09539 0.11693 0.48703 0.0
C1511 C 0.09422 0.10064 0.49532 0.0
C1512 C 0.09628 0.11752 0.46775 0.0
C1513 C 0.09877 0.15012 0.48887 0.0
C1514 C 0.08302 0.12555 0.45801 0.0
C1515 C 0.08485 0.1276 0.43995 0.0
C1516 C 0.1 0.12167 0.4314 0.0
C1517 C 0.11292 0.113 0.44116 0.0
C1518 C 0.11104 0.11091 0.45918 0.0
H1519 H 0.1028 0.16031 0.49847 0.0
H1520 H 0.10855 0.14973 0.47815 0.0
H1521 H 0.08604 0.15403 0.48313 0.0
H1522 H 0.07145 0.13057 0.46443 0.0
H1523 H 0.07462 0.13424 0.4328 0.0
H1524 H 0.4278 0.63929 0.92683 0.0
H1525 H 0.4302 0.63803 0.95879 0.0
H1526 H 0.38477 0.60448 0.96066 0.0
H1527 H 0.38245 0.60538 0.92896 0.0
H1528 H 0.40564 0.64934 0.98217 0.0
H1529 H 0.41816 0.57906 0.99268 0.0
H1530 H 0.42081 0.58931 0.97161 0.0
H1531 H 0.3995 0.58232 0.97886 0.0
C1532 C 0.41849 0.63144 0.93405 0.0
C1533 C 0.40495 0.62243 0.92536 0.0
C1534 C 0.41989 0.63074 0.95228 0.0
C1535 C 0.40785 0.62091 0.96205 0.0
C1536 C 0.39448 0.61176 0.95336 0.0
H1537 H 0.36251 0.61186 0.06144 0.0
H1538 H 0.37209 0.61126 0.03098 0.0
C1539 C 0.39309 0.61242 0.93521 0.0
C1540 C 0.40815 0.6213 0.98139 0.0
H1541 H 0.40542 0.59478 0.01708 0.0
C1542 C 0.40601 0.63747 0.98987 0.0
C1543 C 0.40869 0.60578 0.99139 0.0
C1544 C 0.41211 0.58817 0.98316 0.0
C1545 C 0.40322 0.6384 0.00797 0.0
C1546 C 0.40267 0.62278 0.01775 0.0
C1547 C 0.40572 0.60671 0.00944 0.0
C1548 C 0.39744 0.62274 0.0363 0.0
C1549 C 0.39991 0.65593 0.01641 0.0
C1550 C 0.40866 0.62927 0.0493 0.0
C1551 C 0.40325 0.62959 0.06676 0.0
C1552 C 0.38652 0.62345 0.0714 0.0
C1553 C 0.37543 0.61675 0.05829 0.0
C1554 C 0.38089 0.61634 0.04091 0.0
H1555 H 0.39912 0.66665 0.00668 0.0
H1556 H 0.38753 0.65555 0.02397 0.0
H1557 H 0.41066 0.65899 0.02571 0.0
H1558 H 0.42153 0.63416 0.04594 0.0
H1559 H 0.41209 0.63482 0.07656 0.0
H1560 H 0.84923 0.8591 0.4281 0.0
H1561 H 0.85457 0.86269 0.45944 0.0
H1562 H 0.90432 0.88703 0.44855 0.0
H1563 H 0.89901 0.88374 0.41719 0.0
H1564 H 0.88206 0.84857 0.47827 0.0
H1565 H 0.88199 0.92102 0.48337 0.0
H1566 H 0.87345 0.90948 0.46455 0.0
H1567 H 0.89664 0.91244 0.46716 0.0
C1568 C 0.86124 0.86537 0.43235 0.0
C1569 C 0.87369 0.87116 0.42016 0.0
C1570 C 0.86427 0.8674 0.45026 0.0
C1571 C 0.87974 0.87531 0.45628 0.0
C1572 C 0.89214 0.88121 0.44415 0.0
H1573 H 0.9209 0.86377 0.5619 0.0
H1574 H 0.91746 0.8643 0.53008 0.0
C1575 C 0.88912 0.87923 0.42624 0.0
C1576 C 0.88326 0.87653 0.47527 0.0
H1577 H 0.89107 0.90538 0.50857 0.0
C1578 C 0.88401 0.86099 0.48491 0.0
C1579 C 0.88567 0.89277 0.48387 0.0
C1580 C 0.88425 0.9099 0.47427 0.0
C1581 C 0.88719 0.86121 0.50297 0.0
C1582 C 0.88999 0.87742 0.51151 0.0
C1583 C 0.88912 0.89298 0.5019 0.0
C1584 C 0.893 0.87845 0.53059 0.0
C1585 C 0.8871 0.84414 0.5128 0.0
C1586 C 0.88075 0.88684 0.54131 0.0
C1587 C 0.88272 0.88666 0.55945 0.0
C1588 C 0.89703 0.87811 0.56719 0.0
C1589 C 0.90968 0.87035 0.55636 0.0
C1590 C 0.9077 0.87057 0.53819 0.0
H1591 H 0.88081 0.83346 0.50513 0.0
H1592 H 0.90077 0.84022 0.51562 0.0
H1593 H 0.88011 0.8455 0.52545 0.0
H1594 H 0.86937 0.89306 0.53566 0.0
H1595 H 0.87278 0.89283 0.56741 0.0
H1596 H 0.57746 0.35946 0.9266 0.0
H1597 H 0.57501 0.36249 0.95842 0.0
H1598 H 0.62184 0.39411 0.95924 0.0
H1599 H 0.62425 0.39141 0.92761 0.0
H1600 H 0.59922 0.35142 0.98256 0.0
H1601 H 0.58905 0.42265 0.98953 0.0
H1602 H 0.58614 0.4113 0.96898 0.0
H1603 H 0.60766 0.41777 0.97616 0.0
C1604 C 0.58708 0.36727 0.93354 0.0
C1605 C 0.60103 0.37521 0.92458 0.0
C1606 C 0.58566 0.36898 0.9517 0.0
C1607 C 0.59808 0.37877 0.96113 0.0
C1608 C 0.61187 0.38687 0.95217 0.0
H1609 H 0.63886 0.39349 0.06297 0.0
H1610 H 0.63132 0.39253 0.03192 0.0
C1611 C 0.61329 0.38519 0.93408 0.0
C1612 C 0.5976 0.37944 0.98046 0.0
H1613 H 0.60005 0.40772 0.015 0.0
C1614 C 0.59904 0.36369 0.9897 0.0
C1615 C 0.59734 0.39548 0.98971 0.0
C1616 C 0.59478 0.41274 0.98058 0.0
C1617 C 0.60125 0.36362 0.00792 0.0
C1618 C 0.60187 0.37972 0.01703 0.0
C1619 C 0.59969 0.39542 0.0079 0.0
C1620 C 0.60596 0.38057 0.03588 0.0
C1621 C 0.60376 0.34643 0.0172 0.0
C1622 C 0.59409 0.3743 0.04833 0.0
C1623 C 0.59833 0.37484 0.0661 0.0
C1624 C 0.61454 0.38167 0.07167 0.0
C1625 C 0.62631 0.3881 0.05912 0.0
C1626 C 0.62201 0.38761 0.04139 0.0
H1627 H 0.60544 0.33536 0.00791 0.0
H1628 H 0.61537 0.3471 0.02592 0.0
H1629 H 0.59216 0.34369 0.02545 0.0
H1630 H 0.58156 0.36897 0.04428 0.0
H1631 H 0.58897 0.36981 0.07545 0.0
H1632 H 0.11311 0.89036 0.56805 0.0
H1633 H 0.11325 0.89 0.53612 0.0
H1634 H 0.16398 0.91482 0.53605 0.0
H1635 H 0.16392 0.91544 0.56806 0.0
H1636 H 0.14011 0.92791 0.51037 0.0
H1637 H 0.14506 0.85546 0.50945 0.0
H1638 H 0.12696 0.86381 0.52183 0.0
H1639 H 0.14895 0.8683 0.52892 0.0
C1640 C 0.12423 0.89591 0.56128 0.0
C1641 C 0.1386 0.90275 0.5706 0.0
C1642 C 0.1243 0.89564 0.54303 0.0
C1643 C 0.13876 0.90208 0.5338 0.0
C1644 C 0.15275 0.90969 0.543 0.0
H1645 H 0.1651 0.87478 0.42709 0.0
H1646 H 0.16539 0.88036 0.45857 0.0
C1647 C 0.15268 0.91001 0.56127 0.0
C1648 C 0.13964 0.9001 0.5146 0.0
H1649 H 0.14062 0.86936 0.48219 0.0
C1650 C 0.14026 0.91514 0.50417 0.0
C1651 C 0.14012 0.88339 0.50663 0.0
C1652 C 0.1404 0.8668 0.51725 0.0
C1653 C 0.141 0.91389 0.48586 0.0
C1654 C 0.14089 0.89717 0.47788 0.0
C1655 C 0.14058 0.88216 0.48836 0.0
C1656 C 0.14113 0.89483 0.45868 0.0
C1657 C 0.14215 0.93043 0.47524 0.0
C1658 C 0.12735 0.90109 0.44834 0.0
C1659 C 0.12715 0.89795 0.43034 0.0
C1660 C 0.14066 0.88835 0.4224 0.0
C1661 C 0.15449 0.88219 0.4328 0.0
C1662 C 0.15469 0.88537 0.45078 0.0
H1663 H 0.14673 0.94169 0.48327 0.0
H1664 H 0.15114 0.92877 0.46398 0.0
H1665 H 0.12899 0.93364 0.47006 0.0
H1666 H 0.11657 0.90809 0.45425 0.0
H1667 H 0.11627 0.90281 0.4227 0.0
H1668 H 0.59316 0.58932 0.93254 0.0
H1669 H 0.5923 0.59112 0.96459 0.0
H1670 H 0.62592 0.63648 0.96322 0.0
H1671 H 0.62682 0.63489 0.93142 0.0
H1672 H 0.62195 0.59046 0.98806 0.0
H1673 H 0.5841 0.65189 0.99383 0.0
H1674 H 0.58444 0.63888 0.97407 0.0
H1675 H 0.60232 0.6534 0.97911 0.0
C1676 C 0.60028 0.59972 0.93908 0.0
C1677 C 0.61001 0.61199 0.92944 0.0
C1678 C 0.59978 0.60072 0.95735 0.0
C1679 C 0.60882 0.61409 0.96618 0.0
C1680 C 0.61858 0.62627 0.9566 0.0
H1681 H 0.6387 0.64939 0.0674 0.0
H1682 H 0.63263 0.64425 0.03642 0.0
C1683 C 0.61916 0.62525 0.93842 0.0
C1684 C 0.60877 0.61513 0.98548 0.0
H1685 H 0.59982 0.64287 0.0193 0.0
C1686 C 0.61687 0.60175 0.99498 0.0
C1687 C 0.60211 0.6299 0.99437 0.0
C1688 C 0.5926 0.64427 0.98485 0.0
C1689 C 0.61933 0.6032 0.01312 0.0
C1690 C 0.61324 0.6183 0.02192 0.0
C1691 C 0.60455 0.63136 0.01248 0.0
C1692 C 0.61661 0.62129 0.04074 0.0
C1693 C 0.62913 0.58899 0.02259 0.0
C1694 C 0.60944 0.61018 0.0534 0.0
C1695 C 0.61292 0.61305 0.07113 0.0
C1696 C 0.62355 0.62716 0.07647 0.0
C1697 C 0.6305 0.63839 0.06373 0.0
C1698 C 0.62703 0.6355 0.04603 0.0
H1699 H 0.63599 0.58007 0.0134 0.0
H1700 H 0.63888 0.59471 0.03176 0.0
H1701 H 0.61975 0.58109 0.03034 0.0
H1702 H 0.60112 0.59932 0.04958 0.0
H1703 H 0.60729 0.60421 0.08063 0.0
H1704 H 0.89193 0.10325 0.43527 0.0
H1705 H 0.89287 0.09826 0.46687 0.0
H1706 H 0.83872 0.11321 0.47097 0.0
H1707 H 0.83763 0.11835 0.43942 0.0
H1708 H 0.88319 0.12581 0.49316 0.0
H1709 H 0.84387 0.06463 0.49732 0.0
H1710 H 0.855 0.07124 0.47757 0.0
H1711 H 0.83509 0.08183 0.48396 0.0
C1712 C 0.88018 0.10535 0.44287 0.0
C1713 C 0.8647 0.11122 0.43487 0.0
C1714 C 0.88076 0.10249 0.46089 0.0
C1715 C 0.86583 0.10521 0.47112 0.0
C1716 C 0.85031 0.11085 0.46319 0.0
H1717 H 0.83617 0.10438 0.57884 0.0
H1718 H 0.83805 0.1029 0.54702 0.0
C1719 C 0.84975 0.11387 0.4452 0.0
C1720 C 0.86669 0.10315 0.49028 0.0
H1721 H 0.85081 0.07886 0.52405 0.0
C1722 C 0.87628 0.11546 0.49997 0.0
C1723 C 0.85755 0.08968 0.49897 0.0
C1724 C 0.84737 0.07598 0.48898 0.0
C1725 C 0.8765 0.11504 0.5183 0.0
C1726 C 0.86726 0.10161 0.52707 0.0
C1727 C 0.85794 0.08908 0.5173 0.0
C1728 C 0.86627 0.10098 0.54639 0.0
C1729 C 0.88597 0.12943 0.52806 0.0
C1730 C 0.88149 0.09985 0.55661 0.0
C1731 C 0.88048 0.10088 0.57482 0.0
C1732 C 0.8642 0.10278 0.58311 0.0
C1733 C 0.84892 0.10297 0.57287 0.0
C1734 C 0.84996 0.10211 0.55467 0.0
H1735 H 0.88852 0.14095 0.5196 0.0
H1736 H 0.87835 0.13381 0.53961 0.0
H1737 H 0.89877 0.12448 0.53271 0.0
H1738 H 0.89418 0.0985 0.55048 0.0
H1739 H 0.89247 0.10049 0.58238 0.0
H1740 H 0.40712 0.40159 0.93261 0.0
H1741 H 0.40753 0.40082 0.96464 0.0
H1742 H 0.3686 0.35989 0.96403 0.0
H1743 H 0.36816 0.36042 0.93215 0.0
H1744 H 0.37886 0.40629 0.98764 0.0
H1745 H 0.40742 0.34022 0.99562 0.0
H1746 H 0.40857 0.35216 0.97532 0.0
H1747 H 0.38885 0.34077 0.98124 0.0
C1748 C 0.39871 0.39236 0.9393 0.0
C1749 C 0.38767 0.38101 0.92983 0.0
C1750 C 0.39897 0.39195 0.95757 0.0
C1751 C 0.3883 0.38011 0.96664 0.0
C1752 C 0.37719 0.36887 0.95725 0.0
H1753 H 0.35877 0.35499 0.0714 0.0
H1754 H 0.3634 0.35718 0.03989 0.0
C1755 C 0.3769 0.36927 0.93902 0.0
C1756 C 0.38824 0.37983 0.98597 0.0
H1757 H 0.39443 0.35299 0.02095 0.0
C1758 C 0.38246 0.39473 0.99498 0.0
C1759 C 0.39295 0.36471 0.99543 0.0
C1760 C 0.39995 0.3486 0.98644 0.0
C1761 C 0.38057 0.39467 0.01323 0.0
C1762 C 0.38489 0.3794 0.02265 0.0
C1763 C 0.39108 0.36466 0.01366 0.0
C1764 C 0.38237 0.37816 0.04178 0.0
C1765 C 0.37332 0.4107 0.02219 0.0
C1766 C 0.39169 0.38911 0.05327 0.0
C1767 C 0.38904 0.38793 0.0713 0.0
C1768 C 0.37711 0.37569 0.07813 0.0
C1769 C 0.36802 0.36457 0.06657 0.0
C1770 C 0.37066 0.36579 0.04857 0.0
H1771 H 0.36702 0.41975 0.01277 0.0
H1772 H 0.36358 0.40699 0.03229 0.0
H1773 H 0.38414 0.41786 0.02877 0.0
H1774 H 0.40104 0.39851 0.04829 0.0
H1775 H 0.39632 0.39662 0.07988 0.0
H1776 H 0.56769 0.16172 0.14395 0.0
H1777 H 0.53587 0.162 0.14075 0.0
H1778 H 0.53827 0.11542 0.1089 0.0
H1779 H 0.5701 0.1149 0.11216 0.0
H1780 H 0.51573 0.1633 0.10936 0.0
H1781 H 0.50289 0.10292 0.14765 0.0
H1782 H 0.52353 0.11443 0.14857 0.0
H1783 H 0.51839 0.10071 0.13015 0.0
C1784 C 0.56147 0.1515 0.13631 0.0
C1785 C 0.57141 0.13822 0.12841 0.0
C1786 C 0.5433 0.15171 0.13446 0.0
C1787 C 0.53476 0.13862 0.12477 0.0
C1788 C 0.54463 0.12547 0.11667 0.0
H1789 H 0.4236 0.11875 0.10792 0.0
H1790 H 0.45555 0.11798 0.10601 0.0
C1791 C 0.56281 0.12525 0.1185 0.0
C1792 C 0.5155 0.13881 0.12314 0.0
H1793 H 0.47857 0.1163 0.13426 0.0
C1794 C 0.50758 0.15303 0.11476 0.0
C1795 C 0.50497 0.12533 0.13016 0.0
C1796 C 0.51281 0.11003 0.13977 0.0
C1797 C 0.48933 0.15415 0.11323 0.0
C1798 C 0.47879 0.14083 0.12054 0.0
C1799 C 0.48673 0.12646 0.12864 0.0
C1800 C 0.45949 0.14192 0.12068 0.0
C1801 C 0.48151 0.16949 0.1037 0.0
C1802 C 0.45117 0.15561 0.1296 0.0
C1803 C 0.43297 0.1561 0.13071 0.0
C1804 C 0.42274 0.14282 0.12303 0.0
C1805 C 0.43111 0.1292 0.11394 0.0
C1806 C 0.44934 0.12872 0.11284 0.0
H1807 H 0.4911 0.17562 0.09468 0.0
H1808 H 0.46979 0.16547 0.09606 0.0
H1809 H 0.47746 0.17954 0.11336 0.0
H1810 H 0.45879 0.16572 0.13606 0.0
H1811 H 0.42694 0.16673 0.13787 0.0
H1812 H 0.40209 0.93084 0.62093 0.0
H1813 H 0.40482 0.96253 0.61818 0.0
H1814 H 0.35888 0.96354 0.58542 0.0
H1815 H 0.35593 0.93177 0.58817 0.0
H1816 H 0.40728 0.98465 0.58747 0.0
H1817 H 0.3476 0.99646 0.62737 0.0
H1818 H 0.35855 0.9756 0.62691 0.0
H1819 H 0.34507 0.98212 0.60885 0.0
C1820 C 0.39262 0.93775 0.61303 0.0
C1821 C 0.37868 0.9288 0.6049 0.0
C1822 C 0.39424 0.95585 0.61144 0.0
C1823 C 0.38194 0.96534 0.60178 0.0
C1824 C 0.36838 0.95642 0.59311 0.0
H1825 H 0.36655 0.07803 0.59833 0.0
H1826 H 0.36474 0.04672 0.59203 0.0
C1827 C 0.36675 0.93828 0.59466 0.0
C1828 C 0.38292 0.98463 0.60155 0.0
H1829 H 0.36255 0.02118 0.6169 0.0
C1830 C 0.39747 0.99268 0.59379 0.0
C1831 C 0.37008 0.99499 0.60983 0.0
C1832 C 0.35448 0.98693 0.61885 0.0
C1833 C 0.39956 0.01092 0.59417 0.0
C1834 C 0.38692 0.02126 0.60282 0.0
C1835 C 0.37219 0.0132 0.61024 0.0
C1836 C 0.38901 0.04038 0.6051 0.0
C1837 C 0.41521 0.01896 0.58524 0.0
C1838 C 0.40331 0.04719 0.61447 0.0
C1839 C 0.40441 0.06508 0.61807 0.0
C1840 C 0.39112 0.07645 0.61251 0.0
C1841 C 0.37699 0.06963 0.60282 0.0
C1842 C 0.37593 0.05175 0.59919 0.0
H1843 H 0.42056 0.01014 0.575 0.0
H1844 H 0.41182 0.03167 0.57916 0.0
H1845 H 0.42566 0.0213 0.59507 0.0
H1846 H 0.41334 0.03859 0.61949 0.0
H1847 H 0.41542 0.06991 0.62562 0.0
H1848 H 0.43484 0.84869 0.14238 0.0
H1849 H 0.46671 0.84824 0.14009 0.0
H1850 H 0.46486 0.89022 0.10266 0.0
H1851 H 0.43295 0.89095 0.105 0.0
H1852 H 0.48778 0.84291 0.11015 0.0
H1853 H 0.49899 0.90829 0.14035 0.0
H1854 H 0.47836 0.89686 0.14196 0.0
H1855 H 0.48415 0.90791 0.1221 0.0
C1856 C 0.44119 0.85786 0.13367 0.0
C1857 C 0.43138 0.86994 0.12396 0.0
C1858 C 0.45939 0.85755 0.13236 0.0
C1859 C 0.4681 0.86935 0.12139 0.0
C1860 C 0.45837 0.88122 0.11143 0.0
H1861 H 0.57961 0.88729 0.10527 0.0
H1862 H 0.5477 0.88767 0.10253 0.0
C1863 C 0.44015 0.88156 0.11274 0.0
C1864 C 0.48741 0.86916 0.12043 0.0
H1865 H 0.52382 0.89341 0.12974 0.0
C1866 C 0.49568 0.85395 0.11439 0.0
C1867 C 0.49762 0.88362 0.12594 0.0
C1868 C 0.48939 0.90006 0.13309 0.0
C1869 C 0.51397 0.8528 0.11374 0.0
C1870 C 0.52418 0.86714 0.11954 0.0
C1871 C 0.51591 0.88246 0.12528 0.0
C1872 C 0.54347 0.86629 0.12049 0.0
C1873 C 0.52221 0.8363 0.10674 0.0
C1874 C 0.55159 0.85419 0.13156 0.0
C1875 C 0.56978 0.85394 0.13316 0.0
C1876 C 0.58016 0.86585 0.12379 0.0
C1877 C 0.57198 0.87791 0.11263 0.0
C1878 C 0.55377 0.87816 0.11105 0.0
H1879 H 0.51293 0.82873 0.09843 0.0
H1880 H 0.53409 0.83931 0.09896 0.0
H1881 H 0.52611 0.82789 0.11786 0.0
H1882 H 0.54384 0.84516 0.13923 0.0
H1883 H 0.57566 0.84453 0.14192 0.0
H1884 H 0.60307 0.07019 0.62113 0.0
H1885 H 0.60017 0.03914 0.614 0.0
H1886 H 0.64094 0.04399 0.57544 0.0
H1887 H 0.64396 0.07518 0.58242 0.0
H1888 H 0.59466 0.02171 0.5783 0.0
H1889 H 0.6569 0.00594 0.61285 0.0
H1890 H 0.64501 0.02584 0.61717 0.0
H1891 H 0.65706 0.02349 0.59722 0.0
C1892 C 0.61135 0.06472 0.61103 0.0
C1893 C 0.62385 0.07512 0.60243 0.0
C1894 C 0.60961 0.04701 0.60693 0.0
C1895 C 0.6204 0.03936 0.59427 0.0
C1896 C 0.63255 0.04973 0.5853 0.0
H1897 H 0.63653 0.92726 0.58266 0.0
H1898 H 0.63785 0.95863 0.57679 0.0
C1899 C 0.63424 0.06751 0.58931 0.0
C1900 C 0.61957 0.02029 0.59136 0.0
H1901 H 0.64054 0.98248 0.60172 0.0
C1902 C 0.60475 0.01308 0.58322 0.0
C1903 C 0.63282 0.00918 0.59774 0.0
C1904 C 0.64885 0.01638 0.60683 0.0
C1905 C 0.60269 0.99489 0.58154 0.0
C1906 C 0.61559 0.98372 0.58862 0.0
C1907 C 0.63067 0.99103 0.59626 0.0
C1908 C 0.61329 0.96449 0.58952 0.0
C1909 C 0.58672 0.98787 0.57223 0.0
C1910 C 0.59886 0.9573 0.5983 0.0
C1911 C 0.59797 0.93935 0.60151 0.0
C1912 C 0.61168 0.92832 0.59629 0.0
C1913 C 0.62578 0.93544 0.5869 0.0
C1914 C 0.62656 0.95336 0.58353 0.0
H1915 H 0.58173 0.99739 0.5625 0.0
H1916 H 0.58955 0.97534 0.56543 0.0
H1917 H 0.57619 0.98556 0.58191 0.0
H1918 H 0.58868 0.96566 0.60346 0.0
H1919 H 0.58699 0.93429 0.60888 0.0
H1920 H 0.43542 0.84529 0.8619 0.0
H1921 H 0.46684 0.84765 0.86704 0.0
H1922 H 0.45753 0.88218 0.91074 0.0
H1923 H 0.426 0.88024 0.90543 0.0
H1924 H 0.48255 0.89473 0.88955 0.0
H1925 H 0.49659 0.82551 0.90445 0.0
H1926 H 0.48538 0.82773 0.88397 0.0
H1927 H 0.47462 0.83407 0.90394 0.0
C1928 C 0.44002 0.85328 0.8727 0.0
C1929 C 0.42822 0.86255 0.88328 0.0
C1930 C 0.45799 0.8545 0.8757 0.0
C1931 C 0.4645 0.86481 0.88949 0.0
C1932 C 0.45276 0.87405 0.90011 0.0
H1933 H 0.57659 0.86042 0.91303 0.0
H1934 H 0.54475 0.85968 0.91634 0.0
C1935 C 0.43476 0.87292 0.89705 0.0
C1936 C 0.48361 0.8667 0.89209 0.0
H1937 H 0.52125 0.84325 0.89614 0.0
C1938 C 0.49101 0.8835 0.89124 0.0
C1939 C 0.4946 0.85209 0.89465 0.0
C1940 C 0.48737 0.83386 0.897 0.0
C1941 C 0.50917 0.88599 0.89201 0.0
C1942 C 0.52022 0.87124 0.89323 0.0
C1943 C 0.51278 0.85453 0.89496 0.0
C1944 C 0.53949 0.87272 0.89183 0.0
C1945 C 0.51632 0.9044 0.89146 0.0
C1946 C 0.54707 0.88024 0.87694 0.0
C1947 C 0.56521 0.8808 0.87508 0.0
C1948 C 0.57613 0.8736 0.88796 0.0
C1949 C 0.56853 0.86609 0.90289 0.0
C1950 C 0.55035 0.86565 0.9048 0.0
H1951 H 0.50664 0.91396 0.89651 0.0
H1952 H 0.52854 0.90566 0.89924 0.0
H1953 H 0.51924 0.90792 0.87771 0.0
H1954 H 0.53895 0.88532 0.86653 0.0
H1955 H 0.57065 0.88655 0.86335 0.0
H1956 H 0.66265 0.92199 0.36258 0.0
H1957 H 0.66195 0.95387 0.36439 0.0
H1958 H 0.615 0.95121 0.39545 0.0
H1959 H 0.61562 0.91923 0.39383 0.0
H1960 H 0.63366 0.97465 0.35217 0.0
H1961 H 0.64714 0.9854 0.42291 0.0
H1962 H 0.65208 0.96507 0.41191 0.0
H1963 H 0.62994 0.9701 0.41782 0.0
C1964 C 0.65227 0.92815 0.36997 0.0
C1965 C 0.63918 0.91809 0.37805 0.0
C1966 C 0.6519 0.94636 0.37098 0.0
C1967 C 0.63852 0.95483 0.38017 0.0
C1968 C 0.62559 0.94487 0.38852 0.0
H1969 H 0.61409 0.06536 0.39264 0.0
H1970 H 0.6139 0.03337 0.39405 0.0
C1971 C 0.62593 0.92662 0.38751 0.0
C1972 C 0.63758 0.97412 0.38005 0.0
H1973 H 0.64013 0.01035 0.40612 0.0
C1974 C 0.6351 0.98248 0.36395 0.0
C1975 C 0.63931 0.98421 0.39548 0.0
C1976 C 0.6424 0.97581 0.41302 0.0
C1977 C 0.6343 0.00074 0.36285 0.0
C1978 C 0.63639 0.01087 0.37822 0.0
C1979 C 0.63859 0.00251 0.39437 0.0
C1980 C 0.63671 0.03018 0.37767 0.0
C1981 C 0.63102 0.00902 0.34527 0.0
C1982 C 0.64978 0.03891 0.36824 0.0
C1983 C 0.6499 0.05713 0.36735 0.0
C1984 C 0.63702 0.06695 0.37601 0.0
C1985 C 0.62415 0.05816 0.38577 0.0
C1986 C 0.62403 0.03991 0.38662 0.0
H1987 H 0.62503 0.9996 0.33589 0.0
H1988 H 0.6223 0.02054 0.34651 0.0
H1989 H 0.64365 0.0135 0.33969 0.0
H1990 H 0.65989 0.03162 0.36154 0.0
H1991 H 0.66009 0.0635 0.35986 0.0
H1992 H 0.4318 0.13044 0.87965 0.0
H1993 H 0.46346 0.13285 0.88288 0.0
H1994 H 0.4618 0.09827 0.92722 0.0
H1995 H 0.4299 0.09576 0.92416 0.0
H1996 H 0.48298 0.14362 0.9158 0.0
H1997 H 0.49777 0.07689 0.89022 0.0
H1998 H 0.47744 0.08777 0.88526 0.0
H1999 H 0.48119 0.07932 0.90676 0.0
C2000 C 0.43811 0.12333 0.89011 0.0
C2001 C 0.42834 0.11285 0.90162 0.0
C2002 C 0.45619 0.12478 0.89196 0.0
C2003 C 0.46488 0.11568 0.90522 0.0
C2004 C 0.45525 0.1053 0.91685 0.0
H2005 H 0.57909 0.10737 0.91047 0.0
H2006 H 0.54814 0.10395 0.91794 0.0
C2007 C 0.43707 0.10392 0.91509 0.0
C2008 C 0.48409 0.11704 0.90653 0.0
H2009 H 0.52158 0.09556 0.89576 0.0
C2010 C 0.49148 0.13306 0.91165 0.0
C2011 C 0.49504 0.10317 0.90122 0.0
C2012 C 0.48758 0.08579 0.89547 0.0
C2013 C 0.50962 0.13577 0.91112 0.0
C2014 C 0.52053 0.12223 0.90486 0.0
C2015 C 0.51317 0.10594 0.90049 0.0
C2016 C 0.53937 0.12509 0.90141 0.0
C2017 C 0.51688 0.15317 0.9171 0.0
C2018 C 0.54466 0.13805 0.88959 0.0
C2019 C 0.56229 0.14008 0.88534 0.0
C2020 C 0.57496 0.12903 0.89268 0.0
C2021 C 0.56965 0.11611 0.90461 0.0
C2022 C 0.55199 0.11413 0.9089 0.0
H2023 H 0.50809 0.15952 0.92675 0.0
H2024 H 0.53004 0.1517 0.92308 0.0
H2025 H 0.51802 0.16201 0.90568 0.0
H2026 H 0.5351 0.14634 0.88329 0.0
H2027 H 0.56593 0.15008 0.87603 0.0
H2028 H 0.39021 0.93197 0.39166 0.0
H2029 H 0.39034 0.96377 0.39556 0.0
H2030 H 0.34608 0.968 0.36081 0.0
H2031 H 0.34572 0.93629 0.35696 0.0
H2032 H 0.39427 0.98906 0.36924 0.0
H2033 H 0.33099 0.99651 0.40375 0.0
H2034 H 0.34203 0.97575 0.40181 0.0
H2035 H 0.32943 0.9841 0.38383 0.0
C2036 C 0.38042 0.93966 0.38494 0.0
C2037 C 0.36792 0.93162 0.37403 0.0
C2038 C 0.38053 0.9578 0.38719 0.0
C2039 C 0.36805 0.96816 0.37869 0.0
C2040 C 0.35559 0.96018 0.36778 0.0
H2041 H 0.34626 0.07601 0.36026 0.0
H2042 H 0.34695 0.04416 0.36235 0.0
C2043 C 0.35548 0.94207 0.3655 0.0
C2044 C 0.36853 0.98741 0.3805 0.0
H2045 H 0.34378 0.02256 0.39223 0.0
C2046 C 0.38334 0.99642 0.37447 0.0
C2047 C 0.35423 0.99689 0.38733 0.0
C2048 C 0.33833 0.98783 0.39471 0.0
C2049 C 0.38395 0.01475 0.37442 0.0
C2050 C 0.36947 0.02424 0.38085 0.0
C2051 C 0.35483 0.01522 0.38728 0.0
C2052 C 0.36889 0.04354 0.38022 0.0
C2053 C 0.39977 0.02382 0.36686 0.0
C2054 C 0.38085 0.05371 0.38982 0.0
C2055 C 0.38053 0.07194 0.38863 0.0
C2056 C 0.36818 0.08026 0.37788 0.0
C2057 C 0.35598 0.07001 0.36861 0.0
C2058 C 0.35632 0.05181 0.3698 0.0
H2059 H 0.40807 0.01472 0.35916 0.0
H2060 H 0.39579 0.03481 0.35831 0.0
H2061 H 0.40784 0.02927 0.37767 0.0
H2062 H 0.39046 0.04754 0.39817 0.0
H2063 H 0.39004 0.07948 0.39602 0.0
H2064 H 0.10246 0.43894 0.11126 0.0
H2065 H 0.10164 0.47037 0.1055 0.0
H2066 H 0.15062 0.47701 0.13285 0.0
H2067 H 0.15135 0.44572 0.13904 0.0
H2068 H 0.12689 0.50155 0.14212 0.0
H2069 H 0.13082 0.49654 0.06983 0.0
H2070 H 0.11287 0.48459 0.07913 0.0
H2071 H 0.13496 0.4782 0.08401 0.0
C2072 C 0.11306 0.4471 0.11605 0.0
C2073 C 0.12701 0.43984 0.12555 0.0
C2074 C 0.11262 0.46503 0.11264 0.0
C2075 C 0.12624 0.47596 0.11846 0.0
C2076 C 0.14003 0.46878 0.12816 0.0
H2077 H 0.15281 0.58078 0.08595 0.0
H2078 H 0.15068 0.54916 0.09021 0.0
C2079 C 0.14042 0.45089 0.13169 0.0
C2080 C 0.12604 0.49494 0.11475 0.0
H2081 H 0.12563 0.52478 0.08166 0.0
C2082 C 0.12662 0.50664 0.12891 0.0
C2083 C 0.12592 0.50152 0.09748 0.0
C2084 C 0.12628 0.48958 0.08172 0.0
C2085 C 0.12703 0.52477 0.12629 0.0
C2086 C 0.1264 0.53136 0.10904 0.0
C2087 C 0.1259 0.51967 0.09486 0.0
C2088 C 0.12689 0.55037 0.10546 0.0
C2089 C 0.12863 0.53666 0.14202 0.0
C2090 C 0.11394 0.56144 0.11219 0.0
C2091 C 0.11519 0.57951 0.1099 0.0
C2092 C 0.1293 0.58678 0.10062 0.0
C2093 C 0.14181 0.57558 0.09318 0.0
C2094 C 0.14061 0.55752 0.09561 0.0
H2095 H 0.1336 0.52957 0.15366 0.0
H2096 H 0.13753 0.54783 0.13932 0.0
H2097 H 0.11555 0.54196 0.14532 0.0
H2098 H 0.10301 0.55614 0.11945 0.0
H2099 H 0.10524 0.58778 0.11563 0.0
H2100 H 0.10849 0.58445 0.86295 0.0
H2101 H 0.10431 0.55293 0.8663 0.0
H2102 H 0.13553 0.55396 0.91331 0.0
H2103 H 0.13955 0.5855 0.91026 0.0
H2104 H 0.13066 0.52858 0.86628 0.0
H2105 H 0.09326 0.52512 0.92826 0.0
H2106 H 0.09559 0.54511 0.91597 0.0
H2107 H 0.11305 0.53774 0.92987 0.0
C2108 C 0.11429 0.57801 0.87413 0.0
C2109 C 0.12437 0.58747 0.88634 0.0
C2110 C 0.11187 0.56001 0.87602 0.0
C2111 C 0.11942 0.55117 0.89017 0.0
C2112 C 0.12927 0.5606 0.90251 0.0
H2113 H 0.1358 0.44281 0.91682 0.0
H2114 H 0.13456 0.47478 0.91608 0.0
C2115 C 0.13165 0.57861 0.90067 0.0
C2116 C 0.11812 0.53189 0.89125 0.0
H2117 H 0.1051 0.49831 0.91755 0.0
C2118 C 0.12492 0.52196 0.87741 0.0
C2119 C 0.11071 0.52333 0.90584 0.0
C2120 C 0.10259 0.53336 0.92077 0.0
C2121 C 0.12486 0.50364 0.87791 0.0
C2122 C 0.11756 0.49508 0.89254 0.0
C2123 C 0.11068 0.50498 0.90637 0.0
C2124 C 0.11721 0.4758 0.89374 0.0
C2125 C 0.13303 0.49362 0.86299 0.0
C2126 C 0.10752 0.46587 0.88168 0.0
C2127 C 0.10822 0.44764 0.88203 0.0
C2128 C 0.11858 0.43904 0.89452 0.0
C2129 C 0.12776 0.44904 0.907 0.0
C2130 C 0.12705 0.46729 0.90662 0.0
H2131 H 0.14153 0.50208 0.85481 0.0
H2132 H 0.14094 0.48253 0.86795 0.0
H2133 H 0.12254 0.48819 0.85451 0.0
H2134 H 0.09962 0.47224 0.87182 0.0
H2135 H 0.10088 0.44032 0.87231 0.0
H2136 H 0.08892 0.60419 0.35766 0.0
H2137 H 0.05759 0.5978 0.35831 0.0
H2138 H 0.0529 0.626 0.40699 0.0
H2139 H 0.08423 0.63269 0.40637 0.0
H2140 H 0.03631 0.58089 0.38356 0.0
H2141 H 0.01815 0.65058 0.37416 0.0
H2142 H 0.04008 0.64267 0.37066 0.0
H2143 H 0.03225 0.64644 0.39248 0.0
C2144 C 0.08127 0.60896 0.36857 0.0
C2145 C 0.08902 0.61912 0.38188 0.0
C2146 C 0.06338 0.60526 0.36893 0.0
C2147 C 0.05294 0.61166 0.38255 0.0
C2148 C 0.06073 0.62122 0.39621 0.0
H2149 H 0.94042 0.61308 0.39661 0.0
H2150 H 0.972 0.6145 0.40125 0.0
C2151 C 0.07862 0.62497 0.39586 0.0
C2152 C 0.0338 0.60888 0.38205 0.0
H2153 H 0.99505 0.63052 0.37824 0.0
C2154 C 0.02725 0.59171 0.38244 0.0
C2155 C 0.02208 0.62306 0.38052 0.0
C2156 C 0.02844 0.64173 0.37927 0.0
C2157 C 0.00921 0.58835 0.38147 0.0
C2158 C 0.99752 0.60253 0.37981 0.0
C2159 C 0.00408 0.61969 0.37959 0.0
C2160 C 0.97844 0.59999 0.37783 0.0
C2161 C 0.0028 0.5697 0.38241 0.0
C2162 C 0.97161 0.59123 0.36316 0.0
C2163 C 0.95354 0.59037 0.36044 0.0
C2164 C 0.94202 0.59839 0.3723 0.0
C2165 C 0.94892 0.60679 0.3872 0.0
C2166 C 0.96696 0.60761 0.3899 0.0
H2167 H 0.01275 0.56095 0.3883 0.0
H2168 H 0.99057 0.56878 0.39017 0.0
H2169 H 0.99997 0.56489 0.369 0.0
H2170 H 0.98027 0.58556 0.3535 0.0
H2171 H 0.94865 0.58386 0.34881 0.0
H2172 H 0.87304 0.55746 0.86212 0.0
H2173 H 0.87374 0.52556 0.86064 0.0
H2174 H 0.92626 0.52579 0.88121 0.0
H2175 H 0.92579 0.55786 0.88267 0.0
H2176 H 0.90325 0.50342 0.84248 0.0
H2177 H 0.89258 0.49351 0.9139 0.0
H2178 H 0.88545 0.51316 0.90299 0.0
H2179 H 0.90829 0.50958 0.90673 0.0
C2180 C 0.88478 0.55077 0.86631 0.0
C2181 C 0.89935 0.56018 0.87257 0.0
C2182 C 0.88515 0.53257 0.8654 0.0
C2183 C 0.90002 0.52344 0.87087 0.0
C2184 C 0.91467 0.5327 0.87699 0.0
H2185 H 0.90603 0.41045 0.8857 0.0
H2186 H 0.91326 0.44163 0.88544 0.0
C2187 C 0.91437 0.55098 0.87779 0.0
C2188 C 0.8999 0.50418 0.8704 0.0
H2189 H 0.89307 0.46847 0.89606 0.0
C2190 C 0.9012 0.49571 0.85418 0.0
C2191 C 0.89734 0.49429 0.88573 0.0
C2192 C 0.89577 0.50298 0.90339 0.0
C2193 C 0.89969 0.47746 0.85284 0.0
C2194 C 0.89632 0.46759 0.86809 0.0
C2195 C 0.89559 0.47607 0.88438 0.0
C2196 C 0.89263 0.44858 0.86738 0.0
C2197 C 0.90175 0.46898 0.83513 0.0
C2198 C 0.87857 0.44217 0.85739 0.0
C2199 C 0.87447 0.42437 0.85742 0.0
C2200 C 0.8842 0.41268 0.86765 0.0
C2201 C 0.89828 0.41913 0.87766 0.0
C2202 C 0.90244 0.43693 0.87753 0.0
H2203 H 0.90977 0.47722 0.82626 0.0
H2204 H 0.90794 0.45591 0.83619 0.0
H2205 H 0.88866 0.46732 0.82903 0.0
H2206 H 0.87051 0.45099 0.84983 0.0
H2207 H 0.86346 0.41984 0.84968 0.0
H2208 H 0.0557 0.36432 0.35674 0.0
H2209 H 0.0243 0.36652 0.3617 0.0
H2210 H 0.03302 0.40861 0.39844 0.0
H2211 H 0.06462 0.40618 0.3939 0.0
H2212 H 0.01057 0.38478 0.41116 0.0
H2213 H 0.99029 0.40248 0.34416 0.0
H2214 H 0.00308 0.38288 0.34424 0.0
H2215 H 0.01284 0.40324 0.35118 0.0
C2216 C 0.05096 0.37417 0.36575 0.0
C2217 C 0.06264 0.38513 0.37488 0.0
C2218 C 0.03298 0.37549 0.36849 0.0
C2219 C 0.02629 0.38797 0.38017 0.0
C2220 C 0.03791 0.39897 0.38927 0.0
H2221 H 0.91285 0.40143 0.38256 0.0
H2222 H 0.94418 0.40781 0.38118 0.0
C2223 C 0.05594 0.39758 0.38665 0.0
C2224 C 0.00724 0.38882 0.38349 0.0
H2225 H 0.96778 0.39084 0.36277 0.0
C2226 C 0.0012 0.38635 0.40063 0.0
C2227 C 0.99502 0.39123 0.36981 0.0
C2228 C 1.00065 0.3953 0.35136 0.0
C2229 C 0.98325 0.38539 0.40432 0.0
C2230 C 0.97107 0.38646 0.39041 0.0
C2231 C 0.97711 0.38977 0.37341 0.0
C2232 C 0.9521 0.38339 0.39296 0.0
C2233 C 0.97756 0.38321 0.42306 0.0
C2234 C 0.94613 0.36759 0.40015 0.0
C2235 C 0.92824 0.364 0.40113 0.0
C2236 C 0.916 0.37599 0.39462 0.0
C2237 C 0.92198 0.39191 0.38765 0.0
C2238 C 0.93987 0.39558 0.38685 0.0
H2239 H 0.98745 0.38868 0.43226 0.0
H2240 H 0.96483 0.3897 0.42555 0.0
H2241 H 0.97613 0.36907 0.42596 0.0
H2242 H 0.95532 0.35777 0.40448 0.0
H2243 H 0.92406 0.35155 0.40643 0.0
H2244 H 0.85325 0.42188 0.09781 0.0
H2245 H 0.86003 0.45314 0.09812 0.0
H2246 H 0.90229 0.44408 0.13435 0.0
H2247 H 0.89573 0.41276 0.13403 0.0
H2248 H 0.85951 0.47446 0.12832 0.0
H2249 H 0.9248 0.47513 0.09649 0.0
H2250 H 0.90998 0.45676 0.0948 0.0
H2251 H 0.92253 0.46016 0.1144 0.0
C2252 C 0.86411 0.42649 0.1057 0.0
C2253 C 0.87395 0.41484 0.1159 0.0
C2254 C 0.86796 0.44435 0.10586 0.0
C2255 C 0.88178 0.45086 0.1161 0.0
C2256 C 0.89178 0.43926 0.12611 0.0
H2257 H 0.91685 0.55632 0.14141 0.0
H2258 H 0.91376 0.5245 0.13887 0.0
C2259 C 0.88794 0.42139 0.12598 0.0
C2260 C 0.88493 0.46991 0.11717 0.0
H2261 H 0.91506 0.50187 0.10887 0.0
C2262 C 0.87161 0.48048 0.124 0.0
C2263 C 0.90081 0.47764 0.11165 0.0
C2264 C 0.91532 0.46689 0.10378 0.0
C2265 C 0.87378 0.49862 0.12558 0.0
C2266 C 0.88957 0.50639 0.11987 0.0
C2267 C 0.90297 0.49583 0.11319 0.0
C2268 C 0.89221 0.52554 0.12054 0.0
C2269 C 0.85927 0.50927 0.13363 0.0
C2270 C 0.88141 0.53656 0.11073 0.0
C2271 C 0.88309 0.55468 0.11217 0.0
C2272 C 0.89571 0.56211 0.12338 0.0
C2273 C 0.90696 0.551 0.13272 0.0
C2274 C 0.90523 0.53284 0.13128 0.0
H2275 H 0.85015 0.501 0.14134 0.0
H2276 H 0.86463 0.51968 0.14229 0.0
H2277 H 0.85164 0.51563 0.12308 0.0
H2278 H 0.8715 0.53114 0.10211 0.0
H2279 H 0.87431 0.56284 0.10467 0.0
H2280 H 0.9192 0.37078 0.67303 0.0
H2281 H 0.95101 0.37405 0.67315 0.0
H2282 H 0.94889 0.39789 0.62219 0.0
H2283 H 0.91704 0.39479 0.62196 0.0
H2284 H 0.97284 0.35852 0.64752 0.0
H2285 H 0.98164 0.43064 0.65048 0.0
H2286 H 0.96143 0.41997 0.65656 0.0
H2287 H 0.96681 0.42286 0.6339 0.0
C2288 C 0.92546 0.37695 0.66194 0.0
C2289 C 0.91561 0.38249 0.64746 0.0
C2290 C 0.94362 0.3788 0.66204 0.0
C2291 C 0.95223 0.38635 0.64775 0.0
C2292 C 0.94243 0.39231 0.63347 0.0
H2293 H 0.06105 0.39724 0.61796 0.0
H2294 H 0.02911 0.39849 0.61976 0.0
C2295 C 0.92425 0.39044 0.63333 0.0
C2296 C 0.97154 0.38663 0.64719 0.0
H2297 H 0.00705 0.41371 0.64505 0.0
C2298 C 0.98035 0.37057 0.6471 0.0
C2299 C 0.98121 0.40239 0.64647 0.0
C2300 C 0.97234 0.41998 0.647 0.0
C2301 C 0.99862 0.36983 0.64607 0.0
C2302 C 0.00833 0.38559 0.6455 0.0
C2303 C 0.99953 0.40167 0.64553 0.0
C2304 C 0.02765 0.38558 0.64484 0.0
C2305 C 0.00734 0.35216 0.64518 0.0
C2306 C 0.03736 0.37823 0.65852 0.0
C2307 C 0.05556 0.37741 0.6575 0.0
C2308 C 0.06437 0.38407 0.64284 0.0
C2309 C 0.05464 0.39192 0.62939 0.0
C2310 C 0.03641 0.39268 0.6304 0.0
H2311 H 0.99802 0.34172 0.64114 0.0
H2312 H 0.01847 0.35231 0.63588 0.0
H2313 H 0.01247 0.34877 0.65831 0.0
H2314 H 0.03084 0.37301 0.66994 0.0
H2315 H 0.06269 0.37144 0.66816 0.0
H2316 H 0.09224 0.60264 0.5949 0.0
H2317 H 0.06136 0.59573 0.59007 0.0
H2318 H 0.0488 0.61667 0.64094 0.0
H2319 H 0.07969 0.62332 0.64605 0.0
H2320 H 0.03097 0.58565 0.63306 0.0
H2321 H 0.02576 0.63396 0.57914 0.0
H2322 H 0.04223 0.61752 0.57622 0.0
H2323 H 0.04436 0.6332 0.59366 0.0
C2324 C 0.08293 0.60566 0.60513 0.0
C2325 C 0.08837 0.6137 0.6208 0.0
C2326 C 0.06529 0.60176 0.6023 0.0
C2327 C 0.0528 0.60599 0.61501 0.0
C2328 C 0.05826 0.61337 0.63094 0.0
H2329 H 0.94468 0.62918 0.61042 0.0
H2330 H 0.97651 0.62821 0.61113 0.0
C2331 C 0.07591 0.6172 0.63382 0.0
C2332 C 0.03393 0.60345 0.61153 0.0
H2333 H 1.00039 0.61786 0.58592 0.0
C2334 C 0.02427 0.59256 0.62267 0.0
C2335 C 0.02527 0.61263 0.59804 0.0
C2336 C 0.03486 0.62511 0.58615 0.0
C2337 C 0.00606 0.59088 0.62093 0.0
C2338 C 0.99741 0.60011 0.60748 0.0
C2339 C 0.00713 0.61068 0.5961 0.0
C2340 C 0.97812 0.60041 0.60609 0.0
C2341 C 0.99616 0.57986 0.63394 0.0
C2342 C 0.96848 0.58512 0.60266 0.0
C2343 C 0.95019 0.5856 0.6023 0.0
C2344 C 0.94131 0.60141 0.60527 0.0
C2345 C 0.95108 0.61677 0.60813 0.0
C2346 C 0.96929 0.61626 0.60852 0.0
H2347 H 0.00434 0.5764 0.64543 0.0
H2348 H 0.98433 0.58682 0.63862 0.0
H2349 H 0.99186 0.56754 0.62752 0.0
H2350 H 0.97509 0.57281 0.60043 0.0
H2351 H 0.94303 0.57357 0.59997 0.0
H2352 H 0.9255 0.0997 0.3472 0.0
H2353 H 0.9565 0.09624 0.33921 0.0
H2354 H 0.97153 0.10772 0.39241 0.0
H2355 H 0.941 0.11143 0.40034 0.0
H2356 H 0.98872 0.12814 0.36817 0.0
H2357 H 0.99242 0.0576 0.35046 0.0
H2358 H 0.97586 0.07036 0.33973 0.0
H2359 H 0.97442 0.06655 0.36282 0.0
C2360 C 0.93544 0.10121 0.35721 0.0
C2361 C 0.93079 0.10595 0.37437 0.0
C2362 C 0.95313 0.0992 0.35264 0.0
C2363 C 0.96635 0.1017 0.36523 0.0
C2364 C 0.9616 0.10581 0.38245 0.0
H2365 H 0.07315 0.07975 0.38182 0.0
H2366 H 0.04168 0.07862 0.37672 0.0
C2367 C 0.94408 0.10793 0.38696 0.0
C2368 C 0.98525 0.10122 0.36066 0.0
H2369 H 0.01865 0.07381 0.34945 0.0
C2370 C 0.99526 0.11633 0.36385 0.0
C2371 C 0.99373 0.08577 0.35511 0.0
C2372 C 0.98365 0.06907 0.35191 0.0
C2373 C 0.01355 0.11624 0.36244 0.0
C2374 C 0.02213 0.10071 0.35716 0.0
C2375 C 0.01207 0.08574 0.35333 0.0
C2376 C 0.04155 0.09934 0.35754 0.0
C2377 C 0.02354 0.13253 0.36765 0.0
C2378 C 0.05214 0.11076 0.3478 0.0
C2379 C 0.07021 0.11159 0.35084 0.0
C2380 C 0.07803 0.10083 0.36351 0.0
C2381 C 0.06759 0.08833 0.37206 0.0
C2382 C 0.04954 0.08763 0.36914 0.0
H2383 H 0.01524 0.14194 0.37495 0.0
H2384 H 0.035 0.12922 0.37593 0.0
H2385 H 0.02838 0.13919 0.35573 0.0
H2386 H 0.04634 0.11962 0.33845 0.0
H2387 H 0.07788 0.12126 0.34389 0.0
H2388 H 0.37399 0.41961 0.82399 0.0
H2389 H 0.37863 0.45111 0.8209 0.0
H2390 H 0.40486 0.45244 0.87087 0.0
H2391 H 0.4008 0.42094 0.87375 0.0
H2392 H 0.36445 0.47468 0.84075 0.0
H2393 H 0.43579 0.485 0.84445 0.0
H2394 H 0.42628 0.46366 0.84076 0.0
H2395 H 0.42839 0.47228 0.86263 0.0
C2396 C 0.38117 0.42653 0.8341 0.0
C2397 C 0.387 0.41772 0.84913 0.0
C2398 C 0.3838 0.44457 0.83233 0.0
C2399 C 0.39225 0.45424 0.84556 0.0
C2400 C 0.39872 0.44532 0.86024 0.0
H2401 H 0.36884 0.55431 0.88472 0.0
H2402 H 0.37219 0.5239 0.87619 0.0
C2403 C 0.39628 0.42725 0.86193 0.0
C2404 C 0.3923 0.47374 0.84512 0.0
H2405 H 0.4178 0.50985 0.85278 0.0
C2406 C 0.37622 0.48233 0.84303 0.0
C2407 C 0.40762 0.4839 0.84784 0.0
C2408 C 0.42551 0.47571 0.84885 0.0
C2409 C 0.37487 0.50056 0.84461 0.0
C2410 C 0.38993 0.51055 0.84878 0.0
C2411 C 0.40621 0.50217 0.84981 0.0
C2412 C 0.38859 0.52929 0.85383 0.0
C2413 C 0.3572 0.50894 0.84218 0.0
C2414 C 0.39715 0.54253 0.84439 0.0
C2415 C 0.3953 0.56017 0.8493 0.0
C2416 C 0.38498 0.56477 0.86382 0.0
C2417 C 0.37677 0.55136 0.87337 0.0
C2418 C 0.37861 0.53389 0.86848 0.0
H2419 H 0.34856 0.50079 0.83372 0.0
H2420 H 0.35075 0.51031 0.8551 0.0
H2421 H 0.35843 0.52214 0.83629 0.0
H2422 H 0.40505 0.53924 0.83311 0.0
H2423 H 0.40187 0.57017 0.84173 0.0
H2424 H 0.08052 0.89995 0.33335 0.0
H2425 H 0.04984 0.90314 0.32405 0.0
H2426 H 0.03325 0.89863 0.37771 0.0
H2427 H 0.06347 0.89568 0.38699 0.0
H2428 H 0.02436 0.87854 0.32807 0.0
H2429 H 0.00323 0.93867 0.36157 0.0
H2430 H 0.02605 0.93343 0.35847 0.0
H2431 H 0.01411 0.9246 0.37675 0.0
C2432 C 0.07032 0.90007 0.34316 0.0
C2433 C 0.07444 0.89753 0.3609 0.0
C2434 C 0.05281 0.90185 0.33784 0.0
C2435 C 0.03921 0.90142 0.35021 0.0
C2436 C 0.04345 0.89948 0.36794 0.0
H2437 H 0.94423 0.85342 0.36169 0.0
H2438 H 0.97377 0.86289 0.35487 0.0
C2439 C 0.06081 0.89761 0.37322 0.0
C2440 C 0.0205 0.90091 0.34482 0.0
H2441 H 0.98049 0.91635 0.35717 0.0
C2442 C 0.01479 0.88712 0.33403 0.0
C2443 C 0.00793 0.91228 0.35224 0.0
C2444 C 0.01319 0.92819 0.36274 0.0
C2445 C 0.9969 0.88341 0.33191 0.0
C2446 C 0.9844 0.89354 0.34104 0.0
C2447 C 0.99004 0.90836 0.35039 0.0
C2448 C 0.96604 0.88746 0.34331 0.0
C2449 C 0.99158 0.86817 0.32048 0.0
C2450 C 0.9517 0.89821 0.33928 0.0
C2451 C 0.93457 0.89279 0.34325 0.0
C2452 C 0.93161 0.87669 0.35161 0.0
C2453 C 0.946 0.86591 0.35528 0.0
C2454 C 0.96296 0.87124 0.35122 0.0
H2455 H 0.00111 0.86619 0.30971 0.0
H2456 H 0.99139 0.85607 0.32844 0.0
H2457 H 0.97837 0.8701 0.31475 0.0
H2458 H 0.95378 0.91089 0.33335 0.0
H2459 H 0.92375 0.90142 0.34036 0.0
H2460 H 0.59151 0.42181 0.85379 0.0
H2461 H 0.58397 0.45247 0.84765 0.0
H2462 H 0.63884 0.46551 0.84531 0.0
H2463 H 0.64636 0.43526 0.85123 0.0
H2464 H 0.59294 0.48028 0.86902 0.0
H2465 H 0.62029 0.49172 0.80345 0.0
H2466 H 0.61604 0.47 0.81167 0.0
H2467 H 0.63611 0.48122 0.81714 0.0
C2468 C 0.60191 0.43116 0.85147 0.0
C2469 C 0.61953 0.42612 0.853 0.0
C2470 C 0.5976 0.44867 0.84804 0.0
C2471 C 0.61084 0.46128 0.84576 0.0
C2472 C 0.62838 0.45602 0.84658 0.0
H2473 H 0.64526 0.5605 0.86374 0.0
H2474 H 0.63784 0.53056 0.85569 0.0
C2475 C 0.63266 0.43869 0.85012 0.0
C2476 C 0.6068 0.48026 0.84454 0.0
H2477 H 0.6199 0.51712 0.82306 0.0
C2478 C 0.59829 0.48834 0.85868 0.0
C2479 C 0.6137 0.4908 0.83101 0.0
C2480 C 0.62187 0.48294 0.81488 0.0
C2481 C 0.59801 0.50666 0.86045 0.0
C2482 C 0.60636 0.51711 0.84771 0.0
C2483 C 0.61359 0.50908 0.83288 0.0
C2484 C 0.61045 0.5358 0.8511 0.0
C2485 C 0.59006 0.5147 0.87661 0.0
C2486 C 0.59753 0.54883 0.85087 0.0
C2487 C 0.60178 0.56618 0.85539 0.0
C2488 C 0.61897 0.57061 0.86038 0.0
C2489 C 0.63187 0.55755 0.8601 0.0
C2490 C 0.62767 0.5404 0.85544 0.0
H2491 H 0.58456 0.50471 0.88558 0.0
H2492 H 0.60011 0.52244 0.88378 0.0
H2493 H 0.57944 0.52378 0.87279 0.0
H2494 H 0.58415 0.54554 0.84747 0.0
H2495 H 0.59157 0.57595 0.85553 0.0
H2496 H 0.93607 0.86533 0.66938 0.0
H2497 H 0.96737 0.87042 0.67341 0.0
H2498 H 0.96609 0.91072 0.63416 0.0
H2499 H 0.93467 0.90587 0.63019 0.0
H2500 H 0.99116 0.86523 0.647 0.0
H2501 H 0.99661 0.93322 0.67204 0.0
H2502 H 0.97638 0.92096 0.67262 0.0
H2503 H 0.98355 0.93093 0.65262 0.0
C2504 C 0.94233 0.87556 0.66186 0.0
C2505 C 0.93282 0.88515 0.64941 0.0
C2506 C 0.96026 0.87844 0.66417 0.0
C2507 C 0.9691 0.89103 0.65418 0.0
C2508 C 0.95953 0.90116 0.64227 0.0
H2509 H 0.07861 0.91106 0.63165 0.0
H2510 H 0.0468 0.91305 0.63475 0.0
C2511 C 0.94154 0.89831 0.63996 0.0
C2512 C 0.98854 0.89214 0.65488 0.0
H2513 H 0.02306 0.91971 0.66262 0.0
C2514 C 0.99812 0.8771 0.65058 0.0
C2515 C 0.99762 0.90769 0.65935 0.0
C2516 C 0.98804 0.92409 0.66457 0.0
C2517 C 0.01648 0.87723 0.65036 0.0
C2518 C 0.0256 0.89273 0.65495 0.0
C2519 C 0.01605 0.90781 0.65921 0.0
C2520 C 0.04505 0.89342 0.65497 0.0
C2521 C 0.02592 0.86085 0.64472 0.0
C2522 C 0.05474 0.88231 0.66586 0.0
C2523 C 0.0729 0.88108 0.66408 0.0
C2524 C 0.0818 0.89106 0.65146 0.0
C2525 C 0.0722 0.90313 0.64146 0.0
C2526 C 0.05399 0.90429 0.6432 0.0
H2527 H 0.01716 0.85173 0.63747 0.0
H2528 H 0.03728 0.86406 0.63627 0.0
H2529 H 0.03084 0.85393 0.65645 0.0
H2530 H 0.04816 0.87409 0.67531 0.0
H2531 H 0.07987 0.87178 0.67212 0.0
H2532 H 0.59798 0.42303 0.16474 0.0
H2533 H 0.59417 0.45333 0.1751 0.0
H2534 H 0.59581 0.47144 0.12178 0.0
H2535 H 0.59927 0.44163 0.1115 0.0
H2536 H 0.61757 0.47937 0.17118 0.0
H2537 H 0.55634 0.50043 0.14013 0.0
H2538 H 0.56201 0.47761 0.1422 0.0
H2539 H 0.56992 0.4903 0.12398 0.0
C2540 C 0.59704 0.43347 0.15526 0.0
C2541 C 0.59897 0.42993 0.13731 0.0
C2542 C 0.59491 0.45077 0.16118 0.0
C2543 C 0.59439 0.4647 0.14921 0.0
C2544 C 0.59566 0.46098 0.13129 0.0
H2545 H 0.64234 0.55889 0.1371 0.0
H2546 H 0.63286 0.52958 0.14465 0.0
C2547 C 0.59784 0.44386 0.12542 0.0
C2548 C 0.59477 0.48328 0.15507 0.0
H2549 H 0.57894 0.52331 0.14348 0.0
C2550 C 0.6088 0.48895 0.16556 0.0
C2551 C 0.58314 0.49588 0.14816 0.0
C2552 C 0.5669 0.49068 0.13816 0.0
C2553 C 0.61253 0.50683 0.16773 0.0
C2554 C 0.60222 0.51935 0.15888 0.0
C2555 C 0.58711 0.51375 0.14999 0.0
C2556 C 0.60838 0.53764 0.15629 0.0
C2557 C 0.628 0.51209 0.17885 0.0
C2558 C 0.59769 0.55211 0.16009 0.0
C2559 C 0.60311 0.56911 0.15565 0.0
C2560 C 0.61915 0.57182 0.14706 0.0
C2561 C 0.6299 0.55732 0.14367 0.0
C2562 C 0.62457 0.54049 0.14817 0.0
H2563 H 0.62996 0.50269 0.18971 0.0
H2564 H 0.64001 0.51193 0.17071 0.0
H2565 H 0.62637 0.52541 0.18443 0.0
H2566 H 0.58504 0.5502 0.16616 0.0
H2567 H 0.5945 0.58 0.15834 0.0
H2568 H 0.93118 0.07311 0.6322 0.0
H2569 H 0.96262 0.07324 0.638 0.0
H2570 H 0.95654 0.11805 0.67179 0.0
H2571 H 0.92502 0.11784 0.66629 0.0
H2572 H 0.98418 0.0998 0.62897 0.0
H2573 H 0.98992 0.08847 0.70021 0.0
H2574 H 0.97002 0.08407 0.6882 0.0
H2575 H 0.97537 0.10603 0.69487 0.0
C2576 C 0.93644 0.08277 0.64119 0.0
C2577 C 0.92552 0.09549 0.64875 0.0
C2578 C 0.95446 0.08284 0.64447 0.0
C2579 C 0.962 0.09557 0.65543 0.0
C2580 C 0.95104 0.10786 0.66357 0.0
H2581 H 0.06462 0.13826 0.67328 0.0
H2582 H 0.03391 0.12946 0.67459 0.0
C2583 C 0.93298 0.10776 0.66035 0.0
C2584 C 0.98141 0.09709 0.65683 0.0
H2585 H 0.01545 0.09958 0.68584 0.0
C2586 C 0.99104 0.09951 0.64139 0.0
C2587 C 0.99037 0.09682 0.67304 0.0
C2588 C 0.98092 0.09354 0.69001 0.0
C2589 C 0.00922 0.10222 0.64173 0.0
C2590 C 0.01817 0.10219 0.65796 0.0
C2591 C 0.00861 0.09953 0.6734 0.0
C2592 C 0.03726 0.106 0.65911 0.0
C2593 C 0.01858 0.1058 0.62474 0.0
C2594 C 0.04956 0.09535 0.65058 0.0
C2595 C 0.0672 0.10036 0.64977 0.0
C2596 C 0.07289 0.11611 0.65754 0.0
C2597 C 0.06072 0.12611 0.66705 0.0
C2598 C 0.04312 0.12109 0.66784 0.0
H2599 H 0.00934 0.10925 0.61408 0.0
H2600 H 0.02817 0.11664 0.62632 0.0
H2601 H 0.02581 0.09393 0.62065 0.0
H2602 H 0.04541 0.08345 0.64405 0.0
H2603 H 0.07619 0.0923 0.64239 0.0
H2604 H 0.37275 0.5653 0.11908 0.0
H2605 H 0.37796 0.53541 0.12795 0.0
H2606 H 0.41103 0.5535 0.17006 0.0
H2607 H 0.40605 0.584 0.16095 0.0
H2608 H 0.42513 0.5251 0.1522 0.0
H2609 H 0.35668 0.51059 0.16943 0.0
H2610 H 0.35778 0.51978 0.14795 0.0
H2611 H 0.36459 0.53267 0.16656 0.0
C2612 C 0.38109 0.56309 0.13031 0.0
C2613 C 0.38884 0.57715 0.13941 0.0
C2614 C 0.38396 0.54589 0.13544 0.0
C2615 C 0.39449 0.54217 0.14996 0.0
C2616 C 0.40265 0.55608 0.15894 0.0
H2617 H 0.38615 0.42946 0.16921 0.0
H2618 H 0.38829 0.46055 0.1768 0.0
C2619 C 0.39981 0.57348 0.15373 0.0
C2620 C 0.39713 0.5236 0.15502 0.0
H2621 H 0.37411 0.48568 0.16024 0.0
C2622 C 0.41403 0.5165 0.15438 0.0
C2623 C 0.38276 0.51238 0.15837 0.0
C2624 C 0.36447 0.51931 0.16082 0.0
C2625 C 0.41672 0.49833 0.15548 0.0
C2626 C 0.40208 0.48695 0.15675 0.0
C2627 C 0.38538 0.49424 0.15893 0.0
C2628 C 0.40339 0.46767 0.15396 0.0
C2629 C 0.43521 0.49157 0.15495 0.0
C2630 C 0.41144 0.46113 0.1388 0.0
C2631 C 0.41045 0.44336 0.13459 0.0
C2632 C 0.40103 0.43168 0.14521 0.0
C2633 C 0.3935 0.43807 0.16074 0.0
C2634 C 0.3947 0.45588 0.16507 0.0
H2635 H 0.44436 0.501 0.16128 0.0
H2636 H 0.43641 0.47875 0.16159 0.0
H2637 H 0.43936 0.49009 0.14113 0.0
H2638 H 0.41773 0.4699 0.12966 0.0
H2639 H 0.41632 0.43898 0.12246 0.0
H2640 H 0.3366 0.08229 0.11571 0.0
H2641 H 0.33179 0.0506 0.11472 0.0
H2642 H 0.37689 0.04477 0.08146 0.0
H2643 H 0.38146 0.07633 0.08192 0.0
H2644 H 0.35083 0.02156 0.07258 0.0
H2645 H 0.36348 0.02029 0.14423 0.0
H2646 H 0.34511 0.03322 0.13757 0.0
H2647 H 0.36685 0.03966 0.13131 0.0
C2648 C 0.34528 0.0743 0.10789 0.0
C2649 C 0.35958 0.08186 0.09912 0.0
C2650 C 0.34258 0.05616 0.10743 0.0
C2651 C 0.35425 0.04524 0.09839 0.0
C2652 C 0.36776 0.05289 0.08862 0.0
H2653 H 0.3953 0.94591 0.11995 0.0
H2654 H 0.38742 0.97618 0.11469 0.0
C2655 C 0.37039 0.07099 0.08895 0.0
C2656 C 0.35358 0.02587 0.10028 0.0
H2657 H 0.35961 0.99334 0.13017 0.0
C2658 C 0.35251 0.01535 0.08519 0.0
C2659 C 0.35596 0.01777 0.11674 0.0
C2660 C 0.35807 0.02826 0.13339 0.0
C2661 C 0.35434 0.99705 0.08606 0.0
C2662 C 0.35708 0.98905 0.10248 0.0
C2663 C 0.35743 0.9995 0.1176 0.0
C2664 C 0.36176 0.97027 0.10424 0.0
C2665 C 0.35424 0.9865 0.06936 0.0
C2666 C 0.35003 0.95672 0.09986 0.0
C2667 C 0.35458 0.93917 0.10279 0.0
C2668 C 0.37084 0.93497 0.1103 0.0
C2669 C 0.38261 0.94861 0.11427 0.0
C2670 C 0.37813 0.96598 0.11128 0.0
H2671 H 0.3547 0.99494 0.05757 0.0
H2672 H 0.36556 0.97745 0.06903 0.0
H2673 H 0.34213 0.97849 0.06875 0.0
H2674 H 0.33723 0.95973 0.09462 0.0
H2675 H 0.34521 0.92897 0.09967 0.0
H2676 H 0.42879 0.84826 0.59797 0.0
H2677 H 0.45928 0.84078 0.5907 0.0
H2678 H 0.47722 0.87018 0.6355 0.0
H2679 H 0.44727 0.87773 0.64271 0.0
H2680 H 0.49365 0.87916 0.60347 0.0
H2681 H 0.49454 0.80749 0.61618 0.0
H2682 H 0.47747 0.8161 0.60244 0.0
H2683 H 0.47791 0.82157 0.62525 0.0
C2684 C 0.43925 0.85292 0.60635 0.0
C2685 C 0.43557 0.86368 0.62086 0.0
C2686 C 0.45664 0.84862 0.6022 0.0
C2687 C 0.47053 0.85492 0.61258 0.0
C2688 C 0.46675 0.86523 0.62727 0.0
H2689 H 0.57604 0.83868 0.63753 0.0
H2690 H 0.54456 0.83662 0.63282 0.0
C2691 C 0.44955 0.86953 0.63136 0.0
C2692 C 0.48916 0.85179 0.60805 0.0
H2693 H 0.52141 0.821 0.60957 0.0
C2694 C 0.49971 0.8664 0.60447 0.0
C2695 C 0.49699 0.83515 0.60949 0.0
C2696 C 0.48625 0.81912 0.61363 0.0
C2697 C 0.51797 0.865 0.60318 0.0
C2698 C 0.52593 0.84842 0.60513 0.0
C2699 C 0.51529 0.83366 0.60795 0.0
C2700 C 0.54529 0.84665 0.60642 0.0
C2701 C 0.52861 0.88152 0.6009 0.0
C2702 C 0.55634 0.85217 0.59285 0.0
C2703 C 0.57444 0.85354 0.59556 0.0
C2704 C 0.58182 0.84922 0.61185 0.0
C2705 C 0.57084 0.84227 0.62487 0.0
C2706 C 0.55278 0.84103 0.62218 0.0
H2707 H 0.52069 0.89348 0.60313 0.0
H2708 H 0.53989 0.88177 0.61007 0.0
H2709 H 0.53377 0.88202 0.58737 0.0
H2710 H 0.5509 0.8562 0.58042 0.0
H2711 H 0.5825 0.8588 0.58519 0.0
H2712 H 0.65648 0.07941 0.1027 0.0
H2713 H 0.66409 0.04878 0.09634 0.0
H2714 H 0.61692 0.03167 0.12207 0.0
H2715 H 0.60947 0.06182 0.12867 0.0
H2716 H 0.64586 0.01399 0.13329 0.0
H2717 H 0.64263 0.01467 0.0606 0.0
H2718 H 0.6568 0.03055 0.07078 0.0
H2719 H 0.63358 0.032 0.07384 0.0
C2720 C 0.6477 0.06909 0.10685 0.0
C2721 C 0.6324 0.07309 0.11625 0.0
C2722 C 0.65202 0.05161 0.10316 0.0
C2723 C 0.64102 0.0379 0.10865 0.0
C2724 C 0.62566 0.04198 0.11775 0.0
H2725 H 0.6188 0.93277 0.08363 0.0
H2726 H 0.62349 0.96429 0.08421 0.0
C2727 C 0.62141 0.05929 0.1215 0.0
C2728 C 0.64543 0.01918 0.10567 0.0
H2729 H 0.6484 0.98766 0.07402 0.0
C2730 C 0.64666 0.00825 0.12033 0.0
C2731 C 0.64638 0.01171 0.08875 0.0
C2732 C 0.64467 0.02275 0.07254 0.0
C2733 C 0.64796 0.99001 0.11859 0.0
C2734 C 0.64856 0.98245 0.10166 0.0
C2735 C 0.64807 0.99346 0.08698 0.0
C2736 C 0.64758 0.96316 0.09903 0.0
C2737 C 0.64755 0.97899 0.13493 0.0
C2738 C 0.65998 0.95187 0.1065 0.0
C2739 C 0.65722 0.93373 0.10637 0.0
C2740 C 0.64213 0.92654 0.09856 0.0
C2741 C 0.63051 0.93781 0.08989 0.0
C2742 C 0.63319 0.9559 0.09017 0.0
H2743 H 0.64327 0.98661 0.14655 0.0
H2744 H 0.63859 0.96765 0.13328 0.0
H2745 H 0.66086 0.97395 0.13762 0.0
H2746 H 0.67143 0.95713 0.11303 0.0
H2747 H 0.66654 0.92544 0.11303 0.0
H2748 H 0.56902 0.16801 0.64685 0.0
H2749 H 0.53798 0.17173 0.64031 0.0
H2750 H 0.54436 0.14309 0.5921 0.0
H2751 H 0.57546 0.13908 0.59865 0.0
H2752 H 0.51881 0.18591 0.61198 0.0
H2753 H 0.50768 0.11433 0.61881 0.0
H2754 H 0.52776 0.12478 0.62565 0.0
H2755 H 0.5237 0.12065 0.60286 0.0
C2756 C 0.56393 0.16271 0.63471 0.0
C2757 C 0.57475 0.15306 0.62338 0.0
C2758 C 0.54614 0.16486 0.63099 0.0
C2759 C 0.53875 0.15739 0.6159 0.0
C2760 C 0.5497 0.14868 0.60401 0.0
H2761 H 0.42712 0.14062 0.59435 0.0
H2762 H 0.45873 0.14356 0.58996 0.0
C2763 C 0.56753 0.14651 0.60772 0.0
C2764 C 0.51945 0.15781 0.61332 0.0
H2765 H 0.48313 0.13162 0.61281 0.0
C2766 C 0.51101 0.17404 0.61202 0.0
C2767 C 0.50925 0.14231 0.61335 0.0
C2768 C 0.51747 0.12451 0.61538 0.0
C2769 C 0.49266 0.17519 0.61093 0.0
C2770 C 0.48245 0.15972 0.61151 0.0
C2771 C 0.49093 0.14348 0.6123 0.0
C2772 C 0.46299 0.16 0.61268 0.0
C2773 C 0.48441 0.19299 0.60919 0.0
C2774 C 0.45476 0.16848 0.62673 0.0
C2775 C 0.43671 0.16686 0.62925 0.0
C2776 C 0.42644 0.15659 0.61784 0.0
C2777 C 0.43458 0.14869 0.60335 0.0
C2778 C 0.45268 0.15031 0.60085 0.0
H2779 H 0.49359 0.20249 0.60314 0.0
H2780 H 0.47229 0.19238 0.60119 0.0
H2781 H 0.481 0.19799 0.62238 0.0
H2782 H 0.46241 0.1757 0.63627 0.0
H2783 H 0.43093 0.17307 0.64059 0.0
H2784 H 0.3495 0.0703 0.90907 0.0
H2785 H 0.34237 0.03967 0.91614 0.0
H2786 H 0.37678 0.0222 0.87509 0.0
H2787 H 0.38408 0.05229 0.86819 0.0
H2788 H 0.32787 0.01283 0.89557 0.0
H2789 H 0.39433 0.99471 0.9169 0.0
H2790 H 0.3876 0.01719 0.91457 0.0
H2791 H 0.3948 0.00485 0.89581 0.0
C2792 C 0.35556 0.0599 0.90163 0.0
C2793 C 0.36749 0.06378 0.88818 0.0
C2794 C 0.35148 0.04242 0.90567 0.0
C2795 C 0.35935 0.02862 0.8964 0.0
C2796 C 0.3709 0.03257 0.88275 0.0
H2797 H 0.33433 0.9256 0.86673 0.0
H2798 H 0.33404 0.95673 0.87324 0.0
C2799 C 0.37499 0.04987 0.87876 0.0
C2800 C 0.35547 0.00998 0.90041 0.0
H2801 H 0.37597 0.97095 0.90671 0.0
C2802 C 0.33831 0.00369 0.89837 0.0
C2803 C 0.36897 0.99805 0.9045 0.0
C2804 C 0.38742 0.00408 0.90827 0.0
C2805 C 0.33456 0.98566 0.89901 0.0
C2806 C 0.34841 0.97359 0.90132 0.0
C2807 C 0.36532 0.98005 0.90466 0.0
C2808 C 0.34616 0.95436 0.89874 0.0
C2809 C 0.31582 0.97978 0.89696 0.0
C2810 C 0.35312 0.94242 0.91082 0.0
C2811 C 0.35362 0.92449 0.90695 0.0
C2812 C 0.34713 0.91811 0.89091 0.0
C2813 C 0.33934 0.92998 0.87927 0.0
C2814 C 0.33902 0.94788 0.88305 0.0
H2815 H 0.3067 0.98973 0.9023 0.0
H2816 H 0.31279 0.97818 0.88285 0.0
H2817 H 0.31337 0.96715 0.90366 0.0
H2818 H 0.35878 0.94704 0.92299 0.0
H2819 H 0.35973 0.91574 0.91622 0.0
H2820 H 0.5707 0.87763 0.41625 0.0
H2821 H 0.5393 0.8726 0.41625 0.0
H2822 H 0.5462 0.82671 0.38407 0.0
H2823 H 0.57781 0.83204 0.38351 0.0
H2824 H 0.52292 0.84697 0.37009 0.0
H2825 H 0.50536 0.84089 0.43957 0.0
H2826 H 0.51792 0.86043 0.43641 0.0
H2827 H 0.52772 0.83942 0.43216 0.0
C2828 C 0.56565 0.86621 0.40948 0.0
C2829 C 0.57684 0.8553 0.39978 0.0
C2830 C 0.5476 0.86325 0.40964 0.0
C2831 C 0.54027 0.84912 0.40037 0.0
C2832 C 0.55151 0.83766 0.3914 0.0
H2833 H 0.42398 0.84428 0.39733 0.0
H2834 H 0.45434 0.83505 0.40288 0.0
C2835 C 0.5696 0.8407 0.39112 0.0
C2836 C 0.52092 0.84782 0.3982 0.0
H2837 H 0.48232 0.85198 0.42037 0.0
C2838 C 0.51407 0.84765 0.38114 0.0
C2839 C 0.50919 0.84841 0.41253 0.0
C2840 C 0.51546 0.84709 0.43118 0.0
C2841 C 0.49606 0.84933 0.37803 0.0
C2842 C 0.48455 0.85167 0.39231 0.0
C2843 C 0.49117 0.85053 0.4094 0.0
C2844 C 0.46608 0.8571 0.38961 0.0
C2845 C 0.48958 0.84904 0.35938 0.0
C2846 C 0.46264 0.87273 0.38077 0.0
C2847 C 0.44549 0.87797 0.37758 0.0
C2848 C 0.43125 0.8678 0.38331 0.0
C2849 C 0.43465 0.85237 0.39268 0.0
C2850 C 0.45196 0.84708 0.39585 0.0
H2851 H 0.49847 0.8414 0.35081 0.0
H2852 H 0.47622 0.84336 0.35844 0.0
H2853 H 0.48919 0.86262 0.35432 0.0
H2854 H 0.47328 0.88092 0.37624 0.0
H2855 H 0.44344 0.89004 0.37051 0.0
H2856 H 0.62741 0.06782 0.92881 0.0
H2857 H 0.63354 0.03659 0.92876 0.0
H2858 H 0.66929 0.04345 0.88577 0.0
H2859 H 0.66293 0.0748 0.88547 0.0
H2860 H 0.64523 0.0187 0.87887 0.0
H2861 H 0.67313 0.00574 0.94419 0.0
H2862 H 0.65296 0.01753 0.94565 0.0
H2863 H 0.67162 0.02753 0.93531 0.0
C2864 C 0.6369 0.06281 0.91958 0.0
C2865 C 0.6446 0.07386 0.90708 0.0
C2866 C 0.6405 0.04489 0.91967 0.0
C2867 C 0.65204 0.03762 0.9074 0.0
C2868 C 0.66041 0.04875 0.89543 0.0
H2869 H 0.66138 0.92648 0.87784 0.0
H2870 H 0.66902 0.95736 0.88201 0.0
C2871 C 0.65679 0.0667 0.89531 0.0
C2872 C 0.65362 0.01828 0.90574 0.0
H2873 H 0.6603 0.98091 0.92922 0.0
C2874 C 0.64888 0.01045 0.88977 0.0
C2875 C 0.65831 0.00748 0.91999 0.0
C2876 C 0.66446 0.01502 0.93719 0.0
C2877 C 0.64781 0.9922 0.88792 0.0
C2878 C 0.65186 0.98141 0.90236 0.0
C2879 C 0.65718 0.98919 0.91816 0.0
C2880 C 0.64923 0.96215 0.90161 0.0
C2881 C 0.64147 0.98463 0.87077 0.0
C2882 C 0.63617 0.95438 0.91188 0.0
C2883 C 0.63183 0.93673 0.9096 0.0
C2884 C 0.64051 0.92646 0.89704 0.0
C2885 C 0.65437 0.93401 0.88757 0.0
C2886 C 0.65869 0.95169 0.88985 0.0
H2887 H 0.63574 0.99477 0.86213 0.0
H2888 H 0.65264 0.97859 0.86379 0.0
H2889 H 0.63148 0.97431 0.87302 0.0
H2890 H 0.62876 0.96217 0.92109 0.0
H2891 H 0.62116 0.93135 0.9172 0.0
H2892 H 0.43054 0.15896 0.3825 0.0
H2893 H 0.46241 0.16035 0.38443 0.0
H2894 H 0.46094 0.13055 0.43215 0.0
H2895 H 0.42904 0.1287 0.43009 0.0
H2896 H 0.4878 0.17125 0.40855 0.0
H2897 H 0.48853 0.09907 0.39927 0.0
H2898 H 0.46894 0.11183 0.39661 0.0
H2899 H 0.47676 0.10657 0.41814 0.0
C2900 C 0.43693 0.15298 0.39361 0.0
C2901 C 0.42722 0.14346 0.40598 0.0
C2902 C 0.45519 0.15381 0.3947 0.0
C2903 C 0.4641 0.14521 0.40821 0.0
C2904 C 0.45436 0.13694 0.42138 0.0
H2905 H 0.58038 0.14339 0.41259 0.0
H2906 H 0.54988 0.14918 0.42112 0.0
C2907 C 0.43611 0.13597 0.42022 0.0
C2908 C 0.48346 0.14343 0.40743 0.0
H2909 H 0.51569 0.11323 0.40127 0.0
C2910 C 0.49396 0.15856 0.40716 0.0
C2911 C 0.49145 0.12687 0.40542 0.0
C2912 C 0.48088 0.11015 0.40471 0.0
C2913 C 0.51217 0.15757 0.40454 0.0
C2914 C 0.52005 0.14101 0.40231 0.0
C2915 C 0.50962 0.1259 0.40311 0.0
C2916 C 0.53867 0.13895 0.39715 0.0
C2917 C 0.52273 0.17421 0.40338 0.0
C2918 C 0.54247 0.13133 0.38091 0.0
C2919 C 0.5597 0.12793 0.37611 0.0
C2920 C 0.57365 0.13204 0.38743 0.0
C2921 C 0.56993 0.14012 0.40357 0.0
C2922 C 0.55253 0.14349 0.40842 0.0
H2923 H 0.5143 0.186 0.40284 0.0
H2924 H 0.53134 0.17533 0.41502 0.0
H2925 H 0.53121 0.17397 0.39161 0.0
H2926 H 0.53201 0.12776 0.37199 0.0
H2927 H 0.56203 0.12182 0.36353 0.0
H2928 H 0.11164 0.35369 0.92783 0.0
H2929 H 0.1094 0.34776 0.95918 0.0
H2930 H 0.06947 0.38715 0.96393 0.0
H2931 H 0.0714 0.39295 0.93267 0.0
H2932 H 0.11692 0.37164 0.98449 0.0
H2933 H 0.04894 0.34841 0.99341 0.0
H2934 H 0.05934 0.34915 0.97224 0.0
H2935 H 0.04999 0.36862 0.98161 0.0
C2936 C 0.10207 0.3608 0.93545 0.0
C2937 C 0.09172 0.37383 0.92769 0.0
C2938 C 0.10084 0.35741 0.95341 0.0
C2939 C 0.08914 0.36687 0.96394 0.0
C2940 C 0.07831 0.37939 0.95607 0.0
H2941 H 0.07451 0.39456 0.07104 0.0
H2942 H 0.07218 0.38868 0.03972 0.0
C2943 C 0.07952 0.38277 0.93815 0.0
C2944 C 0.08954 0.36507 0.98332 0.0
H2945 H 0.06362 0.35911 0.01921 0.0
C2946 C 0.10534 0.36858 0.99208 0.0
C2947 C 0.07441 0.36118 0.99323 0.0
C2948 C 0.05726 0.35646 0.98463 0.0
C2949 C 0.10624 0.36911 0.01042 0.0
C2950 C 0.091 0.36571 0.02035 0.0
C2951 C 0.0753 0.36171 0.01161 0.0
C2952 C 0.09088 0.36753 0.03972 0.0
C2953 C 0.12334 0.37416 0.019 0.0
C2954 C 0.10167 0.35714 0.0503 0.0
C2955 C 0.10308 0.36049 0.06828 0.0
C2956 C 0.09365 0.37426 0.07602 0.0
C2957 C 0.08205 0.38392 0.06554 0.0
C2958 C 0.08067 0.38056 0.0476 0.0
H2959 H 0.13272 0.37992 0.00953 0.0
H2960 H 0.12117 0.38372 0.02973 0.0
H2961 H 0.12946 0.36234 0.0247 0.0
H2962 H 0.10941 0.34678 0.04457 0.0
H2963 H 0.11207 0.35274 0.07596 0.0
H2964 H 0.12648 0.66846 0.91583 0.0
H2965 H 0.12408 0.67207 0.9476 0.0
H2966 H 0.07602 0.64245 0.94723 0.0
H2967 H 0.07835 0.63864 0.91559 0.0
H2968 H 0.0971 0.68514 0.97114 0.0
H2969 H 0.10949 0.61406 0.97884 0.0
H2970 H 0.11341 0.62544 0.95859 0.0
H2971 H 0.09154 0.6193 0.96464 0.0
C2972 C 0.1152 0.66301 0.92244 0.0
C2973 C 0.1027 0.65308 0.91313 0.0
C2974 C 0.11388 0.66507 0.94062 0.0
C2975 C 0.10006 0.65724 0.94983 0.0
C2976 C 0.08697 0.64834 0.94044 0.0
H2977 H 0.07932 0.63491 0.05883 0.0
H2978 H 0.07715 0.63947 0.02732 0.0
C2979 C 0.08829 0.64625 0.9223 0.0
C2980 C 0.09995 0.65721 0.9693 0.0
H2981 H 0.10243 0.62985 0.00441 0.0
C2982 C 0.09829 0.67307 0.97845 0.0
C2983 C 0.1016 0.64146 0.97882 0.0
C2984 C 0.10427 0.6241 0.96977 0.0
C2985 C 0.09779 0.67354 0.99688 0.0
C2986 C 0.09931 0.65775 0.00638 0.0
C2987 C 0.10111 0.64194 0.99717 0.0
C2988 C 0.09928 0.65712 0.02587 0.0
C2989 C 0.09524 0.69087 0.00598 0.0
C2990 C 0.11223 0.6658 0.03571 0.0
C2991 C 0.11344 0.6633 0.05383 0.0
C2992 C 0.10185 0.65188 0.06246 0.0
C2993 C 0.08849 0.64377 0.05266 0.0
C2994 C 0.08724 0.64634 0.0346 0.0
H2995 H 0.08946 0.70075 0.99708 0.0
H2996 H 0.08667 0.68946 0.01759 0.0
H2997 H 0.10813 0.6959 0.01045 0.0
H2998 H 0.1219 0.6739 0.02928 0.0
H2999 H 0.12398 0.66965 0.06092 0.0
H3000 H 0.84308 0.62821 0.42697 0.0
H3001 H 0.8398 0.62236 0.45817 0.0
H3002 H 0.87041 0.57545 0.45266 0.0
H3003 H 0.87398 0.58128 0.42141 0.0
H3004 H 0.82736 0.59341 0.47854 0.0
H3005 H 0.89862 0.60585 0.48745 0.0
H3006 H 0.88723 0.61132 0.46754 0.0
H3007 H 0.89286 0.589 0.47203 0.0
C3008 C 0.84889 0.61647 0.43229 0.0
C3009 C 0.85901 0.60535 0.4217 0.0
C3010 C 0.84696 0.61314 0.45015 0.0
C3011 C 0.85514 0.59866 0.45779 0.0
C3012 C 0.86425 0.58687 0.44707 0.0
H3013 H 0.87689 0.58477 0.56926 0.0
H3014 H 0.87286 0.5779 0.53823 0.0
C3015 C 0.8662 0.59019 0.42918 0.0
C3016 C 0.85529 0.59682 0.47712 0.0
H3017 H 0.88226 0.59998 0.51262 0.0
C3018 C 0.83937 0.59467 0.48601 0.0
C3019 C 0.87098 0.59847 0.48685 0.0
C3020 C 0.8884 0.60142 0.47806 0.0
C3021 C 0.83871 0.59434 0.50439 0.0
C3022 C 0.85434 0.59658 0.51412 0.0
C3023 C 0.87029 0.59818 0.50519 0.0
C3024 C 0.85446 0.5988 0.53346 0.0
C3025 C 0.82128 0.59163 0.51319 0.0
C3026 C 0.84519 0.61259 0.54124 0.0
C3027 C 0.8474 0.6165 0.55898 0.0
C3028 C 0.85911 0.60683 0.56932 0.0
C3029 C 0.86775 0.59248 0.56171 0.0
C3030 C 0.86549 0.58856 0.54395 0.0
H3031 H 0.8121 0.58426 0.5046 0.0
H3032 H 0.82273 0.58446 0.5257 0.0
H3033 H 0.81533 0.60455 0.516 0.0
H3034 H 0.83692 0.62095 0.5334 0.0
H3035 H 0.84057 0.62767 0.56436 0.0
H3036 H 0.89591 0.32333 0.92661 0.0
H3037 H 0.89806 0.31393 0.95726 0.0
H3038 H 0.89739 0.36788 0.97395 0.0
H3039 H 0.89611 0.37725 0.94378 0.0
H3040 H 0.91938 0.35048 0.99336 0.0
H3041 H 0.8571 0.3127 0.98947 0.0
H3042 H 0.87441 0.3053 0.97549 0.0
H3043 H 0.86455 0.32628 0.97177 0.0
C3044 C 0.89647 0.33315 0.93684 0.0
C3045 C 0.89567 0.35104 0.93269 0.0
C3046 C 0.89754 0.32776 0.95438 0.0
C3047 C 0.8975 0.34017 0.96804 0.0
C3048 C 0.89742 0.35799 0.96376 0.0
H3049 H 0.85084 0.35023 0.0646 0.0
H3050 H 0.86034 0.3446 0.03496 0.0
C3051 C 0.89661 0.36335 0.94638 0.0
C3052 C 0.8966 0.33515 0.98687 0.0
H3053 H 0.86934 0.31685 0.01712 0.0
C3054 C 0.90857 0.3429 0.99857 0.0
C3055 C 0.88253 0.32521 0.9937 0.0
C3056 C 0.86882 0.31698 0.98202 0.0
C3057 C 0.90608 0.34226 0.01678 0.0
C3058 C 0.89155 0.33299 0.02359 0.0
C3059 C 0.88044 0.324 0.01193 0.0
C3060 C 0.88589 0.33486 0.04218 0.0
C3061 C 0.91828 0.35267 0.0284 0.0
C3062 C 0.89693 0.33097 0.0564 0.0
C3063 C 0.89157 0.33452 0.07364 0.0
C3064 C 0.87497 0.34172 0.07693 0.0
C3065 C 0.86374 0.34475 0.06268 0.0
C3066 C 0.86915 0.34146 0.0456 0.0
H3067 H 0.92674 0.36171 0.0208 0.0
H3068 H 0.91079 0.36049 0.03807 0.0
H3069 H 0.92691 0.34359 0.03564 0.0
H3070 H 0.90975 0.32544 0.05419 0.0
H3071 H 0.90049 0.3319 0.08432 0.0
H3072 H 0.1405 0.41644 0.5801 0.0
H3073 H 0.14529 0.42509 0.54946 0.0
H3074 H 0.11265 0.3823 0.53219 0.0
H3075 H 0.10772 0.37373 0.56233 0.0
H3076 H 0.15891 0.40552 0.52006 0.0
H3077 H 0.09025 0.42543 0.50937 0.0
H3078 H 0.09942 0.42253 0.53094 0.0
H3079 H 0.09192 0.40392 0.51851 0.0
C3080 C 0.13438 0.4089 0.56974 0.0
C3081 C 0.12358 0.39451 0.57371 0.0
C3082 C 0.13714 0.41384 0.55227 0.0
C3083 C 0.12905 0.40452 0.53857 0.0
C3084 C 0.11872 0.3899 0.54254 0.0
H3085 H 0.14407 0.3867 0.43008 0.0
H3086 H 0.14743 0.38887 0.46172 0.0
C3087 C 0.11596 0.385 0.55986 0.0
C3088 C 0.1311 0.40982 0.52 0.0
H3089 H 0.10696 0.41898 0.48364 0.0
C3090 C 0.14763 0.40878 0.51211 0.0
C3091 C 0.11645 0.41439 0.50969 0.0
C3092 C 0.09854 0.41682 0.51759 0.0
C3093 C 0.14969 0.41115 0.49397 0.0
C3094 C 0.13476 0.41432 0.48344 0.0
C3095 C 0.11843 0.41638 0.49158 0.0
C3096 C 0.13534 0.41435 0.46395 0.0
C3097 C 0.16781 0.4101 0.4863 0.0
C3098 C 0.12747 0.42794 0.45448 0.0
C3099 C 0.12525 0.42659 0.43635 0.0
C3100 C 0.13091 0.41162 0.42726 0.0
C3101 C 0.13968 0.39848 0.43661 0.0
C3102 C 0.14172 0.39976 0.45477 0.0
H3103 H 0.17787 0.4141 0.49603 0.0
H3104 H 0.17054 0.39637 0.48247 0.0
H3105 H 0.16912 0.4185 0.47456 0.0
H3106 H 0.12239 0.43932 0.46123 0.0
H3107 H 0.11847 0.43697 0.42957 0.0
H3108 H 0.88971 0.594 0.9369 0.0
H3109 H 0.89572 0.60285 0.96683 0.0
H3110 H 0.91262 0.6536 0.94899 0.0
H3111 H 0.90622 0.64485 0.91862 0.0
H3112 H 0.92518 0.61466 0.98426 0.0
H3113 H 0.87304 0.6654 0.98303 0.0
H3114 H 0.87521 0.64938 0.96581 0.0
H3115 H 0.89044 0.66724 0.96735 0.0
C3116 C 0.89483 0.60703 0.93923 0.0
C3117 C 0.89726 0.6188 0.92536 0.0
C3118 C 0.89835 0.61205 0.95641 0.0
C3119 C 0.90438 0.62897 0.96023 0.0
C3120 C 0.90769 0.64056 0.94637 0.0
H3121 H 0.91478 0.63884 0.07578 0.0
H3122 H 0.92328 0.64406 0.04521 0.0
C3123 C 0.90415 0.63551 0.92903 0.0
C3124 C 0.9059 0.63433 0.97889 0.0
H3125 H 0.88429 0.6576 0.01029 0.0
C3126 C 0.91658 0.62436 0.98997 0.0
C3127 C 0.8946 0.64697 0.98629 0.0
C3128 C 0.88257 0.65785 0.9751 0.0
C3129 C 0.91529 0.6257 0.00827 0.0
C3130 C 0.90322 0.63759 0.01567 0.0
C3131 C 0.89355 0.64853 0.00458 0.0
C3132 C 0.89813 0.63662 0.0344 0.0
C3133 C 0.92582 0.61338 0.01946 0.0
C3134 C 0.88104 0.63139 0.03852 0.0
C3135 C 0.87616 0.62853 0.05583 0.0
C3136 C 0.88825 0.63084 0.06952 0.0
C3137 C 0.90519 0.63687 0.06552 0.0
C3138 C 0.91009 0.63975 0.04806 0.0
H3139 H 0.93282 0.60341 0.01156 0.0
H3140 H 0.93567 0.62095 0.02704 0.0
H3141 H 0.91719 0.60653 0.02891 0.0
H3142 H 0.87156 0.6289 0.02825 0.0
H3143 H 0.86296 0.62404 0.05839 0.0
H3144 H 0.83921 0.4044 0.42769 0.0
H3145 H 0.83461 0.41323 0.45828 0.0
H3146 H 0.83877 0.35936 0.47423 0.0
H3147 H 0.84264 0.35047 0.44402 0.0
H3148 H 0.81445 0.37568 0.49307 0.0
H3149 H 0.8751 0.41621 0.49173 0.0
H3150 H 0.85798 0.42257 0.477 0.0
H3151 H 0.86902 0.40209 0.47381 0.0
C3152 C 0.83882 0.39444 0.43771 0.0
C3153 C 0.84154 0.37675 0.43339 0.0
C3154 C 0.83635 0.39952 0.45522 0.0
C3155 C 0.83676 0.38701 0.46868 0.0
C3156 C 0.83846 0.3693 0.46418 0.0
H3157 H 0.87999 0.37753 0.56674 0.0
H3158 H 0.87109 0.38224 0.53672 0.0
C3159 C 0.84076 0.36424 0.44681 0.0
C3160 C 0.83676 0.39198 0.48756 0.0
H3161 H 0.86235 0.41118 0.51892 0.0
C3162 C 0.82473 0.38371 0.49874 0.0
C3163 C 0.85019 0.40246 0.49496 0.0
C3164 C 0.86391 0.41127 0.48384 0.0
C3165 C 0.82653 0.38454 0.51704 0.0
C3166 C 0.84048 0.39432 0.52441 0.0
C3167 C 0.85167 0.40369 0.51325 0.0
C3168 C 0.84559 0.39262 0.54314 0.0
C3169 C 0.81429 0.37387 0.52823 0.0
C3170 C 0.83431 0.39707 0.55698 0.0
C3171 C 0.83935 0.39419 0.57444 0.0
C3172 C 0.85582 0.38696 0.57829 0.0
C3173 C 0.86718 0.38307 0.56437 0.0
C3174 C 0.86213 0.38582 0.5471 0.0
H3175 H 0.80601 0.36485 0.52032 0.0
H3176 H 0.82177 0.36603 0.53786 0.0
H3177 H 0.80552 0.38278 0.53557 0.0
H3178 H 0.82159 0.40265 0.5543 0.0
H3179 H 0.83033 0.39743 0.58485 0.0
H3180 H 0.17712 0.61016 0.5647 0.0
H3181 H 0.18585 0.60562 0.53396 0.0
H3182 H 0.13543 0.62408 0.51694 0.0
H3183 H 0.12676 0.62872 0.54707 0.0
H3184 H 0.17014 0.58508 0.50653 0.0
H3185 H 0.16966 0.65531 0.49007 0.0
H3186 H 0.17017 0.6476 0.51236 0.0
H3187 H 0.14976 0.6488 0.50063 0.0
C3188 C 0.16794 0.61322 0.55437 0.0
C3189 C 0.15131 0.61999 0.55839 0.0
C3190 C 0.17293 0.61063 0.53683 0.0
C3191 C 0.16141 0.61489 0.52313 0.0
C3192 C 0.1447 0.62111 0.52723 0.0
H3193 H 0.13912 0.58473 0.41978 0.0
H3194 H 0.14597 0.58564 0.45082 0.0
C3195 C 0.13975 0.62369 0.54456 0.0
C3196 C 0.16635 0.61287 0.50442 0.0
H3197 H 0.16551 0.63529 0.46593 0.0
C3198 C 0.16952 0.59609 0.49766 0.0
C3199 C 0.16595 0.62726 0.49284 0.0
C3200 C 0.16389 0.64578 0.49937 0.0
C3201 C 0.17096 0.59318 0.47951 0.0
C3202 C 0.16878 0.60737 0.46782 0.0
C3203 C 0.16695 0.62431 0.47474 0.0
C3204 C 0.16664 0.60492 0.44854 0.0
C3205 C 0.17456 0.57487 0.47311 0.0
C3206 C 0.17588 0.6155 0.43668 0.0
C3207 C 0.17174 0.61525 0.4188 0.0
C3208 C 0.15824 0.6044 0.4124 0.0
C3209 C 0.14966 0.59318 0.42417 0.0
C3210 C 0.15369 0.59357 0.44201 0.0
H3211 H 0.18255 0.56755 0.48275 0.0
H3212 H 0.16198 0.56775 0.47153 0.0
H3213 H 0.1815 0.57491 0.46037 0.0
H3214 H 0.18588 0.62445 0.44134 0.0
H3215 H 0.17861 0.62407 0.41014 0.0
H3216 H 0.3256 0.15534 0.3754 0.0
H3217 H 0.29374 0.15481 0.37258 0.0
H3218 H 0.29024 0.11983 0.41653 0.0
H3219 H 0.32209 0.12004 0.41927 0.0
H3220 H 0.27117 0.10822 0.38816 0.0
H3221 H 0.2562 0.17784 0.40225 0.0
H3222 H 0.27192 0.17461 0.38514 0.0
H3223 H 0.27718 0.16826 0.40713 0.0
C3224 C 0.31805 0.14779 0.38469 0.0
C3225 C 0.32644 0.13776 0.3976 0.0
C3226 C 0.29981 0.14751 0.38305 0.0
C3227 C 0.28957 0.13735 0.3944 0.0
C3228 C 0.29787 0.12774 0.40761 0.0
H3229 H 0.17962 0.14057 0.4143 0.0
H3230 H 0.2114 0.14152 0.41431 0.0
C3231 C 0.3161 0.12796 0.40922 0.0
C3232 C 0.27028 0.1361 0.39211 0.0
H3233 H 0.23271 0.16012 0.39239 0.0
C3234 C 0.26274 0.11957 0.38906 0.0
C3235 C 0.2593 0.1509 0.39334 0.0
C3236 C 0.2665 0.16889 0.39729 0.0
C3237 C 0.24454 0.11741 0.3874 0.0
C3238 C 0.23358 0.13223 0.38853 0.0
C3239 C 0.24114 0.14878 0.39137 0.0
C3240 C 0.21417 0.13079 0.38827 0.0
C3241 C 0.23716 0.09923 0.38504 0.0
C3242 C 0.20504 0.12428 0.37362 0.0
C3243 C 0.18667 0.12361 0.37359 0.0
C3244 C 0.17718 0.12959 0.38816 0.0
C3245 C 0.18645 0.13591 0.40281 0.0
C3246 C 0.20467 0.1365 0.40285 0.0
H3247 H 0.24695 0.08899 0.38815 0.0
H3248 H 0.22551 0.09726 0.39348 0.0
H3249 H 0.23302 0.09744 0.37124 0.0
H3250 H 0.21209 0.12004 0.3621 0.0
H3251 H 0.17992 0.11878 0.36208 0.0
H3252 H 0.40182 0.67227 0.87617 0.0
H3253 H 0.39793 0.70374 0.88055 0.0
H3254 H 0.36112 0.70495 0.83782 0.0
H3255 H 0.36472 0.6735 0.83349 0.0
H3256 H 0.40178 0.73319 0.85924 0.0
H3257 H 0.33251 0.72405 0.87873 0.0
H3258 H 0.34759 0.70605 0.87684 0.0
H3259 H 0.33758 0.71511 0.85762 0.0
C3260 C 0.39313 0.67926 0.86749 0.0
C3261 C 0.38346 0.67028 0.85457 0.0
C3262 C 0.39086 0.69727 0.87007 0.0
C3263 C 0.37888 0.70662 0.85982 0.0
C3264 C 0.37009 0.69792 0.84619 0.0
H3265 H 0.34171 0.81275 0.85341 0.0
H3266 H 0.3468 0.78131 0.85088 0.0
C3267 C 0.37229 0.67994 0.84363 0.0
C3268 C 0.37513 0.72531 0.86372 0.0
H3269 H 0.34213 0.75335 0.8747 0.0
C3270 C 0.38878 0.7376 0.86274 0.0
C3271 C 0.35816 0.73104 0.8684 0.0
C3272 C 0.34314 0.71837 0.87064 0.0
C3273 C 0.3858 0.7555 0.86574 0.0
C3274 C 0.36876 0.76125 0.87013 0.0
C3275 C 0.35517 0.74893 0.87133 0.0
C3276 C 0.36466 0.78007 0.87279 0.0
C3277 C 0.40079 0.76821 0.86365 0.0
C3278 C 0.3725 0.78973 0.88638 0.0
C3279 C 0.36955 0.80774 0.88793 0.0
C3280 C 0.35869 0.81644 0.87591 0.0
C3281 C 0.35019 0.80652 0.86287 0.0
C3282 C 0.35311 0.78853 0.86137 0.0
H3283 H 0.41199 0.76225 0.8566 0.0
H3284 H 0.39653 0.78004 0.85645 0.0
H3285 H 0.40544 0.7724 0.87677 0.0
H3286 H 0.38119 0.78339 0.89556 0.0
H3287 H 0.37631 0.81495 0.89814 0.0
H3288 H 0.68183 0.82913 0.34942 0.0
H3289 H 0.71341 0.83329 0.34679 0.0
H3290 H 0.71269 0.86908 0.39046 0.0
H3291 H 0.6811 0.86482 0.39336 0.0
H3292 H 0.7293 0.86486 0.33943 0.0
H3293 H 0.75459 0.83846 0.40205 0.0
H3294 H 0.73276 0.83385 0.39421 0.0
H3295 H 0.73766 0.8545 0.40444 0.0
C3296 C 0.68842 0.8376 0.35874 0.0
C3297 C 0.67889 0.84662 0.37162 0.0
C3298 C 0.70649 0.84002 0.35715 0.0
C3299 C 0.71547 0.85144 0.36845 0.0
C3300 C 0.70613 0.85997 0.38177 0.0
H3301 H 0.82482 0.88592 0.37081 0.0
H3302 H 0.79312 0.88404 0.37515 0.0
C3303 C 0.68803 0.85752 0.3834 0.0
C3304 C 0.73431 0.85534 0.36542 0.0
H3305 H 0.77491 0.85344 0.38409 0.0
C3306 C 0.73927 0.86232 0.34919 0.0
C3307 C 0.74731 0.85219 0.37821 0.0
C3308 C 0.74289 0.8442 0.39566 0.0
C3309 C 0.75683 0.86621 0.34538 0.0
C3310 C 0.76987 0.86281 0.35805 0.0
C3311 C 0.7649 0.8561 0.3744 0.0
C3312 C 0.78881 0.86528 0.35434 0.0
C3313 C 0.76125 0.87412 0.32789 0.0
C3314 C 0.7969 0.85556 0.34103 0.0
C3315 C 0.81498 0.85663 0.33849 0.0
C3316 C 0.82541 0.8674 0.34925 0.0
C3317 C 0.81719 0.8776 0.36219 0.0
C3318 C 0.79908 0.87646 0.36477 0.0
H3319 H 0.74971 0.88054 0.32188 0.0
H3320 H 0.77197 0.88388 0.32912 0.0
H3321 H 0.76564 0.86362 0.31888 0.0
H3322 H 0.78931 0.84662 0.33301 0.0
H3323 H 0.82085 0.84852 0.32847 0.0
H3324 H 0.66141 0.17819 0.85503 0.0
H3325 H 0.657 0.20971 0.85256 0.0
H3326 H 0.62291 0.20862 0.89739 0.0
H3327 H 0.62747 0.1771 0.90015 0.0
H3328 H 0.62538 0.22543 0.84622 0.0
H3329 H 0.65377 0.25068 0.90825 0.0
H3330 H 0.65803 0.22889 0.90024 0.0
H3331 H 0.63775 0.2337 0.91106 0.0
C3332 C 0.65326 0.18468 0.86461 0.0
C3333 C 0.64482 0.17507 0.87781 0.0
C3334 C 0.65069 0.20272 0.86312 0.0
C3335 C 0.63969 0.21159 0.87482 0.0
C3336 C 0.63171 0.20215 0.88839 0.0
H3337 H 0.60463 0.32041 0.87872 0.0
H3338 H 0.60683 0.28871 0.88271 0.0
C3339 C 0.63432 0.18409 0.88993 0.0
C3340 C 0.63567 0.23041 0.87201 0.0
H3341 H 0.63803 0.27092 0.89091 0.0
C3342 C 0.6282 0.23538 0.85599 0.0
C3343 C 0.6392 0.24338 0.8848 0.0
C3344 C 0.64777 0.23897 0.902 0.0
C3345 C 0.62415 0.25292 0.85241 0.0
C3346 C 0.62789 0.26591 0.86509 0.0
C3347 C 0.63511 0.26093 0.88122 0.0
C3348 C 0.62521 0.28483 0.86159 0.0
C3349 C 0.61574 0.25736 0.83514 0.0
C3350 C 0.63461 0.29316 0.84823 0.0
C3351 C 0.63336 0.31125 0.84589 0.0
C3352 C 0.62273 0.32143 0.85691 0.0
C3353 C 0.61284 0.31297 0.86991 0.0
C3354 C 0.61416 0.29486 0.87228 0.0
H3355 H 0.60929 0.24577 0.82911 0.0
H3356 H 0.6059 0.26789 0.83672 0.0
H3357 H 0.62596 0.26205 0.82597 0.0
H3358 H 0.64343 0.28576 0.84 0.0
H3359 H 0.64124 0.31731 0.83583 0.0
H3360 H 0.32496 0.8415 0.64782 0.0
H3361 H 0.29327 0.84532 0.64862 0.0
H3362 H 0.2967 0.88341 0.60737 0.0
H3363 H 0.32852 0.87977 0.60652 0.0
H3364 H 0.27775 0.89488 0.63696 0.0
H3365 H 0.25457 0.82967 0.61476 0.0
H3366 H 0.27038 0.82888 0.63213 0.0
H3367 H 0.27665 0.83729 0.61112 0.0
C3368 C 0.31898 0.85045 0.63866 0.0
C3369 C 0.32933 0.8603 0.62708 0.0
C3370 C 0.30082 0.85258 0.63911 0.0
C3371 C 0.29257 0.86456 0.62798 0.0
C3372 C 0.30278 0.87405 0.61604 0.0
H3373 H 0.18449 0.90175 0.62219 0.0
H3374 H 0.21618 0.89875 0.61914 0.0
C3375 C 0.32097 0.87187 0.61551 0.0
C3376 C 0.2735 0.86798 0.62967 0.0
H3377 H 0.23339 0.84823 0.62792 0.0
C3378 C 0.26802 0.88473 0.63483 0.0
C3379 C 0.26083 0.85471 0.62698 0.0
C3380 C 0.26584 0.83667 0.62079 0.0
C3381 C 0.25026 0.88844 0.63787 0.0
C3382 C 0.23759 0.87512 0.63535 0.0
C3383 C 0.24309 0.85843 0.62996 0.0
C3384 C 0.21857 0.87809 0.63825 0.0
C3385 C 0.24532 0.90643 0.64429 0.0
C3386 C 0.20928 0.8675 0.65 0.0
C3387 C 0.19113 0.86911 0.6517 0.0
C3388 C 0.18182 0.88131 0.64163 0.0
C3389 C 0.19123 0.89233 0.63029 0.0
C3390 C 0.2094 0.89066 0.62855 0.0
H3391 H 0.25669 0.91343 0.65013 0.0
H3392 H 0.24054 0.91428 0.6331 0.0
H3393 H 0.23473 0.90572 0.65418 0.0
H3394 H 0.21604 0.85771 0.65763 0.0
H3395 H 0.18434 0.86037 0.66053 0.0
H3396 H 0.64768 0.68481 0.16298 0.0
H3397 H 0.64829 0.71601 0.15623 0.0
H3398 H 0.60809 0.70821 0.11733 0.0
H3399 H 0.60721 0.677 0.12416 0.0
H3400 H 0.65712 0.72993 0.12429 0.0
H3401 H 0.59047 0.75121 0.14321 0.0
H3402 H 0.59963 0.73066 0.15021 0.0
H3403 H 0.59075 0.73283 0.12855 0.0
C3404 C 0.63869 0.68976 0.15324 0.0
C3405 C 0.62737 0.67836 0.14414 0.0
C3406 C 0.63911 0.70761 0.14934 0.0
C3407 C 0.62819 0.71451 0.13634 0.0
C3408 C 0.61644 0.70328 0.12764 0.0
H3409 H 0.61772 0.81697 0.08859 0.0
H3410 H 0.61696 0.78568 0.09496 0.0
C3411 C 0.61596 0.6854 0.13156 0.0
C3412 C 0.62999 0.73315 0.13108 0.0
H3413 H 0.60757 0.7715 0.12709 0.0
C3414 C 0.64631 0.73904 0.12499 0.0
C3415 C 0.61586 0.74502 0.1319 0.0
C3416 C 0.59823 0.7397 0.13897 0.0
C3417 C 0.64882 0.75639 0.11949 0.0
C3418 C 0.63471 0.76827 0.12033 0.0
C3419 C 0.61838 0.76237 0.12638 0.0
C3420 C 0.6366 0.78695 0.11531 0.0
C3421 C 0.66647 0.76176 0.11249 0.0
C3422 C 0.64814 0.79806 0.12441 0.0
C3423 C 0.64867 0.81599 0.12075 0.0
C3424 C 0.63756 0.8232 0.108 0.0
C3425 C 0.62649 0.8119 0.09847 0.0
C3426 C 0.62597 0.794 0.10214 0.0
H3427 H 0.67428 0.75026 0.10829 0.0
H3428 H 0.66508 0.77078 0.10124 0.0
H3429 H 0.67389 0.76866 0.12293 0.0
H3430 H 0.65627 0.793 0.13482 0.0
H3431 H 0.65726 0.82429 0.12845 0.0
H3432 H 0.82013 0.14277 0.67295 0.0
H3433 H 0.78838 0.14462 0.66972 0.0
H3434 H 0.78921 0.10171 0.63304 0.0
H3435 H 0.82103 0.09973 0.63618 0.0
H3436 H 0.77122 0.13226 0.62107 0.0
H3437 H 0.74877 0.11217 0.68699 0.0
H3438 H 0.76548 0.12876 0.68698 0.0
H3439 H 0.77038 0.10725 0.67887 0.0
C3440 C 0.81356 0.13347 0.66445 0.0
C3441 C 0.82319 0.12109 0.65484 0.0
C3442 C 0.79537 0.13454 0.66264 0.0
C3443 C 0.78639 0.12325 0.6512 0.0
C3444 C 0.79587 0.11053 0.64197 0.0
H3445 H 0.67761 0.11999 0.61492 0.0
H3446 H 0.70925 0.1162 0.6177 0.0
C3447 C 0.81407 0.10936 0.64386 0.0
C3448 C 0.76731 0.12551 0.64807 0.0
H3449 H 0.72756 0.12499 0.66838 0.0
C3450 C 0.76163 0.13054 0.63136 0.0
C3451 C 0.75484 0.12337 0.66154 0.0
C3452 C 0.7601 0.11745 0.67958 0.0
C3453 C 0.74388 0.13395 0.62787 0.0
C3454 C 0.73139 0.13188 0.64136 0.0
C3455 C 0.73709 0.12666 0.65803 0.0
C3456 C 0.71235 0.13512 0.63862 0.0
C3457 C 0.7388 0.14029 0.60991 0.0
C3458 C 0.70344 0.14697 0.64945 0.0
C3459 C 0.68532 0.14905 0.648 0.0
C3460 C 0.67564 0.13931 0.63567 0.0
C3461 C 0.68465 0.12786 0.62443 0.0
C3462 C 0.70279 0.1257 0.62598 0.0
H3463 H 0.75015 0.14598 0.60286 0.0
H3464 H 0.73384 0.12907 0.60208 0.0
H3465 H 0.72833 0.15028 0.61067 0.0
H3466 H 0.71049 0.1544 0.6593 0.0
H3467 H 0.67883 0.15796 0.65689 0.0
H3468 H 0.33278 0.18682 0.14911 0.0
H3469 H 0.33687 0.21843 0.15166 0.0
H3470 H 0.37467 0.21701 0.10992 0.0
H3471 H 0.37045 0.18541 0.10706 0.0
H3472 H 0.36772 0.23446 0.16062 0.0
H3473 H 0.34507 0.25873 0.09619 0.0
H3474 H 0.34011 0.23698 0.10388 0.0
H3475 H 0.36127 0.24185 0.09484 0.0
C3476 C 0.34168 0.19326 0.14019 0.0
C3477 C 0.35126 0.18354 0.12786 0.0
C3478 C 0.34406 0.21135 0.14173 0.0
C3479 C 0.35601 0.22015 0.13094 0.0
C3480 C 0.36513 0.2106 0.11818 0.0
H3481 H 0.39268 0.32863 0.12933 0.0
H3482 H 0.39029 0.29689 0.12546 0.0
C3483 C 0.36271 0.19249 0.11658 0.0
C3484 C 0.35982 0.23902 0.13398 0.0
H3485 H 0.35955 0.27923 0.11462 0.0
C3486 C 0.36587 0.24425 0.15057 0.0
C3487 C 0.35755 0.2518 0.12084 0.0
C3488 C 0.3505 0.24713 0.10298 0.0
C3489 C 0.36974 0.26184 0.15435 0.0
C3490 C 0.3673 0.27462 0.14127 0.0
C3491 C 0.36148 0.2694 0.12461 0.0
C3492 C 0.36995 0.29358 0.1448 0.0
C3493 C 0.37661 0.26656 0.17227 0.0
C3494 C 0.3595 0.30224 0.15714 0.0
C3495 C 0.36085 0.32035 0.15942 0.0
C3496 C 0.37265 0.33023 0.14934 0.0
C3497 C 0.38355 0.32144 0.13741 0.0
C3498 C 0.38213 0.3033 0.13509 0.0
H3499 H 0.38229 0.25505 0.179 0.0
H3500 H 0.38675 0.27697 0.17147 0.0
H3501 H 0.36569 0.27154 0.18039 0.0
H3502 H 0.34982 0.29508 0.16459 0.0
H3503 H 0.35219 0.32668 0.16865 0.0
H3504 H 0.08924 0.40935 0.18346 0.0
H3505 H 0.09403 0.40875 0.21506 0.0
H3506 H 0.1252 0.36222 0.20944 0.0
H3507 H 0.12065 0.36279 0.17776 0.0
H3508 H 0.08738 0.3833 0.24086 0.0
H3509 H 0.15848 0.39678 0.23417 0.0
H3510 H 0.14328 0.39944 0.21631 0.0
H3511 H 0.15079 0.37801 0.2222 0.0
C3512 C 0.09694 0.39884 0.18893 0.0
C3513 C 0.10468 0.3862 0.178 0.0
C3514 C 0.09969 0.39855 0.20702 0.0
C3515 C 0.11029 0.38568 0.21457 0.0
C3516 C 0.11729 0.3725 0.20385 0.0
H3517 H 0.14736 0.3638 0.3191 0.0
H3518 H 0.14207 0.36519 0.28764 0.0
C3519 C 0.11453 0.37276 0.18574 0.0
C3520 C 0.11439 0.38635 0.23358 0.0
H3521 H 0.14811 0.39077 0.2627 0.0
C3522 C 0.10064 0.385 0.24565 0.0
C3523 C 0.1317 0.38864 0.23981 0.0
C3524 C 0.14692 0.39096 0.22748 0.0
C3525 C 0.10378 0.38544 0.26377 0.0
C3526 C 0.12111 0.38767 0.27 0.0
C3527 C 0.13484 0.38911 0.25792 0.0
C3528 C 0.12533 0.38788 0.289 0.0
C3529 C 0.08857 0.38302 0.27608 0.0
C3530 C 0.11821 0.40059 0.30021 0.0
C3531 C 0.12123 0.39986 0.31827 0.0
C3532 C 0.1315 0.38644 0.32546 0.0
C3533 C 0.13933 0.37429 0.31406 0.0
C3534 C 0.1363 0.37503 0.29604 0.0
H3535 H 0.07701 0.37726 0.26935 0.0
H3536 H 0.09221 0.37445 0.28719 0.0
H3537 H 0.0847 0.39593 0.28147 0.0
H3538 H 0.11003 0.41089 0.29502 0.0
H3539 H 0.11502 0.40946 0.32664 0.0
H3540 H 0.17101 0.6553 0.67086 0.0
H3541 H 0.16534 0.65553 0.70229 0.0
H3542 H 0.13483 0.60828 0.69703 0.0
H3543 H 0.14065 0.60779 0.66559 0.0
H3544 H 0.13321 0.65852 0.71758 0.0
H3545 H 0.16477 0.59718 0.73931 0.0
H3546 H 0.1691 0.60682 0.71824 0.0
H3547 H 0.14961 0.59404 0.72163 0.0
C3548 C 0.1634 0.64472 0.67642 0.0
C3549 C 0.15634 0.63149 0.66564 0.0
C3550 C 0.1601 0.64493 0.69441 0.0
C3551 C 0.14974 0.63188 0.70211 0.0
C3552 C 0.14314 0.61832 0.6915 0.0
H3553 H 0.10519 0.61383 0.80453 0.0
H3554 H 0.11238 0.6142 0.77345 0.0
C3555 C 0.14648 0.61807 0.67348 0.0
C3556 C 0.14488 0.63316 0.72095 0.0
H3557 H 0.14583 0.61108 0.75971 0.0
C3558 C 0.13609 0.6482 0.72682 0.0
C3559 C 0.14858 0.6197 0.73304 0.0
C3560 C 0.15868 0.60359 0.72781 0.0
C3561 C 0.13058 0.64996 0.74428 0.0
C3562 C 0.13414 0.63642 0.75632 0.0
C3563 C 0.14303 0.62144 0.75048 0.0
C3564 C 0.12863 0.63736 0.77498 0.0
C3565 C 0.12056 0.66609 0.74959 0.0
C3566 C 0.13512 0.65045 0.78623 0.0
C3567 C 0.13095 0.65034 0.80409 0.0
C3568 C 0.12032 0.63703 0.81109 0.0
C3569 C 0.11341 0.62429 0.79965 0.0
C3570 C 0.11756 0.62443 0.78184 0.0
H3571 H 0.11513 0.67304 0.73808 0.0
H3572 H 0.10965 0.6627 0.75854 0.0
H3573 H 0.12949 0.67521 0.75657 0.0
H3574 H 0.14391 0.66042 0.78132 0.0
H3575 H 0.13664 0.66026 0.81252 0.0
H3576 H 0.87074 0.65391 0.18042 0.0
H3577 H 0.86936 0.6486 0.21185 0.0
H3578 H 0.90558 0.60589 0.20633 0.0
H3579 H 0.90708 0.61107 0.17478 0.0
H3580 H 0.85785 0.61533 0.22584 0.0
H3581 H 0.92425 0.63433 0.24919 0.0
H3582 H 0.91531 0.64205 0.22875 0.0
H3583 H 0.92323 0.62006 0.23045 0.0
C3584 C 0.87873 0.64361 0.18589 0.0
C3585 C 0.889 0.6329 0.17502 0.0
C3586 C 0.87786 0.64056 0.20387 0.0
C3587 C 0.88737 0.62687 0.21143 0.0
C3588 C 0.89828 0.61664 0.20079 0.0
H3589 H 0.89152 0.59131 0.32006 0.0
H3590 H 0.89506 0.59312 0.28829 0.0
C3591 C 0.89911 0.61964 0.18275 0.0
C3592 C 0.88477 0.62253 0.23014 0.0
H3593 H 0.90508 0.62197 0.26993 0.0
C3594 C 0.86818 0.61676 0.2355 0.0
C3595 C 0.89831 0.6242 0.24264 0.0
C3596 C 0.91628 0.63061 0.23759 0.0
C3597 C 0.86471 0.61271 0.25305 0.0
C3598 C 0.8781 0.61488 0.26569 0.0
C3599 C 0.89482 0.6203 0.26026 0.0
C3600 C 0.87483 0.61249 0.2847 0.0
C3601 C 0.84678 0.60596 0.25784 0.0
C3602 C 0.86213 0.6226 0.29325 0.0
C3603 C 0.85998 0.6215 0.31136 0.0
C3604 C 0.87063 0.6104 0.32139 0.0
C3605 C 0.88302 0.59991 0.31275 0.0
C3606 C 0.88513 0.601 0.29459 0.0
H3607 H 0.84019 0.59972 0.24644 0.0
H3608 H 0.84749 0.5963 0.26862 0.0
H3609 H 0.83855 0.61706 0.26219 0.0
H3610 H 0.85428 0.63184 0.286 0.0
H3611 H 0.85041 0.62988 0.31755 0.0
H3612 H 0.89368 0.36078 0.82547 0.0
H3613 H 0.88853 0.36618 0.79437 0.0
H3614 H 0.84791 0.32693 0.79395 0.0
H3615 H 0.8527 0.3217 0.8251 0.0
H3616 H 0.8892 0.34624 0.7645 0.0
H3617 H 0.82176 0.3696 0.77682 0.0
H3618 H 0.83725 0.36592 0.79423 0.0
H3619 H 0.82553 0.34783 0.7846 0.0
C3620 C 0.88385 0.35306 0.81871 0.0
C3621 C 0.87349 0.3409 0.82786 0.0
C3622 C 0.88086 0.35624 0.80092 0.0
C3623 C 0.86748 0.34734 0.79192 0.0
C3624 C 0.85794 0.33436 0.80073 0.0
H3625 H 0.82772 0.34597 0.68609 0.0
H3626 H 0.83307 0.34206 0.71737 0.0
C3627 C 0.86083 0.33125 0.81852 0.0
C3628 C 0.86318 0.35195 0.7735 0.0
H3629 H 0.82985 0.36571 0.74705 0.0
C3630 C 0.87626 0.3506 0.76071 0.0
C3631 C 0.8463 0.35777 0.76855 0.0
C3632 C 0.83195 0.36055 0.78179 0.0
C3633 C 0.87279 0.35443 0.74306 0.0
C3634 C 0.85585 0.35995 0.7381 0.0
C3635 C 0.84281 0.36145 0.75089 0.0
C3636 C 0.8513 0.36364 0.71957 0.0
C3637 C 0.88716 0.35209 0.72977 0.0
C3638 C 0.85921 0.37754 0.71057 0.0
C3639 C 0.85606 0.37993 0.69269 0.0
C3640 C 0.84498 0.36839 0.68345 0.0
C3641 C 0.83635 0.35507 0.69276 0.0
C3642 C 0.83943 0.35278 0.71065 0.0
H3643 H 0.89832 0.3445 0.73509 0.0
H3644 H 0.88212 0.34532 0.71791 0.0
H3645 H 0.89213 0.36513 0.72576 0.0
H3646 H 0.86819 0.38627 0.71729 0.0
H3647 H 0.86297 0.39029 0.68596 0.0
H3648 H 0.6838 0.85226 0.61169 0.0
H3649 H 0.71546 0.8484 0.61632 0.0
H3650 H 0.72078 0.90341 0.62764 0.0
H3651 H 0.68959 0.90741 0.62306 0.0
H3652 H 0.7451 0.86722 0.59931 0.0
H3653 H 0.74196 0.87779 0.67105 0.0
H3654 H 0.72304 0.87182 0.65812 0.0
H3655 H 0.73079 0.89403 0.65835 0.0
C3656 C 0.69176 0.86352 0.61507 0.0
C3657 C 0.6841 0.88011 0.61711 0.0
C3658 C 0.70981 0.8613 0.61773 0.0
C3659 C 0.72038 0.87559 0.62261 0.0
C3660 C 0.71282 0.89217 0.62419 0.0
H3661 H 0.83121 0.89678 0.6202 0.0
H3662 H 0.7994 0.89631 0.61664 0.0
C3663 C 0.69494 0.89441 0.62148 0.0
C3664 C 0.73936 0.87352 0.62612 0.0
H3665 H 0.77023 0.87945 0.658 0.0
C3666 C 0.75061 0.86969 0.61217 0.0
C3667 C 0.7465 0.87664 0.64294 0.0
C3668 C 0.73496 0.88015 0.65854 0.0
C3669 C 0.76887 0.86953 0.61446 0.0
C3670 C 0.77603 0.87351 0.63111 0.0
C3671 C 0.76474 0.87665 0.6452 0.0
C3672 C 0.79522 0.87451 0.63411 0.0
C3673 C 0.78034 0.86513 0.59905 0.0
C3674 C 0.80337 0.86294 0.64573 0.0
C3675 C 0.82156 0.86324 0.64789 0.0
C3676 C 0.83196 0.87523 0.63857 0.0
C3677 C 0.82364 0.88736 0.62757 0.0
C3678 C 0.80546 0.887 0.62537 0.0
H3679 H 0.77293 0.85815 0.58863 0.0
H3680 H 0.78563 0.8774 0.59341 0.0
H3681 H 0.79156 0.85689 0.60313 0.0
H3682 H 0.79571 0.85332 0.65274 0.0
H3683 H 0.8275 0.85372 0.65648 0.0
H3684 H 0.64504 0.18086 0.12541 0.0
H3685 H 0.64085 0.21226 0.13007 0.0
H3686 H 0.59985 0.21236 0.09133 0.0
H3687 H 0.60377 0.181 0.0867 0.0
H3688 H 0.64144 0.24182 0.10762 0.0
H3689 H 0.5755 0.23064 0.13575 0.0
H3690 H 0.59098 0.21318 0.13241 0.0
H3691 H 0.57846 0.22143 0.11433 0.0
C3692 C 0.63532 0.18759 0.11766 0.0
C3693 C 0.6246 0.17831 0.10582 0.0
C3694 C 0.63291 0.20555 0.12039 0.0
C3695 C 0.61973 0.21455 0.11138 0.0
C3696 C 0.60981 0.20558 0.09874 0.0
H3697 H 0.57771 0.3188 0.10881 0.0
H3698 H 0.58357 0.28751 0.1064 0.0
C3699 C 0.61219 0.18765 0.096 0.0
C3700 C 0.6159 0.23314 0.11562 0.0
H3701 H 0.58362 0.26016 0.13052 0.0
C3702 C 0.62886 0.24584 0.11275 0.0
C3703 C 0.59948 0.23833 0.12239 0.0
C3704 C 0.58534 0.22519 0.12658 0.0
C3705 C 0.62564 0.26368 0.1159 0.0
C3706 C 0.60912 0.2689 0.12242 0.0
C3707 C 0.59626 0.25615 0.12554 0.0
C3708 C 0.60465 0.28761 0.1253 0.0
C3709 C 0.63974 0.27684 0.11164 0.0
C3710 C 0.61408 0.29798 0.13726 0.0
C3711 C 0.61072 0.31593 0.13873 0.0
C3712 C 0.59783 0.32384 0.12827 0.0
C3713 C 0.58777 0.31319 0.11703 0.0
C3714 C 0.59113 0.29528 0.1156 0.0
H3715 H 0.65001 0.27117 0.10308 0.0
H3716 H 0.63412 0.28846 0.10506 0.0
H3717 H 0.64609 0.28129 0.12394 0.0
H3718 H 0.62431 0.29226 0.14518 0.0
H3719 H 0.61872 0.3237 0.14752 0.0
H3720 H 0.17744 0.11657 0.65136 0.0
H3721 H 0.20954 0.11885 0.65332 0.0
H3722 H 0.21046 0.14785 0.60511 0.0
H3723 H 0.17879 0.1458 0.60311 0.0
H3724 H 0.2364 0.1084 0.62931 0.0
H3725 H 0.23645 0.18016 0.63952 0.0
H3726 H 0.21705 0.16689 0.64213 0.0
H3727 H 0.22411 0.17338 0.62068 0.0
C3728 C 0.18452 0.12336 0.64117 0.0
C3729 C 0.17548 0.13114 0.62718 0.0
C3730 C 0.20284 0.12467 0.6423 0.0
C3731 C 0.21236 0.13385 0.62953 0.0
C3732 C 0.20339 0.14107 0.61532 0.0
H3733 H 0.32299 0.13253 0.60341 0.0
H3734 H 0.29108 0.12961 0.60387 0.0
C3735 C 0.18522 0.1398 0.61419 0.0
C3736 C 0.23167 0.13608 0.63083 0.0
H3737 H 0.26377 0.1673 0.63176 0.0
C3738 C 0.24241 0.12125 0.63 0.0
C3739 C 0.23951 0.15285 0.63193 0.0
C3740 C 0.2287 0.16923 0.63379 0.0
C3741 C 0.26076 0.1228 0.62967 0.0
C3742 C 0.26857 0.13964 0.62989 0.0
C3743 C 0.25782 0.15441 0.63131 0.0
C3744 C 0.28788 0.14222 0.62904 0.0
C3745 C 0.27162 0.10637 0.62927 0.0
C3746 C 0.29666 0.15103 0.64261 0.0
C3747 C 0.31487 0.15291 0.64228 0.0
C3748 C 0.32474 0.14609 0.62833 0.0
C3749 C 0.31584 0.13791 0.61438 0.0
C3750 C 0.29759 0.13604 0.61472 0.0
H3751 H 0.26407 0.09484 0.6339 0.0
H3752 H 0.27579 0.10372 0.61563 0.0
H3753 H 0.28353 0.10782 0.63748 0.0
H3754 H 0.28945 0.15607 0.65371 0.0
H3755 H 0.32124 0.1593 0.65324 0.0
H3756 H 0.39687 0.82449 0.0836 0.0
H3757 H 0.39973 0.7932 0.08917 0.0
H3758 H 0.36014 0.79651 0.12908 0.0
H3759 H 0.35707 0.82785 0.12354 0.0
H3760 H 0.41006 0.77952 0.12175 0.0
H3761 H 0.34554 0.75275 0.10111 0.0
H3762 H 0.35329 0.774 0.0943 0.0
H3763 H 0.34473 0.77101 0.11594 0.0
C3764 C 0.38846 0.81853 0.09331 0.0
C3765 C 0.37673 0.82875 0.10312 0.0
C3766 C 0.39019 0.80063 0.09652 0.0
C3767 C 0.38014 0.79248 0.10951 0.0
C3768 C 0.36787 0.80245 0.11883 0.0
H3769 H 0.38013 0.68429 0.14695 0.0
H3770 H 0.3755 0.71589 0.14475 0.0
C3771 C 0.36613 0.82039 0.11563 0.0
C3772 C 0.3835 0.77391 0.11412 0.0
H3773 H 0.36495 0.73321 0.11503 0.0
C3774 C 0.4002 0.76939 0.12027 0.0
C3775 C 0.37057 0.76074 0.11238 0.0
C3776 C 0.35255 0.76476 0.10545 0.0
C3777 C 0.40435 0.75207 0.12467 0.0
C3778 C 0.39157 0.7388 0.12253 0.0
C3779 C 0.37475 0.74338 0.1167 0.0
C3780 C 0.39562 0.71998 0.12531 0.0
C3781 C 0.42236 0.74819 0.13174 0.0
C3782 C 0.40865 0.71179 0.11535 0.0
C3783 C 0.41141 0.69377 0.11665 0.0
C3784 C 0.40108 0.68348 0.12785 0.0
C3785 C 0.38843 0.69181 0.1383 0.0
C3786 C 0.38568 0.70987 0.13697 0.0
H3787 H 0.42844 0.75999 0.13773 0.0
H3788 H 0.42192 0.73764 0.14166 0.0
H3789 H 0.43089 0.74386 0.12084 0.0
H3790 H 0.41627 0.71921 0.10601 0.0
H3791 H 0.42118 0.68782 0.10832 0.0
H3792 H 0.68245 0.09955 0.41791 0.0
H3793 H 0.71391 0.09638 0.41343 0.0
H3794 H 0.71267 0.13693 0.37445 0.0
H3795 H 0.68119 0.14032 0.37893 0.0
H3796 H 0.7289 0.0866 0.38138 0.0
H3797 H 0.75533 0.15046 0.40428 0.0
H3798 H 0.73371 0.14284 0.40999 0.0
H3799 H 0.73777 0.15187 0.38872 0.0
C3800 C 0.68889 0.10809 0.40865 0.0
C3801 C 0.67923 0.1202 0.39878 0.0
C3802 C 0.7069 0.10619 0.40605 0.0
C3803 C 0.71568 0.11644 0.39365 0.0
C3804 C 0.70624 0.12905 0.38428 0.0
H3805 H 0.8242 0.1174 0.35798 0.0
H3806 H 0.79257 0.12167 0.36017 0.0
C3807 C 0.68821 0.13096 0.38686 0.0
C3808 C 0.73439 0.113 0.38966 0.0
H3809 H 0.77516 0.13143 0.39008 0.0
C3810 C 0.73903 0.09639 0.38332 0.0
C3811 C 0.74756 0.12582 0.39203 0.0
C3812 C 0.74344 0.14372 0.39926 0.0
C3813 C 0.75646 0.09227 0.37924 0.0
C3814 C 0.76969 0.10499 0.38187 0.0
C3815 C 0.76502 0.12168 0.38801 0.0
C3816 C 0.78854 0.10109 0.37908 0.0
C3817 C 0.76047 0.07439 0.37188 0.0
C3818 C 0.79679 0.08788 0.38873 0.0
C3819 C 0.81485 0.08533 0.38743 0.0
C3820 C 0.82512 0.09605 0.37658 0.0
C3821 C 0.81672 0.10884 0.36641 0.0
C3822 C 0.79863 0.11138 0.36772 0.0
H3823 H 0.74875 0.06834 0.3657 0.0
H3824 H 0.77111 0.07504 0.36204 0.0
H3825 H 0.76476 0.06572 0.38266 0.0
H3826 H 0.78937 0.07999 0.39783 0.0
H3827 H 0.82085 0.07545 0.39556 0.0
H3828 H 0.39331 0.31625 0.87988 0.0
H3829 H 0.39226 0.28444 0.88354 0.0
H3830 H 0.35165 0.28094 0.8445 0.0
H3831 H 0.35269 0.31259 0.84064 0.0
H3832 H 0.36276 0.26536 0.89441 0.0
H3833 H 0.38535 0.24235 0.8295 0.0
H3834 H 0.38885 0.26447 0.83712 0.0
H3835 H 0.36796 0.25802 0.82834 0.0
C3836 C 0.38442 0.30868 0.87179 0.0
C3837 C 0.3731 0.31701 0.85994 0.0
C3838 C 0.38377 0.2905 0.87398 0.0
C3839 C 0.37196 0.28027 0.86421 0.0
C3840 C 0.36107 0.28849 0.85197 0.0
H3841 H 0.33761 0.17269 0.85911 0.0
H3842 H 0.34092 0.2044 0.85705 0.0
C3843 C 0.36166 0.30664 0.84982 0.0
C3844 C 0.37014 0.2612 0.86757 0.0
H3845 H 0.37149 0.22118 0.84764 0.0
C3846 C 0.36484 0.25567 0.88424 0.0
C3847 C 0.37278 0.24857 0.85428 0.0
C3848 C 0.37921 0.2536 0.83635 0.0
C3849 C 0.36158 0.23792 0.88783 0.0
C3850 C 0.36396 0.22532 0.87446 0.0
C3851 C 0.36953 0.23084 0.85787 0.0
C3852 C 0.36069 0.20633 0.87724 0.0
C3853 C 0.35508 0.23289 0.90574 0.0
C3854 C 0.37043 0.19685 0.88956 0.0
C3855 C 0.36848 0.17866 0.89086 0.0
C3856 C 0.35686 0.16958 0.87975 0.0
C3857 C 0.34666 0.17922 0.8679 0.0
C3858 C 0.34859 0.19737 0.86664 0.0
H3859 H 0.34962 0.24429 0.91291 0.0
H3860 H 0.34485 0.22257 0.90484 0.0
H3861 H 0.36614 0.22767 0.91351 0.0
H3862 H 0.38006 0.20339 0.89768 0.0
H3863 H 0.37667 0.17167 0.90002 0.0
H3864 H 0.18463 0.92308 0.3846 0.0
H3865 H 0.21587 0.91744 0.388 0.0
H3866 H 0.21229 0.87526 0.35062 0.0
H3867 H 0.181 0.88085 0.34701 0.0
H3868 H 0.22913 0.88503 0.40009 0.0
H3869 H 0.25639 0.90228 0.33505 0.0
H3870 H 0.23526 0.90982 0.34236 0.0
H3871 H 0.23787 0.88774 0.33475 0.0
C3872 C 0.19051 0.91285 0.37677 0.0
C3873 C 0.18023 0.90241 0.36554 0.0
C3874 C 0.20839 0.90959 0.37881 0.0
C3875 C 0.21644 0.89595 0.36956 0.0
C3876 C 0.20642 0.886 0.35773 0.0
H3877 H 0.32396 0.85705 0.37177 0.0
H3878 H 0.29243 0.85975 0.36681 0.0
C3879 C 0.1885 0.88922 0.3557 0.0
C3880 C 0.23495 0.89137 0.37332 0.0
H3881 H 0.27571 0.88914 0.35524 0.0
C3882 C 0.23933 0.88595 0.39029 0.0
C3883 C 0.24819 0.89237 0.36048 0.0
C3884 C 0.24431 0.89849 0.34216 0.0
C3885 C 0.25658 0.88152 0.39479 0.0
C3886 C 0.26993 0.88291 0.38206 0.0
C3887 C 0.26549 0.88805 0.365 0.0
C3888 C 0.28868 0.87992 0.38635 0.0
C3889 C 0.26028 0.87518 0.41308 0.0
C3890 C 0.29705 0.89013 0.39919 0.0
C3891 C 0.31503 0.88853 0.40215 0.0
C3892 C 0.32512 0.8768 0.3922 0.0
C3893 C 0.31661 0.86614 0.37976 0.0
C3894 C 0.29859 0.86774 0.37682 0.0
H3895 H 0.24836 0.86961 0.41925 0.0
H3896 H 0.27069 0.8651 0.41313 0.0
H3897 H 0.26472 0.88637 0.42124 0.0
H3898 H 0.28981 0.89987 0.40648 0.0
H3899 H 0.32113 0.89705 0.41174 0.0
H3900 H 0.60266 0.68471 0.90214 0.0
H3901 H 0.60676 0.71609 0.89807 0.0
H3902 H 0.62286 0.70715 0.84484 0.0
H3903 H 0.61899 0.67551 0.8488 0.0
H3904 H 0.64204 0.73148 0.88506 0.0
H3905 H 0.58296 0.74731 0.84551 0.0
H3906 H 0.58355 0.72881 0.86014 0.0
H3907 H 0.59534 0.72807 0.83993 0.0
C3908 C 0.60685 0.68935 0.88946 0.0
C3909 C 0.61052 0.67753 0.87579 0.0
C3910 C 0.60925 0.70732 0.8872 0.0
C3911 C 0.61515 0.7139 0.8712 0.0
C3912 C 0.61824 0.70229 0.85729 0.0
H3913 H 0.63031 0.8199 0.83473 0.0
H3914 H 0.62835 0.78821 0.83762 0.0
C3915 C 0.61598 0.68423 0.85956 0.0
C3916 C 0.61871 0.73287 0.86938 0.0
H3917 H 0.60242 0.77037 0.85181 0.0
C3918 C 0.63344 0.74004 0.87777 0.0
C3919 C 0.60746 0.7439 0.85984 0.0
C3920 C 0.59136 0.73677 0.85085 0.0
C3921 C 0.63735 0.75799 0.87669 0.0
C3922 C 0.62593 0.76914 0.86737 0.0
C3923 C 0.6112 0.76188 0.85896 0.0
C3924 C 0.62899 0.78834 0.86591 0.0
C3925 C 0.6539 0.76471 0.88519 0.0
C3926 C 0.63036 0.79906 0.88085 0.0
C3927 C 0.63177 0.81729 0.87922 0.0
C3928 C 0.63148 0.8251 0.86261 0.0
C3929 C 0.63053 0.8143 0.84772 0.0
C3930 C 0.62936 0.79615 0.84935 0.0
H3931 H 0.66359 0.75408 0.88706 0.0
H3932 H 0.66003 0.7752 0.87727 0.0
H3933 H 0.65071 0.77015 0.89826 0.0
H3934 H 0.6297 0.79343 0.8938 0.0
H3935 H 0.63224 0.82529 0.89093 0.0
H3936 H 0.90791 0.62263 0.81944 0.0
H3937 H 0.91187 0.62253 0.7875 0.0
H3938 H 0.8561 0.61776 0.78045 0.0
H3939 H 0.85206 0.61779 0.81206 0.0
H3940 H 0.89953 0.59365 0.76516 0.0
H3941 H 0.87075 0.65746 0.74638 0.0
H3942 H 0.87854 0.653 0.76824 0.0
H3943 H 0.85773 0.64461 0.76111 0.0
C3944 C 0.8965 0.62194 0.81105 0.0
C3945 C 0.87968 0.62021 0.81825 0.0
C3946 C 0.89878 0.6218 0.79284 0.0
C3947 C 0.88426 0.62026 0.78163 0.0
C3948 C 0.86746 0.61919 0.78883 0.0
H3949 H 0.86606 0.61034 0.66952 0.0
H3950 H 0.86285 0.61175 0.70144 0.0
C3951 C 0.86519 0.61914 0.80693 0.0
C3952 C 0.88653 0.6184 0.76247 0.0
H3953 H 0.87588 0.63712 0.72343 0.0
C3954 C 0.89453 0.60322 0.75601 0.0
C3955 C 0.87972 0.63077 0.7506 0.0
C3956 C 0.87131 0.64746 0.75687 0.0
C3957 C 0.89563 0.59991 0.73796 0.0
C3958 C 0.88889 0.61233 0.72605 0.0
C3959 C 0.88094 0.62755 0.73254 0.0
C3960 C 0.89062 0.61016 0.7068 0.0
C3961 C 0.90355 0.5829 0.73187 0.0
C3962 C 0.90723 0.6087 0.69923 0.0
C3963 C 0.90908 0.60775 0.68111 0.0
C3964 C 0.89435 0.60848 0.67006 0.0
C3965 C 0.87765 0.60964 0.67765 0.0
C3966 C 0.87581 0.61053 0.69587 0.0
H3967 H 0.90291 0.57275 0.74221 0.0
H3968 H 0.89682 0.57784 0.72 0.0
H3969 H 0.91753 0.58508 0.72866 0.0
H3970 H 0.91887 0.60879 0.70733 0.0
H3971 H 0.92216 0.60696 0.67576 0.0
H3972 H 0.86603 0.39384 0.32831 0.0
H3973 H 0.87235 0.39233 0.29697 0.0
H3974 H 0.83599 0.34943 0.29143 0.0
H3975 H 0.82943 0.35098 0.32261 0.0
H3976 H 0.88661 0.3635 0.28003 0.0
H3977 H 0.82263 0.38047 0.25043 0.0
H3978 H 0.82775 0.38492 0.27307 0.0
H3979 H 0.82141 0.36327 0.26629 0.0
C3980 C 0.85906 0.38436 0.32037 0.0
C3981 C 0.84718 0.37256 0.32803 0.0
C3982 C 0.86277 0.38344 0.30245 0.0
C3983 C 0.85458 0.37084 0.29179 0.0
C3984 C 0.84226 0.35947 0.29928 0.0
H3985 H 0.86511 0.33965 0.18239 0.0
H3986 H 0.85863 0.34034 0.21375 0.0
C3987 C 0.83855 0.36036 0.31718 0.0
C3988 C 0.85981 0.36874 0.27316 0.0
H3989 H 0.84409 0.36872 0.2313 0.0
C3990 C 0.87733 0.36475 0.26937 0.0
C3991 C 0.84769 0.37021 0.25925 0.0
C3992 C 0.82885 0.37511 0.2624 0.0
C3993 C 0.883 0.36198 0.2521 0.0
C3994 C 0.87089 0.36351 0.23818 0.0
C3995 C 0.85336 0.36744 0.24197 0.0
C3996 C 0.87623 0.36182 0.21954 0.0
C3997 C 0.90184 0.3571 0.24895 0.0
C3998 C 0.88849 0.37346 0.21239 0.0
C3999 C 0.89228 0.37305 0.1945 0.0
C4000 C 0.8838 0.36105 0.18331 0.0
C4001 C 0.87199 0.34896 0.19062 0.0
C4002 C 0.86818 0.34942 0.20854 0.0
H4003 H 0.90797 0.3515 0.26085 0.0
H4004 H 0.90299 0.34749 0.2381 0.0
H4005 H 0.90933 0.369 0.24535 0.0
H4006 H 0.89465 0.38335 0.22051 0.0
H4007 H 0.90137 0.38262 0.18935 0.0
H4008 H 0.08223 0.40748 0.82235 0.0
H4009 H 0.08669 0.40939 0.79081 0.0
H4010 H 0.12512 0.36837 0.79351 0.0
H4011 H 0.12064 0.36624 0.82512 0.0
H4012 H 0.11865 0.41817 0.77529 0.0
H4013 H 0.09496 0.35352 0.75155 0.0
H4014 H 0.0895 0.36202 0.77291 0.0
H4015 H 0.11068 0.35271 0.76901 0.0
C4016 C 0.09139 0.39859 0.81623 0.0
C4017 C 0.10107 0.38669 0.82632 0.0
C4018 C 0.09397 0.39976 0.79817 0.0
C4019 C 0.10619 0.389 0.78976 0.0
C4020 C 0.11542 0.37664 0.79966 0.0
H4021 H 0.14009 0.38436 0.6806 0.0
H4022 H 0.13855 0.38098 0.71237 0.0
C4023 C 0.11284 0.37544 0.81776 0.0
C4024 C 0.11009 0.39165 0.7709 0.0
H4025 H 0.10886 0.37177 0.73083 0.0
C4026 C 0.11648 0.40802 0.76556 0.0
C4027 C 0.10743 0.37837 0.75824 0.0
C4028 C 0.10014 0.3607 0.76313 0.0
C4029 C 0.12027 0.41149 0.74794 0.0
C4030 C 0.1173 0.39833 0.73521 0.0
C4031 C 0.11118 0.38185 0.74059 0.0
C4032 C 0.11963 0.4016 0.71619 0.0
C4033 C 0.12763 0.42917 0.74314 0.0
C4034 C 0.10974 0.41452 0.70776 0.0
C4035 C 0.11065 0.41655 0.68962 0.0
C4036 C 0.12137 0.40561 0.67945 0.0
C4037 C 0.13176 0.39309 0.68799 0.0
C4038 C 0.13082 0.39106 0.70617 0.0
H4039 H 0.13407 0.4356 0.75452 0.0
H4040 H 0.13726 0.42809 0.73235 0.0
H4041 H 0.11681 0.43774 0.73875 0.0
H4042 H 0.10077 0.4226 0.71514 0.0
H4043 H 0.10237 0.42624 0.68351 0.0
H4044 H 0.12016 0.59558 0.30505 0.0
H4045 H 0.11682 0.60211 0.27401 0.0
H4046 H 0.15449 0.64393 0.27878 0.0
H4047 H 0.15803 0.63742 0.30994 0.0
H4048 H 0.10496 0.63446 0.2611 0.0
H4049 H 0.17043 0.61787 0.23434 0.0
H4050 H 0.16299 0.61008 0.25532 0.0
H4051 H 0.17034 0.63227 0.25297 0.0
C4052 C 0.12801 0.60596 0.29948 0.0
C4053 C 0.13938 0.61596 0.31005 0.0
C4054 C 0.12602 0.60972 0.28171 0.0
C4055 C 0.13542 0.62348 0.27402 0.0
C4056 C 0.14727 0.6331 0.28435 0.0
H4057 H 0.13231 0.66078 0.16542 0.0
H4058 H 0.13767 0.65911 0.19699 0.0
C4059 C 0.14928 0.62935 0.30219 0.0
C4060 C 0.13185 0.62834 0.25551 0.0
H4061 H 0.15009 0.6303 0.21479 0.0
C4062 C 0.11484 0.63358 0.25098 0.0
C4063 C 0.14478 0.62738 0.24234 0.0
C4064 C 0.16314 0.62148 0.24637 0.0
C4065 C 0.11037 0.63771 0.23365 0.0
C4066 C 0.12315 0.63624 0.22036 0.0
C4067 C 0.14028 0.63144 0.22496 0.0
C4068 C 0.11875 0.63852 0.20151 0.0
C4069 C 0.092 0.64373 0.22978 0.0
C4070 C 0.10618 0.62768 0.19354 0.0
C4071 C 0.10302 0.62866 0.17555 0.0
C4072 C 0.11246 0.64043 0.16503 0.0
C4073 C 0.12468 0.65168 0.17312 0.0
C4074 C 0.12785 0.65066 0.19116 0.0
H4075 H 0.08574 0.6495 0.24155 0.0
H4076 H 0.09183 0.65355 0.21913 0.0
H4077 H 0.08398 0.63233 0.2256 0.0
H4078 H 0.09922 0.61797 0.20112 0.0
H4079 H 0.09361 0.61971 0.16979 0.0
loop_
_geom_bond_atom_site_label_1
_geom_bond_atom_site_label_2
_geom_bond_distance
_geom_bond_site_symmetry_2
_ccdc_geom_bond_type
C0 O1 1.160 . S
C0 O7 1.185 . S
O1 C0 1.160 . S
O2 Zn3 1.899 . S
O2 C10 1.284 . S
Zn3 O2 1.899 . S
Zn3 O4 2.032 . S
Zn3 O7 2.086 . S
Zn3 O12 1.977 . S
O4 Zn3 2.032 . S
O4 C8 1.278 . S
C5 O6 1.203 . S
C5 O12 1.267 . S
O6 C5 1.203 . S
O7 C0 1.185 . S
O7 Zn3 2.086 . S
C8 O4 1.278 . S
C8 O9 1.211 . S
O9 C8 1.211 . S
C10 O2 1.284 . S
C10 O11 1.273 . S
O11 C10 1.273 . S
O12 Zn3 1.977 . S
O12 C5 1.267 . S
C13 O14 1.160 . S
C13 O20 1.185 . S
O14 C13 1.160 . S
O15 Zn16 1.899 . S
O15 C23 1.284 . S
Zn16 O15 1.899 . S
Zn16 O17 2.032 . S
Zn16 O20 2.086 . S
Zn16 O25 1.977 . S
O17 Zn16 2.032 . S
O17 C21 1.278 . S
C18 O19 1.203 . S
C18 O25 1.267 . S
O19 C18 1.203 . S
O20 C13 1.185 . S
O20 Zn16 2.086 . S
C21 O17 1.278 . S
C21 O22 1.211 . S
O22 C21 1.211 . S
C23 O15 1.284 . S
C23 O24 1.273 . S
O24 C23 1.273 . S
O25 Zn16 1.977 . S
O25 C18 1.267 . S
C26 O27 1.160 . S
C26 O33 1.185 . S
O27 C26 1.160 . S
O28 Zn29 1.899 . S
O28 C36 1.284 . S
Zn29 O28 1.899 . S
Zn29 O30 2.032 . S
Zn29 O33 2.086 . S
Zn29 O38 1.977 . S
O30 Zn29 2.032 . S
O30 C34 1.278 . S
C31 O32 1.203 . S
C31 O38 1.267 . S
O32 C31 1.203 . S
O33 C26 1.185 . S
O33 Zn29 2.086 . S
C34 O30 1.278 . S
C34 O35 1.211 . S
O35 C34 1.211 . S
C36 O28 1.284 . S
C36 O37 1.273 . S
O37 C36 1.273 . S
O38 Zn29 1.977 . S
O38 C31 1.267 . S
C39 O40 1.160 . S
C39 O46 1.185 . S
O40 C39 1.160 . S
O41 Zn42 1.899 . S
O41 C49 1.284 . S
Zn42 O41 1.899 . S
Zn42 O43 2.032 . S
Zn42 O46 2.086 . S
Zn42 O51 1.977 . S
O43 Zn42 2.032 . S
O43 C47 1.278 . S
C44 O45 1.203 . S
C44 O51 1.267 . S
O45 C44 1.203 . S
O46 C39 1.185 . S
O46 Zn42 2.086 . S
C47 O43 1.278 . S
C47 O48 1.211 . S
O48 C47 1.211 . S
C49 O41 1.284 . S
C49 O50 1.273 . S
O50 C49 1.273 . S
O51 Zn42 1.977 . S
O51 C44 1.267 . S
C52 O53 1.160 . S
C52 O59 1.185 . S
O53 C52 1.160 . S
O54 Zn55 1.899 . S
O54 C62 1.284 . S
Zn55 O54 1.899 . S
Zn55 O56 2.032 . S
Zn55 O59 2.086 . S
Zn55 O64 1.977 . S
O56 Zn55 2.032 . S
O56 C60 1.278 . S
C57 O58 1.203 . S
C57 O64 1.267 . S
O58 C57 1.203 . S
O59 C52 1.185 . S
O59 Zn55 2.086 . S
C60 O56 1.278 . S
C60 O61 1.211 . S
O61 C60 1.211 . S
C62 O54 1.284 . S
C62 O63 1.273 . S
O63 C62 1.273 . S
O64 Zn55 1.977 . S
O64 C57 1.267 . S
C65 O66 1.160 . S
C65 O72 1.185 . S
O66 C65 1.160 . S
O67 Zn68 1.899 . S
O67 C75 1.284 . S
Zn68 O67 1.899 . S
Zn68 O69 2.032 . S
Zn68 O72 2.086 . S
Zn68 O77 1.977 . S
O69 Zn68 2.032 . S
O69 C73 1.278 . S
C70 O71 1.203 . S
C70 O77 1.267 . S
O71 C70 1.203 . S
O72 C65 1.185 . S
O72 Zn68 2.086 . S
C73 O69 1.278 . S
C73 O74 1.211 . S
O74 C73 1.211 . S
C75 O67 1.284 . S
C75 O76 1.273 . S
O76 C75 1.273 . S
O77 Zn68 1.977 . S
O77 C70 1.267 . S
C78 O79 1.160 . S
C78 O85 1.185 . S
O79 C78 1.160 . S
O80 Zn81 1.899 . S
O80 C88 1.284 . S
Zn81 O80 1.899 . S
Zn81 O82 2.032 . S
Zn81 O85 2.086 . S
Zn81 O90 1.977 . S
O82 Zn81 2.032 . S
O82 C86 1.278 . S
C83 O84 1.203 . S
C83 O90 1.267 . S
O84 C83 1.203 . S
O85 C78 1.185 . S
O85 Zn81 2.086 . S
C86 O82 1.278 . S
C86 O87 1.211 . S
O87 C86 1.211 . S
C88 O80 1.284 . S
C88 O89 1.273 . S
O89 C88 1.273 . S
O90 Zn81 1.977 . S
O90 C83 1.267 . S
C91 O92 1.160 . S
C91 O98 1.185 . S
O92 C91 1.160 . S
O93 Zn94 1.899 . S
O93 C101 1.284 . S
Zn94 O93 1.899 . S
Zn94 O95 2.032 . S
Zn94 O98 2.086 . S
Zn94 O103 1.977 . S
O95 Zn94 2.032 . S
O95 C99 1.278 . S
C96 O97 1.203 . S
C96 O103 1.267 . S
O97 C96 1.203 . S
O98 C91 1.185 . S
O98 Zn94 2.086 . S
C99 O95 1.278 . S
C99 O100 1.211 . S
O100 C99 1.211 . S
C101 O93 1.284 . S
C101 O102 1.273 . S
O102 C101 1.273 . S
O103 Zn94 1.977 . S
O103 C96 1.267 . S
C104 O105 1.160 . S
C104 O111 1.185 . S
O105 C104 1.160 . S
O106 Zn107 1.899 . S
O106 C114 1.284 . S
Zn107 O106 1.899 . S
Zn107 O108 2.032 . S
Zn107 O111 2.086 . S
Zn107 O116 1.977 . S
O108 Zn107 2.032 . S
O108 C112 1.278 . S
C109 O110 1.203 . S
C109 O116 1.267 . S
O110 C109 1.203 . S
O111 C104 1.185 . S
O111 Zn107 2.086 . S
C112 O108 1.278 . S
C112 O113 1.211 . S
O113 C112 1.211 . S
C114 O106 1.284 . S
C114 O115 1.273 . S
O115 C114 1.273 . S
O116 Zn107 1.977 . S
O116 C109 1.267 . S
C117 O118 1.160 . S
C117 O124 1.185 . S
O118 C117 1.160 . S
O119 Zn120 1.899 . S
O119 C127 1.284 . S
Zn120 O119 1.899 . S
Zn120 O121 2.032 . S
Zn120 O124 2.086 . S
Zn120 O129 1.977 . S
O121 Zn120 2.032 . S
O121 C125 1.278 . S
C122 O123 1.203 . S
C122 O129 1.267 . S
O123 C122 1.203 . S
O124 C117 1.185 . S
O124 Zn120 2.086 . S
C125 O121 1.278 . S
C125 O126 1.211 . S
O126 C125 1.211 . S
C127 O119 1.284 . S
C127 O128 1.273 . S
O128 C127 1.273 . S
O129 Zn120 1.977 . S
O129 C122 1.267 . S
C130 O131 1.160 . S
C130 O137 1.185 . S
O131 C130 1.160 . S
O132 Zn133 1.899 . S
O132 C140 1.284 . S
Zn133 O132 1.899 . S
Zn133 O134 2.032 . S
Zn133 O137 2.086 . S
Zn133 O142 1.977 . S
O134 Zn133 2.032 . S
O134 C138 1.278 . S
C135 O136 1.203 . S
C135 O142 1.267 . S
O136 C135 1.203 . S
O137 C130 1.185 . S
O137 Zn133 2.086 . S
C138 O134 1.278 . S
C138 O139 1.211 . S
O139 C138 1.211 . S
C140 O132 1.284 . S
C140 O141 1.273 . S
O141 C140 1.273 . S
O142 Zn133 1.977 . S
O142 C135 1.267 . S
C143 O144 1.160 . S
C143 O150 1.185 . S
O144 C143 1.160 . S
O145 Zn146 1.899 . S
O145 C153 1.284 . S
Zn146 O145 1.899 . S
Zn146 O147 2.032 . S
Zn146 O150 2.086 . S
Zn146 O155 1.977 . S
O147 Zn146 2.032 . S
O147 C151 1.278 . S
C148 O149 1.203 . S
C148 O155 1.267 . S
O149 C148 1.203 . S
O150 C143 1.185 . S
O150 Zn146 2.086 . S
C151 O147 1.278 . S
C151 O152 1.211 . S
O152 C151 1.211 . S
C153 O145 1.284 . S
C153 O154 1.273 . S
O154 C153 1.273 . S
O155 Zn146 1.977 . S
O155 C148 1.267 . S
C156 O157 1.160 . S
C156 O163 1.185 . S
O157 C156 1.160 . S
O158 Zn159 1.899 . S
O158 C166 1.284 . S
Zn159 O158 1.899 . S
Zn159 O160 2.032 . S
Zn159 O163 2.086 . S
Zn159 O168 1.977 . S
O160 Zn159 2.032 . S
O160 C164 1.278 . S
C161 O162 1.203 . S
C161 O168 1.267 . S
O162 C161 1.203 . S
O163 C156 1.185 . S
O163 Zn159 2.086 . S
C164 O160 1.278 . S
C164 O165 1.211 . S
O165 C164 1.211 . S
C166 O158 1.284 . S
C166 O167 1.273 . S
O167 C166 1.273 . S
O168 Zn159 1.977 . S
O168 C161 1.267 . S
C169 O170 1.160 . S
C169 O176 1.185 . S
O170 C169 1.160 . S
O171 Zn172 1.899 . S
O171 C179 1.284 . S
Zn172 O171 1.899 . S
Zn172 O173 2.032 . S
Zn172 O176 2.086 . S
Zn172 O181 1.977 . S
O173 Zn172 2.032 . S
O173 C177 1.278 . S
C174 O175 1.203 . S
C174 O181 1.267 . S
O175 C174 1.203 . S
O176 C169 1.185 . S
O176 Zn172 2.086 . S
C177 O173 1.278 . S
C177 O178 1.211 . S
O178 C177 1.211 . S
C179 O171 1.284 . S
C179 O180 1.273 . S
O180 C179 1.273 . S
O181 Zn172 1.977 . S
O181 C174 1.267 . S
C182 O183 1.160 . S
C182 O189 1.185 . S
O183 C182 1.160 . S
O184 Zn185 1.899 . S
O184 C192 1.284 . S
Zn185 O184 1.899 . S
Zn185 O186 2.032 . S
Zn185 O189 2.086 . S
Zn185 O194 1.977 . S
O186 Zn185 2.032 . S
O186 C190 1.278 . S
C187 O188 1.203 . S
C187 O194 1.267 . S
O188 C187 1.203 . S
O189 C182 1.185 . S
O189 Zn185 2.086 . S
C190 O186 1.278 . S
C190 O191 1.211 . S
O191 C190 1.211 . S
C192 O184 1.284 . S
C192 O193 1.273 . S
O193 C192 1.273 . S
O194 Zn185 1.977 . S
O194 C187 1.267 . S
C195 O196 1.160 . S
C195 O202 1.185 . S
O196 C195 1.160 . S
O197 Zn198 1.899 . S
O197 C205 1.284 . S
Zn198 O197 1.899 . S
Zn198 O199 2.032 . S
Zn198 O202 2.086 . S
Zn198 O207 1.977 . S
O199 Zn198 2.032 . S
O199 C203 1.278 . S
C200 O201 1.203 . S
C200 O207 1.267 . S
O201 C200 1.203 . S
O202 C195 1.185 . S
O202 Zn198 2.086 . S
C203 O199 1.278 . S
C203 O204 1.211 . S
O204 C203 1.211 . S
C205 O197 1.284 . S
C205 O206 1.273 . S
O206 C205 1.273 . S
O207 Zn198 1.977 . S
O207 C200 1.267 . S
C208 O209 1.160 . S
C208 O215 1.185 . S
O209 C208 1.160 . S
O210 Zn211 1.899 . S
O210 C218 1.284 . S
Zn211 O210 1.899 . S
Zn211 O212 2.032 . S
Zn211 O215 2.086 . S
Zn211 O220 1.977 . S
O212 Zn211 2.032 . S
O212 C216 1.278 . S
C213 O214 1.203 . S
C213 O220 1.267 . S
O214 C213 1.203 . S
O215 C208 1.185 . S
O215 Zn211 2.086 . S
C216 O212 1.278 . S
C216 O217 1.211 . S
O217 C216 1.211 . S
C218 O210 1.284 . S
C218 O219 1.273 . S
O219 C218 1.273 . S
O220 Zn211 1.977 . S
O220 C213 1.267 . S
C221 O222 1.160 . S
C221 O228 1.185 . S
O222 C221 1.160 . S
O223 Zn224 1.899 . S
O223 C231 1.284 . S
Zn224 O223 1.899 . S
Zn224 O225 2.032 . S
Zn224 O228 2.086 . S
Zn224 O233 1.977 . S
O225 Zn224 2.032 . S
O225 C229 1.278 . S
C226 O227 1.203 . S
C226 O233 1.267 . S
O227 C226 1.203 . S
O228 C221 1.185 . S
O228 Zn224 2.086 . S
C229 O225 1.278 . S
C229 O230 1.211 . S
O230 C229 1.211 . S
C231 O223 1.284 . S
C231 O232 1.273 . S
O232 C231 1.273 . S
O233 Zn224 1.977 . S
O233 C226 1.267 . S
C234 O235 1.160 . S
C234 O241 1.185 . S
O235 C234 1.160 . S
O236 Zn237 1.899 . S
O236 C244 1.284 . S
Zn237 O236 1.899 . S
Zn237 O238 2.032 . S
Zn237 O241 2.086 . S
Zn237 O246 1.977 . S
O238 Zn237 2.032 . S
O238 C242 1.278 . S
C239 O240 1.203 . S
C239 O246 1.267 . S
O240 C239 1.203 . S
O241 C234 1.185 . S
O241 Zn237 2.086 . S
C242 O238 1.278 . S
C242 O243 1.211 . S
O243 C242 1.211 . S
C244 O236 1.284 . S
C244 O245 1.273 . S
O245 C244 1.273 . S
O246 Zn237 1.977 . S
O246 C239 1.267 . S
C247 O248 1.160 . S
C247 O254 1.185 . S
O248 C247 1.160 . S
O249 Zn250 1.899 . S
O249 C257 1.284 . S
Zn250 O249 1.899 . S
Zn250 O251 2.032 . S
Zn250 O254 2.086 . S
Zn250 O259 1.977 . S
O251 Zn250 2.032 . S
O251 C255 1.278 . S
C252 O253 1.203 . S
C252 O259 1.267 . S
O253 C252 1.203 . S
O254 C247 1.185 . S
O254 Zn250 2.086 . S
C255 O251 1.278 . S
C255 O256 1.211 . S
O256 C255 1.211 . S
C257 O249 1.284 . S
C257 O258 1.273 . S
O258 C257 1.273 . S
O259 Zn250 1.977 . S
O259 C252 1.267 . S
C260 O261 1.160 . S
C260 O267 1.185 . S
O261 C260 1.160 . S
O262 Zn263 1.899 . S
O262 C270 1.284 . S
Zn263 O262 1.899 . S
Zn263 O264 2.032 . S
Zn263 O267 2.086 . S
Zn263 O272 1.977 . S
O264 Zn263 2.032 . S
O264 C268 1.278 . S
C265 O266 1.203 . S
C265 O272 1.267 . S
O266 C265 1.203 . S
O267 C260 1.185 . S
O267 Zn263 2.086 . S
C268 O264 1.278 . S
C268 O269 1.211 . S
O269 C268 1.211 . S
C270 O262 1.284 . S
C270 O271 1.273 . S
O271 C270 1.273 . S
O272 Zn263 1.977 . S
O272 C265 1.267 . S
C273 O274 1.160 . S
C273 O280 1.185 . S
O274 C273 1.160 . S
O275 Zn276 1.899 . S
O275 C283 1.284 . S
Zn276 O275 1.899 . S
Zn276 O277 2.032 . S
Zn276 O280 2.086 . S
Zn276 O285 1.977 . S
O277 Zn276 2.032 . S
O277 C281 1.278 . S
C278 O279 1.203 . S
C278 O285 1.267 . S
O279 C278 1.203 . S
O280 C273 1.185 . S
O280 Zn276 2.086 . S
C281 O277 1.278 . S
C281 O282 1.211 . S
O282 C281 1.211 . S
C283 O275 1.284 . S
C283 O284 1.273 . S
O284 C283 1.273 . S
O285 Zn276 1.977 . S
O285 C278 1.267 . S
C286 O287 1.160 . S
C286 O293 1.185 . S
O287 C286 1.160 . S
O288 Zn289 1.899 . S
O288 C296 1.284 . S
Zn289 O288 1.899 . S
Zn289 O290 2.032 . S
Zn289 O293 2.086 . S
Zn289 O298 1.977 . S
O290 Zn289 2.032 . S
O290 C294 1.278 . S
C291 O292 1.203 . S
C291 O298 1.267 . S
O292 C291 1.203 . S
O293 C286 1.185 . S
O293 Zn289 2.086 . S
C294 O290 1.278 . S
C294 O295 1.211 . S
O295 C294 1.211 . S
C296 O288 1.284 . S
C296 O297 1.273 . S
O297 C296 1.273 . S
O298 Zn289 1.977 . S
O298 C291 1.267 . S
C299 O300 1.160 . S
C299 O306 1.185 . S
O300 C299 1.160 . S
O301 Zn302 1.899 . S
O301 C309 1.284 . S
Zn302 O301 1.899 . S
Zn302 O303 2.032 . S
Zn302 O306 2.086 . S
Zn302 O311 1.977 . S
O303 Zn302 2.032 . S
O303 C307 1.278 . S
C304 O305 1.203 . S
C304 O311 1.267 . S
O305 C304 1.203 . S
O306 C299 1.185 . S
O306 Zn302 2.086 . S
C307 O303 1.278 . S
C307 O308 1.211 . S
O308 C307 1.211 . S
C309 O301 1.284 . S
C309 O310 1.273 . S
O310 C309 1.273 . S
O311 Zn302 1.977 . S
O311 C304 1.267 . S
C312 O313 1.160 . S
C312 O319 1.185 . S
O313 C312 1.160 . S
O314 Zn315 1.899 . S
O314 C322 1.284 . S
Zn315 O314 1.899 . S
Zn315 O316 2.032 . S
Zn315 O319 2.086 . S
Zn315 O324 1.977 . S
O316 Zn315 2.032 . S
O316 C320 1.278 . S
C317 O318 1.203 . S
C317 O324 1.267 . S
O318 C317 1.203 . S
O319 C312 1.185 . S
O319 Zn315 2.086 . S
C320 O316 1.278 . S
C320 O321 1.211 . S
O321 C320 1.211 . S
C322 O314 1.284 . S
C322 O323 1.273 . S
O323 C322 1.273 . S
O324 Zn315 1.977 . S
O324 C317 1.267 . S
C325 O326 1.160 . S
C325 O332 1.185 . S
O326 C325 1.160 . S
O327 Zn328 1.899 . S
O327 C335 1.284 . S
Zn328 O327 1.899 . S
Zn328 O329 2.032 . S
Zn328 O332 2.086 . S
Zn328 O337 1.977 . S
O329 Zn328 2.032 . S
O329 C333 1.278 . S
C330 O331 1.203 . S
C330 O337 1.267 . S
O331 C330 1.203 . S
O332 C325 1.185 . S
O332 Zn328 2.086 . S
C333 O329 1.278 . S
C333 O334 1.211 . S
O334 C333 1.211 . S
C335 O327 1.284 . S
C335 O336 1.273 . S
O336 C335 1.273 . S
O337 Zn328 1.977 . S
O337 C330 1.267 . S
C338 O339 1.160 . S
C338 O345 1.185 . S
O339 C338 1.160 . S
O340 Zn341 1.899 . S
O340 C348 1.284 . S
Zn341 O340 1.899 . S
Zn341 O342 2.032 . S
Zn341 O345 2.086 . S
Zn341 O350 1.977 . S
O342 Zn341 2.032 . S
O342 C346 1.278 . S
C343 O344 1.203 . S
C343 O350 1.267 . S
O344 C343 1.203 . S
O345 C338 1.185 . S
O345 Zn341 2.086 . S
C346 O342 1.278 . S
C346 O347 1.211 . S
O347 C346 1.211 . S
C348 O340 1.284 . S
C348 O349 1.273 . S
O349 C348 1.273 . S
O350 Zn341 1.977 . S
O350 C343 1.267 . S
C351 O352 1.160 . S
C351 O358 1.185 . S
O352 C351 1.160 . S
O353 Zn354 1.899 . S
O353 C361 1.284 . S
Zn354 O353 1.899 . S
Zn354 O355 2.032 . S
Zn354 O358 2.086 . S
Zn354 O363 1.977 . S
O355 Zn354 2.032 . S
O355 C359 1.278 . S
C356 O357 1.203 . S
C356 O363 1.267 . S
O357 C356 1.203 . S
O358 C351 1.185 . S
O358 Zn354 2.086 . S
C359 O355 1.278 . S
C359 O360 1.211 . S
O360 C359 1.211 . S
C361 O353 1.284 . S
C361 O362 1.273 . S
O362 C361 1.273 . S
O363 Zn354 1.977 . S
O363 C356 1.267 . S
C364 O365 1.160 . S
C364 O371 1.185 . S
O365 C364 1.160 . S
O366 Zn367 1.899 . S
O366 C374 1.284 . S
Zn367 O366 1.899 . S
Zn367 O368 2.032 . S
Zn367 O371 2.086 . S
Zn367 O376 1.977 . S
O368 Zn367 2.032 . S
O368 C372 1.278 . S
C369 O370 1.203 . S
C369 O376 1.267 . S
O370 C369 1.203 . S
O371 C364 1.185 . S
O371 Zn367 2.086 . S
C372 O368 1.278 . S
C372 O373 1.211 . S
O373 C372 1.211 . S
C374 O366 1.284 . S
C374 O375 1.273 . S
O375 C374 1.273 . S
O376 Zn367 1.977 . S
O376 C369 1.267 . S
C377 O378 1.160 . S
C377 O384 1.185 . S
O378 C377 1.160 . S
O379 Zn380 1.899 . S
O379 C387 1.284 . S
Zn380 O379 1.899 . S
Zn380 O381 2.032 . S
Zn380 O384 2.086 . S
Zn380 O389 1.977 . S
O381 Zn380 2.032 . S
O381 C385 1.278 . S
C382 O383 1.203 . S
C382 O389 1.267 . S
O383 C382 1.203 . S
O384 C377 1.185 . S
O384 Zn380 2.086 . S
C385 O381 1.278 . S
C385 O386 1.211 . S
O386 C385 1.211 . S
C387 O379 1.284 . S
C387 O388 1.273 . S
O388 C387 1.273 . S
O389 Zn380 1.977 . S
O389 C382 1.267 . S
C390 O391 1.160 . S
C390 O397 1.185 . S
O391 C390 1.160 . S
O392 Zn393 1.899 . S
O392 C400 1.284 . S
Zn393 O392 1.899 . S
Zn393 O394 2.032 . S
Zn393 O397 2.086 . S
Zn393 O402 1.977 . S
O394 Zn393 2.032 . S
O394 C398 1.278 . S
C395 O396 1.203 . S
C395 O402 1.267 . S
O396 C395 1.203 . S
O397 C390 1.185 . S
O397 Zn393 2.086 . S
C398 O394 1.278 . S
C398 O399 1.211 . S
O399 C398 1.211 . S
C400 O392 1.284 . S
C400 O401 1.273 . S
O401 C400 1.273 . S
O402 Zn393 1.977 . S
O402 C395 1.267 . S
C403 O404 1.160 . S
C403 O410 1.185 . S
O404 C403 1.160 . S
O405 Zn406 1.899 . S
O405 C413 1.284 . S
Zn406 O405 1.899 . S
Zn406 O407 2.032 . S
Zn406 O410 2.086 . S
Zn406 O415 1.977 . S
O407 Zn406 2.032 . S
O407 C411 1.278 . S
C408 O409 1.203 . S
C408 O415 1.267 . S
O409 C408 1.203 . S
O410 C403 1.185 . S
O410 Zn406 2.086 . S
C411 O407 1.278 . S
C411 O412 1.211 . S
O412 C411 1.211 . S
C413 O405 1.284 . S
C413 O414 1.273 . S
O414 C413 1.273 . S
O415 Zn406 1.977 . S
O415 C408 1.267 . S
C416 O417 1.160 . S
C416 O423 1.185 . S
O417 C416 1.160 . S
O418 Zn419 1.899 . S
O418 C426 1.284 . S
Zn419 O418 1.899 . S
Zn419 O420 2.032 . S
Zn419 O423 2.086 . S
Zn419 O428 1.977 . S
O420 Zn419 2.032 . S
O420 C424 1.278 . S
C421 O422 1.203 . S
C421 O428 1.267 . S
O422 C421 1.203 . S
O423 C416 1.185 . S
O423 Zn419 2.086 . S
C424 O420 1.278 . S
C424 O425 1.211 . S
O425 C424 1.211 . S
C426 O418 1.284 . S
C426 O427 1.273 . S
O427 C426 1.273 . S
O428 Zn419 1.977 . S
O428 C421 1.267 . S
C429 O430 1.160 . S
C429 O436 1.185 . S
O430 C429 1.160 . S
O431 Zn432 1.899 . S
O431 C439 1.284 . S
Zn432 O431 1.899 . S
Zn432 O433 2.032 . S
Zn432 O436 2.086 . S
Zn432 O441 1.977 . S
O433 Zn432 2.032 . S
O433 C437 1.278 . S
C434 O435 1.203 . S
C434 O441 1.267 . S
O435 C434 1.203 . S
O436 C429 1.185 . S
O436 Zn432 2.086 . S
C437 O433 1.278 . S
C437 O438 1.211 . S
O438 C437 1.211 . S
C439 O431 1.284 . S
C439 O440 1.273 . S
O440 C439 1.273 . S
O441 Zn432 1.977 . S
O441 C434 1.267 . S
C442 O443 1.160 . S
C442 O449 1.185 . S
O443 C442 1.160 . S
O444 Zn445 1.899 . S
O444 C452 1.284 . S
Zn445 O444 1.899 . S
Zn445 O446 2.032 . S
Zn445 O449 2.086 . S
Zn445 O454 1.977 . S
O446 Zn445 2.032 . S
O446 C450 1.278 . S
C447 O448 1.203 . S
C447 O454 1.267 . S
O448 C447 1.203 . S
O449 C442 1.185 . S
O449 Zn445 2.086 . S
C450 O446 1.278 . S
C450 O451 1.211 . S
O451 C450 1.211 . S
C452 O444 1.284 . S
C452 O453 1.273 . S
O453 C452 1.273 . S
O454 Zn445 1.977 . S
O454 C447 1.267 . S
C455 O456 1.160 . S
C455 O462 1.185 . S
O456 C455 1.160 . S
O457 Zn458 1.899 . S
O457 C465 1.284 . S
Zn458 O457 1.899 . S
Zn458 O459 2.032 . S
Zn458 O462 2.086 . S
Zn458 O467 1.977 . S
O459 Zn458 2.032 . S
O459 C463 1.278 . S
C460 O461 1.203 . S
C460 O467 1.267 . S
O461 C460 1.203 . S
O462 C455 1.185 . S
O462 Zn458 2.086 . S
C463 O459 1.278 . S
C463 O464 1.211 . S
O464 C463 1.211 . S
C465 O457 1.284 . S
C465 O466 1.273 . S
O466 C465 1.273 . S
O467 Zn458 1.977 . S
O467 C460 1.267 . S
C468 O469 1.160 . S
C468 O475 1.185 . S
O469 C468 1.160 . S
O470 Zn471 1.899 . S
O470 C478 1.284 . S
Zn471 O470 1.899 . S
Zn471 O472 2.032 . S
Zn471 O475 2.086 . S
Zn471 O480 1.977 . S
O472 Zn471 2.032 . S
O472 C476 1.278 . S
C473 O474 1.203 . S
C473 O480 1.267 . S
O474 C473 1.203 . S
O475 C468 1.185 . S
O475 Zn471 2.086 . S
C476 O472 1.278 . S
C476 O477 1.211 . S
O477 C476 1.211 . S
C478 O470 1.284 . S
C478 O479 1.273 . S
O479 C478 1.273 . S
O480 Zn471 1.977 . S
O480 C473 1.267 . S
C481 O482 1.160 . S
C481 O488 1.185 . S
O482 C481 1.160 . S
O483 Zn484 1.899 . S
O483 C491 1.284 . S
Zn484 O483 1.899 . S
Zn484 O485 2.032 . S
Zn484 O488 2.086 . S
Zn484 O493 1.977 . S
O485 Zn484 2.032 . S
O485 C489 1.278 . S
C486 O487 1.203 . S
C486 O493 1.267 . S
O487 C486 1.203 . S
O488 C481 1.185 . S
O488 Zn484 2.086 . S
C489 O485 1.278 . S
C489 O490 1.211 . S
O490 C489 1.211 . S
C491 O483 1.284 . S
C491 O492 1.273 . S
O492 C491 1.273 . S
O493 Zn484 1.977 . S
O493 C486 1.267 . S
C494 O495 1.160 . S
C494 O501 1.185 . S
O495 C494 1.160 . S
O496 Zn497 1.899 . S
O496 C504 1.284 . S
Zn497 O496 1.899 . S
Zn497 O498 2.032 . S
Zn497 O501 2.086 . S
Zn497 O506 1.977 . S
O498 Zn497 2.032 . S
O498 C502 1.278 . S
C499 O500 1.203 . S
C499 O506 1.267 . S
O500 C499 1.203 . S
O501 C494 1.185 . S
O501 Zn497 2.086 . S
C502 O498 1.278 . S
C502 O503 1.211 . S
O503 C502 1.211 . S
C504 O496 1.284 . S
C504 O505 1.273 . S
O505 C504 1.273 . S
O506 Zn497 1.977 . S
O506 C499 1.267 . S
C507 O508 1.160 . S
C507 O514 1.185 . S
O508 C507 1.160 . S
O509 Zn510 1.899 . S
O509 C517 1.284 . S
Zn510 O509 1.899 . S
Zn510 O511 2.032 . S
Zn510 O514 2.086 . S
Zn510 O519 1.977 . S
O511 Zn510 2.032 . S
O511 C515 1.278 . S
C512 O513 1.203 . S
C512 O519 1.267 . S
O513 C512 1.203 . S
O514 C507 1.185 . S
O514 Zn510 2.086 . S
C515 O511 1.278 . S
C515 O516 1.211 . S
O516 C515 1.211 . S
C517 O509 1.284 . S
C517 O518 1.273 . S
O518 C517 1.273 . S
O519 Zn510 1.977 . S
O519 C512 1.267 . S
C520 O521 1.160 . S
C520 O527 1.185 . S
O521 C520 1.160 . S
O522 Zn523 1.899 . S
O522 C530 1.284 . S
Zn523 O522 1.899 . S
Zn523 O524 2.032 . S
Zn523 O527 2.086 . S
Zn523 O532 1.977 . S
O524 Zn523 2.032 . S
O524 C528 1.278 . S
C525 O526 1.203 . S
C525 O532 1.267 . S
O526 C525 1.203 . S
O527 C520 1.185 . S
O527 Zn523 2.086 . S
C528 O524 1.278 . S
C528 O529 1.211 . S
O529 C528 1.211 . S
C530 O522 1.284 . S
C530 O531 1.273 . S
O531 C530 1.273 . S
O532 Zn523 1.977 . S
O532 C525 1.267 . S
C533 O534 1.160 . S
C533 O540 1.185 . S
O534 C533 1.160 . S
O535 Zn536 1.899 . S
O535 C543 1.284 . S
Zn536 O535 1.899 . S
Zn536 O537 2.032 . S
Zn536 O540 2.086 . S
Zn536 O545 1.977 . S
O537 Zn536 2.032 . S
O537 C541 1.278 . S
C538 O539 1.203 . S
C538 O545 1.267 . S
O539 C538 1.203 . S
O540 C533 1.185 . S
O540 Zn536 2.086 . S
C541 O537 1.278 . S
C541 O542 1.211 . S
O542 C541 1.211 . S
C543 O535 1.284 . S
C543 O544 1.273 . S
O544 C543 1.273 . S
O545 Zn536 1.977 . S
O545 C538 1.267 . S
C546 O547 1.160 . S
C546 O553 1.185 . S
O547 C546 1.160 . S
O548 Zn549 1.899 . S
O548 C556 1.284 . S
Zn549 O548 1.899 . S
Zn549 O550 2.032 . S
Zn549 O553 2.086 . S
Zn549 O558 1.977 . S
O550 Zn549 2.032 . S
O550 C554 1.278 . S
C551 O552 1.203 . S
C551 O558 1.267 . S
O552 C551 1.203 . S
O553 C546 1.185 . S
O553 Zn549 2.086 . S
C554 O550 1.278 . S
C554 O555 1.211 . S
O555 C554 1.211 . S
C556 O548 1.284 . S
C556 O557 1.273 . S
O557 C556 1.273 . S
O558 Zn549 1.977 . S
O558 C551 1.267 . S
C559 O560 1.160 . S
C559 O566 1.185 . S
O560 C559 1.160 . S
O561 Zn562 1.899 . S
O561 C569 1.284 . S
Zn562 O561 1.899 . S
Zn562 O563 2.032 . S
Zn562 O566 2.086 . S
Zn562 O571 1.977 . S
O563 Zn562 2.032 . S
O563 C567 1.278 . S
C564 O565 1.203 . S
C564 O571 1.267 . S
O565 C564 1.203 . S
O566 C559 1.185 . S
O566 Zn562 2.086 . S
C567 O563 1.278 . S
C567 O568 1.211 . S
O568 C567 1.211 . S
C569 O561 1.284 . S
C569 O570 1.273 . S
O570 C569 1.273 . S
O571 Zn562 1.977 . S
O571 C564 1.267 . S
C572 O573 1.160 . S
C572 O579 1.185 . S
O573 C572 1.160 . S
O574 Zn575 1.899 . S
O574 C582 1.284 . S
Zn575 O574 1.899 . S
Zn575 O576 2.032 . S
Zn575 O579 2.086 . S
Zn575 O584 1.977 . S
O576 Zn575 2.032 . S
O576 C580 1.278 . S
C577 O578 1.203 . S
C577 O584 1.267 . S
O578 C577 1.203 . S
O579 C572 1.185 . S
O579 Zn575 2.086 . S
C580 O576 1.278 . S
C580 O581 1.211 . S
O581 C580 1.211 . S
C582 O574 1.284 . S
C582 O583 1.273 . S
O583 C582 1.273 . S
O584 Zn575 1.977 . S
O584 C577 1.267 . S
C585 O586 1.160 . S
C585 O592 1.185 . S
O586 C585 1.160 . S
O587 Zn588 1.899 . S
O587 C595 1.284 . S
Zn588 O587 1.899 . S
Zn588 O589 2.032 . S
Zn588 O592 2.086 . S
Zn588 O597 1.977 . S
O589 Zn588 2.032 . S
O589 C593 1.278 . S
C590 O591 1.203 . S
C590 O597 1.267 . S
O591 C590 1.203 . S
O592 C585 1.185 . S
O592 Zn588 2.086 . S
C593 O589 1.278 . S
C593 O594 1.211 . S
O594 C593 1.211 . S
C595 O587 1.284 . S
C595 O596 1.273 . S
O596 C595 1.273 . S
O597 Zn588 1.977 . S
O597 C590 1.267 . S
C598 O599 1.160 . S
C598 O605 1.185 . S
O599 C598 1.160 . S
O600 Zn601 1.899 . S
O600 C608 1.284 . S
Zn601 O600 1.899 . S
Zn601 O602 2.032 . S
Zn601 O605 2.086 . S
Zn601 O610 1.977 . S
O602 Zn601 2.032 . S
O602 C606 1.278 . S
C603 O604 1.203 . S
C603 O610 1.267 . S
O604 C603 1.203 . S
O605 C598 1.185 . S
O605 Zn601 2.086 . S
C606 O602 1.278 . S
C606 O607 1.211 . S
O607 C606 1.211 . S
C608 O600 1.284 . S
C608 O609 1.273 . S
O609 C608 1.273 . S
O610 Zn601 1.977 . S
O610 C603 1.267 . S
C611 O612 1.160 . S
C611 O618 1.185 . S
O612 C611 1.160 . S
O613 Zn614 1.899 . S
O613 C621 1.284 . S
Zn614 O613 1.899 . S
Zn614 O615 2.032 . S
Zn614 O618 2.086 . S
Zn614 O623 1.977 . S
O615 Zn614 2.032 . S
O615 C619 1.278 . S
C616 O617 1.203 . S
C616 O623 1.267 . S
O617 C616 1.203 . S
O618 C611 1.185 . S
O618 Zn614 2.086 . S
C619 O615 1.278 . S
C619 O620 1.211 . S
O620 C619 1.211 . S
C621 O613 1.284 . S
C621 O622 1.273 . S
O622 C621 1.273 . S
O623 Zn614 1.977 . S
O623 C616 1.267 . S
H624 C632 0.929 . S
H625 C634 0.930 . S
H626 C636 0.930 . S
H627 C639 0.929 . S
H628 C642 0.930 . S
H629 C644 0.960 . S
H630 C644 0.960 . S
H631 C644 0.960 . S
C632 H624 0.929 . S
C632 C633 1.377 . S
C632 C634 1.384 . S
C633 C632 1.377 . S
C633 C639 1.390 . S
C634 H625 0.930 . S
C634 C632 1.384 . S
C634 C635 1.372 . S
C635 C634 1.372 . S
C635 C636 1.400 . S
C635 C640 1.490 . S
C636 H626 0.930 . S
C636 C635 1.400 . S
C636 C639 1.386 . S
H637 C653 0.930 . S
H638 C654 0.931 . S
C639 H627 0.929 . S
C639 C633 1.390 . S
C639 C636 1.386 . S
C640 C635 1.490 . S
C640 C642 1.395 . S
C640 C643 1.403 . S
H641 C647 0.930 . S
C642 H628 0.930 . S
C642 C640 1.395 . S
C642 C645 1.403 . S
C643 C640 1.403 . S
C643 C644 1.524 . S
C643 C647 1.400 . S
C644 H629 0.960 . S
C644 H630 0.960 . S
C644 H631 0.960 . S
C644 C643 1.524 . S
C645 C642 1.403 . S
C645 C646 1.392 . S
C645 C649 1.495 . S
C646 C645 1.392 . S
C646 C647 1.385 . S
C646 C648 1.478 . S
C647 H641 0.930 . S
C647 C643 1.400 . S
C647 C646 1.385 . S
C648 C646 1.478 . S
C648 C650 1.381 . S
C648 C654 1.383 . S
C649 C645 1.495 . S
C649 H655 0.959 . S
C649 H656 0.961 . S
C649 H657 0.960 . S
C650 C648 1.381 . S
C650 C651 1.394 . S
C650 H658 0.930 . S
C651 C650 1.394 . S
C651 C652 1.383 . S
C651 H659 0.929 . S
C652 C651 1.383 . S
C652 C653 1.377 . S
C653 H637 0.930 . S
C653 C652 1.377 . S
C653 C654 1.379 . S
C654 H638 0.931 . S
C654 C648 1.383 . S
C654 C653 1.379 . S
H655 C649 0.959 . S
H656 C649 0.961 . S
H657 C649 0.960 . S
H658 C650 0.930 . S
H659 C651 0.929 . S
H660 C668 0.929 . S
H661 C670 0.930 . S
H662 C672 0.930 . S
H663 C675 0.929 . S
H664 C678 0.930 . S
H665 C680 0.960 . S
H666 C680 0.960 . S
H667 C680 0.960 . S
C668 H660 0.929 . S
C668 C669 1.377 . S
C668 C670 1.384 . S
C669 C668 1.377 . S
C669 C675 1.390 . S
C670 H661 0.930 . S
C670 C668 1.384 . S
C670 C671 1.372 . S
C671 C670 1.372 . S
C671 C672 1.400 . S
C671 C676 1.490 . S
C672 H662 0.930 . S
C672 C671 1.400 . S
C672 C675 1.386 . S
H673 C689 0.930 . S
H674 C690 0.931 . S
C675 H663 0.929 . S
C675 C669 1.390 . S
C675 C672 1.386 . S
C676 C671 1.490 . S
C676 C678 1.395 . S
C676 C679 1.403 . S
H677 C683 0.930 . S
C678 H664 0.930 . S
C678 C676 1.395 . S
C678 C681 1.403 . S
C679 C676 1.403 . S
C679 C680 1.524 . S
C679 C683 1.400 . S
C680 H665 0.960 . S
C680 H666 0.960 . S
C680 H667 0.960 . S
C680 C679 1.524 . S
C681 C678 1.403 . S
C681 C682 1.392 . S
C681 C685 1.495 . S
C682 C681 1.392 . S
C682 C683 1.385 . S
C682 C684 1.478 . S
C683 H677 0.930 . S
C683 C679 1.400 . S
C683 C682 1.385 . S
C684 C682 1.478 . S
C684 C686 1.381 . S
C684 C690 1.383 . S
C685 C681 1.495 . S
C685 H691 0.959 . S
C685 H692 0.961 . S
C685 H693 0.960 . S
C686 C684 1.381 . S
C686 C687 1.394 . S
C686 H694 0.930 . S
C687 C686 1.394 . S
C687 C688 1.383 . S
C687 H695 0.929 . S
C688 C687 1.383 . S
C688 C689 1.377 . S
C689 H673 0.930 . S
C689 C688 1.377 . S
C689 C690 1.379 . S
C690 H674 0.931 . S
C690 C684 1.383 . S
C690 C689 1.379 . S
H691 C685 0.959 . S
H692 C685 0.961 . S
H693 C685 0.960 . S
H694 C686 0.930 . S
H695 C687 0.929 . S
H696 C704 0.929 . S
H697 C706 0.930 . S
H698 C708 0.930 . S
H699 C711 0.929 . S
H700 C714 0.930 . S
H701 C716 0.960 . S
H702 C716 0.960 . S
H703 C716 0.960 . S
C704 H696 0.929 . S
C704 C705 1.377 . S
C704 C706 1.384 . S
C705 C704 1.377 . S
C705 C711 1.390 . S
C706 H697 0.930 . S
C706 C704 1.384 . S
C706 C707 1.372 . S
C707 C706 1.372 . S
C707 C708 1.400 . S
C707 C712 1.490 . S
C708 H698 0.930 . S
C708 C707 1.400 . S
C708 C711 1.386 . S
H709 C725 0.930 . S
H710 C726 0.931 . S
C711 H699 0.929 . S
C711 C705 1.390 . S
C711 C708 1.386 . S
C712 C707 1.490 . S
C712 C714 1.395 . S
C712 C715 1.403 . S
H713 C719 0.930 . S
C714 H700 0.930 . S
C714 C712 1.395 . S
C714 C717 1.403 . S
C715 C712 1.403 . S
C715 C716 1.524 . S
C715 C719 1.400 . S
C716 H701 0.960 . S
C716 H702 0.960 . S
C716 H703 0.960 . S
C716 C715 1.524 . S
C717 C714 1.403 . S
C717 C718 1.392 . S
C717 C721 1.495 . S
C718 C717 1.392 . S
C718 C719 1.385 . S
C718 C720 1.478 . S
C719 H713 0.930 . S
C719 C715 1.400 . S
C719 C718 1.385 . S
C720 C718 1.478 . S
C720 C722 1.381 . S
C720 C726 1.383 . S
C721 C717 1.495 . S
C721 H727 0.959 . S
C721 H728 0.961 . S
C721 H729 0.960 . S
C722 C720 1.381 . S
C722 C723 1.394 . S
C722 H730 0.930 . S
C723 C722 1.394 . S
C723 C724 1.383 . S
C723 H731 0.929 . S
C724 C723 1.383 . S
C724 C725 1.377 . S
C725 H709 0.930 . S
C725 C724 1.377 . S
C725 C726 1.379 . S
C726 H710 0.931 . S
C726 C720 1.383 . S
C726 C725 1.379 . S
H727 C721 0.959 . S
H728 C721 0.961 . S
H729 C721 0.960 . S
H730 C722 0.930 . S
H731 C723 0.929 . S
H732 C740 0.929 . S
H733 C742 0.930 . S
H734 C744 0.930 . S
H735 C747 0.929 . S
H736 C750 0.930 . S
H737 C752 0.960 . S
H738 C752 0.960 . S
H739 C752 0.960 . S
C740 H732 0.929 . S
C740 C741 1.377 . S
C740 C742 1.384 . S
C741 C740 1.377 . S
C741 C747 1.390 . S
C742 H733 0.930 . S
C742 C740 1.384 . S
C742 C743 1.372 . S
C743 C742 1.372 . S
C743 C744 1.400 . S
C743 C748 1.490 . S
C744 H734 0.930 . S
C744 C743 1.400 . S
C744 C747 1.386 . S
H745 C761 0.930 . S
H746 C762 0.931 . S
C747 H735 0.929 . S
C747 C741 1.390 . S
C747 C744 1.386 . S
C748 C743 1.490 . S
C748 C750 1.395 . S
C748 C751 1.403 . S
H749 C755 0.930 . S
C750 H736 0.930 . S
C750 C748 1.395 . S
C750 C753 1.403 . S
C751 C748 1.403 . S
C751 C752 1.524 . S
C751 C755 1.400 . S
C752 H737 0.960 . S
C752 H738 0.960 . S
C752 H739 0.960 . S
C752 C751 1.524 . S
C753 C750 1.403 . S
C753 C754 1.392 . S
C753 C757 1.495 . S
C754 C753 1.392 . S
C754 C755 1.385 . S
C754 C756 1.478 . S
C755 H749 0.930 . S
C755 C751 1.400 . S
C755 C754 1.385 . S
C756 C754 1.478 . S
C756 C758 1.381 . S
C756 C762 1.383 . S
C757 C753 1.495 . S
C757 H763 0.959 . S
C757 H764 0.961 . S
C757 H765 0.960 . S
C758 C756 1.381 . S
C758 C759 1.394 . S
C758 H766 0.930 . S
C759 C758 1.394 . S
C759 C760 1.383 . S
C759 H767 0.929 . S
C760 C759 1.383 . S
C760 C761 1.377 . S
C761 H745 0.930 . S
C761 C760 1.377 . S
C761 C762 1.379 . S
C762 H746 0.931 . S
C762 C756 1.383 . S
C762 C761 1.379 . S
H763 C757 0.959 . S
H764 C757 0.961 . S
H765 C757 0.960 . S
H766 C758 0.930 . S
H767 C759 0.929 . S
H768 C776 0.929 . S
H769 C778 0.930 . S
H770 C780 0.930 . S
H771 C783 0.929 . S
H772 C786 0.930 . S
H773 C788 0.960 . S
H774 C788 0.960 . S
H775 C788 0.960 . S
C776 H768 0.929 . S
C776 C777 1.377 . S
C776 C778 1.384 . S
C777 C776 1.377 . S
C777 C783 1.390 . S
C778 H769 0.930 . S
C778 C776 1.384 . S
C778 C779 1.372 . S
C779 C778 1.372 . S
C779 C780 1.400 . S
C779 C784 1.490 . S
C780 H770 0.930 . S
C780 C779 1.400 . S
C780 C783 1.386 . S
H781 C797 0.930 . S
H782 C798 0.931 . S
C783 H771 0.929 . S
C783 C777 1.390 . S
C783 C780 1.386 . S
C784 C779 1.490 . S
C784 C786 1.395 . S
C784 C787 1.403 . S
H785 C791 0.930 . S
C786 H772 0.930 . S
C786 C784 1.395 . S
C786 C789 1.403 . S
C787 C784 1.403 . S
C787 C788 1.524 . S
C787 C791 1.400 . S
C788 H773 0.960 . S
C788 H774 0.960 . S
C788 H775 0.960 . S
C788 C787 1.524 . S
C789 C786 1.403 . S
C789 C790 1.392 . S
C789 C793 1.495 . S
C790 C789 1.392 . S
C790 C791 1.385 . S
C790 C792 1.478 . S
C791 H785 0.930 . S
C791 C787 1.400 . S
C791 C790 1.385 . S
C792 C790 1.478 . S
C792 C794 1.381 . S
C792 C798 1.383 . S
C793 C789 1.495 . S
C793 H799 0.959 . S
C793 H800 0.961 . S
C793 H801 0.960 . S
C794 C792 1.381 . S
C794 C795 1.394 . S
C794 H802 0.930 . S
C795 C794 1.394 . S
C795 C796 1.383 . S
C795 H803 0.929 . S
C796 C795 1.383 . S
C796 C797 1.377 . S
C797 H781 0.930 . S
C797 C796 1.377 . S
C797 C798 1.379 . S
C798 H782 0.931 . S
C798 C792 1.383 . S
C798 C797 1.379 . S
H799 C793 0.959 . S
H800 C793 0.961 . S
H801 C793 0.960 . S
H802 C794 0.930 . S
H803 C795 0.929 . S
H804 C812 0.929 . S
H805 C814 0.930 . S
H806 C816 0.930 . S
H807 C819 0.929 . S
H808 C822 0.930 . S
H809 C824 0.960 . S
H810 C824 0.960 . S
H811 C824 0.960 . S
C812 H804 0.929 . S
C812 C813 1.377 . S
C812 C814 1.384 . S
C813 C812 1.377 . S
C813 C819 1.390 . S
C814 H805 0.930 . S
C814 C812 1.384 . S
C814 C815 1.372 . S
C815 C814 1.372 . S
C815 C816 1.400 . S
C815 C820 1.490 . S
C816 H806 0.930 . S
C816 C815 1.400 . S
C816 C819 1.386 . S
H817 C833 0.930 . S
H818 C834 0.931 . S
C819 H807 0.929 . S
C819 C813 1.390 . S
C819 C816 1.386 . S
C820 C815 1.490 . S
C820 C822 1.395 . S
C820 C823 1.403 . S
H821 C827 0.930 . S
C822 H808 0.930 . S
C822 C820 1.395 . S
C822 C825 1.403 . S
C823 C820 1.403 . S
C823 C824 1.524 . S
C823 C827 1.400 . S
C824 H809 0.960 . S
C824 H810 0.960 . S
C824 H811 0.960 . S
C824 C823 1.524 . S
C825 C822 1.403 . S
C825 C826 1.392 . S
C825 C829 1.495 . S
C826 C825 1.392 . S
C826 C827 1.385 . S
C826 C828 1.478 . S
C827 H821 0.930 . S
C827 C823 1.400 . S
C827 C826 1.385 . S
C828 C826 1.478 . S
C828 C830 1.381 . S
C828 C834 1.383 . S
C829 C825 1.495 . S
C829 H835 0.959 . S
C829 H836 0.961 . S
C829 H837 0.960 . S
C830 C828 1.381 . S
C830 C831 1.394 . S
C830 H838 0.930 . S
C831 C830 1.394 . S
C831 C832 1.383 . S
C831 H839 0.929 . S
C832 C831 1.383 . S
C832 C833 1.377 . S
C833 H817 0.930 . S
C833 C832 1.377 . S
C833 C834 1.379 . S
C834 H818 0.931 . S
C834 C828 1.383 . S
C834 C833 1.379 . S
H835 C829 0.959 . S
H836 C829 0.961 . S
H837 C829 0.960 . S
H838 C830 0.930 . S
H839 C831 0.929 . S
H840 C848 0.929 . S
H841 C850 0.930 . S
H842 C852 0.930 . S
H843 C855 0.929 . S
H844 C858 0.930 . S
H845 C860 0.960 . S
H846 C860 0.960 . S
H847 C860 0.960 . S
C848 H840 0.929 . S
C848 C849 1.377 . S
C848 C850 1.384 . S
C849 C848 1.377 . S
C849 C855 1.390 . S
C850 H841 0.930 . S
C850 C848 1.384 . S
C850 C851 1.372 . S
C851 C850 1.372 . S
C851 C852 1.400 . S
C851 C856 1.490 . S
C852 H842 0.930 . S
C852 C851 1.400 . S
C852 C855 1.386 . S
H853 C869 0.930 . S
H854 C870 0.931 . S
C855 H843 0.929 . S
C855 C849 1.390 . S
C855 C852 1.386 . S
C856 C851 1.490 . S
C856 C858 1.395 . S
C856 C859 1.403 . S
H857 C863 0.930 . S
C858 H844 0.930 . S
C858 C856 1.395 . S
C858 C861 1.403 . S
C859 C856 1.403 . S
C859 C860 1.524 . S
C859 C863 1.400 . S
C860 H845 0.960 . S
C860 H846 0.960 . S
C860 H847 0.960 . S
C860 C859 1.524 . S
C861 C858 1.403 . S
C861 C862 1.392 . S
C861 C865 1.495 . S
C862 C861 1.392 . S
C862 C863 1.385 . S
C862 C864 1.478 . S
C863 H857 0.930 . S
C863 C859 1.400 . S
C863 C862 1.385 . S
C864 C862 1.478 . S
C864 C866 1.381 . S
C864 C870 1.383 . S
C865 C861 1.495 . S
C865 H871 0.959 . S
C865 H872 0.961 . S
C865 H873 0.960 . S
C866 C864 1.381 . S
C866 C867 1.394 . S
C866 H874 0.930 . S
C867 C866 1.394 . S
C867 C868 1.383 . S
C867 H875 0.929 . S
C868 C867 1.383 . S
C868 C869 1.377 . S
C869 H853 0.930 . S
C869 C868 1.377 . S
C869 C870 1.379 . S
C870 H854 0.931 . S
C870 C864 1.383 . S
C870 C869 1.379 . S
H871 C865 0.959 . S
H872 C865 0.961 . S
H873 C865 0.960 . S
H874 C866 0.930 . S
H875 C867 0.929 . S
H876 C884 0.929 . S
H877 C886 0.930 . S
H878 C888 0.930 . S
H879 C891 0.929 . S
H880 C894 0.930 . S
H881 C896 0.960 . S
H882 C896 0.960 . S
H883 C896 0.960 . S
C884 H876 0.929 . S
C884 C885 1.377 . S
C884 C886 1.384 . S
C885 C884 1.377 . S
C885 C891 1.390 . S
C886 H877 0.930 . S
C886 C884 1.384 . S
C886 C887 1.372 . S
C887 C886 1.372 . S
C887 C888 1.400 . S
C887 C892 1.490 . S
C888 H878 0.930 . S
C888 C887 1.400 . S
C888 C891 1.386 . S
H889 C905 0.930 . S
H890 C906 0.931 . S
C891 H879 0.929 . S
C891 C885 1.390 . S
C891 C888 1.386 . S
C892 C887 1.490 . S
C892 C894 1.395 . S
C892 C895 1.403 . S
H893 C899 0.930 . S
C894 H880 0.930 . S
C894 C892 1.395 . S
C894 C897 1.403 . S
C895 C892 1.403 . S
C895 C896 1.524 . S
C895 C899 1.400 . S
C896 H881 0.960 . S
C896 H882 0.960 . S
C896 H883 0.960 . S
C896 C895 1.524 . S
C897 C894 1.403 . S
C897 C898 1.392 . S
C897 C901 1.495 . S
C898 C897 1.392 . S
C898 C899 1.385 . S
C898 C900 1.478 . S
C899 H893 0.930 . S
C899 C895 1.400 . S
C899 C898 1.385 . S
C900 C898 1.478 . S
C900 C902 1.381 . S
C900 C906 1.383 . S
C901 C897 1.495 . S
C901 H907 0.959 . S
C901 H908 0.961 . S
C901 H909 0.960 . S
C902 C900 1.381 . S
C902 C903 1.394 . S
C902 H910 0.930 . S
C903 C902 1.394 . S
C903 C904 1.383 . S
C903 H911 0.929 . S
C904 C903 1.383 . S
C904 C905 1.377 . S
C905 H889 0.930 . S
C905 C904 1.377 . S
C905 C906 1.379 . S
C906 H890 0.931 . S
C906 C900 1.383 . S
C906 C905 1.379 . S
H907 C901 0.959 . S
H908 C901 0.961 . S
H909 C901 0.960 . S
H910 C902 0.930 . S
H911 C903 0.929 . S
H912 C920 0.929 . S
H913 C922 0.930 . S
H914 C924 0.930 . S
H915 C927 0.929 . S
H916 C930 0.930 . S
H917 C932 0.960 . S
H918 C932 0.960 . S
H919 C932 0.960 . S
C920 H912 0.929 . S
C920 C921 1.377 . S
C920 C922 1.384 . S
C921 C920 1.377 . S
C921 C927 1.390 . S
C922 H913 0.930 . S
C922 C920 1.384 . S
C922 C923 1.372 . S
C923 C922 1.372 . S
C923 C924 1.400 . S
C923 C928 1.490 . S
C924 H914 0.930 . S
C924 C923 1.400 . S
C924 C927 1.386 . S
H925 C941 0.930 . S
H926 C942 0.931 . S
C927 H915 0.929 . S
C927 C921 1.390 . S
C927 C924 1.386 . S
C928 C923 1.490 . S
C928 C930 1.395 . S
C928 C931 1.403 . S
H929 C935 0.930 . S
C930 H916 0.930 . S
C930 C928 1.395 . S
C930 C933 1.403 . S
C931 C928 1.403 . S
C931 C932 1.524 . S
C931 C935 1.400 . S
C932 H917 0.960 . S
C932 H918 0.960 . S
C932 H919 0.960 . S
C932 C931 1.524 . S
C933 C930 1.403 . S
C933 C934 1.392 . S
C933 C937 1.495 . S
C934 C933 1.392 . S
C934 C935 1.385 . S
C934 C936 1.478 . S
C935 H929 0.930 . S
C935 C931 1.400 . S
C935 C934 1.385 . S
C936 C934 1.478 . S
C936 C938 1.381 . S
C936 C942 1.383 . S
C937 C933 1.495 . S
C937 H943 0.959 . S
C937 H944 0.961 . S
C937 H945 0.960 . S
C938 C936 1.381 . S
C938 C939 1.394 . S
C938 H946 0.930 . S
C939 C938 1.394 . S
C939 C940 1.383 . S
C939 H947 0.929 . S
C940 C939 1.383 . S
C940 C941 1.377 . S
C941 H925 0.930 . S
C941 C940 1.377 . S
C941 C942 1.379 . S
C942 H926 0.931 . S
C942 C936 1.383 . S
C942 C941 1.379 . S
H943 C937 0.959 . S
H944 C937 0.961 . S
H945 C937 0.960 . S
H946 C938 0.930 . S
H947 C939 0.929 . S
H948 C956 0.929 . S
H949 C958 0.930 . S
H950 C960 0.930 . S
H951 C963 0.929 . S
H952 C966 0.930 . S
H953 C968 0.960 . S
H954 C968 0.960 . S
H955 C968 0.960 . S
C956 H948 0.929 . S
C956 C957 1.377 . S
C956 C958 1.384 . S
C957 C956 1.377 . S
C957 C963 1.390 . S
C958 H949 0.930 . S
C958 C956 1.384 . S
C958 C959 1.372 . S
C959 C958 1.372 . S
C959 C960 1.400 . S
C959 C964 1.490 . S
C960 H950 0.930 . S
C960 C959 1.400 . S
C960 C963 1.386 . S
H961 C977 0.930 . S
H962 C978 0.931 . S
C963 H951 0.929 . S
C963 C957 1.390 . S
C963 C960 1.386 . S
C964 C959 1.490 . S
C964 C966 1.395 . S
C964 C967 1.403 . S
H965 C971 0.930 . S
C966 H952 0.930 . S
C966 C964 1.395 . S
C966 C969 1.403 . S
C967 C964 1.403 . S
C967 C968 1.524 . S
C967 C971 1.400 . S
C968 H953 0.960 . S
C968 H954 0.960 . S
C968 H955 0.960 . S
C968 C967 1.524 . S
C969 C966 1.403 . S
C969 C970 1.392 . S
C969 C973 1.495 . S
C970 C969 1.392 . S
C970 C971 1.385 . S
C970 C972 1.478 . S
C971 H965 0.930 . S
C971 C967 1.400 . S
C971 C970 1.385 . S
C972 C970 1.478 . S
C972 C974 1.381 . S
C972 C978 1.383 . S
C973 C969 1.495 . S
C973 H979 0.959 . S
C973 H980 0.961 . S
C973 H981 0.960 . S
C974 C972 1.381 . S
C974 C975 1.394 . S
C974 H982 0.930 . S
C975 C974 1.394 . S
C975 C976 1.383 . S
C975 H983 0.929 . S
C976 C975 1.383 . S
C976 C977 1.377 . S
C977 H961 0.930 . S
C977 C976 1.377 . S
C977 C978 1.379 . S
C978 H962 0.931 . S
C978 C972 1.383 . S
C978 C977 1.379 . S
H979 C973 0.959 . S
H980 C973 0.961 . S
H981 C973 0.960 . S
H982 C974 0.930 . S
H983 C975 0.929 . S
H984 C992 0.929 . S
H985 C994 0.930 . S
H986 C996 0.930 . S
H987 C999 0.929 . S
H988 C1002 0.930 . S
H989 C1004 0.960 . S
H990 C1004 0.960 . S
H991 C1004 0.960 . S
C992 H984 0.929 . S
C992 C993 1.377 . S
C992 C994 1.384 . S
C993 C992 1.377 . S
C993 C999 1.390 . S
C994 H985 0.930 . S
C994 C992 1.384 . S
C994 C995 1.372 . S
C995 C994 1.372 . S
C995 C996 1.400 . S
C995 C1000 1.490 . S
C996 H986 0.930 . S
C996 C995 1.400 . S
C996 C999 1.386 . S
H997 C1013 0.930 . S
H998 C1014 0.931 . S
C999 H987 0.929 . S
C999 C993 1.390 . S
C999 C996 1.386 . S
C1000 C995 1.490 . S
C1000 C1002 1.395 . S
C1000 C1003 1.403 . S
H1001 C1007 0.930 . S
C1002 H988 0.930 . S
C1002 C1000 1.395 . S
C1002 C1005 1.403 . S
C1003 C1000 1.403 . S
C1003 C1004 1.524 . S
C1003 C1007 1.400 . S
C1004 H989 0.960 . S
C1004 H990 0.960 . S
C1004 H991 0.960 . S
C1004 C1003 1.524 . S
C1005 C1002 1.403 . S
C1005 C1006 1.392 . S
C1005 C1009 1.495 . S
C1006 C1005 1.392 . S
C1006 C1007 1.385 . S
C1006 C1008 1.478 . S
C1007 H1001 0.930 . S
C1007 C1003 1.400 . S
C1007 C1006 1.385 . S
C1008 C1006 1.478 . S
C1008 C1010 1.381 . S
C1008 C1014 1.383 . S
C1009 C1005 1.495 . S
C1009 H1015 0.959 . S
C1009 H1016 0.961 . S
C1009 H1017 0.960 . S
C1010 C1008 1.381 . S
C1010 C1011 1.394 . S
C1010 H1018 0.930 . S
C1011 C1010 1.394 . S
C1011 C1012 1.383 . S
C1011 H1019 0.929 . S
C1012 C1011 1.383 . S
C1012 C1013 1.377 . S
C1013 H997 0.930 . S
C1013 C1012 1.377 . S
C1013 C1014 1.379 . S
C1014 H998 0.931 . S
C1014 C1008 1.383 . S
C1014 C1013 1.379 . S
H1015 C1009 0.959 . S
H1016 C1009 0.961 . S
H1017 C1009 0.960 . S
H1018 C1010 0.930 . S
H1019 C1011 0.929 . S
H1020 C1028 0.929 . S
H1021 C1030 0.930 . S
H1022 C1032 0.930 . S
H1023 C1035 0.929 . S
H1024 C1038 0.930 . S
H1025 C1040 0.960 . S
H1026 C1040 0.960 . S
H1027 C1040 0.960 . S
C1028 H1020 0.929 . S
C1028 C1029 1.377 . S
C1028 C1030 1.384 . S
C1029 C1028 1.377 . S
C1029 C1035 1.390 . S
C1030 H1021 0.930 . S
C1030 C1028 1.384 . S
C1030 C1031 1.372 . S
C1031 C1030 1.372 . S
C1031 C1032 1.400 . S
C1031 C1036 1.490 . S
C1032 H1022 0.930 . S
C1032 C1031 1.400 . S
C1032 C1035 1.386 . S
H1033 C1049 0.930 . S
H1034 C1050 0.931 . S
C1035 H1023 0.929 . S
C1035 C1029 1.390 . S
C1035 C1032 1.386 . S
C1036 C1031 1.490 . S
C1036 C1038 1.395 . S
C1036 C1039 1.403 . S
H1037 C1043 0.930 . S
C1038 H1024 0.930 . S
C1038 C1036 1.395 . S
C1038 C1041 1.403 . S
C1039 C1036 1.403 . S
C1039 C1040 1.524 . S
C1039 C1043 1.400 . S
C1040 H1025 0.960 . S
C1040 H1026 0.960 . S
C1040 H1027 0.960 . S
C1040 C1039 1.524 . S
C1041 C1038 1.403 . S
C1041 C1042 1.392 . S
C1041 C1045 1.495 . S
C1042 C1041 1.392 . S
C1042 C1043 1.385 . S
C1042 C1044 1.478 . S
C1043 H1037 0.930 . S
C1043 C1039 1.400 . S
C1043 C1042 1.385 . S
C1044 C1042 1.478 . S
C1044 C1046 1.381 . S
C1044 C1050 1.383 . S
C1045 C1041 1.495 . S
C1045 H1051 0.959 . S
C1045 H1052 0.961 . S
C1045 H1053 0.960 . S
C1046 C1044 1.381 . S
C1046 C1047 1.394 . S
C1046 H1054 0.930 . S
C1047 C1046 1.394 . S
C1047 C1048 1.383 . S
C1047 H1055 0.929 . S
C1048 C1047 1.383 . S
C1048 C1049 1.377 . S
C1049 H1033 0.930 . S
C1049 C1048 1.377 . S
C1049 C1050 1.379 . S
C1050 H1034 0.931 . S
C1050 C1044 1.383 . S
C1050 C1049 1.379 . S
H1051 C1045 0.959 . S
H1052 C1045 0.961 . S
H1053 C1045 0.960 . S
H1054 C1046 0.930 . S
H1055 C1047 0.929 . S
H1056 C1064 0.929 . S
H1057 C1066 0.930 . S
H1058 C1068 0.930 . S
H1059 C1071 0.929 . S
H1060 C1074 0.930 . S
H1061 C1076 0.960 . S
H1062 C1076 0.960 . S
H1063 C1076 0.960 . S
C1064 H1056 0.929 . S
C1064 C1065 1.377 . S
C1064 C1066 1.384 . S
C1065 C1064 1.377 . S
C1065 C1071 1.390 . S
C1066 H1057 0.930 . S
C1066 C1064 1.384 . S
C1066 C1067 1.372 . S
C1067 C1066 1.372 . S
C1067 C1068 1.400 . S
C1067 C1072 1.490 . S
C1068 H1058 0.930 . S
C1068 C1067 1.400 . S
C1068 C1071 1.386 . S
H1069 C1085 0.930 . S
H1070 C1086 0.931 . S
C1071 H1059 0.929 . S
C1071 C1065 1.390 . S
C1071 C1068 1.386 . S
C1072 C1067 1.490 . S
C1072 C1074 1.395 . S
C1072 C1075 1.403 . S
H1073 C1079 0.930 . S
C1074 H1060 0.930 . S
C1074 C1072 1.395 . S
C1074 C1077 1.403 . S
C1075 C1072 1.403 . S
C1075 C1076 1.524 . S
C1075 C1079 1.400 . S
C1076 H1061 0.960 . S
C1076 H1062 0.960 . S
C1076 H1063 0.960 . S
C1076 C1075 1.524 . S
C1077 C1074 1.403 . S
C1077 C1078 1.392 . S
C1077 C1081 1.495 . S
C1078 C1077 1.392 . S
C1078 C1079 1.385 . S
C1078 C1080 1.478 . S
C1079 H1073 0.930 . S
C1079 C1075 1.400 . S
C1079 C1078 1.385 . S
C1080 C1078 1.478 . S
C1080 C1082 1.381 . S
C1080 C1086 1.383 . S
C1081 C1077 1.495 . S
C1081 H1087 0.959 . S
C1081 H1088 0.961 . S
C1081 H1089 0.960 . S
C1082 C1080 1.381 . S
C1082 C1083 1.394 . S
C1082 H1090 0.930 . S
C1083 C1082 1.394 . S
C1083 C1084 1.383 . S
C1083 H1091 0.929 . S
C1084 C1083 1.383 . S
C1084 C1085 1.377 . S
C1085 H1069 0.930 . S
C1085 C1084 1.377 . S
C1085 C1086 1.379 . S
C1086 H1070 0.931 . S
C1086 C1080 1.383 . S
C1086 C1085 1.379 . S
H1087 C1081 0.959 . S
H1088 C1081 0.961 . S
H1089 C1081 0.960 . S
H1090 C1082 0.930 . S
H1091 C1083 0.929 . S
H1092 C1100 0.929 . S
H1093 C1102 0.930 . S
H1094 C1104 0.930 . S
H1095 C1107 0.929 . S
H1096 C1110 0.930 . S
H1097 C1112 0.960 . S
H1098 C1112 0.960 . S
H1099 C1112 0.960 . S
C1100 H1092 0.929 . S
C1100 C1101 1.377 . S
C1100 C1102 1.384 . S
C1101 C1100 1.377 . S
C1101 C1107 1.390 . S
C1102 H1093 0.930 . S
C1102 C1100 1.384 . S
C1102 C1103 1.372 . S
C1103 C1102 1.372 . S
C1103 C1104 1.400 . S
C1103 C1108 1.490 . S
C1104 H1094 0.930 . S
C1104 C1103 1.400 . S
C1104 C1107 1.386 . S
H1105 C1121 0.930 . S
H1106 C1122 0.931 . S
C1107 H1095 0.929 . S
C1107 C1101 1.390 . S
C1107 C1104 1.386 . S
C1108 C1103 1.490 . S
C1108 C1110 1.395 . S
C1108 C1111 1.403 . S
H1109 C1115 0.930 . S
C1110 H1096 0.930 . S
C1110 C1108 1.395 . S
C1110 C1113 1.403 . S
C1111 C1108 1.403 . S
C1111 C1112 1.524 . S
C1111 C1115 1.400 . S
C1112 H1097 0.960 . S
C1112 H1098 0.960 . S
C1112 H1099 0.960 . S
C1112 C1111 1.524 . S
C1113 C1110 1.403 . S
C1113 C1114 1.392 . S
C1113 C1117 1.495 . S
C1114 C1113 1.392 . S
C1114 C1115 1.385 . S
C1114 C1116 1.478 . S
C1115 H1109 0.930 . S
C1115 C1111 1.400 . S
C1115 C1114 1.385 . S
C1116 C1114 1.478 . S
C1116 C1118 1.381 . S
C1116 C1122 1.383 . S
C1117 C1113 1.495 . S
C1117 H1123 0.959 . S
C1117 H1124 0.961 . S
C1117 H1125 0.960 . S
C1118 C1116 1.381 . S
C1118 C1119 1.394 . S
C1118 H1126 0.930 . S
C1119 C1118 1.394 . S
C1119 C1120 1.383 . S
C1119 H1127 0.929 . S
C1120 C1119 1.383 . S
C1120 C1121 1.377 . S
C1121 H1105 0.930 . S
C1121 C1120 1.377 . S
C1121 C1122 1.379 . S
C1122 H1106 0.931 . S
C1122 C1116 1.383 . S
C1122 C1121 1.379 . S
H1123 C1117 0.959 . S
H1124 C1117 0.961 . S
H1125 C1117 0.960 . S
H1126 C1118 0.930 . S
H1127 C1119 0.929 . S
H1128 C1136 0.929 . S
H1129 C1138 0.930 . S
H1130 C1140 0.930 . S
H1131 C1143 0.929 . S
H1132 C1146 0.930 . S
H1133 C1148 0.960 . S
H1134 C1148 0.960 . S
H1135 C1148 0.960 . S
C1136 H1128 0.929 . S
C1136 C1137 1.377 . S
C1136 C1138 1.384 . S
C1137 C1136 1.377 . S
C1137 C1143 1.390 . S
C1138 H1129 0.930 . S
C1138 C1136 1.384 . S
C1138 C1139 1.372 . S
C1139 C1138 1.372 . S
C1139 C1140 1.400 . S
C1139 C1144 1.490 . S
C1140 H1130 0.930 . S
C1140 C1139 1.400 . S
C1140 C1143 1.386 . S
H1141 C1157 0.930 . S
H1142 C1158 0.931 . S
C1143 H1131 0.929 . S
C1143 C1137 1.390 . S
C1143 C1140 1.386 . S
C1144 C1139 1.490 . S
C1144 C1146 1.395 . S
C1144 C1147 1.403 . S
H1145 C1151 0.930 . S
C1146 H1132 0.930 . S
C1146 C1144 1.395 . S
C1146 C1149 1.403 . S
C1147 C1144 1.403 . S
C1147 C1148 1.524 . S
C1147 C1151 1.400 . S
C1148 H1133 0.960 . S
C1148 H1134 0.960 . S
C1148 H1135 0.960 . S
C1148 C1147 1.524 . S
C1149 C1146 1.403 . S
C1149 C1150 1.392 . S
C1149 C1153 1.495 . S
C1150 C1149 1.392 . S
C1150 C1151 1.385 . S
C1150 C1152 1.478 . S
C1151 H1145 0.930 . S
C1151 C1147 1.400 . S
C1151 C1150 1.385 . S
C1152 C1150 1.478 . S
C1152 C1154 1.381 . S
C1152 C1158 1.383 . S
C1153 C1149 1.495 . S
C1153 H1159 0.959 . S
C1153 H1160 0.961 . S
C1153 H1161 0.960 . S
C1154 C1152 1.381 . S
C1154 C1155 1.394 . S
C1154 H1162 0.930 . S
C1155 C1154 1.394 . S
C1155 C1156 1.383 . S
C1155 H1163 0.929 . S
C1156 C1155 1.383 . S
C1156 C1157 1.377 . S
C1157 H1141 0.930 . S
C1157 C1156 1.377 . S
C1157 C1158 1.379 . S
C1158 H1142 0.931 . S
C1158 C1152 1.383 . S
C1158 C1157 1.379 . S
H1159 C1153 0.959 . S
H1160 C1153 0.961 . S
H1161 C1153 0.960 . S
H1162 C1154 0.930 . S
H1163 C1155 0.929 . S
H1164 C1172 0.929 . S
H1165 C1174 0.930 . S
H1166 C1176 0.930 . S
H1167 C1179 0.929 . S
H1168 C1182 0.930 . S
H1169 C1184 0.960 . S
H1170 C1184 0.960 . S
H1171 C1184 0.960 . S
C1172 H1164 0.929 . S
C1172 C1173 1.377 . S
C1172 C1174 1.384 . S
C1173 C1172 1.377 . S
C1173 C1179 1.390 . S
C1174 H1165 0.930 . S
C1174 C1172 1.384 . S
C1174 C1175 1.372 . S
C1175 C1174 1.372 . S
C1175 C1176 1.400 . S
C1175 C1180 1.490 . S
C1176 H1166 0.930 . S
C1176 C1175 1.400 . S
C1176 C1179 1.386 . S
H1177 C1193 0.930 . S
H1178 C1194 0.931 . S
C1179 H1167 0.929 . S
C1179 C1173 1.390 . S
C1179 C1176 1.386 . S
C1180 C1175 1.490 . S
C1180 C1182 1.395 . S
C1180 C1183 1.403 . S
H1181 C1187 0.930 . S
C1182 H1168 0.930 . S
C1182 C1180 1.395 . S
C1182 C1185 1.403 . S
C1183 C1180 1.403 . S
C1183 C1184 1.524 . S
C1183 C1187 1.400 . S
C1184 H1169 0.960 . S
C1184 H1170 0.960 . S
C1184 H1171 0.960 . S
C1184 C1183 1.524 . S
C1185 C1182 1.403 . S
C1185 C1186 1.392 . S
C1185 C1189 1.495 . S
C1186 C1185 1.392 . S
C1186 C1187 1.385 . S
C1186 C1188 1.478 . S
C1187 H1181 0.930 . S
C1187 C1183 1.400 . S
C1187 C1186 1.385 . S
C1188 C1186 1.478 . S
C1188 C1190 1.381 . S
C1188 C1194 1.383 . S
C1189 C1185 1.495 . S
C1189 H1195 0.959 . S
C1189 H1196 0.961 . S
C1189 H1197 0.960 . S
C1190 C1188 1.381 . S
C1190 C1191 1.394 . S
C1190 H1198 0.930 . S
C1191 C1190 1.394 . S
C1191 C1192 1.383 . S
C1191 H1199 0.929 . S
C1192 C1191 1.383 . S
C1192 C1193 1.377 . S
C1193 H1177 0.930 . S
C1193 C1192 1.377 . S
C1193 C1194 1.379 . S
C1194 H1178 0.931 . S
C1194 C1188 1.383 . S
C1194 C1193 1.379 . S
H1195 C1189 0.959 . S
H1196 C1189 0.961 . S
H1197 C1189 0.960 . S
H1198 C1190 0.930 . S
H1199 C1191 0.929 . S
H1200 C1208 0.929 . S
H1201 C1210 0.930 . S
H1202 C1212 0.930 . S
H1203 C1215 0.929 . S
H1204 C1218 0.930 . S
H1205 C1220 0.960 . S
H1206 C1220 0.960 . S
H1207 C1220 0.960 . S
C1208 H1200 0.929 . S
C1208 C1209 1.377 . S
C1208 C1210 1.384 . S
C1209 C1208 1.377 . S
C1209 C1215 1.390 . S
C1210 H1201 0.930 . S
C1210 C1208 1.384 . S
C1210 C1211 1.372 . S
C1211 C1210 1.372 . S
C1211 C1212 1.400 . S
C1211 C1216 1.490 . S
C1212 H1202 0.930 . S
C1212 C1211 1.400 . S
C1212 C1215 1.386 . S
H1213 C1229 0.930 . S
H1214 C1230 0.931 . S
C1215 H1203 0.929 . S
C1215 C1209 1.390 . S
C1215 C1212 1.386 . S
C1216 C1211 1.490 . S
C1216 C1218 1.395 . S
C1216 C1219 1.403 . S
H1217 C1223 0.930 . S
C1218 H1204 0.930 . S
C1218 C1216 1.395 . S
C1218 C1221 1.403 . S
C1219 C1216 1.403 . S
C1219 C1220 1.524 . S
C1219 C1223 1.400 . S
C1220 H1205 0.960 . S
C1220 H1206 0.960 . S
C1220 H1207 0.960 . S
C1220 C1219 1.524 . S
C1221 C1218 1.403 . S
C1221 C1222 1.392 . S
C1221 C1225 1.495 . S
C1222 C1221 1.392 . S
C1222 C1223 1.385 . S
C1222 C1224 1.478 . S
C1223 H1217 0.930 . S
C1223 C1219 1.400 . S
C1223 C1222 1.385 . S
C1224 C1222 1.478 . S
C1224 C1226 1.381 . S
C1224 C1230 1.383 . S
C1225 C1221 1.495 . S
C1225 H1231 0.959 . S
C1225 H1232 0.961 . S
C1225 H1233 0.960 . S
C1226 C1224 1.381 . S
C1226 C1227 1.394 . S
C1226 H1234 0.930 . S
C1227 C1226 1.394 . S
C1227 C1228 1.383 . S
C1227 H1235 0.929 . S
C1228 C1227 1.383 . S
C1228 C1229 1.377 . S
C1229 H1213 0.930 . S
C1229 C1228 1.377 . S
C1229 C1230 1.379 . S
C1230 H1214 0.931 . S
C1230 C1224 1.383 . S
C1230 C1229 1.379 . S
H1231 C1225 0.959 . S
H1232 C1225 0.961 . S
H1233 C1225 0.960 . S
H1234 C1226 0.930 . S
H1235 C1227 0.929 . S
H1236 C1244 0.929 . S
H1237 C1246 0.930 . S
H1238 C1248 0.930 . S
H1239 C1251 0.929 . S
H1240 C1254 0.930 . S
H1241 C1256 0.960 . S
H1242 C1256 0.960 . S
H1243 C1256 0.960 . S
C1244 H1236 0.929 . S
C1244 C1245 1.377 . S
C1244 C1246 1.384 . S
C1245 C1244 1.377 . S
C1245 C1251 1.390 . S
C1246 H1237 0.930 . S
C1246 C1244 1.384 . S
C1246 C1247 1.372 . S
C1247 C1246 1.372 . S
C1247 C1248 1.400 . S
C1247 C1252 1.490 . S
C1248 H1238 0.930 . S
C1248 C1247 1.400 . S
C1248 C1251 1.386 . S
H1249 C1265 0.930 . S
H1250 C1266 0.931 . S
C1251 H1239 0.929 . S
C1251 C1245 1.390 . S
C1251 C1248 1.386 . S
C1252 C1247 1.490 . S
C1252 C1254 1.395 . S
C1252 C1255 1.403 . S
H1253 C1259 0.930 . S
C1254 H1240 0.930 . S
C1254 C1252 1.395 . S
C1254 C1257 1.403 . S
C1255 C1252 1.403 . S
C1255 C1256 1.524 . S
C1255 C1259 1.400 . S
C1256 H1241 0.960 . S
C1256 H1242 0.960 . S
C1256 H1243 0.960 . S
C1256 C1255 1.524 . S
C1257 C1254 1.403 . S
C1257 C1258 1.392 . S
C1257 C1261 1.495 . S
C1258 C1257 1.392 . S
C1258 C1259 1.385 . S
C1258 C1260 1.478 . S
C1259 H1253 0.930 . S
C1259 C1255 1.400 . S
C1259 C1258 1.385 . S
C1260 C1258 1.478 . S
C1260 C1262 1.381 . S
C1260 C1266 1.383 . S
C1261 C1257 1.495 . S
C1261 H1267 0.959 . S
C1261 H1268 0.961 . S
C1261 H1269 0.960 . S
C1262 C1260 1.381 . S
C1262 C1263 1.394 . S
C1262 H1270 0.930 . S
C1263 C1262 1.394 . S
C1263 C1264 1.383 . S
C1263 H1271 0.929 . S
C1264 C1263 1.383 . S
C1264 C1265 1.377 . S
C1265 H1249 0.930 . S
C1265 C1264 1.377 . S
C1265 C1266 1.379 . S
C1266 H1250 0.931 . S
C1266 C1260 1.383 . S
C1266 C1265 1.379 . S
H1267 C1261 0.959 . S
H1268 C1261 0.961 . S
H1269 C1261 0.960 . S
H1270 C1262 0.930 . S
H1271 C1263 0.929 . S
H1272 C1280 0.929 . S
H1273 C1282 0.930 . S
H1274 C1284 0.930 . S
H1275 C1287 0.929 . S
H1276 C1290 0.930 . S
H1277 C1292 0.960 . S
H1278 C1292 0.960 . S
H1279 C1292 0.960 . S
C1280 H1272 0.929 . S
C1280 C1281 1.377 . S
C1280 C1282 1.384 . S
C1281 C1280 1.377 . S
C1281 C1287 1.390 . S
C1282 H1273 0.930 . S
C1282 C1280 1.384 . S
C1282 C1283 1.372 . S
C1283 C1282 1.372 . S
C1283 C1284 1.400 . S
C1283 C1288 1.490 . S
C1284 H1274 0.930 . S
C1284 C1283 1.400 . S
C1284 C1287 1.386 . S
H1285 C1301 0.930 . S
H1286 C1302 0.931 . S
C1287 H1275 0.929 . S
C1287 C1281 1.390 . S
C1287 C1284 1.386 . S
C1288 C1283 1.490 . S
C1288 C1290 1.395 . S
C1288 C1291 1.403 . S
H1289 C1295 0.930 . S
C1290 H1276 0.930 . S
C1290 C1288 1.395 . S
C1290 C1293 1.403 . S
C1291 C1288 1.403 . S
C1291 C1292 1.524 . S
C1291 C1295 1.400 . S
C1292 H1277 0.960 . S
C1292 H1278 0.960 . S
C1292 H1279 0.960 . S
C1292 C1291 1.524 . S
C1293 C1290 1.403 . S
C1293 C1294 1.392 . S
C1293 C1297 1.495 . S
C1294 C1293 1.392 . S
C1294 C1295 1.385 . S
C1294 C1296 1.478 . S
C1295 H1289 0.930 . S
C1295 C1291 1.400 . S
C1295 C1294 1.385 . S
C1296 C1294 1.478 . S
C1296 C1298 1.381 . S
C1296 C1302 1.383 . S
C1297 C1293 1.495 . S
C1297 H1303 0.959 . S
C1297 H1304 0.961 . S
C1297 H1305 0.960 . S
C1298 C1296 1.381 . S
C1298 C1299 1.394 . S
C1298 H1306 0.930 . S
C1299 C1298 1.394 . S
C1299 C1300 1.383 . S
C1299 H1307 0.929 . S
C1300 C1299 1.383 . S
C1300 C1301 1.377 . S
C1301 H1285 0.930 . S
C1301 C1300 1.377 . S
C1301 C1302 1.379 . S
C1302 H1286 0.931 . S
C1302 C1296 1.383 . S
C1302 C1301 1.379 . S
H1303 C1297 0.959 . S
H1304 C1297 0.961 . S
H1305 C1297 0.960 . S
H1306 C1298 0.930 . S
H1307 C1299 0.929 . S
H1308 C1316 0.929 . S
H1309 C1318 0.930 . S
H1310 C1320 0.930 . S
H1311 C1323 0.929 . S
H1312 C1326 0.930 . S
H1313 C1328 0.960 . S
H1314 C1328 0.960 . S
H1315 C1328 0.960 . S
C1316 H1308 0.929 . S
C1316 C1317 1.377 . S
C1316 C1318 1.384 . S
C1317 C1316 1.377 . S
C1317 C1323 1.390 . S
C1318 H1309 0.930 . S
C1318 C1316 1.384 . S
C1318 C1319 1.372 . S
C1319 C1318 1.372 . S
C1319 C1320 1.400 . S
C1319 C1324 1.490 . S
C1320 H1310 0.930 . S
C1320 C1319 1.400 . S
C1320 C1323 1.386 . S
H1321 C1337 0.930 . S
H1322 C1338 0.931 . S
C1323 H1311 0.929 . S
C1323 C1317 1.390 . S
C1323 C1320 1.386 . S
C1324 C1319 1.490 . S
C1324 C1326 1.395 . S
C1324 C1327 1.403 . S
H1325 C1331 0.930 . S
C1326 H1312 0.930 . S
C1326 C1324 1.395 . S
C1326 C1329 1.403 . S
C1327 C1324 1.403 . S
C1327 C1328 1.524 . S
C1327 C1331 1.400 . S
C1328 H1313 0.960 . S
C1328 H1314 0.960 . S
C1328 H1315 0.960 . S
C1328 C1327 1.524 . S
C1329 C1326 1.403 . S
C1329 C1330 1.392 . S
C1329 C1333 1.495 . S
C1330 C1329 1.392 . S
C1330 C1331 1.385 . S
C1330 C1332 1.478 . S
C1331 H1325 0.930 . S
C1331 C1327 1.400 . S
C1331 C1330 1.385 . S
C1332 C1330 1.478 . S
C1332 C1334 1.381 . S
C1332 C1338 1.383 . S
C1333 C1329 1.495 . S
C1333 H1339 0.959 . S
C1333 H1340 0.961 . S
C1333 H1341 0.960 . S
C1334 C1332 1.381 . S
C1334 C1335 1.394 . S
C1334 H1342 0.930 . S
C1335 C1334 1.394 . S
C1335 C1336 1.383 . S
C1335 H1343 0.929 . S
C1336 C1335 1.383 . S
C1336 C1337 1.377 . S
C1337 H1321 0.930 . S
C1337 C1336 1.377 . S
C1337 C1338 1.379 . S
C1338 H1322 0.931 . S
C1338 C1332 1.383 . S
C1338 C1337 1.379 . S
H1339 C1333 0.959 . S
H1340 C1333 0.961 . S
H1341 C1333 0.960 . S
H1342 C1334 0.930 . S
H1343 C1335 0.929 . S
H1344 C1352 0.929 . S
H1345 C1354 0.930 . S
H1346 C1356 0.930 . S
H1347 C1359 0.929 . S
H1348 C1362 0.930 . S
H1349 C1364 0.960 . S
H1350 C1364 0.960 . S
H1351 C1364 0.960 . S
C1352 H1344 0.929 . S
C1352 C1353 1.377 . S
C1352 C1354 1.384 . S
C1353 C1352 1.377 . S
C1353 C1359 1.390 . S
C1354 H1345 0.930 . S
C1354 C1352 1.384 . S
C1354 C1355 1.372 . S
C1355 C1354 1.372 . S
C1355 C1356 1.400 . S
C1355 C1360 1.490 . S
C1356 H1346 0.930 . S
C1356 C1355 1.400 . S
C1356 C1359 1.386 . S
H1357 C1373 0.930 . S
H1358 C1374 0.931 . S
C1359 H1347 0.929 . S
C1359 C1353 1.390 . S
C1359 C1356 1.386 . S
C1360 C1355 1.490 . S
C1360 C1362 1.395 . S
C1360 C1363 1.403 . S
H1361 C1367 0.930 . S
C1362 H1348 0.930 . S
C1362 C1360 1.395 . S
C1362 C1365 1.403 . S
C1363 C1360 1.403 . S
C1363 C1364 1.524 . S
C1363 C1367 1.400 . S
C1364 H1349 0.960 . S
C1364 H1350 0.960 . S
C1364 H1351 0.960 . S
C1364 C1363 1.524 . S
C1365 C1362 1.403 . S
C1365 C1366 1.392 . S
C1365 C1369 1.495 . S
C1366 C1365 1.392 . S
C1366 C1367 1.385 . S
C1366 C1368 1.478 . S
C1367 H1361 0.930 . S
C1367 C1363 1.400 . S
C1367 C1366 1.385 . S
C1368 C1366 1.478 . S
C1368 C1370 1.381 . S
C1368 C1374 1.383 . S
C1369 C1365 1.495 . S
C1369 H1375 0.959 . S
C1369 H1376 0.961 . S
C1369 H1377 0.960 . S
C1370 C1368 1.381 . S
C1370 C1371 1.394 . S
C1370 H1378 0.930 . S
C1371 C1370 1.394 . S
C1371 C1372 1.383 . S
C1371 H1379 0.929 . S
C1372 C1371 1.383 . S
C1372 C1373 1.377 . S
C1373 H1357 0.930 . S
C1373 C1372 1.377 . S
C1373 C1374 1.379 . S
C1374 H1358 0.931 . S
C1374 C1368 1.383 . S
C1374 C1373 1.379 . S
H1375 C1369 0.959 . S
H1376 C1369 0.961 . S
H1377 C1369 0.960 . S
H1378 C1370 0.930 . S
H1379 C1371 0.929 . S
H1380 C1388 0.929 . S
H1381 C1390 0.930 . S
H1382 C1392 0.930 . S
H1383 C1395 0.929 . S
H1384 C1398 0.930 . S
H1385 C1400 0.960 . S
H1386 C1400 0.960 . S
H1387 C1400 0.960 . S
C1388 H1380 0.929 . S
C1388 C1389 1.377 . S
C1388 C1390 1.384 . S
C1389 C1388 1.377 . S
C1389 C1395 1.390 . S
C1390 H1381 0.930 . S
C1390 C1388 1.384 . S
C1390 C1391 1.372 . S
C1391 C1390 1.372 . S
C1391 C1392 1.400 . S
C1391 C1396 1.490 . S
C1392 H1382 0.930 . S
C1392 C1391 1.400 . S
C1392 C1395 1.386 . S
H1393 C1409 0.930 . S
H1394 C1410 0.931 . S
C1395 H1383 0.929 . S
C1395 C1389 1.390 . S
C1395 C1392 1.386 . S
C1396 C1391 1.490 . S
C1396 C1398 1.395 . S
C1396 C1399 1.403 . S
H1397 C1403 0.930 . S
C1398 H1384 0.930 . S
C1398 C1396 1.395 . S
C1398 C1401 1.403 . S
C1399 C1396 1.403 . S
C1399 C1400 1.524 . S
C1399 C1403 1.400 . S
C1400 H1385 0.960 . S
C1400 H1386 0.960 . S
C1400 H1387 0.960 . S
C1400 C1399 1.524 . S
C1401 C1398 1.403 . S
C1401 C1402 1.392 . S
C1401 C1405 1.495 . S
C1402 C1401 1.392 . S
C1402 C1403 1.385 . S
C1402 C1404 1.478 . S
C1403 H1397 0.930 . S
C1403 C1399 1.400 . S
C1403 C1402 1.385 . S
C1404 C1402 1.478 . S
C1404 C1406 1.381 . S
C1404 C1410 1.383 . S
C1405 C1401 1.495 . S
C1405 H1411 0.959 . S
C1405 H1412 0.961 . S
C1405 H1413 0.960 . S
C1406 C1404 1.381 . S
C1406 C1407 1.394 . S
C1406 H1414 0.930 . S
C1407 C1406 1.394 . S
C1407 C1408 1.383 . S
C1407 H1415 0.929 . S
C1408 C1407 1.383 . S
C1408 C1409 1.377 . S
C1409 H1393 0.930 . S
C1409 C1408 1.377 . S
C1409 C1410 1.379 . S
C1410 H1394 0.931 . S
C1410 C1404 1.383 . S
C1410 C1409 1.379 . S
H1411 C1405 0.959 . S
H1412 C1405 0.961 . S
H1413 C1405 0.960 . S
H1414 C1406 0.930 . S
H1415 C1407 0.929 . S
H1416 C1424 0.929 . S
H1417 C1426 0.930 . S
H1418 C1428 0.930 . S
H1419 C1431 0.929 . S
H1420 C1434 0.930 . S
H1421 C1436 0.960 . S
H1422 C1436 0.960 . S
H1423 C1436 0.960 . S
C1424 H1416 0.929 . S
C1424 C1425 1.377 . S
C1424 C1426 1.384 . S
C1425 C1424 1.377 . S
C1425 C1431 1.390 . S
C1426 H1417 0.930 . S
C1426 C1424 1.384 . S
C1426 C1427 1.372 . S
C1427 C1426 1.372 . S
C1427 C1428 1.400 . S
C1427 C1432 1.490 . S
C1428 H1418 0.930 . S
C1428 C1427 1.400 . S
C1428 C1431 1.386 . S
H1429 C1445 0.930 . S
H1430 C1446 0.931 . S
C1431 H1419 0.929 . S
C1431 C1425 1.390 . S
C1431 C1428 1.386 . S
C1432 C1427 1.490 . S
C1432 C1434 1.395 . S
C1432 C1435 1.403 . S
H1433 C1439 0.930 . S
C1434 H1420 0.930 . S
C1434 C1432 1.395 . S
C1434 C1437 1.403 . S
C1435 C1432 1.403 . S
C1435 C1436 1.524 . S
C1435 C1439 1.400 . S
C1436 H1421 0.960 . S
C1436 H1422 0.960 . S
C1436 H1423 0.960 . S
C1436 C1435 1.524 . S
C1437 C1434 1.403 . S
C1437 C1438 1.392 . S
C1437 C1441 1.495 . S
C1438 C1437 1.392 . S
C1438 C1439 1.385 . S
C1438 C1440 1.478 . S
C1439 H1433 0.930 . S
C1439 C1435 1.400 . S
C1439 C1438 1.385 . S
C1440 C1438 1.478 . S
C1440 C1442 1.381 . S
C1440 C1446 1.383 . S
C1441 C1437 1.495 . S
C1441 H1447 0.959 . S
C1441 H1448 0.961 . S
C1441 H1449 0.960 . S
C1442 C1440 1.381 . S
C1442 C1443 1.394 . S
C1442 H1450 0.930 . S
C1443 C1442 1.394 . S
C1443 C1444 1.383 . S
C1443 H1451 0.929 . S
C1444 C1443 1.383 . S
C1444 C1445 1.377 . S
C1445 H1429 0.930 . S
C1445 C1444 1.377 . S
C1445 C1446 1.379 . S
C1446 H1430 0.931 . S
C1446 C1440 1.383 . S
C1446 C1445 1.379 . S
H1447 C1441 0.959 . S
H1448 C1441 0.961 . S
H1449 C1441 0.960 . S
H1450 C1442 0.930 . S
H1451 C1443 0.929 . S
H1452 C1460 0.929 . S
H1453 C1462 0.930 . S
H1454 C1464 0.930 . S
H1455 C1467 0.929 . S
H1456 C1470 0.930 . S
H1457 C1472 0.960 . S
H1458 C1472 0.960 . S
H1459 C1472 0.960 . S
C1460 H1452 0.929 . S
C1460 C1461 1.377 . S
C1460 C1462 1.384 . S
C1461 C1460 1.377 . S
C1461 C1467 1.390 . S
C1462 H1453 0.930 . S
C1462 C1460 1.384 . S
C1462 C1463 1.372 . S
C1463 C1462 1.372 . S
C1463 C1464 1.400 . S
C1463 C1468 1.490 . S
C1464 H1454 0.930 . S
C1464 C1463 1.400 . S
C1464 C1467 1.386 . S
H1465 C1481 0.930 . S
H1466 C1482 0.931 . S
C1467 H1455 0.929 . S
C1467 C1461 1.390 . S
C1467 C1464 1.386 . S
C1468 C1463 1.490 . S
C1468 C1470 1.395 . S
C1468 C1471 1.403 . S
H1469 C1475 0.930 . S
C1470 H1456 0.930 . S
C1470 C1468 1.395 . S
C1470 C1473 1.403 . S
C1471 C1468 1.403 . S
C1471 C1472 1.524 . S
C1471 C1475 1.400 . S
C1472 H1457 0.960 . S
C1472 H1458 0.960 . S
C1472 H1459 0.960 . S
C1472 C1471 1.524 . S
C1473 C1470 1.403 . S
C1473 C1474 1.392 . S
C1473 C1477 1.495 . S
C1474 C1473 1.392 . S
C1474 C1475 1.385 . S
C1474 C1476 1.478 . S
C1475 H1469 0.930 . S
C1475 C1471 1.400 . S
C1475 C1474 1.385 . S
C1476 C1474 1.478 . S
C1476 C1478 1.381 . S
C1476 C1482 1.383 . S
C1477 C1473 1.495 . S
C1477 H1483 0.959 . S
C1477 H1484 0.961 . S
C1477 H1485 0.960 . S
C1478 C1476 1.381 . S
C1478 C1479 1.394 . S
C1478 H1486 0.930 . S
C1479 C1478 1.394 . S
C1479 C1480 1.383 . S
C1479 H1487 0.929 . S
C1480 C1479 1.383 . S
C1480 C1481 1.377 . S
C1481 H1465 0.930 . S
C1481 C1480 1.377 . S
C1481 C1482 1.379 . S
C1482 H1466 0.931 . S
C1482 C1476 1.383 . S
C1482 C1481 1.379 . S
H1483 C1477 0.959 . S
H1484 C1477 0.961 . S
H1485 C1477 0.960 . S
H1486 C1478 0.930 . S
H1487 C1479 0.929 . S
H1488 C1496 0.929 . S
H1489 C1498 0.930 . S
H1490 C1500 0.930 . S
H1491 C1503 0.929 . S
H1492 C1506 0.930 . S
H1493 C1508 0.960 . S
H1494 C1508 0.960 . S
H1495 C1508 0.960 . S
C1496 H1488 0.929 . S
C1496 C1497 1.377 . S
C1496 C1498 1.384 . S
C1497 C1496 1.377 . S
C1497 C1503 1.390 . S
C1498 H1489 0.930 . S
C1498 C1496 1.384 . S
C1498 C1499 1.372 . S
C1499 C1498 1.372 . S
C1499 C1500 1.400 . S
C1499 C1504 1.490 . S
C1500 H1490 0.930 . S
C1500 C1499 1.400 . S
C1500 C1503 1.386 . S
H1501 C1517 0.930 . S
H1502 C1518 0.931 . S
C1503 H1491 0.929 . S
C1503 C1497 1.390 . S
C1503 C1500 1.386 . S
C1504 C1499 1.490 . S
C1504 C1506 1.395 . S
C1504 C1507 1.403 . S
H1505 C1511 0.930 . S
C1506 H1492 0.930 . S
C1506 C1504 1.395 . S
C1506 C1509 1.403 . S
C1507 C1504 1.403 . S
C1507 C1508 1.524 . S
C1507 C1511 1.400 . S
C1508 H1493 0.960 . S
C1508 H1494 0.960 . S
C1508 H1495 0.960 . S
C1508 C1507 1.524 . S
C1509 C1506 1.403 . S
C1509 C1510 1.392 . S
C1509 C1513 1.495 . S
C1510 C1509 1.392 . S
C1510 C1511 1.385 . S
C1510 C1512 1.478 . S
C1511 H1505 0.930 . S
C1511 C1507 1.400 . S
C1511 C1510 1.385 . S
C1512 C1510 1.478 . S
C1512 C1514 1.381 . S
C1512 C1518 1.383 . S
C1513 C1509 1.495 . S
C1513 H1519 0.959 . S
C1513 H1520 0.961 . S
C1513 H1521 0.960 . S
C1514 C1512 1.381 . S
C1514 C1515 1.394 . S
C1514 H1522 0.930 . S
C1515 C1514 1.394 . S
C1515 C1516 1.383 . S
C1515 H1523 0.929 . S
C1516 C1515 1.383 . S
C1516 C1517 1.377 . S
C1517 H1501 0.930 . S
C1517 C1516 1.377 . S
C1517 C1518 1.379 . S
C1518 H1502 0.931 . S
C1518 C1512 1.383 . S
C1518 C1517 1.379 . S
H1519 C1513 0.959 . S
H1520 C1513 0.961 . S
H1521 C1513 0.960 . S
H1522 C1514 0.930 . S
H1523 C1515 0.929 . S
H1524 C1532 0.929 . S
H1525 C1534 0.930 . S
H1526 C1536 0.930 . S
H1527 C1539 0.929 . S
H1528 C1542 0.930 . S
H1529 C1544 0.960 . S
H1530 C1544 0.960 . S
H1531 C1544 0.960 . S
C1532 H1524 0.929 . S
C1532 C1533 1.377 . S
C1532 C1534 1.384 . S
C1533 C1532 1.377 . S
C1533 C1539 1.390 . S
C1534 H1525 0.930 . S
C1534 C1532 1.384 . S
C1534 C1535 1.372 . S
C1535 C1534 1.372 . S
C1535 C1536 1.400 . S
C1535 C1540 1.490 . S
C1536 H1526 0.930 . S
C1536 C1535 1.400 . S
C1536 C1539 1.386 . S
H1537 C1553 0.930 . S
H1538 C1554 0.931 . S
C1539 H1527 0.929 . S
C1539 C1533 1.390 . S
C1539 C1536 1.386 . S
C1540 C1535 1.490 . S
C1540 C1542 1.395 . S
C1540 C1543 1.403 . S
H1541 C1547 0.930 . S
C1542 H1528 0.930 . S
C1542 C1540 1.395 . S
C1542 C1545 1.400 1_556 S
C1543 C1540 1.403 . S
C1543 C1544 1.524 . S
C1543 C1547 1.400 1_556 S
C1544 H1529 0.960 . S
C1544 H1530 0.960 . S
C1544 H1531 0.960 . S
C1544 C1543 1.524 . S
C1545 C1542 1.400 1_554 S
C1545 C1546 1.394 . S
C1545 C1549 1.497 . S
C1546 C1545 1.394 . S
C1546 C1547 1.385 . S
C1546 C1548 1.478 . S
C1547 H1541 0.930 . S
C1547 C1543 1.400 1_554 S
C1547 C1546 1.385 . S
C1548 C1546 1.478 . S
C1548 C1550 1.381 . S
C1548 C1554 1.383 . S
C1549 C1545 1.497 . S
C1549 H1555 0.959 1_554 S
C1549 H1556 0.961 . S
C1549 H1557 0.960 . S
C1550 C1548 1.381 . S
C1550 C1551 1.394 . S
C1550 H1558 0.930 . S
C1551 C1550 1.394 . S
C1551 C1552 1.383 . S
C1551 H1559 0.929 . S
C1552 C1551 1.383 . S
C1552 C1553 1.377 . S
C1553 H1537 0.930 . S
C1553 C1552 1.377 . S
C1553 C1554 1.379 . S
C1554 H1538 0.931 . S
C1554 C1548 1.383 . S
C1554 C1553 1.379 . S
H1555 C1549 0.959 1_556 S
H1556 C1549 0.961 . S
H1557 C1549 0.960 . S
H1558 C1550 0.930 . S
H1559 C1551 0.929 . S
H1560 C1568 0.929 . S
H1561 C1570 0.930 . S
H1562 C1572 0.930 . S
H1563 C1575 0.929 . S
H1564 C1578 0.930 . S
H1565 C1580 0.960 . S
H1566 C1580 0.960 . S
H1567 C1580 0.960 . S
C1568 H1560 0.929 . S
C1568 C1569 1.377 . S
C1568 C1570 1.384 . S
C1569 C1568 1.377 . S
C1569 C1575 1.390 . S
C1570 H1561 0.930 . S
C1570 C1568 1.384 . S
C1570 C1571 1.372 . S
C1571 C1570 1.372 . S
C1571 C1572 1.400 . S
C1571 C1576 1.490 . S
C1572 H1562 0.930 . S
C1572 C1571 1.400 . S
C1572 C1575 1.386 . S
H1573 C1589 0.930 . S
H1574 C1590 0.931 . S
C1575 H1563 0.929 . S
C1575 C1569 1.390 . S
C1575 C1572 1.386 . S
C1576 C1571 1.490 . S
C1576 C1578 1.395 . S
C1576 C1579 1.403 . S
H1577 C1583 0.930 . S
C1578 H1564 0.930 . S
C1578 C1576 1.395 . S
C1578 C1581 1.403 . S
C1579 C1576 1.403 . S
C1579 C1580 1.524 . S
C1579 C1583 1.400 . S
C1580 H1565 0.960 . S
C1580 H1566 0.960 . S
C1580 H1567 0.960 . S
C1580 C1579 1.524 . S
C1581 C1578 1.403 . S
C1581 C1582 1.392 . S
C1581 C1585 1.495 . S
C1582 C1581 1.392 . S
C1582 C1583 1.385 . S
C1582 C1584 1.478 . S
C1583 H1577 0.930 . S
C1583 C1579 1.400 . S
C1583 C1582 1.385 . S
C1584 C1582 1.478 . S
C1584 C1586 1.381 . S
C1584 C1590 1.383 . S
C1585 C1581 1.495 . S
C1585 H1591 0.959 . S
C1585 H1592 0.961 . S
C1585 H1593 0.960 . S
C1586 C1584 1.381 . S
C1586 C1587 1.394 . S
C1586 H1594 0.930 . S
C1587 C1586 1.394 . S
C1587 C1588 1.383 . S
C1587 H1595 0.929 . S
C1588 C1587 1.383 . S
C1588 C1589 1.377 . S
C1589 H1573 0.930 . S
C1589 C1588 1.377 . S
C1589 C1590 1.379 . S
C1590 H1574 0.931 . S
C1590 C1584 1.383 . S
C1590 C1589 1.379 . S
H1591 C1585 0.959 . S
H1592 C1585 0.961 . S
H1593 C1585 0.960 . S
H1594 C1586 0.930 . S
H1595 C1587 0.929 . S
H1596 C1604 0.929 . S
H1597 C1606 0.930 . S
H1598 C1608 0.930 . S
H1599 C1611 0.929 . S
H1600 C1614 0.930 . S
H1601 C1616 0.960 . S
H1602 C1616 0.960 . S
H1603 C1616 0.960 . S
C1604 H1596 0.929 . S
C1604 C1605 1.377 . S
C1604 C1606 1.384 . S
C1605 C1604 1.377 . S
C1605 C1611 1.390 . S
C1606 H1597 0.930 . S
C1606 C1604 1.384 . S
C1606 C1607 1.372 . S
C1607 C1606 1.372 . S
C1607 C1608 1.400 . S
C1607 C1612 1.490 . S
C1608 H1598 0.930 . S
C1608 C1607 1.400 . S
C1608 C1611 1.386 . S
H1609 C1625 0.930 . S
H1610 C1626 0.931 . S
C1611 H1599 0.929 . S
C1611 C1605 1.390 . S
C1611 C1608 1.386 . S
C1612 C1607 1.490 . S
C1612 C1614 1.395 . S
C1612 C1615 1.403 . S
H1613 C1619 0.930 . S
C1614 H1600 0.930 . S
C1614 C1612 1.395 . S
C1614 C1617 1.403 1_556 S
C1615 C1612 1.403 . S
C1615 C1616 1.524 . S
C1615 C1619 1.400 1_556 S
C1616 H1601 0.960 . S
C1616 H1602 0.960 . S
C1616 H1603 0.960 . S
C1616 C1615 1.524 . S
C1617 C1614 1.403 1_554 S
C1617 C1618 1.392 . S
C1617 C1621 1.495 . S
C1618 C1617 1.392 . S
C1618 C1619 1.385 . S
C1618 C1620 1.478 . S
C1619 H1613 0.930 . S
C1619 C1615 1.400 1_554 S
C1619 C1618 1.385 . S
C1620 C1618 1.478 . S
C1620 C1622 1.381 . S
C1620 C1626 1.383 . S
C1621 C1617 1.495 . S
C1621 H1627 0.959 . S
C1621 H1628 0.961 . S
C1621 H1629 0.960 . S
C1622 C1620 1.381 . S
C1622 C1623 1.394 . S
C1622 H1630 0.930 . S
C1623 C1622 1.394 . S
C1623 C1624 1.383 . S
C1623 H1631 0.929 . S
C1624 C1623 1.383 . S
C1624 C1625 1.377 . S
C1625 H1609 0.930 . S
C1625 C1624 1.377 . S
C1625 C1626 1.379 . S
C1626 H1610 0.931 . S
C1626 C1620 1.383 . S
C1626 C1625 1.379 . S
H1627 C1621 0.959 . S
H1628 C1621 0.961 . S
H1629 C1621 0.960 . S
H1630 C1622 0.930 . S
H1631 C1623 0.929 . S
H1632 C1640 0.929 . S
H1633 C1642 0.930 . S
H1634 C1644 0.930 . S
H1635 C1647 0.929 . S
H1636 C1650 0.930 . S
H1637 C1652 0.960 . S
H1638 C1652 0.960 . S
H1639 C1652 0.960 . S
C1640 H1632 0.929 . S
C1640 C1641 1.377 . S
C1640 C1642 1.384 . S
C1641 C1640 1.377 . S
C1641 C1647 1.390 . S
C1642 H1633 0.930 . S
C1642 C1640 1.384 . S
C1642 C1643 1.372 . S
C1643 C1642 1.372 . S
C1643 C1644 1.400 . S
C1643 C1648 1.490 . S
C1644 H1634 0.930 . S
C1644 C1643 1.400 . S
C1644 C1647 1.386 . S
H1645 C1661 0.930 . S
H1646 C1662 0.931 . S
C1647 H1635 0.929 . S
C1647 C1641 1.390 . S
C1647 C1644 1.386 . S
C1648 C1643 1.490 . S
C1648 C1650 1.395 . S
C1648 C1651 1.403 . S
H1649 C1655 0.930 . S
C1650 H1636 0.930 . S
C1650 C1648 1.395 . S
C1650 C1653 1.403 . S
C1651 C1648 1.403 . S
C1651 C1652 1.524 . S
C1651 C1655 1.400 . S
C1652 H1637 0.960 . S
C1652 H1638 0.960 . S
C1652 H1639 0.960 . S
C1652 C1651 1.524 . S
C1653 C1650 1.403 . S
C1653 C1654 1.392 . S
C1653 C1657 1.495 . S
C1654 C1653 1.392 . S
C1654 C1655 1.385 . S
C1654 C1656 1.478 . S
C1655 H1649 0.930 . S
C1655 C1651 1.400 . S
C1655 C1654 1.385 . S
C1656 C1654 1.478 . S
C1656 C1658 1.381 . S
C1656 C1662 1.383 . S
C1657 C1653 1.495 . S
C1657 H1663 0.959 . S
C1657 H1664 0.961 . S
C1657 H1665 0.960 . S
C1658 C1656 1.381 . S
C1658 C1659 1.394 . S
C1658 H1666 0.930 . S
C1659 C1658 1.394 . S
C1659 C1660 1.383 . S
C1659 H1667 0.929 . S
C1660 C1659 1.383 . S
C1660 C1661 1.377 . S
C1661 H1645 0.930 . S
C1661 C1660 1.377 . S
C1661 C1662 1.379 . S
C1662 H1646 0.931 . S
C1662 C1656 1.383 . S
C1662 C1661 1.379 . S
H1663 C1657 0.959 . S
H1664 C1657 0.961 . S
H1665 C1657 0.960 . S
H1666 C1658 0.930 . S
H1667 C1659 0.929 . S
H1668 C1676 0.929 . S
H1669 C1678 0.930 . S
H1670 C1680 0.930 . S
H1671 C1683 0.929 . S
H1672 C1686 0.930 . S
H1673 C1688 0.960 . S
H1674 C1688 0.960 . S
H1675 C1688 0.960 . S
C1676 H1668 0.929 . S
C1676 C1677 1.377 . S
C1676 C1678 1.384 . S
C1677 C1676 1.377 . S
C1677 C1683 1.390 . S
C1678 H1669 0.930 . S
C1678 C1676 1.384 . S
C1678 C1679 1.372 . S
C1679 C1678 1.372 . S
C1679 C1680 1.400 . S
C1679 C1684 1.490 . S
C1680 H1670 0.930 . S
C1680 C1679 1.400 . S
C1680 C1683 1.386 . S
H1681 C1697 0.930 . S
H1682 C1698 0.931 . S
C1683 H1671 0.929 . S
C1683 C1677 1.390 . S
C1683 C1680 1.386 . S
C1684 C1679 1.490 . S
C1684 C1686 1.395 . S
C1684 C1687 1.403 . S
H1685 C1691 0.930 . S
C1686 H1672 0.930 . S
C1686 C1684 1.395 . S
C1686 C1689 1.403 1_556 S
C1687 C1684 1.403 . S
C1687 C1688 1.524 . S
C1687 C1691 1.400 1_556 S
C1688 H1673 0.960 . S
C1688 H1674 0.960 . S
C1688 H1675 0.960 . S
C1688 C1687 1.524 . S
C1689 C1686 1.403 1_554 S
C1689 C1690 1.392 . S
C1689 C1693 1.495 . S
C1690 C1689 1.392 . S
C1690 C1691 1.385 . S
C1690 C1692 1.478 . S
C1691 H1685 0.930 . S
C1691 C1687 1.400 1_554 S
C1691 C1690 1.385 . S
C1692 C1690 1.478 . S
C1692 C1694 1.381 . S
C1692 C1698 1.383 . S
C1693 C1689 1.495 . S
C1693 H1699 0.959 . S
C1693 H1700 0.961 . S
C1693 H1701 0.960 . S
C1694 C1692 1.381 . S
C1694 C1695 1.394 . S
C1694 H1702 0.930 . S
C1695 C1694 1.394 . S
C1695 C1696 1.383 . S
C1695 H1703 0.929 . S
C1696 C1695 1.383 . S
C1696 C1697 1.377 . S
C1697 H1681 0.930 . S
C1697 C1696 1.377 . S
C1697 C1698 1.379 . S
C1698 H1682 0.931 . S
C1698 C1692 1.383 . S
C1698 C1697 1.379 . S
H1699 C1693 0.959 . S
H1700 C1693 0.961 . S
H1701 C1693 0.960 . S
H1702 C1694 0.930 . S
H1703 C1695 0.929 . S
H1704 C1712 0.929 . S
H1705 C1714 0.930 . S
H1706 C1716 0.930 . S
H1707 C1719 0.929 . S
H1708 C1722 0.930 . S
H1709 C1724 0.960 . S
H1710 C1724 0.960 . S
H1711 C1724 0.960 . S
C1712 H1704 0.929 . S
C1712 C1713 1.377 . S
C1712 C1714 1.384 . S
C1713 C1712 1.377 . S
C1713 C1719 1.390 . S
C1714 H1705 0.930 . S
C1714 C1712 1.384 . S
C1714 C1715 1.372 . S
C1715 C1714 1.372 . S
C1715 C1716 1.400 . S
C1715 C1720 1.490 . S
C1716 H1706 0.930 . S
C1716 C1715 1.400 . S
C1716 C1719 1.386 . S
H1717 C1733 0.930 . S
H1718 C1734 0.931 . S
C1719 H1707 0.929 . S
C1719 C1713 1.390 . S
C1719 C1716 1.386 . S
C1720 C1715 1.490 . S
C1720 C1722 1.395 . S
C1720 C1723 1.403 . S
H1721 C1727 0.930 . S
C1722 H1708 0.930 . S
C1722 C1720 1.395 . S
C1722 C1725 1.403 . S
C1723 C1720 1.403 . S
C1723 C1724 1.524 . S
C1723 C1727 1.400 . S
C1724 H1709 0.960 . S
C1724 H1710 0.960 . S
C1724 H1711 0.960 . S
C1724 C1723 1.524 . S
C1725 C1722 1.403 . S
C1725 C1726 1.392 . S
C1725 C1729 1.495 . S
C1726 C1725 1.392 . S
C1726 C1727 1.385 . S
C1726 C1728 1.478 . S
C1727 H1721 0.930 . S
C1727 C1723 1.400 . S
C1727 C1726 1.385 . S
C1728 C1726 1.478 . S
C1728 C1730 1.381 . S
C1728 C1734 1.383 . S
C1729 C1725 1.495 . S
C1729 H1735 0.959 . S
C1729 H1736 0.961 . S
C1729 H1737 0.960 . S
C1730 C1728 1.381 . S
C1730 C1731 1.394 . S
C1730 H1738 0.930 . S
C1731 C1730 1.394 . S
C1731 C1732 1.383 . S
C1731 H1739 0.929 . S
C1732 C1731 1.383 . S
C1732 C1733 1.377 . S
C1733 H1717 0.930 . S
C1733 C1732 1.377 . S
C1733 C1734 1.379 . S
C1734 H1718 0.931 . S
C1734 C1728 1.383 . S
C1734 C1733 1.379 . S
H1735 C1729 0.959 . S
H1736 C1729 0.961 . S
H1737 C1729 0.960 . S
H1738 C1730 0.930 . S
H1739 C1731 0.929 . S
H1740 C1748 0.929 . S
H1741 C1750 0.930 . S
H1742 C1752 0.930 . S
H1743 C1755 0.929 . S
H1744 C1758 0.930 . S
H1745 C1760 0.937 1_554 S
H1746 C1760 0.960 . S
H1747 C1760 0.960 . S
C1748 H1740 0.929 . S
C1748 C1749 1.377 . S
C1748 C1750 1.384 . S
C1749 C1748 1.377 . S
C1749 C1755 1.390 . S
C1750 H1741 0.930 . S
C1750 C1748 1.384 . S
C1750 C1751 1.372 . S
C1751 C1750 1.372 . S
C1751 C1752 1.400 . S
C1751 C1756 1.490 . S
C1752 H1742 0.930 . S
C1752 C1751 1.400 . S
C1752 C1755 1.386 . S
H1753 C1769 0.930 . S
H1754 C1770 0.931 . S
C1755 H1743 0.929 . S
C1755 C1749 1.390 . S
C1755 C1752 1.386 . S
C1756 C1751 1.490 . S
C1756 C1758 1.395 . S
C1756 C1759 1.436 . S
H1757 C1763 0.930 . S
C1758 H1744 0.930 . S
C1758 C1756 1.395 . S
C1758 C1761 1.403 1_556 S
C1759 C1756 1.436 . S
C1759 C1760 1.548 . S
C1759 C1763 1.341 1_556 S
C1760 H1745 0.937 1_556 S
C1760 H1746 0.960 . S
C1760 H1747 0.960 . S
C1760 C1759 1.548 . S
C1761 C1758 1.403 1_554 S
C1761 C1762 1.392 . S
C1761 C1765 1.495 . S
C1762 C1761 1.392 . S
C1762 C1763 1.385 . S
C1762 C1764 1.478 . S
C1763 H1757 0.930 . S
C1763 C1759 1.341 1_554 S
C1763 C1762 1.385 . S
C1764 C1762 1.478 . S
C1764 C1766 1.381 . S
C1764 C1770 1.383 . S
C1765 C1761 1.495 . S
C1765 H1771 0.959 . S
C1765 H1772 0.961 . S
C1765 H1773 0.960 . S
C1766 C1764 1.381 . S
C1766 C1767 1.394 . S
C1766 H1774 0.930 . S
C1767 C1766 1.394 . S
C1767 C1768 1.383 . S
C1767 H1775 0.929 . S
C1768 C1767 1.383 . S
C1768 C1769 1.377 . S
C1769 H1753 0.930 . S
C1769 C1768 1.377 . S
C1769 C1770 1.379 . S
C1770 H1754 0.931 . S
C1770 C1764 1.383 . S
C1770 C1769 1.379 . S
H1771 C1765 0.959 . S
H1772 C1765 0.961 . S
H1773 C1765 0.960 . S
H1774 C1766 0.930 . S
H1775 C1767 0.929 . S
H1776 C1784 0.929 . S
H1777 C1786 0.930 . S
H1778 C1788 0.930 . S
H1779 C1791 0.929 . S
H1780 C1794 0.930 . S
H1781 C1796 0.960 . S
H1782 C1796 0.960 . S
H1783 C1796 0.960 . S
C1784 H1776 0.929 . S
C1784 C1785 1.377 . S
C1784 C1786 1.384 . S
C1785 C1784 1.377 . S
C1785 C1791 1.390 . S
C1786 H1777 0.930 . S
C1786 C1784 1.384 . S
C1786 C1787 1.372 . S
C1787 C1786 1.372 . S
C1787 C1788 1.400 . S
C1787 C1792 1.490 . S
C1788 H1778 0.930 . S
C1788 C1787 1.400 . S
C1788 C1791 1.386 . S
H1789 C1805 0.930 . S
H1790 C1806 0.931 . S
C1791 H1779 0.929 . S
C1791 C1785 1.390 . S
C1791 C1788 1.386 . S
C1792 C1787 1.490 . S
C1792 C1794 1.395 . S
C1792 C1795 1.403 . S
H1793 C1799 0.930 . S
C1794 H1780 0.930 . S
C1794 C1792 1.395 . S
C1794 C1797 1.403 . S
C1795 C1792 1.403 . S
C1795 C1796 1.524 . S
C1795 C1799 1.400 . S
C1796 H1781 0.960 . S
C1796 H1782 0.960 . S
C1796 H1783 0.960 . S
C1796 C1795 1.524 . S
C1797 C1794 1.403 . S
C1797 C1798 1.392 . S
C1797 C1801 1.495 . S
C1798 C1797 1.392 . S
C1798 C1799 1.385 . S
C1798 C1800 1.478 . S
C1799 H1793 0.930 . S
C1799 C1795 1.400 . S
C1799 C1798 1.385 . S
C1800 C1798 1.478 . S
C1800 C1802 1.381 . S
C1800 C1806 1.383 . S
C1801 C1797 1.495 . S
C1801 H1807 0.959 . S
C1801 H1808 0.961 . S
C1801 H1809 0.960 . S
C1802 C1800 1.381 . S
C1802 C1803 1.394 . S
C1802 H1810 0.930 . S
C1803 C1802 1.394 . S
C1803 C1804 1.383 . S
C1803 H1811 0.929 . S
C1804 C1803 1.383 . S
C1804 C1805 1.377 . S
C1805 H1789 0.930 . S
C1805 C1804 1.377 . S
C1805 C1806 1.379 . S
C1806 H1790 0.931 . S
C1806 C1800 1.383 . S
C1806 C1805 1.379 . S
H1807 C1801 0.959 . S
H1808 C1801 0.961 . S
H1809 C1801 0.960 . S
H1810 C1802 0.930 . S
H1811 C1803 0.929 . S
H1812 C1820 0.929 . S
H1813 C1822 0.930 . S
H1814 C1824 0.930 . S
H1815 C1827 0.929 . S
H1816 C1830 0.930 . S
H1817 C1832 0.960 . S
H1818 C1832 0.960 . S
H1819 C1832 0.960 . S
C1820 H1812 0.929 . S
C1820 C1821 1.377 . S
C1820 C1822 1.384 . S
C1821 C1820 1.377 . S
C1821 C1827 1.390 . S
C1822 H1813 0.930 . S
C1822 C1820 1.384 . S
C1822 C1823 1.372 . S
C1823 C1822 1.372 . S
C1823 C1824 1.400 . S
C1823 C1828 1.490 . S
C1824 H1814 0.930 . S
C1824 C1823 1.400 . S
C1824 C1827 1.386 . S
H1825 C1841 0.930 . S
H1826 C1842 0.931 . S
C1827 H1815 0.929 . S
C1827 C1821 1.390 . S
C1827 C1824 1.386 . S
C1828 C1823 1.490 . S
C1828 C1830 1.395 . S
C1828 C1831 1.403 . S
H1829 C1835 0.930 . S
C1830 H1816 0.930 . S
C1830 C1828 1.395 . S
C1830 C1833 1.403 1_565 S
C1831 C1828 1.403 . S
C1831 C1832 1.524 . S
C1831 C1835 1.400 1_565 S
C1832 H1817 0.960 . S
C1832 H1818 0.960 . S
C1832 H1819 0.960 . S
C1832 C1831 1.524 . S
C1833 C1830 1.403 1_545 S
C1833 C1834 1.392 . S
C1833 C1837 1.495 . S
C1834 C1833 1.392 . S
C1834 C1835 1.385 . S
C1834 C1836 1.478 . S
C1835 H1829 0.930 . S
C1835 C1831 1.400 1_545 S
C1835 C1834 1.385 . S
C1836 C1834 1.478 . S
C1836 C1838 1.381 . S
C1836 C1842 1.383 . S
C1837 C1833 1.495 . S
C1837 H1843 0.959 . S
C1837 H1844 0.961 . S
C1837 H1845 0.960 . S
C1838 C1836 1.381 . S
C1838 C1839 1.394 . S
C1838 H1846 0.930 . S
C1839 C1838 1.394 . S
C1839 C1840 1.383 . S
C1839 H1847 0.929 . S
C1840 C1839 1.383 . S
C1840 C1841 1.377 . S
C1841 H1825 0.930 . S
C1841 C1840 1.377 . S
C1841 C1842 1.379 . S
C1842 H1826 0.931 . S
C1842 C1836 1.383 . S
C1842 C1841 1.379 . S
H1843 C1837 0.959 . S
H1844 C1837 0.961 . S
H1845 C1837 0.960 . S
H1846 C1838 0.930 . S
H1847 C1839 0.929 . S
H1848 C1856 0.929 . S
H1849 C1858 0.930 . S
H1850 C1860 0.930 . S
H1851 C1863 0.929 . S
H1852 C1866 0.930 . S
H1853 C1868 0.960 . S
H1854 C1868 0.960 . S
H1855 C1868 0.960 . S
C1856 H1848 0.929 . S
C1856 C1857 1.377 . S
C1856 C1858 1.384 . S
C1857 C1856 1.377 . S
C1857 C1863 1.390 . S
C1858 H1849 0.930 . S
C1858 C1856 1.384 . S
C1858 C1859 1.372 . S
C1859 C1858 1.372 . S
C1859 C1860 1.400 . S
C1859 C1864 1.490 . S
C1860 H1850 0.930 . S
C1860 C1859 1.400 . S
C1860 C1863 1.386 . S
H1861 C1877 0.930 . S
H1862 C1878 0.931 . S
C1863 H1851 0.929 . S
C1863 C1857 1.390 . S
C1863 C1860 1.386 . S
C1864 C1859 1.490 . S
C1864 C1866 1.395 . S
C1864 C1867 1.403 . S
H1865 C1871 0.930 . S
C1866 H1852 0.930 . S
C1866 C1864 1.395 . S
C1866 C1869 1.403 . S
C1867 C1864 1.403 . S
C1867 C1868 1.524 . S
C1867 C1871 1.400 . S
C1868 H1853 0.960 . S
C1868 H1854 0.960 . S
C1868 H1855 0.960 . S
C1868 C1867 1.524 . S
C1869 C1866 1.403 . S
C1869 C1870 1.392 . S
C1869 C1873 1.495 . S
C1870 C1869 1.392 . S
C1870 C1871 1.385 . S
C1870 C1872 1.478 . S
C1871 H1865 0.930 . S
C1871 C1867 1.400 . S
C1871 C1870 1.385 . S
C1872 C1870 1.478 . S
C1872 C1874 1.381 . S
C1872 C1878 1.383 . S
C1873 C1869 1.495 . S
C1873 H1879 0.959 . S
C1873 H1880 0.961 . S
C1873 H1881 0.960 . S
C1874 C1872 1.381 . S
C1874 C1875 1.394 . S
C1874 H1882 0.930 . S
C1875 C1874 1.394 . S
C1875 C1876 1.383 . S
C1875 H1883 0.929 . S
C1876 C1875 1.383 . S
C1876 C1877 1.377 . S
C1877 H1861 0.930 . S
C1877 C1876 1.377 . S
C1877 C1878 1.379 . S
C1878 H1862 0.931 . S
C1878 C1872 1.383 . S
C1878 C1877 1.379 . S
H1879 C1873 0.959 . S
H1880 C1873 0.961 . S
H1881 C1873 0.960 . S
H1882 C1874 0.930 . S
H1883 C1875 0.929 . S
H1884 C1892 0.929 . S
H1885 C1894 0.930 . S
H1886 C1896 0.930 . S
H1887 C1899 0.929 . S
H1888 C1902 0.930 . S
H1889 C1904 0.960 . S
H1890 C1904 0.960 . S
H1891 C1904 0.960 . S
C1892 H1884 0.929 . S
C1892 C1893 1.377 . S
C1892 C1894 1.384 . S
C1893 C1892 1.377 . S
C1893 C1899 1.390 . S
C1894 H1885 0.930 . S
C1894 C1892 1.384 . S
C1894 C1895 1.372 . S
C1895 C1894 1.372 . S
C1895 C1896 1.400 . S
C1895 C1900 1.490 . S
C1896 H1886 0.930 . S
C1896 C1895 1.400 . S
C1896 C1899 1.386 . S
H1897 C1913 0.930 . S
H1898 C1914 0.931 . S
C1899 H1887 0.929 . S
C1899 C1893 1.390 . S
C1899 C1896 1.386 . S
C1900 C1895 1.490 . S
C1900 C1902 1.395 . S
C1900 C1903 1.403 . S
H1901 C1907 0.930 . S
C1902 H1888 0.930 . S
C1902 C1900 1.395 . S
C1902 C1905 1.408 1_545 S
C1903 C1900 1.403 . S
C1903 C1904 1.524 . S
C1903 C1907 1.400 1_545 S
C1904 H1889 0.960 . S
C1904 H1890 0.960 . S
C1904 H1891 0.960 . S
C1904 C1903 1.524 . S
C1905 C1902 1.408 1_565 S
C1905 C1906 1.390 . S
C1905 C1909 1.494 . S
C1906 C1905 1.390 . S
C1906 C1907 1.385 . S
C1906 C1908 1.478 . S
C1907 H1901 0.930 . S
C1907 C1903 1.400 1_565 S
C1907 C1906 1.385 . S
C1908 C1906 1.478 . S
C1908 C1910 1.381 . S
C1908 C1914 1.383 . S
C1909 C1905 1.494 . S
C1909 H1915 0.959 1_565 S
C1909 H1916 0.961 . S
C1909 H1917 0.960 . S
C1910 C1908 1.381 . S
C1910 C1911 1.394 . S
C1910 H1918 0.930 . S
C1911 C1910 1.394 . S
C1911 C1912 1.383 . S
C1911 H1919 0.929 . S
C1912 C1911 1.383 . S
C1912 C1913 1.377 . S
C1913 H1897 0.930 . S
C1913 C1912 1.377 . S
C1913 C1914 1.379 . S
C1914 H1898 0.931 . S
C1914 C1908 1.383 . S
C1914 C1913 1.379 . S
H1915 C1909 0.959 1_545 S
H1916 C1909 0.961 . S
H1917 C1909 0.960 . S
H1918 C1910 0.930 . S
H1919 C1911 0.929 . S
H1920 C1928 0.929 . S
H1921 C1930 0.930 . S
H1922 C1932 0.930 . S
H1923 C1935 0.929 . S
H1924 C1938 0.930 . S
H1925 C1940 0.960 . S
H1926 C1940 0.960 . S
H1927 C1940 0.960 . S
C1928 H1920 0.929 . S
C1928 C1929 1.377 . S
C1928 C1930 1.384 . S
C1929 C1928 1.377 . S
C1929 C1935 1.390 . S
C1930 H1921 0.930 . S
C1930 C1928 1.384 . S
C1930 C1931 1.372 . S
C1931 C1930 1.372 . S
C1931 C1932 1.400 . S
C1931 C1936 1.490 . S
C1932 H1922 0.930 . S
C1932 C1931 1.400 . S
C1932 C1935 1.386 . S
H1933 C1949 0.930 . S
H1934 C1950 0.931 . S
C1935 H1923 0.929 . S
C1935 C1929 1.390 . S
C1935 C1932 1.386 . S
C1936 C1931 1.490 . S
C1936 C1938 1.395 . S
C1936 C1939 1.403 . S
H1937 C1943 0.930 . S
C1938 H1924 0.930 . S
C1938 C1936 1.395 . S
C1938 C1941 1.403 . S
C1939 C1936 1.403 . S
C1939 C1940 1.524 . S
C1939 C1943 1.400 . S
C1940 H1925 0.960 . S
C1940 H1926 0.960 . S
C1940 H1927 0.960 . S
C1940 C1939 1.524 . S
C1941 C1938 1.403 . S
C1941 C1942 1.392 . S
C1941 C1945 1.495 . S
C1942 C1941 1.392 . S
C1942 C1943 1.385 . S
C1942 C1944 1.478 . S
C1943 H1937 0.930 . S
C1943 C1939 1.400 . S
C1943 C1942 1.385 . S
C1944 C1942 1.478 . S
C1944 C1946 1.381 . S
C1944 C1950 1.383 . S
C1945 C1941 1.495 . S
C1945 H1951 0.959 . S
C1945 H1952 0.961 . S
C1945 H1953 0.960 . S
C1946 C1944 1.381 . S
C1946 C1947 1.394 . S
C1946 H1954 0.930 . S
C1947 C1946 1.394 . S
C1947 C1948 1.383 . S
C1947 H1955 0.929 . S
C1948 C1947 1.383 . S
C1948 C1949 1.377 . S
C1949 H1933 0.930 . S
C1949 C1948 1.377 . S
C1949 C1950 1.379 . S
C1950 H1934 0.931 . S
C1950 C1944 1.383 . S
C1950 C1949 1.379 . S
H1951 C1945 0.959 . S
H1952 C1945 0.961 . S
H1953 C1945 0.960 . S
H1954 C1946 0.930 . S
H1955 C1947 0.929 . S
H1956 C1964 0.929 . S
H1957 C1966 0.930 . S
H1958 C1968 0.930 . S
H1959 C1971 0.929 . S
H1960 C1974 0.930 . S
H1961 C1976 0.960 . S
H1962 C1976 0.960 . S
H1963 C1976 0.960 . S
C1964 H1956 0.929 . S
C1964 C1965 1.377 . S
C1964 C1966 1.384 . S
C1965 C1964 1.377 . S
C1965 C1971 1.390 . S
C1966 H1957 0.930 . S
C1966 C1964 1.384 . S
C1966 C1967 1.372 . S
C1967 C1966 1.372 . S
C1967 C1968 1.400 . S
C1967 C1972 1.490 . S
C1968 H1958 0.930 . S
C1968 C1967 1.400 . S
C1968 C1971 1.386 . S
H1969 C1985 0.930 . S
H1970 C1986 0.931 . S
C1971 H1959 0.929 . S
C1971 C1965 1.390 . S
C1971 C1968 1.386 . S
C1972 C1967 1.490 . S
C1972 C1974 1.395 . S
C1972 C1975 1.403 . S
H1973 C1979 0.930 . S
C1974 H1960 0.930 . S
C1974 C1972 1.395 . S
C1974 C1977 1.403 1_565 S
C1975 C1972 1.403 . S
C1975 C1976 1.524 . S
C1975 C1979 1.400 1_565 S
C1976 H1961 0.960 . S
C1976 H1962 0.960 . S
C1976 H1963 0.960 . S
C1976 C1975 1.524 . S
C1977 C1974 1.403 1_545 S
C1977 C1978 1.392 . S
C1977 C1981 1.495 . S
C1978 C1977 1.392 . S
C1978 C1979 1.385 . S
C1978 C1980 1.478 . S
C1979 H1973 0.930 . S
C1979 C1975 1.400 1_545 S
C1979 C1978 1.385 . S
C1980 C1978 1.478 . S
C1980 C1982 1.381 . S
C1980 C1986 1.383 . S
C1981 C1977 1.495 . S
C1981 H1987 0.959 . S
C1981 H1988 0.961 . S
C1981 H1989 0.960 . S
C1982 C1980 1.381 . S
C1982 C1983 1.394 . S
C1982 H1990 0.930 . S
C1983 C1982 1.394 . S
C1983 C1984 1.383 . S
C1983 H1991 0.929 . S
C1984 C1983 1.383 . S
C1984 C1985 1.377 . S
C1985 H1969 0.930 . S
C1985 C1984 1.377 . S
C1985 C1986 1.379 . S
C1986 H1970 0.931 . S
C1986 C1980 1.383 . S
C1986 C1985 1.379 . S
H1987 C1981 0.959 . S
H1988 C1981 0.961 . S
H1989 C1981 0.960 . S
H1990 C1982 0.930 . S
H1991 C1983 0.929 . S
H1992 C2000 0.929 . S
H1993 C2002 0.930 . S
H1994 C2004 0.930 . S
H1995 C2007 0.929 . S
H1996 C2010 0.930 . S
H1997 C2012 0.960 . S
H1998 C2012 0.960 . S
H1999 C2012 0.960 . S
C2000 H1992 0.929 . S
C2000 C2001 1.377 . S
C2000 C2002 1.384 . S
C2001 C2000 1.377 . S
C2001 C2007 1.390 . S
C2002 H1993 0.930 . S
C2002 C2000 1.384 . S
C2002 C2003 1.372 . S
C2003 C2002 1.372 . S
C2003 C2004 1.400 . S
C2003 C2008 1.490 . S
C2004 H1994 0.930 . S
C2004 C2003 1.400 . S
C2004 C2007 1.386 . S
H2005 C2021 0.930 . S
H2006 C2022 0.931 . S
C2007 H1995 0.929 . S
C2007 C2001 1.390 . S
C2007 C2004 1.386 . S
C2008 C2003 1.490 . S
C2008 C2010 1.395 . S
C2008 C2011 1.403 . S
H2009 C2015 0.930 . S
C2010 H1996 0.930 . S
C2010 C2008 1.395 . S
C2010 C2013 1.403 . S
C2011 C2008 1.403 . S
C2011 C2012 1.524 . S
C2011 C2015 1.400 . S
C2012 H1997 0.960 . S
C2012 H1998 0.960 . S
C2012 H1999 0.960 . S
C2012 C2011 1.524 . S
C2013 C2010 1.403 . S
C2013 C2014 1.392 . S
C2013 C2017 1.495 . S
C2014 C2013 1.392 . S
C2014 C2015 1.385 . S
C2014 C2016 1.478 . S
C2015 H2009 0.930 . S
C2015 C2011 1.400 . S
C2015 C2014 1.385 . S
C2016 C2014 1.478 . S
C2016 C2018 1.381 . S
C2016 C2022 1.383 . S
C2017 C2013 1.495 . S
C2017 H2023 0.959 . S
C2017 H2024 0.961 . S
C2017 H2025 0.960 . S
C2018 C2016 1.381 . S
C2018 C2019 1.394 . S
C2018 H2026 0.930 . S
C2019 C2018 1.394 . S
C2019 C2020 1.383 . S
C2019 H2027 0.929 . S
C2020 C2019 1.383 . S
C2020 C2021 1.377 . S
C2021 H2005 0.930 . S
C2021 C2020 1.377 . S
C2021 C2022 1.379 . S
C2022 H2006 0.931 . S
C2022 C2016 1.383 . S
C2022 C2021 1.379 . S
H2023 C2017 0.959 . S
H2024 C2017 0.961 . S
H2025 C2017 0.960 . S
H2026 C2018 0.930 . S
H2027 C2019 0.929 . S
H2028 C2036 0.929 . S
H2029 C2038 0.930 . S
H2030 C2040 0.930 . S
H2031 C2043 0.929 . S
H2032 C2046 0.930 . S
H2033 C2048 0.960 . S
H2034 C2048 0.960 . S
H2035 C2048 0.960 . S
C2036 H2028 0.929 . S
C2036 C2037 1.377 . S
C2036 C2038 1.384 . S
C2037 C2036 1.377 . S
C2037 C2043 1.390 . S
C2038 H2029 0.930 . S
C2038 C2036 1.384 . S
C2038 C2039 1.372 . S
C2039 C2038 1.372 . S
C2039 C2040 1.400 . S
C2039 C2044 1.490 . S
C2040 H2030 0.930 . S
C2040 C2039 1.400 . S
C2040 C2043 1.386 . S
H2041 C2057 0.930 . S
H2042 C2058 0.931 . S
C2043 H2031 0.929 . S
C2043 C2037 1.390 . S
C2043 C2040 1.386 . S
C2044 C2039 1.490 . S
C2044 C2046 1.395 . S
C2044 C2047 1.403 . S
H2045 C2051 0.930 . S
C2046 H2032 0.930 . S
C2046 C2044 1.395 . S
C2046 C2049 1.403 1_565 S
C2047 C2044 1.403 . S
C2047 C2048 1.524 . S
C2047 C2051 1.400 1_565 S
C2048 H2033 0.960 . S
C2048 H2034 0.960 . S
C2048 H2035 0.960 . S
C2048 C2047 1.524 . S
C2049 C2046 1.403 1_545 S
C2049 C2050 1.392 . S
C2049 C2053 1.495 . S
C2050 C2049 1.392 . S
C2050 C2051 1.385 . S
C2050 C2052 1.478 . S
C2051 H2045 0.930 . S
C2051 C2047 1.400 1_545 S
C2051 C2050 1.385 . S
C2052 C2050 1.478 . S
C2052 C2054 1.381 . S
C2052 C2058 1.383 . S
C2053 C2049 1.495 . S
C2053 H2059 0.959 . S
C2053 H2060 0.961 . S
C2053 H2061 0.960 . S
C2054 C2052 1.381 . S
C2054 C2055 1.394 . S
C2054 H2062 0.930 . S
C2055 C2054 1.394 . S
C2055 C2056 1.383 . S
C2055 H2063 0.929 . S
C2056 C2055 1.383 . S
C2056 C2057 1.377 . S
C2057 H2041 0.930 . S
C2057 C2056 1.377 . S
C2057 C2058 1.379 . S
C2058 H2042 0.931 . S
C2058 C2052 1.383 . S
C2058 C2057 1.379 . S
H2059 C2053 0.959 . S
H2060 C2053 0.961 . S
H2061 C2053 0.960 . S
H2062 C2054 0.930 . S
H2063 C2055 0.929 . S
H2064 C2072 0.929 . S
H2065 C2074 0.930 . S
H2066 C2076 0.930 . S
H2067 C2079 0.929 . S
H2068 C2082 0.930 . S
H2069 C2084 0.960 . S
H2070 C2084 0.960 . S
H2071 C2084 0.960 . S
C2072 H2064 0.929 . S
C2072 C2073 1.377 . S
C2072 C2074 1.384 . S
C2073 C2072 1.377 . S
C2073 C2079 1.390 . S
C2074 H2065 0.930 . S
C2074 C2072 1.384 . S
C2074 C2075 1.372 . S
C2075 C2074 1.372 . S
C2075 C2076 1.400 . S
C2075 C2080 1.490 . S
C2076 H2066 0.930 . S
C2076 C2075 1.400 . S
C2076 C2079 1.386 . S
H2077 C2093 0.930 . S
H2078 C2094 0.931 . S
C2079 H2067 0.929 . S
C2079 C2073 1.390 . S
C2079 C2076 1.386 . S
C2080 C2075 1.490 . S
C2080 C2082 1.395 . S
C2080 C2083 1.403 . S
H2081 C2087 0.930 . S
C2082 H2068 0.930 . S
C2082 C2080 1.395 . S
C2082 C2085 1.403 . S
C2083 C2080 1.403 . S
C2083 C2084 1.524 . S
C2083 C2087 1.400 . S
C2084 H2069 0.960 . S
C2084 H2070 0.960 . S
C2084 H2071 0.960 . S
C2084 C2083 1.524 . S
C2085 C2082 1.403 . S
C2085 C2086 1.392 . S
C2085 C2089 1.495 . S
C2086 C2085 1.392 . S
C2086 C2087 1.385 . S
C2086 C2088 1.478 . S
C2087 H2081 0.930 . S
C2087 C2083 1.400 . S
C2087 C2086 1.385 . S
C2088 C2086 1.478 . S
C2088 C2090 1.381 . S
C2088 C2094 1.383 . S
C2089 C2085 1.495 . S
C2089 H2095 0.959 . S
C2089 H2096 0.961 . S
C2089 H2097 0.960 . S
C2090 C2088 1.381 . S
C2090 C2091 1.394 . S
C2090 H2098 0.930 . S
C2091 C2090 1.394 . S
C2091 C2092 1.383 . S
C2091 H2099 0.929 . S
C2092 C2091 1.383 . S
C2092 C2093 1.377 . S
C2093 H2077 0.930 . S
C2093 C2092 1.377 . S
C2093 C2094 1.379 . S
C2094 H2078 0.931 . S
C2094 C2088 1.383 . S
C2094 C2093 1.379 . S
H2095 C2089 0.959 . S
H2096 C2089 0.961 . S
H2097 C2089 0.960 . S
H2098 C2090 0.930 . S
H2099 C2091 0.929 . S
H2100 C2108 0.929 . S
H2101 C2110 0.930 . S
H2102 C2112 0.930 . S
H2103 C2115 0.929 . S
H2104 C2118 0.930 . S
H2105 C2120 0.960 . S
H2106 C2120 0.960 . S
H2107 C2120 0.960 . S
C2108 H2100 0.929 . S
C2108 C2109 1.377 . S
C2108 C2110 1.384 . S
C2109 C2108 1.377 . S
C2109 C2115 1.390 . S
C2110 H2101 0.930 . S
C2110 C2108 1.384 . S
C2110 C2111 1.372 . S
C2111 C2110 1.372 . S
C2111 C2112 1.400 . S
C2111 C2116 1.490 . S
C2112 H2102 0.930 . S
C2112 C2111 1.400 . S
C2112 C2115 1.386 . S
H2113 C2129 0.930 . S
H2114 C2130 0.931 . S
C2115 H2103 0.929 . S
C2115 C2109 1.390 . S
C2115 C2112 1.386 . S
C2116 C2111 1.490 . S
C2116 C2118 1.395 . S
C2116 C2119 1.403 . S
H2117 C2123 0.930 . S
C2118 H2104 0.930 . S
C2118 C2116 1.395 . S
C2118 C2121 1.403 . S
C2119 C2116 1.403 . S
C2119 C2120 1.524 . S
C2119 C2123 1.400 . S
C2120 H2105 0.960 . S
C2120 H2106 0.960 . S
C2120 H2107 0.960 . S
C2120 C2119 1.524 . S
C2121 C2118 1.403 . S
C2121 C2122 1.392 . S
C2121 C2125 1.495 . S
C2122 C2121 1.392 . S
C2122 C2123 1.385 . S
C2122 C2124 1.478 . S
C2123 H2117 0.930 . S
C2123 C2119 1.400 . S
C2123 C2122 1.385 . S
C2124 C2122 1.478 . S
C2124 C2126 1.381 . S
C2124 C2130 1.383 . S
C2125 C2121 1.495 . S
C2125 H2131 0.959 . S
C2125 H2132 0.961 . S
C2125 H2133 0.960 . S
C2126 C2124 1.381 . S
C2126 C2127 1.394 . S
C2126 H2134 0.930 . S
C2127 C2126 1.394 . S
C2127 C2128 1.383 . S
C2127 H2135 0.929 . S
C2128 C2127 1.383 . S
C2128 C2129 1.377 . S
C2129 H2113 0.930 . S
C2129 C2128 1.377 . S
C2129 C2130 1.379 . S
C2130 H2114 0.931 . S
C2130 C2124 1.383 . S
C2130 C2129 1.379 . S
H2131 C2125 0.959 . S
H2132 C2125 0.961 . S
H2133 C2125 0.960 . S
H2134 C2126 0.930 . S
H2135 C2127 0.929 . S
H2136 C2144 0.929 . S
H2137 C2146 0.930 . S
H2138 C2148 0.930 . S
H2139 C2151 0.929 . S
H2140 C2154 0.930 . S
H2141 C2156 0.960 . S
H2142 C2156 0.960 . S
H2143 C2156 0.960 . S
C2144 H2136 0.929 . S
C2144 C2145 1.377 . S
C2144 C2146 1.384 . S
C2145 C2144 1.377 . S
C2145 C2151 1.390 . S
C2146 H2137 0.930 . S
C2146 C2144 1.384 . S
C2146 C2147 1.372 . S
C2147 C2146 1.372 . S
C2147 C2148 1.400 . S
C2147 C2152 1.490 . S
C2148 H2138 0.930 . S
C2148 C2147 1.400 . S
C2148 C2151 1.386 . S
H2149 C2165 0.930 . S
H2150 C2166 0.931 . S
C2151 H2139 0.929 . S
C2151 C2145 1.390 . S
C2151 C2148 1.386 . S
C2152 C2147 1.490 . S
C2152 C2154 1.395 . S
C2152 C2155 1.403 . S
H2153 C2159 0.930 . S
C2154 H2140 0.930 . S
C2154 C2152 1.395 . S
C2154 C2157 1.380 1_455 S
C2155 C2152 1.403 . S
C2155 C2156 1.524 . S
C2155 C2159 1.400 1_455 S
C2156 H2141 0.960 . S
C2156 H2142 0.960 . S
C2156 H2143 0.960 . S
C2156 C2155 1.524 . S
C2157 C2154 1.380 1_655 S
C2157 C2158 1.407 . S
C2157 C2161 1.504 . S
C2158 C2157 1.407 . S
C2158 C2159 1.385 . S
C2158 C2160 1.478 . S
C2159 H2153 0.930 . S
C2159 C2155 1.400 1_655 S
C2159 C2158 1.385 . S
C2160 C2158 1.478 . S
C2160 C2162 1.381 . S
C2160 C2166 1.383 . S
C2161 C2157 1.504 . S
C2161 H2167 0.959 1_655 S
C2161 H2168 0.961 . S
C2161 H2169 0.960 . S
C2162 C2160 1.381 . S
C2162 C2163 1.394 . S
C2162 H2170 0.930 . S
C2163 C2162 1.394 . S
C2163 C2164 1.383 . S
C2163 H2171 0.929 . S
C2164 C2163 1.383 . S
C2164 C2165 1.377 . S
C2165 H2149 0.930 . S
C2165 C2164 1.377 . S
C2165 C2166 1.379 . S
C2166 H2150 0.931 . S
C2166 C2160 1.383 . S
C2166 C2165 1.379 . S
H2167 C2161 0.959 1_455 S
H2168 C2161 0.961 . S
H2169 C2161 0.960 . S
H2170 C2162 0.930 . S
H2171 C2163 0.929 . S
H2172 C2180 0.929 . S
H2173 C2182 0.930 . S
H2174 C2184 0.930 . S
H2175 C2187 0.929 . S
H2176 C2190 0.930 . S
H2177 C2192 0.960 . S
H2178 C2192 0.960 . S
H2179 C2192 0.960 . S
C2180 H2172 0.929 . S
C2180 C2181 1.377 . S
C2180 C2182 1.384 . S
C2181 C2180 1.377 . S
C2181 C2187 1.390 . S
C2182 H2173 0.930 . S
C2182 C2180 1.384 . S
C2182 C2183 1.372 . S
C2183 C2182 1.372 . S
C2183 C2184 1.400 . S
C2183 C2188 1.490 . S
C2184 H2174 0.930 . S
C2184 C2183 1.400 . S
C2184 C2187 1.386 . S
H2185 C2201 0.930 . S
H2186 C2202 0.931 . S
C2187 H2175 0.929 . S
C2187 C2181 1.390 . S
C2187 C2184 1.386 . S
C2188 C2183 1.490 . S
C2188 C2190 1.395 . S
C2188 C2191 1.403 . S
H2189 C2195 0.930 . S
C2190 H2176 0.930 . S
C2190 C2188 1.395 . S
C2190 C2193 1.403 . S
C2191 C2188 1.403 . S
C2191 C2192 1.524 . S
C2191 C2195 1.400 . S
C2192 H2177 0.960 . S
C2192 H2178 0.960 . S
C2192 H2179 0.960 . S
C2192 C2191 1.524 . S
C2193 C2190 1.403 . S
C2193 C2194 1.392 . S
C2193 C2197 1.495 . S
C2194 C2193 1.392 . S
C2194 C2195 1.385 . S
C2194 C2196 1.478 . S
C2195 H2189 0.930 . S
C2195 C2191 1.400 . S
C2195 C2194 1.385 . S
C2196 C2194 1.478 . S
C2196 C2198 1.381 . S
C2196 C2202 1.383 . S
C2197 C2193 1.495 . S
C2197 H2203 0.959 . S
C2197 H2204 0.961 . S
C2197 H2205 0.960 . S
C2198 C2196 1.381 . S
C2198 C2199 1.394 . S
C2198 H2206 0.930 . S
C2199 C2198 1.394 . S
C2199 C2200 1.383 . S
C2199 H2207 0.929 . S
C2200 C2199 1.383 . S
C2200 C2201 1.377 . S
C2201 H2185 0.930 . S
C2201 C2200 1.377 . S
C2201 C2202 1.379 . S
C2202 H2186 0.931 . S
C2202 C2196 1.383 . S
C2202 C2201 1.379 . S
H2203 C2197 0.959 . S
H2204 C2197 0.961 . S
H2205 C2197 0.960 . S
H2206 C2198 0.930 . S
H2207 C2199 0.929 . S
H2208 C2216 0.929 . S
H2209 C2218 0.930 . S
H2210 C2220 0.930 . S
H2211 C2223 0.929 . S
H2212 C2226 0.930 . S
H2213 C2228 0.960 1_655 S
H2214 C2228 0.960 . S
H2215 C2228 0.960 . S
C2216 H2208 0.929 . S
C2216 C2217 1.377 . S
C2216 C2218 1.384 . S
C2217 C2216 1.377 . S
C2217 C2223 1.390 . S
C2218 H2209 0.930 . S
C2218 C2216 1.384 . S
C2218 C2219 1.372 . S
C2219 C2218 1.372 . S
C2219 C2220 1.400 . S
C2219 C2224 1.490 . S
C2220 H2210 0.930 . S
C2220 C2219 1.400 . S
C2220 C2223 1.386 . S
H2221 C2237 0.930 . S
H2222 C2238 0.931 . S
C2223 H2211 0.929 . S
C2223 C2217 1.390 . S
C2223 C2220 1.386 . S
C2224 C2219 1.490 . S
C2224 C2226 1.395 . S
C2224 C2227 1.398 1_455 S
H2225 C2231 0.930 . S
C2226 H2212 0.930 . S
C2226 C2224 1.395 . S
C2226 C2229 1.403 1_455 S
C2227 C2224 1.398 1_655 S
C2227 C2228 1.520 1_655 S
C2227 C2231 1.409 . S
C2228 H2213 0.960 1_455 S
C2228 H2214 0.960 . S
C2228 H2215 0.960 . S
C2228 C2227 1.520 1_455 S
C2229 C2226 1.403 1_655 S
C2229 C2230 1.392 . S
C2229 C2233 1.495 . S
C2230 C2229 1.392 . S
C2230 C2231 1.385 . S
C2230 C2232 1.478 . S
C2231 H2225 0.930 . S
C2231 C2227 1.409 . S
C2231 C2230 1.385 . S
C2232 C2230 1.478 . S
C2232 C2234 1.381 . S
C2232 C2238 1.383 . S
C2233 C2229 1.495 . S
C2233 H2239 0.959 . S
C2233 H2240 0.961 . S
C2233 H2241 0.960 . S
C2234 C2232 1.381 . S
C2234 C2235 1.394 . S
C2234 H2242 0.930 . S
C2235 C2234 1.394 . S
C2235 C2236 1.383 . S
C2235 H2243 0.929 . S
C2236 C2235 1.383 . S
C2236 C2237 1.377 . S
C2237 H2221 0.930 . S
C2237 C2236 1.377 . S
C2237 C2238 1.379 . S
C2238 H2222 0.931 . S
C2238 C2232 1.383 . S
C2238 C2237 1.379 . S
H2239 C2233 0.959 . S
H2240 C2233 0.961 . S
H2241 C2233 0.960 . S
H2242 C2234 0.930 . S
H2243 C2235 0.929 . S
H2244 C2252 0.929 . S
H2245 C2254 0.930 . S
H2246 C2256 0.930 . S
H2247 C2259 0.929 . S
H2248 C2262 0.930 . S
H2249 C2264 0.960 . S
H2250 C2264 0.960 . S
H2251 C2264 0.960 . S
C2252 H2244 0.929 . S
C2252 C2253 1.377 . S
C2252 C2254 1.384 . S
C2253 C2252 1.377 . S
C2253 C2259 1.390 . S
C2254 H2245 0.930 . S
C2254 C2252 1.384 . S
C2254 C2255 1.372 . S
C2255 C2254 1.372 . S
C2255 C2256 1.400 . S
C2255 C2260 1.490 . S
C2256 H2246 0.930 . S
C2256 C2255 1.400 . S
C2256 C2259 1.386 . S
H2257 C2273 0.930 . S
H2258 C2274 0.931 . S
C2259 H2247 0.929 . S
C2259 C2253 1.390 . S
C2259 C2256 1.386 . S
C2260 C2255 1.490 . S
C2260 C2262 1.395 . S
C2260 C2263 1.403 . S
H2261 C2267 0.930 . S
C2262 H2248 0.930 . S
C2262 C2260 1.395 . S
C2262 C2265 1.403 . S
C2263 C2260 1.403 . S
C2263 C2264 1.524 . S
C2263 C2267 1.400 . S
C2264 H2249 0.960 . S
C2264 H2250 0.960 . S
C2264 H2251 0.960 . S
C2264 C2263 1.524 . S
C2265 C2262 1.403 . S
C2265 C2266 1.392 . S
C2265 C2269 1.495 . S
C2266 C2265 1.392 . S
C2266 C2267 1.385 . S
C2266 C2268 1.478 . S
C2267 H2261 0.930 . S
C2267 C2263 1.400 . S
C2267 C2266 1.385 . S
C2268 C2266 1.478 . S
C2268 C2270 1.381 . S
C2268 C2274 1.383 . S
C2269 C2265 1.495 . S
C2269 H2275 0.959 . S
C2269 H2276 0.961 . S
C2269 H2277 0.960 . S
C2270 C2268 1.381 . S
C2270 C2271 1.394 . S
C2270 H2278 0.930 . S
C2271 C2270 1.394 . S
C2271 C2272 1.383 . S
C2271 H2279 0.929 . S
C2272 C2271 1.383 . S
C2272 C2273 1.377 . S
C2273 H2257 0.930 . S
C2273 C2272 1.377 . S
C2273 C2274 1.379 . S
C2274 H2258 0.931 . S
C2274 C2268 1.383 . S
C2274 C2273 1.379 . S
H2275 C2269 0.959 . S
H2276 C2269 0.961 . S
H2277 C2269 0.960 . S
H2278 C2270 0.930 . S
H2279 C2271 0.929 . S
H2280 C2288 0.929 . S
H2281 C2290 0.930 . S
H2282 C2292 0.930 . S
H2283 C2295 0.929 . S
H2284 C2298 0.930 . S
H2285 C2300 0.960 . S
H2286 C2300 0.960 . S
H2287 C2300 0.960 . S
C2288 H2280 0.929 . S
C2288 C2289 1.377 . S
C2288 C2290 1.384 . S
C2289 C2288 1.377 . S
C2289 C2295 1.390 . S
C2290 H2281 0.930 . S
C2290 C2288 1.384 . S
C2290 C2291 1.372 . S
C2291 C2290 1.372 . S
C2291 C2292 1.400 . S
C2291 C2296 1.490 . S
C2292 H2282 0.930 . S
C2292 C2291 1.400 . S
C2292 C2295 1.386 . S
H2293 C2309 0.930 . S
H2294 C2310 0.931 . S
C2295 H2283 0.929 . S
C2295 C2289 1.390 . S
C2295 C2292 1.386 . S
C2296 C2291 1.490 . S
C2296 C2298 1.395 . S
C2296 C2299 1.403 . S
H2297 C2303 0.930 . S
C2298 H2284 0.930 . S
C2298 C2296 1.395 . S
C2298 C2301 1.403 . S
C2299 C2296 1.403 . S
C2299 C2300 1.524 . S
C2299 C2303 1.400 . S
C2300 H2285 0.960 . S
C2300 H2286 0.960 . S
C2300 H2287 0.960 . S
C2300 C2299 1.524 . S
C2301 C2298 1.403 . S
C2301 C2302 1.400 . S
C2301 C2305 1.507 . S
C2302 C2301 1.400 . S
C2302 C2303 1.393 . S
C2302 C2304 1.463 1_655 S
C2303 H2297 0.930 . S
C2303 C2299 1.400 . S
C2303 C2302 1.393 . S
C2304 C2302 1.463 1_455 S
C2304 C2306 1.381 . S
C2304 C2310 1.383 . S
C2305 C2301 1.507 . S
C2305 H2311 0.977 . S
C2305 H2312 0.946 1_655 S
C2305 H2313 0.946 1_655 S
C2306 C2304 1.381 . S
C2306 C2307 1.394 . S
C2306 H2314 0.930 . S
C2307 C2306 1.394 . S
C2307 C2308 1.383 . S
C2307 H2315 0.929 . S
C2308 C2307 1.383 . S
C2308 C2309 1.377 . S
C2309 H2293 0.930 . S
C2309 C2308 1.377 . S
C2309 C2310 1.379 . S
C2310 H2294 0.931 . S
C2310 C2304 1.383 . S
C2310 C2309 1.379 . S
H2311 C2305 0.977 . S
H2312 C2305 0.946 1_455 S
H2313 C2305 0.946 1_455 S
H2314 C2306 0.930 . S
H2315 C2307 0.929 . S
H2316 C2324 0.929 . S
H2317 C2326 0.930 . S
H2318 C2328 0.930 . S
H2319 C2331 0.929 . S
H2320 C2334 0.930 . S
H2321 C2336 0.960 . S
H2322 C2336 0.960 . S
H2323 C2336 0.960 . S
C2324 H2316 0.929 . S
C2324 C2325 1.377 . S
C2324 C2326 1.384 . S
C2325 C2324 1.377 . S
C2325 C2331 1.390 . S
C2326 H2317 0.930 . S
C2326 C2324 1.384 . S
C2326 C2327 1.372 . S
C2327 C2326 1.372 . S
C2327 C2328 1.400 . S
C2327 C2332 1.490 . S
C2328 H2318 0.930 . S
C2328 C2327 1.400 . S
C2328 C2331 1.386 . S
H2329 C2345 0.930 . S
H2330 C2346 0.931 . S
C2331 H2319 0.929 . S
C2331 C2325 1.390 . S
C2331 C2328 1.386 . S
C2332 C2327 1.490 . S
C2332 C2334 1.395 . S
C2332 C2335 1.403 . S
H2333 C2339 0.930 . S
C2334 H2320 0.930 . S
C2334 C2332 1.395 . S
C2334 C2337 1.403 . S
C2335 C2332 1.403 . S
C2335 C2336 1.524 . S
C2335 C2339 1.400 . S
C2336 H2321 0.960 . S
C2336 H2322 0.960 . S
C2336 H2323 0.960 . S
C2336 C2335 1.524 . S
C2337 C2334 1.403 . S
C2337 C2338 1.392 . S
C2337 C2341 1.495 . S
C2338 C2337 1.392 . S
C2338 C2339 1.385 . S
C2338 C2340 1.478 1_455 S
C2339 H2333 0.930 . S
C2339 C2335 1.400 . S
C2339 C2338 1.385 . S
C2340 C2338 1.478 1_655 S
C2340 C2342 1.381 . S
C2340 C2346 1.383 . S
C2341 C2337 1.495 . S
C2341 H2347 0.959 . S
C2341 H2348 0.980 . S
C2341 H2349 0.964 . S
C2342 C2340 1.381 . S
C2342 C2343 1.394 . S
C2342 H2350 0.930 . S
C2343 C2342 1.394 . S
C2343 C2344 1.383 . S
C2343 H2351 0.929 . S
C2344 C2343 1.383 . S
C2344 C2345 1.377 . S
C2345 H2329 0.930 . S
C2345 C2344 1.377 . S
C2345 C2346 1.379 . S
C2346 H2330 0.931 . S
C2346 C2340 1.383 . S
C2346 C2345 1.379 . S
H2347 C2341 0.959 . S
H2348 C2341 0.980 . S
H2349 C2341 0.964 . S
H2350 C2342 0.930 . S
H2351 C2343 0.929 . S
H2352 C2360 0.929 . S
H2353 C2362 0.930 . S
H2354 C2364 0.930 . S
H2355 C2367 0.929 . S
H2356 C2370 0.930 . S
H2357 C2372 0.960 . S
H2358 C2372 0.960 . S
H2359 C2372 0.960 . S
C2360 H2352 0.929 . S
C2360 C2361 1.377 . S
C2360 C2362 1.384 . S
C2361 C2360 1.377 . S
C2361 C2367 1.390 . S
C2362 H2353 0.930 . S
C2362 C2360 1.384 . S
C2362 C2363 1.372 . S
C2363 C2362 1.372 . S
C2363 C2364 1.400 . S
C2363 C2368 1.490 . S
C2364 H2354 0.930 . S
C2364 C2363 1.400 . S
C2364 C2367 1.386 . S
H2365 C2381 0.930 . S
H2366 C2382 0.931 . S
C2367 H2355 0.929 . S
C2367 C2361 1.390 . S
C2367 C2364 1.386 . S
C2368 C2363 1.490 . S
C2368 C2370 1.395 . S
C2368 C2371 1.403 . S
H2369 C2375 0.930 . S
C2370 H2356 0.930 . S
C2370 C2368 1.395 . S
C2370 C2373 1.403 1_655 S
C2371 C2368 1.403 . S
C2371 C2372 1.524 . S
C2371 C2375 1.400 1_655 S
C2372 H2357 0.960 . S
C2372 H2358 0.960 . S
C2372 H2359 0.960 . S
C2372 C2371 1.524 . S
C2373 C2370 1.403 1_455 S
C2373 C2374 1.392 . S
C2373 C2377 1.495 . S
C2374 C2373 1.392 . S
C2374 C2375 1.385 . S
C2374 C2376 1.478 . S
C2375 H2369 0.930 . S
C2375 C2371 1.400 1_455 S
C2375 C2374 1.385 . S
C2376 C2374 1.478 . S
C2376 C2378 1.381 . S
C2376 C2382 1.383 . S
C2377 C2373 1.495 . S
C2377 H2383 0.959 . S
C2377 H2384 0.961 . S
C2377 H2385 0.960 . S
C2378 C2376 1.381 . S
C2378 C2379 1.394 . S
C2378 H2386 0.930 . S
C2379 C2378 1.394 . S
C2379 C2380 1.383 . S
C2379 H2387 0.929 . S
C2380 C2379 1.383 . S
C2380 C2381 1.377 . S
C2381 H2365 0.930 . S
C2381 C2380 1.377 . S
C2381 C2382 1.379 . S
C2382 H2366 0.931 . S
C2382 C2376 1.383 . S
C2382 C2381 1.379 . S
H2383 C2377 0.959 . S
H2384 C2377 0.961 . S
H2385 C2377 0.960 . S
H2386 C2378 0.930 . S
H2387 C2379 0.929 . S
H2388 C2396 0.929 . S
H2389 C2398 0.930 . S
H2390 C2400 0.930 . S
H2391 C2403 0.929 . S
H2392 C2406 0.930 . S
H2393 C2408 0.960 . S
H2394 C2408 0.960 . S
H2395 C2408 0.960 . S
C2396 H2388 0.929 . S
C2396 C2397 1.377 . S
C2396 C2398 1.384 . S
C2397 C2396 1.377 . S
C2397 C2403 1.390 . S
C2398 H2389 0.930 . S
C2398 C2396 1.384 . S
C2398 C2399 1.372 . S
C2399 C2398 1.372 . S
C2399 C2400 1.400 . S
C2399 C2404 1.490 . S
C2400 H2390 0.930 . S
C2400 C2399 1.400 . S
C2400 C2403 1.386 . S
H2401 C2417 0.930 . S
H2402 C2418 0.931 . S
C2403 H2391 0.929 . S
C2403 C2397 1.390 . S
C2403 C2400 1.386 . S
C2404 C2399 1.490 . S
C2404 C2406 1.395 . S
C2404 C2407 1.403 . S
H2405 C2411 0.930 . S
C2406 H2392 0.930 . S
C2406 C2404 1.395 . S
C2406 C2409 1.403 . S
C2407 C2404 1.403 . S
C2407 C2408 1.524 . S
C2407 C2411 1.400 . S
C2408 H2393 0.960 . S
C2408 H2394 0.960 . S
C2408 H2395 0.960 . S
C2408 C2407 1.524 . S
C2409 C2406 1.403 . S
C2409 C2410 1.392 . S
C2409 C2413 1.495 . S
C2410 C2409 1.392 . S
C2410 C2411 1.385 . S
C2410 C2412 1.478 . S
C2411 H2405 0.930 . S
C2411 C2407 1.400 . S
C2411 C2410 1.385 . S
C2412 C2410 1.478 . S
C2412 C2414 1.381 . S
C2412 C2418 1.383 . S
C2413 C2409 1.495 . S
C2413 H2419 0.959 . S
C2413 H2420 0.961 . S
C2413 H2421 0.960 . S
C2414 C2412 1.381 . S
C2414 C2415 1.394 . S
C2414 H2422 0.930 . S
C2415 C2414 1.394 . S
C2415 C2416 1.383 . S
C2415 H2423 0.929 . S
C2416 C2415 1.383 . S
C2416 C2417 1.377 . S
C2417 H2401 0.930 . S
C2417 C2416 1.377 . S
C2417 C2418 1.379 . S
C2418 H2402 0.931 . S
C2418 C2412 1.383 . S
C2418 C2417 1.379 . S
H2419 C2413 0.959 . S
H2420 C2413 0.961 . S
H2421 C2413 0.960 . S
H2422 C2414 0.930 . S
H2423 C2415 0.929 . S
H2424 C2432 0.929 . S
H2425 C2434 0.930 . S
H2426 C2436 0.930 . S
H2427 C2439 0.929 . S
H2428 C2442 0.930 . S
H2429 C2444 0.960 . S
H2430 C2444 0.960 . S
H2431 C2444 0.960 . S
C2432 H2424 0.929 . S
C2432 C2433 1.377 . S
C2432 C2434 1.384 . S
C2433 C2432 1.377 . S
C2433 C2439 1.390 . S
C2434 H2425 0.930 . S
C2434 C2432 1.384 . S
C2434 C2435 1.372 . S
C2435 C2434 1.372 . S
C2435 C2436 1.400 . S
C2435 C2440 1.490 . S
C2436 H2426 0.930 . S
C2436 C2435 1.400 . S
C2436 C2439 1.386 . S
H2437 C2453 0.930 . S
H2438 C2454 0.931 . S
C2439 H2427 0.929 . S
C2439 C2433 1.390 . S
C2439 C2436 1.386 . S
C2440 C2435 1.490 . S
C2440 C2442 1.395 . S
C2440 C2443 1.403 . S
H2441 C2447 0.930 . S
C2442 H2428 0.930 . S
C2442 C2440 1.395 . S
C2442 C2445 1.403 1_455 S
C2443 C2440 1.403 . S
C2443 C2444 1.524 . S
C2443 C2447 1.400 1_455 S
C2444 H2429 0.960 . S
C2444 H2430 0.960 . S
C2444 H2431 0.960 . S
C2444 C2443 1.524 . S
C2445 C2442 1.403 1_655 S
C2445 C2446 1.392 . S
C2445 C2449 1.495 . S
C2446 C2445 1.392 . S
C2446 C2447 1.385 . S
C2446 C2448 1.478 . S
C2447 H2441 0.930 . S
C2447 C2443 1.400 1_655 S
C2447 C2446 1.385 . S
C2448 C2446 1.478 . S
C2448 C2450 1.381 . S
C2448 C2454 1.383 . S
C2449 C2445 1.495 . S
C2449 H2455 0.959 . S
C2449 H2456 0.961 . S
C2449 H2457 0.960 . S
C2450 C2448 1.381 . S
C2450 C2451 1.394 . S
C2450 H2458 0.930 . S
C2451 C2450 1.394 . S
C2451 C2452 1.383 . S
C2451 H2459 0.929 . S
C2452 C2451 1.383 . S
C2452 C2453 1.377 . S
C2453 H2437 0.930 . S
C2453 C2452 1.377 . S
C2453 C2454 1.379 . S
C2454 H2438 0.931 . S
C2454 C2448 1.383 . S
C2454 C2453 1.379 . S
H2455 C2449 0.959 . S
H2456 C2449 0.961 . S
H2457 C2449 0.960 . S
H2458 C2450 0.930 . S
H2459 C2451 0.929 . S
H2460 C2468 0.929 . S
H2461 C2470 0.930 . S
H2462 C2472 0.930 . S
H2463 C2475 0.929 . S
H2464 C2478 0.930 . S
H2465 C2480 0.960 . S
H2466 C2480 0.960 . S
H2467 C2480 0.960 . S
C2468 H2460 0.929 . S
C2468 C2469 1.377 . S
C2468 C2470 1.384 . S
C2469 C2468 1.377 . S
C2469 C2475 1.390 . S
C2470 H2461 0.930 . S
C2470 C2468 1.384 . S
C2470 C2471 1.372 . S
C2471 C2470 1.372 . S
C2471 C2472 1.400 . S
C2471 C2476 1.490 . S
C2472 H2462 0.930 . S
C2472 C2471 1.400 . S
C2472 C2475 1.386 . S
H2473 C2489 0.930 . S
H2474 C2490 0.931 . S
C2475 H2463 0.929 . S
C2475 C2469 1.390 . S
C2475 C2472 1.386 . S
C2476 C2471 1.490 . S
C2476 C2478 1.395 . S
C2476 C2479 1.403 . S
H2477 C2483 0.930 . S
C2478 H2464 0.930 . S
C2478 C2476 1.395 . S
C2478 C2481 1.403 . S
C2479 C2476 1.403 . S
C2479 C2480 1.524 . S
C2479 C2483 1.400 . S
C2480 H2465 0.960 . S
C2480 H2466 0.960 . S
C2480 H2467 0.960 . S
C2480 C2479 1.524 . S
C2481 C2478 1.403 . S
C2481 C2482 1.392 . S
C2481 C2485 1.495 . S
C2482 C2481 1.392 . S
C2482 C2483 1.385 . S
C2482 C2484 1.478 . S
C2483 H2477 0.930 . S
C2483 C2479 1.400 . S
C2483 C2482 1.385 . S
C2484 C2482 1.478 . S
C2484 C2486 1.381 . S
C2484 C2490 1.383 . S
C2485 C2481 1.495 . S
C2485 H2491 0.959 . S
C2485 H2492 0.961 . S
C2485 H2493 0.960 . S
C2486 C2484 1.381 . S
C2486 C2487 1.394 . S
C2486 H2494 0.930 . S
C2487 C2486 1.394 . S
C2487 C2488 1.383 . S
C2487 H2495 0.929 . S
C2488 C2487 1.383 . S
C2488 C2489 1.377 . S
C2489 H2473 0.930 . S
C2489 C2488 1.377 . S
C2489 C2490 1.379 . S
C2490 H2474 0.931 . S
C2490 C2484 1.383 . S
C2490 C2489 1.379 . S
H2491 C2485 0.959 . S
H2492 C2485 0.961 . S
H2493 C2485 0.960 . S
H2494 C2486 0.930 . S
H2495 C2487 0.929 . S
H2496 C2504 0.929 . S
H2497 C2506 0.930 . S
H2498 C2508 0.930 . S
H2499 C2511 0.929 . S
H2500 C2514 0.930 . S
H2501 C2516 0.960 . S
H2502 C2516 0.960 . S
H2503 C2516 0.960 . S
C2504 H2496 0.929 . S
C2504 C2505 1.377 . S
C2504 C2506 1.384 . S
C2505 C2504 1.377 . S
C2505 C2511 1.390 . S
C2506 H2497 0.930 . S
C2506 C2504 1.384 . S
C2506 C2507 1.372 . S
C2507 C2506 1.372 . S
C2507 C2508 1.400 . S
C2507 C2512 1.490 . S
C2508 H2498 0.930 . S
C2508 C2507 1.400 . S
C2508 C2511 1.386 . S
H2509 C2525 0.930 . S
H2510 C2526 0.931 . S
C2511 H2499 0.929 . S
C2511 C2505 1.390 . S
C2511 C2508 1.386 . S
C2512 C2507 1.490 . S
C2512 C2514 1.395 . S
C2512 C2515 1.403 . S
H2513 C2519 0.930 . S
C2514 H2500 0.930 . S
C2514 C2512 1.395 . S
C2514 C2517 1.403 1_655 S
C2515 C2512 1.403 . S
C2515 C2516 1.524 . S
C2515 C2519 1.400 1_655 S
C2516 H2501 0.960 . S
C2516 H2502 0.960 . S
C2516 H2503 0.960 . S
C2516 C2515 1.524 . S
C2517 C2514 1.403 1_455 S
C2517 C2518 1.392 . S
C2517 C2521 1.495 . S
C2518 C2517 1.392 . S
C2518 C2519 1.385 . S
C2518 C2520 1.478 . S
C2519 H2513 0.930 . S
C2519 C2515 1.400 1_455 S
C2519 C2518 1.385 . S
C2520 C2518 1.478 . S
C2520 C2522 1.381 . S
C2520 C2526 1.383 . S
C2521 C2517 1.495 . S
C2521 H2527 0.959 . S
C2521 H2528 0.961 . S
C2521 H2529 0.960 . S
C2522 C2520 1.381 . S
C2522 C2523 1.394 . S
C2522 H2530 0.930 . S
C2523 C2522 1.394 . S
C2523 C2524 1.383 . S
C2523 H2531 0.929 . S
C2524 C2523 1.383 . S
C2524 C2525 1.377 . S
C2525 H2509 0.930 . S
C2525 C2524 1.377 . S
C2525 C2526 1.379 . S
C2526 H2510 0.931 . S
C2526 C2520 1.383 . S
C2526 C2525 1.379 . S
H2527 C2521 0.959 . S
H2528 C2521 0.961 . S
H2529 C2521 0.960 . S
H2530 C2522 0.930 . S
H2531 C2523 0.929 . S
H2532 C2540 0.929 . S
H2533 C2542 0.930 . S
H2534 C2544 0.930 . S
H2535 C2547 0.929 . S
H2536 C2550 0.930 . S
H2537 C2552 0.960 . S
H2538 C2552 0.960 . S
H2539 C2552 0.960 . S
C2540 H2532 0.929 . S
C2540 C2541 1.377 . S
C2540 C2542 1.384 . S
C2541 C2540 1.377 . S
C2541 C2547 1.390 . S
C2542 H2533 0.930 . S
C2542 C2540 1.384 . S
C2542 C2543 1.372 . S
C2543 C2542 1.372 . S
C2543 C2544 1.400 . S
C2543 C2548 1.490 . S
C2544 H2534 0.930 . S
C2544 C2543 1.400 . S
C2544 C2547 1.386 . S
H2545 C2561 0.930 . S
H2546 C2562 0.931 . S
C2547 H2535 0.929 . S
C2547 C2541 1.390 . S
C2547 C2544 1.386 . S
C2548 C2543 1.490 . S
C2548 C2550 1.395 . S
C2548 C2551 1.403 . S
H2549 C2555 0.930 . S
C2550 H2536 0.930 . S
C2550 C2548 1.395 . S
C2550 C2553 1.403 . S
C2551 C2548 1.403 . S
C2551 C2552 1.524 . S
C2551 C2555 1.400 . S
C2552 H2537 0.960 . S
C2552 H2538 0.960 . S
C2552 H2539 0.960 . S
C2552 C2551 1.524 . S
C2553 C2550 1.403 . S
C2553 C2554 1.392 . S
C2553 C2557 1.495 . S
C2554 C2553 1.392 . S
C2554 C2555 1.385 . S
C2554 C2556 1.478 . S
C2555 H2549 0.930 . S
C2555 C2551 1.400 . S
C2555 C2554 1.385 . S
C2556 C2554 1.478 . S
C2556 C2558 1.381 . S
C2556 C2562 1.383 . S
C2557 C2553 1.495 . S
C2557 H2563 0.959 . S
C2557 H2564 0.961 . S
C2557 H2565 0.960 . S
C2558 C2556 1.381 . S
C2558 C2559 1.394 . S
C2558 H2566 0.930 . S
C2559 C2558 1.394 . S
C2559 C2560 1.383 . S
C2559 H2567 0.929 . S
C2560 C2559 1.383 . S
C2560 C2561 1.377 . S
C2561 H2545 0.930 . S
C2561 C2560 1.377 . S
C2561 C2562 1.379 . S
C2562 H2546 0.931 . S
C2562 C2556 1.383 . S
C2562 C2561 1.379 . S
H2563 C2557 0.959 . S
H2564 C2557 0.961 . S
H2565 C2557 0.960 . S
H2566 C2558 0.930 . S
H2567 C2559 0.929 . S
H2568 C2576 0.929 . S
H2569 C2578 0.930 . S
H2570 C2580 0.930 . S
H2571 C2583 0.929 . S
H2572 C2586 0.930 . S
H2573 C2588 0.960 . S
H2574 C2588 0.960 . S
H2575 C2588 0.960 . S
C2576 H2568 0.929 . S
C2576 C2577 1.377 . S
C2576 C2578 1.384 . S
C2577 C2576 1.377 . S
C2577 C2583 1.390 . S
C2578 H2569 0.930 . S
C2578 C2576 1.384 . S
C2578 C2579 1.372 . S
C2579 C2578 1.372 . S
C2579 C2580 1.400 . S
C2579 C2584 1.490 . S
C2580 H2570 0.930 . S
C2580 C2579 1.400 . S
C2580 C2583 1.386 . S
H2581 C2597 0.930 . S
H2582 C2598 0.931 . S
C2583 H2571 0.929 . S
C2583 C2577 1.390 . S
C2583 C2580 1.386 . S
C2584 C2579 1.490 . S
C2584 C2586 1.395 . S
C2584 C2587 1.403 . S
H2585 C2591 0.930 . S
C2586 H2572 0.930 . S
C2586 C2584 1.395 . S
C2586 C2589 1.403 1_655 S
C2587 C2584 1.403 . S
C2587 C2588 1.524 . S
C2587 C2591 1.400 1_655 S
C2588 H2573 0.960 . S
C2588 H2574 0.960 . S
C2588 H2575 0.960 . S
C2588 C2587 1.524 . S
C2589 C2586 1.403 1_455 S
C2589 C2590 1.392 . S
C2589 C2593 1.495 . S
C2590 C2589 1.392 . S
C2590 C2591 1.385 . S
C2590 C2592 1.478 . S
C2591 H2585 0.930 . S
C2591 C2587 1.400 1_455 S
C2591 C2590 1.385 . S
C2592 C2590 1.478 . S
C2592 C2594 1.381 . S
C2592 C2598 1.383 . S
C2593 C2589 1.495 . S
C2593 H2599 0.963 . S
C2593 H2600 0.961 . S
C2593 H2601 0.960 . S
C2594 C2592 1.381 . S
C2594 C2595 1.394 . S
C2594 H2602 0.930 . S
C2595 C2594 1.394 . S
C2595 C2596 1.383 . S
C2595 H2603 0.929 . S
C2596 C2595 1.383 . S
C2596 C2597 1.377 . S
C2597 H2581 0.930 . S
C2597 C2596 1.377 . S
C2597 C2598 1.379 . S
C2598 H2582 0.931 . S
C2598 C2592 1.383 . S
C2598 C2597 1.379 . S
H2599 C2593 0.963 . S
H2600 C2593 0.961 . S
H2601 C2593 0.960 . S
H2602 C2594 0.930 . S
H2603 C2595 0.929 . S
H2604 C2612 0.929 . S
H2605 C2614 0.930 . S
H2606 C2616 0.930 . S
H2607 C2619 0.929 . S
H2608 C2622 0.930 . S
H2609 C2624 0.960 . S
H2610 C2624 0.960 . S
H2611 C2624 0.960 . S
C2612 H2604 0.929 . S
C2612 C2613 1.377 . S
C2612 C2614 1.384 . S
C2613 C2612 1.377 . S
C2613 C2619 1.390 . S
C2614 H2605 0.930 . S
C2614 C2612 1.384 . S
C2614 C2615 1.372 . S
C2615 C2614 1.372 . S
C2615 C2616 1.400 . S
C2615 C2620 1.490 . S
C2616 H2606 0.930 . S
C2616 C2615 1.400 . S
C2616 C2619 1.386 . S
H2617 C2633 0.930 . S
H2618 C2634 0.931 . S
C2619 H2607 0.929 . S
C2619 C2613 1.390 . S
C2619 C2616 1.386 . S
C2620 C2615 1.490 . S
C2620 C2622 1.395 . S
C2620 C2623 1.403 . S
H2621 C2627 0.930 . S
C2622 H2608 0.930 . S
C2622 C2620 1.395 . S
C2622 C2625 1.403 . S
C2623 C2620 1.403 . S
C2623 C2624 1.524 . S
C2623 C2627 1.400 . S
C2624 H2609 0.960 . S
C2624 H2610 0.960 . S
C2624 H2611 0.960 . S
C2624 C2623 1.524 . S
C2625 C2622 1.403 . S
C2625 C2626 1.392 . S
C2625 C2629 1.495 . S
C2626 C2625 1.392 . S
C2626 C2627 1.385 . S
C2626 C2628 1.478 . S
C2627 H2621 0.930 . S
C2627 C2623 1.400 . S
C2627 C2626 1.385 . S
C2628 C2626 1.478 . S
C2628 C2630 1.381 . S
C2628 C2634 1.383 . S
C2629 C2625 1.495 . S
C2629 H2635 0.959 . S
C2629 H2636 0.961 . S
C2629 H2637 0.960 . S
C2630 C2628 1.381 . S
C2630 C2631 1.394 . S
C2630 H2638 0.930 . S
C2631 C2630 1.394 . S
C2631 C2632 1.383 . S
C2631 H2639 0.929 . S
C2632 C2631 1.383 . S
C2632 C2633 1.377 . S
C2633 H2617 0.930 . S
C2633 C2632 1.377 . S
C2633 C2634 1.379 . S
C2634 H2618 0.931 . S
C2634 C2628 1.383 . S
C2634 C2633 1.379 . S
H2635 C2629 0.959 . S
H2636 C2629 0.961 . S
H2637 C2629 0.960 . S
H2638 C2630 0.930 . S
H2639 C2631 0.929 . S
H2640 C2648 0.929 . S
H2641 C2650 0.930 . S
H2642 C2652 0.930 . S
H2643 C2655 0.929 . S
H2644 C2658 0.930 . S
H2645 C2660 0.960 . S
H2646 C2660 0.960 . S
H2647 C2660 0.960 . S
C2648 H2640 0.929 . S
C2648 C2649 1.377 . S
C2648 C2650 1.384 . S
C2649 C2648 1.377 . S
C2649 C2655 1.390 . S
C2650 H2641 0.930 . S
C2650 C2648 1.384 . S
C2650 C2651 1.372 . S
C2651 C2650 1.372 . S
C2651 C2652 1.400 . S
C2651 C2656 1.490 . S
C2652 H2642 0.930 . S
C2652 C2651 1.400 . S
C2652 C2655 1.386 . S
H2653 C2669 0.930 . S
H2654 C2670 0.931 . S
C2655 H2643 0.929 . S
C2655 C2649 1.390 . S
C2655 C2652 1.386 . S
C2656 C2651 1.490 . S
C2656 C2658 1.395 . S
C2656 C2659 1.403 . S
H2657 C2663 0.930 . S
C2658 H2644 0.930 . S
C2658 C2656 1.395 . S
C2658 C2661 1.339 1_545 S
C2659 C2656 1.403 . S
C2659 C2660 1.524 . S
C2659 C2663 1.400 1_545 S
C2660 H2645 0.960 . S
C2660 H2646 0.960 . S
C2660 H2647 0.960 . S
C2660 C2659 1.524 . S
C2661 C2658 1.339 1_565 S
C2661 C2662 1.431 . S
C2661 C2665 1.521 . S
C2662 C2661 1.431 . S
C2662 C2663 1.385 . S
C2662 C2664 1.478 . S
C2663 H2657 0.930 . S
C2663 C2659 1.400 1_565 S
C2663 C2662 1.385 . S
C2664 C2662 1.478 . S
C2664 C2666 1.381 . S
C2664 C2670 1.383 . S
C2665 C2661 1.521 . S
C2665 H2671 0.925 1_565 S
C2665 H2672 0.961 . S
C2665 H2673 0.960 . S
C2666 C2664 1.381 . S
C2666 C2667 1.394 . S
C2666 H2674 0.930 . S
C2667 C2666 1.394 . S
C2667 C2668 1.383 . S
C2667 H2675 0.929 . S
C2668 C2667 1.383 . S
C2668 C2669 1.377 . S
C2669 H2653 0.930 . S
C2669 C2668 1.377 . S
C2669 C2670 1.379 . S
C2670 H2654 0.931 . S
C2670 C2664 1.383 . S
C2670 C2669 1.379 . S
H2671 C2665 0.925 1_545 S
H2672 C2665 0.961 . S
H2673 C2665 0.960 . S
H2674 C2666 0.930 . S
H2675 C2667 0.929 . S
H2676 C2684 0.929 . S
H2677 C2686 0.930 . S
H2678 C2688 0.930 . S
H2679 C2691 0.929 . S
H2680 C2694 0.930 . S
H2681 C2696 0.960 . S
H2682 C2696 0.960 . S
H2683 C2696 0.960 . S
C2684 H2676 0.929 . S
C2684 C2685 1.377 . S
C2684 C2686 1.384 . S
C2685 C2684 1.377 . S
C2685 C2691 1.390 . S
C2686 H2677 0.930 . S
C2686 C2684 1.384 . S
C2686 C2687 1.372 . S
C2687 C2686 1.372 . S
C2687 C2688 1.400 . S
C2687 C2692 1.490 . S
C2688 H2678 0.930 . S
C2688 C2687 1.400 . S
C2688 C2691 1.386 . S
H2689 C2705 0.930 . S
H2690 C2706 0.931 . S
C2691 H2679 0.929 . S
C2691 C2685 1.390 . S
C2691 C2688 1.386 . S
C2692 C2687 1.490 . S
C2692 C2694 1.395 . S
C2692 C2695 1.403 . S
H2693 C2699 0.930 . S
C2694 H2680 0.930 . S
C2694 C2692 1.395 . S
C2694 C2697 1.403 . S
C2695 C2692 1.403 . S
C2695 C2696 1.524 . S
C2695 C2699 1.400 . S
C2696 H2681 0.960 . S
C2696 H2682 0.960 . S
C2696 H2683 0.960 . S
C2696 C2695 1.524 . S
C2697 C2694 1.403 . S
C2697 C2698 1.392 . S
C2697 C2701 1.495 . S
C2698 C2697 1.392 . S
C2698 C2699 1.385 . S
C2698 C2700 1.478 . S
C2699 H2693 0.930 . S
C2699 C2695 1.400 . S
C2699 C2698 1.385 . S
C2700 C2698 1.478 . S
C2700 C2702 1.381 . S
C2700 C2706 1.383 . S
C2701 C2697 1.495 . S
C2701 H2707 0.959 . S
C2701 H2708 0.961 . S
C2701 H2709 0.960 . S
C2702 C2700 1.381 . S
C2702 C2703 1.394 . S
C2702 H2710 0.930 . S
C2703 C2702 1.394 . S
C2703 C2704 1.383 . S
C2703 H2711 0.929 . S
C2704 C2703 1.383 . S
C2704 C2705 1.377 . S
C2705 H2689 0.930 . S
C2705 C2704 1.377 . S
C2705 C2706 1.379 . S
C2706 H2690 0.931 . S
C2706 C2700 1.383 . S
C2706 C2705 1.379 . S
H2707 C2701 0.959 . S
H2708 C2701 0.961 . S
H2709 C2701 0.960 . S
H2710 C2702 0.930 . S
H2711 C2703 0.929 . S
H2712 C2720 0.929 . S
H2713 C2722 0.930 . S
H2714 C2724 0.930 . S
H2715 C2727 0.929 . S
H2716 C2730 0.930 . S
H2717 C2732 0.960 . S
H2718 C2732 0.960 . S
H2719 C2732 0.960 . S
C2720 H2712 0.929 . S
C2720 C2721 1.377 . S
C2720 C2722 1.384 . S
C2721 C2720 1.377 . S
C2721 C2727 1.390 . S
C2722 H2713 0.930 . S
C2722 C2720 1.384 . S
C2722 C2723 1.372 . S
C2723 C2722 1.372 . S
C2723 C2724 1.400 . S
C2723 C2728 1.490 . S
C2724 H2714 0.930 . S
C2724 C2723 1.400 . S
C2724 C2727 1.386 . S
H2725 C2741 0.930 . S
H2726 C2742 0.931 . S
C2727 H2715 0.929 . S
C2727 C2721 1.390 . S
C2727 C2724 1.386 . S
C2728 C2723 1.490 . S
C2728 C2730 1.395 . S
C2728 C2731 1.403 . S
H2729 C2735 0.930 . S
C2730 H2716 0.930 . S
C2730 C2728 1.395 . S
C2730 C2733 1.403 1_545 S
C2731 C2728 1.403 . S
C2731 C2732 1.524 . S
C2731 C2735 1.400 1_545 S
C2732 H2717 0.960 . S
C2732 H2718 0.960 . S
C2732 H2719 0.960 . S
C2732 C2731 1.524 . S
C2733 C2730 1.403 1_565 S
C2733 C2734 1.392 . S
C2733 C2737 1.495 . S
C2734 C2733 1.392 . S
C2734 C2735 1.385 . S
C2734 C2736 1.478 . S
C2735 H2729 0.930 . S
C2735 C2731 1.400 1_565 S
C2735 C2734 1.385 . S
C2736 C2734 1.478 . S
C2736 C2738 1.381 . S
C2736 C2742 1.383 . S
C2737 C2733 1.495 . S
C2737 H2743 0.959 . S
C2737 H2744 0.961 . S
C2737 H2745 0.960 . S
C2738 C2736 1.381 . S
C2738 C2739 1.394 . S
C2738 H2746 0.930 . S
C2739 C2738 1.394 . S
C2739 C2740 1.383 . S
C2739 H2747 0.929 . S
C2740 C2739 1.383 . S
C2740 C2741 1.377 . S
C2741 H2725 0.930 . S
C2741 C2740 1.377 . S
C2741 C2742 1.379 . S
C2742 H2726 0.931 . S
C2742 C2736 1.383 . S
C2742 C2741 1.379 . S
H2743 C2737 0.959 . S
H2744 C2737 0.961 . S
H2745 C2737 0.960 . S
H2746 C2738 0.930 . S
H2747 C2739 0.929 . S
H2748 C2756 0.929 . S
H2749 C2758 0.930 . S
H2750 C2760 0.930 . S
H2751 C2763 0.929 . S
H2752 C2766 0.930 . S
H2753 C2768 0.960 . S
H2754 C2768 0.960 . S
H2755 C2768 0.960 . S
C2756 H2748 0.929 . S
C2756 C2757 1.377 . S
C2756 C2758 1.384 . S
C2757 C2756 1.377 . S
C2757 C2763 1.390 . S
C2758 H2749 0.930 . S
C2758 C2756 1.384 . S
C2758 C2759 1.372 . S
C2759 C2758 1.372 . S
C2759 C2760 1.400 . S
C2759 C2764 1.490 . S
C2760 H2750 0.930 . S
C2760 C2759 1.400 . S
C2760 C2763 1.386 . S
H2761 C2777 0.930 . S
H2762 C2778 0.931 . S
C2763 H2751 0.929 . S
C2763 C2757 1.390 . S
C2763 C2760 1.386 . S
C2764 C2759 1.490 . S
C2764 C2766 1.395 . S
C2764 C2767 1.403 . S
H2765 C2771 0.930 . S
C2766 H2752 0.930 . S
C2766 C2764 1.395 . S
C2766 C2769 1.403 . S
C2767 C2764 1.403 . S
C2767 C2768 1.524 . S
C2767 C2771 1.400 . S
C2768 H2753 0.960 . S
C2768 H2754 0.960 . S
C2768 H2755 0.960 . S
C2768 C2767 1.524 . S
C2769 C2766 1.403 . S
C2769 C2770 1.392 . S
C2769 C2773 1.495 . S
C2770 C2769 1.392 . S
C2770 C2771 1.385 . S
C2770 C2772 1.478 . S
C2771 H2765 0.930 . S
C2771 C2767 1.400 . S
C2771 C2770 1.385 . S
C2772 C2770 1.478 . S
C2772 C2774 1.381 . S
C2772 C2778 1.383 . S
C2773 C2769 1.495 . S
C2773 H2779 0.959 . S
C2773 H2780 0.961 . S
C2773 H2781 0.960 . S
C2774 C2772 1.381 . S
C2774 C2775 1.394 . S
C2774 H2782 0.930 . S
C2775 C2774 1.394 . S
C2775 C2776 1.383 . S
C2775 H2783 0.929 . S
C2776 C2775 1.383 . S
C2776 C2777 1.377 . S
C2777 H2761 0.930 . S
C2777 C2776 1.377 . S
C2777 C2778 1.379 . S
C2778 H2762 0.931 . S
C2778 C2772 1.383 . S
C2778 C2777 1.379 . S
H2779 C2773 0.959 . S
H2780 C2773 0.961 . S
H2781 C2773 0.960 . S
H2782 C2774 0.930 . S
H2783 C2775 0.929 . S
H2784 C2792 0.929 . S
H2785 C2794 0.930 . S
H2786 C2796 0.930 . S
H2787 C2799 0.929 . S
H2788 C2802 0.930 . S
H2789 C2804 0.960 . S
H2790 C2804 0.960 . S
H2791 C2804 0.960 . S
C2792 H2784 0.929 . S
C2792 C2793 1.377 . S
C2792 C2794 1.384 . S
C2793 C2792 1.377 . S
C2793 C2799 1.390 . S
C2794 H2785 0.930 . S
C2794 C2792 1.384 . S
C2794 C2795 1.372 . S
C2795 C2794 1.372 . S
C2795 C2796 1.400 . S
C2795 C2800 1.490 . S
C2796 H2786 0.930 . S
C2796 C2795 1.400 . S
C2796 C2799 1.386 . S
H2797 C2813 0.930 . S
H2798 C2814 0.931 . S
C2799 H2787 0.929 . S
C2799 C2793 1.390 . S
C2799 C2796 1.386 . S
C2800 C2795 1.490 . S
C2800 C2802 1.395 . S
C2800 C2803 1.403 . S
H2801 C2807 0.930 . S
C2802 H2788 0.930 . S
C2802 C2800 1.395 . S
C2802 C2805 1.403 1_545 S
C2803 C2800 1.403 . S
C2803 C2804 1.524 . S
C2803 C2807 1.400 1_545 S
C2804 H2789 0.960 . S
C2804 H2790 0.960 . S
C2804 H2791 0.960 . S
C2804 C2803 1.524 . S
C2805 C2802 1.403 1_565 S
C2805 C2806 1.392 . S
C2805 C2809 1.495 . S
C2806 C2805 1.392 . S
C2806 C2807 1.385 . S
C2806 C2808 1.478 . S
C2807 H2801 0.930 . S
C2807 C2803 1.400 1_565 S
C2807 C2806 1.385 . S
C2808 C2806 1.478 . S
C2808 C2810 1.381 . S
C2808 C2814 1.383 . S
C2809 C2805 1.495 . S
C2809 H2815 0.959 . S
C2809 H2816 0.961 . S
C2809 H2817 0.960 . S
C2810 C2808 1.381 . S
C2810 C2811 1.394 . S
C2810 H2818 0.930 . S
C2811 C2810 1.394 . S
C2811 C2812 1.383 . S
C2811 H2819 0.929 . S
C2812 C2811 1.383 . S
C2812 C2813 1.377 . S
C2813 H2797 0.930 . S
C2813 C2812 1.377 . S
C2813 C2814 1.379 . S
C2814 H2798 0.931 . S
C2814 C2808 1.383 . S
C2814 C2813 1.379 . S
H2815 C2809 0.959 . S
H2816 C2809 0.961 . S
H2817 C2809 0.960 . S
H2818 C2810 0.930 . S
H2819 C2811 0.929 . S
H2820 C2828 0.929 . S
H2821 C2830 0.930 . S
H2822 C2832 0.930 . S
H2823 C2835 0.929 . S
H2824 C2838 0.930 . S
H2825 C2840 0.960 . S
H2826 C2840 0.960 . S
H2827 C2840 0.960 . S
C2828 H2820 0.929 . S
C2828 C2829 1.377 . S
C2828 C2830 1.384 . S
C2829 C2828 1.377 . S
C2829 C2835 1.390 . S
C2830 H2821 0.930 . S
C2830 C2828 1.384 . S
C2830 C2831 1.372 . S
C2831 C2830 1.372 . S
C2831 C2832 1.400 . S
C2831 C2836 1.490 . S
C2832 H2822 0.930 . S
C2832 C2831 1.400 . S
C2832 C2835 1.386 . S
H2833 C2849 0.930 . S
H2834 C2850 0.931 . S
C2835 H2823 0.929 . S
C2835 C2829 1.390 . S
C2835 C2832 1.386 . S
C2836 C2831 1.490 . S
C2836 C2838 1.395 . S
C2836 C2839 1.403 . S
H2837 C2843 0.930 . S
C2838 H2824 0.930 . S
C2838 C2836 1.395 . S
C2838 C2841 1.403 . S
C2839 C2836 1.403 . S
C2839 C2840 1.524 . S
C2839 C2843 1.400 . S
C2840 H2825 0.960 . S
C2840 H2826 0.960 . S
C2840 H2827 0.960 . S
C2840 C2839 1.524 . S
C2841 C2838 1.403 . S
C2841 C2842 1.392 . S
C2841 C2845 1.495 . S
C2842 C2841 1.392 . S
C2842 C2843 1.385 . S
C2842 C2844 1.478 . S
C2843 H2837 0.930 . S
C2843 C2839 1.400 . S
C2843 C2842 1.385 . S
C2844 C2842 1.478 . S
C2844 C2846 1.381 . S
C2844 C2850 1.383 . S
C2845 C2841 1.495 . S
C2845 H2851 0.959 . S
C2845 H2852 0.961 . S
C2845 H2853 0.960 . S
C2846 C2844 1.381 . S
C2846 C2847 1.394 . S
C2846 H2854 0.930 . S
C2847 C2846 1.394 . S
C2847 C2848 1.383 . S
C2847 H2855 0.929 . S
C2848 C2847 1.383 . S
C2848 C2849 1.377 . S
C2849 H2833 0.930 . S
C2849 C2848 1.377 . S
C2849 C2850 1.379 . S
C2850 H2834 0.931 . S
C2850 C2844 1.383 . S
C2850 C2849 1.379 . S
H2851 C2845 0.959 . S
H2852 C2845 0.961 . S
H2853 C2845 0.960 . S
H2854 C2846 0.930 . S
H2855 C2847 0.929 . S
H2856 C2864 0.929 . S
H2857 C2866 0.930 . S
H2858 C2868 0.930 . S
H2859 C2871 0.929 . S
H2860 C2874 0.930 . S
H2861 C2876 0.960 . S
H2862 C2876 0.960 . S
H2863 C2876 0.960 . S
C2864 H2856 0.929 . S
C2864 C2865 1.377 . S
C2864 C2866 1.384 . S
C2865 C2864 1.377 . S
C2865 C2871 1.390 . S
C2866 H2857 0.930 . S
C2866 C2864 1.384 . S
C2866 C2867 1.372 . S
C2867 C2866 1.372 . S
C2867 C2868 1.400 . S
C2867 C2872 1.490 . S
C2868 H2858 0.930 . S
C2868 C2867 1.400 . S
C2868 C2871 1.386 . S
H2869 C2885 0.930 . S
H2870 C2886 0.931 . S
C2871 H2859 0.929 . S
C2871 C2865 1.390 . S
C2871 C2868 1.386 . S
C2872 C2867 1.490 . S
C2872 C2874 1.395 . S
C2872 C2875 1.403 . S
H2873 C2879 0.930 . S
C2874 H2860 0.930 . S
C2874 C2872 1.395 . S
C2874 C2877 1.403 1_545 S
C2875 C2872 1.403 . S
C2875 C2876 1.524 . S
C2875 C2879 1.400 1_545 S
C2876 H2861 0.960 . S
C2876 H2862 0.960 . S
C2876 H2863 0.960 . S
C2876 C2875 1.524 . S
C2877 C2874 1.403 1_565 S
C2877 C2878 1.392 . S
C2877 C2881 1.495 . S
C2878 C2877 1.392 . S
C2878 C2879 1.385 . S
C2878 C2880 1.478 . S
C2879 H2873 0.930 . S
C2879 C2875 1.400 1_565 S
C2879 C2878 1.385 . S
C2880 C2878 1.478 . S
C2880 C2882 1.381 . S
C2880 C2886 1.383 . S
C2881 C2877 1.495 . S
C2881 H2887 0.959 . S
C2881 H2888 0.961 . S
C2881 H2889 0.960 . S
C2882 C2880 1.381 . S
C2882 C2883 1.394 . S
C2882 H2890 0.930 . S
C2883 C2882 1.394 . S
C2883 C2884 1.383 . S
C2883 H2891 0.929 . S
C2884 C2883 1.383 . S
C2884 C2885 1.377 . S
C2885 H2869 0.930 . S
C2885 C2884 1.377 . S
C2885 C2886 1.379 . S
C2886 H2870 0.931 . S
C2886 C2880 1.383 . S
C2886 C2885 1.379 . S
H2887 C2881 0.959 . S
H2888 C2881 0.961 . S
H2889 C2881 0.960 . S
H2890 C2882 0.930 . S
H2891 C2883 0.929 . S
H2892 C2900 0.929 . S
H2893 C2902 0.930 . S
H2894 C2904 0.930 . S
H2895 C2907 0.929 . S
H2896 C2910 0.930 . S
H2897 C2912 0.960 . S
H2898 C2912 0.960 . S
H2899 C2912 0.960 . S
C2900 H2892 0.929 . S
C2900 C2901 1.377 . S
C2900 C2902 1.384 . S
C2901 C2900 1.377 . S
C2901 C2907 1.390 . S
C2902 H2893 0.930 . S
C2902 C2900 1.384 . S
C2902 C2903 1.372 . S
C2903 C2902 1.372 . S
C2903 C2904 1.400 . S
C2903 C2908 1.490 . S
C2904 H2894 0.930 . S
C2904 C2903 1.400 . S
C2904 C2907 1.386 . S
H2905 C2921 0.930 . S
H2906 C2922 0.931 . S
C2907 H2895 0.929 . S
C2907 C2901 1.390 . S
C2907 C2904 1.386 . S
C2908 C2903 1.490 . S
C2908 C2910 1.395 . S
C2908 C2911 1.403 . S
H2909 C2915 0.930 . S
C2910 H2896 0.930 . S
C2910 C2908 1.395 . S
C2910 C2913 1.403 . S
C2911 C2908 1.403 . S
C2911 C2912 1.524 . S
C2911 C2915 1.400 . S
C2912 H2897 0.960 . S
C2912 H2898 0.960 . S
C2912 H2899 0.960 . S
C2912 C2911 1.524 . S
C2913 C2910 1.403 . S
C2913 C2914 1.392 . S
C2913 C2917 1.495 . S
C2914 C2913 1.392 . S
C2914 C2915 1.385 . S
C2914 C2916 1.478 . S
C2915 H2909 0.930 . S
C2915 C2911 1.400 . S
C2915 C2914 1.385 . S
C2916 C2914 1.478 . S
C2916 C2918 1.381 . S
C2916 C2922 1.383 . S
C2917 C2913 1.495 . S
C2917 H2923 0.959 . S
C2917 H2924 0.961 . S
C2917 H2925 0.960 . S
C2918 C2916 1.381 . S
C2918 C2919 1.394 . S
C2918 H2926 0.930 . S
C2919 C2918 1.394 . S
C2919 C2920 1.383 . S
C2919 H2927 0.929 . S
C2920 C2919 1.383 . S
C2920 C2921 1.377 . S
C2921 H2905 0.930 . S
C2921 C2920 1.377 . S
C2921 C2922 1.379 . S
C2922 H2906 0.931 . S
C2922 C2916 1.383 . S
C2922 C2921 1.379 . S
H2923 C2917 0.959 . S
H2924 C2917 0.961 . S
H2925 C2917 0.960 . S
H2926 C2918 0.930 . S
H2927 C2919 0.929 . S
H2928 C2936 0.929 . S
H2929 C2938 0.930 . S
H2930 C2940 0.930 . S
H2931 C2943 0.929 . S
H2932 C2946 0.930 . S
H2933 C2948 0.978 . S
H2934 C2948 0.960 . S
H2935 C2948 0.960 . S
C2936 H2928 0.929 . S
C2936 C2937 1.377 . S
C2936 C2938 1.384 . S
C2937 C2936 1.377 . S
C2937 C2943 1.390 . S
C2938 H2929 0.930 . S
C2938 C2936 1.384 . S
C2938 C2939 1.372 . S
C2939 C2938 1.372 . S
C2939 C2940 1.400 . S
C2939 C2944 1.490 . S
C2940 H2930 0.930 . S
C2940 C2939 1.400 . S
C2940 C2943 1.386 . S
H2941 C2957 0.930 . S
H2942 C2958 0.931 . S
C2943 H2931 0.929 . S
C2943 C2937 1.390 . S
C2943 C2940 1.386 . S
C2944 C2939 1.490 . S
C2944 C2946 1.395 . S
C2944 C2947 1.403 . S
H2945 C2951 0.930 . S
C2946 H2932 0.930 . S
C2946 C2944 1.395 . S
C2946 C2949 1.403 1_556 S
C2947 C2944 1.403 . S
C2947 C2948 1.524 . S
C2947 C2951 1.400 1_556 S
C2948 H2933 0.978 . S
C2948 H2934 0.960 . S
C2948 H2935 0.960 . S
C2948 C2947 1.524 . S
C2949 C2946 1.403 1_554 S
C2949 C2950 1.392 . S
C2949 C2953 1.495 . S
C2950 C2949 1.392 . S
C2950 C2951 1.385 . S
C2950 C2952 1.478 . S
C2951 H2945 0.930 . S
C2951 C2947 1.400 1_554 S
C2951 C2950 1.385 . S
C2952 C2950 1.478 . S
C2952 C2954 1.381 . S
C2952 C2958 1.383 . S
C2953 C2949 1.495 . S
C2953 H2959 0.959 . S
C2953 H2960 0.961 . S
C2953 H2961 0.960 . S
C2954 C2952 1.381 . S
C2954 C2955 1.394 . S
C2954 H2962 0.930 . S
C2955 C2954 1.394 . S
C2955 C2956 1.383 . S
C2955 H2963 0.929 . S
C2956 C2955 1.383 . S
C2956 C2957 1.377 . S
C2957 H2941 0.930 . S
C2957 C2956 1.377 . S
C2957 C2958 1.379 . S
C2958 H2942 0.931 . S
C2958 C2952 1.383 . S
C2958 C2957 1.379 . S
H2959 C2953 0.959 . S
H2960 C2953 0.961 . S
H2961 C2953 0.960 . S
H2962 C2954 0.930 . S
H2963 C2955 0.929 . S
H2964 C2972 0.929 . S
H2965 C2974 0.930 . S
H2966 C2976 0.930 . S
H2967 C2979 0.929 . S
H2968 C2982 0.930 . S
H2969 C2984 0.960 . S
H2970 C2984 0.960 . S
H2971 C2984 0.960 . S
C2972 H2964 0.929 . S
C2972 C2973 1.377 . S
C2972 C2974 1.384 . S
C2973 C2972 1.377 . S
C2973 C2979 1.390 . S
C2974 H2965 0.930 . S
C2974 C2972 1.384 . S
C2974 C2975 1.372 . S
C2975 C2974 1.372 . S
C2975 C2976 1.400 . S
C2975 C2980 1.490 . S
C2976 H2966 0.930 . S
C2976 C2975 1.400 . S
C2976 C2979 1.386 . S
H2977 C2993 0.930 . S
H2978 C2994 0.931 . S
C2979 H2967 0.929 . S
C2979 C2973 1.390 . S
C2979 C2976 1.386 . S
C2980 C2975 1.490 . S
C2980 C2982 1.395 . S
C2980 C2983 1.403 . S
H2981 C2987 0.930 . S
C2982 H2968 0.930 . S
C2982 C2980 1.395 . S
C2982 C2985 1.367 1_556 S
C2983 C2980 1.403 . S
C2983 C2984 1.524 . S
C2983 C2987 1.400 1_556 S
C2984 H2969 0.960 . S
C2984 H2970 0.960 . S
C2984 H2971 0.960 . S
C2984 C2983 1.524 . S
C2985 C2982 1.367 1_554 S
C2985 C2986 1.412 . S
C2985 C2989 1.512 . S
C2986 C2985 1.412 . S
C2986 C2987 1.385 . S
C2986 C2988 1.478 . S
C2987 H2981 0.930 . S
C2987 C2983 1.400 1_554 S
C2987 C2986 1.385 . S
C2988 C2986 1.478 . S
C2988 C2990 1.381 . S
C2988 C2994 1.383 . S
C2989 C2985 1.512 . S
C2989 H2995 0.984 . S
C2989 H2996 0.961 . S
C2989 H2997 0.960 . S
C2990 C2988 1.381 . S
C2990 C2991 1.394 . S
C2990 H2998 0.930 . S
C2991 C2990 1.394 . S
C2991 C2992 1.383 . S
C2991 H2999 0.929 . S
C2992 C2991 1.383 . S
C2992 C2993 1.377 . S
C2993 H2977 0.930 . S
C2993 C2992 1.377 . S
C2993 C2994 1.379 . S
C2994 H2978 0.931 . S
C2994 C2988 1.383 . S
C2994 C2993 1.379 . S
H2995 C2989 0.984 . S
H2996 C2989 0.961 . S
H2997 C2989 0.960 . S
H2998 C2990 0.930 . S
H2999 C2991 0.929 . S
H3000 C3008 0.929 . S
H3001 C3010 0.930 . S
H3002 C3012 0.930 . S
H3003 C3015 0.929 . S
H3004 C3018 0.930 . S
H3005 C3020 0.960 . S
H3006 C3020 0.960 . S
H3007 C3020 0.960 . S
C3008 H3000 0.929 . S
C3008 C3009 1.377 . S
C3008 C3010 1.384 . S
C3009 C3008 1.377 . S
C3009 C3015 1.390 . S
C3010 H3001 0.930 . S
C3010 C3008 1.384 . S
C3010 C3011 1.372 . S
C3011 C3010 1.372 . S
C3011 C3012 1.400 . S
C3011 C3016 1.490 . S
C3012 H3002 0.930 . S
C3012 C3011 1.400 . S
C3012 C3015 1.386 . S
H3013 C3029 0.930 . S
H3014 C3030 0.931 . S
C3015 H3003 0.929 . S
C3015 C3009 1.390 . S
C3015 C3012 1.386 . S
C3016 C3011 1.490 . S
C3016 C3018 1.395 . S
C3016 C3019 1.403 . S
H3017 C3023 0.930 . S
C3018 H3004 0.930 . S
C3018 C3016 1.395 . S
C3018 C3021 1.403 . S
C3019 C3016 1.403 . S
C3019 C3020 1.524 . S
C3019 C3023 1.400 . S
C3020 H3005 0.960 . S
C3020 H3006 0.960 . S
C3020 H3007 0.960 . S
C3020 C3019 1.524 . S
C3021 C3018 1.403 . S
C3021 C3022 1.392 . S
C3021 C3025 1.495 . S
C3022 C3021 1.392 . S
C3022 C3023 1.385 . S
C3022 C3024 1.478 . S
C3023 H3017 0.930 . S
C3023 C3019 1.400 . S
C3023 C3022 1.385 . S
C3024 C3022 1.478 . S
C3024 C3026 1.381 . S
C3024 C3030 1.383 . S
C3025 C3021 1.495 . S
C3025 H3031 0.959 . S
C3025 H3032 0.961 . S
C3025 H3033 0.960 . S
C3026 C3024 1.381 . S
C3026 C3027 1.394 . S
C3026 H3034 0.930 . S
C3027 C3026 1.394 . S
C3027 C3028 1.383 . S
C3027 H3035 0.929 . S
C3028 C3027 1.383 . S
C3028 C3029 1.377 . S
C3029 H3013 0.930 . S
C3029 C3028 1.377 . S
C3029 C3030 1.379 . S
C3030 H3014 0.931 . S
C3030 C3024 1.383 . S
C3030 C3029 1.379 . S
H3031 C3025 0.959 . S
H3032 C3025 0.961 . S
H3033 C3025 0.960 . S
H3034 C3026 0.930 . S
H3035 C3027 0.929 . S
H3036 C3044 0.929 . S
H3037 C3046 0.930 . S
H3038 C3048 0.930 . S
H3039 C3051 0.929 . S
H3040 C3054 0.930 . S
H3041 C3056 0.960 . S
H3042 C3056 0.960 . S
H3043 C3056 0.960 . S
C3044 H3036 0.929 . S
C3044 C3045 1.377 . S
C3044 C3046 1.384 . S
C3045 C3044 1.377 . S
C3045 C3051 1.390 . S
C3046 H3037 0.930 . S
C3046 C3044 1.384 . S
C3046 C3047 1.372 . S
C3047 C3046 1.372 . S
C3047 C3048 1.400 . S
C3047 C3052 1.490 . S
C3048 H3038 0.930 . S
C3048 C3047 1.400 . S
C3048 C3051 1.386 . S
H3049 C3065 0.930 . S
H3050 C3066 0.931 . S
C3051 H3039 0.929 . S
C3051 C3045 1.390 . S
C3051 C3048 1.386 . S
C3052 C3047 1.490 . S
C3052 C3054 1.395 . S
C3052 C3055 1.403 . S
H3053 C3059 0.930 . S
C3054 H3040 0.930 . S
C3054 C3052 1.395 . S
C3054 C3057 1.403 1_556 S
C3055 C3052 1.403 . S
C3055 C3056 1.524 . S
C3055 C3059 1.400 1_556 S
C3056 H3041 0.960 . S
C3056 H3042 0.960 . S
C3056 H3043 0.960 . S
C3056 C3055 1.524 . S
C3057 C3054 1.403 1_554 S
C3057 C3058 1.392 . S
C3057 C3061 1.495 . S
C3058 C3057 1.392 . S
C3058 C3059 1.385 . S
C3058 C3060 1.478 . S
C3059 H3053 0.930 . S
C3059 C3055 1.400 1_554 S
C3059 C3058 1.385 . S
C3060 C3058 1.478 . S
C3060 C3062 1.381 . S
C3060 C3066 1.383 . S
C3061 C3057 1.495 . S
C3061 H3067 0.959 . S
C3061 H3068 0.961 . S
C3061 H3069 0.960 . S
C3062 C3060 1.381 . S
C3062 C3063 1.394 . S
C3062 H3070 0.930 . S
C3063 C3062 1.394 . S
C3063 C3064 1.383 . S
C3063 H3071 0.929 . S
C3064 C3063 1.383 . S
C3064 C3065 1.377 . S
C3065 H3049 0.930 . S
C3065 C3064 1.377 . S
C3065 C3066 1.379 . S
C3066 H3050 0.931 . S
C3066 C3060 1.383 . S
C3066 C3065 1.379 . S
H3067 C3061 0.959 . S
H3068 C3061 0.961 . S
H3069 C3061 0.960 . S
H3070 C3062 0.930 . S
H3071 C3063 0.929 . S
H3072 C3080 0.929 . S
H3073 C3082 0.930 . S
H3074 C3084 0.930 . S
H3075 C3087 0.929 . S
H3076 C3090 0.930 . S
H3077 C3092 0.960 . S
H3078 C3092 0.960 . S
H3079 C3092 0.960 . S
C3080 H3072 0.929 . S
C3080 C3081 1.377 . S
C3080 C3082 1.384 . S
C3081 C3080 1.377 . S
C3081 C3087 1.390 . S
C3082 H3073 0.930 . S
C3082 C3080 1.384 . S
C3082 C3083 1.372 . S
C3083 C3082 1.372 . S
C3083 C3084 1.400 . S
C3083 C3088 1.490 . S
C3084 H3074 0.930 . S
C3084 C3083 1.400 . S
C3084 C3087 1.386 . S
H3085 C3101 0.930 . S
H3086 C3102 0.931 . S
C3087 H3075 0.929 . S
C3087 C3081 1.390 . S
C3087 C3084 1.386 . S
C3088 C3083 1.490 . S
C3088 C3090 1.395 . S
C3088 C3091 1.403 . S
H3089 C3095 0.930 . S
C3090 H3076 0.930 . S
C3090 C3088 1.395 . S
C3090 C3093 1.403 . S
C3091 C3088 1.403 . S
C3091 C3092 1.524 . S
C3091 C3095 1.400 . S
C3092 H3077 0.960 . S
C3092 H3078 0.960 . S
C3092 H3079 0.960 . S
C3092 C3091 1.524 . S
C3093 C3090 1.403 . S
C3093 C3094 1.392 . S
C3093 C3097 1.495 . S
C3094 C3093 1.392 . S
C3094 C3095 1.385 . S
C3094 C3096 1.478 . S
C3095 H3089 0.930 . S
C3095 C3091 1.400 . S
C3095 C3094 1.385 . S
C3096 C3094 1.478 . S
C3096 C3098 1.381 . S
C3096 C3102 1.383 . S
C3097 C3093 1.495 . S
C3097 H3103 0.959 . S
C3097 H3104 0.961 . S
C3097 H3105 0.960 . S
C3098 C3096 1.381 . S
C3098 C3099 1.394 . S
C3098 H3106 0.930 . S
C3099 C3098 1.394 . S
C3099 C3100 1.383 . S
C3099 H3107 0.929 . S
C3100 C3099 1.383 . S
C3100 C3101 1.377 . S
C3101 H3085 0.930 . S
C3101 C3100 1.377 . S
C3101 C3102 1.379 . S
C3102 H3086 0.931 . S
C3102 C3096 1.383 . S
C3102 C3101 1.379 . S
H3103 C3097 0.959 . S
H3104 C3097 0.961 . S
H3105 C3097 0.960 . S
H3106 C3098 0.930 . S
H3107 C3099 0.929 . S
H3108 C3116 0.929 . S
H3109 C3118 0.930 . S
H3110 C3120 0.930 . S
H3111 C3123 0.929 . S
H3112 C3126 0.930 . S
H3113 C3128 0.960 . S
H3114 C3128 0.960 . S
H3115 C3128 0.960 . S
C3116 H3108 0.929 . S
C3116 C3117 1.377 . S
C3116 C3118 1.384 . S
C3117 C3116 1.377 . S
C3117 C3123 1.390 . S
C3118 H3109 0.930 . S
C3118 C3116 1.384 . S
C3118 C3119 1.372 . S
C3119 C3118 1.372 . S
C3119 C3120 1.400 . S
C3119 C3124 1.490 . S
C3120 H3110 0.930 . S
C3120 C3119 1.400 . S
C3120 C3123 1.386 . S
H3121 C3137 0.930 . S
H3122 C3138 0.931 . S
C3123 H3111 0.929 . S
C3123 C3117 1.390 . S
C3123 C3120 1.386 . S
C3124 C3119 1.490 . S
C3124 C3126 1.395 . S
C3124 C3127 1.403 . S
H3125 C3131 0.930 . S
C3126 H3112 0.930 . S
C3126 C3124 1.395 . S
C3126 C3129 1.403 1_556 S
C3127 C3124 1.403 . S
C3127 C3128 1.524 . S
C3127 C3131 1.400 1_556 S
C3128 H3113 0.960 . S
C3128 H3114 0.960 . S
C3128 H3115 0.960 . S
C3128 C3127 1.524 . S
C3129 C3126 1.403 1_554 S
C3129 C3130 1.392 . S
C3129 C3133 1.495 . S
C3130 C3129 1.392 . S
C3130 C3131 1.385 . S
C3130 C3132 1.478 . S
C3131 H3125 0.930 . S
C3131 C3127 1.400 1_554 S
C3131 C3130 1.385 . S
C3132 C3130 1.478 . S
C3132 C3134 1.381 . S
C3132 C3138 1.383 . S
C3133 C3129 1.495 . S
C3133 H3139 0.959 . S
C3133 H3140 0.961 . S
C3133 H3141 0.960 . S
C3134 C3132 1.381 . S
C3134 C3135 1.394 . S
C3134 H3142 0.930 . S
C3135 C3134 1.394 . S
C3135 C3136 1.383 . S
C3135 H3143 0.929 . S
C3136 C3135 1.383 . S
C3136 C3137 1.377 . S
C3137 H3121 0.930 . S
C3137 C3136 1.377 . S
C3137 C3138 1.379 . S
C3138 H3122 0.931 . S
C3138 C3132 1.383 . S
C3138 C3137 1.379 . S
H3139 C3133 0.959 . S
H3140 C3133 0.961 . S
H3141 C3133 0.960 . S
H3142 C3134 0.930 . S
H3143 C3135 0.929 . S
H3144 C3152 0.929 . S
H3145 C3154 0.930 . S
H3146 C3156 0.930 . S
H3147 C3159 0.929 . S
H3148 C3162 0.930 . S
H3149 C3164 0.960 . S
H3150 C3164 0.960 . S
H3151 C3164 0.960 . S
C3152 H3144 0.929 . S
C3152 C3153 1.377 . S
C3152 C3154 1.384 . S
C3153 C3152 1.377 . S
C3153 C3159 1.390 . S
C3154 H3145 0.930 . S
C3154 C3152 1.384 . S
C3154 C3155 1.372 . S
C3155 C3154 1.372 . S
C3155 C3156 1.400 . S
C3155 C3160 1.490 . S
C3156 H3146 0.930 . S
C3156 C3155 1.400 . S
C3156 C3159 1.386 . S
H3157 C3173 0.930 . S
H3158 C3174 0.931 . S
C3159 H3147 0.929 . S
C3159 C3153 1.390 . S
C3159 C3156 1.386 . S
C3160 C3155 1.490 . S
C3160 C3162 1.395 . S
C3160 C3163 1.403 . S
H3161 C3167 0.930 . S
C3162 H3148 0.930 . S
C3162 C3160 1.395 . S
C3162 C3165 1.403 . S
C3163 C3160 1.403 . S
C3163 C3164 1.524 . S
C3163 C3167 1.400 . S
C3164 H3149 0.960 . S
C3164 H3150 0.960 . S
C3164 H3151 0.960 . S
C3164 C3163 1.524 . S
C3165 C3162 1.403 . S
C3165 C3166 1.392 . S
C3165 C3169 1.495 . S
C3166 C3165 1.392 . S
C3166 C3167 1.385 . S
C3166 C3168 1.478 . S
C3167 H3161 0.930 . S
C3167 C3163 1.400 . S
C3167 C3166 1.385 . S
C3168 C3166 1.478 . S
C3168 C3170 1.381 . S
C3168 C3174 1.383 . S
C3169 C3165 1.495 . S
C3169 H3175 0.959 . S
C3169 H3176 0.961 . S
C3169 H3177 0.960 . S
C3170 C3168 1.381 . S
C3170 C3171 1.394 . S
C3170 H3178 0.930 . S
C3171 C3170 1.394 . S
C3171 C3172 1.383 . S
C3171 H3179 0.929 . S
C3172 C3171 1.383 . S
C3172 C3173 1.377 . S
C3173 H3157 0.930 . S
C3173 C3172 1.377 . S
C3173 C3174 1.379 . S
C3174 H3158 0.931 . S
C3174 C3168 1.383 . S
C3174 C3173 1.379 . S
H3175 C3169 0.959 . S
H3176 C3169 0.961 . S
H3177 C3169 0.960 . S
H3178 C3170 0.930 . S
H3179 C3171 0.929 . S
H3180 C3188 0.929 . S
H3181 C3190 0.930 . S
H3182 C3192 0.930 . S
H3183 C3195 0.929 . S
H3184 C3198 0.930 . S
H3185 C3200 0.960 . S
H3186 C3200 0.960 . S
H3187 C3200 0.960 . S
C3188 H3180 0.929 . S
C3188 C3189 1.377 . S
C3188 C3190 1.384 . S
C3189 C3188 1.377 . S
C3189 C3195 1.390 . S
C3190 H3181 0.930 . S
C3190 C3188 1.384 . S
C3190 C3191 1.372 . S
C3191 C3190 1.372 . S
C3191 C3192 1.400 . S
C3191 C3196 1.490 . S
C3192 H3182 0.930 . S
C3192 C3191 1.400 . S
C3192 C3195 1.386 . S
H3193 C3209 0.930 . S
H3194 C3210 0.931 . S
C3195 H3183 0.929 . S
C3195 C3189 1.390 . S
C3195 C3192 1.386 . S
C3196 C3191 1.490 . S
C3196 C3198 1.395 . S
C3196 C3199 1.403 . S
H3197 C3203 0.930 . S
C3198 H3184 0.930 . S
C3198 C3196 1.395 . S
C3198 C3201 1.403 . S
C3199 C3196 1.403 . S
C3199 C3200 1.524 . S
C3199 C3203 1.400 . S
C3200 H3185 0.960 . S
C3200 H3186 0.960 . S
C3200 H3187 0.960 . S
C3200 C3199 1.524 . S
C3201 C3198 1.403 . S
C3201 C3202 1.392 . S
C3201 C3205 1.495 . S
C3202 C3201 1.392 . S
C3202 C3203 1.385 . S
C3202 C3204 1.478 . S
C3203 H3197 0.930 . S
C3203 C3199 1.400 . S
C3203 C3202 1.385 . S
C3204 C3202 1.478 . S
C3204 C3206 1.381 . S
C3204 C3210 1.383 . S
C3205 C3201 1.495 . S
C3205 H3211 0.959 . S
C3205 H3212 0.961 . S
C3205 H3213 0.960 . S
C3206 C3204 1.381 . S
C3206 C3207 1.394 . S
C3206 H3214 0.930 . S
C3207 C3206 1.394 . S
C3207 C3208 1.383 . S
C3207 H3215 0.929 . S
C3208 C3207 1.383 . S
C3208 C3209 1.377 . S
C3209 H3193 0.930 . S
C3209 C3208 1.377 . S
C3209 C3210 1.379 . S
C3210 H3194 0.931 . S
C3210 C3204 1.383 . S
C3210 C3209 1.379 . S
H3211 C3205 0.959 . S
H3212 C3205 0.961 . S
H3213 C3205 0.960 . S
H3214 C3206 0.930 . S
H3215 C3207 0.929 . S
H3216 C3224 0.929 . S
H3217 C3226 0.930 . S
H3218 C3228 0.930 . S
H3219 C3231 0.929 . S
H3220 C3234 0.930 . S
H3221 C3236 0.960 . S
H3222 C3236 0.960 . S
H3223 C3236 0.960 . S
C3224 H3216 0.929 . S
C3224 C3225 1.377 . S
C3224 C3226 1.384 . S
C3225 C3224 1.377 . S
C3225 C3231 1.390 . S
C3226 H3217 0.930 . S
C3226 C3224 1.384 . S
C3226 C3227 1.372 . S
C3227 C3226 1.372 . S
C3227 C3228 1.400 . S
C3227 C3232 1.490 . S
C3228 H3218 0.930 . S
C3228 C3227 1.400 . S
C3228 C3231 1.386 . S
H3229 C3245 0.930 . S
H3230 C3246 0.931 . S
C3231 H3219 0.929 . S
C3231 C3225 1.390 . S
C3231 C3228 1.386 . S
C3232 C3227 1.490 . S
C3232 C3234 1.395 . S
C3232 C3235 1.403 . S
H3233 C3239 0.930 . S
C3234 H3220 0.930 . S
C3234 C3232 1.395 . S
C3234 C3237 1.403 . S
C3235 C3232 1.403 . S
C3235 C3236 1.524 . S
C3235 C3239 1.400 . S
C3236 H3221 0.960 . S
C3236 H3222 0.960 . S
C3236 H3223 0.960 . S
C3236 C3235 1.524 . S
C3237 C3234 1.403 . S
C3237 C3238 1.392 . S
C3237 C3241 1.495 . S
C3238 C3237 1.392 . S
C3238 C3239 1.385 . S
C3238 C3240 1.478 . S
C3239 H3233 0.930 . S
C3239 C3235 1.400 . S
C3239 C3238 1.385 . S
C3240 C3238 1.478 . S
C3240 C3242 1.381 . S
C3240 C3246 1.383 . S
C3241 C3237 1.495 . S
C3241 H3247 0.959 . S
C3241 H3248 0.961 . S
C3241 H3249 0.960 . S
C3242 C3240 1.381 . S
C3242 C3243 1.394 . S
C3242 H3250 0.930 . S
C3243 C3242 1.394 . S
C3243 C3244 1.383 . S
C3243 H3251 0.929 . S
C3244 C3243 1.383 . S
C3244 C3245 1.377 . S
C3245 H3229 0.930 . S
C3245 C3244 1.377 . S
C3245 C3246 1.379 . S
C3246 H3230 0.931 . S
C3246 C3240 1.383 . S
C3246 C3245 1.379 . S
H3247 C3241 0.959 . S
H3248 C3241 0.961 . S
H3249 C3241 0.960 . S
H3250 C3242 0.930 . S
H3251 C3243 0.929 . S
H3252 C3260 0.929 . S
H3253 C3262 0.930 . S
H3254 C3264 0.930 . S
H3255 C3267 0.929 . S
H3256 C3270 0.930 . S
H3257 C3272 0.960 . S
H3258 C3272 0.960 . S
H3259 C3272 0.960 . S
C3260 H3252 0.929 . S
C3260 C3261 1.377 . S
C3260 C3262 1.384 . S
C3261 C3260 1.377 . S
C3261 C3267 1.390 . S
C3262 H3253 0.930 . S
C3262 C3260 1.384 . S
C3262 C3263 1.372 . S
C3263 C3262 1.372 . S
C3263 C3264 1.400 . S
C3263 C3268 1.490 . S
C3264 H3254 0.930 . S
C3264 C3263 1.400 . S
C3264 C3267 1.386 . S
H3265 C3281 0.930 . S
H3266 C3282 0.931 . S
C3267 H3255 0.929 . S
C3267 C3261 1.390 . S
C3267 C3264 1.386 . S
C3268 C3263 1.490 . S
C3268 C3270 1.395 . S
C3268 C3271 1.403 . S
H3269 C3275 0.930 . S
C3270 H3256 0.930 . S
C3270 C3268 1.395 . S
C3270 C3273 1.403 . S
C3271 C3268 1.403 . S
C3271 C3272 1.524 . S
C3271 C3275 1.400 . S
C3272 H3257 0.960 . S
C3272 H3258 0.960 . S
C3272 H3259 0.960 . S
C3272 C3271 1.524 . S
C3273 C3270 1.403 . S
C3273 C3274 1.392 . S
C3273 C3277 1.495 . S
C3274 C3273 1.392 . S
C3274 C3275 1.385 . S
C3274 C3276 1.478 . S
C3275 H3269 0.930 . S
C3275 C3271 1.400 . S
C3275 C3274 1.385 . S
C3276 C3274 1.478 . S
C3276 C3278 1.381 . S
C3276 C3282 1.383 . S
C3277 C3273 1.495 . S
C3277 H3283 0.959 . S
C3277 H3284 0.961 . S
C3277 H3285 0.960 . S
C3278 C3276 1.381 . S
C3278 C3279 1.394 . S
C3278 H3286 0.930 . S
C3279 C3278 1.394 . S
C3279 C3280 1.383 . S
C3279 H3287 0.929 . S
C3280 C3279 1.383 . S
C3280 C3281 1.377 . S
C3281 H3265 0.930 . S
C3281 C3280 1.377 . S
C3281 C3282 1.379 . S
C3282 H3266 0.931 . S
C3282 C3276 1.383 . S
C3282 C3281 1.379 . S
H3283 C3277 0.959 . S
H3284 C3277 0.961 . S
H3285 C3277 0.960 . S
H3286 C3278 0.930 . S
H3287 C3279 0.929 . S
H3288 C3296 0.929 . S
H3289 C3298 0.930 . S
H3290 C3300 0.930 . S
H3291 C3303 0.929 . S
H3292 C3306 0.930 . S
H3293 C3308 0.960 . S
H3294 C3308 0.960 . S
H3295 C3308 0.960 . S
C3296 H3288 0.929 . S
C3296 C3297 1.377 . S
C3296 C3298 1.384 . S
C3297 C3296 1.377 . S
C3297 C3303 1.390 . S
C3298 H3289 0.930 . S
C3298 C3296 1.384 . S
C3298 C3299 1.372 . S
C3299 C3298 1.372 . S
C3299 C3300 1.400 . S
C3299 C3304 1.490 . S
C3300 H3290 0.930 . S
C3300 C3299 1.400 . S
C3300 C3303 1.386 . S
H3301 C3317 0.930 . S
H3302 C3318 0.931 . S
C3303 H3291 0.929 . S
C3303 C3297 1.390 . S
C3303 C3300 1.386 . S
C3304 C3299 1.490 . S
C3304 C3306 1.395 . S
C3304 C3307 1.403 . S
H3305 C3311 0.930 . S
C3306 H3292 0.930 . S
C3306 C3304 1.395 . S
C3306 C3309 1.403 . S
C3307 C3304 1.403 . S
C3307 C3308 1.524 . S
C3307 C3311 1.400 . S
C3308 H3293 0.960 . S
C3308 H3294 0.960 . S
C3308 H3295 0.960 . S
C3308 C3307 1.524 . S
C3309 C3306 1.403 . S
C3309 C3310 1.392 . S
C3309 C3313 1.495 . S
C3310 C3309 1.392 . S
C3310 C3311 1.385 . S
C3310 C3312 1.478 . S
C3311 H3305 0.930 . S
C3311 C3307 1.400 . S
C3311 C3310 1.385 . S
C3312 C3310 1.478 . S
C3312 C3314 1.381 . S
C3312 C3318 1.383 . S
C3313 C3309 1.495 . S
C3313 H3319 0.959 . S
C3313 H3320 0.961 . S
C3313 H3321 0.960 . S
C3314 C3312 1.381 . S
C3314 C3315 1.394 . S
C3314 H3322 0.930 . S
C3315 C3314 1.394 . S
C3315 C3316 1.383 . S
C3315 H3323 0.929 . S
C3316 C3315 1.383 . S
C3316 C3317 1.377 . S
C3317 H3301 0.930 . S
C3317 C3316 1.377 . S
C3317 C3318 1.379 . S
C3318 H3302 0.931 . S
C3318 C3312 1.383 . S
C3318 C3317 1.379 . S
H3319 C3313 0.959 . S
H3320 C3313 0.961 . S
H3321 C3313 0.960 . S
H3322 C3314 0.930 . S
H3323 C3315 0.929 . S
H3324 C3332 0.929 . S
H3325 C3334 0.930 . S
H3326 C3336 0.930 . S
H3327 C3339 0.929 . S
H3328 C3342 0.930 . S
H3329 C3344 0.960 . S
H3330 C3344 0.960 . S
H3331 C3344 0.960 . S
C3332 H3324 0.929 . S
C3332 C3333 1.377 . S
C3332 C3334 1.384 . S
C3333 C3332 1.377 . S
C3333 C3339 1.390 . S
C3334 H3325 0.930 . S
C3334 C3332 1.384 . S
C3334 C3335 1.372 . S
C3335 C3334 1.372 . S
C3335 C3336 1.400 . S
C3335 C3340 1.490 . S
C3336 H3326 0.930 . S
C3336 C3335 1.400 . S
C3336 C3339 1.386 . S
H3337 C3353 0.930 . S
H3338 C3354 0.931 . S
C3339 H3327 0.929 . S
C3339 C3333 1.390 . S
C3339 C3336 1.386 . S
C3340 C3335 1.490 . S
C3340 C3342 1.395 . S
C3340 C3343 1.403 . S
H3341 C3347 0.930 . S
C3342 H3328 0.930 . S
C3342 C3340 1.395 . S
C3342 C3345 1.403 . S
C3343 C3340 1.403 . S
C3343 C3344 1.524 . S
C3343 C3347 1.400 . S
C3344 H3329 0.960 . S
C3344 H3330 0.960 . S
C3344 H3331 0.960 . S
C3344 C3343 1.524 . S
C3345 C3342 1.403 . S
C3345 C3346 1.392 . S
C3345 C3349 1.495 . S
C3346 C3345 1.392 . S
C3346 C3347 1.385 . S
C3346 C3348 1.478 . S
C3347 H3341 0.930 . S
C3347 C3343 1.400 . S
C3347 C3346 1.385 . S
C3348 C3346 1.478 . S
C3348 C3350 1.381 . S
C3348 C3354 1.383 . S
C3349 C3345 1.495 . S
C3349 H3355 0.959 . S
C3349 H3356 0.961 . S
C3349 H3357 0.960 . S
C3350 C3348 1.381 . S
C3350 C3351 1.394 . S
C3350 H3358 0.930 . S
C3351 C3350 1.394 . S
C3351 C3352 1.383 . S
C3351 H3359 0.929 . S
C3352 C3351 1.383 . S
C3352 C3353 1.377 . S
C3353 H3337 0.930 . S
C3353 C3352 1.377 . S
C3353 C3354 1.379 . S
C3354 H3338 0.931 . S
C3354 C3348 1.383 . S
C3354 C3353 1.379 . S
H3355 C3349 0.959 . S
H3356 C3349 0.961 . S
H3357 C3349 0.960 . S
H3358 C3350 0.930 . S
H3359 C3351 0.929 . S
H3360 C3368 0.929 . S
H3361 C3370 0.930 . S
H3362 C3372 0.930 . S
H3363 C3375 0.929 . S
H3364 C3378 0.930 . S
H3365 C3380 0.960 . S
H3366 C3380 0.960 . S
H3367 C3380 0.960 . S
C3368 H3360 0.929 . S
C3368 C3369 1.377 . S
C3368 C3370 1.384 . S
C3369 C3368 1.377 . S
C3369 C3375 1.390 . S
C3370 H3361 0.930 . S
C3370 C3368 1.384 . S
C3370 C3371 1.372 . S
C3371 C3370 1.372 . S
C3371 C3372 1.400 . S
C3371 C3376 1.490 . S
C3372 H3362 0.930 . S
C3372 C3371 1.400 . S
C3372 C3375 1.386 . S
H3373 C3389 0.930 . S
H3374 C3390 0.931 . S
C3375 H3363 0.929 . S
C3375 C3369 1.390 . S
C3375 C3372 1.386 . S
C3376 C3371 1.490 . S
C3376 C3378 1.395 . S
C3376 C3379 1.403 . S
H3377 C3383 0.930 . S
C3378 H3364 0.930 . S
C3378 C3376 1.395 . S
C3378 C3381 1.403 . S
C3379 C3376 1.403 . S
C3379 C3380 1.524 . S
C3379 C3383 1.400 . S
C3380 H3365 0.960 . S
C3380 H3366 0.960 . S
C3380 H3367 0.960 . S
C3380 C3379 1.524 . S
C3381 C3378 1.403 . S
C3381 C3382 1.392 . S
C3381 C3385 1.495 . S
C3382 C3381 1.392 . S
C3382 C3383 1.385 . S
C3382 C3384 1.478 . S
C3383 H3377 0.930 . S
C3383 C3379 1.400 . S
C3383 C3382 1.385 . S
C3384 C3382 1.478 . S
C3384 C3386 1.381 . S
C3384 C3390 1.383 . S
C3385 C3381 1.495 . S
C3385 H3391 0.959 . S
C3385 H3392 0.961 . S
C3385 H3393 0.960 . S
C3386 C3384 1.381 . S
C3386 C3387 1.394 . S
C3386 H3394 0.930 . S
C3387 C3386 1.394 . S
C3387 C3388 1.383 . S
C3387 H3395 0.929 . S
C3388 C3387 1.383 . S
C3388 C3389 1.377 . S
C3389 H3373 0.930 . S
C3389 C3388 1.377 . S
C3389 C3390 1.379 . S
C3390 H3374 0.931 . S
C3390 C3384 1.383 . S
C3390 C3389 1.379 . S
H3391 C3385 0.959 . S
H3392 C3385 0.961 . S
H3393 C3385 0.960 . S
H3394 C3386 0.930 . S
H3395 C3387 0.929 . S
H3396 C3404 0.929 . S
H3397 C3406 0.930 . S
H3398 C3408 0.930 . S
H3399 C3411 0.929 . S
H3400 C3414 0.930 . S
H3401 C3416 0.960 . S
H3402 C3416 0.960 . S
H3403 C3416 0.960 . S
C3404 H3396 0.929 . S
C3404 C3405 1.377 . S
C3404 C3406 1.384 . S
C3405 C3404 1.377 . S
C3405 C3411 1.390 . S
C3406 H3397 0.930 . S
C3406 C3404 1.384 . S
C3406 C3407 1.372 . S
C3407 C3406 1.372 . S
C3407 C3408 1.400 . S
C3407 C3412 1.490 . S
C3408 H3398 0.930 . S
C3408 C3407 1.400 . S
C3408 C3411 1.386 . S
H3409 C3425 0.930 . S
H3410 C3426 0.931 . S
C3411 H3399 0.929 . S
C3411 C3405 1.390 . S
C3411 C3408 1.386 . S
C3412 C3407 1.490 . S
C3412 C3414 1.395 . S
C3412 C3415 1.403 . S
H3413 C3419 0.930 . S
C3414 H3400 0.930 . S
C3414 C3412 1.395 . S
C3414 C3417 1.403 . S
C3415 C3412 1.403 . S
C3415 C3416 1.524 . S
C3415 C3419 1.400 . S
C3416 H3401 0.960 . S
C3416 H3402 0.960 . S
C3416 H3403 0.960 . S
C3416 C3415 1.524 . S
C3417 C3414 1.403 . S
C3417 C3418 1.392 . S
C3417 C3421 1.495 . S
C3418 C3417 1.392 . S
C3418 C3419 1.385 . S
C3418 C3420 1.478 . S
C3419 H3413 0.930 . S
C3419 C3415 1.400 . S
C3419 C3418 1.385 . S
C3420 C3418 1.478 . S
C3420 C3422 1.381 . S
C3420 C3426 1.383 . S
C3421 C3417 1.495 . S
C3421 H3427 0.959 . S
C3421 H3428 0.961 . S
C3421 H3429 0.960 . S
C3422 C3420 1.381 . S
C3422 C3423 1.394 . S
C3422 H3430 0.930 . S
C3423 C3422 1.394 . S
C3423 C3424 1.383 . S
C3423 H3431 0.929 . S
C3424 C3423 1.383 . S
C3424 C3425 1.377 . S
C3425 H3409 0.930 . S
C3425 C3424 1.377 . S
C3425 C3426 1.379 . S
C3426 H3410 0.931 . S
C3426 C3420 1.383 . S
C3426 C3425 1.379 . S
H3427 C3421 0.959 . S
H3428 C3421 0.961 . S
H3429 C3421 0.960 . S
H3430 C3422 0.930 . S
H3431 C3423 0.929 . S
H3432 C3440 0.929 . S
H3433 C3442 0.930 . S
H3434 C3444 0.930 . S
H3435 C3447 0.929 . S
H3436 C3450 0.930 . S
H3437 C3452 0.960 . S
H3438 C3452 0.960 . S
H3439 C3452 0.960 . S
C3440 H3432 0.929 . S
C3440 C3441 1.377 . S
C3440 C3442 1.384 . S
C3441 C3440 1.377 . S
C3441 C3447 1.390 . S
C3442 H3433 0.930 . S
C3442 C3440 1.384 . S
C3442 C3443 1.372 . S
C3443 C3442 1.372 . S
C3443 C3444 1.400 . S
C3443 C3448 1.490 . S
C3444 H3434 0.930 . S
C3444 C3443 1.400 . S
C3444 C3447 1.386 . S
H3445 C3461 0.930 . S
H3446 C3462 0.931 . S
C3447 H3435 0.929 . S
C3447 C3441 1.390 . S
C3447 C3444 1.386 . S
C3448 C3443 1.490 . S
C3448 C3450 1.395 . S
C3448 C3451 1.403 . S
H3449 C3455 0.930 . S
C3450 H3436 0.930 . S
C3450 C3448 1.395 . S
C3450 C3453 1.403 . S
C3451 C3448 1.403 . S
C3451 C3452 1.524 . S
C3451 C3455 1.400 . S
C3452 H3437 0.960 . S
C3452 H3438 0.960 . S
C3452 H3439 0.960 . S
C3452 C3451 1.524 . S
C3453 C3450 1.403 . S
C3453 C3454 1.392 . S
C3453 C3457 1.495 . S
C3454 C3453 1.392 . S
C3454 C3455 1.385 . S
C3454 C3456 1.478 . S
C3455 H3449 0.930 . S
C3455 C3451 1.400 . S
C3455 C3454 1.385 . S
C3456 C3454 1.478 . S
C3456 C3458 1.381 . S
C3456 C3462 1.383 . S
C3457 C3453 1.495 . S
C3457 H3463 0.959 . S
C3457 H3464 0.961 . S
C3457 H3465 0.960 . S
C3458 C3456 1.381 . S
C3458 C3459 1.394 . S
C3458 H3466 0.930 . S
C3459 C3458 1.394 . S
C3459 C3460 1.383 . S
C3459 H3467 0.929 . S
C3460 C3459 1.383 . S
C3460 C3461 1.377 . S
C3461 H3445 0.930 . S
C3461 C3460 1.377 . S
C3461 C3462 1.379 . S
C3462 H3446 0.931 . S
C3462 C3456 1.383 . S
C3462 C3461 1.379 . S
H3463 C3457 0.959 . S
H3464 C3457 0.961 . S
H3465 C3457 0.960 . S
H3466 C3458 0.930 . S
H3467 C3459 0.929 . S
H3468 C3476 0.929 . S
H3469 C3478 0.930 . S
H3470 C3480 0.930 . S
H3471 C3483 0.929 . S
H3472 C3486 0.930 . S
H3473 C3488 0.960 . S
H3474 C3488 0.960 . S
H3475 C3488 0.960 . S
C3476 H3468 0.929 . S
C3476 C3477 1.377 . S
C3476 C3478 1.384 . S
C3477 C3476 1.377 . S
C3477 C3483 1.390 . S
C3478 H3469 0.930 . S
C3478 C3476 1.384 . S
C3478 C3479 1.372 . S
C3479 C3478 1.372 . S
C3479 C3480 1.400 . S
C3479 C3484 1.490 . S
C3480 H3470 0.930 . S
C3480 C3479 1.400 . S
C3480 C3483 1.386 . S
H3481 C3497 0.930 . S
H3482 C3498 0.931 . S
C3483 H3471 0.929 . S
C3483 C3477 1.390 . S
C3483 C3480 1.386 . S
C3484 C3479 1.490 . S
C3484 C3486 1.395 . S
C3484 C3487 1.403 . S
H3485 C3491 0.930 . S
C3486 H3472 0.930 . S
C3486 C3484 1.395 . S
C3486 C3489 1.403 . S
C3487 C3484 1.403 . S
C3487 C3488 1.524 . S
C3487 C3491 1.400 . S
C3488 H3473 0.960 . S
C3488 H3474 0.960 . S
C3488 H3475 0.960 . S
C3488 C3487 1.524 . S
C3489 C3486 1.403 . S
C3489 C3490 1.392 . S
C3489 C3493 1.495 . S
C3490 C3489 1.392 . S
C3490 C3491 1.385 . S
C3490 C3492 1.478 . S
C3491 H3485 0.930 . S
C3491 C3487 1.400 . S
C3491 C3490 1.385 . S
C3492 C3490 1.478 . S
C3492 C3494 1.381 . S
C3492 C3498 1.383 . S
C3493 C3489 1.495 . S
C3493 H3499 0.959 . S
C3493 H3500 0.961 . S
C3493 H3501 0.960 . S
C3494 C3492 1.381 . S
C3494 C3495 1.394 . S
C3494 H3502 0.930 . S
C3495 C3494 1.394 . S
C3495 C3496 1.383 . S
C3495 H3503 0.929 . S
C3496 C3495 1.383 . S
C3496 C3497 1.377 . S
C3497 H3481 0.930 . S
C3497 C3496 1.377 . S
C3497 C3498 1.379 . S
C3498 H3482 0.931 . S
C3498 C3492 1.383 . S
C3498 C3497 1.379 . S
H3499 C3493 0.959 . S
H3500 C3493 0.961 . S
H3501 C3493 0.960 . S
H3502 C3494 0.930 . S
H3503 C3495 0.929 . S
H3504 C3512 0.929 . S
H3505 C3514 0.930 . S
H3506 C3516 0.930 . S
H3507 C3519 0.929 . S
H3508 C3522 0.930 . S
H3509 C3524 0.960 . S
H3510 C3524 0.960 . S
H3511 C3524 0.960 . S
C3512 H3504 0.929 . S
C3512 C3513 1.377 . S
C3512 C3514 1.384 . S
C3513 C3512 1.377 . S
C3513 C3519 1.390 . S
C3514 H3505 0.930 . S
C3514 C3512 1.384 . S
C3514 C3515 1.372 . S
C3515 C3514 1.372 . S
C3515 C3516 1.400 . S
C3515 C3520 1.490 . S
C3516 H3506 0.930 . S
C3516 C3515 1.400 . S
C3516 C3519 1.386 . S
H3517 C3533 0.930 . S
H3518 C3534 0.931 . S
C3519 H3507 0.929 . S
C3519 C3513 1.390 . S
C3519 C3516 1.386 . S
C3520 C3515 1.490 . S
C3520 C3522 1.395 . S
C3520 C3523 1.403 . S
H3521 C3527 0.930 . S
C3522 H3508 0.930 . S
C3522 C3520 1.395 . S
C3522 C3525 1.403 . S
C3523 C3520 1.403 . S
C3523 C3524 1.524 . S
C3523 C3527 1.400 . S
C3524 H3509 0.960 . S
C3524 H3510 0.960 . S
C3524 H3511 0.960 . S
C3524 C3523 1.524 . S
C3525 C3522 1.403 . S
C3525 C3526 1.392 . S
C3525 C3529 1.495 . S
C3526 C3525 1.392 . S
C3526 C3527 1.385 . S
C3526 C3528 1.478 . S
C3527 H3521 0.930 . S
C3527 C3523 1.400 . S
C3527 C3526 1.385 . S
C3528 C3526 1.478 . S
C3528 C3530 1.381 . S
C3528 C3534 1.383 . S
C3529 C3525 1.495 . S
C3529 H3535 0.959 . S
C3529 H3536 0.961 . S
C3529 H3537 0.960 . S
C3530 C3528 1.381 . S
C3530 C3531 1.394 . S
C3530 H3538 0.930 . S
C3531 C3530 1.394 . S
C3531 C3532 1.383 . S
C3531 H3539 0.929 . S
C3532 C3531 1.383 . S
C3532 C3533 1.377 . S
C3533 H3517 0.930 . S
C3533 C3532 1.377 . S
C3533 C3534 1.379 . S
C3534 H3518 0.931 . S
C3534 C3528 1.383 . S
C3534 C3533 1.379 . S
H3535 C3529 0.959 . S
H3536 C3529 0.961 . S
H3537 C3529 0.960 . S
H3538 C3530 0.930 . S
H3539 C3531 0.929 . S
H3540 C3548 0.929 . S
H3541 C3550 0.930 . S
H3542 C3552 0.930 . S
H3543 C3555 0.929 . S
H3544 C3558 0.930 . S
H3545 C3560 0.960 . S
H3546 C3560 0.960 . S
H3547 C3560 0.960 . S
C3548 H3540 0.929 . S
C3548 C3549 1.377 . S
C3548 C3550 1.384 . S
C3549 C3548 1.377 . S
C3549 C3555 1.390 . S
C3550 H3541 0.930 . S
C3550 C3548 1.384 . S
C3550 C3551 1.372 . S
C3551 C3550 1.372 . S
C3551 C3552 1.400 . S
C3551 C3556 1.490 . S
C3552 H3542 0.930 . S
C3552 C3551 1.400 . S
C3552 C3555 1.386 . S
H3553 C3569 0.930 . S
H3554 C3570 0.931 . S
C3555 H3543 0.929 . S
C3555 C3549 1.390 . S
C3555 C3552 1.386 . S
C3556 C3551 1.490 . S
C3556 C3558 1.395 . S
C3556 C3559 1.403 . S
H3557 C3563 0.930 . S
C3558 H3544 0.930 . S
C3558 C3556 1.395 . S
C3558 C3561 1.403 . S
C3559 C3556 1.403 . S
C3559 C3560 1.524 . S
C3559 C3563 1.400 . S
C3560 H3545 0.960 . S
C3560 H3546 0.960 . S
C3560 H3547 0.960 . S
C3560 C3559 1.524 . S
C3561 C3558 1.403 . S
C3561 C3562 1.392 . S
C3561 C3565 1.495 . S
C3562 C3561 1.392 . S
C3562 C3563 1.385 . S
C3562 C3564 1.478 . S
C3563 H3557 0.930 . S
C3563 C3559 1.400 . S
C3563 C3562 1.385 . S
C3564 C3562 1.478 . S
C3564 C3566 1.381 . S
C3564 C3570 1.383 . S
C3565 C3561 1.495 . S
C3565 H3571 0.959 . S
C3565 H3572 0.961 . S
C3565 H3573 0.960 . S
C3566 C3564 1.381 . S
C3566 C3567 1.394 . S
C3566 H3574 0.930 . S
C3567 C3566 1.394 . S
C3567 C3568 1.383 . S
C3567 H3575 0.929 . S
C3568 C3567 1.383 . S
C3568 C3569 1.377 . S
C3569 H3553 0.930 . S
C3569 C3568 1.377 . S
C3569 C3570 1.379 . S
C3570 H3554 0.931 . S
C3570 C3564 1.383 . S
C3570 C3569 1.379 . S
H3571 C3565 0.959 . S
H3572 C3565 0.961 . S
H3573 C3565 0.960 . S
H3574 C3566 0.930 . S
H3575 C3567 0.929 . S
H3576 C3584 0.929 . S
H3577 C3586 0.930 . S
H3578 C3588 0.930 . S
H3579 C3591 0.929 . S
H3580 C3594 0.930 . S
H3581 C3596 0.960 . S
H3582 C3596 0.960 . S
H3583 C3596 0.960 . S
C3584 H3576 0.929 . S
C3584 C3585 1.377 . S
C3584 C3586 1.384 . S
C3585 C3584 1.377 . S
C3585 C3591 1.390 . S
C3586 H3577 0.930 . S
C3586 C3584 1.384 . S
C3586 C3587 1.372 . S
C3587 C3586 1.372 . S
C3587 C3588 1.400 . S
C3587 C3592 1.490 . S
C3588 H3578 0.930 . S
C3588 C3587 1.400 . S
C3588 C3591 1.386 . S
H3589 C3605 0.930 . S
H3590 C3606 0.931 . S
C3591 H3579 0.929 . S
C3591 C3585 1.390 . S
C3591 C3588 1.386 . S
C3592 C3587 1.490 . S
C3592 C3594 1.395 . S
C3592 C3595 1.403 . S
H3593 C3599 0.930 . S
C3594 H3580 0.930 . S
C3594 C3592 1.395 . S
C3594 C3597 1.403 . S
C3595 C3592 1.403 . S
C3595 C3596 1.524 . S
C3595 C3599 1.400 . S
C3596 H3581 0.960 . S
C3596 H3582 0.960 . S
C3596 H3583 0.960 . S
C3596 C3595 1.524 . S
C3597 C3594 1.403 . S
C3597 C3598 1.392 . S
C3597 C3601 1.495 . S
C3598 C3597 1.392 . S
C3598 C3599 1.385 . S
C3598 C3600 1.478 . S
C3599 H3593 0.930 . S
C3599 C3595 1.400 . S
C3599 C3598 1.385 . S
C3600 C3598 1.478 . S
C3600 C3602 1.381 . S
C3600 C3606 1.383 . S
C3601 C3597 1.495 . S
C3601 H3607 0.959 . S
C3601 H3608 0.961 . S
C3601 H3609 0.960 . S
C3602 C3600 1.381 . S
C3602 C3603 1.394 . S
C3602 H3610 0.930 . S
C3603 C3602 1.394 . S
C3603 C3604 1.383 . S
C3603 H3611 0.929 . S
C3604 C3603 1.383 . S
C3604 C3605 1.377 . S
C3605 H3589 0.930 . S
C3605 C3604 1.377 . S
C3605 C3606 1.379 . S
C3606 H3590 0.931 . S
C3606 C3600 1.383 . S
C3606 C3605 1.379 . S
H3607 C3601 0.959 . S
H3608 C3601 0.961 . S
H3609 C3601 0.960 . S
H3610 C3602 0.930 . S
H3611 C3603 0.929 . S
H3612 C3620 0.929 . S
H3613 C3622 0.930 . S
H3614 C3624 0.930 . S
H3615 C3627 0.929 . S
H3616 C3630 0.930 . S
H3617 C3632 0.960 . S
H3618 C3632 0.960 . S
H3619 C3632 0.960 . S
C3620 H3612 0.929 . S
C3620 C3621 1.377 . S
C3620 C3622 1.384 . S
C3621 C3620 1.377 . S
C3621 C3627 1.390 . S
C3622 H3613 0.930 . S
C3622 C3620 1.384 . S
C3622 C3623 1.372 . S
C3623 C3622 1.372 . S
C3623 C3624 1.400 . S
C3623 C3628 1.490 . S
C3624 H3614 0.930 . S
C3624 C3623 1.400 . S
C3624 C3627 1.386 . S
H3625 C3641 0.930 . S
H3626 C3642 0.931 . S
C3627 H3615 0.929 . S
C3627 C3621 1.390 . S
C3627 C3624 1.386 . S
C3628 C3623 1.490 . S
C3628 C3630 1.395 . S
C3628 C3631 1.403 . S
H3629 C3635 0.930 . S
C3630 H3616 0.930 . S
C3630 C3628 1.395 . S
C3630 C3633 1.403 . S
C3631 C3628 1.403 . S
C3631 C3632 1.524 . S
C3631 C3635 1.400 . S
C3632 H3617 0.960 . S
C3632 H3618 0.960 . S
C3632 H3619 0.960 . S
C3632 C3631 1.524 . S
C3633 C3630 1.403 . S
C3633 C3634 1.392 . S
C3633 C3637 1.495 . S
C3634 C3633 1.392 . S
C3634 C3635 1.385 . S
C3634 C3636 1.478 . S
C3635 H3629 0.930 . S
C3635 C3631 1.400 . S
C3635 C3634 1.385 . S
C3636 C3634 1.478 . S
C3636 C3638 1.381 . S
C3636 C3642 1.383 . S
C3637 C3633 1.495 . S
C3637 H3643 0.959 . S
C3637 H3644 0.961 . S
C3637 H3645 0.960 . S
C3638 C3636 1.381 . S
C3638 C3639 1.394 . S
C3638 H3646 0.930 . S
C3639 C3638 1.394 . S
C3639 C3640 1.383 . S
C3639 H3647 0.929 . S
C3640 C3639 1.383 . S
C3640 C3641 1.377 . S
C3641 H3625 0.930 . S
C3641 C3640 1.377 . S
C3641 C3642 1.379 . S
C3642 H3626 0.931 . S
C3642 C3636 1.383 . S
C3642 C3641 1.379 . S
H3643 C3637 0.959 . S
H3644 C3637 0.961 . S
H3645 C3637 0.960 . S
H3646 C3638 0.930 . S
H3647 C3639 0.929 . S
H3648 C3656 0.929 . S
H3649 C3658 0.930 . S
H3650 C3660 0.930 . S
H3651 C3663 0.929 . S
H3652 C3666 0.930 . S
H3653 C3668 0.960 . S
H3654 C3668 0.960 . S
H3655 C3668 0.960 . S
C3656 H3648 0.929 . S
C3656 C3657 1.377 . S
C3656 C3658 1.384 . S
C3657 C3656 1.377 . S
C3657 C3663 1.390 . S
C3658 H3649 0.930 . S
C3658 C3656 1.384 . S
C3658 C3659 1.372 . S
C3659 C3658 1.372 . S
C3659 C3660 1.400 . S
C3659 C3664 1.490 . S
C3660 H3650 0.930 . S
C3660 C3659 1.400 . S
C3660 C3663 1.386 . S
H3661 C3677 0.930 . S
H3662 C3678 0.931 . S
C3663 H3651 0.929 . S
C3663 C3657 1.390 . S
C3663 C3660 1.386 . S
C3664 C3659 1.490 . S
C3664 C3666 1.395 . S
C3664 C3667 1.403 . S
H3665 C3671 0.930 . S
C3666 H3652 0.930 . S
C3666 C3664 1.395 . S
C3666 C3669 1.403 . S
C3667 C3664 1.403 . S
C3667 C3668 1.524 . S
C3667 C3671 1.400 . S
C3668 H3653 0.960 . S
C3668 H3654 0.960 . S
C3668 H3655 0.960 . S
C3668 C3667 1.524 . S
C3669 C3666 1.403 . S
C3669 C3670 1.392 . S
C3669 C3673 1.495 . S
C3670 C3669 1.392 . S
C3670 C3671 1.385 . S
C3670 C3672 1.478 . S
C3671 H3665 0.930 . S
C3671 C3667 1.400 . S
C3671 C3670 1.385 . S
C3672 C3670 1.478 . S
C3672 C3674 1.381 . S
C3672 C3678 1.383 . S
C3673 C3669 1.495 . S
C3673 H3679 0.959 . S
C3673 H3680 0.961 . S
C3673 H3681 0.960 . S
C3674 C3672 1.381 . S
C3674 C3675 1.394 . S
C3674 H3682 0.930 . S
C3675 C3674 1.394 . S
C3675 C3676 1.383 . S
C3675 H3683 0.929 . S
C3676 C3675 1.383 . S
C3676 C3677 1.377 . S
C3677 H3661 0.930 . S
C3677 C3676 1.377 . S
C3677 C3678 1.379 . S
C3678 H3662 0.931 . S
C3678 C3672 1.383 . S
C3678 C3677 1.379 . S
H3679 C3673 0.959 . S
H3680 C3673 0.961 . S
H3681 C3673 0.960 . S
H3682 C3674 0.930 . S
H3683 C3675 0.929 . S
H3684 C3692 0.929 . S
H3685 C3694 0.930 . S
H3686 C3696 0.930 . S
H3687 C3699 0.929 . S
H3688 C3702 0.930 . S
H3689 C3704 0.960 . S
H3690 C3704 0.960 . S
H3691 C3704 0.960 . S
C3692 H3684 0.929 . S
C3692 C3693 1.377 . S
C3692 C3694 1.384 . S
C3693 C3692 1.377 . S
C3693 C3699 1.390 . S
C3694 H3685 0.930 . S
C3694 C3692 1.384 . S
C3694 C3695 1.372 . S
C3695 C3694 1.372 . S
C3695 C3696 1.400 . S
C3695 C3700 1.490 . S
C3696 H3686 0.930 . S
C3696 C3695 1.400 . S
C3696 C3699 1.386 . S
H3697 C3713 0.930 . S
H3698 C3714 0.931 . S
C3699 H3687 0.929 . S
C3699 C3693 1.390 . S
C3699 C3696 1.386 . S
C3700 C3695 1.490 . S
C3700 C3702 1.395 . S
C3700 C3703 1.403 . S
H3701 C3707 0.930 . S
C3702 H3688 0.930 . S
C3702 C3700 1.395 . S
C3702 C3705 1.403 . S
C3703 C3700 1.403 . S
C3703 C3704 1.524 . S
C3703 C3707 1.400 . S
C3704 H3689 0.960 . S
C3704 H3690 0.960 . S
C3704 H3691 0.960 . S
C3704 C3703 1.524 . S
C3705 C3702 1.403 . S
C3705 C3706 1.392 . S
C3705 C3709 1.495 . S
C3706 C3705 1.392 . S
C3706 C3707 1.385 . S
C3706 C3708 1.478 . S
C3707 H3701 0.930 . S
C3707 C3703 1.400 . S
C3707 C3706 1.385 . S
C3708 C3706 1.478 . S
C3708 C3710 1.381 . S
C3708 C3714 1.383 . S
C3709 C3705 1.495 . S
C3709 H3715 0.959 . S
C3709 H3716 0.961 . S
C3709 H3717 0.960 . S
C3710 C3708 1.381 . S
C3710 C3711 1.394 . S
C3710 H3718 0.930 . S
C3711 C3710 1.394 . S
C3711 C3712 1.383 . S
C3711 H3719 0.929 . S
C3712 C3711 1.383 . S
C3712 C3713 1.377 . S
C3713 H3697 0.930 . S
C3713 C3712 1.377 . S
C3713 C3714 1.379 . S
C3714 H3698 0.931 . S
C3714 C3708 1.383 . S
C3714 C3713 1.379 . S
H3715 C3709 0.959 . S
H3716 C3709 0.961 . S
H3717 C3709 0.960 . S
H3718 C3710 0.930 . S
H3719 C3711 0.929 . S
H3720 C3728 0.929 . S
H3721 C3730 0.930 . S
H3722 C3732 0.930 . S
H3723 C3735 0.929 . S
H3724 C3738 0.930 . S
H3725 C3740 0.960 . S
H3726 C3740 0.960 . S
H3727 C3740 0.960 . S
C3728 H3720 0.929 . S
C3728 C3729 1.377 . S
C3728 C3730 1.384 . S
C3729 C3728 1.377 . S
C3729 C3735 1.390 . S
C3730 H3721 0.930 . S
C3730 C3728 1.384 . S
C3730 C3731 1.372 . S
C3731 C3730 1.372 . S
C3731 C3732 1.400 . S
C3731 C3736 1.490 . S
C3732 H3722 0.930 . S
C3732 C3731 1.400 . S
C3732 C3735 1.386 . S
H3733 C3749 0.930 . S
H3734 C3750 0.931 . S
C3735 H3723 0.929 . S
C3735 C3729 1.390 . S
C3735 C3732 1.386 . S
C3736 C3731 1.490 . S
C3736 C3738 1.395 . S
C3736 C3739 1.403 . S
H3737 C3743 0.930 . S
C3738 H3724 0.930 . S
C3738 C3736 1.395 . S
C3738 C3741 1.403 . S
C3739 C3736 1.403 . S
C3739 C3740 1.524 . S
C3739 C3743 1.400 . S
C3740 H3725 0.960 . S
C3740 H3726 0.960 . S
C3740 H3727 0.960 . S
C3740 C3739 1.524 . S
C3741 C3738 1.403 . S
C3741 C3742 1.392 . S
C3741 C3745 1.495 . S
C3742 C3741 1.392 . S
C3742 C3743 1.385 . S
C3742 C3744 1.478 . S
C3743 H3737 0.930 . S
C3743 C3739 1.400 . S
C3743 C3742 1.385 . S
C3744 C3742 1.478 . S
C3744 C3746 1.381 . S
C3744 C3750 1.383 . S
C3745 C3741 1.495 . S
C3745 H3751 0.959 . S
C3745 H3752 0.961 . S
C3745 H3753 0.960 . S
C3746 C3744 1.381 . S
C3746 C3747 1.394 . S
C3746 H3754 0.930 . S
C3747 C3746 1.394 . S
C3747 C3748 1.383 . S
C3747 H3755 0.929 . S
C3748 C3747 1.383 . S
C3748 C3749 1.377 . S
C3749 H3733 0.930 . S
C3749 C3748 1.377 . S
C3749 C3750 1.379 . S
C3750 H3734 0.931 . S
C3750 C3744 1.383 . S
C3750 C3749 1.379 . S
H3751 C3745 0.959 . S
H3752 C3745 0.961 . S
H3753 C3745 0.960 . S
H3754 C3746 0.930 . S
H3755 C3747 0.929 . S
H3756 C3764 0.929 . S
H3757 C3766 0.930 . S
H3758 C3768 0.930 . S
H3759 C3771 0.929 . S
H3760 C3774 0.930 . S
H3761 C3776 0.960 . S
H3762 C3776 0.960 . S
H3763 C3776 0.960 . S
C3764 H3756 0.929 . S
C3764 C3765 1.377 . S
C3764 C3766 1.384 . S
C3765 C3764 1.377 . S
C3765 C3771 1.390 . S
C3766 H3757 0.930 . S
C3766 C3764 1.384 . S
C3766 C3767 1.372 . S
C3767 C3766 1.372 . S
C3767 C3768 1.400 . S
C3767 C3772 1.490 . S
C3768 H3758 0.930 . S
C3768 C3767 1.400 . S
C3768 C3771 1.386 . S
H3769 C3785 0.930 . S
H3770 C3786 0.931 . S
C3771 H3759 0.929 . S
C3771 C3765 1.390 . S
C3771 C3768 1.386 . S
C3772 C3767 1.490 . S
C3772 C3774 1.395 . S
C3772 C3775 1.403 . S
H3773 C3779 0.930 . S
C3774 H3760 0.930 . S
C3774 C3772 1.395 . S
C3774 C3777 1.403 . S
C3775 C3772 1.403 . S
C3775 C3776 1.524 . S
C3775 C3779 1.400 . S
C3776 H3761 0.960 . S
C3776 H3762 0.960 . S
C3776 H3763 0.960 . S
C3776 C3775 1.524 . S
C3777 C3774 1.403 . S
C3777 C3778 1.392 . S
C3777 C3781 1.495 . S
C3778 C3777 1.392 . S
C3778 C3779 1.385 . S
C3778 C3780 1.478 . S
C3779 H3773 0.930 . S
C3779 C3775 1.400 . S
C3779 C3778 1.385 . S
C3780 C3778 1.478 . S
C3780 C3782 1.381 . S
C3780 C3786 1.383 . S
C3781 C3777 1.495 . S
C3781 H3787 0.959 . S
C3781 H3788 0.961 . S
C3781 H3789 0.960 . S
C3782 C3780 1.381 . S
C3782 C3783 1.394 . S
C3782 H3790 0.930 . S
C3783 C3782 1.394 . S
C3783 C3784 1.383 . S
C3783 H3791 0.929 . S
C3784 C3783 1.383 . S
C3784 C3785 1.377 . S
C3785 H3769 0.930 . S
C3785 C3784 1.377 . S
C3785 C3786 1.379 . S
C3786 H3770 0.931 . S
C3786 C3780 1.383 . S
C3786 C3785 1.379 . S
H3787 C3781 0.959 . S
H3788 C3781 0.961 . S
H3789 C3781 0.960 . S
H3790 C3782 0.930 . S
H3791 C3783 0.929 . S
H3792 C3800 0.929 . S
H3793 C3802 0.930 . S
H3794 C3804 0.930 . S
H3795 C3807 0.929 . S
H3796 C3810 0.930 . S
H3797 C3812 0.960 . S
H3798 C3812 0.960 . S
H3799 C3812 0.960 . S
C3800 H3792 0.929 . S
C3800 C3801 1.377 . S
C3800 C3802 1.384 . S
C3801 C3800 1.377 . S
C3801 C3807 1.390 . S
C3802 H3793 0.930 . S
C3802 C3800 1.384 . S
C3802 C3803 1.372 . S
C3803 C3802 1.372 . S
C3803 C3804 1.400 . S
C3803 C3808 1.490 . S
C3804 H3794 0.930 . S
C3804 C3803 1.400 . S
C3804 C3807 1.386 . S
H3805 C3821 0.930 . S
H3806 C3822 0.931 . S
C3807 H3795 0.929 . S
C3807 C3801 1.390 . S
C3807 C3804 1.386 . S
C3808 C3803 1.490 . S
C3808 C3810 1.395 . S
C3808 C3811 1.403 . S
H3809 C3815 0.930 . S
C3810 H3796 0.930 . S
C3810 C3808 1.395 . S
C3810 C3813 1.403 . S
C3811 C3808 1.403 . S
C3811 C3812 1.524 . S
C3811 C3815 1.400 . S
C3812 H3797 0.960 . S
C3812 H3798 0.960 . S
C3812 H3799 0.960 . S
C3812 C3811 1.524 . S
C3813 C3810 1.403 . S
C3813 C3814 1.392 . S
C3813 C3817 1.495 . S
C3814 C3813 1.392 . S
C3814 C3815 1.385 . S
C3814 C3816 1.478 . S
C3815 H3809 0.930 . S
C3815 C3811 1.400 . S
C3815 C3814 1.385 . S
C3816 C3814 1.478 . S
C3816 C3818 1.381 . S
C3816 C3822 1.383 . S
C3817 C3813 1.495 . S
C3817 H3823 0.959 . S
C3817 H3824 0.961 . S
C3817 H3825 0.960 . S
C3818 C3816 1.381 . S
C3818 C3819 1.394 . S
C3818 H3826 0.930 . S
C3819 C3818 1.394 . S
C3819 C3820 1.383 . S
C3819 H3827 0.929 . S
C3820 C3819 1.383 . S
C3820 C3821 1.377 . S
C3821 H3805 0.930 . S
C3821 C3820 1.377 . S
C3821 C3822 1.379 . S
C3822 H3806 0.931 . S
C3822 C3816 1.383 . S
C3822 C3821 1.379 . S
H3823 C3817 0.959 . S
H3824 C3817 0.961 . S
H3825 C3817 0.960 . S
H3826 C3818 0.930 . S
H3827 C3819 0.929 . S
H3828 C3836 0.929 . S
H3829 C3838 0.930 . S
H3830 C3840 0.930 . S
H3831 C3843 0.929 . S
H3832 C3846 0.930 . S
H3833 C3848 0.960 . S
H3834 C3848 0.960 . S
H3835 C3848 0.960 . S
C3836 H3828 0.929 . S
C3836 C3837 1.377 . S
C3836 C3838 1.384 . S
C3837 C3836 1.377 . S
C3837 C3843 1.390 . S
C3838 H3829 0.930 . S
C3838 C3836 1.384 . S
C3838 C3839 1.372 . S
C3839 C3838 1.372 . S
C3839 C3840 1.400 . S
C3839 C3844 1.490 . S
C3840 H3830 0.930 . S
C3840 C3839 1.400 . S
C3840 C3843 1.386 . S
H3841 C3857 0.930 . S
H3842 C3858 0.931 . S
C3843 H3831 0.929 . S
C3843 C3837 1.390 . S
C3843 C3840 1.386 . S
C3844 C3839 1.490 . S
C3844 C3846 1.395 . S
C3844 C3847 1.403 . S
H3845 C3851 0.930 . S
C3846 H3832 0.930 . S
C3846 C3844 1.395 . S
C3846 C3849 1.403 . S
C3847 C3844 1.403 . S
C3847 C3848 1.524 . S
C3847 C3851 1.400 . S
C3848 H3833 0.960 . S
C3848 H3834 0.960 . S
C3848 H3835 0.960 . S
C3848 C3847 1.524 . S
C3849 C3846 1.403 . S
C3849 C3850 1.392 . S
C3849 C3853 1.495 . S
C3850 C3849 1.392 . S
C3850 C3851 1.385 . S
C3850 C3852 1.478 . S
C3851 H3845 0.930 . S
C3851 C3847 1.400 . S
C3851 C3850 1.385 . S
C3852 C3850 1.478 . S
C3852 C3854 1.381 . S
C3852 C3858 1.383 . S
C3853 C3849 1.495 . S
C3853 H3859 0.959 . S
C3853 H3860 0.961 . S
C3853 H3861 0.960 . S
C3854 C3852 1.381 . S
C3854 C3855 1.394 . S
C3854 H3862 0.930 . S
C3855 C3854 1.394 . S
C3855 C3856 1.383 . S
C3855 H3863 0.929 . S
C3856 C3855 1.383 . S
C3856 C3857 1.377 . S
C3857 H3841 0.930 . S
C3857 C3856 1.377 . S
C3857 C3858 1.379 . S
C3858 H3842 0.931 . S
C3858 C3852 1.383 . S
C3858 C3857 1.379 . S
H3859 C3853 0.959 . S
H3860 C3853 0.961 . S
H3861 C3853 0.960 . S
H3862 C3854 0.930 . S
H3863 C3855 0.929 . S
H3864 C3872 0.929 . S
H3865 C3874 0.930 . S
H3866 C3876 0.930 . S
H3867 C3879 0.929 . S
H3868 C3882 0.930 . S
H3869 C3884 0.960 . S
H3870 C3884 0.960 . S
H3871 C3884 0.960 . S
C3872 H3864 0.929 . S
C3872 C3873 1.377 . S
C3872 C3874 1.384 . S
C3873 C3872 1.377 . S
C3873 C3879 1.390 . S
C3874 H3865 0.930 . S
C3874 C3872 1.384 . S
C3874 C3875 1.372 . S
C3875 C3874 1.372 . S
C3875 C3876 1.400 . S
C3875 C3880 1.490 . S
C3876 H3866 0.930 . S
C3876 C3875 1.400 . S
C3876 C3879 1.386 . S
H3877 C3893 0.930 . S
H3878 C3894 0.931 . S
C3879 H3867 0.929 . S
C3879 C3873 1.390 . S
C3879 C3876 1.386 . S
C3880 C3875 1.490 . S
C3880 C3882 1.395 . S
C3880 C3883 1.403 . S
H3881 C3887 0.930 . S
C3882 H3868 0.930 . S
C3882 C3880 1.395 . S
C3882 C3885 1.403 . S
C3883 C3880 1.403 . S
C3883 C3884 1.524 . S
C3883 C3887 1.400 . S
C3884 H3869 0.960 . S
C3884 H3870 0.960 . S
C3884 H3871 0.960 . S
C3884 C3883 1.524 . S
C3885 C3882 1.403 . S
C3885 C3886 1.392 . S
C3885 C3889 1.495 . S
C3886 C3885 1.392 . S
C3886 C3887 1.385 . S
C3886 C3888 1.478 . S
C3887 H3881 0.930 . S
C3887 C3883 1.400 . S
C3887 C3886 1.385 . S
C3888 C3886 1.478 . S
C3888 C3890 1.381 . S
C3888 C3894 1.383 . S
C3889 C3885 1.495 . S
C3889 H3895 0.959 . S
C3889 H3896 0.961 . S
C3889 H3897 0.960 . S
C3890 C3888 1.381 . S
C3890 C3891 1.394 . S
C3890 H3898 0.930 . S
C3891 C3890 1.394 . S
C3891 C3892 1.383 . S
C3891 H3899 0.929 . S
C3892 C3891 1.383 . S
C3892 C3893 1.377 . S
C3893 H3877 0.930 . S
C3893 C3892 1.377 . S
C3893 C3894 1.379 . S
C3894 H3878 0.931 . S
C3894 C3888 1.383 . S
C3894 C3893 1.379 . S
H3895 C3889 0.959 . S
H3896 C3889 0.961 . S
H3897 C3889 0.960 . S
H3898 C3890 0.930 . S
H3899 C3891 0.929 . S
H3900 C3908 0.929 . S
H3901 C3910 0.930 . S
H3902 C3912 0.930 . S
H3903 C3915 0.929 . S
H3904 C3918 0.930 . S
H3905 C3920 0.960 . S
H3906 C3920 0.960 . S
H3907 C3920 0.960 . S
C3908 H3900 0.929 . S
C3908 C3909 1.377 . S
C3908 C3910 1.384 . S
C3909 C3908 1.377 . S
C3909 C3915 1.390 . S
C3910 H3901 0.930 . S
C3910 C3908 1.384 . S
C3910 C3911 1.372 . S
C3911 C3910 1.372 . S
C3911 C3912 1.400 . S
C3911 C3916 1.490 . S
C3912 H3902 0.930 . S
C3912 C3911 1.400 . S
C3912 C3915 1.386 . S
H3913 C3929 0.930 . S
H3914 C3930 0.931 . S
C3915 H3903 0.929 . S
C3915 C3909 1.390 . S
C3915 C3912 1.386 . S
C3916 C3911 1.490 . S
C3916 C3918 1.395 . S
C3916 C3919 1.403 . S
H3917 C3923 0.930 . S
C3918 H3904 0.930 . S
C3918 C3916 1.395 . S
C3918 C3921 1.403 . S
C3919 C3916 1.403 . S
C3919 C3920 1.524 . S
C3919 C3923 1.400 . S
C3920 H3905 0.960 . S
C3920 H3906 0.960 . S
C3920 H3907 0.960 . S
C3920 C3919 1.524 . S
C3921 C3918 1.403 . S
C3921 C3922 1.392 . S
C3921 C3925 1.495 . S
C3922 C3921 1.392 . S
C3922 C3923 1.385 . S
C3922 C3924 1.478 . S
C3923 H3917 0.930 . S
C3923 C3919 1.400 . S
C3923 C3922 1.385 . S
C3924 C3922 1.478 . S
C3924 C3926 1.381 . S
C3924 C3930 1.383 . S
C3925 C3921 1.495 . S
C3925 H3931 0.959 . S
C3925 H3932 0.961 . S
C3925 H3933 0.960 . S
C3926 C3924 1.381 . S
C3926 C3927 1.394 . S
C3926 H3934 0.930 . S
C3927 C3926 1.394 . S
C3927 C3928 1.383 . S
C3927 H3935 0.929 . S
C3928 C3927 1.383 . S
C3928 C3929 1.377 . S
C3929 H3913 0.930 . S
C3929 C3928 1.377 . S
C3929 C3930 1.379 . S
C3930 H3914 0.931 . S
C3930 C3924 1.383 . S
C3930 C3929 1.379 . S
H3931 C3925 0.959 . S
H3932 C3925 0.961 . S
H3933 C3925 0.960 . S
H3934 C3926 0.930 . S
H3935 C3927 0.929 . S
H3936 C3944 0.929 . S
H3937 C3946 0.930 . S
H3938 C3948 0.930 . S
H3939 C3951 0.929 . S
H3940 C3954 0.930 . S
H3941 C3956 0.960 . S
H3942 C3956 0.960 . S
H3943 C3956 0.960 . S
C3944 H3936 0.929 . S
C3944 C3945 1.377 . S
C3944 C3946 1.384 . S
C3945 C3944 1.377 . S
C3945 C3951 1.390 . S
C3946 H3937 0.930 . S
C3946 C3944 1.384 . S
C3946 C3947 1.372 . S
C3947 C3946 1.372 . S
C3947 C3948 1.400 . S
C3947 C3952 1.490 . S
C3948 H3938 0.930 . S
C3948 C3947 1.400 . S
C3948 C3951 1.386 . S
H3949 C3965 0.930 . S
H3950 C3966 0.931 . S
C3951 H3939 0.929 . S
C3951 C3945 1.390 . S
C3951 C3948 1.386 . S
C3952 C3947 1.490 . S
C3952 C3954 1.395 . S
C3952 C3955 1.403 . S
H3953 C3959 0.930 . S
C3954 H3940 0.930 . S
C3954 C3952 1.395 . S
C3954 C3957 1.403 . S
C3955 C3952 1.403 . S
C3955 C3956 1.524 . S
C3955 C3959 1.400 . S
C3956 H3941 0.960 . S
C3956 H3942 0.960 . S
C3956 H3943 0.960 . S
C3956 C3955 1.524 . S
C3957 C3954 1.403 . S
C3957 C3958 1.392 . S
C3957 C3961 1.495 . S
C3958 C3957 1.392 . S
C3958 C3959 1.385 . S
C3958 C3960 1.478 . S
C3959 H3953 0.930 . S
C3959 C3955 1.400 . S
C3959 C3958 1.385 . S
C3960 C3958 1.478 . S
C3960 C3962 1.381 . S
C3960 C3966 1.383 . S
C3961 C3957 1.495 . S
C3961 H3967 0.959 . S
C3961 H3968 0.961 . S
C3961 H3969 0.960 . S
C3962 C3960 1.381 . S
C3962 C3963 1.394 . S
C3962 H3970 0.930 . S
C3963 C3962 1.394 . S
C3963 C3964 1.383 . S
C3963 H3971 0.929 . S
C3964 C3963 1.383 . S
C3964 C3965 1.377 . S
C3965 H3949 0.930 . S
C3965 C3964 1.377 . S
C3965 C3966 1.379 . S
C3966 H3950 0.931 . S
C3966 C3960 1.383 . S
C3966 C3965 1.379 . S
H3967 C3961 0.959 . S
H3968 C3961 0.961 . S
H3969 C3961 0.960 . S
H3970 C3962 0.930 . S
H3971 C3963 0.929 . S
H3972 C3980 0.929 . S
H3973 C3982 0.930 . S
H3974 C3984 0.930 . S
H3975 C3987 0.929 . S
H3976 C3990 0.930 . S
H3977 C3992 0.960 . S
H3978 C3992 0.960 . S
H3979 C3992 0.960 . S
C3980 H3972 0.929 . S
C3980 C3981 1.377 . S
C3980 C3982 1.384 . S
C3981 C3980 1.377 . S
C3981 C3987 1.390 . S
C3982 H3973 0.930 . S
C3982 C3980 1.384 . S
C3982 C3983 1.372 . S
C3983 C3982 1.372 . S
C3983 C3984 1.400 . S
C3983 C3988 1.490 . S
C3984 H3974 0.930 . S
C3984 C3983 1.400 . S
C3984 C3987 1.386 . S
H3985 C4001 0.930 . S
H3986 C4002 0.931 . S
C3987 H3975 0.929 . S
C3987 C3981 1.390 . S
C3987 C3984 1.386 . S
C3988 C3983 1.490 . S
C3988 C3990 1.395 . S
C3988 C3991 1.403 . S
H3989 C3995 0.930 . S
C3990 H3976 0.930 . S
C3990 C3988 1.395 . S
C3990 C3993 1.403 . S
C3991 C3988 1.403 . S
C3991 C3992 1.524 . S
C3991 C3995 1.400 . S
C3992 H3977 0.960 . S
C3992 H3978 0.960 . S
C3992 H3979 0.960 . S
C3992 C3991 1.524 . S
C3993 C3990 1.403 . S
C3993 C3994 1.392 . S
C3993 C3997 1.495 . S
C3994 C3993 1.392 . S
C3994 C3995 1.385 . S
C3994 C3996 1.478 . S
C3995 H3989 0.930 . S
C3995 C3991 1.400 . S
C3995 C3994 1.385 . S
C3996 C3994 1.478 . S
C3996 C3998 1.381 . S
C3996 C4002 1.383 . S
C3997 C3993 1.495 . S
C3997 H4003 0.959 . S
C3997 H4004 0.961 . S
C3997 H4005 0.960 . S
C3998 C3996 1.381 . S
C3998 C3999 1.394 . S
C3998 H4006 0.930 . S
C3999 C3998 1.394 . S
C3999 C4000 1.383 . S
C3999 H4007 0.929 . S
C4000 C3999 1.383 . S
C4000 C4001 1.377 . S
C4001 H3985 0.930 . S
C4001 C4000 1.377 . S
C4001 C4002 1.379 . S
C4002 H3986 0.931 . S
C4002 C3996 1.383 . S
C4002 C4001 1.379 . S
H4003 C3997 0.959 . S
H4004 C3997 0.961 . S
H4005 C3997 0.960 . S
H4006 C3998 0.930 . S
H4007 C3999 0.929 . S
H4008 C4016 0.929 . S
H4009 C4018 0.930 . S
H4010 C4020 0.930 . S
H4011 C4023 0.929 . S
H4012 C4026 0.930 . S
H4013 C4028 0.960 . S
H4014 C4028 0.960 . S
H4015 C4028 0.960 . S
C4016 H4008 0.929 . S
C4016 C4017 1.377 . S
C4016 C4018 1.384 . S
C4017 C4016 1.377 . S
C4017 C4023 1.390 . S
C4018 H4009 0.930 . S
C4018 C4016 1.384 . S
C4018 C4019 1.372 . S
C4019 C4018 1.372 . S
C4019 C4020 1.400 . S
C4019 C4024 1.490 . S
C4020 H4010 0.930 . S
C4020 C4019 1.400 . S
C4020 C4023 1.386 . S
H4021 C4037 0.930 . S
H4022 C4038 0.931 . S
C4023 H4011 0.929 . S
C4023 C4017 1.390 . S
C4023 C4020 1.386 . S
C4024 C4019 1.490 . S
C4024 C4026 1.395 . S
C4024 C4027 1.403 . S
H4025 C4031 0.930 . S
C4026 H4012 0.930 . S
C4026 C4024 1.395 . S
C4026 C4029 1.403 . S
C4027 C4024 1.403 . S
C4027 C4028 1.524 . S
C4027 C4031 1.400 . S
C4028 H4013 0.960 . S
C4028 H4014 0.960 . S
C4028 H4015 0.960 . S
C4028 C4027 1.524 . S
C4029 C4026 1.403 . S
C4029 C4030 1.392 . S
C4029 C4033 1.495 . S
C4030 C4029 1.392 . S
C4030 C4031 1.385 . S
C4030 C4032 1.478 . S
C4031 H4025 0.930 . S
C4031 C4027 1.400 . S
C4031 C4030 1.385 . S
C4032 C4030 1.478 . S
C4032 C4034 1.381 . S
C4032 C4038 1.383 . S
C4033 C4029 1.495 . S
C4033 H4039 0.959 . S
C4033 H4040 0.961 . S
C4033 H4041 0.960 . S
C4034 C4032 1.381 . S
C4034 C4035 1.394 . S
C4034 H4042 0.930 . S
C4035 C4034 1.394 . S
C4035 C4036 1.383 . S
C4035 H4043 0.929 . S
C4036 C4035 1.383 . S
C4036 C4037 1.377 . S
C4037 H4021 0.930 . S
C4037 C4036 1.377 . S
C4037 C4038 1.379 . S
C4038 H4022 0.931 . S
C4038 C4032 1.383 . S
C4038 C4037 1.379 . S
H4039 C4033 0.959 . S
H4040 C4033 0.961 . S
H4041 C4033 0.960 . S
H4042 C4034 0.930 . S
H4043 C4035 0.929 . S
H4044 C4052 0.929 . S
H4045 C4054 0.930 . S
H4046 C4056 0.930 . S
H4047 C4059 0.929 . S
H4048 C4062 0.930 . S
H4049 C4064 0.960 . S
H4050 C4064 0.960 . S
H4051 C4064 0.960 . S
C4052 H4044 0.929 . S
C4052 C4053 1.377 . S
C4052 C4054 1.384 . S
C4053 C4052 1.377 . S
C4053 C4059 1.390 . S
C4054 H4045 0.930 . S
C4054 C4052 1.384 . S
C4054 C4055 1.372 . S
C4055 C4054 1.372 . S
C4055 C4056 1.400 . S
C4055 C4060 1.490 . S
C4056 H4046 0.930 . S
C4056 C4055 1.400 . S
C4056 C4059 1.386 . S
H4057 C4073 0.930 . S
H4058 C4074 0.931 . S
C4059 H4047 0.929 . S
C4059 C4053 1.390 . S
C4059 C4056 1.386 . S
C4060 C4055 1.490 . S
C4060 C4062 1.395 . S
C4060 C4063 1.403 . S
H4061 C4067 0.930 . S
C4062 H4048 0.930 . S
C4062 C4060 1.395 . S
C4062 C4065 1.403 . S
C4063 C4060 1.403 . S
C4063 C4064 1.524 . S
C4063 C4067 1.400 . S
C4064 H4049 0.960 . S
C4064 H4050 0.960 . S
C4064 H4051 0.960 . S
C4064 C4063 1.524 . S
C4065 C4062 1.403 . S
C4065 C4066 1.392 . S
C4065 C4069 1.495 . S
C4066 C4065 1.392 . S
C4066 C4067 1.385 . S
C4066 C4068 1.478 . S
C4067 H4061 0.930 . S
C4067 C4063 1.400 . S
C4067 C4066 1.385 . S
C4068 C4066 1.478 . S
C4068 C4070 1.381 . S
C4068 C4074 1.383 . S
C4069 C4065 1.495 . S
C4069 H4075 0.959 . S
C4069 H4076 0.961 . S
C4069 H4077 0.960 . S
C4070 C4068 1.381 . S
C4070 C4071 1.394 . S
C4070 H4078 0.930 . S
C4071 C4070 1.394 . S
C4071 C4072 1.383 . S
C4071 H4079 0.929 . S
C4072 C4071 1.383 . S
C4072 C4073 1.377 . S
C4073 H4057 0.930 . S
C4073 C4072 1.377 . S
C4073 C4074 1.379 . S
C4074 H4058 0.931 . S
C4074 C4068 1.383 . S
C4074 C4073 1.379 . S
H4075 C4069 0.959 . S
H4076 C4069 0.961 . S
H4077 C4069 0.960 . S
H4078 C4070 0.930 . S
H4079 C4071 0.929 . S
C633 C268 0.988 . S
C652 C8 0.969 . S
C669 C23 0.871 . S
C688 C229 0.905 . S
C705 C34 0.952 . S
C724 C244 0.985 . S
C741 C257 0.862 . S
C760 C49 0.863 . S
C777 C309 0.859 . S
C796 C62 0.897 . S
C813 C73 0.974 . S
C832 C283 0.991 . S
C849 C88 0.840 . S
C868 C296 0.837 . S
C885 C99 0.961 . S
C904 C216 0.957 . S
C921 C112 0.927 . S
C940 C203 0.921 . S
C957 C127 0.934 . S
C976 C166 0.961 . S
C993 C138 0.887 . S
C1012 C177 0.864 . S
C1029 C192 0.896 . S
C1048 C153 0.911 . S
C1065 C322 1.118 . S
C1084 C582 1.115 . S
C1101 C543 0.991 . S
C1120 C333 1.016 . S
C1137 C348 1.069 . S
C1156 C554 1.073 . S
C1173 C567 0.993 . S
C1192 C359 1.013 . S
C1209 C372 1.017 . S
C1228 C621 1.013 . S
C1245 C593 1.109 . S
C1264 C387 1.085 . S
C1281 C398 1.002 . S
C1300 C606 1.030 . S
C1317 C530 1.104 . S
C1336 C413 1.086 . S
C1353 C426 1.066 . S
C1372 C517 1.083 . S
C1389 C476 1.082 . S
C1408 C437 1.102 . S
C1425 C491 1.021 . S
C1444 C452 1.012 . S
C1461 C502 1.035 . S
C1480 C463 1.038 . S
C1497 C346 0.768 . S
C1516 C10 0.741 . S
C1533 C21 0.772 . S
C1552 C361 0.779 . S
C1569 C36 0.799 . S
C1588 C320 0.794 . S
C1605 C47 0.779 . S
C1624 C335 0.770 . S
C1641 C60 0.828 . S
C1660 C400 0.857 . S
C1677 C411 0.772 . S
C1696 C75 0.739 . S
C1713 C374 0.783 . S
C1732 C86 0.793 . S
C1749 C385 0.784 . S
C1768 C101 0.793 . S
C1785 C478 0.777 . S
C1804 C114 0.818 . S
C1821 C125 0.783 . S
C1840 C489 0.772 . S
C1857 C504 0.780 . S
C1876 C140 0.755 . S
C1893 C151 0.790 . S
C1912 C515 0.768 . S
C1929 C164 0.786 . S
C1948 C424 0.752 . S
C1965 C179 0.784 . S
C1984 C439 0.749 . S
C2001 C450 0.779 . S
C2020 C190 0.751 . S
C2037 C465 0.789 . S
C2056 C205 0.756 . S
C2073 C218 0.786 . S
C2092 C569 0.763 . S
C2109 C231 0.808 . S
C2128 C595 0.808 . S
C2145 C608 0.781 . S
C2164 C242 0.794 . S
C2181 C528 0.779 . S
C2200 C255 0.751 . S
C2217 C270 0.766 . S
C2236 C619 0.735 . S
C2253 C541 0.767 . S
C2272 C281 0.754 . S
C2289 C294 0.784 . S
C2308 C556 0.757 . S
C2325 C307 0.810 . S
C2344 C580 0.821 . S
C2361 C364 1.480 . S
C2380 C5 1.426 . S
C2397 C382 1.501 . S
C2416 C13 1.430 . S
C2433 C390 1.499 . S
C2452 C31 1.481 . S
C2469 C39 1.462 . S
C2488 C408 1.508 . S
C2505 C317 1.477 . S
C2524 C52 1.408 . S
C2541 C325 1.484 . S
C2560 C70 1.478 . S
C2577 C78 1.489 . S
C2596 C343 1.470 . S
C2613 C351 1.480 . S
C2632 C96 1.449 . S
C2649 C109 1.454 . S
C2668 C494 1.497 . S
C2685 C117 1.469 . S
C2704 C512 1.472 . S
C2721 C468 1.495 . S
C2740 C135 1.440 . S
C2757 C143 1.473 . S
C2776 C486 1.510 . S
C2793 C447 1.471 . S
C2812 C156 1.472 . S
C2829 C174 1.445 . S
C2848 C455 1.482 . S
C2865 C182 1.473 . S
C2884 C421 1.458 . S
C2901 C200 1.432 . S
C2920 C429 1.504 . S
C2937 C585 1.459 . S
C2956 C213 1.431 . S
C2973 C226 1.499 . S
C2992 C559 1.578 . S
C3009 C234 1.466 . S
C3028 C577 1.494 . S
C3045 C247 1.511 . S
C3064 C538 1.528 . S
C3081 C546 1.451 . S
C3100 C265 1.455 . S
C3117 C525 1.440 . S
C3136 C273 1.437 . S
C3153 C616 1.514 . S
C3172 C286 1.473 . S
C3189 C299 1.479 . S
C3208 C598 1.513 . S
C3225 C195 1.324 . S
C3244 C0 1.339 . S
C3261 C18 1.281 . S
C3280 C161 1.306 . S
C3297 C169 1.335 . S
C3316 C26 1.358 . S
C3333 C187 1.334 . S
C3352 C44 1.375 . S
C3369 C122 1.310 . S
C3388 C57 1.334 . S
C3405 C65 1.341 . S
C3424 C130 1.375 . S
C3441 C83 1.305 . S
C3460 C148 1.357 . S
C3477 C104 1.323 . S
C3496 C91 1.349 . S
C3513 C208 1.345 . S
C3532 C260 1.298 . S
C3549 C304 1.337 . S
C3568 C221 1.406 . S
C3585 C278 1.307 . S
C3604 C239 1.327 . S
C3621 C252 1.305 . S
C3640 C291 1.293 . S
C3657 C507 1.420 . S
C3676 C312 1.418 . S
C3693 C473 1.392 . S
C3712 C330 1.376 . S
C3729 C338 1.425 . S
C3748 C481 1.374 . S
C3765 C499 1.419 . S
C3784 C356 1.440 . S
C3801 C434 1.418 . S
C3820 C369 1.442 . S
C3837 C377 1.459 . S
C3856 C442 1.461 . S
C3873 C395 1.409 . S
C3892 C460 1.412 . S
C3909 C403 1.420 . S
C3928 C416 1.430 . S
C3945 C520 1.439 . S
C3964 C572 1.459 . S
C3981 C611 1.429 . S
C4000 C533 1.449 . S
C4017 C590 1.388 . S
C4036 C551 1.434 . S
C4053 C603 1.406 . S
C4072 C564 1.375 . S
