# Generated by pormake.
# Topology snl, (6)-cn, num edge types: 1
# Building blocks:
#     Node 0, Type 0, BuildingBlock: INOVEN_clean_sbu_0, # of connection points: 6
#     Node 1, Type 0, BuildingBlock: INOVEN_clean_sbu_0, # of connection points: 6
#     Node 2, Type 0, BuildingBlock: INOVEN_clean_sbu_0, # of connection points: 6
#     Node 3, Type 0, BuildingBlock: INOVEN_clean_sbu_0, # of connection points: 6
#     Node 4, Type 0, BuildingBlock: INOVEN_clean_sbu_0, # of connection points: 6
#     Node 5, Type 0, BuildingBlock: INOVEN_clean_sbu_0, # of connection points: 6
#     Node 6, Type 0, BuildingBlock: INOVEN_clean_sbu_0, # of connection points: 6
#     Node 7, Type 0, BuildingBlock: INOVEN_clean_sbu_0, # of connection points: 6
#     Node 8, Type 0, BuildingBlock: INOVEN_clean_sbu_0, # of connection points: 6
#     Node 9, Type 0, BuildingBlock: INOVEN_clean_sbu_0, # of connection points: 6
#     Node 10, Type 0, BuildingBlock: INOVEN_clean_sbu_0, # of connection points: 6
#     Node 11, Type 0, BuildingBlock: INOVEN_clean_sbu_0, # of connection points: 6
#     Node 12, Type 0, BuildingBlock: INOVEN_clean_sbu_0, # of connection points: 6
#     Node 13, Type 0, BuildingBlock: INOVEN_clean_sbu_0, # of connection points: 6
#     Node 14, Type 0, BuildingBlock: INOVEN_clean_sbu_0, # of connection points: 6
#     Node 15, Type 0, BuildingBlock: INOVEN_clean_sbu_0, # of connection points: 6
#     Edge 16, Type (0, 0), BuildingBlock: KIFKEQ_clean_linker_1, # of connection points: 2
#     Edge 17, Type (0, 0), BuildingBlock: KIFKEQ_clean_linker_1, # of connection points: 2
#     Edge 18, Type (0, 0), BuildingBlock: KIFKEQ_clean_linker_1, # of connection points: 2
#     Edge 19, Type (0, 0), BuildingBlock: KIFKEQ_clean_linker_1, # of connection points: 2
#     Edge 20, Type (0, 0), BuildingBlock: KIFKEQ_clean_linker_1, # of connection points: 2
#     Edge 21, Type (0, 0), BuildingBlock: KIFKEQ_clean_linker_1, # of connection points: 2
#     Edge 22, Type (0, 0), BuildingBlock: KIFKEQ_clean_linker_1, # of connection points: 2
#     Edge 23, Type (0, 0), BuildingBlock: KIFKEQ_clean_linker_1, # of connection points: 2
#     Edge 24, Type (0, 0), BuildingBlock: KIFKEQ_clean_linker_1, # of connection points: 2
#     Edge 25, Type (0, 0), BuildingBlock: KIFKEQ_clean_linker_1, # of connection points: 2
#     Edge 26, Type (0, 0), BuildingBlock: KIFKEQ_clean_linker_1, # of connection points: 2
#     Edge 27, Type (0, 0), BuildingBlock: KIFKEQ_clean_linker_1, # of connection points: 2
#     Edge 28, Type (0, 0), BuildingBlock: KIFKEQ_clean_linker_1, # of connection points: 2
#     Edge 29, Type (0, 0), BuildingBlock: KIFKEQ_clean_linker_1, # of connection points: 2
#     Edge 30, Type (0, 0), BuildingBlock: KIFKEQ_clean_linker_1, # of connection points: 2
#     Edge 31, Type (0, 0), BuildingBlock: KIFKEQ_clean_linker_1, # of connection points: 2
#     Edge 32, Type (0, 0), BuildingBlock: KIFKEQ_clean_linker_1, # of connection points: 2
#     Edge 33, Type (0, 0), BuildingBlock: KIFKEQ_clean_linker_1, # of connection points: 2
#     Edge 34, Type (0, 0), BuildingBlock: KIFKEQ_clean_linker_1, # of connection points: 2
#     Edge 35, Type (0, 0), BuildingBlock: KIFKEQ_clean_linker_1, # of connection points: 2
#     Edge 36, Type (0, 0), BuildingBlock: KIFKEQ_clean_linker_1, # of connection points: 2
#     Edge 37, Type (0, 0), BuildingBlock: KIFKEQ_clean_linker_1, # of connection points: 2
#     Edge 38, Type (0, 0), BuildingBlock: KIFKEQ_clean_linker_1, # of connection points: 2
#     Edge 39, Type (0, 0), BuildingBlock: KIFKEQ_clean_linker_1, # of connection points: 2
#     Edge 40, Type (0, 0), BuildingBlock: KIFKEQ_clean_linker_1, # of connection points: 2
#     Edge 41, Type (0, 0), BuildingBlock: KIFKEQ_clean_linker_1, # of connection points: 2
#     Edge 42, Type (0, 0), BuildingBlock: KIFKEQ_clean_linker_1, # of connection points: 2
#     Edge 43, Type (0, 0), BuildingBlock: KIFKEQ_clean_linker_1, # of connection points: 2
#     Edge 44, Type (0, 0), BuildingBlock: KIFKEQ_clean_linker_1, # of connection points: 2
#     Edge 45, Type (0, 0), BuildingBlock: KIFKEQ_clean_linker_1, # of connection points: 2
#     Edge 46, Type (0, 0), BuildingBlock: KIFKEQ_clean_linker_1, # of connection points: 2
#     Edge 47, Type (0, 0), BuildingBlock: KIFKEQ_clean_linker_1, # of connection points: 2
#     Edge 48, Type (0, 0), BuildingBlock: KIFKEQ_clean_linker_1, # of connection points: 2
#     Edge 49, Type (0, 0), BuildingBlock: KIFKEQ_clean_linker_1, # of connection points: 2
#     Edge 50, Type (0, 0), BuildingBlock: KIFKEQ_clean_linker_1, # of connection points: 2
#     Edge 51, Type (0, 0), BuildingBlock: KIFKEQ_clean_linker_1, # of connection points: 2
#     Edge 52, Type (0, 0), BuildingBlock: KIFKEQ_clean_linker_1, # of connection points: 2
#     Edge 53, Type (0, 0), BuildingBlock: KIFKEQ_clean_linker_1, # of connection points: 2
#     Edge 54, Type (0, 0), BuildingBlock: KIFKEQ_clean_linker_1, # of connection points: 2
#     Edge 55, Type (0, 0), BuildingBlock: KIFKEQ_clean_linker_1, # of connection points: 2
#     Edge 56, Type (0, 0), BuildingBlock: KIFKEQ_clean_linker_1, # of connection points: 2
#     Edge 57, Type (0, 0), BuildingBlock: KIFKEQ_clean_linker_1, # of connection points: 2
#     Edge 58, Type (0, 0), BuildingBlock: KIFKEQ_clean_linker_1, # of connection points: 2
#     Edge 59, Type (0, 0), BuildingBlock: KIFKEQ_clean_linker_1, # of connection points: 2
#     Edge 60, Type (0, 0), BuildingBlock: KIFKEQ_clean_linker_1, # of connection points: 2
#     Edge 61, Type (0, 0), BuildingBlock: KIFKEQ_clean_linker_1, # of connection points: 2
#     Edge 62, Type (0, 0), BuildingBlock: KIFKEQ_clean_linker_1, # of connection points: 2
#     Edge 63, Type (0, 0), BuildingBlock: KIFKEQ_clean_linker_1, # of connection points: 2
# Relax obj value: 0.189
# Max RMSD: 0.269
# Mean RMSD: 0.229
data_MOF--net-snl--node1-INOVEN_clean_sbu_0--edge1-KIFKEQ_clean_linker_1
_symmetry_space_group_name_H-M    P1
_symmetry_Int_Tables_number       1
_symmetry_cell_setting            triclinic
loop_
_symmetry_equiv_pos_as_xyz
'x, y, z'
_cell_length_a     57.122023
_cell_length_b     57.311941
_cell_length_c     26.026765
_cell_angle_alpha  100.23342
_cell_angle_beta   91.527437
_cell_angle_gamma 89.963127
loop_
_atom_site_label
_atom_site_type_symbol
_atom_site_fract_x
_atom_site_fract_y
_atom_site_fract_z
_atom_type_partial_charge
Gd0 Gd 0.16326 0.63378 0.10587 0.0
Gd1 Gd 0.14107 0.64032 0.21848 0.0
C2 C 0.10756 0.64467 0.12259 0.0
C3 C 0.17496 0.6148 1.01233 0.0
C4 C 0.17196 0.61881 0.95788 0.0
C5 C 0.17446 0.64142 0.94479 0.0
C6 C 0.16673 0.59947 0.91806 0.0
C7 C 0.1669 0.6251 0.85247 0.0
C8 C 0.1642 0.60255 0.86603 0.0
C9 C 0.172 0.64452 0.89266 0.0
C10 C 0.15752 0.68075 0.14413 0.0
C11 C 0.19762 0.63284 0.20824 0.0
C12 C 0.12949 0.65362 0.3149 0.0
C13 C 0.13602 0.65085 0.36878 0.0
C14 C 0.14774 0.63067 0.3797 0.0
C15 C 0.12938 0.66845 0.41031 0.0
C16 C 0.14504 0.64534 0.47352 0.0
C17 C 0.13383 0.66576 0.46204 0.0
C18 C 0.15223 0.62794 0.43162 0.0
C19 C 0.14042 0.59608 0.15968 0.0
O20 O 0.12348 0.63298 0.09169 0.0
O21 O 0.11231 0.65372 0.17202 0.0
O22 O 0.18843 0.62969 0.04419 0.0
O23 O 0.15614 0.60862 0.03445 0.0
O24 O 0.16671 0.67266 0.09947 0.0
O25 O 0.15227 0.66341 0.16527 0.0
O26 O 0.17926 0.63639 0.23866 0.0
O27 O 0.19587 0.63041 0.15643 0.0
O28 O 0.12047 0.63506 0.28407 0.0
O29 O 0.14386 0.66571 0.29113 0.0
O30 O 0.1239 0.60428 0.19125 0.0
O31 O 0.15673 0.61108 0.16343 0.0
H32 H 0.17844 0.65668 0.97475 0.0
H33 H 0.16462 0.58189 0.92724 0.0
H34 H 0.15985 0.58725 0.83649 0.0
H35 H 0.17446 0.6621 0.88381 0.0
H36 H 0.15305 0.61686 0.34817 0.0
H37 H 0.1204 0.6842 0.40274 0.0
H38 H 0.12845 0.67973 0.49312 0.0
H39 H 0.16077 0.61193 0.4389 0.0
Gd40 Gd 0.6606 0.90141 0.4203 0.0
Gd41 Gd 0.63806 0.90155 0.3166 0.0
C42 C 0.60362 0.89527 0.40526 0.0
C43 C 0.67392 0.90999 0.51804 0.0
C44 C 0.6661 0.90946 0.57164 0.0
C45 C 0.66147 0.88798 0.58854 0.0
C46 C 0.66539 0.93069 0.60801 0.0
C47 C 0.6568 0.90896 0.67783 0.0
C48 C 0.66073 0.93047 0.66042 0.0
C49 C 0.65686 0.88774 0.64102 0.0
C50 C 0.65753 0.85762 0.36035 0.0
C51 C 0.69497 0.90425 0.32634 0.0
C52 C 0.62391 0.89456 0.21956 0.0
C53 C 0.62981 0.89905 0.1671 0.0
C54 C 0.61402 0.91182 0.14061 0.0
C55 C 0.64976 0.88917 0.14119 0.0
C56 C 0.63725 0.90375 0.06223 0.0
C57 C 0.65344 0.89151 0.08932 0.0
C58 C 0.61773 0.91424 0.08894 0.0
C59 C 0.64097 0.94471 0.38004 0.0
O60 O 0.62121 0.9031 0.43824 0.0
O61 O 0.60728 0.88915 0.35498 0.0
O62 O 0.67714 0.88973 0.48704 0.0
O63 O 0.66484 0.92609 0.49375 0.0
O64 O 0.67548 0.86554 0.38974 0.0
O65 O 0.64171 0.87325 0.36449 0.0
O66 O 0.67616 0.90007 0.29547 0.0
O67 O 0.69339 0.90801 0.37782 0.0
O68 O 0.61747 0.91274 0.25403 0.0
O69 O 0.63676 0.87943 0.23994 0.0
O70 O 0.62298 0.93745 0.35013 0.0
O71 O 0.65684 0.92927 0.37334 0.0
H72 H 0.66203 0.87126 0.56162 0.0
H73 H 0.66902 0.94749 0.59614 0.0
H74 H 0.66043 0.94718 0.68741 0.0
H75 H 0.65416 0.87082 0.65303 0.0
H76 H 0.59846 0.91953 0.15957 0.0
H77 H 0.66223 0.87913 0.16044 0.0
H78 H 0.66856 0.88303 0.06994 0.0
H79 H 0.60512 0.92417 0.06976 0.0
Gd80 Gd 0.37804 0.39693 0.57076 0.0
Gd81 Gd 0.40172 0.4044 0.6825 0.0
C82 C 0.43463 0.39029 0.58646 0.0
C83 C 0.36332 0.40681 0.48226 0.0
C84 C 0.36666 0.40053 0.42527 0.0
C85 C 0.34698 0.39545 0.39172 0.0
C86 C 0.38882 0.40158 0.40351 0.0
C87 C 0.37127 0.39411 0.31554 0.0
C88 C 0.39109 0.39841 0.34926 0.0
C89 C 0.34925 0.3922 0.33751 0.0
C90 C 0.38425 0.35369 0.59863 0.0
C91 C 0.345 0.40269 0.67144 0.0
C92 C 0.41572 0.40679 0.7788 0.0
C93 C 0.40756 0.40428 0.83104 0.0
C94 C 0.41171 0.42296 0.87303 0.0
C95 C 0.39692 0.38339 0.8405 0.0
C96 C 0.39529 0.39986 0.93358 0.0
C97 C 0.39089 0.38119 0.89133 0.0
C98 C 0.40562 0.42082 0.92363 0.0
C99 C 0.39964 0.44215 0.63183 0.0
O100 O 0.41741 0.3964 0.55611 0.0
O101 O 0.4316 0.38857 0.63568 0.0
O102 O 0.35294 0.39122 0.50532 0.0
O103 O 0.3805 0.41817 0.51051 0.0
O104 O 0.37532 0.35698 0.55408 0.0
O105 O 0.38993 0.37363 0.62523 0.0
O106 O 0.36388 0.40055 0.70071 0.0
O107 O 0.34612 0.40393 0.62108 0.0
O108 O 0.40798 0.4251 0.75982 0.0
O109 O 0.4174 0.38758 0.74327 0.0
O110 O 0.41796 0.43706 0.65823 0.0
O111 O 0.38374 0.4272 0.63392 0.0
H112 H 0.32971 0.3946 0.40752 0.0
H113 H 0.40435 0.40552 0.42836 0.0
H114 H 0.4083 0.40024 0.33391 0.0
H115 H 0.33365 0.3885 0.31282 0.0
H116 H 0.42009 0.43916 0.86683 0.0
H117 H 0.39349 0.36867 0.80885 0.0
H118 H 0.38274 0.3649 0.89754 0.0
H119 H 0.40961 0.43541 0.95521 0.0
Gd120 Gd 0.88845 0.12686 0.84159 0.0
Gd121 Gd 0.89142 0.15233 0.96069 0.0
C122 C 0.89525 0.18434 0.8748 0.0
C123 C 0.87192 0.11245 0.74773 0.0
C124 C 0.87547 0.11609 0.69343 0.0
C125 C 0.89763 0.1142 0.67075 0.0
C126 C 0.85606 0.12146 0.66348 0.0
C127 C 0.88074 0.12307 0.58904 0.0
C128 C 0.85864 0.12495 0.61204 0.0
C129 C 0.90021 0.11757 0.61904 0.0
C130 C 0.934 0.13711 0.87098 0.0
C131 C 0.88868 0.0945 0.93322 0.0
C132 C 0.90067 0.16633 0.05956 0.0
C133 C 0.89733 0.15949 0.11142 0.0
C134 C 0.884 0.17416 0.14861 0.0
C135 C 0.90844 0.13961 0.12588 0.0
C136 C 0.89357 0.14981 0.21435 0.0
C137 C 0.90656 0.13482 0.1767 0.0
C138 C 0.88205 0.16935 0.19922 0.0
C139 C 0.84845 0.14802 0.91172 0.0
O140 O 0.88534 0.16662 0.84134 0.0
O141 O 0.90348 0.1815 0.92121 0.0
O142 O 0.8881 0.10094 0.76984 0.0
O143 O 0.86328 0.13046 0.77976 0.0
O144 O 0.9272 0.1269 0.82447 0.0
O145 O 0.91614 0.14125 0.89845 0.0
O146 O 0.89177 0.11402 0.9684 0.0
O147 O 0.88547 0.09487 0.88243 0.0
O148 O 0.88208 0.173 0.03552 0.0
O149 O 0.91521 0.15385 0.02759 0.0
O150 O 0.85486 0.16617 0.9466 0.0
O151 O 0.86454 0.13286 0.90689 0.0
H152 H 0.91296 0.11019 0.69292 0.0
H153 H 0.83877 0.1229 0.67994 0.0
H154 H 0.84321 0.12883 0.59002 0.0
H155 H 0.91752 0.11622 0.60283 0.0
H156 H 0.87532 0.18965 0.13876 0.0
H157 H 0.91897 0.12798 0.09833 0.0
H158 H 0.91586 0.11974 0.18684 0.0
H159 H 0.87152 0.18106 0.22658 0.0
Gd160 Gd 0.1548 0.40309 0.94902 0.0
Gd161 Gd 0.13202 0.39863 0.83455 0.0
C162 C 0.09869 0.39256 0.92642 0.0
C163 C 0.16729 0.42126 0.0439 0.0
C164 C 0.16424 0.41736 0.09802 0.0
C165 C 0.16765 0.39502 0.11215 0.0
C166 C 0.1582 0.4366 0.13657 0.0
C167 C 0.15934 0.41144 0.20301 0.0
C168 C 0.15572 0.4337 0.1884 0.0
C169 C 0.16526 0.39211 0.16411 0.0
C170 C 0.1488 0.35661 0.90602 0.0
C171 C 0.18871 0.40474 0.85029 0.0
C172 C 0.11973 0.38697 0.73683 0.0
C173 C 0.12692 0.38911 0.68381 0.0
C174 C 0.13845 0.40937 0.67354 0.0
C175 C 0.12103 0.37082 0.64218 0.0
C176 C 0.13686 0.39344 0.57996 0.0
C177 C 0.12595 0.37292 0.59087 0.0
C178 C 0.14338 0.41151 0.62205 0.0
C179 C 0.13327 0.44227 0.8962 0.0
O180 O 0.11509 0.40295 0.96016 0.0
O181 O 0.10299 0.3852 0.87659 0.0
O182 O 0.1801 0.40596 1.01321 0.0
O183 O 0.1487 0.42818 0.0201 0.0
O184 O 0.15837 0.36385 0.95188 0.0
O185 O 0.1433 0.37451 0.88651 0.0
O186 O 0.17023 0.40126 0.81799 0.0
O187 O 0.18711 0.40717 0.90193 0.0
O188 O 0.11263 0.40629 0.76705 0.0
O189 O 0.13241 0.37329 0.76181 0.0
O190 O 0.11616 0.43501 0.86331 0.0
O191 O 0.14891 0.42668 0.89253 0.0
H192 H 0.17231 0.37984 0.08321 0.0
H193 H 0.15542 0.45398 0.12657 0.0
H194 H 0.15074 0.4489 0.21694 0.0
H195 H 0.16843 0.37477 0.1739 0.0
H196 H 0.14322 0.4237 0.70514 0.0
H197 H 0.11222 0.355 0.64928 0.0
H198 H 0.1211 0.35846 0.55966 0.0
H199 H 0.15168 0.4276 0.61512 0.0
Gd200 Gd 0.88669 0.91299 0.18162 0.0
Gd201 Gd 0.88328 0.88511 0.06344 0.0
C202 C 0.89265 0.8548 0.15263 0.0
C203 C 0.87354 0.92883 0.27598 0.0
C204 C 0.87687 0.92484 0.33044 0.0
C205 C 0.89826 0.9172 0.34949 0.0
C206 C 0.85787 0.92853 0.36392 0.0
C207 C 0.8814 0.91699 0.43504 0.0
C208 C 0.86007 0.92469 0.41547 0.0
C209 C 0.90052 0.91338 0.40132 0.0
C210 C 0.93023 0.90341 0.14359 0.0
C211 C 0.88476 0.94316 0.08737 0.0
C212 C 0.88567 0.86972 0.9637 0.0
C213 C 0.88845 0.87793 0.9132 0.0
C214 C 0.87753 0.89861 0.90253 0.0
C215 C 0.90077 0.86373 0.87339 0.0
C216 C 0.89012 0.8899 0.81194 0.0
C217 C 0.90165 0.86963 0.82345 0.0
C218 C 0.87833 0.9045 0.85246 0.0
C219 C 0.84378 0.8898 0.12035 0.0
O220 O 0.88643 0.8736 0.18742 0.0
O221 O 0.89585 0.85579 0.1029 0.0
O222 O 0.89095 0.93809 0.25434 0.0
O223 O 0.86238 0.91209 0.24373 0.0
O224 O 0.92649 0.915 0.19024 0.0
O225 O 0.91074 0.89803 0.12095 0.0
O226 O 0.88765 0.92309 0.05409 0.0
O227 O 0.88167 0.94378 0.13815 0.0
O228 O 0.86603 0.87506 0.98783 0.0
O229 O 0.90395 0.87105 0.99571 0.0
O230 O 0.84899 0.87068 0.0878 0.0
O231 O 0.85935 0.90534 0.12006 0.0
H232 H 0.91315 0.91404 0.32431 0.0
H233 H 0.84119 0.93442 0.35012 0.0
H234 H 0.84506 0.92804 0.44021 0.0
H235 H 0.91714 0.90722 0.41468 0.0
H236 H 0.86797 0.90996 0.93254 0.0
H237 H 0.90921 0.84762 0.88052 0.0
H238 H 0.91068 0.8578 0.79334 0.0
H239 H 0.86956 0.92043 0.84541 0.0
Gd240 Gd 0.3878 0.62043 0.36901 0.0
Gd241 Gd 0.38707 0.64587 0.48756 0.0
C242 C 0.39284 0.6784 0.40226 0.0
C243 C 0.37264 0.60502 0.27446 0.0
C244 C 0.37571 0.60916 0.22055 0.0
C245 C 0.39776 0.61375 0.20176 0.0
C246 C 0.35594 0.60853 0.18722 0.0
C247 C 0.38008 0.61695 0.11673 0.0
C248 C 0.35806 0.61239 0.13597 0.0
C249 C 0.39994 0.61753 0.15027 0.0
C250 C 0.43227 0.63154 0.40431 0.0
C251 C 0.3873 0.58778 0.46007 0.0
C252 C 0.39343 0.66062 0.58708 0.0
C253 C 0.39117 0.6532 0.63866 0.0
C254 C 0.37341 0.66303 0.67205 0.0
C255 C 0.40757 0.63805 0.65702 0.0
C256 C 0.38889 0.64349 0.74171 0.0
C257 C 0.4064 0.63322 0.70788 0.0
C258 C 0.37221 0.65817 0.72273 0.0
C259 C 0.34588 0.64094 0.43201 0.0
O260 O 0.38518 0.66018 0.36664 0.0
O261 O 0.39888 0.67594 0.45039 0.0
O262 O 0.38998 0.59513 0.29673 0.0
O263 O 0.36244 0.62203 0.30636 0.0
O264 O 0.42699 0.62059 0.35739 0.0
O265 O 0.41365 0.63576 0.42911 0.0
O266 O 0.38747 0.60738 0.49584 0.0
O267 O 0.3866 0.58811 0.40901 0.0
O268 O 0.37403 0.66398 0.56147 0.0
O269 O 0.41002 0.65103 0.55644 0.0
O270 O 0.35147 0.65968 0.46605 0.0
O271 O 0.36194 0.62578 0.43054 0.0
H272 H 0.41328 0.61451 0.22686 0.0
H273 H 0.33876 0.605 0.20087 0.0
H274 H 0.34245 0.6115 0.11116 0.0
H275 H 0.41711 0.62126 0.13697 0.0
H276 H 0.36063 0.67492 0.65931 0.0
H277 H 0.42164 0.63034 0.63259 0.0
H278 H 0.41969 0.62202 0.72119 0.0
H279 H 0.35823 0.66608 0.74719 0.0
Gd280 Gd 0.65999 0.13786 0.60498 0.0
Gd281 Gd 0.63744 0.14107 0.70739 0.0
C282 C 0.60292 0.14373 0.61329 0.0
C283 C 0.67271 0.12669 0.50855 0.0
C284 C 0.66658 0.13007 0.45446 0.0
C285 C 0.67691 0.14852 0.43373 0.0
C286 C 0.65226 0.11357 0.42135 0.0
C287 C 0.65931 0.13354 0.34773 0.0
C288 C 0.64858 0.11534 0.36872 0.0
C289 C 0.67326 0.15028 0.38116 0.0
C290 C 0.65659 0.18306 0.65769 0.0
C291 C 0.69413 0.13812 0.70394 0.0
C292 C 0.62416 0.15045 0.80351 0.0
C293 C 0.63111 0.14767 0.85736 0.0
C294 C 0.63529 0.12529 0.87079 0.0
C295 C 0.63198 0.1678 0.89692 0.0
C296 C 0.64024 0.1433 0.96284 0.0
C297 C 0.63654 0.16568 0.94897 0.0
C298 C 0.63978 0.12314 0.92299 0.0
C299 C 0.64092 0.09643 0.65047 0.0
O300 O 0.62052 0.13514 0.58334 0.0
O301 O 0.60641 0.15168 0.6635 0.0
O302 O 0.68093 0.14499 0.54127 0.0
O303 O 0.65891 0.11346 0.53077 0.0
O304 O 0.67428 0.17473 0.6303 0.0
O305 O 0.64093 0.16726 0.65451 0.0
O306 O 0.67563 0.1455 0.73146 0.0
O307 O 0.69196 0.13025 0.65299 0.0
O308 O 0.6177 0.13146 0.77049 0.0
O309 O 0.63647 0.16517 0.78193 0.0
O310 O 0.62281 0.10417 0.67716 0.0
O311 O 0.65652 0.11224 0.65694 0.0
H312 H 0.68827 0.16139 0.45784 0.0
H313 H 0.64434 0.09889 0.43573 0.0
H314 H 0.63796 0.10197 0.34406 0.0
H315 H 0.68155 0.16471 0.36662 0.0
H316 H 0.63476 0.10941 0.84118 0.0
H317 H 0.6286 0.18523 0.88769 0.0
H318 H 0.63645 0.18156 0.97857 0.0
H319 H 0.64285 0.10567 0.93214 0.0
Gd320 Gd 0.89272 0.39987 0.84186 0.0
Gd321 Gd 0.86962 0.40445 0.95337 0.0
C322 C 0.83592 0.40483 0.84991 0.0
C323 C 0.90534 0.38799 0.74579 0.0
C324 C 0.89861 0.39011 0.69165 0.0
C325 C 0.8844 0.40862 0.68014 0.0
C326 C 0.9075 0.37366 0.65051 0.0
C327 C 0.88904 0.39468 0.58655 0.0
C328 C 0.90278 0.37587 0.59861 0.0
C329 C 0.87963 0.41087 0.62803 0.0
C330 C 0.89191 0.44359 0.90285 0.0
C331 C 0.92561 0.39451 0.93835 0.0
C332 C 0.85688 0.4225 0.04671 0.0
C333 C 0.85999 0.41866 0.1012 0.0
C334 C 0.86019 0.39583 0.11388 0.0
C335 C 0.86266 0.43836 0.14143 0.0
C336 C 0.86531 0.41262 0.20669 0.0
C337 C 0.86531 0.43541 0.19351 0.0
C338 C 0.86278 0.39285 0.16608 0.0
C339 C 0.87647 0.35799 0.91235 0.0
O340 O 0.85457 0.40229 0.82032 0.0
O341 O 0.83722 0.40699 0.9017 0.0
O342 O 0.91255 0.40732 0.77688 0.0
O343 O 0.89218 0.37453 0.76903 0.0
O344 O 0.9089 0.43609 0.87201 0.0
O345 O 0.87592 0.42816 0.89767 0.0
O346 O 0.90928 0.4053 0.96945 0.0
O347 O 0.92151 0.38654 0.88817 0.0
O348 O 0.84429 0.40689 1.01451 0.0
O349 O 0.87538 0.42973 0.02517 0.0
O350 O 0.86688 0.36522 0.95701 0.0
O351 O 0.88157 0.37588 0.89296 0.0
H352 H 0.87733 0.42151 0.71137 0.0
H353 H 0.91842 0.35919 0.65856 0.0
H354 H 0.90993 0.3628 0.56786 0.0
H355 H 0.8691 0.42564 0.62028 0.0
H356 H 0.85823 0.38031 0.08354 0.0
H357 H 0.8627 0.45613 0.13252 0.0
H358 H 0.86765 0.45104 0.22341 0.0
H359 H 0.86246 0.37504 0.17464 0.0
Gd360 Gd 0.39461 0.14151 0.70286 0.0
Gd361 Gd 0.37314 0.13675 0.58978 0.0
C362 C 0.33797 0.13673 0.68715 0.0
C363 C 0.40605 0.15273 0.80126 0.0
C364 C 0.3997 0.14803 0.85351 0.0
C365 C 0.40905 0.1285 0.87293 0.0
C366 C 0.38589 0.1643 0.88644 0.0
C367 C 0.39149 0.14203 0.95747 0.0
C368 C 0.38176 0.1613 0.93767 0.0
C369 C 0.40495 0.12551 0.92417 0.0
C370 C 0.3934 0.09726 0.6435 0.0
C371 C 0.42908 0.1467 0.6134 0.0
C372 C 0.36084 0.11774 0.49518 0.0
C373 C 0.36439 0.12114 0.44106 0.0
C374 C 0.369 0.14361 0.42907 0.0
C375 C 0.36315 0.10142 0.40062 0.0
C376 C 0.37086 0.12649 0.33636 0.0
C377 C 0.36635 0.10404 0.34884 0.0
C378 C 0.37213 0.14627 0.37716 0.0
C379 C 0.38026 0.18357 0.62733 0.0
O380 O 0.35643 0.13877 0.71936 0.0
O381 O 0.3398 0.13511 0.63576 0.0
O382 O 0.41607 0.13564 0.76922 0.0
O383 O 0.39132 0.16503 0.77741 0.0
O384 O 0.4104 0.10499 0.6762 0.0
O385 O 0.37771 0.11282 0.64595 0.0
O386 O 0.41299 0.13565 0.5798 0.0
O387 O 0.42398 0.15521 0.66223 0.0
O388 O 0.34825 0.13366 0.52472 0.0
O389 O 0.37918 0.11089 0.51987 0.0
O390 O 0.37114 0.17522 0.58166 0.0
O391 O 0.38491 0.16656 0.65091 0.0
H392 H 0.41996 0.11571 0.84892 0.0
H393 H 0.37872 0.17975 0.87307 0.0
H394 H 0.37156 0.17454 0.96232 0.0
H395 H 0.41247 0.11029 0.93781 0.0
H396 H 0.37021 0.15906 0.45978 0.0
H397 H 0.3596 0.08394 0.40908 0.0
H398 H 0.36495 0.08847 0.31847 0.0
H399 H 0.37586 0.16376 0.36906 0.0
Gd400 Gd 0.64717 0.65322 0.45462 0.0
Gd401 Gd 0.64811 0.62714 0.33521 0.0
C402 C 0.65148 0.59536 0.42751 0.0
C403 C 0.63847 0.66698 0.55257 0.0
C404 C 0.63952 0.65867 0.60331 0.0
C405 C 0.65921 0.64687 0.61954 0.0
C406 C 0.62088 0.66387 0.63747 0.0
C407 C 0.642 0.64676 0.7045 0.0
C408 C 0.62206 0.65796 0.6874 0.0
C409 C 0.66046 0.64103 0.66965 0.0
C410 C 0.6889 0.65022 0.40618 0.0
C411 C 0.64062 0.68482 0.36698 0.0
C412 C 0.66347 0.61299 0.24222 0.0
C413 C 0.65969 0.61671 0.18764 0.0
C414 C 0.638 0.61222 0.16079 0.0
C415 C 0.67854 0.62446 0.16141 0.0
C416 C 0.65426 0.62322 0.08241 0.0
C417 C 0.67588 0.62773 0.10958 0.0
C418 C 0.63535 0.6154 0.1087 0.0
C419 C 0.60311 0.63452 0.36635 0.0
O420 O 0.64873 0.61486 0.46267 0.0
O421 O 0.65302 0.59559 0.3766 0.0
O422 O 0.65839 0.67093 0.53175 0.0
O423 O 0.62263 0.65727 0.51803 0.0
O424 O 0.68279 0.66831 0.44079 0.0
O425 O 0.67323 0.63448 0.40117 0.0
O426 O 0.64874 0.66679 0.33271 0.0
O427 O 0.6349 0.68257 0.41476 0.0
O428 O 0.64736 0.6015 0.26298 0.0
O429 O 0.67255 0.6309 0.27508 0.0
O430 O 0.60877 0.62391 0.32002 0.0
O431 O 0.62179 0.64059 0.39197 0.0
H432 H 0.6738 0.64249 0.59387 0.0
H433 H 0.60555 0.67304 0.62591 0.0
H434 H 0.60763 0.66287 0.71323 0.0
H435 H 0.67593 0.63211 0.68119 0.0
H436 H 0.62311 0.60624 0.17992 0.0
H437 H 0.6955 0.62786 0.18101 0.0
H438 H 0.69093 0.63341 0.09049 0.0
H439 H 0.61839 0.61197 0.0892 0.0
Gd440 Gd 0.14641 0.88562 0.07171 0.0
Gd441 Gd 0.14618 0.91165 0.19062 0.0
C442 C 0.14705 0.94355 0.09816 0.0
C443 C 0.13898 0.87124 0.9724 0.0
C444 C 0.13934 0.87999 0.92192 0.0
C445 C 0.16053 0.88278 0.89728 0.0
C446 C 0.1182 0.88379 0.8958 0.0
C447 C 0.13938 0.89222 0.82081 0.0
C448 C 0.11821 0.88991 0.84602 0.0
C449 C 0.16054 0.88885 0.84746 0.0
C450 C 0.18818 0.8905 0.1255 0.0
C451 C 0.14162 0.85379 0.15848 0.0
C452 C 0.15964 0.92704 0.28632 0.0
C453 C 0.15452 0.92315 0.33988 0.0
C454 C 0.14514 0.94158 0.37633 0.0
C455 C 0.16023 0.90166 0.35619 0.0
C456 C 0.14772 0.91732 0.4446 0.0
C457 C 0.15689 0.89881 0.40781 0.0
C458 C 0.14169 0.93869 0.42798 0.0
C459 C 0.10161 0.90018 0.15494 0.0
O460 O 0.14475 0.92383 0.06326 0.0
O461 O 0.14957 0.94347 0.14924 0.0
O462 O 0.1591 0.86905 0.99639 0.0
O463 O 0.12231 0.87901 1.00466 0.0
O464 O 0.18252 0.87222 0.09016 0.0
O465 O 0.17197 0.90562 0.12868 0.0
O466 O 0.14969 0.87212 0.19313 0.0
O467 O 0.13523 0.85579 0.11026 0.0
O468 O 0.14369 0.93784 0.26189 0.0
O469 O 0.1699 0.90965 0.2555 0.0
O470 O 0.10684 0.91041 0.20236 0.0
O471 O 0.12035 0.89656 0.13058 0.0
H472 H 0.17717 0.87975 0.91587 0.0
H473 H 0.10157 0.8816 0.91347 0.0
H474 H 0.10157 0.89269 0.82716 0.0
H475 H 0.17718 0.89012 0.82916 0.0
H476 H 0.1407 0.95837 0.36503 0.0
H477 H 0.16768 0.88709 0.32939 0.0
H478 H 0.16211 0.88224 0.41914 0.0
H479 H 0.13429 0.95324 0.45487 0.0
Gd480 Gd 0.8991 0.64148 0.22614 0.0
Gd481 Gd 0.87728 0.63827 0.12087 0.0
C482 C 0.8425 0.63894 0.21492 0.0
C483 C 0.912 0.65041 0.32415 0.0
C484 C 0.90555 0.6462 0.37672 0.0
C485 C 0.91393 0.62622 0.39586 0.0
C486 C 0.89297 0.66339 0.41031 0.0
C487 C 0.89803 0.64114 0.48152 0.0
C488 C 0.88918 0.66085 0.46198 0.0
C489 C 0.91016 0.62368 0.44752 0.0
C490 C 0.89562 0.59679 0.16897 0.0
C491 C 0.93421 0.64559 0.13787 0.0
C492 C 0.86487 0.62648 0.02295 0.0
C493 C 0.87192 0.62831 0.96956 0.0
C494 C 0.87881 0.64997 0.95631 0.0
C495 C 0.87015 0.60816 0.93021 0.0
C496 C 0.88092 0.63141 0.86451 0.0
C497 C 0.87462 0.60965 0.87831 0.0
C498 C 0.88322 0.65151 0.90429 0.0
C499 C 0.87999 0.68341 0.17452 0.0
O500 O 0.86098 0.64595 0.24509 0.0
O501 O 0.84475 0.63122 0.16421 0.0
O502 O 0.91972 0.63242 0.29087 0.0
O503 O 0.8987 0.66454 0.30187 0.0
O504 O 0.91367 0.60464 0.19802 0.0
O505 O 0.88012 0.61255 0.17302 0.0
O506 O 0.91694 0.63665 0.10496 0.0
O507 O 0.93003 0.65315 0.18748 0.0
O508 O 0.858 0.64584 0.05308 0.0
O509 O 0.87739 0.61281 0.04809 0.0
O510 O 0.86244 0.67474 0.14473 0.0
O511 O 0.89585 0.66793 0.17332 0.0
H512 H 0.92391 0.61274 0.37132 0.0
H513 H 0.88659 0.67919 0.39717 0.0
H514 H 0.88003 0.6748 0.48713 0.0
H515 H 0.91694 0.60811 0.46095 0.0
H516 H 0.88039 0.6658 0.98593 0.0
H517 H 0.86472 0.5913 0.93946 0.0
H518 H 0.87241 0.59388 0.84875 0.0
H519 H 0.88836 0.66847 0.89517 0.0
Gd520 Gd 0.1543 0.15233 0.96545 0.0
Gd521 Gd 0.14889 0.12524 0.84777 0.0
C522 C 0.1505 0.09455 0.94121 0.0
C523 C 0.15443 0.16766 0.06544 0.0
C524 C 0.15041 0.1599 0.11589 0.0
C525 C 0.14097 0.17603 0.15697 0.0
C526 C 0.15738 0.13744 0.12507 0.0
C527 C 0.14657 0.14793 0.21662 0.0
C528 C 0.1555 0.13153 0.1749 0.0
C529 C 0.13903 0.17014 0.20668 0.0
C530 C 0.19279 0.14808 0.90505 0.0
C531 C 0.14323 0.18325 0.87838 0.0
C532 C 0.15985 0.10923 0.75205 0.0
C533 C 0.1548 0.11353 0.69819 0.0
C534 C 0.14908 0.09436 0.65826 0.0
C535 C 0.15726 0.13619 0.68515 0.0
C536 C 0.14939 0.12014 0.59278 0.0
C537 C 0.15462 0.13943 0.63315 0.0
C538 C 0.14634 0.0976 0.60628 0.0
C539 C 0.10592 0.13566 0.88815 0.0
O540 O 0.14809 0.11462 0.97467 0.0
O541 O 0.15355 0.09405 0.89045 0.0
O542 O 0.17295 0.15922 0.03995 0.0
O543 O 0.13616 0.16933 0.03473 0.0
O544 O 0.18784 0.16709 0.93815 0.0
O545 O 0.17747 0.13241 0.90638 0.0
O546 O 0.1495 0.16477 0.84278 0.0
O547 O 0.14062 0.18182 0.92805 0.0
O548 O 0.1432 0.09978 0.77564 0.0
O549 O 0.17184 0.12565 0.78343 0.0
O550 O 0.10915 0.12529 0.84035 0.0
O551 O 0.12563 0.13999 0.91057 0.0
H552 H 0.13563 0.19352 0.15096 0.0
H553 H 0.16469 0.12462 0.09403 0.0
H554 H 0.16117 0.11414 0.18082 0.0
H555 H 0.13233 0.18334 0.23778 0.0
H556 H 0.14713 0.07671 0.66715 0.0
H557 H 0.16173 0.15137 0.71494 0.0
H558 H 0.1574 0.157 0.6245 0.0
H559 H 0.14191 0.08237 0.57664 0.0
Gd560 Gd 0.65128 0.38537 0.55465 0.0
Gd561 Gd 0.64809 0.41321 0.6725 0.0
C562 C 0.6524 0.44357 0.57913 0.0
C563 C 0.64745 0.37016 0.4549 0.0
C564 C 0.64594 0.37878 0.40432 0.0
C565 C 0.66481 0.39054 0.38617 0.0
C566 C 0.62598 0.37348 0.37166 0.0
C567 C 0.64418 0.39039 0.30261 0.0
C568 C 0.62506 0.37929 0.32158 0.0
C569 C 0.66394 0.39625 0.33597 0.0
C570 C 0.69068 0.38979 0.61613 0.0
C571 C 0.64147 0.35507 0.6426 0.0
C572 C 0.66074 0.42855 0.76889 0.0
C573 C 0.65664 0.42367 0.82227 0.0
C574 C 0.6397 0.43629 0.8542 0.0
C575 C 0.67083 0.40736 0.84316 0.0
C576 C 0.65121 0.41635 0.92652 0.0
C577 C 0.6681 0.40371 0.89443 0.0
C578 C 0.63698 0.43264 0.90561 0.0
C579 C 0.60457 0.40466 0.62816 0.0
O580 O 0.65014 0.4236 0.54473 0.0
O581 O 0.6538 0.4441 0.63047 0.0
O582 O 0.66753 0.37265 0.4809 0.0
O583 O 0.62934 0.37377 0.48523 0.0
O584 O 0.6854 0.37072 0.58266 0.0
O585 O 0.67531 0.40538 0.61423 0.0
O586 O 0.64784 0.37381 0.67826 0.0
O587 O 0.63818 0.35619 0.59262 0.0
O588 O 0.64373 0.43819 0.74496 0.0
O589 O 0.67225 0.41243 0.73735 0.0
O590 O 0.60838 0.41623 0.6753 0.0
O591 O 0.62405 0.39861 0.60876 0.0
H592 H 0.68054 0.39482 0.41016 0.0
H593 H 0.6112 0.36437 0.38448 0.0
H594 H 0.60937 0.37487 0.29757 0.0
H595 H 0.67913 0.40455 0.32273 0.0
H596 H 0.62867 0.4492 0.83968 0.0
H597 H 0.68437 0.39762 0.82017 0.0
H598 H 0.67969 0.39135 0.90931 0.0
H599 H 0.62364 0.44255 0.92892 0.0
Gd600 Gd 0.39442 0.89323 0.33977 0.0
Gd601 Gd 0.3742 0.89891 0.44371 0.0
C602 C 0.33834 0.89757 0.34791 0.0
C603 C 0.40618 0.88248 0.24266 0.0
C604 C 0.40019 0.88699 0.18938 0.0
C605 C 0.40793 0.90764 0.17264 0.0
C606 C 0.38861 0.86943 0.15301 0.0
C607 C 0.39337 0.89263 0.0839 0.0
C608 C 0.38515 0.87224 0.101 0.0
C609 C 0.40452 0.91043 0.12059 0.0
C610 C 0.39219 0.93902 0.39225 0.0
C611 C 0.43065 0.89172 0.43058 0.0
C612 C 0.36299 0.9123 0.54059 0.0
C613 C 0.36955 0.90979 0.59462 0.0
C614 C 0.37629 0.88791 0.6075 0.0
C615 C 0.36762 0.92954 0.63463 0.0
C616 C 0.37805 0.9055 0.70021 0.0
C617 C 0.37183 0.92746 0.6868 0.0
C618 C 0.38047 0.88579 0.65981 0.0
C619 C 0.37618 0.85268 0.39522 0.0
O620 O 0.35582 0.88814 0.31946 0.0
O621 O 0.34193 0.9073 0.39753 0.0
O622 O 0.4158 0.89972 0.27619 0.0
O623 O 0.39143 0.86995 0.26427 0.0
O624 O 0.4097 0.93037 0.36465 0.0
O625 O 0.37648 0.92345 0.38904 0.0
O626 O 0.41402 0.90216 0.46108 0.0
O627 O 0.42558 0.88184 0.38203 0.0
O628 O 0.35396 0.89378 0.50997 0.0
O629 O 0.37723 0.92429 0.5165 0.0
O630 O 0.35904 0.86205 0.42316 0.0
O631 O 0.39204 0.86807 0.39546 0.0
H632 H 0.41709 0.92148 0.19942 0.0
H633 H 0.38278 0.85315 0.16441 0.0
H634 H 0.37676 0.85803 0.07376 0.0
H635 H 0.4108 0.9265 0.10899 0.0
H636 H 0.37798 0.8724 0.57728 0.0
H637 H 0.36231 0.94655 0.62559 0.0
H638 H 0.3695 0.94295 0.71676 0.0
H639 H 0.38555 0.86869 0.66862 0.0
H640 H 0.18155 0.59538 0.76445 0.0
H641 H 0.14645 0.66208 0.81374 0.0
H642 H 0.17627 0.59993 0.67357 0.0
H643 H 0.14217 0.66716 0.72304 0.0
H644 H 0.11471 0.65611 0.55405 0.0
H645 H 0.12042 0.6514 0.64459 0.0
H646 H 0.1892 0.62245 0.60975 0.0
H647 H 0.18341 0.62709 0.51881 0.0
C648 C 0.1727 0.61103 0.75601 0.0
C649 C 0.16434 0.62829 0.79674 0.0
C650 C 0.16995 0.6138 0.70377 0.0
C651 C 0.15876 0.63391 0.69067 0.0
C652 C 0.1506 0.65127 0.73142 0.0
C653 C 0.15333 0.6485 0.78365 0.0
C654 C 0.13116 0.64895 0.5657 0.0
C655 C 0.14864 0.64211 0.52896 0.0
C656 C 0.13445 0.64626 0.6178 0.0
C657 C 0.15533 0.63665 0.63484 0.0
C658 C 0.17277 0.62964 0.59804 0.0
C659 C 0.16946 0.63231 0.5458 0.0
H660 H 0.60325 0.90008 0.98488 0.0
H661 H 0.67787 0.90975 1.01159 0.0
H662 H 0.60774 0.90208 0.89311 0.0
H663 H 0.68251 0.91059 0.91906 0.0
H664 H 0.67965 0.9357 0.76212 0.0
H665 H 0.67464 0.93496 0.85441 0.0
H666 H 0.62256 0.87964 0.81416 0.0
H667 H 0.62676 0.88118 0.72189 0.0
C668 C 0.62063 0.90272 0.97128 0.0
C669 C 0.64018 0.90489 1.00591 0.0
C670 C 0.62325 0.90353 0.91836 0.0
C671 C 0.6455 0.90645 0.89846 0.0
C672 C 0.66507 0.9086 0.93305 0.0
C673 C 0.66244 0.90783 0.98607 0.0
C674 C 0.66686 0.92361 0.7729 0.0
C675 C 0.65353 0.90857 0.73438 0.0
C676 C 0.66424 0.92295 0.82592 0.0
C677 C 0.64824 0.9072 0.84191 0.0
C678 C 0.63487 0.89219 0.8034 0.0
C679 C 0.63747 0.89288 0.75036 0.0
H680 H 0.34149 0.41245 0.24872 0.0
H681 H 0.40596 0.3732 0.25189 0.0
H682 H 0.34556 0.41194 0.15573 0.0
H683 H 0.41057 0.37364 0.15914 0.0
H684 H 0.40203 0.36129 0.98147 0.0
H685 H 0.3948 0.35827 0.07215 0.0
H686 H 0.36977 0.43045 0.10023 0.0
H687 H 0.37616 0.43313 1.00938 0.0
C688 C 0.35645 0.40351 0.22956 0.0
C689 C 0.37339 0.39285 0.25804 0.0
C690 C 0.35895 0.40351 0.17624 0.0
C691 C 0.37847 0.39289 0.14984 0.0
C692 C 0.3952 0.38181 0.17802 0.0
C693 C 0.3927 0.3818 0.23143 0.0
C694 C 0.39463 0.37638 1.0068 0.0
C695 C 0.38974 0.39748 0.98809 0.0
C696 C 0.39075 0.37474 0.05899 0.0
C697 C 0.38178 0.39414 0.0937 0.0
C698 C 0.37647 0.41506 0.07462 0.0
C699 C 0.38038 0.4167 0.02257 0.0
H700 H 0.85998 0.15712 0.5416 0.0
H701 H 0.90735 0.09781 0.51181 0.0
H702 H 0.86328 0.16298 0.4516 0.0
H703 H 0.91114 0.10407 0.42186 0.0
H704 H 0.89065 0.10719 0.24925 0.0
H705 H 0.88832 0.10063 0.33919 0.0
H706 H 0.89152 0.1762 0.39441 0.0
H707 H 0.89414 0.18279 0.30493 0.0
C708 C 0.87109 0.14528 0.51584 0.0
C709 C 0.88335 0.12694 0.53411 0.0
C710 C 0.87318 0.14881 0.46427 0.0
C711 C 0.88751 0.13403 0.42929 0.0
C712 C 0.89978 0.11566 0.4475 0.0
C713 C 0.89781 0.11223 0.49928 0.0
C714 C 0.89111 0.12242 0.28054 0.0
C715 C 0.89242 0.14555 0.26942 0.0
C716 C 0.88976 0.11864 0.33222 0.0
C717 C 0.8896 0.13788 0.37421 0.0
C718 C 0.89115 0.16097 0.36311 0.0
C719 C 0.89259 0.16474 0.31159 0.0
H720 H 0.17297 0.44221 0.29214 0.0
H721 H 0.14014 0.37392 0.23998 0.0
H722 H 0.16769 0.43801 0.38263 0.0
H723 H 0.13586 0.36925 0.33046 0.0
H724 H 0.10717 0.38093 0.49522 0.0
H725 H 0.1132 0.38499 0.40508 0.0
H726 H 0.18123 0.41624 0.449 0.0
H727 H 0.17514 0.41221 0.53955 0.0
C728 C 0.16463 0.42628 0.29988 0.0
C729 C 0.15687 0.40847 0.25851 0.0
C730 C 0.16188 0.42374 0.35191 0.0
C731 C 0.15131 0.4033 0.36405 0.0
C732 C 0.1438 0.38537 0.32269 0.0
C733 C 0.14652 0.38793 0.27067 0.0
C734 C 0.12355 0.38844 0.48567 0.0
C735 C 0.14072 0.39612 0.52478 0.0
C736 C 0.12701 0.39076 0.43383 0.0
C737 C 0.14776 0.40084 0.4195 0.0
C738 C 0.16491 0.40865 0.45863 0.0
C739 C 0.16143 0.40634 0.51062 0.0
H740 H 0.92568 0.88522 0.74138 0.0
H741 H 0.85329 0.90621 0.75836 0.0
H742 H 0.924 0.89145 0.65097 0.0
H743 H 0.85185 0.9132 0.66868 0.0
H744 H 0.84895 0.89698 0.49025 0.0
H745 H 0.85152 0.89124 0.58066 0.0
H746 H 0.9211 0.9215 0.59615 0.0
H747 H 0.91851 0.9273 0.50542 0.0
C748 C 0.90941 0.89123 0.72597 0.0
C749 C 0.88961 0.89512 0.75745 0.0
C750 C 0.90852 0.89505 0.67413 0.0
C751 C 0.88776 0.90275 0.65211 0.0
C752 C 0.86806 0.90696 0.68386 0.0
C753 C 0.86899 0.90324 0.7357 0.0
C754 C 0.86475 0.90263 0.51294 0.0
C755 C 0.88346 0.91277 0.49025 0.0
C756 C 0.86622 0.89934 0.56501 0.0
C757 C 0.88645 0.90604 0.59619 0.0
C758 C 0.90532 0.91588 0.57336 0.0
C759 C 0.90384 0.91919 0.52116 0.0
H760 H 0.39797 0.60241 0.77978 0.0
H761 H 0.37877 0.67572 0.82937 0.0
H762 H 0.39663 0.59619 0.87011 0.0
H763 H 0.37727 0.66944 0.91926 0.0
H764 H 0.35111 0.64305 0.0635 0.0
H765 H 0.35357 0.64897 0.97342 0.0
H766 H 0.41654 0.60689 0.95583 0.0
H767 H 0.41368 0.60036 0.04577 0.0
C768 C 0.39364 0.61725 0.80989 0.0
C769 C 0.38832 0.63953 0.79697 0.0
C770 C 0.39288 0.61368 0.86176 0.0
C771 C 0.38673 0.63228 0.90207 0.0
C772 C 0.38164 0.65459 0.88919 0.0
C773 C 0.38246 0.65817 0.83747 0.0
C774 C 0.36541 0.6349 0.04038 0.0
C775 C 0.38215 0.62115 0.06199 0.0
C776 C 0.36696 0.63852 0.98879 0.0
C777 C 0.38527 0.62844 0.95721 0.0
C778 C 0.40208 0.61474 0.97881 0.0
C779 C 0.40058 0.61121 0.03059 0.0
H780 H 0.62202 0.10978 1.01405 0.0
H781 H 0.66651 0.17188 0.0387 0.0
H782 H 0.627 0.10686 0.1061 0.0
H783 H 0.67081 0.16947 0.13103 0.0
H784 H 0.69287 0.14404 0.28191 0.0
H785 H 0.68871 0.1458 0.1893 0.0
H786 H 0.61557 0.12709 0.19176 0.0
H787 H 0.61974 0.12532 0.28457 0.0
C788 C 0.63298 0.12274 0.03899 0.0
C789 C 0.64387 0.14106 1.0188 0.0
C790 C 0.63559 0.12124 0.09199 0.0
C791 C 0.64924 0.13798 0.12621 0.0
C792 C 0.66034 0.15613 0.10585 0.0
C793 C 0.65768 0.15767 0.05292 0.0
C794 C 0.67582 0.14054 0.26291 0.0
C795 C 0.65661 0.13465 0.29096 0.0
C796 C 0.67344 0.14152 0.20967 0.0
C797 C 0.65179 0.13663 0.18289 0.0
C798 C 0.63259 0.13063 0.21085 0.0
C799 C 0.63497 0.12965 0.26416 0.0
H800 H 0.89011 0.37845 0.2466 0.0
H801 H 0.84669 0.43987 0.29362 0.0
H802 H 0.89484 0.37377 0.3375 0.0
H803 H 0.85231 0.43583 0.38473 0.0
H804 H 0.84863 0.40771 0.53911 0.0
H805 H 0.84233 0.41165 0.44786 0.0
H806 H 0.91436 0.39225 0.41703 0.0
H807 H 0.92059 0.38825 0.50786 0.0
C808 C 0.88149 0.39093 0.27622 0.0
C809 C 0.86804 0.40957 0.26247 0.0
C810 C 0.88446 0.38842 0.32857 0.0
C811 C 0.87408 0.40449 0.36876 0.0
C812 C 0.86042 0.42298 0.35497 0.0
C813 C 0.85744 0.42548 0.30261 0.0
C814 C 0.86316 0.40445 0.51294 0.0
C815 C 0.88508 0.39751 0.53097 0.0
C816 C 0.85956 0.40671 0.46052 0.0
C817 C 0.87779 0.40215 0.42475 0.0
C818 C 0.89975 0.39543 0.44299 0.0
C819 C 0.90333 0.39314 0.49526 0.0
H820 H 0.35401 0.1615 0.28591 0.0
H821 H 0.3952 0.09745 0.26124 0.0
H822 H 0.35916 0.16549 0.19503 0.0
H823 H 0.39966 0.10099 0.1701 0.0
H824 H 0.42402 0.12859 0.02575 0.0
H825 H 0.41918 0.12518 0.11681 0.0
H826 H 0.34702 0.14686 0.1068 0.0
H827 H 0.35186 0.15026 1.01551 0.0
C828 C 0.36423 0.14831 0.26118 0.0
C829 C 0.37418 0.12915 0.281 0.0
C830 C 0.36695 0.15044 0.20887 0.0
C831 C 0.37978 0.13353 0.17507 0.0
C832 C 0.38985 0.11447 0.19503 0.0
C833 C 0.38707 0.1123 0.24723 0.0
C834 C 0.40703 0.13237 0.0427 0.0
C835 C 0.38831 0.13962 1.01306 0.0
C836 C 0.40426 0.13044 0.09505 0.0
C837 C 0.3827 0.13572 0.11928 0.0
C838 C 0.36397 0.14299 0.08969 0.0
C839 C 0.36674 0.14491 0.03727 0.0
H840 H 0.67204 0.65907 0.03773 0.0
H841 H 0.63065 0.59496 1.00099 0.0
H842 H 0.66904 0.66395 0.94671 0.0
H843 H 0.62767 0.59983 0.9097 0.0
H844 H 0.60787 0.63017 0.76145 0.0
H845 H 0.61033 0.62459 0.85227 0.0
H846 H 0.68292 0.64635 0.8617 0.0
H847 H 0.68024 0.65268 0.77157 0.0
C848 C 0.66243 0.6459 1.01017 0.0
C849 C 0.65168 0.62656 0.02685 0.0
C850 C 0.66074 0.64868 0.95784 0.0
C851 C 0.64824 0.63221 0.92058 0.0
C852 C 0.63722 0.61302 0.93734 0.0
C853 C 0.63891 0.61023 0.98977 0.0
C854 C 0.62433 0.63387 0.78297 0.0
C855 C 0.64383 0.64195 0.75907 0.0
C856 C 0.62581 0.63044 0.83496 0.0
C857 C 0.6468 0.6351 0.86458 0.0
C858 C 0.66638 0.64287 0.84042 0.0
C859 C 0.66492 0.64622 0.78841 0.0
H860 H 0.1339 0.87767 0.48196 0.0
H861 H 0.15553 0.95046 0.53375 0.0
H862 H 0.13164 0.87237 0.57236 0.0
H863 H 0.15203 0.94551 0.62425 0.0
H864 H 0.16975 0.92049 0.7787 0.0
H865 H 0.17108 0.92674 0.68867 0.0
H866 H 0.10974 0.88243 0.6496 0.0
H867 H 0.10915 0.87519 0.73889 0.0
C868 C 0.13812 0.8926 0.51256 0.0
C869 C 0.14502 0.91448 0.5002 0.0
C870 C 0.1365 0.88964 0.56461 0.0
C871 C 0.14164 0.9085 0.60595 0.0
C872 C 0.14822 0.93048 0.59362 0.0
C873 C 0.14991 0.93341 0.54153 0.0
C874 C 0.15664 0.91192 0.75086 0.0
C875 C 0.1394 0.89724 0.76632 0.0
C876 C 0.15721 0.91576 0.69922 0.0
C877 C 0.14053 0.90508 0.66152 0.0
C878 C 0.12308 0.89071 0.6772 0.0
C879 C 0.12254 0.88682 0.72878 0.0
H880 H 0.86627 0.6668 0.81292 0.0
H881 H 0.90292 0.59996 0.78934 0.0
H882 H 0.87069 0.66917 0.72103 0.0
H883 H 0.90662 0.60192 0.69707 0.0
H884 H 0.93052 0.62595 0.54761 0.0
H885 H 0.92676 0.62378 0.63965 0.0
H886 H 0.85605 0.65021 0.63509 0.0
H887 H 0.85978 0.65233 0.54286 0.0
C888 C 0.8754 0.65267 0.78823 0.0
C889 C 0.88427 0.6332 0.80867 0.0
C890 C 0.87766 0.65387 0.73533 0.0
C891 C 0.88892 0.63569 0.70146 0.0
C892 C 0.89802 0.61635 0.72203 0.0
C893 C 0.89569 0.61511 0.77489 0.0
C894 C 0.91404 0.63102 0.56597 0.0
C895 C 0.89543 0.63926 0.53759 0.0
C896 C 0.91191 0.62981 0.61889 0.0
C897 C 0.89112 0.63684 0.64494 0.0
C898 C 0.87246 0.645 0.61655 0.0
C899 C 0.87459 0.64619 0.56358 0.0
H900 H 0.16423 0.0899 0.50557 0.0
H901 H 0.13112 0.15785 0.55256 0.0
H902 H 0.16222 0.09535 0.41494 0.0
H903 H 0.13022 0.16384 0.46222 0.0
H904 H 0.11215 0.15863 0.28892 0.0
H905 H 0.11199 0.15126 0.37833 0.0
H906 H 0.17959 0.11764 0.35683 0.0
H907 H 0.17962 0.12483 0.26736 0.0
C908 C 0.1564 0.10598 0.4967 0.0
C909 C 0.14781 0.12339 0.53684 0.0
C910 C 0.15555 0.10926 0.44457 0.0
C911 C 0.14614 0.1301 0.43086 0.0
C912 C 0.13737 0.14743 0.47092 0.0
C913 C 0.13817 0.14412 0.52306 0.0
C914 C 0.12702 0.14971 0.30327 0.0
C915 C 0.14591 0.14236 0.27067 0.0
C916 C 0.12696 0.14551 0.35474 0.0
C917 C 0.14582 0.13391 0.37528 0.0
C918 C 0.16456 0.12629 0.34241 0.0
C919 C 0.16459 0.13042 0.29089 0.0
H920 H 0.62572 0.36231 0.21428 0.0
H921 H 0.66218 0.42871 0.26585 0.0
H922 H 0.62587 0.36915 0.12473 0.0
H923 H 0.66339 0.43495 0.17572 0.0
H924 H 0.64308 0.44988 1.01379 0.0
H925 H 0.64001 0.44407 0.10396 0.0
H926 H 0.6521 0.3691 0.05505 0.0
H927 H 0.65408 0.37474 0.96479 0.0
C928 C 0.63366 0.37846 0.2067 0.0
C929 C 0.6439 0.39496 0.24769 0.0
C930 C 0.63405 0.38223 0.15502 0.0
C931 C 0.64476 0.40255 0.14262 0.0
C932 C 0.65478 0.41919 0.18365 0.0
C933 C 0.65434 0.41546 0.23542 0.0
C934 C 0.64474 0.43209 0.02212 0.0
C935 C 0.64884 0.41279 0.98174 0.0
C936 C 0.64329 0.4288 0.07406 0.0
C937 C 0.64586 0.40611 0.08712 0.0
C938 C 0.64975 0.3868 0.04664 0.0
C939 C 0.65119 0.39008 0.99477 0.0
H940 H 0.35587 0.8805 1.01614 0.0
H941 H 0.42585 0.90963 0.02405 0.0
H942 H 0.35265 0.88332 0.92379 0.0
H943 H 0.42268 0.91239 0.93179 0.0
H944 H 0.39953 0.93667 0.77976 0.0
H945 H 0.40281 0.93389 0.87202 0.0
H946 H 0.36778 0.86588 0.83974 0.0
H947 H 0.36367 0.86911 0.74777 0.0
C948 C 0.37063 0.88738 0.99814 0.0
C949 C 0.3911 0.89488 0.02771 0.0
C950 C 0.36881 0.88896 0.94509 0.0
C951 C 0.38742 0.89805 0.92014 0.0
C952 C 0.40785 0.90563 0.94979 0.0
C953 C 0.40966 0.90408 1.00281 0.0
C954 C 0.39239 0.92118 0.79235 0.0
C955 C 0.38127 0.90315 0.75619 0.0
C956 C 0.39449 0.91946 0.84526 0.0
C957 C 0.38552 0.89967 0.86353 0.0
C958 C 0.37463 0.88152 0.82727 0.0
C959 C 0.37255 0.88322 0.77432 0.0
H960 H 0.19002 0.71458 0.14318 0.0
H961 H 0.11929 0.7045 0.18906 0.0
H962 H 0.18463 0.7575 0.16075 0.0
H963 H 0.1135 0.74779 0.20491 0.0
H964 H 0.17138 0.83541 0.22524 0.0
H965 H 0.1745 0.79378 0.23585 0.0
H966 H 0.1142 0.77622 0.13292 0.0
H967 H 0.11144 0.81755 0.1212 0.0
C968 C 0.17348 0.72165 0.15831 0.0
C969 C 0.15514 0.7063 0.16525 0.0
C970 C 0.17041 0.74622 0.16842 0.0
C971 C 0.14866 0.75602 0.18421 0.0
C972 C 0.13048 0.74069 0.19295 0.0
C973 C 0.13381 0.71599 0.18425 0.0
C974 C 0.1585 0.82275 0.20582 0.0
C975 C 0.14126 0.82971 0.17213 0.0
C976 C 0.16032 0.79894 0.2118 0.0
C977 C 0.14455 0.78177 0.1853 0.0
C978 C 0.12644 0.78907 0.15425 0.0
C979 C 0.12497 0.81271 0.14728 0.0
H980 H 0.58215 0.91863 0.49433 0.0
H981 H 0.5697 0.86641 0.35495 0.0
H982 H 0.54037 0.9169 0.51482 0.0
H983 H 0.52871 0.86504 0.37425 0.0
H984 H 0.45849 0.85324 0.4218 0.0
H985 H 0.50106 0.8526 0.4293 0.0
H986 H 0.50187 0.92848 0.48181 0.0
H987 H 0.45886 0.92874 0.47659 0.0
C988 C 0.57064 0.90654 0.4686 0.0
C989 C 0.57931 0.8927 0.42296 0.0
C990 C 0.54667 0.90569 0.48003 0.0
C991 C 0.531 0.89073 0.44641 0.0
C992 C 0.54008 0.87644 0.40183 0.0
C993 C 0.56373 0.8774 0.3904 0.0
C994 C 0.46775 0.86965 0.43668 0.0
C995 C 0.4554 0.89101 0.4487 0.0
C996 C 0.4922 0.86938 0.44042 0.0
C997 C 0.5051 0.89059 0.45479 0.0
C998 C 0.49262 0.91179 0.4707 0.0
C999 C 0.46796 0.91197 0.46786 0.0
H1000 H 0.36466 0.31355 0.54632 0.0
H1001 H 0.4063 0.33977 0.68543 0.0
H1002 H 0.36471 0.27421 0.56803 0.0
H1003 H 0.40659 0.29941 0.70722 0.0
H1004 H 0.4195 0.21119 0.65672 0.0
H1005 H 0.42173 0.25449 0.66071 0.0
H1006 H 0.34652 0.25687 0.64285 0.0
H1007 H 0.34444 0.21407 0.6382 0.0
C1008 C 0.37391 0.31093 0.58172 0.0
C1009 C 0.38538 0.32992 0.61423 0.0
C1010 C 0.37383 0.28829 0.5943 0.0
C1011 C 0.3854 0.28366 0.63965 0.0
C1012 C 0.39744 0.30245 0.67205 0.0
C1013 C 0.39722 0.32552 0.6597 0.0
C1014 C 0.40345 0.22122 0.65612 0.0
C1015 C 0.38175 0.20936 0.64769 0.0
C1016 C 0.40471 0.24597 0.65813 0.0
C1017 C 0.3843 0.25907 0.65145 0.0
C1018 C 0.36257 0.2473 0.64763 0.0
C1019 C 0.36134 0.2228 0.64539 0.0
H1020 H 0.95649 0.14186 0.96809 0.0
H1021 H 0.96766 0.14508 0.80625 0.0
H1022 H 0.99903 0.14679 0.98641 0.0
H1023 H 1.00939 0.15021 0.82415 0.0
H1024 H 0.08122 0.17234 0.86352 0.0
H1025 H 0.03897 0.17811 0.87101 0.0
H1026 H 0.03535 0.12107 0.95886 0.0
H1027 H 0.07789 0.11567 0.95185 0.0
C1028 C 0.96793 0.14413 0.93683 0.0
C1029 C 0.9588 0.14312 0.88577 0.0
C1030 C 0.99225 0.1468 0.94716 0.0
C1031 C 1.00765 0.14908 0.90682 0.0
C1032 C 0.99814 0.14893 0.8564 0.0
C1033 C 0.97416 0.14583 0.84602 0.0
C1034 C 0.07151 0.16175 0.88633 0.0
C1035 C 0.08276 0.14378 0.90765 0.0
C1036 C 0.04728 0.16486 0.89022 0.0
C1037 C 0.03368 0.14981 0.91486 0.0
C1038 C 0.04528 0.13308 0.93997 0.0
C1039 C 0.06964 0.13001 0.93614 0.0
H1040 H 0.18341 0.32453 0.90096 0.0
H1041 H 0.1106 0.33174 0.85895 0.0
H1042 H 0.17998 0.28145 0.87826 0.0
H1043 H 0.10685 0.28821 0.8377 0.0
H1044 H 0.16968 0.20361 0.81179 0.0
H1045 H 0.16984 0.24559 0.80281 0.0
H1046 H 0.11104 0.25847 0.90457 0.0
H1047 H 0.11126 0.21685 0.91452 0.0
C1048 C 0.1668 0.31682 0.88543 0.0
C1049 C 0.14733 0.33138 0.8812 0.0
C1050 C 0.16485 0.29216 0.87234 0.0
C1051 C 0.14316 0.28141 0.85617 0.0
C1052 C 0.1238 0.29603 0.84988 0.0
C1053 C 0.12595 0.32087 0.86166 0.0
C1054 C 0.15642 0.21531 0.83104 0.0
C1055 C 0.14053 0.20703 0.86405 0.0
C1056 C 0.15657 0.23932 0.82609 0.0
C1057 C 0.14044 0.25532 0.85297 0.0
C1058 C 0.12352 0.24657 0.88295 0.0
C1059 C 0.12374 0.22277 0.88889 0.0
H1060 H 0.06954 0.87803 0.20324 0.0
H1061 H 0.07896 0.90916 0.06612 0.0
H1062 H 0.02748 0.87452 0.184 0.0
H1063 H 0.03638 0.9065 0.04764 0.0
H1064 H 0.961 0.93534 0.11943 0.0
H1065 H 1.00312 0.92973 0.10682 0.0
H1066 H 0.99539 0.85551 0.11416 0.0
H1067 H 0.953 0.86112 0.12524 0.0
C1068 C 0.06261 0.88355 0.16814 0.0
C1069 C 0.07746 0.89366 0.13591 0.0
C1070 C 0.03853 0.88151 0.15706 0.0
C1071 C 0.02858 0.89022 0.11429 0.0
C1072 C 0.04357 0.89955 0.08075 0.0
C1073 C 0.0679 0.90094 0.09107 0.0
C1074 C 0.9682 0.91765 0.11607 0.0
C1075 C 0.9538 0.89858 0.12238 0.0
C1076 C 0.9923 0.91442 0.1089 0.0
C1077 C 1.00259 0.89218 0.10947 0.0
C1078 C 0.98793 0.87283 0.11332 0.0
C1079 C 0.9637 0.87598 0.11929 0.0
H1080 H 0.42027 0.7157 0.44804 0.0
H1081 H 0.36574 0.6967 0.33005 0.0
H1082 H 0.41753 0.75704 0.43722 0.0
H1083 H 0.36285 0.73832 0.31946 0.0
H1084 H 0.41772 0.82827 0.38171 0.0
H1085 H 0.42347 0.78539 0.37487 0.0
H1086 H 0.34866 0.77537 0.3776 0.0
H1087 H 0.34299 0.8181 0.38497 0.0
C1088 C 0.4079 0.7203 0.4192 0.0
C1089 C 0.39319 0.70284 0.38998 0.0
C1090 C 0.40642 0.74403 0.41281 0.0
C1091 C 0.38992 0.7511 0.3776 0.0
C1092 C 0.37567 0.73353 0.34717 0.0
C1093 C 0.37744 0.70964 0.35293 0.0
C1094 C 0.40251 0.81684 0.38002 0.0
C1095 C 0.3799 0.82659 0.3841 0.0
C1096 C 0.4058 0.79229 0.3764 0.0
C1097 C 0.38652 0.77688 0.37583 0.0
C1098 C 0.36388 0.78661 0.37745 0.0
C1099 C 0.36064 0.81114 0.38193 0.0
H1100 H 0.57699 0.18322 0.61459 0.0
H1101 H 0.57413 0.1073 0.56792 0.0
H1102 H 0.53476 0.18548 0.60077 0.0
H1103 H 0.53143 0.10917 0.55668 0.0
H1104 H 0.45279 0.12007 0.53163 0.0
H1105 H 0.49517 0.12024 0.51739 0.0
H1106 H 0.5038 0.17679 0.65056 0.0
H1107 H 0.46213 0.17708 0.66332 0.0
C1108 C 0.56728 0.16703 0.60014 0.0
C1109 C 0.5788 0.14513 0.59193 0.0
C1110 C 0.54298 0.16824 0.59289 0.0
C1111 C 0.52937 0.14746 0.57887 0.0
C1112 C 0.54118 0.12559 0.56723 0.0
C1113 C 0.56569 0.12446 0.57355 0.0
C1114 C 0.46377 0.13287 0.55695 0.0
C1115 C 0.45399 0.1485 0.5987 0.0
C1116 C 0.48812 0.13283 0.54917 0.0
C1117 C 0.50316 0.14854 0.58273 0.0
C1118 C 0.49303 0.16469 0.62309 0.0
C1119 C 0.46894 0.16471 0.63081 0.0
H1120 H 0.92676 0.21979 0.9087 0.0
H1121 H 0.86307 0.20424 0.81595 0.0
H1122 H 0.92305 0.26173 0.90262 0.0
H1123 H 0.8591 0.24641 0.81092 0.0
H1124 H 0.84552 0.32305 0.91584 0.0
H1125 H 0.85141 0.28038 0.8918 0.0
H1126 H 0.92005 0.29279 0.83646 0.0
H1127 H 0.91369 0.33593 0.85903 0.0
C1128 C 0.91223 0.22527 0.8861 0.0
C1129 C 0.89515 0.20874 0.86299 0.0
C1130 C 0.9102 0.24927 0.88235 0.0
C1131 C 0.89078 0.25735 0.85637 0.0
C1132 C 0.87427 0.24065 0.83113 0.0
C1133 C 0.87658 0.21652 0.83386 0.0
C1134 C 0.86161 0.31668 0.89716 0.0
C1135 C 0.8791 0.33272 0.88902 0.0
C1136 C 0.86494 0.29226 0.88325 0.0
C1137 C 0.88616 0.28324 0.86218 0.0
C1138 C 0.90349 0.29929 0.85246 0.0
C1139 C 0.89983 0.3239 0.86507 0.0
H1140 H 0.61522 0.83427 0.34632 0.0
H1141 H 0.68984 0.82261 0.34296 0.0
H1142 H 0.60866 0.79144 0.33753 0.0
H1143 H 0.68336 0.77996 0.33391 0.0
H1144 H 0.66449 0.70205 0.29132 0.0
H1145 H 0.66664 0.74327 0.27811 0.0
H1146 H 0.61678 0.76343 0.39968 0.0
H1147 H 0.61467 0.72246 0.41294 0.0
C1148 C 0.63018 0.82252 0.34247 0.0
C1149 C 0.65306 0.83178 0.34561 0.0
C1150 C 0.62645 0.79801 0.3378 0.0
C1151 C 0.6455 0.78226 0.33533 0.0
C1152 C 0.66829 0.79151 0.33527 0.0
C1153 C 0.67201 0.81597 0.34067 0.0
C1154 C 0.65366 0.7152 0.31451 0.0
C1155 C 0.63953 0.70895 0.35343 0.0
C1156 C 0.65499 0.73884 0.30716 0.0
C1157 C 0.64195 0.75669 0.33797 0.0
C1158 C 0.62691 0.75015 0.37493 0.0
C1159 C 0.62582 0.72664 0.38278 0.0
H1160 H 0.92195 0.70745 0.18544 0.0
H1161 H 0.84717 0.71787 0.19007 0.0
H1162 H 0.92769 0.75026 0.1906 0.0
H1163 H 0.85284 0.76049 0.19577 0.0
H1164 H 0.8707 0.83886 0.23245 0.0
H1165 H 0.86977 0.79815 0.24951 0.0
H1166 H 0.91781 0.77668 0.12479 0.0
H1167 H 0.91863 0.81713 0.10758 0.0
C1168 C 0.90679 0.71895 0.18886 0.0
C1169 C 0.88409 0.70935 0.1871 0.0
C1170 C 0.91006 0.74342 0.19148 0.0
C1171 C 0.89071 0.75878 0.19336 0.0
C1172 C 0.86812 0.74923 0.19483 0.0
C1173 C 0.86486 0.7248 0.19135 0.0
C1174 C 0.88141 0.82554 0.20941 0.0
C1175 C 0.89461 0.8312 0.16843 0.0
C1176 C 0.88078 0.8022 0.21898 0.0
C1177 C 0.89367 0.78414 0.18841 0.0
C1178 C 0.90785 0.79016 0.14937 0.0
C1179 C 0.90817 0.81334 0.13926 0.0
H1180 H 0.61441 0.20634 0.66642 0.0
H1181 H 0.68911 0.21817 0.67629 0.0
H1182 H 0.60808 0.24913 0.67317 0.0
H1183 H 0.68285 0.26077 0.68361 0.0
H1184 H 0.66438 0.33871 0.72317 0.0
H1185 H 0.66605 0.29767 0.73815 0.0
H1186 H 0.61666 0.27664 0.60986 0.0
H1187 H 0.61513 0.3174 0.5947 0.0
C1188 C 0.62944 0.21812 0.67124 0.0
C1189 C 0.65226 0.20893 0.67053 0.0
C1190 C 0.62583 0.24259 0.67481 0.0
C1191 C 0.64497 0.25837 0.67874 0.0
C1192 C 0.66773 0.24919 0.68112 0.0
C1193 C 0.67132 0.22476 0.67668 0.0
C1194 C 0.6535 0.32541 0.69896 0.0
C1195 C 0.63972 0.3313 0.65758 0.0
C1196 C 0.65457 0.30188 0.7073 0.0
C1197 C 0.64154 0.28385 0.67508 0.0
C1198 C 0.62676 0.29008 0.63568 0.0
C1199 C 0.626 0.31345 0.6268 0.0
H1200 H 0.95467 0.42983 0.98765 0.0
H1201 H 0.95157 0.35464 0.92954 0.0
H1202 H 0.99742 0.42768 0.9963 0.0
H1203 H 0.99389 0.352 0.94099 0.0
H1204 H 0.06528 0.36302 0.87533 0.0
H1205 H 0.02394 0.36248 0.89127 0.0
H1206 H 0.03418 0.41552 0.03049 0.0
H1207 H 0.0762 0.41664 1.013 0.0
C1208 C 0.9631 0.41269 0.97892 0.0
C1209 C 0.94992 0.3924 0.95785 0.0
C1210 C 0.98763 0.41141 0.98379 0.0
C1211 C 0.99936 0.38973 0.96819 0.0
C1212 C 0.9857 0.36914 0.95182 0.0
C1213 C 0.96137 0.37054 0.94588 0.0
C1214 C 0.0589 0.37444 0.90979 0.0
C1215 C 0.07415 0.39002 0.94263 0.0
C1216 C 0.03502 0.37395 0.91936 0.0
C1217 C 0.02543 0.3889 0.9624 0.0
C1218 C 0.04082 0.40388 0.99669 0.0
C1219 C 0.06496 0.40438 0.987 0.0
H1220 H 0.46139 0.59716 0.42348 0.0
H1221 H 0.45822 0.67239 0.42521 0.0
H1222 H 0.50411 0.59909 0.42773 0.0
H1223 H 0.5013 0.67442 0.42881 0.0
H1224 H 0.58388 0.66448 0.45029 0.0
H1225 H 0.54243 0.66566 0.47592 0.0
H1226 H 0.52685 0.60745 0.34995 0.0
H1227 H 0.56738 0.60656 0.32435 0.0
C1228 C 0.46989 0.61429 0.42704 0.0
C1229 C 0.4566 0.63466 0.4247 0.0
C1230 C 0.49435 0.61539 0.42902 0.0
C1231 C 0.50609 0.63686 0.42793 0.0
C1232 C 0.49277 0.65767 0.43011 0.0
C1233 C 0.46814 0.65655 0.42825 0.0
C1234 C 0.57153 0.65187 0.42864 0.0
C1235 C 0.57885 0.63538 0.38544 0.0
C1236 C 0.54787 0.6526 0.4431 0.0
C1237 C 0.53143 0.63644 0.41532 0.0
C1238 C 0.53907 0.61987 0.37275 0.0
C1239 C 0.56233 0.61947 0.35785 0.0
H1240 H 0.4583 0.4194 0.53315 0.0
H1241 H 0.46615 0.35675 0.60241 0.0
H1242 H 0.50102 0.42173 0.52652 0.0
H1243 H 0.50862 0.35868 0.5946 0.0
H1244 H 0.58635 0.36603 0.56093 0.0
H1245 H 0.54491 0.35978 0.53258 0.0
H1246 H 0.52905 0.43087 0.60958 0.0
H1247 H 0.56983 0.43668 0.63909 0.0
C1248 C 0.46907 0.40555 0.54476 0.0
C1249 C 0.45897 0.38788 0.56823 0.0
C1250 C 0.4935 0.40696 0.5413 0.0
C1251 C 0.50816 0.39041 0.56017 0.0
C1252 C 0.49782 0.37154 0.57925 0.0
C1253 C 0.4735 0.37046 0.58383 0.0
C1254 C 0.57402 0.38042 0.57055 0.0
C1255 C 0.58117 0.40181 0.60221 0.0
C1256 C 0.55037 0.37685 0.55453 0.0
C1257 C 0.53377 0.39491 0.56863 0.0
C1258 C 0.54142 0.41676 0.59746 0.0
C1259 C 0.56475 0.42003 0.61462 0.0
H1260 H 0.0809 0.68412 0.13127 0.0
H1261 H 0.07863 0.60874 0.0752 0.0
H1262 H 0.03852 0.68615 0.12035 0.0
H1263 H 0.03581 0.61029 0.06719 0.0
H1264 H 0.95647 0.62084 0.05125 0.0
H1265 H 0.99852 0.62188 0.03313 0.0
H1266 H 1.00898 0.67556 0.17116 0.0
H1267 H 0.96776 0.67506 0.18765 0.0
C1268 C 0.07127 0.66803 0.11562 0.0
C1269 C 0.083 0.64631 0.10406 0.0
C1270 C 0.0469 0.66907 0.10993 0.0
C1271 C 0.03345 0.64828 0.09431 0.0
C1272 C 0.04543 0.62671 0.07916 0.0
C1273 C 0.07 0.62578 0.08371 0.0
C1274 C 0.96779 0.6332 0.07681 0.0
C1275 C 0.95871 0.64778 0.121 0.0
C1276 C 0.99193 0.63366 0.06679 0.0
C1277 C 1.00738 0.64886 0.10052 0.0
C1278 C 0.99787 0.66395 0.14344 0.0
C1279 C 0.97404 0.66347 0.15333 0.0
H1280 H 0.17496 0.57564 0.09644 0.0
H1281 H 0.10333 0.5655 0.13638 0.0
H1282 H 0.17296 0.5391 0.03191 0.0
H1283 H 0.10142 0.52851 0.0729 0.0
H1284 H 0.09872 0.47556 0.91753 0.0
H1285 H 0.10032 0.51275 0.98059 0.0
H1286 H 0.17127 0.49696 0.02456 0.0
H1287 H 0.16979 0.46028 0.96062 0.0
C1288 C 0.1588 0.56551 0.09156 0.0
C1289 C 0.13929 0.57349 0.12142 0.0
C1290 C 0.15767 0.54443 0.05476 0.0
C1291 C 0.13702 0.53067 0.04698 0.0
C1292 C 0.11752 0.53871 0.07715 0.0
C1293 C 0.11866 0.55983 0.11392 0.0
C1294 C 0.11466 0.48013 0.94059 0.0
C1295 C 0.1341 0.46496 0.93416 0.0
C1296 C 0.11555 0.50138 0.97708 0.0
C1297 C 0.13594 0.50801 1.00795 0.0
C1298 C 0.15538 0.49274 1.00115 0.0
C1299 C 0.15448 0.47157 0.96469 0.0
H1300 H 0.70426 0.91769 0.23369 0.0
H1301 H 0.7379 0.89061 0.36135 0.0
H1302 H 0.74137 0.91519 0.18812 0.0
H1303 H 0.77499 0.8873 0.3144 0.0
H1304 H 0.81796 0.85506 0.15239 0.0
H1305 H 0.78337 0.85991 0.20754 0.0
H1306 H 0.78796 0.93574 0.21933 0.0
H1307 H 0.82303 0.93102 0.16583 0.0
C1308 C 0.71962 0.91133 0.2522 0.0
C1309 C 0.71813 0.90447 0.30134 0.0
C1310 C 0.74085 0.90992 0.22605 0.0
C1311 C 0.76101 0.90101 0.24766 0.0
C1312 C 0.75968 0.89423 0.2969 0.0
C1313 C 0.73851 0.89626 0.32384 0.0
C1314 C 0.81167 0.87277 0.16708 0.0
C1315 C 0.82315 0.89266 0.15461 0.0
C1316 C 0.79199 0.87553 0.19885 0.0
C1317 C 0.78305 0.8982 0.21777 0.0
C1318 C 0.79454 0.91808 0.20537 0.0
C1319 C 0.81456 0.91536 0.17474 0.0
H1320 H 0.435 0.46737 0.59717 0.0
H1321 H 0.35974 0.46217 0.59958 0.0
H1322 H 0.43136 0.50093 0.55025 0.0
H1323 H 0.35613 0.49611 0.55432 0.0
H1324 H 0.36695 0.57795 0.54722 0.0
H1325 H 0.36959 0.54174 0.58441 0.0
H1326 H 0.41213 0.50955 0.45679 0.0
H1327 H 0.40884 0.54577 0.41827 0.0
C1328 C 0.4177 0.4734 0.58772 0.0
C1329 C 0.39766 0.46218 0.60237 0.0
C1330 C 0.41562 0.49251 0.56057 0.0
C1331 C 0.39345 0.5012 0.54857 0.0
C1332 C 0.37344 0.48988 0.56306 0.0
C1333 C 0.37552 0.47045 0.589 0.0
C1334 C 0.37664 0.56307 0.5266 0.0
C1335 C 0.38757 0.56476 0.47953 0.0
C1336 C 0.37812 0.5423 0.54796 0.0
C1337 C 0.39112 0.52277 0.5237 0.0
C1338 C 0.40204 0.52433 0.47649 0.0
C1339 C 0.40001 0.54498 0.45424 0.0
H1340 H 0.83173 0.11005 0.84079 0.0
H1341 H 0.81515 0.18204 0.90989 0.0
H1342 H 0.79533 0.10743 0.78796 0.0
H1343 H 0.77883 0.17948 0.85746 0.0
H1344 H 0.70404 0.15714 0.80584 0.0
H1345 H 0.74124 0.15912 0.85346 0.0
H1346 H 0.77475 0.12308 0.71503 0.0
H1347 H 0.73703 0.12092 0.66671 0.0
C1348 C 0.82035 0.12536 0.84452 0.0
C1349 C 0.82635 0.14628 0.87954 0.0
C1350 C 0.79954 0.12389 0.81404 0.0
C1351 C 0.78402 0.1432 0.81839 0.0
C1352 C 0.79015 0.16413 0.85343 0.0
C1353 C 0.81102 0.16564 0.88349 0.0
C1354 C 0.71924 0.14958 0.78517 0.0
C1355 C 0.71737 0.13887 0.73211 0.0
C1356 C 0.74072 0.15088 0.81263 0.0
C1357 C 0.76115 0.14144 0.7882 0.0
C1358 C 0.75936 0.13045 0.73524 0.0
C1359 C 0.73775 0.1293 0.70743 0.0
H1360 H 0.93009 0.56366 0.14802 0.0
H1361 H 0.85883 0.57823 0.1051 0.0
H1362 H 0.92897 0.52669 0.08466 0.0
H1363 H 0.8578 0.5416 0.04058 0.0
H1364 H 0.8563 0.46288 0.96467 0.0
H1365 H 0.85699 0.49921 0.03008 0.0
H1366 H 0.92859 0.51189 0.99267 0.0
H1367 H 0.92799 0.47517 0.92848 0.0
C1368 C 0.91417 0.55895 0.12499 0.0
C1369 C 0.89457 0.57391 0.13156 0.0
C1370 C 0.91357 0.53782 0.08825 0.0
C1371 C 0.89333 0.53104 0.057 0.0
C1372 C 0.87362 0.54597 0.06416 0.0
C1373 C 0.87423 0.56709 0.10099 0.0
C1374 C 0.87219 0.47343 0.97057 0.0
C1375 C 0.89213 0.46607 0.94157 0.0
C1376 C 0.87256 0.49439 1.00786 0.0
C1377 C 0.89286 0.50864 1.01703 0.0
C1378 C 0.91274 0.50128 0.98751 0.0
C1379 C 0.91236 0.4803 0.9503 0.0
H1380 H 0.21276 0.10733 0.85472 0.0
H1381 H 0.21734 0.18344 0.87183 0.0
H1382 H 0.24625 0.10328 0.79676 0.0
H1383 H 0.25047 0.17936 0.81261 0.0
H1384 H 0.29652 0.15768 0.66327 0.0
H1385 H 0.26002 0.16023 0.71243 0.0
H1386 H 0.29065 0.11642 0.81486 0.0
H1387 H 0.32706 0.1145 0.76717 0.0
C1388 C 0.22081 0.12318 0.84575 0.0
C1389 C 0.21253 0.1457 0.86821 0.0
C1390 C 0.23998 0.12087 0.81254 0.0
C1391 C 0.251 0.141 0.79993 0.0
C1392 C 0.24226 0.16352 0.8212 0.0
C1393 C 0.22342 0.16585 0.85542 0.0
C1394 C 0.29526 0.14832 0.69576 0.0
C1395 C 0.31466 0.13582 0.71117 0.0
C1396 C 0.27447 0.14994 0.72417 0.0
C1397 C 0.27244 0.13853 0.7676 0.0
C1398 C 0.29155 0.12529 0.7815 0.0
C1399 C 0.31243 0.12421 0.75414 0.0
H1400 H 0.66482 0.5896 0.52567 0.0
H1401 H 0.64234 0.54985 0.37581 0.0
H1402 H 0.66624 0.55345 0.56182 0.0
H1403 H 0.64261 0.51348 0.41267 0.0
H1404 H 0.66376 0.44873 0.48056 0.0
H1405 H 0.66483 0.48471 0.44365 0.0
H1406 H 0.64369 0.52526 0.59133 0.0
H1407 H 0.64376 0.48917 0.62891 0.0
C1408 C 0.66003 0.57308 0.50037 0.0
C1409 C 0.65341 0.57268 0.44771 0.0
C1410 C 0.66064 0.55226 0.52137 0.0
C1411 C 0.6543 0.53031 0.49068 0.0
C1412 C 0.64795 0.52988 0.43765 0.0
C1413 C 0.6477 0.55077 0.41636 0.0
C1414 C 0.65942 0.46534 0.50534 0.0
C1415 C 0.65368 0.466 0.55787 0.0
C1416 C 0.65985 0.48607 0.4839 0.0
C1417 C 0.65423 0.50814 0.51406 0.0
C1418 C 0.64855 0.50878 0.56681 0.0
C1419 C 0.64847 0.48802 0.58851 0.0
H1420 H 0.31318 0.85904 0.30272 0.0
H1421 H 0.31101 0.9353 0.33345 0.0
H1422 H 0.27647 0.85763 0.25288 0.0
H1423 H 0.2752 0.93439 0.27965 0.0
H1424 H 0.20233 0.92716 0.20329 0.0
H1425 H 0.23654 0.92884 0.26177 0.0
H1426 H 0.2591 0.86103 0.1768 0.0
H1427 H 0.22373 0.85858 0.12248 0.0
C1428 C 0.3047 0.87556 0.29865 0.0
C1429 C 0.31477 0.89725 0.32237 0.0
C1430 C 0.28374 0.87485 0.26915 0.0
C1431 C 0.27257 0.89589 0.2606 0.0
C1432 C 0.28269 0.91768 0.28535 0.0
C1433 C 0.30336 0.91831 0.31629 0.0
C1434 C 0.21444 0.91243 0.19795 0.0
C1435 C 0.20993 0.89245 0.15908 0.0
C1436 C 0.2344 0.9135 0.23113 0.0
C1437 C 0.25096 0.89495 0.22527 0.0
C1438 C 0.2467 0.8754 0.18464 0.0
C1439 C 0.22642 0.87407 0.15261 0.0
H1440 H 0.67792 0.96344 0.4439 0.0
H1441 H 0.60592 0.97669 0.4043 0.0
H1442 H 0.6784 0.99947 0.51049 0.0
H1443 H 0.6065 1.01299 0.46937 0.0
H1444 H 0.60637 0.06319 0.62556 0.0
H1445 H 0.60701 0.0266 0.56131 0.0
H1446 H 0.67793 0.04209 0.52388 0.0
H1447 H 0.67739 0.0784 0.58946 0.0
C1448 C 0.66223 0.97411 0.44928 0.0
C1449 C 0.64184 0.9671 0.41905 0.0
C1450 C 0.66253 0.99489 0.48724 0.0
C1451 C 0.64245 1.00924 0.49582 0.0
C1452 C 0.62219 1.00228 0.46483 0.0
C1453 C 0.62189 0.98152 0.42707 0.0
C1454 C 0.62214 0.0587 0.60383 0.0
C1455 C 0.6418 0.07374 0.61256 0.0
C1456 C 0.62247 0.03778 0.56656 0.0
C1457 C 0.64247 0.0313 0.5368 0.0
C1458 C 0.66228 0.04625 0.54622 0.0
C1459 C 0.66195 0.06718 0.58365 0.0
H1460 H 0.23229 0.39587 0.8899 0.0
H1461 H 0.1976 0.41682 0.75603 0.0
H1462 H 0.26971 0.39525 0.84649 0.0
H1463 H 0.23488 0.41749 0.71376 0.0
H1464 H 0.30106 0.39369 0.62633 0.0
H1465 H 0.2638 0.39435 0.67025 0.0
H1466 H 0.29972 0.41676 0.81926 0.0
H1467 H 0.33683 0.41482 0.77553 0.0
C1468 C 0.23272 0.40074 0.85159 0.0
C1469 C 0.21193 0.40628 0.82646 0.0
C1470 C 0.25423 0.40049 0.82656 0.0
C1471 C 0.25557 0.40619 0.77608 0.0
C1472 C 0.23472 0.41237 0.75183 0.0
C1473 C 0.21325 0.41222 0.77642 0.0
C1474 C 0.30093 0.39878 0.66844 0.0
C1475 C 0.32197 0.40409 0.69728 0.0
C1476 C 0.2795 0.39931 0.69383 0.0
C1477 C 0.27847 0.4056 0.74873 0.0
C1478 C 0.2996 0.4113 0.77725 0.0
C1479 C 0.321 0.41037 0.75198 0.0
H1480 H 0.89441 0.94807 0.98746 0.0
H1481 H 0.87511 0.98892 0.13611 0.0
H1482 H 0.89486 0.98381 0.94982 0.0
H1483 H 0.87491 0.02487 0.09772 0.0
H1484 H 0.90199 0.08746 0.03065 0.0
H1485 H 0.90039 0.05152 0.06703 0.0
H1486 H 0.87189 1.01364 0.92033 0.0
H1487 H 0.8741 0.04992 0.88304 0.0
C1488 C 0.89009 0.96467 1.01226 0.0
C1489 C 0.8848 0.96548 0.06519 0.0
C1490 C 0.89017 0.98526 0.9903 0.0
C1491 C 0.88489 1.00741 0.0204 0.0
C1492 C 0.87942 1.00824 0.07331 0.0
C1493 C 0.87943 0.98757 0.09543 0.0
C1494 C 0.89534 0.07154 1.00581 0.0
C1495 C 0.88811 0.07174 0.95365 0.0
C1496 C 0.89425 0.05083 0.02707 0.0
C1497 C 0.88579 0.02954 0.99709 0.0
C1498 C 0.87872 0.02961 0.94466 0.0
C1499 C 0.87993 0.05044 0.92317 0.0
H1500 H 0.20741 0.61326 0.29414 0.0
H1501 H 0.24017 0.64976 0.18339 0.0
H1502 H 0.24445 0.61412 0.34388 0.0
H1503 H 0.27722 0.65136 0.23465 0.0
H1504 H 0.32084 0.67672 0.4001 0.0
H1505 H 0.28659 0.67324 0.34003 0.0
H1506 H 0.28975 0.59707 0.32225 0.0
H1507 H 0.3245 0.60049 0.38085 0.0
C1508 C 0.2226 0.6213 0.28016 0.0
C1509 C 0.22088 0.63135 0.23464 0.0
C1510 C 0.2438 0.62176 0.30867 0.0
C1511 C 0.26368 0.63286 0.29325 0.0
C1512 C 0.26213 0.64271 0.24743 0.0
C1513 C 0.24101 0.64165 0.21795 0.0
C1514 C 0.31428 0.65924 0.38316 0.0
C1515 C 0.32524 0.63888 0.39543 0.0
C1516 C 0.29481 0.65726 0.3485 0.0
C1517 C 0.28555 0.63488 0.32641 0.0
C1518 C 0.29653 0.61452 0.33867 0.0
C1519 C 0.31636 0.61649 0.37224 0.0
H1520 H 0.42758 0.97179 0.41267 0.0
H1521 H 0.35641 0.95939 0.45251 0.0
H1522 H 0.42774 1.00987 0.47247 0.0
H1523 H 0.35659 0.9973 0.51303 0.0
H1524 H 0.35737 0.07752 0.57859 0.0
H1525 H 0.35691 0.03987 0.51721 0.0
H1526 H 0.42805 0.0267 0.56446 0.0
H1527 H 0.42854 0.06456 0.62508 0.0
C1528 C 0.41193 0.97722 0.43417 0.0
C1529 C 0.39197 0.96254 0.42767 0.0
C1530 C 0.41206 0.99902 0.46887 0.0
C1531 C 0.39219 1.00683 0.49798 0.0
C1532 C 0.37214 0.99214 0.491 0.0
C1533 C 0.37205 0.9703 0.45642 0.0
C1534 C 0.37291 0.06657 0.57581 0.0
C1535 C 0.39301 0.0741 0.6067 0.0
C1536 C 0.37262 0.04487 0.54078 0.0
C1537 C 0.39244 0.03005 0.53555 0.0
C1538 C 0.41253 0.03766 0.56669 0.0
C1539 C 0.41278 0.05933 0.60182 0.0
H1540 H 0.79945 0.62163 0.17273 0.0
H1541 H 0.83259 0.65916 0.3147 0.0
H1542 H 0.76166 0.6244 0.21648 0.0
H1543 H 0.79536 0.66175 0.35771 0.0
H1544 H 0.72176 0.6847 0.40508 0.0
H1545 H 0.75778 0.68202 0.35581 0.0
H1546 H 0.74139 0.60927 0.28871 0.0
H1547 H 0.70534 0.61199 0.33834 0.0
C1548 C 0.79874 0.63044 0.21307 0.0
C1549 C 0.81918 0.64015 0.23997 0.0
C1550 C 0.7771 0.63195 0.23824 0.0
C1551 C 0.77539 0.64346 0.29063 0.0
C1552 C 0.79585 0.65311 0.3172 0.0
C1553 C 0.81735 0.65143 0.29241 0.0
C1554 C 0.72584 0.66814 0.37982 0.0
C1555 C 0.71067 0.64859 0.37563 0.0
C1556 C 0.74652 0.66657 0.35158 0.0
C1557 C 0.75259 0.6454 0.31823 0.0
C1558 C 0.7372 0.62592 0.31349 0.0
C1559 C 0.71659 0.62745 0.34215 0.0
H1560 H 0.13856 0.08944 0.03967 0.0
H1561 H 0.16132 0.04881 0.89371 0.0
H1562 H 0.13808 0.05385 0.07782 0.0
H1563 H 0.16144 1.01298 0.93264 0.0
H1564 H 0.13555 0.94965 0.99898 0.0
H1565 H 0.13668 0.98539 0.96176 0.0
H1566 H 0.16105 0.025 0.11046 0.0
H1567 H 0.15928 0.98891 0.14853 0.0
C1568 C 0.14364 0.07291 1.01557 0.0
C1569 C 0.14997 0.07215 0.96327 0.0
C1570 C 0.14352 0.05239 0.03785 0.0
C1571 C 0.14981 0.03033 1.00875 0.0
C1572 C 0.15616 0.02952 0.95633 0.0
C1573 C 0.15618 0.05013 0.93387 0.0
C1574 C 0.14118 0.96592 0.02411 0.0
C1575 C 0.14737 0.96621 0.07708 0.0
C1576 C 0.14201 0.98653 1.00237 0.0
C1577 C 0.14916 1.00827 0.03261 0.0
C1578 C 0.15521 1.0087 0.08581 0.0
C1579 C 0.15427 0.98796 0.10778 0.0
H1580 H 0.71547 0.35493 0.65293 0.0
H1581 H 0.71115 0.43087 0.6653 0.0
H1582 H 0.7489 0.3599 0.7155 0.0
H1583 H 0.74488 0.43577 0.7265 0.0
H1584 H 0.8259 0.42447 0.76441 0.0
H1585 H 0.78957 0.42149 0.7119 0.0
H1586 H 0.75774 0.38166 0.81769 0.0
H1587 H 0.79413 0.3853 0.87162 0.0
C1588 C 0.7217 0.37265 0.66892 0.0
C1589 C 0.71082 0.39251 0.65401 0.0
C1590 C 0.74068 0.3755 0.70501 0.0
C1591 C 0.74946 0.39823 0.72592 0.0
C1592 C 0.7385 0.41806 0.71101 0.0
C1593 C 0.71924 0.41524 0.67594 0.0
C1594 C 0.81104 0.41542 0.77705 0.0
C1595 C 0.81283 0.40524 0.82236 0.0
C1596 C 0.79024 0.41372 0.74694 0.0
C1597 C 0.77086 0.40126 0.76055 0.0
C1598 C 0.77246 0.3913 0.80623 0.0
C1599 C 0.79317 0.39355 0.83728 0.0
loop_
_geom_bond_atom_site_label_1
_geom_bond_atom_site_label_2
_geom_bond_distance
_geom_bond_site_symmetry_2
_ccdc_geom_bond_type
Gd0 C3 2.818 1_554 S
Gd0 O20 2.377 . S
Gd0 O22 2.448 . S
Gd0 O23 2.520 . S
Gd0 O24 2.435 . S
Gd0 O25 2.717 . S
Gd0 O27 2.395 . S
Gd0 O31 2.327 . S
Gd1 C12 2.818 . S
Gd1 O21 2.395 . S
Gd1 O25 2.327 . S
Gd1 O26 2.377 . S
Gd1 O28 2.448 . S
Gd1 O29 2.506 . S
Gd1 O30 2.435 . S
Gd1 O31 2.717 . S
C2 O20 1.240 . S
C2 O21 1.240 . S
C3 Gd0 2.818 1_556 S
C3 C4 1.510 . S
C3 O22 1.249 1_556 S
C3 O23 1.240 1_556 S
C4 C3 1.510 . S
C4 C5 1.404 . S
C4 C6 1.352 . S
C5 C4 1.404 . S
C5 C9 1.389 . S
C5 H32 0.930 . S
C6 C4 1.352 . S
C6 C8 1.374 . S
C6 H33 0.931 . S
C7 C8 1.359 . S
C7 C9 1.364 . S
C8 C6 1.374 . S
C8 C7 1.359 . S
C8 H34 0.931 . S
C9 C5 1.389 . S
C9 C7 1.364 . S
C9 H35 0.931 . S
C10 O24 1.256 . S
C10 O25 1.257 . S
C11 O26 1.240 . S
C11 O27 1.240 . S
C12 Gd1 2.818 . S
C12 C13 1.510 . S
C12 O28 1.249 . S
C12 O29 1.252 . S
C13 C12 1.510 . S
C13 C14 1.404 . S
C13 C15 1.352 . S
C14 C13 1.404 . S
C14 C18 1.389 . S
C14 H36 0.930 . S
C15 C13 1.352 . S
C15 C17 1.374 . S
C15 H37 0.931 . S
C16 C17 1.359 . S
C16 C18 1.364 . S
C17 C15 1.374 . S
C17 C16 1.359 . S
C17 H38 0.931 . S
C18 C14 1.389 . S
C18 C16 1.364 . S
C18 H39 0.931 . S
C19 O30 1.256 . S
C19 O31 1.257 . S
O20 Gd0 2.377 . S
O20 C2 1.240 . S
O21 Gd1 2.395 . S
O21 C2 1.240 . S
O22 Gd0 2.448 . S
O22 C3 1.249 1_554 S
O23 Gd0 2.520 . S
O23 C3 1.240 1_554 S
O24 Gd0 2.435 . S
O24 C10 1.256 . S
O25 Gd0 2.717 . S
O25 Gd1 2.327 . S
O25 C10 1.257 . S
O26 Gd1 2.377 . S
O26 C11 1.240 . S
O27 Gd0 2.395 . S
O27 C11 1.240 . S
O28 Gd1 2.448 . S
O28 C12 1.249 . S
O29 Gd1 2.506 . S
O29 C12 1.252 . S
O30 Gd1 2.435 . S
O30 C19 1.256 . S
O31 Gd0 2.327 . S
O31 Gd1 2.717 . S
O31 C19 1.257 . S
H32 C5 0.930 . S
H33 C6 0.931 . S
H34 C8 0.931 . S
H35 C9 0.931 . S
H36 C14 0.930 . S
H37 C15 0.931 . S
H38 C17 0.931 . S
H39 C18 0.931 . S
Gd40 C43 2.818 . S
Gd40 O60 2.377 . S
Gd40 O62 2.448 . S
Gd40 O63 2.506 . S
Gd40 O64 2.435 . S
Gd40 O65 2.717 . S
Gd40 O67 2.395 . S
Gd40 O71 2.327 . S
Gd41 C52 2.818 . S
Gd41 O61 2.395 . S
Gd41 O65 2.327 . S
Gd41 O66 2.377 . S
Gd41 O68 2.448 . S
Gd41 O69 2.506 . S
Gd41 O70 2.435 . S
Gd41 O71 2.717 . S
C42 O60 1.240 . S
C42 O61 1.240 . S
C43 Gd40 2.818 . S
C43 C44 1.510 . S
C43 O62 1.249 . S
C43 O63 1.252 . S
C44 C43 1.510 . S
C44 C45 1.404 . S
C44 C46 1.352 . S
C45 C44 1.404 . S
C45 C49 1.389 . S
C45 H72 0.930 . S
C46 C44 1.352 . S
C46 C48 1.374 . S
C46 H73 0.931 . S
C47 C48 1.359 . S
C47 C49 1.364 . S
C48 C46 1.374 . S
C48 C47 1.359 . S
C48 H74 0.931 . S
C49 C45 1.389 . S
C49 C47 1.364 . S
C49 H75 0.931 . S
C50 O64 1.256 . S
C50 O65 1.257 . S
C51 O66 1.240 . S
C51 O67 1.240 . S
C52 Gd41 2.818 . S
C52 C53 1.510 . S
C52 O68 1.249 . S
C52 O69 1.252 . S
C53 C52 1.510 . S
C53 C54 1.404 . S
C53 C55 1.352 . S
C54 C53 1.404 . S
C54 C58 1.389 . S
C54 H76 0.930 . S
C55 C53 1.352 . S
C55 C57 1.374 . S
C55 H77 0.931 . S
C56 C57 1.359 . S
C56 C58 1.364 . S
C57 C55 1.374 . S
C57 C56 1.359 . S
C57 H78 0.931 . S
C58 C54 1.389 . S
C58 C56 1.364 . S
C58 H79 0.931 . S
C59 O70 1.256 . S
C59 O71 1.257 . S
O60 Gd40 2.377 . S
O60 C42 1.240 . S
O61 Gd41 2.395 . S
O61 C42 1.240 . S
O62 Gd40 2.448 . S
O62 C43 1.249 . S
O63 Gd40 2.506 . S
O63 C43 1.252 . S
O64 Gd40 2.435 . S
O64 C50 1.256 . S
O65 Gd40 2.717 . S
O65 Gd41 2.327 . S
O65 C50 1.257 . S
O66 Gd41 2.377 . S
O66 C51 1.240 . S
O67 Gd40 2.395 . S
O67 C51 1.240 . S
O68 Gd41 2.448 . S
O68 C52 1.249 . S
O69 Gd41 2.506 . S
O69 C52 1.252 . S
O70 Gd41 2.435 . S
O70 C59 1.256 . S
O71 Gd40 2.327 . S
O71 Gd41 2.717 . S
O71 C59 1.257 . S
H72 C45 0.930 . S
H73 C46 0.931 . S
H74 C48 0.931 . S
H75 C49 0.931 . S
H76 C54 0.930 . S
H77 C55 0.931 . S
H78 C57 0.931 . S
H79 C58 0.931 . S
Gd80 C83 2.818 . S
Gd80 O100 2.377 . S
Gd80 O102 2.448 . S
Gd80 O103 2.506 . S
Gd80 O104 2.435 . S
Gd80 O105 2.717 . S
Gd80 O107 2.395 . S
Gd80 O111 2.327 . S
Gd81 C92 2.818 . S
Gd81 O101 2.395 . S
Gd81 O105 2.327 . S
Gd81 O106 2.377 . S
Gd81 O108 2.448 . S
Gd81 O109 2.506 . S
Gd81 O110 2.435 . S
Gd81 O111 2.717 . S
C82 O100 1.240 . S
C82 O101 1.240 . S
C83 Gd80 2.818 . S
C83 C84 1.510 . S
C83 O102 1.249 . S
C83 O103 1.252 . S
C84 C83 1.510 . S
C84 C85 1.404 . S
C84 C86 1.352 . S
C85 C84 1.404 . S
C85 C89 1.389 . S
C85 H112 0.930 . S
C86 C84 1.352 . S
C86 C88 1.374 . S
C86 H113 0.931 . S
C87 C88 1.359 . S
C87 C89 1.364 . S
C88 C86 1.374 . S
C88 C87 1.359 . S
C88 H114 0.931 . S
C89 C85 1.389 . S
C89 C87 1.364 . S
C89 H115 0.931 . S
C90 O104 1.256 . S
C90 O105 1.257 . S
C91 O106 1.240 . S
C91 O107 1.240 . S
C92 Gd81 2.818 . S
C92 C93 1.510 . S
C92 O108 1.249 . S
C92 O109 1.252 . S
C93 C92 1.510 . S
C93 C94 1.404 . S
C93 C95 1.352 . S
C94 C93 1.404 . S
C94 C98 1.389 . S
C94 H116 0.930 . S
C95 C93 1.352 . S
C95 C97 1.374 . S
C95 H117 0.931 . S
C96 C97 1.359 . S
C96 C98 1.364 . S
C97 C95 1.374 . S
C97 C96 1.359 . S
C97 H118 0.931 . S
C98 C94 1.389 . S
C98 C96 1.364 . S
C98 H119 0.931 . S
C99 O110 1.256 . S
C99 O111 1.257 . S
O100 Gd80 2.377 . S
O100 C82 1.240 . S
O101 Gd81 2.395 . S
O101 C82 1.240 . S
O102 Gd80 2.448 . S
O102 C83 1.249 . S
O103 Gd80 2.506 . S
O103 C83 1.252 . S
O104 Gd80 2.435 . S
O104 C90 1.256 . S
O105 Gd80 2.717 . S
O105 Gd81 2.327 . S
O105 C90 1.257 . S
O106 Gd81 2.377 . S
O106 C91 1.240 . S
O107 Gd80 2.395 . S
O107 C91 1.240 . S
O108 Gd81 2.448 . S
O108 C92 1.249 . S
O109 Gd81 2.506 . S
O109 C92 1.252 . S
O110 Gd81 2.435 . S
O110 C99 1.256 . S
O111 Gd80 2.327 . S
O111 Gd81 2.717 . S
O111 C99 1.257 . S
H112 C85 0.930 . S
H113 C86 0.931 . S
H114 C88 0.931 . S
H115 C89 0.931 . S
H116 C94 0.930 . S
H117 C95 0.931 . S
H118 C97 0.931 . S
H119 C98 0.931 . S
Gd120 C123 2.818 . S
Gd120 O140 2.377 . S
Gd120 O142 2.448 . S
Gd120 O143 2.506 . S
Gd120 O144 2.435 . S
Gd120 O145 2.717 . S
Gd120 O147 2.395 . S
Gd120 O151 2.327 . S
Gd121 C132 2.818 1_556 S
Gd121 O141 2.395 . S
Gd121 O145 2.327 . S
Gd121 O146 2.377 . S
Gd121 O148 2.448 1_556 S
Gd121 O149 2.506 1_556 S
Gd121 O150 2.435 . S
Gd121 O151 2.717 . S
C122 O140 1.240 . S
C122 O141 1.240 . S
C123 Gd120 2.818 . S
C123 C124 1.510 . S
C123 O142 1.249 . S
C123 O143 1.252 . S
C124 C123 1.510 . S
C124 C125 1.404 . S
C124 C126 1.352 . S
C125 C124 1.404 . S
C125 C129 1.389 . S
C125 H152 0.930 . S
C126 C124 1.352 . S
C126 C128 1.374 . S
C126 H153 0.931 . S
C127 C128 1.359 . S
C127 C129 1.364 . S
C128 C126 1.374 . S
C128 C127 1.359 . S
C128 H154 0.931 . S
C129 C125 1.389 . S
C129 C127 1.364 . S
C129 H155 0.931 . S
C130 O144 1.256 . S
C130 O145 1.257 . S
C131 O146 1.240 . S
C131 O147 1.240 . S
C132 Gd121 2.818 1_554 S
C132 C133 1.510 . S
C132 O148 1.249 . S
C132 O149 1.252 . S
C133 C132 1.510 . S
C133 C134 1.404 . S
C133 C135 1.352 . S
C134 C133 1.404 . S
C134 C138 1.389 . S
C134 H156 0.930 . S
C135 C133 1.352 . S
C135 C137 1.374 . S
C135 H157 0.931 . S
C136 C137 1.359 . S
C136 C138 1.364 . S
C137 C135 1.374 . S
C137 C136 1.359 . S
C137 H158 0.931 . S
C138 C134 1.389 . S
C138 C136 1.364 . S
C138 H159 0.931 . S
C139 O150 1.256 . S
C139 O151 1.257 . S
O140 Gd120 2.377 . S
O140 C122 1.240 . S
O141 Gd121 2.395 . S
O141 C122 1.240 . S
O142 Gd120 2.448 . S
O142 C123 1.249 . S
O143 Gd120 2.506 . S
O143 C123 1.252 . S
O144 Gd120 2.435 . S
O144 C130 1.256 . S
O145 Gd120 2.717 . S
O145 Gd121 2.327 . S
O145 C130 1.257 . S
O146 Gd121 2.377 . S
O146 C131 1.240 . S
O147 Gd120 2.395 . S
O147 C131 1.240 . S
O148 Gd121 2.448 1_554 S
O148 C132 1.249 . S
O149 Gd121 2.506 1_554 S
O149 C132 1.252 . S
O150 Gd121 2.435 . S
O150 C139 1.256 . S
O151 Gd120 2.327 . S
O151 Gd121 2.717 . S
O151 C139 1.257 . S
H152 C125 0.930 . S
H153 C126 0.931 . S
H154 C128 0.931 . S
H155 C129 0.931 . S
H156 C134 0.930 . S
H157 C135 0.931 . S
H158 C137 0.931 . S
H159 C138 0.931 . S
Gd160 C163 2.818 1_556 S
Gd160 O180 2.377 . S
Gd160 O182 2.448 1_556 S
Gd160 O183 2.506 1_556 S
Gd160 O184 2.435 . S
Gd160 O185 2.717 . S
Gd160 O187 2.395 . S
Gd160 O191 2.327 . S
Gd161 C172 2.818 . S
Gd161 O181 2.395 . S
Gd161 O185 2.327 . S
Gd161 O186 2.377 . S
Gd161 O188 2.448 . S
Gd161 O189 2.506 . S
Gd161 O190 2.435 . S
Gd161 O191 2.717 . S
C162 O180 1.240 . S
C162 O181 1.240 . S
C163 Gd160 2.818 1_554 S
C163 C164 1.510 . S
C163 O182 1.249 . S
C163 O183 1.252 . S
C164 C163 1.510 . S
C164 C165 1.404 . S
C164 C166 1.352 . S
C165 C164 1.404 . S
C165 C169 1.389 . S
C165 H192 0.930 . S
C166 C164 1.352 . S
C166 C168 1.374 . S
C166 H193 0.931 . S
C167 C168 1.359 . S
C167 C169 1.364 . S
C168 C166 1.374 . S
C168 C167 1.359 . S
C168 H194 0.931 . S
C169 C165 1.389 . S
C169 C167 1.364 . S
C169 H195 0.931 . S
C170 O184 1.256 . S
C170 O185 1.257 . S
C171 O186 1.240 . S
C171 O187 1.240 . S
C172 Gd161 2.818 . S
C172 C173 1.510 . S
C172 O188 1.249 . S
C172 O189 1.252 . S
C173 C172 1.510 . S
C173 C174 1.404 . S
C173 C175 1.352 . S
C174 C173 1.404 . S
C174 C178 1.389 . S
C174 H196 0.930 . S
C175 C173 1.352 . S
C175 C177 1.374 . S
C175 H197 0.931 . S
C176 C177 1.359 . S
C176 C178 1.364 . S
C177 C175 1.374 . S
C177 C176 1.359 . S
C177 H198 0.931 . S
C178 C174 1.389 . S
C178 C176 1.364 . S
C178 H199 0.931 . S
C179 O190 1.256 . S
C179 O191 1.257 . S
O180 Gd160 2.377 . S
O180 C162 1.240 . S
O181 Gd161 2.395 . S
O181 C162 1.240 . S
O182 Gd160 2.448 1_554 S
O182 C163 1.249 . S
O183 Gd160 2.506 1_554 S
O183 C163 1.252 . S
O184 Gd160 2.435 . S
O184 C170 1.256 . S
O185 Gd160 2.717 . S
O185 Gd161 2.327 . S
O185 C170 1.257 . S
O186 Gd161 2.377 . S
O186 C171 1.240 . S
O187 Gd160 2.395 . S
O187 C171 1.240 . S
O188 Gd161 2.448 . S
O188 C172 1.249 . S
O189 Gd161 2.506 . S
O189 C172 1.252 . S
O190 Gd161 2.435 . S
O190 C179 1.256 . S
O191 Gd160 2.327 . S
O191 Gd161 2.717 . S
O191 C179 1.257 . S
H192 C165 0.930 . S
H193 C166 0.931 . S
H194 C168 0.931 . S
H195 C169 0.931 . S
H196 C174 0.930 . S
H197 C175 0.931 . S
H198 C177 0.931 . S
H199 C178 0.931 . S
Gd200 C203 2.818 . S
Gd200 O220 2.377 . S
Gd200 O222 2.448 . S
Gd200 O223 2.506 . S
Gd200 O224 2.435 . S
Gd200 O225 2.717 . S
Gd200 O227 2.395 . S
Gd200 O231 2.327 . S
Gd201 C212 2.818 1_554 S
Gd201 O221 2.395 . S
Gd201 O225 2.327 . S
Gd201 O226 2.377 . S
Gd201 O228 2.448 1_554 S
Gd201 O229 2.506 1_554 S
Gd201 O230 2.435 . S
Gd201 O231 2.717 . S
C202 O220 1.240 . S
C202 O221 1.240 . S
C203 Gd200 2.818 . S
C203 C204 1.510 . S
C203 O222 1.249 . S
C203 O223 1.252 . S
C204 C203 1.510 . S
C204 C205 1.404 . S
C204 C206 1.352 . S
C205 C204 1.404 . S
C205 C209 1.389 . S
C205 H232 0.930 . S
C206 C204 1.352 . S
C206 C208 1.374 . S
C206 H233 0.931 . S
C207 C208 1.359 . S
C207 C209 1.364 . S
C208 C206 1.374 . S
C208 C207 1.359 . S
C208 H234 0.931 . S
C209 C205 1.389 . S
C209 C207 1.364 . S
C209 H235 0.931 . S
C210 O224 1.256 . S
C210 O225 1.257 . S
C211 O226 1.240 . S
C211 O227 1.240 . S
C212 Gd201 2.818 1_556 S
C212 C213 1.510 . S
C212 O228 1.249 . S
C212 O229 1.252 . S
C213 C212 1.510 . S
C213 C214 1.404 . S
C213 C215 1.352 . S
C214 C213 1.404 . S
C214 C218 1.389 . S
C214 H236 0.930 . S
C215 C213 1.352 . S
C215 C217 1.374 . S
C215 H237 0.931 . S
C216 C217 1.359 . S
C216 C218 1.364 . S
C217 C215 1.374 . S
C217 C216 1.359 . S
C217 H238 0.931 . S
C218 C214 1.389 . S
C218 C216 1.364 . S
C218 H239 0.931 . S
C219 O230 1.256 . S
C219 O231 1.257 . S
O220 Gd200 2.377 . S
O220 C202 1.240 . S
O221 Gd201 2.395 . S
O221 C202 1.240 . S
O222 Gd200 2.448 . S
O222 C203 1.249 . S
O223 Gd200 2.506 . S
O223 C203 1.252 . S
O224 Gd200 2.435 . S
O224 C210 1.256 . S
O225 Gd200 2.717 . S
O225 Gd201 2.327 . S
O225 C210 1.257 . S
O226 Gd201 2.377 . S
O226 C211 1.240 . S
O227 Gd200 2.395 . S
O227 C211 1.240 . S
O228 Gd201 2.448 1_556 S
O228 C212 1.249 . S
O229 Gd201 2.506 1_556 S
O229 C212 1.252 . S
O230 Gd201 2.435 . S
O230 C219 1.256 . S
O231 Gd200 2.327 . S
O231 Gd201 2.717 . S
O231 C219 1.257 . S
H232 C205 0.930 . S
H233 C206 0.931 . S
H234 C208 0.931 . S
H235 C209 0.931 . S
H236 C214 0.930 . S
H237 C215 0.931 . S
H238 C217 0.931 . S
H239 C218 0.931 . S
Gd240 C243 2.818 . S
Gd240 O260 2.377 . S
Gd240 O262 2.448 . S
Gd240 O263 2.506 . S
Gd240 O264 2.435 . S
Gd240 O265 2.717 . S
Gd240 O267 2.395 . S
Gd240 O271 2.327 . S
Gd241 C252 2.818 . S
Gd241 O261 2.395 . S
Gd241 O265 2.327 . S
Gd241 O266 2.377 . S
Gd241 O268 2.448 . S
Gd241 O269 2.506 . S
Gd241 O270 2.435 . S
Gd241 O271 2.717 . S
C242 O260 1.240 . S
C242 O261 1.240 . S
C243 Gd240 2.818 . S
C243 C244 1.510 . S
C243 O262 1.249 . S
C243 O263 1.252 . S
C244 C243 1.510 . S
C244 C245 1.404 . S
C244 C246 1.352 . S
C245 C244 1.404 . S
C245 C249 1.389 . S
C245 H272 0.930 . S
C246 C244 1.352 . S
C246 C248 1.374 . S
C246 H273 0.931 . S
C247 C248 1.359 . S
C247 C249 1.364 . S
C248 C246 1.374 . S
C248 C247 1.359 . S
C248 H274 0.931 . S
C249 C245 1.389 . S
C249 C247 1.364 . S
C249 H275 0.931 . S
C250 O264 1.256 . S
C250 O265 1.257 . S
C251 O266 1.240 . S
C251 O267 1.240 . S
C252 Gd241 2.818 . S
C252 C253 1.510 . S
C252 O268 1.249 . S
C252 O269 1.252 . S
C253 C252 1.510 . S
C253 C254 1.404 . S
C253 C255 1.352 . S
C254 C253 1.404 . S
C254 C258 1.389 . S
C254 H276 0.930 . S
C255 C253 1.352 . S
C255 C257 1.374 . S
C255 H277 0.931 . S
C256 C257 1.359 . S
C256 C258 1.364 . S
C257 C255 1.374 . S
C257 C256 1.359 . S
C257 H278 0.931 . S
C258 C254 1.389 . S
C258 C256 1.364 . S
C258 H279 0.931 . S
C259 O270 1.256 . S
C259 O271 1.257 . S
O260 Gd240 2.377 . S
O260 C242 1.240 . S
O261 Gd241 2.395 . S
O261 C242 1.240 . S
O262 Gd240 2.448 . S
O262 C243 1.249 . S
O263 Gd240 2.506 . S
O263 C243 1.252 . S
O264 Gd240 2.435 . S
O264 C250 1.256 . S
O265 Gd240 2.717 . S
O265 Gd241 2.327 . S
O265 C250 1.257 . S
O266 Gd241 2.377 . S
O266 C251 1.240 . S
O267 Gd240 2.395 . S
O267 C251 1.240 . S
O268 Gd241 2.448 . S
O268 C252 1.249 . S
O269 Gd241 2.506 . S
O269 C252 1.252 . S
O270 Gd241 2.435 . S
O270 C259 1.256 . S
O271 Gd240 2.327 . S
O271 Gd241 2.717 . S
O271 C259 1.257 . S
H272 C245 0.930 . S
H273 C246 0.931 . S
H274 C248 0.931 . S
H275 C249 0.931 . S
H276 C254 0.930 . S
H277 C255 0.931 . S
H278 C257 0.931 . S
H279 C258 0.931 . S
Gd280 C283 2.818 . S
Gd280 O300 2.377 . S
Gd280 O302 2.448 . S
Gd280 O303 2.506 . S
Gd280 O304 2.435 . S
Gd280 O305 2.717 . S
Gd280 O307 2.395 . S
Gd280 O311 2.327 . S
Gd281 C292 2.818 . S
Gd281 O301 2.395 . S
Gd281 O305 2.327 . S
Gd281 O306 2.377 . S
Gd281 O308 2.448 . S
Gd281 O309 2.506 . S
Gd281 O310 2.435 . S
Gd281 O311 2.717 . S
C282 O300 1.240 . S
C282 O301 1.240 . S
C283 Gd280 2.818 . S
C283 C284 1.510 . S
C283 O302 1.249 . S
C283 O303 1.252 . S
C284 C283 1.510 . S
C284 C285 1.404 . S
C284 C286 1.352 . S
C285 C284 1.404 . S
C285 C289 1.389 . S
C285 H312 0.930 . S
C286 C284 1.352 . S
C286 C288 1.374 . S
C286 H313 0.931 . S
C287 C288 1.359 . S
C287 C289 1.364 . S
C288 C286 1.374 . S
C288 C287 1.359 . S
C288 H314 0.931 . S
C289 C285 1.389 . S
C289 C287 1.364 . S
C289 H315 0.931 . S
C290 O304 1.256 . S
C290 O305 1.257 . S
C291 O306 1.240 . S
C291 O307 1.240 . S
C292 Gd281 2.818 . S
C292 C293 1.510 . S
C292 O308 1.249 . S
C292 O309 1.252 . S
C293 C292 1.510 . S
C293 C294 1.404 . S
C293 C295 1.352 . S
C294 C293 1.404 . S
C294 C298 1.389 . S
C294 H316 0.930 . S
C295 C293 1.352 . S
C295 C297 1.374 . S
C295 H317 0.931 . S
C296 C297 1.359 . S
C296 C298 1.364 . S
C297 C295 1.374 . S
C297 C296 1.359 . S
C297 H318 0.931 . S
C298 C294 1.389 . S
C298 C296 1.364 . S
C298 H319 0.931 . S
C299 O310 1.256 . S
C299 O311 1.257 . S
O300 Gd280 2.377 . S
O300 C282 1.240 . S
O301 Gd281 2.395 . S
O301 C282 1.240 . S
O302 Gd280 2.448 . S
O302 C283 1.249 . S
O303 Gd280 2.506 . S
O303 C283 1.252 . S
O304 Gd280 2.435 . S
O304 C290 1.256 . S
O305 Gd280 2.717 . S
O305 Gd281 2.327 . S
O305 C290 1.257 . S
O306 Gd281 2.377 . S
O306 C291 1.240 . S
O307 Gd280 2.395 . S
O307 C291 1.240 . S
O308 Gd281 2.448 . S
O308 C292 1.249 . S
O309 Gd281 2.506 . S
O309 C292 1.252 . S
O310 Gd281 2.435 . S
O310 C299 1.256 . S
O311 Gd280 2.327 . S
O311 Gd281 2.717 . S
O311 C299 1.257 . S
H312 C285 0.930 . S
H313 C286 0.931 . S
H314 C288 0.931 . S
H315 C289 0.931 . S
H316 C294 0.930 . S
H317 C295 0.931 . S
H318 C297 0.931 . S
H319 C298 0.931 . S
Gd320 C323 2.818 . S
Gd320 O340 2.377 . S
Gd320 O342 2.448 . S
Gd320 O343 2.506 . S
Gd320 O344 2.435 . S
Gd320 O345 2.717 . S
Gd320 O347 2.395 . S
Gd320 O351 2.327 . S
Gd321 C332 2.818 1_556 S
Gd321 O341 2.395 . S
Gd321 O345 2.327 . S
Gd321 O346 2.377 . S
Gd321 O348 2.448 1_556 S
Gd321 O349 2.506 1_556 S
Gd321 O350 2.435 . S
Gd321 O351 2.717 . S
C322 O340 1.240 . S
C322 O341 1.240 . S
C323 Gd320 2.818 . S
C323 C324 1.510 . S
C323 O342 1.249 . S
C323 O343 1.252 . S
C324 C323 1.510 . S
C324 C325 1.404 . S
C324 C326 1.352 . S
C325 C324 1.404 . S
C325 C329 1.389 . S
C325 H352 0.930 . S
C326 C324 1.352 . S
C326 C328 1.374 . S
C326 H353 0.931 . S
C327 C328 1.359 . S
C327 C329 1.364 . S
C328 C326 1.374 . S
C328 C327 1.359 . S
C328 H354 0.931 . S
C329 C325 1.389 . S
C329 C327 1.364 . S
C329 H355 0.931 . S
C330 O344 1.256 . S
C330 O345 1.257 . S
C331 O346 1.240 . S
C331 O347 1.240 . S
C332 Gd321 2.818 1_554 S
C332 C333 1.510 . S
C332 O348 1.249 . S
C332 O349 1.252 . S
C333 C332 1.510 . S
C333 C334 1.404 . S
C333 C335 1.352 . S
C334 C333 1.404 . S
C334 C338 1.389 . S
C334 H356 0.930 . S
C335 C333 1.352 . S
C335 C337 1.374 . S
C335 H357 0.931 . S
C336 C337 1.359 . S
C336 C338 1.364 . S
C337 C335 1.374 . S
C337 C336 1.359 . S
C337 H358 0.931 . S
C338 C334 1.389 . S
C338 C336 1.364 . S
C338 H359 0.931 . S
C339 O350 1.256 . S
C339 O351 1.257 . S
O340 Gd320 2.377 . S
O340 C322 1.240 . S
O341 Gd321 2.395 . S
O341 C322 1.240 . S
O342 Gd320 2.448 . S
O342 C323 1.249 . S
O343 Gd320 2.506 . S
O343 C323 1.252 . S
O344 Gd320 2.435 . S
O344 C330 1.256 . S
O345 Gd320 2.717 . S
O345 Gd321 2.327 . S
O345 C330 1.257 . S
O346 Gd321 2.377 . S
O346 C331 1.240 . S
O347 Gd320 2.395 . S
O347 C331 1.240 . S
O348 Gd321 2.448 1_554 S
O348 C332 1.249 . S
O349 Gd321 2.506 1_554 S
O349 C332 1.252 . S
O350 Gd321 2.435 . S
O350 C339 1.256 . S
O351 Gd320 2.327 . S
O351 Gd321 2.717 . S
O351 C339 1.257 . S
H352 C325 0.930 . S
H353 C326 0.931 . S
H354 C328 0.931 . S
H355 C329 0.931 . S
H356 C334 0.930 . S
H357 C335 0.931 . S
H358 C337 0.931 . S
H359 C338 0.931 . S
Gd360 C363 2.818 . S
Gd360 O380 2.377 . S
Gd360 O382 2.448 . S
Gd360 O383 2.506 . S
Gd360 O384 2.435 . S
Gd360 O385 2.717 . S
Gd360 O387 2.395 . S
Gd360 O391 2.327 . S
Gd361 C372 2.818 . S
Gd361 O381 2.395 . S
Gd361 O385 2.327 . S
Gd361 O386 2.377 . S
Gd361 O388 2.448 . S
Gd361 O389 2.506 . S
Gd361 O390 2.435 . S
Gd361 O391 2.717 . S
C362 O380 1.240 . S
C362 O381 1.240 . S
C363 Gd360 2.818 . S
C363 C364 1.510 . S
C363 O382 1.249 . S
C363 O383 1.252 . S
C364 C363 1.510 . S
C364 C365 1.404 . S
C364 C366 1.352 . S
C365 C364 1.404 . S
C365 C369 1.389 . S
C365 H392 0.930 . S
C366 C364 1.352 . S
C366 C368 1.374 . S
C366 H393 0.931 . S
C367 C368 1.359 . S
C367 C369 1.364 . S
C368 C366 1.374 . S
C368 C367 1.359 . S
C368 H394 0.931 . S
C369 C365 1.389 . S
C369 C367 1.364 . S
C369 H395 0.931 . S
C370 O384 1.256 . S
C370 O385 1.257 . S
C371 O386 1.240 . S
C371 O387 1.240 . S
C372 Gd361 2.818 . S
C372 C373 1.510 . S
C372 O388 1.249 . S
C372 O389 1.252 . S
C373 C372 1.510 . S
C373 C374 1.404 . S
C373 C375 1.352 . S
C374 C373 1.404 . S
C374 C378 1.389 . S
C374 H396 0.930 . S
C375 C373 1.352 . S
C375 C377 1.374 . S
C375 H397 0.931 . S
C376 C377 1.359 . S
C376 C378 1.364 . S
C377 C375 1.374 . S
C377 C376 1.359 . S
C377 H398 0.931 . S
C378 C374 1.389 . S
C378 C376 1.364 . S
C378 H399 0.931 . S
C379 O390 1.256 . S
C379 O391 1.257 . S
O380 Gd360 2.377 . S
O380 C362 1.240 . S
O381 Gd361 2.395 . S
O381 C362 1.240 . S
O382 Gd360 2.448 . S
O382 C363 1.249 . S
O383 Gd360 2.506 . S
O383 C363 1.252 . S
O384 Gd360 2.435 . S
O384 C370 1.256 . S
O385 Gd360 2.717 . S
O385 Gd361 2.327 . S
O385 C370 1.257 . S
O386 Gd361 2.377 . S
O386 C371 1.240 . S
O387 Gd360 2.395 . S
O387 C371 1.240 . S
O388 Gd361 2.448 . S
O388 C372 1.249 . S
O389 Gd361 2.506 . S
O389 C372 1.252 . S
O390 Gd361 2.435 . S
O390 C379 1.256 . S
O391 Gd360 2.327 . S
O391 Gd361 2.717 . S
O391 C379 1.257 . S
H392 C365 0.930 . S
H393 C366 0.931 . S
H394 C368 0.931 . S
H395 C369 0.931 . S
H396 C374 0.930 . S
H397 C375 0.931 . S
H398 C377 0.931 . S
H399 C378 0.931 . S
Gd400 C403 2.818 . S
Gd400 O420 2.377 . S
Gd400 O422 2.448 . S
Gd400 O423 2.506 . S
Gd400 O424 2.435 . S
Gd400 O425 2.717 . S
Gd400 O427 2.395 . S
Gd400 O431 2.327 . S
Gd401 C412 2.818 . S
Gd401 O421 2.395 . S
Gd401 O425 2.327 . S
Gd401 O426 2.377 . S
Gd401 O428 2.448 . S
Gd401 O429 2.506 . S
Gd401 O430 2.435 . S
Gd401 O431 2.717 . S
C402 O420 1.240 . S
C402 O421 1.240 . S
C403 Gd400 2.818 . S
C403 C404 1.510 . S
C403 O422 1.249 . S
C403 O423 1.252 . S
C404 C403 1.510 . S
C404 C405 1.404 . S
C404 C406 1.352 . S
C405 C404 1.404 . S
C405 C409 1.389 . S
C405 H432 0.930 . S
C406 C404 1.352 . S
C406 C408 1.374 . S
C406 H433 0.931 . S
C407 C408 1.359 . S
C407 C409 1.364 . S
C408 C406 1.374 . S
C408 C407 1.359 . S
C408 H434 0.931 . S
C409 C405 1.389 . S
C409 C407 1.364 . S
C409 H435 0.931 . S
C410 O424 1.256 . S
C410 O425 1.257 . S
C411 O426 1.240 . S
C411 O427 1.240 . S
C412 Gd401 2.818 . S
C412 C413 1.510 . S
C412 O428 1.249 . S
C412 O429 1.252 . S
C413 C412 1.510 . S
C413 C414 1.404 . S
C413 C415 1.352 . S
C414 C413 1.404 . S
C414 C418 1.389 . S
C414 H436 0.930 . S
C415 C413 1.352 . S
C415 C417 1.374 . S
C415 H437 0.931 . S
C416 C417 1.359 . S
C416 C418 1.364 . S
C417 C415 1.374 . S
C417 C416 1.359 . S
C417 H438 0.931 . S
C418 C414 1.389 . S
C418 C416 1.364 . S
C418 H439 0.931 . S
C419 O430 1.256 . S
C419 O431 1.257 . S
O420 Gd400 2.377 . S
O420 C402 1.240 . S
O421 Gd401 2.395 . S
O421 C402 1.240 . S
O422 Gd400 2.448 . S
O422 C403 1.249 . S
O423 Gd400 2.506 . S
O423 C403 1.252 . S
O424 Gd400 2.435 . S
O424 C410 1.256 . S
O425 Gd400 2.717 . S
O425 Gd401 2.327 . S
O425 C410 1.257 . S
O426 Gd401 2.377 . S
O426 C411 1.240 . S
O427 Gd400 2.395 . S
O427 C411 1.240 . S
O428 Gd401 2.448 . S
O428 C412 1.249 . S
O429 Gd401 2.506 . S
O429 C412 1.252 . S
O430 Gd401 2.435 . S
O430 C419 1.256 . S
O431 Gd400 2.327 . S
O431 Gd401 2.717 . S
O431 C419 1.257 . S
H432 C405 0.930 . S
H433 C406 0.931 . S
H434 C408 0.931 . S
H435 C409 0.931 . S
H436 C414 0.930 . S
H437 C415 0.931 . S
H438 C417 0.931 . S
H439 C418 0.931 . S
Gd440 C443 2.818 1_554 S
Gd440 O460 2.377 . S
Gd440 O462 2.448 1_554 S
Gd440 O463 2.506 1_554 S
Gd440 O464 2.435 . S
Gd440 O465 2.717 . S
Gd440 O467 2.395 . S
Gd440 O471 2.327 . S
Gd441 C452 2.818 . S
Gd441 O461 2.395 . S
Gd441 O465 2.327 . S
Gd441 O466 2.377 . S
Gd441 O468 2.448 . S
Gd441 O469 2.506 . S
Gd441 O470 2.435 . S
Gd441 O471 2.717 . S
C442 O460 1.240 . S
C442 O461 1.240 . S
C443 Gd440 2.818 1_556 S
C443 C444 1.510 . S
C443 O462 1.249 . S
C443 O463 1.252 . S
C444 C443 1.510 . S
C444 C445 1.404 . S
C444 C446 1.352 . S
C445 C444 1.404 . S
C445 C449 1.389 . S
C445 H472 0.930 . S
C446 C444 1.352 . S
C446 C448 1.374 . S
C446 H473 0.931 . S
C447 C448 1.359 . S
C447 C449 1.364 . S
C448 C446 1.374 . S
C448 C447 1.359 . S
C448 H474 0.931 . S
C449 C445 1.389 . S
C449 C447 1.364 . S
C449 H475 0.931 . S
C450 O464 1.256 . S
C450 O465 1.257 . S
C451 O466 1.240 . S
C451 O467 1.240 . S
C452 Gd441 2.818 . S
C452 C453 1.510 . S
C452 O468 1.249 . S
C452 O469 1.252 . S
C453 C452 1.510 . S
C453 C454 1.404 . S
C453 C455 1.352 . S
C454 C453 1.404 . S
C454 C458 1.389 . S
C454 H476 0.930 . S
C455 C453 1.352 . S
C455 C457 1.374 . S
C455 H477 0.931 . S
C456 C457 1.359 . S
C456 C458 1.364 . S
C457 C455 1.374 . S
C457 C456 1.359 . S
C457 H478 0.931 . S
C458 C454 1.389 . S
C458 C456 1.364 . S
C458 H479 0.931 . S
C459 O470 1.256 . S
C459 O471 1.257 . S
O460 Gd440 2.377 . S
O460 C442 1.240 . S
O461 Gd441 2.395 . S
O461 C442 1.240 . S
O462 Gd440 2.448 1_556 S
O462 C443 1.249 . S
O463 Gd440 2.506 1_556 S
O463 C443 1.252 . S
O464 Gd440 2.435 . S
O464 C450 1.256 . S
O465 Gd440 2.717 . S
O465 Gd441 2.327 . S
O465 C450 1.257 . S
O466 Gd441 2.377 . S
O466 C451 1.240 . S
O467 Gd440 2.395 . S
O467 C451 1.240 . S
O468 Gd441 2.448 . S
O468 C452 1.249 . S
O469 Gd441 2.506 . S
O469 C452 1.252 . S
O470 Gd441 2.435 . S
O470 C459 1.256 . S
O471 Gd440 2.327 . S
O471 Gd441 2.717 . S
O471 C459 1.257 . S
H472 C445 0.930 . S
H473 C446 0.931 . S
H474 C448 0.931 . S
H475 C449 0.931 . S
H476 C454 0.930 . S
H477 C455 0.931 . S
H478 C457 0.931 . S
H479 C458 0.931 . S
Gd480 C483 2.818 . S
Gd480 O500 2.377 . S
Gd480 O502 2.448 . S
Gd480 O503 2.506 . S
Gd480 O504 2.435 . S
Gd480 O505 2.717 . S
Gd480 O507 2.395 . S
Gd480 O511 2.327 . S
Gd481 C492 2.818 1_554 S
Gd481 O501 2.395 . S
Gd481 O505 2.327 . S
Gd481 O506 2.377 . S
Gd481 O508 2.448 1_554 S
Gd481 O509 2.506 1_554 S
Gd481 O510 2.435 . S
Gd481 O511 2.717 . S
C482 O500 1.240 . S
C482 O501 1.240 . S
C483 Gd480 2.818 . S
C483 C484 1.510 . S
C483 O502 1.249 . S
C483 O503 1.252 . S
C484 C483 1.510 . S
C484 C485 1.404 . S
C484 C486 1.352 . S
C485 C484 1.404 . S
C485 C489 1.389 . S
C485 H512 0.930 . S
C486 C484 1.352 . S
C486 C488 1.374 . S
C486 H513 0.931 . S
C487 C488 1.359 . S
C487 C489 1.364 . S
C488 C486 1.374 . S
C488 C487 1.359 . S
C488 H514 0.931 . S
C489 C485 1.389 . S
C489 C487 1.364 . S
C489 H515 0.931 . S
C490 O504 1.256 . S
C490 O505 1.257 . S
C491 O506 1.240 . S
C491 O507 1.240 . S
C492 Gd481 2.818 1_556 S
C492 C493 1.510 . S
C492 O508 1.249 . S
C492 O509 1.252 . S
C493 C492 1.510 . S
C493 C494 1.404 . S
C493 C495 1.352 . S
C494 C493 1.404 . S
C494 C498 1.389 . S
C494 H516 0.930 . S
C495 C493 1.352 . S
C495 C497 1.374 . S
C495 H517 0.931 . S
C496 C497 1.359 . S
C496 C498 1.364 . S
C497 C495 1.374 . S
C497 C496 1.359 . S
C497 H518 0.931 . S
C498 C494 1.389 . S
C498 C496 1.364 . S
C498 H519 0.931 . S
C499 O510 1.256 . S
C499 O511 1.257 . S
O500 Gd480 2.377 . S
O500 C482 1.240 . S
O501 Gd481 2.395 . S
O501 C482 1.240 . S
O502 Gd480 2.448 . S
O502 C483 1.249 . S
O503 Gd480 2.506 . S
O503 C483 1.252 . S
O504 Gd480 2.435 . S
O504 C490 1.256 . S
O505 Gd480 2.717 . S
O505 Gd481 2.327 . S
O505 C490 1.257 . S
O506 Gd481 2.377 . S
O506 C491 1.240 . S
O507 Gd480 2.395 . S
O507 C491 1.240 . S
O508 Gd481 2.448 1_556 S
O508 C492 1.249 . S
O509 Gd481 2.506 1_556 S
O509 C492 1.252 . S
O510 Gd481 2.435 . S
O510 C499 1.256 . S
O511 Gd480 2.327 . S
O511 Gd481 2.717 . S
O511 C499 1.257 . S
H512 C485 0.930 . S
H513 C486 0.931 . S
H514 C488 0.931 . S
H515 C489 0.931 . S
H516 C494 0.930 . S
H517 C495 0.931 . S
H518 C497 0.931 . S
H519 C498 0.931 . S
Gd520 C523 2.818 1_556 S
Gd520 O540 2.377 . S
Gd520 O542 2.448 1_556 S
Gd520 O543 2.506 1_556 S
Gd520 O544 2.435 . S
Gd520 O545 2.717 . S
Gd520 O547 2.395 . S
Gd520 O551 2.327 . S
Gd521 C532 2.818 . S
Gd521 O541 2.395 . S
Gd521 O545 2.327 . S
Gd521 O546 2.377 . S
Gd521 O548 2.448 . S
Gd521 O549 2.506 . S
Gd521 O550 2.435 . S
Gd521 O551 2.717 . S
C522 O540 1.240 . S
C522 O541 1.240 . S
C523 Gd520 2.818 1_554 S
C523 C524 1.510 . S
C523 O542 1.249 . S
C523 O543 1.252 . S
C524 C523 1.510 . S
C524 C525 1.404 . S
C524 C526 1.352 . S
C525 C524 1.404 . S
C525 C529 1.389 . S
C525 H552 0.930 . S
C526 C524 1.352 . S
C526 C528 1.374 . S
C526 H553 0.931 . S
C527 C528 1.359 . S
C527 C529 1.364 . S
C528 C526 1.374 . S
C528 C527 1.359 . S
C528 H554 0.931 . S
C529 C525 1.389 . S
C529 C527 1.364 . S
C529 H555 0.931 . S
C530 O544 1.256 . S
C530 O545 1.257 . S
C531 O546 1.240 . S
C531 O547 1.240 . S
C532 Gd521 2.818 . S
C532 C533 1.510 . S
C532 O548 1.249 . S
C532 O549 1.252 . S
C533 C532 1.510 . S
C533 C534 1.404 . S
C533 C535 1.352 . S
C534 C533 1.404 . S
C534 C538 1.389 . S
C534 H556 0.930 . S
C535 C533 1.352 . S
C535 C537 1.374 . S
C535 H557 0.931 . S
C536 C537 1.359 . S
C536 C538 1.364 . S
C537 C535 1.374 . S
C537 C536 1.359 . S
C537 H558 0.931 . S
C538 C534 1.389 . S
C538 C536 1.364 . S
C538 H559 0.931 . S
C539 O550 1.256 . S
C539 O551 1.257 . S
O540 Gd520 2.377 . S
O540 C522 1.240 . S
O541 Gd521 2.395 . S
O541 C522 1.240 . S
O542 Gd520 2.448 1_554 S
O542 C523 1.249 . S
O543 Gd520 2.506 1_554 S
O543 C523 1.252 . S
O544 Gd520 2.435 . S
O544 C530 1.256 . S
O545 Gd520 2.717 . S
O545 Gd521 2.327 . S
O545 C530 1.257 . S
O546 Gd521 2.377 . S
O546 C531 1.240 . S
O547 Gd520 2.395 . S
O547 C531 1.240 . S
O548 Gd521 2.448 . S
O548 C532 1.249 . S
O549 Gd521 2.506 . S
O549 C532 1.252 . S
O550 Gd521 2.435 . S
O550 C539 1.256 . S
O551 Gd520 2.327 . S
O551 Gd521 2.717 . S
O551 C539 1.257 . S
H552 C525 0.930 . S
H553 C526 0.931 . S
H554 C528 0.931 . S
H555 C529 0.931 . S
H556 C534 0.930 . S
H557 C535 0.931 . S
H558 C537 0.931 . S
H559 C538 0.931 . S
Gd560 C563 2.818 . S
Gd560 O580 2.377 . S
Gd560 O582 2.448 . S
Gd560 O583 2.506 . S
Gd560 O584 2.435 . S
Gd560 O585 2.717 . S
Gd560 O587 2.395 . S
Gd560 O591 2.327 . S
Gd561 C572 2.818 . S
Gd561 O581 2.395 . S
Gd561 O585 2.327 . S
Gd561 O586 2.377 . S
Gd561 O588 2.448 . S
Gd561 O589 2.506 . S
Gd561 O590 2.435 . S
Gd561 O591 2.717 . S
C562 O580 1.240 . S
C562 O581 1.240 . S
C563 Gd560 2.818 . S
C563 C564 1.510 . S
C563 O582 1.249 . S
C563 O583 1.252 . S
C564 C563 1.510 . S
C564 C565 1.404 . S
C564 C566 1.352 . S
C565 C564 1.404 . S
C565 C569 1.389 . S
C565 H592 0.930 . S
C566 C564 1.352 . S
C566 C568 1.374 . S
C566 H593 0.931 . S
C567 C568 1.359 . S
C567 C569 1.364 . S
C568 C566 1.374 . S
C568 C567 1.359 . S
C568 H594 0.931 . S
C569 C565 1.389 . S
C569 C567 1.364 . S
C569 H595 0.931 . S
C570 O584 1.256 . S
C570 O585 1.257 . S
C571 O586 1.240 . S
C571 O587 1.240 . S
C572 Gd561 2.818 . S
C572 C573 1.510 . S
C572 O588 1.249 . S
C572 O589 1.252 . S
C573 C572 1.510 . S
C573 C574 1.404 . S
C573 C575 1.352 . S
C574 C573 1.404 . S
C574 C578 1.389 . S
C574 H596 0.930 . S
C575 C573 1.352 . S
C575 C577 1.374 . S
C575 H597 0.931 . S
C576 C577 1.359 . S
C576 C578 1.364 . S
C577 C575 1.374 . S
C577 C576 1.359 . S
C577 H598 0.931 . S
C578 C574 1.389 . S
C578 C576 1.364 . S
C578 H599 0.931 . S
C579 O590 1.256 . S
C579 O591 1.257 . S
O580 Gd560 2.377 . S
O580 C562 1.240 . S
O581 Gd561 2.395 . S
O581 C562 1.240 . S
O582 Gd560 2.448 . S
O582 C563 1.249 . S
O583 Gd560 2.506 . S
O583 C563 1.252 . S
O584 Gd560 2.435 . S
O584 C570 1.256 . S
O585 Gd560 2.717 . S
O585 Gd561 2.327 . S
O585 C570 1.257 . S
O586 Gd561 2.377 . S
O586 C571 1.240 . S
O587 Gd560 2.395 . S
O587 C571 1.240 . S
O588 Gd561 2.448 . S
O588 C572 1.249 . S
O589 Gd561 2.506 . S
O589 C572 1.252 . S
O590 Gd561 2.435 . S
O590 C579 1.256 . S
O591 Gd560 2.327 . S
O591 Gd561 2.717 . S
O591 C579 1.257 . S
H592 C565 0.930 . S
H593 C566 0.931 . S
H594 C568 0.931 . S
H595 C569 0.931 . S
H596 C574 0.930 . S
H597 C575 0.931 . S
H598 C577 0.931 . S
H599 C578 0.931 . S
Gd600 C603 2.818 . S
Gd600 O620 2.377 . S
Gd600 O622 2.448 . S
Gd600 O623 2.506 . S
Gd600 O624 2.435 . S
Gd600 O625 2.717 . S
Gd600 O627 2.395 . S
Gd600 O631 2.327 . S
Gd601 C612 2.818 . S
Gd601 O621 2.395 . S
Gd601 O625 2.327 . S
Gd601 O626 2.377 . S
Gd601 O628 2.448 . S
Gd601 O629 2.506 . S
Gd601 O630 2.435 . S
Gd601 O631 2.717 . S
C602 O620 1.240 . S
C602 O621 1.240 . S
C603 Gd600 2.818 . S
C603 C604 1.510 . S
C603 O622 1.249 . S
C603 O623 1.252 . S
C604 C603 1.510 . S
C604 C605 1.404 . S
C604 C606 1.352 . S
C605 C604 1.404 . S
C605 C609 1.389 . S
C605 H632 0.930 . S
C606 C604 1.352 . S
C606 C608 1.374 . S
C606 H633 0.931 . S
C607 C608 1.359 . S
C607 C609 1.364 . S
C608 C606 1.374 . S
C608 C607 1.359 . S
C608 H634 0.931 . S
C609 C605 1.389 . S
C609 C607 1.364 . S
C609 H635 0.931 . S
C610 O624 1.256 . S
C610 O625 1.257 . S
C611 O626 1.240 . S
C611 O627 1.240 . S
C612 Gd601 2.818 . S
C612 C613 1.510 . S
C612 O628 1.249 . S
C612 O629 1.252 . S
C613 C612 1.510 . S
C613 C614 1.404 . S
C613 C615 1.352 . S
C614 C613 1.404 . S
C614 C618 1.389 . S
C614 H636 0.930 . S
C615 C613 1.352 . S
C615 C617 1.374 . S
C615 H637 0.931 . S
C616 C617 1.359 . S
C616 C618 1.364 . S
C617 C615 1.374 . S
C617 C616 1.359 . S
C617 H638 0.931 . S
C618 C614 1.389 . S
C618 C616 1.364 . S
C618 H639 0.931 . S
C619 O630 1.256 . S
C619 O631 1.257 . S
O620 Gd600 2.377 . S
O620 C602 1.240 . S
O621 Gd601 2.395 . S
O621 C602 1.240 . S
O622 Gd600 2.448 . S
O622 C603 1.249 . S
O623 Gd600 2.506 . S
O623 C603 1.252 . S
O624 Gd600 2.435 . S
O624 C610 1.256 . S
O625 Gd600 2.717 . S
O625 Gd601 2.327 . S
O625 C610 1.257 . S
O626 Gd601 2.377 . S
O626 C611 1.240 . S
O627 Gd600 2.395 . S
O627 C611 1.240 . S
O628 Gd601 2.448 . S
O628 C612 1.249 . S
O629 Gd601 2.506 . S
O629 C612 1.252 . S
O630 Gd601 2.435 . S
O630 C619 1.256 . S
O631 Gd600 2.327 . S
O631 Gd601 2.717 . S
O631 C619 1.257 . S
H632 C605 0.930 . S
H633 C606 0.931 . S
H634 C608 0.931 . S
H635 C609 0.931 . S
H636 C614 0.930 . S
H637 C615 0.931 . S
H638 C617 0.931 . S
H639 C618 0.931 . S
H640 C648 0.950 . S
H641 C653 0.950 . S
H642 C650 0.950 . S
H643 C652 0.950 . S
H644 C654 0.950 . S
H645 C656 0.950 . S
H646 C658 0.950 . S
H647 C659 0.950 . S
C648 H640 0.950 . S
C648 C649 1.386 . S
C648 C650 1.391 . S
C649 C648 1.386 . S
C649 C653 1.393 . S
C650 H642 0.950 . S
C650 C648 1.391 . S
C650 C651 1.400 . S
C651 C650 1.400 . S
C651 C652 1.398 . S
C651 C657 1.491 . S
C652 H643 0.950 . S
C652 C651 1.398 . S
C652 C653 1.391 . S
C653 H641 0.950 . S
C653 C649 1.393 . S
C653 C652 1.391 . S
C654 H644 0.950 . S
C654 C655 1.386 . S
C654 C656 1.391 . S
C655 C654 1.386 . S
C655 C659 1.393 . S
C656 H645 0.950 . S
C656 C654 1.391 . S
C656 C657 1.400 . S
C657 C651 1.491 . S
C657 C656 1.400 . S
C657 C658 1.398 . S
C658 H646 0.950 . S
C658 C657 1.398 . S
C658 C659 1.391 . S
C659 H647 0.950 . S
C659 C655 1.393 . S
C659 C658 1.391 . S
H660 C668 0.950 1_554 S
H661 C673 0.950 . S
H662 C670 0.950 . S
H663 C672 0.950 . S
H664 C674 0.950 . S
H665 C676 0.950 . S
H666 C678 0.950 . S
H667 C679 0.950 . S
C668 H660 0.950 1_556 S
C668 C669 1.386 . S
C668 C670 1.391 . S
C669 C668 1.386 . S
C669 C673 1.393 . S
C670 H662 0.950 . S
C670 C668 1.391 . S
C670 C671 1.400 . S
C671 C670 1.400 . S
C671 C672 1.398 . S
C671 C677 1.491 . S
C672 H663 0.950 . S
C672 C671 1.398 . S
C672 C673 1.391 . S
C673 H661 0.950 . S
C673 C669 1.393 . S
C673 C672 1.391 . S
C674 H664 0.950 . S
C674 C675 1.386 . S
C674 C676 1.391 . S
C675 C674 1.386 . S
C675 C679 1.393 . S
C676 H665 0.950 . S
C676 C674 1.391 . S
C676 C677 1.400 . S
C677 C671 1.491 . S
C677 C676 1.400 . S
C677 C678 1.398 . S
C678 H666 0.950 . S
C678 C677 1.398 . S
C678 C679 1.391 . S
C679 H667 0.950 . S
C679 C675 1.393 . S
C679 C678 1.391 . S
H680 C688 0.950 . S
H681 C693 0.950 . S
H682 C690 0.950 . S
H683 C692 0.950 . S
H684 C694 0.950 1_556 S
H685 C696 0.950 . S
H686 C698 0.950 . S
H687 C699 0.950 . S
C688 H680 0.950 . S
C688 C689 1.386 . S
C688 C690 1.391 . S
C689 C688 1.386 . S
C689 C693 1.393 . S
C690 H682 0.950 . S
C690 C688 1.391 . S
C690 C691 1.400 . S
C691 C690 1.400 . S
C691 C692 1.398 . S
C691 C697 1.491 . S
C692 H683 0.950 . S
C692 C691 1.398 . S
C692 C693 1.391 . S
C693 H681 0.950 . S
C693 C689 1.393 . S
C693 C692 1.391 . S
C694 H684 0.950 1_554 S
C694 C695 1.386 . S
C694 C696 1.391 . S
C695 C694 1.386 . S
C695 C699 1.393 . S
C696 H685 0.950 . S
C696 C694 1.391 . S
C696 C697 1.400 . S
C697 C691 1.491 . S
C697 C696 1.400 . S
C697 C698 1.398 . S
C698 H686 0.950 . S
C698 C697 1.398 . S
C698 C699 1.391 . S
C699 H687 0.950 . S
C699 C695 1.393 . S
C699 C698 1.391 . S
H700 C708 0.950 . S
H701 C713 0.950 . S
H702 C710 0.950 . S
H703 C712 0.950 . S
H704 C714 0.950 . S
H705 C716 0.950 . S
H706 C718 0.950 . S
H707 C719 0.950 . S
C708 H700 0.950 . S
C708 C709 1.386 . S
C708 C710 1.391 . S
C709 C708 1.386 . S
C709 C713 1.393 . S
C710 H702 0.950 . S
C710 C708 1.391 . S
C710 C711 1.400 . S
C711 C710 1.400 . S
C711 C712 1.398 . S
C711 C717 1.491 . S
C712 H703 0.950 . S
C712 C711 1.398 . S
C712 C713 1.391 . S
C713 H701 0.950 . S
C713 C709 1.393 . S
C713 C712 1.391 . S
C714 H704 0.950 . S
C714 C715 1.386 . S
C714 C716 1.391 . S
C715 C714 1.386 . S
C715 C719 1.393 . S
C716 H705 0.950 . S
C716 C714 1.391 . S
C716 C717 1.400 . S
C717 C711 1.491 . S
C717 C716 1.400 . S
C717 C718 1.398 . S
C718 H706 0.950 . S
C718 C717 1.398 . S
C718 C719 1.391 . S
C719 H707 0.950 . S
C719 C715 1.393 . S
C719 C718 1.391 . S
H720 C728 0.950 . S
H721 C733 0.950 . S
H722 C730 0.950 . S
H723 C732 0.950 . S
H724 C734 0.950 . S
H725 C736 0.950 . S
H726 C738 0.950 . S
H727 C739 0.950 . S
C728 H720 0.950 . S
C728 C729 1.386 . S
C728 C730 1.391 . S
C729 C728 1.386 . S
C729 C733 1.393 . S
C730 H722 0.950 . S
C730 C728 1.391 . S
C730 C731 1.400 . S
C731 C730 1.400 . S
C731 C732 1.398 . S
C731 C737 1.491 . S
C732 H723 0.950 . S
C732 C731 1.398 . S
C732 C733 1.391 . S
C733 H721 0.950 . S
C733 C729 1.393 . S
C733 C732 1.391 . S
C734 H724 0.950 . S
C734 C735 1.386 . S
C734 C736 1.391 . S
C735 C734 1.386 . S
C735 C739 1.393 . S
C736 H725 0.950 . S
C736 C734 1.391 . S
C736 C737 1.400 . S
C737 C731 1.491 . S
C737 C736 1.400 . S
C737 C738 1.398 . S
C738 H726 0.950 . S
C738 C737 1.398 . S
C738 C739 1.391 . S
C739 H727 0.950 . S
C739 C735 1.393 . S
C739 C738 1.391 . S
H740 C748 0.950 . S
H741 C753 0.950 . S
H742 C750 0.950 . S
H743 C752 0.950 . S
H744 C754 0.950 . S
H745 C756 0.950 . S
H746 C758 0.950 . S
H747 C759 0.950 . S
C748 H740 0.950 . S
C748 C749 1.386 . S
C748 C750 1.391 . S
C749 C748 1.386 . S
C749 C753 1.393 . S
C750 H742 0.950 . S
C750 C748 1.391 . S
C750 C751 1.400 . S
C751 C750 1.400 . S
C751 C752 1.398 . S
C751 C757 1.491 . S
C752 H743 0.950 . S
C752 C751 1.398 . S
C752 C753 1.391 . S
C753 H741 0.950 . S
C753 C749 1.393 . S
C753 C752 1.391 . S
C754 H744 0.950 . S
C754 C755 1.386 . S
C754 C756 1.391 . S
C755 C754 1.386 . S
C755 C759 1.393 . S
C756 H745 0.950 . S
C756 C754 1.391 . S
C756 C757 1.400 . S
C757 C751 1.491 . S
C757 C756 1.400 . S
C757 C758 1.398 . S
C758 H746 0.950 . S
C758 C757 1.398 . S
C758 C759 1.391 . S
C759 H747 0.950 . S
C759 C755 1.393 . S
C759 C758 1.391 . S
H760 C768 0.950 . S
H761 C773 0.950 . S
H762 C770 0.950 . S
H763 C772 0.950 . S
H764 C774 0.950 . S
H765 C776 0.950 . S
H766 C778 0.950 . S
H767 C779 0.950 . S
C768 H760 0.950 . S
C768 C769 1.386 . S
C768 C770 1.391 . S
C769 C768 1.386 . S
C769 C773 1.393 . S
C770 H762 0.950 . S
C770 C768 1.391 . S
C770 C771 1.400 . S
C771 C770 1.400 . S
C771 C772 1.398 . S
C771 C777 1.491 . S
C772 H763 0.950 . S
C772 C771 1.398 . S
C772 C773 1.391 . S
C773 H761 0.950 . S
C773 C769 1.393 . S
C773 C772 1.391 . S
C774 H764 0.950 . S
C774 C775 1.386 . S
C774 C776 1.391 1_554 S
C775 C774 1.386 . S
C775 C779 1.393 . S
C776 H765 0.950 . S
C776 C774 1.391 1_556 S
C776 C777 1.400 . S
C777 C771 1.491 . S
C777 C776 1.400 . S
C777 C778 1.398 . S
C778 H766 0.950 . S
C778 C777 1.398 . S
C778 C779 1.391 1_556 S
C779 H767 0.950 . S
C779 C775 1.393 . S
C779 C778 1.391 1_554 S
H780 C788 0.950 . S
H781 C793 0.950 . S
H782 C790 0.950 . S
H783 C792 0.950 . S
H784 C794 0.950 . S
H785 C796 0.950 . S
H786 C798 0.950 . S
H787 C799 0.950 . S
C788 H780 0.950 . S
C788 C789 1.386 . S
C788 C790 1.391 1_556 S
C789 C788 1.386 . S
C789 C793 1.393 1_556 S
C790 H782 0.950 . S
C790 C788 1.391 1_554 S
C790 C791 1.400 . S
C791 C790 1.400 . S
C791 C792 1.398 . S
C791 C797 1.491 . S
C792 H783 0.950 . S
C792 C791 1.398 . S
C792 C793 1.391 . S
C793 H781 0.950 . S
C793 C789 1.393 1_554 S
C793 C792 1.391 . S
C794 H784 0.950 . S
C794 C795 1.386 . S
C794 C796 1.391 . S
C795 C794 1.386 . S
C795 C799 1.393 . S
C796 H785 0.950 . S
C796 C794 1.391 . S
C796 C797 1.400 . S
C797 C791 1.491 . S
C797 C796 1.400 . S
C797 C798 1.398 . S
C798 H786 0.950 . S
C798 C797 1.398 . S
C798 C799 1.391 . S
C799 H787 0.950 . S
C799 C795 1.393 . S
C799 C798 1.391 . S
H800 C808 0.950 . S
H801 C813 0.950 . S
H802 C810 0.950 . S
H803 C812 0.950 . S
H804 C814 0.950 . S
H805 C816 0.950 . S
H806 C818 0.950 . S
H807 C819 0.950 . S
C808 H800 0.950 . S
C808 C809 1.386 . S
C808 C810 1.391 . S
C809 C808 1.386 . S
C809 C813 1.393 . S
C810 H802 0.950 . S
C810 C808 1.391 . S
C810 C811 1.400 . S
C811 C810 1.400 . S
C811 C812 1.398 . S
C811 C817 1.491 . S
C812 H803 0.950 . S
C812 C811 1.398 . S
C812 C813 1.391 . S
C813 H801 0.950 . S
C813 C809 1.393 . S
C813 C812 1.391 . S
C814 H804 0.950 . S
C814 C815 1.386 . S
C814 C816 1.391 . S
C815 C814 1.386 . S
C815 C819 1.393 . S
C816 H805 0.950 . S
C816 C814 1.391 . S
C816 C817 1.400 . S
C817 C811 1.491 . S
C817 C816 1.400 . S
C817 C818 1.398 . S
C818 H806 0.950 . S
C818 C817 1.398 . S
C818 C819 1.391 . S
C819 H807 0.950 . S
C819 C815 1.393 . S
C819 C818 1.391 . S
H820 C828 0.950 . S
H821 C833 0.950 . S
H822 C830 0.950 . S
H823 C832 0.950 . S
H824 C834 0.950 . S
H825 C836 0.950 . S
H826 C838 0.950 . S
H827 C839 0.950 . S
C828 H820 0.950 . S
C828 C829 1.386 . S
C828 C830 1.391 . S
C829 C828 1.386 . S
C829 C833 1.393 . S
C830 H822 0.950 . S
C830 C828 1.391 . S
C830 C831 1.400 . S
C831 C830 1.400 . S
C831 C832 1.398 . S
C831 C837 1.491 . S
C832 H823 0.950 . S
C832 C831 1.398 . S
C832 C833 1.391 . S
C833 H821 0.950 . S
C833 C829 1.393 . S
C833 C832 1.391 . S
C834 H824 0.950 . S
C834 C835 1.386 . S
C834 C836 1.391 1_556 S
C835 C834 1.386 . S
C835 C839 1.393 1_556 S
C836 H825 0.950 . S
C836 C834 1.391 1_554 S
C836 C837 1.400 . S
C837 C831 1.491 . S
C837 C836 1.400 . S
C837 C838 1.398 . S
C838 H826 0.950 . S
C838 C837 1.398 . S
C838 C839 1.391 . S
C839 H827 0.950 . S
C839 C835 1.393 1_554 S
C839 C838 1.391 . S
H840 C848 0.950 . S
H841 C853 0.950 . S
H842 C850 0.950 . S
H843 C852 0.950 . S
H844 C854 0.950 . S
H845 C856 0.950 . S
H846 C858 0.950 . S
H847 C859 0.950 . S
C848 H840 0.950 . S
C848 C849 1.386 1_556 S
C848 C850 1.391 . S
C849 C848 1.386 1_554 S
C849 C853 1.393 1_554 S
C850 H842 0.950 . S
C850 C848 1.391 . S
C850 C851 1.400 . S
C851 C850 1.400 . S
C851 C852 1.398 . S
C851 C857 1.491 . S
C852 H843 0.950 . S
C852 C851 1.398 . S
C852 C853 1.391 . S
C853 H841 0.950 . S
C853 C849 1.393 1_556 S
C853 C852 1.391 . S
C854 H844 0.950 . S
C854 C855 1.386 . S
C854 C856 1.391 . S
C855 C854 1.386 . S
C855 C859 1.393 . S
C856 H845 0.950 . S
C856 C854 1.391 . S
C856 C857 1.400 . S
C857 C851 1.491 . S
C857 C856 1.400 . S
C857 C858 1.398 . S
C858 H846 0.950 . S
C858 C857 1.398 . S
C858 C859 1.391 . S
C859 H847 0.950 . S
C859 C855 1.393 . S
C859 C858 1.391 . S
H860 C868 0.950 . S
H861 C873 0.950 . S
H862 C870 0.950 . S
H863 C872 0.950 . S
H864 C874 0.950 . S
H865 C876 0.950 . S
H866 C878 0.950 . S
H867 C879 0.950 . S
C868 H860 0.950 . S
C868 C869 1.386 . S
C868 C870 1.391 . S
C869 C868 1.386 . S
C869 C873 1.393 . S
C870 H862 0.950 . S
C870 C868 1.391 . S
C870 C871 1.400 . S
C871 C870 1.400 . S
C871 C872 1.398 . S
C871 C877 1.491 . S
C872 H863 0.950 . S
C872 C871 1.398 . S
C872 C873 1.391 . S
C873 H861 0.950 . S
C873 C869 1.393 . S
C873 C872 1.391 . S
C874 H864 0.950 . S
C874 C875 1.386 . S
C874 C876 1.391 . S
C875 C874 1.386 . S
C875 C879 1.393 . S
C876 H865 0.950 . S
C876 C874 1.391 . S
C876 C877 1.400 . S
C877 C871 1.491 . S
C877 C876 1.400 . S
C877 C878 1.398 . S
C878 H866 0.950 . S
C878 C877 1.398 . S
C878 C879 1.391 . S
C879 H867 0.950 . S
C879 C875 1.393 . S
C879 C878 1.391 . S
H880 C888 0.950 . S
H881 C893 0.950 . S
H882 C890 0.950 . S
H883 C892 0.950 . S
H884 C894 0.950 . S
H885 C896 0.950 . S
H886 C898 0.950 . S
H887 C899 0.950 . S
C888 H880 0.950 . S
C888 C889 1.386 . S
C888 C890 1.391 . S
C889 C888 1.386 . S
C889 C893 1.393 . S
C890 H882 0.950 . S
C890 C888 1.391 . S
C890 C891 1.400 . S
C891 C890 1.400 . S
C891 C892 1.398 . S
C891 C897 1.491 . S
C892 H883 0.950 . S
C892 C891 1.398 . S
C892 C893 1.391 . S
C893 H881 0.950 . S
C893 C889 1.393 . S
C893 C892 1.391 . S
C894 H884 0.950 . S
C894 C895 1.386 . S
C894 C896 1.391 . S
C895 C894 1.386 . S
C895 C899 1.393 . S
C896 H885 0.950 . S
C896 C894 1.391 . S
C896 C897 1.400 . S
C897 C891 1.491 . S
C897 C896 1.400 . S
C897 C898 1.398 . S
C898 H886 0.950 . S
C898 C897 1.398 . S
C898 C899 1.391 . S
C899 H887 0.950 . S
C899 C895 1.393 . S
C899 C898 1.391 . S
H900 C908 0.950 . S
H901 C913 0.950 . S
H902 C910 0.950 . S
H903 C912 0.950 . S
H904 C914 0.950 . S
H905 C916 0.950 . S
H906 C918 0.950 . S
H907 C919 0.950 . S
C908 H900 0.950 . S
C908 C909 1.386 . S
C908 C910 1.391 . S
C909 C908 1.386 . S
C909 C913 1.393 . S
C910 H902 0.950 . S
C910 C908 1.391 . S
C910 C911 1.400 . S
C911 C910 1.400 . S
C911 C912 1.398 . S
C911 C917 1.491 . S
C912 H903 0.950 . S
C912 C911 1.398 . S
C912 C913 1.391 . S
C913 H901 0.950 . S
C913 C909 1.393 . S
C913 C912 1.391 . S
C914 H904 0.950 . S
C914 C915 1.386 . S
C914 C916 1.391 . S
C915 C914 1.386 . S
C915 C919 1.393 . S
C916 H905 0.950 . S
C916 C914 1.391 . S
C916 C917 1.400 . S
C917 C911 1.491 . S
C917 C916 1.400 . S
C917 C918 1.398 . S
C918 H906 0.950 . S
C918 C917 1.398 . S
C918 C919 1.391 . S
C919 H907 0.950 . S
C919 C915 1.393 . S
C919 C918 1.391 . S
H920 C928 0.950 . S
H921 C933 0.950 . S
H922 C930 0.950 . S
H923 C932 0.950 . S
H924 C934 0.950 . S
H925 C936 0.950 . S
H926 C938 0.950 . S
H927 C939 0.950 . S
C928 H920 0.950 . S
C928 C929 1.386 . S
C928 C930 1.391 . S
C929 C928 1.386 . S
C929 C933 1.393 . S
C930 H922 0.950 . S
C930 C928 1.391 . S
C930 C931 1.400 . S
C931 C930 1.400 . S
C931 C932 1.398 . S
C931 C937 1.491 . S
C932 H923 0.950 . S
C932 C931 1.398 . S
C932 C933 1.391 . S
C933 H921 0.950 . S
C933 C929 1.393 . S
C933 C932 1.391 . S
C934 H924 0.950 . S
C934 C935 1.386 . S
C934 C936 1.391 1_556 S
C935 C934 1.386 . S
C935 C939 1.393 . S
C936 H925 0.950 . S
C936 C934 1.391 1_554 S
C936 C937 1.400 . S
C937 C931 1.491 . S
C937 C936 1.400 . S
C937 C938 1.398 . S
C938 H926 0.950 . S
C938 C937 1.398 . S
C938 C939 1.391 1_554 S
C939 H927 0.950 . S
C939 C935 1.393 . S
C939 C938 1.391 1_556 S
H940 C948 0.950 . S
H941 C953 0.950 1_554 S
H942 C950 0.950 . S
H943 C952 0.950 . S
H944 C954 0.950 . S
H945 C956 0.950 . S
H946 C958 0.950 . S
H947 C959 0.950 . S
C948 H940 0.950 . S
C948 C949 1.386 . S
C948 C950 1.391 . S
C949 C948 1.386 . S
C949 C953 1.393 . S
C950 H942 0.950 . S
C950 C948 1.391 . S
C950 C951 1.400 . S
C951 C950 1.400 . S
C951 C952 1.398 . S
C951 C957 1.491 . S
C952 H943 0.950 . S
C952 C951 1.398 . S
C952 C953 1.391 . S
C953 H941 0.950 1_556 S
C953 C949 1.393 . S
C953 C952 1.391 . S
C954 H944 0.950 . S
C954 C955 1.386 . S
C954 C956 1.391 . S
C955 C954 1.386 . S
C955 C959 1.393 . S
C956 H945 0.950 . S
C956 C954 1.391 . S
C956 C957 1.400 . S
C957 C951 1.491 . S
C957 C956 1.400 . S
C957 C958 1.398 . S
C958 H946 0.950 . S
C958 C957 1.398 . S
C958 C959 1.391 . S
C959 H947 0.950 . S
C959 C955 1.393 . S
C959 C958 1.391 . S
H960 C968 0.950 . S
H961 C973 0.950 . S
H962 C970 0.950 . S
H963 C972 0.950 . S
H964 C974 0.950 . S
H965 C976 0.950 . S
H966 C978 0.950 . S
H967 C979 0.950 . S
C968 H960 0.950 . S
C968 C969 1.386 . S
C968 C970 1.391 . S
C969 C968 1.386 . S
C969 C973 1.393 . S
C970 H962 0.950 . S
C970 C968 1.391 . S
C970 C971 1.400 . S
C971 C970 1.400 . S
C971 C972 1.398 . S
C971 C977 1.491 . S
C972 H963 0.950 . S
C972 C971 1.398 . S
C972 C973 1.391 . S
C973 H961 0.950 . S
C973 C969 1.393 . S
C973 C972 1.391 . S
C974 H964 0.950 . S
C974 C975 1.386 . S
C974 C976 1.391 . S
C975 C974 1.386 . S
C975 C979 1.393 . S
C976 H965 0.950 . S
C976 C974 1.391 . S
C976 C977 1.400 . S
C977 C971 1.491 . S
C977 C976 1.400 . S
C977 C978 1.398 . S
C978 H966 0.950 . S
C978 C977 1.398 . S
C978 C979 1.391 . S
C979 H967 0.950 . S
C979 C975 1.393 . S
C979 C978 1.391 . S
H980 C988 0.950 . S
H981 C993 0.950 . S
H982 C990 0.950 . S
H983 C992 0.950 . S
H984 C994 0.950 . S
H985 C996 0.950 . S
H986 C998 0.950 . S
H987 C999 0.950 . S
C988 H980 0.950 . S
C988 C989 1.386 . S
C988 C990 1.391 . S
C989 C988 1.386 . S
C989 C993 1.393 . S
C990 H982 0.950 . S
C990 C988 1.391 . S
C990 C991 1.400 . S
C991 C990 1.400 . S
C991 C992 1.398 . S
C991 C997 1.491 . S
C992 H983 0.950 . S
C992 C991 1.398 . S
C992 C993 1.391 . S
C993 H981 0.950 . S
C993 C989 1.393 . S
C993 C992 1.391 . S
C994 H984 0.950 . S
C994 C995 1.386 . S
C994 C996 1.391 . S
C995 C994 1.386 . S
C995 C999 1.393 . S
C996 H985 0.950 . S
C996 C994 1.391 . S
C996 C997 1.400 . S
C997 C991 1.491 . S
C997 C996 1.400 . S
C997 C998 1.398 . S
C998 H986 0.950 . S
C998 C997 1.398 . S
C998 C999 1.391 . S
C999 H987 0.950 . S
C999 C995 1.393 . S
C999 C998 1.391 . S
H1000 C1008 0.950 . S
H1001 C1013 0.950 . S
H1002 C1010 0.950 . S
H1003 C1012 0.950 . S
H1004 C1014 0.950 . S
H1005 C1016 0.950 . S
H1006 C1018 0.950 . S
H1007 C1019 0.950 . S
C1008 H1000 0.950 . S
C1008 C1009 1.386 . S
C1008 C1010 1.391 . S
C1009 C1008 1.386 . S
C1009 C1013 1.393 . S
C1010 H1002 0.950 . S
C1010 C1008 1.391 . S
C1010 C1011 1.400 . S
C1011 C1010 1.400 . S
C1011 C1012 1.398 . S
C1011 C1017 1.491 . S
C1012 H1003 0.950 . S
C1012 C1011 1.398 . S
C1012 C1013 1.391 . S
C1013 H1001 0.950 . S
C1013 C1009 1.393 . S
C1013 C1012 1.391 . S
C1014 H1004 0.950 . S
C1014 C1015 1.386 . S
C1014 C1016 1.391 . S
C1015 C1014 1.386 . S
C1015 C1019 1.393 . S
C1016 H1005 0.950 . S
C1016 C1014 1.391 . S
C1016 C1017 1.400 . S
C1017 C1011 1.491 . S
C1017 C1016 1.400 . S
C1017 C1018 1.398 . S
C1018 H1006 0.950 . S
C1018 C1017 1.398 . S
C1018 C1019 1.391 . S
C1019 H1007 0.950 . S
C1019 C1015 1.393 . S
C1019 C1018 1.391 . S
H1020 C1028 0.950 . S
H1021 C1033 0.950 . S
H1022 C1030 0.950 . S
H1023 C1032 0.950 . S
H1024 C1034 0.950 . S
H1025 C1036 0.950 . S
H1026 C1038 0.950 . S
H1027 C1039 0.950 . S
C1028 H1020 0.950 . S
C1028 C1029 1.386 . S
C1028 C1030 1.391 . S
C1029 C1028 1.386 . S
C1029 C1033 1.393 . S
C1030 H1022 0.950 . S
C1030 C1028 1.391 . S
C1030 C1031 1.400 . S
C1031 C1030 1.400 . S
C1031 C1032 1.398 . S
C1031 C1037 1.491 1_655 S
C1032 H1023 0.950 . S
C1032 C1031 1.398 . S
C1032 C1033 1.391 . S
C1033 H1021 0.950 . S
C1033 C1029 1.393 . S
C1033 C1032 1.391 . S
C1034 H1024 0.950 . S
C1034 C1035 1.386 . S
C1034 C1036 1.391 . S
C1035 C1034 1.386 . S
C1035 C1039 1.393 . S
C1036 H1025 0.950 . S
C1036 C1034 1.391 . S
C1036 C1037 1.400 . S
C1037 C1031 1.491 1_455 S
C1037 C1036 1.400 . S
C1037 C1038 1.398 . S
C1038 H1026 0.950 . S
C1038 C1037 1.398 . S
C1038 C1039 1.391 . S
C1039 H1027 0.950 . S
C1039 C1035 1.393 . S
C1039 C1038 1.391 . S
H1040 C1048 0.950 . S
H1041 C1053 0.950 . S
H1042 C1050 0.950 . S
H1043 C1052 0.950 . S
H1044 C1054 0.950 . S
H1045 C1056 0.950 . S
H1046 C1058 0.950 . S
H1047 C1059 0.950 . S
C1048 H1040 0.950 . S
C1048 C1049 1.386 . S
C1048 C1050 1.391 . S
C1049 C1048 1.386 . S
C1049 C1053 1.393 . S
C1050 H1042 0.950 . S
C1050 C1048 1.391 . S
C1050 C1051 1.400 . S
C1051 C1050 1.400 . S
C1051 C1052 1.398 . S
C1051 C1057 1.491 . S
C1052 H1043 0.950 . S
C1052 C1051 1.398 . S
C1052 C1053 1.391 . S
C1053 H1041 0.950 . S
C1053 C1049 1.393 . S
C1053 C1052 1.391 . S
C1054 H1044 0.950 . S
C1054 C1055 1.386 . S
C1054 C1056 1.391 . S
C1055 C1054 1.386 . S
C1055 C1059 1.393 . S
C1056 H1045 0.950 . S
C1056 C1054 1.391 . S
C1056 C1057 1.400 . S
C1057 C1051 1.491 . S
C1057 C1056 1.400 . S
C1057 C1058 1.398 . S
C1058 H1046 0.950 . S
C1058 C1057 1.398 . S
C1058 C1059 1.391 . S
C1059 H1047 0.950 . S
C1059 C1055 1.393 . S
C1059 C1058 1.391 . S
H1060 C1068 0.950 . S
H1061 C1073 0.950 . S
H1062 C1070 0.950 . S
H1063 C1072 0.950 . S
H1064 C1074 0.950 . S
H1065 C1076 0.950 . S
H1066 C1078 0.950 . S
H1067 C1079 0.950 . S
C1068 H1060 0.950 . S
C1068 C1069 1.386 . S
C1068 C1070 1.391 . S
C1069 C1068 1.386 . S
C1069 C1073 1.393 . S
C1070 H1062 0.950 . S
C1070 C1068 1.391 . S
C1070 C1071 1.400 . S
C1071 C1070 1.400 . S
C1071 C1072 1.398 . S
C1071 C1077 1.491 1_455 S
C1072 H1063 0.950 . S
C1072 C1071 1.398 . S
C1072 C1073 1.391 . S
C1073 H1061 0.950 . S
C1073 C1069 1.393 . S
C1073 C1072 1.391 . S
C1074 H1064 0.950 . S
C1074 C1075 1.386 . S
C1074 C1076 1.391 . S
C1075 C1074 1.386 . S
C1075 C1079 1.393 . S
C1076 H1065 0.950 . S
C1076 C1074 1.391 . S
C1076 C1077 1.400 . S
C1077 C1071 1.491 1_655 S
C1077 C1076 1.400 . S
C1077 C1078 1.398 . S
C1078 H1066 0.950 . S
C1078 C1077 1.398 . S
C1078 C1079 1.391 . S
C1079 H1067 0.950 . S
C1079 C1075 1.393 . S
C1079 C1078 1.391 . S
H1080 C1088 0.950 . S
H1081 C1093 0.950 . S
H1082 C1090 0.950 . S
H1083 C1092 0.950 . S
H1084 C1094 0.950 . S
H1085 C1096 0.950 . S
H1086 C1098 0.950 . S
H1087 C1099 0.950 . S
C1088 H1080 0.950 . S
C1088 C1089 1.386 . S
C1088 C1090 1.391 . S
C1089 C1088 1.386 . S
C1089 C1093 1.393 . S
C1090 H1082 0.950 . S
C1090 C1088 1.391 . S
C1090 C1091 1.400 . S
C1091 C1090 1.400 . S
C1091 C1092 1.398 . S
C1091 C1097 1.491 . S
C1092 H1083 0.950 . S
C1092 C1091 1.398 . S
C1092 C1093 1.391 . S
C1093 H1081 0.950 . S
C1093 C1089 1.393 . S
C1093 C1092 1.391 . S
C1094 H1084 0.950 . S
C1094 C1095 1.386 . S
C1094 C1096 1.391 . S
C1095 C1094 1.386 . S
C1095 C1099 1.393 . S
C1096 H1085 0.950 . S
C1096 C1094 1.391 . S
C1096 C1097 1.400 . S
C1097 C1091 1.491 . S
C1097 C1096 1.400 . S
C1097 C1098 1.398 . S
C1098 H1086 0.950 . S
C1098 C1097 1.398 . S
C1098 C1099 1.391 . S
C1099 H1087 0.950 . S
C1099 C1095 1.393 . S
C1099 C1098 1.391 . S
H1100 C1108 0.950 . S
H1101 C1113 0.950 . S
H1102 C1110 0.950 . S
H1103 C1112 0.950 . S
H1104 C1114 0.950 . S
H1105 C1116 0.950 . S
H1106 C1118 0.950 . S
H1107 C1119 0.950 . S
C1108 H1100 0.950 . S
C1108 C1109 1.386 . S
C1108 C1110 1.391 . S
C1109 C1108 1.386 . S
C1109 C1113 1.393 . S
C1110 H1102 0.950 . S
C1110 C1108 1.391 . S
C1110 C1111 1.400 . S
C1111 C1110 1.400 . S
C1111 C1112 1.398 . S
C1111 C1117 1.491 . S
C1112 H1103 0.950 . S
C1112 C1111 1.398 . S
C1112 C1113 1.391 . S
C1113 H1101 0.950 . S
C1113 C1109 1.393 . S
C1113 C1112 1.391 . S
C1114 H1104 0.950 . S
C1114 C1115 1.386 . S
C1114 C1116 1.391 . S
C1115 C1114 1.386 . S
C1115 C1119 1.393 . S
C1116 H1105 0.950 . S
C1116 C1114 1.391 . S
C1116 C1117 1.400 . S
C1117 C1111 1.491 . S
C1117 C1116 1.400 . S
C1117 C1118 1.398 . S
C1118 H1106 0.950 . S
C1118 C1117 1.398 . S
C1118 C1119 1.391 . S
C1119 H1107 0.950 . S
C1119 C1115 1.393 . S
C1119 C1118 1.391 . S
H1120 C1128 0.950 . S
H1121 C1133 0.950 . S
H1122 C1130 0.950 . S
H1123 C1132 0.950 . S
H1124 C1134 0.950 . S
H1125 C1136 0.950 . S
H1126 C1138 0.950 . S
H1127 C1139 0.950 . S
C1128 H1120 0.950 . S
C1128 C1129 1.386 . S
C1128 C1130 1.391 . S
C1129 C1128 1.386 . S
C1129 C1133 1.393 . S
C1130 H1122 0.950 . S
C1130 C1128 1.391 . S
C1130 C1131 1.400 . S
C1131 C1130 1.400 . S
C1131 C1132 1.398 . S
C1131 C1137 1.491 . S
C1132 H1123 0.950 . S
C1132 C1131 1.398 . S
C1132 C1133 1.391 . S
C1133 H1121 0.950 . S
C1133 C1129 1.393 . S
C1133 C1132 1.391 . S
C1134 H1124 0.950 . S
C1134 C1135 1.386 . S
C1134 C1136 1.391 . S
C1135 C1134 1.386 . S
C1135 C1139 1.393 . S
C1136 H1125 0.950 . S
C1136 C1134 1.391 . S
C1136 C1137 1.400 . S
C1137 C1131 1.491 . S
C1137 C1136 1.400 . S
C1137 C1138 1.398 . S
C1138 H1126 0.950 . S
C1138 C1137 1.398 . S
C1138 C1139 1.391 . S
C1139 H1127 0.950 . S
C1139 C1135 1.393 . S
C1139 C1138 1.391 . S
H1140 C1148 0.950 . S
H1141 C1153 0.950 . S
H1142 C1150 0.950 . S
H1143 C1152 0.950 . S
H1144 C1154 0.950 . S
H1145 C1156 0.950 . S
H1146 C1158 0.950 . S
H1147 C1159 0.950 . S
C1148 H1140 0.950 . S
C1148 C1149 1.386 . S
C1148 C1150 1.391 . S
C1149 C1148 1.386 . S
C1149 C1153 1.393 . S
C1150 H1142 0.950 . S
C1150 C1148 1.391 . S
C1150 C1151 1.400 . S
C1151 C1150 1.400 . S
C1151 C1152 1.398 . S
C1151 C1157 1.491 . S
C1152 H1143 0.950 . S
C1152 C1151 1.398 . S
C1152 C1153 1.391 . S
C1153 H1141 0.950 . S
C1153 C1149 1.393 . S
C1153 C1152 1.391 . S
C1154 H1144 0.950 . S
C1154 C1155 1.386 . S
C1154 C1156 1.391 . S
C1155 C1154 1.386 . S
C1155 C1159 1.393 . S
C1156 H1145 0.950 . S
C1156 C1154 1.391 . S
C1156 C1157 1.400 . S
C1157 C1151 1.491 . S
C1157 C1156 1.400 . S
C1157 C1158 1.398 . S
C1158 H1146 0.950 . S
C1158 C1157 1.398 . S
C1158 C1159 1.391 . S
C1159 H1147 0.950 . S
C1159 C1155 1.393 . S
C1159 C1158 1.391 . S
H1160 C1168 0.950 . S
H1161 C1173 0.950 . S
H1162 C1170 0.950 . S
H1163 C1172 0.950 . S
H1164 C1174 0.950 . S
H1165 C1176 0.950 . S
H1166 C1178 0.950 . S
H1167 C1179 0.950 . S
C1168 H1160 0.950 . S
C1168 C1169 1.386 . S
C1168 C1170 1.391 . S
C1169 C1168 1.386 . S
C1169 C1173 1.393 . S
C1170 H1162 0.950 . S
C1170 C1168 1.391 . S
C1170 C1171 1.400 . S
C1171 C1170 1.400 . S
C1171 C1172 1.398 . S
C1171 C1177 1.491 . S
C1172 H1163 0.950 . S
C1172 C1171 1.398 . S
C1172 C1173 1.391 . S
C1173 H1161 0.950 . S
C1173 C1169 1.393 . S
C1173 C1172 1.391 . S
C1174 H1164 0.950 . S
C1174 C1175 1.386 . S
C1174 C1176 1.391 . S
C1175 C1174 1.386 . S
C1175 C1179 1.393 . S
C1176 H1165 0.950 . S
C1176 C1174 1.391 . S
C1176 C1177 1.400 . S
C1177 C1171 1.491 . S
C1177 C1176 1.400 . S
C1177 C1178 1.398 . S
C1178 H1166 0.950 . S
C1178 C1177 1.398 . S
C1178 C1179 1.391 . S
C1179 H1167 0.950 . S
C1179 C1175 1.393 . S
C1179 C1178 1.391 . S
H1180 C1188 0.950 . S
H1181 C1193 0.950 . S
H1182 C1190 0.950 . S
H1183 C1192 0.950 . S
H1184 C1194 0.950 . S
H1185 C1196 0.950 . S
H1186 C1198 0.950 . S
H1187 C1199 0.950 . S
C1188 H1180 0.950 . S
C1188 C1189 1.386 . S
C1188 C1190 1.391 . S
C1189 C1188 1.386 . S
C1189 C1193 1.393 . S
C1190 H1182 0.950 . S
C1190 C1188 1.391 . S
C1190 C1191 1.400 . S
C1191 C1190 1.400 . S
C1191 C1192 1.398 . S
C1191 C1197 1.491 . S
C1192 H1183 0.950 . S
C1192 C1191 1.398 . S
C1192 C1193 1.391 . S
C1193 H1181 0.950 . S
C1193 C1189 1.393 . S
C1193 C1192 1.391 . S
C1194 H1184 0.950 . S
C1194 C1195 1.386 . S
C1194 C1196 1.391 . S
C1195 C1194 1.386 . S
C1195 C1199 1.393 . S
C1196 H1185 0.950 . S
C1196 C1194 1.391 . S
C1196 C1197 1.400 . S
C1197 C1191 1.491 . S
C1197 C1196 1.400 . S
C1197 C1198 1.398 . S
C1198 H1186 0.950 . S
C1198 C1197 1.398 . S
C1198 C1199 1.391 . S
C1199 H1187 0.950 . S
C1199 C1195 1.393 . S
C1199 C1198 1.391 . S
H1200 C1208 0.950 1_554 S
H1201 C1213 0.950 . S
H1202 C1210 0.950 1_554 S
H1203 C1212 0.950 . S
H1204 C1214 0.950 . S
H1205 C1216 0.950 . S
H1206 C1218 0.955 . S
H1207 C1219 0.950 . S
C1208 H1200 0.950 1_556 S
C1208 C1209 1.386 . S
C1208 C1210 1.391 . S
C1209 C1208 1.386 . S
C1209 C1213 1.393 . S
C1210 H1202 0.950 1_556 S
C1210 C1208 1.391 . S
C1210 C1211 1.400 . S
C1211 C1210 1.400 . S
C1211 C1212 1.398 . S
C1211 C1217 1.491 1_655 S
C1212 H1203 0.950 . S
C1212 C1211 1.398 . S
C1212 C1213 1.391 . S
C1213 H1201 0.950 . S
C1213 C1209 1.393 . S
C1213 C1212 1.391 . S
C1214 H1204 0.950 . S
C1214 C1215 1.386 . S
C1214 C1216 1.391 . S
C1215 C1214 1.386 . S
C1215 C1219 1.393 1_556 S
C1216 H1205 0.950 . S
C1216 C1214 1.391 . S
C1216 C1217 1.400 . S
C1217 C1211 1.491 1_455 S
C1217 C1216 1.400 . S
C1217 C1218 1.393 1_556 S
C1218 H1206 0.955 . S
C1218 C1217 1.393 1_554 S
C1218 C1219 1.391 . S
C1219 H1207 0.950 . S
C1219 C1215 1.393 1_554 S
C1219 C1218 1.391 . S
H1220 C1228 0.950 . S
H1221 C1233 0.950 . S
H1222 C1230 0.950 . S
H1223 C1232 0.950 . S
H1224 C1234 0.950 . S
H1225 C1236 0.950 . S
H1226 C1238 0.950 . S
H1227 C1239 0.950 . S
C1228 H1220 0.950 . S
C1228 C1229 1.386 . S
C1228 C1230 1.391 . S
C1229 C1228 1.386 . S
C1229 C1233 1.393 . S
C1230 H1222 0.950 . S
C1230 C1228 1.391 . S
C1230 C1231 1.400 . S
C1231 C1230 1.400 . S
C1231 C1232 1.398 . S
C1231 C1237 1.491 . S
C1232 H1223 0.950 . S
C1232 C1231 1.398 . S
C1232 C1233 1.391 . S
C1233 H1221 0.950 . S
C1233 C1229 1.393 . S
C1233 C1232 1.391 . S
C1234 H1224 0.950 . S
C1234 C1235 1.386 . S
C1234 C1236 1.391 . S
C1235 C1234 1.386 . S
C1235 C1239 1.393 . S
C1236 H1225 0.950 . S
C1236 C1234 1.391 . S
C1236 C1237 1.400 . S
C1237 C1231 1.491 . S
C1237 C1236 1.400 . S
C1237 C1238 1.398 . S
C1238 H1226 0.950 . S
C1238 C1237 1.398 . S
C1238 C1239 1.391 . S
C1239 H1227 0.950 . S
C1239 C1235 1.393 . S
C1239 C1238 1.391 . S
H1240 C1248 0.950 . S
H1241 C1253 0.950 . S
H1242 C1250 0.950 . S
H1243 C1252 0.950 . S
H1244 C1254 0.950 . S
H1245 C1256 0.950 . S
H1246 C1258 0.950 . S
H1247 C1259 0.950 . S
C1248 H1240 0.950 . S
C1248 C1249 1.386 . S
C1248 C1250 1.391 . S
C1249 C1248 1.386 . S
C1249 C1253 1.393 . S
C1250 H1242 0.950 . S
C1250 C1248 1.391 . S
C1250 C1251 1.400 . S
C1251 C1250 1.400 . S
C1251 C1252 1.398 . S
C1251 C1257 1.491 . S
C1252 H1243 0.950 . S
C1252 C1251 1.398 . S
C1252 C1253 1.391 . S
C1253 H1241 0.950 . S
C1253 C1249 1.393 . S
C1253 C1252 1.391 . S
C1254 H1244 0.950 . S
C1254 C1255 1.386 . S
C1254 C1256 1.391 . S
C1255 C1254 1.386 . S
C1255 C1259 1.393 . S
C1256 H1245 0.950 . S
C1256 C1254 1.391 . S
C1256 C1257 1.400 . S
C1257 C1251 1.491 . S
C1257 C1256 1.400 . S
C1257 C1258 1.398 . S
C1258 H1246 0.950 . S
C1258 C1257 1.398 . S
C1258 C1259 1.391 . S
C1259 H1247 0.950 . S
C1259 C1255 1.393 . S
C1259 C1258 1.391 . S
H1260 C1268 0.950 . S
H1261 C1273 0.950 . S
H1262 C1270 0.950 . S
H1263 C1272 0.950 . S
H1264 C1274 0.950 . S
H1265 C1276 0.950 . S
H1266 C1278 0.950 . S
H1267 C1279 0.950 . S
C1268 H1260 0.950 . S
C1268 C1269 1.386 . S
C1268 C1270 1.391 . S
C1269 C1268 1.386 . S
C1269 C1273 1.393 . S
C1270 H1262 0.950 . S
C1270 C1268 1.391 . S
C1270 C1271 1.400 . S
C1271 C1270 1.400 . S
C1271 C1272 1.398 . S
C1271 C1277 1.491 1_455 S
C1272 H1263 0.950 . S
C1272 C1271 1.398 . S
C1272 C1273 1.391 . S
C1273 H1261 0.950 . S
C1273 C1269 1.393 . S
C1273 C1272 1.391 . S
C1274 H1264 0.950 . S
C1274 C1275 1.386 . S
C1274 C1276 1.391 . S
C1275 C1274 1.386 . S
C1275 C1279 1.393 . S
C1276 H1265 0.950 . S
C1276 C1274 1.391 . S
C1276 C1277 1.400 . S
C1277 C1271 1.491 1_655 S
C1277 C1276 1.400 . S
C1277 C1278 1.398 . S
C1278 H1266 0.950 . S
C1278 C1277 1.398 . S
C1278 C1279 1.391 . S
C1279 H1267 0.950 . S
C1279 C1275 1.393 . S
C1279 C1278 1.391 . S
H1280 C1288 0.950 . S
H1281 C1293 0.950 . S
H1282 C1290 0.950 . S
H1283 C1292 0.950 . S
H1284 C1294 0.950 . S
H1285 C1296 0.950 . S
H1286 C1298 0.950 . S
H1287 C1299 0.950 . S
C1288 H1280 0.950 . S
C1288 C1289 1.386 . S
C1288 C1290 1.391 . S
C1289 C1288 1.386 . S
C1289 C1293 1.393 . S
C1290 H1282 0.950 . S
C1290 C1288 1.391 . S
C1290 C1291 1.400 . S
C1291 C1290 1.400 . S
C1291 C1292 1.398 . S
C1291 C1297 1.491 . S
C1292 H1283 0.950 . S
C1292 C1291 1.398 . S
C1292 C1293 1.391 . S
C1293 H1281 0.950 . S
C1293 C1289 1.393 . S
C1293 C1292 1.391 . S
C1294 H1284 0.950 . S
C1294 C1295 1.386 . S
C1294 C1296 1.391 . S
C1295 C1294 1.386 . S
C1295 C1299 1.393 . S
C1296 H1285 0.950 . S
C1296 C1294 1.391 . S
C1296 C1297 1.400 1_556 S
C1297 C1291 1.491 . S
C1297 C1296 1.400 1_554 S
C1297 C1298 1.398 . S
C1298 H1286 0.950 . S
C1298 C1297 1.398 . S
C1298 C1299 1.391 1_554 S
C1299 H1287 0.950 . S
C1299 C1295 1.393 . S
C1299 C1298 1.391 1_556 S
H1300 C1308 0.950 . S
H1301 C1313 0.950 . S
H1302 C1310 0.950 . S
H1303 C1312 0.950 . S
H1304 C1314 0.950 . S
H1305 C1316 0.950 . S
H1306 C1318 0.950 . S
H1307 C1319 0.950 . S
C1308 H1300 0.950 . S
C1308 C1309 1.386 . S
C1308 C1310 1.391 . S
C1309 C1308 1.386 . S
C1309 C1313 1.393 . S
C1310 H1302 0.950 . S
C1310 C1308 1.391 . S
C1310 C1311 1.400 . S
C1311 C1310 1.400 . S
C1311 C1312 1.398 . S
C1311 C1317 1.491 . S
C1312 H1303 0.950 . S
C1312 C1311 1.398 . S
C1312 C1313 1.391 . S
C1313 H1301 0.950 . S
C1313 C1309 1.393 . S
C1313 C1312 1.391 . S
C1314 H1304 0.950 . S
C1314 C1315 1.386 . S
C1314 C1316 1.391 . S
C1315 C1314 1.386 . S
C1315 C1319 1.393 . S
C1316 H1305 0.950 . S
C1316 C1314 1.391 . S
C1316 C1317 1.400 . S
C1317 C1311 1.491 . S
C1317 C1316 1.400 . S
C1317 C1318 1.398 . S
C1318 H1306 0.950 . S
C1318 C1317 1.398 . S
C1318 C1319 1.391 . S
C1319 H1307 0.950 . S
C1319 C1315 1.393 . S
C1319 C1318 1.391 . S
H1320 C1328 0.950 . S
H1321 C1333 0.950 . S
H1322 C1330 0.950 . S
H1323 C1332 0.950 . S
H1324 C1334 0.950 . S
H1325 C1336 0.950 . S
H1326 C1338 0.950 . S
H1327 C1339 0.950 . S
C1328 H1320 0.950 . S
C1328 C1329 1.386 . S
C1328 C1330 1.391 . S
C1329 C1328 1.386 . S
C1329 C1333 1.393 . S
C1330 H1322 0.950 . S
C1330 C1328 1.391 . S
C1330 C1331 1.400 . S
C1331 C1330 1.400 . S
C1331 C1332 1.398 . S
C1331 C1337 1.491 . S
C1332 H1323 0.950 . S
C1332 C1331 1.398 . S
C1332 C1333 1.391 . S
C1333 H1321 0.950 . S
C1333 C1329 1.393 . S
C1333 C1332 1.391 . S
C1334 H1324 0.950 . S
C1334 C1335 1.386 . S
C1334 C1336 1.391 . S
C1335 C1334 1.386 . S
C1335 C1339 1.393 . S
C1336 H1325 0.950 . S
C1336 C1334 1.391 . S
C1336 C1337 1.400 . S
C1337 C1331 1.491 . S
C1337 C1336 1.400 . S
C1337 C1338 1.398 . S
C1338 H1326 0.950 . S
C1338 C1337 1.398 . S
C1338 C1339 1.391 . S
C1339 H1327 0.950 . S
C1339 C1335 1.393 . S
C1339 C1338 1.391 . S
H1340 C1348 0.950 . S
H1341 C1353 0.950 . S
H1342 C1350 0.950 . S
H1343 C1352 0.950 . S
H1344 C1354 0.950 . S
H1345 C1356 0.950 . S
H1346 C1358 0.950 . S
H1347 C1359 0.950 . S
C1348 H1340 0.950 . S
C1348 C1349 1.386 . S
C1348 C1350 1.391 . S
C1349 C1348 1.386 . S
C1349 C1353 1.393 . S
C1350 H1342 0.950 . S
C1350 C1348 1.391 . S
C1350 C1351 1.400 . S
C1351 C1350 1.400 . S
C1351 C1352 1.398 . S
C1351 C1357 1.491 . S
C1352 H1343 0.950 . S
C1352 C1351 1.398 . S
C1352 C1353 1.391 . S
C1353 H1341 0.950 . S
C1353 C1349 1.393 . S
C1353 C1352 1.391 . S
C1354 H1344 0.950 . S
C1354 C1355 1.386 . S
C1354 C1356 1.391 . S
C1355 C1354 1.386 . S
C1355 C1359 1.393 . S
C1356 H1345 0.950 . S
C1356 C1354 1.391 . S
C1356 C1357 1.400 . S
C1357 C1351 1.491 . S
C1357 C1356 1.400 . S
C1357 C1358 1.398 . S
C1358 H1346 0.950 . S
C1358 C1357 1.398 . S
C1358 C1359 1.391 . S
C1359 H1347 0.950 . S
C1359 C1355 1.393 . S
C1359 C1358 1.391 . S
H1360 C1368 0.950 . S
H1361 C1373 0.950 . S
H1362 C1370 0.950 . S
H1363 C1372 0.950 1_556 S
H1364 C1374 0.950 . S
H1365 C1376 0.950 . S
H1366 C1378 0.970 . S
H1367 C1379 0.950 . S
C1368 H1360 0.950 . S
C1368 C1369 1.386 . S
C1368 C1370 1.391 . S
C1369 C1368 1.386 . S
C1369 C1373 1.393 . S
C1370 H1362 0.950 . S
C1370 C1368 1.391 . S
C1370 C1371 1.400 . S
C1371 C1370 1.400 . S
C1371 C1372 1.398 . S
C1371 C1377 1.491 1_554 S
C1372 H1363 0.950 1_554 S
C1372 C1371 1.398 . S
C1372 C1373 1.391 . S
C1373 H1361 0.950 . S
C1373 C1369 1.393 . S
C1373 C1372 1.391 . S
C1374 H1364 0.950 . S
C1374 C1375 1.386 . S
C1374 C1376 1.391 . S
C1375 C1374 1.386 . S
C1375 C1379 1.393 . S
C1376 H1365 0.950 . S
C1376 C1374 1.391 . S
C1376 C1377 1.400 . S
C1377 C1371 1.491 1_556 S
C1377 C1376 1.400 . S
C1377 C1378 1.388 1_556 S
C1378 H1366 0.970 . S
C1378 C1377 1.388 1_554 S
C1378 C1379 1.381 1_554 S
C1379 H1367 0.950 . S
C1379 C1375 1.393 . S
C1379 C1378 1.381 1_556 S
H1380 C1388 0.950 . S
H1381 C1393 0.950 . S
H1382 C1390 0.950 . S
H1383 C1392 0.950 . S
H1384 C1394 0.950 . S
H1385 C1396 0.950 . S
H1386 C1398 0.950 . S
H1387 C1399 0.950 . S
C1388 H1380 0.950 . S
C1388 C1389 1.386 . S
C1388 C1390 1.391 . S
C1389 C1388 1.386 . S
C1389 C1393 1.393 . S
C1390 H1382 0.950 . S
C1390 C1388 1.391 . S
C1390 C1391 1.400 . S
C1391 C1390 1.400 . S
C1391 C1392 1.398 . S
C1391 C1397 1.491 . S
C1392 H1383 0.950 . S
C1392 C1391 1.398 . S
C1392 C1393 1.391 . S
C1393 H1381 0.950 . S
C1393 C1389 1.393 . S
C1393 C1392 1.391 . S
C1394 H1384 0.950 . S
C1394 C1395 1.386 . S
C1394 C1396 1.391 . S
C1395 C1394 1.386 . S
C1395 C1399 1.393 . S
C1396 H1385 0.950 . S
C1396 C1394 1.391 . S
C1396 C1397 1.400 . S
C1397 C1391 1.491 . S
C1397 C1396 1.400 . S
C1397 C1398 1.398 . S
C1398 H1386 0.950 . S
C1398 C1397 1.398 . S
C1398 C1399 1.391 . S
C1399 H1387 0.950 . S
C1399 C1395 1.393 . S
C1399 C1398 1.391 . S
H1400 C1408 0.950 . S
H1401 C1413 0.950 . S
H1402 C1410 0.950 . S
H1403 C1412 0.950 . S
H1404 C1414 0.950 . S
H1405 C1416 0.950 . S
H1406 C1418 0.950 . S
H1407 C1419 0.950 . S
C1408 H1400 0.950 . S
C1408 C1409 1.386 . S
C1408 C1410 1.391 . S
C1409 C1408 1.386 . S
C1409 C1413 1.393 . S
C1410 H1402 0.950 . S
C1410 C1408 1.391 . S
C1410 C1411 1.400 . S
C1411 C1410 1.400 . S
C1411 C1412 1.398 . S
C1411 C1417 1.491 . S
C1412 H1403 0.950 . S
C1412 C1411 1.398 . S
C1412 C1413 1.391 . S
C1413 H1401 0.950 . S
C1413 C1409 1.393 . S
C1413 C1412 1.391 . S
C1414 H1404 0.950 . S
C1414 C1415 1.386 . S
C1414 C1416 1.391 . S
C1415 C1414 1.386 . S
C1415 C1419 1.393 . S
C1416 H1405 0.950 . S
C1416 C1414 1.391 . S
C1416 C1417 1.400 . S
C1417 C1411 1.491 . S
C1417 C1416 1.400 . S
C1417 C1418 1.398 . S
C1418 H1406 0.950 . S
C1418 C1417 1.398 . S
C1418 C1419 1.391 . S
C1419 H1407 0.950 . S
C1419 C1415 1.393 . S
C1419 C1418 1.391 . S
H1420 C1428 0.950 . S
H1421 C1433 0.950 . S
H1422 C1430 0.950 . S
H1423 C1432 0.950 . S
H1424 C1434 0.950 . S
H1425 C1436 0.950 . S
H1426 C1438 0.950 . S
H1427 C1439 0.950 . S
C1428 H1420 0.950 . S
C1428 C1429 1.386 . S
C1428 C1430 1.391 . S
C1429 C1428 1.386 . S
C1429 C1433 1.393 . S
C1430 H1422 0.950 . S
C1430 C1428 1.391 . S
C1430 C1431 1.400 . S
C1431 C1430 1.400 . S
C1431 C1432 1.398 . S
C1431 C1437 1.491 . S
C1432 H1423 0.950 . S
C1432 C1431 1.398 . S
C1432 C1433 1.391 . S
C1433 H1421 0.950 . S
C1433 C1429 1.393 . S
C1433 C1432 1.391 . S
C1434 H1424 0.950 . S
C1434 C1435 1.386 . S
C1434 C1436 1.391 . S
C1435 C1434 1.386 . S
C1435 C1439 1.393 . S
C1436 H1425 0.950 . S
C1436 C1434 1.391 . S
C1436 C1437 1.400 . S
C1437 C1431 1.491 . S
C1437 C1436 1.400 . S
C1437 C1438 1.398 . S
C1438 H1426 0.950 . S
C1438 C1437 1.398 . S
C1438 C1439 1.391 . S
C1439 H1427 0.950 . S
C1439 C1435 1.393 . S
C1439 C1438 1.391 . S
H1440 C1448 0.950 . S
H1441 C1453 0.950 . S
H1442 C1450 0.950 . S
H1443 C1452 0.950 . S
H1444 C1454 0.950 . S
H1445 C1456 0.950 . S
H1446 C1458 0.950 . S
H1447 C1459 0.950 . S
C1448 H1440 0.950 . S
C1448 C1449 1.386 . S
C1448 C1450 1.391 . S
C1449 C1448 1.386 . S
C1449 C1453 1.393 . S
C1450 H1442 0.950 . S
C1450 C1448 1.391 . S
C1450 C1451 1.400 . S
C1451 C1450 1.400 . S
C1451 C1452 1.398 . S
C1451 C1457 1.491 1_565 S
C1452 H1443 0.950 . S
C1452 C1451 1.398 . S
C1452 C1453 1.391 . S
C1453 H1441 0.950 . S
C1453 C1449 1.393 . S
C1453 C1452 1.391 . S
C1454 H1444 0.950 . S
C1454 C1455 1.386 . S
C1454 C1456 1.391 . S
C1455 C1454 1.386 . S
C1455 C1459 1.393 . S
C1456 H1445 0.950 . S
C1456 C1454 1.391 . S
C1456 C1457 1.400 . S
C1457 C1451 1.491 1_545 S
C1457 C1456 1.400 . S
C1457 C1458 1.398 . S
C1458 H1446 0.950 . S
C1458 C1457 1.398 . S
C1458 C1459 1.391 . S
C1459 H1447 0.950 . S
C1459 C1455 1.393 . S
C1459 C1458 1.391 . S
H1460 C1468 0.950 . S
H1461 C1473 0.950 . S
H1462 C1470 0.950 . S
H1463 C1472 0.950 . S
H1464 C1474 0.950 . S
H1465 C1476 0.950 . S
H1466 C1478 0.950 . S
H1467 C1479 0.950 . S
C1468 H1460 0.950 . S
C1468 C1469 1.386 . S
C1468 C1470 1.391 . S
C1469 C1468 1.386 . S
C1469 C1473 1.393 . S
C1470 H1462 0.950 . S
C1470 C1468 1.391 . S
C1470 C1471 1.400 . S
C1471 C1470 1.400 . S
C1471 C1472 1.398 . S
C1471 C1477 1.491 . S
C1472 H1463 0.950 . S
C1472 C1471 1.398 . S
C1472 C1473 1.391 . S
C1473 H1461 0.950 . S
C1473 C1469 1.393 . S
C1473 C1472 1.391 . S
C1474 H1464 0.950 . S
C1474 C1475 1.386 . S
C1474 C1476 1.391 . S
C1475 C1474 1.386 . S
C1475 C1479 1.393 . S
C1476 H1465 0.950 . S
C1476 C1474 1.391 . S
C1476 C1477 1.400 . S
C1477 C1471 1.491 . S
C1477 C1476 1.400 . S
C1477 C1478 1.398 . S
C1478 H1466 0.950 . S
C1478 C1477 1.398 . S
C1478 C1479 1.391 . S
C1479 H1467 0.950 . S
C1479 C1475 1.393 . S
C1479 C1478 1.391 . S
H1480 C1488 0.950 . S
H1481 C1493 0.950 . S
H1482 C1490 0.950 1_556 S
H1483 C1492 0.950 . S
H1484 C1494 0.950 . S
H1485 C1496 0.950 . S
H1486 C1498 0.950 . S
H1487 C1499 0.950 . S
C1488 H1480 0.950 . S
C1488 C1489 1.386 . S
C1488 C1490 1.391 . S
C1489 C1488 1.386 . S
C1489 C1493 1.393 . S
C1490 H1482 0.950 1_554 S
C1490 C1488 1.391 . S
C1490 C1491 1.400 . S
C1491 C1490 1.400 . S
C1491 C1492 1.398 . S
C1491 C1497 1.491 1_564 S
C1492 H1483 0.950 . S
C1492 C1491 1.398 . S
C1492 C1493 1.391 . S
C1493 H1481 0.950 . S
C1493 C1489 1.393 . S
C1493 C1492 1.391 . S
C1494 H1484 0.950 . S
C1494 C1495 1.386 . S
C1494 C1496 1.391 . S
C1495 C1494 1.386 . S
C1495 C1499 1.393 . S
C1496 H1485 0.950 . S
C1496 C1494 1.391 . S
C1496 C1497 1.400 . S
C1497 C1491 1.491 1_546 S
C1497 C1496 1.400 . S
C1497 C1498 1.398 . S
C1498 H1486 0.950 . S
C1498 C1497 1.398 . S
C1498 C1499 1.391 . S
C1499 H1487 0.950 . S
C1499 C1495 1.393 . S
C1499 C1498 1.391 . S
H1500 C1508 0.950 . S
H1501 C1513 0.950 . S
H1502 C1510 0.950 . S
H1503 C1512 0.950 . S
H1504 C1514 0.950 . S
H1505 C1516 0.950 . S
H1506 C1518 0.950 . S
H1507 C1519 0.950 . S
C1508 H1500 0.950 . S
C1508 C1509 1.386 . S
C1508 C1510 1.391 . S
C1509 C1508 1.386 . S
C1509 C1513 1.393 . S
C1510 H1502 0.950 . S
C1510 C1508 1.391 . S
C1510 C1511 1.400 . S
C1511 C1510 1.400 . S
C1511 C1512 1.398 . S
C1511 C1517 1.491 . S
C1512 H1503 0.950 . S
C1512 C1511 1.398 . S
C1512 C1513 1.391 . S
C1513 H1501 0.950 . S
C1513 C1509 1.393 . S
C1513 C1512 1.391 . S
C1514 H1504 0.950 . S
C1514 C1515 1.386 . S
C1514 C1516 1.391 . S
C1515 C1514 1.386 . S
C1515 C1519 1.393 . S
C1516 H1505 0.950 . S
C1516 C1514 1.391 . S
C1516 C1517 1.400 . S
C1517 C1511 1.491 . S
C1517 C1516 1.400 . S
C1517 C1518 1.398 . S
C1518 H1506 0.950 . S
C1518 C1517 1.398 . S
C1518 C1519 1.391 . S
C1519 H1507 0.950 . S
C1519 C1515 1.393 . S
C1519 C1518 1.391 . S
H1520 C1528 0.950 . S
H1521 C1533 0.950 . S
H1522 C1530 0.950 . S
H1523 C1532 0.950 . S
H1524 C1534 0.950 . S
H1525 C1536 0.950 . S
H1526 C1538 0.950 . S
H1527 C1539 0.950 . S
C1528 H1520 0.950 . S
C1528 C1529 1.386 . S
C1528 C1530 1.391 . S
C1529 C1528 1.386 . S
C1529 C1533 1.393 . S
C1530 H1522 0.950 . S
C1530 C1528 1.391 . S
C1530 C1531 1.400 . S
C1531 C1530 1.400 . S
C1531 C1532 1.398 . S
C1531 C1537 1.491 1_565 S
C1532 H1523 0.950 . S
C1532 C1531 1.398 . S
C1532 C1533 1.391 . S
C1533 H1521 0.950 . S
C1533 C1529 1.393 . S
C1533 C1532 1.391 . S
C1534 H1524 0.950 . S
C1534 C1535 1.386 . S
C1534 C1536 1.391 . S
C1535 C1534 1.386 . S
C1535 C1539 1.393 . S
C1536 H1525 0.950 . S
C1536 C1534 1.391 . S
C1536 C1537 1.400 . S
C1537 C1531 1.491 1_545 S
C1537 C1536 1.400 . S
C1537 C1538 1.398 . S
C1538 H1526 0.950 . S
C1538 C1537 1.398 . S
C1538 C1539 1.391 . S
C1539 H1527 0.950 . S
C1539 C1535 1.393 . S
C1539 C1538 1.391 . S
H1540 C1548 0.950 . S
H1541 C1553 0.950 . S
H1542 C1550 0.950 . S
H1543 C1552 0.950 . S
H1544 C1554 0.950 . S
H1545 C1556 0.950 . S
H1546 C1558 0.950 . S
H1547 C1559 0.950 . S
C1548 H1540 0.950 . S
C1548 C1549 1.386 . S
C1548 C1550 1.391 . S
C1549 C1548 1.386 . S
C1549 C1553 1.393 . S
C1550 H1542 0.950 . S
C1550 C1548 1.391 . S
C1550 C1551 1.400 . S
C1551 C1550 1.400 . S
C1551 C1552 1.398 . S
C1551 C1557 1.491 . S
C1552 H1543 0.950 . S
C1552 C1551 1.398 . S
C1552 C1553 1.391 . S
C1553 H1541 0.950 . S
C1553 C1549 1.393 . S
C1553 C1552 1.391 . S
C1554 H1544 0.950 . S
C1554 C1555 1.386 . S
C1554 C1556 1.391 . S
C1555 C1554 1.386 . S
C1555 C1559 1.393 . S
C1556 H1545 0.950 . S
C1556 C1554 1.391 . S
C1556 C1557 1.400 . S
C1557 C1551 1.491 . S
C1557 C1556 1.400 . S
C1557 C1558 1.398 . S
C1558 H1546 0.950 . S
C1558 C1557 1.398 . S
C1558 C1559 1.391 . S
C1559 H1547 0.950 . S
C1559 C1555 1.393 . S
C1559 C1558 1.391 . S
H1560 C1568 0.950 1_554 S
H1561 C1573 0.950 . S
H1562 C1570 0.950 . S
H1563 C1572 0.950 1_565 S
H1564 C1574 0.950 1_556 S
H1565 C1576 0.950 . S
H1566 C1578 0.950 1_545 S
H1567 C1579 0.950 . S
C1568 H1560 0.950 1_556 S
C1568 C1569 1.386 . S
C1568 C1570 1.391 1_556 S
C1569 C1568 1.386 . S
C1569 C1573 1.393 . S
C1570 H1562 0.950 . S
C1570 C1568 1.391 1_554 S
C1570 C1571 1.400 1_554 S
C1571 C1570 1.400 1_556 S
C1571 C1572 1.398 . S
C1571 C1577 1.491 1_546 S
C1572 H1563 0.950 1_545 S
C1572 C1571 1.398 . S
C1572 C1573 1.391 . S
C1573 H1561 0.950 . S
C1573 C1569 1.393 . S
C1573 C1572 1.391 . S
C1574 H1564 0.950 1_554 S
C1574 C1575 1.386 . S
C1574 C1576 1.391 1_554 S
C1575 C1574 1.386 . S
C1575 C1579 1.393 . S
C1576 H1565 0.950 . S
C1576 C1574 1.391 1_556 S
C1576 C1577 1.400 1_556 S
C1577 C1571 1.491 1_564 S
C1577 C1576 1.400 1_554 S
C1577 C1578 1.398 . S
C1578 H1566 0.950 1_565 S
C1578 C1577 1.398 . S
C1578 C1579 1.391 . S
C1579 H1567 0.950 . S
C1579 C1575 1.393 . S
C1579 C1578 1.391 . S
H1580 C1588 0.950 . S
H1581 C1593 0.950 . S
H1582 C1590 0.950 . S
H1583 C1592 0.950 . S
H1584 C1594 0.950 . S
H1585 C1596 0.950 . S
H1586 C1598 0.950 . S
H1587 C1599 0.950 . S
C1588 H1580 0.950 . S
C1588 C1589 1.386 . S
C1588 C1590 1.391 . S
C1589 C1588 1.386 . S
C1589 C1593 1.393 . S
C1590 H1582 0.950 . S
C1590 C1588 1.391 . S
C1590 C1591 1.400 . S
C1591 C1590 1.400 . S
C1591 C1592 1.398 . S
C1591 C1597 1.491 . S
C1592 H1583 0.950 . S
C1592 C1591 1.398 . S
C1592 C1593 1.391 . S
C1593 H1581 0.950 . S
C1593 C1589 1.393 . S
C1593 C1592 1.391 . S
C1594 H1584 0.950 . S
C1594 C1595 1.386 . S
C1594 C1596 1.391 . S
C1595 C1594 1.386 . S
C1595 C1599 1.393 . S
C1596 H1585 0.950 . S
C1596 C1594 1.391 . S
C1596 C1597 1.400 . S
C1597 C1591 1.491 . S
C1597 C1596 1.400 . S
C1597 C1598 1.398 . S
C1598 H1586 0.950 . S
C1598 C1597 1.398 . S
C1598 C1599 1.391 . S
C1599 H1587 0.950 . S
C1599 C1595 1.393 . S
C1599 C1598 1.391 . S
C649 C7 1.906 . S
C655 C16 1.906 . S
C669 C56 1.832 1_556 S
C675 C47 1.832 . S
C689 C87 1.820 . S
C695 C96 1.820 1_554 S
C709 C127 1.567 . S
C715 C136 1.567 . S
C729 C167 1.830 . S
C735 C176 1.830 . S
C749 C216 1.559 . S
C755 C207 1.559 . S
C769 C256 1.542 . S
C775 C247 1.542 . S
C789 C296 1.898 . S
C795 C287 1.898 . S
C809 C336 1.808 . S
C815 C327 1.808 . S
C829 C376 1.799 . S
C835 C367 1.799 . S
C849 C416 1.634 . S
C855 C407 1.634 . S
C869 C456 1.533 . S
C875 C447 1.533 . S
C889 C496 1.874 . S
C895 C487 1.874 . S
C909 C536 1.651 . S
C915 C527 1.651 . S
C929 C567 1.582 . S
C935 C576 1.582 . S
C949 C607 2.003 1_556 S
C955 C616 2.003 . S
C969 C10 1.628 . S
C975 C451 1.715 . S
C989 C42 1.693 . S
C995 C611 1.697 . S
C1009 C90 1.633 . S
C1015 C379 1.610 . S
C1029 C130 1.736 . S
C1035 C539 1.763 . S
C1049 C170 1.689 . S
C1055 C531 1.719 . S
C1069 C459 1.711 . S
C1075 C210 1.733 . S
C1089 C242 1.679 . S
C1095 C619 1.604 . S
C1109 C282 1.799 . S
C1115 C371 1.797 . S
C1129 C122 1.738 . S
C1135 C339 1.659 . S
C1149 C50 1.655 . S
C1155 C411 1.702 . S
C1169 C499 1.671 . S
C1175 C202 1.746 . S
C1189 C290 1.588 . S
C1195 C571 1.646 . S
C1209 C331 1.801 . S
C1215 C162 1.782 . S
C1229 C250 1.726 . S
C1235 C419 1.812 . S
C1249 C82 1.870 . S
C1255 C579 1.857 . S
C1269 C2 1.729 . S
C1275 C491 1.725 . S
C1289 C19 1.345 . S
C1295 C179 1.344 . S
C1309 C51 1.732 . S
C1315 C219 1.731 . S
C1329 C99 2.052 . S
C1335 C251 2.051 . S
C1349 C139 1.720 . S
C1355 C291 1.722 . S
C1369 C490 1.451 . S
C1375 C330 1.446 . S
C1389 C530 1.962 . S
C1395 C362 1.957 . S
C1409 C402 1.857 . S
C1415 C562 1.855 . S
C1429 C602 1.605 . S
C1435 C450 1.601 . S
C1449 C59 1.331 . S
C1455 C299 1.334 . S
C1469 C171 1.767 . S
C1475 C91 1.771 . S
C1489 C211 2.030 . S
C1495 C131 2.031 . S
C1509 C11 1.714 . S
C1515 C259 1.715 . S
C1529 C610 1.286 . S
C1535 C370 1.281 . S
C1549 C482 1.715 . S
C1555 C410 1.715 . S
C1569 C522 2.049 . S
C1575 C442 2.044 . S
C1589 C570 1.792 . S
C1595 C322 1.792 . S
