# Generated by pormake.
# Topology ecm, (8)-cn, num edge types: 1
# Building blocks:
#     Node 0, Type 0, BuildingBlock: TAGTUT_clean_sbu_1, # of connection points: 8
#     Node 1, Type 0, BuildingBlock: TAGTUT_clean_sbu_1, # of connection points: 8
#     Node 2, Type 0, BuildingBlock: TAGTUT_clean_sbu_1, # of connection points: 8
#     Node 3, Type 0, BuildingBlock: TAGTUT_clean_sbu_1, # of connection points: 8
#     Node 4, Type 0, BuildingBlock: TAGTUT_clean_sbu_1, # of connection points: 8
#     Node 5, Type 0, BuildingBlock: TAGTUT_clean_sbu_1, # of connection points: 8
#     Node 6, Type 0, BuildingBlock: TAGTUT_clean_sbu_1, # of connection points: 8
#     Node 7, Type 0, BuildingBlock: TAGTUT_clean_sbu_1, # of connection points: 8
#     Edge 8, Type (0, 0), None
#     Edge 9, Type (0, 0), None
#     Edge 10, Type (0, 0), None
#     Edge 11, Type (0, 0), None
#     Edge 12, Type (0, 0), None
#     Edge 13, Type (0, 0), None
#     Edge 14, Type (0, 0), None
#     Edge 15, Type (0, 0), None
#     Edge 16, Type (0, 0), None
#     Edge 17, Type (0, 0), None
#     Edge 18, Type (0, 0), None
#     Edge 19, Type (0, 0), None
#     Edge 20, Type (0, 0), None
#     Edge 21, Type (0, 0), None
#     Edge 22, Type (0, 0), None
#     Edge 23, Type (0, 0), None
#     Edge 24, Type (0, 0), None
#     Edge 25, Type (0, 0), None
#     Edge 26, Type (0, 0), None
#     Edge 27, Type (0, 0), None
#     Edge 28, Type (0, 0), None
#     Edge 29, Type (0, 0), None
#     Edge 30, Type (0, 0), None
#     Edge 31, Type (0, 0), None
#     Edge 32, Type (0, 0), None
#     Edge 33, Type (0, 0), None
#     Edge 34, Type (0, 0), None
#     Edge 35, Type (0, 0), None
#     Edge 36, Type (0, 0), None
#     Edge 37, Type (0, 0), None
#     Edge 38, Type (0, 0), None
#     Edge 39, Type (0, 0), None
# Relax obj value: 0.313
# Max RMSD: 0.275
# Mean RMSD: 0.275
data_MOF--net-ecm--node1-TAGTUT_clean_sbu_1--edge1-none
_symmetry_space_group_name_H-M    P1
_symmetry_Int_Tables_number       1
_symmetry_cell_setting            triclinic
loop_
_symmetry_equiv_pos_as_xyz
'x, y, z'
_cell_length_a     22.14851
_cell_length_b     22.138737
_cell_length_c     8.1742119
_cell_angle_alpha  90.003496
_cell_angle_beta   90.003541
_cell_angle_gamma 90.017138
loop_
_atom_site_label
_atom_site_type_symbol
_atom_site_fract_x
_atom_site_fract_y
_atom_site_fract_z
_atom_type_partial_charge
C0 C 0.5998 0.37186 0.9329 0.0
C1 C 0.6084 0.20942 0.32633 0.0
C2 C 0.37257 0.15766 0.06801 0.0
Mg3 Mg 0.54465 0.34983 0.25619 0.0
O4 O 0.49715 0.29187 0.15046 0.0
Mg5 Mg 0.51969 0.22588 0.00102 0.0
Mg6 Mg 0.41302 0.28291 0.19918 0.0
O7 O 0.32463 0.28202 0.2591 0.0
Mg8 Mg 0.26856 0.22094 0.16105 0.0
Mg9 Mg 0.31179 0.36727 0.4045 0.0
C10 C 0.41526 0.41571 0.16527 0.0
C11 C 0.41489 0.305 0.61986 0.0
O12 O 0.57775 0.31883 0.89419 0.0
O13 O 0.60145 0.3886 0.08102 0.0
O14 O 0.58319 0.18783 0.19965 0.0
O15 O 0.59907 0.26604 0.36675 0.0
O16 O 0.47262 0.41524 0.14149 0.0
O17 O 0.39663 0.37806 0.2658 0.0
C18 C 0.43056 0.28838 0.7737 0.0
O19 O 0.4024 0.30743 0.90391 0.0
O20 O 0.47009 0.24862 0.78597 0.0
O21 O 0.29744 0.26067 0.40221 0.0
O22 O 0.27026 0.16664 0.37875 0.0
O23 O 0.24661 0.39445 0.19966 0.0
C24 C 0.29436 0.20726 0.46497 0.0
O25 O 0.221 0.30226 0.21337 0.0
O26 O 0.3414 0.19807 -0.00036 0.0
C27 C 0.22867 0.34787 0.12744 0.0
O28 O 0.42493 0.17541 0.12542 0.0
O29 O 0.43191 0.27346 0.49287 0.0
O30 O 0.37667 0.34706 0.6067 0.0
C31 C 0.20705 0.74987 0.513 0.0
C32 C 0.34772 0.81515 0.85093 0.0
C33 C 0.41572 0.62883 0.81115 0.0
Mg34 Mg 0.22068 0.77572 0.81702 0.0
O35 O 0.28141 0.71929 0.71964 0.0
Mg36 Mg 0.36685 0.73202 0.57427 0.0
Mg37 Mg 0.28218 0.63078 0.78087 0.0
O38 O 0.29171 0.54671 0.82995 0.0
Mg39 Mg 0.3493 0.49946 0.72164 0.0
Mg40 Mg 0.22559 0.52368 0.97806 0.0
C41 C 0.15769 0.67142 0.90951 0.0
C42 C 0.28779 0.6129 0.2062 0.0
O43 O 0.26041 0.74678 0.57585 0.0
O44 O 0.16648 0.77411 0.59901 0.0
O45 O 0.39427 0.79735 0.77853 0.0
O46 O 0.30217 0.82306 0.76498 0.0
O47 O 0.19825 0.70252 0.97749 0.0
O48 O 0.17474 0.61838 0.85503 0.0
C49 C 0.30437 0.62861 0.36006 0.0
O50 O 0.27281 0.61166 0.48709 0.0
O51 O 0.34648 0.6668 0.37306 0.0
O52 O 0.31872 0.46569 0.08345 0.0
O53 O 0.3882 0.44226 0.89575 0.0
O54 O 0.18773 0.46053 0.77846 0.0
C55 C 0.37162 0.44362 0.04402 0.0
O56 O 0.26562 0.44517 0.61013 0.0
O57 O 0.41571 0.57134 0.83328 0.0
C58 C 0.2091 0.43567 0.65106 0.0
O59 O 0.37684 0.64772 0.71467 0.0
O60 O 0.30671 0.64127 0.07611 0.0
O61 O 0.24823 0.57314 0.19377 0.0
C62 C 0.44381 0.67219 0.93289 0.0
C63 C 0.43522 0.83464 0.32636 0.0
C64 C 0.67102 0.88638 0.068 0.0
Mg65 Mg 0.49895 0.69423 0.25617 0.0
O66 O 0.54645 0.75219 0.15043 0.0
Mg67 Mg 0.52391 0.81818 0.00102 0.0
Mg68 Mg 0.63057 0.76114 0.19916 0.0
O69 O 0.71896 0.76202 0.2591 0.0
Mg70 Mg 0.77503 0.8231 0.16107 0.0
Mg71 Mg 0.7318 0.67678 0.40448 0.0
C72 C 0.62833 0.62834 0.16524 0.0
C73 C 0.6287 0.73905 0.61983 0.0
O74 O 0.46587 0.72521 0.8942 0.0
O75 O 0.44213 0.65546 0.08101 0.0
O76 O 0.46042 0.85623 0.19968 0.0
O77 O 0.44455 0.77803 0.36677 0.0
O78 O 0.57097 0.62881 0.14145 0.0
O79 O 0.64696 0.66599 0.26578 0.0
C80 C 0.61304 0.75567 0.77368 0.0
O81 O 0.64119 0.73662 0.90389 0.0
O82 O 0.57351 0.79543 0.78596 0.0
O83 O 0.74615 0.78338 0.4022 0.0
O84 O 0.77333 0.87741 0.37877 0.0
O85 O 0.79698 0.6496 0.19964 0.0
C86 C 0.74923 0.83679 0.46498 0.0
O87 O 0.8226 0.74179 0.21338 0.0
O88 O 0.70219 0.84597 -0.00037 0.0
C89 C 0.81492 0.69618 0.12744 0.0
O90 O 0.61867 0.86864 0.12542 0.0
O91 O 0.61168 0.77059 0.49285 0.0
O92 O 0.66692 0.69699 0.60668 0.0
C93 C 0.83657 0.29418 0.51302 0.0
C94 C 0.6959 0.2289 0.8509 0.0
C95 C 0.62792 0.41522 0.81122 0.0
Mg96 Mg 0.82295 0.26833 0.81703 0.0
O97 O 0.76221 0.32476 0.71964 0.0
Mg98 Mg 0.67677 0.31203 0.57426 0.0
Mg99 Mg 0.76144 0.41328 0.7809 0.0
O100 O 0.75189 0.49734 0.82999 0.0
Mg101 Mg 0.6943 0.54458 0.72164 0.0
Mg102 Mg 0.81801 0.52038 0.97811 0.0
C103 C 0.88592 0.37264 0.90955 0.0
C104 C 0.75583 0.43115 0.20623 0.0
O105 O 0.78321 0.29727 0.57586 0.0
O106 O 0.87715 0.26994 0.59903 0.0
O107 O 0.64935 0.2467 0.77849 0.0
O108 O 0.74145 0.22099 0.76496 0.0
O109 O 0.84537 0.34154 0.97752 0.0
O110 O 0.86887 0.42568 0.85508 0.0
C111 C 0.73925 0.41544 0.36008 0.0
O112 O 0.77081 0.43239 0.48712 0.0
O113 O 0.69714 0.37725 0.37306 0.0
O114 O 0.72487 0.57836 0.08344 0.0
O115 O 0.65539 0.6018 0.89572 0.0
O116 O 0.85587 0.58353 0.7785 0.0
C117 C 0.67197 0.60043 0.044 0.0
O118 O 0.77798 0.59887 0.61013 0.0
O119 O 0.62789 0.47271 0.83331 0.0
C120 C 0.83449 0.60838 0.65108 0.0
O121 O 0.66677 0.39632 0.71469 0.0
O122 O 0.73691 0.40278 0.07612 0.0
O123 O 0.79537 0.47093 0.19382 0.0
C124 C 0.09979 0.87186 0.43291 0.0
C125 C 0.10837 0.70941 0.82634 0.0
C126 C 0.87255 0.6577 0.56802 0.0
Mg127 Mg 0.04465 0.84982 0.7562 0.0
O128 O 0.99714 0.79186 0.65048 0.0
Mg129 Mg 1.01967 0.72588 0.50103 0.0
Mg130 Mg 0.91301 0.78291 0.69917 0.0
O131 O 0.82461 0.78204 0.75906 0.0
Mg132 Mg 0.76853 0.72096 0.66102 0.0
Mg133 Mg 0.81178 0.86729 0.90448 0.0
C134 C 0.91526 0.91571 0.66527 0.0
C135 C 0.91486 0.80499 0.11986 0.0
O136 O 0.07773 0.81884 0.39421 0.0
O137 O 0.10145 0.8886 0.58104 0.0
O138 O 0.08317 0.68782 0.69966 0.0
O139 O 0.09906 0.76603 0.86677 0.0
O140 O 0.97262 0.91524 0.64149 0.0
O141 O 0.89662 0.87807 0.7658 0.0
C142 C 0.93053 0.78837 0.2737 0.0
O143 O 0.90238 0.80743 0.40391 0.0
O144 O 0.97006 0.74862 0.28597 0.0
O145 O 0.79741 0.76069 0.90215 0.0
O146 O 0.77022 0.66666 0.8787 0.0
O147 O 0.74661 0.89448 0.69962 0.0
C148 C 0.79432 0.70728 0.96492 0.0
O149 O 0.72094 0.80226 0.71335 0.0
O150 O 0.84136 0.69807 0.49958 0.0
C151 C 0.72863 0.8479 0.62751 0.0
O152 O 0.92492 0.67541 0.62543 0.0
O153 O 0.93189 0.77346 -0.00713 0.0
O154 O 0.87664 0.84706 0.1067 0.0
C155 C 0.70707 0.24991 0.01305 0.0
C156 C 0.84775 0.31519 0.35086 0.0
C157 C 0.91573 0.12883 0.31116 0.0
Mg158 Mg 0.7207 0.27575 0.31706 0.0
O159 O 0.78143 0.21932 0.21968 0.0
Mg160 Mg 0.86686 0.23203 0.07429 0.0
Mg161 Mg 0.78218 0.13079 0.28088 0.0
O162 O 0.79171 0.04673 0.32993 0.0
Mg163 Mg 0.8493 0.99947 0.22163 0.0
Mg164 Mg 0.72559 0.0237 0.47806 0.0
C165 C 0.65773 0.17144 0.4095 0.0
C166 C 0.78778 0.11293 0.7062 0.0
O167 O 0.76043 0.24681 0.07591 0.0
O168 O 0.6665 0.27415 0.09905 0.0
O169 O 0.89431 0.29734 0.27856 0.0
O170 O 0.80218 0.32312 0.26501 0.0
O171 O 0.69826 0.20257 0.47755 0.0
O172 O 0.67474 0.11839 0.35502 0.0
C173 C 0.80436 0.12864 0.86006 0.0
O174 O 0.7728 0.11169 0.98709 0.0
O175 O 0.84647 0.16683 0.87306 0.0
O176 O 0.81872 0.96571 0.58344 0.0
O177 O 0.8882 0.94226 0.39574 0.0
O178 O 0.68772 0.96056 0.27846 0.0
C179 C 0.87162 0.94363 0.54401 0.0
O180 O 0.76561 0.94519 0.11011 0.0
O181 O 0.91571 0.07134 0.33329 0.0
C182 C 0.7091 0.93569 0.15106 0.0
O183 O 0.87685 0.14773 0.21467 0.0
O184 O 0.80671 0.14129 0.5761 0.0
O185 O 0.74823 0.07316 0.69377 0.0
C186 C 0.94382 0.17219 0.4329 0.0
C187 C 0.93524 0.33465 0.82637 0.0
C188 C 0.17104 0.38634 0.56801 0.0
Mg189 Mg 0.99895 0.19423 0.75618 0.0
O190 O 0.04646 0.25219 0.65045 0.0
Mg191 Mg 0.02393 0.31818 0.50103 0.0
Mg192 Mg 0.13059 0.26114 0.69916 0.0
O193 O 0.21898 0.26201 0.75905 0.0
Mg194 Mg 0.27506 0.32308 0.66103 0.0
Mg195 Mg 0.23182 0.17676 0.90446 0.0
C196 C 0.12833 0.12834 0.66523 0.0
C197 C 0.12873 0.23906 0.11984 0.0
O198 O 0.96589 0.22521 0.39422 0.0
O199 O 0.94213 0.15546 0.58103 0.0
O200 O 0.96044 0.35623 0.69968 0.0
O201 O 0.94456 0.27803 0.86679 0.0
O202 O 0.07097 0.12881 0.64145 0.0
O203 O 0.14697 0.16598 0.76577 0.0
C204 C 0.11307 0.25568 0.27368 0.0
O205 O 0.14122 0.23662 0.40389 0.0
O206 O 0.07353 0.29543 0.28596 0.0
O207 O 0.24618 0.28336 0.90214 0.0
O208 O 0.27336 0.37739 0.87872 0.0
O209 O 0.29698 0.14957 0.6996 0.0
C210 C 0.24927 0.33677 0.96493 0.0
O211 O 0.32265 0.24179 0.71336 0.0
O212 O 0.20224 0.34597 0.49957 0.0
C213 C 0.31496 0.19615 0.62751 0.0
O214 O 0.11868 0.36864 0.62544 0.0
O215 O 0.11171 0.27059 -0.00715 0.0
O216 O 0.16695 0.19699 0.10668 0.0
C217 C 0.33655 0.79414 0.01307 0.0
C218 C 0.19587 0.72886 0.35083 0.0
C219 C 0.12791 0.91521 0.31123 0.0
Mg220 Mg 0.32293 0.7683 0.31707 0.0
O221 O 0.26219 0.82473 0.21968 0.0
Mg222 Mg 0.17676 0.81202 0.07428 0.0
Mg223 Mg 0.26143 0.91326 0.2809 0.0
O224 O 0.25189 0.99732 0.32997 0.0
Mg225 Mg 0.1943 0.04458 0.22163 0.0
Mg226 Mg 0.31801 1.02036 0.4781 0.0
C227 C 0.38589 0.87262 0.40954 0.0
C228 C 0.25583 0.93112 0.70623 0.0
O229 O 0.28319 0.79724 0.07592 0.0
O230 O 0.37712 0.7699 0.09908 0.0
O231 O 0.14931 0.74671 0.27852 0.0
O232 O 0.24145 0.72094 0.26499 0.0
O233 O 0.34537 0.8415 0.47758 0.0
O234 O 0.36887 0.92567 0.35507 0.0
C235 C 0.23926 0.91541 0.86008 0.0
O236 O 0.27081 0.93237 0.98712 0.0
O237 O 0.19714 0.87722 0.87306 0.0
O238 O 0.22487 0.07834 0.58342 0.0
O239 O 0.1554 0.1018 0.3957 0.0
O240 O 0.35587 0.0835 0.2785 0.0
C241 C 0.17197 0.10042 0.54398 0.0
O242 O 0.27799 0.09885 0.11011 0.0
O243 O 0.12789 0.97271 0.33331 0.0
C244 C 0.3345 0.10836 0.15108 0.0
O245 O 0.16676 0.89631 0.21469 0.0
O246 O 0.23691 0.90275 0.57612 0.0
O247 O 0.29537 0.97091 0.69382 0.0
loop_
_geom_bond_atom_site_label_1
_geom_bond_atom_site_label_2
_geom_bond_distance
_geom_bond_site_symmetry_2
_ccdc_geom_bond_type
C0 O12 1.241 . S
C0 O13 1.280 . S
C1 O14 1.277 . S
C1 O15 1.245 . S
C2 O26 1.247 . S
C2 O28 1.289 . S
Mg3 O4 1.926 . S
Mg3 O13 1.984 1_554 S
Mg3 O15 1.988 . S
Mg3 O16 2.061 . S
O4 Mg3 1.926 . S
O4 Mg5 1.986 . S
O4 Mg6 1.917 . S
Mg5 O4 1.986 . S
Mg5 O12 2.042 1_554 S
Mg5 O14 2.041 . S
Mg5 O20 2.038 1_554 S
Mg5 O28 2.238 . S
Mg6 O4 1.917 . S
Mg6 O7 1.917 . S
Mg6 O17 2.106 . S
Mg6 O19 2.079 1_554 S
Mg6 O28 2.106 . S
Mg6 O29 2.079 . S
O7 Mg6 1.917 . S
O7 Mg8 1.926 . S
O7 Mg9 1.986 . S
Mg8 O7 1.926 . S
Mg8 O22 1.984 . S
Mg8 O25 1.988 1_554 S
Mg8 O26 2.061 . S
Mg9 O7 1.986 . S
Mg9 O17 2.238 . S
Mg9 O21 2.042 . S
Mg9 O23 2.041 . S
Mg9 O30 2.038 . S
C10 O16 1.247 . S
C10 O17 1.289 . S
C11 O29 1.245 . S
C11 O30 1.274 . S
O12 C0 1.241 . S
O12 Mg5 2.042 1_556 S
O13 C0 1.280 . S
O13 Mg3 1.984 1_556 S
O14 C1 1.277 . S
O14 Mg5 2.041 . S
O15 C1 1.245 . S
O15 Mg3 1.988 . S
O16 Mg3 2.061 . S
O16 C10 1.247 . S
O17 Mg6 2.106 . S
O17 Mg9 2.238 . S
O17 C10 1.289 . S
C18 O19 1.245 . S
C18 O20 1.274 . S
O19 Mg6 2.079 1_556 S
O19 C18 1.245 . S
O20 Mg5 2.038 1_556 S
O20 C18 1.274 . S
O21 Mg9 2.042 . S
O21 C24 1.241 . S
O22 Mg8 1.984 . S
O22 C24 1.280 . S
O23 Mg9 2.041 . S
O23 C27 1.277 1_554 S
C24 O21 1.241 . S
C24 O22 1.280 . S
O25 Mg8 1.988 1_556 S
O25 C27 1.245 . S
O26 C2 1.247 . S
O26 Mg8 2.061 . S
C27 O23 1.277 1_556 S
C27 O25 1.245 . S
O28 C2 1.289 . S
O28 Mg5 2.238 . S
O28 Mg6 2.106 . S
O29 Mg6 2.079 . S
O29 C11 1.245 . S
O30 Mg9 2.038 . S
O30 C11 1.274 . S
C31 O43 1.241 . S
C31 O44 1.280 . S
C32 O45 1.277 1_554 S
C32 O46 1.245 . S
C33 O57 1.247 . S
C33 O59 1.289 . S
Mg34 O35 1.926 . S
Mg34 O44 1.984 . S
Mg34 O46 1.988 1_556 S
Mg34 O47 2.061 . S
O35 Mg34 1.926 . S
O35 Mg36 1.986 . S
O35 Mg37 1.917 . S
Mg36 O35 1.986 . S
Mg36 O43 2.042 . S
Mg36 O45 2.041 . S
Mg36 O51 2.038 . S
Mg36 O59 2.238 . S
Mg37 O35 1.917 . S
Mg37 O38 1.917 . S
Mg37 O48 2.106 . S
Mg37 O50 2.079 . S
Mg37 O59 2.106 . S
Mg37 O60 2.079 1_556 S
O38 Mg37 1.917 . S
O38 Mg39 1.926 . S
O38 Mg40 1.986 . S
Mg39 O38 1.926 . S
Mg39 O53 1.984 1_556 S
Mg39 O56 1.988 . S
Mg39 O57 2.061 . S
Mg40 O38 1.986 . S
Mg40 O48 2.238 . S
Mg40 O52 2.042 1_556 S
Mg40 O54 2.041 . S
Mg40 O61 2.038 1_556 S
C41 O47 1.247 . S
C41 O48 1.289 . S
C42 O60 1.245 . S
C42 O61 1.274 . S
O43 C31 1.241 . S
O43 Mg36 2.042 . S
O44 C31 1.280 . S
O44 Mg34 1.984 . S
O45 C32 1.277 1_556 S
O45 Mg36 2.041 . S
O46 C32 1.245 . S
O46 Mg34 1.988 1_554 S
O47 Mg34 2.061 . S
O47 C41 1.247 . S
O48 Mg37 2.106 . S
O48 Mg40 2.238 . S
O48 C41 1.289 . S
C49 O50 1.245 . S
C49 O51 1.274 . S
O50 Mg37 2.079 . S
O50 C49 1.245 . S
O51 Mg36 2.038 . S
O51 C49 1.274 . S
O52 Mg40 2.042 1_554 S
O52 C55 1.241 . S
O53 Mg39 1.984 1_554 S
O53 C55 1.280 . S
O54 Mg40 2.041 . S
O54 C58 1.277 . S
C55 O52 1.241 . S
C55 O53 1.280 . S
O56 Mg39 1.988 . S
O56 C58 1.245 . S
O57 C33 1.247 . S
O57 Mg39 2.061 . S
C58 O54 1.277 . S
C58 O56 1.245 . S
O59 C33 1.289 . S
O59 Mg36 2.238 . S
O59 Mg37 2.106 . S
O60 Mg37 2.079 1_554 S
O60 C42 1.245 . S
O61 Mg40 2.038 1_554 S
O61 C42 1.274 . S
C62 O74 1.241 . S
C62 O75 1.280 . S
C63 O76 1.277 . S
C63 O77 1.245 . S
C64 O88 1.247 . S
C64 O90 1.289 . S
Mg65 O66 1.926 . S
Mg65 O75 1.984 1_554 S
Mg65 O77 1.988 . S
Mg65 O78 2.061 . S
O66 Mg65 1.926 . S
O66 Mg67 1.986 . S
O66 Mg68 1.917 . S
Mg67 O66 1.986 . S
Mg67 O74 2.042 1_554 S
Mg67 O76 2.041 . S
Mg67 O82 2.038 1_554 S
Mg67 O90 2.238 . S
Mg68 O66 1.917 . S
Mg68 O69 1.917 . S
Mg68 O79 2.106 . S
Mg68 O81 2.079 1_554 S
Mg68 O90 2.106 . S
Mg68 O91 2.079 . S
O69 Mg68 1.917 . S
O69 Mg70 1.926 . S
O69 Mg71 1.986 . S
Mg70 O69 1.926 . S
Mg70 O84 1.984 . S
Mg70 O87 1.988 1_554 S
Mg70 O88 2.061 . S
Mg71 O69 1.986 . S
Mg71 O79 2.238 . S
Mg71 O83 2.042 . S
Mg71 O85 2.041 . S
Mg71 O92 2.038 . S
C72 O78 1.247 . S
C72 O79 1.289 . S
C73 O91 1.245 . S
C73 O92 1.274 . S
O74 C62 1.241 . S
O74 Mg67 2.042 1_556 S
O75 C62 1.280 . S
O75 Mg65 1.984 1_556 S
O76 C63 1.277 . S
O76 Mg67 2.041 . S
O77 C63 1.245 . S
O77 Mg65 1.988 . S
O78 Mg65 2.061 . S
O78 C72 1.247 . S
O79 Mg68 2.106 . S
O79 Mg71 2.238 . S
O79 C72 1.289 . S
C80 O81 1.245 . S
C80 O82 1.274 . S
O81 Mg68 2.079 1_556 S
O81 C80 1.245 . S
O82 Mg67 2.038 1_556 S
O82 C80 1.274 . S
O83 Mg71 2.042 . S
O83 C86 1.241 . S
O84 Mg70 1.984 . S
O84 C86 1.280 . S
O85 Mg71 2.041 . S
O85 C89 1.277 1_554 S
C86 O83 1.241 . S
C86 O84 1.280 . S
O87 Mg70 1.988 1_556 S
O87 C89 1.245 . S
O88 C64 1.247 . S
O88 Mg70 2.061 . S
C89 O85 1.277 1_556 S
C89 O87 1.245 . S
O90 C64 1.289 . S
O90 Mg67 2.238 . S
O90 Mg68 2.106 . S
O91 Mg68 2.079 . S
O91 C73 1.245 . S
O92 Mg71 2.038 . S
O92 C73 1.274 . S
C93 O105 1.241 . S
C93 O106 1.280 . S
C94 O107 1.277 1_554 S
C94 O108 1.245 . S
C95 O119 1.247 . S
C95 O121 1.289 . S
Mg96 O97 1.926 . S
Mg96 O106 1.984 . S
Mg96 O108 1.988 1_556 S
Mg96 O109 2.061 . S
O97 Mg96 1.926 . S
O97 Mg98 1.986 . S
O97 Mg99 1.917 . S
Mg98 O97 1.986 . S
Mg98 O105 2.042 . S
Mg98 O107 2.041 . S
Mg98 O113 2.038 . S
Mg98 O121 2.238 . S
Mg99 O97 1.917 . S
Mg99 O100 1.917 . S
Mg99 O110 2.106 . S
Mg99 O112 2.079 . S
Mg99 O121 2.106 . S
Mg99 O122 2.079 1_556 S
O100 Mg99 1.917 . S
O100 Mg101 1.926 . S
O100 Mg102 1.986 . S
Mg101 O100 1.926 . S
Mg101 O115 1.984 1_556 S
Mg101 O118 1.988 . S
Mg101 O119 2.061 . S
Mg102 O100 1.986 . S
Mg102 O110 2.238 . S
Mg102 O114 2.042 1_556 S
Mg102 O116 2.041 . S
Mg102 O123 2.038 1_556 S
C103 O109 1.247 . S
C103 O110 1.289 . S
C104 O122 1.245 . S
C104 O123 1.274 . S
O105 C93 1.241 . S
O105 Mg98 2.042 . S
O106 C93 1.280 . S
O106 Mg96 1.984 . S
O107 C94 1.277 1_556 S
O107 Mg98 2.041 . S
O108 C94 1.245 . S
O108 Mg96 1.988 1_554 S
O109 Mg96 2.061 . S
O109 C103 1.247 . S
O110 Mg99 2.106 . S
O110 Mg102 2.238 . S
O110 C103 1.289 . S
C111 O112 1.245 . S
C111 O113 1.274 . S
O112 Mg99 2.079 . S
O112 C111 1.245 . S
O113 Mg98 2.038 . S
O113 C111 1.274 . S
O114 Mg102 2.042 1_554 S
O114 C117 1.241 . S
O115 Mg101 1.984 1_554 S
O115 C117 1.280 . S
O116 Mg102 2.041 . S
O116 C120 1.277 . S
C117 O114 1.241 . S
C117 O115 1.280 . S
O118 Mg101 1.988 . S
O118 C120 1.245 . S
O119 C95 1.247 . S
O119 Mg101 2.061 . S
C120 O116 1.277 . S
C120 O118 1.245 . S
O121 C95 1.289 . S
O121 Mg98 2.238 . S
O121 Mg99 2.106 . S
O122 Mg99 2.079 1_554 S
O122 C104 1.245 . S
O123 Mg102 2.038 1_554 S
O123 C104 1.274 . S
C124 O136 1.241 . S
C124 O137 1.280 . S
C125 O138 1.277 . S
C125 O139 1.245 . S
C126 O150 1.247 . S
C126 O152 1.289 . S
Mg127 O128 1.926 1_455 S
Mg127 O137 1.984 . S
Mg127 O139 1.988 . S
Mg127 O140 2.061 1_455 S
O128 Mg127 1.926 1_655 S
O128 Mg129 1.986 1_655 S
O128 Mg130 1.917 . S
Mg129 O128 1.986 1_455 S
Mg129 O136 2.042 . S
Mg129 O138 2.041 . S
Mg129 O144 2.038 1_455 S
Mg129 O152 2.238 1_455 S
Mg130 O128 1.917 . S
Mg130 O131 1.917 . S
Mg130 O141 2.106 . S
Mg130 O143 2.079 . S
Mg130 O152 2.106 . S
Mg130 O153 2.079 . S
O131 Mg130 1.917 . S
O131 Mg132 1.926 . S
O131 Mg133 1.986 . S
Mg132 O131 1.926 . S
Mg132 O146 1.984 . S
Mg132 O149 1.988 . S
Mg132 O150 2.061 . S
Mg133 O131 1.986 . S
Mg133 O141 2.238 . S
Mg133 O145 2.042 . S
Mg133 O147 2.041 . S
Mg133 O154 2.038 . S
C134 O140 1.247 . S
C134 O141 1.289 . S
C135 O153 1.245 1_554 S
C135 O154 1.274 1_554 S
O136 C124 1.241 . S
O136 Mg129 2.042 . S
O137 C124 1.280 . S
O137 Mg127 1.984 . S
O138 C125 1.277 . S
O138 Mg129 2.041 . S
O139 C125 1.245 . S
O139 Mg127 1.988 . S
O140 Mg127 2.061 1_655 S
O140 C134 1.247 . S
O141 Mg130 2.106 . S
O141 Mg133 2.238 . S
O141 C134 1.289 . S
C142 O143 1.245 . S
C142 O144 1.274 . S
O143 Mg130 2.079 . S
O143 C142 1.245 . S
O144 Mg129 2.038 1_655 S
O144 C142 1.274 . S
O145 Mg133 2.042 . S
O145 C148 1.241 . S
O146 Mg132 1.984 . S
O146 C148 1.280 . S
O147 Mg133 2.041 . S
O147 C151 1.277 . S
C148 O145 1.241 . S
C148 O146 1.280 . S
O149 Mg132 1.988 . S
O149 C151 1.245 . S
O150 C126 1.247 . S
O150 Mg132 2.061 . S
C151 O147 1.277 . S
C151 O149 1.245 . S
O152 C126 1.289 . S
O152 Mg129 2.238 1_655 S
O152 Mg130 2.106 . S
O153 Mg130 2.079 . S
O153 C135 1.245 1_556 S
O154 Mg133 2.038 . S
O154 C135 1.274 1_556 S
C155 O167 1.241 . S
C155 O168 1.280 . S
C156 O169 1.277 . S
C156 O170 1.245 . S
C157 O181 1.247 . S
C157 O183 1.289 . S
Mg158 O159 1.926 . S
Mg158 O168 1.984 . S
Mg158 O170 1.988 . S
Mg158 O171 2.061 . S
O159 Mg158 1.926 . S
O159 Mg160 1.986 . S
O159 Mg161 1.917 . S
Mg160 O159 1.986 . S
Mg160 O167 2.042 . S
Mg160 O169 2.041 . S
Mg160 O175 2.038 . S
Mg160 O183 2.238 . S
Mg161 O159 1.917 . S
Mg161 O162 1.917 . S
Mg161 O172 2.106 . S
Mg161 O174 2.079 . S
Mg161 O183 2.106 . S
Mg161 O184 2.079 . S
O162 Mg161 1.917 . S
O162 Mg163 1.926 1_545 S
O162 Mg164 1.986 1_545 S
Mg163 O162 1.926 1_565 S
Mg163 O177 1.984 . S
Mg163 O180 1.988 . S
Mg163 O181 2.061 1_565 S
Mg164 O162 1.986 1_565 S
Mg164 O172 2.238 1_565 S
Mg164 O176 2.042 . S
Mg164 O178 2.041 . S
Mg164 O185 2.038 1_565 S
C165 O171 1.247 . S
C165 O172 1.289 . S
C166 O184 1.245 . S
C166 O185 1.274 . S
O167 C155 1.241 . S
O167 Mg160 2.042 . S
O168 C155 1.280 . S
O168 Mg158 1.984 . S
O169 C156 1.277 . S
O169 Mg160 2.041 . S
O170 C156 1.245 . S
O170 Mg158 1.988 . S
O171 Mg158 2.061 . S
O171 C165 1.247 . S
O172 Mg161 2.106 . S
O172 Mg164 2.238 1_545 S
O172 C165 1.289 . S
C173 O174 1.245 1_556 S
C173 O175 1.274 1_556 S
O174 Mg161 2.079 . S
O174 C173 1.245 1_554 S
O175 Mg160 2.038 . S
O175 C173 1.274 1_554 S
O176 Mg164 2.042 . S
O176 C179 1.241 . S
O177 Mg163 1.984 . S
O177 C179 1.280 . S
O178 Mg164 2.041 . S
O178 C182 1.277 . S
C179 O176 1.241 . S
C179 O177 1.280 . S
O180 Mg163 1.988 . S
O180 C182 1.245 . S
O181 C157 1.247 . S
O181 Mg163 2.061 1_545 S
C182 O178 1.277 . S
C182 O180 1.245 . S
O183 C157 1.289 . S
O183 Mg160 2.238 . S
O183 Mg161 2.106 . S
O184 Mg161 2.079 . S
O184 C166 1.245 . S
O185 Mg164 2.038 1_545 S
O185 C166 1.274 . S
C186 O198 1.241 . S
C186 O199 1.280 . S
C187 O200 1.277 . S
C187 O201 1.245 . S
C188 O212 1.247 . S
C188 O214 1.289 . S
Mg189 O190 1.926 1_655 S
Mg189 O199 1.984 . S
Mg189 O201 1.988 . S
Mg189 O202 2.061 1_655 S
O190 Mg189 1.926 1_455 S
O190 Mg191 1.986 1_455 S
O190 Mg192 1.917 . S
Mg191 O190 1.986 1_655 S
Mg191 O198 2.042 . S
Mg191 O200 2.041 . S
Mg191 O206 2.038 1_655 S
Mg191 O214 2.238 1_655 S
Mg192 O190 1.917 . S
Mg192 O193 1.917 . S
Mg192 O203 2.106 . S
Mg192 O205 2.079 . S
Mg192 O214 2.106 . S
Mg192 O215 2.079 . S
O193 Mg192 1.917 . S
O193 Mg194 1.926 . S
O193 Mg195 1.986 . S
Mg194 O193 1.926 . S
Mg194 O208 1.984 . S
Mg194 O211 1.988 . S
Mg194 O212 2.061 . S
Mg195 O193 1.986 . S
Mg195 O203 2.238 . S
Mg195 O207 2.042 . S
Mg195 O209 2.041 . S
Mg195 O216 2.038 . S
C196 O202 1.247 . S
C196 O203 1.289 . S
C197 O215 1.245 1_554 S
C197 O216 1.274 1_554 S
O198 C186 1.241 . S
O198 Mg191 2.042 . S
O199 C186 1.280 . S
O199 Mg189 1.984 . S
O200 C187 1.277 . S
O200 Mg191 2.041 . S
O201 C187 1.245 . S
O201 Mg189 1.988 . S
O202 Mg189 2.061 1_455 S
O202 C196 1.247 . S
O203 Mg192 2.106 . S
O203 Mg195 2.238 . S
O203 C196 1.289 . S
C204 O205 1.245 . S
C204 O206 1.274 . S
O205 Mg192 2.079 . S
O205 C204 1.245 . S
O206 Mg191 2.038 1_455 S
O206 C204 1.274 . S
O207 Mg195 2.042 . S
O207 C210 1.241 . S
O208 Mg194 1.984 . S
O208 C210 1.280 . S
O209 Mg195 2.041 . S
O209 C213 1.277 . S
C210 O207 1.241 . S
C210 O208 1.280 . S
O211 Mg194 1.988 . S
O211 C213 1.245 . S
O212 C188 1.247 . S
O212 Mg194 2.061 . S
C213 O209 1.277 . S
C213 O211 1.245 . S
O214 C188 1.289 . S
O214 Mg191 2.238 1_455 S
O214 Mg192 2.106 . S
O215 Mg192 2.079 . S
O215 C197 1.245 1_556 S
O216 Mg195 2.038 . S
O216 C197 1.274 1_556 S
C217 O229 1.241 . S
C217 O230 1.280 . S
C218 O231 1.277 . S
C218 O232 1.245 . S
C219 O243 1.247 . S
C219 O245 1.289 . S
Mg220 O221 1.926 . S
Mg220 O230 1.984 . S
Mg220 O232 1.988 . S
Mg220 O233 2.061 . S
O221 Mg220 1.926 . S
O221 Mg222 1.986 . S
O221 Mg223 1.917 . S
Mg222 O221 1.986 . S
Mg222 O229 2.042 . S
Mg222 O231 2.041 . S
Mg222 O237 2.038 . S
Mg222 O245 2.238 . S
Mg223 O221 1.917 . S
Mg223 O224 1.917 . S
Mg223 O234 2.106 . S
Mg223 O236 2.079 . S
Mg223 O245 2.106 . S
Mg223 O246 2.079 . S
O224 Mg223 1.917 . S
O224 Mg225 1.926 1_565 S
O224 Mg226 1.986 1_565 S
Mg225 O224 1.926 1_545 S
Mg225 O239 1.984 . S
Mg225 O242 1.988 . S
Mg225 O243 2.061 1_545 S
Mg226 O224 1.986 1_545 S
Mg226 O234 2.238 1_545 S
Mg226 O238 2.042 . S
Mg226 O240 2.041 . S
Mg226 O247 2.038 1_545 S
C227 O233 1.247 . S
C227 O234 1.289 . S
C228 O246 1.245 . S
C228 O247 1.274 . S
O229 C217 1.241 . S
O229 Mg222 2.042 . S
O230 C217 1.280 . S
O230 Mg220 1.984 . S
O231 C218 1.277 . S
O231 Mg222 2.041 . S
O232 C218 1.245 . S
O232 Mg220 1.988 . S
O233 Mg220 2.061 . S
O233 C227 1.247 . S
O234 Mg223 2.106 . S
O234 Mg226 2.238 1_565 S
O234 C227 1.289 . S
C235 O236 1.245 1_556 S
C235 O237 1.274 1_556 S
O236 Mg223 2.079 . S
O236 C235 1.245 1_554 S
O237 Mg222 2.038 . S
O237 C235 1.274 1_554 S
O238 Mg226 2.042 . S
O238 C241 1.241 . S
O239 Mg225 1.984 . S
O239 C241 1.280 . S
O240 Mg226 2.041 . S
O240 C244 1.277 . S
C241 O238 1.241 . S
C241 O239 1.280 . S
O242 Mg225 1.988 . S
O242 C244 1.245 . S
O243 C219 1.247 . S
O243 Mg225 2.061 1_565 S
C244 O240 1.277 . S
C244 O242 1.245 . S
O245 C219 1.289 . S
O245 Mg222 2.238 . S
O245 Mg223 2.106 . S
O246 Mg223 2.079 . S
O246 C228 1.245 . S
O247 Mg226 2.038 1_565 S
O247 C228 1.274 . S
C18 C11 2.453 . S
C42 C49 2.453 . S
C73 C80 2.453 . S
C104 C111 2.453 . S
C142 C135 2.453 . S
C173 C166 2.453 . S
C204 C197 2.453 . S
C235 C228 2.453 . S
C2 C244 2.645 . S
C41 C125 2.645 . S
C64 C182 2.645 . S
C103 C187 2.645 . S
C55 C10 3.397 . S
C62 C33 3.397 . S
C72 C117 3.397 . S
C0 C95 3.397 . S
C126 C120 2.645 . S
C165 C1 2.645 . S
C188 C58 2.645 . S
C227 C63 2.645 . S
C179 C134 3.397 . S
C157 C186 3.397 . S
C196 C241 3.397 . S
C219 C124 3.397 . S
C210 C27 0.909 . S
C217 C32 0.909 . S
C148 C89 0.909 . S
C155 C94 0.909 . S
C24 C213 0.909 . S
C31 C218 0.909 . S
C151 C86 0.909 . S
C156 C93 0.909 . S
