# Generated by pormake.
# Topology lvt, (4)-cn, num edge types: 1
# Building blocks:
#     Node 0, Type 0, BuildingBlock: NAWXER_clean_sbu_0, # of connection points: 4
#     Node 1, Type 0, BuildingBlock: NAWXER_clean_sbu_0, # of connection points: 4
#     Node 2, Type 0, BuildingBlock: NAWXER_clean_sbu_0, # of connection points: 4
#     Node 3, Type 0, BuildingBlock: NAWXER_clean_sbu_0, # of connection points: 4
#     Node 4, Type 0, BuildingBlock: NAWXER_clean_sbu_0, # of connection points: 4
#     Node 5, Type 0, BuildingBlock: NAWXER_clean_sbu_0, # of connection points: 4
#     Node 6, Type 0, BuildingBlock: NAWXER_clean_sbu_0, # of connection points: 4
#     Node 7, Type 0, BuildingBlock: NAWXER_clean_sbu_0, # of connection points: 4
#     Edge 8, Type (0, 0), BuildingBlock: MIFKUJ_clean_linker_0, # of connection points: 2
#     Edge 9, Type (0, 0), BuildingBlock: MIFKUJ_clean_linker_0, # of connection points: 2
#     Edge 10, Type (0, 0), BuildingBlock: MIFKUJ_clean_linker_0, # of connection points: 2
#     Edge 11, Type (0, 0), BuildingBlock: MIFKUJ_clean_linker_0, # of connection points: 2
#     Edge 12, Type (0, 0), BuildingBlock: MIFKUJ_clean_linker_0, # of connection points: 2
#     Edge 13, Type (0, 0), BuildingBlock: MIFKUJ_clean_linker_0, # of connection points: 2
#     Edge 14, Type (0, 0), BuildingBlock: MIFKUJ_clean_linker_0, # of connection points: 2
#     Edge 15, Type (0, 0), BuildingBlock: MIFKUJ_clean_linker_0, # of connection points: 2
#     Edge 16, Type (0, 0), BuildingBlock: MIFKUJ_clean_linker_0, # of connection points: 2
#     Edge 17, Type (0, 0), BuildingBlock: MIFKUJ_clean_linker_0, # of connection points: 2
#     Edge 18, Type (0, 0), BuildingBlock: MIFKUJ_clean_linker_0, # of connection points: 2
#     Edge 19, Type (0, 0), BuildingBlock: MIFKUJ_clean_linker_0, # of connection points: 2
#     Edge 20, Type (0, 0), BuildingBlock: MIFKUJ_clean_linker_0, # of connection points: 2
#     Edge 21, Type (0, 0), BuildingBlock: MIFKUJ_clean_linker_0, # of connection points: 2
#     Edge 22, Type (0, 0), BuildingBlock: MIFKUJ_clean_linker_0, # of connection points: 2
#     Edge 23, Type (0, 0), BuildingBlock: MIFKUJ_clean_linker_0, # of connection points: 2
# Relax obj value: 0.000
# Max RMSD: 0.000
# Mean RMSD: 0.000
data_MOF--net-lvt--node1-NAWXER_clean_sbu_0--edge1-MIFKUJ_clean_linker_0
_symmetry_space_group_name_H-M    P1
_symmetry_Int_Tables_number       1
_symmetry_cell_setting            triclinic
loop_
_symmetry_equiv_pos_as_xyz
'x, y, z'
_cell_length_a     50.238564
_cell_length_b     50.35934
_cell_length_c     28.382516
_cell_angle_alpha  89.930942
_cell_angle_beta   89.876488
_cell_angle_gamma 89.955373
loop_
_atom_site_label
_atom_site_type_symbol
_atom_site_fract_x
_atom_site_fract_y
_atom_site_fract_z
_atom_type_partial_charge
C0 C 0.98521 0.98743 0.52681 0.0
C1 C 0.05671 0.04934 0.48445 0.0
O2 O 0.99541 0.98304 0.48611 0.0
Zn3 Zn 0.02584 0.99898 0.44127 0.0
O4 O 0.99416 1.00639 0.55178 0.0
Zn5 Zn 0.0209 0.01892 0.50734 0.0
O6 O 0.99658 0.03342 0.45127 0.0
O7 O 1.00574 0.01102 0.38647 0.0
O8 O 0.04266 0.04986 0.52179 0.0
O9 O 0.05223 0.03159 0.45314 0.0
O10 O 0.0503 0.96928 0.43626 0.0
O11 O 0.04954 0.98721 0.50721 0.0
C12 C 0.99255 0.02909 0.40739 0.0
C13 C 0.05886 0.96991 0.47841 0.0
C14 C 0.23508 0.78704 0.70921 0.0
C15 C 0.29802 0.72608 0.78448 0.0
O16 O 0.2567 0.77784 0.69255 0.0
Zn17 Zn 0.26707 0.75657 0.74628 0.0
O18 O 0.22786 0.78037 0.75101 0.0
Zn19 Zn 0.24251 0.75555 0.80729 0.0
O20 O 0.24899 0.78002 0.85882 0.0
O21 O 0.27644 0.7856 0.79884 0.0
O22 O 0.27772 0.73138 0.81026 0.0
O23 O 0.30017 0.73669 0.74396 0.0
O24 O 0.23764 0.72547 0.74752 0.0
O25 O 0.2148 0.72911 0.81369 0.0
C26 C 0.26848 0.79222 0.84012 0.0
C27 C 0.21913 0.71711 0.77503 0.0
C28 C 0.46101 0.97104 0.02933 0.0
C29 C 0.53113 0.02914 0.09033 0.0
O30 O 0.47112 0.98617 0.99764 0.0
Zn31 Zn 0.50164 0.0158 0.99217 0.0
O32 O 0.47017 0.9719 0.07101 0.0
Zn33 Zn 0.49684 0.99925 0.06045 0.0
O34 O 0.47299 0.03384 0.04551 0.0
O35 O 0.48145 0.04671 0.97264 0.0
O36 O 0.51786 0.01185 0.11309 0.0
O37 O 0.52699 0.03216 0.04603 0.0
O38 O 0.52671 1.00024 0.9485 0.0
O39 O 0.52622 0.97975 0.01717 0.0
C40 C 0.46898 0.05 0.01124 0.0
C41 C 0.53563 0.98209 0.97529 0.0
C42 C 0.27107 0.23327 0.15554 0.0
C43 C 0.22093 0.30717 0.22452 0.0
O44 O 0.25188 0.24571 0.13639 0.0
Zn45 Zn 0.24543 0.27047 0.18822 0.0
O46 O 0.27886 0.23994 0.19678 0.0
Zn47 Zn 0.27009 0.26843 0.24972 0.0
O48 O 0.25992 0.24602 0.30249 0.0
O49 O 0.23069 0.24579 0.24444 0.0
O50 O 0.23963 0.29836 0.25102 0.0
O51 O 0.21746 0.29698 0.18397 0.0
O52 O 0.28058 0.29425 0.18551 0.0
O53 O 0.30317 0.28857 0.25134 0.0
C54 C 0.2378 0.23822 0.28573 0.0
C55 C 0.30101 0.29927 0.2109 0.0
C56 C 0.73847 0.291 0.22311 0.0
C57 C 0.79752 0.21645 0.25945 0.0
O58 O 0.75613 0.28052 0.19694 0.0
Zn59 Zn 0.76778 0.25332 0.24042 0.0
O60 O 0.7343 0.28141 0.26439 0.0
Zn61 Zn 0.74972 0.24975 0.30763 0.0
O62 O 0.76335 0.26897 0.36135 0.0
O63 O 0.78623 0.2759 0.29603 0.0
O64 O 0.78149 0.222 0.29333 0.0
O65 O 0.79629 0.22972 0.22139 0.0
O66 O 0.73409 0.22706 0.24333 0.0
O67 O 0.71929 0.22664 0.31648 0.0
C68 C 0.78267 0.28013 0.34019 0.0
C69 C 0.71747 0.21855 0.27422 0.0
C70 C 0.79429 0.73518 0.72646 0.0
C71 C 0.73031 0.79987 0.78923 0.0
O72 O 0.77805 0.74445 0.69574 0.0
Zn73 Zn 0.7458 0.77237 0.69108 0.0
O74 O 0.7932 0.74344 0.76884 0.0
Zn75 Zn 0.76319 0.76732 0.75979 0.0
O76 O 0.73278 0.73946 0.74205 0.0
O77 O 0.71637 0.74937 0.67195 0.0
O78 O 0.7479 0.78724 0.81237 0.0
O79 O 0.72808 0.79582 0.74487 0.0
O80 O 0.76056 0.7992 0.64869 0.0
O81 O 0.78128 0.79713 0.71703 0.0
C82 C 0.71663 0.73455 0.70831 0.0
C83 C 0.77891 0.80738 0.67591 0.0
C84 C 0.4925 0.5481 0.98209 0.0
C85 C 0.56633 0.49314 0.03913 0.0
O86 O 0.50501 0.55106 0.02072 0.0
Zn87 Zn 0.52924 0.52139 0.01226 0.0
O88 O 0.49901 0.5292 0.95405 0.0
Zn89 Zn 0.5278 0.49767 0.94944 0.0
O90 O 0.50527 0.46606 0.94847 0.0
O91 O 0.50274 0.48836 0.01526 0.0
O92 O 0.55789 0.48631 0.99834 0.0
O93 O 0.55545 0.51257 0.06031 0.0
O94 O 0.5522 0.53594 0.95447 0.0
O95 O 0.54832 0.50869 0.89408 0.0
C96 C 0.4954 0.46882 0.98953 0.0
C97 C 0.55769 0.52996 0.91166 0.0
C98 C 0.97396 0.46084 0.53388 0.0
C99 C 0.04696 0.51541 0.59299 0.0
O100 O 0.98004 0.47989 0.50585 0.0
Zn101 Zn 1.00844 0.51168 0.50249 0.0
O102 O 0.98691 0.45796 0.57195 0.0
Zn103 Zn 0.01076 0.48787 0.564 0.0
O104 O 0.98465 0.52154 0.56909 0.0
O105 O 0.98616 0.54302 0.5014 0.0
O106 O 0.03592 0.49583 0.61347 0.0
O107 O 0.03888 0.5228 0.55217 0.0
O108 O 0.0286 0.50276 0.44672 0.0
O109 O 0.03598 0.47553 0.50634 0.0
C110 C 0.97721 0.54105 0.54318 0.0
C111 C 0.04068 0.48277 0.46373 0.0
H112 H 0.06134 0.09979 0.52071 0.0
H113 H 0.09292 0.13428 0.49533 0.0
H114 H 0.13129 0.07786 0.40322 0.0
H115 H 0.0996 0.04383 0.42724 0.0
H116 H 0.14659 0.1424 0.4926 0.0
H117 H 0.14314 0.10618 0.29789 0.0
H118 H 0.11213 0.08265 0.24518 0.0
H119 H 0.04599 0.10823 0.32974 0.0
H120 H 0.07646 0.1326 0.38209 0.0
H121 H 0.25015 0.20375 0.35767 0.0
H122 H 0.21962 0.17386 0.39952 0.0
H123 H 0.15377 0.20555 0.31965 0.0
H124 H 0.18425 0.23427 0.27649 0.0
H125 H 0.149 0.15642 0.31958 0.0
H126 H 0.16505 0.21905 0.44183 0.0
H127 H 0.19154 0.24649 0.49623 0.0
H128 H 0.22462 0.17613 0.55861 0.0
H129 H 0.19858 0.14827 0.50414 0.0
C130 C 0.07678 0.09472 0.49559 0.0
C131 C 0.07773 0.06927 0.47533 0.0
C132 C 0.09483 0.1144 0.4812 0.0
C133 C 0.11412 0.10878 0.44664 0.0
C134 C 0.11622 0.08282 0.42914 0.0
C135 C 0.09807 0.06338 0.44292 0.0
C136 C 0.13067 0.13023 0.4257 0.0
C137 C 0.14716 0.14556 0.4548 0.0
C138 C 0.13079 0.13489 0.37648 0.0
C139 C 0.11217 0.121 0.34421 0.0
C140 C 0.12196 0.10699 0.305 0.0
C141 C 0.10446 0.09353 0.27516 0.0
C142 C 0.0771 0.09396 0.28411 0.0
C143 C 0.06717 0.10797 0.32278 0.0
C144 C 0.08455 0.12162 0.35254 0.0
C145 C 0.22913 0.20436 0.34933 0.0
C146 C 0.21962 0.22116 0.31354 0.0
C147 C 0.21164 0.18741 0.37348 0.0
C148 C 0.18424 0.18749 0.36309 0.0
C149 C 0.17477 0.20486 0.32819 0.0
C150 C 0.19225 0.22132 0.3035 0.0
C151 C 0.16553 0.16852 0.38626 0.0
C152 C 0.14853 0.15351 0.35745 0.0
C153 C 0.16434 0.16491 0.4358 0.0
C154 C 0.18005 0.18158 0.46859 0.0
C155 C 0.17813 0.20943 0.4669 0.0
C156 C 0.19304 0.22506 0.4978 0.0
C157 C 0.2098 0.21306 0.53077 0.0
C158 C 0.21165 0.1854 0.533 0.0
C159 C 0.1968 0.16968 0.50216 0.0
H160 H 0.22132 0.22519 0.55467 0.0
H161 H 0.06359 0.08344 0.26108 0.0
H162 H 0.09061 0.97474 0.55549 0.0
H163 H 0.12292 0.94281 0.5859 0.0
H164 H 0.10558 0.88997 0.47056 0.0
H165 H 0.07329 0.92213 0.43936 0.0
H166 H 0.10393 0.86559 0.56033 0.0
H167 H 0.16253 0.9198 0.46858 0.0
H168 H 0.18248 0.96181 0.44123 0.0
H169 H 0.21057 0.97782 0.5811 0.0
H170 H 0.19044 0.93608 0.60947 0.0
H171 H 0.24429 0.80617 0.61995 0.0
H172 H 0.21577 0.83567 0.57344 0.0
H173 H 0.15914 0.83857 0.68773 0.0
H174 H 0.18725 0.80895 0.73411 0.0
H175 H 0.19928 0.88571 0.58836 0.0
H176 H 0.09808 0.84392 0.64796 0.0
H177 H 0.07742 0.80128 0.67051 0.0
H178 H 0.13449 0.75936 0.58585 0.0
H179 H 0.15567 0.80158 0.56343 0.0
C180 C 0.09376 0.95641 0.53634 0.0
C181 C 0.07934 0.95092 0.49504 0.0
C182 C 0.11234 0.93824 0.55368 0.0
C183 C 0.11673 0.9141 0.53038 0.0
C184 C 0.10251 0.90856 0.48897 0.0
C185 C 0.08415 0.92695 0.47114 0.0
C186 C 0.13525 0.89423 0.55079 0.0
C187 C 0.12481 0.86994 0.56626 0.0
C188 C 0.16252 0.89984 0.55819 0.0
C189 C 0.17479 0.92489 0.54123 0.0
C190 C 0.17278 0.93238 0.4936 0.0
C191 C 0.18415 0.95612 0.47789 0.0
C192 C 0.19774 0.9725 0.50943 0.0
C193 C 0.20003 0.96512 0.55672 0.0
C194 C 0.18866 0.9414 0.57262 0.0
C195 C 0.22573 0.81303 0.63515 0.0
C196 C 0.21806 0.8051 0.68077 0.0
C197 C 0.20946 0.82994 0.60853 0.0
C198 C 0.18513 0.83911 0.6268 0.0
C199 C 0.17756 0.83139 0.67246 0.0
C200 C 0.19378 0.81454 0.69908 0.0
C201 C 0.16786 0.85718 0.5987 0.0
C202 C 0.17847 0.88125 0.58209 0.0
C203 C 0.14073 0.85136 0.59001 0.0
C204 C 0.12856 0.82585 0.60437 0.0
C205 C 0.10626 0.82554 0.63435 0.0
C206 C 0.09451 0.80144 0.64724 0.0
C207 C 0.10476 0.77755 0.62993 0.0
C208 C 0.12677 0.77776 0.59976 0.0
C209 C 0.13873 0.80177 0.58711 0.0
H210 H 0.09557 0.7589 0.63971 0.0
H211 H 0.20653 0.99088 0.4972 0.0
H212 H 0.43574 0.96726 0.94467 0.0
H213 H 0.39908 0.93818 0.9231 0.0
H214 H 0.39826 0.90528 0.06347 0.0
H215 H 0.43541 0.93436 0.08543 0.0
H216 H 0.39473 0.86666 0.99943 0.0
H217 H 0.34842 0.94707 0.02774 0.0
H218 H 0.33502 0.99414 0.02395 0.0
H219 H 0.32356 0.98765 0.87457 0.0
H220 H 0.33724 0.94064 0.87728 0.0
H221 H 0.27338 0.79794 0.93583 0.0
H222 H 0.3028 0.82892 0.97777 0.0
H223 H 0.3268 0.86338 0.84519 0.0
H224 H 0.298 0.83234 0.80322 0.0
H225 H 0.31445 0.90094 0.91796 0.0
H226 H 0.36586 0.82062 0.89151 0.0
H227 H 0.37431 0.77255 0.89867 0.0
H228 H 0.37325 0.77901 0.04951 0.0
H229 H 0.36435 0.8271 0.04321 0.0
C230 C 0.4278 0.95393 0.97116 0.0
C231 C 0.43856 0.9532 0.01687 0.0
C232 C 0.40664 0.93741 0.9588 0.0
C233 C 0.39558 0.9198 0.99182 0.0
C234 C 0.40636 0.91881 0.03745 0.0
C235 C 0.42758 0.93545 0.04995 0.0
C236 C 0.37351 0.90181 0.9776 0.0
C237 C 0.37693 0.87424 0.98252 0.0
C238 C 0.35032 0.91155 0.95509 0.0
C239 C 0.34398 0.94032 0.95272 0.0
C240 C 0.34343 0.95576 0.99397 0.0
C241 C 0.33566 0.9824 0.99204 0.0
C242 C 0.32829 0.99379 0.94909 0.0
C243 C 0.32916 0.97874 0.90783 0.0
C244 C 0.33691 0.9521 0.90955 0.0
C245 C 0.28465 0.81239 0.91577 0.0
C246 C 0.28342 0.81274 0.86627 0.0
C247 C 0.30154 0.82992 0.93971 0.0
C248 C 0.31707 0.84828 0.91449 0.0
C249 C 0.315 0.84934 0.86526 0.0
C250 C 0.29856 0.83158 0.84136 0.0
C251 C 0.33612 0.86607 0.93872 0.0
C252 C 0.33212 0.89353 0.93557 0.0
C253 C 0.35859 0.85624 0.96313 0.0
C254 C 0.36409 0.82738 0.96689 0.0
C255 C 0.36716 0.81175 0.9262 0.0
C256 C 0.37209 0.78451 0.9301 0.0
C257 C 0.37422 0.77271 0.97452 0.0
C258 C 0.37153 0.78816 0.01513 0.0
C259 C 0.36655 0.81541 0.01141 0.0
H260 H 0.37805 0.75162 0.97747 0.0
H261 H 0.32174 0.01424 0.9478 0.0
H262 H 0.29925 0.19315 0.19446 0.0
H263 H 0.33193 0.16478 0.15596 0.0
H264 H 0.31152 0.19871 0.02121 0.0
H265 H 0.27818 0.22728 0.05987 0.0
H266 H 0.32361 0.14277 0.01811 0.0
H267 H 0.36277 0.22319 0.07072 0.0
H268 H 0.37125 0.25962 0.12666 0.0
H269 H 0.40682 0.20458 0.22354 0.0
H270 H 0.39808 0.1677 0.1686 0.0
H271 H 0.44763 0.08287 0.9435 0.0
H272 H 0.41423 0.11796 0.95509 0.0
H273 H 0.41407 0.10216 0.10447 0.0
H274 H 0.44715 0.06737 0.09335 0.0
H275 H 0.41412 0.15602 0.08401 0.0
H276 H 0.36898 0.07541 0.03372 0.0
H277 H 0.36195 0.03952 0.97638 0.0
H278 H 0.33784 0.09654 0.87217 0.0
H279 H 0.34585 0.13296 0.92852 0.0
C280 C 0.30128 0.19426 0.15649 0.0
C281 C 0.28639 0.21266 0.13021 0.0
C282 C 0.32001 0.17805 0.13455 0.0
C283 C 0.32456 0.1801 0.08593 0.0
C284 C 0.30839 0.19699 0.05886 0.0
C285 C 0.28934 0.21321 0.08092 0.0
C286 C 0.34773 0.16606 0.06512 0.0
C287 C 0.34351 0.14604 0.03164 0.0
C288 C 0.37373 0.17041 0.08274 0.0
C289 C 0.37963 0.19263 0.11556 0.0
C290 C 0.37227 0.21881 0.10406 0.0
C291 C 0.37712 0.23955 0.1356 0.0
C292 C 0.38954 0.23441 0.17864 0.0
C293 C 0.3972 0.20853 0.19017 0.0
C294 C 0.39233 0.1877 0.15881 0.0
C295 C 0.4406 0.08705 0.97882 0.0
C296 C 0.44988 0.07217 0.01745 0.0
C297 C 0.42153 0.10707 0.98536 0.0
C298 C 0.41159 0.11257 0.03064 0.0
C299 C 0.4215 0.09831 0.06926 0.0
C300 C 0.4403 0.07826 0.06276 0.0
C301 C 0.38984 0.13207 0.03838 0.0
C302 C 0.39436 0.15318 0.06953 0.0
C303 C 0.36426 0.12885 0.01823 0.0
C304 C 0.35835 0.10692 0.98511 0.0
C305 C 0.36236 0.08033 0.99848 0.0
C306 C 0.35822 0.05988 0.96612 0.0
C307 C 0.34942 0.06572 0.9206 0.0
C308 C 0.34471 0.09205 0.9074 0.0
C309 C 0.34915 0.11262 0.93949 0.0
H310 H 0.34622 0.04985 0.89556 0.0
H311 H 0.39325 0.25049 0.20303 0.0
H312 H 0.95483 0.99279 0.60718 0.0
H313 H 0.91842 0.96383 0.6337 0.0
H314 H 0.92903 0.91486 0.51058 0.0
H315 H 0.96521 0.94337 0.484 0.0
H316 H 0.87006 0.94942 0.59139 0.0
H317 H 0.92135 0.85013 0.54413 0.0
H318 H 0.96666 0.8316 0.53708 0.0
H319 H 0.99543 0.88864 0.63707 0.0
H320 H 0.95024 0.90724 0.64526 0.0
H321 H 0.77839 0.83859 0.59586 0.0
H322 H 0.81214 0.87124 0.5715 0.0
H323 H 0.8573 0.8544 0.69707 0.0
H324 H 0.82401 0.82218 0.72162 0.0
H325 H 0.88833 0.85372 0.61811 0.0
H326 H 0.82301 0.91009 0.69114 0.0
H327 H 0.77818 0.92894 0.70291 0.0
H328 H 0.77836 0.95843 0.56089 0.0
H329 H 0.82308 0.93941 0.54806 0.0
C330 C 0.9494 0.97585 0.5858 0.0
C331 C 0.96307 0.97034 0.54361 0.0
C332 C 0.92851 0.95942 0.60085 0.0
C333 C 0.92115 0.9371 0.57425 0.0
C334 C 0.93453 0.93182 0.53188 0.0
C335 C 0.95524 0.94821 0.51675 0.0
C336 C 0.90001 0.91878 0.59105 0.0
C337 C 0.87403 0.92849 0.59724 0.0
C338 C 0.90524 0.89152 0.59902 0.0
C339 C 0.93245 0.88025 0.5949 0.0
C340 C 0.93733 0.85865 0.56474 0.0
C341 C 0.963 0.84814 0.56054 0.0
C342 C 0.98393 0.859 0.58649 0.0
C343 C 0.97922 0.88032 0.61685 0.0
C344 C 0.95359 0.89087 0.62124 0.0
C345 C 0.79546 0.84197 0.6183 0.0
C346 C 0.79845 0.82777 0.66068 0.0
C347 C 0.81467 0.86065 0.60443 0.0
C348 C 0.83721 0.86525 0.63256 0.0
C349 C 0.84012 0.85114 0.67479 0.0
C350 C 0.82094 0.83275 0.68882 0.0
C351 C 0.85827 0.88424 0.61793 0.0
C352 C 0.88429 0.87462 0.61207 0.0
C353 C 0.8531 0.91158 0.61083 0.0
C354 C 0.82626 0.92308 0.61848 0.0
C355 C 0.81339 0.92039 0.66228 0.0
C356 C 0.78802 0.93114 0.66918 0.0
C357 C 0.77539 0.94481 0.63263 0.0
C358 C 0.78815 0.9478 0.58914 0.0
C359 C 0.81351 0.93705 0.58205 0.0
H360 H 0.75576 0.95313 0.63804 0.0
H361 H 1.00379 0.85085 0.58314 0.0
H362 H 0.9876 0.03865 0.31209 0.0
H363 H 0.95439 0.06728 0.27334 0.0
H364 H 0.9185 0.08386 0.40831 0.0
H365 H 0.95143 0.05586 0.44694 0.0
H366 H 0.88145 0.07111 0.33763 0.0
H367 H 0.95857 0.12816 0.36277 0.0
H368 H 1.0057 0.14059 0.35243 0.0
H369 H 0.99554 0.14169 0.20225 0.0
H370 H 0.94835 0.12903 0.21175 0.0
H371 H 0.80713 0.18746 0.33874 0.0
H372 H 0.83991 0.15251 0.35015 0.0
H373 H 0.86588 0.16113 0.20598 0.0
H374 H 0.83322 0.19683 0.19442 0.0
H375 H 0.90781 0.15644 0.26352 0.0
H376 H 0.82831 0.10745 0.23943 0.0
H377 H 0.7812 0.09499 0.24976 0.0
H378 H 0.79541 0.07733 0.39557 0.0
H379 H 0.84252 0.09007 0.38637 0.0
C380 C 0.9725 0.04831 0.33331 0.0
C381 C 0.97218 0.04509 0.38255 0.0
C382 C 0.95364 0.06469 0.31121 0.0
C383 C 0.93403 0.0777 0.33804 0.0
C384 C 0.93341 0.07396 0.38695 0.0
C385 C 0.95235 0.05803 0.40899 0.0
C386 C 0.91425 0.09577 0.31617 0.0
C387 C 0.88715 0.08977 0.32136 0.0
C388 C 0.92177 0.11969 0.29361 0.0
C389 C 0.95006 0.12734 0.28793 0.0
C390 C 0.96645 0.13084 0.32754 0.0
C391 C 0.99315 0.13799 0.32183 0.0
C392 C 1.00363 0.14184 0.2767 0.0
C393 C 0.9874 0.13865 0.23718 0.0
C394 C 0.96068 0.13152 0.2427 0.0
C395 C 0.81968 0.18194 0.30926 0.0
C396 C 0.8174 0.1949 0.26554 0.0
C397 C 0.83838 0.16178 0.3158 0.0
C398 C 0.85506 0.15379 0.27868 0.0
C399 C 0.8531 0.16684 0.23505 0.0
C400 C 0.83439 0.1872 0.22849 0.0
C401 C 0.87485 0.13223 0.28648 0.0
C402 C 0.90196 0.13753 0.27866 0.0
C403 C 0.86733 0.10754 0.30645 0.0
C404 C 0.83897 0.09984 0.31221 0.0
C405 C 0.82136 0.10109 0.27379 0.0
C406 C 0.79466 0.09395 0.27943 0.0
C407 C 0.78533 0.08538 0.32329 0.0
C408 C 0.80268 0.08395 0.36161 0.0
C409 C 0.8294 0.09109 0.35618 0.0
H410 H 0.76469 0.07978 0.32758 0.0
H411 H 0.02431 0.14735 0.27235 0.0
H412 H 0.68328 0.1904 0.33124 0.0
H413 H 0.64979 0.15776 0.30688 0.0
H414 H 0.67125 0.17049 0.1614 0.0
H415 H 0.70456 0.20297 0.18524 0.0
H416 H 0.61719 0.17005 0.17472 0.0
H417 H 0.6934 0.11679 0.21933 0.0
H418 H 0.72804 0.10114 0.27414 0.0
H419 H 0.6678 0.07435 0.37066 0.0
H420 H 0.63278 0.09024 0.31665 0.0
H421 H 0.56699 0.06253 0.0494 0.0
H422 H 0.59678 0.09383 0.08779 0.0
H423 H 0.56898 0.06754 0.22394 0.0
H424 H 0.53925 0.03554 0.18553 0.0
H425 H 0.62231 0.07568 0.22447 0.0
H426 H 0.54597 0.12516 0.17763 0.0
H427 H 0.51098 0.14079 0.12346 0.0
H428 H 0.57035 0.17524 0.03318 0.0
H429 H 0.60575 0.15947 0.08643 0.0
C430 C 0.6808 0.18629 0.29407 0.0
C431 C 0.69666 0.19926 0.26021 0.0
C432 C 0.66173 0.16757 0.28023 0.0
C433 C 0.65815 0.16158 0.23232 0.0
C434 C 0.67366 0.17481 0.19853 0.0
C435 C 0.69278 0.19333 0.21229 0.0
C436 C 0.63839 0.14149 0.21685 0.0
C437 C 0.6184 0.14938 0.18535 0.0
C438 C 0.63945 0.1147 0.23194 0.0
C439 C 0.66049 0.10499 0.26422 0.0
C440 C 0.68755 0.10777 0.25242 0.0
C441 C 0.70725 0.09881 0.28331 0.0
C442 C 0.70013 0.08682 0.32594 0.0
C443 C 0.67328 0.08369 0.33767 0.0
C444 C 0.6535 0.09266 0.30693 0.0
C445 C 0.56723 0.06324 0.08754 0.0
C446 C 0.55052 0.04667 0.11438 0.0
C447 C 0.58424 0.08126 0.10946 0.0
C448 C 0.58472 0.08346 0.15874 0.0
C449 C 0.56881 0.0663 0.18584 0.0
C450 C 0.55183 0.04805 0.16385 0.0
C451 C 0.60151 0.10413 0.18136 0.0
C452 C 0.62087 0.09639 0.21426 0.0
C453 C 0.59979 0.13116 0.16781 0.0
C454 C 0.57854 0.14096 0.1359 0.0
C455 C 0.55159 0.13593 0.14607 0.0
C456 C 0.53167 0.14483 0.11554 0.0
C457 C 0.53844 0.15896 0.07486 0.0
C458 C 0.56514 0.16428 0.06469 0.0
C459 C 0.58513 0.15539 0.09507 0.0
H460 H 0.523 0.16582 0.05126 0.0
H461 H 0.71539 0.07991 0.34986 0.0
H462 H 0.55474 0.97592 0.88545 0.0
H463 H 0.58886 0.94474 0.85824 0.0
H464 H 0.59855 0.91561 1.00008 0.0
H465 H 0.5644 0.94664 0.02764 0.0
H466 H 0.6472 0.92411 0.9533 0.0
H467 H 0.56403 0.87964 0.92669 0.0
H468 H 0.51827 0.87532 0.8964 0.0
H469 H 0.5468 0.88609 0.75495 0.0
H470 H 0.59271 0.89086 0.78448 0.0
H471 H 0.7218 0.80827 0.88411 0.0
H472 H 0.68978 0.83906 0.92016 0.0
H473 H 0.6663 0.86608 0.78203 0.0
H474 H 0.6975 0.83521 0.74608 0.0
H475 H 0.62399 0.85706 0.83229 0.0
H476 H 0.70636 0.9036 0.85709 0.0
H477 H 0.7523 0.90937 0.88572 0.0
H478 H 0.72601 0.89619 0.02789 0.0
H479 H 0.67994 0.88999 1.00001 0.0
C480 C 0.56416 0.96294 0.91091 0.0
C481 C 0.55671 0.96368 0.95868 0.0
C482 C 0.58362 0.9451 0.89528 0.0
C483 C 0.5961 0.92773 0.92711 0.0
C484 C 0.58916 0.92883 0.97496 0.0
C485 C 0.56954 0.94649 0.99056 0.0
C486 C 0.61592 0.90802 0.91017 0.0
C487 C 0.64209 0.90918 0.92731 0.0
C488 C 0.60934 0.88887 0.87573 0.0
C489 C 0.58177 0.88585 0.85785 0.0
C490 C 0.56052 0.88129 0.88916 0.0
C491 C 0.53456 0.87873 0.87213 0.0
C492 C 0.52962 0.88049 0.82379 0.0
C493 C 0.55065 0.88476 0.79238 0.0
C494 C 0.57664 0.88737 0.80925 0.0
C495 C 0.70989 0.82089 0.86154 0.0
C496 C 0.71215 0.81918 0.81223 0.0
C497 C 0.69165 0.83855 0.88216 0.0
C498 C 0.67564 0.85502 0.85382 0.0
C499 C 0.67825 0.85352 0.80469 0.0
C500 C 0.6962 0.83583 0.78417 0.0
C501 C 0.65556 0.87337 0.87465 0.0
C502 C 0.62921 0.87189 0.85839 0.0
C503 C 0.66209 0.89234 0.90958 0.0
C504 C 0.68976 0.89602 0.9264 0.0
C505 C 0.71041 0.9017 0.89442 0.0
C506 C 0.73647 0.9051 0.91051 0.0
C507 C 0.74209 0.90306 0.95858 0.0
C508 C 0.72164 0.8977 0.99066 0.0
C509 C 0.69555 0.89426 0.97473 0.0
H510 H 0.76227 0.90571 0.97098 0.0
H511 H 0.50951 0.8785 0.81067 0.0
H512 H 0.57004 0.58066 0.9349 0.0
H513 H 0.59519 0.61297 0.88985 0.0
H514 H 0.60695 0.55554 0.779 0.0
H515 H 0.58072 0.5229 0.82389 0.0
H516 H 0.64395 0.61362 0.86646 0.0
H517 H 0.61613 0.58982 0.67338 0.0
H518 H 0.57841 0.57155 0.62826 0.0
H519 H 0.52415 0.59684 0.73639 0.0
H520 H 0.56147 0.61554 0.78181 0.0
H521 H 0.73262 0.68537 0.73193 0.0
H522 H 0.70476 0.64754 0.75345 0.0
H523 H 0.63446 0.69276 0.71879 0.0
H524 H 0.66268 0.73046 0.69492 0.0
H525 H 0.62642 0.6404 0.7011 0.0
H526 H 0.65792 0.69239 0.83062 0.0
H527 H 0.69153 0.71513 0.87922 0.0
H528 H 0.73045 0.64068 0.90589 0.0
H529 H 0.69727 0.61755 0.85682 0.0
C530 C 0.57793 0.57472 0.90095 0.0
C531 C 0.5735 0.54904 0.88319 0.0
C532 C 0.59236 0.59333 0.87514 0.0
C533 C 0.60303 0.58683 0.83093 0.0
C534 C 0.59866 0.56119 0.81278 0.0
C535 C 0.58382 0.54249 0.83857 0.0
C536 C 0.61941 0.6069 0.80543 0.0
C537 C 0.64011 0.6193 0.83021 0.0
C538 C 0.61425 0.61478 0.75836 0.0
C539 C 0.59164 0.60377 0.73122 0.0
C540 C 0.59613 0.59152 0.68745 0.0
C541 C 0.57483 0.58109 0.66183 0.0
C542 C 0.54891 0.58294 0.67953 0.0
C543 C 0.54424 0.59531 0.72281 0.0
C544 C 0.56547 0.60579 0.74854 0.0
C545 C 0.71124 0.68696 0.72774 0.0
C546 C 0.69969 0.71079 0.71221 0.0
C547 C 0.69533 0.66538 0.74015 0.0
C548 C 0.66748 0.66751 0.73893 0.0
C549 C 0.65591 0.69069 0.7202 0.0
C550 C 0.67197 0.71221 0.70664 0.0
C551 C 0.65083 0.64689 0.76229 0.0
C552 C 0.63026 0.63445 0.73719 0.0
C553 C 0.65542 0.63948 0.80976 0.0
C554 C 0.67527 0.65328 0.83968 0.0
C555 C 0.67375 0.6809 0.84661 0.0
C556 C 0.69271 0.69385 0.87425 0.0
C557 C 0.71315 0.67936 0.89553 0.0
C558 C 0.71463 0.65188 0.88932 0.0
C559 C 0.69574 0.63883 0.86161 0.0
H560 H 0.72781 0.68943 0.91693 0.0
H561 H 0.53245 0.57485 0.65966 0.0
H562 H 0.70576 0.32293 0.27517 0.0
H563 H 0.6791 0.36045 0.24806 0.0
H564 H 0.70811 0.34864 0.10643 0.0
H565 H 0.73552 0.31148 0.13366 0.0
H566 H 0.70657 0.39963 0.12488 0.0
H567 H 0.64515 0.32755 0.14272 0.0
H568 H 0.62233 0.29093 0.18402 0.0
H569 H 0.59256 0.34569 0.28737 0.0
H570 H 0.61553 0.3826 0.24701 0.0
H571 H 0.60235 0.46114 0.99557 0.0
H572 H 0.63423 0.43087 0.03199 0.0
H573 H 0.60988 0.45769 0.16973 0.0
H574 H 0.57792 0.48843 0.13332 0.0
H575 H 0.60961 0.4017 0.15833 0.0
H576 H 0.66907 0.47463 0.13318 0.0
H577 H 0.69076 0.51013 0.08719 0.0
H578 H 0.72289 0.45215 0.99191 0.0
H579 H 0.70107 0.41631 0.03694 0.0
C580 C 0.70651 0.3283 0.23823 0.0
C581 C 0.72265 0.31406 0.2065 0.0
C582 C 0.69115 0.34974 0.22274 0.0
C583 C 0.69119 0.35716 0.17501 0.0
C584 C 0.70768 0.3433 0.14341 0.0
C585 C 0.72329 0.32199 0.15899 0.0
C586 C 0.67384 0.37916 0.15798 0.0
C587 C 0.68533 0.39992 0.13185 0.0
C588 C 0.64617 0.37993 0.16783 0.0
C589 C 0.63231 0.35778 0.19214 0.0
C590 C 0.63392 0.33174 0.17447 0.0
C591 C 0.62093 0.31094 0.19767 0.0
C592 C 0.60607 0.31597 0.23837 0.0
C593 C 0.60412 0.34182 0.25589 0.0
C594 C 0.61711 0.36269 0.23285 0.0
C595 C 0.604 0.4609 0.03362 0.0
C596 C 0.5876 0.47718 0.0616 0.0
C597 C 0.6223 0.44363 0.05436 0.0
C598 C 0.62449 0.44208 0.10354 0.0
C599 C 0.60853 0.45864 0.13168 0.0
C600 C 0.5904 0.47628 0.11086 0.0
C601 C 0.64235 0.42197 0.1251 0.0
C602 C 0.63091 0.40152 0.15191 0.0
C603 C 0.66996 0.4213 0.11528 0.0
C604 C 0.68325 0.4428 0.08826 0.0
C605 C 0.68059 0.46946 0.10221 0.0
C606 C 0.69294 0.48965 0.07635 0.0
C607 C 0.70815 0.48341 0.0366 0.0
C608 C 0.71109 0.45696 0.0227 0.0
C609 C 0.69876 0.4367 0.04841 0.0
H610 H 0.7177 0.49906 0.01663 0.0
H611 H 0.59602 0.29984 0.25628 0.0
H612 H 0.77717 0.3011 0.42909 0.0
H613 H 0.80808 0.33096 0.46987 0.0
H614 H 0.86094 0.32869 0.35001 0.0
H615 H 0.83034 0.29909 0.30916 0.0
H616 H 0.8879 0.32296 0.43276 0.0
H617 H 0.82172 0.38057 0.36498 0.0
H618 H 0.77625 0.39725 0.35098 0.0
H619 H 0.76704 0.41332 0.49868 0.0
H620 H 0.81236 0.39635 0.51364 0.0
H621 H 0.93893 0.46555 0.46107 0.0
H622 H 0.90476 0.4341 0.43664 0.0
H623 H 0.9255 0.38253 0.55232 0.0
H624 H 0.95997 0.41399 0.57708 0.0
H625 H 0.86049 0.41405 0.4786 0.0
H626 H 0.92164 0.31993 0.51416 0.0
H627 H 0.96858 0.30529 0.51648 0.0
H628 H 0.98937 0.36545 0.41549 0.0
H629 H 0.94276 0.38052 0.41307 0.0
C630 C 0.79542 0.30691 0.41153 0.0
C631 C 0.80125 0.29779 0.36581 0.0
C632 C 0.81301 0.324 0.43482 0.0
C633 C 0.83677 0.33207 0.4129 0.0
C634 C 0.84277 0.32264 0.36764 0.0
C635 C 0.82515 0.30582 0.34423 0.0
C636 C 0.85533 0.35076 0.43632 0.0
C637 C 0.88179 0.34275 0.44335 0.0
C638 C 0.84753 0.37674 0.44939 0.0
C639 C 0.82027 0.38686 0.44051 0.0
C640 C 0.80989 0.38741 0.39454 0.0
C641 C 0.78418 0.39697 0.38641 0.0
C642 C 0.76873 0.40625 0.42394 0.0
C643 C 0.779 0.40605 0.46966 0.0
C644 C 0.8047 0.39647 0.47799 0.0
C645 C 0.93619 0.4476 0.48156 0.0
C646 C 0.95232 0.44222 0.52092 0.0
C647 C 0.91652 0.42969 0.46765 0.0
C648 C 0.91265 0.40591 0.49248 0.0
C649 C 0.92829 0.40069 0.53243 0.0
C650 C 0.94793 0.41871 0.54659 0.0
C651 C 0.89302 0.38621 0.47505 0.0
C652 C 0.86639 0.39402 0.46912 0.0
C653 C 0.90076 0.36024 0.46193 0.0
C654 C 0.92886 0.35149 0.46384 0.0
C655 C 0.93631 0.33004 0.49262 0.0
C656 C 0.96287 0.32172 0.49405 0.0
C657 C 0.98203 0.33454 0.46643 0.0
C658 C 0.97466 0.35569 0.43731 0.0
C659 C 0.9482 0.36419 0.43602 0.0
H660 H 1.00255 0.32801 0.46745 0.0
H661 H 0.74883 0.41366 0.41758 0.0
H662 H 0.8411 0.72023 0.76945 0.0
H663 H 0.87339 0.68712 0.74093 0.0
H664 H 0.82288 0.67068 0.62182 0.0
H665 H 0.79093 0.70355 0.64954 0.0
H666 H 0.84173 0.62506 0.6644 0.0
H667 H 0.87424 0.70884 0.6057 0.0
H668 H 0.88984 0.75507 0.61277 0.0
H669 H 0.95454 0.72939 0.70036 0.0
H670 H 0.93906 0.68301 0.69437 0.0
H671 H 0.96024 0.58748 0.50214 0.0
H672 H 0.92996 0.62067 0.53579 0.0
H673 H 0.92273 0.57366 0.66226 0.0
H674 H 0.9527 0.54044 0.62904 0.0
H675 H 0.93313 0.65123 0.61668 0.0
H676 H 0.85831 0.57799 0.70041 0.0
H677 H 0.84151 0.53251 0.6879 0.0
H678 H 0.85927 0.53856 0.54022 0.0
H679 H 0.87582 0.58418 0.55175 0.0
C680 C 0.83689 0.70942 0.73735 0.0
C681 C 0.81358 0.7146 0.71161 0.0
C682 C 0.85534 0.69063 0.72104 0.0
C683 C 0.85052 0.67656 0.67916 0.0
C684 C 0.82697 0.6813 0.65419 0.0
C685 C 0.8088 0.70021 0.67003 0.0
C686 C 0.86999 0.65712 0.66041 0.0
C687 C 0.86179 0.63072 0.65435 0.0
C688 C 0.89596 0.66466 0.64647 0.0
C689 C 0.90531 0.69251 0.65006 0.0
C690 C 0.89164 0.71308 0.62684 0.0
C691 C 0.90049 0.73931 0.63057 0.0
C692 C 0.92312 0.74518 0.65712 0.0
C693 C 0.93698 0.72482 0.67989 0.0
C694 C 0.92819 0.69856 0.67633 0.0
C695 C 0.95216 0.58419 0.53707 0.0
C696 C 0.95877 0.56122 0.56276 0.0
C697 C 0.935 0.60324 0.55634 0.0
C698 C 0.924 0.59954 0.6014 0.0
C699 C 0.93079 0.57679 0.62726 0.0
C700 C 0.94796 0.55782 0.60815 0.0
C701 C 0.90492 0.61911 0.62109 0.0
C702 C 0.91318 0.6455 0.62728 0.0
C703 C 0.87883 0.61167 0.63457 0.0
C704 C 0.86856 0.58439 0.62708 0.0
C705 C 0.85853 0.56964 0.66525 0.0
C706 C 0.84907 0.54383 0.65834 0.0
C707 C 0.84941 0.53262 0.61333 0.0
C708 C 0.85912 0.54723 0.5751 0.0
C709 C 0.86857 0.57304 0.58182 0.0
H710 H 0.8421 0.51263 0.60805 0.0
H711 H 0.92995 0.76549 0.65994 0.0
H712 H 0.48779 0.41625 0.96664 0.0
H713 H 0.45691 0.38496 0.00445 0.0
H714 H 0.42698 0.44817 0.09255 0.0
H715 H 0.45837 0.4789 0.05658 0.0
H716 H 0.43321 0.40783 0.14443 0.0
H717 H 0.39246 0.42191 0.99288 0.0
H718 H 0.39026 0.42237 0.90607 0.0
H719 H 0.40633 0.33863 0.90276 0.0
H720 H 0.40893 0.33775 0.98958 0.0
H721 H 0.29571 0.33628 0.14204 0.0
H722 H 0.3304 0.36298 0.10516 0.0
H723 H 0.38908 0.32711 0.19612 0.0
H724 H 0.35403 0.30085 0.23443 0.0
H725 H 0.37101 0.35069 0.05485 0.0
H726 H 0.44039 0.37046 0.21307 0.0
H727 H 0.43786 0.37516 0.29953 0.0
H728 H 0.35636 0.40017 0.2888 0.0
H729 H 0.35852 0.39594 0.20231 0.0
C730 C 0.47446 0.4234 0.99385 0.0
C731 C 0.47553 0.44998 0.00872 0.0
C732 C 0.45679 0.40554 0.01544 0.0
C733 C 0.43946 0.41415 0.0514 0.0
C734 C 0.44026 0.44087 0.06536 0.0
C735 C 0.45816 0.45849 0.04454 0.0
C736 C 0.42055 0.39564 0.07518 0.0
C737 C 0.4197 0.39527 0.12472 0.0
C738 C 0.40268 0.37933 0.04979 0.0
C739 C 0.4012 0.37983 0.99764 0.0
C740 C 0.39573 0.40365 0.9736 0.0
C741 C 0.39437 0.40397 0.92441 0.0
C742 C 0.39824 0.38056 0.89891 0.0
C743 C 0.4034 0.35676 0.92255 0.0
C744 C 0.4048 0.35633 0.97174 0.0
C745 C 0.31597 0.33423 0.15454 0.0
C746 C 0.32212 0.31659 0.19137 0.0
C747 C 0.33584 0.3494 0.13319 0.0
C748 C 0.36242 0.34717 0.14777 0.0
C749 C 0.36868 0.32953 0.18466 0.0
C750 C 0.34865 0.31456 0.2066 0.0
C751 C 0.3833 0.36338 0.12398 0.0
C752 C 0.38469 0.36311 0.0745 0.0
C753 C 0.40102 0.37981 0.14936 0.0
C754 C 0.39954 0.38254 0.20131 0.0
C755 C 0.42196 0.377 0.2292 0.0
C756 C 0.42058 0.37958 0.27819 0.0
C757 C 0.39693 0.38785 0.29965 0.0
C758 C 0.37463 0.39365 0.27215 0.0
C759 C 0.37591 0.39113 0.22316 0.0
H760 H 0.39591 0.38983 0.33758 0.0
H761 H 0.39717 0.38085 0.86083 0.0
H762 H 0.35077 0.72315 0.75953 0.0
H763 H 0.38509 0.69487 0.79501 0.0
H764 H 0.32583 0.65955 0.88585 0.0
H765 H 0.29195 0.68847 0.85214 0.0
H766 H 0.36697 0.66821 0.93519 0.0
H767 H 0.35243 0.62805 0.78345 0.0
H768 H 0.34999 0.62669 0.69669 0.0
H769 H 0.43225 0.64921 0.68718 0.0
H770 H 0.43509 0.65102 0.77392 0.0
H771 H 0.4529 0.53883 0.91946 0.0
H772 H 0.42047 0.57029 0.88861 0.0
H773 H 0.45272 0.6316 0.97796 0.0
H774 H 0.48478 0.59969 0.01035 0.0
H775 H 0.427 0.612 0.83873 0.0
H776 H 0.40485 0.6784 1.00031 0.0
H777 H 0.40287 0.67512 0.08702 0.0
H778 H 0.38627 0.59169 0.07689 0.0
H779 H 0.38781 0.59455 0.99017 0.0
C780 C 0.34512 0.70922 0.78687 0.0
C781 C 0.31869 0.70798 0.80302 0.0
C782 C 0.36472 0.69303 0.80711 0.0
C783 C 0.35807 0.67486 0.84297 0.0
C784 C 0.33158 0.67349 0.85857 0.0
C785 C 0.31217 0.68996 0.83906 0.0
C786 C 0.37847 0.65721 0.86462 0.0
C787 C 0.38014 0.65597 0.91403 0.0
C788 C 0.39556 0.641 0.83724 0.0
C789 C 0.39388 0.63996 0.78512 0.0
C790 C 0.36994 0.63291 0.76283 0.0
C791 C 0.36849 0.63202 0.71368 0.0
C792 C 0.39093 0.63794 0.68644 0.0
C793 C 0.41488 0.64469 0.70832 0.0
C794 C 0.41642 0.64563 0.75747 0.0
C795 C 0.4529 0.55893 0.93301 0.0
C796 C 0.47137 0.56679 0.96738 0.0
C797 C 0.43442 0.57696 0.91512 0.0
C798 C 0.43409 0.60338 0.93078 0.0
C799 C 0.45229 0.61124 0.96572 0.0
C800 C 0.4706 0.59301 0.98425 0.0
C801 C 0.41511 0.62258 0.90929 0.0
C802 C 0.41391 0.62432 0.8599 0.0
C803 C 0.39785 0.63859 0.93669 0.0
C804 C 0.3968 0.63664 0.9888 0.0
C805 C 0.40074 0.65937 0.01662 0.0
C806 C 0.39969 0.65758 0.06575 0.0
C807 C 0.39456 0.63319 0.08745 0.0
C808 C 0.39036 0.61054 0.06005 0.0
C809 C 0.39136 0.61223 0.01091 0.0
H810 H 0.39376 0.63184 0.12549 0.0
H811 H 0.38977 0.63724 0.64839 0.0
H812 H 0.22598 0.68572 0.6977 0.0
H813 H 0.19895 0.64813 0.67272 0.0
H814 H 0.14903 0.65738 0.79539 0.0
H815 H 0.17631 0.69504 0.82121 0.0
H816 H 0.16091 0.60348 0.77326 0.0
H817 H 0.12978 0.68307 0.69333 0.0
H818 H 0.13706 0.72297 0.64478 0.0
H819 H 0.1655 0.67448 0.53087 0.0
H820 H 0.15901 0.6343 0.57927 0.0
H821 H 0.05078 0.52801 0.68625 0.0
H822 H 0.08195 0.55933 0.72221 0.0
H823 H 0.12231 0.56801 0.58852 0.0
H824 H 0.09005 0.53821 0.55212 0.0
H825 H 0.11515 0.61322 0.61953 0.0
H826 H 0.14938 0.53473 0.69208 0.0
H827 H 0.14809 0.49302 0.73762 0.0
H828 H 0.11999 0.53544 0.85912 0.0
H829 H 0.12079 0.57737 0.8141 0.0
C830 C 0.20934 0.67977 0.71962 0.0
C831 C 0.20314 0.69363 0.76124 0.0
C832 C 0.19393 0.65821 0.70526 0.0
C833 C 0.1718 0.65016 0.7319 0.0
C834 C 0.16602 0.66331 0.77431 0.0
C835 C 0.18153 0.68491 0.78884 0.0
C836 C 0.1539 0.62907 0.71382 0.0
C837 C 0.1506 0.60562 0.73992 0.0
C838 C 0.14117 0.63159 0.66965 0.0
C839 C 0.1441 0.65571 0.64006 0.0
C840 C 0.13769 0.68093 0.658 0.0
C841 C 0.14169 0.70361 0.63047 0.0
C842 C 0.15177 0.70127 0.58471 0.0
C843 C 0.15773 0.67625 0.56632 0.0
C844 C 0.1539 0.65353 0.59379 0.0
C845 C 0.06662 0.53632 0.66489 0.0
C846 C 0.06805 0.53081 0.61647 0.0
C847 C 0.08454 0.55415 0.68548 0.0
C848 C 0.10475 0.56605 0.65829 0.0
C849 C 0.10684 0.55938 0.61032 0.0
C850 C 0.0885 0.54224 0.58953 0.0
C851 C 0.12234 0.58702 0.67838 0.0
C852 C 0.12544 0.61073 0.65282 0.0
C853 C 0.13543 0.58432 0.72238 0.0
C854 C 0.13488 0.55915 0.74956 0.0
C855 C 0.14272 0.53513 0.7284 0.0
C856 C 0.14212 0.51146 0.75414 0.0
C857 C 0.13389 0.51157 0.8012 0.0
C858 C 0.12632 0.53538 0.82265 0.0
C859 C 0.12687 0.55911 0.79705 0.0
H860 H 0.13344 0.49322 0.82107 0.0
H861 H 0.15503 0.7188 0.56341 0.0
H862 H 0.18012 0.33314 0.17871 0.0
H863 H 0.14852 0.36509 0.2129 0.0
H864 H 0.1888 0.35934 0.34652 0.0
H865 H 0.22028 0.32783 0.31302 0.0
H866 H 0.13408 0.35218 0.35316 0.0
H867 H 0.197 0.41292 0.28156 0.0
H868 H 0.22245 0.4318 0.21514 0.0
H869 H 0.14961 0.45081 0.14372 0.0
H870 H 0.12371 0.43169 0.20949 0.0
H871 H 0.082 0.45261 0.49466 0.0
H872 H 0.11208 0.42513 0.44793 0.0
H873 H 0.07187 0.44965 0.32085 0.0
H874 H 0.04248 0.47835 0.36756 0.0
H875 H 0.12263 0.44597 0.30351 0.0
H876 H 0.05933 0.38915 0.37821 0.0
H877 H 0.03375 0.37055 0.44462 0.0
H878 H 0.10583 0.34221 0.50805 0.0
H879 H 0.13204 0.36146 0.4429 0.0
C880 C 0.18236 0.33889 0.21523 0.0
C881 C 0.20271 0.32787 0.2431 0.0
C882 C 0.16433 0.35716 0.23467 0.0
C883 C 0.16633 0.36452 0.28227 0.0
C884 C 0.18685 0.35385 0.30978 0.0
C885 C 0.20491 0.33588 0.29042 0.0
C886 C 0.14661 0.38252 0.30456 0.0
C887 C 0.13167 0.37276 0.34258 0.0
C888 C 0.14288 0.40905 0.28961 0.0
C889 C 0.15843 0.42059 0.25016 0.0
C890 C 0.18641 0.4209 0.25149 0.0
C891 C 0.20092 0.4317 0.21401 0.0
C892 C 0.18766 0.44242 0.17516 0.0
C893 C 0.15986 0.44245 0.17379 0.0
C894 C 0.14525 0.43165 0.21117 0.0
C895 C 0.07966 0.45226 0.45673 0.0
C896 C 0.05972 0.4674 0.43478 0.0
C897 C 0.09679 0.43644 0.43002 0.0
C898 C 0.0938 0.43468 0.3809 0.0
C899 C 0.07446 0.4505 0.3587 0.0
C900 C 0.05766 0.46685 0.3854 0.0
C901 C 0.1105 0.41586 0.35319 0.0
C902 C 0.12476 0.42535 0.31395 0.0
C903 C 0.11348 0.38891 0.3668 0.0
C904 C 0.09769 0.37694 0.40573 0.0
C905 C 0.06977 0.37911 0.40644 0.0
C906 C 0.05514 0.36844 0.44387 0.0
C907 C 0.06811 0.35513 0.48042 0.0
C908 C 0.09579 0.35252 0.47969 0.0
C909 C 0.11056 0.36335 0.44256 0.0
H910 H 0.0567 0.34685 0.50931 0.0
H911 H 0.19893 0.45078 0.14618 0.0
loop_
_geom_bond_atom_site_label_1
_geom_bond_atom_site_label_2
_geom_bond_distance
_geom_bond_site_symmetry_2
_ccdc_geom_bond_type
C0 O2 1.247 . S
C0 O4 1.258 . S
C1 O8 1.247 . S
C1 O9 1.258 . S
O2 C0 1.247 . S
O2 Zn3 2.030 1_655 S
Zn3 O2 2.030 1_455 S
Zn3 O7 2.037 1_465 S
Zn3 O9 2.033 1_565 S
Zn3 O10 2.026 . S
O4 C0 1.258 . S
O4 Zn5 2.033 1_665 S
Zn5 O4 2.033 1_445 S
Zn5 O6 2.026 1_455 S
Zn5 O8 2.030 . S
Zn5 O11 2.037 1_545 S
O6 Zn5 2.026 1_655 S
O6 C12 1.247 . S
O7 Zn3 2.037 1_645 S
O7 C12 1.258 . S
O8 C1 1.247 . S
O8 Zn5 2.030 . S
O9 C1 1.258 . S
O9 Zn3 2.033 1_545 S
O10 Zn3 2.026 . S
O10 C13 1.247 . S
O11 Zn5 2.037 1_565 S
O11 C13 1.258 . S
C12 O6 1.247 . S
C12 O7 1.258 . S
C13 O10 1.247 . S
C13 O11 1.258 . S
C14 O16 1.247 . S
C14 O18 1.258 . S
C15 O22 1.247 . S
C15 O23 1.258 . S
O16 C14 1.247 . S
O16 Zn17 2.028 . S
Zn17 O16 2.028 . S
Zn17 O21 2.035 . S
Zn17 O23 2.035 . S
Zn17 O24 2.028 . S
O18 C14 1.258 . S
O18 Zn19 2.035 . S
Zn19 O18 2.035 . S
Zn19 O20 2.028 . S
Zn19 O22 2.028 . S
Zn19 O25 2.035 . S
O20 Zn19 2.028 . S
O20 C26 1.247 . S
O21 Zn17 2.035 . S
O21 C26 1.258 . S
O22 C15 1.247 . S
O22 Zn19 2.028 . S
O23 C15 1.258 . S
O23 Zn17 2.035 . S
O24 Zn17 2.028 . S
O24 C27 1.247 . S
O25 Zn19 2.035 . S
O25 C27 1.258 . S
C26 O20 1.247 . S
C26 O21 1.258 . S
C27 O24 1.247 . S
C27 O25 1.258 . S
C28 O30 1.247 . S
C28 O32 1.258 1_556 S
C29 O36 1.247 . S
C29 O37 1.258 1_554 S
O30 C28 1.247 . S
O30 Zn31 2.028 1_565 S
Zn31 O30 2.028 1_545 S
Zn31 O35 2.035 . S
Zn31 O37 2.035 . S
Zn31 O38 2.028 1_545 S
O32 C28 1.258 1_554 S
O32 Zn33 2.035 . S
Zn33 O32 2.035 . S
Zn33 O34 2.028 1_565 S
Zn33 O36 2.028 1_565 S
Zn33 O39 2.035 . S
O34 Zn33 2.028 1_545 S
O34 C40 1.247 . S
O35 Zn31 2.035 . S
O35 C40 1.258 1_556 S
O36 C29 1.247 . S
O36 Zn33 2.028 1_545 S
O37 C29 1.258 1_556 S
O37 Zn31 2.035 . S
O38 Zn31 2.028 1_565 S
O38 C41 1.247 . S
O39 Zn33 2.035 . S
O39 C41 1.258 1_554 S
C40 O34 1.247 . S
C40 O35 1.258 1_554 S
C41 O38 1.247 . S
C41 O39 1.258 1_556 S
C42 O44 1.247 . S
C42 O46 1.258 . S
C43 O50 1.247 . S
C43 O51 1.258 . S
O44 C42 1.247 . S
O44 Zn45 2.028 . S
Zn45 O44 2.028 . S
Zn45 O49 2.035 . S
Zn45 O51 2.035 . S
Zn45 O52 2.028 . S
O46 C42 1.258 . S
O46 Zn47 2.035 . S
Zn47 O46 2.035 . S
Zn47 O48 2.028 . S
Zn47 O50 2.028 . S
Zn47 O53 2.035 . S
O48 Zn47 2.028 . S
O48 C54 1.247 . S
O49 Zn45 2.035 . S
O49 C54 1.258 . S
O50 C43 1.247 . S
O50 Zn47 2.028 . S
O51 C43 1.258 . S
O51 Zn45 2.035 . S
O52 Zn45 2.028 . S
O52 C55 1.247 . S
O53 Zn47 2.035 . S
O53 C55 1.258 . S
C54 O48 1.247 . S
C54 O49 1.258 . S
C55 O52 1.247 . S
C55 O53 1.258 . S
C56 O58 1.247 . S
C56 O60 1.258 . S
C57 O64 1.247 . S
C57 O65 1.258 . S
O58 C56 1.247 . S
O58 Zn59 2.028 . S
Zn59 O58 2.028 . S
Zn59 O63 2.035 . S
Zn59 O65 2.035 . S
Zn59 O66 2.028 . S
O60 C56 1.258 . S
O60 Zn61 2.035 . S
Zn61 O60 2.035 . S
Zn61 O62 2.028 . S
Zn61 O64 2.028 . S
Zn61 O67 2.035 . S
O62 Zn61 2.028 . S
O62 C68 1.247 . S
O63 Zn59 2.035 . S
O63 C68 1.258 . S
O64 C57 1.247 . S
O64 Zn61 2.028 . S
O65 C57 1.258 . S
O65 Zn59 2.035 . S
O66 Zn59 2.028 . S
O66 C69 1.247 . S
O67 Zn61 2.035 . S
O67 C69 1.258 . S
C68 O62 1.247 . S
C68 O63 1.258 . S
C69 O66 1.247 . S
C69 O67 1.258 . S
C70 O72 1.247 . S
C70 O74 1.258 . S
C71 O78 1.247 . S
C71 O79 1.258 . S
O72 C70 1.247 . S
O72 Zn73 2.028 . S
Zn73 O72 2.028 . S
Zn73 O77 2.035 . S
Zn73 O79 2.035 . S
Zn73 O80 2.028 . S
O74 C70 1.258 . S
O74 Zn75 2.035 . S
Zn75 O74 2.035 . S
Zn75 O76 2.028 . S
Zn75 O78 2.028 . S
Zn75 O81 2.035 . S
O76 Zn75 2.028 . S
O76 C82 1.247 . S
O77 Zn73 2.035 . S
O77 C82 1.258 . S
O78 C71 1.247 . S
O78 Zn75 2.028 . S
O79 C71 1.258 . S
O79 Zn73 2.035 . S
O80 Zn73 2.028 . S
O80 C83 1.247 . S
O81 Zn75 2.035 . S
O81 C83 1.258 . S
C82 O76 1.247 . S
C82 O77 1.258 . S
C83 O80 1.247 . S
C83 O81 1.258 . S
C84 O86 1.247 1_556 S
C84 O88 1.258 . S
C85 O92 1.247 1_554 S
C85 O93 1.258 . S
O86 C84 1.247 1_554 S
O86 Zn87 2.028 . S
Zn87 O86 2.028 . S
Zn87 O91 2.035 . S
Zn87 O93 2.035 . S
Zn87 O94 2.028 . S
O88 C84 1.258 . S
O88 Zn89 2.035 . S
Zn89 O88 2.035 . S
Zn89 O90 2.028 . S
Zn89 O92 2.028 . S
Zn89 O95 2.035 . S
O90 Zn89 2.028 . S
O90 C96 1.247 1_556 S
O91 Zn87 2.035 . S
O91 C96 1.258 . S
O92 C85 1.247 1_556 S
O92 Zn89 2.028 . S
O93 C85 1.258 . S
O93 Zn87 2.035 . S
O94 Zn87 2.028 . S
O94 C97 1.247 1_554 S
O95 Zn89 2.035 . S
O95 C97 1.258 . S
C96 O90 1.247 1_554 S
C96 O91 1.258 . S
C97 O94 1.247 1_556 S
C97 O95 1.258 . S
C98 O100 1.247 . S
C98 O102 1.258 . S
C99 O106 1.247 . S
C99 O107 1.258 . S
O100 C98 1.247 . S
O100 Zn101 2.030 1_655 S
Zn101 O100 2.030 1_455 S
Zn101 O105 2.037 1_455 S
Zn101 O107 2.033 . S
Zn101 O108 2.026 . S
O102 C98 1.258 . S
O102 Zn103 2.033 1_655 S
Zn103 O102 2.033 1_455 S
Zn103 O104 2.026 1_455 S
Zn103 O106 2.030 . S
Zn103 O109 2.037 . S
O104 Zn103 2.026 1_655 S
O104 C110 1.247 . S
O105 Zn101 2.037 1_655 S
O105 C110 1.258 . S
O106 C99 1.247 . S
O106 Zn103 2.030 . S
O107 C99 1.258 . S
O107 Zn101 2.033 . S
O108 Zn101 2.026 . S
O108 C111 1.247 . S
O109 Zn103 2.037 . S
O109 C111 1.258 . S
C110 O104 1.247 . S
C110 O105 1.258 . S
C111 O108 1.247 . S
C111 O109 1.258 . S
H112 C130 0.951 . S
H113 C132 0.951 . S
H114 C134 0.950 . S
H115 C135 0.950 . S
H116 C137 0.950 . S
H117 C140 0.950 . S
H118 C141 0.950 . S
H119 C143 0.950 . S
H120 C144 0.950 . S
H121 C145 0.951 . S
H122 C147 0.951 . S
H123 C149 0.950 . S
H124 C150 0.950 . S
H125 C152 0.950 . S
H126 C155 0.950 . S
H127 C156 0.950 . S
H128 C158 0.950 . S
H129 C159 0.950 . S
C130 H112 0.951 . S
C130 C131 1.366 . S
C130 C132 1.388 . S
C131 C130 1.366 . S
C131 C135 1.385 . S
C132 H113 0.951 . S
C132 C130 1.388 . S
C132 C133 1.366 . S
C133 C132 1.366 . S
C133 C134 1.414 . S
C133 C136 1.499 . S
C134 H114 0.950 . S
C134 C133 1.414 . S
C134 C135 1.374 . S
C135 H115 0.950 . S
C135 C131 1.385 . S
C135 C134 1.374 . S
C136 C133 1.499 . S
C136 C137 1.373 . S
C136 C138 1.389 . S
C137 H116 0.950 . S
C137 C136 1.373 . S
C137 C153 1.377 . S
C138 C136 1.389 . S
C138 C139 1.524 . S
C138 C152 1.377 . S
C139 C138 1.524 . S
C139 C140 1.397 . S
C139 C144 1.363 . S
C140 H117 0.950 . S
C140 C139 1.397 . S
C140 C141 1.334 . S
C141 H118 0.950 . S
C141 C140 1.334 . S
C141 C142 1.287 . S
C142 C141 1.287 . S
C142 C143 1.524 . S
C142 H161 0.913 . S
C143 H119 0.950 . S
C143 C142 1.524 . S
C143 C144 1.415 . S
C144 H120 0.950 . S
C144 C139 1.363 . S
C144 C143 1.415 . S
C145 H121 0.951 . S
C145 C146 1.366 . S
C145 C147 1.388 . S
C146 C145 1.366 . S
C146 C150 1.385 . S
C147 H122 0.951 . S
C147 C145 1.388 . S
C147 C148 1.366 . S
C148 C147 1.366 . S
C148 C149 1.414 . S
C148 C151 1.499 . S
C149 H123 0.950 . S
C149 C148 1.414 . S
C149 C150 1.374 . S
C150 H124 0.950 . S
C150 C146 1.385 . S
C150 C149 1.374 . S
C151 C148 1.499 . S
C151 C152 1.373 . S
C151 C153 1.389 . S
C152 H125 0.950 . S
C152 C138 1.377 . S
C152 C151 1.373 . S
C153 C137 1.377 . S
C153 C151 1.389 . S
C153 C154 1.524 . S
C154 C153 1.524 . S
C154 C155 1.397 . S
C154 C159 1.363 . S
C155 H126 0.950 . S
C155 C154 1.397 . S
C155 C156 1.334 . S
C156 H127 0.950 . S
C156 C155 1.334 . S
C156 C157 1.287 . S
C157 C156 1.287 . S
C157 C158 1.524 . S
C157 H160 0.999 . S
C158 H128 0.950 . S
C158 C157 1.524 . S
C158 C159 1.415 . S
C159 H129 0.950 . S
C159 C154 1.363 . S
C159 C158 1.415 . S
H160 C157 0.999 . S
H161 C142 0.913 . S
H162 C180 0.951 . S
H163 C182 0.951 . S
H164 C184 0.950 . S
H165 C185 0.950 . S
H166 C187 0.950 . S
H167 C190 0.950 . S
H168 C191 0.950 . S
H169 C193 0.950 . S
H170 C194 0.950 . S
H171 C195 0.951 . S
H172 C197 0.951 . S
H173 C199 0.950 . S
H174 C200 0.950 . S
H175 C202 0.950 . S
H176 C205 0.950 . S
H177 C206 0.950 . S
H178 C208 0.950 . S
H179 C209 0.950 . S
C180 H162 0.951 . S
C180 C181 1.366 . S
C180 C182 1.388 . S
C181 C180 1.366 . S
C181 C185 1.385 . S
C182 H163 0.951 . S
C182 C180 1.388 . S
C182 C183 1.366 . S
C183 C182 1.366 . S
C183 C184 1.414 . S
C183 C186 1.499 . S
C184 H164 0.950 . S
C184 C183 1.414 . S
C184 C185 1.374 . S
C185 H165 0.950 . S
C185 C181 1.385 . S
C185 C184 1.374 . S
C186 C183 1.499 . S
C186 C187 1.373 . S
C186 C188 1.389 . S
C187 H166 0.950 . S
C187 C186 1.373 . S
C187 C203 1.377 . S
C188 C186 1.389 . S
C188 C189 1.524 . S
C188 C202 1.377 . S
C189 C188 1.524 . S
C189 C190 1.397 . S
C189 C194 1.363 . S
C190 H167 0.950 . S
C190 C189 1.397 . S
C190 C191 1.334 . S
C191 H168 0.950 . S
C191 C190 1.334 . S
C191 C192 1.287 . S
C192 C191 1.287 . S
C192 C193 1.524 . S
C192 H211 0.913 . S
C193 H169 0.950 . S
C193 C192 1.524 . S
C193 C194 1.415 . S
C194 H170 0.950 . S
C194 C189 1.363 . S
C194 C193 1.415 . S
C195 H171 0.951 . S
C195 C196 1.366 . S
C195 C197 1.388 . S
C196 C195 1.366 . S
C196 C200 1.385 . S
C197 H172 0.951 . S
C197 C195 1.388 . S
C197 C198 1.366 . S
C198 C197 1.366 . S
C198 C199 1.414 . S
C198 C201 1.499 . S
C199 H173 0.950 . S
C199 C198 1.414 . S
C199 C200 1.374 . S
C200 H174 0.950 . S
C200 C196 1.385 . S
C200 C199 1.374 . S
C201 C198 1.499 . S
C201 C202 1.373 . S
C201 C203 1.389 . S
C202 H175 0.950 . S
C202 C188 1.377 . S
C202 C201 1.373 . S
C203 C187 1.377 . S
C203 C201 1.389 . S
C203 C204 1.524 . S
C204 C203 1.524 . S
C204 C205 1.397 . S
C204 C209 1.363 . S
C205 H176 0.950 . S
C205 C204 1.397 . S
C205 C206 1.334 . S
C206 H177 0.950 . S
C206 C205 1.334 . S
C206 C207 1.287 . S
C207 C206 1.287 . S
C207 C208 1.524 . S
C207 H210 0.999 . S
C208 H178 0.950 . S
C208 C207 1.524 . S
C208 C209 1.415 . S
C209 H179 0.950 . S
C209 C204 1.363 . S
C209 C208 1.415 . S
H210 C207 0.999 . S
H211 C192 0.913 . S
H212 C230 0.951 . S
H213 C232 0.951 . S
H214 C234 0.950 . S
H215 C235 0.964 . S
H216 C237 0.950 . S
H217 C240 0.950 . S
H218 C241 0.950 . S
H219 C243 0.950 . S
H220 C244 0.950 . S
H221 C245 0.951 . S
H222 C247 0.951 . S
H223 C249 0.950 . S
H224 C250 0.950 . S
H225 C252 0.950 . S
H226 C255 0.950 . S
H227 C256 0.950 . S
H228 C258 0.950 . S
H229 C259 0.950 . S
C230 H212 0.951 . S
C230 C231 1.366 . S
C230 C232 1.388 . S
C231 C230 1.366 . S
C231 C235 1.385 . S
C232 H213 0.951 . S
C232 C230 1.388 . S
C232 C233 1.366 . S
C233 C232 1.366 . S
C233 C234 1.414 . S
C233 C236 1.499 . S
C234 H214 0.950 . S
C234 C233 1.414 . S
C234 C235 1.374 . S
C235 H215 0.964 . S
C235 C231 1.385 . S
C235 C234 1.374 . S
C236 C233 1.499 . S
C236 C237 1.373 . S
C236 C238 1.389 . S
C237 H216 0.950 . S
C237 C236 1.373 . S
C237 C253 1.377 . S
C238 C236 1.389 . S
C238 C239 1.524 . S
C238 C252 1.377 . S
C239 C238 1.524 . S
C239 C240 1.397 . S
C239 C244 1.363 . S
C240 H217 0.950 . S
C240 C239 1.397 . S
C240 C241 1.334 . S
C241 H218 0.950 . S
C241 C240 1.334 . S
C241 C242 1.287 . S
C242 C241 1.287 . S
C242 C243 1.524 . S
C242 H261 0.913 . S
C243 H219 0.950 . S
C243 C242 1.524 . S
C243 C244 1.415 . S
C244 H220 0.950 . S
C244 C239 1.363 . S
C244 C243 1.415 . S
C245 H221 0.951 . S
C245 C246 1.366 . S
C245 C247 1.388 . S
C246 C245 1.366 . S
C246 C250 1.385 . S
C247 H222 0.951 . S
C247 C245 1.388 . S
C247 C248 1.366 . S
C248 C247 1.366 . S
C248 C249 1.414 . S
C248 C251 1.499 . S
C249 H223 0.950 . S
C249 C248 1.414 . S
C249 C250 1.374 . S
C250 H224 0.950 . S
C250 C246 1.385 . S
C250 C249 1.374 . S
C251 C248 1.499 . S
C251 C252 1.373 . S
C251 C253 1.389 . S
C252 H225 0.950 . S
C252 C238 1.377 . S
C252 C251 1.373 . S
C253 C237 1.377 . S
C253 C251 1.389 . S
C253 C254 1.524 . S
C254 C253 1.524 . S
C254 C255 1.397 . S
C254 C259 1.363 . S
C255 H226 0.950 . S
C255 C254 1.397 . S
C255 C256 1.334 . S
C256 H227 0.950 . S
C256 C255 1.334 . S
C256 C257 1.287 . S
C257 C256 1.287 . S
C257 C258 1.524 . S
C257 H260 0.999 . S
C258 H228 0.950 . S
C258 C257 1.524 . S
C258 C259 1.415 . S
C259 H229 0.950 . S
C259 C254 1.363 . S
C259 C258 1.415 . S
H260 C257 0.999 . S
H261 C242 0.913 . S
H262 C280 0.951 . S
H263 C282 0.951 . S
H264 C284 0.950 . S
H265 C285 0.950 . S
H266 C287 0.950 . S
H267 C290 0.950 . S
H268 C291 0.950 . S
H269 C293 0.950 . S
H270 C294 0.950 . S
H271 C295 0.951 1_556 S
H272 C297 0.951 . S
H273 C299 0.950 . S
H274 C300 0.950 . S
H275 C302 0.950 . S
H276 C305 0.950 . S
H277 C306 0.950 . S
H278 C308 0.950 . S
H279 C309 0.952 . S
C280 H262 0.951 . S
C280 C281 1.366 . S
C280 C282 1.388 . S
C281 C280 1.366 . S
C281 C285 1.385 . S
C282 H263 0.951 . S
C282 C280 1.388 . S
C282 C283 1.366 . S
C283 C282 1.366 . S
C283 C284 1.414 . S
C283 C286 1.499 . S
C284 H264 0.950 . S
C284 C283 1.414 . S
C284 C285 1.374 . S
C285 H265 0.950 . S
C285 C281 1.385 . S
C285 C284 1.374 . S
C286 C283 1.499 . S
C286 C287 1.373 . S
C286 C288 1.389 . S
C287 H266 0.950 . S
C287 C286 1.373 . S
C287 C303 1.377 . S
C288 C286 1.389 . S
C288 C289 1.524 . S
C288 C302 1.377 . S
C289 C288 1.524 . S
C289 C290 1.397 . S
C289 C294 1.363 . S
C290 H267 0.950 . S
C290 C289 1.397 . S
C290 C291 1.334 . S
C291 H268 0.950 . S
C291 C290 1.334 . S
C291 C292 1.287 . S
C292 C291 1.287 . S
C292 C293 1.524 . S
C292 H311 0.913 . S
C293 H269 0.950 . S
C293 C292 1.524 . S
C293 C294 1.415 . S
C294 H270 0.950 . S
C294 C289 1.363 . S
C294 C293 1.415 . S
C295 H271 0.951 1_554 S
C295 C296 1.366 . S
C295 C297 1.388 . S
C296 C295 1.366 . S
C296 C300 1.385 . S
C297 H272 0.951 . S
C297 C295 1.388 . S
C297 C298 1.366 . S
C298 C297 1.366 . S
C298 C299 1.414 . S
C298 C301 1.499 . S
C299 H273 0.950 . S
C299 C298 1.414 . S
C299 C300 1.374 . S
C300 H274 0.950 . S
C300 C296 1.385 . S
C300 C299 1.374 . S
C301 C298 1.499 . S
C301 C302 1.373 . S
C301 C303 1.389 . S
C302 H275 0.950 . S
C302 C288 1.377 . S
C302 C301 1.373 . S
C303 C287 1.377 . S
C303 C301 1.389 . S
C303 C304 1.524 . S
C304 C303 1.524 . S
C304 C305 1.397 . S
C304 C309 1.363 1_554 S
C305 H276 0.950 . S
C305 C304 1.397 . S
C305 C306 1.334 1_554 S
C306 H277 0.950 . S
C306 C305 1.334 1_556 S
C306 C307 1.287 . S
C307 C306 1.287 . S
C307 C308 1.524 . S
C307 H310 0.999 . S
C308 H278 0.950 . S
C308 C307 1.524 . S
C308 C309 1.415 . S
C309 H279 0.952 . S
C309 C304 1.363 1_556 S
C309 C308 1.415 . S
H310 C307 0.999 . S
H311 C292 0.913 . S
H312 C330 0.951 . S
H313 C332 0.951 . S
H314 C334 0.950 . S
H315 C335 0.950 . S
H316 C337 0.950 . S
H317 C340 0.950 . S
H318 C341 0.950 . S
H319 C343 0.950 . S
H320 C344 0.950 . S
H321 C345 0.951 . S
H322 C347 0.951 . S
H323 C349 0.950 . S
H324 C350 0.950 . S
H325 C352 0.950 . S
H326 C355 0.950 . S
H327 C356 0.950 . S
H328 C358 0.950 . S
H329 C359 0.950 . S
C330 H312 0.951 . S
C330 C331 1.366 . S
C330 C332 1.388 . S
C331 C330 1.366 . S
C331 C335 1.385 . S
C332 H313 0.951 . S
C332 C330 1.388 . S
C332 C333 1.366 . S
C333 C332 1.366 . S
C333 C334 1.414 . S
C333 C336 1.499 . S
C334 H314 0.950 . S
C334 C333 1.414 . S
C334 C335 1.374 . S
C335 H315 0.950 . S
C335 C331 1.385 . S
C335 C334 1.374 . S
C336 C333 1.499 . S
C336 C337 1.373 . S
C336 C338 1.389 . S
C337 H316 0.950 . S
C337 C336 1.373 . S
C337 C353 1.377 . S
C338 C336 1.389 . S
C338 C339 1.524 . S
C338 C352 1.377 . S
C339 C338 1.524 . S
C339 C340 1.397 . S
C339 C344 1.363 . S
C340 H317 0.950 . S
C340 C339 1.397 . S
C340 C341 1.334 . S
C341 H318 0.950 . S
C341 C340 1.334 . S
C341 C342 1.287 . S
C342 C341 1.287 . S
C342 C343 1.524 . S
C342 H361 0.913 . S
C343 H319 0.950 . S
C343 C342 1.524 . S
C343 C344 1.415 . S
C344 H320 0.950 . S
C344 C339 1.363 . S
C344 C343 1.415 . S
C345 H321 0.951 . S
C345 C346 1.366 . S
C345 C347 1.388 . S
C346 C345 1.366 . S
C346 C350 1.385 . S
C347 H322 0.951 . S
C347 C345 1.388 . S
C347 C348 1.366 . S
C348 C347 1.366 . S
C348 C349 1.414 . S
C348 C351 1.499 . S
C349 H323 0.950 . S
C349 C348 1.414 . S
C349 C350 1.374 . S
C350 H324 0.950 . S
C350 C346 1.385 . S
C350 C349 1.374 . S
C351 C348 1.499 . S
C351 C352 1.373 . S
C351 C353 1.389 . S
C352 H325 0.950 . S
C352 C338 1.377 . S
C352 C351 1.373 . S
C353 C337 1.377 . S
C353 C351 1.389 . S
C353 C354 1.524 . S
C354 C353 1.524 . S
C354 C355 1.397 . S
C354 C359 1.363 . S
C355 H326 0.950 . S
C355 C354 1.397 . S
C355 C356 1.334 . S
C356 H327 0.950 . S
C356 C355 1.334 . S
C356 C357 1.287 . S
C357 C356 1.287 . S
C357 C358 1.524 . S
C357 H360 0.999 . S
C358 H328 0.950 . S
C358 C357 1.524 . S
C358 C359 1.415 . S
C359 H329 0.950 . S
C359 C354 1.363 . S
C359 C358 1.415 . S
H360 C357 0.999 . S
H361 C342 0.913 . S
H362 C380 0.951 . S
H363 C382 0.951 . S
H364 C384 0.950 . S
H365 C385 0.950 . S
H366 C387 0.950 . S
H367 C390 0.950 . S
H368 C391 0.950 . S
H369 C393 0.950 . S
H370 C394 0.950 . S
H371 C395 0.951 . S
H372 C397 0.951 . S
H373 C399 0.950 . S
H374 C400 0.950 . S
H375 C402 0.950 . S
H376 C405 0.950 . S
H377 C406 0.950 . S
H378 C408 0.950 . S
H379 C409 0.950 . S
C380 H362 0.951 . S
C380 C381 1.366 . S
C380 C382 1.388 . S
C381 C380 1.366 . S
C381 C385 1.385 . S
C382 H363 0.951 . S
C382 C380 1.388 . S
C382 C383 1.366 . S
C383 C382 1.366 . S
C383 C384 1.414 . S
C383 C386 1.499 . S
C384 H364 0.950 . S
C384 C383 1.414 . S
C384 C385 1.374 . S
C385 H365 0.950 . S
C385 C381 1.385 . S
C385 C384 1.374 . S
C386 C383 1.499 . S
C386 C387 1.373 . S
C386 C388 1.389 . S
C387 H366 0.950 . S
C387 C386 1.373 . S
C387 C403 1.377 . S
C388 C386 1.389 . S
C388 C389 1.524 . S
C388 C402 1.377 . S
C389 C388 1.524 . S
C389 C390 1.397 . S
C389 C394 1.363 . S
C390 H367 0.950 . S
C390 C389 1.397 . S
C390 C391 1.334 . S
C391 H368 0.950 . S
C391 C390 1.334 . S
C391 C392 1.287 . S
C392 C391 1.287 . S
C392 C393 1.524 . S
C392 H411 0.913 . S
C393 H369 0.950 . S
C393 C392 1.524 . S
C393 C394 1.415 . S
C394 H370 0.950 . S
C394 C389 1.363 . S
C394 C393 1.415 . S
C395 H371 0.951 . S
C395 C396 1.366 . S
C395 C397 1.388 . S
C396 C395 1.366 . S
C396 C400 1.385 . S
C397 H372 0.951 . S
C397 C395 1.388 . S
C397 C398 1.366 . S
C398 C397 1.366 . S
C398 C399 1.414 . S
C398 C401 1.499 . S
C399 H373 0.950 . S
C399 C398 1.414 . S
C399 C400 1.374 . S
C400 H374 0.950 . S
C400 C396 1.385 . S
C400 C399 1.374 . S
C401 C398 1.499 . S
C401 C402 1.373 . S
C401 C403 1.389 . S
C402 H375 0.950 . S
C402 C388 1.377 . S
C402 C401 1.373 . S
C403 C387 1.377 . S
C403 C401 1.389 . S
C403 C404 1.524 . S
C404 C403 1.524 . S
C404 C405 1.397 . S
C404 C409 1.363 . S
C405 H376 0.950 . S
C405 C404 1.397 . S
C405 C406 1.334 . S
C406 H377 0.950 . S
C406 C405 1.334 . S
C406 C407 1.287 . S
C407 C406 1.287 . S
C407 C408 1.524 . S
C407 H410 0.999 . S
C408 H378 0.950 . S
C408 C407 1.524 . S
C408 C409 1.415 . S
C409 H379 0.950 . S
C409 C404 1.363 . S
C409 C408 1.415 . S
H410 C407 0.999 . S
H411 C392 0.913 . S
H412 C430 0.951 . S
H413 C432 0.951 . S
H414 C434 0.950 . S
H415 C435 0.950 . S
H416 C437 0.950 . S
H417 C440 0.950 . S
H418 C441 0.950 . S
H419 C443 0.950 . S
H420 C444 0.950 . S
H421 C445 0.951 . S
H422 C447 0.951 . S
H423 C449 0.950 . S
H424 C450 0.950 . S
H425 C452 0.950 . S
H426 C455 0.950 1_554 S
H427 C456 0.950 . S
H428 C458 0.950 . S
H429 C459 0.950 . S
C430 H412 0.951 . S
C430 C431 1.366 . S
C430 C432 1.388 . S
C431 C430 1.366 . S
C431 C435 1.385 . S
C432 H413 0.951 . S
C432 C430 1.388 . S
C432 C433 1.366 . S
C433 C432 1.366 . S
C433 C434 1.414 . S
C433 C436 1.499 . S
C434 H414 0.950 . S
C434 C433 1.414 . S
C434 C435 1.374 . S
C435 H415 0.950 . S
C435 C431 1.385 . S
C435 C434 1.374 . S
C436 C433 1.499 . S
C436 C437 1.373 . S
C436 C438 1.389 . S
C437 H416 0.950 . S
C437 C436 1.373 . S
C437 C453 1.377 . S
C438 C436 1.389 . S
C438 C439 1.524 . S
C438 C452 1.377 . S
C439 C438 1.524 . S
C439 C440 1.397 . S
C439 C444 1.363 . S
C440 H417 0.950 . S
C440 C439 1.397 . S
C440 C441 1.334 . S
C441 H418 0.950 . S
C441 C440 1.334 . S
C441 C442 1.287 . S
C442 C441 1.287 . S
C442 C443 1.524 . S
C442 H461 0.913 . S
C443 H419 0.950 . S
C443 C442 1.524 . S
C443 C444 1.415 . S
C444 H420 0.950 . S
C444 C439 1.363 . S
C444 C443 1.415 . S
C445 H421 0.951 . S
C445 C446 1.366 . S
C445 C447 1.388 . S
C446 C445 1.366 . S
C446 C450 1.385 . S
C447 H422 0.951 . S
C447 C445 1.388 . S
C447 C448 1.366 . S
C448 C447 1.366 . S
C448 C449 1.414 . S
C448 C451 1.499 . S
C449 H423 0.950 . S
C449 C448 1.414 . S
C449 C450 1.374 . S
C450 H424 0.950 . S
C450 C446 1.385 . S
C450 C449 1.374 . S
C451 C448 1.499 . S
C451 C452 1.373 . S
C451 C453 1.389 . S
C452 H425 0.950 . S
C452 C438 1.377 . S
C452 C451 1.373 . S
C453 C437 1.377 . S
C453 C451 1.389 . S
C453 C454 1.524 . S
C454 C453 1.524 . S
C454 C455 1.397 1_554 S
C454 C459 1.363 . S
C455 H426 0.950 1_556 S
C455 C454 1.397 1_556 S
C455 C456 1.334 . S
C456 H427 0.950 . S
C456 C455 1.334 . S
C456 C457 1.287 . S
C457 C456 1.287 . S
C457 C458 1.524 . S
C457 H460 0.999 . S
C458 H428 0.950 . S
C458 C457 1.524 . S
C458 C459 1.415 1_556 S
C459 H429 0.950 . S
C459 C454 1.363 . S
C459 C458 1.415 1_554 S
H460 C457 0.999 . S
H461 C442 0.913 . S
H462 C480 0.951 . S
H463 C482 0.951 . S
H464 C484 0.950 . S
H465 C485 0.950 1_554 S
H466 C487 0.950 . S
H467 C490 0.950 . S
H468 C491 0.950 . S
H469 C493 0.950 . S
H470 C494 0.950 . S
H471 C495 0.951 . S
H472 C497 0.951 . S
H473 C499 0.950 . S
H474 C500 0.950 . S
H475 C502 0.950 . S
H476 C505 0.950 . S
H477 C506 0.950 . S
H478 C508 0.950 1_554 S
H479 C509 0.950 . S
C480 H462 0.951 . S
C480 C481 1.366 . S
C480 C482 1.388 . S
C481 C480 1.366 . S
C481 C485 1.385 . S
C482 H463 0.951 . S
C482 C480 1.388 . S
C482 C483 1.366 . S
C483 C482 1.366 . S
C483 C484 1.414 . S
C483 C486 1.499 . S
C484 H464 0.950 . S
C484 C483 1.414 . S
C484 C485 1.374 . S
C485 H465 0.950 1_556 S
C485 C481 1.385 . S
C485 C484 1.374 . S
C486 C483 1.499 . S
C486 C487 1.373 . S
C486 C488 1.389 . S
C487 H466 0.950 . S
C487 C486 1.373 . S
C487 C503 1.377 . S
C488 C486 1.389 . S
C488 C489 1.524 . S
C488 C502 1.377 . S
C489 C488 1.524 . S
C489 C490 1.397 . S
C489 C494 1.363 . S
C490 H467 0.950 . S
C490 C489 1.397 . S
C490 C491 1.334 . S
C491 H468 0.950 . S
C491 C490 1.334 . S
C491 C492 1.287 . S
C492 C491 1.287 . S
C492 C493 1.524 . S
C492 H511 0.913 . S
C493 H469 0.950 . S
C493 C492 1.524 . S
C493 C494 1.415 . S
C494 H470 0.950 . S
C494 C489 1.363 . S
C494 C493 1.415 . S
C495 H471 0.951 . S
C495 C496 1.366 . S
C495 C497 1.388 . S
C496 C495 1.366 . S
C496 C500 1.385 . S
C497 H472 0.951 . S
C497 C495 1.388 . S
C497 C498 1.366 . S
C498 C497 1.366 . S
C498 C499 1.414 . S
C498 C501 1.499 . S
C499 H473 0.950 . S
C499 C498 1.414 . S
C499 C500 1.374 . S
C500 H474 0.950 . S
C500 C496 1.385 . S
C500 C499 1.374 . S
C501 C498 1.499 . S
C501 C502 1.373 . S
C501 C503 1.389 . S
C502 H475 0.950 . S
C502 C488 1.377 . S
C502 C501 1.373 . S
C503 C487 1.377 . S
C503 C501 1.389 . S
C503 C504 1.524 . S
C504 C503 1.524 . S
C504 C505 1.397 . S
C504 C509 1.363 . S
C505 H476 0.950 . S
C505 C504 1.397 . S
C505 C506 1.334 . S
C506 H477 0.950 . S
C506 C505 1.334 . S
C506 C507 1.287 . S
C507 C506 1.287 . S
C507 C508 1.524 . S
C507 H510 0.999 . S
C508 H478 0.950 1_556 S
C508 C507 1.524 . S
C508 C509 1.415 . S
C509 H479 0.950 . S
C509 C504 1.363 . S
C509 C508 1.415 . S
H510 C507 0.999 . S
H511 C492 0.913 . S
H512 C530 0.951 . S
H513 C532 0.951 . S
H514 C534 0.950 . S
H515 C535 0.950 . S
H516 C537 0.950 . S
H517 C540 0.950 . S
H518 C541 0.950 . S
H519 C543 0.950 . S
H520 C544 0.950 . S
H521 C545 0.951 . S
H522 C547 0.951 . S
H523 C549 0.950 . S
H524 C550 0.950 . S
H525 C552 0.950 . S
H526 C555 0.950 . S
H527 C556 0.950 . S
H528 C558 0.950 . S
H529 C559 0.950 . S
C530 H512 0.951 . S
C530 C531 1.366 . S
C530 C532 1.388 . S
C531 C530 1.366 . S
C531 C535 1.385 . S
C532 H513 0.951 . S
C532 C530 1.388 . S
C532 C533 1.366 . S
C533 C532 1.366 . S
C533 C534 1.414 . S
C533 C536 1.499 . S
C534 H514 0.950 . S
C534 C533 1.414 . S
C534 C535 1.374 . S
C535 H515 0.950 . S
C535 C531 1.385 . S
C535 C534 1.374 . S
C536 C533 1.499 . S
C536 C537 1.373 . S
C536 C538 1.389 . S
C537 H516 0.950 . S
C537 C536 1.373 . S
C537 C553 1.377 . S
C538 C536 1.389 . S
C538 C539 1.524 . S
C538 C552 1.377 . S
C539 C538 1.524 . S
C539 C540 1.397 . S
C539 C544 1.363 . S
C540 H517 0.950 . S
C540 C539 1.397 . S
C540 C541 1.334 . S
C541 H518 0.950 . S
C541 C540 1.334 . S
C541 C542 1.287 . S
C542 C541 1.287 . S
C542 C543 1.524 . S
C542 H561 0.913 . S
C543 H519 0.950 . S
C543 C542 1.524 . S
C543 C544 1.415 . S
C544 H520 0.950 . S
C544 C539 1.363 . S
C544 C543 1.415 . S
C545 H521 0.951 . S
C545 C546 1.366 . S
C545 C547 1.388 . S
C546 C545 1.366 . S
C546 C550 1.385 . S
C547 H522 0.951 . S
C547 C545 1.388 . S
C547 C548 1.366 . S
C548 C547 1.366 . S
C548 C549 1.414 . S
C548 C551 1.499 . S
C549 H523 0.950 . S
C549 C548 1.414 . S
C549 C550 1.374 . S
C550 H524 0.950 . S
C550 C546 1.385 . S
C550 C549 1.374 . S
C551 C548 1.499 . S
C551 C552 1.373 . S
C551 C553 1.389 . S
C552 H525 0.950 . S
C552 C538 1.377 . S
C552 C551 1.373 . S
C553 C537 1.377 . S
C553 C551 1.389 . S
C553 C554 1.524 . S
C554 C553 1.524 . S
C554 C555 1.397 . S
C554 C559 1.363 . S
C555 H526 0.950 . S
C555 C554 1.397 . S
C555 C556 1.334 . S
C556 H527 0.950 . S
C556 C555 1.334 . S
C556 C557 1.287 . S
C557 C556 1.287 . S
C557 C558 1.524 . S
C557 H560 0.999 . S
C558 H528 0.950 . S
C558 C557 1.524 . S
C558 C559 1.415 . S
C559 H529 0.950 . S
C559 C554 1.363 . S
C559 C558 1.415 . S
H560 C557 0.999 . S
H561 C542 0.913 . S
H562 C580 0.951 . S
H563 C582 0.951 . S
H564 C584 0.950 . S
H565 C585 0.950 . S
H566 C587 0.950 . S
H567 C590 0.950 . S
H568 C591 0.950 . S
H569 C593 0.950 . S
H570 C594 0.950 . S
H571 C595 0.951 . S
H572 C597 0.951 . S
H573 C599 0.950 . S
H574 C600 0.950 . S
H575 C602 0.950 . S
H576 C605 0.950 . S
H577 C606 0.950 . S
H578 C608 0.950 . S
H579 C609 0.950 . S
C580 H562 0.951 . S
C580 C581 1.366 . S
C580 C582 1.388 . S
C581 C580 1.366 . S
C581 C585 1.385 . S
C582 H563 0.951 . S
C582 C580 1.388 . S
C582 C583 1.366 . S
C583 C582 1.366 . S
C583 C584 1.414 . S
C583 C586 1.499 . S
C584 H564 0.950 . S
C584 C583 1.414 . S
C584 C585 1.374 . S
C585 H565 0.950 . S
C585 C581 1.385 . S
C585 C584 1.374 . S
C586 C583 1.499 . S
C586 C587 1.373 . S
C586 C588 1.389 . S
C587 H566 0.950 . S
C587 C586 1.373 . S
C587 C603 1.377 . S
C588 C586 1.389 . S
C588 C589 1.524 . S
C588 C602 1.377 . S
C589 C588 1.524 . S
C589 C590 1.397 . S
C589 C594 1.363 . S
C590 H567 0.950 . S
C590 C589 1.397 . S
C590 C591 1.334 . S
C591 H568 0.950 . S
C591 C590 1.334 . S
C591 C592 1.287 . S
C592 C591 1.287 . S
C592 C593 1.524 . S
C592 H611 0.913 . S
C593 H569 0.950 . S
C593 C592 1.524 . S
C593 C594 1.415 . S
C594 H570 0.950 . S
C594 C589 1.363 . S
C594 C593 1.415 . S
C595 H571 0.951 . S
C595 C596 1.366 . S
C595 C597 1.388 . S
C596 C595 1.366 . S
C596 C600 1.385 . S
C597 H572 0.951 . S
C597 C595 1.388 . S
C597 C598 1.366 . S
C598 C597 1.366 . S
C598 C599 1.414 . S
C598 C601 1.499 . S
C599 H573 0.950 . S
C599 C598 1.414 . S
C599 C600 1.374 . S
C600 H574 0.950 . S
C600 C596 1.385 . S
C600 C599 1.374 . S
C601 C598 1.499 . S
C601 C602 1.373 . S
C601 C603 1.389 . S
C602 H575 0.950 . S
C602 C588 1.377 . S
C602 C601 1.373 . S
C603 C587 1.377 . S
C603 C601 1.389 . S
C603 C604 1.524 . S
C604 C603 1.524 . S
C604 C605 1.397 . S
C604 C609 1.363 . S
C605 H576 0.950 . S
C605 C604 1.397 . S
C605 C606 1.334 . S
C606 H577 0.950 . S
C606 C605 1.334 . S
C606 C607 1.287 . S
C607 C606 1.287 . S
C607 C608 1.524 . S
C607 H610 0.999 . S
C608 H578 0.950 . S
C608 C607 1.524 . S
C608 C609 1.415 . S
C609 H579 0.950 . S
C609 C604 1.363 . S
C609 C608 1.415 . S
H610 C607 0.999 . S
H611 C592 0.913 . S
H612 C630 0.951 . S
H613 C632 0.951 . S
H614 C634 0.950 . S
H615 C635 0.950 . S
H616 C637 0.950 . S
H617 C640 0.950 . S
H618 C641 0.950 . S
H619 C643 0.950 . S
H620 C644 0.950 . S
H621 C645 0.951 . S
H622 C647 0.951 . S
H623 C649 0.950 . S
H624 C650 0.950 . S
H625 C652 0.950 . S
H626 C655 0.950 . S
H627 C656 0.950 . S
H628 C658 0.950 . S
H629 C659 0.950 . S
C630 H612 0.951 . S
C630 C631 1.366 . S
C630 C632 1.388 . S
C631 C630 1.366 . S
C631 C635 1.385 . S
C632 H613 0.951 . S
C632 C630 1.388 . S
C632 C633 1.366 . S
C633 C632 1.366 . S
C633 C634 1.414 . S
C633 C636 1.499 . S
C634 H614 0.950 . S
C634 C633 1.414 . S
C634 C635 1.374 . S
C635 H615 0.950 . S
C635 C631 1.385 . S
C635 C634 1.374 . S
C636 C633 1.499 . S
C636 C637 1.373 . S
C636 C638 1.389 . S
C637 H616 0.950 . S
C637 C636 1.373 . S
C637 C653 1.377 . S
C638 C636 1.389 . S
C638 C639 1.524 . S
C638 C652 1.377 . S
C639 C638 1.524 . S
C639 C640 1.397 . S
C639 C644 1.363 . S
C640 H617 0.950 . S
C640 C639 1.397 . S
C640 C641 1.334 . S
C641 H618 0.950 . S
C641 C640 1.334 . S
C641 C642 1.287 . S
C642 C641 1.287 . S
C642 C643 1.524 . S
C642 H661 0.913 . S
C643 H619 0.950 . S
C643 C642 1.524 . S
C643 C644 1.415 . S
C644 H620 0.950 . S
C644 C639 1.363 . S
C644 C643 1.415 . S
C645 H621 0.951 . S
C645 C646 1.366 . S
C645 C647 1.388 . S
C646 C645 1.366 . S
C646 C650 1.385 . S
C647 H622 0.951 . S
C647 C645 1.388 . S
C647 C648 1.366 . S
C648 C647 1.366 . S
C648 C649 1.414 . S
C648 C651 1.499 . S
C649 H623 0.950 . S
C649 C648 1.414 . S
C649 C650 1.374 . S
C650 H624 0.950 . S
C650 C646 1.385 . S
C650 C649 1.374 . S
C651 C648 1.499 . S
C651 C652 1.373 . S
C651 C653 1.389 . S
C652 H625 0.950 . S
C652 C638 1.377 . S
C652 C651 1.373 . S
C653 C637 1.377 . S
C653 C651 1.389 . S
C653 C654 1.524 . S
C654 C653 1.524 . S
C654 C655 1.397 . S
C654 C659 1.363 . S
C655 H626 0.950 . S
C655 C654 1.397 . S
C655 C656 1.334 . S
C656 H627 0.950 . S
C656 C655 1.334 . S
C656 C657 1.287 . S
C657 C656 1.287 . S
C657 C658 1.524 . S
C657 H660 0.999 . S
C658 H628 0.950 . S
C658 C657 1.524 . S
C658 C659 1.415 . S
C659 H629 0.950 . S
C659 C654 1.363 . S
C659 C658 1.415 . S
H660 C657 0.999 . S
H661 C642 0.913 . S
H662 C680 0.951 . S
H663 C682 0.951 . S
H664 C684 0.950 . S
H665 C685 0.950 . S
H666 C687 0.950 . S
H667 C690 0.950 . S
H668 C691 0.950 . S
H669 C693 0.950 . S
H670 C694 0.950 . S
H671 C695 0.951 . S
H672 C697 0.951 . S
H673 C699 0.950 . S
H674 C700 0.950 . S
H675 C702 0.950 . S
H676 C705 0.950 . S
H677 C706 0.950 . S
H678 C708 0.950 . S
H679 C709 0.950 . S
C680 H662 0.951 . S
C680 C681 1.366 . S
C680 C682 1.388 . S
C681 C680 1.366 . S
C681 C685 1.385 . S
C682 H663 0.951 . S
C682 C680 1.388 . S
C682 C683 1.366 . S
C683 C682 1.366 . S
C683 C684 1.414 . S
C683 C686 1.499 . S
C684 H664 0.950 . S
C684 C683 1.414 . S
C684 C685 1.374 . S
C685 H665 0.950 . S
C685 C681 1.385 . S
C685 C684 1.374 . S
C686 C683 1.499 . S
C686 C687 1.373 . S
C686 C688 1.389 . S
C687 H666 0.950 . S
C687 C686 1.373 . S
C687 C703 1.377 . S
C688 C686 1.389 . S
C688 C689 1.524 . S
C688 C702 1.377 . S
C689 C688 1.524 . S
C689 C690 1.397 . S
C689 C694 1.363 . S
C690 H667 0.950 . S
C690 C689 1.397 . S
C690 C691 1.334 . S
C691 H668 0.950 . S
C691 C690 1.334 . S
C691 C692 1.287 . S
C692 C691 1.287 . S
C692 C693 1.524 . S
C692 H711 0.913 . S
C693 H669 0.950 . S
C693 C692 1.524 . S
C693 C694 1.415 . S
C694 H670 0.950 . S
C694 C689 1.363 . S
C694 C693 1.415 . S
C695 H671 0.951 . S
C695 C696 1.366 . S
C695 C697 1.388 . S
C696 C695 1.366 . S
C696 C700 1.385 . S
C697 H672 0.951 . S
C697 C695 1.388 . S
C697 C698 1.366 . S
C698 C697 1.366 . S
C698 C699 1.414 . S
C698 C701 1.499 . S
C699 H673 0.950 . S
C699 C698 1.414 . S
C699 C700 1.374 . S
C700 H674 0.950 . S
C700 C696 1.385 . S
C700 C699 1.374 . S
C701 C698 1.499 . S
C701 C702 1.373 . S
C701 C703 1.389 . S
C702 H675 0.950 . S
C702 C688 1.377 . S
C702 C701 1.373 . S
C703 C687 1.377 . S
C703 C701 1.389 . S
C703 C704 1.524 . S
C704 C703 1.524 . S
C704 C705 1.397 . S
C704 C709 1.363 . S
C705 H676 0.950 . S
C705 C704 1.397 . S
C705 C706 1.334 . S
C706 H677 0.950 . S
C706 C705 1.334 . S
C706 C707 1.287 . S
C707 C706 1.287 . S
C707 C708 1.524 . S
C707 H710 0.999 . S
C708 H678 0.950 . S
C708 C707 1.524 . S
C708 C709 1.415 . S
C709 H679 0.950 . S
C709 C704 1.363 . S
C709 C708 1.415 . S
H710 C707 0.999 . S
H711 C692 0.913 . S
H712 C730 0.951 . S
H713 C732 0.951 . S
H714 C734 0.950 . S
H715 C735 0.950 . S
H716 C737 0.950 . S
H717 C740 0.951 . S
H718 C741 0.950 . S
H719 C743 0.950 . S
H720 C744 0.950 . S
H721 C745 0.951 . S
H722 C747 0.951 . S
H723 C749 0.950 . S
H724 C750 0.950 . S
H725 C752 0.950 . S
H726 C755 0.950 . S
H727 C756 0.950 . S
H728 C758 0.950 . S
H729 C759 0.950 . S
C730 H712 0.951 . S
C730 C731 1.366 . S
C730 C732 1.388 . S
C731 C730 1.366 . S
C731 C735 1.385 . S
C732 H713 0.951 . S
C732 C730 1.388 . S
C732 C733 1.366 . S
C733 C732 1.366 . S
C733 C734 1.414 . S
C733 C736 1.499 . S
C734 H714 0.950 . S
C734 C733 1.414 . S
C734 C735 1.374 . S
C735 H715 0.950 . S
C735 C731 1.385 . S
C735 C734 1.374 . S
C736 C733 1.499 . S
C736 C737 1.373 . S
C736 C738 1.389 . S
C737 H716 0.950 . S
C737 C736 1.373 . S
C737 C753 1.377 . S
C738 C736 1.389 . S
C738 C739 1.524 . S
C738 C752 1.377 . S
C739 C738 1.524 . S
C739 C740 1.405 . S
C739 C744 1.363 . S
C740 H717 0.951 . S
C740 C739 1.405 . S
C740 C741 1.325 1_554 S
C741 H718 0.950 . S
C741 C740 1.325 1_556 S
C741 C742 1.287 . S
C742 C741 1.287 . S
C742 C743 1.524 . S
C742 H761 0.913 . S
C743 H719 0.950 . S
C743 C742 1.524 . S
C743 C744 1.415 1_556 S
C744 H720 0.950 . S
C744 C739 1.363 . S
C744 C743 1.415 1_554 S
C745 H721 0.951 . S
C745 C746 1.366 . S
C745 C747 1.388 . S
C746 C745 1.366 . S
C746 C750 1.385 . S
C747 H722 0.951 . S
C747 C745 1.388 . S
C747 C748 1.366 . S
C748 C747 1.366 . S
C748 C749 1.414 . S
C748 C751 1.499 . S
C749 H723 0.950 . S
C749 C748 1.414 . S
C749 C750 1.374 . S
C750 H724 0.950 . S
C750 C746 1.385 . S
C750 C749 1.374 . S
C751 C748 1.499 . S
C751 C752 1.373 . S
C751 C753 1.389 . S
C752 H725 0.950 . S
C752 C738 1.377 . S
C752 C751 1.373 . S
C753 C737 1.377 . S
C753 C751 1.389 . S
C753 C754 1.524 . S
C754 C753 1.524 . S
C754 C755 1.397 . S
C754 C759 1.363 . S
C755 H726 0.950 . S
C755 C754 1.397 . S
C755 C756 1.334 . S
C756 H727 0.950 . S
C756 C755 1.334 . S
C756 C757 1.287 . S
C757 C756 1.287 . S
C757 C758 1.524 . S
C757 H760 0.999 . S
C758 H728 0.950 . S
C758 C757 1.524 . S
C758 C759 1.415 . S
C759 H729 0.950 . S
C759 C754 1.363 . S
C759 C758 1.415 . S
H760 C757 0.999 . S
H761 C742 0.913 . S
H762 C780 0.951 . S
H763 C782 0.951 . S
H764 C784 0.950 . S
H765 C785 0.950 . S
H766 C787 0.950 . S
H767 C790 0.950 . S
H768 C791 0.950 . S
H769 C793 0.950 . S
H770 C794 0.950 . S
H771 C795 0.951 . S
H772 C797 0.951 . S
H773 C799 0.950 . S
H774 C800 0.950 . S
H775 C802 0.950 . S
H776 C805 0.950 . S
H777 C806 0.950 . S
H778 C808 0.950 . S
H779 C809 0.950 . S
C780 H762 0.951 . S
C780 C781 1.366 . S
C780 C782 1.388 . S
C781 C780 1.366 . S
C781 C785 1.385 . S
C782 H763 0.951 . S
C782 C780 1.388 . S
C782 C783 1.366 . S
C783 C782 1.366 . S
C783 C784 1.414 . S
C783 C786 1.499 . S
C784 H764 0.950 . S
C784 C783 1.414 . S
C784 C785 1.374 . S
C785 H765 0.950 . S
C785 C781 1.385 . S
C785 C784 1.374 . S
C786 C783 1.499 . S
C786 C787 1.373 . S
C786 C788 1.389 . S
C787 H766 0.950 . S
C787 C786 1.373 . S
C787 C803 1.377 . S
C788 C786 1.389 . S
C788 C789 1.524 . S
C788 C802 1.377 . S
C789 C788 1.524 . S
C789 C790 1.397 . S
C789 C794 1.363 . S
C790 H767 0.950 . S
C790 C789 1.397 . S
C790 C791 1.334 . S
C791 H768 0.950 . S
C791 C790 1.334 . S
C791 C792 1.287 . S
C792 C791 1.287 . S
C792 C793 1.524 . S
C792 H811 0.913 . S
C793 H769 0.950 . S
C793 C792 1.524 . S
C793 C794 1.415 . S
C794 H770 0.950 . S
C794 C789 1.363 . S
C794 C793 1.415 . S
C795 H771 0.951 . S
C795 C796 1.366 . S
C795 C797 1.388 . S
C796 C795 1.366 . S
C796 C800 1.385 . S
C797 H772 0.951 . S
C797 C795 1.388 . S
C797 C798 1.366 . S
C798 C797 1.366 . S
C798 C799 1.414 . S
C798 C801 1.499 . S
C799 H773 0.950 . S
C799 C798 1.414 . S
C799 C800 1.374 . S
C800 H774 0.950 . S
C800 C796 1.385 . S
C800 C799 1.374 . S
C801 C798 1.499 . S
C801 C802 1.373 . S
C801 C803 1.389 . S
C802 H775 0.950 . S
C802 C788 1.377 . S
C802 C801 1.373 . S
C803 C787 1.377 . S
C803 C801 1.389 . S
C803 C804 1.524 . S
C804 C803 1.524 . S
C804 C805 1.397 . S
C804 C809 1.363 . S
C805 H776 0.950 . S
C805 C804 1.397 . S
C805 C806 1.334 1_556 S
C806 H777 0.950 . S
C806 C805 1.334 1_554 S
C806 C807 1.287 . S
C807 C806 1.287 . S
C807 C808 1.524 . S
C807 H810 0.999 . S
C808 H778 0.950 . S
C808 C807 1.524 . S
C808 C809 1.415 1_554 S
C809 H779 0.950 . S
C809 C804 1.363 . S
C809 C808 1.415 1_556 S
H810 C807 0.999 . S
H811 C792 0.913 . S
H812 C830 0.951 . S
H813 C832 0.951 . S
H814 C834 0.950 . S
H815 C835 0.950 . S
H816 C837 0.950 . S
H817 C840 0.950 . S
H818 C841 0.950 . S
H819 C843 0.950 . S
H820 C844 0.950 . S
H821 C845 0.951 . S
H822 C847 0.951 . S
H823 C849 0.950 . S
H824 C850 0.950 . S
H825 C852 0.950 . S
H826 C855 0.950 . S
H827 C856 0.950 . S
H828 C858 0.950 . S
H829 C859 0.950 . S
C830 H812 0.951 . S
C830 C831 1.366 . S
C830 C832 1.388 . S
C831 C830 1.366 . S
C831 C835 1.385 . S
C832 H813 0.951 . S
C832 C830 1.388 . S
C832 C833 1.366 . S
C833 C832 1.366 . S
C833 C834 1.414 . S
C833 C836 1.499 . S
C834 H814 0.950 . S
C834 C833 1.414 . S
C834 C835 1.374 . S
C835 H815 0.950 . S
C835 C831 1.385 . S
C835 C834 1.374 . S
C836 C833 1.499 . S
C836 C837 1.373 . S
C836 C838 1.389 . S
C837 H816 0.950 . S
C837 C836 1.373 . S
C837 C853 1.377 . S
C838 C836 1.389 . S
C838 C839 1.524 . S
C838 C852 1.377 . S
C839 C838 1.524 . S
C839 C840 1.397 . S
C839 C844 1.363 . S
C840 H817 0.950 . S
C840 C839 1.397 . S
C840 C841 1.334 . S
C841 H818 0.950 . S
C841 C840 1.334 . S
C841 C842 1.287 . S
C842 C841 1.287 . S
C842 C843 1.524 . S
C842 H861 0.913 . S
C843 H819 0.950 . S
C843 C842 1.524 . S
C843 C844 1.415 . S
C844 H820 0.950 . S
C844 C839 1.363 . S
C844 C843 1.415 . S
C845 H821 0.951 . S
C845 C846 1.366 . S
C845 C847 1.388 . S
C846 C845 1.366 . S
C846 C850 1.385 . S
C847 H822 0.951 . S
C847 C845 1.388 . S
C847 C848 1.366 . S
C848 C847 1.366 . S
C848 C849 1.414 . S
C848 C851 1.499 . S
C849 H823 0.950 . S
C849 C848 1.414 . S
C849 C850 1.374 . S
C850 H824 0.950 . S
C850 C846 1.385 . S
C850 C849 1.374 . S
C851 C848 1.499 . S
C851 C852 1.373 . S
C851 C853 1.389 . S
C852 H825 0.950 . S
C852 C838 1.377 . S
C852 C851 1.373 . S
C853 C837 1.377 . S
C853 C851 1.389 . S
C853 C854 1.524 . S
C854 C853 1.524 . S
C854 C855 1.397 . S
C854 C859 1.363 . S
C855 H826 0.950 . S
C855 C854 1.397 . S
C855 C856 1.334 . S
C856 H827 0.950 . S
C856 C855 1.334 . S
C856 C857 1.287 . S
C857 C856 1.287 . S
C857 C858 1.524 . S
C857 H860 0.999 . S
C858 H828 0.950 . S
C858 C857 1.524 . S
C858 C859 1.415 . S
C859 H829 0.950 . S
C859 C854 1.363 . S
C859 C858 1.415 . S
H860 C857 0.999 . S
H861 C842 0.913 . S
H862 C880 0.951 . S
H863 C882 0.951 . S
H864 C884 0.950 . S
H865 C885 0.950 . S
H866 C887 0.950 . S
H867 C890 0.950 . S
H868 C891 0.950 . S
H869 C893 0.950 . S
H870 C894 0.950 . S
H871 C895 0.951 . S
H872 C897 0.951 . S
H873 C899 0.950 . S
H874 C900 0.950 . S
H875 C902 0.950 . S
H876 C905 0.950 . S
H877 C906 0.950 . S
H878 C908 0.950 . S
H879 C909 0.950 . S
C880 H862 0.951 . S
C880 C881 1.366 . S
C880 C882 1.388 . S
C881 C880 1.366 . S
C881 C885 1.385 . S
C882 H863 0.951 . S
C882 C880 1.388 . S
C882 C883 1.366 . S
C883 C882 1.366 . S
C883 C884 1.414 . S
C883 C886 1.499 . S
C884 H864 0.950 . S
C884 C883 1.414 . S
C884 C885 1.374 . S
C885 H865 0.950 . S
C885 C881 1.385 . S
C885 C884 1.374 . S
C886 C883 1.499 . S
C886 C887 1.373 . S
C886 C888 1.389 . S
C887 H866 0.950 . S
C887 C886 1.373 . S
C887 C903 1.377 . S
C888 C886 1.389 . S
C888 C889 1.524 . S
C888 C902 1.377 . S
C889 C888 1.524 . S
C889 C890 1.397 . S
C889 C894 1.363 . S
C890 H867 0.950 . S
C890 C889 1.397 . S
C890 C891 1.334 . S
C891 H868 0.950 . S
C891 C890 1.334 . S
C891 C892 1.287 . S
C892 C891 1.287 . S
C892 C893 1.524 . S
C892 H911 0.913 . S
C893 H869 0.950 . S
C893 C892 1.524 . S
C893 C894 1.415 . S
C894 H870 0.950 . S
C894 C889 1.363 . S
C894 C893 1.415 . S
C895 H871 0.951 . S
C895 C896 1.366 . S
C895 C897 1.388 . S
C896 C895 1.366 . S
C896 C900 1.385 . S
C897 H872 0.951 . S
C897 C895 1.388 . S
C897 C898 1.366 . S
C898 C897 1.366 . S
C898 C899 1.414 . S
C898 C901 1.499 . S
C899 H873 0.950 . S
C899 C898 1.414 . S
C899 C900 1.374 . S
C900 H874 0.950 . S
C900 C896 1.385 . S
C900 C899 1.374 . S
C901 C898 1.499 . S
C901 C902 1.373 . S
C901 C903 1.389 . S
C902 H875 0.950 . S
C902 C888 1.377 . S
C902 C901 1.373 . S
C903 C887 1.377 . S
C903 C901 1.389 . S
C903 C904 1.524 . S
C904 C903 1.524 . S
C904 C905 1.397 . S
C904 C909 1.363 . S
C905 H876 0.950 . S
C905 C904 1.397 . S
C905 C906 1.334 . S
C906 H877 0.950 . S
C906 C905 1.334 . S
C906 C907 1.287 . S
C907 C906 1.287 . S
C907 C908 1.524 . S
C907 H910 0.999 . S
C908 H878 0.950 . S
C908 C907 1.524 . S
C908 C909 1.415 . S
C909 H879 0.950 . S
C909 C904 1.363 . S
C909 C908 1.415 . S
H910 C907 0.999 . S
H911 C892 0.913 . S
C131 C1 1.498 . S
C146 C54 1.492 . S
C181 C13 1.499 . S
C196 C14 1.498 . S
C231 C28 1.499 . S
C246 C26 1.503 . S
C281 C42 1.498 . S
C296 C40 1.494 . S
C331 C0 1.499 . S
C346 C83 1.505 . S
C381 C12 1.498 . S
C396 C57 1.499 . S
C431 C69 1.498 . S
C446 C29 1.494 . S
C481 C41 1.498 . S
C496 C71 1.503 . S
C531 C97 1.498 . S
C546 C82 1.500 . S
C581 C56 1.498 . S
C596 C85 1.497 . S
C631 C68 1.499 . S
C646 C98 1.502 . S
C681 C70 1.498 . S
C696 C110 1.502 . S
C731 C96 1.499 . S
C746 C55 1.498 . S
C781 C15 1.498 . S
C796 C84 1.500 . S
C831 C27 1.498 . S
C846 C99 1.495 . S
C881 C43 1.499 . S
C896 C111 1.495 . S
