# Generated by pormake.
# Topology wjx, (5)-cn, num edge types: 1
# Building blocks:
#     Node 0, Type 0, BuildingBlock: XOMCOT_clean_sbu_1, # of connection points: 5
#     Node 1, Type 0, BuildingBlock: XOMCOT_clean_sbu_1, # of connection points: 5
#     Node 2, Type 0, BuildingBlock: XOMCOT_clean_sbu_1, # of connection points: 5
#     Node 3, Type 0, BuildingBlock: XOMCOT_clean_sbu_1, # of connection points: 5
#     Node 4, Type 0, BuildingBlock: XOMCOT_clean_sbu_1, # of connection points: 5
#     Node 5, Type 0, BuildingBlock: XOMCOT_clean_sbu_1, # of connection points: 5
#     Node 6, Type 0, BuildingBlock: XOMCOT_clean_sbu_1, # of connection points: 5
#     Node 7, Type 0, BuildingBlock: XOMCOT_clean_sbu_1, # of connection points: 5
#     Node 8, Type 0, BuildingBlock: XOMCOT_clean_sbu_1, # of connection points: 5
#     Node 9, Type 0, BuildingBlock: XOMCOT_clean_sbu_1, # of connection points: 5
#     Node 10, Type 0, BuildingBlock: XOMCOT_clean_sbu_1, # of connection points: 5
#     Node 11, Type 0, BuildingBlock: XOMCOT_clean_sbu_1, # of connection points: 5
#     Edge 12, Type (0, 0), BuildingBlock: AJUNOK_clean_linker_0, # of connection points: 2
#     Edge 13, Type (0, 0), BuildingBlock: AJUNOK_clean_linker_0, # of connection points: 2
#     Edge 14, Type (0, 0), BuildingBlock: AJUNOK_clean_linker_0, # of connection points: 2
#     Edge 15, Type (0, 0), BuildingBlock: AJUNOK_clean_linker_0, # of connection points: 2
#     Edge 16, Type (0, 0), BuildingBlock: AJUNOK_clean_linker_0, # of connection points: 2
#     Edge 17, Type (0, 0), BuildingBlock: AJUNOK_clean_linker_0, # of connection points: 2
#     Edge 18, Type (0, 0), BuildingBlock: AJUNOK_clean_linker_0, # of connection points: 2
#     Edge 19, Type (0, 0), BuildingBlock: AJUNOK_clean_linker_0, # of connection points: 2
#     Edge 20, Type (0, 0), BuildingBlock: AJUNOK_clean_linker_0, # of connection points: 2
#     Edge 21, Type (0, 0), BuildingBlock: AJUNOK_clean_linker_0, # of connection points: 2
#     Edge 22, Type (0, 0), BuildingBlock: AJUNOK_clean_linker_0, # of connection points: 2
#     Edge 23, Type (0, 0), BuildingBlock: AJUNOK_clean_linker_0, # of connection points: 2
#     Edge 24, Type (0, 0), BuildingBlock: AJUNOK_clean_linker_0, # of connection points: 2
#     Edge 25, Type (0, 0), BuildingBlock: AJUNOK_clean_linker_0, # of connection points: 2
#     Edge 26, Type (0, 0), BuildingBlock: AJUNOK_clean_linker_0, # of connection points: 2
#     Edge 27, Type (0, 0), BuildingBlock: AJUNOK_clean_linker_0, # of connection points: 2
#     Edge 28, Type (0, 0), BuildingBlock: AJUNOK_clean_linker_0, # of connection points: 2
#     Edge 29, Type (0, 0), BuildingBlock: AJUNOK_clean_linker_0, # of connection points: 2
#     Edge 30, Type (0, 0), BuildingBlock: AJUNOK_clean_linker_0, # of connection points: 2
#     Edge 31, Type (0, 0), BuildingBlock: AJUNOK_clean_linker_0, # of connection points: 2
#     Edge 32, Type (0, 0), BuildingBlock: AJUNOK_clean_linker_0, # of connection points: 2
#     Edge 33, Type (0, 0), BuildingBlock: AJUNOK_clean_linker_0, # of connection points: 2
#     Edge 34, Type (0, 0), BuildingBlock: AJUNOK_clean_linker_0, # of connection points: 2
#     Edge 35, Type (0, 0), BuildingBlock: AJUNOK_clean_linker_0, # of connection points: 2
#     Edge 36, Type (0, 0), BuildingBlock: AJUNOK_clean_linker_0, # of connection points: 2
#     Edge 37, Type (0, 0), BuildingBlock: AJUNOK_clean_linker_0, # of connection points: 2
#     Edge 38, Type (0, 0), BuildingBlock: AJUNOK_clean_linker_0, # of connection points: 2
#     Edge 39, Type (0, 0), BuildingBlock: AJUNOK_clean_linker_0, # of connection points: 2
#     Edge 40, Type (0, 0), BuildingBlock: AJUNOK_clean_linker_0, # of connection points: 2
#     Edge 41, Type (0, 0), BuildingBlock: AJUNOK_clean_linker_0, # of connection points: 2
# Relax obj value: 0.116
# Max RMSD: 0.102
# Mean RMSD: 0.102
data_MOF--net-wjx--node1-XOMCOT_clean_sbu_1--edge1-AJUNOK_clean_linker_0
_symmetry_space_group_name_H-M    P1
_symmetry_Int_Tables_number       1
_symmetry_cell_setting            triclinic
loop_
_symmetry_equiv_pos_as_xyz
'x, y, z'
_cell_length_a     54.327827
_cell_length_b     54.262705
_cell_length_c     13.56536
_cell_angle_alpha  89.98633
_cell_angle_beta   89.855705
_cell_angle_gamma 119.98219
loop_
_atom_site_label
_atom_site_type_symbol
_atom_site_fract_x
_atom_site_fract_y
_atom_site_fract_z
_atom_type_partial_charge
C0 C 0.17156 0.44986 0.24932 0.0
C1 C 0.17282 0.44947 0.35064 0.0
N2 N 0.14632 0.43898 0.38636 0.0
N3 N 0.14432 0.4394 0.22094 0.0
C4 C 0.12953 0.43323 0.30659 0.0
H5 H 0.18958 0.4578 0.20014 0.0
Co6 Co 0.13085 0.43578 0.09127 0.0
C7 C 0.07617 0.3802 0.09862 0.0
O8 O 0.0816 0.37093 1.01657 0.0
N9 N 0.1173 0.43253 0.96068 0.0
C10 C 0.08966 0.42689 0.83155 0.0
C11 C 0.09146 0.42789 0.93289 0.0
C12 C 0.13094 0.43489 0.87444 0.0
N13 N 0.11451 0.43108 0.79483 0.0
O14 O 0.14505 0.41013 0.06201 0.0
H15 H 0.07483 0.42526 0.98317 0.0
H16 H 0.1528 0.44016 0.86915 0.0
O17 O 0.09432 0.40448 0.13288 0.0
C18 C 0.17036 0.42361 0.02797 0.0
O19 O 0.18238 0.45126 1.01536 0.0
N20 N 0.1195 0.46256 0.1195 0.0
C21 C 0.11233 0.50846 0.16985 0.0
C22 C 0.09201 0.48068 0.19749 0.0
C23 C 0.09589 0.4579 0.17113 0.0
C24 C 0.13906 0.48932 0.09 0.0
C25 C 0.1358 0.51259 0.11375 0.0
H26 H 0.0802 0.4368 0.19481 0.0
H27 H 0.1577 0.49266 0.04977 0.0
H28 H 0.10687 0.42483 0.31098 0.0
H29 H 0.19185 0.4571 0.39465 0.0
H30 H 0.07138 0.42313 0.78835 0.0
H31 H 0.07341 0.47663 0.23971 0.0
H32 H 0.15197 0.53374 0.09113 0.0
C33 C 0.71568 0.16431 0.60031 0.0
C34 C 0.71803 0.16719 0.70122 0.0
N35 N 0.72007 0.14529 0.7395 0.0
N36 N 0.71625 0.14073 0.57372 0.0
C37 C 0.71959 0.13001 0.6595 0.0
H38 H 0.71256 0.17792 0.54973 0.0
Co39 Co 0.70942 0.1258 0.44499 0.0
C40 C 0.70878 0.07037 0.48139 0.0
O41 O 0.72792 0.07529 0.41324 0.0
N42 N 0.70275 0.11164 0.31421 0.0
C43 C 0.6876 0.0842 0.18033 0.0
C44 C 0.68631 0.08467 0.28185 0.0
C45 C 0.71295 0.12722 0.23047 0.0
N46 N 0.70438 0.11101 0.14843 0.0
O47 O 0.74935 0.13877 0.42985 0.0
H48 H 0.67362 0.06649 0.32855 0.0
H49 H 0.72615 0.15011 0.229 0.0
O50 O 0.70095 0.08864 0.49703 0.0
C51 C 0.76166 0.16457 0.40049 0.0
O52 O 0.74634 0.17692 0.3886 0.0
N53 N 0.67107 0.11557 0.45847 0.0
C54 C 0.61834 0.11147 0.49117 0.0
C55 C 0.62773 0.09688 0.5518 0.0
C56 C 0.65421 0.09925 0.53435 0.0
C57 C 0.66187 0.12905 0.39662 0.0
C58 C 0.63538 0.1269 0.41063 0.0
H59 H 0.66176 0.08931 0.58549 0.0
H60 H 0.67563 0.14249 0.33826 0.0
H61 H 0.72063 0.11082 0.66255 0.0
H62 H 0.71745 0.18388 0.7429 0.0
H63 H 0.67633 0.06575 0.13336 0.0
H64 H 0.61536 0.08487 0.61514 0.0
H65 H 0.6287 0.13792 0.36037 0.0
C66 C 0.56309 0.7075 0.93965 0.0
C67 C 0.5627 0.70982 0.04041 0.0
N68 N 0.58748 0.71365 0.07654 0.0
N69 N 0.58784 0.70954 0.91175 0.0
C70 C 0.60235 0.71343 0.99663 0.0
H71 H 0.54583 0.70316 0.89007 0.0
Co72 Co 0.5956 0.70361 0.78263 0.0
C73 C 0.6491 0.70053 0.80229 0.0
O74 O 0.66119 0.71645 0.72432 0.0
N75 N 0.60263 0.69724 0.65184 0.0
C76 C 0.60553 0.67544 0.51739 0.0
C77 C 0.60446 0.67478 0.61863 0.0
C78 C 0.60282 0.71132 0.56924 0.0
N79 N 0.60427 0.69836 0.48579 0.0
O80 O 0.62211 0.74384 0.77008 0.0
H81 H 0.60383 0.65825 0.66498 0.0
H82 H 0.60157 0.73051 0.57063 0.0
O83 O 0.62458 0.69559 0.8298 0.0
C84 C 0.60729 0.75544 0.74939 0.0
O85 O 0.57985 0.73893 0.73557 0.0
N86 N 0.56774 0.6652 0.79505 0.0
C87 C 0.51996 0.61149 0.82137 0.0
C88 C 0.54518 0.61931 0.87297 0.0
C89 C 0.56882 0.64639 0.85938 0.0
C90 C 0.54357 0.65792 0.74357 0.0
C91 C 0.51942 0.63121 0.75571 0.0
H92 H 0.58748 0.65245 0.9035 0.0
H93 H 0.54276 0.67341 0.69552 0.0
H94 H 0.62306 0.71521 1.00026 0.0
H95 H 0.54472 0.70697 0.08373 0.0
H96 H 0.60578 0.65941 0.47066 0.0
H97 H 0.54643 0.60482 0.92497 0.0
H98 H 0.50018 0.62652 0.71688 0.0
C99 C 0.863 0.56024 0.22445 0.0
C100 C 0.86073 0.55724 0.32529 0.0
N101 N 0.88713 0.57066 0.36384 0.0
N102 N 0.89061 0.57582 0.1993 0.0
C103 C 0.90479 0.58186 0.28553 0.0
H104 H 0.84559 0.55232 0.17268 0.0
Co105 Co 0.90309 0.58621 0.07064 0.0
C106 C 0.96501 0.62743 0.0781 0.0
O107 O 0.96735 0.61475 0.99903 0.0
N108 N 0.91439 0.59672 0.93831 0.0
C109 C 0.92559 0.62387 0.80424 0.0
C110 C 0.92486 0.62363 0.90513 0.0
C111 C 0.90875 0.58095 0.8553 0.0
N112 N 0.91516 0.59697 0.77251 0.0
O113 O 0.88582 0.61007 0.07059 0.0
H114 H 0.93018 0.64182 0.95153 0.0
H115 H 0.89913 0.55813 0.85516 0.0
O116 O 0.9403 0.61829 0.11688 0.0
C117 C 0.86378 0.60095 1.01617 0.0
O118 O 0.85648 0.57847 0.96093 0.0
N119 N 0.91661 0.56006 0.0731 0.0
C120 C 0.92067 0.5116 0.11538 0.0
C121 C 0.94048 0.53825 0.1534 0.0
C122 C 0.93791 0.56211 0.13248 0.0
C123 C 0.89766 0.5344 0.03343 0.0
C124 C 0.89971 0.51011 0.05142 0.0
H125 H 0.95165 0.58136 0.17188 0.0
H126 H 0.87947 0.53221 0.99359 0.0
H127 H 0.92765 0.59443 0.29101 0.0
H128 H 0.84105 0.54717 0.36661 0.0
H129 H 0.93161 0.64225 0.75775 0.0
H130 H 0.95666 0.54033 0.20468 0.0
H131 H 0.88411 0.49008 1.01921 0.0
C132 C 0.32858 0.8645 0.52931 0.0
C133 C 0.32687 0.8632 0.63065 0.0
N134 N 0.32038 0.88278 0.66333 0.0
N135 N 0.3234 0.88495 0.49744 0.0
C136 C 0.31773 0.89517 0.58022 0.0
H137 H 0.33492 0.85255 0.48219 0.0
Co138 Co 0.32879 0.89903 0.36814 0.0
C139 C 0.33119 0.95507 0.3999 0.0
O140 O 0.31268 0.95059 0.33021 0.0
N141 N 0.33421 0.91311 0.23783 0.0
C142 C 0.35426 0.94037 0.1061 0.0
C143 C 0.35495 0.93889 0.20709 0.0
C144 C 0.32131 0.89927 0.15367 0.0
N145 N 0.33295 0.91546 0.0723 0.0
O146 O 0.28873 0.88595 0.36071 0.0
H147 H 0.3706 0.95511 0.2547 0.0
H148 H 0.30434 0.87742 0.15127 0.0
O149 O 0.33789 0.93613 0.41894 0.0
C150 C 0.27615 0.86018 0.33116 0.0
O151 O 0.2916 0.84842 0.31022 0.0
N152 N 0.36743 0.90925 0.37506 0.0
C153 C 0.42063 0.91329 0.39534 0.0
C154 C 0.41087 0.92559 0.46526 0.0
C155 C 0.38438 0.92366 0.45311 0.0
C156 C 0.3769 0.89799 0.3048 0.0
C157 C 0.40375 0.90066 0.31171 0.0
H158 H 0.37672 0.9321 0.50998 0.0
H159 H 0.36324 0.88614 0.24409 0.0
H160 H 0.31236 0.91181 0.57881 0.0
H161 H 0.33178 0.84995 0.67676 0.0
H162 H 0.36946 0.95786 0.06103 0.0
H163 H 0.42292 0.9355 0.53132 0.0
H164 H 0.41074 0.89211 0.25294 0.0
C165 C 0.45302 0.29693 0.88707 0.0
C166 C 0.45076 0.29334 0.9876 0.0
N167 N 0.43313 0.30218 1.02168 0.0
N168 N 0.43701 0.30808 0.85749 0.0
C169 C 0.42507 0.311 0.94104 0.0
H170 H 0.46657 0.29299 0.83895 0.0
Co171 Co 0.43742 0.31999 0.72896 0.0
C172 C 0.40034 0.34589 0.73186 0.0
O173 O 0.41883 0.36654 0.67572 0.0
N174 N 0.43865 0.33204 0.59391 0.0
C175 C 0.4526 0.35764 0.45481 0.0
C176 C 0.45527 0.35838 0.55524 0.0
C177 C 0.42583 0.3158 0.51317 0.0
N178 N 0.43435 0.33077 0.42787 0.0
O179 O 0.41168 0.28071 0.69455 0.0
H180 H 0.46881 0.37746 0.59621 0.0
H181 H 0.41071 0.2933 0.51597 0.0
O182 O 0.40503 0.32601 0.75906 0.0
C183 C 0.42457 0.2686 0.65751 0.0
O184 O 0.45158 0.28436 0.63453 0.0
N185 N 0.46508 0.35709 0.76821 0.0
C186 C 0.5126 0.40676 0.83707 0.0
C187 C 0.4851 0.39909 0.86952 0.0
C188 C 0.46163 0.37398 0.83518 0.0
C189 C 0.49169 0.36386 0.73812 0.0
C190 C 0.51555 0.38895 0.76887 0.0
H191 H 0.44104 0.36766 0.86627 0.0
H192 H 0.49433 0.34963 0.68901 0.0
H193 H 0.41174 0.32056 0.94357 0.0
H194 H 0.46279 0.28663 0.03254 0.0
H195 H 0.46424 0.37536 0.40493 0.0
H196 H 0.48183 0.41182 0.92381 0.0
H197 H 0.53617 0.39415 0.73978 0.0
C198 C 0.59902 0.86289 0.44713 0.0
C199 C 0.60313 0.86421 0.34678 0.0
N200 N 0.60982 0.8904 0.31556 0.0
N201 N 0.60313 0.88814 0.47973 0.0
C202 C 0.60969 0.90449 0.39765 0.0
H203 H 0.5921 0.8442 0.49256 0.0
Co204 Co 0.59662 0.89523 0.60946 0.0
C205 C 0.63312 0.95741 0.64189 0.0
O206 O 0.614 0.95602 0.70448 0.0
N207 N 0.58954 0.90143 0.74345 0.0
C208 C 0.56825 0.90248 0.88273 0.0
C209 C 0.56568 0.89946 0.78239 0.0
C210 C 0.60638 0.90592 0.82323 0.0
N211 N 0.59379 0.90635 0.9092 0.0
O212 O 0.62111 0.88118 0.65589 0.0
H213 H 0.54694 0.8954 0.74235 0.0
H214 H 0.62745 0.90864 0.81794 0.0
O215 O 0.6289 0.93469 0.59813 0.0
C216 C 0.60555 0.85638 0.69265 0.0
O217 O 0.57791 0.84598 0.69581 0.0
N218 N 0.57005 0.90506 0.5615 0.0
C219 C 0.52316 0.9082 0.49183 0.0
C220 C 0.55075 0.93188 0.48624 0.0
C221 C 0.57397 0.92988 0.52116 0.0
C222 C 0.54369 0.88153 0.56228 0.0
C223 C 0.51993 0.88287 0.53167 0.0
H224 H 0.5949 0.94807 0.51248 0.0
H225 H 0.54098 0.86177 0.59147 0.0
H226 H 0.61332 0.92598 0.39723 0.0
H227 H 0.59952 0.84662 0.29964 0.0
H228 H 0.55185 0.90057 0.93287 0.0
H229 H 0.55444 0.95171 0.45399 0.0
H230 H 0.4992 0.86422 0.54124 0.0
C231 C 0.70319 0.54922 0.847 0.0
C232 C 0.70283 0.54703 0.74581 0.0
N233 N 0.70756 0.5719 0.70734 0.0
N234 N 0.70788 0.57526 0.87198 0.0
C235 C 0.71098 0.58878 0.78526 0.0
H236 H 0.69938 0.53261 0.89926 0.0
Co237 Co 0.70658 0.58651 1.00049 0.0
C238 C 0.68216 0.62425 0.98594 0.0
O239 O 0.66578 0.60949 0.06014 0.0
N240 N 0.7065 0.59819 0.13315 0.0
C241 C 0.71927 0.62733 0.26276 0.0
C242 C 0.71867 0.6257 0.16177 0.0
C243 C 0.70109 0.5837 0.2194 0.0
N244 N 0.70822 0.60084 0.29926 0.0
O245 O 0.74742 0.61077 0.99758 0.0
H246 H 0.72796 0.64376 0.11231 0.0
H247 H 0.69478 0.56152 0.22442 0.0
O248 O 0.70029 0.61776 0.95187 0.0
C249 C 0.76 0.60074 0.04954 0.0
O250 O 0.74447 0.57718 0.0995 0.0
N251 N 0.66681 0.55988 1.0011 0.0
C252 C 0.61377 0.51102 0.96819 0.0
C253 C 0.62245 0.53581 0.91253 0.0
C254 C 0.64907 0.55984 0.92931 0.0
C255 C 0.65846 0.53596 0.05621 0.0
C256 C 0.63175 0.51181 0.04373 0.0
H257 H 0.65626 0.57736 0.87817 0.0
H258 H 0.67344 0.53428 0.10334 0.0
H259 H 0.71461 0.61017 0.77888 0.0
H260 H 0.69915 0.52853 0.70382 0.0
H261 H 0.72815 0.64666 0.30585 0.0
H262 H 0.6097 0.53605 0.85169 0.0
H263 H 0.62602 0.49333 0.0893 0.0
C264 C 0.16364 0.69891 0.15486 0.0
C265 C 0.16573 0.69899 0.05374 0.0
N266 N 0.14669 0.70532 1.01519 0.0
N267 N 0.14312 0.70474 0.18026 0.0
C268 C 0.13331 0.70875 0.09374 0.0
H269 H 0.17572 0.69405 0.20672 0.0
Co270 Co 0.13133 0.70483 0.30906 0.0
C271 C 0.06949 0.68495 0.29643 0.0
O272 O 0.06572 0.67088 0.37914 0.0
N273 N 0.12036 0.70601 0.44143 0.0
C274 C 0.10707 0.72147 0.57256 0.0
C275 C 0.108 0.7211 0.47135 0.0
C276 C 0.12769 0.69837 0.5268 0.0
N277 N 0.11972 0.7074 0.60713 0.0
O278 O 0.14914 0.74585 0.30252 0.0
H279 H 0.10126 0.73234 0.4225 0.0
H280 H 0.14007 0.68789 0.53117 0.0
O281 O 0.09458 0.69965 0.26007 0.0
C282 C 0.17153 0.75876 0.35512 0.0
O283 O 0.17887 0.74362 0.41038 0.0
N284 N 0.11677 0.6649 0.31321 0.0
C285 C 0.10904 0.6103 0.28432 0.0
C286 C 0.09196 0.61891 0.23527 0.0
C287 C 0.09641 0.64634 0.2495 0.0
C288 C 0.13364 0.65678 0.36112 0.0
C289 C 0.12979 0.62944 0.34936 0.0
H290 H 0.08514 0.65316 0.20189 0.0
H291 H 0.15201 0.67235 0.40108 0.0
H292 H 0.11654 0.71392 0.0882 0.0
H293 H 0.17943 0.69364 1.01219 0.0
H294 H 0.09939 0.73276 0.61731 0.0
H295 H 0.07632 0.60508 0.18196 0.0
H296 H 0.14437 0.62413 0.38493 0.0
C297 C 0.46081 0.16563 0.4643 0.0
C298 C 0.46305 0.16781 0.36329 0.0
N299 N 0.44991 0.14134 0.32488 0.0
N300 N 0.44598 0.13797 0.48971 0.0
C301 C 0.43959 0.12369 0.40346 0.0
H302 H 0.46859 0.18309 0.51601 0.0
Co303 Co 0.43579 0.12529 0.61806 0.0
C304 C 0.39848 0.06301 0.60704 0.0
O305 O 0.41189 0.06173 0.68569 0.0
N306 N 0.42504 0.11335 0.75017 0.0
C307 C 0.39718 0.10058 0.88293 0.0
C308 C 0.39787 0.10142 0.78194 0.0
C309 C 0.44047 0.11953 0.83408 0.0
N310 N 0.42403 0.1123 0.91608 0.0
O311 O 0.41049 0.14086 0.61753 0.0
H312 H 0.37973 0.09523 0.73453 0.0
H313 H 0.4633 0.13006 0.83551 0.0
O314 O 0.40539 0.08747 0.57044 0.0
C315 C 0.41947 0.16288 0.67226 0.0
O316 O 0.44244 0.17076 0.72513 0.0
N317 N 0.46352 0.11383 0.6169 0.0
C318 C 0.51339 0.11136 0.58892 0.0
C319 C 0.48795 0.09158 0.54354 0.0
C320 C 0.4634 0.09345 0.557 0.0
C321 C 0.48816 0.13322 0.66129 0.0
C322 C 0.51305 0.1319 0.65074 0.0
H323 H 0.44517 0.07975 0.51291 0.0
H324 H 0.48902 0.151 0.70023 0.0
H325 H 0.42727 0.10077 0.39811 0.0
H326 H 0.47241 0.18749 0.32192 0.0
H327 H 0.37844 0.0936 0.92844 0.0
H328 H 0.48742 0.07587 0.49298 0.0
H329 H 0.53216 0.14762 0.68757 0.0
C330 C 0.30924 0.45949 0.79931 0.0
C331 C 0.30782 0.46083 0.69828 0.0
N332 N 0.31362 0.44153 0.65889 0.0
N333 N 0.31582 0.43938 0.82367 0.0
C334 C 0.31842 0.42886 0.73631 0.0
H335 H 0.30651 0.47296 0.85166 0.0
Co336 Co 0.32189 0.43161 0.95272 0.0
C337 C 0.31917 0.37605 0.88796 0.0
O338 O 0.29167 0.35883 0.89702 0.0
N339 N 0.32796 0.42419 0.08358 0.0
C340 C 0.3394 0.40821 0.21685 0.0
C341 C 0.33945 0.40859 0.11561 0.0
C342 C 0.32165 0.43351 0.16727 0.0
N343 N 0.32805 0.42379 0.24963 0.0
O344 O 0.28165 0.40511 0.96585 0.0
H345 H 0.34763 0.39815 0.06922 0.0
H346 H 0.31332 0.44788 0.16774 0.0
O347 O 0.32994 0.40247 0.90701 0.0
C348 C 0.26932 0.41822 0.99871 0.0
O349 O 0.28493 0.44535 1.01989 0.0
N350 N 0.36042 0.45926 0.93996 0.0
C351 C 0.4142 0.50643 0.90686 0.0
C352 C 0.40534 0.48094 0.85556 0.0
C353 C 0.3782 0.4578 0.87176 0.0
C354 C 0.36897 0.48351 0.99302 0.0
C355 C 0.39585 0.50734 0.97796 0.0
H356 H 0.37119 0.43934 0.82557 0.0
H357 H 0.35438 0.4848 0.04424 0.0
H358 H 0.3243 0.41263 0.72882 0.0
H359 H 0.30402 0.47569 0.65702 0.0
H360 H 0.34695 0.39706 0.26278 0.0
H361 H 0.41896 0.47909 0.80119 0.0
H362 H 0.40171 0.52667 1.01859 0.0
C363 C 0.87026 0.32065 0.13964 0.0
C364 C 0.86795 0.32002 0.0385 0.0
N365 N 0.88644 0.31284 1.00073 0.0
N366 N 0.89049 0.31442 0.16538 0.0
C367 C 0.89966 0.30932 0.07921 0.0
H368 H 0.85879 0.32645 0.19117 0.0
Co369 Co 0.9037 0.31671 0.2937 0.0
C370 C 0.96559 0.34158 0.27548 0.0
O371 O 0.96722 0.35838 0.34809 0.0
N372 N 0.91582 0.31748 0.42646 0.0
C373 C 0.93243 0.30452 0.55498 0.0
C374 C 0.93217 0.30636 0.45432 0.0
C375 C 0.90523 0.32084 0.5131 0.0
N376 N 0.91504 0.31314 0.5922 0.0
O377 O 0.8872 0.2759 0.29596 0.0
H378 H 0.94203 0.29829 0.40456 0.0
H379 H 0.8886 0.32613 0.51854 0.0
O380 O 0.94101 0.3228 0.24346 0.0
C381 C 0.86384 0.26501 0.34394 0.0
O382 O 0.85546 0.28204 0.3804 0.0
N383 N 0.91712 0.35663 0.28992 0.0
C384 C 0.922 0.40967 0.24971 0.0
C385 C 0.93664 0.39961 0.19271 0.0
C386 C 0.93369 0.37302 0.21314 0.0
C387 C 0.90331 0.36651 0.34756 0.0
C388 C 0.90604 0.3932 0.33046 0.0
H389 H 0.94279 0.36471 0.16124 0.0
H390 H 0.88803 0.35282 0.4014 0.0
H391 H 0.91651 0.30432 0.07372 0.0
H392 H 0.85413 0.32495 0.99587 0.0
H393 H 0.94388 0.29655 0.59698 0.0
H394 H 0.94869 0.41124 0.12832 0.0
H395 H 0.89448 0.40015 0.37712 0.0
C396 C 0.04446 0.36997 0.24417 0.0
C397 C 0.0474 0.36526 0.14411 0.0
C398 C 0.01773 0.3607 0.28648 0.0
C399 C 0.99262 0.34626 0.23076 0.0
H400 H 0.06305 0.38177 0.28984 0.0
H401 H 0.0169 0.3658 0.36318 0.0
S402 S 0.98831 0.32639 0.9671 0.0
N403 N 0.0227 0.34342 0.99136 0.0
N404 N 0.97232 0.32591 0.0714 0.0
C405 C 0.99503 0.3398 0.132 0.0
C406 C 0.02244 0.34932 0.08856 0.0
C407 C 0.68822 0.01715 0.47919 0.0
C408 C 0.69278 0.04184 0.52938 0.0
C409 C 0.67001 0.98976 0.51782 0.0
C410 C 0.65592 0.98606 0.60871 0.0
H411 H 0.69768 0.0189 0.40729 0.0
H412 H 0.66604 0.97144 0.47413 0.0
S413 S 0.66419 0.04384 0.77654 0.0
N414 N 0.68374 0.06051 0.67933 0.0
N415 N 0.65062 1.00967 0.75303 0.0
C416 C 0.66187 1.01063 0.66242 0.0
C417 C 0.67995 0.03832 0.62248 0.0
C418 C 0.65914 0.65419 0.98848 0.0
C419 C 0.67752 0.64668 0.94065 0.0
C420 C 0.6513 0.67262 0.94494 0.0
C421 C 0.66144 0.68459 0.8513 0.0
H422 H 0.65001 0.64522 0.05972 0.0
H423 H 0.6365 0.67691 0.98442 0.0
S424 S 0.71197 0.67389 0.6973 0.0
N425 N 0.70727 0.65439 0.79662 0.0
N426 N 0.69233 0.68894 0.71407 0.0
C427 C 0.68097 0.67849 0.80428 0.0
C428 C 0.68903 0.65959 0.84902 0.0
C429 C 0.04378 0.67102 0.13568 0.0
C430 C 0.04405 0.6775 0.23593 0.0
C431 C 0.01812 0.65649 0.08376 0.0
C432 C 0.99169 0.64808 0.12967 0.0
H433 H 0.06322 0.67525 0.09883 0.0
H434 H 0.01902 0.65052 1.00822 0.0
S435 S 0.98222 0.66717 0.38408 0.0
N436 N 0.01667 0.67918 0.3746 0.0
N437 N 0.96839 0.65254 0.27657 0.0
C438 C 0.99212 0.65732 0.22692 0.0
C439 C 0.0183 0.67181 0.28013 0.0
C440 C 0.37779 1.01061 0.58772 0.0
C441 C 0.37937 0.03595 0.55429 0.0
C442 C 0.36193 0.98487 0.53783 0.0
C443 C 0.34634 0.98285 0.45271 0.0
H444 H 0.38948 1.01058 0.65222 0.0
H445 H 0.36225 0.96639 0.5661 0.0
S446 S 0.34294 0.04274 0.33352 0.0
N447 N 0.36381 0.05741 0.42973 0.0
N448 N 0.33341 1.00867 0.33657 0.0
C449 C 0.34721 1.00786 0.41878 0.0
C450 C 0.36382 0.03442 0.4693 0.0
C451 C 0.3682 0.38355 0.86796 0.0
C452 C 0.33867 0.36556 0.85629 0.0
C453 C 0.38772 0.3763 0.83041 0.0
C454 C 0.3787 0.35035 0.78199 0.0
H455 H 0.37656 0.40377 0.90524 0.0
H456 H 0.41019 0.39145 0.83801 0.0
S457 S 0.30414 0.29407 0.74 0.0
N458 N 0.30144 0.31948 0.79745 0.0
N459 N 0.33853 0.30557 0.72959 0.0
C460 C 0.3494 0.33125 0.7746 0.0
C461 C 0.32929 0.33888 0.81137 0.0
C462 C 0.11099 0.44271 0.62055 0.0
C463 C 0.12216 0.43214 0.69199 0.0
C464 C 0.11863 0.44451 0.52066 0.0
C465 C 0.13791 0.43604 0.48852 0.0
H466 H 0.09665 0.45018 0.64222 0.0
H467 H 0.10992 0.45321 0.46846 0.0
S468 S 0.17067 0.40379 0.64261 0.0
N469 N 0.15152 0.41062 0.72088 0.0
N470 N 0.16638 0.41482 0.53395 0.0
C471 C 0.14874 0.42487 0.55837 0.0
C472 C 0.14075 0.42272 0.65983 0.0
C473 C 0.70726 0.14912 0.91321 0.0
C474 C 0.71833 0.13773 0.84358 0.0
C475 C 0.70352 0.14093 1.01289 0.0
C476 C 0.71005 0.12051 0.04731 0.0
H477 H 0.70061 0.164 0.8908 0.0
H478 H 0.69457 0.14993 0.06299 0.0
S479 S 0.74225 0.08596 0.90254 0.0
N480 N 0.73849 0.1067 0.82219 0.0
N481 N 0.72958 0.09022 1.00792 0.0
C482 C 0.72158 0.10927 0.98047 0.0
C483 C 0.72617 0.11811 0.87923 0.0
C484 C 0.61384 0.69628 0.30819 0.0
C485 C 0.60233 0.70534 0.38384 0.0
C486 C 0.60986 0.7 0.2083 0.0
C487 C 0.59432 0.71314 0.17929 0.0
H488 H 0.62567 0.68571 0.32612 0.0
H489 H 0.61813 0.69151 0.15355 0.0
S490 S 0.56226 0.74365 0.34643 0.0
N491 N 0.57579 0.72952 0.42116 0.0
N492 N 0.56985 0.73789 0.23394 0.0
C493 C 0.58401 0.72373 0.25369 0.0
C494 C 0.58768 0.71958 0.35564 0.0
C495 C 0.92644 0.60644 0.59582 0.0
C496 C 0.90914 0.58798 0.67089 0.0
C497 C 0.9194 0.60023 0.49637 0.0
C498 C 0.8949 0.57518 0.4669 0.0
H499 H 0.94535 0.62627 0.61416 0.0
H500 H 0.93276 0.61575 0.44228 0.0
S501 S 0.84356 0.51824 0.63363 0.0
N502 N 0.86674 0.54279 0.70857 0.0
N503 N 0.85447 0.53042 0.52105 0.0
C504 C 0.87803 0.55577 0.54085 0.0
C505 C 0.88498 0.56228 0.64281 0.0
C506 C 0.31828 0.87882 0.94169 0.0
C507 C 0.32667 0.90685 0.97021 0.0
C508 C 0.31514 0.87095 0.84182 0.0
C509 C 0.32032 0.89074 0.76573 0.0
H510 H 0.31513 0.86304 0.99666 0.0
H511 H 0.3091 0.84921 0.82422 0.0
S512 S 0.33944 0.96623 0.80316 0.0
N513 N 0.33705 0.95367 0.9156 0.0
N514 N 0.33241 0.93951 0.7286 0.0
C515 C 0.3274 0.91858 0.79401 0.0
C516 C 0.33034 0.92646 0.89584 0.0
C517 C 0.42804 0.33116 0.15218 0.0
C518 C 0.42871 0.30657 0.12373 0.0
C519 C 0.42823 0.33803 0.25197 0.0
C520 C 0.42901 0.32059 0.3274 0.0
H521 H 0.42891 0.34602 0.09712 0.0
H522 H 0.4288 0.35772 0.27034 0.0
S523 S 0.42792 0.25224 0.29145 0.0
N524 N 0.42729 0.26329 0.17867 0.0
N525 N 0.42867 0.27665 0.36603 0.0
C526 C 0.42807 0.29513 0.29991 0.0
C527 C 0.42775 0.28807 0.1982 0.0
C528 C 0.59247 0.91714 0.08573 0.0
C529 C 0.60295 0.90699 1.01002 0.0
C530 C 0.59625 0.91321 0.18561 0.0
C531 C 0.61064 0.89888 0.21415 0.0
H532 H 0.58028 0.92733 0.06766 0.0
H533 H 0.58644 0.92 0.24069 0.0
S534 S 0.64667 0.87262 0.0475 0.0
N535 N 0.63164 0.88517 0.97244 0.0
N536 N 0.63868 0.8779 0.16012 0.0
C537 C 0.62309 0.89055 0.14001 0.0
C538 C 0.61939 0.89467 0.03805 0.0
C539 C 0.72817 0.60519 0.56748 0.0
C540 C 0.70742 0.57868 0.60474 0.0
C541 C 0.72838 0.6122 0.4678 0.0
C542 C 0.70759 0.5931 0.40168 0.0
H543 H 0.74461 0.62043 0.61562 0.0
H544 H 0.74522 0.63263 0.44224 0.0
S545 S 0.64679 0.5221 0.46603 0.0
N546 N 0.6646 0.53391 0.57009 0.0
N547 N 0.66448 0.54725 0.38336 0.0
C548 C 0.68633 0.56672 0.43891 0.0
C549 C 0.68635 0.55949 0.54022 0.0
C550 C 0.10579 0.69766 0.78208 0.0
C551 C 0.12675 0.70618 0.70856 0.0
C552 C 0.11243 0.69743 0.88192 0.0
C553 C 0.1404 0.70609 0.91207 0.0
H554 H 0.08406 0.69094 0.76187 0.0
H555 H 0.09545 0.6901 0.9357 0.0
S556 S 0.20353 0.7335 0.74784 0.0
N557 N 0.17674 0.72517 0.67219 0.0
N558 N 0.18957 0.72554 0.85962 0.0
C559 C 0.16167 0.71529 0.8389 0.0
C560 C 0.15477 0.71516 0.73725 0.0
C561 C 0.42049 0.10841 0.19283 0.0
C562 C 0.44518 0.13343 0.22193 0.0
C563 C 0.41442 0.10123 0.09322 0.0
C564 C 0.43261 0.11881 1.01797 0.0
H565 H 0.40517 0.09459 0.2471 0.0
H566 H 0.39497 0.0819 0.07493 0.0
S567 S 0.5011 0.18588 0.05468 0.0
N568 N 0.48919 0.1747 0.16727 0.0
N569 N 0.47692 0.1622 0.98007 0.0
C570 C 0.45781 0.14355 0.04591 0.0
C571 C 0.46423 0.15064 0.14773 0.0
C572 C 0.33923 0.43325 0.52421 0.0
C573 C 0.31681 0.43723 0.55582 0.0
C574 C 0.34293 0.42933 0.42426 0.0
C575 C 0.32422 0.42896 0.35169 0.0
H576 H 0.35431 0.43362 0.57711 0.0
H577 H 0.3608 0.42681 0.40367 0.0
S578 S 0.26095 0.43664 0.39793 0.0
N579 N 0.27509 0.4397 0.50798 0.0
N580 N 0.28156 0.43174 0.32025 0.0
C581 C 0.30151 0.43269 0.38271 0.0
C582 C 0.29793 0.43694 0.48464 0.0
C583 C 0.90146 0.33305 0.73253 0.0
C584 C 0.90681 0.31207 0.69431 0.0
C585 C 0.89451 0.33301 0.8324 0.0
C586 C 0.89277 0.31206 0.89788 0.0
H587 H 0.90325 0.34996 0.68529 0.0
H588 H 0.89109 0.34987 0.85916 0.0
S589 S 0.90121 0.25039 0.83322 0.0
N590 N 0.90709 0.26814 0.72879 0.0
N591 N 0.89475 0.26866 0.91639 0.0
C592 C 0.89734 0.29059 0.86037 0.0
C593 C 0.90415 0.29043 0.75866 0.0
C594 C 0.1112 0.55296 0.12993 0.0
C595 C 0.1096 0.53327 0.20072 0.0
C596 C 0.11015 0.57732 0.15762 0.0
C597 C 0.10788 0.58317 0.25733 0.0
H598 H 0.11344 0.54956 0.0525 0.0
H599 H 0.11193 0.59213 0.10064 0.0
S600 S 0.10282 0.53827 0.47114 0.0
N601 N 0.10533 0.52105 0.37472 0.0
N602 N 0.1036 0.56702 0.42682 0.0
C603 C 0.10604 0.56355 0.32879 0.0
C604 C 0.10676 0.53853 0.30047 0.0
C605 C 0.56676 0.08649 0.54086 0.0
C606 C 0.59173 0.11182 0.51527 0.0
C607 C 0.54159 0.0865 0.56499 0.0
C608 C 0.54046 0.11187 0.56525 0.0
H609 H 0.56657 0.06644 0.54139 0.0
H610 H 0.52291 0.0665 0.5842 0.0
S611 S 0.6 0.18397 0.50407 0.0
N612 N 0.61384 0.16307 0.49399 0.0
N613 N 0.56643 0.16292 0.53527 0.0
C614 C 0.56527 0.13733 0.53959 0.0
C615 C 0.59088 0.13734 0.51552 0.0
C616 C 0.48533 0.5745 0.9385 0.0
C617 C 0.49381 0.58371 0.84082 0.0
C618 C 0.4598 0.54938 0.95918 0.0
C619 C 0.44176 0.53238 0.88303 0.0
H620 H 0.49817 0.58718 0.99972 0.0
H621 H 0.45409 0.54327 0.0355 0.0
S622 S 0.45449 0.54668 0.61449 0.0
N623 N 0.4826 0.57325 0.66708 0.0
N624 N 0.43419 0.52666 0.70577 0.0
C625 C 0.45015 0.54116 0.78494 0.0
C626 C 0.47622 0.56666 0.76393 0.0
C627 C 0.94646 0.46035 0.18875 0.0
C628 C 0.92134 0.43576 0.21877 0.0
C629 C 0.94608 0.48466 0.15503 0.0
C630 C 0.92055 0.48534 0.14927 0.0
H631 H 0.96663 0.46085 0.19156 0.0
H632 H 0.96595 0.50299 0.13242 0.0
S633 S 0.84886 0.42664 0.21949 0.0
N634 N 0.87008 0.41354 0.23863 0.0
N635 N 0.86957 0.45947 0.17981 0.0
C636 C 0.89531 0.46097 0.17983 0.0
C637 C 0.89566 0.4362 0.21355 0.0
C638 C 0.49566 0.93421 0.48024 0.0
C639 C 0.49781 0.90995 0.45877 0.0
C640 C 0.47107 0.93541 0.45721 0.0
C641 C 0.44735 0.91227 0.41277 0.0
H642 H 0.5128 0.95222 0.51763 0.0
H643 H 0.47062 0.95461 0.4754 0.0
S644 S 0.44259 0.84412 0.3369 0.0
N645 N 0.47486 0.86312 0.3826 0.0
N646 N 0.42786 0.86418 0.3482 0.0
C647 C 0.44941 0.888 0.38959 0.0
C648 C 0.47475 0.88713 0.41049 0.0
C649 C 0.56242 0.48371 0.91532 0.0
C650 C 0.58765 0.48386 0.94052 0.0
C651 C 0.53816 0.4587 0.88368 0.0
C652 C 0.53811 0.43278 0.87564 0.0
H653 H 0.56144 0.50313 0.91957 0.0
H654 H 0.51949 0.45984 0.8633 0.0
S655 S 0.59838 0.42136 0.93511 0.0
N656 N 0.61098 0.45562 0.95418 0.0
N657 N 0.56508 0.40857 0.90074 0.0
C658 C 0.56297 0.43249 0.90281 0.0
C659 C 0.58775 0.45798 0.93378 0.0
C660 C 0.22787 0.41451 0.91259 0.0
C661 C 0.23834 0.40652 0.99376 0.0
C662 C 0.20322 0.41658 0.92076 0.0
C663 C 0.1879 0.41026 1.00979 0.0
H664 H 0.24053 0.42236 0.84596 0.0
H665 H 0.19767 0.42581 0.85996 0.0
S666 S 0.20406 0.38418 0.23902 0.0
N667 N 0.22992 0.38928 0.16242 0.0
N668 N 0.18297 0.3923 0.17673 0.0
C669 C 0.19634 0.39918 0.08787 0.0
C670 C 0.22179 0.39756 0.0801 0.0
C671 C 0.83491 0.22344 0.45132 0.0
C672 C 0.84471 0.23409 0.35587 0.0
C673 C 0.80933 0.19779 0.46597 0.0
C674 C 0.79259 0.18214 0.38559 0.0
H675 H 0.84572 0.23634 0.5151 0.0
H676 H 0.80114 0.19187 0.54038 0.0
S677 S 0.81033 0.1992 0.12128 0.0
N678 N 0.83723 0.22552 0.1801 0.0
N679 N 0.78884 0.17759 0.20755 0.0
C680 C 0.80344 0.19121 0.29001 0.0
C681 C 0.82967 0.21716 0.27509 0.0
C682 C 0.63015 0.82883 0.65525 0.0
C683 C 0.61651 0.83754 0.72377 0.0
C684 C 0.63075 0.80336 0.66957 0.0
C685 C 0.61829 0.78636 0.75369 0.0
H686 H 0.63755 0.83995 0.58561 0.0
H687 H 0.63842 0.79556 0.61028 0.0
S688 S 0.58347 0.80189 0.96017 0.0
N689 N 0.5926 0.82845 0.8821 0.0
N690 N 0.59499 0.7817 0.91073 0.0
C691 C 0.6074 0.79655 0.82692 0.0
C692 C 0.60619 0.82189 0.81153 0.0
C693 C 0.82861 0.6121 0.94158 0.0
C694 C 0.84323 0.61119 0.02599 0.0
C695 C 0.80301 0.61252 0.94943 0.0
C696 C 0.79085 0.61132 0.04207 0.0
H697 H 0.83593 0.61035 0.86893 0.0
H698 H 0.79132 0.61085 0.88278 0.0
S699 S 0.82222 0.61211 0.28532 0.0
N700 N 0.84525 0.61245 0.20478 0.0
N701 N 0.79667 0.61216 0.21967 0.0
C702 C 0.80641 0.61278 0.1268 0.0
C703 C 0.83278 0.61303 0.11878 0.0
C704 C 0.23136 0.83121 0.42382 0.0
C705 C 0.24501 0.84156 0.33271 0.0
C706 C 0.20545 0.80543 0.42972 0.0
C707 C 0.1921 0.7895 0.3446 0.0
H708 H 0.24217 0.84143 0.49159 0.0
H709 H 0.19699 0.79676 0.50197 0.0
S710 S 0.21762 0.80941 0.08772 0.0
N711 N 0.2422 0.83536 0.15516 0.0
N712 N 0.19305 0.78747 0.16601 0.0
C713 C 0.20411 0.80113 0.2525 0.0
C714 C 0.23077 0.82705 0.24668 0.0
C715 C 0.41478 0.22436 0.5699 0.0
C716 C 0.41203 0.23733 0.65581 0.0
C717 C 0.41292 0.19758 0.57302 0.0
C718 C 0.40917 0.18333 0.66306 0.0
H719 H 0.42076 0.23602 0.50128 0.0
H720 H 0.41761 0.18959 0.5066 0.0
S721 S 0.3982 0.20685 0.90761 0.0
N722 N 0.40231 0.23243 0.83154 0.0
N723 N 0.40031 0.18286 0.8387 0.0
C724 C 0.40421 0.19502 0.74818 0.0
C725 C 0.40526 0.22187 0.74432 0.0
loop_
_geom_bond_atom_site_label_1
_geom_bond_atom_site_label_2
_geom_bond_distance
_geom_bond_site_symmetry_2
_ccdc_geom_bond_type
C0 C1 1.351 . S
C0 N3 1.368 . S
C0 H5 0.931 . S
C1 C0 1.351 . S
C1 N2 1.373 . S
C1 H29 0.930 . S
N2 C1 1.373 . S
N2 C4 1.340 . S
N3 C0 1.368 . S
N3 C4 1.321 . S
N3 Co6 2.135 . S
C4 N2 1.340 . S
C4 N3 1.321 . S
C4 H28 0.930 . S
H5 C0 0.931 . S
Co6 N3 2.135 . S
Co6 N9 2.121 1_554 S
Co6 O14 2.055 . S
Co6 O17 2.039 . S
Co6 N20 2.140 . S
C7 O8 1.227 . S
C7 O17 1.265 . S
O8 C7 1.227 . S
N9 Co6 2.121 1_556 S
N9 C11 1.375 . S
N9 C12 1.313 . S
C10 C11 1.338 . S
C10 N13 1.377 . S
C10 H30 0.930 . S
C11 N9 1.375 . S
C11 C10 1.338 . S
C11 H15 0.931 . S
C12 N9 1.313 . S
C12 N13 1.344 . S
C12 H16 0.930 . S
N13 C10 1.377 . S
N13 C12 1.344 . S
O14 Co6 2.055 . S
O14 C18 1.253 . S
H15 C11 0.931 . S
H16 C12 0.930 . S
O17 Co6 2.039 . S
O17 C7 1.265 . S
C18 O14 1.253 . S
C18 O19 1.227 . S
O19 C18 1.227 . S
N20 Co6 2.140 . S
N20 C23 1.346 . S
N20 C24 1.345 . S
C21 C22 1.387 . S
C21 C25 1.391 . S
C22 C21 1.387 . S
C22 C23 1.369 . S
C22 H31 0.929 . S
C23 N20 1.346 . S
C23 C22 1.369 . S
C23 H26 0.928 . S
C24 N20 1.345 . S
C24 C25 1.371 . S
C24 H27 0.931 . S
C25 C21 1.391 . S
C25 C24 1.371 . S
C25 H32 0.930 . S
H26 C23 0.928 . S
H27 C24 0.931 . S
H28 C4 0.930 . S
H29 C1 0.930 . S
H30 C10 0.930 . S
H31 C22 0.929 . S
H32 C25 0.930 . S
C33 C34 1.351 . S
C33 N36 1.368 . S
C33 H38 0.931 . S
C34 C33 1.351 . S
C34 N35 1.373 . S
C34 H62 0.930 . S
N35 C34 1.373 . S
N35 C37 1.340 . S
N36 C33 1.368 . S
N36 C37 1.321 . S
N36 Co39 2.135 . S
C37 N35 1.340 . S
C37 N36 1.321 . S
C37 H61 0.930 . S
H38 C33 0.931 . S
Co39 N36 2.135 . S
Co39 N42 2.121 . S
Co39 O47 2.055 . S
Co39 O50 2.039 . S
Co39 N53 2.140 . S
C40 O41 1.227 . S
C40 O50 1.265 . S
O41 C40 1.227 . S
N42 Co39 2.121 . S
N42 C44 1.375 . S
N42 C45 1.313 . S
C43 C44 1.338 . S
C43 N46 1.377 . S
C43 H63 0.930 . S
C44 N42 1.375 . S
C44 C43 1.338 . S
C44 H48 0.931 . S
C45 N42 1.313 . S
C45 N46 1.344 . S
C45 H49 0.930 . S
N46 C43 1.377 . S
N46 C45 1.344 . S
O47 Co39 2.055 . S
O47 C51 1.253 . S
H48 C44 0.931 . S
H49 C45 0.930 . S
O50 Co39 2.039 . S
O50 C40 1.265 . S
C51 O47 1.253 . S
C51 O52 1.227 . S
O52 C51 1.227 . S
N53 Co39 2.140 . S
N53 C56 1.346 . S
N53 C57 1.345 . S
C54 C55 1.387 . S
C54 C58 1.391 . S
C55 C54 1.387 . S
C55 C56 1.369 . S
C55 H64 0.929 . S
C56 N53 1.346 . S
C56 C55 1.369 . S
C56 H59 0.928 . S
C57 N53 1.345 . S
C57 C58 1.371 . S
C57 H60 0.931 . S
C58 C54 1.391 . S
C58 C57 1.371 . S
C58 H65 0.930 . S
H59 C56 0.928 . S
H60 C57 0.931 . S
H61 C37 0.930 . S
H62 C34 0.930 . S
H63 C43 0.930 . S
H64 C55 0.929 . S
H65 C58 0.930 . S
C66 C67 1.351 1_556 S
C66 N69 1.368 . S
C66 H71 0.931 . S
C67 C66 1.351 1_554 S
C67 N68 1.373 . S
C67 H95 0.930 . S
N68 C67 1.373 . S
N68 C70 1.340 . S
N69 C66 1.368 . S
N69 C70 1.321 1_556 S
N69 Co72 2.135 . S
C70 N68 1.340 . S
C70 N69 1.321 1_554 S
C70 H94 0.930 1_554 S
H71 C66 0.931 . S
Co72 N69 2.135 . S
Co72 N75 2.121 . S
Co72 O80 2.055 . S
Co72 O83 2.039 . S
Co72 N86 2.140 . S
C73 O74 1.227 . S
C73 O83 1.265 . S
O74 C73 1.227 . S
N75 Co72 2.121 . S
N75 C77 1.375 . S
N75 C78 1.313 . S
C76 C77 1.338 . S
C76 N79 1.377 . S
C76 H96 0.930 . S
C77 N75 1.375 . S
C77 C76 1.338 . S
C77 H81 0.931 . S
C78 N75 1.313 . S
C78 N79 1.344 . S
C78 H82 0.930 . S
N79 C76 1.377 . S
N79 C78 1.344 . S
O80 Co72 2.055 . S
O80 C84 1.253 . S
H81 C77 0.931 . S
H82 C78 0.930 . S
O83 Co72 2.039 . S
O83 C73 1.265 . S
C84 O80 1.253 . S
C84 O85 1.227 . S
O85 C84 1.227 . S
N86 Co72 2.140 . S
N86 C89 1.346 . S
N86 C90 1.345 . S
C87 C88 1.387 . S
C87 C91 1.391 . S
C88 C87 1.387 . S
C88 C89 1.369 . S
C88 H97 0.929 . S
C89 N86 1.346 . S
C89 C88 1.369 . S
C89 H92 0.928 . S
C90 N86 1.345 . S
C90 C91 1.371 . S
C90 H93 0.931 . S
C91 C87 1.391 . S
C91 C90 1.371 . S
C91 H98 0.930 . S
H92 C89 0.928 . S
H93 C90 0.931 . S
H94 C70 0.930 1_556 S
H95 C67 0.930 . S
H96 C76 0.930 . S
H97 C88 0.929 . S
H98 C91 0.930 . S
C99 C100 1.351 . S
C99 N102 1.368 . S
C99 H104 0.931 . S
C100 C99 1.351 . S
C100 N101 1.373 . S
C100 H128 0.930 . S
N101 C100 1.373 . S
N101 C103 1.340 . S
N102 C99 1.368 . S
N102 C103 1.321 . S
N102 Co105 2.135 . S
C103 N101 1.340 . S
C103 N102 1.321 . S
C103 H127 0.930 . S
H104 C99 0.931 . S
Co105 N102 2.135 . S
Co105 N108 2.121 1_554 S
Co105 O113 2.055 . S
Co105 O116 2.039 . S
Co105 N119 2.140 . S
C106 O107 1.227 . S
C106 O116 1.265 . S
O107 C106 1.227 . S
N108 Co105 2.121 1_556 S
N108 C110 1.375 . S
N108 C111 1.313 . S
C109 C110 1.338 . S
C109 N112 1.377 . S
C109 H129 0.930 . S
C110 N108 1.375 . S
C110 C109 1.338 . S
C110 H114 0.931 . S
C111 N108 1.313 . S
C111 N112 1.344 . S
C111 H115 0.930 . S
N112 C109 1.377 . S
N112 C111 1.344 . S
O113 Co105 2.055 . S
O113 C117 1.253 . S
H114 C110 0.931 . S
H115 C111 0.930 . S
O116 Co105 2.039 . S
O116 C106 1.265 . S
C117 O113 1.253 . S
C117 O118 1.227 . S
O118 C117 1.227 . S
N119 Co105 2.140 . S
N119 C122 1.346 . S
N119 C123 1.345 . S
C120 C121 1.387 . S
C120 C124 1.391 . S
C121 C120 1.387 . S
C121 C122 1.369 . S
C121 H130 0.929 . S
C122 N119 1.346 . S
C122 C121 1.369 . S
C122 H125 0.928 . S
C123 N119 1.345 . S
C123 C124 1.371 . S
C123 H126 0.931 . S
C124 C120 1.391 . S
C124 C123 1.371 . S
C124 H131 0.930 . S
H125 C122 0.928 . S
H126 C123 0.931 . S
H127 C103 0.930 . S
H128 C100 0.930 . S
H129 C109 0.930 . S
H130 C121 0.929 . S
H131 C124 0.930 . S
C132 C133 1.351 . S
C132 N135 1.368 . S
C132 H137 0.931 . S
C133 C132 1.351 . S
C133 N134 1.373 . S
C133 H161 0.930 . S
N134 C133 1.373 . S
N134 C136 1.340 . S
N135 C132 1.368 . S
N135 C136 1.321 . S
N135 Co138 2.135 . S
C136 N134 1.340 . S
C136 N135 1.321 . S
C136 H160 0.930 . S
H137 C132 0.931 . S
Co138 N135 2.135 . S
Co138 N141 2.121 . S
Co138 O146 2.055 . S
Co138 O149 2.039 . S
Co138 N152 2.140 . S
C139 O140 1.227 . S
C139 O149 1.265 . S
O140 C139 1.227 . S
N141 Co138 2.121 . S
N141 C143 1.375 . S
N141 C144 1.313 . S
C142 C143 1.338 . S
C142 N145 1.377 . S
C142 H162 0.930 . S
C143 N141 1.375 . S
C143 C142 1.338 . S
C143 H147 0.931 . S
C144 N141 1.313 . S
C144 N145 1.344 . S
C144 H148 0.930 . S
N145 C142 1.377 . S
N145 C144 1.344 . S
O146 Co138 2.055 . S
O146 C150 1.253 . S
H147 C143 0.931 . S
H148 C144 0.930 . S
O149 Co138 2.039 . S
O149 C139 1.265 . S
C150 O146 1.253 . S
C150 O151 1.227 . S
O151 C150 1.227 . S
N152 Co138 2.140 . S
N152 C155 1.346 . S
N152 C156 1.345 . S
C153 C154 1.387 . S
C153 C157 1.391 . S
C154 C153 1.387 . S
C154 C155 1.369 . S
C154 H163 0.929 . S
C155 N152 1.346 . S
C155 C154 1.369 . S
C155 H158 0.928 . S
C156 N152 1.345 . S
C156 C157 1.371 . S
C156 H159 0.931 . S
C157 C153 1.391 . S
C157 C156 1.371 . S
C157 H164 0.930 . S
H158 C155 0.928 . S
H159 C156 0.931 . S
H160 C136 0.930 . S
H161 C133 0.930 . S
H162 C142 0.930 . S
H163 C154 0.929 . S
H164 C157 0.930 . S
C165 C166 1.351 1_556 S
C165 N168 1.368 . S
C165 H170 0.931 . S
C166 C165 1.351 1_554 S
C166 N167 1.373 . S
C166 H194 0.930 . S
N167 C166 1.373 . S
N167 C169 1.340 . S
N168 C165 1.368 . S
N168 C169 1.321 1_556 S
N168 Co171 2.135 . S
C169 N167 1.340 . S
C169 N168 1.321 1_554 S
C169 H193 0.930 1_554 S
H170 C165 0.931 . S
Co171 N168 2.135 . S
Co171 N174 2.121 . S
Co171 O179 2.055 . S
Co171 O182 2.039 . S
Co171 N185 2.140 . S
C172 O173 1.227 . S
C172 O182 1.265 . S
O173 C172 1.227 . S
N174 Co171 2.121 . S
N174 C176 1.375 . S
N174 C177 1.313 . S
C175 C176 1.338 . S
C175 N178 1.377 . S
C175 H195 0.930 . S
C176 N174 1.375 . S
C176 C175 1.338 . S
C176 H180 0.931 . S
C177 N174 1.313 . S
C177 N178 1.344 . S
C177 H181 0.930 . S
N178 C175 1.377 . S
N178 C177 1.344 . S
O179 Co171 2.055 . S
O179 C183 1.253 . S
H180 C176 0.931 . S
H181 C177 0.930 . S
O182 Co171 2.039 . S
O182 C172 1.265 . S
C183 O179 1.253 . S
C183 O184 1.227 . S
O184 C183 1.227 . S
N185 Co171 2.140 . S
N185 C188 1.346 . S
N185 C189 1.345 . S
C186 C187 1.387 . S
C186 C190 1.391 . S
C187 C186 1.387 . S
C187 C188 1.369 . S
C187 H196 0.929 . S
C188 N185 1.346 . S
C188 C187 1.369 . S
C188 H191 0.928 . S
C189 N185 1.345 . S
C189 C190 1.371 . S
C189 H192 0.931 . S
C190 C186 1.391 . S
C190 C189 1.371 . S
C190 H197 0.930 . S
H191 C188 0.928 . S
H192 C189 0.931 . S
H193 C169 0.930 1_556 S
H194 C166 0.930 . S
H195 C175 0.930 . S
H196 C187 0.929 . S
H197 C190 0.930 . S
C198 C199 1.351 . S
C198 N201 1.368 . S
C198 H203 0.931 . S
C199 C198 1.351 . S
C199 N200 1.373 . S
C199 H227 0.930 . S
N200 C199 1.373 . S
N200 C202 1.340 . S
N201 C198 1.368 . S
N201 C202 1.321 . S
N201 Co204 2.135 . S
C202 N200 1.340 . S
C202 N201 1.321 . S
C202 H226 0.930 . S
H203 C198 0.931 . S
Co204 N201 2.135 . S
Co204 N207 2.121 . S
Co204 O212 2.055 . S
Co204 O215 2.039 . S
Co204 N218 2.140 . S
C205 O206 1.227 . S
C205 O215 1.265 . S
O206 C205 1.227 . S
N207 Co204 2.121 . S
N207 C209 1.375 . S
N207 C210 1.313 . S
C208 C209 1.338 . S
C208 N211 1.377 . S
C208 H228 0.930 . S
C209 N207 1.375 . S
C209 C208 1.338 . S
C209 H213 0.931 . S
C210 N207 1.313 . S
C210 N211 1.344 . S
C210 H214 0.930 . S
N211 C208 1.377 . S
N211 C210 1.344 . S
O212 Co204 2.055 . S
O212 C216 1.253 . S
H213 C209 0.931 . S
H214 C210 0.930 . S
O215 Co204 2.039 . S
O215 C205 1.265 . S
C216 O212 1.253 . S
C216 O217 1.227 . S
O217 C216 1.227 . S
N218 Co204 2.140 . S
N218 C221 1.346 . S
N218 C222 1.345 . S
C219 C220 1.387 . S
C219 C223 1.391 . S
C220 C219 1.387 . S
C220 C221 1.369 . S
C220 H229 0.929 . S
C221 N218 1.346 . S
C221 C220 1.369 . S
C221 H224 0.928 . S
C222 N218 1.345 . S
C222 C223 1.371 . S
C222 H225 0.931 . S
C223 C219 1.391 . S
C223 C222 1.371 . S
C223 H230 0.930 . S
H224 C221 0.928 . S
H225 C222 0.931 . S
H226 C202 0.930 . S
H227 C199 0.930 . S
H228 C208 0.930 . S
H229 C220 0.929 . S
H230 C223 0.930 . S
C231 C232 1.351 . S
C231 N234 1.368 . S
C231 H236 0.931 . S
C232 C231 1.351 . S
C232 N233 1.373 . S
C232 H260 0.930 . S
N233 C232 1.373 . S
N233 C235 1.340 . S
N234 C231 1.368 . S
N234 C235 1.321 . S
N234 Co237 2.135 . S
C235 N233 1.340 . S
C235 N234 1.321 . S
C235 H259 0.930 . S
H236 C231 0.931 . S
Co237 N234 2.135 . S
Co237 N240 2.121 1_556 S
Co237 O245 2.055 . S
Co237 O248 2.039 . S
Co237 N251 2.140 . S
C238 O239 1.227 . S
C238 O248 1.265 . S
O239 C238 1.227 . S
N240 Co237 2.121 1_554 S
N240 C242 1.375 . S
N240 C243 1.313 . S
C241 C242 1.338 . S
C241 N244 1.377 . S
C241 H261 0.930 . S
C242 N240 1.375 . S
C242 C241 1.338 . S
C242 H246 0.931 . S
C243 N240 1.313 . S
C243 N244 1.344 . S
C243 H247 0.930 . S
N244 C241 1.377 . S
N244 C243 1.344 . S
O245 Co237 2.055 . S
O245 C249 1.253 . S
H246 C242 0.931 . S
H247 C243 0.930 . S
O248 Co237 2.039 . S
O248 C238 1.265 . S
C249 O245 1.253 . S
C249 O250 1.227 . S
O250 C249 1.227 . S
N251 Co237 2.140 . S
N251 C254 1.346 . S
N251 C255 1.345 . S
C252 C253 1.387 . S
C252 C256 1.391 . S
C253 C252 1.387 . S
C253 C254 1.369 . S
C253 H262 0.929 . S
C254 N251 1.346 . S
C254 C253 1.369 . S
C254 H257 0.928 . S
C255 N251 1.345 . S
C255 C256 1.371 . S
C255 H258 0.931 . S
C256 C252 1.391 . S
C256 C255 1.371 . S
C256 H263 0.930 . S
H257 C254 0.928 . S
H258 C255 0.931 . S
H259 C235 0.930 . S
H260 C232 0.930 . S
H261 C241 0.930 . S
H262 C253 0.929 . S
H263 C256 0.930 . S
C264 C265 1.351 1_554 S
C264 N267 1.368 . S
C264 H269 0.931 . S
C265 C264 1.351 1_556 S
C265 N266 1.373 . S
C265 H293 0.930 . S
N266 C265 1.373 . S
N266 C268 1.340 . S
N267 C264 1.368 . S
N267 C268 1.321 1_554 S
N267 Co270 2.135 . S
C268 N266 1.340 . S
C268 N267 1.321 1_556 S
C268 H292 0.930 1_556 S
H269 C264 0.931 . S
Co270 N267 2.135 . S
Co270 N273 2.121 . S
Co270 O278 2.055 . S
Co270 O281 2.039 . S
Co270 N284 2.140 . S
C271 O272 1.227 . S
C271 O281 1.265 . S
O272 C271 1.227 . S
N273 Co270 2.121 . S
N273 C275 1.375 . S
N273 C276 1.313 . S
C274 C275 1.338 . S
C274 N277 1.377 . S
C274 H294 0.930 . S
C275 N273 1.375 . S
C275 C274 1.338 . S
C275 H279 0.931 . S
C276 N273 1.313 . S
C276 N277 1.344 . S
C276 H280 0.930 . S
N277 C274 1.377 . S
N277 C276 1.344 . S
O278 Co270 2.055 . S
O278 C282 1.253 . S
H279 C275 0.931 . S
H280 C276 0.930 . S
O281 Co270 2.039 . S
O281 C271 1.265 . S
C282 O278 1.253 . S
C282 O283 1.227 . S
O283 C282 1.227 . S
N284 Co270 2.140 . S
N284 C287 1.346 . S
N284 C288 1.345 . S
C285 C286 1.387 . S
C285 C289 1.391 . S
C286 C285 1.387 . S
C286 C287 1.369 . S
C286 H295 0.929 . S
C287 N284 1.346 . S
C287 C286 1.369 . S
C287 H290 0.928 . S
C288 N284 1.345 . S
C288 C289 1.371 . S
C288 H291 0.931 . S
C289 C285 1.391 . S
C289 C288 1.371 . S
C289 H296 0.930 . S
H290 C287 0.928 . S
H291 C288 0.931 . S
H292 C268 0.930 1_554 S
H293 C265 0.930 . S
H294 C274 0.930 . S
H295 C286 0.929 . S
H296 C289 0.930 . S
C297 C298 1.351 . S
C297 N300 1.368 . S
C297 H302 0.931 . S
C298 C297 1.351 . S
C298 N299 1.373 . S
C298 H326 0.930 . S
N299 C298 1.373 . S
N299 C301 1.340 . S
N300 C297 1.368 . S
N300 C301 1.321 . S
N300 Co303 2.135 . S
C301 N299 1.340 . S
C301 N300 1.321 . S
C301 H325 0.930 . S
H302 C297 0.931 . S
Co303 N300 2.135 . S
Co303 N306 2.121 . S
Co303 O311 2.055 . S
Co303 O314 2.039 . S
Co303 N317 2.140 . S
C304 O305 1.227 . S
C304 O314 1.265 . S
O305 C304 1.227 . S
N306 Co303 2.121 . S
N306 C308 1.375 . S
N306 C309 1.313 . S
C307 C308 1.338 . S
C307 N310 1.377 . S
C307 H327 0.930 . S
C308 N306 1.375 . S
C308 C307 1.338 . S
C308 H312 0.931 . S
C309 N306 1.313 . S
C309 N310 1.344 . S
C309 H313 0.930 . S
N310 C307 1.377 . S
N310 C309 1.344 . S
O311 Co303 2.055 . S
O311 C315 1.253 . S
H312 C308 0.931 . S
H313 C309 0.930 . S
O314 Co303 2.039 . S
O314 C304 1.265 . S
C315 O311 1.253 . S
C315 O316 1.227 . S
O316 C315 1.227 . S
N317 Co303 2.140 . S
N317 C320 1.346 . S
N317 C321 1.345 . S
C318 C319 1.387 . S
C318 C322 1.391 . S
C319 C318 1.387 . S
C319 C320 1.369 . S
C319 H328 0.929 . S
C320 N317 1.346 . S
C320 C319 1.369 . S
C320 H323 0.928 . S
C321 N317 1.345 . S
C321 C322 1.371 . S
C321 H324 0.931 . S
C322 C318 1.391 . S
C322 C321 1.371 . S
C322 H329 0.930 . S
H323 C320 0.928 . S
H324 C321 0.931 . S
H325 C301 0.930 . S
H326 C298 0.930 . S
H327 C307 0.930 . S
H328 C319 0.929 . S
H329 C322 0.930 . S
C330 C331 1.351 . S
C330 N333 1.368 . S
C330 H335 0.931 . S
C331 C330 1.351 . S
C331 N332 1.373 . S
C331 H359 0.930 . S
N332 C331 1.373 . S
N332 C334 1.340 . S
N333 C330 1.368 . S
N333 C334 1.321 . S
N333 Co336 2.135 . S
C334 N332 1.340 . S
C334 N333 1.321 . S
C334 H358 0.930 . S
H335 C330 0.931 . S
Co336 N333 2.135 . S
Co336 N339 2.121 1_556 S
Co336 O344 2.055 . S
Co336 O347 2.039 . S
Co336 N350 2.140 . S
C337 O338 1.227 . S
C337 O347 1.265 . S
O338 C337 1.227 . S
N339 Co336 2.121 1_554 S
N339 C341 1.375 . S
N339 C342 1.313 . S
C340 C341 1.338 . S
C340 N343 1.377 . S
C340 H360 0.930 . S
C341 N339 1.375 . S
C341 C340 1.338 . S
C341 H345 0.931 . S
C342 N339 1.313 . S
C342 N343 1.344 . S
C342 H346 0.930 . S
N343 C340 1.377 . S
N343 C342 1.344 . S
O344 Co336 2.055 . S
O344 C348 1.253 . S
H345 C341 0.931 . S
H346 C342 0.930 . S
O347 Co336 2.039 . S
O347 C337 1.265 . S
C348 O344 1.253 . S
C348 O349 1.227 . S
O349 C348 1.227 . S
N350 Co336 2.140 . S
N350 C353 1.346 . S
N350 C354 1.345 . S
C351 C352 1.387 . S
C351 C355 1.391 . S
C352 C351 1.387 . S
C352 C353 1.369 . S
C352 H361 0.929 . S
C353 N350 1.346 . S
C353 C352 1.369 . S
C353 H356 0.928 . S
C354 N350 1.345 . S
C354 C355 1.371 . S
C354 H357 0.931 . S
C355 C351 1.391 . S
C355 C354 1.371 . S
C355 H362 0.930 . S
H356 C353 0.928 . S
H357 C354 0.931 . S
H358 C334 0.930 . S
H359 C331 0.930 . S
H360 C340 0.930 . S
H361 C352 0.929 . S
H362 C355 0.930 . S
C363 C364 1.351 1_554 S
C363 N366 1.368 . S
C363 H368 0.931 . S
C364 C363 1.351 1_556 S
C364 N365 1.373 . S
C364 H392 0.930 . S
N365 C364 1.373 . S
N365 C367 1.340 . S
N366 C363 1.368 . S
N366 C367 1.321 1_554 S
N366 Co369 2.135 . S
C367 N365 1.340 . S
C367 N366 1.321 1_556 S
C367 H391 0.930 1_556 S
H368 C363 0.931 . S
Co369 N366 2.135 . S
Co369 N372 2.121 . S
Co369 O377 2.055 . S
Co369 O380 2.039 . S
Co369 N383 2.140 . S
C370 O371 1.227 . S
C370 O380 1.265 . S
O371 C370 1.227 . S
N372 Co369 2.121 . S
N372 C374 1.375 . S
N372 C375 1.313 . S
C373 C374 1.338 . S
C373 N376 1.377 . S
C373 H393 0.930 . S
C374 N372 1.375 . S
C374 C373 1.338 . S
C374 H378 0.931 . S
C375 N372 1.313 . S
C375 N376 1.344 . S
C375 H379 0.930 . S
N376 C373 1.377 . S
N376 C375 1.344 . S
O377 Co369 2.055 . S
O377 C381 1.253 . S
H378 C374 0.931 . S
H379 C375 0.930 . S
O380 Co369 2.039 . S
O380 C370 1.265 . S
C381 O377 1.253 . S
C381 O382 1.227 . S
O382 C381 1.227 . S
N383 Co369 2.140 . S
N383 C386 1.346 . S
N383 C387 1.345 . S
C384 C385 1.387 . S
C384 C388 1.391 . S
C385 C384 1.387 . S
C385 C386 1.369 . S
C385 H394 0.929 . S
C386 N383 1.346 . S
C386 C385 1.369 . S
C386 H389 0.928 . S
C387 N383 1.345 . S
C387 C388 1.371 . S
C387 H390 0.931 . S
C388 C384 1.391 . S
C388 C387 1.371 . S
C388 H395 0.930 . S
H389 C386 0.928 . S
H390 C387 0.931 . S
H391 C367 0.930 1_554 S
H392 C364 0.930 . S
H393 C373 0.930 . S
H394 C385 0.929 . S
H395 C388 0.930 . S
C396 C397 1.369 . S
C396 C398 1.419 1_455 S
C396 H400 0.930 . S
C397 C396 1.369 . S
C397 C406 1.429 . S
C398 C396 1.419 1_655 S
C398 C399 1.363 . S
C398 H401 0.929 . S
C399 C398 1.363 . S
C399 C405 1.428 . S
H400 C396 0.930 . S
H401 C398 0.929 . S
S402 N403 1.613 1_656 S
S402 N404 1.610 1_556 S
N403 S402 1.613 1_454 S
N403 C406 1.350 . S
N404 S402 1.610 1_554 S
N404 C405 1.351 . S
C405 C399 1.428 . S
C405 N404 1.351 . S
C405 C406 1.434 1_655 S
C406 C397 1.429 . S
C406 N403 1.350 . S
C406 C405 1.434 1_455 S
C407 C408 1.369 . S
C407 C409 1.419 1_545 S
C407 H411 0.930 . S
C408 C407 1.369 . S
C408 C417 1.429 . S
C409 C407 1.419 1_565 S
C409 C410 1.363 . S
C409 H412 0.929 . S
C410 C409 1.363 . S
C410 C416 1.428 . S
H411 C407 0.930 . S
H412 C409 0.929 . S
S413 N414 1.613 . S
S413 N415 1.610 1_545 S
N414 S413 1.613 . S
N414 C417 1.350 . S
N415 S413 1.610 1_565 S
N415 C416 1.351 . S
C416 C410 1.428 . S
C416 N415 1.351 . S
C416 C417 1.434 1_565 S
C417 C408 1.429 . S
C417 N414 1.350 . S
C417 C416 1.434 1_545 S
C418 C419 1.369 . S
C418 C420 1.419 . S
C418 H422 0.930 . S
C419 C418 1.369 . S
C419 C428 1.429 . S
C420 C418 1.419 . S
C420 C421 1.363 . S
C420 H423 0.929 . S
C421 C420 1.363 . S
C421 C427 1.428 . S
H422 C418 0.930 . S
H423 C420 0.929 . S
S424 N425 1.613 . S
S424 N426 1.610 . S
N425 S424 1.613 . S
N425 C428 1.350 . S
N426 S424 1.610 . S
N426 C427 1.351 . S
C427 C421 1.428 . S
C427 N426 1.351 . S
C427 C428 1.434 . S
C428 C419 1.429 . S
C428 N425 1.350 . S
C428 C427 1.434 . S
C429 C430 1.369 . S
C429 C431 1.419 1_455 S
C429 H433 0.930 . S
C430 C429 1.369 . S
C430 C439 1.429 . S
C431 C429 1.419 1_655 S
C431 C432 1.363 . S
C431 H434 0.929 . S
C432 C431 1.363 . S
C432 C438 1.428 . S
H433 C429 0.930 . S
H434 C431 0.929 . S
S435 N436 1.613 1_655 S
S435 N437 1.610 . S
N436 S435 1.613 1_455 S
N436 C439 1.350 . S
N437 S435 1.610 . S
N437 C438 1.351 . S
C438 C432 1.428 . S
C438 N437 1.351 . S
C438 C439 1.434 1_655 S
C439 C430 1.429 . S
C439 N436 1.350 . S
C439 C438 1.434 1_455 S
C440 C441 1.369 . S
C440 C442 1.419 1_545 S
C440 H444 0.930 . S
C441 C440 1.369 . S
C441 C450 1.429 . S
C442 C440 1.419 1_565 S
C442 C443 1.363 . S
C442 H445 0.929 . S
C443 C442 1.363 . S
C443 C449 1.428 . S
H444 C440 0.930 . S
H445 C442 0.929 . S
S446 N447 1.613 . S
S446 N448 1.610 1_545 S
N447 S446 1.613 . S
N447 C450 1.350 . S
N448 S446 1.610 1_565 S
N448 C449 1.351 . S
C449 C443 1.428 . S
C449 N448 1.351 . S
C449 C450 1.434 1_565 S
C450 C441 1.429 . S
C450 N447 1.350 . S
C450 C449 1.434 1_545 S
C451 C452 1.369 . S
C451 C453 1.419 . S
C451 H455 0.930 . S
C452 C451 1.369 . S
C452 C461 1.429 . S
C453 C451 1.419 . S
C453 C454 1.363 . S
C453 H456 0.929 . S
C454 C453 1.363 . S
C454 C460 1.428 . S
H455 C451 0.930 . S
H456 C453 0.929 . S
S457 N458 1.613 . S
S457 N459 1.610 . S
N458 S457 1.613 . S
N458 C461 1.350 . S
N459 S457 1.610 . S
N459 C460 1.351 . S
C460 C454 1.428 . S
C460 N459 1.351 . S
C460 C461 1.434 . S
C461 C452 1.429 . S
C461 N458 1.350 . S
C461 C460 1.434 . S
C462 C463 1.369 . S
C462 C464 1.419 . S
C462 H466 0.930 . S
C463 C462 1.369 . S
C463 C472 1.429 . S
C464 C462 1.419 . S
C464 C465 1.363 . S
C464 H467 0.929 . S
C465 C464 1.363 . S
C465 C471 1.428 . S
H466 C462 0.930 . S
H467 C464 0.929 . S
S468 N469 1.613 . S
S468 N470 1.610 . S
N469 S468 1.613 . S
N469 C472 1.350 . S
N470 S468 1.610 . S
N470 C471 1.351 . S
C471 C465 1.428 . S
C471 N470 1.351 . S
C471 C472 1.434 . S
C472 C463 1.429 . S
C472 N469 1.350 . S
C472 C471 1.434 . S
C473 C474 1.369 . S
C473 C475 1.419 . S
C473 H477 0.930 . S
C474 C473 1.369 . S
C474 C483 1.429 . S
C475 C473 1.419 . S
C475 C476 1.363 1_556 S
C475 H478 0.929 1_556 S
C476 C475 1.363 1_554 S
C476 C482 1.428 . S
H477 C473 0.930 . S
H478 C475 0.929 1_554 S
S479 N480 1.613 . S
S479 N481 1.610 1_556 S
N480 S479 1.613 . S
N480 C483 1.350 . S
N481 S479 1.610 1_554 S
N481 C482 1.351 . S
C482 C476 1.428 . S
C482 N481 1.351 . S
C482 C483 1.434 1_554 S
C483 C474 1.429 . S
C483 N480 1.350 . S
C483 C482 1.434 1_556 S
C484 C485 1.369 . S
C484 C486 1.419 . S
C484 H488 0.930 . S
C485 C484 1.369 . S
C485 C494 1.429 . S
C486 C484 1.419 . S
C486 C487 1.363 . S
C486 H489 0.929 . S
C487 C486 1.363 . S
C487 C493 1.428 . S
H488 C484 0.930 . S
H489 C486 0.929 . S
S490 N491 1.613 . S
S490 N492 1.610 . S
N491 S490 1.613 . S
N491 C494 1.350 . S
N492 S490 1.610 . S
N492 C493 1.351 . S
C493 C487 1.428 . S
C493 N492 1.351 . S
C493 C494 1.434 . S
C494 C485 1.429 . S
C494 N491 1.350 . S
C494 C493 1.434 . S
C495 C496 1.369 . S
C495 C497 1.419 . S
C495 H499 0.930 . S
C496 C495 1.369 . S
C496 C505 1.429 . S
C497 C495 1.419 . S
C497 C498 1.363 . S
C497 H500 0.929 . S
C498 C497 1.363 . S
C498 C504 1.428 . S
H499 C495 0.930 . S
H500 C497 0.929 . S
S501 N502 1.613 . S
S501 N503 1.610 . S
N502 S501 1.613 . S
N502 C505 1.350 . S
N503 S501 1.610 . S
N503 C504 1.351 . S
C504 C498 1.428 . S
C504 N503 1.351 . S
C504 C505 1.434 . S
C505 C496 1.429 . S
C505 N502 1.350 . S
C505 C504 1.434 . S
C506 C507 1.369 . S
C506 C508 1.419 1_554 S
C506 H510 0.930 . S
C507 C506 1.369 . S
C507 C516 1.429 1_554 S
C508 C506 1.419 1_556 S
C508 C509 1.363 . S
C508 H511 0.929 . S
C509 C508 1.363 . S
C509 C515 1.428 . S
H510 C506 0.930 . S
H511 C508 0.929 . S
S512 N513 1.613 1_556 S
S512 N514 1.610 . S
N513 S512 1.613 1_554 S
N513 C516 1.350 1_554 S
N514 S512 1.610 . S
N514 C515 1.351 . S
C515 C509 1.428 . S
C515 N514 1.351 . S
C515 C516 1.434 . S
C516 C507 1.429 1_556 S
C516 N513 1.350 1_556 S
C516 C515 1.434 . S
C517 C518 1.369 . S
C517 C519 1.419 . S
C517 H521 0.930 . S
C518 C517 1.369 . S
C518 C527 1.429 . S
C519 C517 1.419 . S
C519 C520 1.363 . S
C519 H522 0.929 . S
C520 C519 1.363 . S
C520 C526 1.428 . S
H521 C517 0.930 . S
H522 C519 0.929 . S
S523 N524 1.613 . S
S523 N525 1.610 . S
N524 S523 1.613 . S
N524 C527 1.350 . S
N525 S523 1.610 . S
N525 C526 1.351 . S
C526 C520 1.428 . S
C526 N525 1.351 . S
C526 C527 1.434 . S
C527 C518 1.429 . S
C527 N524 1.350 . S
C527 C526 1.434 . S
C528 C529 1.369 1_554 S
C528 C530 1.419 . S
C528 H532 0.930 1_554 S
C529 C528 1.369 1_556 S
C529 C538 1.429 . S
C530 C528 1.419 . S
C530 C531 1.363 . S
C530 H533 0.929 . S
C531 C530 1.363 . S
C531 C537 1.428 . S
H532 C528 0.930 1_556 S
H533 C530 0.929 . S
S534 N535 1.613 1_554 S
S534 N536 1.610 . S
N535 S534 1.613 1_556 S
N535 C538 1.350 . S
N536 S534 1.610 . S
N536 C537 1.351 . S
C537 C531 1.428 . S
C537 N536 1.351 . S
C537 C538 1.434 1_554 S
C538 C529 1.429 . S
C538 N535 1.350 . S
C538 C537 1.434 1_556 S
C539 C540 1.369 . S
C539 C541 1.419 . S
C539 H543 0.930 . S
C540 C539 1.369 . S
C540 C549 1.429 . S
C541 C539 1.419 . S
C541 C542 1.363 . S
C541 H544 0.929 . S
C542 C541 1.363 . S
C542 C548 1.428 . S
H543 C539 0.930 . S
H544 C541 0.929 . S
S545 N546 1.613 . S
S545 N547 1.610 . S
N546 S545 1.613 . S
N546 C549 1.350 . S
N547 S545 1.610 . S
N547 C548 1.351 . S
C548 C542 1.428 . S
C548 N547 1.351 . S
C548 C549 1.434 . S
C549 C540 1.429 . S
C549 N546 1.350 . S
C549 C548 1.434 . S
C550 C551 1.369 . S
C550 C552 1.419 . S
C550 H554 0.930 . S
C551 C550 1.369 . S
C551 C560 1.429 . S
C552 C550 1.419 . S
C552 C553 1.363 . S
C552 H555 0.929 . S
C553 C552 1.363 . S
C553 C559 1.428 . S
H554 C550 0.930 . S
H555 C552 0.929 . S
S556 N557 1.613 . S
S556 N558 1.610 . S
N557 S556 1.613 . S
N557 C560 1.350 . S
N558 S556 1.610 . S
N558 C559 1.351 . S
C559 C553 1.428 . S
C559 N558 1.351 . S
C559 C560 1.434 . S
C560 C551 1.429 . S
C560 N557 1.350 . S
C560 C559 1.434 . S
C561 C562 1.369 . S
C561 C563 1.419 1_554 S
C561 H565 0.930 . S
C562 C561 1.369 . S
C562 C571 1.429 . S
C563 C561 1.419 1_556 S
C563 C564 1.363 . S
C563 H566 0.929 . S
C564 C563 1.363 . S
C564 C570 1.428 1_556 S
H565 C561 0.930 . S
H566 C563 0.929 . S
S567 N568 1.613 . S
S567 N569 1.610 1_554 S
N568 S567 1.613 . S
N568 C571 1.350 . S
N569 S567 1.610 1_556 S
N569 C570 1.351 1_556 S
C570 C564 1.428 1_554 S
C570 N569 1.351 1_554 S
C570 C571 1.434 . S
C571 C562 1.429 . S
C571 N568 1.350 . S
C571 C570 1.434 . S
C572 C573 1.369 . S
C572 C574 1.419 . S
C572 H576 0.930 . S
C573 C572 1.369 . S
C573 C582 1.429 . S
C574 C572 1.419 . S
C574 C575 1.363 . S
C574 H577 0.929 . S
C575 C574 1.363 . S
C575 C581 1.428 . S
H576 C572 0.930 . S
H577 C574 0.929 . S
S578 N579 1.613 . S
S578 N580 1.610 . S
N579 S578 1.613 . S
N579 C582 1.350 . S
N580 S578 1.610 . S
N580 C581 1.351 . S
C581 C575 1.428 . S
C581 N580 1.351 . S
C581 C582 1.434 . S
C582 C573 1.429 . S
C582 N579 1.350 . S
C582 C581 1.434 . S
C583 C584 1.369 . S
C583 C585 1.419 . S
C583 H587 0.930 . S
C584 C583 1.369 . S
C584 C593 1.429 . S
C585 C583 1.419 . S
C585 C586 1.363 . S
C585 H588 0.929 . S
C586 C585 1.363 . S
C586 C592 1.428 . S
H587 C583 0.930 . S
H588 C585 0.929 . S
S589 N590 1.613 . S
S589 N591 1.610 . S
N590 S589 1.613 . S
N590 C593 1.350 . S
N591 S589 1.610 . S
N591 C592 1.351 . S
C592 C586 1.428 . S
C592 N591 1.351 . S
C592 C593 1.434 . S
C593 C584 1.429 . S
C593 N590 1.350 . S
C593 C592 1.434 . S
C594 C595 1.369 . S
C594 C596 1.419 . S
C594 H598 0.930 . S
C595 C594 1.369 . S
C595 C604 1.429 . S
C596 C594 1.419 . S
C596 C597 1.363 . S
C596 H599 0.929 . S
C597 C596 1.363 . S
C597 C603 1.428 . S
H598 C594 0.930 . S
H599 C596 0.929 . S
S600 N601 1.613 . S
S600 N602 1.610 . S
N601 S600 1.613 . S
N601 C604 1.350 . S
N602 S600 1.610 . S
N602 C603 1.351 . S
C603 C597 1.428 . S
C603 N602 1.351 . S
C603 C604 1.434 . S
C604 C595 1.429 . S
C604 N601 1.350 . S
C604 C603 1.434 . S
C605 C606 1.369 . S
C605 C607 1.419 . S
C605 H609 0.930 . S
C606 C605 1.369 . S
C606 C615 1.429 . S
C607 C605 1.419 . S
C607 C608 1.363 . S
C607 H610 0.929 . S
C608 C607 1.363 . S
C608 C614 1.428 . S
H609 C605 0.930 . S
H610 C607 0.929 . S
S611 N612 1.613 . S
S611 N613 1.610 . S
N612 S611 1.613 . S
N612 C615 1.350 . S
N613 S611 1.610 . S
N613 C614 1.351 . S
C614 C608 1.428 . S
C614 N613 1.351 . S
C614 C615 1.434 . S
C615 C606 1.429 . S
C615 N612 1.350 . S
C615 C614 1.434 . S
C616 C617 1.369 . S
C616 C618 1.419 . S
C616 H620 0.930 . S
C617 C616 1.369 . S
C617 C626 1.429 . S
C618 C616 1.419 . S
C618 C619 1.363 . S
C618 H621 0.929 . S
C619 C618 1.363 . S
C619 C625 1.428 . S
H620 C616 0.930 . S
H621 C618 0.929 . S
S622 N623 1.613 . S
S622 N624 1.610 . S
N623 S622 1.613 . S
N623 C626 1.350 . S
N624 S622 1.610 . S
N624 C625 1.351 . S
C625 C619 1.428 . S
C625 N624 1.351 . S
C625 C626 1.434 . S
C626 C617 1.429 . S
C626 N623 1.350 . S
C626 C625 1.434 . S
C627 C628 1.369 . S
C627 C629 1.419 . S
C627 H631 0.930 . S
C628 C627 1.369 . S
C628 C637 1.429 . S
C629 C627 1.419 . S
C629 C630 1.363 . S
C629 H632 0.929 . S
C630 C629 1.363 . S
C630 C636 1.428 . S
H631 C627 0.930 . S
H632 C629 0.929 . S
S633 N634 1.613 . S
S633 N635 1.610 . S
N634 S633 1.613 . S
N634 C637 1.350 . S
N635 S633 1.610 . S
N635 C636 1.351 . S
C636 C630 1.428 . S
C636 N635 1.351 . S
C636 C637 1.434 . S
C637 C628 1.429 . S
C637 N634 1.350 . S
C637 C636 1.434 . S
C638 C639 1.369 . S
C638 C640 1.419 . S
C638 H642 0.930 . S
C639 C638 1.369 . S
C639 C648 1.429 . S
C640 C638 1.419 . S
C640 C641 1.363 . S
C640 H643 0.929 . S
C641 C640 1.363 . S
C641 C647 1.428 . S
H642 C638 0.930 . S
H643 C640 0.929 . S
S644 N645 1.613 . S
S644 N646 1.610 . S
N645 S644 1.613 . S
N645 C648 1.350 . S
N646 S644 1.610 . S
N646 C647 1.351 . S
C647 C641 1.428 . S
C647 N646 1.351 . S
C647 C648 1.434 . S
C648 C639 1.429 . S
C648 N645 1.350 . S
C648 C647 1.434 . S
C649 C650 1.369 . S
C649 C651 1.419 . S
C649 H653 0.930 . S
C650 C649 1.369 . S
C650 C659 1.429 . S
C651 C649 1.419 . S
C651 C652 1.363 . S
C651 H654 0.929 . S
C652 C651 1.363 . S
C652 C658 1.428 . S
H653 C649 0.930 . S
H654 C651 0.929 . S
S655 N656 1.613 . S
S655 N657 1.610 . S
N656 S655 1.613 . S
N656 C659 1.350 . S
N657 S655 1.610 . S
N657 C658 1.351 . S
C658 C652 1.428 . S
C658 N657 1.351 . S
C658 C659 1.434 . S
C659 C650 1.429 . S
C659 N656 1.350 . S
C659 C658 1.434 . S
C660 C661 1.369 . S
C660 C662 1.419 . S
C660 H664 0.930 . S
C661 C660 1.369 . S
C661 C670 1.429 1_556 S
C662 C660 1.419 . S
C662 C663 1.363 1_556 S
C662 H665 0.929 . S
C663 C662 1.363 1_554 S
C663 C669 1.428 . S
H664 C660 0.930 . S
H665 C662 0.929 . S
S666 N667 1.613 . S
S666 N668 1.610 . S
N667 S666 1.613 . S
N667 C670 1.350 . S
N668 S666 1.610 . S
N668 C669 1.351 . S
C669 C663 1.428 . S
C669 N668 1.351 . S
C669 C670 1.434 . S
C670 C661 1.429 1_554 S
C670 N667 1.350 . S
C670 C669 1.434 . S
C671 C672 1.369 . S
C671 C673 1.419 . S
C671 H675 0.930 . S
C672 C671 1.369 . S
C672 C681 1.429 . S
C673 C671 1.419 . S
C673 C674 1.363 . S
C673 H676 0.929 . S
C674 C673 1.363 . S
C674 C680 1.428 . S
H675 C671 0.930 . S
H676 C673 0.929 . S
S677 N678 1.613 . S
S677 N679 1.610 . S
N678 S677 1.613 . S
N678 C681 1.350 . S
N679 S677 1.610 . S
N679 C680 1.351 . S
C680 C674 1.428 . S
C680 N679 1.351 . S
C680 C681 1.434 . S
C681 C672 1.429 . S
C681 N678 1.350 . S
C681 C680 1.434 . S
C682 C683 1.369 . S
C682 C684 1.419 . S
C682 H686 0.930 . S
C683 C682 1.369 . S
C683 C692 1.429 . S
C684 C682 1.419 . S
C684 C685 1.363 . S
C684 H687 0.929 . S
C685 C684 1.363 . S
C685 C691 1.428 . S
H686 C682 0.930 . S
H687 C684 0.929 . S
S688 N689 1.613 . S
S688 N690 1.610 . S
N689 S688 1.613 . S
N689 C692 1.350 . S
N690 S688 1.610 . S
N690 C691 1.351 . S
C691 C685 1.428 . S
C691 N690 1.351 . S
C691 C692 1.434 . S
C692 C683 1.429 . S
C692 N689 1.350 . S
C692 C691 1.434 . S
C693 C694 1.369 . S
C693 C695 1.419 1_554 S
C693 H697 0.930 . S
C694 C693 1.369 . S
C694 C703 1.429 . S
C695 C693 1.419 1_556 S
C695 C696 1.363 . S
C695 H698 0.929 . S
C696 C695 1.363 . S
C696 C702 1.428 . S
H697 C693 0.930 . S
H698 C695 0.929 . S
S699 N700 1.613 . S
S699 N701 1.610 1_554 S
N700 S699 1.613 . S
N700 C703 1.350 . S
N701 S699 1.610 1_556 S
N701 C702 1.351 . S
C702 C696 1.428 . S
C702 N701 1.351 . S
C702 C703 1.434 1_556 S
C703 C694 1.429 . S
C703 N700 1.350 . S
C703 C702 1.434 1_554 S
C704 C705 1.369 . S
C704 C706 1.419 . S
C704 H708 0.930 . S
C705 C704 1.369 . S
C705 C714 1.429 . S
C706 C704 1.419 . S
C706 C707 1.363 . S
C706 H709 0.929 . S
C707 C706 1.363 . S
C707 C713 1.428 . S
H708 C704 0.930 . S
H709 C706 0.929 . S
S710 N711 1.613 . S
S710 N712 1.610 . S
N711 S710 1.613 . S
N711 C714 1.350 . S
N712 S710 1.610 . S
N712 C713 1.351 . S
C713 C707 1.428 . S
C713 N712 1.351 . S
C713 C714 1.434 . S
C714 C705 1.429 . S
C714 N711 1.350 . S
C714 C713 1.434 . S
C715 C716 1.369 . S
C715 C717 1.419 . S
C715 H719 0.930 . S
C716 C715 1.369 . S
C716 C725 1.429 . S
C717 C715 1.419 . S
C717 C718 1.363 . S
C717 H720 0.929 . S
C718 C717 1.363 . S
C718 C724 1.428 . S
H719 C715 0.930 . S
H720 C717 0.929 . S
S721 N722 1.613 . S
S721 N723 1.610 . S
N722 S721 1.613 . S
N722 C725 1.350 . S
N723 S721 1.610 . S
N723 C724 1.351 . S
C724 C718 1.428 . S
C724 N723 1.351 . S
C724 C725 1.434 . S
C725 C716 1.429 . S
C725 N722 1.350 . S
C725 C724 1.434 . S
C397 C7 1.353 . S
C399 C370 1.353 . S
C408 C40 1.354 . S
C410 C205 1.355 . S
C419 C238 1.358 . S
C421 C73 1.356 . S
C430 C271 1.355 . S
C432 C106 1.354 . S
C441 C304 1.359 . S
C443 C139 1.358 . S
C452 C337 1.358 . S
C454 C172 1.358 . S
C463 N13 1.427 . S
C465 N2 1.420 . S
C474 N35 1.424 . S
C476 N46 1.423 . S
C485 N79 1.425 . S
C487 N68 1.422 . S
C496 N112 1.425 . S
C498 N101 1.422 . S
C507 N145 1.421 . S
C509 N134 1.425 . S
C518 N167 1.419 . S
C520 N178 1.427 . S
C529 N211 1.428 . S
C531 N200 1.420 . S
C540 N233 1.420 . S
C542 N244 1.426 . S
C551 N277 1.428 . S
C553 N266 1.420 . S
C562 N299 1.419 . S
C564 N310 1.427 . S
C573 N332 1.424 . S
C575 N343 1.423 . S
C584 N376 1.423 . S
C586 N365 1.424 . S
C595 C21 1.568 . S
C597 C285 1.570 . S
C606 C54 1.570 . S
C608 C318 1.570 . S
C617 C87 1.570 . S
C619 C351 1.569 . S
C628 C384 1.571 . S
C630 C120 1.570 . S
C639 C219 1.571 . S
C641 C153 1.571 . S
C650 C252 1.569 . S
C652 C186 1.570 . S
C661 C348 1.314 . S
C663 C18 1.315 . S
C672 C381 1.317 . S
C674 C51 1.311 . S
C683 C216 1.310 . S
C685 C84 1.313 . S
C694 C117 1.311 . S
C696 C249 1.313 . S
C705 C150 1.310 . S
C707 C282 1.313 . S
C716 C183 1.315 . S
C718 C315 1.310 . S
