# Generated by pormake.
# Topology unc, (4)-cn, num edge types: 1
# Building blocks:
#     Node 0, Type 0, BuildingBlock: QUQFOY_clean_sbu_3, # of connection points: 4
#     Node 1, Type 0, BuildingBlock: QUQFOY_clean_sbu_3, # of connection points: 4
#     Node 2, Type 0, BuildingBlock: QUQFOY_clean_sbu_3, # of connection points: 4
#     Node 3, Type 0, BuildingBlock: QUQFOY_clean_sbu_3, # of connection points: 4
#     Edge 4, Type (0, 0), BuildingBlock: MIFKUJ_clean_linker_0, # of connection points: 2
#     Edge 5, Type (0, 0), BuildingBlock: MIFKUJ_clean_linker_0, # of connection points: 2
#     Edge 6, Type (0, 0), BuildingBlock: MIFKUJ_clean_linker_0, # of connection points: 2
#     Edge 7, Type (0, 0), BuildingBlock: MIFKUJ_clean_linker_0, # of connection points: 2
#     Edge 8, Type (0, 0), BuildingBlock: MIFKUJ_clean_linker_0, # of connection points: 2
#     Edge 9, Type (0, 0), BuildingBlock: MIFKUJ_clean_linker_0, # of connection points: 2
#     Edge 10, Type (0, 0), BuildingBlock: MIFKUJ_clean_linker_0, # of connection points: 2
#     Edge 11, Type (0, 0), BuildingBlock: MIFKUJ_clean_linker_0, # of connection points: 2
# Relax obj value: 0.006
# Max RMSD: 0.046
# Mean RMSD: 0.046
data_MOF--net-unc--node1-QUQFOY_clean_sbu_3--edge1-MIFKUJ_clean_linker_0
_symmetry_space_group_name_H-M    P1
_symmetry_Int_Tables_number       1
_symmetry_cell_setting            triclinic
loop_
_symmetry_equiv_pos_as_xyz
'x, y, z'
_cell_length_a     39.394361
_cell_length_b     39.450069
_cell_length_c     29.284792
_cell_angle_alpha  89.973067
_cell_angle_beta   89.877466
_cell_angle_gamma 94.531934
loop_
_atom_site_label
_atom_site_type_symbol
_atom_site_fract_x
_atom_site_fract_y
_atom_site_fract_z
_atom_type_partial_charge
C0 C 0.03809 0.63868 0.92109 0.0
O1 O 0.06634 0.64814 0.93976 0.0
Cd2 Cd 0.07009 0.68286 0.00724 0.0
O3 O 0.0104 0.64911 0.93615 0.0
Cd4 Cd 0.98878 0.68671 0.99485 0.0
C5 C 0.01488 0.63323 0.07555 0.0
O6 O 0.03652 0.72977 0.99261 0.0
O7 O -0.00053 0.73497 0.04607 0.0
O8 O 0.94944 0.70404 0.93702 0.0
C9 C 0.02645 0.74669 0.02615 0.0
O10 O 0.04531 0.64466 0.06651 0.0
C11 C 0.92334 0.70092 0.96269 0.0
O12 O 0.98985 0.64346 0.05347 0.0
O13 O 0.92764 0.69054 0.00318 0.0
C14 C 0.37685 0.97441 0.32477 0.0
O15 O 0.36626 0.94671 0.30561 0.0
Cd16 Cd 0.32939 0.94572 0.24037 0.0
O17 O 0.36647 0.00255 0.3115 0.0
Cd18 Cd 0.3274 0.02657 0.25679 0.0
C19 C 0.37787 0.00192 0.17169 0.0
O20 O 0.28371 0.97961 0.26013 0.0
O21 O 0.27706 0.01732 0.20831 0.0
O22 O 0.31489 0.0637 0.31979 0.0
C23 C 0.26575 0.99015 0.22805 0.0
O24 O 0.36591 0.97159 0.18006 0.0
C25 C 0.31514 0.09052 0.29578 0.0
O26 O 0.36908 0.0267 0.19562 0.0
O27 O 0.32165 0.08773 0.2535 0.0
C28 C 0.97667 0.37511 0.41972 0.0
O29 O 0.94866 0.36677 0.4399 0.0
Cd30 Cd 0.94447 0.33204 0.50746 0.0
O31 O 0.00437 0.36438 0.43412 0.0
Cd32 Cd 0.02581 0.328 0.49434 0.0
C33 C -0.00046 0.38106 0.57593 0.0
O34 O 0.9779 0.28519 0.49234 0.0
O35 O 0.01496 0.27935 0.54535 0.0
O36 O 0.06545 0.31052 0.43683 0.0
C37 C 0.98778 0.26802 0.52569 0.0
O38 O 0.96917 0.36923 0.56753 0.0
C39 C 0.09146 0.31386 0.46247 0.0
O40 O 0.02448 0.37152 0.55285 0.0
O41 O 0.08698 0.32438 0.50286 0.0
C42 C 0.63443 0.03728 0.82363 0.0
O43 O 0.64392 0.06514 0.80395 0.0
Cd44 Cd 0.68085 0.06754 0.73839 0.0
O45 O 0.64564 0.0095 0.81039 0.0
Cd46 Cd 0.68489 0.98669 0.75466 0.0
C47 C 0.63425 0.0103 0.66936 0.0
O48 O 0.72741 0.03486 0.75801 0.0
O49 O 0.7352 -0.00285 0.70651 0.0
O50 O 0.69771 0.94933 0.81724 0.0
C51 C 0.74579 0.02459 0.72606 0.0
O52 O 0.64553 0.04084 0.67764 0.0
C53 C 0.69853 0.92287 0.79273 0.0
O54 O 0.64331 0.98581 0.6936 0.0
O55 O 0.69248 0.92596 0.75041 0.0
H56 H 0.06174 0.5964 0.11753 0.0
H57 H 0.05102 0.55072 0.17329 0.0
H58 H 0.9435 0.56423 0.16938 0.0
H59 H 0.95388 0.60997 0.11337 0.0
H60 H 0.96957 0.55801 0.25815 0.0
H61 H 0.96948 0.50034 0.11462 0.0
H62 H 0.99209 0.4865 0.03896 0.0
H63 H 0.08057 0.44993 0.10174 0.0
H64 H 0.0588 0.46419 0.17784 0.0
H65 H 0.92372 0.40686 0.38276 0.0
H66 H 0.92647 0.44876 0.32102 0.0
H67 H 0.03422 0.43886 0.30638 0.0
H68 H 0.03172 0.39675 0.36755 0.0
H69 H 0.00329 0.44206 0.22405 0.0
H70 H 0.00641 0.50403 0.366 0.0
H71 H 0.98553 0.51946 0.44208 0.0
H72 H 0.89272 0.54866 0.38241 0.0
H73 H 0.91289 0.53297 0.306 0.0
C74 C 0.03581 0.58982 0.12866 0.0
C75 C 0.00863 0.60674 0.11091 0.0
C76 C 0.02975 0.56362 0.16034 0.0
C77 C 0.99646 0.55398 0.17496 0.0
C78 C 0.96935 0.57131 0.15828 0.0
C79 C 0.97534 0.59734 0.12625 0.0
C80 C 0.99009 0.52564 0.2076 0.0
C81 C 0.97635 0.5325 0.25049 0.0
C82 C -0.00041 0.4926 0.19764 0.0
C83 C 0.01263 0.48363 0.15195 0.0
C84 C 0.99389 0.48961 0.1123 0.0
C85 C 0.00654 0.48165 0.06932 0.0
C86 C 0.03777 0.46739 0.06552 0.0
C87 C 0.05639 0.461 0.10473 0.0
C88 C 0.0439 0.46901 0.14782 0.0
C89 C 0.94795 0.41337 0.36616 0.0
C90 C 0.97756 0.39866 0.38035 0.0
C91 C 0.94948 0.43738 0.33099 0.0
C92 C 0.98063 0.44716 0.30958 0.0
C93 C 0.00995 0.43166 0.32254 0.0
C94 C 0.00846 0.40769 0.35766 0.0
C95 C 0.98312 0.47451 0.27487 0.0
C96 C 0.99616 0.46748 0.23157 0.0
C97 C 0.97312 0.50744 0.28451 0.0
C98 C 0.96098 0.51695 0.33038 0.0
C99 C 0.98143 0.51347 0.36916 0.0
C100 C 0.96975 0.52231 0.41232 0.0
C101 C 0.93777 0.53493 0.41709 0.0
C102 C 0.91745 0.53882 0.37867 0.0
C103 C 0.929 0.52998 0.33543 0.0
H104 H 0.92878 0.54177 0.45053 0.0
H105 H 0.04751 0.46124 0.03219 0.0
H106 H 0.40918 0.02955 0.36671 0.0
H107 H 0.454 0.03015 0.42395 0.0
H108 H 0.44799 0.92053 0.42343 0.0
H109 H 0.40286 0.91954 0.36581 0.0
H110 H 0.45221 0.94953 0.51166 0.0
H111 H 0.51101 0.95961 0.36863 0.0
H112 H 0.5239 0.98319 0.29199 0.0
H113 H 0.55095 0.08137 0.35052 0.0
H114 H 0.53773 0.0585 0.4275 0.0
H115 H 0.60582 0.94849 0.64011 0.0
H116 H 0.56331 0.93762 0.58009 0.0
H117 H 0.56369 0.0454 0.55481 0.0
H118 H 0.60651 0.05651 0.61404 0.0
H119 H 0.56416 0.01077 0.47657 0.0
H120 H 0.50069 0.00281 0.61779 0.0
H121 H 0.48643 0.98068 0.69483 0.0
H122 H 0.46725 0.87999 0.64028 0.0
H123 H 0.48185 0.90147 0.56296 0.0
C124 C 0.41717 0.00549 0.37883 0.0
C125 C 0.40257 0.97447 0.36146 0.0
C126 C 0.44289 0.00592 0.41144 0.0
C127 C 0.45453 0.9754 0.42735 0.0
C128 C 0.43937 0.94433 0.4113 0.0
C129 C 0.41368 0.94385 0.37838 0.0
C130 C 0.48293 0.97633 0.46028 0.0
C131 C 0.47693 0.96233 0.50382 0.0
C132 C 0.51489 0.99357 0.45005 0.0
C133 C 0.52312 0.00738 0.40382 0.0
C134 C 0.51946 0.98629 0.36514 0.0
C135 C 0.52687 -0.00048 0.32164 0.0
C136 C 0.53817 0.03377 0.31638 0.0
C137 C 0.54217 0.05484 0.35464 0.0
C138 C 0.53477 0.04175 0.39823 0.0
C139 C 0.59696 0.96989 0.62166 0.0
C140 C 0.60947 0.0034 0.63201 0.0
C141 C 0.57258 0.96362 0.5875 0.0
C142 C 0.56009 0.99074 0.56341 0.0
C143 C 0.57301 0.02411 0.57303 0.0
C144 C 0.59743 0.03041 0.60701 0.0
C145 C 0.53328 0.98461 0.52839 0.0
C146 C 0.5396 -0.0024 0.48434 0.0
C147 C 0.50159 0.9666 0.53827 0.0
C148 C 0.49275 0.95367 0.5847 0.0
C149 C 0.49371 0.9759 0.62229 0.0
C150 C 0.48551 0.96349 0.66599 0.0
C151 C 0.47605 0.92893 0.67247 0.0
C152 C 0.47466 0.90674 0.63523 0.0
C153 C 0.48287 0.91902 0.59146 0.0
H154 H 0.4697 0.91937 0.70632 0.0
H155 H 0.54389 0.04397 0.28267 0.0
H156 H 0.98163 0.6083 0.87977 0.0
H157 H 0.97921 0.5643 0.82121 0.0
H158 H 0.0889 0.56849 0.81784 0.0
H159 H 0.09171 0.61274 0.87672 0.0
H160 H 0.05827 0.56543 0.73062 0.0
H161 H 0.04946 0.5061 0.87363 0.0
H162 H 0.02653 0.49287 0.95059 0.0
H163 H 0.9275 0.46702 0.89371 0.0
H164 H 0.94971 0.48058 0.81647 0.0
H165 H 0.06082 0.41119 0.60459 0.0
H166 H 0.07073 0.45471 0.66346 0.0
H167 H 0.96257 0.45307 0.68783 0.0
H168 H 0.9524 0.40924 0.62962 0.0
H169 H -0.00281 0.45367 0.76647 0.0
H170 H 0.00407 0.51613 0.62508 0.0
H171 H 0.02557 0.53013 0.54764 0.0
H172 H 0.12661 0.55085 0.60071 0.0
H173 H 0.10577 0.53651 0.67843 0.0
C174 C 0.00531 0.60012 0.86645 0.0
C175 C 0.03689 0.61389 0.88316 0.0
C176 C 0.00384 0.57487 0.83309 0.0
C177 C 0.03387 0.56291 0.81578 0.0
C178 C 0.06547 0.57737 0.83105 0.0
C179 C 0.067 0.60256 0.8647 0.0
C180 C 0.03194 0.53475 0.78243 0.0
C181 C 0.04545 0.54077 0.73858 0.0
C182 C 0.01463 0.5029 0.79282 0.0
C183 C 0.00121 0.49463 0.83927 0.0
C184 C 0.02273 0.49786 0.87756 0.0
C185 C 0.00987 0.49026 0.92124 0.0
C186 C 0.97557 0.47917 0.92703 0.0
C187 C 0.95406 0.47563 0.88917 0.0
C188 C 0.96678 0.48323 0.84543 0.0
C189 C 0.03912 0.42001 0.62253 0.0
C190 C 0.00579 0.4068 0.61228 0.0
C191 C 0.04485 0.44498 0.65604 0.0
C192 C 0.01736 0.45735 0.67961 0.0
C193 C 0.98414 0.44385 0.66998 0.0
C194 C 0.97838 0.41885 0.6366 0.0
C195 C 0.02304 0.48445 0.71431 0.0
C196 C 0.01027 0.47821 0.75852 0.0
C197 C 0.04087 0.51614 0.70415 0.0
C198 C 0.05343 0.52488 0.65748 0.0
C199 C 0.03092 0.5234 0.62018 0.0
C200 C 0.04298 0.53145 0.57625 0.0
C201 C 0.07746 0.54127 0.56924 0.0
C202 C 0.09992 0.54317 0.60618 0.0
C203 C 0.088 0.53511 0.65018 0.0
H204 H 0.08674 0.5475 0.53521 0.0
H205 H 0.96564 0.47325 0.96083 0.0
H206 H 0.40631 0.06321 0.14037 0.0
H207 H 0.45079 0.07297 0.08236 0.0
H208 H 0.45201 0.96475 0.06247 0.0
H209 H 0.40773 0.95466 0.12036 0.0
H210 H 0.51616 -0.00323 0.07331 0.0
H211 H 0.41474 0.01154 0.9854 0.0
H212 H 0.36106 0.03697 0.96791 0.0
H213 H 0.4148 0.13577 0.95867 0.0
H214 H 0.46876 0.11096 0.97674 0.0
H215 H 0.6047 0.98161 0.86757 0.0
H216 H 0.56259 0.9801 0.9286 0.0
H217 H 0.56581 0.08968 0.92749 0.0
H218 H 0.60764 0.09146 0.86537 0.0
H219 H 0.50169 0.06243 0.93106 0.0
H220 H 0.60374 0.0478 0.01342 0.0
H221 H 0.65769 0.02296 0.03115 0.0
H222 H 0.60372 0.92534 0.0523 0.0
H223 H 0.54947 0.94947 0.03407 0.0
C224 C 0.4159 0.04147 0.12348 0.0
C225 C 0.40347 0.00814 0.13501 0.0
C226 C 0.44125 0.04712 0.0903 0.0
C227 C 0.45456 0.01956 0.06814 0.0
C228 C 0.44207 0.98633 0.07932 0.0
C229 C 0.41665 0.98065 0.11228 0.0
C230 C 0.48205 0.02515 0.03389 0.0
C231 C 0.51295 0.01085 0.04198 0.0
C232 C 0.47812 0.04453 0.99389 0.0
C233 C 0.44571 0.05945 0.98294 0.0
C234 C 0.41506 0.03873 0.98004 0.0
C235 C 0.3846 0.05302 0.96994 0.0
C236 C 0.3845 0.08798 0.96232 0.0
C237 C 0.4149 0.10871 0.96466 0.0
C238 C 0.44543 0.09454 0.9748 0.0
C239 C 0.59665 0.00546 0.88036 0.0
C240 C 0.60963 0.03668 0.86166 0.0
C241 C 0.57265 0.00454 0.91545 0.0
C242 C 0.56146 0.0348 0.93306 0.0
C243 C 0.57424 0.06604 0.91446 0.0
C244 C 0.59818 0.067 0.87907 0.0
C245 C 0.53568 0.03347 0.97002 0.0
C246 C 0.50511 0.04863 0.96256 0.0
C247 C 0.53997 0.01502 0.01079 0.0
C248 C 0.57255 0.00041 0.02204 0.0
C249 C 0.60339 0.02098 0.02154 0.0
C250 C 0.63403 0.00703 0.03173 0.0
C251 C 0.63414 0.97258 0.04276 0.0
C252 C 0.6036 0.95202 0.04373 0.0
C253 C 0.57289 0.96583 0.03353 0.0
H254 H 0.65788 0.96183 0.05062 0.0
H255 H 0.36089 0.099 0.95449 0.0
H256 H 0.21831 0.00979 0.16794 0.0
H257 H 0.17054 0.97463 0.13518 0.0
H258 H 0.19871 0.88882 0.21417 0.0
H259 H 0.24564 0.92412 0.24816 0.0
H260 H 0.17055 0.9228 0.08265 0.0
H261 H 0.1322 0.83429 0.23721 0.0
H262 H 0.12799 0.83823 0.32105 0.0
H263 H 0.11759 0.94549 0.31088 0.0
H264 H 0.12126 0.94214 0.22697 0.0
H265 H 0.09316 0.76603 0.00863 0.0
H266 H 0.12786 0.81339 0.0427 0.0
H267 H 0.04018 0.84301 0.11704 0.0
H268 H 0.00572 0.79472 0.08449 0.0
H269 H 0.09034 0.845 0.17151 0.0
H270 H 0.07528 0.88985 0.02332 0.0
H271 H 0.07461 0.89087 0.93914 0.0
H272 H 0.18226 0.88045 0.93605 0.0
H273 H 0.18352 0.87889 0.02022 0.0
C274 C 0.21399 0.98353 0.17873 0.0
C275 C 0.23563 0.96967 0.21061 0.0
C276 C 0.18676 0.96347 0.15992 0.0
C277 C 0.18082 0.92916 0.17248 0.0
C278 C 0.20227 0.91541 0.20468 0.0
C279 C 0.22922 0.93556 0.22394 0.0
C280 C 0.15355 0.90714 0.14998 0.0
C281 C 0.15283 0.90597 0.10208 0.0
C282 C 0.12983 0.8858 0.17527 0.0
C283 C 0.12728 0.88798 0.22577 0.0
C284 C 0.12885 0.85869 0.25283 0.0
C285 C 0.12659 0.86083 0.30039 0.0
C286 C 0.12261 0.8921 0.32128 0.0
C287 C 0.12079 0.9213 0.29466 0.0
C288 C 0.12301 0.9193 0.2471 0.0
C289 C 0.08123 0.78285 0.0319 0.0
C290 C 0.04679 0.77674 0.04397 0.0
C291 C 0.10103 0.81003 0.05118 0.0
C292 C 0.08655 0.8321 0.082 0.0
C293 C 0.05193 0.82634 0.09339 0.0
C294 C 0.03226 0.79881 0.07471 0.0
C295 C 0.10799 0.85998 0.10418 0.0
C296 C 0.1077 0.86217 0.15204 0.0
C297 C 0.13002 0.88303 0.0788 0.0
C298 C 0.12944 0.88403 0.02812 0.0
C299 C 0.09878 0.88755 0.0047 0.0
C300 C 0.09829 0.88826 0.95697 0.0
C301 C 0.12836 0.88567 0.93226 0.0
C302 C 0.15899 0.88244 0.95523 0.0
C303 C 0.15961 0.88169 0.00296 0.0
H304 H 0.12793 0.88622 0.89532 0.0
H305 H 0.12089 0.89371 0.3581 0.0
H306 H 0.29067 0.14393 0.25103 0.0
H307 H 0.26569 0.19257 0.28504 0.0
H308 H 0.29387 0.15913 0.41921 0.0
H309 H 0.31725 0.10935 0.38529 0.0
H310 H 0.23195 0.16934 0.42103 0.0
H311 H 0.32851 0.23693 0.36766 0.0
H312 H 0.37291 0.25915 0.31363 0.0
H313 H 0.29656 0.29673 0.22688 0.0
H314 H 0.25162 0.27432 0.28003 0.0
H315 H 0.147 0.30374 0.51484 0.0
H316 H 0.19819 0.27702 0.49107 0.0
H317 H 0.1622 0.2733 0.35207 0.0
H318 H 0.1108 0.29966 0.37554 0.0
H319 H 0.23619 0.28777 0.36294 0.0
H320 H 0.14107 0.20836 0.41181 0.0
H321 H 0.09758 0.18679 0.4676 0.0
H322 H 0.17571 0.1729 0.56636 0.0
H323 H 0.21963 0.19489 0.51127 0.0
C324 C 0.29216 0.14736 0.2877 0.0
C325 C 0.30557 0.12275 0.3156 0.0
C326 C 0.27811 0.17538 0.30715 0.0
C327 C 0.27808 0.1798 0.35479 0.0
C328 C 0.29346 0.15626 0.38242 0.0
C329 C 0.30682 0.12784 0.36304 0.0
C330 C 0.25802 0.20609 0.37583 0.0
C331 C 0.23374 0.19547 0.40911 0.0
C332 C 0.25971 0.24014 0.35994 0.0
C333 C 0.28664 0.25375 0.32779 0.0
C334 C 0.32114 0.24972 0.33691 0.0
C335 C 0.34642 0.26239 0.30645 0.0
C336 C 0.33756 0.2793 0.26682 0.0
C337 C 0.30339 0.28363 0.2576 0.0
C338 C 0.278 0.271 0.28793 0.0
C339 C 0.15035 0.29795 0.47904 0.0
C340 C 0.12471 0.3033 0.44711 0.0
C341 C 0.17962 0.2828 0.46555 0.0
C342 C 0.18375 0.27309 0.41993 0.0
C343 C 0.15945 0.28077 0.3874 0.0
C344 C 0.13001 0.29557 0.40093 0.0
C345 C 0.21043 0.25057 0.40722 0.0
C346 C 0.2355 0.26185 0.37548 0.0
C347 C 0.20989 0.21718 0.42481 0.0
C348 C 0.18354 0.20364 0.45768 0.0
C349 C 0.14892 0.20096 0.44555 0.0
C350 C 0.12421 0.18863 0.47701 0.0
C351 C 0.13386 0.17859 0.52055 0.0
C352 C 0.16827 0.18076 0.53266 0.0
C353 C 0.19307 0.19315 0.50134 0.0
H354 H 0.1147 0.16904 0.54487 0.0
H355 H 0.35717 0.28908 0.24328 0.0
H356 H 0.7937 0.00574 0.66585 0.0
H357 H 0.84139 0.0414 0.63354 0.0
H358 H 0.81224 0.1265 0.71321 0.0
H359 H 0.76527 0.09069 0.7467 0.0
H360 H 0.8412 0.09375 0.58149 0.0
H361 H 0.87898 0.181 0.73699 0.0
H362 H 0.8826 0.17653 0.82082 0.0
H363 H 0.89278 0.06929 0.80975 0.0
H364 H 0.8897 0.07317 0.72586 0.0
H365 H 0.92084 0.24998 0.50862 0.0
H366 H 0.88526 0.20321 0.54279 0.0
H367 H 0.97209 0.17184 0.61692 0.0
H368 H 0.00749 0.21957 0.58424 0.0
H369 H 0.92147 0.17036 0.6714 0.0
H370 H 0.93684 0.1261 0.52267 0.0
H371 H 0.93788 0.12577 0.43848 0.0
H372 H 0.83051 0.1377 0.43544 0.0
H373 H 0.8289 0.13856 0.51963 0.0
C374 C 0.79774 0.03196 0.67687 0.0
C375 C 0.77581 0.04546 0.7088 0.0
C376 C 0.82494 0.05231 0.65831 0.0
C377 C 0.83059 0.08656 0.67119 0.0
C378 C 0.80886 0.09997 0.70344 0.0
C379 C 0.78191 0.07953 0.72241 0.0
C380 C 0.85794 0.10881 0.64903 0.0
C381 C 0.85891 0.11034 0.60115 0.0
C382 C 0.88162 0.12986 0.67462 0.0
C383 C 0.88383 0.12736 0.7251 0.0
C384 C 0.88215 0.15649 0.75242 0.0
C385 C 0.88407 0.15405 0.79996 0.0
C386 C 0.88782 0.12263 0.8206 0.0
C387 C 0.88976 0.09359 0.79373 0.0
C388 C 0.88787 0.09589 0.74618 0.0
C389 C 0.9324 0.23292 0.53188 0.0
C390 C 0.96691 0.23836 0.54379 0.0
C391 C 0.91208 0.20607 0.55123 0.0
C392 C 0.92608 0.18366 0.58197 0.0
C393 C 0.96071 0.18878 0.59332 0.0
C394 C 0.98092 0.21599 0.57456 0.0
C395 C 0.90413 0.15593 0.60386 0.0
C396 C 0.90409 0.15346 0.6517 0.0
C397 C 0.88202 0.13326 0.57819 0.0
C398 C 0.88281 0.13262 0.5275 0.0
C399 C 0.91349 0.12887 0.50406 0.0
C400 C 0.91417 0.12856 0.45633 0.0
C401 C 0.88429 0.13177 0.43163 0.0
C402 C 0.85364 0.13522 0.45461 0.0
C403 C 0.85282 0.13558 0.50234 0.0
H404 H 0.88487 0.13153 0.39468 0.0
H405 H 0.88929 0.1208 0.85741 0.0
H406 H 0.69314 0.90161 0.88115 0.0
H407 H 0.71795 0.85254 0.91496 0.0
H408 H 0.75402 0.82427 0.78205 0.0
H409 H 0.72755 0.87212 0.74788 0.0
H410 H 0.7397 0.76934 0.82892 0.0
H411 H 0.80378 0.87655 0.85849 0.0
H412 H 0.81249 0.93539 0.88713 0.0
H413 H 0.78601 0.90097 0.02268 0.0
H414 H 0.77675 0.84194 0.99468 0.0
H415 H 0.9041 0.71439 0.87556 0.0
H416 H 0.85265 0.74031 0.85168 0.0
H417 H 0.81675 0.73845 0.99095 0.0
H418 H 0.868 0.71214 0.01512 0.0
H419 H 0.82329 0.80307 0.95031 0.0
H420 H 0.77205 0.69216 0.91733 0.0
H421 H 0.76877 0.63461 0.88407 0.0
H422 H 0.7776 0.67732 0.74929 0.0
H423 H 0.78145 0.73516 0.78174 0.0
C424 C 0.70577 0.88446 0.85911 0.0
C425 C 0.70891 0.89083 0.81206 0.0
C426 C 0.72001 0.85652 0.87843 0.0
C427 C 0.7387 0.83527 0.85124 0.0
C428 C 0.73987 0.84036 0.80378 0.0
C429 C 0.72485 0.8678 0.78428 0.0
C430 C 0.75993 0.8101 0.8724 0.0
C431 C 0.75802 0.7767 0.85541 0.0
C432 C 0.78353 0.81953 0.9075 0.0
C433 C 0.78916 0.85495 0.92441 0.0
C434 C 0.7996 0.88159 0.89434 0.0
C435 C 0.80466 0.91495 0.91046 0.0
C436 C 0.79969 0.92193 0.95667 0.0
C437 C 0.78976 0.89553 0.98688 0.0
C438 C 0.78461 0.86213 0.97091 0.0
C439 C 0.88491 0.71882 0.90095 0.0
C440 C 0.89018 0.71156 0.94725 0.0
C441 C 0.85544 0.7334 0.88721 0.0
C442 C 0.83093 0.74115 0.91958 0.0
C443 C 0.83535 0.73246 0.9655 0.0
C444 C 0.86463 0.71747 0.9792 0.0
C445 C 0.80345 0.76256 0.90632 0.0
C446 C 0.80438 0.79542 0.92464 0.0
C447 C 0.77968 0.75281 0.87176 0.0
C448 C 0.77725 0.71804 0.85204 0.0
C449 C 0.77356 0.6893 0.88062 0.0
C450 C 0.77155 0.65662 0.8619 0.0
C451 C 0.77303 0.65231 0.8146 0.0
C452 C 0.77646 0.68069 0.78592 0.0
C453 C 0.7785 0.71344 0.80447 0.0
H454 H 0.77147 0.62698 0.80018 0.0
H455 H 0.80363 0.94777 0.96909 0.0
loop_
_geom_bond_atom_site_label_1
_geom_bond_atom_site_label_2
_geom_bond_distance
_geom_bond_site_symmetry_2
_ccdc_geom_bond_type
C0 O1 1.306 . S
C0 O3 1.160 1_455 S
O1 C0 1.306 . S
O1 Cd2 2.228 1_556 S
Cd2 O1 2.228 1_554 S
Cd2 O6 2.273 . S
Cd2 O10 2.277 . S
O3 C0 1.160 1_655 S
O3 Cd4 2.203 1_556 S
Cd4 O3 2.203 1_554 S
Cd4 O6 2.411 1_655 S
Cd4 O7 2.333 1_655 S
Cd4 O8 2.352 1_554 S
Cd4 O12 2.277 . S
Cd4 O13 2.356 . S
C5 O10 1.209 . S
C5 O12 1.226 1_455 S
O6 Cd2 2.273 . S
O6 Cd4 2.411 1_455 S
O6 C9 1.320 . S
O7 Cd4 2.333 1_455 S
O7 C9 1.214 . S
O8 Cd4 2.352 1_556 S
O8 C11 1.258 . S
C9 O6 1.320 . S
C9 O7 1.214 . S
O10 Cd2 2.277 . S
O10 C5 1.209 . S
C11 O8 1.258 . S
C11 O13 1.282 1_556 S
O12 Cd4 2.277 . S
O12 C5 1.226 1_655 S
O13 Cd4 2.356 . S
O13 C11 1.282 1_554 S
C14 O15 1.306 1_545 S
C14 O17 1.160 . S
O15 C14 1.306 1_565 S
O15 Cd16 2.228 . S
Cd16 O15 2.228 . S
Cd16 O20 2.273 . S
Cd16 O24 2.277 . S
O17 C14 1.160 . S
O17 Cd18 2.203 . S
Cd18 O17 2.203 . S
Cd18 O20 2.411 1_545 S
Cd18 O21 2.333 1_545 S
Cd18 O22 2.352 . S
Cd18 O26 2.277 . S
Cd18 O27 2.356 . S
C19 O24 1.209 1_545 S
C19 O26 1.226 . S
O20 Cd16 2.273 . S
O20 Cd18 2.411 1_565 S
O20 C23 1.320 . S
O21 Cd18 2.333 1_565 S
O21 C23 1.214 . S
O22 Cd18 2.352 . S
O22 C25 1.258 . S
C23 O20 1.320 . S
C23 O21 1.214 . S
O24 Cd16 2.277 . S
O24 C19 1.209 1_565 S
C25 O22 1.258 . S
C25 O27 1.282 . S
O26 Cd18 2.277 . S
O26 C19 1.226 . S
O27 Cd18 2.356 . S
O27 C25 1.282 . S
C28 O29 1.306 1_455 S
C28 O31 1.160 . S
O29 C28 1.306 1_655 S
O29 Cd30 2.228 . S
Cd30 O29 2.228 . S
Cd30 O34 2.273 . S
Cd30 O38 2.277 . S
O31 C28 1.160 . S
O31 Cd32 2.203 . S
Cd32 O31 2.203 . S
Cd32 O34 2.411 1_455 S
Cd32 O35 2.333 1_455 S
Cd32 O36 2.352 . S
Cd32 O40 2.277 . S
Cd32 O41 2.356 . S
C33 O38 1.209 1_455 S
C33 O40 1.226 . S
O34 Cd30 2.273 . S
O34 Cd32 2.411 1_655 S
O34 C37 1.320 . S
O35 Cd32 2.333 1_655 S
O35 C37 1.214 . S
O36 Cd32 2.352 . S
O36 C39 1.258 . S
C37 O34 1.320 . S
C37 O35 1.214 . S
O38 Cd30 2.277 . S
O38 C33 1.209 1_655 S
C39 O36 1.258 . S
C39 O41 1.282 . S
O40 Cd32 2.277 . S
O40 C33 1.226 . S
O41 Cd32 2.356 . S
O41 C39 1.282 . S
C42 O43 1.306 . S
C42 O45 1.160 1_545 S
O43 C42 1.306 . S
O43 Cd44 2.228 . S
Cd44 O43 2.228 . S
Cd44 O48 2.273 . S
Cd44 O52 2.277 . S
O45 C42 1.160 1_565 S
O45 Cd46 2.203 . S
Cd46 O45 2.203 . S
Cd46 O48 2.411 1_565 S
Cd46 O49 2.333 1_565 S
Cd46 O50 2.352 . S
Cd46 O54 2.277 . S
Cd46 O55 2.356 . S
C47 O52 1.209 . S
C47 O54 1.226 1_545 S
O48 Cd44 2.273 . S
O48 Cd46 2.411 1_545 S
O48 C51 1.320 . S
O49 Cd46 2.333 1_545 S
O49 C51 1.214 . S
O50 Cd46 2.352 . S
O50 C53 1.258 . S
C51 O48 1.320 . S
C51 O49 1.214 . S
O52 Cd44 2.277 . S
O52 C47 1.209 . S
C53 O50 1.258 . S
C53 O55 1.282 . S
O54 Cd46 2.277 . S
O54 C47 1.226 1_565 S
O55 Cd46 2.356 . S
O55 C53 1.282 . S
H56 C74 0.951 . S
H57 C76 0.951 . S
H58 C78 0.950 . S
H59 C79 0.950 . S
H60 C81 0.950 . S
H61 C84 0.950 . S
H62 C85 0.950 . S
H63 C87 0.950 . S
H64 C88 0.950 . S
H65 C89 0.951 . S
H66 C91 0.951 . S
H67 C93 0.950 . S
H68 C94 0.950 . S
H69 C96 0.950 . S
H70 C99 0.950 . S
H71 C100 0.950 . S
H72 C102 0.950 . S
H73 C103 0.950 . S
C74 H56 0.951 . S
C74 C75 1.366 . S
C74 C76 1.388 . S
C75 C74 1.366 . S
C75 C79 1.385 1_455 S
C76 H57 0.951 . S
C76 C74 1.388 . S
C76 C77 1.366 . S
C77 C76 1.366 . S
C77 C78 1.414 1_455 S
C77 C80 1.499 . S
C78 H58 0.950 . S
C78 C77 1.414 1_655 S
C78 C79 1.374 . S
C79 H59 0.950 . S
C79 C75 1.385 1_655 S
C79 C78 1.374 . S
C80 C77 1.499 . S
C80 C81 1.373 1_455 S
C80 C82 1.389 . S
C81 H60 0.950 . S
C81 C80 1.373 1_655 S
C81 C97 1.377 . S
C82 C80 1.389 . S
C82 C83 1.524 . S
C82 C96 1.377 . S
C83 C82 1.524 . S
C83 C84 1.397 . S
C83 C88 1.363 . S
C84 H61 0.950 . S
C84 C83 1.397 . S
C84 C85 1.334 . S
C85 H62 0.950 . S
C85 C84 1.334 . S
C85 C86 1.287 . S
C86 C85 1.287 . S
C86 C87 1.524 . S
C86 H105 0.913 . S
C87 H63 0.950 . S
C87 C86 1.524 . S
C87 C88 1.415 . S
C88 H64 0.950 . S
C88 C83 1.363 . S
C88 C87 1.415 . S
C89 H65 0.951 . S
C89 C90 1.366 1_655 S
C89 C91 1.388 . S
C90 C89 1.366 1_455 S
C90 C94 1.385 . S
C91 H66 0.951 . S
C91 C89 1.388 . S
C91 C92 1.366 1_655 S
C92 C91 1.366 1_455 S
C92 C93 1.414 . S
C92 C95 1.499 . S
C93 H67 0.950 . S
C93 C92 1.414 . S
C93 C94 1.374 . S
C94 H68 0.950 . S
C94 C90 1.385 . S
C94 C93 1.374 . S
C95 C92 1.499 . S
C95 C96 1.373 . S
C95 C97 1.389 1_455 S
C96 H69 0.950 . S
C96 C82 1.377 . S
C96 C95 1.373 . S
C97 C81 1.377 . S
C97 C95 1.389 1_655 S
C97 C98 1.524 . S
C98 C97 1.524 . S
C98 C99 1.397 . S
C98 C103 1.363 . S
C99 H70 0.950 . S
C99 C98 1.397 . S
C99 C100 1.334 . S
C100 H71 0.950 . S
C100 C99 1.334 . S
C100 C101 1.287 . S
C101 C100 1.287 . S
C101 C102 1.524 . S
C101 H104 0.999 . S
C102 H72 0.950 . S
C102 C101 1.524 . S
C102 C103 1.415 . S
C103 H73 0.950 . S
C103 C98 1.363 . S
C103 C102 1.415 . S
H104 C101 0.999 . S
H105 C86 0.913 . S
H106 C124 0.951 . S
H107 C126 0.951 . S
H108 C128 0.950 . S
H109 C129 0.950 . S
H110 C131 0.950 . S
H111 C134 0.950 . S
H112 C135 0.950 . S
H113 C137 0.950 . S
H114 C138 0.950 . S
H115 C139 0.951 . S
H116 C141 0.951 . S
H117 C143 0.950 . S
H118 C144 0.950 . S
H119 C146 0.950 . S
H120 C149 0.950 . S
H121 C150 0.950 . S
H122 C152 0.950 1_565 S
H123 C153 0.950 . S
C124 H106 0.951 . S
C124 C125 1.366 . S
C124 C126 1.388 . S
C125 C124 1.366 . S
C125 C129 1.385 1_545 S
C126 H107 0.951 . S
C126 C124 1.388 . S
C126 C127 1.366 . S
C127 C126 1.366 . S
C127 C128 1.414 1_545 S
C127 C130 1.499 . S
C128 H108 0.950 . S
C128 C127 1.414 1_565 S
C128 C129 1.374 . S
C129 H109 0.950 . S
C129 C125 1.385 1_565 S
C129 C128 1.374 . S
C130 C127 1.499 . S
C130 C131 1.373 . S
C130 C132 1.389 . S
C131 H110 0.950 . S
C131 C130 1.373 . S
C131 C147 1.377 . S
C132 C130 1.389 . S
C132 C133 1.524 1_545 S
C132 C146 1.377 . S
C133 C132 1.524 1_565 S
C133 C134 1.397 . S
C133 C138 1.363 1_565 S
C134 H111 0.950 . S
C134 C133 1.397 . S
C134 C135 1.334 . S
C135 H112 0.950 . S
C135 C134 1.334 . S
C135 C136 1.287 . S
C136 C135 1.287 . S
C136 C137 1.524 1_565 S
C136 H155 0.913 . S
C137 H113 0.950 . S
C137 C136 1.524 1_545 S
C137 C138 1.415 . S
C138 H114 0.950 . S
C138 C133 1.363 1_545 S
C138 C137 1.415 . S
C139 H115 0.951 . S
C139 C140 1.366 1_565 S
C139 C141 1.388 . S
C140 C139 1.366 1_545 S
C140 C144 1.385 . S
C141 H116 0.951 . S
C141 C139 1.388 . S
C141 C142 1.366 1_565 S
C142 C141 1.366 1_545 S
C142 C143 1.414 . S
C142 C145 1.499 . S
C143 H117 0.950 . S
C143 C142 1.414 . S
C143 C144 1.374 . S
C144 H118 0.950 . S
C144 C140 1.385 . S
C144 C143 1.374 . S
C145 C142 1.499 . S
C145 C146 1.373 . S
C145 C147 1.389 . S
C146 H119 0.950 . S
C146 C132 1.377 . S
C146 C145 1.373 . S
C147 C131 1.377 . S
C147 C145 1.389 . S
C147 C148 1.524 . S
C148 C147 1.524 . S
C148 C149 1.397 . S
C148 C153 1.363 1_545 S
C149 H120 0.950 . S
C149 C148 1.397 . S
C149 C150 1.334 . S
C150 H121 0.950 . S
C150 C149 1.334 . S
C150 C151 1.287 . S
C151 C150 1.287 . S
C151 C152 1.524 . S
C151 H154 0.999 . S
C152 H122 0.950 1_545 S
C152 C151 1.524 . S
C152 C153 1.415 1_545 S
C153 H123 0.950 . S
C153 C148 1.363 1_565 S
C153 C152 1.415 1_565 S
H154 C151 0.999 . S
H155 C136 0.913 . S
H156 C174 0.951 . S
H157 C176 0.951 . S
H158 C178 0.950 . S
H159 C179 0.950 . S
H160 C181 0.950 . S
H161 C184 0.950 . S
H162 C185 0.950 . S
H163 C187 0.950 . S
H164 C188 0.950 . S
H165 C189 0.951 . S
H166 C191 0.951 . S
H167 C193 0.950 . S
H168 C194 0.950 . S
H169 C196 0.950 . S
H170 C199 0.950 . S
H171 C200 0.950 . S
H172 C202 0.950 . S
H173 C203 0.950 . S
C174 H156 0.951 . S
C174 C175 1.366 1_655 S
C174 C176 1.388 . S
C175 C174 1.366 1_455 S
C175 C179 1.385 . S
C176 H157 0.951 . S
C176 C174 1.388 . S
C176 C177 1.366 1_655 S
C177 C176 1.366 1_455 S
C177 C178 1.414 . S
C177 C180 1.499 . S
C178 H158 0.950 . S
C178 C177 1.414 . S
C178 C179 1.374 . S
C179 H159 0.950 . S
C179 C175 1.385 . S
C179 C178 1.374 . S
C180 C177 1.499 . S
C180 C181 1.373 . S
C180 C182 1.389 1_455 S
C181 H160 0.950 . S
C181 C180 1.373 . S
C181 C197 1.377 . S
C182 C180 1.389 1_655 S
C182 C183 1.524 . S
C182 C196 1.377 . S
C183 C182 1.524 . S
C183 C184 1.397 . S
C183 C188 1.363 . S
C184 H161 0.950 . S
C184 C183 1.397 . S
C184 C185 1.334 . S
C185 H162 0.950 . S
C185 C184 1.334 . S
C185 C186 1.287 . S
C186 C185 1.287 . S
C186 C187 1.524 . S
C186 H205 0.913 . S
C187 H163 0.950 . S
C187 C186 1.524 . S
C187 C188 1.415 . S
C188 H164 0.950 . S
C188 C183 1.363 . S
C188 C187 1.415 . S
C189 H165 0.951 . S
C189 C190 1.366 . S
C189 C191 1.388 . S
C190 C189 1.366 . S
C190 C194 1.385 1_455 S
C191 H166 0.951 . S
C191 C189 1.388 . S
C191 C192 1.366 . S
C192 C191 1.366 . S
C192 C193 1.414 1_455 S
C192 C195 1.499 . S
C193 H167 0.950 . S
C193 C192 1.414 1_655 S
C193 C194 1.374 . S
C194 H168 0.950 . S
C194 C190 1.385 1_655 S
C194 C193 1.374 . S
C195 C192 1.499 . S
C195 C196 1.373 1_455 S
C195 C197 1.389 . S
C196 H169 0.950 . S
C196 C182 1.377 . S
C196 C195 1.373 1_655 S
C197 C181 1.377 . S
C197 C195 1.389 . S
C197 C198 1.524 . S
C198 C197 1.524 . S
C198 C199 1.397 . S
C198 C203 1.363 . S
C199 H170 0.950 . S
C199 C198 1.397 . S
C199 C200 1.334 . S
C200 H171 0.950 . S
C200 C199 1.334 . S
C200 C201 1.287 . S
C201 C200 1.287 . S
C201 C202 1.524 . S
C201 H204 0.999 . S
C202 H172 0.950 . S
C202 C201 1.524 . S
C202 C203 1.415 . S
C203 H173 0.950 . S
C203 C198 1.363 . S
C203 C202 1.415 . S
H204 C201 0.999 . S
H205 C186 0.913 . S
H206 C224 0.951 . S
H207 C226 0.951 . S
H208 C228 0.950 . S
H209 C229 0.950 . S
H210 C231 0.950 . S
H211 C234 0.950 . S
H212 C235 0.950 . S
H213 C237 0.950 . S
H214 C238 0.951 . S
H215 C239 0.951 . S
H216 C241 0.951 . S
H217 C243 0.950 . S
H218 C244 0.950 . S
H219 C246 0.950 . S
H220 C249 0.950 . S
H221 C250 0.950 . S
H222 C252 0.950 . S
H223 C253 0.950 . S
C224 H206 0.951 . S
C224 C225 1.366 . S
C224 C226 1.388 . S
C225 C224 1.366 . S
C225 C229 1.385 1_545 S
C226 H207 0.951 . S
C226 C224 1.388 . S
C226 C227 1.366 . S
C227 C226 1.366 . S
C227 C228 1.414 1_545 S
C227 C230 1.499 . S
C228 H208 0.950 . S
C228 C227 1.414 1_565 S
C228 C229 1.374 . S
C229 H209 0.950 . S
C229 C225 1.385 1_565 S
C229 C228 1.374 . S
C230 C227 1.499 . S
C230 C231 1.373 1_545 S
C230 C232 1.389 . S
C231 H210 0.950 . S
C231 C230 1.373 1_565 S
C231 C247 1.377 . S
C232 C230 1.389 . S
C232 C233 1.524 . S
C232 C246 1.377 1_554 S
C233 C232 1.524 . S
C233 C234 1.395 1_554 S
C233 C238 1.363 . S
C234 H211 0.950 . S
C234 C233 1.395 1_556 S
C234 C235 1.336 . S
C235 H212 0.950 . S
C235 C234 1.336 . S
C235 C236 1.287 . S
C236 C235 1.287 . S
C236 C237 1.524 . S
C236 H255 0.913 . S
C237 H213 0.950 . S
C237 C236 1.524 . S
C237 C238 1.414 1_556 S
C238 H214 0.951 . S
C238 C233 1.363 . S
C238 C237 1.414 1_554 S
C239 H215 0.951 . S
C239 C240 1.366 1_565 S
C239 C241 1.388 . S
C240 C239 1.366 1_545 S
C240 C244 1.385 . S
C241 H216 0.951 . S
C241 C239 1.388 . S
C241 C242 1.366 1_565 S
C242 C241 1.366 1_545 S
C242 C243 1.414 . S
C242 C245 1.499 . S
C243 H217 0.950 . S
C243 C242 1.414 . S
C243 C244 1.374 . S
C244 H218 0.950 . S
C244 C240 1.385 . S
C244 C243 1.374 . S
C245 C242 1.499 . S
C245 C246 1.373 . S
C245 C247 1.389 1_546 S
C246 H219 0.950 . S
C246 C232 1.377 1_556 S
C246 C245 1.373 . S
C247 C231 1.377 . S
C247 C245 1.389 1_564 S
C247 C248 1.524 . S
C248 C247 1.524 . S
C248 C249 1.397 . S
C248 C253 1.363 . S
C249 H220 0.950 . S
C249 C248 1.397 . S
C249 C250 1.334 . S
C250 H221 0.950 . S
C250 C249 1.334 . S
C250 C251 1.287 . S
C251 C250 1.287 . S
C251 C252 1.524 . S
C251 H254 0.999 . S
C252 H222 0.950 . S
C252 C251 1.524 . S
C252 C253 1.415 . S
C253 H223 0.950 . S
C253 C248 1.363 . S
C253 C252 1.415 . S
H254 C251 0.999 . S
H255 C236 0.913 . S
H256 C274 0.951 . S
H257 C276 0.951 . S
H258 C278 0.950 . S
H259 C279 0.950 . S
H260 C281 0.950 . S
H261 C284 0.950 . S
H262 C285 0.950 . S
H263 C287 0.950 . S
H264 C288 0.950 . S
H265 C289 0.951 . S
H266 C291 0.951 . S
H267 C293 0.950 . S
H268 C294 0.950 . S
H269 C296 0.950 . S
H270 C299 0.950 . S
H271 C300 0.950 . S
H272 C302 0.950 . S
H273 C303 0.950 . S
C274 H256 0.951 . S
C274 C275 1.366 . S
C274 C276 1.388 . S
C275 C274 1.366 . S
C275 C279 1.385 . S
C276 H257 0.951 . S
C276 C274 1.388 . S
C276 C277 1.366 . S
C277 C276 1.366 . S
C277 C278 1.414 . S
C277 C280 1.499 . S
C278 H258 0.950 . S
C278 C277 1.414 . S
C278 C279 1.374 . S
C279 H259 0.950 . S
C279 C275 1.385 . S
C279 C278 1.374 . S
C280 C277 1.499 . S
C280 C281 1.373 . S
C280 C282 1.389 . S
C281 H260 0.950 . S
C281 C280 1.373 . S
C281 C297 1.377 . S
C282 C280 1.389 . S
C282 C283 1.524 . S
C282 C296 1.377 . S
C283 C282 1.524 . S
C283 C284 1.397 . S
C283 C288 1.363 . S
C284 H261 0.950 . S
C284 C283 1.397 . S
C284 C285 1.334 . S
C285 H262 0.950 . S
C285 C284 1.334 . S
C285 C286 1.287 . S
C286 C285 1.287 . S
C286 C287 1.524 . S
C286 H305 0.913 . S
C287 H263 0.950 . S
C287 C286 1.524 . S
C287 C288 1.415 . S
C288 H264 0.950 . S
C288 C283 1.363 . S
C288 C287 1.415 . S
C289 H265 0.951 . S
C289 C290 1.366 . S
C289 C291 1.388 . S
C290 C289 1.366 . S
C290 C294 1.385 . S
C291 H266 0.951 . S
C291 C289 1.388 . S
C291 C292 1.366 . S
C292 C291 1.366 . S
C292 C293 1.414 . S
C292 C295 1.499 . S
C293 H267 0.950 . S
C293 C292 1.414 . S
C293 C294 1.374 . S
C294 H268 0.950 . S
C294 C290 1.385 . S
C294 C293 1.374 . S
C295 C292 1.499 . S
C295 C296 1.373 . S
C295 C297 1.389 . S
C296 H269 0.950 . S
C296 C282 1.377 . S
C296 C295 1.373 . S
C297 C281 1.377 . S
C297 C295 1.389 . S
C297 C298 1.524 . S
C298 C297 1.524 . S
C298 C299 1.397 . S
C298 C303 1.363 . S
C299 H270 0.950 . S
C299 C298 1.397 . S
C299 C300 1.334 1_554 S
C300 H271 0.950 . S
C300 C299 1.334 1_556 S
C300 C301 1.287 . S
C301 C300 1.287 . S
C301 C302 1.524 . S
C301 H304 0.999 . S
C302 H272 0.950 . S
C302 C301 1.524 . S
C302 C303 1.415 1_556 S
C303 H273 0.950 . S
C303 C298 1.363 . S
C303 C302 1.415 1_554 S
H304 C301 0.999 . S
H305 C286 0.913 . S
H306 C324 0.951 . S
H307 C326 0.951 . S
H308 C328 0.950 . S
H309 C329 0.950 . S
H310 C331 0.950 . S
H311 C334 0.950 . S
H312 C335 0.950 . S
H313 C337 0.950 . S
H314 C338 0.950 . S
H315 C339 0.951 . S
H316 C341 0.951 . S
H317 C343 0.950 . S
H318 C344 0.950 . S
H319 C346 0.950 . S
H320 C349 0.950 . S
H321 C350 0.950 . S
H322 C352 0.950 . S
H323 C353 0.950 . S
C324 H306 0.951 . S
C324 C325 1.366 . S
C324 C326 1.388 . S
C325 C324 1.366 . S
C325 C329 1.385 . S
C326 H307 0.951 . S
C326 C324 1.388 . S
C326 C327 1.366 . S
C327 C326 1.366 . S
C327 C328 1.414 . S
C327 C330 1.499 . S
C328 H308 0.950 . S
C328 C327 1.414 . S
C328 C329 1.374 . S
C329 H309 0.950 . S
C329 C325 1.385 . S
C329 C328 1.374 . S
C330 C327 1.499 . S
C330 C331 1.373 . S
C330 C332 1.389 . S
C331 H310 0.950 . S
C331 C330 1.373 . S
C331 C347 1.377 . S
C332 C330 1.389 . S
C332 C333 1.524 . S
C332 C346 1.377 . S
C333 C332 1.524 . S
C333 C334 1.397 . S
C333 C338 1.363 . S
C334 H311 0.950 . S
C334 C333 1.397 . S
C334 C335 1.334 . S
C335 H312 0.950 . S
C335 C334 1.334 . S
C335 C336 1.287 . S
C336 C335 1.287 . S
C336 C337 1.524 . S
C336 H355 0.913 . S
C337 H313 0.950 . S
C337 C336 1.524 . S
C337 C338 1.415 . S
C338 H314 0.950 . S
C338 C333 1.363 . S
C338 C337 1.415 . S
C339 H315 0.951 . S
C339 C340 1.366 . S
C339 C341 1.388 . S
C340 C339 1.366 . S
C340 C344 1.385 . S
C341 H316 0.951 . S
C341 C339 1.388 . S
C341 C342 1.366 . S
C342 C341 1.366 . S
C342 C343 1.414 . S
C342 C345 1.499 . S
C343 H317 0.950 . S
C343 C342 1.414 . S
C343 C344 1.374 . S
C344 H318 0.950 . S
C344 C340 1.385 . S
C344 C343 1.374 . S
C345 C342 1.499 . S
C345 C346 1.373 . S
C345 C347 1.389 . S
C346 H319 0.950 . S
C346 C332 1.377 . S
C346 C345 1.373 . S
C347 C331 1.377 . S
C347 C345 1.389 . S
C347 C348 1.524 . S
C348 C347 1.524 . S
C348 C349 1.397 . S
C348 C353 1.363 . S
C349 H320 0.950 . S
C349 C348 1.397 . S
C349 C350 1.334 . S
C350 H321 0.950 . S
C350 C349 1.334 . S
C350 C351 1.287 . S
C351 C350 1.287 . S
C351 C352 1.524 . S
C351 H354 0.999 . S
C352 H322 0.950 . S
C352 C351 1.524 . S
C352 C353 1.415 . S
C353 H323 0.950 . S
C353 C348 1.363 . S
C353 C352 1.415 . S
H354 C351 0.999 . S
H355 C336 0.913 . S
H356 C374 0.951 . S
H357 C376 0.951 . S
H358 C378 0.950 . S
H359 C379 0.950 . S
H360 C381 0.950 . S
H361 C384 0.950 . S
H362 C385 0.950 . S
H363 C387 0.950 . S
H364 C388 0.950 . S
H365 C389 0.951 . S
H366 C391 0.951 . S
H367 C393 0.950 . S
H368 C394 0.950 . S
H369 C396 0.950 . S
H370 C399 0.950 . S
H371 C400 0.950 . S
H372 C402 0.950 . S
H373 C403 0.950 . S
C374 H356 0.951 . S
C374 C375 1.366 . S
C374 C376 1.388 . S
C375 C374 1.366 . S
C375 C379 1.385 . S
C376 H357 0.951 . S
C376 C374 1.388 . S
C376 C377 1.366 . S
C377 C376 1.366 . S
C377 C378 1.414 . S
C377 C380 1.499 . S
C378 H358 0.950 . S
C378 C377 1.414 . S
C378 C379 1.374 . S
C379 H359 0.950 . S
C379 C375 1.385 . S
C379 C378 1.374 . S
C380 C377 1.499 . S
C380 C381 1.373 . S
C380 C382 1.389 . S
C381 H360 0.950 . S
C381 C380 1.373 . S
C381 C397 1.377 . S
C382 C380 1.389 . S
C382 C383 1.524 . S
C382 C396 1.377 . S
C383 C382 1.524 . S
C383 C384 1.397 . S
C383 C388 1.363 . S
C384 H361 0.950 . S
C384 C383 1.397 . S
C384 C385 1.334 . S
C385 H362 0.950 . S
C385 C384 1.334 . S
C385 C386 1.287 . S
C386 C385 1.287 . S
C386 C387 1.524 . S
C386 H405 0.913 . S
C387 H363 0.950 . S
C387 C386 1.524 . S
C387 C388 1.415 . S
C388 H364 0.950 . S
C388 C383 1.363 . S
C388 C387 1.415 . S
C389 H365 0.951 . S
C389 C390 1.366 . S
C389 C391 1.388 . S
C390 C389 1.366 . S
C390 C394 1.385 . S
C391 H366 0.951 . S
C391 C389 1.388 . S
C391 C392 1.366 . S
C392 C391 1.366 . S
C392 C393 1.414 . S
C392 C395 1.499 . S
C393 H367 0.950 . S
C393 C392 1.414 . S
C393 C394 1.374 . S
C394 H368 0.950 . S
C394 C390 1.385 . S
C394 C393 1.374 . S
C395 C392 1.499 . S
C395 C396 1.373 . S
C395 C397 1.389 . S
C396 H369 0.950 . S
C396 C382 1.377 . S
C396 C395 1.373 . S
C397 C381 1.377 . S
C397 C395 1.389 . S
C397 C398 1.524 . S
C398 C397 1.524 . S
C398 C399 1.397 . S
C398 C403 1.363 . S
C399 H370 0.950 . S
C399 C398 1.397 . S
C399 C400 1.334 . S
C400 H371 0.950 . S
C400 C399 1.334 . S
C400 C401 1.287 . S
C401 C400 1.287 . S
C401 C402 1.524 . S
C401 H404 0.999 . S
C402 H372 0.950 . S
C402 C401 1.524 . S
C402 C403 1.415 . S
C403 H373 0.950 . S
C403 C398 1.363 . S
C403 C402 1.415 . S
H404 C401 0.999 . S
H405 C386 0.913 . S
H406 C424 0.951 . S
H407 C426 0.951 . S
H408 C428 0.950 . S
H409 C429 0.950 . S
H410 C431 0.950 . S
H411 C434 0.950 . S
H412 C435 0.950 . S
H413 C437 0.950 . S
H414 C438 0.950 . S
H415 C439 0.951 . S
H416 C441 0.951 . S
H417 C443 0.950 . S
H418 C444 0.950 1_554 S
H419 C446 0.950 . S
H420 C449 0.950 . S
H421 C450 0.950 . S
H422 C452 0.950 . S
H423 C453 0.950 . S
C424 H406 0.951 . S
C424 C425 1.366 . S
C424 C426 1.388 . S
C425 C424 1.366 . S
C425 C429 1.385 . S
C426 H407 0.951 . S
C426 C424 1.388 . S
C426 C427 1.366 . S
C427 C426 1.366 . S
C427 C428 1.414 . S
C427 C430 1.499 . S
C428 H408 0.950 . S
C428 C427 1.414 . S
C428 C429 1.374 . S
C429 H409 0.950 . S
C429 C425 1.385 . S
C429 C428 1.374 . S
C430 C427 1.499 . S
C430 C431 1.373 . S
C430 C432 1.389 . S
C431 H410 0.950 . S
C431 C430 1.373 . S
C431 C447 1.377 . S
C432 C430 1.389 . S
C432 C433 1.524 . S
C432 C446 1.377 . S
C433 C432 1.524 . S
C433 C434 1.397 . S
C433 C438 1.363 . S
C434 H411 0.950 . S
C434 C433 1.397 . S
C434 C435 1.334 . S
C435 H412 0.950 . S
C435 C434 1.334 . S
C435 C436 1.287 . S
C436 C435 1.287 . S
C436 C437 1.524 . S
C436 H455 0.913 . S
C437 H413 0.950 . S
C437 C436 1.524 . S
C437 C438 1.415 . S
C438 H414 0.950 . S
C438 C433 1.363 . S
C438 C437 1.415 . S
C439 H415 0.951 . S
C439 C440 1.366 . S
C439 C441 1.388 . S
C440 C439 1.366 . S
C440 C444 1.385 . S
C441 H416 0.951 . S
C441 C439 1.388 . S
C441 C442 1.366 . S
C442 C441 1.366 . S
C442 C443 1.414 . S
C442 C445 1.499 . S
C443 H417 0.950 . S
C443 C442 1.414 . S
C443 C444 1.374 . S
C444 H418 0.950 1_556 S
C444 C440 1.385 . S
C444 C443 1.374 . S
C445 C442 1.499 . S
C445 C446 1.373 . S
C445 C447 1.389 . S
C446 H419 0.950 . S
C446 C432 1.377 . S
C446 C445 1.373 . S
C447 C431 1.377 . S
C447 C445 1.389 . S
C447 C448 1.524 . S
C448 C447 1.524 . S
C448 C449 1.397 . S
C448 C453 1.363 . S
C449 H420 0.950 . S
C449 C448 1.397 . S
C449 C450 1.334 . S
C450 H421 0.950 . S
C450 C449 1.334 . S
C450 C451 1.287 . S
C451 C450 1.287 . S
C451 C452 1.524 . S
C451 H454 0.999 . S
C452 H422 0.950 . S
C452 C451 1.524 . S
C452 C453 1.415 . S
C453 H423 0.950 . S
C453 C448 1.363 . S
C453 C452 1.415 . S
H454 C451 0.999 . S
H455 C436 0.913 . S
C75 C5 1.382 . S
C90 C28 1.379 . S
C125 C14 1.379 . S
C140 C47 1.382 . S
C175 C0 1.379 . S
C190 C33 1.382 . S
C225 C19 1.382 . S
C240 C42 1.379 . S
C275 C23 1.471 . S
C290 C9 1.471 . S
C325 C25 1.475 . S
C340 C39 1.475 . S
C375 C51 1.471 . S
C390 C37 1.471 . S
C425 C53 1.475 . S
C440 C11 1.475 . S
