# Generated by pormake.
# Topology gan, (5)-cn, num edge types: 1
# Building blocks:
#     Node 0, Type 0, BuildingBlock: XOMCOT_clean_sbu_1, # of connection points: 5
#     Node 1, Type 0, BuildingBlock: XOMCOT_clean_sbu_1, # of connection points: 5
#     Node 2, Type 0, BuildingBlock: XOMCOT_clean_sbu_1, # of connection points: 5
#     Node 3, Type 0, BuildingBlock: XOMCOT_clean_sbu_1, # of connection points: 5
#     Node 4, Type 0, BuildingBlock: XOMCOT_clean_sbu_1, # of connection points: 5
#     Node 5, Type 0, BuildingBlock: XOMCOT_clean_sbu_1, # of connection points: 5
#     Node 6, Type 0, BuildingBlock: XOMCOT_clean_sbu_1, # of connection points: 5
#     Node 7, Type 0, BuildingBlock: XOMCOT_clean_sbu_1, # of connection points: 5
#     Node 8, Type 0, BuildingBlock: XOMCOT_clean_sbu_1, # of connection points: 5
#     Node 9, Type 0, BuildingBlock: XOMCOT_clean_sbu_1, # of connection points: 5
#     Node 10, Type 0, BuildingBlock: XOMCOT_clean_sbu_1, # of connection points: 5
#     Node 11, Type 0, BuildingBlock: XOMCOT_clean_sbu_1, # of connection points: 5
#     Node 12, Type 0, BuildingBlock: XOMCOT_clean_sbu_1, # of connection points: 5
#     Node 13, Type 0, BuildingBlock: XOMCOT_clean_sbu_1, # of connection points: 5
#     Node 14, Type 0, BuildingBlock: XOMCOT_clean_sbu_1, # of connection points: 5
#     Node 15, Type 0, BuildingBlock: XOMCOT_clean_sbu_1, # of connection points: 5
#     Edge 16, Type (0, 0), BuildingBlock: XIVTED_clean_linker_0, # of connection points: 2
#     Edge 17, Type (0, 0), BuildingBlock: XIVTED_clean_linker_0, # of connection points: 2
#     Edge 18, Type (0, 0), BuildingBlock: XIVTED_clean_linker_0, # of connection points: 2
#     Edge 19, Type (0, 0), BuildingBlock: XIVTED_clean_linker_0, # of connection points: 2
#     Edge 20, Type (0, 0), BuildingBlock: XIVTED_clean_linker_0, # of connection points: 2
#     Edge 21, Type (0, 0), BuildingBlock: XIVTED_clean_linker_0, # of connection points: 2
#     Edge 22, Type (0, 0), BuildingBlock: XIVTED_clean_linker_0, # of connection points: 2
#     Edge 23, Type (0, 0), BuildingBlock: XIVTED_clean_linker_0, # of connection points: 2
#     Edge 24, Type (0, 0), BuildingBlock: XIVTED_clean_linker_0, # of connection points: 2
#     Edge 25, Type (0, 0), BuildingBlock: XIVTED_clean_linker_0, # of connection points: 2
#     Edge 26, Type (0, 0), BuildingBlock: XIVTED_clean_linker_0, # of connection points: 2
#     Edge 27, Type (0, 0), BuildingBlock: XIVTED_clean_linker_0, # of connection points: 2
#     Edge 28, Type (0, 0), BuildingBlock: XIVTED_clean_linker_0, # of connection points: 2
#     Edge 29, Type (0, 0), BuildingBlock: XIVTED_clean_linker_0, # of connection points: 2
#     Edge 30, Type (0, 0), BuildingBlock: XIVTED_clean_linker_0, # of connection points: 2
#     Edge 31, Type (0, 0), BuildingBlock: XIVTED_clean_linker_0, # of connection points: 2
#     Edge 32, Type (0, 0), BuildingBlock: XIVTED_clean_linker_0, # of connection points: 2
#     Edge 33, Type (0, 0), BuildingBlock: XIVTED_clean_linker_0, # of connection points: 2
#     Edge 34, Type (0, 0), BuildingBlock: XIVTED_clean_linker_0, # of connection points: 2
#     Edge 35, Type (0, 0), BuildingBlock: XIVTED_clean_linker_0, # of connection points: 2
#     Edge 36, Type (0, 0), BuildingBlock: XIVTED_clean_linker_0, # of connection points: 2
#     Edge 37, Type (0, 0), BuildingBlock: XIVTED_clean_linker_0, # of connection points: 2
#     Edge 38, Type (0, 0), BuildingBlock: XIVTED_clean_linker_0, # of connection points: 2
#     Edge 39, Type (0, 0), BuildingBlock: XIVTED_clean_linker_0, # of connection points: 2
#     Edge 40, Type (0, 0), BuildingBlock: XIVTED_clean_linker_0, # of connection points: 2
#     Edge 41, Type (0, 0), BuildingBlock: XIVTED_clean_linker_0, # of connection points: 2
#     Edge 42, Type (0, 0), BuildingBlock: XIVTED_clean_linker_0, # of connection points: 2
#     Edge 43, Type (0, 0), BuildingBlock: XIVTED_clean_linker_0, # of connection points: 2
#     Edge 44, Type (0, 0), BuildingBlock: XIVTED_clean_linker_0, # of connection points: 2
#     Edge 45, Type (0, 0), BuildingBlock: XIVTED_clean_linker_0, # of connection points: 2
#     Edge 46, Type (0, 0), BuildingBlock: XIVTED_clean_linker_0, # of connection points: 2
#     Edge 47, Type (0, 0), BuildingBlock: XIVTED_clean_linker_0, # of connection points: 2
#     Edge 48, Type (0, 0), BuildingBlock: XIVTED_clean_linker_0, # of connection points: 2
#     Edge 49, Type (0, 0), BuildingBlock: XIVTED_clean_linker_0, # of connection points: 2
#     Edge 50, Type (0, 0), BuildingBlock: XIVTED_clean_linker_0, # of connection points: 2
#     Edge 51, Type (0, 0), BuildingBlock: XIVTED_clean_linker_0, # of connection points: 2
#     Edge 52, Type (0, 0), BuildingBlock: XIVTED_clean_linker_0, # of connection points: 2
#     Edge 53, Type (0, 0), BuildingBlock: XIVTED_clean_linker_0, # of connection points: 2
#     Edge 54, Type (0, 0), BuildingBlock: XIVTED_clean_linker_0, # of connection points: 2
#     Edge 55, Type (0, 0), BuildingBlock: XIVTED_clean_linker_0, # of connection points: 2
# Relax obj value: 0.083
# Max RMSD: 0.106
# Mean RMSD: 0.096
data_MOF--net-gan--node1-XOMCOT_clean_sbu_1--edge1-XIVTED_clean_linker_0
_symmetry_space_group_name_H-M    P1
_symmetry_Int_Tables_number       1
_symmetry_cell_setting            triclinic
loop_
_symmetry_equiv_pos_as_xyz
'x, y, z'
_cell_length_a     42.551341
_cell_length_b     42.392513
_cell_length_c     41.393646
_cell_angle_alpha  90.515564
_cell_angle_beta   90.425037
_cell_angle_gamma 90.801072
loop_
_atom_site_label
_atom_site_type_symbol
_atom_site_fract_x
_atom_site_fract_y
_atom_site_fract_z
_atom_type_partial_charge
C0 C 0.14308 0.1619 0.22225 0.0
C1 C 0.12273 0.14167 0.20604 0.0
N2 N 0.12383 0.14786 0.17413 0.0
N3 N 0.15752 0.18096 0.20099 0.0
C4 C 0.14509 0.17205 0.1718 0.0
H5 H 0.14669 0.16301 0.24812 0.0
Co6 Co 0.18628 0.21367 0.21347 0.0
C7 C 0.23073 0.21738 0.15861 0.0
O8 O 0.25451 0.22187 0.17865 0.0
N9 N 0.21452 0.24755 0.2264 0.0
C10 C 0.23784 0.29499 0.22477 0.0
C11 C 0.21842 0.27388 0.20869 0.0
C12 C 0.23172 0.2538 0.25375 0.0
N13 N 0.24628 0.28263 0.25338 0.0
O14 O 0.15588 0.24355 0.20143 0.0
H15 H 0.20748 0.2777 0.18541 0.0
H16 H 0.23281 0.23808 0.27408 0.0
O17 O 0.20295 0.21385 0.16963 0.0
C18 C 0.13977 0.25391 0.22493 0.0
O19 O 0.14723 0.24528 0.25439 0.0
N20 N 0.21445 0.18311 0.22771 0.0
C21 C 0.2422 0.13068 0.25648 0.0
C22 C 0.24553 0.13651 0.22325 0.0
C23 C 0.23025 0.1619 0.20914 0.0
C24 C 0.21229 0.17889 0.26015 0.0
C25 C 0.22578 0.15295 0.27499 0.0
H26 H 0.22959 0.16284 0.18318 0.0
H27 H 0.19777 0.19449 0.27426 0.0
H28 H 0.1514 0.1832 0.14931 0.0
H29 H 0.10758 0.1243 0.21725 0.0
H30 H 0.2451 0.31781 0.21577 0.0
H31 H 0.25817 0.12068 0.20757 0.0
H32 H 0.22116 0.14956 0.30037 0.0
C33 C 0.22525 0.8609 0.26843 0.0
C34 C 0.24565 0.84419 0.24942 0.0
N35 N 0.24987 0.81548 0.26231 0.0
N36 N 0.21615 0.84337 0.2938 0.0
C37 C 0.23175 0.81558 0.28948 0.0
H38 H 0.21637 0.88407 0.26315 0.0
Co39 Co 0.18237 0.85809 0.32061 0.0
C40 C 0.18838 0.82959 0.38499 0.0
O41 O 0.15778 0.82576 0.38698 0.0
N42 N 0.14694 0.87414 0.34682 0.0
C43 C 0.09804 0.87953 0.36596 0.0
C44 C 0.1167 0.8638 0.34439 0.0
C45 C 0.14528 0.89717 0.37036 0.0
N46 N 0.11571 0.90075 0.38244 0.0
O47 O 0.20631 0.89513 0.33073 0.0
H48 H 0.10805 0.84558 0.32821 0.0
H49 H 0.16543 0.91079 0.37888 0.0
O50 O 0.20076 0.83901 0.35865 0.0
C51 C 0.19676 0.92086 0.31899 0.0
O52 O 0.1706 0.92108 0.30196 0.0
N53 N 0.15924 0.82257 0.30788 0.0
C54 C 0.11354 0.78085 0.28471 0.0
C55 C 0.13288 0.77251 0.31087 0.0
C56 C 0.15626 0.79363 0.32177 0.0
C57 C 0.1439 0.82894 0.27976 0.0
C58 C 0.1209 0.80835 0.26766 0.0
H59 H 0.17076 0.7871 0.34199 0.0
H60 H 0.14792 0.85137 0.26811 0.0
H61 H 0.22846 0.79526 0.30479 0.0
H62 H 0.25613 0.8524 0.22722 0.0
H63 H 0.07299 0.87593 0.36892 0.0
H64 H 0.12853 0.75109 0.32428 0.0
H65 H 0.10732 0.81514 0.24667 0.0
C66 C 0.36049 0.80184 0.68032 0.0
C67 C 0.34237 0.77999 0.69632 0.0
N68 N 0.32635 0.79463 0.71996 0.0
N69 N 0.35648 0.8307 0.69333 0.0
C70 C 0.33523 0.82565 0.71748 0.0
H71 H 0.37583 0.79696 0.66023 0.0
Co72 Co 0.38005 0.8657 0.67629 0.0
C73 C 0.34839 0.92253 0.6992 0.0
O74 O 0.34967 0.93282 0.66937 0.0
N75 N 0.40547 0.90077 0.65888 0.0
C76 C 0.44038 0.9408 0.66183 0.0
C77 C 0.42056 0.92138 0.67896 0.0
C78 C 0.41698 0.90869 0.6291 0.0
N79 N 0.43837 0.93294 0.63033 0.0
O80 O 0.41244 0.8587 0.70732 0.0
H81 H 0.41814 0.92164 0.70495 0.0
H82 H 0.41125 0.89615 0.60698 0.0
O83 O 0.35904 0.89524 0.70587 0.0
C84 C 0.43372 0.84462 0.69148 0.0
O85 O 0.42832 0.83752 0.66095 0.0
N86 N 0.34999 0.86926 0.64372 0.0
C87 C 0.31157 0.86338 0.58924 0.0
C88 C 0.29901 0.87315 0.61896 0.0
C89 C 0.31866 0.87543 0.64627 0.0
C90 C 0.36174 0.85763 0.61567 0.0
C91 C 0.34325 0.85515 0.58803 0.0
H92 H 0.3086 0.88134 0.6694 0.0
H93 H 0.3856 0.84932 0.615 0.0
H94 H 0.32686 0.84417 0.73325 0.0
H95 H 0.34088 0.75505 0.69056 0.0
H96 H 0.45551 0.95917 0.67194 0.0
H97 H 0.27435 0.87871 0.62109 0.0
H98 H 0.35352 0.84586 0.56611 0.0
C99 C 0.37552 0.16299 0.92179 0.0
C100 C 0.3967 0.14729 0.9408 0.0
N101 N 0.39027 0.11603 0.93948 0.0
N102 N 0.3552 0.14233 0.90784 0.0
C103 C 0.36461 0.11369 0.91931 0.0
H104 H 0.37476 0.18825 0.91847 0.0
Co105 Co 0.32242 0.15868 0.88038 0.0
C106 C 0.30483 0.10851 0.83425 0.0
O107 O 0.30278 0.13085 0.81258 0.0
N108 N 0.28837 0.1769 0.85368 0.0
C109 C 0.23888 0.18213 0.83575 0.0
C110 C 0.25899 0.16439 0.85412 0.0
C111 C 0.28482 0.20316 0.83477 0.0
N112 N 0.25484 0.20679 0.82328 0.0
O113 O 0.2937 0.15349 0.91527 0.0
H114 H 0.25233 0.14356 0.86747 0.0
H115 H 0.3036 0.21966 0.82962 0.0
O116 O 0.31257 0.11569 0.86345 0.0
C117 C 0.28528 0.17918 0.92864 0.0
O118 O 0.29402 0.20611 0.91581 0.0
N119 N 0.35255 0.16543 0.84834 0.0
C120 C 0.40864 0.18004 0.81726 0.0
C121 C 0.399 0.14861 0.82085 0.0
C122 C 0.37106 0.14175 0.83684 0.0
C123 C 0.36147 0.19614 0.84461 0.0
C124 C 0.38907 0.20404 0.82842 0.0
H125 H 0.36614 0.11741 0.84254 0.0
H126 H 0.34877 0.21451 0.85693 0.0
H127 H 0.35298 0.09163 0.91292 0.0
H128 H 0.41511 0.15847 0.95517 0.0
H129 H 0.21397 0.17746 0.83274 0.0
H130 H 0.41401 0.12948 0.81337 0.0
H131 H 0.39644 0.22857 0.82735 0.0
C132 C 0.74882 0.33123 0.83029 0.0
C133 C 0.76843 0.30968 0.8163 0.0
N134 N 0.75575 0.29961 0.78807 0.0
N135 N 0.72308 0.33514 0.8116 0.0
C136 C 0.72822 0.31568 0.78557 0.0
H137 H 0.75352 0.34369 0.85274 0.0
Co138 Co 0.69032 0.36462 0.82347 0.0
C139 C 0.68507 0.34642 0.89363 0.0
O140 O 0.65615 0.33526 0.89173 0.0
N141 N 0.65847 0.3955 0.83564 0.0
C142 C 0.62703 0.43701 0.82943 0.0
C143 C 0.64662 0.416 0.81415 0.0
C144 C 0.64598 0.4056 0.86433 0.0
N145 N 0.62645 0.43072 0.86132 0.0
O146 O 0.72059 0.3979 0.82465 0.0
H147 H 0.65234 0.416 0.78873 0.0
H148 H 0.65202 0.3959 0.88741 0.0
O149 O 0.69862 0.35732 0.86863 0.0
C150 C 0.73224 0.40585 0.7977 0.0
O151 O 0.72387 0.38988 0.77159 0.0
N152 N 0.66023 0.33205 0.82025 0.0
C153 C 0.61487 0.28501 0.80876 0.0
C154 C 0.64185 0.27875 0.82726 0.0
C155 C 0.66447 0.30256 0.83243 0.0
C156 C 0.63516 0.33788 0.80069 0.0
C157 C 0.61193 0.31504 0.79522 0.0
H158 H 0.6854 0.29732 0.84624 0.0
H159 H 0.63314 0.36024 0.78877 0.0
H160 H 0.71199 0.31313 0.76544 0.0
H161 H 0.79082 0.30236 0.82604 0.0
H162 H 0.61444 0.4557 0.81762 0.0
H163 H 0.64563 0.25568 0.83746 0.0
H164 H 0.59164 0.32122 0.7808 0.0
C165 C 0.83931 0.31457 0.17145 0.0
C166 C 0.81951 0.29385 0.18692 0.0
N167 N 0.81768 0.30235 0.21823 0.0
N168 N 0.84996 0.33692 0.19238 0.0
C169 C 0.83663 0.32852 0.22109 0.0
H170 H 0.84535 0.31357 0.14614 0.0
Co171 Co 0.87688 0.37073 0.17745 0.0
C172 C 0.8522 0.428 0.2068 0.0
O173 O 0.85388 0.44022 0.17778 0.0
N174 N 0.90544 0.40431 0.16214 0.0
C175 C 0.94094 0.4437 0.16716 0.0
C176 C 0.92144 0.42314 0.1833 0.0
C177 C 0.91716 0.41356 0.13285 0.0
N178 N 0.93844 0.43783 0.13526 0.0
O179 O 0.90988 0.35689 0.2047 0.0
H180 H 0.91944 0.42177 0.20928 0.0
H181 H 0.91081 0.40277 0.11 0.0
O182 O 0.86075 0.39948 0.21131 0.0
C183 C 0.92502 0.33816 0.1865 0.0
O184 O 0.9132 0.33144 0.15777 0.0
N185 N 0.84535 0.38156 0.14806 0.0
C186 C 0.80123 0.38654 0.09862 0.0
C187 C 0.79236 0.39134 0.1308 0.0
C188 C 0.81485 0.38832 0.1554 0.0
C189 C 0.85344 0.37459 0.11713 0.0
C190 C 0.83211 0.37786 0.09195 0.0
H191 H 0.8075 0.39025 0.18026 0.0
H192 H 0.87608 0.36455 0.11221 0.0
H193 H 0.84019 0.34162 0.24341 0.0
H194 H 0.8075 0.27371 0.17598 0.0
H195 H 0.95663 0.46103 0.17826 0.0
H196 H 0.7683 0.39676 0.13684 0.0
H197 H 0.83929 0.37206 0.06757 0.0
C198 C 0.86942 0.6681 0.43264 0.0
C199 C 0.89085 0.65235 0.45139 0.0
N200 N 0.88595 0.62095 0.44808 0.0
N201 N 0.85051 0.64728 0.41696 0.0
C202 C 0.86099 0.61855 0.42706 0.0
H203 H 0.86759 0.69343 0.43065 0.0
Co204 Co 0.81766 0.66252 0.38894 0.0
C205 C 0.80522 0.61254 0.34117 0.0
O206 O 0.80272 0.63496 0.31964 0.0
N207 N 0.78334 0.67916 0.3613 0.0
C208 C 0.7344 0.68162 0.341 0.0
C209 C 0.75473 0.6649 0.36018 0.0
C210 C 0.77903 0.70533 0.34242 0.0
N211 N 0.74945 0.70731 0.32956 0.0
O212 O 0.78819 0.65453 0.42257 0.0
H213 H 0.74878 0.64349 0.37291 0.0
H214 H 0.79694 0.72294 0.33803 0.0
O215 O 0.81132 0.6197 0.37069 0.0
C216 C 0.77784 0.67946 0.43597 0.0
O217 O 0.78528 0.707 0.42365 0.0
N218 N 0.84817 0.67239 0.3584 0.0
C219 C 0.90161 0.69418 0.32625 0.0
C220 C 0.89588 0.66168 0.32995 0.0
C221 C 0.86908 0.65127 0.34624 0.0
C222 C 0.85369 0.70387 0.35561 0.0
C223 C 0.87924 0.71524 0.33832 0.0
H224 H 0.86662 0.6264 0.35123 0.0
H225 H 0.83926 0.72035 0.36864 0.0
H226 H 0.85067 0.59635 0.41901 0.0
H227 H 0.90839 0.66354 0.46687 0.0
H228 H 0.70996 0.67549 0.33662 0.0
H229 H 0.91283 0.6444 0.32233 0.0
H230 H 0.88207 0.74052 0.33604 0.0
C231 C 0.88776 0.91172 0.98054 0.0
C232 C 0.86967 0.8892 0.96466 0.0
N233 N 0.86974 0.89527 0.93268 0.0
N234 N 0.89957 0.93221 0.95901 0.0
C235 C 0.88809 0.92168 0.93002 0.0
H236 H 0.89163 0.91344 1.00636 0.0
Co237 Co 0.92409 0.96811 0.97113 0.0
C238 C 0.95564 0.98614 0.90947 0.0
O239 O 0.98275 0.99201 0.92388 0.0
N240 N 0.94852 1.00505 0.98404 0.0
C241 C 0.96493 0.05534 0.98621 0.0
C242 C 0.94556 0.03373 0.97053 0.0
C243 C 0.96976 1.0103 1.00846 0.0
N244 N 0.98034 0.04072 1.01026 0.0
O245 O 0.88709 0.99246 0.96818 0.0
H246 H 0.92985 0.0388 0.95064 0.0
H247 H 0.97731 0.99237 0.02495 0.0
O248 O 0.9322 0.97639 0.92582 0.0
C249 C 0.8748 0.99878 0.99532 0.0
O250 O 0.89123 0.99367 1.02173 0.0
N251 N 0.95867 0.94223 0.97642 0.0
C252 C 1.00083 0.89585 0.99458 0.0
C253 C 0.99659 0.90338 0.96188 0.0
C254 C 0.97478 0.92625 0.95319 0.0
C255 C 0.96221 0.93474 1.00814 0.0
C256 C 0.98355 0.91211 1.01785 0.0
H257 H 0.96962 0.92943 0.92791 0.0
H258 H 0.94738 0.94574 0.02599 0.0
H259 H 0.89293 0.93332 0.90744 0.0
H260 H 0.85681 0.87028 0.97619 0.0
H261 H 0.96673 0.08019 0.98069 0.0
H262 H 1.00849 0.89034 0.94309 0.0
H263 H 0.98569 0.90665 0.04328 0.0
C264 C 0.93995 0.1296 0.6532 0.0
C265 C 0.92281 0.14734 0.67456 0.0
N266 N 0.89505 0.15464 0.66078 0.0
N267 N 0.92342 0.12499 0.62566 0.0
C268 C 0.89611 0.14094 0.63082 0.0
H269 H 0.9632 0.12048 0.65751 0.0
Co270 Co 0.9408 0.10084 0.59071 0.0
C271 C 0.88618 0.0725 0.55742 0.0
O272 O 0.90096 0.04548 0.55725 0.0
N273 N 0.95928 0.07717 0.55446 0.0
C274 C 0.97121 0.06928 0.50239 0.0
C275 C 0.95331 0.08614 0.52378 0.0
C276 C 0.98126 0.05402 0.55054 0.0
N277 N 0.98903 0.04896 0.51893 0.0
O278 O 0.94898 0.13948 0.56894 0.0
H279 H 0.93727 0.10464 0.51723 0.0
H280 H 0.99241 0.04193 0.57032 0.0
O281 O 0.8992 0.09693 0.57038 0.0
C282 C 0.97804 0.14654 0.57196 0.0
O283 O 0.99685 0.12565 0.58477 0.0
N284 N 0.93536 0.06437 0.61549 0.0
C285 C 0.93515 0.02948 0.67265 0.0
C286 C 0.90688 0.03693 0.65682 0.0
C287 C 0.90745 0.05514 0.62881 0.0
C288 C 0.963 0.05544 0.62918 0.0
C289 C 0.96347 0.03795 0.65757 0.0
H290 H 0.88549 0.06435 0.6201 0.0
H291 H 0.98486 0.06522 0.62035 0.0
H292 H 0.87721 0.14204 0.61325 0.0
H293 H 0.93045 0.15458 0.69853 0.0
H294 H 0.97126 0.07198 0.4764 0.0
H295 H 0.88434 0.0308 0.66715 0.0
H296 H 0.98597 0.03384 0.66902 0.0
C297 C 0.56907 0.1102 0.44844 0.0
C298 C 0.54814 0.09321 0.46676 0.0
N299 N 0.56014 0.06466 0.4726 0.0
N300 N 0.59494 0.09302 0.44237 0.0
C301 C 0.58842 0.06493 0.45726 0.0
H302 H 0.5647 0.13347 0.43935 0.0
Co303 Co 0.62836 0.10644 0.41314 0.0
C304 C 0.66612 0.08283 0.47078 0.0
O305 O 0.64317 0.0828 0.49177 0.0
N306 N 0.6613 0.11971 0.38375 0.0
C307 C 0.70834 0.11958 0.35997 0.0
C308 C 0.68702 0.10235 0.3778 0.0
C309 C 0.66755 0.14747 0.36819 0.0
N310 N 0.6963 0.14816 0.35392 0.0
O311 O 0.625 0.0662 0.39147 0.0
H312 H 0.69067 0.07884 0.38691 0.0
H313 H 0.65207 0.16743 0.36832 0.0
O314 O 0.66124 0.09125 0.44167 0.0
C315 C 0.6004 0.06566 0.37367 0.0
O316 O 0.58308 0.09108 0.37282 0.0
N317 N 0.62986 0.14673 0.43189 0.0
C318 C 0.63174 0.21138 0.44351 0.0
C319 C 0.65065 0.19131 0.46172 0.0
C320 C 0.6497 0.15881 0.45519 0.0
C321 C 0.61054 0.16603 0.41505 0.0
C322 C 0.61112 0.19838 0.42041 0.0
H323 H 0.66582 0.14406 0.468 0.0
H324 H 0.59568 0.15622 0.39606 0.0
H325 H 0.60373 0.04478 0.45615 0.0
H326 H 0.52556 0.10131 0.47512 0.0
H327 H 0.73122 0.1117 0.35232 0.0
H328 H 0.66686 0.20078 0.47975 0.0
H329 H 0.59599 0.21324 0.40609 0.0
C330 C 0.6482 0.91953 0.159 0.0
C331 C 0.66779 0.9026 0.17882 0.0
N332 N 0.652 0.87739 0.19044 0.0
N333 N 0.61962 0.9054 0.15714 0.0
C334 C 0.62265 0.87992 0.17713 0.0
H335 H 0.65479 0.94103 0.14691 0.0
Co336 Co 0.58316 0.9206 0.13305 0.0
C337 C 0.58997 0.85361 0.11013 0.0
O338 O 0.62071 0.85475 0.11337 0.0
N339 N 0.54607 0.93533 0.10951 0.0
C340 C 0.49619 0.93476 0.09214 0.0
C341 C 0.51826 0.91979 0.1108 0.0
C342 C 0.53984 0.96018 0.08952 0.0
N343 N 0.50947 0.96036 0.07834 0.0
O344 O 0.55904 0.91344 0.17116 0.0
H345 H 0.5141 0.8987 0.12475 0.0
H346 H 0.55725 0.97777 0.08307 0.0
O347 O 0.57369 0.87793 0.11672 0.0
C348 C 0.55224 0.93959 0.18467 0.0
O349 O 0.55589 0.96567 0.16814 0.0
N350 N 0.60832 0.93169 0.09786 0.0
C351 C 0.65553 0.95896 0.06045 0.0
C352 C 0.64459 0.92804 0.05389 0.0
C353 C 0.62035 0.91496 0.07258 0.0
C354 C 0.61641 0.96261 0.10221 0.0
C355 C 0.63952 0.97683 0.08357 0.0
H356 H 0.6124 0.8913 0.06719 0.0
H357 H 0.60598 0.97585 0.12175 0.0
H358 H 0.60356 0.86349 0.1818 0.0
H359 H 0.69218 0.90845 0.18382 0.0
H360 H 0.4719 0.92728 0.08952 0.0
H361 H 0.65565 0.91345 0.03577 0.0
H362 H 0.64587 1.00121 0.08857 0.0
C363 C 0.45196 0.65752 0.13788 0.0
C364 C 0.43477 0.67735 0.15723 0.0
N365 N 0.40404 0.67398 0.14967 0.0
N366 N 0.43263 0.64119 0.11773 0.0
C367 C 0.40337 0.65195 0.12534 0.0
H368 H 0.4771 0.65434 0.13923 0.0
Co369 Co 0.44896 0.60737 0.09154 0.0
C370 C 0.3919 0.58145 0.05763 0.0
O371 O 0.3994 0.55229 0.06417 0.0
N372 N 0.46682 0.5722 0.06528 0.0
C373 C 0.48062 0.52265 0.05272 0.0
C374 C 0.46358 0.54131 0.07304 0.0
C375 C 0.48659 0.57091 0.03909 0.0
N376 N 0.49563 0.5409 0.03128 0.0
O377 O 0.46389 0.63789 0.06168 0.0
H378 H 0.4496 0.53206 0.09251 0.0
H379 H 0.49513 0.59158 0.0266 0.0
O380 O 0.40919 0.60435 0.06791 0.0
C381 C 0.49278 0.64448 0.06706 0.0
O382 O 0.50884 0.62577 0.08598 0.0
N383 N 0.43686 0.57985 0.12398 0.0
C384 C 0.43018 0.55073 0.18376 0.0
C385 C 0.40361 0.5581 0.16497 0.0
C386 C 0.40744 0.5732 0.13522 0.0
C387 C 0.46276 0.57272 0.14176 0.0
C388 C 0.46002 0.55801 0.17143 0.0
H389 H 0.38686 0.58106 0.12237 0.0
H390 H 0.48575 0.57987 0.13331 0.0
H391 H 0.3819 0.64274 0.11444 0.0
H392 H 0.44429 0.69292 0.17584 0.0
H393 H 0.4818 0.49719 0.05381 0.0
H394 H 0.3801 0.55331 0.17364 0.0
H395 H 0.48125 0.5541 0.18532 0.0
C396 C 0.13062 0.5534 0.95452 0.0
C397 C 0.11379 0.53334 0.97412 0.0
N398 N 0.08607 0.54663 0.9813 0.0
N399 N 0.11394 0.57964 0.94891 0.0
C400 C 0.08681 0.57485 0.96574 0.0
H401 H 0.15334 0.54862 0.94416 0.0
Co402 Co 0.12654 0.61202 0.91922 0.0
C403 C 0.1918 0.62928 0.93925 0.0
O404 O 0.18486 0.65922 0.93603 0.0
N405 N 0.1387 0.64457 0.88789 0.0
C406 C 0.13378 0.68629 0.85553 0.0
C407 C 0.11846 0.66582 0.87586 0.0
C408 C 0.16616 0.65189 0.87221 0.0
N409 N 0.16416 0.67812 0.85341 0.0
O410 O 0.13134 0.5805 0.8864 0.0
H411 H 0.09368 0.66647 0.88091 0.0
H412 H 0.18756 0.63872 0.87511 0.0
O413 O 0.17075 0.60799 0.93345 0.0
C414 C 0.10378 0.57577 0.87484 0.0
O415 O 0.08094 0.59338 0.88583 0.0
N416 N 0.1179 0.64245 0.95106 0.0
C417 C 0.09833 0.69184 0.99002 0.0
C418 C 0.12549 0.67531 0.99805 0.0
C419 C 0.13408 0.64946 0.97896 0.0
C420 C 0.08947 0.65577 0.94559 0.0
C421 C 0.07938 0.68085 0.96447 0.0
H422 H 0.15392 0.63569 0.98644 0.0
H423 H 0.07465 0.64704 0.92612 0.0
H424 H 0.06749 0.59117 0.96561 0.0
H425 H 0.12141 0.5105 0.98235 0.0
H426 H 0.12297 0.70563 0.84291 0.0
H427 H 0.1399 0.68242 1.01861 0.0
H428 H 0.05766 0.69244 0.95822 0.0
C429 C 0.14859 0.4179 0.65468 0.0
C430 C 0.16867 0.40083 0.67387 0.0
N431 N 0.15256 0.37696 0.68771 0.0
N432 N 0.11935 0.40518 0.65542 0.0
C433 C 0.12252 0.38056 0.67651 0.0
H434 H 0.15535 0.43845 0.64107 0.0
Co435 Co 0.08231 0.42082 0.63237 0.0
C436 C 0.08419 0.35218 0.61471 0.0
O437 O 0.11508 0.35235 0.61551 0.0
N438 N 0.04487 0.43624 0.61011 0.0
C439 C 0.99437 0.43747 0.59495 0.0
C440 C 1.01657 0.42186 0.61289 0.0
C441 C 0.0388 0.46114 0.59015 0.0
N442 N 1.00807 0.46235 0.58028 0.0
O443 O 0.06036 0.41841 0.67218 0.0
H444 H 1.01213 0.40125 0.62747 0.0
H445 H 0.05657 0.47803 0.58285 0.0
O446 O 0.0693 0.37759 0.62048 0.0
C447 C 0.05715 0.44621 0.68352 0.0
O448 O 0.06348 0.47028 0.66479 0.0
N449 N 0.10554 0.42712 0.59468 0.0
C450 C 0.15276 0.44519 0.55198 0.0
C451 C 0.13779 0.41539 0.54908 0.0
C452 C 0.11342 0.4072 0.57008 0.0
C453 C 0.11687 0.45728 0.59521 0.0
C454 C 0.13993 0.46703 0.57373 0.0
H455 H 0.10213 0.38454 0.56696 0.0
H456 H 0.10925 0.47338 0.61391 0.0
H457 H 0.10308 0.36528 0.68317 0.0
H458 H 0.19359 0.4055 0.67673 0.0
H459 H 0.96971 0.43107 0.59351 0.0
H460 H 0.14567 0.3977 0.53214 0.0
H461 H 0.14871 0.49104 0.57567 0.0
C462 C 0.64785 0.64958 0.72923 0.0
C463 C 0.62863 0.62848 0.71276 0.0
N464 N 0.62567 0.63794 0.68188 0.0
N465 N 0.65758 0.67242 0.70907 0.0
C466 C 0.64336 0.66489 0.68035 0.0
H467 H 0.65417 0.64844 0.75454 0.0
Co468 Co 0.68445 0.70638 0.7225 0.0
C469 C 0.72386 0.71942 0.66515 0.0
O470 O 0.74833 0.72523 0.68395 0.0
N471 N 0.71066 0.74136 0.73662 0.0
C472 C 0.72893 0.79097 0.73813 0.0
C473 C 0.71012 0.76957 0.72174 0.0
C474 C 0.72986 0.74672 0.76272 0.0
N475 N 0.74157 0.7768 0.76407 0.0
O476 O 0.65117 0.73465 0.71582 0.0
H477 H 0.69635 0.77455 0.70036 0.0
H478 H 0.7349 0.72919 0.7807 0.0
O479 O 0.69742 0.71204 0.67765 0.0
C480 C 0.63323 0.73984 0.73966 0.0
O481 O 0.63837 0.72516 0.76698 0.0
N482 N 0.71628 0.67723 0.73094 0.0
C483 C 0.75126 0.62476 0.74929 0.0
C484 C 0.75021 0.63459 0.71698 0.0
C485 C 0.73131 0.65965 0.70814 0.0
C486 C 0.71853 0.6694 0.76269 0.0
C487 C 0.73568 0.64324 0.77242 0.0
H488 H 0.72722 0.66294 0.68275 0.0
H489 H 0.70475 0.682 0.78032 0.0
H490 H 0.64606 0.67877 0.65871 0.0
H491 H 0.61712 0.60803 0.72307 0.0
H492 H 0.73208 0.81551 0.73182 0.0
H493 H 0.76209 0.62186 0.69802 0.0
H494 H 0.73463 0.63652 0.79752 0.0
C495 C 0.4301 0.3902 0.45499 0.0
C496 C 0.41341 0.36885 0.43625 0.0
N497 N 0.39342 0.38456 0.41695 0.0
N498 N 0.42136 0.41976 0.44772 0.0
C499 C 0.3989 0.41555 0.42435 0.0
H500 H 0.44698 0.38428 0.4735 0.0
Co501 Co 0.43599 0.45687 0.47022 0.0
C502 C 0.44968 0.50241 0.41804 0.0
O503 O 0.47443 0.51374 0.43363 0.0
N504 N 0.45028 0.49434 0.49338 0.0
C505 C 0.45078 0.54421 0.51145 0.0
C506 C 0.43473 0.52191 0.49311 0.0
C507 C 0.47573 0.50074 0.5128 0.0
N508 N 0.47674 0.53102 0.52393 0.0
O509 O 0.39342 0.46765 0.47837 0.0
H510 H 0.4131 0.52582 0.47997 0.0
H511 H 0.49362 0.48388 0.51849 0.0
O512 O 0.43351 0.47992 0.43008 0.0
C513 C 0.37747 0.44883 0.49573 0.0
O514 O 0.39132 0.42451 0.50883 0.0
N515 N 0.47751 0.44433 0.46326 0.0
C516 C 0.53432 0.41237 0.45789 0.0
C517 C 0.52157 0.42854 0.43145 0.0
C518 C 0.49264 0.44336 0.4343 0.0
C519 C 0.48999 0.42973 0.48946 0.0
C520 C 0.51828 0.41373 0.4874 0.0
H521 H 0.48187 0.45213 0.41262 0.0
H522 H 0.47683 0.429 0.51171 0.0
H523 H 0.38602 0.43482 0.41389 0.0
H524 H 0.41587 0.34351 0.43711 0.0
H525 H 0.44354 0.56828 0.51551 0.0
H526 H 0.53289 0.42841 0.40813 0.0
H527 H 0.52622 0.40086 0.50831 0.0
H528 H 0.26101 0.34552 0.25986 0.0
H529 H 0.37038 0.32395 0.41648 0.0
H530 H 0.27727 0.25539 0.30424 0.0
H531 H 0.36329 0.41205 0.36566 0.0
H532 H 0.33438 0.29951 0.37752 0.0
H533 H 0.29585 0.37054 0.29966 0.0
C534 C 0.27193 0.33075 0.27776 0.0
C535 C 0.26608 0.2979 0.27808 0.0
C536 C 0.34065 0.32418 0.37479 0.0
C537 C 0.30624 0.32715 0.32473 0.0
C538 C 0.36154 0.33831 0.39708 0.0
C539 C 0.3706 0.37033 0.39447 0.0
C540 C 0.32821 0.34195 0.3494 0.0
C541 C 0.35719 0.38745 0.36895 0.0
C542 C 0.29185 0.34529 0.30074 0.0
C543 C 0.2807 0.28066 0.30279 0.0
N544 N 0.33685 0.37307 0.34748 0.0
N545 N 0.30003 0.29542 0.32493 0.0
H546 H 1.0011 0.98722 0.53348 0.0
H547 H 0.12739 0.96423 0.38966 0.0
H548 H 0.02927 0.06215 0.46999 0.0
H549 H 0.07467 0.88712 0.43041 0.0
H550 H 0.09952 1.00098 0.42589 0.0
H551 H 0.03539 0.95095 0.50321 0.0
C552 C 1.01486 0.99621 0.5136 0.0
C553 C 1.01207 0.02792 0.50438 0.0
C554 C 0.09431 0.97596 0.42719 0.0
C555 C 0.05171 0.98638 0.46939 0.0
C556 C 0.11051 0.95493 0.40667 0.0
C557 C 0.10354 0.9224 0.40689 0.0
C558 C 0.07123 0.96449 0.44866 0.0
C559 C 0.08085 0.91193 0.42925 0.0
C560 C 0.03431 0.97543 0.4961 0.0
C561 C 0.03038 0.03795 0.47796 0.0
N562 N 0.06569 0.9327 0.44906 0.0
N563 N 0.04925 1.01748 0.46161 0.0
H564 H 0.16429 0.7402 0.83582 0.0
H565 H 0.32848 0.73396 0.74115 0.0
H566 H 0.22111 0.65687 0.83113 0.0
H567 H 0.2744 0.81871 0.75034 0.0
H568 H 0.29018 0.70604 0.77442 0.0
H569 H 0.2041 0.76896 0.8054 0.0
C570 C 0.18497 0.72766 0.82827 0.0
C571 C 0.18871 0.69552 0.83601 0.0
C572 C 0.2866 0.73074 0.76934 0.0
C573 C 0.23543 0.72928 0.80086 0.0
C574 C 0.30853 0.74685 0.75008 0.0
C575 C 0.30481 0.77896 0.74235 0.0
C576 C 0.2602 0.74649 0.78126 0.0
C577 C 0.27854 0.79415 0.75554 0.0
C578 C 0.20798 0.74441 0.81095 0.0
C579 C 0.21684 0.6814 0.82595 0.0
N580 N 0.25727 0.7778 0.77402 0.0
N581 N 0.23884 0.69822 0.80887 0.0
H582 H 0.37085 0.05599 0.95635 0.0
H583 H 0.52896 1.01974 0.05938 0.0
H584 H 0.45053 0.11973 0.96325 0.0
H585 H 0.45284 0.95238 0.04644 0.0
H586 H 0.50062 0.05646 1.02438 0.0
H587 H 0.4002 1.01767 0.9889 0.0
C588 C 0.39443 0.06203 0.96443 0.0
C589 C 0.40769 0.09172 0.957 0.0
C590 C 0.49011 0.0336 0.02924 0.0
C591 C 0.44177 0.04757 0.99496 0.0
C592 C 0.50647 1.01242 0.0493 0.0
C593 C 0.49359 0.98252 0.05663 0.0
C594 C 0.4604 0.0252 1.01607 0.0
C595 C 0.46396 0.97504 0.04244 0.0
C596 C 0.41124 0.04009 0.98326 0.0
C597 C 0.43861 0.09776 0.96863 0.0
N598 N 0.44858 0.99603 1.0232 0.0
N599 N 0.45428 0.0762 0.98687 0.0
H600 H 0.34876 0.6955 0.12395 0.0
H601 H 0.28859 0.77307 0.2919 0.0
H602 H 0.40047 0.68985 0.21348 0.0
H603 H 0.25439 0.80088 0.19841 0.0
H604 H 0.32429 0.73571 0.265 0.0
H605 H 0.30877 0.7272 0.15191 0.0
C606 C 0.35155 0.70052 0.14951 0.0
C607 C 0.37835 0.69001 0.16614 0.0
C608 C 0.30878 0.74982 0.25037 0.0
C609 C 0.33233 0.72643 0.19865 0.0
C610 C 0.28818 0.771 0.26582 0.0
C611 C 0.26839 0.79041 0.24755 0.0
C612 C 0.30937 0.74745 0.21629 0.0
C613 C 0.26933 0.78675 0.21361 0.0
C614 C 0.32879 0.71885 0.1655 0.0
C615 C 0.38058 0.69766 0.19939 0.0
N616 N 0.28925 0.7659 0.19925 0.0
N617 N 0.35809 0.71518 0.21438 0.0
H618 H 0.42009 0.94563 0.56826 0.0
H619 H 0.58592 0.0267 0.51858 0.0
H620 H 0.49926 0.95337 0.63338 0.0
H621 H 0.49846 0.04742 0.47096 0.0
H622 H 0.55714 0.99129 0.55552 0.0
H623 H 0.45077 0.97444 0.52727 0.0
C624 C 0.44401 0.95297 0.57381 0.0
C625 C 0.4569 0.94714 0.60453 0.0
C626 C 0.54428 1.00333 0.53675 0.0
C627 C 0.49247 0.98009 0.55747 0.0
C628 C 0.56081 0.02332 0.51546 0.0
C629 C 0.54469 0.04014 0.49153 0.0
C630 C 0.51135 0.99955 0.53386 0.0
C631 C 0.51191 0.03511 0.48907 0.0
C632 C 0.4615 0.96963 0.55047 0.0
C633 C 0.4881 0.95758 0.61028 0.0
N634 N 0.49646 1.01541 0.50977 0.0
N635 N 0.50469 0.97335 0.58715 0.0
H636 H 0.27777 0.26693 0.81184 0.0
H637 H 0.12931 0.31736 0.7004 0.0
H638 H 0.20026 0.20431 0.78747 0.0
H639 H 0.20727 0.37988 0.72332 0.0
H640 H 0.15435 0.27622 0.73292 0.0
H641 H 0.25271 0.30836 0.77967 0.0
C642 C 0.25566 0.26165 0.79977 0.0
C643 C 0.24132 0.23165 0.80304 0.0
C644 C 0.16599 0.29897 0.73085 0.0
C645 C 0.21195 0.27973 0.76584 0.0
C646 C 0.1515 0.32269 0.71232 0.0
C647 C 0.16596 0.35254 0.70856 0.0
C648 C 0.19535 0.30478 0.74612 0.0
C649 C 0.1951 0.35739 0.72473 0.0
C650 C 0.24117 0.28552 0.78141 0.0
C651 C 0.21232 0.22688 0.78657 0.0
N652 N 0.20863 0.33403 0.74252 0.0
N653 N 0.19881 0.25038 0.76899 0.0
H654 H 0.10832 0.16978 0.1139 0.0
H655 H 0.99919 1.01823 0.06921 0.0
H656 H 0.0962 0.08934 0.17589 0.0
H657 H 1.01288 0.09671 1.00488 0.0
H658 H 0.03537 0.04366 0.10788 0.0
H659 H 0.07457 0.14334 0.07321 0.0
C660 C 0.09882 0.14657 0.11901 0.0
C661 C 0.10516 0.13213 0.14882 0.0
C662 C 0.03049 0.05533 0.08527 0.0
C663 C 0.06598 0.10156 0.10206 0.0
C664 C 1.0098 0.04066 0.06295 0.0
C665 C 1.00249 0.05514 0.03339 0.0
C666 C 0.04427 0.08489 0.07831 0.0
C667 C 1.01713 0.08458 0.0273 0.0
C668 C 0.07934 0.13148 0.09574 0.0
C669 C 0.09174 0.10193 0.15378 0.0
N670 N 0.03711 0.09837 0.04943 0.0
N671 N 0.07292 0.08786 0.13088 0.0
H672 H 0.87946 0.15312 0.72399 0.0
H673 H 0.75745 0.29747 0.72135 0.0
H674 H 0.8539 0.19762 0.63465 0.0
H675 H 0.78789 0.248 0.80614 0.0
H676 H 0.78844 0.26059 0.68773 0.0
H677 H 0.84269 0.18647 0.75263 0.0
C678 C 0.86602 0.16993 0.71026 0.0
C679 C 0.87026 0.17249 0.6767 0.0
C680 C 0.78809 0.25771 0.71369 0.0
C681 C 0.82724 0.21172 0.71001 0.0
C682 C 0.77017 0.27866 0.73289 0.0
C683 C 0.77006 0.27613 0.76684 0.0
C684 C 0.80591 0.23386 0.72847 0.0
C685 C 0.78741 0.25134 0.78027 0.0
C686 C 0.84479 0.18911 0.72675 0.0
C687 C 0.85148 0.1946 0.66044 0.0
N688 N 0.80445 0.23158 0.76128 0.0
N689 N 0.83107 0.21351 0.67721 0.0
H690 H 0.04519 0.57569 1.02244 0.0
H691 H 0.96071 0.41327 0.0785 0.0
H692 H 0.07023 0.48432 0.98516 0.0
H693 H 0.95759 0.49938 0.13435 0.0
H694 H 0.99449 0.44033 0.03899 0.0
H695 H 1.00684 0.54979 0.05835 0.0
C696 C 0.04241 0.55027 1.02149 0.0
C697 C 0.06129 0.53228 1.00076 0.0
C698 C 0.98627 0.45337 0.05982 0.0
C699 C 1.01712 0.50226 0.04188 0.0
C700 C 0.96676 0.43792 0.08231 0.0
C701 C 0.95627 0.45388 0.11007 0.0
C702 C 0.9951 0.48529 0.06463 0.0
C703 C 0.9653 0.48589 0.11364 0.0
C704 C 1.02063 0.53542 0.04218 0.0
C705 C 0.05663 0.49925 1.00093 0.0
N706 N 0.98398 0.50042 0.09135 0.0
N707 N 0.03516 0.48545 1.02096 0.0
H708 H 0.69711 0.70223 0.29056 0.0
H709 H 0.7032 0.88264 0.23084 0.0
H710 H 0.76963 0.76872 0.32006 0.0
H711 H 0.63131 0.81614 0.1998 0.0
H712 H 0.72702 0.8417 0.26363 0.0
H713 H 0.67284 0.74316 0.25802 0.0
C714 C 0.70804 0.7254 0.29051 0.0
C715 C 0.7357 0.73158 0.30877 0.0
C716 C 0.70605 0.83592 0.24971 0.0
C717 C 0.70745 0.77939 0.27045 0.0
C718 C 0.6923 0.85944 0.23065 0.0
C719 C 0.66502 0.85324 0.21183 0.0
C720 C 0.69274 0.80539 0.25046 0.0
C721 C 0.65209 0.82247 0.21373 0.0
C722 C 0.69404 0.74891 0.27158 0.0
C723 C 0.74859 0.76235 0.30659 0.0
N724 N 0.66604 0.7999 0.23244 0.0
N725 N 0.73441 0.78487 0.28804 0.0
H726 H 0.86872 0.5593 0.46074 0.0
H727 H 0.02707 0.52239 0.5632 0.0
H728 H 0.94549 0.6258 0.47359 0.0
H729 H 0.95181 0.45455 0.54801 0.0
H730 H 0.99815 0.56002 0.52965 0.0
H731 H 0.89899 0.5203 0.4914 0.0
C732 C 0.89187 0.56581 0.46973 0.0
C733 C 0.90403 0.59643 0.46453 0.0
C734 C 0.98796 0.53686 0.53367 0.0
C735 C 0.93921 0.55144 0.50027 0.0
C736 C 1.00466 0.51517 0.55284 0.0
C737 C 0.99211 0.48491 0.55914 0.0
C738 C 0.95829 0.52854 0.52031 0.0
C739 C 0.96257 0.47751 0.54476 0.0
C740 C 0.90921 0.54347 0.48748 0.0
C741 C 0.93443 0.60303 0.47724 0.0
N742 N 0.94689 0.49895 0.52634 0.0
N743 N 0.95067 0.58102 0.49436 0.0
H744 H 0.61674 0.41405 0.92471 0.0
H745 H 0.50786 0.56318 0.97003 0.0
H746 H 0.59579 0.48755 0.85665 0.0
H747 H 0.53384 0.49028 0.03656 0.0
H748 H 0.54076 0.53766 0.92846 0.0
H749 H 0.58721 0.4427 0.96573 0.0
C750 C 0.60621 0.43617 0.91814 0.0
C751 C 0.6092 0.44789 0.88652 0.0
C752 C 0.5393 0.52734 0.95224 0.0
C753 C 0.57443 0.48135 0.93432 0.0
C754 C 0.52063 0.54212 0.9761 0.0
C755 C 0.51754 0.52889 1.00704 0.0
C756 C 0.55524 0.49911 0.95923 0.0
C757 C 0.53474 0.50125 1.0131 0.0
C758 C 0.58908 0.45264 0.94181 0.0
C759 C 0.59429 0.47693 0.88021 0.0
N760 N 0.55246 0.48744 0.98967 0.0
N761 N 0.57771 0.49241 0.90363 0.0
H762 H 0.75305 0.75833 0.82648 0.0
H763 H 0.85722 0.91319 0.87031 0.0
H764 H 0.77745 0.83029 0.75762 0.0
H765 H 0.84306 0.83611 0.93638 0.0
H766 H 0.82759 0.88337 0.82913 0.0
H767 H 0.78543 0.7863 0.86721 0.0
C768 C 0.76524 0.77981 0.81972 0.0
C769 C 0.76197 0.79189 0.78833 0.0
C770 C 0.83101 0.87298 0.85267 0.0
C771 C 0.79909 0.82447 0.83531 0.0
C772 C 0.84814 0.89005 0.87634 0.0
C773 C 0.85283 0.87758 0.90739 0.0
C774 C 0.81819 0.84305 0.85981 0.0
C775 C 0.83991 0.84729 0.91327 0.0
C776 C 0.78368 0.79592 0.84313 0.0
C777 C 0.77844 0.82015 0.78144 0.0
N778 N 0.82324 0.83128 0.88991 0.0
N779 N 0.79601 0.83538 0.8046 0.0
H780 H 0.67069 0.1926 0.31436 0.0
H781 H 0.83565 0.28191 0.278 0.0
H782 H 0.7588 0.16312 0.35517 0.0
H783 H 0.75692 0.28317 0.21225 0.0
H784 H 0.80529 0.24637 0.31356 0.0
H785 H 0.69921 0.23351 0.2837 0.0
C786 C 0.69594 0.19489 0.31717 0.0
C787 C 0.71225 0.17402 0.33728 0.0
C788 C 0.79451 0.25476 0.29154 0.0
C789 C 0.74525 0.2213 0.3024 0.0
C790 C 0.81176 0.27532 0.27142 0.0
C791 C 0.79882 0.28574 0.24212 0.0
C792 C 0.76377 0.24489 0.2827 0.0
C793 C 0.76784 0.27581 0.23459 0.0
C794 C 0.71228 0.21818 0.29952 0.0
C795 C 0.74516 0.17824 0.3397 0.0
N796 N 0.75148 0.25617 0.25461 0.0
N797 N 0.76042 0.20127 0.32269 0.0
H798 H 0.49148 0.59388 0.52784 0.0
H799 H 0.61173 0.57525 0.67665 0.0
H800 H 0.51622 0.504 0.56803 0.0
H801 H 0.5962 0.66402 0.62956 0.0
H802 H 0.57702 0.54913 0.63716 0.0
H803 H 0.52918 0.61989 0.56455 0.0
C804 C 0.50471 0.5795 0.5444 0.0
C805 C 0.50023 0.54649 0.54474 0.0
C806 C 0.58121 0.5743 0.63529 0.0
C807 C 0.54406 0.57654 0.58719 0.0
C808 C 0.60101 0.58936 0.65802 0.0
C809 C 0.60688 0.62212 0.65682 0.0
C810 C 0.56666 0.59192 0.61094 0.0
C811 C 0.59259 0.6388 0.63153 0.0
C812 C 0.52648 0.59447 0.56532 0.0
C813 C 0.51877 0.52936 0.56656 0.0
N814 N 0.57303 0.62362 0.60985 0.0
N815 N 0.53958 0.54454 0.58692 0.0
H816 H 0.25495 0.11575 0.32068 0.0
H817 H 0.25166 0.93079 0.28802 0.0
H818 H 0.24979 0.07315 0.22518 0.0
H819 H 0.18527 0.97548 0.35112 0.0
H820 H 0.27641 0.98258 0.2782 0.0
H821 H 0.25423 0.06289 0.34371 0.0
C822 C 0.2541 0.09569 0.30436 0.0
C823 C 0.25099 0.09958 0.27067 0.0
C824 C 0.25721 0.98073 0.29516 0.0
C825 C 0.2526 0.03915 0.29723 0.0
C826 C 0.24318 0.95138 0.30078 0.0
C827 C 0.2165 0.94931 0.32025 0.0
C828 C 0.24466 1.00775 0.30965 0.0
C829 C 0.20587 0.97646 0.33593 0.0
C830 C 0.25419 0.06555 0.3177 0.0
C831 C 0.25198 0.07219 0.25114 0.0
N832 N 0.21987 1.0048 0.33007 0.0
N833 N 0.25233 0.04323 0.26474 0.0
H834 H 0.16971 0.81292 0.44573 0.0
H835 H 0.32685 0.88142 0.52832 0.0
H836 H 0.25037 0.8464 0.39264 0.0
H837 H 0.25232 0.83727 0.58257 0.0
H838 H 0.29784 0.87014 0.47852 0.0
H839 H 0.19906 0.8212 0.4961 0.0
C840 C 0.19374 0.82157 0.4446 0.0
C841 C 0.20753 0.82916 0.41488 0.0
C842 C 0.28774 0.86291 0.50126 0.0
C843 C 0.241 0.83918 0.4725 0.0
C844 C 0.30426 0.86942 0.52972 0.0
C845 C 0.29207 0.86004 0.55959 0.0
C846 C 0.25867 0.84696 0.50256 0.0
C847 C 0.26246 0.84507 0.56006 0.0
C848 C 0.21041 0.82645 0.47341 0.0
C849 C 0.23874 0.84027 0.41494 0.0
N850 N 0.24679 0.83885 0.5319 0.0
N851 N 0.2543 0.84521 0.44332 0.0
H852 H 0.36372 0.92554 0.76412 0.0
H853 H 0.26744 0.08513 0.78658 0.0
H854 H 0.30511 0.9682 0.69169 0.0
H855 H 0.33926 0.05729 0.85411 0.0
H856 H 0.27253 0.03491 0.75828 0.0
H857 H 0.3476 0.96657 0.80302 0.0
C858 C 0.34703 0.94314 0.75661 0.0
C859 C 0.33593 0.94369 0.72457 0.0
C860 C 0.28696 0.03943 0.77953 0.0
C861 C 0.31739 0.99034 0.76872 0.0
C862 C 0.28391 0.06808 0.79582 0.0
C863 C 0.30312 0.07546 0.82254 0.0
C864 C 0.30981 1.01797 0.78961 0.0
C865 C 0.32395 0.05243 0.8336 0.0
C866 C 0.33798 0.96659 0.77873 0.0
C867 C 0.31453 0.96708 0.71602 0.0
N868 N 0.32717 0.02484 0.81672 0.0
N869 N 0.30612 0.98943 0.73784 0.0
H870 H 0.24192 0.22028 0.95106 0.0
H871 H 0.28371 0.19268 0.13255 0.0
H872 H 0.29677 0.14025 0.97942 0.0
H873 H 0.19119 0.22493 0.1068 0.0
H874 H 0.29274 0.17884 0.07584 0.0
H875 H 0.22537 0.22713 1.00735 0.0
C876 C 0.24994 0.20379 0.96909 0.0
C877 C 0.27055 0.17957 0.96072 0.0
C878 C 0.27045 0.18886 0.08268 0.0
C879 C 0.25276 0.18798 0.02495 0.0
C880 C 0.2654 0.1971 0.1149 0.0
C881 C 0.23676 0.21023 0.12426 0.0
C882 C 0.24701 0.19451 0.05954 0.0
C883 C 0.21365 0.21497 0.10049 0.0
C884 C 0.24055 0.20774 1.00109 0.0
C885 C 0.28056 0.15899 0.98491 0.0
N886 N 0.21942 0.20751 0.06905 0.0
N887 N 0.27208 0.16405 1.01614 0.0
H888 H 0.11141 0.26616 0.16703 0.0
H889 H 0.95957 0.34728 0.24281 0.0
H890 H 0.10149 0.28125 0.26973 0.0
H891 H 0.96337 0.30442 0.14787 0.0
H892 H 1.01397 0.33041 0.25263 0.0
H893 H 0.05984 0.2892 0.15857 0.0
C894 C 0.09856 0.27467 0.18777 0.0
C895 C 0.11061 0.2715 0.21914 0.0
C896 C 1.0027 0.32477 0.22972 0.0
C897 C 0.05142 0.29762 0.20969 0.0
C898 C 0.97172 0.33427 0.22417 0.0
C899 C 0.95687 0.32716 0.19456 0.0
C900 C 1.01881 0.30851 0.20528 0.0
C901 C 0.97373 0.3104 0.17113 0.0
C902 C 0.06902 0.28764 0.18297 0.0
C903 C 0.09291 0.283 0.24514 0.0
N904 N 1.00373 0.3018 0.17696 0.0
N905 N 0.06406 0.29542 0.23987 0.0
H906 H 0.59389 0.2413 0.85252 0.0
H907 H 0.4285 0.22338 0.77292 0.0
H908 H 0.57676 0.27432 0.75559 0.0
H909 H 0.46247 0.15521 0.84107 0.0
H910 H 0.48267 0.24223 0.76519 0.0
H911 H 0.54654 0.20847 0.84833 0.0
C912 C 0.58062 0.24125 0.83011 0.0
C913 C 0.58911 0.26122 0.80464 0.0
C914 C 0.47831 0.22266 0.78127 0.0
C915 C 0.53435 0.22428 0.80011 0.0
C916 C 0.44748 0.21201 0.7857 0.0
C917 C 0.44116 0.1878 0.80763 0.0
C918 C 0.50271 0.20952 0.79957 0.0
C919 C 0.46646 0.1738 0.82374 0.0
C920 C 0.55346 0.22256 0.8278 0.0
C921 C 0.57061 0.26021 0.77632 0.0
N922 N 0.49611 0.18528 0.81987 0.0
N923 N 0.54376 0.24257 0.77506 0.0
H924 H 0.93304 0.74898 0.34327 0.0
H925 H 0.09874 0.71702 0.28579 0.0
H926 H 0.94141 0.66669 0.28135 0.0
H927 H 0.05766 0.80878 0.27334 0.0
H928 H 0.04534 0.69394 0.28882 0.0
H929 H 0.98302 0.76815 0.32395 0.0
C930 C 0.94478 0.73509 0.32508 0.0
C931 C 0.93215 0.70628 0.31351 0.0
C932 C 0.04833 0.71895 0.28445 0.0
C933 C 0.99088 0.72779 0.29269 0.0
C934 C 0.07862 0.73214 0.28292 0.0
C935 C 0.08269 0.7649 0.27947 0.0
C936 C 0.02232 0.73888 0.2833 0.0
C937 C 0.05582 0.78342 0.27573 0.0
C938 C 0.97366 0.74605 0.31435 0.0
C939 C 0.95008 0.68888 0.29123 0.0
N940 N 0.02684 0.77025 0.27845 0.0
N941 N 0.97884 0.69973 0.28179 0.0
H942 H 0.62127 0.7803 0.69041 0.0
H943 H 0.44954 0.8234 0.75213 0.0
H944 H 0.58456 0.74864 0.78169 0.0
H945 H 0.48864 0.85087 0.66063 0.0
H946 H 0.50136 0.80322 0.76823 0.0
H947 H 0.57533 0.81317 0.68352 0.0
C948 C 0.60355 0.78035 0.70907 0.0
C949 C 0.60649 0.76137 0.73641 0.0
C950 C 0.49864 0.81417 0.74486 0.0
C951 C 0.5536 0.7989 0.72867 0.0
C952 C 0.46922 0.82582 0.73584 0.0
C953 C 0.46497 0.83827 0.70492 0.0
C954 C 0.52362 0.81531 0.72274 0.0
C955 C 0.49095 0.84088 0.68451 0.0
C956 C 0.57732 0.79922 0.70521 0.0
C957 C 0.58303 0.76274 0.76007 0.0
N958 N 0.51905 0.82923 0.69366 0.0
N959 N 0.55732 0.78091 0.75549 0.0
H960 H 0.89218 0.04056 0.7209 0.0
H961 H 1.00227 0.98825 0.8641 0.0
H962 H 0.97891 0.99167 0.70283 0.0
H963 H 0.90148 0.99143 0.87416 0.0
H964 H 0.99591 0.99433 0.80553 0.0
H965 H 0.89612 0.02644 0.77752 0.0
C966 C 0.91176 0.0263 0.72843 0.0
C967 C 0.93529 1.01742 0.70654 0.0
C968 C 0.97522 0.99349 0.82061 0.0
C969 C 0.94046 1.00235 0.77225 0.0
C970 C 0.97883 0.99026 0.85401 0.0
C971 C 0.95237 0.98948 0.87405 0.0
C972 C 0.945 0.99663 0.80726 0.0
C973 C 0.92253 0.99193 0.85963 0.0
C974 C 0.91409 1.01853 0.76104 0.0
C975 C 0.96049 0.99972 0.71863 0.0
N976 N 0.91967 0.99574 0.82717 0.0
N977 N 0.96263 0.99317 0.7507 0.0
H978 H 0.84232 0.02512 0.55685 0.0
H979 H 0.7188 0.11084 0.44622 0.0
H980 H 0.85606 0.12236 0.52989 0.0
H981 H 0.68791 0.04852 0.52187 0.0
H982 H 0.77247 0.10868 0.46783 0.0
H983 H 0.78835 0.02694 0.53574 0.0
C984 C 0.83399 0.04681 0.54636 0.0
C985 C 0.8536 0.07365 0.54504 0.0
C986 C 0.75392 0.09542 0.47956 0.0
C987 C 0.79234 0.07561 0.52044 0.0
C988 C 0.72338 0.09636 0.46713 0.0
C989 C 0.6989 0.07971 0.48228 0.0
C990 C 0.76018 0.07708 0.50681 0.0
C991 C 0.70613 0.0617 0.50954 0.0
C992 C 0.80323 0.04783 0.53451 0.0
C993 C 0.8416 0.10122 0.53144 0.0
N994 N 0.73623 0.06061 0.52081 0.0
N995 N 0.81179 0.1014 0.51928 0.0
H996 H 0.63607 1.01528 0.35296 0.0
H997 H 0.50834 0.96969 0.21984 0.0
H998 H 0.54251 0.05299 0.34876 0.0
H999 H 0.59591 0.92072 0.22863 0.0
H1000 H 0.51705 0.99294 0.27333 0.0
H1001 H 0.61979 0.97437 0.31338 0.0
C1002 C 0.61203 1.01464 0.34415 0.0
C1003 C 0.5908 0.03794 0.35366 0.0
C1004 C 0.53407 0.97644 0.26411 0.0
C1005 C 0.57202 0.99141 0.30862 0.0
C1006 C 0.5288 0.96283 0.23371 0.0
C1007 C 0.55123 0.94304 0.22005 0.0
C1008 C 0.56256 0.97109 0.28053 0.0
C1009 C 0.5778 0.93551 0.23862 0.0
C1010 C 0.60273 0.99132 0.32159 0.0
C1011 C 0.5599 0.03594 0.34162 0.0
N1012 N 0.58315 0.95016 0.26763 0.0
N1013 N 0.5516 1.01342 0.31957 0.0
H1014 H 0.69958 0.9972 0.08994 0.0
H1015 H 0.82824 0.98038 0.95258 0.0
H1016 H 0.68044 0.94894 0.99935 0.0
H1017 H 0.84361 0.02579 0.04514 0.0
H1018 H 0.77192 0.9763 0.96446 0.0
H1019 H 0.74954 1.01506 0.06928 0.0
C1020 C 0.70546 0.99079 0.06537 0.0
C1021 C 0.68531 0.97157 0.04637 0.0
C1022 C 0.78754 0.98773 0.98185 0.0
C1023 C 0.74395 0.99127 1.0228 0.0
C1024 C 0.81964 0.99035 0.97497 0.0
C1025 C 0.8406 1.00325 0.99808 0.0
C1026 C 0.77652 0.99819 1.01197 0.0
C1027 C 0.82829 1.01544 0.0268 0.0
C1028 C 0.73439 1.00085 0.05366 0.0
C1029 C 0.69523 0.96338 1.01509 0.0
N1030 N 0.79716 1.01231 0.03304 0.0
N1031 N 0.72399 0.97305 1.00437 0.0
H1032 H 0.13392 0.74539 0.99115 0.0
H1033 H 0.98572 0.84919 0.03693 0.0
H1034 H 0.04477 0.70714 1.02182 0.0
H1035 H 0.05972 0.88043 0.97352 0.0
H1036 H 1.01498 0.80126 0.04768 0.0
H1037 H 0.11464 0.79878 1.00169 0.0
C1038 C 0.11073 0.74827 1.00129 0.0
C1039 C 0.09074 0.72212 1.00553 0.0
C1040 C 0.02504 0.81886 0.03184 0.0
C1041 C 0.06853 0.78259 1.01708 0.0
C1042 C 1.00846 0.84628 0.02579 0.0
C1043 C 1.02023 0.86869 1.00406 0.0
C1044 C 0.05363 0.8138 1.01613 0.0
C1045 C 0.04963 0.86348 0.99003 0.0
C1046 C 0.09965 0.77864 1.00695 0.0
C1047 C 0.06074 0.72689 1.01821 0.0
N1048 N 0.06525 0.8364 0.9961 0.0
N1049 N 0.05037 0.75664 1.0232 0.0
H1050 H 0.55404 0.66006 0.05791 0.0
H1051 H 0.52686 0.84169 0.09985 0.0
H1052 H 0.46195 0.70078 0.06362 0.0
H1053 H 0.61796 0.799 0.09095 0.0
H1054 H 0.50236 0.79228 0.08058 0.0
H1055 H 0.57752 0.71275 0.06209 0.0
C1056 C 0.53875 0.68025 0.0592 0.0
C1057 C 0.50605 0.67609 0.06047 0.0
C1058 C 0.52772 0.79386 0.0826 0.0
C1059 C 0.53275 0.73655 0.06642 0.0
C1060 C 0.54173 0.82203 0.09372 0.0
C1061 C 0.57454 0.82445 0.09737 0.0
C1062 C 0.54664 0.76792 0.0751 0.0
C1063 C 0.59259 0.79824 0.08883 0.0
C1064 C 0.55215 0.71036 0.06186 0.0
C1065 C 0.48729 0.70302 0.0623 0.0
N1066 N 0.57841 0.77111 0.07832 0.0
N1067 N 0.50093 0.73212 0.06581 0.0
H1068 H 0.94666 0.20251 0.57841 0.0
H1069 H 0.10948 0.298 0.59131 0.0
H1070 H 0.03751 0.16396 0.5571 0.0
H1071 H 1.02025 0.34068 0.61208 0.0
H1072 H 0.08203 0.2504 0.57328 0.0
H1073 H 0.97132 0.25511 0.58405 0.0
C1074 C 0.9716 0.20529 0.57398 0.0
C1075 C 0.99018 0.17892 0.56749 0.0
C1076 C 0.06831 0.27014 0.58163 0.0
C1077 C 1.0185 0.23853 0.57451 0.0
C1078 C 0.08404 0.29739 0.59212 0.0
C1079 C 0.06719 0.32335 0.60354 0.0
C1080 C 0.03535 0.2685 0.58276 0.0
C1081 C 0.03419 0.32115 0.60364 0.0
C1082 C 0.98571 0.23521 0.57754 0.0
C1083 C 0.0224 0.18367 0.56241 0.0
N1084 N 1.01932 0.29407 0.59365 0.0
N1085 N 0.03555 0.21277 0.56634 0.0
H1086 H 0.55033 0.37879 0.40345 0.0
H1087 H 0.6464 0.25446 0.39789 0.0
H1088 H 0.5793 0.39457 0.50275 0.0
H1089 H 0.61965 0.24639 0.4977 0.0
H1090 H 0.63514 0.31086 0.40014 0.0
H1091 H 0.58686 0.33614 0.3996 0.0
C1092 C 0.56505 0.37421 0.42425 0.0
C1093 C 0.56116 0.39047 0.45365 0.0
C1094 C 0.63206 0.29686 0.42166 0.0
C1095 C 0.60315 0.34042 0.4494 0.0
C1096 C 0.63874 0.26484 0.42046 0.0
C1097 C 0.63322 0.24592 0.44747 0.0
C1098 C 0.61912 0.30975 0.44986 0.0
C1099 C 0.6238 0.26033 0.47632 0.0
C1100 C 0.5861 0.34953 0.42196 0.0
C1101 C 0.58065 0.38223 0.47983 0.0
N1102 N 0.61637 0.29143 0.47661 0.0
N1103 N 0.60018 0.35721 0.47735 0.0
H1104 H 0.76525 0.42571 0.74547 0.0
H1105 H 0.77445 0.6035 0.80822 0.0
H1106 H 0.74075 0.45341 0.84259 0.0
H1107 H 0.75614 0.57216 0.7099 0.0
H1108 H 0.7825 0.54848 0.82326 0.0
H1109 H 0.78443 0.47922 0.73571 0.0
C1110 C 0.76447 0.44289 0.76497 0.0
C1111 C 0.75052 0.43543 0.79455 0.0
C1112 C 0.77749 0.55411 0.79829 0.0
C1113 C 0.77223 0.49662 0.78344 0.0
C1114 C 0.77253 0.58548 0.78962 0.0
C1115 C 0.76367 0.59301 0.75776 0.0
C1116 C 0.77437 0.53024 0.77478 0.0
C1117 C 0.76299 0.56837 0.7347 0.0
C1118 C 0.77547 0.47339 0.75939 0.0
C1119 C 0.7508 0.45841 0.81921 0.0
N1120 N 0.76792 0.53825 0.74377 0.0
N1121 N 0.76084 0.4883 0.81288 0.0
H1122 H 0.66336 0.33014 0.95384 0.0
H1123 H 0.8069 0.41923 0.04301 0.0
H1124 H 0.74013 0.37786 0.90597 0.0
H1125 H 0.7447 0.35528 0.09282 0.0
H1126 H 0.7755 0.41185 0.99396 0.0
H1127 H 0.68734 0.34458 1.00617 0.0
C1128 C 0.68527 0.34347 0.9543 0.0
C1129 C 0.69983 0.35265 0.92547 0.0
C1130 C 0.76842 0.39966 1.01566 0.0
C1131 C 0.72685 0.36968 0.98493 0.0
C1132 C 0.7862 0.40406 0.04365 0.0
C1133 C 0.77843 0.3876 0.07171 0.0
C1134 C 0.74283 0.37838 1.01563 0.0
C1135 C 0.75133 0.36839 0.07154 0.0
C1136 C 0.6988 0.35182 0.98411 0.0
C1137 C 0.72807 0.37007 0.92747 0.0
N1138 N 0.73464 0.3639 0.04367 0.0
N1139 N 0.74055 0.37803 0.95664 0.0
H1140 H 0.87094 0.43259 0.27079 0.0
H1141 H 0.76851 0.5879 0.29365 0.0
H1142 H 0.80457 0.46882 0.20179 0.0
H1143 H 0.84131 0.56268 0.3612 0.0
H1144 H 0.77427 0.53727 0.26637 0.0
H1145 H 0.85411 0.47314 0.31003 0.0
C1146 C 0.85236 0.44858 0.26423 0.0
C1147 C 0.83929 0.44768 0.233 0.0
C1148 C 0.78882 0.54244 0.28738 0.0
C1149 C 0.82005 0.49374 0.27732 0.0
C1150 C 0.78541 0.57136 0.30304 0.0
C1151 C 0.80462 0.57952 0.32949 0.0
C1152 C 0.81215 0.5216 0.29773 0.0
C1153 C 0.82601 0.55716 0.34084 0.0
C1154 C 0.84291 0.47177 0.28648 0.0
C1155 C 0.81552 0.46899 0.2255 0.0
N1156 N 0.82966 0.52934 0.3245 0.0
N1157 N 0.80685 0.49115 0.24734 0.0
H1158 H 0.68162 0.72468 0.61519 0.0
H1159 H 0.79128 0.64066 0.4863 0.0
H1160 H 0.77691 0.69789 0.63667 0.0
H1161 H 0.7322 0.71786 0.45866 0.0
H1162 H 0.77514 0.64831 0.5427 0.0
H1163 H 0.69022 0.71058 0.55805 0.0
C1164 C 0.70432 0.71597 0.60784 0.0
C1165 C 0.72878 0.71294 0.63047 0.0
C1166 C 0.76528 0.6631 0.52409 0.0
C1167 C 0.73819 0.69565 0.56601 0.0
C1168 C 0.77416 0.65853 0.49198 0.0
C1169 C 0.763 0.67871 0.46798 0.0
C1170 C 0.74465 0.68753 0.53196 0.0
C1171 C 0.74131 0.7019 0.47661 0.0
C1172 C 0.70912 0.70784 0.57543 0.0
C1173 C 0.75763 0.70116 0.61988 0.0
N1174 N 0.73283 0.70576 0.50798 0.0
N1175 N 0.76147 0.6927 0.58845 0.0
H1176 H 0.38547 0.56441 0.22971 0.0
H1177 H 0.4936 0.52068 0.37437 0.0
H1178 H 0.46906 0.50952 0.21485 0.0
H1179 H 0.39423 0.50168 0.38408 0.0
H1180 H 0.48558 0.5291 0.31646 0.0
H1181 H 0.38753 0.55122 0.28728 0.0
C1182 C 0.40389 0.54915 0.23825 0.0
C1183 C 0.4275 0.53858 0.2173 0.0
C1184 C 0.46556 0.52326 0.3314 0.0
C1185 C 0.43046 0.52466 0.28311 0.0
C1186 C 0.47004 0.51878 0.36439 0.0
C1187 C 0.4445 0.51058 0.38392 0.0
C1188 C 0.43527 0.52031 0.31805 0.0
C1189 C 0.41448 0.50799 0.36969 0.0
C1190 C 0.40512 0.5419 0.27114 0.0
C1191 C 0.45094 0.51914 0.23011 0.0
N1192 N 0.41057 0.51313 0.3375 0.0
N1193 N 0.45221 0.51338 0.26226 0.0
H1194 H 0.2411 0.66915 0.95228 0.0
H1195 H 0.34812 0.53851 0.03504 0.0
H1196 H 0.2128 0.57124 0.95905 0.0
H1197 H 0.36933 0.63841 0.03768 0.0
H1198 H 0.30031 0.54912 1.00417 0.0
H1199 H 0.29014 0.65718 0.97975 0.0
C1200 C 0.24524 0.64503 0.9594 0.0
C1201 C 0.22263 0.62118 0.95349 0.0
C1202 C 0.31543 0.5687 1.01149 0.0
C1203 C 0.27902 0.60732 0.98524 0.0
C1204 C 0.34276 0.56269 0.02913 0.0
C1205 C 0.36281 0.58763 0.03903 0.0
C1206 C 0.3081 0.59986 1.00353 0.0
C1207 C 0.35461 0.61845 0.03063 0.0
C1208 C 0.27331 0.63824 0.97519 0.0
C1209 C 0.22952 0.59036 0.96313 0.0
N1210 N 0.32792 0.62366 1.01336 0.0
N1211 N 0.25708 0.58433 0.97867 0.0
H1212 H 0.14315 0.53211 0.84645 0.0
H1213 H 1.0146 0.48008 0.71662 0.0
H1214 H 0.0466 0.56202 0.84855 0.0
H1215 H 0.10131 0.43004 0.72778 0.0
H1216 H 0.02449 0.50672 0.7683 0.0
H1217 H 0.12835 0.49226 0.80521 0.0
C1218 C 0.11892 0.53025 0.83838 0.0
C1219 C 0.09621 0.55075 0.85067 0.0
C1220 C 0.04104 0.48929 0.76003 0.0
C1221 C 0.07911 0.50527 0.80393 0.0
C1222 C 0.03509 0.47379 0.73073 0.0
C1223 C 0.05686 0.45251 0.7184 0.0
C1224 C 0.06955 0.4843 0.77652 0.0
C1225 C 0.08364 0.44586 0.73698 0.0
C1226 C 0.11044 0.50739 0.81505 0.0
C1227 C 0.06507 0.54707 0.83958 0.0
N1228 N 0.08964 0.46224 0.76486 0.0
N1229 N 0.05756 0.52506 0.81677 0.0
H1230 H 0.33471 0.40113 0.4911 0.0
H1231 H 0.19993 0.48681 0.57162 0.0
H1232 H 0.34264 0.50205 0.50343 0.0
H1233 H 0.17731 0.4191 0.49562 0.0
H1234 H 0.25232 0.4921 0.55024 0.0
H1235 H 0.27754 0.40471 0.49657 0.0
C1236 C 0.3243 0.42404 0.49492 0.0
C1237 C 0.34316 0.45133 0.49731 0.0
C1238 C 0.2356 0.47653 0.53798 0.0
C1239 C 0.2783 0.45547 0.50379 0.0
C1240 C 0.20527 0.47354 0.54999 0.0
C1241 C 0.18344 0.45213 0.5358 0.0
C1242 C 0.24482 0.45728 0.51229 0.0
C1243 C 0.19316 0.43513 0.5083 0.0
C1244 C 0.29179 0.42608 0.49764 0.0
C1245 C 0.32871 0.48052 0.50169 0.0
N1246 N 0.22336 0.43749 0.49794 0.0
N1247 N 0.29703 0.48179 0.50555 0.0
loop_
_geom_bond_atom_site_label_1
_geom_bond_atom_site_label_2
_geom_bond_distance
_geom_bond_site_symmetry_2
_ccdc_geom_bond_type
C0 C1 1.351 . S
C0 N3 1.368 . S
C0 H5 0.931 . S
C1 C0 1.351 . S
C1 N2 1.373 . S
C1 H29 0.930 . S
N2 C1 1.373 . S
N2 C4 1.340 . S
N3 C0 1.368 . S
N3 C4 1.321 . S
N3 Co6 2.135 . S
C4 N2 1.340 . S
C4 N3 1.321 . S
C4 H28 0.930 . S
H5 C0 0.931 . S
Co6 N3 2.135 . S
Co6 N9 2.121 . S
Co6 O14 2.055 . S
Co6 O17 2.039 . S
Co6 N20 2.140 . S
C7 O8 1.227 . S
C7 O17 1.265 . S
O8 C7 1.227 . S
N9 Co6 2.121 . S
N9 C11 1.375 . S
N9 C12 1.313 . S
C10 C11 1.338 . S
C10 N13 1.377 . S
C10 H30 0.930 . S
C11 N9 1.375 . S
C11 C10 1.338 . S
C11 H15 0.931 . S
C12 N9 1.313 . S
C12 N13 1.344 . S
C12 H16 0.930 . S
N13 C10 1.377 . S
N13 C12 1.344 . S
O14 Co6 2.055 . S
O14 C18 1.253 . S
H15 C11 0.931 . S
H16 C12 0.930 . S
O17 Co6 2.039 . S
O17 C7 1.265 . S
C18 O14 1.253 . S
C18 O19 1.227 . S
O19 C18 1.227 . S
N20 Co6 2.140 . S
N20 C23 1.346 . S
N20 C24 1.345 . S
C21 C22 1.387 . S
C21 C25 1.391 . S
C22 C21 1.387 . S
C22 C23 1.369 . S
C22 H31 0.929 . S
C23 N20 1.346 . S
C23 C22 1.369 . S
C23 H26 0.928 . S
C24 N20 1.345 . S
C24 C25 1.371 . S
C24 H27 0.931 . S
C25 C21 1.391 . S
C25 C24 1.371 . S
C25 H32 0.930 . S
H26 C23 0.928 . S
H27 C24 0.931 . S
H28 C4 0.930 . S
H29 C1 0.930 . S
H30 C10 0.930 . S
H31 C22 0.929 . S
H32 C25 0.930 . S
C33 C34 1.351 . S
C33 N36 1.368 . S
C33 H38 0.931 . S
C34 C33 1.351 . S
C34 N35 1.373 . S
C34 H62 0.930 . S
N35 C34 1.373 . S
N35 C37 1.340 . S
N36 C33 1.368 . S
N36 C37 1.321 . S
N36 Co39 2.135 . S
C37 N35 1.340 . S
C37 N36 1.321 . S
C37 H61 0.930 . S
H38 C33 0.931 . S
Co39 N36 2.135 . S
Co39 N42 2.121 . S
Co39 O47 2.055 . S
Co39 O50 2.039 . S
Co39 N53 2.140 . S
C40 O41 1.227 . S
C40 O50 1.265 . S
O41 C40 1.227 . S
N42 Co39 2.121 . S
N42 C44 1.375 . S
N42 C45 1.313 . S
C43 C44 1.338 . S
C43 N46 1.377 . S
C43 H63 0.930 . S
C44 N42 1.375 . S
C44 C43 1.338 . S
C44 H48 0.931 . S
C45 N42 1.313 . S
C45 N46 1.344 . S
C45 H49 0.930 . S
N46 C43 1.377 . S
N46 C45 1.344 . S
O47 Co39 2.055 . S
O47 C51 1.253 . S
H48 C44 0.931 . S
H49 C45 0.930 . S
O50 Co39 2.039 . S
O50 C40 1.265 . S
C51 O47 1.253 . S
C51 O52 1.227 . S
O52 C51 1.227 . S
N53 Co39 2.140 . S
N53 C56 1.346 . S
N53 C57 1.345 . S
C54 C55 1.387 . S
C54 C58 1.391 . S
C55 C54 1.387 . S
C55 C56 1.369 . S
C55 H64 0.929 . S
C56 N53 1.346 . S
C56 C55 1.369 . S
C56 H59 0.928 . S
C57 N53 1.345 . S
C57 C58 1.371 . S
C57 H60 0.931 . S
C58 C54 1.391 . S
C58 C57 1.371 . S
C58 H65 0.930 . S
H59 C56 0.928 . S
H60 C57 0.931 . S
H61 C37 0.930 . S
H62 C34 0.930 . S
H63 C43 0.930 . S
H64 C55 0.929 . S
H65 C58 0.930 . S
C66 C67 1.351 . S
C66 N69 1.368 . S
C66 H71 0.931 . S
C67 C66 1.351 . S
C67 N68 1.373 . S
C67 H95 0.930 . S
N68 C67 1.373 . S
N68 C70 1.340 . S
N69 C66 1.368 . S
N69 C70 1.321 . S
N69 Co72 2.135 . S
C70 N68 1.340 . S
C70 N69 1.321 . S
C70 H94 0.930 . S
H71 C66 0.931 . S
Co72 N69 2.135 . S
Co72 N75 2.121 . S
Co72 O80 2.055 . S
Co72 O83 2.039 . S
Co72 N86 2.140 . S
C73 O74 1.227 . S
C73 O83 1.265 . S
O74 C73 1.227 . S
N75 Co72 2.121 . S
N75 C77 1.375 . S
N75 C78 1.313 . S
C76 C77 1.338 . S
C76 N79 1.377 . S
C76 H96 0.930 . S
C77 N75 1.375 . S
C77 C76 1.338 . S
C77 H81 0.931 . S
C78 N75 1.313 . S
C78 N79 1.344 . S
C78 H82 0.930 . S
N79 C76 1.377 . S
N79 C78 1.344 . S
O80 Co72 2.055 . S
O80 C84 1.253 . S
H81 C77 0.931 . S
H82 C78 0.930 . S
O83 Co72 2.039 . S
O83 C73 1.265 . S
C84 O80 1.253 . S
C84 O85 1.227 . S
O85 C84 1.227 . S
N86 Co72 2.140 . S
N86 C89 1.346 . S
N86 C90 1.345 . S
C87 C88 1.387 . S
C87 C91 1.391 . S
C88 C87 1.387 . S
C88 C89 1.369 . S
C88 H97 0.929 . S
C89 N86 1.346 . S
C89 C88 1.369 . S
C89 H92 0.928 . S
C90 N86 1.345 . S
C90 C91 1.371 . S
C90 H93 0.931 . S
C91 C87 1.391 . S
C91 C90 1.371 . S
C91 H98 0.930 . S
H92 C89 0.928 . S
H93 C90 0.931 . S
H94 C70 0.930 . S
H95 C67 0.930 . S
H96 C76 0.930 . S
H97 C88 0.929 . S
H98 C91 0.930 . S
C99 C100 1.351 . S
C99 N102 1.368 . S
C99 H104 0.931 . S
C100 C99 1.351 . S
C100 N101 1.373 . S
C100 H128 0.930 . S
N101 C100 1.373 . S
N101 C103 1.340 . S
N102 C99 1.368 . S
N102 C103 1.321 . S
N102 Co105 2.135 . S
C103 N101 1.340 . S
C103 N102 1.321 . S
C103 H127 0.930 . S
H104 C99 0.931 . S
Co105 N102 2.135 . S
Co105 N108 2.121 . S
Co105 O113 2.055 . S
Co105 O116 2.039 . S
Co105 N119 2.140 . S
C106 O107 1.227 . S
C106 O116 1.265 . S
O107 C106 1.227 . S
N108 Co105 2.121 . S
N108 C110 1.375 . S
N108 C111 1.313 . S
C109 C110 1.338 . S
C109 N112 1.377 . S
C109 H129 0.930 . S
C110 N108 1.375 . S
C110 C109 1.338 . S
C110 H114 0.931 . S
C111 N108 1.313 . S
C111 N112 1.344 . S
C111 H115 0.930 . S
N112 C109 1.377 . S
N112 C111 1.344 . S
O113 Co105 2.055 . S
O113 C117 1.253 . S
H114 C110 0.931 . S
H115 C111 0.930 . S
O116 Co105 2.039 . S
O116 C106 1.265 . S
C117 O113 1.253 . S
C117 O118 1.227 . S
O118 C117 1.227 . S
N119 Co105 2.140 . S
N119 C122 1.346 . S
N119 C123 1.345 . S
C120 C121 1.387 . S
C120 C124 1.391 . S
C121 C120 1.387 . S
C121 C122 1.369 . S
C121 H130 0.929 . S
C122 N119 1.346 . S
C122 C121 1.369 . S
C122 H125 0.928 . S
C123 N119 1.345 . S
C123 C124 1.371 . S
C123 H126 0.931 . S
C124 C120 1.391 . S
C124 C123 1.371 . S
C124 H131 0.930 . S
H125 C122 0.928 . S
H126 C123 0.931 . S
H127 C103 0.930 . S
H128 C100 0.930 . S
H129 C109 0.930 . S
H130 C121 0.929 . S
H131 C124 0.930 . S
C132 C133 1.351 . S
C132 N135 1.368 . S
C132 H137 0.931 . S
C133 C132 1.351 . S
C133 N134 1.373 . S
C133 H161 0.930 . S
N134 C133 1.373 . S
N134 C136 1.340 . S
N135 C132 1.368 . S
N135 C136 1.321 . S
N135 Co138 2.135 . S
C136 N134 1.340 . S
C136 N135 1.321 . S
C136 H160 0.930 . S
H137 C132 0.931 . S
Co138 N135 2.135 . S
Co138 N141 2.121 . S
Co138 O146 2.055 . S
Co138 O149 2.039 . S
Co138 N152 2.140 . S
C139 O140 1.227 . S
C139 O149 1.265 . S
O140 C139 1.227 . S
N141 Co138 2.121 . S
N141 C143 1.375 . S
N141 C144 1.313 . S
C142 C143 1.338 . S
C142 N145 1.377 . S
C142 H162 0.930 . S
C143 N141 1.375 . S
C143 C142 1.338 . S
C143 H147 0.931 . S
C144 N141 1.313 . S
C144 N145 1.344 . S
C144 H148 0.930 . S
N145 C142 1.377 . S
N145 C144 1.344 . S
O146 Co138 2.055 . S
O146 C150 1.253 . S
H147 C143 0.931 . S
H148 C144 0.930 . S
O149 Co138 2.039 . S
O149 C139 1.265 . S
C150 O146 1.253 . S
C150 O151 1.227 . S
O151 C150 1.227 . S
N152 Co138 2.140 . S
N152 C155 1.346 . S
N152 C156 1.345 . S
C153 C154 1.387 . S
C153 C157 1.391 . S
C154 C153 1.387 . S
C154 C155 1.369 . S
C154 H163 0.929 . S
C155 N152 1.346 . S
C155 C154 1.369 . S
C155 H158 0.928 . S
C156 N152 1.345 . S
C156 C157 1.371 . S
C156 H159 0.931 . S
C157 C153 1.391 . S
C157 C156 1.371 . S
C157 H164 0.930 . S
H158 C155 0.928 . S
H159 C156 0.931 . S
H160 C136 0.930 . S
H161 C133 0.930 . S
H162 C142 0.930 . S
H163 C154 0.929 . S
H164 C157 0.930 . S
C165 C166 1.351 . S
C165 N168 1.368 . S
C165 H170 0.931 . S
C166 C165 1.351 . S
C166 N167 1.373 . S
C166 H194 0.930 . S
N167 C166 1.373 . S
N167 C169 1.340 . S
N168 C165 1.368 . S
N168 C169 1.321 . S
N168 Co171 2.135 . S
C169 N167 1.340 . S
C169 N168 1.321 . S
C169 H193 0.930 . S
H170 C165 0.931 . S
Co171 N168 2.135 . S
Co171 N174 2.121 . S
Co171 O179 2.055 . S
Co171 O182 2.039 . S
Co171 N185 2.140 . S
C172 O173 1.227 . S
C172 O182 1.265 . S
O173 C172 1.227 . S
N174 Co171 2.121 . S
N174 C176 1.375 . S
N174 C177 1.313 . S
C175 C176 1.338 . S
C175 N178 1.377 . S
C175 H195 0.930 . S
C176 N174 1.375 . S
C176 C175 1.338 . S
C176 H180 0.931 . S
C177 N174 1.313 . S
C177 N178 1.344 . S
C177 H181 0.930 . S
N178 C175 1.377 . S
N178 C177 1.344 . S
O179 Co171 2.055 . S
O179 C183 1.253 . S
H180 C176 0.931 . S
H181 C177 0.930 . S
O182 Co171 2.039 . S
O182 C172 1.265 . S
C183 O179 1.253 . S
C183 O184 1.227 . S
O184 C183 1.227 . S
N185 Co171 2.140 . S
N185 C188 1.346 . S
N185 C189 1.345 . S
C186 C187 1.387 . S
C186 C190 1.391 . S
C187 C186 1.387 . S
C187 C188 1.369 . S
C187 H196 0.929 . S
C188 N185 1.346 . S
C188 C187 1.369 . S
C188 H191 0.928 . S
C189 N185 1.345 . S
C189 C190 1.371 . S
C189 H192 0.931 . S
C190 C186 1.391 . S
C190 C189 1.371 . S
C190 H197 0.930 . S
H191 C188 0.928 . S
H192 C189 0.931 . S
H193 C169 0.930 . S
H194 C166 0.930 . S
H195 C175 0.930 . S
H196 C187 0.929 . S
H197 C190 0.930 . S
C198 C199 1.351 . S
C198 N201 1.368 . S
C198 H203 0.931 . S
C199 C198 1.351 . S
C199 N200 1.373 . S
C199 H227 0.930 . S
N200 C199 1.373 . S
N200 C202 1.340 . S
N201 C198 1.368 . S
N201 C202 1.321 . S
N201 Co204 2.135 . S
C202 N200 1.340 . S
C202 N201 1.321 . S
C202 H226 0.930 . S
H203 C198 0.931 . S
Co204 N201 2.135 . S
Co204 N207 2.121 . S
Co204 O212 2.055 . S
Co204 O215 2.039 . S
Co204 N218 2.140 . S
C205 O206 1.227 . S
C205 O215 1.265 . S
O206 C205 1.227 . S
N207 Co204 2.121 . S
N207 C209 1.375 . S
N207 C210 1.313 . S
C208 C209 1.338 . S
C208 N211 1.377 . S
C208 H228 0.930 . S
C209 N207 1.375 . S
C209 C208 1.338 . S
C209 H213 0.931 . S
C210 N207 1.313 . S
C210 N211 1.344 . S
C210 H214 0.930 . S
N211 C208 1.377 . S
N211 C210 1.344 . S
O212 Co204 2.055 . S
O212 C216 1.253 . S
H213 C209 0.931 . S
H214 C210 0.930 . S
O215 Co204 2.039 . S
O215 C205 1.265 . S
C216 O212 1.253 . S
C216 O217 1.227 . S
O217 C216 1.227 . S
N218 Co204 2.140 . S
N218 C221 1.346 . S
N218 C222 1.345 . S
C219 C220 1.387 . S
C219 C223 1.391 . S
C220 C219 1.387 . S
C220 C221 1.369 . S
C220 H229 0.929 . S
C221 N218 1.346 . S
C221 C220 1.369 . S
C221 H224 0.928 . S
C222 N218 1.345 . S
C222 C223 1.371 . S
C222 H225 0.931 . S
C223 C219 1.391 . S
C223 C222 1.371 . S
C223 H230 0.930 . S
H224 C221 0.928 . S
H225 C222 0.931 . S
H226 C202 0.930 . S
H227 C199 0.930 . S
H228 C208 0.930 . S
H229 C220 0.929 . S
H230 C223 0.930 . S
C231 C232 1.351 . S
C231 N234 1.368 . S
C231 H236 0.931 . S
C232 C231 1.351 . S
C232 N233 1.373 . S
C232 H260 0.930 . S
N233 C232 1.373 . S
N233 C235 1.340 . S
N234 C231 1.368 . S
N234 C235 1.321 . S
N234 Co237 2.135 . S
C235 N233 1.340 . S
C235 N234 1.321 . S
C235 H259 0.930 . S
H236 C231 0.931 . S
Co237 N234 2.135 . S
Co237 N240 2.121 . S
Co237 O245 2.055 . S
Co237 O248 2.039 . S
Co237 N251 2.140 . S
C238 O239 1.227 . S
C238 O248 1.265 . S
O239 C238 1.227 . S
N240 Co237 2.121 . S
N240 C242 1.375 . S
N240 C243 1.313 . S
C241 C242 1.338 . S
C241 N244 1.377 . S
C241 H261 0.930 . S
C242 N240 1.375 . S
C242 C241 1.338 . S
C242 H246 0.931 . S
C243 N240 1.313 . S
C243 N244 1.344 . S
C243 H247 0.930 . S
N244 C241 1.377 . S
N244 C243 1.344 . S
O245 Co237 2.055 . S
O245 C249 1.253 . S
H246 C242 0.931 . S
H247 C243 0.930 . S
O248 Co237 2.039 . S
O248 C238 1.265 . S
C249 O245 1.253 . S
C249 O250 1.227 . S
O250 C249 1.227 . S
N251 Co237 2.140 . S
N251 C254 1.346 . S
N251 C255 1.345 . S
C252 C253 1.387 . S
C252 C256 1.391 . S
C253 C252 1.387 . S
C253 C254 1.369 . S
C253 H262 0.929 . S
C254 N251 1.346 . S
C254 C253 1.369 . S
C254 H257 0.928 . S
C255 N251 1.345 . S
C255 C256 1.371 . S
C255 H258 0.931 . S
C256 C252 1.391 . S
C256 C255 1.371 . S
C256 H263 0.930 . S
H257 C254 0.928 . S
H258 C255 0.931 . S
H259 C235 0.930 . S
H260 C232 0.930 . S
H261 C241 0.930 . S
H262 C253 0.929 . S
H263 C256 0.930 . S
C264 C265 1.351 . S
C264 N267 1.368 . S
C264 H269 0.931 . S
C265 C264 1.351 . S
C265 N266 1.373 . S
C265 H293 0.930 . S
N266 C265 1.373 . S
N266 C268 1.340 . S
N267 C264 1.368 . S
N267 C268 1.321 . S
N267 Co270 2.135 . S
C268 N266 1.340 . S
C268 N267 1.321 . S
C268 H292 0.930 . S
H269 C264 0.931 . S
Co270 N267 2.135 . S
Co270 N273 2.121 . S
Co270 O278 2.055 . S
Co270 O281 2.039 . S
Co270 N284 2.140 . S
C271 O272 1.227 . S
C271 O281 1.265 . S
O272 C271 1.227 . S
N273 Co270 2.121 . S
N273 C275 1.375 . S
N273 C276 1.313 . S
C274 C275 1.338 . S
C274 N277 1.377 . S
C274 H294 0.930 . S
C275 N273 1.375 . S
C275 C274 1.338 . S
C275 H279 0.931 . S
C276 N273 1.313 . S
C276 N277 1.344 . S
C276 H280 0.930 . S
N277 C274 1.377 . S
N277 C276 1.344 . S
O278 Co270 2.055 . S
O278 C282 1.253 . S
H279 C275 0.931 . S
H280 C276 0.930 . S
O281 Co270 2.039 . S
O281 C271 1.265 . S
C282 O278 1.253 . S
C282 O283 1.227 . S
O283 C282 1.227 . S
N284 Co270 2.140 . S
N284 C287 1.346 . S
N284 C288 1.345 . S
C285 C286 1.387 . S
C285 C289 1.391 . S
C286 C285 1.387 . S
C286 C287 1.369 . S
C286 H295 0.929 . S
C287 N284 1.346 . S
C287 C286 1.369 . S
C287 H290 0.928 . S
C288 N284 1.345 . S
C288 C289 1.371 . S
C288 H291 0.931 . S
C289 C285 1.391 . S
C289 C288 1.371 . S
C289 H296 0.930 . S
H290 C287 0.928 . S
H291 C288 0.931 . S
H292 C268 0.930 . S
H293 C265 0.930 . S
H294 C274 0.930 . S
H295 C286 0.929 . S
H296 C289 0.930 . S
C297 C298 1.351 . S
C297 N300 1.368 . S
C297 H302 0.931 . S
C298 C297 1.351 . S
C298 N299 1.373 . S
C298 H326 0.930 . S
N299 C298 1.373 . S
N299 C301 1.340 . S
N300 C297 1.368 . S
N300 C301 1.321 . S
N300 Co303 2.135 . S
C301 N299 1.340 . S
C301 N300 1.321 . S
C301 H325 0.930 . S
H302 C297 0.931 . S
Co303 N300 2.135 . S
Co303 N306 2.121 . S
Co303 O311 2.055 . S
Co303 O314 2.039 . S
Co303 N317 2.140 . S
C304 O305 1.227 . S
C304 O314 1.265 . S
O305 C304 1.227 . S
N306 Co303 2.121 . S
N306 C308 1.375 . S
N306 C309 1.313 . S
C307 C308 1.338 . S
C307 N310 1.377 . S
C307 H327 0.930 . S
C308 N306 1.375 . S
C308 C307 1.338 . S
C308 H312 0.931 . S
C309 N306 1.313 . S
C309 N310 1.344 . S
C309 H313 0.930 . S
N310 C307 1.377 . S
N310 C309 1.344 . S
O311 Co303 2.055 . S
O311 C315 1.253 . S
H312 C308 0.931 . S
H313 C309 0.930 . S
O314 Co303 2.039 . S
O314 C304 1.265 . S
C315 O311 1.253 . S
C315 O316 1.227 . S
O316 C315 1.227 . S
N317 Co303 2.140 . S
N317 C320 1.346 . S
N317 C321 1.345 . S
C318 C319 1.387 . S
C318 C322 1.391 . S
C319 C318 1.387 . S
C319 C320 1.369 . S
C319 H328 0.929 . S
C320 N317 1.346 . S
C320 C319 1.369 . S
C320 H323 0.928 . S
C321 N317 1.345 . S
C321 C322 1.371 . S
C321 H324 0.931 . S
C322 C318 1.391 . S
C322 C321 1.371 . S
C322 H329 0.930 . S
H323 C320 0.928 . S
H324 C321 0.931 . S
H325 C301 0.930 . S
H326 C298 0.930 . S
H327 C307 0.930 . S
H328 C319 0.929 . S
H329 C322 0.930 . S
C330 C331 1.351 . S
C330 N333 1.368 . S
C330 H335 0.931 . S
C331 C330 1.351 . S
C331 N332 1.373 . S
C331 H359 0.930 . S
N332 C331 1.373 . S
N332 C334 1.340 . S
N333 C330 1.368 . S
N333 C334 1.321 . S
N333 Co336 2.135 . S
C334 N332 1.340 . S
C334 N333 1.321 . S
C334 H358 0.930 . S
H335 C330 0.931 . S
Co336 N333 2.135 . S
Co336 N339 2.121 . S
Co336 O344 2.055 . S
Co336 O347 2.039 . S
Co336 N350 2.140 . S
C337 O338 1.227 . S
C337 O347 1.265 . S
O338 C337 1.227 . S
N339 Co336 2.121 . S
N339 C341 1.375 . S
N339 C342 1.313 . S
C340 C341 1.338 . S
C340 N343 1.377 . S
C340 H360 0.930 . S
C341 N339 1.375 . S
C341 C340 1.338 . S
C341 H345 0.931 . S
C342 N339 1.313 . S
C342 N343 1.344 . S
C342 H346 0.930 . S
N343 C340 1.377 . S
N343 C342 1.344 . S
O344 Co336 2.055 . S
O344 C348 1.253 . S
H345 C341 0.931 . S
H346 C342 0.930 . S
O347 Co336 2.039 . S
O347 C337 1.265 . S
C348 O344 1.253 . S
C348 O349 1.227 . S
O349 C348 1.227 . S
N350 Co336 2.140 . S
N350 C353 1.346 . S
N350 C354 1.345 . S
C351 C352 1.387 . S
C351 C355 1.391 . S
C352 C351 1.387 . S
C352 C353 1.369 . S
C352 H361 0.929 . S
C353 N350 1.346 . S
C353 C352 1.369 . S
C353 H356 0.928 . S
C354 N350 1.345 . S
C354 C355 1.371 . S
C354 H357 0.931 . S
C355 C351 1.391 . S
C355 C354 1.371 . S
C355 H362 0.930 . S
H356 C353 0.928 . S
H357 C354 0.931 . S
H358 C334 0.930 . S
H359 C331 0.930 . S
H360 C340 0.930 . S
H361 C352 0.929 . S
H362 C355 0.930 . S
C363 C364 1.351 . S
C363 N366 1.368 . S
C363 H368 0.931 . S
C364 C363 1.351 . S
C364 N365 1.373 . S
C364 H392 0.930 . S
N365 C364 1.373 . S
N365 C367 1.340 . S
N366 C363 1.368 . S
N366 C367 1.321 . S
N366 Co369 2.135 . S
C367 N365 1.340 . S
C367 N366 1.321 . S
C367 H391 0.930 . S
H368 C363 0.931 . S
Co369 N366 2.135 . S
Co369 N372 2.121 . S
Co369 O377 2.055 . S
Co369 O380 2.039 . S
Co369 N383 2.140 . S
C370 O371 1.227 . S
C370 O380 1.265 . S
O371 C370 1.227 . S
N372 Co369 2.121 . S
N372 C374 1.375 . S
N372 C375 1.313 . S
C373 C374 1.338 . S
C373 N376 1.377 . S
C373 H393 0.930 . S
C374 N372 1.375 . S
C374 C373 1.338 . S
C374 H378 0.931 . S
C375 N372 1.313 . S
C375 N376 1.344 . S
C375 H379 0.930 . S
N376 C373 1.377 . S
N376 C375 1.344 . S
O377 Co369 2.055 . S
O377 C381 1.253 . S
H378 C374 0.931 . S
H379 C375 0.930 . S
O380 Co369 2.039 . S
O380 C370 1.265 . S
C381 O377 1.253 . S
C381 O382 1.227 . S
O382 C381 1.227 . S
N383 Co369 2.140 . S
N383 C386 1.346 . S
N383 C387 1.345 . S
C384 C385 1.387 . S
C384 C388 1.391 . S
C385 C384 1.387 . S
C385 C386 1.369 . S
C385 H394 0.929 . S
C386 N383 1.346 . S
C386 C385 1.369 . S
C386 H389 0.928 . S
C387 N383 1.345 . S
C387 C388 1.371 . S
C387 H390 0.931 . S
C388 C384 1.391 . S
C388 C387 1.371 . S
C388 H395 0.930 . S
H389 C386 0.928 . S
H390 C387 0.931 . S
H391 C367 0.930 . S
H392 C364 0.930 . S
H393 C373 0.930 . S
H394 C385 0.929 . S
H395 C388 0.930 . S
C396 C397 1.351 . S
C396 N399 1.368 . S
C396 H401 0.931 . S
C397 C396 1.351 . S
C397 N398 1.373 . S
C397 H425 0.930 . S
N398 C397 1.373 . S
N398 C400 1.340 . S
N399 C396 1.368 . S
N399 C400 1.321 . S
N399 Co402 2.135 . S
C400 N398 1.340 . S
C400 N399 1.321 . S
C400 H424 0.930 . S
H401 C396 0.931 . S
Co402 N399 2.135 . S
Co402 N405 2.121 . S
Co402 O410 2.055 . S
Co402 O413 2.039 . S
Co402 N416 2.140 . S
C403 O404 1.227 . S
C403 O413 1.265 . S
O404 C403 1.227 . S
N405 Co402 2.121 . S
N405 C407 1.375 . S
N405 C408 1.313 . S
C406 C407 1.338 . S
C406 N409 1.377 . S
C406 H426 0.930 . S
C407 N405 1.375 . S
C407 C406 1.338 . S
C407 H411 0.931 . S
C408 N405 1.313 . S
C408 N409 1.344 . S
C408 H412 0.930 . S
N409 C406 1.377 . S
N409 C408 1.344 . S
O410 Co402 2.055 . S
O410 C414 1.253 . S
H411 C407 0.931 . S
H412 C408 0.930 . S
O413 Co402 2.039 . S
O413 C403 1.265 . S
C414 O410 1.253 . S
C414 O415 1.227 . S
O415 C414 1.227 . S
N416 Co402 2.140 . S
N416 C419 1.346 . S
N416 C420 1.345 . S
C417 C418 1.387 . S
C417 C421 1.391 . S
C418 C417 1.387 . S
C418 C419 1.369 . S
C418 H427 0.929 . S
C419 N416 1.346 . S
C419 C418 1.369 . S
C419 H422 0.928 . S
C420 N416 1.345 . S
C420 C421 1.371 . S
C420 H423 0.931 . S
C421 C417 1.391 . S
C421 C420 1.371 . S
C421 H428 0.930 . S
H422 C419 0.928 . S
H423 C420 0.931 . S
H424 C400 0.930 . S
H425 C397 0.930 . S
H426 C406 0.930 . S
H427 C418 0.929 . S
H428 C421 0.930 . S
C429 C430 1.351 . S
C429 N432 1.368 . S
C429 H434 0.931 . S
C430 C429 1.351 . S
C430 N431 1.373 . S
C430 H458 0.930 . S
N431 C430 1.373 . S
N431 C433 1.340 . S
N432 C429 1.368 . S
N432 C433 1.321 . S
N432 Co435 2.135 . S
C433 N431 1.340 . S
C433 N432 1.321 . S
C433 H457 0.930 . S
H434 C429 0.931 . S
Co435 N432 2.135 . S
Co435 N438 2.121 . S
Co435 O443 2.055 . S
Co435 O446 2.039 . S
Co435 N449 2.140 . S
C436 O437 1.227 . S
C436 O446 1.265 . S
O437 C436 1.227 . S
N438 Co435 2.121 . S
N438 C440 1.375 . S
N438 C441 1.313 . S
C439 C440 1.338 . S
C439 N442 1.377 . S
C439 H459 0.930 . S
C440 N438 1.375 . S
C440 C439 1.338 . S
C440 H444 0.931 . S
C441 N438 1.313 . S
C441 N442 1.344 . S
C441 H445 0.930 . S
N442 C439 1.377 . S
N442 C441 1.344 . S
O443 Co435 2.055 . S
O443 C447 1.253 . S
H444 C440 0.931 . S
H445 C441 0.930 . S
O446 Co435 2.039 . S
O446 C436 1.265 . S
C447 O443 1.253 . S
C447 O448 1.227 . S
O448 C447 1.227 . S
N449 Co435 2.140 . S
N449 C452 1.346 . S
N449 C453 1.345 . S
C450 C451 1.387 . S
C450 C454 1.391 . S
C451 C450 1.387 . S
C451 C452 1.369 . S
C451 H460 0.929 . S
C452 N449 1.346 . S
C452 C451 1.369 . S
C452 H455 0.928 . S
C453 N449 1.345 . S
C453 C454 1.371 . S
C453 H456 0.931 . S
C454 C450 1.391 . S
C454 C453 1.371 . S
C454 H461 0.930 . S
H455 C452 0.928 . S
H456 C453 0.931 . S
H457 C433 0.930 . S
H458 C430 0.930 . S
H459 C439 0.930 . S
H460 C451 0.929 . S
H461 C454 0.930 . S
C462 C463 1.351 . S
C462 N465 1.368 . S
C462 H467 0.931 . S
C463 C462 1.351 . S
C463 N464 1.373 . S
C463 H491 0.930 . S
N464 C463 1.373 . S
N464 C466 1.340 . S
N465 C462 1.368 . S
N465 C466 1.321 . S
N465 Co468 2.135 . S
C466 N464 1.340 . S
C466 N465 1.321 . S
C466 H490 0.930 . S
H467 C462 0.931 . S
Co468 N465 2.135 . S
Co468 N471 2.121 . S
Co468 O476 2.055 . S
Co468 O479 2.039 . S
Co468 N482 2.140 . S
C469 O470 1.227 . S
C469 O479 1.265 . S
O470 C469 1.227 . S
N471 Co468 2.121 . S
N471 C473 1.375 . S
N471 C474 1.313 . S
C472 C473 1.338 . S
C472 N475 1.377 . S
C472 H492 0.930 . S
C473 N471 1.375 . S
C473 C472 1.338 . S
C473 H477 0.931 . S
C474 N471 1.313 . S
C474 N475 1.344 . S
C474 H478 0.930 . S
N475 C472 1.377 . S
N475 C474 1.344 . S
O476 Co468 2.055 . S
O476 C480 1.253 . S
H477 C473 0.931 . S
H478 C474 0.930 . S
O479 Co468 2.039 . S
O479 C469 1.265 . S
C480 O476 1.253 . S
C480 O481 1.227 . S
O481 C480 1.227 . S
N482 Co468 2.140 . S
N482 C485 1.346 . S
N482 C486 1.345 . S
C483 C484 1.387 . S
C483 C487 1.391 . S
C484 C483 1.387 . S
C484 C485 1.369 . S
C484 H493 0.929 . S
C485 N482 1.346 . S
C485 C484 1.369 . S
C485 H488 0.928 . S
C486 N482 1.345 . S
C486 C487 1.371 . S
C486 H489 0.931 . S
C487 C483 1.391 . S
C487 C486 1.371 . S
C487 H494 0.930 . S
H488 C485 0.928 . S
H489 C486 0.931 . S
H490 C466 0.930 . S
H491 C463 0.930 . S
H492 C472 0.930 . S
H493 C484 0.929 . S
H494 C487 0.930 . S
C495 C496 1.351 . S
C495 N498 1.368 . S
C495 H500 0.931 . S
C496 C495 1.351 . S
C496 N497 1.373 . S
C496 H524 0.930 . S
N497 C496 1.373 . S
N497 C499 1.340 . S
N498 C495 1.368 . S
N498 C499 1.321 . S
N498 Co501 2.135 . S
C499 N497 1.340 . S
C499 N498 1.321 . S
C499 H523 0.930 . S
H500 C495 0.931 . S
Co501 N498 2.135 . S
Co501 N504 2.121 . S
Co501 O509 2.055 . S
Co501 O512 2.039 . S
Co501 N515 2.140 . S
C502 O503 1.227 . S
C502 O512 1.265 . S
O503 C502 1.227 . S
N504 Co501 2.121 . S
N504 C506 1.375 . S
N504 C507 1.313 . S
C505 C506 1.338 . S
C505 N508 1.377 . S
C505 H525 0.930 . S
C506 N504 1.375 . S
C506 C505 1.338 . S
C506 H510 0.931 . S
C507 N504 1.313 . S
C507 N508 1.344 . S
C507 H511 0.930 . S
N508 C505 1.377 . S
N508 C507 1.344 . S
O509 Co501 2.055 . S
O509 C513 1.253 . S
H510 C506 0.931 . S
H511 C507 0.930 . S
O512 Co501 2.039 . S
O512 C502 1.265 . S
C513 O509 1.253 . S
C513 O514 1.227 . S
O514 C513 1.227 . S
N515 Co501 2.140 . S
N515 C518 1.346 . S
N515 C519 1.345 . S
C516 C517 1.387 . S
C516 C520 1.391 . S
C517 C516 1.387 . S
C517 C518 1.369 . S
C517 H526 0.929 . S
C518 N515 1.346 . S
C518 C517 1.369 . S
C518 H521 0.928 . S
C519 N515 1.345 . S
C519 C520 1.371 . S
C519 H522 0.931 . S
C520 C516 1.391 . S
C520 C519 1.371 . S
C520 H527 0.930 . S
H521 C518 0.928 . S
H522 C519 0.931 . S
H523 C499 0.930 . S
H524 C496 0.930 . S
H525 C505 0.930 . S
H526 C517 0.929 . S
H527 C520 0.930 . S
H528 C534 0.930 . S
H529 C538 0.930 . S
H530 C543 0.929 . S
H531 C541 0.929 . S
H532 C536 0.929 . S
H533 C542 0.929 . S
C534 H528 0.930 . S
C534 C535 1.367 . S
C534 C542 1.378 . S
C535 C534 1.367 . S
C535 C543 1.433 . S
C536 H532 0.929 . S
C536 C538 1.378 . S
C536 C540 1.350 . S
C537 C540 1.463 . S
C537 C542 1.350 . S
C537 N545 1.427 . S
C538 H529 0.930 . S
C538 C536 1.378 . S
C538 C539 1.367 . S
C539 C538 1.367 . S
C539 C541 1.433 . S
C540 C536 1.350 . S
C540 C537 1.463 . S
C540 N544 1.427 . S
C541 H531 0.929 . S
C541 C539 1.433 . S
C541 N544 1.384 . S
C542 H533 0.929 . S
C542 C534 1.378 . S
C542 C537 1.350 . S
C543 H530 0.929 . S
C543 C535 1.433 . S
C543 N545 1.384 . S
N544 C540 1.427 . S
N544 C541 1.384 . S
N545 C537 1.427 . S
N545 C543 1.384 . S
H546 C552 0.930 . S
H547 C556 0.930 . S
H548 C561 0.929 . S
H549 C559 0.929 . S
H550 C554 0.929 . S
H551 C560 0.929 1_565 S
C552 H546 0.930 . S
C552 C553 1.367 . S
C552 C560 1.378 . S
C553 C552 1.367 . S
C553 C561 1.433 . S
C554 H550 0.929 . S
C554 C556 1.378 . S
C554 C558 1.350 . S
C555 C558 1.463 . S
C555 C560 1.350 1_455 S
C555 N563 1.427 . S
C556 H547 0.930 . S
C556 C554 1.378 . S
C556 C557 1.367 1_545 S
C557 C556 1.367 1_565 S
C557 C559 1.433 . S
C558 C554 1.350 . S
C558 C555 1.463 . S
C558 N562 1.427 1_545 S
C559 H549 0.929 . S
C559 C557 1.433 . S
C559 N562 1.384 . S
C560 H551 0.929 1_545 S
C560 C552 1.378 . S
C560 C555 1.350 1_655 S
C561 H548 0.929 . S
C561 C553 1.433 . S
C561 N563 1.384 1_655 S
N562 C558 1.427 1_565 S
N562 C559 1.384 . S
N563 C555 1.427 . S
N563 C561 1.384 1_455 S
H564 C570 0.930 . S
H565 C574 0.930 . S
H566 C579 0.929 . S
H567 C577 0.929 . S
H568 C572 0.929 . S
H569 C578 0.929 . S
C570 H564 0.930 . S
C570 C571 1.367 . S
C570 C578 1.378 . S
C571 C570 1.367 . S
C571 C579 1.433 . S
C572 H568 0.929 . S
C572 C574 1.378 . S
C572 C576 1.350 . S
C573 C576 1.463 . S
C573 C578 1.350 . S
C573 N581 1.427 . S
C574 H565 0.930 . S
C574 C572 1.378 . S
C574 C575 1.367 . S
C575 C574 1.367 . S
C575 C577 1.433 . S
C576 C572 1.350 . S
C576 C573 1.463 . S
C576 N580 1.427 . S
C577 H567 0.929 . S
C577 C575 1.433 . S
C577 N580 1.384 . S
C578 H569 0.929 . S
C578 C570 1.378 . S
C578 C573 1.350 . S
C579 H566 0.929 . S
C579 C571 1.433 . S
C579 N581 1.384 . S
N580 C576 1.427 . S
N580 C577 1.384 . S
N581 C573 1.427 . S
N581 C579 1.384 . S
H582 C588 0.930 . S
H583 C592 0.930 . S
H584 C597 0.938 . S
H585 C595 0.929 . S
H586 C590 0.929 1_545 S
H587 C596 0.929 . S
C588 H582 0.930 . S
C588 C589 1.367 1_565 S
C588 C596 1.378 . S
C589 C588 1.367 1_545 S
C589 C597 1.433 . S
C590 H586 0.929 1_565 S
C590 C592 1.378 . S
C590 C594 1.350 . S
C591 C594 1.441 1_556 S
C591 C596 1.383 . S
C591 N599 1.414 1_566 S
C592 H583 0.930 . S
C592 C590 1.378 . S
C592 C593 1.367 . S
C593 C592 1.367 . S
C593 C595 1.433 . S
C594 C590 1.350 . S
C594 C591 1.441 1_554 S
C594 N598 1.427 . S
C595 H585 0.929 . S
C595 C593 1.433 . S
C595 N598 1.384 . S
C596 H587 0.929 . S
C596 C588 1.378 . S
C596 C591 1.383 . S
C597 H584 0.938 . S
C597 C589 1.433 . S
C597 N599 1.384 1_556 S
N598 C594 1.427 . S
N598 C595 1.384 . S
N599 C591 1.414 1_544 S
N599 C597 1.384 1_554 S
H600 C606 0.930 . S
H601 C610 0.930 . S
H602 C615 0.929 . S
H603 C613 0.929 . S
H604 C608 0.929 . S
H605 C614 0.929 . S
C606 H600 0.930 . S
C606 C607 1.367 . S
C606 C614 1.378 . S
C607 C606 1.367 . S
C607 C615 1.433 . S
C608 H604 0.929 . S
C608 C610 1.378 . S
C608 C612 1.350 . S
C609 C612 1.463 . S
C609 C614 1.350 . S
C609 N617 1.427 . S
C610 H601 0.930 . S
C610 C608 1.378 . S
C610 C611 1.367 . S
C611 C610 1.367 . S
C611 C613 1.433 . S
C612 C608 1.350 . S
C612 C609 1.463 . S
C612 N616 1.427 . S
C613 H603 0.929 . S
C613 C611 1.433 . S
C613 N616 1.384 . S
C614 H605 0.929 . S
C614 C606 1.378 . S
C614 C609 1.350 . S
C615 H602 0.929 . S
C615 C607 1.433 . S
C615 N617 1.384 . S
N616 C612 1.427 . S
N616 C613 1.384 . S
N617 C609 1.427 . S
N617 C615 1.384 . S
H618 C624 0.930 . S
H619 C628 0.930 . S
H620 C633 0.929 . S
H621 C631 0.929 . S
H622 C626 0.929 . S
H623 C632 0.929 1_545 S
C624 H618 0.930 . S
C624 C625 1.367 . S
C624 C632 1.378 . S
C625 C624 1.367 . S
C625 C633 1.433 . S
C626 H622 0.929 . S
C626 C628 1.378 1_565 S
C626 C630 1.350 . S
C627 C630 1.463 . S
C627 C632 1.350 . S
C627 N635 1.427 . S
C628 H619 0.930 . S
C628 C626 1.378 1_545 S
C628 C629 1.367 . S
C629 C628 1.367 . S
C629 C631 1.433 . S
C630 C626 1.350 . S
C630 C627 1.463 . S
C630 N634 1.427 1_565 S
C631 H621 0.929 . S
C631 C629 1.433 . S
C631 N634 1.384 . S
C632 H623 0.929 1_565 S
C632 C624 1.378 . S
C632 C627 1.350 . S
C633 H620 0.929 . S
C633 C625 1.433 . S
C633 N635 1.384 . S
N634 C630 1.427 1_545 S
N634 C631 1.384 . S
N635 C627 1.427 . S
N635 C633 1.384 . S
H636 C642 0.930 . S
H637 C646 0.930 . S
H638 C651 0.929 . S
H639 C649 0.929 . S
H640 C644 0.929 . S
H641 C650 0.929 . S
C642 H636 0.930 . S
C642 C643 1.367 . S
C642 C650 1.378 . S
C643 C642 1.367 . S
C643 C651 1.433 . S
C644 H640 0.929 . S
C644 C646 1.378 . S
C644 C648 1.350 . S
C645 C648 1.463 . S
C645 C650 1.350 . S
C645 N653 1.427 . S
C646 H637 0.930 . S
C646 C644 1.378 . S
C646 C647 1.367 . S
C647 C646 1.367 . S
C647 C649 1.433 . S
C648 C644 1.350 . S
C648 C645 1.463 . S
C648 N652 1.427 . S
C649 H639 0.929 . S
C649 C647 1.433 . S
C649 N652 1.384 . S
C650 H641 0.929 . S
C650 C642 1.378 . S
C650 C645 1.350 . S
C651 H638 0.929 . S
C651 C643 1.433 . S
C651 N653 1.384 . S
N652 C648 1.427 . S
N652 C649 1.384 . S
N653 C645 1.427 . S
N653 C651 1.384 . S
H654 C660 0.930 . S
H655 C664 0.930 . S
H656 C669 0.929 . S
H657 C667 0.929 . S
H658 C662 0.929 1_554 S
H659 C668 0.929 . S
C660 H654 0.930 . S
C660 C661 1.367 . S
C660 C668 1.378 1_454 S
C661 C660 1.367 . S
C661 C669 1.433 . S
C662 H658 0.929 1_556 S
C662 C664 1.378 . S
C662 C666 1.350 1_565 S
C663 C666 1.463 1_554 S
C663 C668 1.350 1_554 S
C663 N671 1.427 1_655 S
C664 H655 0.930 . S
C664 C662 1.378 . S
C664 C665 1.367 . S
C665 C664 1.367 . S
C665 C667 1.433 1_565 S
C666 C662 1.350 1_545 S
C666 C663 1.463 1_556 S
C666 N670 1.427 . S
C667 H657 0.929 . S
C667 C665 1.433 1_545 S
C667 N670 1.384 . S
C668 H659 0.929 . S
C668 C660 1.378 1_656 S
C668 C663 1.350 1_556 S
C669 H656 0.929 . S
C669 C661 1.433 . S
C669 N671 1.384 . S
N670 C666 1.427 . S
N670 C667 1.384 . S
N671 C663 1.427 1_455 S
N671 C669 1.384 . S
H672 C678 0.930 . S
H673 C682 0.930 . S
H674 C687 0.929 . S
H675 C685 0.929 . S
H676 C680 0.929 . S
H677 C686 0.929 . S
C678 H672 0.930 . S
C678 C679 1.367 . S
C678 C686 1.378 . S
C679 C678 1.367 . S
C679 C687 1.433 . S
C680 H676 0.929 . S
C680 C682 1.378 . S
C680 C684 1.350 . S
C681 C684 1.463 . S
C681 C686 1.350 . S
C681 N689 1.427 . S
C682 H673 0.930 . S
C682 C680 1.378 . S
C682 C683 1.367 . S
C683 C682 1.367 . S
C683 C685 1.433 . S
C684 C680 1.350 . S
C684 C681 1.463 . S
C684 N688 1.427 . S
C685 H675 0.929 . S
C685 C683 1.433 . S
C685 N688 1.384 . S
C686 H677 0.929 . S
C686 C678 1.378 . S
C686 C681 1.350 . S
C687 H674 0.929 . S
C687 C679 1.433 . S
C687 N689 1.384 . S
N688 C684 1.427 . S
N688 C685 1.384 . S
N689 C681 1.427 . S
N689 C687 1.384 . S
H690 C696 0.930 . S
H691 C700 0.930 . S
H692 C705 0.929 . S
H693 C703 0.929 . S
H694 C698 0.929 . S
H695 C704 0.924 1_554 S
C696 H690 0.930 . S
C696 C697 1.367 . S
C696 C704 1.383 . S
C697 C696 1.367 . S
C697 C705 1.433 . S
C698 H694 0.929 . S
C698 C700 1.378 . S
C698 C702 1.350 . S
C699 C702 1.463 . S
C699 C704 1.349 1_554 S
C699 N707 1.427 1_554 S
C700 H691 0.930 . S
C700 C698 1.378 . S
C700 C701 1.367 1_455 S
C701 C700 1.367 1_655 S
C701 C703 1.433 . S
C702 C698 1.350 . S
C702 C699 1.463 . S
C702 N706 1.427 1_455 S
C703 H693 0.929 . S
C703 C701 1.433 . S
C703 N706 1.384 . S
C704 H695 0.924 1_556 S
C704 C696 1.383 . S
C704 C699 1.349 1_556 S
C705 H692 0.929 . S
C705 C697 1.433 . S
C705 N707 1.384 . S
N706 C702 1.427 1_655 S
N706 C703 1.384 . S
N707 C699 1.427 1_556 S
N707 C705 1.384 . S
H708 C714 0.930 . S
H709 C718 0.930 . S
H710 C723 0.929 . S
H711 C721 0.929 . S
H712 C716 0.929 . S
H713 C722 0.929 . S
C714 H708 0.930 . S
C714 C715 1.367 . S
C714 C722 1.378 . S
C715 C714 1.367 . S
C715 C723 1.433 . S
C716 H712 0.929 . S
C716 C718 1.378 . S
C716 C720 1.350 . S
C717 C720 1.463 . S
C717 C722 1.350 . S
C717 N725 1.427 . S
C718 H709 0.930 . S
C718 C716 1.378 . S
C718 C719 1.367 . S
C719 C718 1.367 . S
C719 C721 1.433 . S
C720 C716 1.350 . S
C720 C717 1.463 . S
C720 N724 1.427 . S
C721 H711 0.929 . S
C721 C719 1.433 . S
C721 N724 1.384 . S
C722 H713 0.929 . S
C722 C714 1.378 . S
C722 C717 1.350 . S
C723 H710 0.929 . S
C723 C715 1.433 . S
C723 N725 1.384 . S
N724 C720 1.427 . S
N724 C721 1.384 . S
N725 C717 1.427 . S
N725 C723 1.384 . S
H726 C732 0.930 . S
H727 C736 0.930 . S
H728 C741 0.929 . S
H729 C739 0.929 . S
H730 C734 0.929 1_655 S
H731 C740 0.929 . S
C732 H726 0.930 . S
C732 C733 1.367 . S
C732 C740 1.378 . S
C733 C732 1.367 . S
C733 C741 1.433 . S
C734 H730 0.929 1_455 S
C734 C736 1.378 . S
C734 C738 1.350 1_455 S
C735 C738 1.463 . S
C735 C740 1.350 . S
C735 N743 1.427 . S
C736 H727 0.930 . S
C736 C734 1.378 . S
C736 C737 1.367 . S
C737 C736 1.367 . S
C737 C739 1.433 . S
C738 C734 1.350 1_655 S
C738 C735 1.463 . S
C738 N742 1.427 1_655 S
C739 H729 0.929 . S
C739 C737 1.433 . S
C739 N742 1.384 . S
C740 H731 0.929 . S
C740 C732 1.378 . S
C740 C735 1.350 . S
C741 H728 0.929 . S
C741 C733 1.433 . S
C741 N743 1.384 . S
N742 C738 1.427 1_455 S
N742 C739 1.384 . S
N743 C735 1.427 . S
N743 C741 1.384 . S
H744 C750 0.930 . S
H745 C754 0.930 1_556 S
H746 C759 0.929 . S
H747 C757 0.929 . S
H748 C752 0.929 . S
H749 C758 0.929 1_554 S
C750 H744 0.930 . S
C750 C751 1.367 . S
C750 C758 1.378 . S
C751 C750 1.367 . S
C751 C759 1.433 . S
C752 H748 0.929 . S
C752 C754 1.378 1_556 S
C752 C756 1.350 . S
C753 C756 1.463 . S
C753 C758 1.350 . S
C753 N761 1.427 . S
C754 H745 0.930 1_554 S
C754 C752 1.378 1_554 S
C754 C755 1.367 . S
C755 C754 1.367 . S
C755 C757 1.433 . S
C756 C752 1.350 . S
C756 C753 1.463 . S
C756 N760 1.427 1_556 S
C757 H747 0.929 . S
C757 C755 1.433 . S
C757 N760 1.384 . S
C758 H749 0.929 1_556 S
C758 C750 1.378 . S
C758 C753 1.350 . S
C759 H746 0.929 . S
C759 C751 1.433 . S
C759 N761 1.384 . S
N760 C756 1.427 1_554 S
N760 C757 1.384 . S
N761 C753 1.427 . S
N761 C759 1.384 . S
H762 C768 0.930 . S
H763 C772 0.930 . S
H764 C777 0.929 . S
H765 C775 0.929 . S
H766 C770 0.929 . S
H767 C776 0.929 . S
C768 H762 0.930 . S
C768 C769 1.367 . S
C768 C776 1.378 . S
C769 C768 1.367 . S
C769 C777 1.433 . S
C770 H766 0.929 . S
C770 C772 1.378 . S
C770 C774 1.350 . S
C771 C774 1.463 . S
C771 C776 1.350 . S
C771 N779 1.427 . S
C772 H763 0.930 . S
C772 C770 1.378 . S
C772 C773 1.367 . S
C773 C772 1.367 . S
C773 C775 1.433 . S
C774 C770 1.350 . S
C774 C771 1.463 . S
C774 N778 1.427 . S
C775 H765 0.929 . S
C775 C773 1.433 . S
C775 N778 1.384 . S
C776 H767 0.929 . S
C776 C768 1.378 . S
C776 C771 1.350 . S
C777 H764 0.929 . S
C777 C769 1.433 . S
C777 N779 1.384 . S
N778 C774 1.427 . S
N778 C775 1.384 . S
N779 C771 1.427 . S
N779 C777 1.384 . S
H780 C786 0.930 . S
H781 C790 0.930 . S
H782 C795 0.929 . S
H783 C793 0.929 . S
H784 C788 0.929 . S
H785 C794 0.929 . S
C786 H780 0.930 . S
C786 C787 1.367 . S
C786 C794 1.378 . S
C787 C786 1.367 . S
C787 C795 1.433 . S
C788 H784 0.929 . S
C788 C790 1.378 . S
C788 C792 1.350 . S
C789 C792 1.463 . S
C789 C794 1.350 . S
C789 N797 1.427 . S
C790 H781 0.930 . S
C790 C788 1.378 . S
C790 C791 1.367 . S
C791 C790 1.367 . S
C791 C793 1.433 . S
C792 C788 1.350 . S
C792 C789 1.463 . S
C792 N796 1.427 . S
C793 H783 0.929 . S
C793 C791 1.433 . S
C793 N796 1.384 . S
C794 H785 0.929 . S
C794 C786 1.378 . S
C794 C789 1.350 . S
C795 H782 0.929 . S
C795 C787 1.433 . S
C795 N797 1.384 . S
N796 C792 1.427 . S
N796 C793 1.384 . S
N797 C789 1.427 . S
N797 C795 1.384 . S
H798 C804 0.930 . S
H799 C808 0.930 . S
H800 C813 0.929 . S
H801 C811 0.929 . S
H802 C806 0.929 . S
H803 C812 0.929 . S
C804 H798 0.930 . S
C804 C805 1.367 . S
C804 C812 1.378 . S
C805 C804 1.367 . S
C805 C813 1.433 . S
C806 H802 0.929 . S
C806 C808 1.378 . S
C806 C810 1.350 . S
C807 C810 1.463 . S
C807 C812 1.350 . S
C807 N815 1.427 . S
C808 H799 0.930 . S
C808 C806 1.378 . S
C808 C809 1.367 . S
C809 C808 1.367 . S
C809 C811 1.433 . S
C810 C806 1.350 . S
C810 C807 1.463 . S
C810 N814 1.427 . S
C811 H801 0.929 . S
C811 C809 1.433 . S
C811 N814 1.384 . S
C812 H803 0.929 . S
C812 C804 1.378 . S
C812 C807 1.350 . S
C813 H800 0.929 . S
C813 C805 1.433 . S
C813 N815 1.384 . S
N814 C810 1.427 . S
N814 C811 1.384 . S
N815 C807 1.427 . S
N815 C813 1.384 . S
H816 C822 0.930 . S
H817 C826 0.930 . S
H818 C831 0.929 . S
H819 C829 0.929 . S
H820 C824 0.929 . S
H821 C830 0.929 . S
C822 H816 0.930 . S
C822 C823 1.367 . S
C822 C830 1.378 . S
C823 C822 1.367 . S
C823 C831 1.433 . S
C824 H820 0.929 . S
C824 C826 1.378 . S
C824 C828 1.350 . S
C825 C828 1.463 1_545 S
C825 C830 1.350 . S
C825 N833 1.427 . S
C826 H817 0.930 . S
C826 C824 1.378 . S
C826 C827 1.367 . S
C827 C826 1.367 . S
C827 C829 1.433 . S
C828 C824 1.350 . S
C828 C825 1.463 1_565 S
C828 N832 1.435 . S
C829 H819 0.929 . S
C829 C827 1.433 . S
C829 N832 1.403 . S
C830 H821 0.929 . S
C830 C822 1.378 . S
C830 C825 1.350 . S
C831 H818 0.929 . S
C831 C823 1.433 . S
C831 N833 1.384 . S
N832 C828 1.435 . S
N832 C829 1.403 . S
N833 C825 1.427 . S
N833 C831 1.384 . S
H834 C840 0.930 . S
H835 C844 0.930 . S
H836 C849 0.929 . S
H837 C847 0.929 . S
H838 C842 0.929 . S
H839 C848 0.929 . S
C840 H834 0.930 . S
C840 C841 1.367 . S
C840 C848 1.378 . S
C841 C840 1.367 . S
C841 C849 1.433 . S
C842 H838 0.929 . S
C842 C844 1.378 . S
C842 C846 1.350 . S
C843 C846 1.463 . S
C843 C848 1.350 . S
C843 N851 1.427 . S
C844 H835 0.930 . S
C844 C842 1.378 . S
C844 C845 1.367 . S
C845 C844 1.367 . S
C845 C847 1.433 . S
C846 C842 1.350 . S
C846 C843 1.463 . S
C846 N850 1.427 . S
C847 H837 0.929 . S
C847 C845 1.433 . S
C847 N850 1.384 . S
C848 H839 0.929 . S
C848 C840 1.378 . S
C848 C843 1.350 . S
C849 H836 0.929 . S
C849 C841 1.433 . S
C849 N851 1.384 . S
N850 C846 1.427 . S
N850 C847 1.384 . S
N851 C843 1.427 . S
N851 C849 1.384 . S
H852 C858 0.930 . S
H853 C862 0.930 . S
H854 C867 0.929 . S
H855 C865 0.929 . S
H856 C860 0.929 . S
H857 C866 0.929 . S
C858 H852 0.930 . S
C858 C859 1.367 . S
C858 C866 1.378 . S
C859 C858 1.367 . S
C859 C867 1.433 . S
C860 H856 0.929 . S
C860 C862 1.378 . S
C860 C864 1.350 1_545 S
C861 C864 1.463 . S
C861 C866 1.350 . S
C861 N869 1.427 . S
C862 H853 0.930 . S
C862 C860 1.378 . S
C862 C863 1.367 . S
C863 C862 1.367 . S
C863 C865 1.433 . S
C864 C860 1.350 1_565 S
C864 C861 1.463 . S
C864 N868 1.427 . S
C865 H855 0.929 . S
C865 C863 1.433 . S
C865 N868 1.384 1_545 S
C866 H857 0.929 . S
C866 C858 1.378 . S
C866 C861 1.350 . S
C867 H854 0.929 . S
C867 C859 1.433 . S
C867 N869 1.384 . S
N868 C864 1.427 . S
N868 C865 1.384 1_565 S
N869 C861 1.427 . S
N869 C867 1.384 . S
H870 C876 0.930 . S
H871 C880 0.930 . S
H872 C885 0.929 . S
H873 C883 0.929 . S
H874 C878 0.929 1_556 S
H875 C884 0.929 1_554 S
C876 H870 0.930 . S
C876 C877 1.367 . S
C876 C884 1.378 . S
C877 C876 1.367 . S
C877 C885 1.433 . S
C878 H874 0.929 1_554 S
C878 C880 1.378 . S
C878 C882 1.350 . S
C879 C882 1.463 1_556 S
C879 C884 1.350 . S
C879 N887 1.427 . S
C880 H871 0.930 . S
C880 C878 1.378 . S
C880 C881 1.367 . S
C881 C880 1.367 . S
C881 C883 1.433 . S
C882 C878 1.350 . S
C882 C879 1.463 1_554 S
C882 N886 1.427 . S
C883 H873 0.929 . S
C883 C881 1.433 . S
C883 N886 1.384 . S
C884 H875 0.929 1_556 S
C884 C876 1.378 . S
C884 C879 1.350 . S
C885 H872 0.929 . S
C885 C877 1.433 . S
C885 N887 1.384 . S
N886 C882 1.427 . S
N886 C883 1.384 . S
N887 C879 1.427 . S
N887 C885 1.384 . S
H888 C894 0.930 . S
H889 C898 0.930 . S
H890 C903 0.929 . S
H891 C901 0.929 . S
H892 C896 0.929 1_455 S
H893 C902 0.929 . S
C894 H888 0.930 . S
C894 C895 1.367 . S
C894 C902 1.378 . S
C895 C894 1.367 . S
C895 C903 1.433 . S
C896 H892 0.929 1_655 S
C896 C898 1.378 . S
C896 C900 1.350 . S
C897 C900 1.463 1_455 S
C897 C902 1.350 . S
C897 N905 1.427 . S
C898 H889 0.930 . S
C898 C896 1.378 . S
C898 C899 1.367 . S
C899 C898 1.367 . S
C899 C901 1.433 . S
C900 C896 1.350 . S
C900 C897 1.463 1_655 S
C900 N904 1.427 . S
C901 H891 0.929 . S
C901 C899 1.433 . S
C901 N904 1.384 . S
C902 H893 0.929 . S
C902 C894 1.378 . S
C902 C897 1.350 . S
C903 H890 0.929 . S
C903 C895 1.433 . S
C903 N905 1.384 . S
N904 C900 1.427 . S
N904 C901 1.384 . S
N905 C897 1.427 . S
N905 C903 1.384 . S
H906 C912 0.930 . S
H907 C916 0.930 . S
H908 C921 0.929 . S
H909 C919 0.929 . S
H910 C914 0.929 . S
H911 C920 0.929 . S
C912 H906 0.930 . S
C912 C913 1.367 . S
C912 C920 1.378 . S
C913 C912 1.367 . S
C913 C921 1.433 . S
C914 H910 0.929 . S
C914 C916 1.378 . S
C914 C918 1.350 . S
C915 C918 1.463 . S
C915 C920 1.350 . S
C915 N923 1.427 . S
C916 H907 0.930 . S
C916 C914 1.378 . S
C916 C917 1.367 . S
C917 C916 1.367 . S
C917 C919 1.433 . S
C918 C914 1.350 . S
C918 C915 1.463 . S
C918 N922 1.427 . S
C919 H909 0.929 . S
C919 C917 1.433 . S
C919 N922 1.384 . S
C920 H911 0.929 . S
C920 C912 1.378 . S
C920 C915 1.350 . S
C921 H908 0.929 . S
C921 C913 1.433 . S
C921 N923 1.384 . S
N922 C918 1.427 . S
N922 C919 1.384 . S
N923 C915 1.427 . S
N923 C921 1.384 . S
H924 C930 0.930 . S
H925 C934 0.930 . S
H926 C939 0.929 . S
H927 C937 0.929 . S
H928 C932 0.929 . S
H929 C938 0.929 . S
C930 H924 0.930 . S
C930 C931 1.367 . S
C930 C938 1.378 . S
C931 C930 1.367 . S
C931 C939 1.433 . S
C932 H928 0.929 . S
C932 C934 1.378 . S
C932 C936 1.350 . S
C933 C936 1.463 1_655 S
C933 C938 1.350 . S
C933 N941 1.427 . S
C934 H925 0.930 . S
C934 C932 1.378 . S
C934 C935 1.367 . S
C935 C934 1.367 . S
C935 C937 1.433 . S
C936 C932 1.350 . S
C936 C933 1.463 1_455 S
C936 N940 1.427 1_455 S
C937 H927 0.929 . S
C937 C935 1.433 . S
C937 N940 1.384 1_455 S
C938 H929 0.929 . S
C938 C930 1.378 . S
C938 C933 1.350 . S
C939 H926 0.929 . S
C939 C931 1.433 . S
C939 N941 1.384 . S
N940 C936 1.427 1_655 S
N940 C937 1.384 1_655 S
N941 C933 1.427 . S
N941 C939 1.384 . S
H942 C948 0.930 . S
H943 C952 0.930 . S
H944 C957 0.929 . S
H945 C955 0.929 . S
H946 C950 0.929 . S
H947 C956 0.929 . S
C948 H942 0.930 . S
C948 C949 1.367 . S
C948 C956 1.378 . S
C949 C948 1.367 . S
C949 C957 1.433 . S
C950 H946 0.929 . S
C950 C952 1.378 . S
C950 C954 1.350 . S
C951 C954 1.463 . S
C951 C956 1.350 . S
C951 N959 1.427 . S
C952 H943 0.930 . S
C952 C950 1.378 . S
C952 C953 1.367 . S
C953 C952 1.367 . S
C953 C955 1.433 . S
C954 C950 1.350 . S
C954 C951 1.463 . S
C954 N958 1.427 . S
C955 H945 0.929 . S
C955 C953 1.433 . S
C955 N958 1.384 . S
C956 H947 0.929 . S
C956 C948 1.378 . S
C956 C951 1.350 . S
C957 H944 0.929 . S
C957 C949 1.433 . S
C957 N959 1.384 . S
N958 C954 1.427 . S
N958 C955 1.384 . S
N959 C951 1.427 . S
N959 C957 1.384 . S
H960 C966 0.930 . S
H961 C970 0.930 . S
H962 C975 0.929 . S
H963 C973 0.929 . S
H964 C968 0.929 . S
H965 C974 0.929 . S
C966 H960 0.930 . S
C966 C967 1.367 . S
C966 C974 1.378 . S
C967 C966 1.367 . S
C967 C975 1.433 . S
C968 H964 0.929 . S
C968 C970 1.378 . S
C968 C972 1.350 . S
C969 C972 1.463 1_545 S
C969 C974 1.350 . S
C969 N977 1.427 . S
C970 H961 0.930 . S
C970 C968 1.378 . S
C970 C971 1.367 . S
C971 C970 1.367 . S
C971 C973 1.433 . S
C972 C968 1.350 . S
C972 C969 1.463 1_565 S
C972 N976 1.427 . S
C973 H963 0.929 . S
C973 C971 1.433 . S
C973 N976 1.384 . S
C974 H965 0.929 . S
C974 C966 1.378 . S
C974 C969 1.350 . S
C975 H962 0.929 . S
C975 C967 1.433 . S
C975 N977 1.384 . S
N976 C972 1.427 . S
N976 C973 1.384 . S
N977 C969 1.427 . S
N977 C975 1.384 . S
H978 C984 0.930 . S
H979 C988 0.930 . S
H980 C993 0.929 . S
H981 C991 0.929 . S
H982 C986 0.929 . S
H983 C992 0.929 . S
C984 H978 0.930 . S
C984 C985 1.367 . S
C984 C992 1.378 . S
C985 C984 1.367 . S
C985 C993 1.433 . S
C986 H982 0.929 . S
C986 C988 1.378 . S
C986 C990 1.350 . S
C987 C990 1.463 . S
C987 C992 1.350 . S
C987 N995 1.427 . S
C988 H979 0.930 . S
C988 C986 1.378 . S
C988 C989 1.367 . S
C989 C988 1.367 . S
C989 C991 1.433 . S
C990 C986 1.350 . S
C990 C987 1.463 . S
C990 N994 1.427 . S
C991 H981 0.929 . S
C991 C989 1.433 . S
C991 N994 1.384 . S
C992 H983 0.929 . S
C992 C984 1.378 . S
C992 C987 1.350 . S
C993 H980 0.929 . S
C993 C985 1.433 . S
C993 N995 1.384 . S
N994 C990 1.427 . S
N994 C991 1.384 . S
N995 C987 1.427 . S
N995 C993 1.384 . S
H996 C1002 0.930 . S
H997 C1006 0.930 . S
H998 C1011 0.929 . S
H999 C1009 0.929 . S
H1000 C1004 0.929 1_545 S
H1001 C1010 0.929 1_565 S
C1002 H996 0.930 . S
C1002 C1003 1.367 . S
C1002 C1010 1.378 . S
C1003 C1002 1.367 . S
C1003 C1011 1.433 . S
C1004 H1000 0.929 1_565 S
C1004 C1006 1.378 . S
C1004 C1008 1.350 . S
C1005 C1008 1.463 1_545 S
C1005 C1010 1.350 . S
C1005 N1013 1.427 . S
C1006 H997 0.930 . S
C1006 C1004 1.378 . S
C1006 C1007 1.367 . S
C1007 C1006 1.367 . S
C1007 C1009 1.433 . S
C1008 C1004 1.350 . S
C1008 C1005 1.463 1_565 S
C1008 N1012 1.427 . S
C1009 H999 0.929 . S
C1009 C1007 1.433 . S
C1009 N1012 1.384 . S
C1010 H1001 0.929 1_545 S
C1010 C1002 1.378 . S
C1010 C1005 1.350 . S
C1011 H998 0.929 . S
C1011 C1003 1.433 . S
C1011 N1013 1.384 . S
N1012 C1008 1.427 . S
N1012 C1009 1.384 . S
N1013 C1005 1.427 . S
N1013 C1011 1.384 . S
H1014 C1020 0.930 . S
H1015 C1024 0.930 . S
H1016 C1029 0.929 . S
H1017 C1027 0.929 . S
H1018 C1022 0.929 . S
H1019 C1028 0.929 . S
C1020 H1014 0.930 . S
C1020 C1021 1.367 . S
C1020 C1028 1.378 . S
C1021 C1020 1.367 . S
C1021 C1029 1.433 . S
C1022 H1018 0.929 . S
C1022 C1024 1.378 . S
C1022 C1026 1.350 . S
C1023 C1026 1.463 1_554 S
C1023 C1028 1.350 . S
C1023 N1031 1.427 . S
C1024 H1015 0.930 . S
C1024 C1022 1.378 . S
C1024 C1025 1.367 . S
C1025 C1024 1.367 . S
C1025 C1027 1.433 . S
C1026 C1022 1.350 . S
C1026 C1023 1.463 1_556 S
C1026 N1030 1.427 . S
C1027 H1017 0.929 . S
C1027 C1025 1.433 . S
C1027 N1030 1.384 . S
C1028 H1019 0.929 . S
C1028 C1020 1.378 . S
C1028 C1023 1.350 . S
C1029 H1016 0.929 . S
C1029 C1021 1.433 . S
C1029 N1031 1.384 . S
N1030 C1026 1.427 . S
N1030 C1027 1.384 . S
N1031 C1023 1.427 . S
N1031 C1029 1.384 . S
H1032 C1038 0.930 . S
H1033 C1042 0.930 . S
H1034 C1047 0.929 . S
H1035 C1045 0.929 . S
H1036 C1040 0.929 . S
H1037 C1046 0.929 . S
C1038 H1032 0.930 . S
C1038 C1039 1.367 . S
C1038 C1046 1.378 . S
C1039 C1038 1.367 . S
C1039 C1047 1.433 . S
C1040 H1036 0.929 . S
C1040 C1042 1.378 . S
C1040 C1044 1.350 . S
C1041 C1044 1.463 1_455 S
C1041 C1046 1.350 . S
C1041 N1049 1.427 . S
C1042 H1033 0.930 . S
C1042 C1040 1.378 . S
C1042 C1043 1.367 . S
C1043 C1042 1.367 . S
C1043 C1045 1.433 . S
C1044 C1040 1.350 . S
C1044 C1041 1.463 1_655 S
C1044 N1048 1.427 . S
C1045 H1035 0.929 . S
C1045 C1043 1.433 . S
C1045 N1048 1.384 . S
C1046 H1037 0.929 . S
C1046 C1038 1.378 . S
C1046 C1041 1.350 . S
C1047 H1034 0.929 . S
C1047 C1039 1.433 . S
C1047 N1049 1.384 . S
N1048 C1044 1.427 . S
N1048 C1045 1.384 . S
N1049 C1041 1.427 . S
N1049 C1047 1.384 . S
H1050 C1056 0.930 . S
H1051 C1060 0.930 . S
H1052 C1065 0.929 . S
H1053 C1063 0.929 . S
H1054 C1058 0.929 . S
H1055 C1064 0.929 . S
C1056 H1050 0.930 . S
C1056 C1057 1.367 . S
C1056 C1064 1.378 . S
C1057 C1056 1.367 . S
C1057 C1065 1.433 . S
C1058 H1054 0.929 . S
C1058 C1060 1.378 . S
C1058 C1062 1.350 . S
C1059 C1062 1.463 . S
C1059 C1064 1.350 . S
C1059 N1067 1.427 . S
C1060 H1051 0.930 . S
C1060 C1058 1.378 . S
C1060 C1061 1.367 . S
C1061 C1060 1.367 . S
C1061 C1063 1.433 . S
C1062 C1058 1.350 . S
C1062 C1059 1.463 . S
C1062 N1066 1.427 . S
C1063 H1053 0.929 . S
C1063 C1061 1.433 . S
C1063 N1066 1.384 . S
C1064 H1055 0.929 . S
C1064 C1056 1.378 . S
C1064 C1059 1.350 . S
C1065 H1052 0.929 . S
C1065 C1057 1.433 . S
C1065 N1067 1.384 . S
N1066 C1062 1.427 . S
N1066 C1063 1.384 . S
N1067 C1059 1.427 . S
N1067 C1065 1.384 . S
H1068 C1074 0.930 . S
H1069 C1078 0.930 . S
H1070 C1083 0.929 . S
H1071 C1081 0.929 . S
H1072 C1076 0.929 . S
H1073 C1082 0.929 . S
C1074 H1068 0.930 . S
C1074 C1075 1.367 . S
C1074 C1082 1.378 . S
C1075 C1074 1.367 . S
C1075 C1083 1.433 . S
C1076 H1072 0.929 . S
C1076 C1078 1.378 . S
C1076 C1080 1.350 . S
C1077 C1080 1.463 1_655 S
C1077 C1082 1.350 . S
C1077 N1085 1.427 . S
C1078 H1069 0.930 . S
C1078 C1076 1.378 . S
C1078 C1079 1.367 . S
C1079 C1078 1.367 . S
C1079 C1081 1.433 . S
C1080 C1076 1.350 . S
C1080 C1077 1.463 1_455 S
C1080 N1084 1.427 . S
C1081 H1071 0.929 . S
C1081 C1079 1.433 . S
C1081 N1084 1.384 . S
C1082 H1073 0.929 . S
C1082 C1074 1.378 . S
C1082 C1077 1.350 . S
C1083 H1070 0.929 . S
C1083 C1075 1.433 . S
C1083 N1085 1.384 . S
N1084 C1080 1.427 . S
N1084 C1081 1.384 . S
N1085 C1077 1.427 . S
N1085 C1083 1.384 . S
H1086 C1092 0.930 . S
H1087 C1096 0.930 . S
H1088 C1101 0.929 . S
H1089 C1099 0.929 . S
H1090 C1094 0.929 . S
H1091 C1100 0.929 . S
C1092 H1086 0.930 . S
C1092 C1093 1.367 . S
C1092 C1100 1.378 . S
C1093 C1092 1.367 . S
C1093 C1101 1.433 . S
C1094 H1090 0.929 . S
C1094 C1096 1.378 . S
C1094 C1098 1.350 . S
C1095 C1098 1.463 . S
C1095 C1100 1.350 . S
C1095 N1103 1.427 . S
C1096 H1087 0.930 . S
C1096 C1094 1.378 . S
C1096 C1097 1.367 . S
C1097 C1096 1.367 . S
C1097 C1099 1.433 . S
C1098 C1094 1.350 . S
C1098 C1095 1.463 . S
C1098 N1102 1.427 . S
C1099 H1089 0.929 . S
C1099 C1097 1.433 . S
C1099 N1102 1.384 . S
C1100 H1091 0.929 . S
C1100 C1092 1.378 . S
C1100 C1095 1.350 . S
C1101 H1088 0.929 . S
C1101 C1093 1.433 . S
C1101 N1103 1.384 . S
N1102 C1098 1.427 . S
N1102 C1099 1.384 . S
N1103 C1095 1.427 . S
N1103 C1101 1.384 . S
H1104 C1110 0.930 . S
H1105 C1114 0.930 . S
H1106 C1119 0.929 . S
H1107 C1117 0.929 . S
H1108 C1112 0.929 . S
H1109 C1118 0.929 . S
C1110 H1104 0.930 . S
C1110 C1111 1.367 . S
C1110 C1118 1.378 . S
C1111 C1110 1.367 . S
C1111 C1119 1.433 . S
C1112 H1108 0.929 . S
C1112 C1114 1.378 . S
C1112 C1116 1.350 . S
C1113 C1116 1.463 . S
C1113 C1118 1.350 . S
C1113 N1121 1.427 . S
C1114 H1105 0.930 . S
C1114 C1112 1.378 . S
C1114 C1115 1.367 . S
C1115 C1114 1.367 . S
C1115 C1117 1.433 . S
C1116 C1112 1.350 . S
C1116 C1113 1.463 . S
C1116 N1120 1.427 . S
C1117 H1107 0.929 . S
C1117 C1115 1.433 . S
C1117 N1120 1.384 . S
C1118 H1109 0.929 . S
C1118 C1110 1.378 . S
C1118 C1113 1.350 . S
C1119 H1106 0.929 . S
C1119 C1111 1.433 . S
C1119 N1121 1.384 . S
N1120 C1116 1.427 . S
N1120 C1117 1.384 . S
N1121 C1113 1.427 . S
N1121 C1119 1.384 . S
H1122 C1128 0.930 . S
H1123 C1132 0.930 . S
H1124 C1137 0.929 . S
H1125 C1135 0.929 . S
H1126 C1130 0.929 . S
H1127 C1136 0.929 . S
C1128 H1122 0.930 . S
C1128 C1129 1.367 . S
C1128 C1136 1.378 . S
C1129 C1128 1.367 . S
C1129 C1137 1.433 . S
C1130 H1126 0.929 . S
C1130 C1132 1.378 . S
C1130 C1134 1.350 . S
C1131 C1134 1.463 1_556 S
C1131 C1136 1.350 . S
C1131 N1139 1.427 . S
C1132 H1123 0.930 . S
C1132 C1130 1.378 . S
C1132 C1133 1.367 . S
C1133 C1132 1.367 . S
C1133 C1135 1.433 . S
C1134 C1130 1.350 . S
C1134 C1131 1.463 1_554 S
C1134 N1138 1.427 . S
C1135 H1125 0.929 . S
C1135 C1133 1.433 . S
C1135 N1138 1.384 . S
C1136 H1127 0.929 . S
C1136 C1128 1.378 . S
C1136 C1131 1.350 . S
C1137 H1124 0.929 . S
C1137 C1129 1.433 . S
C1137 N1139 1.384 . S
N1138 C1134 1.427 . S
N1138 C1135 1.384 . S
N1139 C1131 1.427 . S
N1139 C1137 1.384 . S
H1140 C1146 0.930 . S
H1141 C1150 0.930 . S
H1142 C1155 0.929 . S
H1143 C1153 0.929 . S
H1144 C1148 0.929 . S
H1145 C1154 0.929 . S
C1146 H1140 0.930 . S
C1146 C1147 1.367 . S
C1146 C1154 1.378 . S
C1147 C1146 1.367 . S
C1147 C1155 1.433 . S
C1148 H1144 0.929 . S
C1148 C1150 1.378 . S
C1148 C1152 1.350 . S
C1149 C1152 1.463 . S
C1149 C1154 1.350 . S
C1149 N1157 1.427 . S
C1150 H1141 0.930 . S
C1150 C1148 1.378 . S
C1150 C1151 1.367 . S
C1151 C1150 1.367 . S
C1151 C1153 1.433 . S
C1152 C1148 1.350 . S
C1152 C1149 1.463 . S
C1152 N1156 1.427 . S
C1153 H1143 0.929 . S
C1153 C1151 1.433 . S
C1153 N1156 1.384 . S
C1154 H1145 0.929 . S
C1154 C1146 1.378 . S
C1154 C1149 1.350 . S
C1155 H1142 0.929 . S
C1155 C1147 1.433 . S
C1155 N1157 1.384 . S
N1156 C1152 1.427 . S
N1156 C1153 1.384 . S
N1157 C1149 1.427 . S
N1157 C1155 1.384 . S
H1158 C1164 0.930 . S
H1159 C1168 0.930 . S
H1160 C1173 0.929 . S
H1161 C1171 0.929 . S
H1162 C1166 0.929 . S
H1163 C1172 0.929 . S
C1164 H1158 0.930 . S
C1164 C1165 1.367 . S
C1164 C1172 1.378 . S
C1165 C1164 1.367 . S
C1165 C1173 1.433 . S
C1166 H1162 0.929 . S
C1166 C1168 1.378 . S
C1166 C1170 1.350 . S
C1167 C1170 1.463 . S
C1167 C1172 1.350 . S
C1167 N1175 1.427 . S
C1168 H1159 0.930 . S
C1168 C1166 1.378 . S
C1168 C1169 1.367 . S
C1169 C1168 1.367 . S
C1169 C1171 1.433 . S
C1170 C1166 1.350 . S
C1170 C1167 1.463 . S
C1170 N1174 1.427 . S
C1171 H1161 0.929 . S
C1171 C1169 1.433 . S
C1171 N1174 1.384 . S
C1172 H1163 0.929 . S
C1172 C1164 1.378 . S
C1172 C1167 1.350 . S
C1173 H1160 0.929 . S
C1173 C1165 1.433 . S
C1173 N1175 1.384 . S
N1174 C1170 1.427 . S
N1174 C1171 1.384 . S
N1175 C1167 1.427 . S
N1175 C1173 1.384 . S
H1176 C1182 0.930 . S
H1177 C1186 0.930 . S
H1178 C1191 0.929 . S
H1179 C1189 0.929 . S
H1180 C1184 0.929 . S
H1181 C1190 0.929 . S
C1182 H1176 0.930 . S
C1182 C1183 1.367 . S
C1182 C1190 1.378 . S
C1183 C1182 1.367 . S
C1183 C1191 1.433 . S
C1184 H1180 0.929 . S
C1184 C1186 1.378 . S
C1184 C1188 1.350 . S
C1185 C1188 1.463 . S
C1185 C1190 1.350 . S
C1185 N1193 1.427 . S
C1186 H1177 0.930 . S
C1186 C1184 1.378 . S
C1186 C1187 1.367 . S
C1187 C1186 1.367 . S
C1187 C1189 1.433 . S
C1188 C1184 1.350 . S
C1188 C1185 1.463 . S
C1188 N1192 1.427 . S
C1189 H1179 0.929 . S
C1189 C1187 1.433 . S
C1189 N1192 1.384 . S
C1190 H1181 0.929 . S
C1190 C1182 1.378 . S
C1190 C1185 1.350 . S
C1191 H1178 0.929 . S
C1191 C1183 1.433 . S
C1191 N1193 1.384 . S
N1192 C1188 1.427 . S
N1192 C1189 1.384 . S
N1193 C1185 1.427 . S
N1193 C1191 1.384 . S
H1194 C1200 0.930 . S
H1195 C1204 0.930 . S
H1196 C1209 0.929 . S
H1197 C1207 0.929 . S
H1198 C1202 0.929 . S
H1199 C1208 0.929 1_554 S
C1200 H1194 0.930 . S
C1200 C1201 1.367 . S
C1200 C1208 1.378 . S
C1201 C1200 1.367 . S
C1201 C1209 1.433 . S
C1202 H1198 0.929 . S
C1202 C1204 1.378 . S
C1202 C1206 1.350 . S
C1203 C1206 1.463 1_556 S
C1203 C1208 1.350 . S
C1203 N1211 1.427 . S
C1204 H1195 0.930 . S
C1204 C1202 1.378 . S
C1204 C1205 1.367 . S
C1205 C1204 1.367 . S
C1205 C1207 1.433 . S
C1206 C1202 1.350 . S
C1206 C1203 1.463 1_554 S
C1206 N1210 1.427 . S
C1207 H1197 0.929 . S
C1207 C1205 1.433 . S
C1207 N1210 1.384 . S
C1208 H1199 0.929 1_556 S
C1208 C1200 1.378 . S
C1208 C1203 1.350 . S
C1209 H1196 0.929 . S
C1209 C1201 1.433 . S
C1209 N1211 1.384 . S
N1210 C1206 1.427 . S
N1210 C1207 1.384 . S
N1211 C1203 1.427 . S
N1211 C1209 1.384 . S
H1212 C1218 0.930 . S
H1213 C1222 0.930 . S
H1214 C1227 0.929 . S
H1215 C1225 0.929 . S
H1216 C1220 0.929 . S
H1217 C1226 0.929 . S
C1218 H1212 0.930 . S
C1218 C1219 1.367 . S
C1218 C1226 1.378 . S
C1219 C1218 1.367 . S
C1219 C1227 1.433 . S
C1220 H1216 0.929 . S
C1220 C1222 1.378 . S
C1220 C1224 1.350 . S
C1221 C1224 1.463 . S
C1221 C1226 1.350 . S
C1221 N1229 1.427 . S
C1222 H1213 0.930 . S
C1222 C1220 1.378 . S
C1222 C1223 1.367 . S
C1223 C1222 1.367 . S
C1223 C1225 1.433 . S
C1224 C1220 1.350 . S
C1224 C1221 1.463 . S
C1224 N1228 1.427 . S
C1225 H1215 0.929 . S
C1225 C1223 1.433 . S
C1225 N1228 1.384 . S
C1226 H1217 0.929 . S
C1226 C1218 1.378 . S
C1226 C1221 1.350 . S
C1227 H1214 0.929 . S
C1227 C1219 1.433 . S
C1227 N1229 1.384 . S
N1228 C1224 1.427 . S
N1228 C1225 1.384 . S
N1229 C1221 1.427 . S
N1229 C1227 1.384 . S
H1230 C1236 0.930 . S
H1231 C1240 0.930 . S
H1232 C1245 0.929 . S
H1233 C1243 0.929 . S
H1234 C1238 0.929 . S
H1235 C1244 0.929 . S
C1236 H1230 0.930 . S
C1236 C1237 1.367 . S
C1236 C1244 1.378 . S
C1237 C1236 1.367 . S
C1237 C1245 1.433 . S
C1238 H1234 0.929 . S
C1238 C1240 1.378 . S
C1238 C1242 1.350 . S
C1239 C1242 1.463 . S
C1239 C1244 1.350 . S
C1239 N1247 1.427 . S
C1240 H1231 0.930 . S
C1240 C1238 1.378 . S
C1240 C1241 1.367 . S
C1241 C1240 1.367 . S
C1241 C1243 1.433 . S
C1242 C1238 1.350 . S
C1242 C1239 1.463 . S
C1242 N1246 1.427 . S
C1243 H1233 0.929 . S
C1243 C1241 1.433 . S
C1243 N1246 1.384 . S
C1244 H1235 0.929 . S
C1244 C1236 1.378 . S
C1244 C1239 1.350 . S
C1245 H1232 0.929 . S
C1245 C1237 1.433 . S
C1245 N1247 1.384 . S
N1246 C1242 1.427 . S
N1246 C1243 1.384 . S
N1247 C1239 1.427 . S
N1247 C1245 1.384 . S
C535 N13 1.566 . S
C539 N497 1.567 . S
C553 N277 2.067 . S
C557 N46 2.074 . S
C571 N409 1.782 . S
C575 N68 1.801 . S
C589 N101 2.003 . S
C593 N343 1.964 . S
C607 N365 2.100 . S
C611 N35 2.111 . S
C625 N79 1.819 . S
C629 N299 1.829 . S
C643 N112 1.929 . S
C647 N431 1.955 . S
C661 N2 1.576 . S
C665 N244 1.562 . S
C679 N266 2.096 . S
C683 N134 2.101 . S
C697 N398 1.831 . S
C701 N178 1.830 . S
C715 N211 1.933 . S
C719 N332 1.952 . S
C733 N200 2.002 . S
C737 N442 1.965 . S
C751 N145 2.068 . S
C755 N376 2.070 . S
C769 N475 1.558 . S
C773 N233 1.572 . S
C787 N310 1.795 . S
C791 N167 1.804 . S
C805 N508 1.556 . S
C809 N464 1.572 . S
C823 C21 0.992 . S
C827 C51 0.992 . S
C841 C40 1.010 . S
C845 C87 1.014 . S
C859 C73 1.237 . S
C863 C106 1.238 . S
C877 C117 1.226 . S
C881 C7 1.220 . S
C895 C18 0.723 . S
C899 C183 0.724 . S
C913 C153 0.667 . S
C917 C120 0.667 . S
C931 C219 0.668 . S
C935 C54 0.670 . S
C949 C480 0.723 . S
C953 C84 0.723 . S
C967 C285 0.616 . S
C971 C238 0.613 . S
C985 C271 1.074 . S
C989 C304 1.079 . S
C1003 C315 1.325 . S
C1007 C348 1.326 . S
C1021 C351 0.808 . S
C1025 C249 0.807 . S
C1039 C417 0.806 . S
C1043 C252 0.805 . S
C1057 C381 1.111 . S
C1061 C337 1.110 . S
C1075 C282 1.109 . S
C1079 C436 1.109 . S
C1093 C516 0.803 . S
C1097 C318 0.803 . S
C1111 C150 0.992 . S
C1115 C483 0.992 . S
C1129 C139 1.010 . S
C1133 C186 1.014 . S
C1147 C172 1.235 . S
C1151 C205 1.236 . S
C1165 C469 1.226 . S
C1169 C216 1.230 . S
C1183 C384 0.616 . S
C1187 C502 0.614 . S
C1201 C403 1.077 . S
C1205 C370 1.078 . S
C1219 C414 1.324 . S
C1223 C447 1.325 . S
C1237 C513 0.808 . S
C1241 C450 0.808 . S
