# Generated by pormake.
# Topology wkq, (6)-cn, num edge types: 1
# Building blocks:
#     Node 0, Type 0, BuildingBlock: IZENUY_clean_sbu_0, # of connection points: 6
#     Node 1, Type 0, BuildingBlock: IZENUY_clean_sbu_0, # of connection points: 6
#     Node 2, Type 0, BuildingBlock: IZENUY_clean_sbu_0, # of connection points: 6
#     Node 3, Type 0, BuildingBlock: IZENUY_clean_sbu_0, # of connection points: 6
#     Node 4, Type 0, BuildingBlock: IZENUY_clean_sbu_0, # of connection points: 6
#     Node 5, Type 0, BuildingBlock: IZENUY_clean_sbu_0, # of connection points: 6
#     Node 6, Type 0, BuildingBlock: IZENUY_clean_sbu_0, # of connection points: 6
#     Node 7, Type 0, BuildingBlock: IZENUY_clean_sbu_0, # of connection points: 6
#     Node 8, Type 0, BuildingBlock: IZENUY_clean_sbu_0, # of connection points: 6
#     Node 9, Type 0, BuildingBlock: IZENUY_clean_sbu_0, # of connection points: 6
#     Node 10, Type 0, BuildingBlock: IZENUY_clean_sbu_0, # of connection points: 6
#     Node 11, Type 0, BuildingBlock: IZENUY_clean_sbu_0, # of connection points: 6
#     Edge 12, Type (0, 0), BuildingBlock: EZIPEK_clean_linker_0, # of connection points: 2
#     Edge 13, Type (0, 0), BuildingBlock: EZIPEK_clean_linker_0, # of connection points: 2
#     Edge 14, Type (0, 0), BuildingBlock: EZIPEK_clean_linker_0, # of connection points: 2
#     Edge 15, Type (0, 0), BuildingBlock: EZIPEK_clean_linker_0, # of connection points: 2
#     Edge 16, Type (0, 0), BuildingBlock: EZIPEK_clean_linker_0, # of connection points: 2
#     Edge 17, Type (0, 0), BuildingBlock: EZIPEK_clean_linker_0, # of connection points: 2
#     Edge 18, Type (0, 0), BuildingBlock: EZIPEK_clean_linker_0, # of connection points: 2
#     Edge 19, Type (0, 0), BuildingBlock: EZIPEK_clean_linker_0, # of connection points: 2
#     Edge 20, Type (0, 0), BuildingBlock: EZIPEK_clean_linker_0, # of connection points: 2
#     Edge 21, Type (0, 0), BuildingBlock: EZIPEK_clean_linker_0, # of connection points: 2
#     Edge 22, Type (0, 0), BuildingBlock: EZIPEK_clean_linker_0, # of connection points: 2
#     Edge 23, Type (0, 0), BuildingBlock: EZIPEK_clean_linker_0, # of connection points: 2
#     Edge 24, Type (0, 0), BuildingBlock: EZIPEK_clean_linker_0, # of connection points: 2
#     Edge 25, Type (0, 0), BuildingBlock: EZIPEK_clean_linker_0, # of connection points: 2
#     Edge 26, Type (0, 0), BuildingBlock: EZIPEK_clean_linker_0, # of connection points: 2
#     Edge 27, Type (0, 0), BuildingBlock: EZIPEK_clean_linker_0, # of connection points: 2
#     Edge 28, Type (0, 0), BuildingBlock: EZIPEK_clean_linker_0, # of connection points: 2
#     Edge 29, Type (0, 0), BuildingBlock: EZIPEK_clean_linker_0, # of connection points: 2
#     Edge 30, Type (0, 0), BuildingBlock: EZIPEK_clean_linker_0, # of connection points: 2
#     Edge 31, Type (0, 0), BuildingBlock: EZIPEK_clean_linker_0, # of connection points: 2
#     Edge 32, Type (0, 0), BuildingBlock: EZIPEK_clean_linker_0, # of connection points: 2
#     Edge 33, Type (0, 0), BuildingBlock: EZIPEK_clean_linker_0, # of connection points: 2
#     Edge 34, Type (0, 0), BuildingBlock: EZIPEK_clean_linker_0, # of connection points: 2
#     Edge 35, Type (0, 0), BuildingBlock: EZIPEK_clean_linker_0, # of connection points: 2
#     Edge 36, Type (0, 0), BuildingBlock: EZIPEK_clean_linker_0, # of connection points: 2
#     Edge 37, Type (0, 0), BuildingBlock: EZIPEK_clean_linker_0, # of connection points: 2
#     Edge 38, Type (0, 0), BuildingBlock: EZIPEK_clean_linker_0, # of connection points: 2
#     Edge 39, Type (0, 0), BuildingBlock: EZIPEK_clean_linker_0, # of connection points: 2
#     Edge 40, Type (0, 0), BuildingBlock: EZIPEK_clean_linker_0, # of connection points: 2
#     Edge 41, Type (0, 0), BuildingBlock: EZIPEK_clean_linker_0, # of connection points: 2
#     Edge 42, Type (0, 0), BuildingBlock: EZIPEK_clean_linker_0, # of connection points: 2
#     Edge 43, Type (0, 0), BuildingBlock: EZIPEK_clean_linker_0, # of connection points: 2
#     Edge 44, Type (0, 0), BuildingBlock: EZIPEK_clean_linker_0, # of connection points: 2
#     Edge 45, Type (0, 0), BuildingBlock: EZIPEK_clean_linker_0, # of connection points: 2
#     Edge 46, Type (0, 0), BuildingBlock: EZIPEK_clean_linker_0, # of connection points: 2
#     Edge 47, Type (0, 0), BuildingBlock: EZIPEK_clean_linker_0, # of connection points: 2
# Relax obj value: 0.404
# Max RMSD: 0.286
# Mean RMSD: 0.286
data_MOF--net-wkq--node1-IZENUY_clean_sbu_0--edge1-EZIPEK_clean_linker_0
_symmetry_space_group_name_H-M    P1
_symmetry_Int_Tables_number       1
_symmetry_cell_setting            triclinic
loop_
_symmetry_equiv_pos_as_xyz
'x, y, z'
_cell_length_a     27.265516
_cell_length_b     27.384687
_cell_length_c     26.297396
_cell_angle_alpha  89.876516
_cell_angle_beta   90.263335
_cell_angle_gamma 119.81194
loop_
_atom_site_label
_atom_site_type_symbol
_atom_site_fract_x
_atom_site_fract_y
_atom_site_fract_z
_atom_type_partial_charge
Fe0 Fe 0.2503 0.37396 0.04073 0.0
Fe1 Fe 0.32053 0.50212 0.05293 0.0
O2 O 0.27075 0.44257 0.01784 0.0
Fe3 Fe 0.2399 0.45084 0.96121 0.0
O4 O 0.16873 0.40871 -0.01313 0.0
O5 O 0.17781 0.33897 0.01472 0.0
O6 O 0.2224 0.38591 0.0992 0.0
C7 C 0.2539 0.42554 0.12888 0.0
C8 C 0.26875 0.36593 0.9392 0.0
O9 O 0.29817 0.46811 0.11361 0.0
C10 C 0.34923 0.5374 0.95072 0.0
O11 O 0.31793 0.39474 0.07156 0.0
O12 O 0.37493 0.48237 0.0493 0.0
O13 O 0.24023 0.39026 0.92862 0.0
O14 O 0.27855 0.35901 0.98472 0.0
C15 C 0.24248 0.53418 0.02861 0.0
O16 O 0.35203 0.54747 -0.00224 0.0
O17 O 0.30797 0.4944 0.93163 0.0
C18 C 0.36712 0.43696 0.06873 0.0
O19 O 0.27033 0.52561 0.06195 0.0
O20 O 0.23668 0.51366 0.9841 0.0
C21 C 0.14629 0.35925 0.0039 0.0
Fe22 Fe 0.82041 0.22215 0.12896 0.0
Fe23 Fe 0.89904 0.22376 0.2134 0.0
O24 O 0.85301 0.24659 0.18894 0.0
Fe25 Fe 0.83865 0.29176 0.22579 0.0
O26 O 0.76453 0.24196 0.22719 0.0
O27 O 0.75262 0.21913 0.14644 0.0
O28 O 0.78813 0.14872 0.15019 0.0
C29 C 0.81476 0.12504 0.16646 0.0
C30 C 0.84448 0.33239 0.12465 0.0
O31 O 0.8658 0.15582 0.17977 0.0
C32 C 0.94806 0.33578 0.25058 0.0
O33 O 0.88415 0.22364 0.10112 0.0
O34 O 0.94846 0.25913 0.16219 0.0
O35 O 0.83167 0.33026 0.17123 0.0
O36 O 0.84927 0.29326 0.10427 0.0
C37 C 0.83572 0.21248 0.29663 0.0
O38 O 0.94119 0.28664 0.25239 0.0
O39 O 0.9123 0.34528 0.22936 0.0
C40 C 0.93583 0.25158 0.11554 0.0
O41 O 0.85182 0.18795 0.26606 0.0
O42 O 0.84262 0.26054 0.28563 0.0
C43 C 0.73265 0.2211 0.18959 0.0
Fe44 Fe 0.7112 0.8957 0.37564 0.0
Fe45 Fe 0.58677 0.83539 0.40738 0.0
O46 O 0.63929 0.84475 0.3631 0.0
Fe47 Fe 0.62019 0.80463 0.30618 0.0
O48 O 0.66565 0.77595 0.32165 0.0
O49 O 0.74008 0.85586 0.34265 0.0
O50 O 0.71344 0.86031 0.43271 0.0
C51 C 0.68003 0.85062 0.46888 0.0
C52 C 0.70285 0.9165 0.27494 0.0
O53 O 0.6335 0.84958 0.46265 0.0
C54 C 0.53481 0.82965 0.31364 0.0
O55 O 0.69468 0.94329 0.41288 0.0
O56 O 0.60409 0.90768 0.40095 0.0
O57 O 0.67557 0.86335 0.2668 0.0
O58 O 0.71419 0.93537 0.31963 0.0
C59 C 0.54854 0.72503 0.38322 0.0
O60 O 0.53117 0.81895 0.36055 0.0
O61 O 0.57324 0.83023 0.28696 0.0
C62 C 0.65018 0.94694 0.41661 0.0
O63 O 0.56484 0.76272 0.4166 0.0
O64 O 0.5611 0.73938 0.33657 0.0
C65 C 0.71633 0.80287 0.33653 0.0
Fe66 Fe 0.8585 0.69911 0.5358 0.0
Fe67 Fe 0.77411 0.57407 0.55662 0.0
O68 O 0.8274 0.62646 0.5174 0.0
Fe69 Fe 0.8513 0.60862 0.46074 0.0
O70 O 0.92557 0.6486 0.48192 0.0
O71 O 0.92623 0.72486 0.50378 0.0
O72 O 0.88772 0.6878 0.59368 0.0
C73 C 0.85709 0.65159 0.62654 0.0
C74 C 0.83207 0.7004 0.43553 0.0
O75 O 0.80932 0.60986 0.61518 0.0
C76 C 0.73461 0.52821 0.45667 0.0
O77 O 0.79912 0.69117 0.57198 0.0
O78 O 0.73042 0.60753 0.55647 0.0
O79 O 0.85159 0.66773 0.42419 0.0
O80 O 0.82888 0.71324 0.4809 0.0
C81 C 0.83991 0.52419 0.53132 0.0
O82 O 0.73023 0.52993 0.50434 0.0
O83 O 0.78012 0.56273 0.43446 0.0
C84 C 0.74751 0.65579 0.57476 0.0
O85 O 0.81128 0.53447 0.56267 0.0
O86 O 0.85275 0.5475 0.48804 0.0
C87 C 0.95258 0.69895 0.49643 0.0
Fe88 Fe 0.19418 0.8304 0.7087 0.0
Fe89 Fe 0.24 0.74869 0.71692 0.0
O90 O 0.23642 0.80371 0.68476 0.0
Fe91 Fe 0.27308 0.82994 0.62656 0.0
O92 O 0.2832 0.9019 0.63392 0.0
O93 O 0.25352 0.90106 0.71158 0.0
O94 O 0.20908 0.82304 0.77619 0.0
C95 C 0.24361 0.81145 0.79803 0.0
C96 C 0.16759 0.81561 0.60433 0.0
O97 O 0.26775 0.78951 0.77424 0.0
C98 C 0.23634 0.71342 0.62066 0.0
O99 O 0.13158 0.76157 0.7074 0.0
O100 O 0.16827 0.71538 0.74288 0.0
O101 O 0.20595 0.80452 0.59223 0.0
O102 O 0.17245 0.842 0.64528 0.0
C103 C 0.35232 0.82347 0.68629 0.0
O104 O 0.21085 0.70321 0.6623 0.0
O105 O 0.27088 0.76376 0.60812 0.0
C106 C 0.12616 0.72161 0.73446 0.0
O107 O 0.31404 0.77413 0.69839 0.0
O108 O 0.34086 0.85488 0.65915 0.0
C109 C 0.28277 0.92774 0.67381 0.0
Fe110 Fe 0.36975 0.15562 0.86642 0.0
Fe111 Fe 0.49283 0.20257 0.89702 0.0
O112 O 0.44252 0.2016 0.8544 0.0
Fe113 Fe 0.46248 0.24727 0.80136 0.0
O114 O 0.41908 0.27722 0.82496 0.0
O115 O 0.34427 0.19678 0.83183 0.0
O116 O 0.37351 0.19315 0.92508 0.0
C117 C 0.40706 0.19765 0.96065 0.0
C118 C 0.37938 0.1379 0.76665 0.0
O119 O 0.44845 0.18978 0.95273 0.0
C120 C 0.54664 0.21916 0.80025 0.0
O121 O 0.38039 0.10507 0.90206 0.0
O122 O 0.46755 0.12804 0.88832 0.0
O123 O 0.40581 0.19153 0.7602 0.0
O124 O 0.36475 0.1166 0.81026 0.0
C125 C 0.54047 0.31539 0.87895 0.0
O126 O 0.54652 0.21706 0.84838 0.0
O127 O 0.50886 0.22345 0.77585 0.0
C128 C 0.41887 0.0922 0.90299 0.0
O129 O 0.52044 0.27573 0.91021 0.0
O130 O 0.52368 0.30722 0.83302 0.0
C131 C 0.36677 0.24912 0.8343 0.0
Fe132 Fe 0.62118 0.83207 0.84277 0.0
Fe133 Fe 0.71155 0.82742 0.77653 0.0
O134 O 0.6394 0.80457 0.78947 0.0
Fe135 Fe 0.5854 0.75341 0.74993 0.0
O136 O 0.53827 0.78241 0.75718 0.0
O137 O 0.58627 0.86008 0.8019 0.0
O138 O 0.68554 0.90273 0.84023 0.0
C139 C 0.71878 0.92765 0.80343 0.0
C140 C 0.53484 0.71672 0.84159 0.0
O141 O 0.72847 0.9 0.77079 0.0
C142 C 0.66822 0.71826 0.74957 0.0
O143 O 0.65397 0.80375 0.88587 0.0
O144 O 0.73317 0.83621 0.8435 0.0
O145 O 0.55319 0.70509 0.80228 0.0
O146 O 0.55325 0.7673 0.85515 0.0
C147 C 0.66317 0.8182 0.67892 0.0
O148 O 0.69963 0.75609 0.78051 0.0
O149 O 0.62353 0.71638 0.73383 0.0
C150 C 0.70317 0.81047 0.88147 0.0
O151 O 0.7027 0.82297 0.70741 0.0
O152 O 0.6132 0.79744 0.69449 0.0
C153 C 0.54762 0.83069 0.77017 0.0
Fe154 Fe 0.89978 0.68899 0.92825 0.0
Fe155 Fe 0.85553 0.56321 0.9123 0.0
O156 O 0.85812 0.61803 0.95033 0.0
Fe157 Fe 0.82009 0.60397 0.00863 0.0
O158 O 0.78789 0.64614 -0.00976 0.0
O159 O 0.86199 0.71917 0.96052 0.0
O160 O 0.85423 0.67463 0.8729 0.0
C161 C 0.84623 0.63684 0.84088 0.0
C162 C 0.93348 0.69384 0.0277 0.0
O163 O 0.85656 0.598 0.853 0.0
C164 C 0.85008 0.51957 0.01191 0.0
O165 O 0.94834 0.67683 0.89063 0.0
O166 O 0.93187 0.59358 0.91272 0.0
O167 O 0.88212 0.66246 0.04193 0.0
O168 O 0.94682 0.70507 0.98144 0.0
C169 C 0.7425 0.51855 0.94064 0.0
O170 O 0.85384 0.51923 0.96434 0.0
O171 O 0.84346 0.55673 0.03419 0.0
C172 C 0.96319 0.64011 0.892 0.0
O173 O 0.77934 0.52674 0.90781 0.0
O174 O 0.75523 0.54404 0.98309 0.0
C175 C 0.81103 0.69531 0.97287 0.0
Fe176 Fe 0.33692 0.84515 0.09993 0.0
Fe177 Fe 0.24411 0.80624 0.18097 0.0
O178 O 0.27773 0.84645 0.12613 0.0
Fe179 Fe 0.25417 0.88998 0.09887 0.0
O180 O 0.26957 0.87847 0.03311 0.0
O181 O 0.30065 0.81818 0.04012 0.0
O182 O 0.31193 0.77288 0.11826 0.0
C183 C 0.26276 0.73182 0.12412 0.0
C184 C 0.36409 0.95828 0.08131 0.0
O185 O 0.2263 0.74023 0.14664 0.0
C186 C 0.2558 0.91129 0.20307 0.0
O187 O 0.3769 0.87093 0.15866 0.0
O188 O 0.30834 0.81051 0.2079 0.0
O189 O 0.32344 0.95078 0.10841 0.0
O190 O 0.37193 0.91712 0.07418 0.0
C191 C 0.15232 0.79772 0.12118 0.0
O192 O 0.26338 0.87123 0.21749 0.0
O193 O 0.23392 0.90776 0.15978 0.0
C194 C 0.36048 0.84294 0.19953 0.0
O195 O 0.17243 0.79386 0.16381 0.0
O196 O 0.18376 0.83175 0.08786 0.0
C197 C 0.28006 0.84223 0.01399 0.0
Fe198 Fe 0.37218 0.22472 0.26795 0.0
Fe199 Fe 0.496 0.30608 0.24169 0.0
O200 O 0.44549 0.25488 0.28305 0.0
Fe201 Fe 0.46635 0.23178 0.33819 0.0
O202 O 0.42723 0.15809 0.31686 0.0
O203 O 0.34868 0.15689 0.30024 0.0
O204 O 0.38058 0.19345 0.21007 0.0
C205 C 0.41486 0.22223 0.17546 0.0
C206 C 0.3761 0.25052 0.36843 0.0
O207 O 0.45464 0.27187 0.18454 0.0
C208 C 0.54658 0.34583 0.34027 0.0
O209 O 0.37922 0.28536 0.232 0.0
O210 O 0.4653 0.35161 0.24653 0.0
O211 O 0.40707 0.22821 0.3768 0.0
O212 O 0.36166 0.25559 0.32402 0.0
C213 C 0.54645 0.24209 0.263 0.0
O214 O 0.54692 0.3482 0.29208 0.0
O215 O 0.50932 0.30281 0.3634 0.0
C216 C 0.41702 0.33626 0.22803 0.0
O217 O 0.52989 0.26525 0.23148 0.0
O218 O 0.52915 0.23383 0.30869 0.0
C219 C 0.37569 0.1308 0.30491 0.0
Fe220 Fe 0.18963 0.37276 0.41756 0.0
Fe221 Fe 0.24857 0.50163 0.41182 0.0
O222 O 0.23309 0.43943 0.4456 0.0
Fe223 Fe 0.26247 0.44541 0.50708 0.0
O224 O 0.27002 0.38188 0.50268 0.0
O225 O 0.24255 0.35218 0.42478 0.0
O226 O 0.21879 0.39663 0.35412 0.0
C227 C 0.264 0.43956 0.33951 0.0
C228 C 0.15041 0.35921 0.51923 0.0
O229 O 0.28418 0.48528 0.36336 0.0
C230 C 0.23187 0.53125 0.50466 0.0
O231 O 0.13243 0.38752 0.40588 0.0
O232 O 0.18372 0.47171 0.37413 0.0
O233 O 0.19134 0.40554 0.53509 0.0
O234 O 0.15429 0.33841 0.47742 0.0
C235 C 0.35222 0.52981 0.45449 0.0
O236 O 0.21347 0.52042 0.45966 0.0
O237 O 0.26076 0.51038 0.52296 0.0
C238 C 0.13685 0.4274 0.37873 0.0
O239 O 0.31783 0.54529 0.44082 0.0
O240 O 0.33503 0.48578 0.48134 0.0
C241 C 0.26948 0.35391 0.46412 0.0
Fe242 Fe 0.76049 0.20916 0.58709 0.0
Fe243 Fe 0.84316 0.24854 0.67732 0.0
O244 O 0.81316 0.20539 0.62266 0.0
Fe245 Fe 0.83734 0.15899 0.60196 0.0
O246 O 0.86386 0.19649 0.54257 0.0
O247 O 0.78516 0.19734 0.52654 0.0
O248 O 0.80654 0.28185 0.57436 0.0
C249 C 0.82924 0.32067 0.60616 0.0
C250 C 0.71975 0.09895 0.57519 0.0
O251 O 0.83981 0.31064 0.65111 0.0
C252 C 0.82211 0.13803 0.70357 0.0
O253 O 0.72724 0.2232 0.64181 0.0
O254 O 0.77563 0.22308 0.70871 0.0
O255 O 0.76999 0.10823 0.57114 0.0
O256 O 0.71064 0.13511 0.59563 0.0
C257 C 0.93753 0.25386 0.63279 0.0
O258 O 0.84802 0.19122 0.71236 0.0
O259 O 0.81133 0.1189 0.659 0.0
C260 C 0.73241 0.22155 0.68964 0.0
O261 O 0.9139 0.27991 0.64984 0.0
O262 O 0.90932 0.20094 0.62822 0.0
C263 C 0.83116 0.20161 0.51183 0.0
C264 C 0.19201 0.57576 0.07659 0.0
C265 C 0.23314 0.58219 0.04005 0.0
C266 C 0.2952 0.67602 0.07166 0.0
C267 C 0.25176 0.67561 0.10232 0.0
N268 N 0.15695 0.61901 0.13602 0.0
N269 N 0.31537 0.64587 -0.00748 0.0
C270 C 0.19898 0.62388 0.10488 0.0
C271 C 0.28065 0.63556 0.0331 0.0
N272 N 0.14793 0.52308 0.08595 0.0
N273 N 0.35114 0.70973 0.08319 0.0
H274 H 0.30541 0.61636 0.96364 0.0
H275 H 0.35007 0.68559 0.98549 0.0
H276 H 0.36494 0.73016 0.11808 0.0
H277 H 0.38322 0.70867 0.06259 0.0
H278 H 0.11971 0.5135 0.11587 0.0
H279 H 0.14146 0.48831 0.06451 0.0
H280 H 0.11563 0.58555 0.13393 0.0
H281 H 0.16312 0.64806 0.16424 0.0
C282 C 0.63775 0.27678 0.21756 0.0
C283 C 0.59323 0.23275 0.2455 0.0
C284 C 0.63521 0.17305 0.22775 0.0
C285 C 0.67599 0.21576 0.19581 0.0
N286 N 0.70357 0.30074 0.14866 0.0
N287 N 0.54416 0.13471 0.26975 0.0
C288 C 0.67257 0.2648 0.18657 0.0
C289 C 0.59022 0.17942 0.24853 0.0
N290 N 0.649 0.33104 0.22274 0.0
N291 N 0.64036 0.12712 0.23904 0.0
H292 H 0.51096 0.13798 0.28558 0.0
H293 H 0.53714 0.0937 0.26838 0.0
H294 H 0.67102 0.12028 0.2221 0.0
H295 H 0.61607 0.09754 0.26652 0.0
H296 H 0.68409 0.36523 0.20646 0.0
H297 H 0.62769 0.34261 0.24853 0.0
H298 H 0.6995 0.33517 0.13766 0.0
H299 H 0.72775 0.29155 0.1244 0.0
C300 C 0.43049 0.56759 0.39027 0.0
C301 C 0.41285 0.56755 0.44096 0.0
C302 C 0.50128 0.65493 0.45517 0.0
C303 C 0.50959 0.66467 0.40151 0.0
N304 N 0.48627 0.62124 0.31796 0.0
N305 N 0.43316 0.61192 0.52299 0.0
C306 C 0.47573 0.61816 0.36883 0.0
C307 C 0.44898 0.61123 0.47395 0.0
N308 N 0.40551 0.5183 0.36368 0.0
N309 N 0.54451 0.68523 0.48824 0.0
H310 H 0.39621 0.57918 0.5385 0.0
H311 H 0.45536 0.64643 0.54698 0.0
H312 H 0.58539 0.71188 0.47554 0.0
H313 H 0.54149 0.67748 0.52723 0.0
H314 H 0.41854 0.51361 0.32776 0.0
H315 H 0.37579 0.48059 0.38062 0.0
H316 H 0.45777 0.59237 0.29187 0.0
H317 H 0.5238 0.65182 0.30177 0.0
C318 C 0.88957 0.47858 0.5772 0.0
C319 C 0.84779 0.47497 0.5425 0.0
C320 C 0.79318 0.3742 0.5558 0.0
C321 C 0.83529 0.37584 0.5895 0.0
N322 N 0.92995 0.42975 0.62357 0.0
N323 N 0.77703 0.41634 0.48184 0.0
C324 C 0.88536 0.42826 0.59824 0.0
C325 C 0.80522 0.42184 0.5263 0.0
N326 N 0.93487 0.52993 0.58743 0.0
N327 N 0.74021 0.32816 0.55342 0.0
H328 H 0.78596 0.4506 0.45852 0.0
H329 H 0.74935 0.37718 0.46593 0.0
H330 H 0.72654 0.29359 0.57741 0.0
H331 H 0.70768 0.32756 0.5319 0.0
H332 H 0.96305 0.53791 0.61732 0.0
H333 H 0.94422 0.56405 0.56399 0.0
H334 H 0.96926 0.46589 0.62737 0.0
H335 H 0.92923 0.39391 0.63784 0.0
C336 C 0.46958 0.85455 0.77981 0.0
C337 C 0.50883 0.8492 0.74871 0.0
C338 C 0.45111 0.83933 0.67308 0.0
C339 C 0.4111 0.84299 0.70447 0.0
N340 N 0.39449 0.87712 0.7826 0.0
N341 N 0.54781 0.85849 0.66546 0.0
C342 C 0.42432 0.85797 0.75631 0.0
C343 C 0.503 0.84877 0.69505 0.0
N344 N 0.47323 0.85312 0.83153 0.0
N345 N 0.43897 0.82537 0.62299 0.0
H346 H 0.58766 0.87168 0.68119 0.0
H347 H 0.54715 0.86002 0.62609 0.0
H348 H 0.40209 0.82011 0.60577 0.0
H349 H 0.46389 0.81618 0.59939 0.0
H350 H 0.44157 0.84999 0.85567 0.0
H351 H 0.5062 0.85156 0.85024 0.0
H352 H 0.40557 0.8935 0.81923 0.0
H353 H 0.36388 0.88333 0.76463 0.0
C354 C 0.65371 0.47097 0.88627 0.0
C355 C 0.68418 0.47158 0.93072 0.0
C356 C 0.62514 0.37009 0.93628 0.0
C357 C 0.58925 0.37 0.89649 0.0
N358 N 0.56208 0.42629 0.84513 0.0
N359 N 0.68368 0.42178 0.00733 0.0
C360 C 0.60103 0.42226 0.87497 0.0
C361 C 0.664 0.42153 0.95944 0.0
N362 N 0.67537 0.51566 0.85382 0.0
N363 N 0.62704 0.32257 0.94882 0.0
H364 H 0.71309 0.45812 0.02608 0.0
H365 H 0.66636 0.38577 0.03005 0.0
H366 H 0.60756 0.28577 0.92735 0.0
H367 H 0.65549 0.32268 0.97555 0.0
H368 H 0.65676 0.51471 0.81882 0.0
H369 H 0.71461 0.55122 0.85949 0.0
H370 H 0.56794 0.46474 0.83188 0.0
H371 H 0.52144 0.39267 0.83904 0.0
C372 C 0.41185 0.38459 0.09392 0.0
C373 C 0.41 0.43406 0.10138 0.0
C374 C 0.42676 0.42765 0.19281 0.0
C375 C 0.41166 0.3703 0.18573 0.0
N376 N 0.36515 0.29141 0.12632 0.0
N377 N 0.4203 0.50701 0.15867 0.0
C378 C 0.3982 0.34758 0.13537 0.0
C379 C 0.42036 0.45782 0.15104 0.0
N380 N 0.416 0.36865 0.04582 0.0
N381 N 0.44444 0.45232 0.23937 0.0
H382 H 0.41921 0.53118 0.12846 0.0
H383 H 0.41976 0.52268 0.19461 0.0
H384 H 0.44506 0.43015 0.27145 0.0
H385 H 0.46088 0.49527 0.24543 0.0
H386 H 0.41756 0.33209 0.03835 0.0
H387 H 0.42249 0.39498 0.01469 0.0
H388 H 0.35195 0.27548 0.08974 0.0
H389 H 0.34201 0.26212 0.15413 0.0
C390 C 0.98775 0.38232 0.33405 0.0
C391 C 0.9944 0.37957 0.28087 0.0
C392 C 0.09531 0.41939 0.29092 0.0
C393 C 0.08921 0.41834 0.34488 0.0
N394 N 1.03295 0.41412 0.41678 0.0
N395 N 0.0539 0.41446 0.20798 0.0
C396 C 1.03629 0.40474 0.36622 0.0
C397 C 0.04821 0.40511 0.25922 0.0
N398 N 0.93486 0.36207 0.35349 0.0
N399 N 0.14451 0.42886 0.26954 0.0
H400 H 1.01908 0.40391 0.18448 0.0
H401 H 0.09284 0.43774 0.19004 0.0
H402 H 0.1811 0.44192 0.29027 0.0
H403 H 0.14727 0.41931 0.23174 0.0
H404 H 0.92564 0.35584 0.39209 0.0
H405 H 0.90002 0.35159 0.33013 0.0
H406 H 0.99662 0.40935 0.43416 0.0
H407 H 0.06821 0.43106 0.44078 0.0
C408 C 0.64973 1.00136 0.54693 0.0
C409 C 0.67859 0.05966 0.53765 0.0
C410 C 0.67233 0.04309 0.44595 0.0
C411 C 0.64842 0.985 0.45554 0.0
N412 N 0.59087 0.90877 0.51337 0.0
N413 N 0.68473 0.13066 0.47959 0.0
C414 C 0.62892 0.96404 0.50531 0.0
C415 C 0.67985 0.07925 0.48738 0.0
N416 N 0.64102 0.98028 0.59496 0.0
N417 N 0.68796 0.0636 0.39786 0.0
H418 H 0.68327 0.15452 0.50981 0.0
H419 H 0.68278 0.14576 0.44366 0.0
H420 H 0.68074 0.03741 0.36658 0.0
H421 H 0.70996 0.10652 0.38978 0.0
H422 H 0.65447 1.00553 0.62745 0.0
H423 H 0.65447 1.00553 0.62745 0.0
H424 H 0.57867 0.89215 0.54969 0.0
H425 H 0.56732 0.88152 0.48411 0.0
C426 C 0.65813 0.63982 0.69302 0.0
C427 C 0.6932 0.69448 0.7137 0.0
C428 C 0.74376 0.72419 0.63377 0.0
C429 C 0.71595 0.66815 0.61496 0.0
N430 N 0.64058 0.57201 0.62595 0.0
N431 N 0.7837 0.78017 0.70868 0.0
C432 C 0.6713 0.62545 0.64444 0.0
C433 C 0.74082 0.73372 0.68587 0.0
N434 N 0.61138 0.60245 0.71952 0.0
N435 N 0.77332 0.7686 0.60174 0.0
H436 H 0.78751 0.78525 0.74798 0.0
H437 H 0.81958 0.80928 0.68903 0.0
H438 H 0.77418 0.7634 0.5625 0.0
H439 H 0.7906 0.81035 0.61343 0.0
H440 H 0.58001 0.56425 0.70489 0.0
H441 H 0.60356 0.61097 0.75637 0.0
H442 H 0.61405 0.53751 0.64831 0.0
H443 H 0.64018 0.56241 0.58762 0.0
C444 C 0.07949 0.73189 0.81158 0.0
C445 C 0.07961 0.69681 0.77196 0.0
C446 C 1.0056 0.61501 0.81731 0.0
C447 C 1.01147 0.65076 0.85909 0.0
N448 N 0.07022 0.73842 0.90201 0.0
N449 N 0.04812 0.60317 0.7406 0.0
C450 C 0.05507 0.70728 0.85839 0.0
C451 C 0.0447 0.63759 0.77617 0.0
N452 N 0.09902 0.78794 0.80433 0.0
N453 N 0.9617 0.56101 0.81514 0.0
H454 H 0.07355 0.61872 0.70839 0.0
H455 H 1.02797 0.55957 0.74456 0.0
H456 H 0.93415 0.54117 0.84515 0.0
H457 H 0.95144 0.53643 0.78239 0.0
H458 H 0.09622 0.81341 0.83228 0.0
H459 H 0.11018 0.80733 0.76895 0.0
H460 H 0.10434 0.77941 0.90367 0.0
H461 H 0.05234 0.72066 0.93709 0.0
C462 C 0.45348 0.0507 0.97216 0.0
C463 C 0.4095 0.04719 0.94024 0.0
C464 C 0.34079 1.00045 0.00702 0.0
C465 C 0.38283 1.00038 0.03928 0.0
N466 N 0.47946 1.02311 0.05163 0.0
N467 N 0.31007 0.99487 0.9204 0.0
C468 C 0.43951 1.02506 0.02147 0.0
C469 C 0.35283 1.013 0.95536 0.0
N470 N 0.50788 0.0772 0.95515 0.0
N471 N 0.28985 0.99091 0.02495 0.0
H472 H 0.3177 1.00468 0.88182 0.0
H473 H 0.26824 0.96556 0.92913 0.0
H474 H 0.27934 0.98695 0.06299 0.0
H475 H 0.26062 0.99494 0.00221 0.0
H476 H 0.54288 0.08879 0.97848 0.0
H477 H 0.51773 0.08573 0.91675 0.0
H478 H 0.52005 0.03449 0.03961 0.0
H479 H 0.4712 1.00874 0.08913 0.0
C480 C 0.49597 0.6482 0.91361 0.0
C481 C 0.48636 0.6706 0.8686 0.0
C482 C 0.3845 0.60471 0.87618 0.0
C483 C 0.3955 0.57869 0.91803 0.0
N484 N 0.46396 0.56411 0.96374 0.0
N485 N 0.42203 0.66293 0.80135 0.0
C486 C 0.45198 0.59702 0.93297 0.0
C487 C 0.43081 0.64643 0.84791 0.0
N488 N 0.5464 0.6761 0.93872 0.0
N489 N 0.33047 0.592 0.86477 0.0
H490 H 0.45436 0.69419 0.77993 0.0
H491 H 0.38342 0.64232 0.7822 0.0
H492 H 0.29517 0.56215 0.8845 0.0
H493 H 0.32101 0.61466 0.83847 0.0
H494 H 0.55352 0.66314 0.97395 0.0
H495 H 0.57852 0.71544 0.92731 0.0
H496 H 0.5051 0.57381 0.97279 0.0
H497 H 0.43315 0.52352 0.97381 0.0
C498 C 0.816 0.41533 0.02232 0.0
C499 C 0.84932 0.47176 0.04096 0.0
C500 C 0.88706 0.43638 0.10815 0.0
C501 C 0.84948 0.38007 0.09286 0.0
N502 N 0.77523 0.31528 0.03659 0.0
N503 N 0.91359 0.53477 0.10515 0.0
C504 C 0.81389 0.36945 0.04981 0.0
C505 C 0.88366 0.48184 0.08507 0.0
N506 N 0.78544 0.40473 0.97826 0.0
N507 N 0.92877 0.44677 0.14268 0.0
H508 H 0.91707 0.57051 0.08794 0.0
H509 H 0.93258 0.54303 0.14092 0.0
H510 H 0.93424 0.4149 0.1584 0.0
H511 H 0.96177 0.48685 0.15139 0.0
H512 H 0.77067 0.36767 0.95748 0.0
H513 H 0.77541 0.43285 0.96114 0.0
H514 H 0.74201 0.30478 0.01124 0.0
H515 H 0.77265 0.27982 0.0537 0.0
C516 C 0.39681 0.78602 0.24608 0.0
C517 C 0.4027 0.83949 0.23319 0.0
C518 C 0.49596 0.8869 0.27451 0.0
C519 C 0.4887 0.83359 0.2883 0.0
N520 N 0.4277 0.73353 0.2983 0.0
N521 N 0.45181 0.94013 0.24523 0.0
C522 C 0.43761 0.78363 0.27781 0.0
C523 C 0.45069 0.88985 0.25028 0.0
N524 N 0.35456 0.73721 0.22568 0.0
N525 N 0.54616 0.93461 0.28453 0.0
H526 H 0.41852 0.94353 0.22929 0.0
H527 H 0.48305 0.97771 0.26099 0.0
H528 H 0.57916 0.93413 0.30436 0.0
H529 H 0.55664 0.97419 0.27051 0.0
H530 H 0.35408 0.69897 0.22744 0.0
H531 H 0.32203 0.73453 0.2034 0.0
H532 H 0.38817 0.69718 0.29781 0.0
H533 H 0.45746 0.72902 0.31967 0.0
C534 C 0.66367 0.49402 0.38168 0.0
C535 C 0.68521 0.48211 0.42696 0.0
C536 C 0.62003 0.38085 0.41106 0.0
C537 C 0.59358 0.39311 0.37031 0.0
N538 N 0.58227 0.46415 0.32612 0.0
N539 N 0.66846 0.4106 0.49108 0.0
C540 C 0.61324 0.45052 0.35813 0.0
C541 C 0.65833 0.42474 0.44389 0.0
N542 N 0.69048 0.54657 0.36074 0.0
N543 N 0.61205 0.32776 0.41693 0.0
H544 H 0.69874 0.43802 0.51656 0.0
H545 H 0.64358 0.37044 0.5063 0.0
H546 H 0.5884 0.29496 0.39173 0.0
H547 H 0.635 0.31826 0.44306 0.0
H548 H 0.67987 0.55534 0.32507 0.0
H549 H 0.72604 0.5805 0.37646 0.0
H550 H 0.59134 0.50541 0.31995 0.0
H551 H 0.54374 0.43415 0.31052 0.0
C552 C 0.23146 0.61902 0.61539 0.0
C553 C 0.23268 0.66584 0.59052 0.0
C554 C 0.23919 0.62718 0.50879 0.0
C555 C 0.2289 0.57647 0.53326 0.0
N556 N 0.19891 0.51968 0.60952 0.0
N557 N 0.22177 0.70531 0.5117 0.0
C558 C 0.21975 0.57089 0.58646 0.0
C559 C 0.2315 0.66712 0.53662 0.0
N560 N 0.24509 0.62128 0.66574 0.0
N561 N 0.25994 0.63961 0.46041 0.0
H562 H 0.21296 0.73346 0.53054 0.0
H563 H 0.21589 0.7043 0.47242 0.0
H564 H 0.27184 0.61489 0.43967 0.0
H565 H 0.27228 0.67843 0.4434 0.0
H566 H 0.24886 0.58932 0.68374 0.0
H567 H 0.26007 0.65752 0.68775 0.0
H568 H 0.18749 0.5133 0.64778 0.0
H569 H 0.18668 0.4827 0.58927 0.0
C570 C 0.63011 0.26749 0.74114 0.0
C571 C 0.595 0.22071 0.77248 0.0
C572 C 0.66098 0.18487 0.76189 0.0
C573 C 0.69001 0.22541 0.72325 0.0
N574 N 0.70589 0.30974 0.67985 0.0
N575 N 0.57298 0.13023 0.8068 0.0
C576 C 0.67523 0.26774 0.71375 0.0
C577 C 0.60939 0.17818 0.78127 0.0
N578 N 0.62291 0.3135 0.74012 0.0
N579 N 0.68356 0.15449 0.78221 0.0
H580 H 0.53438 0.12306 0.821 0.0
H581 H 0.57841 0.09522 0.80923 0.0
H582 H 0.72358 0.1616 0.77307 0.0
H583 H 0.66615 0.12778 0.81333 0.0
H584 H 0.65096 0.35145 0.7228 0.0
H585 H 0.59161 0.31601 0.76048 0.0
H586 H 0.6923 0.33612 0.66457 0.0
H587 H 0.74511 0.31781 0.66663 0.0
C588 C 0.25494 0.27744 0.89892 0.0
C589 C 0.28448 0.33673 0.89961 0.0
C590 C 0.35384 0.3349 0.84115 0.0
C591 C 0.33285 0.27666 0.85135 0.0
N592 N 0.26108 0.19325 0.89749 0.0
N593 N 0.36682 0.42299 0.87399 0.0
C594 C 0.28226 0.24768 0.88163 0.0
C595 C 0.33512 0.36586 0.87116 0.0
N596 N 0.20026 0.24926 0.91516 0.0
N597 N 0.38997 0.36051 0.80159 0.0
H598 H 0.35431 0.44689 0.89507 0.0
H599 H 0.40721 0.44574 0.85852 0.0
H600 H 0.39998 0.33828 0.77542 0.0
H601 H 0.40336 0.40187 0.79068 0.0
H602 H 0.17418 0.20589 0.9112 0.0
H603 H 0.17943 0.27056 0.92663 0.0
H604 H 0.23029 0.17539 0.92562 0.0
H605 H 0.27514 0.16596 0.88701 0.0
C606 C 1.00732 0.24264 0.06073 0.0
C607 C 0.98319 0.27521 0.07775 0.0
C608 C 0.0531 0.35532 0.02711 0.0
C609 C 0.08382 0.32676 0.01799 0.0
N610 N 0.07563 0.23592 0.00632 0.0
N611 N 0.98846 0.3657 0.08251 0.0
C612 C 0.05672 0.26807 0.02928 0.0
C613 C 1.00735 0.33227 0.06213 0.0
N614 N 0.98436 0.18807 0.07653 0.0
N615 N 0.06423 0.40202 -0.00044 0.0
H616 H 0.95596 0.35102 0.10899 0.0
H617 H 1.00887 0.40914 0.07711 0.0
H618 H 0.09037 0.41494 0.96782 0.0
H619 H 1.04042 0.42211 0.00254 0.0
H620 H 1.00324 0.16351 0.07119 0.0
H621 H 0.94714 0.16789 0.09755 0.0
H622 H 0.05643 0.19241 0.00964 0.0
H623 H 0.10664 0.25226 0.97841 0.0
C624 C 0.78972 0.98859 0.2282 0.0
C625 C 0.72987 0.95883 0.23273 0.0
C626 C 0.72552 1.02695 0.17342 0.0
C627 C 0.78531 0.06189 0.17699 0.0
N628 N 0.8715 0.05796 0.18181 0.0
N629 N 0.63999 0.94633 0.20568 0.0
C630 C 0.81678 0.03736 0.19669 0.0
C631 C 0.69753 0.97656 0.20338 0.0
N632 N 0.8211 0.97127 0.25541 0.0
N633 N 0.69615 0.03935 0.13842 0.0
H634 H 0.61872 0.90745 0.22373 0.0
H635 H 0.61347 0.96026 0.19131 0.0
H636 H 0.71625 0.07028 0.1108 0.0
H637 H 0.65302 1.01437 0.13159 0.0
H638 H 0.86481 0.99539 0.25959 0.0
H639 H 0.8029 0.93372 0.27586 0.0
H640 H 0.89565 0.03951 0.19162 0.0
H641 H 0.88982 0.08833 0.15341 0.0
C642 C 0.71475 0.72132 0.38411 0.0
C643 C 0.74523 0.77074 0.35383 0.0
C644 C 0.83143 0.76318 0.36485 0.0
C645 C 0.80148 0.71637 0.39766 0.0
N646 N 0.71478 0.65038 0.43903 0.0
N647 N 0.82801 0.82846 0.30377 0.0
C648 C 0.74266 0.69412 0.40567 0.0
C649 C 0.80239 0.78874 0.3408 0.0
N650 N 0.65922 0.70169 0.39495 0.0
N651 N 0.88831 0.78505 0.35907 0.0
H652 H 0.80706 0.84576 0.28399 0.0
H653 H 0.86779 0.84033 0.28915 0.0
H654 H 0.90979 0.76586 0.37461 0.0
H655 H 0.91452 0.82312 0.34102 0.0
H656 H 0.63079 0.66014 0.40465 0.0
H657 H 0.6428 0.72851 0.39752 0.0
H658 H 0.67452 0.63692 0.45324 0.0
H659 H 0.73294 0.62805 0.45448 0.0
C660 C 0.06118 0.75878 0.59885 0.0
C661 C 0.11351 0.79184 0.57369 0.0
C662 C 0.06011 0.76334 0.49233 0.0
C663 C 1.01092 0.7236 0.51875 0.0
N664 N 0.97556 0.67015 0.59588 0.0
N665 N 0.16261 0.82373 0.49367 0.0
C666 C 1.01531 0.71671 0.5714 0.0
C667 C 0.11311 0.7931 0.51933 0.0
N668 N 0.05252 0.76952 0.64762 0.0
N669 N 0.05604 0.77316 0.44205 0.0
H670 H 0.20075 0.85004 0.51212 0.0
H671 H 0.16591 0.8216 0.45439 0.0
H672 H 1.01843 0.75036 0.4216 0.0
H673 H 0.08884 0.80539 0.42162 0.0
H674 H 1.0134 0.74652 0.6655 0.0
H675 H 0.08003 0.80631 0.66683 0.0
H676 H 0.98009 0.66176 0.63384 0.0
H677 H 0.94059 0.6388 0.57681 0.0
C678 C 0.39496 0.06878 0.71684 0.0
C679 C 0.36355 0.09705 0.72397 0.0
C680 C 0.2823 1.01921 0.68089 0.0
C681 C 0.3133 0.99035 0.67641 0.0
N682 N 0.40424 0.99679 0.67164 0.0
N683 N 0.28303 0.10627 0.70198 0.0
C684 C 0.37161 1.01869 0.68757 0.0
C685 C 0.30922 0.07482 0.70164 0.0
N686 N 0.44494 0.08676 0.74184 0.0
N687 N 0.22658 0.99232 0.66717 0.0
H688 H 0.3023 0.14675 0.71741 0.0
H689 H 0.24486 0.0945 0.68362 0.0
H690 H 0.20728 0.95318 0.64917 0.0
H691 H 0.19938 1.00782 0.67456 0.0
H692 H 0.4663 0.06409 0.74311 0.0
H693 H 0.46237 0.12194 0.76511 0.0
H694 H 0.44809 1.01781 0.67547 0.0
H695 H 0.38803 0.96081 0.6491 0.0
C696 C 0.7316 0.69423 0.92227 0.0
C697 C 0.77658 0.72201 0.95779 0.0
C698 C 0.76909 0.80784 0.94847 0.0
C699 C 0.72274 0.77891 0.91453 0.0
N700 N 0.6526 0.69079 0.87751 0.0
N701 N 0.83123 0.80186 0.012 0.0
C702 C 0.70125 0.72077 0.90492 0.0
C703 C 0.79316 0.77789 0.97319 0.0
N704 N 0.72115 0.64461 0.90079 0.0
N705 N 0.79094 0.86425 0.95602 0.0
H706 H 0.84874 0.78062 0.03102 0.0
H707 H 0.84169 0.84048 0.02825 0.0
H708 H 0.77249 0.88643 0.94047 0.0
H709 H 0.82857 0.88947 0.97547 0.0
H710 H 0.69475 0.62685 0.8694 0.0
H711 H 0.7433 0.62417 0.91043 0.0
H712 H 0.63077 0.64699 0.87534 0.0
H713 H 0.6315 0.70913 0.86012 0.0
C714 C 0.05399 0.78561 0.1182 0.0
C715 C 0.09054 0.76333 0.10948 0.0
C716 C 1.01719 0.68763 0.05743 0.0
C717 C 0.98153 0.71125 0.06401 0.0
N718 N 0.9604 0.77564 0.1073 0.0
N719 N 0.10274 0.68684 0.08037 0.0
C720 C 0.99801 0.75776 0.09706 0.0
C721 C 0.07051 0.71213 0.08237 0.0
N722 N 0.07389 0.83465 0.14492 0.0
N723 N 1.00114 0.64324 0.02491 0.0
H724 H 0.14304 0.70515 0.09584 0.0
H725 H 0.08849 0.64636 0.06661 0.0
H726 H 0.96076 0.62122 0.00913 0.0
H727 H 1.02813 0.62949 0.01172 0.0
H728 H 0.05234 0.85686 0.14868 0.0
H729 H 0.11355 0.85436 0.16243 0.0
H730 H 0.96749 0.80675 0.13366 0.0
H731 H 0.91985 0.75632 0.09156 0.0
C732 C 0.30995 1.02353 0.31202 0.0
C733 C 0.34974 0.07171 0.28426 0.0
C734 C 0.31361 1.01816 0.20616 0.0
C735 C 0.28083 0.9666 0.23266 0.0
N736 N 0.24962 0.9213 0.31432 0.0
N737 N 0.40302 0.10406 0.20652 0.0
C738 C 0.28011 0.96943 0.28693 0.0
C739 C 0.35654 0.06514 0.23209 0.0
N740 N 0.30017 0.02954 0.3618 0.0
N741 N 0.30029 1.02539 0.1579 0.0
H742 H 0.43652 0.13822 0.22474 0.0
H743 H 0.41013 0.09854 0.16852 0.0
H744 H 0.2605 0.99915 0.14244 0.0
H745 H 0.32421 0.06259 0.13768 0.0
H746 H 0.26796 0.99763 0.38299 0.0
H747 H 0.32285 0.06784 0.38093 0.0
H748 H 0.25202 0.91973 0.35379 0.0
H749 H 0.22308 0.88257 0.29719 0.0
C750 C 0.38541 0.33121 0.42123 0.0
C751 C 0.35582 0.27255 0.41032 0.0
C752 C 0.27211 0.26401 0.45343 0.0
C753 C 0.30161 0.32292 0.46255 0.0
N754 N 0.39162 0.40644 0.4741 0.0
N755 N 0.27618 0.18098 0.4264 0.0
C756 C 0.36028 0.35423 0.4533 0.0
C757 C 0.30096 0.23809 0.43054 0.0
N758 N 0.43541 0.36596 0.39768 0.0
N759 N 0.21591 0.23365 0.46472 0.0
H760 H 0.29667 0.16163 0.40939 0.0
H761 H 0.23784 0.15296 0.44324 0.0
H762 H 0.19516 0.25148 0.48388 0.0
H763 H 0.18983 0.19189 0.45404 0.0
H764 H 0.4555 0.40971 0.39984 0.0
H765 H 0.45393 0.35131 0.372 0.0
H766 H 0.43548 0.43008 0.47109 0.0
H767 H 0.37434 0.4224 0.49995 0.0
C768 C 0.09611 0.31583 0.60212 0.0
C769 C 0.09608 0.32883 0.54949 0.0
C770 C 0.99717 0.30605 0.55788 0.0
C771 C 0.99435 0.28558 0.60781 0.0
N772 N 1.04036 0.26615 0.6767 0.0
N773 N 1.03584 0.31132 0.47529 0.0
C774 C 1.04372 0.28905 0.62979 0.0
C775 C 1.04369 0.31691 0.52666 0.0
N776 N 0.14567 0.32764 0.62538 0.0
N777 N 0.95526 0.31479 0.53947 0.0
H778 H 0.06357 0.3076 0.45101 0.0
H779 H 0.99699 0.29946 0.45801 0.0
H780 H 0.92061 0.30824 0.56106 0.0
H781 H 0.95826 0.33425 0.50458 0.0
H782 H 0.14977 0.32524 0.66456 0.0
H783 H 0.18339 0.34186 0.60554 0.0
H784 H 0.0729 0.2618 0.69289 0.0
H785 H 1.00344 0.2486 0.69829 0.0
C786 C 0.73854 0.06221 0.74958 0.0
C787 C 0.79835 0.09492 0.74474 0.0
C788 C 0.8073 1.02247 0.79274 0.0
C789 C 0.74743 0.99028 0.79704 0.0
N790 N 0.66026 0.99248 0.7987 0.0
N791 N 0.89023 0.11194 0.77035 0.0
C792 C 0.71451 1.01464 0.7821 0.0
C793 C 0.833 0.07722 0.76987 0.0
N794 N 0.7041 0.07405 0.72052 0.0
N795 N 0.83918 0.99974 0.80925 0.0
H796 H 0.90951 0.15151 0.75313 0.0
H797 H 0.91799 0.10366 0.79091 0.0
H798 H 0.82154 0.96158 0.8289 0.0
H799 H 0.88228 1.01759 0.80239 0.0
H800 H 0.66048 0.04744 0.71824 0.0
H801 H 0.71927 0.10883 0.69651 0.0
H802 H 0.63559 1.01104 0.7913 0.0
H803 H 0.6432 0.96071 0.82587 0.0
C804 C 0.28658 0.48515 0.25573 0.0
C805 C 0.2812 0.44052 0.28638 0.0
C806 C 0.25809 0.38118 0.21077 0.0
C807 C 0.24892 0.42128 0.18408 0.0
N808 N 0.24406 0.50693 0.18552 0.0
N809 N 0.27133 0.3486 0.29297 0.0
C810 C 0.25959 0.47175 0.20828 0.0
C811 C 0.27024 0.38923 0.26363 0.0
N812 N 0.31699 0.53973 0.27151 0.0
N813 N 0.25809 0.33753 0.18569 0.0
H814 H 0.28564 0.35641 0.33059 0.0
H815 H 0.25726 0.30765 0.28051 0.0
H816 H 0.24729 0.32859 0.1475 0.0
H817 H 0.27172 0.31174 0.20222 0.0
H818 H 0.32349 0.57347 0.24846 0.0
H819 H 0.34239 0.55145 0.30397 0.0
H820 H 0.24798 0.54265 0.20345 0.0
H821 H 0.22123 0.49631 0.15148 0.0
C822 C 0.84256 0.16026 0.42982 0.0
C823 C 0.83954 0.20398 0.45651 0.0
C824 C 0.80507 0.2263 0.38029 0.0
C825 C 0.82216 0.19453 0.35063 0.0
N826 N 0.84834 0.12193 0.34853 0.0
N827 N 0.83071 0.28738 0.45253 0.0
C828 C 0.83861 0.15868 0.37562 0.0
C829 C 0.82531 0.24008 0.43004 0.0
N830 N 0.84489 0.11817 0.45579 0.0
N831 N 0.76888 0.24259 0.36103 0.0
H832 H 0.8499 0.30105 0.48799 0.0
H833 H 0.82278 0.31606 0.43316 0.0
H834 H 0.74949 0.22855 0.32562 0.0
H835 H 0.75309 0.26344 0.38286 0.0
H836 H 0.8399 0.08183 0.4384 0.0
H837 H 0.84758 0.11708 0.4952 0.0
H838 H 0.86936 0.10215 0.36367 0.0
H839 H 0.83374 0.10972 0.31151 0.0
C840 C 0.70282 0.88551 0.60646 0.0
C841 C 0.67458 0.82916 0.62453 0.0
C842 C 0.68116 0.79506 0.54091 0.0
C843 C 0.69765 0.8484 0.52107 0.0
N844 N 0.73755 0.94767 0.53282 0.0
N845 N 0.63117 0.72911 0.60772 0.0
C846 C 0.71319 0.89499 0.55345 0.0
C847 C 0.66243 0.78347 0.59155 0.0
N848 N 0.71804 0.9291 0.63973 0.0
N849 N 0.68446 0.75619 0.51111 0.0
H850 H 0.6133 0.71843 0.64362 0.0
H851 H 0.61856 0.69447 0.58399 0.0
H852 H 0.70202 0.76686 0.4749 0.0
H853 H 0.67617 0.71682 0.524 0.0
H854 H 0.74131 0.9714 0.62991 0.0
H855 H 0.70783 0.92296 0.67823 0.0
H856 H 0.7477 0.98416 0.55291 0.0
H857 H 0.74916 0.95471 0.49463 0.0
C858 C 0.83113 0.59739 0.75434 0.0
C859 C 0.84081 0.64382 0.78506 0.0
C860 C 0.87547 0.70462 0.70916 0.0
C861 C 0.87111 0.65806 0.68133 0.0
N862 N 0.86382 0.56701 0.6829 0.0
N863 N 0.86088 0.74012 0.78931 0.0
C864 C 0.85617 0.60715 0.70634 0.0
C865 C 0.86018 0.69747 0.76192 0.0
N866 N 0.79598 0.54358 0.77039 0.0
N867 N 0.89288 0.75475 0.68493 0.0
H868 H 0.83773 0.7329 0.82259 0.0
H869 H 0.88056 0.78193 0.77782 0.0
H870 H 0.90734 0.76214 0.64765 0.0
H871 H 0.89559 0.79027 0.70174 0.0
H872 H 0.78452 0.50847 0.74745 0.0
H873 H 0.77314 0.53485 0.80407 0.0
H874 H 0.857 0.53032 0.70117 0.0
H875 H 0.88251 0.57371 0.64715 0.0
C876 C 0.21788 0.77359 0.88733 0.0
C877 C 0.25183 0.81862 0.85365 0.0
C878 C 0.31229 0.87111 0.92477 0.0
C879 C 0.27236 0.83158 0.95899 0.0
N880 N 0.18392 0.74654 0.97347 0.0
N881 N 0.32497 0.91508 0.84248 0.0
C882 C 0.22394 0.78321 0.94048 0.0
C883 C 0.29711 0.86903 0.87304 0.0
N884 N 0.18203 0.72106 0.86906 0.0
N885 N 0.3655 0.90856 0.94103 0.0
H886 H 0.31167 0.91632 0.80548 0.0
H887 H 0.35884 0.95302 0.85496 0.0
H888 H 0.37869 0.90876 0.97829 0.0
H889 H 0.39784 0.93446 0.91625 0.0
H890 H 0.16013 0.68588 0.89225 0.0
H891 H 0.17889 0.71142 0.83074 0.0
H892 H 0.14491 0.71357 0.9617 0.0
H893 H 0.1883 0.75144 0.01283 0.0
C894 C 0.3505 0.16855 0.04234 0.0
C895 C 0.39852 0.20746 0.01412 0.0
C896 C 0.45493 0.23247 0.09034 0.0
C897 C 0.40637 0.20409 0.12111 0.0
N898 N 0.30323 0.14802 0.12354 0.0
N899 N 0.4899 0.29124 0.01665 0.0
C900 C 0.35242 0.17244 0.09661 0.0
C901 C 0.44835 0.24479 0.0402 0.0
N902 N 0.30429 0.12685 0.01816 0.0
N903 N 0.50724 0.24685 0.10865 0.0
H904 H 0.48288 0.30392 0.98123 0.0
H905 H 0.52678 0.32032 0.03543 0.0
H906 H 0.5123 0.23199 0.14366 0.0
H907 H 0.5434 0.26609 0.08607 0.0
H908 H 0.27114 0.09382 0.03764 0.0
H909 H 0.30083 0.12323 0.97871 0.0
H910 H 0.26374 0.13102 0.10598 0.0
H911 H 0.30099 0.14664 0.16292 0.0
loop_
_geom_bond_atom_site_label_1
_geom_bond_atom_site_label_2
_geom_bond_distance
_geom_bond_site_symmetry_2
_ccdc_geom_bond_type
Fe0 O2 1.918 . S
Fe0 O5 1.997 . S
Fe0 O6 2.002 . S
Fe0 O11 1.976 . S
Fe0 O14 1.996 . S
Fe1 O2 1.918 . S
Fe1 O9 1.997 . S
Fe1 O12 1.996 . S
Fe1 O16 1.976 . S
Fe1 O19 2.002 . S
O2 Fe0 1.918 . S
O2 Fe1 1.918 . S
O2 Fe3 1.918 1_554 S
Fe3 O2 1.918 1_556 S
Fe3 O4 2.002 . S
Fe3 O13 1.976 . S
Fe3 O17 1.996 . S
Fe3 O20 1.997 . S
O4 Fe3 2.002 . S
O4 C21 1.295 1_556 S
O5 Fe0 1.997 . S
O5 C21 1.235 . S
O6 Fe0 2.002 . S
O6 C7 1.295 . S
C7 O6 1.295 . S
C7 O9 1.235 . S
C8 O13 1.287 . S
C8 O14 1.255 1_556 S
O9 Fe1 1.997 . S
O9 C7 1.235 . S
C10 O16 1.287 1_556 S
C10 O17 1.255 . S
O11 Fe0 1.976 . S
O11 C18 1.287 . S
O12 Fe1 1.996 . S
O12 C18 1.255 . S
O13 Fe3 1.976 . S
O13 C8 1.287 . S
O14 Fe0 1.996 . S
O14 C8 1.255 1_554 S
C15 O19 1.295 . S
C15 O20 1.235 1_554 S
O16 Fe1 1.976 . S
O16 C10 1.287 1_554 S
O17 Fe3 1.996 . S
O17 C10 1.255 . S
C18 O11 1.287 . S
C18 O12 1.255 . S
O19 Fe1 2.002 . S
O19 C15 1.295 . S
O20 Fe3 1.997 . S
O20 C15 1.235 1_556 S
C21 O4 1.295 1_554 S
C21 O5 1.235 . S
Fe22 O24 1.918 . S
Fe22 O27 1.997 . S
Fe22 O28 2.002 . S
Fe22 O33 1.976 . S
Fe22 O36 1.996 . S
Fe23 O24 1.918 . S
Fe23 O31 1.997 . S
Fe23 O34 1.996 . S
Fe23 O38 1.976 . S
Fe23 O41 2.002 . S
O24 Fe22 1.918 . S
O24 Fe23 1.918 . S
O24 Fe25 1.918 . S
Fe25 O24 1.918 . S
Fe25 O26 2.002 . S
Fe25 O35 1.976 . S
Fe25 O39 1.996 . S
Fe25 O42 1.997 . S
O26 Fe25 2.002 . S
O26 C43 1.295 . S
O27 Fe22 1.997 . S
O27 C43 1.235 . S
O28 Fe22 2.002 . S
O28 C29 1.295 . S
C29 O28 1.295 . S
C29 O31 1.235 . S
C30 O35 1.287 . S
C30 O36 1.255 . S
O31 Fe23 1.997 . S
O31 C29 1.235 . S
C32 O38 1.287 . S
C32 O39 1.255 . S
O33 Fe22 1.976 . S
O33 C40 1.287 . S
O34 Fe23 1.996 . S
O34 C40 1.255 . S
O35 Fe25 1.976 . S
O35 C30 1.287 . S
O36 Fe22 1.996 . S
O36 C30 1.255 . S
C37 O41 1.295 . S
C37 O42 1.235 . S
O38 Fe23 1.976 . S
O38 C32 1.287 . S
O39 Fe25 1.996 . S
O39 C32 1.255 . S
C40 O33 1.287 . S
C40 O34 1.255 . S
O41 Fe23 2.002 . S
O41 C37 1.295 . S
O42 Fe25 1.997 . S
O42 C37 1.235 . S
C43 O26 1.295 . S
C43 O27 1.235 . S
Fe44 O46 1.918 . S
Fe44 O49 1.997 . S
Fe44 O50 2.002 . S
Fe44 O55 1.976 . S
Fe44 O58 1.996 . S
Fe45 O46 1.918 . S
Fe45 O53 1.997 . S
Fe45 O56 1.996 . S
Fe45 O60 1.976 . S
Fe45 O63 2.002 . S
O46 Fe44 1.918 . S
O46 Fe45 1.918 . S
O46 Fe47 1.918 . S
Fe47 O46 1.918 . S
Fe47 O48 2.002 . S
Fe47 O57 1.976 . S
Fe47 O61 1.996 . S
Fe47 O64 1.997 . S
O48 Fe47 2.002 . S
O48 C65 1.295 . S
O49 Fe44 1.997 . S
O49 C65 1.235 . S
O50 Fe44 2.002 . S
O50 C51 1.295 . S
C51 O50 1.295 . S
C51 O53 1.235 . S
C52 O57 1.287 . S
C52 O58 1.255 . S
O53 Fe45 1.997 . S
O53 C51 1.235 . S
C54 O60 1.287 . S
C54 O61 1.255 . S
O55 Fe44 1.976 . S
O55 C62 1.287 . S
O56 Fe45 1.996 . S
O56 C62 1.255 . S
O57 Fe47 1.976 . S
O57 C52 1.287 . S
O58 Fe44 1.996 . S
O58 C52 1.255 . S
C59 O63 1.295 . S
C59 O64 1.235 . S
O60 Fe45 1.976 . S
O60 C54 1.287 . S
O61 Fe47 1.996 . S
O61 C54 1.255 . S
C62 O55 1.287 . S
C62 O56 1.255 . S
O63 Fe45 2.002 . S
O63 C59 1.295 . S
O64 Fe47 1.997 . S
O64 C59 1.235 . S
C65 O48 1.295 . S
C65 O49 1.235 . S
Fe66 O68 1.918 . S
Fe66 O71 1.997 . S
Fe66 O72 2.002 . S
Fe66 O77 1.976 . S
Fe66 O80 1.996 . S
Fe67 O68 1.918 . S
Fe67 O75 1.997 . S
Fe67 O78 1.996 . S
Fe67 O82 1.976 . S
Fe67 O85 2.002 . S
O68 Fe66 1.918 . S
O68 Fe67 1.918 . S
O68 Fe69 1.918 . S
Fe69 O68 1.918 . S
Fe69 O70 2.002 . S
Fe69 O79 1.976 . S
Fe69 O83 1.996 . S
Fe69 O86 1.997 . S
O70 Fe69 2.002 . S
O70 C87 1.295 . S
O71 Fe66 1.997 . S
O71 C87 1.235 . S
O72 Fe66 2.002 . S
O72 C73 1.295 . S
C73 O72 1.295 . S
C73 O75 1.235 . S
C74 O79 1.287 . S
C74 O80 1.255 . S
O75 Fe67 1.997 . S
O75 C73 1.235 . S
C76 O82 1.287 . S
C76 O83 1.255 . S
O77 Fe66 1.976 . S
O77 C84 1.287 . S
O78 Fe67 1.996 . S
O78 C84 1.255 . S
O79 Fe69 1.976 . S
O79 C74 1.287 . S
O80 Fe66 1.996 . S
O80 C74 1.255 . S
C81 O85 1.295 . S
C81 O86 1.235 . S
O82 Fe67 1.976 . S
O82 C76 1.287 . S
O83 Fe69 1.996 . S
O83 C76 1.255 . S
C84 O77 1.287 . S
C84 O78 1.255 . S
O85 Fe67 2.002 . S
O85 C81 1.295 . S
O86 Fe69 1.997 . S
O86 C81 1.235 . S
C87 O70 1.295 . S
C87 O71 1.235 . S
Fe88 O90 1.918 . S
Fe88 O93 1.997 . S
Fe88 O94 2.002 . S
Fe88 O99 1.976 . S
Fe88 O102 1.996 . S
Fe89 O90 1.918 . S
Fe89 O97 1.997 . S
Fe89 O100 1.996 . S
Fe89 O104 1.976 . S
Fe89 O107 2.002 . S
O90 Fe88 1.918 . S
O90 Fe89 1.918 . S
O90 Fe91 1.918 . S
Fe91 O90 1.918 . S
Fe91 O92 2.002 . S
Fe91 O101 1.976 . S
Fe91 O105 1.996 . S
Fe91 O108 1.997 . S
O92 Fe91 2.002 . S
O92 C109 1.295 . S
O93 Fe88 1.997 . S
O93 C109 1.235 . S
O94 Fe88 2.002 . S
O94 C95 1.295 . S
C95 O94 1.295 . S
C95 O97 1.235 . S
C96 O101 1.287 . S
C96 O102 1.255 . S
O97 Fe89 1.997 . S
O97 C95 1.235 . S
C98 O104 1.287 . S
C98 O105 1.255 . S
O99 Fe88 1.976 . S
O99 C106 1.287 . S
O100 Fe89 1.996 . S
O100 C106 1.255 . S
O101 Fe91 1.976 . S
O101 C96 1.287 . S
O102 Fe88 1.996 . S
O102 C96 1.255 . S
C103 O107 1.295 . S
C103 O108 1.235 . S
O104 Fe89 1.976 . S
O104 C98 1.287 . S
O105 Fe91 1.996 . S
O105 C98 1.255 . S
C106 O99 1.287 . S
C106 O100 1.255 . S
O107 Fe89 2.002 . S
O107 C103 1.295 . S
O108 Fe91 1.997 . S
O108 C103 1.235 . S
C109 O92 1.295 . S
C109 O93 1.235 . S
Fe110 O112 1.918 . S
Fe110 O115 1.997 . S
Fe110 O116 2.002 . S
Fe110 O121 1.976 . S
Fe110 O124 1.996 . S
Fe111 O112 1.918 . S
Fe111 O119 1.997 . S
Fe111 O122 1.996 . S
Fe111 O126 1.976 . S
Fe111 O129 2.002 . S
O112 Fe110 1.918 . S
O112 Fe111 1.918 . S
O112 Fe113 1.918 . S
Fe113 O112 1.918 . S
Fe113 O114 2.002 . S
Fe113 O123 1.976 . S
Fe113 O127 1.996 . S
Fe113 O130 1.997 . S
O114 Fe113 2.002 . S
O114 C131 1.295 . S
O115 Fe110 1.997 . S
O115 C131 1.235 . S
O116 Fe110 2.002 . S
O116 C117 1.295 . S
C117 O116 1.295 . S
C117 O119 1.235 . S
C118 O123 1.287 . S
C118 O124 1.255 . S
O119 Fe111 1.997 . S
O119 C117 1.235 . S
C120 O126 1.287 . S
C120 O127 1.255 . S
O121 Fe110 1.976 . S
O121 C128 1.287 . S
O122 Fe111 1.996 . S
O122 C128 1.255 . S
O123 Fe113 1.976 . S
O123 C118 1.287 . S
O124 Fe110 1.996 . S
O124 C118 1.255 . S
C125 O129 1.295 . S
C125 O130 1.235 . S
O126 Fe111 1.976 . S
O126 C120 1.287 . S
O127 Fe113 1.996 . S
O127 C120 1.255 . S
C128 O121 1.287 . S
C128 O122 1.255 . S
O129 Fe111 2.002 . S
O129 C125 1.295 . S
O130 Fe113 1.997 . S
O130 C125 1.235 . S
C131 O114 1.295 . S
C131 O115 1.235 . S
Fe132 O134 1.918 . S
Fe132 O137 1.997 . S
Fe132 O138 2.002 . S
Fe132 O143 1.976 . S
Fe132 O146 1.996 . S
Fe133 O134 1.918 . S
Fe133 O141 1.997 . S
Fe133 O144 1.996 . S
Fe133 O148 1.976 . S
Fe133 O151 2.002 . S
O134 Fe132 1.918 . S
O134 Fe133 1.918 . S
O134 Fe135 1.918 . S
Fe135 O134 1.918 . S
Fe135 O136 2.002 . S
Fe135 O145 1.976 . S
Fe135 O149 1.996 . S
Fe135 O152 1.997 . S
O136 Fe135 2.002 . S
O136 C153 1.295 . S
O137 Fe132 1.997 . S
O137 C153 1.235 . S
O138 Fe132 2.002 . S
O138 C139 1.295 . S
C139 O138 1.295 . S
C139 O141 1.235 . S
C140 O145 1.287 . S
C140 O146 1.255 . S
O141 Fe133 1.997 . S
O141 C139 1.235 . S
C142 O148 1.287 . S
C142 O149 1.255 . S
O143 Fe132 1.976 . S
O143 C150 1.287 . S
O144 Fe133 1.996 . S
O144 C150 1.255 . S
O145 Fe135 1.976 . S
O145 C140 1.287 . S
O146 Fe132 1.996 . S
O146 C140 1.255 . S
C147 O151 1.295 . S
C147 O152 1.235 . S
O148 Fe133 1.976 . S
O148 C142 1.287 . S
O149 Fe135 1.996 . S
O149 C142 1.255 . S
C150 O143 1.287 . S
C150 O144 1.255 . S
O151 Fe133 2.002 . S
O151 C147 1.295 . S
O152 Fe135 1.997 . S
O152 C147 1.235 . S
C153 O136 1.295 . S
C153 O137 1.235 . S
Fe154 O156 1.918 . S
Fe154 O159 1.997 . S
Fe154 O160 2.002 . S
Fe154 O165 1.976 . S
Fe154 O168 1.996 . S
Fe155 O156 1.918 . S
Fe155 O163 1.997 . S
Fe155 O166 1.996 . S
Fe155 O170 1.976 . S
Fe155 O173 2.002 . S
O156 Fe154 1.918 . S
O156 Fe155 1.918 . S
O156 Fe157 1.918 1_556 S
Fe157 O156 1.918 1_554 S
Fe157 O158 2.002 . S
Fe157 O167 1.976 . S
Fe157 O171 1.996 . S
Fe157 O174 1.997 . S
O158 Fe157 2.002 . S
O158 C175 1.295 1_554 S
O159 Fe154 1.997 . S
O159 C175 1.235 . S
O160 Fe154 2.002 . S
O160 C161 1.295 . S
C161 O160 1.295 . S
C161 O163 1.235 . S
C162 O167 1.287 . S
C162 O168 1.255 1_554 S
O163 Fe155 1.997 . S
O163 C161 1.235 . S
C164 O170 1.287 1_554 S
C164 O171 1.255 . S
O165 Fe154 1.976 . S
O165 C172 1.287 . S
O166 Fe155 1.996 . S
O166 C172 1.255 . S
O167 Fe157 1.976 . S
O167 C162 1.287 . S
O168 Fe154 1.996 . S
O168 C162 1.255 1_556 S
C169 O173 1.295 . S
C169 O174 1.235 1_556 S
O170 Fe155 1.976 . S
O170 C164 1.287 1_556 S
O171 Fe157 1.996 . S
O171 C164 1.255 . S
C172 O165 1.287 . S
C172 O166 1.255 . S
O173 Fe155 2.002 . S
O173 C169 1.295 . S
O174 Fe157 1.997 . S
O174 C169 1.235 1_554 S
C175 O158 1.295 1_556 S
C175 O159 1.235 . S
Fe176 O178 1.918 . S
Fe176 O181 1.997 . S
Fe176 O182 2.002 . S
Fe176 O187 1.976 . S
Fe176 O190 1.996 . S
Fe177 O178 1.918 . S
Fe177 O185 1.997 . S
Fe177 O188 1.996 . S
Fe177 O192 1.976 . S
Fe177 O195 2.002 . S
O178 Fe176 1.918 . S
O178 Fe177 1.918 . S
O178 Fe179 1.918 . S
Fe179 O178 1.918 . S
Fe179 O180 2.002 . S
Fe179 O189 1.976 . S
Fe179 O193 1.996 . S
Fe179 O196 1.997 . S
O180 Fe179 2.002 . S
O180 C197 1.295 . S
O181 Fe176 1.997 . S
O181 C197 1.235 . S
O182 Fe176 2.002 . S
O182 C183 1.295 . S
C183 O182 1.295 . S
C183 O185 1.235 . S
C184 O189 1.287 . S
C184 O190 1.255 . S
O185 Fe177 1.997 . S
O185 C183 1.235 . S
C186 O192 1.287 . S
C186 O193 1.255 . S
O187 Fe176 1.976 . S
O187 C194 1.287 . S
O188 Fe177 1.996 . S
O188 C194 1.255 . S
O189 Fe179 1.976 . S
O189 C184 1.287 . S
O190 Fe176 1.996 . S
O190 C184 1.255 . S
C191 O195 1.295 . S
C191 O196 1.235 . S
O192 Fe177 1.976 . S
O192 C186 1.287 . S
O193 Fe179 1.996 . S
O193 C186 1.255 . S
C194 O187 1.287 . S
C194 O188 1.255 . S
O195 Fe177 2.002 . S
O195 C191 1.295 . S
O196 Fe179 1.997 . S
O196 C191 1.235 . S
C197 O180 1.295 . S
C197 O181 1.235 . S
Fe198 O200 1.918 . S
Fe198 O203 1.997 . S
Fe198 O204 2.002 . S
Fe198 O209 1.976 . S
Fe198 O212 1.996 . S
Fe199 O200 1.918 . S
Fe199 O207 1.997 . S
Fe199 O210 1.996 . S
Fe199 O214 1.976 . S
Fe199 O217 2.002 . S
O200 Fe198 1.918 . S
O200 Fe199 1.918 . S
O200 Fe201 1.918 . S
Fe201 O200 1.918 . S
Fe201 O202 2.002 . S
Fe201 O211 1.976 . S
Fe201 O215 1.996 . S
Fe201 O218 1.997 . S
O202 Fe201 2.002 . S
O202 C219 1.295 . S
O203 Fe198 1.997 . S
O203 C219 1.235 . S
O204 Fe198 2.002 . S
O204 C205 1.295 . S
C205 O204 1.295 . S
C205 O207 1.235 . S
C206 O211 1.287 . S
C206 O212 1.255 . S
O207 Fe199 1.997 . S
O207 C205 1.235 . S
C208 O214 1.287 . S
C208 O215 1.255 . S
O209 Fe198 1.976 . S
O209 C216 1.287 . S
O210 Fe199 1.996 . S
O210 C216 1.255 . S
O211 Fe201 1.976 . S
O211 C206 1.287 . S
O212 Fe198 1.996 . S
O212 C206 1.255 . S
C213 O217 1.295 . S
C213 O218 1.235 . S
O214 Fe199 1.976 . S
O214 C208 1.287 . S
O215 Fe201 1.996 . S
O215 C208 1.255 . S
C216 O209 1.287 . S
C216 O210 1.255 . S
O217 Fe199 2.002 . S
O217 C213 1.295 . S
O218 Fe201 1.997 . S
O218 C213 1.235 . S
C219 O202 1.295 . S
C219 O203 1.235 . S
Fe220 O222 1.918 . S
Fe220 O225 1.997 . S
Fe220 O226 2.002 . S
Fe220 O231 1.976 . S
Fe220 O234 1.996 . S
Fe221 O222 1.918 . S
Fe221 O229 1.997 . S
Fe221 O232 1.996 . S
Fe221 O236 1.976 . S
Fe221 O239 2.002 . S
O222 Fe220 1.918 . S
O222 Fe221 1.918 . S
O222 Fe223 1.918 . S
Fe223 O222 1.918 . S
Fe223 O224 2.002 . S
Fe223 O233 1.976 . S
Fe223 O237 1.996 . S
Fe223 O240 1.997 . S
O224 Fe223 2.002 . S
O224 C241 1.295 . S
O225 Fe220 1.997 . S
O225 C241 1.235 . S
O226 Fe220 2.002 . S
O226 C227 1.295 . S
C227 O226 1.295 . S
C227 O229 1.235 . S
C228 O233 1.287 . S
C228 O234 1.255 . S
O229 Fe221 1.997 . S
O229 C227 1.235 . S
C230 O236 1.287 . S
C230 O237 1.255 . S
O231 Fe220 1.976 . S
O231 C238 1.287 . S
O232 Fe221 1.996 . S
O232 C238 1.255 . S
O233 Fe223 1.976 . S
O233 C228 1.287 . S
O234 Fe220 1.996 . S
O234 C228 1.255 . S
C235 O239 1.295 . S
C235 O240 1.235 . S
O236 Fe221 1.976 . S
O236 C230 1.287 . S
O237 Fe223 1.996 . S
O237 C230 1.255 . S
C238 O231 1.287 . S
C238 O232 1.255 . S
O239 Fe221 2.002 . S
O239 C235 1.295 . S
O240 Fe223 1.997 . S
O240 C235 1.235 . S
C241 O224 1.295 . S
C241 O225 1.235 . S
Fe242 O244 1.918 . S
Fe242 O247 1.997 . S
Fe242 O248 2.002 . S
Fe242 O253 1.976 . S
Fe242 O256 1.996 . S
Fe243 O244 1.918 . S
Fe243 O251 1.997 . S
Fe243 O254 1.996 . S
Fe243 O258 1.976 . S
Fe243 O261 2.002 . S
O244 Fe242 1.918 . S
O244 Fe243 1.918 . S
O244 Fe245 1.918 . S
Fe245 O244 1.918 . S
Fe245 O246 2.002 . S
Fe245 O255 1.976 . S
Fe245 O259 1.996 . S
Fe245 O262 1.997 . S
O246 Fe245 2.002 . S
O246 C263 1.295 . S
O247 Fe242 1.997 . S
O247 C263 1.235 . S
O248 Fe242 2.002 . S
O248 C249 1.295 . S
C249 O248 1.295 . S
C249 O251 1.235 . S
C250 O255 1.287 . S
C250 O256 1.255 . S
O251 Fe243 1.997 . S
O251 C249 1.235 . S
C252 O258 1.287 . S
C252 O259 1.255 . S
O253 Fe242 1.976 . S
O253 C260 1.287 . S
O254 Fe243 1.996 . S
O254 C260 1.255 . S
O255 Fe245 1.976 . S
O255 C250 1.287 . S
O256 Fe242 1.996 . S
O256 C250 1.255 . S
C257 O261 1.295 . S
C257 O262 1.235 . S
O258 Fe243 1.976 . S
O258 C252 1.287 . S
O259 Fe245 1.996 . S
O259 C252 1.255 . S
C260 O253 1.287 . S
C260 O254 1.255 . S
O261 Fe243 2.002 . S
O261 C257 1.295 . S
O262 Fe245 1.997 . S
O262 C257 1.235 . S
C263 O246 1.295 . S
C263 O247 1.235 . S
C264 C265 1.363 . S
C264 C270 1.379 . S
C264 N272 1.356 . S
C265 C264 1.363 . S
C265 C271 1.363 . S
C266 C267 1.363 . S
C266 C271 1.379 . S
C266 N273 1.356 . S
C267 C266 1.363 . S
C267 C270 1.363 . S
N268 C270 1.356 . S
N268 H280 0.984 . S
N268 H281 0.985 . S
N269 C271 1.356 . S
N269 H274 0.984 . S
N269 H275 0.985 . S
C270 C264 1.379 . S
C270 C267 1.363 . S
C270 N268 1.356 . S
C271 C265 1.363 . S
C271 C266 1.379 . S
C271 N269 1.356 . S
N272 C264 1.356 . S
N272 H278 0.984 . S
N272 H279 0.984 . S
N273 C266 1.356 . S
N273 H276 0.984 . S
N273 H277 0.985 . S
H274 N269 0.984 . S
H275 N269 0.985 . S
H276 N273 0.984 . S
H277 N273 0.985 . S
H278 N272 0.984 . S
H279 N272 0.984 . S
H280 N268 0.984 . S
H281 N268 0.985 . S
C282 C283 1.363 . S
C282 C288 1.379 . S
C282 N290 1.356 . S
C283 C282 1.363 . S
C283 C289 1.363 . S
C284 C285 1.363 . S
C284 C289 1.379 . S
C284 N291 1.356 . S
C285 C284 1.363 . S
C285 C288 1.363 . S
N286 C288 1.356 . S
N286 H298 0.984 . S
N286 H299 0.985 . S
N287 C289 1.356 . S
N287 H292 0.984 . S
N287 H293 0.985 . S
C288 C282 1.379 . S
C288 C285 1.363 . S
C288 N286 1.356 . S
C289 C283 1.363 . S
C289 C284 1.379 . S
C289 N287 1.356 . S
N290 C282 1.356 . S
N290 H296 0.984 . S
N290 H297 0.984 . S
N291 C284 1.356 . S
N291 H294 0.984 . S
N291 H295 0.985 . S
H292 N287 0.984 . S
H293 N287 0.985 . S
H294 N291 0.984 . S
H295 N291 0.985 . S
H296 N290 0.984 . S
H297 N290 0.984 . S
H298 N286 0.984 . S
H299 N286 0.985 . S
C300 C301 1.363 . S
C300 C306 1.379 . S
C300 N308 1.356 . S
C301 C300 1.363 . S
C301 C307 1.363 . S
C302 C303 1.363 . S
C302 C307 1.379 . S
C302 N309 1.356 . S
C303 C302 1.363 . S
C303 C306 1.363 . S
N304 C306 1.356 . S
N304 H316 0.984 . S
N304 H317 0.985 . S
N305 C307 1.356 . S
N305 H310 0.984 . S
N305 H311 0.985 . S
C306 C300 1.379 . S
C306 C303 1.363 . S
C306 N304 1.356 . S
C307 C301 1.363 . S
C307 C302 1.379 . S
C307 N305 1.356 . S
N308 C300 1.356 . S
N308 H314 0.984 . S
N308 H315 0.984 . S
N309 C302 1.356 . S
N309 H312 0.984 . S
N309 H313 0.985 . S
H310 N305 0.984 . S
H311 N305 0.985 . S
H312 N309 0.984 . S
H313 N309 0.985 . S
H314 N308 0.984 . S
H315 N308 0.984 . S
H316 N304 0.984 . S
H317 N304 0.985 . S
C318 C319 1.363 . S
C318 C324 1.379 . S
C318 N326 1.356 . S
C319 C318 1.363 . S
C319 C325 1.363 . S
C320 C321 1.363 . S
C320 C325 1.379 . S
C320 N327 1.356 . S
C321 C320 1.363 . S
C321 C324 1.363 . S
N322 C324 1.356 . S
N322 H334 0.984 . S
N322 H335 0.985 . S
N323 C325 1.356 . S
N323 H328 0.984 . S
N323 H329 0.985 . S
C324 C318 1.379 . S
C324 C321 1.363 . S
C324 N322 1.356 . S
C325 C319 1.363 . S
C325 C320 1.379 . S
C325 N323 1.356 . S
N326 C318 1.356 . S
N326 H332 0.984 . S
N326 H333 0.984 . S
N327 C320 1.356 . S
N327 H330 0.984 . S
N327 H331 0.985 . S
H328 N323 0.984 . S
H329 N323 0.985 . S
H330 N327 0.984 . S
H331 N327 0.985 . S
H332 N326 0.984 . S
H333 N326 0.984 . S
H334 N322 0.984 . S
H335 N322 0.985 . S
C336 C337 1.363 . S
C336 C342 1.379 . S
C336 N344 1.356 . S
C337 C336 1.363 . S
C337 C343 1.363 . S
C338 C339 1.363 . S
C338 C343 1.379 . S
C338 N345 1.356 . S
C339 C338 1.363 . S
C339 C342 1.363 . S
N340 C342 1.356 . S
N340 H352 0.984 . S
N340 H353 0.985 . S
N341 C343 1.356 . S
N341 H346 0.984 . S
N341 H347 0.985 . S
C342 C336 1.379 . S
C342 C339 1.363 . S
C342 N340 1.356 . S
C343 C337 1.363 . S
C343 C338 1.379 . S
C343 N341 1.356 . S
N344 C336 1.356 . S
N344 H350 0.984 . S
N344 H351 0.984 . S
N345 C338 1.356 . S
N345 H348 0.984 . S
N345 H349 0.985 . S
H346 N341 0.984 . S
H347 N341 0.985 . S
H348 N345 0.984 . S
H349 N345 0.985 . S
H350 N344 0.984 . S
H351 N344 0.984 . S
H352 N340 0.984 . S
H353 N340 0.985 . S
C354 C355 1.363 . S
C354 C360 1.379 . S
C354 N362 1.356 . S
C355 C354 1.363 . S
C355 C361 1.363 . S
C356 C357 1.363 . S
C356 C361 1.379 . S
C356 N363 1.356 . S
C357 C356 1.363 . S
C357 C360 1.363 . S
N358 C360 1.356 . S
N358 H370 0.984 . S
N358 H371 0.985 . S
N359 C361 1.356 . S
N359 H364 0.984 . S
N359 H365 0.985 . S
C360 C354 1.379 . S
C360 C357 1.363 . S
C360 N358 1.356 . S
C361 C355 1.363 . S
C361 C356 1.379 . S
C361 N359 1.356 . S
N362 C354 1.356 . S
N362 H368 0.984 . S
N362 H369 0.984 . S
N363 C356 1.356 . S
N363 H366 0.984 . S
N363 H367 0.985 . S
H364 N359 0.984 . S
H365 N359 0.985 . S
H366 N363 0.984 . S
H367 N363 0.985 . S
H368 N362 0.984 . S
H369 N362 0.984 . S
H370 N358 0.984 . S
H371 N358 0.985 . S
C372 C373 1.363 . S
C372 C378 1.379 . S
C372 N380 1.356 . S
C373 C372 1.363 . S
C373 C379 1.363 . S
C374 C375 1.363 . S
C374 C379 1.379 . S
C374 N381 1.356 . S
C375 C374 1.363 . S
C375 C378 1.363 . S
N376 C378 1.356 . S
N376 H388 0.984 . S
N376 H389 0.985 . S
N377 C379 1.356 . S
N377 H382 0.984 . S
N377 H383 0.985 . S
C378 C372 1.379 . S
C378 C375 1.363 . S
C378 N376 1.356 . S
C379 C373 1.363 . S
C379 C374 1.379 . S
C379 N377 1.356 . S
N380 C372 1.356 . S
N380 H386 0.984 . S
N380 H387 0.984 . S
N381 C374 1.356 . S
N381 H384 0.984 . S
N381 H385 0.985 . S
H382 N377 0.984 . S
H383 N377 0.985 . S
H384 N381 0.984 . S
H385 N381 0.985 . S
H386 N380 0.984 . S
H387 N380 0.984 . S
H388 N376 0.984 . S
H389 N376 0.985 . S
C390 C391 1.363 . S
C390 C396 1.379 . S
C390 N398 1.356 . S
C391 C390 1.363 . S
C391 C397 1.363 1_655 S
C392 C393 1.363 . S
C392 C397 1.379 . S
C392 N399 1.356 . S
C393 C392 1.363 . S
C393 C396 1.363 1_455 S
N394 C396 1.356 . S
N394 H406 0.984 . S
N394 H407 0.985 1_655 S
N395 C397 1.356 . S
N395 H400 0.984 1_455 S
N395 H401 0.985 . S
C396 C390 1.379 . S
C396 C393 1.363 1_655 S
C396 N394 1.356 . S
C397 C391 1.363 1_455 S
C397 C392 1.379 . S
C397 N395 1.356 . S
N398 C390 1.356 . S
N398 H404 0.984 . S
N398 H405 0.984 . S
N399 C392 1.356 . S
N399 H402 0.984 . S
N399 H403 0.985 . S
H400 N395 0.984 1_655 S
H401 N395 0.985 . S
H402 N399 0.984 . S
H403 N399 0.985 . S
H404 N398 0.984 . S
H405 N398 0.984 . S
H406 N394 0.984 . S
H407 N394 0.985 1_455 S
C408 C409 1.363 1_565 S
C408 C414 1.379 . S
C408 N416 1.356 . S
C409 C408 1.363 1_545 S
C409 C415 1.363 . S
C410 C411 1.363 1_545 S
C410 C415 1.379 . S
C410 N417 1.356 . S
C411 C410 1.363 1_565 S
C411 C414 1.363 . S
N412 C414 1.356 . S
N412 H424 0.984 . S
N412 H425 0.985 . S
N413 C415 1.356 . S
N413 H418 0.984 . S
N413 H419 0.985 . S
C414 C408 1.379 . S
C414 C411 1.363 . S
C414 N412 1.356 . S
C415 C409 1.363 . S
C415 C410 1.379 . S
C415 N413 1.356 . S
N416 C408 1.356 . S
N416 H422 0.984 . S
N416 H423 0.984 1_565 S
N417 C410 1.356 . S
N417 H420 0.984 1_545 S
N417 H421 0.985 . S
H418 N413 0.984 . S
H419 N413 0.985 . S
H420 N417 0.984 1_565 S
H421 N417 0.985 . S
H422 N416 0.984 . S
H423 N416 0.984 1_545 S
H424 N412 0.984 . S
H425 N412 0.985 . S
C426 C427 1.363 . S
C426 C432 1.379 . S
C426 N434 1.356 . S
C427 C426 1.363 . S
C427 C433 1.363 . S
C428 C429 1.363 . S
C428 C433 1.379 . S
C428 N435 1.356 . S
C429 C428 1.363 . S
C429 C432 1.363 . S
N430 C432 1.356 . S
N430 H442 0.984 . S
N430 H443 0.985 . S
N431 C433 1.356 . S
N431 H436 0.984 . S
N431 H437 0.985 . S
C432 C426 1.379 . S
C432 C429 1.363 . S
C432 N430 1.356 . S
C433 C427 1.363 . S
C433 C428 1.379 . S
C433 N431 1.356 . S
N434 C426 1.356 . S
N434 H440 0.984 . S
N434 H441 0.984 . S
N435 C428 1.356 . S
N435 H438 0.984 . S
N435 H439 0.985 . S
H436 N431 0.984 . S
H437 N431 0.985 . S
H438 N435 0.984 . S
H439 N435 0.985 . S
H440 N434 0.984 . S
H441 N434 0.984 . S
H442 N430 0.984 . S
H443 N430 0.985 . S
C444 C445 1.363 . S
C444 C450 1.379 . S
C444 N452 1.356 . S
C445 C444 1.363 . S
C445 C451 1.363 1_455 S
C446 C447 1.363 . S
C446 C451 1.379 . S
C446 N453 1.356 . S
C447 C446 1.363 . S
C447 C450 1.363 1_655 S
N448 C450 1.356 . S
N448 H460 0.984 . S
N448 H461 0.985 1_455 S
N449 C451 1.356 . S
N449 H454 0.984 1_655 S
N449 H455 0.985 . S
C450 C444 1.379 . S
C450 C447 1.363 1_455 S
C450 N448 1.356 . S
C451 C445 1.363 1_655 S
C451 C446 1.379 . S
C451 N449 1.356 . S
N452 C444 1.356 . S
N452 H458 0.984 . S
N452 H459 0.984 . S
N453 C446 1.356 . S
N453 H456 0.984 . S
N453 H457 0.985 . S
H454 N449 0.984 1_455 S
H455 N449 0.985 . S
H456 N453 0.984 . S
H457 N453 0.985 . S
H458 N452 0.984 . S
H459 N452 0.984 . S
H460 N448 0.984 . S
H461 N448 0.985 1_655 S
C462 C463 1.363 . S
C462 C468 1.379 1_546 S
C462 N470 1.356 . S
C463 C462 1.363 . S
C463 C469 1.363 . S
C464 C465 1.363 . S
C464 C469 1.379 1_564 S
C464 N471 1.356 . S
C465 C464 1.363 . S
C465 C468 1.363 . S
N466 C468 1.356 . S
N466 H478 0.984 . S
N466 H479 0.985 . S
N467 C469 1.356 . S
N467 H472 0.984 . S
N467 H473 0.985 . S
C468 C462 1.379 1_564 S
C468 C465 1.363 . S
C468 N466 1.356 . S
C469 C463 1.363 . S
C469 C464 1.379 1_546 S
C469 N467 1.356 . S
N470 C462 1.356 . S
N470 H476 0.984 . S
N470 H477 0.984 . S
N471 C464 1.356 . S
N471 H474 0.984 . S
N471 H475 0.985 . S
H472 N467 0.984 . S
H473 N467 0.985 . S
H474 N471 0.984 . S
H475 N471 0.985 . S
H476 N470 0.984 . S
H477 N470 0.984 . S
H478 N466 0.984 . S
H479 N466 0.985 . S
C480 C481 1.363 . S
C480 C486 1.379 . S
C480 N488 1.356 . S
C481 C480 1.363 . S
C481 C487 1.363 . S
C482 C483 1.363 . S
C482 C487 1.379 . S
C482 N489 1.356 . S
C483 C482 1.363 . S
C483 C486 1.363 . S
N484 C486 1.356 . S
N484 H496 0.984 1_556 S
N484 H497 0.985 . S
N485 C487 1.356 . S
N485 H490 0.984 . S
N485 H491 0.985 . S
C486 C480 1.379 . S
C486 C483 1.363 . S
C486 N484 1.356 . S
C487 C481 1.363 . S
C487 C482 1.379 . S
C487 N485 1.356 . S
N488 C480 1.356 . S
N488 H494 0.984 . S
N488 H495 0.984 . S
N489 C482 1.356 . S
N489 H492 0.984 . S
N489 H493 0.985 . S
H490 N485 0.984 . S
H491 N485 0.985 . S
H492 N489 0.984 . S
H493 N489 0.985 . S
H494 N488 0.984 . S
H495 N488 0.984 . S
H496 N484 0.984 1_554 S
H497 N484 0.985 . S
C498 C499 1.363 . S
C498 C504 1.379 . S
C498 N506 1.356 1_554 S
C499 C498 1.363 . S
C499 C505 1.363 . S
C500 C501 1.363 . S
C500 C505 1.379 . S
C500 N507 1.356 . S
C501 C500 1.363 . S
C501 C504 1.363 . S
N502 C504 1.356 . S
N502 H514 0.984 . S
N502 H515 0.985 . S
N503 C505 1.356 . S
N503 H508 0.984 . S
N503 H509 0.985 . S
C504 C498 1.379 . S
C504 C501 1.363 . S
C504 N502 1.356 . S
C505 C499 1.363 . S
C505 C500 1.379 . S
C505 N503 1.356 . S
N506 C498 1.356 1_556 S
N506 H512 0.984 . S
N506 H513 0.984 . S
N507 C500 1.356 . S
N507 H510 0.984 . S
N507 H511 0.985 . S
H508 N503 0.984 . S
H509 N503 0.985 . S
H510 N507 0.984 . S
H511 N507 0.985 . S
H512 N506 0.984 . S
H513 N506 0.984 . S
H514 N502 0.984 . S
H515 N502 0.985 . S
C516 C517 1.363 . S
C516 C522 1.379 . S
C516 N524 1.356 . S
C517 C516 1.363 . S
C517 C523 1.363 . S
C518 C519 1.363 . S
C518 C523 1.379 . S
C518 N525 1.356 . S
C519 C518 1.363 . S
C519 C522 1.363 . S
N520 C522 1.356 . S
N520 H532 0.984 . S
N520 H533 0.985 . S
N521 C523 1.356 . S
N521 H526 0.984 . S
N521 H527 0.985 . S
C522 C516 1.379 . S
C522 C519 1.363 . S
C522 N520 1.356 . S
C523 C517 1.363 . S
C523 C518 1.379 . S
C523 N521 1.356 . S
N524 C516 1.356 . S
N524 H530 0.984 . S
N524 H531 0.984 . S
N525 C518 1.356 . S
N525 H528 0.984 . S
N525 H529 0.985 . S
H526 N521 0.984 . S
H527 N521 0.985 . S
H528 N525 0.984 . S
H529 N525 0.985 . S
H530 N524 0.984 . S
H531 N524 0.984 . S
H532 N520 0.984 . S
H533 N520 0.985 . S
C534 C535 1.363 . S
C534 C540 1.379 . S
C534 N542 1.356 . S
C535 C534 1.363 . S
C535 C541 1.363 . S
C536 C537 1.363 . S
C536 C541 1.379 . S
C536 N543 1.356 . S
C537 C536 1.363 . S
C537 C540 1.363 . S
N538 C540 1.356 . S
N538 H550 0.984 . S
N538 H551 0.985 . S
N539 C541 1.356 . S
N539 H544 0.984 . S
N539 H545 0.985 . S
C540 C534 1.379 . S
C540 C537 1.363 . S
C540 N538 1.356 . S
C541 C535 1.363 . S
C541 C536 1.379 . S
C541 N539 1.356 . S
N542 C534 1.356 . S
N542 H548 0.984 . S
N542 H549 0.984 . S
N543 C536 1.356 . S
N543 H546 0.984 . S
N543 H547 0.985 . S
H544 N539 0.984 . S
H545 N539 0.985 . S
H546 N543 0.984 . S
H547 N543 0.985 . S
H548 N542 0.984 . S
H549 N542 0.984 . S
H550 N538 0.984 . S
H551 N538 0.985 . S
C552 C553 1.363 . S
C552 C558 1.379 . S
C552 N560 1.356 . S
C553 C552 1.363 . S
C553 C559 1.363 . S
C554 C555 1.363 . S
C554 C559 1.379 . S
C554 N561 1.356 . S
C555 C554 1.363 . S
C555 C558 1.363 . S
N556 C558 1.356 . S
N556 H568 0.984 . S
N556 H569 0.985 . S
N557 C559 1.356 . S
N557 H562 0.984 . S
N557 H563 0.985 . S
C558 C552 1.379 . S
C558 C555 1.363 . S
C558 N556 1.356 . S
C559 C553 1.363 . S
C559 C554 1.379 . S
C559 N557 1.356 . S
N560 C552 1.356 . S
N560 H566 0.984 . S
N560 H567 0.984 . S
N561 C554 1.356 . S
N561 H564 0.984 . S
N561 H565 0.985 . S
H562 N557 0.984 . S
H563 N557 0.985 . S
H564 N561 0.984 . S
H565 N561 0.985 . S
H566 N560 0.984 . S
H567 N560 0.984 . S
H568 N556 0.984 . S
H569 N556 0.985 . S
C570 C571 1.363 . S
C570 C576 1.379 . S
C570 N578 1.356 . S
C571 C570 1.363 . S
C571 C577 1.363 . S
C572 C573 1.363 . S
C572 C577 1.379 . S
C572 N579 1.356 . S
C573 C572 1.363 . S
C573 C576 1.363 . S
N574 C576 1.356 . S
N574 H586 0.984 . S
N574 H587 0.985 . S
N575 C577 1.356 . S
N575 H580 0.984 . S
N575 H581 0.985 . S
C576 C570 1.379 . S
C576 C573 1.363 . S
C576 N574 1.356 . S
C577 C571 1.363 . S
C577 C572 1.379 . S
C577 N575 1.356 . S
N578 C570 1.356 . S
N578 H584 0.984 . S
N578 H585 0.984 . S
N579 C572 1.356 . S
N579 H582 0.984 . S
N579 H583 0.985 . S
H580 N575 0.984 . S
H581 N575 0.985 . S
H582 N579 0.984 . S
H583 N579 0.985 . S
H584 N578 0.984 . S
H585 N578 0.984 . S
H586 N574 0.984 . S
H587 N574 0.985 . S
C588 C589 1.363 . S
C588 C594 1.379 . S
C588 N596 1.356 . S
C589 C588 1.363 . S
C589 C595 1.363 . S
C590 C591 1.363 . S
C590 C595 1.379 . S
C590 N597 1.356 . S
C591 C590 1.363 . S
C591 C594 1.363 . S
N592 C594 1.356 . S
N592 H604 0.984 . S
N592 H605 0.985 . S
N593 C595 1.356 . S
N593 H598 0.984 . S
N593 H599 0.985 . S
C594 C588 1.379 . S
C594 C591 1.363 . S
C594 N592 1.356 . S
C595 C589 1.363 . S
C595 C590 1.379 . S
C595 N593 1.356 . S
N596 C588 1.356 . S
N596 H602 0.984 1_556 S
N596 H603 0.984 . S
N597 C590 1.356 . S
N597 H600 0.984 . S
N597 H601 0.985 . S
H598 N593 0.984 . S
H599 N593 0.985 . S
H600 N597 0.984 . S
H601 N597 0.985 . S
H602 N596 0.984 1_554 S
H603 N596 0.984 . S
H604 N592 0.984 . S
H605 N592 0.985 . S
C606 C607 1.363 . S
C606 C612 1.379 1_655 S
C606 N614 1.356 . S
C607 C606 1.363 . S
C607 C613 1.363 . S
C608 C609 1.363 . S
C608 C613 1.379 1_455 S
C608 N615 1.356 . S
C609 C608 1.363 . S
C609 C612 1.363 . S
N610 C612 1.356 . S
N610 H622 0.984 . S
N610 H623 0.985 . S
N611 C613 1.356 . S
N611 H616 0.984 . S
N611 H617 0.985 . S
C612 C606 1.379 1_455 S
C612 C609 1.363 . S
C612 N610 1.356 . S
C613 C607 1.363 . S
C613 C608 1.379 1_655 S
C613 N611 1.356 . S
N614 C606 1.356 . S
N614 H620 0.984 . S
N614 H621 0.984 . S
N615 C608 1.356 . S
N615 H618 0.984 . S
N615 H619 0.985 . S
H616 N611 0.984 . S
H617 N611 0.985 . S
H618 N615 0.984 . S
H619 N615 0.985 . S
H620 N614 0.984 . S
H621 N614 0.984 . S
H622 N610 0.984 . S
H623 N610 0.985 . S
C624 C625 1.363 . S
C624 C630 1.379 1_565 S
C624 N632 1.356 . S
C625 C624 1.363 . S
C625 C631 1.363 . S
C626 C627 1.363 1_565 S
C626 C631 1.379 . S
C626 N633 1.356 1_565 S
C627 C626 1.363 1_545 S
C627 C630 1.363 . S
N628 C630 1.356 . S
N628 H640 0.984 . S
N628 H641 0.985 . S
N629 C631 1.356 . S
N629 H634 0.984 . S
N629 H635 0.985 . S
C630 C624 1.379 1_545 S
C630 C627 1.363 . S
C630 N628 1.356 . S
C631 C625 1.363 . S
C631 C626 1.379 . S
C631 N629 1.356 . S
N632 C624 1.356 . S
N632 H638 0.984 . S
N632 H639 0.984 . S
N633 C626 1.356 1_545 S
N633 H636 0.984 . S
N633 H637 0.985 1_545 S
H634 N629 0.984 . S
H635 N629 0.985 . S
H636 N633 0.984 . S
H637 N633 0.985 1_565 S
H638 N632 0.984 . S
H639 N632 0.984 . S
H640 N628 0.984 . S
H641 N628 0.985 . S
C642 C643 1.363 . S
C642 C648 1.379 . S
C642 N650 1.356 . S
C643 C642 1.363 . S
C643 C649 1.363 . S
C644 C645 1.363 . S
C644 C649 1.379 . S
C644 N651 1.356 . S
C645 C644 1.363 . S
C645 C648 1.363 . S
N646 C648 1.356 . S
N646 H658 0.984 . S
N646 H659 0.985 . S
N647 C649 1.356 . S
N647 H652 0.984 . S
N647 H653 0.985 . S
C648 C642 1.379 . S
C648 C645 1.363 . S
C648 N646 1.356 . S
C649 C643 1.363 . S
C649 C644 1.379 . S
C649 N647 1.356 . S
N650 C642 1.356 . S
N650 H656 0.984 . S
N650 H657 0.984 . S
N651 C644 1.356 . S
N651 H654 0.984 . S
N651 H655 0.985 . S
H652 N647 0.984 . S
H653 N647 0.985 . S
H654 N651 0.984 . S
H655 N651 0.985 . S
H656 N650 0.984 . S
H657 N650 0.984 . S
H658 N646 0.984 . S
H659 N646 0.985 . S
C660 C661 1.363 . S
C660 C666 1.379 1_455 S
C660 N668 1.356 . S
C661 C660 1.363 . S
C661 C667 1.363 . S
C662 C663 1.352 1_455 S
C662 C667 1.393 . S
C662 N669 1.349 1_455 S
C663 C662 1.352 1_655 S
C663 C666 1.363 . S
N664 C666 1.356 . S
N664 H676 0.984 . S
N664 H677 0.985 . S
N665 C667 1.356 . S
N665 H670 0.984 . S
N665 H671 0.985 . S
C666 C660 1.379 1_655 S
C666 C663 1.363 . S
C666 N664 1.356 . S
C667 C661 1.363 . S
C667 C662 1.393 . S
C667 N665 1.356 . S
N668 C660 1.356 . S
N668 H674 0.984 . S
N668 H675 0.984 . S
N669 C662 1.349 1_655 S
N669 H672 0.984 . S
N669 H673 0.980 1_655 S
H670 N665 0.984 . S
H671 N665 0.985 . S
H672 N669 0.984 . S
H673 N669 0.980 1_455 S
H674 N668 0.984 . S
H675 N668 0.984 . S
H676 N664 0.984 . S
H677 N664 0.985 . S
C678 C679 1.363 . S
C678 C684 1.379 . S
C678 N686 1.356 . S
C679 C678 1.363 . S
C679 C685 1.363 . S
C680 C681 1.363 . S
C680 C685 1.379 1_565 S
C680 N687 1.356 . S
C681 C680 1.363 . S
C681 C684 1.363 1_565 S
N682 C684 1.356 1_565 S
N682 H694 0.984 1_565 S
N682 H695 0.985 . S
N683 C685 1.356 . S
N683 H688 0.984 . S
N683 H689 0.985 . S
C684 C678 1.379 . S
C684 C681 1.363 1_545 S
C684 N682 1.356 1_545 S
C685 C679 1.363 . S
C685 C680 1.379 1_545 S
C685 N683 1.356 . S
N686 C678 1.356 . S
N686 H692 0.984 . S
N686 H693 0.984 . S
N687 C680 1.356 . S
N687 H690 0.984 . S
N687 H691 0.985 . S
H688 N683 0.984 . S
H689 N683 0.985 . S
H690 N687 0.984 . S
H691 N687 0.985 . S
H692 N686 0.984 . S
H693 N686 0.984 . S
H694 N682 0.984 1_545 S
H695 N682 0.985 . S
C696 C697 1.363 . S
C696 C702 1.379 . S
C696 N704 1.356 . S
C697 C696 1.363 . S
C697 C703 1.363 . S
C698 C699 1.363 . S
C698 C703 1.379 . S
C698 N705 1.356 . S
C699 C698 1.363 . S
C699 C702 1.363 . S
N700 C702 1.356 . S
N700 H712 0.984 . S
N700 H713 0.985 . S
N701 C703 1.356 1_554 S
N701 H706 0.984 . S
N701 H707 0.985 . S
C702 C696 1.379 . S
C702 C699 1.363 . S
C702 N700 1.356 . S
C703 C697 1.363 . S
C703 C698 1.379 . S
C703 N701 1.356 1_556 S
N704 C696 1.356 . S
N704 H710 0.984 . S
N704 H711 0.984 . S
N705 C698 1.356 . S
N705 H708 0.984 . S
N705 H709 0.985 1_556 S
H706 N701 0.984 . S
H707 N701 0.985 . S
H708 N705 0.984 . S
H709 N705 0.985 1_554 S
H710 N704 0.984 . S
H711 N704 0.984 . S
H712 N700 0.984 . S
H713 N700 0.985 . S
C714 C715 1.363 . S
C714 C720 1.379 1_455 S
C714 N722 1.356 . S
C715 C714 1.363 . S
C715 C721 1.363 . S
C716 C717 1.363 . S
C716 C721 1.379 1_655 S
C716 N723 1.356 . S
C717 C716 1.363 . S
C717 C720 1.363 . S
N718 C720 1.356 . S
N718 H730 0.984 . S
N718 H731 0.985 . S
N719 C721 1.356 . S
N719 H724 0.984 . S
N719 H725 0.985 . S
C720 C714 1.379 1_655 S
C720 C717 1.363 . S
C720 N718 1.356 . S
C721 C715 1.363 . S
C721 C716 1.379 1_455 S
C721 N719 1.356 . S
N722 C714 1.356 . S
N722 H728 0.984 . S
N722 H729 0.984 . S
N723 C716 1.356 . S
N723 H726 0.984 . S
N723 H727 0.985 . S
H724 N719 0.984 . S
H725 N719 0.985 . S
H726 N723 0.984 . S
H727 N723 0.985 . S
H728 N722 0.984 . S
H729 N722 0.984 . S
H730 N718 0.984 . S
H731 N718 0.985 . S
C732 C733 1.363 1_565 S
C732 C738 1.379 . S
C732 N740 1.356 1_565 S
C733 C732 1.363 1_545 S
C733 C739 1.363 . S
C734 C735 1.363 . S
C734 C739 1.379 1_565 S
C734 N741 1.356 . S
C735 C734 1.363 . S
C735 C738 1.363 . S
N736 C738 1.356 . S
N736 H748 0.984 . S
N736 H749 0.985 . S
N737 C739 1.356 . S
N737 H742 0.984 . S
N737 H743 0.985 . S
C738 C732 1.379 . S
C738 C735 1.363 . S
C738 N736 1.356 . S
C739 C733 1.363 . S
C739 C734 1.379 1_545 S
C739 N737 1.356 . S
N740 C732 1.356 1_545 S
N740 H746 0.984 1_545 S
N740 H747 0.984 . S
N741 C734 1.356 . S
N741 H744 0.984 . S
N741 H745 0.985 . S
H742 N737 0.984 . S
H743 N737 0.985 . S
H744 N741 0.984 . S
H745 N741 0.985 . S
H746 N740 0.984 1_565 S
H747 N740 0.984 . S
H748 N736 0.984 . S
H749 N736 0.985 . S
C750 C751 1.363 . S
C750 C756 1.379 . S
C750 N758 1.356 . S
C751 C750 1.363 . S
C751 C757 1.363 . S
C752 C753 1.363 . S
C752 C757 1.379 . S
C752 N759 1.356 . S
C753 C752 1.363 . S
C753 C756 1.363 . S
N754 C756 1.356 . S
N754 H766 0.984 . S
N754 H767 0.985 . S
N755 C757 1.356 . S
N755 H760 0.984 . S
N755 H761 0.985 . S
C756 C750 1.379 . S
C756 C753 1.363 . S
C756 N754 1.356 . S
C757 C751 1.363 . S
C757 C752 1.379 . S
C757 N755 1.356 . S
N758 C750 1.356 . S
N758 H764 0.984 . S
N758 H765 0.984 . S
N759 C752 1.356 . S
N759 H762 0.984 . S
N759 H763 0.985 . S
H760 N755 0.984 . S
H761 N755 0.985 . S
H762 N759 0.984 . S
H763 N759 0.985 . S
H764 N758 0.984 . S
H765 N758 0.984 . S
H766 N754 0.984 . S
H767 N754 0.985 . S
C768 C769 1.363 . S
C768 C774 1.379 . S
C768 N776 1.356 . S
C769 C768 1.363 . S
C769 C775 1.363 . S
C770 C771 1.363 . S
C770 C775 1.379 1_655 S
C770 N777 1.356 . S
C771 C770 1.363 . S
C771 C774 1.363 1_655 S
N772 C774 1.356 1_655 S
N772 H784 0.984 1_655 S
N772 H785 0.985 . S
N773 C775 1.356 . S
N773 H778 0.984 . S
N773 H779 0.985 . S
C774 C768 1.379 . S
C774 C771 1.363 1_455 S
C774 N772 1.356 1_455 S
C775 C769 1.363 . S
C775 C770 1.379 1_455 S
C775 N773 1.356 . S
N776 C768 1.356 . S
N776 H782 0.984 . S
N776 H783 0.984 . S
N777 C770 1.356 . S
N777 H780 0.984 . S
N777 H781 0.985 . S
H778 N773 0.984 . S
H779 N773 0.985 . S
H780 N777 0.984 . S
H781 N777 0.985 . S
H782 N776 0.984 . S
H783 N776 0.984 . S
H784 N772 0.984 1_455 S
H785 N772 0.985 . S
C786 C787 1.363 . S
C786 C792 1.379 1_545 S
C786 N794 1.356 . S
C787 C786 1.363 . S
C787 C793 1.363 . S
C788 C789 1.363 . S
C788 C793 1.379 1_565 S
C788 N795 1.356 . S
C789 C788 1.363 . S
C789 C792 1.363 . S
N790 C792 1.356 . S
N790 H802 0.984 . S
N790 H803 0.985 . S
N791 C793 1.356 . S
N791 H796 0.984 . S
N791 H797 0.985 . S
C792 C786 1.379 1_565 S
C792 C789 1.363 . S
C792 N790 1.356 . S
C793 C787 1.363 . S
C793 C788 1.379 1_545 S
C793 N791 1.356 . S
N794 C786 1.356 . S
N794 H800 0.984 . S
N794 H801 0.984 . S
N795 C788 1.356 . S
N795 H798 0.984 . S
N795 H799 0.985 . S
H796 N791 0.984 . S
H797 N791 0.985 . S
H798 N795 0.984 . S
H799 N795 0.985 . S
H800 N794 0.984 . S
H801 N794 0.984 . S
H802 N790 0.984 . S
H803 N790 0.985 . S
C804 C805 1.363 . S
C804 C810 1.379 . S
C804 N812 1.356 . S
C805 C804 1.363 . S
C805 C811 1.363 . S
C806 C807 1.363 . S
C806 C811 1.379 . S
C806 N813 1.356 . S
C807 C806 1.363 . S
C807 C810 1.363 . S
N808 C810 1.356 . S
N808 H820 0.984 . S
N808 H821 0.985 . S
N809 C811 1.356 . S
N809 H814 0.984 . S
N809 H815 0.985 . S
C810 C804 1.379 . S
C810 C807 1.363 . S
C810 N808 1.356 . S
C811 C805 1.363 . S
C811 C806 1.379 . S
C811 N809 1.356 . S
N812 C804 1.356 . S
N812 H818 0.984 . S
N812 H819 0.984 . S
N813 C806 1.356 . S
N813 H816 0.984 . S
N813 H817 0.985 . S
H814 N809 0.984 . S
H815 N809 0.985 . S
H816 N813 0.984 . S
H817 N813 0.985 . S
H818 N812 0.984 . S
H819 N812 0.984 . S
H820 N808 0.984 . S
H821 N808 0.985 . S
C822 C823 1.363 . S
C822 C828 1.379 . S
C822 N830 1.356 . S
C823 C822 1.363 . S
C823 C829 1.363 . S
C824 C825 1.363 . S
C824 C829 1.379 . S
C824 N831 1.356 . S
C825 C824 1.363 . S
C825 C828 1.363 . S
N826 C828 1.356 . S
N826 H838 0.984 . S
N826 H839 0.985 . S
N827 C829 1.356 . S
N827 H832 0.984 . S
N827 H833 0.985 . S
C828 C822 1.379 . S
C828 C825 1.363 . S
C828 N826 1.356 . S
C829 C823 1.363 . S
C829 C824 1.379 . S
C829 N827 1.356 . S
N830 C822 1.356 . S
N830 H836 0.984 . S
N830 H837 0.984 . S
N831 C824 1.356 . S
N831 H834 0.984 . S
N831 H835 0.985 . S
H832 N827 0.984 . S
H833 N827 0.985 . S
H834 N831 0.984 . S
H835 N831 0.985 . S
H836 N830 0.984 . S
H837 N830 0.984 . S
H838 N826 0.984 . S
H839 N826 0.985 . S
C840 C841 1.363 . S
C840 C846 1.379 . S
C840 N848 1.356 . S
C841 C840 1.363 . S
C841 C847 1.363 . S
C842 C843 1.363 . S
C842 C847 1.379 . S
C842 N849 1.356 . S
C843 C842 1.363 . S
C843 C846 1.363 . S
N844 C846 1.356 . S
N844 H856 0.984 . S
N844 H857 0.985 . S
N845 C847 1.356 . S
N845 H850 0.984 . S
N845 H851 0.985 . S
C846 C840 1.379 . S
C846 C843 1.363 . S
C846 N844 1.356 . S
C847 C841 1.363 . S
C847 C842 1.379 . S
C847 N845 1.356 . S
N848 C840 1.356 . S
N848 H854 0.984 . S
N848 H855 0.984 . S
N849 C842 1.356 . S
N849 H852 0.984 . S
N849 H853 0.985 . S
H850 N845 0.984 . S
H851 N845 0.985 . S
H852 N849 0.984 . S
H853 N849 0.985 . S
H854 N848 0.984 . S
H855 N848 0.984 . S
H856 N844 0.984 . S
H857 N844 0.985 . S
C858 C859 1.363 . S
C858 C864 1.379 . S
C858 N866 1.356 . S
C859 C858 1.363 . S
C859 C865 1.363 . S
C860 C861 1.363 . S
C860 C865 1.379 . S
C860 N867 1.356 . S
C861 C860 1.363 . S
C861 C864 1.363 . S
N862 C864 1.356 . S
N862 H874 0.984 . S
N862 H875 0.985 . S
N863 C865 1.356 . S
N863 H868 0.984 . S
N863 H869 0.985 . S
C864 C858 1.379 . S
C864 C861 1.363 . S
C864 N862 1.356 . S
C865 C859 1.363 . S
C865 C860 1.379 . S
C865 N863 1.356 . S
N866 C858 1.356 . S
N866 H872 0.984 . S
N866 H873 0.984 . S
N867 C860 1.356 . S
N867 H870 0.984 . S
N867 H871 0.985 . S
H868 N863 0.984 . S
H869 N863 0.985 . S
H870 N867 0.984 . S
H871 N867 0.985 . S
H872 N866 0.984 . S
H873 N866 0.984 . S
H874 N862 0.984 . S
H875 N862 0.985 . S
C876 C877 1.363 . S
C876 C882 1.379 . S
C876 N884 1.356 . S
C877 C876 1.363 . S
C877 C883 1.363 . S
C878 C879 1.363 . S
C878 C883 1.379 . S
C878 N885 1.356 . S
C879 C878 1.363 . S
C879 C882 1.363 . S
N880 C882 1.356 . S
N880 H892 0.984 . S
N880 H893 0.985 1_556 S
N881 C883 1.356 . S
N881 H886 0.984 . S
N881 H887 0.985 . S
C882 C876 1.379 . S
C882 C879 1.363 . S
C882 N880 1.356 . S
C883 C877 1.363 . S
C883 C878 1.379 . S
C883 N881 1.356 . S
N884 C876 1.356 . S
N884 H890 0.984 . S
N884 H891 0.984 . S
N885 C878 1.356 . S
N885 H888 0.984 1_556 S
N885 H889 0.985 . S
H886 N881 0.984 . S
H887 N881 0.985 . S
H888 N885 0.984 1_554 S
H889 N885 0.985 . S
H890 N884 0.984 . S
H891 N884 0.984 . S
H892 N880 0.984 . S
H893 N880 0.985 1_554 S
C894 C895 1.363 . S
C894 C900 1.379 . S
C894 N902 1.356 . S
C895 C894 1.363 . S
C895 C901 1.363 . S
C896 C897 1.363 . S
C896 C901 1.379 . S
C896 N903 1.356 . S
C897 C896 1.363 . S
C897 C900 1.363 . S
N898 C900 1.356 . S
N898 H910 0.984 . S
N898 H911 0.985 . S
N899 C901 1.356 . S
N899 H904 0.984 1_554 S
N899 H905 0.985 . S
C900 C894 1.379 . S
C900 C897 1.363 . S
C900 N898 1.356 . S
C901 C895 1.363 . S
C901 C896 1.379 . S
C901 N899 1.356 . S
N902 C894 1.356 . S
N902 H908 0.984 . S
N902 H909 0.984 1_554 S
N903 C896 1.356 . S
N903 H906 0.984 . S
N903 H907 0.985 . S
H904 N899 0.984 1_556 S
H905 N899 0.985 . S
H906 N903 0.984 . S
H907 N903 0.985 . S
H908 N902 0.984 . S
H909 N902 0.984 1_556 S
H910 N898 0.984 . S
H911 N898 0.985 . S
C265 C15 1.611 . S
C267 C183 1.611 . S
C283 C213 1.611 . S
C285 C43 1.611 . S
C301 C235 1.611 . S
C303 C59 1.611 . S
C319 C81 1.611 . S
C321 C249 1.611 . S
C337 C153 1.611 . S
C339 C103 1.611 . S
C355 C169 1.611 . S
C357 C125 1.611 . S
C373 C18 1.114 . S
C375 C216 1.114 . S
C391 C32 1.113 . S
C393 C238 1.113 . S
C409 C250 1.113 . S
C411 C62 1.113 . S
C427 C142 1.113 . S
C429 C84 1.113 . S
C445 C106 1.113 . S
C447 C172 1.113 . S
C463 C128 1.114 . S
C465 C184 1.114 . S
C481 C140 1.433 . S
C483 C10 1.433 . S
C499 C164 1.433 . S
C501 C30 1.433 . S
C517 C194 1.433 . S
C519 C54 1.433 . S
C535 C76 1.433 . S
C537 C208 1.433 . S
C553 C98 1.433 . S
C555 C230 1.433 . S
C571 C120 1.433 . S
C573 C260 1.433 . S
C589 C8 1.643 . S
C591 C131 1.701 . S
C607 C40 1.643 . S
C609 C21 1.701 . S
C625 C52 1.643 . S
C627 C29 1.701 . S
C643 C65 1.701 . S
C645 C74 1.643 . S
C661 C96 1.643 . S
C663 C87 1.701 . S
C679 C118 1.643 . S
C681 C109 1.701 . S
C697 C175 1.701 . S
C699 C150 1.643 . S
C715 C191 1.701 . S
C717 C162 1.643 . S
C733 C219 1.701 . S
C735 C186 1.643 . S
C751 C206 1.643 . S
C753 C241 1.701 . S
C769 C228 1.643 . S
C771 C257 1.701 . S
C787 C252 1.643 . S
C789 C139 1.701 . S
C805 C227 0.877 . S
C807 C7 0.877 . S
C823 C263 0.877 . S
C825 C37 0.877 . S
C841 C147 0.877 . S
C843 C51 0.877 . S
C859 C161 0.877 . S
C861 C73 0.877 . S
C877 C95 0.877 . S
C879 C197 0.877 1_556 S
C895 C117 0.877 1_554 S
C897 C205 0.877 . S
