# Generated by pormake.
# Topology whw, (6)-cn, num edge types: 1
# Building blocks:
#     Node 0, Type 0, BuildingBlock: BETGAK_clean_sbu_0, # of connection points: 6
#     Node 1, Type 0, BuildingBlock: BETGAK_clean_sbu_0, # of connection points: 6
#     Node 2, Type 0, BuildingBlock: BETGAK_clean_sbu_0, # of connection points: 6
#     Node 3, Type 0, BuildingBlock: BETGAK_clean_sbu_0, # of connection points: 6
#     Node 4, Type 0, BuildingBlock: BETGAK_clean_sbu_0, # of connection points: 6
#     Node 5, Type 0, BuildingBlock: BETGAK_clean_sbu_0, # of connection points: 6
#     Node 6, Type 0, BuildingBlock: BETGAK_clean_sbu_0, # of connection points: 6
#     Node 7, Type 0, BuildingBlock: BETGAK_clean_sbu_0, # of connection points: 6
#     Node 8, Type 0, BuildingBlock: BETGAK_clean_sbu_0, # of connection points: 6
#     Node 9, Type 0, BuildingBlock: BETGAK_clean_sbu_0, # of connection points: 6
#     Node 10, Type 0, BuildingBlock: BETGAK_clean_sbu_0, # of connection points: 6
#     Node 11, Type 0, BuildingBlock: BETGAK_clean_sbu_0, # of connection points: 6
#     Node 12, Type 0, BuildingBlock: BETGAK_clean_sbu_0, # of connection points: 6
#     Node 13, Type 0, BuildingBlock: BETGAK_clean_sbu_0, # of connection points: 6
#     Node 14, Type 0, BuildingBlock: BETGAK_clean_sbu_0, # of connection points: 6
#     Node 15, Type 0, BuildingBlock: BETGAK_clean_sbu_0, # of connection points: 6
#     Edge 16, Type (0, 0), BuildingBlock: XUDNAN_clean_linker_2, # of connection points: 2
#     Edge 17, Type (0, 0), BuildingBlock: XUDNAN_clean_linker_2, # of connection points: 2
#     Edge 18, Type (0, 0), BuildingBlock: XUDNAN_clean_linker_2, # of connection points: 2
#     Edge 19, Type (0, 0), BuildingBlock: XUDNAN_clean_linker_2, # of connection points: 2
#     Edge 20, Type (0, 0), BuildingBlock: XUDNAN_clean_linker_2, # of connection points: 2
#     Edge 21, Type (0, 0), BuildingBlock: XUDNAN_clean_linker_2, # of connection points: 2
#     Edge 22, Type (0, 0), BuildingBlock: XUDNAN_clean_linker_2, # of connection points: 2
#     Edge 23, Type (0, 0), BuildingBlock: XUDNAN_clean_linker_2, # of connection points: 2
#     Edge 24, Type (0, 0), BuildingBlock: XUDNAN_clean_linker_2, # of connection points: 2
#     Edge 25, Type (0, 0), BuildingBlock: XUDNAN_clean_linker_2, # of connection points: 2
#     Edge 26, Type (0, 0), BuildingBlock: XUDNAN_clean_linker_2, # of connection points: 2
#     Edge 27, Type (0, 0), BuildingBlock: XUDNAN_clean_linker_2, # of connection points: 2
#     Edge 28, Type (0, 0), BuildingBlock: XUDNAN_clean_linker_2, # of connection points: 2
#     Edge 29, Type (0, 0), BuildingBlock: XUDNAN_clean_linker_2, # of connection points: 2
#     Edge 30, Type (0, 0), BuildingBlock: XUDNAN_clean_linker_2, # of connection points: 2
#     Edge 31, Type (0, 0), BuildingBlock: XUDNAN_clean_linker_2, # of connection points: 2
#     Edge 32, Type (0, 0), BuildingBlock: XUDNAN_clean_linker_2, # of connection points: 2
#     Edge 33, Type (0, 0), BuildingBlock: XUDNAN_clean_linker_2, # of connection points: 2
#     Edge 34, Type (0, 0), BuildingBlock: XUDNAN_clean_linker_2, # of connection points: 2
#     Edge 35, Type (0, 0), BuildingBlock: XUDNAN_clean_linker_2, # of connection points: 2
#     Edge 36, Type (0, 0), BuildingBlock: XUDNAN_clean_linker_2, # of connection points: 2
#     Edge 37, Type (0, 0), BuildingBlock: XUDNAN_clean_linker_2, # of connection points: 2
#     Edge 38, Type (0, 0), BuildingBlock: XUDNAN_clean_linker_2, # of connection points: 2
#     Edge 39, Type (0, 0), BuildingBlock: XUDNAN_clean_linker_2, # of connection points: 2
#     Edge 40, Type (0, 0), BuildingBlock: XUDNAN_clean_linker_2, # of connection points: 2
#     Edge 41, Type (0, 0), BuildingBlock: XUDNAN_clean_linker_2, # of connection points: 2
#     Edge 42, Type (0, 0), BuildingBlock: XUDNAN_clean_linker_2, # of connection points: 2
#     Edge 43, Type (0, 0), BuildingBlock: XUDNAN_clean_linker_2, # of connection points: 2
#     Edge 44, Type (0, 0), BuildingBlock: XUDNAN_clean_linker_2, # of connection points: 2
#     Edge 45, Type (0, 0), BuildingBlock: XUDNAN_clean_linker_2, # of connection points: 2
#     Edge 46, Type (0, 0), BuildingBlock: XUDNAN_clean_linker_2, # of connection points: 2
#     Edge 47, Type (0, 0), BuildingBlock: XUDNAN_clean_linker_2, # of connection points: 2
#     Edge 48, Type (0, 0), BuildingBlock: XUDNAN_clean_linker_2, # of connection points: 2
#     Edge 49, Type (0, 0), BuildingBlock: XUDNAN_clean_linker_2, # of connection points: 2
#     Edge 50, Type (0, 0), BuildingBlock: XUDNAN_clean_linker_2, # of connection points: 2
#     Edge 51, Type (0, 0), BuildingBlock: XUDNAN_clean_linker_2, # of connection points: 2
#     Edge 52, Type (0, 0), BuildingBlock: XUDNAN_clean_linker_2, # of connection points: 2
#     Edge 53, Type (0, 0), BuildingBlock: XUDNAN_clean_linker_2, # of connection points: 2
#     Edge 54, Type (0, 0), BuildingBlock: XUDNAN_clean_linker_2, # of connection points: 2
#     Edge 55, Type (0, 0), BuildingBlock: XUDNAN_clean_linker_2, # of connection points: 2
#     Edge 56, Type (0, 0), BuildingBlock: XUDNAN_clean_linker_2, # of connection points: 2
#     Edge 57, Type (0, 0), BuildingBlock: XUDNAN_clean_linker_2, # of connection points: 2
#     Edge 58, Type (0, 0), BuildingBlock: XUDNAN_clean_linker_2, # of connection points: 2
#     Edge 59, Type (0, 0), BuildingBlock: XUDNAN_clean_linker_2, # of connection points: 2
#     Edge 60, Type (0, 0), BuildingBlock: XUDNAN_clean_linker_2, # of connection points: 2
#     Edge 61, Type (0, 0), BuildingBlock: XUDNAN_clean_linker_2, # of connection points: 2
#     Edge 62, Type (0, 0), BuildingBlock: XUDNAN_clean_linker_2, # of connection points: 2
#     Edge 63, Type (0, 0), BuildingBlock: XUDNAN_clean_linker_2, # of connection points: 2
# Relax obj value: 0.452
# Max RMSD: 0.242
# Mean RMSD: 0.217
data_MOF--net-whw--node1-BETGAK_clean_sbu_0--edge1-XUDNAN_clean_linker_2
_symmetry_space_group_name_H-M    P1
_symmetry_Int_Tables_number       1
_symmetry_cell_setting            triclinic
loop_
_symmetry_equiv_pos_as_xyz
'x, y, z'
_cell_length_a     47.181051
_cell_length_b     46.534767
_cell_length_c     33.58416
_cell_angle_alpha  89.65308
_cell_angle_beta   102.20085
_cell_angle_gamma 97.136374
loop_
_atom_site_label
_atom_site_type_symbol
_atom_site_fract_x
_atom_site_fract_y
_atom_site_fract_z
_atom_type_partial_charge
La0 La 0.07224 0.15083 0.17187 0.0
La1 La 0.01839 0.11835 0.1868 0.0
C2 C 0.12013 0.1665 0.15165 0.0
C3 C 0.13557 0.16058 0.11988 0.0
C4 C 0.16273 0.17656 0.11989 0.0
C5 C 0.17922 0.16953 0.09228 0.0
C6 C 0.16876 0.14627 0.06445 0.0
C7 C 0.14135 0.1304 0.06441 0.0
C8 C 0.12484 0.13752 0.09198 0.0
C9 C 0.03989 0.18103 0.20694 0.0
C10 C 0.01431 0.15105 0.10229 0.0
C11 C 0.97632 0.093 0.21328 0.0
C12 C 0.96917 0.09451 0.25331 0.0
C13 C 0.95694 0.06953 0.27003 0.0
C14 C 0.95416 0.06988 0.31057 0.0
C15 C 0.96349 0.09529 0.33449 0.0
C16 C 0.97523 0.12039 0.31736 0.0
C17 C 0.97815 0.11997 0.27712 0.0
C18 C 0.04289 0.09 0.13822 0.0
C19 C 0.07187 0.1402 0.26442 0.0
O20 O 0.09722 0.18033 0.14115 0.0
O21 O 0.11564 0.14461 0.17512 0.0
O22 O 0.06799 0.18725 0.21241 0.0
O23 O 0.03194 0.16178 0.18028 0.0
O24 O 0.04339 0.15256 0.11012 0.0
O25 O 0.99968 0.14121 0.13075 0.0
O26 O 1.00039 0.08166 0.21343 0.0
O27 O 0.97473 0.11665 0.19199 0.0
O28 O 0.01534 0.08995 0.13548 0.0
O29 O 0.057 0.10462 0.16997 0.0
O30 O 0.04342 0.13084 0.25154 0.0
O31 O 0.08836 0.14427 0.23704 0.0
H32 H 0.17139 0.1942 0.14171 0.0
H33 H 0.20026 0.18207 0.09295 0.0
H34 H 0.13249 0.11274 1.04272 0.0
H35 H 0.10394 0.12486 0.09194 0.0
H36 H 0.9504 0.0496 0.25212 0.0
H37 H 0.94494 0.05035 0.32331 0.0
H38 H 0.98301 0.1401 0.33547 0.0
H39 H 0.98834 0.13927 0.2651 0.0
La40 La 0.14318 0.76013 0.38269 0.0
La41 La 0.13886 0.69982 0.35076 0.0
C42 C 0.14846 0.80839 0.41817 0.0
C43 C 0.14493 0.82085 0.45625 0.0
C44 C 0.15348 0.85046 0.46423 0.0
C45 C 0.15228 0.86255 0.50161 0.0
C46 C 0.14207 0.8452 0.53137 0.0
C47 C 0.13308 0.81546 0.52272 0.0
C48 C 0.13501 0.80333 0.4857 0.0
C49 C 0.18768 0.74808 0.35047 0.0
C50 C 0.13805 0.70703 0.44669 0.0
C51 C 0.15697 0.65353 0.33401 0.0
C52 C 0.17629 0.64727 0.30713 0.0
C53 C 0.1714 0.62064 0.28616 0.0
C54 C 0.18455 0.61719 0.25323 0.0
C55 C 0.20256 0.64049 0.24089 0.0
C56 C 0.2103 0.66579 0.26533 0.0
C57 C 0.1969 0.66928 0.29787 0.0
C58 C 0.08806 0.71479 0.35519 0.0
C59 C 0.11847 0.75006 0.2892 0.0
O60 O 0.16947 0.79197 0.42194 0.0
O61 O 0.12454 0.79737 0.39261 0.0
O62 O 0.17582 0.77162 0.3449 0.0
O63 O 0.17445 0.73249 0.37315 0.0
O64 O 0.1404 0.73568 0.44066 0.0
O65 O 0.13696 0.68901 0.41529 0.0
O66 O 0.13196 0.66144 0.31547 0.0
O67 O 0.16924 0.67013 0.36576 0.0
O68 O 0.09092 0.69333 0.33242 0.0
O69 O 0.11244 0.72282 0.37782 0.0
O70 O 0.13223 0.72623 0.29341 0.0
O71 O 0.11619 0.76457 0.32203 0.0
H72 H 0.16171 0.86413 0.44188 0.0
H73 H 0.16001 0.88533 0.50741 0.0
H74 H 0.1245 0.80147 0.54442 0.0
H75 H 0.12861 0.78034 0.47997 0.0
H76 H 0.15559 0.6034 0.293 0.0
H77 H 0.17791 0.59752 0.23477 0.0
H78 H 0.22411 0.68405 0.25652 0.0
H79 H 0.2008 0.69 0.31355 0.0
La80 La 0.49738 0.88952 0.70683 0.0
La81 La 0.52075 0.86656 0.62986 0.0
C82 C 0.47859 0.88465 0.77356 0.0
C83 C 0.47824 0.87373 0.81682 0.0
C84 C 0.46574 0.84536 0.82429 0.0
C85 C 0.46044 0.83712 0.86339 0.0
C86 C 0.46705 0.85694 0.8969 0.0
C87 C 0.48074 0.88485 0.88959 0.0
C88 C 0.48602 0.89302 0.85072 0.0
C89 C 0.51343 0.92955 0.65631 0.0
C90 C 0.56457 0.87798 0.71349 0.0
C91 C 0.53422 0.85192 0.56349 0.0
C92 C 0.54121 0.8417 0.52377 0.0
C93 C 0.52712 0.81521 0.50489 0.0
C94 C 0.5349 0.80375 0.4703 0.0
C95 C 0.55735 0.81811 0.45259 0.0
C96 C 0.57082 0.84524 0.47054 0.0
C97 C 0.56299 0.85673 0.50547 0.0
C98 C 0.50459 0.82973 0.6831 0.0
C99 C 0.45598 0.88544 0.62077 0.0
O100 O 0.49732 0.90642 0.76612 0.0
O101 O 0.47062 0.86638 0.7425 0.0
O102 O 0.49572 0.93325 0.68064 0.0
O103 O 0.52369 0.90584 0.6647 0.0
O104 O 0.54251 0.8813 0.73136 0.0
O105 O 0.56211 0.875 0.67356 0.0
O106 O 0.51541 0.83645 0.5812 0.0
O107 O 0.54486 0.87676 0.58272 0.0
O108 O 0.52498 0.82616 0.66382 0.0
O109 O 0.49346 0.85181 0.67078 0.0
O110 O 0.47792 0.88033 0.60351 0.0
O111 O 0.45762 0.88754 0.66053 0.0
H112 H 0.45894 0.82964 0.79939 0.0
H113 H 0.44989 0.81549 0.86675 0.0
H114 H 0.48706 0.90096 0.91399 0.0
H115 H 0.49535 0.91507 0.84692 0.0
H116 H 0.51017 0.80291 0.51739 0.0
H117 H 0.52322 0.78323 0.45757 0.0
H118 H 0.58821 0.85722 0.4585 0.0
H119 H 0.57458 0.87713 0.51876 0.0
La120 La 0.39965 0.2365 0.9844 0.0
La121 La 0.41108 0.29807 0.96595 0.0
C122 C 0.39309 0.18713 1.0147 0.0
C123 C 0.39339 0.17606 1.05588 0.0
C124 C 0.37272 0.15277 0.06116 0.0
C125 C 0.37116 0.14304 0.10018 0.0
C126 C 0.39032 0.15645 0.13473 0.0
C127 C 0.41106 0.17984 0.12924 0.0
C128 C 0.41249 0.18965 0.0902 0.0
C129 C 0.35688 0.25489 0.93039 0.0
C130 C 0.41322 0.28618 0.05873 0.0
C131 C 0.40425 0.34727 0.93717 0.0
C132 C 0.38809 0.35857 0.89953 0.0
C133 C 0.39978 0.38424 0.88401 0.0
C134 C 0.38609 0.39404 0.84641 0.0
C135 C 0.36035 0.37833 0.82381 0.0
C136 C 0.34783 0.35338 0.84067 0.0
C137 C 0.36172 0.34346 0.87813 0.0
C138 C 0.45827 0.27515 1.0041 0.0
C139 C 0.41917 0.25 0.90047 0.0
O140 O 0.37154 0.20203 1.00039 0.0
O141 O 0.41798 0.19919 1.00703 0.0
O142 O 0.36563 0.2298 0.9299 0.0
O143 O 0.37099 0.26906 0.96263 0.0
O144 O 0.40731 0.25827 1.04679 0.0
O145 O 0.41373 0.30647 1.03113 0.0
O146 O 0.4261 0.33337 0.93343 0.0
O147 O 0.38824 0.33406 0.9609 0.0
O148 O 0.45508 0.30242 1.00596 0.0
O149 O 0.43671 0.26388 0.97844 0.0
O150 O 0.41375 0.27697 0.90722 0.0
O151 O 0.4183 0.23028 0.92955 0.0
H152 H 0.3575 0.14231 1.03503 0.0
H153 H 0.35475 0.12521 0.10328 0.0
H154 H 0.42654 0.19034 0.15505 0.0
H155 H 0.42843 0.20788 0.0869 0.0
H156 H 0.42012 0.39612 0.90025 0.0
H157 H 0.3967 0.41297 0.83405 0.0
H158 H 0.32794 0.3409 0.82416 0.0
H159 H 0.3523 0.32359 0.88979 0.0
La160 La 0.05023 0.87163 0.94027 0.0
La161 La 0.9889 0.85729 0.94431 0.0
C162 C 0.09959 0.88441 0.92306 0.0
C163 C 0.11037 0.88317 0.88545 0.0
C164 C 0.13223 0.90461 0.87824 0.0
C165 C 0.14032 0.90561 0.84054 0.0
C166 C 0.12684 0.8849 0.81 0.0
C167 C 0.1054 0.86312 0.81762 0.0
C168 C 0.097 0.86246 0.85493 0.0
C169 C 0.03035 0.91063 0.98135 0.0
C170 C 0.99944 0.86366 0.85462 0.0
C171 C 0.93913 0.85834 0.95966 0.0
C172 C 0.9251 0.86548 0.9926 0.0
C173 C 0.8986 0.84925 0.99549 0.0
C174 C 0.88451 0.85535 1.02637 0.0
C175 C 0.89666 0.87794 1.05469 0.0
C176 C 0.92308 0.8945 1.05145 0.0
C177 C 0.93733 0.88821 1.02066 0.0
C178 C 0.01044 0.8158 0.91241 0.0
C179 C 0.03908 0.84114 1.02093 0.0
O180 O 0.0809 0.90295 0.92282 0.0
O181 O 0.0913 0.85955 0.93819 0.0
O182 O 0.05512 0.90083 0.99204 0.0
O183 O 0.01689 0.89828 0.94767 0.0
O184 O 0.02784 0.86669 0.87317 0.0
O185 O 0.9795 0.86295 0.87732 0.0
O186 O 0.95314 0.83557 0.96483 0.0
O187 O 0.95326 0.88 0.94383 0.0
O188 O 0.98299 0.81934 0.90381 0.0
O189 O 0.0232 0.83278 0.941 0.0
O190 O 0.01174 0.84748 1.00773 0.0
O191 O 0.05829 0.84614 0.99694 0.0
H192 H 0.14241 0.92103 0.90133 0.0
H193 H 0.15682 0.92264 0.83505 0.0
H194 H 0.09435 0.84728 0.79414 0.0
H195 H 0.07947 0.84634 0.8594 0.0
H196 H 0.88885 0.83173 0.97391 0.0
H197 H 0.86412 0.84237 1.0282 0.0
H198 H 0.93307 0.91175 0.07333 0.0
H199 H 0.95789 0.90091 1.01894 0.0
La200 La 0.42516 0.79567 0.2643 0.0
La201 La 0.41741 0.73572 0.23061 0.0
C202 C 0.41125 0.84344 0.28377 0.0
C203 C 0.39196 0.85276 0.30868 0.0
C204 C 0.39763 0.88074 0.32571 0.0
C205 C 0.38217 0.88856 0.35419 0.0
C206 C 0.36077 0.86842 0.36607 0.0
C207 C 0.35334 0.84126 0.34587 0.0
C208 C 0.36906 0.8334 0.31771 0.0
C209 C 0.47343 0.77959 0.24979 0.0
C210 C 0.44922 0.74518 0.32208 0.0
C211 C 0.40777 0.68973 0.1891 0.0
C212 C 0.40597 0.68336 0.14594 0.0
C213 C 0.41601 0.65829 0.13427 0.0
C214 C 0.41378 0.65202 0.09303 0.0
C215 C 0.40121 0.67066 0.06316 0.0
C216 C 0.39135 0.69579 0.07501 0.0
C217 C 0.39366 0.70207 0.11601 0.0
C218 C 0.37874 0.74632 0.27408 0.0
C219 C 0.41859 0.78945 0.16663 0.0
O220 O 0.43415 0.83223 0.30352 0.0
O221 O 0.39818 0.82843 0.25085 0.0
O222 O 0.47339 0.80123 0.27402 0.0
O223 O 0.44767 0.77237 0.23158 0.0
O224 O 0.43592 0.76918 0.3206 0.0
O225 O 0.44864 0.73052 0.28793 0.0
O226 O 0.38714 0.70413 0.19634 0.0
O227 O 0.43374 0.69956 0.21076 0.0
O228 O 0.39144 0.72328 0.27583 0.0
O229 O 0.38789 0.76304 0.24844 0.0
O230 O 0.41605 0.76084 0.17232 0.0
O231 O 0.42227 0.80723 0.19891 0.0
H232 H 0.41515 0.89598 0.31878 0.0
H233 H 0.38891 0.9095 0.36941 0.0
H234 H 0.33695 0.82529 0.35415 0.0
H235 H 0.3644 0.81176 0.30459 0.0
H236 H 0.42553 0.64364 0.15699 0.0
H237 H 0.42153 0.63248 0.08446 0.0
H238 H 0.38205 0.71074 1.05256 0.0
H239 H 0.38547 0.72143 0.12412 0.0
La240 La 0.52302 0.13228 0.48057 0.0
La241 La 0.5469 0.12046 0.39911 0.0
C242 C 0.51427 0.13716 0.5532 0.0
C243 C 0.50063 0.15031 0.585 0.0
C244 C 0.48523 0.17454 0.57787 0.0
C245 C 0.47502 0.18749 0.60956 0.0
C246 C 0.48012 0.17718 0.65019 0.0
C247 C 0.49524 0.15256 0.65675 0.0
C248 C 0.50517 0.13949 0.62496 0.0
C249 C 0.53696 0.17613 0.43522 0.0
C250 C 0.58833 0.11641 0.48287 0.0
C251 C 0.56087 0.13295 0.33049 0.0
C252 C 0.56937 0.14139 0.28983 0.0
C253 C 0.56872 0.12047 0.25933 0.0
C254 C 0.57656 0.12814 0.22172 0.0
C255 C 0.58545 0.15724 0.21227 0.0
C256 C 0.58537 0.17834 0.24246 0.0
C257 C 0.57764 0.17059 0.28035 0.0
C258 C 0.53545 0.07387 0.44198 0.0
C259 C 0.47794 0.12288 0.39798 0.0
O260 O 0.53424 0.15335 0.53843 0.0
O261 O 0.4988 0.11816 0.52573 0.0
O262 O 0.51587 0.17506 0.45468 0.0
O263 O 0.54919 0.15392 0.44252 0.0
O264 O 0.56535 0.11592 0.50027 0.0
O265 O 0.58764 0.12224 0.44396 0.0
O266 O 0.54977 0.1069 0.33918 0.0
O267 O 0.565 0.15123 0.36126 0.0
O268 O 0.55256 0.07562 0.41572 0.0
O269 O 0.52296 0.09671 0.4396 0.0
O270 O 0.49997 0.12347 0.37872 0.0
O271 O 0.48103 0.12336 0.43823 0.0
H272 H 0.48127 0.18371 0.54779 0.0
H273 H 0.46297 0.20575 0.60174 0.0
H274 H 0.50026 0.14362 0.68685 0.0
H275 H 0.51716 0.12105 0.63202 0.0
H276 H 0.56221 0.09785 0.26454 0.0
H277 H 0.57548 0.11091 0.19975 0.0
H278 H 0.59201 0.20093 0.23732 0.0
H279 H 0.57824 0.18765 0.30241 0.0
La280 La 0.14412 0.21371 0.64963 0.0
La281 La 0.15819 0.27206 0.62425 0.0
C282 C 0.14918 0.16608 0.68439 0.0
C283 C 0.16563 0.1566 0.72315 0.0
C284 C 0.15374 0.13269 0.74229 0.0
C285 C 0.1684 0.12446 0.78033 0.0
C286 C 0.19515 0.14015 0.79978 0.0
C287 C 0.20762 0.16335 0.77963 0.0
C288 C 0.19298 0.17145 0.74153 0.0
C289 C 0.09859 0.23315 0.60148 0.0
C290 C 0.13306 0.26661 0.70469 0.0
C291 C 0.16921 0.31933 0.59038 0.0
C292 C 0.1701 0.32883 0.54887 0.0
C293 C 0.19214 0.35058 0.5431 0.0
C294 C 0.19449 0.35906 0.50384 0.0
C295 C 0.17474 0.34594 0.46962 0.0
C296 C 0.15273 0.32396 0.47565 0.0
C297 C 0.15054 0.31537 0.51491 0.0
C298 C 0.19886 0.25646 0.68507 0.0
C299 C 0.14523 0.21959 0.55581 0.0
O300 O 0.12817 0.18161 0.68654 0.0
O301 O 0.16512 0.1766 0.6589 0.0
O302 O 0.10354 0.20631 0.60401 0.0
O303 O 0.1181 0.24734 0.62796 0.0
O304 O 0.13673 0.23858 0.70323 0.0
O305 O 0.13704 0.28349 0.67359 0.0
O306 O 0.18895 0.30266 0.60577 0.0
O307 O 0.14353 0.31015 0.59815 0.0
O308 O 0.19009 0.28158 0.68076 0.0
O309 O 0.18534 0.2404 0.65436 0.0
O310 O 0.15144 0.2478 0.56474 0.0
O311 O 0.14358 0.20109 0.58565 0.0
H312 H 0.13272 0.12091 0.72835 0.0
H313 H 0.15797 0.10685 0.79548 0.0
H314 H 0.22819 0.17579 0.79393 0.0
H315 H 0.20273 0.18965 0.72679 0.0
H316 H 0.20771 0.36087 0.56902 0.0
H317 H 0.21184 0.3758 0.50031 0.0
H318 H 0.13675 0.31376 0.4501 0.0
H319 H 0.13358 0.29826 0.51869 0.0
La320 La 0.91896 0.2893 0.76817 0.0
La321 La 0.91667 0.22842 0.7392 0.0
C322 C 0.90481 0.33463 0.79475 0.0
C323 C 0.89089 0.34384 0.82693 0.0
C324 C 0.90611 0.36591 0.85402 0.0
C325 C 0.89463 0.37424 0.88638 0.0
C326 C 0.8673 0.36094 0.89217 0.0
C327 C 0.85142 0.3396 0.86382 0.0
C328 C 0.86314 0.33109 0.83145 0.0
C329 C 0.96867 0.27812 0.75154 0.0
C330 C 0.93582 0.2394 0.8337 0.0
C331 C 0.91477 0.17916 0.70755 0.0
C332 C 0.92512 0.16724 0.67407 0.0
C333 C 0.92528 0.13733 0.67076 0.0
C334 C 0.93412 0.12568 0.63788 0.0
C335 C 0.94325 0.14398 0.60826 0.0
C336 C 0.94385 0.1741 0.61267 0.0
C337 C 0.93439 0.18554 0.64492 0.0
C338 C 0.87012 0.24001 0.76582 0.0
C339 C 0.92021 0.27992 0.67424 0.0
O340 O 0.9306 0.32596 0.80692 0.0
O341 O 0.88817 0.31842 0.76495 0.0
O342 O 0.96035 0.30373 0.75003 0.0
O343 O 0.95057 0.2612 0.76589 0.0
O344 O 0.92466 0.2645 0.82639 0.0
O345 O 0.93892 0.2231 0.80293 0.0
O346 O 0.89444 0.19617 0.69696 0.0
O347 O 0.93505 0.18962 0.73858 0.0
O348 O 0.88168 0.21635 0.77135 0.0
O349 O 0.88404 0.25633 0.74436 0.0
O350 O 0.92342 0.25241 0.68307 0.0
O351 O 0.91437 0.29734 0.70206 0.0
H352 H 0.92745 0.37614 0.85094 0.0
H353 H 0.90813 0.39006 0.90804 0.0
H354 H 0.83037 0.32892 0.86731 0.0
H355 H 0.85079 0.31419 0.81059 0.0
H356 H 0.91798 0.12296 0.6931 0.0
H357 H 0.93289 0.10238 0.63505 0.0
H358 H 0.95129 0.18893 0.59097 0.0
H359 H 0.93428 0.20867 0.64699 0.0
La360 La 0.64286 0.70022 0.14841 0.0
La361 La 0.65139 0.76139 0.12812 0.0
C362 C 0.65007 0.65161 0.17947 0.0
C363 C 0.65814 0.63886 0.21959 0.0
C364 C 0.64904 0.64931 0.25326 0.0
C365 C 0.65431 0.63507 0.29016 0.0
C366 C 0.669 0.61039 0.29401 0.0
C367 C 0.67935 0.60075 0.26091 0.0
C368 C 0.67374 0.61485 0.22373 0.0
C369 C 0.59605 0.71867 0.10269 0.0
C370 C 0.62761 0.74808 0.20874 0.0
C371 C 0.6591 0.81018 0.09687 0.0
C372 C 0.65732 0.82078 1.05527 0.0
C373 C 0.67916 0.84209 1.0477 0.0
C374 C 0.67945 0.85096 1.00799 0.0
C375 C 0.65775 0.83874 0.97508 0.0
C376 C 0.6358 0.81739 0.98291 0.0
C377 C 0.6357 0.80834 1.02261 0.0
C378 C 0.69399 0.74561 0.18578 0.0
C379 C 0.64268 0.71131 1.05589 0.0
O380 O 0.62498 0.66198 0.17143 0.0
O381 O 0.67072 0.66853 0.16719 0.0
O382 O 0.60119 0.69191 0.10352 0.0
O383 O 0.61468 0.73208 0.13064 0.0
O384 O 0.63473 0.72149 0.20397 0.0
O385 O 0.62951 0.76762 0.17971 0.0
O386 O 0.67992 0.79397 0.10901 0.0
O387 O 0.63455 0.79978 0.10722 0.0
O388 O 0.68299 0.76959 0.18519 0.0
O389 O 0.68176 0.73102 0.15316 0.0
O390 O 0.64263 0.73914 0.06568 0.0
O391 O 0.64731 0.69247 0.08557 0.0
H392 H 0.63725 0.66799 0.25078 0.0
H393 H 0.64661 0.64314 0.31564 0.0
H394 H 0.69082 0.58183 0.26344 0.0
H395 H 0.68098 0.60662 0.19795 0.0
H396 H 0.69631 0.85156 0.07252 0.0
H397 H 0.69686 0.86716 1.00306 0.0
H398 H 0.6184 0.80788 0.95847 0.0
H399 H 0.61886 0.79153 1.02769 0.0
La400 La 0.63725 0.27069 0.8724 0.0
La401 La 0.63951 0.20881 0.85002 0.0
C402 C 0.63537 0.31985 0.90086 0.0
C403 C 0.62764 0.33097 0.93703 0.0
C404 C 0.61593 0.35725 0.93566 0.0
C405 C 0.60777 0.36751 0.97 0.0
C406 C 0.61108 0.35137 1.00582 0.0
C407 C 0.62252 0.32485 1.00664 0.0
C408 C 0.63113 0.31498 0.97278 0.0
C409 C 0.68529 0.25919 0.84942 0.0
C410 C 0.63761 0.22221 0.94363 0.0
C411 C 0.66143 0.16334 0.84015 0.0
C412 C 0.66532 0.14504 0.80672 0.0
C413 C 0.64163 0.13399 0.77583 0.0
C414 C 0.64645 0.11933 0.74228 0.0
C415 C 0.67504 0.11564 0.73889 0.0
C416 C 0.6986 0.12572 0.77061 0.0
C417 C 0.69372 0.14015 0.80441 0.0
C418 C 0.58657 0.22165 0.8475 0.0
C419 C 0.61712 0.25323 0.77982 0.0
O420 O 0.65891 0.30668 0.90776 0.0
O421 O 0.61368 0.30579 0.87434 0.0
O422 O 0.6721 0.28141 0.83805 0.0
O423 O 0.67145 0.24458 0.87237 0.0
O424 O 0.63387 0.2494 0.93236 0.0
O425 O 0.64206 0.20333 0.9165 0.0
O426 O 0.63497 0.16331 0.84664 0.0
O427 O 0.67573 0.18944 0.84241 0.0
O428 O 0.59203 0.20066 0.82583 0.0
O429 O 0.60992 0.23149 0.87124 0.0
O430 O 0.63149 0.23008 0.78914 0.0
O431 O 0.61279 0.27012 0.80908 0.0
H432 H 0.61313 0.36977 0.9081 0.0
H433 H 0.59927 0.38815 0.96868 0.0
H434 H 0.62466 0.31151 1.03339 0.0
H435 H 0.64018 0.29468 0.97455 0.0
H436 H 0.61953 0.1376 0.77675 0.0
H437 H 0.62789 0.11238 0.71785 0.0
H438 H 0.72079 0.12325 0.76864 0.0
H439 H 0.71229 0.1485 0.82807 0.0
La440 La 0.90001 0.73858 0.49195 0.0
La441 La 0.90415 0.79831 0.4635 0.0
C442 C 0.8901 0.69005 0.52279 0.0
C443 C 0.89092 0.67426 0.56074 0.0
C444 C 0.86949 0.65057 0.56154 0.0
C445 C 0.8681 0.63617 0.59783 0.0
C446 C 0.88813 0.6454 0.63387 0.0
C447 C 0.91023 0.6686 0.63253 0.0
C448 C 0.91148 0.68307 0.59631 0.0
C449 C 0.85792 0.74738 0.4276 0.0
C450 C 0.91168 0.79131 0.56141 0.0
C451 C 0.88722 0.84596 0.43928 0.0
C452 C 0.8718 0.85653 0.40054 0.0
C453 C 0.88133 0.88409 0.38789 0.0
C454 C 0.87118 0.89245 0.348 0.0
C455 C 0.85124 0.87331 0.3202 0.0
C456 C 0.83988 0.84666 0.33415 0.0
C457 C 0.85027 0.83823 0.37394 0.0
C458 C 0.95585 0.78353 0.49191 0.0
C459 C 0.92345 0.74942 0.41087 0.0
O460 O 0.87127 0.70897 0.5157 0.0
O461 O 0.91501 0.69926 0.51237 0.0
O462 O 0.87153 0.72506 0.43384 0.0
O463 O 0.86788 0.76472 0.45808 0.0
O464 O 0.90716 0.76269 0.55307 0.0
O465 O 0.91115 0.80929 0.53019 0.0
O466 O 0.91317 0.8391 0.43894 0.0
O467 O 0.87225 0.82665 0.45778 0.0
O468 O 0.95033 0.80374 0.46555 0.0
O469 O 0.93294 0.77452 0.50441 0.0
O470 O 0.9113 0.77424 0.4087 0.0
O471 O 0.92507 0.73374 0.44455 0.0
H472 H 0.85339 0.64359 0.53416 0.0
H473 H 0.85091 0.61845 0.59796 0.0
H474 H 0.92648 0.67577 0.65965 0.0
H475 H 0.92816 0.70129 0.59621 0.0
H476 H 0.89803 0.89843 0.40808 0.0
H477 H 0.88072 0.91296 0.33826 0.0
H478 H 0.8243 0.83157 0.31361 0.0
H479 H 0.84266 0.81686 0.38317 0.0
La480 La 0.58091 0.64534 0.67218 0.0
La481 La 0.51884 0.6339 0.67329 0.0
C482 C 0.63008 0.63834 0.65898 0.0
C483 C 0.6399 0.62212 0.62834 0.0
C484 C 0.66675 0.6314 0.61809 0.0
C485 C 0.6756 0.61683 0.58752 0.0
C486 C 0.65769 0.59268 0.56689 0.0
C487 C 0.63135 0.58272 0.57863 0.0
C488 C 0.62243 0.59746 0.60889 0.0
C489 C 0.56057 0.68962 0.69989 0.0
C490 C 0.53274 0.66138 0.5929 0.0
C491 C 0.46801 0.62479 0.68674 0.0
C492 C 0.45516 0.63121 0.72097 0.0
C493 C 0.42641 0.61967 0.72146 0.0
C494 C 0.41468 0.62452 0.7553 0.0
C495 C 0.4317 0.64095 0.78888 0.0
C496 C 0.46029 0.65304 0.78762 0.0
C497 C 0.47196 0.64805 0.75401 0.0
C498 C 0.53793 0.59275 0.63481 0.0
C499 C 0.56739 0.64246 0.76031 0.0
O500 O 0.61652 0.66063 0.64593 0.0
O501 O 0.61689 0.62231 0.68348 0.0
O502 O 0.58779 0.6853 0.71009 0.0
O503 O 0.54783 0.67171 0.67234 0.0
O504 O 0.55962 0.65413 0.60733 0.0
O505 O 0.51319 0.65846 0.61637 0.0
O506 O 0.48688 0.60606 0.69411 0.0
O507 O 0.47738 0.64732 0.66757 0.0
O508 O 0.51356 0.60307 0.62318 0.0
O509 O 0.5512 0.60536 0.66839 0.0
O510 O 0.53939 0.63959 0.74052 0.0
O511 O 0.58822 0.64249 0.7393 0.0
H512 H 0.68048 0.65036 0.63295 0.0
H513 H 0.69572 0.6254 0.57867 0.0
H514 H 0.61718 0.56411 0.56348 0.0
H515 H 0.60164 0.5899 0.61657 0.0
H516 H 0.41328 0.60652 0.69608 0.0
H517 H 0.39269 0.61473 0.75567 0.0
H518 H 0.47371 0.66633 0.81265 0.0
H519 H 0.49409 0.65732 0.75399 0.0
La520 La 0.01197 0.38133 0.21944 0.0
La521 La 0.02946 0.36961 0.13291 0.0
C522 C 0.99898 0.3698 0.28866 0.0
C523 C 0.99057 0.36182 0.32948 0.0
C524 C 1.00118 0.37956 0.36467 0.0
C525 C 0.99389 0.372 0.40264 0.0
C526 C 0.97547 0.34624 0.40772 0.0
C527 C 0.96542 0.32808 0.3726 0.0
C528 C 0.97274 0.33571 0.33444 0.0
C529 C 0.01765 0.42709 0.17216 0.0
C530 C 0.07818 0.37927 0.21566 0.0
C531 C 0.0525 0.3642 0.07112 0.0
C532 C 0.05408 0.35218 1.0295 0.0
C533 C 0.06643 0.32635 1.02557 0.0
C534 C 0.07303 0.31791 0.98824 0.0
C535 C 0.06792 0.3351 0.9532 0.0
C536 C 0.05437 0.36025 0.95687 0.0
C537 C 0.04781 0.36866 0.99407 0.0
C538 C 1.00499 0.32673 0.17064 0.0
C539 C 0.96541 0.37915 0.13621 0.0
O540 O 0.01722 0.39251 0.28279 0.0
O541 O 0.9872 0.35496 0.25486 0.0
O542 O 1.00253 0.42518 0.20075 0.0
O543 O 0.03139 0.40527 0.17426 0.0
O544 O 0.05824 0.37801 0.23827 0.0
O545 O 0.07216 0.37923 0.17517 0.0
O546 O 0.05541 0.34727 0.10272 0.0
O547 O 0.0362 0.38466 0.07499 0.0
O548 O 1.00084 0.32795 0.1313 0.0
O549 O 0.02298 0.34751 0.18615 0.0
O550 O 0.98618 0.38315 0.11457 0.0
O551 O 0.97023 0.37299 0.17561 0.0
H552 H 0.01533 0.39951 0.363 0.0
H553 H 1.00311 0.38659 0.42834 0.0
H554 H 0.95128 0.30812 0.37423 0.0
H555 H 0.96432 0.32098 0.30864 0.0
H556 H 0.07219 0.3131 1.05194 0.0
H557 H 0.08348 0.29854 0.98751 0.0
H558 H 0.04924 0.37405 0.93097 0.0
H559 H 0.0387 0.38879 0.99536 0.0
La560 La 0.53633 0.37363 0.42993 0.0
La561 La 0.47835 0.35553 0.44472 0.0
C562 C 0.58202 0.39021 0.40523 0.0
C563 C 0.58844 0.3898 0.36443 0.0
C564 C 0.58942 0.41563 0.34264 0.0
C565 C 0.58957 0.41496 0.30131 0.0
C566 C 0.58941 0.38852 0.28158 0.0
C567 C 0.59027 0.3629 0.30374 0.0
C568 C 0.58971 0.3635 0.34495 0.0
C569 C 0.52085 0.40872 0.48119 0.0
C570 C 0.48175 0.36436 0.35141 0.0
C571 C 0.42989 0.35323 0.46528 0.0
C572 C 0.41592 0.36136 0.49765 0.0
C573 C 0.38758 0.34826 0.49774 0.0
C574 C 0.37282 0.35659 0.5267 0.0
C575 C 0.38622 0.37823 0.55597 0.0
C576 C 0.41465 0.39149 0.55565 0.0
C577 C 0.42946 0.38307 0.52663 0.0
C578 C 0.49751 0.31636 0.40448 0.0
C579 C 0.53423 0.33945 0.51099 0.0
O580 O 0.56267 0.40729 0.40922 0.0
O581 O 0.57745 0.36508 0.42216 0.0
O582 O 0.54611 0.40021 0.4848 0.0
O583 O 0.50411 0.39775 0.44848 0.0
O584 O 0.51068 0.36763 0.36482 0.0
O585 O 0.4649 0.36398 0.37863 0.0
O586 O 0.44681 0.3327 0.47286 0.0
O587 O 0.44081 0.37472 0.44554 0.0
O588 O 0.47003 0.3186 0.40113 0.0
O589 O 0.51186 0.33319 0.43235 0.0
O590 O 0.50646 0.345 0.50485 0.0
O591 O 0.54949 0.34581 0.48222 0.0
H592 H 0.58866 0.43618 0.35715 0.0
H593 H 0.58941 0.43496 0.28462 0.0
H594 H 0.59027 0.34231 0.28884 0.0
H595 H 0.5891 0.34327 0.36099 0.0
H596 H 0.37677 0.3317 0.47516 0.0
H597 H 0.35092 0.34611 0.52624 0.0
H598 H 0.42566 0.40787 0.57835 0.0
H599 H 0.45134 0.39347 0.52672 0.0
La600 La 0.01731 0.63352 0.97705 0.0
La601 La 0.04578 0.61219 0.90366 0.0
C602 C 1.00323 0.64824 1.04305 0.0
C603 C 0.99507 0.65808 0.08221 0.0
C604 C 0.99754 0.68777 0.09345 0.0
C605 C 0.99035 0.6969 0.13014 0.0
C606 C 0.98064 0.67674 0.15759 0.0
C607 C 0.97782 0.64709 0.14585 0.0
C608 C 0.98477 0.63802 0.10916 0.0
C609 C 0.02795 0.66926 0.91991 0.0
C610 C 0.08639 0.62906 0.98777 0.0
C611 C 0.06066 0.62043 0.83475 0.0
C612 C 0.06864 0.62695 0.79318 0.0
C613 C 0.08832 0.6116 0.77826 0.0
C614 C 0.09678 0.6186 0.7408 0.0
C615 C 0.08593 0.64129 0.71572 0.0
C616 C 0.06645 0.65692 0.73104 0.0
C617 C 0.05807 0.64995 0.76875 0.0
C618 C 0.03458 0.57239 0.95758 0.0
C619 C 0.97541 0.60718 0.89581 0.0
O620 O 0.01555 0.66632 1.0198 0.0
O621 O 0.99903 0.62134 1.029 0.0
O622 O 0.0059 0.66983 0.93721 0.0
O623 O 0.04326 0.65054 0.93576 0.0
O624 O 0.06318 0.62875 1.00468 0.0
O625 O 0.08495 0.6273 0.94805 0.0
O626 O 0.06991 0.60001 0.85982 0.0
O627 O 0.04193 0.63438 0.84796 0.0
O628 O 0.05214 0.56963 0.93262 0.0
O629 O 0.02178 0.59435 0.94714 0.0
O630 O 0.99839 0.60466 0.87933 0.0
O631 O 0.97716 0.61633 0.93397 0.0
H632 H 1.00528 0.70416 0.0739 0.0
H633 H 0.99321 0.71985 0.1375 0.0
H634 H 0.97008 0.63054 0.16517 0.0
H635 H 0.98228 0.61505 0.10208 0.0
H636 H 0.09761 0.59418 0.7959 0.0
H637 H 0.11242 0.60616 0.73194 0.0
H638 H 0.0572 0.67443 0.71363 0.0
H639 H 0.0432 0.66282 0.77885 0.0
H640 H 0.19463 0.18471 1.01789 0.0
H641 H 0.17892 0.09298 1.04059 0.0
H642 H 0.19869 0.08198 0.98082 0.0
H643 H 0.16826 0.18096 0.92033 0.0
H644 H 0.19375 0.20854 0.90454 0.0
H645 H 0.18773 0.20956 0.95531 0.0
H646 H 0.24327 0.20958 0.98413 0.0
H647 H 0.24936 0.20842 0.93295 0.0
H648 H 0.26183 0.18132 0.96876 0.0
H649 H 0.20725 0.08035 0.91143 0.0
H650 H 0.20185 0.08827 0.83765 0.0
H651 H 0.21281 0.18101 0.85964 0.0
C652 C 0.19677 0.16241 1.01141 0.0
C653 C 0.18546 0.1397 1.03378 0.0
C654 C 0.18746 0.11068 1.02364 0.0
C655 C 0.199 0.10427 0.99008 0.0
C656 C 0.20874 0.12714 0.96733 0.0
C657 C 0.20807 0.15574 0.97788 0.0
C658 C 0.21444 0.17601 0.94458 0.0
C659 C 0.18956 0.19481 0.93036 0.0
C660 C 0.24399 0.19494 0.95844 0.0
C661 C 0.21594 0.15418 0.91217 0.0
C662 C 0.21378 0.12618 0.92638 0.0
C663 C 0.20991 0.10216 0.90025 0.0
C664 C 0.2067 0.10682 0.85839 0.0
C665 C 0.20711 0.13525 0.84322 0.0
C666 C 0.21335 0.15912 0.87064 0.0
H667 H 0.13614 0.76035 0.21303 0.0
H668 H 0.06362 0.76428 0.2727 0.0
H669 H 0.0364 0.78621 0.21189 0.0
H670 H 0.13103 0.82904 0.1634 0.0
H671 H 0.13954 0.81781 0.11646 0.0
H672 H 0.15319 0.80016 0.16326 0.0
H673 H 0.1294 0.75066 0.13051 0.0
H674 H 0.11554 0.76797 0.0835 0.0
H675 H 0.09082 0.74532 0.10816 0.0
H676 H 0.01693 0.81011 0.14596 0.0
H677 H 0.00627 0.83323 0.07932 0.0
H678 H 0.09044 0.8165 0.05818 0.0
C679 C 0.11429 0.76526 0.21292 0.0
C680 C 0.10208 0.76001 0.24829 0.0
C681 C 0.07365 0.7677 0.24656 0.0
C682 C 0.05788 0.78032 0.21189 0.0
C683 C 0.07054 0.78578 0.17816 0.0
C684 C 0.09806 0.77844 0.17808 0.0
C685 C 0.10656 0.78787 0.13772 0.0
C686 C 0.13423 0.81004 0.1457 0.0
C687 C 0.11083 0.76138 0.11353 0.0
C688 C 0.07977 0.80186 0.11568 0.0
C689 C 0.05929 0.80012 0.1398 0.0
C690 C 0.03286 0.81146 0.12687 0.0
C691 C 0.02697 0.82473 0.08857 0.0
C692 C 0.04726 0.82712 0.06254 0.0
C693 C 0.07424 0.81538 0.07683 0.0
H694 H 0.35726 0.82901 0.42472 0.0
H695 H 0.34805 0.91881 0.3975 0.0
H696 H 0.35784 0.93045 0.47083 0.0
H697 H 0.33597 0.83026 0.53414 0.0
H698 H 0.36319 0.80642 0.55145 0.0
H699 H 0.34132 0.80245 0.50032 0.0
H700 H 0.38871 0.80642 0.47261 0.0
H701 H 0.41065 0.81134 0.52281 0.0
H702 H 0.41523 0.83825 0.48505 0.0
H703 H 0.38769 0.93596 0.5399 0.0
H704 H 0.42959 0.93346 0.59776 0.0
H705 H 0.42086 0.84058 0.5814 0.0
C706 C 0.35516 0.8507 0.43407 0.0
C707 C 0.35243 0.87308 0.40552 0.0
C708 C 0.35049 0.90137 0.41897 0.0
C709 C 0.3559 0.90813 0.4607 0.0
C710 C 0.36256 0.88622 0.48842 0.0
C711 C 0.36112 0.85769 0.4756 0.0
C712 C 0.37564 0.83945 0.50956 0.0
C713 C 0.35265 0.81841 0.52478 0.0
C714 C 0.39893 0.823 0.4967 0.0
C715 C 0.38921 0.86288 0.54118 0.0
C716 C 0.38022 0.88948 0.52947 0.0
C717 C 0.39386 0.91512 0.55032 0.0
C718 C 0.41771 0.91362 0.58291 0.0
C719 C 0.42768 0.88675 0.59368 0.0
C720 C 0.41274 0.86113 0.57377 0.0
H721 H 0.43407 0.19766 0.87122 0.0
H722 H 0.42319 0.28628 0.83665 0.0
H723 H 0.4377 0.27755 0.77204 0.0
H724 H 0.49682 0.19176 0.82468 0.0
H725 H 0.48501 0.15472 0.80776 0.0
H726 H 0.47462 0.16827 0.85212 0.0
H727 H 0.42012 0.15246 0.81827 0.0
H728 H 0.43069 0.13952 0.77373 0.0
H729 H 0.40534 0.16595 0.76876 0.0
H730 H 0.45545 0.26006 0.71061 0.0
H731 H 0.47119 0.23487 0.6568 0.0
H732 H 0.46806 0.15556 0.72569 0.0
C733 C 0.43462 0.21524 0.85006 0.0
C734 C 0.42738 0.24293 0.86013 0.0
C735 C 0.4285 0.26495 0.83072 0.0
C736 C 0.43687 0.2602 0.79353 0.0
C737 C 0.44398 0.23299 0.78475 0.0
C738 C 0.44268 0.21072 0.81198 0.0
C739 C 0.45087 0.18335 0.7941 0.0
C740 C 0.47846 0.17392 0.82133 0.0
C741 C 0.42523 0.15886 0.78839 0.0
C742 C 0.45693 0.19371 0.7528 0.0
C743 C 0.45303 0.22255 0.74841 0.0
C744 C 0.45804 0.23731 0.71368 0.0
C745 C 0.46685 0.22245 0.68262 0.0
C746 C 0.47062 0.19252 0.68514 0.0
C747 C 0.46561 0.17825 0.72159 0.0
H748 H 0.8497 0.83434 0.25956 0.0
H749 H 0.84463 0.92521 0.28131 0.0
H750 H 0.84948 0.93568 0.21068 0.0
H751 H 0.90339 0.8436 0.20907 0.0
H752 H 0.8902 0.81423 0.17252 0.0
H753 H 0.87991 0.81262 0.22103 0.0
H754 H 0.82507 0.80585 0.18566 0.0
H755 H 0.8351 0.80677 0.13671 0.0
H756 H 0.81118 0.8314 0.14824 0.0
H757 H 0.86482 0.93745 0.14346 0.0
H758 H 0.88499 0.92955 0.08257 0.0
H759 H 0.87828 0.83739 0.10509 0.0
C760 C 0.84807 0.85623 0.24903 0.0
C761 C 0.84666 0.87893 0.27595 0.0
C762 C 0.84582 0.90748 0.26123 0.0
C763 C 0.8484 0.91361 0.22112 0.0
C764 C 0.8513 0.89086 0.19605 0.0
C765 C 0.8505 0.86262 0.20923 0.0
C766 C 0.85727 0.84252 0.17827 0.0
C767 C 0.88429 0.82739 0.19631 0.0
C768 C 0.83055 0.82033 0.1612 0.0
C769 C 0.86346 0.86409 0.14648 0.0
C770 C 0.85962 0.89182 0.15695 0.0
C771 C 0.8671 0.91574 0.13433 0.0
C772 C 0.87875 0.91112 0.10011 0.0
C773 C 0.88273 0.88284 0.08904 0.0
C774 C 0.87465 0.85912 0.11229 0.0
H775 H 0.98184 0.20841 0.86843 0.0
H776 H 0.90912 0.24635 0.89749 0.0
H777 H 0.92043 0.22704 0.96717 0.0
H778 H 0.97678 0.14363 0.92716 0.0
H779 H 0.01565 0.14413 0.94509 0.0
H780 H 1.00163 0.16019 0.89713 0.0
H781 H 0.0333 0.20877 0.92167 0.0
H782 H 0.04759 0.19283 0.96961 0.0
H783 H 0.03039 0.22539 0.96874 0.0
H784 H 0.93787 0.2005 1.03332 0.0
H785 H 0.96344 0.17532 0.09254 0.0
H786 H 0.0287 0.15829 1.02512 0.0
C787 C 0.9683 0.21268 0.88949 0.0
C788 C 0.94425 0.22886 0.87689 0.0
C789 C 0.92755 0.23418 0.90594 0.0
C790 C 0.93379 0.22311 0.94573 0.0
C791 C 0.9574 0.20714 0.95705 0.0
C792 C 0.97483 0.20248 0.93002 0.0
C793 C 0.99985 0.18588 0.95079 0.0
C794 C 0.99838 0.15673 0.92872 0.0
C795 C 0.02954 0.20431 0.95282 0.0
C796 C 0.99345 0.18139 0.99339 0.0
C797 C 0.96858 0.19354 0.99602 0.0
C798 C 0.95751 0.19124 1.03152 0.0
C799 C 0.97219 0.17661 0.06516 0.0
C800 C 0.99828 0.16461 0.06415 0.0
C801 C 0.00896 0.16722 1.02739 0.0
H802 H 0.64557 0.06919 0.69315 0.0
H803 H 0.7141 0.14046 0.69562 0.0
H804 H 0.70929 0.13484 0.62181 0.0
H805 H 0.6561 0.03057 0.5909 0.0
H806 H 0.61692 0.02195 0.57664 0.0
H807 H 0.63536 0.02078 0.62935 0.0
H808 H 0.60159 0.05583 0.64844 0.0
H809 H 0.58351 0.05702 0.59634 0.0
H810 H 0.59982 0.0903 0.6237 0.0
H811 H 0.68489 0.13598 0.55048 0.0
H812 H 0.64473 0.14252 0.4919 0.0
H813 H 0.59047 0.07186 0.53324 0.0
C814 C 0.6606 0.08238 0.67815 0.0
C815 C 0.67999 0.10525 0.69969 0.0
C816 C 0.6993 0.12252 0.67969 0.0
C817 C 0.69669 0.11943 0.63758 0.0
C818 C 0.67494 0.09877 0.6161 0.0
C819 C 0.65771 0.0798 0.63599 0.0
C820 C 0.63156 0.06451 0.60632 0.0
C821 C 0.63523 0.03256 0.60045 0.0
C822 C 0.60247 0.06718 0.61948 0.0
C823 C 0.6342 0.08129 0.56831 0.0
C824 C 0.66025 0.09963 0.57362 0.0
C825 C 0.66499 0.12094 0.5453 0.0
C826 C 0.6421 0.12465 0.51216 0.0
C827 C 0.61484 0.10752 0.50847 0.0
C828 C 0.61149 0.08469 0.53537 0.0
H829 H 0.57719 0.84238 0.38334 0.0
H830 H 0.5611 0.76022 0.44175 0.0
H831 H 0.5762 0.73513 0.38706 0.0
H832 H 0.55108 0.81409 0.27957 0.0
H833 H 0.57815 0.83572 0.25772 0.0
H834 H 0.56706 0.84907 0.30164 0.0
H835 H 0.62014 0.85581 0.34265 0.0
H836 H 0.63211 0.84355 0.29885 0.0
H837 H 0.6414 0.82588 0.34693 0.0
H838 H 0.5937 0.71775 0.32634 0.0
H839 H 0.61182 0.70961 0.26449 0.0
H840 H 0.6168 0.80165 0.24047 0.0
C841 C 0.57689 0.81911 0.3848 0.0
C842 C 0.56737 0.80361 0.41769 0.0
C843 C 0.56745 0.77303 0.41732 0.0
C844 C 0.57625 0.75838 0.38616 0.0
C845 C 0.58508 0.77411 0.35439 0.0
C846 C 0.58548 0.80383 0.35326 0.0
C847 C 0.5958 0.81515 0.31489 0.0
C848 C 0.5716 0.82938 0.28676 0.0
C849 C 0.62404 0.83636 0.32653 0.0
C850 C 0.60144 0.78727 0.29509 0.0
C851 C 0.59505 0.76394 0.31874 0.0
C852 C 0.59873 0.73596 0.30774 0.0
C853 C 0.60926 0.73155 0.27219 0.0
C854 C 0.61616 0.75475 0.24673 0.0
C855 C 0.61188 0.78317 0.25867 0.0
H856 H 0.62619 0.59005 0.33247 0.0
H857 H 0.71971 0.59681 0.34232 0.0
H858 H 0.72583 0.57973 0.41325 0.0
H859 H 0.628 0.62104 0.42005 0.0
H860 H 0.59715 0.59922 0.43335 0.0
H861 H 0.59936 0.60274 0.38096 0.0
H862 H 0.59487 0.54685 0.37295 0.0
H863 H 0.59264 0.54319 0.42574 0.0
H864 H 0.62002 0.5269 0.40673 0.0
H865 H 0.72282 0.57479 0.48601 0.0
H866 H 0.7111 0.58225 0.55318 0.0
H867 H 0.6194 0.57882 0.49546 0.0
C868 C 0.64778 0.58676 0.34922 0.0
C869 C 0.67249 0.59458 0.33244 0.0
C870 C 0.70055 0.59053 0.35485 0.0
C871 C 0.70415 0.58076 0.395 0.0
C872 C 0.67938 0.57466 0.41164 0.0
C873 C 0.65161 0.57703 0.38907 0.0
C874 C 0.62913 0.57411 0.41536 0.0
C875 C 0.61249 0.60087 0.41226 0.0
C876 C 0.60792 0.54609 0.40455 0.0
C877 C 0.64886 0.57232 0.45677 0.0
C878 C 0.67763 0.5717 0.45403 0.0
C879 C 0.70028 0.57437 0.48854 0.0
C880 C 0.69347 0.57884 0.52652 0.0
C881 C 0.66431 0.58094 0.52949 0.0
C882 C 0.64174 0.57637 0.49436 0.0
H883 H 0.57407 0.28835 0.7477 0.0
H884 H 0.63559 0.23731 0.71133 0.0
H885 H 0.62058 0.25314 0.64028 0.0
H886 H 0.51692 0.27271 0.65402 0.0
H887 H 0.50533 0.30822 0.65313 0.0
H888 H 0.52063 0.29273 0.70099 0.0
H889 H 0.5595 0.3378 0.71759 0.0
H890 H 0.54444 0.35332 0.66968 0.0
H891 H 0.58259 0.34841 0.68218 0.0
H892 H 0.60116 0.27738 0.57316 0.0
H893 H 0.57658 0.30409 0.51512 0.0
H894 H 0.52426 0.33768 0.59159 0.0
C895 C 0.58434 0.28034 0.72479 0.0
C896 C 0.60635 0.26146 0.73579 0.0
C897 C 0.61879 0.25155 0.70431 0.0
C898 C 0.61039 0.26059 0.66364 0.0
C899 C 0.58898 0.27933 0.65404 0.0
C900 C 0.57574 0.28875 0.68363 0.0
C901 C 0.55281 0.30837 0.66483 0.0
C902 C 0.5221 0.2947 0.66847 0.0
C903 C 0.56029 0.33878 0.68477 0.0
C904 C 0.55569 0.30917 0.62024 0.0
C905 C 0.57685 0.29229 0.61494 0.0
C906 C 0.58442 0.29037 0.57714 0.0
C907 C 0.57028 0.30587 0.54412 0.0
C908 C 0.54817 0.32317 0.54802 0.0
C909 C 0.54072 0.32454 0.58698 0.0
H910 H 0.94476 0.42112 0.08728 0.0
H911 H 0.91967 0.33742 0.13433 0.0
H912 H 0.87409 0.33167 0.08173 0.0
H913 H 0.86124 0.43674 1.04257 0.0
H914 H 0.8737 0.4552 1.00091 0.0
H915 H 0.89648 0.45843 1.05151 0.0
H916 H 0.9387 0.44124 1.02368 0.0
H917 H 0.91637 0.4379 0.97363 0.0
H918 H 0.9327 0.407 0.99629 0.0
H919 H 0.84681 0.32574 1.01244 0.0
H920 H 0.84108 0.32153 0.93865 0.0
H921 H 0.87496 0.41208 0.93466 0.0
C922 C 0.92862 0.40247 0.08758 0.0
C923 C 0.93527 0.37971 0.11421 0.0
C924 C 0.91451 0.35518 0.11416 0.0
C925 C 0.8885 0.35187 0.0845 0.0
C926 C 0.88334 0.37375 0.05616 0.0
C927 C 0.90233 0.39927 0.05855 0.0
C928 C 0.89506 0.41689 1.02056 0.0
C929 C 0.88075 0.44337 1.02943 0.0
C930 C 0.9223 0.42619 1.00251 0.0
C931 C 0.87296 0.39495 0.99361 0.0
C932 C 0.86532 0.37078 1.0153 0.0
C933 C 0.85151 0.34491 0.9954 0.0
C934 C 0.84819 0.34269 0.95307 0.0
C935 C 0.85836 0.36639 0.93106 0.0
C936 C 0.86759 0.39354 0.95111 0.0
H937 H 0.92124 0.76793 0.3281 0.0
H938 H 0.95226 0.70205 0.41273 0.0
H939 H 0.97067 0.67921 0.35974 0.0
H940 H 0.89762 0.72012 0.23909 0.0
H941 H 0.90972 0.74551 0.20353 0.0
H942 H 0.89972 0.75852 0.24845 0.0
H943 H 0.95024 0.78912 0.26901 0.0
H944 H 0.96052 0.77617 0.22423 0.0
H945 H 0.9829 0.77179 0.27397 0.0
H946 H 0.98497 0.66116 0.29768 0.0
H947 H 0.99414 0.64949 0.23068 0.0
H948 H 0.95499 0.72513 0.18069 0.0
C949 C 0.9321 0.74884 0.3356 0.0
C950 C 0.9351 0.73727 0.37581 0.0
C951 C 0.94943 0.71197 0.38318 0.0
C952 C 0.96012 0.69855 0.35287 0.0
C953 C 0.95667 0.71015 0.31405 0.0
C954 C 0.9431 0.73478 0.30504 0.0
C955 C 0.94216 0.74201 0.25996 0.0
C956 C 0.91042 0.74151 0.23636 0.0
C957 C 0.96001 0.77154 0.25659 0.0
C958 C 0.95667 0.7173 0.24524 0.0
C959 C 0.96494 0.69941 0.27743 0.0
C960 C 0.97843 0.67502 0.27227 0.0
C961 C 0.9834 0.66839 0.23354 0.0
C962 C 0.97511 0.68582 0.19914 0.0
C963 C 0.96178 0.71105 0.20573 0.0
H964 H 0.35897 0.34013 0.60122 0.0
H965 H 0.38195 0.43195 0.58575 0.0
H966 H 0.36405 0.44258 0.64745 0.0
H967 H 0.29387 0.3465 0.65166 0.0
H968 H 0.30389 0.31749 0.68541 0.0
H969 H 0.31009 0.31717 0.63424 0.0
H970 H 0.36492 0.3129 0.66212 0.0
H971 H 0.35891 0.31258 0.71297 0.0
H972 H 0.38622 0.33921 0.69934 0.0
H973 H 0.35403 0.44263 0.71682 0.0
H974 H 0.357 0.43207 0.78953 0.0
H975 H 0.34214 0.34011 0.76024 0.0
C976 C 0.35893 0.36251 0.60978 0.0
C977 C 0.37149 0.38524 0.58869 0.0
C978 C 0.3723 0.41426 0.60161 0.0
C979 C 0.36185 0.42047 0.63628 0.0
C980 C 0.35052 0.39744 0.65739 0.0
C981 C 0.34886 0.36897 0.64444 0.0
C982 C 0.34101 0.34795 0.67605 0.0
C983 C 0.31039 0.3313 0.66093 0.0
C984 C 0.36416 0.32699 0.68835 0.0
C985 C 0.34114 0.36895 0.71024 0.0
C986 C 0.34536 0.39741 0.69836 0.0
C987 C 0.35003 0.42048 0.72623 0.0
C988 C 0.35191 0.41428 0.76752 0.0
C989 C 0.34979 0.38523 0.78052 0.0
C990 C 0.3429 0.36249 0.75118 0.0
H991 H 0.48341 0.68803 0.55651 0.0
H992 H 0.56379 0.66325 0.53185 0.0
H993 H 0.55169 0.68295 0.4627 0.0
H994 H 0.43846 0.67209 0.455 0.0
H995 H 0.41853 0.70277 0.45451 0.0
H996 H 0.43318 0.68664 0.50216 0.0
H997 H 0.46069 0.73635 0.52934 0.0
H998 H 0.44671 0.7528 0.48162 0.0
H999 H 0.48556 0.75556 0.5015 0.0
H1000 H 0.52978 0.70323 0.39404 0.0
H1001 H 0.50165 0.72473 0.33331 0.0
H1002 H 0.43575 0.73974 0.40061 0.0
C1003 C 0.4985 0.68666 0.53659 0.0
C1004 C 0.52475 0.67371 0.55037 0.0
C1005 C 0.54368 0.67283 0.52281 0.0
C1006 C 0.53692 0.68404 0.48314 0.0
C1007 C 0.51106 0.69654 0.47067 0.0
C1008 C 0.49216 0.6981 0.49665 0.0
C1009 C 0.46591 0.71301 0.47542 0.0
C1010 C 0.43733 0.6924 0.47155 0.0
C1011 C 0.46461 0.74111 0.49834 0.0
C1012 C 0.47291 0.71947 0.43346 0.0
C1013 C 0.49903 0.70948 0.43152 0.0
C1014 C 0.50957 0.71146 0.39563 0.0
C1015 C 0.49328 0.72373 0.36101 0.0
C1016 C 0.46648 0.73445 0.36166 0.0
C1017 C 0.45638 0.73244 0.39893 0.0
H1018 H 0.18778 0.68315 0.18991 0.0
H1019 H 0.21849 0.59913 0.19441 0.0
H1020 H 0.20226 0.59398 0.11969 0.0
H1021 H 0.12545 0.66181 0.13825 0.0
H1022 H 0.11833 0.69284 0.10704 0.0
H1023 H 0.14383 0.69741 0.15482 0.0
H1024 H 0.18469 0.72073 0.12001 0.0
H1025 H 0.15894 0.71735 0.07174 0.0
H1026 H 0.19301 0.70238 0.07756 0.0
H1027 H 0.17023 0.59105 1.05118 0.0
H1028 H 0.12547 0.59021 0.99692 0.0
H1029 H 0.11081 0.67338 1.03985 0.0
C1030 C 0.19301 0.66462 0.17482 0.0
C1031 C 0.20474 0.64172 0.19767 0.0
C1032 C 0.20993 0.61708 0.17723 0.0
C1033 C 0.20077 0.61406 0.13477 0.0
C1034 C 0.1864 0.63581 0.11346 0.0
C1035 C 0.1829 0.66091 0.1329 0.0
C1036 C 0.1605 0.67745 0.10649 0.0
C1037 C 0.13559 0.68261 0.12794 0.0
C1038 C 0.17518 0.70617 0.09314 0.0
C1039 C 0.14989 0.65641 0.07093 0.0
C1040 C 0.16605 0.63326 0.0744 0.0
C1041 C 0.15803 0.60946 1.04751 0.0
C1042 C 0.13258 0.60903 1.01703 0.0
C1043 C 0.11521 0.63181 1.01477 0.0
C1044 C 0.12425 0.656 1.04118 0.0
H1045 H 0.10997 0.24095 0.77077 0.0
H1046 H 0.1373 0.32419 0.72259 0.0
H1047 H 0.12363 0.34898 0.77864 0.0
H1048 H 0.04708 0.26414 0.80487 0.0
H1049 H 0.05166 0.24336 0.85076 0.0
H1050 H 0.06364 0.23114 0.80694 0.0
H1051 H 0.11561 0.22982 0.85069 0.0
H1052 H 0.10377 0.24196 0.89468 0.0
H1053 H 0.13461 0.2619 0.87879 0.0
H1054 H 0.1073 0.36606 0.83986 0.0
H1055 H 0.08989 0.37418 0.90216 0.0
H1056 H 0.07138 0.28118 0.915 0.0
C1057 C 0.11322 0.26439 0.77213 0.0
C1058 C 0.12491 0.28035 0.74133 0.0
C1059 C 0.12848 0.31107 0.74493 0.0
C1060 C 0.12069 0.32555 0.77699 0.0
C1061 C 0.10913 0.30943 0.80632 0.0
C1062 C 0.10533 0.2795 0.80442 0.0
C1063 C 0.09211 0.26786 0.8404 0.0
C1064 C 0.06183 0.2506 0.82482 0.0
C1065 C 0.11276 0.24928 0.86776 0.0
C1066 C 0.08957 0.29586 0.86283 0.0
C1067 C 0.09942 0.31947 0.84214 0.0
C1068 C 0.09936 0.34765 0.85608 0.0
C1069 C 0.08904 0.35207 0.89176 0.0
C1070 C 0.07853 0.3286 0.91427 0.0
C1071 C 0.07912 0.2999 0.89921 0.0
H1072 H 0.02567 0.31514 0.24783 0.0
H1073 H 0.95345 0.29091 0.14703 0.0
H1074 H 0.93792 0.24814 0.1838 0.0
H1075 H 0.05698 0.27252 0.26083 0.0
H1076 H 0.06476 0.26033 0.31275 0.0
H1077 H 0.0551 0.29599 0.30259 0.0
H1078 H 0.01382 0.28632 0.34047 0.0
H1079 H 0.02326 0.25028 0.35148 0.0
H1080 H 0.98642 0.25544 0.3274 0.0
H1081 H 0.94744 0.20165 0.20404 0.0
H1082 H 0.98118 0.17146 0.1862 0.0
H1083 H 0.05256 0.21783 0.27269 0.0
C1084 C 1.00569 0.30128 0.23498 0.0
C1085 C 0.99101 0.30542 0.1948 0.0
C1086 C 0.96521 0.28752 0.17773 0.0
C1087 C 0.95599 0.26352 0.19908 0.0
C1088 C 0.97357 0.2571 0.23653 0.0
C1089 C 0.99727 0.27665 0.25564 0.0
C1090 C 0.01801 0.2616 0.28711 0.0
C1091 C 0.05064 0.27327 0.29083 0.0
C1092 C 0.00985 0.26349 0.32903 0.0
C1093 C 0.00961 0.2311 0.26979 0.0
C1094 C 0.98086 0.2281 0.2471 0.0
C1095 C 0.96978 0.20419 0.22125 0.0
C1096 C 0.98935 0.18719 0.21074 0.0
C1097 C 0.01952 0.19337 0.22738 0.0
C1098 C 0.02939 0.2135 0.25971 0.0
H1099 H 1.00435 0.80636 0.47042 0.0
H1100 H 0.96522 0.72766 0.51664 0.0
H1101 H 0.99567 0.69913 0.48412 0.0
H1102 H 0.99567 0.77995 0.37603 0.0
H1103 H 0.02846 0.7994 0.36483 0.0
H1104 H 0.01102 0.81417 0.40133 0.0
H1105 H 0.05833 0.81692 0.45728 0.0
H1106 H 0.07689 0.80337 0.42114 0.0
H1107 H 0.07622 0.78496 0.46858 0.0
H1108 H 0.02244 0.67946 0.43267 0.0
H1109 H 0.05291 0.67161 0.3827 0.0
H1110 H 0.06797 0.76414 0.36628 0.0
C1111 C 1.00307 0.78322 0.47527 0.0
C1112 C 0.9817 0.7688 0.49406 0.0
C1113 C 0.98106 0.73879 0.50107 0.0
C1114 C 0.99801 0.72251 0.48234 0.0
C1115 C 0.01531 0.73709 0.45771 0.0
C1116 C 0.01845 0.76693 0.45526 0.0
C1117 C 0.03519 0.77778 0.42367 0.0
C1118 C 0.01645 0.79376 0.38949 0.0
C1119 C 0.06339 0.79691 0.44381 0.0
C1120 C 0.04108 0.74943 0.40824 0.0
C1121 C 0.0294 0.72605 0.42781 0.0
C1122 C 0.03191 0.69764 0.41752 0.0
C1123 C 0.04853 0.69333 0.38848 0.0
C1124 C 0.06201 0.7174 0.37048 0.0
C1125 C 0.05725 0.74552 0.37922 0.0
H1126 H 0.50405 0.69552 0.68226 0.0
H1127 H 0.58297 0.71936 0.7723 0.0
H1128 H 0.55679 0.74936 0.8083 0.0
H1129 H 0.48026 0.74142 0.6535 0.0
H1130 H 0.44223 0.74042 0.65591 0.0
H1131 H 0.45797 0.70745 0.65728 0.0
H1132 H 0.44074 0.6948 0.72194 0.0
H1133 H 0.4264 0.72864 0.72419 0.0
H1134 H 0.45245 0.71764 0.76702 0.0
H1135 H 0.53498 0.79226 0.80823 0.0
H1136 H 0.53313 0.83348 0.7631 0.0
H1137 H 0.46173 0.78681 0.67763 0.0
C1138 C 0.51487 0.7054 0.71129 0.0
C1139 C 0.54504 0.70501 0.72486 0.0
C1140 C 0.55969 0.71944 0.76144 0.0
C1141 C 0.54469 0.73608 0.78248 0.0
C1142 C 0.51509 0.73829 0.76636 0.0
C1143 C 0.49973 0.72162 0.73262 0.0
C1144 C 0.47123 0.73304 0.7147 0.0
C1145 C 0.46256 0.73053 0.66757 0.0
C1146 C 0.44632 0.71762 0.73316 0.0
C1147 C 0.47918 0.76372 0.73151 0.0
C1148 C 0.50171 0.7649 0.7663 0.0
C1149 C 0.51798 0.79129 0.78092 0.0
C1150 C 0.5169 0.8148 0.755 0.0
C1151 C 0.49769 0.81226 0.71671 0.0
C1152 C 0.47639 0.78823 0.70726 0.0
H1153 H 0.55995 0.26793 0.85546 0.0
H1154 H 0.55705 0.17611 0.87834 0.0
H1155 H 0.52828 0.18136 0.93101 0.0
H1156 H 0.57295 0.28987 0.95415 0.0
H1157 H 0.55101 0.31932 0.9482 0.0
H1158 H 0.56608 0.30863 0.90646 0.0
H1159 H 0.51553 0.2989 0.8582 0.0
H1160 H 0.49984 0.31188 0.89804 0.0
H1161 H 0.48654 0.27655 0.87507 0.0
H1162 H 0.50386 0.19813 0.98549 0.0
H1163 H 0.47591 0.22312 1.02615 0.0
H1164 H 0.49995 0.30438 0.97116 0.0
C1165 C 0.55174 0.24872 0.86994 0.0
C1166 C 0.55974 0.22154 0.86225 0.0
C1167 C 0.55005 0.19692 0.88297 0.0
C1168 C 0.53432 0.19984 0.91349 0.0
C1169 C 0.52873 0.2275 0.92259 0.0
C1170 C 0.53639 0.25133 0.90057 0.0
C1171 C 0.52903 0.27885 0.91726 0.0
C1172 C 0.55645 0.30047 0.93241 0.0
C1173 C 0.50638 0.29236 0.88527 0.0
C1174 C 0.51636 0.26695 0.95244 0.0
C1175 C 0.51639 0.2373 0.95519 0.0
C1176 C 0.50383 0.22135 0.98369 0.0
C1177 C 0.48865 0.23579 1.00739 0.0
C1178 C 0.48617 0.26563 1.00197 0.0
C1179 C 0.50227 0.28174 0.97679 0.0
H1180 H 0.98538 0.794 0.83886 0.0
H1181 H 0.06819 0.80843 0.92325 0.0
H1182 H 0.08902 0.77729 0.88212 0.0
H1183 H 0.97159 0.74064 0.85769 0.0
H1184 H 0.95635 0.7173 0.81438 0.0
H1185 H 0.95572 0.75492 0.80903 0.0
H1186 H 0.98306 0.75658 0.7506 0.0
H1187 H 0.98339 0.7179 0.75372 0.0
H1188 H 0.01685 0.7415 0.75616 0.0
H1189 H 0.09361 0.72893 0.86547 0.0
H1190 H 0.08148 0.68731 0.90628 0.0
H1191 H 0.98978 0.69163 0.86051 0.0
C1192 C 0.00813 0.79069 0.84746 0.0
C1193 C 0.02499 0.8025 0.88425 0.0
C1194 C 0.05477 0.79925 0.89501 0.0
C1195 C 0.06668 0.78152 0.87123 0.0
C1196 C 0.04769 0.76413 0.84035 0.0
C1197 C 0.01849 0.76911 0.8279 0.0
C1198 C 0.99934 0.7414 0.8121 0.0
C1199 C 0.96912 0.73836 0.82415 0.0
C1200 C 0.99542 0.7392 0.76545 0.0
C1201 C 0.01944 0.72017 0.83225 0.0
C1202 C 0.04841 0.73295 0.83857 0.0
C1203 C 0.07107 0.71927 0.86141 0.0
C1204 C 0.06401 0.6961 0.88539 0.0
C1205 C 0.0346 0.68742 0.88672 0.0
C1206 C 0.01221 0.69818 0.85856 0.0
H1207 H 0.54737 0.68881 0.11735 0.0
H1208 H 0.58156 0.76958 0.07101 0.0
H1209 H 0.54906 0.79551 0.10212 0.0
H1210 H 0.46988 0.71027 0.12538 0.0
H1211 H 0.47395 0.68943 0.17128 0.0
H1212 H 0.48811 0.67821 0.12901 0.0
H1213 H 0.5373 0.67781 0.18206 0.0
H1214 H 0.52394 0.69339 0.22212 0.0
H1215 H 0.55568 0.71149 0.2064 0.0
H1216 H 0.52696 0.81397 0.15639 0.0
H1217 H 0.50448 0.82211 0.21509 0.0
H1218 H 0.48958 0.72948 0.23106 0.0
C1219 C 0.54601 0.71148 0.11077 0.0
C1220 C 0.56694 0.72748 0.09267 0.0
C1221 C 0.56544 0.75719 0.08507 0.0
C1222 C 0.54739 0.77213 0.10324 0.0
C1223 C 0.53065 0.75656 0.12753 0.0
C1224 C 0.52881 0.72663 0.12997 0.0
C1225 C 0.51412 0.71559 0.16386 0.0
C1226 C 0.48474 0.69734 0.14629 0.0
C1227 C 0.53397 0.69858 0.19542 0.0
C1228 C 0.50993 0.74392 0.18184 0.0
C1229 C 0.51917 0.76732 0.16027 0.0
C1230 C 0.51904 0.79577 0.17299 0.0
C1231 C 0.50714 0.80025 0.20698 0.0
C1232 C 0.4962 0.77634 0.22783 0.0
C1233 C 0.49849 0.74801 0.21592 0.0
H1234 H 0.5811 0.21674 0.42981 0.0
H1235 H 0.49871 0.17497 0.36208 0.0
H1236 H 0.50025 0.20919 0.30736 0.0
H1237 H 0.57478 0.26998 0.44397 0.0
H1238 H 0.60029 0.29789 0.4287 0.0
H1239 H 0.60988 0.26201 0.43687 0.0
H1240 H 0.62011 0.25988 0.36537 0.0
H1241 H 0.61098 0.29626 0.35721 0.0
H1242 H 0.59314 0.26763 0.32148 0.0
H1243 H 0.48891 0.25581 0.29377 0.0
H1244 H 0.46893 0.28935 0.33271 0.0
H1245 H 0.55407 0.31277 0.40918 0.0
C1246 C 0.5641 0.2148 0.40235 0.0
C1247 C 0.53954 0.19412 0.40017 0.0
C1248 C 0.51747 0.19111 0.36466 0.0
C1249 C 0.5185 0.21039 0.33305 0.0
C1250 C 0.53993 0.23442 0.33916 0.0
C1251 C 0.56384 0.23576 0.37206 0.0
C1252 C 0.57815 0.26668 0.37956 0.0
C1253 C 0.59143 0.27456 0.425 0.0
C1254 C 0.60193 0.27297 0.35437 0.0
C1255 C 0.55187 0.28168 0.36106 0.0
C1256 C 0.53263 0.26377 0.33137 0.0
C1257 C 0.50372 0.26938 0.31724 0.0
C1258 C 0.49221 0.28813 0.33998 0.0
C1259 C 0.51019 0.30249 0.37457 0.0
C1260 C 0.54047 0.30156 0.38254 0.0
H1261 H 0.08046 0.28586 0.60841 0.0
H1262 H 0.04898 0.19523 0.58022 0.0
H1263 H 0.00698 0.19966 0.61064 0.0
H1264 H 0.07025 0.2892 0.69699 0.0
H1265 H 0.05649 0.32343 0.69868 0.0
H1266 H 0.07815 0.31739 0.66227 0.0
H1267 H 0.03602 0.32841 0.60202 0.0
H1268 H 0.01584 0.33636 0.63982 0.0
H1269 H 0.9997 0.31032 0.59977 0.0
H1270 H 0.99344 0.2065 0.67603 0.0
H1271 H 0.97684 0.22314 0.73564 0.0
H1272 H 1.00381 0.31198 0.70918 0.0
C1273 C 0.06339 0.26768 0.60566 0.0
C1274 C 0.06841 0.23994 0.59403 0.0
C1275 C 0.04587 0.21649 0.59024 0.0
C1276 C 0.02193 0.21875 0.60764 0.0
C1277 C 0.02014 0.24516 0.62552 0.0
C1278 C 0.03861 0.27003 0.62151 0.0
C1279 C 0.03331 0.29478 0.64731 0.0
C1280 C 0.06125 0.30693 0.67806 0.0
C1281 C 0.02046 0.31888 0.62061 0.0
C1282 C 0.01121 0.27898 0.66904 0.0
C1283 C 1.00514 0.25008 0.6573 0.0
C1284 C 0.99415 0.22941 0.68203 0.0
C1285 C 0.9852 0.23891 0.71611 0.0
C1286 C 0.98618 0.26872 0.72407 0.0
C1287 C 1.00073 0.28906 0.7016 0.0
H1288 H 0.05141 0.03341 0.15577 0.0
H1289 H 0.05026 0.09707 0.06128 0.0
H1290 H 0.04443 0.05796 1.00961 0.0
H1291 H 0.09108 0.98116 0.1089 0.0
H1292 H 0.06997 0.95027 0.12572 0.0
H1293 H 0.07781 0.98364 0.15516 0.0
H1294 H 0.02237 0.98343 0.15094 0.0
H1295 H 0.01427 0.95069 0.12019 0.0
H1296 H 0.99788 0.98252 0.10171 0.0
H1297 H 0.03104 0.01077 0.9665 0.0
H1298 H 0.02259 0.96052 0.93806 0.0
H1299 H 0.03493 0.92734 0.0604 0.0
C1300 C 0.05178 0.03917 0.12458 0.0
C1301 C 0.05272 0.0686 0.11298 0.0
C1302 C 0.05103 0.07494 0.07128 0.0
C1303 C 0.04709 0.05273 1.04152 0.0
C1304 C 0.04487 0.02393 1.05367 0.0
C1305 C 0.04812 0.01712 0.09443 0.0
C1306 C 0.04416 0.98439 0.09929 0.0
C1307 C 0.07244 0.97426 0.1237 0.0
C1308 C 0.01813 0.97471 0.11922 0.0
C1309 C 0.03781 0.97389 1.05506 0.0
C1310 C 0.03781 0.99702 1.02908 0.0
C1311 C 0.03134 0.99257 0.98673 0.0
C1312 C 0.02607 0.96392 0.9707 0.0
C1313 C 0.02755 0.93993 0.99685 0.0
C1314 C 0.03316 0.9452 1.03956 0.0
H1315 H 0.21561 0.77259 0.29162 0.0
H1316 H 0.22768 0.71762 0.39708 0.0
H1317 H 0.27838 0.71435 0.39071 0.0
H1318 H 0.25717 0.73344 0.23515 0.0
H1319 H 0.27233 0.76545 0.21267 0.0
H1320 H 0.23724 0.76431 0.2262 0.0
H1321 H 0.25609 0.81092 0.26964 0.0
H1322 H 0.29186 0.81203 0.25819 0.0
H1323 H 0.28786 0.81174 0.3104 0.0
H1324 H 0.32752 0.71718 0.374 0.0
H1325 H 0.37118 0.72175 0.34409 0.0
H1326 H 0.32842 0.7734 0.24697 0.0
C1327 C 0.22904 0.75995 0.31336 0.0
C1328 C 0.21776 0.74548 0.34507 0.0
C1329 C 0.23583 0.72888 0.37266 0.0
C1330 C 0.26471 0.72699 0.36933 0.0
C1331 C 0.27527 0.74161 0.33801 0.0
C1332 C 0.25795 0.75743 0.31008 0.0
C1333 C 0.27452 0.76983 0.27819 0.0
C1334 C 0.25942 0.75752 0.23553 0.0
C1335 C 0.27778 0.80311 0.27916 0.0
C1336 C 0.30394 0.75873 0.29286 0.0
C1337 C 0.30375 0.74268 0.32764 0.0
C1338 C 0.32791 0.72968 0.3468 0.0
C1339 C 0.35266 0.73246 0.32958 0.0
C1340 C 0.35338 0.7481 0.29343 0.0
C1341 C 0.32872 0.76172 0.27501 0.0
H1342 H 0.50045 0.06319 0.49988 0.0
H1343 H 0.57107 0.03206 0.45494 0.0
H1344 H 0.57406 0.994 0.50613 0.0
H1345 H 0.52813 0.04887 0.60778 0.0
H1346 H 0.49252 0.0369 0.61776 0.0
H1347 H 0.49634 0.06287 0.5786 0.0
H1348 H 0.45896 0.02938 0.52587 0.0
H1349 H 0.45506 0.0033 0.56483 0.0
H1350 H 0.46524 0.99249 0.51887 0.0
H1351 H 0.57019 0.95923 0.56171 0.0
H1352 H 0.55753 0.92782 0.61634 0.0
H1353 H 0.4877 0.97818 0.6255 0.0
C1354 C 0.5166 0.04844 0.50107 0.0
C1355 C 0.53568 0.05088 0.47335 0.0
C1356 C 0.55618 0.03078 0.47559 0.0
C1357 C 0.55818 0.00906 0.5048 0.0
C1358 C 0.53927 0.00721 0.53166 0.0
C1359 C 0.51869 0.02614 0.53005 0.0
C1360 C 0.50043 0.01834 0.56195 0.0
C1361 C 0.5046 0.04323 0.59338 0.0
C1362 C 0.468 0.01041 0.54166 0.0
C1363 C 0.51376 0.99194 0.58115 0.0
C1364 C 0.53638 0.98627 0.56333 0.0
C1365 C 0.55232 0.96329 0.57561 0.0
C1366 C 0.54479 0.94534 0.60649 0.0
C1367 C 0.52126 0.95 0.6247 0.0
C1368 C 0.50573 0.97391 0.61206 0.0
H1369 H 0.35081 0.25338 0.84788 0.0
H1370 H 0.30381 0.26842 0.94185 0.0
H1371 H 0.25768 0.26576 0.88932 0.0
H1372 H 0.3076 0.29624 0.76789 0.0
H1373 H 0.31058 0.27173 0.72806 0.0
H1374 H 0.33907 0.27703 0.77341 0.0
H1375 H 0.33254 0.22128 0.7831 0.0
H1376 H 0.30298 0.21649 0.73895 0.0
H1377 H 0.29728 0.20321 0.78753 0.0
H1378 H 0.2159 0.25753 0.82635 0.0
H1379 H 0.18357 0.25415 0.75842 0.0
H1380 H 0.25734 0.24626 0.70319 0.0
C1381 C 0.33093 0.25713 0.8572 0.0
C1382 C 0.33112 0.26187 0.89909 0.0
C1383 C 0.30449 0.26576 0.91007 0.0
C1384 C 0.27808 0.26379 0.88035 0.0
C1385 C 0.27857 0.25821 0.83951 0.0
C1386 C 0.30451 0.25579 0.82778 0.0
C1387 C 0.29919 0.25032 0.78183 0.0
C1388 C 0.31506 0.27532 0.7616 0.0
C1389 C 0.30857 0.22108 0.77231 0.0
C1390 C 0.26609 0.24968 0.76933 0.0
C1391 C 0.25468 0.25386 0.8033 0.0
C1392 C 0.22477 0.2543 0.79975 0.0
C1393 C 0.20635 0.25189 0.76071 0.0
C1394 C 0.21735 0.24881 0.72496 0.0
C1395 C 0.24781 0.24733 0.72969 0.0
H1396 H 0.71333 0.28115 0.78922 0.0
H1397 H 0.72412 0.22793 0.89655 0.0
H1398 H 0.77417 0.22215 0.88964 0.0
H1399 H 0.75096 0.2385 0.73312 0.0
H1400 H 0.76751 0.26898 0.7091 0.0
H1401 H 0.73325 0.2708 0.72393 0.0
H1402 H 0.75581 0.31742 0.76619 0.0
H1403 H 0.79048 0.31552 0.75246 0.0
H1404 H 0.78838 0.31691 0.80534 0.0
H1405 H 0.82232 0.2217 0.87183 0.0
H1406 H 0.86408 0.22069 0.83911 0.0
H1407 H 0.8232 0.27211 0.7402 0.0
C1408 C 0.72639 0.26844 0.81133 0.0
C1409 C 0.71493 0.25514 0.8437 0.0
C1410 C 0.73242 0.2383 0.87163 0.0
C1411 C 0.76096 0.23507 0.86808 0.0
C1412 C 0.77173 0.24858 0.83615 0.0
C1413 C 0.75493 0.26455 0.80779 0.0
C1414 C 0.77134 0.27492 0.77476 0.0
C1415 C 0.75478 0.26256 0.73274 0.0
C1416 C 0.77682 0.30817 0.77469 0.0
C1417 C 0.79985 0.26203 0.78885 0.0
C1418 C 0.79958 0.24742 0.8248 0.0
C1419 C 0.82279 0.23308 0.84373 0.0
C1420 C 0.84648 0.2327 0.82487 0.0
C1421 C 0.84704 0.24644 0.78724 0.0
C1422 C 0.82362 0.26186 0.7693 0.0
H1423 H 0.80388 0.77084 0.40678 0.0
H1424 H 0.86606 0.72974 0.35544 0.0
H1425 H 0.83126 0.72337 0.28968 0.0
H1426 H 0.74024 0.72651 0.3562 0.0
H1427 H 0.71696 0.75473 0.34541 0.0
H1428 H 0.7473 0.75849 0.38857 0.0
H1429 H 0.76849 0.8073 0.36165 0.0
H1430 H 0.73719 0.8039 0.31977 0.0
H1431 H 0.77351 0.80875 0.3099 0.0
H1432 H 0.78729 0.71589 0.23026 0.0
H1433 H 0.74082 0.71649 0.17906 0.0
H1434 H 0.70738 0.76476 0.26513 0.0
C1435 C 0.8105 0.76142 0.38134 0.0
C1436 C 0.83821 0.75116 0.38673 0.0
C1437 C 0.84533 0.73815 0.35251 0.0
C1438 C 0.82551 0.73416 0.31477 0.0
C1439 C 0.79814 0.7434 0.31073 0.0
C1440 C 0.7908 0.75749 0.34267 0.0
C1441 C 0.75971 0.76523 0.32959 0.0
C1442 C 0.73989 0.75035 0.35656 0.0
C1443 C 0.75974 0.79826 0.33029 0.0
C1444 C 0.75082 0.75289 0.28598 0.0
C1445 C 0.7732 0.74005 0.27585 0.0
C1446 C 0.76973 0.72625 0.23776 0.0
C1447 C 0.74312 0.72637 0.20886 0.0
C1448 C 0.72033 0.74059 0.2178 0.0
C1449 C 0.72437 0.75369 0.2572 0.0
H1450 H 0.52356 0.57344 0.55568 0.0
H1451 H 0.5575 0.54559 0.67788 0.0
H1452 H 0.55239 0.49497 0.65166 0.0
H1453 H 0.47083 0.51312 0.52234 0.0
H1454 H 0.47708 0.51136 0.47133 0.0
H1455 H 0.48447 0.54546 0.499 0.0
H1456 H 0.53778 0.5519 0.48901 0.0
H1457 H 0.53041 0.5182 0.4604 0.0
H1458 H 0.56033 0.52351 0.50408 0.0
H1459 H 0.53985 0.44663 0.61233 0.0
H1460 H 0.53033 0.40603 0.56244 0.0
H1461 H 0.50649 0.46491 0.46415 0.0
C1462 C 0.53052 0.55673 0.5768 0.0
C1463 C 0.54113 0.56357 0.61896 0.0
C1464 C 0.54977 0.54107 0.64555 0.0
C1465 C 0.54657 0.51217 0.63086 0.0
C1466 C 0.53508 0.50606 0.58934 0.0
C1467 C 0.52799 0.52789 0.56248 0.0
C1468 C 0.51699 0.51572 0.51907 0.0
C1469 C 0.48547 0.52179 0.50194 0.0
C1470 C 0.5376 0.52806 0.49151 0.0
C1471 C 0.51833 0.48344 0.52562 0.0
C1472 C 0.52856 0.47841 0.56654 0.0
C1473 C 0.5319 0.45047 0.58034 0.0
C1474 C 0.52601 0.4274 0.55171 0.0
C1475 C 0.51676 0.43191 0.50938 0.0
C1476 C 0.51238 0.46041 0.4963 0.0
H1477 H 0.06373 0.52628 0.99111 0.0
H1478 H 0.98859 0.57046 0.9946 0.0
H1479 H 0.97635 0.53806 1.0484 0.0
H1480 H 0.02799 0.4533 1.00735 0.0
H1481 H 0.06051 0.44197 1.03858 0.0
H1482 H 0.06349 0.4684 0.99975 0.0
H1483 H 0.09676 0.50405 1.05397 0.0
H1484 H 0.09373 0.4777 0.09287 0.0
H1485 H 0.0839 0.51345 0.09847 0.0
H1486 H 0.97268 0.50227 0.10323 0.0
H1487 H 0.97718 0.4644 0.15501 0.0
H1488 H 0.05337 0.44057 0.11637 0.0
C1489 C 0.04467 0.529 1.00317 0.0
C1490 C 0.02745 0.55147 0.9891 0.0
C1491 C 1.00259 0.5541 1.00554 0.0
C1492 C 0.99528 0.53555 1.03593 0.0
C1493 C 0.01279 0.51395 1.04956 0.0
C1494 C 0.03686 0.51032 1.03361 0.0
C1495 C 0.05186 0.48521 1.05416 0.0
C1496 C 0.0509 0.46078 1.0231 0.0
C1497 C 0.08344 0.49574 0.07618 0.0
C1498 C 0.03273 0.47573 0.08444 0.0
C1499 C 0.01029 0.49268 0.08101 0.0
C1500 C 0.99009 0.48881 0.10606 0.0
C1501 C 0.99289 0.46724 0.13556 0.0
C1502 C 0.01557 0.44944 0.13989 0.0
C1503 C 0.03567 0.45368 0.11367 0.0
H1504 H 0.05691 0.12967 0.34382 0.0
H1505 H 0.11806 0.18218 0.28453 0.0
H1506 H 0.1414 0.20672 0.34937 0.0
H1507 H 0.05091 0.18584 0.41755 0.0
H1508 H 0.05056 0.1618 0.45977 0.0
H1509 H 0.03694 0.14808 0.4083 0.0
H1510 H 0.07266 0.10969 0.42076 0.0
H1511 H 0.08643 0.12323 0.4723 0.0
H1512 H 0.11123 0.12097 0.43863 0.0
H1513 H 0.15827 0.22847 0.42048 0.0
H1514 H 0.16971 0.24216 0.49356 0.0
H1515 H 0.10279 0.17448 0.51422 0.0
C1516 C 0.07529 0.1462 0.34444 0.0
C1517 C 0.08535 0.15332 0.30756 0.0
C1518 C 0.1096 0.17544 0.31113 0.0
C1519 C 0.12319 0.18992 0.34834 0.0
C1520 C 0.11316 0.18237 0.38364 0.0
C1521 C 0.08998 0.16079 0.38245 0.0
C1522 C 0.08471 0.1567 0.42611 0.0
C1523 C 0.05395 0.1635 0.42804 0.0
C1524 C 0.08901 0.1258 0.44029 0.0
C1525 C 0.1085 0.17916 0.45148 0.0
C1526 C 0.12422 0.19397 0.42579 0.0
C1527 C 0.14634 0.21661 0.44086 0.0
C1528 C 0.15281 0.22431 0.48284 0.0
C1529 C 0.13801 0.20925 0.51088 0.0
C1530 C 0.11535 0.18616 0.4944 0.0
H1531 H 0.15235 0.81928 0.60585 0.0
H1532 H 0.13006 0.89974 0.54816 0.0
H1533 H 0.12953 0.92058 0.61519 0.0
H1534 H 0.10311 0.81862 0.67196 0.0
H1535 H 0.12648 0.80254 0.71331 0.0
H1536 H 0.12863 0.79537 0.66152 0.0
H1537 H 0.18413 0.81357 0.67914 0.0
H1538 H 0.18209 0.82112 0.73095 0.0
H1539 H 0.19652 0.84937 0.70107 0.0
H1540 H 0.12943 0.93201 0.68805 0.0
H1541 H 0.12473 0.93127 0.76013 0.0
H1542 H 0.14304 0.84216 0.76817 0.0
C1543 C 0.14718 0.84124 0.60701 0.0
C1544 C 0.1415 0.85789 0.57156 0.0
C1545 C 0.1352 0.8867 0.5749 0.0
C1546 C 0.13474 0.89874 0.61284 0.0
C1547 C 0.14033 0.88161 0.64703 0.0
C1548 C 0.14606 0.85337 0.64436 0.0
C1549 C 0.14883 0.83867 0.68498 0.0
C1550 C 0.12536 0.81225 0.6828 0.0
C1551 C 0.17974 0.8302 0.6999 0.0
C1552 C 0.14333 0.86296 0.71084 0.0
C1553 C 0.13904 0.88774 0.68863 0.0
C1554 C 0.13291 0.91281 0.70585 0.0
C1555 C 0.13043 0.91226 0.74669 0.0
C1556 C 0.13365 0.88669 0.76929 0.0
C1557 C 0.14061 0.86196 0.75134 0.0
H1558 H 0.4347 0.76452 0.09821 0.0
H1559 H 0.41247 0.84473 0.14148 0.0
H1560 H 0.42169 0.86879 0.07914 0.0
H1561 H 0.49358 0.79845 1.05236 0.0
H1562 H 0.48611 0.77397 1.00897 0.0
H1563 H 0.47664 0.76191 0.05613 0.0
H1564 H 0.42325 0.74712 1.01872 0.0
H1565 H 0.43239 0.759 0.97129 0.0
H1566 H 0.40338 0.77342 0.98894 0.0
H1567 H 0.43401 0.88554 1.01238 0.0
H1568 H 0.44811 0.89379 0.94668 0.0
H1569 H 0.46414 0.80409 0.94193 0.0
C1570 C 0.43129 0.78704 0.0943 0.0
C1571 C 0.42231 0.80241 0.12557 0.0
C1572 C 0.41901 0.83209 0.11877 0.0
C1573 C 0.42429 0.8461 0.0831 0.0
C1574 C 0.43324 0.83063 1.05337 0.0
C1575 C 0.43675 0.80169 0.05838 0.0
C1576 C 0.44743 0.79068 1.02158 0.0
C1577 C 0.47774 0.78065 1.03559 0.0
C1578 C 0.42529 0.76609 0.99878 0.0
C1579 C 0.44908 0.81784 0.99513 0.0
C1580 C 0.44082 0.84053 1.01456 0.0
C1581 C 0.44064 0.86788 0.99717 0.0
C1582 C 0.44908 0.87244 0.95945 0.0
C1583 C 0.45799 0.85003 0.93804 0.0
C1584 C 0.4576 0.82204 0.95662 0.0
H1585 H 0.4485 0.16729 0.36883 0.0
H1586 H 0.44523 0.07419 0.3638 0.0
H1587 H 0.40942 0.07224 0.29848 0.0
H1588 H 0.36838 0.17091 0.30359 0.0
H1589 H 0.38189 0.20315 0.27994 0.0
H1590 H 0.39693 0.19653 0.3327 0.0
H1591 H 0.44863 0.20193 0.31702 0.0
H1592 H 0.43389 0.20798 0.26446 0.0
H1593 H 0.45582 0.17891 0.27805 0.0
H1594 H 0.38885 0.08118 0.22695 0.0
H1595 H 0.38232 0.0998 0.15738 0.0
H1596 H 0.39821 0.18781 0.20613 0.0
C1597 C 0.43856 0.14647 0.35512 0.0
C1598 C 0.44881 0.12082 0.37147 0.0
C1599 C 0.43674 0.0939 0.35219 0.0
C1600 C 0.4165 0.09267 0.31495 0.0
C1601 C 0.40855 0.1186 0.29759 0.0
C1602 C 0.41859 0.14506 0.31758 0.0
C1603 C 0.41153 0.16995 0.2893 0.0
C1604 C 0.38829 0.18608 0.30214 0.0
C1605 C 0.43912 0.19089 0.2871 0.0
C1606 C 0.39922 0.15347 0.24943 0.0
C1607 C 0.39659 0.12389 0.25512 0.0
C1608 C 0.38973 0.10427 0.22225 0.0
C1609 C 0.3861 0.11509 0.1827 0.0
C1610 C 0.38968 0.14531 0.17621 0.0
C1611 C 0.39533 0.1646 0.2101 0.0
H1612 H 0.89415 0.79171 0.63944 0.0
H1613 H 0.96685 0.81899 0.58206 0.0
H1614 H 0.99599 0.83942 0.64782 0.0
H1615 H 0.90594 0.85694 0.70619 0.0
H1616 H 0.89569 0.83796 0.74896 0.0
H1617 H 0.8804 0.82428 0.69782 0.0
H1618 H 0.89839 0.77532 0.71784 0.0
H1619 H 0.91472 0.78863 0.76888 0.0
H1620 H 0.93659 0.77369 0.73821 0.0
H1621 H 0.0192 0.85654 0.72219 0.0
H1622 H 0.03231 0.87092 0.79517 0.0
H1623 H 0.94489 0.83697 0.80767 0.0
C1624 C 0.91624 0.80186 0.64067 0.0
C1625 C 0.92791 0.80326 0.6043 0.0
C1626 C 0.95696 0.81731 0.60845 0.0
C1627 C 0.97391 0.82908 0.64616 0.0
C1628 C 0.96196 0.82754 0.68101 0.0
C1629 C 0.93358 0.81456 0.67862 0.0
C1630 C 0.92593 0.8171 0.72086 0.0
C1631 C 0.90047 0.83514 0.7183 0.0
C1632 C 0.91846 0.7869 0.73745 0.0
C1633 C 0.95435 0.83306 0.74718 0.0
C1634 C 0.97488 0.83865 0.72338 0.0
C1635 C 1.00297 0.85245 0.74068 0.0
C1636 C 0.01032 0.86077 0.78267 0.0
C1637 C 0.98987 0.85604 0.80836 0.0
C1638 C 0.96126 0.84182 0.78956 0.0
H1639 H 0.93027 0.16411 0.53099 0.0
H1640 H 0.97117 0.09605 0.60173 0.0
H1641 H 0.97954 0.07478 0.53855 0.0
H1642 H 0.89466 0.12318 0.44403 0.0
H1643 H 0.9019 0.1511 0.40876 0.0
H1644 H 0.89917 0.16081 0.45947 0.0
H1645 H 0.95071 0.19043 0.4717 0.0
H1646 H 0.95345 0.18121 0.42077 0.0
H1647 H 0.98128 0.17322 0.46361 0.0
H1648 H 0.98205 0.06054 0.46684 0.0
H1649 H 0.98185 0.05667 0.39317 0.0
H1650 H 0.94139 0.13571 0.37241 0.0
C1651 C 0.94157 0.14509 0.53365 0.0
C1652 C 0.95007 0.13177 0.57138 0.0
C1653 C 0.96408 0.10641 0.57302 0.0
C1654 C 0.96907 0.09427 0.53741 0.0
C1655 C 0.96021 0.108 0.50073 0.0
C1656 C 0.94713 0.13307 0.49882 0.0
C1657 C 0.94006 0.14409 0.45603 0.0
C1658 C 0.90698 0.14482 0.44122 0.0
C1659 C 0.95741 0.174 0.45286 0.0
C1660 C 0.95071 0.12096 0.43387 0.0
C1661 C 0.96223 0.10026 0.46 0.0
C1662 C 0.97319 0.07666 0.4461 0.0
C1663 C 0.97278 0.0745 0.40436 0.0
C1664 C 0.96162 0.09593 0.37754 0.0
C1665 C 0.95022 0.11919 0.39249 0.0
H1666 H 0.61065 0.24488 1.00392 0.0
H1667 H 0.65481 0.17261 0.97921 0.0
H1668 H 0.64681 0.15023 1.04296 0.0
H1669 H 0.63797 0.24702 0.11613 0.0
H1670 H 0.60414 0.25506 0.12767 0.0
H1671 H 0.61374 0.26668 0.08041 0.0
H1672 H 0.56499 0.2401 1.0403 0.0
H1673 H 0.55511 0.22827 0.0873 0.0
H1674 H 0.5556 0.20205 1.04824 0.0
H1675 H 0.63359 0.13392 0.10902 0.0
H1676 H 0.61665 0.12511 0.1727 0.0
H1677 H 0.57966 0.20645 0.16004 0.0
C1678 C 0.61904 0.22456 1.01219 0.0
C1679 C 0.63378 0.21087 0.98555 0.0
C1680 C 0.64364 0.18394 0.99809 0.0
C1681 C 0.63915 0.17087 1.03469 0.0
C1682 C 0.62451 0.18454 0.05976 0.0
C1683 C 0.61461 0.21087 1.0493 0.0
C1684 C 0.59897 0.22024 0.08216 0.0
C1685 C 0.61464 0.24896 0.10281 0.0
C1686 C 0.56675 0.22282 0.06339 0.0
C1687 C 0.60172 0.1951 0.11241 0.0
C1688 C 0.61658 0.17486 0.09841 0.0
C1689 C 0.62184 0.14964 0.12004 0.0
C1690 C 0.61175 0.14468 0.15652 0.0
C1691 C 0.59615 0.16457 0.17242 0.0
C1692 C 0.59144 0.1905 0.14961 0.0
H1693 H 0.58733 0.83033 0.74395 0.0
H1694 H 0.6023 0.92384 0.74781 0.0
H1695 H 0.63976 0.92273 0.81119 0.0
H1696 H 0.58346 0.82164 0.83662 0.0
H1697 H 0.60178 0.78994 0.84875 0.0
H1698 H 0.58573 0.79664 0.79681 0.0
H1699 H 0.63477 0.79499 0.77559 0.0
H1700 H 0.65134 0.78756 0.8275 0.0
H1701 H 0.66695 0.81774 0.80189 0.0
H1702 H 0.66241 0.91262 0.88139 0.0
H1703 H 0.67053 0.89445 0.95119 0.0
H1704 H 0.64236 0.80667 0.90366 0.0
C1705 C 0.60013 0.85033 0.75686 0.0
C1706 C 0.59295 0.87712 0.7408 0.0
C1707 C 0.60844 0.90318 0.75928 0.0
C1708 C 0.62968 0.90268 0.79527 0.0
C1709 C 0.6351 0.87591 0.81213 0.0
C1710 C 0.62127 0.85006 0.79301 0.0
C1711 C 0.62657 0.82468 0.82097 0.0
C1712 C 0.59766 0.80725 0.82613 0.0
C1713 C 0.64609 0.80509 0.80557 0.0
C1714 C 0.64266 0.84058 0.85994 0.0
C1715 C 0.64832 0.86996 0.85383 0.0
C1716 C 0.65915 0.88955 0.88632 0.0
C1717 C 0.66367 0.87899 0.926 0.0
C1718 C 0.65716 0.84908 0.933 0.0
C1719 C 0.64751 0.82965 0.89933 0.0
H1720 H 0.61256 0.68257 0.80592 0.0
H1721 H 0.5403 0.61906 0.82035 0.0
H1722 H 0.55236 0.6295 0.89468 0.0
H1723 H 0.66309 0.67351 0.90118 0.0
H1724 H 0.67501 0.71158 0.91135 0.0
H1725 H 0.66209 0.6983 0.85957 0.0
H1726 H 0.62379 0.73431 0.84762 0.0
H1727 H 0.63667 0.74781 0.89932 0.0
H1728 H 0.59862 0.73438 0.88115 0.0
H1729 H 0.57493 0.64407 0.96937 0.0
H1730 H 0.60004 0.66592 1.03568 0.0
H1731 H 0.65376 0.72714 0.97616 0.0
C1732 C 0.5993 0.67072 0.82472 0.0
C1733 C 0.57558 0.64923 0.80642 0.0
C1734 C 0.55868 0.6351 0.83276 0.0
C1735 C 0.56545 0.64101 0.87538 0.0
C1736 C 0.5888 0.66209 0.89225 0.0
C1737 C 0.60503 0.67737 0.86757 0.0
C1738 C 0.62755 0.70051 0.89353 0.0
C1739 C 0.65879 0.69569 0.89126 0.0
C1740 C 0.6213 0.73106 0.87958 0.0
C1741 C 0.62221 0.6952 0.93687 0.0
C1742 C 0.59992 0.67256 0.93504 0.0
C1743 C 0.59196 0.66212 0.9707 0.0
C1744 C 0.60662 0.67489 1.00877 0.0
C1745 C 0.62897 0.69888 1.01254 0.0
C1746 C 0.63665 0.70923 0.97529 0.0
H1747 H 0.62682 0.36572 0.24379 0.0
H1748 H 0.54894 0.409 0.22161 0.0
H1749 H 0.54586 0.40535 0.1471 0.0
H1750 H 0.65834 0.40011 0.16461 0.0
H1751 H 0.67294 0.3681 0.15222 0.0
H1752 H 0.66838 0.37401 0.2033 0.0
H1753 H 0.63664 0.32396 0.20023 0.0
H1754 H 0.64111 0.31791 0.14915 0.0
H1755 H 0.60497 0.31596 0.15945 0.0
H1756 H 0.55066 0.39458 0.07516 0.0
H1757 H 0.56389 0.37925 1.0117 0.0
H1758 H 0.64105 0.34739 0.08367 0.0
C1759 C 0.60919 0.37444 0.22312 0.0
C1760 C 0.58804 0.38751 0.23774 0.0
C1761 C 0.56532 0.39898 0.21035 0.0
C1762 C 0.56341 0.39696 0.16827 0.0
C1763 C 0.5847 0.38385 0.15467 0.0
C1764 C 0.60727 0.37302 0.18136 0.0
C1765 C 0.62755 0.36019 0.15937 0.0
C1766 C 0.65863 0.3766 0.17053 0.0
C1767 C 0.62755 0.32758 0.16754 0.0
C1768 C 0.6129 0.36545 0.11607 0.0
C1769 C 0.58807 0.37882 0.11375 0.0
C1770 C 0.57027 0.38444 0.07655 0.0
C1771 C 0.57804 0.37586 1.04077 0.0
C1772 C 0.60345 0.36211 1.04285 0.0
C1773 C 0.62124 0.35744 0.08103 0.0
H1774 H 0.96197 0.29228 0.44638 0.0
H1775 H 0.96637 0.38532 0.46367 0.0
H1776 H 0.95304 0.3776 0.52985 0.0
H1777 H 0.89832 0.27424 0.49601 0.0
H1778 H 0.91108 0.24187 0.5192 0.0
H1779 H 0.92051 0.25395 0.47201 0.0
H1780 H 0.97398 0.25275 0.50475 0.0
H1781 H 0.9663 0.24299 0.55374 0.0
H1782 H 0.99103 0.27498 0.54881 0.0
H1783 H 0.93878 0.36116 0.59498 0.0
H1784 H 0.92598 0.33722 0.65516 0.0
H1785 H 0.93041 0.25347 0.60204 0.0
C1786 C 0.96006 0.31111 0.46391 0.0
C1787 C 0.96611 0.33975 0.44873 0.0
C1788 C 0.96302 0.36327 0.47373 0.0
C1789 C 0.95504 0.35908 0.51178 0.0
C1790 C 0.94969 0.33102 0.52579 0.0
C1791 C 0.95197 0.30727 0.50274 0.0
C1792 C 0.94473 0.27944 0.52587 0.0
C1793 C 0.91701 0.2613 0.50183 0.0
C1794 C 0.97054 0.2615 0.53385 0.0
C1795 C 0.93909 0.29148 0.56586 0.0
C1796 C 0.94154 0.32135 0.56428 0.0
C1797 C 0.93675 0.33778 0.59635 0.0
C1798 C 0.9293 0.32375 0.6308 0.0
C1799 C 0.92672 0.29314 0.63444 0.0
C1800 C 0.9319 0.27684 0.60095 0.0
H1801 H 0.94656 0.64992 0.86465 0.0
H1802 H 0.94501 0.55717 0.85826 0.0
H1803 H 0.90888 0.55519 0.79256 0.0
H1804 H 0.87646 0.6655 0.80582 0.0
H1805 H 0.89408 0.693 0.77798 0.0
H1806 H 0.9112 0.68534 0.82948 0.0
H1807 H 0.95975 0.67144 0.80433 0.0
H1808 H 0.9413 0.68496 0.75654 0.0
H1809 H 0.95308 0.64957 0.75951 0.0
H1810 H 0.88596 0.56576 0.7194 0.0
H1811 H 0.87867 0.58713 0.65077 0.0
H1812 H 0.89428 0.67297 0.70601 0.0
C1813 C 0.93675 0.62902 0.85094 0.0
C1814 C 0.94708 0.60359 0.86726 0.0
C1815 C 0.93615 0.57673 0.84681 0.0
C1816 C 0.91582 0.57551 0.80936 0.0
C1817 C 0.9074 0.60147 0.79247 0.0
C1818 C 0.91789 0.6277 0.81277 0.0
C1819 C 0.91384 0.65263 0.78434 0.0
C1820 C 0.89793 0.67547 0.80036 0.0
C1821 C 0.94368 0.66556 0.77579 0.0
C1822 C 0.89604 0.63724 0.74643 0.0
C1823 C 0.89384 0.60748 0.75054 0.0
C1824 C 0.88643 0.58896 0.71627 0.0
C1825 C 0.8824 0.60127 0.67735 0.0
C1826 C 0.8859 0.63175 0.67326 0.0
C1827 C 0.89099 0.6496 0.7082 0.0
H1828 H 0.50323 0.36623 0.27657 0.0
H1829 H 0.42679 0.33564 0.3249 0.0
H1830 H 0.40325 0.31185 0.25918 0.0
H1831 H 0.45952 0.38163 0.17345 0.0
H1832 H 0.48648 0.3714 0.14719 0.0
H1833 H 0.49751 0.38565 0.19869 0.0
H1834 H 0.52275 0.33981 0.21935 0.0
H1835 H 0.51069 0.32533 0.16807 0.0
H1836 H 0.50151 0.30461 0.21014 0.0
H1837 H 0.38826 0.28688 0.18819 0.0
H1838 H 0.38018 0.27091 0.11595 0.0
H1839 H 0.46166 0.32184 0.10617 0.0
C1840 C 0.48138 0.35488 0.27329 0.0
C1841 C 0.46727 0.35332 0.30743 0.0
C1842 C 0.43855 0.33789 0.30043 0.0
C1843 C 0.42484 0.32385 0.26274 0.0
C1844 C 0.43923 0.32553 0.23029 0.0
C1845 C 0.46659 0.34136 0.23467 0.0
C1846 C 0.47618 0.3409 0.19353 0.0
C1847 C 0.48017 0.37173 0.17724 0.0
C1848 C 0.50446 0.32683 0.19805 0.0
C1849 C 0.45022 0.32216 0.16586 0.0
C1850 C 0.42945 0.31307 0.18822 0.0
C1851 C 0.40426 0.29441 0.17041 0.0
C1852 C 0.39979 0.28526 0.129 0.0
C1853 C 0.41977 0.29513 0.10421 0.0
C1854 C 0.44549 0.31399 0.12352 0.0
H1855 H 0.44365 0.65504 1.02718 0.0
H1856 H 0.35363 0.67312 1.00133 0.0
H1857 H 0.35084 0.66597 0.92764 0.0
H1858 H 0.46379 0.69193 0.94343 0.0
H1859 H 0.48737 0.6663 0.93384 0.0
H1860 H 0.4817 0.67117 0.98458 0.0
H1861 H 0.46444 0.61622 0.98771 0.0
H1862 H 0.47031 0.61113 0.93709 0.0
H1863 H 0.43505 0.59936 0.94839 0.0
H1864 H 0.35875 0.65898 0.85694 0.0
H1865 H 0.37686 0.65232 0.79405 0.0
H1866 H 0.46113 0.63766 0.86742 0.0
C1867 C 0.4232 0.65691 1.00602 0.0
C1868 C 0.39881 0.66444 1.01963 0.0
C1869 C 0.37258 0.66744 0.99119 0.0
C1870 C 0.37076 0.66334 0.94945 0.0
C1871 C 0.39536 0.65625 0.93693 0.0
C1872 C 0.42105 0.65298 0.96438 0.0
C1873 C 0.44468 0.64641 0.94305 0.0
C1874 C 0.47092 0.67039 0.95174 0.0
C1875 C 0.45416 0.61649 0.95475 0.0
C1876 C 0.42829 0.64656 0.89932 0.0
C1877 C 0.39989 0.65225 0.89632 0.0
C1878 C 0.38087 0.65424 0.85883 0.0
C1879 C 0.39127 0.65033 0.82338 0.0
C1880 C 0.42036 0.64456 0.82597 0.0
C1881 C 0.4389 0.64244 0.86448 0.0
H1882 H 0.12121 0.73239 0.51461 0.0
H1883 H 0.14125 0.65117 0.47127 0.0
H1884 H 0.13014 0.62724 0.53263 0.0
H1885 H 0.15092 0.72221 0.62367 0.0
H1886 H 0.1224 0.73761 0.64116 0.0
H1887 H 0.13222 0.74934 0.59407 0.0
H1888 H 0.07872 0.73633 0.5558 0.0
H1889 H 0.0686 0.72457 0.60271 0.0
H1890 H 0.06049 0.70026 0.55907 0.0
H1891 H 0.11577 0.61058 0.59833 0.0
H1892 H 0.10063 0.60269 0.66328 0.0
H1893 H 0.0898 0.69381 0.67 0.0
C1894 C 0.12364 0.70965 0.51818 0.0
C1895 C 0.13259 0.69401 0.4871 0.0
C1896 C 0.13471 0.66408 0.49369 0.0
C1897 C 0.12834 0.65009 0.52885 0.0
C1898 C 0.1195 0.66585 0.55838 0.0
C1899 C 0.11714 0.69504 0.55365 0.0
C1900 C 0.10662 0.70643 0.59038 0.0
C1901 C 0.12939 0.73032 0.6137 0.0
C1902 C 0.07684 0.71756 0.57614 0.0
C1903 C 0.10383 0.67921 0.61648 0.0
C1904 C 0.11132 0.65615 0.59695 0.0
C1905 C 0.11025 0.62867 0.61399 0.0
C1906 C 0.10176 0.62446 0.65176 0.0
C1907 C 0.09435 0.64745 0.67387 0.0
C1908 C 0.09523 0.67537 0.65499 0.0
H1909 H 0.1063 0.33385 0.24142 0.0
H1910 H 0.11474 0.42726 0.24476 0.0
H1911 H 0.1546 0.42846 0.30566 0.0
H1912 H 0.10551 0.32311 0.33218 0.0
H1913 H 0.127 0.29353 0.34418 0.0
H1914 H 0.11 0.29917 0.29242 0.0
H1915 H 0.15928 0.30279 0.27041 0.0
H1916 H 0.1769 0.29624 0.3222 0.0
H1917 H 0.1897 0.3278 0.29653 0.0
H1918 H 0.17813 0.41965 0.37572 0.0
H1919 H 0.18589 0.40191 0.44572 0.0
H1920 H 0.16449 0.31343 0.39909 0.0
C1921 C 0.11831 0.35443 0.25335 0.0
C1922 C 0.10841 0.38046 0.23812 0.0
C1923 C 0.12293 0.40722 0.25543 0.0
C1924 C 0.14553 0.40802 0.29013 0.0
C1925 C 0.15337 0.38183 0.30675 0.0
C1926 C 0.14083 0.35541 0.28816 0.0
C1927 C 0.14855 0.33051 0.31607 0.0
C1928 C 0.12112 0.31048 0.32158 0.0
C1929 C 0.16989 0.31333 0.30037 0.0
C1930 C 0.16359 0.34714 0.3549 0.0
C1931 C 0.16739 0.37663 0.34847 0.0
C1932 C 0.17642 0.39658 0.38087 0.0
C1933 C 0.18073 0.38626 0.4207 0.0
C1934 C 0.17577 0.35623 0.42792 0.0
C1935 C 0.16839 0.3365 0.39447 0.0
loop_
_geom_bond_atom_site_label_1
_geom_bond_atom_site_label_2
_geom_bond_distance
_geom_bond_site_symmetry_2
_ccdc_geom_bond_type
La0 C2 2.928 . S
La0 O20 2.521 . S
La0 O21 2.628 . S
La0 O22 2.554 . S
La0 O23 2.762 . S
La0 O24 2.470 1_455 S
La0 O29 2.482 . S
La0 O31 2.503 . S
La1 C11 2.928 . S
La1 O23 2.478 1_655 S
La1 O25 2.503 . S
La1 O26 2.521 . S
La1 O27 2.628 . S
La1 O28 2.554 . S
La1 O29 2.757 1_655 S
La1 O30 2.470 1_655 S
C2 La0 2.928 . S
C2 C3 1.503 1_554 S
C2 O20 1.261 . S
C2 O21 1.243 . S
C3 C2 1.503 1_556 S
C3 C4 1.394 . S
C3 C8 1.373 . S
C4 C3 1.394 . S
C4 C5 1.380 . S
C4 H32 0.930 . S
C5 C4 1.380 . S
C5 C6 1.376 . S
C5 H33 0.930 . S
C6 C5 1.376 . S
C6 C7 1.370 . S
C7 C6 1.370 . S
C7 C8 1.396 . S
C7 H34 0.929 . S
C8 C3 1.373 . S
C8 C7 1.396 . S
C8 H35 0.929 . S
C9 O22 1.240 . S
C9 O23 1.291 . S
C10 O24 1.258 . S
C10 O25 1.256 . S
C11 La1 2.928 . S
C11 C12 1.503 . S
C11 O26 1.261 . S
C11 O27 1.243 . S
C12 C11 1.503 . S
C12 C13 1.394 . S
C12 C17 1.373 . S
C13 C12 1.394 . S
C13 C14 1.380 . S
C13 H36 0.930 . S
C14 C13 1.380 . S
C14 C15 1.376 . S
C14 H37 0.930 . S
C15 C14 1.376 . S
C15 C16 1.370 . S
C16 C15 1.370 . S
C16 C17 1.396 . S
C16 H38 0.929 . S
C17 C12 1.373 . S
C17 C16 1.396 . S
C17 H39 0.929 . S
C18 O28 1.240 . S
C18 O29 1.289 1_655 S
C19 O30 1.258 . S
C19 O31 1.256 . S
O20 La0 2.521 . S
O20 C2 1.261 . S
O21 La0 2.628 . S
O21 C2 1.243 . S
O22 La0 2.554 . S
O22 C9 1.240 . S
O23 La0 2.762 . S
O23 La1 2.478 1_455 S
O23 C9 1.291 . S
O24 La0 2.470 1_655 S
O24 C10 1.258 . S
O25 La1 2.503 . S
O25 C10 1.256 . S
O26 La1 2.521 . S
O26 C11 1.261 . S
O27 La1 2.628 . S
O27 C11 1.243 . S
O28 La1 2.554 . S
O28 C18 1.240 . S
O29 La0 2.482 . S
O29 La1 2.757 1_455 S
O29 C18 1.289 1_455 S
O30 La1 2.470 1_455 S
O30 C19 1.258 . S
O31 La0 2.503 . S
O31 C19 1.256 . S
H32 C4 0.930 . S
H33 C5 0.930 . S
H34 C7 0.929 . S
H35 C8 0.929 . S
H36 C13 0.930 . S
H37 C14 0.930 . S
H38 C16 0.929 . S
H39 C17 0.929 . S
La40 C42 2.928 . S
La40 O60 2.521 . S
La40 O61 2.628 . S
La40 O62 2.554 . S
La40 O63 2.757 . S
La40 O64 2.470 . S
La40 O69 2.482 . S
La40 O71 2.503 . S
La41 C51 2.928 . S
La41 O63 2.482 . S
La41 O65 2.503 . S
La41 O66 2.521 . S
La41 O67 2.628 . S
La41 O68 2.554 . S
La41 O69 2.757 . S
La41 O70 2.470 . S
C42 La40 2.928 . S
C42 C43 1.503 . S
C42 O60 1.261 . S
C42 O61 1.243 . S
C43 C42 1.503 . S
C43 C44 1.394 . S
C43 C48 1.373 . S
C44 C43 1.394 . S
C44 C45 1.380 . S
C44 H72 0.930 . S
C45 C44 1.380 . S
C45 C46 1.376 . S
C45 H73 0.930 . S
C46 C45 1.376 . S
C46 C47 1.370 . S
C47 C46 1.370 . S
C47 C48 1.396 . S
C47 H74 0.929 . S
C48 C43 1.373 . S
C48 C47 1.396 . S
C48 H75 0.929 . S
C49 O62 1.240 . S
C49 O63 1.289 . S
C50 O64 1.258 . S
C50 O65 1.256 . S
C51 La41 2.928 . S
C51 C52 1.503 . S
C51 O66 1.261 . S
C51 O67 1.243 . S
C52 C51 1.503 . S
C52 C53 1.394 . S
C52 C57 1.373 . S
C53 C52 1.394 . S
C53 C54 1.380 . S
C53 H76 0.930 . S
C54 C53 1.380 . S
C54 C55 1.376 . S
C54 H77 0.930 . S
C55 C54 1.376 . S
C55 C56 1.370 . S
C56 C55 1.370 . S
C56 C57 1.396 . S
C56 H78 0.929 . S
C57 C52 1.373 . S
C57 C56 1.396 . S
C57 H79 0.929 . S
C58 O68 1.240 . S
C58 O69 1.289 . S
C59 O70 1.258 . S
C59 O71 1.256 . S
O60 La40 2.521 . S
O60 C42 1.261 . S
O61 La40 2.628 . S
O61 C42 1.243 . S
O62 La40 2.554 . S
O62 C49 1.240 . S
O63 La40 2.757 . S
O63 La41 2.482 . S
O63 C49 1.289 . S
O64 La40 2.470 . S
O64 C50 1.258 . S
O65 La41 2.503 . S
O65 C50 1.256 . S
O66 La41 2.521 . S
O66 C51 1.261 . S
O67 La41 2.628 . S
O67 C51 1.243 . S
O68 La41 2.554 . S
O68 C58 1.240 . S
O69 La40 2.482 . S
O69 La41 2.757 . S
O69 C58 1.289 . S
O70 La41 2.470 . S
O70 C59 1.258 . S
O71 La40 2.503 . S
O71 C59 1.256 . S
H72 C44 0.930 . S
H73 C45 0.930 . S
H74 C47 0.929 . S
H75 C48 0.929 . S
H76 C53 0.930 . S
H77 C54 0.930 . S
H78 C56 0.929 . S
H79 C57 0.929 . S
La80 C82 2.928 . S
La80 O100 2.521 . S
La80 O101 2.628 . S
La80 O102 2.554 . S
La80 O103 2.757 . S
La80 O104 2.470 . S
La80 O109 2.482 . S
La80 O111 2.503 . S
La81 C91 2.928 . S
La81 O103 2.482 . S
La81 O105 2.503 . S
La81 O106 2.521 . S
La81 O107 2.628 . S
La81 O108 2.554 . S
La81 O109 2.757 . S
La81 O110 2.470 . S
C82 La80 2.928 . S
C82 C83 1.503 . S
C82 O100 1.261 . S
C82 O101 1.243 . S
C83 C82 1.503 . S
C83 C84 1.394 . S
C83 C88 1.373 . S
C84 C83 1.394 . S
C84 C85 1.380 . S
C84 H112 0.930 . S
C85 C84 1.380 . S
C85 C86 1.376 . S
C85 H113 0.930 . S
C86 C85 1.376 . S
C86 C87 1.370 . S
C87 C86 1.370 . S
C87 C88 1.396 . S
C87 H114 0.929 . S
C88 C83 1.373 . S
C88 C87 1.396 . S
C88 H115 0.929 . S
C89 O102 1.240 . S
C89 O103 1.289 . S
C90 O104 1.258 . S
C90 O105 1.256 . S
C91 La81 2.928 . S
C91 C92 1.503 . S
C91 O106 1.261 . S
C91 O107 1.243 . S
C92 C91 1.503 . S
C92 C93 1.394 . S
C92 C97 1.373 . S
C93 C92 1.394 . S
C93 C94 1.380 . S
C93 H116 0.930 . S
C94 C93 1.380 . S
C94 C95 1.376 . S
C94 H117 0.930 . S
C95 C94 1.376 . S
C95 C96 1.370 . S
C96 C95 1.370 . S
C96 C97 1.396 . S
C96 H118 0.929 . S
C97 C92 1.373 . S
C97 C96 1.396 . S
C97 H119 0.929 . S
C98 O108 1.240 . S
C98 O109 1.289 . S
C99 O110 1.258 . S
C99 O111 1.256 . S
O100 La80 2.521 . S
O100 C82 1.261 . S
O101 La80 2.628 . S
O101 C82 1.243 . S
O102 La80 2.554 . S
O102 C89 1.240 . S
O103 La80 2.757 . S
O103 La81 2.482 . S
O103 C89 1.289 . S
O104 La80 2.470 . S
O104 C90 1.258 . S
O105 La81 2.503 . S
O105 C90 1.256 . S
O106 La81 2.521 . S
O106 C91 1.261 . S
O107 La81 2.628 . S
O107 C91 1.243 . S
O108 La81 2.554 . S
O108 C98 1.240 . S
O109 La80 2.482 . S
O109 La81 2.757 . S
O109 C98 1.289 . S
O110 La81 2.470 . S
O110 C99 1.258 . S
O111 La80 2.503 . S
O111 C99 1.256 . S
H112 C84 0.930 . S
H113 C85 0.930 . S
H114 C87 0.929 . S
H115 C88 0.929 . S
H116 C93 0.930 . S
H117 C94 0.930 . S
H118 C96 0.929 . S
H119 C97 0.929 . S
La120 C122 2.928 . S
La120 O140 2.521 . S
La120 O141 2.628 . S
La120 O142 2.554 . S
La120 O143 2.757 . S
La120 O144 2.470 . S
La120 O149 2.482 . S
La120 O151 2.503 . S
La121 C131 2.928 . S
La121 O143 2.482 . S
La121 O145 2.503 . S
La121 O146 2.521 . S
La121 O147 2.628 . S
La121 O148 2.554 . S
La121 O149 2.757 . S
La121 O150 2.470 . S
C122 La120 2.928 . S
C122 C123 1.503 1_556 S
C122 O140 1.261 . S
C122 O141 1.243 . S
C123 C122 1.503 1_554 S
C123 C124 1.394 . S
C123 C128 1.373 . S
C124 C123 1.394 . S
C124 C125 1.380 . S
C124 H152 0.930 . S
C125 C124 1.380 . S
C125 C126 1.376 . S
C125 H153 0.930 . S
C126 C125 1.376 . S
C126 C127 1.370 . S
C127 C126 1.370 . S
C127 C128 1.396 . S
C127 H154 0.929 . S
C128 C123 1.373 . S
C128 C127 1.396 . S
C128 H155 0.929 . S
C129 O142 1.240 . S
C129 O143 1.289 . S
C130 O144 1.258 . S
C130 O145 1.256 . S
C131 La121 2.928 . S
C131 C132 1.503 . S
C131 O146 1.261 . S
C131 O147 1.243 . S
C132 C131 1.503 . S
C132 C133 1.394 . S
C132 C137 1.373 . S
C133 C132 1.394 . S
C133 C134 1.380 . S
C133 H156 0.930 . S
C134 C133 1.380 . S
C134 C135 1.376 . S
C134 H157 0.930 . S
C135 C134 1.376 . S
C135 C136 1.370 . S
C136 C135 1.370 . S
C136 C137 1.396 . S
C136 H158 0.929 . S
C137 C132 1.373 . S
C137 C136 1.396 . S
C137 H159 0.929 . S
C138 O148 1.240 . S
C138 O149 1.289 . S
C139 O150 1.258 . S
C139 O151 1.256 . S
O140 La120 2.521 . S
O140 C122 1.261 . S
O141 La120 2.628 . S
O141 C122 1.243 . S
O142 La120 2.554 . S
O142 C129 1.240 . S
O143 La120 2.757 . S
O143 La121 2.482 . S
O143 C129 1.289 . S
O144 La120 2.470 . S
O144 C130 1.258 . S
O145 La121 2.503 . S
O145 C130 1.256 . S
O146 La121 2.521 . S
O146 C131 1.261 . S
O147 La121 2.628 . S
O147 C131 1.243 . S
O148 La121 2.554 . S
O148 C138 1.240 . S
O149 La120 2.482 . S
O149 La121 2.757 . S
O149 C138 1.289 . S
O150 La121 2.470 . S
O150 C139 1.258 . S
O151 La120 2.503 . S
O151 C139 1.256 . S
H152 C124 0.930 . S
H153 C125 0.930 . S
H154 C127 0.929 . S
H155 C128 0.929 . S
H156 C133 0.930 . S
H157 C134 0.930 . S
H158 C136 0.929 . S
H159 C137 0.929 . S
La160 C162 2.928 . S
La160 O180 2.521 . S
La160 O181 2.628 . S
La160 O182 2.554 . S
La160 O183 2.757 . S
La160 O184 2.470 . S
La160 O189 2.482 . S
La160 O191 2.503 . S
La161 C171 2.928 . S
La161 O183 2.482 1_655 S
La161 O185 2.503 . S
La161 O186 2.521 . S
La161 O187 2.628 . S
La161 O188 2.554 1_655 S
La161 O189 2.757 1_655 S
La161 O190 2.470 1_655 S
C162 La160 2.928 . S
C162 C163 1.503 . S
C162 O180 1.261 . S
C162 O181 1.243 . S
C163 C162 1.503 . S
C163 C164 1.394 . S
C163 C168 1.373 . S
C164 C163 1.394 . S
C164 C165 1.380 . S
C164 H192 0.930 . S
C165 C164 1.380 . S
C165 C166 1.376 . S
C165 H193 0.930 . S
C166 C165 1.376 . S
C166 C167 1.370 . S
C167 C166 1.370 . S
C167 C168 1.396 . S
C167 H194 0.929 . S
C168 C163 1.373 . S
C168 C167 1.396 . S
C168 H195 0.929 . S
C169 O182 1.240 . S
C169 O183 1.289 . S
C170 O184 1.258 . S
C170 O185 1.256 1_455 S
C171 La161 2.928 . S
C171 C172 1.503 1_556 S
C171 O186 1.261 . S
C171 O187 1.243 . S
C172 C171 1.503 1_554 S
C172 C173 1.394 . S
C172 C177 1.373 . S
C173 C172 1.394 . S
C173 C174 1.380 . S
C173 H196 0.930 . S
C174 C173 1.380 . S
C174 C175 1.376 . S
C174 H197 0.930 . S
C175 C174 1.376 . S
C175 C176 1.370 . S
C176 C175 1.370 . S
C176 C177 1.396 . S
C176 H198 0.929 . S
C177 C172 1.373 . S
C177 C176 1.396 . S
C177 H199 0.929 . S
C178 O188 1.240 . S
C178 O189 1.289 . S
C179 O190 1.258 . S
C179 O191 1.256 . S
O180 La160 2.521 . S
O180 C162 1.261 . S
O181 La160 2.628 . S
O181 C162 1.243 . S
O182 La160 2.554 . S
O182 C169 1.240 . S
O183 La160 2.757 . S
O183 La161 2.482 1_455 S
O183 C169 1.289 . S
O184 La160 2.470 . S
O184 C170 1.258 . S
O185 La161 2.503 . S
O185 C170 1.256 1_655 S
O186 La161 2.521 . S
O186 C171 1.261 . S
O187 La161 2.628 . S
O187 C171 1.243 . S
O188 La161 2.554 1_455 S
O188 C178 1.240 . S
O189 La160 2.482 . S
O189 La161 2.757 1_455 S
O189 C178 1.289 . S
O190 La161 2.470 1_455 S
O190 C179 1.258 . S
O191 La160 2.503 . S
O191 C179 1.256 . S
H192 C164 0.930 . S
H193 C165 0.930 . S
H194 C167 0.929 . S
H195 C168 0.929 . S
H196 C173 0.930 . S
H197 C174 0.930 . S
H198 C176 0.929 . S
H199 C177 0.929 . S
La200 C202 2.928 . S
La200 O220 2.521 . S
La200 O221 2.628 . S
La200 O222 2.554 . S
La200 O223 2.757 . S
La200 O224 2.470 . S
La200 O229 2.482 . S
La200 O231 2.503 . S
La201 C211 2.928 . S
La201 O223 2.482 . S
La201 O225 2.503 . S
La201 O226 2.521 . S
La201 O227 2.628 . S
La201 O228 2.554 . S
La201 O229 2.757 . S
La201 O230 2.470 . S
C202 La200 2.928 . S
C202 C203 1.503 . S
C202 O220 1.261 . S
C202 O221 1.243 . S
C203 C202 1.503 . S
C203 C204 1.394 . S
C203 C208 1.373 . S
C204 C203 1.394 . S
C204 C205 1.380 . S
C204 H232 0.930 . S
C205 C204 1.380 . S
C205 C206 1.376 . S
C205 H233 0.930 . S
C206 C205 1.376 . S
C206 C207 1.370 . S
C207 C206 1.370 . S
C207 C208 1.396 . S
C207 H234 0.929 . S
C208 C203 1.373 . S
C208 C207 1.396 . S
C208 H235 0.929 . S
C209 O222 1.240 . S
C209 O223 1.289 . S
C210 O224 1.258 . S
C210 O225 1.256 . S
C211 La201 2.928 . S
C211 C212 1.503 . S
C211 O226 1.261 . S
C211 O227 1.243 . S
C212 C211 1.503 . S
C212 C213 1.394 . S
C212 C217 1.373 . S
C213 C212 1.394 . S
C213 C214 1.380 1_554 S
C213 H236 0.930 . S
C214 C213 1.380 1_556 S
C214 C215 1.376 . S
C214 H237 0.930 . S
C215 C214 1.376 . S
C215 C216 1.370 . S
C216 C215 1.370 . S
C216 C217 1.396 1_556 S
C216 H238 0.929 . S
C217 C212 1.373 . S
C217 C216 1.396 1_554 S
C217 H239 0.929 . S
C218 O228 1.240 . S
C218 O229 1.289 . S
C219 O230 1.258 . S
C219 O231 1.256 . S
O220 La200 2.521 . S
O220 C202 1.261 . S
O221 La200 2.628 . S
O221 C202 1.243 . S
O222 La200 2.554 . S
O222 C209 1.240 . S
O223 La200 2.757 . S
O223 La201 2.482 . S
O223 C209 1.289 . S
O224 La200 2.470 . S
O224 C210 1.258 . S
O225 La201 2.503 . S
O225 C210 1.256 . S
O226 La201 2.521 . S
O226 C211 1.261 . S
O227 La201 2.628 . S
O227 C211 1.243 . S
O228 La201 2.554 . S
O228 C218 1.240 . S
O229 La200 2.482 . S
O229 La201 2.757 . S
O229 C218 1.289 . S
O230 La201 2.470 . S
O230 C219 1.258 . S
O231 La200 2.503 . S
O231 C219 1.256 . S
H232 C204 0.930 . S
H233 C205 0.930 . S
H234 C207 0.929 . S
H235 C208 0.929 . S
H236 C213 0.930 . S
H237 C214 0.930 . S
H238 C216 0.929 . S
H239 C217 0.929 . S
La240 C242 2.928 . S
La240 O260 2.521 . S
La240 O261 2.628 . S
La240 O262 2.554 . S
La240 O263 2.757 . S
La240 O264 2.470 . S
La240 O269 2.482 . S
La240 O271 2.503 . S
La241 C251 2.928 . S
La241 O263 2.482 . S
La241 O265 2.503 . S
La241 O266 2.521 . S
La241 O267 2.628 . S
La241 O268 2.554 . S
La241 O269 2.757 . S
La241 O270 2.470 . S
C242 La240 2.928 . S
C242 C243 1.503 . S
C242 O260 1.261 . S
C242 O261 1.243 . S
C243 C242 1.503 . S
C243 C244 1.394 . S
C243 C248 1.373 . S
C244 C243 1.394 . S
C244 C245 1.380 . S
C244 H272 0.930 . S
C245 C244 1.380 . S
C245 C246 1.376 . S
C245 H273 0.930 . S
C246 C245 1.376 . S
C246 C247 1.370 . S
C247 C246 1.370 . S
C247 C248 1.396 . S
C247 H274 0.929 . S
C248 C243 1.373 . S
C248 C247 1.396 . S
C248 H275 0.929 . S
C249 O262 1.240 . S
C249 O263 1.289 . S
C250 O264 1.258 . S
C250 O265 1.256 . S
C251 La241 2.928 . S
C251 C252 1.503 . S
C251 O266 1.261 . S
C251 O267 1.243 . S
C252 C251 1.503 . S
C252 C253 1.394 . S
C252 C257 1.373 . S
C253 C252 1.394 . S
C253 C254 1.380 . S
C253 H276 0.930 . S
C254 C253 1.380 . S
C254 C255 1.376 . S
C254 H277 0.930 . S
C255 C254 1.376 . S
C255 C256 1.370 . S
C256 C255 1.370 . S
C256 C257 1.396 . S
C256 H278 0.929 . S
C257 C252 1.373 . S
C257 C256 1.396 . S
C257 H279 0.929 . S
C258 O268 1.240 . S
C258 O269 1.289 . S
C259 O270 1.258 . S
C259 O271 1.256 . S
O260 La240 2.521 . S
O260 C242 1.261 . S
O261 La240 2.628 . S
O261 C242 1.243 . S
O262 La240 2.554 . S
O262 C249 1.240 . S
O263 La240 2.757 . S
O263 La241 2.482 . S
O263 C249 1.289 . S
O264 La240 2.470 . S
O264 C250 1.258 . S
O265 La241 2.503 . S
O265 C250 1.256 . S
O266 La241 2.521 . S
O266 C251 1.261 . S
O267 La241 2.628 . S
O267 C251 1.243 . S
O268 La241 2.554 . S
O268 C258 1.240 . S
O269 La240 2.482 . S
O269 La241 2.757 . S
O269 C258 1.289 . S
O270 La241 2.470 . S
O270 C259 1.258 . S
O271 La240 2.503 . S
O271 C259 1.256 . S
H272 C244 0.930 . S
H273 C245 0.930 . S
H274 C247 0.929 . S
H275 C248 0.929 . S
H276 C253 0.930 . S
H277 C254 0.930 . S
H278 C256 0.929 . S
H279 C257 0.929 . S
La280 C282 2.928 . S
La280 O300 2.521 . S
La280 O301 2.628 . S
La280 O302 2.554 . S
La280 O303 2.757 . S
La280 O304 2.470 . S
La280 O309 2.482 . S
La280 O311 2.503 . S
La281 C291 2.928 . S
La281 O303 2.482 . S
La281 O305 2.503 . S
La281 O306 2.521 . S
La281 O307 2.628 . S
La281 O308 2.554 . S
La281 O309 2.757 . S
La281 O310 2.470 . S
C282 La280 2.928 . S
C282 C283 1.503 . S
C282 O300 1.261 . S
C282 O301 1.243 . S
C283 C282 1.503 . S
C283 C284 1.394 . S
C283 C288 1.373 . S
C284 C283 1.394 . S
C284 C285 1.380 . S
C284 H312 0.930 . S
C285 C284 1.380 . S
C285 C286 1.376 . S
C285 H313 0.930 . S
C286 C285 1.376 . S
C286 C287 1.370 . S
C287 C286 1.370 . S
C287 C288 1.396 . S
C287 H314 0.929 . S
C288 C283 1.373 . S
C288 C287 1.396 . S
C288 H315 0.929 . S
C289 O302 1.240 . S
C289 O303 1.289 . S
C290 O304 1.258 . S
C290 O305 1.256 . S
C291 La281 2.928 . S
C291 C292 1.503 . S
C291 O306 1.261 . S
C291 O307 1.243 . S
C292 C291 1.503 . S
C292 C293 1.394 . S
C292 C297 1.373 . S
C293 C292 1.394 . S
C293 C294 1.380 . S
C293 H316 0.930 . S
C294 C293 1.380 . S
C294 C295 1.376 . S
C294 H317 0.930 . S
C295 C294 1.376 . S
C295 C296 1.370 . S
C296 C295 1.370 . S
C296 C297 1.396 . S
C296 H318 0.929 . S
C297 C292 1.373 . S
C297 C296 1.396 . S
C297 H319 0.929 . S
C298 O308 1.240 . S
C298 O309 1.289 . S
C299 O310 1.258 . S
C299 O311 1.256 . S
O300 La280 2.521 . S
O300 C282 1.261 . S
O301 La280 2.628 . S
O301 C282 1.243 . S
O302 La280 2.554 . S
O302 C289 1.240 . S
O303 La280 2.757 . S
O303 La281 2.482 . S
O303 C289 1.289 . S
O304 La280 2.470 . S
O304 C290 1.258 . S
O305 La281 2.503 . S
O305 C290 1.256 . S
O306 La281 2.521 . S
O306 C291 1.261 . S
O307 La281 2.628 . S
O307 C291 1.243 . S
O308 La281 2.554 . S
O308 C298 1.240 . S
O309 La280 2.482 . S
O309 La281 2.757 . S
O309 C298 1.289 . S
O310 La281 2.470 . S
O310 C299 1.258 . S
O311 La280 2.503 . S
O311 C299 1.256 . S
H312 C284 0.930 . S
H313 C285 0.930 . S
H314 C287 0.929 . S
H315 C288 0.929 . S
H316 C293 0.930 . S
H317 C294 0.930 . S
H318 C296 0.929 . S
H319 C297 0.929 . S
La320 C322 2.928 . S
La320 O340 2.521 . S
La320 O341 2.628 . S
La320 O342 2.554 . S
La320 O343 2.757 . S
La320 O344 2.470 . S
La320 O349 2.482 . S
La320 O351 2.503 . S
La321 C331 2.928 . S
La321 O343 2.482 . S
La321 O345 2.503 . S
La321 O346 2.521 . S
La321 O347 2.628 . S
La321 O348 2.554 . S
La321 O349 2.757 . S
La321 O350 2.470 . S
C322 La320 2.928 . S
C322 C323 1.503 . S
C322 O340 1.261 . S
C322 O341 1.243 . S
C323 C322 1.503 . S
C323 C324 1.394 . S
C323 C328 1.373 . S
C324 C323 1.394 . S
C324 C325 1.380 . S
C324 H352 0.930 . S
C325 C324 1.380 . S
C325 C326 1.376 . S
C325 H353 0.930 . S
C326 C325 1.376 . S
C326 C327 1.370 . S
C327 C326 1.370 . S
C327 C328 1.396 . S
C327 H354 0.929 . S
C328 C323 1.373 . S
C328 C327 1.396 . S
C328 H355 0.929 . S
C329 O342 1.240 . S
C329 O343 1.289 . S
C330 O344 1.258 . S
C330 O345 1.256 . S
C331 La321 2.928 . S
C331 C332 1.503 . S
C331 O346 1.261 . S
C331 O347 1.243 . S
C332 C331 1.503 . S
C332 C333 1.394 . S
C332 C337 1.373 . S
C333 C332 1.394 . S
C333 C334 1.380 . S
C333 H356 0.930 . S
C334 C333 1.380 . S
C334 C335 1.376 . S
C334 H357 0.930 . S
C335 C334 1.376 . S
C335 C336 1.370 . S
C336 C335 1.370 . S
C336 C337 1.396 . S
C336 H358 0.929 . S
C337 C332 1.373 . S
C337 C336 1.396 . S
C337 H359 0.929 . S
C338 O348 1.240 . S
C338 O349 1.289 . S
C339 O350 1.258 . S
C339 O351 1.256 . S
O340 La320 2.521 . S
O340 C322 1.261 . S
O341 La320 2.628 . S
O341 C322 1.243 . S
O342 La320 2.554 . S
O342 C329 1.240 . S
O343 La320 2.757 . S
O343 La321 2.482 . S
O343 C329 1.289 . S
O344 La320 2.470 . S
O344 C330 1.258 . S
O345 La321 2.503 . S
O345 C330 1.256 . S
O346 La321 2.521 . S
O346 C331 1.261 . S
O347 La321 2.628 . S
O347 C331 1.243 . S
O348 La321 2.554 . S
O348 C338 1.240 . S
O349 La320 2.482 . S
O349 La321 2.757 . S
O349 C338 1.289 . S
O350 La321 2.470 . S
O350 C339 1.258 . S
O351 La320 2.503 . S
O351 C339 1.256 . S
H352 C324 0.930 . S
H353 C325 0.930 . S
H354 C327 0.929 . S
H355 C328 0.929 . S
H356 C333 0.930 . S
H357 C334 0.930 . S
H358 C336 0.929 . S
H359 C337 0.929 . S
La360 C362 2.928 . S
La360 O380 2.521 . S
La360 O381 2.628 . S
La360 O382 2.554 . S
La360 O383 2.757 . S
La360 O384 2.470 . S
La360 O389 2.482 . S
La360 O391 2.503 . S
La361 C371 2.928 . S
La361 O383 2.482 . S
La361 O385 2.503 . S
La361 O386 2.521 . S
La361 O387 2.628 . S
La361 O388 2.554 . S
La361 O389 2.757 . S
La361 O390 2.470 . S
C362 La360 2.928 . S
C362 C363 1.503 . S
C362 O380 1.261 . S
C362 O381 1.243 . S
C363 C362 1.503 . S
C363 C364 1.394 . S
C363 C368 1.373 . S
C364 C363 1.394 . S
C364 C365 1.380 . S
C364 H392 0.930 . S
C365 C364 1.380 . S
C365 C366 1.376 . S
C365 H393 0.930 . S
C366 C365 1.376 . S
C366 C367 1.370 . S
C367 C366 1.370 . S
C367 C368 1.396 . S
C367 H394 0.929 . S
C368 C363 1.373 . S
C368 C367 1.396 . S
C368 H395 0.929 . S
C369 O382 1.240 . S
C369 O383 1.289 . S
C370 O384 1.258 . S
C370 O385 1.256 . S
C371 La361 2.928 . S
C371 C372 1.503 1_554 S
C371 O386 1.261 . S
C371 O387 1.243 . S
C372 C371 1.503 1_556 S
C372 C373 1.394 . S
C372 C377 1.373 . S
C373 C372 1.394 . S
C373 C374 1.380 . S
C373 H396 0.930 . S
C374 C373 1.380 . S
C374 C375 1.376 . S
C374 H397 0.930 . S
C375 C374 1.376 . S
C375 C376 1.370 . S
C376 C375 1.370 . S
C376 C377 1.396 . S
C376 H398 0.929 . S
C377 C372 1.373 . S
C377 C376 1.396 . S
C377 H399 0.929 . S
C378 O388 1.240 . S
C378 O389 1.289 . S
C379 O390 1.258 . S
C379 O391 1.256 . S
O380 La360 2.521 . S
O380 C362 1.261 . S
O381 La360 2.628 . S
O381 C362 1.243 . S
O382 La360 2.554 . S
O382 C369 1.240 . S
O383 La360 2.757 . S
O383 La361 2.482 . S
O383 C369 1.289 . S
O384 La360 2.470 . S
O384 C370 1.258 . S
O385 La361 2.503 . S
O385 C370 1.256 . S
O386 La361 2.521 . S
O386 C371 1.261 . S
O387 La361 2.628 . S
O387 C371 1.243 . S
O388 La361 2.554 . S
O388 C378 1.240 . S
O389 La360 2.482 . S
O389 La361 2.757 . S
O389 C378 1.289 . S
O390 La361 2.470 . S
O390 C379 1.258 . S
O391 La360 2.503 . S
O391 C379 1.256 . S
H392 C364 0.930 . S
H393 C365 0.930 . S
H394 C367 0.929 . S
H395 C368 0.929 . S
H396 C373 0.930 . S
H397 C374 0.930 . S
H398 C376 0.929 . S
H399 C377 0.929 . S
La400 C402 2.928 . S
La400 O420 2.521 . S
La400 O421 2.628 . S
La400 O422 2.554 . S
La400 O423 2.757 . S
La400 O424 2.470 . S
La400 O429 2.482 . S
La400 O431 2.503 . S
La401 C411 2.928 . S
La401 O423 2.482 . S
La401 O425 2.503 . S
La401 O426 2.521 . S
La401 O427 2.628 . S
La401 O428 2.554 . S
La401 O429 2.757 . S
La401 O430 2.470 . S
C402 La400 2.928 . S
C402 C403 1.503 . S
C402 O420 1.261 . S
C402 O421 1.243 . S
C403 C402 1.503 . S
C403 C404 1.394 . S
C403 C408 1.373 . S
C404 C403 1.394 . S
C404 C405 1.380 1_556 S
C404 H432 0.930 . S
C405 C404 1.380 1_554 S
C405 C406 1.376 . S
C405 H433 0.930 . S
C406 C405 1.376 . S
C406 C407 1.370 . S
C407 C406 1.370 . S
C407 C408 1.396 1_554 S
C407 H434 0.929 . S
C408 C403 1.373 . S
C408 C407 1.396 1_556 S
C408 H435 0.929 . S
C409 O422 1.240 . S
C409 O423 1.289 . S
C410 O424 1.258 . S
C410 O425 1.256 . S
C411 La401 2.928 . S
C411 C412 1.503 . S
C411 O426 1.261 . S
C411 O427 1.243 . S
C412 C411 1.503 . S
C412 C413 1.394 . S
C412 C417 1.373 . S
C413 C412 1.394 . S
C413 C414 1.380 . S
C413 H436 0.930 . S
C414 C413 1.380 . S
C414 C415 1.376 . S
C414 H437 0.930 . S
C415 C414 1.376 . S
C415 C416 1.370 . S
C416 C415 1.370 . S
C416 C417 1.396 . S
C416 H438 0.929 . S
C417 C412 1.373 . S
C417 C416 1.396 . S
C417 H439 0.929 . S
C418 O428 1.240 . S
C418 O429 1.289 . S
C419 O430 1.258 . S
C419 O431 1.256 . S
O420 La400 2.521 . S
O420 C402 1.261 . S
O421 La400 2.628 . S
O421 C402 1.243 . S
O422 La400 2.554 . S
O422 C409 1.240 . S
O423 La400 2.757 . S
O423 La401 2.482 . S
O423 C409 1.289 . S
O424 La400 2.470 . S
O424 C410 1.258 . S
O425 La401 2.503 . S
O425 C410 1.256 . S
O426 La401 2.521 . S
O426 C411 1.261 . S
O427 La401 2.628 . S
O427 C411 1.243 . S
O428 La401 2.554 . S
O428 C418 1.240 . S
O429 La400 2.482 . S
O429 La401 2.757 . S
O429 C418 1.289 . S
O430 La401 2.470 . S
O430 C419 1.258 . S
O431 La400 2.503 . S
O431 C419 1.256 . S
H432 C404 0.930 . S
H433 C405 0.930 . S
H434 C407 0.929 . S
H435 C408 0.929 . S
H436 C413 0.930 . S
H437 C414 0.930 . S
H438 C416 0.929 . S
H439 C417 0.929 . S
La440 C442 2.928 . S
La440 O460 2.521 . S
La440 O461 2.628 . S
La440 O462 2.554 . S
La440 O463 2.757 . S
La440 O464 2.470 . S
La440 O469 2.482 . S
La440 O471 2.503 . S
La441 C451 2.928 . S
La441 O463 2.482 . S
La441 O465 2.503 . S
La441 O466 2.521 . S
La441 O467 2.628 . S
La441 O468 2.554 . S
La441 O469 2.757 . S
La441 O470 2.470 . S
C442 La440 2.928 . S
C442 C443 1.503 . S
C442 O460 1.261 . S
C442 O461 1.243 . S
C443 C442 1.503 . S
C443 C444 1.394 . S
C443 C448 1.373 . S
C444 C443 1.394 . S
C444 C445 1.380 . S
C444 H472 0.930 . S
C445 C444 1.380 . S
C445 C446 1.376 . S
C445 H473 0.930 . S
C446 C445 1.376 . S
C446 C447 1.370 . S
C447 C446 1.370 . S
C447 C448 1.396 . S
C447 H474 0.929 . S
C448 C443 1.373 . S
C448 C447 1.396 . S
C448 H475 0.929 . S
C449 O462 1.240 . S
C449 O463 1.289 . S
C450 O464 1.258 . S
C450 O465 1.256 . S
C451 La441 2.928 . S
C451 C452 1.503 . S
C451 O466 1.261 . S
C451 O467 1.243 . S
C452 C451 1.503 . S
C452 C453 1.394 . S
C452 C457 1.373 . S
C453 C452 1.394 . S
C453 C454 1.380 . S
C453 H476 0.930 . S
C454 C453 1.380 . S
C454 C455 1.376 . S
C454 H477 0.930 . S
C455 C454 1.376 . S
C455 C456 1.370 . S
C456 C455 1.370 . S
C456 C457 1.396 . S
C456 H478 0.929 . S
C457 C452 1.373 . S
C457 C456 1.396 . S
C457 H479 0.929 . S
C458 O468 1.240 . S
C458 O469 1.289 . S
C459 O470 1.258 . S
C459 O471 1.256 . S
O460 La440 2.521 . S
O460 C442 1.261 . S
O461 La440 2.628 . S
O461 C442 1.243 . S
O462 La440 2.554 . S
O462 C449 1.240 . S
O463 La440 2.757 . S
O463 La441 2.482 . S
O463 C449 1.289 . S
O464 La440 2.470 . S
O464 C450 1.258 . S
O465 La441 2.503 . S
O465 C450 1.256 . S
O466 La441 2.521 . S
O466 C451 1.261 . S
O467 La441 2.628 . S
O467 C451 1.243 . S
O468 La441 2.554 . S
O468 C458 1.240 . S
O469 La440 2.482 . S
O469 La441 2.757 . S
O469 C458 1.289 . S
O470 La441 2.470 . S
O470 C459 1.258 . S
O471 La440 2.503 . S
O471 C459 1.256 . S
H472 C444 0.930 . S
H473 C445 0.930 . S
H474 C447 0.929 . S
H475 C448 0.929 . S
H476 C453 0.930 . S
H477 C454 0.930 . S
H478 C456 0.929 . S
H479 C457 0.929 . S
La480 C482 2.928 . S
La480 O500 2.521 . S
La480 O501 2.628 . S
La480 O502 2.554 . S
La480 O503 2.757 . S
La480 O504 2.470 . S
La480 O509 2.482 . S
La480 O511 2.503 . S
La481 C491 2.928 . S
La481 O503 2.482 . S
La481 O505 2.503 . S
La481 O506 2.521 . S
La481 O507 2.628 . S
La481 O508 2.554 . S
La481 O509 2.757 . S
La481 O510 2.470 . S
C482 La480 2.928 . S
C482 C483 1.503 . S
C482 O500 1.261 . S
C482 O501 1.243 . S
C483 C482 1.503 . S
C483 C484 1.394 . S
C483 C488 1.373 . S
C484 C483 1.394 . S
C484 C485 1.380 . S
C484 H512 0.930 . S
C485 C484 1.380 . S
C485 C486 1.376 . S
C485 H513 0.930 . S
C486 C485 1.376 . S
C486 C487 1.370 . S
C487 C486 1.370 . S
C487 C488 1.396 . S
C487 H514 0.929 . S
C488 C483 1.373 . S
C488 C487 1.396 . S
C488 H515 0.929 . S
C489 O502 1.240 . S
C489 O503 1.289 . S
C490 O504 1.258 . S
C490 O505 1.256 . S
C491 La481 2.928 . S
C491 C492 1.503 . S
C491 O506 1.261 . S
C491 O507 1.243 . S
C492 C491 1.503 . S
C492 C493 1.394 . S
C492 C497 1.373 . S
C493 C492 1.394 . S
C493 C494 1.380 . S
C493 H516 0.930 . S
C494 C493 1.380 . S
C494 C495 1.376 . S
C494 H517 0.930 . S
C495 C494 1.376 . S
C495 C496 1.370 . S
C496 C495 1.370 . S
C496 C497 1.396 . S
C496 H518 0.929 . S
C497 C492 1.373 . S
C497 C496 1.396 . S
C497 H519 0.929 . S
C498 O508 1.240 . S
C498 O509 1.289 . S
C499 O510 1.258 . S
C499 O511 1.256 . S
O500 La480 2.521 . S
O500 C482 1.261 . S
O501 La480 2.628 . S
O501 C482 1.243 . S
O502 La480 2.554 . S
O502 C489 1.240 . S
O503 La480 2.757 . S
O503 La481 2.482 . S
O503 C489 1.289 . S
O504 La480 2.470 . S
O504 C490 1.258 . S
O505 La481 2.503 . S
O505 C490 1.256 . S
O506 La481 2.521 . S
O506 C491 1.261 . S
O507 La481 2.628 . S
O507 C491 1.243 . S
O508 La481 2.554 . S
O508 C498 1.240 . S
O509 La480 2.482 . S
O509 La481 2.757 . S
O509 C498 1.289 . S
O510 La481 2.470 . S
O510 C499 1.258 . S
O511 La480 2.503 . S
O511 C499 1.256 . S
H512 C484 0.930 . S
H513 C485 0.930 . S
H514 C487 0.929 . S
H515 C488 0.929 . S
H516 C493 0.930 . S
H517 C494 0.930 . S
H518 C496 0.929 . S
H519 C497 0.929 . S
La520 C522 2.928 . S
La520 O540 2.521 . S
La520 O541 2.628 . S
La520 O542 2.554 . S
La520 O543 2.757 1_655 S
La520 O544 2.470 1_655 S
La520 O549 2.482 1_655 S
La520 O551 2.503 . S
La521 C531 2.928 . S
La521 O543 2.482 . S
La521 O545 2.503 . S
La521 O546 2.521 . S
La521 O547 2.628 . S
La521 O548 2.554 . S
La521 O549 2.757 . S
La521 O550 2.470 . S
C522 La520 2.928 . S
C522 C523 1.503 . S
C522 O540 1.261 . S
C522 O541 1.243 . S
C523 C522 1.503 . S
C523 C524 1.394 . S
C523 C528 1.373 . S
C524 C523 1.394 . S
C524 C525 1.380 . S
C524 H552 0.930 . S
C525 C524 1.380 . S
C525 C526 1.376 . S
C525 H553 0.930 . S
C526 C525 1.376 . S
C526 C527 1.370 . S
C527 C526 1.370 . S
C527 C528 1.396 . S
C527 H554 0.929 . S
C528 C523 1.373 . S
C528 C527 1.396 . S
C528 H555 0.929 . S
C529 O542 1.240 1_455 S
C529 O543 1.289 . S
C530 O544 1.258 . S
C530 O545 1.256 . S
C531 La521 2.928 . S
C531 C532 1.503 1_554 S
C531 O546 1.261 . S
C531 O547 1.243 . S
C532 C531 1.503 1_556 S
C532 C533 1.394 . S
C532 C537 1.373 . S
C533 C532 1.394 . S
C533 C534 1.380 . S
C533 H556 0.930 . S
C534 C533 1.380 . S
C534 C535 1.376 . S
C534 H557 0.930 . S
C535 C534 1.376 . S
C535 C536 1.370 . S
C536 C535 1.370 . S
C536 C537 1.396 . S
C536 H558 0.929 . S
C537 C532 1.373 . S
C537 C536 1.396 . S
C537 H559 0.929 . S
C538 O548 1.240 . S
C538 O549 1.289 . S
C539 O550 1.258 1_655 S
C539 O551 1.256 . S
O540 La520 2.521 . S
O540 C522 1.261 . S
O541 La520 2.628 . S
O541 C522 1.243 . S
O542 La520 2.554 . S
O542 C529 1.240 1_655 S
O543 La520 2.757 1_455 S
O543 La521 2.482 . S
O543 C529 1.289 . S
O544 La520 2.470 1_455 S
O544 C530 1.258 . S
O545 La521 2.503 . S
O545 C530 1.256 . S
O546 La521 2.521 . S
O546 C531 1.261 . S
O547 La521 2.628 . S
O547 C531 1.243 . S
O548 La521 2.554 . S
O548 C538 1.240 . S
O549 La520 2.482 1_455 S
O549 La521 2.757 . S
O549 C538 1.289 . S
O550 La521 2.470 . S
O550 C539 1.258 1_455 S
O551 La520 2.503 . S
O551 C539 1.256 . S
H552 C524 0.930 . S
H553 C525 0.930 . S
H554 C527 0.929 . S
H555 C528 0.929 . S
H556 C533 0.930 . S
H557 C534 0.930 . S
H558 C536 0.929 . S
H559 C537 0.929 . S
La560 C562 2.928 . S
La560 O580 2.521 . S
La560 O581 2.628 . S
La560 O582 2.554 . S
La560 O583 2.757 . S
La560 O584 2.470 . S
La560 O589 2.482 . S
La560 O591 2.503 . S
La561 C571 2.928 . S
La561 O583 2.482 . S
La561 O585 2.503 . S
La561 O586 2.521 . S
La561 O587 2.628 . S
La561 O588 2.554 . S
La561 O589 2.757 . S
La561 O590 2.470 . S
C562 La560 2.928 . S
C562 C563 1.503 . S
C562 O580 1.261 . S
C562 O581 1.243 . S
C563 C562 1.503 . S
C563 C564 1.394 . S
C563 C568 1.373 . S
C564 C563 1.394 . S
C564 C565 1.380 . S
C564 H592 0.930 . S
C565 C564 1.380 . S
C565 C566 1.376 . S
C565 H593 0.930 . S
C566 C565 1.376 . S
C566 C567 1.370 . S
C567 C566 1.370 . S
C567 C568 1.396 . S
C567 H594 0.929 . S
C568 C563 1.373 . S
C568 C567 1.396 . S
C568 H595 0.929 . S
C569 O582 1.240 . S
C569 O583 1.289 . S
C570 O584 1.258 . S
C570 O585 1.256 . S
C571 La561 2.928 . S
C571 C572 1.503 . S
C571 O586 1.261 . S
C571 O587 1.243 . S
C572 C571 1.503 . S
C572 C573 1.394 . S
C572 C577 1.373 . S
C573 C572 1.394 . S
C573 C574 1.380 . S
C573 H596 0.930 . S
C574 C573 1.380 . S
C574 C575 1.376 . S
C574 H597 0.930 . S
C575 C574 1.376 . S
C575 C576 1.370 . S
C576 C575 1.370 . S
C576 C577 1.396 . S
C576 H598 0.929 . S
C577 C572 1.373 . S
C577 C576 1.396 . S
C577 H599 0.929 . S
C578 O588 1.240 . S
C578 O589 1.289 . S
C579 O590 1.258 . S
C579 O591 1.256 . S
O580 La560 2.521 . S
O580 C562 1.261 . S
O581 La560 2.628 . S
O581 C562 1.243 . S
O582 La560 2.554 . S
O582 C569 1.240 . S
O583 La560 2.757 . S
O583 La561 2.482 . S
O583 C569 1.289 . S
O584 La560 2.470 . S
O584 C570 1.258 . S
O585 La561 2.503 . S
O585 C570 1.256 . S
O586 La561 2.521 . S
O586 C571 1.261 . S
O587 La561 2.628 . S
O587 C571 1.243 . S
O588 La561 2.554 . S
O588 C578 1.240 . S
O589 La560 2.482 . S
O589 La561 2.757 . S
O589 C578 1.289 . S
O590 La561 2.470 . S
O590 C579 1.258 . S
O591 La560 2.503 . S
O591 C579 1.256 . S
H592 C564 0.930 . S
H593 C565 0.930 . S
H594 C567 0.929 . S
H595 C568 0.929 . S
H596 C573 0.930 . S
H597 C574 0.930 . S
H598 C576 0.929 . S
H599 C577 0.929 . S
La600 C602 2.928 . S
La600 O620 2.521 . S
La600 O621 2.628 . S
La600 O622 2.554 1_655 S
La600 O623 2.757 1_655 S
La600 O624 2.470 1_655 S
La600 O629 2.482 1_655 S
La600 O631 2.503 . S
La601 C611 2.928 . S
La601 O623 2.482 . S
La601 O625 2.503 . S
La601 O626 2.521 . S
La601 O627 2.628 . S
La601 O628 2.554 . S
La601 O629 2.757 . S
La601 O630 2.470 . S
C602 La600 2.928 . S
C602 C603 1.503 1_556 S
C602 O620 1.261 . S
C602 O621 1.243 . S
C603 C602 1.503 1_554 S
C603 C604 1.394 . S
C603 C608 1.373 . S
C604 C603 1.394 . S
C604 C605 1.380 . S
C604 H632 0.930 . S
C605 C604 1.380 . S
C605 C606 1.376 . S
C605 H633 0.930 . S
C606 C605 1.376 . S
C606 C607 1.370 . S
C607 C606 1.370 . S
C607 C608 1.396 . S
C607 H634 0.929 . S
C608 C603 1.373 . S
C608 C607 1.396 . S
C608 H635 0.929 . S
C609 O622 1.240 . S
C609 O623 1.289 . S
C610 O624 1.258 . S
C610 O625 1.256 . S
C611 La601 2.928 . S
C611 C612 1.503 . S
C611 O626 1.261 . S
C611 O627 1.243 . S
C612 C611 1.503 . S
C612 C613 1.394 . S
C612 C617 1.373 . S
C613 C612 1.394 . S
C613 C614 1.380 . S
C613 H636 0.930 . S
C614 C613 1.380 . S
C614 C615 1.376 . S
C614 H637 0.930 . S
C615 C614 1.376 . S
C615 C616 1.370 . S
C616 C615 1.370 . S
C616 C617 1.396 . S
C616 H638 0.929 . S
C617 C612 1.373 . S
C617 C616 1.396 . S
C617 H639 0.929 . S
C618 O628 1.240 . S
C618 O629 1.289 . S
C619 O630 1.258 1_655 S
C619 O631 1.256 . S
O620 La600 2.521 . S
O620 C602 1.261 . S
O621 La600 2.628 . S
O621 C602 1.243 . S
O622 La600 2.554 1_455 S
O622 C609 1.240 . S
O623 La600 2.757 1_455 S
O623 La601 2.482 . S
O623 C609 1.289 . S
O624 La600 2.470 1_455 S
O624 C610 1.258 . S
O625 La601 2.503 . S
O625 C610 1.256 . S
O626 La601 2.521 . S
O626 C611 1.261 . S
O627 La601 2.628 . S
O627 C611 1.243 . S
O628 La601 2.554 . S
O628 C618 1.240 . S
O629 La600 2.482 1_455 S
O629 La601 2.757 . S
O629 C618 1.289 . S
O630 La601 2.470 . S
O630 C619 1.258 1_455 S
O631 La600 2.503 . S
O631 C619 1.256 . S
H632 C604 0.930 . S
H633 C605 0.930 . S
H634 C607 0.929 . S
H635 C608 0.929 . S
H636 C613 0.930 . S
H637 C614 0.930 . S
H638 C616 0.929 . S
H639 C617 0.929 . S
H640 C652 0.930 . S
H641 C654 0.930 . S
H642 C655 0.930 . S
H643 C659 0.959 . S
H644 C659 0.959 . S
H645 C659 0.961 . S
H646 C660 0.960 . S
H647 C660 0.961 . S
H648 C660 0.959 . S
H649 C663 0.929 . S
H650 C664 0.931 . S
H651 C666 0.930 . S
C652 H640 0.930 . S
C652 C653 1.399 . S
C652 C657 1.399 . S
C653 C652 1.399 . S
C653 C654 1.376 . S
C654 H641 0.930 . S
C654 C653 1.376 . S
C654 C655 1.388 . S
C655 H642 0.930 . S
C655 C654 1.388 . S
C655 C656 1.390 . S
C656 C655 1.390 . S
C656 C657 1.394 . S
C656 C662 1.465 . S
C657 C652 1.399 . S
C657 C656 1.394 . S
C657 C658 1.516 . S
C658 C657 1.516 . S
C658 C659 1.502 . S
C658 C660 1.561 . S
C658 C661 1.526 . S
C659 H643 0.959 . S
C659 H644 0.959 . S
C659 H645 0.961 . S
C659 C658 1.502 . S
C660 H646 0.960 . S
C660 H647 0.961 . S
C660 H648 0.959 . S
C660 C658 1.561 . S
C661 C658 1.526 . S
C661 C662 1.396 . S
C661 C666 1.390 . S
C662 C656 1.465 . S
C662 C661 1.396 . S
C662 C663 1.399 . S
C663 H649 0.929 . S
C663 C662 1.399 . S
C663 C664 1.385 . S
C664 H650 0.931 . S
C664 C663 1.385 . S
C664 C665 1.389 . S
C665 C664 1.389 . S
C665 C666 1.387 . S
C666 H651 0.930 . S
C666 C661 1.390 . S
C666 C665 1.387 . S
H667 C679 0.930 . S
H668 C681 0.930 . S
H669 C682 0.930 . S
H670 C686 0.959 . S
H671 C686 0.959 . S
H672 C686 0.961 . S
H673 C687 0.960 . S
H674 C687 0.961 . S
H675 C687 0.959 . S
H676 C690 0.929 . S
H677 C691 0.931 . S
H678 C693 0.930 . S
C679 H667 0.930 . S
C679 C680 1.399 . S
C679 C684 1.399 . S
C680 C679 1.399 . S
C680 C681 1.376 . S
C681 H668 0.930 . S
C681 C680 1.376 . S
C681 C682 1.388 . S
C682 H669 0.930 . S
C682 C681 1.388 . S
C682 C683 1.390 . S
C683 C682 1.390 . S
C683 C684 1.394 . S
C683 C689 1.465 . S
C684 C679 1.399 . S
C684 C683 1.394 . S
C684 C685 1.516 . S
C685 C684 1.516 . S
C685 C686 1.502 . S
C685 C687 1.561 . S
C685 C688 1.526 . S
C686 H670 0.959 . S
C686 H671 0.959 . S
C686 H672 0.961 . S
C686 C685 1.502 . S
C687 H673 0.960 . S
C687 H674 0.961 . S
C687 H675 0.959 . S
C687 C685 1.561 . S
C688 C685 1.526 . S
C688 C689 1.396 . S
C688 C693 1.390 . S
C689 C683 1.465 . S
C689 C688 1.396 . S
C689 C690 1.399 . S
C690 H676 0.929 . S
C690 C689 1.399 . S
C690 C691 1.385 . S
C691 H677 0.931 . S
C691 C690 1.385 . S
C691 C692 1.389 . S
C692 C691 1.389 . S
C692 C693 1.387 . S
C693 H678 0.930 . S
C693 C688 1.390 . S
C693 C692 1.387 . S
H694 C706 0.930 . S
H695 C708 0.930 . S
H696 C709 0.930 . S
H697 C713 0.959 . S
H698 C713 0.959 . S
H699 C713 0.961 . S
H700 C714 0.960 . S
H701 C714 0.961 . S
H702 C714 0.959 . S
H703 C717 0.929 . S
H704 C718 0.931 . S
H705 C720 0.930 . S
C706 H694 0.930 . S
C706 C707 1.399 . S
C706 C711 1.399 . S
C707 C706 1.399 . S
C707 C708 1.376 . S
C708 H695 0.930 . S
C708 C707 1.376 . S
C708 C709 1.388 . S
C709 H696 0.930 . S
C709 C708 1.388 . S
C709 C710 1.390 . S
C710 C709 1.390 . S
C710 C711 1.394 . S
C710 C716 1.465 . S
C711 C706 1.399 . S
C711 C710 1.394 . S
C711 C712 1.516 . S
C712 C711 1.516 . S
C712 C713 1.502 . S
C712 C714 1.561 . S
C712 C715 1.526 . S
C713 H697 0.959 . S
C713 H698 0.959 . S
C713 H699 0.961 . S
C713 C712 1.502 . S
C714 H700 0.960 . S
C714 H701 0.961 . S
C714 H702 0.959 . S
C714 C712 1.561 . S
C715 C712 1.526 . S
C715 C716 1.396 . S
C715 C720 1.390 . S
C716 C710 1.465 . S
C716 C715 1.396 . S
C716 C717 1.399 . S
C717 H703 0.929 . S
C717 C716 1.399 . S
C717 C718 1.385 . S
C718 H704 0.931 . S
C718 C717 1.385 . S
C718 C719 1.389 . S
C719 C718 1.389 . S
C719 C720 1.387 . S
C720 H705 0.930 . S
C720 C715 1.390 . S
C720 C719 1.387 . S
H721 C733 0.930 . S
H722 C735 0.930 . S
H723 C736 0.930 . S
H724 C740 0.959 . S
H725 C740 0.959 . S
H726 C740 0.961 . S
H727 C741 0.960 . S
H728 C741 0.961 . S
H729 C741 0.959 . S
H730 C744 0.929 . S
H731 C745 0.931 . S
H732 C747 0.930 . S
C733 H721 0.930 . S
C733 C734 1.399 . S
C733 C738 1.399 . S
C734 C733 1.399 . S
C734 C735 1.376 . S
C735 H722 0.930 . S
C735 C734 1.376 . S
C735 C736 1.388 . S
C736 H723 0.930 . S
C736 C735 1.388 . S
C736 C737 1.390 . S
C737 C736 1.390 . S
C737 C738 1.394 . S
C737 C743 1.465 . S
C738 C733 1.399 . S
C738 C737 1.394 . S
C738 C739 1.516 . S
C739 C738 1.516 . S
C739 C740 1.502 . S
C739 C741 1.561 . S
C739 C742 1.526 . S
C740 H724 0.959 . S
C740 H725 0.959 . S
C740 H726 0.961 . S
C740 C739 1.502 . S
C741 H727 0.960 . S
C741 H728 0.961 . S
C741 H729 0.959 . S
C741 C739 1.561 . S
C742 C739 1.526 . S
C742 C743 1.396 . S
C742 C747 1.390 . S
C743 C737 1.465 . S
C743 C742 1.396 . S
C743 C744 1.399 . S
C744 H730 0.929 . S
C744 C743 1.399 . S
C744 C745 1.385 . S
C745 H731 0.931 . S
C745 C744 1.385 . S
C745 C746 1.389 . S
C746 C745 1.389 . S
C746 C747 1.387 . S
C747 H732 0.930 . S
C747 C742 1.390 . S
C747 C746 1.387 . S
H748 C760 0.930 . S
H749 C762 0.930 . S
H750 C763 0.930 . S
H751 C767 0.959 . S
H752 C767 0.959 . S
H753 C767 0.961 . S
H754 C768 0.960 . S
H755 C768 0.961 . S
H756 C768 0.959 . S
H757 C771 0.929 . S
H758 C772 0.931 . S
H759 C774 0.930 . S
C760 H748 0.930 . S
C760 C761 1.399 . S
C760 C765 1.399 . S
C761 C760 1.399 . S
C761 C762 1.376 . S
C762 H749 0.930 . S
C762 C761 1.376 . S
C762 C763 1.388 . S
C763 H750 0.930 . S
C763 C762 1.388 . S
C763 C764 1.390 . S
C764 C763 1.390 . S
C764 C765 1.394 . S
C764 C770 1.465 . S
C765 C760 1.399 . S
C765 C764 1.394 . S
C765 C766 1.516 . S
C766 C765 1.516 . S
C766 C767 1.502 . S
C766 C768 1.561 . S
C766 C769 1.526 . S
C767 H751 0.959 . S
C767 H752 0.959 . S
C767 H753 0.961 . S
C767 C766 1.502 . S
C768 H754 0.960 . S
C768 H755 0.961 . S
C768 H756 0.959 . S
C768 C766 1.561 . S
C769 C766 1.526 . S
C769 C770 1.396 . S
C769 C774 1.390 . S
C770 C764 1.465 . S
C770 C769 1.396 . S
C770 C771 1.399 . S
C771 H757 0.929 . S
C771 C770 1.399 . S
C771 C772 1.385 . S
C772 H758 0.931 . S
C772 C771 1.385 . S
C772 C773 1.389 . S
C773 C772 1.389 . S
C773 C774 1.387 . S
C774 H759 0.930 . S
C774 C769 1.390 . S
C774 C773 1.387 . S
H775 C787 0.930 . S
H776 C789 0.930 . S
H777 C790 0.930 . S
H778 C794 0.959 . S
H779 C794 0.959 . S
H780 C794 0.961 . S
H781 C795 0.960 . S
H782 C795 0.961 . S
H783 C795 0.959 . S
H784 C798 0.929 . S
H785 C799 0.931 . S
H786 C801 0.930 . S
C787 H775 0.930 . S
C787 C788 1.399 . S
C787 C792 1.399 . S
C788 C787 1.399 . S
C788 C789 1.376 . S
C789 H776 0.930 . S
C789 C788 1.376 . S
C789 C790 1.388 . S
C790 H777 0.930 . S
C790 C789 1.388 . S
C790 C791 1.390 . S
C791 C790 1.390 . S
C791 C792 1.394 . S
C791 C797 1.465 . S
C792 C787 1.399 . S
C792 C791 1.394 . S
C792 C793 1.516 . S
C793 C792 1.516 . S
C793 C794 1.502 . S
C793 C795 1.561 . S
C793 C796 1.526 . S
C794 H778 0.959 . S
C794 H779 0.959 . S
C794 H780 0.961 . S
C794 C793 1.502 . S
C795 H781 0.960 . S
C795 H782 0.961 . S
C795 H783 0.959 . S
C795 C793 1.561 . S
C796 C793 1.526 . S
C796 C797 1.396 . S
C796 C801 1.390 . S
C797 C791 1.465 . S
C797 C796 1.396 . S
C797 C798 1.399 . S
C798 H784 0.929 . S
C798 C797 1.399 . S
C798 C799 1.385 . S
C799 H785 0.931 . S
C799 C798 1.385 . S
C799 C800 1.389 . S
C800 C799 1.389 . S
C800 C801 1.387 . S
C801 H786 0.930 . S
C801 C796 1.390 . S
C801 C800 1.387 . S
H802 C814 0.930 . S
H803 C816 0.930 . S
H804 C817 0.930 . S
H805 C821 0.959 . S
H806 C821 0.959 . S
H807 C821 0.961 . S
H808 C822 0.960 . S
H809 C822 0.961 . S
H810 C822 0.959 . S
H811 C825 0.929 . S
H812 C826 0.931 . S
H813 C828 0.930 . S
C814 H802 0.930 . S
C814 C815 1.399 . S
C814 C819 1.399 . S
C815 C814 1.399 . S
C815 C816 1.376 . S
C816 H803 0.930 . S
C816 C815 1.376 . S
C816 C817 1.388 . S
C817 H804 0.930 . S
C817 C816 1.388 . S
C817 C818 1.390 . S
C818 C817 1.390 . S
C818 C819 1.394 . S
C818 C824 1.465 . S
C819 C814 1.399 . S
C819 C818 1.394 . S
C819 C820 1.516 . S
C820 C819 1.516 . S
C820 C821 1.502 . S
C820 C822 1.561 . S
C820 C823 1.526 . S
C821 H805 0.959 . S
C821 H806 0.959 . S
C821 H807 0.961 . S
C821 C820 1.502 . S
C822 H808 0.960 . S
C822 H809 0.961 . S
C822 H810 0.959 . S
C822 C820 1.561 . S
C823 C820 1.526 . S
C823 C824 1.396 . S
C823 C828 1.390 . S
C824 C818 1.465 . S
C824 C823 1.396 . S
C824 C825 1.399 . S
C825 H811 0.929 . S
C825 C824 1.399 . S
C825 C826 1.385 . S
C826 H812 0.931 . S
C826 C825 1.385 . S
C826 C827 1.389 . S
C827 C826 1.389 . S
C827 C828 1.387 . S
C828 H813 0.930 . S
C828 C823 1.390 . S
C828 C827 1.387 . S
H829 C841 0.930 . S
H830 C843 0.930 . S
H831 C844 0.930 . S
H832 C848 0.959 . S
H833 C848 0.959 . S
H834 C848 0.961 . S
H835 C849 0.960 . S
H836 C849 0.961 . S
H837 C849 0.959 . S
H838 C852 0.929 . S
H839 C853 0.931 . S
H840 C855 0.930 . S
C841 H829 0.930 . S
C841 C842 1.399 . S
C841 C846 1.399 . S
C842 C841 1.399 . S
C842 C843 1.376 . S
C843 H830 0.930 . S
C843 C842 1.376 . S
C843 C844 1.388 . S
C844 H831 0.930 . S
C844 C843 1.388 . S
C844 C845 1.390 . S
C845 C844 1.390 . S
C845 C846 1.394 . S
C845 C851 1.465 . S
C846 C841 1.399 . S
C846 C845 1.394 . S
C846 C847 1.516 . S
C847 C846 1.516 . S
C847 C848 1.502 . S
C847 C849 1.561 . S
C847 C850 1.526 . S
C848 H832 0.959 . S
C848 H833 0.959 . S
C848 H834 0.961 . S
C848 C847 1.502 . S
C849 H835 0.960 . S
C849 H836 0.961 . S
C849 H837 0.959 . S
C849 C847 1.561 . S
C850 C847 1.526 . S
C850 C851 1.396 . S
C850 C855 1.390 . S
C851 C845 1.465 . S
C851 C850 1.396 . S
C851 C852 1.399 . S
C852 H838 0.929 . S
C852 C851 1.399 . S
C852 C853 1.385 . S
C853 H839 0.931 . S
C853 C852 1.385 . S
C853 C854 1.389 . S
C854 C853 1.389 . S
C854 C855 1.387 . S
C855 H840 0.930 . S
C855 C850 1.390 . S
C855 C854 1.387 . S
H856 C868 0.930 . S
H857 C870 0.930 . S
H858 C871 0.930 . S
H859 C875 0.959 . S
H860 C875 0.959 . S
H861 C875 0.961 . S
H862 C876 0.960 . S
H863 C876 0.961 . S
H864 C876 0.959 . S
H865 C879 0.929 . S
H866 C880 0.931 . S
H867 C882 0.930 . S
C868 H856 0.930 . S
C868 C869 1.399 . S
C868 C873 1.399 . S
C869 C868 1.399 . S
C869 C870 1.376 . S
C870 H857 0.930 . S
C870 C869 1.376 . S
C870 C871 1.388 . S
C871 H858 0.930 . S
C871 C870 1.388 . S
C871 C872 1.390 . S
C872 C871 1.390 . S
C872 C873 1.394 . S
C872 C878 1.465 . S
C873 C868 1.399 . S
C873 C872 1.394 . S
C873 C874 1.516 . S
C874 C873 1.516 . S
C874 C875 1.502 . S
C874 C876 1.561 . S
C874 C877 1.526 . S
C875 H859 0.959 . S
C875 H860 0.959 . S
C875 H861 0.961 . S
C875 C874 1.502 . S
C876 H862 0.960 . S
C876 H863 0.961 . S
C876 H864 0.959 . S
C876 C874 1.561 . S
C877 C874 1.526 . S
C877 C878 1.396 . S
C877 C882 1.390 . S
C878 C872 1.465 . S
C878 C877 1.396 . S
C878 C879 1.399 . S
C879 H865 0.929 . S
C879 C878 1.399 . S
C879 C880 1.385 . S
C880 H866 0.931 . S
C880 C879 1.385 . S
C880 C881 1.389 . S
C881 C880 1.389 . S
C881 C882 1.387 . S
C882 H867 0.930 . S
C882 C877 1.390 . S
C882 C881 1.387 . S
H883 C895 0.930 . S
H884 C897 0.930 . S
H885 C898 0.930 . S
H886 C902 0.959 . S
H887 C902 0.959 . S
H888 C902 0.961 . S
H889 C903 0.960 . S
H890 C903 0.961 . S
H891 C903 0.959 . S
H892 C906 0.929 . S
H893 C907 0.931 . S
H894 C909 0.930 . S
C895 H883 0.930 . S
C895 C896 1.399 . S
C895 C900 1.399 . S
C896 C895 1.399 . S
C896 C897 1.376 . S
C897 H884 0.930 . S
C897 C896 1.376 . S
C897 C898 1.388 . S
C898 H885 0.930 . S
C898 C897 1.388 . S
C898 C899 1.390 . S
C899 C898 1.390 . S
C899 C900 1.394 . S
C899 C905 1.465 . S
C900 C895 1.399 . S
C900 C899 1.394 . S
C900 C901 1.516 . S
C901 C900 1.516 . S
C901 C902 1.502 . S
C901 C903 1.561 . S
C901 C904 1.526 . S
C902 H886 0.959 . S
C902 H887 0.959 . S
C902 H888 0.961 . S
C902 C901 1.502 . S
C903 H889 0.960 . S
C903 H890 0.961 . S
C903 H891 0.959 . S
C903 C901 1.561 . S
C904 C901 1.526 . S
C904 C905 1.396 . S
C904 C909 1.390 . S
C905 C899 1.465 . S
C905 C904 1.396 . S
C905 C906 1.399 . S
C906 H892 0.929 . S
C906 C905 1.399 . S
C906 C907 1.385 . S
C907 H893 0.931 . S
C907 C906 1.385 . S
C907 C908 1.389 . S
C908 C907 1.389 . S
C908 C909 1.387 . S
C909 H894 0.930 . S
C909 C904 1.390 . S
C909 C908 1.387 . S
H910 C922 0.930 . S
H911 C924 0.930 1_455 S
H912 C925 0.930 1_556 S
H913 C929 0.959 . S
H914 C929 0.959 . S
H915 C929 0.961 . S
H916 C930 0.960 . S
H917 C930 0.961 . S
H918 C930 0.959 . S
H919 C933 0.929 . S
H920 C934 0.931 . S
H921 C936 0.930 . S
C922 H910 0.930 . S
C922 C923 1.399 . S
C922 C927 1.399 1_554 S
C923 C922 1.399 . S
C923 C924 1.376 . S
C924 H911 0.930 1_655 S
C924 C923 1.376 . S
C924 C925 1.388 . S
C925 H912 0.930 1_554 S
C925 C924 1.388 . S
C925 C926 1.390 1_554 S
C926 C925 1.390 1_556 S
C926 C927 1.394 . S
C926 C932 1.465 . S
C927 C922 1.399 1_556 S
C927 C926 1.394 . S
C927 C928 1.516 . S
C928 C927 1.516 . S
C928 C929 1.502 . S
C928 C930 1.561 . S
C928 C931 1.526 . S
C929 H913 0.959 . S
C929 H914 0.959 . S
C929 H915 0.961 . S
C929 C928 1.502 . S
C930 H916 0.960 . S
C930 H917 0.961 . S
C930 H918 0.959 . S
C930 C928 1.561 . S
C931 C928 1.526 . S
C931 C932 1.396 . S
C931 C936 1.390 . S
C932 C926 1.465 . S
C932 C931 1.396 . S
C932 C933 1.399 . S
C933 H919 0.929 . S
C933 C932 1.399 . S
C933 C934 1.385 . S
C934 H920 0.931 . S
C934 C933 1.385 . S
C934 C935 1.389 . S
C935 C934 1.389 . S
C935 C936 1.387 . S
C936 H921 0.930 . S
C936 C931 1.390 . S
C936 C935 1.387 . S
H937 C949 0.930 . S
H938 C951 0.930 . S
H939 C952 0.930 . S
H940 C956 0.959 . S
H941 C956 0.959 . S
H942 C956 0.961 . S
H943 C957 0.960 . S
H944 C957 0.961 . S
H945 C957 0.959 . S
H946 C960 0.929 . S
H947 C961 0.931 . S
H948 C963 0.930 . S
C949 H937 0.930 . S
C949 C950 1.399 . S
C949 C954 1.399 . S
C950 C949 1.399 . S
C950 C951 1.376 . S
C951 H938 0.930 . S
C951 C950 1.376 . S
C951 C952 1.388 . S
C952 H939 0.930 . S
C952 C951 1.388 . S
C952 C953 1.390 . S
C953 C952 1.390 . S
C953 C954 1.394 . S
C953 C959 1.465 . S
C954 C949 1.399 . S
C954 C953 1.394 . S
C954 C955 1.516 . S
C955 C954 1.516 . S
C955 C956 1.502 . S
C955 C957 1.561 . S
C955 C958 1.526 . S
C956 H940 0.959 . S
C956 H941 0.959 . S
C956 H942 0.961 . S
C956 C955 1.502 . S
C957 H943 0.960 . S
C957 H944 0.961 . S
C957 H945 0.959 . S
C957 C955 1.561 . S
C958 C955 1.526 . S
C958 C959 1.396 . S
C958 C963 1.390 . S
C959 C953 1.465 . S
C959 C958 1.396 . S
C959 C960 1.399 . S
C960 H946 0.929 . S
C960 C959 1.399 . S
C960 C961 1.385 . S
C961 H947 0.931 . S
C961 C960 1.385 . S
C961 C962 1.389 . S
C962 C961 1.389 . S
C962 C963 1.387 . S
C963 H948 0.930 . S
C963 C958 1.390 . S
C963 C962 1.387 . S
H964 C976 0.930 . S
H965 C978 0.930 . S
H966 C979 0.930 . S
H967 C983 0.959 . S
H968 C983 0.959 . S
H969 C983 0.961 . S
H970 C984 0.960 . S
H971 C984 0.961 . S
H972 C984 0.959 . S
H973 C987 0.929 . S
H974 C988 0.931 . S
H975 C990 0.930 . S
C976 H964 0.930 . S
C976 C977 1.399 . S
C976 C981 1.399 . S
C977 C976 1.399 . S
C977 C978 1.376 . S
C978 H965 0.930 . S
C978 C977 1.376 . S
C978 C979 1.388 . S
C979 H966 0.930 . S
C979 C978 1.388 . S
C979 C980 1.390 . S
C980 C979 1.390 . S
C980 C981 1.394 . S
C980 C986 1.465 . S
C981 C976 1.399 . S
C981 C980 1.394 . S
C981 C982 1.516 . S
C982 C981 1.516 . S
C982 C983 1.502 . S
C982 C984 1.561 . S
C982 C985 1.526 . S
C983 H967 0.959 . S
C983 H968 0.959 . S
C983 H969 0.961 . S
C983 C982 1.502 . S
C984 H970 0.960 . S
C984 H971 0.961 . S
C984 H972 0.959 . S
C984 C982 1.561 . S
C985 C982 1.526 . S
C985 C986 1.396 . S
C985 C990 1.390 . S
C986 C980 1.465 . S
C986 C985 1.396 . S
C986 C987 1.399 . S
C987 H973 0.929 . S
C987 C986 1.399 . S
C987 C988 1.385 . S
C988 H974 0.931 . S
C988 C987 1.385 . S
C988 C989 1.389 . S
C989 C988 1.389 . S
C989 C990 1.387 . S
C990 H975 0.930 . S
C990 C985 1.390 . S
C990 C989 1.387 . S
H991 C1003 0.930 . S
H992 C1005 0.930 . S
H993 C1006 0.930 . S
H994 C1010 0.959 . S
H995 C1010 0.959 . S
H996 C1010 0.961 . S
H997 C1011 0.960 . S
H998 C1011 0.961 . S
H999 C1011 0.959 . S
H1000 C1014 0.929 . S
H1001 C1015 0.931 . S
H1002 C1017 0.930 . S
C1003 H991 0.930 . S
C1003 C1004 1.399 . S
C1003 C1008 1.399 . S
C1004 C1003 1.399 . S
C1004 C1005 1.376 . S
C1005 H992 0.930 . S
C1005 C1004 1.376 . S
C1005 C1006 1.388 . S
C1006 H993 0.930 . S
C1006 C1005 1.388 . S
C1006 C1007 1.390 . S
C1007 C1006 1.390 . S
C1007 C1008 1.394 . S
C1007 C1013 1.465 . S
C1008 C1003 1.399 . S
C1008 C1007 1.394 . S
C1008 C1009 1.516 . S
C1009 C1008 1.516 . S
C1009 C1010 1.502 . S
C1009 C1011 1.561 . S
C1009 C1012 1.526 . S
C1010 H994 0.959 . S
C1010 H995 0.959 . S
C1010 H996 0.961 . S
C1010 C1009 1.502 . S
C1011 H997 0.960 . S
C1011 H998 0.961 . S
C1011 H999 0.959 . S
C1011 C1009 1.561 . S
C1012 C1009 1.526 . S
C1012 C1013 1.396 . S
C1012 C1017 1.390 . S
C1013 C1007 1.465 . S
C1013 C1012 1.396 . S
C1013 C1014 1.399 . S
C1014 H1000 0.929 . S
C1014 C1013 1.399 . S
C1014 C1015 1.385 . S
C1015 H1001 0.931 . S
C1015 C1014 1.385 . S
C1015 C1016 1.389 . S
C1016 C1015 1.389 . S
C1016 C1017 1.387 . S
C1017 H1002 0.930 . S
C1017 C1012 1.390 . S
C1017 C1016 1.387 . S
H1018 C1030 0.930 . S
H1019 C1032 0.930 . S
H1020 C1033 0.930 . S
H1021 C1037 0.959 . S
H1022 C1037 0.959 . S
H1023 C1037 0.961 . S
H1024 C1038 0.960 . S
H1025 C1038 0.961 1_556 S
H1026 C1038 0.959 . S
H1027 C1041 0.929 . S
H1028 C1042 0.931 . S
H1029 C1044 0.930 . S
C1030 H1018 0.930 . S
C1030 C1031 1.399 . S
C1030 C1035 1.399 . S
C1031 C1030 1.399 . S
C1031 C1032 1.376 . S
C1032 H1019 0.930 . S
C1032 C1031 1.376 . S
C1032 C1033 1.388 . S
C1033 H1020 0.930 . S
C1033 C1032 1.388 . S
C1033 C1034 1.390 . S
C1034 C1033 1.390 . S
C1034 C1035 1.394 . S
C1034 C1040 1.465 . S
C1035 C1030 1.399 . S
C1035 C1034 1.394 . S
C1035 C1036 1.516 . S
C1036 C1035 1.516 . S
C1036 C1037 1.502 . S
C1036 C1038 1.561 . S
C1036 C1039 1.526 . S
C1037 H1021 0.959 . S
C1037 H1022 0.959 . S
C1037 H1023 0.961 . S
C1037 C1036 1.502 . S
C1038 H1024 0.960 . S
C1038 H1025 0.961 1_554 S
C1038 H1026 0.959 . S
C1038 C1036 1.561 . S
C1039 C1036 1.526 . S
C1039 C1040 1.396 . S
C1039 C1044 1.390 1_554 S
C1040 C1034 1.465 . S
C1040 C1039 1.396 . S
C1040 C1041 1.399 . S
C1041 H1027 0.929 . S
C1041 C1040 1.399 . S
C1041 C1042 1.385 1_554 S
C1042 H1028 0.931 . S
C1042 C1041 1.385 1_556 S
C1042 C1043 1.389 . S
C1043 C1042 1.389 . S
C1043 C1044 1.387 . S
C1044 H1029 0.930 . S
C1044 C1039 1.390 1_556 S
C1044 C1043 1.387 . S
H1045 C1057 0.930 . S
H1046 C1059 0.930 . S
H1047 C1060 0.930 . S
H1048 C1064 0.959 . S
H1049 C1064 0.959 . S
H1050 C1064 0.961 . S
H1051 C1065 0.960 . S
H1052 C1065 0.961 . S
H1053 C1065 0.959 . S
H1054 C1068 0.929 . S
H1055 C1069 0.931 . S
H1056 C1071 0.930 . S
C1057 H1045 0.930 . S
C1057 C1058 1.399 . S
C1057 C1062 1.399 . S
C1058 C1057 1.399 . S
C1058 C1059 1.376 . S
C1059 H1046 0.930 . S
C1059 C1058 1.376 . S
C1059 C1060 1.388 . S
C1060 H1047 0.930 . S
C1060 C1059 1.388 . S
C1060 C1061 1.390 . S
C1061 C1060 1.390 . S
C1061 C1062 1.394 . S
C1061 C1067 1.465 . S
C1062 C1057 1.399 . S
C1062 C1061 1.394 . S
C1062 C1063 1.516 . S
C1063 C1062 1.516 . S
C1063 C1064 1.502 . S
C1063 C1065 1.561 . S
C1063 C1066 1.526 . S
C1064 H1048 0.959 . S
C1064 H1049 0.959 . S
C1064 H1050 0.961 . S
C1064 C1063 1.502 . S
C1065 H1051 0.960 . S
C1065 H1052 0.961 . S
C1065 H1053 0.959 . S
C1065 C1063 1.561 . S
C1066 C1063 1.526 . S
C1066 C1067 1.396 . S
C1066 C1071 1.390 . S
C1067 C1061 1.465 . S
C1067 C1066 1.396 . S
C1067 C1068 1.399 . S
C1068 H1054 0.929 . S
C1068 C1067 1.399 . S
C1068 C1069 1.385 . S
C1069 H1055 0.931 . S
C1069 C1068 1.385 . S
C1069 C1070 1.389 . S
C1070 C1069 1.389 . S
C1070 C1071 1.387 . S
C1071 H1056 0.930 . S
C1071 C1066 1.390 . S
C1071 C1070 1.387 . S
H1072 C1084 0.930 . S
H1073 C1086 0.930 . S
H1074 C1087 0.930 . S
H1075 C1091 0.959 . S
H1076 C1091 0.959 . S
H1077 C1091 0.961 . S
H1078 C1092 0.960 . S
H1079 C1092 0.961 . S
H1080 C1092 0.959 1_655 S
H1081 C1095 0.929 . S
H1082 C1096 0.931 . S
H1083 C1098 0.930 . S
C1084 H1072 0.930 . S
C1084 C1085 1.399 . S
C1084 C1089 1.399 . S
C1085 C1084 1.399 . S
C1085 C1086 1.376 1_455 S
C1086 H1073 0.930 . S
C1086 C1085 1.376 1_655 S
C1086 C1087 1.388 . S
C1087 H1074 0.930 . S
C1087 C1086 1.388 . S
C1087 C1088 1.390 . S
C1088 C1087 1.390 . S
C1088 C1089 1.394 1_655 S
C1088 C1094 1.465 . S
C1089 C1084 1.399 . S
C1089 C1088 1.394 1_455 S
C1089 C1090 1.516 . S
C1090 C1089 1.516 . S
C1090 C1091 1.502 . S
C1090 C1092 1.561 . S
C1090 C1093 1.526 . S
C1091 H1075 0.959 . S
C1091 H1076 0.959 . S
C1091 H1077 0.961 . S
C1091 C1090 1.502 . S
C1092 H1078 0.960 . S
C1092 H1079 0.961 . S
C1092 H1080 0.959 1_455 S
C1092 C1090 1.561 . S
C1093 C1090 1.526 . S
C1093 C1094 1.396 1_455 S
C1093 C1098 1.390 . S
C1094 C1088 1.465 . S
C1094 C1093 1.396 1_655 S
C1094 C1095 1.399 . S
C1095 H1081 0.929 . S
C1095 C1094 1.399 . S
C1095 C1096 1.385 . S
C1096 H1082 0.931 . S
C1096 C1095 1.385 . S
C1096 C1097 1.389 . S
C1097 C1096 1.389 . S
C1097 C1098 1.387 1_655 S
C1098 H1083 0.930 . S
C1098 C1093 1.390 . S
C1098 C1097 1.387 1_455 S
H1099 C1111 0.930 . S
H1100 C1113 0.930 . S
H1101 C1114 0.930 . S
H1102 C1118 0.959 1_655 S
H1103 C1118 0.959 . S
H1104 C1118 0.961 1_655 S
H1105 C1119 0.960 . S
H1106 C1119 0.961 . S
H1107 C1119 0.959 . S
H1108 C1122 0.929 . S
H1109 C1123 0.931 . S
H1110 C1125 0.930 . S
C1111 H1099 0.930 . S
C1111 C1112 1.399 . S
C1111 C1116 1.399 1_655 S
C1112 C1111 1.399 . S
C1112 C1113 1.376 . S
C1113 H1100 0.930 . S
C1113 C1112 1.376 . S
C1113 C1114 1.388 1_655 S
C1114 H1101 0.930 . S
C1114 C1113 1.388 1_455 S
C1114 C1115 1.390 . S
C1115 C1114 1.390 . S
C1115 C1116 1.394 . S
C1115 C1121 1.465 . S
C1116 C1111 1.399 1_455 S
C1116 C1115 1.394 . S
C1116 C1117 1.516 . S
C1117 C1116 1.516 . S
C1117 C1118 1.502 . S
C1117 C1119 1.561 . S
C1117 C1120 1.526 . S
C1118 H1102 0.959 1_455 S
C1118 H1103 0.959 . S
C1118 H1104 0.961 1_455 S
C1118 C1117 1.502 . S
C1119 H1105 0.960 . S
C1119 H1106 0.961 . S
C1119 H1107 0.959 . S
C1119 C1117 1.561 . S
C1120 C1117 1.526 . S
C1120 C1121 1.396 . S
C1120 C1125 1.390 . S
C1121 C1115 1.465 . S
C1121 C1120 1.396 . S
C1121 C1122 1.399 . S
C1122 H1108 0.929 . S
C1122 C1121 1.399 . S
C1122 C1123 1.385 . S
C1123 H1109 0.931 . S
C1123 C1122 1.385 . S
C1123 C1124 1.389 . S
C1124 C1123 1.389 . S
C1124 C1125 1.387 . S
C1125 H1110 0.930 . S
C1125 C1120 1.390 . S
C1125 C1124 1.387 . S
H1126 C1138 0.930 . S
H1127 C1140 0.930 . S
H1128 C1141 0.930 . S
H1129 C1145 0.959 . S
H1130 C1145 0.959 . S
H1131 C1145 0.961 . S
H1132 C1146 0.960 . S
H1133 C1146 0.961 . S
H1134 C1146 0.959 . S
H1135 C1149 0.929 . S
H1136 C1150 0.931 . S
H1137 C1152 0.930 . S
C1138 H1126 0.930 . S
C1138 C1139 1.399 . S
C1138 C1143 1.399 . S
C1139 C1138 1.399 . S
C1139 C1140 1.376 . S
C1140 H1127 0.930 . S
C1140 C1139 1.376 . S
C1140 C1141 1.388 . S
C1141 H1128 0.930 . S
C1141 C1140 1.388 . S
C1141 C1142 1.390 . S
C1142 C1141 1.390 . S
C1142 C1143 1.394 . S
C1142 C1148 1.465 . S
C1143 C1138 1.399 . S
C1143 C1142 1.394 . S
C1143 C1144 1.516 . S
C1144 C1143 1.516 . S
C1144 C1145 1.502 . S
C1144 C1146 1.561 . S
C1144 C1147 1.526 . S
C1145 H1129 0.959 . S
C1145 H1130 0.959 . S
C1145 H1131 0.961 . S
C1145 C1144 1.502 . S
C1146 H1132 0.960 . S
C1146 H1133 0.961 . S
C1146 H1134 0.959 . S
C1146 C1144 1.561 . S
C1147 C1144 1.526 . S
C1147 C1148 1.396 . S
C1147 C1152 1.390 . S
C1148 C1142 1.465 . S
C1148 C1147 1.396 . S
C1148 C1149 1.399 . S
C1149 H1135 0.929 . S
C1149 C1148 1.399 . S
C1149 C1150 1.385 . S
C1150 H1136 0.931 . S
C1150 C1149 1.385 . S
C1150 C1151 1.389 . S
C1151 C1150 1.389 . S
C1151 C1152 1.387 . S
C1152 H1137 0.930 . S
C1152 C1147 1.390 . S
C1152 C1151 1.387 . S
H1153 C1165 0.930 . S
H1154 C1167 0.930 . S
H1155 C1168 0.930 . S
H1156 C1172 0.959 . S
H1157 C1172 0.959 . S
H1158 C1172 0.961 . S
H1159 C1173 0.960 . S
H1160 C1173 0.961 . S
H1161 C1173 0.959 . S
H1162 C1176 0.929 . S
H1163 C1177 0.931 . S
H1164 C1179 0.930 . S
C1165 H1153 0.930 . S
C1165 C1166 1.399 . S
C1165 C1170 1.399 . S
C1166 C1165 1.399 . S
C1166 C1167 1.376 . S
C1167 H1154 0.930 . S
C1167 C1166 1.376 . S
C1167 C1168 1.388 . S
C1168 H1155 0.930 . S
C1168 C1167 1.388 . S
C1168 C1169 1.390 . S
C1169 C1168 1.390 . S
C1169 C1170 1.394 . S
C1169 C1175 1.465 . S
C1170 C1165 1.399 . S
C1170 C1169 1.394 . S
C1170 C1171 1.516 . S
C1171 C1170 1.516 . S
C1171 C1172 1.502 . S
C1171 C1173 1.561 . S
C1171 C1174 1.526 . S
C1172 H1156 0.959 . S
C1172 H1157 0.959 . S
C1172 H1158 0.961 . S
C1172 C1171 1.502 . S
C1173 H1159 0.960 . S
C1173 H1160 0.961 . S
C1173 H1161 0.959 . S
C1173 C1171 1.561 . S
C1174 C1171 1.526 . S
C1174 C1175 1.396 . S
C1174 C1179 1.390 . S
C1175 C1169 1.465 . S
C1175 C1174 1.396 . S
C1175 C1176 1.399 . S
C1176 H1162 0.929 . S
C1176 C1175 1.399 . S
C1176 C1177 1.385 . S
C1177 H1163 0.931 . S
C1177 C1176 1.385 . S
C1177 C1178 1.389 . S
C1178 C1177 1.389 . S
C1178 C1179 1.387 . S
C1179 H1164 0.930 . S
C1179 C1174 1.390 . S
C1179 C1178 1.387 . S
H1180 C1192 0.930 . S
H1181 C1194 0.930 . S
H1182 C1195 0.930 . S
H1183 C1199 0.959 . S
H1184 C1199 0.959 . S
H1185 C1199 0.961 . S
H1186 C1200 0.960 . S
H1187 C1200 0.961 . S
H1188 C1200 0.959 . S
H1189 C1203 0.929 . S
H1190 C1204 0.931 . S
H1191 C1206 0.930 . S
C1192 H1180 0.930 . S
C1192 C1193 1.399 . S
C1192 C1197 1.399 . S
C1193 C1192 1.399 . S
C1193 C1194 1.376 . S
C1194 H1181 0.930 . S
C1194 C1193 1.376 . S
C1194 C1195 1.388 . S
C1195 H1182 0.930 . S
C1195 C1194 1.388 . S
C1195 C1196 1.390 . S
C1196 C1195 1.390 . S
C1196 C1197 1.394 . S
C1196 C1202 1.465 . S
C1197 C1192 1.399 . S
C1197 C1196 1.394 . S
C1197 C1198 1.516 . S
C1198 C1197 1.516 . S
C1198 C1199 1.502 1_455 S
C1198 C1200 1.561 . S
C1198 C1201 1.526 . S
C1199 H1183 0.959 . S
C1199 H1184 0.959 . S
C1199 H1185 0.961 . S
C1199 C1198 1.502 1_655 S
C1200 H1186 0.960 . S
C1200 H1187 0.961 . S
C1200 H1188 0.959 . S
C1200 C1198 1.561 . S
C1201 C1198 1.526 . S
C1201 C1202 1.396 . S
C1201 C1206 1.390 . S
C1202 C1196 1.465 . S
C1202 C1201 1.396 . S
C1202 C1203 1.399 . S
C1203 H1189 0.929 . S
C1203 C1202 1.399 . S
C1203 C1204 1.385 . S
C1204 H1190 0.931 . S
C1204 C1203 1.385 . S
C1204 C1205 1.389 . S
C1205 C1204 1.389 . S
C1205 C1206 1.387 . S
C1206 H1191 0.930 . S
C1206 C1201 1.390 . S
C1206 C1205 1.387 . S
H1207 C1219 0.930 . S
H1208 C1221 0.930 . S
H1209 C1222 0.930 . S
H1210 C1226 0.959 . S
H1211 C1226 0.959 . S
H1212 C1226 0.961 . S
H1213 C1227 0.960 . S
H1214 C1227 0.961 . S
H1215 C1227 0.959 . S
H1216 C1230 0.929 . S
H1217 C1231 0.931 . S
H1218 C1233 0.930 . S
C1219 H1207 0.930 . S
C1219 C1220 1.399 . S
C1219 C1224 1.399 . S
C1220 C1219 1.399 . S
C1220 C1221 1.376 . S
C1221 H1208 0.930 . S
C1221 C1220 1.376 . S
C1221 C1222 1.388 . S
C1222 H1209 0.930 . S
C1222 C1221 1.388 . S
C1222 C1223 1.390 . S
C1223 C1222 1.390 . S
C1223 C1224 1.394 . S
C1223 C1229 1.465 . S
C1224 C1219 1.399 . S
C1224 C1223 1.394 . S
C1224 C1225 1.516 . S
C1225 C1224 1.516 . S
C1225 C1226 1.502 . S
C1225 C1227 1.561 . S
C1225 C1228 1.526 . S
C1226 H1210 0.959 . S
C1226 H1211 0.959 . S
C1226 H1212 0.961 . S
C1226 C1225 1.502 . S
C1227 H1213 0.960 . S
C1227 H1214 0.961 . S
C1227 H1215 0.959 . S
C1227 C1225 1.561 . S
C1228 C1225 1.526 . S
C1228 C1229 1.396 . S
C1228 C1233 1.390 . S
C1229 C1223 1.465 . S
C1229 C1228 1.396 . S
C1229 C1230 1.399 . S
C1230 H1216 0.929 . S
C1230 C1229 1.399 . S
C1230 C1231 1.385 . S
C1231 H1217 0.931 . S
C1231 C1230 1.385 . S
C1231 C1232 1.389 . S
C1232 C1231 1.389 . S
C1232 C1233 1.387 . S
C1233 H1218 0.930 . S
C1233 C1228 1.390 . S
C1233 C1232 1.387 . S
H1234 C1246 0.930 . S
H1235 C1248 0.930 . S
H1236 C1249 0.930 . S
H1237 C1253 0.959 . S
H1238 C1253 0.959 . S
H1239 C1253 0.961 . S
H1240 C1254 0.960 . S
H1241 C1254 0.961 . S
H1242 C1254 0.959 . S
H1243 C1257 0.929 . S
H1244 C1258 0.931 . S
H1245 C1260 0.930 . S
C1246 H1234 0.930 . S
C1246 C1247 1.399 . S
C1246 C1251 1.399 . S
C1247 C1246 1.399 . S
C1247 C1248 1.376 . S
C1248 H1235 0.930 . S
C1248 C1247 1.376 . S
C1248 C1249 1.388 . S
C1249 H1236 0.930 . S
C1249 C1248 1.388 . S
C1249 C1250 1.390 . S
C1250 C1249 1.390 . S
C1250 C1251 1.394 . S
C1250 C1256 1.465 . S
C1251 C1246 1.399 . S
C1251 C1250 1.394 . S
C1251 C1252 1.516 . S
C1252 C1251 1.516 . S
C1252 C1253 1.502 . S
C1252 C1254 1.561 . S
C1252 C1255 1.526 . S
C1253 H1237 0.959 . S
C1253 H1238 0.959 . S
C1253 H1239 0.961 . S
C1253 C1252 1.502 . S
C1254 H1240 0.960 . S
C1254 H1241 0.961 . S
C1254 H1242 0.959 . S
C1254 C1252 1.561 . S
C1255 C1252 1.526 . S
C1255 C1256 1.396 . S
C1255 C1260 1.390 . S
C1256 C1250 1.465 . S
C1256 C1255 1.396 . S
C1256 C1257 1.399 . S
C1257 H1243 0.929 . S
C1257 C1256 1.399 . S
C1257 C1258 1.385 . S
C1258 H1244 0.931 . S
C1258 C1257 1.385 . S
C1258 C1259 1.389 . S
C1259 C1258 1.389 . S
C1259 C1260 1.387 . S
C1260 H1245 0.930 . S
C1260 C1255 1.390 . S
C1260 C1259 1.387 . S
H1261 C1273 0.930 . S
H1262 C1275 0.930 . S
H1263 C1276 0.930 . S
H1264 C1280 0.959 . S
H1265 C1280 0.959 . S
H1266 C1280 0.961 . S
H1267 C1281 0.960 . S
H1268 C1281 0.961 1_655 S
H1269 C1281 0.959 1_655 S
H1270 C1284 0.929 . S
H1271 C1285 0.931 . S
H1272 C1287 0.930 . S
C1273 H1261 0.930 . S
C1273 C1274 1.399 . S
C1273 C1278 1.399 . S
C1274 C1273 1.399 . S
C1274 C1275 1.376 . S
C1275 H1262 0.930 . S
C1275 C1274 1.376 . S
C1275 C1276 1.388 . S
C1276 H1263 0.930 . S
C1276 C1275 1.388 . S
C1276 C1277 1.390 . S
C1277 C1276 1.390 . S
C1277 C1278 1.394 . S
C1277 C1283 1.465 1_455 S
C1278 C1273 1.399 . S
C1278 C1277 1.394 . S
C1278 C1279 1.516 . S
C1279 C1278 1.516 . S
C1279 C1280 1.502 . S
C1279 C1281 1.561 . S
C1279 C1282 1.526 1_455 S
C1280 H1264 0.959 . S
C1280 H1265 0.959 . S
C1280 H1266 0.961 . S
C1280 C1279 1.502 . S
C1281 H1267 0.960 . S
C1281 H1268 0.961 1_455 S
C1281 H1269 0.959 1_455 S
C1281 C1279 1.561 . S
C1282 C1279 1.526 1_655 S
C1282 C1283 1.396 . S
C1282 C1287 1.390 . S
C1283 C1277 1.465 1_655 S
C1283 C1282 1.396 . S
C1283 C1284 1.399 . S
C1284 H1270 0.929 . S
C1284 C1283 1.399 . S
C1284 C1285 1.385 . S
C1285 H1271 0.931 . S
C1285 C1284 1.385 . S
C1285 C1286 1.389 . S
C1286 C1285 1.389 . S
C1286 C1287 1.387 . S
C1287 H1272 0.930 . S
C1287 C1282 1.390 . S
C1287 C1286 1.387 . S
H1288 C1300 0.930 . S
H1289 C1302 0.930 . S
H1290 C1303 0.930 1_556 S
H1291 C1307 0.989 . S
H1292 C1307 0.935 1_565 S
H1293 C1307 0.968 . S
H1294 C1308 0.960 . S
H1295 C1308 0.961 . S
H1296 C1308 0.959 . S
H1297 C1311 0.933 . S
H1298 C1312 0.931 1_655 S
H1299 C1314 0.930 . S
C1300 H1288 0.930 . S
C1300 C1301 1.399 . S
C1300 C1305 1.399 . S
C1301 C1300 1.399 . S
C1301 C1302 1.376 1_455 S
C1302 H1289 0.930 . S
C1302 C1301 1.376 1_655 S
C1302 C1303 1.388 . S
C1303 H1290 0.930 1_554 S
C1303 C1302 1.388 . S
C1303 C1304 1.390 1_655 S
C1304 C1303 1.390 1_455 S
C1304 C1305 1.394 . S
C1304 C1310 1.465 1_544 S
C1305 C1300 1.399 . S
C1305 C1304 1.394 . S
C1305 C1306 1.516 1_545 S
C1306 C1305 1.516 1_565 S
C1306 C1307 1.491 1_565 S
C1306 C1308 1.561 . S
C1306 C1309 1.526 1_554 S
C1307 H1291 0.989 . S
C1307 H1292 0.935 1_545 S
C1307 H1293 0.968 . S
C1307 C1306 1.491 1_545 S
C1308 H1294 0.960 . S
C1308 H1295 0.961 . S
C1308 H1296 0.959 . S
C1308 C1306 1.561 . S
C1309 C1306 1.526 1_556 S
C1309 C1310 1.396 . S
C1309 C1314 1.390 . S
C1310 C1304 1.465 1_566 S
C1310 C1309 1.396 . S
C1310 C1311 1.399 1_455 S
C1311 H1297 0.933 . S
C1311 C1310 1.399 1_655 S
C1311 C1312 1.385 1_655 S
C1312 H1298 0.931 1_455 S
C1312 C1311 1.385 1_455 S
C1312 C1313 1.389 . S
C1313 C1312 1.389 . S
C1313 C1314 1.387 . S
C1314 H1299 0.930 . S
C1314 C1309 1.390 . S
C1314 C1313 1.387 . S
H1315 C1327 0.930 . S
H1316 C1329 0.930 . S
H1317 C1330 0.930 . S
H1318 C1334 0.959 . S
H1319 C1334 0.959 . S
H1320 C1334 0.961 . S
H1321 C1335 0.960 . S
H1322 C1335 0.961 . S
H1323 C1335 0.959 . S
H1324 C1338 0.929 . S
H1325 C1339 0.931 . S
H1326 C1341 0.930 . S
C1327 H1315 0.930 . S
C1327 C1328 1.399 . S
C1327 C1332 1.399 . S
C1328 C1327 1.399 . S
C1328 C1329 1.376 . S
C1329 H1316 0.930 . S
C1329 C1328 1.376 . S
C1329 C1330 1.388 . S
C1330 H1317 0.930 . S
C1330 C1329 1.388 . S
C1330 C1331 1.390 . S
C1331 C1330 1.390 . S
C1331 C1332 1.394 . S
C1331 C1337 1.465 . S
C1332 C1327 1.399 . S
C1332 C1331 1.394 . S
C1332 C1333 1.516 . S
C1333 C1332 1.516 . S
C1333 C1334 1.502 . S
C1333 C1335 1.561 . S
C1333 C1336 1.526 . S
C1334 H1318 0.959 . S
C1334 H1319 0.959 . S
C1334 H1320 0.961 . S
C1334 C1333 1.502 . S
C1335 H1321 0.960 . S
C1335 H1322 0.961 . S
C1335 H1323 0.959 . S
C1335 C1333 1.561 . S
C1336 C1333 1.526 . S
C1336 C1337 1.396 . S
C1336 C1341 1.390 . S
C1337 C1331 1.465 . S
C1337 C1336 1.396 . S
C1337 C1338 1.399 . S
C1338 H1324 0.929 . S
C1338 C1337 1.399 . S
C1338 C1339 1.385 . S
C1339 H1325 0.931 . S
C1339 C1338 1.385 . S
C1339 C1340 1.389 . S
C1340 C1339 1.389 . S
C1340 C1341 1.387 . S
C1341 H1326 0.930 . S
C1341 C1336 1.390 . S
C1341 C1340 1.387 . S
H1342 C1354 0.930 . S
H1343 C1356 0.930 . S
H1344 C1357 0.930 . S
H1345 C1361 0.959 . S
H1346 C1361 0.959 . S
H1347 C1361 0.961 . S
H1348 C1362 0.960 . S
H1349 C1362 0.961 . S
H1350 C1362 0.959 . S
H1351 C1365 0.929 . S
H1352 C1366 0.931 . S
H1353 C1368 0.930 . S
C1354 H1342 0.930 . S
C1354 C1355 1.399 . S
C1354 C1359 1.399 . S
C1355 C1354 1.399 . S
C1355 C1356 1.376 . S
C1356 H1343 0.930 . S
C1356 C1355 1.376 . S
C1356 C1357 1.388 . S
C1357 H1344 0.930 . S
C1357 C1356 1.388 . S
C1357 C1358 1.390 . S
C1358 C1357 1.390 . S
C1358 C1359 1.394 . S
C1358 C1364 1.455 1_545 S
C1359 C1354 1.399 . S
C1359 C1358 1.394 . S
C1359 C1360 1.516 1_545 S
C1360 C1359 1.516 1_565 S
C1360 C1361 1.502 . S
C1360 C1362 1.561 . S
C1360 C1363 1.526 . S
C1361 H1345 0.959 . S
C1361 H1346 0.959 . S
C1361 H1347 0.961 . S
C1361 C1360 1.502 . S
C1362 H1348 0.960 . S
C1362 H1349 0.961 . S
C1362 H1350 0.959 . S
C1362 C1360 1.561 . S
C1363 C1360 1.526 . S
C1363 C1364 1.410 . S
C1363 C1368 1.390 . S
C1364 C1358 1.455 1_565 S
C1364 C1363 1.410 . S
C1364 C1365 1.397 1_565 S
C1365 H1351 0.929 . S
C1365 C1364 1.397 1_545 S
C1365 C1366 1.385 1_545 S
C1366 H1352 0.931 . S
C1366 C1365 1.385 1_565 S
C1366 C1367 1.389 . S
C1367 C1366 1.389 . S
C1367 C1368 1.387 . S
C1368 H1353 0.930 . S
C1368 C1363 1.390 . S
C1368 C1367 1.387 . S
H1369 C1381 0.930 . S
H1370 C1383 0.930 . S
H1371 C1384 0.930 . S
H1372 C1388 0.959 . S
H1373 C1388 0.959 . S
H1374 C1388 0.961 . S
H1375 C1389 0.960 . S
H1376 C1389 0.961 . S
H1377 C1389 0.959 . S
H1378 C1392 0.929 . S
H1379 C1393 0.931 . S
H1380 C1395 0.930 . S
C1381 H1369 0.930 . S
C1381 C1382 1.399 . S
C1381 C1386 1.399 . S
C1382 C1381 1.399 . S
C1382 C1383 1.376 . S
C1383 H1370 0.930 . S
C1383 C1382 1.376 . S
C1383 C1384 1.388 . S
C1384 H1371 0.930 . S
C1384 C1383 1.388 . S
C1384 C1385 1.390 . S
C1385 C1384 1.390 . S
C1385 C1386 1.394 . S
C1385 C1391 1.465 . S
C1386 C1381 1.399 . S
C1386 C1385 1.394 . S
C1386 C1387 1.516 . S
C1387 C1386 1.516 . S
C1387 C1388 1.502 . S
C1387 C1389 1.561 . S
C1387 C1390 1.526 . S
C1388 H1372 0.959 . S
C1388 H1373 0.959 . S
C1388 H1374 0.961 . S
C1388 C1387 1.502 . S
C1389 H1375 0.960 . S
C1389 H1376 0.961 . S
C1389 H1377 0.959 . S
C1389 C1387 1.561 . S
C1390 C1387 1.526 . S
C1390 C1391 1.396 . S
C1390 C1395 1.390 . S
C1391 C1385 1.465 . S
C1391 C1390 1.396 . S
C1391 C1392 1.399 . S
C1392 H1378 0.929 . S
C1392 C1391 1.399 . S
C1392 C1393 1.385 . S
C1393 H1379 0.931 . S
C1393 C1392 1.385 . S
C1393 C1394 1.389 . S
C1394 C1393 1.389 . S
C1394 C1395 1.387 . S
C1395 H1380 0.930 . S
C1395 C1390 1.390 . S
C1395 C1394 1.387 . S
H1396 C1408 0.930 . S
H1397 C1410 0.930 . S
H1398 C1411 0.930 . S
H1399 C1415 0.959 . S
H1400 C1415 0.959 . S
H1401 C1415 0.961 . S
H1402 C1416 0.960 . S
H1403 C1416 0.961 . S
H1404 C1416 0.959 . S
H1405 C1419 0.929 . S
H1406 C1420 0.931 . S
H1407 C1422 0.930 . S
C1408 H1396 0.930 . S
C1408 C1409 1.399 . S
C1408 C1413 1.399 . S
C1409 C1408 1.399 . S
C1409 C1410 1.376 . S
C1410 H1397 0.930 . S
C1410 C1409 1.376 . S
C1410 C1411 1.388 . S
C1411 H1398 0.930 . S
C1411 C1410 1.388 . S
C1411 C1412 1.390 . S
C1412 C1411 1.390 . S
C1412 C1413 1.394 . S
C1412 C1418 1.465 . S
C1413 C1408 1.399 . S
C1413 C1412 1.394 . S
C1413 C1414 1.516 . S
C1414 C1413 1.516 . S
C1414 C1415 1.502 . S
C1414 C1416 1.561 . S
C1414 C1417 1.526 . S
C1415 H1399 0.959 . S
C1415 H1400 0.959 . S
C1415 H1401 0.961 . S
C1415 C1414 1.502 . S
C1416 H1402 0.960 . S
C1416 H1403 0.961 . S
C1416 H1404 0.959 . S
C1416 C1414 1.561 . S
C1417 C1414 1.526 . S
C1417 C1418 1.396 . S
C1417 C1422 1.390 . S
C1418 C1412 1.465 . S
C1418 C1417 1.396 . S
C1418 C1419 1.399 . S
C1419 H1405 0.929 . S
C1419 C1418 1.399 . S
C1419 C1420 1.385 . S
C1420 H1406 0.931 . S
C1420 C1419 1.385 . S
C1420 C1421 1.389 . S
C1421 C1420 1.389 . S
C1421 C1422 1.387 . S
C1422 H1407 0.930 . S
C1422 C1417 1.390 . S
C1422 C1421 1.387 . S
H1423 C1435 0.930 . S
H1424 C1437 0.930 . S
H1425 C1438 0.930 . S
H1426 C1442 0.959 . S
H1427 C1442 0.959 . S
H1428 C1442 0.961 . S
H1429 C1443 0.960 . S
H1430 C1443 0.961 . S
H1431 C1443 0.959 . S
H1432 C1446 0.929 . S
H1433 C1447 0.931 . S
H1434 C1449 0.930 . S
C1435 H1423 0.930 . S
C1435 C1436 1.399 . S
C1435 C1440 1.399 . S
C1436 C1435 1.399 . S
C1436 C1437 1.376 . S
C1437 H1424 0.930 . S
C1437 C1436 1.376 . S
C1437 C1438 1.388 . S
C1438 H1425 0.930 . S
C1438 C1437 1.388 . S
C1438 C1439 1.390 . S
C1439 C1438 1.390 . S
C1439 C1440 1.394 . S
C1439 C1445 1.465 . S
C1440 C1435 1.399 . S
C1440 C1439 1.394 . S
C1440 C1441 1.516 . S
C1441 C1440 1.516 . S
C1441 C1442 1.502 . S
C1441 C1443 1.561 . S
C1441 C1444 1.526 . S
C1442 H1426 0.959 . S
C1442 H1427 0.959 . S
C1442 H1428 0.961 . S
C1442 C1441 1.502 . S
C1443 H1429 0.960 . S
C1443 H1430 0.961 . S
C1443 H1431 0.959 . S
C1443 C1441 1.561 . S
C1444 C1441 1.526 . S
C1444 C1445 1.396 . S
C1444 C1449 1.390 . S
C1445 C1439 1.465 . S
C1445 C1444 1.396 . S
C1445 C1446 1.399 . S
C1446 H1432 0.929 . S
C1446 C1445 1.399 . S
C1446 C1447 1.385 . S
C1447 H1433 0.931 . S
C1447 C1446 1.385 . S
C1447 C1448 1.389 . S
C1448 C1447 1.389 . S
C1448 C1449 1.387 . S
C1449 H1434 0.930 . S
C1449 C1444 1.390 . S
C1449 C1448 1.387 . S
H1450 C1462 0.930 . S
H1451 C1464 0.930 . S
H1452 C1465 0.930 . S
H1453 C1469 0.959 . S
H1454 C1469 0.959 . S
H1455 C1469 0.961 . S
H1456 C1470 0.960 . S
H1457 C1470 0.961 . S
H1458 C1470 0.959 . S
H1459 C1473 0.929 . S
H1460 C1474 0.931 . S
H1461 C1476 0.930 . S
C1462 H1450 0.930 . S
C1462 C1463 1.399 . S
C1462 C1467 1.399 . S
C1463 C1462 1.399 . S
C1463 C1464 1.376 . S
C1464 H1451 0.930 . S
C1464 C1463 1.376 . S
C1464 C1465 1.388 . S
C1465 H1452 0.930 . S
C1465 C1464 1.388 . S
C1465 C1466 1.390 . S
C1466 C1465 1.390 . S
C1466 C1467 1.394 . S
C1466 C1472 1.465 . S
C1467 C1462 1.399 . S
C1467 C1466 1.394 . S
C1467 C1468 1.516 . S
C1468 C1467 1.516 . S
C1468 C1469 1.502 . S
C1468 C1470 1.561 . S
C1468 C1471 1.526 . S
C1469 H1453 0.959 . S
C1469 H1454 0.959 . S
C1469 H1455 0.961 . S
C1469 C1468 1.502 . S
C1470 H1456 0.960 . S
C1470 H1457 0.961 . S
C1470 H1458 0.959 . S
C1470 C1468 1.561 . S
C1471 C1468 1.526 . S
C1471 C1472 1.396 . S
C1471 C1476 1.390 . S
C1472 C1466 1.465 . S
C1472 C1471 1.396 . S
C1472 C1473 1.399 . S
C1473 H1459 0.929 . S
C1473 C1472 1.399 . S
C1473 C1474 1.385 . S
C1474 H1460 0.931 . S
C1474 C1473 1.385 . S
C1474 C1475 1.389 . S
C1475 C1474 1.389 . S
C1475 C1476 1.387 . S
C1476 H1461 0.930 . S
C1476 C1471 1.390 . S
C1476 C1475 1.387 . S
H1477 C1489 0.930 . S
H1478 C1491 0.930 1_655 S
H1479 C1492 0.930 . S
H1480 C1496 0.959 . S
H1481 C1496 0.959 . S
H1482 C1496 0.961 . S
H1483 C1497 0.960 . S
H1484 C1497 0.961 . S
H1485 C1497 0.959 1_655 S
H1486 C1500 0.929 1_556 S
H1487 C1501 0.925 1_655 S
H1488 C1503 0.930 . S
C1489 H1477 0.930 . S
C1489 C1490 1.399 . S
C1489 C1494 1.399 . S
C1490 C1489 1.399 . S
C1490 C1491 1.376 . S
C1491 H1478 0.930 1_455 S
C1491 C1490 1.376 . S
C1491 C1492 1.388 1_455 S
C1492 H1479 0.930 . S
C1492 C1491 1.388 1_655 S
C1492 C1493 1.390 1_655 S
C1493 C1492 1.390 1_455 S
C1493 C1494 1.394 . S
C1493 C1499 1.465 1_556 S
C1494 C1489 1.399 . S
C1494 C1493 1.394 . S
C1494 C1495 1.516 1_556 S
C1495 C1494 1.516 1_554 S
C1495 C1496 1.502 . S
C1495 C1497 1.561 . S
C1495 C1498 1.526 . S
C1496 H1480 0.959 . S
C1496 H1481 0.959 . S
C1496 H1482 0.961 . S
C1496 C1495 1.502 . S
C1497 H1483 0.960 . S
C1497 H1484 0.961 . S
C1497 H1485 0.959 1_455 S
C1497 C1495 1.561 . S
C1498 C1495 1.526 . S
C1498 C1499 1.396 . S
C1498 C1503 1.390 . S
C1499 C1493 1.465 1_554 S
C1499 C1498 1.396 . S
C1499 C1500 1.399 1_455 S
C1500 H1486 0.929 1_554 S
C1500 C1499 1.399 1_655 S
C1500 C1501 1.385 1_655 S
C1501 H1487 0.925 1_455 S
C1501 C1500 1.385 1_455 S
C1501 C1502 1.394 . S
C1502 C1501 1.394 . S
C1502 C1503 1.387 . S
C1503 H1488 0.930 . S
C1503 C1498 1.390 . S
C1503 C1502 1.387 . S
H1504 C1516 0.930 . S
H1505 C1518 0.930 . S
H1506 C1519 0.930 . S
H1507 C1523 0.959 . S
H1508 C1523 0.959 . S
H1509 C1523 0.961 . S
H1510 C1524 0.960 . S
H1511 C1524 0.961 . S
H1512 C1524 0.959 . S
H1513 C1527 0.929 . S
H1514 C1528 0.931 . S
H1515 C1530 0.930 . S
C1516 H1504 0.930 . S
C1516 C1517 1.399 . S
C1516 C1521 1.399 . S
C1517 C1516 1.399 . S
C1517 C1518 1.376 . S
C1518 H1505 0.930 . S
C1518 C1517 1.376 . S
C1518 C1519 1.388 . S
C1519 H1506 0.930 . S
C1519 C1518 1.388 . S
C1519 C1520 1.390 . S
C1520 C1519 1.390 . S
C1520 C1521 1.394 . S
C1520 C1526 1.465 . S
C1521 C1516 1.399 . S
C1521 C1520 1.394 . S
C1521 C1522 1.516 . S
C1522 C1521 1.516 . S
C1522 C1523 1.502 . S
C1522 C1524 1.561 . S
C1522 C1525 1.526 . S
C1523 H1507 0.959 . S
C1523 H1508 0.959 . S
C1523 H1509 0.961 . S
C1523 C1522 1.502 . S
C1524 H1510 0.960 . S
C1524 H1511 0.961 . S
C1524 H1512 0.959 . S
C1524 C1522 1.561 . S
C1525 C1522 1.526 . S
C1525 C1526 1.396 . S
C1525 C1530 1.390 . S
C1526 C1520 1.465 . S
C1526 C1525 1.396 . S
C1526 C1527 1.399 . S
C1527 H1513 0.929 . S
C1527 C1526 1.399 . S
C1527 C1528 1.385 . S
C1528 H1514 0.931 . S
C1528 C1527 1.385 . S
C1528 C1529 1.389 . S
C1529 C1528 1.389 . S
C1529 C1530 1.387 . S
C1530 H1515 0.930 . S
C1530 C1525 1.390 . S
C1530 C1529 1.387 . S
H1531 C1543 0.930 . S
H1532 C1545 0.930 . S
H1533 C1546 0.930 . S
H1534 C1550 0.959 . S
H1535 C1550 0.959 . S
H1536 C1550 0.961 . S
H1537 C1551 0.960 . S
H1538 C1551 0.961 . S
H1539 C1551 0.959 . S
H1540 C1554 0.929 . S
H1541 C1555 0.931 . S
H1542 C1557 0.930 . S
C1543 H1531 0.930 . S
C1543 C1544 1.399 . S
C1543 C1548 1.399 . S
C1544 C1543 1.399 . S
C1544 C1545 1.376 . S
C1545 H1532 0.930 . S
C1545 C1544 1.376 . S
C1545 C1546 1.388 . S
C1546 H1533 0.930 . S
C1546 C1545 1.388 . S
C1546 C1547 1.390 . S
C1547 C1546 1.390 . S
C1547 C1548 1.394 . S
C1547 C1553 1.465 . S
C1548 C1543 1.399 . S
C1548 C1547 1.394 . S
C1548 C1549 1.516 . S
C1549 C1548 1.516 . S
C1549 C1550 1.502 . S
C1549 C1551 1.561 . S
C1549 C1552 1.526 . S
C1550 H1534 0.959 . S
C1550 H1535 0.959 . S
C1550 H1536 0.961 . S
C1550 C1549 1.502 . S
C1551 H1537 0.960 . S
C1551 H1538 0.961 . S
C1551 H1539 0.959 . S
C1551 C1549 1.561 . S
C1552 C1549 1.526 . S
C1552 C1553 1.396 . S
C1552 C1557 1.390 . S
C1553 C1547 1.465 . S
C1553 C1552 1.396 . S
C1553 C1554 1.399 . S
C1554 H1540 0.929 . S
C1554 C1553 1.399 . S
C1554 C1555 1.385 . S
C1555 H1541 0.931 . S
C1555 C1554 1.385 . S
C1555 C1556 1.389 . S
C1556 C1555 1.389 . S
C1556 C1557 1.387 . S
C1557 H1542 0.930 . S
C1557 C1552 1.390 . S
C1557 C1556 1.387 . S
H1558 C1570 0.929 . S
H1559 C1572 0.930 . S
H1560 C1573 0.930 . S
H1561 C1577 0.959 . S
H1562 C1577 0.959 . S
H1563 C1577 0.961 . S
H1564 C1578 0.960 . S
H1565 C1578 0.961 . S
H1566 C1578 0.959 . S
H1567 C1581 0.929 . S
H1568 C1582 0.931 . S
H1569 C1584 0.930 . S
C1570 H1558 0.929 . S
C1570 C1571 1.393 1_556 S
C1570 C1575 1.406 . S
C1571 C1570 1.393 1_554 S
C1571 C1572 1.376 . S
C1572 H1559 0.930 . S
C1572 C1571 1.376 . S
C1572 C1573 1.388 . S
C1573 H1560 0.930 . S
C1573 C1572 1.388 . S
C1573 C1574 1.390 1_554 S
C1574 C1573 1.390 1_556 S
C1574 C1575 1.394 . S
C1574 C1580 1.465 . S
C1575 C1570 1.406 . S
C1575 C1574 1.394 . S
C1575 C1576 1.516 . S
C1576 C1575 1.516 . S
C1576 C1577 1.502 . S
C1576 C1578 1.561 . S
C1576 C1579 1.526 . S
C1577 H1561 0.959 . S
C1577 H1562 0.959 . S
C1577 H1563 0.961 . S
C1577 C1576 1.502 . S
C1578 H1564 0.960 . S
C1578 H1565 0.961 . S
C1578 H1566 0.959 . S
C1578 C1576 1.561 . S
C1579 C1576 1.526 . S
C1579 C1580 1.396 . S
C1579 C1584 1.390 . S
C1580 C1574 1.465 . S
C1580 C1579 1.396 . S
C1580 C1581 1.399 . S
C1581 H1567 0.929 . S
C1581 C1580 1.399 . S
C1581 C1582 1.385 . S
C1582 H1568 0.931 . S
C1582 C1581 1.385 . S
C1582 C1583 1.389 . S
C1583 C1582 1.389 . S
C1583 C1584 1.387 . S
C1584 H1569 0.930 . S
C1584 C1579 1.390 . S
C1584 C1583 1.387 . S
H1585 C1597 0.930 . S
H1586 C1599 0.930 . S
H1587 C1600 0.930 . S
H1588 C1604 0.959 . S
H1589 C1604 0.959 . S
H1590 C1604 0.961 . S
H1591 C1605 0.960 . S
H1592 C1605 0.961 . S
H1593 C1605 0.959 . S
H1594 C1608 0.929 . S
H1595 C1609 0.931 . S
H1596 C1611 0.930 . S
C1597 H1585 0.930 . S
C1597 C1598 1.399 . S
C1597 C1602 1.399 . S
C1598 C1597 1.399 . S
C1598 C1599 1.376 . S
C1599 H1586 0.930 . S
C1599 C1598 1.376 . S
C1599 C1600 1.388 . S
C1600 H1587 0.930 . S
C1600 C1599 1.388 . S
C1600 C1601 1.390 . S
C1601 C1600 1.390 . S
C1601 C1602 1.394 . S
C1601 C1607 1.465 . S
C1602 C1597 1.399 . S
C1602 C1601 1.394 . S
C1602 C1603 1.516 . S
C1603 C1602 1.516 . S
C1603 C1604 1.502 . S
C1603 C1605 1.561 . S
C1603 C1606 1.526 . S
C1604 H1588 0.959 . S
C1604 H1589 0.959 . S
C1604 H1590 0.961 . S
C1604 C1603 1.502 . S
C1605 H1591 0.960 . S
C1605 H1592 0.961 . S
C1605 H1593 0.959 . S
C1605 C1603 1.561 . S
C1606 C1603 1.526 . S
C1606 C1607 1.396 . S
C1606 C1611 1.390 . S
C1607 C1601 1.465 . S
C1607 C1606 1.396 . S
C1607 C1608 1.399 . S
C1608 H1594 0.929 . S
C1608 C1607 1.399 . S
C1608 C1609 1.385 . S
C1609 H1595 0.931 . S
C1609 C1608 1.385 . S
C1609 C1610 1.389 . S
C1610 C1609 1.389 . S
C1610 C1611 1.387 . S
C1611 H1596 0.930 . S
C1611 C1606 1.390 . S
C1611 C1610 1.387 . S
H1612 C1624 0.930 . S
H1613 C1626 0.930 . S
H1614 C1627 0.930 . S
H1615 C1631 0.959 . S
H1616 C1631 0.959 . S
H1617 C1631 0.961 . S
H1618 C1632 0.960 . S
H1619 C1632 0.961 . S
H1620 C1632 0.959 . S
H1621 C1635 0.929 1_455 S
H1622 C1636 0.931 . S
H1623 C1638 0.930 . S
C1624 H1612 0.930 . S
C1624 C1625 1.399 . S
C1624 C1629 1.399 . S
C1625 C1624 1.399 . S
C1625 C1626 1.376 . S
C1626 H1613 0.930 . S
C1626 C1625 1.376 . S
C1626 C1627 1.388 . S
C1627 H1614 0.930 . S
C1627 C1626 1.388 . S
C1627 C1628 1.390 . S
C1628 C1627 1.390 . S
C1628 C1629 1.394 . S
C1628 C1634 1.465 . S
C1629 C1624 1.399 . S
C1629 C1628 1.394 . S
C1629 C1630 1.516 . S
C1630 C1629 1.516 . S
C1630 C1631 1.502 . S
C1630 C1632 1.561 . S
C1630 C1633 1.526 . S
C1631 H1615 0.959 . S
C1631 H1616 0.959 . S
C1631 H1617 0.961 . S
C1631 C1630 1.502 . S
C1632 H1618 0.960 . S
C1632 H1619 0.961 . S
C1632 H1620 0.959 . S
C1632 C1630 1.561 . S
C1633 C1630 1.526 . S
C1633 C1634 1.396 . S
C1633 C1638 1.390 . S
C1634 C1628 1.465 . S
C1634 C1633 1.396 . S
C1634 C1635 1.399 . S
C1635 H1621 0.929 1_655 S
C1635 C1634 1.399 . S
C1635 C1636 1.385 1_655 S
C1636 H1622 0.931 . S
C1636 C1635 1.385 1_455 S
C1636 C1637 1.389 1_455 S
C1637 C1636 1.389 1_655 S
C1637 C1638 1.387 . S
C1638 H1623 0.930 . S
C1638 C1633 1.390 . S
C1638 C1637 1.387 . S
H1639 C1651 0.930 . S
H1640 C1653 0.930 . S
H1641 C1654 0.930 . S
H1642 C1658 0.959 . S
H1643 C1658 0.959 . S
H1644 C1658 0.961 . S
H1645 C1659 0.960 . S
H1646 C1659 0.961 . S
H1647 C1659 0.959 . S
H1648 C1662 0.929 . S
H1649 C1663 0.931 . S
H1650 C1665 0.930 . S
C1651 H1639 0.930 . S
C1651 C1652 1.399 . S
C1651 C1656 1.399 . S
C1652 C1651 1.399 . S
C1652 C1653 1.376 . S
C1653 H1640 0.930 . S
C1653 C1652 1.376 . S
C1653 C1654 1.388 . S
C1654 H1641 0.930 . S
C1654 C1653 1.388 . S
C1654 C1655 1.390 . S
C1655 C1654 1.390 . S
C1655 C1656 1.394 . S
C1655 C1661 1.465 . S
C1656 C1651 1.399 . S
C1656 C1655 1.394 . S
C1656 C1657 1.516 . S
C1657 C1656 1.516 . S
C1657 C1658 1.502 . S
C1657 C1659 1.561 . S
C1657 C1660 1.526 . S
C1658 H1642 0.959 . S
C1658 H1643 0.959 . S
C1658 H1644 0.961 . S
C1658 C1657 1.502 . S
C1659 H1645 0.960 . S
C1659 H1646 0.961 . S
C1659 H1647 0.959 . S
C1659 C1657 1.561 . S
C1660 C1657 1.526 . S
C1660 C1661 1.396 . S
C1660 C1665 1.390 . S
C1661 C1655 1.465 . S
C1661 C1660 1.396 . S
C1661 C1662 1.399 . S
C1662 H1648 0.929 . S
C1662 C1661 1.399 . S
C1662 C1663 1.385 . S
C1663 H1649 0.931 . S
C1663 C1662 1.385 . S
C1663 C1664 1.389 . S
C1664 C1663 1.389 . S
C1664 C1665 1.387 . S
C1665 H1650 0.930 . S
C1665 C1660 1.390 . S
C1665 C1664 1.387 . S
H1666 C1678 0.930 . S
H1667 C1680 0.930 . S
H1668 C1681 0.930 . S
H1669 C1685 0.959 . S
H1670 C1685 0.959 . S
H1671 C1685 0.961 . S
H1672 C1686 0.960 . S
H1673 C1686 0.961 . S
H1674 C1686 0.959 . S
H1675 C1689 0.929 . S
H1676 C1690 0.931 . S
H1677 C1692 0.930 . S
C1678 H1666 0.930 . S
C1678 C1679 1.399 1_554 S
C1678 C1683 1.399 . S
C1679 C1678 1.399 1_556 S
C1679 C1680 1.376 . S
C1680 H1667 0.930 . S
C1680 C1679 1.376 . S
C1680 C1681 1.388 . S
C1681 H1668 0.930 . S
C1681 C1680 1.388 . S
C1681 C1682 1.390 1_556 S
C1682 C1681 1.390 1_554 S
C1682 C1683 1.394 . S
C1682 C1688 1.465 . S
C1683 C1678 1.399 . S
C1683 C1682 1.394 . S
C1683 C1684 1.516 . S
C1684 C1683 1.516 . S
C1684 C1685 1.502 . S
C1684 C1686 1.561 . S
C1684 C1687 1.526 . S
C1685 H1669 0.959 . S
C1685 H1670 0.959 . S
C1685 H1671 0.961 . S
C1685 C1684 1.502 . S
C1686 H1672 0.960 . S
C1686 H1673 0.961 . S
C1686 H1674 0.959 . S
C1686 C1684 1.561 . S
C1687 C1684 1.526 . S
C1687 C1688 1.396 . S
C1687 C1692 1.390 . S
C1688 C1682 1.465 . S
C1688 C1687 1.396 . S
C1688 C1689 1.399 . S
C1689 H1675 0.929 . S
C1689 C1688 1.399 . S
C1689 C1690 1.385 . S
C1690 H1676 0.931 . S
C1690 C1689 1.385 . S
C1690 C1691 1.389 . S
C1691 C1690 1.389 . S
C1691 C1692 1.387 . S
C1692 H1677 0.930 . S
C1692 C1687 1.390 . S
C1692 C1691 1.387 . S
H1693 C1705 0.930 . S
H1694 C1707 0.930 . S
H1695 C1708 0.930 . S
H1696 C1712 0.959 . S
H1697 C1712 0.959 . S
H1698 C1712 0.961 . S
H1699 C1713 0.960 . S
H1700 C1713 0.961 . S
H1701 C1713 0.959 . S
H1702 C1716 0.929 . S
H1703 C1717 0.931 . S
H1704 C1719 0.930 . S
C1705 H1693 0.930 . S
C1705 C1706 1.399 . S
C1705 C1710 1.399 . S
C1706 C1705 1.399 . S
C1706 C1707 1.376 . S
C1707 H1694 0.930 . S
C1707 C1706 1.376 . S
C1707 C1708 1.388 . S
C1708 H1695 0.930 . S
C1708 C1707 1.388 . S
C1708 C1709 1.390 . S
C1709 C1708 1.390 . S
C1709 C1710 1.394 . S
C1709 C1715 1.465 . S
C1710 C1705 1.399 . S
C1710 C1709 1.394 . S
C1710 C1711 1.516 . S
C1711 C1710 1.516 . S
C1711 C1712 1.502 . S
C1711 C1713 1.561 . S
C1711 C1714 1.526 . S
C1712 H1696 0.959 . S
C1712 H1697 0.959 . S
C1712 H1698 0.961 . S
C1712 C1711 1.502 . S
C1713 H1699 0.960 . S
C1713 H1700 0.961 . S
C1713 H1701 0.959 . S
C1713 C1711 1.561 . S
C1714 C1711 1.526 . S
C1714 C1715 1.396 . S
C1714 C1719 1.390 . S
C1715 C1709 1.465 . S
C1715 C1714 1.396 . S
C1715 C1716 1.399 . S
C1716 H1702 0.929 . S
C1716 C1715 1.399 . S
C1716 C1717 1.385 . S
C1717 H1703 0.931 . S
C1717 C1716 1.385 . S
C1717 C1718 1.389 . S
C1718 C1717 1.389 . S
C1718 C1719 1.387 . S
C1719 H1704 0.930 . S
C1719 C1714 1.390 . S
C1719 C1718 1.387 . S
H1720 C1732 0.930 . S
H1721 C1734 0.930 . S
H1722 C1735 0.930 . S
H1723 C1739 0.959 . S
H1724 C1739 0.959 . S
H1725 C1739 0.961 . S
H1726 C1740 0.960 . S
H1727 C1740 0.961 . S
H1728 C1740 0.959 . S
H1729 C1743 0.929 . S
H1730 C1744 0.931 . S
H1731 C1746 0.930 . S
C1732 H1720 0.930 . S
C1732 C1733 1.399 . S
C1732 C1737 1.399 . S
C1733 C1732 1.399 . S
C1733 C1734 1.376 . S
C1734 H1721 0.930 . S
C1734 C1733 1.376 . S
C1734 C1735 1.388 . S
C1735 H1722 0.930 . S
C1735 C1734 1.388 . S
C1735 C1736 1.390 . S
C1736 C1735 1.390 . S
C1736 C1737 1.394 . S
C1736 C1742 1.465 . S
C1737 C1732 1.399 . S
C1737 C1736 1.394 . S
C1737 C1738 1.516 . S
C1738 C1737 1.516 . S
C1738 C1739 1.502 . S
C1738 C1740 1.561 . S
C1738 C1741 1.526 . S
C1739 H1723 0.959 . S
C1739 H1724 0.959 . S
C1739 H1725 0.961 . S
C1739 C1738 1.502 . S
C1740 H1726 0.960 . S
C1740 H1727 0.961 . S
C1740 H1728 0.959 . S
C1740 C1738 1.561 . S
C1741 C1738 1.526 . S
C1741 C1742 1.396 . S
C1741 C1746 1.390 . S
C1742 C1736 1.465 . S
C1742 C1741 1.396 . S
C1742 C1743 1.399 . S
C1743 H1729 0.929 . S
C1743 C1742 1.399 . S
C1743 C1744 1.385 . S
C1744 H1730 0.931 . S
C1744 C1743 1.385 . S
C1744 C1745 1.389 . S
C1745 C1744 1.389 . S
C1745 C1746 1.387 . S
C1746 H1731 0.930 . S
C1746 C1741 1.390 . S
C1746 C1745 1.387 . S
H1747 C1759 0.930 . S
H1748 C1761 0.930 . S
H1749 C1762 0.930 . S
H1750 C1766 0.959 . S
H1751 C1766 0.959 . S
H1752 C1766 0.961 . S
H1753 C1767 0.960 . S
H1754 C1767 0.961 . S
H1755 C1767 0.959 . S
H1756 C1770 0.929 . S
H1757 C1771 0.931 . S
H1758 C1773 0.930 . S
C1759 H1747 0.930 . S
C1759 C1760 1.399 . S
C1759 C1764 1.399 . S
C1760 C1759 1.399 . S
C1760 C1761 1.376 . S
C1761 H1748 0.930 . S
C1761 C1760 1.376 . S
C1761 C1762 1.388 . S
C1762 H1749 0.930 . S
C1762 C1761 1.388 . S
C1762 C1763 1.390 . S
C1763 C1762 1.390 . S
C1763 C1764 1.394 . S
C1763 C1769 1.465 . S
C1764 C1759 1.399 . S
C1764 C1763 1.394 . S
C1764 C1765 1.516 . S
C1765 C1764 1.516 . S
C1765 C1766 1.502 . S
C1765 C1767 1.561 . S
C1765 C1768 1.526 . S
C1766 H1750 0.959 . S
C1766 H1751 0.959 . S
C1766 H1752 0.961 . S
C1766 C1765 1.502 . S
C1767 H1753 0.960 . S
C1767 H1754 0.961 . S
C1767 H1755 0.959 . S
C1767 C1765 1.561 . S
C1768 C1765 1.526 . S
C1768 C1769 1.396 . S
C1768 C1773 1.390 . S
C1769 C1763 1.465 . S
C1769 C1768 1.396 . S
C1769 C1770 1.399 . S
C1770 H1756 0.929 . S
C1770 C1769 1.399 . S
C1770 C1771 1.385 . S
C1771 H1757 0.931 . S
C1771 C1770 1.385 . S
C1771 C1772 1.389 . S
C1772 C1771 1.389 . S
C1772 C1773 1.387 . S
C1773 H1758 0.930 . S
C1773 C1768 1.390 . S
C1773 C1772 1.387 . S
H1774 C1786 0.930 . S
H1775 C1788 0.930 . S
H1776 C1789 0.930 . S
H1777 C1793 0.959 . S
H1778 C1793 0.959 . S
H1779 C1793 0.961 . S
H1780 C1794 0.960 . S
H1781 C1794 0.961 . S
H1782 C1794 0.959 . S
H1783 C1797 0.929 . S
H1784 C1798 0.931 . S
H1785 C1800 0.930 . S
C1786 H1774 0.930 . S
C1786 C1787 1.399 . S
C1786 C1791 1.399 . S
C1787 C1786 1.399 . S
C1787 C1788 1.376 . S
C1788 H1775 0.930 . S
C1788 C1787 1.376 . S
C1788 C1789 1.388 . S
C1789 H1776 0.930 . S
C1789 C1788 1.388 . S
C1789 C1790 1.390 . S
C1790 C1789 1.390 . S
C1790 C1791 1.394 . S
C1790 C1796 1.465 . S
C1791 C1786 1.399 . S
C1791 C1790 1.394 . S
C1791 C1792 1.516 . S
C1792 C1791 1.516 . S
C1792 C1793 1.502 . S
C1792 C1794 1.561 . S
C1792 C1795 1.526 . S
C1793 H1777 0.959 . S
C1793 H1778 0.959 . S
C1793 H1779 0.961 . S
C1793 C1792 1.502 . S
C1794 H1780 0.960 . S
C1794 H1781 0.961 . S
C1794 H1782 0.959 . S
C1794 C1792 1.561 . S
C1795 C1792 1.526 . S
C1795 C1796 1.396 . S
C1795 C1800 1.390 . S
C1796 C1790 1.465 . S
C1796 C1795 1.396 . S
C1796 C1797 1.399 . S
C1797 H1783 0.929 . S
C1797 C1796 1.399 . S
C1797 C1798 1.385 . S
C1798 H1784 0.931 . S
C1798 C1797 1.385 . S
C1798 C1799 1.389 . S
C1799 C1798 1.389 . S
C1799 C1800 1.387 . S
C1800 H1785 0.930 . S
C1800 C1795 1.390 . S
C1800 C1799 1.387 . S
H1801 C1813 0.930 . S
H1802 C1815 0.930 . S
H1803 C1816 0.930 . S
H1804 C1820 0.959 . S
H1805 C1820 0.959 . S
H1806 C1820 0.961 . S
H1807 C1821 0.960 1_455 S
H1808 C1821 0.961 . S
H1809 C1821 0.959 . S
H1810 C1824 0.929 . S
H1811 C1825 0.931 . S
H1812 C1827 0.930 . S
C1813 H1801 0.930 . S
C1813 C1814 1.399 . S
C1813 C1818 1.399 . S
C1814 C1813 1.399 . S
C1814 C1815 1.376 . S
C1815 H1802 0.930 . S
C1815 C1814 1.376 . S
C1815 C1816 1.388 . S
C1816 H1803 0.930 . S
C1816 C1815 1.388 . S
C1816 C1817 1.390 . S
C1817 C1816 1.390 . S
C1817 C1818 1.394 . S
C1817 C1823 1.465 . S
C1818 C1813 1.399 . S
C1818 C1817 1.394 . S
C1818 C1819 1.516 . S
C1819 C1818 1.516 . S
C1819 C1820 1.502 . S
C1819 C1821 1.561 . S
C1819 C1822 1.526 . S
C1820 H1804 0.959 . S
C1820 H1805 0.959 . S
C1820 H1806 0.961 . S
C1820 C1819 1.502 . S
C1821 H1807 0.960 1_655 S
C1821 H1808 0.961 . S
C1821 H1809 0.959 . S
C1821 C1819 1.561 . S
C1822 C1819 1.526 . S
C1822 C1823 1.396 . S
C1822 C1827 1.390 . S
C1823 C1817 1.465 . S
C1823 C1822 1.396 . S
C1823 C1824 1.399 . S
C1824 H1810 0.929 . S
C1824 C1823 1.399 . S
C1824 C1825 1.385 . S
C1825 H1811 0.931 . S
C1825 C1824 1.385 . S
C1825 C1826 1.389 . S
C1826 C1825 1.389 . S
C1826 C1827 1.387 . S
C1827 H1812 0.930 . S
C1827 C1822 1.390 . S
C1827 C1826 1.387 . S
H1828 C1840 0.930 . S
H1829 C1842 0.930 . S
H1830 C1843 0.930 . S
H1831 C1847 0.959 . S
H1832 C1847 0.959 . S
H1833 C1847 0.961 . S
H1834 C1848 0.960 . S
H1835 C1848 0.961 . S
H1836 C1848 0.959 . S
H1837 C1851 0.929 . S
H1838 C1852 0.931 . S
H1839 C1854 0.930 . S
C1840 H1828 0.930 . S
C1840 C1841 1.399 . S
C1840 C1845 1.399 . S
C1841 C1840 1.399 . S
C1841 C1842 1.376 . S
C1842 H1829 0.930 . S
C1842 C1841 1.376 . S
C1842 C1843 1.388 . S
C1843 H1830 0.930 . S
C1843 C1842 1.388 . S
C1843 C1844 1.390 . S
C1844 C1843 1.390 . S
C1844 C1845 1.394 . S
C1844 C1850 1.465 . S
C1845 C1840 1.399 . S
C1845 C1844 1.394 . S
C1845 C1846 1.516 . S
C1846 C1845 1.516 . S
C1846 C1847 1.502 . S
C1846 C1848 1.561 . S
C1846 C1849 1.526 . S
C1847 H1831 0.959 . S
C1847 H1832 0.959 . S
C1847 H1833 0.961 . S
C1847 C1846 1.502 . S
C1848 H1834 0.960 . S
C1848 H1835 0.961 . S
C1848 H1836 0.959 . S
C1848 C1846 1.561 . S
C1849 C1846 1.526 . S
C1849 C1850 1.396 . S
C1849 C1854 1.390 . S
C1850 C1844 1.465 . S
C1850 C1849 1.396 . S
C1850 C1851 1.399 . S
C1851 H1837 0.929 . S
C1851 C1850 1.399 . S
C1851 C1852 1.385 . S
C1852 H1838 0.931 . S
C1852 C1851 1.385 . S
C1852 C1853 1.389 . S
C1853 C1852 1.389 . S
C1853 C1854 1.387 . S
C1854 H1839 0.930 . S
C1854 C1849 1.390 . S
C1854 C1853 1.387 . S
H1855 C1867 0.930 . S
H1856 C1869 0.930 . S
H1857 C1870 0.930 . S
H1858 C1874 0.959 . S
H1859 C1874 0.959 . S
H1860 C1874 0.961 . S
H1861 C1875 0.960 . S
H1862 C1875 0.961 . S
H1863 C1875 0.959 . S
H1864 C1878 0.929 . S
H1865 C1879 0.931 . S
H1866 C1881 0.930 . S
C1867 H1855 0.930 . S
C1867 C1868 1.399 . S
C1867 C1872 1.399 . S
C1868 C1867 1.399 . S
C1868 C1869 1.376 . S
C1869 H1856 0.930 . S
C1869 C1868 1.376 . S
C1869 C1870 1.388 . S
C1870 H1857 0.930 . S
C1870 C1869 1.388 . S
C1870 C1871 1.390 . S
C1871 C1870 1.390 . S
C1871 C1872 1.394 . S
C1871 C1877 1.465 . S
C1872 C1867 1.399 . S
C1872 C1871 1.394 . S
C1872 C1873 1.516 . S
C1873 C1872 1.516 . S
C1873 C1874 1.502 . S
C1873 C1875 1.561 . S
C1873 C1876 1.526 . S
C1874 H1858 0.959 . S
C1874 H1859 0.959 . S
C1874 H1860 0.961 . S
C1874 C1873 1.502 . S
C1875 H1861 0.960 . S
C1875 H1862 0.961 . S
C1875 H1863 0.959 . S
C1875 C1873 1.561 . S
C1876 C1873 1.526 . S
C1876 C1877 1.396 . S
C1876 C1881 1.390 . S
C1877 C1871 1.465 . S
C1877 C1876 1.396 . S
C1877 C1878 1.399 . S
C1878 H1864 0.929 . S
C1878 C1877 1.399 . S
C1878 C1879 1.385 . S
C1879 H1865 0.931 . S
C1879 C1878 1.385 . S
C1879 C1880 1.389 . S
C1880 C1879 1.389 . S
C1880 C1881 1.387 . S
C1881 H1866 0.930 . S
C1881 C1876 1.390 . S
C1881 C1880 1.387 . S
H1882 C1894 0.930 . S
H1883 C1896 0.930 . S
H1884 C1897 0.930 . S
H1885 C1901 0.959 . S
H1886 C1901 0.959 . S
H1887 C1901 0.961 . S
H1888 C1902 0.960 . S
H1889 C1902 0.961 . S
H1890 C1902 0.959 . S
H1891 C1905 0.929 . S
H1892 C1906 0.931 . S
H1893 C1908 0.930 . S
C1894 H1882 0.930 . S
C1894 C1895 1.399 . S
C1894 C1899 1.399 . S
C1895 C1894 1.399 . S
C1895 C1896 1.376 . S
C1896 H1883 0.930 . S
C1896 C1895 1.376 . S
C1896 C1897 1.388 . S
C1897 H1884 0.930 . S
C1897 C1896 1.388 . S
C1897 C1898 1.390 . S
C1898 C1897 1.390 . S
C1898 C1899 1.394 . S
C1898 C1904 1.465 . S
C1899 C1894 1.399 . S
C1899 C1898 1.394 . S
C1899 C1900 1.516 . S
C1900 C1899 1.516 . S
C1900 C1901 1.502 . S
C1900 C1902 1.561 . S
C1900 C1903 1.526 . S
C1901 H1885 0.959 . S
C1901 H1886 0.959 . S
C1901 H1887 0.961 . S
C1901 C1900 1.502 . S
C1902 H1888 0.960 . S
C1902 H1889 0.961 . S
C1902 H1890 0.959 . S
C1902 C1900 1.561 . S
C1903 C1900 1.526 . S
C1903 C1904 1.396 . S
C1903 C1908 1.390 . S
C1904 C1898 1.465 . S
C1904 C1903 1.396 . S
C1904 C1905 1.399 . S
C1905 H1891 0.929 . S
C1905 C1904 1.399 . S
C1905 C1906 1.385 . S
C1906 H1892 0.931 . S
C1906 C1905 1.385 . S
C1906 C1907 1.389 . S
C1907 C1906 1.389 . S
C1907 C1908 1.387 . S
C1908 H1893 0.930 . S
C1908 C1903 1.390 . S
C1908 C1907 1.387 . S
H1909 C1921 0.930 . S
H1910 C1923 0.930 . S
H1911 C1924 0.930 . S
H1912 C1928 0.959 . S
H1913 C1928 0.959 . S
H1914 C1928 0.961 . S
H1915 C1929 0.960 . S
H1916 C1929 0.961 . S
H1917 C1929 0.959 . S
H1918 C1932 0.929 . S
H1919 C1933 0.931 . S
H1920 C1935 0.930 . S
C1921 H1909 0.930 . S
C1921 C1922 1.399 . S
C1921 C1926 1.399 . S
C1922 C1921 1.399 . S
C1922 C1923 1.376 . S
C1923 H1910 0.930 . S
C1923 C1922 1.376 . S
C1923 C1924 1.388 . S
C1924 H1911 0.930 . S
C1924 C1923 1.388 . S
C1924 C1925 1.390 . S
C1925 C1924 1.390 . S
C1925 C1926 1.394 . S
C1925 C1931 1.465 . S
C1926 C1921 1.399 . S
C1926 C1925 1.394 . S
C1926 C1927 1.516 . S
C1927 C1926 1.516 . S
C1927 C1928 1.502 . S
C1927 C1929 1.561 . S
C1927 C1930 1.526 . S
C1928 H1912 0.959 . S
C1928 H1913 0.959 . S
C1928 H1914 0.961 . S
C1928 C1927 1.502 . S
C1929 H1915 0.960 . S
C1929 H1916 0.961 . S
C1929 H1917 0.959 . S
C1929 C1927 1.561 . S
C1930 C1927 1.526 . S
C1930 C1931 1.396 . S
C1930 C1935 1.390 . S
C1931 C1925 1.465 . S
C1931 C1930 1.396 . S
C1931 C1932 1.399 . S
C1932 H1918 0.929 . S
C1932 C1931 1.399 . S
C1932 C1933 1.385 . S
C1933 H1919 0.931 . S
C1933 C1932 1.385 . S
C1933 C1934 1.389 . S
C1934 C1933 1.389 . S
C1934 C1935 1.387 . S
C1935 H1920 0.930 . S
C1935 C1930 1.390 . S
C1935 C1934 1.387 . S
C653 C6 0.850 . S
C665 C286 1.030 . S
C680 C59 2.753 . S
C692 C179 2.727 1_554 S
C707 C206 0.530 . S
C719 C99 0.581 . S
C734 C139 1.960 . S
C746 C246 1.963 . S
C761 C455 0.997 . S
C773 C175 0.908 . S
C788 C330 2.763 . S
C800 C10 2.687 1_556 S
C815 C415 0.413 . S
C827 C250 0.445 . S
C842 C95 1.972 . S
C854 C370 1.962 . S
C869 C366 1.033 . S
C881 C486 0.846 . S
C896 C419 2.785 . S
C908 C579 2.689 . S
C923 C539 0.478 . S
C935 C326 0.424 . S
C950 C459 1.919 . S
C962 C606 1.974 . S
C977 C575 0.910 . S
C989 C135 0.956 . S
C1004 C490 2.687 . S
C1016 C210 2.762 . S
C1031 C55 0.588 . S
C1043 C610 0.573 . S
C1058 C290 1.965 . S
C1070 C535 1.999 . S
C1085 C538 0.506 . S
C1097 C9 0.508 1_655 S
C1112 C458 0.865 . S
C1124 C58 0.643 . S
C1139 C489 0.622 . S
C1151 C98 0.574 . S
C1166 C418 0.666 . S
C1178 C138 0.793 . S
C1193 C178 0.535 . S
C1205 C609 0.450 . S
C1220 C369 0.696 . S
C1232 C209 0.676 . S
C1247 C249 0.587 . S
C1259 C578 0.611 . S
C1274 C289 0.761 . S
C1286 C329 0.779 . S
C1301 C18 1.480 1_455 S
C1313 C169 1.544 . S
C1328 C49 1.281 . S
C1340 C218 1.183 . S
C1355 C258 1.538 . S
C1367 C89 1.621 . S
C1382 C129 1.980 . S
C1394 C298 1.915 . S
C1409 C409 1.284 . S
C1421 C338 1.185 . S
C1436 C449 1.912 . S
C1448 C378 1.983 . S
C1463 C498 1.548 . S
C1475 C569 1.464 . S
C1490 C618 1.622 . S
C1502 C529 1.534 . S
C1517 C19 3.690 . S
C1529 C299 3.694 . S
C1544 C46 0.689 . S
C1556 C166 0.710 . S
C1571 C219 2.933 . S
C1583 C86 2.868 . S
C1598 C259 1.031 . S
C1610 C126 0.954 . S
C1625 C450 3.692 . S
C1637 C170 3.686 1_655 S
C1652 C335 0.557 . S
C1664 C15 0.723 . S
C1679 C410 2.933 . S
C1691 C255 2.877 . S
C1706 C90 0.990 . S
C1718 C375 1.005 . S
C1733 C499 3.689 . S
C1745 C379 3.691 1_556 S
C1760 C566 0.658 . S
C1772 C406 0.529 . S
C1787 C526 2.875 . S
C1799 C339 2.933 . S
C1814 C619 1.004 . S
C1826 C446 1.016 . S
C1841 C570 3.679 . S
C1853 C130 3.696 1_554 S
C1868 C215 0.728 . S
C1880 C495 0.565 . S
C1895 C50 2.933 . S
C1907 C615 2.882 . S
C1922 C530 0.994 . S
C1934 C295 0.998 . S
