# Generated by pormake.
# Topology usf, (4)-cn, num edge types: 1
# Building blocks:
#     Node 0, Type 0, BuildingBlock: NAWXER_clean_sbu_0, # of connection points: 4
#     Node 1, Type 0, BuildingBlock: NAWXER_clean_sbu_0, # of connection points: 4
#     Node 2, Type 0, BuildingBlock: NAWXER_clean_sbu_0, # of connection points: 4
#     Node 3, Type 0, BuildingBlock: NAWXER_clean_sbu_0, # of connection points: 4
#     Node 4, Type 0, BuildingBlock: NAWXER_clean_sbu_0, # of connection points: 4
#     Node 5, Type 0, BuildingBlock: NAWXER_clean_sbu_0, # of connection points: 4
#     Node 6, Type 0, BuildingBlock: NAWXER_clean_sbu_0, # of connection points: 4
#     Node 7, Type 0, BuildingBlock: NAWXER_clean_sbu_0, # of connection points: 4
#     Node 8, Type 0, BuildingBlock: NAWXER_clean_sbu_0, # of connection points: 4
#     Node 9, Type 0, BuildingBlock: NAWXER_clean_sbu_0, # of connection points: 4
#     Node 10, Type 0, BuildingBlock: NAWXER_clean_sbu_0, # of connection points: 4
#     Node 11, Type 0, BuildingBlock: NAWXER_clean_sbu_0, # of connection points: 4
#     Node 12, Type 0, BuildingBlock: NAWXER_clean_sbu_0, # of connection points: 4
#     Node 13, Type 0, BuildingBlock: NAWXER_clean_sbu_0, # of connection points: 4
#     Node 14, Type 0, BuildingBlock: NAWXER_clean_sbu_0, # of connection points: 4
#     Node 15, Type 0, BuildingBlock: NAWXER_clean_sbu_0, # of connection points: 4
#     Node 16, Type 0, BuildingBlock: NAWXER_clean_sbu_0, # of connection points: 4
#     Node 17, Type 0, BuildingBlock: NAWXER_clean_sbu_0, # of connection points: 4
#     Edge 18, Type (0, 0), BuildingBlock: KIFKEQ_clean_linker_1, # of connection points: 2
#     Edge 19, Type (0, 0), BuildingBlock: KIFKEQ_clean_linker_1, # of connection points: 2
#     Edge 20, Type (0, 0), BuildingBlock: KIFKEQ_clean_linker_1, # of connection points: 2
#     Edge 21, Type (0, 0), BuildingBlock: KIFKEQ_clean_linker_1, # of connection points: 2
#     Edge 22, Type (0, 0), BuildingBlock: KIFKEQ_clean_linker_1, # of connection points: 2
#     Edge 23, Type (0, 0), BuildingBlock: KIFKEQ_clean_linker_1, # of connection points: 2
#     Edge 24, Type (0, 0), BuildingBlock: KIFKEQ_clean_linker_1, # of connection points: 2
#     Edge 25, Type (0, 0), BuildingBlock: KIFKEQ_clean_linker_1, # of connection points: 2
#     Edge 26, Type (0, 0), BuildingBlock: KIFKEQ_clean_linker_1, # of connection points: 2
#     Edge 27, Type (0, 0), BuildingBlock: KIFKEQ_clean_linker_1, # of connection points: 2
#     Edge 28, Type (0, 0), BuildingBlock: KIFKEQ_clean_linker_1, # of connection points: 2
#     Edge 29, Type (0, 0), BuildingBlock: KIFKEQ_clean_linker_1, # of connection points: 2
#     Edge 30, Type (0, 0), BuildingBlock: KIFKEQ_clean_linker_1, # of connection points: 2
#     Edge 31, Type (0, 0), BuildingBlock: KIFKEQ_clean_linker_1, # of connection points: 2
#     Edge 32, Type (0, 0), BuildingBlock: KIFKEQ_clean_linker_1, # of connection points: 2
#     Edge 33, Type (0, 0), BuildingBlock: KIFKEQ_clean_linker_1, # of connection points: 2
#     Edge 34, Type (0, 0), BuildingBlock: KIFKEQ_clean_linker_1, # of connection points: 2
#     Edge 35, Type (0, 0), BuildingBlock: KIFKEQ_clean_linker_1, # of connection points: 2
#     Edge 36, Type (0, 0), BuildingBlock: KIFKEQ_clean_linker_1, # of connection points: 2
#     Edge 37, Type (0, 0), BuildingBlock: KIFKEQ_clean_linker_1, # of connection points: 2
#     Edge 38, Type (0, 0), BuildingBlock: KIFKEQ_clean_linker_1, # of connection points: 2
#     Edge 39, Type (0, 0), BuildingBlock: KIFKEQ_clean_linker_1, # of connection points: 2
#     Edge 40, Type (0, 0), BuildingBlock: KIFKEQ_clean_linker_1, # of connection points: 2
#     Edge 41, Type (0, 0), BuildingBlock: KIFKEQ_clean_linker_1, # of connection points: 2
#     Edge 42, Type (0, 0), BuildingBlock: KIFKEQ_clean_linker_1, # of connection points: 2
#     Edge 43, Type (0, 0), BuildingBlock: KIFKEQ_clean_linker_1, # of connection points: 2
#     Edge 44, Type (0, 0), BuildingBlock: KIFKEQ_clean_linker_1, # of connection points: 2
#     Edge 45, Type (0, 0), BuildingBlock: KIFKEQ_clean_linker_1, # of connection points: 2
#     Edge 46, Type (0, 0), BuildingBlock: KIFKEQ_clean_linker_1, # of connection points: 2
#     Edge 47, Type (0, 0), BuildingBlock: KIFKEQ_clean_linker_1, # of connection points: 2
#     Edge 48, Type (0, 0), BuildingBlock: KIFKEQ_clean_linker_1, # of connection points: 2
#     Edge 49, Type (0, 0), BuildingBlock: KIFKEQ_clean_linker_1, # of connection points: 2
#     Edge 50, Type (0, 0), BuildingBlock: KIFKEQ_clean_linker_1, # of connection points: 2
#     Edge 51, Type (0, 0), BuildingBlock: KIFKEQ_clean_linker_1, # of connection points: 2
#     Edge 52, Type (0, 0), BuildingBlock: KIFKEQ_clean_linker_1, # of connection points: 2
#     Edge 53, Type (0, 0), BuildingBlock: KIFKEQ_clean_linker_1, # of connection points: 2
# Relax obj value: 0.054
# Max RMSD: 0.096
# Mean RMSD: 0.096
data_MOF--net-usf--node1-NAWXER_clean_sbu_0--edge1-KIFKEQ_clean_linker_1
_symmetry_space_group_name_H-M    P1
_symmetry_Int_Tables_number       1
_symmetry_cell_setting            triclinic
loop_
_symmetry_equiv_pos_as_xyz
'x, y, z'
_cell_length_a     48.688703
_cell_length_b     48.849878
_cell_length_c     29.129689
_cell_angle_alpha  89.905034
_cell_angle_beta   90.265938
_cell_angle_gamma 120.35278
loop_
_atom_site_label
_atom_site_type_symbol
_atom_site_fract_x
_atom_site_fract_y
_atom_site_fract_z
_atom_type_partial_charge
C0 C 0.08753 0.56191 0.94613 0.0
C1 C 0.09655 0.53541 0.10506 0.0
O2 O 0.11041 0.57809 0.97378 0.0
Zn3 Zn 0.09188 0.55076 0.02675 0.0
O4 O 0.06268 0.53682 0.96044 0.0
Zn5 Zn 0.0458 0.50925 0.02197 0.0
O6 O 1.00893 0.51231 0.03829 0.0
O7 O 0.05364 0.55791 0.04668 0.0
O8 O 0.06999 0.51551 0.08616 0.0
O9 O 0.11653 0.55982 0.08288 0.0
O10 O 0.09026 0.50852 1.00231 0.0
O11 O 0.04047 0.46897 1.00081 0.0
C12 C 0.02323 0.54142 0.04968 0.0
C13 C 0.06987 0.47942 0.99342 0.0
C14 C 0.52383 0.51974 0.07498 0.0
C15 C 0.49325 0.48514 0.9159 0.0
O16 O 0.50027 0.52217 0.06031 0.0
Zn17 Zn 0.47227 0.51324 0.99941 0.0
O18 O 0.53678 0.5088 0.04856 0.0
Zn19 Zn 0.50922 0.50096 0.99598 0.0
O20 O 0.52323 0.54771 0.97504 0.0
O21 O 0.48313 0.55638 0.98137 0.0
O22 O 0.51455 0.4834 0.93908 0.0
O23 O 0.47654 0.49534 0.93513 0.0
O24 O 0.42947 0.48032 0.01963 0.0
O25 O 0.46481 0.46465 0.02131 0.0
C26 C 0.51198 0.56622 0.97041 0.0
C27 C 0.43657 0.45913 0.02885 0.0
C28 C 0.52595 0.04656 0.07718 0.0
C29 C 0.55263 0.05697 0.91425 0.0
O30 O 0.53096 0.02789 0.05292 0.0
Zn31 Zn 0.53484 0.04844 0.99467 0.0
O32 O 0.52304 0.0685 0.05745 0.0
Zn33 Zn 0.52712 0.08735 0.98876 0.0
O34 O 0.48372 0.0777 0.97286 0.0
O35 O 0.48642 0.03424 0.97793 0.0
O36 O 0.54443 0.07691 0.92723 0.0
O37 O 0.55031 0.03596 0.94227 0.0
O38 O 0.57502 0.09437 0.01127 0.0
O39 O 0.5617 0.13104 1.00106 0.0
C40 C 0.46995 0.04762 0.97048 0.0
C41 C 0.58225 0.12347 0.01281 0.0
C42 C 0.59518 0.05392 0.58138 0.0
C43 C 0.56555 0.05367 0.41902 0.0
O44 O 0.61102 0.07629 0.55292 0.0
Zn45 Zn 0.58323 0.05616 0.49953 0.0
O46 O 0.57014 0.02872 0.56782 0.0
Zn47 Zn 0.54136 1.0093 0.50835 0.0
O48 O 0.54538 0.97228 0.49533 0.0
O49 O 0.59009 0.01749 0.48391 0.0
O50 O 0.54694 0.02877 0.44193 0.0
O51 O 0.58961 0.07644 0.43895 0.0
O52 O 0.54213 0.05571 0.52376 0.0
O53 O 0.50161 1.00667 0.52876 0.0
C54 C 0.57443 0.9871 0.48289 0.0
C55 C 0.5131 0.0364 0.53413 0.0
C56 C 0.09277 0.54572 0.60578 0.0
C57 C 0.0942 0.51928 0.44445 0.0
O58 O 0.06668 0.53781 0.5845 0.0
Zn59 Zn 0.04646 0.522 0.51756 0.0
O60 O 0.11507 0.54458 0.58495 0.0
Zn61 Zn 0.09377 0.53087 0.52596 0.0
O62 O 0.08985 0.57136 0.50576 0.0
O63 O 0.03896 0.55593 0.49826 0.0
O64 O 0.11653 0.52734 0.47359 0.0
O65 O 0.06768 0.51633 0.4572 0.0
O66 O 1.01092 0.4794 0.52827 0.0
O67 O 0.05713 0.48238 0.53935 0.0
C68 C 0.06802 0.57784 0.49607 0.0
C69 C 0.02659 0.46592 0.539 0.0
C70 C 0.53556 0.5141 0.4137 0.0
C71 C 0.49842 0.48419 0.57169 0.0
O72 O 0.53459 0.48871 0.42758 0.0
Zn73 Zn 0.52215 0.45946 0.4873 0.0
O74 O 0.52713 0.52902 0.44065 0.0
Zn75 Zn 0.51588 0.50014 0.49225 0.0
O76 O 0.56114 0.50817 0.51368 0.0
O77 O 0.56336 0.46446 0.50527 0.0
O78 O 0.49989 0.50731 0.54932 0.0
O79 O 0.50571 0.46538 0.55183 0.0
O80 O 0.48616 0.41917 0.46498 0.0
O81 O 0.47619 0.45857 0.46478 0.0
C82 C 0.57656 0.49344 0.51756 0.0
C83 C 0.46748 0.42962 0.45614 0.0
C84 C 0.6506 0.7944 0.38724 0.0
C85 C 0.6487 0.81235 0.22292 0.0
O86 O 0.67641 0.81791 0.37197 0.0
Zn87 Zn 0.69682 0.84072 0.3083 0.0
O88 O 0.62943 0.77535 0.35918 0.0
Zn89 Zn 0.65078 0.79904 0.30385 0.0
O90 O 0.68893 0.78979 0.29492 0.0
O91 O 0.73373 0.83556 0.2988 0.0
O92 O 0.62865 0.78798 0.24513 0.0
O93 O 0.67456 0.83299 0.24257 0.0
O94 O 0.70187 0.8818 0.32425 0.0
O95 O 0.65183 0.84272 0.31998 0.0
C96 C 0.71942 0.80566 0.29334 0.0
C97 C 0.6722 0.87197 0.3278 0.0
C98 C 0.17815 0.91345 0.34746 0.0
C99 C 0.13548 0.80265 0.39674 0.0
O100 O 0.19453 0.8999 0.35244 0.0
Zn101 Zn 0.15937 0.85911 0.3738 0.0
O102 O 0.14862 0.89845 0.358 0.0
Zn103 Zn 0.11234 0.85315 0.38102 0.0
O104 O 0.10132 0.8637 0.44098 0.0
O105 O 0.15013 0.87178 0.43922 0.0
O106 O 0.11469 0.8114 0.39569 0.0
O107 O 0.16421 0.82255 0.38642 0.0
O108 O 0.13141 0.84541 0.31303 0.0
O109 O 0.08503 0.84179 0.32568 0.0
C110 C 0.1279 0.87285 0.461 0.0
C111 C 0.10453 0.8404 0.29801 0.0
C112 C 0.20043 0.39466 0.39201 0.0
C113 C 0.22643 0.39494 0.22984 0.0
O114 O 0.1939 0.36736 0.37698 0.0
Zn115 Zn 0.19568 0.34581 0.31405 0.0
O116 O 0.21027 0.41781 0.36419 0.0
Zn117 Zn 0.21052 0.39501 0.30944 0.0
O118 O 0.16103 0.36396 0.29326 0.0
O119 O 0.15113 0.31497 0.30072 0.0
O120 O 0.22746 0.4178 0.25218 0.0
O121 O 0.21503 0.36766 0.24892 0.0
O122 O 0.22574 0.33205 0.33169 0.0
O123 O 0.24679 0.384 0.32835 0.0
C124 C 0.14133 0.33401 0.29114 0.0
C125 C 0.24989 0.35981 0.3359 0.0
C126 C 0.24198 0.3306 0.79036 0.0
C127 C 0.17356 0.37001 0.8457 0.0
O128 O 0.21251 0.31476 0.79986 0.0
Zn129 Zn 0.20609 0.34959 0.81535 0.0
O130 O 0.25674 0.36094 0.79338 0.0
Zn131 Zn 0.24578 0.39692 0.81134 0.0
O132 O 0.27256 0.41704 0.86499 0.0
O133 O 0.23336 0.36809 0.8774 0.0
O134 O 0.20223 0.39186 0.83729 0.0
O135 O 0.16452 0.34123 0.83629 0.0
O136 O 0.21043 0.3727 0.75139 0.0
O137 O 0.25277 0.42062 0.75439 0.0
C138 C 0.25731 0.39383 0.89234 0.0
C139 C 0.22889 0.39946 0.73227 0.0
C140 C 0.72247 0.89314 0.78488 0.0
C141 C 0.65256 0.78 0.82358 0.0
O142 O 0.73093 0.87265 0.79086 0.0
Zn143 Zn 0.68878 0.83556 0.80375 0.0
O144 O 0.69299 0.88458 0.78868 0.0
Zn145 Zn 0.64866 0.84295 0.80207 0.0
O146 O 0.63419 0.85239 0.85935 0.0
O147 O 0.67465 0.84434 0.86839 0.0
O148 O 0.63819 0.79562 0.81744 0.0
O149 O 0.68273 0.79386 0.81888 0.0
O150 O 0.66412 0.82504 0.73985 0.0
O151 O 0.62536 0.83596 0.74458 0.0
C152 C 0.65339 0.84926 0.88565 0.0
C153 C 0.64055 0.8258 0.72155 0.0
C154 C 0.14959 0.88392 0.9628 0.0
C155 C 0.17087 0.91003 0.79887 0.0
O156 O 0.15975 0.86772 0.94176 0.0
Zn157 Zn 0.1774 0.86578 0.87499 0.0
O158 O 0.14936 0.90672 0.94196 0.0
Zn159 Zn 0.16454 0.90129 0.8825 0.0
O160 O 0.1266 0.8545 0.86375 0.0
O161 O 0.14587 0.82238 0.85663 0.0
O162 O 0.16284 0.9241 0.828 0.0
O163 O 0.17764 0.88923 0.81279 0.0
O164 O 0.22205 0.87843 0.88461 0.0
O165 O 0.2147 0.91893 0.89405 0.0
C166 C 0.12233 0.82697 0.85437 0.0
C167 C 0.2335 0.90766 0.8938 0.0
C168 C 0.32968 0.12908 0.73599 0.0
C169 C 0.33586 0.15622 0.57286 0.0
O170 O 0.35556 0.15383 0.72383 0.0
Zn171 Zn 0.37727 0.18207 0.66513 0.0
O172 O 0.30775 0.11391 0.70647 0.0
Zn173 Zn 0.33044 0.14094 0.65413 0.0
O174 O 0.36922 0.13275 0.64584 0.0
O175 O 0.41448 0.17753 0.65751 0.0
O176 O 0.31238 0.13275 0.59237 0.0
O177 O 0.36023 0.17537 0.59669 0.0
O178 O 0.38014 0.22222 0.68277 0.0
O179 O 0.33082 0.18329 0.67175 0.0
C180 C 0.39969 0.14808 0.64759 0.0
C181 C 0.35039 0.21228 0.68206 0.0
C182 C 0.85078 0.18812 0.73753 0.0
C183 C 0.82717 0.16159 0.57646 0.0
O184 O 0.82627 0.18374 0.71554 0.0
Zn185 Zn 0.83862 0.17574 0.6568 0.0
O186 O 0.8728 0.18602 0.7168 0.0
Zn187 Zn 0.88237 0.17541 0.6498 0.0
O188 O 0.92085 0.21528 0.6321 0.0
O189 O 0.87876 0.22062 0.63895 0.0
O190 O 0.85361 0.16409 0.58916 0.0
O191 O 0.81069 0.16681 0.60504 0.0
O192 O 0.83502 0.13091 0.66847 0.0
O193 O 0.88226 0.13548 0.66185 0.0
C194 C 0.90847 0.23284 0.63028 0.0
C195 C 0.85257 0.11832 0.6699 0.0
C196 C 0.90386 0.67285 0.72519 0.0
C197 C 0.79282 0.61032 0.67184 0.0
O198 O 0.88576 0.68323 0.71241 0.0
Zn199 Zn 0.84793 0.64283 0.69885 0.0
O200 O 0.89315 0.64285 0.72474 0.0
Zn201 Zn 0.84953 0.59992 0.70819 0.0
O202 O 0.86058 0.58237 0.65541 0.0
O203 O 0.86149 0.62709 0.64012 0.0
O204 O 0.80519 0.59361 0.68358 0.0
O205 O 0.80918 0.64042 0.67549 0.0
O206 O 0.8337 0.62166 0.76484 0.0
O207 O 0.83736 0.57848 0.76781 0.0
C208 C 0.86491 0.60402 0.62697 0.0
C209 C 0.83058 0.59766 0.78723 0.0
C210 C 0.83989 0.61338 0.2895 0.0
C211 C 0.81448 0.61369 0.12689 0.0
O212 O 0.85996 0.63887 0.26871 0.0
Zn213 Zn 0.86575 0.65997 0.20212 0.0
O214 O 0.81498 0.59299 0.2684 0.0
Zn215 Zn 0.8244 0.61444 0.20932 0.0
O216 O 0.86736 0.61492 0.18999 0.0
O217 O 0.90628 0.66464 0.18349 0.0
O218 O 0.79817 0.59232 0.15628 0.0
O219 O 0.83901 0.63961 0.14006 0.0
O220 O 0.86229 0.69743 0.21311 0.0
O221 O 0.81606 0.65334 0.21991 0.0
C222 C 0.89649 0.63508 0.18076 0.0
C223 C 0.83258 0.68377 0.22077 0.0
C224 C 0.31605 0.23101 0.12584 0.0
C225 C 0.2625 0.11929 0.17455 0.0
O226 O 0.33463 0.21975 0.13068 0.0
Zn227 Zn 0.33234 0.1765 0.14952 0.0
O228 O 0.28648 0.21321 0.13365 0.0
Zn229 Zn 0.28734 0.17457 0.14936 0.0
O230 O 0.31144 0.18547 0.21401 0.0
O231 O 0.35709 0.18676 0.20568 0.0
O232 O 0.24889 0.13539 0.16745 0.0
O233 O 0.29249 0.13204 0.1683 0.0
O234 O 0.34653 0.16467 0.09559 0.0
O235 O 0.29961 0.16074 0.08611 0.0
C236 C 0.33712 0.18871 0.23146 0.0
C237 C 0.32247 0.15765 0.07035 0.0
C238 C 0.86026 0.19557 0.08043 0.0
C239 C 0.82974 0.17854 0.24027 0.0
O240 O 0.85123 0.17057 0.104 0.0
Zn241 Zn 0.84682 0.18734 0.161 0.0
O242 O 0.86365 0.22072 0.09957 0.0
Zn243 Zn 0.8567 0.23503 0.16597 0.0
O244 O 0.89977 0.26797 0.18457 0.0
O245 O 0.89492 0.22074 0.18043 0.0
O246 O 0.83862 0.20691 0.22717 0.0
O247 O 0.83107 0.15923 0.21249 0.0
O248 O 0.80753 0.19409 0.14564 0.0
O249 O 0.82303 0.24489 0.15126 0.0
C250 C 0.91216 0.25054 0.18852 0.0
C251 C 0.80121 0.21651 0.14261 0.0
H252 H 0.15022 0.54444 0.39612 0.0
H253 H 0.04815 0.48695 0.38113 0.0
H254 H 0.15582 0.54547 0.31232 0.0
H255 H 0.05358 0.48834 0.29847 0.0
H256 H 0.06758 0.47987 0.15222 0.0
H257 H 0.07192 0.47178 0.23371 0.0
H258 H 0.14302 0.57089 0.24868 0.0
H259 H 0.13934 0.57878 0.16642 0.0
C260 C 0.1291 0.53149 0.37504 0.0
C261 C 0.09874 0.51576 0.39512 0.0
C262 C 0.13227 0.53232 0.32712 0.0
C263 C 0.10516 0.51709 0.29866 0.0
C264 C 0.07503 0.49999 0.31918 0.0
C265 C 0.07188 0.49937 0.36671 0.0
C266 C 0.08449 0.49987 0.17274 0.0
C267 C 0.10272 0.5301 0.15308 0.0
C268 C 0.08695 0.49523 0.21948 0.0
C269 C 0.1074 0.52079 0.24789 0.0
C270 C 0.12715 0.55065 0.22773 0.0
C271 C 0.12491 0.55523 0.18066 0.0
H272 H 0.55428 0.48644 0.34981 0.0
H273 H 0.53535 0.56321 0.36748 0.0
H274 H 0.55885 0.49531 0.2679 0.0
H275 H 0.54129 0.57307 0.28482 0.0
H276 H 0.57284 0.51832 0.12019 0.0
H277 H 0.58474 0.52587 0.20234 0.0
H278 H 0.50841 0.54564 0.22127 0.0
H279 H 0.49752 0.53943 0.13974 0.0
C280 C 0.5518 0.50576 0.33632 0.0
C281 C 0.54381 0.52373 0.36518 0.0
C282 C 0.55478 0.51109 0.28913 0.0
C283 C 0.55012 0.5347 0.26946 0.0
C284 C 0.54439 0.55423 0.29871 0.0
C285 C 0.54117 0.54873 0.34613 0.0
C286 C 0.55903 0.52483 0.14188 0.0
C287 C 0.53395 0.5278 0.12348 0.0
C288 C 0.56574 0.52905 0.18899 0.0
C289 C 0.54732 0.53605 0.21867 0.0
C290 C 0.52342 0.54069 0.19965 0.0
C291 C 0.51692 0.53675 0.15271 0.0
H292 H 0.53146 0.09202 0.13715 0.0
H293 H 0.52699 1.00143 0.13208 0.0
H294 H 0.54138 0.09495 0.21966 0.0
H295 H 0.53686 1.00444 0.21474 0.0
H296 H 0.51985 1.00525 0.36849 0.0
H297 H 0.50919 1.00364 0.28696 0.0
H298 H 0.58529 0.10078 0.27374 0.0
H299 H 0.59624 0.10258 0.35647 0.0
C300 C 0.53213 0.07248 0.15369 0.0
C301 C 0.52817 0.04632 0.12798 0.0
C302 C 0.53822 0.07442 0.20091 0.0
C303 C 0.54009 0.05006 0.22365 0.0
C304 C 0.53538 0.02353 0.1982 0.0
C305 C 0.52966 0.02176 0.15086 0.0
C306 C 0.53439 0.02646 0.34853 0.0
C307 C 0.55901 0.05412 0.36923 0.0
C308 C 0.52832 0.02537 0.30157 0.0
C309 C 0.54649 0.05195 0.27385 0.0
C310 C 0.57078 0.07993 0.29439 0.0
C311 C 0.57712 0.08095 0.34166 0.0
H312 H 0.13717 0.55092 0.66919 0.0
H313 H 0.05593 0.56336 0.65231 0.0
H314 H 0.13842 0.56209 0.75127 0.0
H315 H 0.05774 0.57534 0.73354 0.0
H316 H 0.03967 0.54061 0.88356 0.0
H317 H 0.0441 0.54263 0.80067 0.0
H318 H 0.14641 0.60047 0.81219 0.0
H319 H 0.14193 0.5979 0.89607 0.0
C320 C 0.11995 0.55655 0.68283 0.0
C321 C 0.09611 0.55568 0.65444 0.0
C322 C 0.1208 0.56319 0.72978 0.0
C323 C 0.09795 0.56928 0.74908 0.0
C324 C 0.07527 0.57011 0.72002 0.0
C325 C 0.07427 0.56325 0.67338 0.0
C326 C 0.06311 0.55429 0.86853 0.0
C327 C 0.09045 0.56895 0.8964 0.0
C328 C 0.06566 0.5556 0.82086 0.0
C329 C 0.09565 0.57158 0.79969 0.0
C330 C 0.123 0.58765 0.82749 0.0
C331 C 0.12041 0.58648 0.87548 0.0
H332 H 0.49512 0.43775 0.62725 0.0
H333 H 0.48716 0.52199 0.62923 0.0
H334 H 0.49077 0.43436 0.7104 0.0
H335 H 0.48286 0.51849 0.71291 0.0
H336 H 0.4498 0.48726 0.85912 0.0
H337 H 0.44742 0.48418 0.77581 0.0
H338 H 0.52591 0.46665 0.77534 0.0
H339 H 0.52838 0.46967 0.85919 0.0
C340 C 0.4921 0.4554 0.64534 0.0
C341 C 0.49165 0.48029 0.62152 0.0
C342 C 0.48983 0.45351 0.69307 0.0
C343 C 0.48679 0.47629 0.71816 0.0
C344 C 0.48501 0.50046 0.69437 0.0
C345 C 0.4875 0.5025 0.64648 0.0
C346 C 0.46639 0.48238 0.84144 0.0
C347 C 0.48946 0.47889 0.86589 0.0
C348 C 0.46509 0.48084 0.79362 0.0
C349 C 0.48666 0.47552 0.76906 0.0
C350 C 0.50885 0.47063 0.79344 0.0
C351 C 0.51029 0.47237 0.84144 0.0
H352 H 0.55599 0.09588 0.84421 0.0
H353 H 0.57827 0.02308 0.87785 0.0
H354 H 0.57485 0.09816 0.76632 0.0
H355 H 0.59808 0.02603 0.80016 0.0
H356 H 0.57998 1.00713 0.64338 0.0
H357 H 0.57542 1.01031 0.72577 0.0
H358 H 0.61914 0.1122 0.71598 0.0
H359 H 0.62289 0.10875 0.63255 0.0
C360 C 0.56523 0.08057 0.83514 0.0
C361 C 0.56522 0.059 0.86721 0.0
C362 C 0.57643 0.08215 0.7905 0.0
C363 C 0.58809 0.06232 0.77674 0.0
C364 C 0.58891 0.04139 0.80928 0.0
C365 C 0.57754 0.03968 0.85389 0.0
C366 C 0.58945 0.03035 0.65891 0.0
C367 C 0.60158 0.05767 0.6314 0.0
C368 C 0.58691 0.0322 0.70636 0.0
C369 C 0.59643 0.06146 0.72768 0.0
C370 C 0.61099 0.08918 0.70058 0.0
C371 C 0.61362 0.08731 0.65286 0.0
H372 H 0.6163 0.84768 0.65529 0.0
H373 H 0.64577 0.7791 0.68014 0.0
H374 H 0.61157 0.83521 0.57297 0.0
H375 H 0.64043 0.7663 0.59841 0.0
H376 H 0.611 0.74373 0.44297 0.0
H377 H 0.6 0.74634 0.52503 0.0
H378 H 0.66216 0.84796 0.52266 0.0
H379 H 0.67374 0.84546 0.4425 0.0
C380 C 0.62085 0.82935 0.64334 0.0
C381 C 0.63185 0.8147 0.67378 0.0
C382 C 0.61815 0.82222 0.59641 0.0
C383 C 0.6257 0.79983 0.57955 0.0
C384 C 0.63422 0.78342 0.61058 0.0
C385 C 0.63755 0.791 0.65722 0.0
C386 C 0.62231 0.76649 0.46025 0.0
C387 C 0.64366 0.79426 0.4366 0.0
C388 C 0.6159 0.76801 0.50688 0.0
C389 C 0.62992 0.79743 0.52976 0.0
C390 C 0.65065 0.82507 0.50568 0.0
C391 C 0.65764 0.82349 0.4599 0.0
H392 H 0.133 0.9278 0.75213 0.0
H393 H 0.20224 0.89859 0.73197 0.0
H394 H 0.12246 0.92342 0.66906 0.0
H395 H 0.19165 0.89393 0.65007 0.0
H396 H 0.18555 0.90837 0.50166 0.0
H397 H 0.19754 0.92393 0.58153 0.0
H398 H 0.09711 0.87979 0.61047 0.0
H399 H 0.08497 0.86465 0.52927 0.0
C400 C 0.14651 0.92123 0.7299 0.0
C401 C 0.16859 0.91371 0.74862 0.0
C402 C 0.14016 0.91829 0.68244 0.0
C403 C 0.15611 0.90823 0.65278 0.0
C404 C 0.17915 0.90212 0.67157 0.0
C405 C 0.18523 0.90475 0.71871 0.0
C406 C 0.1659 0.90211 0.52482 0.0
C407 C 0.13422 0.88476 0.5091 0.0
C408 C 0.17283 0.91104 0.57078 0.0
C409 C 0.14833 0.90269 0.60274 0.0
C410 C 0.1166 0.88673 0.58675 0.0
C411 C 0.1096 0.8779 0.5403 0.0
H412 H 0.1713 0.34862 0.45628 0.0
H413 H 0.22831 0.45039 0.4416 0.0
H414 H 0.17648 0.35394 0.53888 0.0
H415 H 0.23297 0.45588 0.52541 0.0
H416 H 0.17244 0.36817 0.6869 0.0
H417 H 0.16208 0.37126 0.60596 0.0
H418 H 0.26021 0.44448 0.5871 0.0
H419 H 0.2703 0.44211 0.66906 0.0
C420 C 0.18445 0.37227 0.47076 0.0
C421 C 0.1995 0.39907 0.44223 0.0
C422 C 0.18727 0.37536 0.51837 0.0
C423 C 0.20519 0.40537 0.53902 0.0
C424 C 0.21926 0.43239 0.51062 0.0
C425 C 0.21633 0.42928 0.46265 0.0
C426 C 0.19176 0.38523 0.66565 0.0
C427 C 0.22233 0.40456 0.68424 0.0
C428 C 0.18583 0.38693 0.61913 0.0
C429 C 0.21043 0.40768 0.5897 0.0
C430 C 0.24065 0.42833 0.60877 0.0
C431 C 0.24651 0.42687 0.65568 0.0
H432 H 0.67412 0.86866 0.17778 0.0
H433 H 0.60975 0.76812 0.15953 0.0
H434 H 0.66885 0.8775 0.09648 0.0
H435 H 0.60495 0.77706 0.07775 0.0
H436 H 0.6602 0.8074 0.93684 0.0
H437 H 0.65224 0.79768 0.01872 0.0
H438 H 0.62605 0.86963 0.03025 0.0
H439 H 0.6333 0.879 0.94662 0.0
C440 C 0.65857 0.84849 0.15647 0.0
C441 C 0.6427 0.81761 0.17481 0.0
C442 C 0.6553 0.85365 0.11009 0.0
C443 C 0.63652 0.82798 0.08099 0.0
C444 C 0.61957 0.79724 0.09964 0.0
C445 C 0.62236 0.79212 0.14629 0.0
C446 C 0.6527 0.82123 0.95667 0.0
C447 C 0.64784 0.84435 0.93553 0.0
C448 C 0.64776 0.81531 0.00348 0.0
C449 C 0.63834 0.83273 0.03065 0.0
C450 C 0.63321 0.85582 0.00978 0.0
C451 C 0.63741 0.86123 0.96222 0.0
H452 H 0.13031 0.82741 0.00494 0.0
H453 H 0.13956 0.91901 0.02772 0.0
H454 H 0.11096 0.81165 0.08264 0.0
H455 H 0.12139 0.90371 0.10688 0.0
H456 H 0.07394 0.86322 0.24386 0.0
H457 H 0.07953 0.87122 0.16039 0.0
H458 H 0.13326 0.82287 0.1561 0.0
H459 H 0.12681 0.81426 0.2381 0.0
C460 C 0.12843 0.84434 0.02671 0.0
C461 C 0.137 0.87469 0.01023 0.0
C462 C 0.11732 0.83529 0.07149 0.0
C463 C 0.11493 0.85647 0.10162 0.0
C464 C 0.12258 0.88658 0.0847 0.0
C465 C 0.13331 0.89551 0.03942 0.0
C466 C 0.08583 0.85329 0.22461 0.0
C467 C 0.09978 0.83794 0.24752 0.0
C468 C 0.08957 0.85837 0.17689 0.0
C469 C 0.10715 0.84801 0.15122 0.0
C470 C 0.11924 0.83092 0.17414 0.0
C471 C 0.11557 0.82596 0.22144 0.0
H472 H 0.2885 0.44848 0.94388 0.0
H473 H 0.2385 0.34632 0.95432 0.0
H474 H 0.28791 0.45237 0.02772 0.0
H475 H 0.23701 0.35003 0.03693 0.0
H476 H 0.23299 0.43938 0.16604 0.0
H477 H 0.24822 0.44218 0.08544 0.0
H478 H 0.26458 0.364 0.10724 0.0
H479 H 0.24802 0.36037 0.18664 0.0
C480 C 0.27809 0.42692 0.96407 0.0
C481 C 0.26343 0.39709 0.94246 0.0
C482 C 0.27736 0.42912 0.01205 0.0
C483 C 0.26214 0.40153 0.03925 0.0
C484 C 0.24929 0.37185 0.01747 0.0
C485 C 0.24998 0.36969 0.96984 0.0
C486 C 0.2401 0.42301 0.15354 0.0
C487 C 0.23868 0.39925 0.18236 0.0
C488 C 0.24909 0.42475 0.10745 0.0
C489 C 0.25725 0.40302 0.08952 0.0
C490 C 0.25765 0.38058 0.11938 0.0
C491 C 0.2482 0.37852 0.16501 0.0
H492 H 0.28113 0.1521 1.00264 0.0
H493 H 0.35871 0.13563 0.03149 0.0
H494 H 0.27954 0.13558 0.92359 0.0
H495 H 0.35629 0.11776 0.95268 0.0
H496 H 0.37617 0.14419 0.79878 0.0
H497 H 0.37146 0.14373 0.88134 0.0
H498 H 0.26894 0.09508 0.8685 0.0
H499 H 0.27391 0.09665 0.78471 0.0
C500 C 0.29755 0.14448 0.99225 0.0
C501 C 0.32043 0.14572 0.0231 0.0
C502 C 0.29638 0.13459 0.94697 0.0
C503 C 0.31785 0.12538 0.93155 0.0
C504 C 0.33975 0.12521 0.96312 0.0
C505 C 0.34118 0.13548 0.00829 0.0
C506 C 0.35253 0.13279 0.81352 0.0
C507 C 0.32542 0.12097 0.78529 0.0
C508 C 0.3498 0.13227 0.86108 0.0
C509 C 0.31983 0.1198 0.88176 0.0
C510 C 0.29244 0.10547 0.8536 0.0
C511 C 0.29521 0.10601 0.80567 0.0
H512 H 0.90491 0.21772 0.78857 0.0
H513 H 0.80239 0.16893 0.79894 0.0
H514 H 0.9093 0.22026 0.87228 0.0
H515 H 0.80689 0.17103 0.88282 0.0
H516 H 0.83197 0.14411 0.02396 0.0
H517 H 0.83019 0.14437 0.94003 0.0
H518 H 0.89281 0.24595 0.93989 0.0
H519 H 0.89423 0.24591 0.02385 0.0
C520 C 0.88336 0.20784 0.80879 0.0
C521 C 0.8533 0.19312 0.78746 0.0
C522 C 0.88591 0.2093 0.85652 0.0
C523 C 0.85842 0.19552 0.8836 0.0
C524 C 0.82837 0.18151 0.86239 0.0
C525 C 0.82582 0.18059 0.81459 0.0
C526 C 0.84577 0.16641 0.00599 0.0
C527 C 0.86322 0.195 0.03027 0.0
C528 C 0.84445 0.16657 0.95814 0.0
C529 C 0.86106 0.19523 0.93393 0.0
C530 C 0.87976 0.22361 0.95803 0.0
C531 C 0.88059 0.22355 0.00589 0.0
H532 H 0.78373 0.55662 0.08133 0.0
H533 H 0.83244 0.6579 0.05966 0.0
H534 H 0.78195 0.54829 0.998 0.0
H535 H 0.83072 0.64968 0.97722 0.0
H536 H 0.80429 0.62798 0.83066 0.0
H537 H 0.79363 0.62799 0.91196 0.0
H538 H 0.82328 0.55953 0.93636 0.0
H539 H 0.83375 0.55918 0.85408 0.0
C540 C 0.79337 0.57702 0.05879 0.0
C541 C 0.80816 0.60792 0.07702 0.0
C542 C 0.79267 0.57227 0.01118 0.0
C543 C 0.80626 0.59831 0.98102 0.0
C544 C 0.81973 0.62906 0.99938 0.0
C545 C 0.82079 0.6338 0.04671 0.0
C546 C 0.80827 0.61261 0.85312 0.0
C547 C 0.82038 0.59393 0.8359 0.0
C548 C 0.80216 0.61268 0.89981 0.0
C549 C 0.80803 0.59413 0.93072 0.0
C550 C 0.8184 0.57399 0.91333 0.0
C551 C 0.82452 0.57388 0.86627 0.0
H552 H 0.38415 0.18811 0.28317 0.0
H553 H 0.29667 0.19016 0.2944 0.0
H554 H 0.38393 0.18054 0.3662 0.0
H555 H 0.29657 0.1826 0.37691 0.0
H556 H 0.28661 0.12715 0.51066 0.0
H557 H 0.28859 0.13761 0.42807 0.0
H558 H 0.38821 0.20841 0.44005 0.0
H559 H 0.38642 0.19804 0.52186 0.0
C560 C 0.36523 0.18754 0.30334 0.0
C561 C 0.3404 0.18963 0.28206 0.0
C562 C 0.36504 0.1831 0.35084 0.0
C563 C 0.33993 0.18048 0.37784 0.0
C564 C 0.31586 0.18388 0.35683 0.0
C565 C 0.31616 0.18854 0.30955 0.0
C566 C 0.30888 0.14489 0.49559 0.0
C567 C 0.33627 0.16178 0.52286 0.0
C568 C 0.31 0.15101 0.44844 0.0
C569 C 0.33859 0.17388 0.42772 0.0
C570 C 0.36595 0.1905 0.45496 0.0
C571 C 0.36479 0.18462 0.50195 0.0
H572 H 0.81588 0.12312 0.28324 0.0
H573 H 0.82002 0.21263 0.30543 0.0
H574 H 0.80522 0.11082 0.36479 0.0
H575 H 0.80992 0.20056 0.38661 0.0
H576 H 0.78256 0.16973 0.53044 0.0
H577 H 0.77354 0.16633 0.44741 0.0
H578 H 0.84147 0.13495 0.43039 0.0
H579 H 0.8501 0.1379 0.51273 0.0
C580 C 0.81408 0.13995 0.30534 0.0
C581 C 0.81937 0.1691 0.28809 0.0
C582 C 0.80798 0.1329 0.35198 0.0
C583 C 0.80695 0.15482 0.38209 0.0
C584 C 0.81023 0.18303 0.36423 0.0
C585 C 0.8164 0.19011 0.31773 0.0
C586 C 0.79497 0.16142 0.50898 0.0
C587 C 0.81745 0.15463 0.5279 0.0
C588 C 0.78989 0.15957 0.46152 0.0
C589 C 0.80701 0.15065 0.43242 0.0
C590 C 0.8277 0.14164 0.45186 0.0
C591 C 0.8329 0.14367 0.49907 0.0
H592 H 0.89827 0.6527 0.56885 0.0
H593 H 0.84069 0.55062 0.57298 0.0
H594 H 0.89465 0.65163 0.48585 0.0
H595 H 0.83745 0.54929 0.48878 0.0
H596 H 0.7988 0.56968 0.35195 0.0
H597 H 0.80981 0.56395 0.43233 0.0
H598 H 0.9077 0.63808 0.4145 0.0
H599 H 0.89644 0.64451 0.33516 0.0
C600 C 0.88568 0.62988 0.55175 0.0
C601 C 0.86978 0.60176 0.57739 0.0
C602 C 0.88362 0.62922 0.50399 0.0
C603 C 0.86549 0.60037 0.48041 0.0
C604 C 0.85125 0.57195 0.5059 0.0
C605 C 0.85351 0.57263 0.55404 0.0
C606 C 0.82269 0.58459 0.36522 0.0
C607 C 0.84656 0.60795 0.33738 0.0
C608 C 0.82911 0.58111 0.41119 0.0
C609 C 0.85962 0.60074 0.43014 0.0
C610 C 0.88378 0.62299 0.40145 0.0
C611 C 0.8773 0.62669 0.35585 0.0
H612 H 0.03688 0.41455 0.9777 0.0
H613 H 0.12894 0.49914 0.96112 0.0
H614 H 0.05821 0.38279 0.9444 0.0
H615 H 0.14952 0.46808 0.92764 0.0
H616 H 0.19162 0.40814 0.91895 0.0
H617 H 0.16275 0.42976 0.9577 0.0
H618 H 0.08136 0.37467 0.86967 0.0
H619 H 0.1104 0.35179 0.8316 0.0
C620 C 0.06151 0.42633 0.96696 0.0
C621 C 0.08133 0.4593 0.97281 0.0
C622 C 0.07364 0.40821 0.94775 0.0
C623 C 0.10571 0.42285 0.93422 0.0
C624 C 0.12498 0.45588 0.9389 0.0
C625 C 0.11306 0.47376 0.95806 0.0
C626 C 0.1674 0.4003 0.90822 0.0
C627 C 0.15337 0.37883 0.8718 0.0
C628 C 0.15088 0.41273 0.93032 0.0
C629 C 0.12009 0.40458 0.91592 0.0
C630 C 0.10511 0.38144 0.88138 0.0
C631 C 0.12166 0.36846 0.85954 0.0
H632 H 0.58934 0.73991 0.81097 0.0
H633 H 0.67231 0.74609 0.87544 0.0
H634 H 0.55569 0.68876 0.84707 0.0
H635 H 0.63845 0.69507 0.91298 0.0
H636 H 0.57188 0.58944 0.93758 0.0
H637 H 0.60595 0.63974 0.90049 0.0
H638 H 0.53459 0.66634 0.92047 0.0
H639 H 0.49963 0.61495 0.95658 0.0
C640 C 0.60043 0.73017 0.8327 0.0
C641 C 0.63352 0.74698 0.84028 0.0
C642 C 0.58105 0.70099 0.85388 0.0
C643 C 0.59417 0.6879 0.88358 0.0
C644 C 0.62748 0.70428 0.89005 0.0
C645 C 0.64698 0.73347 0.86843 0.0
C646 C 0.56331 0.60596 0.93435 0.0
C647 C 0.53285 0.59804 0.95009 0.0
C648 C 0.58309 0.63503 0.9132 0.0
C649 C 0.57316 0.65723 0.90736 0.0
C650 C 0.54286 0.64959 0.92372 0.0
C651 C 0.52286 0.62025 0.94474 0.0
H652 H 0.26421 0.96857 0.92761 0.0
H653 H 0.2817 0.89442 0.88378 0.0
H654 H 0.32047 1.00228 0.94634 0.0
H655 H 0.33813 0.92846 0.90062 0.0
H656 H 0.43211 0.98312 0.97672 0.0
H657 H 0.37583 0.95025 0.95894 0.0
H658 H 0.3725 0.0338 0.91915 0.0
H659 H 0.42881 0.06686 0.93892 0.0
C660 C 0.28009 0.9595 0.92159 0.0
C661 C 0.26819 0.92859 0.90432 0.0
C662 C 0.31258 0.97901 0.93207 0.0
C663 C 0.33433 0.96837 0.92527 0.0
C664 C 0.32235 0.93752 0.90741 0.0
C665 C 0.28983 0.91793 0.89737 0.0
C666 C 0.41943 0.99458 0.96422 0.0
C667 C 0.43523 0.02778 0.9593 0.0
C668 C 0.38698 0.97558 0.95359 0.0
C669 C 0.36915 0.98903 0.93713 0.0
C670 C 0.38501 0.02235 0.93227 0.0
C671 C 0.4175 0.04142 0.94338 0.0
H672 H 0.53669 0.08843 0.58756 0.0
H673 H 0.4487 0.01474 0.5286 0.0
H674 H 0.50941 0.11414 0.6187 0.0
H675 H 0.42118 0.04144 0.55818 0.0
H676 H 0.37604 0.08428 0.64745 0.0
H677 H 0.40242 0.05568 0.62344 0.0
H678 H 0.48782 0.14491 0.59454 0.0
H679 H 0.4617 0.17346 0.62052 0.0
C680 C 0.51139 0.07781 0.58103 0.0
C681 C 0.49484 0.04974 0.55521 0.0
C682 C 0.49576 0.09274 0.59866 0.0
C683 C 0.46315 0.08034 0.59036 0.0
C684 C 0.44629 0.05163 0.56558 0.0
C685 C 0.46197 0.03631 0.54847 0.0
C686 C 0.40057 0.0978 0.63633 0.0
C687 C 0.41684 0.13118 0.63596 0.0
C688 C 0.41562 0.08134 0.62215 0.0
C689 C 0.44725 0.09782 0.60674 0.0
C690 C 0.46362 0.1313 0.60689 0.0
C691 C 0.44866 0.14777 0.62167 0.0
H692 H 0.96906 0.26646 0.59387 0.0
H693 H 0.89054 0.27713 0.63855 0.0
H694 H 0.9979 0.32225 0.57039 0.0
H695 H 0.91944 0.33258 0.61678 0.0
H696 H 0.9629 0.42209 0.53198 0.0
H697 H 0.93571 0.36615 0.55259 0.0
H698 H 0.02524 0.37597 0.59607 0.0
H699 H 0.05255 0.43174 0.57388 0.0
C700 C 0.95807 0.28073 0.59908 0.0
C701 C 0.92736 0.26713 0.61786 0.0
C702 C 0.97465 0.31281 0.58577 0.0
C703 C 0.961 0.33214 0.59117 0.0
C704 C 0.93056 0.31851 0.61088 0.0
C705 C 0.91399 0.28657 0.62378 0.0
C706 C 0.97682 0.41234 0.54586 0.0
C707 C 1.00994 0.43158 0.55136 0.0
C708 C 0.96117 0.38017 0.55802 0.0
C709 C 0.97811 0.36628 0.57648 0.0
C710 C 1.01133 0.38553 0.58153 0.0
C711 C 0.02701 0.41767 0.56905 0.0
H712 H 0.764 0.63622 0.62082 0.0
H713 H 0.74876 0.54733 0.67532 0.0
H714 H 0.71281 0.608 0.58104 0.0
H715 H 0.69732 0.5193 0.63704 0.0
H716 H 0.62027 0.47358 0.52711 0.0
H717 H 0.67281 0.50248 0.56356 0.0
H718 H 0.65734 0.58029 0.59343 0.0
H719 H 0.60594 0.55222 0.55597 0.0
C720 C 0.74951 0.61075 0.62492 0.0
C721 C 0.76047 0.59408 0.65127 0.0
C722 C 0.72012 0.59449 0.60211 0.0
C723 C 0.70088 0.56123 0.6055 0.0
C724 C 0.71168 0.54476 0.63271 0.0
C725 C 0.74111 0.56094 0.65511 0.0
C726 C 0.62826 0.49693 0.54122 0.0
C727 C 0.60886 0.51052 0.53844 0.0
C728 C 0.65828 0.51346 0.56241 0.0
C729 C 0.66944 0.54383 0.58156 0.0
C730 C 0.64997 0.55731 0.57845 0.0
C731 C 0.62024 0.54099 0.5571 0.0
H732 H 0.88612 0.57514 0.18858 0.0
H733 H 0.95387 0.66781 0.13596 0.0
H734 H 0.91732 0.55362 0.15706 0.0
H735 H 0.98486 0.64596 0.10294 0.0
H736 H 0.04735 0.60057 0.08705 0.0
H737 H 1.01819 0.62414 0.11999 0.0
H738 H 0.92938 0.53985 0.08486 0.0
H739 H 0.95858 0.51589 0.05326 0.0
C740 C 0.90775 0.59098 0.17022 0.0
C741 C 0.91743 0.62321 0.16465 0.0
C742 C 0.92553 0.57853 0.15174 0.0
C743 C 0.95341 0.59786 0.12677 0.0
C744 C 0.96362 0.63036 0.1222 0.0
C745 C 0.94587 0.64293 0.14108 0.0
C746 C 0.02158 0.58707 0.08624 0.0
C747 C 1.0053 0.55623 0.0677 0.0
C748 C 1.00485 0.6007 0.10495 0.0
C749 C 0.97139 0.5839 0.10543 0.0
C750 C 0.95514 0.55328 0.086 0.0
C751 C 0.97188 0.53958 0.06756 0.0
H752 H 0.37642 0.27091 0.09748 0.0
H753 H 0.28716 0.26747 0.12113 0.0
H754 H 0.40107 0.32633 0.07721 0.0
H755 H 0.31251 0.32411 0.10111 0.0
H756 H 0.37256 0.4195 0.00946 0.0
H757 H 0.33951 0.3639 0.03457 0.0
H758 H 0.41674 0.37464 0.12088 0.0
H759 H 0.44946 0.42903 0.09511 0.0
C760 C 0.36197 0.28199 0.09855 0.0
C761 C 0.32983 0.26468 0.11155 0.0
C762 C 0.37624 0.31396 0.08707 0.0
C763 C 0.35897 0.32989 0.08843 0.0
C764 C 0.32647 0.31252 0.09989 0.0
C765 C 0.31202 0.28016 0.11147 0.0
C766 C 0.38203 0.40999 0.03452 0.0
C767 C 0.4137 0.4283 0.04979 0.0
C768 C 0.36319 0.37823 0.04886 0.0
C769 C 0.37584 0.36462 0.07879 0.0
C770 C 0.40658 0.38404 0.09677 0.0
C771 C 0.4253 0.41529 0.08218 0.0
H772 H 0.7476 0.15909 0.1488 0.0
H773 H 0.78088 0.25489 0.10293 0.0
H774 H 0.69477 0.14279 0.12011 0.0
H775 H 0.72706 0.23829 0.07378 0.0
H776 H 0.63587 0.17368 0.97493 0.0
H777 H 0.68929 0.20149 0.01018 0.0
H778 H 0.64979 0.15045 0.13654 0.0
H779 H 0.59716 0.12255 0.1011 0.0
C780 C 0.74357 0.17684 0.13292 0.0
C781 C 0.76856 0.20834 0.12825 0.0
C782 C 0.71309 0.16748 0.11666 0.0
C783 C 0.70652 0.18924 0.09486 0.0
C784 C 0.73137 0.22094 0.09037 0.0
C785 C 0.76208 0.23049 0.10734 0.0
C786 C 0.63865 0.16932 0.01065 0.0
C787 C 0.61253 0.14616 0.03547 0.0
C788 C 0.66917 0.18515 0.03084 0.0
C789 C 0.6739 0.17784 0.076 0.0
C790 C 0.64714 0.15628 0.10151 0.0
C791 C 0.61694 0.14048 0.08138 0.0
H792 H 0.63507 1.0134 0.45081 0.0
H793 H 0.54928 0.92289 0.47057 0.0
H794 H 0.65962 0.98734 0.41204 0.0
H795 H 0.5744 0.89652 0.43285 0.0
H796 H 0.61278 0.86317 0.31824 0.0
H797 H 0.59009 0.89099 0.35741 0.0
H798 H 0.6813 0.9534 0.42076 0.0
H799 H 0.70426 0.92589 0.38027 0.0
C800 C 0.62152 0.98781 0.44749 0.0
C801 C 0.59004 0.97025 0.46367 0.0
C802 C 0.63576 0.97284 0.42535 0.0
C803 C 0.619 0.93983 0.41889 0.0
C804 C 0.58783 0.92209 0.43637 0.0
C805 C 0.57348 0.93714 0.45842 0.0
C806 C 0.62815 0.88313 0.34003 0.0
C807 C 0.66036 0.89237 0.34608 0.0
C808 C 0.615 0.89885 0.363 0.0
C809 C 0.63364 0.92411 0.39298 0.0
C810 C 0.66623 0.93414 0.39777 0.0
C811 C 0.67948 0.91849 0.37443 0.0
H812 H 0.12672 0.63108 0.50199 0.0
H813 H 0.03039 0.59904 0.45768 0.0
H814 H 0.1427 0.68473 0.47803 0.0
H815 H 0.04662 0.6527 0.43195 0.0
H816 H 0.07867 0.75813 0.43339 0.0
H817 H 0.06229 0.70436 0.45736 0.0
H818 H 0.153 0.71773 0.41373 0.0
H819 H 0.16982 0.77212 0.39133 0.0
C820 C 0.10892 0.63543 0.48684 0.0
C821 C 0.07721 0.61065 0.48185 0.0
C822 C 0.11819 0.66629 0.47269 0.0
C823 C 0.0961 0.6733 0.45269 0.0
C824 C 0.0643 0.64846 0.44776 0.0
C825 C 0.05495 0.61757 0.46234 0.0
C826 C 0.09517 0.74964 0.42886 0.0
C827 C 0.12565 0.76958 0.41049 0.0
C828 C 0.08565 0.71859 0.44236 0.0
C829 C 0.1062 0.7064 0.43756 0.0
C830 C 0.13663 0.72631 0.41877 0.0
C831 C 0.14628 0.75753 0.40562 0.0
H832 H 0.2666 0.31615 0.36546 0.0
H833 H 0.30545 0.41604 0.33856 0.0
H834 H 0.31962 0.32714 0.39027 0.0
H835 H 0.35735 0.4268 0.36348 0.0
H836 H 0.45266 0.44045 0.37199 0.0
H837 H 0.39975 0.41838 0.3383 0.0
H838 H 0.35952 0.35549 0.45443 0.0
H839 H 0.41321 0.37721 0.48743 0.0
C840 C 0.28635 0.34033 0.36459 0.0
C841 C 0.28169 0.36516 0.34985 0.0
C842 C 0.31666 0.34663 0.37898 0.0
C843 C 0.34287 0.37781 0.37835 0.0
C844 C 0.33798 0.40241 0.36348 0.0
C845 C 0.30798 0.39621 0.34946 0.0
C846 C 0.4326 0.42116 0.38951 0.0
C847 C 0.43689 0.41036 0.43205 0.0
C848 C 0.40224 0.40872 0.37052 0.0
C849 C 0.37526 0.38563 0.39413 0.0
C850 C 0.37979 0.37318 0.4353 0.0
C851 C 0.41046 0.3855 0.45417 0.0
H852 H 0.8603 0.7458 0.2492 0.0
H853 H 0.76932 0.66428 0.21499 0.0
H854 H 0.83406 0.7756 0.26844 0.0
H855 H 0.7432 0.69431 0.2316 0.0
H856 H 0.69872 0.74284 0.3053 0.0
H857 H 0.72666 0.71452 0.28934 0.0
H858 H 0.80817 0.80182 0.24273 0.0
H859 H 0.78052 0.8304 0.26134 0.0
C860 C 0.8347 0.73435 0.24529 0.0
C861 C 0.81692 0.70256 0.23082 0.0
C862 C 0.81958 0.75152 0.25608 0.0
C863 C 0.78626 0.73754 0.25201 0.0
C864 C 0.7687 0.70588 0.23652 0.0
C865 C 0.78375 0.6886 0.22654 0.0
C866 C 0.72267 0.75604 0.29182 0.0
C867 C 0.73731 0.78891 0.28453 0.0
C868 C 0.73871 0.73969 0.28219 0.0
C869 C 0.76976 0.75557 0.26403 0.0
C870 C 0.78452 0.78863 0.25716 0.0
C871 C 0.7686 0.8051 0.26762 0.0
H872 H 0.21321 0.09487 0.23562 0.0
H873 H 0.27529 0.07212 0.16057 0.0
H874 H 0.19375 0.04619 0.28025 0.0
H875 H 0.25506 0.02292 0.20342 0.0
H876 H 0.2397 0.95497 0.3196 0.0
H877 H 0.25852 1.00447 0.27703 0.0
H878 H 0.16359 0.99077 0.27949 0.0
H879 H 0.14539 0.94274 0.32338 0.0
C880 C 0.22192 0.07894 0.22773 0.0
C881 C 0.24564 0.08717 0.19462 0.0
C882 C 0.21094 0.05108 0.25342 0.0
C883 C 0.22318 0.03071 0.24602 0.0
C884 C 0.24574 0.03836 0.21112 0.0
C885 C 0.25698 0.06634 0.18601 0.0
C886 C 0.22306 0.96285 0.31155 0.0
C887 C 0.19111 0.94486 0.32505 0.0
C888 C 0.23369 0.99104 0.28669 0.0
C889 C 0.21251 1.00162 0.27439 0.0
C890 C 0.18075 0.98381 0.28876 0.0
C891 C 0.17028 0.956 0.3139 0.0
H892 H 0.09055 0.27307 0.29543 0.0
H893 H 0.11564 0.36789 0.25467 0.0
H894 H 0.03563 0.25379 0.27214 0.0
H895 H 0.06111 0.34852 0.22958 0.0
H896 H 0.95349 0.30929 0.22561 0.0
H897 H 1.00815 0.32938 0.25188 0.0
H898 H 1.00234 0.24204 0.20837 0.0
H899 H 0.94765 0.22172 0.18407 0.0
C900 C 0.08442 0.2898 0.2812 0.0
C901 C 0.10765 0.32205 0.27697 0.0
C902 C 0.05284 0.27871 0.26747 0.0
C903 C 0.04359 0.29946 0.24857 0.0
C904 C 0.06693 0.33177 0.24453 0.0
C905 C 0.09841 0.3429 0.2587 0.0
C906 C 0.96395 0.29444 0.22164 0.0
C907 C 0.94602 0.26383 0.20285 0.0
C908 C 0.99544 0.30601 0.23654 0.0
C909 C 1.00997 0.28738 0.23263 0.0
C910 C 0.99203 0.25695 0.2131 0.0
C911 C 0.96056 0.24532 0.19871 0.0
H912 H 0.29133 0.2018 0.66289 0.0
H913 H 0.37934 0.2689 0.72985 0.0
H914 H 0.26672 0.23143 0.68887 0.0
H915 H 0.3542 0.29852 0.7571 0.0
H916 H 0.30379 0.35777 0.76141 0.0
H917 H 0.33166 0.33117 0.73414 0.0
H918 H 0.2476 0.24026 0.75947 0.0
H919 H 0.21954 0.26678 0.78554 0.0
C920 C 0.3055 0.22297 0.68322 0.0
C921 C 0.33727 0.23283 0.69461 0.0
C922 C 0.29124 0.23986 0.69845 0.0
C923 C 0.30822 0.26704 0.72587 0.0
C924 C 0.34043 0.2777 0.73596 0.0
C925 C 0.35486 0.26076 0.72039 0.0
C926 C 0.29125 0.33209 0.7612 0.0
C927 C 0.25929 0.31441 0.77535 0.0
C928 C 0.30734 0.31685 0.7458 0.0
C929 C 0.29185 0.28356 0.7442 0.0
C930 C 0.2601 0.26594 0.7593 0.0
C931 C 0.24401 0.28115 0.77452 0.0
H932 H 0.87931 0.08566 0.71022 0.0
H933 H 0.79085 0.07359 0.65747 0.0
H934 H 0.85059 0.0309 0.73968 0.0
H935 H 0.76271 0.01952 0.68546 0.0
H936 H 0.71358 0.9436 0.78923 0.0
H937 H 0.74777 0.99699 0.761 0.0
H938 H 0.81793 0.97247 0.72087 0.0
H939 H 0.78351 0.91844 0.75048 0.0
C940 C 0.85393 0.07119 0.70417 0.0
C941 C 0.8373 0.08414 0.6821 0.0
C942 C 0.83747 0.03986 0.72105 0.0
C943 C 0.80416 0.021 0.71597 0.0
C944 C 0.78814 0.03356 0.69138 0.0
C945 C 0.80437 0.06462 0.675 0.0
C946 C 0.73635 0.94947 0.77469 0.0
C947 C 0.74555 0.92651 0.77165 0.0
C948 C 0.75596 0.98016 0.75818 0.0
C949 C 0.78535 0.98894 0.73758 0.0
C950 C 0.79541 0.9665 0.7364 0.0
C951 C 0.77568 0.93555 0.75331 0.0
H952 H 0.10539 0.77081 0.80959 0.0
H953 H 0.06666 0.82678 0.86243 0.0
H954 H 0.05327 0.73323 0.7766 0.0
H955 H 1.0149 0.78922 0.83078 0.0
H956 H 0.93584 0.73791 0.72736 0.0
H957 H 0.98881 0.77365 0.75817 0.0
H958 H 0.99899 0.69333 0.79376 0.0
H959 H 0.94638 0.65764 0.76177 0.0
C960 C 0.0857 0.77485 0.81476 0.0
C961 C 0.09031 0.80192 0.83842 0.0
C962 C 0.0558 0.75332 0.79586 0.0
C963 C 0.02986 0.75838 0.80037 0.0
C964 C 0.0344 0.78491 0.82545 0.0
C965 C 0.06414 0.80637 0.84403 0.0
C966 C 0.94941 0.72786 0.74153 0.0
C967 C 0.9367 0.69486 0.7422 0.0
C968 C 0.97977 0.74836 0.75954 0.0
C969 C 0.9982 0.73644 0.77899 0.0
C970 C 0.98571 0.70344 0.77878 0.0
C971 C 0.95538 0.68293 0.7606 0.0
loop_
_geom_bond_atom_site_label_1
_geom_bond_atom_site_label_2
_geom_bond_distance
_geom_bond_site_symmetry_2
_ccdc_geom_bond_type
C0 O2 1.247 1_655 S
C0 O4 1.258 . S
C1 O8 1.247 1_455 S
C1 O9 1.258 . S
O2 C0 1.247 1_455 S
O2 Zn3 2.024 1_556 S
Zn3 O2 2.024 1_554 S
Zn3 O7 2.027 1_455 S
Zn3 O9 2.039 . S
Zn3 O10 2.027 1_554 S
O4 C0 1.258 . S
O4 Zn5 2.015 1_556 S
Zn5 O4 2.015 1_554 S
Zn5 O6 2.031 . S
Zn5 O8 2.048 . S
Zn5 O11 2.014 1_654 S
O6 Zn5 2.031 . S
O6 C12 1.247 . S
O7 Zn3 2.027 1_655 S
O7 C12 1.266 . S
O8 C1 1.247 1_655 S
O8 Zn5 2.048 . S
O9 C1 1.258 . S
O9 Zn3 2.039 . S
O10 Zn3 2.027 1_556 S
O10 C13 1.247 . S
O11 Zn5 2.014 1_456 S
O11 C13 1.274 . S
C12 O6 1.247 . S
C12 O7 1.266 . S
C13 O10 1.247 . S
C13 O11 1.274 . S
C14 O16 1.247 . S
C14 O18 1.258 . S
C15 O22 1.247 . S
C15 O23 1.258 . S
O16 C14 1.247 . S
O16 Zn17 2.048 . S
Zn17 O16 2.048 . S
Zn17 O21 2.032 1_554 S
Zn17 O23 2.015 1_554 S
Zn17 O24 2.031 . S
O18 C14 1.258 . S
O18 Zn19 2.038 . S
Zn19 O18 2.038 . S
Zn19 O20 2.027 1_554 S
Zn19 O22 2.025 1_554 S
Zn19 O25 2.036 . S
O20 Zn19 2.027 1_556 S
O20 C26 1.247 . S
O21 Zn17 2.032 1_556 S
O21 C26 1.258 . S
O22 C15 1.247 . S
O22 Zn19 2.025 1_556 S
O23 C15 1.258 . S
O23 Zn17 2.015 1_556 S
O24 Zn17 2.031 . S
O24 C27 1.247 . S
O25 Zn19 2.036 . S
O25 C27 1.258 . S
C26 O20 1.247 . S
C26 O21 1.258 . S
C27 O24 1.247 . S
C27 O25 1.258 . S
C28 O30 1.247 . S
C28 O32 1.258 1_565 S
C29 O36 1.247 . S
C29 O37 1.258 1_545 S
O30 C28 1.247 . S
O30 Zn31 2.047 . S
Zn31 O30 2.047 . S
Zn31 O35 2.032 1_554 S
Zn31 O37 2.016 1_554 S
Zn31 O38 2.031 1_565 S
O32 C28 1.258 1_545 S
O32 Zn33 2.038 . S
Zn33 O32 2.038 . S
Zn33 O34 2.029 1_554 S
Zn33 O36 2.025 1_554 S
Zn33 O39 2.036 . S
O34 Zn33 2.029 1_556 S
O34 C40 1.237 1_545 S
O35 Zn31 2.032 1_556 S
O35 C40 1.258 . S
O36 C29 1.247 . S
O36 Zn33 2.025 1_556 S
O37 C29 1.258 1_565 S
O37 Zn31 2.016 1_556 S
O38 Zn31 2.031 1_545 S
O38 C41 1.247 . S
O39 Zn33 2.036 . S
O39 C41 1.258 . S
C40 O34 1.237 1_565 S
C40 O35 1.258 . S
C41 O38 1.247 . S
C41 O39 1.258 . S
C42 O44 1.247 1_565 S
C42 O46 1.258 . S
C43 O50 1.247 1_545 S
C43 O51 1.258 . S
O44 C42 1.247 1_545 S
O44 Zn45 2.028 . S
Zn45 O44 2.028 . S
Zn45 O49 2.049 . S
Zn45 O51 2.035 . S
Zn45 O52 2.028 . S
O46 C42 1.258 . S
O46 Zn47 2.035 . S
Zn47 O46 2.035 . S
Zn47 O48 2.028 . S
Zn47 O50 2.028 . S
Zn47 O53 2.035 1_565 S
O48 Zn47 2.028 . S
O48 C54 1.247 . S
O49 Zn45 2.049 . S
O49 C54 1.246 1_545 S
O50 C43 1.247 1_565 S
O50 Zn47 2.028 . S
O51 C43 1.258 . S
O51 Zn45 2.035 . S
O52 Zn45 2.028 . S
O52 C55 1.247 . S
O53 Zn47 2.035 1_545 S
O53 C55 1.258 . S
C54 O48 1.247 . S
C54 O49 1.246 1_565 S
C55 O52 1.247 . S
C55 O53 1.258 . S
C56 O58 1.247 1_455 S
C56 O60 1.258 . S
C57 O64 1.247 1_655 S
C57 O65 1.258 . S
O58 C56 1.247 1_655 S
O58 Zn59 2.028 . S
Zn59 O58 2.028 . S
Zn59 O63 2.032 1_655 S
Zn59 O65 2.035 . S
Zn59 O66 2.028 . S
O60 C56 1.258 . S
O60 Zn61 2.035 . S
Zn61 O60 2.035 . S
Zn61 O62 2.028 . S
Zn61 O64 2.028 . S
Zn61 O67 2.034 1_455 S
O62 Zn61 2.028 . S
O62 C68 1.247 . S
O63 Zn59 2.032 1_455 S
O63 C68 1.275 . S
O64 C57 1.247 1_455 S
O64 Zn61 2.028 . S
O65 C57 1.258 . S
O65 Zn59 2.035 . S
O66 Zn59 2.028 . S
O66 C69 1.247 . S
O67 Zn61 2.034 1_655 S
O67 C69 1.266 . S
C68 O62 1.247 . S
C68 O63 1.275 . S
C69 O66 1.247 . S
C69 O67 1.266 . S
C70 O72 1.247 . S
C70 O74 1.258 . S
C71 O78 1.247 . S
C71 O79 1.258 . S
O72 C70 1.247 . S
O72 Zn73 2.028 . S
Zn73 O72 2.028 . S
Zn73 O77 2.035 . S
Zn73 O79 2.035 . S
Zn73 O80 2.028 . S
O74 C70 1.258 . S
O74 Zn75 2.035 . S
Zn75 O74 2.035 . S
Zn75 O76 2.028 . S
Zn75 O78 2.028 . S
Zn75 O81 2.035 . S
O76 Zn75 2.028 . S
O76 C82 1.247 . S
O77 Zn73 2.035 . S
O77 C82 1.258 . S
O78 C71 1.247 . S
O78 Zn75 2.028 . S
O79 C71 1.258 . S
O79 Zn73 2.035 . S
O80 Zn73 2.028 . S
O80 C83 1.247 . S
O81 Zn75 2.035 . S
O81 C83 1.258 . S
C82 O76 1.247 . S
C82 O77 1.258 . S
C83 O80 1.247 . S
C83 O81 1.258 . S
C84 O86 1.247 . S
C84 O88 1.258 . S
C85 O92 1.247 . S
C85 O93 1.258 . S
O86 C84 1.247 . S
O86 Zn87 2.028 . S
Zn87 O86 2.028 . S
Zn87 O91 2.035 . S
Zn87 O93 2.035 . S
Zn87 O94 2.028 . S
O88 C84 1.258 . S
O88 Zn89 2.035 . S
Zn89 O88 2.035 . S
Zn89 O90 2.028 . S
Zn89 O92 2.028 . S
Zn89 O95 2.035 . S
O90 Zn89 2.028 . S
O90 C96 1.247 . S
O91 Zn87 2.035 . S
O91 C96 1.258 . S
O92 C85 1.247 . S
O92 Zn89 2.028 . S
O93 C85 1.258 . S
O93 Zn87 2.035 . S
O94 Zn87 2.028 . S
O94 C97 1.247 . S
O95 Zn89 2.035 . S
O95 C97 1.258 . S
C96 O90 1.247 . S
C96 O91 1.258 . S
C97 O94 1.247 . S
C97 O95 1.258 . S
C98 O100 1.247 . S
C98 O102 1.258 . S
C99 O106 1.247 . S
C99 O107 1.258 . S
O100 C98 1.247 . S
O100 Zn101 2.028 . S
Zn101 O100 2.028 . S
Zn101 O105 2.035 . S
Zn101 O107 2.035 . S
Zn101 O108 2.028 . S
O102 C98 1.258 . S
O102 Zn103 2.035 . S
Zn103 O102 2.035 . S
Zn103 O104 2.028 . S
Zn103 O106 2.028 . S
Zn103 O109 2.035 . S
O104 Zn103 2.028 . S
O104 C110 1.247 . S
O105 Zn101 2.035 . S
O105 C110 1.258 . S
O106 C99 1.247 . S
O106 Zn103 2.028 . S
O107 C99 1.258 . S
O107 Zn101 2.035 . S
O108 Zn101 2.028 . S
O108 C111 1.247 . S
O109 Zn103 2.035 . S
O109 C111 1.258 . S
C110 O104 1.247 . S
C110 O105 1.258 . S
C111 O108 1.247 . S
C111 O109 1.258 . S
C112 O114 1.247 . S
C112 O116 1.258 . S
C113 O120 1.247 . S
C113 O121 1.258 . S
O114 C112 1.247 . S
O114 Zn115 2.028 . S
Zn115 O114 2.028 . S
Zn115 O119 2.035 . S
Zn115 O121 2.035 . S
Zn115 O122 2.028 . S
O116 C112 1.258 . S
O116 Zn117 2.035 . S
Zn117 O116 2.035 . S
Zn117 O118 2.028 . S
Zn117 O120 2.028 . S
Zn117 O123 2.035 . S
O118 Zn117 2.028 . S
O118 C124 1.247 . S
O119 Zn115 2.035 . S
O119 C124 1.258 . S
O120 C113 1.247 . S
O120 Zn117 2.028 . S
O121 C113 1.258 . S
O121 Zn115 2.035 . S
O122 Zn115 2.028 . S
O122 C125 1.247 . S
O123 Zn117 2.035 . S
O123 C125 1.258 . S
C124 O118 1.247 . S
C124 O119 1.258 . S
C125 O122 1.247 . S
C125 O123 1.258 . S
C126 O128 1.247 . S
C126 O130 1.258 . S
C127 O134 1.247 . S
C127 O135 1.258 . S
O128 C126 1.247 . S
O128 Zn129 2.028 . S
Zn129 O128 2.028 . S
Zn129 O133 2.035 . S
Zn129 O135 2.035 . S
Zn129 O136 2.028 . S
O130 C126 1.258 . S
O130 Zn131 2.035 . S
Zn131 O130 2.035 . S
Zn131 O132 2.028 . S
Zn131 O134 2.028 . S
Zn131 O137 2.035 . S
O132 Zn131 2.028 . S
O132 C138 1.247 . S
O133 Zn129 2.035 . S
O133 C138 1.258 . S
O134 C127 1.247 . S
O134 Zn131 2.028 . S
O135 C127 1.258 . S
O135 Zn129 2.035 . S
O136 Zn129 2.028 . S
O136 C139 1.247 . S
O137 Zn131 2.035 . S
O137 C139 1.258 . S
C138 O132 1.247 . S
C138 O133 1.258 . S
C139 O136 1.247 . S
C139 O137 1.258 . S
C140 O142 1.247 . S
C140 O144 1.258 . S
C141 O148 1.247 . S
C141 O149 1.258 . S
O142 C140 1.247 . S
O142 Zn143 2.028 . S
Zn143 O142 2.028 . S
Zn143 O147 2.035 . S
Zn143 O149 2.035 . S
Zn143 O150 2.028 . S
O144 C140 1.258 . S
O144 Zn145 2.035 . S
Zn145 O144 2.035 . S
Zn145 O146 2.028 . S
Zn145 O148 2.028 . S
Zn145 O151 2.035 . S
O146 Zn145 2.028 . S
O146 C152 1.247 . S
O147 Zn143 2.035 . S
O147 C152 1.258 . S
O148 C141 1.247 . S
O148 Zn145 2.028 . S
O149 C141 1.258 . S
O149 Zn143 2.035 . S
O150 Zn143 2.028 . S
O150 C153 1.247 . S
O151 Zn145 2.035 . S
O151 C153 1.258 . S
C152 O146 1.247 . S
C152 O147 1.258 . S
C153 O150 1.247 . S
C153 O151 1.258 . S
C154 O156 1.247 . S
C154 O158 1.258 . S
C155 O162 1.247 . S
C155 O163 1.258 . S
O156 C154 1.247 . S
O156 Zn157 2.028 . S
Zn157 O156 2.028 . S
Zn157 O161 2.035 . S
Zn157 O163 2.035 . S
Zn157 O164 2.028 . S
O158 C154 1.258 . S
O158 Zn159 2.035 . S
Zn159 O158 2.035 . S
Zn159 O160 2.028 . S
Zn159 O162 2.028 . S
Zn159 O165 2.035 . S
O160 Zn159 2.028 . S
O160 C166 1.247 . S
O161 Zn157 2.035 . S
O161 C166 1.258 . S
O162 C155 1.247 . S
O162 Zn159 2.028 . S
O163 C155 1.258 . S
O163 Zn157 2.035 . S
O164 Zn157 2.028 . S
O164 C167 1.247 . S
O165 Zn159 2.035 . S
O165 C167 1.258 . S
C166 O160 1.247 . S
C166 O161 1.258 . S
C167 O164 1.247 . S
C167 O165 1.258 . S
C168 O170 1.247 . S
C168 O172 1.258 . S
C169 O176 1.247 . S
C169 O177 1.258 . S
O170 C168 1.247 . S
O170 Zn171 2.028 . S
Zn171 O170 2.028 . S
Zn171 O175 2.035 . S
Zn171 O177 2.035 . S
Zn171 O178 2.028 . S
O172 C168 1.258 . S
O172 Zn173 2.035 . S
Zn173 O172 2.035 . S
Zn173 O174 2.028 . S
Zn173 O176 2.028 . S
Zn173 O179 2.035 . S
O174 Zn173 2.028 . S
O174 C180 1.247 . S
O175 Zn171 2.035 . S
O175 C180 1.258 . S
O176 C169 1.247 . S
O176 Zn173 2.028 . S
O177 C169 1.258 . S
O177 Zn171 2.035 . S
O178 Zn171 2.028 . S
O178 C181 1.247 . S
O179 Zn173 2.035 . S
O179 C181 1.258 . S
C180 O174 1.247 . S
C180 O175 1.258 . S
C181 O178 1.247 . S
C181 O179 1.258 . S
C182 O184 1.247 . S
C182 O186 1.258 . S
C183 O190 1.247 . S
C183 O191 1.258 . S
O184 C182 1.247 . S
O184 Zn185 2.028 . S
Zn185 O184 2.028 . S
Zn185 O189 2.035 . S
Zn185 O191 2.035 . S
Zn185 O192 2.028 . S
O186 C182 1.258 . S
O186 Zn187 2.035 . S
Zn187 O186 2.035 . S
Zn187 O188 2.028 . S
Zn187 O190 2.028 . S
Zn187 O193 2.035 . S
O188 Zn187 2.028 . S
O188 C194 1.247 . S
O189 Zn185 2.035 . S
O189 C194 1.258 . S
O190 C183 1.247 . S
O190 Zn187 2.028 . S
O191 C183 1.258 . S
O191 Zn185 2.035 . S
O192 Zn185 2.028 . S
O192 C195 1.247 . S
O193 Zn187 2.035 . S
O193 C195 1.258 . S
C194 O188 1.247 . S
C194 O189 1.258 . S
C195 O192 1.247 . S
C195 O193 1.258 . S
C196 O198 1.247 . S
C196 O200 1.258 . S
C197 O204 1.247 . S
C197 O205 1.258 . S
O198 C196 1.247 . S
O198 Zn199 2.028 . S
Zn199 O198 2.028 . S
Zn199 O203 2.035 . S
Zn199 O205 2.035 . S
Zn199 O206 2.028 . S
O200 C196 1.258 . S
O200 Zn201 2.035 . S
Zn201 O200 2.035 . S
Zn201 O202 2.028 . S
Zn201 O204 2.028 . S
Zn201 O207 2.035 . S
O202 Zn201 2.028 . S
O202 C208 1.247 . S
O203 Zn199 2.035 . S
O203 C208 1.258 . S
O204 C197 1.247 . S
O204 Zn201 2.028 . S
O205 C197 1.258 . S
O205 Zn199 2.035 . S
O206 Zn199 2.028 . S
O206 C209 1.247 . S
O207 Zn201 2.035 . S
O207 C209 1.258 . S
C208 O202 1.247 . S
C208 O203 1.258 . S
C209 O206 1.247 . S
C209 O207 1.258 . S
C210 O212 1.247 . S
C210 O214 1.258 . S
C211 O218 1.247 . S
C211 O219 1.258 . S
O212 C210 1.247 . S
O212 Zn213 2.028 . S
Zn213 O212 2.028 . S
Zn213 O217 2.035 . S
Zn213 O219 2.035 . S
Zn213 O220 2.028 . S
O214 C210 1.258 . S
O214 Zn215 2.035 . S
Zn215 O214 2.035 . S
Zn215 O216 2.028 . S
Zn215 O218 2.028 . S
Zn215 O221 2.035 . S
O216 Zn215 2.028 . S
O216 C222 1.247 . S
O217 Zn213 2.035 . S
O217 C222 1.258 . S
O218 C211 1.247 . S
O218 Zn215 2.028 . S
O219 C211 1.258 . S
O219 Zn213 2.035 . S
O220 Zn213 2.028 . S
O220 C223 1.247 . S
O221 Zn215 2.035 . S
O221 C223 1.258 . S
C222 O216 1.247 . S
C222 O217 1.258 . S
C223 O220 1.247 . S
C223 O221 1.258 . S
C224 O226 1.247 . S
C224 O228 1.258 . S
C225 O232 1.247 . S
C225 O233 1.258 . S
O226 C224 1.247 . S
O226 Zn227 2.028 . S
Zn227 O226 2.028 . S
Zn227 O231 2.035 . S
Zn227 O233 2.035 . S
Zn227 O234 2.028 . S
O228 C224 1.258 . S
O228 Zn229 2.035 . S
Zn229 O228 2.035 . S
Zn229 O230 2.028 . S
Zn229 O232 2.028 . S
Zn229 O235 2.035 . S
O230 Zn229 2.028 . S
O230 C236 1.247 . S
O231 Zn227 2.035 . S
O231 C236 1.258 . S
O232 C225 1.247 . S
O232 Zn229 2.028 . S
O233 C225 1.258 . S
O233 Zn227 2.035 . S
O234 Zn227 2.028 . S
O234 C237 1.247 . S
O235 Zn229 2.035 . S
O235 C237 1.258 . S
C236 O230 1.247 . S
C236 O231 1.258 . S
C237 O234 1.247 . S
C237 O235 1.258 . S
C238 O240 1.247 . S
C238 O242 1.258 . S
C239 O246 1.247 . S
C239 O247 1.258 . S
O240 C238 1.247 . S
O240 Zn241 2.028 . S
Zn241 O240 2.028 . S
Zn241 O245 2.035 . S
Zn241 O247 2.035 . S
Zn241 O248 2.028 . S
O242 C238 1.258 . S
O242 Zn243 2.035 . S
Zn243 O242 2.035 . S
Zn243 O244 2.028 . S
Zn243 O246 2.028 . S
Zn243 O249 2.035 . S
O244 Zn243 2.028 . S
O244 C250 1.247 . S
O245 Zn241 2.035 . S
O245 C250 1.258 . S
O246 C239 1.247 . S
O246 Zn243 2.028 . S
O247 C239 1.258 . S
O247 Zn241 2.035 . S
O248 Zn241 2.028 . S
O248 C251 1.247 . S
O249 Zn243 2.035 . S
O249 C251 1.258 . S
C250 O244 1.247 . S
C250 O245 1.258 . S
C251 O248 1.247 . S
C251 O249 1.258 . S
H252 C260 0.950 . S
H253 C265 0.950 . S
H254 C262 0.950 . S
H255 C264 0.950 . S
H256 C266 0.950 . S
H257 C268 0.950 . S
H258 C270 0.950 . S
H259 C271 0.950 . S
C260 H252 0.950 . S
C260 C261 1.386 1_455 S
C260 C262 1.391 . S
C261 C260 1.386 1_655 S
C261 C265 1.393 . S
C262 H254 0.950 . S
C262 C260 1.391 . S
C262 C263 1.376 1_455 S
C263 C262 1.376 1_655 S
C263 C264 1.424 . S
C263 C269 1.491 1_655 S
C264 H255 0.950 . S
C264 C263 1.424 . S
C264 C265 1.391 . S
C265 H253 0.950 . S
C265 C261 1.393 . S
C265 C264 1.391 . S
C266 H256 0.950 . S
C266 C267 1.386 1_655 S
C266 C268 1.391 . S
C267 C266 1.386 1_455 S
C267 C271 1.393 . S
C268 H257 0.950 . S
C268 C266 1.391 . S
C268 C269 1.368 1_655 S
C269 C263 1.491 1_455 S
C269 C268 1.368 1_455 S
C269 C270 1.432 . S
C270 H258 0.950 . S
C270 C269 1.432 . S
C270 C271 1.391 . S
C271 H259 0.950 . S
C271 C267 1.393 . S
C271 C270 1.391 . S
H272 C280 0.950 . S
H273 C285 0.950 . S
H274 C282 0.950 . S
H275 C284 0.950 . S
H276 C286 0.950 . S
H277 C288 0.950 . S
H278 C290 0.950 . S
H279 C291 0.950 . S
C280 H272 0.950 . S
C280 C281 1.386 . S
C280 C282 1.391 . S
C281 C280 1.386 . S
C281 C285 1.393 . S
C282 H274 0.950 . S
C282 C280 1.391 . S
C282 C283 1.400 . S
C283 C282 1.400 . S
C283 C284 1.398 . S
C283 C289 1.491 . S
C284 H275 0.950 . S
C284 C283 1.398 . S
C284 C285 1.391 . S
C285 H273 0.950 . S
C285 C281 1.393 . S
C285 C284 1.391 . S
C286 H276 0.950 . S
C286 C287 1.386 . S
C286 C288 1.391 . S
C287 C286 1.386 . S
C287 C291 1.393 . S
C288 H277 0.950 . S
C288 C286 1.391 . S
C288 C289 1.400 . S
C289 C283 1.491 . S
C289 C288 1.400 . S
C289 C290 1.398 . S
C290 H278 0.950 . S
C290 C289 1.398 . S
C290 C291 1.391 . S
C291 H279 0.950 . S
C291 C287 1.393 . S
C291 C290 1.391 . S
H292 C300 0.950 . S
H293 C305 0.950 . S
H294 C302 0.950 . S
H295 C304 0.950 . S
H296 C306 0.950 . S
H297 C308 0.950 . S
H298 C310 0.950 . S
H299 C311 0.950 . S
C300 H292 0.950 . S
C300 C301 1.386 1_545 S
C300 C302 1.391 . S
C301 C300 1.386 1_565 S
C301 C305 1.393 . S
C302 H294 0.950 . S
C302 C300 1.391 . S
C302 C303 1.391 1_545 S
C303 C302 1.391 1_565 S
C303 C304 1.408 . S
C303 C309 1.490 1_565 S
C304 H295 0.950 . S
C304 C303 1.408 . S
C304 C305 1.391 . S
C305 H293 0.950 . S
C305 C301 1.393 . S
C305 C304 1.391 . S
C306 H296 0.950 . S
C306 C307 1.386 1_565 S
C306 C308 1.391 . S
C307 C306 1.386 1_545 S
C307 C311 1.393 . S
C308 H297 0.950 . S
C308 C306 1.391 . S
C308 C309 1.400 1_565 S
C309 C303 1.490 1_545 S
C309 C308 1.400 1_545 S
C309 C310 1.398 . S
C310 H298 0.950 . S
C310 C309 1.398 . S
C310 C311 1.391 . S
C311 H299 0.950 . S
C311 C307 1.393 . S
C311 C310 1.391 . S
H312 C320 0.950 . S
H313 C325 0.950 . S
H314 C322 0.950 . S
H315 C324 0.950 . S
H316 C326 0.950 . S
H317 C328 0.950 . S
H318 C330 0.950 . S
H319 C331 0.950 . S
C320 H312 0.950 . S
C320 C321 1.386 . S
C320 C322 1.391 . S
C321 C320 1.386 . S
C321 C325 1.393 1_455 S
C322 H314 0.950 . S
C322 C320 1.391 . S
C322 C323 1.400 . S
C323 C322 1.400 . S
C323 C324 1.398 1_455 S
C323 C329 1.489 1_455 S
C324 H315 0.950 . S
C324 C323 1.398 1_655 S
C324 C325 1.391 . S
C325 H313 0.950 . S
C325 C321 1.393 1_655 S
C325 C324 1.391 . S
C326 H316 0.950 . S
C326 C327 1.386 . S
C326 C328 1.391 . S
C327 C326 1.386 . S
C327 C331 1.393 1_655 S
C328 H317 0.950 . S
C328 C326 1.391 . S
C328 C329 1.437 . S
C329 C323 1.489 1_655 S
C329 C328 1.437 . S
C329 C330 1.364 1_655 S
C330 H318 0.950 . S
C330 C329 1.364 1_455 S
C330 C331 1.391 . S
C331 H319 0.950 . S
C331 C327 1.393 1_455 S
C331 C330 1.391 . S
H332 C340 0.950 . S
H333 C345 0.950 . S
H334 C342 0.950 . S
H335 C344 0.950 . S
H336 C346 0.950 . S
H337 C348 0.950 . S
H338 C350 0.950 . S
H339 C351 0.950 . S
C340 H332 0.950 . S
C340 C341 1.386 . S
C340 C342 1.391 . S
C341 C340 1.386 . S
C341 C345 1.393 . S
C342 H334 0.950 . S
C342 C340 1.391 . S
C342 C343 1.400 . S
C343 C342 1.400 . S
C343 C344 1.398 . S
C343 C349 1.491 . S
C344 H335 0.950 . S
C344 C343 1.398 . S
C344 C345 1.391 . S
C345 H333 0.950 . S
C345 C341 1.393 . S
C345 C344 1.391 . S
C346 H336 0.950 . S
C346 C347 1.386 . S
C346 C348 1.391 . S
C347 C346 1.386 . S
C347 C351 1.393 . S
C348 H337 0.950 . S
C348 C346 1.391 . S
C348 C349 1.400 . S
C349 C343 1.491 . S
C349 C348 1.400 . S
C349 C350 1.398 . S
C350 H338 0.950 . S
C350 C349 1.398 . S
C350 C351 1.391 . S
C351 H339 0.950 . S
C351 C347 1.393 . S
C351 C350 1.391 . S
H352 C360 0.950 . S
H353 C365 0.950 . S
H354 C362 0.950 . S
H355 C364 0.950 . S
H356 C366 0.950 . S
H357 C368 0.950 . S
H358 C370 0.950 . S
H359 C371 0.950 . S
C360 H352 0.950 . S
C360 C361 1.386 . S
C360 C362 1.391 . S
C361 C360 1.386 . S
C361 C365 1.393 1_545 S
C362 H354 0.950 . S
C362 C360 1.391 . S
C362 C363 1.400 . S
C363 C362 1.400 . S
C363 C364 1.398 1_545 S
C363 C369 1.491 . S
C364 H355 0.950 . S
C364 C363 1.398 1_565 S
C364 C365 1.391 . S
C365 H353 0.950 . S
C365 C361 1.393 1_565 S
C365 C364 1.391 . S
C366 H356 0.950 . S
C366 C367 1.386 . S
C366 C368 1.391 . S
C367 C366 1.386 . S
C367 C371 1.393 1_565 S
C368 H357 0.950 . S
C368 C366 1.391 . S
C368 C369 1.396 1_565 S
C369 C363 1.491 . S
C369 C368 1.396 1_545 S
C369 C370 1.402 . S
C370 H358 0.950 . S
C370 C369 1.402 . S
C370 C371 1.391 . S
C371 H359 0.950 . S
C371 C367 1.393 1_545 S
C371 C370 1.391 . S
H372 C380 0.950 . S
H373 C385 0.950 . S
H374 C382 0.950 . S
H375 C384 0.950 . S
H376 C386 0.950 . S
H377 C388 0.950 . S
H378 C390 0.950 . S
H379 C391 0.950 . S
C380 H372 0.950 . S
C380 C381 1.386 . S
C380 C382 1.391 . S
C381 C380 1.386 . S
C381 C385 1.393 . S
C382 H374 0.950 . S
C382 C380 1.391 . S
C382 C383 1.400 . S
C383 C382 1.400 . S
C383 C384 1.398 . S
C383 C389 1.491 . S
C384 H375 0.950 . S
C384 C383 1.398 . S
C384 C385 1.391 . S
C385 H373 0.950 . S
C385 C381 1.393 . S
C385 C384 1.391 . S
C386 H376 0.950 . S
C386 C387 1.386 . S
C386 C388 1.391 . S
C387 C386 1.386 . S
C387 C391 1.393 . S
C388 H377 0.950 . S
C388 C386 1.391 . S
C388 C389 1.400 . S
C389 C383 1.491 . S
C389 C388 1.400 . S
C389 C390 1.398 . S
C390 H378 0.950 . S
C390 C389 1.398 . S
C390 C391 1.391 . S
C391 H379 0.950 . S
C391 C387 1.393 . S
C391 C390 1.391 . S
H392 C400 0.950 . S
H393 C405 0.950 . S
H394 C402 0.950 . S
H395 C404 0.950 . S
H396 C406 0.950 . S
H397 C408 0.950 . S
H398 C410 0.950 . S
H399 C411 0.950 . S
C400 H392 0.950 . S
C400 C401 1.386 . S
C400 C402 1.391 . S
C401 C400 1.386 . S
C401 C405 1.393 . S
C402 H394 0.950 . S
C402 C400 1.391 . S
C402 C403 1.400 . S
C403 C402 1.400 . S
C403 C404 1.398 . S
C403 C409 1.491 . S
C404 H395 0.950 . S
C404 C403 1.398 . S
C404 C405 1.391 . S
C405 H393 0.950 . S
C405 C401 1.393 . S
C405 C404 1.391 . S
C406 H396 0.950 . S
C406 C407 1.386 . S
C406 C408 1.391 . S
C407 C406 1.386 . S
C407 C411 1.393 . S
C408 H397 0.950 . S
C408 C406 1.391 . S
C408 C409 1.400 . S
C409 C403 1.491 . S
C409 C408 1.400 . S
C409 C410 1.398 . S
C410 H398 0.950 . S
C410 C409 1.398 . S
C410 C411 1.391 . S
C411 H399 0.950 . S
C411 C407 1.393 . S
C411 C410 1.391 . S
H412 C420 0.950 . S
H413 C425 0.950 . S
H414 C422 0.950 . S
H415 C424 0.950 . S
H416 C426 0.950 . S
H417 C428 0.950 . S
H418 C430 0.950 . S
H419 C431 0.950 . S
C420 H412 0.950 . S
C420 C421 1.386 . S
C420 C422 1.391 . S
C421 C420 1.386 . S
C421 C425 1.393 . S
C422 H414 0.950 . S
C422 C420 1.391 . S
C422 C423 1.400 . S
C423 C422 1.400 . S
C423 C424 1.398 . S
C423 C429 1.491 . S
C424 H415 0.950 . S
C424 C423 1.398 . S
C424 C425 1.391 . S
C425 H413 0.950 . S
C425 C421 1.393 . S
C425 C424 1.391 . S
C426 H416 0.950 . S
C426 C427 1.386 . S
C426 C428 1.391 . S
C427 C426 1.386 . S
C427 C431 1.393 . S
C428 H417 0.950 . S
C428 C426 1.391 . S
C428 C429 1.400 . S
C429 C423 1.491 . S
C429 C428 1.400 . S
C429 C430 1.398 . S
C430 H418 0.950 . S
C430 C429 1.398 . S
C430 C431 1.391 . S
C431 H419 0.950 . S
C431 C427 1.393 . S
C431 C430 1.391 . S
H432 C440 0.950 . S
H433 C445 0.950 . S
H434 C442 0.950 . S
H435 C444 0.950 . S
H436 C446 0.950 . S
H437 C448 0.950 . S
H438 C450 0.950 . S
H439 C451 0.950 . S
C440 H432 0.950 . S
C440 C441 1.386 . S
C440 C442 1.391 . S
C441 C440 1.386 . S
C441 C445 1.393 . S
C442 H434 0.950 . S
C442 C440 1.391 . S
C442 C443 1.400 . S
C443 C442 1.400 . S
C443 C444 1.398 . S
C443 C449 1.491 . S
C444 H435 0.950 . S
C444 C443 1.398 . S
C444 C445 1.391 . S
C445 H433 0.950 . S
C445 C441 1.393 . S
C445 C444 1.391 . S
C446 H436 0.950 . S
C446 C447 1.386 . S
C446 C448 1.391 1_556 S
C447 C446 1.386 . S
C447 C451 1.393 . S
C448 H437 0.950 . S
C448 C446 1.391 1_554 S
C448 C449 1.400 . S
C449 C443 1.491 . S
C449 C448 1.400 . S
C449 C450 1.398 . S
C450 H438 0.950 . S
C450 C449 1.398 . S
C450 C451 1.391 1_554 S
C451 H439 0.950 . S
C451 C447 1.393 . S
C451 C450 1.391 1_556 S
H452 C460 0.950 . S
H453 C465 0.950 . S
H454 C462 0.950 . S
H455 C464 0.950 . S
H456 C466 0.950 . S
H457 C468 0.950 . S
H458 C470 0.950 . S
H459 C471 0.950 . S
C460 H452 0.950 . S
C460 C461 1.386 . S
C460 C462 1.391 1_556 S
C461 C460 1.386 . S
C461 C465 1.393 . S
C462 H454 0.950 . S
C462 C460 1.391 1_554 S
C462 C463 1.400 . S
C463 C462 1.400 . S
C463 C464 1.398 . S
C463 C469 1.491 . S
C464 H455 0.950 . S
C464 C463 1.398 . S
C464 C465 1.391 1_554 S
C465 H453 0.950 . S
C465 C461 1.393 . S
C465 C464 1.391 1_556 S
C466 H456 0.950 . S
C466 C467 1.386 . S
C466 C468 1.391 . S
C467 C466 1.386 . S
C467 C471 1.393 . S
C468 H457 0.950 . S
C468 C466 1.391 . S
C468 C469 1.400 . S
C469 C463 1.491 . S
C469 C468 1.400 . S
C469 C470 1.398 . S
C470 H458 0.950 . S
C470 C469 1.398 . S
C470 C471 1.391 . S
C471 H459 0.950 . S
C471 C467 1.393 . S
C471 C470 1.391 . S
H472 C480 0.950 . S
H473 C485 0.950 . S
H474 C482 0.950 . S
H475 C484 0.950 . S
H476 C486 0.950 . S
H477 C488 0.950 . S
H478 C490 0.950 . S
H479 C491 0.950 . S
C480 H472 0.950 . S
C480 C481 1.386 . S
C480 C482 1.391 1_556 S
C481 C480 1.386 . S
C481 C485 1.393 . S
C482 H474 0.950 . S
C482 C480 1.391 1_554 S
C482 C483 1.400 . S
C483 C482 1.400 . S
C483 C484 1.398 . S
C483 C489 1.491 . S
C484 H475 0.950 . S
C484 C483 1.398 . S
C484 C485 1.391 1_554 S
C485 H473 0.950 . S
C485 C481 1.393 . S
C485 C484 1.391 1_556 S
C486 H476 0.950 . S
C486 C487 1.386 . S
C486 C488 1.391 . S
C487 C486 1.386 . S
C487 C491 1.393 . S
C488 H477 0.950 . S
C488 C486 1.391 . S
C488 C489 1.400 . S
C489 C483 1.491 . S
C489 C488 1.400 . S
C489 C490 1.398 . S
C490 H478 0.950 . S
C490 C489 1.398 . S
C490 C491 1.391 . S
C491 H479 0.950 . S
C491 C487 1.393 . S
C491 C490 1.391 . S
H492 C500 0.950 . S
H493 C505 0.950 . S
H494 C502 0.950 . S
H495 C504 0.950 . S
H496 C506 0.950 . S
H497 C508 0.950 . S
H498 C510 0.950 . S
H499 C511 0.950 . S
C500 H492 0.950 . S
C500 C501 1.386 . S
C500 C502 1.391 1_554 S
C501 C500 1.386 . S
C501 C505 1.393 . S
C502 H494 0.950 . S
C502 C500 1.391 1_556 S
C502 C503 1.400 . S
C503 C502 1.400 . S
C503 C504 1.398 . S
C503 C509 1.491 . S
C504 H495 0.950 . S
C504 C503 1.398 . S
C504 C505 1.391 1_556 S
C505 H493 0.950 . S
C505 C501 1.393 . S
C505 C504 1.391 1_554 S
C506 H496 0.950 . S
C506 C507 1.386 . S
C506 C508 1.391 . S
C507 C506 1.386 . S
C507 C511 1.393 . S
C508 H497 0.950 . S
C508 C506 1.391 . S
C508 C509 1.400 . S
C509 C503 1.491 . S
C509 C508 1.400 . S
C509 C510 1.398 . S
C510 H498 0.950 . S
C510 C509 1.398 . S
C510 C511 1.391 . S
C511 H499 0.950 . S
C511 C507 1.393 . S
C511 C510 1.391 . S
H512 C520 0.950 . S
H513 C525 0.950 . S
H514 C522 0.950 . S
H515 C524 0.950 . S
H516 C526 0.950 . S
H517 C528 0.950 . S
H518 C530 0.950 . S
H519 C531 0.950 . S
C520 H512 0.950 . S
C520 C521 1.386 . S
C520 C522 1.391 . S
C521 C520 1.386 . S
C521 C525 1.393 . S
C522 H514 0.950 . S
C522 C520 1.391 . S
C522 C523 1.400 . S
C523 C522 1.400 . S
C523 C524 1.398 . S
C523 C529 1.491 . S
C524 H515 0.950 . S
C524 C523 1.398 . S
C524 C525 1.391 . S
C525 H513 0.950 . S
C525 C521 1.393 . S
C525 C524 1.391 . S
C526 H516 0.950 . S
C526 C527 1.386 . S
C526 C528 1.391 1_554 S
C527 C526 1.386 . S
C527 C531 1.393 . S
C528 H517 0.950 . S
C528 C526 1.391 1_556 S
C528 C529 1.400 . S
C529 C523 1.491 . S
C529 C528 1.400 . S
C529 C530 1.398 . S
C530 H518 0.950 . S
C530 C529 1.398 . S
C530 C531 1.391 1_556 S
C531 H519 0.950 . S
C531 C527 1.393 . S
C531 C530 1.391 1_554 S
H532 C540 0.950 . S
H533 C545 0.950 . S
H534 C542 0.950 . S
H535 C544 0.950 . S
H536 C546 0.950 . S
H537 C548 0.950 . S
H538 C550 0.950 . S
H539 C551 0.950 . S
C540 H532 0.950 . S
C540 C541 1.386 . S
C540 C542 1.391 1_554 S
C541 C540 1.386 . S
C541 C545 1.393 . S
C542 H534 0.950 . S
C542 C540 1.391 1_556 S
C542 C543 1.400 . S
C543 C542 1.400 . S
C543 C544 1.398 . S
C543 C549 1.491 . S
C544 H535 0.950 . S
C544 C543 1.398 . S
C544 C545 1.391 1_556 S
C545 H533 0.950 . S
C545 C541 1.393 . S
C545 C544 1.391 1_554 S
C546 H536 0.950 . S
C546 C547 1.386 . S
C546 C548 1.391 . S
C547 C546 1.386 . S
C547 C551 1.393 . S
C548 H537 0.950 . S
C548 C546 1.391 . S
C548 C549 1.400 . S
C549 C543 1.491 . S
C549 C548 1.400 . S
C549 C550 1.398 . S
C550 H538 0.950 . S
C550 C549 1.398 . S
C550 C551 1.391 . S
C551 H539 0.950 . S
C551 C547 1.393 . S
C551 C550 1.391 . S
H552 C560 0.950 . S
H553 C565 0.950 . S
H554 C562 0.950 . S
H555 C564 0.950 . S
H556 C566 0.950 . S
H557 C568 0.950 . S
H558 C570 0.950 . S
H559 C571 0.950 . S
C560 H552 0.950 . S
C560 C561 1.386 . S
C560 C562 1.391 . S
C561 C560 1.386 . S
C561 C565 1.393 . S
C562 H554 0.950 . S
C562 C560 1.391 . S
C562 C563 1.400 . S
C563 C562 1.400 . S
C563 C564 1.398 . S
C563 C569 1.491 . S
C564 H555 0.950 . S
C564 C563 1.398 . S
C564 C565 1.391 . S
C565 H553 0.950 . S
C565 C561 1.393 . S
C565 C564 1.391 . S
C566 H556 0.950 . S
C566 C567 1.386 . S
C566 C568 1.391 . S
C567 C566 1.386 . S
C567 C571 1.393 . S
C568 H557 0.950 . S
C568 C566 1.391 . S
C568 C569 1.400 . S
C569 C563 1.491 . S
C569 C568 1.400 . S
C569 C570 1.398 . S
C570 H558 0.950 . S
C570 C569 1.398 . S
C570 C571 1.391 . S
C571 H559 0.950 . S
C571 C567 1.393 . S
C571 C570 1.391 . S
H572 C580 0.950 . S
H573 C585 0.950 . S
H574 C582 0.950 . S
H575 C584 0.950 . S
H576 C586 0.950 . S
H577 C588 0.950 . S
H578 C590 0.950 . S
H579 C591 0.950 . S
C580 H572 0.950 . S
C580 C581 1.386 . S
C580 C582 1.391 . S
C581 C580 1.386 . S
C581 C585 1.393 . S
C582 H574 0.950 . S
C582 C580 1.391 . S
C582 C583 1.400 . S
C583 C582 1.400 . S
C583 C584 1.398 . S
C583 C589 1.491 . S
C584 H575 0.950 . S
C584 C583 1.398 . S
C584 C585 1.391 . S
C585 H573 0.950 . S
C585 C581 1.393 . S
C585 C584 1.391 . S
C586 H576 0.950 . S
C586 C587 1.386 . S
C586 C588 1.391 . S
C587 C586 1.386 . S
C587 C591 1.393 . S
C588 H577 0.950 . S
C588 C586 1.391 . S
C588 C589 1.400 . S
C589 C583 1.491 . S
C589 C588 1.400 . S
C589 C590 1.398 . S
C590 H578 0.950 . S
C590 C589 1.398 . S
C590 C591 1.391 . S
C591 H579 0.950 . S
C591 C587 1.393 . S
C591 C590 1.391 . S
H592 C600 0.950 . S
H593 C605 0.950 . S
H594 C602 0.950 . S
H595 C604 0.950 . S
H596 C606 0.950 . S
H597 C608 0.950 . S
H598 C610 0.950 . S
H599 C611 0.950 . S
C600 H592 0.950 . S
C600 C601 1.386 . S
C600 C602 1.391 . S
C601 C600 1.386 . S
C601 C605 1.393 . S
C602 H594 0.950 . S
C602 C600 1.391 . S
C602 C603 1.400 . S
C603 C602 1.400 . S
C603 C604 1.398 . S
C603 C609 1.491 . S
C604 H595 0.950 . S
C604 C603 1.398 . S
C604 C605 1.391 . S
C605 H593 0.950 . S
C605 C601 1.393 . S
C605 C604 1.391 . S
C606 H596 0.950 . S
C606 C607 1.386 . S
C606 C608 1.391 . S
C607 C606 1.386 . S
C607 C611 1.393 . S
C608 H597 0.950 . S
C608 C606 1.391 . S
C608 C609 1.400 . S
C609 C603 1.491 . S
C609 C608 1.400 . S
C609 C610 1.398 . S
C610 H598 0.950 . S
C610 C609 1.398 . S
C610 C611 1.391 . S
C611 H599 0.950 . S
C611 C607 1.393 . S
C611 C610 1.391 . S
H612 C620 0.950 . S
H613 C625 0.950 1_554 S
H614 C622 0.950 . S
H615 C624 0.950 . S
H616 C626 0.950 . S
H617 C628 0.950 . S
H618 C630 0.950 . S
H619 C631 0.950 . S
C620 H612 0.950 . S
C620 C621 1.386 . S
C620 C622 1.391 . S
C621 C620 1.386 . S
C621 C625 1.393 . S
C622 H614 0.950 . S
C622 C620 1.391 . S
C622 C623 1.400 . S
C623 C622 1.400 . S
C623 C624 1.398 . S
C623 C629 1.491 . S
C624 H615 0.950 . S
C624 C623 1.398 . S
C624 C625 1.391 . S
C625 H613 0.950 1_556 S
C625 C621 1.393 . S
C625 C624 1.391 . S
C626 H616 0.950 . S
C626 C627 1.386 . S
C626 C628 1.391 . S
C627 C626 1.386 . S
C627 C631 1.393 . S
C628 H617 0.950 . S
C628 C626 1.391 . S
C628 C629 1.400 . S
C629 C623 1.491 . S
C629 C628 1.400 . S
C629 C630 1.398 . S
C630 H618 0.950 . S
C630 C629 1.398 . S
C630 C631 1.391 . S
C631 H619 0.950 . S
C631 C627 1.393 . S
C631 C630 1.391 . S
H632 C640 0.950 . S
H633 C645 0.950 . S
H634 C642 0.950 . S
H635 C644 0.950 . S
H636 C646 0.950 . S
H637 C648 0.950 . S
H638 C650 0.950 . S
H639 C651 0.950 . S
C640 H632 0.950 . S
C640 C641 1.386 . S
C640 C642 1.391 . S
C641 C640 1.386 . S
C641 C645 1.393 . S
C642 H634 0.950 . S
C642 C640 1.391 . S
C642 C643 1.400 . S
C643 C642 1.400 . S
C643 C644 1.398 . S
C643 C649 1.491 . S
C644 H635 0.950 . S
C644 C643 1.398 . S
C644 C645 1.391 . S
C645 H633 0.950 . S
C645 C641 1.393 . S
C645 C644 1.391 . S
C646 H636 0.950 . S
C646 C647 1.386 . S
C646 C648 1.391 . S
C647 C646 1.386 . S
C647 C651 1.393 . S
C648 H637 0.950 . S
C648 C646 1.391 . S
C648 C649 1.400 . S
C649 C643 1.491 . S
C649 C648 1.400 . S
C649 C650 1.398 . S
C650 H638 0.950 . S
C650 C649 1.398 . S
C650 C651 1.391 . S
C651 H639 0.950 . S
C651 C647 1.393 . S
C651 C650 1.391 . S
H652 C660 0.950 . S
H653 C665 0.950 . S
H654 C662 0.950 . S
H655 C664 0.950 . S
H656 C666 0.950 . S
H657 C668 0.950 . S
H658 C670 0.950 . S
H659 C671 0.950 1_554 S
C660 H652 0.950 . S
C660 C661 1.386 . S
C660 C662 1.391 . S
C661 C660 1.386 . S
C661 C665 1.393 . S
C662 H654 0.950 . S
C662 C660 1.391 . S
C662 C663 1.400 . S
C663 C662 1.400 . S
C663 C664 1.398 . S
C663 C669 1.491 . S
C664 H655 0.950 . S
C664 C663 1.398 . S
C664 C665 1.391 . S
C665 H653 0.950 . S
C665 C661 1.393 . S
C665 C664 1.391 . S
C666 H656 0.950 . S
C666 C667 1.386 . S
C666 C668 1.391 . S
C667 C666 1.386 . S
C667 C671 1.393 . S
C668 H657 0.950 . S
C668 C666 1.391 . S
C668 C669 1.400 . S
C669 C663 1.491 . S
C669 C668 1.400 . S
C669 C670 1.398 . S
C670 H658 0.950 . S
C670 C669 1.398 . S
C670 C671 1.391 . S
C671 H659 0.950 1_556 S
C671 C667 1.393 . S
C671 C670 1.391 . S
H672 C680 0.950 . S
H673 C685 0.950 . S
H674 C682 0.950 . S
H675 C684 0.950 . S
H676 C686 0.950 . S
H677 C688 0.950 . S
H678 C690 0.950 . S
H679 C691 0.950 . S
C680 H672 0.950 . S
C680 C681 1.386 . S
C680 C682 1.391 . S
C681 C680 1.386 . S
C681 C685 1.393 . S
C682 H674 0.950 . S
C682 C680 1.391 . S
C682 C683 1.400 . S
C683 C682 1.400 . S
C683 C684 1.398 . S
C683 C689 1.491 . S
C684 H675 0.950 . S
C684 C683 1.398 . S
C684 C685 1.391 . S
C685 H673 0.950 . S
C685 C681 1.393 . S
C685 C684 1.391 . S
C686 H676 0.950 . S
C686 C687 1.386 . S
C686 C688 1.391 . S
C687 C686 1.386 . S
C687 C691 1.393 . S
C688 H677 0.950 . S
C688 C686 1.391 . S
C688 C689 1.400 . S
C689 C683 1.491 . S
C689 C688 1.400 . S
C689 C690 1.398 . S
C690 H678 0.950 . S
C690 C689 1.398 . S
C690 C691 1.391 . S
C691 H679 0.950 . S
C691 C687 1.393 . S
C691 C690 1.391 . S
H692 C700 0.950 . S
H693 C705 0.950 . S
H694 C702 0.950 . S
H695 C704 0.950 . S
H696 C706 0.950 . S
H697 C708 0.950 . S
H698 C710 0.950 . S
H699 C711 0.950 . S
C700 H692 0.950 . S
C700 C701 1.386 . S
C700 C702 1.391 . S
C701 C700 1.386 . S
C701 C705 1.393 . S
C702 H694 0.950 . S
C702 C700 1.391 . S
C702 C703 1.400 . S
C703 C702 1.400 . S
C703 C704 1.398 . S
C703 C709 1.491 . S
C704 H695 0.950 . S
C704 C703 1.398 . S
C704 C705 1.391 . S
C705 H693 0.950 . S
C705 C701 1.393 . S
C705 C704 1.391 . S
C706 H696 0.950 . S
C706 C707 1.386 . S
C706 C708 1.391 . S
C707 C706 1.386 . S
C707 C711 1.393 . S
C708 H697 0.950 . S
C708 C706 1.391 . S
C708 C709 1.400 . S
C709 C703 1.491 . S
C709 C708 1.400 . S
C709 C710 1.398 . S
C710 H698 0.950 . S
C710 C709 1.398 . S
C710 C711 1.391 . S
C711 H699 0.950 . S
C711 C707 1.393 . S
C711 C710 1.391 . S
H712 C720 0.950 . S
H713 C725 0.950 . S
H714 C722 0.950 . S
H715 C724 0.950 . S
H716 C726 0.950 . S
H717 C728 0.950 . S
H718 C730 0.950 . S
H719 C731 0.950 . S
C720 H712 0.950 . S
C720 C721 1.386 . S
C720 C722 1.391 . S
C721 C720 1.386 . S
C721 C725 1.393 . S
C722 H714 0.950 . S
C722 C720 1.391 . S
C722 C723 1.400 . S
C723 C722 1.400 . S
C723 C724 1.398 . S
C723 C729 1.491 . S
C724 H715 0.950 . S
C724 C723 1.398 . S
C724 C725 1.391 . S
C725 H713 0.950 . S
C725 C721 1.393 . S
C725 C724 1.391 . S
C726 H716 0.950 . S
C726 C727 1.386 . S
C726 C728 1.391 . S
C727 C726 1.386 . S
C727 C731 1.393 . S
C728 H717 0.950 . S
C728 C726 1.391 . S
C728 C729 1.400 . S
C729 C723 1.491 . S
C729 C728 1.400 . S
C729 C730 1.398 . S
C730 H718 0.950 . S
C730 C729 1.398 . S
C730 C731 1.391 . S
C731 H719 0.950 . S
C731 C727 1.393 . S
C731 C730 1.391 . S
H732 C740 0.950 . S
H733 C745 0.950 . S
H734 C742 0.950 . S
H735 C744 0.950 . S
H736 C746 0.950 . S
H737 C748 0.950 . S
H738 C750 0.950 . S
H739 C751 0.950 1_556 S
C740 H732 0.950 . S
C740 C741 1.386 . S
C740 C742 1.391 . S
C741 C740 1.386 . S
C741 C745 1.393 . S
C742 H734 0.950 . S
C742 C740 1.391 . S
C742 C743 1.400 . S
C743 C742 1.400 . S
C743 C744 1.398 . S
C743 C749 1.491 . S
C744 H735 0.950 . S
C744 C743 1.398 . S
C744 C745 1.391 . S
C745 H733 0.950 . S
C745 C741 1.393 . S
C745 C744 1.391 . S
C746 H736 0.950 . S
C746 C747 1.386 . S
C746 C748 1.391 . S
C747 C746 1.386 . S
C747 C751 1.393 . S
C748 H737 0.950 . S
C748 C746 1.391 . S
C748 C749 1.400 . S
C749 C743 1.491 . S
C749 C748 1.400 . S
C749 C750 1.398 . S
C750 H738 0.950 . S
C750 C749 1.398 . S
C750 C751 1.391 . S
C751 H739 0.950 1_554 S
C751 C747 1.393 . S
C751 C750 1.391 . S
H752 C760 0.950 . S
H753 C765 0.950 . S
H754 C762 0.950 . S
H755 C764 0.950 . S
H756 C766 0.950 . S
H757 C768 0.950 . S
H758 C770 0.950 . S
H759 C771 0.950 . S
C760 H752 0.950 . S
C760 C761 1.386 . S
C760 C762 1.391 . S
C761 C760 1.386 . S
C761 C765 1.393 . S
C762 H754 0.950 . S
C762 C760 1.391 . S
C762 C763 1.400 . S
C763 C762 1.400 . S
C763 C764 1.398 . S
C763 C769 1.491 . S
C764 H755 0.950 . S
C764 C763 1.398 . S
C764 C765 1.391 . S
C765 H753 0.950 . S
C765 C761 1.393 . S
C765 C764 1.391 . S
C766 H756 0.950 . S
C766 C767 1.386 . S
C766 C768 1.391 . S
C767 C766 1.386 . S
C767 C771 1.393 . S
C768 H757 0.950 . S
C768 C766 1.391 . S
C768 C769 1.400 . S
C769 C763 1.491 . S
C769 C768 1.400 . S
C769 C770 1.398 . S
C770 H758 0.950 . S
C770 C769 1.398 . S
C770 C771 1.391 . S
C771 H759 0.950 . S
C771 C767 1.393 . S
C771 C770 1.391 . S
H772 C780 0.950 . S
H773 C785 0.950 . S
H774 C782 0.950 . S
H775 C784 0.950 . S
H776 C786 0.950 1_556 S
H777 C788 0.950 . S
H778 C790 0.950 . S
H779 C791 0.950 . S
C780 H772 0.950 . S
C780 C781 1.386 . S
C780 C782 1.391 . S
C781 C780 1.386 . S
C781 C785 1.393 . S
C782 H774 0.950 . S
C782 C780 1.391 . S
C782 C783 1.400 . S
C783 C782 1.400 . S
C783 C784 1.398 . S
C783 C789 1.491 . S
C784 H775 0.950 . S
C784 C783 1.398 . S
C784 C785 1.391 . S
C785 H773 0.950 . S
C785 C781 1.393 . S
C785 C784 1.391 . S
C786 H776 0.950 1_554 S
C786 C787 1.386 . S
C786 C788 1.391 . S
C787 C786 1.386 . S
C787 C791 1.393 . S
C788 H777 0.950 . S
C788 C786 1.391 . S
C788 C789 1.400 . S
C789 C783 1.491 . S
C789 C788 1.400 . S
C789 C790 1.398 . S
C790 H778 0.950 . S
C790 C789 1.398 . S
C790 C791 1.391 . S
C791 H779 0.950 . S
C791 C787 1.393 . S
C791 C790 1.391 . S
H792 C800 0.950 . S
H793 C805 0.950 . S
H794 C802 0.950 . S
H795 C804 0.950 . S
H796 C806 0.950 . S
H797 C808 0.950 . S
H798 C810 0.950 . S
H799 C811 0.950 . S
C800 H792 0.950 . S
C800 C801 1.386 . S
C800 C802 1.391 . S
C801 C800 1.386 . S
C801 C805 1.393 . S
C802 H794 0.950 . S
C802 C800 1.391 . S
C802 C803 1.400 . S
C803 C802 1.400 . S
C803 C804 1.398 . S
C803 C809 1.491 . S
C804 H795 0.950 . S
C804 C803 1.398 . S
C804 C805 1.391 . S
C805 H793 0.950 . S
C805 C801 1.393 . S
C805 C804 1.391 . S
C806 H796 0.950 . S
C806 C807 1.386 . S
C806 C808 1.391 . S
C807 C806 1.386 . S
C807 C811 1.393 . S
C808 H797 0.950 . S
C808 C806 1.391 . S
C808 C809 1.400 . S
C809 C803 1.491 . S
C809 C808 1.400 . S
C809 C810 1.398 . S
C810 H798 0.950 . S
C810 C809 1.398 . S
C810 C811 1.391 . S
C811 H799 0.950 . S
C811 C807 1.393 . S
C811 C810 1.391 . S
H812 C820 0.950 . S
H813 C825 0.950 . S
H814 C822 0.950 . S
H815 C824 0.950 . S
H816 C826 0.950 . S
H817 C828 0.950 . S
H818 C830 0.950 . S
H819 C831 0.950 . S
C820 H812 0.950 . S
C820 C821 1.386 . S
C820 C822 1.391 . S
C821 C820 1.386 . S
C821 C825 1.393 . S
C822 H814 0.950 . S
C822 C820 1.391 . S
C822 C823 1.400 . S
C823 C822 1.400 . S
C823 C824 1.398 . S
C823 C829 1.491 . S
C824 H815 0.950 . S
C824 C823 1.398 . S
C824 C825 1.391 . S
C825 H813 0.950 . S
C825 C821 1.393 . S
C825 C824 1.391 . S
C826 H816 0.950 . S
C826 C827 1.386 . S
C826 C828 1.391 . S
C827 C826 1.386 . S
C827 C831 1.393 . S
C828 H817 0.950 . S
C828 C826 1.391 . S
C828 C829 1.400 . S
C829 C823 1.491 . S
C829 C828 1.400 . S
C829 C830 1.398 . S
C830 H818 0.950 . S
C830 C829 1.398 . S
C830 C831 1.391 . S
C831 H819 0.950 . S
C831 C827 1.393 . S
C831 C830 1.391 . S
H832 C840 0.950 . S
H833 C845 0.950 . S
H834 C842 0.950 . S
H835 C844 0.950 . S
H836 C846 0.950 . S
H837 C848 0.950 . S
H838 C850 0.950 . S
H839 C851 0.950 . S
C840 H832 0.950 . S
C840 C841 1.386 . S
C840 C842 1.391 . S
C841 C840 1.386 . S
C841 C845 1.393 . S
C842 H834 0.950 . S
C842 C840 1.391 . S
C842 C843 1.400 . S
C843 C842 1.400 . S
C843 C844 1.398 . S
C843 C849 1.491 . S
C844 H835 0.950 . S
C844 C843 1.398 . S
C844 C845 1.391 . S
C845 H833 0.950 . S
C845 C841 1.393 . S
C845 C844 1.391 . S
C846 H836 0.950 . S
C846 C847 1.386 . S
C846 C848 1.391 . S
C847 C846 1.386 . S
C847 C851 1.393 . S
C848 H837 0.950 . S
C848 C846 1.391 . S
C848 C849 1.400 . S
C849 C843 1.491 . S
C849 C848 1.400 . S
C849 C850 1.398 . S
C850 H838 0.950 . S
C850 C849 1.398 . S
C850 C851 1.391 . S
C851 H839 0.950 . S
C851 C847 1.393 . S
C851 C850 1.391 . S
H852 C860 0.950 . S
H853 C865 0.950 . S
H854 C862 0.950 . S
H855 C864 0.950 . S
H856 C866 0.950 . S
H857 C868 0.950 . S
H858 C870 0.950 . S
H859 C871 0.950 . S
C860 H852 0.950 . S
C860 C861 1.386 . S
C860 C862 1.391 . S
C861 C860 1.386 . S
C861 C865 1.393 . S
C862 H854 0.950 . S
C862 C860 1.391 . S
C862 C863 1.400 . S
C863 C862 1.400 . S
C863 C864 1.398 . S
C863 C869 1.491 . S
C864 H855 0.950 . S
C864 C863 1.398 . S
C864 C865 1.391 . S
C865 H853 0.950 . S
C865 C861 1.393 . S
C865 C864 1.391 . S
C866 H856 0.950 . S
C866 C867 1.386 . S
C866 C868 1.391 . S
C867 C866 1.386 . S
C867 C871 1.393 . S
C868 H857 0.950 . S
C868 C866 1.391 . S
C868 C869 1.400 . S
C869 C863 1.491 . S
C869 C868 1.400 . S
C869 C870 1.398 . S
C870 H858 0.950 . S
C870 C869 1.398 . S
C870 C871 1.391 . S
C871 H859 0.950 . S
C871 C867 1.393 . S
C871 C870 1.391 . S
H872 C880 0.950 . S
H873 C885 0.950 . S
H874 C882 0.950 . S
H875 C884 0.950 . S
H876 C886 0.950 . S
H877 C888 0.950 . S
H878 C890 0.950 . S
H879 C891 0.950 . S
C880 H872 0.950 . S
C880 C881 1.386 . S
C880 C882 1.391 . S
C881 C880 1.386 . S
C881 C885 1.393 . S
C882 H874 0.950 . S
C882 C880 1.391 . S
C882 C883 1.400 . S
C883 C882 1.400 . S
C883 C884 1.398 . S
C883 C889 1.491 1_545 S
C884 H875 0.950 . S
C884 C883 1.398 . S
C884 C885 1.391 . S
C885 H873 0.950 . S
C885 C881 1.393 . S
C885 C884 1.391 . S
C886 H876 0.950 . S
C886 C887 1.386 . S
C886 C888 1.391 . S
C887 C886 1.386 . S
C887 C891 1.393 . S
C888 H877 0.950 . S
C888 C886 1.391 . S
C888 C889 1.400 . S
C889 C883 1.491 1_565 S
C889 C888 1.400 . S
C889 C890 1.398 . S
C890 H878 0.950 . S
C890 C889 1.398 . S
C890 C891 1.391 . S
C891 H879 0.950 . S
C891 C887 1.393 . S
C891 C890 1.391 . S
H892 C900 0.950 . S
H893 C905 0.950 . S
H894 C902 0.950 . S
H895 C904 0.950 . S
H896 C906 0.950 . S
H897 C908 0.950 . S
H898 C910 0.950 . S
H899 C911 0.950 . S
C900 H892 0.950 . S
C900 C901 1.386 . S
C900 C902 1.391 . S
C901 C900 1.386 . S
C901 C905 1.393 . S
C902 H894 0.950 . S
C902 C900 1.391 . S
C902 C903 1.400 . S
C903 C902 1.400 . S
C903 C904 1.398 . S
C903 C909 1.491 1_455 S
C904 H895 0.950 . S
C904 C903 1.398 . S
C904 C905 1.391 . S
C905 H893 0.950 . S
C905 C901 1.393 . S
C905 C904 1.391 . S
C906 H896 0.950 . S
C906 C907 1.386 . S
C906 C908 1.391 . S
C907 C906 1.386 . S
C907 C911 1.393 . S
C908 H897 0.950 . S
C908 C906 1.391 . S
C908 C909 1.400 . S
C909 C903 1.491 1_655 S
C909 C908 1.400 . S
C909 C910 1.398 . S
C910 H898 0.950 . S
C910 C909 1.398 . S
C910 C911 1.391 . S
C911 H899 0.950 . S
C911 C907 1.393 . S
C911 C910 1.391 . S
H912 C920 0.950 . S
H913 C925 0.950 . S
H914 C922 0.950 . S
H915 C924 0.950 . S
H916 C926 0.950 . S
H917 C928 0.950 . S
H918 C930 0.950 . S
H919 C931 0.950 . S
C920 H912 0.950 . S
C920 C921 1.386 . S
C920 C922 1.391 . S
C921 C920 1.386 . S
C921 C925 1.393 . S
C922 H914 0.950 . S
C922 C920 1.391 . S
C922 C923 1.400 . S
C923 C922 1.400 . S
C923 C924 1.398 . S
C923 C929 1.491 . S
C924 H915 0.950 . S
C924 C923 1.398 . S
C924 C925 1.391 . S
C925 H913 0.950 . S
C925 C921 1.393 . S
C925 C924 1.391 . S
C926 H916 0.950 . S
C926 C927 1.386 . S
C926 C928 1.391 . S
C927 C926 1.386 . S
C927 C931 1.393 . S
C928 H917 0.950 . S
C928 C926 1.391 . S
C928 C929 1.400 . S
C929 C923 1.491 . S
C929 C928 1.400 . S
C929 C930 1.398 . S
C930 H918 0.950 . S
C930 C929 1.398 . S
C930 C931 1.391 . S
C931 H919 0.950 . S
C931 C927 1.393 . S
C931 C930 1.391 . S
H932 C940 0.950 . S
H933 C945 0.950 . S
H934 C942 0.950 . S
H935 C944 0.950 . S
H936 C946 0.950 . S
H937 C948 0.950 . S
H938 C950 0.950 . S
H939 C951 0.950 . S
C940 H932 0.950 . S
C940 C941 1.386 . S
C940 C942 1.391 . S
C941 C940 1.386 . S
C941 C945 1.393 . S
C942 H934 0.950 . S
C942 C940 1.391 . S
C942 C943 1.400 . S
C943 C942 1.400 . S
C943 C944 1.398 . S
C943 C949 1.491 1_545 S
C944 H935 0.950 . S
C944 C943 1.398 . S
C944 C945 1.391 . S
C945 H933 0.950 . S
C945 C941 1.393 . S
C945 C944 1.391 . S
C946 H936 0.950 . S
C946 C947 1.386 . S
C946 C948 1.391 . S
C947 C946 1.386 . S
C947 C951 1.393 . S
C948 H937 0.950 . S
C948 C946 1.391 . S
C948 C949 1.400 . S
C949 C943 1.491 1_565 S
C949 C948 1.400 . S
C949 C950 1.398 . S
C950 H938 0.950 . S
C950 C949 1.398 . S
C950 C951 1.391 . S
C951 H939 0.950 . S
C951 C947 1.393 . S
C951 C950 1.391 . S
H952 C960 0.950 . S
H953 C965 0.950 . S
H954 C962 0.950 . S
H955 C964 0.950 . S
H956 C966 0.950 . S
H957 C968 0.950 . S
H958 C970 0.950 . S
H959 C971 0.950 . S
C960 H952 0.950 . S
C960 C961 1.386 . S
C960 C962 1.391 . S
C961 C960 1.386 . S
C961 C965 1.393 . S
C962 H954 0.950 . S
C962 C960 1.391 . S
C962 C963 1.400 . S
C963 C962 1.400 . S
C963 C964 1.398 . S
C963 C969 1.491 1_455 S
C964 H955 0.950 . S
C964 C963 1.398 . S
C964 C965 1.391 . S
C965 H953 0.950 . S
C965 C961 1.393 . S
C965 C964 1.391 . S
C966 H956 0.950 . S
C966 C967 1.386 . S
C966 C968 1.391 . S
C967 C966 1.386 . S
C967 C971 1.393 . S
C968 H957 0.950 . S
C968 C966 1.391 . S
C968 C969 1.400 . S
C969 C963 1.491 1_655 S
C969 C968 1.400 . S
C969 C970 1.398 . S
C970 H958 0.950 . S
C970 C969 1.398 . S
C970 C971 1.391 . S
C971 H959 0.950 . S
C971 C967 1.393 . S
C971 C970 1.391 . S
C261 C57 1.217 . S
C267 C1 1.216 . S
C281 C70 1.215 . S
C287 C14 1.215 . S
C301 C28 1.217 . S
C307 C43 1.217 . S
C321 C56 1.217 . S
C327 C0 1.217 . S
C341 C71 1.217 . S
C347 C15 1.217 . S
C361 C29 1.216 . S
C367 C42 1.216 . S
C381 C153 1.215 . S
C387 C84 1.215 . S
C401 C155 1.215 . S
C407 C110 1.215 . S
C421 C112 1.215 . S
C427 C139 1.215 . S
C441 C85 1.215 . S
C447 C152 1.215 . S
C461 C154 1.216 . S
C467 C111 1.217 . S
C481 C138 1.215 . S
C487 C113 1.215 . S
C501 C237 1.215 . S
C507 C168 1.216 . S
C521 C182 1.217 . S
C527 C238 1.217 . S
C541 C211 1.217 . S
C547 C209 1.217 . S
C561 C236 1.217 . S
C567 C169 1.217 . S
C581 C239 1.216 . S
C587 C183 1.217 . S
C601 C208 1.215 . S
C607 C210 1.215 . S
C621 C13 1.524 . S
C627 C127 1.523 . S
C641 C141 1.527 . S
C647 C26 1.527 . S
C661 C167 1.524 . S
C667 C40 1.524 . S
C681 C55 1.526 . S
C687 C180 1.526 . S
C701 C194 1.523 . S
C707 C69 1.523 . S
C721 C197 1.523 . S
C727 C82 1.523 . S
C741 C222 1.524 . S
C747 C12 1.525 . S
C761 C224 1.523 . S
C767 C27 1.523 . S
C781 C251 1.526 . S
C787 C41 1.526 . S
C801 C54 1.526 . S
C807 C97 1.526 . S
C821 C68 1.524 . S
C827 C99 1.524 . S
C841 C125 1.526 . S
C847 C83 1.526 . S
C861 C223 1.525 . S
C867 C96 1.525 . S
C881 C225 1.525 . S
C887 C98 1.525 . S
C901 C124 1.526 . S
C907 C250 1.526 . S
C921 C181 1.523 . S
C927 C126 1.523 . S
C941 C195 1.524 . S
C947 C140 1.524 . S
C961 C166 1.526 . S
C967 C196 1.526 . S
