# Generated by pormake.
# Topology sow, (4)-cn, num edge types: 1
# Building blocks:
#     Node 0, Type 0, BuildingBlock: ESEHIV_clean_sbu_0, # of connection points: 4
#     Node 1, Type 0, BuildingBlock: ESEHIV_clean_sbu_0, # of connection points: 4
#     Node 2, Type 0, BuildingBlock: ESEHIV_clean_sbu_0, # of connection points: 4
#     Node 3, Type 0, BuildingBlock: ESEHIV_clean_sbu_0, # of connection points: 4
#     Node 4, Type 0, BuildingBlock: ESEHIV_clean_sbu_0, # of connection points: 4
#     Node 5, Type 0, BuildingBlock: ESEHIV_clean_sbu_0, # of connection points: 4
#     Node 6, Type 0, BuildingBlock: ESEHIV_clean_sbu_0, # of connection points: 4
#     Node 7, Type 0, BuildingBlock: ESEHIV_clean_sbu_0, # of connection points: 4
#     Edge 8, Type (0, 0), BuildingBlock: UVAHIK_clean_linker_0, # of connection points: 2
#     Edge 9, Type (0, 0), BuildingBlock: UVAHIK_clean_linker_0, # of connection points: 2
#     Edge 10, Type (0, 0), BuildingBlock: UVAHIK_clean_linker_0, # of connection points: 2
#     Edge 11, Type (0, 0), BuildingBlock: UVAHIK_clean_linker_0, # of connection points: 2
#     Edge 12, Type (0, 0), BuildingBlock: UVAHIK_clean_linker_0, # of connection points: 2
#     Edge 13, Type (0, 0), BuildingBlock: UVAHIK_clean_linker_0, # of connection points: 2
#     Edge 14, Type (0, 0), BuildingBlock: UVAHIK_clean_linker_0, # of connection points: 2
#     Edge 15, Type (0, 0), BuildingBlock: UVAHIK_clean_linker_0, # of connection points: 2
#     Edge 16, Type (0, 0), BuildingBlock: UVAHIK_clean_linker_0, # of connection points: 2
#     Edge 17, Type (0, 0), BuildingBlock: UVAHIK_clean_linker_0, # of connection points: 2
#     Edge 18, Type (0, 0), BuildingBlock: UVAHIK_clean_linker_0, # of connection points: 2
#     Edge 19, Type (0, 0), BuildingBlock: UVAHIK_clean_linker_0, # of connection points: 2
#     Edge 20, Type (0, 0), BuildingBlock: UVAHIK_clean_linker_0, # of connection points: 2
#     Edge 21, Type (0, 0), BuildingBlock: UVAHIK_clean_linker_0, # of connection points: 2
#     Edge 22, Type (0, 0), BuildingBlock: UVAHIK_clean_linker_0, # of connection points: 2
#     Edge 23, Type (0, 0), BuildingBlock: UVAHIK_clean_linker_0, # of connection points: 2
# Relax obj value: 0.065
# Max RMSD: 0.207
# Mean RMSD: 0.186
data_MOF--net-sow--node1-ESEHIV_clean_sbu_0--edge1-UVAHIK_clean_linker_0
_symmetry_space_group_name_H-M    P1
_symmetry_Int_Tables_number       1
_symmetry_cell_setting            triclinic
loop_
_symmetry_equiv_pos_as_xyz
'x, y, z'
_cell_length_a     62.764128
_cell_length_b     23.344603
_cell_length_c     28.925486
_cell_angle_alpha  89.130901
_cell_angle_beta   89.909071
_cell_angle_gamma 89.832193
loop_
_atom_site_label
_atom_site_type_symbol
_atom_site_fract_x
_atom_site_fract_y
_atom_site_fract_z
_atom_type_partial_charge
Cu0 Cu 0.1452 0.05874 0.15579 0.0
N1 N 0.1591 0.03405 0.20946 0.0
N2 N 0.18158 0.02909 0.26926 0.0
C3 C 0.17642 0.05693 0.22947 0.0
C4 C 0.16698 0.98705 0.27417 0.0
C5 C 0.15317 0.99024 0.23726 0.0
O6 O 0.16595 0.0963 0.11542 0.0
C7 C 0.10609 0.12214 0.14876 0.0
O8 O 0.10501 0.10149 0.10686 0.0
H9 H 0.18473 0.09399 0.21568 0.0
H10 H 0.13962 0.96282 0.23119 0.0
N11 N 0.1345 0.99445 0.12591 0.0
N12 N 0.11281 0.92584 0.10061 0.0
C13 C 0.11479 0.97174 0.12828 0.0
C14 C 0.14541 0.96148 0.09634 0.0
C15 C 0.13209 0.9193 0.08057 0.0
C16 C 0.16229 0.10592 0.07272 0.0
O17 O 0.14353 0.09311 0.05578 0.0
H18 H 0.10207 0.98936 0.14902 0.0
H19 H 0.16188 0.96805 0.08668 0.0
O20 O 0.12214 0.10992 0.17398 0.0
H21 H 0.16639 0.95595 0.30229 0.0
H22 H 0.13635 0.88621 0.05641 0.0
Cu23 Cu 0.37224 0.21199 0.65271 0.0
N24 N 0.35505 0.24693 0.69696 0.0
N25 N 0.32995 0.25625 0.75154 0.0
C26 C 0.3408 0.2197 0.72423 0.0
C27 C 0.3378 0.30866 0.74061 0.0
C28 C 0.35323 0.30275 0.70695 0.0
O29 O 0.3529 0.16696 0.61571 0.0
C30 C 0.40144 0.17913 0.72324 0.0
O31 O 0.38838 0.20697 0.75043 0.0
H32 H 0.33864 0.17378 0.72393 0.0
H33 H 0.36228 0.33676 0.69047 0.0
N34 N 0.38532 0.26646 0.61452 0.0
N35 N 0.41164 0.30972 0.57534 0.0
C36 C 0.40642 0.2685 0.60651 0.0
C37 C 0.37672 0.30775 0.58746 0.0
C38 C 0.39296 0.3346 0.56318 0.0
C39 C 0.35677 0.1445 0.57678 0.0
O40 O 0.37631 0.14462 0.56042 0.0
H41 H 0.41763 0.23888 0.62222 0.0
H42 H 0.35986 0.31703 0.58506 0.0
O43 O 0.39594 0.17031 0.68153 0.0
H44 H 0.33255 0.34878 0.75504 0.0
H45 H 0.39112 0.36961 0.53855 0.0
Cu46 Cu 0.6452 0.41656 0.84934 0.0
N47 N 0.65851 0.43359 0.79299 0.0
N48 N 0.68095 0.43337 0.73277 0.0
C49 C 0.67753 0.4155 0.77691 0.0
C50 C 0.66344 0.46393 0.721 0.0
C51 C 0.6497 0.46405 0.75812 0.0
O52 O 0.66587 0.38168 0.89183 0.0
C53 C 0.60708 0.35201 0.86518 0.0
O54 O 0.60826 0.37137 0.9075 0.0
H55 H 0.68828 0.38828 0.79661 0.0
H56 H 0.63414 0.484 0.7594 0.0
N57 N 0.63472 0.48487 0.87403 0.0
N58 N 0.61265 0.55387 0.89786 0.0
C59 C 0.61445 0.50423 0.87466 0.0
C60 C 0.64613 0.524 0.89695 0.0
C61 C 0.63256 0.56639 0.91192 0.0
C62 C 0.66389 0.38488 0.93558 0.0
O63 O 0.64695 0.41001 0.95276 0.0
H64 H 0.60122 0.48158 0.85954 0.0
H65 H 0.66311 0.52122 0.90306 0.0
O66 O 0.62159 0.36528 0.83618 0.0
H67 H 0.66068 0.48451 0.68782 0.0
H68 H 0.63701 0.60357 0.93159 0.0
Cu69 Cu 0.87357 0.25475 0.35083 0.0
N70 N 0.85683 0.22367 0.30424 0.0
N71 N 0.83257 0.21722 0.24796 0.0
C72 C 0.84024 0.24926 0.28271 0.0
C73 C 0.84484 0.16958 0.24784 0.0
C74 C 0.85977 0.17369 0.2826 0.0
O75 O 0.85485 0.29912 0.39065 0.0
C76 C 0.91149 0.32059 0.34292 0.0
O77 O 0.90979 0.3254 0.38796 0.0
H78 H 0.83441 0.29145 0.29139 0.0
H79 H 0.87216 0.14297 0.29095 0.0
N80 N 0.88686 0.19634 0.38549 0.0
N81 N 0.91326 0.14995 0.42236 0.0
C82 C 0.90804 0.18756 0.38831 0.0
C83 C 0.87824 0.16189 0.41815 0.0
C84 C 0.89449 0.13333 0.44106 0.0
C85 C 0.85818 0.30627 0.43362 0.0
O86 O 0.87618 0.28823 0.45188 0.0
H87 H 0.91953 0.21101 0.36773 0.0
H88 H 0.86144 0.16025 0.4265 0.0
O89 O 0.89623 0.2981 0.32073 0.0
H90 H 0.8432 0.13432 0.22425 0.0
H91 H 0.89263 0.10427 0.47028 0.0
Cu92 Cu 0.87632 0.70507 0.95479 0.0
N93 N 0.88529 0.76739 0.91883 0.0
N94 N 0.90762 0.81598 0.8726 0.0
C95 C 0.90564 0.77476 0.90544 0.0
C96 C 0.88765 0.83568 0.86509 0.0
C97 C 0.87387 0.80561 0.8938 0.0
O98 O 0.90279 0.67234 0.97897 0.0
C99 C 0.84103 0.66944 0.90631 0.0
O100 O 0.83334 0.71544 0.92598 0.0
H101 H 0.91854 0.74725 0.91696 0.0
H102 H 0.85669 0.8091 0.89441 0.0
N103 N 0.85846 0.72745 1.00319 0.0
N104 N 0.83503 0.72093 0.06132 0.0
C105 C 0.8474 0.69194 0.03137 0.0
C106 C 0.85299 0.78077 0.01568 0.0
C107 C 0.8385 0.7769 0.05151 0.0
C108 C 0.90948 0.68597 0.01892 0.0
O109 O 0.89645 0.71206 0.04726 0.0
H110 H 0.84799 0.64574 0.02894 0.0
H111 H 0.8589 0.81962 0.99943 0.0
O112 O 0.86029 0.65492 0.91423 0.0
H113 H 0.88322 0.86779 0.83946 0.0
H114 H 0.83112 0.81253 0.06898 0.0
Cu115 Cu 0.64842 0.54611 0.45878 0.0
N116 N 0.62932 0.60597 0.44723 0.0
N117 N 0.59972 0.65019 0.42257 0.0
C118 C 0.60823 0.60122 0.43978 0.0
C119 C 0.61605 0.68771 0.4203 0.0
C120 C 0.63427 0.66029 0.43558 0.0
O121 O 0.6322 0.47567 0.4559 0.0
C122 C 0.68668 0.52073 0.40633 0.0
O123 O 0.68939 0.47535 0.43312 0.0
H124 H 0.59958 0.56148 0.44349 0.0
H125 H 0.65024 0.67754 0.43536 0.0
N126 N 0.65872 0.55284 0.51878 0.0
N127 N 0.67938 0.55847 0.58162 0.0
C128 C 0.67886 0.55542 0.53483 0.0
C129 C 0.64613 0.55423 0.55625 0.0
C130 C 0.6587 0.55768 0.59486 0.0
C131 C 0.62059 0.46386 0.42135 0.0
O132 O 0.6229 0.4939 0.38288 0.0
H133 H 0.69271 0.55507 0.51256 0.0
H134 H 0.62891 0.55222 0.55542 0.0
O135 O 0.67066 0.5532 0.4125 0.0
H136 H 0.61515 0.73095 0.40639 0.0
H137 H 0.65283 0.55859 0.62996 0.0
Cu138 Cu 0.38064 0.79392 0.06993 0.0
N139 N 0.3893 0.72915 0.1032 0.0
N140 N 0.41119 0.67837 0.14895 0.0
C141 C 0.40883 0.72535 0.12181 0.0
C142 C 0.39221 0.65129 0.14747 0.0
C143 C 0.37869 0.68281 0.119 0.0
O144 O 0.40753 0.82427 0.04564 0.0
C145 C 0.34672 0.82593 0.12376 0.0
O146 O 0.33921 0.77994 0.10395 0.0
H147 H 0.4207 0.75856 0.11761 0.0
H148 H 0.36214 0.67372 0.1118 0.0
N149 N 0.36218 0.77589 0.02155 0.0
N150 N 0.33912 0.78808 0.96333 0.0
C151 C 0.35025 0.81366 0.99717 0.0
C152 C 0.35843 0.72453 1.00285 0.0
C153 C 0.34422 0.7319 0.96688 0.0
C154 C 0.41284 0.81819 1.00342 0.0
O155 O 0.39811 0.80525 0.9732 0.0
H156 H 0.35025 0.85923 1.00347 0.0
H157 H 0.36567 0.68469 0.01428 0.0
O158 O 0.36551 0.84252 0.11354 0.0
H159 H 0.38822 0.6124 0.16634 0.0
H160 H 0.33808 0.69838 0.94521 0.0
Cu161 Cu 0.15293 0.94605 0.57399 0.0
N162 N 0.13425 0.88853 0.59381 0.0
N163 N 0.10439 0.84978 0.62261 0.0
C164 C 0.11296 0.8936 0.598 0.0
C165 C 0.12093 0.81484 0.63315 0.0
C166 C 0.13932 0.83897 0.61545 0.0
O167 O 0.13566 0.01409 0.56334 0.0
C168 C 0.1912 0.98322 0.6204 0.0
O169 O 0.19547 0.01433 0.58332 0.0
H170 H 0.10402 0.93011 0.58519 0.0
H171 H 0.15542 0.82356 0.62076 0.0
N172 N 0.1649 0.92582 0.51738 0.0
N173 N 0.18722 0.90972 0.45838 0.0
C174 C 0.18543 0.91932 0.50435 0.0
C175 C 0.15338 0.92002 0.47872 0.0
C176 C 0.16697 0.9103 0.44245 0.0
C177 C 0.12321 0.03375 0.59408 0.0
O178 O 0.12512 0.01472 0.63687 0.0
H179 H 0.19871 0.92255 0.52792 0.0
H180 H 0.13624 0.92462 0.47688 0.0
O181 O 0.17413 0.95404 0.62221 0.0
H182 H 0.12006 0.77691 0.65504 0.0
H183 H 0.16217 0.90657 0.40674 0.0
C184 C 0.30315 0.18852 0.78418 0.0
C185 C 0.3133 0.24225 0.78463 0.0
C186 C 0.2871 0.17498 0.81607 0.0
C187 C 0.26396 0.21959 0.92865 0.0
H188 H 0.21614 0.12823 0.88863 0.0
C189 C 0.20069 0.12969 0.05671 0.0
C190 C 0.17947 0.12674 0.04144 0.0
C191 C 0.21703 0.14544 0.02607 0.0
C192 C 0.22924 0.15432 0.90036 0.0
H193 H 0.31427 0.32357 0.82009 0.0
H194 H 0.28588 0.30074 0.87429 0.0
H195 H 0.24414 0.15302 0.83389 0.0
H196 H 0.15873 0.13988 0.9823 0.0
H197 H 0.18703 0.16865 0.92936 0.0
H198 H 0.24866 0.22233 0.99479 0.0
C199 C 0.29064 0.26857 0.84973 0.0
C200 C 0.24552 0.16785 0.86904 0.0
C201 C 0.30683 0.28199 0.81804 0.0
C202 C 0.17491 0.14131 0.99517 0.0
C203 C 0.1912 0.1574 0.96466 0.0
C204 C 0.24759 0.20632 0.95993 0.0
C205 C 0.28054 0.21487 0.84919 0.0
C206 C 0.26315 0.20062 0.88272 0.0
C207 C 0.21254 0.15896 0.97948 0.0
C208 C 0.22999 0.17351 0.94622 0.0
H209 H 0.30737 0.15671 0.75898 0.0
H210 H 0.27995 0.13286 0.81491 0.0
H211 H 0.27738 0.24427 0.9407 0.0
H212 H 0.20478 0.11847 0.09208 0.0
H213 H 0.23327 0.14551 0.03868 0.0
C214 C 0.19672 0.02914 0.34801 0.0
C215 C 0.19872 0.0419 0.30064 0.0
C216 C 0.21344 0.03986 0.37842 0.0
C217 C 0.27244 0.06591 0.37927 0.0
H218 H 0.26115 0.09758 0.50799 0.0
C219 C 0.34157 0.0881 0.51101 0.0
C220 C 0.33869 0.12636 0.54751 0.0
C221 C 0.32446 0.07407 0.48214 0.0
C222 C 0.26477 0.08977 0.47205 0.0
H223 H 0.21978 0.07722 0.2482 0.0
H224 H 0.24898 0.09624 0.3011 0.0
H225 H 0.23176 0.08763 0.4553 0.0
H226 H 0.31569 0.1806 0.58189 0.0
H227 H 0.2865 0.15921 0.5307 0.0
H228 H 0.30552 0.07232 0.3955 0.0
C229 C 0.23461 0.07702 0.31494 0.0
C230 C 0.24771 0.08281 0.44168 0.0
C231 C 0.21774 0.06681 0.28452 0.0
C232 C 0.3184 0.15023 0.55452 0.0
C233 C 0.30151 0.13746 0.52511 0.0
C234 C 0.28954 0.07448 0.40944 0.0
C235 C 0.23288 0.06274 0.36233 0.0
C236 C 0.25122 0.07091 0.39471 0.0
C237 C 0.30418 0.09912 0.48837 0.0
C238 C 0.286 0.08696 0.45634 0.0
H239 H 0.18215 0.01094 0.36178 0.0
H240 H 0.21113 0.02877 0.41445 0.0
H241 H 0.27597 0.05516 0.34381 0.0
H242 H 0.35703 0.06891 0.50484 0.0
H243 H 0.32723 0.04351 0.45501 0.0
C244 C 0.81555 0.21136 0.17093 0.0
C245 C 0.81552 0.23191 0.2164 0.0
C246 C 0.79918 0.22619 0.14014 0.0
C247 C 0.74339 0.27574 0.13598 0.0
H248 H 0.75712 0.32367 0.01053 0.0
C249 C 0.68001 0.37537 0.01455 0.0
C250 C 0.68095 0.36362 0.96706 0.0
C251 C 0.69631 0.35745 0.04436 0.0
C252 C 0.75292 0.30953 0.04518 0.0
H253 H 0.79802 0.28357 0.26524 0.0
H254 H 0.76941 0.30938 0.21157 0.0
H255 H 0.78566 0.29596 0.06355 0.0
H256 H 0.69976 0.32298 0.9138 0.0
H257 H 0.72799 0.29035 0.96599 0.0
H258 H 0.7107 0.28843 0.11773 0.0
C259 C 0.78213 0.28174 0.19976 0.0
C260 C 0.76933 0.29382 0.07564 0.0
C261 C 0.79862 0.26739 0.23039 0.0
C262 C 0.69855 0.3329 0.95017 0.0
C263 C 0.71483 0.31454 0.98012 0.0
C264 C 0.72698 0.29094 0.10545 0.0
C265 C 0.78224 0.26145 0.15421 0.0
C266 C 0.76477 0.27711 0.1215 0.0
C267 C 0.71398 0.32679 0.02764 0.0
C268 C 0.7315 0.3085 0.05968 0.0
H269 H 0.82841 0.18446 0.15885 0.0
H270 H 0.79966 0.20951 0.10542 0.0
H271 H 0.73932 0.26221 0.17086 0.0
H272 H 0.66679 0.39931 0.02879 0.0
H273 H 0.69521 0.36873 0.08045 0.0
C274 C 0.71937 0.41205 0.72241 0.0
C275 C 0.69901 0.42111 0.70348 0.0
C276 C 0.73697 0.40226 0.6937 0.0
C277 C 0.7549 0.41797 0.57109 0.0
H278 H 0.79909 0.31149 0.60978 0.0
C279 C 0.82033 0.33807 0.44617 0.0
C280 C 0.84087 0.32785 0.46389 0.0
C281 C 0.8035 0.35266 0.47561 0.0
C282 C 0.78708 0.34211 0.59869 0.0
H283 H 0.68111 0.42471 0.63946 0.0
H284 H 0.71147 0.40594 0.58968 0.0
H285 H 0.76891 0.32909 0.66061 0.0
H286 H 0.85993 0.32715 0.52639 0.0
H287 H 0.83073 0.35369 0.57748 0.0
H288 H 0.77304 0.43086 0.50911 0.0
C289 C 0.71409 0.4082 0.62659 0.0
C290 C 0.76971 0.3522 0.62792 0.0
C291 C 0.6966 0.41882 0.65522 0.0
C292 C 0.8443 0.33443 0.51154 0.0
C293 C 0.8275 0.3492 0.54096 0.0
C294 C 0.7723 0.40808 0.54197 0.0
C295 C 0.73458 0.40028 0.64533 0.0
C296 C 0.75332 0.39018 0.6145 0.0
C297 C 0.80679 0.35763 0.52352 0.0
C298 C 0.78859 0.3698 0.55525 0.0
H299 H 0.7218 0.41405 0.75938 0.0
H300 H 0.75251 0.39736 0.70946 0.0
H301 H 0.74278 0.44791 0.55957 0.0
H302 H 0.81706 0.33314 0.40969 0.0
H303 H 0.78776 0.35822 0.46092 0.0
C304 C 0.80211 0.72703 0.10814 0.0
C305 C 0.82057 0.69701 0.09527 0.0
C306 C 0.78788 0.70345 0.14037 0.0
C307 C 0.78386 0.59843 0.23623 0.0
H308 H 0.7232 0.6116 0.21318 0.0
C309 C 0.72026 0.50119 0.36109 0.0
C310 C 0.70224 0.53552 0.36934 0.0
C311 C 0.73489 0.51638 0.32631 0.0
C312 C 0.74008 0.60798 0.22042 0.0
H313 H 0.83873 0.619 0.10692 0.0
H314 H 0.81384 0.57775 0.16328 0.0
H315 H 0.7484 0.64733 0.15558 0.0
H316 H 0.68557 0.6129 0.34744 0.0
H317 H 0.71101 0.63954 0.28784 0.0
H318 H 0.77552 0.56008 0.30155 0.0
C319 C 0.8104 0.61958 0.14833 0.0
C320 C 0.75453 0.62845 0.18733 0.0
C321 C 0.82455 0.64298 0.11575 0.0
C322 C 0.69919 0.58519 0.34201 0.0
C323 C 0.71375 0.60033 0.30746 0.0
C324 C 0.76938 0.57817 0.26953 0.0
C325 C 0.79183 0.64943 0.16082 0.0
C326 C 0.77658 0.62466 0.19509 0.0
C327 C 0.73178 0.56617 0.29902 0.0
C328 C 0.74729 0.5835 0.26233 0.0
H329 H 0.79845 0.76843 0.09275 0.0
H330 H 0.77384 0.72785 0.14962 0.0
H331 H 0.80076 0.59521 0.24337 0.0
H332 H 0.7231 0.46263 0.38148 0.0
H333 H 0.74851 0.48883 0.32051 0.0
C334 C 0.69541 0.57344 0.65881 0.0
C335 C 0.69782 0.56056 0.61169 0.0
C336 C 0.71286 0.57284 0.68858 0.0
C337 C 0.7714 0.58444 0.69184 0.0
H338 H 0.76265 0.53132 0.81811 0.0
C339 C 0.83551 0.60995 0.83537 0.0
C340 C 0.82723 0.63777 0.87426 0.0
C341 C 0.8217 0.58771 0.80198 0.0
C342 C 0.76541 0.54603 0.78291 0.0
H343 H 0.72113 0.53864 0.55923 0.0
H344 H 0.75164 0.53854 0.61129 0.0
H345 H 0.7346 0.51889 0.76131 0.0
H346 H 0.79822 0.66144 0.91005 0.0
H347 H 0.77436 0.62219 0.85279 0.0
H348 H 0.80199 0.61376 0.71438 0.0
C349 C 0.73604 0.54866 0.62501 0.0
C350 C 0.7493 0.53903 0.75031 0.0
C351 C 0.71847 0.54882 0.59509 0.0
C352 C 0.80506 0.64035 0.88037 0.0
C353 C 0.79137 0.61749 0.84765 0.0
C354 C 0.78757 0.59154 0.72462 0.0
C355 C 0.73337 0.5599 0.67228 0.0
C356 C 0.75178 0.55988 0.70475 0.0
C357 C 0.79947 0.59196 0.80759 0.0
C358 C 0.78442 0.57419 0.77089 0.0
H359 H 0.68007 0.58439 0.67317 0.0
H360 H 0.71024 0.58347 0.72446 0.0
H361 H 0.77384 0.60119 0.65713 0.0
H362 H 0.85255 0.60776 0.82972 0.0
H363 H 0.82837 0.56812 0.77147 0.0
C364 C 0.31505 0.86759 0.93948 0.0
C365 C 0.32524 0.81535 0.92974 0.0
C366 C 0.30163 0.89398 0.9069 0.0
C367 C 0.28836 0.89621 0.78188 0.0
H368 H 0.23421 0.95777 0.82287 0.0
C369 C 0.2279 -0.00282 0.65326 0.0
C370 C 0.20688 0.97742 0.65852 0.0
C371 C 0.24311 0.98625 0.68776 0.0
C372 C 0.24928 0.94085 0.81087 0.0
H373 H 0.32947 0.75057 0.87755 0.0
H374 H 0.30582 0.79589 0.82121 0.0
H375 H 0.25944 0.91979 0.87969 0.0
H376 H 0.18516 0.93288 0.70505 0.0
H377 H 0.21155 0.91392 0.76479 0.0
H378 H 0.27788 0.91539 0.71294 0.0
C379 C 0.30838 0.81682 0.85389 0.0
C380 C 0.26384 0.91954 0.84348 0.0
C381 C 0.32174 0.79038 0.88649 0.0
C382 C 0.20122 0.94858 0.69975 0.0
C383 C 0.21634 0.93803 0.73424 0.0
C384 C 0.27383 0.91767 0.74928 0.0
C385 C 0.29811 0.8689 0.86368 0.0
C386 C 0.28339 0.89591 0.82932 0.0
C387 C 0.23756 0.9558 0.72837 0.0
C388 C 0.25394 0.93922 0.76332 0.0
H389 H 0.3172 0.88782 0.97255 0.0
H390 H 0.29409 0.93425 0.91547 0.0
H391 H 0.3034 0.87915 0.76983 0.0
H392 H 0.23279 0.01957 0.62196 0.0
H393 H 0.25928 0.00104 0.6824 0.0
C394 C 0.3111 0.85052 0.15496 0.0
C395 C 0.33332 0.85501 0.15842 0.0
C396 C 0.2979 0.87044 0.19 0.0
C397 C 0.29652 0.89152 0.31429 0.0
H398 H 0.2411 0.95558 0.28438 0.0
C399 C 0.22638 0.92323 0.44717 0.0
C400 C 0.20638 0.90523 0.43058 0.0
C401 C 0.2442 0.92519 0.41775 0.0
C402 C 0.25655 0.93806 0.29345 0.0
H403 H 0.35923 0.88536 0.20084 0.0
H404 H 0.33593 0.91999 0.26316 0.0
H405 H 0.26844 0.95114 0.22485 0.0
H406 H 0.19039 0.86987 0.37085 0.0
H407 H 0.22095 0.87451 0.32023 0.0
H408 H 0.28419 0.87712 0.38286 0.0
C409 C 0.32882 0.90113 0.2329 0.0
C410 C 0.27222 0.93549 0.25932 0.0
C411 C 0.34212 0.88179 0.19717 0.0
C412 C 0.20512 0.88604 0.38478 0.0
C413 C 0.22274 0.88862 0.35552 0.0
C414 C 0.28079 0.89456 0.34875 0.0
C415 C 0.30654 0.895 0.22984 0.0
C416 C 0.29205 0.90982 0.26871 0.0
C417 C 0.24233 0.90961 0.37118 0.0
C418 C 0.26034 0.91558 0.33802 0.0
H419 H 0.30385 0.83013 0.1255 0.0
H420 H 0.28088 0.8642 0.18671 0.0
H421 H 0.31163 0.8714 0.32261 0.0
H422 H 0.22813 0.93835 0.4821 0.0
H423 H 0.25916 0.94126 0.43083 0.0
C424 C 0.08853 0.17593 0.21324 0.0
C425 C 0.08803 0.15577 0.16768 0.0
C426 C 0.07091 0.20439 0.23193 0.0
C427 C 0.02011 0.27802 0.20026 0.0
H428 H 1.0033 0.23452 0.32492 0.0
C429 C 0.93525 0.31225 0.27343 0.0
C430 C 0.93286 0.32347 0.32081 0.0
C431 C 0.95544 0.30249 0.2545 0.0
C432 C 1.00794 0.24807 0.29037 0.0
H433 H 0.0687 0.15099 0.10575 0.0
H434 H 0.03798 0.19988 0.13842 0.0
H435 H 0.03614 0.19643 0.29265 0.0
H436 H 0.95008 0.33708 0.38469 0.0
H437 H 0.98526 0.32068 0.35152 0.0
H438 H 0.99155 0.32858 0.19772 0.0
C439 C 0.05207 0.1944 0.15961 0.0
C440 C 0.02681 0.22612 0.27181 0.0
C441 C 0.06968 0.16598 0.14093 0.0
C442 C 0.95128 0.32849 0.34809 0.0
C443 C 0.97147 0.31848 0.32918 0.0
C444 C 1.0012 0.29994 0.21883 0.0
C445 C 0.05235 0.21342 0.20553 0.0
C446 C 0.03302 0.24019 0.22629 0.0
C447 C 0.97374 0.30359 0.28249 0.0
C448 C 0.99475 0.2847 0.26394 0.0
H449 H 0.10242 0.16904 0.23479 0.0
H450 H 0.07181 0.21914 0.26718 0.0
H451 H 0.02456 0.29054 0.16536 0.0
H452 H 0.92143 0.30804 0.25138 0.0
H453 H 0.95656 0.29087 0.21847 0.0
C454 C 0.44026 0.16497 0.70478 0.0
C455 C 0.42397 0.17172 0.73774 0.0
C456 C 0.46169 0.1709 0.7174 0.0
C457 C 0.49842 0.18056 0.81838 0.0
H458 H 0.53009 0.28398 0.73801 0.0
C459 C 0.57125 0.30834 0.88123 0.0
C460 C 0.58812 0.31912 0.85029 0.0
C461 C 0.55272 0.28095 0.86643 0.0
C462 C 0.52169 0.25422 0.76053 0.0
H463 H 0.41756 0.18554 0.81042 0.0
H464 H 0.45472 0.19549 0.83235 0.0
H465 H 0.49532 0.24969 0.71394 0.0
H466 H 0.59892 0.3078 0.77972 0.0
H467 H 0.56671 0.25951 0.75409 0.0
H468 H 0.52461 0.18621 0.86546 0.0
C469 C 0.45105 0.18577 0.79675 0.0
C470 C 0.5017 0.23444 0.74665 0.0
C471 C 0.42968 0.18025 0.78411 0.0
C472 C 0.58622 0.30045 0.80447 0.0
C473 C 0.56768 0.27302 0.78967 0.0
C474 C 0.51843 0.20028 0.83224 0.0
C475 C 0.4673 0.18312 0.76331 0.0
C476 C 0.48963 0.1982 0.77576 0.0
C477 C 0.55056 0.26355 0.82031 0.0
C478 C 0.53016 0.23825 0.80388 0.0
H479 H 0.43646 0.15832 0.66876 0.0
H480 H 0.47382 0.16771 0.6909 0.0
H481 H 0.48969 0.15204 0.84136 0.0
H482 H 0.57212 0.32219 0.91674 0.0
H483 H 0.53979 0.27513 0.89089 0.0
C484 C 0.07402 0.79399 0.65403 0.0
C485 C 0.0831 0.84691 0.64146 0.0
C486 C 0.05409 0.79163 0.67578 0.0
C487 C 1.00567 0.87858 0.7018 0.0
H488 H 0.99946 0.76887 0.80279 0.0
C489 C 0.92568 0.84154 0.79899 0.0
C490 C 0.92669 0.82832 0.8465 0.0
C491 C 0.94437 0.84632 0.77269 0.0
C492 C 1.00096 0.80022 0.77501 0.0
H493 H 0.07814 0.93898 0.64177 0.0
H494 H 0.04369 0.93496 0.6798 0.0
H495 H 0.03234 0.77117 0.75843 0.0
H496 H 0.94803 0.81319 0.90418 0.0
H497 H 0.98058 0.82282 0.8588 0.0
H498 H 0.97451 0.90885 0.71953 0.0
C499 C 0.0517 0.89506 0.67209 0.0
C500 C 0.01974 0.80088 0.74899 0.0
C501 C 0.07154 0.89737 0.65017 0.0
C502 C 0.94676 0.82254 0.86751 0.0
C503 C 0.9654 0.82772 0.84138 0.0
C504 C 0.9869 0.87807 0.72799 0.0
C505 C 0.04282 0.84222 0.68577 0.0
C506 C 0.0224 0.84018 0.71213 0.0
C507 C 0.96447 0.83836 0.79342 0.0
C508 C 0.98435 0.83908 0.76513 0.0
H509 H 0.08239 0.75438 0.6473 0.0
H510 H 0.04758 0.7501 0.68499 0.0
H511 H 1.00705 0.90905 0.67336 0.0
H512 H 0.91046 0.8456 0.78172 0.0
H513 H 0.94301 0.85408 0.73581 0.0
C514 C 0.4497 0.68624 0.16406 0.0
C515 C 0.42954 0.66545 0.17726 0.0
C516 C 0.467 0.68172 0.19401 0.0
C517 C 0.48971 0.60624 0.29332 0.0
H518 H 0.5193 0.74966 0.31223 0.0
C519 C 0.56175 0.62258 0.41756 0.0
C520 C 0.57894 0.65619 0.40182 0.0
C521 C 0.54219 0.62406 0.39441 0.0
C522 C 0.5114 0.70909 0.30706 0.0
H523 H 0.41218 0.62019 0.23133 0.0
H524 H 0.44281 0.61103 0.28356 0.0
H525 H 0.4882 0.74759 0.26215 0.0
H526 H 0.58893 0.71777 0.34935 0.0
H527 H 0.55515 0.72001 0.30887 0.0
H528 H 0.51338 0.56721 0.33687 0.0
C529 C 0.44495 0.63149 0.25003 0.0
C530 C 0.49353 0.70801 0.27848 0.0
C531 C 0.42747 0.63654 0.22007 0.0
C532 C 0.57595 0.69223 0.36303 0.0
C533 C 0.55649 0.69344 0.33974 0.0
C534 C 0.50781 0.60714 0.32157 0.0
C535 C 0.46469 0.65563 0.23772 0.0
C536 C 0.48271 0.65648 0.27073 0.0
C537 C 0.53939 0.65901 0.35482 0.0
C538 C 0.5191 0.65848 0.32816 0.0
H539 H 0.45202 0.70732 0.13085 0.0
H540 H 0.48217 0.69954 0.18325 0.0
H541 H 0.48165 0.56596 0.2878 0.0
H542 H 0.56349 0.59472 0.44758 0.0
H543 H 0.52929 0.59765 0.40745 0.0
C544 C 0.09111 0.86387 0.05048 0.0
C545 C 0.09396 0.89205 0.09268 0.0
C546 C 0.07274 0.83184 0.04237 0.0
C547 C 0.02786 0.75862 0.1013 0.0
H548 H 0.99904 0.78048 0.98386 0.0
C549 C 0.93964 0.70237 0.07325 0.0
C550 C 0.93263 0.68668 0.02909 0.0
C551 C 0.96097 0.71615 0.08091 0.0
C552 C 1.00708 0.77277 0.01649 0.0
H553 H 0.0798 0.90759 0.15973 0.0
H554 H 0.04762 0.85212 0.14542 0.0
H555 H 0.03285 0.82817 0.99738 0.0
H556 H 0.94293 0.66881 0.95915 0.0
H557 H 0.98031 0.69189 0.97275 0.0
H558 H 1.00195 0.70378 0.12065 0.0
C559 C 0.05971 0.85456 0.11871 0.0
C560 C 0.02645 0.8004 0.02431 0.0
C561 C 0.07804 0.88692 0.12673 0.0
C562 C 0.94777 0.68087 0.99358 0.0
C563 C 0.96917 0.69474 1.00125 0.0
C564 C 1.00853 0.73073 0.0934 0.0
C565 C 0.05679 0.82689 0.07632 0.0
C566 C 0.0369 0.79443 0.06707 0.0
C567 C 0.97588 0.71447 0.04463 0.0
C568 C 0.99769 0.73824 0.05118 0.0
H569 H 0.10291 0.86735 0.02329 0.0
H570 H 0.07106 0.81075 1.00948 0.0
H571 H 0.0357 0.75234 0.13433 0.0
H572 H 0.92843 0.70712 0.10144 0.0
H573 H 0.96544 0.73147 0.11468 0.0
C574 C 0.58314 0.43819 0.39992 0.0
C575 C 0.6007 0.43104 0.42966 0.0
C576 C 0.56297 0.41827 0.413 0.0
C577 C 0.53261 0.38697 0.51942 0.0
H578 H 0.48996 0.32844 0.43576 0.0
C579 C 0.45084 0.30836 0.5846 0.0
C580 C 0.43275 0.32238 0.55802 0.0
C581 C 0.47132 0.31888 0.56759 0.0
C582 C 0.50164 0.34529 0.45945 0.0
H583 H 0.61114 0.39322 0.49472 0.0
H584 H 0.57614 0.35716 0.51691 0.0
H585 H 0.52603 0.34725 0.40743 0.0
H586 H 0.42219 0.35856 0.49246 0.0
H587 H 0.45799 0.37802 0.46307 0.0
H588 H 0.5083 0.38568 0.57128 0.0
C589 C 0.57781 0.37964 0.48409 0.0
C590 C 0.52233 0.35592 0.44323 0.0
C591 C 0.59794 0.39981 0.47115 0.0
C592 C 0.43572 0.34766 0.51403 0.0
C593 C 0.45626 0.35815 0.49694 0.0
C594 C 0.51199 0.37638 0.53558 0.0
C595 C 0.55993 0.39046 0.45598 0.0
C596 C 0.53808 0.37683 0.47308 0.0
C597 C 0.47432 0.34387 0.52354 0.0
C598 C 0.49623 0.35537 0.50586 0.0
H599 H 0.58465 0.46238 0.36784 0.0
H600 H 0.54956 0.42761 0.39058 0.0
H601 H 0.54415 0.40441 0.54313 0.0
H602 H 0.44923 0.28949 0.61882 0.0
H603 H 0.48483 0.30678 0.58886 0.0
C604 C 0.45153 0.80553 0.02464 0.0
C605 C 0.43557 0.80989 0.9906 0.0
C606 C 0.47194 0.78531 0.01336 0.0
C607 C 0.49679 0.68834 0.93142 0.0
H608 H 0.55059 0.74918 0.97372 0.0
C609 C 0.57662 0.58724 0.87536 0.0
C610 C 0.59344 0.58582 0.90728 0.0
C611 C 0.55802 0.61838 0.88452 0.0
C612 C 0.53571 0.73106 0.96212 0.0
H613 H 0.42915 0.8006 0.91738 0.0
H614 H 0.46456 0.76546 0.89801 0.0
H615 H 0.51742 0.79914 0.99199 0.0
H616 H 0.60379 0.61513 0.97425 0.0
H617 H 0.57121 0.66784 0.99104 0.0
H618 H 0.51465 0.61928 0.90302 0.0
C619 C 0.46121 0.77684 0.93347 0.0
C620 C 0.51671 0.75999 0.97244 0.0
C621 C 0.44095 0.79737 0.9446 0.0
C622 C 0.59122 0.61606 0.94867 0.0
C623 C 0.57252 0.64654 0.95817 0.0
C624 C 0.51568 0.65904 0.92166 0.0
C625 C 0.47671 0.76879 0.96793 0.0
C626 C 0.49706 0.73907 0.95695 0.0
C627 C 0.55562 0.64822 0.92623 0.0
C628 C 0.53546 0.67999 0.93667 0.0
H629 H 0.44797 0.81463 0.06044 0.0
H630 H 0.48357 0.77955 0.04067 0.0
H631 H 0.48185 0.67052 0.91976 0.0
H632 H 0.57798 0.56501 0.84291 0.0
H633 H 0.54562 0.61945 0.85854 0.0
C634 C 0.10048 0.07991 0.53269 0.0
C635 C 0.10323 0.06268 0.57909 0.0
C636 C 0.08037 0.09594 0.51612 0.0
C637 C 0.02498 0.13356 0.55193 0.0
H638 H 1.01042 0.06953 0.43317 0.0
C639 C 0.93807 0.12334 0.48591 0.0
C640 C 0.93452 0.13788 0.43917 0.0
C641 C 0.9588 0.11631 0.50288 0.0
C642 C 0.01427 0.08828 0.46613 0.0
H643 H 0.08713 0.05221 0.6451 0.0
H644 H 0.05209 0.07938 0.61616 0.0
H645 H 0.04641 0.05797 0.46315 0.0
H646 H 0.95016 0.15462 0.37342 0.0
H647 H 0.98622 0.14294 0.40305 0.0
H648 H 0.99265 0.16304 0.55506 0.0
C649 C 0.06549 0.08107 0.59254 0.0
C650 C 0.03497 0.08186 0.48331 0.0
C651 C 0.08564 0.06542 0.60919 0.0
C652 C 0.95225 0.14395 0.40966 0.0
C653 C 0.97296 0.13678 0.42659 0.0
C654 C 1.00424 0.13981 0.53478 0.0
C655 C 0.06247 0.09486 0.54547 0.0
C656 C 0.04062 0.10429 0.52649 0.0
C657 C 0.97652 0.12338 0.47351 0.0
C658 C 0.99861 0.11708 0.49173 0.0
H659 H 0.1137 0.07868 0.50859 0.0
H660 H 0.07876 0.10768 0.47993 0.0
H661 H 0.0288 0.15199 0.58502 0.0
H662 H 0.92487 0.1189 0.50978 0.0
H663 H 0.96096 0.10527 0.53908 0.0
loop_
_geom_bond_atom_site_label_1
_geom_bond_atom_site_label_2
_geom_bond_distance
_geom_bond_site_symmetry_2
_ccdc_geom_bond_type
Cu0 N1 1.999 . S
Cu0 O6 1.974 . S
Cu0 N11 1.985 . S
Cu0 O20 1.959 . S
N1 Cu0 1.999 . S
N1 C3 1.263 . S
N1 C5 1.389 . S
N2 C3 1.358 . S
N2 C4 1.400 . S
C3 N1 1.263 . S
C3 N2 1.358 . S
C3 H9 0.930 . S
C4 N2 1.400 . S
C4 C5 1.351 . S
C4 H21 0.930 . S
C5 N1 1.389 . S
C5 C4 1.351 . S
C5 H10 0.930 . S
O6 Cu0 1.974 . S
O6 C16 1.282 . S
C7 O8 1.261 . S
C7 O20 1.251 . S
O8 C7 1.261 . S
H9 C3 0.930 . S
H10 C5 0.930 . S
N11 Cu0 1.985 . S
N11 C13 1.335 . S
N11 C14 1.390 . S
N12 C13 1.345 . S
N12 C15 1.336 . S
C13 N11 1.335 . S
C13 N12 1.345 . S
C13 H18 0.930 . S
C14 N11 1.390 . S
C14 C15 1.346 . S
C14 H19 0.930 . S
C15 N12 1.336 . S
C15 C14 1.346 . S
C15 H22 0.929 . S
C16 O6 1.282 . S
C16 O17 1.216 . S
O17 C16 1.216 . S
H18 C13 0.930 . S
H19 C14 0.930 . S
O20 Cu0 1.959 . S
O20 C7 1.251 . S
H21 C4 0.930 . S
H22 C15 0.929 . S
Cu23 N24 1.999 . S
Cu23 O29 1.974 . S
Cu23 N34 1.985 . S
Cu23 O43 1.959 . S
N24 Cu23 1.999 . S
N24 C26 1.263 . S
N24 C28 1.389 . S
N25 C26 1.358 . S
N25 C27 1.400 . S
C26 N24 1.263 . S
C26 N25 1.358 . S
C26 H32 0.930 . S
C27 N25 1.400 . S
C27 C28 1.351 . S
C27 H44 0.930 . S
C28 N24 1.389 . S
C28 C27 1.351 . S
C28 H33 0.930 . S
O29 Cu23 1.974 . S
O29 C39 1.282 . S
C30 O31 1.261 . S
C30 O43 1.251 . S
O31 C30 1.261 . S
H32 C26 0.930 . S
H33 C28 0.930 . S
N34 Cu23 1.985 . S
N34 C36 1.335 . S
N34 C37 1.390 . S
N35 C36 1.345 . S
N35 C38 1.336 . S
C36 N34 1.335 . S
C36 N35 1.345 . S
C36 H41 0.930 . S
C37 N34 1.390 . S
C37 C38 1.346 . S
C37 H42 0.930 . S
C38 N35 1.336 . S
C38 C37 1.346 . S
C38 H45 0.929 . S
C39 O29 1.282 . S
C39 O40 1.216 . S
O40 C39 1.216 . S
H41 C36 0.930 . S
H42 C37 0.930 . S
O43 Cu23 1.959 . S
O43 C30 1.251 . S
H44 C27 0.930 . S
H45 C38 0.929 . S
Cu46 N47 1.999 . S
Cu46 O52 1.974 . S
Cu46 N57 1.985 . S
Cu46 O66 1.959 . S
N47 Cu46 1.999 . S
N47 C49 1.263 . S
N47 C51 1.389 . S
N48 C49 1.358 . S
N48 C50 1.400 . S
C49 N47 1.263 . S
C49 N48 1.358 . S
C49 H55 0.930 . S
C50 N48 1.400 . S
C50 C51 1.351 . S
C50 H67 0.930 . S
C51 N47 1.389 . S
C51 C50 1.351 . S
C51 H56 0.930 . S
O52 Cu46 1.974 . S
O52 C62 1.282 . S
C53 O54 1.261 . S
C53 O66 1.251 . S
O54 C53 1.261 . S
H55 C49 0.930 . S
H56 C51 0.930 . S
N57 Cu46 1.985 . S
N57 C59 1.335 . S
N57 C60 1.390 . S
N58 C59 1.345 . S
N58 C61 1.336 . S
C59 N57 1.335 . S
C59 N58 1.345 . S
C59 H64 0.930 . S
C60 N57 1.390 . S
C60 C61 1.346 . S
C60 H65 0.930 . S
C61 N58 1.336 . S
C61 C60 1.346 . S
C61 H68 0.929 . S
C62 O52 1.282 . S
C62 O63 1.216 . S
O63 C62 1.216 . S
H64 C59 0.930 . S
H65 C60 0.930 . S
O66 Cu46 1.959 . S
O66 C53 1.251 . S
H67 C50 0.930 . S
H68 C61 0.929 . S
Cu69 N70 1.999 . S
Cu69 O75 1.974 . S
Cu69 N80 1.985 . S
Cu69 O89 1.959 . S
N70 Cu69 1.999 . S
N70 C72 1.263 . S
N70 C74 1.389 . S
N71 C72 1.358 . S
N71 C73 1.400 . S
C72 N70 1.263 . S
C72 N71 1.358 . S
C72 H78 0.930 . S
C73 N71 1.400 . S
C73 C74 1.351 . S
C73 H90 0.930 . S
C74 N70 1.389 . S
C74 C73 1.351 . S
C74 H79 0.930 . S
O75 Cu69 1.974 . S
O75 C85 1.282 . S
C76 O77 1.261 . S
C76 O89 1.251 . S
O77 C76 1.261 . S
H78 C72 0.930 . S
H79 C74 0.930 . S
N80 Cu69 1.985 . S
N80 C82 1.335 . S
N80 C83 1.390 . S
N81 C82 1.345 . S
N81 C84 1.336 . S
C82 N80 1.335 . S
C82 N81 1.345 . S
C82 H87 0.930 . S
C83 N80 1.390 . S
C83 C84 1.346 . S
C83 H88 0.930 . S
C84 N81 1.336 . S
C84 C83 1.346 . S
C84 H91 0.929 . S
C85 O75 1.282 . S
C85 O86 1.216 . S
O86 C85 1.216 . S
H87 C82 0.930 . S
H88 C83 0.930 . S
O89 Cu69 1.959 . S
O89 C76 1.251 . S
H90 C73 0.930 . S
H91 C84 0.929 . S
Cu92 N93 1.999 . S
Cu92 O98 1.974 . S
Cu92 N103 1.985 . S
Cu92 O112 1.959 . S
N93 Cu92 1.999 . S
N93 C95 1.263 . S
N93 C97 1.389 . S
N94 C95 1.358 . S
N94 C96 1.400 . S
C95 N93 1.263 . S
C95 N94 1.358 . S
C95 H101 0.930 . S
C96 N94 1.400 . S
C96 C97 1.351 . S
C96 H113 0.930 . S
C97 N93 1.389 . S
C97 C96 1.351 . S
C97 H102 0.930 . S
O98 Cu92 1.974 . S
O98 C108 1.282 . S
C99 O100 1.261 . S
C99 O112 1.251 . S
O100 C99 1.261 . S
H101 C95 0.930 . S
H102 C97 0.930 . S
N103 Cu92 1.985 . S
N103 C105 1.335 . S
N103 C106 1.390 1_556 S
N104 C105 1.345 1_554 S
N104 C107 1.336 . S
C105 N103 1.335 . S
C105 N104 1.345 1_556 S
C105 H110 0.930 . S
C106 N103 1.390 1_554 S
C106 C107 1.346 . S
C106 H111 0.930 . S
C107 N104 1.336 . S
C107 C106 1.346 . S
C107 H114 0.929 . S
C108 O98 1.282 . S
C108 O109 1.216 . S
O109 C108 1.216 . S
H110 C105 0.930 . S
H111 C106 0.930 . S
O112 Cu92 1.959 . S
O112 C99 1.251 . S
H113 C96 0.930 . S
H114 C107 0.929 . S
Cu115 N116 1.999 . S
Cu115 O121 1.974 . S
Cu115 N126 1.985 . S
Cu115 O135 1.959 . S
N116 Cu115 1.999 . S
N116 C118 1.263 . S
N116 C120 1.389 . S
N117 C118 1.358 . S
N117 C119 1.400 . S
C118 N116 1.263 . S
C118 N117 1.358 . S
C118 H124 0.930 . S
C119 N117 1.400 . S
C119 C120 1.351 . S
C119 H136 0.930 . S
C120 N116 1.389 . S
C120 C119 1.351 . S
C120 H125 0.930 . S
O121 Cu115 1.974 . S
O121 C131 1.282 . S
C122 O123 1.261 . S
C122 O135 1.251 . S
O123 C122 1.261 . S
H124 C118 0.930 . S
H125 C120 0.930 . S
N126 Cu115 1.985 . S
N126 C128 1.335 . S
N126 C129 1.390 . S
N127 C128 1.345 . S
N127 C130 1.336 . S
C128 N126 1.335 . S
C128 N127 1.345 . S
C128 H133 0.930 . S
C129 N126 1.390 . S
C129 C130 1.346 . S
C129 H134 0.930 . S
C130 N127 1.336 . S
C130 C129 1.346 . S
C130 H137 0.929 . S
C131 O121 1.282 . S
C131 O132 1.216 . S
O132 C131 1.216 . S
H133 C128 0.930 . S
H134 C129 0.930 . S
O135 Cu115 1.959 . S
O135 C122 1.251 . S
H136 C119 0.930 . S
H137 C130 0.929 . S
Cu138 N139 1.999 . S
Cu138 O144 1.974 . S
Cu138 N149 1.985 . S
Cu138 O158 1.959 . S
N139 Cu138 1.999 . S
N139 C141 1.263 . S
N139 C143 1.389 . S
N140 C141 1.358 . S
N140 C142 1.400 . S
C141 N139 1.263 . S
C141 N140 1.358 . S
C141 H147 0.930 . S
C142 N140 1.400 . S
C142 C143 1.351 . S
C142 H159 0.930 . S
C143 N139 1.389 . S
C143 C142 1.351 . S
C143 H148 0.917 1_565 S
O144 Cu138 1.974 . S
O144 C154 1.282 . S
C145 O146 1.261 . S
C145 O158 1.251 . S
O146 C145 1.261 . S
H147 C141 0.930 . S
H148 C143 0.917 1_545 S
N149 Cu138 1.985 . S
N149 C151 1.335 . S
N149 C152 1.390 1_554 S
N150 C151 1.345 1_556 S
N150 C153 1.336 . S
C151 N149 1.335 . S
C151 N150 1.345 1_554 S
C151 H156 0.930 . S
C152 N149 1.390 1_556 S
C152 C153 1.346 . S
C152 H157 0.930 . S
C153 N150 1.336 . S
C153 C152 1.346 . S
C153 H160 0.929 . S
C154 O144 1.282 . S
C154 O155 1.216 . S
O155 C154 1.216 . S
H156 C151 0.930 . S
H157 C152 0.930 . S
O158 Cu138 1.959 . S
O158 C145 1.251 . S
H159 C142 0.930 . S
H160 C153 0.929 . S
Cu161 N162 1.999 . S
Cu161 O167 1.974 . S
Cu161 N172 1.985 . S
Cu161 O181 1.959 . S
N162 Cu161 1.999 . S
N162 C164 1.263 . S
N162 C166 1.389 . S
N163 C164 1.358 . S
N163 C165 1.400 . S
C164 N162 1.263 . S
C164 N163 1.358 . S
C164 H170 0.930 . S
C165 N163 1.400 . S
C165 C166 1.351 . S
C165 H182 0.930 . S
C166 N162 1.389 . S
C166 C165 1.351 . S
C166 H171 0.930 . S
O167 Cu161 1.974 . S
O167 C177 1.282 1_565 S
C168 O169 1.261 . S
C168 O181 1.251 . S
O169 C168 1.261 . S
H170 C164 0.930 . S
H171 C166 0.930 . S
N172 Cu161 1.985 . S
N172 C174 1.335 . S
N172 C175 1.390 1_565 S
N173 C174 1.345 . S
N173 C176 1.336 1_565 S
C174 N172 1.335 . S
C174 N173 1.345 . S
C174 H179 0.930 . S
C175 N172 1.390 1_545 S
C175 C176 1.346 . S
C175 H180 0.930 . S
C176 N173 1.336 1_545 S
C176 C175 1.346 . S
C176 H183 0.929 . S
C177 O167 1.282 1_545 S
C177 O178 1.216 . S
O178 C177 1.216 . S
H179 C174 0.930 . S
H180 C175 0.930 . S
O181 Cu161 1.959 . S
O181 C168 1.251 . S
H182 C165 0.930 . S
H183 C176 0.929 . S
C184 C185 1.349 . S
C184 C186 1.327 . S
C184 H209 0.950 . S
C185 C184 1.349 . S
C185 C201 1.349 . S
C186 C184 1.327 . S
C186 C205 1.429 . S
C186 H210 0.950 . S
C187 C204 1.574 . S
C187 C206 1.368 . S
C187 H211 0.949 . S
H188 C192 0.949 . S
C189 C190 1.349 . S
C189 C191 1.327 . S
C189 H212 0.950 . S
C190 C189 1.349 . S
C190 C202 1.349 . S
C191 C189 1.327 . S
C191 C207 1.429 1_554 S
C191 H213 0.950 . S
C192 H188 0.949 . S
C192 C200 1.574 . S
C192 C208 1.368 . S
H193 C201 0.950 . S
H194 C199 0.950 . S
H195 C200 0.949 . S
H196 C202 0.950 . S
H197 C203 0.950 . S
H198 C204 0.949 . S
C199 H194 0.950 . S
C199 C201 1.327 . S
C199 C205 1.429 . S
C200 C192 1.574 . S
C200 H195 0.949 . S
C200 C206 1.368 . S
C201 C185 1.349 . S
C201 H193 0.950 . S
C201 C199 1.327 . S
C202 C190 1.349 . S
C202 H196 0.950 . S
C202 C203 1.327 1_554 S
C203 H197 0.950 . S
C203 C202 1.327 1_556 S
C203 C207 1.429 . S
C204 C187 1.574 . S
C204 H198 0.949 . S
C204 C208 1.368 . S
C205 C186 1.429 . S
C205 C199 1.429 . S
C205 C206 1.523 . S
C206 C187 1.368 . S
C206 C200 1.368 . S
C206 C205 1.523 . S
C207 C191 1.429 1_556 S
C207 C203 1.429 . S
C207 C208 1.523 . S
C208 C192 1.368 . S
C208 C204 1.368 . S
C208 C207 1.523 . S
H209 C184 0.950 . S
H210 C186 0.950 . S
H211 C187 0.949 . S
H212 C189 0.950 . S
H213 C191 0.950 . S
C214 C215 1.349 . S
C214 C216 1.327 . S
C214 H239 0.950 . S
C215 C214 1.349 . S
C215 C231 1.349 . S
C216 C214 1.327 . S
C216 C235 1.429 . S
C216 H240 0.950 . S
C217 C234 1.574 . S
C217 C236 1.368 . S
C217 H241 0.949 . S
H218 C222 0.949 . S
C219 C220 1.349 . S
C219 C221 1.327 . S
C219 H242 0.950 . S
C220 C219 1.349 . S
C220 C232 1.349 . S
C221 C219 1.327 . S
C221 C237 1.429 . S
C221 H243 0.950 . S
C222 H218 0.949 . S
C222 C230 1.574 . S
C222 C238 1.368 . S
H223 C231 0.950 . S
H224 C229 0.950 . S
H225 C230 0.949 . S
H226 C232 0.950 . S
H227 C233 0.950 . S
H228 C234 0.949 . S
C229 H224 0.950 . S
C229 C231 1.327 . S
C229 C235 1.429 . S
C230 C222 1.574 . S
C230 H225 0.949 . S
C230 C236 1.368 . S
C231 C215 1.349 . S
C231 H223 0.950 . S
C231 C229 1.327 . S
C232 C220 1.349 . S
C232 H226 0.950 . S
C232 C233 1.327 . S
C233 H227 0.950 . S
C233 C232 1.327 . S
C233 C237 1.429 . S
C234 C217 1.574 . S
C234 H228 0.949 . S
C234 C238 1.368 . S
C235 C216 1.429 . S
C235 C229 1.429 . S
C235 C236 1.523 . S
C236 C217 1.368 . S
C236 C230 1.368 . S
C236 C235 1.523 . S
C237 C221 1.429 . S
C237 C233 1.429 . S
C237 C238 1.523 . S
C238 C222 1.368 . S
C238 C234 1.368 . S
C238 C237 1.523 . S
H239 C214 0.950 . S
H240 C216 0.950 . S
H241 C217 0.949 . S
H242 C219 0.950 . S
H243 C221 0.950 . S
C244 C245 1.349 . S
C244 C246 1.327 . S
C244 H269 0.950 . S
C245 C244 1.349 . S
C245 C261 1.349 . S
C246 C244 1.327 . S
C246 C265 1.429 . S
C246 H270 0.950 . S
C247 C264 1.574 . S
C247 C266 1.368 . S
C247 H271 0.949 . S
H248 C252 0.949 . S
C249 C250 1.349 . S
C249 C251 1.327 1_556 S
C249 H272 0.950 . S
C250 C249 1.349 . S
C250 C262 1.349 . S
C251 C249 1.327 1_554 S
C251 C267 1.429 . S
C251 H273 0.950 . S
C252 H248 0.949 . S
C252 C260 1.574 . S
C252 C268 1.368 . S
H253 C261 0.950 . S
H254 C259 0.950 . S
H255 C260 0.949 . S
H256 C262 0.950 . S
H257 C263 0.950 . S
H258 C264 0.949 . S
C259 H254 0.950 . S
C259 C261 1.327 . S
C259 C265 1.429 . S
C260 C252 1.574 . S
C260 H255 0.949 . S
C260 C266 1.368 . S
C261 C245 1.349 . S
C261 H253 0.950 . S
C261 C259 1.327 . S
C262 C250 1.349 . S
C262 H256 0.950 . S
C262 C263 1.327 . S
C263 H257 0.950 . S
C263 C262 1.327 . S
C263 C267 1.429 1_556 S
C264 C247 1.574 . S
C264 H258 0.949 . S
C264 C268 1.368 . S
C265 C246 1.429 . S
C265 C259 1.429 . S
C265 C266 1.523 . S
C266 C247 1.368 . S
C266 C260 1.368 . S
C266 C265 1.523 . S
C267 C251 1.429 . S
C267 C263 1.429 1_554 S
C267 C268 1.523 . S
C268 C252 1.368 . S
C268 C264 1.368 . S
C268 C267 1.523 . S
H269 C244 0.950 . S
H270 C246 0.950 . S
H271 C247 0.949 . S
H272 C249 0.950 . S
H273 C251 0.950 . S
C274 C275 1.349 . S
C274 C276 1.327 . S
C274 H299 0.950 . S
C275 C274 1.349 . S
C275 C291 1.349 . S
C276 C274 1.327 . S
C276 C295 1.429 . S
C276 H300 0.950 . S
C277 C294 1.574 . S
C277 C296 1.368 . S
C277 H301 0.949 . S
H278 C282 0.949 . S
C279 C280 1.349 . S
C279 C281 1.327 . S
C279 H302 0.950 . S
C280 C279 1.349 . S
C280 C292 1.349 . S
C281 C279 1.327 . S
C281 C297 1.429 . S
C281 H303 0.950 . S
C282 H278 0.949 . S
C282 C290 1.574 . S
C282 C298 1.368 . S
H283 C291 0.950 . S
H284 C289 0.950 . S
H285 C290 0.949 . S
H286 C292 0.950 . S
H287 C293 0.950 . S
H288 C294 0.949 . S
C289 H284 0.950 . S
C289 C291 1.327 . S
C289 C295 1.429 . S
C290 C282 1.574 . S
C290 H285 0.949 . S
C290 C296 1.368 . S
C291 C275 1.349 . S
C291 H283 0.950 . S
C291 C289 1.327 . S
C292 C280 1.349 . S
C292 H286 0.950 . S
C292 C293 1.327 . S
C293 H287 0.950 . S
C293 C292 1.327 . S
C293 C297 1.429 . S
C294 C277 1.574 . S
C294 H288 0.949 . S
C294 C298 1.368 . S
C295 C276 1.429 . S
C295 C289 1.429 . S
C295 C296 1.523 . S
C296 C277 1.368 . S
C296 C290 1.368 . S
C296 C295 1.523 . S
C297 C281 1.429 . S
C297 C293 1.429 . S
C297 C298 1.523 . S
C298 C282 1.368 . S
C298 C294 1.368 . S
C298 C297 1.523 . S
H299 C274 0.950 . S
H300 C276 0.950 . S
H301 C277 0.949 . S
H302 C279 0.950 . S
H303 C281 0.950 . S
C304 C305 1.349 . S
C304 C306 1.327 . S
C304 H329 0.950 . S
C305 C304 1.349 . S
C305 C321 1.349 . S
C306 C304 1.327 . S
C306 C325 1.429 . S
C306 H330 0.950 . S
C307 C324 1.574 . S
C307 C326 1.368 . S
C307 H331 0.949 . S
H308 C312 0.949 . S
C309 C310 1.349 . S
C309 C311 1.327 . S
C309 H332 0.950 . S
C310 C309 1.349 . S
C310 C322 1.349 . S
C311 C309 1.327 . S
C311 C327 1.429 . S
C311 H333 0.950 . S
C312 H308 0.949 . S
C312 C320 1.574 . S
C312 C328 1.368 . S
H313 C321 0.950 . S
H314 C319 0.950 . S
H315 C320 0.949 . S
H316 C322 0.950 . S
H317 C323 0.950 . S
H318 C324 0.949 . S
C319 H314 0.950 . S
C319 C321 1.327 . S
C319 C325 1.429 . S
C320 C312 1.574 . S
C320 H315 0.949 . S
C320 C326 1.368 . S
C321 C305 1.349 . S
C321 H313 0.950 . S
C321 C319 1.327 . S
C322 C310 1.349 . S
C322 H316 0.950 . S
C322 C323 1.327 . S
C323 H317 0.950 . S
C323 C322 1.327 . S
C323 C327 1.429 . S
C324 C307 1.574 . S
C324 H318 0.949 . S
C324 C328 1.368 . S
C325 C306 1.429 . S
C325 C319 1.429 . S
C325 C326 1.523 . S
C326 C307 1.368 . S
C326 C320 1.368 . S
C326 C325 1.523 . S
C327 C311 1.429 . S
C327 C323 1.429 . S
C327 C328 1.523 . S
C328 C312 1.368 . S
C328 C324 1.368 . S
C328 C327 1.523 . S
H329 C304 0.950 . S
H330 C306 0.950 . S
H331 C307 0.949 . S
H332 C309 0.950 . S
H333 C311 0.950 . S
C334 C335 1.349 . S
C334 C336 1.327 . S
C334 H359 0.950 . S
C335 C334 1.349 . S
C335 C351 1.349 . S
C336 C334 1.327 . S
C336 C355 1.429 . S
C336 H360 0.950 . S
C337 C354 1.574 . S
C337 C356 1.368 . S
C337 H361 0.949 . S
H338 C342 0.949 . S
C339 C340 1.349 . S
C339 C341 1.327 . S
C339 H362 0.950 . S
C340 C339 1.349 . S
C340 C352 1.349 . S
C341 C339 1.327 . S
C341 C357 1.429 . S
C341 H363 0.950 . S
C342 H338 0.949 . S
C342 C350 1.574 . S
C342 C358 1.368 . S
H343 C351 0.950 . S
H344 C349 0.950 . S
H345 C350 0.949 . S
H346 C352 0.950 . S
H347 C353 0.950 . S
H348 C354 0.949 . S
C349 H344 0.950 . S
C349 C351 1.327 . S
C349 C355 1.429 . S
C350 C342 1.574 . S
C350 H345 0.949 . S
C350 C356 1.368 . S
C351 C335 1.349 . S
C351 H343 0.950 . S
C351 C349 1.327 . S
C352 C340 1.349 . S
C352 H346 0.950 . S
C352 C353 1.327 . S
C353 H347 0.950 . S
C353 C352 1.327 . S
C353 C357 1.429 . S
C354 C337 1.574 . S
C354 H348 0.949 . S
C354 C358 1.368 . S
C355 C336 1.429 . S
C355 C349 1.429 . S
C355 C356 1.523 . S
C356 C337 1.368 . S
C356 C350 1.368 . S
C356 C355 1.523 . S
C357 C341 1.429 . S
C357 C353 1.429 . S
C357 C358 1.523 . S
C358 C342 1.368 . S
C358 C354 1.368 . S
C358 C357 1.523 . S
H359 C334 0.950 . S
H360 C336 0.950 . S
H361 C337 0.949 . S
H362 C339 0.950 . S
H363 C341 0.950 . S
C364 C365 1.349 . S
C364 C366 1.327 . S
C364 H389 0.950 . S
C365 C364 1.349 . S
C365 C381 1.349 1_565 S
C366 C364 1.327 . S
C366 C385 1.429 . S
C366 H390 0.950 . S
C367 C384 1.572 1_545 S
C367 C386 1.355 1_545 S
C367 H391 0.963 . S
H368 C372 0.949 . S
C369 C370 1.349 . S
C369 C371 1.327 . S
C369 H392 0.950 1_565 S
C370 C369 1.349 . S
C370 C382 1.349 . S
C371 C369 1.327 . S
C371 C387 1.429 . S
C371 H393 0.950 1_565 S
C372 H368 0.949 . S
C372 C380 1.574 . S
C372 C388 1.368 . S
H373 C381 0.950 . S
H374 C379 0.950 . S
H375 C380 0.949 . S
H376 C382 0.950 . S
H377 C383 0.950 . S
H378 C384 0.949 1_545 S
C379 H374 0.950 . S
C379 C381 1.327 . S
C379 C385 1.429 1_545 S
C380 C372 1.574 . S
C380 H375 0.949 . S
C380 C386 1.368 . S
C381 C365 1.349 1_545 S
C381 H373 0.950 . S
C381 C379 1.327 . S
C382 C370 1.349 . S
C382 H376 0.950 . S
C382 C383 1.327 . S
C383 H377 0.950 . S
C383 C382 1.327 . S
C383 C387 1.429 . S
C384 C367 1.572 1_565 S
C384 H378 0.949 1_565 S
C384 C388 1.368 . S
C385 C366 1.429 . S
C385 C379 1.429 1_565 S
C385 C386 1.523 . S
C386 C367 1.355 1_565 S
C386 C380 1.368 . S
C386 C385 1.523 . S
C387 C371 1.429 . S
C387 C383 1.429 . S
C387 C388 1.523 . S
C388 C372 1.368 . S
C388 C384 1.368 . S
C388 C387 1.523 . S
H389 C364 0.950 . S
H390 C366 0.950 . S
H391 C367 0.963 . S
H392 C369 0.950 1_545 S
H393 C371 0.950 1_545 S
C394 C395 1.349 . S
C394 C396 1.327 . S
C394 H419 0.950 . S
C395 C394 1.349 . S
C395 C411 1.349 . S
C396 C394 1.327 . S
C396 C415 1.429 . S
C396 H420 0.950 . S
C397 C414 1.574 . S
C397 C416 1.368 . S
C397 H421 0.949 . S
H398 C402 0.949 . S
C399 C400 1.349 1_545 S
C399 C401 1.326 1_545 S
C399 H422 0.950 . S
C400 C399 1.349 1_565 S
C400 C412 1.349 . S
C401 C399 1.326 1_565 S
C401 C417 1.432 . S
C401 H423 0.947 1_565 S
C402 H398 0.949 . S
C402 C410 1.574 . S
C402 C418 1.368 . S
H403 C411 0.950 . S
H404 C409 0.950 . S
H405 C410 0.949 . S
H406 C412 0.950 . S
H407 C413 0.950 . S
H408 C414 0.949 1_545 S
C409 H404 0.950 . S
C409 C411 1.327 . S
C409 C415 1.429 . S
C410 C402 1.574 . S
C410 H405 0.949 . S
C410 C416 1.368 . S
C411 C395 1.349 . S
C411 H403 0.950 . S
C411 C409 1.327 . S
C412 C400 1.349 . S
C412 H406 0.950 . S
C412 C413 1.327 . S
C413 H407 0.950 . S
C413 C412 1.327 . S
C413 C417 1.429 . S
C414 C397 1.574 . S
C414 H408 0.949 1_565 S
C414 C418 1.368 . S
C415 C396 1.429 . S
C415 C409 1.429 . S
C415 C416 1.523 . S
C416 C397 1.368 . S
C416 C410 1.368 . S
C416 C415 1.523 . S
C417 C401 1.432 . S
C417 C413 1.429 . S
C417 C418 1.523 . S
C418 C402 1.368 . S
C418 C414 1.368 . S
C418 C417 1.523 . S
H419 C394 0.950 . S
H420 C396 0.950 . S
H421 C397 0.949 . S
H422 C399 0.950 . S
H423 C401 0.947 1_545 S
C424 C425 1.349 . S
C424 C426 1.327 . S
C424 H449 0.950 . S
C425 C424 1.349 . S
C425 C441 1.349 . S
C426 C424 1.327 . S
C426 C445 1.429 . S
C426 H450 0.950 . S
C427 C444 1.574 . S
C427 C446 1.368 1_655 S
C427 H451 0.949 1_655 S
H428 C432 0.949 . S
C429 C430 1.349 . S
C429 C431 1.327 . S
C429 H452 0.950 . S
C430 C429 1.349 . S
C430 C442 1.349 . S
C431 C429 1.327 . S
C431 C447 1.429 . S
C431 H453 0.950 . S
C432 H428 0.949 . S
C432 C440 1.574 1_655 S
C432 C448 1.368 . S
H433 C441 0.950 . S
H434 C439 0.950 . S
H435 C440 0.949 . S
H436 C442 0.950 . S
H437 C443 0.950 . S
H438 C444 0.949 . S
C439 H434 0.950 . S
C439 C441 1.327 . S
C439 C445 1.429 . S
C440 C432 1.574 1_455 S
C440 H435 0.949 . S
C440 C446 1.368 . S
C441 C425 1.349 . S
C441 H433 0.950 . S
C441 C439 1.327 . S
C442 C430 1.349 . S
C442 H436 0.950 . S
C442 C443 1.327 . S
C443 H437 0.950 . S
C443 C442 1.327 . S
C443 C447 1.429 . S
C444 C427 1.574 . S
C444 H438 0.949 . S
C444 C448 1.368 . S
C445 C426 1.429 . S
C445 C439 1.429 . S
C445 C446 1.523 . S
C446 C427 1.368 1_455 S
C446 C440 1.368 . S
C446 C445 1.523 . S
C447 C431 1.429 . S
C447 C443 1.429 . S
C447 C448 1.523 . S
C448 C432 1.368 . S
C448 C444 1.368 . S
C448 C447 1.523 . S
H449 C424 0.950 . S
H450 C426 0.950 . S
H451 C427 0.949 1_455 S
H452 C429 0.950 . S
H453 C431 0.950 . S
C454 C455 1.349 . S
C454 C456 1.327 . S
C454 H479 0.950 . S
C455 C454 1.349 . S
C455 C471 1.349 . S
C456 C454 1.327 . S
C456 C475 1.429 . S
C456 H480 0.950 . S
C457 C474 1.574 . S
C457 C476 1.368 . S
C457 H481 0.949 . S
H458 C462 0.949 . S
C459 C460 1.349 . S
C459 C461 1.327 . S
C459 H482 0.950 . S
C460 C459 1.349 . S
C460 C472 1.349 . S
C461 C459 1.327 . S
C461 C477 1.429 . S
C461 H483 0.950 . S
C462 H458 0.949 . S
C462 C470 1.574 . S
C462 C478 1.368 . S
H463 C471 0.950 . S
H464 C469 0.950 . S
H465 C470 0.949 . S
H466 C472 0.950 . S
H467 C473 0.950 . S
H468 C474 0.949 . S
C469 H464 0.950 . S
C469 C471 1.327 . S
C469 C475 1.429 . S
C470 C462 1.574 . S
C470 H465 0.949 . S
C470 C476 1.368 . S
C471 C455 1.349 . S
C471 H463 0.950 . S
C471 C469 1.327 . S
C472 C460 1.349 . S
C472 H466 0.950 . S
C472 C473 1.327 . S
C473 H467 0.950 . S
C473 C472 1.327 . S
C473 C477 1.429 . S
C474 C457 1.574 . S
C474 H468 0.949 . S
C474 C478 1.368 . S
C475 C456 1.429 . S
C475 C469 1.429 . S
C475 C476 1.523 . S
C476 C457 1.368 . S
C476 C470 1.368 . S
C476 C475 1.523 . S
C477 C461 1.429 . S
C477 C473 1.429 . S
C477 C478 1.523 . S
C478 C462 1.368 . S
C478 C474 1.368 . S
C478 C477 1.523 . S
H479 C454 0.950 . S
H480 C456 0.950 . S
H481 C457 0.949 . S
H482 C459 0.950 . S
H483 C461 0.950 . S
C484 C485 1.349 . S
C484 C486 1.327 . S
C484 H509 0.950 . S
C485 C484 1.349 . S
C485 C501 1.349 . S
C486 C484 1.327 . S
C486 C505 1.429 . S
C486 H510 0.950 . S
C487 C504 1.574 . S
C487 C506 1.368 . S
C487 H511 0.949 . S
H488 C492 0.949 . S
C489 C490 1.349 . S
C489 C491 1.327 . S
C489 H512 0.950 . S
C490 C489 1.349 . S
C490 C502 1.349 . S
C491 C489 1.327 . S
C491 C507 1.429 . S
C491 H513 0.950 . S
C492 H488 0.949 . S
C492 C500 1.574 1_655 S
C492 C508 1.368 . S
H493 C501 0.950 . S
H494 C499 0.950 . S
H495 C500 0.949 . S
H496 C502 0.950 . S
H497 C503 0.950 . S
H498 C504 0.949 1_655 S
C499 H494 0.950 . S
C499 C501 1.327 . S
C499 C505 1.429 . S
C500 C492 1.574 1_455 S
C500 H495 0.949 . S
C500 C506 1.368 . S
C501 C485 1.349 . S
C501 H493 0.950 . S
C501 C499 1.327 . S
C502 C490 1.349 . S
C502 H496 0.950 . S
C502 C503 1.327 . S
C503 H497 0.950 . S
C503 C502 1.327 . S
C503 C507 1.429 . S
C504 C487 1.574 . S
C504 H498 0.949 1_455 S
C504 C508 1.368 1_455 S
C505 C486 1.429 . S
C505 C499 1.429 . S
C505 C506 1.523 . S
C506 C487 1.368 . S
C506 C500 1.368 . S
C506 C505 1.523 . S
C507 C491 1.429 . S
C507 C503 1.429 . S
C507 C508 1.523 . S
C508 C492 1.368 . S
C508 C504 1.368 1_655 S
C508 C507 1.523 . S
H509 C484 0.950 . S
H510 C486 0.950 . S
H511 C487 0.949 . S
H512 C489 0.950 . S
H513 C491 0.950 . S
C514 C515 1.349 . S
C514 C516 1.327 . S
C514 H539 0.950 . S
C515 C514 1.349 . S
C515 C531 1.349 . S
C516 C514 1.327 . S
C516 C535 1.429 . S
C516 H540 0.950 . S
C517 C534 1.574 . S
C517 C536 1.368 . S
C517 H541 0.949 . S
H518 C522 0.949 . S
C519 C520 1.349 . S
C519 C521 1.327 . S
C519 H542 0.950 . S
C520 C519 1.349 . S
C520 C532 1.349 . S
C521 C519 1.327 . S
C521 C537 1.429 . S
C521 H543 0.950 . S
C522 H518 0.949 . S
C522 C530 1.574 . S
C522 C538 1.368 . S
H523 C531 0.950 . S
H524 C529 0.950 . S
H525 C530 0.949 . S
H526 C532 0.950 . S
H527 C533 0.950 . S
H528 C534 0.949 . S
C529 H524 0.950 . S
C529 C531 1.327 . S
C529 C535 1.429 . S
C530 C522 1.574 . S
C530 H525 0.949 . S
C530 C536 1.368 . S
C531 C515 1.349 . S
C531 H523 0.950 . S
C531 C529 1.327 . S
C532 C520 1.349 . S
C532 H526 0.950 . S
C532 C533 1.327 . S
C533 H527 0.950 . S
C533 C532 1.327 . S
C533 C537 1.429 . S
C534 C517 1.574 . S
C534 H528 0.949 . S
C534 C538 1.368 . S
C535 C516 1.429 . S
C535 C529 1.429 . S
C535 C536 1.523 . S
C536 C517 1.368 . S
C536 C530 1.368 . S
C536 C535 1.523 . S
C537 C521 1.429 . S
C537 C533 1.429 . S
C537 C538 1.523 . S
C538 C522 1.368 . S
C538 C534 1.368 . S
C538 C537 1.523 . S
H539 C514 0.950 . S
H540 C516 0.950 . S
H541 C517 0.949 . S
H542 C519 0.950 . S
H543 C521 0.950 . S
C544 C545 1.349 . S
C544 C546 1.327 . S
C544 H569 0.950 1_554 S
C545 C544 1.349 . S
C545 C561 1.349 . S
C546 C544 1.327 . S
C546 C565 1.429 . S
C546 H570 0.950 1_554 S
C547 C564 1.574 . S
C547 C566 1.368 1_655 S
C547 H571 0.949 . S
H548 C552 0.949 . S
C549 C550 1.349 1_554 S
C549 C551 1.327 . S
C549 H572 0.950 . S
C550 C549 1.349 1_556 S
C550 C562 1.349 . S
C551 C549 1.327 . S
C551 C567 1.429 . S
C551 H573 0.950 . S
C552 H548 0.949 . S
C552 C560 1.574 1_655 S
C552 C568 1.368 1_556 S
H553 C561 0.950 . S
H554 C559 0.950 . S
H555 C560 0.949 . S
H556 C562 0.950 . S
H557 C563 0.950 . S
H558 C564 0.949 . S
C559 H554 0.950 . S
C559 C561 1.327 . S
C559 C565 1.429 . S
C560 C552 1.574 1_455 S
C560 H555 0.949 . S
C560 C566 1.368 1_556 S
C561 C545 1.349 . S
C561 H553 0.950 . S
C561 C559 1.327 . S
C562 C550 1.349 . S
C562 H556 0.950 . S
C562 C563 1.327 . S
C563 H557 0.950 . S
C563 C562 1.327 . S
C563 C567 1.429 1_556 S
C564 C547 1.574 . S
C564 H558 0.949 . S
C564 C568 1.368 . S
C565 C546 1.429 . S
C565 C559 1.429 . S
C565 C566 1.523 . S
C566 C547 1.368 1_455 S
C566 C560 1.368 1_554 S
C566 C565 1.523 . S
C567 C551 1.429 . S
C567 C563 1.429 1_554 S
C567 C568 1.523 . S
C568 C552 1.368 1_554 S
C568 C564 1.368 . S
C568 C567 1.523 . S
H569 C544 0.950 1_556 S
H570 C546 0.950 1_556 S
H571 C547 0.949 . S
H572 C549 0.950 . S
H573 C551 0.950 . S
C574 C575 1.349 . S
C574 C576 1.327 . S
C574 H599 0.950 . S
C575 C574 1.349 . S
C575 C591 1.349 . S
C576 C574 1.327 . S
C576 C595 1.429 . S
C576 H600 0.950 . S
C577 C594 1.574 . S
C577 C596 1.368 . S
C577 H601 0.949 . S
H578 C582 0.949 . S
C579 C580 1.349 . S
C579 C581 1.327 . S
C579 H602 0.950 . S
C580 C579 1.349 . S
C580 C592 1.349 . S
C581 C579 1.327 . S
C581 C597 1.429 . S
C581 H603 0.950 . S
C582 H578 0.949 . S
C582 C590 1.574 . S
C582 C598 1.368 . S
H583 C591 0.950 . S
H584 C589 0.950 . S
H585 C590 0.949 . S
H586 C592 0.950 . S
H587 C593 0.950 . S
H588 C594 0.949 . S
C589 H584 0.950 . S
C589 C591 1.327 . S
C589 C595 1.429 . S
C590 C582 1.574 . S
C590 H585 0.949 . S
C590 C596 1.368 . S
C591 C575 1.349 . S
C591 H583 0.950 . S
C591 C589 1.327 . S
C592 C580 1.349 . S
C592 H586 0.950 . S
C592 C593 1.327 . S
C593 H587 0.950 . S
C593 C592 1.327 . S
C593 C597 1.429 . S
C594 C577 1.574 . S
C594 H588 0.949 . S
C594 C598 1.368 . S
C595 C576 1.429 . S
C595 C589 1.429 . S
C595 C596 1.523 . S
C596 C577 1.368 . S
C596 C590 1.368 . S
C596 C595 1.523 . S
C597 C581 1.429 . S
C597 C593 1.429 . S
C597 C598 1.523 . S
C598 C582 1.368 . S
C598 C594 1.368 . S
C598 C597 1.523 . S
H599 C574 0.950 . S
H600 C576 0.950 . S
H601 C577 0.949 . S
H602 C579 0.950 . S
H603 C581 0.950 . S
C604 C605 1.349 . S
C604 C606 1.327 . S
C604 H629 0.950 . S
C605 C604 1.349 . S
C605 C621 1.349 1_554 S
C606 C604 1.327 . S
C606 C625 1.429 1_554 S
C606 H630 0.950 . S
C607 C624 1.574 . S
C607 C626 1.368 . S
C607 H631 0.949 . S
H608 C612 0.949 . S
C609 C610 1.349 . S
C609 C611 1.327 . S
C609 H632 0.950 . S
C610 C609 1.349 . S
C610 C622 1.349 . S
C611 C609 1.327 . S
C611 C627 1.429 . S
C611 H633 0.950 . S
C612 H608 0.949 . S
C612 C620 1.574 . S
C612 C628 1.368 1_554 S
H613 C621 0.950 . S
H614 C619 0.950 . S
H615 C620 0.949 . S
H616 C622 0.950 1_554 S
H617 C623 0.950 1_554 S
H618 C624 0.949 . S
C619 H614 0.950 . S
C619 C621 1.327 . S
C619 C625 1.429 . S
C620 C612 1.574 . S
C620 H615 0.949 . S
C620 C626 1.368 1_554 S
C621 C605 1.349 1_556 S
C621 H613 0.950 . S
C621 C619 1.327 . S
C622 C610 1.349 . S
C622 H616 0.950 1_556 S
C622 C623 1.327 . S
C623 H617 0.950 1_556 S
C623 C622 1.327 . S
C623 C627 1.429 . S
C624 C607 1.574 . S
C624 H618 0.949 . S
C624 C628 1.368 . S
C625 C606 1.429 1_556 S
C625 C619 1.429 . S
C625 C626 1.523 . S
C626 C607 1.368 . S
C626 C620 1.368 1_556 S
C626 C625 1.523 . S
C627 C611 1.429 . S
C627 C623 1.429 . S
C627 C628 1.523 . S
C628 C612 1.368 1_556 S
C628 C624 1.368 . S
C628 C627 1.523 . S
H629 C604 0.950 . S
H630 C606 0.950 . S
H631 C607 0.949 . S
H632 C609 0.950 . S
H633 C611 0.950 . S
C634 C635 1.349 . S
C634 C636 1.327 . S
C634 H659 0.950 . S
C635 C634 1.349 . S
C635 C651 1.349 . S
C636 C634 1.327 . S
C636 C655 1.429 . S
C636 H660 0.950 . S
C637 C654 1.574 1_455 S
C637 C656 1.368 . S
C637 H661 0.949 . S
H638 C642 0.949 . S
C639 C640 1.349 . S
C639 C641 1.327 . S
C639 H662 0.950 . S
C640 C639 1.349 . S
C640 C652 1.349 . S
C641 C639 1.327 . S
C641 C657 1.429 . S
C641 H663 0.950 . S
C642 H638 0.949 . S
C642 C650 1.574 1_655 S
C642 C658 1.368 . S
H643 C651 0.950 . S
H644 C649 0.950 . S
H645 C650 0.949 . S
H646 C652 0.950 . S
H647 C653 0.950 . S
H648 C654 0.949 . S
C649 H644 0.950 . S
C649 C651 1.327 . S
C649 C655 1.429 . S
C650 C642 1.574 1_455 S
C650 H645 0.949 . S
C650 C656 1.368 . S
C651 C635 1.349 . S
C651 H643 0.950 . S
C651 C649 1.327 . S
C652 C640 1.349 . S
C652 H646 0.950 . S
C652 C653 1.327 . S
C653 H647 0.950 . S
C653 C652 1.327 . S
C653 C657 1.429 . S
C654 C637 1.574 1_655 S
C654 H648 0.949 . S
C654 C658 1.368 . S
C655 C636 1.429 . S
C655 C649 1.429 . S
C655 C656 1.523 . S
C656 C637 1.368 . S
C656 C650 1.368 . S
C656 C655 1.523 . S
C657 C641 1.429 . S
C657 C653 1.429 . S
C657 C658 1.523 . S
C658 C642 1.368 . S
C658 C654 1.368 . S
C658 C657 1.523 . S
H659 C634 0.950 . S
H660 C636 0.950 . S
H661 C637 0.949 . S
H662 C639 0.950 . S
H663 C641 0.950 . S
C185 N25 1.945 . S
C190 C16 2.009 . S
C215 N2 2.015 . S
C220 C39 2.169 . S
C245 N71 1.945 . S
C250 C62 2.009 . S
C275 N48 2.015 . S
C280 C85 2.169 . S
C305 N104 1.886 . S
C310 C122 1.954 . S
C335 N127 2.013 . S
C340 C99 2.042 . S
C365 N150 1.885 . S
C370 C168 1.953 . S
C395 C145 2.043 . S
C400 N173 2.013 . S
C425 C7 1.144 . S
C430 C76 1.140 . S
C455 C30 1.140 . S
C460 C53 1.144 . S
C485 N163 1.003 . S
C490 N94 1.079 . S
C515 N140 1.079 . S
C520 N117 1.002 . S
C545 N12 1.423 1_565 S
C550 C108 1.386 . S
C575 C131 1.230 . S
C580 N35 1.274 . S
C605 C154 1.386 . S
C610 N58 1.423 . S
C635 C177 1.229 . S
C640 N81 1.273 . S
