# Generated by pormake.
# Topology zfi, (5)-cn, num edge types: 1
# Building blocks:
#     Node 0, Type 0, BuildingBlock: BEQFEK_clean_sbu_0, # of connection points: 5
#     Node 1, Type 0, BuildingBlock: BEQFEK_clean_sbu_0, # of connection points: 5
#     Node 2, Type 0, BuildingBlock: BEQFEK_clean_sbu_0, # of connection points: 5
#     Node 3, Type 0, BuildingBlock: BEQFEK_clean_sbu_0, # of connection points: 5
#     Node 4, Type 0, BuildingBlock: BEQFEK_clean_sbu_0, # of connection points: 5
#     Node 5, Type 0, BuildingBlock: BEQFEK_clean_sbu_0, # of connection points: 5
#     Node 6, Type 0, BuildingBlock: BEQFEK_clean_sbu_0, # of connection points: 5
#     Node 7, Type 0, BuildingBlock: BEQFEK_clean_sbu_0, # of connection points: 5
#     Node 8, Type 0, BuildingBlock: BEQFEK_clean_sbu_0, # of connection points: 5
#     Node 9, Type 0, BuildingBlock: BEQFEK_clean_sbu_0, # of connection points: 5
#     Node 10, Type 0, BuildingBlock: BEQFEK_clean_sbu_0, # of connection points: 5
#     Node 11, Type 0, BuildingBlock: BEQFEK_clean_sbu_0, # of connection points: 5
#     Node 12, Type 0, BuildingBlock: BEQFEK_clean_sbu_0, # of connection points: 5
#     Node 13, Type 0, BuildingBlock: BEQFEK_clean_sbu_0, # of connection points: 5
#     Node 14, Type 0, BuildingBlock: BEQFEK_clean_sbu_0, # of connection points: 5
#     Node 15, Type 0, BuildingBlock: BEQFEK_clean_sbu_0, # of connection points: 5
#     Edge 16, Type (0, 0), BuildingBlock: XIVTED_clean_linker_0, # of connection points: 2
#     Edge 17, Type (0, 0), BuildingBlock: XIVTED_clean_linker_0, # of connection points: 2
#     Edge 18, Type (0, 0), BuildingBlock: XIVTED_clean_linker_0, # of connection points: 2
#     Edge 19, Type (0, 0), BuildingBlock: XIVTED_clean_linker_0, # of connection points: 2
#     Edge 20, Type (0, 0), BuildingBlock: XIVTED_clean_linker_0, # of connection points: 2
#     Edge 21, Type (0, 0), BuildingBlock: XIVTED_clean_linker_0, # of connection points: 2
#     Edge 22, Type (0, 0), BuildingBlock: XIVTED_clean_linker_0, # of connection points: 2
#     Edge 23, Type (0, 0), BuildingBlock: XIVTED_clean_linker_0, # of connection points: 2
#     Edge 24, Type (0, 0), BuildingBlock: XIVTED_clean_linker_0, # of connection points: 2
#     Edge 25, Type (0, 0), BuildingBlock: XIVTED_clean_linker_0, # of connection points: 2
#     Edge 26, Type (0, 0), BuildingBlock: XIVTED_clean_linker_0, # of connection points: 2
#     Edge 27, Type (0, 0), BuildingBlock: XIVTED_clean_linker_0, # of connection points: 2
#     Edge 28, Type (0, 0), BuildingBlock: XIVTED_clean_linker_0, # of connection points: 2
#     Edge 29, Type (0, 0), BuildingBlock: XIVTED_clean_linker_0, # of connection points: 2
#     Edge 30, Type (0, 0), BuildingBlock: XIVTED_clean_linker_0, # of connection points: 2
#     Edge 31, Type (0, 0), BuildingBlock: XIVTED_clean_linker_0, # of connection points: 2
#     Edge 32, Type (0, 0), BuildingBlock: XIVTED_clean_linker_0, # of connection points: 2
#     Edge 33, Type (0, 0), BuildingBlock: XIVTED_clean_linker_0, # of connection points: 2
#     Edge 34, Type (0, 0), BuildingBlock: XIVTED_clean_linker_0, # of connection points: 2
#     Edge 35, Type (0, 0), BuildingBlock: XIVTED_clean_linker_0, # of connection points: 2
#     Edge 36, Type (0, 0), BuildingBlock: XIVTED_clean_linker_0, # of connection points: 2
#     Edge 37, Type (0, 0), BuildingBlock: XIVTED_clean_linker_0, # of connection points: 2
#     Edge 38, Type (0, 0), BuildingBlock: XIVTED_clean_linker_0, # of connection points: 2
#     Edge 39, Type (0, 0), BuildingBlock: XIVTED_clean_linker_0, # of connection points: 2
#     Edge 40, Type (0, 0), BuildingBlock: XIVTED_clean_linker_0, # of connection points: 2
#     Edge 41, Type (0, 0), BuildingBlock: XIVTED_clean_linker_0, # of connection points: 2
#     Edge 42, Type (0, 0), BuildingBlock: XIVTED_clean_linker_0, # of connection points: 2
#     Edge 43, Type (0, 0), BuildingBlock: XIVTED_clean_linker_0, # of connection points: 2
#     Edge 44, Type (0, 0), BuildingBlock: XIVTED_clean_linker_0, # of connection points: 2
#     Edge 45, Type (0, 0), BuildingBlock: XIVTED_clean_linker_0, # of connection points: 2
#     Edge 46, Type (0, 0), BuildingBlock: XIVTED_clean_linker_0, # of connection points: 2
#     Edge 47, Type (0, 0), BuildingBlock: XIVTED_clean_linker_0, # of connection points: 2
#     Edge 48, Type (0, 0), BuildingBlock: XIVTED_clean_linker_0, # of connection points: 2
#     Edge 49, Type (0, 0), BuildingBlock: XIVTED_clean_linker_0, # of connection points: 2
#     Edge 50, Type (0, 0), BuildingBlock: XIVTED_clean_linker_0, # of connection points: 2
#     Edge 51, Type (0, 0), BuildingBlock: XIVTED_clean_linker_0, # of connection points: 2
#     Edge 52, Type (0, 0), BuildingBlock: XIVTED_clean_linker_0, # of connection points: 2
#     Edge 53, Type (0, 0), BuildingBlock: XIVTED_clean_linker_0, # of connection points: 2
#     Edge 54, Type (0, 0), BuildingBlock: XIVTED_clean_linker_0, # of connection points: 2
#     Edge 55, Type (0, 0), BuildingBlock: XIVTED_clean_linker_0, # of connection points: 2
# Relax obj value: 0.229
# Max RMSD: 0.195
# Mean RMSD: 0.195
data_MOF--net-zfi--node1-BEQFEK_clean_sbu_0--edge1-XIVTED_clean_linker_0
_symmetry_space_group_name_H-M    P1
_symmetry_Int_Tables_number       1
_symmetry_cell_setting            triclinic
loop_
_symmetry_equiv_pos_as_xyz
'x, y, z'
_cell_length_a     37.407536
_cell_length_b     37.361389
_cell_length_c     58.530374
_cell_angle_alpha  89.975401
_cell_angle_beta   89.995581
_cell_angle_gamma 90.018162
loop_
_atom_site_label
_atom_site_type_symbol
_atom_site_fract_x
_atom_site_fract_y
_atom_site_fract_z
_atom_type_partial_charge
Co0 Co 0.61691 0.09379 0.12584 0.0
Co1 Co 0.59816 0.01416 0.13845 0.0
C2 C 0.5826 0.0719 0.17103 0.0
O3 O 0.59679 0.09545 0.15801 0.0
O4 O 0.57901 0.03956 0.16468 0.0
C5 C 0.65292 0.15559 0.12991 0.0
O6 O 0.65506 0.13958 0.14985 0.0
C7 C 0.55853 0.94608 0.14441 0.0
C8 C 0.60217 0.90805 0.13671 0.0
C9 C 0.56586 0.91007 0.14103 0.0
N10 N 0.58913 0.96447 0.14146 0.0
N11 N 0.61521 0.94143 0.13756 0.0
C12 C 0.5228 0.96304 0.14817 0.0
H13 H 0.5239 0.99212 0.14434 0.0
H14 H 0.50216 0.94981 0.13748 0.0
H15 H 0.51506 0.95944 0.16633 0.0
C16 C 0.57206 0.07351 0.08452 0.0
N17 N 0.58724 0.06659 0.10505 0.0
N18 N 0.58096 0.03283 0.11035 0.0
C19 C 0.56235 0.01728 0.09333 0.0
C20 C 0.55536 0.04251 0.07665 0.0
C21 C 0.57414 0.10879 0.07259 0.0
H22 H 0.57248 0.13086 0.08523 0.0
H23 H 0.55253 0.11144 0.0597 0.0
H24 H 0.60034 0.11083 0.06379 0.0
O25 O 0.66486 0.07127 0.12842 0.0
O26 O 0.65003 0.01735 0.14049 0.0
H27 H 0.55051 0.96976 0.07351 0.0
H28 H 0.53026 0.97157 0.10121 0.0
C29 C 0.55483 0.97799 0.09151 0.0
H30 H 0.57756 0.96238 0.09831 0.0
H31 H 0.64162 0.94863 0.13416 0.0
O32 O 0.63159 0.14268 0.11508 0.0
C33 C 0.67356 0.0406 0.13582 0.0
Co34 Co 0.39495 0.61806 0.12458 0.0
Co35 Co 0.47613 0.60101 0.13332 0.0
C36 C 0.42344 0.59175 0.17043 0.0
O37 O 0.39758 0.60252 0.15784 0.0
O38 O 0.45506 0.58886 0.16267 0.0
C39 C 0.31178 0.62868 0.10852 0.0
O40 O 0.29477 0.60117 0.09973 0.0
C41 C 0.54572 0.56664 0.14339 0.0
C42 C 0.58174 0.60303 0.1244 0.0
C43 C 0.58131 0.57272 0.13797 0.0
N44 N 0.52604 0.59224 0.13326 0.0
N45 N 0.54776 0.61388 0.12201 0.0
C46 C 0.5306 0.5388 0.15903 0.0
H47 H 0.5231 0.55175 0.17539 0.0
H48 H 0.50586 0.52739 0.15152 0.0
H49 H 0.55014 0.51724 0.16267 0.0
C50 C 0.41217 0.57072 0.08369 0.0
N51 N 0.4202 0.58572 0.10412 0.0
N52 N 0.45336 0.57707 0.10929 0.0
C53 C 0.46689 0.55557 0.09302 0.0
C54 C 0.44146 0.55079 0.07618 0.0
C55 C 0.37814 0.57731 0.07102 0.0
H56 H 0.37226 0.60643 0.07086 0.0
H57 H 0.35592 0.56376 0.08013 0.0
H58 H 0.37962 0.56701 0.05326 0.0
O59 O 0.41567 0.66664 0.1231 0.0
O60 O 0.47259 0.65276 0.12879 0.0
H61 H 0.52282 0.56631 0.08983 0.0
H62 H 0.50973 0.52378 0.07821 0.0
C63 C 0.5049 0.543 0.09229 0.0
H64 H 0.51171 0.52982 0.10866 0.0
H65 H 0.53933 0.63605 0.11261 0.0
O66 O 0.34414 0.62467 0.11479 0.0
C67 C 0.44822 0.67568 0.12515 0.0
Co68 Co 0.87261 0.40531 0.12367 0.0
Co69 Co 0.89951 0.48178 0.13755 0.0
C70 C 0.90983 0.42101 0.16887 0.0
O71 O 0.89301 0.39955 0.15566 0.0
O72 O 0.91607 0.4532 0.16312 0.0
C73 C 0.8517 0.3314 0.12381 0.0
O74 O 0.86737 0.33148 0.14389 0.0
C75 C 0.94488 0.5448 0.14766 0.0
C76 C 0.90442 0.5876 0.14395 0.0
C77 C 0.93992 0.58144 0.14916 0.0
N78 N 0.91343 0.52995 0.14181 0.0
N79 N 0.88946 0.55571 0.13965 0.0
C80 C 0.97817 0.5242 0.15282 0.0
H81 H 0.97423 0.49527 0.14931 0.0
H82 H 0.00067 0.53451 0.14238 0.0
H83 H 0.98536 0.52802 0.17105 0.0
C84 C 0.91804 0.42396 0.08217 0.0
N85 N 0.90449 0.4308 0.10317 0.0
N86 N 0.91489 0.46308 0.10937 0.0
C87 C 0.93489 0.47774 0.09271 0.0
C88 C 0.9381 0.45341 0.07501 0.0
C89 C 0.91126 0.39027 0.06913 0.0
H90 H 0.91166 0.367 0.08092 0.0
H91 H 0.9314 0.3866 0.05539 0.0
H92 H 0.88429 0.39172 0.0613 0.0
O93 O 0.82708 0.43169 0.12743 0.0
O94 O 0.84755 0.48387 0.13923 0.0
H95 H 0.95514 0.52496 0.07526 0.0
H96 H 0.97092 0.51847 0.104 0.0
C97 C 0.94743 0.51586 0.0926 0.0
H98 H 0.92587 0.53364 0.09883 0.0
H99 H 0.86279 0.55157 0.13516 0.0
O100 O 0.85432 0.35895 0.11115 0.0
C101 C 0.82167 0.46319 0.13474 0.0
Co102 Co 0.09358 0.87707 0.12528 0.0
Co103 Co 0.01412 0.89835 0.13714 0.0
C104 C 0.07187 0.91067 0.17057 0.0
O105 O 0.09556 0.8966 0.15761 0.0
O106 O 0.03978 0.91481 0.16395 0.0
C107 C 0.16391 0.84932 0.12895 0.0
O108 O 0.157 0.8543 0.15072 0.0
C109 C 0.94885 0.94073 0.14632 0.0
C110 C 0.90753 0.89949 0.14017 0.0
C111 C 0.9123 0.93485 0.14643 0.0
N112 N 0.96499 0.91006 0.14013 0.0
N113 N 0.94011 0.88559 0.13651 0.0
C114 C 0.96814 0.97407 0.1532 0.0
H115 H 0.99711 0.97183 0.14934 0.0
H116 H 0.95672 0.99755 0.14419 0.0
H117 H 0.96448 0.97844 0.17181 0.0
C118 C 0.07435 0.92171 0.08349 0.0
N119 N 0.06733 0.90773 0.10437 0.0
N120 N 0.0342 0.91612 0.1099 0.0
C121 C 0.01933 0.93551 0.09303 0.0
C122 C 0.04421 0.94015 0.07582 0.0
C123 C 0.1086 0.91626 0.07086 0.0
H124 H 0.13149 0.91858 0.08283 0.0
H125 H 0.11141 0.93591 0.05673 0.0
H126 H 0.10889 0.88882 0.06361 0.0
O127 O 0.06977 0.83012 0.12792 0.0
O128 O 0.01513 0.84615 0.13799 0.0
H129 H 0.96371 0.92297 0.0969 0.0
H130 H 0.97246 0.95534 0.07499 0.0
C131 C 0.98069 0.94611 0.0922 0.0
H132 H 0.97597 0.9681 0.10452 0.0
H133 H 0.94537 0.85929 0.13156 0.0
O134 O 0.14195 0.86144 0.11419 0.0
C135 C 0.03824 0.82212 0.13404 0.0
Co136 Co 0.11984 0.90337 0.38565 0.0
Co137 Co 0.09645 0.98102 0.37131 0.0
C138 C 0.08404 0.9199 0.34031 0.0
O139 O 0.09957 0.89774 0.35372 0.0
O140 O 0.07907 0.9524 0.34595 0.0
C141 C 0.14065 0.82863 0.38726 0.0
O142 O 0.12407 0.8259 0.36757 0.0
C143 C 0.05359 0.046 0.36135 0.0
C144 C 0.09582 0.08711 0.36482 0.0
C145 C 0.05994 0.08249 0.36003 0.0
N146 N 0.08455 0.0298 0.36679 0.0
N147 N 0.10961 0.05457 0.36875 0.0
C148 C 0.01943 0.02675 0.35631 0.0
H149 H 0.02298 0.99739 0.35815 0.0
H150 H -0.00187 0.03593 0.36809 0.0
H151 H 0.01068 0.03317 0.33866 0.0
C152 C 0.07515 0.92447 0.42692 0.0
N153 N 0.08921 0.93059 0.40597 0.0
N154 N 0.08055 0.96336 0.39969 0.0
C155 C 0.06125 0.97905 0.41629 0.0
C156 C 0.0566 0.95493 0.43398 0.0
C157 C 0.07991 0.89045 0.43998 0.0
H158 H 0.07926 0.86729 0.42812 0.0
H159 H 0.05893 0.88748 0.45326 0.0
H160 H 0.10647 0.89084 0.44842 0.0
O161 O 0.16617 0.92787 0.38141 0.0
O162 O 0.14829 0.98083 0.3693 0.0
H163 H 0.04387 0.02729 0.43375 0.0
H164 H 0.02691 0.02135 0.40526 0.0
C165 C 0.05061 0.01773 0.41635 0.0
H166 H 0.07281 0.0344 0.40979 0.0
H167 H 0.1362 0.04931 0.37294 0.0
O168 O 0.13765 0.85736 0.39878 0.0
C169 C 0.17306 0.95885 0.37375 0.0
Co170 Co 0.59393 0.11873 0.38579 0.0
Co171 Co 0.51598 0.09475 0.37381 0.0
C172 C 0.57309 0.08221 0.34083 0.0
O173 O 0.5959 0.09797 0.35365 0.0
O174 O 0.54113 0.07686 0.34734 0.0
C175 C 0.66335 0.14712 0.38126 0.0
O176 O 0.65552 0.14241 0.3596 0.0
C177 C 0.44947 0.0559 0.36288 0.0
C178 C 0.40985 0.09455 0.3763 0.0
C179 C 0.41317 0.06194 0.36536 0.0
N180 N 0.46685 0.08389 0.37207 0.0
N181 N 0.44303 0.10684 0.38002 0.0
C182 C 0.46743 0.02556 0.35081 0.0
H183 H 0.47115 0.03295 0.3326 0.0
H184 H 0.49421 0.02056 0.35832 0.0
H185 H 0.45099 0.00088 0.35153 0.0
C186 C 0.57441 0.07642 0.42886 0.0
N187 N 0.56832 0.08857 0.40736 0.0
N188 N 0.53602 0.07826 0.40124 0.0
C189 C 0.52102 0.05901 0.41811 0.0
C190 C 0.54443 0.05748 0.4363 0.0
C191 C 0.60705 0.08461 0.44259 0.0
H192 H 0.6214 0.10804 0.43544 0.0
H193 H 0.62509 0.06105 0.44221 0.0
H194 H 0.59971 0.08973 0.46067 0.0
O195 O 0.56978 0.16549 0.3826 0.0
O196 O 0.51635 0.14684 0.37201 0.0
H197 H 0.46402 0.06369 0.41735 0.0
H198 H 0.47981 0.02362 0.4313 0.0
C199 C 0.48462 0.04238 0.41693 0.0
H200 H 0.48197 0.02728 0.40076 0.0
H201 H 0.44947 0.131 0.38795 0.0
O202 O 0.64217 0.13465 0.39635 0.0
C203 C 0.5382 0.172 0.37592 0.0
Co204 Co 0.37528 0.59381 0.38612 0.0
Co205 Co 0.40238 0.51698 0.37308 0.0
C206 C 0.41209 0.57553 0.34061 0.0
O207 O 0.39556 0.59725 0.35386 0.0
O208 O 0.41898 0.54352 0.34664 0.0
C209 C 0.35261 0.66791 0.38508 0.0
O210 O 0.36686 0.66832 0.36457 0.0
C211 C 0.43932 0.44846 0.36176 0.0
C212 C 0.40153 0.41126 0.37864 0.0
C213 C 0.43254 0.41252 0.36586 0.0
N214 N 0.41322 0.46757 0.37182 0.0
N215 N 0.39084 0.44511 0.38183 0.0
C216 C 0.46864 0.46433 0.34764 0.0
H217 H 0.45689 0.4822 0.33449 0.0
H218 H 0.48608 0.48102 0.35865 0.0
H219 H 0.48489 0.4433 0.3392 0.0
C220 C 0.41748 0.57437 0.42894 0.0
N221 N 0.40639 0.56866 0.4072 0.0
N222 N 0.41836 0.53715 0.40062 0.0
C223 C 0.43785 0.52238 0.41744 0.0
C224 C 0.43761 0.54496 0.43611 0.0
C225 C 0.40666 0.60589 0.44302 0.0
H226 H 0.37808 0.6122 0.43993 0.0
H227 H 0.42265 0.62946 0.43766 0.0
H228 H 0.41126 0.60088 0.46149 0.0
O229 O 0.32952 0.56808 0.38305 0.0
O230 O 0.35032 0.51591 0.37161 0.0
H231 H 0.43586 0.46517 0.41773 0.0
H232 H 0.47646 0.48349 0.4295 0.0
C233 C 0.45602 0.48675 0.41592 0.0
H234 H 0.46928 0.48409 0.39911 0.0
H235 H 0.36813 0.45297 0.39087 0.0
O236 O 0.35735 0.64073 0.39784 0.0
C237 C 0.32431 0.53643 0.37603 0.0
Co238 Co 0.89926 0.37612 0.38437 0.0
Co239 Co 0.97865 0.39761 0.37418 0.0
C240 C 0.92482 0.40805 0.33876 0.0
O241 O 0.90081 0.39393 0.35152 0.0
O242 O 0.95638 0.41372 0.34605 0.0
C243 C 0.81749 0.36373 0.4011 0.0
O244 O 0.80401 0.39197 0.41131 0.0
C245 C 0.04995 0.43058 0.36539 0.0
C246 C 0.08336 0.39251 0.38497 0.0
C247 C 0.08493 0.42292 0.37156 0.0
N248 N 0.02864 0.40573 0.37497 0.0
N249 N 0.04886 0.38312 0.38657 0.0
C250 C 0.03713 0.45972 0.34988 0.0
H251 H 0.01609 0.44923 0.33836 0.0
H252 H 0.02515 0.48146 0.36026 0.0
H253 H 0.05938 0.4709 0.33957 0.0
C254 C 0.9161 0.42033 0.42654 0.0
N255 N 0.92376 0.40719 0.40555 0.0
N256 N 0.95645 0.41714 0.40011 0.0
C257 C 0.97003 0.43763 0.41688 0.0
C258 C 0.94521 0.44023 0.43423 0.0
C259 C 0.88274 0.41201 0.43951 0.0
H260 H 0.87563 0.3834 0.43721 0.0
H261 H 0.86057 0.42842 0.43253 0.0
H262 H 0.8859 0.41815 0.45795 0.0
O263 O 0.92157 0.32834 0.38388 0.0
O264 O 0.97585 0.34535 0.37383 0.0
H265 H 0.02659 0.431 0.41989 0.0
H266 H 0.01046 0.47313 0.43069 0.0
C267 C 0.00706 0.45285 0.41702 0.0
H268 H 0.01274 0.46554 0.40032 0.0
H269 H 0.039 0.36121 0.39566 0.0
O270 O 0.8494 0.36465 0.39364 0.0
C271 C 0.95331 0.32084 0.37798 0.0
Co272 Co 0.37231 0.90386 0.88579 0.0
Co273 Co 0.39787 0.98133 0.872 0.0
C274 C 0.4093 0.92027 0.84077 0.0
O275 O 0.39295 0.89833 0.85394 0.0
O276 O 0.415 0.95257 0.8466 0.0
C277 C 0.35032 0.82915 0.8869 0.0
O278 O 0.36739 0.82641 0.86737 0.0
C279 C 0.44251 0.04573 0.86302 0.0
C280 C 0.40091 0.08752 0.86604 0.0
C281 C 0.43689 0.08237 0.86184 0.0
N282 N 0.41102 0.02998 0.86783 0.0
N283 N 0.38637 0.05517 0.86951 0.0
C284 C 0.4765 0.02594 0.85844 0.0
H285 H 0.47261 0.99671 0.86075 0.0
H286 H 0.49785 0.03545 0.8701 0.0
H287 H 0.48541 0.03151 0.8407 0.0
C288 C 0.41706 0.92342 0.92742 0.0
N289 N 0.40335 0.93015 0.90644 0.0
N290 N 0.4128 0.96283 0.9004 0.0
C291 C 0.43222 0.97786 0.91721 0.0
C292 C 0.43619 0.95337 0.93475 0.0
C293 C 0.41146 0.8893 0.94024 0.0
H294 H 0.41155 0.86633 0.92822 0.0
H295 H 0.43234 0.88562 0.9535 0.0
H296 H 0.38491 0.89019 0.94868 0.0
O297 O 0.32676 0.92966 0.88145 0.0
O298 O 0.34604 0.98236 0.86969 0.0
H299 H 0.45006 0.02546 0.93517 0.0
H300 H 0.4678 0.01958 0.90688 0.0
C301 C 0.44366 0.0163 0.91762 0.0
H302 H 0.42202 0.03353 0.91089 0.0
H303 H 0.35952 0.05036 0.87322 0.0
O304 O 0.35312 0.85787 0.89846 0.0
C305 C 0.3207 0.9609 0.87393 0.0
Co306 Co 0.59724 0.37572 0.88841 0.0
Co307 Co 0.51969 0.39902 0.87573 0.0
C308 C 0.57527 0.40987 0.84226 0.0
O309 O 0.59764 0.39406 0.8554 0.0
O310 O 0.54363 0.41674 0.8488 0.0
C311 C 0.6701 0.35676 0.88345 0.0
O312 O 0.66474 0.3704 0.86305 0.0
C313 C 0.45084 0.43378 0.86463 0.0
C314 C 0.41427 0.39537 0.88151 0.0
C315 C 0.41511 0.42655 0.8688 0.0
N316 N 0.47023 0.40788 0.87465 0.0
N317 N 0.44821 0.38502 0.88459 0.0
C318 C 0.46635 0.46306 0.85028 0.0
H319 H 0.48075 0.45101 0.8356 0.0
H320 H 0.48627 0.47833 0.86038 0.0
H321 H 0.44539 0.48138 0.84372 0.0
C322 C 0.57805 0.42062 0.93035 0.0
N323 N 0.57189 0.40717 0.90922 0.0
N324 N 0.53984 0.4176 0.9027 0.0
C325 C 0.52525 0.43863 0.91885 0.0
C326 C 0.54874 0.44125 0.93698 0.0
C327 C 0.61022 0.41229 0.94449 0.0
H328 H 0.63333 0.40575 0.93339 0.0
H329 H 0.61682 0.43522 0.95579 0.0
H330 H 0.60428 0.38876 0.95543 0.0
O331 O 0.57382 0.32845 0.88713 0.0
O332 O 0.52147 0.34671 0.87439 0.0
H333 H 0.46859 0.43112 0.9187 0.0
H334 H 0.48235 0.47212 0.93204 0.0
C335 C 0.48807 0.45344 0.91781 0.0
H336 H 0.48427 0.46781 0.90145 0.0
H337 H 0.45645 0.36234 0.89356 0.0
O338 O 0.6462 0.36119 0.89865 0.0
C339 C 0.54286 0.32167 0.8795 0.0
Co340 Co 0.12007 0.58988 0.8839 0.0
Co341 Co 0.09977 0.51006 0.87187 0.0
C342 C 0.09362 0.56933 0.83752 0.0
O343 O 0.10297 0.59417 0.85129 0.0
O344 O 0.09095 0.53693 0.84393 0.0
C345 C 0.14048 0.66517 0.88494 0.0
O346 O 0.12478 0.66734 0.86492 0.0
C347 C 0.05401 0.44604 0.86489 0.0
C348 C 0.09471 0.40388 0.86976 0.0
C349 C 0.05848 0.40934 0.86671 0.0
N350 N 0.08626 0.46156 0.86733 0.0
N351 N 0.1105 0.43607 0.86949 0.0
C352 C 0.01955 0.46601 0.86269 0.0
H353 H 0.02324 0.49462 0.86724 0.0
H354 H -0.00135 0.45361 0.87358 0.0
H355 H 0.0103 0.46431 0.84471 0.0
C356 C 0.07102 0.57211 0.92367 0.0
N357 N 0.08673 0.56431 0.90343 0.0
N358 N 0.07929 0.53075 0.89825 0.0
C359 C 0.05978 0.51605 0.91517 0.0
C360 C 0.05298 0.54184 0.93151 0.0
C361 C 0.07482 0.60712 0.93572 0.0
H362 H 0.07468 0.62934 0.92313 0.0
H363 H 0.05307 0.61088 0.9484 0.0
H364 H 0.10088 0.60762 0.94477 0.0
O365 O 0.16669 0.56421 0.8824 0.0
O366 O 0.15088 0.50828 0.87553 0.0
H367 H 0.05143 0.46926 0.93633 0.0
H368 H 0.02755 0.46944 0.90988 0.0
C369 C 0.05326 0.47669 0.91801 0.0
H370 H 0.07527 0.46105 0.91032 0.0
H371 H 0.13767 0.44064 0.87216 0.0
O372 O 0.13728 0.63659 0.89662 0.0
C373 C 0.17476 0.53161 0.87913 0.0
Co374 Co 0.89702 0.11452 0.88476 0.0
Co375 Co 0.97864 0.10002 0.87675 0.0
C376 C 0.92574 0.08568 0.84009 0.0
O377 O 0.89944 0.09515 0.85259 0.0
O378 O 0.95759 0.08595 0.8476 0.0
C379 C 0.83346 0.14611 0.87639 0.0
O380 O 0.85085 0.14663 0.8569 0.0
C381 C 0.04585 0.0627 0.86669 0.0
C382 C 0.08494 0.10169 0.88034 0.0
C383 C 0.08207 0.06907 0.86933 0.0
N384 N 0.02811 0.09046 0.87584 0.0
N385 N 0.05159 0.11364 0.88394 0.0
C386 C 0.02823 0.03254 0.85421 0.0
H387 H 0.02567 0.03998 0.83593 0.0
H388 H 0.001 0.02782 0.86113 0.0
H389 H 0.04428 0.00768 0.85525 0.0
C390 C 0.91415 0.06853 0.92652 0.0
N391 N 0.92227 0.08415 0.90629 0.0
N392 N 0.95613 0.07739 0.9017 0.0
C393 C 0.97026 0.05708 0.91838 0.0
C394 C 0.94429 0.05057 0.93465 0.0
C395 C 0.87903 0.07237 0.9384 0.0
H396 H 0.85716 0.07492 0.9257 0.0
H397 H 0.87407 0.04919 0.94985 0.0
H398 H 0.87955 0.09707 0.94891 0.0
O399 O 0.91848 0.16277 0.88413 0.0
O400 O 0.97621 0.15198 0.88003 0.0
H401 H 0.02547 0.07203 0.91932 0.0
H402 H 0.0156 0.03288 0.93593 0.0
C403 C 0.00906 0.04736 0.91995 0.0
H404 H 0.01631 0.03018 0.90524 0.0
H405 H 0.04483 0.13774 0.89183 0.0
O406 O 0.84678 0.12826 0.89289 0.0
C407 C 0.95044 0.17363 0.88243 0.0
Co408 Co 0.87778 0.09575 0.62555 0.0
Co409 Co 0.89205 0.01474 0.63637 0.0
C410 C 0.91022 0.07055 0.67025 0.0
O411 O 0.89857 0.0956 0.65744 0.0
O412 O 0.91059 0.03826 0.66355 0.0
C413 C 0.8456 0.15884 0.63321 0.0
O414 O 0.84494 0.14112 0.65258 0.0
C415 C 0.93493 0.95035 0.64266 0.0
C416 C 0.89408 0.9079 0.6393 0.0
C417 C 0.93018 0.91376 0.64271 0.0
N418 N 0.90296 0.96569 0.63924 0.0
N419 N 0.87856 0.94023 0.63751 0.0
C420 C 0.96912 0.97043 0.64601 0.0
H421 H 0.96601 -0.00118 0.64078 0.0
H422 H 0.99103 0.95765 0.63617 0.0
H423 H 0.97654 0.96944 0.66436 0.0
C424 C 0.92309 0.07617 0.58428 0.0
N425 N 0.90674 0.06887 0.60438 0.0
N426 N 0.91097 0.03452 0.60894 0.0
C427 C 0.92932 0.01899 0.59181 0.0
C428 C 0.93833 0.04477 0.5759 0.0
C429 C 0.92347 0.11214 0.57316 0.0
H430 H 0.92077 0.13352 0.5862 0.0
H431 H 0.94844 0.11589 0.56318 0.0
H432 H 0.9005 0.11401 0.56123 0.0
O433 O 0.82982 0.07383 0.62721 0.0
O434 O 0.83994 0.01771 0.63747 0.0
H435 H 0.93794 0.97203 0.57088 0.0
H436 H 0.95926 0.97126 0.59826 0.0
C437 C 0.93468 0.97945 0.58911 0.0
H438 H 0.91145 0.96462 0.596 0.0
H439 H 0.85143 0.94491 0.63464 0.0
O440 O 0.8634 0.14565 0.61663 0.0
C441 C 0.81863 0.04311 0.63298 0.0
Co442 Co 0.4018 0.87364 0.62569 0.0
Co443 Co 0.47953 0.89945 0.63747 0.0
C444 C 0.42208 0.90919 0.67101 0.0
O445 O 0.39936 0.89357 0.65799 0.0
O446 O 0.45393 0.91544 0.66445 0.0
C447 C 0.32814 0.85028 0.62723 0.0
O448 O 0.32831 0.86341 0.64804 0.0
C449 C 0.54629 0.94026 0.6458 0.0
C450 C 0.58402 0.90582 0.62669 0.0
C451 C 0.5814 0.93767 0.63855 0.0
N452 N 0.52866 0.91134 0.63807 0.0
N453 N 0.55158 0.89052 0.62719 0.0
C454 C 0.52909 0.9713 0.65758 0.0
H455 H 0.49964 0.97054 0.65534 0.0
H456 H 0.53996 0.99688 0.65086 0.0
H457 H 0.53535 0.96996 0.67609 0.0
C458 C 0.41911 0.91668 0.58303 0.0
N459 N 0.42623 0.90475 0.60442 0.0
N460 N 0.45832 0.91603 0.61027 0.0
C461 C 0.47216 0.93582 0.59321 0.0
C462 C 0.44828 0.93649 0.57525 0.0
C463 C 0.38643 0.90686 0.56979 0.0
H464 H 0.36246 0.90973 0.5808 0.0
H465 H 0.38365 0.92378 0.55429 0.0
H466 H 0.38834 0.87836 0.56459 0.0
O467 O 0.42733 0.82777 0.62857 0.0
O468 O 0.48056 0.84738 0.63889 0.0
H469 H 0.52929 0.93345 0.59263 0.0
H470 H 0.51121 0.97312 0.57956 0.0
C471 C 0.5079 0.95386 0.59384 0.0
H472 H 0.51072 0.96873 0.61006 0.0
H473 H 0.54463 0.86664 0.61909 0.0
O474 O 0.3548 0.85598 0.61422 0.0
C475 C 0.45913 0.82185 0.63502 0.0
Co476 Co 0.61934 0.40105 0.62631 0.0
Co477 Co 0.59991 0.48038 0.63825 0.0
C478 C 0.58608 0.42494 0.67204 0.0
O479 O 0.60013 0.40127 0.65905 0.0
O480 O 0.58182 0.45698 0.66533 0.0
C481 C 0.64104 0.3298 0.63213 0.0
O482 O 0.63273 0.33827 0.65324 0.0
C483 C 0.56399 0.54842 0.6489 0.0
C484 C 0.60366 0.58671 0.63509 0.0
C485 C 0.57102 0.58452 0.64609 0.0
N486 N 0.59137 0.53005 0.6398 0.0
N487 N 0.615 0.55306 0.63167 0.0
C488 C 0.53321 0.53152 0.66116 0.0
H489 H 0.54042 0.52826 0.67943 0.0
H490 H 0.52762 0.50457 0.65402 0.0
H491 H 0.50894 0.54845 0.6602 0.0
C492 C 0.57621 0.42169 0.58396 0.0
N493 N 0.58945 0.42761 0.60518 0.0
N494 N 0.58112 0.46057 0.61119 0.0
C495 C 0.56205 0.4762 0.59447 0.0
C496 C 0.55861 0.4525 0.57649 0.0
C497 C 0.5824 0.38829 0.5705 0.0
H498 H 0.60783 0.37545 0.57577 0.0
H499 H 0.5602 0.36932 0.57392 0.0
H500 H 0.58285 0.39417 0.55191 0.0
O501 O 0.66732 0.42308 0.62784 0.0
O502 O 0.652 0.47723 0.63932 0.0
H503 H 0.56962 0.53298 0.59491 0.0
H504 H 0.52852 0.51905 0.5814 0.0
C505 C 0.54733 0.51344 0.5956 0.0
H506 H 0.53272 0.517 0.61187 0.0
H507 H 0.63888 0.54575 0.62373 0.0
O508 O 0.63264 0.35149 0.61623 0.0
C509 C 0.67573 0.45417 0.63464 0.0
Co510 Co 0.09248 0.61944 0.62252 0.0
Co511 Co 0.01086 0.6072 0.63285 0.0
C512 C 0.06767 0.5961 0.66853 0.0
O513 O 0.09391 0.60209 0.65508 0.0
O514 O 0.03551 0.59695 0.66154 0.0
C515 C 0.16672 0.63903 0.62385 0.0
O516 O 0.1656 0.62666 0.64484 0.0
C517 C 0.94701 0.56445 0.64314 0.0
C518 C 0.90413 0.60333 0.63543 0.0
C519 C 0.91034 0.56863 0.64261 0.0
N520 N 0.96198 0.59537 0.63636 0.0
N521 N 0.93621 0.61855 0.6319 0.0
C522 C 0.96748 0.53208 0.65049 0.0
H523 H 0.99618 0.53483 0.646 0.0
H524 H 0.95614 0.50774 0.64238 0.0
H525 H 0.96488 0.52891 0.66927 0.0
C526 C 0.07264 0.57275 0.58239 0.0
N527 N 0.06543 0.58871 0.6026 0.0
N528 N 0.03132 0.58392 0.60735 0.0
C529 C 0.01585 0.56512 0.59041 0.0
C530 C 0.04137 0.55727 0.57409 0.0
C531 C 0.10775 0.5753 0.57035 0.0
H532 H 0.12987 0.57201 0.58281 0.0
H533 H 0.10985 0.55484 0.55666 0.0
H534 H 0.11024 0.6023 0.56259 0.0
O535 O 0.07059 0.6675 0.62362 0.0
O536 O 0.01258 0.65897 0.62918 0.0
H537 H 0.96105 0.58183 0.59205 0.0
H538 H 0.96903 0.54604 0.57201 0.0
C539 C 0.97666 0.55713 0.58888 0.0
H540 H 0.96959 0.53701 0.60201 0.0
H541 H 0.94053 0.64467 0.62623 0.0
O542 O 0.14041 0.63326 0.61058 0.0
C543 C 0.03911 0.67947 0.62599 0.0
H544 H 0.50759 0.88791 0.16635 0.0
H545 H 0.50625 0.70174 0.10376 0.0
H546 H 0.56761 0.86548 0.10509 0.0
H547 H 0.41503 0.7344 0.14368 0.0
H548 H 0.52907 0.7626 0.10519 0.0
H549 H 0.47215 0.83315 0.15962 0.0
C550 C 0.51279 0.87182 0.15133 0.0
C551 C 0.54081 0.88062 0.13644 0.0
C552 C 0.50377 0.75678 0.11338 0.0
C553 C 0.50104 0.81875 0.12874 0.0
C554 C 0.49083 0.72204 0.11258 0.0
C555 C 0.45881 0.71334 0.12357 0.0
C556 C 0.48503 0.78294 0.12576 0.0
C557 C 0.43975 0.74042 0.13485 0.0
C558 C 0.49267 0.84074 0.14749 0.0
C559 C 0.54673 0.85909 0.11725 0.0
N560 N 0.4535 0.77414 0.13602 0.0
N561 N 0.52728 0.82902 0.11408 0.0
H562 H 0.8022 0.52673 0.15361 0.0
H563 H 0.59301 0.50072 0.13276 0.0
H564 H 0.75756 0.42956 0.12553 0.0
H565 H 0.64293 0.59865 0.15505 0.0
H566 H 0.65104 0.47021 0.13579 0.0
H567 H 0.74239 0.54958 0.15949 0.0
C568 C 0.77978 0.51011 0.14863 0.0
C569 C 0.78498 0.47634 0.13872 0.0
C570 C 0.64909 0.49819 0.14043 0.0
C571 C 0.71591 0.50258 0.14549 0.0
C572 C 0.61598 0.51544 0.13898 0.0
C573 C 0.61339 0.55207 0.1439 0.0
C574 C 0.67951 0.51795 0.14674 0.0
C575 C 0.64396 0.57033 0.15117 0.0
C576 C 0.7455 0.5232 0.1521 0.0
C577 C 0.75476 0.45592 0.13298 0.0
N578 N 0.67577 0.55314 0.15224 0.0
N579 N 0.72139 0.46952 0.13628 0.0
H580 H 0.98113 0.79802 0.15804 0.0
H581 H 0.00231 0.59508 0.12638 0.0
H582 H 0.074 0.76083 0.12117 0.0
H583 H 0.9341 0.6341 0.18022 0.0
H584 H 0.03325 0.65306 0.12584 0.0
H585 H 0.9656 0.73665 0.16677 0.0
C586 C -0.00175 0.77686 0.15168 0.0
C587 C 0.02871 0.78454 0.13864 0.0
C588 C 0.01228 0.6485 0.13826 0.0
C589 C 0.01109 0.71377 0.14876 0.0
C590 C 0.99495 0.61533 0.13875 0.0
C591 C 0.96576 0.61012 0.1534 0.0
C592 C -0.00025 0.6763 0.15229 0.0
C593 C 0.95645 0.63734 0.16864 0.0
C594 C 0.98957 0.74173 0.15691 0.0
C595 C 0.05012 0.75597 0.13115 0.0
N596 N 0.97303 0.66948 0.16746 0.0
N597 N 0.04065 0.72165 0.1361 0.0
H598 H 0.85934 0.9259 0.17703 0.0
H599 H 0.73439 0.0748 0.12028 0.0
H600 H 0.89764 -0.0014 0.12537 0.0
H601 H 0.69865 0.98671 0.16229 0.0
H602 H 0.79665 0.05667 0.12755 0.0
H603 H 0.80319 0.95886 0.17854 0.0
C604 C 0.8561 0.94946 0.16642 0.0
C605 C 0.8829 0.95975 0.15113 0.0
C606 C 0.77505 0.04161 0.13527 0.0
C607 C 0.81834 0.99677 0.15198 0.0
C608 C 0.73962 0.05185 0.13109 0.0
C609 C 0.71134 0.03179 0.14033 0.0
C610 C 0.78193 0.01152 0.14901 0.0
C611 C 0.71953 0.00257 0.15442 0.0
C612 C 0.82402 0.96814 0.16713 0.0
C613 C 0.87757 0.99025 0.13758 0.0
N614 N 0.75396 0.9933 0.15822 0.0
N615 N 0.8455 0.00745 0.13801 0.0
H616 H 0.91781 0.25869 0.38978 0.0
H617 H 0.06824 0.13789 0.33112 0.0
H618 H 0.01285 0.29784 0.35604 0.0
H619 H 0.99691 0.09576 0.38235 0.0
H620 H 0.03636 0.19474 0.33248 0.0
H621 H 0.93688 0.19708 0.38114 0.0
C622 C 0.94258 0.25437 0.3806 0.0
C623 C 0.96397 0.28341 0.37383 0.0
C624 C 0.02715 0.17287 0.34312 0.0
C625 C 0.98519 0.21364 0.36348 0.0
C626 C 0.04514 0.14041 0.34218 0.0
C627 C 0.03498 0.11228 0.35655 0.0
C628 C -0.00078 0.17743 0.35887 0.0
C629 C 0.00508 0.11674 0.37073 0.0
C630 C 0.9533 0.21933 0.37562 0.0
C631 C 0.99566 0.27637 0.36185 0.0
N632 N 0.98847 0.14909 0.37183 0.0
N633 N 0.00521 0.24229 0.35705 0.0
H634 H 0.19486 0.01617 0.34893 0.0
H635 H 0.40071 0.99285 0.37844 0.0
H636 H 0.23562 0.9252 0.38633 0.0
H637 H 0.35604 0.08061 0.34012 0.0
H638 H 0.34297 0.96176 0.37616 0.0
H639 H 0.25551 0.03484 0.34092 0.0
C640 C 0.21664 0.0001 0.35554 0.0
C641 C 0.21016 0.96941 0.36869 0.0
C642 C 0.34609 0.9874 0.36777 0.0
C643 C 0.28013 0.99079 0.3595 0.0
C644 C 0.37907 0.00488 0.36883 0.0
C645 C 0.38283 0.0391 0.35932 0.0
C646 C 0.31698 0.00462 0.35729 0.0
C647 C 0.35397 0.05419 0.34764 0.0
C648 C 0.25139 0.01068 0.3508 0.0
C649 C 0.2395 0.9493 0.37636 0.0
N650 N 0.32213 0.037 0.34714 0.0
N651 N 0.27336 0.96062 0.37189 0.0
H652 H 0.57576 0.23486 0.38217 0.0
H653 H 0.40742 0.35296 0.34569 0.0
H654 H 0.4741 0.19358 0.35903 0.0
H655 H 0.50357 0.3994 0.37336 0.0
H656 H 0.43693 0.295 0.34402 0.0
H657 H 0.55442 0.29578 0.37417 0.0
C658 C 0.54905 0.23856 0.37542 0.0
C659 C 0.52655 0.20909 0.3715 0.0
C660 C 0.45196 0.31785 0.35013 0.0
C661 C 0.50235 0.27827 0.36206 0.0
C662 C 0.43516 0.35094 0.3509 0.0
C663 C 0.45323 0.38068 0.35964 0.0
C664 C 0.48686 0.3143 0.35869 0.0
C665 C 0.489 0.37692 0.36632 0.0
C666 C 0.537 0.27325 0.37076 0.0
C667 C 0.49235 0.21539 0.36254 0.0
N668 N 0.5046 0.34401 0.36608 0.0
N669 N 0.48135 0.24919 0.35821 0.0
H670 H 0.14771 0.39401 0.3587 0.0
H671 H 0.26017 0.57166 0.38193 0.0
H672 H 0.09768 0.4952 0.37382 0.0
H673 H 0.30514 0.46988 0.36187 0.0
H674 H 0.2001 0.54659 0.37644 0.0
H675 H 0.20536 0.42387 0.35639 0.0
C676 C 0.14893 0.42273 0.36115 0.0
C677 C 0.11811 0.44227 0.36634 0.0
C678 C 0.22322 0.52995 0.37313 0.0
C679 C 0.18408 0.47668 0.36436 0.0
C680 C 0.25745 0.54415 0.37635 0.0
C681 C 0.28772 0.52273 0.37258 0.0
C682 C 0.21946 0.49415 0.36615 0.0
C683 C 0.28267 0.4874 0.36517 0.0
C684 C 0.18182 0.43982 0.3599 0.0
C685 C 0.12093 0.47938 0.36946 0.0
N686 N 0.24928 0.47425 0.36232 0.0
N687 N 0.15357 0.49543 0.36872 0.0
H688 H 0.49874 0.0949 0.88567 0.0
H689 H 0.4872 0.3 0.85327 0.0
H690 H 0.43102 0.13792 0.83281 0.0
H691 H 0.57373 0.25872 0.89442 0.0
H692 H 0.46874 0.23939 0.84479 0.0
H693 H 0.53067 0.15228 0.88739 0.0
C694 C 0.4916 0.11594 0.87379 0.0
C695 C 0.46246 0.11183 0.85895 0.0
C696 C 0.49191 0.24336 0.85559 0.0
C697 C 0.49764 0.17749 0.86142 0.0
C698 C 0.50231 0.27811 0.86063 0.0
C699 C 0.53186 0.28447 0.87479 0.0
C700 C 0.51076 0.21444 0.86501 0.0
C701 C 0.55064 0.25493 0.88353 0.0
C702 C 0.50948 0.14879 0.87498 0.0
C703 C 0.45338 0.14019 0.84447 0.0
N704 N 0.53952 0.22105 0.87869 0.0
N705 N 0.47062 0.17193 0.84625 0.0
H706 H 0.35457 0.40132 0.85014 0.0
H707 H 0.23559 0.57347 0.87636 0.0
H708 H 0.40284 0.49797 0.87597 0.0
H709 H 0.19951 0.46359 0.87769 0.0
H710 H 0.29684 0.55191 0.86904 0.0
H711 H 0.29661 0.43092 0.85006 0.0
C712 C 0.35295 0.42916 0.85524 0.0
C713 C 0.38318 0.44734 0.86309 0.0
C714 C 0.27529 0.53279 0.87098 0.0
C715 C 0.31705 0.48095 0.86389 0.0
C716 C 0.24053 0.54496 0.87531 0.0
C717 C 0.21237 0.52027 0.87745 0.0
C718 C 0.2814 0.49591 0.86856 0.0
C719 C 0.22016 0.48367 0.87588 0.0
C720 C 0.31993 0.44594 0.85541 0.0
C721 C 0.37994 0.48333 0.8696 0.0
N722 N 0.2538 0.4727 0.8714 0.0
N723 N 0.34711 0.49899 0.87022 0.0
H724 H 0.9126 0.22833 0.8628 0.0
H725 H 0.05278 0.37357 0.90625 0.0
H726 H 0.00613 0.20568 0.9034 0.0
H727 H 0.00418 0.38327 0.83977 0.0
H728 H 0.01787 0.31948 0.91321 0.0
H729 H 0.93056 0.2919 0.86129 0.0
C730 C 0.9365 0.23693 0.8717 0.0
C731 C 0.95818 0.21205 0.88313 0.0
C732 C 0.01433 0.33377 0.89726 0.0
C733 C 0.97805 0.28379 0.88192 0.0
C734 C 0.03412 0.36454 0.8933 0.0
C735 C 0.03157 0.3822 0.87229 0.0
C736 C 0.99207 0.32046 0.88 0.0
C737 C 0.00683 0.36997 0.85612 0.0
C738 C 0.9467 0.27293 0.87075 0.0
C739 C 0.98895 0.22412 0.89427 0.0
N740 N 0.98825 0.33923 0.86015 0.0
N741 N -0.00207 0.25919 0.89343 0.0
H742 H 0.30011 0.02006 0.85039 0.0
H743 H 0.09404 -0.001 0.88043 0.0
H744 H 0.25749 0.92797 0.88582 0.0
H745 H 0.14022 0.08946 0.84549 0.0
H746 H 0.15109 0.96717 0.87681 0.0
H747 H 0.23979 0.04082 0.84332 0.0
C748 C 0.278 0.00416 0.85674 0.0
C749 C 0.28386 0.97256 0.86911 0.0
C750 C 0.14847 0.99364 0.86947 0.0
C751 C 0.21436 0.99633 0.86102 0.0
C752 C 0.11585 0.01158 0.87128 0.0
C753 C 0.11265 0.04666 0.86306 0.0
C754 C 0.17785 0.01125 0.85959 0.0
C755 C 0.14184 0.06238 0.85204 0.0
C756 C 0.24346 0.01596 0.85255 0.0
C757 C 0.25412 0.95275 0.87646 0.0
N758 N 0.17334 0.04468 0.8508 0.0
N759 N 0.22052 0.96522 0.87254 0.0
H760 H 0.03216 0.7135 0.66597 0.0
H761 H 0.97613 0.89876 0.60829 0.0
H762 H 0.03416 0.73137 0.59327 0.0
H763 H 0.9442 0.86498 0.67564 0.0
H764 H 0.01305 0.8446 0.60476 0.0
H765 H 0.01604 0.7763 0.67182 0.0
C766 C 0.02954 0.73101 0.65129 0.0
C767 C 0.03393 0.71775 0.62916 0.0
C768 C -0.00141 0.84948 0.62049 0.0
C769 C 0.01523 0.7889 0.63555 0.0
C770 C 0.97783 0.88031 0.62254 0.0
C771 C 0.95748 0.88588 0.64229 0.0
C772 C -0.00112 0.8245 0.63841 0.0
C773 C 0.95973 0.86132 0.6602 0.0
C774 C 0.02039 0.76666 0.65459 0.0
C775 C 0.03069 0.74102 0.61057 0.0
N776 N 0.97998 0.83148 0.6578 0.0
N777 N 0.02102 0.77563 0.61416 0.0
H778 H 0.76541 0.06503 0.60437 0.0
H779 H 0.61214 0.96747 0.67624 0.0
H780 H 0.78502 0.00775 0.66711 0.0
H781 H 0.61478 0.96814 0.60262 0.0
H782 H 0.66736 0.00344 0.67664 0.0
H783 H 0.70162 0.04942 0.60733 0.0
C784 C 0.75608 0.04968 0.61891 0.0
C785 C 0.78017 0.03698 0.63533 0.0
C786 C 0.65526 0.99633 0.66045 0.0
C787 C 0.70804 0.02024 0.63915 0.0
C788 C 0.6239 0.97608 0.66024 0.0
C789 C 0.60959 0.96478 0.63938 0.0
C790 C 0.67163 0.00555 0.63966 0.0
C791 C 0.62555 0.97622 0.61901 0.0
C792 C 0.71992 0.0409 0.6206 0.0
C793 C 0.76712 0.01735 0.65392 0.0
N794 N 0.65599 0.99587 0.61963 0.0
N795 N 0.73181 0.00948 0.65534 0.0
H796 H 0.59024 0.64301 0.67001 0.0
H797 H 0.42428 0.75839 0.626 0.0
H798 H 0.50224 0.59693 0.63269 0.0
H799 H 0.52154 0.80149 0.65482 0.0
H800 H 0.44644 0.6978 0.63395 0.0
H801 H 0.55839 0.69989 0.67148 0.0
C802 C 0.56373 0.6448 0.66263 0.0
C803 C 0.54857 0.6155 0.6514 0.0
C804 C 0.46271 0.72064 0.63861 0.0
C805 C 0.51253 0.68054 0.65216 0.0
C806 C 0.45019 0.75514 0.63399 0.0
C807 C 0.47132 0.785 0.63945 0.0
C808 C 0.49637 0.71622 0.64888 0.0
C809 C 0.5045 0.77932 0.65001 0.0
C810 C 0.54563 0.67724 0.6633 0.0
C811 C 0.51438 0.61895 0.64187 0.0
N812 N 0.51597 0.74566 0.65429 0.0
N813 N 0.4976 0.65121 0.64216 0.0
H814 H 0.86058 0.57044 0.67585 0.0
H815 H 0.73619 0.4246 0.61535 0.0
H816 H 0.89583 0.50838 0.6181 0.0
H817 H 0.70092 0.50516 0.66316 0.0
H818 H 0.79827 0.44454 0.62133 0.0
H819 H 0.80611 0.53454 0.67763 0.0
C820 C 0.85702 0.54861 0.66388 0.0
C821 C 0.88232 0.54211 0.64686 0.0
C822 C 0.77685 0.45749 0.63062 0.0
C823 C 0.81973 0.50199 0.64804 0.0
C824 C 0.74155 0.44621 0.6272 0.0
C825 C 0.71344 0.46373 0.63847 0.0
C826 C 0.78378 0.48599 0.64567 0.0
C827 C 0.7217 0.49137 0.65376 0.0
C828 C 0.82593 0.52828 0.66475 0.0
C829 C 0.87675 0.51378 0.63158 0.0
N830 N 0.75602 0.50166 0.65683 0.0
N831 N 0.84559 0.49501 0.63225 0.0
H832 H 0.72251 0.14324 0.13713 0.0
H833 H 0.79218 0.33549 0.09629 0.0
H834 H 0.65139 0.2215 0.10779 0.0
H835 H 0.85032 0.26307 0.14003 0.0
H836 H 0.74378 0.29112 0.09342 0.0
H837 H 0.77264 0.1834 0.1308 0.0
C838 C 0.71752 0.16902 0.12925 0.0
C839 C 0.68275 0.17933 0.12328 0.0
C840 C 0.76738 0.28482 0.10335 0.0
C841 C 0.74028 0.22598 0.11622 0.0
C842 C 0.79516 0.30996 0.10485 0.0
C843 C 0.82536 0.30295 0.11846 0.0
C844 C 0.77014 0.25233 0.11531 0.0
C845 C 0.82754 0.26968 0.12942 0.0
C846 C 0.7462 0.19198 0.12564 0.0
C847 C 0.67787 0.2127 0.1127 0.0
N848 N 0.80034 0.24577 0.12765 0.0
N849 N 0.70636 0.23518 0.10976 0.0
H850 H 0.33178 0.68804 0.13339 0.0
H851 H 0.16755 0.80839 0.09007 0.0
H852 H 0.25062 0.65021 0.0869 0.0
H853 H 0.22254 0.82843 0.15357 0.0
H854 H 0.20659 0.75672 0.08349 0.0
H855 H 0.29989 0.74539 0.13622 0.0
C856 C 0.30741 0.69183 0.12368 0.0
C857 C 0.29375 0.66411 0.11001 0.0
C858 C 0.21041 0.77274 0.09871 0.0
C859 C 0.25749 0.72983 0.11291 0.0
C860 C 0.18837 0.80248 0.10236 0.0
C861 C 0.19167 0.82275 0.12245 0.0
C862 C 0.2363 0.76343 0.11508 0.0
C863 C 0.21894 0.81347 0.1379 0.0
C864 C 0.28923 0.72453 0.12533 0.0
C865 C 0.26204 0.67063 0.0978 0.0
N866 N 0.24009 0.78446 0.13395 0.0
N867 N 0.24509 0.70274 0.0995 0.0
H868 H 0.3485 0.73895 0.37361 0.0
H869 H 0.1427 0.75579 0.38155 0.0
H870 H 0.29035 0.65489 0.40786 0.0
H871 H 0.20686 0.84543 0.40328 0.0
H872 H 0.19563 0.71689 0.38507 0.0
H873 H 0.29633 0.7785 0.3782 0.0
C874 C 0.32501 0.72905 0.38241 0.0
C875 C 0.32387 0.69378 0.39061 0.0
C876 C 0.19782 0.745 0.38938 0.0
C877 C 0.26396 0.73816 0.39502 0.0
C878 C 0.16774 0.7671 0.38741 0.0
C879 C 0.17034 0.80371 0.39244 0.0
C880 C 0.23091 0.75997 0.39551 0.0
C881 C 0.20357 0.81721 0.39962 0.0
C882 C 0.29534 0.75153 0.38498 0.0
C883 C 0.29254 0.68208 0.4016 0.0
N884 N 0.23275 0.7955 0.4005 0.0
N885 N 0.26355 0.70398 0.40308 0.0
H886 H 0.83261 0.30503 0.37492 0.0
H887 H 0.66769 0.18817 0.42004 0.0
H888 H 0.75522 0.34526 0.42321 0.0
H889 H 0.7211 0.16796 0.35601 0.0
H890 H 0.707 0.23984 0.42622 0.0
H891 H 0.79855 0.24935 0.37218 0.0
C892 C 0.80847 0.30217 0.38499 0.0
C893 C 0.79666 0.33002 0.39924 0.0
C894 C 0.71035 0.2238 0.41096 0.0
C895 C 0.75779 0.26598 0.39637 0.0
C896 C 0.68821 0.19407 0.40754 0.0
C897 C 0.69109 0.17374 0.38744 0.0
C898 C 0.73587 0.23294 0.39434 0.0
C899 C 0.71789 0.18295 0.3717 0.0
C900 C 0.78906 0.27034 0.3834 0.0
C901 C 0.76519 0.32466 0.41189 0.0
N902 N 0.73916 0.21189 0.37545 0.0
N903 N 0.7469 0.29323 0.41021 0.0
H904 H 0.14228 0.73748 0.87678 0.0
H905 H 0.34872 0.75671 0.87942 0.0
H906 H 0.2048 0.65114 0.90496 0.0
H907 H 0.2847 0.84394 0.90493 0.0
H908 H 0.29659 0.71684 0.88313 0.0
H909 H 0.19402 0.77763 0.88146 0.0
C910 C 0.16667 0.72716 0.88428 0.0
C911 C 0.16914 0.69107 0.89073 0.0
C912 C 0.29425 0.74462 0.88822 0.0
C913 C 0.22855 0.73626 0.89521 0.0
C914 C 0.32389 0.76729 0.88613 0.0
C915 C 0.32113 0.80354 0.89213 0.0
C916 C 0.26132 0.75864 0.89549 0.0
C917 C 0.28814 0.81604 0.90045 0.0
C918 C 0.19609 0.75 0.88692 0.0
C919 C 0.20157 0.67891 0.90008 0.0
N920 N 0.25932 0.79381 0.90146 0.0
N921 N 0.23023 0.70126 0.90162 0.0
H922 H 0.68187 0.31167 0.92023 0.0
H923 H 0.79545 0.17919 0.84323 0.0
H924 H 0.72103 0.33688 0.85271 0.0
H925 H 0.80572 0.17407 0.91661 0.0
H926 H 0.75744 0.23149 0.84715 0.0
H927 H 0.71998 0.25791 0.92043 0.0
C928 C 0.69889 0.30635 0.90565 0.0
C929 C 0.6979 0.32872 0.8863 0.0
C930 C 0.76779 0.21888 0.86245 0.0
C931 C 0.74051 0.26699 0.88627 0.0
C932 C 0.78927 0.18874 0.86026 0.0
C933 C 0.80419 0.17238 0.87961 0.0
C934 C 0.76071 0.23294 0.88419 0.0
C935 C 0.79479 0.18587 0.90123 0.0
C936 C 0.72041 0.27558 0.90576 0.0
C937 C 0.7205 0.32039 0.86792 0.0
N938 N 0.77374 0.21564 0.90297 0.0
N939 N 0.74038 0.29003 0.86824 0.0
H940 H 0.81648 0.19848 0.66696 0.0
H941 H 0.68186 0.31569 0.59365 0.0
H942 H 0.81574 0.18706 0.5936 0.0
H943 H 0.66172 0.27859 0.66231 0.0
H944 H 0.7341 0.27555 0.59174 0.0
H945 H 0.76542 0.2383 0.6644 0.0
C946 C 0.8059 0.20479 0.6502 0.0
C947 C 0.82024 0.18904 0.63048 0.0
C948 C 0.71783 0.276 0.60704 0.0
C949 C 0.76101 0.23461 0.62746 0.0
C950 C 0.6879 0.29865 0.60811 0.0
C951 C 0.66753 0.30082 0.62829 0.0
C952 C 0.72753 0.25594 0.62637 0.0
C953 C 0.67677 0.27825 0.64651 0.0
C954 C 0.77645 0.22732 0.64879 0.0
C955 C 0.8055 0.19864 0.60923 0.0
N956 N 0.70624 0.25724 0.64522 0.0
N957 N 0.7764 0.22072 0.60825 0.0
H958 H 0.34115 0.78984 0.60254 0.0
H959 H 0.14804 0.70512 0.60899 0.0
H960 H 0.25776 0.84409 0.63982 0.0
H961 H 0.23959 0.64235 0.62885 0.0
H962 H 0.18641 0.75844 0.60683 0.0
H963 H 0.30189 0.73751 0.59857 0.0
C964 C 0.31426 0.79111 0.60936 0.0
C965 C 0.30257 0.82142 0.62145 0.0
C966 C 0.19809 0.73281 0.61122 0.0
C967 C 0.25773 0.76193 0.61671 0.0
C968 C 0.17643 0.7024 0.61224 0.0
C969 C 0.19088 0.66928 0.61883 0.0
C970 C 0.23461 0.72984 0.61617 0.0
C971 C 0.22759 0.66736 0.6235 0.0
C972 C 0.29212 0.76116 0.60727 0.0
C973 C 0.26771 0.82131 0.63033 0.0
N974 N 0.24836 0.69724 0.62191 0.0
N975 N 0.24638 0.79204 0.62768 0.0
H976 H 0.48715 0.01896 0.07283 0.0
H977 H 0.5055 0.97306 0.93961 0.0
H978 H 0.57913 0.04715 0.03242 0.0
H979 H 0.4102 0.95174 0.97859 0.0
H980 H 0.53394 0.99751 0.97387 0.0
H981 H 0.45842 0.99427 0.03872 0.0
C982 C 0.50088 0.0207 0.05657 0.0
C983 C 0.53532 0.03546 0.05529 0.0
C984 C 0.50696 0.98716 0.97508 0.0
C985 C 0.50317 0.0062 0.0163 0.0
C986 C 0.4909 0.97282 0.9556 0.0
C987 C 0.45558 0.96022 0.95639 0.0
C988 C 0.48755 0.98903 0.99558 0.0
C989 C 0.43762 0.96082 0.97739 0.0
C990 C 0.48467 0.00624 0.03716 0.0
C991 C 0.55231 0.03652 0.03398 0.0
N992 N 0.45372 0.97527 0.99614 0.0
N993 N 0.53618 0.0218 0.01533 0.0
H994 H 0.45794 0.58536 0.03668 0.0
H995 H 0.53064 0.40651 0.97619 0.0
H996 H 0.4461 0.48012 0.06561 0.0
H997 H 0.5429 0.51187 0.94748 0.0
H998 H 0.5006 0.43289 0.00948 0.0
H999 H 0.4871 0.55886 1.00313 0.0
C1000 C 0.46037 0.55652 0.03552 0.0
C1001 C 0.44895 0.53473 0.05358 0.0
C1002 C 0.51035 0.45037 0.9961 0.0
C1003 C 0.48363 0.50426 0.01587 0.0
C1004 C 0.52802 0.43533 0.97733 0.0
C1005 C 0.53981 0.45719 0.9594 0.0
C1006 C 0.50425 0.48753 0.99684 0.0
C1007 C 0.53475 0.49427 0.96124 0.0
C1008 C 0.47755 0.54142 0.01659 0.0
C1009 C 0.45387 0.49765 0.05174 0.0
N1010 N 0.51717 0.50827 0.97953 0.0
N1011 N 0.47103 0.48358 0.0333 0.0
H1012 H 0.00756 0.47217 0.06911 0.0
H1013 H 0.98502 0.5182 0.93619 0.0
H1014 H 0.91044 0.45266 0.03163 0.0
H1015 H 0.07787 0.54733 0.97548 0.0
H1016 H 0.9573 0.49376 0.97071 0.0
H1017 H 0.03496 0.49662 0.03446 0.0
C1018 C 0.99232 0.47234 0.05337 0.0
C1019 C 0.9568 0.4603 0.05312 0.0
C1020 C 0.98351 0.50592 0.97194 0.0
C1021 C 0.98759 0.48903 0.01352 0.0
C1022 C -0.00087 0.52024 0.9523 0.0
C1023 C 0.03351 0.53521 0.95314 0.0
C1024 C 0.00257 0.50617 0.9926 0.0
C1025 C 0.05105 0.53659 0.97426 0.0
C1026 C 0.0078 0.48668 0.03368 0.0
C1027 C 0.93803 0.46135 0.03243 0.0
N1028 N 0.03551 0.52195 0.99314 0.0
N1029 N 0.95357 0.47575 0.01347 0.0
H1030 H 0.94886 0.08209 0.97652 0.0
H1031 H 0.04043 0.90912 0.03365 0.0
H1032 H 0.95872 0.98049 0.94247 0.0
H1033 H 0.02776 0.00986 0.06838 0.0
H1034 H 0.01259 0.93531 0.99948 0.0
H1035 H 0.97652 0.05593 0.01073 0.0
C1036 C 0.95575 0.05393 0.9766 0.0
C1037 C 0.95099 0.03315 0.95693 0.0
C1038 C 0.01637 0.9519 0.01444 0.0
C1039 C 0.98396 0.00335 0.99547 0.0
C1040 C 0.0328 0.93709 0.03376 0.0
C1041 C 0.03678 0.95759 0.05362 0.0
C1042 C 0.00375 0.9874 0.0151 0.0
C1043 C 0.02555 0.99341 0.05322 0.0
C1044 C 0.9721 0.03912 0.99593 0.0
C1045 C 0.96142 0.99711 0.95753 0.0
N1046 N 0.00934 0.00712 0.03435 0.0
N1047 N 0.97765 0.9834 0.9764 0.0
H1048 H 0.00541 0.01816 0.57256 0.0
H1049 H 0.98797 0.977 0.43873 0.0
H1050 H 0.91643 0.05293 0.53152 0.0
H1051 H 0.08231 0.95235 0.47785 0.0
H1052 H 0.9601 0.00195 0.47303 0.0
H1053 H 0.03407 0.99372 0.53834 0.0
C1054 C 0.99239 0.0214 0.55615 0.0
C1055 C 0.95879 0.03792 0.55471 0.0
C1056 C 0.98675 0.99081 0.47425 0.0
C1057 C 0.99074 0.00895 0.5156 0.0
C1058 C 0.00248 0.9762 0.45475 0.0
C1059 C 0.03737 0.96251 0.45557 0.0
C1060 C 0.00605 0.99178 0.49481 0.0
C1061 C 0.05521 0.96232 0.47661 0.0
C1062 C 0.00853 0.00711 0.53668 0.0
C1063 C 0.94262 0.04089 0.53322 0.0
N1064 N 0.03943 0.977 0.4954 0.0
N1065 N 0.95861 0.02623 0.51451 0.0
H1066 H 0.57355 -0.00053 0.458 0.0
H1067 H 0.41962 0.99507 0.55405 0.0
H1068 H 0.49293 0.08093 0.46511 0.0
H1069 H 0.49836 0.91208 0.54577 0.0
H1070 H 0.4452 0.02652 0.52095 0.0
H1071 H 0.54788 0.96796 0.49108 0.0
C1072 C 0.55108 0.01116 0.46697 0.0
C1073 C 0.53551 0.04291 0.45911 0.0
C1074 C 0.45658 0.00114 0.52613 0.0
C1075 C 0.50517 0.00668 0.49627 0.0
C1076 C 0.44157 0.983 0.54477 0.0
C1077 C 0.45657 0.95076 0.55227 0.0
C1078 C 0.48698 0.98702 0.51514 0.0
C1079 C 0.48573 0.93665 0.54017 0.0
C1080 C 0.53605 0.99298 0.4856 0.0
C1081 C 0.50587 0.05664 0.4709 0.0
N1082 N 0.50015 0.95495 0.52233 0.0
N1083 N 0.49151 0.03835 0.48877 0.0
H1084 H 0.41509 0.4903 0.46287 0.0
H1085 H 0.58234 0.50425 0.54789 0.0
H1086 H 0.49238 0.5756 0.4603 0.0
H1087 H 0.50068 0.42363 0.55434 0.0
H1088 H 0.55119 0.52895 0.5147 0.0
H1089 H 0.44567 0.46539 0.49626 0.0
C1090 C 0.43806 0.50426 0.46978 0.0
C1091 C 0.45108 0.53524 0.45907 0.0
C1092 C 0.54018 0.50563 0.52314 0.0
C1093 C 0.48693 0.50634 0.49684 0.0
C1094 C 0.55818 0.49128 0.54191 0.0
C1095 C 0.54408 0.46178 0.5537 0.0
C1096 C 0.50774 0.49038 0.51604 0.0
C1097 C 0.51255 0.44617 0.54551 0.0
C1098 C 0.45574 0.48983 0.48867 0.0
C1099 C 0.48127 0.55197 0.46832 0.0
N1100 N 0.49527 0.4608 0.52724 0.0
N1101 N 0.49836 0.53716 0.4866 0.0
H1102 H 0.01018 0.59002 0.53798 0.0
H1103 H 0.97953 0.40712 0.46901 0.0
H1104 H 0.05189 0.48846 0.5602 0.0
H1105 H 0.93214 0.50763 0.44975 0.0
H1106 H 0.00621 0.43598 0.50256 0.0
H1107 H 0.98373 0.56073 0.50456 0.0
C1108 C 0.01467 0.56167 0.53533 0.0
C1109 C 0.03374 0.54162 0.55147 0.0
C1110 C 0.98945 0.45166 0.49128 0.0
C1111 C 0.00257 0.50762 0.51384 0.0
C1112 C 0.97381 0.43505 0.47237 0.0
C1113 C 0.9529 0.45492 0.4571 0.0
C1114 C 0.98449 0.48855 0.49473 0.0
C1115 C 0.94737 0.49131 0.46154 0.0
C1116 C -0.00087 0.54485 0.51649 0.0
C1117 C 0.03792 0.50483 0.54781 0.0
N1118 N 0.96322 0.50704 0.47991 0.0
N1119 N 0.02231 0.48893 0.52941 0.0
H1120 H 0.54195 0.03319 0.31296 0.0
H1121 H 0.61458 0.1232 0.19774 0.0
H1122 H 0.61934 0.11883 0.31286 0.0
H1123 H 0.5388 0.03617 0.20032 0.0
H1124 H 0.61554 0.12429 0.23967 0.0
H1125 H 0.54228 0.03343 0.2714 0.0
C1126 C 0.55968 0.05152 0.30414 0.0
C1127 C 0.5807 0.07598 0.3164 0.0
C1128 C 0.59841 0.10527 0.23101 0.0
C1129 C 0.5804 0.07723 0.26862 0.0
C1130 C 0.5974 0.10501 0.20709 0.0
C1131 C 0.57659 0.07952 0.19551 0.0
C1132 C 0.57841 0.0799 0.24333 0.0
C1133 C 0.55534 0.0562 0.20852 0.0
C1134 C 0.55956 0.05195 0.28037 0.0
C1135 C 0.60301 0.09927 0.30407 0.0
N1136 N 0.55703 0.05678 0.23166 0.0
N1137 N 0.60198 0.09962 0.28081 0.0
H1138 H 0.37604 0.62449 0.31417 0.0
H1139 H 0.46383 0.55054 0.19863 0.0
H1140 H 0.46015 0.54558 0.31139 0.0
H1141 H 0.37326 0.62201 0.19894 0.0
H1142 H 0.46331 0.55009 0.24017 0.0
H1143 H 0.37705 0.628 0.27228 0.0
C1144 C 0.39533 0.60861 0.30481 0.0
C1145 C 0.41802 0.58466 0.3163 0.0
C1146 C 0.44332 0.56572 0.23125 0.0
C1147 C 0.41868 0.58788 0.26849 0.0
C1148 C 0.44348 0.56581 0.20748 0.0
C1149 C 0.41856 0.58637 0.19528 0.0
C1150 C 0.41821 0.58656 0.24311 0.0
C1151 C 0.39276 0.60556 0.20768 0.0
C1152 C 0.39553 0.61024 0.2809 0.0
C1153 C 0.44208 0.56432 0.30327 0.0
N1154 N 0.39343 0.60544 0.23097 0.0
N1155 N 0.44159 0.56623 0.28013 0.0
H1156 H 0.96252 0.44707 0.19607 0.0
H1157 H 0.87251 0.37739 0.31203 0.0
H1158 H 0.87202 0.37551 0.19674 0.0
H1159 H 0.96416 0.44744 0.30867 0.0
H1160 H 0.87088 0.37605 0.27011 0.0
H1161 H 0.96489 0.44427 0.23758 0.0
C1162 C 0.94363 0.43006 0.20498 0.0
C1163 C 0.91704 0.41149 0.19294 0.0
C1164 C 0.89116 0.39188 0.27861 0.0
C1165 C 0.9188 0.40904 0.2407 0.0
C1166 C 0.89181 0.39306 0.30253 0.0
C1167 C 0.91853 0.41255 0.31393 0.0
C1168 C 0.91739 0.41035 0.26606 0.0
C1169 C 0.94315 0.43192 0.30069 0.0
C1170 C 0.94473 0.42876 0.22873 0.0
C1171 C 0.89315 0.38999 0.20537 0.0
N1172 N 0.94207 0.43017 0.27755 0.0
N1173 N 0.89428 0.38971 0.22864 0.0
H1174 H 0.1205 0.872 0.3134 0.0
H1175 H 0.03655 0.95544 0.19931 0.0
H1176 H 0.03507 0.9495 0.31175 0.0
H1177 H 0.12129 0.87713 0.19802 0.0
H1178 H 0.03739 0.95397 0.24082 0.0
H1179 H 0.12031 0.87084 0.27143 0.0
C1180 C 0.10098 0.8879 0.30424 0.0
C1181 C 0.07774 0.91088 0.31607 0.0
C1182 C 0.05613 0.93731 0.23157 0.0
C1183 C 0.07818 0.91058 0.26824 0.0
C1184 C 0.05592 0.93845 0.20781 0.0
C1185 C 0.07892 0.9164 0.19515 0.0
C1186 C 0.07937 0.91379 0.24294 0.0
C1187 C 0.10334 0.89483 0.20711 0.0
C1188 C 0.10129 0.88769 0.2803 0.0
C1189 C 0.0535 0.93145 0.30334 0.0
N1190 N 0.1027 0.89377 0.23039 0.0
N1191 N 0.05458 0.93103 0.28018 0.0
H1192 H 0.46053 0.94795 0.81309 0.0
H1193 H 0.37122 0.87576 0.69755 0.0
H1194 H 0.3715 0.87455 0.81308 0.0
H1195 H 0.45708 0.95282 0.70076 0.0
H1196 H 0.36969 0.87446 0.73949 0.0
H1197 H 0.46124 0.94642 0.77155 0.0
C1198 C 0.44164 0.93079 0.8043 0.0
C1199 C 0.41596 0.91131 0.81656 0.0
C1200 C 0.38858 0.89189 0.73096 0.0
C1201 C 0.41577 0.91033 0.76877 0.0
C1202 C 0.38911 0.89305 0.70703 0.0
C1203 C 0.41439 0.91437 0.6956 0.0
C1204 C 0.4135 0.91218 0.74344 0.0
C1205 C 0.43726 0.93583 0.70879 0.0
C1206 C 0.44175 0.93026 0.78053 0.0
C1207 C 0.392 0.88968 0.80428 0.0
N1208 N 0.43644 0.93395 0.73191 0.0
N1209 N 0.39218 0.89009 0.78099 0.0
H1210 H 0.54305 0.46189 0.70109 0.0
H1211 H 0.62088 0.37133 0.81482 0.0
H1212 H 0.61696 0.37327 0.69928 0.0
H1213 H 0.54568 0.45883 0.8136 0.0
H1214 H 0.6221 0.37205 0.77283 0.0
H1215 H 0.54338 0.45949 0.74256 0.0
C1216 C 0.55887 0.44141 0.70944 0.0
C1217 C 0.58003 0.41775 0.69664 0.0
C1218 C 0.60569 0.39134 0.7818 0.0
C1219 C 0.58121 0.41536 0.74447 0.0
C1220 C 0.6054 0.3913 0.80576 0.0
C1221 C 0.58319 0.41513 0.81772 0.0
C1222 C 0.58371 0.41546 0.76984 0.0
C1223 C 0.56313 0.43994 0.8051 0.0
C1224 C 0.55931 0.44026 0.7332 0.0
C1225 C 0.60003 0.39185 0.70846 0.0
N1226 N 0.56373 0.4393 0.78193 0.0
N1227 N 0.60042 0.39154 0.73176 0.0
H1228 H 0.02301 0.61904 0.70182 0.0
H1229 H 0.11931 0.52667 0.80431 0.0
H1230 H 0.12543 0.56818 0.69193 0.0
H1231 H 0.0646 0.62706 0.81442 0.0
H1232 H 0.11618 0.53553 0.76306 0.0
H1233 H 0.03187 0.61631 0.74309 0.0
C1234 C 0.04731 0.60702 0.70835 0.0
C1235 C 0.07341 0.59337 0.69343 0.0
C1236 C 0.10506 0.55571 0.77429 0.0
C1237 C 0.08347 0.59024 0.74065 0.0
C1238 C 0.10649 0.55059 0.79779 0.0
C1239 C 0.09179 0.57606 0.81274 0.0
C1240 C 0.08802 0.58607 0.76557 0.0
C1241 C 0.07607 0.6068 0.80343 0.0
C1242 C 0.05243 0.6059 0.73188 0.0
C1243 C 0.10461 0.57877 0.70284 0.0
N1244 N 0.07404 0.61071 0.7803 0.0
N1245 N 0.10857 0.57707 0.72596 0.0
H1246 H 0.9662 0.04363 0.81231 0.0
H1247 H 0.88412 0.12436 0.69736 0.0
H1248 H 0.87507 0.11436 0.81171 0.0
H1249 H 0.95137 0.03054 0.69894 0.0
H1250 H 0.88629 0.12662 0.73922 0.0
H1251 H 0.96484 0.04193 0.77061 0.0
C1252 C 0.94554 0.05836 0.80337 0.0
C1253 C 0.92063 0.07906 0.81545 0.0
C1254 C 0.90082 0.10577 0.73034 0.0
C1255 C 0.91956 0.0781 0.76772 0.0
C1256 C 0.90006 0.10479 0.70646 0.0
C1257 C 0.91764 0.07724 0.69466 0.0
C1258 C 0.91961 0.07926 0.74241 0.0
C1259 C 0.9374 0.05223 0.70736 0.0
C1260 C 0.9449 0.05755 0.77958 0.0
C1261 C 0.89451 0.09775 0.80304 0.0
N1262 N 0.93776 0.05377 0.73052 0.0
N1263 N 0.89491 0.09717 0.7798 0.0
loop_
_geom_bond_atom_site_label_1
_geom_bond_atom_site_label_2
_geom_bond_distance
_geom_bond_site_symmetry_2
_ccdc_geom_bond_type
Co0 O3 1.970 . S
Co0 N17 1.989 . S
Co0 O25 1.967 . S
Co0 O32 1.920 . S
Co1 O4 1.966 1_565 S
Co1 N10 2.022 . S
Co1 N18 1.993 1_565 S
Co1 O26 1.941 . S
C2 O3 1.258 . S
C2 O4 1.263 . S
O3 Co0 1.970 . S
O3 C2 1.258 . S
O4 Co1 1.966 1_545 S
O4 C2 1.263 . S
C5 O6 1.235 . S
C5 O32 1.289 . S
O6 C5 1.235 . S
C7 C9 1.400 . S
C7 N10 1.351 . S
C7 C12 1.501 . S
C8 C9 1.387 . S
C8 N11 1.341 . S
C9 C7 1.400 . S
C9 C8 1.387 . S
N10 Co1 2.022 . S
N10 C7 1.351 . S
N10 N11 1.365 . S
N11 C8 1.341 . S
N11 N10 1.365 . S
N11 H31 0.862 . S
C12 C7 1.501 . S
C12 H13 0.961 . S
C12 H14 0.961 . S
C12 H15 0.960 . S
H13 C12 0.961 . S
H14 C12 0.961 . S
H15 C12 0.960 . S
C16 N17 1.342 . S
C16 C20 1.401 . S
C16 C21 1.499 . S
N17 Co0 1.989 . S
N17 C16 1.342 . S
N17 N18 1.388 . S
N18 Co1 1.993 1_545 S
N18 N17 1.388 . S
N18 C19 1.346 . S
C19 N18 1.346 . S
C19 C20 1.396 . S
C19 C29 1.510 1_545 S
C20 C16 1.401 . S
C20 C19 1.396 . S
C21 C16 1.499 . S
C21 H22 0.959 . S
C21 H23 0.960 . S
C21 H24 0.961 . S
H22 C21 0.959 . S
H23 C21 0.960 . S
H24 C21 0.961 . S
O25 Co0 1.967 . S
O25 C33 1.258 . S
O26 Co1 1.941 . S
O26 C33 1.266 1_565 S
H27 C29 0.959 . S
H28 C29 0.961 . S
C29 C19 1.510 1_565 S
C29 H27 0.959 . S
C29 H28 0.961 . S
C29 H30 0.960 . S
H30 C29 0.960 . S
H31 N11 0.862 . S
O32 Co0 1.920 . S
O32 C5 1.289 . S
C33 O25 1.258 . S
C33 O26 1.266 1_545 S
Co34 O37 1.970 . S
Co34 N51 1.989 . S
Co34 O59 1.967 . S
Co34 O66 1.920 . S
Co35 O38 1.966 . S
Co35 N44 2.022 . S
Co35 N52 1.993 . S
Co35 O60 1.941 . S
C36 O37 1.258 . S
C36 O38 1.263 . S
O37 Co34 1.970 . S
O37 C36 1.258 . S
O38 Co35 1.966 . S
O38 C36 1.263 . S
C39 O40 1.235 . S
C39 O66 1.289 . S
O40 C39 1.235 . S
C41 C43 1.400 . S
C41 N44 1.351 . S
C41 C46 1.501 . S
C42 C43 1.387 . S
C42 N45 1.341 . S
C43 C41 1.400 . S
C43 C42 1.387 . S
N44 Co35 2.022 . S
N44 C41 1.351 . S
N44 N45 1.365 . S
N45 C42 1.341 . S
N45 N44 1.365 . S
N45 H65 0.862 . S
C46 C41 1.501 . S
C46 H47 0.961 . S
C46 H48 0.961 . S
C46 H49 0.960 . S
H47 C46 0.961 . S
H48 C46 0.961 . S
H49 C46 0.960 . S
C50 N51 1.342 . S
C50 C54 1.401 . S
C50 C55 1.499 . S
N51 Co34 1.989 . S
N51 C50 1.342 . S
N51 N52 1.388 . S
N52 Co35 1.993 . S
N52 N51 1.388 . S
N52 C53 1.346 . S
C53 N52 1.346 . S
C53 C54 1.396 . S
C53 C63 1.510 . S
C54 C50 1.401 . S
C54 C53 1.396 . S
C55 C50 1.499 . S
C55 H56 0.959 . S
C55 H57 0.960 . S
C55 H58 0.961 . S
H56 C55 0.959 . S
H57 C55 0.960 . S
H58 C55 0.961 . S
O59 Co34 1.967 . S
O59 C67 1.258 . S
O60 Co35 1.941 . S
O60 C67 1.266 . S
H61 C63 0.959 . S
H62 C63 0.961 . S
C63 C53 1.510 . S
C63 H61 0.959 . S
C63 H62 0.961 . S
C63 H64 0.960 . S
H64 C63 0.960 . S
H65 N45 0.862 . S
O66 Co34 1.920 . S
O66 C39 1.289 . S
C67 O59 1.258 . S
C67 O60 1.266 . S
Co68 O71 1.970 . S
Co68 N85 1.989 . S
Co68 O93 1.967 . S
Co68 O100 1.920 . S
Co69 O72 1.966 . S
Co69 N78 2.022 . S
Co69 N86 1.993 . S
Co69 O94 1.941 . S
C70 O71 1.258 . S
C70 O72 1.263 . S
O71 Co68 1.970 . S
O71 C70 1.258 . S
O72 Co69 1.966 . S
O72 C70 1.263 . S
C73 O74 1.235 . S
C73 O100 1.289 . S
O74 C73 1.235 . S
C75 C77 1.400 . S
C75 N78 1.351 . S
C75 C80 1.501 . S
C76 C77 1.387 . S
C76 N79 1.341 . S
C77 C75 1.400 . S
C77 C76 1.387 . S
N78 Co69 2.022 . S
N78 C75 1.351 . S
N78 N79 1.365 . S
N79 C76 1.341 . S
N79 N78 1.365 . S
N79 H99 0.862 . S
C80 C75 1.501 . S
C80 H81 0.961 . S
C80 H82 0.961 . S
C80 H83 0.960 . S
H81 C80 0.961 . S
H82 C80 0.961 . S
H83 C80 0.960 . S
C84 N85 1.342 . S
C84 C88 1.401 . S
C84 C89 1.499 . S
N85 Co68 1.989 . S
N85 C84 1.342 . S
N85 N86 1.388 . S
N86 Co69 1.993 . S
N86 N85 1.388 . S
N86 C87 1.346 . S
C87 N86 1.346 . S
C87 C88 1.396 . S
C87 C97 1.510 . S
C88 C84 1.401 . S
C88 C87 1.396 . S
C89 C84 1.499 . S
C89 H90 0.959 . S
C89 H91 0.960 . S
C89 H92 0.961 . S
H90 C89 0.959 . S
H91 C89 0.960 . S
H92 C89 0.961 . S
O93 Co68 1.967 . S
O93 C101 1.258 . S
O94 Co69 1.941 . S
O94 C101 1.266 . S
H95 C97 0.959 . S
H96 C97 0.961 . S
C97 C87 1.510 . S
C97 H95 0.959 . S
C97 H96 0.961 . S
C97 H98 0.960 . S
H98 C97 0.960 . S
H99 N79 0.862 . S
O100 Co68 1.920 . S
O100 C73 1.289 . S
C101 O93 1.258 . S
C101 O94 1.266 . S
Co102 O105 1.970 . S
Co102 N119 1.989 . S
Co102 O127 1.967 . S
Co102 O134 1.920 . S
Co103 O106 1.966 1_655 S
Co103 N112 2.022 . S
Co103 N120 1.993 1_655 S
Co103 O128 1.941 . S
C104 O105 1.258 . S
C104 O106 1.263 . S
O105 Co102 1.970 . S
O105 C104 1.258 . S
O106 Co103 1.966 1_455 S
O106 C104 1.263 . S
C107 O108 1.235 . S
C107 O134 1.289 . S
O108 C107 1.235 . S
C109 C111 1.400 . S
C109 N112 1.351 . S
C109 C114 1.501 . S
C110 C111 1.387 . S
C110 N113 1.341 . S
C111 C109 1.400 . S
C111 C110 1.387 . S
N112 Co103 2.022 . S
N112 C109 1.351 . S
N112 N113 1.365 . S
N113 C110 1.341 . S
N113 N112 1.365 . S
N113 H133 0.862 . S
C114 C109 1.501 . S
C114 H115 0.961 . S
C114 H116 0.961 . S
C114 H117 0.960 . S
H115 C114 0.961 . S
H116 C114 0.961 . S
H117 C114 0.960 . S
C118 N119 1.342 . S
C118 C122 1.401 . S
C118 C123 1.499 . S
N119 Co102 1.989 . S
N119 C118 1.342 . S
N119 N120 1.388 . S
N120 Co103 1.993 1_455 S
N120 N119 1.388 . S
N120 C121 1.346 . S
C121 N120 1.346 . S
C121 C122 1.396 . S
C121 C131 1.510 1_455 S
C122 C118 1.401 . S
C122 C121 1.396 . S
C123 C118 1.499 . S
C123 H124 0.959 . S
C123 H125 0.960 . S
C123 H126 0.961 . S
H124 C123 0.959 . S
H125 C123 0.960 . S
H126 C123 0.961 . S
O127 Co102 1.967 . S
O127 C135 1.258 . S
O128 Co103 1.941 . S
O128 C135 1.266 1_655 S
H129 C131 0.959 . S
H130 C131 0.961 . S
C131 C121 1.510 1_655 S
C131 H129 0.959 . S
C131 H130 0.961 . S
C131 H132 0.960 . S
H132 C131 0.960 . S
H133 N113 0.862 . S
O134 Co102 1.920 . S
O134 C107 1.289 . S
C135 O127 1.258 . S
C135 O128 1.266 1_455 S
Co136 O139 1.970 . S
Co136 N153 1.989 . S
Co136 O161 1.967 . S
Co136 O168 1.920 . S
Co137 O140 1.966 1_545 S
Co137 N146 2.022 . S
Co137 N154 1.993 1_545 S
Co137 O162 1.941 . S
C138 O139 1.258 . S
C138 O140 1.263 . S
O139 Co136 1.970 . S
O139 C138 1.258 . S
O140 Co137 1.966 1_565 S
O140 C138 1.263 . S
C141 O142 1.235 . S
C141 O168 1.289 . S
O142 C141 1.235 . S
C143 C145 1.400 . S
C143 N146 1.351 . S
C143 C148 1.501 . S
C144 C145 1.387 . S
C144 N147 1.341 . S
C145 C143 1.400 . S
C145 C144 1.387 . S
N146 Co137 2.022 . S
N146 C143 1.351 . S
N146 N147 1.365 . S
N147 C144 1.341 . S
N147 N146 1.365 . S
N147 H167 0.862 . S
C148 C143 1.501 . S
C148 H149 0.961 . S
C148 H150 0.961 . S
C148 H151 0.960 . S
H149 C148 0.961 . S
H150 C148 0.961 . S
H151 C148 0.960 . S
C152 N153 1.342 . S
C152 C156 1.401 . S
C152 C157 1.499 . S
N153 Co136 1.989 . S
N153 C152 1.342 . S
N153 N154 1.388 . S
N154 Co137 1.993 1_565 S
N154 N153 1.388 . S
N154 C155 1.346 . S
C155 N154 1.346 . S
C155 C156 1.396 . S
C155 C165 1.510 1_565 S
C156 C152 1.401 . S
C156 C155 1.396 . S
C157 C152 1.499 . S
C157 H158 0.959 . S
C157 H159 0.960 . S
C157 H160 0.961 . S
H158 C157 0.959 . S
H159 C157 0.960 . S
H160 C157 0.961 . S
O161 Co136 1.967 . S
O161 C169 1.258 . S
O162 Co137 1.941 . S
O162 C169 1.266 1_545 S
H163 C165 0.959 . S
H164 C165 0.961 . S
C165 C155 1.510 1_545 S
C165 H163 0.959 . S
C165 H164 0.961 . S
C165 H166 0.960 . S
H166 C165 0.960 . S
H167 N147 0.862 . S
O168 Co136 1.920 . S
O168 C141 1.289 . S
C169 O161 1.258 . S
C169 O162 1.266 1_565 S
Co170 O173 1.970 . S
Co170 N187 1.989 . S
Co170 O195 1.967 . S
Co170 O202 1.920 . S
Co171 O174 1.966 . S
Co171 N180 2.022 . S
Co171 N188 1.993 . S
Co171 O196 1.941 . S
C172 O173 1.258 . S
C172 O174 1.263 . S
O173 Co170 1.970 . S
O173 C172 1.258 . S
O174 Co171 1.966 . S
O174 C172 1.263 . S
C175 O176 1.235 . S
C175 O202 1.289 . S
O176 C175 1.235 . S
C177 C179 1.400 . S
C177 N180 1.351 . S
C177 C182 1.501 . S
C178 C179 1.387 . S
C178 N181 1.341 . S
C179 C177 1.400 . S
C179 C178 1.387 . S
N180 Co171 2.022 . S
N180 C177 1.351 . S
N180 N181 1.365 . S
N181 C178 1.341 . S
N181 N180 1.365 . S
N181 H201 0.862 . S
C182 C177 1.501 . S
C182 H183 0.961 . S
C182 H184 0.961 . S
C182 H185 0.960 . S
H183 C182 0.961 . S
H184 C182 0.961 . S
H185 C182 0.960 . S
C186 N187 1.342 . S
C186 C190 1.401 . S
C186 C191 1.499 . S
N187 Co170 1.989 . S
N187 C186 1.342 . S
N187 N188 1.388 . S
N188 Co171 1.993 . S
N188 N187 1.388 . S
N188 C189 1.346 . S
C189 N188 1.346 . S
C189 C190 1.396 . S
C189 C199 1.510 . S
C190 C186 1.401 . S
C190 C189 1.396 . S
C191 C186 1.499 . S
C191 H192 0.959 . S
C191 H193 0.960 . S
C191 H194 0.961 . S
H192 C191 0.959 . S
H193 C191 0.960 . S
H194 C191 0.961 . S
O195 Co170 1.967 . S
O195 C203 1.258 . S
O196 Co171 1.941 . S
O196 C203 1.266 . S
H197 C199 0.959 . S
H198 C199 0.961 . S
C199 C189 1.510 . S
C199 H197 0.959 . S
C199 H198 0.961 . S
C199 H200 0.960 . S
H200 C199 0.960 . S
H201 N181 0.862 . S
O202 Co170 1.920 . S
O202 C175 1.289 . S
C203 O195 1.258 . S
C203 O196 1.266 . S
Co204 O207 1.970 . S
Co204 N221 1.989 . S
Co204 O229 1.967 . S
Co204 O236 1.920 . S
Co205 O208 1.966 . S
Co205 N214 2.022 . S
Co205 N222 1.993 . S
Co205 O230 1.941 . S
C206 O207 1.258 . S
C206 O208 1.263 . S
O207 Co204 1.970 . S
O207 C206 1.258 . S
O208 Co205 1.966 . S
O208 C206 1.263 . S
C209 O210 1.235 . S
C209 O236 1.289 . S
O210 C209 1.235 . S
C211 C213 1.400 . S
C211 N214 1.351 . S
C211 C216 1.501 . S
C212 C213 1.387 . S
C212 N215 1.341 . S
C213 C211 1.400 . S
C213 C212 1.387 . S
N214 Co205 2.022 . S
N214 C211 1.351 . S
N214 N215 1.365 . S
N215 C212 1.341 . S
N215 N214 1.365 . S
N215 H235 0.862 . S
C216 C211 1.501 . S
C216 H217 0.961 . S
C216 H218 0.961 . S
C216 H219 0.960 . S
H217 C216 0.961 . S
H218 C216 0.961 . S
H219 C216 0.960 . S
C220 N221 1.342 . S
C220 C224 1.401 . S
C220 C225 1.499 . S
N221 Co204 1.989 . S
N221 C220 1.342 . S
N221 N222 1.388 . S
N222 Co205 1.993 . S
N222 N221 1.388 . S
N222 C223 1.346 . S
C223 N222 1.346 . S
C223 C224 1.396 . S
C223 C233 1.510 . S
C224 C220 1.401 . S
C224 C223 1.396 . S
C225 C220 1.499 . S
C225 H226 0.959 . S
C225 H227 0.960 . S
C225 H228 0.961 . S
H226 C225 0.959 . S
H227 C225 0.960 . S
H228 C225 0.961 . S
O229 Co204 1.967 . S
O229 C237 1.258 . S
O230 Co205 1.941 . S
O230 C237 1.266 . S
H231 C233 0.959 . S
H232 C233 0.961 . S
C233 C223 1.510 . S
C233 H231 0.959 . S
C233 H232 0.961 . S
C233 H234 0.960 . S
H234 C233 0.960 . S
H235 N215 0.862 . S
O236 Co204 1.920 . S
O236 C209 1.289 . S
C237 O229 1.258 . S
C237 O230 1.266 . S
Co238 O241 1.970 . S
Co238 N255 1.989 . S
Co238 O263 1.967 . S
Co238 O270 1.920 . S
Co239 O242 1.966 1_455 S
Co239 N248 2.022 . S
Co239 N256 1.993 1_455 S
Co239 O264 1.941 . S
C240 O241 1.258 . S
C240 O242 1.263 . S
O241 Co238 1.970 . S
O241 C240 1.258 . S
O242 Co239 1.966 1_655 S
O242 C240 1.263 . S
C243 O244 1.235 . S
C243 O270 1.289 . S
O244 C243 1.235 . S
C245 C247 1.400 . S
C245 N248 1.351 . S
C245 C250 1.501 . S
C246 C247 1.387 . S
C246 N249 1.341 . S
C247 C245 1.400 . S
C247 C246 1.387 . S
N248 Co239 2.022 . S
N248 C245 1.351 . S
N248 N249 1.365 . S
N249 C246 1.341 . S
N249 N248 1.365 . S
N249 H269 0.862 . S
C250 C245 1.501 . S
C250 H251 0.961 . S
C250 H252 0.961 . S
C250 H253 0.960 . S
H251 C250 0.961 . S
H252 C250 0.961 . S
H253 C250 0.960 . S
C254 N255 1.342 . S
C254 C258 1.401 . S
C254 C259 1.499 . S
N255 Co238 1.989 . S
N255 C254 1.342 . S
N255 N256 1.388 . S
N256 Co239 1.993 1_655 S
N256 N255 1.388 . S
N256 C257 1.346 . S
C257 N256 1.346 . S
C257 C258 1.396 . S
C257 C267 1.510 1_655 S
C258 C254 1.401 . S
C258 C257 1.396 . S
C259 C254 1.499 . S
C259 H260 0.959 . S
C259 H261 0.960 . S
C259 H262 0.961 . S
H260 C259 0.959 . S
H261 C259 0.960 . S
H262 C259 0.961 . S
O263 Co238 1.967 . S
O263 C271 1.258 . S
O264 Co239 1.941 . S
O264 C271 1.266 1_455 S
H265 C267 0.959 . S
H266 C267 0.961 . S
C267 C257 1.510 1_455 S
C267 H265 0.959 . S
C267 H266 0.961 . S
C267 H268 0.960 . S
H268 C267 0.960 . S
H269 N249 0.862 . S
O270 Co238 1.920 . S
O270 C243 1.289 . S
C271 O263 1.258 . S
C271 O264 1.266 1_655 S
Co272 O275 1.970 . S
Co272 N289 1.989 . S
Co272 O297 1.967 . S
Co272 O304 1.920 . S
Co273 O276 1.966 1_545 S
Co273 N282 2.022 . S
Co273 N290 1.993 1_545 S
Co273 O298 1.941 . S
C274 O275 1.258 . S
C274 O276 1.263 . S
O275 Co272 1.970 . S
O275 C274 1.258 . S
O276 Co273 1.966 1_565 S
O276 C274 1.263 . S
C277 O278 1.235 . S
C277 O304 1.289 . S
O278 C277 1.235 . S
C279 C281 1.400 . S
C279 N282 1.351 . S
C279 C284 1.501 . S
C280 C281 1.387 . S
C280 N283 1.341 . S
C281 C279 1.400 . S
C281 C280 1.387 . S
N282 Co273 2.022 . S
N282 C279 1.351 . S
N282 N283 1.365 . S
N283 C280 1.341 . S
N283 N282 1.365 . S
N283 H303 0.862 . S
C284 C279 1.501 . S
C284 H285 0.961 . S
C284 H286 0.961 . S
C284 H287 0.960 . S
H285 C284 0.961 . S
H286 C284 0.961 . S
H287 C284 0.960 . S
C288 N289 1.342 . S
C288 C292 1.401 . S
C288 C293 1.499 . S
N289 Co272 1.989 . S
N289 C288 1.342 . S
N289 N290 1.388 . S
N290 Co273 1.993 1_565 S
N290 N289 1.388 . S
N290 C291 1.346 . S
C291 N290 1.346 . S
C291 C292 1.396 . S
C291 C301 1.510 1_565 S
C292 C288 1.401 . S
C292 C291 1.396 . S
C293 C288 1.499 . S
C293 H294 0.959 . S
C293 H295 0.960 . S
C293 H296 0.961 . S
H294 C293 0.959 . S
H295 C293 0.960 . S
H296 C293 0.961 . S
O297 Co272 1.967 . S
O297 C305 1.258 . S
O298 Co273 1.941 . S
O298 C305 1.266 1_545 S
H299 C301 0.959 . S
H300 C301 0.961 . S
C301 C291 1.510 1_545 S
C301 H299 0.959 . S
C301 H300 0.961 . S
C301 H302 0.960 . S
H302 C301 0.960 . S
H303 N283 0.862 . S
O304 Co272 1.920 . S
O304 C277 1.289 . S
C305 O297 1.258 . S
C305 O298 1.266 1_565 S
Co306 O309 1.970 . S
Co306 N323 1.989 . S
Co306 O331 1.967 . S
Co306 O338 1.920 . S
Co307 O310 1.966 . S
Co307 N316 2.022 . S
Co307 N324 1.993 . S
Co307 O332 1.941 . S
C308 O309 1.258 . S
C308 O310 1.263 . S
O309 Co306 1.970 . S
O309 C308 1.258 . S
O310 Co307 1.966 . S
O310 C308 1.263 . S
C311 O312 1.235 . S
C311 O338 1.289 . S
O312 C311 1.235 . S
C313 C315 1.400 . S
C313 N316 1.351 . S
C313 C318 1.501 . S
C314 C315 1.387 . S
C314 N317 1.341 . S
C315 C313 1.400 . S
C315 C314 1.387 . S
N316 Co307 2.022 . S
N316 C313 1.351 . S
N316 N317 1.365 . S
N317 C314 1.341 . S
N317 N316 1.365 . S
N317 H337 0.862 . S
C318 C313 1.501 . S
C318 H319 0.961 . S
C318 H320 0.961 . S
C318 H321 0.960 . S
H319 C318 0.961 . S
H320 C318 0.961 . S
H321 C318 0.960 . S
C322 N323 1.342 . S
C322 C326 1.401 . S
C322 C327 1.499 . S
N323 Co306 1.989 . S
N323 C322 1.342 . S
N323 N324 1.388 . S
N324 Co307 1.993 . S
N324 N323 1.388 . S
N324 C325 1.346 . S
C325 N324 1.346 . S
C325 C326 1.396 . S
C325 C335 1.510 . S
C326 C322 1.401 . S
C326 C325 1.396 . S
C327 C322 1.499 . S
C327 H328 0.959 . S
C327 H329 0.960 . S
C327 H330 0.961 . S
H328 C327 0.959 . S
H329 C327 0.960 . S
H330 C327 0.961 . S
O331 Co306 1.967 . S
O331 C339 1.258 . S
O332 Co307 1.941 . S
O332 C339 1.266 . S
H333 C335 0.959 . S
H334 C335 0.961 . S
C335 C325 1.510 . S
C335 H333 0.959 . S
C335 H334 0.961 . S
C335 H336 0.960 . S
H336 C335 0.960 . S
H337 N317 0.862 . S
O338 Co306 1.920 . S
O338 C311 1.289 . S
C339 O331 1.258 . S
C339 O332 1.266 . S
Co340 O343 1.970 . S
Co340 N357 1.989 . S
Co340 O365 1.967 . S
Co340 O372 1.920 . S
Co341 O344 1.966 . S
Co341 N350 2.022 . S
Co341 N358 1.993 . S
Co341 O366 1.941 . S
C342 O343 1.258 . S
C342 O344 1.263 . S
O343 Co340 1.970 . S
O343 C342 1.258 . S
O344 Co341 1.966 . S
O344 C342 1.263 . S
C345 O346 1.235 . S
C345 O372 1.289 . S
O346 C345 1.235 . S
C347 C349 1.400 . S
C347 N350 1.351 . S
C347 C352 1.501 . S
C348 C349 1.387 . S
C348 N351 1.341 . S
C349 C347 1.400 . S
C349 C348 1.387 . S
N350 Co341 2.022 . S
N350 C347 1.351 . S
N350 N351 1.365 . S
N351 C348 1.341 . S
N351 N350 1.365 . S
N351 H371 0.862 . S
C352 C347 1.501 . S
C352 H353 0.961 . S
C352 H354 0.961 . S
C352 H355 0.960 . S
H353 C352 0.961 . S
H354 C352 0.961 . S
H355 C352 0.960 . S
C356 N357 1.342 . S
C356 C360 1.401 . S
C356 C361 1.499 . S
N357 Co340 1.989 . S
N357 C356 1.342 . S
N357 N358 1.388 . S
N358 Co341 1.993 . S
N358 N357 1.388 . S
N358 C359 1.346 . S
C359 N358 1.346 . S
C359 C360 1.396 . S
C359 C369 1.510 . S
C360 C356 1.401 . S
C360 C359 1.396 . S
C361 C356 1.499 . S
C361 H362 0.959 . S
C361 H363 0.960 . S
C361 H364 0.961 . S
H362 C361 0.959 . S
H363 C361 0.960 . S
H364 C361 0.961 . S
O365 Co340 1.967 . S
O365 C373 1.258 . S
O366 Co341 1.941 . S
O366 C373 1.266 . S
H367 C369 0.959 . S
H368 C369 0.961 . S
C369 C359 1.510 . S
C369 H367 0.959 . S
C369 H368 0.961 . S
C369 H370 0.960 . S
H370 C369 0.960 . S
H371 N351 0.862 . S
O372 Co340 1.920 . S
O372 C345 1.289 . S
C373 O365 1.258 . S
C373 O366 1.266 . S
Co374 O377 1.970 . S
Co374 N391 1.989 . S
Co374 O399 1.967 . S
Co374 O406 1.920 . S
Co375 O378 1.966 1_455 S
Co375 N384 2.022 . S
Co375 N392 1.993 1_455 S
Co375 O400 1.941 . S
C376 O377 1.258 . S
C376 O378 1.263 . S
O377 Co374 1.970 . S
O377 C376 1.258 . S
O378 Co375 1.966 1_655 S
O378 C376 1.263 . S
C379 O380 1.235 . S
C379 O406 1.289 . S
O380 C379 1.235 . S
C381 C383 1.400 . S
C381 N384 1.351 . S
C381 C386 1.501 . S
C382 C383 1.387 . S
C382 N385 1.341 . S
C383 C381 1.400 . S
C383 C382 1.387 . S
N384 Co375 2.022 . S
N384 C381 1.351 . S
N384 N385 1.365 . S
N385 C382 1.341 . S
N385 N384 1.365 . S
N385 H405 0.862 . S
C386 C381 1.501 . S
C386 H387 0.961 . S
C386 H388 0.961 . S
C386 H389 0.960 . S
H387 C386 0.961 . S
H388 C386 0.961 . S
H389 C386 0.960 . S
C390 N391 1.342 . S
C390 C394 1.401 . S
C390 C395 1.499 . S
N391 Co374 1.989 . S
N391 C390 1.342 . S
N391 N392 1.388 . S
N392 Co375 1.993 1_655 S
N392 N391 1.388 . S
N392 C393 1.346 . S
C393 N392 1.346 . S
C393 C394 1.396 . S
C393 C403 1.510 1_655 S
C394 C390 1.401 . S
C394 C393 1.396 . S
C395 C390 1.499 . S
C395 H396 0.959 . S
C395 H397 0.960 . S
C395 H398 0.961 . S
H396 C395 0.959 . S
H397 C395 0.960 . S
H398 C395 0.961 . S
O399 Co374 1.967 . S
O399 C407 1.258 . S
O400 Co375 1.941 . S
O400 C407 1.266 1_455 S
H401 C403 0.959 . S
H402 C403 0.961 . S
C403 C393 1.510 1_455 S
C403 H401 0.959 . S
C403 H402 0.961 . S
C403 H404 0.960 . S
H404 C403 0.960 . S
H405 N385 0.862 . S
O406 Co374 1.920 . S
O406 C379 1.289 . S
C407 O399 1.258 . S
C407 O400 1.266 1_655 S
Co408 O411 1.970 . S
Co408 N425 1.989 . S
Co408 O433 1.967 . S
Co408 O440 1.920 . S
Co409 O412 1.966 1_565 S
Co409 N418 2.022 . S
Co409 N426 1.993 1_565 S
Co409 O434 1.941 . S
C410 O411 1.258 . S
C410 O412 1.263 . S
O411 Co408 1.970 . S
O411 C410 1.258 . S
O412 Co409 1.966 1_545 S
O412 C410 1.263 . S
C413 O414 1.235 . S
C413 O440 1.289 . S
O414 C413 1.235 . S
C415 C417 1.400 . S
C415 N418 1.351 . S
C415 C420 1.501 . S
C416 C417 1.387 . S
C416 N419 1.341 . S
C417 C415 1.400 . S
C417 C416 1.387 . S
N418 Co409 2.022 . S
N418 C415 1.351 . S
N418 N419 1.365 . S
N419 C416 1.341 . S
N419 N418 1.365 . S
N419 H439 0.862 . S
C420 C415 1.501 . S
C420 H421 0.961 . S
C420 H422 0.961 . S
C420 H423 0.960 . S
H421 C420 0.961 . S
H422 C420 0.961 . S
H423 C420 0.960 . S
C424 N425 1.342 . S
C424 C428 1.401 . S
C424 C429 1.499 . S
N425 Co408 1.989 . S
N425 C424 1.342 . S
N425 N426 1.388 . S
N426 Co409 1.993 1_545 S
N426 N425 1.388 . S
N426 C427 1.346 . S
C427 N426 1.346 . S
C427 C428 1.396 . S
C427 C437 1.510 1_545 S
C428 C424 1.401 . S
C428 C427 1.396 . S
C429 C424 1.499 . S
C429 H430 0.959 . S
C429 H431 0.960 . S
C429 H432 0.961 . S
H430 C429 0.959 . S
H431 C429 0.960 . S
H432 C429 0.961 . S
O433 Co408 1.967 . S
O433 C441 1.258 . S
O434 Co409 1.941 . S
O434 C441 1.266 1_565 S
H435 C437 0.959 . S
H436 C437 0.961 . S
C437 C427 1.510 1_565 S
C437 H435 0.959 . S
C437 H436 0.961 . S
C437 H438 0.960 . S
H438 C437 0.960 . S
H439 N419 0.862 . S
O440 Co408 1.920 . S
O440 C413 1.289 . S
C441 O433 1.258 . S
C441 O434 1.266 1_545 S
Co442 O445 1.970 . S
Co442 N459 1.989 . S
Co442 O467 1.967 . S
Co442 O474 1.920 . S
Co443 O446 1.966 . S
Co443 N452 2.022 . S
Co443 N460 1.993 . S
Co443 O468 1.941 . S
C444 O445 1.258 . S
C444 O446 1.263 . S
O445 Co442 1.970 . S
O445 C444 1.258 . S
O446 Co443 1.966 . S
O446 C444 1.263 . S
C447 O448 1.235 . S
C447 O474 1.289 . S
O448 C447 1.235 . S
C449 C451 1.400 . S
C449 N452 1.351 . S
C449 C454 1.501 . S
C450 C451 1.387 . S
C450 N453 1.341 . S
C451 C449 1.400 . S
C451 C450 1.387 . S
N452 Co443 2.022 . S
N452 C449 1.351 . S
N452 N453 1.365 . S
N453 C450 1.341 . S
N453 N452 1.365 . S
N453 H473 0.862 . S
C454 C449 1.501 . S
C454 H455 0.961 . S
C454 H456 0.961 . S
C454 H457 0.960 . S
H455 C454 0.961 . S
H456 C454 0.961 . S
H457 C454 0.960 . S
C458 N459 1.342 . S
C458 C462 1.401 . S
C458 C463 1.499 . S
N459 Co442 1.989 . S
N459 C458 1.342 . S
N459 N460 1.388 . S
N460 Co443 1.993 . S
N460 N459 1.388 . S
N460 C461 1.346 . S
C461 N460 1.346 . S
C461 C462 1.396 . S
C461 C471 1.510 . S
C462 C458 1.401 . S
C462 C461 1.396 . S
C463 C458 1.499 . S
C463 H464 0.959 . S
C463 H465 0.960 . S
C463 H466 0.961 . S
H464 C463 0.959 . S
H465 C463 0.960 . S
H466 C463 0.961 . S
O467 Co442 1.967 . S
O467 C475 1.258 . S
O468 Co443 1.941 . S
O468 C475 1.266 . S
H469 C471 0.959 . S
H470 C471 0.961 . S
C471 C461 1.510 . S
C471 H469 0.959 . S
C471 H470 0.961 . S
C471 H472 0.960 . S
H472 C471 0.960 . S
H473 N453 0.862 . S
O474 Co442 1.920 . S
O474 C447 1.289 . S
C475 O467 1.258 . S
C475 O468 1.266 . S
Co476 O479 1.970 . S
Co476 N493 1.989 . S
Co476 O501 1.967 . S
Co476 O508 1.920 . S
Co477 O480 1.966 . S
Co477 N486 2.022 . S
Co477 N494 1.993 . S
Co477 O502 1.941 . S
C478 O479 1.258 . S
C478 O480 1.263 . S
O479 Co476 1.970 . S
O479 C478 1.258 . S
O480 Co477 1.966 . S
O480 C478 1.263 . S
C481 O482 1.235 . S
C481 O508 1.289 . S
O482 C481 1.235 . S
C483 C485 1.400 . S
C483 N486 1.351 . S
C483 C488 1.501 . S
C484 C485 1.387 . S
C484 N487 1.341 . S
C485 C483 1.400 . S
C485 C484 1.387 . S
N486 Co477 2.022 . S
N486 C483 1.351 . S
N486 N487 1.365 . S
N487 C484 1.341 . S
N487 N486 1.365 . S
N487 H507 0.862 . S
C488 C483 1.501 . S
C488 H489 0.961 . S
C488 H490 0.961 . S
C488 H491 0.960 . S
H489 C488 0.961 . S
H490 C488 0.961 . S
H491 C488 0.960 . S
C492 N493 1.342 . S
C492 C496 1.401 . S
C492 C497 1.499 . S
N493 Co476 1.989 . S
N493 C492 1.342 . S
N493 N494 1.388 . S
N494 Co477 1.993 . S
N494 N493 1.388 . S
N494 C495 1.346 . S
C495 N494 1.346 . S
C495 C496 1.396 . S
C495 C505 1.510 . S
C496 C492 1.401 . S
C496 C495 1.396 . S
C497 C492 1.499 . S
C497 H498 0.959 . S
C497 H499 0.960 . S
C497 H500 0.961 . S
H498 C497 0.959 . S
H499 C497 0.960 . S
H500 C497 0.961 . S
O501 Co476 1.967 . S
O501 C509 1.258 . S
O502 Co477 1.941 . S
O502 C509 1.266 . S
H503 C505 0.959 . S
H504 C505 0.961 . S
C505 C495 1.510 . S
C505 H503 0.959 . S
C505 H504 0.961 . S
C505 H506 0.960 . S
H506 C505 0.960 . S
H507 N487 0.862 . S
O508 Co476 1.920 . S
O508 C481 1.289 . S
C509 O501 1.258 . S
C509 O502 1.266 . S
Co510 O513 1.970 . S
Co510 N527 1.989 . S
Co510 O535 1.967 . S
Co510 O542 1.920 . S
Co511 O514 1.966 1_655 S
Co511 N520 2.022 . S
Co511 N528 1.993 1_655 S
Co511 O536 1.941 . S
C512 O513 1.258 . S
C512 O514 1.263 . S
O513 Co510 1.970 . S
O513 C512 1.258 . S
O514 Co511 1.966 1_455 S
O514 C512 1.263 . S
C515 O516 1.235 . S
C515 O542 1.289 . S
O516 C515 1.235 . S
C517 C519 1.400 . S
C517 N520 1.351 . S
C517 C522 1.501 . S
C518 C519 1.387 . S
C518 N521 1.341 . S
C519 C517 1.400 . S
C519 C518 1.387 . S
N520 Co511 2.022 . S
N520 C517 1.351 . S
N520 N521 1.365 . S
N521 C518 1.341 . S
N521 N520 1.365 . S
N521 H541 0.862 . S
C522 C517 1.501 . S
C522 H523 0.961 . S
C522 H524 0.961 . S
C522 H525 0.960 . S
H523 C522 0.961 . S
H524 C522 0.961 . S
H525 C522 0.960 . S
C526 N527 1.342 . S
C526 C530 1.401 . S
C526 C531 1.499 . S
N527 Co510 1.989 . S
N527 C526 1.342 . S
N527 N528 1.388 . S
N528 Co511 1.993 1_455 S
N528 N527 1.388 . S
N528 C529 1.346 . S
C529 N528 1.346 . S
C529 C530 1.396 . S
C529 C539 1.510 1_455 S
C530 C526 1.401 . S
C530 C529 1.396 . S
C531 C526 1.499 . S
C531 H532 0.959 . S
C531 H533 0.960 . S
C531 H534 0.961 . S
H532 C531 0.959 . S
H533 C531 0.960 . S
H534 C531 0.961 . S
O535 Co510 1.967 . S
O535 C543 1.258 . S
O536 Co511 1.941 . S
O536 C543 1.266 1_655 S
H537 C539 0.959 . S
H538 C539 0.961 . S
C539 C529 1.510 1_655 S
C539 H537 0.959 . S
C539 H538 0.961 . S
C539 H540 0.960 . S
H540 C539 0.960 . S
H541 N521 0.862 . S
O542 Co510 1.920 . S
O542 C515 1.289 . S
C543 O535 1.258 . S
C543 O536 1.266 1_455 S
H544 C550 0.930 . S
H545 C554 0.930 . S
H546 C559 0.929 . S
H547 C557 0.929 . S
H548 C552 0.929 . S
H549 C558 0.929 . S
C550 H544 0.930 . S
C550 C551 1.367 . S
C550 C558 1.378 . S
C551 C550 1.367 . S
C551 C559 1.433 . S
C552 H548 0.929 . S
C552 C554 1.378 . S
C552 C556 1.350 . S
C553 C556 1.463 . S
C553 C558 1.350 . S
C553 N561 1.427 . S
C554 H545 0.930 . S
C554 C552 1.378 . S
C554 C555 1.367 . S
C555 C554 1.367 . S
C555 C557 1.433 . S
C556 C552 1.350 . S
C556 C553 1.463 . S
C556 N560 1.427 . S
C557 H547 0.929 . S
C557 C555 1.433 . S
C557 N560 1.384 . S
C558 H549 0.929 . S
C558 C550 1.378 . S
C558 C553 1.350 . S
C559 H546 0.929 . S
C559 C551 1.433 . S
C559 N561 1.384 . S
N560 C556 1.427 . S
N560 C557 1.384 . S
N561 C553 1.427 . S
N561 C559 1.384 . S
H562 C568 0.930 . S
H563 C572 0.930 . S
H564 C577 0.929 . S
H565 C575 0.929 . S
H566 C570 0.929 . S
H567 C576 0.929 . S
C568 H562 0.930 . S
C568 C569 1.367 . S
C568 C576 1.378 . S
C569 C568 1.367 . S
C569 C577 1.433 . S
C570 H566 0.929 . S
C570 C572 1.378 . S
C570 C574 1.350 . S
C571 C574 1.463 . S
C571 C576 1.350 . S
C571 N579 1.427 . S
C572 H563 0.930 . S
C572 C570 1.378 . S
C572 C573 1.367 . S
C573 C572 1.367 . S
C573 C575 1.433 . S
C574 C570 1.350 . S
C574 C571 1.463 . S
C574 N578 1.427 . S
C575 H565 0.929 . S
C575 C573 1.433 . S
C575 N578 1.384 . S
C576 H567 0.929 . S
C576 C568 1.378 . S
C576 C571 1.350 . S
C577 H564 0.929 . S
C577 C569 1.433 . S
C577 N579 1.384 . S
N578 C574 1.427 . S
N578 C575 1.384 . S
N579 C571 1.427 . S
N579 C577 1.384 . S
H580 C586 0.930 . S
H581 C590 0.930 1_455 S
H582 C595 0.929 . S
H583 C593 0.929 . S
H584 C588 0.929 . S
H585 C594 0.929 . S
C586 H580 0.930 . S
C586 C587 1.367 1_655 S
C586 C594 1.378 . S
C587 C586 1.367 1_455 S
C587 C595 1.433 . S
C588 H584 0.929 . S
C588 C590 1.378 1_455 S
C588 C592 1.350 1_455 S
C589 C592 1.463 . S
C589 C594 1.350 . S
C589 N597 1.427 1_655 S
C590 H581 0.930 1_655 S
C590 C588 1.378 1_655 S
C590 C591 1.367 . S
C591 C590 1.367 . S
C591 C593 1.433 . S
C592 C588 1.350 1_655 S
C592 C589 1.463 . S
C592 N596 1.427 . S
C593 H583 0.929 . S
C593 C591 1.433 . S
C593 N596 1.384 . S
C594 H585 0.929 . S
C594 C586 1.378 . S
C594 C589 1.350 . S
C595 H582 0.929 . S
C595 C587 1.433 . S
C595 N597 1.384 . S
N596 C592 1.427 . S
N596 C593 1.384 . S
N597 C589 1.427 1_455 S
N597 C595 1.384 . S
H598 C604 0.930 . S
H599 C608 0.930 . S
H600 C613 0.937 . S
H601 C611 0.929 . S
H602 C606 0.929 . S
H603 C612 0.929 . S
C604 H598 0.930 . S
C604 C605 1.367 . S
C604 C612 1.378 . S
C605 C604 1.367 . S
C605 C613 1.423 1_565 S
C606 H602 0.929 . S
C606 C608 1.378 . S
C606 C610 1.350 1_545 S
C607 C610 1.463 . S
C607 C612 1.350 . S
C607 N615 1.427 1_565 S
C608 H599 0.930 . S
C608 C606 1.378 . S
C608 C609 1.367 . S
C609 C608 1.367 . S
C609 C611 1.433 1_545 S
C610 C606 1.350 1_565 S
C610 C607 1.463 . S
C610 N614 1.427 . S
C611 H601 0.929 . S
C611 C609 1.433 1_565 S
C611 N614 1.384 . S
C612 H603 0.929 . S
C612 C604 1.378 . S
C612 C607 1.350 . S
C613 H600 0.937 . S
C613 C605 1.423 1_545 S
C613 N615 1.386 . S
N614 C610 1.427 . S
N614 C611 1.384 . S
N615 C607 1.427 1_545 S
N615 C613 1.386 . S
H616 C622 0.930 . S
H617 C626 0.930 . S
H618 C631 0.929 . S
H619 C629 0.943 . S
H620 C624 0.929 . S
H621 C630 0.929 . S
C622 H616 0.930 . S
C622 C623 1.367 . S
C622 C630 1.378 . S
C623 C622 1.367 . S
C623 C631 1.433 1_655 S
C624 H620 0.929 . S
C624 C626 1.378 . S
C624 C628 1.350 . S
C625 C628 1.463 . S
C625 C630 1.350 1_455 S
C625 N633 1.427 . S
C626 H617 0.930 . S
C626 C624 1.378 . S
C626 C627 1.367 . S
C627 C626 1.367 . S
C627 C629 1.415 1_455 S
C628 C624 1.350 . S
C628 C625 1.463 . S
C628 N632 1.427 1_455 S
C629 H619 0.943 . S
C629 C627 1.415 1_655 S
C629 N632 1.388 . S
C630 H621 0.929 . S
C630 C622 1.378 . S
C630 C625 1.350 1_655 S
C631 H618 0.929 . S
C631 C623 1.433 1_455 S
C631 N633 1.384 . S
N632 C628 1.427 1_655 S
N632 C629 1.388 . S
N633 C625 1.427 . S
N633 C631 1.384 . S
H634 C640 0.930 . S
H635 C644 0.930 . S
H636 C649 0.929 . S
H637 C647 0.929 . S
H638 C642 0.929 . S
H639 C648 0.929 . S
C640 H634 0.930 . S
C640 C641 1.367 1_545 S
C640 C648 1.378 . S
C641 C640 1.367 1_565 S
C641 C649 1.433 . S
C642 H638 0.929 . S
C642 C644 1.378 . S
C642 C646 1.350 1_565 S
C643 C646 1.463 . S
C643 C648 1.350 . S
C643 N651 1.427 1_545 S
C644 H635 0.930 . S
C644 C642 1.378 . S
C644 C645 1.367 1_565 S
C645 C644 1.367 1_545 S
C645 C647 1.433 . S
C646 C642 1.350 1_545 S
C646 C643 1.463 . S
C646 N650 1.427 . S
C647 H637 0.929 . S
C647 C645 1.433 . S
C647 N650 1.384 . S
C648 H639 0.929 . S
C648 C640 1.378 . S
C648 C643 1.350 . S
C649 H636 0.929 . S
C649 C641 1.433 . S
C649 N651 1.384 . S
N650 C646 1.427 . S
N650 C647 1.384 . S
N651 C643 1.427 1_565 S
N651 C649 1.384 . S
H652 C658 0.930 . S
H653 C662 0.930 . S
H654 C667 0.929 . S
H655 C665 0.929 . S
H656 C660 0.929 . S
H657 C666 0.929 . S
C658 H652 0.930 . S
C658 C659 1.367 . S
C658 C666 1.378 . S
C659 C658 1.367 . S
C659 C667 1.433 . S
C660 H656 0.929 . S
C660 C662 1.378 . S
C660 C664 1.350 . S
C661 C664 1.463 . S
C661 C666 1.350 . S
C661 N669 1.427 . S
C662 H653 0.930 . S
C662 C660 1.378 . S
C662 C663 1.367 . S
C663 C662 1.367 . S
C663 C665 1.433 . S
C664 C660 1.350 . S
C664 C661 1.463 . S
C664 N668 1.427 . S
C665 H655 0.929 . S
C665 C663 1.433 . S
C665 N668 1.384 . S
C666 H657 0.929 . S
C666 C658 1.378 . S
C666 C661 1.350 . S
C667 H654 0.929 . S
C667 C659 1.433 . S
C667 N669 1.384 . S
N668 C664 1.427 . S
N668 C665 1.384 . S
N669 C661 1.427 . S
N669 C667 1.384 . S
H670 C676 0.930 . S
H671 C680 0.930 . S
H672 C685 0.929 . S
H673 C683 0.929 . S
H674 C678 0.929 . S
H675 C684 0.929 . S
C676 H670 0.930 . S
C676 C677 1.367 . S
C676 C684 1.378 . S
C677 C676 1.367 . S
C677 C685 1.433 . S
C678 H674 0.929 . S
C678 C680 1.378 . S
C678 C682 1.350 . S
C679 C682 1.463 . S
C679 C684 1.350 . S
C679 N687 1.427 . S
C680 H671 0.930 . S
C680 C678 1.378 . S
C680 C681 1.367 . S
C681 C680 1.367 . S
C681 C683 1.433 . S
C682 C678 1.350 . S
C682 C679 1.463 . S
C682 N686 1.427 . S
C683 H673 0.929 . S
C683 C681 1.433 . S
C683 N686 1.384 . S
C684 H675 0.929 . S
C684 C676 1.378 . S
C684 C679 1.350 . S
C685 H672 0.929 . S
C685 C677 1.433 . S
C685 N687 1.384 . S
N686 C682 1.427 . S
N686 C683 1.384 . S
N687 C679 1.427 . S
N687 C685 1.384 . S
H688 C694 0.930 . S
H689 C698 0.930 . S
H690 C703 0.929 . S
H691 C701 0.929 . S
H692 C696 0.929 . S
H693 C702 0.929 . S
C694 H688 0.930 . S
C694 C695 1.367 . S
C694 C702 1.378 . S
C695 C694 1.367 . S
C695 C703 1.433 . S
C696 H692 0.929 . S
C696 C698 1.378 . S
C696 C700 1.350 . S
C697 C700 1.463 . S
C697 C702 1.350 . S
C697 N705 1.427 . S
C698 H689 0.930 . S
C698 C696 1.378 . S
C698 C699 1.367 . S
C699 C698 1.367 . S
C699 C701 1.433 . S
C700 C696 1.350 . S
C700 C697 1.463 . S
C700 N704 1.427 . S
C701 H691 0.929 . S
C701 C699 1.433 . S
C701 N704 1.384 . S
C702 H693 0.929 . S
C702 C694 1.378 . S
C702 C697 1.350 . S
C703 H690 0.929 . S
C703 C695 1.433 . S
C703 N705 1.384 . S
N704 C700 1.427 . S
N704 C701 1.384 . S
N705 C697 1.427 . S
N705 C703 1.384 . S
H706 C712 0.930 . S
H707 C716 0.930 . S
H708 C721 0.929 . S
H709 C719 0.929 . S
H710 C714 0.929 . S
H711 C720 0.929 . S
C712 H706 0.930 . S
C712 C713 1.367 . S
C712 C720 1.378 . S
C713 C712 1.367 . S
C713 C721 1.433 . S
C714 H710 0.929 . S
C714 C716 1.378 . S
C714 C718 1.350 . S
C715 C718 1.463 . S
C715 C720 1.350 . S
C715 N723 1.427 . S
C716 H707 0.930 . S
C716 C714 1.378 . S
C716 C717 1.367 . S
C717 C716 1.367 . S
C717 C719 1.433 . S
C718 C714 1.350 . S
C718 C715 1.463 . S
C718 N722 1.427 . S
C719 H709 0.929 . S
C719 C717 1.433 . S
C719 N722 1.384 . S
C720 H711 0.929 . S
C720 C712 1.378 . S
C720 C715 1.350 . S
C721 H708 0.929 . S
C721 C713 1.433 . S
C721 N723 1.384 . S
N722 C718 1.427 . S
N722 C719 1.384 . S
N723 C715 1.427 . S
N723 C721 1.384 . S
H724 C730 0.930 . S
H725 C734 0.930 . S
H726 C739 0.929 . S
H727 C737 0.929 1_655 S
H728 C732 0.929 . S
H729 C738 0.929 . S
C730 H724 0.930 . S
C730 C731 1.367 . S
C730 C738 1.378 . S
C731 C730 1.367 . S
C731 C739 1.433 1_655 S
C732 H728 0.929 . S
C732 C734 1.378 . S
C732 C736 1.350 . S
C733 C736 1.463 . S
C733 C738 1.350 1_455 S
C733 N741 1.427 . S
C734 H725 0.930 . S
C734 C732 1.378 . S
C734 C735 1.367 . S
C735 C734 1.367 . S
C735 C737 1.433 . S
C736 C732 1.350 . S
C736 C733 1.463 . S
C736 N740 1.427 1_455 S
C737 H727 0.929 1_455 S
C737 C735 1.433 . S
C737 N740 1.384 1_455 S
C738 H729 0.929 . S
C738 C730 1.378 . S
C738 C733 1.350 1_655 S
C739 H726 0.929 . S
C739 C731 1.433 1_455 S
C739 N741 1.384 . S
N740 C736 1.427 1_655 S
N740 C737 1.384 1_655 S
N741 C733 1.427 . S
N741 C739 1.384 . S
H742 C748 0.930 . S
H743 C752 0.930 . S
H744 C757 0.929 . S
H745 C755 0.929 . S
H746 C750 0.929 . S
H747 C756 0.929 . S
C748 H742 0.930 . S
C748 C749 1.367 1_545 S
C748 C756 1.378 . S
C749 C748 1.367 1_565 S
C749 C757 1.433 . S
C750 H746 0.929 . S
C750 C752 1.378 . S
C750 C754 1.350 1_565 S
C751 C754 1.463 . S
C751 C756 1.350 . S
C751 N759 1.427 1_545 S
C752 H743 0.930 . S
C752 C750 1.378 . S
C752 C753 1.367 1_565 S
C753 C752 1.367 1_545 S
C753 C755 1.433 . S
C754 C750 1.350 1_545 S
C754 C751 1.463 . S
C754 N758 1.427 . S
C755 H745 0.929 . S
C755 C753 1.433 . S
C755 N758 1.384 . S
C756 H747 0.929 . S
C756 C748 1.378 . S
C756 C751 1.350 . S
C757 H744 0.929 . S
C757 C749 1.433 . S
C757 N759 1.384 . S
N758 C754 1.427 . S
N758 C755 1.384 . S
N759 C751 1.427 1_565 S
N759 C757 1.384 . S
H760 C766 0.930 . S
H761 C770 0.930 . S
H762 C775 0.929 . S
H763 C773 0.929 . S
H764 C768 0.929 . S
H765 C774 0.929 . S
C766 H760 0.930 . S
C766 C767 1.367 . S
C766 C774 1.378 . S
C767 C766 1.367 . S
C767 C775 1.433 1_455 S
C768 H764 0.929 . S
C768 C770 1.378 . S
C768 C772 1.350 . S
C769 C772 1.463 . S
C769 C774 1.350 1_655 S
C769 N777 1.427 . S
C770 H761 0.930 . S
C770 C768 1.378 . S
C770 C771 1.367 . S
C771 C770 1.367 . S
C771 C773 1.433 . S
C772 C768 1.350 . S
C772 C769 1.463 . S
C772 N776 1.427 . S
C773 H763 0.929 . S
C773 C771 1.433 . S
C773 N776 1.384 . S
C774 H765 0.929 . S
C774 C766 1.378 . S
C774 C769 1.350 1_455 S
C775 H762 0.929 . S
C775 C767 1.433 1_655 S
C775 N777 1.384 . S
N776 C772 1.427 . S
N776 C773 1.384 . S
N777 C769 1.427 . S
N777 C775 1.384 . S
H778 C784 0.930 . S
H779 C788 0.930 . S
H780 C793 0.929 . S
H781 C791 0.929 . S
H782 C786 0.929 . S
H783 C792 0.929 . S
C784 H778 0.930 . S
C784 C785 1.367 1_565 S
C784 C792 1.378 . S
C785 C784 1.367 1_545 S
C785 C793 1.433 . S
C786 H782 0.929 . S
C786 C788 1.378 . S
C786 C790 1.350 . S
C787 C790 1.463 . S
C787 C792 1.350 . S
C787 N795 1.427 1_565 S
C788 H779 0.930 . S
C788 C786 1.378 . S
C788 C789 1.367 . S
C789 C788 1.367 . S
C789 C791 1.433 . S
C790 C786 1.350 . S
C790 C787 1.463 . S
C790 N794 1.427 . S
C791 H781 0.929 . S
C791 C789 1.433 . S
C791 N794 1.384 . S
C792 H783 0.929 . S
C792 C784 1.378 . S
C792 C787 1.350 . S
C793 H780 0.929 . S
C793 C785 1.433 . S
C793 N795 1.384 . S
N794 C790 1.427 . S
N794 C791 1.384 . S
N795 C787 1.427 1_545 S
N795 C793 1.384 . S
H796 C802 0.930 . S
H797 C806 0.930 . S
H798 C811 0.929 . S
H799 C809 0.929 . S
H800 C804 0.929 . S
H801 C810 0.929 . S
C802 H796 0.930 . S
C802 C803 1.367 . S
C802 C810 1.378 . S
C803 C802 1.367 . S
C803 C811 1.433 . S
C804 H800 0.929 . S
C804 C806 1.378 . S
C804 C808 1.350 . S
C805 C808 1.463 . S
C805 C810 1.350 . S
C805 N813 1.427 . S
C806 H797 0.930 . S
C806 C804 1.378 . S
C806 C807 1.367 . S
C807 C806 1.367 . S
C807 C809 1.433 . S
C808 C804 1.350 . S
C808 C805 1.463 . S
C808 N812 1.427 . S
C809 H799 0.929 . S
C809 C807 1.433 . S
C809 N812 1.384 . S
C810 H801 0.929 . S
C810 C802 1.378 . S
C810 C805 1.350 . S
C811 H798 0.929 . S
C811 C803 1.433 . S
C811 N813 1.384 . S
N812 C808 1.427 . S
N812 C809 1.384 . S
N813 C805 1.427 . S
N813 C811 1.384 . S
H814 C820 0.930 . S
H815 C824 0.930 . S
H816 C829 0.929 . S
H817 C827 0.929 . S
H818 C822 0.929 . S
H819 C828 0.929 . S
C820 H814 0.930 . S
C820 C821 1.367 . S
C820 C828 1.378 . S
C821 C820 1.367 . S
C821 C829 1.433 . S
C822 H818 0.929 . S
C822 C824 1.378 . S
C822 C826 1.350 . S
C823 C826 1.463 . S
C823 C828 1.350 . S
C823 N831 1.427 . S
C824 H815 0.930 . S
C824 C822 1.378 . S
C824 C825 1.367 . S
C825 C824 1.367 . S
C825 C827 1.433 . S
C826 C822 1.350 . S
C826 C823 1.463 . S
C826 N830 1.427 . S
C827 H817 0.929 . S
C827 C825 1.433 . S
C827 N830 1.384 . S
C828 H819 0.929 . S
C828 C820 1.378 . S
C828 C823 1.350 . S
C829 H816 0.929 . S
C829 C821 1.433 . S
C829 N831 1.384 . S
N830 C826 1.427 . S
N830 C827 1.384 . S
N831 C823 1.427 . S
N831 C829 1.384 . S
H832 C838 0.930 . S
H833 C842 0.930 . S
H834 C847 0.929 . S
H835 C845 0.929 . S
H836 C840 0.929 . S
H837 C846 0.929 . S
C838 H832 0.930 . S
C838 C839 1.367 . S
C838 C846 1.378 . S
C839 C838 1.367 . S
C839 C847 1.433 . S
C840 H836 0.929 . S
C840 C842 1.378 . S
C840 C844 1.350 . S
C841 C844 1.463 . S
C841 C846 1.350 . S
C841 N849 1.427 . S
C842 H833 0.930 . S
C842 C840 1.378 . S
C842 C843 1.367 . S
C843 C842 1.367 . S
C843 C845 1.433 . S
C844 C840 1.350 . S
C844 C841 1.463 . S
C844 N848 1.427 . S
C845 H835 0.929 . S
C845 C843 1.433 . S
C845 N848 1.384 . S
C846 H837 0.929 . S
C846 C838 1.378 . S
C846 C841 1.350 . S
C847 H834 0.929 . S
C847 C839 1.433 . S
C847 N849 1.384 . S
N848 C844 1.427 . S
N848 C845 1.384 . S
N849 C841 1.427 . S
N849 C847 1.384 . S
H850 C856 0.930 . S
H851 C860 0.930 . S
H852 C865 0.929 . S
H853 C863 0.929 . S
H854 C858 0.929 . S
H855 C864 0.929 . S
C856 H850 0.930 . S
C856 C857 1.367 . S
C856 C864 1.378 . S
C857 C856 1.367 . S
C857 C865 1.433 . S
C858 H854 0.929 . S
C858 C860 1.378 . S
C858 C862 1.350 . S
C859 C862 1.463 . S
C859 C864 1.350 . S
C859 N867 1.427 . S
C860 H851 0.930 . S
C860 C858 1.378 . S
C860 C861 1.367 . S
C861 C860 1.367 . S
C861 C863 1.433 . S
C862 C858 1.350 . S
C862 C859 1.463 . S
C862 N866 1.427 . S
C863 H853 0.929 . S
C863 C861 1.433 . S
C863 N866 1.384 . S
C864 H855 0.929 . S
C864 C856 1.378 . S
C864 C859 1.350 . S
C865 H852 0.929 . S
C865 C857 1.433 . S
C865 N867 1.384 . S
N866 C862 1.427 . S
N866 C863 1.384 . S
N867 C859 1.427 . S
N867 C865 1.384 . S
H868 C874 0.930 . S
H869 C878 0.930 . S
H870 C883 0.929 . S
H871 C881 0.929 . S
H872 C876 0.929 . S
H873 C882 0.929 . S
C874 H868 0.930 . S
C874 C875 1.367 . S
C874 C882 1.378 . S
C875 C874 1.367 . S
C875 C883 1.433 . S
C876 H872 0.929 . S
C876 C878 1.378 . S
C876 C880 1.350 . S
C877 C880 1.463 . S
C877 C882 1.350 . S
C877 N885 1.427 . S
C878 H869 0.930 . S
C878 C876 1.378 . S
C878 C879 1.367 . S
C879 C878 1.367 . S
C879 C881 1.433 . S
C880 C876 1.350 . S
C880 C877 1.463 . S
C880 N884 1.427 . S
C881 H871 0.929 . S
C881 C879 1.433 . S
C881 N884 1.384 . S
C882 H873 0.929 . S
C882 C874 1.378 . S
C882 C877 1.350 . S
C883 H870 0.929 . S
C883 C875 1.433 . S
C883 N885 1.384 . S
N884 C880 1.427 . S
N884 C881 1.384 . S
N885 C877 1.427 . S
N885 C883 1.384 . S
H886 C892 0.930 . S
H887 C896 0.930 . S
H888 C901 0.929 . S
H889 C899 0.929 . S
H890 C894 0.929 . S
H891 C900 0.929 . S
C892 H886 0.930 . S
C892 C893 1.367 . S
C892 C900 1.378 . S
C893 C892 1.367 . S
C893 C901 1.433 . S
C894 H890 0.929 . S
C894 C896 1.378 . S
C894 C898 1.350 . S
C895 C898 1.463 . S
C895 C900 1.350 . S
C895 N903 1.427 . S
C896 H887 0.930 . S
C896 C894 1.378 . S
C896 C897 1.367 . S
C897 C896 1.367 . S
C897 C899 1.433 . S
C898 C894 1.350 . S
C898 C895 1.463 . S
C898 N902 1.427 . S
C899 H889 0.929 . S
C899 C897 1.433 . S
C899 N902 1.384 . S
C900 H891 0.929 . S
C900 C892 1.378 . S
C900 C895 1.350 . S
C901 H888 0.929 . S
C901 C893 1.433 . S
C901 N903 1.384 . S
N902 C898 1.427 . S
N902 C899 1.384 . S
N903 C895 1.427 . S
N903 C901 1.384 . S
H904 C910 0.930 . S
H905 C914 0.930 . S
H906 C919 0.929 . S
H907 C917 0.929 . S
H908 C912 0.929 . S
H909 C918 0.929 . S
C910 H904 0.930 . S
C910 C911 1.367 . S
C910 C918 1.378 . S
C911 C910 1.367 . S
C911 C919 1.433 . S
C912 H908 0.929 . S
C912 C914 1.378 . S
C912 C916 1.350 . S
C913 C916 1.463 . S
C913 C918 1.350 . S
C913 N921 1.427 . S
C914 H905 0.930 . S
C914 C912 1.378 . S
C914 C915 1.367 . S
C915 C914 1.367 . S
C915 C917 1.433 . S
C916 C912 1.350 . S
C916 C913 1.463 . S
C916 N920 1.427 . S
C917 H907 0.929 . S
C917 C915 1.433 . S
C917 N920 1.384 . S
C918 H909 0.929 . S
C918 C910 1.378 . S
C918 C913 1.350 . S
C919 H906 0.929 . S
C919 C911 1.433 . S
C919 N921 1.384 . S
N920 C916 1.427 . S
N920 C917 1.384 . S
N921 C913 1.427 . S
N921 C919 1.384 . S
H922 C928 0.930 . S
H923 C932 0.930 . S
H924 C937 0.929 . S
H925 C935 0.929 . S
H926 C930 0.929 . S
H927 C936 0.929 . S
C928 H922 0.930 . S
C928 C929 1.367 . S
C928 C936 1.378 . S
C929 C928 1.367 . S
C929 C937 1.433 . S
C930 H926 0.929 . S
C930 C932 1.378 . S
C930 C934 1.350 . S
C931 C934 1.463 . S
C931 C936 1.350 . S
C931 N939 1.427 . S
C932 H923 0.930 . S
C932 C930 1.378 . S
C932 C933 1.367 . S
C933 C932 1.367 . S
C933 C935 1.433 . S
C934 C930 1.350 . S
C934 C931 1.463 . S
C934 N938 1.427 . S
C935 H925 0.929 . S
C935 C933 1.433 . S
C935 N938 1.384 . S
C936 H927 0.929 . S
C936 C928 1.378 . S
C936 C931 1.350 . S
C937 H924 0.929 . S
C937 C929 1.433 . S
C937 N939 1.384 . S
N938 C934 1.427 . S
N938 C935 1.384 . S
N939 C931 1.427 . S
N939 C937 1.384 . S
H940 C946 0.930 . S
H941 C950 0.930 . S
H942 C955 0.929 . S
H943 C953 0.929 . S
H944 C948 0.929 . S
H945 C954 0.929 . S
C946 H940 0.930 . S
C946 C947 1.367 . S
C946 C954 1.378 . S
C947 C946 1.367 . S
C947 C955 1.433 . S
C948 H944 0.929 . S
C948 C950 1.378 . S
C948 C952 1.350 . S
C949 C952 1.463 . S
C949 C954 1.350 . S
C949 N957 1.427 . S
C950 H941 0.930 . S
C950 C948 1.378 . S
C950 C951 1.367 . S
C951 C950 1.367 . S
C951 C953 1.433 . S
C952 C948 1.350 . S
C952 C949 1.463 . S
C952 N956 1.427 . S
C953 H943 0.929 . S
C953 C951 1.433 . S
C953 N956 1.384 . S
C954 H945 0.929 . S
C954 C946 1.378 . S
C954 C949 1.350 . S
C955 H942 0.929 . S
C955 C947 1.433 . S
C955 N957 1.384 . S
N956 C952 1.427 . S
N956 C953 1.384 . S
N957 C949 1.427 . S
N957 C955 1.384 . S
H958 C964 0.930 . S
H959 C968 0.930 . S
H960 C973 0.929 . S
H961 C971 0.929 . S
H962 C966 0.929 . S
H963 C972 0.929 . S
C964 H958 0.930 . S
C964 C965 1.367 . S
C964 C972 1.378 . S
C965 C964 1.367 . S
C965 C973 1.433 . S
C966 H962 0.929 . S
C966 C968 1.378 . S
C966 C970 1.350 . S
C967 C970 1.463 . S
C967 C972 1.350 . S
C967 N975 1.427 . S
C968 H959 0.930 . S
C968 C966 1.378 . S
C968 C969 1.367 . S
C969 C968 1.367 . S
C969 C971 1.433 . S
C970 C966 1.350 . S
C970 C967 1.463 . S
C970 N974 1.427 . S
C971 H961 0.929 . S
C971 C969 1.433 . S
C971 N974 1.384 . S
C972 H963 0.929 . S
C972 C964 1.378 . S
C972 C967 1.350 . S
C973 H960 0.929 . S
C973 C965 1.433 . S
C973 N975 1.384 . S
N974 C970 1.427 . S
N974 C971 1.384 . S
N975 C967 1.427 . S
N975 C973 1.384 . S
H976 C982 0.930 1_565 S
H977 C986 0.930 1_545 S
H978 C991 0.929 . S
H979 C989 0.929 . S
H980 C984 0.929 . S
H981 C990 0.929 . S
C982 H976 0.930 1_545 S
C982 C983 1.367 . S
C982 C990 1.378 1_545 S
C983 C982 1.367 . S
C983 C991 1.433 . S
C984 H980 0.929 . S
C984 C986 1.378 1_545 S
C984 C988 1.350 1_545 S
C985 C988 1.463 1_544 S
C985 C990 1.350 1_545 S
C985 N993 1.427 . S
C986 H977 0.930 1_565 S
C986 C984 1.378 1_565 S
C986 C987 1.367 . S
C987 C986 1.367 . S
C987 C989 1.433 . S
C988 C984 1.350 1_565 S
C988 C985 1.463 1_566 S
C988 N992 1.427 . S
C989 H979 0.929 . S
C989 C987 1.433 . S
C989 N992 1.384 . S
C990 H981 0.929 . S
C990 C982 1.378 1_565 S
C990 C985 1.350 1_565 S
C991 H978 0.929 . S
C991 C983 1.433 . S
C991 N993 1.384 . S
N992 C988 1.427 . S
N992 C989 1.384 . S
N993 C985 1.427 . S
N993 C991 1.384 . S
H994 C1000 0.930 . S
H995 C1004 0.930 . S
H996 C1009 0.929 . S
H997 C1007 0.929 . S
H998 C1002 0.929 1_554 S
H999 C1008 0.929 1_556 S
C1000 H994 0.930 . S
C1000 C1001 1.367 . S
C1000 C1008 1.378 . S
C1001 C1000 1.367 . S
C1001 C1009 1.433 . S
C1002 H998 0.929 1_556 S
C1002 C1004 1.378 . S
C1002 C1006 1.350 . S
C1003 C1006 1.463 1_554 S
C1003 C1008 1.350 . S
C1003 N1011 1.427 . S
C1004 H995 0.930 . S
C1004 C1002 1.378 . S
C1004 C1005 1.367 . S
C1005 C1004 1.367 . S
C1005 C1007 1.433 . S
C1006 C1002 1.350 . S
C1006 C1003 1.463 1_556 S
C1006 N1010 1.427 . S
C1007 H997 0.929 . S
C1007 C1005 1.433 . S
C1007 N1010 1.384 . S
C1008 H999 0.929 1_554 S
C1008 C1000 1.378 . S
C1008 C1003 1.350 . S
C1009 H996 0.929 . S
C1009 C1001 1.433 . S
C1009 N1011 1.384 . S
N1010 C1006 1.427 . S
N1010 C1007 1.384 . S
N1011 C1003 1.427 . S
N1011 C1009 1.384 . S
H1012 C1018 0.930 . S
H1013 C1022 0.930 . S
H1014 C1027 0.929 . S
H1015 C1025 0.929 . S
H1016 C1020 0.929 1_655 S
H1017 C1026 0.929 1_455 S
C1018 H1012 0.930 . S
C1018 C1019 1.367 . S
C1018 C1026 1.378 . S
C1019 C1018 1.367 . S
C1019 C1027 1.433 . S
C1020 H1016 0.929 1_455 S
C1020 C1022 1.378 . S
C1020 C1024 1.350 . S
C1021 C1024 1.463 1_654 S
C1021 C1026 1.350 . S
C1021 N1029 1.427 . S
C1022 H1013 0.930 . S
C1022 C1020 1.378 . S
C1022 C1023 1.367 . S
C1023 C1022 1.367 . S
C1023 C1025 1.433 . S
C1024 C1020 1.350 . S
C1024 C1021 1.463 1_456 S
C1024 N1028 1.427 . S
C1025 H1015 0.929 . S
C1025 C1023 1.433 . S
C1025 N1028 1.384 . S
C1026 H1017 0.929 1_655 S
C1026 C1018 1.378 . S
C1026 C1021 1.350 . S
C1027 H1014 0.929 . S
C1027 C1019 1.433 . S
C1027 N1029 1.384 . S
N1028 C1024 1.427 . S
N1028 C1025 1.384 . S
N1029 C1021 1.427 . S
N1029 C1027 1.384 . S
H1030 C1036 0.930 . S
H1031 C1040 0.930 . S
H1032 C1045 0.929 . S
H1033 C1043 0.929 . S
H1034 C1038 0.929 1_556 S
H1035 C1044 0.929 1_554 S
C1036 H1030 0.930 . S
C1036 C1037 1.367 . S
C1036 C1044 1.378 . S
C1037 C1036 1.367 . S
C1037 C1045 1.433 . S
C1038 H1034 0.929 1_554 S
C1038 C1040 1.378 . S
C1038 C1042 1.350 . S
C1039 C1042 1.463 1_646 S
C1039 C1044 1.350 . S
C1039 N1047 1.427 1_545 S
C1040 H1031 0.930 . S
C1040 C1038 1.378 . S
C1040 C1041 1.367 . S
C1041 C1040 1.367 . S
C1041 C1043 1.433 . S
C1042 C1038 1.350 . S
C1042 C1039 1.463 1_464 S
C1042 N1046 1.427 1_565 S
C1043 H1033 0.929 . S
C1043 C1041 1.433 . S
C1043 N1046 1.384 1_565 S
C1044 H1035 0.929 1_556 S
C1044 C1036 1.378 . S
C1044 C1039 1.350 . S
C1045 H1032 0.929 . S
C1045 C1037 1.433 . S
C1045 N1047 1.384 1_545 S
N1046 C1042 1.427 1_545 S
N1046 C1043 1.384 1_545 S
N1047 C1039 1.427 1_565 S
N1047 C1045 1.384 1_565 S
H1048 C1054 0.930 1_565 S
H1049 C1058 0.930 1_545 S
H1050 C1063 0.929 . S
H1051 C1061 0.929 . S
H1052 C1056 0.929 1_655 S
H1053 C1062 0.929 1_455 S
C1054 H1048 0.930 1_545 S
C1054 C1055 1.367 . S
C1054 C1062 1.378 1_545 S
C1055 C1054 1.367 . S
C1055 C1063 1.433 . S
C1056 H1052 0.929 1_455 S
C1056 C1058 1.378 1_545 S
C1056 C1060 1.350 1_545 S
C1057 C1060 1.463 1_645 S
C1057 C1062 1.350 1_545 S
C1057 N1065 1.427 . S
C1058 H1049 0.930 1_565 S
C1058 C1056 1.378 1_565 S
C1058 C1059 1.367 . S
C1059 C1058 1.367 . S
C1059 C1061 1.433 . S
C1060 C1056 1.350 1_565 S
C1060 C1057 1.463 1_465 S
C1060 N1064 1.427 . S
C1061 H1051 0.929 . S
C1061 C1059 1.433 . S
C1061 N1064 1.384 . S
C1062 H1053 0.929 1_655 S
C1062 C1054 1.378 1_565 S
C1062 C1057 1.350 1_565 S
C1063 H1050 0.929 . S
C1063 C1055 1.433 . S
C1063 N1065 1.384 . S
N1064 C1060 1.427 . S
N1064 C1061 1.384 . S
N1065 C1057 1.427 . S
N1065 C1063 1.384 . S
H1066 C1072 0.930 . S
H1067 C1076 0.930 . S
H1068 C1081 0.929 . S
H1069 C1079 0.929 . S
H1070 C1074 0.929 . S
H1071 C1080 0.929 . S
C1072 H1066 0.930 . S
C1072 C1073 1.367 . S
C1072 C1080 1.378 1_545 S
C1073 C1072 1.367 . S
C1073 C1081 1.433 . S
C1074 H1070 0.929 . S
C1074 C1076 1.378 1_545 S
C1074 C1078 1.350 1_545 S
C1075 C1078 1.463 1_545 S
C1075 C1080 1.350 1_545 S
C1075 N1083 1.427 . S
C1076 H1067 0.930 . S
C1076 C1074 1.378 1_565 S
C1076 C1077 1.367 . S
C1077 C1076 1.367 . S
C1077 C1079 1.433 . S
C1078 C1074 1.350 1_565 S
C1078 C1075 1.463 1_565 S
C1078 N1082 1.427 . S
C1079 H1069 0.929 . S
C1079 C1077 1.433 . S
C1079 N1082 1.384 . S
C1080 H1071 0.929 . S
C1080 C1072 1.378 1_565 S
C1080 C1075 1.350 1_565 S
C1081 H1068 0.929 . S
C1081 C1073 1.433 . S
C1081 N1083 1.384 . S
N1082 C1078 1.427 . S
N1082 C1079 1.384 . S
N1083 C1075 1.427 . S
N1083 C1081 1.384 . S
H1084 C1090 0.930 . S
H1085 C1094 0.930 . S
H1086 C1099 0.929 . S
H1087 C1097 0.929 . S
H1088 C1092 0.929 . S
H1089 C1098 0.929 . S
C1090 H1084 0.930 . S
C1090 C1091 1.367 . S
C1090 C1098 1.378 . S
C1091 C1090 1.367 . S
C1091 C1099 1.433 . S
C1092 H1088 0.929 . S
C1092 C1094 1.378 . S
C1092 C1096 1.350 . S
C1093 C1096 1.463 . S
C1093 C1098 1.350 . S
C1093 N1101 1.427 . S
C1094 H1085 0.930 . S
C1094 C1092 1.378 . S
C1094 C1095 1.367 . S
C1095 C1094 1.367 . S
C1095 C1097 1.433 . S
C1096 C1092 1.350 . S
C1096 C1093 1.463 . S
C1096 N1100 1.427 . S
C1097 H1087 0.929 . S
C1097 C1095 1.433 . S
C1097 N1100 1.384 . S
C1098 H1089 0.929 . S
C1098 C1090 1.378 . S
C1098 C1093 1.350 . S
C1099 H1086 0.929 . S
C1099 C1091 1.433 . S
C1099 N1101 1.384 . S
N1100 C1096 1.427 . S
N1100 C1097 1.384 . S
N1101 C1093 1.427 . S
N1101 C1099 1.384 . S
H1102 C1108 0.930 1_655 S
H1103 C1112 0.930 1_455 S
H1104 C1117 0.929 . S
H1105 C1115 0.929 . S
H1106 C1110 0.929 . S
H1107 C1116 0.929 . S
C1108 H1102 0.930 1_455 S
C1108 C1109 1.367 . S
C1108 C1116 1.378 1_455 S
C1109 C1108 1.367 . S
C1109 C1117 1.433 . S
C1110 H1106 0.929 . S
C1110 C1112 1.378 1_455 S
C1110 C1114 1.350 1_455 S
C1111 C1114 1.463 1_455 S
C1111 C1116 1.350 1_455 S
C1111 N1119 1.427 . S
C1112 H1103 0.930 1_655 S
C1112 C1110 1.378 1_655 S
C1112 C1113 1.367 . S
C1113 C1112 1.367 . S
C1113 C1115 1.433 . S
C1114 C1110 1.350 1_655 S
C1114 C1111 1.463 1_655 S
C1114 N1118 1.427 . S
C1115 H1105 0.929 . S
C1115 C1113 1.433 . S
C1115 N1118 1.384 . S
C1116 H1107 0.929 . S
C1116 C1108 1.378 1_655 S
C1116 C1111 1.350 1_655 S
C1117 H1104 0.929 . S
C1117 C1109 1.433 . S
C1117 N1119 1.384 . S
N1118 C1114 1.427 . S
N1118 C1115 1.384 . S
N1119 C1111 1.427 . S
N1119 C1117 1.384 . S
H1120 C1126 0.930 . S
H1121 C1130 0.930 . S
H1122 C1135 0.929 . S
H1123 C1133 0.929 . S
H1124 C1128 0.929 . S
H1125 C1134 0.929 . S
C1126 H1120 0.930 . S
C1126 C1127 1.367 . S
C1126 C1134 1.378 . S
C1127 C1126 1.367 . S
C1127 C1135 1.433 . S
C1128 H1124 0.929 . S
C1128 C1130 1.378 . S
C1128 C1132 1.350 . S
C1129 C1132 1.463 . S
C1129 C1134 1.350 . S
C1129 N1137 1.427 . S
C1130 H1121 0.930 . S
C1130 C1128 1.378 . S
C1130 C1131 1.367 . S
C1131 C1130 1.367 . S
C1131 C1133 1.433 . S
C1132 C1128 1.350 . S
C1132 C1129 1.463 . S
C1132 N1136 1.427 . S
C1133 H1123 0.929 . S
C1133 C1131 1.433 . S
C1133 N1136 1.384 . S
C1134 H1125 0.929 . S
C1134 C1126 1.378 . S
C1134 C1129 1.350 . S
C1135 H1122 0.929 . S
C1135 C1127 1.433 . S
C1135 N1137 1.384 . S
N1136 C1132 1.427 . S
N1136 C1133 1.384 . S
N1137 C1129 1.427 . S
N1137 C1135 1.384 . S
H1138 C1144 0.930 . S
H1139 C1148 0.930 . S
H1140 C1153 0.929 . S
H1141 C1151 0.929 . S
H1142 C1146 0.929 . S
H1143 C1152 0.929 . S
C1144 H1138 0.930 . S
C1144 C1145 1.367 . S
C1144 C1152 1.378 . S
C1145 C1144 1.367 . S
C1145 C1153 1.433 . S
C1146 H1142 0.929 . S
C1146 C1148 1.378 . S
C1146 C1150 1.350 . S
C1147 C1150 1.463 . S
C1147 C1152 1.350 . S
C1147 N1155 1.427 . S
C1148 H1139 0.930 . S
C1148 C1146 1.378 . S
C1148 C1149 1.367 . S
C1149 C1148 1.367 . S
C1149 C1151 1.433 . S
C1150 C1146 1.350 . S
C1150 C1147 1.463 . S
C1150 N1154 1.427 . S
C1151 H1141 0.929 . S
C1151 C1149 1.433 . S
C1151 N1154 1.384 . S
C1152 H1143 0.929 . S
C1152 C1144 1.378 . S
C1152 C1147 1.350 . S
C1153 H1140 0.929 . S
C1153 C1145 1.433 . S
C1153 N1155 1.384 . S
N1154 C1150 1.427 . S
N1154 C1151 1.384 . S
N1155 C1147 1.427 . S
N1155 C1153 1.384 . S
H1156 C1162 0.930 . S
H1157 C1166 0.930 . S
H1158 C1171 0.929 . S
H1159 C1169 0.950 . S
H1160 C1164 0.929 . S
H1161 C1170 0.929 . S
C1162 H1156 0.930 . S
C1162 C1163 1.367 . S
C1162 C1170 1.378 . S
C1163 C1162 1.367 . S
C1163 C1171 1.433 . S
C1164 H1160 0.929 . S
C1164 C1166 1.378 . S
C1164 C1168 1.350 . S
C1165 C1168 1.463 . S
C1165 C1170 1.350 . S
C1165 N1173 1.427 . S
C1166 H1157 0.930 . S
C1166 C1164 1.378 . S
C1166 C1167 1.367 . S
C1167 C1166 1.367 . S
C1167 C1169 1.433 . S
C1168 C1164 1.350 . S
C1168 C1165 1.463 . S
C1168 N1172 1.427 . S
C1169 H1159 0.950 . S
C1169 C1167 1.433 . S
C1169 N1172 1.384 . S
C1170 H1161 0.929 . S
C1170 C1162 1.378 . S
C1170 C1165 1.350 . S
C1171 H1158 0.929 . S
C1171 C1163 1.433 . S
C1171 N1173 1.384 . S
N1172 C1168 1.427 . S
N1172 C1169 1.384 . S
N1173 C1165 1.427 . S
N1173 C1171 1.384 . S
H1174 C1180 0.930 . S
H1175 C1184 0.930 . S
H1176 C1189 0.929 . S
H1177 C1187 0.929 . S
H1178 C1182 0.929 . S
H1179 C1188 0.929 . S
C1180 H1174 0.930 . S
C1180 C1181 1.367 . S
C1180 C1188 1.378 . S
C1181 C1180 1.367 . S
C1181 C1189 1.433 . S
C1182 H1178 0.929 . S
C1182 C1184 1.378 . S
C1182 C1186 1.350 . S
C1183 C1186 1.463 . S
C1183 C1188 1.350 . S
C1183 N1191 1.427 . S
C1184 H1175 0.930 . S
C1184 C1182 1.378 . S
C1184 C1185 1.367 . S
C1185 C1184 1.367 . S
C1185 C1187 1.433 . S
C1186 C1182 1.350 . S
C1186 C1183 1.463 . S
C1186 N1190 1.427 . S
C1187 H1177 0.929 . S
C1187 C1185 1.433 . S
C1187 N1190 1.384 . S
C1188 H1179 0.929 . S
C1188 C1180 1.378 . S
C1188 C1183 1.350 . S
C1189 H1176 0.929 . S
C1189 C1181 1.433 . S
C1189 N1191 1.384 . S
N1190 C1186 1.427 . S
N1190 C1187 1.384 . S
N1191 C1183 1.427 . S
N1191 C1189 1.384 . S
H1192 C1198 0.930 . S
H1193 C1202 0.930 . S
H1194 C1207 0.929 . S
H1195 C1205 0.929 . S
H1196 C1200 0.929 . S
H1197 C1206 0.929 . S
C1198 H1192 0.930 . S
C1198 C1199 1.367 . S
C1198 C1206 1.378 . S
C1199 C1198 1.367 . S
C1199 C1207 1.433 . S
C1200 H1196 0.929 . S
C1200 C1202 1.378 . S
C1200 C1204 1.350 . S
C1201 C1204 1.463 . S
C1201 C1206 1.350 . S
C1201 N1209 1.427 . S
C1202 H1193 0.930 . S
C1202 C1200 1.378 . S
C1202 C1203 1.367 . S
C1203 C1202 1.367 . S
C1203 C1205 1.433 . S
C1204 C1200 1.350 . S
C1204 C1201 1.463 . S
C1204 N1208 1.427 . S
C1205 H1195 0.929 . S
C1205 C1203 1.433 . S
C1205 N1208 1.384 . S
C1206 H1197 0.929 . S
C1206 C1198 1.378 . S
C1206 C1201 1.350 . S
C1207 H1194 0.929 . S
C1207 C1199 1.433 . S
C1207 N1209 1.384 . S
N1208 C1204 1.427 . S
N1208 C1205 1.384 . S
N1209 C1201 1.427 . S
N1209 C1207 1.384 . S
H1210 C1216 0.930 . S
H1211 C1220 0.930 . S
H1212 C1225 0.929 . S
H1213 C1223 0.929 . S
H1214 C1218 0.929 . S
H1215 C1224 0.929 . S
C1216 H1210 0.930 . S
C1216 C1217 1.367 . S
C1216 C1224 1.378 . S
C1217 C1216 1.367 . S
C1217 C1225 1.433 . S
C1218 H1214 0.929 . S
C1218 C1220 1.378 . S
C1218 C1222 1.350 . S
C1219 C1222 1.463 . S
C1219 C1224 1.350 . S
C1219 N1227 1.427 . S
C1220 H1211 0.930 . S
C1220 C1218 1.378 . S
C1220 C1221 1.367 . S
C1221 C1220 1.367 . S
C1221 C1223 1.433 . S
C1222 C1218 1.350 . S
C1222 C1219 1.463 . S
C1222 N1226 1.427 . S
C1223 H1213 0.929 . S
C1223 C1221 1.433 . S
C1223 N1226 1.384 . S
C1224 H1215 0.929 . S
C1224 C1216 1.378 . S
C1224 C1219 1.350 . S
C1225 H1212 0.929 . S
C1225 C1217 1.433 . S
C1225 N1227 1.384 . S
N1226 C1222 1.427 . S
N1226 C1223 1.384 . S
N1227 C1219 1.427 . S
N1227 C1225 1.384 . S
H1228 C1234 0.930 . S
H1229 C1238 0.930 . S
H1230 C1243 0.929 . S
H1231 C1241 0.929 . S
H1232 C1236 0.929 . S
H1233 C1242 0.929 . S
C1234 H1228 0.930 . S
C1234 C1235 1.367 . S
C1234 C1242 1.378 . S
C1235 C1234 1.367 . S
C1235 C1243 1.433 . S
C1236 H1232 0.929 . S
C1236 C1238 1.378 . S
C1236 C1240 1.350 . S
C1237 C1240 1.463 . S
C1237 C1242 1.350 . S
C1237 N1245 1.427 . S
C1238 H1229 0.930 . S
C1238 C1236 1.378 . S
C1238 C1239 1.367 . S
C1239 C1238 1.367 . S
C1239 C1241 1.433 . S
C1240 C1236 1.350 . S
C1240 C1237 1.463 . S
C1240 N1244 1.427 . S
C1241 H1231 0.929 . S
C1241 C1239 1.433 . S
C1241 N1244 1.384 . S
C1242 H1233 0.929 . S
C1242 C1234 1.378 . S
C1242 C1237 1.350 . S
C1243 H1230 0.929 . S
C1243 C1235 1.433 . S
C1243 N1245 1.384 . S
N1244 C1240 1.427 . S
N1244 C1241 1.384 . S
N1245 C1237 1.427 . S
N1245 C1243 1.384 . S
H1246 C1252 0.930 . S
H1247 C1256 0.930 . S
H1248 C1261 0.929 . S
H1249 C1259 0.929 . S
H1250 C1254 0.929 . S
H1251 C1260 0.929 . S
C1252 H1246 0.930 . S
C1252 C1253 1.367 . S
C1252 C1260 1.378 . S
C1253 C1252 1.367 . S
C1253 C1261 1.433 . S
C1254 H1250 0.929 . S
C1254 C1256 1.378 . S
C1254 C1258 1.350 . S
C1255 C1258 1.463 . S
C1255 C1260 1.350 . S
C1255 N1263 1.427 . S
C1256 H1247 0.930 . S
C1256 C1254 1.378 . S
C1256 C1257 1.367 . S
C1257 C1256 1.367 . S
C1257 C1259 1.433 . S
C1258 C1254 1.350 . S
C1258 C1255 1.463 . S
C1258 N1262 1.427 . S
C1259 H1249 0.929 . S
C1259 C1257 1.433 . S
C1259 N1262 1.384 . S
C1260 H1251 0.929 . S
C1260 C1252 1.378 . S
C1260 C1255 1.350 . S
C1261 H1248 0.929 . S
C1261 C1253 1.433 . S
C1261 N1263 1.384 . S
N1262 C1258 1.427 . S
N1262 C1259 1.384 . S
N1263 C1255 1.427 . S
N1263 C1261 1.384 . S
C551 C9 0.821 . S
C555 C67 0.843 . S
C569 C101 0.844 . S
C573 C43 0.827 . S
C587 C135 0.843 . S
C591 C77 0.811 . S
C605 C111 0.798 . S
C609 C33 0.841 . S
C623 C271 0.841 . S
C627 C145 0.798 . S
C641 C169 0.844 . S
C645 C179 0.820 . S
C659 C203 0.840 . S
C663 C213 0.785 . S
C677 C247 0.785 . S
C681 C237 0.840 . S
C695 C281 0.805 . S
C699 C339 0.843 . S
C713 C315 0.785 . S
C717 C373 0.840 . S
C731 C407 0.841 . S
C735 C349 0.787 . S
C749 C305 0.844 . S
C753 C383 0.826 . S
C767 C543 0.841 . S
C771 C417 0.794 . S
C785 C441 0.843 . S
C789 C451 0.818 . S
C803 C485 0.788 . S
C807 C475 0.840 . S
C821 C519 0.813 . S
C825 C509 0.842 . S
C839 C5 2.199 . S
C843 C73 2.201 . S
C857 C39 2.199 . S
C861 C107 2.201 . S
C875 C209 2.205 . S
C879 C141 2.206 . S
C893 C243 2.199 . S
C897 C175 2.201 . S
C911 C345 2.205 . S
C915 C277 2.205 . S
C929 C311 2.203 . S
C933 C379 2.200 . S
C947 C413 2.200 . S
C951 C481 2.202 . S
C965 C447 2.200 . S
C969 C515 2.199 . S
C983 C20 1.797 . S
C987 C292 1.797 . S
C1001 C54 1.803 . S
C1005 C326 1.803 . S
C1019 C88 1.796 . S
C1023 C360 1.796 . S
C1037 C394 1.805 . S
C1041 C122 1.805 . S
C1055 C428 1.797 . S
C1059 C156 1.797 . S
C1073 C190 1.802 . S
C1077 C462 1.802 . S
C1091 C224 1.797 . S
C1095 C496 1.797 . S
C1109 C530 1.800 . S
C1113 C258 1.800 . S
C1127 C172 1.630 . S
C1131 C2 1.629 . S
C1145 C206 1.629 . S
C1149 C36 1.630 . S
C1163 C70 1.629 . S
C1167 C240 1.628 . S
C1181 C138 1.630 . S
C1185 C104 1.631 . S
C1199 C274 1.629 . S
C1203 C444 1.628 . S
C1217 C478 1.631 . S
C1221 C308 1.631 . S
C1235 C512 1.631 . S
C1239 C342 1.631 . S
C1253 C376 1.629 . S
C1257 C410 1.628 . S
