# Generated by pormake.
# Topology neb, (4)-cn, num edge types: 1
# Building blocks:
#     Node 0, Type 0, BuildingBlock: TATPOV_clean_sbu_0, # of connection points: 4
#     Node 1, Type 0, BuildingBlock: TATPOV_clean_sbu_0, # of connection points: 4
#     Node 2, Type 0, BuildingBlock: TATPOV_clean_sbu_0, # of connection points: 4
#     Node 3, Type 0, BuildingBlock: TATPOV_clean_sbu_0, # of connection points: 4
#     Node 4, Type 0, BuildingBlock: TATPOV_clean_sbu_0, # of connection points: 4
#     Node 5, Type 0, BuildingBlock: TATPOV_clean_sbu_0, # of connection points: 4
#     Node 6, Type 0, BuildingBlock: TATPOV_clean_sbu_0, # of connection points: 4
#     Node 7, Type 0, BuildingBlock: TATPOV_clean_sbu_0, # of connection points: 4
#     Node 8, Type 0, BuildingBlock: TATPOV_clean_sbu_0, # of connection points: 4
#     Node 9, Type 0, BuildingBlock: TATPOV_clean_sbu_0, # of connection points: 4
#     Node 10, Type 0, BuildingBlock: TATPOV_clean_sbu_0, # of connection points: 4
#     Node 11, Type 0, BuildingBlock: TATPOV_clean_sbu_0, # of connection points: 4
#     Node 12, Type 0, BuildingBlock: TATPOV_clean_sbu_0, # of connection points: 4
#     Node 13, Type 0, BuildingBlock: TATPOV_clean_sbu_0, # of connection points: 4
#     Node 14, Type 0, BuildingBlock: TATPOV_clean_sbu_0, # of connection points: 4
#     Node 15, Type 0, BuildingBlock: TATPOV_clean_sbu_0, # of connection points: 4
#     Edge 16, Type (0, 0), BuildingBlock: XIVTED_clean_linker_0, # of connection points: 2
#     Edge 17, Type (0, 0), BuildingBlock: XIVTED_clean_linker_0, # of connection points: 2
#     Edge 18, Type (0, 0), BuildingBlock: XIVTED_clean_linker_0, # of connection points: 2
#     Edge 19, Type (0, 0), BuildingBlock: XIVTED_clean_linker_0, # of connection points: 2
#     Edge 20, Type (0, 0), BuildingBlock: XIVTED_clean_linker_0, # of connection points: 2
#     Edge 21, Type (0, 0), BuildingBlock: XIVTED_clean_linker_0, # of connection points: 2
#     Edge 22, Type (0, 0), BuildingBlock: XIVTED_clean_linker_0, # of connection points: 2
#     Edge 23, Type (0, 0), BuildingBlock: XIVTED_clean_linker_0, # of connection points: 2
#     Edge 24, Type (0, 0), BuildingBlock: XIVTED_clean_linker_0, # of connection points: 2
#     Edge 25, Type (0, 0), BuildingBlock: XIVTED_clean_linker_0, # of connection points: 2
#     Edge 26, Type (0, 0), BuildingBlock: XIVTED_clean_linker_0, # of connection points: 2
#     Edge 27, Type (0, 0), BuildingBlock: XIVTED_clean_linker_0, # of connection points: 2
#     Edge 28, Type (0, 0), BuildingBlock: XIVTED_clean_linker_0, # of connection points: 2
#     Edge 29, Type (0, 0), BuildingBlock: XIVTED_clean_linker_0, # of connection points: 2
#     Edge 30, Type (0, 0), BuildingBlock: XIVTED_clean_linker_0, # of connection points: 2
#     Edge 31, Type (0, 0), BuildingBlock: XIVTED_clean_linker_0, # of connection points: 2
#     Edge 32, Type (0, 0), BuildingBlock: XIVTED_clean_linker_0, # of connection points: 2
#     Edge 33, Type (0, 0), BuildingBlock: XIVTED_clean_linker_0, # of connection points: 2
#     Edge 34, Type (0, 0), BuildingBlock: XIVTED_clean_linker_0, # of connection points: 2
#     Edge 35, Type (0, 0), BuildingBlock: XIVTED_clean_linker_0, # of connection points: 2
#     Edge 36, Type (0, 0), BuildingBlock: XIVTED_clean_linker_0, # of connection points: 2
#     Edge 37, Type (0, 0), BuildingBlock: XIVTED_clean_linker_0, # of connection points: 2
#     Edge 38, Type (0, 0), BuildingBlock: XIVTED_clean_linker_0, # of connection points: 2
#     Edge 39, Type (0, 0), BuildingBlock: XIVTED_clean_linker_0, # of connection points: 2
#     Edge 40, Type (0, 0), BuildingBlock: XIVTED_clean_linker_0, # of connection points: 2
#     Edge 41, Type (0, 0), BuildingBlock: XIVTED_clean_linker_0, # of connection points: 2
#     Edge 42, Type (0, 0), BuildingBlock: XIVTED_clean_linker_0, # of connection points: 2
#     Edge 43, Type (0, 0), BuildingBlock: XIVTED_clean_linker_0, # of connection points: 2
#     Edge 44, Type (0, 0), BuildingBlock: XIVTED_clean_linker_0, # of connection points: 2
#     Edge 45, Type (0, 0), BuildingBlock: XIVTED_clean_linker_0, # of connection points: 2
#     Edge 46, Type (0, 0), BuildingBlock: XIVTED_clean_linker_0, # of connection points: 2
#     Edge 47, Type (0, 0), BuildingBlock: XIVTED_clean_linker_0, # of connection points: 2
# Relax obj value: 0.060
# Max RMSD: 0.117
# Mean RMSD: 0.117
data_MOF--net-neb--node1-TATPOV_clean_sbu_0--edge1-XIVTED_clean_linker_0
_symmetry_space_group_name_H-M    P1
_symmetry_Int_Tables_number       1
_symmetry_cell_setting            triclinic
loop_
_symmetry_equiv_pos_as_xyz
'x, y, z'
_cell_length_a     44.737848
_cell_length_b     22.305057
_cell_length_c     69.258244
_cell_angle_alpha  89.972784
_cell_angle_beta   93.779065
_cell_angle_gamma 89.989699
loop_
_atom_site_label
_atom_site_type_symbol
_atom_site_fract_x
_atom_site_fract_y
_atom_site_fract_z
_atom_type_partial_charge
Zn0 Zn 0.21916 0.00271 0.43564 0.0
Zn1 Zn 0.16964 0.00043 0.45543 0.0
O2 O 0.19945 0.05427 0.47189 0.0
O3 O 0.2403 0.05451 0.45579 0.0
O4 O 0.13363 -0.00945 0.47178 0.0
O5 O 0.22352 0.91354 0.43584 0.0
O6 O 0.18098 0.91234 0.45004 0.0
C7 C 0.2263 0.07188 0.47006 0.0
C8 C 0.16662 0.05465 0.41504 0.0
O9 O 0.1537 0.04276 0.43047 0.0
O10 O 0.19397 0.04143 0.41376 0.0
C11 C 0.11261 0.02869 0.47274 0.0
O12 O 0.11382 0.07887 0.46288 0.0
C13 C 0.2022 0.88444 0.44246 0.0
Zn14 Zn 0.08073 0.00377 0.8383 0.0
Zn15 Zn 0.13145 0.00341 0.82002 0.0
O16 O 0.10189 0.0544 0.80222 0.0
O17 O 0.06004 0.05268 0.81727 0.0
O18 O 0.16915 -0.0065 0.80522 0.0
O19 O 0.07739 0.9146 0.83893 0.0
O20 O 0.12103 0.91512 0.82608 0.0
C21 C 0.07458 0.0702 0.80326 0.0
C22 C 0.1309 0.0604 0.8599 0.0
O23 O 0.14506 0.04864 0.84496 0.0
O24 O 0.10366 0.04535 0.86052 0.0
C25 C 0.18127 0.03418 0.79547 0.0
O26 O 0.16915 0.08786 0.79454 0.0
C27 C 0.09974 0.88643 0.83331 0.0
Zn28 Zn 0.83 0.96106 0.58861 0.0
Zn29 Zn 0.87982 0.96469 0.56926 0.0
O30 O 0.85022 0.9118 0.55225 0.0
O31 O 0.80909 0.91052 0.56804 0.0
O32 O 0.91603 0.97555 0.55315 0.0
O33 O 0.8255 0.05015 0.58901 0.0
O34 O 0.86843 0.05243 0.57527 0.0
C35 C 0.82333 0.89406 0.55377 0.0
C36 C 0.88221 0.90808 0.60928 0.0
O37 O 0.89542 0.92084 0.59403 0.0
O38 O 0.85481 0.92114 0.61041 0.0
C39 C 0.93694 0.93722 0.55202 0.0
O40 O 0.93546 0.88649 0.56156 0.0
C41 C 0.84703 0.07974 0.58286 0.0
Zn42 Zn 0.97228 0.96787 0.18821 0.0
Zn43 Zn 0.92273 0.96981 0.20797 0.0
O44 O 0.9529 0.91708 0.22462 0.0
O45 O 0.99382 0.91751 0.20859 0.0
O46 O 0.88667 0.97938 0.22431 0.0
O47 O 0.97607 0.05712 0.18798 0.0
O48 O 0.93347 0.05795 0.2021 0.0
C49 C 0.97989 0.90018 0.2229 0.0
C50 C 0.92004 0.91413 0.16781 0.0
O51 O 0.90704 0.92643 0.18317 0.0
O52 O 0.94735 0.92768 0.16651 0.0
C53 C 0.86523 0.94195 0.22471 0.0
O54 O 0.86607 0.89286 0.21429 0.0
C55 C 0.95453 0.08601 0.1944 0.0
Zn56 Zn 0.21931 0.50377 0.9388 0.0
Zn57 Zn 0.16953 0.5033 0.95799 0.0
O58 O 0.19998 0.55486 0.97494 0.0
O59 O 0.24122 0.55286 0.95925 0.0
O60 O 0.13334 0.49372 0.97425 0.0
O61 O 0.22274 0.41462 0.93823 0.0
O62 O 0.17961 0.41499 0.95172 0.0
C63 C 0.22719 0.57068 0.97345 0.0
C64 C 0.16794 0.55994 0.91807 0.0
O65 O 0.15443 0.54802 0.93327 0.0
O66 O 0.19515 0.54522 0.91702 0.0
C67 C 0.11237 0.53196 0.97532 0.0
O68 O 0.11366 0.58242 0.96562 0.0
C69 C 0.20064 0.38637 0.94418 0.0
Zn70 Zn 0.08019 0.50292 0.34052 0.0
Zn71 Zn 0.12956 0.50118 0.32053 0.0
O72 O 0.09943 0.55511 0.30428 0.0
O73 O 0.05869 0.55468 0.32049 0.0
O74 O 0.16532 0.49168 0.30389 0.0
O75 O 0.076 0.41376 0.34026 0.0
O76 O 0.11842 0.41293 0.32593 0.0
C77 C 0.07255 0.5724 0.30621 0.0
C78 C 0.13281 0.55485 0.36099 0.0
O79 O 0.14562 0.54318 0.34551 0.0
O80 O 0.10548 0.54157 0.36234 0.0
C81 C 0.18828 0.52557 0.30462 0.0
O82 O 0.18951 0.57135 0.31657 0.0
C83 C 0.09732 0.38484 0.33357 0.0
Zn84 Zn 0.83032 0.46846 0.092 0.0
Zn85 Zn 0.87989 0.46887 0.07227 0.0
O86 O 0.84942 0.41658 0.0557 0.0
O87 O 0.80853 0.41801 0.07176 0.0
O88 O 0.91591 0.47813 0.05586 0.0
O89 O 0.82682 0.55774 0.09206 0.0
O90 O 0.8695 0.55726 0.07803 0.0
C91 C 0.82235 0.40023 0.05747 0.0
C92 C 0.88233 0.4141 0.11255 0.0
O93 O 0.89543 0.42542 0.09714 0.0
O94 O 0.85513 0.42852 0.1138 0.0
C95 C 0.93696 0.44004 0.05487 0.0
O96 O 0.93584 0.38989 0.06476 0.0
C97 C 0.84858 0.58598 0.08564 0.0
Zn98 Zn 0.96921 0.46163 0.68561 0.0
Zn99 Zn 0.91973 0.46294 0.7053 0.0
O100 O 0.95003 0.40976 0.72177 0.0
O101 O 0.99086 0.41035 0.70566 0.0
O102 O 0.88398 0.47353 0.72194 0.0
O103 O 0.97349 0.5507 0.68558 0.0
O104 O 0.93065 0.55107 0.69942 0.0
C105 C 0.97698 0.39273 0.71995 0.0
C106 C 0.9169 0.40849 0.66502 0.0
O107 O 0.90384 0.41973 0.68045 0.0
O108 O 0.94414 0.42262 0.66378 0.0
C109 C 0.86098 0.43981 0.7217 0.0
O110 O 0.85953 0.39286 0.71022 0.0
C111 C 0.95179 0.57937 0.69189 0.0
Zn112 Zn 0.71924 0.01481 0.93724 0.0
Zn113 Zn 0.6695 0.01316 0.95642 0.0
O114 O 0.69994 0.06413 0.97358 0.0
O115 O 0.74115 0.06322 0.95786 0.0
O116 O 0.63358 0.00191 0.97285 0.0
O117 O 0.723 0.92581 0.93619 0.0
O118 O 0.67981 0.9253 0.94961 0.0
C119 C 0.72713 0.08022 0.97216 0.0
C120 C 0.66769 0.07134 0.91675 0.0
O121 O 0.65418 0.05901 0.93192 0.0
O122 O 0.6949 0.0567 0.91565 0.0
C123 C 0.61113 0.03693 0.97323 0.0
O124 O 0.61035 0.08562 0.96253 0.0
C125 C 0.70089 0.89716 0.94195 0.0
Zn126 Zn 0.58231 0.0002 0.34054 0.0
Zn127 Zn 0.63163 0.00116 0.32063 0.0
O128 O 0.60125 0.05446 0.3044 0.0
O129 O 0.56083 0.05354 0.32091 0.0
O130 O 0.66765 -0.00704 0.30419 0.0
O131 O 0.57816 0.91111 0.33948 0.0
O132 O 0.62112 0.91241 0.32579 0.0
C133 C 0.57442 0.07158 0.30654 0.0
C134 C 0.63455 0.05215 0.3614 0.0
O135 O 0.64724 0.04325 0.34569 0.0
O136 O 0.60752 0.03671 0.36282 0.0
C137 C 0.6892 0.03018 0.30401 0.0
O138 O 0.68858 0.07863 0.31475 0.0
C139 C 0.59996 0.88323 0.33298 0.0
Zn140 Zn 0.33055 0.96328 0.09132 0.0
Zn141 Zn 0.37963 0.96523 0.07125 0.0
O142 O 0.34911 0.91231 0.05487 0.0
O143 O 0.30849 0.91306 0.07119 0.0
O144 O 0.41509 0.9761 0.0544 0.0
O145 O 0.32643 0.05235 0.09174 0.0
O146 O 0.36881 0.05322 0.07738 0.0
C147 C 0.32215 0.89555 0.0568 0.0
C148 C 0.38314 0.90937 0.11136 0.0
O149 O 0.39596 0.92153 0.0959 0.0
O150 O 0.35589 0.9231 0.11281 0.0
C151 C 0.43766 0.94136 0.05412 0.0
O152 O 0.43875 0.89329 0.06511 0.0
C153 C 0.34789 0.08125 0.08523 0.0
Zn154 Zn 0.46749 0.96945 0.6829 0.0
Zn155 Zn 0.41706 0.97068 0.70177 0.0
O156 O 0.44644 0.91801 0.71909 0.0
O157 O 0.48786 0.91838 0.70356 0.0
O158 O 0.37961 0.98081 0.71679 0.0
O159 O 0.47148 0.05866 0.68299 0.0
O160 O 0.42825 0.05888 0.69635 0.0
C161 C 0.4735 0.90104 0.71768 0.0
C162 C 0.41631 0.91594 0.66146 0.0
O163 O 0.4027 0.92729 0.67666 0.0
O164 O 0.44361 0.93016 0.6606 0.0
C165 C 0.36728 0.93992 0.72633 0.0
O166 O 0.37904 0.88592 0.72693 0.0
C167 C 0.44964 0.08726 0.68913 0.0
Zn168 Zn 0.72171 0.50044 0.43548 0.0
Zn169 Zn 0.67158 0.50001 0.45508 0.0
O170 O 0.70158 0.55304 0.47158 0.0
O171 O 0.74282 0.5518 0.45588 0.0
O172 O 0.63543 0.49125 0.47136 0.0
O173 O 0.72495 0.41084 0.4358 0.0
O174 O 0.68233 0.41173 0.44989 0.0
C175 C 0.72861 0.56978 0.46998 0.0
C176 C 0.66955 0.55373 0.41464 0.0
O177 O 0.65631 0.5422 0.42998 0.0
O178 O 0.69688 0.53996 0.41355 0.0
C179 C 0.61313 0.5268 0.471 0.0
O180 O 0.61285 0.57401 0.45964 0.0
C181 C 0.70329 0.38279 0.44242 0.0
Zn182 Zn 0.57798 0.51526 0.83725 0.0
Zn183 Zn 0.62792 0.51327 0.8182 0.0
O184 O 0.59763 0.56447 0.80098 0.0
O185 O 0.55631 0.56408 0.81659 0.0
O186 O 0.66398 0.50192 0.80186 0.0
O187 O 0.57414 0.42622 0.83825 0.0
O188 O 0.61746 0.4255 0.825 0.0
C189 C 0.57048 0.58093 0.80233 0.0
C190 C 0.62952 0.57129 0.85788 0.0
O191 O 0.64312 0.55893 0.84275 0.0
O192 O 0.60227 0.55685 0.8589 0.0
C193 C 0.68685 0.53596 0.80195 0.0
O194 O 0.68802 0.58363 0.81311 0.0
C195 C 0.59629 0.39747 0.83259 0.0
Zn196 Zn 0.32864 0.46945 0.58619 0.0
Zn197 Zn 0.37834 0.471 0.56659 0.0
O198 O 0.34839 0.41757 0.55008 0.0
O199 O 0.30741 0.41783 0.56604 0.0
O200 O 0.41434 0.48046 0.55021 0.0
O201 O 0.32453 0.55869 0.58594 0.0
O202 O 0.36737 0.55921 0.5721 0.0
C203 C 0.32147 0.40027 0.55182 0.0
C204 C 0.38092 0.41681 0.60695 0.0
O205 O 0.394 0.42843 0.59156 0.0
O206 O 0.3536 0.43048 0.60814 0.0
C207 C 0.43652 0.44464 0.55037 0.0
O208 O 0.43668 0.39698 0.56153 0.0
C209 C 0.34614 0.58744 0.57954 0.0
Zn210 Zn 0.47114 0.4629 0.18803 0.0
Zn211 Zn 0.42187 0.46489 0.208 0.0
O212 O 0.45236 0.41256 0.2246 0.0
O213 O 0.49306 0.41301 0.20835 0.0
O214 O 0.38612 0.47463 0.22464 0.0
O215 O 0.47488 0.55207 0.18761 0.0
O216 O 0.43247 0.55307 0.20195 0.0
C217 C 0.47936 0.39583 0.22277 0.0
C218 C 0.41885 0.40881 0.16788 0.0
O219 O 0.40597 0.42116 0.18328 0.0
O220 O 0.44613 0.42242 0.16647 0.0
C221 C 0.36324 0.44052 0.22403 0.0
O222 O 0.3621 0.3944 0.21222 0.0
C223 C 0.4534 0.58103 0.19409 0.0
H224 H 0.34637 0.33929 0.52231 0.0
H225 H 0.20144 0.13278 0.4996 0.0
H226 H 0.26416 0.35755 0.55115 0.0
H227 H 0.28355 0.11486 0.47064 0.0
H228 H 0.22431 0.21435 0.51903 0.0
H229 H 0.32349 0.25777 0.50286 0.0
C230 C 0.32344 0.32664 0.52443 0.0
C231 C 0.30723 0.3553 0.53843 0.0
C232 C 0.23735 0.19236 0.50846 0.0
C233 C 0.28101 0.26153 0.5164 0.0
C234 C 0.22434 0.14552 0.49745 0.0
C235 C 0.24053 0.11693 0.48342 0.0
C236 C 0.26675 0.21076 0.50543 0.0
C237 C 0.27013 0.13563 0.48123 0.0
C238 C 0.31043 0.27983 0.5134 0.0
C239 C 0.2776 0.33671 0.54058 0.0
N240 N 0.28221 0.18142 0.49204 0.0
N241 N 0.26552 0.29095 0.52976 0.0
H242 H 0.98578 0.86594 0.54684 0.0
H243 H 0.06371 0.09994 0.47783 0.0
H244 H 0.9475 0.03768 0.53047 0.0
H245 H 0.10228 0.92878 0.49459 0.0
H246 H 1.02106 0.07799 0.497 0.0
H247 H 0.02849 0.88807 0.52775 0.0
C248 C 0.9863 0.90831 0.53923 0.0
C249 C 0.96291 0.94997 0.5403 0.0
C250 C 0.03885 0.04522 0.49651 0.0
C251 C 1.01197 0.97569 0.51834 0.0
C252 C 0.06328 0.05775 0.48555 0.0
C253 C 0.08672 0.01619 0.48456 0.0
C254 C 0.03773 -0.00934 0.50659 0.0
C255 C 0.08479 0.96224 0.4949 0.0
C256 C 1.01075 0.92094 0.52832 0.0
C257 C 0.96494 0.00415 0.53009 0.0
N258 N 0.06077 0.95107 0.50545 0.0
N259 N 0.98899 0.01539 0.51957 0.0
H260 H 0.33552 0.86378 0.74849 0.0
H261 H 0.21287 0.11017 0.77317 0.0
H262 H 0.33639 0.04623 0.72775 0.0
H263 H 0.21247 0.92817 0.79434 0.0
H264 H 0.25797 0.08757 0.75641 0.0
H265 H 0.29047 0.88644 0.7653 0.0
C266 C 0.32628 0.90863 0.74745 0.0
C267 C 0.33987 0.95312 0.73665 0.0
C268 C 0.24804 0.05255 0.76472 0.0
C269 C 0.28808 0.97944 0.75593 0.0
C270 C 0.22223 0.06544 0.77432 0.0
C271 C 0.20875 0.02106 0.78522 0.0
C272 C 0.26059 -0.00521 0.76599 0.0
C273 C 0.22201 0.96388 0.78613 0.0
C274 C 0.3005 0.92155 0.75708 0.0
C275 C 0.32676 0.01044 0.73589 0.0
N276 N 0.24712 0.95245 0.77666 0.0
N277 N 0.30166 0.02189 0.74537 0.0
H278 H 0.10014 0.13363 0.77444 0.0
H279 H 0.95234 0.33017 0.74923 0.0
H280 H 1.01628 0.10713 0.80076 0.0
H281 H 0.0348 0.35255 0.72094 0.0
H282 H 0.97591 0.24965 0.76882 0.0
H283 H 0.07664 0.21353 0.75445 0.0
C284 C 0.07674 0.14407 0.77587 0.0
C285 C 0.06023 0.11368 0.78936 0.0
C286 C 0.98887 0.27236 0.75836 0.0
C287 C 0.03331 0.20557 0.76675 0.0
C288 C 0.97546 0.31862 0.74726 0.0
C289 C 0.99155 0.34818 0.73338 0.0
C290 C 1.0186 0.25554 0.75559 0.0
C291 C 1.02145 0.33098 0.73142 0.0
C292 C 0.06337 0.18995 0.76454 0.0
C293 C 0.02998 0.12942 0.79064 0.0
N294 N 0.03394 0.28577 0.74233 0.0
N295 N 1.01759 0.17435 0.77958 0.0
H296 H 0.84866 0.83458 0.52409 0.0
H297 H 0.70368 0.62962 0.49967 0.0
H298 H 0.76594 0.85167 0.55244 0.0
H299 H 0.78589 0.61307 0.47074 0.0
H300 H 0.72648 0.71027 0.5195 0.0
H301 H 0.82591 0.75422 0.50402 0.0
C302 C 0.82565 0.82193 0.52597 0.0
C303 C 0.80925 0.8499 0.54002 0.0
C304 C 0.73956 0.68881 0.50886 0.0
C305 C 0.7832 0.75748 0.51729 0.0
C306 C 0.72659 0.64249 0.4976 0.0
C307 C 0.74283 0.6145 0.48348 0.0
C308 C 0.76899 0.70733 0.50597 0.0
C309 C 0.77244 0.63336 0.48141 0.0
C310 C 0.81273 0.77579 0.51459 0.0
C311 C 0.77954 0.83135 0.54185 0.0
N312 N 0.7845 0.67865 0.49247 0.0
N313 N 0.76755 0.78625 0.5307 0.0
H314 H 0.73918 0.09968 0.30042 0.0
H315 H 0.81534 0.87241 0.22844 0.0
H316 H 0.69855 0.93334 0.28061 0.0
H317 H 0.85571 0.03942 0.24783 0.0
H318 H 0.77255 0.89382 0.24753 0.0
H319 H 0.78196 0.07847 0.28129 0.0
C320 C 0.73918 0.05871 0.29203 0.0
C321 C 0.71513 0.01827 0.29217 0.0
C322 C 0.79076 0.92581 0.24762 0.0
C323 C 0.76427 -0.00642 0.27017 0.0
C324 C 0.81527 0.91358 0.23672 0.0
C325 C 0.83927 0.95414 0.23649 0.0
C326 C 0.7901 0.97905 0.25844 0.0
C327 C 0.83779 0.00678 0.24754 0.0
C328 C 0.76369 0.04661 0.2811 0.0
C329 C 0.71652 0.9659 0.28098 0.0
N330 N 0.81367 0.01768 0.25803 0.0
N331 N 0.74063 0.95509 0.27048 0.0
H332 H 0.03788 0.86105 0.22429 0.0
H333 H 1.0148 0.61283 0.3053 0.0
H334 H 0.955 0.83699 0.25198 0.0
H335 H 0.09733 0.63583 0.27715 0.0
H336 H 0.99251 0.69418 0.28578 0.0
H337 H 0.06023 0.78022 0.244 0.0
C338 C 1.0244 0.83912 0.23464 0.0
C339 C 0.99441 0.85585 0.23642 0.0
C340 C 1.01545 0.68135 0.2838 0.0
C341 C 1.01996 0.76247 0.25896 0.0
C342 C 0.02821 0.63465 0.29489 0.0
C343 C 0.05808 0.61741 0.29291 0.0
C344 C 0.03261 0.71138 0.27059 0.0
C345 C 0.07425 0.64743 0.27915 0.0
C346 C 0.0372 0.79271 0.24585 0.0
C347 C 0.97818 0.82575 0.25012 0.0
N348 N 0.06134 0.69312 0.26858 0.0
N349 N 0.99112 0.78032 0.2608 0.0
H350 H 0.26393 0.8579 0.05557 0.0
H351 H 0.28569 0.60651 0.97546 0.0
H352 H 0.34659 0.83086 0.02791 0.0
H353 H 0.20233 0.63593 1.00208 0.0
H354 H 0.30858 0.68674 0.99514 0.0
H355 H 0.24101 0.77722 0.03607 0.0
C356 C 0.27725 0.83534 0.04527 0.0
C357 C 0.30733 0.85123 0.04342 0.0
C358 C 0.28533 0.67557 0.99676 0.0
C359 C 0.28114 0.75801 0.02113 0.0
C360 C 0.27221 0.62949 0.98558 0.0
C361 C 0.24194 0.61446 0.98705 0.0
C362 C 0.26811 0.70719 1.00956 0.0
C363 C 0.22572 0.64585 1.00047 0.0
C364 C 0.26412 0.78903 0.03419 0.0
C365 C 0.32335 0.82032 0.0298 0.0
N366 N 0.23898 0.69094 1.01114 0.0
N367 N 0.31009 0.775 0.01924 0.0
H368 H 0.06362 0.60337 0.9807 0.0
H369 H 0.98576 0.3687 0.04955 0.0
H370 H 0.10187 0.43146 0.99687 0.0
H371 H 0.94731 0.54026 0.03316 0.0
H372 H 0.02835 0.39082 0.03035 0.0
H373 H 1.02098 0.58118 0.99986 0.0
C374 C 0.06311 0.56095 0.98828 0.0
C375 C 0.08647 0.51926 0.98713 0.0
C376 C 1.0106 0.42365 0.03093 0.0
C377 C 0.03749 0.49345 1.00917 0.0
C378 C 0.98621 0.41102 0.04191 0.0
C379 C 0.9628 0.45264 0.04302 0.0
C380 C 1.01175 0.47838 0.02094 0.0
C381 C 0.96476 0.50675 0.03276 0.0
C382 C 0.0387 0.54828 0.99924 0.0
C383 C 0.08445 0.46503 0.99731 0.0
N384 N 0.98875 0.51802 0.02219 0.0
N385 N 0.06045 0.45373 1.00787 0.0
H386 H 0.35776 0.53232 0.25004 0.0
H387 H 0.19369 0.43405 0.2785 0.0
H388 H 0.31054 0.37829 0.22578 0.0
H389 H 0.24105 0.58763 0.30297 0.0
H390 H 0.23614 0.41315 0.25902 0.0
H391 H 0.31531 0.55325 0.26952 0.0
C392 C 0.3385 0.5028 0.24881 0.0
C393 C 0.33781 0.4534 0.23621 0.0
C394 C 0.23726 0.45146 0.26864 0.0
C395 C 0.28894 0.47729 0.25853 0.0
C396 C 0.21298 0.46348 0.27978 0.0
C397 C 0.21371 0.51274 0.29244 0.0
C398 C 0.26259 0.4889 0.27012 0.0
C399 C 0.2394 0.54918 0.29343 0.0
C400 C 0.31422 0.51484 0.25995 0.0
C401 C 0.31216 0.41685 0.23527 0.0
N402 N 0.26275 0.53652 0.28246 0.0
N403 N 0.28881 0.42954 0.24624 0.0
H404 H 0.78563 0.11604 0.97436 0.0
H405 H 0.76414 0.36236 0.05613 0.0
H406 H 0.70232 0.14366 1.00123 0.0
H407 H 0.84679 0.33667 0.02833 0.0
H408 H 0.74116 0.28276 0.03617 0.0
H409 H 0.80861 0.19486 0.99461 0.0
C410 C 0.77218 0.13833 0.98464 0.0
C411 C 0.74189 0.12321 0.98603 0.0
C412 C 0.76428 0.29462 0.03436 0.0
C413 C 0.76818 0.21433 1.0092 0.0
C414 C 0.77745 0.34031 0.04571 0.0
C415 C 0.80754 0.35629 0.04395 0.0
C416 C 0.78127 0.26434 0.02112 0.0
C417 C 0.82355 0.32604 0.03017 0.0
C418 C 0.78534 0.18361 0.99616 0.0
C419 C 0.72571 0.15369 0.99967 0.0
N420 N 0.81024 0.28136 0.01935 0.0
N421 N 0.73903 0.19801 1.01066 0.0
H422 H 0.69242 0.44014 0.77748 0.0
H423 H 0.85567 0.53494 0.74647 0.0
H424 H 0.73932 0.59817 0.79891 0.0
H425 H 0.80846 0.37772 0.72467 0.0
H426 H 0.81348 0.55845 0.7659 0.0
H427 H 0.73468 0.41645 0.75813 0.0
C428 C 0.71156 0.46996 0.77812 0.0
C429 C 0.71221 0.52131 0.78989 0.0
C430 C 0.81234 0.51877 0.75688 0.0
C431 C 0.76089 0.49426 0.76771 0.0
C432 C 0.83648 0.50524 0.74578 0.0
C433 C 0.83571 0.45419 0.73387 0.0
C434 C 0.78711 0.48105 0.75614 0.0
C435 C 0.81013 0.41753 0.7336 0.0
C436 C 0.73574 0.45634 0.76706 0.0
C437 C 0.73773 0.55813 0.79008 0.0
N438 N 0.78692 0.43167 0.74454 0.0
N439 N 0.76098 0.54389 0.77919 0.0
H440 H 0.60488 0.93924 0.99685 0.0
H441 H 0.4436 0.03846 0.0302 0.0
H442 H 0.5595 0.10114 0.97728 0.0
H443 H 0.48931 0.87726 0.05009 0.0
H444 H 0.48563 0.06184 1.01061 0.0
H445 H 0.56277 0.91573 0.01634 0.0
C446 C 0.5861 0.96994 0.99665 0.0
C447 C 0.58584 0.02233 0.98536 0.0
C448 C 0.48647 0.02132 0.01924 0.0
C449 C 0.53734 -0.00451 1.00772 0.0
C450 C 0.46243 0.00787 0.03044 0.0
C451 C 0.46282 0.95574 0.04186 0.0
C452 C 0.51122 0.98242 0.0194 0.0
C453 C 0.48793 0.91794 0.04155 0.0
C454 C 0.56201 0.95643 1.0078 0.0
C455 C 0.56078 0.06027 0.98573 0.0
N456 N 0.51106 0.93202 0.03054 0.0
N457 N 0.5376 0.04611 0.99669 0.0
H458 H 0.53742 0.35731 0.22391 0.0
H459 H 0.51669 0.11205 0.30619 0.0
H460 H 0.45513 0.33329 0.25225 0.0
H461 H 0.59841 0.13451 0.27709 0.0
H462 H 0.49381 0.1926 0.28657 0.0
H463 H 0.56036 0.27756 0.24381 0.0
C464 C 0.52419 0.33561 0.23444 0.0
C465 C 0.49419 0.35204 0.23635 0.0
C466 C 0.5167 0.17983 0.28441 0.0
C467 C 0.52042 0.25988 0.25913 0.0
C468 C 0.52981 0.1336 0.29556 0.0
C469 C 0.55962 0.11642 0.29333 0.0
C470 C 0.53346 0.20943 0.27088 0.0
C471 C 0.57539 0.14609 0.2793 0.0
C472 C 0.53733 0.28982 0.24576 0.0
C473 C 0.47829 0.32226 0.25029 0.0
N474 N 0.56215 0.19129 0.26867 0.0
N475 N 0.49157 0.27742 0.26108 0.0
H476 H 0.44815 0.83915 0.74688 0.0
H477 H 0.59544 0.64168 0.77277 0.0
H478 H 0.53133 0.86108 0.71937 0.0
H479 H 0.51248 0.62011 0.80055 0.0
H480 H 0.57196 0.72088 0.75253 0.0
H481 H 0.47142 0.75921 0.76693 0.0
C482 C 0.47135 0.82764 0.74518 0.0
C483 C 0.48775 0.85689 0.73139 0.0
C484 C 0.55887 0.69859 0.76301 0.0
C485 C 0.51442 0.76495 0.75409 0.0
C486 C 0.57223 0.65309 0.77448 0.0
C487 C 0.55598 0.62423 0.78843 0.0
C488 C 0.52905 0.71538 0.7655 0.0
C489 C 0.52597 0.64119 0.79005 0.0
C490 C 0.48459 0.78173 0.75655 0.0
C491 C 0.51773 0.83976 0.72977 0.0
N492 N 0.51355 0.68571 0.7788 0.0
N493 N 0.53003 0.79489 0.74091 0.0
H494 H 0.44388 0.53931 0.52572 0.0
H495 H 0.60583 0.43252 0.4958 0.0
H496 H 0.48793 0.37874 0.54772 0.0
H497 H 0.5616 0.59251 0.47348 0.0
H498 H 0.56299 0.41234 0.51498 0.0
H499 H 0.48673 0.55956 0.50652 0.0
C500 C 0.46252 0.50822 0.52651 0.0
C501 C 0.46221 0.45718 0.53839 0.0
C502 C 0.56264 0.4519 0.5059 0.0
C503 C 0.51153 0.48026 0.51639 0.0
C504 C 0.58715 0.4635 0.49493 0.0
C505 C 0.58741 0.51436 0.48296 0.0
C506 C 0.53808 0.49136 0.50495 0.0
C507 C 0.56247 0.55278 0.48247 0.0
C508 C 0.48703 0.51986 0.51553 0.0
C509 C 0.4871 0.41862 0.53879 0.0
N510 N 0.53887 0.54049 0.49328 0.0
N511 N 0.51069 0.43096 0.52799 0.0
H512 H 0.18992 0.60109 0.36269 0.0
H513 H 0.15719 0.80775 0.45145 0.0
H514 H 0.11235 0.58276 0.39618 0.0
H515 H 0.23943 0.81437 0.42219 0.0
H516 H 0.14525 0.71217 0.4357 0.0
H517 H 0.21277 0.66658 0.38785 0.0
C518 C 0.17786 0.61014 0.37543 0.0
C519 C 0.1489 0.58746 0.37711 0.0
C520 C 0.16621 0.73391 0.433 0.0
C521 C 0.17482 0.66248 0.40591 0.0
C522 C 0.17311 0.78847 0.44209 0.0
C523 C 0.19896 0.81998 0.43774 0.0
C524 C 0.18511 0.71119 0.41931 0.0
C525 C 0.21892 0.79231 0.42567 0.0
C526 C 0.19094 0.64745 0.38983 0.0
C527 C 0.13448 0.60014 0.39406 0.0
N528 N 0.21125 0.74017 0.41653 0.0
N529 N 0.14739 0.63747 0.40764 0.0
H530 H 0.10948 0.1008 0.41321 0.0
H531 H 0.14264 0.30866 0.32475 0.0
H532 H 0.18735 0.0831 0.37996 0.0
H533 H 0.06004 0.31424 0.35365 0.0
H534 H 0.15466 0.21306 0.34051 0.0
H535 H 0.08677 0.16654 0.38805 0.0
C536 C 0.12163 0.11004 0.40052 0.0
C537 C 0.15063 0.08745 0.39891 0.0
C538 C 0.13361 0.23457 0.34312 0.0
C539 C 0.12487 0.16276 0.37011 0.0
C540 C 0.12666 0.28914 0.33403 0.0
C541 C 0.10068 0.32037 0.33828 0.0
C542 C 0.11461 0.21155 0.35671 0.0
C543 C 0.08066 0.29241 0.35024 0.0
C544 C 0.10864 0.1475 0.38612 0.0
C545 C 0.16518 0.1004 0.38202 0.0
N546 N 0.08836 0.24027 0.35939 0.0
N547 N 0.15234 0.13786 0.36845 0.0
H548 H 0.10753 0.08723 0.89432 0.0
H549 H 0.23906 0.31418 0.92556 0.0
H550 H 0.1873 0.11008 0.8632 0.0
H551 H 0.15244 0.31367 0.94964 0.0
H552 H 0.22598 0.22099 0.90865 0.0
H553 H 0.12907 0.15211 0.91985 0.0
C554 C 0.12972 0.10544 0.8929 0.0
C555 C 0.1454 0.09409 0.87637 0.0
C556 C 0.21007 0.24068 0.91792 0.0
C557 C 0.1702 0.16852 0.90568 0.0
C558 C 0.21755 0.29379 0.92769 0.0
C559 C 0.1965 0.32268 0.93868 0.0
C560 C 0.18136 0.21629 0.91915 0.0
C561 C 0.16919 0.29359 0.94109 0.0
C562 C 0.14202 0.14242 0.90755 0.0
C563 C 0.17425 0.11824 0.87555 0.0
N564 N 0.16219 0.24253 0.9311 0.0
N565 N 0.18558 0.15495 0.8899 0.0
H566 H 0.11108 0.60765 0.91547 0.0
H567 H 0.14679 0.81207 0.82652 0.0
H568 H 0.19027 0.58898 0.88353 0.0
H569 H 0.06236 0.81594 0.85333 0.0
H570 H 0.15922 0.71858 0.84348 0.0
H571 H 0.08937 0.67314 0.88989 0.0
C572 C 0.12376 0.61671 0.903 0.0
C573 C 0.15277 0.59372 0.90185 0.0
C574 C 0.1377 0.73924 0.84538 0.0
C575 C 0.12815 0.66865 0.87256 0.0
C576 C 0.13054 0.79258 0.8356 0.0
C577 C 0.10382 0.82274 0.83886 0.0
C578 C 0.11818 0.71637 0.85868 0.0
C579 C 0.08349 0.79489 0.85064 0.0
C580 C 0.11133 0.65399 0.88836 0.0
C581 C 0.16804 0.60649 0.88523 0.0
N582 N 0.09137 0.74399 0.86046 0.0
N583 N 0.15572 0.64369 0.8714 0.0
H584 H 0.93704 0.38653 0.62934 0.0
H585 H 0.80854 0.14893 0.6025 0.0
H586 H 0.86112 0.35593 0.66348 0.0
H587 H 0.89297 0.15649 0.57574 0.0
H588 H 0.8207 0.24359 0.6188 0.0
H589 H 0.91449 0.3212 0.60427 0.0
C590 C 0.91545 0.36657 0.63151 0.0
C591 C 0.90125 0.37572 0.64876 0.0
C592 C 0.83629 0.22511 0.60907 0.0
C593 C 0.87532 0.30071 0.62 0.0
C594 C 0.82932 0.17115 0.59965 0.0
C595 C 0.85014 0.14385 0.5881 0.0
C596 C 0.86421 0.25197 0.6069 0.0
C597 C 0.87648 0.17527 0.58477 0.0
C598 C 0.90257 0.32934 0.61713 0.0
C599 C 0.87306 0.34949 0.65054 0.0
N600 N 0.88301 0.22715 0.59441 0.0
N601 N 0.8612 0.31243 0.63645 0.0
H602 H 0.90593 0.65496 0.70012 0.0
H603 H 0.93937 0.86188 0.61134 0.0
H604 H 0.98887 0.64979 0.6716 0.0
H605 H 0.86095 0.87876 0.64411 0.0
H606 H 0.96188 0.79625 0.63661 0.0
H607 H 0.89358 0.74972 0.68391 0.0
C608 C 0.9219 0.67441 0.69082 0.0
C609 C 0.94811 0.64353 0.68684 0.0
C610 C 0.93993 0.81506 0.6384 0.0
C611 C 0.93381 0.75137 0.66789 0.0
C612 C 0.92704 0.85245 0.62394 0.0
C613 C 0.89797 0.87485 0.6254 0.0
C614 C 0.92352 0.79972 0.65433 0.0
C615 C 0.88319 0.86164 0.64217 0.0
C616 C 0.91477 0.72848 0.68147 0.0
C617 C 0.96811 0.67137 0.67483 0.0
N618 N 0.89594 0.82431 0.65582 0.0
N619 N 0.96023 0.72302 0.66543 0.0
H620 H 0.89476 0.66054 0.07724 0.0
H621 H 0.86275 0.86884 0.1659 0.0
H622 H 0.81197 0.65731 0.10596 0.0
H623 H 0.9411 0.88392 0.13298 0.0
H624 H 0.83985 0.8034 0.14076 0.0
H625 H 0.90767 0.75513 0.09335 0.0
C626 C 0.87894 0.68038 0.08656 0.0
C627 C 0.85261 0.65009 0.09063 0.0
C628 C 0.86188 0.82177 0.13891 0.0
C629 C 0.86755 0.75774 0.10947 0.0
C630 C 0.87499 0.85903 0.1533 0.0
C631 C 0.90413 0.88091 0.15176 0.0
C632 C 0.87814 0.80598 0.12296 0.0
C633 C 0.91879 0.86724 0.13498 0.0
C634 C 0.8864 0.73435 0.09585 0.0
C635 C 0.83282 0.67842 0.10267 0.0
N636 N 0.90582 0.83002 0.1214 0.0
N637 N 0.841 0.72997 0.112 0.0
H638 H 0.9925 0.15707 0.17499 0.0
H639 H 0.8618 0.38992 0.148 0.0
H640 H 0.9079 0.16094 0.20161 0.0
H641 H 0.93852 0.36339 0.11425 0.0
H642 H 0.88471 0.32487 0.17306 0.0
H643 H 0.97952 0.25157 0.1588 0.0
C644 C 0.9715 0.17846 0.17784 0.0
C645 C 0.95089 0.15014 0.1893 0.0
C646 C 0.89672 0.33384 0.16029 0.0
C647 C 0.93587 0.25804 0.17062 0.0
C648 C 0.88363 0.37091 0.14592 0.0
C649 C 0.89798 0.38114 0.12878 0.0
C650 C 0.92434 0.3065 0.15753 0.0
C651 C 0.92646 0.35608 0.1271 0.0
C652 C 0.96407 0.23232 0.16848 0.0
C653 C 0.92425 0.18052 0.19264 0.0
N654 N 0.93854 0.31921 0.14118 0.0
N655 N 0.91726 0.2323 0.18304 0.0
H656 H 0.6079 0.5963 0.89293 0.0
H657 H 0.73877 0.82689 0.9222 0.0
H658 H 0.68557 0.62283 0.86004 0.0
H659 H 0.65337 0.82309 0.94785 0.0
H660 H 0.72559 0.73398 0.90514 0.0
H661 H 0.63011 0.6614 0.91815 0.0
C662 C 0.62978 0.61539 0.89106 0.0
C663 C 0.64464 0.60499 0.87412 0.0
C664 C 0.70998 0.7529 0.91478 0.0
C665 C 0.67021 0.67973 0.9031 0.0
C666 C 0.71753 0.80583 0.92464 0.0
C667 C 0.69682 0.8337 0.93614 0.0
C668 C 0.68157 0.7276 0.91646 0.0
C669 C 0.66984 0.80381 0.9389 0.0
C670 C 0.64247 0.6525 0.90553 0.0
C671 C 0.67315 0.63021 0.87273 0.0
N672 N 0.66278 0.7529 0.92886 0.0
N673 N 0.68486 0.66708 0.88693 0.0
H674 H 0.68908 0.0961 0.88161 0.0
H675 H 0.55845 0.32764 0.85254 0.0
H676 H 0.61176 0.12345 0.91475 0.0
H677 H 0.64364 0.323 0.82664 0.0
H678 H 0.5716 0.23478 0.86967 0.0
H679 H 0.66682 0.16133 0.85642 0.0
C680 C 0.66727 0.11541 0.88355 0.0
C681 C 0.65252 0.10519 0.90054 0.0
C682 C 0.58717 0.2535 0.85996 0.0
C683 C 0.62689 0.18008 0.8716 0.0
C684 C 0.57963 0.30641 0.85006 0.0
C685 C 0.60029 0.33402 0.83846 0.0
C686 C 0.61551 0.22798 0.85823 0.0
C687 C 0.62721 0.30392 0.83566 0.0
C688 C 0.65455 0.15259 0.86909 0.0
C689 C 0.62409 0.13068 0.90202 0.0
N690 N 0.63425 0.25303 0.84575 0.0
N691 N 0.61235 0.16762 0.88783 0.0
H692 H 0.61915 0.05721 0.39885 0.0
H693 H 0.65729 0.30899 0.45144 0.0
H694 H 0.68597 0.11932 0.36135 0.0
H695 H 0.7398 0.31017 0.42243 0.0
H696 H 0.64419 0.21406 0.43612 0.0
H697 H 0.6408 0.1213 0.42452 0.0
C698 C 0.63844 0.08442 0.39603 0.0
C699 C 0.65028 0.08417 0.37775 0.0
C700 C 0.66568 0.23355 0.43355 0.0
C701 C 0.67458 0.15962 0.40691 0.0
C702 C 0.67314 0.2883 0.44233 0.0
C703 C 0.69938 0.31832 0.43792 0.0
C704 C 0.68463 0.20867 0.42022 0.0
C705 C 0.71908 0.28913 0.42603 0.0
C706 C 0.65067 0.12151 0.41068 0.0
C707 C 0.67581 0.11888 0.37511 0.0
N708 N 0.71097 0.23664 0.41725 0.0
N709 N 0.68682 0.15594 0.38944 0.0
H710 H 0.6121 0.59825 0.4121 0.0
H711 H 0.64643 0.80922 0.32468 0.0
H712 H 0.69135 0.5839 0.38001 0.0
H713 H 0.56253 0.81041 0.35215 0.0
H714 H 0.65888 0.71377 0.34041 0.0
H715 H 0.58966 0.66363 0.38676 0.0
C716 C 0.62463 0.60819 0.39963 0.0
C717 C 0.6539 0.58659 0.3984 0.0
C718 C 0.63746 0.73428 0.34271 0.0
C719 C 0.62844 0.66151 0.36939 0.0
C720 C 0.63027 0.78875 0.33363 0.0
C721 C 0.60376 0.81874 0.33751 0.0
C722 C 0.61816 0.7101 0.35592 0.0
C723 C 0.58353 0.78958 0.34905 0.0
C724 C 0.61179 0.64542 0.38513 0.0
C725 C 0.66894 0.60039 0.38178 0.0
N726 N 0.59146 0.73757 0.3582 0.0
N727 N 0.65623 0.63765 0.36809 0.0
H728 H 0.3618 0.36224 0.16626 0.0
H729 H 0.39352 0.15711 0.07676 0.0
H730 H 0.43948 0.3799 0.13283 0.0
H731 H 0.31126 0.15111 0.10601 0.0
H732 H 0.40615 0.25151 0.09307 0.0
H733 H 0.33887 0.29689 0.14108 0.0
C734 C 0.37388 0.35301 0.15354 0.0
C735 C 0.40286 0.37558 0.15186 0.0
C736 C 0.38505 0.23017 0.09565 0.0
C737 C 0.37683 0.3008 0.12303 0.0
C738 C 0.37775 0.17631 0.08624 0.0
C739 C 0.35166 0.14529 0.09039 0.0
C740 C 0.3663 0.25271 0.10946 0.0
C741 C 0.33193 0.17281 0.10265 0.0
C742 C 0.36075 0.31581 0.13913 0.0
C743 C 0.41732 0.36266 0.13494 0.0
N744 N 0.33997 0.22426 0.11209 0.0
N745 N 0.40434 0.32551 0.12134 0.0
H746 H 0.40772 0.65703 0.20237 0.0
H747 H 0.44 0.86172 0.11287 0.0
H748 H 0.49023 0.65077 0.17341 0.0
H749 H 0.36268 0.88133 0.14652 0.0
H750 H 0.46276 0.79603 0.13805 0.0
H751 H 0.39529 0.75154 0.18603 0.0
C752 C 0.42358 0.67619 0.19295 0.0
C753 C 0.44969 0.64508 0.18889 0.0
C754 C 0.441 0.81546 0.14005 0.0
C755 C 0.4353 0.75262 0.16978 0.0
C756 C 0.42798 0.85287 0.12564 0.0
C757 C 0.39913 0.87607 0.12738 0.0
C758 C 0.42494 0.80088 0.1562 0.0
C759 C 0.38473 0.86359 0.14436 0.0
C760 C 0.41641 0.73012 0.18352 0.0
C761 C 0.46955 0.67254 0.1767 0.0
N762 N 0.3976 0.82622 0.15795 0.0
N763 N 0.46163 0.72405 0.16724 0.0
H764 H 0.43814 0.89086 0.62643 0.0
H765 H 0.30755 0.65928 0.59817 0.0
H766 H 0.35987 0.86646 0.6589 0.0
H767 H 0.39299 0.66204 0.57257 0.0
H768 H 0.32015 0.75415 0.61419 0.0
H769 H 0.41583 0.82592 0.60115 0.0
C770 C 0.4161 0.87236 0.62818 0.0
C771 C 0.40112 0.88312 0.64504 0.0
C772 C 0.33588 0.73458 0.60477 0.0
C773 C 0.37546 0.80861 0.61604 0.0
C774 C 0.32867 0.6805 0.5955 0.0
C775 C 0.34961 0.65176 0.5844 0.0
C776 C 0.36421 0.76006 0.60291 0.0
C777 C 0.37638 0.68194 0.58128 0.0
C778 C 0.40336 0.83535 0.61368 0.0
C779 C 0.37241 0.8587 0.64629 0.0
N780 N 0.38316 0.73392 0.59079 0.0
N781 N 0.36068 0.82187 0.6321 0.0
H782 H 0.43801 0.37038 0.60903 0.0
H783 H 0.40389 0.16304 0.69743 0.0
H784 H 0.35974 0.38838 0.64189 0.0
H785 H 0.48704 0.15786 0.66916 0.0
H786 H 0.39188 0.25829 0.68145 0.0
H787 H 0.46041 0.30467 0.6343 0.0
C788 C 0.4257 0.3612 0.62166 0.0
C789 C 0.39669 0.38389 0.62313 0.0
C790 C 0.41304 0.23695 0.67902 0.0
C791 C 0.42211 0.30863 0.65206 0.0
C792 C 0.41997 0.18258 0.68824 0.0
C793 C 0.44614 0.15157 0.68425 0.0
C794 C 0.43223 0.26 0.66555 0.0
C795 C 0.46631 0.17954 0.67238 0.0
C796 C 0.43852 0.32377 0.63612 0.0
C797 C 0.38193 0.37102 0.63994 0.0
N798 N 0.45862 0.23149 0.6631 0.0
N799 N 0.39461 0.33358 0.65358 0.0
loop_
_geom_bond_atom_site_label_1
_geom_bond_atom_site_label_2
_geom_bond_distance
_geom_bond_site_symmetry_2
_ccdc_geom_bond_type
Zn0 O3 2.031 . S
Zn0 O5 2.049 . S
Zn0 O10 2.067 . S
Zn1 O2 1.962 . S
Zn1 O4 1.986 . S
Zn1 O6 1.996 . S
Zn1 O9 1.943 . S
O2 Zn1 1.962 . S
O2 C7 1.254 . S
O3 Zn0 2.031 . S
O3 C7 1.269 . S
O4 Zn1 1.986 . S
O4 C11 1.262 . S
O5 Zn0 2.049 . S
O5 C13 1.260 . S
O6 Zn1 1.996 . S
O6 C13 1.257 . S
C7 O2 1.254 . S
C7 O3 1.269 . S
C8 O9 1.249 . S
C8 O10 1.270 . S
O9 Zn1 1.943 . S
O9 C8 1.249 . S
O10 Zn0 2.067 . S
O10 C8 1.270 . S
C11 O4 1.262 . S
C11 O12 1.232 . S
O12 C11 1.232 . S
C13 O5 1.260 . S
C13 O6 1.257 . S
Zn14 O17 2.031 . S
Zn14 O19 2.049 . S
Zn14 O24 2.067 . S
Zn15 O16 1.962 . S
Zn15 O18 1.986 . S
Zn15 O20 1.996 . S
Zn15 O23 1.943 . S
O16 Zn15 1.962 . S
O16 C21 1.254 . S
O17 Zn14 2.031 . S
O17 C21 1.269 . S
O18 Zn15 1.986 . S
O18 C25 1.262 . S
O19 Zn14 2.049 . S
O19 C27 1.260 . S
O20 Zn15 1.996 . S
O20 C27 1.257 . S
C21 O16 1.254 . S
C21 O17 1.269 . S
C22 O23 1.249 . S
C22 O24 1.270 . S
O23 Zn15 1.943 . S
O23 C22 1.249 . S
O24 Zn14 2.067 . S
O24 C22 1.270 . S
C25 O18 1.262 . S
C25 O26 1.232 . S
O26 C25 1.232 . S
C27 O19 1.260 . S
C27 O20 1.257 . S
Zn28 O31 2.031 . S
Zn28 O33 2.049 . S
Zn28 O38 2.067 . S
Zn29 O30 1.962 . S
Zn29 O32 1.986 . S
Zn29 O34 1.996 . S
Zn29 O37 1.943 . S
O30 Zn29 1.962 . S
O30 C35 1.254 . S
O31 Zn28 2.031 . S
O31 C35 1.269 . S
O32 Zn29 1.986 . S
O32 C39 1.262 . S
O33 Zn28 2.049 . S
O33 C41 1.260 . S
O34 Zn29 1.996 . S
O34 C41 1.257 . S
C35 O30 1.254 . S
C35 O31 1.269 . S
C36 O37 1.249 . S
C36 O38 1.270 . S
O37 Zn29 1.943 . S
O37 C36 1.249 . S
O38 Zn28 2.067 . S
O38 C36 1.270 . S
C39 O32 1.262 . S
C39 O40 1.232 . S
O40 C39 1.232 . S
C41 O33 1.260 . S
C41 O34 1.257 . S
Zn42 O45 2.031 . S
Zn42 O47 2.049 . S
Zn42 O52 2.067 . S
Zn43 O44 1.962 . S
Zn43 O46 1.986 . S
Zn43 O48 1.996 . S
Zn43 O51 1.943 . S
O44 Zn43 1.962 . S
O44 C49 1.254 . S
O45 Zn42 2.031 . S
O45 C49 1.269 . S
O46 Zn43 1.986 . S
O46 C53 1.262 . S
O47 Zn42 2.049 . S
O47 C55 1.260 . S
O48 Zn43 1.996 . S
O48 C55 1.257 . S
C49 O44 1.254 . S
C49 O45 1.269 . S
C50 O51 1.249 . S
C50 O52 1.270 . S
O51 Zn43 1.943 . S
O51 C50 1.249 . S
O52 Zn42 2.067 . S
O52 C50 1.270 . S
C53 O46 1.262 . S
C53 O54 1.232 . S
O54 C53 1.232 . S
C55 O47 1.260 . S
C55 O48 1.257 . S
Zn56 O59 2.031 . S
Zn56 O61 2.049 . S
Zn56 O66 2.067 . S
Zn57 O58 1.962 . S
Zn57 O60 1.986 . S
Zn57 O62 1.996 . S
Zn57 O65 1.943 . S
O58 Zn57 1.962 . S
O58 C63 1.254 . S
O59 Zn56 2.031 . S
O59 C63 1.269 . S
O60 Zn57 1.986 . S
O60 C67 1.262 . S
O61 Zn56 2.049 . S
O61 C69 1.260 . S
O62 Zn57 1.996 . S
O62 C69 1.257 . S
C63 O58 1.254 . S
C63 O59 1.269 . S
C64 O65 1.249 . S
C64 O66 1.270 . S
O65 Zn57 1.943 . S
O65 C64 1.249 . S
O66 Zn56 2.067 . S
O66 C64 1.270 . S
C67 O60 1.262 . S
C67 O68 1.232 . S
O68 C67 1.232 . S
C69 O61 1.260 . S
C69 O62 1.257 . S
Zn70 O73 2.031 . S
Zn70 O75 2.049 . S
Zn70 O80 2.067 . S
Zn71 O72 1.962 . S
Zn71 O74 1.986 . S
Zn71 O76 1.996 . S
Zn71 O79 1.943 . S
O72 Zn71 1.962 . S
O72 C77 1.254 . S
O73 Zn70 2.031 . S
O73 C77 1.269 . S
O74 Zn71 1.986 . S
O74 C81 1.262 . S
O75 Zn70 2.049 . S
O75 C83 1.260 . S
O76 Zn71 1.996 . S
O76 C83 1.257 . S
C77 O72 1.254 . S
C77 O73 1.269 . S
C78 O79 1.249 . S
C78 O80 1.270 . S
O79 Zn71 1.943 . S
O79 C78 1.249 . S
O80 Zn70 2.067 . S
O80 C78 1.270 . S
C81 O74 1.262 . S
C81 O82 1.232 . S
O82 C81 1.232 . S
C83 O75 1.260 . S
C83 O76 1.257 . S
Zn84 O87 2.031 . S
Zn84 O89 2.049 . S
Zn84 O94 2.067 . S
Zn85 O86 1.962 . S
Zn85 O88 1.986 . S
Zn85 O90 1.996 . S
Zn85 O93 1.943 . S
O86 Zn85 1.962 . S
O86 C91 1.254 . S
O87 Zn84 2.031 . S
O87 C91 1.269 . S
O88 Zn85 1.986 . S
O88 C95 1.262 . S
O89 Zn84 2.049 . S
O89 C97 1.260 . S
O90 Zn85 1.996 . S
O90 C97 1.257 . S
C91 O86 1.254 . S
C91 O87 1.269 . S
C92 O93 1.249 . S
C92 O94 1.270 . S
O93 Zn85 1.943 . S
O93 C92 1.249 . S
O94 Zn84 2.067 . S
O94 C92 1.270 . S
C95 O88 1.262 . S
C95 O96 1.232 . S
O96 C95 1.232 . S
C97 O89 1.260 . S
C97 O90 1.257 . S
Zn98 O101 2.031 . S
Zn98 O103 2.049 . S
Zn98 O108 2.067 . S
Zn99 O100 1.962 . S
Zn99 O102 1.986 . S
Zn99 O104 1.996 . S
Zn99 O107 1.943 . S
O100 Zn99 1.962 . S
O100 C105 1.254 . S
O101 Zn98 2.031 . S
O101 C105 1.269 . S
O102 Zn99 1.986 . S
O102 C109 1.262 . S
O103 Zn98 2.049 . S
O103 C111 1.260 . S
O104 Zn99 1.996 . S
O104 C111 1.257 . S
C105 O100 1.254 . S
C105 O101 1.269 . S
C106 O107 1.249 . S
C106 O108 1.270 . S
O107 Zn99 1.943 . S
O107 C106 1.249 . S
O108 Zn98 2.067 . S
O108 C106 1.270 . S
C109 O102 1.262 . S
C109 O110 1.232 . S
O110 C109 1.232 . S
C111 O103 1.260 . S
C111 O104 1.257 . S
Zn112 O115 2.031 . S
Zn112 O117 2.049 . S
Zn112 O122 2.067 . S
Zn113 O114 1.962 . S
Zn113 O116 1.986 . S
Zn113 O118 1.996 . S
Zn113 O121 1.943 . S
O114 Zn113 1.962 . S
O114 C119 1.254 . S
O115 Zn112 2.031 . S
O115 C119 1.269 . S
O116 Zn113 1.986 . S
O116 C123 1.262 . S
O117 Zn112 2.049 . S
O117 C125 1.260 . S
O118 Zn113 1.996 . S
O118 C125 1.257 . S
C119 O114 1.254 . S
C119 O115 1.269 . S
C120 O121 1.249 . S
C120 O122 1.270 . S
O121 Zn113 1.943 . S
O121 C120 1.249 . S
O122 Zn112 2.067 . S
O122 C120 1.270 . S
C123 O116 1.262 . S
C123 O124 1.232 . S
O124 C123 1.232 . S
C125 O117 1.260 . S
C125 O118 1.257 . S
Zn126 O129 2.031 . S
Zn126 O131 2.049 . S
Zn126 O136 2.067 . S
Zn127 O128 1.962 . S
Zn127 O130 1.986 . S
Zn127 O132 1.996 . S
Zn127 O135 1.943 . S
O128 Zn127 1.962 . S
O128 C133 1.254 . S
O129 Zn126 2.031 . S
O129 C133 1.269 . S
O130 Zn127 1.986 . S
O130 C137 1.262 . S
O131 Zn126 2.049 . S
O131 C139 1.260 . S
O132 Zn127 1.996 . S
O132 C139 1.257 . S
C133 O128 1.254 . S
C133 O129 1.269 . S
C134 O135 1.249 . S
C134 O136 1.270 . S
O135 Zn127 1.943 . S
O135 C134 1.249 . S
O136 Zn126 2.067 . S
O136 C134 1.270 . S
C137 O130 1.262 . S
C137 O138 1.232 . S
O138 C137 1.232 . S
C139 O131 1.260 . S
C139 O132 1.257 . S
Zn140 O143 2.031 . S
Zn140 O145 2.049 . S
Zn140 O150 2.067 . S
Zn141 O142 1.962 . S
Zn141 O144 1.986 . S
Zn141 O146 1.996 . S
Zn141 O149 1.943 . S
O142 Zn141 1.962 . S
O142 C147 1.254 . S
O143 Zn140 2.031 . S
O143 C147 1.269 . S
O144 Zn141 1.986 . S
O144 C151 1.262 . S
O145 Zn140 2.049 . S
O145 C153 1.260 . S
O146 Zn141 1.996 . S
O146 C153 1.257 . S
C147 O142 1.254 . S
C147 O143 1.269 . S
C148 O149 1.249 . S
C148 O150 1.270 . S
O149 Zn141 1.943 . S
O149 C148 1.249 . S
O150 Zn140 2.067 . S
O150 C148 1.270 . S
C151 O144 1.262 . S
C151 O152 1.232 . S
O152 C151 1.232 . S
C153 O145 1.260 . S
C153 O146 1.257 . S
Zn154 O157 2.031 . S
Zn154 O159 2.049 . S
Zn154 O164 2.067 . S
Zn155 O156 1.962 . S
Zn155 O158 1.986 . S
Zn155 O160 1.996 . S
Zn155 O163 1.943 . S
O156 Zn155 1.962 . S
O156 C161 1.254 . S
O157 Zn154 2.031 . S
O157 C161 1.269 . S
O158 Zn155 1.986 . S
O158 C165 1.262 . S
O159 Zn154 2.049 . S
O159 C167 1.260 . S
O160 Zn155 1.996 . S
O160 C167 1.257 . S
C161 O156 1.254 . S
C161 O157 1.269 . S
C162 O163 1.249 . S
C162 O164 1.270 . S
O163 Zn155 1.943 . S
O163 C162 1.249 . S
O164 Zn154 2.067 . S
O164 C162 1.270 . S
C165 O158 1.262 . S
C165 O166 1.232 . S
O166 C165 1.232 . S
C167 O159 1.260 . S
C167 O160 1.257 . S
Zn168 O171 2.031 . S
Zn168 O173 2.049 . S
Zn168 O178 2.067 . S
Zn169 O170 1.962 . S
Zn169 O172 1.986 . S
Zn169 O174 1.996 . S
Zn169 O177 1.943 . S
O170 Zn169 1.962 . S
O170 C175 1.254 . S
O171 Zn168 2.031 . S
O171 C175 1.269 . S
O172 Zn169 1.986 . S
O172 C179 1.262 . S
O173 Zn168 2.049 . S
O173 C181 1.260 . S
O174 Zn169 1.996 . S
O174 C181 1.257 . S
C175 O170 1.254 . S
C175 O171 1.269 . S
C176 O177 1.249 . S
C176 O178 1.270 . S
O177 Zn169 1.943 . S
O177 C176 1.249 . S
O178 Zn168 2.067 . S
O178 C176 1.270 . S
C179 O172 1.262 . S
C179 O180 1.232 . S
O180 C179 1.232 . S
C181 O173 1.260 . S
C181 O174 1.257 . S
Zn182 O185 2.031 . S
Zn182 O187 2.049 . S
Zn182 O192 2.067 . S
Zn183 O184 1.962 . S
Zn183 O186 1.986 . S
Zn183 O188 1.996 . S
Zn183 O191 1.943 . S
O184 Zn183 1.962 . S
O184 C189 1.254 . S
O185 Zn182 2.031 . S
O185 C189 1.269 . S
O186 Zn183 1.986 . S
O186 C193 1.262 . S
O187 Zn182 2.049 . S
O187 C195 1.260 . S
O188 Zn183 1.996 . S
O188 C195 1.257 . S
C189 O184 1.254 . S
C189 O185 1.269 . S
C190 O191 1.249 . S
C190 O192 1.270 . S
O191 Zn183 1.943 . S
O191 C190 1.249 . S
O192 Zn182 2.067 . S
O192 C190 1.270 . S
C193 O186 1.262 . S
C193 O194 1.232 . S
O194 C193 1.232 . S
C195 O187 1.260 . S
C195 O188 1.257 . S
Zn196 O199 2.031 . S
Zn196 O201 2.049 . S
Zn196 O206 2.067 . S
Zn197 O198 1.962 . S
Zn197 O200 1.986 . S
Zn197 O202 1.996 . S
Zn197 O205 1.943 . S
O198 Zn197 1.962 . S
O198 C203 1.254 . S
O199 Zn196 2.031 . S
O199 C203 1.269 . S
O200 Zn197 1.986 . S
O200 C207 1.262 . S
O201 Zn196 2.049 . S
O201 C209 1.260 . S
O202 Zn197 1.996 . S
O202 C209 1.257 . S
C203 O198 1.254 . S
C203 O199 1.269 . S
C204 O205 1.249 . S
C204 O206 1.270 . S
O205 Zn197 1.943 . S
O205 C204 1.249 . S
O206 Zn196 2.067 . S
O206 C204 1.270 . S
C207 O200 1.262 . S
C207 O208 1.232 . S
O208 C207 1.232 . S
C209 O201 1.260 . S
C209 O202 1.257 . S
Zn210 O213 2.031 . S
Zn210 O215 2.049 . S
Zn210 O220 2.067 . S
Zn211 O212 1.962 . S
Zn211 O214 1.986 . S
Zn211 O216 1.996 . S
Zn211 O219 1.943 . S
O212 Zn211 1.962 . S
O212 C217 1.254 . S
O213 Zn210 2.031 . S
O213 C217 1.269 . S
O214 Zn211 1.986 . S
O214 C221 1.262 . S
O215 Zn210 2.049 . S
O215 C223 1.260 . S
O216 Zn211 1.996 . S
O216 C223 1.257 . S
C217 O212 1.254 . S
C217 O213 1.269 . S
C218 O219 1.249 . S
C218 O220 1.270 . S
O219 Zn211 1.943 . S
O219 C218 1.249 . S
O220 Zn210 2.067 . S
O220 C218 1.270 . S
C221 O214 1.262 . S
C221 O222 1.232 . S
O222 C221 1.232 . S
C223 O215 1.260 . S
C223 O216 1.257 . S
H224 C230 0.930 . S
H225 C234 0.930 . S
H226 C239 0.929 . S
H227 C237 0.929 . S
H228 C232 0.929 . S
H229 C238 0.929 . S
C230 H224 0.930 . S
C230 C231 1.367 . S
C230 C238 1.378 . S
C231 C230 1.367 . S
C231 C239 1.433 . S
C232 H228 0.929 . S
C232 C234 1.378 . S
C232 C236 1.350 . S
C233 C236 1.463 . S
C233 C238 1.350 . S
C233 N241 1.427 . S
C234 H225 0.930 . S
C234 C232 1.378 . S
C234 C235 1.367 . S
C235 C234 1.367 . S
C235 C237 1.433 . S
C236 C232 1.350 . S
C236 C233 1.463 . S
C236 N240 1.427 . S
C237 H227 0.929 . S
C237 C235 1.433 . S
C237 N240 1.384 . S
C238 H229 0.929 . S
C238 C230 1.378 . S
C238 C233 1.350 . S
C239 H226 0.929 . S
C239 C231 1.433 . S
C239 N241 1.384 . S
N240 C236 1.427 . S
N240 C237 1.384 . S
N241 C233 1.427 . S
N241 C239 1.384 . S
H242 C248 0.930 . S
H243 C252 0.930 . S
H244 C257 0.929 1_545 S
H245 C255 0.929 1_565 S
H246 C250 0.929 . S
H247 C256 0.929 . S
C248 H242 0.930 . S
C248 C249 1.367 . S
C248 C256 1.378 . S
C249 C248 1.367 . S
C249 C257 1.433 . S
C250 H246 0.929 . S
C250 C252 1.378 . S
C250 C254 1.350 . S
C251 C254 1.463 1_665 S
C251 C256 1.350 . S
C251 N259 1.427 1_565 S
C252 H243 0.930 . S
C252 C250 1.378 . S
C252 C253 1.367 . S
C253 C252 1.367 . S
C253 C255 1.433 . S
C254 C250 1.350 . S
C254 C251 1.463 1_445 S
C254 N258 1.427 1_545 S
C255 H245 0.929 1_545 S
C255 C253 1.433 . S
C255 N258 1.384 1_545 S
C256 H247 0.929 . S
C256 C248 1.378 . S
C256 C251 1.350 . S
C257 H244 0.929 1_565 S
C257 C249 1.433 . S
C257 N259 1.384 1_565 S
N258 C254 1.427 1_565 S
N258 C255 1.384 1_565 S
N259 C251 1.427 1_545 S
N259 C257 1.384 1_545 S
H260 C266 0.930 . S
H261 C270 0.930 . S
H262 C275 0.929 . S
H263 C273 0.929 . S
H264 C268 0.929 . S
H265 C274 0.929 . S
C266 H260 0.930 . S
C266 C267 1.367 . S
C266 C274 1.378 . S
C267 C266 1.367 . S
C267 C275 1.433 . S
C268 H264 0.929 . S
C268 C270 1.378 . S
C268 C272 1.350 . S
C269 C272 1.463 1_565 S
C269 C274 1.350 . S
C269 N277 1.427 1_565 S
C270 H261 0.930 . S
C270 C268 1.378 . S
C270 C271 1.367 . S
C271 C270 1.367 . S
C271 C273 1.433 . S
C272 C268 1.350 . S
C272 C269 1.463 1_545 S
C272 N276 1.427 1_545 S
C273 H263 0.929 . S
C273 C271 1.433 . S
C273 N276 1.384 1_545 S
C274 H265 0.929 . S
C274 C266 1.378 . S
C274 C269 1.350 . S
C275 H262 0.929 . S
C275 C267 1.433 . S
C275 N277 1.384 1_565 S
N276 C272 1.427 1_565 S
N276 C273 1.384 1_565 S
N277 C269 1.427 1_545 S
N277 C275 1.384 1_545 S
H278 C284 0.930 . S
H279 C288 0.930 . S
H280 C293 0.929 . S
H281 C291 0.929 . S
H282 C286 0.929 . S
H283 C292 0.929 . S
C284 H278 0.930 . S
C284 C285 1.367 . S
C284 C292 1.378 . S
C285 C284 1.367 . S
C285 C293 1.433 . S
C286 H282 0.929 . S
C286 C288 1.378 . S
C286 C290 1.350 . S
C287 C290 1.463 1_455 S
C287 C292 1.350 . S
C287 N295 1.427 . S
C288 H279 0.930 . S
C288 C286 1.378 . S
C288 C289 1.367 . S
C289 C288 1.367 . S
C289 C291 1.433 . S
C290 C286 1.350 . S
C290 C287 1.463 1_655 S
C290 N294 1.427 . S
C291 H281 0.929 . S
C291 C289 1.433 . S
C291 N294 1.384 . S
C292 H283 0.929 . S
C292 C284 1.378 . S
C292 C287 1.350 . S
C293 H280 0.929 . S
C293 C285 1.433 . S
C293 N295 1.384 . S
N294 C290 1.427 . S
N294 C291 1.384 . S
N295 C287 1.427 . S
N295 C293 1.384 . S
H296 C302 0.930 . S
H297 C306 0.930 . S
H298 C311 0.929 . S
H299 C309 0.929 . S
H300 C304 0.929 . S
H301 C310 0.929 . S
C302 H296 0.930 . S
C302 C303 1.367 . S
C302 C310 1.378 . S
C303 C302 1.367 . S
C303 C311 1.433 . S
C304 H300 0.929 . S
C304 C306 1.378 . S
C304 C308 1.350 . S
C305 C308 1.463 . S
C305 C310 1.350 . S
C305 N313 1.427 . S
C306 H297 0.930 . S
C306 C304 1.378 . S
C306 C307 1.367 . S
C307 C306 1.367 . S
C307 C309 1.433 . S
C308 C304 1.350 . S
C308 C305 1.463 . S
C308 N312 1.427 . S
C309 H299 0.929 . S
C309 C307 1.433 . S
C309 N312 1.384 . S
C310 H301 0.929 . S
C310 C302 1.378 . S
C310 C305 1.350 . S
C311 H298 0.929 . S
C311 C303 1.433 . S
C311 N313 1.384 . S
N312 C308 1.427 . S
N312 C309 1.384 . S
N313 C305 1.427 . S
N313 C311 1.384 . S
H314 C320 0.930 . S
H315 C324 0.930 . S
H316 C329 0.929 . S
H317 C327 0.929 . S
H318 C322 0.929 . S
H319 C328 0.929 . S
C320 H314 0.930 . S
C320 C321 1.367 . S
C320 C328 1.378 . S
C321 C320 1.367 . S
C321 C329 1.433 1_545 S
C322 H318 0.929 . S
C322 C324 1.378 . S
C322 C326 1.350 . S
C323 C326 1.463 1_545 S
C323 C328 1.350 . S
C323 N331 1.427 1_545 S
C324 H315 0.930 . S
C324 C322 1.378 . S
C324 C325 1.367 . S
C325 C324 1.367 . S
C325 C327 1.433 1_565 S
C326 C322 1.350 . S
C326 C323 1.463 1_565 S
C326 N330 1.427 1_565 S
C327 H317 0.929 . S
C327 C325 1.433 1_545 S
C327 N330 1.384 . S
C328 H319 0.929 . S
C328 C320 1.378 . S
C328 C323 1.350 . S
C329 H316 0.929 . S
C329 C321 1.433 1_565 S
C329 N331 1.384 . S
N330 C326 1.427 1_545 S
N330 C327 1.384 . S
N331 C323 1.427 1_565 S
N331 C329 1.384 . S
H332 C338 0.930 . S
H333 C342 0.930 . S
H334 C347 0.929 . S
H335 C345 0.929 . S
H336 C340 0.929 . S
H337 C346 0.929 . S
C338 H332 0.930 . S
C338 C339 1.367 . S
C338 C346 1.378 . S
C339 C338 1.367 . S
C339 C347 1.433 . S
C340 H336 0.929 . S
C340 C342 1.378 . S
C340 C344 1.350 . S
C341 C344 1.463 1_655 S
C341 C346 1.350 . S
C341 N349 1.427 . S
C342 H333 0.930 . S
C342 C340 1.378 . S
C342 C343 1.367 . S
C343 C342 1.367 . S
C343 C345 1.433 . S
C344 C340 1.350 . S
C344 C341 1.463 1_455 S
C344 N348 1.427 . S
C345 H335 0.929 . S
C345 C343 1.433 . S
C345 N348 1.384 . S
C346 H337 0.929 . S
C346 C338 1.378 . S
C346 C341 1.350 . S
C347 H334 0.929 . S
C347 C339 1.433 . S
C347 N349 1.384 . S
N348 C344 1.427 . S
N348 C345 1.384 . S
N349 C341 1.427 . S
N349 C347 1.384 . S
H350 C356 0.930 . S
H351 C360 0.930 . S
H352 C365 0.929 . S
H353 C363 0.929 . S
H354 C358 0.929 . S
H355 C364 0.929 . S
C356 H350 0.930 . S
C356 C357 1.367 . S
C356 C364 1.378 . S
C357 C356 1.367 . S
C357 C365 1.433 . S
C358 H354 0.929 . S
C358 C360 1.378 . S
C358 C362 1.350 . S
C359 C362 1.463 1_554 S
C359 C364 1.350 . S
C359 N367 1.427 . S
C360 H351 0.930 . S
C360 C358 1.378 . S
C360 C361 1.367 . S
C361 C360 1.367 . S
C361 C363 1.433 . S
C362 C358 1.350 . S
C362 C359 1.463 1_556 S
C362 N366 1.427 . S
C363 H353 0.929 . S
C363 C361 1.433 . S
C363 N366 1.384 . S
C364 H355 0.929 . S
C364 C356 1.378 . S
C364 C359 1.350 . S
C365 H352 0.929 . S
C365 C357 1.433 . S
C365 N367 1.384 . S
N366 C362 1.427 . S
N366 C363 1.384 . S
N367 C359 1.427 . S
N367 C365 1.384 . S
H368 C374 0.930 . S
H369 C378 0.930 . S
H370 C383 0.929 . S
H371 C381 0.929 . S
H372 C376 0.957 . S
H373 C382 0.957 . S
C374 H368 0.930 . S
C374 C375 1.367 . S
C374 C382 1.358 1_556 S
C375 C374 1.367 . S
C375 C383 1.433 . S
C376 H372 0.957 . S
C376 C378 1.358 1_556 S
C376 C380 1.342 1_556 S
C377 C380 1.463 1_456 S
C377 C382 1.342 1_556 S
C377 N385 1.427 . S
C378 H369 0.930 . S
C378 C376 1.358 1_554 S
C378 C379 1.367 . S
C379 C378 1.367 . S
C379 C381 1.433 . S
C380 C376 1.342 1_554 S
C380 C377 1.463 1_654 S
C380 N384 1.427 . S
C381 H371 0.929 . S
C381 C379 1.433 . S
C381 N384 1.384 . S
C382 H373 0.957 . S
C382 C374 1.358 1_554 S
C382 C377 1.342 1_554 S
C383 H370 0.929 . S
C383 C375 1.433 . S
C383 N385 1.384 . S
N384 C380 1.427 . S
N384 C381 1.384 . S
N385 C377 1.427 . S
N385 C383 1.384 . S
H386 C392 0.930 . S
H387 C396 0.930 . S
H388 C401 0.929 . S
H389 C399 0.929 . S
H390 C394 0.929 . S
H391 C400 0.929 . S
C392 H386 0.930 . S
C392 C393 1.367 . S
C392 C400 1.378 . S
C393 C392 1.367 . S
C393 C401 1.433 . S
C394 H390 0.929 . S
C394 C396 1.378 . S
C394 C398 1.350 . S
C395 C398 1.463 . S
C395 C400 1.350 . S
C395 N403 1.427 . S
C396 H387 0.930 . S
C396 C394 1.378 . S
C396 C397 1.367 . S
C397 C396 1.367 . S
C397 C399 1.433 . S
C398 C394 1.350 . S
C398 C395 1.463 . S
C398 N402 1.427 . S
C399 H389 0.929 . S
C399 C397 1.433 . S
C399 N402 1.384 . S
C400 H391 0.929 . S
C400 C392 1.378 . S
C400 C395 1.350 . S
C401 H388 0.929 . S
C401 C393 1.433 . S
C401 N403 1.384 . S
N402 C398 1.427 . S
N402 C399 1.384 . S
N403 C395 1.427 . S
N403 C401 1.384 . S
H404 C410 0.930 . S
H405 C414 0.930 . S
H406 C419 0.929 . S
H407 C417 0.929 . S
H408 C412 0.929 1_556 S
H409 C418 0.929 1_554 S
C410 H404 0.930 . S
C410 C411 1.367 . S
C410 C418 1.378 . S
C411 C410 1.367 . S
C411 C419 1.433 . S
C412 H408 0.929 1_554 S
C412 C414 1.378 . S
C412 C416 1.350 . S
C413 C416 1.463 1_556 S
C413 C418 1.350 . S
C413 N421 1.427 . S
C414 H405 0.930 . S
C414 C412 1.378 . S
C414 C415 1.367 . S
C415 C414 1.367 . S
C415 C417 1.433 . S
C416 C412 1.350 . S
C416 C413 1.463 1_554 S
C416 N420 1.427 . S
C417 H407 0.929 . S
C417 C415 1.433 . S
C417 N420 1.384 . S
C418 H409 0.929 1_556 S
C418 C410 1.378 . S
C418 C413 1.350 . S
C419 H406 0.929 . S
C419 C411 1.433 . S
C419 N421 1.384 . S
N420 C416 1.427 . S
N420 C417 1.384 . S
N421 C413 1.427 . S
N421 C419 1.384 . S
H422 C428 0.930 . S
H423 C432 0.930 . S
H424 C437 0.929 . S
H425 C435 0.929 . S
H426 C430 0.929 . S
H427 C436 0.929 . S
C428 H422 0.930 . S
C428 C429 1.367 . S
C428 C436 1.378 . S
C429 C428 1.367 . S
C429 C437 1.433 . S
C430 H426 0.929 . S
C430 C432 1.378 . S
C430 C434 1.350 . S
C431 C434 1.463 . S
C431 C436 1.350 . S
C431 N439 1.427 . S
C432 H423 0.930 . S
C432 C430 1.378 . S
C432 C433 1.367 . S
C433 C432 1.367 . S
C433 C435 1.433 . S
C434 C430 1.350 . S
C434 C431 1.463 . S
C434 N438 1.427 . S
C435 H425 0.929 . S
C435 C433 1.433 . S
C435 N438 1.384 . S
C436 H427 0.929 . S
C436 C428 1.378 . S
C436 C431 1.350 . S
C437 H424 0.929 . S
C437 C429 1.433 . S
C437 N439 1.384 . S
N438 C434 1.427 . S
N438 C435 1.384 . S
N439 C431 1.427 . S
N439 C437 1.384 . S
H440 C446 0.936 . S
H441 C450 0.936 . S
H442 C455 0.929 . S
H443 C453 0.929 . S
H444 C448 0.929 . S
H445 C454 0.929 . S
C446 H440 0.936 . S
C446 C447 1.357 1_565 S
C446 C454 1.382 . S
C447 C446 1.357 1_545 S
C447 C455 1.433 . S
C448 H444 0.929 . S
C448 C450 1.382 . S
C448 C452 1.350 1_545 S
C449 C452 1.463 1_546 S
C449 C454 1.350 1_545 S
C449 N457 1.427 . S
C450 H441 0.936 . S
C450 C448 1.382 . S
C450 C451 1.357 1_545 S
C451 C450 1.357 1_565 S
C451 C453 1.433 . S
C452 C448 1.350 1_565 S
C452 C449 1.463 1_564 S
C452 N456 1.427 . S
C453 H443 0.929 . S
C453 C451 1.433 . S
C453 N456 1.384 . S
C454 H445 0.929 . S
C454 C446 1.382 . S
C454 C449 1.350 1_565 S
C455 H442 0.929 . S
C455 C447 1.433 . S
C455 N457 1.384 . S
N456 C452 1.427 . S
N456 C453 1.384 . S
N457 C449 1.427 . S
N457 C455 1.384 . S
H458 C464 0.930 . S
H459 C468 0.930 . S
H460 C473 0.929 . S
H461 C471 0.929 . S
H462 C466 0.929 . S
H463 C472 0.929 . S
C464 H458 0.930 . S
C464 C465 1.367 . S
C464 C472 1.378 . S
C465 C464 1.367 . S
C465 C473 1.433 . S
C466 H462 0.929 . S
C466 C468 1.378 . S
C466 C470 1.350 . S
C467 C470 1.463 . S
C467 C472 1.350 . S
C467 N475 1.427 . S
C468 H459 0.930 . S
C468 C466 1.378 . S
C468 C469 1.367 . S
C469 C468 1.367 . S
C469 C471 1.433 . S
C470 C466 1.350 . S
C470 C467 1.463 . S
C470 N474 1.427 . S
C471 H461 0.929 . S
C471 C469 1.433 . S
C471 N474 1.384 . S
C472 H463 0.929 . S
C472 C464 1.378 . S
C472 C467 1.350 . S
C473 H460 0.929 . S
C473 C465 1.433 . S
C473 N475 1.384 . S
N474 C470 1.427 . S
N474 C471 1.384 . S
N475 C467 1.427 . S
N475 C473 1.384 . S
H476 C482 0.930 . S
H477 C486 0.930 . S
H478 C491 0.929 . S
H479 C489 0.929 . S
H480 C484 0.929 . S
H481 C490 0.929 . S
C482 H476 0.930 . S
C482 C483 1.367 . S
C482 C490 1.378 . S
C483 C482 1.367 . S
C483 C491 1.433 . S
C484 H480 0.929 . S
C484 C486 1.378 . S
C484 C488 1.350 . S
C485 C488 1.463 . S
C485 C490 1.350 . S
C485 N493 1.427 . S
C486 H477 0.930 . S
C486 C484 1.378 . S
C486 C487 1.367 . S
C487 C486 1.367 . S
C487 C489 1.433 . S
C488 C484 1.350 . S
C488 C485 1.463 . S
C488 N492 1.427 . S
C489 H479 0.929 . S
C489 C487 1.433 . S
C489 N492 1.384 . S
C490 H481 0.929 . S
C490 C482 1.378 . S
C490 C485 1.350 . S
C491 H478 0.929 . S
C491 C483 1.433 . S
C491 N493 1.384 . S
N492 C488 1.427 . S
N492 C489 1.384 . S
N493 C485 1.427 . S
N493 C491 1.384 . S
H494 C500 0.930 . S
H495 C504 0.930 . S
H496 C509 0.929 . S
H497 C507 0.929 . S
H498 C502 0.929 . S
H499 C508 0.929 . S
C500 H494 0.930 . S
C500 C501 1.367 . S
C500 C508 1.378 . S
C501 C500 1.367 . S
C501 C509 1.433 . S
C502 H498 0.929 . S
C502 C504 1.378 . S
C502 C506 1.350 . S
C503 C506 1.463 . S
C503 C508 1.350 . S
C503 N511 1.427 . S
C504 H495 0.930 . S
C504 C502 1.378 . S
C504 C505 1.367 . S
C505 C504 1.367 . S
C505 C507 1.433 . S
C506 C502 1.350 . S
C506 C503 1.463 . S
C506 N510 1.427 . S
C507 H497 0.929 . S
C507 C505 1.433 . S
C507 N510 1.384 . S
C508 H499 0.929 . S
C508 C500 1.378 . S
C508 C503 1.350 . S
C509 H496 0.929 . S
C509 C501 1.433 . S
C509 N511 1.384 . S
N510 C506 1.427 . S
N510 C507 1.384 . S
N511 C503 1.427 . S
N511 C509 1.384 . S
H512 C518 0.930 . S
H513 C522 0.930 . S
H514 C527 0.929 . S
H515 C525 0.929 1_545 S
H516 C520 0.929 . S
H517 C526 0.929 . S
C518 H512 0.930 . S
C518 C519 1.367 . S
C518 C526 1.378 . S
C519 C518 1.367 . S
C519 C527 1.433 . S
C520 H516 0.929 . S
C520 C522 1.378 . S
C520 C524 1.350 . S
C521 C524 1.463 . S
C521 C526 1.350 . S
C521 N529 1.427 . S
C522 H513 0.930 . S
C522 C520 1.378 . S
C522 C523 1.367 . S
C523 C522 1.367 . S
C523 C525 1.433 . S
C524 C520 1.350 . S
C524 C521 1.463 . S
C524 N528 1.427 . S
C525 H515 0.929 1_565 S
C525 C523 1.433 . S
C525 N528 1.384 . S
C526 H517 0.929 . S
C526 C518 1.378 . S
C526 C521 1.350 . S
C527 H514 0.929 . S
C527 C519 1.433 . S
C527 N529 1.384 . S
N528 C524 1.427 . S
N528 C525 1.384 . S
N529 C521 1.427 . S
N529 C527 1.384 . S
H530 C536 0.930 . S
H531 C540 0.930 . S
H532 C545 0.929 . S
H533 C543 0.929 . S
H534 C538 0.929 . S
H535 C544 0.929 . S
C536 H530 0.930 . S
C536 C537 1.367 . S
C536 C544 1.378 . S
C537 C536 1.367 . S
C537 C545 1.433 . S
C538 H534 0.929 . S
C538 C540 1.378 . S
C538 C542 1.350 . S
C539 C542 1.463 . S
C539 C544 1.350 . S
C539 N547 1.427 . S
C540 H531 0.930 . S
C540 C538 1.378 . S
C540 C541 1.367 . S
C541 C540 1.367 . S
C541 C543 1.433 . S
C542 C538 1.350 . S
C542 C539 1.463 . S
C542 N546 1.427 . S
C543 H533 0.929 . S
C543 C541 1.433 . S
C543 N546 1.384 . S
C544 H535 0.929 . S
C544 C536 1.378 . S
C544 C539 1.350 . S
C545 H532 0.929 . S
C545 C537 1.433 . S
C545 N547 1.384 . S
N546 C542 1.427 . S
N546 C543 1.384 . S
N547 C539 1.427 . S
N547 C545 1.384 . S
H548 C554 0.930 . S
H549 C558 0.930 . S
H550 C563 0.929 . S
H551 C561 0.929 . S
H552 C556 0.929 . S
H553 C562 0.929 . S
C554 H548 0.930 . S
C554 C555 1.367 . S
C554 C562 1.378 . S
C555 C554 1.367 . S
C555 C563 1.433 . S
C556 H552 0.929 . S
C556 C558 1.378 . S
C556 C560 1.350 . S
C557 C560 1.463 . S
C557 C562 1.350 . S
C557 N565 1.427 . S
C558 H549 0.930 . S
C558 C556 1.378 . S
C558 C559 1.367 . S
C559 C558 1.367 . S
C559 C561 1.433 . S
C560 C556 1.350 . S
C560 C557 1.463 . S
C560 N564 1.427 . S
C561 H551 0.929 . S
C561 C559 1.433 . S
C561 N564 1.384 . S
C562 H553 0.929 . S
C562 C554 1.378 . S
C562 C557 1.350 . S
C563 H550 0.929 . S
C563 C555 1.433 . S
C563 N565 1.384 . S
N564 C560 1.427 . S
N564 C561 1.384 . S
N565 C557 1.427 . S
N565 C563 1.384 . S
H566 C572 0.930 . S
H567 C576 0.933 . S
H568 C581 0.929 . S
H569 C579 0.929 . S
H570 C574 0.929 . S
H571 C580 0.929 . S
C572 H566 0.930 . S
C572 C573 1.367 . S
C572 C580 1.378 . S
C573 C572 1.367 . S
C573 C581 1.433 . S
C574 H570 0.929 . S
C574 C576 1.378 . S
C574 C578 1.350 . S
C575 C578 1.463 . S
C575 C580 1.350 . S
C575 N583 1.427 . S
C576 H567 0.933 . S
C576 C574 1.378 . S
C576 C577 1.367 . S
C577 C576 1.367 . S
C577 C579 1.433 . S
C578 C574 1.350 . S
C578 C575 1.463 . S
C578 N582 1.427 . S
C579 H569 0.929 . S
C579 C577 1.433 . S
C579 N582 1.384 . S
C580 H571 0.929 . S
C580 C572 1.378 . S
C580 C575 1.350 . S
C581 H568 0.929 . S
C581 C573 1.433 . S
C581 N583 1.384 . S
N582 C578 1.427 . S
N582 C579 1.384 . S
N583 C575 1.427 . S
N583 C581 1.384 . S
H584 C590 0.930 . S
H585 C594 0.930 . S
H586 C599 0.929 . S
H587 C597 0.929 . S
H588 C592 0.929 . S
H589 C598 0.929 . S
C590 H584 0.930 . S
C590 C591 1.367 . S
C590 C598 1.378 . S
C591 C590 1.367 . S
C591 C599 1.433 . S
C592 H588 0.929 . S
C592 C594 1.378 . S
C592 C596 1.350 . S
C593 C596 1.463 . S
C593 C598 1.350 . S
C593 N601 1.427 . S
C594 H585 0.930 . S
C594 C592 1.378 . S
C594 C595 1.367 . S
C595 C594 1.367 . S
C595 C597 1.433 . S
C596 C592 1.350 . S
C596 C593 1.463 . S
C596 N600 1.427 . S
C597 H587 0.929 . S
C597 C595 1.433 . S
C597 N600 1.384 . S
C598 H589 0.929 . S
C598 C590 1.378 . S
C598 C593 1.350 . S
C599 H586 0.929 . S
C599 C591 1.433 . S
C599 N601 1.384 . S
N600 C596 1.427 . S
N600 C597 1.384 . S
N601 C593 1.427 . S
N601 C599 1.384 . S
H602 C608 0.930 . S
H603 C612 0.930 . S
H604 C617 0.929 . S
H605 C615 0.929 . S
H606 C610 0.929 . S
H607 C616 0.929 . S
C608 H602 0.930 . S
C608 C609 1.367 . S
C608 C616 1.378 . S
C609 C608 1.367 . S
C609 C617 1.433 . S
C610 H606 0.929 . S
C610 C612 1.378 . S
C610 C614 1.350 . S
C611 C614 1.463 . S
C611 C616 1.350 . S
C611 N619 1.427 . S
C612 H603 0.930 . S
C612 C610 1.378 . S
C612 C613 1.367 . S
C613 C612 1.367 . S
C613 C615 1.433 . S
C614 C610 1.350 . S
C614 C611 1.463 . S
C614 N618 1.427 . S
C615 H605 0.929 . S
C615 C613 1.433 . S
C615 N618 1.384 . S
C616 H607 0.929 . S
C616 C608 1.378 . S
C616 C611 1.350 . S
C617 H604 0.929 . S
C617 C609 1.433 . S
C617 N619 1.384 . S
N618 C614 1.427 . S
N618 C615 1.384 . S
N619 C611 1.427 . S
N619 C617 1.384 . S
H620 C626 0.930 . S
H621 C630 0.930 . S
H622 C635 0.929 . S
H623 C633 0.929 . S
H624 C628 0.929 . S
H625 C634 0.929 . S
C626 H620 0.930 . S
C626 C627 1.367 . S
C626 C634 1.378 . S
C627 C626 1.367 . S
C627 C635 1.433 . S
C628 H624 0.929 . S
C628 C630 1.378 . S
C628 C632 1.350 . S
C629 C632 1.463 . S
C629 C634 1.350 . S
C629 N637 1.427 . S
C630 H621 0.930 . S
C630 C628 1.378 . S
C630 C631 1.367 . S
C631 C630 1.367 . S
C631 C633 1.433 . S
C632 C628 1.350 . S
C632 C629 1.463 . S
C632 N636 1.427 . S
C633 H623 0.929 . S
C633 C631 1.433 . S
C633 N636 1.384 . S
C634 H625 0.929 . S
C634 C626 1.378 . S
C634 C629 1.350 . S
C635 H622 0.929 . S
C635 C627 1.433 . S
C635 N637 1.384 . S
N636 C632 1.427 . S
N636 C633 1.384 . S
N637 C629 1.427 . S
N637 C635 1.384 . S
H638 C644 0.930 . S
H639 C648 0.930 . S
H640 C653 0.929 . S
H641 C651 0.929 . S
H642 C646 0.929 . S
H643 C652 0.929 . S
C644 H638 0.930 . S
C644 C645 1.367 . S
C644 C652 1.378 . S
C645 C644 1.367 . S
C645 C653 1.433 . S
C646 H642 0.929 . S
C646 C648 1.378 . S
C646 C650 1.350 . S
C647 C650 1.463 . S
C647 C652 1.350 . S
C647 N655 1.427 . S
C648 H639 0.930 . S
C648 C646 1.378 . S
C648 C649 1.367 . S
C649 C648 1.367 . S
C649 C651 1.433 . S
C650 C646 1.350 . S
C650 C647 1.463 . S
C650 N654 1.427 . S
C651 H641 0.929 . S
C651 C649 1.433 . S
C651 N654 1.384 . S
C652 H643 0.929 . S
C652 C644 1.378 . S
C652 C647 1.350 . S
C653 H640 0.929 . S
C653 C645 1.433 . S
C653 N655 1.384 . S
N654 C650 1.427 . S
N654 C651 1.384 . S
N655 C647 1.427 . S
N655 C653 1.384 . S
H656 C662 0.930 . S
H657 C666 0.930 1_545 S
H658 C671 0.929 . S
H659 C669 0.929 . S
H660 C664 0.929 . S
H661 C670 0.929 . S
C662 H656 0.930 . S
C662 C663 1.367 . S
C662 C670 1.378 . S
C663 C662 1.367 . S
C663 C671 1.433 . S
C664 H660 0.929 . S
C664 C666 1.378 . S
C664 C668 1.350 . S
C665 C668 1.463 . S
C665 C670 1.350 . S
C665 N673 1.427 . S
C666 H657 0.930 1_565 S
C666 C664 1.378 . S
C666 C667 1.367 . S
C667 C666 1.367 . S
C667 C669 1.433 . S
C668 C664 1.350 . S
C668 C665 1.463 . S
C668 N672 1.427 . S
C669 H659 0.929 . S
C669 C667 1.433 . S
C669 N672 1.384 . S
C670 H661 0.929 . S
C670 C662 1.378 . S
C670 C665 1.350 . S
C671 H658 0.929 . S
C671 C663 1.433 . S
C671 N673 1.384 . S
N672 C668 1.427 . S
N672 C669 1.384 . S
N673 C665 1.427 . S
N673 C671 1.384 . S
H674 C680 0.930 . S
H675 C684 0.930 . S
H676 C689 0.929 . S
H677 C687 0.929 . S
H678 C682 0.929 . S
H679 C688 0.929 . S
C680 H674 0.930 . S
C680 C681 1.367 . S
C680 C688 1.378 . S
C681 C680 1.367 . S
C681 C689 1.433 . S
C682 H678 0.929 . S
C682 C684 1.378 . S
C682 C686 1.350 . S
C683 C686 1.463 . S
C683 C688 1.350 . S
C683 N691 1.427 . S
C684 H675 0.930 . S
C684 C682 1.378 . S
C684 C685 1.367 . S
C685 C684 1.367 . S
C685 C687 1.433 . S
C686 C682 1.350 . S
C686 C683 1.463 . S
C686 N690 1.427 . S
C687 H677 0.929 . S
C687 C685 1.433 . S
C687 N690 1.384 . S
C688 H679 0.929 . S
C688 C680 1.378 . S
C688 C683 1.350 . S
C689 H676 0.929 . S
C689 C681 1.433 . S
C689 N691 1.384 . S
N690 C686 1.427 . S
N690 C687 1.384 . S
N691 C683 1.427 . S
N691 C689 1.384 . S
H692 C698 0.930 . S
H693 C702 0.930 . S
H694 C707 0.929 . S
H695 C705 0.929 . S
H696 C700 0.929 . S
H697 C706 0.929 . S
C698 H692 0.930 . S
C698 C699 1.367 . S
C698 C706 1.378 . S
C699 C698 1.367 . S
C699 C707 1.433 . S
C700 H696 0.929 . S
C700 C702 1.378 . S
C700 C704 1.350 . S
C701 C704 1.463 . S
C701 C706 1.350 . S
C701 N709 1.427 . S
C702 H693 0.930 . S
C702 C700 1.378 . S
C702 C703 1.367 . S
C703 C702 1.367 . S
C703 C705 1.433 . S
C704 C700 1.350 . S
C704 C701 1.463 . S
C704 N708 1.427 . S
C705 H695 0.929 . S
C705 C703 1.433 . S
C705 N708 1.384 . S
C706 H697 0.929 . S
C706 C698 1.378 . S
C706 C701 1.350 . S
C707 H694 0.929 . S
C707 C699 1.433 . S
C707 N709 1.384 . S
N708 C704 1.427 . S
N708 C705 1.384 . S
N709 C701 1.427 . S
N709 C707 1.384 . S
H710 C716 0.930 . S
H711 C720 0.930 . S
H712 C725 0.929 . S
H713 C723 0.929 1_545 S
H714 C718 0.929 . S
H715 C724 0.929 . S
C716 H710 0.930 . S
C716 C717 1.367 . S
C716 C724 1.378 . S
C717 C716 1.367 . S
C717 C725 1.433 . S
C718 H714 0.929 . S
C718 C720 1.378 . S
C718 C722 1.350 . S
C719 C722 1.463 . S
C719 C724 1.350 . S
C719 N727 1.427 . S
C720 H711 0.930 . S
C720 C718 1.378 . S
C720 C721 1.367 . S
C721 C720 1.367 . S
C721 C723 1.433 . S
C722 C718 1.350 . S
C722 C719 1.463 . S
C722 N726 1.427 . S
C723 H713 0.929 1_565 S
C723 C721 1.433 . S
C723 N726 1.384 . S
C724 H715 0.929 . S
C724 C716 1.378 . S
C724 C719 1.350 . S
C725 H712 0.929 . S
C725 C717 1.433 . S
C725 N727 1.384 . S
N726 C722 1.427 . S
N726 C723 1.384 . S
N727 C719 1.427 . S
N727 C725 1.384 . S
H728 C734 0.930 . S
H729 C738 0.930 . S
H730 C743 0.929 . S
H731 C741 0.929 1_565 S
H732 C736 0.929 . S
H733 C742 0.929 . S
C734 H728 0.930 . S
C734 C735 1.367 . S
C734 C742 1.378 . S
C735 C734 1.367 . S
C735 C743 1.433 . S
C736 H732 0.929 . S
C736 C738 1.378 . S
C736 C740 1.350 . S
C737 C740 1.463 . S
C737 C742 1.350 . S
C737 N745 1.427 . S
C738 H729 0.930 . S
C738 C736 1.378 . S
C738 C739 1.367 . S
C739 C738 1.367 . S
C739 C741 1.433 . S
C740 C736 1.350 . S
C740 C737 1.463 . S
C740 N744 1.427 . S
C741 H731 0.929 1_545 S
C741 C739 1.433 . S
C741 N744 1.384 . S
C742 H733 0.929 . S
C742 C734 1.378 . S
C742 C737 1.350 . S
C743 H730 0.929 . S
C743 C735 1.433 . S
C743 N745 1.384 . S
N744 C740 1.427 . S
N744 C741 1.384 . S
N745 C737 1.427 . S
N745 C743 1.384 . S
H746 C752 0.930 . S
H747 C756 0.930 . S
H748 C761 0.929 . S
H749 C759 0.929 . S
H750 C754 0.929 . S
H751 C760 0.929 . S
C752 H746 0.930 . S
C752 C753 1.367 . S
C752 C760 1.378 . S
C753 C752 1.367 . S
C753 C761 1.433 . S
C754 H750 0.929 . S
C754 C756 1.378 . S
C754 C758 1.350 . S
C755 C758 1.463 . S
C755 C760 1.350 . S
C755 N763 1.427 . S
C756 H747 0.930 . S
C756 C754 1.378 . S
C756 C757 1.367 . S
C757 C756 1.367 . S
C757 C759 1.433 . S
C758 C754 1.350 . S
C758 C755 1.463 . S
C758 N762 1.427 . S
C759 H749 0.929 . S
C759 C757 1.433 . S
C759 N762 1.384 . S
C760 H751 0.929 . S
C760 C752 1.378 . S
C760 C755 1.350 . S
C761 H748 0.929 . S
C761 C753 1.433 . S
C761 N763 1.384 . S
N762 C758 1.427 . S
N762 C759 1.384 . S
N763 C755 1.427 . S
N763 C761 1.384 . S
H764 C770 0.930 . S
H765 C774 0.930 . S
H766 C779 0.929 . S
H767 C777 0.929 . S
H768 C772 0.929 . S
H769 C778 0.929 . S
C770 H764 0.930 . S
C770 C771 1.367 . S
C770 C778 1.378 . S
C771 C770 1.367 . S
C771 C779 1.433 . S
C772 H768 0.929 . S
C772 C774 1.378 . S
C772 C776 1.350 . S
C773 C776 1.463 . S
C773 C778 1.350 . S
C773 N781 1.427 . S
C774 H765 0.930 . S
C774 C772 1.378 . S
C774 C775 1.367 . S
C775 C774 1.367 . S
C775 C777 1.433 . S
C776 C772 1.350 . S
C776 C773 1.463 . S
C776 N780 1.427 . S
C777 H767 0.929 . S
C777 C775 1.433 . S
C777 N780 1.384 . S
C778 H769 0.929 . S
C778 C770 1.378 . S
C778 C773 1.350 . S
C779 H766 0.929 . S
C779 C771 1.433 . S
C779 N781 1.384 . S
N780 C776 1.427 . S
N780 C777 1.384 . S
N781 C773 1.427 . S
N781 C779 1.384 . S
H782 C788 0.930 . S
H783 C792 0.930 . S
H784 C797 0.929 . S
H785 C795 0.929 . S
H786 C790 0.929 . S
H787 C796 0.929 . S
C788 H782 0.930 . S
C788 C789 1.367 . S
C788 C796 1.378 . S
C789 C788 1.367 . S
C789 C797 1.433 . S
C790 H786 0.929 . S
C790 C792 1.378 . S
C790 C794 1.350 . S
C791 C794 1.463 . S
C791 C796 1.350 . S
C791 N799 1.427 . S
C792 H783 0.930 . S
C792 C790 1.378 . S
C792 C793 1.367 . S
C793 C792 1.367 . S
C793 C795 1.433 . S
C794 C790 1.350 . S
C794 C791 1.463 . S
C794 N798 1.427 . S
C795 H785 0.929 . S
C795 C793 1.433 . S
C795 N798 1.384 . S
C796 H787 0.929 . S
C796 C788 1.378 . S
C796 C791 1.350 . S
C797 H784 0.929 . S
C797 C789 1.433 . S
C797 N799 1.384 . S
N798 C794 1.427 . S
N798 C795 1.384 . S
N799 C791 1.427 . S
N799 C797 1.384 . S
C231 C203 1.514 . S
C235 C7 1.514 . S
C249 C39 1.506 . S
C253 C11 1.506 . S
C267 C165 1.504 . S
C271 C25 1.504 . S
C285 C21 1.511 . S
C289 C105 1.511 . S
C303 C35 1.515 . S
C307 C175 1.515 . S
C321 C137 1.507 . S
C325 C53 1.507 . S
C339 C49 1.509 . S
C343 C77 1.509 . S
C357 C147 1.512 . S
C361 C63 1.512 . S
C375 C67 1.506 . S
C379 C95 1.506 . S
C393 C221 1.503 . S
C397 C81 1.503 . S
C411 C119 1.514 . S
C415 C91 1.514 . S
C429 C193 1.502 . S
C433 C109 1.502 . S
C447 C123 1.505 . S
C451 C151 1.505 . S
C465 C217 1.509 . S
C469 C133 1.509 . S
C483 C161 1.511 . S
C487 C189 1.511 . S
C501 C207 1.506 . S
C505 C179 1.506 . S
C519 C78 1.181 . S
C523 C13 1.162 1_565 S
C537 C8 1.175 . S
C541 C83 1.154 . S
C555 C22 1.174 . S
C559 C69 1.153 . S
C573 C64 1.171 . S
C577 C27 1.158 1_565 S
C591 C106 1.165 . S
C595 C41 1.145 1_545 S
C609 C111 1.161 . S
C613 C36 1.181 . S
C627 C97 1.154 . S
C631 C50 1.168 . S
C645 C55 1.163 1_545 S
C649 C92 1.176 . S
C663 C190 1.166 . S
C667 C125 1.151 1_565 S
C681 C120 1.168 . S
C685 C195 1.154 . S
C699 C134 1.167 . S
C703 C181 1.152 . S
C717 C176 1.181 . S
C721 C139 1.162 1_565 S
C735 C218 1.180 . S
C739 C153 1.160 1_545 S
C753 C223 1.167 . S
C757 C148 1.183 . S
C771 C162 1.169 . S
C775 C209 1.148 . S
C789 C204 1.181 . S
C793 C167 1.167 1_545 S
