# Generated by pormake.
# Topology snv-x, (7)-cn, num edge types: 1
# Building blocks:
#     Node 0, Type 0, BuildingBlock: NUHQUE_clean_sbu_2, # of connection points: 7
#     Node 1, Type 0, BuildingBlock: NUHQUE_clean_sbu_2, # of connection points: 7
#     Node 2, Type 0, BuildingBlock: NUHQUE_clean_sbu_2, # of connection points: 7
#     Node 3, Type 0, BuildingBlock: NUHQUE_clean_sbu_2, # of connection points: 7
#     Node 4, Type 0, BuildingBlock: NUHQUE_clean_sbu_2, # of connection points: 7
#     Node 5, Type 0, BuildingBlock: NUHQUE_clean_sbu_2, # of connection points: 7
#     Node 6, Type 0, BuildingBlock: NUHQUE_clean_sbu_2, # of connection points: 7
#     Node 7, Type 0, BuildingBlock: NUHQUE_clean_sbu_2, # of connection points: 7
#     Node 8, Type 0, BuildingBlock: NUHQUE_clean_sbu_2, # of connection points: 7
#     Node 9, Type 0, BuildingBlock: NUHQUE_clean_sbu_2, # of connection points: 7
#     Node 10, Type 0, BuildingBlock: NUHQUE_clean_sbu_2, # of connection points: 7
#     Node 11, Type 0, BuildingBlock: NUHQUE_clean_sbu_2, # of connection points: 7
#     Node 12, Type 0, BuildingBlock: NUHQUE_clean_sbu_2, # of connection points: 7
#     Node 13, Type 0, BuildingBlock: NUHQUE_clean_sbu_2, # of connection points: 7
#     Node 14, Type 0, BuildingBlock: NUHQUE_clean_sbu_2, # of connection points: 7
#     Node 15, Type 0, BuildingBlock: NUHQUE_clean_sbu_2, # of connection points: 7
#     Node 16, Type 0, BuildingBlock: NUHQUE_clean_sbu_2, # of connection points: 7
#     Node 17, Type 0, BuildingBlock: NUHQUE_clean_sbu_2, # of connection points: 7
#     Node 18, Type 0, BuildingBlock: NUHQUE_clean_sbu_2, # of connection points: 7
#     Node 19, Type 0, BuildingBlock: NUHQUE_clean_sbu_2, # of connection points: 7
#     Node 20, Type 0, BuildingBlock: NUHQUE_clean_sbu_2, # of connection points: 7
#     Node 21, Type 0, BuildingBlock: NUHQUE_clean_sbu_2, # of connection points: 7
#     Node 22, Type 0, BuildingBlock: NUHQUE_clean_sbu_2, # of connection points: 7
#     Node 23, Type 0, BuildingBlock: NUHQUE_clean_sbu_2, # of connection points: 7
#     Edge 24, Type (0, 0), None
#     Edge 25, Type (0, 0), None
#     Edge 26, Type (0, 0), None
#     Edge 27, Type (0, 0), None
#     Edge 28, Type (0, 0), None
#     Edge 29, Type (0, 0), None
#     Edge 30, Type (0, 0), None
#     Edge 31, Type (0, 0), None
#     Edge 32, Type (0, 0), None
#     Edge 33, Type (0, 0), None
#     Edge 34, Type (0, 0), None
#     Edge 35, Type (0, 0), None
#     Edge 36, Type (0, 0), None
#     Edge 37, Type (0, 0), None
#     Edge 38, Type (0, 0), None
#     Edge 39, Type (0, 0), None
#     Edge 40, Type (0, 0), None
#     Edge 41, Type (0, 0), None
#     Edge 42, Type (0, 0), None
#     Edge 43, Type (0, 0), None
#     Edge 44, Type (0, 0), None
#     Edge 45, Type (0, 0), None
#     Edge 46, Type (0, 0), None
#     Edge 47, Type (0, 0), None
#     Edge 48, Type (0, 0), None
#     Edge 49, Type (0, 0), None
#     Edge 50, Type (0, 0), None
#     Edge 51, Type (0, 0), None
#     Edge 52, Type (0, 0), None
#     Edge 53, Type (0, 0), None
#     Edge 54, Type (0, 0), None
#     Edge 55, Type (0, 0), None
#     Edge 56, Type (0, 0), None
#     Edge 57, Type (0, 0), None
#     Edge 58, Type (0, 0), None
#     Edge 59, Type (0, 0), None
#     Edge 60, Type (0, 0), None
#     Edge 61, Type (0, 0), None
#     Edge 62, Type (0, 0), None
#     Edge 63, Type (0, 0), None
#     Edge 64, Type (0, 0), None
#     Edge 65, Type (0, 0), None
#     Edge 66, Type (0, 0), None
#     Edge 67, Type (0, 0), None
#     Edge 68, Type (0, 0), None
#     Edge 69, Type (0, 0), None
#     Edge 70, Type (0, 0), None
#     Edge 71, Type (0, 0), None
#     Edge 72, Type (0, 0), None
#     Edge 73, Type (0, 0), None
#     Edge 74, Type (0, 0), None
#     Edge 75, Type (0, 0), None
#     Edge 76, Type (0, 0), None
#     Edge 77, Type (0, 0), None
#     Edge 78, Type (0, 0), None
#     Edge 79, Type (0, 0), None
#     Edge 80, Type (0, 0), None
#     Edge 81, Type (0, 0), None
#     Edge 82, Type (0, 0), None
#     Edge 83, Type (0, 0), None
#     Edge 84, Type (0, 0), None
#     Edge 85, Type (0, 0), None
#     Edge 86, Type (0, 0), None
#     Edge 87, Type (0, 0), None
#     Edge 88, Type (0, 0), None
#     Edge 89, Type (0, 0), None
#     Edge 90, Type (0, 0), None
#     Edge 91, Type (0, 0), None
#     Edge 92, Type (0, 0), None
#     Edge 93, Type (0, 0), None
#     Edge 94, Type (0, 0), None
#     Edge 95, Type (0, 0), None
#     Edge 96, Type (0, 0), None
#     Edge 97, Type (0, 0), None
#     Edge 98, Type (0, 0), None
#     Edge 99, Type (0, 0), None
#     Edge 100, Type (0, 0), None
#     Edge 101, Type (0, 0), None
#     Edge 102, Type (0, 0), None
#     Edge 103, Type (0, 0), None
#     Edge 104, Type (0, 0), None
#     Edge 105, Type (0, 0), None
#     Edge 106, Type (0, 0), None
#     Edge 107, Type (0, 0), None
# Relax obj value: 0.259
# Max RMSD: 0.253
# Mean RMSD: 0.253
data_MOF--net-snv-x--node1-NUHQUE_clean_sbu_2--edge1-none
_symmetry_space_group_name_H-M    P1
_symmetry_Int_Tables_number       1
_symmetry_cell_setting            triclinic
loop_
_symmetry_equiv_pos_as_xyz
'x, y, z'
_cell_length_a     26.685182
_cell_length_b     26.741868
_cell_length_c     26.727989
_cell_angle_alpha  90.002787
_cell_angle_beta   89.985682
_cell_angle_gamma 90.019101
loop_
_atom_site_label
_atom_site_type_symbol
_atom_site_fract_x
_atom_site_fract_y
_atom_site_fract_z
_atom_type_partial_charge
O0 O 0.22122 0.52485 0.28144 0.0
Tb1 Tb 0.17614 0.50107 0.34891 0.0
Eu2 Eu 0.21784 0.43455 0.45458 0.0
C3 C 0.23083 0.5734 0.27117 0.0
O4 O 0.20985 0.60792 0.29911 0.0
C5 C 0.24199 0.54771 0.43336 0.0
O6 O 0.24201 0.4059 0.5299 0.0
C7 C 0.25369 0.39091 0.37707 0.0
C8 C 0.25939 0.43685 0.56395 0.0
O9 O 0.27092 0.48283 0.5514 0.0
C10 C 0.11069 0.41568 0.41168 0.0
C11 C 0.23095 0.35626 0.34064 0.0
C12 C 0.23628 0.36661 0.28941 0.0
C13 C 0.23088 0.32754 0.25387 0.0
C14 C 0.20414 0.28516 0.27115 0.0
C15 C 0.21567 0.26964 0.32034 0.0
C16 C 0.21439 0.3086 0.35569 0.0
O17 O 0.24028 0.53551 0.38602 0.0
O18 O 0.23072 0.51561 0.46827 0.0
O19 O 0.11952 0.54302 0.31024 0.0
O20 O 0.12955 0.55267 0.39001 0.0
C21 C 0.10415 0.56552 0.35049 0.0
O22 O 0.13653 0.42024 0.45304 0.0
O23 O 0.12904 0.43187 0.36722 0.0
O24 O 0.26142 0.37397 0.42269 0.0
O25 O 0.23728 0.43697 0.37564 0.0
H26 H 0.25254 0.40224 0.27918 0.0
H27 H 0.19256 0.25721 0.24434 0.0
H28 H 0.21275 0.2997 0.39517 0.0
O29 O 0.63986 0.22074 0.27609 0.0
Tb30 Tb 0.66431 0.17672 0.34386 0.0
Eu31 Eu 0.72644 0.21595 0.45303 0.0
C32 C 0.59114 0.2305 0.26638 0.0
O33 O 0.55675 0.20943 0.29446 0.0
C34 C 0.61685 0.24844 0.42354 0.0
O35 O 0.75146 0.23649 0.53076 0.0
C36 C 0.77801 0.25218 0.3806 0.0
C37 C 0.71796 0.24262 0.5663 0.0
O38 O 0.67013 0.24116 0.55521 0.0
C39 C 0.74759 0.11118 0.40713 0.0
C40 C 0.81386 0.23016 0.34472 0.0
C41 C 0.80272 0.2328 0.29339 0.0
C42 C 0.84191 0.22952 0.25776 0.0
C43 C 0.88583 0.2055 0.27515 0.0
C44 C 0.90147 0.21928 0.32373 0.0
C45 C 0.86292 0.21797 0.35976 0.0
O46 O 0.63158 0.24368 0.37712 0.0
O47 O 0.64587 0.23636 0.46087 0.0
O48 O 0.6234 0.11904 0.30582 0.0
O49 O 0.61285 0.12996 0.38538 0.0
C50 C 0.60106 0.10352 0.34613 0.0
O51 O 0.73771 0.13432 0.44917 0.0
O52 O 0.7344 0.13148 0.36261 0.0
O53 O 0.79227 0.25619 0.42759 0.0
O54 O 0.73111 0.23877 0.37522 0.0
H55 H 0.76587 0.2459 0.28279 0.0
H56 H 0.91396 0.19456 0.24822 0.0
H57 H 0.87226 0.2187 0.39915 0.0
O58 O 0.9463 0.64103 0.28221 0.0
Tb59 Tb 0.99181 0.66491 0.34937 0.0
Eu60 Eu 0.95041 0.73246 0.45486 0.0
C61 C 0.93672 0.59248 0.2719 0.0
O62 O 0.95781 0.55795 0.29972 0.0
C63 C 0.92785 0.61871 0.43523 0.0
O64 O 0.92571 0.76118 0.53 0.0
C65 C 0.91402 0.7748 0.37694 0.0
C66 C 0.90738 0.73038 0.56368 0.0
O67 O 0.89496 0.68476 0.55068 0.0
C68 C 1.0574 0.75102 0.41131 0.0
C69 C 0.93673 0.80913 0.34019 0.0
C70 C 0.93089 0.79872 0.28903 0.0
C71 C 0.93657 0.83763 0.25333 0.0
C72 C 0.96373 0.87985 0.27037 0.0
C73 C 0.95262 0.89554 0.31961 0.0
C74 C 0.95397 0.85662 0.35499 0.0
O75 O 0.92839 0.63054 0.38777 0.0
O76 O 0.93931 0.65133 0.46959 0.0
O77 O 1.04817 0.62285 0.31039 0.0
O78 O 1.0389 0.61361 0.39027 0.0
C79 C 1.06397 0.6006 0.35059 0.0
O80 O 1.03156 0.74747 0.45279 0.0
O81 O 1.03895 0.73422 0.36711 0.0
O82 O 0.90622 0.79225 0.42236 0.0
O83 O 0.93061 0.72879 0.37605 0.0
H84 H 0.91414 0.76325 0.27904 0.0
H85 H 0.97535 0.90768 0.24345 0.0
H86 H 0.95606 0.8656 0.39444 0.0
O87 O 0.52823 0.94493 0.27605 0.0
Tb88 Tb 0.50396 0.98889 0.34392 0.0
Eu89 Eu 0.44219 0.94969 0.45318 0.0
C90 C 0.57692 0.93515 0.26622 0.0
O91 O 0.61137 0.95617 0.29425 0.0
C92 C 0.5517 0.91707 0.42339 0.0
O93 O 0.41741 0.92903 0.53096 0.0
C94 C 0.39046 0.91358 0.38083 0.0
C95 C 0.45103 0.92381 0.56651 0.0
O96 O 0.49882 0.92639 0.5554 0.0
C97 C 0.42086 1.05441 0.40737 0.0
C98 C 0.35481 0.9358 0.3449 0.0
C99 C 0.3659 0.93284 0.29357 0.0
C100 C 0.32673 0.93648 0.25794 0.0
C101 C 0.28302 0.9609 0.27534 0.0
C102 C 0.26733 0.94736 0.32398 0.0
C103 C 0.30591 0.9486 0.35994 0.0
O104 O 0.53696 0.92198 0.377 0.0
O105 O 0.52272 0.92908 0.46081 0.0
O106 O 0.54478 1.04662 0.30586 0.0
O107 O 0.55542 1.03568 0.3854 0.0
C108 C 0.56715 1.06214 0.34615 0.0
O109 O 0.43101 1.03134 0.44937 0.0
O110 O 0.43387 1.03406 0.36282 0.0
O111 O 0.37613 0.90979 0.42782 0.0
O112 O 0.43746 0.92664 0.37543 0.0
H113 H 0.40259 0.91929 0.28299 0.0
H114 H 0.25494 0.97201 0.24845 0.0
H115 H 0.29656 0.94814 0.39934 0.0
O116 O 0.22055 0.64095 0.88596 0.0
Tb117 Tb 0.17573 0.6649 0.81843 0.0
Eu118 Eu 0.21763 0.73141 0.71308 0.0
C119 C 0.23003 0.59236 0.89617 0.0
O120 O 0.20908 0.55791 0.86812 0.0
C121 C 0.24181 0.61833 0.7342 0.0
O122 O 0.24181 0.76012 0.63778 0.0
C123 C 0.25346 0.77496 0.79065 0.0
C124 C 0.25911 0.72918 0.60368 0.0
O125 O 0.27069 0.68322 0.6162 0.0
C126 C 0.11032 0.75034 0.75564 0.0
C127 C 0.23089 0.81004 0.82676 0.0
C128 C 0.23665 0.80044 0.87808 0.0
C129 C 0.23157 0.84004 0.91309 0.0
C130 C 0.20471 0.88216 0.89543 0.0
C131 C 0.21577 0.89693 0.84589 0.0
C132 C 0.21413 0.85743 0.81116 0.0
O133 O 0.24005 0.63061 0.78152 0.0
O134 O 0.2305 0.65038 0.69928 0.0
O135 O 0.11913 0.62283 0.85697 0.0
O136 O 0.1294 0.61317 0.7772 0.0
C137 C 0.10397 0.60024 0.81669 0.0
O138 O 0.13635 0.74596 0.71436 0.0
O139 O 0.1285 0.73398 0.8001 0.0
O140 O 0.26174 0.7916 0.74501 0.0
O141 O 0.23642 0.72914 0.79216 0.0
H142 H 0.25305 0.76499 0.88868 0.0
H143 H 0.19345 0.91052 0.92195 0.0
H144 H 0.21212 0.86573 0.77156 0.0
O145 O 0.52887 0.22189 0.88871 0.0
Tb146 Tb 0.50456 0.17733 0.82117 0.0
Eu147 Eu 0.44226 0.2163 0.71159 0.0
C148 C 0.57753 0.23204 0.89831 0.0
O149 O 0.61201 0.21106 0.87028 0.0
C150 C 0.55201 0.24863 0.74102 0.0
O151 O 0.4173 0.23701 0.63387 0.0
C152 C 0.3907 0.25249 0.78402 0.0
C153 C 0.4508 0.24323 0.59834 0.0
O154 O 0.49863 0.24171 0.60942 0.0
C155 C 0.42127 0.11172 0.75798 0.0
C156 C 0.35547 0.23016 0.82034 0.0
C157 C 0.36738 0.23249 0.87152 0.0
C158 C 0.32878 0.22862 0.90774 0.0
C159 C 0.28468 0.20456 0.8908 0.0
C160 C 0.26825 0.21869 0.84259 0.0
C161 C 0.30624 0.21783 0.80597 0.0
O162 O 0.53738 0.24404 0.78748 0.0
O163 O 0.52288 0.23656 0.70374 0.0
O164 O 0.54527 0.11963 0.85946 0.0
O165 O 0.5558 0.13014 0.77988 0.0
C166 C 0.56745 0.10375 0.8192 0.0
O167 O 0.43125 0.13465 0.71584 0.0
O168 O 0.43433 0.13225 0.80244 0.0
O169 O 0.37604 0.25581 0.73711 0.0
O170 O 0.43787 0.23994 0.78917 0.0
H171 H 0.40432 0.24569 0.88166 0.0
H172 H 0.25699 0.19322 0.91803 0.0
H173 H 0.29627 0.21882 0.76674 0.0
O174 O 0.9469 0.52441 0.88534 0.0
Tb175 Tb 0.99216 0.50033 0.8181 0.0
Eu176 Eu 0.95059 0.43267 0.71298 0.0
C177 C 0.93744 0.573 0.89557 0.0
O178 O 0.9585 0.60745 0.8676 0.0
C179 C 0.92803 0.54636 0.73246 0.0
O180 O 0.92596 0.40387 0.63787 0.0
C181 C 0.91418 0.39044 0.791 0.0
C182 C 0.90772 0.43467 0.60414 0.0
O183 O 0.89519 0.48026 0.61713 0.0
C184 C 1.05772 0.41415 0.75616 0.0
C185 C 0.93667 0.35561 0.82737 0.0
C186 C 0.9304 0.3652 0.87863 0.0
C187 C 0.93567 0.32571 0.91375 0.0
C188 C 0.96288 0.28371 0.89628 0.0
C189 C 0.95228 0.26887 0.84667 0.0
C190 C 0.95405 0.30837 0.81196 0.0
O191 O 0.92854 0.53445 0.77989 0.0
O192 O 0.93955 0.51377 0.69811 0.0
O193 O 1.04847 0.54256 0.85688 0.0
O194 O 1.03898 0.55175 0.777 0.0
C195 C 1.06406 0.56488 0.81662 0.0
O196 O 1.0317 0.41743 0.71479 0.0
O197 O 1.03944 0.43114 0.80036 0.0
O198 O 0.90578 0.37333 0.74555 0.0
O199 O 0.93149 0.43618 0.79198 0.0
H200 H 0.91357 0.40052 0.88904 0.0
H201 H 0.97408 0.25541 0.92288 0.0
H202 H 0.95653 0.30006 0.77238 0.0
O203 O 0.6394 0.94394 0.88869 0.0
Tb204 Tb 0.66385 0.98844 0.82116 0.0
Eu205 Eu 0.72619 0.94943 0.71149 0.0
C206 C 0.59071 0.93387 0.89827 0.0
O207 O 0.55629 0.95493 0.87024 0.0
C208 C 0.61654 0.91693 0.74115 0.0
O209 O 0.75096 0.92875 0.6337 0.0
C210 C 0.77801 0.91319 0.7837 0.0
C211 C 0.71737 0.923 0.5982 0.0
O212 O 0.66957 0.92516 0.60932 0.0
C213 C 0.74708 1.05404 0.75788 0.0
C214 C 0.81338 0.93535 0.81999 0.0
C215 C 0.80129 0.93346 0.87116 0.0
C216 C 0.83985 0.93699 0.90742 0.0
C217 C 0.8842 0.9606 0.89051 0.0
C218 C 0.90068 0.94608 0.84242 0.0
C219 C 0.86281 0.94696 0.80567 0.0
O220 O 0.63128 0.92156 0.78757 0.0
O221 O 0.64561 0.92896 0.7038 0.0
O222 O 0.62313 1.04615 0.85944 0.0
O223 O 0.61253 1.03553 0.77988 0.0
C224 C 0.6009 1.06196 0.81919 0.0
O225 O 0.73707 1.0311 0.71576 0.0
O226 O 0.73406 1.03353 0.80236 0.0
O227 O 0.79254 0.90999 0.73673 0.0
O228 O 0.73085 0.92574 0.78904 0.0
H229 H 0.76417 0.92077 0.88131 0.0
H230 H 0.91187 0.97184 0.91778 0.0
H231 H 0.87288 0.94557 0.76648 0.0
O232 O 0.28254 0.22034 0.52469 0.0
Tb233 Tb 0.34966 0.1749 0.50045 0.0
Eu234 Eu 0.45516 0.21639 0.43213 0.0
C235 C 0.27241 0.22982 0.57332 0.0
O236 O 0.3004 0.20872 0.60774 0.0
C237 C 0.43596 0.2384 0.54606 0.0
O238 O 0.53048 0.24063 0.40317 0.0
C239 C 0.37714 0.25306 0.38994 0.0
C240 C 0.56426 0.25901 0.43389 0.0
O241 O 0.55125 0.27174 0.47946 0.0
C242 C 0.41157 0.10942 0.41406 0.0
C243 C 0.3405 0.23113 0.35493 0.0
C244 C 0.28921 0.23657 0.36534 0.0
C245 C 0.25363 0.23177 0.32616 0.0
C246 C 0.27074 0.20537 0.28353 0.0
C247 C 0.32006 0.21676 0.26805 0.0
C248 C 0.3555 0.21517 0.30702 0.0
O249 O 0.38846 0.23835 0.5341 0.0
O250 O 0.47028 0.22712 0.5133 0.0
O251 O 0.31073 0.11878 0.54283 0.0
O252 O 0.39072 0.12827 0.55201 0.0
C253 C 0.35103 0.10326 0.5652 0.0
O254 O 0.45302 0.13545 0.41699 0.0
O255 O 0.36734 0.12758 0.43127 0.0
O256 O 0.42271 0.26133 0.37289 0.0
O257 O 0.37606 0.23551 0.43562 0.0
H258 H 0.27902 0.25246 0.40115 0.0
H259 H 0.24377 0.19423 0.25552 0.0
H260 H 0.39504 0.21347 0.29811 0.0
O261 O 0.94548 0.27692 0.52768 0.0
Tb262 Tb 0.99 0.34463 0.50374 0.0
Eu263 Eu 0.95031 0.45365 0.44205 0.0
C264 C 0.93532 0.26713 0.57624 0.0
O265 O 0.9563 0.29506 0.61075 0.0
C266 C 0.91826 0.42424 0.55165 0.0
O267 O 0.92917 0.53105 0.41674 0.0
C268 C 0.91472 0.38073 0.39087 0.0
C269 C 0.92218 0.56655 0.45003 0.0
O270 O 0.92267 0.55553 0.49782 0.0
C271 C 1.05557 0.40854 0.42088 0.0
C272 C 0.93749 0.34477 0.35565 0.0
C273 C 0.93478 0.29352 0.36696 0.0
C274 C 0.93908 0.25773 0.32809 0.0
C275 C 0.96366 0.27504 0.28447 0.0
C276 C 0.94994 0.32351 0.26851 0.0
C277 C 0.95071 0.35964 0.30688 0.0
O278 O 0.9232 0.37782 0.53713 0.0
O279 O 0.93011 0.46155 0.52253 0.0
O280 O 1.04782 0.30633 0.54432 0.0
O281 O 1.03701 0.38581 0.55517 0.0
C282 C 1.0635 0.34653 0.56672 0.0
O283 O 1.03215 0.45037 0.43092 0.0
O284 O 1.03545 0.36388 0.43388 0.0
O285 O 0.91061 0.42755 0.37622 0.0
O286 O 0.92762 0.37578 0.43788 0.0
H287 H 0.92095 0.28307 0.40354 0.0
H288 H 0.97512 0.24809 0.25661 0.0
H289 H 0.95012 0.39897 0.29736 0.0
O290 O 0.88581 0.9453 0.52472 0.0
Tb291 Tb 0.81872 0.99072 0.50038 0.0
Eu292 Eu 0.71332 0.94919 0.43191 0.0
C293 C 0.89592 0.93588 0.57337 0.0
O294 O 0.8679 0.95699 0.60776 0.0
C295 C 0.73226 0.92748 0.54589 0.0
O296 O 0.63804 0.92488 0.40293 0.0
C297 C 0.79144 0.91245 0.38992 0.0
C298 C 0.60429 0.90641 0.43364 0.0
O299 O 0.61733 0.89358 0.47916 0.0
C300 C 0.75691 1.05618 0.41384 0.0
C301 C 0.828 0.93432 0.35478 0.0
C302 C 0.87931 0.92872 0.36494 0.0
C303 C 0.91475 0.93347 0.32561 0.0
C304 C 0.89754 0.95991 0.28306 0.0
C305 C 0.84811 0.94871 0.26782 0.0
C306 C 0.81285 0.9504 0.30697 0.0
O307 O 0.77975 0.92732 0.53391 0.0
O308 O 0.698 0.93877 0.51308 0.0
O309 O 0.85765 1.0468 0.54277 0.0
O310 O 0.77765 1.03737 0.55194 0.0
C311 C 0.81735 1.06234 0.56515 0.0
O312 O 0.71548 1.03009 0.41656 0.0
O313 O 0.8011 1.03808 0.43121 0.0
O314 O 0.7459 0.90396 0.37293 0.0
O315 O 0.79246 0.93026 0.43549 0.0
H316 H 0.88961 0.91275 0.40069 0.0
H317 H 0.92443 0.97095 0.25491 0.0
H318 H 0.77327 0.95225 0.29826 0.0
O319 O 0.22303 0.88851 0.52786 0.0
Tb320 Tb 0.17818 0.82104 0.5038 0.0
Eu321 Eu 0.21773 0.71231 0.44108 0.0
C322 C 0.23329 0.89822 0.57641 0.0
O323 O 0.21234 0.87026 0.61093 0.0
C324 C 0.2488 0.74032 0.55131 0.0
O325 O 0.23879 0.63516 0.41485 0.0
C326 C 0.25374 0.78584 0.39109 0.0
C327 C 0.24903 0.59988 0.44753 0.0
O328 O 0.25254 0.61104 0.49515 0.0
C329 C 0.11256 0.75792 0.42028 0.0
C330 C 0.23108 0.82191 0.35594 0.0
C331 C 0.23405 0.87314 0.36726 0.0
C332 C 0.22968 0.90896 0.32843 0.0
C333 C 0.20488 0.89176 0.28489 0.0
C334 C 0.2183 0.84323 0.26887 0.0
C335 C 0.21754 0.8071 0.30724 0.0
O336 O 0.24445 0.78695 0.53728 0.0
O337 O 0.23673 0.70345 0.52172 0.0
O338 O 0.1205 0.85938 0.5446 0.0
O339 O 0.13077 0.77977 0.55483 0.0
C340 C 0.10449 0.81911 0.56663 0.0
O341 O 0.13599 0.71589 0.42944 0.0
O342 O 0.13276 0.80239 0.43381 0.0
O343 O 0.2583 0.73917 0.37607 0.0
O344 O 0.24026 0.79029 0.43798 0.0
H345 H 0.24809 0.88349 0.40378 0.0
H346 H 0.19347 0.91878 0.25709 0.0
H347 H 0.21786 0.76777 0.29773 0.0
O348 O 0.28258 0.94593 0.6413 0.0
Tb349 Tb 0.34981 0.99148 0.66501 0.0
Eu350 Eu 0.45512 0.94974 0.73286 0.0
C351 C 0.27218 0.93633 0.59276 0.0
O352 O 0.29997 0.95738 0.55812 0.0
C353 C 0.4361 0.92844 0.61878 0.0
O354 O 0.53026 0.92491 0.76166 0.0
C355 C 0.37685 0.91305 0.77461 0.0
C356 C 0.56392 0.90653 0.73082 0.0
O357 O 0.55083 0.89405 0.68522 0.0
C358 C 0.41186 1.05671 0.75148 0.0
C359 C 0.34033 0.93527 0.80953 0.0
C360 C 0.289 0.92923 0.79972 0.0
C361 C 0.25371 0.93468 0.83911 0.0
C362 C 0.27113 0.96186 0.88113 0.0
C363 C 0.32063 0.9509 0.89627 0.0
C364 C 0.35565 0.95234 0.85695 0.0
O365 O 0.38858 0.92839 0.63067 0.0
O366 O 0.47035 0.93971 0.65163 0.0
O367 O 0.31077 1.04763 0.62279 0.0
O368 O 0.39078 1.03837 0.61358 0.0
C369 C 0.35106 1.06331 0.60046 0.0
O370 O 0.45324 1.03059 0.74855 0.0
O371 O 0.36761 1.03861 0.73428 0.0
O372 O 0.42232 0.90457 0.79178 0.0
O373 O 0.37601 0.93066 0.72897 0.0
H374 H 0.27862 0.91255 0.76432 0.0
H375 H 0.24442 0.97337 0.90924 0.0
H376 H 0.39526 0.9545 0.8655 0.0
O377 O 0.22353 0.27734 0.63866 0.0
Tb378 Tb 0.17872 0.34464 0.66327 0.0
Eu379 Eu 0.21795 0.45358 0.72657 0.0
C380 C 0.23361 0.26786 0.59002 0.0
O381 O 0.21253 0.29597 0.55571 0.0
C382 C 0.24928 0.42569 0.61637 0.0
O383 O 0.23855 0.53088 0.75277 0.0
C384 C 0.2543 0.3804 0.77681 0.0
C385 C 0.2489 0.56616 0.7201 0.0
O386 O 0.25267 0.55496 0.6725 0.0
C387 C 0.11287 0.4074 0.74699 0.0
C388 C 0.23207 0.34429 0.81227 0.0
C389 C 0.2341 0.29312 0.80047 0.0
C390 C 0.2305 0.25708 0.83915 0.0
C391 C 0.20678 0.27409 0.88335 0.0
C392 C 0.22097 0.32236 0.89952 0.0
C393 C 0.22013 0.35885 0.86146 0.0
O394 O 0.2452 0.37907 0.63052 0.0
O395 O 0.23707 0.46252 0.64594 0.0
O396 O 0.12116 0.30628 0.62233 0.0
O397 O 0.13143 0.38591 0.61217 0.0
C398 C 0.10521 0.34654 0.60028 0.0
O399 O 0.13622 0.44954 0.73807 0.0
O400 O 0.13313 0.36302 0.73327 0.0
O401 O 0.25871 0.42716 0.7916 0.0
O402 O 0.24064 0.37568 0.72998 0.0
H403 H 0.24702 0.28285 0.76351 0.0
H404 H 0.19569 0.2469 0.91112 0.0
H405 H 0.22126 0.39809 0.87123 0.0
O406 O 0.88605 0.21947 0.64117 0.0
Tb407 Tb 0.81872 0.17411 0.66492 0.0
Eu408 Eu 0.71349 0.21605 0.73253 0.0
C409 C 0.89645 0.22903 0.59261 0.0
O410 O 0.86862 0.20801 0.55801 0.0
C411 C 0.73279 0.23761 0.61855 0.0
O412 O 0.63834 0.24081 0.76138 0.0
C413 C 0.79171 0.25263 0.77443 0.0
C414 C 0.6046 0.25905 0.73055 0.0
O415 O 0.61761 0.27141 0.68489 0.0
C416 C 0.75654 0.10904 0.75135 0.0
C417 C 0.82801 0.2304 0.80954 0.0
C418 C 0.8794 0.23648 0.80003 0.0
C419 C 0.91444 0.23107 0.83964 0.0
C420 C 0.89677 0.20386 0.88154 0.0
C421 C 0.84715 0.21475 0.89638 0.0
C422 C 0.8124 0.21329 0.85684 0.0
O423 O 0.7803 0.23734 0.63046 0.0
O424 O 0.69843 0.22642 0.65132 0.0
O425 O 0.85766 0.11786 0.62275 0.0
O426 O 0.77767 0.12729 0.61351 0.0
C427 C 0.81735 0.10226 0.60042 0.0
O428 O 0.71519 0.13518 0.7482 0.0
O429 O 0.80084 0.12709 0.73423 0.0
O430 O 0.7462 0.26131 0.79141 0.0
O431 O 0.79267 0.23486 0.72885 0.0
H432 H 0.89001 0.2532 0.76471 0.0
H433 H 0.92332 0.19239 0.90981 0.0
H434 H 0.77274 0.21109 0.86515 0.0
O435 O 0.94476 0.88836 0.63874 0.0
Tb436 Tb 0.98935 0.8209 0.66331 0.0
Eu437 Eu 0.95003 0.7116 0.72575 0.0
C438 C 0.93474 0.89787 0.59009 0.0
O439 O 0.95586 0.86978 0.55579 0.0
C440 C 0.91768 0.74086 0.61621 0.0
O441 O 0.92931 0.63404 0.75101 0.0
C442 C 0.91416 0.78417 0.77726 0.0
C443 C 0.92244 0.59853 0.71769 0.0
O444 O 0.92299 0.60958 0.66991 0.0
C445 C 1.05521 0.75732 0.74628 0.0
C446 C 0.93654 0.82027 0.81263 0.0
C447 C 0.93482 0.87143 0.80067 0.0
C448 C 0.93834 0.90758 0.83926 0.0
C449 C 0.96177 0.89061 0.88361 0.0
C450 C 0.94724 0.84246 0.89988 0.0
C451 C 0.94811 0.80583 0.86194 0.0
O452 O 0.92233 0.78728 0.63084 0.0
O453 O 0.92966 0.70361 0.64533 0.0
O454 O 1.04706 0.85926 0.62257 0.0
O455 O 1.03629 0.77975 0.61178 0.0
C456 C 1.06273 0.81908 0.60016 0.0
O457 O 1.03188 0.71536 0.73653 0.0
O458 O 1.03501 0.8019 0.73311 0.0
O459 O 0.91039 0.73728 0.79179 0.0
O460 O 0.92704 0.78933 0.73024 0.0
H461 H 0.92217 0.88166 0.76362 0.0
H462 H 0.97286 0.91783 0.91134 0.0
H463 H 0.94668 0.76663 0.87184 0.0
O464 O 0.52581 0.27942 0.21893 0.0
Tb465 Tb 0.502 0.34733 0.17478 0.0
Eu466 Eu 0.43703 0.45349 0.21654 0.0
C467 C 0.5745 0.26922 0.22836 0.0
O468 O 0.609 0.29733 0.20752 0.0
C469 C 0.54933 0.42961 0.24308 0.0
O470 O 0.40904 0.52936 0.23979 0.0
C471 C 0.39113 0.37702 0.25202 0.0
C472 C 0.44059 0.56389 0.25513 0.0
O473 O 0.48727 0.5519 0.26455 0.0
C474 C 0.41745 0.41099 0.10955 0.0
C475 C 0.35574 0.34102 0.22966 0.0
C476 C 0.36572 0.2897 0.23476 0.0
C477 C 0.32612 0.25457 0.23011 0.0
C478 C 0.28348 0.27213 0.20396 0.0
C479 C 0.26852 0.32142 0.21568 0.0
C480 C 0.30782 0.3565 0.21405 0.0
O481 O 0.5363 0.38258 0.23997 0.0
O482 O 0.51815 0.46537 0.23178 0.0
O483 O 0.54393 0.30914 0.11792 0.0
O484 O 0.5542 0.38869 0.12902 0.0
C485 C 0.56688 0.34939 0.10322 0.0
O486 O 0.42354 0.45227 0.13517 0.0
O487 O 0.43279 0.36628 0.12789 0.0
O488 O 0.37511 0.42301 0.25941 0.0
O489 O 0.4373 0.37453 0.23574 0.0
H490 H 0.40157 0.2791 0.25041 0.0
H491 H 0.25512 0.24553 0.1928 0.0
H492 H 0.29921 0.39604 0.2127 0.0
O493 O 0.5254 0.88476 0.94565 0.0
Tb494 Tb 0.50129 0.81755 0.99082 0.0
Eu495 Eu 0.43348 0.71212 0.94976 0.0
C496 C 0.57408 0.89503 0.93623 0.0
O497 O 0.60861 0.86712 0.95728 0.0
C498 C 0.54736 0.73186 0.92671 0.0
O499 O 0.40481 0.63679 0.92553 0.0
C500 C 0.39091 0.78979 0.91304 0.0
C501 C 0.43564 0.6032 0.90702 0.0
O502 O 0.48123 0.61633 0.89427 0.0
C503 C 0.41488 0.7561 1.05638 0.0
C504 C 0.35625 0.82652 0.93532 0.0
C505 C 0.36634 0.87766 0.92891 0.0
C506 C 0.32709 0.91312 0.93417 0.0
C507 C 0.28484 0.89614 0.9614 0.0
C508 C 0.26952 0.8467 0.95087 0.0
C509 C 0.30873 0.81159 0.95262 0.0
O510 O 0.53548 0.77928 0.92732 0.0
O511 O 0.51476 0.69748 0.93836 0.0
O512 O 0.54357 0.85633 1.04707 0.0
O513 O 0.55255 0.77645 1.03786 0.0
C514 C 0.56573 0.81608 1.06285 0.0
O515 O 0.41844 0.71451 1.03079 0.0
O516 O 0.4317 0.80017 1.03772 0.0
O517 O 0.37361 0.7443 0.90534 0.0
O518 O 0.43691 0.79089 0.9299 0.0
H519 H 0.40181 0.88773 0.91207 0.0
H520 H 0.25675 0.923 0.97261 0.0
H521 H 0.29998 0.77212 0.95513 0.0
O522 O 0.27785 0.52719 0.94486 0.0
Tb523 Tb 0.34569 0.50294 0.98912 0.0
Eu524 Eu 0.45489 0.44116 0.9492 0.0
C525 C 0.26812 0.57578 0.93495 0.0
O526 O 0.29616 0.61016 0.95604 0.0
C527 C 0.42533 0.55063 0.91726 0.0
O528 O 0.53257 0.41594 0.92845 0.0
C529 C 0.38212 0.38964 0.91348 0.0
C530 C 0.56826 0.44931 0.92254 0.0
O531 O 0.55725 0.49706 0.9241 0.0
C532 C 0.40996 0.4202 1.05455 0.0
C533 C 0.34639 0.35373 0.93567 0.0
C534 C 0.29499 0.3651 0.93409 0.0
C535 C 0.25923 0.32608 0.93741 0.0
C536 C 0.27674 0.28196 0.96081 0.0
C537 C 0.32512 0.26626 0.94617 0.0
C538 C 0.36145 0.30455 0.94693 0.0
O539 O 0.37888 0.53585 0.92215 0.0
O540 O 0.46279 0.52154 0.9288 0.0
O541 O 0.30737 0.5436 1.04681 0.0
O542 O 0.38696 0.55469 1.03566 0.0
C543 C 0.34762 0.56625 1.06216 0.0
O544 O 0.45178 0.4301 1.03092 0.0
O545 O 0.36511 0.43328 1.03474 0.0
O546 O 0.42917 0.3755 0.90904 0.0
O547 O 0.37676 0.43639 0.92708 0.0
H548 H 0.28427 0.40207 0.92165 0.0
H549 H 0.24978 0.25395 0.97195 0.0
H550 H 0.40083 0.29507 0.94535 0.0
O551 O 0.64272 0.28119 0.9458 0.0
Tb552 Tb 0.6667 0.34829 0.99121 0.0
Eu553 Eu 0.73457 0.45371 0.95024 0.0
C554 C 0.59406 0.27086 0.93635 0.0
O555 O 0.55947 0.29866 0.95745 0.0
C556 C 0.6205 0.43438 0.92796 0.0
O557 O 0.76293 0.52901 0.9256 0.0
C558 C 0.77666 0.37593 0.91322 0.0
C559 C 0.73191 0.56249 0.90723 0.0
O560 O 0.68629 0.54924 0.89475 0.0
C561 C 0.7533 0.40959 1.05677 0.0
C562 C 0.81116 0.33909 0.93552 0.0
C563 C 0.80118 0.28797 0.92875 0.0
C564 C 0.8404 0.2525 0.93425 0.0
C565 C 0.88242 0.26945 0.96184 0.0
C566 C 0.89776 0.31894 0.95155 0.0
C567 C 0.8585 0.35397 0.95333 0.0
O568 O 0.63228 0.38693 0.92809 0.0
O569 O 0.65321 0.46855 0.93983 0.0
O570 O 0.62439 0.30937 1.04738 0.0
O571 O 0.61552 0.38928 1.03844 0.0
C572 C 0.60228 0.3496 1.06331 0.0
O573 O 0.75005 0.4512 1.03117 0.0
O574 O 0.7363 0.36559 1.03811 0.0
O575 O 0.79417 0.42136 0.90557 0.0
O576 O 0.73066 0.37503 0.93009 0.0
H577 H 0.76587 0.27798 0.91154 0.0
H578 H 0.91046 0.24261 0.97317 0.0
H579 H 0.86722 0.39343 0.95611 0.0
O580 O 0.88975 0.63818 0.94445 0.0
Tb581 Tb 0.82206 0.66248 0.98896 0.0
Eu582 Eu 0.71278 0.72466 0.949 0.0
C583 C 0.89939 0.58958 0.93441 0.0
O584 O 0.87134 0.55522 0.95552 0.0
C585 C 0.74218 0.6151 0.91729 0.0
O586 O 0.6352 0.75024 0.92831 0.0
C587 C 0.78571 0.77599 0.91327 0.0
C588 C 0.59961 0.71712 0.9207 0.0
O589 O 0.61062 0.66935 0.92029 0.0
C590 C 0.75789 0.74537 1.05437 0.0
C591 C 0.82148 0.81185 0.93546 0.0
C592 C 0.87284 0.80022 0.93424 0.0
C593 C 0.90877 0.83908 0.9376 0.0
C594 C 0.89135 0.88337 0.96074 0.0
C595 C 0.84313 0.89927 0.9458 0.0
C596 C 0.8066 0.86116 0.94639 0.0
O597 O 0.78863 0.62993 0.92196 0.0
O598 O 0.70473 0.6442 0.92889 0.0
O599 O 0.86048 0.62184 1.04662 0.0
O600 O 0.78088 0.61075 1.03564 0.0
C601 C 0.82024 0.59923 1.06211 0.0
O602 O 0.71603 0.73567 1.03073 0.0
O603 O 0.80271 0.73221 1.03449 0.0
O604 O 0.73869 0.79022 0.90879 0.0
O605 O 0.79094 0.72924 0.92691 0.0
H606 H 0.88347 0.76313 0.92204 0.0
H607 H 0.91839 0.91127 0.97193 0.0
H608 H 0.76728 0.87081 0.94451 0.0
O609 O 0.64213 0.88618 0.21866 0.0
Tb610 Tb 0.66582 0.81825 0.17446 0.0
Eu611 Eu 0.73058 0.71217 0.21634 0.0
C612 C 0.59347 0.89644 0.22814 0.0
O613 O 0.55892 0.8684 0.20731 0.0
C614 C 0.61825 0.73605 0.24274 0.0
O615 O 0.7585 0.63634 0.23979 0.0
C616 C 0.77635 0.78868 0.25185 0.0
C617 C 0.7269 0.60185 0.25511 0.0
O618 O 0.68019 0.61384 0.26439 0.0
C619 C 0.75044 0.75457 0.10938 0.0
C620 C 0.81178 0.8246 0.22944 0.0
C621 C 0.80203 0.87595 0.23471 0.0
C622 C 0.84173 0.91094 0.22989 0.0
C623 C 0.88419 0.89324 0.20351 0.0
C624 C 0.899 0.84388 0.21513 0.0
C625 C 0.85956 0.80897 0.21353 0.0
O626 O 0.63126 0.78308 0.23958 0.0
O627 O 0.64943 0.70029 0.23144 0.0
O628 O 0.62398 0.85648 0.11758 0.0
O629 O 0.61372 0.77691 0.12858 0.0
C630 C 0.60109 0.81623 0.10279 0.0
O631 O 0.7443 0.71331 0.13499 0.0
O632 O 0.73509 0.79929 0.12769 0.0
O633 O 0.79236 0.7427 0.25934 0.0
O634 O 0.73023 0.79114 0.2355 0.0
H635 H 0.76629 0.88665 0.25057 0.0
H636 H 0.91261 0.91973 0.19224 0.0
H637 H 0.86804 0.7694 0.21207 0.0
O638 O 0.27855 0.63849 0.22222 0.0
Tb639 Tb 0.3458 0.6629 0.17707 0.0
Eu640 Eu 0.45401 0.72739 0.21664 0.0
C641 C 0.26894 0.58991 0.23234 0.0
O642 O 0.29699 0.55552 0.21128 0.0
C643 C 0.42838 0.61617 0.24575 0.0
O644 O 0.53098 0.75482 0.2374 0.0
C645 C 0.37956 0.77548 0.25353 0.0
C646 C 0.5659 0.72311 0.25143 0.0
O647 O 0.55424 0.67621 0.2597 0.0
C648 C 0.40794 0.7475 0.11148 0.0
C649 C 0.34348 0.81118 0.23171 0.0
C650 C 0.29211 0.79994 0.23449 0.0
C651 C 0.25635 0.83895 0.23083 0.0
C652 C 0.27362 0.88267 0.20648 0.0
C653 C 0.3223 0.89845 0.21999 0.0
C654 C 0.35846 0.86006 0.21907 0.0
O655 O 0.38139 0.62962 0.24255 0.0
O656 O 0.46463 0.64658 0.23369 0.0
O657 O 0.30725 0.6217 0.11986 0.0
O658 O 0.38719 0.6122 0.12948 0.0
C659 C 0.34765 0.59997 0.10363 0.0
O660 O 0.45019 0.74001 0.1352 0.0
O661 O 0.36361 0.73295 0.13149 0.0
O662 O 0.42618 0.79062 0.2592 0.0
O663 O 0.37557 0.7291 0.23834 0.0
H664 H 0.28161 0.76325 0.24792 0.0
H665 H 0.24657 0.91059 0.19539 0.0
H666 H 0.3979 0.86945 0.21957 0.0
O667 O 0.88912 0.52741 0.22277 0.0
Tb668 Tb 0.82203 0.50295 0.17742 0.0
Eu669 Eu 0.71363 0.43825 0.21692 0.0
C670 C 0.89864 0.57598 0.23303 0.0
O671 O 0.87059 0.61038 0.21199 0.0
C672 C 0.73917 0.54956 0.24588 0.0
O673 O 0.63662 0.41085 0.23768 0.0
C674 C 0.78807 0.39024 0.25385 0.0
C675 C 0.6017 0.44255 0.25173 0.0
O676 O 0.61336 0.48945 0.26001 0.0
C677 C 0.76007 0.41819 0.11188 0.0
C678 C 0.82436 0.35479 0.2319 0.0
C679 C 0.87566 0.36634 0.23459 0.0
C680 C 0.91167 0.32758 0.23069 0.0
C681 C 0.89461 0.28379 0.20631 0.0
C682 C 0.84605 0.26769 0.2199 0.0
C683 C 0.80966 0.30586 0.21917 0.0
O684 O 0.78618 0.53615 0.24281 0.0
O685 O 0.70296 0.51909 0.23383 0.0
O686 O 0.86063 0.5441 0.12014 0.0
O687 O 0.78068 0.55349 0.12962 0.0
C688 C 0.82022 0.5657 0.10377 0.0
O689 O 0.71773 0.42567 0.13549 0.0
O690 O 0.80433 0.43277 0.132 0.0
O691 O 0.74149 0.37491 0.25925 0.0
O692 O 0.79196 0.43673 0.23896 0.0
H693 H 0.88596 0.40307 0.2481 0.0
H694 H 0.92181 0.25604 0.1951 0.0
H695 H 0.77028 0.29622 0.21973 0.0
loop_
_geom_bond_atom_site_label_1
_geom_bond_atom_site_label_2
_geom_bond_distance
_geom_bond_site_symmetry_2
_ccdc_geom_bond_type
O0 Tb1 2.292 . S
O0 C3 1.255 . S
Tb1 O0 2.292 . S
Tb1 O17 2.326 . S
Tb1 O19 2.500 1_455 S
Tb1 O20 2.473 1_455 S
Tb1 O23 2.324 . S
Eu2 O6 2.292 . S
Eu2 C7 2.852 . S
Eu2 O18 2.324 . S
Eu2 O22 2.326 . S
Eu2 O24 2.500 . S
Eu2 O25 2.473 . S
C3 O0 1.255 . S
C3 O4 1.247 . S
O4 C3 1.247 . S
C5 O17 1.242 . S
C5 O18 1.258 . S
O6 Eu2 2.292 . S
O6 C8 1.255 . S
C7 Eu2 2.852 . S
C7 C11 1.503 . S
C7 O24 1.273 . S
C7 O25 1.257 . S
C8 O6 1.255 . S
C8 O9 1.247 1_455 S
O9 C8 1.247 1_655 S
C10 O22 1.242 . S
C10 O23 1.258 . S
C11 C7 1.503 . S
C11 C12 1.379 . S
C11 C16 1.392 . S
C12 C11 1.379 . S
C12 C13 1.404 . S
C12 H26 0.929 . S
C13 C12 1.404 . S
C13 C14 1.389 . S
C14 C13 1.389 . S
C14 C15 1.399 . S
C14 H27 0.931 . S
C15 C14 1.399 . S
C15 C16 1.390 . S
C16 C11 1.392 . S
C16 C15 1.390 . S
C16 H28 0.929 . S
O17 Tb1 2.326 . S
O17 C5 1.242 . S
O18 Eu2 2.324 . S
O18 C5 1.258 . S
O19 Tb1 2.500 1_655 S
O19 C21 1.273 . S
O20 Tb1 2.473 1_655 S
O20 C21 1.257 . S
C21 O19 1.273 . S
C21 O20 1.257 . S
O22 Eu2 2.326 . S
O22 C10 1.242 . S
O23 Tb1 2.324 . S
O23 C10 1.258 . S
O24 Eu2 2.500 . S
O24 C7 1.273 . S
O25 Eu2 2.473 . S
O25 C7 1.257 . S
H26 C12 0.929 . S
H27 C14 0.931 . S
H28 C16 0.929 . S
O29 Tb30 2.292 . S
O29 C32 1.255 . S
Tb30 O29 2.292 . S
Tb30 O46 2.326 . S
Tb30 O48 2.500 1_545 S
Tb30 O49 2.473 1_545 S
Tb30 O52 2.324 . S
Eu31 O35 2.292 . S
Eu31 C36 2.852 . S
Eu31 O47 2.324 . S
Eu31 O51 2.326 . S
Eu31 O53 2.500 . S
Eu31 O54 2.473 . S
C32 O29 1.255 . S
C32 O33 1.247 . S
O33 C32 1.247 . S
C34 O46 1.242 . S
C34 O47 1.258 . S
O35 Eu31 2.292 . S
O35 C37 1.255 . S
C36 Eu31 2.852 . S
C36 C40 1.503 . S
C36 O53 1.273 . S
C36 O54 1.257 . S
C37 O35 1.255 . S
C37 O38 1.247 1_545 S
O38 C37 1.247 1_565 S
C39 O51 1.242 . S
C39 O52 1.258 . S
C40 C36 1.503 . S
C40 C41 1.379 . S
C40 C45 1.392 . S
C41 C40 1.379 . S
C41 C42 1.404 . S
C41 H55 0.929 . S
C42 C41 1.404 . S
C42 C43 1.389 . S
C43 C42 1.389 . S
C43 C44 1.399 . S
C43 H56 0.931 . S
C44 C43 1.399 . S
C44 C45 1.390 . S
C45 C40 1.392 . S
C45 C44 1.390 . S
C45 H57 0.929 . S
O46 Tb30 2.326 . S
O46 C34 1.242 . S
O47 Eu31 2.324 . S
O47 C34 1.258 . S
O48 Tb30 2.500 1_565 S
O48 C50 1.273 . S
O49 Tb30 2.473 1_565 S
O49 C50 1.257 . S
C50 O48 1.273 . S
C50 O49 1.257 . S
O51 Eu31 2.326 . S
O51 C39 1.242 . S
O52 Tb30 2.324 . S
O52 C39 1.258 . S
O53 Eu31 2.500 . S
O53 C36 1.273 . S
O54 Eu31 2.473 . S
O54 C36 1.257 . S
H55 C41 0.929 . S
H56 C43 0.931 . S
H57 C45 0.929 . S
O58 Tb59 2.292 . S
O58 C61 1.255 . S
Tb59 O58 2.292 . S
Tb59 O75 2.326 . S
Tb59 O77 2.500 1_655 S
Tb59 O78 2.473 1_655 S
Tb59 O81 2.324 . S
Eu60 O64 2.292 . S
Eu60 C65 2.852 . S
Eu60 O76 2.324 . S
Eu60 O80 2.326 . S
Eu60 O82 2.500 . S
Eu60 O83 2.473 . S
C61 O58 1.255 . S
C61 O62 1.247 . S
O62 C61 1.247 . S
C63 O75 1.242 . S
C63 O76 1.258 . S
O64 Eu60 2.292 . S
O64 C66 1.255 . S
C65 Eu60 2.852 . S
C65 C69 1.503 . S
C65 O82 1.273 . S
C65 O83 1.257 . S
C66 O64 1.255 . S
C66 O67 1.247 1_655 S
O67 C66 1.247 1_455 S
C68 O80 1.242 . S
C68 O81 1.258 . S
C69 C65 1.503 . S
C69 C70 1.379 . S
C69 C74 1.392 . S
C70 C69 1.379 . S
C70 C71 1.404 . S
C70 H84 0.929 . S
C71 C70 1.404 . S
C71 C72 1.389 . S
C72 C71 1.389 . S
C72 C73 1.399 . S
C72 H85 0.931 . S
C73 C72 1.399 . S
C73 C74 1.390 . S
C74 C69 1.392 . S
C74 C73 1.390 . S
C74 H86 0.929 . S
O75 Tb59 2.326 . S
O75 C63 1.242 . S
O76 Eu60 2.324 . S
O76 C63 1.258 . S
O77 Tb59 2.500 1_455 S
O77 C79 1.273 . S
O78 Tb59 2.473 1_455 S
O78 C79 1.257 . S
C79 O77 1.273 . S
C79 O78 1.257 . S
O80 Eu60 2.326 . S
O80 C68 1.242 . S
O81 Tb59 2.324 . S
O81 C68 1.258 . S
O82 Eu60 2.500 . S
O82 C65 1.273 . S
O83 Eu60 2.473 . S
O83 C65 1.257 . S
H84 C70 0.929 . S
H85 C72 0.931 . S
H86 C74 0.929 . S
O87 Tb88 2.292 . S
O87 C90 1.255 . S
Tb88 O87 2.292 . S
Tb88 O104 2.326 . S
Tb88 O106 2.500 1_565 S
Tb88 O107 2.473 1_565 S
Tb88 O110 2.324 . S
Eu89 O93 2.292 . S
Eu89 C94 2.852 . S
Eu89 O105 2.324 . S
Eu89 O109 2.326 . S
Eu89 O111 2.500 . S
Eu89 O112 2.473 . S
C90 O87 1.255 . S
C90 O91 1.247 . S
O91 C90 1.247 . S
C92 O104 1.242 . S
C92 O105 1.258 . S
O93 Eu89 2.292 . S
O93 C95 1.255 . S
C94 Eu89 2.852 . S
C94 C98 1.503 . S
C94 O111 1.273 . S
C94 O112 1.257 . S
C95 O93 1.255 . S
C95 O96 1.247 1_565 S
O96 C95 1.247 1_545 S
C97 O109 1.242 . S
C97 O110 1.258 . S
C98 C94 1.503 . S
C98 C99 1.379 . S
C98 C103 1.392 . S
C99 C98 1.379 . S
C99 C100 1.404 . S
C99 H113 0.929 . S
C100 C99 1.404 . S
C100 C101 1.389 . S
C101 C100 1.389 . S
C101 C102 1.399 . S
C101 H114 0.931 . S
C102 C101 1.399 . S
C102 C103 1.390 . S
C103 C98 1.392 . S
C103 C102 1.390 . S
C103 H115 0.929 . S
O104 Tb88 2.326 . S
O104 C92 1.242 . S
O105 Eu89 2.324 . S
O105 C92 1.258 . S
O106 Tb88 2.500 1_545 S
O106 C108 1.273 . S
O107 Tb88 2.473 1_545 S
O107 C108 1.257 . S
C108 O106 1.273 . S
C108 O107 1.257 . S
O109 Eu89 2.326 . S
O109 C97 1.242 . S
O110 Tb88 2.324 . S
O110 C97 1.258 . S
O111 Eu89 2.500 . S
O111 C94 1.273 . S
O112 Eu89 2.473 . S
O112 C94 1.257 . S
H113 C99 0.929 . S
H114 C101 0.931 . S
H115 C103 0.929 . S
O116 Tb117 2.292 . S
O116 C119 1.255 . S
Tb117 O116 2.292 . S
Tb117 O133 2.326 . S
Tb117 O135 2.500 1_455 S
Tb117 O136 2.473 1_455 S
Tb117 O139 2.324 . S
Eu118 O122 2.292 . S
Eu118 C123 2.852 . S
Eu118 O134 2.324 . S
Eu118 O138 2.326 . S
Eu118 O140 2.500 . S
Eu118 O141 2.473 . S
C119 O116 1.255 . S
C119 O120 1.247 . S
O120 C119 1.247 . S
C121 O133 1.242 . S
C121 O134 1.258 . S
O122 Eu118 2.292 . S
O122 C124 1.255 . S
C123 Eu118 2.852 . S
C123 C127 1.503 . S
C123 O140 1.273 . S
C123 O141 1.257 . S
C124 O122 1.255 . S
C124 O125 1.247 1_455 S
O125 C124 1.247 1_655 S
C126 O138 1.242 . S
C126 O139 1.258 . S
C127 C123 1.503 . S
C127 C128 1.379 . S
C127 C132 1.392 . S
C128 C127 1.379 . S
C128 C129 1.404 . S
C128 H142 0.929 . S
C129 C128 1.404 . S
C129 C130 1.389 . S
C130 C129 1.389 . S
C130 C131 1.399 . S
C130 H143 0.931 . S
C131 C130 1.399 . S
C131 C132 1.390 . S
C132 C127 1.392 . S
C132 C131 1.390 . S
C132 H144 0.929 . S
O133 Tb117 2.326 . S
O133 C121 1.242 . S
O134 Eu118 2.324 . S
O134 C121 1.258 . S
O135 Tb117 2.500 1_655 S
O135 C137 1.273 . S
O136 Tb117 2.473 1_655 S
O136 C137 1.257 . S
C137 O135 1.273 . S
C137 O136 1.257 . S
O138 Eu118 2.326 . S
O138 C126 1.242 . S
O139 Tb117 2.324 . S
O139 C126 1.258 . S
O140 Eu118 2.500 . S
O140 C123 1.273 . S
O141 Eu118 2.473 . S
O141 C123 1.257 . S
H142 C128 0.929 . S
H143 C130 0.931 . S
H144 C132 0.929 . S
O145 Tb146 2.292 . S
O145 C148 1.255 . S
Tb146 O145 2.292 . S
Tb146 O162 2.326 . S
Tb146 O164 2.500 1_545 S
Tb146 O165 2.473 1_545 S
Tb146 O168 2.324 . S
Eu147 O151 2.292 . S
Eu147 C152 2.852 . S
Eu147 O163 2.324 . S
Eu147 O167 2.326 . S
Eu147 O169 2.500 . S
Eu147 O170 2.473 . S
C148 O145 1.255 . S
C148 O149 1.247 . S
O149 C148 1.247 . S
C150 O162 1.242 . S
C150 O163 1.258 . S
O151 Eu147 2.292 . S
O151 C153 1.255 . S
C152 Eu147 2.852 . S
C152 C156 1.503 . S
C152 O169 1.273 . S
C152 O170 1.257 . S
C153 O151 1.255 . S
C153 O154 1.247 1_545 S
O154 C153 1.247 1_565 S
C155 O167 1.242 . S
C155 O168 1.258 . S
C156 C152 1.503 . S
C156 C157 1.379 . S
C156 C161 1.392 . S
C157 C156 1.379 . S
C157 C158 1.404 . S
C157 H171 0.929 . S
C158 C157 1.404 . S
C158 C159 1.389 . S
C159 C158 1.389 . S
C159 C160 1.399 . S
C159 H172 0.931 . S
C160 C159 1.399 . S
C160 C161 1.390 . S
C161 C156 1.392 . S
C161 C160 1.390 . S
C161 H173 0.929 . S
O162 Tb146 2.326 . S
O162 C150 1.242 . S
O163 Eu147 2.324 . S
O163 C150 1.258 . S
O164 Tb146 2.500 1_565 S
O164 C166 1.273 . S
O165 Tb146 2.473 1_565 S
O165 C166 1.257 . S
C166 O164 1.273 . S
C166 O165 1.257 . S
O167 Eu147 2.326 . S
O167 C155 1.242 . S
O168 Tb146 2.324 . S
O168 C155 1.258 . S
O169 Eu147 2.500 . S
O169 C152 1.273 . S
O170 Eu147 2.473 . S
O170 C152 1.257 . S
H171 C157 0.929 . S
H172 C159 0.931 . S
H173 C161 0.929 . S
O174 Tb175 2.292 . S
O174 C177 1.255 . S
Tb175 O174 2.292 . S
Tb175 O191 2.326 . S
Tb175 O193 2.500 1_655 S
Tb175 O194 2.473 1_655 S
Tb175 O197 2.324 . S
Eu176 O180 2.292 . S
Eu176 C181 2.852 . S
Eu176 O192 2.324 . S
Eu176 O196 2.326 . S
Eu176 O198 2.500 . S
Eu176 O199 2.473 . S
C177 O174 1.255 . S
C177 O178 1.247 . S
O178 C177 1.247 . S
C179 O191 1.242 . S
C179 O192 1.258 . S
O180 Eu176 2.292 . S
O180 C182 1.255 . S
C181 Eu176 2.852 . S
C181 C185 1.503 . S
C181 O198 1.273 . S
C181 O199 1.257 . S
C182 O180 1.255 . S
C182 O183 1.247 1_655 S
O183 C182 1.247 1_455 S
C184 O196 1.242 . S
C184 O197 1.258 . S
C185 C181 1.503 . S
C185 C186 1.379 . S
C185 C190 1.392 . S
C186 C185 1.379 . S
C186 C187 1.404 . S
C186 H200 0.929 . S
C187 C186 1.404 . S
C187 C188 1.389 . S
C188 C187 1.389 . S
C188 C189 1.399 . S
C188 H201 0.931 . S
C189 C188 1.399 . S
C189 C190 1.390 . S
C190 C185 1.392 . S
C190 C189 1.390 . S
C190 H202 0.929 . S
O191 Tb175 2.326 . S
O191 C179 1.242 . S
O192 Eu176 2.324 . S
O192 C179 1.258 . S
O193 Tb175 2.500 1_455 S
O193 C195 1.273 . S
O194 Tb175 2.473 1_455 S
O194 C195 1.257 . S
C195 O193 1.273 . S
C195 O194 1.257 . S
O196 Eu176 2.326 . S
O196 C184 1.242 . S
O197 Tb175 2.324 . S
O197 C184 1.258 . S
O198 Eu176 2.500 . S
O198 C181 1.273 . S
O199 Eu176 2.473 . S
O199 C181 1.257 . S
H200 C186 0.929 . S
H201 C188 0.931 . S
H202 C190 0.929 . S
O203 Tb204 2.292 . S
O203 C206 1.255 . S
Tb204 O203 2.292 . S
Tb204 O220 2.326 . S
Tb204 O222 2.500 1_565 S
Tb204 O223 2.473 1_565 S
Tb204 O226 2.324 . S
Eu205 O209 2.292 . S
Eu205 C210 2.852 . S
Eu205 O221 2.324 . S
Eu205 O225 2.326 . S
Eu205 O227 2.500 . S
Eu205 O228 2.473 . S
C206 O203 1.255 . S
C206 O207 1.247 . S
O207 C206 1.247 . S
C208 O220 1.242 . S
C208 O221 1.258 . S
O209 Eu205 2.292 . S
O209 C211 1.255 . S
C210 Eu205 2.852 . S
C210 C214 1.503 . S
C210 O227 1.273 . S
C210 O228 1.257 . S
C211 O209 1.255 . S
C211 O212 1.247 1_565 S
O212 C211 1.247 1_545 S
C213 O225 1.242 . S
C213 O226 1.258 . S
C214 C210 1.503 . S
C214 C215 1.379 . S
C214 C219 1.392 . S
C215 C214 1.379 . S
C215 C216 1.404 . S
C215 H229 0.929 . S
C216 C215 1.404 . S
C216 C217 1.389 . S
C217 C216 1.389 . S
C217 C218 1.399 . S
C217 H230 0.931 . S
C218 C217 1.399 . S
C218 C219 1.390 . S
C219 C214 1.392 . S
C219 C218 1.390 . S
C219 H231 0.929 . S
O220 Tb204 2.326 . S
O220 C208 1.242 . S
O221 Eu205 2.324 . S
O221 C208 1.258 . S
O222 Tb204 2.500 1_545 S
O222 C224 1.273 . S
O223 Tb204 2.473 1_545 S
O223 C224 1.257 . S
C224 O222 1.273 . S
C224 O223 1.257 . S
O225 Eu205 2.326 . S
O225 C213 1.242 . S
O226 Tb204 2.324 . S
O226 C213 1.258 . S
O227 Eu205 2.500 . S
O227 C210 1.273 . S
O228 Eu205 2.473 . S
O228 C210 1.257 . S
H229 C215 0.929 . S
H230 C217 0.931 . S
H231 C219 0.929 . S
O232 Tb233 2.292 . S
O232 C235 1.255 . S
Tb233 O232 2.292 . S
Tb233 O249 2.326 . S
Tb233 O251 2.500 1_545 S
Tb233 O252 2.473 1_545 S
Tb233 O255 2.324 . S
Eu234 O238 2.292 . S
Eu234 C239 2.852 . S
Eu234 O250 2.324 . S
Eu234 O254 2.326 . S
Eu234 O256 2.500 . S
Eu234 O257 2.473 . S
C235 O232 1.255 . S
C235 O236 1.247 . S
O236 C235 1.247 . S
C237 O249 1.242 . S
C237 O250 1.258 . S
O238 Eu234 2.292 . S
O238 C240 1.255 . S
C239 Eu234 2.852 . S
C239 C243 1.503 . S
C239 O256 1.273 . S
C239 O257 1.257 . S
C240 O238 1.255 . S
C240 O241 1.247 1_545 S
O241 C240 1.247 1_565 S
C242 O254 1.242 . S
C242 O255 1.258 . S
C243 C239 1.503 . S
C243 C244 1.379 . S
C243 C248 1.392 . S
C244 C243 1.379 . S
C244 C245 1.404 . S
C244 H258 0.929 . S
C245 C244 1.404 . S
C245 C246 1.389 . S
C246 C245 1.389 . S
C246 C247 1.399 . S
C246 H259 0.931 . S
C247 C246 1.399 . S
C247 C248 1.390 . S
C248 C243 1.392 . S
C248 C247 1.390 . S
C248 H260 0.929 . S
O249 Tb233 2.326 . S
O249 C237 1.242 . S
O250 Eu234 2.324 . S
O250 C237 1.258 . S
O251 Tb233 2.500 1_565 S
O251 C253 1.273 . S
O252 Tb233 2.473 1_565 S
O252 C253 1.257 . S
C253 O251 1.273 . S
C253 O252 1.257 . S
O254 Eu234 2.326 . S
O254 C242 1.242 . S
O255 Tb233 2.324 . S
O255 C242 1.258 . S
O256 Eu234 2.500 . S
O256 C239 1.273 . S
O257 Eu234 2.473 . S
O257 C239 1.257 . S
H258 C244 0.929 . S
H259 C246 0.931 . S
H260 C248 0.929 . S
O261 Tb262 2.292 . S
O261 C264 1.255 . S
Tb262 O261 2.292 . S
Tb262 O278 2.326 . S
Tb262 O280 2.500 1_655 S
Tb262 O281 2.473 1_655 S
Tb262 O284 2.324 . S
Eu263 O267 2.292 . S
Eu263 C268 2.852 . S
Eu263 O279 2.324 . S
Eu263 O283 2.326 . S
Eu263 O285 2.500 . S
Eu263 O286 2.473 . S
C264 O261 1.255 . S
C264 O265 1.247 . S
O265 C264 1.247 . S
C266 O278 1.242 . S
C266 O279 1.258 . S
O267 Eu263 2.292 . S
O267 C269 1.255 . S
C268 Eu263 2.852 . S
C268 C272 1.503 . S
C268 O285 1.273 . S
C268 O286 1.257 . S
C269 O267 1.255 . S
C269 O270 1.247 1_655 S
O270 C269 1.247 1_455 S
C271 O283 1.242 . S
C271 O284 1.258 . S
C272 C268 1.503 . S
C272 C273 1.379 . S
C272 C277 1.392 . S
C273 C272 1.379 . S
C273 C274 1.404 . S
C273 H287 0.929 . S
C274 C273 1.404 . S
C274 C275 1.389 . S
C275 C274 1.389 . S
C275 C276 1.399 . S
C275 H288 0.931 . S
C276 C275 1.399 . S
C276 C277 1.390 . S
C277 C272 1.392 . S
C277 C276 1.390 . S
C277 H289 0.929 . S
O278 Tb262 2.326 . S
O278 C266 1.242 . S
O279 Eu263 2.324 . S
O279 C266 1.258 . S
O280 Tb262 2.500 1_455 S
O280 C282 1.273 . S
O281 Tb262 2.473 1_455 S
O281 C282 1.257 . S
C282 O280 1.273 . S
C282 O281 1.257 . S
O283 Eu263 2.326 . S
O283 C271 1.242 . S
O284 Tb262 2.324 . S
O284 C271 1.258 . S
O285 Eu263 2.500 . S
O285 C268 1.273 . S
O286 Eu263 2.473 . S
O286 C268 1.257 . S
H287 C273 0.929 . S
H288 C275 0.931 . S
H289 C277 0.929 . S
O290 Tb291 2.292 . S
O290 C293 1.255 . S
Tb291 O290 2.292 . S
Tb291 O307 2.326 . S
Tb291 O309 2.500 1_565 S
Tb291 O310 2.473 1_565 S
Tb291 O313 2.324 . S
Eu292 O296 2.292 . S
Eu292 C297 2.852 . S
Eu292 O308 2.324 . S
Eu292 O312 2.326 . S
Eu292 O314 2.500 . S
Eu292 O315 2.473 . S
C293 O290 1.255 . S
C293 O294 1.247 . S
O294 C293 1.247 . S
C295 O307 1.242 . S
C295 O308 1.258 . S
O296 Eu292 2.292 . S
O296 C298 1.255 . S
C297 Eu292 2.852 . S
C297 C301 1.503 . S
C297 O314 1.273 . S
C297 O315 1.257 . S
C298 O296 1.255 . S
C298 O299 1.247 1_565 S
O299 C298 1.247 1_545 S
C300 O312 1.242 . S
C300 O313 1.258 . S
C301 C297 1.503 . S
C301 C302 1.379 . S
C301 C306 1.392 . S
C302 C301 1.379 . S
C302 C303 1.404 . S
C302 H316 0.929 . S
C303 C302 1.404 . S
C303 C304 1.389 . S
C304 C303 1.389 . S
C304 C305 1.399 . S
C304 H317 0.931 . S
C305 C304 1.399 . S
C305 C306 1.390 . S
C306 C301 1.392 . S
C306 C305 1.390 . S
C306 H318 0.929 . S
O307 Tb291 2.326 . S
O307 C295 1.242 . S
O308 Eu292 2.324 . S
O308 C295 1.258 . S
O309 Tb291 2.500 1_545 S
O309 C311 1.273 . S
O310 Tb291 2.473 1_545 S
O310 C311 1.257 . S
C311 O309 1.273 . S
C311 O310 1.257 . S
O312 Eu292 2.326 . S
O312 C300 1.242 . S
O313 Tb291 2.324 . S
O313 C300 1.258 . S
O314 Eu292 2.500 . S
O314 C297 1.273 . S
O315 Eu292 2.473 . S
O315 C297 1.257 . S
H316 C302 0.929 . S
H317 C304 0.931 . S
H318 C306 0.929 . S
O319 Tb320 2.292 . S
O319 C322 1.255 . S
Tb320 O319 2.292 . S
Tb320 O336 2.326 . S
Tb320 O338 2.500 1_455 S
Tb320 O339 2.473 1_455 S
Tb320 O342 2.324 . S
Eu321 O325 2.292 . S
Eu321 C326 2.852 . S
Eu321 O337 2.324 . S
Eu321 O341 2.326 . S
Eu321 O343 2.500 . S
Eu321 O344 2.473 . S
C322 O319 1.255 . S
C322 O323 1.247 . S
O323 C322 1.247 . S
C324 O336 1.242 . S
C324 O337 1.258 . S
O325 Eu321 2.292 . S
O325 C327 1.255 . S
C326 Eu321 2.852 . S
C326 C330 1.503 . S
C326 O343 1.273 . S
C326 O344 1.257 . S
C327 O325 1.255 . S
C327 O328 1.247 1_455 S
O328 C327 1.247 1_655 S
C329 O341 1.242 . S
C329 O342 1.258 . S
C330 C326 1.503 . S
C330 C331 1.379 . S
C330 C335 1.392 . S
C331 C330 1.379 . S
C331 C332 1.404 . S
C331 H345 0.929 . S
C332 C331 1.404 . S
C332 C333 1.389 . S
C333 C332 1.389 . S
C333 C334 1.399 . S
C333 H346 0.931 . S
C334 C333 1.399 . S
C334 C335 1.390 . S
C335 C330 1.392 . S
C335 C334 1.390 . S
C335 H347 0.929 . S
O336 Tb320 2.326 . S
O336 C324 1.242 . S
O337 Eu321 2.324 . S
O337 C324 1.258 . S
O338 Tb320 2.500 1_655 S
O338 C340 1.273 . S
O339 Tb320 2.473 1_655 S
O339 C340 1.257 . S
C340 O338 1.273 . S
C340 O339 1.257 . S
O341 Eu321 2.326 . S
O341 C329 1.242 . S
O342 Tb320 2.324 . S
O342 C329 1.258 . S
O343 Eu321 2.500 . S
O343 C326 1.273 . S
O344 Eu321 2.473 . S
O344 C326 1.257 . S
H345 C331 0.929 . S
H346 C333 0.931 . S
H347 C335 0.929 . S
O348 Tb349 2.292 . S
O348 C351 1.255 . S
Tb349 O348 2.292 . S
Tb349 O365 2.326 . S
Tb349 O367 2.500 1_565 S
Tb349 O368 2.473 1_565 S
Tb349 O371 2.324 . S
Eu350 O354 2.292 . S
Eu350 C355 2.852 . S
Eu350 O366 2.324 . S
Eu350 O370 2.326 . S
Eu350 O372 2.500 . S
Eu350 O373 2.473 . S
C351 O348 1.255 . S
C351 O352 1.247 . S
O352 C351 1.247 . S
C353 O365 1.242 . S
C353 O366 1.258 . S
O354 Eu350 2.292 . S
O354 C356 1.255 . S
C355 Eu350 2.852 . S
C355 C359 1.503 . S
C355 O372 1.273 . S
C355 O373 1.257 . S
C356 O354 1.255 . S
C356 O357 1.247 1_565 S
O357 C356 1.247 1_545 S
C358 O370 1.242 . S
C358 O371 1.258 . S
C359 C355 1.503 . S
C359 C360 1.379 . S
C359 C364 1.392 . S
C360 C359 1.379 . S
C360 C361 1.404 . S
C360 H374 0.929 . S
C361 C360 1.404 . S
C361 C362 1.389 . S
C362 C361 1.389 . S
C362 C363 1.399 . S
C362 H375 0.931 . S
C363 C362 1.399 . S
C363 C364 1.390 . S
C364 C359 1.392 . S
C364 C363 1.390 . S
C364 H376 0.929 . S
O365 Tb349 2.326 . S
O365 C353 1.242 . S
O366 Eu350 2.324 . S
O366 C353 1.258 . S
O367 Tb349 2.500 1_545 S
O367 C369 1.273 . S
O368 Tb349 2.473 1_545 S
O368 C369 1.257 . S
C369 O367 1.273 . S
C369 O368 1.257 . S
O370 Eu350 2.326 . S
O370 C358 1.242 . S
O371 Tb349 2.324 . S
O371 C358 1.258 . S
O372 Eu350 2.500 . S
O372 C355 1.273 . S
O373 Eu350 2.473 . S
O373 C355 1.257 . S
H374 C360 0.929 . S
H375 C362 0.931 . S
H376 C364 0.929 . S
O377 Tb378 2.292 . S
O377 C380 1.255 . S
Tb378 O377 2.292 . S
Tb378 O394 2.326 . S
Tb378 O396 2.500 1_455 S
Tb378 O397 2.473 1_455 S
Tb378 O400 2.324 . S
Eu379 O383 2.292 . S
Eu379 C384 2.852 . S
Eu379 O395 2.324 . S
Eu379 O399 2.326 . S
Eu379 O401 2.500 . S
Eu379 O402 2.473 . S
C380 O377 1.255 . S
C380 O381 1.247 . S
O381 C380 1.247 . S
C382 O394 1.242 . S
C382 O395 1.258 . S
O383 Eu379 2.292 . S
O383 C385 1.255 . S
C384 Eu379 2.852 . S
C384 C388 1.503 . S
C384 O401 1.273 . S
C384 O402 1.257 . S
C385 O383 1.255 . S
C385 O386 1.247 1_455 S
O386 C385 1.247 1_655 S
C387 O399 1.242 . S
C387 O400 1.258 . S
C388 C384 1.503 . S
C388 C389 1.379 . S
C388 C393 1.392 . S
C389 C388 1.379 . S
C389 C390 1.404 . S
C389 H403 0.929 . S
C390 C389 1.404 . S
C390 C391 1.389 . S
C391 C390 1.389 . S
C391 C392 1.399 . S
C391 H404 0.931 . S
C392 C391 1.399 . S
C392 C393 1.390 . S
C393 C388 1.392 . S
C393 C392 1.390 . S
C393 H405 0.929 . S
O394 Tb378 2.326 . S
O394 C382 1.242 . S
O395 Eu379 2.324 . S
O395 C382 1.258 . S
O396 Tb378 2.500 1_655 S
O396 C398 1.273 . S
O397 Tb378 2.473 1_655 S
O397 C398 1.257 . S
C398 O396 1.273 . S
C398 O397 1.257 . S
O399 Eu379 2.326 . S
O399 C387 1.242 . S
O400 Tb378 2.324 . S
O400 C387 1.258 . S
O401 Eu379 2.500 . S
O401 C384 1.273 . S
O402 Eu379 2.473 . S
O402 C384 1.257 . S
H403 C389 0.929 . S
H404 C391 0.931 . S
H405 C393 0.929 . S
O406 Tb407 2.292 . S
O406 C409 1.255 . S
Tb407 O406 2.292 . S
Tb407 O423 2.326 . S
Tb407 O425 2.500 1_545 S
Tb407 O426 2.473 1_545 S
Tb407 O429 2.324 . S
Eu408 O412 2.292 . S
Eu408 C413 2.852 . S
Eu408 O424 2.324 . S
Eu408 O428 2.326 . S
Eu408 O430 2.500 . S
Eu408 O431 2.473 . S
C409 O406 1.255 . S
C409 O410 1.247 . S
O410 C409 1.247 . S
C411 O423 1.242 . S
C411 O424 1.258 . S
O412 Eu408 2.292 . S
O412 C414 1.255 . S
C413 Eu408 2.852 . S
C413 C417 1.503 . S
C413 O430 1.273 . S
C413 O431 1.257 . S
C414 O412 1.255 . S
C414 O415 1.247 1_545 S
O415 C414 1.247 1_565 S
C416 O428 1.242 . S
C416 O429 1.258 . S
C417 C413 1.503 . S
C417 C418 1.379 . S
C417 C422 1.392 . S
C418 C417 1.379 . S
C418 C419 1.404 . S
C418 H432 0.929 . S
C419 C418 1.404 . S
C419 C420 1.389 . S
C420 C419 1.389 . S
C420 C421 1.399 . S
C420 H433 0.931 . S
C421 C420 1.399 . S
C421 C422 1.390 . S
C422 C417 1.392 . S
C422 C421 1.390 . S
C422 H434 0.929 . S
O423 Tb407 2.326 . S
O423 C411 1.242 . S
O424 Eu408 2.324 . S
O424 C411 1.258 . S
O425 Tb407 2.500 1_565 S
O425 C427 1.273 . S
O426 Tb407 2.473 1_565 S
O426 C427 1.257 . S
C427 O425 1.273 . S
C427 O426 1.257 . S
O428 Eu408 2.326 . S
O428 C416 1.242 . S
O429 Tb407 2.324 . S
O429 C416 1.258 . S
O430 Eu408 2.500 . S
O430 C413 1.273 . S
O431 Eu408 2.473 . S
O431 C413 1.257 . S
H432 C418 0.929 . S
H433 C420 0.931 . S
H434 C422 0.929 . S
O435 Tb436 2.292 . S
O435 C438 1.255 . S
Tb436 O435 2.292 . S
Tb436 O452 2.326 . S
Tb436 O454 2.500 1_655 S
Tb436 O455 2.473 1_655 S
Tb436 O458 2.324 . S
Eu437 O441 2.292 . S
Eu437 C442 2.852 . S
Eu437 O453 2.324 . S
Eu437 O457 2.326 . S
Eu437 O459 2.500 . S
Eu437 O460 2.473 . S
C438 O435 1.255 . S
C438 O439 1.247 . S
O439 C438 1.247 . S
C440 O452 1.242 . S
C440 O453 1.258 . S
O441 Eu437 2.292 . S
O441 C443 1.255 . S
C442 Eu437 2.852 . S
C442 C446 1.503 . S
C442 O459 1.273 . S
C442 O460 1.257 . S
C443 O441 1.255 . S
C443 O444 1.247 1_655 S
O444 C443 1.247 1_455 S
C445 O457 1.242 . S
C445 O458 1.258 . S
C446 C442 1.503 . S
C446 C447 1.379 . S
C446 C451 1.392 . S
C447 C446 1.379 . S
C447 C448 1.404 . S
C447 H461 0.929 . S
C448 C447 1.404 . S
C448 C449 1.389 . S
C449 C448 1.389 . S
C449 C450 1.399 . S
C449 H462 0.931 . S
C450 C449 1.399 . S
C450 C451 1.390 . S
C451 C446 1.392 . S
C451 C450 1.390 . S
C451 H463 0.929 . S
O452 Tb436 2.326 . S
O452 C440 1.242 . S
O453 Eu437 2.324 . S
O453 C440 1.258 . S
O454 Tb436 2.500 1_455 S
O454 C456 1.273 . S
O455 Tb436 2.473 1_455 S
O455 C456 1.257 . S
C456 O454 1.273 . S
C456 O455 1.257 . S
O457 Eu437 2.326 . S
O457 C445 1.242 . S
O458 Tb436 2.324 . S
O458 C445 1.258 . S
O459 Eu437 2.500 . S
O459 C442 1.273 . S
O460 Eu437 2.473 . S
O460 C442 1.257 . S
H461 C447 0.929 . S
H462 C449 0.931 . S
H463 C451 0.929 . S
O464 Tb465 2.292 . S
O464 C467 1.255 . S
Tb465 O464 2.292 . S
Tb465 O481 2.326 . S
Tb465 O483 2.500 1_554 S
Tb465 O484 2.473 1_554 S
Tb465 O487 2.324 . S
Eu466 O470 2.292 . S
Eu466 C471 2.852 . S
Eu466 O482 2.324 . S
Eu466 O486 2.326 . S
Eu466 O488 2.500 . S
Eu466 O489 2.473 . S
C467 O464 1.255 . S
C467 O468 1.247 . S
O468 C467 1.247 . S
C469 O481 1.242 . S
C469 O482 1.258 . S
O470 Eu466 2.292 . S
O470 C472 1.255 . S
C471 Eu466 2.852 . S
C471 C475 1.503 . S
C471 O488 1.273 . S
C471 O489 1.257 . S
C472 O470 1.255 . S
C472 O473 1.247 1_554 S
O473 C472 1.247 1_556 S
C474 O486 1.242 . S
C474 O487 1.258 . S
C475 C471 1.503 . S
C475 C476 1.379 . S
C475 C480 1.392 . S
C476 C475 1.379 . S
C476 C477 1.404 . S
C476 H490 0.929 . S
C477 C476 1.404 . S
C477 C478 1.389 . S
C478 C477 1.389 . S
C478 C479 1.399 . S
C478 H491 0.931 . S
C479 C478 1.399 . S
C479 C480 1.390 . S
C480 C475 1.392 . S
C480 C479 1.390 . S
C480 H492 0.929 . S
O481 Tb465 2.326 . S
O481 C469 1.242 . S
O482 Eu466 2.324 . S
O482 C469 1.258 . S
O483 Tb465 2.500 1_556 S
O483 C485 1.273 . S
O484 Tb465 2.473 1_556 S
O484 C485 1.257 . S
C485 O483 1.273 . S
C485 O484 1.257 . S
O486 Eu466 2.326 . S
O486 C474 1.242 . S
O487 Tb465 2.324 . S
O487 C474 1.258 . S
O488 Eu466 2.500 . S
O488 C471 1.273 . S
O489 Eu466 2.473 . S
O489 C471 1.257 . S
H490 C476 0.929 . S
H491 C478 0.931 . S
H492 C480 0.929 . S
O493 Tb494 2.292 . S
O493 C496 1.255 . S
Tb494 O493 2.292 . S
Tb494 O510 2.326 . S
Tb494 O512 2.500 1_556 S
Tb494 O513 2.473 1_556 S
Tb494 O516 2.324 . S
Eu495 O499 2.292 . S
Eu495 C500 2.852 . S
Eu495 O511 2.324 . S
Eu495 O515 2.326 . S
Eu495 O517 2.500 . S
Eu495 O518 2.473 . S
C496 O493 1.255 . S
C496 O497 1.247 . S
O497 C496 1.247 . S
C498 O510 1.242 . S
C498 O511 1.258 . S
O499 Eu495 2.292 . S
O499 C501 1.255 . S
C500 Eu495 2.852 . S
C500 C504 1.503 . S
C500 O517 1.273 . S
C500 O518 1.257 . S
C501 O499 1.255 . S
C501 O502 1.247 1_556 S
O502 C501 1.247 1_554 S
C503 O515 1.242 . S
C503 O516 1.258 . S
C504 C500 1.503 . S
C504 C505 1.379 . S
C504 C509 1.392 . S
C505 C504 1.379 . S
C505 C506 1.404 . S
C505 H519 0.929 . S
C506 C505 1.404 . S
C506 C507 1.389 . S
C507 C506 1.389 . S
C507 C508 1.399 . S
C507 H520 0.931 . S
C508 C507 1.399 . S
C508 C509 1.390 . S
C509 C504 1.392 . S
C509 C508 1.390 . S
C509 H521 0.929 . S
O510 Tb494 2.326 . S
O510 C498 1.242 . S
O511 Eu495 2.324 . S
O511 C498 1.258 . S
O512 Tb494 2.500 1_554 S
O512 C514 1.273 . S
O513 Tb494 2.473 1_554 S
O513 C514 1.257 . S
C514 O512 1.273 . S
C514 O513 1.257 . S
O515 Eu495 2.326 . S
O515 C503 1.242 . S
O516 Tb494 2.324 . S
O516 C503 1.258 . S
O517 Eu495 2.500 . S
O517 C500 1.273 . S
O518 Eu495 2.473 . S
O518 C500 1.257 . S
H519 C505 0.929 . S
H520 C507 0.931 . S
H521 C509 0.929 . S
O522 Tb523 2.292 . S
O522 C525 1.255 . S
Tb523 O522 2.292 . S
Tb523 O539 2.326 . S
Tb523 O541 2.500 1_556 S
Tb523 O542 2.473 1_556 S
Tb523 O545 2.324 . S
Eu524 O528 2.292 . S
Eu524 C529 2.852 . S
Eu524 O540 2.324 . S
Eu524 O544 2.326 . S
Eu524 O546 2.500 . S
Eu524 O547 2.473 . S
C525 O522 1.255 . S
C525 O526 1.247 . S
O526 C525 1.247 . S
C527 O539 1.242 . S
C527 O540 1.258 . S
O528 Eu524 2.292 . S
O528 C530 1.255 . S
C529 Eu524 2.852 . S
C529 C533 1.503 . S
C529 O546 1.273 . S
C529 O547 1.257 . S
C530 O528 1.255 . S
C530 O531 1.247 1_556 S
O531 C530 1.247 1_554 S
C532 O544 1.242 . S
C532 O545 1.258 . S
C533 C529 1.503 . S
C533 C534 1.379 . S
C533 C538 1.392 . S
C534 C533 1.379 . S
C534 C535 1.404 . S
C534 H548 0.929 . S
C535 C534 1.404 . S
C535 C536 1.389 . S
C536 C535 1.389 . S
C536 C537 1.399 . S
C536 H549 0.931 . S
C537 C536 1.399 . S
C537 C538 1.390 . S
C538 C533 1.392 . S
C538 C537 1.390 . S
C538 H550 0.929 . S
O539 Tb523 2.326 . S
O539 C527 1.242 . S
O540 Eu524 2.324 . S
O540 C527 1.258 . S
O541 Tb523 2.500 1_554 S
O541 C543 1.273 . S
O542 Tb523 2.473 1_554 S
O542 C543 1.257 . S
C543 O541 1.273 . S
C543 O542 1.257 . S
O544 Eu524 2.326 . S
O544 C532 1.242 . S
O545 Tb523 2.324 . S
O545 C532 1.258 . S
O546 Eu524 2.500 . S
O546 C529 1.273 . S
O547 Eu524 2.473 . S
O547 C529 1.257 . S
H548 C534 0.929 . S
H549 C536 0.931 . S
H550 C538 0.929 . S
O551 Tb552 2.292 . S
O551 C554 1.255 . S
Tb552 O551 2.292 . S
Tb552 O568 2.326 . S
Tb552 O570 2.500 1_556 S
Tb552 O571 2.473 1_556 S
Tb552 O574 2.324 . S
Eu553 O557 2.292 . S
Eu553 C558 2.852 . S
Eu553 O569 2.324 . S
Eu553 O573 2.326 . S
Eu553 O575 2.500 . S
Eu553 O576 2.473 . S
C554 O551 1.255 . S
C554 O555 1.247 . S
O555 C554 1.247 . S
C556 O568 1.242 . S
C556 O569 1.258 . S
O557 Eu553 2.292 . S
O557 C559 1.255 . S
C558 Eu553 2.852 . S
C558 C562 1.503 . S
C558 O575 1.273 . S
C558 O576 1.257 . S
C559 O557 1.255 . S
C559 O560 1.247 1_556 S
O560 C559 1.247 1_554 S
C561 O573 1.242 . S
C561 O574 1.258 . S
C562 C558 1.503 . S
C562 C563 1.379 . S
C562 C567 1.392 . S
C563 C562 1.379 . S
C563 C564 1.404 . S
C563 H577 0.929 . S
C564 C563 1.404 . S
C564 C565 1.389 . S
C565 C564 1.389 . S
C565 C566 1.399 . S
C565 H578 0.931 . S
C566 C565 1.399 . S
C566 C567 1.390 . S
C567 C562 1.392 . S
C567 C566 1.390 . S
C567 H579 0.929 . S
O568 Tb552 2.326 . S
O568 C556 1.242 . S
O569 Eu553 2.324 . S
O569 C556 1.258 . S
O570 Tb552 2.500 1_554 S
O570 C572 1.273 . S
O571 Tb552 2.473 1_554 S
O571 C572 1.257 . S
C572 O570 1.273 . S
C572 O571 1.257 . S
O573 Eu553 2.326 . S
O573 C561 1.242 . S
O574 Tb552 2.324 . S
O574 C561 1.258 . S
O575 Eu553 2.500 . S
O575 C558 1.273 . S
O576 Eu553 2.473 . S
O576 C558 1.257 . S
H577 C563 0.929 . S
H578 C565 0.931 . S
H579 C567 0.929 . S
O580 Tb581 2.292 . S
O580 C583 1.255 . S
Tb581 O580 2.292 . S
Tb581 O597 2.326 . S
Tb581 O599 2.500 1_556 S
Tb581 O600 2.473 1_556 S
Tb581 O603 2.324 . S
Eu582 O586 2.292 . S
Eu582 C587 2.852 . S
Eu582 O598 2.324 . S
Eu582 O602 2.326 . S
Eu582 O604 2.500 . S
Eu582 O605 2.473 . S
C583 O580 1.255 . S
C583 O584 1.247 . S
O584 C583 1.247 . S
C585 O597 1.242 . S
C585 O598 1.258 . S
O586 Eu582 2.292 . S
O586 C588 1.255 . S
C587 Eu582 2.852 . S
C587 C591 1.503 . S
C587 O604 1.273 . S
C587 O605 1.257 . S
C588 O586 1.255 . S
C588 O589 1.247 1_556 S
O589 C588 1.247 1_554 S
C590 O602 1.242 . S
C590 O603 1.258 . S
C591 C587 1.503 . S
C591 C592 1.379 . S
C591 C596 1.392 . S
C592 C591 1.379 . S
C592 C593 1.404 . S
C592 H606 0.929 . S
C593 C592 1.404 . S
C593 C594 1.389 . S
C594 C593 1.389 . S
C594 C595 1.399 . S
C594 H607 0.931 . S
C595 C594 1.399 . S
C595 C596 1.390 . S
C596 C591 1.392 . S
C596 C595 1.390 . S
C596 H608 0.929 . S
O597 Tb581 2.326 . S
O597 C585 1.242 . S
O598 Eu582 2.324 . S
O598 C585 1.258 . S
O599 Tb581 2.500 1_554 S
O599 C601 1.273 . S
O600 Tb581 2.473 1_554 S
O600 C601 1.257 . S
C601 O599 1.273 . S
C601 O600 1.257 . S
O602 Eu582 2.326 . S
O602 C590 1.242 . S
O603 Tb581 2.324 . S
O603 C590 1.258 . S
O604 Eu582 2.500 . S
O604 C587 1.273 . S
O605 Eu582 2.473 . S
O605 C587 1.257 . S
H606 C592 0.929 . S
H607 C594 0.931 . S
H608 C596 0.929 . S
O609 Tb610 2.292 . S
O609 C612 1.255 . S
Tb610 O609 2.292 . S
Tb610 O626 2.326 . S
Tb610 O628 2.500 1_554 S
Tb610 O629 2.473 1_554 S
Tb610 O632 2.324 . S
Eu611 O615 2.292 . S
Eu611 C616 2.852 . S
Eu611 O627 2.324 . S
Eu611 O631 2.326 . S
Eu611 O633 2.500 . S
Eu611 O634 2.473 . S
C612 O609 1.255 . S
C612 O613 1.247 . S
O613 C612 1.247 . S
C614 O626 1.242 . S
C614 O627 1.258 . S
O615 Eu611 2.292 . S
O615 C617 1.255 . S
C616 Eu611 2.852 . S
C616 C620 1.503 . S
C616 O633 1.273 . S
C616 O634 1.257 . S
C617 O615 1.255 . S
C617 O618 1.247 1_554 S
O618 C617 1.247 1_556 S
C619 O631 1.242 . S
C619 O632 1.258 . S
C620 C616 1.503 . S
C620 C621 1.379 . S
C620 C625 1.392 . S
C621 C620 1.379 . S
C621 C622 1.404 . S
C621 H635 0.929 . S
C622 C621 1.404 . S
C622 C623 1.389 . S
C623 C622 1.389 . S
C623 C624 1.399 . S
C623 H636 0.931 . S
C624 C623 1.399 . S
C624 C625 1.390 . S
C625 C620 1.392 . S
C625 C624 1.390 . S
C625 H637 0.929 . S
O626 Tb610 2.326 . S
O626 C614 1.242 . S
O627 Eu611 2.324 . S
O627 C614 1.258 . S
O628 Tb610 2.500 1_556 S
O628 C630 1.273 . S
O629 Tb610 2.473 1_556 S
O629 C630 1.257 . S
C630 O628 1.273 . S
C630 O629 1.257 . S
O631 Eu611 2.326 . S
O631 C619 1.242 . S
O632 Tb610 2.324 . S
O632 C619 1.258 . S
O633 Eu611 2.500 . S
O633 C616 1.273 . S
O634 Eu611 2.473 . S
O634 C616 1.257 . S
H635 C621 0.929 . S
H636 C623 0.931 . S
H637 C625 0.929 . S
O638 Tb639 2.292 . S
O638 C641 1.255 . S
Tb639 O638 2.292 . S
Tb639 O655 2.326 . S
Tb639 O657 2.500 1_554 S
Tb639 O658 2.473 1_554 S
Tb639 O661 2.324 . S
Eu640 O644 2.292 . S
Eu640 C645 2.852 . S
Eu640 O656 2.324 . S
Eu640 O660 2.326 . S
Eu640 O662 2.500 . S
Eu640 O663 2.473 . S
C641 O638 1.255 . S
C641 O642 1.247 . S
O642 C641 1.247 . S
C643 O655 1.242 . S
C643 O656 1.258 . S
O644 Eu640 2.292 . S
O644 C646 1.255 . S
C645 Eu640 2.852 . S
C645 C649 1.503 . S
C645 O662 1.273 . S
C645 O663 1.257 . S
C646 O644 1.255 . S
C646 O647 1.247 1_554 S
O647 C646 1.247 1_556 S
C648 O660 1.242 . S
C648 O661 1.258 . S
C649 C645 1.503 . S
C649 C650 1.379 . S
C649 C654 1.392 . S
C650 C649 1.379 . S
C650 C651 1.404 . S
C650 H664 0.929 . S
C651 C650 1.404 . S
C651 C652 1.389 . S
C652 C651 1.389 . S
C652 C653 1.399 . S
C652 H665 0.931 . S
C653 C652 1.399 . S
C653 C654 1.390 . S
C654 C649 1.392 . S
C654 C653 1.390 . S
C654 H666 0.929 . S
O655 Tb639 2.326 . S
O655 C643 1.242 . S
O656 Eu640 2.324 . S
O656 C643 1.258 . S
O657 Tb639 2.500 1_556 S
O657 C659 1.273 . S
O658 Tb639 2.473 1_556 S
O658 C659 1.257 . S
C659 O657 1.273 . S
C659 O658 1.257 . S
O660 Eu640 2.326 . S
O660 C648 1.242 . S
O661 Tb639 2.324 . S
O661 C648 1.258 . S
O662 Eu640 2.500 . S
O662 C645 1.273 . S
O663 Eu640 2.473 . S
O663 C645 1.257 . S
H664 C650 0.929 . S
H665 C652 0.931 . S
H666 C654 0.929 . S
O667 Tb668 2.292 . S
O667 C670 1.255 . S
Tb668 O667 2.292 . S
Tb668 O684 2.326 . S
Tb668 O686 2.500 1_554 S
Tb668 O687 2.473 1_554 S
Tb668 O690 2.324 . S
Eu669 O673 2.292 . S
Eu669 C674 2.852 . S
Eu669 O685 2.324 . S
Eu669 O689 2.326 . S
Eu669 O691 2.500 . S
Eu669 O692 2.473 . S
C670 O667 1.255 . S
C670 O671 1.247 . S
O671 C670 1.247 . S
C672 O684 1.242 . S
C672 O685 1.258 . S
O673 Eu669 2.292 . S
O673 C675 1.255 . S
C674 Eu669 2.852 . S
C674 C678 1.503 . S
C674 O691 1.273 . S
C674 O692 1.257 . S
C675 O673 1.255 . S
C675 O676 1.247 1_554 S
O676 C675 1.247 1_556 S
C677 O689 1.242 . S
C677 O690 1.258 . S
C678 C674 1.503 . S
C678 C679 1.379 . S
C678 C683 1.392 . S
C679 C678 1.379 . S
C679 C680 1.404 . S
C679 H693 0.929 . S
C680 C679 1.404 . S
C680 C681 1.389 . S
C681 C680 1.389 . S
C681 C682 1.399 . S
C681 H694 0.931 . S
C682 C681 1.399 . S
C682 C683 1.390 . S
C683 C678 1.392 . S
C683 C682 1.390 . S
C683 H695 0.929 . S
O684 Tb668 2.326 . S
O684 C672 1.242 . S
O685 Eu669 2.324 . S
O685 C672 1.258 . S
O686 Tb668 2.500 1_556 S
O686 C688 1.273 . S
O687 Tb668 2.473 1_556 S
O687 C688 1.257 . S
C688 O686 1.273 . S
C688 O687 1.257 . S
O689 Eu669 2.326 . S
O689 C677 1.242 . S
O690 Tb668 2.324 . S
O690 C677 1.258 . S
O691 Eu669 2.500 . S
O691 C674 1.273 . S
O692 Eu669 2.473 . S
O692 C674 1.257 . S
H693 C679 0.929 . S
H694 C681 0.931 . S
H695 C683 0.929 . S
C8 C382 3.802 . S
C37 C411 3.802 . S
C66 C440 3.802 . S
C95 C353 3.802 . S
C124 C324 3.802 . S
C153 C237 3.802 . S
C182 C266 3.802 . S
C211 C295 3.802 . S
C240 C34 3.802 . S
C269 C63 3.802 . S
C298 C92 3.802 . S
C327 C5 3.802 . S
C208 C356 3.802 . S
C385 C121 3.802 . S
C414 C150 3.802 . S
C443 C179 3.802 . S
C472 C643 3.802 . S
C501 C527 3.802 . S
C530 C556 3.802 . S
C559 C585 3.802 . S
C588 C498 3.802 . S
C617 C672 3.802 . S
C646 C614 3.802 . S
C675 C469 3.802 . S
C3 C641 3.305 . S
C32 C467 3.305 . S
C670 C61 3.305 . S
C612 C90 3.305 . S
C119 C525 3.305 . S
C148 C554 3.305 . S
C583 C177 3.305 . S
C496 C206 3.305 . S
C380 C235 3.305 . S
C409 C264 3.305 . S
C438 C293 3.305 . S
C322 C351 3.305 . S
C79 C21 1.531 1_455 S
C108 C50 1.531 1_545 S
C195 C137 1.531 1_455 S
C224 C166 1.531 1_545 S
C369 C253 1.531 1_545 S
C282 C398 1.531 1_455 S
C311 C427 1.531 1_545 S
C456 C340 1.531 1_455 S
C572 C485 1.531 1_554 S
C514 C630 1.531 1_554 S
C543 C659 1.531 1_554 S
C601 C688 1.531 1_554 S
C245 C15 0.967 . S
C44 C274 0.967 . S
C73 C303 0.967 . S
C332 C102 0.967 . S
C131 C361 0.967 . S
C160 C390 0.967 . S
C419 C189 0.967 . S
C218 C448 0.967 . S
C477 C247 0.967 . S
C680 C276 0.967 . S
C622 C305 0.967 . S
C651 C334 0.967 . S
C363 C506 0.967 . S
C392 C535 0.967 . S
C421 C564 0.967 . S
C450 C593 0.967 . S
C479 C13 0.967 . S
C129 C508 0.967 . S
C158 C537 0.967 . S
C566 C187 0.967 . S
C595 C216 0.967 . S
C624 C71 0.967 . S
C653 C100 0.967 . S
C682 C42 0.967 . S
C271 C10 2.754 1_655 S
C300 C39 2.754 1_565 S
C68 C329 2.754 1_655 S
C97 C242 2.754 1_565 S
C445 C126 2.754 1_655 S
C358 C155 2.754 1_565 S
C184 C387 2.754 1_655 S
C213 C416 2.754 1_565 S
C532 C474 2.754 1_556 S
C503 C648 2.754 1_556 S
C561 C677 2.754 1_556 S
C590 C619 2.754 1_556 S
