# Generated by pormake.
# Topology uoo, (4)-cn, num edge types: 1
# Building blocks:
#     Node 0, Type 0, BuildingBlock: QUQFOY_clean_sbu_3, # of connection points: 4
#     Node 1, Type 0, BuildingBlock: QUQFOY_clean_sbu_3, # of connection points: 4
#     Node 2, Type 0, BuildingBlock: QUQFOY_clean_sbu_3, # of connection points: 4
#     Node 3, Type 0, BuildingBlock: QUQFOY_clean_sbu_3, # of connection points: 4
#     Node 4, Type 0, BuildingBlock: QUQFOY_clean_sbu_3, # of connection points: 4
#     Node 5, Type 0, BuildingBlock: QUQFOY_clean_sbu_3, # of connection points: 4
#     Edge 6, Type (0, 0), BuildingBlock: ZUJKAS_clean_linker_0, # of connection points: 2
#     Edge 7, Type (0, 0), BuildingBlock: ZUJKAS_clean_linker_0, # of connection points: 2
#     Edge 8, Type (0, 0), BuildingBlock: ZUJKAS_clean_linker_0, # of connection points: 2
#     Edge 9, Type (0, 0), BuildingBlock: ZUJKAS_clean_linker_0, # of connection points: 2
#     Edge 10, Type (0, 0), BuildingBlock: ZUJKAS_clean_linker_0, # of connection points: 2
#     Edge 11, Type (0, 0), BuildingBlock: ZUJKAS_clean_linker_0, # of connection points: 2
#     Edge 12, Type (0, 0), BuildingBlock: ZUJKAS_clean_linker_0, # of connection points: 2
#     Edge 13, Type (0, 0), BuildingBlock: ZUJKAS_clean_linker_0, # of connection points: 2
#     Edge 14, Type (0, 0), BuildingBlock: ZUJKAS_clean_linker_0, # of connection points: 2
#     Edge 15, Type (0, 0), BuildingBlock: ZUJKAS_clean_linker_0, # of connection points: 2
#     Edge 16, Type (0, 0), BuildingBlock: ZUJKAS_clean_linker_0, # of connection points: 2
#     Edge 17, Type (0, 0), BuildingBlock: ZUJKAS_clean_linker_0, # of connection points: 2
# Relax obj value: 0.208
# Max RMSD: 0.153
# Mean RMSD: 0.152
data_MOF--net-uoo--node1-QUQFOY_clean_sbu_3--edge1-ZUJKAS_clean_linker_0
_symmetry_space_group_name_H-M    P1
_symmetry_Int_Tables_number       1
_symmetry_cell_setting            triclinic
loop_
_symmetry_equiv_pos_as_xyz
'x, y, z'
_cell_length_a     31.416373
_cell_length_b     30.941288
_cell_length_c     55.305211
_cell_angle_alpha  90.167977
_cell_angle_beta   89.872067
_cell_angle_gamma 119.83807
loop_
_atom_site_label
_atom_site_type_symbol
_atom_site_fract_x
_atom_site_fract_y
_atom_site_fract_z
_atom_type_partial_charge
C0 C 0.22751 0.32446 -0.0123 0.0
O1 O 0.21308 0.34177 0.97078 0.0
Cd2 Cd 0.13137 0.32085 0.9625 0.0
O3 O 0.19663 0.28905 0.00114 0.0
Cd4 Cd 0.10418 0.23659 0.00267 0.0
C5 C 0.09188 0.20258 0.94272 0.0
O6 O 0.10392 0.31353 0.00297 0.0
O7 O 0.03125 0.25101 0.00168 0.0
O8 O 0.11889 0.2243 0.04504 0.0
C9 C 0.05857 0.29775 0.00395 0.0
O10 O 0.09803 0.2456 0.93822 0.0
C11 C 0.08131 0.18145 0.04737 0.0
O12 O 0.09593 0.19039 0.96426 0.0
O13 O 0.05533 0.16285 0.02855 0.0
C14 C 0.72677 0.07093 0.33651 0.0
O15 O 0.73814 0.10591 0.35166 0.0
Cd16 Cd 0.8172 0.17076 0.36134 0.0
O17 O 0.75982 0.06592 0.32535 0.0
Cd18 Cd 0.85287 0.11024 0.32562 0.0
C19 C 0.85931 0.09751 0.38698 0.0
O20 O 0.85169 0.18633 0.32221 0.0
O21 O 0.92439 0.19847 0.3268 0.0
O22 O 0.84222 0.08203 0.2835 0.0
C23 C 0.89698 0.21686 0.32267 0.0
O24 O 0.84711 0.13094 0.38861 0.0
C25 C 0.88021 0.0776 0.28235 0.0
O26 O 0.86215 0.08046 0.36633 0.0
O27 O 0.90434 0.08539 0.30184 0.0
C28 C 0.62697 0.87835 0.66629 0.0
O29 O 0.60513 0.83822 0.65419 0.0
Cd30 Cd 0.63781 0.78753 0.64359 0.0
O31 O 0.67058 0.89471 0.67427 0.0
Cd32 Cd 0.73049 0.86185 0.67539 0.0
C33 C 0.74526 0.87264 0.61449 0.0
O34 O 0.66364 0.78082 0.68289 0.0
O35 O 0.72886 0.77904 0.67372 0.0
O36 O 0.74456 0.89344 0.71685 0.0
C37 C 0.6852 0.7559 0.68161 0.0
O38 O 0.7017 0.8358 0.61398 0.0
C39 C 0.78891 0.90373 0.7182 0.0
O40 O 0.76607 0.89167 0.6346 0.0
O41 O 0.80774 0.89804 0.69894 0.0
C42 C 0.73664 0.64199 -0.01391 0.0
O43 O 0.75084 0.62685 0.96806 0.0
Cd44 Cd 0.83248 0.64687 0.95906 0.0
O45 O 0.7677 0.67506 0.00046 0.0
Cd46 Cd 0.85981 0.72566 0.00239 0.0
C47 C 0.87783 0.7681 0.94378 0.0
O48 O 0.86013 0.64894 -0.001 0.0
O49 O 0.93284 0.71164 0.00066 0.0
O50 O 0.85009 0.73037 0.04601 0.0
C51 C 0.90542 0.66465 0.00053 0.0
O52 O 0.87073 0.72544 0.93755 0.0
C53 C 0.88184 0.77611 0.04837 0.0
O54 O 0.8719 0.77716 0.96566 0.0
O55 O 0.9023 0.7996 0.0291 0.0
C56 C 0.22389 0.88177 0.34177 0.0
O57 O 0.21055 0.85105 0.35921 0.0
Cd58 Cd 0.12958 0.78893 0.36946 0.0
O59 O 0.19225 0.88529 0.32865 0.0
Cd60 Cd 0.10009 0.84524 0.32792 0.0
C61 C 0.08535 0.86475 0.38796 0.0
O62 O 0.0984 0.7678 0.3299 0.0
O63 O 0.0261 0.75813 0.32839 0.0
O64 O 0.11032 0.86303 0.28466 0.0
C65 C 0.05298 0.73826 0.32856 0.0
O66 O 0.09432 0.82984 0.39264 0.0
C67 C 0.07802 0.87604 0.28284 0.0
O68 O 0.08889 0.88097 0.36642 0.0
O69 O 0.05715 0.87725 0.30233 0.0
C70 C 0.33079 0.10325 0.64445 0.0
O71 O 0.34791 0.13507 0.62745 0.0
Cd72 Cd 0.32986 0.19938 0.61901 0.0
O73 O 0.29714 0.10049 0.65855 0.0
Cd74 Cd 0.24692 0.14284 0.66351 0.0
C75 C 0.20823 0.12436 0.60397 0.0
O76 O 0.32307 0.21716 0.65968 0.0
O77 O 0.2651 0.23212 0.66795 0.0
O78 O 0.23891 0.11148 0.70502 0.0
C79 C 0.31041 0.24902 0.66407 0.0
O80 O 0.25161 0.15746 0.59818 0.0
C81 C 0.19816 0.10923 0.7094 0.0
O82 O 0.19725 0.10998 0.62587 0.0
O83 O 0.17884 0.12029 0.69207 0.0
H84 H 0.12243 0.12073 0.72616 0.0
H85 H 0.09585 0.1164 0.7681 0.0
H86 H 0.19799 0.06949 0.79048 0.0
H87 H 0.22596 0.07536 0.74863 0.0
H88 H 0.0567 0.04545 0.80331 0.0
H89 H 0.24336 0.19415 0.83018 0.0
H90 H 0.22606 0.17788 0.79901 0.0
H91 H 0.24115 0.13965 0.8175 0.0
C92 C 0.13886 0.10891 0.73995 0.0
C93 C 0.17681 0.09906 0.7341 0.0
C94 C 0.12358 0.1064 0.76395 0.0
C95 C 0.14573 0.09379 0.78257 0.0
C96 C 0.18131 0.08067 0.77654 0.0
H97 H 0.12379 0.13493 0.93869 0.0
H98 H 0.13101 0.09628 0.90118 0.0
C99 C 0.19702 0.08372 0.75258 0.0
C100 C 0.13367 0.0976 0.80827 0.0
H101 H 0.18341 0.162 0.86064 0.0
C102 C 0.0845 0.07062 0.8159 0.0
C103 C 0.16991 0.1305 0.82476 0.0
C104 C 0.22299 0.16256 0.81747 0.0
C105 C 0.07056 0.07647 0.83934 0.0
C106 C 0.10661 0.11027 0.85551 0.0
C107 C 0.15591 0.13576 0.84824 0.0
C108 C 0.0938 0.12457 0.87892 0.0
C109 C 0.01733 0.04703 0.84657 0.0
C110 C 0.06957 0.15231 0.87893 0.0
C111 C 0.06599 0.17487 0.90017 0.0
C112 C 0.08619 0.16979 0.92192 0.0
C113 C 0.10745 0.13911 0.92228 0.0
C114 C 0.11176 0.11717 0.90085 0.0
H115 H -0.0035 0.01384 0.83482 0.0
H116 H 0.01371 0.03468 0.86567 0.0
H117 H 0.00047 0.07102 0.84493 0.0
H118 H 0.05609 0.15914 0.86218 0.0
H119 H 0.04945 0.19831 0.89932 0.0
H120 H 0.96636 0.0781 0.27296 0.0
H121 H 0.00233 0.08115 0.23311 0.0
H122 H 0.87201 0.06424 0.19868 0.0
H123 H 0.83573 0.06106 0.23825 0.0
H124 H 0.95526 0.01159 0.18419 0.0
H125 H 0.0026 0.21074 0.18371 0.0
H126 H -0.00639 0.17657 0.21145 0.0
H127 H 0.94176 0.16495 0.19328 0.0
C128 C 0.94482 0.07372 0.25693 0.0
C129 C 0.89832 0.06981 0.25881 0.0
C130 C 0.96541 0.07536 0.23418 0.0
C131 C 0.93982 0.07303 0.21301 0.0
C132 C 0.89224 0.06593 0.21484 0.0
H133 H -0.00335 0.09548 0.05913 0.0
H134 H 0.96604 0.06372 0.09974 0.0
C135 C 0.87164 0.06426 0.2375 0.0
C136 C 0.96497 0.08497 0.18922 0.0
H137 H 0.01898 0.1795 0.14831 0.0
C138 C 0.96947 0.04829 0.17631 0.0
C139 C -0.0162 0.13299 0.17916 0.0
C140 C 0.98062 0.17388 0.19255 0.0
C141 C -0.00833 0.05836 0.15326 0.0
C142 C 0.00935 0.10618 0.14294 0.0
C143 C 0.00553 0.1429 0.15619 0.0
C144 C 0.031 0.11948 0.11825 0.0
C145 C -0.00363 0.01798 0.14027 0.0
C146 C 0.07791 0.16109 0.11503 0.0
C147 C 0.09532 0.17956 0.09187 0.0
C148 C 0.0661 0.15695 0.07138 0.0
C149 C 0.02016 0.1137 0.07452 0.0
C150 C 0.00271 0.09526 0.09775 0.0
H151 H -0.00635 -0.01106 0.15298 0.0
H152 H 0.96624 -0.00034 0.12689 0.0
H153 H 0.03178 0.03371 0.13039 0.0
H154 H 0.10034 0.18053 0.13056 0.0
H155 H 0.13089 0.21283 0.09014 0.0
H156 H 0.84625 0.12071 0.43284 0.0
H157 H 0.84821 0.08171 0.47026 0.0
H158 H 0.89029 -0.01248 0.43154 0.0
H159 H 0.88634 0.02555 0.39322 0.0
H160 H 0.82156 0.93353 0.46145 0.0
H161 H 0.95292 0.09529 0.51405 0.0
H162 H 0.90786 0.10927 0.5027 0.0
H163 H 0.94638 0.09908 0.48184 0.0
C164 C 0.85671 0.09224 0.43209 0.0
C165 C 0.86618 0.07639 0.40984 0.0
C166 C 0.8584 0.07025 0.45374 0.0
C167 C 0.87071 0.03246 0.45401 0.0
C168 C 0.88122 0.01702 0.4319 0.0
H169 H 0.84448 0.92874 0.60502 0.0
H170 H 0.88373 0.9626 0.56576 0.0
C171 C 0.879 0.0388 0.41 0.0
C172 C 0.86703 0.00618 0.47718 0.0
H173 H 0.88579 0.02837 0.53783 0.0
C174 C 0.83667 0.95422 0.47808 0.0
C175 C 0.88804 0.03238 0.49897 0.0
C176 C 0.9261 0.087 0.49923 0.0
C177 C 0.82304 0.9287 0.50023 0.0
C178 C 0.83825 0.95608 0.52218 0.0
C179 C 0.87254 0.00726 0.52118 0.0
C180 C 0.81545 0.93349 0.54594 0.0
C181 C 0.79178 0.87266 0.49974 0.0
C182 C 0.76411 0.90665 0.54813 0.0
C183 C 0.74185 0.88662 0.57029 0.0
C184 C 0.77022 0.89417 0.59116 0.0
C185 C 0.82164 0.9222 0.58926 0.0
C186 C 0.84406 0.94146 0.56681 0.0
H187 H 0.80122 0.85693 0.48388 0.0
H188 H 0.79635 0.85545 0.5164 0.0
H189 H 0.75263 0.86215 0.49791 0.0
H190 H 0.74093 0.90179 0.53272 0.0
H191 H 0.70214 0.86603 0.57116 0.0
H192 H 0.9399 0.79018 0.90578 0.0
H193 H 0.94334 0.83641 0.86937 0.0
H194 H 0.8367 0.86958 0.90054 0.0
H195 H 0.83583 0.82608 0.93758 0.0
H196 H 0.86901 0.80524 0.84119 0.0
H197 H 0.91717 -0.00235 0.86689 0.0
H198 H 0.92964 0.95847 0.88638 0.0
H199 H 0.86905 0.95093 0.88492 0.0
C200 C 0.91871 0.80907 0.90517 0.0
C201 C 0.88783 0.80487 0.92449 0.0
C202 C 0.92052 0.83536 0.88434 0.0
C203 C 0.89056 0.85699 0.8821 0.0
C204 C 0.86139 0.85479 0.90193 0.0
H205 H 0.75512 0.91439 0.7621 0.0
H206 H 0.7879 0.91233 0.80183 0.0
C207 C 0.86063 0.82959 0.9231 0.0
C208 C 0.88437 0.8745 0.85794 0.0
H209 H 0.88004 0.96897 0.82806 0.0
C210 C 0.8724 0.84148 0.83832 0.0
C211 C 0.88791 0.92147 0.85412 0.0
C212 C 0.90211 0.95935 0.87415 0.0
C213 C 0.86272 0.85335 0.8153 0.0
C214 C 0.86573 0.89998 0.81152 0.0
C215 C 0.87815 0.93341 0.83097 0.0
C216 C 0.85219 0.91228 0.78785 0.0
C217 C 0.84731 0.81487 0.79541 0.0
C218 C 0.87872 0.9154 0.76681 0.0
C219 C 0.85995 0.91635 0.74399 0.0
C220 C 0.81441 0.91439 0.74187 0.0
C221 C 0.79013 0.91561 0.76306 0.0
C222 C 0.80887 0.91457 0.78584 0.0
H223 H 0.83745 0.77746 0.8025 0.0
H224 H 0.81536 0.81178 0.78535 0.0
H225 H 0.87807 0.82632 0.78245 0.0
H226 H 0.91259 0.91434 0.768 0.0
H227 H 0.87971 0.91568 0.72805 0.0
H228 H 0.01925 0.91626 0.27262 0.0
H229 H -0.01313 0.92097 0.23296 0.0
H230 H 0.06679 0.85648 0.19965 0.0
H231 H 0.10095 0.85411 0.23875 0.0
H232 H 0.06847 0.92508 0.17125 0.0
H233 H 0.87619 0.80219 0.20182 0.0
H234 H 0.909 0.86046 0.21757 0.0
H235 H 0.92801 0.81462 0.22045 0.0
C236 C 0.03038 0.90377 0.25675 0.0
C237 C 0.06234 0.88441 0.25886 0.0
C238 C 0.01151 0.90606 0.23411 0.0
C239 C 0.02327 0.88783 0.21332 0.0
C240 C 0.05691 0.87063 0.21536 0.0
H241 H 0.86595 0.72872 0.09149 0.0
H242 H 0.899 0.76515 0.13085 0.0
C243 C 0.07641 0.8692 0.2378 0.0
C244 C -0.00082 0.88373 0.18955 0.0
H245 H 0.88828 0.82323 0.16088 0.0
C246 C 0.02901 0.90319 0.16896 0.0
C247 C 0.94761 0.85529 0.18657 0.0
C248 C 0.91325 0.83157 0.2077 0.0
C249 C 0.00922 0.89218 0.14549 0.0
C250 C 0.95775 0.86228 0.14249 0.0
C251 C 0.92769 0.84592 0.16314 0.0
C252 C 0.93483 0.8417 0.1185 0.0
C253 C 0.04412 0.90998 0.12428 0.0
C254 C 0.94275 0.87241 0.09832 0.0
C255 C 0.92474 0.85138 0.07549 0.0
C256 C 0.8972 0.79933 0.0726 0.0
C257 C 0.88696 0.76893 0.09306 0.0
C258 C 0.90584 0.78982 0.11566 0.0
H259 H 0.08252 0.92268 0.12988 0.0
H260 H 0.03328 0.88 0.11058 0.0
H261 H 0.04347 0.94196 0.11564 0.0
H262 H 0.96354 0.91255 0.1001 0.0
H263 H 0.93277 0.87577 0.06008 0.0
H264 H 0.20786 0.16073 0.55926 0.0
H265 H 0.16317 0.11307 0.5237 0.0
H266 H 0.08532 0.98136 0.56755 0.0
H267 H 0.12997 0.02907 0.60343 0.0
H268 H 0.14313 0.97535 0.52969 0.0
H269 H 0.02269 0.04471 0.49501 0.0
H270 H 0.08336 0.09298 0.5031 0.0
H271 H 0.04279 0.05247 0.52612 0.0
C272 C 0.1801 0.12198 0.56152 0.0
C273 C 0.17274 0.09855 0.58414 0.0
C274 C 0.15427 0.09485 0.54116 0.0
C275 C 0.12067 0.04373 0.54296 0.0
C276 C 0.11078 0.02092 0.56581 0.0
H277 H 0.0366 0.82071 0.42931 0.0
H278 H 0.03518 0.86186 0.46682 0.0
C279 C 0.13626 0.04824 0.58631 0.0
C280 C 0.10341 0.01307 0.52063 0.0
H281 H 0.04433 -0.00053 0.46689 0.0
C282 C 0.12072 0.97989 0.51615 0.0
C283 C 0.07497 0.01981 0.50283 0.0
C284 C 0.05446 0.05411 0.50702 0.0
C285 C 0.11207 0.95465 0.49403 0.0
C286 C 0.08395 0.96157 0.47605 0.0
C287 C 0.06571 -0.00594 0.48068 0.0
C288 C 0.07504 0.93642 0.45216 0.0
C289 C 0.13524 0.92262 0.48975 0.0
C290 C 0.09466 0.96442 0.43095 0.0
C291 C 0.09458 0.94078 0.40925 0.0
C292 C 0.07532 0.88892 0.4086 0.0
C293 C 0.05227 0.86081 0.42937 0.0
C294 C 0.05159 0.88428 0.45085 0.0
H295 H 0.16558 0.93148 0.50265 0.0
H296 H 0.10712 0.88288 0.49223 0.0
H297 H 0.14997 0.92743 0.47108 0.0
H298 H 0.1127 0.00471 0.43153 0.0
H299 H 0.11268 0.96334 0.39352 0.0
H300 H 0.27418 0.31928 0.02887 0.0
H301 H 0.36147 0.37313 0.03907 0.0
H302 H 0.3873 0.44198 0.96888 0.0
H303 H 0.30137 0.38876 0.95847 0.0
H304 H 0.45248 0.39093 0.00949 0.0
H305 H 0.43119 0.55703 0.0222 0.0
H306 H 0.38062 0.49397 0.02506 0.0
H307 H 0.40139 0.52099 -0.00435 0.0
C308 C 0.29872 0.34528 0.01549 0.0
C309 C 0.28073 0.35008 -0.00705 0.0
C310 C 0.34836 0.37616 0.02141 0.0
C311 C 0.38024 0.41216 0.00489 0.0
C312 C 0.36289 0.41506 -0.01798 0.0
H313 H 0.66198 0.58002 0.95647 0.0
H314 H 0.57638 0.52557 0.96725 0.0
C315 C 0.31375 0.38439 0.97609 0.0
C316 C 0.43188 0.44761 0.01098 0.0
H317 H 0.51252 0.57273 0.01257 0.0
C318 C 0.46566 0.43058 0.0109 0.0
C319 C 0.44879 0.49923 0.01304 0.0
C320 C 0.4136 0.51901 0.01423 0.0
C321 C 0.51629 0.46435 0.0107 0.0
C322 C 0.53312 0.5161 0.01036 0.0
C323 C 0.49941 0.53301 0.01263 0.0
C324 C 0.58445 0.55233 0.00404 0.0
C325 C 0.55144 0.44452 0.00947 0.0
C326 C 0.61672 0.58712 0.0209 0.0
C327 C 0.6661 0.61871 0.01477 0.0
C328 C 0.6835 0.61588 -0.00834 0.0
C329 C 0.65006 0.58289 0.9745 0.0
C330 C 0.60112 0.55149 -0.01935 0.0
H331 H 0.53447 0.40587 0.01654 0.0
H332 H 0.56193 0.44403 -0.00967 0.0
H333 H 0.58539 0.46862 0.01988 0.0
H334 H 0.60415 0.58862 0.03897 0.0
H335 H 0.69094 0.64366 0.0284 0.0
H336 H -0.00942 0.29456 0.33072 0.0
H337 H 0.01665 0.38386 0.33208 0.0
H338 H 0.86929 0.34963 0.31488 0.0
H339 H 0.84302 0.26124 0.31364 0.0
H340 H 0.00803 0.44455 0.29491 0.0
H341 H 0.9018 0.43344 0.37736 0.0
H342 H 0.91506 0.38495 0.36887 0.0
H343 H 0.86662 0.38958 0.35407 0.0
C344 C 0.9639 0.30622 0.32719 0.0
C345 C 0.91472 0.27091 0.32231 0.0
C346 C 0.97875 0.35706 0.328 0.0
C347 C 0.94455 0.37302 0.32407 0.0
C348 C 0.89591 0.33792 0.31852 0.0
H349 H 0.95813 0.66224 0.32124 0.0
H350 H 0.92989 0.57238 0.31957 0.0
C351 C 0.8811 0.28742 0.31771 0.0
C352 C 0.95936 0.42637 0.32537 0.0
H353 H 0.93701 0.50952 0.35554 0.0
C354 C -0.0072 0.45889 0.30824 0.0
C355 C 0.9389 0.44466 0.34265 0.0
C356 C 0.90391 0.41149 0.36193 0.0
C357 C 0.00595 0.50934 0.30773 0.0
C358 C -0.01427 0.52772 0.3251 0.0
C359 C 0.95212 0.49514 0.34217 0.0
C360 C 0.00156 0.58131 0.32674 0.0
C361 C 0.04088 0.54239 0.28839 0.0
C362 C 0.05065 0.61549 0.33196 0.0
C363 C 0.06668 0.66623 0.33287 0.0
C364 C 0.03385 0.68396 0.32881 0.0
C365 C -0.0158 0.6496 0.32436 0.0
C366 C 0.96812 0.59845 0.32338 0.0
H367 H 0.04184 0.52037 0.27271 0.0
H368 H 0.03058 0.56986 0.28188 0.0
H369 H 0.07848 0.5632 0.29602 0.0
H370 H 0.07672 0.60289 0.33521 0.0
H371 H 0.10509 0.69163 0.33663 0.0
H372 H 0.393 0.09095 0.61467 0.0
H373 H 0.44012 0.05005 0.62375 0.0
H374 H 0.37046 0.00636 0.69361 0.0
H375 H 0.3231 0.04808 0.6848 0.0
H376 H 0.47626 0.05263 0.69407 0.0
H377 H 0.39021 0.89959 0.62688 0.0
H378 H 0.40999 0.96005 0.61426 0.0
H379 H 0.36187 0.93519 0.63654 0.0
C380 C 0.38709 0.07218 0.63189 0.0
C381 C 0.35416 0.07271 0.64901 0.0
C382 C 0.41406 0.04874 0.63701 0.0
C383 C 0.40851 0.02501 0.65926 0.0
C384 C 0.3751 0.0245 0.6763 0.0
H385 H 0.5318 0.83386 0.67871 0.0
H386 H 0.47979 0.87136 0.68175 0.0
C387 C 0.34784 0.04796 0.67116 0.0
C388 C 0.43888 0.00202 0.66466 0.0
H389 H 0.46702 0.91601 0.64316 0.0
C390 C 0.47396 0.02231 0.6832 0.0
C391 C 0.43552 0.96241 0.65049 0.0
C392 C 0.39706 0.93768 0.63107 0.0
C393 C 0.50685 0.00478 0.68747 0.0
C394 C 0.50478 0.96659 0.67258 0.0
C395 C 0.46883 0.9456 0.65447 0.0
C396 C 0.53863 0.94661 0.6754 0.0
C397 C 0.54323 0.02702 0.70789 0.0
C398 C 0.58948 0.97681 0.67171 0.0
C399 C 0.61964 0.95536 0.67029 0.0
C400 C 0.59889 0.9035 0.67206 0.0
C401 C 0.54856 0.87395 0.67702 0.0
C402 C 0.51882 0.89529 0.67881 0.0
H403 H 0.53183 0.04611 0.7213 0.0
H404 H 0.54779 -0.00207 0.71731 0.0
H405 H 0.57943 0.05494 0.70045 0.0
H406 H 0.60539 0.01642 0.66863 0.0
H407 H 0.65833 0.97875 0.66633 0.0
H408 H 0.30515 0.3265 0.68547 0.0
H409 H 0.37216 0.41348 0.68882 0.0
H410 H 0.46569 0.3778 0.64619 0.0
H411 H 0.39973 0.29167 0.64286 0.0
H412 H 0.47109 0.43994 0.70892 0.0
H413 H 0.47736 0.50682 0.61502 0.0
H414 H 0.42315 0.45459 0.62769 0.0
H415 H 0.47363 0.44714 0.61788 0.0
C416 C 0.33974 0.33759 0.67649 0.0
C417 C 0.34734 0.30246 0.66397 0.0
C418 C 0.37793 0.38701 0.6785 0.0
C419 C 0.4236 0.40182 0.66763 0.0
C420 C 0.43054 0.36712 0.65448 0.0
H421 H 0.69869 0.68469 0.65859 0.0
H422 H 0.63925 0.5948 0.6571 0.0
C423 C 0.39283 0.31792 0.65269 0.0
C424 C 0.46538 0.4526 0.67111 0.0
H425 H 0.54303 0.55912 0.64086 0.0
C426 C 0.48674 0.4662 0.69411 0.0
C427 C 0.48606 0.48613 0.65161 0.0
C428 C 0.4638 0.47329 0.62665 0.0
C429 C 0.52857 0.51276 0.69814 0.0
C430 C 0.54883 0.54671 0.67873 0.0
C431 C 0.52771 0.53278 0.65565 0.0
C432 C 0.58853 0.59867 0.68239 0.0
C433 C 0.55097 0.525 0.72308 0.0
C434 C 0.58003 0.63007 0.69744 0.0
C435 C 0.61356 0.68087 0.69826 0.0
C436 C 0.65622 0.70136 0.68399 0.0
C437 C 0.66627 0.66966 0.66991 0.0
C438 C 0.6323 0.61853 0.66896 0.0
H439 H 0.54173 0.49069 0.73342 0.0
H440 H 0.59152 0.54867 0.72216 0.0
H441 H 0.5362 0.54567 0.73322 0.0
H442 H 0.54614 0.61576 0.70758 0.0
H443 H 0.60496 0.70457 0.70926 0.0
H444 H 0.85094 0.5642 -0.00298 0.0
H445 H 0.87855 0.50352 -0.00207 0.0
H446 H 0.02856 0.62207 0.0046 0.0
H447 H 0.00094 0.68387 0.00398 0.0
H448 H 0.94297 0.49369 0.96654 0.0
H449 H 0.01077 0.528 0.06137 0.0
H450 H 0.97176 0.55046 0.04963 0.0
H451 H 0.03586 0.58185 0.04211 0.0
C452 C 0.8899 0.57767 -0.00129 0.0
C453 C 0.92382 0.62897 0.00053 0.0
C454 C 0.90556 0.54278 -0.00082 0.0
C455 C 0.95544 0.55821 0.00158 0.0
C456 C -0.01026 0.60941 0.00311 0.0
H457 H 0.1131 0.39796 0.00861 0.0
H458 H 0.08573 0.45887 0.008 0.0
C459 C 0.97401 0.64464 0.00262 0.0
C460 C 0.97079 0.52009 0.00232 0.0
H461 H 0.0215 0.4691 0.03887 0.0
C462 C 0.96016 0.48826 -0.01767 0.0
C463 C -0.00719 0.51294 0.02304 0.0
C464 C 0.00319 0.54477 0.04538 0.0
C465 C 0.97171 0.44989 -0.01766 0.0
C466 C -0.00633 0.44269 0.00307 0.0
C467 C 0.00432 0.47455 0.02306 0.0
C468 C 0.00887 0.40444 0.00384 0.0
C469 C 0.96141 0.41816 0.95997 0.0
C470 C 0.97451 0.3533 0.00201 0.0
C471 C -0.00989 0.31798 0.0023 0.0
C472 C 0.04025 0.33347 0.00448 0.0
C473 C 0.0742 0.38467 0.00677 0.0
C474 C 0.05867 0.41967 0.00648 0.0
H475 H 0.9543 0.43523 0.94395 0.0
H476 H -0.00734 0.41212 0.95583 0.0
H477 H 0.92844 0.38123 0.96311 0.0
H478 H 0.93574 0.34077 0.00037 0.0
H479 H 0.96314 0.27881 0.00063 0.0
H480 H 0.68492 0.02406 0.29351 0.0
H481 H 0.59772 -0.01237 0.28233 0.0
H482 H 0.56417 0.0126 0.35488 0.0
H483 H 0.6501 0.0485 0.36613 0.0
H484 H 0.50062 0.90481 0.31482 0.0
H485 H 0.52862 0.09444 0.29874 0.0
H486 H 0.5764 0.07884 0.29395 0.0
H487 H 0.56112 0.08828 0.32407 0.0
C488 C 0.6586 0.02044 0.30717 0.0
C489 C 0.67425 0.03938 0.33064 0.0
C490 C 0.60907 6e-05 0.30072 0.0
C491 C 0.57506 -0.00165 0.31774 0.0
C492 C 0.59016 0.0142 0.34148 0.0
H493 H 0.30046 0.89618 0.37 0.0
H494 H 0.38445 0.92441 0.35731 0.0
C495 C 0.63922 0.03455 0.34787 0.0
C496 C 0.52393 0.98266 0.31117 0.0
H497 H 0.44696 0.03067 0.3088 0.0
C498 C 0.48876 0.93205 0.31265 0.0
C499 C 0.50877 0.01838 0.30824 0.0
C500 C 0.54563 0.0731 0.30596 0.0
C501 C 0.43856 0.91663 0.3134 0.0
C502 C 0.42364 0.9529 0.31304 0.0
C503 C 0.45859 0.00304 0.30925 0.0
C504 C 0.37358 0.94022 0.32051 0.0
C505 C 0.40197 0.86191 0.3161 0.0
C506 C 0.34044 0.94243 0.30428 0.0
C507 C 0.29202 0.92643 0.31154 0.0
C508 C 0.2765 0.90829 0.33513 0.0
C509 C 0.31099 0.90938 0.35164 0.0
C510 C 0.35896 0.92519 0.34439 0.0
H511 H 0.41683 0.83846 0.30898 0.0
H512 H 0.39353 0.85314 0.33557 0.0
H513 H 0.36719 0.85193 0.30655 0.0
H514 H 0.35145 0.95465 0.28584 0.0
H515 H 0.26628 0.92592 0.29839 0.0
loop_
_geom_bond_atom_site_label_1
_geom_bond_atom_site_label_2
_geom_bond_distance
_geom_bond_site_symmetry_2
_ccdc_geom_bond_type
C0 O1 1.306 . S
C0 O3 1.160 . S
O1 C0 1.306 . S
O1 Cd2 2.228 1_554 S
Cd2 O1 2.228 1_556 S
Cd2 O6 2.273 1_556 S
Cd2 O10 2.277 . S
O3 C0 1.160 . S
O3 Cd4 2.203 . S
Cd4 O3 2.203 . S
Cd4 O6 2.411 . S
Cd4 O7 2.333 . S
Cd4 O8 2.352 . S
Cd4 O12 2.277 1_554 S
Cd4 O13 2.356 . S
C5 O10 1.209 . S
C5 O12 1.226 . S
O6 Cd2 2.273 1_554 S
O6 Cd4 2.411 . S
O6 C9 1.320 . S
O7 Cd4 2.333 . S
O7 C9 1.214 . S
O8 Cd4 2.352 . S
O8 C11 1.258 . S
C9 O6 1.320 . S
C9 O7 1.214 . S
O10 Cd2 2.277 . S
O10 C5 1.209 . S
C11 O8 1.258 . S
C11 O13 1.282 . S
O12 Cd4 2.277 1_556 S
O12 C5 1.226 . S
O13 Cd4 2.356 . S
O13 C11 1.282 . S
C14 O15 1.306 . S
C14 O17 1.160 . S
O15 C14 1.306 . S
O15 Cd16 2.228 . S
Cd16 O15 2.228 . S
Cd16 O20 2.273 . S
Cd16 O24 2.277 . S
O17 C14 1.160 . S
O17 Cd18 2.203 . S
Cd18 O17 2.203 . S
Cd18 O20 2.411 . S
Cd18 O21 2.333 . S
Cd18 O22 2.352 . S
Cd18 O26 2.277 . S
Cd18 O27 2.356 . S
C19 O24 1.209 . S
C19 O26 1.226 . S
O20 Cd16 2.273 . S
O20 Cd18 2.411 . S
O20 C23 1.320 . S
O21 Cd18 2.333 . S
O21 C23 1.214 . S
O22 Cd18 2.352 . S
O22 C25 1.258 . S
C23 O20 1.320 . S
C23 O21 1.214 . S
O24 Cd16 2.277 . S
O24 C19 1.209 . S
C25 O22 1.258 . S
C25 O27 1.282 . S
O26 Cd18 2.277 . S
O26 C19 1.226 . S
O27 Cd18 2.356 . S
O27 C25 1.282 . S
C28 O29 1.306 . S
C28 O31 1.160 . S
O29 C28 1.306 . S
O29 Cd30 2.228 . S
Cd30 O29 2.228 . S
Cd30 O34 2.273 . S
Cd30 O38 2.277 . S
O31 C28 1.160 . S
O31 Cd32 2.203 . S
Cd32 O31 2.203 . S
Cd32 O34 2.411 . S
Cd32 O35 2.333 . S
Cd32 O36 2.352 . S
Cd32 O40 2.277 . S
Cd32 O41 2.356 . S
C33 O38 1.209 . S
C33 O40 1.226 . S
O34 Cd30 2.273 . S
O34 Cd32 2.411 . S
O34 C37 1.320 . S
O35 Cd32 2.333 . S
O35 C37 1.214 . S
O36 Cd32 2.352 . S
O36 C39 1.258 . S
C37 O34 1.320 . S
C37 O35 1.214 . S
O38 Cd30 2.277 . S
O38 C33 1.209 . S
C39 O36 1.258 . S
C39 O41 1.282 . S
O40 Cd32 2.277 . S
O40 C33 1.226 . S
O41 Cd32 2.356 . S
O41 C39 1.282 . S
C42 O43 1.306 . S
C42 O45 1.160 . S
O43 C42 1.306 . S
O43 Cd44 2.228 1_554 S
Cd44 O43 2.228 1_556 S
Cd44 O48 2.273 1_556 S
Cd44 O52 2.277 . S
O45 C42 1.160 . S
O45 Cd46 2.203 . S
Cd46 O45 2.203 . S
Cd46 O48 2.411 . S
Cd46 O49 2.333 . S
Cd46 O50 2.352 . S
Cd46 O54 2.277 1_554 S
Cd46 O55 2.356 . S
C47 O52 1.209 . S
C47 O54 1.226 . S
O48 Cd44 2.273 1_554 S
O48 Cd46 2.411 . S
O48 C51 1.320 . S
O49 Cd46 2.333 . S
O49 C51 1.214 . S
O50 Cd46 2.352 . S
O50 C53 1.258 . S
C51 O48 1.320 . S
C51 O49 1.214 . S
O52 Cd44 2.277 . S
O52 C47 1.209 . S
C53 O50 1.258 . S
C53 O55 1.282 . S
O54 Cd46 2.277 1_556 S
O54 C47 1.226 . S
O55 Cd46 2.356 . S
O55 C53 1.282 . S
C56 O57 1.306 . S
C56 O59 1.160 . S
O57 C56 1.306 . S
O57 Cd58 2.228 . S
Cd58 O57 2.228 . S
Cd58 O62 2.273 . S
Cd58 O66 2.277 . S
O59 C56 1.160 . S
O59 Cd60 2.203 . S
Cd60 O59 2.203 . S
Cd60 O62 2.411 . S
Cd60 O63 2.333 . S
Cd60 O64 2.352 . S
Cd60 O68 2.277 . S
Cd60 O69 2.356 . S
C61 O66 1.209 . S
C61 O68 1.226 . S
O62 Cd58 2.273 . S
O62 Cd60 2.411 . S
O62 C65 1.320 . S
O63 Cd60 2.333 . S
O63 C65 1.214 . S
O64 Cd60 2.352 . S
O64 C67 1.258 . S
C65 O62 1.320 . S
C65 O63 1.214 . S
O66 Cd58 2.277 . S
O66 C61 1.209 . S
C67 O64 1.258 . S
C67 O69 1.282 . S
O68 Cd60 2.277 . S
O68 C61 1.226 . S
O69 Cd60 2.356 . S
O69 C67 1.282 . S
C70 O71 1.306 . S
C70 O73 1.160 . S
O71 C70 1.306 . S
O71 Cd72 2.228 . S
Cd72 O71 2.228 . S
Cd72 O76 2.273 . S
Cd72 O80 2.277 . S
O73 C70 1.160 . S
O73 Cd74 2.203 . S
Cd74 O73 2.203 . S
Cd74 O76 2.411 . S
Cd74 O77 2.333 . S
Cd74 O78 2.352 . S
Cd74 O82 2.277 . S
Cd74 O83 2.356 . S
C75 O80 1.209 . S
C75 O82 1.226 . S
O76 Cd72 2.273 . S
O76 Cd74 2.411 . S
O76 C79 1.320 . S
O77 Cd74 2.333 . S
O77 C79 1.214 . S
O78 Cd74 2.352 . S
O78 C81 1.258 . S
C79 O76 1.320 . S
C79 O77 1.214 . S
O80 Cd72 2.277 . S
O80 C75 1.209 . S
C81 O78 1.258 . S
C81 O83 1.282 . S
O82 Cd74 2.277 . S
O82 C75 1.226 . S
O83 Cd74 2.356 . S
O83 C81 1.282 . S
H84 C92 0.929 . S
H85 C94 0.930 . S
H86 C96 0.930 . S
H87 C99 0.929 . S
H88 C102 0.930 . S
H89 C104 0.960 . S
H90 C104 0.960 . S
H91 C104 0.960 . S
C92 H84 0.929 . S
C92 C93 1.377 . S
C92 C94 1.384 . S
C93 C92 1.377 . S
C93 C99 1.390 . S
C94 H85 0.930 . S
C94 C92 1.384 . S
C94 C95 1.372 . S
C95 C94 1.372 . S
C95 C96 1.400 . S
C95 C100 1.490 . S
C96 H86 0.930 . S
C96 C95 1.400 . S
C96 C99 1.386 . S
H97 C113 0.930 . S
H98 C114 0.931 . S
C99 H87 0.929 . S
C99 C93 1.390 . S
C99 C96 1.386 . S
C100 C95 1.490 . S
C100 C102 1.395 . S
C100 C103 1.403 . S
H101 C107 0.930 . S
C102 H88 0.930 . S
C102 C100 1.395 . S
C102 C105 1.403 . S
C103 C100 1.403 . S
C103 C104 1.524 . S
C103 C107 1.400 . S
C104 H89 0.960 . S
C104 H90 0.960 . S
C104 H91 0.960 . S
C104 C103 1.524 . S
C105 C102 1.403 . S
C105 C106 1.392 . S
C105 C109 1.495 . S
C106 C105 1.392 . S
C106 C107 1.385 . S
C106 C108 1.478 . S
C107 H101 0.930 . S
C107 C103 1.400 . S
C107 C106 1.385 . S
C108 C106 1.478 . S
C108 C110 1.381 . S
C108 C114 1.383 . S
C109 C105 1.495 . S
C109 H115 0.959 . S
C109 H116 0.961 . S
C109 H117 0.960 . S
C110 C108 1.381 . S
C110 C111 1.394 . S
C110 H118 0.930 . S
C111 C110 1.394 . S
C111 C112 1.383 . S
C111 H119 0.929 . S
C112 C111 1.383 . S
C112 C113 1.377 . S
C113 H97 0.930 . S
C113 C112 1.377 . S
C113 C114 1.379 . S
C114 H98 0.931 . S
C114 C108 1.383 . S
C114 C113 1.379 . S
H115 C109 0.959 . S
H116 C109 0.961 . S
H117 C109 0.960 . S
H118 C110 0.930 . S
H119 C111 0.929 . S
H120 C128 0.929 . S
H121 C130 0.930 1_455 S
H122 C132 0.930 . S
H123 C135 0.929 . S
H124 C138 0.930 . S
H125 C140 0.960 1_455 S
H126 C140 0.960 1_455 S
H127 C140 0.960 . S
C128 H120 0.929 . S
C128 C129 1.377 . S
C128 C130 1.384 . S
C129 C128 1.377 . S
C129 C135 1.390 . S
C130 H121 0.930 1_655 S
C130 C128 1.384 . S
C130 C131 1.372 . S
C131 C130 1.372 . S
C131 C132 1.400 . S
C131 C136 1.490 . S
C132 H122 0.930 . S
C132 C131 1.400 . S
C132 C135 1.386 . S
H133 C149 0.930 . S
H134 C150 0.931 1_655 S
C135 H123 0.929 . S
C135 C129 1.390 . S
C135 C132 1.386 . S
C136 C131 1.490 . S
C136 C138 1.395 . S
C136 C139 1.403 . S
H137 C143 0.930 . S
C138 H124 0.930 . S
C138 C136 1.395 . S
C138 C141 1.403 1_655 S
C139 C136 1.403 . S
C139 C140 1.524 . S
C139 C143 1.400 1_655 S
C140 H125 0.960 1_655 S
C140 H126 0.960 1_655 S
C140 H127 0.960 . S
C140 C139 1.524 . S
C141 C138 1.403 1_455 S
C141 C142 1.392 . S
C141 C145 1.495 . S
C142 C141 1.392 . S
C142 C143 1.385 . S
C142 C144 1.478 . S
C143 H137 0.930 . S
C143 C139 1.400 1_455 S
C143 C142 1.385 . S
C144 C142 1.478 . S
C144 C146 1.381 . S
C144 C150 1.383 . S
C145 C141 1.495 . S
C145 H151 0.959 1_455 S
C145 H152 0.961 1_455 S
C145 H153 0.960 . S
C146 C144 1.381 . S
C146 C147 1.394 . S
C146 H154 0.930 . S
C147 C146 1.394 . S
C147 C148 1.383 . S
C147 H155 0.929 . S
C148 C147 1.383 . S
C148 C149 1.377 . S
C149 H133 0.930 . S
C149 C148 1.377 . S
C149 C150 1.379 . S
C150 H134 0.931 1_455 S
C150 C144 1.383 . S
C150 C149 1.379 . S
H151 C145 0.959 1_655 S
H152 C145 0.961 1_655 S
H153 C145 0.960 . S
H154 C146 0.930 . S
H155 C147 0.929 . S
H156 C164 0.929 . S
H157 C166 0.930 . S
H158 C168 0.930 . S
H159 C171 0.929 . S
H160 C174 0.930 . S
H161 C176 0.960 . S
H162 C176 0.960 . S
H163 C176 0.960 . S
C164 H156 0.929 . S
C164 C165 1.377 . S
C164 C166 1.384 . S
C165 C164 1.377 . S
C165 C171 1.390 . S
C166 H157 0.930 . S
C166 C164 1.384 . S
C166 C167 1.372 . S
C167 C166 1.372 . S
C167 C168 1.400 . S
C167 C172 1.490 . S
C168 H158 0.930 . S
C168 C167 1.400 . S
C168 C171 1.386 . S
H169 C185 0.930 . S
H170 C186 0.931 . S
C171 H159 0.929 . S
C171 C165 1.390 . S
C171 C168 1.386 . S
C172 C167 1.490 . S
C172 C174 1.395 1_545 S
C172 C175 1.403 . S
H173 C179 0.930 . S
C174 H160 0.930 . S
C174 C172 1.395 1_565 S
C174 C177 1.403 . S
C175 C172 1.403 . S
C175 C176 1.524 . S
C175 C179 1.400 . S
C176 H161 0.960 . S
C176 H162 0.960 . S
C176 H163 0.960 . S
C176 C175 1.524 . S
C177 C174 1.403 . S
C177 C178 1.392 . S
C177 C181 1.495 . S
C178 C177 1.392 . S
C178 C179 1.385 1_565 S
C178 C180 1.478 . S
C179 H173 0.930 . S
C179 C175 1.400 . S
C179 C178 1.385 1_545 S
C180 C178 1.478 . S
C180 C182 1.381 . S
C180 C186 1.383 . S
C181 C177 1.495 . S
C181 H187 0.959 . S
C181 H188 0.961 . S
C181 H189 0.960 . S
C182 C180 1.381 . S
C182 C183 1.394 . S
C182 H190 0.930 . S
C183 C182 1.394 . S
C183 C184 1.383 . S
C183 H191 0.929 . S
C184 C183 1.383 . S
C184 C185 1.377 . S
C185 H169 0.930 . S
C185 C184 1.377 . S
C185 C186 1.379 . S
C186 H170 0.931 . S
C186 C180 1.383 . S
C186 C185 1.379 . S
H187 C181 0.959 . S
H188 C181 0.961 . S
H189 C181 0.960 . S
H190 C182 0.930 . S
H191 C183 0.929 . S
H192 C200 0.929 . S
H193 C202 0.930 . S
H194 C204 0.930 . S
H195 C207 0.929 . S
H196 C210 0.930 . S
H197 C212 0.960 . S
H198 C212 0.960 . S
H199 C212 0.960 . S
C200 H192 0.929 . S
C200 C201 1.377 . S
C200 C202 1.384 . S
C201 C200 1.377 . S
C201 C207 1.390 . S
C202 H193 0.930 . S
C202 C200 1.384 . S
C202 C203 1.372 . S
C203 C202 1.372 . S
C203 C204 1.400 . S
C203 C208 1.490 . S
C204 H194 0.930 . S
C204 C203 1.400 . S
C204 C207 1.386 . S
H205 C221 0.930 . S
H206 C222 0.931 . S
C207 H195 0.929 . S
C207 C201 1.390 . S
C207 C204 1.386 . S
C208 C203 1.490 . S
C208 C210 1.395 . S
C208 C211 1.403 . S
H209 C215 0.930 . S
C210 H196 0.930 . S
C210 C208 1.395 . S
C210 C213 1.403 . S
C211 C208 1.403 . S
C211 C212 1.524 . S
C211 C215 1.400 . S
C212 H197 0.960 . S
C212 H198 0.960 . S
C212 H199 0.960 . S
C212 C211 1.524 . S
C213 C210 1.403 . S
C213 C214 1.392 . S
C213 C217 1.495 . S
C214 C213 1.392 . S
C214 C215 1.385 . S
C214 C216 1.478 . S
C215 H209 0.930 . S
C215 C211 1.400 . S
C215 C214 1.385 . S
C216 C214 1.478 . S
C216 C218 1.381 . S
C216 C222 1.383 . S
C217 C213 1.495 . S
C217 H223 0.959 . S
C217 H224 0.961 . S
C217 H225 0.960 . S
C218 C216 1.381 . S
C218 C219 1.394 . S
C218 H226 0.930 . S
C219 C218 1.394 . S
C219 C220 1.383 . S
C219 H227 0.929 . S
C220 C219 1.383 . S
C220 C221 1.377 . S
C221 H205 0.930 . S
C221 C220 1.377 . S
C221 C222 1.379 . S
C222 H206 0.931 . S
C222 C216 1.383 . S
C222 C221 1.379 . S
H223 C217 0.959 . S
H224 C217 0.961 . S
H225 C217 0.960 . S
H226 C218 0.930 . S
H227 C219 0.929 . S
H228 C236 0.929 . S
H229 C238 0.930 . S
H230 C240 0.930 . S
H231 C243 0.929 . S
H232 C246 0.930 . S
H233 C248 0.960 . S
H234 C248 0.960 . S
H235 C248 0.960 . S
C236 H228 0.929 . S
C236 C237 1.377 . S
C236 C238 1.384 . S
C237 C236 1.377 . S
C237 C243 1.390 . S
C238 H229 0.930 . S
C238 C236 1.384 . S
C238 C239 1.372 . S
C239 C238 1.372 . S
C239 C240 1.400 . S
C239 C244 1.490 . S
C240 H230 0.930 . S
C240 C239 1.400 . S
C240 C243 1.386 . S
H241 C257 0.930 . S
H242 C258 0.931 . S
C243 H231 0.929 . S
C243 C237 1.390 . S
C243 C240 1.386 . S
C244 C239 1.490 . S
C244 C246 1.395 . S
C244 C247 1.403 1_455 S
H245 C251 0.930 . S
C246 H232 0.930 . S
C246 C244 1.395 . S
C246 C249 1.403 . S
C247 C244 1.403 1_655 S
C247 C248 1.524 . S
C247 C251 1.400 . S
C248 H233 0.960 . S
C248 H234 0.960 . S
C248 H235 0.960 . S
C248 C247 1.524 . S
C249 C246 1.403 . S
C249 C250 1.392 1_455 S
C249 C253 1.495 . S
C250 C249 1.392 1_655 S
C250 C251 1.385 . S
C250 C252 1.478 . S
C251 H245 0.930 . S
C251 C247 1.400 . S
C251 C250 1.385 . S
C252 C250 1.478 . S
C252 C254 1.381 . S
C252 C258 1.383 . S
C253 C249 1.495 . S
C253 H259 0.959 . S
C253 H260 0.961 . S
C253 H261 0.960 . S
C254 C252 1.381 . S
C254 C255 1.394 . S
C254 H262 0.930 . S
C255 C254 1.394 . S
C255 C256 1.383 . S
C255 H263 0.929 . S
C256 C255 1.383 . S
C256 C257 1.377 . S
C257 H241 0.930 . S
C257 C256 1.377 . S
C257 C258 1.379 . S
C258 H242 0.931 . S
C258 C252 1.383 . S
C258 C257 1.379 . S
H259 C253 0.959 . S
H260 C253 0.961 . S
H261 C253 0.960 . S
H262 C254 0.930 . S
H263 C255 0.929 . S
H264 C272 0.929 . S
H265 C274 0.930 . S
H266 C276 0.930 . S
H267 C279 0.929 . S
H268 C282 0.930 . S
H269 C284 0.960 . S
H270 C284 0.960 . S
H271 C284 0.960 . S
C272 H264 0.929 . S
C272 C273 1.377 . S
C272 C274 1.384 . S
C273 C272 1.377 . S
C273 C279 1.390 . S
C274 H265 0.930 . S
C274 C272 1.384 . S
C274 C275 1.372 . S
C275 C274 1.372 . S
C275 C276 1.400 . S
C275 C280 1.490 . S
C276 H266 0.930 . S
C276 C275 1.400 . S
C276 C279 1.386 . S
H277 C293 0.930 . S
H278 C294 0.931 . S
C279 H267 0.929 . S
C279 C273 1.390 . S
C279 C276 1.386 . S
C280 C275 1.490 . S
C280 C282 1.395 1_545 S
C280 C283 1.403 . S
H281 C287 0.930 . S
C282 H268 0.930 . S
C282 C280 1.395 1_565 S
C282 C285 1.403 . S
C283 C280 1.403 . S
C283 C284 1.524 . S
C283 C287 1.400 . S
C284 H269 0.960 . S
C284 H270 0.960 . S
C284 H271 0.960 . S
C284 C283 1.524 . S
C285 C282 1.403 . S
C285 C286 1.392 . S
C285 C289 1.495 . S
C286 C285 1.392 . S
C286 C287 1.385 1_565 S
C286 C288 1.478 . S
C287 H281 0.930 . S
C287 C283 1.400 . S
C287 C286 1.385 1_545 S
C288 C286 1.478 . S
C288 C290 1.381 . S
C288 C294 1.383 . S
C289 C285 1.495 . S
C289 H295 0.959 . S
C289 H296 0.961 . S
C289 H297 0.960 . S
C290 C288 1.381 . S
C290 C291 1.394 . S
C290 H298 0.930 . S
C291 C290 1.394 . S
C291 C292 1.383 . S
C291 H299 0.929 . S
C292 C291 1.383 . S
C292 C293 1.377 . S
C293 H277 0.930 . S
C293 C292 1.377 . S
C293 C294 1.379 . S
C294 H278 0.931 . S
C294 C288 1.383 . S
C294 C293 1.379 . S
H295 C289 0.959 . S
H296 C289 0.961 . S
H297 C289 0.960 . S
H298 C290 0.930 . S
H299 C291 0.929 . S
H300 C308 0.929 . S
H301 C310 0.930 . S
H302 C312 0.930 . S
H303 C315 0.929 . S
H304 C318 0.930 1_556 S
H305 C320 0.960 . S
H306 C320 0.960 . S
H307 C320 0.960 . S
C308 H300 0.929 . S
C308 C309 1.377 . S
C308 C310 1.384 . S
C309 C308 1.377 . S
C309 C315 1.390 . S
C310 H301 0.930 . S
C310 C308 1.384 . S
C310 C311 1.372 . S
C311 C310 1.372 . S
C311 C312 1.400 . S
C311 C316 1.490 . S
C312 H302 0.930 . S
C312 C311 1.400 . S
C312 C315 1.386 . S
H313 C329 0.930 . S
H314 C330 0.931 . S
C315 H303 0.929 . S
C315 C309 1.390 . S
C315 C312 1.386 . S
C316 C311 1.490 . S
C316 C318 1.395 . S
C316 C319 1.403 . S
H317 C323 0.930 . S
C318 H304 0.930 1_554 S
C318 C316 1.395 . S
C318 C321 1.403 . S
C319 C316 1.403 . S
C319 C320 1.524 . S
C319 C323 1.400 . S
C320 H305 0.960 . S
C320 H306 0.960 . S
C320 H307 0.960 . S
C320 C319 1.524 . S
C321 C318 1.403 . S
C321 C322 1.392 . S
C321 C325 1.495 1_554 S
C322 C321 1.392 . S
C322 C323 1.385 . S
C322 C324 1.478 . S
C323 H317 0.930 . S
C323 C319 1.400 . S
C323 C322 1.385 . S
C324 C322 1.478 . S
C324 C326 1.381 . S
C324 C330 1.383 . S
C325 C321 1.495 1_556 S
C325 H331 0.959 . S
C325 H332 0.961 . S
C325 H333 0.960 . S
C326 C324 1.381 . S
C326 C327 1.394 . S
C326 H334 0.930 . S
C327 C326 1.394 . S
C327 C328 1.383 . S
C327 H335 0.929 . S
C328 C327 1.383 . S
C328 C329 1.377 . S
C329 H313 0.930 . S
C329 C328 1.377 . S
C329 C330 1.379 . S
C330 H314 0.931 . S
C330 C324 1.383 . S
C330 C329 1.379 . S
H331 C325 0.959 . S
H332 C325 0.961 . S
H333 C325 0.960 . S
H334 C326 0.930 . S
H335 C327 0.929 . S
H336 C344 0.929 . S
H337 C346 0.930 1_455 S
H338 C348 0.930 . S
H339 C351 0.929 . S
H340 C354 0.930 . S
H341 C356 0.960 . S
H342 C356 0.960 . S
H343 C356 0.960 . S
C344 H336 0.929 . S
C344 C345 1.377 . S
C344 C346 1.384 . S
C345 C344 1.377 . S
C345 C351 1.390 . S
C346 H337 0.930 1_655 S
C346 C344 1.384 . S
C346 C347 1.372 . S
C347 C346 1.372 . S
C347 C348 1.400 . S
C347 C352 1.490 . S
C348 H338 0.930 . S
C348 C347 1.400 . S
C348 C351 1.386 . S
H349 C365 0.930 . S
H350 C366 0.931 . S
C351 H339 0.929 . S
C351 C345 1.390 . S
C351 C348 1.386 . S
C352 C347 1.490 . S
C352 C354 1.395 1_655 S
C352 C355 1.403 . S
H353 C359 0.930 . S
C354 H340 0.930 . S
C354 C352 1.395 1_455 S
C354 C357 1.403 . S
C355 C352 1.403 . S
C355 C356 1.524 . S
C355 C359 1.400 . S
C356 H341 0.960 . S
C356 H342 0.960 . S
C356 H343 0.960 . S
C356 C355 1.524 . S
C357 C354 1.403 . S
C357 C358 1.392 . S
C357 C361 1.495 . S
C358 C357 1.392 . S
C358 C359 1.385 1_455 S
C358 C360 1.478 . S
C359 H353 0.930 . S
C359 C355 1.400 . S
C359 C358 1.385 1_655 S
C360 C358 1.478 . S
C360 C362 1.381 . S
C360 C366 1.383 . S
C361 C357 1.495 . S
C361 H367 0.959 . S
C361 H368 0.961 . S
C361 H369 0.960 . S
C362 C360 1.381 . S
C362 C363 1.394 . S
C362 H370 0.930 . S
C363 C362 1.394 . S
C363 C364 1.383 . S
C363 H371 0.929 . S
C364 C363 1.383 . S
C364 C365 1.377 . S
C365 H349 0.930 . S
C365 C364 1.377 . S
C365 C366 1.379 . S
C366 H350 0.931 . S
C366 C360 1.383 . S
C366 C365 1.379 . S
H367 C361 0.959 . S
H368 C361 0.961 . S
H369 C361 0.960 . S
H370 C362 0.930 . S
H371 C363 0.929 . S
H372 C380 0.929 . S
H373 C382 0.930 . S
H374 C384 0.930 . S
H375 C387 0.929 1_565 S
H376 C390 0.930 . S
H377 C392 0.960 . S
H378 C392 0.960 1_545 S
H379 C392 0.960 . S
C380 H372 0.929 . S
C380 C381 1.377 . S
C380 C382 1.384 . S
C381 C380 1.377 . S
C381 C387 1.390 . S
C382 H373 0.930 . S
C382 C380 1.384 . S
C382 C383 1.372 . S
C383 C382 1.372 . S
C383 C384 1.400 1_545 S
C383 C388 1.490 . S
C384 H374 0.930 . S
C384 C383 1.400 1_565 S
C384 C387 1.386 1_565 S
H385 C401 0.930 . S
H386 C402 0.931 . S
C387 H375 0.929 1_545 S
C387 C381 1.390 . S
C387 C384 1.386 1_545 S
C388 C383 1.490 . S
C388 C390 1.395 . S
C388 C391 1.403 1_545 S
H389 C395 0.930 . S
C390 H376 0.930 . S
C390 C388 1.395 . S
C390 C393 1.403 . S
C391 C388 1.403 1_565 S
C391 C392 1.524 . S
C391 C395 1.400 . S
C392 H377 0.960 . S
C392 H378 0.960 1_565 S
C392 H379 0.960 . S
C392 C391 1.524 . S
C393 C390 1.403 . S
C393 C394 1.392 1_545 S
C393 C397 1.495 . S
C394 C393 1.392 1_565 S
C394 C395 1.385 . S
C394 C396 1.478 . S
C395 H389 0.930 . S
C395 C391 1.400 . S
C395 C394 1.385 . S
C396 C394 1.478 . S
C396 C398 1.381 1_565 S
C396 C402 1.383 . S
C397 C393 1.495 . S
C397 H403 0.959 . S
C397 H404 0.961 . S
C397 H405 0.960 . S
C398 C396 1.381 1_545 S
C398 C399 1.394 1_545 S
C398 H406 0.930 . S
C399 C398 1.394 1_565 S
C399 C400 1.383 . S
C399 H407 0.929 1_565 S
C400 C399 1.383 . S
C400 C401 1.377 . S
C401 H385 0.930 . S
C401 C400 1.377 . S
C401 C402 1.379 . S
C402 H386 0.931 . S
C402 C396 1.383 . S
C402 C401 1.379 . S
H403 C397 0.959 . S
H404 C397 0.961 . S
H405 C397 0.960 . S
H406 C398 0.930 . S
H407 C399 0.929 1_545 S
H408 C416 0.929 . S
H409 C418 0.930 . S
H410 C420 0.930 . S
H411 C423 0.929 . S
H412 C426 0.930 . S
H413 C428 0.960 . S
H414 C428 0.960 . S
H415 C428 0.960 . S
C416 H408 0.929 . S
C416 C417 1.377 . S
C416 C418 1.384 . S
C417 C416 1.377 . S
C417 C423 1.390 . S
C418 H409 0.930 . S
C418 C416 1.384 . S
C418 C419 1.372 . S
C419 C418 1.372 . S
C419 C420 1.400 . S
C419 C424 1.490 . S
C420 H410 0.930 . S
C420 C419 1.400 . S
C420 C423 1.386 . S
H421 C437 0.930 . S
H422 C438 0.931 . S
C423 H411 0.929 . S
C423 C417 1.390 . S
C423 C420 1.386 . S
C424 C419 1.490 . S
C424 C426 1.395 . S
C424 C427 1.403 . S
H425 C431 0.930 . S
C426 H412 0.930 . S
C426 C424 1.395 . S
C426 C429 1.403 . S
C427 C424 1.403 . S
C427 C428 1.524 . S
C427 C431 1.400 . S
C428 H413 0.960 . S
C428 H414 0.960 . S
C428 H415 0.960 . S
C428 C427 1.524 . S
C429 C426 1.403 . S
C429 C430 1.392 . S
C429 C433 1.495 . S
C430 C429 1.392 . S
C430 C431 1.385 . S
C430 C432 1.478 . S
C431 H425 0.930 . S
C431 C427 1.400 . S
C431 C430 1.385 . S
C432 C430 1.478 . S
C432 C434 1.381 . S
C432 C438 1.383 . S
C433 C429 1.495 . S
C433 H439 0.959 . S
C433 H440 0.961 . S
C433 H441 0.960 . S
C434 C432 1.381 . S
C434 C435 1.394 . S
C434 H442 0.930 . S
C435 C434 1.394 . S
C435 C436 1.383 . S
C435 H443 0.929 . S
C436 C435 1.383 . S
C436 C437 1.377 . S
C437 H421 0.930 . S
C437 C436 1.377 . S
C437 C438 1.379 . S
C438 H422 0.931 . S
C438 C432 1.383 . S
C438 C437 1.379 . S
H439 C433 0.959 . S
H440 C433 0.961 . S
H441 C433 0.960 . S
H442 C434 0.930 . S
H443 C435 0.929 . S
H444 C452 0.929 . S
H445 C454 0.930 . S
H446 C456 0.942 . S
H447 C459 0.935 1_455 S
H448 C462 0.930 . S
H449 C464 0.960 . S
H450 C464 0.960 . S
H451 C464 0.960 . S
C452 H444 0.929 . S
C452 C453 1.377 . S
C452 C454 1.384 . S
C453 C452 1.377 . S
C453 C459 1.390 . S
C454 H445 0.930 . S
C454 C452 1.384 . S
C454 C455 1.372 . S
C455 C454 1.372 . S
C455 C456 1.397 1_655 S
C455 C460 1.490 . S
C456 H446 0.942 . S
C456 C455 1.397 1_455 S
C456 C459 1.377 1_455 S
H457 C473 0.930 . S
H458 C474 0.931 . S
C459 H447 0.935 1_655 S
C459 C453 1.390 . S
C459 C456 1.377 1_655 S
C460 C455 1.490 . S
C460 C462 1.395 1_554 S
C460 C463 1.403 1_655 S
H461 C467 0.930 . S
C462 H448 0.930 . S
C462 C460 1.395 1_556 S
C462 C465 1.403 . S
C463 C460 1.403 1_455 S
C463 C464 1.524 . S
C463 C467 1.400 . S
C464 H449 0.960 . S
C464 H450 0.960 . S
C464 H451 0.960 . S
C464 C463 1.524 . S
C465 C462 1.403 . S
C465 C466 1.392 1_656 S
C465 C469 1.495 . S
C466 C465 1.392 1_454 S
C466 C467 1.385 . S
C466 C468 1.478 . S
C467 H461 0.930 . S
C467 C463 1.400 . S
C467 C466 1.385 . S
C468 C466 1.478 . S
C468 C470 1.381 1_455 S
C468 C474 1.383 1_554 S
C469 C465 1.495 . S
C469 H475 0.959 . S
C469 H476 0.961 . S
C469 H477 0.960 . S
C470 C468 1.381 1_655 S
C470 C471 1.394 1_655 S
C470 H478 0.930 . S
C471 C470 1.394 1_455 S
C471 C472 1.383 . S
C471 H479 0.929 1_455 S
C472 C471 1.383 . S
C472 C473 1.377 1_554 S
C473 H457 0.930 . S
C473 C472 1.377 1_556 S
C473 C474 1.379 . S
C474 H458 0.931 . S
C474 C468 1.383 1_556 S
C474 C473 1.379 . S
H475 C469 0.959 . S
H476 C469 0.961 . S
H477 C469 0.960 . S
H478 C470 0.930 . S
H479 C471 0.929 1_655 S
H480 C488 0.929 . S
H481 C490 0.930 . S
H482 C492 0.930 . S
H483 C495 0.929 . S
H484 C498 0.930 . S
H485 C500 0.960 . S
H486 C500 0.960 . S
H487 C500 0.960 . S
C488 H480 0.929 . S
C488 C489 1.377 . S
C488 C490 1.384 . S
C489 C488 1.377 . S
C489 C495 1.390 . S
C490 H481 0.930 . S
C490 C488 1.384 . S
C490 C491 1.372 . S
C491 C490 1.372 . S
C491 C492 1.400 . S
C491 C496 1.490 . S
C492 H482 0.930 . S
C492 C491 1.400 . S
C492 C495 1.386 . S
H493 C509 0.930 . S
H494 C510 0.931 . S
C495 H483 0.929 . S
C495 C489 1.390 . S
C495 C492 1.386 . S
C496 C491 1.490 . S
C496 C498 1.395 1_545 S
C496 C499 1.403 . S
H497 C503 0.930 . S
C498 H484 0.930 . S
C498 C496 1.395 1_565 S
C498 C501 1.403 . S
C499 C496 1.403 . S
C499 C500 1.524 . S
C499 C503 1.400 . S
C500 H485 0.960 . S
C500 H486 0.960 . S
C500 H487 0.960 . S
C500 C499 1.524 . S
C501 C498 1.403 . S
C501 C502 1.392 . S
C501 C505 1.495 . S
C502 C501 1.392 . S
C502 C503 1.385 1_565 S
C502 C504 1.478 . S
C503 H497 0.930 . S
C503 C499 1.400 . S
C503 C502 1.385 1_545 S
C504 C502 1.478 . S
C504 C506 1.381 . S
C504 C510 1.383 . S
C505 C501 1.495 . S
C505 H511 0.959 . S
C505 H512 0.961 . S
C505 H513 0.960 . S
C506 C504 1.381 . S
C506 C507 1.394 . S
C506 H514 0.930 . S
C507 C506 1.394 . S
C507 C508 1.383 . S
C507 H515 0.929 . S
C508 C507 1.383 . S
C508 C509 1.377 . S
C509 H493 0.930 . S
C509 C508 1.377 . S
C509 C510 1.379 . S
C510 H494 0.931 . S
C510 C504 1.383 . S
C510 C509 1.379 . S
H511 C505 0.959 . S
H512 C505 0.961 . S
H513 C505 0.960 . S
H514 C506 0.930 . S
H515 C507 0.929 . S
C93 C81 1.171 . S
C112 C5 1.185 . S
C129 C25 1.189 . S
C148 C11 1.202 . S
C165 C19 1.153 . S
C184 C33 1.152 . S
C201 C47 1.175 . S
C220 C39 1.161 . S
C237 C67 1.194 . S
C256 C53 1.179 . S
C273 C75 1.156 . S
C292 C61 1.139 . S
C309 C0 1.378 . S
C328 C42 1.347 . S
C345 C23 1.355 . S
C364 C65 1.339 . S
C381 C70 1.312 . S
C400 C28 1.337 . S
C417 C79 1.298 . S
C436 C37 1.289 . S
C453 C51 1.349 . S
C472 C9 1.366 . S
C489 C14 1.318 . S
C508 C56 1.294 . S
