# Generated by pormake.
# Topology una, (4)-cn, num edge types: 1
# Building blocks:
#     Node 0, Type 0, BuildingBlock: QUQFOY_clean_sbu_3, # of connection points: 4
#     Node 1, Type 0, BuildingBlock: QUQFOY_clean_sbu_3, # of connection points: 4
#     Node 2, Type 0, BuildingBlock: QUQFOY_clean_sbu_3, # of connection points: 4
#     Node 3, Type 0, BuildingBlock: QUQFOY_clean_sbu_3, # of connection points: 4
#     Node 4, Type 0, BuildingBlock: QUQFOY_clean_sbu_3, # of connection points: 4
#     Node 5, Type 0, BuildingBlock: QUQFOY_clean_sbu_3, # of connection points: 4
#     Node 6, Type 0, BuildingBlock: QUQFOY_clean_sbu_3, # of connection points: 4
#     Node 7, Type 0, BuildingBlock: QUQFOY_clean_sbu_3, # of connection points: 4
#     Node 8, Type 0, BuildingBlock: QUQFOY_clean_sbu_3, # of connection points: 4
#     Node 9, Type 0, BuildingBlock: QUQFOY_clean_sbu_3, # of connection points: 4
#     Node 10, Type 0, BuildingBlock: QUQFOY_clean_sbu_3, # of connection points: 4
#     Node 11, Type 0, BuildingBlock: QUQFOY_clean_sbu_3, # of connection points: 4
#     Edge 12, Type (0, 0), BuildingBlock: EYOCIG_clean_linker_4, # of connection points: 2
#     Edge 13, Type (0, 0), BuildingBlock: EYOCIG_clean_linker_4, # of connection points: 2
#     Edge 14, Type (0, 0), BuildingBlock: EYOCIG_clean_linker_4, # of connection points: 2
#     Edge 15, Type (0, 0), BuildingBlock: EYOCIG_clean_linker_4, # of connection points: 2
#     Edge 16, Type (0, 0), BuildingBlock: EYOCIG_clean_linker_4, # of connection points: 2
#     Edge 17, Type (0, 0), BuildingBlock: EYOCIG_clean_linker_4, # of connection points: 2
#     Edge 18, Type (0, 0), BuildingBlock: EYOCIG_clean_linker_4, # of connection points: 2
#     Edge 19, Type (0, 0), BuildingBlock: EYOCIG_clean_linker_4, # of connection points: 2
#     Edge 20, Type (0, 0), BuildingBlock: EYOCIG_clean_linker_4, # of connection points: 2
#     Edge 21, Type (0, 0), BuildingBlock: EYOCIG_clean_linker_4, # of connection points: 2
#     Edge 22, Type (0, 0), BuildingBlock: EYOCIG_clean_linker_4, # of connection points: 2
#     Edge 23, Type (0, 0), BuildingBlock: EYOCIG_clean_linker_4, # of connection points: 2
#     Edge 24, Type (0, 0), BuildingBlock: EYOCIG_clean_linker_4, # of connection points: 2
#     Edge 25, Type (0, 0), BuildingBlock: EYOCIG_clean_linker_4, # of connection points: 2
#     Edge 26, Type (0, 0), BuildingBlock: EYOCIG_clean_linker_4, # of connection points: 2
#     Edge 27, Type (0, 0), BuildingBlock: EYOCIG_clean_linker_4, # of connection points: 2
#     Edge 28, Type (0, 0), BuildingBlock: EYOCIG_clean_linker_4, # of connection points: 2
#     Edge 29, Type (0, 0), BuildingBlock: EYOCIG_clean_linker_4, # of connection points: 2
#     Edge 30, Type (0, 0), BuildingBlock: EYOCIG_clean_linker_4, # of connection points: 2
#     Edge 31, Type (0, 0), BuildingBlock: EYOCIG_clean_linker_4, # of connection points: 2
#     Edge 32, Type (0, 0), BuildingBlock: EYOCIG_clean_linker_4, # of connection points: 2
#     Edge 33, Type (0, 0), BuildingBlock: EYOCIG_clean_linker_4, # of connection points: 2
#     Edge 34, Type (0, 0), BuildingBlock: EYOCIG_clean_linker_4, # of connection points: 2
#     Edge 35, Type (0, 0), BuildingBlock: EYOCIG_clean_linker_4, # of connection points: 2
# Relax obj value: 0.026
# Max RMSD: 0.044
# Mean RMSD: 0.044
data_MOF--net-una--node1-QUQFOY_clean_sbu_3--edge1-EYOCIG_clean_linker_4
_symmetry_space_group_name_H-M    P1
_symmetry_Int_Tables_number       1
_symmetry_cell_setting            triclinic
loop_
_symmetry_equiv_pos_as_xyz
'x, y, z'
_cell_length_a     48.861923
_cell_length_b     48.860158
_cell_length_c     18.618388
_cell_angle_alpha  89.938627
_cell_angle_beta   90.057151
_cell_angle_gamma 119.96922
loop_
_atom_site_label
_atom_site_type_symbol
_atom_site_fract_x
_atom_site_fract_y
_atom_site_fract_z
_atom_type_partial_charge
C0 C 0.15449 0.42953 0.90357 0.0
O1 O 0.1727 0.45799 0.92202 0.0
Cd2 Cd 0.16357 0.48174 0.0242 0.0
O3 O 0.12769 0.41267 0.93297 0.0
Cd4 Cd 0.09314 0.41922 0.02012 0.0
C5 C 0.14261 0.41924 0.14393 0.0
O6 O 0.11276 0.47531 0.00689 0.0
O7 O 0.08354 0.45341 0.10041 0.0
O8 O 0.05696 0.40391 0.92084 0.0
C9 C 0.09918 0.47787 0.06212 0.0
O10 O 0.16138 0.44693 0.12066 0.0
C11 C 0.03383 0.38118 0.9524 0.0
O12 O 0.11529 0.40201 0.1167 0.0
O13 O 0.0378 0.37531 0.01698 0.0
C14 C 0.70457 0.16488 0.07074 0.0
O15 O 0.69379 0.18276 0.08819 0.0
Cd16 Cd 0.66069 0.17315 0.19022 0.0
O17 O 0.69489 0.13821 0.10064 0.0
Cd18 Cd 0.65344 0.10328 0.18665 0.0
C19 C 0.70252 0.15276 0.3105 0.0
O20 O 0.61642 0.12223 0.173 0.0
O21 O 0.60942 0.09326 0.26696 0.0
O22 O 0.63318 0.06805 0.08576 0.0
C23 C 0.60024 0.10849 0.22813 0.0
O24 O 0.69343 0.17138 0.28695 0.0
C25 C 0.63302 0.04475 0.11592 0.0
O26 O 0.69261 0.12544 0.2835 0.0
O27 O 0.64256 0.04811 0.1807 0.0
C28 C 0.52057 0.71507 0.23537 0.0
O29 O 0.49205 0.70522 0.25271 0.0
Cd30 Cd 0.46746 0.67252 0.35489 0.0
O31 O 0.53692 0.7048 0.26597 0.0
Cd32 Cd 0.52934 0.66351 0.35362 0.0
C33 C 0.52924 0.71311 0.47682 0.0
O34 O 0.47317 0.62763 0.33886 0.0
O35 O 0.49441 0.61954 0.43273 0.0
O36 O 0.54446 0.64264 0.25429 0.0
C37 C 0.47015 0.6112 0.39398 0.0
O38 O 0.50182 0.70465 0.45237 0.0
C39 C 0.56709 0.64198 0.28575 0.0
O40 O 0.54637 0.7027 0.45054 0.0
O41 O 0.57295 0.65158 0.35048 0.0
C42 C 0.78507 0.53005 0.40086 0.0
O43 O 0.76642 0.5015 0.41809 0.0
Cd44 Cd 0.77408 0.47668 0.52043 0.0
O45 O 0.81153 0.54652 0.43199 0.0
Cd46 Cd 0.84527 0.53948 0.52051 0.0
C47 C 0.79463 0.53861 0.64199 0.0
O48 O 0.82505 0.48356 0.50481 0.0
O49 O 0.85441 0.50423 0.59873 0.0
O50 O 0.88107 0.55477 0.42094 0.0
C51 C 0.83835 0.48017 0.55962 0.0
O52 O 0.77601 0.51122 0.61699 0.0
C53 C 0.9044 0.57733 0.45228 0.0
O54 O 0.82234 0.55597 0.61679 0.0
O55 O 0.90078 0.58315 0.51714 0.0
C56 C 0.23492 0.79471 0.56846 0.0
O57 O 0.24482 0.77619 0.58705 0.0
Cd58 Cd 0.27696 0.78451 0.69024 0.0
O59 O 0.2448 0.82136 0.59855 0.0
Cd60 Cd 0.28507 0.85554 0.68746 0.0
C61 C 0.23429 0.80489 0.80806 0.0
O62 O 0.32105 0.83548 0.6735 0.0
O63 O 0.32928 0.86501 0.76678 0.0
O64 O 0.30571 0.89172 0.58825 0.0
C65 C 0.33759 0.84902 0.72828 0.0
O66 O 0.24336 0.78625 0.78472 0.0
C67 C 0.30618 0.91486 0.61987 0.0
O68 O 0.24488 0.83255 0.78227 0.0
O69 O 0.29651 0.91092 0.68456 0.0
C70 C 0.41798 0.24393 0.73498 0.0
O71 O 0.44643 0.25359 0.75276 0.0
Cd72 Cd 0.47115 0.28636 0.85475 0.0
O73 O 0.40165 0.25426 0.76534 0.0
Cd74 Cd 0.40895 0.29526 0.85323 0.0
C75 C 0.40961 0.24554 -0.02343 0.0
O76 O 0.46499 0.33098 0.83703 0.0
O77 O 0.44428 0.34021 0.93005 0.0
O78 O 0.39294 0.3152 0.7534 0.0
C79 C 0.46834 0.34805 0.89102 0.0
O80 O 0.43705 0.25396 0.95236 0.0
C81 C 0.36998 0.31528 0.78453 0.0
O82 O 0.3926 0.25612 0.95027 0.0
O83 O 0.36451 0.30608 0.84962 0.0
C84 C 0.52044 0.79501 0.96601 0.0
O85 O 0.49181 0.77645 0.94938 0.0
Cd86 Cd 0.4669 0.78451 0.84795 0.0
O87 O 0.53677 0.8216 0.93524 0.0
Cd88 Cd 0.5295 0.8556 0.84774 0.0
C89 C 0.52893 0.80461 0.72725 0.0
O90 O 0.47358 0.83544 0.86467 0.0
O91 O 0.4939 0.86462 0.77034 0.0
O92 O 0.54567 0.89198 0.94659 0.0
C93 C 0.47002 0.84879 0.81016 0.0
O94 O 0.5015 0.78597 0.752 0.0
C95 C 0.56816 0.91506 0.91437 0.0
O96 O 0.54605 0.83245 0.75196 0.0
O97 O 0.57346 0.91104 0.8494 0.0
C98 C 0.70503 0.53006 0.13102 0.0
O99 O 0.6943 0.50127 0.11489 0.0
Cd100 Cd 0.66101 0.47665 0.01372 0.0
O101 O 0.6951 0.54671 0.10037 0.0
Cd102 Cd 0.65328 0.53952 0.01459 0.0
C103 C 0.70259 0.53858 0.89232 0.0
O104 O 0.61689 0.48356 0.02915 0.0
O105 O 0.60932 0.50497 0.9349 0.0
O106 O 0.63291 0.55447 0.11507 0.0
C107 C 0.60066 0.48068 0.97375 0.0
O108 O 0.69364 0.51109 0.91701 0.0
C109 C 0.63221 0.57723 0.08439 0.0
O110 O 0.69247 0.55607 0.91795 0.0
O111 O 0.64164 0.58332 0.01954 0.0
C112 C 0.1546 0.71481 0.29746 0.0
O113 O 0.17288 0.70463 0.2791 0.0
Cd114 Cd 0.16376 0.67172 0.17718 0.0
O115 O 0.12776 0.70477 0.26809 0.0
Cd116 Cd 0.09316 0.66348 0.18144 0.0
C117 C 0.14249 0.71307 0.05742 0.0
O118 O 0.11315 0.62745 0.1968 0.0
O119 O 0.08348 0.61888 0.10347 0.0
O120 O 0.05773 0.64327 0.28191 0.0
C121 C 0.09932 0.61057 0.14267 0.0
O122 O 0.16139 0.70433 0.08084 0.0
C123 C 0.03424 0.64233 0.25082 0.0
O124 O 0.11508 0.70272 0.08436 0.0
O125 O 0.03764 0.6516 0.18584 0.0
C126 C 0.41835 0.16419 0.46524 0.0
O127 O 0.44712 0.18221 0.44898 0.0
Cd128 Cd 0.47092 0.17329 0.34655 0.0
O129 O 0.40166 0.13774 0.43431 0.0
Cd130 Cd 0.40884 0.10338 0.34797 0.0
C131 C 0.40861 0.15364 0.22732 0.0
O132 O 0.46482 0.1224 0.36146 0.0
O133 O 0.44292 0.09383 0.26697 0.0
O134 O 0.39414 0.06815 0.44872 0.0
C135 C 0.46728 0.1089 0.3059 0.0
O136 O 0.43626 0.17219 0.25112 0.0
C137 C 0.3712 0.04475 0.41843 0.0
O138 O 0.39146 0.12597 0.25284 0.0
O139 O 0.36499 0.04807 0.35363 0.0
C140 C 0.23489 0.4298 0.63291 0.0
O141 O 0.24479 0.45824 0.6146 0.0
Cd142 Cd 0.27722 0.4823 0.51213 0.0
O143 O 0.24484 0.41309 0.60281 0.0
Cd144 Cd 0.2852 0.41907 0.51427 0.0
C145 C 0.23464 0.4195 0.39354 0.0
O146 O 0.32099 0.47499 0.53026 0.0
O147 O 0.33015 0.4544 0.43703 0.0
O148 O 0.30498 0.4026 0.61363 0.0
C149 C 0.33804 0.47842 0.47622 0.0
O150 O 0.24368 0.44713 0.41733 0.0
C151 C 0.3051 0.37978 0.5819 0.0
O152 O 0.24525 0.40237 0.41894 0.0
O153 O 0.29587 0.37452 0.51684 0.0
C154 C 0.78459 0.24502 0.79982 0.0
O155 O 0.76609 0.25505 0.782 0.0
Cd156 Cd 0.77406 0.28721 0.67904 0.0
O157 O 0.8111 0.25481 0.76911 0.0
Cd158 Cd 0.84527 0.29531 0.68068 0.0
C159 C 0.79447 0.24479 0.56018 0.0
O160 O 0.82508 0.33102 0.6957 0.0
O161 O 0.85481 0.33993 0.60248 0.0
O162 O 0.88043 0.3154 0.78145 0.0
C163 C 0.8386 0.34786 0.64129 0.0
O164 O 0.77589 0.25379 0.5843 0.0
C165 C 0.90394 0.3162 0.75092 0.0
O166 O 0.82223 0.25536 0.58535 0.0
O167 O 0.90073 0.30701 0.68591 0.0
C168 C 0.16889 0.40251 0.24482 0.0
C169 C 0.15412 0.4072 0.19938 0.0
C170 C 0.19039 0.40259 0.29565 0.0
C171 C 0.21042 0.40742 0.33966 0.0
C172 C 0.76696 0.20073 0.46207 0.0
C173 C 0.78225 0.22067 0.50613 0.0
C174 C 0.74549 0.17929 0.4113 0.0
C175 C 0.72606 0.16446 0.36592 0.0
C176 C 0.54565 0.75582 0.57814 0.0
C177 C 0.54108 0.73645 0.53264 0.0
C178 C 0.54555 0.77719 0.629 0.0
C179 C 0.54081 0.79241 0.67308 0.0
C180 C 0.7673 0.55455 0.74176 0.0
C181 C 0.7825 0.55015 0.69703 0.0
C182 C 0.74581 0.55453 0.79243 0.0
C183 C 0.72625 0.55011 0.83727 0.0
C184 C 0.19015 0.77777 0.90618 0.0
C185 C 0.21012 0.7929 0.86203 0.0
C186 C 0.16871 0.75631 0.957 0.0
C187 C 0.15394 0.73672 0.00219 0.0
C188 C 0.39203 0.18094 0.12867 0.0
C189 C 0.39664 0.16572 0.17303 0.0
C190 C 0.39244 0.20248 0.07752 0.0
C191 C 0.39751 0.22204 0.03208 0.0
C192 C 0.10443 0.53257 0.09628 0.0
C193 C 0.10194 0.50752 0.08097 0.0
C194 C 0.10446 0.56073 0.11216 0.0
C195 C 0.10207 0.58349 0.12599 0.0
C196 C 0.54975 0.11237 0.25966 0.0
C197 C 0.57276 0.11042 0.24583 0.0
C198 C 0.52153 0.11246 0.27444 0.0
C199 C 0.49663 0.11066 0.28824 0.0
C200 C 0.38733 0.53371 0.44484 0.0
C201 C 0.36479 0.50852 0.45949 0.0
C202 C 0.41531 0.56183 0.42771 0.0
C203 C 0.4403 0.5844 0.41206 0.0
C204 C 0.83237 0.425 0.59215 0.0
C205 C 0.83499 0.45013 0.57695 0.0
C206 C 0.83248 0.397 0.6091 0.0
C207 C 0.83522 0.37453 0.62401 0.0
C208 C 0.38683 0.84329 0.7621 0.0
C209 C 0.36432 0.84586 0.74648 0.0
C210 C 0.41485 0.84321 0.77919 0.0
C211 C 0.43996 0.84563 0.79374 0.0
C212 C 0.52337 0.39782 0.92197 0.0
C213 C 0.49833 0.37505 0.90744 0.0
C214 C 0.55137 0.4259 0.93924 0.0
C215 C 0.5739 0.45088 0.95517 0.0
C216 C 0.19464 0.41053 0.73976 0.0
C217 C 0.21279 0.41685 0.6907 0.0
C218 C 0.17641 0.41048 0.79813 0.0
C219 C 0.1642 0.41672 0.84652 0.0
C220 C 0.74586 0.18695 0.96592 0.0
C221 C 0.7273 0.17472 0.01413 0.0
C222 C 0.76399 0.20507 0.90735 0.0
C223 C 0.77566 0.22307 0.85792 0.0
C224 C 0.54071 0.75582 0.12938 0.0
C225 C 0.53403 0.73744 0.17814 0.0
C226 C 0.54076 0.77408 0.07099 0.0
C227 C 0.53409 0.78599 0.02263 0.0
C228 C 0.76487 0.54997 0.29356 0.0
C229 C 0.77638 0.54339 0.34294 0.0
C230 C 0.74674 0.55004 0.23503 0.0
C231 C 0.728 0.5435 0.18708 0.0
C232 C 0.17644 0.75569 0.40299 0.0
C233 C 0.16421 0.73728 0.35454 0.0
C234 C 0.19471 0.77377 0.46143 0.0
C235 C 0.21286 0.78553 0.51055 0.0
C236 C 0.39812 0.20368 0.62812 0.0
C237 C 0.40463 0.22184 0.67724 0.0
C238 C 0.39825 0.18559 0.56964 0.0
C239 C 0.40492 0.17361 0.52152 0.0
C240 C -0.01854 0.35065 0.8769 0.0
C241 C 0.00441 0.36329 0.91513 0.0
C242 C 0.95561 0.33771 0.82896 0.0
C243 C 0.93299 0.3276 0.78975 0.0
C244 C 0.59924 0.96738 -0.01026 0.0
C245 C 0.58638 0.9445 0.95138 0.0
C246 C 0.61215 -0.0068 0.03776 0.0
C247 C 0.62201 0.01579 0.07699 0.0
C248 C 0.61046 0.60731 0.16181 0.0
C249 C 0.62069 0.59485 0.12285 0.0
C250 C 0.5975 0.62017 0.20974 0.0
C251 C 0.5849 0.63044 0.24818 0.0
C252 C -0.01772 0.62045 0.32777 0.0
C253 C 0.00503 0.63072 0.28898 0.0
C254 C 0.95647 0.60755 0.37576 0.0
C255 C 0.93369 0.59504 0.41446 0.0
C256 C 0.34087 -0.00693 0.49638 0.0
C257 C 0.35348 0.01573 0.45729 0.0
C258 C 0.3279 0.9672 0.54426 0.0
C259 C 0.31765 0.94428 0.58257 0.0
C260 C 0.32542 0.3481 0.65843 0.0
C261 C 0.31579 0.36119 0.6195 0.0
C262 C 0.33833 0.33531 0.70691 0.0
C263 C 0.35143 0.32582 0.7462 0.0
loop_
_geom_bond_atom_site_label_1
_geom_bond_atom_site_label_2
_geom_bond_distance
_geom_bond_site_symmetry_2
_ccdc_geom_bond_type
C0 O1 1.306 . S
C0 O3 1.160 . S
O1 C0 1.306 . S
O1 Cd2 2.228 1_556 S
Cd2 O1 2.228 1_554 S
Cd2 O6 2.273 . S
Cd2 O10 2.277 . S
O3 C0 1.160 . S
O3 Cd4 2.203 1_556 S
Cd4 O3 2.203 1_554 S
Cd4 O6 2.411 . S
Cd4 O7 2.333 . S
Cd4 O8 2.352 1_554 S
Cd4 O12 2.277 . S
Cd4 O13 2.356 . S
C5 O10 1.209 . S
C5 O12 1.226 . S
O6 Cd2 2.273 . S
O6 Cd4 2.411 . S
O6 C9 1.320 . S
O7 Cd4 2.333 . S
O7 C9 1.214 . S
O8 Cd4 2.352 1_556 S
O8 C11 1.258 . S
C9 O6 1.320 . S
C9 O7 1.214 . S
O10 Cd2 2.277 . S
O10 C5 1.209 . S
C11 O8 1.258 . S
C11 O13 1.282 1_556 S
O12 Cd4 2.277 . S
O12 C5 1.226 . S
O13 Cd4 2.356 . S
O13 C11 1.282 1_554 S
C14 O15 1.306 . S
C14 O17 1.160 . S
O15 C14 1.306 . S
O15 Cd16 2.228 . S
Cd16 O15 2.228 . S
Cd16 O20 2.273 . S
Cd16 O24 2.277 . S
O17 C14 1.160 . S
O17 Cd18 2.203 . S
Cd18 O17 2.203 . S
Cd18 O20 2.411 . S
Cd18 O21 2.333 . S
Cd18 O22 2.352 . S
Cd18 O26 2.277 . S
Cd18 O27 2.356 . S
C19 O24 1.209 . S
C19 O26 1.226 . S
O20 Cd16 2.273 . S
O20 Cd18 2.411 . S
O20 C23 1.320 . S
O21 Cd18 2.333 . S
O21 C23 1.214 . S
O22 Cd18 2.352 . S
O22 C25 1.258 . S
C23 O20 1.320 . S
C23 O21 1.214 . S
O24 Cd16 2.277 . S
O24 C19 1.209 . S
C25 O22 1.258 . S
C25 O27 1.282 . S
O26 Cd18 2.277 . S
O26 C19 1.226 . S
O27 Cd18 2.356 . S
O27 C25 1.282 . S
C28 O29 1.306 . S
C28 O31 1.160 . S
O29 C28 1.306 . S
O29 Cd30 2.228 . S
Cd30 O29 2.228 . S
Cd30 O34 2.273 . S
Cd30 O38 2.277 . S
O31 C28 1.160 . S
O31 Cd32 2.203 . S
Cd32 O31 2.203 . S
Cd32 O34 2.411 . S
Cd32 O35 2.333 . S
Cd32 O36 2.352 . S
Cd32 O40 2.277 . S
Cd32 O41 2.356 . S
C33 O38 1.209 . S
C33 O40 1.226 . S
O34 Cd30 2.273 . S
O34 Cd32 2.411 . S
O34 C37 1.320 . S
O35 Cd32 2.333 . S
O35 C37 1.214 . S
O36 Cd32 2.352 . S
O36 C39 1.258 . S
C37 O34 1.320 . S
C37 O35 1.214 . S
O38 Cd30 2.277 . S
O38 C33 1.209 . S
C39 O36 1.258 . S
C39 O41 1.282 . S
O40 Cd32 2.277 . S
O40 C33 1.226 . S
O41 Cd32 2.356 . S
O41 C39 1.282 . S
C42 O43 1.306 . S
C42 O45 1.160 . S
O43 C42 1.306 . S
O43 Cd44 2.228 . S
Cd44 O43 2.228 . S
Cd44 O48 2.273 . S
Cd44 O52 2.277 . S
O45 C42 1.160 . S
O45 Cd46 2.203 . S
Cd46 O45 2.203 . S
Cd46 O48 2.411 . S
Cd46 O49 2.333 . S
Cd46 O50 2.352 . S
Cd46 O54 2.277 . S
Cd46 O55 2.356 . S
C47 O52 1.209 . S
C47 O54 1.226 . S
O48 Cd44 2.273 . S
O48 Cd46 2.411 . S
O48 C51 1.320 . S
O49 Cd46 2.333 . S
O49 C51 1.214 . S
O50 Cd46 2.352 . S
O50 C53 1.258 . S
C51 O48 1.320 . S
C51 O49 1.214 . S
O52 Cd44 2.277 . S
O52 C47 1.209 . S
C53 O50 1.258 . S
C53 O55 1.282 . S
O54 Cd46 2.277 . S
O54 C47 1.226 . S
O55 Cd46 2.356 . S
O55 C53 1.282 . S
C56 O57 1.306 . S
C56 O59 1.160 . S
O57 C56 1.306 . S
O57 Cd58 2.228 . S
Cd58 O57 2.228 . S
Cd58 O62 2.273 . S
Cd58 O66 2.277 . S
O59 C56 1.160 . S
O59 Cd60 2.203 . S
Cd60 O59 2.203 . S
Cd60 O62 2.411 . S
Cd60 O63 2.333 . S
Cd60 O64 2.352 . S
Cd60 O68 2.277 . S
Cd60 O69 2.356 . S
C61 O66 1.209 . S
C61 O68 1.226 . S
O62 Cd58 2.273 . S
O62 Cd60 2.411 . S
O62 C65 1.320 . S
O63 Cd60 2.333 . S
O63 C65 1.214 . S
O64 Cd60 2.352 . S
O64 C67 1.258 . S
C65 O62 1.320 . S
C65 O63 1.214 . S
O66 Cd58 2.277 . S
O66 C61 1.209 . S
C67 O64 1.258 . S
C67 O69 1.282 . S
O68 Cd60 2.277 . S
O68 C61 1.226 . S
O69 Cd60 2.356 . S
O69 C67 1.282 . S
C70 O71 1.306 . S
C70 O73 1.160 . S
O71 C70 1.306 . S
O71 Cd72 2.228 . S
Cd72 O71 2.228 . S
Cd72 O76 2.273 . S
Cd72 O80 2.277 . S
O73 C70 1.160 . S
O73 Cd74 2.203 . S
Cd74 O73 2.203 . S
Cd74 O76 2.411 . S
Cd74 O77 2.333 . S
Cd74 O78 2.352 . S
Cd74 O82 2.277 . S
Cd74 O83 2.356 . S
C75 O80 1.209 . S
C75 O82 1.226 . S
O76 Cd72 2.273 . S
O76 Cd74 2.411 . S
O76 C79 1.320 . S
O77 Cd74 2.333 . S
O77 C79 1.214 . S
O78 Cd74 2.352 . S
O78 C81 1.258 . S
C79 O76 1.320 . S
C79 O77 1.214 . S
O80 Cd72 2.277 . S
O80 C75 1.209 . S
C81 O78 1.258 . S
C81 O83 1.282 . S
O82 Cd74 2.277 . S
O82 C75 1.226 . S
O83 Cd74 2.356 . S
O83 C81 1.282 . S
C84 O85 1.306 . S
C84 O87 1.160 . S
O85 C84 1.306 . S
O85 Cd86 2.228 . S
Cd86 O85 2.228 . S
Cd86 O90 2.273 . S
Cd86 O94 2.277 . S
O87 C84 1.160 . S
O87 Cd88 2.203 . S
Cd88 O87 2.203 . S
Cd88 O90 2.411 . S
Cd88 O91 2.333 . S
Cd88 O92 2.352 . S
Cd88 O96 2.277 . S
Cd88 O97 2.356 . S
C89 O94 1.209 . S
C89 O96 1.226 . S
O90 Cd86 2.273 . S
O90 Cd88 2.411 . S
O90 C93 1.320 . S
O91 Cd88 2.333 . S
O91 C93 1.214 . S
O92 Cd88 2.352 . S
O92 C95 1.258 . S
C93 O90 1.320 . S
C93 O91 1.214 . S
O94 Cd86 2.277 . S
O94 C89 1.209 . S
C95 O92 1.258 . S
C95 O97 1.282 . S
O96 Cd88 2.277 . S
O96 C89 1.226 . S
O97 Cd88 2.356 . S
O97 C95 1.282 . S
C98 O99 1.306 . S
C98 O101 1.160 . S
O99 C98 1.306 . S
O99 Cd100 2.228 . S
Cd100 O99 2.228 . S
Cd100 O104 2.273 . S
Cd100 O108 2.277 1_554 S
O101 C98 1.160 . S
O101 Cd102 2.203 . S
Cd102 O101 2.203 . S
Cd102 O104 2.411 . S
Cd102 O105 2.333 1_554 S
Cd102 O106 2.352 . S
Cd102 O110 2.277 1_554 S
Cd102 O111 2.356 . S
C103 O108 1.209 . S
C103 O110 1.226 . S
O104 Cd100 2.273 . S
O104 Cd102 2.411 . S
O104 C107 1.320 . S
O105 Cd102 2.333 1_556 S
O105 C107 1.214 1_556 S
O106 Cd102 2.352 . S
O106 C109 1.258 . S
C107 O104 1.320 . S
C107 O105 1.214 1_554 S
O108 Cd100 2.277 1_556 S
O108 C103 1.209 . S
C109 O106 1.258 . S
C109 O111 1.282 . S
O110 Cd102 2.277 1_556 S
O110 C103 1.226 . S
O111 Cd102 2.356 . S
O111 C109 1.282 . S
C112 O113 1.306 . S
C112 O115 1.160 . S
O113 C112 1.306 . S
O113 Cd114 2.228 . S
Cd114 O113 2.228 . S
Cd114 O118 2.273 . S
Cd114 O122 2.277 . S
O115 C112 1.160 . S
O115 Cd116 2.203 . S
Cd116 O115 2.203 . S
Cd116 O118 2.411 . S
Cd116 O119 2.333 . S
Cd116 O120 2.352 . S
Cd116 O124 2.277 . S
Cd116 O125 2.356 . S
C117 O122 1.209 . S
C117 O124 1.226 . S
O118 Cd114 2.273 . S
O118 Cd116 2.411 . S
O118 C121 1.320 . S
O119 Cd116 2.333 . S
O119 C121 1.214 . S
O120 Cd116 2.352 . S
O120 C123 1.258 . S
C121 O118 1.320 . S
C121 O119 1.214 . S
O122 Cd114 2.277 . S
O122 C117 1.209 . S
C123 O120 1.258 . S
C123 O125 1.282 . S
O124 Cd116 2.277 . S
O124 C117 1.226 . S
O125 Cd116 2.356 . S
O125 C123 1.282 . S
C126 O127 1.306 . S
C126 O129 1.160 . S
O127 C126 1.306 . S
O127 Cd128 2.228 . S
Cd128 O127 2.228 . S
Cd128 O132 2.273 . S
Cd128 O136 2.277 . S
O129 C126 1.160 . S
O129 Cd130 2.203 . S
Cd130 O129 2.203 . S
Cd130 O132 2.411 . S
Cd130 O133 2.333 . S
Cd130 O134 2.352 . S
Cd130 O138 2.277 . S
Cd130 O139 2.356 . S
C131 O136 1.209 . S
C131 O138 1.226 . S
O132 Cd128 2.273 . S
O132 Cd130 2.411 . S
O132 C135 1.320 . S
O133 Cd130 2.333 . S
O133 C135 1.214 . S
O134 Cd130 2.352 . S
O134 C137 1.258 . S
C135 O132 1.320 . S
C135 O133 1.214 . S
O136 Cd128 2.277 . S
O136 C131 1.209 . S
C137 O134 1.258 . S
C137 O139 1.282 . S
O138 Cd130 2.277 . S
O138 C131 1.226 . S
O139 Cd130 2.356 . S
O139 C137 1.282 . S
C140 O141 1.306 . S
C140 O143 1.160 . S
O141 C140 1.306 . S
O141 Cd142 2.228 . S
Cd142 O141 2.228 . S
Cd142 O146 2.273 . S
Cd142 O150 2.277 . S
O143 C140 1.160 . S
O143 Cd144 2.203 . S
Cd144 O143 2.203 . S
Cd144 O146 2.411 . S
Cd144 O147 2.333 . S
Cd144 O148 2.352 . S
Cd144 O152 2.277 . S
Cd144 O153 2.356 . S
C145 O150 1.209 . S
C145 O152 1.226 . S
O146 Cd142 2.273 . S
O146 Cd144 2.411 . S
O146 C149 1.320 . S
O147 Cd144 2.333 . S
O147 C149 1.214 . S
O148 Cd144 2.352 . S
O148 C151 1.258 . S
C149 O146 1.320 . S
C149 O147 1.214 . S
O150 Cd142 2.277 . S
O150 C145 1.209 . S
C151 O148 1.258 . S
C151 O153 1.282 . S
O152 Cd144 2.277 . S
O152 C145 1.226 . S
O153 Cd144 2.356 . S
O153 C151 1.282 . S
C154 O155 1.306 . S
C154 O157 1.160 . S
O155 C154 1.306 . S
O155 Cd156 2.228 . S
Cd156 O155 2.228 . S
Cd156 O160 2.273 . S
Cd156 O164 2.277 . S
O157 C154 1.160 . S
O157 Cd158 2.203 . S
Cd158 O157 2.203 . S
Cd158 O160 2.411 . S
Cd158 O161 2.333 . S
Cd158 O162 2.352 . S
Cd158 O166 2.277 . S
Cd158 O167 2.356 . S
C159 O164 1.209 . S
C159 O166 1.226 . S
O160 Cd156 2.273 . S
O160 Cd158 2.411 . S
O160 C163 1.320 . S
O161 Cd158 2.333 . S
O161 C163 1.214 . S
O162 Cd158 2.352 . S
O162 C165 1.258 . S
C163 O160 1.320 . S
C163 O161 1.214 . S
O164 Cd156 2.277 . S
O164 C159 1.209 . S
C165 O162 1.258 . S
C165 O167 1.282 . S
O166 Cd158 2.277 . S
O166 C159 1.226 . S
O167 Cd158 2.356 . S
O167 C165 1.282 . S
C168 C169 1.170 . S
C168 C170 1.380 . S
C169 C168 1.170 . S
C170 C168 1.380 . S
C170 C171 1.170 . S
C171 C170 1.170 . S
C172 C173 1.170 . S
C172 C174 1.380 . S
C173 C172 1.170 . S
C174 C172 1.380 . S
C174 C175 1.170 . S
C175 C174 1.170 . S
C176 C177 1.170 . S
C176 C178 1.380 . S
C177 C176 1.170 . S
C178 C176 1.380 . S
C178 C179 1.170 . S
C179 C178 1.170 . S
C180 C181 1.170 . S
C180 C182 1.380 . S
C181 C180 1.170 . S
C182 C180 1.380 . S
C182 C183 1.170 . S
C183 C182 1.170 . S
C184 C185 1.170 . S
C184 C186 1.380 . S
C185 C184 1.170 . S
C186 C184 1.380 . S
C186 C187 1.170 1_556 S
C187 C186 1.170 1_554 S
C188 C189 1.170 . S
C188 C190 1.380 . S
C189 C188 1.170 . S
C190 C188 1.380 . S
C190 C191 1.170 . S
C191 C190 1.170 . S
C192 C193 1.170 . S
C192 C194 1.380 . S
C193 C192 1.170 . S
C194 C192 1.380 . S
C194 C195 1.170 . S
C195 C194 1.170 . S
C196 C197 1.170 . S
C196 C198 1.380 . S
C197 C196 1.170 . S
C198 C196 1.380 . S
C198 C199 1.170 . S
C199 C198 1.170 . S
C200 C201 1.170 . S
C200 C202 1.380 . S
C201 C200 1.170 . S
C202 C200 1.380 . S
C202 C203 1.170 . S
C203 C202 1.170 . S
C204 C205 1.170 . S
C204 C206 1.380 . S
C205 C204 1.170 . S
C206 C204 1.380 . S
C206 C207 1.170 . S
C207 C206 1.170 . S
C208 C209 1.170 . S
C208 C210 1.380 . S
C209 C208 1.170 . S
C210 C208 1.380 . S
C210 C211 1.170 . S
C211 C210 1.170 . S
C212 C213 1.170 . S
C212 C214 1.380 . S
C213 C212 1.170 . S
C214 C212 1.380 . S
C214 C215 1.170 . S
C215 C214 1.170 . S
C216 C217 1.170 . S
C216 C218 1.380 . S
C217 C216 1.170 . S
C218 C216 1.380 . S
C218 C219 1.170 . S
C219 C218 1.170 . S
C220 C221 1.170 1_556 S
C220 C222 1.380 . S
C221 C220 1.170 1_554 S
C222 C220 1.380 . S
C222 C223 1.170 . S
C223 C222 1.170 . S
C224 C225 1.170 . S
C224 C226 1.380 . S
C225 C224 1.170 . S
C226 C224 1.380 . S
C226 C227 1.170 . S
C227 C226 1.170 . S
C228 C229 1.170 . S
C228 C230 1.380 . S
C229 C228 1.170 . S
C230 C228 1.380 . S
C230 C231 1.170 . S
C231 C230 1.170 . S
C232 C233 1.170 . S
C232 C234 1.380 . S
C233 C232 1.170 . S
C234 C232 1.380 . S
C234 C235 1.170 . S
C235 C234 1.170 . S
C236 C237 1.170 . S
C236 C238 1.380 . S
C237 C236 1.170 . S
C238 C236 1.380 . S
C238 C239 1.170 . S
C239 C238 1.170 . S
C240 C241 1.170 . S
C240 C242 1.380 1_455 S
C241 C240 1.170 . S
C242 C240 1.380 1_655 S
C242 C243 1.170 . S
C243 C242 1.170 . S
C244 C245 1.170 1_554 S
C244 C246 1.380 1_565 S
C245 C244 1.170 1_556 S
C246 C244 1.380 1_545 S
C246 C247 1.170 . S
C247 C246 1.170 . S
C248 C249 1.170 . S
C248 C250 1.380 . S
C249 C248 1.170 . S
C250 C248 1.380 . S
C250 C251 1.170 . S
C251 C250 1.170 . S
C252 C253 1.170 . S
C252 C254 1.380 1_455 S
C253 C252 1.170 . S
C254 C252 1.380 1_655 S
C254 C255 1.170 . S
C255 C254 1.170 . S
C256 C257 1.170 . S
C256 C258 1.380 1_545 S
C257 C256 1.170 . S
C258 C256 1.380 1_565 S
C258 C259 1.170 . S
C259 C258 1.170 . S
C260 C261 1.170 . S
C260 C262 1.380 . S
C261 C260 1.170 . S
C262 C260 1.380 . S
C262 C263 1.170 . S
C263 C262 1.170 . S
C169 C5 1.522 . S
C171 C145 1.507 . S
C173 C159 1.506 . S
C175 C19 1.521 . S
C177 C33 1.522 . S
C179 C89 1.507 . S
C181 C47 1.509 . S
C183 C103 1.511 . S
C185 C61 1.510 . S
C187 C117 1.523 . S
C189 C131 1.510 . S
C191 C75 1.523 1_554 S
C193 C9 1.582 . S
C195 C121 1.575 . S
C197 C23 1.574 . S
C199 C135 1.574 . S
C201 C149 1.578 . S
C203 C37 1.582 . S
C205 C51 1.581 . S
C207 C163 1.581 . S
C209 C65 1.582 . S
C211 C93 1.577 . S
C213 C79 1.576 . S
C215 C107 1.582 1_556 S
C217 C140 1.325 . S
C219 C0 1.324 . S
C221 C14 1.325 . S
C223 C154 1.327 . S
C225 C28 1.340 . S
C227 C84 1.340 1_554 S
C229 C42 1.335 . S
C231 C98 1.333 . S
C233 C112 1.324 . S
C235 C56 1.325 . S
C237 C70 1.339 . S
C239 C126 1.338 . S
C241 C11 1.445 . S
C243 C165 1.439 . S
C245 C95 1.449 . S
C247 C25 1.441 . S
C249 C109 1.439 . S
C251 C39 1.443 . S
C253 C123 1.440 . S
C255 C53 1.442 . S
C257 C137 1.440 . S
C259 C67 1.446 . S
C261 C151 1.451 . S
C263 C81 1.448 . S
