# Generated by pormake.
# Topology sod, (4)-cn, num edge types: 1
# Building blocks:
#     Node 0, Type 0, BuildingBlock: NAHDIM_clean_sbu_0, # of connection points: 4
#     Node 1, Type 0, BuildingBlock: NAHDIM_clean_sbu_0, # of connection points: 4
#     Node 2, Type 0, BuildingBlock: NAHDIM_clean_sbu_0, # of connection points: 4
#     Node 3, Type 0, BuildingBlock: NAHDIM_clean_sbu_0, # of connection points: 4
#     Node 4, Type 0, BuildingBlock: NAHDIM_clean_sbu_0, # of connection points: 4
#     Node 5, Type 0, BuildingBlock: NAHDIM_clean_sbu_0, # of connection points: 4
#     Node 6, Type 0, BuildingBlock: NAHDIM_clean_sbu_0, # of connection points: 4
#     Node 7, Type 0, BuildingBlock: NAHDIM_clean_sbu_0, # of connection points: 4
#     Node 8, Type 0, BuildingBlock: NAHDIM_clean_sbu_0, # of connection points: 4
#     Node 9, Type 0, BuildingBlock: NAHDIM_clean_sbu_0, # of connection points: 4
#     Node 10, Type 0, BuildingBlock: NAHDIM_clean_sbu_0, # of connection points: 4
#     Node 11, Type 0, BuildingBlock: NAHDIM_clean_sbu_0, # of connection points: 4
#     Edge 12, Type (0, 0), BuildingBlock: CIFDUS_clean_linker_0, # of connection points: 2
#     Edge 13, Type (0, 0), BuildingBlock: CIFDUS_clean_linker_0, # of connection points: 2
#     Edge 14, Type (0, 0), BuildingBlock: CIFDUS_clean_linker_0, # of connection points: 2
#     Edge 15, Type (0, 0), BuildingBlock: CIFDUS_clean_linker_0, # of connection points: 2
#     Edge 16, Type (0, 0), BuildingBlock: CIFDUS_clean_linker_0, # of connection points: 2
#     Edge 17, Type (0, 0), BuildingBlock: CIFDUS_clean_linker_0, # of connection points: 2
#     Edge 18, Type (0, 0), BuildingBlock: CIFDUS_clean_linker_0, # of connection points: 2
#     Edge 19, Type (0, 0), BuildingBlock: CIFDUS_clean_linker_0, # of connection points: 2
#     Edge 20, Type (0, 0), BuildingBlock: CIFDUS_clean_linker_0, # of connection points: 2
#     Edge 21, Type (0, 0), BuildingBlock: CIFDUS_clean_linker_0, # of connection points: 2
#     Edge 22, Type (0, 0), BuildingBlock: CIFDUS_clean_linker_0, # of connection points: 2
#     Edge 23, Type (0, 0), BuildingBlock: CIFDUS_clean_linker_0, # of connection points: 2
#     Edge 24, Type (0, 0), BuildingBlock: CIFDUS_clean_linker_0, # of connection points: 2
#     Edge 25, Type (0, 0), BuildingBlock: CIFDUS_clean_linker_0, # of connection points: 2
#     Edge 26, Type (0, 0), BuildingBlock: CIFDUS_clean_linker_0, # of connection points: 2
#     Edge 27, Type (0, 0), BuildingBlock: CIFDUS_clean_linker_0, # of connection points: 2
#     Edge 28, Type (0, 0), BuildingBlock: CIFDUS_clean_linker_0, # of connection points: 2
#     Edge 29, Type (0, 0), BuildingBlock: CIFDUS_clean_linker_0, # of connection points: 2
#     Edge 30, Type (0, 0), BuildingBlock: CIFDUS_clean_linker_0, # of connection points: 2
#     Edge 31, Type (0, 0), BuildingBlock: CIFDUS_clean_linker_0, # of connection points: 2
#     Edge 32, Type (0, 0), BuildingBlock: CIFDUS_clean_linker_0, # of connection points: 2
#     Edge 33, Type (0, 0), BuildingBlock: CIFDUS_clean_linker_0, # of connection points: 2
#     Edge 34, Type (0, 0), BuildingBlock: CIFDUS_clean_linker_0, # of connection points: 2
#     Edge 35, Type (0, 0), BuildingBlock: CIFDUS_clean_linker_0, # of connection points: 2
# Relax obj value: 0.090
# Max RMSD: 0.132
# Mean RMSD: 0.128
data_MOF--net-sod--node1-NAHDIM_clean_sbu_0--edge1-CIFDUS_clean_linker_0
_symmetry_space_group_name_H-M    P1
_symmetry_Int_Tables_number       1
_symmetry_cell_setting            triclinic
loop_
_symmetry_equiv_pos_as_xyz
'x, y, z'
_cell_length_a     37.426587
_cell_length_b     37.381593
_cell_length_c     36.948726
_cell_angle_alpha  90.691968
_cell_angle_beta   91.439771
_cell_angle_gamma 93.930033
loop_
_atom_site_label
_atom_site_type_symbol
_atom_site_fract_x
_atom_site_fract_y
_atom_site_fract_z
_atom_type_partial_charge
C0 C 0.0754 0.19089 0.4824 0.0
O1 O 0.04737 0.18825 0.46014 0.0
O2 O 0.03545 0.28063 0.46462 0.0
Zn3 Zn 0.03781 0.24895 0.5082 0.0
O4 O 0.99228 0.21756 0.51116 0.0
C5 C 0.01744 0.29776 0.56223 0.0
O6 O 0.98657 0.29195 0.54468 0.0
O7 O 0.07822 0.21628 0.5057 0.0
C8 C 0.98842 0.19709 0.53819 0.0
O9 O 0.01352 0.19841 0.56378 0.0
C10 C 0.06007 0.28461 0.44164 0.0
O11 O 0.08863 0.26626 0.4451 0.0
O12 O 0.04408 0.28124 0.55205 0.0
C13 C 0.81249 0.95609 0.45851 0.0
O14 O 0.81871 0.98059 0.43381 0.0
O15 O 0.73534 0.0095 0.52802 0.0
Zn16 Zn 0.76388 0.0067 0.48281 0.0
O17 O 0.80071 0.04833 0.48272 0.0
C18 C 0.70898 0.03506 0.4414 0.0
O19 O 0.71113 0.05684 0.46967 0.0
O20 O 0.78901 0.96095 0.48195 0.0
C21 C 0.82202 0.0534 0.50988 0.0
O22 O 0.81924 0.03127 0.53718 0.0
C23 C 0.73864 0.98916 0.55504 0.0
O24 O 0.76207 0.96457 0.55424 0.0
O25 O 0.73016 0.00995 0.43993 0.0
C26 C 0.95994 0.81195 0.45608 0.0
O27 O 0.98639 0.80967 0.43362 0.0
O28 O 0.00222 0.7307 0.44544 0.0
Zn29 Zn 0.00133 0.76222 0.49018 0.0
O30 O 0.04488 0.79698 0.49545 0.0
C31 C 0.0135 0.70292 0.536 0.0
O32 O 0.03293 0.69457 0.50843 0.0
O33 O 0.9594 0.79262 0.48417 0.0
C34 C 0.07588 0.79038 0.5073 0.0
O35 O 0.08232 0.75759 0.51656 0.0
C36 C 0.03012 0.72221 0.42936 0.0
O37 O 0.06181 0.73476 0.44164 0.0
O38 O -0.00337 0.7313 0.53466 0.0
C39 C 0.22319 0.04917 0.5117 0.0
O40 O 0.22104 0.02451 0.48594 0.0
O41 O 0.30864 0.00412 0.58044 0.0
Zn42 Zn 0.27423 0.00286 0.53741 0.0
O43 O 0.23985 0.95899 0.53714 0.0
C44 C 0.31927 0.0322 0.48253 0.0
O45 O 0.31837 0.06086 0.50334 0.0
O46 O 0.24515 0.04608 0.53809 0.0
C47 C 0.24816 0.92786 0.52775 0.0
O48 O 0.2812 0.923 0.51873 0.0
C49 C 0.33544 0.98504 0.57943 0.0
O50 O 0.33947 0.96472 0.55079 0.0
O51 O 0.3021 0.00338 0.49166 0.0
C52 C 0.44958 0.0668 0.31707 0.0
O53 O 0.47219 0.09461 0.31185 0.0
O54 O 0.48848 0.08323 0.22992 0.0
Zn55 Zn 0.48985 0.03927 0.26058 0.0
O56 O 0.53668 0.03851 0.28843 0.0
C57 C 0.49075 0.96542 0.23118 0.0
O58 O 0.50639 0.95713 0.26189 0.0
O59 O 0.4511 0.03907 0.29708 0.0
C60 C 0.56534 0.02585 0.2778 0.0
O61 O 0.56635 0.01186 0.24508 0.0
C62 C 0.51437 0.10675 0.22701 0.0
O63 O 0.54392 0.10389 0.24638 0.0
O64 O 0.48178 -0.00279 0.22638 0.0
C65 C 0.13153 0.50465 0.23184 0.0
O66 O 0.1382 0.5202 0.26359 0.0
O67 O 0.0613 0.53929 0.28434 0.0
Zn68 Zn 0.05642 0.49406 0.25366 0.0
O69 O 0.01575 0.49378 0.2168 0.0
C70 C 0.03164 0.45053 0.3128 0.0
O71 O 0.01288 0.47828 0.31917 0.0
O72 O 0.10003 0.49171 0.22379 0.0
C73 C 0.98207 0.48978 0.22061 0.0
O74 O 0.96903 0.48558 0.25307 0.0
C75 C 0.03785 0.56225 0.28582 0.0
O76 O 0.00827 0.55729 0.26603 0.0
O77 O 0.05196 0.45101 0.28575 0.0
C78 C 0.59558 0.02896 0.70426 0.0
O79 O 0.57116 0.05259 0.70335 0.0
O80 O 0.56071 0.05413 0.7928 0.0
Zn81 Zn 0.55501 0.00788 0.76439 0.0
O82 O 0.5089 0.00351 0.73483 0.0
C83 C 0.52762 0.95486 0.81346 0.0
O84 O 0.49738 0.96878 0.80456 0.0
O85 O 0.59507 0.00621 0.72954 0.0
C86 C 0.50437 0.97604 0.7142 0.0
O87 O 0.52895 0.95256 0.71442 0.0
C88 C 0.53406 0.06987 0.80416 0.0
O89 O 0.50151 0.05617 0.79617 0.0
O90 O 0.55641 0.96711 0.79922 0.0
C91 C 0.97601 0.58729 0.71311 0.0
O92 O 0.94959 0.58834 0.73576 0.0
O93 O 0.94865 0.52215 0.78047 0.0
Zn94 Zn 0.99068 0.51913 0.74753 0.0
O95 O 0.98416 0.47507 0.71543 0.0
C96 C 0.03563 0.48802 0.79904 0.0
O97 O 0.0083 0.46398 0.7975 0.0
O98 O -0.00356 0.56152 0.7146 0.0
C99 C 0.01104 0.46006 0.70351 0.0
O100 O 0.04345 0.47348 0.71252 0.0
C101 C 0.92543 0.4959 0.78303 0.0
O102 O 0.92784 0.4674 0.76234 0.0
O103 O 0.03478 0.51553 0.77923 0.0
C104 C 0.30681 0.46056 0.94292 0.0
O105 O 0.29635 0.47546 0.91278 0.0
O106 O 0.23623 0.50618 0.02194 0.0
Zn107 Zn 0.26642 0.51425 0.9784 0.0
O108 O 0.29912 0.55864 0.98569 0.0
C109 C 0.20876 0.49384 0.93017 0.0
O110 O 0.20735 0.46642 0.95213 0.0
O111 O 0.29675 0.47248 0.97306 0.0
C112 C 0.28959 0.587 0.00088 0.0
O113 O 0.2564 0.58829 0.01134 0.0
C114 C 0.24821 0.50997 0.05434 0.0
O115 O 0.28218 0.52 0.06042 0.0
O116 O 0.23337 0.51866 0.93523 0.0
C117 C 0.45221 0.3169 0.97384 0.0
O118 O 0.46216 0.30274 0.9433 0.0
O119 O 0.50548 0.24413 0.96165 0.0
Zn120 Zn 0.50994 0.27833 0.00412 0.0
O121 O 0.55608 0.3092 0.0042 0.0
C122 C 0.48068 0.23045 0.05704 0.0
O123 O 0.45268 0.23009 0.03481 0.0
O124 O 0.46863 0.30997 0.00318 0.0
C125 C 0.56109 0.33437 0.98171 0.0
O126 O 0.53617 0.33926 0.95694 0.0
C127 C 0.53234 0.23082 0.94769 0.0
O128 O 0.56461 0.24024 0.9608 0.0
O129 O 0.50874 0.2497 0.0496 0.0
C130 C 0.72727 0.57741 0.06059 0.0
O131 O 0.72849 0.55065 0.08323 0.0
O132 O 0.80278 0.52351 0.0673 0.0
Zn133 Zn 0.7724 0.53309 0.02302 0.0
O134 O 0.7351 0.49238 0.01421 0.0
C135 C 0.80568 0.51357 0.95702 0.0
O136 O 0.78912 0.48242 0.9641 0.0
O137 O 0.74557 0.57685 0.03211 0.0
C138 C 0.7115 0.49632 0.9895 0.0
O139 O 0.71294 0.52614 0.97097 0.0
C140 C 0.83379 0.51196 0.06488 0.0
O141 O 0.84631 0.50569 0.03269 0.0
O142 O 0.80279 0.53983 0.97872 0.0
C143 C 0.58211 0.72318 0.05033 0.0
O144 O 0.56004 0.71995 0.07739 0.0
O145 O 0.5268 0.80073 0.98194 0.0
Zn146 Zn 0.52804 0.76692 0.0241 0.0
O147 O 0.48836 0.72794 0.01802 0.0
C148 C 0.50515 0.82087 0.07298 0.0
O149 O 0.48737 0.83013 0.04386 0.0
O150 O 0.57442 0.74305 0.02401 0.0
C151 C 0.45747 0.72866 0.03143 0.0
O152 O 0.44986 0.75636 0.05129 0.0
C153 C 0.49791 0.80557 0.96438 0.0
O154 O 0.46801 0.78807 0.97377 0.0
O155 O 0.52433 0.79417 0.07123 0.0
H156 H 0.01172 0.33529 0.43516 0.0
H157 H 0.10338 0.29484 0.38371 0.0
H158 H 0.10156 0.34161 0.33822 0.0
H159 H 0.07551 0.39544 0.31461 0.0
H160 H 0.98524 0.43708 0.36755 0.0
H161 H 0.98493 0.38826 0.41085 0.0
C162 C 0.03115 0.3365 0.41384 0.0
C163 C 0.05768 0.31162 0.41289 0.0
C164 C 0.03029 0.36376 0.38812 0.0
C165 C 0.08274 0.31372 0.38516 0.0
C166 C 0.08173 0.34046 0.35913 0.0
C167 C 0.0556 0.39372 0.33546 0.0
C168 C 0.03049 0.41993 0.33787 0.0
C169 C 0.05587 0.36585 0.36059 0.0
C170 C 0.00498 0.41736 0.36516 0.0
C171 C 0.00476 0.38943 0.38994 0.0
H172 H 0.70201 0.00086 0.37562 0.0
H173 H 0.65317 0.07788 0.44325 0.0
H174 H 0.60527 0.08256 0.39808 0.0
H175 H 0.57603 0.06343 0.34061 0.0
H176 H 0.62465 0.98733 0.27186 0.0
H177 H 0.67401 0.9839 0.31613 0.0
C178 C 0.68093 0.01873 0.3804 0.0
C179 C 0.68108 0.0388 0.41289 0.0
C180 C 0.65344 0.02148 0.35415 0.0
C181 C 0.65374 0.06208 0.41853 0.0
C182 C 0.62626 0.06477 0.39273 0.0
C183 C 0.59747 0.04614 0.3352 0.0
C184 C 0.59652 0.02545 0.30313 0.0
C185 C 0.62568 0.04437 0.36064 0.0
C186 C 0.62474 0.00354 0.29636 0.0
C187 C 0.6529 0.00147 0.32172 0.0
H188 H 0.9883 0.60784 0.30612 0.0
H189 H 0.09929 0.58609 0.32258 0.0
H190 H 0.1073 0.63531 0.36672 0.0
H191 H 0.08207 0.68265 0.40278 0.0
H192 H 0.97036 0.7024 0.38831 0.0
H193 H 0.96345 0.65601 0.34109 0.0
C194 C 0.01432 0.61403 0.31914 0.0
C195 C 0.04311 0.59326 0.31111 0.0
C196 C 0.0186 0.64197 0.34493 0.0
C197 C 0.07661 0.60154 0.32839 0.0
C198 C 0.08124 0.62971 0.35362 0.0
C199 C 0.05631 0.67705 0.38904 0.0
C200 C 0.02678 0.6959 0.39907 0.0
C201 C 0.05233 0.64984 0.36241 0.0
C202 C 0.99349 0.68813 0.38121 0.0
C203 C 0.9895 0.66161 0.35421 0.0
H204 H 0.35874 0.08922 0.45593 0.0
H205 H 0.3274 0.97753 0.43431 0.0
H206 H 0.36365 0.97886 0.38029 0.0
H207 H 0.4057 0.01115 0.34028 0.0
H208 H 0.43772 0.12259 0.36251 0.0
H209 H 0.39952 0.12191 0.41507 0.0
C210 C 0.35973 0.06517 0.43938 0.0
C211 C 0.34048 0.03331 0.44926 0.0
C212 C 0.38074 0.06605 0.40843 0.0
C213 C 0.34203 0.00242 0.4274 0.0
C214 C 0.36275 0.00314 0.39648 0.0
C215 C 0.40416 0.03538 0.35646 0.0
C216 C 0.42464 0.06684 0.3475 0.0
C217 C 0.38241 0.03473 0.38688 0.0
C218 C 0.42234 0.09796 0.36882 0.0
C219 C 0.40052 0.09761 0.39894 0.0
H220 H 0.02187 0.58681 0.65749 0.0
H221 H 0.93951 0.64767 0.70299 0.0
H222 H 0.94447 0.68958 0.65274 0.0
H223 H 0.97089 0.70769 0.59466 0.0
H224 H 0.05209 0.6452 0.54914 0.0
H225 H 0.04878 0.60524 0.60064 0.0
C226 C 0.00512 0.60936 0.65664 0.0
C227 C 0.98033 0.61403 0.684 0.0
C228 C 0.00776 0.633 0.62751 0.0
C229 C 0.9588 0.64338 0.68228 0.0
C230 C 0.96158 0.66734 0.65352 0.0
C231 C 0.98794 0.6854 0.59609 0.0
C232 C 0.01161 0.67943 0.56796 0.0
C233 C 0.98574 0.66221 0.62578 0.0
C234 C 0.03349 0.65039 0.57025 0.0
C235 C 0.03168 0.62749 0.59975 0.0
H236 H 0.4477 0.01803 0.70803 0.0
H237 H 0.491 0.92349 0.66304 0.0
H238 H 0.4419 0.91735 0.6184 0.0
H239 H 0.38826 0.94008 0.59036 0.0
H240 H 0.34406 0.0341 0.63516 0.0
H241 H 0.39182 0.03903 0.68173 0.0
C242 C 0.44629 -0.00401 0.68856 0.0
C243 C 0.47319 0.97144 0.68874 0.0
C244 C 0.4179 0.99255 0.66285 0.0
C245 C 0.47079 0.94289 0.66348 0.0
C246 C 0.44273 0.93935 0.63786 0.0
C247 C 0.38897 0.96161 0.61037 0.0
C248 C 0.36281 0.98684 0.6091 0.0
C249 C 0.4164 0.96425 0.63702 0.0
C250 C 0.3639 0.01432 0.6355 0.0
C251 C 0.39126 0.01722 0.66209 0.0
H252 H 0.96555 0.33537 0.59174 0.0
H253 H 0.0792 0.322 0.59833 0.0
H254 H 0.08702 0.37037 0.64339 0.0
H255 H 0.06205 0.41815 0.67893 0.0
H256 H 0.94834 0.43127 0.67255 0.0
H257 H 0.94016 0.38122 0.62944 0.0
C258 C 0.99202 0.34288 0.60315 0.0
C259 C 0.02175 0.32522 0.59147 0.0
C260 C 0.99637 0.37078 0.62898 0.0
C261 C 0.05583 0.33517 0.60676 0.0
C262 C 0.06037 0.3629 0.63248 0.0
C263 C 0.03545 0.41002 0.6682 0.0
C264 C 0.00592 0.42863 0.67875 0.0
C265 C 0.0309 0.38118 0.64345 0.0
C266 C 0.97158 0.4175 0.66482 0.0
C267 C 0.96686 0.38889 0.64013 0.0
H268 H 0.64735 0.98184 0.69645 0.0
H269 H 0.60237 0.07289 0.64613 0.0
H270 H 0.64319 0.06899 0.59608 0.0
H271 H 0.69025 0.03883 0.56569 0.0
H272 H 0.73535 0.94762 0.61549 0.0
H273 H 0.69587 0.95262 0.66671 0.0
C274 C 0.6466 0.00096 0.67464 0.0
C275 C 0.62174 0.02754 0.67502 0.0
C276 C 0.67006 -0.00151 0.64579 0.0
C277 C 0.62116 0.05211 0.64654 0.0
C278 C 0.64448 0.04989 0.61784 0.0
C279 C 0.69156 0.02005 0.58776 0.0
C280 C 0.71563 0.9928 0.58665 0.0
C281 C 0.66879 0.02303 0.61705 0.0
C282 C 0.71704 0.96883 0.6156 0.0
C283 C 0.69445 0.97164 0.6449 0.0
H284 H 0.41773 0.34393 0.91559 0.0
H285 H 0.422 0.34646 0.03253 0.0
H286 H 0.37632 0.38991 0.03306 0.0
H287 H 0.33685 0.42865 0.00059 0.0
H288 H 0.3332 0.42755 0.88369 0.0
H289 H 0.37689 0.38186 0.88296 0.0
C290 C 0.40853 0.35382 0.9412 0.0
C291 C 0.42337 0.34203 0.97396 0.0
C292 C 0.38245 0.3791 0.94135 0.0
C293 C 0.41116 0.35518 0.0069 0.0
C294 C 0.38502 0.38004 0.00726 0.0
C295 C 0.34542 0.41833 0.97489 0.0
C296 C 0.33184 0.43161 0.94224 0.0
C297 C 0.37075 0.39241 0.97467 0.0
C298 C 0.34328 0.41788 0.90923 0.0
C299 C 0.36829 0.39177 0.90879 0.0
H300 H 0.35971 0.59152 0.98354 0.0
H301 H 0.27967 0.6505 0.0357 0.0
H302 H 0.32464 0.69945 0.05013 0.0
H303 H 0.38688 0.72519 0.04837 0.0
H304 H 0.46642 0.66573 0.99587 0.0
H305 H 0.42135 0.61722 0.98131 0.0
C306 C 0.35199 0.6151 0.99799 0.0
C307 C 0.31635 0.61731 0.00852 0.0
C308 C 0.37793 0.64302 0.00628 0.0
C309 C 0.3069 0.6481 0.02722 0.0
C310 C 0.33262 0.67608 0.03556 0.0
C311 C 0.39438 0.70158 0.03383 0.0
C312 C 0.43001 0.69912 0.0233 0.0
C313 C 0.36826 0.67376 0.02534 0.0
C314 C 0.43921 0.66839 0.00431 0.0
C315 C 0.41345 0.6406 0.99593 0.0
H316 H 0.57605 0.39487 0.9433 0.0
H317 H 0.61823 0.33079 0.02874 0.0
H318 H 0.6691 0.37466 0.03787 0.0
H319 H 0.70027 0.43243 0.0234 0.0
H320 H 0.65748 0.49688 0.93859 0.0
H321 H 0.60827 0.45158 0.92746 0.0
C322 C 0.59649 0.39033 0.96375 0.0
C323 C 0.59321 0.35965 0.98539 0.0
C324 C 0.6255 0.41583 0.96914 0.0
C325 C 0.61998 0.35423 0.01176 0.0
C326 C 0.64909 0.37934 0.01706 0.0
C327 C 0.68026 0.43652 0.00238 0.0
C328 C 0.68249 0.46811 0.98201 0.0
C329 C 0.65188 0.41045 0.99621 0.0
C330 C 0.65638 0.4729 0.9548 0.0
C331 C 0.62819 0.447 0.94838 0.0
H332 H 0.71293 0.63205 0.01559 0.0
H333 H 0.68461 0.58592 0.11843 0.0
H334 H 0.63872 0.62859 0.12538 0.0
H335 H 0.60393 0.67617 0.10044 0.0
H336 H 0.63136 0.72154 0.99703 0.0
H337 H 0.68043 0.68213 0.99232 0.0
C338 C 0.69698 0.63154 0.03971 0.0
C339 C 0.70205 0.60563 0.0663 0.0
C340 C 0.67032 0.65589 0.04337 0.0
C341 C 0.68118 0.60544 0.09742 0.0
C342 C 0.65485 0.6298 0.10142 0.0
C343 C 0.6208 0.67768 0.07699 0.0
C344 C 0.61375 0.70157 0.04902 0.0
C345 C 0.64876 0.6547 0.07426 0.0
C346 C 0.63604 0.70327 0.01891 0.0
C347 C 0.6641 0.6807 0.01615 0.0
H348 H 0.55529 0.84008 0.93298 0.0
H349 H 0.43963 0.83013 0.92935 0.0
H350 H 0.4387 0.87499 0.882 0.0
H351 H 0.47057 0.91798 0.84261 0.0
H352 H 0.58623 0.92735 0.8454 0.0
H353 H 0.58724 0.88166 0.89202 0.0
C354 C 0.52987 0.84768 0.9218 0.0
C355 C 0.49759 0.83188 0.93482 0.0
C356 C 0.5295 0.8734 0.89445 0.0
C357 C 0.46489 0.84185 0.91984 0.0
C358 C 0.46431 0.86756 0.89279 0.0
C359 C 0.49602 0.91001 0.85335 0.0
C360 C 0.52825 0.9262 0.84066 0.0
C361 C 0.49643 0.88365 0.88005 0.0
C362 C 0.561 0.91533 0.85469 0.0
C363 C 0.56162 0.88925 0.88141 0.0
H364 H 0.15135 0.44719 0.91549 0.0
H365 H 0.20271 0.54758 0.88114 0.0
H366 H 0.15414 0.55422 0.83682 0.0
H367 H 0.09597 0.53253 0.80935 0.0
H368 H 0.04468 0.43238 0.84457 0.0
H369 H 0.09439 0.42473 0.88697 0.0
C370 C 0.15208 0.47045 0.8982 0.0
C371 C 0.18058 0.49689 0.90176 0.0
C372 C 0.12398 0.47426 0.87301 0.0
C373 C 0.18107 0.52683 0.87904 0.0
C374 C 0.15326 0.5307 0.85372 0.0
C375 C 0.09571 0.50898 0.82622 0.0
C376 C 0.06652 0.48318 0.82386 0.0
C377 C 0.12439 0.50475 0.85072 0.0
C378 C 0.0667 0.45276 0.84586 0.0
C379 C 0.09515 0.44832 0.87016 0.0
H380 H 0.48342 0.10952 0.83333 0.0
H381 H 0.59786 0.10197 0.82916 0.0
H382 H 0.60746 0.15207 0.87199 0.0
H383 H 0.58337 0.19619 0.9128 0.0
H384 H 0.4689 0.20351 0.91716 0.0
H385 H 0.45945 0.15549 0.87198 0.0
C386 C 0.51048 0.11894 0.84161 0.0
C387 C 0.53982 0.10182 0.82821 0.0
C388 C 0.51586 0.14768 0.8664 0.0
C389 C 0.57472 0.11454 0.83912 0.0
C390 C 0.58028 0.14319 0.86367 0.0
C391 C 0.55635 0.18744 0.90374 0.0
C392 C 0.52692 0.20329 0.91858 0.0
C393 C 0.55104 0.15967 0.87783 0.0
C394 C 0.49209 0.19171 0.90635 0.0
C395 C 0.48661 0.16419 0.88051 0.0
H396 H 0.91609 0.54802 0.83361 0.0
H397 H 0.8738 0.44314 0.79659 0.0
H398 H 0.83237 0.44004 0.84645 0.0
H399 H 0.81015 0.46557 0.90209 0.0
H400 H 0.85208 0.57028 0.93968 0.0
H401 H 0.89156 0.57497 0.88797 0.0
C402 C 0.89761 0.52461 0.83627 0.0
C403 C 0.89826 0.49577 0.81148 0.0
C404 C 0.87393 0.52284 0.86521 0.0
C405 C 0.87403 0.46569 0.81531 0.0
C406 C 0.85034 0.46383 0.84388 0.0
C407 C 0.82785 0.48949 0.89898 0.0
C408 C 0.82835 0.5174 0.92488 0.0
C409 C 0.85043 0.49199 0.86927 0.0
C410 C 0.8512 0.54835 0.92018 0.0
C411 C 0.87383 0.55103 0.89064 0.0
H412 H 0.45838 0.11766 0.1812 0.0
H413 H 0.56592 0.15901 0.2105 0.0
H414 H 0.56434 0.20204 0.16137 0.0
H415 H 0.53368 0.22563 0.10817 0.0
H416 H 0.42646 0.18353 0.07853 0.0
H417 H 0.42673 0.1431 0.12986 0.0
C418 C 0.48142 0.13624 0.17707 0.0
C419 C 0.51231 0.13492 0.19939 0.0
C420 C 0.48048 0.16064 0.14858 0.0
C421 C 0.54183 0.15934 0.19367 0.0
C422 C 0.54099 0.18391 0.16552 0.0
C423 C 0.51028 0.20775 0.11301 0.0
C424 C 0.48019 0.20746 0.08936 0.0
C425 C 0.51066 0.18442 0.14248 0.0
C426 C 0.45004 0.18424 0.09619 0.0
C427 C 0.45016 0.16107 0.12554 0.0
H428 H 0.91047 0.49973 0.21827 0.0
H429 H 2e-05 0.48268 0.15019 0.0
H430 H 0.96177 0.48672 0.0963 0.0
H431 H 0.90358 0.49679 0.06828 0.0
H432 H 0.81409 0.51602 0.13561 0.0
H433 H 0.8516 0.50937 0.1899 0.0
C434 C 0.92152 0.49668 0.19164 0.0
C435 C 0.95805 0.49097 0.1883 0.0
C436 C 0.89944 0.49954 0.16058 0.0
C437 C 0.97203 0.4873 0.15357 0.0
C438 C 0.95018 0.48956 0.12268 0.0
C439 C 0.89218 0.49937 0.0948 0.0
C440 C 0.85609 0.5069 0.09783 0.0
C441 C 0.91395 0.49596 0.12585 0.0
C442 C 0.84184 0.5103 0.13247 0.0
C443 C 0.86326 0.50649 0.16356 0.0
H444 H 0.46724 0.87895 0.08448 0.0
H445 H 0.5399 0.81046 0.13777 0.0
H446 H 0.5399 0.84775 0.19258 0.0
H447 H 0.52178 0.90183 0.22416 0.0
H448 H 0.45029 0.97067 0.16956 0.0
H449 H 0.44716 0.93101 0.11664 0.0
C450 C 0.48296 0.872 0.10811 0.0
C451 C 0.50372 0.8421 0.1069 0.0
C452 C 0.48309 0.89367 0.13934 0.0
C453 C 0.52379 0.83344 0.13789 0.0
C454 C 0.52381 0.85476 0.16926 0.0
C455 C 0.5052 0.9079 0.20084 0.0
C456 C 0.48647 0.93927 0.20077 0.0
C457 C 0.50391 0.88522 0.17014 0.0
C458 C 0.4652 0.94684 0.17026 0.0
C459 C 0.46339 0.92419 0.13993 0.0
H460 H 0.26075 0.52704 0.12577 0.0
H461 H 0.18016 0.47942 0.05081 0.0
H462 H 0.13805 0.47163 0.09969 0.0
H463 H 0.12308 0.48059 0.16264 0.0
H464 H 0.20206 0.53001 0.2381 0.0
H465 H 0.24597 0.53451 0.19007 0.0
C466 C 0.23405 0.51475 0.12022 0.0
C467 C 0.22359 0.50399 0.08465 0.0
C468 C 0.20968 0.5107 0.14845 0.0
C469 C 0.18887 0.48818 0.07787 0.0
C470 C 0.16474 0.48364 0.10581 0.0
C471 C 0.14996 0.49214 0.16879 0.0
C472 C 0.15921 0.50507 0.20392 0.0
C473 C 0.17473 0.49516 0.14105 0.0
C474 C 0.1942 0.51992 0.21127 0.0
C475 C 0.21929 0.52257 0.1838 0.0
H476 H 0.86454 0.93811 0.41307 0.0
H477 H 0.81043 0.904 0.50988 0.0
H478 H 0.85023 0.85534 0.51683 0.0
H479 H 0.90246 0.8244 0.49722 0.0
H480 H 0.95658 0.85901 0.40055 0.0
H481 H 0.91461 0.90536 0.39178 0.0
C482 C 0.86125 0.91991 0.43557 0.0
C483 C 0.83468 0.92488 0.46101 0.0
C484 C 0.88436 0.89211 0.43956 0.0
C485 C 0.83072 0.90088 0.4899 0.0
C486 C 0.85353 0.87306 0.49397 0.0
C487 C 0.90494 0.84193 0.47411 0.0
C488 C 0.93281 0.83835 0.44976 0.0
C489 C 0.88077 0.86873 0.46925 0.0
C490 C 0.9355 0.86121 0.41985 0.0
C491 C 0.91152 0.8878 0.41478 0.0
H492 H 0.93588 0.18301 0.48674 0.0
H493 H 0.97165 0.15075 0.5927 0.0
H494 H 0.92279 0.10411 0.59362 0.0
H495 H 0.87123 0.07114 0.56356 0.0
H496 H 0.83586 0.10287 0.45729 0.0
H497 H 0.88327 0.15108 0.45737 0.0
C498 C 0.93288 0.16594 0.51015 0.0
C499 C 0.95748 0.17033 0.53955 0.0
C500 C 0.9049 0.13896 0.5104 0.0
C501 C 0.95318 0.14793 0.56964 0.0
C502 C 0.92525 0.1212 0.5702 0.0
C503 C 0.87379 0.08864 0.54044 0.0
C504 C 0.8501 0.08327 0.51042 0.0
C505 C 0.90119 0.11624 0.54058 0.0
C506 C 0.85378 0.10631 0.48074 0.0
C507 C 0.88089 0.13391 0.48074 0.0
H508 H 0.14795 0.78509 0.51378 0.0
H509 H 0.06703 0.86199 0.50982 0.0
H510 H 0.11311 0.91109 0.51713 0.0
H511 H 0.17623 0.93233 0.52409 0.0
H512 H 0.25775 0.8561 0.52492 0.0
H513 H 0.2116 0.8066 0.51944 0.0
C514 C 0.14044 0.8126 0.51462 0.0
C515 C 0.10414 0.81986 0.51136 0.0
C516 C 0.16715 0.84081 0.51827 0.0
C517 C 0.09481 0.85566 0.51212 0.0
C518 C 0.12112 0.88377 0.51639 0.0
C519 C 0.18391 0.90487 0.5233 0.0
C520 C 0.22033 0.89787 0.52515 0.0
C521 C 0.15734 0.87667 0.51946 0.0
C522 C 0.22987 0.86218 0.52356 0.0
C523 C 0.20351 0.83388 0.52044 0.0
H524 H 0.13097 0.18318 0.53006 0.0
H525 H 0.07968 0.1369 0.43278 0.0
H526 H 0.12158 0.08974 0.43274 0.0
H527 H 0.17135 0.06047 0.46129 0.0
H528 H 0.2221 0.10577 0.55925 0.0
H529 H 0.18184 0.15452 0.55796 0.0
C530 C 0.1291 0.16292 0.50871 0.0
C531 C 0.10216 0.16356 0.48151 0.0
C532 C 0.15307 0.13561 0.50904 0.0
C533 C 0.10007 0.13702 0.45412 0.0
C534 C 0.12401 0.11 0.45407 0.0
C535 C 0.17375 0.08106 0.48232 0.0
C536 C 0.19964 0.07937 0.51038 0.0
C537 C 0.15038 0.10884 0.48156 0.0
C538 C 0.20233 0.10633 0.53738 0.0
C539 C 0.17932 0.13423 0.53667 0.0
loop_
_geom_bond_atom_site_label_1
_geom_bond_atom_site_label_2
_geom_bond_distance
_geom_bond_site_symmetry_2
_ccdc_geom_bond_type
C0 O1 1.160 . S
C0 O7 1.185 . S
O1 C0 1.160 . S
O2 Zn3 1.899 . S
O2 C10 1.284 . S
Zn3 O2 1.899 . S
Zn3 O4 2.032 1_455 S
Zn3 O7 2.086 . S
Zn3 O12 1.977 . S
O4 Zn3 2.032 1_655 S
O4 C8 1.278 . S
C5 O6 1.203 1_455 S
C5 O12 1.267 . S
O6 C5 1.203 1_655 S
O7 C0 1.185 . S
O7 Zn3 2.086 . S
C8 O4 1.278 . S
C8 O9 1.211 . S
O9 C8 1.211 . S
C10 O2 1.284 . S
C10 O11 1.273 1_455 S
O11 C10 1.273 1_655 S
O12 Zn3 1.977 . S
O12 C5 1.267 . S
C13 O14 1.160 . S
C13 O20 1.185 . S
O14 C13 1.160 . S
O15 Zn16 1.899 . S
O15 C23 1.283 . S
Zn16 O15 1.899 . S
Zn16 O17 2.032 . S
Zn16 O20 2.086 1_545 S
Zn16 O25 1.977 . S
O17 Zn16 2.032 . S
O17 C21 1.278 . S
C18 O19 1.203 . S
C18 O25 1.267 . S
O19 C18 1.203 . S
O20 C13 1.185 . S
O20 Zn16 2.086 1_565 S
C21 O17 1.278 . S
C21 O22 1.211 . S
O22 C21 1.211 . S
C23 O15 1.283 . S
C23 O24 1.273 . S
O24 C23 1.273 . S
O25 Zn16 1.977 . S
O25 C18 1.267 . S
C26 O27 1.160 . S
C26 O33 1.185 . S
O27 C26 1.160 . S
O28 Zn29 1.899 . S
O28 C36 1.284 . S
Zn29 O28 1.899 . S
Zn29 O30 2.032 . S
Zn29 O33 2.086 1_455 S
Zn29 O38 1.977 . S
O30 Zn29 2.032 . S
O30 C34 1.278 . S
C31 O32 1.203 . S
C31 O38 1.267 . S
O32 C31 1.203 . S
O33 C26 1.185 . S
O33 Zn29 2.086 1_655 S
C34 O30 1.278 . S
C34 O35 1.211 . S
O35 C34 1.211 . S
C36 O28 1.284 . S
C36 O37 1.273 . S
O37 C36 1.273 . S
O38 Zn29 1.977 . S
O38 C31 1.267 . S
C39 O40 1.160 . S
C39 O46 1.185 . S
O40 C39 1.160 . S
O41 Zn42 1.899 . S
O41 C49 1.284 . S
Zn42 O41 1.899 . S
Zn42 O43 2.032 1_545 S
Zn42 O46 2.086 . S
Zn42 O51 1.977 . S
O43 Zn42 2.032 1_565 S
O43 C47 1.278 . S
C44 O45 1.203 1_545 S
C44 O51 1.267 . S
O45 C44 1.203 1_565 S
O46 C39 1.185 . S
O46 Zn42 2.086 . S
C47 O43 1.278 . S
C47 O48 1.211 . S
O48 C47 1.211 . S
C49 O41 1.284 . S
C49 O50 1.273 1_545 S
O50 C49 1.273 1_565 S
O51 Zn42 1.977 . S
O51 C44 1.267 . S
C52 O53 1.160 . S
C52 O59 1.185 . S
O53 C52 1.160 . S
O54 Zn55 1.899 . S
O54 C62 1.284 . S
Zn55 O54 1.899 . S
Zn55 O56 2.032 . S
Zn55 O59 2.086 . S
Zn55 O64 1.977 1_545 S
O56 Zn55 2.032 . S
O56 C60 1.278 . S
C57 O58 1.203 . S
C57 O64 1.267 . S
O58 C57 1.203 . S
O59 C52 1.185 . S
O59 Zn55 2.086 . S
C60 O56 1.278 . S
C60 O61 1.213 . S
O61 C60 1.213 . S
C62 O54 1.284 . S
C62 O63 1.273 . S
O63 C62 1.273 . S
O64 Zn55 1.977 1_565 S
O64 C57 1.267 . S
C65 O66 1.160 . S
C65 O72 1.185 . S
O66 C65 1.160 . S
O67 Zn68 1.899 . S
O67 C75 1.284 . S
Zn68 O67 1.899 . S
Zn68 O69 2.032 . S
Zn68 O72 2.086 . S
Zn68 O77 1.977 . S
O69 Zn68 2.032 . S
O69 C73 1.278 1_455 S
C70 O71 1.203 . S
C70 O77 1.267 . S
O71 C70 1.203 . S
O72 C65 1.185 . S
O72 Zn68 2.086 . S
C73 O69 1.278 1_655 S
C73 O74 1.211 . S
O74 C73 1.211 . S
C75 O67 1.284 . S
C75 O76 1.273 1_455 S
O76 C75 1.273 1_655 S
O77 Zn68 1.977 . S
O77 C70 1.267 . S
C78 O79 1.160 . S
C78 O85 1.198 . S
O79 C78 1.160 . S
O80 Zn81 1.899 . S
O80 C88 1.284 . S
Zn81 O80 1.899 . S
Zn81 O82 2.032 . S
Zn81 O85 2.090 . S
Zn81 O90 1.977 1_545 S
O82 Zn81 2.032 . S
O82 C86 1.278 . S
C83 O84 1.203 . S
C83 O90 1.267 . S
O84 C83 1.203 . S
O85 C78 1.198 . S
O85 Zn81 2.090 . S
C86 O82 1.278 . S
C86 O87 1.211 1_545 S
O87 C86 1.211 1_565 S
C88 O80 1.284 . S
C88 O89 1.273 . S
O89 C88 1.273 . S
O90 Zn81 1.977 1_565 S
O90 C83 1.267 . S
C91 O92 1.160 1_455 S
C91 O98 1.185 . S
O92 C91 1.160 1_655 S
O93 Zn94 1.899 1_655 S
O93 C101 1.284 . S
Zn94 O93 1.899 1_455 S
Zn94 O95 2.032 . S
Zn94 O98 2.086 . S
Zn94 O103 1.977 . S
O95 Zn94 2.032 . S
O95 C99 1.278 . S
C96 O97 1.203 . S
C96 O103 1.267 . S
O97 C96 1.203 . S
O98 C91 1.185 . S
O98 Zn94 2.086 . S
C99 O95 1.278 . S
C99 O100 1.211 . S
O100 C99 1.211 . S
C101 O93 1.284 . S
C101 O102 1.273 . S
O102 C101 1.273 . S
O103 Zn94 1.977 . S
O103 C96 1.267 . S
C104 O105 1.160 . S
C104 O111 1.185 1_554 S
O105 C104 1.160 . S
O106 Zn107 1.899 . S
O106 C114 1.284 . S
Zn107 O106 1.899 . S
Zn107 O108 2.032 . S
Zn107 O111 2.086 1_554 S
Zn107 O116 1.977 1_554 S
O108 Zn107 2.032 . S
O108 C112 1.278 1_554 S
C109 O110 1.203 . S
C109 O116 1.267 . S
O110 C109 1.203 . S
O111 C104 1.185 1_556 S
O111 Zn107 2.086 1_556 S
C112 O108 1.278 1_556 S
C112 O113 1.211 . S
O113 C112 1.211 . S
C114 O106 1.284 . S
C114 O115 1.273 . S
O115 C114 1.273 . S
O116 Zn107 1.977 1_556 S
O116 C109 1.267 . S
C117 O118 1.160 . S
C117 O124 1.185 1_556 S
O118 C117 1.160 . S
O119 Zn120 1.899 1_556 S
O119 C127 1.284 . S
Zn120 O119 1.899 1_554 S
Zn120 O121 2.032 . S
Zn120 O124 2.086 . S
Zn120 O129 1.977 . S
O121 Zn120 2.032 . S
O121 C125 1.278 . S
C122 O123 1.203 . S
C122 O129 1.267 . S
O123 C122 1.203 . S
O124 C117 1.185 1_554 S
O124 Zn120 2.086 . S
C125 O121 1.278 . S
C125 O126 1.211 . S
O126 C125 1.211 . S
C127 O119 1.284 . S
C127 O128 1.273 . S
O128 C127 1.273 . S
O129 Zn120 1.977 . S
O129 C122 1.267 . S
C130 O131 1.160 . S
C130 O137 1.185 1_554 S
O131 C130 1.160 . S
O132 Zn133 1.899 . S
O132 C140 1.284 . S
Zn133 O132 1.899 . S
Zn133 O134 2.032 . S
Zn133 O137 2.086 1_554 S
Zn133 O142 1.977 1_554 S
O134 Zn133 2.032 . S
O134 C138 1.278 . S
C135 O136 1.203 . S
C135 O142 1.267 . S
O136 C135 1.203 . S
O137 C130 1.185 1_556 S
O137 Zn133 2.086 1_556 S
C138 O134 1.278 . S
C138 O139 1.211 1_554 S
O139 C138 1.211 1_556 S
C140 O132 1.284 . S
C140 O141 1.273 . S
O141 C140 1.273 . S
O142 Zn133 1.977 1_556 S
O142 C135 1.267 . S
C143 O144 1.160 . S
C143 O150 1.185 1_556 S
O144 C143 1.160 . S
O145 Zn146 1.899 1_556 S
O145 C153 1.284 . S
Zn146 O145 1.899 1_554 S
Zn146 O147 2.032 . S
Zn146 O150 2.086 . S
Zn146 O155 1.977 . S
O147 Zn146 2.032 . S
O147 C151 1.278 . S
C148 O149 1.203 . S
C148 O155 1.267 . S
O149 C148 1.203 . S
O150 C143 1.185 1_554 S
O150 Zn146 2.086 . S
C151 O147 1.278 . S
C151 O152 1.211 . S
O152 C151 1.211 . S
C153 O145 1.284 . S
C153 O154 1.273 . S
O154 C153 1.273 . S
O155 Zn146 1.977 . S
O155 C148 1.267 . S
H156 C162 0.930 . S
H157 C165 0.930 1_655 S
H158 C166 0.930 1_655 S
H159 C167 0.930 . S
H160 C170 0.930 . S
H161 C171 0.930 . S
C162 H156 0.930 . S
C162 C163 1.355 . S
C162 C164 1.415 . S
C163 C162 1.355 . S
C163 C165 1.419 . S
C164 C162 1.415 . S
C164 C169 1.425 . S
C164 C171 1.409 . S
C165 H157 0.930 1_455 S
C165 C163 1.419 . S
C165 C166 1.362 . S
C166 H158 0.930 1_455 S
C166 C165 1.362 . S
C166 C169 1.409 . S
C167 H159 0.930 . S
C167 C168 1.355 . S
C167 C169 1.415 . S
C168 C167 1.355 . S
C168 C170 1.419 . S
C169 C164 1.425 . S
C169 C166 1.409 . S
C169 C167 1.415 . S
C170 H160 0.930 . S
C170 C168 1.419 . S
C170 C171 1.362 . S
C171 H161 0.930 . S
C171 C164 1.409 . S
C171 C170 1.362 . S
H172 C178 0.930 . S
H173 C181 0.930 . S
H174 C182 0.930 . S
H175 C183 0.930 . S
H176 C186 0.930 . S
H177 C187 0.930 . S
C178 H172 0.930 . S
C178 C179 1.355 . S
C178 C180 1.415 . S
C179 C178 1.355 . S
C179 C181 1.419 . S
C180 C178 1.415 . S
C180 C185 1.425 . S
C180 C187 1.409 . S
C181 H173 0.930 . S
C181 C179 1.419 . S
C181 C182 1.362 . S
C182 H174 0.930 . S
C182 C181 1.362 . S
C182 C185 1.409 . S
C183 H175 0.930 . S
C183 C184 1.355 . S
C183 C185 1.415 . S
C184 C183 1.355 . S
C184 C186 1.419 . S
C185 C180 1.425 . S
C185 C182 1.409 . S
C185 C183 1.415 . S
C186 H176 0.930 . S
C186 C184 1.419 . S
C186 C187 1.362 . S
C187 H177 0.930 . S
C187 C180 1.409 . S
C187 C186 1.362 . S
H188 C194 0.930 1_655 S
H189 C197 0.930 . S
H190 C198 0.930 . S
H191 C199 0.930 . S
H192 C202 0.930 . S
H193 C203 0.930 . S
C194 H188 0.930 1_455 S
C194 C195 1.355 . S
C194 C196 1.415 . S
C195 C194 1.355 . S
C195 C197 1.419 . S
C196 C194 1.415 . S
C196 C201 1.425 . S
C196 C203 1.409 1_455 S
C197 H189 0.930 . S
C197 C195 1.419 . S
C197 C198 1.362 . S
C198 H190 0.930 . S
C198 C197 1.362 . S
C198 C201 1.409 . S
C199 H191 0.930 . S
C199 C200 1.355 . S
C199 C201 1.415 . S
C200 C199 1.355 . S
C200 C202 1.419 1_455 S
C201 C196 1.425 . S
C201 C198 1.409 . S
C201 C199 1.415 . S
C202 H192 0.930 . S
C202 C200 1.419 1_655 S
C202 C203 1.362 . S
C203 H193 0.930 . S
C203 C196 1.409 1_655 S
C203 C202 1.362 . S
H204 C210 0.930 . S
H205 C213 0.930 . S
H206 C214 0.930 . S
H207 C215 0.930 . S
H208 C218 0.930 . S
H209 C219 0.930 . S
C210 H204 0.930 . S
C210 C211 1.355 . S
C210 C212 1.415 . S
C211 C210 1.355 . S
C211 C213 1.419 . S
C212 C210 1.415 . S
C212 C217 1.425 . S
C212 C219 1.409 . S
C213 H205 0.930 . S
C213 C211 1.419 . S
C213 C214 1.362 . S
C214 H206 0.930 . S
C214 C213 1.362 . S
C214 C217 1.409 . S
C215 H207 0.930 . S
C215 C216 1.355 . S
C215 C217 1.415 . S
C216 C215 1.355 . S
C216 C218 1.419 . S
C217 C212 1.425 . S
C217 C214 1.409 . S
C217 C215 1.415 . S
C218 H208 0.930 . S
C218 C216 1.419 . S
C218 C219 1.362 . S
C219 H209 0.930 . S
C219 C212 1.409 . S
C219 C218 1.362 . S
H220 C226 0.930 . S
H221 C229 0.930 . S
H222 C230 0.930 . S
H223 C231 0.930 1_655 S
H224 C234 0.930 . S
H225 C235 0.930 . S
C226 H220 0.930 . S
C226 C227 1.355 . S
C226 C228 1.415 . S
C227 C226 1.355 . S
C227 C229 1.419 1_455 S
C228 C226 1.415 . S
C228 C233 1.425 . S
C228 C235 1.409 . S
C229 H221 0.930 . S
C229 C227 1.419 1_655 S
C229 C230 1.362 . S
C230 H222 0.930 . S
C230 C229 1.362 . S
C230 C233 1.409 1_655 S
C231 H223 0.930 1_455 S
C231 C232 1.355 . S
C231 C233 1.415 . S
C232 C231 1.355 . S
C232 C234 1.419 . S
C233 C228 1.425 . S
C233 C230 1.409 1_455 S
C233 C231 1.415 . S
C234 H224 0.930 . S
C234 C232 1.419 . S
C234 C235 1.362 . S
C235 H225 0.930 . S
C235 C228 1.409 . S
C235 C234 1.362 . S
H236 C242 0.930 . S
H237 C245 0.924 1_565 S
H238 C246 0.930 . S
H239 C247 0.923 1_565 S
H240 C250 0.930 . S
H241 C251 0.930 . S
C242 H236 0.930 . S
C242 C243 1.355 . S
C242 C244 1.415 . S
C243 C242 1.355 . S
C243 C245 1.425 . S
C244 C242 1.415 . S
C244 C249 1.425 . S
C244 C251 1.409 . S
C245 H237 0.924 1_545 S
C245 C243 1.425 . S
C245 C246 1.363 1_545 S
C246 H238 0.930 . S
C246 C245 1.363 1_565 S
C246 C249 1.410 1_565 S
C247 H239 0.923 1_545 S
C247 C248 1.355 . S
C247 C249 1.415 . S
C248 C247 1.355 . S
C248 C250 1.419 . S
C249 C244 1.425 . S
C249 C246 1.410 1_545 S
C249 C247 1.415 . S
C250 H240 0.930 . S
C250 C248 1.419 . S
C250 C251 1.362 . S
C251 H241 0.930 . S
C251 C244 1.409 . S
C251 C250 1.362 . S
H252 C258 0.930 1_655 S
H253 C261 0.930 . S
H254 C262 0.930 . S
H255 C263 0.930 . S
H256 C266 0.930 . S
H257 C267 0.930 . S
C258 H252 0.930 1_455 S
C258 C259 1.355 . S
C258 C260 1.415 . S
C259 C258 1.355 . S
C259 C261 1.419 . S
C260 C258 1.415 . S
C260 C265 1.425 . S
C260 C267 1.409 1_455 S
C261 H253 0.930 . S
C261 C259 1.419 . S
C261 C262 1.362 . S
C262 H254 0.930 . S
C262 C261 1.362 . S
C262 C265 1.409 . S
C263 H255 0.930 . S
C263 C264 1.355 . S
C263 C265 1.415 . S
C264 C263 1.355 . S
C264 C266 1.419 1_455 S
C265 C260 1.425 . S
C265 C262 1.409 . S
C265 C263 1.415 . S
C266 H256 0.930 . S
C266 C264 1.419 1_655 S
C266 C267 1.362 . S
C267 H257 0.930 . S
C267 C260 1.409 1_655 S
C267 C266 1.362 . S
H268 C274 0.930 . S
H269 C277 0.930 . S
H270 C278 0.930 . S
H271 C279 0.930 . S
H272 C282 0.930 . S
H273 C283 0.930 . S
C274 H268 0.930 . S
C274 C275 1.355 . S
C274 C276 1.415 . S
C275 C274 1.355 . S
C275 C277 1.419 . S
C276 C274 1.415 . S
C276 C281 1.425 . S
C276 C283 1.409 . S
C277 H269 0.930 . S
C277 C275 1.419 . S
C277 C278 1.362 . S
C278 H270 0.930 . S
C278 C277 1.362 . S
C278 C281 1.409 . S
C279 H271 0.930 . S
C279 C280 1.355 . S
C279 C281 1.415 . S
C280 C279 1.355 . S
C280 C282 1.419 . S
C281 C276 1.425 . S
C281 C278 1.409 . S
C281 C279 1.415 . S
C282 H272 0.930 . S
C282 C280 1.419 . S
C282 C283 1.362 . S
C283 H273 0.930 . S
C283 C276 1.409 . S
C283 C282 1.362 . S
H284 C290 0.930 . S
H285 C293 0.928 1_556 S
H286 C294 0.930 . S
H287 C295 0.930 . S
H288 C298 0.930 . S
H289 C299 0.930 . S
C290 H284 0.930 . S
C290 C291 1.355 . S
C290 C292 1.415 . S
C291 C290 1.355 . S
C291 C293 1.420 . S
C292 C290 1.415 . S
C292 C297 1.425 . S
C292 C299 1.409 . S
C293 H285 0.928 1_554 S
C293 C291 1.420 . S
C293 C294 1.363 . S
C294 H286 0.930 . S
C294 C293 1.363 . S
C294 C297 1.409 . S
C295 H287 0.930 . S
C295 C296 1.355 . S
C295 C297 1.415 . S
C296 C295 1.355 . S
C296 C298 1.419 . S
C297 C292 1.425 . S
C297 C294 1.409 . S
C297 C295 1.415 . S
C298 H288 0.930 . S
C298 C296 1.419 . S
C298 C299 1.362 . S
C299 H289 0.930 . S
C299 C292 1.409 . S
C299 C298 1.362 . S
H300 C306 0.930 . S
H301 C309 0.930 . S
H302 C310 0.930 . S
H303 C311 0.930 . S
H304 C314 0.930 . S
H305 C315 0.930 . S
C306 H300 0.930 . S
C306 C307 1.355 . S
C306 C308 1.415 . S
C307 C306 1.355 . S
C307 C309 1.419 1_554 S
C308 C306 1.415 . S
C308 C313 1.425 . S
C308 C315 1.409 . S
C309 H301 0.930 . S
C309 C307 1.419 1_556 S
C309 C310 1.362 . S
C310 H302 0.930 . S
C310 C309 1.362 . S
C310 C313 1.409 1_556 S
C311 H303 0.930 . S
C311 C312 1.355 1_556 S
C311 C313 1.415 1_556 S
C312 C311 1.355 1_554 S
C312 C314 1.419 . S
C313 C308 1.425 . S
C313 C310 1.409 1_554 S
C313 C311 1.415 1_554 S
C314 H304 0.930 . S
C314 C312 1.419 . S
C314 C315 1.362 . S
C315 H305 0.930 . S
C315 C308 1.409 . S
C315 C314 1.362 . S
H316 C322 0.930 . S
H317 C325 0.930 . S
H318 C326 0.930 . S
H319 C327 0.930 . S
H320 C330 0.930 . S
H321 C331 0.930 . S
C322 H316 0.930 . S
C322 C323 1.355 . S
C322 C324 1.415 . S
C323 C322 1.355 . S
C323 C325 1.419 1_554 S
C324 C322 1.415 . S
C324 C329 1.431 . S
C324 C331 1.409 . S
C325 H317 0.930 . S
C325 C323 1.419 1_556 S
C325 C326 1.362 . S
C326 H318 0.930 . S
C326 C325 1.362 . S
C326 C329 1.405 1_556 S
C327 H319 0.930 . S
C327 C328 1.355 1_556 S
C327 C329 1.413 1_556 S
C328 C327 1.355 1_554 S
C328 C330 1.419 . S
C329 C324 1.431 . S
C329 C326 1.405 1_554 S
C329 C327 1.413 1_554 S
C330 H320 0.930 . S
C330 C328 1.419 . S
C330 C331 1.362 . S
C331 H321 0.930 . S
C331 C324 1.409 . S
C331 C330 1.362 . S
H332 C338 0.930 . S
H333 C341 0.930 . S
H334 C342 0.930 1_556 S
H335 C343 0.926 1_556 S
H336 C346 0.930 . S
H337 C347 0.930 . S
C338 H332 0.930 . S
C338 C339 1.355 . S
C338 C340 1.415 . S
C339 C338 1.355 . S
C339 C341 1.419 . S
C340 C338 1.415 . S
C340 C345 1.425 . S
C340 C347 1.409 . S
C341 H333 0.930 . S
C341 C339 1.419 . S
C341 C342 1.362 . S
C342 H334 0.930 1_554 S
C342 C341 1.362 . S
C342 C345 1.409 . S
C343 H335 0.926 1_554 S
C343 C344 1.356 . S
C343 C345 1.417 . S
C344 C343 1.356 . S
C344 C346 1.419 . S
C345 C340 1.425 . S
C345 C342 1.409 . S
C345 C343 1.417 . S
C346 H336 0.930 . S
C346 C344 1.419 . S
C346 C347 1.362 . S
C347 H337 0.930 . S
C347 C340 1.409 . S
C347 C346 1.362 . S
H348 C354 0.930 . S
H349 C357 0.930 . S
H350 C358 0.930 . S
H351 C359 0.930 . S
H352 C362 0.930 . S
H353 C363 0.930 . S
C354 H348 0.930 . S
C354 C355 1.355 . S
C354 C356 1.415 . S
C355 C354 1.355 . S
C355 C357 1.419 . S
C356 C354 1.415 . S
C356 C361 1.425 . S
C356 C363 1.409 . S
C357 H349 0.930 . S
C357 C355 1.419 . S
C357 C358 1.362 . S
C358 H350 0.930 . S
C358 C357 1.362 . S
C358 C361 1.409 . S
C359 H351 0.930 . S
C359 C360 1.355 . S
C359 C361 1.415 . S
C360 C359 1.355 . S
C360 C362 1.419 . S
C361 C356 1.425 . S
C361 C358 1.409 . S
C361 C359 1.415 . S
C362 H352 0.930 . S
C362 C360 1.419 . S
C362 C363 1.362 . S
C363 H353 0.930 . S
C363 C356 1.409 . S
C363 C362 1.362 . S
H364 C370 0.930 . S
H365 C373 0.930 . S
H366 C374 0.930 . S
H367 C375 0.930 . S
H368 C378 0.930 . S
H369 C379 0.930 . S
C370 H364 0.930 . S
C370 C371 1.355 . S
C370 C372 1.415 . S
C371 C370 1.355 . S
C371 C373 1.419 . S
C372 C370 1.415 . S
C372 C377 1.425 . S
C372 C379 1.409 . S
C373 H365 0.930 . S
C373 C371 1.419 . S
C373 C374 1.362 . S
C374 H366 0.930 . S
C374 C373 1.362 . S
C374 C377 1.409 . S
C375 H367 0.930 . S
C375 C376 1.355 . S
C375 C377 1.415 . S
C376 C375 1.355 . S
C376 C378 1.419 . S
C377 C372 1.425 . S
C377 C374 1.409 . S
C377 C375 1.415 . S
C378 H368 0.930 . S
C378 C376 1.419 . S
C378 C379 1.362 . S
C379 H369 0.930 . S
C379 C372 1.409 . S
C379 C378 1.362 . S
H380 C386 0.930 . S
H381 C389 0.930 . S
H382 C390 0.930 . S
H383 C391 0.930 . S
H384 C394 0.930 . S
H385 C395 0.930 . S
C386 H380 0.930 . S
C386 C387 1.355 . S
C386 C388 1.415 . S
C387 C386 1.355 . S
C387 C389 1.419 . S
C388 C386 1.415 . S
C388 C393 1.425 . S
C388 C395 1.409 . S
C389 H381 0.930 . S
C389 C387 1.419 . S
C389 C390 1.362 . S
C390 H382 0.930 . S
C390 C389 1.362 . S
C390 C393 1.409 . S
C391 H383 0.930 . S
C391 C392 1.355 . S
C391 C393 1.415 . S
C392 C391 1.355 . S
C392 C394 1.419 . S
C393 C388 1.425 . S
C393 C390 1.409 . S
C393 C391 1.415 . S
C394 H384 0.930 . S
C394 C392 1.419 . S
C394 C395 1.362 . S
C395 H385 0.930 . S
C395 C388 1.409 . S
C395 C394 1.362 . S
H396 C402 0.930 . S
H397 C405 0.930 . S
H398 C406 0.930 . S
H399 C407 0.930 . S
H400 C410 0.930 . S
H401 C411 0.930 . S
C402 H396 0.930 . S
C402 C403 1.355 . S
C402 C404 1.415 . S
C403 C402 1.355 . S
C403 C405 1.419 . S
C404 C402 1.415 . S
C404 C409 1.425 . S
C404 C411 1.409 . S
C405 H397 0.930 . S
C405 C403 1.419 . S
C405 C406 1.362 . S
C406 H398 0.930 . S
C406 C405 1.362 . S
C406 C409 1.409 . S
C407 H399 0.930 . S
C407 C408 1.355 . S
C407 C409 1.415 . S
C408 C407 1.355 . S
C408 C410 1.419 . S
C409 C404 1.425 . S
C409 C406 1.409 . S
C409 C407 1.415 . S
C410 H400 0.930 . S
C410 C408 1.419 . S
C410 C411 1.362 . S
C411 H401 0.930 . S
C411 C404 1.409 . S
C411 C410 1.362 . S
H412 C418 0.930 . S
H413 C421 0.930 . S
H414 C422 0.930 . S
H415 C423 0.930 . S
H416 C426 0.930 . S
H417 C427 0.930 . S
C418 H412 0.930 . S
C418 C419 1.355 . S
C418 C420 1.415 . S
C419 C418 1.355 . S
C419 C421 1.419 . S
C420 C418 1.415 . S
C420 C425 1.425 . S
C420 C427 1.409 . S
C421 H413 0.930 . S
C421 C419 1.419 . S
C421 C422 1.362 . S
C422 H414 0.930 . S
C422 C421 1.362 . S
C422 C425 1.409 . S
C423 H415 0.930 . S
C423 C424 1.355 . S
C423 C425 1.415 . S
C424 C423 1.355 . S
C424 C426 1.419 . S
C425 C420 1.425 . S
C425 C422 1.409 . S
C425 C423 1.415 . S
C426 H416 0.930 . S
C426 C424 1.419 . S
C426 C427 1.362 . S
C427 H417 0.930 . S
C427 C420 1.409 . S
C427 C426 1.362 . S
H428 C434 0.930 . S
H429 C437 0.930 . S
H430 C438 0.930 . S
H431 C439 0.930 . S
H432 C442 0.930 . S
H433 C443 0.930 . S
C434 H428 0.930 . S
C434 C435 1.355 . S
C434 C436 1.415 . S
C435 C434 1.355 . S
C435 C437 1.419 . S
C436 C434 1.415 . S
C436 C441 1.425 . S
C436 C443 1.409 . S
C437 H429 0.930 . S
C437 C435 1.419 . S
C437 C438 1.362 . S
C438 H430 0.930 . S
C438 C437 1.362 . S
C438 C441 1.409 . S
C439 H431 0.930 . S
C439 C440 1.355 . S
C439 C441 1.415 . S
C440 C439 1.355 . S
C440 C442 1.419 . S
C441 C436 1.425 . S
C441 C438 1.409 . S
C441 C439 1.415 . S
C442 H432 0.930 . S
C442 C440 1.419 . S
C442 C443 1.362 . S
C443 H433 0.930 . S
C443 C436 1.409 . S
C443 C442 1.362 . S
H444 C450 0.930 . S
H445 C453 0.930 . S
H446 C454 0.930 . S
H447 C455 0.930 . S
H448 C458 0.930 . S
H449 C459 0.930 . S
C450 H444 0.930 . S
C450 C451 1.355 . S
C450 C452 1.415 . S
C451 C450 1.355 . S
C451 C453 1.419 . S
C452 C450 1.415 . S
C452 C457 1.425 . S
C452 C459 1.409 . S
C453 H445 0.930 . S
C453 C451 1.419 . S
C453 C454 1.362 . S
C454 H446 0.930 . S
C454 C453 1.362 . S
C454 C457 1.409 . S
C455 H447 0.930 . S
C455 C456 1.355 . S
C455 C457 1.415 . S
C456 C455 1.355 . S
C456 C458 1.419 . S
C457 C452 1.425 . S
C457 C454 1.409 . S
C457 C455 1.415 . S
C458 H448 0.930 . S
C458 C456 1.419 . S
C458 C459 1.362 . S
C459 H449 0.930 . S
C459 C452 1.409 . S
C459 C458 1.362 . S
H460 C466 0.930 . S
H461 C469 0.930 . S
H462 C470 0.930 . S
H463 C471 0.930 . S
H464 C474 0.930 . S
H465 C475 0.930 . S
C466 H460 0.930 . S
C466 C467 1.355 . S
C466 C468 1.415 . S
C467 C466 1.355 . S
C467 C469 1.419 . S
C468 C466 1.415 . S
C468 C473 1.425 . S
C468 C475 1.409 . S
C469 H461 0.930 . S
C469 C467 1.419 . S
C469 C470 1.362 . S
C470 H462 0.930 . S
C470 C469 1.362 . S
C470 C473 1.409 . S
C471 H463 0.930 . S
C471 C472 1.355 . S
C471 C473 1.415 . S
C472 C471 1.355 . S
C472 C474 1.419 . S
C473 C468 1.425 . S
C473 C470 1.409 . S
C473 C471 1.415 . S
C474 H464 0.930 . S
C474 C472 1.419 . S
C474 C475 1.362 . S
C475 H465 0.930 . S
C475 C468 1.409 . S
C475 C474 1.362 . S
H476 C482 0.930 . S
H477 C485 0.930 . S
H478 C486 0.930 . S
H479 C487 0.930 . S
H480 C490 0.930 . S
H481 C491 0.930 . S
C482 H476 0.930 . S
C482 C483 1.355 . S
C482 C484 1.415 . S
C483 C482 1.355 . S
C483 C485 1.419 . S
C484 C482 1.415 . S
C484 C489 1.425 . S
C484 C491 1.409 . S
C485 H477 0.930 . S
C485 C483 1.419 . S
C485 C486 1.362 . S
C486 H478 0.930 . S
C486 C485 1.362 . S
C486 C489 1.409 . S
C487 H479 0.930 . S
C487 C488 1.355 . S
C487 C489 1.415 . S
C488 C487 1.355 . S
C488 C490 1.419 . S
C489 C484 1.425 . S
C489 C486 1.409 . S
C489 C487 1.415 . S
C490 H480 0.930 . S
C490 C488 1.419 . S
C490 C491 1.362 . S
C491 H481 0.930 . S
C491 C484 1.409 . S
C491 C490 1.362 . S
H492 C498 0.930 . S
H493 C501 0.930 . S
H494 C502 0.930 . S
H495 C503 0.930 . S
H496 C506 0.930 . S
H497 C507 0.930 . S
C498 H492 0.930 . S
C498 C499 1.355 . S
C498 C500 1.415 . S
C499 C498 1.355 . S
C499 C501 1.419 . S
C500 C498 1.415 . S
C500 C505 1.425 . S
C500 C507 1.409 . S
C501 H493 0.930 . S
C501 C499 1.419 . S
C501 C502 1.362 . S
C502 H494 0.930 . S
C502 C501 1.362 . S
C502 C505 1.409 . S
C503 H495 0.930 . S
C503 C504 1.355 . S
C503 C505 1.415 . S
C504 C503 1.355 . S
C504 C506 1.419 . S
C505 C500 1.425 . S
C505 C502 1.409 . S
C505 C503 1.415 . S
C506 H496 0.930 . S
C506 C504 1.419 . S
C506 C507 1.362 . S
C507 H497 0.930 . S
C507 C500 1.409 . S
C507 C506 1.362 . S
H508 C514 0.930 . S
H509 C517 0.930 . S
H510 C518 0.930 . S
H511 C519 0.930 . S
H512 C522 0.930 . S
H513 C523 0.930 . S
C514 H508 0.930 . S
C514 C515 1.355 . S
C514 C516 1.415 . S
C515 C514 1.355 . S
C515 C517 1.419 . S
C516 C514 1.415 . S
C516 C521 1.425 . S
C516 C523 1.409 . S
C517 H509 0.930 . S
C517 C515 1.419 . S
C517 C518 1.362 . S
C518 H510 0.930 . S
C518 C517 1.362 . S
C518 C521 1.409 . S
C519 H511 0.930 . S
C519 C520 1.355 . S
C519 C521 1.415 . S
C520 C519 1.355 . S
C520 C522 1.419 . S
C521 C516 1.425 . S
C521 C518 1.409 . S
C521 C519 1.415 . S
C522 H512 0.930 . S
C522 C520 1.419 . S
C522 C523 1.362 . S
C523 H513 0.930 . S
C523 C516 1.409 . S
C523 C522 1.362 . S
H524 C530 0.930 . S
H525 C533 0.930 . S
H526 C534 0.930 . S
H527 C535 0.930 . S
H528 C538 0.930 . S
H529 C539 0.930 . S
C530 H524 0.930 . S
C530 C531 1.355 . S
C530 C532 1.415 . S
C531 C530 1.355 . S
C531 C533 1.419 . S
C532 C530 1.415 . S
C532 C537 1.425 . S
C532 C539 1.409 . S
C533 H525 0.930 . S
C533 C531 1.419 . S
C533 C534 1.362 . S
C534 H526 0.930 . S
C534 C533 1.362 . S
C534 C537 1.409 . S
C535 H527 0.930 . S
C535 C536 1.355 . S
C535 C537 1.415 . S
C536 C535 1.355 . S
C536 C538 1.419 . S
C537 C532 1.425 . S
C537 C534 1.409 . S
C537 C535 1.415 . S
C538 H528 0.930 . S
C538 C536 1.419 . S
C538 C539 1.362 . S
C539 H529 0.930 . S
C539 C532 1.409 . S
C539 C538 1.362 . S
C163 C10 1.433 . S
C168 C70 1.403 . S
C179 C18 1.189 . S
C184 C60 1.233 . S
C195 C75 1.411 . S
C200 C36 1.412 . S
C211 C44 1.331 . S
C216 C52 1.332 . S
C227 C91 1.262 . S
C232 C31 1.265 . S
C243 C86 1.394 . S
C248 C49 1.396 . S
C259 C5 1.271 . S
C264 C99 1.281 . S
C275 C78 1.409 . S
C280 C23 1.419 . S
C291 C117 1.388 1_554 S
C296 C104 1.399 . S
C307 C112 1.271 1_554 S
C312 C151 1.291 . S
C323 C125 1.350 . S
C328 C138 1.333 . S
C339 C130 1.422 . S
C344 C143 1.409 1_554 S
C355 C153 1.388 . S
C360 C83 1.408 . S
C371 C109 1.261 . S
C376 C96 1.202 . S
C387 C88 1.445 . S
C392 C127 1.446 . S
C403 C101 1.343 . S
C408 C135 1.353 . S
C419 C62 1.298 . S
C424 C122 1.302 . S
C435 C73 1.434 . S
C440 C140 1.445 . S
C451 C148 1.257 . S
C456 C57 1.245 . S
C467 C114 1.384 . S
C472 C65 1.352 . S
C483 C13 1.374 . S
C488 C26 1.388 . S
C499 C8 1.272 . S
C504 C21 1.291 . S
C515 C34 1.304 . S
C520 C47 1.286 . S
C531 C0 1.400 . S
C536 C39 1.393 . S
