# Generated by pormake.
# Topology lcy-a, (4)-cn, num edge types: 1
# Building blocks:
#     Node 0, Type 0, BuildingBlock: NAHDIM_clean_sbu_0, # of connection points: 4
#     Node 1, Type 0, BuildingBlock: NAHDIM_clean_sbu_0, # of connection points: 4
#     Node 2, Type 0, BuildingBlock: NAHDIM_clean_sbu_0, # of connection points: 4
#     Node 3, Type 0, BuildingBlock: NAHDIM_clean_sbu_0, # of connection points: 4
#     Node 4, Type 0, BuildingBlock: NAHDIM_clean_sbu_0, # of connection points: 4
#     Node 5, Type 0, BuildingBlock: NAHDIM_clean_sbu_0, # of connection points: 4
#     Node 6, Type 0, BuildingBlock: NAHDIM_clean_sbu_0, # of connection points: 4
#     Node 7, Type 0, BuildingBlock: NAHDIM_clean_sbu_0, # of connection points: 4
#     Node 8, Type 0, BuildingBlock: NAHDIM_clean_sbu_0, # of connection points: 4
#     Node 9, Type 0, BuildingBlock: NAHDIM_clean_sbu_0, # of connection points: 4
#     Node 10, Type 0, BuildingBlock: NAHDIM_clean_sbu_0, # of connection points: 4
#     Node 11, Type 0, BuildingBlock: NAHDIM_clean_sbu_0, # of connection points: 4
#     Node 12, Type 0, BuildingBlock: NAHDIM_clean_sbu_0, # of connection points: 4
#     Node 13, Type 0, BuildingBlock: NAHDIM_clean_sbu_0, # of connection points: 4
#     Node 14, Type 0, BuildingBlock: NAHDIM_clean_sbu_0, # of connection points: 4
#     Node 15, Type 0, BuildingBlock: NAHDIM_clean_sbu_0, # of connection points: 4
#     Node 16, Type 0, BuildingBlock: NAHDIM_clean_sbu_0, # of connection points: 4
#     Node 17, Type 0, BuildingBlock: NAHDIM_clean_sbu_0, # of connection points: 4
#     Node 18, Type 0, BuildingBlock: NAHDIM_clean_sbu_0, # of connection points: 4
#     Node 19, Type 0, BuildingBlock: NAHDIM_clean_sbu_0, # of connection points: 4
#     Node 20, Type 0, BuildingBlock: NAHDIM_clean_sbu_0, # of connection points: 4
#     Node 21, Type 0, BuildingBlock: NAHDIM_clean_sbu_0, # of connection points: 4
#     Node 22, Type 0, BuildingBlock: NAHDIM_clean_sbu_0, # of connection points: 4
#     Node 23, Type 0, BuildingBlock: NAHDIM_clean_sbu_0, # of connection points: 4
#     Edge 24, Type (0, 0), BuildingBlock: CIFDUS_clean_linker_0, # of connection points: 2
#     Edge 25, Type (0, 0), BuildingBlock: CIFDUS_clean_linker_0, # of connection points: 2
#     Edge 26, Type (0, 0), BuildingBlock: CIFDUS_clean_linker_0, # of connection points: 2
#     Edge 27, Type (0, 0), BuildingBlock: CIFDUS_clean_linker_0, # of connection points: 2
#     Edge 28, Type (0, 0), BuildingBlock: CIFDUS_clean_linker_0, # of connection points: 2
#     Edge 29, Type (0, 0), BuildingBlock: CIFDUS_clean_linker_0, # of connection points: 2
#     Edge 30, Type (0, 0), BuildingBlock: CIFDUS_clean_linker_0, # of connection points: 2
#     Edge 31, Type (0, 0), BuildingBlock: CIFDUS_clean_linker_0, # of connection points: 2
#     Edge 32, Type (0, 0), BuildingBlock: CIFDUS_clean_linker_0, # of connection points: 2
#     Edge 33, Type (0, 0), BuildingBlock: CIFDUS_clean_linker_0, # of connection points: 2
#     Edge 34, Type (0, 0), BuildingBlock: CIFDUS_clean_linker_0, # of connection points: 2
#     Edge 35, Type (0, 0), BuildingBlock: CIFDUS_clean_linker_0, # of connection points: 2
#     Edge 36, Type (0, 0), BuildingBlock: CIFDUS_clean_linker_0, # of connection points: 2
#     Edge 37, Type (0, 0), BuildingBlock: CIFDUS_clean_linker_0, # of connection points: 2
#     Edge 38, Type (0, 0), BuildingBlock: CIFDUS_clean_linker_0, # of connection points: 2
#     Edge 39, Type (0, 0), BuildingBlock: CIFDUS_clean_linker_0, # of connection points: 2
#     Edge 40, Type (0, 0), BuildingBlock: CIFDUS_clean_linker_0, # of connection points: 2
#     Edge 41, Type (0, 0), BuildingBlock: CIFDUS_clean_linker_0, # of connection points: 2
#     Edge 42, Type (0, 0), BuildingBlock: CIFDUS_clean_linker_0, # of connection points: 2
#     Edge 43, Type (0, 0), BuildingBlock: CIFDUS_clean_linker_0, # of connection points: 2
#     Edge 44, Type (0, 0), BuildingBlock: CIFDUS_clean_linker_0, # of connection points: 2
#     Edge 45, Type (0, 0), BuildingBlock: CIFDUS_clean_linker_0, # of connection points: 2
#     Edge 46, Type (0, 0), BuildingBlock: CIFDUS_clean_linker_0, # of connection points: 2
#     Edge 47, Type (0, 0), BuildingBlock: CIFDUS_clean_linker_0, # of connection points: 2
#     Edge 48, Type (0, 0), BuildingBlock: CIFDUS_clean_linker_0, # of connection points: 2
#     Edge 49, Type (0, 0), BuildingBlock: CIFDUS_clean_linker_0, # of connection points: 2
#     Edge 50, Type (0, 0), BuildingBlock: CIFDUS_clean_linker_0, # of connection points: 2
#     Edge 51, Type (0, 0), BuildingBlock: CIFDUS_clean_linker_0, # of connection points: 2
#     Edge 52, Type (0, 0), BuildingBlock: CIFDUS_clean_linker_0, # of connection points: 2
#     Edge 53, Type (0, 0), BuildingBlock: CIFDUS_clean_linker_0, # of connection points: 2
#     Edge 54, Type (0, 0), BuildingBlock: CIFDUS_clean_linker_0, # of connection points: 2
#     Edge 55, Type (0, 0), BuildingBlock: CIFDUS_clean_linker_0, # of connection points: 2
#     Edge 56, Type (0, 0), BuildingBlock: CIFDUS_clean_linker_0, # of connection points: 2
#     Edge 57, Type (0, 0), BuildingBlock: CIFDUS_clean_linker_0, # of connection points: 2
#     Edge 58, Type (0, 0), BuildingBlock: CIFDUS_clean_linker_0, # of connection points: 2
#     Edge 59, Type (0, 0), BuildingBlock: CIFDUS_clean_linker_0, # of connection points: 2
#     Edge 60, Type (0, 0), BuildingBlock: CIFDUS_clean_linker_0, # of connection points: 2
#     Edge 61, Type (0, 0), BuildingBlock: CIFDUS_clean_linker_0, # of connection points: 2
#     Edge 62, Type (0, 0), BuildingBlock: CIFDUS_clean_linker_0, # of connection points: 2
#     Edge 63, Type (0, 0), BuildingBlock: CIFDUS_clean_linker_0, # of connection points: 2
#     Edge 64, Type (0, 0), BuildingBlock: CIFDUS_clean_linker_0, # of connection points: 2
#     Edge 65, Type (0, 0), BuildingBlock: CIFDUS_clean_linker_0, # of connection points: 2
#     Edge 66, Type (0, 0), BuildingBlock: CIFDUS_clean_linker_0, # of connection points: 2
#     Edge 67, Type (0, 0), BuildingBlock: CIFDUS_clean_linker_0, # of connection points: 2
#     Edge 68, Type (0, 0), BuildingBlock: CIFDUS_clean_linker_0, # of connection points: 2
#     Edge 69, Type (0, 0), BuildingBlock: CIFDUS_clean_linker_0, # of connection points: 2
#     Edge 70, Type (0, 0), BuildingBlock: CIFDUS_clean_linker_0, # of connection points: 2
#     Edge 71, Type (0, 0), BuildingBlock: CIFDUS_clean_linker_0, # of connection points: 2
# Relax obj value: 0.394
# Max RMSD: 0.213
# Mean RMSD: 0.213
data_MOF--net-lcy-a--node1-NAHDIM_clean_sbu_0--edge1-CIFDUS_clean_linker_0
_symmetry_space_group_name_H-M    P1
_symmetry_Int_Tables_number       1
_symmetry_cell_setting            triclinic
loop_
_symmetry_equiv_pos_as_xyz
'x, y, z'
_cell_length_a     49.734558
_cell_length_b     49.821661
_cell_length_c     49.830174
_cell_angle_alpha  90.199666
_cell_angle_beta   90.170762
_cell_angle_gamma 89.918786
loop_
_atom_site_label
_atom_site_type_symbol
_atom_site_fract_x
_atom_site_fract_y
_atom_site_fract_z
_atom_type_partial_charge
C0 C 0.17101 0.25994 0.43817 0.0
O1 O 0.19594 0.25977 0.44692 0.0
O2 O 0.21279 0.2445 0.37401 0.0
Zn3 Zn 0.1975 0.27749 0.39155 0.0
O4 O 0.22633 0.29463 0.4139 0.0
C5 C 0.18174 0.29646 0.33928 0.0
O6 O 0.1772 0.27087 0.33469 0.0
O7 O 0.16608 0.2678 0.41444 0.0
C8 C 0.22124 0.31682 0.42541 0.0
O9 O 0.19714 0.32737 0.42279 0.0
C10 C 0.22648 0.22723 0.38686 0.0
O11 O 0.22998 0.23034 0.41281 0.0
O12 O 0.18836 0.3039 0.36278 0.0
C13 C 0.97655 0.88413 0.66474 0.0
O14 O 0.96103 0.90266 0.67534 0.0
O15 O 0.97017 0.9219 0.59307 0.0
Zn16 Zn 0.9476 0.89818 0.61664 0.0
O17 O 0.92474 0.92181 0.6405 0.0
C18 C 0.90789 0.87369 0.57272 0.0
O19 O 0.92351 0.86971 0.59324 0.0
O20 O 0.97366 0.87795 0.64011 0.0
C21 C 0.90022 0.91821 0.64651 0.0
O22 O 0.88719 0.89762 0.63632 0.0
C23 C 0.98657 0.93755 0.60486 0.0
O24 O 0.98823 0.93694 0.63116 0.0
O25 O 0.92361 0.87066 0.59315 0.0
C26 C 0.34954 0.72209 0.90325 0.0
O27 O 0.34111 0.73573 0.88234 0.0
O28 O 0.29214 0.7158 0.86569 0.0
Zn29 Zn 0.31118 0.68489 0.88339 0.0
O30 O 0.28382 0.66667 0.90637 0.0
C31 C 0.33209 0.66669 0.83278 0.0
O32 O 0.34 0.69173 0.83057 0.0
O33 O 0.34112 0.69832 0.90676 0.0
C34 C 0.26113 0.66118 0.89593 0.0
O35 O 0.25685 0.66707 0.87059 0.0
C36 C 0.27852 0.73232 0.87962 0.0
O37 O 0.27779 0.72946 0.90581 0.0
O38 O 0.32202 0.65894 0.85482 0.0
C39 C 0.52446 0.10286 0.15688 0.0
O40 O 0.54145 0.08656 0.16881 0.0
O41 O 0.50146 0.05005 0.09455 0.0
Zn42 Zn 0.53295 0.06696 0.11308 0.0
O43 O 0.54703 0.04025 0.13971 0.0
C44 C 0.55795 0.07241 0.06156 0.0
O45 O 0.53292 0.0741 0.05324 0.0
O46 O 0.51979 0.09986 0.13198 0.0
C47 C 0.55173 0.01634 0.13214 0.0
O48 O 0.5466 0.00951 0.10715 0.0
C49 C 0.48239 0.04009 0.10816 0.0
O50 O 0.48328 0.04169 0.13448 0.0
O51 O 0.56267 0.07254 0.08663 0.0
C52 C 0.63061 0.21393 0.60925 0.0
O53 O 0.63802 0.21896 0.63408 0.0
O54 O 0.69545 0.20504 0.62856 0.0
Zn55 Zn 0.67242 0.17579 0.61322 0.0
O56 O 0.69329 0.15683 0.58437 0.0
C57 C 0.66564 0.1565 0.66671 0.0
O58 O 0.66511 0.18229 0.67229 0.0
O59 O 0.64052 0.19375 0.59717 0.0
C60 C 0.71812 0.15222 0.58836 0.0
O61 O 0.72923 0.16016 0.61098 0.0
C62 C 0.70654 0.22256 0.61385 0.0
O63 O 0.70338 0.22135 0.58769 0.0
O64 O 0.66525 0.14912 0.64228 0.0
C65 C 0.00122 0.42568 0.79897 0.0
O66 O -0.00274 0.44994 0.78951 0.0
O67 O -0.00261 0.48055 0.84623 0.0
Zn68 Zn 0.0287 0.45764 0.83459 0.0
O69 O 0.04884 0.47638 0.80556 0.0
C70 C 0.04619 0.45521 0.88951 0.0
O71 O 0.02024 0.45669 0.89417 0.0
O72 O 0.01526 0.42284 0.82008 0.0
C73 C 0.07057 0.46628 0.7968 0.0
O74 O 0.07917 0.44345 0.80679 0.0
C75 C 0.98838 0.49987 0.83222 0.0
O76 O -0.00052 0.50508 0.80893 0.0
O77 O 0.05427 0.45343 0.86543 0.0
C78 C 0.85202 0.75894 0.10813 0.0
O79 O 0.84121 0.74143 0.12449 0.0
O80 O 0.79321 0.76137 0.14338 0.0
Zn81 Zn 0.81498 0.79387 0.13393 0.0
O82 O 0.79046 0.81673 0.11152 0.0
C83 C 0.82259 0.83964 0.16683 0.0
O84 O 0.82257 0.85141 0.14328 0.0
O85 O 0.84622 0.78363 0.11074 0.0
C86 C 0.76727 0.82301 0.12015 0.0
O87 O 0.75987 0.81484 0.14406 0.0
C88 C 0.78013 0.74948 0.1249 0.0
O89 O 0.78228 0.75805 0.10009 0.0
O90 O 0.82344 0.81418 0.16774 0.0
C91 C 0.49262 0.55664 0.29441 0.0
O92 O 0.49724 0.53179 0.28686 0.0
O93 O 0.50816 0.51035 0.35159 0.0
Zn94 Zn 0.47428 0.52888 0.3396 0.0
O95 O 0.45191 0.50255 0.31877 0.0
C96 C 0.43008 0.54861 0.3724 0.0
O97 O 0.41969 0.55683 0.3496 0.0
O98 O 0.48239 0.56103 0.31731 0.0
C99 C 0.43429 0.50969 0.30173 0.0
O100 O 0.43093 0.53532 0.2966 0.0
C101 C 0.51823 0.49086 0.33848 0.0
O102 O 0.50726 0.48382 0.31551 0.0
O103 O 0.45338 0.53811 0.37253 0.0
C104 C 0.42123 0.16477 0.26132 0.0
O105 O 0.39989 0.17415 0.24892 0.0
O106 O 0.37485 0.21313 0.28003 0.0
Zn107 Zn 0.39763 0.1921 0.30595 0.0
O108 O 0.41811 0.2182 0.3288 0.0
C109 C 0.35057 0.16328 0.31934 0.0
O110 O 0.34816 0.16289 0.29307 0.0
O111 O 0.42386 0.16862 0.2864 0.0
C112 C 0.40666 0.23914 0.33792 0.0
O113 O 0.38119 0.24341 0.33227 0.0
C114 C 0.38399 0.23104 0.26447 0.0
O115 O 0.40986 0.23639 0.26476 0.0
O116 O 0.3723 0.17198 0.32958 0.0
C117 C 0.07313 0.16967 0.52453 0.0
O118 O 0.04814 0.17812 0.52348 0.0
O119 O 0.02195 0.11837 0.51343 0.0
Zn120 Zn 0.04555 0.12602 0.54552 0.0
O121 O 0.02347 0.14794 0.57094 0.0
C122 C 0.05348 0.06953 0.54884 0.0
O123 O 0.05128 0.0716 0.52265 0.0
O124 O 0.07806 0.1466 0.53415 0.0
C125 C 0.032 0.16589 0.58697 0.0
O126 O 0.05793 0.17066 0.58864 0.0
C127 C 0.00201 0.13311 0.50724 0.0
O128 O -0.00269 0.15498 0.52125 0.0
O129 O 0.05395 0.09078 0.56301 0.0
C130 C 0.08512 0.83196 0.76987 0.0
O131 O 0.10563 0.82018 0.75816 0.0
O132 O 0.11545 0.77233 0.78411 0.0
Zn133 Zn 0.10067 0.79722 0.81225 0.0
O134 O 0.07554 0.77541 0.83468 0.0
C135 C 0.15443 0.81165 0.82342 0.0
O136 O 0.15503 0.81223 0.79706 0.0
O137 O 0.08022 0.82691 0.79434 0.0
C138 C 0.08422 0.75319 0.8437 0.0
O139 O 0.10923 0.7462 0.83881 0.0
C140 C 0.10076 0.75722 0.76968 0.0
O141 O 0.07455 0.75769 0.77289 0.0
O142 O 0.13189 0.80881 0.83499 0.0
C143 C 0.4057 0.81711 0.01887 0.0
O144 O 0.42547 0.80549 0.03195 0.0
O145 O 0.45359 0.87951 0.01907 0.0
Zn146 Zn 0.42728 0.86313 0.04467 0.0
O147 O 0.44903 0.83991 0.06932 0.0
C148 C 0.40645 0.91501 0.05319 0.0
O149 O 0.40685 0.91458 0.02682 0.0
O150 O 0.40115 0.84193 0.02269 0.0
C151 C 0.46937 0.85065 0.08046 0.0
O152 O 0.47381 0.87638 0.0768 0.0
C153 C 0.4711 0.86505 0.00741 0.0
O154 O 0.47124 0.83904 0.01164 0.0
O155 O 0.41117 0.89336 0.06572 0.0
C156 C 0.92244 0.31719 0.71182 0.0
O157 O 0.93159 0.29282 0.71596 0.0
O158 O 0.87143 0.26386 0.71037 0.0
Zn159 Zn 0.88649 0.28712 0.68105 0.0
O160 O 0.91481 0.26628 0.66164 0.0
C161 C 0.83348 0.30004 0.66626 0.0
O162 O 0.83232 0.30446 0.69225 0.0
O163 O 0.90221 0.32044 0.69658 0.0
C164 C 0.90754 0.2452 0.64922 0.0
O165 O 0.88196 0.23863 0.649 0.0
C166 C 0.88436 0.24453 0.72087 0.0
O167 O 0.9093 0.24005 0.7135 0.0
O168 O 0.85609 0.29461 0.65581 0.0
C169 C 0.89748 0.69141 0.97096 0.0
O170 O 0.91777 0.70471 0.96071 0.0
O171 O 0.94669 0.63275 0.97072 0.0
Zn172 Zn 0.923 0.64963 0.94284 0.0
O173 O 0.94524 0.67605 0.92218 0.0
C174 C 0.9081 0.59676 0.92707 0.0
O175 O 0.90636 0.59366 0.95318 0.0
O176 O 0.89344 0.66736 0.96343 0.0
C177 C 0.96871 0.6688 0.91521 0.0
O178 O 0.97692 0.64443 0.92107 0.0
C179 C 0.96124 0.64654 0.98656 0.0
O180 O 0.96134 0.67281 0.98451 0.0
O181 O 0.91174 0.6202 0.91782 0.0
C182 C 0.5536 0.66274 0.19304 0.0
O183 O 0.54187 0.68632 0.19469 0.0
O184 O 0.60704 0.71611 0.19727 0.0
Zn185 Zn 0.59158 0.69449 0.1666 0.0
O186 O 0.5634 0.71615 0.14766 0.0
C187 C 0.64351 0.67799 0.15329 0.0
O188 O 0.64201 0.67002 0.17836 0.0
O189 O 0.57582 0.66067 0.18075 0.0
C190 C 0.56765 0.74087 0.14324 0.0
O191 O 0.5908 0.7514 0.15041 0.0
C192 C 0.59408 0.73228 0.21219 0.0
O193 O 0.56805 0.73513 0.20865 0.0
O194 O 0.62253 0.68736 0.14215 0.0
C195 C 0.58157 0.32389 0.5048 0.0
O196 O 0.5706 0.3447 0.51676 0.0
O197 O 0.52934 0.36457 0.48416 0.0
Zn198 Zn 0.5532 0.34399 0.45896 0.0
O199 O 0.53075 0.3196 0.43606 0.0
C200 C 0.57778 0.39347 0.44406 0.0
O201 O 0.57741 0.39741 0.47015 0.0
O202 O 0.57859 0.32086 0.47966 0.0
C203 C 0.50786 0.32639 0.42696 0.0
O204 O 0.49826 0.35031 0.43268 0.0
C205 C 0.51156 0.35396 0.49895 0.0
O206 O 0.5078 0.32788 0.49797 0.0
O207 O 0.57097 0.37063 0.43492 0.0
C208 C 0.25268 0.43319 0.16665 0.0
O209 O 0.25089 0.44059 0.19191 0.0
O210 O 0.25662 0.38517 0.21919 0.0
Zn211 Zn 0.28478 0.39703 0.19284 0.0
O212 O 0.308 0.42535 0.20956 0.0
C213 C 0.29997 0.34187 0.18816 0.0
O214 O 0.27417 0.33831 0.19246 0.0
O215 O 0.26702 0.41293 0.16071 0.0
C216 C 0.32599 0.41853 0.22632 0.0
O217 O 0.32858 0.39309 0.2327 0.0
C218 C 0.2507 0.39777 0.24059 0.0
O219 O 0.26292 0.42049 0.24614 0.0
O220 O 0.30866 0.36555 0.18468 0.0
C221 C 0.78598 0.01999 0.81085 0.0
O222 O 0.77948 0.01003 0.78727 0.0
O223 O 0.77315 0.06937 0.75931 0.0
Zn224 Zn 0.80791 0.05784 0.77644 0.0
O225 O 0.82619 0.03072 0.75275 0.0
C226 C 0.82142 0.11358 0.78328 0.0
O227 O 0.79535 0.11596 0.7868 0.0
O228 O 0.79967 0.04146 0.81192 0.0
C229 C 0.8516 0.03035 0.75037 0.0
O230 O 0.86611 0.04773 0.764 0.0
C231 C 0.76098 0.05606 0.74119 0.0
O232 O 0.77114 0.03312 0.73295 0.0
O233 O 0.83146 0.09036 0.77993 0.0
C234 C 0.17235 0.53439 0.07282 0.0
O235 O 0.17952 0.53157 0.04763 0.0
O236 O 0.11861 0.54089 0.02432 0.0
Zn237 Zn 0.1376 0.56881 0.04669 0.0
O238 O 0.16653 0.58644 0.0252 0.0
C239 C 0.08655 0.58686 0.06207 0.0
O240 O 0.08402 0.56097 0.06637 0.0
O241 O 0.15375 0.55089 0.07861 0.0
C242 C 0.16112 0.59614 0.00228 0.0
O243 O 0.13637 0.59463 -0.00691 0.0
C244 C 0.12824 0.52795 0.00455 0.0
O245 O 0.15324 0.53213 -0.00276 0.0
O246 O 0.10957 0.59601 0.05609 0.0
C247 C 0.69185 0.95183 0.31744 0.0
O248 O 0.69509 0.96231 0.2935 0.0
O249 O 0.69718 0.91066 0.2604 0.0
Zn250 Zn 0.6652 0.91555 0.28464 0.0
O251 O 0.6407 0.94161 0.26621 0.0
C252 C 0.65677 0.85795 0.28621 0.0
O253 O 0.68313 0.85705 0.28531 0.0
O254 O 0.67803 0.93053 0.31966 0.0
C255 C 0.63144 0.93383 0.24371 0.0
O256 O 0.638 0.90982 0.23484 0.0
C257 C 0.72052 0.90386 0.26833 0.0
O258 O 0.72475 0.89902 0.2939 0.0
O259 O 0.64514 0.88062 0.28791 0.0
C260 C 0.33563 0.5032 0.57068 0.0
O261 O 0.35967 0.50894 0.56151 0.0
O262 O 0.36391 0.47368 0.51437 0.0
Zn263 Zn 0.34257 0.45364 0.54157 0.0
O264 O 0.31341 0.43339 0.52264 0.0
C265 C 0.39193 0.43517 0.56242 0.0
O266 O 0.3972 0.46095 0.56071 0.0
O267 O 0.32563 0.48014 0.56629 0.0
C268 C 0.31903 0.41219 0.5096 0.0
O269 O 0.3441 0.40386 0.50876 0.0
C270 C 0.35439 0.49171 0.49911 0.0
O271 O 0.32866 0.49762 0.50024 0.0
O272 O 0.36789 0.42741 0.55872 0.0
C273 C 0.22664 0.59401 0.6416 0.0
O274 O 0.2329 0.61908 0.64688 0.0
O275 O 0.22784 0.59407 0.72044 0.0
Zn276 Zn 0.19806 0.59397 0.69285 0.0
O277 O 0.17075 0.56771 0.7059 0.0
C278 C 0.19451 0.65169 0.69667 0.0
O279 O 0.22078 0.65003 0.69891 0.0
O280 O 0.21162 0.58114 0.65755 0.0
C281 C 0.14558 0.57183 0.70449 0.0
O282 O 0.13661 0.59391 0.69322 0.0
C283 C 0.25284 0.59741 0.71636 0.0
O284 O 0.26171 0.60093 0.69185 0.0
O285 O 0.18108 0.63051 0.69204 0.0
C286 C 0.70483 0.95007 0.92855 0.0
O287 O 0.7137 0.95741 0.95233 0.0
O288 O 0.65336 0.96432 0.97822 0.0
Zn289 Zn 0.66518 0.92931 0.9618 0.0
O290 O 0.69095 0.91041 0.98623 0.0
C291 C 0.61002 0.91761 0.95187 0.0
O292 O 0.60955 0.9435 0.94696 0.0
O293 O 0.68319 0.93667 0.92694 0.0
C294 C 0.6834 0.9027 0.00927 0.0
O295 O 0.65856 0.90744 0.01687 0.0
C296 C 0.66545 0.97695 -0.00313 0.0
O297 O 0.68808 0.96735 0.00657 0.0
O298 O 0.63236 0.90641 0.95723 0.0
C299 C 0.79132 0.01735 0.42442 0.0
O300 O 0.78615 0.00923 0.44894 0.0
O301 O 0.84422 0.00293 0.46974 0.0
Zn302 Zn 0.83463 0.03837 0.45286 0.0
O303 O 0.81305 0.06046 0.47899 0.0
C304 C 0.89021 0.04666 0.43798 0.0
O305 O 0.89013 0.02061 0.43383 0.0
O306 O 0.81225 0.0313 0.42031 0.0
C307 C 0.82444 0.07668 0.49516 0.0
O308 O 0.85074 0.07903 0.49479 0.0
C309 C 0.85974 0.00189 0.49 0.0
O310 O 0.86949 0.0243 0.49997 0.0
O311 O 0.8684 0.05834 0.4443 0.0
H312 H 0.06736 0.21116 0.49034 0.0
H313 H 0.12725 0.16477 0.53264 0.0
H314 H 0.16297 0.19065 0.51126 0.0
H315 H 0.17699 0.22445 0.47857 0.0
H316 H 0.11704 0.2684 0.43385 0.0
H317 H 0.08133 0.24557 0.45844 0.0
C318 C 0.08822 0.20688 0.49509 0.0
C319 C 0.09472 0.1861 0.51297 0.0
C320 C 0.10855 0.22133 0.48227 0.0
C321 C 0.12181 0.1806 0.51879 0.0
C322 C 0.1422 0.19539 0.50662 0.0
C323 C 0.15611 0.22928 0.47446 0.0
C324 C 0.14957 0.24804 0.4545 0.0
C325 C 0.13578 0.21552 0.48805 0.0
C326 C 0.12248 0.25392 0.4491 0.0
C327 C 0.10211 0.24088 0.46311 0.0
H328 H 0.98639 0.89146 0.71784 0.0
H329 H 0.01666 0.85091 0.64736 0.0
H330 H 0.05426 0.83314 0.6734 0.0
H331 H 0.07789 0.82829 0.71623 0.0
H332 H 0.04667 0.86706 0.78721 0.0
H333 H 0.01023 0.88681 0.76072 0.0
C334 C 0.00119 0.87871 0.70815 0.0
C335 C -0.00132 0.87246 0.68072 0.0
C336 C 0.02269 0.86848 0.72325 0.0
C337 C 0.01802 0.8559 0.66849 0.0
C338 C 0.03961 0.84584 0.68333 0.0
C339 C 0.06335 0.84139 0.72585 0.0
C340 C 0.06503 0.84638 0.75358 0.0
C341 C 0.04211 0.85199 0.7107 0.0
C342 C 0.0458 0.86301 0.76585 0.0
C343 C 0.02493 0.87419 0.75075 0.0
H344 H 0.34644 0.77462 0.91552 0.0
H345 H 0.38299 0.70032 0.94086 0.0
H346 H 0.40309 0.72314 0.97965 0.0
H347 H 0.40971 0.76416 0.00637 0.0
H348 H 0.37098 0.8378 0.98183 0.0
H349 H 0.35179 0.81507 0.94287 0.0
C350 C 0.35912 0.76351 0.92933 0.0
C351 C 0.36364 0.73599 0.92522 0.0
C352 C 0.3698 0.77651 0.9519 0.0
C353 C 0.37949 0.72162 0.94359 0.0
C354 C 0.39083 0.73461 0.96578 0.0
C355 C 0.39693 0.7752 0.9926 0.0
C356 C 0.39185 0.80264 -0.00303 0.0
C357 C 0.38594 0.76202 0.97022 0.0
C358 C 0.37515 0.81663 0.979 0.0
C359 C 0.36431 0.80371 0.9566 0.0
H360 H 0.52073 0.10484 0.21119 0.0
H361 H 0.4871 0.13871 0.13879 0.0
H362 H 0.45209 0.16086 0.16496 0.0
H363 H 0.42934 0.16807 0.20784 0.0
H364 H 0.46272 0.13424 0.2803 0.0
H365 H 0.49945 0.11428 0.25451 0.0
C366 C 0.50601 0.1174 0.20115 0.0
C367 C 0.50642 0.11996 0.17306 0.0
C368 C 0.48564 0.12965 0.21623 0.0
C369 C 0.48719 0.13633 0.16039 0.0
C370 C 0.46705 0.14886 0.17531 0.0
C371 C 0.44458 0.15623 0.21799 0.0
C372 C 0.44316 0.15231 0.24584 0.0
C373 C 0.46573 0.14512 0.20313 0.0
C374 C 0.46332 0.13737 0.25881 0.0
C375 C 0.48434 0.12604 0.2441 0.0
H376 H 0.62959 0.21874 0.55522 0.0
H377 H 0.60219 0.25695 0.62808 0.0
H378 H 0.58541 0.29508 0.60213 0.0
H379 H 0.57996 0.31802 0.55893 0.0
H380 H 0.60859 0.27993 0.48641 0.0
H381 H 0.62403 0.2414 0.51228 0.0
C382 C 0.61957 0.23519 0.56544 0.0
C383 C 0.61697 0.23496 0.59352 0.0
C384 C 0.61072 0.25727 0.55055 0.0
C385 C 0.6043 0.25663 0.60646 0.0
C386 C 0.5949 0.27849 0.59166 0.0
C387 C 0.5898 0.30141 0.5488 0.0
C388 C 0.59322 0.30189 0.52081 0.0
C389 C 0.59839 0.27919 0.56375 0.0
C390 C 0.60579 0.2801 0.50797 0.0
C391 C 0.61448 0.25799 0.5227 0.0
H392 H 0.95985 0.31599 0.75139 0.0
H393 H 0.91343 0.37031 0.70222 0.0
H394 H 0.93416 0.40864 0.72475 0.0
H395 H 0.96497 0.42659 0.75854 0.0
H396 H 0.01063 0.37248 0.80862 0.0
H397 H 0.99058 0.33403 0.7855 0.0
C398 C 0.95433 0.33621 0.74554 0.0
C399 C 0.93518 0.34033 0.72517 0.0
C400 C 0.96611 0.35811 0.75873 0.0
C401 C 0.92809 0.36663 0.7179 0.0
C402 C 0.93994 0.38854 0.73075 0.0
C403 C 0.97061 0.40639 0.76439 0.0
C404 C 0.98925 0.40236 0.78522 0.0
C405 C 0.95889 0.38449 0.75121 0.0
C406 C -0.00376 0.37608 0.79266 0.0
C407 C 0.98483 0.35412 0.77944 0.0
H408 H 0.84234 0.71233 0.08237 0.0
H409 H 0.88816 0.78555 0.07695 0.0
H410 H 0.9049 0.77186 0.03278 0.0
H411 H 0.90636 0.73905 -0.004 0.0
H412 H 0.85912 0.66655 0.00107 0.0
H413 H 0.84242 0.68044 0.04495 0.0
C414 C 0.85633 0.7251 0.0717 0.0
C415 C 0.86446 0.74966 0.08301 0.0
C416 C 0.86511 0.71751 0.04611 0.0
C417 C 0.88194 0.76639 0.06868 0.0
C418 C 0.89132 0.75867 0.04341 0.0
C419 C 0.89216 0.72641 0.00653 0.0
C420 C 0.88409 0.70175 -0.0047 0.0
C421 C 0.88289 0.73434 0.03188 0.0
C422 C 0.86565 0.68565 0.00923 0.0
C423 C 0.85626 0.69345 0.03442 0.0
H424 H 0.51702 0.66393 0.23302 0.0
H425 H 0.56583 0.60984 0.18593 0.0
H426 H 0.54995 0.57189 0.21243 0.0
H427 H 0.5241 0.55458 0.25031 0.0
H428 H 0.47725 0.60905 0.29896 0.0
H429 H 0.49051 0.6465 0.27041 0.0
C430 C 0.52395 0.6438 0.22837 0.0
C431 C 0.54253 0.63963 0.20759 0.0
C432 C 0.51527 0.62225 0.24406 0.0
C433 C 0.55157 0.61351 0.20192 0.0
C434 C 0.54253 0.59184 0.21706 0.0
C435 C 0.51664 0.57461 0.25457 0.0
C436 C 0.49981 0.57909 0.27672 0.0
C437 C 0.52469 0.59605 0.23839 0.0
C438 C 0.4904 0.60516 0.28209 0.0
C439 C 0.49791 0.62654 0.26577 0.0
H440 H 0.21815 0.47449 0.17406 0.0
H441 H 0.25665 0.42733 0.11223 0.0
H442 H 0.2352 0.45481 0.07774 0.0
H443 H 0.2061 0.49245 0.06533 0.0
H444 H 0.16713 0.5392 0.12718 0.0
H445 H 0.18837 0.51154 0.16165 0.0
C446 C 0.22184 0.47017 0.15304 0.0
C447 C 0.23902 0.44898 0.14569 0.0
C448 C 0.20948 0.48599 0.1334 0.0
C449 C 0.24348 0.44354 0.11839 0.0
C450 C 0.23129 0.45927 0.09868 0.0
C451 C 0.2023 0.49666 0.08635 0.0
C452 C 0.18519 0.51791 0.09372 0.0
C453 C 0.21437 0.48061 0.10599 0.0
C454 C 0.18026 0.52296 0.12102 0.0
C455 C 0.19238 0.50717 0.14071 0.0
H456 H 0.74638 0.98499 0.92529 0.0
H457 H 0.69493 0.93442 0.8769 0.0
H458 H 0.71686 0.95047 0.83625 0.0
H459 H 0.74901 0.98037 0.81446 0.0
H460 H 0.79924 0.03228 0.8627 0.0
H461 H 0.77945 0.01399 0.90353 0.0
C462 C 0.74008 0.97732 0.90587 0.0
C463 C 0.71901 0.95862 0.9041 0.0
C464 C 0.75249 0.9869 0.8826 0.0
C465 C 0.71103 0.94892 0.87879 0.0
C466 C 0.72356 0.95808 0.85554 0.0
C467 C 0.75582 0.98753 0.8339 0.0
C468 C 0.7755 0.00769 0.83556 0.0
C469 C 0.74407 0.97729 0.85721 0.0
C470 C 0.78403 0.01683 0.8609 0.0
C471 C 0.77273 0.00641 0.88424 0.0
H472 H 0.72978 0.99076 0.317 0.0
H473 H 0.68669 0.93793 0.37019 0.0
H474 H 0.71299 0.95455 0.40824 0.0
H475 H 0.74948 0.98256 0.42594 0.0
H476 H 0.7936 0.03416 0.37237 0.0
H477 H 0.7655 0.01951 0.33485 0.0
C478 C 0.72595 0.98303 0.33695 0.0
C479 C 0.70633 0.96312 0.34076 0.0
C480 C 0.7414 0.99233 0.3586 0.0
C481 C 0.70173 0.95322 0.36671 0.0
C482 C 0.71677 0.96269 0.38847 0.0
C483 C 0.75286 0.99073 0.40609 0.0
C484 C 0.77364 0.00936 0.40194 0.0
C485 C 0.73687 0.982 0.38457 0.0
C486 C 0.7778 0.01971 0.37608 0.0
C487 C 0.76174 0.01136 0.35462 0.0
H488 H 0.27866 0.60116 0.62741 0.0
H489 H 0.20945 0.55089 0.61334 0.0
H490 H 0.23737 0.51843 0.5894 0.0
H491 H 0.28177 0.50242 0.57654 0.0
H492 H 0.35166 0.55159 0.59138 0.0
H493 H 0.32315 0.58641 0.61133 0.0
C494 C 0.26963 0.58346 0.61841 0.0
C495 C 0.24211 0.57833 0.62199 0.0
C496 C 0.28599 0.56444 0.60552 0.0
C497 C 0.23063 0.55516 0.61071 0.0
C498 C 0.2466 0.53653 0.59727 0.0
C499 C 0.29083 0.52071 0.5842 0.0
C500 C 0.3188 0.52426 0.58294 0.0
C501 C 0.27439 0.54057 0.59537 0.0
C502 C 0.33017 0.5483 0.59241 0.0
C503 C 0.31388 0.56824 0.60369 0.0
H504 H 0.32369 0.36477 0.48289 0.0
H505 H 0.26613 0.42602 0.50458 0.0
H506 H 0.23077 0.40168 0.48081 0.0
H507 H 0.2163 0.3634 0.45342 0.0
H508 H 0.27374 0.30198 0.4319 0.0
H509 H 0.30901 0.32602 0.45615 0.0
C510 C 0.30342 0.37281 0.48243 0.0
C511 C 0.29761 0.39721 0.49543 0.0
C512 C 0.28315 0.35869 0.46878 0.0
C513 C 0.27119 0.40728 0.49473 0.0
C514 C 0.25093 0.39339 0.48113 0.0
C515 C 0.23651 0.35522 0.45406 0.0
C516 C 0.24237 0.33097 0.4408 0.0
C517 C 0.2567 0.36913 0.46803 0.0
C518 C 0.26867 0.32062 0.44192 0.0
C519 C 0.28888 0.33437 0.45576 0.0
H520 H 0.92343 0.9585 0.6749 0.0
H521 H 0.84695 0.9202 0.66016 0.0
H522 H 0.82515 0.95153 0.6911 0.0
H523 H 0.82788 0.98985 0.7222 0.0
H524 H 0.90469 0.02751 0.73713 0.0
H525 H 0.92628 -0.00376 0.70619 0.0
C526 C 0.90197 0.95698 0.67837 0.0
C527 C 0.88683 0.93707 0.66517 0.0
C528 C 0.88963 0.97491 0.69624 0.0
C529 C 0.85908 0.93533 0.67006 0.0
C530 C 0.8466 0.95325 0.68775 0.0
C531 C 0.84935 0.99122 0.71871 0.0
C532 C 0.86463 0.01102 0.73196 0.0
C533 C 0.86169 0.97311 0.70093 0.0
C534 C 0.89244 0.01245 0.72725 0.0
C535 C 0.90482 -0.0054 0.70952 0.0
H536 H 0.2643 0.64472 0.94776 0.0
H537 H 0.20946 0.65051 0.88068 0.0
H538 H 0.17359 0.63123 0.90777 0.0
H539 H 0.15778 0.61278 0.95049 0.0
H540 H 0.21288 0.60647 0.01732 0.0
H541 H 0.24863 0.62597 0.99029 0.0
C542 C 0.24452 0.64176 0.93903 0.0
C543 C 0.23959 0.64906 0.91224 0.0
C544 C 0.224 0.63061 0.95468 0.0
C545 C 0.21383 0.64503 0.90125 0.0
C546 C 0.19328 0.63404 0.91673 0.0
C547 C 0.17759 0.61573 0.95917 0.0
C548 C 0.18262 0.60823 0.9859 0.0
C549 C 0.19813 0.62679 0.94347 0.0
C550 C 0.20845 0.61206 -0.00321 0.0
C551 C 0.22893 0.62321 0.98135 0.0
H552 H 0.5679 0.02533 0.18356 0.0
H553 H 0.56404 0.9638 0.12241 0.0
H554 H 0.58733 0.93254 0.15208 0.0
H555 H 0.61046 0.92329 0.19449 0.0
H556 H 0.61511 0.98498 0.2554 0.0
H557 H 0.58969 0.01554 0.22667 0.0
C558 C 0.572 0.00504 0.17676 0.0
C559 C 0.56436 -0.00302 0.15074 0.0
C560 C 0.58561 0.98722 0.19382 0.0
C561 C 0.56979 0.97058 0.14229 0.0
C562 C 0.58313 0.95268 0.15923 0.0
C563 C 0.60582 0.94338 0.20158 0.0
C564 C 0.6148 0.95187 0.22701 0.0
C565 C 0.5914 0.96089 0.1849 0.0
C566 C 0.60851 0.97795 0.23588 0.0
C567 C 0.594 -0.00455 0.21946 0.0
H568 H 0.77236 0.14663 0.58706 0.0
H569 H 0.69997 0.12513 0.54413 0.0
H570 H 0.7265 0.09986 0.51149 0.0
H571 H 0.77017 0.08328 0.49559 0.0
H572 H 0.84261 0.10579 0.53795 0.0
H573 H 0.81609 0.13129 0.57036 0.0
C574 C 0.76237 0.13642 0.57057 0.0
C575 C 0.73423 0.13764 0.56813 0.0
C576 C 0.77774 0.12209 0.55179 0.0
C577 C 0.72162 0.12451 0.54648 0.0
C578 C 0.73676 0.11001 0.52783 0.0
C579 C 0.78016 0.09375 0.51192 0.0
C580 C 0.8083 0.09251 0.51442 0.0
C581 C 0.76482 0.10856 0.53038 0.0
C582 C 0.82096 0.1064 0.53555 0.0
C583 C 0.80582 0.12097 0.55413 0.0
H584 H 0.1573 0.52286 0.72504 0.0
H585 H 0.09197 0.57896 0.71404 0.0
H586 H 0.06242 0.55022 0.74038 0.0
H587 H 0.05619 0.51094 0.76919 0.0
H588 H 0.12165 0.455 0.78033 0.0
H589 H 0.15009 0.48192 0.75106 0.0
C590 C 0.13654 0.52873 0.72822 0.0
C591 C 0.12693 0.55316 0.71785 0.0
C592 C 0.11974 0.51223 0.7435 0.0
C593 C 0.0999 0.56031 0.72188 0.0
C594 C 0.08301 0.54393 0.73702 0.0
C595 C 0.07662 0.50453 0.76508 0.0
C596 C 0.0869 0.48118 0.77717 0.0
C597 C 0.09289 0.52014 0.74835 0.0
C598 C 0.1133 0.47297 0.77139 0.0
C599 C 0.12959 0.48837 0.7547 0.0
H600 H 0.67432 0.88503 0.06005 0.0
H601 H 0.73528 0.88853 -0.00138 0.0
H602 H 0.76662 0.86463 0.0277 0.0
H603 H 0.7766 0.84225 0.07017 0.0
H604 H 0.71588 0.83861 0.1318 0.0
H605 H 0.6846 0.86315 0.103 0.0
C606 C 0.69446 0.88059 0.05302 0.0
C607 C 0.70239 0.88851 0.02717 0.0
C608 C 0.71244 0.86683 0.06986 0.0
C609 C 0.72861 0.88265 0.01842 0.0
C610 C 0.74657 0.86897 0.03503 0.0
C611 C 0.75655 0.84687 0.07737 0.0
C612 C 0.74859 0.83856 0.10308 0.0
C613 C 0.73868 0.86091 0.06073 0.0
C614 C 0.72254 0.84475 0.11208 0.0
C615 C 0.70462 0.85876 0.09562 0.0
H616 H 0.36836 0.41007 0.25967 0.0
H617 H 0.32413 0.47288 0.21945 0.0
H618 H 0.35411 0.50657 0.23877 0.0
H619 H 0.39264 0.51822 0.26734 0.0
H620 H 0.43678 0.4553 0.30752 0.0
H621 H 0.4071 0.42165 0.28781 0.0
C622 C 0.36524 0.43112 0.25514 0.0
C623 C 0.34402 0.43893 0.23818 0.0
C624 C 0.38257 0.45039 0.26624 0.0
C625 C 0.34032 0.4663 0.23245 0.0
C626 C 0.35746 0.4856 0.24347 0.0
C627 C 0.39584 0.49715 0.27171 0.0
C628 C 0.41688 0.48933 0.28889 0.0
C629 C 0.37864 0.47787 0.2604 0.0
C630 C 0.42072 0.46191 0.29437 0.0
C631 C 0.40374 0.44262 0.28314 0.0
H632 H 0.45655 0.33212 0.40857 0.0
H633 H 0.52438 0.2779 0.40756 0.0
H634 H 0.4991 0.24636 0.37988 0.0
H635 H 0.45788 0.23402 0.35606 0.0
H636 H 0.38963 0.28764 0.35737 0.0
H637 H 0.41497 0.31953 0.38485 0.0
C638 C 0.46581 0.31343 0.40226 0.0
C639 C 0.49233 0.30743 0.41012 0.0
C640 C 0.4511 0.29524 0.38642 0.0
C641 C 0.50399 0.28305 0.40185 0.0
C642 C 0.48956 0.26497 0.38599 0.0
C643 C 0.44851 0.25269 0.36232 0.0
C644 C 0.42191 0.25843 0.35464 0.0
C645 C 0.46312 0.27085 0.37818 0.0
C646 C 0.41008 0.28269 0.36302 0.0
C647 C 0.42456 0.30096 0.37872 0.0
H648 H 0.97784 0.1608 0.58666 0.0
H649 H 0.04207 0.20855 0.62038 0.0
H650 H 0.0091 0.23742 0.64265 0.0
H651 H 0.96202 0.24955 0.65165 0.0
H652 H 0.89816 0.20145 0.61766 0.0
H653 H 0.93118 0.17226 0.59624 0.0
C654 C 0.98472 0.17744 0.59896 0.0
C655 C 0.0124 0.18253 0.6018 0.0
C656 C 0.96574 0.19397 0.61152 0.0
C657 C 0.02089 0.20417 0.61787 0.0
C658 C 0.00205 0.22072 0.63055 0.0
C659 C 0.95532 0.23271 0.63951 0.0
C660 C 0.92766 0.22776 0.63615 0.0
C661 C 0.97442 0.21592 0.62732 0.0
C662 C 0.91932 0.20575 0.62054 0.0
C663 C 0.93818 0.18903 0.60829 0.0
H664 H 0.02139 0.66133 0.90335 0.0
H665 H 0.95683 0.71894 0.89644 0.0
H666 H 0.98701 0.75031 0.87409 0.0
H667 H 0.03161 0.76124 0.85628 0.0
H668 H 0.09618 0.70365 0.86363 0.0
H669 H 0.06606 0.67247 0.88617 0.0
C670 C 0.01387 0.68071 0.89691 0.0
C671 C 0.98687 0.68772 0.90147 0.0
C672 C 0.03134 0.6987 0.88423 0.0
C673 C 0.97752 0.71301 0.89315 0.0
C674 C -0.00524 0.73098 0.88038 0.0
C675 C 0.03913 0.7419 0.86288 0.0
C676 C 0.06611 0.7348 0.85824 0.0
C677 C 0.0217 0.72403 0.87581 0.0
C678 C 0.07551 0.70966 0.86694 0.0
C679 C 0.0583 0.69178 0.8798 0.0
H680 H 0.5675 0.79509 0.13821 0.0
H681 H 0.51996 0.72452 0.12142 0.0
H682 H 0.48484 0.75241 0.10152 0.0
H683 H 0.46808 0.79666 0.08805 0.0
H684 H 0.5156 0.86723 0.10499 0.0
H685 H 0.55017 0.83945 0.12589 0.0
C686 C 0.54949 0.78578 0.13015 0.0
C687 C 0.54644 0.75776 0.13114 0.0
C688 C 0.52931 0.80193 0.11888 0.0
C689 C 0.52285 0.74605 0.12084 0.0
C690 C 0.50273 0.76198 0.10948 0.0
C691 C 0.4859 0.80601 0.09648 0.0
C692 C 0.48925 0.83398 0.0949 0.0
C693 C 0.50579 0.78992 0.10832 0.0
C694 C 0.51249 0.84574 0.10591 0.0
C695 C 0.53233 0.82987 0.11781 0.0
H696 H 0.19499 0.34927 0.34202 0.0
H697 H 0.17846 0.28538 0.28557 0.0
H698 H 0.19569 0.31288 0.24904 0.0
H699 H 0.22141 0.35215 0.2345 0.0
H700 H 0.23952 0.41522 0.29138 0.0
H701 H 0.21552 0.39095 0.32633 0.0
C702 C 0.19465 0.34151 0.32166 0.0
C703 C 0.18594 0.31509 0.31664 0.0
C704 C 0.20525 0.35712 0.30088 0.0
C705 C 0.18529 0.30554 0.29007 0.0
C706 C 0.19531 0.32119 0.26917 0.0
C707 C 0.21981 0.36078 0.25445 0.0
C708 C 0.2327 0.38521 0.26046 0.0
C709 C 0.20633 0.34654 0.27455 0.0
C710 C 0.23006 0.39631 0.28628 0.0
C711 C 0.21637 0.38242 0.30631 0.0
H712 H 0.8884 -0.00667 0.53562 0.0
H713 H 0.84707 0.95169 0.47158 0.0
H714 H 0.85887 0.90858 0.49166 0.0
H715 H 0.88079 0.88266 0.52765 0.0
H716 H 0.92034 0.92476 0.59201 0.0
H717 H 0.90971 0.96755 0.57165 0.0
C718 C 0.882 0.97485 0.52599 0.0
C719 C 0.86689 0.97577 0.50212 0.0
C720 C 0.88869 0.95015 0.53769 0.0
C721 C 0.85868 0.95158 0.49 0.0
C722 C 0.86544 0.9269 0.50145 0.0
C723 C 0.88714 0.90126 0.53713 0.0
C724 C 0.90193 0.90038 0.56115 0.0
C725 C 0.88041 0.92595 0.52532 0.0
C726 C 0.9097 0.9246 0.57335 0.0
C727 C 0.90335 0.94923 0.56171 0.0
H728 H 0.298 0.62786 0.71837 0.0
H729 H 0.24742 0.57683 0.76641 0.0
H730 H 0.27203 0.59004 0.80678 0.0
H731 H 0.30265 0.62115 0.82889 0.0
H732 H 0.34996 0.67603 0.7817 0.0
H733 H 0.33248 0.65573 0.74046 0.0
C734 C 0.29283 0.61917 0.7376 0.0
C735 C 0.27081 0.60162 0.73954 0.0
C736 C 0.30636 0.62771 0.76088 0.0
C737 C 0.26415 0.59061 0.76454 0.0
C738 C 0.27818 0.59817 0.78761 0.0
C739 C 0.30968 0.62832 0.80962 0.0
C740 C 0.32727 0.65038 0.80838 0.0
C741 C 0.29857 0.61749 0.78612 0.0
C742 C 0.33623 0.65925 0.78321 0.0
C743 C 0.3261 0.64776 0.75962 0.0
H744 H 0.60973 0.05951 0.07384 0.0
H745 H 0.55334 0.06223 0.00782 0.0
H746 H 0.58371 0.03514 0.98053 0.0
H747 H 0.6227 0.0051 0.978 0.0
H748 H 0.67832 0.00105 0.04455 0.0
H749 H 0.65185 0.03441 0.06896 0.0
C750 C 0.6043 0.05472 0.05328 0.0
C751 C 0.57902 0.06245 0.0431 0.0
C752 C 0.62152 0.03851 0.03793 0.0
C753 C 0.57252 0.05632 0.0163 0.0
C754 C 0.58981 0.04065 0.00071 0.0
C755 C 0.62926 0.01179 -0.0023 0.0
C756 C 0.65215 0.00023 0.00966 0.0
C757 C 0.61378 0.03069 0.01175 0.0
C758 C 0.66064 0.00945 0.03498 0.0
C759 C 0.64548 0.02848 0.04899 0.0
H760 H 0.67766 0.10365 0.65982 0.0
H761 H 0.6756 0.1664 0.7198 0.0
H762 H 0.70265 0.13884 0.74993 0.0
H763 H 0.73283 0.10038 0.75607 0.0
H764 H 0.73641 0.03852 0.69527 0.0
H765 H 0.7027 0.06228 0.66872 0.0
C766 C 0.68256 0.1111 0.67972 0.0
C767 C 0.67511 0.13731 0.68729 0.0
C768 C 0.69884 0.09551 0.69662 0.0
C769 C 0.68134 0.14644 0.7133 0.0
C770 C 0.69699 0.13076 0.7305 0.0
C771 C 0.72597 0.09189 0.73718 0.0
C772 C 0.73754 0.06802 0.72738 0.0
C773 C 0.70687 0.10583 0.72184 0.0
C774 C 0.72807 0.05703 0.70314 0.0
C775 C 0.70881 0.07062 0.6879 0.0
H776 H 0.14122 0.49914 0.9599 0.0
H777 H 0.07511 0.51742 0.01296 0.0
H778 H 0.04436 0.49305 0.98359 0.0
H779 H 0.03535 0.47103 0.94054 0.0
H780 H 0.10105 0.45413 0.88658 0.0
H781 H 0.13285 0.47299 0.91889 0.0
C782 C 0.12015 0.49753 0.96521 0.0
C783 C 0.11045 0.51044 0.98838 0.0
C784 C 0.10244 0.48377 0.94804 0.0
C785 C 0.08312 0.50791 -0.0049 0.0
C786 C 0.06547 0.49398 0.97831 0.0
C787 C 0.05667 0.471 0.93602 0.0
C788 C 0.06573 0.46153 0.91103 0.0
C789 C 0.07478 0.48247 0.95438 0.0
C790 C 0.09348 0.46152 0.90559 0.0
C791 C 0.11169 0.47242 0.924 0.0
H792 H 0.76441 0.87167 0.27335 0.0
H793 H 0.72427 0.92536 0.21848 0.0
H794 H 0.75629 0.91369 0.18331 0.0
H795 H 0.79162 0.88412 0.1666 0.0
H796 H 0.82888 0.82683 0.21976 0.0
H797 H 0.80258 0.84447 0.25737 0.0
C798 C 0.76301 0.88114 0.25383 0.0
C799 C 0.74191 0.89915 0.24841 0.0
C800 C 0.78097 0.87366 0.23341 0.0
C801 C 0.74019 0.9112 0.22301 0.0
C802 C 0.7585 0.90458 0.20291 0.0
C803 C 0.79459 0.87599 0.18656 0.0
C804 C 0.81216 0.85422 0.19044 0.0
C805 C 0.77845 0.88526 0.20766 0.0
C806 C 0.81546 0.84363 0.21634 0.0
C807 C 0.80029 0.85357 0.23777 0.0
H808 H 0.34024 0.52363 0.45698 0.0
H809 H 0.40896 0.49 0.49815 0.0
H810 H 0.43884 0.5083 0.46428 0.0
H811 H 0.44509 0.52959 0.42095 0.0
H812 H 0.37668 0.5613 0.37791 0.0
H813 H 0.34716 0.54863 0.41491 0.0
C814 C 0.36178 0.52059 0.45867 0.0
C815 C 0.37231 0.50514 0.47982 0.0
C816 C 0.37891 0.53081 0.43882 0.0
C817 C 0.40027 0.50148 0.48185 0.0
C818 C 0.41742 0.51199 0.46253 0.0
C819 C 0.42378 0.53412 0.41975 0.0
C820 C 0.41307 0.54601 0.39652 0.0
C821 C 0.40689 0.52606 0.44061 0.0
C822 C 0.38545 0.552 0.3955 0.0
C823 C 0.36852 0.5446 0.41658 0.0
H824 H 0.26786 0.19697 0.40568 0.0
H825 H 0.22109 0.21263 0.33429 0.0
H826 H 0.25349 0.18764 0.30732 0.0
H827 H 0.29897 0.16955 0.30299 0.0
H828 H 0.34776 0.15794 0.37378 0.0
H829 H 0.31038 0.17232 0.40209 0.0
C830 C 0.2644 0.19438 0.38433 0.0
C831 C 0.24245 0.20716 0.3719 0.0
C832 C 0.28362 0.18083 0.36879 0.0
C833 C 0.23811 0.20338 0.34426 0.0
C834 C 0.25665 0.18911 0.32881 0.0
C835 C 0.30118 0.16932 0.32465 0.0
C836 C 0.32624 0.1632 0.33626 0.0
C837 C 0.28011 0.17893 0.34067 0.0
C838 C 0.32873 0.1629 0.36436 0.0
C839 C 0.30743 0.17132 0.38054 0.0
H840 H 0.02049 0.97532 0.62476 0.0
H841 H 0.98665 0.94542 0.55057 0.0
H842 H 0.00802 0.9819 0.526 0.0
H843 H 0.03214 0.02474 0.52637 0.0
H844 H 0.06342 0.05615 0.601 0.0
H845 H 0.04764 0.01626 0.62456 0.0
C846 C 0.01801 0.97658 0.60317 0.0
C847 C 0.00176 0.95783 0.58957 0.0
C848 C 0.02989 -0.00212 0.58926 0.0
C849 C -0.00109 0.95969 0.56157 0.0
C850 C 0.01111 0.98055 0.54749 0.0
C851 C 0.03604 0.02262 0.54768 0.0
C852 C 0.04878 0.04344 0.56196 0.0
C853 C 0.02609 0.00011 0.56123 0.0
C854 C 0.05352 0.04044 0.5896 0.0
C855 C 0.0444 0.01772 0.6031 0.0
H856 H 0.23931 0.76305 0.90206 0.0
H857 H 0.27893 0.74649 0.82681 0.0
H858 H 0.24618 0.7743 0.80323 0.0
H859 H 0.20302 0.79774 0.80317 0.0
H860 H 0.16142 0.81152 0.87788 0.0
H861 H 0.19862 0.79101 0.90255 0.0
C862 C 0.24106 0.7659 0.88057 0.0
C863 C 0.26127 0.75237 0.86616 0.0
C864 C 0.22176 0.78138 0.86702 0.0
C865 C 0.26334 0.75638 0.83834 0.0
C866 C 0.24463 0.7723 0.82482 0.0
C867 C 0.20234 0.7969 0.82491 0.0
C868 C 0.17931 0.80583 0.83863 0.0
C869 C 0.22324 0.78411 0.83883 0.0
C870 C 0.17883 0.80459 0.86681 0.0
C871 C 0.20001 0.7927 0.88092 0.0
H872 H 0.44952 0.00308 0.13081 0.0
H873 H 0.46962 0.03946 0.055 0.0
H874 H 0.44216 0.0064 0.03135 0.0
H875 H 0.41917 0.96318 0.03175 0.0
H876 H 0.40269 0.92426 0.10716 0.0
H877 H 0.42125 0.9627 0.13147 0.0
C878 C 0.44741 0.00413 0.10917 0.0
C879 C 0.46192 0.02338 0.09463 0.0
C880 C 0.43232 0.98449 0.09562 0.0
C881 C 0.45894 0.02455 0.06661 0.0
C882 C 0.44325 0.00566 0.05307 0.0
C883 C 0.4189 0.96339 0.05352 0.0
C884 C 0.40996 0.94072 0.06763 0.0
C885 C 0.43079 0.98491 0.06728 0.0
C886 C 0.40971 0.94138 0.09583 0.0
C887 C 0.42051 0.96327 0.10974 0.0
H888 H 0.74724 0.24957 0.58979 0.0
H889 H 0.70679 0.23975 0.66562 0.0
H890 H 0.74051 0.26767 0.68776 0.0
H891 H 0.78439 0.28939 0.68672 0.0
H892 H 0.8273 0.29573 0.61187 0.0
H893 H 0.78942 0.27528 0.58806 0.0
C894 C 0.74558 0.25398 0.61106 0.0
C895 C 0.7248 0.2424 0.62614 0.0
C896 C 0.76553 0.26934 0.62383 0.0
C897 C 0.72285 0.24818 0.65368 0.0
C898 C 0.74209 0.26416 0.66634 0.0
C899 C 0.78523 0.28693 0.6651 0.0
C900 C 0.8087 0.29382 0.65111 0.0
C901 C 0.76397 0.27408 0.65179 0.0
C902 C 0.80948 0.2904 0.62311 0.0
C903 C 0.78791 0.27857 0.60951 0.0
H904 H 0.96001 0.4936 0.87834 0.0
H905 H 0.97052 0.54724 0.81131 0.0
H906 H 0.94202 0.58061 0.83314 0.0
H907 H 0.91978 0.59688 0.8738 0.0
H908 H 0.91073 0.54394 0.9416 0.0
H909 H 0.93232 0.50774 0.91655 0.0
C910 C 0.95577 0.51244 0.86832 0.0
C911 C 0.96784 0.51814 0.84349 0.0
C912 C 0.93965 0.5317 0.88114 0.0
C913 C 0.96177 0.54245 0.83058 0.0
C914 C 0.94548 0.56158 0.84306 0.0
C915 C 0.92196 0.57726 0.88294 0.0
C916 C 0.91416 0.57333 0.90976 0.0
C917 C 0.93512 0.55678 0.86873 0.0
C918 C 0.91681 0.54765 0.9211 0.0
C919 C 0.92935 0.52696 0.90685 0.0
H920 H 0.69178 0.67877 0.17852 0.0
H921 H 0.65453 0.69012 0.10103 0.0
H922 H 0.69602 0.70985 0.08396 0.0
H923 H 0.73979 0.73051 0.09339 0.0
H924 H 0.77521 0.72255 0.17217 0.0
H925 H 0.73758 0.69465 0.18634 0.0
C926 C 0.69291 0.68491 0.15769 0.0
C927 C 0.67001 0.68336 0.14117 0.0
C928 C 0.71637 0.69729 0.14839 0.0
C929 C 0.67184 0.69137 0.11423 0.0
C930 C 0.6955 0.70279 0.1045 0.0
C931 C 0.73954 0.72224 0.1135 0.0
C932 C 0.76 0.72894 0.13185 0.0
C933 C 0.71744 0.70694 0.12177 0.0
C934 C 0.75948 0.71798 0.15778 0.0
C935 C 0.73797 0.70204 0.16591 0.0
H936 H 0.54312 0.49827 0.38664 0.0
H937 H 0.53791 0.44318 0.31973 0.0
H938 H 0.56169 0.40912 0.34558 0.0
H939 H 0.57584 0.39247 0.38957 0.0
H940 H 0.57889 0.44681 0.4572 0.0
H941 H 0.56483 0.4838 0.42845 0.0
C942 C 0.54768 0.47902 0.3775 0.0
C943 C 0.53808 0.47303 0.35157 0.0
C944 C 0.5608 0.45926 0.39269 0.0
C945 C 0.54465 0.44819 0.33983 0.0
C946 C 0.55819 0.42862 0.35463 0.0
C947 C 0.57409 0.41254 0.39792 0.0
C948 C 0.57765 0.4167 0.42564 0.0
C949 C 0.56513 0.43353 0.38149 0.0
C950 C 0.57587 0.44293 0.436 0.0
C951 C 0.56763 0.46409 0.4196 0.0
H952 H 0.396 0.27239 0.23097 0.0
H953 H 0.32984 0.22419 0.25927 0.0
H954 H 0.29819 0.25214 0.23453 0.0
H955 H 0.28886 0.29291 0.20902 0.0
H956 H 0.35463 0.34245 0.18227 0.0
H957 H 0.38684 0.31095 0.20168 0.0
C958 C 0.37469 0.26783 0.2315 0.0
C959 C 0.36531 0.24647 0.24728 0.0
C960 C 0.35649 0.28421 0.21747 0.0
C961 C 0.33763 0.24069 0.24754 0.0
C962 C 0.31947 0.25665 0.23336 0.0
C963 C 0.31024 0.29658 0.20692 0.0
C964 C 0.31928 0.32017 0.19448 0.0
C965 C 0.32861 0.27884 0.21883 0.0
C966 C 0.3471 0.32453 0.19191 0.0
C967 C 0.36554 0.30661 0.20315 0.0
H968 H 0.80436 0.16496 0.77645 0.0
H969 H 0.87599 0.11592 0.77815 0.0
H970 H 0.90257 0.15359 0.76187 0.0
H971 H 0.90438 0.19842 0.74197 0.0
H972 H 0.83232 0.24674 0.73824 0.0
H973 H 0.8071 0.21145 0.76075 0.0
C974 C 0.82586 0.16263 0.77374 0.0
C975 C 0.83809 0.13756 0.77817 0.0
C976 C 0.84092 0.18416 0.76372 0.0
C977 C 0.86601 0.13493 0.77463 0.0
C978 C 0.88123 0.15644 0.76524 0.0
C979 C 0.88325 0.20143 0.74642 0.0
C980 C 0.8702 0.22503 0.73808 0.0
C981 C 0.86873 0.18084 0.75888 0.0
C982 C 0.84284 0.22866 0.74421 0.0
C983 C 0.82836 0.20846 0.75705 0.0
H984 H 0.00394 0.66792 0.0132 0.0
H985 H 0.95948 0.5943 0.00227 0.0
H986 H 0.99247 0.57016 0.02931 0.0
H987 H 0.03649 0.56885 0.05098 0.0
H988 H 0.08308 0.64149 0.05868 0.0
H989 H 0.04636 0.66729 0.03861 0.0
C990 C 0.00126 0.64668 0.01708 0.0
C991 C 0.97951 0.63285 0.00548 0.0
C992 C 0.0207 0.63276 0.03206 0.0
C993 C 0.97627 0.60534 0.0107 0.0
C994 C -0.00491 0.59152 0.0262 0.0
C995 C 0.03839 0.59043 0.04891 0.0
C996 C 0.06253 0.60323 0.05612 0.0
C997 C 0.01776 0.60487 0.03629 0.0
C998 C 0.06471 0.63118 0.05315 0.0
C999 C 0.04381 0.6459 0.04152 0.0
H1000 H 0.67543 0.80901 0.2708 0.0
H1001 H 0.60205 0.85275 0.28624 0.0
H1002 H 0.57576 0.81593 0.26729 0.0
H1003 H 0.57404 0.77403 0.24131 0.0
H1004 H 0.64768 0.73137 0.22413 0.0
H1005 H 0.67333 0.76496 0.24897 0.0
C1006 C 0.65366 0.81032 0.2705 0.0
C1007 C 0.64077 0.83378 0.27961 0.0
C1008 C 0.63869 0.78938 0.25895 0.0
C1009 C 0.61252 0.83503 0.27915 0.0
C1010 C 0.59745 0.81402 0.26821 0.0
C1011 C 0.59564 0.77184 0.24333 0.0
C1012 C 0.60892 0.75042 0.23054 0.0
C1013 C 0.61038 0.79152 0.25723 0.0
C1014 C 0.63694 0.74782 0.23353 0.0
C1015 C 0.65167 0.76704 0.24772 0.0
H1016 H 0.44452 0.44566 0.55335 0.0
H1017 H 0.38876 0.38032 0.56426 0.0
H1018 H 0.42254 0.3485 0.54819 0.0
H1019 H 0.46534 0.34036 0.52478 0.0
H1020 H 0.51943 0.40663 0.5112 0.0
H1021 H 0.48885 0.4369 0.53452 0.0
C1022 C 0.4399 0.4244 0.55284 0.0
C1023 C 0.41402 0.41546 0.55964 0.0
C1024 C 0.45897 0.4064 0.54255 0.0
C1025 C 0.40848 0.38778 0.55894 0.0
C1026 C 0.42772 0.36958 0.54955 0.0
C1027 C 0.4706 0.36134 0.52727 0.0
C1028 C 0.4944 0.3713 0.51588 0.0
C1029 C 0.45262 0.37883 0.54025 0.0
C1030 C 0.50102 0.39851 0.51941 0.0
C1031 C 0.48358 0.41586 0.5328 0.0
H1032 H 0.14051 0.65966 0.7 0.0
H1033 H 0.21673 0.69922 0.71277 0.0
H1034 H 0.19387 0.7367 0.73461 0.0
H1035 H 0.15303 0.75566 0.75446 0.0
H1036 H 0.07694 0.71561 0.7428 0.0
H1037 H 0.09903 0.68092 0.71598 0.0
C1038 C 0.15212 0.67667 0.70714 0.0
C1039 C 0.18035 0.67643 0.70509 0.0
C1040 C 0.13892 0.6979 0.72017 0.0
C1041 C 0.19501 0.69876 0.71427 0.0
C1042 C 0.18197 0.72016 0.72688 0.0
C1043 C 0.14121 0.73947 0.74586 0.0
C1044 C 0.11345 0.73798 0.75097 0.0
C1045 C 0.15406 0.71951 0.73069 0.0
C1046 C 0.09837 0.71712 0.73934 0.0
C1047 C 0.111 0.69725 0.72404 0.0
H1048 H 0.51683 0.84162 0.989 0.0
H1049 H 0.47446 0.91729 0.99151 0.0
H1050 H 0.51286 0.93965 0.97106 0.0
H1051 H 0.55996 0.93858 0.95702 0.0
H1052 H 0.60333 0.86347 0.95708 0.0
H1053 H 0.56286 0.83996 0.97156 0.0
C1054 C 0.51583 0.86293 0.98472 0.0
C1055 C 0.49293 0.87781 0.99201 0.0
C1056 C 0.53821 0.87579 0.97352 0.0
C1057 C 0.49195 0.90541 0.98631 0.0
C1058 C 0.51391 0.91823 0.97462 0.0
C1059 C 0.56047 0.917 0.95972 0.0
C1060 C 0.58468 0.90283 0.9562 0.0
C1061 C 0.53738 0.90375 0.96881 0.0
C1062 C 0.58498 0.87487 0.95984 0.0
C1063 C 0.56188 0.86142 0.96821 0.0
H1064 H 0.89686 0.09993 0.44695 0.0
H1065 H 0.94116 0.0258 0.43857 0.0
H1066 H 0.98156 0.04765 0.45594 0.0
H1067 H 0.00187 0.08554 0.4802 0.0
H1068 H 0.95656 0.15885 0.49054 0.0
H1069 H 0.91908 0.1396 0.46545 0.0
C1070 C 0.91548 0.08865 0.4484 0.0
C1071 C 0.91584 0.06114 0.442 0.0
C1072 C 0.93837 0.1011 0.45911 0.0
C1073 C 0.94024 0.04695 0.44359 0.0
C1074 C 0.96333 0.05939 0.45369 0.0
C1075 C 0.98401 0.09751 0.47654 0.0
C1076 C 0.9818 0.12339 0.48772 0.0
C1077 C 0.96227 0.08611 0.4626 0.0
C1078 C 0.95864 0.13873 0.4825 0.0
C1079 C 0.93716 0.12773 0.46819 0.0
loop_
_geom_bond_atom_site_label_1
_geom_bond_atom_site_label_2
_geom_bond_distance
_geom_bond_site_symmetry_2
_ccdc_geom_bond_type
C0 O1 1.160 . S
C0 O7 1.185 . S
O1 C0 1.160 . S
O2 Zn3 1.899 . S
O2 C10 1.284 . S
Zn3 O2 1.899 . S
Zn3 O4 2.032 . S
Zn3 O7 2.086 . S
Zn3 O12 1.977 . S
O4 Zn3 2.032 . S
O4 C8 1.278 . S
C5 O6 1.203 . S
C5 O12 1.267 . S
O6 C5 1.203 . S
O7 C0 1.185 . S
O7 Zn3 2.086 . S
C8 O4 1.278 . S
C8 O9 1.211 . S
O9 C8 1.211 . S
C10 O2 1.284 . S
C10 O11 1.273 . S
O11 C10 1.273 . S
O12 Zn3 1.977 . S
O12 C5 1.267 . S
C13 O14 1.160 . S
C13 O20 1.185 . S
O14 C13 1.160 . S
O15 Zn16 1.899 . S
O15 C23 1.284 . S
Zn16 O15 1.899 . S
Zn16 O17 2.032 . S
Zn16 O20 2.086 . S
Zn16 O25 1.977 . S
O17 Zn16 2.032 . S
O17 C21 1.278 . S
C18 O19 1.203 . S
C18 O25 1.267 . S
O19 C18 1.203 . S
O20 C13 1.185 . S
O20 Zn16 2.086 . S
C21 O17 1.278 . S
C21 O22 1.211 . S
O22 C21 1.211 . S
C23 O15 1.284 . S
C23 O24 1.273 1_565 S
O24 C23 1.273 1_545 S
O25 Zn16 1.977 . S
O25 C18 1.267 . S
C26 O27 1.160 . S
C26 O33 1.185 . S
O27 C26 1.160 . S
O28 Zn29 1.899 . S
O28 C36 1.284 . S
Zn29 O28 1.899 . S
Zn29 O30 2.032 . S
Zn29 O33 2.086 . S
Zn29 O38 1.977 . S
O30 Zn29 2.032 . S
O30 C34 1.278 . S
C31 O32 1.203 . S
C31 O38 1.267 . S
O32 C31 1.203 . S
O33 C26 1.185 . S
O33 Zn29 2.086 . S
C34 O30 1.278 . S
C34 O35 1.211 . S
O35 C34 1.211 . S
C36 O28 1.284 . S
C36 O37 1.273 . S
O37 C36 1.273 . S
O38 Zn29 1.977 . S
O38 C31 1.267 . S
C39 O40 1.160 . S
C39 O46 1.185 . S
O40 C39 1.160 . S
O41 Zn42 1.899 . S
O41 C49 1.284 . S
Zn42 O41 1.899 . S
Zn42 O43 2.032 . S
Zn42 O46 2.086 . S
Zn42 O51 1.977 . S
O43 Zn42 2.032 . S
O43 C47 1.278 . S
C44 O45 1.203 . S
C44 O51 1.267 . S
O45 C44 1.203 . S
O46 C39 1.185 . S
O46 Zn42 2.086 . S
C47 O43 1.278 . S
C47 O48 1.211 . S
O48 C47 1.211 . S
C49 O41 1.284 . S
C49 O50 1.273 1_545 S
O50 C49 1.273 1_565 S
O51 Zn42 1.977 . S
O51 C44 1.267 . S
C52 O53 1.160 . S
C52 O59 1.185 . S
O53 C52 1.160 . S
O54 Zn55 1.899 . S
O54 C62 1.284 . S
Zn55 O54 1.899 . S
Zn55 O56 2.032 . S
Zn55 O59 2.086 . S
Zn55 O64 1.977 . S
O56 Zn55 2.032 . S
O56 C60 1.278 . S
C57 O58 1.203 . S
C57 O64 1.267 . S
O58 C57 1.203 . S
O59 C52 1.185 . S
O59 Zn55 2.086 . S
C60 O56 1.278 . S
C60 O61 1.211 . S
O61 C60 1.211 . S
C62 O54 1.284 . S
C62 O63 1.273 . S
O63 C62 1.273 . S
O64 Zn55 1.977 . S
O64 C57 1.267 . S
C65 O66 1.160 . S
C65 O72 1.185 . S
O66 C65 1.160 . S
O67 Zn68 1.899 . S
O67 C75 1.284 . S
Zn68 O67 1.899 . S
Zn68 O69 2.032 . S
Zn68 O72 2.086 . S
Zn68 O77 1.977 . S
O69 Zn68 2.032 . S
O69 C73 1.278 . S
C70 O71 1.203 . S
C70 O77 1.267 . S
O71 C70 1.203 . S
O72 C65 1.185 . S
O72 Zn68 2.086 . S
C73 O69 1.278 . S
C73 O74 1.211 . S
O74 C73 1.211 . S
C75 O67 1.284 . S
C75 O76 1.273 . S
O76 C75 1.273 . S
O77 Zn68 1.977 . S
O77 C70 1.267 . S
C78 O79 1.160 . S
C78 O85 1.185 . S
O79 C78 1.160 . S
O80 Zn81 1.899 . S
O80 C88 1.284 . S
Zn81 O80 1.899 . S
Zn81 O82 2.032 . S
Zn81 O85 2.086 . S
Zn81 O90 1.977 . S
O82 Zn81 2.032 . S
O82 C86 1.278 . S
C83 O84 1.203 . S
C83 O90 1.267 . S
O84 C83 1.203 . S
O85 C78 1.185 . S
O85 Zn81 2.086 . S
C86 O82 1.278 . S
C86 O87 1.211 . S
O87 C86 1.211 . S
C88 O80 1.284 . S
C88 O89 1.273 . S
O89 C88 1.273 . S
O90 Zn81 1.977 . S
O90 C83 1.267 . S
C91 O92 1.160 . S
C91 O98 1.185 . S
O92 C91 1.160 . S
O93 Zn94 1.899 . S
O93 C101 1.284 . S
Zn94 O93 1.899 . S
Zn94 O95 2.032 . S
Zn94 O98 2.086 . S
Zn94 O103 1.977 . S
O95 Zn94 2.032 . S
O95 C99 1.278 . S
C96 O97 1.203 . S
C96 O103 1.267 . S
O97 C96 1.203 . S
O98 C91 1.185 . S
O98 Zn94 2.086 . S
C99 O95 1.278 . S
C99 O100 1.211 . S
O100 C99 1.211 . S
C101 O93 1.284 . S
C101 O102 1.273 . S
O102 C101 1.273 . S
O103 Zn94 1.977 . S
O103 C96 1.267 . S
C104 O105 1.160 . S
C104 O111 1.185 . S
O105 C104 1.160 . S
O106 Zn107 1.899 . S
O106 C114 1.284 . S
Zn107 O106 1.899 . S
Zn107 O108 2.032 . S
Zn107 O111 2.086 . S
Zn107 O116 1.977 . S
O108 Zn107 2.032 . S
O108 C112 1.278 . S
C109 O110 1.203 . S
C109 O116 1.267 . S
O110 C109 1.203 . S
O111 C104 1.185 . S
O111 Zn107 2.086 . S
C112 O108 1.278 . S
C112 O113 1.211 . S
O113 C112 1.211 . S
C114 O106 1.284 . S
C114 O115 1.273 . S
O115 C114 1.273 . S
O116 Zn107 1.977 . S
O116 C109 1.267 . S
C117 O118 1.160 . S
C117 O124 1.185 . S
O118 C117 1.160 . S
O119 Zn120 1.899 . S
O119 C127 1.284 . S
Zn120 O119 1.899 . S
Zn120 O121 2.032 . S
Zn120 O124 2.086 . S
Zn120 O129 1.977 . S
O121 Zn120 2.032 . S
O121 C125 1.278 . S
C122 O123 1.203 . S
C122 O129 1.267 . S
O123 C122 1.203 . S
O124 C117 1.185 . S
O124 Zn120 2.086 . S
C125 O121 1.278 . S
C125 O126 1.211 . S
O126 C125 1.211 . S
C127 O119 1.284 . S
C127 O128 1.273 1_455 S
O128 C127 1.273 1_655 S
O129 Zn120 1.977 . S
O129 C122 1.267 . S
C130 O131 1.160 . S
C130 O137 1.185 . S
O131 C130 1.160 . S
O132 Zn133 1.899 . S
O132 C140 1.284 . S
Zn133 O132 1.899 . S
Zn133 O134 2.032 . S
Zn133 O137 2.086 . S
Zn133 O142 1.977 . S
O134 Zn133 2.032 . S
O134 C138 1.278 . S
C135 O136 1.203 . S
C135 O142 1.267 . S
O136 C135 1.203 . S
O137 C130 1.185 . S
O137 Zn133 2.086 . S
C138 O134 1.278 . S
C138 O139 1.211 . S
O139 C138 1.211 . S
C140 O132 1.284 . S
C140 O141 1.273 . S
O141 C140 1.273 . S
O142 Zn133 1.977 . S
O142 C135 1.267 . S
C143 O144 1.160 . S
C143 O150 1.185 . S
O144 C143 1.160 . S
O145 Zn146 1.899 . S
O145 C153 1.284 . S
Zn146 O145 1.899 . S
Zn146 O147 2.032 . S
Zn146 O150 2.086 . S
Zn146 O155 1.977 . S
O147 Zn146 2.032 . S
O147 C151 1.278 . S
C148 O149 1.203 . S
C148 O155 1.267 . S
O149 C148 1.203 . S
O150 C143 1.185 . S
O150 Zn146 2.086 . S
C151 O147 1.278 . S
C151 O152 1.211 . S
O152 C151 1.211 . S
C153 O145 1.284 . S
C153 O154 1.273 . S
O154 C153 1.273 . S
O155 Zn146 1.977 . S
O155 C148 1.267 . S
C156 O157 1.160 . S
C156 O163 1.185 . S
O157 C156 1.160 . S
O158 Zn159 1.899 . S
O158 C166 1.284 . S
Zn159 O158 1.899 . S
Zn159 O160 2.032 . S
Zn159 O163 2.086 . S
Zn159 O168 1.977 . S
O160 Zn159 2.032 . S
O160 C164 1.278 . S
C161 O162 1.203 . S
C161 O168 1.267 . S
O162 C161 1.203 . S
O163 C156 1.185 . S
O163 Zn159 2.086 . S
C164 O160 1.278 . S
C164 O165 1.211 . S
O165 C164 1.211 . S
C166 O158 1.284 . S
C166 O167 1.273 . S
O167 C166 1.273 . S
O168 Zn159 1.977 . S
O168 C161 1.267 . S
C169 O170 1.160 . S
C169 O176 1.185 . S
O170 C169 1.160 . S
O171 Zn172 1.899 . S
O171 C179 1.284 . S
Zn172 O171 1.899 . S
Zn172 O173 2.032 . S
Zn172 O176 2.086 . S
Zn172 O181 1.977 . S
O173 Zn172 2.032 . S
O173 C177 1.278 . S
C174 O175 1.203 . S
C174 O181 1.267 . S
O175 C174 1.203 . S
O176 C169 1.185 . S
O176 Zn172 2.086 . S
C177 O173 1.278 . S
C177 O178 1.211 . S
O178 C177 1.211 . S
C179 O171 1.284 . S
C179 O180 1.273 1_655 S
O180 C179 1.273 1_455 S
O181 Zn172 1.977 . S
O181 C174 1.267 . S
C182 O183 1.160 . S
C182 O189 1.185 . S
O183 C182 1.160 . S
O184 Zn185 1.899 . S
O184 C192 1.284 . S
Zn185 O184 1.899 . S
Zn185 O186 2.032 . S
Zn185 O189 2.086 . S
Zn185 O194 1.977 . S
O186 Zn185 2.032 . S
O186 C190 1.278 . S
C187 O188 1.203 . S
C187 O194 1.267 . S
O188 C187 1.203 . S
O189 C182 1.185 . S
O189 Zn185 2.086 . S
C190 O186 1.278 . S
C190 O191 1.211 . S
O191 C190 1.211 . S
C192 O184 1.284 . S
C192 O193 1.273 . S
O193 C192 1.273 . S
O194 Zn185 1.977 . S
O194 C187 1.267 . S
C195 O196 1.160 . S
C195 O202 1.185 . S
O196 C195 1.160 . S
O197 Zn198 1.899 . S
O197 C205 1.284 . S
Zn198 O197 1.899 . S
Zn198 O199 2.032 . S
Zn198 O202 2.086 . S
Zn198 O207 1.977 . S
O199 Zn198 2.032 . S
O199 C203 1.278 . S
C200 O201 1.203 . S
C200 O207 1.267 . S
O201 C200 1.203 . S
O202 C195 1.185 . S
O202 Zn198 2.086 . S
C203 O199 1.278 . S
C203 O204 1.211 . S
O204 C203 1.211 . S
C205 O197 1.284 . S
C205 O206 1.273 . S
O206 C205 1.273 . S
O207 Zn198 1.977 . S
O207 C200 1.267 . S
C208 O209 1.160 . S
C208 O215 1.185 . S
O209 C208 1.160 . S
O210 Zn211 1.899 . S
O210 C218 1.284 . S
Zn211 O210 1.899 . S
Zn211 O212 2.032 . S
Zn211 O215 2.086 . S
Zn211 O220 1.977 . S
O212 Zn211 2.032 . S
O212 C216 1.278 . S
C213 O214 1.203 . S
C213 O220 1.267 . S
O214 C213 1.203 . S
O215 C208 1.185 . S
O215 Zn211 2.086 . S
C216 O212 1.278 . S
C216 O217 1.211 . S
O217 C216 1.211 . S
C218 O210 1.284 . S
C218 O219 1.273 . S
O219 C218 1.273 . S
O220 Zn211 1.977 . S
O220 C213 1.267 . S
C221 O222 1.160 . S
C221 O228 1.185 . S
O222 C221 1.160 . S
O223 Zn224 1.899 . S
O223 C231 1.284 . S
Zn224 O223 1.899 . S
Zn224 O225 2.032 . S
Zn224 O228 2.086 . S
Zn224 O233 1.977 . S
O225 Zn224 2.032 . S
O225 C229 1.278 . S
C226 O227 1.203 . S
C226 O233 1.267 . S
O227 C226 1.203 . S
O228 C221 1.185 . S
O228 Zn224 2.086 . S
C229 O225 1.278 . S
C229 O230 1.211 . S
O230 C229 1.211 . S
C231 O223 1.284 . S
C231 O232 1.273 . S
O232 C231 1.273 . S
O233 Zn224 1.977 . S
O233 C226 1.267 . S
C234 O235 1.160 . S
C234 O241 1.185 . S
O235 C234 1.160 . S
O236 Zn237 1.899 . S
O236 C244 1.284 . S
Zn237 O236 1.899 . S
Zn237 O238 2.032 . S
Zn237 O241 2.086 . S
Zn237 O246 1.977 . S
O238 Zn237 2.032 . S
O238 C242 1.278 . S
C239 O240 1.203 . S
C239 O246 1.267 . S
O240 C239 1.203 . S
O241 C234 1.185 . S
O241 Zn237 2.086 . S
C242 O238 1.278 . S
C242 O243 1.211 . S
O243 C242 1.211 . S
C244 O236 1.284 . S
C244 O245 1.273 1_554 S
O245 C244 1.273 1_556 S
O246 Zn237 1.977 . S
O246 C239 1.267 . S
C247 O248 1.160 . S
C247 O254 1.185 . S
O248 C247 1.160 . S
O249 Zn250 1.899 . S
O249 C257 1.284 . S
Zn250 O249 1.899 . S
Zn250 O251 2.032 . S
Zn250 O254 2.086 . S
Zn250 O259 1.977 . S
O251 Zn250 2.032 . S
O251 C255 1.278 . S
C252 O253 1.203 . S
C252 O259 1.267 . S
O253 C252 1.203 . S
O254 C247 1.185 . S
O254 Zn250 2.086 . S
C255 O251 1.278 . S
C255 O256 1.211 . S
O256 C255 1.211 . S
C257 O249 1.284 . S
C257 O258 1.273 . S
O258 C257 1.273 . S
O259 Zn250 1.977 . S
O259 C252 1.267 . S
C260 O261 1.160 . S
C260 O267 1.185 . S
O261 C260 1.160 . S
O262 Zn263 1.899 . S
O262 C270 1.284 . S
Zn263 O262 1.899 . S
Zn263 O264 2.032 . S
Zn263 O267 2.086 . S
Zn263 O272 1.977 . S
O264 Zn263 2.032 . S
O264 C268 1.278 . S
C265 O266 1.203 . S
C265 O272 1.267 . S
O266 C265 1.203 . S
O267 C260 1.185 . S
O267 Zn263 2.086 . S
C268 O264 1.278 . S
C268 O269 1.211 . S
O269 C268 1.211 . S
C270 O262 1.284 . S
C270 O271 1.273 . S
O271 C270 1.273 . S
O272 Zn263 1.977 . S
O272 C265 1.267 . S
C273 O274 1.160 . S
C273 O280 1.185 . S
O274 C273 1.160 . S
O275 Zn276 1.899 . S
O275 C283 1.284 . S
Zn276 O275 1.899 . S
Zn276 O277 2.032 . S
Zn276 O280 2.086 . S
Zn276 O285 1.977 . S
O277 Zn276 2.032 . S
O277 C281 1.278 . S
C278 O279 1.203 . S
C278 O285 1.267 . S
O279 C278 1.203 . S
O280 C273 1.185 . S
O280 Zn276 2.086 . S
C281 O277 1.278 . S
C281 O282 1.211 . S
O282 C281 1.211 . S
C283 O275 1.284 . S
C283 O284 1.273 . S
O284 C283 1.273 . S
O285 Zn276 1.977 . S
O285 C278 1.267 . S
C286 O287 1.160 . S
C286 O293 1.185 . S
O287 C286 1.160 . S
O288 Zn289 1.899 . S
O288 C296 1.284 . S
Zn289 O288 1.899 . S
Zn289 O290 2.032 . S
Zn289 O293 2.086 . S
Zn289 O298 1.977 . S
O290 Zn289 2.032 . S
O290 C294 1.278 . S
C291 O292 1.203 . S
C291 O298 1.267 . S
O292 C291 1.203 . S
O293 C286 1.185 . S
O293 Zn289 2.086 . S
C294 O290 1.278 . S
C294 O295 1.211 . S
O295 C294 1.211 . S
C296 O288 1.284 . S
C296 O297 1.273 1_556 S
O297 C296 1.273 1_554 S
O298 Zn289 1.977 . S
O298 C291 1.267 . S
C299 O300 1.160 . S
C299 O306 1.185 . S
O300 C299 1.160 . S
O301 Zn302 1.899 . S
O301 C309 1.284 . S
Zn302 O301 1.899 . S
Zn302 O303 2.032 . S
Zn302 O306 2.086 . S
Zn302 O311 1.977 . S
O303 Zn302 2.032 . S
O303 C307 1.278 . S
C304 O305 1.203 . S
C304 O311 1.267 . S
O305 C304 1.203 . S
O306 C299 1.185 . S
O306 Zn302 2.086 . S
C307 O303 1.278 . S
C307 O308 1.211 . S
O308 C307 1.211 . S
C309 O301 1.284 . S
C309 O310 1.273 . S
O310 C309 1.273 . S
O311 Zn302 1.977 . S
O311 C304 1.267 . S
H312 C318 0.930 . S
H313 C321 0.930 . S
H314 C322 0.930 . S
H315 C323 0.930 . S
H316 C326 0.930 . S
H317 C327 0.930 . S
C318 H312 0.930 . S
C318 C319 1.355 . S
C318 C320 1.415 . S
C319 C318 1.355 . S
C319 C321 1.419 . S
C320 C318 1.415 . S
C320 C325 1.425 . S
C320 C327 1.409 . S
C321 H313 0.930 . S
C321 C319 1.419 . S
C321 C322 1.362 . S
C322 H314 0.930 . S
C322 C321 1.362 . S
C322 C325 1.409 . S
C323 H315 0.930 . S
C323 C324 1.355 . S
C323 C325 1.415 . S
C324 C323 1.355 . S
C324 C326 1.419 . S
C325 C320 1.425 . S
C325 C322 1.409 . S
C325 C323 1.415 . S
C326 H316 0.930 . S
C326 C324 1.419 . S
C326 C327 1.362 . S
C327 H317 0.930 . S
C327 C320 1.409 . S
C327 C326 1.362 . S
H328 C334 0.930 . S
H329 C337 0.930 . S
H330 C338 0.930 . S
H331 C339 0.930 . S
H332 C342 0.930 . S
H333 C343 0.930 1_655 S
C334 H328 0.930 . S
C334 C335 1.355 . S
C334 C336 1.415 1_655 S
C335 C334 1.355 . S
C335 C337 1.419 1_655 S
C336 C334 1.415 1_455 S
C336 C341 1.425 . S
C336 C343 1.409 . S
C337 H329 0.930 . S
C337 C335 1.419 1_455 S
C337 C338 1.362 . S
C338 H330 0.930 . S
C338 C337 1.362 . S
C338 C341 1.409 . S
C339 H331 0.930 . S
C339 C340 1.355 . S
C339 C341 1.415 . S
C340 C339 1.355 . S
C340 C342 1.419 . S
C341 C336 1.425 . S
C341 C338 1.409 . S
C341 C339 1.415 . S
C342 H332 0.930 . S
C342 C340 1.419 . S
C342 C343 1.362 . S
C343 H333 0.930 1_455 S
C343 C336 1.409 . S
C343 C342 1.362 . S
H344 C350 0.930 . S
H345 C353 0.930 . S
H346 C354 0.930 1_554 S
H347 C355 0.930 . S
H348 C358 0.930 . S
H349 C359 0.930 . S
C350 H344 0.930 . S
C350 C351 1.355 . S
C350 C352 1.415 . S
C351 C350 1.355 . S
C351 C353 1.419 . S
C352 C350 1.415 . S
C352 C357 1.425 . S
C352 C359 1.409 . S
C353 H345 0.930 . S
C353 C351 1.419 . S
C353 C354 1.362 . S
C354 H346 0.930 1_556 S
C354 C353 1.362 . S
C354 C357 1.409 . S
C355 H347 0.930 . S
C355 C356 1.355 . S
C355 C357 1.415 1_554 S
C356 C355 1.355 . S
C356 C358 1.419 1_554 S
C357 C352 1.425 . S
C357 C354 1.409 . S
C357 C355 1.415 1_556 S
C358 H348 0.930 . S
C358 C356 1.419 1_556 S
C358 C359 1.362 . S
C359 H349 0.930 . S
C359 C352 1.409 . S
C359 C358 1.362 . S
H360 C366 0.930 . S
H361 C369 0.930 . S
H362 C370 0.930 . S
H363 C371 0.930 . S
H364 C374 0.930 . S
H365 C375 0.930 . S
C366 H360 0.930 . S
C366 C367 1.355 . S
C366 C368 1.415 . S
C367 C366 1.355 . S
C367 C369 1.419 . S
C368 C366 1.415 . S
C368 C373 1.425 . S
C368 C375 1.409 . S
C369 H361 0.930 . S
C369 C367 1.419 . S
C369 C370 1.362 . S
C370 H362 0.930 . S
C370 C369 1.362 . S
C370 C373 1.409 . S
C371 H363 0.930 . S
C371 C372 1.355 . S
C371 C373 1.415 . S
C372 C371 1.355 . S
C372 C374 1.419 . S
C373 C368 1.425 . S
C373 C370 1.409 . S
C373 C371 1.415 . S
C374 H364 0.930 . S
C374 C372 1.419 . S
C374 C375 1.362 . S
C375 H365 0.930 . S
C375 C368 1.409 . S
C375 C374 1.362 . S
H376 C382 0.930 . S
H377 C385 0.930 . S
H378 C386 0.930 . S
H379 C387 0.930 . S
H380 C390 0.930 . S
H381 C391 0.930 . S
C382 H376 0.930 . S
C382 C383 1.355 . S
C382 C384 1.415 . S
C383 C382 1.355 . S
C383 C385 1.419 . S
C384 C382 1.415 . S
C384 C389 1.425 . S
C384 C391 1.409 . S
C385 H377 0.930 . S
C385 C383 1.419 . S
C385 C386 1.362 . S
C386 H378 0.930 . S
C386 C385 1.362 . S
C386 C389 1.409 . S
C387 H379 0.930 . S
C387 C388 1.355 . S
C387 C389 1.415 . S
C388 C387 1.355 . S
C388 C390 1.419 . S
C389 C384 1.425 . S
C389 C386 1.409 . S
C389 C387 1.415 . S
C390 H380 0.930 . S
C390 C388 1.419 . S
C390 C391 1.362 . S
C391 H381 0.930 . S
C391 C384 1.409 . S
C391 C390 1.362 . S
H392 C398 0.930 . S
H393 C401 0.930 . S
H394 C402 0.930 . S
H395 C403 0.930 . S
H396 C406 0.930 . S
H397 C407 0.930 . S
C398 H392 0.930 . S
C398 C399 1.355 . S
C398 C400 1.415 . S
C399 C398 1.355 . S
C399 C401 1.419 . S
C400 C398 1.415 . S
C400 C405 1.425 . S
C400 C407 1.409 1_655 S
C401 H393 0.930 . S
C401 C399 1.419 . S
C401 C402 1.362 . S
C402 H394 0.930 . S
C402 C401 1.362 . S
C402 C405 1.409 . S
C403 H395 0.930 . S
C403 C404 1.355 1_655 S
C403 C405 1.415 . S
C404 C403 1.355 1_455 S
C404 C406 1.419 . S
C405 C400 1.425 . S
C405 C402 1.409 . S
C405 C403 1.415 . S
C406 H396 0.930 . S
C406 C404 1.419 . S
C406 C407 1.362 . S
C407 H397 0.930 . S
C407 C400 1.409 1_455 S
C407 C406 1.362 . S
H408 C414 0.930 . S
H409 C417 0.930 . S
H410 C418 0.932 1_556 S
H411 C419 0.930 . S
H412 C422 0.930 . S
H413 C423 0.930 . S
C414 H408 0.930 . S
C414 C415 1.355 . S
C414 C416 1.415 . S
C415 C414 1.355 . S
C415 C417 1.419 . S
C416 C414 1.415 . S
C416 C421 1.425 . S
C416 C423 1.409 . S
C417 H409 0.930 . S
C417 C415 1.419 . S
C417 C418 1.362 . S
C418 H410 0.932 1_554 S
C418 C417 1.362 . S
C418 C421 1.409 . S
C419 H411 0.930 . S
C419 C420 1.355 . S
C419 C421 1.415 1_556 S
C420 C419 1.355 . S
C420 C422 1.419 1_556 S
C421 C416 1.425 . S
C421 C418 1.409 . S
C421 C419 1.415 1_554 S
C422 H412 0.930 . S
C422 C420 1.419 1_554 S
C422 C423 1.362 . S
C423 H413 0.930 . S
C423 C416 1.409 . S
C423 C422 1.362 . S
H424 C430 0.930 . S
H425 C433 0.930 . S
H426 C434 0.930 . S
H427 C435 0.930 . S
H428 C438 0.930 . S
H429 C439 0.930 . S
C430 H424 0.930 . S
C430 C431 1.355 . S
C430 C432 1.415 . S
C431 C430 1.355 . S
C431 C433 1.419 . S
C432 C430 1.415 . S
C432 C437 1.425 . S
C432 C439 1.409 . S
C433 H425 0.930 . S
C433 C431 1.419 . S
C433 C434 1.362 . S
C434 H426 0.930 . S
C434 C433 1.362 . S
C434 C437 1.409 . S
C435 H427 0.930 . S
C435 C436 1.355 . S
C435 C437 1.415 . S
C436 C435 1.355 . S
C436 C438 1.419 . S
C437 C432 1.425 . S
C437 C434 1.409 . S
C437 C435 1.415 . S
C438 H428 0.930 . S
C438 C436 1.419 . S
C438 C439 1.362 . S
C439 H429 0.930 . S
C439 C432 1.409 . S
C439 C438 1.362 . S
H440 C446 0.930 . S
H441 C449 0.930 . S
H442 C450 0.930 . S
H443 C451 0.930 . S
H444 C454 0.930 . S
H445 C455 0.930 . S
C446 H440 0.930 . S
C446 C447 1.355 . S
C446 C448 1.415 . S
C447 C446 1.355 . S
C447 C449 1.419 . S
C448 C446 1.415 . S
C448 C453 1.425 . S
C448 C455 1.409 . S
C449 H441 0.930 . S
C449 C447 1.419 . S
C449 C450 1.362 . S
C450 H442 0.930 . S
C450 C449 1.362 . S
C450 C453 1.409 . S
C451 H443 0.930 . S
C451 C452 1.355 . S
C451 C453 1.415 . S
C452 C451 1.355 . S
C452 C454 1.419 . S
C453 C448 1.425 . S
C453 C450 1.409 . S
C453 C451 1.415 . S
C454 H444 0.930 . S
C454 C452 1.419 . S
C454 C455 1.362 . S
C455 H445 0.930 . S
C455 C448 1.409 . S
C455 C454 1.362 . S
H456 C462 0.930 . S
H457 C465 0.930 . S
H458 C466 0.930 . S
H459 C467 0.930 . S
H460 C470 0.930 . S
H461 C471 0.930 . S
C462 H456 0.930 . S
C462 C463 1.355 1_545 S
C462 C464 1.415 . S
C463 C462 1.355 1_565 S
C463 C465 1.419 . S
C464 C462 1.415 . S
C464 C469 1.425 . S
C464 C471 1.409 . S
C465 H457 0.930 . S
C465 C463 1.419 . S
C465 C466 1.362 . S
C466 H458 0.930 . S
C466 C465 1.362 . S
C466 C469 1.409 1_565 S
C467 H459 0.930 . S
C467 C468 1.355 . S
C467 C469 1.415 . S
C468 C467 1.355 . S
C468 C470 1.419 . S
C469 C464 1.425 . S
C469 C466 1.409 1_545 S
C469 C467 1.415 . S
C470 H460 0.930 . S
C470 C468 1.419 . S
C470 C471 1.362 . S
C471 H461 0.930 . S
C471 C464 1.409 . S
C471 C470 1.362 . S
H472 C478 0.930 . S
H473 C481 0.930 . S
H474 C482 0.930 . S
H475 C483 0.930 . S
H476 C486 0.930 . S
H477 C487 0.930 . S
C478 H472 0.930 . S
C478 C479 1.355 . S
C478 C480 1.415 . S
C479 C478 1.355 . S
C479 C481 1.419 . S
C480 C478 1.415 . S
C480 C485 1.425 . S
C480 C487 1.409 1_565 S
C481 H473 0.930 . S
C481 C479 1.419 . S
C481 C482 1.362 . S
C482 H474 0.930 . S
C482 C481 1.362 . S
C482 C485 1.409 . S
C483 H475 0.930 . S
C483 C484 1.355 1_565 S
C483 C485 1.415 . S
C484 C483 1.355 1_545 S
C484 C486 1.419 . S
C485 C480 1.425 . S
C485 C482 1.409 . S
C485 C483 1.415 . S
C486 H476 0.930 . S
C486 C484 1.419 . S
C486 C487 1.362 . S
C487 H477 0.930 . S
C487 C480 1.409 1_545 S
C487 C486 1.362 . S
H488 C494 0.930 . S
H489 C497 0.930 . S
H490 C498 0.930 . S
H491 C499 0.930 . S
H492 C502 0.930 . S
H493 C503 0.930 . S
C494 H488 0.930 . S
C494 C495 1.355 . S
C494 C496 1.415 . S
C495 C494 1.355 . S
C495 C497 1.419 . S
C496 C494 1.415 . S
C496 C501 1.425 . S
C496 C503 1.409 . S
C497 H489 0.930 . S
C497 C495 1.419 . S
C497 C498 1.362 . S
C498 H490 0.930 . S
C498 C497 1.362 . S
C498 C501 1.409 . S
C499 H491 0.930 . S
C499 C500 1.355 . S
C499 C501 1.415 . S
C500 C499 1.355 . S
C500 C502 1.419 . S
C501 C496 1.425 . S
C501 C498 1.409 . S
C501 C499 1.415 . S
C502 H492 0.930 . S
C502 C500 1.419 . S
C502 C503 1.362 . S
C503 H493 0.930 . S
C503 C496 1.409 . S
C503 C502 1.362 . S
H504 C510 0.930 . S
H505 C513 0.930 . S
H506 C514 0.930 . S
H507 C515 0.930 . S
H508 C518 0.930 . S
H509 C519 0.930 . S
C510 H504 0.930 . S
C510 C511 1.355 . S
C510 C512 1.415 . S
C511 C510 1.355 . S
C511 C513 1.419 . S
C512 C510 1.415 . S
C512 C517 1.425 . S
C512 C519 1.409 . S
C513 H505 0.930 . S
C513 C511 1.419 . S
C513 C514 1.362 . S
C514 H506 0.930 . S
C514 C513 1.362 . S
C514 C517 1.409 . S
C515 H507 0.930 . S
C515 C516 1.355 . S
C515 C517 1.415 . S
C516 C515 1.355 . S
C516 C518 1.419 . S
C517 C512 1.425 . S
C517 C514 1.409 . S
C517 C515 1.415 . S
C518 H508 0.930 . S
C518 C516 1.419 . S
C518 C519 1.362 . S
C519 H509 0.930 . S
C519 C512 1.409 . S
C519 C518 1.362 . S
H520 C526 0.930 . S
H521 C529 0.930 . S
H522 C530 0.930 . S
H523 C531 0.930 . S
H524 C534 0.930 . S
H525 C535 0.930 . S
C526 H520 0.930 . S
C526 C527 1.355 . S
C526 C528 1.415 1_565 S
C527 C526 1.355 . S
C527 C529 1.419 . S
C528 C526 1.415 1_545 S
C528 C533 1.425 . S
C528 C535 1.409 . S
C529 H521 0.930 . S
C529 C527 1.419 . S
C529 C530 1.362 1_565 S
C530 H522 0.930 . S
C530 C529 1.362 1_545 S
C530 C533 1.409 . S
C531 H523 0.930 . S
C531 C532 1.355 . S
C531 C533 1.415 . S
C532 C531 1.355 . S
C532 C534 1.419 . S
C533 C528 1.425 . S
C533 C530 1.409 . S
C533 C531 1.415 . S
C534 H524 0.930 . S
C534 C532 1.419 . S
C534 C535 1.362 . S
C535 H525 0.930 . S
C535 C528 1.409 . S
C535 C534 1.362 . S
H536 C542 0.930 . S
H537 C545 0.930 . S
H538 C546 0.930 . S
H539 C547 0.930 . S
H540 C550 0.930 . S
H541 C551 0.930 . S
C542 H536 0.930 . S
C542 C543 1.355 . S
C542 C544 1.415 . S
C543 C542 1.355 . S
C543 C545 1.419 . S
C544 C542 1.415 . S
C544 C549 1.425 . S
C544 C551 1.409 1_556 S
C545 H537 0.930 . S
C545 C543 1.419 . S
C545 C546 1.362 . S
C546 H538 0.930 . S
C546 C545 1.362 . S
C546 C549 1.409 . S
C547 H539 0.930 . S
C547 C548 1.355 1_556 S
C547 C549 1.415 . S
C548 C547 1.355 1_554 S
C548 C550 1.419 . S
C549 C544 1.425 . S
C549 C546 1.409 . S
C549 C547 1.415 . S
C550 H540 0.930 . S
C550 C548 1.419 . S
C550 C551 1.362 . S
C551 H541 0.930 . S
C551 C544 1.409 1_554 S
C551 C550 1.362 . S
H552 C558 0.930 . S
H553 C561 0.930 . S
H554 C562 0.930 . S
H555 C563 0.930 . S
H556 C566 0.930 . S
H557 C567 0.930 1_545 S
C558 H552 0.930 . S
C558 C559 1.355 . S
C558 C560 1.415 1_545 S
C559 C558 1.355 . S
C559 C561 1.419 1_545 S
C560 C558 1.415 1_565 S
C560 C565 1.425 . S
C560 C567 1.409 . S
C561 H553 0.930 . S
C561 C559 1.419 1_565 S
C561 C562 1.362 . S
C562 H554 0.930 . S
C562 C561 1.362 . S
C562 C565 1.409 . S
C563 H555 0.930 . S
C563 C564 1.355 . S
C563 C565 1.415 . S
C564 C563 1.355 . S
C564 C566 1.419 . S
C565 C560 1.425 . S
C565 C562 1.409 . S
C565 C563 1.415 . S
C566 H556 0.930 . S
C566 C564 1.419 . S
C566 C567 1.362 . S
C567 H557 0.930 1_565 S
C567 C560 1.409 . S
C567 C566 1.362 . S
H568 C574 0.930 . S
H569 C577 0.930 . S
H570 C578 0.930 . S
H571 C579 0.930 . S
H572 C582 0.930 . S
H573 C583 0.930 . S
C574 H568 0.930 . S
C574 C575 1.355 . S
C574 C576 1.415 . S
C575 C574 1.355 . S
C575 C577 1.419 . S
C576 C574 1.415 . S
C576 C581 1.425 . S
C576 C583 1.409 . S
C577 H569 0.930 . S
C577 C575 1.419 . S
C577 C578 1.362 . S
C578 H570 0.930 . S
C578 C577 1.362 . S
C578 C581 1.409 . S
C579 H571 0.930 . S
C579 C580 1.355 . S
C579 C581 1.415 . S
C580 C579 1.355 . S
C580 C582 1.419 . S
C581 C576 1.425 . S
C581 C578 1.409 . S
C581 C579 1.415 . S
C582 H572 0.930 . S
C582 C580 1.419 . S
C582 C583 1.362 . S
C583 H573 0.930 . S
C583 C576 1.409 . S
C583 C582 1.362 . S
H584 C590 0.930 . S
H585 C593 0.930 . S
H586 C594 0.930 . S
H587 C595 0.930 . S
H588 C598 0.930 . S
H589 C599 0.930 . S
C590 H584 0.930 . S
C590 C591 1.355 . S
C590 C592 1.415 . S
C591 C590 1.355 . S
C591 C593 1.419 . S
C592 C590 1.415 . S
C592 C597 1.425 . S
C592 C599 1.409 . S
C593 H585 0.930 . S
C593 C591 1.419 . S
C593 C594 1.362 . S
C594 H586 0.930 . S
C594 C593 1.362 . S
C594 C597 1.409 . S
C595 H587 0.930 . S
C595 C596 1.355 . S
C595 C597 1.415 . S
C596 C595 1.355 . S
C596 C598 1.419 . S
C597 C592 1.425 . S
C597 C594 1.409 . S
C597 C595 1.415 . S
C598 H588 0.930 . S
C598 C596 1.419 . S
C598 C599 1.362 . S
C599 H589 0.930 . S
C599 C592 1.409 . S
C599 C598 1.362 . S
H600 C606 0.930 . S
H601 C609 0.927 1_556 S
H602 C610 0.930 . S
H603 C611 0.930 . S
H604 C614 0.930 . S
H605 C615 0.930 . S
C606 H600 0.930 . S
C606 C607 1.355 . S
C606 C608 1.415 1_556 S
C607 C606 1.355 . S
C607 C609 1.413 1_556 S
C608 C606 1.415 1_554 S
C608 C613 1.425 . S
C608 C615 1.409 . S
C609 H601 0.927 1_554 S
C609 C607 1.413 1_554 S
C609 C610 1.371 . S
C610 H602 0.930 . S
C610 C609 1.371 . S
C610 C613 1.409 . S
C611 H603 0.930 . S
C611 C612 1.355 . S
C611 C613 1.415 . S
C612 C611 1.355 . S
C612 C614 1.419 . S
C613 C608 1.425 . S
C613 C610 1.409 . S
C613 C611 1.415 . S
C614 H604 0.930 . S
C614 C612 1.419 . S
C614 C615 1.362 . S
C615 H605 0.930 . S
C615 C608 1.409 . S
C615 C614 1.362 . S
H616 C622 0.930 . S
H617 C625 0.930 . S
H618 C626 0.930 . S
H619 C627 0.930 . S
H620 C630 0.930 . S
H621 C631 0.930 . S
C622 H616 0.930 . S
C622 C623 1.355 . S
C622 C624 1.415 . S
C623 C622 1.355 . S
C623 C625 1.419 . S
C624 C622 1.415 . S
C624 C629 1.425 . S
C624 C631 1.409 . S
C625 H617 0.930 . S
C625 C623 1.419 . S
C625 C626 1.362 . S
C626 H618 0.930 . S
C626 C625 1.362 . S
C626 C629 1.409 . S
C627 H619 0.930 . S
C627 C628 1.355 . S
C627 C629 1.415 . S
C628 C627 1.355 . S
C628 C630 1.419 . S
C629 C624 1.425 . S
C629 C626 1.409 . S
C629 C627 1.415 . S
C630 H620 0.930 . S
C630 C628 1.419 . S
C630 C631 1.362 . S
C631 H621 0.930 . S
C631 C624 1.409 . S
C631 C630 1.362 . S
H632 C638 0.930 . S
H633 C641 0.930 . S
H634 C642 0.930 . S
H635 C643 0.930 . S
H636 C646 0.930 . S
H637 C647 0.930 . S
C638 H632 0.930 . S
C638 C639 1.355 . S
C638 C640 1.415 . S
C639 C638 1.355 . S
C639 C641 1.419 . S
C640 C638 1.415 . S
C640 C645 1.425 . S
C640 C647 1.409 . S
C641 H633 0.930 . S
C641 C639 1.419 . S
C641 C642 1.362 . S
C642 H634 0.930 . S
C642 C641 1.362 . S
C642 C645 1.409 . S
C643 H635 0.930 . S
C643 C644 1.355 . S
C643 C645 1.415 . S
C644 C643 1.355 . S
C644 C646 1.419 . S
C645 C640 1.425 . S
C645 C642 1.409 . S
C645 C643 1.415 . S
C646 H636 0.930 . S
C646 C644 1.419 . S
C646 C647 1.362 . S
C647 H637 0.930 . S
C647 C640 1.409 . S
C647 C646 1.362 . S
H648 C654 0.930 . S
H649 C657 0.930 . S
H650 C658 0.930 . S
H651 C659 0.930 . S
H652 C662 0.930 . S
H653 C663 0.930 . S
C654 H648 0.930 . S
C654 C655 1.355 1_655 S
C654 C656 1.415 . S
C655 C654 1.355 1_455 S
C655 C657 1.419 . S
C656 C654 1.415 . S
C656 C661 1.425 . S
C656 C663 1.409 . S
C657 H649 0.930 . S
C657 C655 1.419 . S
C657 C658 1.362 . S
C658 H650 0.930 . S
C658 C657 1.362 . S
C658 C661 1.409 1_455 S
C659 H651 0.930 . S
C659 C660 1.355 . S
C659 C661 1.415 . S
C660 C659 1.355 . S
C660 C662 1.419 . S
C661 C656 1.425 . S
C661 C658 1.409 1_655 S
C661 C659 1.415 . S
C662 H652 0.930 . S
C662 C660 1.419 . S
C662 C663 1.362 . S
C663 H653 0.930 . S
C663 C656 1.409 . S
C663 C662 1.362 . S
H664 C670 0.930 . S
H665 C673 0.930 . S
H666 C674 0.930 . S
H667 C675 0.930 . S
H668 C678 0.930 . S
H669 C679 0.930 . S
C670 H664 0.930 . S
C670 C671 1.355 1_455 S
C670 C672 1.415 . S
C671 C670 1.355 1_655 S
C671 C673 1.419 . S
C672 C670 1.415 . S
C672 C677 1.425 . S
C672 C679 1.409 . S
C673 H665 0.930 . S
C673 C671 1.419 . S
C673 C674 1.362 . S
C674 H666 0.930 . S
C674 C673 1.362 . S
C674 C677 1.409 1_655 S
C675 H667 0.930 . S
C675 C676 1.355 . S
C675 C677 1.415 . S
C676 C675 1.355 . S
C676 C678 1.419 . S
C677 C672 1.425 . S
C677 C674 1.409 1_455 S
C677 C675 1.415 . S
C678 H668 0.930 . S
C678 C676 1.419 . S
C678 C679 1.362 . S
C679 H669 0.930 . S
C679 C672 1.409 . S
C679 C678 1.362 . S
H680 C686 0.930 . S
H681 C689 0.930 . S
H682 C690 0.930 . S
H683 C691 0.930 . S
H684 C694 0.930 . S
H685 C695 0.930 . S
C686 H680 0.930 . S
C686 C687 1.355 . S
C686 C688 1.415 . S
C687 C686 1.355 . S
C687 C689 1.419 . S
C688 C686 1.415 . S
C688 C693 1.425 . S
C688 C695 1.409 . S
C689 H681 0.930 . S
C689 C687 1.419 . S
C689 C690 1.362 . S
C690 H682 0.930 . S
C690 C689 1.362 . S
C690 C693 1.409 . S
C691 H683 0.930 . S
C691 C692 1.355 . S
C691 C693 1.415 . S
C692 C691 1.355 . S
C692 C694 1.419 . S
C693 C688 1.425 . S
C693 C690 1.409 . S
C693 C691 1.415 . S
C694 H684 0.930 . S
C694 C692 1.419 . S
C694 C695 1.362 . S
C695 H685 0.930 . S
C695 C688 1.409 . S
C695 C694 1.362 . S
H696 C702 0.930 . S
H697 C705 0.930 . S
H698 C706 0.930 . S
H699 C707 0.930 . S
H700 C710 0.930 . S
H701 C711 0.930 . S
C702 H696 0.930 . S
C702 C703 1.355 . S
C702 C704 1.415 . S
C703 C702 1.355 . S
C703 C705 1.419 . S
C704 C702 1.415 . S
C704 C709 1.425 . S
C704 C711 1.409 . S
C705 H697 0.930 . S
C705 C703 1.419 . S
C705 C706 1.362 . S
C706 H698 0.930 . S
C706 C705 1.362 . S
C706 C709 1.409 . S
C707 H699 0.930 . S
C707 C708 1.355 . S
C707 C709 1.415 . S
C708 C707 1.355 . S
C708 C710 1.419 . S
C709 C704 1.425 . S
C709 C706 1.409 . S
C709 C707 1.415 . S
C710 H700 0.930 . S
C710 C708 1.419 . S
C710 C711 1.362 . S
C711 H701 0.930 . S
C711 C704 1.409 . S
C711 C710 1.362 . S
H712 C718 0.930 . S
H713 C721 0.930 . S
H714 C722 0.930 . S
H715 C723 0.930 . S
H716 C726 0.930 . S
H717 C727 0.930 1_545 S
C718 H712 0.930 . S
C718 C719 1.349 1_545 S
C718 C720 1.415 1_545 S
C719 C718 1.349 1_565 S
C719 C721 1.443 . S
C720 C718 1.415 1_565 S
C720 C725 1.425 . S
C720 C727 1.409 . S
C721 H713 0.930 . S
C721 C719 1.443 . S
C721 C722 1.362 . S
C722 H714 0.930 . S
C722 C721 1.362 . S
C722 C725 1.409 . S
C723 H715 0.930 . S
C723 C724 1.355 . S
C723 C725 1.415 . S
C724 C723 1.355 . S
C724 C726 1.419 . S
C725 C720 1.425 . S
C725 C722 1.409 . S
C725 C723 1.415 . S
C726 H716 0.930 . S
C726 C724 1.419 . S
C726 C727 1.362 . S
C727 H717 0.930 1_565 S
C727 C720 1.409 . S
C727 C726 1.362 . S
H728 C734 0.930 . S
H729 C737 0.930 . S
H730 C738 0.930 . S
H731 C739 0.930 . S
H732 C742 0.930 . S
H733 C743 0.930 . S
C734 H728 0.930 . S
C734 C735 1.355 . S
C734 C736 1.415 . S
C735 C734 1.355 . S
C735 C737 1.419 . S
C736 C734 1.415 . S
C736 C741 1.425 . S
C736 C743 1.409 . S
C737 H729 0.930 . S
C737 C735 1.419 . S
C737 C738 1.362 . S
C738 H730 0.930 . S
C738 C737 1.362 . S
C738 C741 1.409 . S
C739 H731 0.930 . S
C739 C740 1.355 . S
C739 C741 1.415 . S
C740 C739 1.355 . S
C740 C742 1.419 . S
C741 C736 1.425 . S
C741 C738 1.409 . S
C741 C739 1.415 . S
C742 H732 0.930 . S
C742 C740 1.419 . S
C742 C743 1.362 . S
C743 H733 0.930 . S
C743 C736 1.409 . S
C743 C742 1.362 . S
H744 C750 0.930 . S
H745 C753 0.930 . S
H746 C754 0.930 . S
H747 C755 0.930 1_556 S
H748 C758 0.930 . S
H749 C759 0.930 . S
C750 H744 0.930 . S
C750 C751 1.355 . S
C750 C752 1.415 . S
C751 C750 1.355 . S
C751 C753 1.419 . S
C752 C750 1.415 . S
C752 C757 1.425 . S
C752 C759 1.409 . S
C753 H745 0.930 . S
C753 C751 1.419 . S
C753 C754 1.362 . S
C754 H746 0.930 . S
C754 C753 1.362 . S
C754 C757 1.409 . S
C755 H747 0.930 1_554 S
C755 C756 1.355 1_545 S
C755 C757 1.415 . S
C756 C755 1.355 1_565 S
C756 C758 1.419 . S
C757 C752 1.425 . S
C757 C754 1.409 . S
C757 C755 1.415 . S
C758 H748 0.930 . S
C758 C756 1.419 . S
C758 C759 1.362 1_565 S
C759 H749 0.930 . S
C759 C752 1.409 . S
C759 C758 1.362 1_545 S
H760 C766 0.930 . S
H761 C769 0.930 . S
H762 C770 0.930 . S
H763 C771 0.930 . S
H764 C774 0.930 . S
H765 C775 0.930 . S
C766 H760 0.930 . S
C766 C767 1.355 . S
C766 C768 1.415 . S
C767 C766 1.355 . S
C767 C769 1.419 . S
C768 C766 1.415 . S
C768 C773 1.425 . S
C768 C775 1.409 . S
C769 H761 0.930 . S
C769 C767 1.419 . S
C769 C770 1.362 . S
C770 H762 0.930 . S
C770 C769 1.362 . S
C770 C773 1.409 . S
C771 H763 0.930 . S
C771 C772 1.355 . S
C771 C773 1.415 . S
C772 C771 1.355 . S
C772 C774 1.419 . S
C773 C768 1.425 . S
C773 C770 1.409 . S
C773 C771 1.415 . S
C774 H764 0.930 . S
C774 C772 1.419 . S
C774 C775 1.362 . S
C775 H765 0.930 . S
C775 C768 1.409 . S
C775 C774 1.362 . S
H776 C782 0.930 . S
H777 C785 0.930 . S
H778 C786 0.930 . S
H779 C787 0.930 . S
H780 C790 0.930 . S
H781 C791 0.930 . S
C782 H776 0.930 . S
C782 C783 1.355 . S
C782 C784 1.415 . S
C783 C782 1.355 . S
C783 C785 1.419 1_556 S
C784 C782 1.415 . S
C784 C789 1.425 . S
C784 C791 1.409 . S
C785 H777 0.930 . S
C785 C783 1.419 1_554 S
C785 C786 1.362 1_554 S
C786 H778 0.930 . S
C786 C785 1.362 1_556 S
C786 C789 1.409 . S
C787 H779 0.930 . S
C787 C788 1.355 . S
C787 C789 1.415 . S
C788 C787 1.355 . S
C788 C790 1.419 . S
C789 C784 1.425 . S
C789 C786 1.409 . S
C789 C787 1.415 . S
C790 H780 0.930 . S
C790 C788 1.419 . S
C790 C791 1.362 . S
C791 H781 0.930 . S
C791 C784 1.409 . S
C791 C790 1.362 . S
H792 C798 0.930 . S
H793 C801 0.930 . S
H794 C802 0.930 . S
H795 C803 0.930 . S
H796 C806 0.930 . S
H797 C807 0.930 . S
C798 H792 0.930 . S
C798 C799 1.355 . S
C798 C800 1.415 . S
C799 C798 1.355 . S
C799 C801 1.419 . S
C800 C798 1.415 . S
C800 C805 1.425 . S
C800 C807 1.409 . S
C801 H793 0.930 . S
C801 C799 1.419 . S
C801 C802 1.362 . S
C802 H794 0.930 . S
C802 C801 1.362 . S
C802 C805 1.409 . S
C803 H795 0.930 . S
C803 C804 1.355 . S
C803 C805 1.415 . S
C804 C803 1.355 . S
C804 C806 1.419 . S
C805 C800 1.425 . S
C805 C802 1.409 . S
C805 C803 1.415 . S
C806 H796 0.930 . S
C806 C804 1.419 . S
C806 C807 1.362 . S
C807 H797 0.930 . S
C807 C800 1.409 . S
C807 C806 1.362 . S
H808 C814 0.930 . S
H809 C817 0.930 . S
H810 C818 0.930 . S
H811 C819 0.930 . S
H812 C822 0.930 . S
H813 C823 0.930 . S
C814 H808 0.930 . S
C814 C815 1.355 . S
C814 C816 1.415 . S
C815 C814 1.355 . S
C815 C817 1.419 . S
C816 C814 1.415 . S
C816 C821 1.425 . S
C816 C823 1.409 . S
C817 H809 0.930 . S
C817 C815 1.419 . S
C817 C818 1.362 . S
C818 H810 0.930 . S
C818 C817 1.362 . S
C818 C821 1.409 . S
C819 H811 0.930 . S
C819 C820 1.355 . S
C819 C821 1.415 . S
C820 C819 1.355 . S
C820 C822 1.419 . S
C821 C816 1.425 . S
C821 C818 1.409 . S
C821 C819 1.415 . S
C822 H812 0.930 . S
C822 C820 1.419 . S
C822 C823 1.362 . S
C823 H813 0.930 . S
C823 C816 1.409 . S
C823 C822 1.362 . S
H824 C830 0.930 . S
H825 C833 0.930 . S
H826 C834 0.930 . S
H827 C835 0.930 . S
H828 C838 0.930 . S
H829 C839 0.930 . S
C830 H824 0.930 . S
C830 C831 1.355 . S
C830 C832 1.415 . S
C831 C830 1.355 . S
C831 C833 1.419 . S
C832 C830 1.415 . S
C832 C837 1.425 . S
C832 C839 1.409 . S
C833 H825 0.930 . S
C833 C831 1.419 . S
C833 C834 1.362 . S
C834 H826 0.930 . S
C834 C833 1.362 . S
C834 C837 1.409 . S
C835 H827 0.930 . S
C835 C836 1.355 . S
C835 C837 1.415 . S
C836 C835 1.355 . S
C836 C838 1.419 . S
C837 C832 1.425 . S
C837 C834 1.409 . S
C837 C835 1.415 . S
C838 H828 0.930 . S
C838 C836 1.419 . S
C838 C839 1.362 . S
C839 H829 0.930 . S
C839 C832 1.409 . S
C839 C838 1.362 . S
H840 C846 0.930 . S
H841 C849 0.930 . S
H842 C850 0.930 . S
H843 C851 0.930 . S
H844 C854 0.930 . S
H845 C855 0.930 1_655 S
C846 H840 0.930 . S
C846 C847 1.353 1_655 S
C846 C848 1.415 1_655 S
C847 C846 1.353 1_455 S
C847 C849 1.425 1_545 S
C848 C846 1.415 1_455 S
C848 C853 1.425 . S
C848 C855 1.409 . S
C849 H841 0.930 . S
C849 C847 1.425 1_565 S
C849 C850 1.362 1_565 S
C850 H842 0.930 . S
C850 C849 1.362 1_545 S
C850 C853 1.409 . S
C851 H843 0.930 . S
C851 C852 1.355 . S
C851 C853 1.415 . S
C852 C851 1.355 . S
C852 C854 1.419 . S
C853 C848 1.425 . S
C853 C850 1.409 . S
C853 C851 1.415 . S
C854 H844 0.930 . S
C854 C852 1.419 . S
C854 C855 1.362 . S
C855 H845 0.930 1_455 S
C855 C848 1.409 . S
C855 C854 1.362 . S
H856 C862 0.930 . S
H857 C865 0.930 . S
H858 C866 0.930 . S
H859 C867 0.930 . S
H860 C870 0.930 . S
H861 C871 0.930 . S
C862 H856 0.930 . S
C862 C863 1.355 . S
C862 C864 1.415 . S
C863 C862 1.355 . S
C863 C865 1.419 . S
C864 C862 1.415 . S
C864 C869 1.425 . S
C864 C871 1.409 . S
C865 H857 0.930 . S
C865 C863 1.419 . S
C865 C866 1.362 . S
C866 H858 0.930 . S
C866 C865 1.362 . S
C866 C869 1.409 . S
C867 H859 0.930 . S
C867 C868 1.355 . S
C867 C869 1.415 . S
C868 C867 1.355 . S
C868 C870 1.419 . S
C869 C864 1.425 . S
C869 C866 1.409 . S
C869 C867 1.415 . S
C870 H860 0.930 . S
C870 C868 1.419 . S
C870 C871 1.362 . S
C871 H861 0.930 . S
C871 C864 1.409 . S
C871 C870 1.362 . S
H872 C878 0.930 . S
H873 C881 0.930 1_545 S
H874 C882 0.930 . S
H875 C883 0.930 . S
H876 C886 0.930 . S
H877 C887 0.930 . S
C878 H872 0.930 . S
C878 C879 1.355 . S
C878 C880 1.415 . S
C879 C878 1.355 . S
C879 C881 1.419 . S
C880 C878 1.415 . S
C880 C885 1.425 . S
C880 C887 1.409 . S
C881 H873 0.930 1_565 S
C881 C879 1.419 . S
C881 C882 1.362 . S
C882 H874 0.930 . S
C882 C881 1.362 . S
C882 C885 1.409 . S
C883 H875 0.930 . S
C883 C884 1.355 . S
C883 C885 1.415 . S
C884 C883 1.355 . S
C884 C886 1.419 . S
C885 C880 1.425 . S
C885 C882 1.409 . S
C885 C883 1.415 . S
C886 H876 0.930 . S
C886 C884 1.419 . S
C886 C887 1.362 . S
C887 H877 0.930 . S
C887 C880 1.409 . S
C887 C886 1.362 . S
H888 C894 0.930 . S
H889 C897 0.930 . S
H890 C898 0.930 . S
H891 C899 0.930 . S
H892 C902 0.930 . S
H893 C903 0.930 . S
C894 H888 0.930 . S
C894 C895 1.355 . S
C894 C896 1.415 . S
C895 C894 1.355 . S
C895 C897 1.419 . S
C896 C894 1.415 . S
C896 C901 1.425 . S
C896 C903 1.409 . S
C897 H889 0.930 . S
C897 C895 1.419 . S
C897 C898 1.362 . S
C898 H890 0.930 . S
C898 C897 1.362 . S
C898 C901 1.409 . S
C899 H891 0.930 . S
C899 C900 1.355 . S
C899 C901 1.415 . S
C900 C899 1.355 . S
C900 C902 1.419 . S
C901 C896 1.425 . S
C901 C898 1.409 . S
C901 C899 1.415 . S
C902 H892 0.930 . S
C902 C900 1.419 . S
C902 C903 1.362 . S
C903 H893 0.930 . S
C903 C896 1.409 . S
C903 C902 1.362 . S
H904 C910 0.930 . S
H905 C913 0.930 1_455 S
H906 C914 0.930 . S
H907 C915 0.930 . S
H908 C918 0.930 . S
H909 C919 0.930 . S
C910 H904 0.930 . S
C910 C911 1.355 1_655 S
C910 C912 1.415 . S
C911 C910 1.355 1_455 S
C911 C913 1.419 1_455 S
C912 C910 1.415 . S
C912 C917 1.425 . S
C912 C919 1.409 . S
C913 H905 0.930 1_655 S
C913 C911 1.419 1_655 S
C913 C914 1.362 . S
C914 H906 0.930 . S
C914 C913 1.362 . S
C914 C917 1.409 . S
C915 H907 0.930 . S
C915 C916 1.355 . S
C915 C917 1.415 . S
C916 C915 1.355 . S
C916 C918 1.419 . S
C917 C912 1.425 . S
C917 C914 1.409 . S
C917 C915 1.415 . S
C918 H908 0.930 . S
C918 C916 1.419 . S
C918 C919 1.362 . S
C919 H909 0.930 . S
C919 C912 1.409 . S
C919 C918 1.362 . S
H920 C926 0.930 . S
H921 C929 0.930 . S
H922 C930 0.930 . S
H923 C931 0.930 . S
H924 C934 0.930 . S
H925 C935 0.930 . S
C926 H920 0.930 . S
C926 C927 1.355 . S
C926 C928 1.415 . S
C927 C926 1.355 . S
C927 C929 1.419 . S
C928 C926 1.415 . S
C928 C933 1.425 . S
C928 C935 1.409 . S
C929 H921 0.930 . S
C929 C927 1.419 . S
C929 C930 1.362 . S
C930 H922 0.930 . S
C930 C929 1.362 . S
C930 C933 1.409 . S
C931 H923 0.930 . S
C931 C932 1.355 . S
C931 C933 1.415 . S
C932 C931 1.355 . S
C932 C934 1.419 . S
C933 C928 1.425 . S
C933 C930 1.409 . S
C933 C931 1.415 . S
C934 H924 0.930 . S
C934 C932 1.419 . S
C934 C935 1.362 . S
C935 H925 0.930 . S
C935 C928 1.409 . S
C935 C934 1.362 . S
H936 C942 0.930 . S
H937 C945 0.930 . S
H938 C946 0.930 . S
H939 C947 0.930 . S
H940 C950 0.930 . S
H941 C951 0.930 . S
C942 H936 0.930 . S
C942 C943 1.355 . S
C942 C944 1.415 . S
C943 C942 1.355 . S
C943 C945 1.419 . S
C944 C942 1.415 . S
C944 C949 1.425 . S
C944 C951 1.409 . S
C945 H937 0.930 . S
C945 C943 1.419 . S
C945 C946 1.362 . S
C946 H938 0.930 . S
C946 C945 1.362 . S
C946 C949 1.409 . S
C947 H939 0.930 . S
C947 C948 1.355 . S
C947 C949 1.415 . S
C948 C947 1.355 . S
C948 C950 1.419 . S
C949 C944 1.425 . S
C949 C946 1.409 . S
C949 C947 1.415 . S
C950 H940 0.930 . S
C950 C948 1.419 . S
C950 C951 1.362 . S
C951 H941 0.930 . S
C951 C944 1.409 . S
C951 C950 1.362 . S
H952 C958 0.930 . S
H953 C961 0.930 . S
H954 C962 0.930 . S
H955 C963 0.930 . S
H956 C966 0.930 . S
H957 C967 0.930 . S
C958 H952 0.930 . S
C958 C959 1.355 . S
C958 C960 1.415 . S
C959 C958 1.355 . S
C959 C961 1.419 . S
C960 C958 1.415 . S
C960 C965 1.425 . S
C960 C967 1.409 . S
C961 H953 0.930 . S
C961 C959 1.419 . S
C961 C962 1.362 . S
C962 H954 0.930 . S
C962 C961 1.362 . S
C962 C965 1.409 . S
C963 H955 0.930 . S
C963 C964 1.355 . S
C963 C965 1.415 . S
C964 C963 1.355 . S
C964 C966 1.419 . S
C965 C960 1.425 . S
C965 C962 1.409 . S
C965 C963 1.415 . S
C966 H956 0.930 . S
C966 C964 1.419 . S
C966 C967 1.362 . S
C967 H957 0.930 . S
C967 C960 1.409 . S
C967 C966 1.362 . S
H968 C974 0.930 . S
H969 C977 0.930 . S
H970 C978 0.930 . S
H971 C979 0.930 . S
H972 C982 0.930 . S
H973 C983 0.930 . S
C974 H968 0.930 . S
C974 C975 1.355 . S
C974 C976 1.415 . S
C975 C974 1.355 . S
C975 C977 1.419 . S
C976 C974 1.415 . S
C976 C981 1.425 . S
C976 C983 1.409 . S
C977 H969 0.930 . S
C977 C975 1.419 . S
C977 C978 1.362 . S
C978 H970 0.930 . S
C978 C977 1.362 . S
C978 C981 1.409 . S
C979 H971 0.930 . S
C979 C980 1.355 . S
C979 C981 1.415 . S
C980 C979 1.355 . S
C980 C982 1.419 . S
C981 C976 1.425 . S
C981 C978 1.409 . S
C981 C979 1.415 . S
C982 H972 0.930 . S
C982 C980 1.419 . S
C982 C983 1.362 . S
C983 H973 0.930 . S
C983 C976 1.409 . S
C983 C982 1.362 . S
H984 C990 0.930 . S
H985 C993 0.930 . S
H986 C994 0.930 . S
H987 C995 0.930 . S
H988 C998 0.930 . S
H989 C999 0.930 . S
C990 H984 0.930 . S
C990 C991 1.355 1_554 S
C990 C992 1.415 . S
C991 C990 1.355 1_556 S
C991 C993 1.419 . S
C992 C990 1.415 . S
C992 C997 1.425 . S
C992 C999 1.409 . S
C993 H985 0.930 . S
C993 C991 1.419 . S
C993 C994 1.362 . S
C994 H986 0.930 . S
C994 C993 1.362 . S
C994 C997 1.409 1_556 S
C995 H987 0.930 . S
C995 C996 1.355 . S
C995 C997 1.415 . S
C996 C995 1.355 . S
C996 C998 1.419 . S
C997 C992 1.425 . S
C997 C994 1.409 1_554 S
C997 C995 1.415 . S
C998 H988 0.930 . S
C998 C996 1.419 . S
C998 C999 1.362 . S
C999 H989 0.930 . S
C999 C992 1.409 . S
C999 C998 1.362 . S
H1000 C1006 0.930 . S
H1001 C1009 0.930 . S
H1002 C1010 0.930 . S
H1003 C1011 0.930 . S
H1004 C1014 0.930 . S
H1005 C1015 0.930 . S
C1006 H1000 0.930 . S
C1006 C1007 1.355 . S
C1006 C1008 1.415 . S
C1007 C1006 1.355 . S
C1007 C1009 1.419 . S
C1008 C1006 1.415 . S
C1008 C1013 1.425 . S
C1008 C1015 1.409 . S
C1009 H1001 0.930 . S
C1009 C1007 1.419 . S
C1009 C1010 1.362 . S
C1010 H1002 0.930 . S
C1010 C1009 1.362 . S
C1010 C1013 1.409 . S
C1011 H1003 0.930 . S
C1011 C1012 1.355 . S
C1011 C1013 1.415 . S
C1012 C1011 1.355 . S
C1012 C1014 1.419 . S
C1013 C1008 1.425 . S
C1013 C1010 1.409 . S
C1013 C1011 1.415 . S
C1014 H1004 0.930 . S
C1014 C1012 1.419 . S
C1014 C1015 1.362 . S
C1015 H1005 0.930 . S
C1015 C1008 1.409 . S
C1015 C1014 1.362 . S
H1016 C1022 0.930 . S
H1017 C1025 0.930 . S
H1018 C1026 0.930 . S
H1019 C1027 0.930 . S
H1020 C1030 0.930 . S
H1021 C1031 0.930 . S
C1022 H1016 0.930 . S
C1022 C1023 1.355 . S
C1022 C1024 1.415 . S
C1023 C1022 1.355 . S
C1023 C1025 1.419 . S
C1024 C1022 1.415 . S
C1024 C1029 1.425 . S
C1024 C1031 1.409 . S
C1025 H1017 0.930 . S
C1025 C1023 1.419 . S
C1025 C1026 1.362 . S
C1026 H1018 0.930 . S
C1026 C1025 1.362 . S
C1026 C1029 1.409 . S
C1027 H1019 0.930 . S
C1027 C1028 1.355 . S
C1027 C1029 1.415 . S
C1028 C1027 1.355 . S
C1028 C1030 1.419 . S
C1029 C1024 1.425 . S
C1029 C1026 1.409 . S
C1029 C1027 1.415 . S
C1030 H1020 0.930 . S
C1030 C1028 1.419 . S
C1030 C1031 1.362 . S
C1031 H1021 0.930 . S
C1031 C1024 1.409 . S
C1031 C1030 1.362 . S
H1032 C1038 0.930 . S
H1033 C1041 0.930 . S
H1034 C1042 0.930 . S
H1035 C1043 0.930 . S
H1036 C1046 0.930 . S
H1037 C1047 0.930 . S
C1038 H1032 0.930 . S
C1038 C1039 1.355 . S
C1038 C1040 1.415 . S
C1039 C1038 1.355 . S
C1039 C1041 1.419 . S
C1040 C1038 1.415 . S
C1040 C1045 1.425 . S
C1040 C1047 1.409 . S
C1041 H1033 0.930 . S
C1041 C1039 1.419 . S
C1041 C1042 1.362 . S
C1042 H1034 0.930 . S
C1042 C1041 1.362 . S
C1042 C1045 1.409 . S
C1043 H1035 0.930 . S
C1043 C1044 1.355 . S
C1043 C1045 1.415 . S
C1044 C1043 1.355 . S
C1044 C1046 1.419 . S
C1045 C1040 1.425 . S
C1045 C1042 1.409 . S
C1045 C1043 1.415 . S
C1046 H1036 0.930 . S
C1046 C1044 1.419 . S
C1046 C1047 1.362 . S
C1047 H1037 0.930 . S
C1047 C1040 1.409 . S
C1047 C1046 1.362 . S
H1048 C1054 0.930 . S
H1049 C1057 0.930 . S
H1050 C1058 0.930 . S
H1051 C1059 0.930 . S
H1052 C1062 0.930 . S
H1053 C1063 0.930 1_554 S
C1054 H1048 0.930 . S
C1054 C1055 1.352 1_554 S
C1054 C1056 1.415 1_554 S
C1055 C1054 1.352 1_556 S
C1055 C1057 1.428 . S
C1056 C1054 1.415 1_556 S
C1056 C1061 1.425 . S
C1056 C1063 1.409 . S
C1057 H1049 0.930 . S
C1057 C1055 1.428 . S
C1057 C1058 1.362 . S
C1058 H1050 0.930 . S
C1058 C1057 1.362 . S
C1058 C1061 1.409 . S
C1059 H1051 0.930 . S
C1059 C1060 1.355 . S
C1059 C1061 1.415 . S
C1060 C1059 1.355 . S
C1060 C1062 1.419 . S
C1061 C1056 1.425 . S
C1061 C1058 1.409 . S
C1061 C1059 1.415 . S
C1062 H1052 0.930 . S
C1062 C1060 1.419 . S
C1062 C1063 1.362 . S
C1063 H1053 0.930 1_556 S
C1063 C1056 1.409 . S
C1063 C1062 1.362 . S
H1064 C1070 0.930 . S
H1065 C1073 0.930 . S
H1066 C1074 0.930 . S
H1067 C1075 0.930 1_455 S
H1068 C1078 0.930 . S
H1069 C1079 0.930 . S
C1070 H1064 0.930 . S
C1070 C1071 1.355 . S
C1070 C1072 1.415 . S
C1071 C1070 1.355 . S
C1071 C1073 1.419 . S
C1072 C1070 1.415 . S
C1072 C1077 1.425 . S
C1072 C1079 1.409 . S
C1073 H1065 0.930 . S
C1073 C1071 1.419 . S
C1073 C1074 1.362 . S
C1074 H1066 0.930 . S
C1074 C1073 1.362 . S
C1074 C1077 1.409 . S
C1075 H1067 0.930 1_655 S
C1075 C1076 1.355 . S
C1075 C1077 1.415 . S
C1076 C1075 1.355 . S
C1076 C1078 1.419 . S
C1077 C1072 1.425 . S
C1077 C1074 1.409 . S
C1077 C1075 1.415 . S
C1078 H1068 0.930 . S
C1078 C1076 1.419 . S
C1078 C1079 1.362 . S
C1079 H1069 0.930 . S
C1079 C1072 1.409 . S
C1079 C1078 1.362 . S
C319 C117 1.272 . S
C324 C0 1.257 . S
C335 C13 1.165 . S
C340 C130 1.206 . S
C351 C26 1.214 . S
C356 C143 1.171 . S
C367 C39 1.141 . S
C372 C104 1.158 . S
C383 C52 1.150 . S
C388 C195 1.143 . S
C399 C156 1.227 . S
C404 C65 1.261 . S
C415 C78 1.258 . S
C420 C169 1.221 . S
C431 C182 1.272 . S
C436 C91 1.257 . S
C447 C208 1.271 . S
C452 C234 1.264 . S
C463 C286 1.272 . S
C468 C221 1.254 . S
C479 C247 1.163 . S
C484 C299 1.204 . S
C495 C273 1.161 . S
C500 C260 1.142 . S
C511 C268 1.557 . S
C516 C8 1.511 . S
C527 C21 1.511 . S
C532 C229 1.519 . S
C543 C34 1.497 . S
C548 C242 1.553 . S
C559 C47 1.496 . S
C564 C255 1.548 . S
C575 C60 1.557 . S
C580 C307 1.501 . S
C591 C281 1.512 . S
C596 C73 1.517 . S
C607 C294 1.533 . S
C612 C86 1.545 . S
C623 C216 1.535 . S
C628 C99 1.543 . S
C639 C203 1.557 . S
C644 C112 1.502 . S
C655 C125 1.548 . S
C660 C164 1.496 . S
C671 C177 1.556 . S
C676 C138 1.500 . S
C687 C190 1.558 . S
C692 C151 1.507 . S
C703 C5 0.892 . S
C708 C218 1.069 . S
C719 C309 1.085 1_565 S
C724 C18 0.845 . S
C735 C283 1.052 . S
C740 C31 1.024 . S
C751 C44 0.990 . S
C756 C296 1.050 1_554 S
C767 C57 0.889 . S
C772 C231 1.070 . S
C783 C244 1.108 1_556 S
C788 C70 0.946 . S
C799 C257 1.103 . S
C804 C83 0.842 . S
C815 C270 1.093 . S
C820 C96 1.002 . S
C831 C10 1.084 . S
C836 C109 1.021 . S
C847 C23 1.108 1_445 S
C852 C122 0.882 . S
C863 C36 1.113 . S
C868 C135 0.894 . S
C879 C49 1.088 1_565 S
C884 C148 1.014 . S
C895 C62 1.100 . S
C900 C161 0.979 . S
C911 C75 1.068 . S
C916 C174 0.896 . S
C927 C187 0.931 . S
C932 C88 1.110 . S
C943 C101 1.083 . S
C948 C200 0.857 . S
C959 C114 1.062 . S
C964 C213 1.039 . S
C975 C226 1.033 . S
C980 C166 1.076 . S
C991 C179 1.069 1_455 S
C996 C239 1.038 . S
C1007 C252 0.910 . S
C1012 C192 1.112 . S
C1023 C265 0.881 . S
C1028 C205 1.113 . S
C1039 C278 1.037 . S
C1044 C140 1.071 . S
C1055 C153 1.105 1_556 S
C1060 C291 0.877 . S
C1071 C304 1.040 . S
C1076 C127 1.065 1_655 S
