# Generated by pormake.
# Topology dmp, (4)-cn, num edge types: 1
# Building blocks:
#     Node 0, Type 0, BuildingBlock: KUFVIS_clean_sbu_0, # of connection points: 4
#     Node 1, Type 0, BuildingBlock: KUFVIS_clean_sbu_0, # of connection points: 4
#     Node 2, Type 0, BuildingBlock: KUFVIS_clean_sbu_0, # of connection points: 4
#     Node 3, Type 0, BuildingBlock: KUFVIS_clean_sbu_0, # of connection points: 4
#     Edge 4, Type (0, 0), BuildingBlock: MIFKUJ_clean_linker_0, # of connection points: 2
#     Edge 5, Type (0, 0), BuildingBlock: MIFKUJ_clean_linker_0, # of connection points: 2
#     Edge 6, Type (0, 0), BuildingBlock: MIFKUJ_clean_linker_0, # of connection points: 2
#     Edge 7, Type (0, 0), BuildingBlock: MIFKUJ_clean_linker_0, # of connection points: 2
#     Edge 8, Type (0, 0), BuildingBlock: MIFKUJ_clean_linker_0, # of connection points: 2
#     Edge 9, Type (0, 0), BuildingBlock: MIFKUJ_clean_linker_0, # of connection points: 2
#     Edge 10, Type (0, 0), BuildingBlock: MIFKUJ_clean_linker_0, # of connection points: 2
#     Edge 11, Type (0, 0), BuildingBlock: MIFKUJ_clean_linker_0, # of connection points: 2
# Relax obj value: 0.124
# Max RMSD: 0.220
# Mean RMSD: 0.220
data_MOF--net-dmp--node1-KUFVIS_clean_sbu_0--edge1-MIFKUJ_clean_linker_0
_symmetry_space_group_name_H-M    P1
_symmetry_Int_Tables_number       1
_symmetry_cell_setting            triclinic
loop_
_symmetry_equiv_pos_as_xyz
'x, y, z'
_cell_length_a     50.713431
_cell_length_b     24.040968
_cell_length_c     20.217089
_cell_angle_alpha  90.002529
_cell_angle_beta   90.040681
_cell_angle_gamma 94.821334
loop_
_atom_site_label
_atom_site_type_symbol
_atom_site_fract_x
_atom_site_fract_y
_atom_site_fract_z
_atom_type_partial_charge
Mn0 Mn 0.109 0.23096 0.32351 0.0
Mn1 Mn 0.14885 0.18708 0.20378 0.0
C2 C 0.14888 0.28057 0.301 0.0
C3 C 0.0748 0.28335 0.35793 0.0
C4 C 0.1475 0.14034 0.34224 0.0
O5 O 0.08402 0.17545 0.27312 0.0
O6 O 0.11325 0.14668 0.19979 0.0
C7 C 0.11923 0.23218 0.09225 0.0
N8 N 0.14242 0.22826 0.12531 0.0
C9 C 0.16627 0.28812 0.04641 0.0
C10 C 0.14269 0.29249 0.01128 0.0
C11 C 0.11904 0.26471 0.03459 0.0
C12 C 0.16518 0.25565 0.10399 0.0
H13 H 0.101 0.21083 0.1098 0.0
C14 C 0.09014 0.14459 0.22526 0.0
O15 O 0.08176 0.24149 0.39265 0.0
O16 O 0.0868 0.29275 0.30195 0.0
N17 N 0.18414 0.22168 0.19912 0.0
C18 C 0.20518 0.21326 0.23876 0.0
C19 C 0.2304 0.23743 0.22178 0.0
C20 C 0.23381 0.26932 0.16375 0.0
C21 C 0.21195 0.27714 0.12351 0.0
C22 C 0.18735 0.25133 0.14243 0.0
H23 H 0.20279 0.18766 0.28247 0.0
O24 O 0.13709 0.28595 0.35719 0.0
O25 O 0.13656 0.2476 0.25775 0.0
O26 O 0.12872 0.16749 0.36409 0.0
O27 O 0.15686 0.14506 0.2837 0.0
C28 C 0.21364 0.30925 0.06514 0.0
C29 C 0.19076 0.31511 0.02688 0.0
H30 H 0.14247 0.31736 0.96663 0.0
H31 H 0.10071 0.2683 0.00809 0.0
H32 H 0.24722 0.23071 0.25284 0.0
H33 H 0.25333 0.28693 0.14982 0.0
H34 H 0.2324 0.32992 0.04947 0.0
H35 H 0.19224 0.34038 0.98248 0.0
Mn36 Mn 0.38982 0.76657 0.32137 0.0
Mn37 Mn 0.35025 0.82008 0.20718 0.0
C38 C 0.34848 0.72303 0.3 0.0
C39 C 0.42271 0.70861 0.34984 0.0
C40 C 0.35603 0.86395 0.34707 0.0
O41 O 0.41546 0.82159 0.27148 0.0
O42 O 0.38717 0.85193 0.19646 0.0
C43 C 0.37296 0.76914 0.08907 0.0
N44 N 0.35165 0.77746 0.12767 0.0
C45 C 0.32247 0.72172 0.05531 0.0
C46 C 0.34408 0.71284 0.01452 0.0
C47 C 0.36944 0.73655 0.03159 0.0
C48 C 0.3272 0.75458 0.11194 0.0
H49 H 0.3925 0.78715 0.1021 0.0
C50 C 0.41025 0.85158 0.22181 0.0
O51 O 0.41744 0.75022 0.38722 0.0
O52 O 0.40993 0.7028 0.29435 0.0
N53 N 0.31373 0.79322 0.21064 0.0
C54 C 0.29508 0.80495 0.25595 0.0
C55 C 0.26866 0.78434 0.24617 0.0
C56 C 0.2617 0.75253 0.18963 0.0
C57 C 0.28113 0.74135 0.14349 0.0
C58 C 0.30708 0.76356 0.15542 0.0
H59 H 0.30031 0.82982 0.29921 0.0
O60 O 0.36079 0.71329 0.35442 0.0
O61 O 0.36115 0.75633 0.25783 0.0
O62 O 0.37236 0.83017 0.36759 0.0
O63 O 0.34719 0.86468 0.28795 0.0
C64 C 0.2758 0.70876 0.08635 0.0
C65 C 0.29649 0.69874 0.04242 0.0
H66 H 0.34145 0.68763 0.97022 0.0
H67 H 0.38623 0.72968 1.00052 0.0
H68 H 0.25367 0.7932 0.28185 0.0
H69 H 0.24137 0.73729 0.18171 0.0
H70 H 0.25592 0.69079 0.07605 0.0
H71 H 0.29222 0.67316 0.999 0.0
Mn72 Mn 0.89346 0.75433 0.68819 0.0
Mn73 Mn 0.85685 0.79296 0.81726 0.0
C74 C 0.85558 0.70078 0.71747 0.0
C75 C 0.92801 0.7066 0.64627 0.0
C76 C 0.85158 0.83984 0.68038 0.0
O77 O 0.91869 0.81266 0.73355 0.0
O78 O 0.89112 0.83836 0.81254 0.0
C79 C 0.89288 0.75269 0.9187 0.0
N80 N 0.8682 0.75233 0.89185 0.0
C81 C 0.85017 0.68845 0.97483 0.0
C82 C 0.87533 0.68832 0.00356 0.0
C83 C 0.89682 0.72023 0.97499 0.0
C84 C 0.84757 0.72045 0.91769 0.0
H85 H 0.90945 0.77759 0.8975 0.0
C86 C 0.91323 0.84329 0.78215 0.0
O87 O 0.91878 0.74724 0.61348 0.0
O88 O 0.91804 0.69583 0.70432 0.0
N89 N 0.82295 0.75368 0.83113 0.0
C90 C 0.79962 0.76174 0.80055 0.0
C91 C 0.77613 0.73296 0.82332 0.0
C92 C 0.77662 0.69889 0.87957 0.0
C93 C 0.80066 0.69333 0.91216 0.0
C94 C 0.82354 0.72174 0.88611 0.0
H95 H 0.799 0.78938 0.75855 0.0
O96 O 0.86593 0.69614 0.65942 0.0
O97 O 0.86843 0.73475 0.75882 0.0
O98 O 0.87032 0.81508 0.65381 0.0
O99 O 0.84432 0.83387 0.74072 0.0
C100 C 0.80269 0.66223 0.97071 0.0
C101 C 0.82747 0.65896 0.0014 0.0
H102 H 0.87835 0.66403 0.04764 0.0
H103 H 0.91633 0.72033 0.99677 0.0
H104 H 0.75763 0.73759 0.79815 0.0
H105 H 0.75834 0.67816 0.89802 0.0
H106 H 0.78529 0.64169 0.99355 0.0
H107 H 0.82874 0.63462 0.04621 0.0
Mn108 Mn 0.60005 0.22987 0.66378 0.0
Mn109 Mn 0.64448 0.20832 0.78408 0.0
C110 C 0.63771 0.28926 0.67485 0.0
C111 C 0.56266 0.27177 0.62835 0.0
C112 C 0.64269 0.14715 0.65347 0.0
O113 O 0.57899 0.17481 0.72402 0.0
O114 O 0.61077 0.16217 0.79888 0.0
C115 C 0.61522 0.259 0.89221 0.0
N116 N 0.63778 0.25671 0.8561 0.0
C117 C 0.66037 0.32976 0.92121 0.0
C118 C 0.63743 0.33269 0.95931 0.0
C119 C 0.61473 0.29732 0.94453 0.0
C120 C 0.65958 0.29123 0.86916 0.0
H121 H 0.59774 0.23182 0.88122 0.0
C122 C 0.58737 0.15183 0.77592 0.0
O123 O 0.57067 0.22886 0.59737 0.0
O124 O 0.5754 0.28767 0.68149 0.0
N125 N 0.67835 0.24976 0.77854 0.0
C126 C 0.69922 0.24008 0.73893 0.0
C127 C 0.72354 0.27173 0.74764 0.0
C128 C 0.7264 0.31186 0.79819 0.0
C129 C 0.70498 0.31951 0.84007 0.0
C130 C 0.68119 0.28695 0.82876 0.0
H131 H 0.69731 0.20856 0.70087 0.0
O132 O 0.62467 0.28684 0.61971 0.0
O133 O 0.62795 0.25833 0.7232 0.0
O134 O 0.62233 0.16791 0.62943 0.0
O135 O 0.65268 0.15951 0.71019 0.0
C136 C 0.70639 0.35779 0.893 0.0
C137 C 0.68402 0.36335 0.93308 0.0
H138 H 0.63703 0.36194 0.99998 0.0
H139 H 0.59692 0.29942 0.97359 0.0
H140 H 0.74007 0.26502 0.71566 0.0
H141 H 0.74518 0.33622 0.80474 0.0
H142 H 0.72459 0.38321 0.90335 0.0
H143 H 0.68529 0.39328 0.97326 0.0
H144 H 0.34823 0.97424 0.34335 0.0
H145 H 0.31115 0.01601 0.39593 0.0
H146 H 0.29183 0.86386 0.50464 0.0
H147 H 0.32969 0.8229 0.45456 0.0
H148 H 0.25724 0.90876 0.38359 0.0
H149 H 0.29261 0.94396 0.60055 0.0
H150 H 0.32614 0.98093 0.68113 0.0
H151 H 0.31857 0.14744 0.61107 0.0
H152 H 0.2853 0.11139 0.5293 0.0
H153 H 0.1378 0.03225 0.38453 0.0
H154 H 0.17062 0.97608 0.43602 0.0
H155 H 0.22572 0.12301 0.44759 0.0
H156 H 0.1924 0.17895 0.40139 0.0
H157 H 0.23823 0.06007 0.5386 0.0
H158 H 0.21692 0.03022 0.30655 0.0
H159 H 0.18912 0.00129 0.21036 0.0
H160 H 0.17663 0.83532 0.28936 0.0
H161 H 0.20394 0.86367 0.38674 0.0
C162 C 0.33709 0.95114 0.38163 0.0
C163 C 0.34189 0.89575 0.39559 0.0
C164 C 0.31589 0.97488 0.41149 0.0
C165 C 0.29889 0.94298 0.45426 0.0
C166 C 0.30504 0.88937 0.47268 0.0
C167 C 0.32674 0.86618 0.44429 0.0
C168 C 0.27197 0.96026 0.46465 0.0
C169 C 0.25266 0.94065 0.41885 0.0
C170 C 0.26661 0.00292 0.50928 0.0
C171 C 0.28658 0.02486 0.55844 0.0
C172 C 0.29828 0.9884 0.60185 0.0
C173 C 0.3172 0.00921 0.64787 0.0
C174 C 0.32452 0.06649 0.65115 0.0
C175 C 0.31289 0.10308 0.60848 0.0
C176 C 0.29396 0.08248 0.56236 0.0
C177 C 0.15653 0.05256 0.40109 0.0
C178 C 0.16285 0.10951 0.38898 0.0
C179 C 0.17539 0.02053 0.42974 0.0
C180 C 0.20105 0.04484 0.44375 0.0
C181 C 0.20624 0.10289 0.43713 0.0
C182 C 0.18724 0.13492 0.41034 0.0
C183 C 0.22365 0.01026 0.45541 0.0
C184 C 0.24226 0.0267 0.50493 0.0
C185 C 0.22894 0.96601 0.41219 0.0
C186 C 0.21198 0.94936 0.35454 0.0
C187 C 0.20797 0.98776 0.30377 0.0
C188 C 0.19233 0.97145 0.24902 0.0
C189 C 0.18098 0.91659 0.24395 0.0
C190 C 0.18528 0.8779 0.29358 0.0
C191 C 0.20077 0.8941 0.34865 0.0
H192 H 0.16895 0.904 0.20141 0.0
H193 H 0.33917 0.08252 0.68681 0.0
H194 H 0.15802 0.34493 0.19175 0.0
H195 H 0.19394 0.41807 0.17544 0.0
H196 H 0.22526 0.38124 0.36785 0.0
H197 H 0.19096 0.30473 0.38064 0.0
H198 H 0.19895 0.50676 0.23996 0.0
H199 H 0.27911 0.43007 0.4008 0.0
H200 H 0.30337 0.34749 0.42486 0.0
H201 H 0.29291 0.29261 0.2238 0.0
H202 H 0.26819 0.37478 0.19907 0.0
H203 H 0.30557 0.70754 0.37886 0.0
H204 H 0.26827 0.63693 0.36527 0.0
H205 H 0.299 0.59131 0.17588 0.0
H206 H 0.33715 0.65969 0.19127 0.0
H207 H 0.29425 0.51019 0.2955 0.0
H208 H 0.21579 0.58932 0.13374 0.0
H209 H 0.18881 0.66827 0.11219 0.0
H210 H 0.19672 0.71879 0.3155 0.0
H211 H 0.22306 0.63926 0.33838 0.0
C212 C 0.17352 0.35057 0.22861 0.0
C213 C 0.17248 0.31798 0.28611 0.0
C214 C 0.19381 0.39289 0.21989 0.0
C215 C 0.21274 0.40492 0.26991 0.0
C216 C 0.21174 0.37174 0.32721 0.0
C217 C 0.19189 0.32843 0.33499 0.0
C218 C 0.23083 0.45675 0.26643 0.0
C219 C 0.21991 0.50707 0.25087 0.0
C220 C 0.25798 0.4582 0.28309 0.0
C221 C 0.27135 0.40747 0.29849 0.0
C222 C 0.28175 0.39995 0.36201 0.0
C223 C 0.29553 0.35332 0.37577 0.0
C224 C 0.29941 0.3145 0.32601 0.0
C225 C 0.28953 0.32232 0.26245 0.0
C226 C 0.27542 0.36856 0.24869 0.0
C227 C 0.30378 0.68365 0.33338 0.0
C228 C 0.32362 0.68997 0.28503 0.0
C229 C 0.28229 0.64406 0.32519 0.0
C230 C 0.28034 0.61055 0.26837 0.0
C231 C 0.29974 0.61817 0.219 0.0
C232 C 0.32144 0.65715 0.22769 0.0
C233 C 0.26236 0.55924 0.26801 0.0
C234 C 0.27335 0.50929 0.28342 0.0
C235 C 0.23528 0.55832 0.25197 0.0
C236 C 0.22209 0.60946 0.23724 0.0
C237 C 0.21205 0.61777 0.17354 0.0
C238 C 0.19657 0.66217 0.16129 0.0
C239 C 0.19101 0.69849 0.21248 0.0
C240 C 0.20109 0.69071 0.27587 0.0
C241 C 0.21642 0.64615 0.28841 0.0
H242 H 0.17903 0.73283 0.20296 0.0
H243 H 0.31023 0.2786 0.33658 0.0
H244 H 0.68608 0.17933 0.5831 0.0
H245 H 0.72007 0.11931 0.54924 0.0
H246 H 0.66818 0.97394 0.60006 0.0
H247 H 0.63455 0.03476 0.63691 0.0
H248 H 0.71055 0.97452 0.66755 0.0
H249 H 0.69504 -0.00189 0.43829 0.0
H250 H 0.68735 0.04842 0.33476 0.0
H251 H 0.76379 0.13858 0.35209 0.0
H252 H 0.77182 0.08941 0.45626 0.0
H253 H 0.812 0.79692 0.60262 0.0
H254 H 0.77481 0.84649 0.56271 0.0
H255 H 0.81493 0.0027 0.6258 0.0
H256 H 0.85161 0.9526 0.66906 0.0
H257 H 0.77688 0.98665 0.48673 0.0
H258 H 0.78489 0.97881 0.73041 0.0
H259 H 0.79071 0.93092 0.83658 0.0
H260 H 0.72522 0.81236 0.79016 0.0
H261 H 0.71978 0.85825 0.68238 0.0
C262 C 0.68158 0.13445 0.58425 0.0
C263 C 0.65783 0.11132 0.61212 0.0
C264 C 0.70098 0.10006 0.56458 0.0
C265 C 0.69678 0.0419 0.57194 0.0
C266 C 0.67189 0.01867 0.59388 0.0
C267 C 0.6526 0.05324 0.61442 0.0
C268 C 0.71974 0.0073 0.57011 0.0
C269 C 0.72458 0.97624 0.62696 0.0
C270 C 0.73864 0.0106 0.51825 0.0
C271 C 0.73396 0.04021 0.45541 0.0
C272 C 0.71014 0.02894 0.42033 0.0
C273 C 0.70574 0.05722 0.36144 0.0
C274 C 0.72505 0.09672 0.33691 0.0
C275 C 0.74884 0.10795 0.37115 0.0
C276 C 0.75335 0.0798 0.43007 0.0
C277 C 0.81327 0.84202 0.60562 0.0
C278 C 0.83458 0.87123 0.63825 0.0
C279 C 0.79208 0.87023 0.58284 0.0
C280 C 0.79222 0.9281 0.5914 0.0
C281 C 0.81466 0.95803 0.61832 0.0
C282 C 0.83557 0.92956 0.64282 0.0
C283 C 0.7673 0.95516 0.5841 0.0
C284 C 0.76232 0.98451 0.5261 0.0
C285 C 0.7481 0.95058 0.63475 0.0
C286 C 0.75236 0.92111 0.69772 0.0
C287 C 0.7722 0.94165 0.74206 0.0
C288 C 0.77535 0.91504 0.80268 0.0
C289 C 0.7584 0.86853 0.82004 0.0
C290 C 0.73843 0.84822 0.77652 0.0
C291 C 0.73541 0.8743 0.71551 0.0
H292 H 0.7607 0.8483 0.86727 0.0
H293 H 0.7216 0.11858 0.29132 0.0
H294 H 0.80826 0.70945 0.66115 0.0
H295 H 0.76925 0.64364 0.66883 0.0
H296 H 0.81126 0.54251 0.8032 0.0
H297 H 0.84886 0.61307 0.80222 0.0
H298 H 0.76551 0.55247 0.6216 0.0
H299 H 0.78669 0.45579 0.85811 0.0
H300 H 0.79204 0.46392 0.97929 0.0
H301 H 0.7369 0.59003 0.98352 0.0
H302 H 0.73225 0.5842 0.86207 0.0
H303 H 0.68253 0.3011 0.60223 0.0
H304 H 0.71955 0.3725 0.61567 0.0
H305 H 0.6773 0.44755 0.77358 0.0
H306 H 0.64133 0.37363 0.76299 0.0
H307 H 0.72395 0.44635 0.80926 0.0
H308 H 0.68482 0.50318 0.60797 0.0
H309 H 0.66763 0.49209 0.49419 0.0
H310 H 0.74437 0.455 0.42577 0.0
H311 H 0.76193 0.46515 0.53939 0.0
C312 C 0.80853 0.67441 0.69468 0.0
C313 C 0.83102 0.66693 0.73265 0.0
C314 C 0.78637 0.63633 0.69866 0.0
C315 C 0.78694 0.5875 0.73682 0.0
C316 C 0.8095 0.58043 0.77558 0.0
C317 C 0.83123 0.62045 0.77438 0.0
C318 C 0.7655 0.54178 0.72791 0.0
C319 C 0.75639 0.52972 0.66312 0.0
C320 C 0.75354 0.5107 0.78098 0.0
C321 C 0.76005 0.52136 0.85111 0.0
C322 C 0.77644 0.48654 0.88485 0.0
C323 C 0.77924 0.49052 0.95351 0.0
C324 C 0.76498 0.52779 0.98905 0.0
C325 C 0.74813 0.56155 0.95588 0.0
C326 C 0.74581 0.55871 0.88706 0.0
C327 C 0.68144 0.33288 0.63991 0.0
C328 C 0.65979 0.33155 0.683 0.0
C329 C 0.70235 0.37394 0.64712 0.0
C330 C 0.70113 0.41588 0.69518 0.0
C331 C 0.67883 0.41544 0.73653 0.0
C332 C 0.65835 0.37338 0.73064 0.0
C333 C 0.72335 0.45929 0.70413 0.0
C334 C 0.73296 0.46973 0.76821 0.0
C335 C 0.73506 0.49016 0.65074 0.0
C336 C 0.72463 0.48442 0.58227 0.0
C337 C 0.69799 0.49232 0.56872 0.0
C338 C 0.68818 0.48624 0.50426 0.0
C339 C 0.70488 0.47272 0.4528 0.0
C340 C 0.73145 0.46541 0.46569 0.0
C341 C 0.74135 0.47137 0.5301 0.0
H342 H 0.69725 0.46802 0.40292 0.0
H343 H 0.7669 0.53038 0.04231 0.0
H344 H 0.09622 0.04562 0.16555 0.0
H345 H 0.06534 0.99479 0.09005 0.0
H346 H 0.00716 0.1114 0.13031 0.0
H347 H 0.03792 0.1618 0.20769 0.0
H348 H 0.98425 0.00649 0.11386 0.0
H349 H 0.04728 0.12914 0.99489 0.0
H350 H 0.09195 0.16899 0.96404 0.0
H351 H 0.11179 0.00809 0.89782 0.0
H352 H 0.06722 0.96712 0.92855 0.0
H353 H 0.90643 0.94429 0.83549 0.0
H354 H 0.93721 -0.00101 0.90791 0.0
H355 H 0.99654 0.88417 0.87123 0.0
H356 H 0.9659 0.83005 0.79683 0.0
H357 H 0.01861 0.99 0.88531 0.0
H358 H 0.95568 0.8672 0.00612 0.0
H359 H 0.91103 0.82753 0.03763 0.0
H360 H 0.89098 0.98919 0.10049 0.0
H361 H 0.93551 0.02997 0.06916 0.0
C362 C 0.07663 0.05971 0.15943 0.0
C363 C 0.0695 0.1079 0.19192 0.0
C364 C 0.05908 0.03087 0.11596 0.0
C365 C 0.03429 0.05035 0.10308 0.0
C366 C 0.02633 0.09603 0.13913 0.0
C367 C 0.04383 0.1246 0.18352 0.0
C368 C 0.0175 0.02501 0.04912 0.0
C369 C 0.99162 0.00356 0.06372 0.0
C370 C 0.02732 0.02033 0.98389 0.0
C371 C 0.054 0.045 0.9645 0.0
C372 C 0.06121 0.1022 0.97406 0.0
C373 C 0.08651 0.12499 0.9566 0.0
C374 C 0.10475 0.09108 0.92932 0.0
C375 C 0.09766 0.03431 0.91906 0.0
C376 C 0.07236 0.01129 0.93633 0.0
C377 C 0.92631 0.93165 0.84144 0.0
C378 C 0.9338 0.88283 0.81108 0.0
C379 C 0.94378 0.96263 0.88319 0.0
C380 C 0.96883 0.94462 0.89653 0.0
C381 C 0.97717 0.89846 0.86202 0.0
C382 C 0.95976 0.86777 0.81929 0.0
C383 C 0.98538 0.97134 0.95008 0.0
C384 C 0.01122 0.99304 0.93541 0.0
C385 C 0.97551 0.97628 0.01524 0.0
C386 C 0.94884 0.9517 0.03477 0.0
C387 C 0.9417 0.89434 0.02633 0.0
C388 C 0.91642 0.87165 0.04415 0.0
C389 C 0.89814 0.90583 0.07068 0.0
C390 C 0.90515 0.96277 0.07982 0.0
C391 C 0.93042 0.98568 0.06219 0.0
H392 H 0.87857 0.88816 0.08435 0.0
H393 H 0.12434 0.10883 0.91595 0.0
H394 H 0.60032 0.068 0.85667 0.0
H395 H 0.57157 0.01432 0.93456 0.0
H396 H 0.50472 0.09722 0.86454 0.0
H397 H 0.53346 0.15115 0.78573 0.0
H398 H 0.51217 0.10146 0.0033 0.0
H399 H 0.50735 0.96551 0.82825 0.0
H400 H 0.52534 0.90431 0.74469 0.0
H401 H 0.56498 0.8189 0.8971 0.0
H402 H 0.54751 0.88015 0.98155 0.0
H403 H 0.405 0.94331 0.14669 0.0
H404 H 0.43824 0.99336 0.07779 0.0
H405 H 0.49728 0.88951 0.15063 0.0
H406 H 0.46362 0.83807 0.2199 0.0
H407 H 0.49719 0.89513 0.01647 0.0
H408 H 0.5006 0.02604 0.19248 0.0
H409 H 0.48352 0.0871 0.27752 0.0
H410 H 0.44822 0.18238 0.12668 0.0
H411 H 0.46475 0.1214 0.04071 0.0
C412 C 0.57941 0.0742 0.85705 0.0
C413 C 0.56912 0.11388 0.81525 0.0
C414 C 0.56302 0.04339 0.90149 0.0
C415 C 0.53608 0.05191 0.90529 0.0
C416 C 0.52551 0.09016 0.86221 0.0
C417 C 0.54188 0.12058 0.81698 0.0
C418 C 0.51942 0.02348 0.95726 0.0
C419 C 0.50854 0.05638 0.00577 0.0
C420 C 0.51579 0.96465 0.96186 0.0
C421 C 0.52636 0.92784 0.91115 0.0
C422 C 0.52011 0.93405 0.8439 0.0
C423 C 0.53017 0.89926 0.79638 0.0
C424 C 0.54636 0.85785 0.81555 0.0
C425 C 0.55247 0.85105 0.88231 0.0
C426 C 0.54248 0.88576 0.93003 0.0
C427 C 0.42512 0.93142 0.14892 0.0
C428 C 0.43167 0.88649 0.18853 0.0
C429 C 0.44416 0.9604 0.10971 0.0
C430 C 0.47027 0.94544 0.10933 0.0
C431 C 0.47721 0.90177 0.1504 0.0
C432 C 0.45805 0.87271 0.19021 0.0
C433 C 0.48948 0.97314 0.06209 0.0
C434 C 0.50094 0.9402 0.01446 0.0
C435 C 0.49384 0.032 0.05857 0.0
C436 C 0.48377 0.06883 0.11012 0.0
C437 C 0.48901 0.05972 0.17743 0.0
C438 C 0.47946 0.09438 0.22581 0.0
C439 C 0.46475 0.13852 0.20752 0.0
C440 C 0.4596 0.14815 0.14078 0.0
C441 C 0.46909 0.11359 0.09218 0.0
H442 H 0.45738 0.16532 0.24506 0.0
H443 H 0.55411 0.83095 0.77869 0.0
H444 H 0.95005 0.61985 0.70527 0.0
H445 H 0.97592 0.55098 0.65336 0.0
H446 H 0.97429 0.63997 0.46828 0.0
H447 H 0.94782 0.7089 0.51992 0.0
H448 H 0.96098 0.53125 0.45036 0.0
H449 H 0.03165 0.63861 0.55894 0.0
H450 H 0.05514 0.68737 0.6518 0.0
H451 H 0.05488 0.53295 0.75859 0.0
H452 H 0.03107 0.48334 0.66672 0.0
H453 H 0.05592 0.37155 0.29368 0.0
H454 H 0.03078 0.44423 0.3408 0.0
H455 H 0.02737 0.35817 0.5282 0.0
H456 H 0.05277 0.28531 0.48144 0.0
H457 H 0.04418 0.46796 0.54186 0.0
H458 H 0.97243 0.3615 0.43285 0.0
H459 H 0.94923 0.31362 0.33898 0.0
H460 H 0.95224 0.468 0.23138 0.0
H461 H 0.97578 0.5167 0.3243 0.0
C462 C 0.95552 0.62539 0.65376 0.0
C463 C 0.94686 0.66989 0.6167 0.0
C464 C 0.97041 0.58596 0.62415 0.0
C465 C 0.97722 0.59039 0.55697 0.0
C466 C 0.96926 0.6357 0.52021 0.0
C467 C 0.95429 0.67525 0.54986 0.0
C468 C 0.99127 0.54583 0.52464 0.0
C469 C 0.97943 0.51808 0.46966 0.0
C470 C 0.01499 0.52767 0.55077 0.0
C471 C 0.02937 0.55734 0.60613 0.0
C472 C 0.03642 0.6151 0.60243 0.0
C473 C 0.04983 0.64289 0.65486 0.0
C474 C 0.05645 0.6133 0.71112 0.0
C475 C 0.04972 0.55582 0.715 0.0
C476 C 0.0363 0.52784 0.66273 0.0
C477 C 0.04946 0.36754 0.34464 0.0
C478 C 0.05636 0.32265 0.38386 0.0
C479 C 0.03504 0.40914 0.37148 0.0
C480 C 0.02715 0.40663 0.43801 0.0
C481 C 0.03331 0.36098 0.47676 0.0
C482 C 0.04767 0.31919 0.44986 0.0
C483 C 0.01378 0.45316 0.468 0.0
C484 C 0.02577 0.48129 0.52248 0.0
C485 C 0.99028 0.47182 0.44122 0.0
C486 C 0.97611 0.44263 0.38529 0.0
C487 C 0.96834 0.38515 0.38895 0.0
C488 C 0.95509 0.35788 0.33595 0.0
C489 C 0.94932 0.38772 0.27918 0.0
C490 C 0.95675 0.44493 0.27535 0.0
C491 C 0.97002 0.4724 0.32819 0.0
H492 H 0.93906 0.36653 0.23821 0.0
H493 H 0.06683 0.63488 0.75165 0.0
H494 H 0.43596 0.6163 0.28288 0.0
H495 H 0.45921 0.53899 0.32606 0.0
H496 H 0.47076 0.62509 0.51237 0.0
H497 H 0.44784 0.703 0.46919 0.0
H498 H 0.51415 0.57571 0.47812 0.0
H499 H 0.42088 0.52186 0.49129 0.0
H500 H 0.37534 0.5041 0.44889 0.0
H501 H 0.40092 0.38071 0.31522 0.0
H502 H 0.44672 0.39833 0.35617 0.0
H503 H 0.54062 0.35779 0.68828 0.0
H504 H 0.51549 0.42791 0.63603 0.0
H505 H 0.51509 0.33709 0.45208 0.0
H506 H 0.5404 0.26618 0.5043 0.0
H507 H 0.46685 0.38629 0.4792 0.0
H508 H 0.56022 0.43908 0.46981 0.0
H509 H 0.60519 0.45563 0.51613 0.0
H510 H 0.57869 0.58091 0.64583 0.0
H511 H 0.53344 0.56449 0.60096 0.0
C512 C 0.44378 0.61919 0.33274 0.0
C513 C 0.43994 0.66571 0.37274 0.0
C514 C 0.45689 0.57474 0.35751 0.0
C515 C 0.46626 0.57571 0.4229 0.0
C516 C 0.46357 0.62328 0.46187 0.0
C517 C 0.45049 0.66783 0.43709 0.0
C518 C 0.47823 0.52666 0.45134 0.0
C519 C 0.50368 0.53446 0.47887 0.0
C520 C 0.46481 0.47245 0.4511 0.0
C521 C 0.43729 0.46188 0.42628 0.0
C522 C 0.41685 0.4913 0.45243 0.0
C523 C 0.39098 0.48119 0.42874 0.0
C524 C 0.38525 0.44141 0.37926 0.0
C525 C 0.40539 0.41158 0.35346 0.0
C526 C 0.4313 0.4216 0.37691 0.0
C527 C 0.53475 0.35196 0.63705 0.0
C528 C 0.54275 0.3067 0.6002 0.0
C529 C 0.52045 0.39224 0.60722 0.0
C530 C 0.51393 0.38827 0.53989 0.0
C531 C 0.5201 0.34103 0.50406 0.0
C532 C 0.53449 0.30051 0.53398 0.0
C533 C 0.50256 0.43568 0.50637 0.0
C534 C 0.47731 0.42754 0.47794 0.0
C535 C 0.51609 0.48967 0.50593 0.0
C536 C 0.54338 0.50021 0.5324 0.0
C537 C 0.56393 0.46988 0.50853 0.0
C538 C 0.58949 0.47927 0.53448 0.0
C539 C 0.59479 0.5192 0.58399 0.0
C540 C 0.57455 0.54995 0.60751 0.0
C541 C 0.54895 0.54066 0.58179 0.0
H542 H 0.61458 0.52639 0.60404 0.0
H543 H 0.3652 0.43358 0.36104 0.0
loop_
_geom_bond_atom_site_label_1
_geom_bond_atom_site_label_2
_geom_bond_distance
_geom_bond_site_symmetry_2
_ccdc_geom_bond_type
Mn0 O5 2.095 . S
Mn0 O15 2.162 . S
Mn0 O16 2.297 . S
Mn0 O24 2.385 . S
Mn0 O25 2.209 . S
Mn0 O26 2.094 . S
Mn1 O6 2.121 . S
Mn1 N8 2.257 . S
Mn1 N17 2.282 . S
Mn1 O25 2.215 . S
Mn1 O27 2.117 . S
C2 O24 1.234 . S
C2 O25 1.283 . S
C3 O15 1.281 . S
C3 O16 1.236 . S
C4 O26 1.240 . S
C4 O27 1.264 . S
O5 Mn0 2.095 . S
O5 C14 1.250 . S
O6 Mn1 2.121 . S
O6 C14 1.258 . S
C7 N8 1.326 . S
C7 C11 1.460 1_554 S
C7 H13 0.929 . S
N8 Mn1 2.257 . S
N8 C7 1.326 . S
N8 C12 1.362 . S
C9 C10 1.258 1_554 S
C9 C12 1.431 . S
C9 C29 1.449 . S
C10 C9 1.258 1_556 S
C10 C11 1.477 . S
C10 H30 0.931 . S
C11 C7 1.460 1_556 S
C11 C10 1.477 . S
C11 H31 0.930 . S
C12 N8 1.362 . S
C12 C9 1.431 . S
C12 C22 1.476 . S
H13 C7 0.929 . S
C14 O5 1.250 . S
C14 O6 1.258 . S
O15 Mn0 2.162 . S
O15 C3 1.281 . S
O16 Mn0 2.297 . S
O16 C3 1.236 . S
N17 Mn1 2.282 . S
N17 C18 1.328 . S
N17 C22 1.318 . S
C18 N17 1.328 . S
C18 C19 1.457 . S
C18 H23 0.929 . S
C19 C18 1.457 . S
C19 C20 1.291 . S
C19 H32 0.931 . S
C20 C19 1.291 . S
C20 C21 1.373 . S
C20 H33 0.929 . S
C21 C20 1.373 . S
C21 C22 1.396 . S
C21 C28 1.403 . S
C22 C12 1.476 . S
C22 N17 1.318 . S
C22 C21 1.396 . S
H23 C18 0.929 . S
O24 Mn0 2.385 . S
O24 C2 1.234 . S
O25 Mn0 2.209 . S
O25 Mn1 2.215 . S
O25 C2 1.283 . S
O26 Mn0 2.094 . S
O26 C4 1.240 . S
O27 Mn1 2.117 . S
O27 C4 1.264 . S
C28 C21 1.403 . S
C28 C29 1.399 . S
C28 H34 0.929 . S
C29 C9 1.449 . S
C29 C28 1.399 . S
C29 H35 0.930 1_554 S
H30 C10 0.931 . S
H31 C11 0.930 . S
H32 C19 0.931 . S
H33 C20 0.929 . S
H34 C28 0.929 . S
H35 C29 0.930 1_556 S
Mn36 O41 2.095 . S
Mn36 O51 2.162 . S
Mn36 O52 2.297 . S
Mn36 O60 2.385 . S
Mn36 O61 2.209 . S
Mn36 O62 2.094 . S
Mn37 O42 2.121 . S
Mn37 N44 2.257 . S
Mn37 N53 2.282 . S
Mn37 O61 2.215 . S
Mn37 O63 2.117 . S
C38 O60 1.234 . S
C38 O61 1.283 . S
C39 O51 1.281 . S
C39 O52 1.236 . S
C40 O62 1.240 . S
C40 O63 1.264 . S
O41 Mn36 2.095 . S
O41 C50 1.250 . S
O42 Mn37 2.121 . S
O42 C50 1.258 . S
C43 N44 1.326 . S
C43 C47 1.460 1_554 S
C43 H49 0.929 . S
N44 Mn37 2.257 . S
N44 C43 1.326 . S
N44 C48 1.362 . S
C45 C46 1.258 1_554 S
C45 C48 1.431 . S
C45 C65 1.449 . S
C46 C45 1.258 1_556 S
C46 C47 1.477 . S
C46 H66 0.931 . S
C47 C43 1.460 1_556 S
C47 C46 1.477 . S
C47 H67 0.930 . S
C48 N44 1.362 . S
C48 C45 1.431 . S
C48 C58 1.476 . S
H49 C43 0.929 . S
C50 O41 1.250 . S
C50 O42 1.258 . S
O51 Mn36 2.162 . S
O51 C39 1.281 . S
O52 Mn36 2.297 . S
O52 C39 1.236 . S
N53 Mn37 2.282 . S
N53 C54 1.328 . S
N53 C58 1.318 . S
C54 N53 1.328 . S
C54 C55 1.457 . S
C54 H59 0.929 . S
C55 C54 1.457 . S
C55 C56 1.291 . S
C55 H68 0.931 . S
C56 C55 1.291 . S
C56 C57 1.373 . S
C56 H69 0.929 . S
C57 C56 1.373 . S
C57 C58 1.396 . S
C57 C64 1.403 . S
C58 C48 1.476 . S
C58 N53 1.318 . S
C58 C57 1.396 . S
H59 C54 0.929 . S
O60 Mn36 2.385 . S
O60 C38 1.234 . S
O61 Mn36 2.209 . S
O61 Mn37 2.215 . S
O61 C38 1.283 . S
O62 Mn36 2.094 . S
O62 C40 1.240 . S
O63 Mn37 2.117 . S
O63 C40 1.264 . S
C64 C57 1.403 . S
C64 C65 1.399 . S
C64 H70 0.929 . S
C65 C45 1.449 . S
C65 C64 1.399 . S
C65 H71 0.930 1_554 S
H66 C46 0.931 . S
H67 C47 0.930 . S
H68 C55 0.931 . S
H69 C56 0.929 . S
H70 C64 0.929 . S
H71 C65 0.930 1_556 S
Mn72 O77 2.095 . S
Mn72 O87 2.162 . S
Mn72 O88 2.297 . S
Mn72 O96 2.385 . S
Mn72 O97 2.209 . S
Mn72 O98 2.094 . S
Mn73 O78 2.121 . S
Mn73 N80 2.257 . S
Mn73 N89 2.282 . S
Mn73 O97 2.215 . S
Mn73 O99 2.117 . S
C74 O96 1.234 . S
C74 O97 1.283 . S
C75 O87 1.281 . S
C75 O88 1.236 . S
C76 O98 1.240 . S
C76 O99 1.264 . S
O77 Mn72 2.095 . S
O77 C86 1.250 . S
O78 Mn73 2.121 . S
O78 C86 1.258 . S
C79 N80 1.326 . S
C79 C83 1.460 1_556 S
C79 H85 0.929 . S
N80 Mn73 2.257 . S
N80 C79 1.326 . S
N80 C84 1.362 . S
C81 C82 1.258 1_556 S
C81 C84 1.431 . S
C81 C101 1.449 . S
C82 C81 1.258 1_554 S
C82 C83 1.477 . S
C82 H102 0.931 . S
C83 C79 1.460 1_554 S
C83 C82 1.477 . S
C83 H103 0.930 . S
C84 N80 1.362 . S
C84 C81 1.431 . S
C84 C94 1.476 . S
H85 C79 0.929 . S
C86 O77 1.250 . S
C86 O78 1.258 . S
O87 Mn72 2.162 . S
O87 C75 1.281 . S
O88 Mn72 2.297 . S
O88 C75 1.236 . S
N89 Mn73 2.282 . S
N89 C90 1.328 . S
N89 C94 1.318 . S
C90 N89 1.328 . S
C90 C91 1.457 . S
C90 H95 0.929 . S
C91 C90 1.457 . S
C91 C92 1.291 . S
C91 H104 0.931 . S
C92 C91 1.291 . S
C92 C93 1.373 . S
C92 H105 0.929 . S
C93 C92 1.373 . S
C93 C94 1.396 . S
C93 C100 1.403 . S
C94 C84 1.476 . S
C94 N89 1.318 . S
C94 C93 1.396 . S
H95 C90 0.929 . S
O96 Mn72 2.385 . S
O96 C74 1.234 . S
O97 Mn72 2.209 . S
O97 Mn73 2.215 . S
O97 C74 1.283 . S
O98 Mn72 2.094 . S
O98 C76 1.240 . S
O99 Mn73 2.117 . S
O99 C76 1.264 . S
C100 C93 1.403 . S
C100 C101 1.399 . S
C100 H106 0.929 . S
C101 C81 1.449 . S
C101 C100 1.399 . S
C101 H107 0.930 1_556 S
H102 C82 0.931 . S
H103 C83 0.930 . S
H104 C91 0.931 . S
H105 C92 0.929 . S
H106 C100 0.929 . S
H107 C101 0.930 1_554 S
Mn108 O113 2.095 . S
Mn108 O123 2.162 . S
Mn108 O124 2.297 . S
Mn108 O132 2.385 . S
Mn108 O133 2.209 . S
Mn108 O134 2.094 . S
Mn109 O114 2.121 . S
Mn109 N116 2.257 . S
Mn109 N125 2.282 . S
Mn109 O133 2.215 . S
Mn109 O135 2.117 . S
C110 O132 1.234 . S
C110 O133 1.283 . S
C111 O123 1.281 . S
C111 O124 1.236 . S
C112 O134 1.240 . S
C112 O135 1.264 . S
O113 Mn108 2.095 . S
O113 C122 1.250 . S
O114 Mn109 2.121 . S
O114 C122 1.258 . S
C115 N116 1.326 . S
C115 C119 1.460 1_556 S
C115 H121 0.929 . S
N116 Mn109 2.257 . S
N116 C115 1.326 . S
N116 C120 1.362 . S
C117 C118 1.258 1_556 S
C117 C120 1.431 . S
C117 C137 1.449 . S
C118 C117 1.258 1_554 S
C118 C119 1.477 . S
C118 H138 0.931 . S
C119 C115 1.460 1_554 S
C119 C118 1.477 . S
C119 H139 0.930 . S
C120 N116 1.362 . S
C120 C117 1.431 . S
C120 C130 1.476 . S
H121 C115 0.929 . S
C122 O113 1.250 . S
C122 O114 1.258 . S
O123 Mn108 2.162 . S
O123 C111 1.281 . S
O124 Mn108 2.297 . S
O124 C111 1.236 . S
N125 Mn109 2.282 . S
N125 C126 1.328 . S
N125 C130 1.318 . S
C126 N125 1.328 . S
C126 C127 1.457 . S
C126 H131 0.929 . S
C127 C126 1.457 . S
C127 C128 1.291 . S
C127 H140 0.931 . S
C128 C127 1.291 . S
C128 C129 1.373 . S
C128 H141 0.929 . S
C129 C128 1.373 . S
C129 C130 1.396 . S
C129 C136 1.403 . S
C130 C120 1.476 . S
C130 N125 1.318 . S
C130 C129 1.396 . S
H131 C126 0.929 . S
O132 Mn108 2.385 . S
O132 C110 1.234 . S
O133 Mn108 2.209 . S
O133 Mn109 2.215 . S
O133 C110 1.283 . S
O134 Mn108 2.094 . S
O134 C112 1.240 . S
O135 Mn109 2.117 . S
O135 C112 1.264 . S
C136 C129 1.403 . S
C136 C137 1.399 . S
C136 H142 0.929 . S
C137 C117 1.449 . S
C137 C136 1.399 . S
C137 H143 0.930 1_556 S
H138 C118 0.931 . S
H139 C119 0.930 . S
H140 C127 0.931 . S
H141 C128 0.929 . S
H142 C136 0.929 . S
H143 C137 0.930 1_554 S
H144 C162 0.951 . S
H145 C164 0.951 . S
H146 C166 0.950 . S
H147 C167 0.950 . S
H148 C169 0.950 . S
H149 C172 0.950 1_565 S
H150 C173 0.950 . S
H151 C175 0.950 . S
H152 C176 0.950 . S
H153 C177 0.951 . S
H154 C179 0.951 . S
H155 C181 0.950 . S
H156 C182 0.950 . S
H157 C184 0.950 . S
H158 C187 0.950 1_545 S
H159 C188 0.950 . S
H160 C190 0.950 . S
H161 C191 0.950 . S
C162 H144 0.951 . S
C162 C163 1.366 . S
C162 C164 1.388 . S
C163 C162 1.366 . S
C163 C167 1.385 . S
C164 H145 0.951 . S
C164 C162 1.388 . S
C164 C165 1.366 . S
C165 C164 1.366 . S
C165 C166 1.414 . S
C165 C168 1.499 . S
C166 H146 0.950 . S
C166 C165 1.414 . S
C166 C167 1.374 . S
C167 H147 0.950 . S
C167 C163 1.385 . S
C167 C166 1.374 . S
C168 C165 1.499 . S
C168 C169 1.373 . S
C168 C170 1.389 1_565 S
C169 H148 0.950 . S
C169 C168 1.373 . S
C169 C185 1.377 . S
C170 C168 1.389 1_545 S
C170 C171 1.524 . S
C170 C184 1.377 . S
C171 C170 1.524 . S
C171 C172 1.397 . S
C171 C176 1.363 . S
C172 H149 0.950 1_545 S
C172 C171 1.397 . S
C172 C173 1.334 . S
C173 H150 0.950 . S
C173 C172 1.334 . S
C173 C174 1.287 . S
C174 C173 1.287 . S
C174 C175 1.524 . S
C174 H193 0.913 . S
C175 H151 0.950 . S
C175 C174 1.524 . S
C175 C176 1.415 . S
C176 H152 0.950 . S
C176 C171 1.363 . S
C176 C175 1.415 . S
C177 H153 0.951 . S
C177 C178 1.366 . S
C177 C179 1.388 . S
C178 C177 1.366 . S
C178 C182 1.385 . S
C179 H154 0.951 . S
C179 C177 1.388 . S
C179 C180 1.366 . S
C180 C179 1.366 . S
C180 C181 1.414 . S
C180 C183 1.499 . S
C181 H155 0.950 . S
C181 C180 1.414 . S
C181 C182 1.374 . S
C182 H156 0.950 . S
C182 C178 1.385 . S
C182 C181 1.374 . S
C183 C180 1.499 . S
C183 C184 1.373 . S
C183 C185 1.389 1_545 S
C184 H157 0.950 . S
C184 C170 1.377 . S
C184 C183 1.373 . S
C185 C169 1.377 . S
C185 C183 1.389 1_565 S
C185 C186 1.524 . S
C186 C185 1.524 . S
C186 C187 1.397 . S
C186 C191 1.363 . S
C187 H158 0.950 1_565 S
C187 C186 1.397 . S
C187 C188 1.334 . S
C188 H159 0.950 . S
C188 C187 1.334 . S
C188 C189 1.287 . S
C189 C188 1.287 . S
C189 C190 1.524 . S
C189 H192 0.999 . S
C190 H160 0.950 . S
C190 C189 1.524 . S
C190 C191 1.415 . S
C191 H161 0.950 . S
C191 C186 1.363 . S
C191 C190 1.415 . S
H192 C189 0.999 . S
H193 C174 0.913 . S
H194 C212 0.951 . S
H195 C214 0.951 . S
H196 C216 0.950 . S
H197 C217 0.950 . S
H198 C219 0.950 . S
H199 C222 0.950 . S
H200 C223 0.950 . S
H201 C225 0.950 . S
H202 C226 0.950 . S
H203 C227 0.951 . S
H204 C229 0.951 . S
H205 C231 0.950 . S
H206 C232 0.950 . S
H207 C234 0.950 . S
H208 C237 0.950 . S
H209 C238 0.950 . S
H210 C240 0.950 . S
H211 C241 0.950 . S
C212 H194 0.951 . S
C212 C213 1.366 . S
C212 C214 1.388 . S
C213 C212 1.366 . S
C213 C217 1.385 . S
C214 H195 0.951 . S
C214 C212 1.388 . S
C214 C215 1.366 . S
C215 C214 1.366 . S
C215 C216 1.414 . S
C215 C218 1.499 . S
C216 H196 0.950 . S
C216 C215 1.414 . S
C216 C217 1.374 . S
C217 H197 0.950 . S
C217 C213 1.385 . S
C217 C216 1.374 . S
C218 C215 1.499 . S
C218 C219 1.373 . S
C218 C220 1.389 . S
C219 H198 0.950 . S
C219 C218 1.373 . S
C219 C235 1.377 . S
C220 C218 1.389 . S
C220 C221 1.524 . S
C220 C234 1.377 . S
C221 C220 1.524 . S
C221 C222 1.397 . S
C221 C226 1.363 . S
C222 H199 0.950 . S
C222 C221 1.397 . S
C222 C223 1.334 . S
C223 H200 0.950 . S
C223 C222 1.334 . S
C223 C224 1.287 . S
C224 C223 1.287 . S
C224 C225 1.524 . S
C224 H243 0.913 . S
C225 H201 0.950 . S
C225 C224 1.524 . S
C225 C226 1.415 . S
C226 H202 0.950 . S
C226 C221 1.363 . S
C226 C225 1.415 . S
C227 H203 0.951 . S
C227 C228 1.366 . S
C227 C229 1.388 . S
C228 C227 1.366 . S
C228 C232 1.385 . S
C229 H204 0.951 . S
C229 C227 1.388 . S
C229 C230 1.366 . S
C230 C229 1.366 . S
C230 C231 1.414 . S
C230 C233 1.499 . S
C231 H205 0.950 . S
C231 C230 1.414 . S
C231 C232 1.374 . S
C232 H206 0.950 . S
C232 C228 1.385 . S
C232 C231 1.374 . S
C233 C230 1.499 . S
C233 C234 1.373 . S
C233 C235 1.389 . S
C234 H207 0.950 . S
C234 C220 1.377 . S
C234 C233 1.373 . S
C235 C219 1.377 . S
C235 C233 1.389 . S
C235 C236 1.524 . S
C236 C235 1.524 . S
C236 C237 1.397 . S
C236 C241 1.363 . S
C237 H208 0.950 . S
C237 C236 1.397 . S
C237 C238 1.334 . S
C238 H209 0.950 . S
C238 C237 1.334 . S
C238 C239 1.287 . S
C239 C238 1.287 . S
C239 C240 1.524 . S
C239 H242 0.999 . S
C240 H210 0.950 . S
C240 C239 1.524 . S
C240 C241 1.415 . S
C241 H211 0.950 . S
C241 C236 1.363 . S
C241 C240 1.415 . S
H242 C239 0.999 . S
H243 C224 0.913 . S
H244 C262 0.951 . S
H245 C264 0.951 . S
H246 C266 0.950 1_565 S
H247 C267 0.950 . S
H248 C269 0.950 . S
H249 C272 0.950 . S
H250 C273 0.950 . S
H251 C275 0.950 . S
H252 C276 0.950 . S
H253 C277 0.951 . S
H254 C279 0.951 . S
H255 C281 0.950 1_545 S
H256 C282 0.950 . S
H257 C284 0.950 . S
H258 C287 0.950 . S
H259 C288 0.950 . S
H260 C290 0.950 . S
H261 C291 0.950 . S
C262 H244 0.951 . S
C262 C263 1.366 . S
C262 C264 1.388 . S
C263 C262 1.366 . S
C263 C267 1.385 . S
C264 H245 0.951 . S
C264 C262 1.388 . S
C264 C265 1.366 . S
C265 C264 1.366 . S
C265 C266 1.414 . S
C265 C268 1.499 . S
C266 H246 0.950 1_545 S
C266 C265 1.414 . S
C266 C267 1.374 . S
C267 H247 0.950 . S
C267 C263 1.385 . S
C267 C266 1.374 . S
C268 C265 1.499 . S
C268 C269 1.373 1_545 S
C268 C270 1.389 . S
C269 H248 0.950 . S
C269 C268 1.373 1_565 S
C269 C285 1.377 . S
C270 C268 1.389 . S
C270 C271 1.524 . S
C270 C284 1.377 . S
C271 C270 1.524 . S
C271 C272 1.397 . S
C271 C276 1.363 . S
C272 H249 0.950 . S
C272 C271 1.397 . S
C272 C273 1.334 . S
C273 H250 0.950 . S
C273 C272 1.334 . S
C273 C274 1.287 . S
C274 C273 1.287 . S
C274 C275 1.524 . S
C274 H293 0.913 . S
C275 H251 0.950 . S
C275 C274 1.524 . S
C275 C276 1.415 . S
C276 H252 0.950 . S
C276 C271 1.363 . S
C276 C275 1.415 . S
C277 H253 0.951 . S
C277 C278 1.366 . S
C277 C279 1.388 . S
C278 C277 1.366 . S
C278 C282 1.385 . S
C279 H254 0.951 . S
C279 C277 1.388 . S
C279 C280 1.366 . S
C280 C279 1.366 . S
C280 C281 1.414 . S
C280 C283 1.499 . S
C281 H255 0.950 1_565 S
C281 C280 1.414 . S
C281 C282 1.374 . S
C282 H256 0.950 . S
C282 C278 1.385 . S
C282 C281 1.374 . S
C283 C280 1.499 . S
C283 C284 1.373 1_565 S
C283 C285 1.389 . S
C284 H257 0.950 . S
C284 C270 1.377 . S
C284 C283 1.373 1_545 S
C285 C269 1.377 . S
C285 C283 1.389 . S
C285 C286 1.524 . S
C286 C285 1.524 . S
C286 C287 1.397 . S
C286 C291 1.363 . S
C287 H258 0.950 . S
C287 C286 1.397 . S
C287 C288 1.334 . S
C288 H259 0.950 . S
C288 C287 1.334 . S
C288 C289 1.287 . S
C289 C288 1.287 . S
C289 C290 1.524 . S
C289 H292 0.999 . S
C290 H260 0.950 . S
C290 C289 1.524 . S
C290 C291 1.415 . S
C291 H261 0.950 . S
C291 C286 1.363 . S
C291 C290 1.415 . S
H292 C289 0.999 . S
H293 C274 0.913 . S
H294 C312 0.951 . S
H295 C314 0.951 . S
H296 C316 0.950 . S
H297 C317 0.950 . S
H298 C319 0.950 . S
H299 C322 0.950 . S
H300 C323 0.950 . S
H301 C325 0.950 . S
H302 C326 0.950 . S
H303 C327 0.951 . S
H304 C329 0.951 . S
H305 C331 0.950 . S
H306 C332 0.950 . S
H307 C334 0.950 . S
H308 C337 0.950 . S
H309 C338 0.950 . S
H310 C340 0.950 . S
H311 C341 0.950 . S
C312 H294 0.951 . S
C312 C313 1.366 . S
C312 C314 1.388 . S
C313 C312 1.366 . S
C313 C317 1.385 . S
C314 H295 0.951 . S
C314 C312 1.388 . S
C314 C315 1.366 . S
C315 C314 1.366 . S
C315 C316 1.414 . S
C315 C318 1.499 . S
C316 H296 0.950 . S
C316 C315 1.414 . S
C316 C317 1.374 . S
C317 H297 0.950 . S
C317 C313 1.385 . S
C317 C316 1.374 . S
C318 C315 1.499 . S
C318 C319 1.373 . S
C318 C320 1.389 . S
C319 H298 0.950 . S
C319 C318 1.373 . S
C319 C335 1.377 . S
C320 C318 1.389 . S
C320 C321 1.524 . S
C320 C334 1.377 . S
C321 C320 1.524 . S
C321 C322 1.397 . S
C321 C326 1.363 . S
C322 H299 0.950 . S
C322 C321 1.397 . S
C322 C323 1.334 . S
C323 H300 0.950 . S
C323 C322 1.334 . S
C323 C324 1.287 . S
C324 C323 1.287 . S
C324 C325 1.524 . S
C324 H343 0.913 1_556 S
C325 H301 0.950 . S
C325 C324 1.524 . S
C325 C326 1.415 . S
C326 H302 0.950 . S
C326 C321 1.363 . S
C326 C325 1.415 . S
C327 H303 0.951 . S
C327 C328 1.366 . S
C327 C329 1.388 . S
C328 C327 1.366 . S
C328 C332 1.385 . S
C329 H304 0.951 . S
C329 C327 1.388 . S
C329 C330 1.366 . S
C330 C329 1.366 . S
C330 C331 1.414 . S
C330 C333 1.499 . S
C331 H305 0.950 . S
C331 C330 1.414 . S
C331 C332 1.374 . S
C332 H306 0.950 . S
C332 C328 1.385 . S
C332 C331 1.374 . S
C333 C330 1.499 . S
C333 C334 1.373 . S
C333 C335 1.389 . S
C334 H307 0.950 . S
C334 C320 1.377 . S
C334 C333 1.373 . S
C335 C319 1.377 . S
C335 C333 1.389 . S
C335 C336 1.524 . S
C336 C335 1.524 . S
C336 C337 1.397 . S
C336 C341 1.363 . S
C337 H308 0.950 . S
C337 C336 1.397 . S
C337 C338 1.334 . S
C338 H309 0.950 . S
C338 C337 1.334 . S
C338 C339 1.287 . S
C339 C338 1.287 . S
C339 C340 1.524 . S
C339 H342 0.999 . S
C340 H310 0.950 . S
C340 C339 1.524 . S
C340 C341 1.415 . S
C341 H311 0.950 . S
C341 C336 1.363 . S
C341 C340 1.415 . S
H342 C339 0.999 . S
H343 C324 0.913 1_554 S
H344 C362 0.951 . S
H345 C364 0.951 . S
H346 C366 0.950 . S
H347 C367 0.950 . S
H348 C369 0.950 . S
H349 C372 0.950 . S
H350 C373 0.950 . S
H351 C375 0.950 1_565 S
H352 C376 0.950 . S
H353 C377 0.951 . S
H354 C379 0.951 . S
H355 C381 0.950 . S
H356 C382 0.950 . S
H357 C384 0.950 . S
H358 C387 0.950 . S
H359 C388 0.950 . S
H360 C390 0.950 1_545 S
H361 C391 0.950 . S
C362 H344 0.951 . S
C362 C363 1.366 . S
C362 C364 1.388 . S
C363 C362 1.366 . S
C363 C367 1.385 . S
C364 H345 0.951 . S
C364 C362 1.388 . S
C364 C365 1.366 . S
C365 C364 1.366 . S
C365 C366 1.414 . S
C365 C368 1.499 . S
C366 H346 0.950 . S
C366 C365 1.414 . S
C366 C367 1.374 . S
C367 H347 0.950 . S
C367 C363 1.385 . S
C367 C366 1.374 . S
C368 C365 1.499 . S
C368 C369 1.373 1_455 S
C368 C370 1.389 1_554 S
C369 H348 0.950 . S
C369 C368 1.373 1_655 S
C369 C385 1.377 1_545 S
C370 C368 1.389 1_556 S
C370 C371 1.524 . S
C370 C384 1.377 1_545 S
C371 C370 1.524 . S
C371 C372 1.397 . S
C371 C376 1.363 1_545 S
C372 H349 0.950 . S
C372 C371 1.397 . S
C372 C373 1.334 . S
C373 H350 0.950 . S
C373 C372 1.334 . S
C373 C374 1.287 . S
C374 C373 1.287 . S
C374 C375 1.524 . S
C374 H393 0.913 . S
C375 H351 0.950 1_545 S
C375 C374 1.524 . S
C375 C376 1.415 1_545 S
C376 H352 0.950 . S
C376 C371 1.363 1_565 S
C376 C375 1.415 1_565 S
C377 H353 0.951 . S
C377 C378 1.366 . S
C377 C379 1.388 . S
C378 C377 1.366 . S
C378 C382 1.385 . S
C379 H354 0.951 . S
C379 C377 1.388 . S
C379 C380 1.366 . S
C380 C379 1.366 . S
C380 C381 1.414 . S
C380 C383 1.499 . S
C381 H355 0.950 . S
C381 C380 1.414 . S
C381 C382 1.374 . S
C382 H356 0.950 . S
C382 C378 1.385 . S
C382 C381 1.374 . S
C383 C380 1.499 . S
C383 C384 1.373 1_655 S
C383 C385 1.389 1_556 S
C384 H357 0.950 . S
C384 C370 1.377 1_565 S
C384 C383 1.373 1_455 S
C385 C369 1.377 1_565 S
C385 C383 1.389 1_554 S
C385 C386 1.524 . S
C386 C385 1.524 . S
C386 C387 1.397 . S
C386 C391 1.363 1_565 S
C387 H358 0.950 . S
C387 C386 1.397 . S
C387 C388 1.334 . S
C388 H359 0.950 . S
C388 C387 1.334 . S
C388 C389 1.287 . S
C389 C388 1.287 . S
C389 C390 1.524 . S
C389 H392 0.999 . S
C390 H360 0.950 1_565 S
C390 C389 1.524 . S
C390 C391 1.415 1_565 S
C391 H361 0.950 . S
C391 C386 1.363 1_545 S
C391 C390 1.415 1_545 S
H392 C389 0.999 . S
H393 C374 0.913 . S
H394 C412 0.951 . S
H395 C414 0.951 . S
H396 C416 0.950 . S
H397 C417 0.950 . S
H398 C419 0.950 . S
H399 C422 0.950 1_545 S
H400 C423 0.950 . S
H401 C425 0.950 . S
H402 C426 0.950 . S
H403 C427 0.951 . S
H404 C429 0.951 . S
H405 C431 0.950 . S
H406 C432 0.950 . S
H407 C434 0.950 . S
H408 C437 0.950 1_565 S
H409 C438 0.950 . S
H410 C440 0.950 . S
H411 C441 0.950 . S
C412 H394 0.951 . S
C412 C413 1.366 . S
C412 C414 1.388 . S
C413 C412 1.366 . S
C413 C417 1.385 . S
C414 H395 0.951 . S
C414 C412 1.388 . S
C414 C415 1.366 . S
C415 C414 1.366 . S
C415 C416 1.414 . S
C415 C418 1.499 . S
C416 H396 0.950 . S
C416 C415 1.414 . S
C416 C417 1.374 . S
C417 H397 0.950 . S
C417 C413 1.385 . S
C417 C416 1.374 . S
C418 C415 1.499 . S
C418 C419 1.373 1_556 S
C418 C420 1.389 1_545 S
C419 H398 0.950 . S
C419 C418 1.373 1_554 S
C419 C435 1.377 . S
C420 C418 1.389 1_565 S
C420 C421 1.524 . S
C420 C434 1.377 . S
C421 C420 1.524 . S
C421 C422 1.397 . S
C421 C426 1.363 . S
C422 H399 0.950 1_565 S
C422 C421 1.397 . S
C422 C423 1.334 . S
C423 H400 0.950 . S
C423 C422 1.334 . S
C423 C424 1.287 . S
C424 C423 1.287 . S
C424 C425 1.524 . S
C424 H443 0.913 . S
C425 H401 0.950 . S
C425 C424 1.524 . S
C425 C426 1.415 . S
C426 H402 0.950 . S
C426 C421 1.363 . S
C426 C425 1.415 . S
C427 H403 0.951 . S
C427 C428 1.366 . S
C427 C429 1.388 . S
C428 C427 1.366 . S
C428 C432 1.385 . S
C429 H404 0.951 . S
C429 C427 1.388 . S
C429 C430 1.366 . S
C430 C429 1.366 . S
C430 C431 1.414 . S
C430 C433 1.499 . S
C431 H405 0.950 . S
C431 C430 1.414 . S
C431 C432 1.374 . S
C432 H406 0.950 . S
C432 C428 1.385 . S
C432 C431 1.374 . S
C433 C430 1.499 . S
C433 C434 1.373 1_554 S
C433 C435 1.389 1_565 S
C434 H407 0.950 . S
C434 C420 1.377 . S
C434 C433 1.373 1_556 S
C435 C419 1.377 . S
C435 C433 1.389 1_545 S
C435 C436 1.524 . S
C436 C435 1.524 . S
C436 C437 1.397 . S
C436 C441 1.363 . S
C437 H408 0.950 1_545 S
C437 C436 1.397 . S
C437 C438 1.334 . S
C438 H409 0.950 . S
C438 C437 1.334 . S
C438 C439 1.287 . S
C439 C438 1.287 . S
C439 C440 1.524 . S
C439 H442 0.999 . S
C440 H410 0.950 . S
C440 C439 1.524 . S
C440 C441 1.415 . S
C441 H411 0.950 . S
C441 C436 1.363 . S
C441 C440 1.415 . S
H442 C439 0.999 . S
H443 C424 0.913 . S
H444 C462 0.951 . S
H445 C464 0.951 . S
H446 C466 0.950 . S
H447 C467 0.950 . S
H448 C469 0.950 . S
H449 C472 0.950 . S
H450 C473 0.950 . S
H451 C475 0.950 . S
H452 C476 0.950 . S
H453 C477 0.951 . S
H454 C479 0.951 . S
H455 C481 0.950 . S
H456 C482 0.950 . S
H457 C484 0.950 . S
H458 C487 0.950 . S
H459 C488 0.950 . S
H460 C490 0.950 . S
H461 C491 0.950 . S
C462 H444 0.951 . S
C462 C463 1.366 . S
C462 C464 1.388 . S
C463 C462 1.366 . S
C463 C467 1.385 . S
C464 H445 0.951 . S
C464 C462 1.388 . S
C464 C465 1.366 . S
C465 C464 1.366 . S
C465 C466 1.414 . S
C465 C468 1.499 . S
C466 H446 0.950 . S
C466 C465 1.414 . S
C466 C467 1.374 . S
C467 H447 0.950 . S
C467 C463 1.385 . S
C467 C466 1.374 . S
C468 C465 1.499 . S
C468 C469 1.373 . S
C468 C470 1.389 1_655 S
C469 H448 0.950 . S
C469 C468 1.373 . S
C469 C485 1.377 . S
C470 C468 1.389 1_455 S
C470 C471 1.524 . S
C470 C484 1.377 . S
C471 C470 1.524 . S
C471 C472 1.397 . S
C471 C476 1.363 . S
C472 H449 0.950 . S
C472 C471 1.397 . S
C472 C473 1.334 . S
C473 H450 0.950 . S
C473 C472 1.334 . S
C473 C474 1.287 . S
C474 C473 1.287 . S
C474 C475 1.524 . S
C474 H493 0.913 . S
C475 H451 0.950 . S
C475 C474 1.524 . S
C475 C476 1.415 . S
C476 H452 0.950 . S
C476 C471 1.363 . S
C476 C475 1.415 . S
C477 H453 0.951 . S
C477 C478 1.366 . S
C477 C479 1.388 . S
C478 C477 1.366 . S
C478 C482 1.385 . S
C479 H454 0.951 . S
C479 C477 1.388 . S
C479 C480 1.366 . S
C480 C479 1.366 . S
C480 C481 1.414 . S
C480 C483 1.499 . S
C481 H455 0.950 . S
C481 C480 1.414 . S
C481 C482 1.374 . S
C482 H456 0.950 . S
C482 C478 1.385 . S
C482 C481 1.374 . S
C483 C480 1.499 . S
C483 C484 1.373 . S
C483 C485 1.389 1_455 S
C484 H457 0.950 . S
C484 C470 1.377 . S
C484 C483 1.373 . S
C485 C469 1.377 . S
C485 C483 1.389 1_655 S
C485 C486 1.524 . S
C486 C485 1.524 . S
C486 C487 1.397 . S
C486 C491 1.363 . S
C487 H458 0.950 . S
C487 C486 1.397 . S
C487 C488 1.334 . S
C488 H459 0.950 . S
C488 C487 1.334 . S
C488 C489 1.287 . S
C489 C488 1.287 . S
C489 C490 1.524 . S
C489 H492 0.999 . S
C490 H460 0.950 . S
C490 C489 1.524 . S
C490 C491 1.415 . S
C491 H461 0.950 . S
C491 C486 1.363 . S
C491 C490 1.415 . S
H492 C489 0.999 . S
H493 C474 0.913 . S
H494 C512 0.951 . S
H495 C514 0.951 . S
H496 C516 0.950 . S
H497 C517 0.950 . S
H498 C519 0.950 . S
H499 C522 0.950 . S
H500 C523 0.950 . S
H501 C525 0.950 . S
H502 C526 0.950 . S
H503 C527 0.951 . S
H504 C529 0.951 . S
H505 C531 0.950 . S
H506 C532 0.950 . S
H507 C534 0.950 . S
H508 C537 0.950 . S
H509 C538 0.950 . S
H510 C540 0.950 . S
H511 C541 0.950 . S
C512 H494 0.951 . S
C512 C513 1.366 . S
C512 C514 1.388 . S
C513 C512 1.366 . S
C513 C517 1.385 . S
C514 H495 0.951 . S
C514 C512 1.388 . S
C514 C515 1.366 . S
C515 C514 1.366 . S
C515 C516 1.414 . S
C515 C518 1.499 . S
C516 H496 0.950 . S
C516 C515 1.414 . S
C516 C517 1.374 . S
C517 H497 0.950 . S
C517 C513 1.385 . S
C517 C516 1.374 . S
C518 C515 1.499 . S
C518 C519 1.373 . S
C518 C520 1.389 . S
C519 H498 0.950 . S
C519 C518 1.373 . S
C519 C535 1.377 . S
C520 C518 1.389 . S
C520 C521 1.524 . S
C520 C534 1.377 . S
C521 C520 1.524 . S
C521 C522 1.397 . S
C521 C526 1.363 . S
C522 H499 0.950 . S
C522 C521 1.397 . S
C522 C523 1.334 . S
C523 H500 0.950 . S
C523 C522 1.334 . S
C523 C524 1.287 . S
C524 C523 1.287 . S
C524 C525 1.524 . S
C524 H543 0.913 . S
C525 H501 0.950 . S
C525 C524 1.524 . S
C525 C526 1.415 . S
C526 H502 0.950 . S
C526 C521 1.363 . S
C526 C525 1.415 . S
C527 H503 0.951 . S
C527 C528 1.366 . S
C527 C529 1.388 . S
C528 C527 1.366 . S
C528 C532 1.385 . S
C529 H504 0.951 . S
C529 C527 1.388 . S
C529 C530 1.366 . S
C530 C529 1.366 . S
C530 C531 1.414 . S
C530 C533 1.499 . S
C531 H505 0.950 . S
C531 C530 1.414 . S
C531 C532 1.374 . S
C532 H506 0.950 . S
C532 C528 1.385 . S
C532 C531 1.374 . S
C533 C530 1.499 . S
C533 C534 1.373 . S
C533 C535 1.389 . S
C534 H507 0.950 . S
C534 C520 1.377 . S
C534 C533 1.373 . S
C535 C519 1.377 . S
C535 C533 1.389 . S
C535 C536 1.524 . S
C536 C535 1.524 . S
C536 C537 1.397 . S
C536 C541 1.363 . S
C537 H508 0.950 . S
C537 C536 1.397 . S
C537 C538 1.334 . S
C538 H509 0.950 . S
C538 C537 1.334 . S
C538 C539 1.287 . S
C539 C538 1.287 . S
C539 C540 1.524 . S
C539 H542 0.999 . S
C540 H510 0.950 . S
C540 C539 1.524 . S
C540 C541 1.415 . S
C541 H511 0.950 . S
C541 C536 1.363 . S
C541 C540 1.415 . S
H542 C539 0.999 . S
H543 C524 0.913 . S
C163 C40 0.818 . S
C178 C4 0.820 . S
C213 C2 0.715 . S
C228 C38 0.714 . S
C263 C112 0.819 . S
C278 C76 0.820 . S
C313 C74 0.713 . S
C328 C110 0.715 . S
C363 C14 1.472 . S
C378 C86 1.472 . S
C413 C122 1.472 . S
C428 C50 1.472 . S
C463 C75 1.546 . S
C478 C3 1.546 . S
C513 C39 1.546 . S
C528 C111 1.546 . S
