# Generated by pormake.
# Topology vmh, (6)-cn, num edge types: 1
# Building blocks:
#     Node 0, Type 0, BuildingBlock: OJICUG_clean_sbu_0, # of connection points: 6
#     Node 1, Type 0, BuildingBlock: OJICUG_clean_sbu_0, # of connection points: 6
#     Node 2, Type 0, BuildingBlock: OJICUG_clean_sbu_0, # of connection points: 6
#     Node 3, Type 0, BuildingBlock: OJICUG_clean_sbu_0, # of connection points: 6
#     Node 4, Type 0, BuildingBlock: OJICUG_clean_sbu_0, # of connection points: 6
#     Node 5, Type 0, BuildingBlock: OJICUG_clean_sbu_0, # of connection points: 6
#     Node 6, Type 0, BuildingBlock: OJICUG_clean_sbu_0, # of connection points: 6
#     Node 7, Type 0, BuildingBlock: OJICUG_clean_sbu_0, # of connection points: 6
#     Edge 8, Type (0, 0), BuildingBlock: AJUNOK_clean_linker_0, # of connection points: 2
#     Edge 9, Type (0, 0), BuildingBlock: AJUNOK_clean_linker_0, # of connection points: 2
#     Edge 10, Type (0, 0), BuildingBlock: AJUNOK_clean_linker_0, # of connection points: 2
#     Edge 11, Type (0, 0), BuildingBlock: AJUNOK_clean_linker_0, # of connection points: 2
#     Edge 12, Type (0, 0), BuildingBlock: AJUNOK_clean_linker_0, # of connection points: 2
#     Edge 13, Type (0, 0), BuildingBlock: AJUNOK_clean_linker_0, # of connection points: 2
#     Edge 14, Type (0, 0), BuildingBlock: AJUNOK_clean_linker_0, # of connection points: 2
#     Edge 15, Type (0, 0), BuildingBlock: AJUNOK_clean_linker_0, # of connection points: 2
#     Edge 16, Type (0, 0), BuildingBlock: AJUNOK_clean_linker_0, # of connection points: 2
#     Edge 17, Type (0, 0), BuildingBlock: AJUNOK_clean_linker_0, # of connection points: 2
#     Edge 18, Type (0, 0), BuildingBlock: AJUNOK_clean_linker_0, # of connection points: 2
#     Edge 19, Type (0, 0), BuildingBlock: AJUNOK_clean_linker_0, # of connection points: 2
#     Edge 20, Type (0, 0), BuildingBlock: AJUNOK_clean_linker_0, # of connection points: 2
#     Edge 21, Type (0, 0), BuildingBlock: AJUNOK_clean_linker_0, # of connection points: 2
#     Edge 22, Type (0, 0), BuildingBlock: AJUNOK_clean_linker_0, # of connection points: 2
#     Edge 23, Type (0, 0), BuildingBlock: AJUNOK_clean_linker_0, # of connection points: 2
#     Edge 24, Type (0, 0), BuildingBlock: AJUNOK_clean_linker_0, # of connection points: 2
#     Edge 25, Type (0, 0), BuildingBlock: AJUNOK_clean_linker_0, # of connection points: 2
#     Edge 26, Type (0, 0), BuildingBlock: AJUNOK_clean_linker_0, # of connection points: 2
#     Edge 27, Type (0, 0), BuildingBlock: AJUNOK_clean_linker_0, # of connection points: 2
#     Edge 28, Type (0, 0), BuildingBlock: AJUNOK_clean_linker_0, # of connection points: 2
#     Edge 29, Type (0, 0), BuildingBlock: AJUNOK_clean_linker_0, # of connection points: 2
#     Edge 30, Type (0, 0), BuildingBlock: AJUNOK_clean_linker_0, # of connection points: 2
#     Edge 31, Type (0, 0), BuildingBlock: AJUNOK_clean_linker_0, # of connection points: 2
# Relax obj value: 0.243
# Max RMSD: 0.270
# Mean RMSD: 0.270
data_MOF--net-vmh--node1-OJICUG_clean_sbu_0--edge1-AJUNOK_clean_linker_0
_symmetry_space_group_name_H-M    P1
_symmetry_Int_Tables_number       1
_symmetry_cell_setting            triclinic
loop_
_symmetry_equiv_pos_as_xyz
'x, y, z'
_cell_length_a     21.835276
_cell_length_b     32.736176
_cell_length_c     23.225742
_cell_angle_alpha  90.213461
_cell_angle_beta   104.72678
_cell_angle_gamma 89.934548
loop_
_atom_site_label
_atom_site_type_symbol
_atom_site_fract_x
_atom_site_fract_y
_atom_site_fract_z
_atom_type_partial_charge
Sc0 Sc 0.20777 0.10907 0.11422 0.0
Sc1 Sc 0.25028 0.01948 0.05208 0.0
Sc2 Sc 0.29888 0.11329 0.01128 0.0
O3 O 0.25082 0.08078 0.05859 0.0
C4 C 0.20491 0.18305 0.0244 0.0
C5 C 0.10531 0.04484 0.03933 0.0
C6 C 0.23758 0.05113 0.91779 0.0
C7 C 0.23932 0.02548 0.18391 0.0
C8 C 0.35621 0.13682 0.147 0.0
C9 C 0.38409 0.03432 0.0402 0.0
O10 O 0.18874 0.16706 0.06787 0.0
O11 O 0.14945 0.02051 0.03481 0.0
O12 O 0.24308 0.08899 0.92985 0.0
O13 O 0.21668 0.06093 0.17585 0.0
O14 O 0.35808 0.13643 0.09264 0.0
O15 O 0.35078 0.01512 0.06848 0.0
O16 O 0.30467 0.12979 0.16327 0.0
O17 O 0.26089 0.00683 0.14545 0.0
O18 O 0.36641 0.06723 0.01309 0.0
O19 O 0.11589 0.08062 0.06438 0.0
O20 O 0.241 0.16534 -0.00199 0.0
O21 O 0.24247 0.02373 0.95762 0.0
Sc22 Sc 0.74293 0.08845 0.37694 0.0
Sc23 Sc 0.71439 0.99472 0.43536 0.0
Sc24 Sc 0.62604 0.08027 0.45019 0.0
O25 O 0.69808 0.05514 0.42422 0.0
C26 C 0.71536 0.15158 0.47659 0.0
C27 C 0.85351 0.03119 0.44767 0.0
C28 C 0.69149 0.02163 0.55695 0.0
C29 C 0.72821 0.00365 0.30644 0.0
C30 C 0.60049 0.11885 0.32561 0.0
C31 C 0.56791 0.00068 0.41624 0.0
O32 O 0.73648 0.14206 0.43155 0.0
O33 O 0.81362 0.00257 0.4446 0.0
O34 O 0.64501 0.04332 0.52943 0.0
O35 O 0.75085 0.03934 0.31824 0.0
O36 O 0.59719 0.1224 0.37876 0.0
O37 O 0.61725 0.97881 0.43123 0.0
O38 O 0.65062 0.10439 0.31386 0.0
O39 O 0.70149 0.98431 0.34102 0.0
O40 O 0.57187 0.03512 0.39386 0.0
O41 O 0.8362 0.06849 0.4345 0.0
O42 O 0.68369 0.12698 0.4999 0.0
O43 O 0.72896 0.00419 0.53025 0.0
Sc44 Sc 0.76146 0.89652 0.87333 0.0
Sc45 Sc 0.71349 0.98311 0.93888 0.0
Sc46 Sc 0.66871 0.88695 0.97426 0.0
O47 O 0.71611 0.92205 0.92937 0.0
C48 C 0.61347 0.86573 0.83794 0.0
C49 C 0.72176 0.98014 0.80498 0.0
C50 C 0.58152 0.96445 0.953 0.0
C51 C 0.85975 0.96271 0.94954 0.0
C52 C 0.76655 0.81985 0.95755 0.0
C53 C 0.73274 0.9458 0.07202 0.0
O54 O 0.66638 0.87237 0.82378 0.0
O55 O 0.70095 0.998 0.84489 0.0
O56 O 0.60216 0.93196 0.9796 0.0
O57 O 0.85138 0.92739 0.92307 0.0
O58 O 0.72478 0.83436 0.98019 0.0
O59 O 0.72481 0.97516 0.03445 0.0
O60 O 0.78769 0.83923 0.91968 0.0
O61 O 0.81404 0.98534 0.95476 0.0
O62 O 0.72631 0.90842 0.05664 0.0
O63 O 0.74638 0.9452 0.81252 0.0
O64 O 0.60869 0.86762 0.89138 0.0
O65 O 0.61273 0.98508 0.92422 0.0
Sc66 Sc 0.22883 0.91841 0.60942 0.0
Sc67 Sc 0.25577 0.01373 0.55418 0.0
Sc68 Sc 0.34416 0.92933 0.53584 0.0
O69 O 0.27241 0.95298 0.56304 0.0
C70 C 0.37147 0.88699 0.65868 0.0
C71 C 0.2498 0.00143 0.68364 0.0
C72 C 0.40131 0.00822 0.57127 0.0
C73 C 0.11785 0.97693 0.54205 0.0
C74 C 0.25574 0.85706 0.50723 0.0
C75 C 0.27319 0.9883 0.43163 0.0
O76 O 0.32103 0.90024 0.67126 0.0
O77 O 0.27394 0.02217 0.64866 0.0
O78 O 0.39569 0.97434 0.59414 0.0
O79 O 0.13601 0.93954 0.55277 0.0
O80 O 0.28836 0.88204 0.48549 0.0
O81 O 0.23642 0.00491 0.45965 0.0
O82 O 0.23356 0.86614 0.55183 0.0
O83 O 0.15701 0.00633 0.54926 0.0
O84 O 0.32177 0.96771 0.45774 0.0
O85 O 0.22418 0.96657 0.67078 0.0
O86 O 0.37597 0.88656 0.60568 0.0
O87 O 0.35204 0.0299 0.55368 0.0
Sc88 Sc 0.7515 0.58248 0.10517 0.0
Sc89 Sc 0.78811 0.49057 0.0461 0.0
Sc90 Sc 0.87169 0.57926 0.03612 0.0
O91 O 0.79992 0.55116 0.05879 0.0
C92 C 0.77736 0.64716 0.00702 0.0
C93 C 0.64598 0.52396 0.02844 0.0
C94 C 0.81709 0.51939 0.92767 0.0
C95 C 0.76529 0.49685 0.17282 0.0
C96 C 0.88967 0.61649 0.16006 0.0
C97 C 0.93605 0.50182 0.07537 0.0
O98 O 0.75649 0.63683 0.05182 0.0
O99 O 0.68698 0.49589 0.03088 0.0
O100 O 0.86196 0.54157 0.95737 0.0
O101 O 0.74361 0.53274 0.16189 0.0
O102 O 0.89174 0.62283 0.10718 0.0
O103 O 0.88825 0.4788 0.05614 0.0
O104 O 0.84127 0.59897 0.17045 0.0
O105 O 0.79515 0.47836 0.13971 0.0
O106 O 0.92803 0.5366 0.09525 0.0
O107 O 0.66144 0.56094 0.04558 0.0
O108 O 0.81084 0.62341 0.98403 0.0
O109 O 0.77856 0.50112 0.95212 0.0
Sc110 Sc 0.28534 0.60965 0.37764 0.0
Sc111 Sc 0.25669 0.51735 0.44138 0.0
Sc112 Sc 0.19119 0.60546 0.47779 0.0
O113 O 0.24623 0.57793 0.43249 0.0
C114 C 0.26914 0.68354 0.45986 0.0
C115 C 0.39573 0.55037 0.45294 0.0
C116 C 0.27066 0.55412 0.57485 0.0
C117 C 0.26251 0.52506 0.30734 0.0
C118 C 0.13146 0.62535 0.34279 0.0
C119 C 0.12782 0.51989 0.45902 0.0
O120 O 0.3011 0.66645 0.428 0.0
O121 O 0.35494 0.52419 0.45824 0.0
O122 O 0.25705 0.59089 0.55901 0.0
O123 O 0.2781 0.56216 0.31409 0.0
O124 O 0.12603 0.61732 0.39493 0.0
O125 O 0.15821 0.50679 0.42356 0.0
O126 O 0.18586 0.62791 0.32982 0.0
O127 O 0.24833 0.50407 0.34794 0.0
O128 O 0.14194 0.55212 0.4889 0.0
O129 O 0.38087 0.58506 0.42604 0.0
O130 O 0.22782 0.6646 0.47807 0.0
O131 O 0.26608 0.52451 0.53749 0.0
Sc132 Sc 0.2672 0.41387 0.87899 0.0
Sc133 Sc 0.24792 0.51103 0.93522 0.0
Sc134 Sc 0.15062 0.43073 0.95067 0.0
O135 O 0.22547 0.45071 0.92517 0.0
C136 C 0.1215 0.38877 0.82513 0.0
C137 C 0.26006 0.4981 0.8073 0.0
C138 C 0.10446 0.51219 0.92249 0.0
C139 C 0.38177 0.4681 0.95031 0.0
C140 C 0.22849 0.35312 0.97529 0.0
C141 C 0.22909 0.48637 0.0585 0.0
O142 O 0.17492 0.39847 0.81523 0.0
O143 O 0.23301 0.51915 0.84028 0.0
O144 O 0.10755 0.47949 0.89567 0.0
O145 O 0.36132 0.43129 0.93779 0.0
O146 O 0.19761 0.3792 -0.00271 0.0
O147 O 0.26552 0.50282 0.03005 0.0
O148 O 0.25477 0.3615 0.93325 0.0
O149 O 0.34507 0.49874 0.94095 0.0
O150 O 0.18044 0.46557 0.03267 0.0
O151 O 0.27952 0.46178 0.82004 0.0
O152 O 0.11205 0.39263 0.87626 0.0
O153 O 0.15442 0.53324 0.93706 0.0
Sc154 Sc 0.73619 0.40097 0.60968 0.0
Sc155 Sc 0.7881 0.48423 0.54181 0.0
Sc156 Sc 0.82348 0.38649 0.50492 0.0
O157 O 0.78027 0.42375 0.55124 0.0
C158 C 0.88272 0.3678 0.64111 0.0
C159 C 0.78461 0.48386 0.67737 0.0
C160 C 0.91414 0.46074 0.52188 0.0
C161 C 0.64231 0.47019 0.53676 0.0
C162 C 0.72334 0.32303 0.52673 0.0
C163 C 0.75917 0.44443 0.40774 0.0
O164 O 0.83047 0.3745 0.65651 0.0
O165 O 0.80521 0.50049 0.63652 0.0
O166 O 0.88951 0.42981 0.49327 0.0
O167 O 0.64838 0.43478 0.5627 0.0
O168 O 0.76632 0.33517 0.50398 0.0
O169 O 0.7719 0.47446 0.44479 0.0
O170 O 0.7034 0.34422 0.56385 0.0
O171 O 0.68915 0.49065 0.52962 0.0
O172 O 0.76357 0.40718 0.42364 0.0
O173 O 0.75736 0.44975 0.67038 0.0
O174 O 0.88597 0.3687 0.58715 0.0
O175 O 0.88804 0.48128 0.55505 0.0
C176 C 0.21766 0.06434 0.80864 0.0
C177 C 0.2393 0.03813 0.85759 0.0
C178 C 0.22407 0.05353 0.75202 0.0
C179 C 0.25267 0.01645 0.74331 0.0
H180 H 0.19525 0.09315 0.81406 0.0
H181 H 0.20485 0.07352 0.7147 0.0
S182 S 0.32395 0.93967 0.85713 0.0
N183 N 0.29536 0.97505 0.89381 0.0
N184 N 0.30677 0.95508 0.78737 0.0
C185 C 0.2763 0.99076 0.79187 0.0
C186 C 0.26969 0.00147 0.84911 0.0
C187 C 0.76278 0.98698 0.71534 0.0
C188 C 0.71692 0.99818 0.74567 0.0
C189 C 0.75467 0.99537 0.65497 0.0
C190 C 0.70047 0.01567 0.62208 0.0
H191 H 0.80461 0.97007 0.73804 0.0
H192 H 0.79076 0.985 0.63379 0.0
S193 S 0.56881 0.05515 0.68204 0.0
N194 N 0.61728 0.03282 0.73958 0.0
N195 N 0.60214 0.05003 0.62607 0.0
C196 C 0.6558 0.02936 0.65277 0.0
C197 C 0.66405 0.02038 0.71455 0.0
C198 C 0.76378 0.00805 0.21283 0.0
C199 C 0.73372 0.98537 0.24946 0.0
C200 C 0.76632 0.99389 0.15682 0.0
C201 C 0.73964 0.95623 0.13513 0.0
H202 H 0.78431 0.03774 0.22654 0.0
H203 H 0.78782 0.0132 0.1296 0.0
S204 S 0.65963 0.88331 0.21436 0.0
N205 N 0.6799 0.92205 0.26102 0.0
N206 N 0.68494 0.89517 0.15534 0.0
C207 C 0.71219 0.93211 0.17213 0.0
C208 C 0.7091 0.94676 0.22932 0.0
C209 C 0.30132 0.99297 0.27711 0.0
C210 C 0.24344 0.00788 0.24271 0.0
C211 C 0.31009 0.98601 0.33813 0.0
C212 C 0.26125 0.99383 0.36659 0.0
H213 H 0.3411 0.98906 0.25764 0.0
H214 H 0.35629 0.97586 0.36346 0.0
S215 S 0.09768 0.02716 0.29283 0.0
N216 N 0.13458 0.02605 0.239 0.0
N217 N 0.15069 0.01277 0.35358 0.0
C218 C 0.20192 0.00632 0.33151 0.0
C219 C 0.19311 0.01332 0.26955 0.0
C220 C 0.74224 0.4957 0.76509 0.0
C221 C 0.79151 0.50234 0.73699 0.0
C222 C 0.75094 0.50173 0.82623 0.0
C223 C 0.80917 0.51523 0.86226 0.0
H224 H 0.69707 0.48369 0.7399 0.0
H225 H 0.71178 0.49501 0.84545 0.0
S226 S 0.95161 0.54141 0.80952 0.0
N227 N 0.89936 0.52566 0.74889 0.0
N228 N 0.91562 0.53887 0.86398 0.0
C229 C 0.85777 0.52475 0.83409 0.0
C230 C 0.84893 0.51799 0.77144 0.0
C231 C 0.23988 0.56427 0.66997 0.0
C232 C 0.27761 0.54398 0.63783 0.0
C233 C 0.23587 0.55018 0.72577 0.0
C234 C 0.26972 0.51543 0.7514 0.0
H235 H 0.21041 0.58986 0.6505 0.0
H236 H 0.20413 0.56565 0.7477 0.0
S237 S 0.38375 0.45603 0.68897 0.0
N238 N 0.35457 0.49062 0.63784 0.0
N239 N 0.34905 0.46441 0.74329 0.0
C240 C 0.31116 0.4967 0.72124 0.0
C241 C 0.31455 0.51088 0.66428 0.0
C242 C 0.20329 0.48964 0.21464 0.0
C243 C 0.25933 0.50759 0.24819 0.0
C244 C 0.19461 0.48204 0.15357 0.0
C245 C 0.24162 0.49229 0.12397 0.0
H246 H 0.16459 0.48365 0.23481 0.0
H247 H 0.14961 0.46948 0.12907 0.0
S248 S 0.40064 0.53459 0.19539 0.0
N249 N 0.36486 0.53167 0.24986 0.0
N250 N 0.34912 0.51723 0.13545 0.0
C251 C 0.29935 0.50806 0.15828 0.0
C252 C 0.30803 0.51573 0.22028 0.0
C253 C 0.79839 0.44807 0.25852 0.0
C254 C 0.75637 0.47794 0.22804 0.0
C255 C 0.79621 0.43548 0.3157 0.0
C256 C 0.75262 0.45278 0.34432 0.0
H257 H 0.83521 0.43597 0.23962 0.0
H258 H 0.83143 0.41392 0.33913 0.0
S259 S 0.62321 0.52445 0.2784 0.0
N260 N 0.66212 0.51854 0.22663 0.0
N261 N 0.66084 0.49611 0.3351 0.0
C262 C 0.70753 0.48017 0.3128 0.0
C263 C 0.70863 0.49235 0.25428 0.0
C264 C 0.48352 0.04002 0.00998 0.0
C265 C 0.43826 0.01486 0.02591 0.0
C266 C 0.52717 0.02392 0.98174 0.0
C267 C 0.52715 0.98211 0.96912 0.0
H268 H 0.4841 0.07267 0.01805 0.0
H269 H 0.56239 0.04407 0.97171 0.0
S270 S 0.41909 0.90316 0.0022 0.0
N271 N 0.3961 0.94623 0.02739 0.0
N272 N 0.4789 0.91558 0.9743 0.0
C273 C 0.48242 0.9565 0.98506 0.0
C274 C 0.43814 0.9729 0.01406 0.0
C275 C 0.43486 0.03112 0.48215 0.0
C276 C 0.44847 0.00962 0.53618 0.0
C277 C 0.47074 0.02506 0.4412 0.0
C278 C 0.52239 0.99791 0.45306 0.0
H279 H 0.39475 0.05168 0.47011 0.0
H280 H 0.45884 0.04266 0.40041 0.0
S281 S 0.57897 0.93528 0.58953 0.0
N282 N 0.51828 0.96128 0.60071 0.0
N283 N 0.58501 0.94891 0.52294 0.0
C284 C 0.53635 0.97597 0.5069 0.0
C285 C 0.50025 0.98259 0.54896 0.0
C286 C 0.97769 0.4755 0.99284 0.0
C287 C 0.98737 0.49902 0.04505 0.0
C288 C 0.01389 0.48193 0.95249 0.0
C289 C 0.06248 0.51137 0.96309 0.0
H290 H 0.93927 0.45366 0.98083 0.0
H291 H 0.00333 0.46353 0.91226 0.0
S292 S 0.11299 0.57678 0.09785 0.0
N293 N 0.0531 0.54988 0.1088 0.0
N294 N 0.12175 0.56211 0.03235 0.0
C295 C 0.07487 0.53382 0.01659 0.0
C296 C 0.03785 0.52714 0.05802 0.0
C297 C 0.08101 0.48666 0.53024 0.0
C298 C 0.07701 0.49689 0.47069 0.0
C299 C 0.02687 0.4764 0.54779 0.0
C300 C 0.96845 0.47646 0.50591 0.0
H301 H 0.12578 0.48852 0.5637 0.0
H302 H 0.03058 0.46833 0.59378 0.0
S303 S 0.93424 0.50145 0.34541 0.0
N304 N 0.0117 0.50657 0.37039 0.0
N305 N 0.90862 0.48696 0.40326 0.0
C306 C 0.96413 0.48577 0.4461 0.0
C307 C 0.01918 0.49594 0.4283 0.0
C308 C 0.02912 0.00081 0.96503 0.0
C309 C 0.04007 0.02768 0.01476 0.0
C310 C 0.97254 0.97817 0.94561 0.0
C311 C 0.92406 0.98112 0.97516 0.0
H312 H 0.0652 0.99695 0.9409 0.0
H313 H 0.96619 0.95905 0.90637 0.0
S314 S 0.93012 0.04423 0.1105 0.0
N315 N 0.99817 0.05394 0.09457 0.0
N316 N 0.89229 0.01187 0.05896 0.0
C317 C 0.93473 0.00747 0.0255 0.0
C318 C 0.99225 0.03065 0.04493 0.0
C319 C 0.96858 0.04411 0.50205 0.0
C320 C 0.92175 0.01817 0.46841 0.0
C321 C 0.03079 0.0299 0.52669 0.0
C322 C 0.04947 0.98906 0.51898 0.0
H323 H 0.95684 0.07532 0.51064 0.0
H324 H 0.06471 0.05138 0.55244 0.0
S325 S 0.94629 0.90953 0.43031 0.0
N326 N 0.89978 0.94983 0.42566 0.0
N327 N 0.01589 0.92375 0.47239 0.0
C328 C 0.00336 0.96302 0.48476 0.0
C329 C 0.94008 0.97743 0.45934 0.0
C330 C 0.49915 0.45928 0.95696 0.0
C331 C 0.45021 0.47887 0.97557 0.0
C332 C 0.56168 0.47473 0.97309 0.0
C333 C 0.57805 0.51064 0.00812 0.0
H334 H 0.48881 0.43272 0.92817 0.0
H335 H 0.59753 0.45849 0.95733 0.0
S336 S 0.46843 0.57144 0.07255 0.0
N337 N 0.42372 0.53481 0.03465 0.0
N338 N 0.54003 0.56356 0.06351 0.0
C339 C 0.52979 0.52988 0.02796 0.0
C340 C 0.46651 0.51403 0.01225 0.0
C341 C 0.5293 0.48295 0.54016 0.0
C342 C 0.57964 0.49123 0.51486 0.0
C343 C 0.47231 0.50493 0.52295 0.0
C344 C 0.46203 0.53585 0.47866 0.0
H345 H 0.53407 0.45965 0.57403 0.0
H346 H 0.43493 0.49664 0.54372 0.0
S347 S 0.57995 0.57158 0.40097 0.0
N348 N 0.61656 0.53478 0.44497 0.0
N349 N 0.50858 0.57479 0.41242 0.0
C350 C 0.51246 0.54543 0.45435 0.0
C351 C 0.57106 0.52333 0.47216 0.0
C352 C 0.42399 0.13709 0.2534 0.0
C353 C 0.41976 0.13897 0.19212 0.0
C354 C 0.4827 0.13225 0.29543 0.0
C355 C 0.54063 0.12843 0.27867 0.0
H356 H 0.3814 0.13799 0.26919 0.0
H357 H 0.48195 0.12992 0.34175 0.0
S358 S 0.55774 0.13391 0.12431 0.0
N359 N 0.48097 0.13911 0.11714 0.0
N360 N 0.58985 0.12897 0.19634 0.0
C361 C 0.53764 0.13154 0.21787 0.0
C362 C 0.47789 0.13712 0.1748 0.0
C363 C 0.54839 0.87233 0.73141 0.0
C364 C 0.55145 0.86281 0.79095 0.0
C365 C 0.48995 0.87828 0.68956 0.0
C366 C 0.43115 0.87598 0.70489 0.0
H367 H 0.59148 0.87699 0.7173 0.0
H368 H 0.4913 0.88631 0.64479 0.0
S369 S 0.41122 0.84499 0.85213 0.0
N370 N 0.48868 0.84571 0.86106 0.0
N371 N 0.37991 0.85865 0.78249 0.0
C372 C 0.43305 0.8643 0.76328 0.0
C373 C 0.49266 0.85725 0.80598 0.0
C374 C 0.95624 0.60865 0.2654 0.0
C375 C 0.94909 0.62461 0.20811 0.0
C376 C 0.01477 0.61017 0.30813 0.0
C377 C 0.0697 0.6275 0.29594 0.0
H378 H 0.91694 0.59347 0.27691 0.0
H379 H 0.01707 0.59625 0.35085 0.0
S380 S 0.07549 0.67756 0.15468 0.0
N381 N 0.0016 0.66162 0.14292 0.0
N382 N 0.11131 0.66351 0.22317 0.0
C383 C 0.06286 0.64485 0.23956 0.0
C384 C 0.00285 0.64375 0.19594 0.0
C385 C 0.94789 0.36517 0.74817 0.0
C386 C 0.94545 0.3654 0.68721 0.0
C387 C 0.00548 0.37027 0.79163 0.0
C388 C 0.064 0.37661 0.7768 0.0
H389 H 0.90469 0.36253 0.76263 0.0
H390 H 0.00312 0.37092 0.83767 0.0
S391 S 0.08579 0.37615 0.62374 0.0
N392 N 0.00906 0.36906 0.61437 0.0
N393 N 0.11586 0.37971 0.69632 0.0
C394 C 0.06296 0.3749 0.71622 0.0
C395 C 0.00432 0.36908 0.67165 0.0
C396 C 0.20664 0.25581 0.05669 0.0
C397 C 0.19421 0.22672 0.01039 0.0
C398 C 0.2183 0.29689 0.04549 0.0
C399 C 0.21916 0.30978 0.98796 0.0
H400 H 0.21145 0.24635 0.10228 0.0
H401 H 0.22871 0.31837 0.08228 0.0
S402 S 0.17782 0.24684 0.85018 0.0
N403 N 0.17482 0.21474 0.90403 0.0
N404 N 0.19744 0.29143 0.88304 0.0
C405 C 0.20259 0.28146 0.94088 0.0
C406 C 0.18972 0.2401 0.95209 0.0
C407 C 0.70704 0.22395 0.44568 0.0
C408 C 0.71328 0.19524 0.49164 0.0
C409 C 0.70221 0.26554 0.45645 0.0
C410 C 0.70429 0.2803 0.51379 0.0
H411 H 0.70615 0.21433 0.40078 0.0
H412 H 0.70074 0.28662 0.42022 0.0
S413 S 0.7144 0.21772 0.64851 0.0
N414 N 0.71547 0.184 0.59563 0.0
N415 N 0.70888 0.26305 0.61648 0.0
C416 C 0.70678 0.25196 0.5596 0.0
C417 C 0.71095 0.20921 0.54841 0.0
C418 C 0.77693 0.76155 0.02624 0.0
C419 C 0.78242 0.77658 0.97115 0.0
C420 C 0.77358 0.7198 0.03628 0.0
C421 C 0.7764 0.69103 0.99193 0.0
H422 H 0.77245 0.7824 0.06131 0.0
H423 H 0.76905 0.71014 0.07957 0.0
S424 S 0.79532 0.71425 0.84112 0.0
N425 N 0.79327 0.75953 0.87224 0.0
N426 N 0.78904 0.68033 0.89182 0.0
C427 C 0.78512 0.70542 0.93749 0.0
C428 C 0.78792 0.74833 0.92701 0.0
C429 C 0.24887 0.74243 0.51948 0.0
C430 C 0.27318 0.72791 0.4726 0.0
C431 C 0.24015 0.78395 0.52773 0.0
C432 C 0.25641 0.81334 0.49021 0.0
H433 H 0.23516 0.72139 0.54989 0.0
H434 H 0.22175 0.79289 0.56505 0.0
S435 S 0.32252 0.79165 0.36065 0.0
N436 N 0.31316 0.7461 0.38755 0.0
N437 N 0.29868 0.82493 0.40401 0.0
C438 C 0.28163 0.79945 0.44331 0.0
C439 C 0.28995 0.75667 0.43454 0.0
loop_
_geom_bond_atom_site_label_1
_geom_bond_atom_site_label_2
_geom_bond_distance
_geom_bond_site_symmetry_2
_ccdc_geom_bond_type
Sc0 O3 2.025 . S
Sc0 O10 2.105 . S
Sc0 O13 2.105 . S
Sc0 O16 2.105 . S
Sc0 O19 2.105 . S
Sc1 O3 2.025 . S
Sc1 O11 2.105 . S
Sc1 O15 2.105 1_545 S
Sc1 O17 2.105 1_545 S
Sc1 O21 2.105 1_554 S
Sc2 O3 2.025 . S
Sc2 O12 2.105 1_554 S
Sc2 O14 2.105 . S
Sc2 O18 2.105 . S
Sc2 O20 2.105 1_554 S
O3 Sc0 2.025 . S
O3 Sc1 2.025 . S
O3 Sc2 2.025 . S
C4 O10 1.268 . S
C4 O20 1.268 1_554 S
C5 O11 1.268 . S
C5 O19 1.268 . S
C6 O12 1.268 . S
C6 O21 1.268 . S
C7 O13 1.268 . S
C7 O17 1.268 1_545 S
C8 O14 1.268 . S
C8 O16 1.268 . S
C9 O15 1.268 1_545 S
C9 O18 1.268 . S
O10 Sc0 2.105 . S
O10 C4 1.268 . S
O11 Sc1 2.105 . S
O11 C5 1.268 . S
O12 Sc2 2.105 1_556 S
O12 C6 1.268 . S
O13 Sc0 2.105 . S
O13 C7 1.268 . S
O14 Sc2 2.105 . S
O14 C8 1.268 . S
O15 Sc1 2.105 1_565 S
O15 C9 1.268 1_565 S
O16 Sc0 2.105 . S
O16 C8 1.268 . S
O17 Sc1 2.105 1_565 S
O17 C7 1.268 1_565 S
O18 Sc2 2.105 . S
O18 C9 1.268 . S
O19 Sc0 2.105 . S
O19 C5 1.268 . S
O20 Sc2 2.105 1_556 S
O20 C4 1.268 1_556 S
O21 Sc1 2.105 1_556 S
O21 C6 1.268 . S
Sc22 O25 2.025 . S
Sc22 O32 2.105 . S
Sc22 O35 2.105 . S
Sc22 O38 2.105 . S
Sc22 O41 2.105 . S
Sc23 O25 2.025 . S
Sc23 O33 2.105 . S
Sc23 O37 2.105 1_545 S
Sc23 O39 2.105 1_545 S
Sc23 O43 2.105 . S
Sc24 O25 2.025 . S
Sc24 O34 2.105 . S
Sc24 O36 2.105 . S
Sc24 O40 2.105 . S
Sc24 O42 2.105 . S
O25 Sc22 2.025 . S
O25 Sc23 2.025 . S
O25 Sc24 2.025 . S
C26 O32 1.268 . S
C26 O42 1.268 . S
C27 O33 1.268 . S
C27 O41 1.268 . S
C28 O34 1.268 . S
C28 O43 1.268 . S
C29 O35 1.268 . S
C29 O39 1.268 1_545 S
C30 O36 1.268 . S
C30 O38 1.268 . S
C31 O37 1.268 1_545 S
C31 O40 1.268 . S
O32 Sc22 2.105 . S
O32 C26 1.268 . S
O33 Sc23 2.105 . S
O33 C27 1.268 . S
O34 Sc24 2.105 . S
O34 C28 1.268 . S
O35 Sc22 2.105 . S
O35 C29 1.268 . S
O36 Sc24 2.105 . S
O36 C30 1.268 . S
O37 Sc23 2.105 1_565 S
O37 C31 1.268 1_565 S
O38 Sc22 2.105 . S
O38 C30 1.268 . S
O39 Sc23 2.105 1_565 S
O39 C29 1.268 1_565 S
O40 Sc24 2.105 . S
O40 C31 1.268 . S
O41 Sc22 2.105 . S
O41 C27 1.268 . S
O42 Sc24 2.105 . S
O42 C26 1.268 . S
O43 Sc23 2.105 . S
O43 C28 1.268 . S
Sc44 O47 2.025 . S
Sc44 O54 2.105 . S
Sc44 O57 2.105 . S
Sc44 O60 2.105 . S
Sc44 O63 2.105 . S
Sc45 O47 2.025 . S
Sc45 O55 2.105 1_565 S
Sc45 O59 2.105 1_556 S
Sc45 O61 2.105 . S
Sc45 O65 2.105 1_565 S
Sc46 O47 2.025 . S
Sc46 O56 2.105 . S
Sc46 O58 2.105 1_556 S
Sc46 O62 2.105 1_556 S
Sc46 O64 2.105 . S
O47 Sc44 2.025 . S
O47 Sc45 2.025 . S
O47 Sc46 2.025 . S
C48 O54 1.268 . S
C48 O64 1.268 . S
C49 O55 1.268 1_565 S
C49 O63 1.268 . S
C50 O56 1.268 . S
C50 O65 1.268 1_565 S
C51 O57 1.268 . S
C51 O61 1.268 . S
C52 O58 1.268 1_556 S
C52 O60 1.268 . S
C53 O59 1.268 . S
C53 O62 1.268 . S
O54 Sc44 2.105 . S
O54 C48 1.268 . S
O55 Sc45 2.105 1_545 S
O55 C49 1.268 1_545 S
O56 Sc46 2.105 . S
O56 C50 1.268 . S
O57 Sc44 2.105 . S
O57 C51 1.268 . S
O58 Sc46 2.105 1_554 S
O58 C52 1.268 1_554 S
O59 Sc45 2.105 1_554 S
O59 C53 1.268 . S
O60 Sc44 2.105 . S
O60 C52 1.268 . S
O61 Sc45 2.105 . S
O61 C51 1.268 . S
O62 Sc46 2.105 1_554 S
O62 C53 1.268 . S
O63 Sc44 2.105 . S
O63 C49 1.268 . S
O64 Sc46 2.105 . S
O64 C48 1.268 . S
O65 Sc45 2.105 1_545 S
O65 C50 1.268 1_545 S
Sc66 O69 2.025 . S
Sc66 O76 2.105 . S
Sc66 O79 2.105 . S
Sc66 O82 2.105 . S
Sc66 O85 2.105 . S
Sc67 O69 2.025 . S
Sc67 O77 2.105 1_565 S
Sc67 O81 2.105 . S
Sc67 O83 2.105 . S
Sc67 O87 2.105 1_565 S
Sc68 O69 2.025 . S
Sc68 O78 2.105 . S
Sc68 O80 2.105 . S
Sc68 O84 2.105 . S
Sc68 O86 2.105 . S
O69 Sc66 2.025 . S
O69 Sc67 2.025 . S
O69 Sc68 2.025 . S
C70 O76 1.268 . S
C70 O86 1.268 . S
C71 O77 1.268 1_565 S
C71 O85 1.268 . S
C72 O78 1.268 . S
C72 O87 1.268 1_565 S
C73 O79 1.268 . S
C73 O83 1.268 . S
C74 O80 1.268 . S
C74 O82 1.268 . S
C75 O81 1.268 . S
C75 O84 1.268 . S
O76 Sc66 2.105 . S
O76 C70 1.268 . S
O77 Sc67 2.105 1_545 S
O77 C71 1.268 1_545 S
O78 Sc68 2.105 . S
O78 C72 1.268 . S
O79 Sc66 2.105 . S
O79 C73 1.268 . S
O80 Sc68 2.105 . S
O80 C74 1.268 . S
O81 Sc67 2.105 . S
O81 C75 1.268 . S
O82 Sc66 2.105 . S
O82 C74 1.268 . S
O83 Sc67 2.105 . S
O83 C73 1.268 . S
O84 Sc68 2.105 . S
O84 C75 1.268 . S
O85 Sc66 2.105 . S
O85 C71 1.268 . S
O86 Sc68 2.105 . S
O86 C70 1.268 . S
O87 Sc67 2.105 1_545 S
O87 C72 1.268 1_545 S
Sc88 O91 2.025 . S
Sc88 O98 2.105 . S
Sc88 O101 2.105 . S
Sc88 O104 2.105 . S
Sc88 O107 2.105 . S
Sc89 O91 2.025 . S
Sc89 O99 2.105 . S
Sc89 O103 2.105 . S
Sc89 O105 2.105 . S
Sc89 O109 2.105 1_554 S
Sc90 O91 2.025 . S
Sc90 O100 2.105 1_554 S
Sc90 O102 2.105 . S
Sc90 O106 2.105 . S
Sc90 O108 2.105 1_554 S
O91 Sc88 2.025 . S
O91 Sc89 2.025 . S
O91 Sc90 2.025 . S
C92 O98 1.268 . S
C92 O108 1.268 1_554 S
C93 O99 1.268 . S
C93 O107 1.268 . S
C94 O100 1.268 . S
C94 O109 1.268 . S
C95 O101 1.268 . S
C95 O105 1.268 . S
C96 O102 1.268 . S
C96 O104 1.268 . S
C97 O103 1.268 . S
C97 O106 1.268 . S
O98 Sc88 2.105 . S
O98 C92 1.268 . S
O99 Sc89 2.105 . S
O99 C93 1.268 . S
O100 Sc90 2.105 1_556 S
O100 C94 1.268 . S
O101 Sc88 2.105 . S
O101 C95 1.268 . S
O102 Sc90 2.105 . S
O102 C96 1.268 . S
O103 Sc89 2.105 . S
O103 C97 1.268 . S
O104 Sc88 2.105 . S
O104 C96 1.268 . S
O105 Sc89 2.105 . S
O105 C95 1.268 . S
O106 Sc90 2.105 . S
O106 C97 1.268 . S
O107 Sc88 2.105 . S
O107 C93 1.268 . S
O108 Sc90 2.105 1_556 S
O108 C92 1.268 1_556 S
O109 Sc89 2.105 1_556 S
O109 C94 1.268 . S
Sc110 O113 2.025 . S
Sc110 O120 2.105 . S
Sc110 O123 2.105 . S
Sc110 O126 2.105 . S
Sc110 O129 2.105 . S
Sc111 O113 2.025 . S
Sc111 O121 2.105 . S
Sc111 O125 2.105 . S
Sc111 O127 2.105 . S
Sc111 O131 2.105 . S
Sc112 O113 2.025 . S
Sc112 O122 2.105 . S
Sc112 O124 2.105 . S
Sc112 O128 2.105 . S
Sc112 O130 2.105 . S
O113 Sc110 2.025 . S
O113 Sc111 2.025 . S
O113 Sc112 2.025 . S
C114 O120 1.268 . S
C114 O130 1.268 . S
C115 O121 1.268 . S
C115 O129 1.268 . S
C116 O122 1.268 . S
C116 O131 1.268 . S
C117 O123 1.268 . S
C117 O127 1.268 . S
C118 O124 1.268 . S
C118 O126 1.268 . S
C119 O125 1.268 . S
C119 O128 1.268 . S
O120 Sc110 2.105 . S
O120 C114 1.268 . S
O121 Sc111 2.105 . S
O121 C115 1.268 . S
O122 Sc112 2.105 . S
O122 C116 1.268 . S
O123 Sc110 2.105 . S
O123 C117 1.268 . S
O124 Sc112 2.105 . S
O124 C118 1.268 . S
O125 Sc111 2.105 . S
O125 C119 1.268 . S
O126 Sc110 2.105 . S
O126 C118 1.268 . S
O127 Sc111 2.105 . S
O127 C117 1.268 . S
O128 Sc112 2.105 . S
O128 C119 1.268 . S
O129 Sc110 2.105 . S
O129 C115 1.268 . S
O130 Sc112 2.105 . S
O130 C114 1.268 . S
O131 Sc111 2.105 . S
O131 C116 1.268 . S
Sc132 O135 2.025 . S
Sc132 O142 2.105 . S
Sc132 O145 2.105 . S
Sc132 O148 2.105 . S
Sc132 O151 2.105 . S
Sc133 O135 2.025 . S
Sc133 O143 2.105 . S
Sc133 O147 2.105 1_556 S
Sc133 O149 2.105 . S
Sc133 O153 2.105 . S
Sc134 O135 2.025 . S
Sc134 O144 2.105 . S
Sc134 O146 2.105 1_556 S
Sc134 O150 2.105 1_556 S
Sc134 O152 2.105 . S
O135 Sc132 2.025 . S
O135 Sc133 2.025 . S
O135 Sc134 2.025 . S
C136 O142 1.268 . S
C136 O152 1.268 . S
C137 O143 1.268 . S
C137 O151 1.268 . S
C138 O144 1.268 . S
C138 O153 1.268 . S
C139 O145 1.268 . S
C139 O149 1.268 . S
C140 O146 1.268 1_556 S
C140 O148 1.268 . S
C141 O147 1.268 . S
C141 O150 1.268 . S
O142 Sc132 2.105 . S
O142 C136 1.268 . S
O143 Sc133 2.105 . S
O143 C137 1.268 . S
O144 Sc134 2.105 . S
O144 C138 1.268 . S
O145 Sc132 2.105 . S
O145 C139 1.268 . S
O146 Sc134 2.105 1_554 S
O146 C140 1.268 1_554 S
O147 Sc133 2.105 1_554 S
O147 C141 1.268 . S
O148 Sc132 2.105 . S
O148 C140 1.268 . S
O149 Sc133 2.105 . S
O149 C139 1.268 . S
O150 Sc134 2.105 1_554 S
O150 C141 1.268 . S
O151 Sc132 2.105 . S
O151 C137 1.268 . S
O152 Sc134 2.105 . S
O152 C136 1.268 . S
O153 Sc133 2.105 . S
O153 C138 1.268 . S
Sc154 O157 2.025 . S
Sc154 O164 2.105 . S
Sc154 O167 2.105 . S
Sc154 O170 2.105 . S
Sc154 O173 2.105 . S
Sc155 O157 2.025 . S
Sc155 O165 2.105 . S
Sc155 O169 2.105 . S
Sc155 O171 2.105 . S
Sc155 O175 2.105 . S
Sc156 O157 2.025 . S
Sc156 O166 2.105 . S
Sc156 O168 2.105 . S
Sc156 O172 2.105 . S
Sc156 O174 2.105 . S
O157 Sc154 2.025 . S
O157 Sc155 2.025 . S
O157 Sc156 2.025 . S
C158 O164 1.268 . S
C158 O174 1.268 . S
C159 O165 1.268 . S
C159 O173 1.268 . S
C160 O166 1.268 . S
C160 O175 1.268 . S
C161 O167 1.268 . S
C161 O171 1.268 . S
C162 O168 1.268 . S
C162 O170 1.268 . S
C163 O169 1.268 . S
C163 O172 1.268 . S
O164 Sc154 2.105 . S
O164 C158 1.268 . S
O165 Sc155 2.105 . S
O165 C159 1.268 . S
O166 Sc156 2.105 . S
O166 C160 1.268 . S
O167 Sc154 2.105 . S
O167 C161 1.268 . S
O168 Sc156 2.105 . S
O168 C162 1.268 . S
O169 Sc155 2.105 . S
O169 C163 1.268 . S
O170 Sc154 2.105 . S
O170 C162 1.268 . S
O171 Sc155 2.105 . S
O171 C161 1.268 . S
O172 Sc156 2.105 . S
O172 C163 1.268 . S
O173 Sc154 2.105 . S
O173 C159 1.268 . S
O174 Sc156 2.105 . S
O174 C158 1.268 . S
O175 Sc155 2.105 . S
O175 C160 1.268 . S
C176 C177 1.369 . S
C176 C178 1.419 . S
C176 H180 0.930 . S
C177 C176 1.369 . S
C177 C186 1.429 . S
C178 C176 1.419 . S
C178 C179 1.363 . S
C178 H181 0.929 . S
C179 C178 1.363 . S
C179 C185 1.428 1_545 S
H180 C176 0.930 . S
H181 C178 0.929 . S
S182 N183 1.613 . S
S182 N184 1.610 . S
N183 S182 1.613 . S
N183 C186 1.350 1_565 S
N184 S182 1.610 . S
N184 C185 1.351 . S
C185 C179 1.428 1_565 S
C185 N184 1.351 . S
C185 C186 1.434 1_565 S
C186 C177 1.429 . S
C186 N183 1.350 1_545 S
C186 C185 1.434 1_545 S
C187 C188 1.375 . S
C187 C189 1.425 . S
C187 H191 0.918 1_545 S
C188 C187 1.375 . S
C188 C197 1.429 . S
C189 C187 1.425 . S
C189 C190 1.363 . S
C189 H192 0.929 . S
C190 C189 1.363 . S
C190 C196 1.428 . S
H191 C187 0.918 1_565 S
H192 C189 0.929 . S
S193 N194 1.613 . S
S193 N195 1.610 . S
N194 S193 1.613 . S
N194 C197 1.350 . S
N195 S193 1.610 . S
N195 C196 1.351 . S
C196 C190 1.428 . S
C196 N195 1.351 . S
C196 C197 1.434 . S
C197 C188 1.429 . S
C197 N194 1.350 . S
C197 C196 1.434 . S
C198 C199 1.369 . S
C198 C200 1.419 . S
C198 H202 0.930 . S
C199 C198 1.369 . S
C199 C208 1.429 1_565 S
C200 C198 1.419 . S
C200 C201 1.363 . S
C200 H203 0.929 . S
C201 C200 1.363 . S
C201 C207 1.428 . S
H202 C198 0.930 . S
H203 C200 0.929 . S
S204 N205 1.613 . S
S204 N206 1.610 . S
N205 S204 1.613 . S
N205 C208 1.350 . S
N206 S204 1.610 . S
N206 C207 1.351 1_545 S
C207 C201 1.428 . S
C207 N206 1.351 1_565 S
C207 C208 1.434 1_565 S
C208 C199 1.429 1_545 S
C208 N205 1.350 . S
C208 C207 1.434 1_545 S
C209 C210 1.369 . S
C209 C211 1.419 . S
C209 H213 0.930 . S
C210 C209 1.369 . S
C210 C219 1.429 1_565 S
C211 C209 1.419 . S
C211 C212 1.363 . S
C211 H214 0.929 . S
C212 C211 1.363 . S
C212 C218 1.428 . S
H213 C209 0.930 . S
H214 C211 0.929 . S
S215 N216 1.613 . S
S215 N217 1.610 . S
N216 S215 1.613 . S
N216 C219 1.350 . S
N217 S215 1.610 . S
N217 C218 1.351 1_545 S
C218 C212 1.428 . S
C218 N217 1.351 1_565 S
C218 C219 1.434 1_565 S
C219 C210 1.429 1_545 S
C219 N216 1.350 . S
C219 C218 1.434 1_545 S
C220 C221 1.369 . S
C220 C222 1.419 . S
C220 H224 0.930 . S
C221 C220 1.369 . S
C221 C230 1.429 . S
C222 C220 1.419 . S
C222 C223 1.363 . S
C222 H225 0.929 . S
C223 C222 1.363 . S
C223 C229 1.428 . S
H224 C220 0.930 . S
H225 C222 0.929 . S
S226 N227 1.613 . S
S226 N228 1.610 . S
N227 S226 1.613 . S
N227 C230 1.350 . S
N228 S226 1.610 . S
N228 C229 1.351 . S
C229 C223 1.428 . S
C229 N228 1.351 . S
C229 C230 1.434 . S
C230 C221 1.429 . S
C230 N227 1.350 . S
C230 C229 1.434 . S
C231 C232 1.369 . S
C231 C233 1.419 . S
C231 H235 0.930 . S
C232 C231 1.369 . S
C232 C241 1.429 . S
C233 C231 1.419 . S
C233 C234 1.363 . S
C233 H236 0.929 . S
C234 C233 1.363 . S
C234 C240 1.428 . S
H235 C231 0.930 . S
H236 C233 0.929 . S
S237 N238 1.613 . S
S237 N239 1.610 . S
N238 S237 1.613 . S
N238 C241 1.350 . S
N239 S237 1.610 . S
N239 C240 1.351 . S
C240 C234 1.428 . S
C240 N239 1.351 . S
C240 C241 1.434 . S
C241 C232 1.429 . S
C241 N238 1.350 . S
C241 C240 1.434 . S
C242 C243 1.369 . S
C242 C244 1.419 . S
C242 H246 0.930 . S
C243 C242 1.369 . S
C243 C252 1.429 . S
C244 C242 1.419 . S
C244 C245 1.363 . S
C244 H247 0.929 . S
C245 C244 1.363 . S
C245 C251 1.428 . S
H246 C242 0.930 . S
H247 C244 0.929 . S
S248 N249 1.613 . S
S248 N250 1.610 . S
N249 S248 1.613 . S
N249 C252 1.350 . S
N250 S248 1.610 . S
N250 C251 1.351 . S
C251 C245 1.428 . S
C251 N250 1.351 . S
C251 C252 1.434 . S
C252 C243 1.429 . S
C252 N249 1.350 . S
C252 C251 1.434 . S
C253 C254 1.369 . S
C253 C255 1.419 . S
C253 H257 0.930 . S
C254 C253 1.369 . S
C254 C263 1.429 . S
C255 C253 1.419 . S
C255 C256 1.363 . S
C255 H258 0.929 . S
C256 C255 1.363 . S
C256 C262 1.428 . S
H257 C253 0.930 . S
H258 C255 0.929 . S
S259 N260 1.613 . S
S259 N261 1.610 . S
N260 S259 1.613 . S
N260 C263 1.350 . S
N261 S259 1.610 . S
N261 C262 1.351 . S
C262 C256 1.428 . S
C262 N261 1.351 . S
C262 C263 1.434 . S
C263 C254 1.429 . S
C263 N260 1.350 . S
C263 C262 1.434 . S
C264 C265 1.369 1_545 S
C264 C266 1.419 . S
C264 H268 0.930 . S
C265 C264 1.369 1_565 S
C265 C274 1.429 1_554 S
C266 C264 1.419 . S
C266 C267 1.363 1_554 S
C266 H269 0.929 . S
C267 C266 1.363 1_556 S
C267 C273 1.428 1_545 S
H268 C264 0.930 . S
H269 C266 0.929 . S
S270 N271 1.613 . S
S270 N272 1.610 . S
N271 S270 1.613 . S
N271 C274 1.350 . S
N272 S270 1.610 . S
N272 C273 1.351 . S
C273 C267 1.428 1_565 S
C273 N272 1.351 . S
C273 C274 1.434 . S
C274 C265 1.429 1_556 S
C274 N271 1.350 . S
C274 C273 1.434 . S
C275 C276 1.369 1_565 S
C275 C277 1.419 . S
C275 H279 0.930 . S
C276 C275 1.369 1_545 S
C276 C285 1.429 . S
C277 C275 1.419 . S
C277 C278 1.363 . S
C277 H280 0.929 . S
C278 C277 1.363 . S
C278 C284 1.428 1_565 S
H279 C275 0.930 . S
H280 C277 0.929 . S
S281 N282 1.613 . S
S281 N283 1.610 . S
N282 S281 1.613 . S
N282 C285 1.350 . S
N283 S281 1.610 . S
N283 C284 1.351 . S
C284 C278 1.428 1_545 S
C284 N283 1.351 . S
C284 C285 1.434 . S
C285 C276 1.429 . S
C285 N282 1.350 . S
C285 C284 1.434 . S
C286 C287 1.369 1_556 S
C286 C288 1.419 1_655 S
C286 H290 0.930 . S
C287 C286 1.369 1_554 S
C287 C296 1.428 . S
C288 C286 1.419 1_455 S
C288 C289 1.363 . S
C288 H291 0.929 . S
C289 C288 1.363 . S
C289 C295 1.428 1_556 S
H290 C286 0.930 . S
H291 C288 0.929 . S
S292 N293 1.613 . S
S292 N294 1.610 . S
N293 S292 1.613 . S
N293 C296 1.350 1_455 S
N294 S292 1.610 . S
N294 C295 1.351 . S
C295 C289 1.428 1_554 S
C295 N294 1.351 . S
C295 C296 1.435 1_455 S
C296 C287 1.428 . S
C296 N293 1.350 1_655 S
C296 C295 1.435 1_655 S
C297 C298 1.369 . S
C297 C299 1.419 1_455 S
C297 H301 0.930 . S
C298 C297 1.369 . S
C298 C307 1.429 . S
C299 C297 1.419 1_655 S
C299 C300 1.363 . S
C299 H302 0.929 . S
C300 C299 1.363 . S
C300 C306 1.428 . S
H301 C297 0.930 . S
H302 C299 0.929 . S
S303 N304 1.613 1_655 S
S303 N305 1.610 . S
N304 S303 1.613 1_455 S
N304 C307 1.350 . S
N305 S303 1.610 . S
N305 C306 1.351 . S
C306 C300 1.428 . S
C306 N305 1.351 . S
C306 C307 1.434 1_655 S
C307 C298 1.429 . S
C307 N304 1.350 . S
C307 C306 1.434 1_455 S
C308 C309 1.369 1_556 S
C308 C310 1.419 1_445 S
C308 H312 0.930 . S
C309 C308 1.369 1_554 S
C309 C318 1.429 . S
C310 C308 1.419 1_665 S
C310 C311 1.363 . S
C310 H313 0.929 . S
C311 C310 1.363 . S
C311 C317 1.428 1_556 S
H312 C308 0.930 . S
H313 C310 0.929 . S
S314 N315 1.613 1_655 S
S314 N316 1.610 1_545 S
N315 S314 1.613 1_455 S
N315 C318 1.350 . S
N316 S314 1.610 1_565 S
N316 C317 1.351 . S
C317 C311 1.428 1_554 S
C317 N316 1.351 . S
C317 C318 1.434 1_665 S
C318 C309 1.429 . S
C318 N315 1.350 . S
C318 C317 1.434 1_445 S
C319 C320 1.369 1_455 S
C319 C321 1.419 . S
C319 H323 0.930 . S
C320 C319 1.369 1_655 S
C320 C329 1.429 1_545 S
C321 C319 1.419 . S
C321 C322 1.363 1_545 S
C321 H324 0.929 . S
C322 C321 1.363 1_565 S
C322 C328 1.428 1_455 S
H323 C319 0.930 . S
H324 C321 0.929 . S
S325 N326 1.613 . S
S325 N327 1.610 . S
N326 S325 1.613 . S
N326 C329 1.350 . S
N327 S325 1.610 . S
N327 C328 1.351 . S
C328 C322 1.428 1_655 S
C328 N327 1.351 . S
C328 C329 1.434 . S
C329 C320 1.429 1_565 S
C329 N326 1.350 . S
C329 C328 1.434 . S
C330 C331 1.369 . S
C330 C332 1.419 1_556 S
C330 H334 0.930 . S
C331 C330 1.369 . S
C331 C340 1.429 . S
C332 C330 1.419 1_554 S
C332 C333 1.363 . S
C332 H335 0.929 . S
C333 C332 1.363 . S
C333 C339 1.428 . S
H334 C330 0.930 . S
H335 C332 0.929 . S
S336 N337 1.613 1_554 S
S336 N338 1.610 . S
N337 S336 1.613 1_556 S
N337 C340 1.350 . S
N338 S336 1.610 . S
N338 C339 1.351 . S
C339 C333 1.428 . S
C339 N338 1.351 . S
C339 C340 1.434 1_554 S
C340 C331 1.429 . S
C340 N337 1.350 . S
C340 C339 1.434 1_556 S
C341 C342 1.369 . S
C341 C343 1.419 . S
C341 H345 0.930 . S
C342 C341 1.369 . S
C342 C351 1.429 . S
C343 C341 1.419 . S
C343 C344 1.363 . S
C343 H346 0.929 . S
C344 C343 1.363 . S
C344 C350 1.428 . S
H345 C341 0.930 . S
H346 C343 0.929 . S
S347 N348 1.613 . S
S347 N349 1.610 . S
N348 S347 1.613 . S
N348 C351 1.350 . S
N349 S347 1.610 . S
N349 C350 1.351 . S
C350 C344 1.428 . S
C350 N349 1.351 . S
C350 C351 1.434 . S
C351 C342 1.429 . S
C351 N348 1.350 . S
C351 C350 1.434 . S
C352 C353 1.369 . S
C352 C354 1.419 . S
C352 H356 0.930 . S
C353 C352 1.369 . S
C353 C362 1.429 . S
C354 C352 1.419 . S
C354 C355 1.363 . S
C354 H357 0.929 . S
C355 C354 1.363 . S
C355 C361 1.428 . S
H356 C352 0.930 . S
H357 C354 0.929 . S
S358 N359 1.613 . S
S358 N360 1.610 . S
N359 S358 1.613 . S
N359 C362 1.350 . S
N360 S358 1.610 . S
N360 C361 1.351 . S
C361 C355 1.428 . S
C361 N360 1.351 . S
C361 C362 1.434 . S
C362 C353 1.429 . S
C362 N359 1.350 . S
C362 C361 1.434 . S
C363 C364 1.369 . S
C363 C365 1.419 . S
C363 H367 0.930 . S
C364 C363 1.369 . S
C364 C373 1.429 . S
C365 C363 1.419 . S
C365 C366 1.363 . S
C365 H368 0.929 . S
C366 C365 1.363 . S
C366 C372 1.428 . S
H367 C363 0.930 . S
H368 C365 0.929 . S
S369 N370 1.613 . S
S369 N371 1.610 . S
N370 S369 1.613 . S
N370 C373 1.350 . S
N371 S369 1.610 . S
N371 C372 1.351 . S
C372 C366 1.428 . S
C372 N371 1.351 . S
C372 C373 1.434 . S
C373 C364 1.429 . S
C373 N370 1.350 . S
C373 C372 1.434 . S
C374 C375 1.369 . S
C374 C376 1.419 . S
C374 H378 0.930 . S
C375 C374 1.369 . S
C375 C384 1.429 1_655 S
C376 C374 1.419 . S
C376 C377 1.363 1_655 S
C376 H379 0.929 . S
C377 C376 1.363 1_455 S
C377 C383 1.428 . S
H378 C374 0.930 . S
H379 C376 0.929 . S
S380 N381 1.613 . S
S380 N382 1.610 . S
N381 S380 1.613 . S
N381 C384 1.350 . S
N382 S380 1.610 . S
N382 C383 1.351 . S
C383 C377 1.428 . S
C383 N382 1.351 . S
C383 C384 1.434 . S
C384 C375 1.429 1_455 S
C384 N381 1.350 . S
C384 C383 1.434 . S
C385 C386 1.369 . S
C385 C387 1.419 . S
C385 H389 0.930 . S
C386 C385 1.369 . S
C386 C395 1.429 1_655 S
C387 C385 1.419 . S
C387 C388 1.363 1_655 S
C387 H390 0.929 . S
C388 C387 1.363 1_455 S
C388 C394 1.428 . S
H389 C385 0.930 . S
H390 C387 0.929 . S
S391 N392 1.613 . S
S391 N393 1.610 . S
N392 S391 1.613 . S
N392 C395 1.350 . S
N393 S391 1.610 . S
N393 C394 1.351 . S
C394 C388 1.428 . S
C394 N393 1.351 . S
C394 C395 1.434 . S
C395 C386 1.429 1_455 S
C395 N392 1.350 . S
C395 C394 1.434 . S
C396 C397 1.369 . S
C396 C398 1.419 . S
C396 H400 0.930 . S
C397 C396 1.369 . S
C397 C406 1.429 1_554 S
C398 C396 1.419 . S
C398 C399 1.363 1_554 S
C398 H401 0.929 . S
C399 C398 1.363 1_556 S
C399 C405 1.428 . S
H400 C396 0.930 . S
H401 C398 0.929 . S
S402 N403 1.613 . S
S402 N404 1.610 . S
N403 S402 1.613 . S
N403 C406 1.350 . S
N404 S402 1.610 . S
N404 C405 1.351 . S
C405 C399 1.428 . S
C405 N404 1.351 . S
C405 C406 1.434 . S
C406 C397 1.429 1_556 S
C406 N403 1.350 . S
C406 C405 1.434 . S
C407 C408 1.369 . S
C407 C409 1.419 . S
C407 H411 0.930 . S
C408 C407 1.369 . S
C408 C417 1.429 . S
C409 C407 1.419 . S
C409 C410 1.363 . S
C409 H412 0.929 . S
C410 C409 1.363 . S
C410 C416 1.428 . S
H411 C407 0.930 . S
H412 C409 0.929 . S
S413 N414 1.613 . S
S413 N415 1.610 . S
N414 S413 1.613 . S
N414 C417 1.350 . S
N415 S413 1.610 . S
N415 C416 1.351 . S
C416 C410 1.428 . S
C416 N415 1.351 . S
C416 C417 1.434 . S
C417 C408 1.429 . S
C417 N414 1.350 . S
C417 C416 1.434 . S
C418 C419 1.369 1_554 S
C418 C420 1.419 . S
C418 H422 0.930 . S
C419 C418 1.369 1_556 S
C419 C428 1.429 . S
C420 C418 1.419 . S
C420 C421 1.363 . S
C420 H423 0.929 . S
C421 C420 1.363 . S
C421 C427 1.428 1_554 S
H422 C418 0.930 . S
H423 C420 0.929 . S
S424 N425 1.613 . S
S424 N426 1.610 . S
N425 S424 1.613 . S
N425 C428 1.350 . S
N426 S424 1.610 . S
N426 C427 1.351 . S
C427 C421 1.428 1_556 S
C427 N426 1.351 . S
C427 C428 1.434 . S
C428 C419 1.429 . S
C428 N425 1.350 . S
C428 C427 1.434 . S
C429 C430 1.369 . S
C429 C431 1.419 . S
C429 H433 0.930 . S
C430 C429 1.369 . S
C430 C439 1.429 . S
C431 C429 1.419 . S
C431 C432 1.363 . S
C431 H434 0.929 . S
C432 C431 1.363 . S
C432 C438 1.428 . S
H433 C429 0.930 . S
H434 C431 0.929 . S
S435 N436 1.613 . S
S435 N437 1.610 . S
N436 S435 1.613 . S
N436 C439 1.350 . S
N437 S435 1.610 . S
N437 C438 1.351 . S
C438 C432 1.428 . S
C438 N437 1.351 . S
C438 C439 1.434 . S
C439 C430 1.429 . S
C439 N436 1.350 . S
C439 C438 1.434 . S
C177 C6 1.339 . S
C179 C71 1.390 1_545 S
C188 C49 1.391 1_545 S
C190 C28 1.349 . S
C199 C29 1.392 1_565 S
C201 C53 1.340 . S
C210 C7 1.388 1_565 S
C212 C75 1.343 . S
C221 C159 1.394 . S
C223 C94 1.346 . S
C232 C116 1.343 . S
C234 C137 1.388 . S
C243 C117 1.388 . S
C245 C141 1.342 . S
C254 C95 1.387 . S
C256 C163 1.345 . S
C265 C9 0.966 1_565 S
C267 C50 0.958 1_545 S
C276 C72 0.972 1_545 S
C278 C31 0.952 1_565 S
C287 C97 0.972 . S
C289 C138 0.952 . S
C298 C119 0.956 . S
C300 C160 0.964 . S
C309 C5 2.026 . S
C311 C51 2.028 . S
C320 C27 2.024 . S
C322 C73 2.030 . S
C331 C139 2.023 . S
C333 C93 2.031 . S
C342 C161 2.025 . S
C344 C115 2.029 . S
C353 C8 1.765 . S
C355 C30 1.765 . S
C364 C48 1.764 . S
C366 C70 1.764 . S
C375 C96 1.763 . S
C377 C118 1.763 . S
C386 C158 1.763 . S
C388 C136 1.764 . S
C397 C4 1.445 . S
C399 C140 1.448 . S
C408 C26 1.449 . S
C410 C162 1.445 . S
C419 C52 1.446 . S
C421 C92 1.447 . S
C430 C114 1.442 . S
C432 C74 1.451 . S
