# Generated by pormake.
# Topology wne, (6)-cn, num edge types: 1
# Building blocks:
#     Node 0, Type 0, BuildingBlock: INOVEN_clean_sbu_0, # of connection points: 6
#     Node 1, Type 0, BuildingBlock: INOVEN_clean_sbu_0, # of connection points: 6
#     Node 2, Type 0, BuildingBlock: INOVEN_clean_sbu_0, # of connection points: 6
#     Node 3, Type 0, BuildingBlock: INOVEN_clean_sbu_0, # of connection points: 6
#     Node 4, Type 0, BuildingBlock: INOVEN_clean_sbu_0, # of connection points: 6
#     Node 5, Type 0, BuildingBlock: INOVEN_clean_sbu_0, # of connection points: 6
#     Node 6, Type 0, BuildingBlock: INOVEN_clean_sbu_0, # of connection points: 6
#     Node 7, Type 0, BuildingBlock: INOVEN_clean_sbu_0, # of connection points: 6
#     Node 8, Type 0, BuildingBlock: INOVEN_clean_sbu_0, # of connection points: 6
#     Node 9, Type 0, BuildingBlock: INOVEN_clean_sbu_0, # of connection points: 6
#     Node 10, Type 0, BuildingBlock: INOVEN_clean_sbu_0, # of connection points: 6
#     Node 11, Type 0, BuildingBlock: INOVEN_clean_sbu_0, # of connection points: 6
#     Node 12, Type 0, BuildingBlock: INOVEN_clean_sbu_0, # of connection points: 6
#     Node 13, Type 0, BuildingBlock: INOVEN_clean_sbu_0, # of connection points: 6
#     Node 14, Type 0, BuildingBlock: INOVEN_clean_sbu_0, # of connection points: 6
#     Node 15, Type 0, BuildingBlock: INOVEN_clean_sbu_0, # of connection points: 6
#     Node 16, Type 0, BuildingBlock: INOVEN_clean_sbu_0, # of connection points: 6
#     Node 17, Type 0, BuildingBlock: INOVEN_clean_sbu_0, # of connection points: 6
#     Node 18, Type 0, BuildingBlock: INOVEN_clean_sbu_0, # of connection points: 6
#     Node 19, Type 0, BuildingBlock: INOVEN_clean_sbu_0, # of connection points: 6
#     Node 20, Type 0, BuildingBlock: INOVEN_clean_sbu_0, # of connection points: 6
#     Node 21, Type 0, BuildingBlock: INOVEN_clean_sbu_0, # of connection points: 6
#     Node 22, Type 0, BuildingBlock: INOVEN_clean_sbu_0, # of connection points: 6
#     Node 23, Type 0, BuildingBlock: INOVEN_clean_sbu_0, # of connection points: 6
#     Node 24, Type 0, BuildingBlock: INOVEN_clean_sbu_0, # of connection points: 6
#     Node 25, Type 0, BuildingBlock: INOVEN_clean_sbu_0, # of connection points: 6
#     Node 26, Type 0, BuildingBlock: INOVEN_clean_sbu_0, # of connection points: 6
#     Node 27, Type 0, BuildingBlock: INOVEN_clean_sbu_0, # of connection points: 6
#     Node 28, Type 0, BuildingBlock: INOVEN_clean_sbu_0, # of connection points: 6
#     Node 29, Type 0, BuildingBlock: INOVEN_clean_sbu_0, # of connection points: 6
#     Node 30, Type 0, BuildingBlock: INOVEN_clean_sbu_0, # of connection points: 6
#     Node 31, Type 0, BuildingBlock: INOVEN_clean_sbu_0, # of connection points: 6
#     Node 32, Type 0, BuildingBlock: INOVEN_clean_sbu_0, # of connection points: 6
#     Node 33, Type 0, BuildingBlock: INOVEN_clean_sbu_0, # of connection points: 6
#     Node 34, Type 0, BuildingBlock: INOVEN_clean_sbu_0, # of connection points: 6
#     Node 35, Type 0, BuildingBlock: INOVEN_clean_sbu_0, # of connection points: 6
#     Edge 36, Type (0, 0), BuildingBlock: CIFDUS_clean_linker_0, # of connection points: 2
#     Edge 37, Type (0, 0), BuildingBlock: CIFDUS_clean_linker_0, # of connection points: 2
#     Edge 38, Type (0, 0), BuildingBlock: CIFDUS_clean_linker_0, # of connection points: 2
#     Edge 39, Type (0, 0), BuildingBlock: CIFDUS_clean_linker_0, # of connection points: 2
#     Edge 40, Type (0, 0), BuildingBlock: CIFDUS_clean_linker_0, # of connection points: 2
#     Edge 41, Type (0, 0), BuildingBlock: CIFDUS_clean_linker_0, # of connection points: 2
#     Edge 42, Type (0, 0), BuildingBlock: CIFDUS_clean_linker_0, # of connection points: 2
#     Edge 43, Type (0, 0), BuildingBlock: CIFDUS_clean_linker_0, # of connection points: 2
#     Edge 44, Type (0, 0), BuildingBlock: CIFDUS_clean_linker_0, # of connection points: 2
#     Edge 45, Type (0, 0), BuildingBlock: CIFDUS_clean_linker_0, # of connection points: 2
#     Edge 46, Type (0, 0), BuildingBlock: CIFDUS_clean_linker_0, # of connection points: 2
#     Edge 47, Type (0, 0), BuildingBlock: CIFDUS_clean_linker_0, # of connection points: 2
#     Edge 48, Type (0, 0), BuildingBlock: CIFDUS_clean_linker_0, # of connection points: 2
#     Edge 49, Type (0, 0), BuildingBlock: CIFDUS_clean_linker_0, # of connection points: 2
#     Edge 50, Type (0, 0), BuildingBlock: CIFDUS_clean_linker_0, # of connection points: 2
#     Edge 51, Type (0, 0), BuildingBlock: CIFDUS_clean_linker_0, # of connection points: 2
#     Edge 52, Type (0, 0), BuildingBlock: CIFDUS_clean_linker_0, # of connection points: 2
#     Edge 53, Type (0, 0), BuildingBlock: CIFDUS_clean_linker_0, # of connection points: 2
#     Edge 54, Type (0, 0), BuildingBlock: CIFDUS_clean_linker_0, # of connection points: 2
#     Edge 55, Type (0, 0), BuildingBlock: CIFDUS_clean_linker_0, # of connection points: 2
#     Edge 56, Type (0, 0), BuildingBlock: CIFDUS_clean_linker_0, # of connection points: 2
#     Edge 57, Type (0, 0), BuildingBlock: CIFDUS_clean_linker_0, # of connection points: 2
#     Edge 58, Type (0, 0), BuildingBlock: CIFDUS_clean_linker_0, # of connection points: 2
#     Edge 59, Type (0, 0), BuildingBlock: CIFDUS_clean_linker_0, # of connection points: 2
#     Edge 60, Type (0, 0), BuildingBlock: CIFDUS_clean_linker_0, # of connection points: 2
#     Edge 61, Type (0, 0), BuildingBlock: CIFDUS_clean_linker_0, # of connection points: 2
#     Edge 62, Type (0, 0), BuildingBlock: CIFDUS_clean_linker_0, # of connection points: 2
#     Edge 63, Type (0, 0), BuildingBlock: CIFDUS_clean_linker_0, # of connection points: 2
#     Edge 64, Type (0, 0), BuildingBlock: CIFDUS_clean_linker_0, # of connection points: 2
#     Edge 65, Type (0, 0), BuildingBlock: CIFDUS_clean_linker_0, # of connection points: 2
#     Edge 66, Type (0, 0), BuildingBlock: CIFDUS_clean_linker_0, # of connection points: 2
#     Edge 67, Type (0, 0), BuildingBlock: CIFDUS_clean_linker_0, # of connection points: 2
#     Edge 68, Type (0, 0), BuildingBlock: CIFDUS_clean_linker_0, # of connection points: 2
#     Edge 69, Type (0, 0), BuildingBlock: CIFDUS_clean_linker_0, # of connection points: 2
#     Edge 70, Type (0, 0), BuildingBlock: CIFDUS_clean_linker_0, # of connection points: 2
#     Edge 71, Type (0, 0), BuildingBlock: CIFDUS_clean_linker_0, # of connection points: 2
#     Edge 72, Type (0, 0), BuildingBlock: CIFDUS_clean_linker_0, # of connection points: 2
#     Edge 73, Type (0, 0), BuildingBlock: CIFDUS_clean_linker_0, # of connection points: 2
#     Edge 74, Type (0, 0), BuildingBlock: CIFDUS_clean_linker_0, # of connection points: 2
#     Edge 75, Type (0, 0), BuildingBlock: CIFDUS_clean_linker_0, # of connection points: 2
#     Edge 76, Type (0, 0), BuildingBlock: CIFDUS_clean_linker_0, # of connection points: 2
#     Edge 77, Type (0, 0), BuildingBlock: CIFDUS_clean_linker_0, # of connection points: 2
#     Edge 78, Type (0, 0), BuildingBlock: CIFDUS_clean_linker_0, # of connection points: 2
#     Edge 79, Type (0, 0), BuildingBlock: CIFDUS_clean_linker_0, # of connection points: 2
#     Edge 80, Type (0, 0), BuildingBlock: CIFDUS_clean_linker_0, # of connection points: 2
#     Edge 81, Type (0, 0), BuildingBlock: CIFDUS_clean_linker_0, # of connection points: 2
#     Edge 82, Type (0, 0), BuildingBlock: CIFDUS_clean_linker_0, # of connection points: 2
#     Edge 83, Type (0, 0), BuildingBlock: CIFDUS_clean_linker_0, # of connection points: 2
#     Edge 84, Type (0, 0), BuildingBlock: CIFDUS_clean_linker_0, # of connection points: 2
#     Edge 85, Type (0, 0), BuildingBlock: CIFDUS_clean_linker_0, # of connection points: 2
#     Edge 86, Type (0, 0), BuildingBlock: CIFDUS_clean_linker_0, # of connection points: 2
#     Edge 87, Type (0, 0), BuildingBlock: CIFDUS_clean_linker_0, # of connection points: 2
#     Edge 88, Type (0, 0), BuildingBlock: CIFDUS_clean_linker_0, # of connection points: 2
#     Edge 89, Type (0, 0), BuildingBlock: CIFDUS_clean_linker_0, # of connection points: 2
#     Edge 90, Type (0, 0), BuildingBlock: CIFDUS_clean_linker_0, # of connection points: 2
#     Edge 91, Type (0, 0), BuildingBlock: CIFDUS_clean_linker_0, # of connection points: 2
#     Edge 92, Type (0, 0), BuildingBlock: CIFDUS_clean_linker_0, # of connection points: 2
#     Edge 93, Type (0, 0), BuildingBlock: CIFDUS_clean_linker_0, # of connection points: 2
#     Edge 94, Type (0, 0), BuildingBlock: CIFDUS_clean_linker_0, # of connection points: 2
#     Edge 95, Type (0, 0), BuildingBlock: CIFDUS_clean_linker_0, # of connection points: 2
#     Edge 96, Type (0, 0), BuildingBlock: CIFDUS_clean_linker_0, # of connection points: 2
#     Edge 97, Type (0, 0), BuildingBlock: CIFDUS_clean_linker_0, # of connection points: 2
#     Edge 98, Type (0, 0), BuildingBlock: CIFDUS_clean_linker_0, # of connection points: 2
#     Edge 99, Type (0, 0), BuildingBlock: CIFDUS_clean_linker_0, # of connection points: 2
#     Edge 100, Type (0, 0), BuildingBlock: CIFDUS_clean_linker_0, # of connection points: 2
#     Edge 101, Type (0, 0), BuildingBlock: CIFDUS_clean_linker_0, # of connection points: 2
#     Edge 102, Type (0, 0), BuildingBlock: CIFDUS_clean_linker_0, # of connection points: 2
#     Edge 103, Type (0, 0), BuildingBlock: CIFDUS_clean_linker_0, # of connection points: 2
#     Edge 104, Type (0, 0), BuildingBlock: CIFDUS_clean_linker_0, # of connection points: 2
#     Edge 105, Type (0, 0), BuildingBlock: CIFDUS_clean_linker_0, # of connection points: 2
#     Edge 106, Type (0, 0), BuildingBlock: CIFDUS_clean_linker_0, # of connection points: 2
#     Edge 107, Type (0, 0), BuildingBlock: CIFDUS_clean_linker_0, # of connection points: 2
#     Edge 108, Type (0, 0), BuildingBlock: CIFDUS_clean_linker_0, # of connection points: 2
#     Edge 109, Type (0, 0), BuildingBlock: CIFDUS_clean_linker_0, # of connection points: 2
#     Edge 110, Type (0, 0), BuildingBlock: CIFDUS_clean_linker_0, # of connection points: 2
#     Edge 111, Type (0, 0), BuildingBlock: CIFDUS_clean_linker_0, # of connection points: 2
#     Edge 112, Type (0, 0), BuildingBlock: CIFDUS_clean_linker_0, # of connection points: 2
#     Edge 113, Type (0, 0), BuildingBlock: CIFDUS_clean_linker_0, # of connection points: 2
#     Edge 114, Type (0, 0), BuildingBlock: CIFDUS_clean_linker_0, # of connection points: 2
#     Edge 115, Type (0, 0), BuildingBlock: CIFDUS_clean_linker_0, # of connection points: 2
#     Edge 116, Type (0, 0), BuildingBlock: CIFDUS_clean_linker_0, # of connection points: 2
#     Edge 117, Type (0, 0), BuildingBlock: CIFDUS_clean_linker_0, # of connection points: 2
#     Edge 118, Type (0, 0), BuildingBlock: CIFDUS_clean_linker_0, # of connection points: 2
#     Edge 119, Type (0, 0), BuildingBlock: CIFDUS_clean_linker_0, # of connection points: 2
#     Edge 120, Type (0, 0), BuildingBlock: CIFDUS_clean_linker_0, # of connection points: 2
#     Edge 121, Type (0, 0), BuildingBlock: CIFDUS_clean_linker_0, # of connection points: 2
#     Edge 122, Type (0, 0), BuildingBlock: CIFDUS_clean_linker_0, # of connection points: 2
#     Edge 123, Type (0, 0), BuildingBlock: CIFDUS_clean_linker_0, # of connection points: 2
#     Edge 124, Type (0, 0), BuildingBlock: CIFDUS_clean_linker_0, # of connection points: 2
#     Edge 125, Type (0, 0), BuildingBlock: CIFDUS_clean_linker_0, # of connection points: 2
#     Edge 126, Type (0, 0), BuildingBlock: CIFDUS_clean_linker_0, # of connection points: 2
#     Edge 127, Type (0, 0), BuildingBlock: CIFDUS_clean_linker_0, # of connection points: 2
#     Edge 128, Type (0, 0), BuildingBlock: CIFDUS_clean_linker_0, # of connection points: 2
#     Edge 129, Type (0, 0), BuildingBlock: CIFDUS_clean_linker_0, # of connection points: 2
#     Edge 130, Type (0, 0), BuildingBlock: CIFDUS_clean_linker_0, # of connection points: 2
#     Edge 131, Type (0, 0), BuildingBlock: CIFDUS_clean_linker_0, # of connection points: 2
#     Edge 132, Type (0, 0), BuildingBlock: CIFDUS_clean_linker_0, # of connection points: 2
#     Edge 133, Type (0, 0), BuildingBlock: CIFDUS_clean_linker_0, # of connection points: 2
#     Edge 134, Type (0, 0), BuildingBlock: CIFDUS_clean_linker_0, # of connection points: 2
#     Edge 135, Type (0, 0), BuildingBlock: CIFDUS_clean_linker_0, # of connection points: 2
#     Edge 136, Type (0, 0), BuildingBlock: CIFDUS_clean_linker_0, # of connection points: 2
#     Edge 137, Type (0, 0), BuildingBlock: CIFDUS_clean_linker_0, # of connection points: 2
#     Edge 138, Type (0, 0), BuildingBlock: CIFDUS_clean_linker_0, # of connection points: 2
#     Edge 139, Type (0, 0), BuildingBlock: CIFDUS_clean_linker_0, # of connection points: 2
#     Edge 140, Type (0, 0), BuildingBlock: CIFDUS_clean_linker_0, # of connection points: 2
#     Edge 141, Type (0, 0), BuildingBlock: CIFDUS_clean_linker_0, # of connection points: 2
#     Edge 142, Type (0, 0), BuildingBlock: CIFDUS_clean_linker_0, # of connection points: 2
#     Edge 143, Type (0, 0), BuildingBlock: CIFDUS_clean_linker_0, # of connection points: 2
# Relax obj value: 0.397
# Max RMSD: 0.260
# Mean RMSD: 0.260
data_MOF--net-wne--node1-INOVEN_clean_sbu_0--edge1-CIFDUS_clean_linker_0
_symmetry_space_group_name_H-M    P1
_symmetry_Int_Tables_number       1
_symmetry_cell_setting            triclinic
loop_
_symmetry_equiv_pos_as_xyz
'x, y, z'
_cell_length_a     78.156868
_cell_length_b     77.995479
_cell_length_c     27.396743
_cell_angle_alpha  89.978979
_cell_angle_beta   90.216234
_cell_angle_gamma 119.97544
loop_
_atom_site_label
_atom_site_type_symbol
_atom_site_fract_x
_atom_site_fract_y
_atom_site_fract_z
_atom_type_partial_charge
Gd0 Gd 0.30353 0.20853 0.10301 0.0
Gd1 Gd 0.32888 0.24997 0.11739 0.0
C2 C 0.34678 0.22199 0.15165 0.0
C3 C 0.28561 0.17028 0.08398 0.0
C4 C 0.2863 0.15157 0.07208 0.0
C5 C 0.27791 0.13525 0.10423 0.0
C6 C 0.29292 0.14867 0.02662 0.0
C7 C 0.28251 0.11374 0.04575 0.0
C8 C 0.29114 0.13023 1.01385 0.0
C9 C 0.27607 0.11678 0.09143 0.0
C10 C 0.29065 0.22481 0.17744 0.0
C11 C 0.28741 0.23602 0.06172 0.0
C12 C 0.34607 0.28643 0.14452 0.0
C13 C 0.33938 0.30027 0.1303 0.0
C14 C 0.32749 0.29617 0.0885 0.0
C15 C 0.34281 0.31619 0.16031 0.0
C16 C 0.32357 0.32457 0.10472 0.0
C17 C 0.33512 0.32839 0.14739 0.0
C18 C 0.31943 0.30797 0.07625 0.0
C19 C 0.33671 0.24001 0.02674 0.0
O20 O 0.3299 0.20725 0.13497 0.0
O21 O 0.34974 0.24034 0.15104 0.0
O22 O 0.28979 0.1777 0.12821 0.0
O23 O 0.2907 0.18407 0.05069 0.0
O24 O 0.27937 0.21137 0.14619 0.0
O25 O 0.30801 0.22801 0.1691 0.0
O26 O 0.30045 0.24897 0.09262 0.0
O27 O 0.28837 0.21992 0.05131 0.0
O28 O 0.35284 0.28027 0.10924 0.0
O29 O 0.33366 0.272 0.17216 0.0
O30 O 0.3321 0.25355 0.03558 0.0
O31 O 0.33303 0.22989 0.06623 0.0
H32 H 0.27231 0.13661 0.13925 0.0
H33 H 0.29913 0.16056 1.00019 0.0
H34 H 0.29609 0.12882 0.97802 0.0
H35 H 0.26957 0.10486 0.11771 0.0
H36 H 0.3245 0.28385 0.06494 0.0
H37 H 0.35159 0.31932 0.19327 0.0
H38 H 0.33894 0.34125 0.16978 0.0
H39 H 0.31043 0.30443 0.04357 0.0
Gd40 Gd 0.88074 0.11557 0.10656 0.0
Gd41 Gd 0.83641 0.09747 0.115 0.0
C42 C 0.865 0.14311 0.15652 0.0
C43 C 0.91835 0.13572 0.08314 0.0
C44 C 0.93794 0.15446 0.07379 0.0
C45 C 0.95335 0.16035 0.10823 0.0
C46 C 0.94259 0.16525 0.02964 0.0
C47 C 0.97757 0.18645 0.05432 0.0
C48 C 0.96202 0.18111 0.0203 0.0
C49 C 0.97266 0.17589 0.09872 0.0
C50 C 0.86626 0.08658 0.18277 0.0
C51 C 0.85356 0.0714 0.0637 0.0
C52 C 0.80039 0.07887 0.1454 0.0
C53 C 0.78668 0.05744 0.14717 0.0
C54 C 0.76635 0.04997 0.15137 0.0
C55 C 0.7937 0.04446 0.13636 0.0
C56 C 0.76032 1.01758 0.12495 0.0
C57 C 0.78066 1.02469 0.1251 0.0
C58 C 0.7532 1.03006 0.14066 0.0
C59 C 0.84928 0.11896 0.02996 0.0
O60 O 0.88032 0.14154 0.14239 0.0
O61 O 0.84668 0.12781 0.15174 0.0
O62 O 0.91168 0.13185 0.12792 0.0
O63 O 0.90405 0.12815 0.05045 0.0
O64 O 0.88464 0.09797 0.17097 0.0
O65 O 0.85737 0.09249 0.15472 0.0
O66 O 0.83893 0.07114 0.0885 0.0
O67 O 0.87047 0.08829 0.05799 0.0
O68 O 0.80527 0.08598 0.10122 0.0
O69 O 0.8156 0.08566 0.17493 0.0
O70 O 0.83446 0.10104 0.0341 0.0
O71 O 0.85838 0.12349 0.07157 0.0
H72 H 0.95065 0.15242 0.14238 0.0
H73 H 0.93136 0.16114 1.00173 0.0
H74 H 0.96505 0.18866 0.98553 0.0
H75 H 0.98393 0.17947 0.12627 0.0
H76 H 0.76063 0.05976 0.15938 0.0
H77 H 0.80925 0.04991 0.13284 0.0
H78 H 0.78646 1.0154 0.1128 0.0
H79 H 0.73751 1.02495 0.14006 0.0
Gd80 Gd 0.97528 0.78486 0.09753 0.0
Gd81 Gd 0.98708 0.75792 0.12806 0.0
C82 C 0.94135 0.74452 0.15006 0.0
C83 C 0.95729 0.80402 0.06817 0.0
C84 C 0.9379 0.80324 0.05609 0.0
C85 C 0.92703 0.80673 0.09196 0.0
C86 C 0.93131 0.8015 1.0074 0.0
C87 C 0.90373 0.80678 0.03077 0.0
C88 C 0.91461 0.80317 0.99505 0.0
C89 C 0.91031 0.80843 0.07961 0.0
C90 C 1.00423 0.80012 0.17207 0.0
C91 C 1.01806 0.79523 0.06242 0.0
C92 C 1.00011 0.73987 0.18264 0.0
C93 C 1.02049 0.74696 0.19856 0.0
C94 C 1.02699 0.73342 0.20591 0.0
C95 C 1.03436 0.76728 0.1959 0.0
C96 C 0.06096 0.75985 0.19518 0.0
C97 C 0.05452 0.77373 0.19432 0.0
C98 C 1.04714 0.73985 0.20476 0.0
C99 C 0.97186 0.74674 0.03558 0.0
O100 O 0.94683 0.76275 0.13594 0.0
O101 O 0.95438 0.73839 0.14848 0.0
O102 O 0.96149 0.80264 0.11377 0.0
O103 O 0.96431 0.79587 0.03845 0.0
O104 O 1.00374 0.80988 0.13433 0.0
O105 O 0.98884 0.7831 0.16915 0.0
O106 O 1.0166 0.78338 0.09895 0.0
O107 O 1.00179 0.79501 0.04749 0.0
O108 O 0.9973 0.73685 0.13572 0.0
O109 O 0.99176 0.74943 0.20016 0.0
O110 O 0.98788 0.74766 0.05218 0.0
O111 O 0.96504 0.7535 0.06866 0.0
H112 H 0.93166 0.80854 0.12982 0.0
H113 H 0.93938 0.79932 0.97832 0.0
H114 H 0.91059 0.80215 0.95688 0.0
H115 H 0.90249 0.81099 0.10864 0.0
H116 H 1.01648 0.7177 0.2079 0.0
H117 H 1.02955 0.77792 0.18997 0.0
H118 H 0.06483 0.78919 0.18698 0.0
H119 H 1.05161 0.72875 0.20534 0.0
Gd120 Gd 0.22506 0.28778 0.43386 0.0
Gd121 Gd 0.26936 0.31437 0.42119 0.0
C122 C 0.23997 0.33144 0.38554 0.0
C123 C 0.18783 0.26982 0.46034 0.0
C124 C 0.16842 0.26799 0.47623 0.0
C125 C 0.16169 0.28081 0.45995 0.0
C126 C 0.15518 0.25142 0.50388 0.0
C127 C 0.12873 0.25982 0.49658 0.0
C128 C 0.13578 0.24737 0.51365 0.0
C129 C 0.14225 0.2769 0.47042 0.0
C130 C 0.23902 0.27318 0.35663 0.0
C131 C 0.25338 0.27138 0.47344 0.0
C132 C 0.30441 0.33211 0.38455 0.0
C133 C 0.31871 0.32531 0.37835 0.0
C134 C 0.33788 0.33844 0.3625 0.0
C135 C 0.31396 0.30635 0.39434 0.0
C136 C 0.34822 0.31499 0.38739 0.0
C137 C 0.32858 0.30118 0.39877 0.0
C138 C 0.35257 0.33328 0.36675 0.0
C139 C 0.2579 0.32168 0.50927 0.0
O140 O 0.2249 0.31451 0.40071 0.0
O141 O 0.25832 0.33441 0.38795 0.0
O142 O 0.19399 0.27547 0.41566 0.0
O143 O 0.20238 0.27423 0.49128 0.0
O144 O 0.22073 0.26588 0.36983 0.0
O145 O 0.24781 0.28822 0.38381 0.0
O146 O 0.26754 0.28558 0.44689 0.0
O147 O 0.23657 0.27142 0.48107 0.0
O148 O 0.30074 0.33424 0.42999 0.0
O149 O 0.28841 0.32312 0.35777 0.0
O150 O 0.27345 0.32011 0.50146 0.0
O151 O 0.24787 0.31777 0.46915 0.0
H152 H 0.17129 0.29361 0.43808 0.0
H153 H 0.15963 0.24108 0.5167 0.0
H154 H 0.12614 0.23421 0.53432 0.0
H155 H 0.13756 0.28687 0.45629 0.0
H156 H 0.3418 0.35314 0.35004 0.0
H157 H 0.29927 0.29601 0.40664 0.0
H158 H 0.32484 0.28702 0.41477 0.0
H159 H 0.36765 0.34434 0.35825 0.0
Gd160 Gd 0.80324 0.95881 0.44119 0.0
Gd161 Gd 0.77586 0.97154 0.41899 0.0
C162 C 0.76146 0.92571 0.39266 0.0
C163 C 0.82318 0.94071 0.46323 0.0
C164 C 0.82478 0.9222 0.47089 0.0
C165 C 0.83666 0.91833 0.43926 0.0
C166 C 0.81681 0.90959 0.51177 0.0
C167 C 0.83323 0.89049 0.48963 0.0
C168 C 0.8208 0.89395 0.5207 0.0
C169 C 0.84079 0.90291 0.44836 0.0
C170 C 0.81627 0.98775 0.36636 0.0
C171 C 0.81556 1.0018 0.47899 0.0
C172 C 0.75699 0.98636 0.37485 0.0
C173 C 0.76403 1.00745 0.36694 0.0
C174 C 0.75052 1.01418 0.36361 0.0
C175 C 0.78428 1.02121 0.37228 0.0
C176 C 0.77687 0.04762 0.38206 0.0
C177 C 0.79066 0.04117 0.38033 0.0
C178 C 0.75695 1.03424 0.37061 0.0
C179 C 0.76841 0.9571 0.51212 0.0
O180 O 0.77975 0.93072 0.40463 0.0
O181 O 0.75573 0.93905 0.39629 0.0
O182 O 0.82105 0.94566 0.41895 0.0
O183 O 0.81471 0.94635 0.49577 0.0
O184 O 0.82725 0.98686 0.40072 0.0
O185 O 0.79924 0.97265 0.37248 0.0
O186 O 0.80271 1.00053 0.44546 0.0
O187 O 0.81555 0.98543 0.49198 0.0
O188 O 0.75397 0.98091 0.42049 0.0
O189 O 0.76664 0.97926 0.35173 0.0
O190 O 0.77025 0.97382 0.49806 0.0
O191 O 0.77283 0.94932 0.47622 0.0
H192 H 0.84333 0.92769 0.40772 0.0
H193 H 0.80781 0.91208 0.5376 0.0
H194 H 0.81469 0.88499 0.55307 0.0
H195 H 0.85014 0.90084 0.42281 0.0
H196 H 0.73487 1.00379 0.35965 0.0
H197 H 0.79498 1.01632 0.37436 0.0
H198 H 0.80603 0.05119 0.38924 0.0
H199 H 0.74598 0.03885 0.37239 0.0
Gd200 Gd 0.12947 0.86251 0.43621 0.0
Gd201 Gd 0.11776 0.82452 0.40374 0.0
C202 C 0.16392 0.85659 0.38647 0.0
C203 C 0.14743 0.89953 0.4668 0.0
C204 C 0.16684 0.91822 0.47842 0.0
C205 C 0.17619 0.93354 0.44368 0.0
C206 C 0.17498 0.92213 0.52588 0.0
C207 C 0.20109 0.95594 0.50347 0.0
C208 C 0.19174 0.94051 0.53808 0.0
C209 C 0.19295 0.95196 0.45589 0.0
C210 C 0.10145 0.85004 0.35952 0.0
C211 C 0.08611 0.83026 0.46793 0.0
C212 C 0.10492 0.79392 0.34764 0.0
C213 C 0.08444 0.78147 0.3312 0.0
C214 C 0.0768 0.76124 0.32346 0.0
C215 C 0.0715 0.78902 0.33428 0.0
C216 C 1.04357 0.7558 0.33503 0.0
C217 C 1.05115 0.77628 0.33611 0.0
C218 C 0.05641 0.74844 0.3249 0.0
C219 C 0.12967 0.82649 0.49838 0.0
O220 O 0.15818 0.86925 0.39904 0.0
O221 O 0.15088 0.83741 0.38798 0.0
O222 O 0.14299 0.89415 0.4212 0.0
O223 O 0.14067 0.8842 0.49601 0.0
O224 O 0.10138 0.85954 0.39822 0.0
O225 O 0.11676 0.84833 0.363 0.0
O226 O 0.0879 0.82033 0.43079 0.0
O227 O 0.10228 0.8461 0.48421 0.0
O228 O 0.10748 0.79321 0.39452 0.0
O229 O 0.11387 0.812 0.33108 0.0
O230 O 0.1134 0.81257 0.47937 0.0
O231 O 0.13854 0.8405 0.46679 0.0
H232 H 0.17033 0.93145 0.40693 0.0
H233 H 0.16812 0.91109 0.55422 0.0
H234 H 0.19703 0.94275 0.57539 0.0
H235 H 0.19955 0.96309 0.42768 0.0
H236 H 0.08656 0.75515 0.32122 0.0
H237 H 0.07719 0.80456 0.34081 0.0
H238 H 1.04161 0.78229 0.34417 0.0
H239 H 1.05097 0.73266 0.32425 0.0
Gd240 Gd 0.77837 0.82538 0.91155 0.0
Gd241 Gd 0.80522 0.86425 0.93903 0.0
C242 C 0.81568 0.83228 0.97729 0.0
C243 C 0.75999 0.79459 0.85662 0.0
C244 C 0.76813 0.78371 0.83178 0.0
C245 C 0.78778 0.78878 0.84072 0.0
C246 C 0.75608 0.76722 0.80314 0.0
C247 C 0.78195 0.75834 0.80255 0.0
C248 C 0.76292 0.7546 0.78849 0.0
C249 C 0.79484 0.77648 0.82508 0.0
C250 C 0.76679 0.83007 1.00238 0.0
C251 C 0.765 0.85754 0.88626 0.0
C252 C 0.82446 0.90157 0.96686 0.0
C253 C 0.82413 0.92049 0.97748 0.0
C254 C 0.83417 0.93711 0.94669 0.0
C255 C 0.81592 0.92311 0.02064 0.0
C256 C 0.82784 0.95833 1.00177 0.0
C257 C 0.81768 0.94159 0.03242 0.0
C258 C 0.83599 0.95561 0.95852 0.0
C259 C 0.8216 0.85003 0.86893 0.0
O260 O 0.80373 0.82156 0.94141 0.0
O261 O 0.8155 0.84846 0.99117 0.0
O262 O 0.76014 0.79362 0.9042 0.0
O263 O 0.76636 0.81254 0.84074 0.0
O264 O 0.76681 0.81441 0.98652 0.0
O265 O 0.77409 0.84365 0.96927 0.0
O266 O 0.78352 0.87037 0.89756 0.0
O267 O 0.7587 0.83843 0.89121 0.0
O268 O 0.82307 0.89573 0.92153 0.0
O269 O 0.81602 0.88658 0.9971 0.0
O270 O 0.83075 0.86158 0.90551 0.0
O271 O 0.80415 0.84755 0.86947 0.0
H272 H 0.79731 0.80162 0.86252 0.0
H273 H 0.74095 0.76328 0.79535 0.0
H274 H 0.7524 0.74091 0.77082 0.0
H275 H 0.80973 0.78024 0.83508 0.0
H276 H 0.84101 0.93592 0.91354 0.0
H277 H 0.80841 0.91096 0.04599 0.0
H278 H 0.81141 0.94282 0.0665 0.0
H279 H 0.84373 0.96779 0.93337 0.0
Gd280 Gd 0.2651 0.97081 0.91702 0.0
Gd281 Gd 0.22565 0.95676 0.93903 0.0
C282 C 0.25352 0.99959 0.98122 0.0
C283 C 0.30143 0.9939 0.89391 0.0
C284 C 0.31401 1.01517 0.90493 0.0
C285 C 0.32776 1.02075 0.94306 0.0
C286 C 0.31115 1.02973 0.88195 0.0
C287 C 0.33525 0.05487 0.93635 0.0
C288 C 0.32184 0.04951 0.89732 0.0
C289 C 0.33811 0.04027 0.95877 0.0
C290 C 0.25597 0.94519 0.99392 0.0
C291 C 0.23693 0.92694 0.8814 0.0
C292 C 0.18757 0.93614 0.96028 0.0
C293 C 0.16917 0.91661 0.97352 0.0
C294 C 0.15382 0.90621 0.93923 0.0
C295 C 0.16542 0.90947 0.02193 0.0
C296 C 0.13168 0.88241 1.00132 0.0
C297 C 0.1472 0.89279 0.03545 0.0
C298 C 0.13554 0.88951 0.95274 0.0
C299 C 0.24027 0.98545 0.86354 0.0
O300 O 0.26661 0.99834 0.95314 0.0
O301 O 0.2361 0.98361 0.98761 0.0
O302 O 0.29608 0.98236 0.932 0.0
O303 O 0.28697 0.98892 0.86283 0.0
O304 O 0.26584 0.94587 0.95547 0.0
O305 O 0.2499 0.95782 0.98908 0.0
O306 O 0.22478 0.92841 0.91234 0.0
O307 O 0.25365 0.94314 0.87038 0.0
O308 O 0.19454 0.93924 0.91582 0.0
O309 O 0.20169 0.94519 0.99252 0.0
O310 O 0.22861 0.98433 0.89846 0.0
O311 O 0.24251 0.97045 0.86851 0.0
H312 H 0.33035 1.00991 0.96132 0.0
H313 H 0.30064 1.02587 0.85235 0.0
H314 H 0.31978 0.06059 0.87862 0.0
H315 H 0.34896 0.04403 0.98759 0.0
H316 H 0.15575 0.91126 0.90177 0.0
H317 H 0.17645 0.91711 0.05004 0.0
H318 H 0.14514 0.88843 0.07342 0.0
H319 H 0.12442 0.88214 0.92473 0.0
Gd320 Gd 0.11948 0.31429 0.90974 0.0
Gd321 Gd 0.12908 0.28579 0.9408 0.0
C322 C 0.08715 0.27645 0.97756 0.0
C323 C 0.1015 0.33146 0.87218 0.0
C324 C 0.08066 0.32531 0.86456 0.0
C325 C 0.07527 0.33973 0.85772 0.0
C326 C 0.06595 0.30548 0.87107 0.0
C327 C 1.04087 0.31508 0.87092 0.0
C328 C 1.04613 0.30038 0.87484 0.0
C329 C 0.05546 0.33459 0.85985 0.0
C330 C 0.14342 0.32949 0.9904 0.0
C331 C 0.16362 0.32533 0.88471 0.0
C332 C 0.14658 0.26577 0.96751 0.0
C333 C 0.16581 0.26599 0.97846 0.0
C334 C 0.17338 0.25748 0.94555 0.0
C335 C 0.17561 0.27245 0.02379 0.0
C336 C 0.19983 0.26196 1.00281 0.0
C337 C 0.19224 0.27055 0.03561 0.0
C338 C 0.19 0.25552 0.95739 0.0
C339 C 0.10064 0.27161 0.86501 0.0
O340 O 0.09072 0.29123 0.94744 0.0
O341 O 0.10139 0.27244 0.98688 0.0
O342 O 0.10693 0.33333 0.91788 0.0
O343 O 0.10848 0.32235 0.84604 0.0
O344 O 0.14462 0.33894 0.9506 0.0
O345 O 0.12973 0.3112 0.98511 0.0
O346 O 0.15915 0.31016 0.91369 0.0
O347 O 0.14954 0.32917 0.87214 0.0
O348 O 0.14233 0.26765 0.92231 0.0
O349 O 0.13995 0.27397 0.99815 0.0
O350 O 0.10096 0.26178 0.90279 0.0
O351 O 0.11632 0.28865 0.86796 0.0
H352 H 0.08646 0.35515 0.85342 0.0
H353 H 0.06995 0.29425 0.87684 0.0
H354 H 1.03519 0.28534 0.88434 0.0
H355 H 1.05181 0.34628 0.85778 0.0
H356 H 0.16619 0.25195 0.9106 0.0
H357 H 0.17019 0.27868 0.05083 0.0
H358 H 0.19884 0.27543 0.07136 0.0
H359 H 0.19519 0.24901 0.93055 0.0
Gd360 Gd 0.83527 0.75374 0.61421 0.0
Gd361 Gd 0.87951 0.78273 0.60148 0.0
C362 C 0.84845 0.79673 0.56443 0.0
C363 C 0.79983 0.735 0.64628 0.0
C364 C 0.7851 0.7415 0.64197 0.0
C365 C 0.77191 0.73475 0.60244 0.0
C366 C 0.78621 0.7568 0.67158 0.0
C367 C 0.76342 0.76026 0.61787 0.0
C368 C 0.77534 0.76606 0.65977 0.0
C369 C 0.76131 0.74408 0.59037 0.0
C370 C 0.84781 0.74661 0.52751 0.0
C371 C 0.8664 0.74004 0.65471 0.0
C372 C 0.91652 0.80063 0.57226 0.0
C373 C 0.93489 0.79976 0.5573 0.0
C374 C 0.94994 0.8034 0.59154 0.0
C375 C 0.93894 0.79789 0.50801 0.0
C376 C 0.97235 0.80343 0.52785 0.0
C377 C 0.95716 0.79959 0.49368 0.0
C378 C 0.96818 0.80516 0.57722 0.0
C379 C 0.86348 0.79553 0.67795 0.0
O380 O 0.83466 0.78091 0.58749 0.0
O381 O 0.8665 0.79916 0.55814 0.0
O382 O 0.80498 0.73052 0.60488 0.0
O383 O 0.81496 0.74557 0.67499 0.0
O384 O 0.8323 0.74842 0.53348 0.0
O385 O 0.85779 0.75182 0.56794 0.0
O386 O 0.88102 0.75726 0.63907 0.0
O387 O 0.84773 0.73588 0.651 0.0
O388 O 0.91104 0.79763 0.61816 0.0
O389 O 0.90136 0.79457 0.5423 0.0
O390 O 0.88196 0.80456 0.66494 0.0
O391 O 0.85618 0.78033 0.651 0.0
H392 H 0.77044 0.72279 0.57939 0.0
H393 H 0.79592 0.76203 0.703 0.0
H394 H 0.77648 0.77789 0.68269 0.0
H395 H 0.75137 0.73856 0.5593 0.0
H396 H 0.9478 0.80532 0.62975 0.0
H397 H 0.92816 0.79557 0.48004 0.0
H398 H 0.95948 0.79843 0.4552 0.0
H399 H 0.97904 0.80786 0.60525 0.0
Gd400 Gd 0.32829 0.09817 0.623 0.0
Gd401 Gd 0.30204 0.11219 0.60187 0.0
C402 C 0.28891 0.0694 0.56028 0.0
C403 C 0.34591 0.08047 0.65712 0.0
C404 C 0.34407 0.06213 0.63633 0.0
C405 C 0.35632 0.06338 0.59758 0.0
C406 C 0.32779 0.04352 0.64835 0.0
C407 C 0.33469 1.02854 0.57933 0.0
C408 C 0.32318 1.02683 0.62009 0.0
C409 C 0.35162 0.0468 0.56926 0.0
C410 C 0.3368 0.11373 0.53024 0.0
C411 C 0.3443 0.14385 0.65229 0.0
C412 C 0.28282 0.1311 0.58104 0.0
C413 C 0.28319 0.15031 0.56846 0.0
C414 C 0.27393 0.15777 0.5992 0.0
C415 C 0.29056 0.16017 0.52367 0.0
C416 C 0.27933 0.18419 0.54082 0.0
C417 C 0.28873 0.17674 0.51026 0.0
C418 C 0.27204 0.17431 0.58575 0.0
C419 C 0.28898 0.08327 0.67705 0.0
O420 O 0.3017 0.07002 0.59294 0.0
O421 O 0.28911 0.08604 0.54931 0.0
O422 O 0.35499 0.09633 0.62999 0.0
O423 O 0.32982 0.07855 0.67654 0.0
O424 O 0.33544 0.09719 0.54392 0.0
O425 O 0.33179 0.12083 0.56632 0.0
O426 O 0.3278 0.14108 0.63158 0.0
O427 O 0.3474 0.12871 0.65662 0.0
O428 O 0.28698 0.12818 0.62556 0.0
O429 O 0.2885 0.12268 0.54846 0.0
O430 O 0.27818 0.08393 0.64192 0.0
O431 O 0.30597 0.09847 0.67132 0.0
H432 H 0.36904 0.07739 0.58755 0.0
H433 H 0.31805 0.04202 0.67813 0.0
H434 H 0.31034 1.01276 0.62917 0.0
H435 H 0.3612 0.04829 0.53909 0.0
H436 H 0.26775 0.15052 0.63363 0.0
H437 H 0.29747 0.15486 0.49828 0.0
H438 H 0.29434 0.1834 0.47498 0.0
H439 H 0.2649 0.1794 0.61098 0.0
Gd440 Gd 0.98712 0.24721 0.62784 0.0
Gd441 Gd 0.97607 0.20886 0.59638 0.0
C442 C 1.01924 0.24249 0.56349 0.0
C443 C 0.99906 0.27744 0.68488 0.0
C444 C 1.01901 0.2894 0.70511 0.0
C445 C 1.02545 0.30841 0.72317 0.0
C446 C 1.03268 0.28291 0.69873 0.0
C447 C 0.0596 0.31577 0.71674 0.0
C448 C 0.05282 0.29591 0.70494 0.0
C449 C 1.04566 0.32151 0.72934 0.0
C450 C 0.97385 0.24379 0.53404 0.0
C451 C 0.94172 0.2143 0.64871 0.0
C452 C 0.95793 0.1719 0.56556 0.0
C453 C 0.93839 0.15328 0.55439 0.0
C454 C 0.92845 0.13849 0.59008 0.0
C455 C 0.93068 0.14886 0.5065 0.0
C456 C 0.90388 0.11558 0.53033 0.0
C457 C 0.9138 0.1305 0.49478 0.0
C458 C 0.91157 0.12009 0.57836 0.0
C459 C 1.00602 0.22244 0.66826 0.0
O460 O 1.01673 0.25273 0.59849 0.0
O461 O 1.00383 0.22545 0.54915 0.0
O462 O 0.99799 0.27859 0.63753 0.0
O463 O 0.98936 0.25922 0.70049 0.0
O464 O 0.9896 0.25878 0.55203 0.0
O465 O 0.96598 0.23002 0.56648 0.0
O466 O 0.9481 0.20192 0.63833 0.0
O467 O 0.95407 0.23351 0.64407 0.0
O468 O 0.96269 0.17723 0.61114 0.0
O469 O 0.96452 0.18726 0.53643 0.0
O470 O 1.00444 0.21179 0.63035 0.0
O471 O 0.99075 0.22445 0.66746 0.0
H472 H 1.01509 0.31364 0.72844 0.0
H473 H 1.0279 0.26833 0.68452 0.0
H474 H 0.06313 0.291 0.69537 0.0
H475 H 1.05032 0.33674 0.73845 0.0
H476 H 0.93393 0.14097 0.62726 0.0
H477 H 0.938 0.15947 0.4775 0.0
H478 H 0.90889 0.12784 0.45715 0.0
H479 H 0.90452 0.10938 0.60727 0.0
Gd480 Gd 0.97088 0.54321 0.43069 0.0
Gd481 Gd 0.99666 0.58428 0.45187 0.0
C482 C 1.01321 0.55498 0.4831 0.0
C483 C 0.95263 0.50525 0.40882 0.0
C484 C 0.95136 0.48539 0.40002 0.0
C485 C 0.94234 0.47025 0.43515 0.0
C486 C 0.95643 0.48024 0.35508 0.0
C487 C 0.94274 0.44534 0.38035 0.0
C488 C 0.95237 0.46064 0.34561 0.0
C489 C 0.93813 0.45072 0.42559 0.0
C490 C 0.95581 0.55764 0.5036 0.0
C491 C 0.95645 0.57268 0.39175 0.0
C492 C 1.01424 0.6191 0.49159 0.0
C493 C 1.00806 0.63409 0.49074 0.0
C494 C 1.02193 0.65421 0.49593 0.0
C495 C 0.98854 0.62843 0.47782 0.0
C496 C 0.99747 0.66259 0.46711 0.0
C497 C 0.98323 0.64251 0.4664 0.0
C498 C 1.01663 0.66844 0.48438 0.0
C499 C 1.00605 0.57667 0.3609 0.0
O500 O 0.99599 0.54058 0.4669 0.0
O501 O 1.01698 0.57354 0.48167 0.0
O502 O 0.95519 0.51225 0.45335 0.0
O503 O 0.96002 0.51937 0.37594 0.0
O504 O 0.94559 0.54433 0.47112 0.0
O505 O 0.97358 0.56139 0.49855 0.0
O506 O 0.96979 0.58496 0.42311 0.0
O507 O 0.95606 0.55588 0.38091 0.0
O508 O 1.01929 0.61535 0.44932 0.0
O509 O 1.00269 0.60298 0.51564 0.0
O510 O 1.00297 0.5911 0.37186 0.0
O511 O 1.00124 0.56507 0.39809 0.0
H512 H 0.9379 0.47333 0.46994 0.0
H513 H 0.96308 0.49123 0.32657 0.0
H514 H 0.95611 0.45733 0.31018 0.0
H515 H 0.93102 0.43972 0.45388 0.0
H516 H 1.03711 0.65892 0.50552 0.0
H517 H 0.97763 0.61313 0.47302 0.0
H518 H 0.96843 0.63767 0.45303 0.0
H519 H 1.02799 0.68391 0.48456 0.0
Gd520 Gd 0.54429 0.44565 0.43125 0.0
Gd521 Gd 0.50415 0.4332 0.45974 0.0
C522 C 0.53543 0.47929 0.48052 0.0
C523 C 0.58192 0.46357 0.40697 0.0
C524 C 0.60181 0.4822 0.39851 0.0
C525 C 0.61629 0.48956 0.43575 0.0
C526 C 0.60771 0.49126 0.35219 0.0
C527 C 0.64198 0.51373 0.38054 0.0
C528 C 0.62733 0.5068 0.3435 0.0
C529 C 0.63584 0.50491 0.42703 0.0
C530 C 0.5298 0.41736 0.50684 0.0
C531 C 0.51161 0.4015 0.39962 0.0
C532 C 0.47334 0.42004 0.51472 0.0
C533 C 0.46147 0.40021 0.53565 0.0
C534 C 0.44278 0.39427 0.55484 0.0
C535 C 0.46751 0.38618 0.52912 0.0
C536 C 0.4345 0.35983 0.54797 0.0
C537 C 0.45416 0.36609 0.53561 0.0
C538 C 0.42938 0.37414 0.56136 0.0
C539 C 0.50935 0.44842 0.367 0.0
O540 O 0.54898 0.47494 0.46547 0.0
O541 O 0.51662 0.46536 0.48034 0.0
O542 O 0.57532 0.45897 0.45168 0.0
O543 O 0.56748 0.45752 0.37493 0.0
O544 O 0.54091 0.41784 0.47133 0.0
O545 O 0.52791 0.43253 0.50138 0.0
O546 O 0.50083 0.40405 0.43293 0.0
O547 O 0.5284 0.41716 0.38487 0.0
O548 O 0.47252 0.4207 0.46716 0.0
O549 O 0.49134 0.43027 0.53149 0.0
O550 O 0.49342 0.43334 0.3838 0.0
O551 O 0.52268 0.45486 0.40077 0.0
H552 H 0.61269 0.483 0.47178 0.0
H553 H 0.59731 0.48595 0.32207 0.0
H554 H 0.63119 0.51287 0.30705 0.0
H555 H 0.64627 0.50977 0.45709 0.0
H556 H 0.43796 0.40494 0.56055 0.0
H557 H 0.48192 0.39054 0.51453 0.0
H558 H 0.45853 0.35541 0.52532 0.0
H559 H 0.41431 0.36978 0.57097 0.0
Gd560 Gd 0.64221 0.11915 0.42974 0.0
Gd561 Gd 0.65534 0.09289 0.45974 0.0
C562 C 0.60935 0.07823 0.48185 0.0
C563 C 0.62302 0.13728 0.40087 0.0
C564 C 0.6034 0.13633 0.38984 0.0
C565 C 0.59486 0.14356 0.42363 0.0
C566 C 0.59421 0.1306 0.3436 0.0
C567 C 0.56877 0.13943 0.36538 0.0
C568 C 0.57728 0.13204 0.33174 0.0
C569 C 0.57797 0.14505 0.41175 0.0
C570 C 0.67014 0.1339 0.50683 0.0
C571 C 0.68606 0.13185 0.39795 0.0
C572 C 0.67007 0.07568 0.51142 0.0
C573 C 0.69107 0.08311 0.5215 0.0
C574 C 0.69797 0.06984 0.52811 0.0
C575 C 0.7047 0.10336 0.51517 0.0
C576 C 0.73135 0.09615 0.50992 0.0
C577 C 0.72472 0.10984 0.50906 0.0
C578 C 0.71807 0.07637 0.52286 0.0
C579 C 0.64283 0.08394 0.36509 0.0
O580 O 0.61428 0.09631 0.46785 0.0
O581 O 0.62273 0.07254 0.47997 0.0
O582 O 0.62776 0.13634 0.44624 0.0
O583 O 0.63 0.12913 0.37102 0.0
O584 O 0.66972 0.14421 0.47015 0.0
O585 O 0.65518 0.11675 0.50138 0.0
O586 O 0.68452 0.11954 0.43333 0.0
O587 O 0.66976 0.13146 0.38233 0.0
O588 O 0.6649 0.07118 0.46579 0.0
O589 O 0.6628 0.08596 0.53053 0.0
O590 O 0.65941 0.08653 0.38264 0.0
O591 O 0.634 0.0884 0.39828 0.0
H592 H 0.60152 0.1485 0.45935 0.0
H593 H 0.60036 0.12538 0.31588 0.0
H594 H 0.5712 0.1278 0.29531 0.0
H595 H 0.57209 0.15062 0.4393 0.0
H596 H 0.68769 0.05419 0.53304 0.0
H597 H 0.69969 0.11391 0.51057 0.0
H598 H 0.73466 0.12513 0.49912 0.0
H599 H 0.72278 0.06545 0.52325 0.0
Gd600 Gd 0.89338 0.61965 0.76995 0.0
Gd601 Gd 0.93412 0.6453 0.7515 0.0
C602 C 0.90529 0.66321 0.72665 0.0
C603 C 0.85544 0.6004 0.79131 0.0
C604 C 0.83533 0.59767 0.80428 0.0
C605 C 0.82727 0.60854 0.78255 0.0
C606 C 0.82299 0.58225 0.83615 0.0
C607 C 0.79494 0.58796 0.8229 0.0
C608 C 0.80329 0.57745 0.84511 0.0
C609 C 0.80751 0.6039 0.79208 0.0
C610 C 0.90825 0.60614 0.69364 0.0
C611 C 0.92224 0.60413 0.80523 0.0
C612 C 0.96794 0.6649 0.70847 0.0
C613 C 0.98036 0.65798 0.68577 0.0
C614 C 0.97573 0.63825 0.69168 0.0
C615 C 0.99767 0.67127 0.66152 0.0
C616 C 1.00768 0.64627 0.65907 0.0
C617 C 1.01125 0.66546 0.64809 0.0
C618 C 0.9891 0.63232 0.67753 0.0
C619 C 0.92705 0.65281 0.8446 0.0
O620 O 0.89071 0.64529 0.73744 0.0
O621 O 0.9238 0.66715 0.7312 0.0
O622 O 0.86245 0.60577 0.74716 0.0
O623 O 0.86947 0.6058 0.82418 0.0
O624 O 0.89533 0.59502 0.72579 0.0
O625 O 0.91155 0.62354 0.70229 0.0
O626 O 0.93429 0.61694 0.77256 0.0
O627 O 0.9065 0.60523 0.81866 0.0
O628 O 0.96604 0.66263 0.75568 0.0
O629 O 0.95119 0.65955 0.68663 0.0
O630 O 0.9413 0.64999 0.83103 0.0
O631 O 0.91528 0.64926 0.80804 0.0
H632 H 0.83612 0.62042 0.75743 0.0
H633 H 0.82845 0.57341 0.8534 0.0
H634 H 0.7945 0.5653 0.86958 0.0
H635 H 0.80187 0.6124 0.77391 0.0
H636 H 0.96227 0.62769 0.70976 0.0
H637 H 1.00133 0.6865 0.65611 0.0
H638 H 1.02538 0.67669 0.63399 0.0
H639 H 0.98573 0.61735 0.68559 0.0
Gd640 Gd 0.46496 0.28927 0.76311 0.0
Gd641 Gd 0.43795 0.30657 0.7481 0.0
C642 C 0.42214 0.26034 0.71202 0.0
C643 C 0.48305 0.27033 0.79254 0.0
C644 C 0.48317 0.25157 0.80694 0.0
C645 C 0.48996 0.24241 0.77383 0.0
C646 C 0.47902 0.24397 0.85484 0.0
C647 C 0.48846 0.21876 0.83585 0.0
C648 C 0.4815 0.22786 0.8689 0.0
C649 C 0.49254 0.22638 0.78791 0.0
C650 C 0.47985 0.31815 0.68694 0.0
C651 C 0.48031 0.33385 0.80208 0.0
C652 C 0.42006 0.32297 0.70696 0.0
C653 C 0.42841 0.34385 0.69394 0.0
C654 C 0.41625 0.35207 0.68785 0.0
C655 C 0.44892 0.3563 0.69694 0.0
C656 C 0.44482 0.38502 0.69847 0.0
C657 C 0.45713 0.37676 0.6995 0.0
C658 C 0.42446 0.37261 0.68935 0.0
C659 C 0.42922 0.2865 0.83485 0.0
O660 O 0.43915 0.26244 0.7275 0.0
O661 O 0.41867 0.2754 0.71492 0.0
O662 O 0.47987 0.27271 0.74669 0.0
O663 O 0.4766 0.279 0.82259 0.0
O664 O 0.48709 0.30703 0.69977 0.0
O665 O 0.46467 0.31175 0.71332 0.0
O666 O 0.46636 0.33382 0.77419 0.0
O667 O 0.48027 0.31702 0.81072 0.0
O668 O 0.41943 0.31979 0.75403 0.0
O669 O 0.42699 0.31338 0.68241 0.0
O670 O 0.43083 0.30374 0.82788 0.0
O671 O 0.43434 0.28139 0.79502 0.0
H672 H 0.49371 0.24792 0.73685 0.0
H673 H 0.4742 0.25073 0.88196 0.0
H674 H 0.47841 0.22288 0.90637 0.0
H675 H 0.49769 0.21991 0.76085 0.0
H676 H 0.40035 0.34267 0.68592 0.0
H677 H 0.45828 0.35001 0.70231 0.0
H678 H 0.47271 0.3859 0.70759 0.0
H679 H 0.41454 0.37854 0.68917 0.0
Gd680 Gd 0.7976 0.19705 0.76646 0.0
Gd681 Gd 0.78297 0.1538 0.75064 0.0
C682 C 0.82808 0.1862 0.71251 0.0
C683 C 0.81628 0.2341 0.7961 0.0
C684 C 0.83558 0.25325 0.805 0.0
C685 C 0.84447 0.26711 0.76691 0.0
C686 C 0.84387 0.25929 0.85213 0.0
C687 C 0.86851 0.29261 0.82281 0.0
C688 C 0.86015 0.27854 0.86079 0.0
C689 C 0.86052 0.28629 0.7756 0.0
C690 C 0.76885 0.18288 0.69003 0.0
C691 C 0.75363 0.16659 0.80456 0.0
C692 C 0.76771 0.11924 0.71118 0.0
C693 C 0.74667 0.10533 0.70275 0.0
C694 C 0.7396 0.08497 0.70139 0.0
C695 C 0.73329 0.11224 0.70784 0.0
C696 C 0.70682 0.07892 0.72265 0.0
C697 C 0.71348 0.09916 0.71813 0.0
C698 C 0.71966 0.07177 0.71075 0.0
C699 C 0.80275 0.16533 0.838 0.0
O700 O 0.82397 0.20006 0.72534 0.0
O701 O 0.81465 0.16715 0.71869 0.0
O702 O 0.8113 0.22838 0.75084 0.0
O703 O 0.8099 0.21902 0.82625 0.0
O704 O 0.7791 0.20111 0.70467 0.0
O705 O 0.77567 0.17406 0.71537 0.0
O706 O 0.75473 0.15314 0.777 0.0
O707 O 0.76985 0.18383 0.81351 0.0
O708 O 0.77252 0.12248 0.75742 0.0
O709 O 0.77536 0.13556 0.6855 0.0
O710 O 0.7856 0.14965 0.83079 0.0
O711 O 0.80753 0.17566 0.79822 0.0
H712 H 0.8386 0.2634 0.73015 0.0
H713 H 0.83738 0.24935 0.88276 0.0
H714 H 0.86564 0.28267 0.89775 0.0
H715 H 0.86652 0.29634 0.745 0.0
H716 H 0.74974 0.07937 0.69783 0.0
H717 H 0.73865 0.1279 0.7091 0.0
H718 H 0.70391 0.105 0.72746 0.0
H719 H 0.7149 0.05619 0.71461 0.0
Gd720 Gd 0.44054 0.15418 0.24364 0.0
Gd721 Gd 0.46623 0.19403 0.27006 0.0
C722 C 0.4809 0.1655 0.30881 0.0
C723 C 0.42683 0.11914 0.20719 0.0
C724 C 0.43619 0.10728 0.1968 0.0
C725 C 0.42433 0.08695 0.18899 0.0
C726 C 0.45666 0.11548 0.20306 0.0
C727 C 0.45236 0.08251 0.20722 0.0
C728 C 0.46472 0.10313 0.20863 0.0
C729 C 0.43242 0.07463 0.19348 0.0
C730 C 0.42374 0.16202 0.32224 0.0
C731 C 0.42487 0.18377 0.21512 0.0
C732 C 0.48477 0.23219 0.29203 0.0
C733 C 0.48565 0.25198 0.30014 0.0
C734 C 0.49338 0.2667 0.26362 0.0
C735 C 0.48159 0.25762 0.3458 0.0
C736 C 0.49368 0.29209 0.31836 0.0
C737 C 0.48536 0.27719 0.35458 0.0
C738 C 0.49727 0.28621 0.27245 0.0
C739 C 0.48034 0.17998 0.19339 0.0
O740 O 0.46696 0.15283 0.2786 0.0
O741 O 0.48187 0.18259 0.31811 0.0
O742 O 0.42572 0.12244 0.25353 0.0
O743 O 0.43259 0.13491 0.18047 0.0
O744 O 0.41462 0.15192 0.28379 0.0
O745 O 0.44252 0.16862 0.31717 0.0
O746 O 0.4393 0.19602 0.24437 0.0
O747 O 0.42361 0.1667 0.20346 0.0
O748 O 0.48266 0.22512 0.24777 0.0
O749 O 0.47697 0.21803 0.32457 0.0
O750 O 0.49087 0.19135 0.229 0.0
O751 O 0.46315 0.17768 0.19896 0.0
H752 H 0.40854 0.0804 0.18374 0.0
H753 H 0.46613 0.13124 0.20792 0.0
H754 H 0.48012 0.10953 0.21877 0.0
H755 H 0.42247 0.05877 0.19233 0.0
H756 H 0.49704 0.26331 0.22818 0.0
H757 H 0.47599 0.24704 0.37542 0.0
H758 H 0.48243 0.28083 0.39058 0.0
H759 H 0.50333 0.2968 0.24296 0.0
Gd760 Gd 0.93627 0.30537 0.24786 0.0
Gd761 Gd 0.89279 0.29096 0.26952 0.0
C762 C 0.92506 0.3363 0.29942 0.0
C763 C 0.96893 0.31871 0.20067 0.0
C764 C 0.98238 0.33888 0.18397 0.0
C765 C 0.9765 0.3531 0.18803 0.0
C766 C 1.00196 0.3448 0.17253 0.0
C767 C 1.01041 0.37925 0.17969 0.0
C768 C 1.01589 0.36494 0.1696 0.0
C769 C 0.99041 0.37319 0.18608 0.0
C770 C 0.92708 0.2883 0.3382 0.0
C771 C 0.90357 0.25941 0.21839 0.0
C772 C 0.85625 0.27268 0.30216 0.0
C773 C 0.83776 0.25349 0.31679 0.0
C774 C 0.82325 0.24166 0.28178 0.0
C775 C 0.833 0.24807 0.36615 0.0
C776 C 0.79998 0.21985 0.34487 0.0
C777 C 0.81462 0.2316 0.37984 0.0
C778 C 0.80485 0.22525 0.29545 0.0
C779 C 0.90626 0.31832 0.18986 0.0
O780 O 0.9376 0.33388 0.27163 0.0
O781 O 0.90752 0.32078 0.31095 0.0
O782 O 0.96781 0.31679 0.24822 0.0
O783 O 0.95162 0.30978 0.17927 0.0
O784 O 0.94322 0.30435 0.32625 0.0
O785 O 0.91527 0.28242 0.30081 0.0
O786 O 0.88955 0.26281 0.23441 0.0
O787 O 0.92236 0.27368 0.21926 0.0
O788 O 0.86114 0.27535 0.25594 0.0
O789 O 0.87184 0.28126 0.33104 0.0
O790 O 0.88822 0.30867 0.20584 0.0
O791 O 0.91478 0.31133 0.21553 0.0
H792 H 0.9615 0.3486 0.19759 0.0
H793 H 1.00676 0.33399 0.16981 0.0
H794 H 1.0313 0.36923 0.1653 0.0
H795 H 0.98593 0.38389 0.19495 0.0
H796 H 0.82592 0.24531 0.2434 0.0
H797 H 0.84335 0.25688 0.39457 0.0
H798 H 0.81172 0.22847 0.41836 0.0
H799 H 0.79442 0.21675 0.2669 0.0
Gd800 Gd 0.78342 0.64529 0.24746 0.0
Gd801 Gd 0.79481 0.61656 0.26523 0.0
C802 C 0.75145 0.60441 0.30082 0.0
C803 C 0.76783 0.66552 0.21635 0.0
C804 C 0.74723 0.65997 0.22589 0.0
C805 C 0.73767 0.64803 0.26642 0.0
C806 C 0.73629 0.66421 0.19243 0.0
C807 C 0.7065 0.64504 0.24123 0.0
C808 C 0.71614 0.65705 0.20037 0.0
C809 C 0.71753 0.64026 0.27335 0.0
C810 C 0.79979 0.65205 0.33957 0.0
C811 C 0.82819 0.65826 0.21557 0.0
C812 C 0.81236 0.59603 0.28559 0.0
C813 C 0.83083 0.59448 0.29329 0.0
C814 C 0.83403 0.58166 0.26332 0.0
C815 C 0.84416 0.60361 0.33252 0.0
C816 C 0.86269 0.58646 0.31226 0.0
C817 C 0.85989 0.59981 0.34156 0.0
C818 C 0.84954 0.57772 0.27256 0.0
C819 C 0.76642 0.60539 0.18966 0.0
O820 O 0.7542 0.61875 0.27058 0.0
O821 O 0.76696 0.60269 0.31317 0.0
O822 O 0.77938 0.67078 0.25458 0.0
O823 O 0.76979 0.653 0.18878 0.0
O824 O 0.78235 0.64915 0.32879 0.0
O825 O 0.80583 0.64703 0.30143 0.0
O826 O 0.82308 0.64001 0.22885 0.0
O827 O 0.81507 0.66427 0.21877 0.0
O828 O 0.8077 0.59869 0.24141 0.0
O829 O 0.80665 0.6042 0.31882 0.0
O830 O 0.76708 0.59364 0.22214 0.0
O831 O 0.78166 0.6223 0.19728 0.0
H832 H 0.74578 0.64455 0.29289 0.0
H833 H 0.74333 0.67313 0.16047 0.0
H834 H 0.70835 0.66148 0.17524 0.0
H835 H 0.71073 0.63077 0.30457 0.0
H836 H 0.8241 0.57414 0.23306 0.0
H837 H 0.84221 0.6134 0.35697 0.0
H838 H 0.86945 0.60683 0.37269 0.0
H839 H 0.85111 0.56762 0.2484 0.0
Gd840 Gd 0.50152 0.09063 0.95182 0.0
Gd841 Gd 0.54602 0.11756 0.93524 0.0
C842 C 0.51696 0.13326 0.89789 0.0
C843 C 0.46759 0.07412 0.99391 0.0
C844 C 0.45543 0.08281 1.00806 0.0
C845 C 0.45856 0.1003 0.98572 0.0
C846 C 0.44057 0.07374 0.04305 0.0
C847 C 0.43034 0.09824 0.02791 0.0
C848 C 0.42804 0.08132 0.05277 0.0
C849 C 0.4464 0.10811 0.99603 0.0
C850 C 0.51186 0.0815 0.86415 0.0
C851 C 0.53162 0.07459 0.98735 0.0
C852 C 0.58306 0.13476 0.9062 0.0
C853 C 0.60175 0.13436 0.89234 0.0
C854 C 0.61779 0.14133 0.92544 0.0
C855 C 0.60498 0.12951 0.84492 0.0
C856 C 0.63958 0.13868 0.86438 0.0
C857 C 0.62341 0.1315 0.83136 0.0
C858 C 0.63623 0.14344 0.91185 0.0
C859 C 0.53229 0.13248 1.01242 0.0
O860 O 0.50333 0.11934 0.9261 0.0
O861 O 0.53369 0.13329 0.88846 0.0
O862 O 0.46971 0.07302 0.9468 0.0
O863 O 0.48418 0.08072 0.01813 0.0
O864 O 0.49595 0.08231 0.8731 0.0
O865 O 0.52276 0.08701 0.90315 0.0
O866 O 0.54653 0.0915 0.97142 0.0
O867 O 0.51314 0.07119 0.98485 0.0
O868 O 0.5775 0.13201 0.95197 0.0
O869 O 0.56795 0.12844 0.87598 0.0
O870 O 0.55053 0.13999 0.99849 0.0
O871 O 0.52362 0.11727 0.98581 0.0
H872 H 0.47001 0.10763 0.95888 0.0
H873 H 0.43809 0.06035 0.06119 0.0
H874 H 0.41574 0.07303 0.07713 0.0
H875 H 0.44907 0.12141 0.97711 0.0
H876 H 0.61625 0.14561 0.96204 0.0
H877 H 0.59335 0.1245 0.81776 0.0
H878 H 0.62508 0.12787 0.79423 0.0
H879 H 0.64789 0.14877 0.93896 0.0
Gd880 Gd 0.99882 0.43424 0.96065 0.0
Gd881 Gd 0.97052 0.44471 0.92955 0.0
C882 C 0.96068 0.40119 0.90028 0.0
C883 C 1.01801 0.42222 1.01434 0.0
C884 C 1.01224 0.40198 0.02921 0.0
C885 C 1.02677 0.39713 0.0404 0.0
C886 C 0.99247 0.38682 0.02427 0.0
C887 C 1.00252 0.36216 0.03192 0.0
C888 C 0.98764 0.36701 0.02535 0.0
C889 C 1.02191 0.37732 0.04239 0.0
C890 C 1.00851 0.44815 0.86704 0.0
C891 C 1.01072 0.47954 0.98171 0.0
C892 C 0.95099 0.46227 0.89946 0.0
C893 C 0.9514 0.48158 0.88756 0.0
C894 C 0.94491 0.4907 0.92168 0.0
C895 C 0.95591 0.48987 0.84033 0.0
C896 C 0.94749 0.51565 0.86183 0.0
C897 C 0.95407 0.50651 0.82783 0.0
C898 C 0.94302 0.50734 0.90917 0.0
C899 C 0.95671 0.41662 1.00575 0.0
O900 O 0.97395 0.40432 0.93453 0.0
O901 O 0.95913 0.41641 0.8841 0.0
O902 O 1.02112 0.42559 0.96766 0.0
O903 O 1.00745 0.42938 0.03237 0.0
O904 O 1.00792 0.43238 0.88442 0.0
O905 O 1.00176 0.45516 0.8997 0.0
O906 O 0.99234 0.47348 0.96791 0.0
O907 O 1.01744 0.46699 0.98033 0.0
O908 O 0.95231 0.4581 0.94511 0.0
O909 O 0.95941 0.45543 0.87002 0.0
O910 O 0.94622 0.41676 0.96914 0.0
O911 O 0.97356 0.43216 1.0013 0.0
H912 H 1.04209 0.40863 0.04395 0.0
H913 H 0.98102 0.39029 1.01569 0.0
H914 H 0.97264 0.3556 0.01697 0.0
H915 H 1.03372 0.37399 0.04699 0.0
H916 H 0.9409 0.48473 0.95821 0.0
H917 H 0.9605 0.48322 0.81238 0.0
H918 H 0.95737 0.51187 0.79069 0.0
H919 H 0.93811 0.51374 0.93699 0.0
Gd920 Gd 0.65344 0.57984 0.93992 0.0
Gd921 Gd 0.64119 0.53969 0.9248 0.0
C922 C 0.68452 0.56995 0.88582 0.0
C923 C 0.66973 0.61679 0.96207 0.0
C924 C 0.68711 0.63194 0.9359 0.0
C925 C 0.69213 0.62658 0.89166 0.0
C926 C 0.69963 0.65077 0.95534 0.0
C927 C 0.72145 0.6586 0.88493 0.0
C928 C 0.71669 0.66413 0.92979 0.0
C929 C 0.70905 0.63959 0.86668 0.0
C930 C 0.6359 0.56907 0.84868 0.0
C931 C 0.60884 0.5488 0.97618 0.0
C932 C 0.6231 0.50173 0.90343 0.0
C933 C 0.60419 0.48283 0.89167 0.0
C934 C 0.58576 0.4818 0.88661 0.0
C935 C 0.60475 0.46522 0.88483 0.0
C936 C 0.56904 0.44594 0.8674 0.0
C937 C 0.5876 0.44718 0.87299 0.0
C938 C 0.5685 0.46369 0.87466 0.0
C939 C 0.67047 0.55692 0.99818 0.0
O940 O 0.68232 0.58235 0.91424 0.0
O941 O 0.66883 0.55245 0.87641 0.0
O942 O 0.65359 0.60775 0.93596 0.0
O943 O 0.67298 0.60441 0.98684 0.0
O944 O 0.65373 0.58298 0.85759 0.0
O945 O 0.63016 0.55888 0.88805 0.0
O946 O 0.61314 0.53539 0.96043 0.0
O947 O 0.62266 0.56781 0.97473 0.0
O948 O 0.62606 0.50871 0.94802 0.0
O949 O 0.63059 0.51587 0.87073 0.0
O950 O 0.66826 0.54331 0.96756 0.0
O951 O 0.65554 0.55927 0.99202 0.0
H952 H 0.68309 0.61218 0.87617 0.0
H953 H 0.6962 0.65514 0.98983 0.0
H954 H 0.72583 0.67888 0.94446 0.0
H955 H 0.71236 0.63473 0.83278 0.0
H956 H 0.58467 0.49499 0.8918 0.0
H957 H 0.61867 0.46543 0.88827 0.0
H958 H 0.58907 0.43425 0.86716 0.0
H959 H 0.55467 0.46363 0.87154 0.0
Gd960 Gd 0.63751 0.8763 0.7694 0.0
Gd961 Gd 0.66784 0.91879 0.79473 0.0
C962 C 0.67845 0.88417 0.82294 0.0
C963 C 0.6184 0.83993 0.73458 0.0
C964 C 0.61832 0.82094 0.72072 0.0
C965 C 0.61058 0.80465 0.75312 0.0
C966 C 0.62362 0.81778 0.6738 0.0
C967 C 0.61354 0.78284 0.69246 0.0
C968 C 0.62139 0.79922 0.66009 0.0
C969 C 0.60825 0.78608 0.73938 0.0
C970 C 0.62336 0.8898 0.84831 0.0
C971 C 0.62656 0.90982 0.74057 0.0
C972 C 0.68745 0.95052 0.84575 0.0
C973 C 0.68045 0.9635 0.86456 0.0
C974 C 0.69346 0.98387 0.86829 0.0
C975 C 0.66004 0.95617 0.86708 0.0
C976 C 0.66559 0.98954 0.86366 0.0
C977 C 0.65261 0.96911 0.86636 0.0
C978 C 0.68605 0.99686 0.86848 0.0
C979 C 0.6759 0.91037 0.70384 0.0
O980 O 0.66028 0.87119 0.80878 0.0
O981 O 0.68486 0.90343 0.82038 0.0
O982 O 0.61977 0.84453 0.78093 0.0
O983 O 0.62682 0.85576 0.70666 0.0
O984 O 0.61443 0.87206 0.82998 0.0
O985 O 0.63943 0.89818 0.82483 0.0
O986 O 0.64143 0.92171 0.76996 0.0
O987 O 0.62412 0.89227 0.72751 0.0
O988 O 0.68831 0.95029 0.79803 0.0
O989 O 0.67923 0.93278 0.86491 0.0
O990 O 0.67679 0.92677 0.71739 0.0
O991 O 0.66914 0.89792 0.73995 0.0
H992 H 0.60593 0.80612 0.78931 0.0
H993 H 0.6292 0.82959 0.64714 0.0
H994 H 0.62543 0.79763 0.62333 0.0
H995 H 0.60238 0.77426 0.76598 0.0
H996 H 0.70927 0.98978 0.86623 0.0
H997 H 0.64991 0.94048 0.86395 0.0
H998 H 0.63689 0.96318 0.86211 0.0
H999 H 0.69644 1.01259 0.86606 0.0
Gd1000 Gd 0.21218 0.78066 0.76157 0.0
Gd1001 Gd 0.17162 0.76541 0.78525 0.0
C1002 C 0.20053 0.8115 0.81339 0.0
C1003 C 0.24994 0.80042 0.73807 0.0
C1004 C 0.26859 0.81973 0.72506 0.0
C1005 C 0.28345 0.83052 0.7602 0.0
C1006 C 0.27305 0.82619 0.67623 0.0
C1007 C 0.3065 0.85344 0.69812 0.0
C1008 C 0.29149 0.84264 0.66312 0.0
C1009 C 0.30194 0.847 0.7471 0.0
C1010 C 0.19783 0.75177 0.8366 0.0
C1011 C 0.18264 0.7371 0.72235 0.0
C1012 C 0.13784 0.74776 0.82825 0.0
C1013 C 0.12325 0.72655 0.82698 0.0
C1014 C 0.1031 0.72037 0.82618 0.0
C1015 C 0.12942 0.71261 0.81914 0.0
C1016 C 0.09571 0.68728 0.80292 0.0
C1017 C 0.11573 0.69311 0.80646 0.0
C1018 C 0.08939 0.70079 0.81456 0.0
C1019 C 0.17776 0.78165 0.69337 0.0
O1020 O 0.2147 0.80892 0.79465 0.0
O1021 O 0.1822 0.79642 0.81483 0.0
O1022 O 0.24344 0.79718 0.78305 0.0
O1023 O 0.23546 0.79194 0.70627 0.0
O1024 O 0.20937 0.75287 0.80143 0.0
O1025 O 0.19532 0.76652 0.83095 0.0
O1026 O 0.17081 0.73753 0.75608 0.0
O1027 O 0.19863 0.75396 0.71014 0.0
O1028 O 0.1406 0.75694 0.78667 0.0
O1029 O 0.15438 0.75244 0.85053 0.0
O1030 O 0.16315 0.76462 0.70654 0.0
O1031 O 0.19001 0.78876 0.72934 0.0
H1032 H 0.28097 0.82598 0.79808 0.0
H1033 H 0.26243 0.8182 0.64758 0.0
H1034 H 0.29411 0.84648 0.62486 0.0
H1035 H 0.31267 0.85472 0.7757 0.0
H1036 H 0.09809 0.7309 0.83175 0.0
H1037 H 0.14491 0.71701 0.82021 0.0
H1038 H 0.12082 0.6829 0.79727 0.0
H1039 H 0.07394 0.69652 0.81122 0.0
Gd1040 Gd 0.30836 0.45296 0.76403 0.0
Gd1041 Gd 0.32229 0.42363 0.78208 0.0
C1042 C 0.27673 0.4111 0.81537 0.0
C1043 C 0.29016 0.47167 0.73342 0.0
C1044 C 0.27093 0.471 0.72003 0.0
C1045 C 0.26074 0.47595 0.75477 0.0
C1046 C 0.26379 0.46794 0.67162 0.0
C1047 C 0.23702 0.47478 0.69327 0.0
C1048 C 0.24717 0.46969 0.65859 0.0
C1049 C 0.24418 0.47778 0.74173 0.0
C1050 C 0.33715 0.46725 0.84083 0.0
C1051 C 0.35211 0.46557 0.72683 0.0
C1052 C 0.3372 0.40476 0.82495 0.0
C1053 C 0.35817 0.41296 0.83643 0.0
C1054 C 0.3665 0.40076 0.83862 0.0
C1055 C 0.37053 0.43354 0.83399 0.0
C1056 C 0.39904 0.4295 0.82539 0.0
C1057 C 0.39083 0.44181 0.82794 0.0
C1058 C 0.38692 0.40905 0.83396 0.0
C1059 C 0.30418 0.41619 0.69309 0.0
O1060 O 0.28124 0.42916 0.80214 0.0
O1061 O 0.29017 0.4054 0.81146 0.0
O1062 O 0.2933 0.46943 0.77937 0.0
O1063 O 0.29821 0.46442 0.70381 0.0
O1064 O 0.3273 0.4756 0.82572 0.0
O1065 O 0.32982 0.4515 0.81576 0.0
O1066 O 0.35081 0.45107 0.75512 0.0
O1067 O 0.33605 0.46676 0.71731 0.0
O1068 O 0.33347 0.40329 0.77805 0.0
O1069 O 0.32829 0.4126 0.84889 0.0
O1070 O 0.32027 0.41589 0.70324 0.0
O1071 O 0.29872 0.42184 0.73162 0.0
H1072 H 0.26582 0.47882 0.79229 0.0
H1073 H 0.27131 0.46458 0.64334 0.0
H1074 H 0.2426 0.46753 0.62068 0.0
H1075 H 0.23693 0.48149 0.77 0.0
H1076 H 0.35716 0.38482 0.83996 0.0
H1077 H 0.36413 0.44295 0.83189 0.0
H1078 H 0.39976 0.45748 0.82041 0.0
H1079 H 0.39289 0.39917 0.83126 0.0
Gd1080 Gd 0.55992 0.95488 0.10338 0.0
Gd1081 Gd 0.60013 0.98047 0.07621 0.0
C1082 C 0.57042 0.99721 0.05258 0.0
C1083 C 0.52256 0.93691 0.1303 0.0
C1084 C 0.50402 0.9377 0.14309 0.0
C1085 C 0.48782 0.93028 0.11042 0.0
C1086 C 0.5011 0.94339 0.18985 0.0
C1087 C 0.46647 0.93404 0.17082 0.0
C1088 C 0.48281 0.94168 0.20331 0.0
C1089 C 0.46951 0.92851 0.12389 0.0
C1090 C 0.57336 0.93956 0.02813 0.0
C1091 C 0.59026 0.9414 0.13884 0.0
C1092 C 0.63182 0.99676 0.02405 0.0
C1093 C 0.6429 0.98743 1.00633 0.0
C1094 C 0.66273 0.99898 0.9933 0.0
C1095 C 0.63462 0.96687 1.01114 0.0
C1096 C 0.6669 0.97019 1.00257 0.0
C1097 C 0.64646 0.95822 1.00872 0.0
C1098 C 0.67467 0.99038 0.99111 0.0
C1099 C 0.59539 0.99165 0.16822 0.0
O1100 O 0.55635 0.9797 0.06812 0.0
O1101 O 0.58904 1.0013 0.05329 0.0
O1102 O 0.5284 0.93912 0.08481 0.0
O1103 O 0.53751 0.94389 0.16093 0.0
O1104 O 0.562 0.92939 0.06391 0.0
O1105 O 0.57605 0.95692 0.0334 0.0
O1106 O 0.60145 0.95339 0.10376 0.0
O1107 O 0.57461 0.94248 0.15323 0.0
O1108 O 0.63199 0.99867 0.07142 0.0
O1109 O 0.61418 0.9898 1.00548 0.0
O1110 O 0.61037 0.99028 0.153 0.0
O1111 O 0.58234 0.98557 0.13377 0.0
H1112 H 0.48915 0.92538 0.07437 0.0
H1113 H 0.51286 0.94878 0.21673 0.0
H1114 H 0.48139 0.94588 0.24005 0.0
H1115 H 0.4577 0.92279 0.09715 0.0
H1116 H 0.66937 1.01487 0.98933 0.0
H1117 H 0.61941 0.95779 0.02171 0.0
H1118 H 0.64006 0.94266 0.01754 0.0
H1119 H 0.69041 1.00008 0.98638 0.0
Gd1120 Gd 0.13563 0.62698 0.10202 0.0
Gd1121 Gd 0.10886 0.63854 0.07126 0.0
C1122 C 0.09548 0.59298 0.04881 0.0
C1123 C 0.15537 0.60921 0.12964 0.0
C1124 C 0.15692 0.59065 0.13781 0.0
C1125 C 0.1678 0.58591 0.10487 0.0
C1126 C 0.15005 0.57895 0.18049 0.0
C1127 C 0.16554 0.55904 0.15738 0.0
C1128 C 0.15411 0.56336 0.18985 0.0
C1129 C 0.17199 0.57054 0.11435 0.0
C1130 C 0.14987 0.65479 0.02478 0.0
C1131 C 0.14689 0.67055 0.13408 0.0
C1132 C 0.09073 0.65332 0.02377 0.0
C1133 C 0.09577 0.67418 0.02424 0.0
C1134 C 0.08082 0.67891 0.02999 0.0
C1135 C 0.11567 0.68921 0.02902 0.0
C1136 C 0.10532 0.71221 0.05516 0.0
C1137 C 0.1204 0.7081 0.04478 0.0
C1138 C 0.08559 0.6979 0.04511 0.0
C1139 C 0.09922 0.62585 0.16574 0.0
O1140 O 0.11348 0.59837 0.06435 0.0
O1141 O 0.08947 0.6061 0.0488 0.0
O1142 O 0.15467 0.61472 0.08495 0.0
O1143 O 0.14566 0.61427 0.15988 0.0
O1144 O 0.15992 0.65516 0.06289 0.0
O1145 O 0.13303 0.63925 0.02893 0.0
O1146 O 0.13396 0.66802 0.09947 0.0
O1147 O 0.14804 0.65496 0.14899 0.0
O1148 O 0.08431 0.64409 0.06525 0.0
O1149 O 0.10373 0.64976 1.00363 0.0
O1150 O 0.10378 0.64322 0.14917 0.0
O1151 O 0.10437 0.61744 0.13278 0.0
H1152 H 0.17366 0.59454 0.07191 0.0
H1153 H 0.14191 0.58213 0.20743 0.0
H1154 H 0.14888 0.55516 0.22358 0.0
H1155 H 0.18052 0.56779 0.08767 0.0
H1156 H 0.06543 0.66755 0.02677 0.0
H1157 H 0.12752 0.68598 0.02451 0.0
H1158 H 0.13567 0.71899 0.0523 0.0
H1159 H 0.07373 0.7008 0.0535 0.0
Gd1160 Gd 0.46314 0.53056 0.10333 0.0
Gd1161 Gd 0.45186 0.49213 0.07359 0.0
C1162 C 0.49671 0.52363 0.04893 0.0
C1163 C 0.48138 0.56824 0.12907 0.0
C1164 C 0.50059 0.58777 0.13541 0.0
C1165 C 0.50701 0.60238 0.09875 0.0
C1166 C 0.51127 0.59323 0.1799 0.0
C1167 C 0.53338 0.62745 0.15139 0.0
C1168 C 0.52744 0.61263 0.18759 0.0
C1169 C 0.52301 0.62171 0.1065 0.0
C1170 C 0.43582 0.51667 0.02501 0.0
C1171 C 0.42053 0.50008 0.139 0.0
C1172 C 0.43092 0.45759 0.03602 0.0
C1173 C 0.40933 0.44603 0.02853 0.0
C1174 C 0.39681 0.43717 0.06849 0.0
C1175 C 0.40094 0.44426 0.98199 0.0
C1176 C 0.36812 0.42225 1.01467 0.0
C1177 C 0.3805 0.43261 0.9752 0.0
C1178 C 0.37656 0.42552 0.06173 0.0
C1179 C 0.47493 0.49956 0.15525 0.0
O1180 O 0.49277 0.53499 0.0769 0.0
O1181 O 0.48216 0.50579 0.03703 0.0
O1182 O 0.47507 0.56173 0.08495 0.0
O1183 O 0.47657 0.55368 0.15978 0.0
O1184 O 0.43543 0.52679 0.0621 0.0
O1185 O 0.45137 0.51539 0.03019 0.0
O1186 O 0.42284 0.48855 0.10706 0.0
O1187 O 0.436 0.51731 0.15055 0.0
O1188 O 0.43708 0.46037 0.08134 0.0
O1189 O 0.44044 0.47348 1.00929 0.0
O1190 O 0.47578 0.49089 0.11582 0.0
O1191 O 0.46197 0.50512 0.14911 0.0
H1192 H 0.49923 0.59909 0.06418 0.0
H1193 H 0.50675 0.58268 0.20953 0.0
H1194 H 0.53475 0.61623 0.22281 0.0
H1195 H 0.52708 0.63232 0.07712 0.0
H1196 H 0.40264 0.43857 0.10511 0.0
H1197 H 0.41021 0.45141 0.95064 0.0
H1198 H 0.37454 0.43083 0.93867 0.0
H1199 H 0.36789 0.41781 0.09341 0.0
Gd1200 Gd 0.10883 0.48845 0.57689 0.0
Gd1201 Gd 0.13334 0.52833 0.60029 0.0
C1202 C 0.14868 0.49969 0.63749 0.0
C1203 C 0.09158 0.45319 0.54208 0.0
C1204 C 0.0937 0.43675 0.56202 0.0
C1205 C 0.08309 0.42676 0.60384 0.0
C1206 C 0.10897 0.43357 0.54552 0.0
C1207 C 0.10457 0.41295 0.61595 0.0
C1208 C 0.11432 0.42169 0.57227 0.0
C1209 C 0.08853 0.4151 0.63059 0.0
C1210 C 0.10091 0.49349 0.67157 0.0
C1211 C 0.09107 0.51689 0.54953 0.0
C1212 C 0.1516 0.56633 0.62278 0.0
C1213 C 0.15121 0.58515 0.63536 0.0
C1214 C 0.15756 0.60076 0.60129 0.0
C1215 C 0.14705 0.58893 0.68293 0.0
C1216 C 0.15562 0.62322 0.66189 0.0
C1217 C 0.14914 0.60748 0.69583 0.0
C1218 C 0.1597 0.61935 0.6142 0.0
C1219 C 0.14783 0.51458 0.52377 0.0
O1220 O 0.13614 0.48767 0.60422 0.0
O1221 O 0.14771 0.51559 0.65021 0.0
O1222 O 0.0824 0.45969 0.56974 0.0
O1223 O 0.10761 0.46759 0.52294 0.0
O1224 O 0.10509 0.48034 0.65604 0.0
O1225 O 0.10395 0.50572 0.63661 0.0
O1226 O 0.10739 0.53092 0.57017 0.0
O1227 O 0.08854 0.49887 0.54521 0.0
O1228 O 0.14782 0.55949 0.57805 0.0
O1229 O 0.14587 0.55205 0.65495 0.0
O1230 O 0.15819 0.52598 0.55943 0.0
O1231 O 0.13048 0.5118 0.5296 0.0
H1232 H 0.07115 0.42869 0.6174 0.0
H1233 H 0.11739 0.44101 0.51325 0.0
H1234 H 0.12639 0.41977 0.55965 0.0
H1235 H 0.0802 0.40779 0.66308 0.0
H1236 H 0.16131 0.59876 0.56453 0.0
H1237 H 0.14257 0.57767 0.71083 0.0
H1238 H 0.14612 0.60957 0.7332 0.0
H1239 H 0.16452 0.63069 0.58645 0.0
Gd1240 Gd 0.60331 0.64205 0.58019 0.0
Gd1241 Gd 0.55885 0.62407 0.59259 0.0
C1242 C 0.58712 0.669 0.63154 0.0
C1243 C 0.6379 0.65936 0.54147 0.0
C1244 C 0.64999 0.67999 0.52567 0.0
C1245 C 0.64484 0.69402 0.5403 0.0
C1246 C 0.66697 0.68601 0.49779 0.0
C1247 C 0.67477 0.72039 0.50465 0.0
C1248 C 0.67923 0.70606 0.48698 0.0
C1249 C 0.65696 0.71397 0.52958 0.0
C1250 C 0.59154 0.62051 0.66517 0.0
C1251 C 0.57395 0.59598 0.54148 0.0
C1252 C 0.52184 0.60452 0.62143 0.0
C1253 C 0.50311 0.58611 0.63749 0.0
C1254 C 0.50106 0.56711 0.63942 0.0
C1255 C 0.48629 0.58757 0.6487 0.0
C1256 C 0.46579 0.55165 0.66334 0.0
C1257 C 0.46806 0.57078 0.66121 0.0
C1258 C 0.48279 0.55023 0.65239 0.0
C1259 C 0.57286 0.65303 0.51628 0.0
O1260 O 0.60123 0.66891 0.60504 0.0
O1261 O 0.57038 0.65211 0.63964 0.0
O1262 O 0.63505 0.65693 0.58866 0.0
O1263 O 0.62173 0.64881 0.51609 0.0
O1264 O 0.60706 0.63792 0.6599 0.0
O1265 O 0.58162 0.61622 0.62482 0.0
O1266 O 0.55879 0.59771 0.55657 0.0
O1267 O 0.59232 0.61125 0.54533 0.0
O1268 O 0.52744 0.60594 0.57587 0.0
O1269 O 0.53688 0.61389 0.65156 0.0
O1270 O 0.55448 0.64163 0.5284 0.0
O1271 O 0.5817 0.64687 0.54357 0.0
H1272 H 0.63199 0.68972 0.56245 0.0
H1273 H 0.67126 0.67538 0.48646 0.0
H1274 H 0.69303 0.7104 0.46853 0.0
H1275 H 0.65315 0.72452 0.54421 0.0
H1276 H 0.51353 0.56526 0.63053 0.0
H1277 H 0.48717 0.60188 0.6474 0.0
H1278 H 0.45576 0.57292 0.66987 0.0
H1279 H 0.48193 0.53594 0.65291 0.0
Gd1280 Gd 0.45165 0.97852 0.57921 0.0
Gd1281 Gd 0.46385 0.95185 0.60865 0.0
C1282 C 0.42061 0.94035 0.64222 0.0
C1283 C 0.43874 0.99643 0.52374 0.0
C1284 C 0.41902 0.98838 0.50212 0.0
C1285 C 0.41325 1.00096 0.48077 0.0
C1286 C 0.40503 0.9683 0.50858 0.0
C1287 C 0.37883 0.97452 0.48406 0.0
C1288 C 0.38508 0.96132 0.49904 0.0
C1289 C 0.39327 0.99406 0.47149 0.0
C1290 C 0.46531 0.98845 0.67281 0.0
C1291 C 0.49738 0.99244 0.55717 0.0
C1292 C 0.48205 0.93267 0.63655 0.0
C1293 C 0.50119 0.93236 0.64424 0.0
C1294 C 0.50778 0.924 0.60844 0.0
C1295 C 0.51164 0.93775 0.68904 0.0
C1296 C 0.5339 0.92556 0.66243 0.0
C1297 C 0.52778 0.93458 0.6978 0.0
C1298 C 0.52372 0.9207 0.61727 0.0
C1299 C 0.43552 0.93721 0.53259 0.0
O1300 O 0.4222 0.95239 0.60611 0.0
O1301 O 0.43685 0.94061 0.6576 0.0
O1302 O 0.43931 0.99786 0.57126 0.0
O1303 O 0.44905 0.98872 0.50742 0.0
O1304 O 0.4492 0.98708 0.65557 0.0
O1305 O 0.4733 0.98292 0.63979 0.0
O1306 O 0.49186 0.974 0.56918 0.0
O1307 O 0.48447 0.99865 0.56107 0.0
O1308 O 0.47621 0.93291 0.59191 0.0
O1309 O 0.47679 0.94226 0.6667 0.0
O1310 O 0.43568 0.92703 0.56986 0.0
O1311 O 0.45079 0.95417 0.53716 0.0
H1312 H 0.4239 1.01645 0.47499 0.0
H1313 H 0.40929 0.95835 0.52473 0.0
H1314 H 0.37443 0.94614 0.50822 0.0
H1315 H 0.38912 1.00475 0.45979 0.0
H1316 H 0.50016 0.91935 0.57368 0.0
H1317 H 0.50699 0.94392 0.71805 0.0
H1318 H 0.53495 0.93848 0.73319 0.0
H1319 H 0.52793 0.91405 0.5885 0.0
Gd1320 Gd 0.16989 0.42372 0.28849 0.0
Gd1321 Gd 0.21386 0.45261 0.26774 0.0
C1322 C 0.18213 0.46629 0.23583 0.0
C1323 C 0.1367 0.40497 0.33417 0.0
C1324 C 0.12275 0.41158 0.3472 0.0
C1325 C 0.10378 0.39817 0.36381 0.0
C1326 C 0.12752 0.43095 0.33572 0.0
C1327 C 0.09357 0.42247 0.34736 0.0
C1328 C 0.11316 0.43649 0.33632 0.0
C1329 C 0.08923 0.40362 0.36413 0.0
C1330 C 0.17963 0.41574 0.19906 0.0
C1331 C 0.20215 0.40996 0.31998 0.0
C1332 C 0.25045 0.47033 0.23551 0.0
C1333 C 0.2688 0.46936 0.22097 0.0
C1334 C 0.28342 0.47228 0.25588 0.0
C1335 C 0.27334 0.46819 0.17168 0.0
C1336 C 0.30638 0.47305 0.19286 0.0
C1337 C 0.29162 0.46988 0.15798 0.0
C1338 C 0.30172 0.47406 0.24221 0.0
C1339 C 0.20018 0.46672 0.34629 0.0
O1340 O 0.16912 0.45105 0.26229 0.0
O1341 O 0.19982 0.46836 0.22592 0.0
O1342 O 0.13841 0.40329 0.28715 0.0
O1343 O 0.1538 0.4141 0.35662 0.0
O1344 O 0.16313 0.41498 0.21032 0.0
O1345 O 0.19119 0.42172 0.23687 0.0
O1346 O 0.21636 0.42726 0.3035 0.0
O1347 O 0.18343 0.40575 0.31905 0.0
O1348 O 0.2455 0.46817 0.28171 0.0
O1349 O 0.23492 0.46356 0.20648 0.0
O1350 O 0.21832 0.47493 0.33105 0.0
O1351 O 0.19166 0.45117 0.32065 0.0
H1352 H 0.09982 0.3831 0.37269 0.0
H1353 H 0.1419 0.44117 0.32182 0.0
H1354 H 0.11688 0.45101 0.32287 0.0
H1355 H 0.07418 0.39239 0.37227 0.0
H1356 H 0.28092 0.47365 0.29417 0.0
H1357 H 0.2629 0.46643 0.14329 0.0
H1358 H 0.29436 0.46926 0.11951 0.0
H1359 H 0.31223 0.47621 0.27072 0.0
Gd1360 Gd 0.66431 0.77005 0.28955 0.0
Gd1361 Gd 0.63608 0.77993 0.25799 0.0
C1362 C 0.62504 0.73693 0.22609 0.0
C1363 C 0.67917 0.74991 0.32519 0.0
C1364 C 0.67003 0.72815 0.32725 0.0
C1365 C 0.67018 0.71781 0.28561 0.0
C1366 C 0.65982 0.7174 0.36894 0.0
C1367 C 0.65122 0.68639 0.32781 0.0
C1368 C 0.65042 0.69669 0.36918 0.0
C1369 C 0.66089 0.69733 0.28578 0.0
C1370 C 0.67947 0.79338 0.20836 0.0
C1371 C 0.67561 0.8139 0.31597 0.0
C1372 C 0.61697 0.79823 0.22992 0.0
C1373 C 0.61781 0.81773 0.21797 0.0
C1374 C 0.6133 0.82807 0.25335 0.0
C1375 C 0.62065 0.82498 0.16974 0.0
C1376 C 0.61447 0.85213 0.19266 0.0
C1377 C 0.61908 0.84178 0.15742 0.0
C1378 C 0.6117 0.84489 0.24102 0.0
C1379 C 0.62287 0.7527 0.3359 0.0
O1380 O 0.64007 0.74077 0.25559 0.0
O1381 O 0.62152 0.75136 0.21483 0.0
O1382 O 0.68345 0.7577 0.28157 0.0
O1383 O 0.6712 0.7577 0.35267 0.0
O1384 O 0.68893 0.79485 0.24843 0.0
O1385 O 0.66113 0.77981 0.21378 0.0
O1386 O 0.66094 0.8098 0.28544 0.0
O1387 O 0.67902 0.7996 0.32919 0.0
O1388 O 0.6188 0.7942 0.27534 0.0
O1389 O 0.62466 0.79089 0.19977 0.0
O1390 O 0.61217 0.75255 0.29944 0.0
O1391 O 0.63967 0.76839 0.33121 0.0
H1392 H 0.67776 0.72552 0.25269 0.0
H1393 H 0.65931 0.72499 0.40151 0.0
H1394 H 0.64322 0.68882 0.40226 0.0
H1395 H 0.66249 0.69028 0.25347 0.0
H1396 H 0.61063 0.82294 0.29077 0.0
H1397 H 0.62366 0.81736 0.14093 0.0
H1398 H 0.621 0.84629 0.11956 0.0
H1399 H 0.60834 0.85225 0.26975 0.0
Gd1400 Gd 0.32305 0.91784 0.2899 0.0
Gd1401 Gd 0.30896 0.87439 0.27103 0.0
C1402 C 0.35271 0.90577 0.23414 0.0
C1403 C 0.33827 0.95191 0.33168 0.0
C1404 C 0.35927 0.96549 0.34184 0.0
C1405 C 0.36689 0.98595 0.34013 0.0
C1406 C 0.37229 0.958 0.34296 0.0
C1407 C 0.40013 0.99103 0.33285 0.0
C1408 C 0.39259 0.97064 0.33789 0.0
C1409 C 0.38725 0.99868 0.33668 0.0
C1410 C 0.3048 0.90731 0.20113 0.0
C1411 C 0.27772 0.8846 0.32436 0.0
C1412 C 0.29095 0.83744 0.24078 0.0
C1413 C 0.27201 0.81798 0.23183 0.0
C1414 C 0.26579 0.80265 0.26656 0.0
C1415 C 0.26132 0.81333 0.18744 0.0
C1416 C 0.23952 0.77855 0.21248 0.0
C1417 C 0.24523 0.79401 0.17814 0.0
C1418 C 0.24997 0.78344 0.25714 0.0
C1419 C 0.33745 0.88866 0.34804 0.0
O1420 O 0.35147 0.91883 0.26308 0.0
O1421 O 0.33664 0.88854 0.22421 0.0
O1422 O 0.33398 0.94931 0.28511 0.0
O1423 O 0.33001 0.93529 0.35628 0.0
O1424 O 0.32077 0.92381 0.21141 0.0
O1425 O 0.29946 0.89602 0.23935 0.0
O1426 O 0.28209 0.87099 0.31067 0.0
O1427 O 0.2911 0.90378 0.32014 0.0
O1428 O 0.29588 0.84306 0.28611 0.0
O1429 O 0.29692 0.85257 0.21094 0.0
O1430 O 0.32772 0.87052 0.3326 0.0
O1431 O 0.33027 0.89721 0.32297 0.0
H1432 H 0.35706 0.99198 0.33836 0.0
H1433 H 0.36651 0.94224 0.34328 0.0
H1434 H 0.40216 0.96441 0.33388 0.0
H1435 H 0.3927 1.01436 0.33184 0.0
H1436 H 0.27362 0.80532 0.30093 0.0
H1437 H 0.26569 0.82448 0.15929 0.0
H1438 H 0.23778 0.79099 0.14316 0.0
H1439 H 0.24607 0.77227 0.28504 0.0
H1440 H 0.25298 0.07541 0.07029 0.0
H1441 H 0.30709 0.10612 0.9882 0.0
H1442 H 0.30349 0.07451 0.96263 0.0
H1443 H 0.28469 0.03757 0.96167 0.0
H1444 H 0.23072 1.00703 0.04417 0.0
H1445 H 0.23483 0.03869 0.07145 0.0
C1446 C 0.26418 0.07537 0.04723 0.0
C1447 C 0.28029 0.0937 0.0313 0.0
C1448 C 0.26208 0.05684 0.03248 0.0
C1449 C 0.2943 0.09269 1.00073 0.0
C1450 C 0.29233 0.07442 0.98618 0.0
C1451 C 0.27388 0.03776 0.98603 0.0
C1452 C 0.25737 1.0195 1.00074 0.0
C1453 C 0.27623 0.05632 1.00152 0.0
C1454 C 0.24359 1.0205 0.03203 0.0
C1455 C 0.24592 0.03876 0.04769 0.0
H1456 H 0.07135 0.23986 0.02374 0.0
H1457 H 0.05463 0.28106 0.96744 0.0
H1458 H 1.01994 0.2574 0.98371 0.0
H1459 H 0.99349 0.22417 1.01253 0.0
H1460 H 1.01061 0.18357 0.07097 0.0
H1461 H 1.04526 0.20746 0.05555 0.0
C1462 C 0.06021 0.24387 1.01566 0.0
C1463 C 0.06605 0.26255 0.99424 0.0
C1464 C 1.03995 0.23001 0.02528 0.0
C1465 C 1.05099 0.26703 0.98392 0.0
C1466 C 1.03094 0.25334 0.99307 0.0
C1467 C 1.00477 0.22049 0.02181 0.0
C1468 C 0.99902 0.20179 0.04323 0.0
C1469 C 1.0251 0.23463 1.01333 0.0
C1470 C 1.01422 0.1977 0.0551 0.0
C1471 C 1.03422 0.21144 0.0461 0.0
H1472 H 0.82747 0.80664 0.94062 0.0
H1473 H 0.84076 0.8493 0.05554 0.0
H1474 H 0.86834 0.84515 0.0825 0.0
H1475 H 0.88984 0.83032 0.07223 0.0
H1476 H 0.87633 0.78752 0.95729 0.0
H1477 H 0.84835 0.79106 0.93194 0.0
C1478 C 0.83619 0.81487 0.97202 0.0
C1479 C 0.83162 0.8282 0.99609 0.0
C1480 C 0.85242 0.81259 0.98725 0.0
C1481 C 0.84358 0.83887 0.03619 0.0
C1482 C 0.85952 0.83653 0.05166 0.0
C1483 C 0.88073 0.82154 0.04195 0.0
C1484 C 0.88577 0.80873 0.0168 0.0
C1485 C 0.86426 0.82354 0.02733 0.0
C1486 C 0.8735 0.79782 0.9772 0.0
C1487 C 0.85721 0.79972 0.9627 0.0
H1488 H 1.03476 0.22022 0.5241 0.0
H1489 H 1.05158 0.27972 0.56748 0.0
H1490 H 0.08612 0.29058 0.54952 0.0
H1491 H 0.11245 0.2832 0.52422 0.0
H1492 H 0.09572 0.22324 0.48554 0.0
H1493 H 0.06101 0.21287 0.49874 0.0
C1494 C 1.04589 0.23565 0.52877 0.0
C1495 C 1.04013 0.24911 0.54647 0.0
C1496 C 0.06615 0.24182 0.51963 0.0
C1497 C 0.05519 0.26894 0.55343 0.0
C1498 C 0.07514 0.2752 0.54334 0.0
C1499 C 0.10124 0.26788 0.51832 0.0
C1500 C 0.10714 0.25411 0.50392 0.0
C1501 C 0.08094 0.26179 0.52681 0.0
C1502 C 0.09203 0.23428 0.49712 0.0
C1503 C 0.07198 0.22828 0.50448 0.0
H1504 H 0.81066 0.85242 0.52833 0.0
H1505 H 0.86932 0.89272 0.47624 0.0
H1506 H 0.87922 0.8681 0.4923 0.0
H1507 H 0.87166 0.83469 0.52271 0.0
H1508 H 0.8126 0.79459 0.57355 0.0
H1509 H 0.80292 0.8191 0.55677 0.0
C1510 C 0.82566 0.85595 0.5206 0.0
C1511 C 0.83904 0.87476 0.5006 0.0
C1512 C 0.83139 0.84147 0.52977 0.0
C1513 C 0.85838 0.87853 0.49077 0.0
C1514 C 0.86417 0.86435 0.50027 0.0
C1515 C 0.85662 0.83119 0.52975 0.0
C1516 C 0.84305 0.81236 0.54949 0.0
C1517 C 0.85085 0.84566 0.51977 0.0
C1518 C 0.82364 0.80861 0.55836 0.0
C1519 C 0.81796 0.8228 0.54884 0.0
H1520 H 0.21249 0.99405 0.4697 0.0
H1521 H 0.23116 0.96338 0.56854 0.0
H1522 H 0.2595 0.99481 0.59327 0.0
H1523 H 0.27929 1.03147 0.58859 0.0
H1524 H 0.26082 0.06229 0.48995 0.0
H1525 H 0.23282 1.03071 0.46338 0.0
C1526 C 0.2228 0.99407 0.49629 0.0
C1527 C 0.21913 0.97584 0.51718 0.0
C1528 C 0.23945 1.0125 0.51056 0.0
C1529 C 0.23293 0.97679 0.55212 0.0
C1530 C 0.24942 0.99492 0.56619 0.0
C1531 C 0.2693 1.03136 0.56086 0.0
C1532 C 0.27254 0.04961 0.5413 0.0
C1533 C 0.25286 1.01294 0.54593 0.0
C1534 C 0.25904 0.04877 0.50578 0.0
C1535 C 0.24285 1.03058 0.49056 0.0
H1536 H 0.82217 1.0334 0.07594 0.0
H1537 H 0.88002 0.06505 1.01116 0.0
H1538 H 0.87728 1.03364 0.98605 0.0
H1539 H 0.85885 0.99675 0.9842 0.0
H1540 H 0.80086 0.96546 0.04886 0.0
H1541 H 0.80348 0.99681 0.07228 0.0
C1542 C 0.83419 1.03356 0.05603 0.0
C1543 C 0.85131 0.05196 0.04554 0.0
C1544 C 0.83259 1.01525 0.04186 0.0
C1545 C 0.86663 0.05142 0.01985 0.0
C1546 C 0.86508 1.03331 1.00548 0.0
C1547 C 0.84664 0.99666 1.003 0.0
C1548 C 0.82969 0.97825 1.01483 0.0
C1549 C 0.84817 1.01506 0.01647 0.0
C1550 C 0.8143 0.97898 0.03982 0.0
C1551 C 0.8157 0.99708 0.05306 0.0
H1552 H 0.0935 0.86905 0.96454 0.0
H1553 H 0.12427 0.85446 0.07327 0.0
H1554 H 0.093 0.82666 0.10039 0.0
H1555 H 0.05622 0.80609 0.09492 0.0
H1556 H 1.02566 0.82075 0.98592 0.0
H1557 H 0.05706 0.84802 0.95741 0.0
C1558 C 0.09358 0.85976 0.99383 0.0
C1559 C 0.11183 0.86451 0.01662 0.0
C1560 C 0.07523 0.84338 1.0095 0.0
C1561 C 0.11089 0.85195 0.05508 0.0
C1562 C 0.09282 0.83572 0.07061 0.0
C1563 C 0.05636 0.8151 0.06462 0.0
C1564 C 1.03812 0.81096 0.04285 0.0
C1565 C 0.07478 0.83125 0.04837 0.0
C1566 C 1.03908 0.8232 1.00375 0.0
C1567 C 0.05721 0.839 0.98733 0.0
H1568 H 0.27935 0.26603 0.08258 0.0
H1569 H 0.2566 0.21188 1.00003 0.0
H1570 H 0.22823 0.21501 0.97429 0.0
H1571 H 0.20895 0.23263 0.97674 0.0
H1572 H 0.23231 0.28705 0.05883 0.0
H1573 H 0.26076 0.28411 0.08291 0.0
C1574 C 0.26832 0.25493 0.0586 0.0
C1575 C 0.27049 0.23871 0.04333 0.0
C1576 C 0.25178 0.25676 0.04397 0.0
C1577 C 0.25568 0.22456 1.01249 0.0
C1578 C 0.23929 0.22634 0.99775 0.0
C1579 C 0.22028 0.24401 0.99954 0.0
C1580 C 0.21788 0.26 0.01604 0.0
C1581 C 0.23703 0.24232 1.01342 0.0
C1582 C 0.23304 0.27431 0.04605 0.0
C1583 C 0.2496 0.27273 0.05973 0.0
H1584 H 1.04814 0.80404 0.43194 0.0
H1585 H 0.07806 0.84655 0.54702 0.0
H1586 H 1.04655 0.84202 0.57563 0.0
H1587 H 1.01024 0.82707 0.56717 0.0
H1588 H 0.98004 0.78465 0.45201 0.0
H1589 H 1.01141 0.78837 0.42468 0.0
C1590 C 1.04783 0.81223 0.46354 0.0
C1591 C 0.06593 0.82569 0.48703 0.0
C1592 C 1.02934 0.80977 0.47983 0.0
C1593 C 0.06475 0.8361 0.52781 0.0
C1594 C 1.04656 0.83355 0.54431 0.0
C1595 C 1.01031 0.8184 0.53637 0.0
C1596 C 0.99221 0.8056 0.51197 0.0
C1597 C 1.0287 0.82056 0.5205 0.0
C1598 C 0.99332 0.79491 0.47157 0.0
C1599 C 1.01144 0.79692 0.4559 0.0
H1600 H 0.24927 0.19287 0.56114 0.0
H1601 H 0.30512 0.21687 0.48651 0.0
H1602 H 0.30229 0.24519 0.46021 0.0
H1603 H 0.28401 0.26365 0.45697 0.0
H1604 H 0.22834 0.24002 0.53195 0.0
H1605 H 0.23131 0.21177 0.55942 0.0
C1606 C 0.26099 0.20431 0.53951 0.0
C1607 C 0.27738 0.20214 0.52588 0.0
C1608 C 0.25935 0.22098 0.52432 0.0
C1609 C 0.29209 0.21743 0.49718 0.0
C1610 C 0.29057 0.23392 0.48223 0.0
C1611 C 0.27252 0.25244 0.47962 0.0
C1612 C 0.25594 0.25438 0.49225 0.0
C1613 C 0.27425 0.23591 0.49531 0.0
C1614 C 0.24131 0.23931 0.52143 0.0
C1615 C 0.24299 0.22298 0.53722 0.0
H1616 H 0.89151 0.07789 0.56832 0.0
H1617 H 0.87463 0.10766 0.46209 0.0
H1618 H 0.84625 0.07609 0.43818 0.0
H1619 H 0.82598 0.03945 0.44561 0.0
H1620 H 0.84273 1.00971 0.55203 0.0
H1621 H 0.87069 0.04144 0.57754 0.0
C1622 C 0.88159 0.07765 0.54028 0.0
C1623 C 0.88577 0.09565 0.51711 0.0
C1624 C 0.86493 0.05916 0.52649 0.0
C1625 C 0.87246 0.09442 0.48034 0.0
C1626 C 0.85595 0.0762 0.4667 0.0
C1627 C 0.83557 0.03985 0.47481 0.0
C1628 C 0.83186 1.02183 0.49687 0.0
C1629 C 0.85201 0.05839 0.48925 0.0
C1630 C 0.84489 1.02304 0.53422 0.0
C1631 C 0.86105 0.04132 0.54887 0.0
H1632 H 0.9629 0.43004 0.32894 0.0
H1633 H 0.90853 0.41136 0.40657 0.0
H1634 H 0.89834 0.37677 0.39048 0.0
H1635 H 0.9044 0.35098 0.35312 0.0
H1636 H 0.95929 0.37023 0.27693 0.0
H1637 H 0.96925 0.40453 0.29333 0.0
C1638 C 0.94877 0.41847 0.34225 0.0
C1639 C 0.93669 0.42379 0.36938 0.0
C1640 C 0.94289 0.39825 0.33304 0.0
C1641 C 0.91848 0.40816 0.38634 0.0
C1642 C 0.91251 0.38815 0.37687 0.0
C1643 C 0.91861 0.36262 0.34036 0.0
C1644 C 0.93092 0.35746 0.31363 0.0
C1645 C 0.92456 0.38288 0.35025 0.0
C1646 C 0.94927 0.3732 0.29758 0.0
C1647 C 0.95509 0.3931 0.3069 0.0
H1648 H 0.73649 0.57107 0.36299 0.0
H1649 H 0.71763 0.60232 0.26676 0.0
H1650 H 0.68331 0.57803 0.28172 0.0
H1651 H 0.65767 0.54731 0.32116 0.0
H1652 H 0.67585 0.51567 0.41775 0.0
H1653 H 0.71046 0.54022 0.40382 0.0
C1654 C 0.72492 0.57269 0.34552 0.0
C1655 C 0.73022 0.58905 0.31399 0.0
C1656 C 0.70462 0.5583 0.35426 0.0
C1657 C 0.71456 0.59038 0.29176 0.0
C1658 C 0.69464 0.57627 0.30005 0.0
C1659 C 0.66912 0.54563 0.33913 0.0
C1660 C 0.6636 0.52932 0.3709 0.0
C1661 C 0.68936 0.56006 0.33107 0.0
C1662 C 0.67914 0.52796 0.39377 0.0
C1663 C 0.69917 0.54207 0.38555 0.0
H1664 H 0.48939 0.1358 0.28363 0.0
H1665 H 0.51029 0.18744 0.37515 0.0
H1666 H 0.5384 0.18404 0.40077 0.0
H1667 H 0.55825 0.16725 0.3957 0.0
H1668 H 0.53736 0.11543 0.30448 0.0
H1669 H 0.50879 0.11827 0.2806 0.0
C1670 C 0.49994 0.14623 0.30954 0.0
C1671 C 0.49729 0.16187 0.32727 0.0
C1672 C 0.51652 0.14431 0.32408 0.0
C1673 C 0.51154 0.17521 0.36062 0.0
C1674 C 0.52782 0.1733 0.37535 0.0
C1675 C 0.54743 0.15637 0.37095 0.0
C1676 C 0.55058 0.14118 0.35199 0.0
C1677 C 0.53065 0.15802 0.35713 0.0
C1678 C 0.53606 0.12758 0.31938 0.0
C1679 C 0.51942 0.12909 0.30577 0.0
H1680 H 0.77707 0.61101 0.8368 0.0
H1681 H 0.76292 0.55016 0.82687 0.0
H1682 H 0.72814 0.53908 0.84182 0.0
H1683 H 0.70102 0.54633 0.8606 0.0
H1684 H 0.71583 0.6072 0.87507 0.0
H1685 H 0.75013 0.61824 0.85516 0.0
C1686 C 0.76642 0.59531 0.83748 0.0
C1687 C 0.77314 0.58158 0.83074 0.0
C1688 C 0.7461 0.58886 0.8469 0.0
C1689 C 0.75869 0.56127 0.83247 0.0
C1690 C 0.73856 0.55484 0.84084 0.0
C1691 C 0.71166 0.56201 0.85868 0.0
C1692 C 0.70531 0.57583 0.86872 0.0
C1693 C 0.73196 0.56843 0.84848 0.0
C1694 C 0.71981 0.59608 0.86704 0.0
C1695 C 0.73967 0.60248 0.85582 0.0
H1696 H 0.48803 0.14214 0.9239 0.0
H1697 H 0.53906 0.16266 0.8313 0.0
H1698 H 0.53484 0.19022 0.80388 0.0
H1699 H 0.51699 0.20921 0.8068 0.0
H1700 H 0.46604 0.18847 0.9 0.0
H1701 H 0.47009 0.16083 0.92629 0.0
C1702 C 0.4982 0.15249 0.89737 0.0
C1703 C 0.51384 0.14991 0.87963 0.0
C1704 C 0.49579 0.1686 0.8819 0.0
C1705 C 0.52686 0.16393 0.84575 0.0
C1706 C 0.52445 0.17983 0.82998 0.0
C1707 C 0.50661 0.19861 0.83256 0.0
C1708 C 0.4912 0.20141 0.85124 0.0
C1709 C 0.509 0.18242 0.84782 0.0
C1710 C 0.47824 0.18731 0.88521 0.0
C1711 C 0.48047 0.17125 0.90018 0.0
H1712 H 0.9018 0.3075 0.88312 0.0
H1713 H 0.87181 0.32657 0.78349 0.0
H1714 H 0.89725 0.36103 0.79631 0.0
H1715 H 0.92818 0.38654 0.83699 0.0
H1716 H 0.9584 0.36724 0.9354 0.0
H1717 H 0.93316 0.33287 0.92194 0.0
C1718 C 0.90074 0.31915 0.86425 0.0
C1719 C 0.88463 0.314 0.83201 0.0
C1720 C 0.91573 0.33928 0.87151 0.0
C1721 C 0.88395 0.32967 0.80792 0.0
C1722 C 0.89857 0.34957 0.81544 0.0
C1723 C 0.92941 0.37485 0.85513 0.0
C1724 C 0.94557 0.37993 0.88713 0.0
C1725 C 0.91461 0.35468 0.84711 0.0
C1726 C 0.94647 0.36421 0.91033 0.0
C1727 C 0.93186 0.34433 0.90281 0.0
H1728 H 0.47483 0.30752 0.3754 0.0
H1729 H 0.52606 0.32627 0.28451 0.0
H1730 H 0.53584 0.36085 0.29904 0.0
H1731 H 0.53049 0.38671 0.339 0.0
H1732 H 0.4789 0.36744 0.42913 0.0
H1733 H 0.46913 0.33308 0.41372 0.0
C1734 C 0.4882 0.31908 0.35879 0.0
C1735 C 0.49947 0.31371 0.32838 0.0
C1736 C 0.49387 0.33935 0.36721 0.0
C1737 C 0.51668 0.32942 0.30731 0.0
C1738 C 0.52244 0.34945 0.3159 0.0
C1739 C 0.517 0.37505 0.35493 0.0
C1740 C 0.50556 0.38025 0.38522 0.0
C1741 C 0.5112 0.35475 0.34578 0.0
C1742 C 0.48819 0.36446 0.4055 0.0
C1743 C 0.4825 0.34452 0.39681 0.0
H1744 H 0.72342 0.14472 0.43796 0.0
H1745 H 0.69459 0.15613 0.31817 0.0
H1746 H 0.72635 0.18345 0.29117 0.0
H1747 H 0.76259 0.20515 0.30207 0.0
H1748 H 0.79149 0.19395 0.42229 0.0
H1749 H 0.75989 0.1662 0.44815 0.0
C1750 C 0.72404 0.153 0.40559 0.0
C1751 C 0.70623 0.14792 0.38013 0.0
C1752 C 0.74261 0.16915 0.39031 0.0
C1753 C 0.70772 0.15933 0.33872 0.0
C1754 C 0.72604 0.17513 0.32317 0.0
C1755 C 0.76218 0.19661 0.33369 0.0
C1756 C 0.77997 0.20219 0.35992 0.0
C1757 C 0.74365 0.18033 0.34871 0.0
C1758 C 0.77844 0.19067 0.40131 0.0
C1759 C 0.7602 0.17452 0.41614 0.0
H1760 H 0.90144 0.61014 0.34557 0.0
H1761 H 0.85998 0.54986 0.30509 0.0
H1762 H 0.88471 0.54028 0.32246 0.0
H1763 H 0.91842 0.54854 0.35186 0.0
H1764 H 0.95972 0.60909 0.3907 0.0
H1765 H 0.93521 0.61862 0.37171 0.0
C1766 C 0.89769 0.59486 0.34063 0.0
C1767 C 0.87852 0.58089 0.32363 0.0
C1768 C 0.91223 0.58931 0.35057 0.0
C1769 C 0.87445 0.56121 0.3173 0.0
C1770 C 0.88869 0.55561 0.32754 0.0
C1771 C 0.92219 0.56387 0.35552 0.0
C1772 C 0.94123 0.57795 0.3732 0.0
C1773 C 0.90773 0.56948 0.34429 0.0
C1774 C 0.94538 0.59771 0.37784 0.0
C1775 C 0.93124 0.60328 0.36687 0.0
H1776 H 0.71558 0.13697 0.77864 0.0
H1777 H 0.74611 0.18846 0.87089 0.0
H1778 H 0.71452 0.18447 0.89749 0.0
H1779 H 0.67784 0.16698 0.89376 0.0
H1780 H 0.64719 0.11566 0.80085 0.0
H1781 H 0.67872 0.1192 0.77558 0.0
C1782 C 0.71541 0.14727 0.80488 0.0
C1783 C 0.73366 0.16301 0.82266 0.0
C1784 C 0.69689 0.14505 0.81987 0.0
C1785 C 0.73266 0.17618 0.85632 0.0
C1786 C 0.71444 0.17392 0.87164 0.0
C1787 C 0.67788 0.15638 0.8683 0.0
C1788 C 0.65959 0.14104 0.84947 0.0
C1789 C 0.69637 0.15848 0.85358 0.0
C1790 C 0.66061 0.12783 0.81583 0.0
C1791 C 0.67882 0.12976 0.80143 0.0
H1792 H 0.95012 0.59397 0.77623 0.0
H1793 H 0.90085 0.57553 0.87385 0.0
H1794 H 0.9042 0.54736 0.90006 0.0
H1795 H 0.92056 0.527 0.89442 0.0
H1796 H 0.97011 0.54583 0.79722 0.0
H1797 H 0.96697 0.57409 0.77209 0.0
C1798 C 0.94016 0.58392 0.80356 0.0
C1799 C 0.92524 0.58728 0.82297 0.0
C1800 C 0.94209 0.56741 0.81854 0.0
C1801 C 0.91251 0.57369 0.85807 0.0
C1802 C 0.91441 0.55741 0.87314 0.0
C1803 C 0.93087 0.53731 0.86806 0.0
C1804 C 0.94551 0.53366 0.8478 0.0
C1805 C 0.92909 0.55397 0.85358 0.0
C1806 C 0.95839 0.54751 0.81318 0.0
C1807 C 0.95671 0.56398 0.79885 0.0
H1808 H 0.55864 0.40716 0.89134 0.0
H1809 H 0.53736 0.44015 0.80976 0.0
H1810 H 0.50829 0.40928 0.78452 0.0
H1811 H 0.48887 0.37242 0.78299 0.0
H1812 H 0.51065 0.33961 0.86339 0.0
H1813 H 0.53916 0.37053 0.89066 0.0
C1814 C 0.5478 0.40776 0.86776 0.0
C1815 C 0.55064 0.42647 0.85291 0.0
C1816 C 0.53092 0.38971 0.85278 0.0
C1817 C 0.53586 0.42637 0.82287 0.0
C1818 C 0.51912 0.40855 0.80794 0.0
C1819 C 0.49973 0.37195 0.80681 0.0
C1820 C 0.49724 0.3533 0.82098 0.0
C1821 C 0.51645 0.39005 0.82244 0.0
C1822 C 0.51183 0.35342 0.85166 0.0
C1823 C 0.5283 0.37124 0.86734 0.0
H1824 H 0.58464 0.74434 0.71914 0.0
H1825 H 0.63726 0.77538 0.63168 0.0
H1826 H 0.63398 0.74392 0.60628 0.0
H1827 H 0.61634 0.70719 0.60794 0.0
H1828 H 0.56364 0.67585 0.69467 0.0
H1829 H 0.56703 0.70741 0.72116 0.0
C1830 C 0.59556 0.74437 0.69482 0.0
C1831 C 0.6112 0.76279 0.67751 0.0
C1832 C 0.59363 0.72589 0.68006 0.0
C1833 C 0.62484 0.7619 0.64538 0.0
C1834 C 0.62307 0.74372 0.63093 0.0
C1835 C 0.6056 0.70714 0.63296 0.0
C1836 C 0.58975 0.68872 0.64932 0.0
C1837 C 0.60753 0.72556 0.64788 0.0
C1838 C 0.57603 0.68945 0.6813 0.0
C1839 C 0.57797 0.70765 0.69654 0.0
H1840 H 0.34416 0.86722 0.73881 0.0
H1841 H 0.31483 0.88043 0.62331 0.0
H1842 H 0.34642 0.90787 0.59684 0.0
H1843 H 0.38303 0.92854 0.60493 0.0
H1844 H 0.4123 0.91552 0.72077 0.0
H1845 H 0.38054 0.88839 0.74833 0.0
C1846 C 0.34448 0.87614 0.70815 0.0
C1847 C 0.32654 0.87112 0.68328 0.0
C1848 C 0.36302 0.89234 0.69289 0.0
C1849 C 0.32796 0.88317 0.64313 0.0
C1850 C 0.34621 0.89919 0.62797 0.0
C1851 C 0.38252 0.91995 0.63659 0.0
C1852 C 0.40045 0.92451 0.6607 0.0
C1853 C 0.36394 0.90396 0.65233 0.0
C1854 C 0.39907 0.91273 0.70125 0.0
C1855 C 0.38076 0.89703 0.71713 0.0
H1856 H 0.15948 0.4727 0.60581 0.0
H1857 H 0.17608 0.51994 0.70989 0.0
H1858 H 0.20412 0.51643 0.73649 0.0
H1859 H 0.22485 0.50057 0.72914 0.0
H1860 H 0.20811 0.45339 0.62455 0.0
H1861 H 0.17983 0.4565 0.59946 0.0
C1862 C 0.16908 0.48216 0.63467 0.0
C1863 C 0.16528 0.49654 0.65584 0.0
C1864 C 0.18553 0.48022 0.64961 0.0
C1865 C 0.1783 0.50869 0.6928 0.0
C1866 C 0.19449 0.5067 0.70806 0.0
C1867 C 0.21499 0.49078 0.70116 0.0
C1868 C 0.21914 0.47678 0.67889 0.0
C1869 C 0.19839 0.49259 0.68663 0.0
C1870 C 0.20593 0.46457 0.64215 0.0
C1871 C 0.18949 0.46623 0.62785 0.0
H1872 H 0.39084 0.93592 0.2585 0.0
H1873 H 0.3601 0.88396 0.16772 0.0
H1874 H 0.39156 0.88803 0.14024 0.0
H1875 H 0.42814 0.90556 0.14299 0.0
H1876 H 0.45917 0.95763 0.23335 0.0
H1877 H 0.42775 0.95405 0.25968 0.0
C1878 C 0.39094 0.92554 0.23239 0.0
C1879 C 0.37266 0.90961 0.21539 0.0
C1880 C 0.40941 0.92784 0.21669 0.0
C1881 C 0.37357 0.89638 0.18177 0.0
C1882 C 0.39172 0.89867 0.16592 0.0
C1883 C 0.42822 0.91634 0.16804 0.0
C1884 C 0.44657 0.93185 0.18595 0.0
C1885 C 0.40981 0.91426 0.18324 0.0
C1886 C 0.44571 0.94529 0.21912 0.0
C1887 C 0.42755 0.94334 0.23414 0.0
H1888 H 0.14407 0.52202 0.20265 0.0
H1889 H 0.20088 0.56037 0.13795 0.0
H1890 H 0.21096 0.53589 0.15409 0.0
H1891 H 0.20414 0.50316 0.18795 0.0
H1892 H 0.14692 0.46497 0.25137 0.0
H1893 H 0.13705 0.48936 0.23481 0.0
C1894 C 0.15872 0.52518 0.19216 0.0
C1895 C 0.17149 0.54339 0.16856 0.0
C1896 C 0.16457 0.51077 0.20144 0.0
C1897 C 0.19036 0.54663 0.15529 0.0
C1898 C 0.19628 0.53254 0.16483 0.0
C1899 C 0.18944 0.50004 0.19785 0.0
C1900 C 0.17646 0.48178 0.22114 0.0
C1901 C 0.18355 0.51443 0.18788 0.0
C1902 C 0.15751 0.47855 0.23355 0.0
C1903 C 0.15172 0.49267 0.22408 0.0
H1904 H 0.59037 0.72165 0.17112 0.0
H1905 H 0.62595 0.70334 0.25197 0.0
H1906 H 0.60146 0.66867 0.23737 0.0
H1907 H 0.56917 0.6428 0.20274 0.0
H1908 H 0.5338 0.66133 0.12163 0.0
H1909 H 0.55861 0.69591 0.13497 0.0
C1910 C 0.59295 0.71014 0.18516 0.0
C1911 C 0.6104 0.71556 0.21247 0.0
C1912 C 0.57857 0.68988 0.17667 0.0
C1913 C 0.61301 0.70004 0.23048 0.0
C1914 C 0.59883 0.68 0.22232 0.0
C1915 C 0.56679 0.65435 0.188 0.0
C1916 C 0.54932 0.64896 0.16066 0.0
C1917 C 0.58141 0.67462 0.19573 0.0
C1918 C 0.54698 0.66455 0.14196 0.0
C1919 C 0.56124 0.68455 0.14986 0.0
H1920 H 0.15437 0.69913 0.74986 0.0
H1921 H 0.20352 0.72995 0.65189 0.0
H1922 H 0.19956 0.69829 0.62433 0.0
H1923 H 0.18276 0.66147 0.62933 0.0
H1924 H 0.1335 0.63094 0.7275 0.0
H1925 H 0.13714 0.66245 0.75346 0.0
C1926 C 0.16416 0.69903 0.72212 0.0
C1927 C 0.17922 0.71731 0.70303 0.0
C1928 C 0.16192 0.68056 0.70657 0.0
C1929 C 0.19174 0.71643 0.66741 0.0
C1930 C 0.1895 0.69818 0.65161 0.0
C1931 C 0.17263 0.66154 0.65606 0.0
C1932 C 0.15791 0.64328 0.67637 0.0
C1933 C 0.17472 0.68006 0.67105 0.0
C1934 C 0.14526 0.64432 0.71149 0.0
C1935 C 0.14722 0.66253 0.72628 0.0
H1936 H 0.42743 0.54325 0.64213 0.0
H1937 H 0.45879 0.51857 0.71707 0.0
H1938 H 0.42737 0.49002 0.74166 0.0
H1939 H 0.39033 0.47194 0.74433 0.0
H1940 H 0.35953 0.49709 0.66855 0.0
H1941 H 0.3909 0.52501 0.64284 0.0
C1942 C 0.42756 0.53176 0.66409 0.0
C1943 C 0.44598 0.53355 0.67745 0.0
C1944 C 0.4092 0.51512 0.67833 0.0
C1945 C 0.44524 0.51793 0.70534 0.0
C1946 C 0.42709 0.50148 0.71983 0.0
C1947 C 0.3904 0.48341 0.72185 0.0
C1948 C 0.37209 0.48199 0.70867 0.0
C1949 C 0.40887 0.49985 0.70677 0.0
C1950 C 0.37298 0.49736 0.6796 0.0
C1951 C 0.3911 0.51355 0.66477 0.0
H1952 H 0.59161 0.88933 0.68637 0.0
H1953 H 0.62669 0.94405 0.76473 0.0
H1954 H 0.60184 0.95355 0.74923 0.0
H1955 H 0.56951 0.94652 0.71401 0.0
H1956 H 0.53463 0.89201 0.63474 0.0
H1957 H 0.55965 0.88266 0.64961 0.0
C1958 C 0.59397 0.90343 0.69974 0.0
C1959 C 0.61138 0.91585 0.72677 0.0
C1960 C 0.5794 0.909 0.69051 0.0
C1961 C 0.61374 0.93403 0.74371 0.0
C1962 C 0.59937 0.93953 0.73496 0.0
C1963 C 0.56728 0.93255 0.70003 0.0
C1964 C 0.54989 0.92017 0.67276 0.0
C1965 C 0.58201 0.92714 0.70859 0.0
C1966 C 0.54774 0.90218 0.65502 0.0
C1967 C 0.56213 0.89669 0.6638 0.0
H1968 H 0.34383 0.49611 0.23475 0.0
H1969 H 0.31474 0.45508 0.11635 0.0
H1970 H 0.34634 0.45888 0.09064 0.0
H1971 H 0.38301 0.4743 0.10027 0.0
H1972 H 0.41179 0.51562 0.21822 0.0
H1973 H 0.38001 0.5109 0.24532 0.0
C1974 C 0.34419 0.48775 0.2036 0.0
C1975 C 0.32635 0.4753 0.17783 0.0
C1976 C 0.3627 0.48999 0.18866 0.0
C1977 C 0.32783 0.46504 0.13698 0.0
C1978 C 0.34607 0.46709 0.12225 0.0
C1979 C 0.38235 0.48209 0.13233 0.0
C1980 C 0.40019 0.49525 0.15721 0.0
C1981 C 0.36372 0.47957 0.14761 0.0
C1982 C 0.39865 0.50536 0.19814 0.0
C1983 C 0.38032 0.5027 0.21374 0.0
H1984 H 0.58998 0.8655 0.23115 0.0
H1985 H 0.63506 0.8805 0.12226 0.0
H1986 H 0.63197 0.90882 0.0972 0.0
H1987 H 0.61631 0.92969 0.1046 0.0
H1988 H 0.5714 0.91497 0.21356 0.0
H1989 H 0.57491 0.88691 0.23998 0.0
C1990 C 0.59935 0.87499 0.20225 0.0
C1991 C 0.61268 0.87026 0.17873 0.0
C1992 C 0.5976 0.89167 0.18778 0.0
C1993 C 0.62434 0.88305 0.14087 0.0
C1994 C 0.62271 0.89955 0.12655 0.0
C1995 C 0.60739 0.92052 0.13453 0.0
C1996 C 0.59364 0.92487 0.15707 0.0
C1997 C 0.60934 0.90404 0.1495 0.0
C1998 C 0.58217 0.91235 0.19536 0.0
C1999 C 0.58414 0.89613 0.21054 0.0
H2000 H 0.20289 0.76396 0.16636 0.0
H2001 H 0.24014 0.74444 0.23386 0.0
H2002 H 0.21517 0.71001 0.21863 0.0
H2003 H 0.18261 0.68472 0.18447 0.0
H2004 H 0.14512 0.7042 0.11862 0.0
H2005 H 0.16988 0.73862 0.1346 0.0
C2006 C 0.20563 0.75222 0.17764 0.0
C2007 C 0.22366 0.75722 0.20164 0.0
C2008 C 0.19093 0.73208 0.16903 0.0
C2009 C 0.22652 0.74143 0.21605 0.0
C2010 C 0.21216 0.72155 0.20713 0.0
C2011 C 0.1797 0.69644 0.17414 0.0
C2012 C 0.16174 0.69149 0.14997 0.0
C2013 C 0.19424 0.71657 0.18368 0.0
C2014 C 0.15866 0.70724 0.13678 0.0
C2015 C 0.17293 0.72711 0.14598 0.0
H2016 H 0.34921 0.18799 0.13875 0.0
H2017 H 0.38168 0.24664 0.20039 0.0
H2018 H 0.40827 0.24037 0.22475 0.0
H2019 H 0.42274 0.21814 0.22899 0.0
H2020 H 0.3905 0.15993 0.16465 0.0
H2021 H 0.36392 0.16619 0.14121 0.0
C2022 C 0.36203 0.19945 0.15774 0.0
C2023 C 0.36305 0.21783 0.16784 0.0
C2024 C 0.37761 0.19583 0.17116 0.0
C2025 C 0.38014 0.23236 0.19204 0.0
C2026 C 0.39549 0.22876 0.20602 0.0
C2027 C 0.40997 0.2068 0.20964 0.0
C2028 C 0.40898 0.18847 0.19879 0.0
C2029 C 0.39448 0.21055 0.19578 0.0
C2030 C 0.39205 0.17416 0.17362 0.0
C2031 C 0.37667 0.17773 0.16021 0.0
H2032 H 0.89989 0.17872 0.1547 0.0
H2033 H 0.83853 0.15388 0.19275 0.0
H2034 H 0.84455 0.18704 0.21391 0.0
H2035 H 0.86749 0.22371 0.22163 0.0
H2036 H 0.9286 0.24773 0.18126 0.0
H2037 H 0.92231 0.21469 0.16103 0.0
C2038 C 0.88774 0.18038 0.16795 0.0
C2039 C 0.86871 0.16338 0.17238 0.0
C2040 C 0.89127 0.19966 0.17944 0.0
C2041 C 0.85335 0.16636 0.18913 0.0
C2042 C 0.8568 0.18547 0.20113 0.0
C2043 C 0.87944 0.22179 0.20807 0.0
C2044 C 0.89861 0.23866 0.20309 0.0
C2045 C 0.87572 0.20235 0.19631 0.0
C2046 C 0.91373 0.23543 0.18564 0.0
C2047 C 0.91015 0.21636 0.17407 0.0
H2048 H 0.84864 0.69944 0.20183 0.0
H2049 H 0.85679 0.6487 0.19642 0.0
H2050 H 0.89166 0.67006 0.17787 0.0
H2051 H 0.92073 0.70347 0.16326 0.0
H2052 H 0.91271 0.75427 0.16783 0.0
H2053 H 0.87776 0.73292 0.18642 0.0
C2054 C 0.85795 0.69297 0.19617 0.0
C2055 C 0.84957 0.67215 0.20053 0.0
C2056 C 0.87847 0.70555 0.18556 0.0
C2057 C 0.86235 0.66445 0.1934 0.0
C2058 C 0.88254 0.67677 0.18281 0.0
C2059 C 0.91143 0.70995 0.16863 0.0
C2060 C 0.91985 0.73076 0.16421 0.0
C2061 C 0.89091 0.6974 0.179 0.0
C2062 C 0.90708 0.7385 0.17095 0.0
C2063 C 0.88687 0.7262 0.18157 0.0
H2064 H 0.2379 0.40959 0.31681 0.0
H2065 H 0.17692 0.37351 0.35921 0.0
H2066 H 0.18288 0.34667 0.3813 0.0
H2067 H 0.2051 0.33266 0.38864 0.0
H2068 H 0.26621 0.36834 0.3475 0.0
H2069 H 0.26045 0.39549 0.32515 0.0
C2070 C 0.22589 0.39593 0.3312 0.0
C2071 C 0.20686 0.394 0.33621 0.0
C2072 C 0.22942 0.38013 0.34396 0.0
C2073 C 0.19169 0.37586 0.35475 0.0
C2074 C 0.1951 0.36029 0.36742 0.0
C2075 C 0.21723 0.3463 0.37453 0.0
C2076 C 0.23616 0.34804 0.36968 0.0
C2077 C 0.21384 0.36213 0.36203 0.0
C2078 C 0.25149 0.36618 0.35165 0.0
C2079 C 0.24819 0.38188 0.33888 0.0
H2080 H 0.71437 0.83227 0.34991 0.0
H2081 H 0.66748 0.84424 0.31571 0.0
H2082 H 0.68904 0.8792 0.33567 0.0
H2083 H 0.72181 0.9072 0.36226 0.0
H2084 H 0.7689 0.895 0.3928 0.0
H2085 H 0.74704 0.86013 0.37497 0.0
C2086 C 0.70876 0.84245 0.34724 0.0
C2087 C 0.68904 0.83524 0.33156 0.0
C2088 C 0.72151 0.86292 0.35789 0.0
C2089 C 0.68242 0.84904 0.32772 0.0
C2090 C 0.69485 0.86922 0.33911 0.0
C2091 C 0.72735 0.89697 0.36486 0.0
C2092 C 0.7473 0.90422 0.37899 0.0
C2093 C 0.71453 0.87648 0.35402 0.0
C2094 C 0.75386 0.89033 0.38198 0.0
C2095 C 0.74125 0.87014 0.37186 0.0
H2096 H 0.25669 0.90507 0.33423 0.0
H2097 H 0.24992 0.84697 0.35009 0.0
H2098 H 0.21507 0.83315 0.36845 0.0
H2099 H 0.18545 0.83682 0.37922 0.0
H2100 H 0.19199 0.89484 0.36498 0.0
H2101 H 0.22705 0.90888 0.34708 0.0
C2102 C 0.2477 0.88944 0.34227 0.0
C2103 C 0.25649 0.8773 0.34062 0.0
C2104 C 0.22712 0.88126 0.35283 0.0
C2105 C 0.24407 0.85696 0.35081 0.0
C2106 C 0.22387 0.84888 0.36131 0.0
C2107 C 0.19445 0.85252 0.37191 0.0
C2108 C 0.18556 0.86454 0.37329 0.0
C2109 C 0.21505 0.86077 0.36206 0.0
C2110 C 0.19798 0.88496 0.3642 0.0
C2111 C 0.21826 0.89313 0.35396 0.0
H2112 H 0.72397 0.83694 0.87495 0.0
H2113 H 0.77449 0.89579 0.86693 0.0
H2114 H 0.75292 0.90925 0.84903 0.0
H2115 H 0.7194 0.90475 0.83529 0.0
H2116 H 0.66887 0.8459 0.84296 0.0
H2117 H 0.69043 0.83245 0.86129 0.0
C2118 C 0.73034 0.85269 0.86894 0.0
C2119 C 0.75113 0.86515 0.87221 0.0
C2120 C 0.71766 0.86056 0.85882 0.0
C2121 C 0.75874 0.88561 0.86464 0.0
C2122 C 0.74631 0.89343 0.85446 0.0
C2123 C 0.71302 0.889 0.84139 0.0
C2124 C 0.69224 0.87654 0.83782 0.0
C2125 C 0.72569 0.88113 0.8516 0.0
C2126 C 0.68462 0.85608 0.84543 0.0
C2127 C 0.69704 0.84826 0.85587 0.0
H2128 H 0.23388 0.84843 0.79762 0.0
H2129 H 0.17689 0.821 0.86733 0.0
H2130 H 0.18273 0.85344 0.89345 0.0
H2131 H 0.20391 0.89004 0.89706 0.0
H2132 H 0.26056 0.91773 0.82572 0.0
H2133 H 0.25489 0.88525 0.80001 0.0
C2134 C 0.22273 0.84947 0.81874 0.0
C2135 C 0.20491 0.83187 0.83047 0.0
C2136 C 0.22608 0.86849 0.83337 0.0
C2137 C 0.19073 0.83395 0.85753 0.0
C2138 C 0.19406 0.85265 0.87258 0.0
C2139 C 0.21504 0.88907 0.87568 0.0
C2140 C 0.23272 0.90672 0.86351 0.0
C2141 C 0.21165 0.8701 0.86069 0.0
C2142 C 0.2468 0.90473 0.83575 0.0
C2143 C 0.24357 0.886 0.82105 0.0
H2144 H 0.18341 0.36525 0.85889 0.0
H2145 H 0.19308 0.31598 0.87954 0.0
H2146 H 0.22819 0.33719 0.86135 0.0
H2147 H 0.25705 0.37034 0.83949 0.0
H2148 H 0.24695 0.41965 0.82334 0.0
H2149 H 0.21209 0.39823 0.83977 0.0
C2150 C 0.19311 0.35904 0.85895 0.0
C2151 C 0.18513 0.33871 0.87015 0.0
C2152 C 0.21371 0.37158 0.84952 0.0
C2153 C 0.19841 0.33138 0.87087 0.0
C2154 C 0.21869 0.34361 0.86053 0.0
C2155 C 0.24732 0.37649 0.83993 0.0
C2156 C 0.25526 0.39698 0.82993 0.0
C2157 C 0.22669 0.36386 0.84997 0.0
C2158 C 0.24187 0.40421 0.83073 0.0
C2159 C 0.22162 0.39184 0.84008 0.0
H2160 H 0.90241 0.7408 0.66005 0.0
H2161 H 0.84034 0.70267 0.68869 0.0
H2162 H 0.84648 0.67601 0.7123 0.0
H2163 H 0.86938 0.66278 0.72414 0.0
H2164 H 0.93148 0.701 0.69598 0.0
H2165 H 0.92537 0.72777 0.67321 0.0
C2166 C 0.89018 0.72674 0.67181 0.0
C2167 C 0.87083 0.72413 0.67253 0.0
C2168 C 0.89381 0.71115 0.68535 0.0
C2169 C 0.85538 0.7055 0.68771 0.0
C2170 C 0.85889 0.69007 0.70119 0.0
C2171 C 0.88163 0.67693 0.71292 0.0
C2172 C 0.90097 0.67951 0.71183 0.0
C2173 C 0.87803 0.69259 0.69995 0.0
C2174 C 0.91646 0.69823 0.69733 0.0
C2175 C 0.91296 0.7137 0.68424 0.0
H2176 H 0.3449 0.17982 0.64406 0.0
H2177 H 0.38041 0.15508 0.69401 0.0
H2178 H 0.40721 0.18814 0.71479 0.0
H2179 H 0.42114 0.22444 0.719 0.0
H2180 H 0.38577 0.24953 0.67081 0.0
H2181 H 0.35885 0.21643 0.64927 0.0
C2182 C 0.35844 0.18157 0.65975 0.0
C2183 C 0.36029 0.16453 0.66739 0.0
C2184 C 0.3741 0.20095 0.67179 0.0
C2185 C 0.37821 0.16754 0.68764 0.0
C2186 C 0.39371 0.18662 0.69951 0.0
C2187 C 0.40763 0.22281 0.70345 0.0
C2188 C 0.40585 0.2399 0.69633 0.0
C2189 C 0.39193 0.2035 0.69162 0.0
C2190 C 0.3879 0.23699 0.67664 0.0
C2191 C 0.37236 0.21791 0.66437 0.0
H2192 H 0.91956 0.23331 0.65138 0.0
H2193 H 0.91441 0.17636 0.67629 0.0
H2194 H 0.8794 0.16226 0.69575 0.0
H2195 H 0.84947 0.16588 0.7071 0.0
H2196 H 0.85509 0.22297 0.67997 0.0
H2197 H 0.88978 0.23668 0.66014 0.0
C2198 C 0.91088 0.21783 0.66136 0.0
C2199 C 0.92012 0.20614 0.66261 0.0
C2200 C 0.89036 0.20956 0.67198 0.0
C2201 C 0.90812 0.18597 0.67506 0.0
C2202 C 0.88789 0.17779 0.68618 0.0
C2203 C 0.85816 0.18124 0.6962 0.0
C2204 C 0.84911 0.19316 0.69518 0.0
C2205 C 0.87868 0.18937 0.68474 0.0
C2206 C 0.86116 0.21317 0.6814 0.0
C2207 C 0.88126 0.22118 0.67004 0.0
H2208 H 1.0142 0.5198 0.47678 0.0
H2209 H 1.04899 0.58021 0.52621 0.0
H2210 H 0.07569 0.57416 0.54995 0.0
H2211 H 0.08978 0.55184 0.55678 0.0
H2212 H 0.05519 0.49151 0.50662 0.0
H2213 H 1.02837 0.49747 0.48338 0.0
C2214 C 1.02755 0.53167 0.49303 0.0
C2215 C 1.02921 0.55052 0.49969 0.0
C2216 C 1.0432 0.52813 0.50642 0.0
C2217 C 1.04694 0.56556 0.5205 0.0
C2218 C 0.06237 0.56211 0.53412 0.0
C2219 C 0.07643 0.53995 0.54058 0.0
C2220 C 0.07486 0.52116 0.53356 0.0
C2221 C 0.06079 0.54348 0.52717 0.0
C2222 C 0.05718 0.50612 0.51258 0.0
C2223 C 1.04167 0.50953 0.49927 0.0
H2224 H 0.53914 0.56012 0.54425 0.0
H2225 H 0.60031 0.58528 0.50415 0.0
H2226 H 0.59445 0.5522 0.48281 0.0
H2227 H 0.57166 0.51534 0.47553 0.0
H2228 H 0.51074 0.49119 0.51791 0.0
H2229 H 0.51691 0.52411 0.53809 0.0
C2230 C 0.55127 0.55855 0.53049 0.0
C2231 C 0.5702 0.57564 0.52559 0.0
C2232 C 0.54785 0.53929 0.51877 0.0
C2233 C 0.58555 0.57275 0.50819 0.0
C2234 C 0.5822 0.55366 0.49605 0.0
C2235 C 0.55974 0.51722 0.48943 0.0
C2236 C 0.54063 0.50027 0.49493 0.0
C2237 C 0.56338 0.53668 0.50128 0.0
C2238 C 0.52557 0.5035 0.51293 0.0
C2239 C 0.52907 0.52253 0.52457 0.0
H2240 H 0.58954 0.03741 0.50063 0.0
H2241 H 0.58043 0.08758 0.49786 0.0
H2242 H 0.54587 0.06633 0.51928 0.0
H2243 H 0.51735 1.03317 0.53896 0.0
H2244 H 0.52629 0.9829 0.54163 0.0
H2245 H 0.56094 1.00416 0.52042 0.0
C2246 C 0.58008 0.04377 0.50496 0.0
C2247 C 0.58809 0.06438 0.4975 0.0
C2248 C 0.55974 1.03125 0.51723 0.0
C2249 C 0.57513 0.07196 0.50316 0.0
C2250 C 0.55513 0.05971 0.51547 0.0
C2251 C 0.52679 1.02678 0.5347 0.0
C2252 C 0.51873 1.00616 0.54199 0.0
C2253 C 0.54712 0.03927 0.52248 0.0
C2254 C 0.53165 0.99854 0.53638 0.0
C2255 C 0.55169 1.01078 0.52422 0.0
H2256 H 0.53459 0.99715 0.05624 0.0
H2257 H 0.59565 1.03395 1.01527 0.0
H2258 H 0.5894 0.06064 0.99354 0.0
H2259 H 0.56683 0.07413 0.98556 0.0
H2260 H 0.50565 0.03773 0.02556 0.0
H2261 H 0.51178 1.01085 0.04809 0.0
C2262 C 0.54655 1.01095 0.04234 0.0
C2263 C 0.56568 1.01318 0.0375 0.0
C2264 C 0.54286 1.02662 0.02982 0.0
C2265 C 0.58081 1.03145 0.01957 0.0
C2266 C 0.57724 0.04689 1.0071 0.0
C2267 C 0.55477 0.0604 0.99951 0.0
C2268 C 0.53572 0.05832 1.00389 0.0
C2269 C 0.55837 0.04475 1.01212 0.0
C2270 C 0.52047 0.04011 0.02176 0.0
C2271 C 0.52397 1.02458 0.03461 0.0
H2272 H 1.05121 0.50009 1.00008 0.0
H2273 H 1.00065 0.50835 0.99351 0.0
H2274 H 1.02171 0.54351 1.01167 0.0
H2275 H 0.05485 0.57264 0.02976 0.0
H2276 H 0.10528 0.56415 0.03614 0.0
H2277 H 0.08421 0.5291 0.01779 0.0
C2278 C 1.0447 0.5095 1.00289 0.0
C2279 C 1.02409 0.50114 0.99549 0.0
C2280 C 0.05707 0.53006 1.01315 0.0
C2281 C 1.01629 0.51398 0.99904 0.0
C2282 C 1.02842 0.53428 1.00938 0.0
C2283 C 0.0613 0.5632 0.0268 0.0
C2284 C 0.08191 0.57149 0.03435 0.0
C2285 C 1.0489 0.54262 0.0164 0.0
C2286 C 0.08965 0.5586 0.03061 0.0
C2287 C 0.07752 0.53834 0.02013 0.0
H2288 H 0.51553 0.50264 0.02085 0.0
H2289 H 0.52694 0.56205 0.04499 0.0
H2290 H 0.56184 0.57523 0.0264 0.0
H2291 H 0.59006 0.57028 1.00314 0.0
H2292 H 0.57847 0.51057 0.98216 0.0
H2293 H 0.54369 0.49766 0.99954 0.0
C2294 C 0.52556 0.51849 0.02164 0.0
C2295 C 0.51811 0.53118 0.03408 0.0
C2296 C 0.54609 0.52616 1.01172 0.0
C2297 C 0.53183 0.55171 0.03551 0.0
C2298 C 0.55201 0.55936 0.02491 0.0
C2299 C 0.58002 0.55444 1.00277 0.0
C2300 C 0.58748 0.54164 0.99125 0.0
C2301 C 0.55949 0.54679 1.01314 0.0
C2302 C 0.57372 0.52109 0.99085 0.0
C2303 C 0.55353 0.51354 1.00073 0.0
H2304 H 0.34446 0.22914 0.9335 0.0
H2305 H 0.37332 0.26821 0.05516 0.0
H2306 H 0.40407 0.28506 1.00931 0.0
H2307 H 0.42281 0.29097 0.93199 0.0
H2308 H 0.39565 0.25086 0.81149 0.0
H2309 H 0.36506 0.23242 0.85875 0.0
C2310 C 0.35756 0.24105 0.95048 0.0
C2311 C 0.35611 0.24721 0.99865 0.0
C2312 C 0.37585 0.25074 0.92358 0.0
C2313 C 0.37357 0.26293 0.0188 0.0
C2314 C 0.39135 0.27271 0.99227 0.0
C2315 C 0.41043 0.27785 0.91635 0.0
C2316 C 0.41208 0.27238 0.86779 0.0
C2317 C 0.39271 0.26706 0.94429 0.0
C2318 C 0.39539 0.25543 0.84868 0.0
C2319 C 0.37763 0.24492 0.87581 0.0
H2320 H 0.85446 0.1299 0.93046 0.0
H2321 H 0.83078 0.13832 0.06416 0.0
H2322 H 0.81531 0.1541 0.01887 0.0
H2323 H 0.80544 0.16291 0.93947 0.0
H2324 H 0.83149 0.15745 0.80648 0.0
H2325 H 0.84888 0.14371 0.85237 0.0
C2326 C 0.84648 0.13575 0.95008 0.0
C2327 C 0.84432 0.133 1.00172 0.0
C2328 C 0.83769 0.14537 0.92335 0.0
C2329 C 0.8333 0.14042 0.02521 0.0
C2330 C 0.82418 0.14936 0.99895 0.0
C2331 C 0.81543 0.15936 0.92053 0.0
C2332 C 0.81719 0.16179 0.86882 0.0
C2333 C 0.82587 0.15163 0.94777 0.0
C2334 C 0.82997 0.15641 0.84582 0.0
C2335 C 0.83985 0.14825 0.87231 0.0
H2336 H 0.92387 0.68793 0.85461 0.0
H2337 H 0.94216 0.65146 0.93149 0.0
H2338 H 0.95671 0.67616 0.9959 0.0
H2339 H 0.96696 0.70931 0.02917 0.0
H2340 H 0.94834 0.74637 0.95751 0.0
H2341 H 0.93153 0.72079 0.89405 0.0
C2342 C 0.9305 0.68508 0.88609 0.0
C2343 C 0.93147 0.66721 0.88749 0.0
C2344 C 0.93925 0.69985 0.9243 0.0
C2345 C 0.94078 0.66458 0.92874 0.0
C2346 C 0.94935 0.67893 0.96586 0.0
C2347 C 0.95905 0.71185 1.00005 0.0
C2348 C 0.9592 0.73017 0.99895 0.0
C2349 C 0.94912 0.69682 0.9638 0.0
C2350 C 0.94862 0.73266 0.96033 0.0
C2351 C 0.93899 0.7179 0.92358 0.0
H2352 H 0.26709 0.36154 0.50246 0.0
H2353 H 0.25589 0.31595 0.60714 0.0
H2354 H 0.2669 0.34026 0.67332 0.0
H2355 H 0.28338 0.37533 0.70195 0.0
H2356 H 0.29578 0.42145 0.59819 0.0
H2357 H 0.28075 0.39663 0.53286 0.0
C2358 C 0.26633 0.35674 0.53991 0.0
C2359 C 0.25984 0.33636 0.54914 0.0
C2360 C 0.27327 0.37122 0.57866 0.0
C2361 C 0.26007 0.33109 0.59828 0.0
C2362 C 0.26666 0.34517 0.63647 0.0
C2363 C 0.28218 0.37997 0.6654 0.0
C2364 C 0.29033 0.40059 0.65616 0.0
C2365 C 0.27373 0.36541 0.62728 0.0
C2366 C 0.28922 0.40594 0.60755 0.0
C2367 C 0.28075 0.3916 0.56972 0.0
H2368 H 0.71534 0.93873 0.70333 0.0
H2369 H 0.67304 0.88858 0.61974 0.0
H2370 H 0.69781 0.89691 0.55492 0.0
H2371 H 0.73138 0.9208 0.51755 0.0
H2372 H 0.7726 0.97077 0.60398 0.0
H2373 H 0.74892 0.96016 0.67065 0.0
C2374 C 0.71153 0.92924 0.67148 0.0
C2375 C 0.69201 0.9127 0.66773 0.0
C2376 C 0.72596 0.93428 0.63389 0.0
C2377 C 0.68775 0.90108 0.62508 0.0
C2378 C 0.70204 0.90604 0.58743 0.0
C2379 C 0.73547 0.92903 0.55153 0.0
C2380 C 0.75446 0.94659 0.55522 0.0
C2381 C 0.72123 0.92287 0.59075 0.0
C2382 C 0.75865 0.95714 0.59956 0.0
C2383 C 0.74488 0.95112 0.63798 0.0
H2384 H 0.16923 0.83441 0.52044 0.0
H2385 H 0.10945 0.80415 0.57446 0.0
H2386 H 0.11863 0.78823 0.63721 0.0
H2387 H 0.14258 0.7806 0.67531 0.0
H2388 H 0.20308 0.81116 0.62796 0.0
H2389 H 0.19483 0.82885 0.56578 0.0
C2390 C 0.15831 0.82475 0.54665 0.0
C2391 C 0.1384 0.82083 0.54183 0.0
C2392 C 0.16379 0.81524 0.58411 0.0
C2393 C 0.12475 0.80778 0.57642 0.0
C2394 C 0.12999 0.79844 0.61261 0.0
C2395 C 0.15414 0.79121 0.65171 0.0
C2396 C 0.17355 0.79415 0.65691 0.0
C2397 C 0.14931 0.80167 0.61646 0.0
C2398 C 0.18805 0.80832 0.62561 0.0
C2399 C 0.18325 0.81849 0.58965 0.0
H2400 H 0.71502 0.82725 0.18856 0.0
H2401 H 0.67239 0.77218 0.12185 0.0
H2402 H 0.69508 0.77867 0.05343 0.0
H2403 H 0.72835 0.79895 1.01444 0.0
H2404 H 0.76998 0.85522 0.0778 0.0
H2405 H 0.74667 0.84943 0.14441 0.0
C2406 C 0.71041 0.81682 0.15852 0.0
C2407 C 0.69154 0.79918 0.16103 0.0
C2408 C 0.72367 0.82083 0.11845 0.0
C2409 C 0.68634 0.78595 0.12141 0.0
C2410 C 0.69956 0.78963 0.0822 0.0
C2411 C 0.73232 0.81014 0.04245 0.0
C2412 C 0.75133 0.82763 0.04041 0.0
C2413 C 0.71845 0.80684 0.08055 0.0
C2414 C 0.75574 0.84175 0.0775 0.0
C2415 C 0.74231 0.83834 0.116 0.0
H2416 H 0.26216 0.91362 1.00682 0.0
H2417 H 0.26168 0.96058 0.08833 0.0
H2418 H 0.27517 0.95215 0.15978 0.0
H2419 H 0.29015 0.93322 0.1976 0.0
H2420 H 0.28941 0.88552 0.11675 0.0
H2421 H 0.2734 0.89222 0.04782 0.0
C2422 C 0.26457 0.9218 0.04052 0.0
C2423 C 0.26059 0.93781 0.04137 0.0
C2424 C 0.27234 0.91672 0.08205 0.0
C2425 C 0.26415 0.94812 0.08587 0.0
C2426 C 0.2721 0.94334 0.12693 0.0
C2427 C 0.286 0.92388 0.16543 0.0
C2428 C 0.29087 0.90848 0.16351 0.0
C2429 C 0.27664 0.9279 0.12536 0.0
C2430 C 0.28563 0.89705 0.12053 0.0
C2431 C 0.27659 0.90109 0.08061 0.0
H2432 H 0.15208 0.37576 0.1918 0.0
H2433 H 0.2032 0.42153 0.11847 0.0
H2434 H 0.19719 0.39886 0.04981 0.0
H2435 H 0.17573 0.36664 1.00674 0.0
H2436 H 0.12542 0.32039 0.08159 0.0
H2437 H 0.13284 0.34226 0.15265 0.0
C2438 C 0.16224 0.38072 0.16132 0.0
C2439 C 0.17836 0.40063 0.16135 0.0
C2440 C 0.15866 0.36737 0.12156 0.0
C2441 C 0.19098 0.40649 0.12066 0.0
C2442 C 0.18737 0.39344 0.0809 0.0
C2443 C 0.16655 0.36111 0.03895 0.0
C2444 C 0.14992 0.34148 0.03799 0.0
C2445 C 0.17106 0.37393 0.08037 0.0
C2446 C 0.13835 0.33502 0.08058 0.0
C2447 C 0.14256 0.34773 0.12139 0.0
H2448 H 0.84265 0.74046 0.42701 0.0
H2449 H 0.84196 0.71054 0.55962 0.0
H2450 H 0.82787 0.67903 0.51515 0.0
H2451 H 0.81267 0.65877 0.4385 0.0
H2452 H 0.8162 0.68963 0.30516 0.0
H2453 H 0.83207 0.72118 0.34896 0.0
C2454 C 0.84005 0.7272 0.44609 0.0
C2455 C 0.84398 0.72844 0.49721 0.0
C2456 C 0.83205 0.70884 0.41971 0.0
C2457 C 0.8398 0.7106 0.52056 0.0
C2458 C 0.83141 0.69233 0.49493 0.0
C2459 C 0.81734 0.67241 0.41865 0.0
C2460 C 0.81311 0.67136 0.3676 0.0
C2461 C 0.82706 0.69105 0.44447 0.0
C2462 C 0.81922 0.68956 0.34375 0.0
C2463 C 0.8283 0.7078 0.36912 0.0
H2464 H 0.37665 0.12457 0.52311 0.0
H2465 H 0.33161 0.13058 0.44704 0.0
H2466 H 0.35439 0.14665 0.37872 0.0
H2467 H 0.38665 0.15723 0.33706 0.0
H2468 H 0.4326 0.15336 0.41469 0.0
H2469 H 0.41041 0.13876 0.48492 0.0
C2470 C 0.37185 0.12968 0.49196 0.0
C2471 C 0.35206 0.12621 0.49114 0.0
C2472 C 0.38541 0.13941 0.45249 0.0
C2473 C 0.34649 0.13301 0.44974 0.0
C2474 C 0.35963 0.1422 0.41024 0.0
C2475 C 0.39208 0.15365 0.36974 0.0
C2476 C 0.41175 0.15682 0.36979 0.0
C2477 C 0.37908 0.14529 0.4107 0.0
C2478 C 0.41799 0.15165 0.41292 0.0
C2479 C 0.40507 0.14302 0.45326 0.0
H2480 H 0.93644 0.24168 0.52308 0.0
H2481 H 0.98991 0.25628 0.44559 0.0
H2482 H 0.97968 0.26955 0.37815 0.0
H2483 H 0.95735 0.28012 0.34288 0.0
H2484 H 0.90374 0.2666 0.4176 0.0
H2485 H 0.91193 0.24995 0.48267 0.0
C2486 C 0.94556 0.24717 0.49079 0.0
C2487 C 0.96398 0.24737 0.48978 0.0
C2488 C 0.93962 0.25537 0.45126 0.0
C2489 C 0.97564 0.25539 0.44776 0.0
C2490 C 0.96983 0.26323 0.40897 0.0
C2491 C 0.94715 0.27321 0.37285 0.0
C2492 C 0.9297 0.27467 0.3742 0.0
C2493 C 0.9521 0.26374 0.41053 0.0
C2494 C 0.91704 0.26564 0.41429 0.0
C2495 C 0.92189 0.25619 0.45204 0.0
H2496 H 0.08436 0.59394 0.23708 0.0
H2497 H 0.06959 0.63437 0.16596 0.0
H2498 H 1.04059 0.62269 0.21601 0.0
H2499 H 1.01919 0.60245 0.28301 0.0
H2500 H 1.03179 0.56125 0.3566 0.0
H2501 H 0.06076 0.57142 0.30371 0.0
C2502 C 0.07474 0.60008 0.23199 0.0
C2503 C 0.08003 0.61549 0.19663 0.0
C2504 C 0.05723 0.5931 0.2621 0.0
C2505 C 0.06679 0.62287 0.19218 0.0
C2506 C 1.04983 0.6161 0.22118 0.0
C2507 C 1.02803 0.59539 0.28741 0.0
C2508 C 1.02272 0.58082 0.32445 0.0
C2509 C 1.0449 0.60144 0.25673 0.0
C2510 C 1.03492 0.57225 0.32867 0.0
C2511 C 1.05177 0.57825 0.29825 0.0
H2512 H 0.47963 0.45782 0.35396 0.0
H2513 H 0.53408 0.46801 0.28936 0.0
H2514 H 0.52886 0.48528 0.22079 0.0
H2515 H 0.50762 0.4958 0.17551 0.0
H2516 H 0.45444 0.48779 0.24301 0.0
H2517 H 0.46042 0.47184 0.31328 0.0
C2518 C 0.49055 0.46401 0.32523 0.0
C2519 C 0.50735 0.46132 0.32755 0.0
C2520 C 0.4876 0.47445 0.2859 0.0
C2521 C 0.52115 0.46972 0.28948 0.0
C2522 C 0.51806 0.4796 0.24986 0.0
C2523 C 0.4975 0.49099 0.20606 0.0
C2524 C 0.48054 0.49338 0.20323 0.0
C2525 C 0.50122 0.48189 0.24716 0.0
C2526 C 0.4677 0.48668 0.24359 0.0
C2527 C 0.47108 0.47729 0.28389 0.0
H2528 H 0.60361 0.05115 0.34546 0.0
H2529 H 0.66238 0.08343 0.28571 0.0
H2530 H 0.65325 0.05881 0.22165 0.0
H2531 H 0.62978 1.02691 0.18397 0.0
H2532 H 0.57021 0.99413 0.23738 0.0
H2533 H 0.57828 1.01961 0.30075 0.0
C2534 C 0.61429 0.05312 0.31774 0.0
C2535 C 0.63392 0.06975 0.32129 0.0
C2536 C 0.60884 0.0384 0.27956 0.0
C2537 C 0.64729 0.07125 0.28476 0.0
C2538 C 0.64208 0.05695 0.2478 0.0
C2539 C 0.61837 1.02524 0.20912 0.0
C2540 C 0.59929 1.00813 0.20519 0.0
C2541 C 0.62308 0.04024 0.24515 0.0
C2542 C 0.58497 1.00685 0.2386 0.0
C2543 C 0.58969 1.02157 0.27528 0.0
H2544 H 0.50264 1.02413 0.68261 0.0
H2545 H 0.44939 0.98546 0.76122 0.0
H2546 H 0.45951 1.00948 0.82746 0.0
H2547 H 0.48168 0.04281 0.86132 0.0
H2548 H 0.53509 0.08258 0.7854 0.0
H2549 H 0.527 0.05729 0.72168 0.0
C2550 C 0.49354 1.02065 0.7149 0.0
C2551 C 0.47521 1.00232 0.71651 0.0
C2552 C 0.49943 1.03509 0.75377 0.0
C2553 C 0.46359 0.99891 0.75854 0.0
C2554 C 0.46934 1.01286 0.79667 0.0
C2555 C 0.49188 0.04592 0.83144 0.0
C2556 C 0.50926 0.06488 0.8294 0.0
C2557 C 0.48698 1.0312 0.79448 0.0
C2558 C 0.52186 0.06829 0.78931 0.0
C2559 C 0.51707 0.05371 0.7523 0.0
H2560 H 0.06786 0.49959 0.69029 0.0
H2561 H 0.09988 0.4726 0.75025 0.0
H2562 H 0.07518 0.45688 0.81347 0.0
H2563 H 1.04346 0.44863 0.85081 0.0
H2564 H 1.01092 0.47594 0.7976 0.0
H2565 H 1.03632 0.49333 0.73446 0.0
C2566 C 0.06971 0.49066 0.71777 0.0
C2567 C 0.08631 0.4876 0.71447 0.0
C2568 C 0.05497 0.4813 0.75561 0.0
C2569 C 0.08771 0.47553 0.75086 0.0
C2570 C 0.07337 0.46632 0.78739 0.0
C2571 C 1.04179 0.45844 0.82571 0.0
C2572 C 1.02477 0.46056 0.82967 0.0
C2573 C 0.05674 0.46872 0.78986 0.0
C2574 C 1.02354 0.47374 0.79635 0.0
C2575 C 1.03822 0.48375 0.75981 0.0
H2576 H 0.59485 0.61702 0.76584 0.0
H2577 H 0.59837 0.59147 0.62967 0.0
H2578 H 0.61157 0.57291 0.67243 0.0
H2579 H 0.62518 0.56581 0.74887 0.0
H2580 H 0.61839 0.5889 0.88567 0.0
H2581 H 0.60362 0.60597 0.84325 0.0
C2582 C 0.59792 0.60694 0.74551 0.0
C2583 C 0.5951 0.60566 0.69393 0.0
C2584 C 0.60531 0.59583 0.77089 0.0
C2585 C 0.59977 0.59267 0.66903 0.0
C2586 C 0.60761 0.58211 0.6937 0.0
C2587 C 0.62 0.57413 0.7697 0.0
C2588 C 0.62301 0.57572 0.8213 0.0
C2589 C 0.61085 0.58376 0.74469 0.0
C2590 C 0.6163 0.58702 0.84654 0.0
C2591 C 0.60786 0.59698 0.822 0.0
H2592 H 0.2778 0.27848 0.3411 0.0
H2593 H 0.21814 0.2455 0.28686 0.0
H2594 H 0.22805 0.22842 0.22863 0.0
H2595 H 0.25351 0.22178 0.19173 0.0
H2596 H 0.31284 0.25288 0.24857 0.0
H2597 H 0.30343 0.27113 0.30514 0.0
C2598 C 0.26693 0.26767 0.31652 0.0
C2599 C 0.24697 0.26376 0.31935 0.0
C2600 C 0.27277 0.25721 0.28268 0.0
C2601 C 0.23348 0.24926 0.28654 0.0
C2602 C 0.23921 0.23929 0.25277 0.0
C2603 C 0.2645 0.23251 0.21642 0.0
C2604 C 0.28421 0.23578 0.2142 0.0
C2605 C 0.25878 0.24294 0.25032 0.0
C2606 C 0.29777 0.24993 0.24763 0.0
C2607 C 0.29227 0.26045 0.28067 0.0
H2608 H 0.82854 0.05126 0.19494 0.0
H2609 H 0.8865 0.08268 0.25936 0.0
H2610 H 0.87688 0.0565 0.32006 0.0
H2611 H 0.8522 1.02375 0.3561 0.0
H2612 H 0.7949 0.99085 0.28853 0.0
H2613 H 0.80383 1.01776 0.22989 0.0
C2614 C 0.83907 0.05257 0.22227 0.0
C2615 C 0.85844 0.06969 0.22151 0.0
C2616 C 0.83347 0.03673 0.25743 0.0
C2617 C 0.87158 0.07023 0.25792 0.0
C2618 C 0.86604 0.05501 0.29312 0.0
C2619 C 0.84156 1.02229 0.32857 0.0
C2620 C 0.82252 1.00474 0.32838 0.0
C2621 C 0.84706 0.03801 0.29341 0.0
C2622 C 0.80942 1.00381 0.29133 0.0
C2623 C 0.81464 1.01941 0.25713 0.0
H2624 H 1.04577 0.82077 0.16508 0.0
H2625 H 0.99955 0.79752 0.27243 0.0
H2626 H 1.02442 0.81145 0.33792 0.0
H2627 H 0.05992 0.83113 0.36628 0.0
H2628 H 0.10602 0.84895 0.25963 0.0
H2629 H 0.08119 0.83652 0.19396 0.0
C2630 C 1.04103 0.81864 0.20275 0.0
C2631 C 1.02027 0.8081 0.21271 0.0
C2632 C 0.05573 0.82597 0.24113 0.0
C2633 C 1.01501 0.80546 0.26255 0.0
C2634 C 1.02942 0.81356 0.30042 0.0
C2635 C 0.06464 0.83235 0.32873 0.0
C2636 C 0.08538 0.84159 0.31892 0.0
C2637 C 1.04992 0.82402 0.29048 0.0
C2638 C 0.09059 0.84231 0.26935 0.0
C2639 C 0.0762 0.8351 0.23136 0.0
H2640 H 0.8769 0.8213 0.75954 0.0
H2641 H 0.82548 0.7895 0.66867 0.0
H2642 H 0.80838 0.80332 0.71492 0.0
H2643 H 0.80742 0.825 0.78284 0.0
H2644 H 0.85833 0.85453 0.87714 0.0
H2645 H 0.87546 0.84148 0.82916 0.0
C2646 C 0.86188 0.8172 0.74973 0.0
C2647 C 0.85274 0.80388 0.70966 0.0
C2648 C 0.8517 0.82508 0.77781 0.0
C2649 C 0.83316 0.79921 0.69891 0.0
C2650 C 0.82327 0.80734 0.72561 0.0
C2651 C 0.82224 0.82862 0.79323 0.0
C2652 C 0.83121 0.84112 0.83491 0.0
C2653 C 0.83226 0.82037 0.76545 0.0
C2654 C 0.85062 0.84524 0.84607 0.0
C2655 C 0.8606 0.83761 0.81833 0.0
H2656 H 0.26715 1.02664 0.86933 0.0
H2657 H 0.23245 0.98126 0.76424 0.0
H2658 H 0.24332 1.00637 0.69958 0.0
H2659 H 0.26236 0.04198 0.67129 0.0
H2660 H 0.30035 0.08671 0.77426 0.0
H2661 H 0.28888 0.06173 0.83929 0.0
C2662 C 0.262 1.02211 0.83225 0.0
C2663 C 0.24864 1.00151 0.82283 0.0
C2664 C 0.26901 0.03688 0.79398 0.0
C2665 C 0.24259 0.99656 0.77373 0.0
C2666 C 0.24885 1.01113 0.73631 0.0
C2667 C 0.26824 0.0464 0.7079 0.0
C2668 C 0.28227 0.06687 0.71684 0.0
C2669 C 0.262 1.03147 0.74568 0.0
C2670 C 0.28964 0.07154 0.76511 0.0
C2671 C 0.28297 0.05705 0.80281 0.0
H2672 H 1.01236 0.23297 0.77 0.0
H2673 H 1.04409 0.23625 0.63903 0.0
H2674 H 0.07536 0.2535 0.68323 0.0
H2675 H 0.09491 0.26685 0.76136 0.0
H2676 H 0.06262 0.25788 0.89443 0.0
H2677 H 1.03172 0.24437 0.84893 0.0
C2678 C 1.02606 0.23752 0.7508 0.0
C2679 C 1.02521 0.23339 0.69968 0.0
C2680 C 1.04455 0.24677 0.77773 0.0
C2681 C 1.04364 0.23928 0.67734 0.0
C2682 C 0.06185 0.24921 0.70307 0.0
C2683 C 0.08122 0.26232 0.78057 0.0
C2684 C 0.08189 0.26462 0.8325 0.0
C2685 C 0.06272 0.25304 0.7536 0.0
C2686 C 0.06331 0.25734 0.85526 0.0
C2687 C 1.04529 0.24928 0.8288 0.0
H2688 H 0.90172 0.56808 0.66795 0.0
H2689 H 0.93932 0.62954 0.63227 0.0
H2690 H 0.95871 0.62093 0.57817 0.0
H2691 H 0.96548 0.59566 0.53932 0.0
H2692 H 0.92396 0.534 0.56144 0.0
H2693 H 0.90642 0.54269 0.62179 0.0
C2694 C 0.91412 0.5797 0.64838 0.0
C2695 C 0.91911 0.59982 0.65659 0.0
C2696 C 0.92487 0.57443 0.61441 0.0
C2697 C 0.93512 0.61414 0.62895 0.0
C2698 C 0.94631 0.60913 0.59731 0.0
C2699 C 0.95256 0.58407 0.55671 0.0
C2700 C 0.94655 0.56399 0.5449 0.0
C2701 C 0.94149 0.5893 0.58963 0.0
C2702 C 0.92949 0.54951 0.56926 0.0
C2703 C 0.91923 0.55454 0.60397 0.0
H2704 H 0.52032 0.3775 0.50305 0.0
H2705 H 0.51624 0.41897 0.59912 0.0
H2706 H 0.50127 0.39329 0.66197 0.0
H2707 H 0.48959 0.35852 0.69207 0.0
H2708 H 0.49177 0.31664 0.5939 0.0
H2709 H 0.50701 0.34243 0.53144 0.0
C2710 C 0.51612 0.38101 0.53765 0.0
C2711 C 0.51985 0.40074 0.54547 0.0
C2712 C 0.50675 0.36568 0.57394 0.0
C2713 C 0.51384 0.40434 0.59104 0.0
C2714 C 0.50506 0.38942 0.62736 0.0
C2715 C 0.49244 0.35465 0.65633 0.0
C2716 C 0.48832 0.33481 0.648 0.0
C2717 C 0.50128 0.36989 0.61951 0.0
C2718 C 0.49411 0.33124 0.60208 0.0
C2719 C 0.50296 0.34619 0.56593 0.0
H2720 H 0.7091 0.1664 0.50736 0.0
H2721 H 0.66969 0.11635 0.59512 0.0
H2722 H 0.69562 0.12596 0.65722 0.0
H2723 H 0.72969 0.14972 0.69 0.0
H2724 H 0.76932 0.19907 0.60104 0.0
H2725 H 0.74359 0.18909 0.5384 0.0
C2726 C 0.70604 0.15753 0.54005 0.0
C2727 C 0.68685 0.14047 0.54553 0.0
C2728 C 0.72142 0.16316 0.57632 0.0
C2729 C 0.68389 0.12942 0.58874 0.0
C2730 C 0.69891 0.135 0.62476 0.0
C2731 C 0.73313 0.15783 0.65613 0.0
C2732 C 0.75232 0.17488 0.65051 0.0
C2733 C 0.71786 0.15188 0.61932 0.0
C2734 C 0.75524 0.1858 0.60711 0.0
C2735 C 0.74031 0.18005 0.57086 0.0
H2736 H 0.51647 0.18017 0.18526 0.0
H2737 H 0.45984 0.15601 0.11428 0.0
H2738 H 0.46962 0.13888 0.05561 0.0
H2739 H 0.49466 0.13026 0.02169 0.0
H2740 H 0.55187 0.15628 0.09024 0.0
H2741 H 0.54159 0.17242 0.15056 0.0
C2742 C 0.50614 0.17116 0.15701 0.0
C2743 C 0.48708 0.1696 0.15569 0.0
C2744 C 0.51204 0.16121 0.12205 0.0
C2745 C 0.47437 0.15765 0.11783 0.0
C2746 C 0.48005 0.14767 0.08369 0.0
C2747 C 0.50484 0.1392 0.0501 0.0
C2748 C 0.52421 0.14142 0.0507 0.0
C2749 C 0.49886 0.14916 0.08509 0.0
C2750 C 0.53697 0.15382 0.08792 0.0
C2751 C 0.53104 0.16324 0.12289 0.0
H2752 H 0.93886 0.35785 0.19165 0.0
H2753 H 0.89124 0.31739 0.09869 0.0
H2754 H 0.90192 0.34295 0.03551 0.0
H2755 H 0.92478 0.37744 1.00495 0.0
H2756 H 0.97331 0.41763 0.09635 0.0
H2757 H 0.9627 0.39208 0.15964 0.0
C2758 C 0.93128 0.3542 0.15689 0.0
C2759 C 0.91452 0.3348 0.15027 0.0
C2760 C 0.93768 0.36935 0.11969 0.0
C2761 C 0.90427 0.33161 0.10558 0.0
C2762 C 0.91044 0.34644 0.069 0.0
C2763 C 0.93317 0.38072 0.03861 0.0
C2764 C 0.95003 0.40006 0.04487 0.0
C2765 C 0.92711 0.36548 0.07533 0.0
C2766 C 0.96043 0.40332 0.08935 0.0
C2767 C 0.95431 0.38847 0.12597 0.0
H2768 H 0.73093 0.56941 0.17581 0.0
H2769 H 0.76327 0.62802 0.11508 0.0
H2770 H 0.73681 0.6194 0.05498 0.0
H2771 H 0.70419 0.5946 0.016 0.0
H2772 H 0.67287 0.53562 0.07496 0.0
H2773 H 0.69853 0.54485 0.1375 0.0
C2774 C 0.73233 0.58041 0.14951 0.0
C2775 C 0.74965 0.59963 0.15133 0.0
C2776 C 0.7168 0.57518 0.11389 0.0
C2777 C 0.75052 0.61328 0.11604 0.0
C2778 C 0.73519 0.60825 0.08108 0.0
C2779 C 0.70268 0.58381 0.04309 0.0
C2780 C 0.68574 0.56431 0.04059 0.0
C2781 C 0.71814 0.58921 0.07924 0.0
C2782 C 0.68505 0.55072 0.07569 0.0
C2783 C 0.7 0.55603 0.11168 0.0
H2784 H 0.61539 0.9218 0.84479 0.0
H2785 H 0.61013 0.87562 0.94033 0.0
H2786 H 0.5946 0.88599 1.00236 0.0
H2787 H 0.58163 0.90808 0.03111 0.0
H2788 H 0.5874 0.95469 0.93625 0.0
H2789 H 0.60261 0.94413 0.87387 0.0
C2790 C 0.6113 0.91419 0.87949 0.0
C2791 C 0.61485 0.89805 0.8873 0.0
C2792 C 0.60197 0.92028 0.91584 0.0
C2793 C 0.60825 0.88819 0.9325 0.0
C2794 C 0.59917 0.89416 0.96839 0.0
C2795 C 0.58621 0.91604 0.99686 0.0
C2796 C 0.58291 0.93236 0.98939 0.0
C2797 C 0.59578 0.91015 0.96078 0.0
C2798 C 0.58944 0.94223 0.94419 0.0
C2799 C 0.59843 0.9362 0.90817 0.0
H2800 H 0.16876 0.69647 0.03125 0.0
H2801 H 0.14733 0.64973 0.92442 0.0
H2802 H 0.16038 0.67442 0.85866 0.0
H2803 H 0.17897 0.70998 0.82977 0.0
H2804 H 0.19593 0.75642 0.93604 0.0
H2805 H 0.18377 0.73177 1.00183 0.0
C2806 C 0.16684 0.69156 0.99362 0.0
C2807 C 0.15705 0.67071 0.98393 0.0
C2808 C 0.17381 0.70614 0.95501 0.0
C2809 C 0.15466 0.66526 0.93413 0.0
C2810 C 0.16227 0.67958 0.89607 0.0
C2811 C 0.18004 0.71482 0.86727 0.0
C2812 C 0.18895 0.73562 0.87691 0.0
C2813 C 0.17207 0.70017 0.90571 0.0
C2814 C 0.18949 0.74094 0.92641 0.0
C2815 C 0.18247 0.72665 0.96451 0.0
H2816 H 0.39618 0.50787 0.02641 0.0
H2817 H 0.43719 0.50172 0.93386 0.0
H2818 H 0.41168 0.48656 0.87034 0.0
H2819 H 0.37726 0.47566 0.83811 0.0
H2820 H 0.33585 0.47997 0.93314 0.0
H2821 H 0.36141 0.49508 0.9964 0.0
C2822 C 0.39965 0.50318 0.99245 0.0
C2823 C 0.41923 0.50643 0.9859 0.0
C2824 C 0.38441 0.4938 0.95566 0.0
C2825 C 0.42271 0.49976 0.94107 0.0
C2826 C 0.40788 0.49091 0.90428 0.0
C2827 C 0.3734 0.47896 0.87334 0.0
C2828 C 0.35373 0.47546 0.88045 0.0
C2829 C 0.38853 0.48775 0.91078 0.0
C2830 C 0.35028 0.48179 0.92581 0.0
C2831 C 0.36511 0.4906 0.96246 0.0
H2832 H 0.18219 0.51128 0.52296 0.0
H2833 H 0.12944 0.49424 0.4387 0.0
H2834 H 0.14013 0.47832 0.37831 0.0
H2835 H 0.16535 0.46984 0.34634 0.0
H2836 H 0.21724 0.48567 0.43229 0.0
H2837 H 0.20646 0.50141 0.4928 0.0
C2838 C 0.17291 0.50408 0.49147 0.0
C2839 C 0.1548 0.50437 0.48635 0.0
C2840 C 0.17912 0.49446 0.45639 0.0
C2841 C 0.14332 0.49458 0.4447 0.0
C2842 C 0.1495 0.48532 0.40974 0.0
C2843 C 0.17386 0.47579 0.37927 0.0
C2844 C 0.19188 0.47537 0.38465 0.0
C2845 C 0.16738 0.48504 0.41489 0.0
C2846 C 0.20325 0.4851 0.42648 0.0
C2847 C 0.19703 0.49427 0.46151 0.0
H2848 H 0.58884 0.71493 0.33923 0.0
H2849 H 0.6422 0.75151 0.42045 0.0
H2850 H 0.6325 0.72507 0.48078 0.0
H2851 H 0.60849 0.69067 0.51278 0.0
H2852 H 0.55482 0.65488 0.43225 0.0
H2853 H 0.56492 0.68107 0.3712 0.0
C2854 C 0.5985 0.71724 0.37003 0.0
C2855 C 0.61654 0.7358 0.37403 0.0
C2856 C 0.59277 0.70157 0.40541 0.0
C2857 C 0.62843 0.73781 0.41501 0.0
C2858 C 0.62283 0.72242 0.44999 0.0
C2859 C 0.59918 0.68831 0.48142 0.0
C2860 C 0.58088 0.66996 0.47769 0.0
C2861 C 0.60506 0.70404 0.44584 0.0
C2862 C 0.56895 0.66825 0.43698 0.0
C2863 C 0.57478 0.68347 0.40161 0.0
H2864 H 0.3959 0.90616 0.53382 0.0
H2865 H 0.43726 0.95321 0.44132 0.0
H2866 H 0.4118 0.94324 0.37787 0.0
H2867 H 0.37731 0.92034 0.34597 0.0
H2868 H 0.33572 0.87425 0.44001 0.0
H2869 H 0.36115 0.88436 0.50348 0.0
C2870 C 0.39947 0.91431 0.49981 0.0
C2871 C 0.41908 0.93053 0.49324 0.0
C2872 C 0.3843 0.90865 0.46299 0.0
C2873 C 0.42273 0.94072 0.44839 0.0
C2874 C 0.40794 0.935 0.41171 0.0
C2875 C 0.37346 0.91296 0.38096 0.0
C2876 C 0.3538 0.89683 0.38788 0.0
C2877 C 0.38854 0.91899 0.41827 0.0
C2878 C 0.35019 0.88684 0.43297 0.0
C2879 C 0.36494 0.89265 0.46967 0.0
H2880 H 0.32546 0.3362 1.01084 0.0
H2881 H 0.31155 0.34713 0.15573 0.0
H2882 H 0.31658 0.37926 0.12933 0.0
H2883 H 0.3354 0.40718 0.074 0.0
H2884 H 0.35531 0.39667 0.93663 0.0
H2885 H 0.33536 0.3614 0.94826 0.0
C2886 C 0.32258 0.3451 0.03627 0.0
C2887 C 0.31897 0.33967 0.08576 0.0
C2888 C 0.32653 0.36389 0.02157 0.0
C2889 C 0.31511 0.35138 0.11787 0.0
C2890 C 0.31794 0.36973 0.10272 0.0
C2891 C 0.3349 0.39711 0.04598 0.0
C2892 C 0.3482 0.40459 1.0066 0.0
C2893 C 0.32538 0.37677 0.05594 0.0
C2894 C 0.34601 0.39153 0.96851 0.0
C2895 C 0.33487 0.37116 0.9757 0.0
H2896 H 0.70135 0.97501 0.96514 0.0
H2897 H 0.66305 0.9522 0.08997 0.0
H2898 H 0.69118 0.96079 0.14271 0.0
H2899 H 0.7262 0.98575 0.15556 0.0
H2900 H 0.76452 1.00979 0.03118 0.0
H2901 H 0.73714 0.98961 0.97627 0.0
C2902 C 0.69912 0.97095 1.00338 0.0
C2903 C 0.6804 0.96403 0.02399 0.0
C2904 C 0.71552 0.97684 0.03404 0.0
C2905 C 0.67745 0.95809 0.07325 0.0
C2906 C 0.69362 0.96331 0.10381 0.0
C2907 C 0.72867 0.98573 0.11662 0.0
C2908 C 0.747 0.99957 0.09713 0.0
C2909 C 0.71275 0.97446 0.08516 0.0
C2910 C 0.75035 0.99935 0.04681 0.0
C2911 C 0.73466 0.98795 1.01531 0.0
H2912 H 0.08868 0.75078 0.2262 0.0
H2913 H 0.0744 0.77811 0.1082 0.0
H2914 H 0.09248 0.76925 0.05131 0.0
H2915 H 0.10208 0.74429 0.03228 0.0
H2916 H 0.11602 0.71656 0.14967 0.0
H2917 H 0.10865 0.73511 0.20962 0.0
C2918 C 0.09047 0.7557 0.18857 0.0
C2919 C 0.07963 0.76435 0.17104 0.0
C2920 C 0.10028 0.74987 0.15556 0.0
C2921 C 0.08235 0.77111 0.12251 0.0
C2922 C 0.09244 0.76575 0.08962 0.0
C2923 C 0.10444 0.74315 0.07091 0.0
C2924 C 0.10914 0.72894 0.08694 0.0
C2925 C 0.0999 0.75365 0.10511 0.0
C2926 C 0.11228 0.72744 0.13687 0.0
C2927 C 0.10791 0.7379 0.17113 0.0
H2928 H 0.43171 0.34373 0.45974 0.0
H2929 H 0.40107 0.33294 0.59669 0.0
H2930 H 0.36974 0.31116 0.55584 0.0
H2931 H 0.35124 0.30509 0.47967 0.0
H2932 H 0.38201 0.32104 0.34222 0.0
H2933 H 0.41313 0.33049 0.38434 0.0
C2934 C 0.41833 0.33581 0.48112 0.0
C2935 C 0.41856 0.34031 0.53097 0.0
C2936 C 0.4003 0.3247 0.45669 0.0
C2937 C 0.40115 0.32993 0.5582 0.0
C2938 C 0.38322 0.31768 0.53464 0.0
C2939 C 0.3646 0.30973 0.4587 0.0
C2940 C 0.36452 0.3128 0.4081 0.0
C2941 C 0.38252 0.31641 0.48349 0.0
C2942 C 0.38188 0.31888 0.38131 0.0
C2943 C 0.39965 0.3244 0.40546 0.0
H2944 H 0.77204 0.07795 0.35035 0.0
H2945 H 0.79119 0.05749 0.47372 0.0
H2946 H 0.78346 0.07717 0.52876 0.0
H2947 H 0.76117 0.09052 0.54193 0.0
H2948 H 0.74154 0.11045 0.4184 0.0
H2949 H 0.76019 0.1015 0.36343 0.0
C2950 C 0.77549 0.0787 0.38897 0.0
C2951 C 0.78156 0.06595 0.40831 0.0
C2952 C 0.77052 0.08966 0.42056 0.0
C2953 C 0.78628 0.06709 0.4582 0.0
C2954 C 0.78163 0.07816 0.48981 0.0
C2955 C 0.7619 0.09385 0.50328 0.0
C2956 C 0.74957 0.10045 0.48394 0.0
C2957 C 0.7722 0.0881 0.47165 0.0
C2958 C 0.75076 0.10511 0.43402 0.0
C2959 C 0.76122 0.09973 0.40239 0.0
H2960 H 1.0133 0.72058 0.30315 0.0
H2961 H 1.03261 0.76106 0.42476 0.0
H2962 H 1.01439 0.73377 0.48086 0.0
H2963 H 1.00331 0.69854 0.49571 0.0
H2964 H 0.98472 0.65816 0.37381 0.0
H2965 H 0.99183 0.68506 0.31762 0.0
C2966 C 1.01255 0.72347 0.34153 0.0
C2967 C 1.02486 0.74254 0.36008 0.0
C2968 C 1.00269 0.7076 0.37385 0.0
C2969 C 1.02351 0.74635 0.40971 0.0
C2970 C 1.01335 0.73069 0.44205 0.0
C2971 C 1.00001 0.69559 0.45709 0.0
C2972 C 0.99414 0.67669 0.43859 0.0
C2973 C 1.00448 0.7112 0.4248 0.0
C2974 C 0.9895 0.67274 0.38872 0.0
C2975 C 0.99371 0.68814 0.35646 0.0
H2976 H 0.75832 0.68634 0.91499 0.0
H2977 H 0.72183 0.66313 0.78606 0.0
H2978 H 0.74554 0.69127 0.73896 0.0
H2979 H 0.76987 0.72624 0.74212 0.0
H2980 H 0.80229 0.75147 0.87549 0.0
H2981 H 0.78855 0.71889 0.91088 0.0
C2982 C 0.75579 0.6873 0.87638 0.0
C2983 C 0.73804 0.67306 0.85465 0.0
C2984 C 0.76899 0.70407 0.84986 0.0
C2985 C 0.73527 0.67401 0.80408 0.0
C2986 C 0.74882 0.69017 0.77694 0.0
C2987 C 0.77452 0.72456 0.77826 0.0
C2988 C 0.78553 0.74138 0.80751 0.0
C2989 C 0.76485 0.70596 0.80047 0.0
C2990 C 0.79282 0.73892 0.85263 0.0
C2991 C 0.78462 0.72019 0.87363 0.0
H2992 H 0.34406 0.07174 0.02644 0.0
H2993 H 0.3582 0.08483 0.87435 0.0
H2994 H 0.39242 0.10803 0.89528 0.0
H2995 H 0.41823 0.1117 0.95079 0.0
H2996 H 0.40488 0.09486 0.10208 0.0
H2997 H 0.37064 0.08613 0.0879 0.0
C2998 C 0.35449 0.08057 0.99826 0.0
C2999 C 0.34911 0.07578 0.94895 0.0
C3000 C 0.37451 0.09238 1.01039 0.0
C3001 C 0.36222 0.08778 0.91258 0.0
C3002 C 0.38194 0.10079 0.92455 0.0
C3003 C 0.40826 0.1071 0.9816 0.0
C3004 C 0.41383 0.10262 0.02676 0.0
C3005 C 0.38847 0.10128 0.97259 0.0
C3006 C 0.40066 0.09728 0.06618 0.0
C3007 C 0.38106 0.09233 0.0581 0.0
H3008 H 0.98842 0.34547 0.94463 0.0
H3009 H 1.01157 0.33685 0.07953 0.0
H3010 H 1.01926 0.3136 0.03948 0.0
H3011 H 1.02898 0.30509 0.96275 0.0
H3012 H 1.01234 0.32005 0.82616 0.0
H3013 H 0.99191 0.33073 0.86934 0.0
C3014 C 0.99425 0.33772 0.96571 0.0
C3015 C 0.99955 0.34289 1.01488 0.0
C3016 C 1.0002 0.32579 0.94136 0.0
C3017 C 1.00732 0.33301 0.04178 0.0
C3018 C 1.01195 0.31993 0.01861 0.0
C3019 C 1.02 0.30971 0.94247 0.0
C3020 C 1.0222 0.31204 0.89164 0.0
C3021 C 1.00988 0.31749 0.96779 0.0
C3022 C 1.01078 0.3182 0.86539 0.0
C3023 C 0.99938 0.32457 0.89018 0.0
H3024 H 0.75988 0.77339 0.52917 0.0
H3025 H 0.739 0.76636 0.67709 0.0
H3026 H 0.70725 0.7611 0.64814 0.0
H3027 H 0.68335 0.7441 0.58374 0.0
H3028 H 0.70281 0.74383 0.43679 0.0
H3029 H 0.73687 0.76673 0.46119 0.0
C3030 C 0.74862 0.77169 0.55494 0.0
C3031 C 0.75113 0.76905 0.6047 0.0
C3032 C 0.72978 0.76656 0.53768 0.0
C3033 C 0.73708 0.76779 0.63839 0.0
C3034 C 0.71878 0.76445 0.6217 0.0
C3035 C 0.69482 0.74982 0.55623 0.0
C3036 C 0.69085 0.74127 0.5093 0.0
C3037 C 0.71441 0.76149 0.5716 0.0
C3038 C 0.70575 0.7495 0.47381 0.0
C3039 C 0.72524 0.76246 0.48792 0.0
H3040 H 0.35554 0.98486 0.43214 0.0
H3041 H 0.35656 0.95531 0.56402 0.0
H3042 H 0.33553 0.96555 0.60401 0.0
H3043 H 0.32878 0.99305 0.60987 0.0
H3044 H 0.3315 1.02569 0.48041 0.0
H3045 H 0.33877 1.0041 0.431 0.0
C3046 C 0.35035 0.97982 0.46868 0.0
C3047 C 0.35855 0.97036 0.4956 0.0
C3048 C 0.33946 0.98705 0.49265 0.0
C3049 C 0.35105 0.96318 0.54252 0.0
C3050 C 0.33921 0.96934 0.56593 0.0
C3051 C 0.32999 0.99477 0.57052 0.0
C3052 C 0.33043 1.01127 0.54883 0.0
C3053 C 0.33514 0.98293 0.54283 0.0
C3054 C 0.33172 1.01332 0.49781 0.0
C3055 C 0.33594 1.00104 0.46964 0.0
H3056 H 0.10823 0.38225 0.5833 0.0
H3057 H 0.11146 0.41461 0.71373 0.0
H3058 H 0.10396 0.38582 0.76369 0.0
H3059 H 0.08499 0.3497 0.76457 0.0
H3060 H 0.07886 0.31697 0.63288 0.0
H3061 H 0.09991 0.34751 0.58966 0.0
C3062 C 0.10832 0.38328 0.62281 0.0
C3063 C 0.10948 0.40004 0.64492 0.0
C3064 C 0.10309 0.36639 0.65102 0.0
C3065 C 0.10995 0.40148 0.69609 0.0
C3066 C 0.10557 0.38501 0.7246 0.0
C3067 C 0.08917 0.34921 0.72731 0.0
C3068 C 0.07963 0.33126 0.70163 0.0
C3069 C 0.10028 0.36695 0.70188 0.0
C3070 C 0.08558 0.33067 0.65348 0.0
C3071 C 0.09742 0.34823 0.62832 0.0
H3072 H 1.01434 0.62836 0.73524 0.0
H3073 H 1.04009 0.65798 0.59959 0.0
H3074 H 0.07307 0.66885 0.6322 0.0
H3075 H 0.09314 0.6796 0.70734 0.0
H3076 H 0.06617 0.65436 0.84535 0.0
H3077 H 1.03524 0.63159 0.80402 0.0
C3078 C 1.02704 0.63632 0.71168 0.0
C3079 C 1.02485 0.64323 0.66589 0.0
C3080 C 1.04587 0.64375 0.73205 0.0
C3081 C 1.04147 0.6531 0.63565 0.0
C3082 C 0.06035 0.6595 0.65454 0.0
C3083 C 0.08074 0.66835 0.72782 0.0
C3084 C 0.08159 0.66864 0.77903 0.0
C3085 C 0.06265 0.65649 0.70409 0.0
C3086 C 0.06561 0.65428 0.80582 0.0
C3087 C 1.04792 0.64147 0.78218 0.0
H3088 H 0.44075 0.41564 0.66457 0.0
H3089 H 0.46279 0.39726 0.78633 0.0
H3090 H 0.45543 0.41701 0.84167 0.0
H3091 H 0.43117 0.42777 0.85666 0.0
H3092 H 0.40835 0.44541 0.73524 0.0
H3093 H 0.42808 0.43847 0.67874 0.0
C3094 C 0.445 0.41695 0.70275 0.0
C3095 C 0.45136 0.40438 0.72184 0.0
C3096 C 0.44002 0.42779 0.73477 0.0
C3097 C 0.45739 0.40649 0.77097 0.0
C3098 C 0.45292 0.41758 0.80291 0.0
C3099 C 0.4315 0.4312 0.81816 0.0
C3100 C 0.41786 0.43624 0.79969 0.0
C3101 C 0.44242 0.42657 0.7857 0.0
C3102 C 0.41854 0.44112 0.75005 0.0
C3103 C 0.42963 0.43689 0.71756 0.0
H3104 H 0.67477 0.04338 0.69996 0.0
H3105 H 0.70121 0.08637 0.81542 0.0
H3106 H 0.68419 0.06069 0.87641 0.0
H3107 H 0.67187 1.02548 0.89423 0.0
H3108 H 0.64567 0.98255 0.7785 0.0
H3109 H 0.65158 1.00856 0.72072 0.0
C3110 C 0.67585 0.04721 0.73836 0.0
C3111 C 0.6896 0.06645 0.75346 0.0
C3112 C 0.66636 1.03227 0.77332 0.0
C3113 C 0.69082 0.0715 0.80312 0.0
C3114 C 0.68128 0.05677 0.83811 0.0
C3115 C 0.66645 1.02179 0.85701 0.0
C3116 C 0.65911 1.00238 0.84011 0.0
C3117 C 0.67047 0.03693 0.82352 0.0
C3118 C 0.6517 0.99752 0.79216 0.0
C3119 C 0.65535 1.01244 0.75879 0.0
H3120 H 0.44921 0.04768 0.17757 0.0
H3121 H 0.46642 0.08783 0.2996 0.0
H3122 H 0.45572 0.06039 0.35625 0.0
H3123 H 0.43055 1.02533 0.36827 0.0
H3124 H 0.41267 0.98516 0.24623 0.0
H3125 H 0.43492 1.01199 0.1927 0.0
C3126 C 0.4517 0.05047 0.21647 0.0
C3127 C 0.45769 0.06949 0.23453 0.0
C3128 C 0.44476 1.03448 0.24897 0.0
C3129 C 0.4614 0.07317 0.28483 0.0
C3130 C 0.45496 0.05742 0.31742 0.0
C3131 C 0.43244 1.02233 0.33059 0.0
C3132 C 0.41965 1.00363 0.31063 0.0
C3133 C 0.44489 0.03796 0.29973 0.0
C3134 C 0.42225 0.99962 0.26208 0.0
C3135 C 0.43481 1.01502 0.23127 0.0
H3136 H 1.01102 0.39321 0.26901 0.0
H3137 H 1.04432 0.40728 0.13558 0.0
H3138 H 0.07453 0.42954 0.18 0.0
H3139 H 0.09173 0.43494 0.25733 0.0
H3140 H 0.05882 0.41453 0.3913 0.0
H3141 H 1.02818 0.40522 0.34685 0.0
C3142 C 1.02474 0.40196 0.24937 0.0
C3143 C 1.02562 0.39851 0.19929 0.0
C3144 C 1.04222 0.41311 0.2759 0.0
C3145 C 1.0434 0.40974 0.17409 0.0
C3146 C 0.06069 0.42221 0.19971 0.0
C3147 C 0.078 0.42936 0.27726 0.0
C3148 C 0.07738 0.42498 0.32729 0.0
C3149 C 0.06043 0.42258 0.25092 0.0
C3150 C 0.05952 0.41772 0.35263 0.0
C3151 C 1.04202 0.41225 0.32711 0.0
H3152 H 0.63564 0.65742 0.25721 0.0
H3153 H 0.65637 0.66733 0.40584 0.0
H3154 H 0.67221 0.64783 0.39286 0.0
H3155 H 0.69139 0.64213 0.33235 0.0
H3156 H 0.6751 0.63663 0.17984 0.0
H3157 H 0.64717 0.64102 0.20039 0.0
C3158 C 0.64299 0.65459 0.28724 0.0
C3159 C 0.64665 0.66547 0.33087 0.0
C3160 C 0.65403 0.6453 0.27767 0.0
C3161 C 0.65445 0.66027 0.37079 0.0
C3162 C 0.66392 0.64938 0.36306 0.0
C3163 C 0.68133 0.64089 0.30347 0.0
C3164 C 0.68605 0.64012 0.2542 0.0
C3165 C 0.66575 0.64406 0.31532 0.0
C3166 C 0.67245 0.63828 0.21785 0.0
C3167 C 0.65635 0.64063 0.22962 0.0
loop_
_geom_bond_atom_site_label_1
_geom_bond_atom_site_label_2
_geom_bond_distance
_geom_bond_site_symmetry_2
_ccdc_geom_bond_type
Gd0 C3 2.818 . S
Gd0 O20 2.377 . S
Gd0 O22 2.448 . S
Gd0 O23 2.506 . S
Gd0 O24 2.435 . S
Gd0 O25 2.717 . S
Gd0 O27 2.395 . S
Gd0 O31 2.327 . S
Gd1 C12 2.818 . S
Gd1 O21 2.395 . S
Gd1 O25 2.327 . S
Gd1 O26 2.377 . S
Gd1 O28 2.448 . S
Gd1 O29 2.506 . S
Gd1 O30 2.435 . S
Gd1 O31 2.717 . S
C2 O20 1.240 . S
C2 O21 1.240 . S
C3 Gd0 2.818 . S
C3 C4 1.510 . S
C3 O22 1.249 . S
C3 O23 1.252 . S
C4 C3 1.510 . S
C4 C5 1.404 . S
C4 C6 1.352 . S
C5 C4 1.404 . S
C5 C9 1.389 . S
C5 H32 0.930 . S
C6 C4 1.352 . S
C6 C8 1.374 . S
C6 H33 0.931 . S
C7 C8 1.359 . S
C7 C9 1.364 . S
C8 C6 1.374 . S
C8 C7 1.359 . S
C8 H34 0.931 . S
C9 C5 1.389 . S
C9 C7 1.364 . S
C9 H35 0.931 . S
C10 O24 1.256 . S
C10 O25 1.257 . S
C11 O26 1.240 . S
C11 O27 1.240 . S
C12 Gd1 2.818 . S
C12 C13 1.510 . S
C12 O28 1.249 . S
C12 O29 1.252 . S
C13 C12 1.510 . S
C13 C14 1.404 . S
C13 C15 1.352 . S
C14 C13 1.404 . S
C14 C18 1.389 . S
C14 H36 0.930 . S
C15 C13 1.352 . S
C15 C17 1.374 . S
C15 H37 0.931 . S
C16 C17 1.359 . S
C16 C18 1.364 . S
C17 C15 1.374 . S
C17 C16 1.359 . S
C17 H38 0.931 . S
C18 C14 1.389 . S
C18 C16 1.364 . S
C18 H39 0.931 . S
C19 O30 1.256 . S
C19 O31 1.257 . S
O20 Gd0 2.377 . S
O20 C2 1.240 . S
O21 Gd1 2.395 . S
O21 C2 1.240 . S
O22 Gd0 2.448 . S
O22 C3 1.249 . S
O23 Gd0 2.506 . S
O23 C3 1.252 . S
O24 Gd0 2.435 . S
O24 C10 1.256 . S
O25 Gd0 2.717 . S
O25 Gd1 2.327 . S
O25 C10 1.257 . S
O26 Gd1 2.377 . S
O26 C11 1.240 . S
O27 Gd0 2.395 . S
O27 C11 1.240 . S
O28 Gd1 2.448 . S
O28 C12 1.249 . S
O29 Gd1 2.506 . S
O29 C12 1.252 . S
O30 Gd1 2.435 . S
O30 C19 1.256 . S
O31 Gd0 2.327 . S
O31 Gd1 2.717 . S
O31 C19 1.257 . S
H32 C5 0.930 . S
H33 C6 0.931 . S
H34 C8 0.931 . S
H35 C9 0.931 . S
H36 C14 0.930 . S
H37 C15 0.931 . S
H38 C17 0.931 . S
H39 C18 0.931 . S
Gd40 C43 2.818 . S
Gd40 O60 2.377 . S
Gd40 O62 2.448 . S
Gd40 O63 2.506 . S
Gd40 O64 2.435 . S
Gd40 O65 2.717 . S
Gd40 O67 2.395 . S
Gd40 O71 2.327 . S
Gd41 C52 2.818 . S
Gd41 O61 2.395 . S
Gd41 O65 2.327 . S
Gd41 O66 2.377 . S
Gd41 O68 2.448 . S
Gd41 O69 2.506 . S
Gd41 O70 2.435 . S
Gd41 O71 2.717 . S
C42 O60 1.240 . S
C42 O61 1.240 . S
C43 Gd40 2.818 . S
C43 C44 1.510 . S
C43 O62 1.249 . S
C43 O63 1.252 . S
C44 C43 1.510 . S
C44 C45 1.404 . S
C44 C46 1.352 . S
C45 C44 1.404 . S
C45 C49 1.389 . S
C45 H72 0.930 . S
C46 C44 1.352 . S
C46 C48 1.374 . S
C46 H73 0.931 . S
C47 C48 1.359 . S
C47 C49 1.364 . S
C48 C46 1.374 . S
C48 C47 1.359 . S
C48 H74 0.931 . S
C49 C45 1.389 . S
C49 C47 1.364 . S
C49 H75 0.931 . S
C50 O64 1.256 . S
C50 O65 1.257 . S
C51 O66 1.240 . S
C51 O67 1.240 . S
C52 Gd41 2.818 . S
C52 C53 1.510 . S
C52 O68 1.249 . S
C52 O69 1.252 . S
C53 C52 1.510 . S
C53 C54 1.404 . S
C53 C55 1.352 . S
C54 C53 1.404 . S
C54 C58 1.389 . S
C54 H76 0.930 . S
C55 C53 1.352 . S
C55 C57 1.374 1_545 S
C55 H77 0.931 . S
C56 C57 1.359 . S
C56 C58 1.364 1_565 S
C57 C55 1.374 1_565 S
C57 C56 1.359 . S
C57 H78 0.931 . S
C58 C54 1.389 . S
C58 C56 1.364 1_545 S
C58 H79 0.931 . S
C59 O70 1.256 . S
C59 O71 1.257 . S
O60 Gd40 2.377 . S
O60 C42 1.240 . S
O61 Gd41 2.395 . S
O61 C42 1.240 . S
O62 Gd40 2.448 . S
O62 C43 1.249 . S
O63 Gd40 2.506 . S
O63 C43 1.252 . S
O64 Gd40 2.435 . S
O64 C50 1.256 . S
O65 Gd40 2.717 . S
O65 Gd41 2.327 . S
O65 C50 1.257 . S
O66 Gd41 2.377 . S
O66 C51 1.240 . S
O67 Gd40 2.395 . S
O67 C51 1.240 . S
O68 Gd41 2.448 . S
O68 C52 1.249 . S
O69 Gd41 2.506 . S
O69 C52 1.252 . S
O70 Gd41 2.435 . S
O70 C59 1.256 . S
O71 Gd40 2.327 . S
O71 Gd41 2.717 . S
O71 C59 1.257 . S
H72 C45 0.930 . S
H73 C46 0.931 . S
H74 C48 0.931 . S
H75 C49 0.931 . S
H76 C54 0.930 . S
H77 C55 0.931 . S
H78 C57 0.931 . S
H79 C58 0.931 . S
Gd80 C83 2.818 . S
Gd80 O100 2.377 . S
Gd80 O102 2.448 . S
Gd80 O103 2.506 . S
Gd80 O104 2.435 . S
Gd80 O105 2.717 . S
Gd80 O107 2.395 . S
Gd80 O111 2.327 . S
Gd81 C92 2.818 . S
Gd81 O101 2.395 . S
Gd81 O105 2.327 . S
Gd81 O106 2.377 . S
Gd81 O108 2.448 . S
Gd81 O109 2.506 . S
Gd81 O110 2.435 . S
Gd81 O111 2.717 . S
C82 O100 1.240 . S
C82 O101 1.240 . S
C83 Gd80 2.818 . S
C83 C84 1.510 . S
C83 O102 1.249 . S
C83 O103 1.252 . S
C84 C83 1.510 . S
C84 C85 1.404 . S
C84 C86 1.352 . S
C85 C84 1.404 . S
C85 C89 1.389 . S
C85 H112 0.930 . S
C86 C84 1.352 . S
C86 C88 1.374 . S
C86 H113 0.931 . S
C87 C88 1.359 . S
C87 C89 1.364 . S
C88 C86 1.374 . S
C88 C87 1.359 . S
C88 H114 0.931 . S
C89 C85 1.389 . S
C89 C87 1.364 . S
C89 H115 0.931 . S
C90 O104 1.256 . S
C90 O105 1.257 . S
C91 O106 1.240 . S
C91 O107 1.240 . S
C92 Gd81 2.818 . S
C92 C93 1.510 . S
C92 O108 1.249 . S
C92 O109 1.252 . S
C93 C92 1.510 . S
C93 C94 1.404 . S
C93 C95 1.352 . S
C94 C93 1.404 . S
C94 C98 1.389 . S
C94 H116 0.930 . S
C95 C93 1.352 . S
C95 C97 1.374 1_655 S
C95 H117 0.931 . S
C96 C97 1.359 . S
C96 C98 1.364 1_455 S
C97 C95 1.374 1_455 S
C97 C96 1.359 . S
C97 H118 0.931 . S
C98 C94 1.389 . S
C98 C96 1.364 1_655 S
C98 H119 0.931 . S
C99 O110 1.256 . S
C99 O111 1.257 . S
O100 Gd80 2.377 . S
O100 C82 1.240 . S
O101 Gd81 2.395 . S
O101 C82 1.240 . S
O102 Gd80 2.448 . S
O102 C83 1.249 . S
O103 Gd80 2.506 . S
O103 C83 1.252 . S
O104 Gd80 2.435 . S
O104 C90 1.256 . S
O105 Gd80 2.717 . S
O105 Gd81 2.327 . S
O105 C90 1.257 . S
O106 Gd81 2.377 . S
O106 C91 1.240 . S
O107 Gd80 2.395 . S
O107 C91 1.240 . S
O108 Gd81 2.448 . S
O108 C92 1.249 . S
O109 Gd81 2.506 . S
O109 C92 1.252 . S
O110 Gd81 2.435 . S
O110 C99 1.256 . S
O111 Gd80 2.327 . S
O111 Gd81 2.717 . S
O111 C99 1.257 . S
H112 C85 0.930 . S
H113 C86 0.931 . S
H114 C88 0.931 . S
H115 C89 0.931 . S
H116 C94 0.930 . S
H117 C95 0.931 . S
H118 C97 0.931 . S
H119 C98 0.931 . S
Gd120 C123 2.818 . S
Gd120 O140 2.377 . S
Gd120 O142 2.448 . S
Gd120 O143 2.506 . S
Gd120 O144 2.435 . S
Gd120 O145 2.717 . S
Gd120 O147 2.395 . S
Gd120 O151 2.327 . S
Gd121 C132 2.818 . S
Gd121 O141 2.395 . S
Gd121 O145 2.327 . S
Gd121 O146 2.377 . S
Gd121 O148 2.448 . S
Gd121 O149 2.506 . S
Gd121 O150 2.435 . S
Gd121 O151 2.717 . S
C122 O140 1.240 . S
C122 O141 1.240 . S
C123 Gd120 2.818 . S
C123 C124 1.510 . S
C123 O142 1.249 . S
C123 O143 1.252 . S
C124 C123 1.510 . S
C124 C125 1.404 . S
C124 C126 1.352 . S
C125 C124 1.404 . S
C125 C129 1.389 . S
C125 H152 0.930 . S
C126 C124 1.352 . S
C126 C128 1.374 . S
C126 H153 0.931 . S
C127 C128 1.359 . S
C127 C129 1.364 . S
C128 C126 1.374 . S
C128 C127 1.359 . S
C128 H154 0.931 . S
C129 C125 1.389 . S
C129 C127 1.364 . S
C129 H155 0.931 . S
C130 O144 1.256 . S
C130 O145 1.257 . S
C131 O146 1.240 . S
C131 O147 1.240 . S
C132 Gd121 2.818 . S
C132 C133 1.510 . S
C132 O148 1.249 . S
C132 O149 1.252 . S
C133 C132 1.510 . S
C133 C134 1.404 . S
C133 C135 1.352 . S
C134 C133 1.404 . S
C134 C138 1.389 . S
C134 H156 0.930 . S
C135 C133 1.352 . S
C135 C137 1.374 . S
C135 H157 0.931 . S
C136 C137 1.359 . S
C136 C138 1.364 . S
C137 C135 1.374 . S
C137 C136 1.359 . S
C137 H158 0.931 . S
C138 C134 1.389 . S
C138 C136 1.364 . S
C138 H159 0.931 . S
C139 O150 1.256 . S
C139 O151 1.257 . S
O140 Gd120 2.377 . S
O140 C122 1.240 . S
O141 Gd121 2.395 . S
O141 C122 1.240 . S
O142 Gd120 2.448 . S
O142 C123 1.249 . S
O143 Gd120 2.506 . S
O143 C123 1.252 . S
O144 Gd120 2.435 . S
O144 C130 1.256 . S
O145 Gd120 2.717 . S
O145 Gd121 2.327 . S
O145 C130 1.257 . S
O146 Gd121 2.377 . S
O146 C131 1.240 . S
O147 Gd120 2.395 . S
O147 C131 1.240 . S
O148 Gd121 2.448 . S
O148 C132 1.249 . S
O149 Gd121 2.506 . S
O149 C132 1.252 . S
O150 Gd121 2.435 . S
O150 C139 1.256 . S
O151 Gd120 2.327 . S
O151 Gd121 2.717 . S
O151 C139 1.257 . S
H152 C125 0.930 . S
H153 C126 0.931 . S
H154 C128 0.931 . S
H155 C129 0.931 . S
H156 C134 0.930 . S
H157 C135 0.931 . S
H158 C137 0.931 . S
H159 C138 0.931 . S
Gd160 C163 2.818 . S
Gd160 O180 2.377 . S
Gd160 O182 2.448 . S
Gd160 O183 2.506 . S
Gd160 O184 2.435 . S
Gd160 O185 2.717 . S
Gd160 O187 2.395 . S
Gd160 O191 2.327 . S
Gd161 C172 2.818 . S
Gd161 O181 2.395 . S
Gd161 O185 2.327 . S
Gd161 O186 2.377 . S
Gd161 O188 2.448 . S
Gd161 O189 2.506 . S
Gd161 O190 2.435 . S
Gd161 O191 2.717 . S
C162 O180 1.240 . S
C162 O181 1.240 . S
C163 Gd160 2.818 . S
C163 C164 1.510 . S
C163 O182 1.249 . S
C163 O183 1.252 . S
C164 C163 1.510 . S
C164 C165 1.404 . S
C164 C166 1.352 . S
C165 C164 1.404 . S
C165 C169 1.389 . S
C165 H192 0.930 . S
C166 C164 1.352 . S
C166 C168 1.374 . S
C166 H193 0.931 . S
C167 C168 1.359 . S
C167 C169 1.364 . S
C168 C166 1.374 . S
C168 C167 1.359 . S
C168 H194 0.931 . S
C169 C165 1.389 . S
C169 C167 1.364 . S
C169 H195 0.931 . S
C170 O184 1.256 . S
C170 O185 1.257 . S
C171 O186 1.240 . S
C171 O187 1.240 . S
C172 Gd161 2.818 . S
C172 C173 1.510 . S
C172 O188 1.249 . S
C172 O189 1.252 . S
C173 C172 1.510 . S
C173 C174 1.404 . S
C173 C175 1.352 . S
C174 C173 1.404 . S
C174 C178 1.389 . S
C174 H196 0.930 . S
C175 C173 1.352 . S
C175 C177 1.374 1_565 S
C175 H197 0.931 . S
C176 C177 1.359 . S
C176 C178 1.364 1_545 S
C177 C175 1.374 1_545 S
C177 C176 1.359 . S
C177 H198 0.931 . S
C178 C174 1.389 . S
C178 C176 1.364 1_565 S
C178 H199 0.931 . S
C179 O190 1.256 . S
C179 O191 1.257 . S
O180 Gd160 2.377 . S
O180 C162 1.240 . S
O181 Gd161 2.395 . S
O181 C162 1.240 . S
O182 Gd160 2.448 . S
O182 C163 1.249 . S
O183 Gd160 2.506 . S
O183 C163 1.252 . S
O184 Gd160 2.435 . S
O184 C170 1.256 . S
O185 Gd160 2.717 . S
O185 Gd161 2.327 . S
O185 C170 1.257 . S
O186 Gd161 2.377 . S
O186 C171 1.240 . S
O187 Gd160 2.395 . S
O187 C171 1.240 . S
O188 Gd161 2.448 . S
O188 C172 1.249 . S
O189 Gd161 2.506 . S
O189 C172 1.252 . S
O190 Gd161 2.435 . S
O190 C179 1.256 . S
O191 Gd160 2.327 . S
O191 Gd161 2.717 . S
O191 C179 1.257 . S
H192 C165 0.930 . S
H193 C166 0.931 . S
H194 C168 0.931 . S
H195 C169 0.931 . S
H196 C174 0.930 . S
H197 C175 0.931 . S
H198 C177 0.931 . S
H199 C178 0.931 . S
Gd200 C203 2.818 . S
Gd200 O220 2.377 . S
Gd200 O222 2.448 . S
Gd200 O223 2.506 . S
Gd200 O224 2.435 . S
Gd200 O225 2.717 . S
Gd200 O227 2.395 . S
Gd200 O231 2.327 . S
Gd201 C212 2.818 . S
Gd201 O221 2.395 . S
Gd201 O225 2.327 . S
Gd201 O226 2.377 . S
Gd201 O228 2.448 . S
Gd201 O229 2.506 . S
Gd201 O230 2.435 . S
Gd201 O231 2.717 . S
C202 O220 1.240 . S
C202 O221 1.240 . S
C203 Gd200 2.818 . S
C203 C204 1.510 . S
C203 O222 1.249 . S
C203 O223 1.252 . S
C204 C203 1.510 . S
C204 C205 1.404 . S
C204 C206 1.352 . S
C205 C204 1.404 . S
C205 C209 1.389 . S
C205 H232 0.930 . S
C206 C204 1.352 . S
C206 C208 1.374 . S
C206 H233 0.931 . S
C207 C208 1.359 . S
C207 C209 1.364 . S
C208 C206 1.374 . S
C208 C207 1.359 . S
C208 H234 0.931 . S
C209 C205 1.389 . S
C209 C207 1.364 . S
C209 H235 0.931 . S
C210 O224 1.256 . S
C210 O225 1.257 . S
C211 O226 1.240 . S
C211 O227 1.240 . S
C212 Gd201 2.818 . S
C212 C213 1.510 . S
C212 O228 1.249 . S
C212 O229 1.252 . S
C213 C212 1.510 . S
C213 C214 1.404 . S
C213 C215 1.352 . S
C214 C213 1.404 . S
C214 C218 1.389 . S
C214 H236 0.930 . S
C215 C213 1.352 . S
C215 C217 1.374 1_455 S
C215 H237 0.931 . S
C216 C217 1.359 . S
C216 C218 1.364 1_655 S
C217 C215 1.374 1_655 S
C217 C216 1.359 . S
C217 H238 0.931 . S
C218 C214 1.389 . S
C218 C216 1.364 1_455 S
C218 H239 0.931 . S
C219 O230 1.256 . S
C219 O231 1.257 . S
O220 Gd200 2.377 . S
O220 C202 1.240 . S
O221 Gd201 2.395 . S
O221 C202 1.240 . S
O222 Gd200 2.448 . S
O222 C203 1.249 . S
O223 Gd200 2.506 . S
O223 C203 1.252 . S
O224 Gd200 2.435 . S
O224 C210 1.256 . S
O225 Gd200 2.717 . S
O225 Gd201 2.327 . S
O225 C210 1.257 . S
O226 Gd201 2.377 . S
O226 C211 1.240 . S
O227 Gd200 2.395 . S
O227 C211 1.240 . S
O228 Gd201 2.448 . S
O228 C212 1.249 . S
O229 Gd201 2.506 . S
O229 C212 1.252 . S
O230 Gd201 2.435 . S
O230 C219 1.256 . S
O231 Gd200 2.327 . S
O231 Gd201 2.717 . S
O231 C219 1.257 . S
H232 C205 0.930 . S
H233 C206 0.931 . S
H234 C208 0.931 . S
H235 C209 0.931 . S
H236 C214 0.930 . S
H237 C215 0.931 . S
H238 C217 0.931 . S
H239 C218 0.931 . S
Gd240 C243 2.818 . S
Gd240 O260 2.377 . S
Gd240 O262 2.448 . S
Gd240 O263 2.506 . S
Gd240 O264 2.435 . S
Gd240 O265 2.717 . S
Gd240 O267 2.395 . S
Gd240 O271 2.327 . S
Gd241 C252 2.818 . S
Gd241 O261 2.395 . S
Gd241 O265 2.327 . S
Gd241 O266 2.377 . S
Gd241 O268 2.448 . S
Gd241 O269 2.506 . S
Gd241 O270 2.435 . S
Gd241 O271 2.717 . S
C242 O260 1.240 . S
C242 O261 1.240 . S
C243 Gd240 2.818 . S
C243 C244 1.510 . S
C243 O262 1.249 . S
C243 O263 1.252 . S
C244 C243 1.510 . S
C244 C245 1.404 . S
C244 C246 1.352 . S
C245 C244 1.404 . S
C245 C249 1.389 . S
C245 H272 0.930 . S
C246 C244 1.352 . S
C246 C248 1.374 . S
C246 H273 0.931 . S
C247 C248 1.359 . S
C247 C249 1.364 . S
C248 C246 1.374 . S
C248 C247 1.359 . S
C248 H274 0.931 . S
C249 C245 1.389 . S
C249 C247 1.364 . S
C249 H275 0.931 . S
C250 O264 1.256 . S
C250 O265 1.257 . S
C251 O266 1.240 . S
C251 O267 1.240 . S
C252 Gd241 2.818 . S
C252 C253 1.510 . S
C252 O268 1.249 . S
C252 O269 1.252 . S
C253 C252 1.510 . S
C253 C254 1.404 . S
C253 C255 1.352 . S
C254 C253 1.404 . S
C254 C258 1.389 . S
C254 H276 0.930 . S
C255 C253 1.352 . S
C255 C257 1.374 . S
C255 H277 0.931 . S
C256 C257 1.359 . S
C256 C258 1.364 . S
C257 C255 1.374 . S
C257 C256 1.359 . S
C257 H278 0.931 . S
C258 C254 1.389 . S
C258 C256 1.364 . S
C258 H279 0.931 . S
C259 O270 1.256 . S
C259 O271 1.257 . S
O260 Gd240 2.377 . S
O260 C242 1.240 . S
O261 Gd241 2.395 . S
O261 C242 1.240 . S
O262 Gd240 2.448 . S
O262 C243 1.249 . S
O263 Gd240 2.506 . S
O263 C243 1.252 . S
O264 Gd240 2.435 . S
O264 C250 1.256 . S
O265 Gd240 2.717 . S
O265 Gd241 2.327 . S
O265 C250 1.257 . S
O266 Gd241 2.377 . S
O266 C251 1.240 . S
O267 Gd240 2.395 . S
O267 C251 1.240 . S
O268 Gd241 2.448 . S
O268 C252 1.249 . S
O269 Gd241 2.506 . S
O269 C252 1.252 . S
O270 Gd241 2.435 . S
O270 C259 1.256 . S
O271 Gd240 2.327 . S
O271 Gd241 2.717 . S
O271 C259 1.257 . S
H272 C245 0.930 . S
H273 C246 0.931 . S
H274 C248 0.931 . S
H275 C249 0.931 . S
H276 C254 0.930 . S
H277 C255 0.931 . S
H278 C257 0.931 . S
H279 C258 0.931 . S
Gd280 C283 2.818 . S
Gd280 O300 2.377 . S
Gd280 O302 2.448 . S
Gd280 O303 2.506 . S
Gd280 O304 2.435 . S
Gd280 O305 2.717 . S
Gd280 O307 2.395 . S
Gd280 O311 2.327 . S
Gd281 C292 2.818 . S
Gd281 O301 2.395 . S
Gd281 O305 2.327 . S
Gd281 O306 2.377 . S
Gd281 O308 2.448 . S
Gd281 O309 2.506 . S
Gd281 O310 2.435 . S
Gd281 O311 2.717 . S
C282 O300 1.240 . S
C282 O301 1.240 . S
C283 Gd280 2.818 . S
C283 C284 1.510 . S
C283 O302 1.249 . S
C283 O303 1.252 . S
C284 C283 1.510 . S
C284 C285 1.404 . S
C284 C286 1.352 . S
C285 C284 1.404 . S
C285 C289 1.389 . S
C285 H312 0.930 . S
C286 C284 1.352 . S
C286 C288 1.374 1_565 S
C286 H313 0.931 . S
C287 C288 1.359 . S
C287 C289 1.364 1_545 S
C288 C286 1.374 1_545 S
C288 C287 1.359 . S
C288 H314 0.931 . S
C289 C285 1.389 . S
C289 C287 1.364 1_565 S
C289 H315 0.931 . S
C290 O304 1.256 . S
C290 O305 1.257 . S
C291 O306 1.240 . S
C291 O307 1.240 . S
C292 Gd281 2.818 . S
C292 C293 1.510 . S
C292 O308 1.249 . S
C292 O309 1.252 . S
C293 C292 1.510 . S
C293 C294 1.404 . S
C293 C295 1.352 . S
C294 C293 1.404 . S
C294 C298 1.389 . S
C294 H316 0.930 . S
C295 C293 1.352 . S
C295 C297 1.374 . S
C295 H317 0.931 . S
C296 C297 1.359 . S
C296 C298 1.364 . S
C297 C295 1.374 . S
C297 C296 1.359 . S
C297 H318 0.931 . S
C298 C294 1.389 . S
C298 C296 1.364 . S
C298 H319 0.931 . S
C299 O310 1.256 . S
C299 O311 1.257 . S
O300 Gd280 2.377 . S
O300 C282 1.240 . S
O301 Gd281 2.395 . S
O301 C282 1.240 . S
O302 Gd280 2.448 . S
O302 C283 1.249 . S
O303 Gd280 2.506 . S
O303 C283 1.252 . S
O304 Gd280 2.435 . S
O304 C290 1.256 . S
O305 Gd280 2.717 . S
O305 Gd281 2.327 . S
O305 C290 1.257 . S
O306 Gd281 2.377 . S
O306 C291 1.240 . S
O307 Gd280 2.395 . S
O307 C291 1.240 . S
O308 Gd281 2.448 . S
O308 C292 1.249 . S
O309 Gd281 2.506 . S
O309 C292 1.252 . S
O310 Gd281 2.435 . S
O310 C299 1.256 . S
O311 Gd280 2.327 . S
O311 Gd281 2.717 . S
O311 C299 1.257 . S
H312 C285 0.930 . S
H313 C286 0.931 . S
H314 C288 0.931 . S
H315 C289 0.931 . S
H316 C294 0.930 . S
H317 C295 0.931 . S
H318 C297 0.931 . S
H319 C298 0.931 . S
Gd320 C323 2.818 . S
Gd320 O340 2.377 . S
Gd320 O342 2.448 . S
Gd320 O343 2.506 . S
Gd320 O344 2.435 . S
Gd320 O345 2.717 . S
Gd320 O347 2.395 . S
Gd320 O351 2.327 . S
Gd321 C332 2.818 . S
Gd321 O341 2.395 . S
Gd321 O345 2.327 . S
Gd321 O346 2.377 . S
Gd321 O348 2.448 . S
Gd321 O349 2.506 . S
Gd321 O350 2.435 . S
Gd321 O351 2.717 . S
C322 O340 1.240 . S
C322 O341 1.240 . S
C323 Gd320 2.818 . S
C323 C324 1.510 . S
C323 O342 1.249 . S
C323 O343 1.252 . S
C324 C323 1.510 . S
C324 C325 1.404 . S
C324 C326 1.352 . S
C325 C324 1.404 . S
C325 C329 1.389 . S
C325 H352 0.930 . S
C326 C324 1.352 . S
C326 C328 1.374 1_455 S
C326 H353 0.931 . S
C327 C328 1.359 . S
C327 C329 1.364 1_655 S
C328 C326 1.374 1_655 S
C328 C327 1.359 . S
C328 H354 0.931 . S
C329 C325 1.389 . S
C329 C327 1.364 1_455 S
C329 H355 0.931 . S
C330 O344 1.256 . S
C330 O345 1.257 . S
C331 O346 1.240 . S
C331 O347 1.240 . S
C332 Gd321 2.818 . S
C332 C333 1.510 . S
C332 O348 1.249 . S
C332 O349 1.252 . S
C333 C332 1.510 . S
C333 C334 1.404 . S
C333 C335 1.352 . S
C334 C333 1.404 . S
C334 C338 1.389 . S
C334 H356 0.930 . S
C335 C333 1.352 . S
C335 C337 1.374 . S
C335 H357 0.931 . S
C336 C337 1.359 . S
C336 C338 1.364 . S
C337 C335 1.374 . S
C337 C336 1.359 . S
C337 H358 0.931 . S
C338 C334 1.389 . S
C338 C336 1.364 . S
C338 H359 0.931 . S
C339 O350 1.256 . S
C339 O351 1.257 . S
O340 Gd320 2.377 . S
O340 C322 1.240 . S
O341 Gd321 2.395 . S
O341 C322 1.240 . S
O342 Gd320 2.448 . S
O342 C323 1.249 . S
O343 Gd320 2.506 . S
O343 C323 1.252 . S
O344 Gd320 2.435 . S
O344 C330 1.256 . S
O345 Gd320 2.717 . S
O345 Gd321 2.327 . S
O345 C330 1.257 . S
O346 Gd321 2.377 . S
O346 C331 1.240 . S
O347 Gd320 2.395 . S
O347 C331 1.240 . S
O348 Gd321 2.448 . S
O348 C332 1.249 . S
O349 Gd321 2.506 . S
O349 C332 1.252 . S
O350 Gd321 2.435 . S
O350 C339 1.256 . S
O351 Gd320 2.327 . S
O351 Gd321 2.717 . S
O351 C339 1.257 . S
H352 C325 0.930 . S
H353 C326 0.931 . S
H354 C328 0.931 . S
H355 C329 0.931 . S
H356 C334 0.930 . S
H357 C335 0.931 . S
H358 C337 0.931 . S
H359 C338 0.931 . S
Gd360 C363 2.818 . S
Gd360 O380 2.377 . S
Gd360 O382 2.448 . S
Gd360 O383 2.506 . S
Gd360 O384 2.435 . S
Gd360 O385 2.717 . S
Gd360 O387 2.395 . S
Gd360 O391 2.327 . S
Gd361 C372 2.818 . S
Gd361 O381 2.395 . S
Gd361 O385 2.327 . S
Gd361 O386 2.377 . S
Gd361 O388 2.448 . S
Gd361 O389 2.506 . S
Gd361 O390 2.435 . S
Gd361 O391 2.717 . S
C362 O380 1.240 . S
C362 O381 1.240 . S
C363 Gd360 2.818 . S
C363 C364 1.510 . S
C363 O382 1.249 . S
C363 O383 1.252 . S
C364 C363 1.510 . S
C364 C365 1.404 . S
C364 C366 1.352 . S
C365 C364 1.404 . S
C365 C369 1.389 . S
C365 H392 0.930 . S
C366 C364 1.352 . S
C366 C368 1.374 . S
C366 H393 0.931 . S
C367 C368 1.359 . S
C367 C369 1.364 . S
C368 C366 1.374 . S
C368 C367 1.359 . S
C368 H394 0.931 . S
C369 C365 1.389 . S
C369 C367 1.364 . S
C369 H395 0.931 . S
C370 O384 1.256 . S
C370 O385 1.257 . S
C371 O386 1.240 . S
C371 O387 1.240 . S
C372 Gd361 2.818 . S
C372 C373 1.510 . S
C372 O388 1.249 . S
C372 O389 1.252 . S
C373 C372 1.510 . S
C373 C374 1.404 . S
C373 C375 1.352 . S
C374 C373 1.404 . S
C374 C378 1.389 . S
C374 H396 0.930 . S
C375 C373 1.352 . S
C375 C377 1.374 . S
C375 H397 0.931 . S
C376 C377 1.359 . S
C376 C378 1.364 . S
C377 C375 1.374 . S
C377 C376 1.359 . S
C377 H398 0.931 . S
C378 C374 1.389 . S
C378 C376 1.364 . S
C378 H399 0.931 . S
C379 O390 1.256 . S
C379 O391 1.257 . S
O380 Gd360 2.377 . S
O380 C362 1.240 . S
O381 Gd361 2.395 . S
O381 C362 1.240 . S
O382 Gd360 2.448 . S
O382 C363 1.249 . S
O383 Gd360 2.506 . S
O383 C363 1.252 . S
O384 Gd360 2.435 . S
O384 C370 1.256 . S
O385 Gd360 2.717 . S
O385 Gd361 2.327 . S
O385 C370 1.257 . S
O386 Gd361 2.377 . S
O386 C371 1.240 . S
O387 Gd360 2.395 . S
O387 C371 1.240 . S
O388 Gd361 2.448 . S
O388 C372 1.249 . S
O389 Gd361 2.506 . S
O389 C372 1.252 . S
O390 Gd361 2.435 . S
O390 C379 1.256 . S
O391 Gd360 2.327 . S
O391 Gd361 2.717 . S
O391 C379 1.257 . S
H392 C365 0.930 . S
H393 C366 0.931 . S
H394 C368 0.931 . S
H395 C369 0.931 . S
H396 C374 0.930 . S
H397 C375 0.931 . S
H398 C377 0.931 . S
H399 C378 0.931 . S
Gd400 C403 2.818 . S
Gd400 O420 2.377 . S
Gd400 O422 2.448 . S
Gd400 O423 2.506 . S
Gd400 O424 2.435 . S
Gd400 O425 2.717 . S
Gd400 O427 2.395 . S
Gd400 O431 2.327 . S
Gd401 C412 2.818 . S
Gd401 O421 2.395 . S
Gd401 O425 2.327 . S
Gd401 O426 2.377 . S
Gd401 O428 2.448 . S
Gd401 O429 2.506 . S
Gd401 O430 2.435 . S
Gd401 O431 2.717 . S
C402 O420 1.240 . S
C402 O421 1.240 . S
C403 Gd400 2.818 . S
C403 C404 1.510 . S
C403 O422 1.249 . S
C403 O423 1.252 . S
C404 C403 1.510 . S
C404 C405 1.404 . S
C404 C406 1.352 . S
C405 C404 1.404 . S
C405 C409 1.389 . S
C405 H432 0.930 . S
C406 C404 1.352 . S
C406 C408 1.374 1_545 S
C406 H433 0.931 . S
C407 C408 1.359 . S
C407 C409 1.364 1_565 S
C408 C406 1.374 1_565 S
C408 C407 1.359 . S
C408 H434 0.931 . S
C409 C405 1.389 . S
C409 C407 1.364 1_545 S
C409 H435 0.931 . S
C410 O424 1.256 . S
C410 O425 1.257 . S
C411 O426 1.240 . S
C411 O427 1.240 . S
C412 Gd401 2.818 . S
C412 C413 1.510 . S
C412 O428 1.249 . S
C412 O429 1.252 . S
C413 C412 1.510 . S
C413 C414 1.404 . S
C413 C415 1.352 . S
C414 C413 1.404 . S
C414 C418 1.389 . S
C414 H436 0.930 . S
C415 C413 1.352 . S
C415 C417 1.374 . S
C415 H437 0.931 . S
C416 C417 1.359 . S
C416 C418 1.364 . S
C417 C415 1.374 . S
C417 C416 1.359 . S
C417 H438 0.931 . S
C418 C414 1.389 . S
C418 C416 1.364 . S
C418 H439 0.931 . S
C419 O430 1.256 . S
C419 O431 1.257 . S
O420 Gd400 2.377 . S
O420 C402 1.240 . S
O421 Gd401 2.395 . S
O421 C402 1.240 . S
O422 Gd400 2.448 . S
O422 C403 1.249 . S
O423 Gd400 2.506 . S
O423 C403 1.252 . S
O424 Gd400 2.435 . S
O424 C410 1.256 . S
O425 Gd400 2.717 . S
O425 Gd401 2.327 . S
O425 C410 1.257 . S
O426 Gd401 2.377 . S
O426 C411 1.240 . S
O427 Gd400 2.395 . S
O427 C411 1.240 . S
O428 Gd401 2.448 . S
O428 C412 1.249 . S
O429 Gd401 2.506 . S
O429 C412 1.252 . S
O430 Gd401 2.435 . S
O430 C419 1.256 . S
O431 Gd400 2.327 . S
O431 Gd401 2.717 . S
O431 C419 1.257 . S
H432 C405 0.930 . S
H433 C406 0.931 . S
H434 C408 0.931 . S
H435 C409 0.931 . S
H436 C414 0.930 . S
H437 C415 0.931 . S
H438 C417 0.931 . S
H439 C418 0.931 . S
Gd440 C443 2.818 . S
Gd440 O460 2.377 . S
Gd440 O462 2.448 . S
Gd440 O463 2.506 . S
Gd440 O464 2.435 . S
Gd440 O465 2.717 . S
Gd440 O467 2.395 . S
Gd440 O471 2.327 . S
Gd441 C452 2.818 . S
Gd441 O461 2.395 . S
Gd441 O465 2.327 . S
Gd441 O466 2.377 . S
Gd441 O468 2.448 . S
Gd441 O469 2.506 . S
Gd441 O470 2.435 . S
Gd441 O471 2.717 . S
C442 O460 1.240 . S
C442 O461 1.240 . S
C443 Gd440 2.818 . S
C443 C444 1.510 . S
C443 O462 1.249 . S
C443 O463 1.252 . S
C444 C443 1.510 . S
C444 C445 1.404 . S
C444 C446 1.352 . S
C445 C444 1.404 . S
C445 C449 1.389 . S
C445 H472 0.930 . S
C446 C444 1.352 . S
C446 C448 1.374 1_655 S
C446 H473 0.931 . S
C447 C448 1.359 . S
C447 C449 1.364 1_455 S
C448 C446 1.374 1_455 S
C448 C447 1.359 . S
C448 H474 0.931 . S
C449 C445 1.389 . S
C449 C447 1.364 1_655 S
C449 H475 0.931 . S
C450 O464 1.256 . S
C450 O465 1.257 . S
C451 O466 1.240 . S
C451 O467 1.240 . S
C452 Gd441 2.818 . S
C452 C453 1.510 . S
C452 O468 1.249 . S
C452 O469 1.252 . S
C453 C452 1.510 . S
C453 C454 1.404 . S
C453 C455 1.352 . S
C454 C453 1.404 . S
C454 C458 1.389 . S
C454 H476 0.930 . S
C455 C453 1.352 . S
C455 C457 1.374 . S
C455 H477 0.931 . S
C456 C457 1.359 . S
C456 C458 1.364 . S
C457 C455 1.374 . S
C457 C456 1.359 . S
C457 H478 0.931 . S
C458 C454 1.389 . S
C458 C456 1.364 . S
C458 H479 0.931 . S
C459 O470 1.256 . S
C459 O471 1.257 . S
O460 Gd440 2.377 . S
O460 C442 1.240 . S
O461 Gd441 2.395 . S
O461 C442 1.240 . S
O462 Gd440 2.448 . S
O462 C443 1.249 . S
O463 Gd440 2.506 . S
O463 C443 1.252 . S
O464 Gd440 2.435 . S
O464 C450 1.256 . S
O465 Gd440 2.717 . S
O465 Gd441 2.327 . S
O465 C450 1.257 . S
O466 Gd441 2.377 . S
O466 C451 1.240 . S
O467 Gd440 2.395 . S
O467 C451 1.240 . S
O468 Gd441 2.448 . S
O468 C452 1.249 . S
O469 Gd441 2.506 . S
O469 C452 1.252 . S
O470 Gd441 2.435 . S
O470 C459 1.256 . S
O471 Gd440 2.327 . S
O471 Gd441 2.717 . S
O471 C459 1.257 . S
H472 C445 0.930 . S
H473 C446 0.931 . S
H474 C448 0.931 . S
H475 C449 0.931 . S
H476 C454 0.930 . S
H477 C455 0.931 . S
H478 C457 0.931 . S
H479 C458 0.931 . S
Gd480 C483 2.818 . S
Gd480 O500 2.377 . S
Gd480 O502 2.448 . S
Gd480 O503 2.506 . S
Gd480 O504 2.435 . S
Gd480 O505 2.717 . S
Gd480 O507 2.395 . S
Gd480 O511 2.327 . S
Gd481 C492 2.818 . S
Gd481 O501 2.395 . S
Gd481 O505 2.327 . S
Gd481 O506 2.377 . S
Gd481 O508 2.448 . S
Gd481 O509 2.506 . S
Gd481 O510 2.435 . S
Gd481 O511 2.717 . S
C482 O500 1.240 . S
C482 O501 1.240 . S
C483 Gd480 2.818 . S
C483 C484 1.510 . S
C483 O502 1.249 . S
C483 O503 1.252 . S
C484 C483 1.510 . S
C484 C485 1.404 . S
C484 C486 1.352 . S
C485 C484 1.404 . S
C485 C489 1.389 . S
C485 H512 0.930 . S
C486 C484 1.352 . S
C486 C488 1.374 . S
C486 H513 0.931 . S
C487 C488 1.359 . S
C487 C489 1.364 . S
C488 C486 1.374 . S
C488 C487 1.359 . S
C488 H514 0.931 . S
C489 C485 1.389 . S
C489 C487 1.364 . S
C489 H515 0.931 . S
C490 O504 1.256 . S
C490 O505 1.257 . S
C491 O506 1.240 . S
C491 O507 1.240 . S
C492 Gd481 2.818 . S
C492 C493 1.510 . S
C492 O508 1.249 . S
C492 O509 1.252 . S
C493 C492 1.510 . S
C493 C494 1.404 . S
C493 C495 1.352 . S
C494 C493 1.404 . S
C494 C498 1.389 . S
C494 H516 0.930 . S
C495 C493 1.352 . S
C495 C497 1.374 . S
C495 H517 0.931 . S
C496 C497 1.359 . S
C496 C498 1.364 . S
C497 C495 1.374 . S
C497 C496 1.359 . S
C497 H518 0.931 . S
C498 C494 1.389 . S
C498 C496 1.364 . S
C498 H519 0.931 . S
C499 O510 1.256 . S
C499 O511 1.257 . S
O500 Gd480 2.377 . S
O500 C482 1.240 . S
O501 Gd481 2.395 . S
O501 C482 1.240 . S
O502 Gd480 2.448 . S
O502 C483 1.249 . S
O503 Gd480 2.506 . S
O503 C483 1.252 . S
O504 Gd480 2.435 . S
O504 C490 1.256 . S
O505 Gd480 2.717 . S
O505 Gd481 2.327 . S
O505 C490 1.257 . S
O506 Gd481 2.377 . S
O506 C491 1.240 . S
O507 Gd480 2.395 . S
O507 C491 1.240 . S
O508 Gd481 2.448 . S
O508 C492 1.249 . S
O509 Gd481 2.506 . S
O509 C492 1.252 . S
O510 Gd481 2.435 . S
O510 C499 1.256 . S
O511 Gd480 2.327 . S
O511 Gd481 2.717 . S
O511 C499 1.257 . S
H512 C485 0.930 . S
H513 C486 0.931 . S
H514 C488 0.931 . S
H515 C489 0.931 . S
H516 C494 0.930 . S
H517 C495 0.931 . S
H518 C497 0.931 . S
H519 C498 0.931 . S
Gd520 C523 2.818 . S
Gd520 O540 2.377 . S
Gd520 O542 2.448 . S
Gd520 O543 2.506 . S
Gd520 O544 2.435 . S
Gd520 O545 2.717 . S
Gd520 O547 2.395 . S
Gd520 O551 2.327 . S
Gd521 C532 2.818 . S
Gd521 O541 2.395 . S
Gd521 O545 2.327 . S
Gd521 O546 2.377 . S
Gd521 O548 2.448 . S
Gd521 O549 2.506 . S
Gd521 O550 2.435 . S
Gd521 O551 2.717 . S
C522 O540 1.240 . S
C522 O541 1.240 . S
C523 Gd520 2.818 . S
C523 C524 1.510 . S
C523 O542 1.249 . S
C523 O543 1.252 . S
C524 C523 1.510 . S
C524 C525 1.404 . S
C524 C526 1.352 . S
C525 C524 1.404 . S
C525 C529 1.389 . S
C525 H552 0.930 . S
C526 C524 1.352 . S
C526 C528 1.374 . S
C526 H553 0.931 . S
C527 C528 1.359 . S
C527 C529 1.364 . S
C528 C526 1.374 . S
C528 C527 1.359 . S
C528 H554 0.931 . S
C529 C525 1.389 . S
C529 C527 1.364 . S
C529 H555 0.931 . S
C530 O544 1.256 . S
C530 O545 1.257 . S
C531 O546 1.240 . S
C531 O547 1.240 . S
C532 Gd521 2.818 . S
C532 C533 1.510 . S
C532 O548 1.249 . S
C532 O549 1.252 . S
C533 C532 1.510 . S
C533 C534 1.404 . S
C533 C535 1.352 . S
C534 C533 1.404 . S
C534 C538 1.389 . S
C534 H556 0.930 . S
C535 C533 1.352 . S
C535 C537 1.374 . S
C535 H557 0.931 . S
C536 C537 1.359 . S
C536 C538 1.364 . S
C537 C535 1.374 . S
C537 C536 1.359 . S
C537 H558 0.931 . S
C538 C534 1.389 . S
C538 C536 1.364 . S
C538 H559 0.931 . S
C539 O550 1.256 . S
C539 O551 1.257 . S
O540 Gd520 2.377 . S
O540 C522 1.240 . S
O541 Gd521 2.395 . S
O541 C522 1.240 . S
O542 Gd520 2.448 . S
O542 C523 1.249 . S
O543 Gd520 2.506 . S
O543 C523 1.252 . S
O544 Gd520 2.435 . S
O544 C530 1.256 . S
O545 Gd520 2.717 . S
O545 Gd521 2.327 . S
O545 C530 1.257 . S
O546 Gd521 2.377 . S
O546 C531 1.240 . S
O547 Gd520 2.395 . S
O547 C531 1.240 . S
O548 Gd521 2.448 . S
O548 C532 1.249 . S
O549 Gd521 2.506 . S
O549 C532 1.252 . S
O550 Gd521 2.435 . S
O550 C539 1.256 . S
O551 Gd520 2.327 . S
O551 Gd521 2.717 . S
O551 C539 1.257 . S
H552 C525 0.930 . S
H553 C526 0.931 . S
H554 C528 0.931 . S
H555 C529 0.931 . S
H556 C534 0.930 . S
H557 C535 0.931 . S
H558 C537 0.931 . S
H559 C538 0.931 . S
Gd560 C563 2.818 . S
Gd560 O580 2.377 . S
Gd560 O582 2.448 . S
Gd560 O583 2.506 . S
Gd560 O584 2.435 . S
Gd560 O585 2.717 . S
Gd560 O587 2.395 . S
Gd560 O591 2.327 . S
Gd561 C572 2.818 . S
Gd561 O581 2.395 . S
Gd561 O585 2.327 . S
Gd561 O586 2.377 . S
Gd561 O588 2.448 . S
Gd561 O589 2.506 . S
Gd561 O590 2.435 . S
Gd561 O591 2.717 . S
C562 O580 1.240 . S
C562 O581 1.240 . S
C563 Gd560 2.818 . S
C563 C564 1.510 . S
C563 O582 1.249 . S
C563 O583 1.252 . S
C564 C563 1.510 . S
C564 C565 1.404 . S
C564 C566 1.352 . S
C565 C564 1.404 . S
C565 C569 1.389 . S
C565 H592 0.930 . S
C566 C564 1.352 . S
C566 C568 1.374 . S
C566 H593 0.931 . S
C567 C568 1.359 . S
C567 C569 1.364 . S
C568 C566 1.374 . S
C568 C567 1.359 . S
C568 H594 0.931 . S
C569 C565 1.389 . S
C569 C567 1.364 . S
C569 H595 0.931 . S
C570 O584 1.256 . S
C570 O585 1.257 . S
C571 O586 1.240 . S
C571 O587 1.240 . S
C572 Gd561 2.818 . S
C572 C573 1.510 . S
C572 O588 1.249 . S
C572 O589 1.252 . S
C573 C572 1.510 . S
C573 C574 1.404 . S
C573 C575 1.352 . S
C574 C573 1.404 . S
C574 C578 1.389 . S
C574 H596 0.930 . S
C575 C573 1.352 . S
C575 C577 1.374 . S
C575 H597 0.931 . S
C576 C577 1.359 . S
C576 C578 1.364 . S
C577 C575 1.374 . S
C577 C576 1.359 . S
C577 H598 0.931 . S
C578 C574 1.389 . S
C578 C576 1.364 . S
C578 H599 0.931 . S
C579 O590 1.256 . S
C579 O591 1.257 . S
O580 Gd560 2.377 . S
O580 C562 1.240 . S
O581 Gd561 2.395 . S
O581 C562 1.240 . S
O582 Gd560 2.448 . S
O582 C563 1.249 . S
O583 Gd560 2.506 . S
O583 C563 1.252 . S
O584 Gd560 2.435 . S
O584 C570 1.256 . S
O585 Gd560 2.717 . S
O585 Gd561 2.327 . S
O585 C570 1.257 . S
O586 Gd561 2.377 . S
O586 C571 1.240 . S
O587 Gd560 2.395 . S
O587 C571 1.240 . S
O588 Gd561 2.448 . S
O588 C572 1.249 . S
O589 Gd561 2.506 . S
O589 C572 1.252 . S
O590 Gd561 2.435 . S
O590 C579 1.256 . S
O591 Gd560 2.327 . S
O591 Gd561 2.717 . S
O591 C579 1.257 . S
H592 C565 0.930 . S
H593 C566 0.931 . S
H594 C568 0.931 . S
H595 C569 0.931 . S
H596 C574 0.930 . S
H597 C575 0.931 . S
H598 C577 0.931 . S
H599 C578 0.931 . S
Gd600 C603 2.818 . S
Gd600 O620 2.377 . S
Gd600 O622 2.448 . S
Gd600 O623 2.506 . S
Gd600 O624 2.435 . S
Gd600 O625 2.717 . S
Gd600 O627 2.395 . S
Gd600 O631 2.327 . S
Gd601 C612 2.818 . S
Gd601 O621 2.395 . S
Gd601 O625 2.327 . S
Gd601 O626 2.377 . S
Gd601 O628 2.448 . S
Gd601 O629 2.506 . S
Gd601 O630 2.435 . S
Gd601 O631 2.717 . S
C602 O620 1.240 . S
C602 O621 1.240 . S
C603 Gd600 2.818 . S
C603 C604 1.510 . S
C603 O622 1.249 . S
C603 O623 1.252 . S
C604 C603 1.510 . S
C604 C605 1.404 . S
C604 C606 1.352 . S
C605 C604 1.404 . S
C605 C609 1.389 . S
C605 H632 0.930 . S
C606 C604 1.352 . S
C606 C608 1.374 . S
C606 H633 0.931 . S
C607 C608 1.359 . S
C607 C609 1.364 . S
C608 C606 1.374 . S
C608 C607 1.359 . S
C608 H634 0.931 . S
C609 C605 1.389 . S
C609 C607 1.364 . S
C609 H635 0.931 . S
C610 O624 1.256 . S
C610 O625 1.257 . S
C611 O626 1.240 . S
C611 O627 1.240 . S
C612 Gd601 2.818 . S
C612 C613 1.510 . S
C612 O628 1.249 . S
C612 O629 1.252 . S
C613 C612 1.510 . S
C613 C614 1.404 . S
C613 C615 1.352 . S
C614 C613 1.404 . S
C614 C618 1.389 . S
C614 H636 0.930 . S
C615 C613 1.352 . S
C615 C617 1.374 . S
C615 H637 0.931 . S
C616 C617 1.359 . S
C616 C618 1.364 . S
C617 C615 1.374 . S
C617 C616 1.359 . S
C617 H638 0.931 . S
C618 C614 1.389 . S
C618 C616 1.364 . S
C618 H639 0.931 . S
C619 O630 1.256 . S
C619 O631 1.257 . S
O620 Gd600 2.377 . S
O620 C602 1.240 . S
O621 Gd601 2.395 . S
O621 C602 1.240 . S
O622 Gd600 2.448 . S
O622 C603 1.249 . S
O623 Gd600 2.506 . S
O623 C603 1.252 . S
O624 Gd600 2.435 . S
O624 C610 1.256 . S
O625 Gd600 2.717 . S
O625 Gd601 2.327 . S
O625 C610 1.257 . S
O626 Gd601 2.377 . S
O626 C611 1.240 . S
O627 Gd600 2.395 . S
O627 C611 1.240 . S
O628 Gd601 2.448 . S
O628 C612 1.249 . S
O629 Gd601 2.506 . S
O629 C612 1.252 . S
O630 Gd601 2.435 . S
O630 C619 1.256 . S
O631 Gd600 2.327 . S
O631 Gd601 2.717 . S
O631 C619 1.257 . S
H632 C605 0.930 . S
H633 C606 0.931 . S
H634 C608 0.931 . S
H635 C609 0.931 . S
H636 C614 0.930 . S
H637 C615 0.931 . S
H638 C617 0.931 . S
H639 C618 0.931 . S
Gd640 C643 2.818 . S
Gd640 O660 2.377 . S
Gd640 O662 2.448 . S
Gd640 O663 2.506 . S
Gd640 O664 2.435 . S
Gd640 O665 2.717 . S
Gd640 O667 2.395 . S
Gd640 O671 2.327 . S
Gd641 C652 2.818 . S
Gd641 O661 2.395 . S
Gd641 O665 2.327 . S
Gd641 O666 2.377 . S
Gd641 O668 2.448 . S
Gd641 O669 2.506 . S
Gd641 O670 2.435 . S
Gd641 O671 2.717 . S
C642 O660 1.240 . S
C642 O661 1.240 . S
C643 Gd640 2.818 . S
C643 C644 1.510 . S
C643 O662 1.249 . S
C643 O663 1.252 . S
C644 C643 1.510 . S
C644 C645 1.404 . S
C644 C646 1.352 . S
C645 C644 1.404 . S
C645 C649 1.389 . S
C645 H672 0.930 . S
C646 C644 1.352 . S
C646 C648 1.374 . S
C646 H673 0.931 . S
C647 C648 1.359 . S
C647 C649 1.364 . S
C648 C646 1.374 . S
C648 C647 1.359 . S
C648 H674 0.931 . S
C649 C645 1.389 . S
C649 C647 1.364 . S
C649 H675 0.931 . S
C650 O664 1.256 . S
C650 O665 1.257 . S
C651 O666 1.240 . S
C651 O667 1.240 . S
C652 Gd641 2.818 . S
C652 C653 1.510 . S
C652 O668 1.249 . S
C652 O669 1.252 . S
C653 C652 1.510 . S
C653 C654 1.404 . S
C653 C655 1.352 . S
C654 C653 1.404 . S
C654 C658 1.389 . S
C654 H676 0.930 . S
C655 C653 1.352 . S
C655 C657 1.374 . S
C655 H677 0.931 . S
C656 C657 1.359 . S
C656 C658 1.364 . S
C657 C655 1.374 . S
C657 C656 1.359 . S
C657 H678 0.931 . S
C658 C654 1.389 . S
C658 C656 1.364 . S
C658 H679 0.931 . S
C659 O670 1.256 . S
C659 O671 1.257 . S
O660 Gd640 2.377 . S
O660 C642 1.240 . S
O661 Gd641 2.395 . S
O661 C642 1.240 . S
O662 Gd640 2.448 . S
O662 C643 1.249 . S
O663 Gd640 2.506 . S
O663 C643 1.252 . S
O664 Gd640 2.435 . S
O664 C650 1.256 . S
O665 Gd640 2.717 . S
O665 Gd641 2.327 . S
O665 C650 1.257 . S
O666 Gd641 2.377 . S
O666 C651 1.240 . S
O667 Gd640 2.395 . S
O667 C651 1.240 . S
O668 Gd641 2.448 . S
O668 C652 1.249 . S
O669 Gd641 2.506 . S
O669 C652 1.252 . S
O670 Gd641 2.435 . S
O670 C659 1.256 . S
O671 Gd640 2.327 . S
O671 Gd641 2.717 . S
O671 C659 1.257 . S
H672 C645 0.930 . S
H673 C646 0.931 . S
H674 C648 0.931 . S
H675 C649 0.931 . S
H676 C654 0.930 . S
H677 C655 0.931 . S
H678 C657 0.931 . S
H679 C658 0.931 . S
Gd680 C683 2.818 . S
Gd680 O700 2.377 . S
Gd680 O702 2.448 . S
Gd680 O703 2.506 . S
Gd680 O704 2.435 . S
Gd680 O705 2.717 . S
Gd680 O707 2.395 . S
Gd680 O711 2.327 . S
Gd681 C692 2.818 . S
Gd681 O701 2.395 . S
Gd681 O705 2.327 . S
Gd681 O706 2.377 . S
Gd681 O708 2.448 . S
Gd681 O709 2.506 . S
Gd681 O710 2.435 . S
Gd681 O711 2.717 . S
C682 O700 1.240 . S
C682 O701 1.240 . S
C683 Gd680 2.818 . S
C683 C684 1.510 . S
C683 O702 1.249 . S
C683 O703 1.252 . S
C684 C683 1.510 . S
C684 C685 1.404 . S
C684 C686 1.352 . S
C685 C684 1.404 . S
C685 C689 1.389 . S
C685 H712 0.930 . S
C686 C684 1.352 . S
C686 C688 1.374 . S
C686 H713 0.931 . S
C687 C688 1.359 . S
C687 C689 1.364 . S
C688 C686 1.374 . S
C688 C687 1.359 . S
C688 H714 0.931 . S
C689 C685 1.389 . S
C689 C687 1.364 . S
C689 H715 0.931 . S
C690 O704 1.256 . S
C690 O705 1.257 . S
C691 O706 1.240 . S
C691 O707 1.240 . S
C692 Gd681 2.818 . S
C692 C693 1.510 . S
C692 O708 1.249 . S
C692 O709 1.252 . S
C693 C692 1.510 . S
C693 C694 1.404 . S
C693 C695 1.352 . S
C694 C693 1.404 . S
C694 C698 1.389 . S
C694 H716 0.930 . S
C695 C693 1.352 . S
C695 C697 1.374 . S
C695 H717 0.931 . S
C696 C697 1.359 . S
C696 C698 1.364 . S
C697 C695 1.374 . S
C697 C696 1.359 . S
C697 H718 0.931 . S
C698 C694 1.389 . S
C698 C696 1.364 . S
C698 H719 0.931 . S
C699 O710 1.256 . S
C699 O711 1.257 . S
O700 Gd680 2.377 . S
O700 C682 1.240 . S
O701 Gd681 2.395 . S
O701 C682 1.240 . S
O702 Gd680 2.448 . S
O702 C683 1.249 . S
O703 Gd680 2.506 . S
O703 C683 1.252 . S
O704 Gd680 2.435 . S
O704 C690 1.256 . S
O705 Gd680 2.717 . S
O705 Gd681 2.327 . S
O705 C690 1.257 . S
O706 Gd681 2.377 . S
O706 C691 1.240 . S
O707 Gd680 2.395 . S
O707 C691 1.240 . S
O708 Gd681 2.448 . S
O708 C692 1.249 . S
O709 Gd681 2.506 . S
O709 C692 1.252 . S
O710 Gd681 2.435 . S
O710 C699 1.256 . S
O711 Gd680 2.327 . S
O711 Gd681 2.717 . S
O711 C699 1.257 . S
H712 C685 0.930 . S
H713 C686 0.931 . S
H714 C688 0.931 . S
H715 C689 0.931 . S
H716 C694 0.930 . S
H717 C695 0.931 . S
H718 C697 0.931 . S
H719 C698 0.931 . S
Gd720 C723 2.818 . S
Gd720 O740 2.377 . S
Gd720 O742 2.448 . S
Gd720 O743 2.506 . S
Gd720 O744 2.435 . S
Gd720 O745 2.717 . S
Gd720 O747 2.395 . S
Gd720 O751 2.327 . S
Gd721 C732 2.818 . S
Gd721 O741 2.395 . S
Gd721 O745 2.327 . S
Gd721 O746 2.377 . S
Gd721 O748 2.448 . S
Gd721 O749 2.506 . S
Gd721 O750 2.435 . S
Gd721 O751 2.717 . S
C722 O740 1.240 . S
C722 O741 1.240 . S
C723 Gd720 2.818 . S
C723 C724 1.510 . S
C723 O742 1.249 . S
C723 O743 1.252 . S
C724 C723 1.510 . S
C724 C725 1.404 . S
C724 C726 1.352 . S
C725 C724 1.404 . S
C725 C729 1.389 . S
C725 H752 0.930 . S
C726 C724 1.352 . S
C726 C728 1.374 . S
C726 H753 0.931 . S
C727 C728 1.359 . S
C727 C729 1.364 . S
C728 C726 1.374 . S
C728 C727 1.359 . S
C728 H754 0.931 . S
C729 C725 1.389 . S
C729 C727 1.364 . S
C729 H755 0.931 . S
C730 O744 1.256 . S
C730 O745 1.257 . S
C731 O746 1.240 . S
C731 O747 1.240 . S
C732 Gd721 2.818 . S
C732 C733 1.510 . S
C732 O748 1.249 . S
C732 O749 1.252 . S
C733 C732 1.510 . S
C733 C734 1.404 . S
C733 C735 1.352 . S
C734 C733 1.404 . S
C734 C738 1.389 . S
C734 H756 0.930 . S
C735 C733 1.352 . S
C735 C737 1.374 . S
C735 H757 0.931 . S
C736 C737 1.359 . S
C736 C738 1.364 . S
C737 C735 1.374 . S
C737 C736 1.359 . S
C737 H758 0.931 . S
C738 C734 1.389 . S
C738 C736 1.364 . S
C738 H759 0.931 . S
C739 O750 1.256 . S
C739 O751 1.257 . S
O740 Gd720 2.377 . S
O740 C722 1.240 . S
O741 Gd721 2.395 . S
O741 C722 1.240 . S
O742 Gd720 2.448 . S
O742 C723 1.249 . S
O743 Gd720 2.506 . S
O743 C723 1.252 . S
O744 Gd720 2.435 . S
O744 C730 1.256 . S
O745 Gd720 2.717 . S
O745 Gd721 2.327 . S
O745 C730 1.257 . S
O746 Gd721 2.377 . S
O746 C731 1.240 . S
O747 Gd720 2.395 . S
O747 C731 1.240 . S
O748 Gd721 2.448 . S
O748 C732 1.249 . S
O749 Gd721 2.506 . S
O749 C732 1.252 . S
O750 Gd721 2.435 . S
O750 C739 1.256 . S
O751 Gd720 2.327 . S
O751 Gd721 2.717 . S
O751 C739 1.257 . S
H752 C725 0.930 . S
H753 C726 0.931 . S
H754 C728 0.931 . S
H755 C729 0.931 . S
H756 C734 0.930 . S
H757 C735 0.931 . S
H758 C737 0.931 . S
H759 C738 0.931 . S
Gd760 C763 2.818 . S
Gd760 O780 2.377 . S
Gd760 O782 2.448 . S
Gd760 O783 2.506 . S
Gd760 O784 2.435 . S
Gd760 O785 2.717 . S
Gd760 O787 2.395 . S
Gd760 O791 2.327 . S
Gd761 C772 2.818 . S
Gd761 O781 2.395 . S
Gd761 O785 2.327 . S
Gd761 O786 2.377 . S
Gd761 O788 2.448 . S
Gd761 O789 2.506 . S
Gd761 O790 2.435 . S
Gd761 O791 2.717 . S
C762 O780 1.240 . S
C762 O781 1.240 . S
C763 Gd760 2.818 . S
C763 C764 1.510 . S
C763 O782 1.249 . S
C763 O783 1.252 . S
C764 C763 1.510 . S
C764 C765 1.404 . S
C764 C766 1.352 . S
C765 C764 1.404 . S
C765 C769 1.389 . S
C765 H792 0.930 . S
C766 C764 1.352 . S
C766 C768 1.374 . S
C766 H793 0.931 . S
C767 C768 1.359 . S
C767 C769 1.364 . S
C768 C766 1.374 . S
C768 C767 1.359 . S
C768 H794 0.931 . S
C769 C765 1.389 . S
C769 C767 1.364 . S
C769 H795 0.931 . S
C770 O784 1.256 . S
C770 O785 1.257 . S
C771 O786 1.240 . S
C771 O787 1.240 . S
C772 Gd761 2.818 . S
C772 C773 1.510 . S
C772 O788 1.249 . S
C772 O789 1.252 . S
C773 C772 1.510 . S
C773 C774 1.404 . S
C773 C775 1.352 . S
C774 C773 1.404 . S
C774 C778 1.389 . S
C774 H796 0.930 . S
C775 C773 1.352 . S
C775 C777 1.374 . S
C775 H797 0.931 . S
C776 C777 1.359 . S
C776 C778 1.364 . S
C777 C775 1.374 . S
C777 C776 1.359 . S
C777 H798 0.931 . S
C778 C774 1.389 . S
C778 C776 1.364 . S
C778 H799 0.931 . S
C779 O790 1.256 . S
C779 O791 1.257 . S
O780 Gd760 2.377 . S
O780 C762 1.240 . S
O781 Gd761 2.395 . S
O781 C762 1.240 . S
O782 Gd760 2.448 . S
O782 C763 1.249 . S
O783 Gd760 2.506 . S
O783 C763 1.252 . S
O784 Gd760 2.435 . S
O784 C770 1.256 . S
O785 Gd760 2.717 . S
O785 Gd761 2.327 . S
O785 C770 1.257 . S
O786 Gd761 2.377 . S
O786 C771 1.240 . S
O787 Gd760 2.395 . S
O787 C771 1.240 . S
O788 Gd761 2.448 . S
O788 C772 1.249 . S
O789 Gd761 2.506 . S
O789 C772 1.252 . S
O790 Gd761 2.435 . S
O790 C779 1.256 . S
O791 Gd760 2.327 . S
O791 Gd761 2.717 . S
O791 C779 1.257 . S
H792 C765 0.930 . S
H793 C766 0.931 . S
H794 C768 0.931 . S
H795 C769 0.931 . S
H796 C774 0.930 . S
H797 C775 0.931 . S
H798 C777 0.931 . S
H799 C778 0.931 . S
Gd800 C803 2.818 . S
Gd800 O820 2.377 . S
Gd800 O822 2.448 . S
Gd800 O823 2.506 . S
Gd800 O824 2.435 . S
Gd800 O825 2.717 . S
Gd800 O827 2.395 . S
Gd800 O831 2.327 . S
Gd801 C812 2.818 . S
Gd801 O821 2.395 . S
Gd801 O825 2.327 . S
Gd801 O826 2.377 . S
Gd801 O828 2.448 . S
Gd801 O829 2.506 . S
Gd801 O830 2.435 . S
Gd801 O831 2.717 . S
C802 O820 1.240 . S
C802 O821 1.240 . S
C803 Gd800 2.818 . S
C803 C804 1.510 . S
C803 O822 1.249 . S
C803 O823 1.252 . S
C804 C803 1.510 . S
C804 C805 1.404 . S
C804 C806 1.352 . S
C805 C804 1.404 . S
C805 C809 1.389 . S
C805 H832 0.930 . S
C806 C804 1.352 . S
C806 C808 1.374 . S
C806 H833 0.931 . S
C807 C808 1.359 . S
C807 C809 1.364 . S
C808 C806 1.374 . S
C808 C807 1.359 . S
C808 H834 0.931 . S
C809 C805 1.389 . S
C809 C807 1.364 . S
C809 H835 0.931 . S
C810 O824 1.256 . S
C810 O825 1.257 . S
C811 O826 1.240 . S
C811 O827 1.240 . S
C812 Gd801 2.818 . S
C812 C813 1.510 . S
C812 O828 1.249 . S
C812 O829 1.252 . S
C813 C812 1.510 . S
C813 C814 1.404 . S
C813 C815 1.352 . S
C814 C813 1.404 . S
C814 C818 1.389 . S
C814 H836 0.930 . S
C815 C813 1.352 . S
C815 C817 1.374 . S
C815 H837 0.931 . S
C816 C817 1.359 . S
C816 C818 1.364 . S
C817 C815 1.374 . S
C817 C816 1.359 . S
C817 H838 0.931 . S
C818 C814 1.389 . S
C818 C816 1.364 . S
C818 H839 0.931 . S
C819 O830 1.256 . S
C819 O831 1.257 . S
O820 Gd800 2.377 . S
O820 C802 1.240 . S
O821 Gd801 2.395 . S
O821 C802 1.240 . S
O822 Gd800 2.448 . S
O822 C803 1.249 . S
O823 Gd800 2.506 . S
O823 C803 1.252 . S
O824 Gd800 2.435 . S
O824 C810 1.256 . S
O825 Gd800 2.717 . S
O825 Gd801 2.327 . S
O825 C810 1.257 . S
O826 Gd801 2.377 . S
O826 C811 1.240 . S
O827 Gd800 2.395 . S
O827 C811 1.240 . S
O828 Gd801 2.448 . S
O828 C812 1.249 . S
O829 Gd801 2.506 . S
O829 C812 1.252 . S
O830 Gd801 2.435 . S
O830 C819 1.256 . S
O831 Gd800 2.327 . S
O831 Gd801 2.717 . S
O831 C819 1.257 . S
H832 C805 0.930 . S
H833 C806 0.931 . S
H834 C808 0.931 . S
H835 C809 0.931 . S
H836 C814 0.930 . S
H837 C815 0.931 . S
H838 C817 0.931 . S
H839 C818 0.931 . S
Gd840 C843 2.818 . S
Gd840 O860 2.377 . S
Gd840 O862 2.448 . S
Gd840 O863 2.506 . S
Gd840 O864 2.435 . S
Gd840 O865 2.717 . S
Gd840 O867 2.395 . S
Gd840 O871 2.327 . S
Gd841 C852 2.818 . S
Gd841 O861 2.395 . S
Gd841 O865 2.327 . S
Gd841 O866 2.377 . S
Gd841 O868 2.448 . S
Gd841 O869 2.506 . S
Gd841 O870 2.435 . S
Gd841 O871 2.717 . S
C842 O860 1.240 . S
C842 O861 1.240 . S
C843 Gd840 2.818 . S
C843 C844 1.510 . S
C843 O862 1.249 . S
C843 O863 1.252 . S
C844 C843 1.510 . S
C844 C845 1.404 . S
C844 C846 1.352 . S
C845 C844 1.404 . S
C845 C849 1.389 . S
C845 H872 0.930 . S
C846 C844 1.352 . S
C846 C848 1.374 . S
C846 H873 0.931 . S
C847 C848 1.359 . S
C847 C849 1.364 . S
C848 C846 1.374 . S
C848 C847 1.359 . S
C848 H874 0.931 . S
C849 C845 1.389 . S
C849 C847 1.364 . S
C849 H875 0.931 . S
C850 O864 1.256 . S
C850 O865 1.257 . S
C851 O866 1.240 . S
C851 O867 1.240 . S
C852 Gd841 2.818 . S
C852 C853 1.510 . S
C852 O868 1.249 . S
C852 O869 1.252 . S
C853 C852 1.510 . S
C853 C854 1.404 . S
C853 C855 1.352 . S
C854 C853 1.404 . S
C854 C858 1.389 . S
C854 H876 0.930 . S
C855 C853 1.352 . S
C855 C857 1.374 . S
C855 H877 0.931 . S
C856 C857 1.359 . S
C856 C858 1.364 . S
C857 C855 1.374 . S
C857 C856 1.359 . S
C857 H878 0.931 . S
C858 C854 1.389 . S
C858 C856 1.364 . S
C858 H879 0.931 . S
C859 O870 1.256 . S
C859 O871 1.257 . S
O860 Gd840 2.377 . S
O860 C842 1.240 . S
O861 Gd841 2.395 . S
O861 C842 1.240 . S
O862 Gd840 2.448 . S
O862 C843 1.249 . S
O863 Gd840 2.506 . S
O863 C843 1.252 . S
O864 Gd840 2.435 . S
O864 C850 1.256 . S
O865 Gd840 2.717 . S
O865 Gd841 2.327 . S
O865 C850 1.257 . S
O866 Gd841 2.377 . S
O866 C851 1.240 . S
O867 Gd840 2.395 . S
O867 C851 1.240 . S
O868 Gd841 2.448 . S
O868 C852 1.249 . S
O869 Gd841 2.506 . S
O869 C852 1.252 . S
O870 Gd841 2.435 . S
O870 C859 1.256 . S
O871 Gd840 2.327 . S
O871 Gd841 2.717 . S
O871 C859 1.257 . S
H872 C845 0.930 . S
H873 C846 0.931 . S
H874 C848 0.931 . S
H875 C849 0.931 . S
H876 C854 0.930 . S
H877 C855 0.931 . S
H878 C857 0.931 . S
H879 C858 0.931 . S
Gd880 C883 2.818 . S
Gd880 O900 2.377 . S
Gd880 O902 2.448 . S
Gd880 O903 2.506 . S
Gd880 O904 2.435 . S
Gd880 O905 2.717 . S
Gd880 O907 2.395 . S
Gd880 O911 2.327 . S
Gd881 C892 2.818 . S
Gd881 O901 2.395 . S
Gd881 O905 2.327 . S
Gd881 O906 2.377 . S
Gd881 O908 2.448 . S
Gd881 O909 2.506 . S
Gd881 O910 2.435 . S
Gd881 O911 2.717 . S
C882 O900 1.240 . S
C882 O901 1.240 . S
C883 Gd880 2.818 . S
C883 C884 1.510 . S
C883 O902 1.249 . S
C883 O903 1.252 . S
C884 C883 1.510 . S
C884 C885 1.404 . S
C884 C886 1.352 . S
C885 C884 1.404 . S
C885 C889 1.389 . S
C885 H912 0.930 . S
C886 C884 1.352 . S
C886 C888 1.374 . S
C886 H913 0.931 . S
C887 C888 1.359 . S
C887 C889 1.364 . S
C888 C886 1.374 . S
C888 C887 1.359 . S
C888 H914 0.931 . S
C889 C885 1.389 . S
C889 C887 1.364 . S
C889 H915 0.931 . S
C890 O904 1.256 . S
C890 O905 1.257 . S
C891 O906 1.240 . S
C891 O907 1.240 . S
C892 Gd881 2.818 . S
C892 C893 1.510 . S
C892 O908 1.249 . S
C892 O909 1.252 . S
C893 C892 1.510 . S
C893 C894 1.404 . S
C893 C895 1.352 . S
C894 C893 1.404 . S
C894 C898 1.389 . S
C894 H916 0.930 . S
C895 C893 1.352 . S
C895 C897 1.374 . S
C895 H917 0.931 . S
C896 C897 1.359 . S
C896 C898 1.364 . S
C897 C895 1.374 . S
C897 C896 1.359 . S
C897 H918 0.931 . S
C898 C894 1.389 . S
C898 C896 1.364 . S
C898 H919 0.931 . S
C899 O910 1.256 . S
C899 O911 1.257 . S
O900 Gd880 2.377 . S
O900 C882 1.240 . S
O901 Gd881 2.395 . S
O901 C882 1.240 . S
O902 Gd880 2.448 . S
O902 C883 1.249 . S
O903 Gd880 2.506 . S
O903 C883 1.252 . S
O904 Gd880 2.435 . S
O904 C890 1.256 . S
O905 Gd880 2.717 . S
O905 Gd881 2.327 . S
O905 C890 1.257 . S
O906 Gd881 2.377 . S
O906 C891 1.240 . S
O907 Gd880 2.395 . S
O907 C891 1.240 . S
O908 Gd881 2.448 . S
O908 C892 1.249 . S
O909 Gd881 2.506 . S
O909 C892 1.252 . S
O910 Gd881 2.435 . S
O910 C899 1.256 . S
O911 Gd880 2.327 . S
O911 Gd881 2.717 . S
O911 C899 1.257 . S
H912 C885 0.930 . S
H913 C886 0.931 . S
H914 C888 0.931 . S
H915 C889 0.931 . S
H916 C894 0.930 . S
H917 C895 0.931 . S
H918 C897 0.931 . S
H919 C898 0.931 . S
Gd920 C923 2.818 . S
Gd920 O940 2.377 . S
Gd920 O942 2.448 . S
Gd920 O943 2.506 . S
Gd920 O944 2.435 . S
Gd920 O945 2.717 . S
Gd920 O947 2.395 . S
Gd920 O951 2.327 . S
Gd921 C932 2.818 . S
Gd921 O941 2.395 . S
Gd921 O945 2.327 . S
Gd921 O946 2.377 . S
Gd921 O948 2.448 . S
Gd921 O949 2.506 . S
Gd921 O950 2.435 . S
Gd921 O951 2.717 . S
C922 O940 1.240 . S
C922 O941 1.240 . S
C923 Gd920 2.818 . S
C923 C924 1.510 . S
C923 O942 1.249 . S
C923 O943 1.252 . S
C924 C923 1.510 . S
C924 C925 1.404 . S
C924 C926 1.352 . S
C925 C924 1.404 . S
C925 C929 1.389 . S
C925 H952 0.930 . S
C926 C924 1.352 . S
C926 C928 1.374 . S
C926 H953 0.931 . S
C927 C928 1.359 . S
C927 C929 1.364 . S
C928 C926 1.374 . S
C928 C927 1.359 . S
C928 H954 0.931 . S
C929 C925 1.389 . S
C929 C927 1.364 . S
C929 H955 0.931 . S
C930 O944 1.256 . S
C930 O945 1.257 . S
C931 O946 1.240 . S
C931 O947 1.240 . S
C932 Gd921 2.818 . S
C932 C933 1.510 . S
C932 O948 1.249 . S
C932 O949 1.252 . S
C933 C932 1.510 . S
C933 C934 1.404 . S
C933 C935 1.352 . S
C934 C933 1.404 . S
C934 C938 1.389 . S
C934 H956 0.930 . S
C935 C933 1.352 . S
C935 C937 1.374 . S
C935 H957 0.931 . S
C936 C937 1.359 . S
C936 C938 1.364 . S
C937 C935 1.374 . S
C937 C936 1.359 . S
C937 H958 0.931 . S
C938 C934 1.389 . S
C938 C936 1.364 . S
C938 H959 0.931 . S
C939 O950 1.256 . S
C939 O951 1.257 . S
O940 Gd920 2.377 . S
O940 C922 1.240 . S
O941 Gd921 2.395 . S
O941 C922 1.240 . S
O942 Gd920 2.448 . S
O942 C923 1.249 . S
O943 Gd920 2.506 . S
O943 C923 1.252 . S
O944 Gd920 2.435 . S
O944 C930 1.256 . S
O945 Gd920 2.717 . S
O945 Gd921 2.327 . S
O945 C930 1.257 . S
O946 Gd921 2.377 . S
O946 C931 1.240 . S
O947 Gd920 2.395 . S
O947 C931 1.240 . S
O948 Gd921 2.448 . S
O948 C932 1.249 . S
O949 Gd921 2.506 . S
O949 C932 1.252 . S
O950 Gd921 2.435 . S
O950 C939 1.256 . S
O951 Gd920 2.327 . S
O951 Gd921 2.717 . S
O951 C939 1.257 . S
H952 C925 0.930 . S
H953 C926 0.931 . S
H954 C928 0.931 . S
H955 C929 0.931 . S
H956 C934 0.930 . S
H957 C935 0.931 . S
H958 C937 0.931 . S
H959 C938 0.931 . S
Gd960 C963 2.818 . S
Gd960 O980 2.377 . S
Gd960 O982 2.448 . S
Gd960 O983 2.506 . S
Gd960 O984 2.435 . S
Gd960 O985 2.717 . S
Gd960 O987 2.395 . S
Gd960 O991 2.327 . S
Gd961 C972 2.818 . S
Gd961 O981 2.395 . S
Gd961 O985 2.327 . S
Gd961 O986 2.377 . S
Gd961 O988 2.448 . S
Gd961 O989 2.506 . S
Gd961 O990 2.435 . S
Gd961 O991 2.717 . S
C962 O980 1.240 . S
C962 O981 1.240 . S
C963 Gd960 2.818 . S
C963 C964 1.510 . S
C963 O982 1.249 . S
C963 O983 1.252 . S
C964 C963 1.510 . S
C964 C965 1.404 . S
C964 C966 1.352 . S
C965 C964 1.404 . S
C965 C969 1.389 . S
C965 H992 0.930 . S
C966 C964 1.352 . S
C966 C968 1.374 . S
C966 H993 0.931 . S
C967 C968 1.359 . S
C967 C969 1.364 . S
C968 C966 1.374 . S
C968 C967 1.359 . S
C968 H994 0.931 . S
C969 C965 1.389 . S
C969 C967 1.364 . S
C969 H995 0.931 . S
C970 O984 1.256 . S
C970 O985 1.257 . S
C971 O986 1.240 . S
C971 O987 1.240 . S
C972 Gd961 2.818 . S
C972 C973 1.510 . S
C972 O988 1.249 . S
C972 O989 1.252 . S
C973 C972 1.510 . S
C973 C974 1.404 . S
C973 C975 1.352 . S
C974 C973 1.404 . S
C974 C978 1.389 . S
C974 H996 0.930 . S
C975 C973 1.352 . S
C975 C977 1.374 . S
C975 H997 0.931 . S
C976 C977 1.359 . S
C976 C978 1.364 . S
C977 C975 1.374 . S
C977 C976 1.359 . S
C977 H998 0.931 . S
C978 C974 1.389 . S
C978 C976 1.364 . S
C978 H999 0.931 . S
C979 O990 1.256 . S
C979 O991 1.257 . S
O980 Gd960 2.377 . S
O980 C962 1.240 . S
O981 Gd961 2.395 . S
O981 C962 1.240 . S
O982 Gd960 2.448 . S
O982 C963 1.249 . S
O983 Gd960 2.506 . S
O983 C963 1.252 . S
O984 Gd960 2.435 . S
O984 C970 1.256 . S
O985 Gd960 2.717 . S
O985 Gd961 2.327 . S
O985 C970 1.257 . S
O986 Gd961 2.377 . S
O986 C971 1.240 . S
O987 Gd960 2.395 . S
O987 C971 1.240 . S
O988 Gd961 2.448 . S
O988 C972 1.249 . S
O989 Gd961 2.506 . S
O989 C972 1.252 . S
O990 Gd961 2.435 . S
O990 C979 1.256 . S
O991 Gd960 2.327 . S
O991 Gd961 2.717 . S
O991 C979 1.257 . S
H992 C965 0.930 . S
H993 C966 0.931 . S
H994 C968 0.931 . S
H995 C969 0.931 . S
H996 C974 0.930 . S
H997 C975 0.931 . S
H998 C977 0.931 . S
H999 C978 0.931 . S
Gd1000 C1003 2.818 . S
Gd1000 O1020 2.377 . S
Gd1000 O1022 2.448 . S
Gd1000 O1023 2.506 . S
Gd1000 O1024 2.435 . S
Gd1000 O1025 2.717 . S
Gd1000 O1027 2.395 . S
Gd1000 O1031 2.327 . S
Gd1001 C1012 2.818 . S
Gd1001 O1021 2.395 . S
Gd1001 O1025 2.327 . S
Gd1001 O1026 2.377 . S
Gd1001 O1028 2.448 . S
Gd1001 O1029 2.506 . S
Gd1001 O1030 2.435 . S
Gd1001 O1031 2.717 . S
C1002 O1020 1.240 . S
C1002 O1021 1.240 . S
C1003 Gd1000 2.818 . S
C1003 C1004 1.510 . S
C1003 O1022 1.249 . S
C1003 O1023 1.252 . S
C1004 C1003 1.510 . S
C1004 C1005 1.404 . S
C1004 C1006 1.352 . S
C1005 C1004 1.404 . S
C1005 C1009 1.389 . S
C1005 H1032 0.930 . S
C1006 C1004 1.352 . S
C1006 C1008 1.374 . S
C1006 H1033 0.931 . S
C1007 C1008 1.359 . S
C1007 C1009 1.364 . S
C1008 C1006 1.374 . S
C1008 C1007 1.359 . S
C1008 H1034 0.931 . S
C1009 C1005 1.389 . S
C1009 C1007 1.364 . S
C1009 H1035 0.931 . S
C1010 O1024 1.256 . S
C1010 O1025 1.257 . S
C1011 O1026 1.240 . S
C1011 O1027 1.240 . S
C1012 Gd1001 2.818 . S
C1012 C1013 1.510 . S
C1012 O1028 1.249 . S
C1012 O1029 1.252 . S
C1013 C1012 1.510 . S
C1013 C1014 1.404 . S
C1013 C1015 1.352 . S
C1014 C1013 1.404 . S
C1014 C1018 1.389 . S
C1014 H1036 0.930 . S
C1015 C1013 1.352 . S
C1015 C1017 1.374 . S
C1015 H1037 0.931 . S
C1016 C1017 1.359 . S
C1016 C1018 1.364 . S
C1017 C1015 1.374 . S
C1017 C1016 1.359 . S
C1017 H1038 0.931 . S
C1018 C1014 1.389 . S
C1018 C1016 1.364 . S
C1018 H1039 0.931 . S
C1019 O1030 1.256 . S
C1019 O1031 1.257 . S
O1020 Gd1000 2.377 . S
O1020 C1002 1.240 . S
O1021 Gd1001 2.395 . S
O1021 C1002 1.240 . S
O1022 Gd1000 2.448 . S
O1022 C1003 1.249 . S
O1023 Gd1000 2.506 . S
O1023 C1003 1.252 . S
O1024 Gd1000 2.435 . S
O1024 C1010 1.256 . S
O1025 Gd1000 2.717 . S
O1025 Gd1001 2.327 . S
O1025 C1010 1.257 . S
O1026 Gd1001 2.377 . S
O1026 C1011 1.240 . S
O1027 Gd1000 2.395 . S
O1027 C1011 1.240 . S
O1028 Gd1001 2.448 . S
O1028 C1012 1.249 . S
O1029 Gd1001 2.506 . S
O1029 C1012 1.252 . S
O1030 Gd1001 2.435 . S
O1030 C1019 1.256 . S
O1031 Gd1000 2.327 . S
O1031 Gd1001 2.717 . S
O1031 C1019 1.257 . S
H1032 C1005 0.930 . S
H1033 C1006 0.931 . S
H1034 C1008 0.931 . S
H1035 C1009 0.931 . S
H1036 C1014 0.930 . S
H1037 C1015 0.931 . S
H1038 C1017 0.931 . S
H1039 C1018 0.931 . S
Gd1040 C1043 2.818 . S
Gd1040 O1060 2.377 . S
Gd1040 O1062 2.448 . S
Gd1040 O1063 2.506 . S
Gd1040 O1064 2.435 . S
Gd1040 O1065 2.717 . S
Gd1040 O1067 2.395 . S
Gd1040 O1071 2.327 . S
Gd1041 C1052 2.818 . S
Gd1041 O1061 2.395 . S
Gd1041 O1065 2.327 . S
Gd1041 O1066 2.377 . S
Gd1041 O1068 2.448 . S
Gd1041 O1069 2.506 . S
Gd1041 O1070 2.435 . S
Gd1041 O1071 2.717 . S
C1042 O1060 1.240 . S
C1042 O1061 1.240 . S
C1043 Gd1040 2.818 . S
C1043 C1044 1.510 . S
C1043 O1062 1.249 . S
C1043 O1063 1.252 . S
C1044 C1043 1.510 . S
C1044 C1045 1.404 . S
C1044 C1046 1.352 . S
C1045 C1044 1.404 . S
C1045 C1049 1.389 . S
C1045 H1072 0.930 . S
C1046 C1044 1.352 . S
C1046 C1048 1.374 . S
C1046 H1073 0.931 . S
C1047 C1048 1.359 . S
C1047 C1049 1.364 . S
C1048 C1046 1.374 . S
C1048 C1047 1.359 . S
C1048 H1074 0.931 . S
C1049 C1045 1.389 . S
C1049 C1047 1.364 . S
C1049 H1075 0.931 . S
C1050 O1064 1.256 . S
C1050 O1065 1.257 . S
C1051 O1066 1.240 . S
C1051 O1067 1.240 . S
C1052 Gd1041 2.818 . S
C1052 C1053 1.510 . S
C1052 O1068 1.249 . S
C1052 O1069 1.252 . S
C1053 C1052 1.510 . S
C1053 C1054 1.404 . S
C1053 C1055 1.352 . S
C1054 C1053 1.404 . S
C1054 C1058 1.389 . S
C1054 H1076 0.930 . S
C1055 C1053 1.352 . S
C1055 C1057 1.374 . S
C1055 H1077 0.931 . S
C1056 C1057 1.359 . S
C1056 C1058 1.364 . S
C1057 C1055 1.374 . S
C1057 C1056 1.359 . S
C1057 H1078 0.931 . S
C1058 C1054 1.389 . S
C1058 C1056 1.364 . S
C1058 H1079 0.931 . S
C1059 O1070 1.256 . S
C1059 O1071 1.257 . S
O1060 Gd1040 2.377 . S
O1060 C1042 1.240 . S
O1061 Gd1041 2.395 . S
O1061 C1042 1.240 . S
O1062 Gd1040 2.448 . S
O1062 C1043 1.249 . S
O1063 Gd1040 2.506 . S
O1063 C1043 1.252 . S
O1064 Gd1040 2.435 . S
O1064 C1050 1.256 . S
O1065 Gd1040 2.717 . S
O1065 Gd1041 2.327 . S
O1065 C1050 1.257 . S
O1066 Gd1041 2.377 . S
O1066 C1051 1.240 . S
O1067 Gd1040 2.395 . S
O1067 C1051 1.240 . S
O1068 Gd1041 2.448 . S
O1068 C1052 1.249 . S
O1069 Gd1041 2.506 . S
O1069 C1052 1.252 . S
O1070 Gd1041 2.435 . S
O1070 C1059 1.256 . S
O1071 Gd1040 2.327 . S
O1071 Gd1041 2.717 . S
O1071 C1059 1.257 . S
H1072 C1045 0.930 . S
H1073 C1046 0.931 . S
H1074 C1048 0.931 . S
H1075 C1049 0.931 . S
H1076 C1054 0.930 . S
H1077 C1055 0.931 . S
H1078 C1057 0.931 . S
H1079 C1058 0.931 . S
Gd1080 C1083 2.818 . S
Gd1080 O1100 2.377 . S
Gd1080 O1102 2.448 . S
Gd1080 O1103 2.506 . S
Gd1080 O1104 2.435 . S
Gd1080 O1105 2.717 . S
Gd1080 O1107 2.395 . S
Gd1080 O1111 2.327 . S
Gd1081 C1092 2.818 . S
Gd1081 O1101 2.395 . S
Gd1081 O1105 2.327 . S
Gd1081 O1106 2.377 . S
Gd1081 O1108 2.448 . S
Gd1081 O1109 2.506 . S
Gd1081 O1110 2.435 . S
Gd1081 O1111 2.717 . S
C1082 O1100 1.240 . S
C1082 O1101 1.240 . S
C1083 Gd1080 2.818 . S
C1083 C1084 1.510 . S
C1083 O1102 1.249 . S
C1083 O1103 1.252 . S
C1084 C1083 1.510 . S
C1084 C1085 1.404 . S
C1084 C1086 1.352 . S
C1085 C1084 1.404 . S
C1085 C1089 1.389 . S
C1085 H1112 0.930 . S
C1086 C1084 1.352 . S
C1086 C1088 1.374 . S
C1086 H1113 0.931 . S
C1087 C1088 1.359 . S
C1087 C1089 1.364 . S
C1088 C1086 1.374 . S
C1088 C1087 1.359 . S
C1088 H1114 0.931 . S
C1089 C1085 1.389 . S
C1089 C1087 1.364 . S
C1089 H1115 0.931 . S
C1090 O1104 1.256 . S
C1090 O1105 1.257 . S
C1091 O1106 1.240 . S
C1091 O1107 1.240 . S
C1092 Gd1081 2.818 . S
C1092 C1093 1.510 . S
C1092 O1108 1.249 . S
C1092 O1109 1.252 . S
C1093 C1092 1.510 . S
C1093 C1094 1.404 . S
C1093 C1095 1.352 . S
C1094 C1093 1.404 . S
C1094 C1098 1.389 . S
C1094 H1116 0.930 . S
C1095 C1093 1.352 . S
C1095 C1097 1.374 . S
C1095 H1117 0.931 . S
C1096 C1097 1.359 . S
C1096 C1098 1.364 . S
C1097 C1095 1.374 . S
C1097 C1096 1.359 . S
C1097 H1118 0.931 . S
C1098 C1094 1.389 . S
C1098 C1096 1.364 . S
C1098 H1119 0.931 . S
C1099 O1110 1.256 . S
C1099 O1111 1.257 . S
O1100 Gd1080 2.377 . S
O1100 C1082 1.240 . S
O1101 Gd1081 2.395 . S
O1101 C1082 1.240 . S
O1102 Gd1080 2.448 . S
O1102 C1083 1.249 . S
O1103 Gd1080 2.506 . S
O1103 C1083 1.252 . S
O1104 Gd1080 2.435 . S
O1104 C1090 1.256 . S
O1105 Gd1080 2.717 . S
O1105 Gd1081 2.327 . S
O1105 C1090 1.257 . S
O1106 Gd1081 2.377 . S
O1106 C1091 1.240 . S
O1107 Gd1080 2.395 . S
O1107 C1091 1.240 . S
O1108 Gd1081 2.448 . S
O1108 C1092 1.249 . S
O1109 Gd1081 2.506 . S
O1109 C1092 1.252 . S
O1110 Gd1081 2.435 . S
O1110 C1099 1.256 . S
O1111 Gd1080 2.327 . S
O1111 Gd1081 2.717 . S
O1111 C1099 1.257 . S
H1112 C1085 0.930 . S
H1113 C1086 0.931 . S
H1114 C1088 0.931 . S
H1115 C1089 0.931 . S
H1116 C1094 0.930 . S
H1117 C1095 0.931 . S
H1118 C1097 0.931 . S
H1119 C1098 0.931 . S
Gd1120 C1123 2.818 . S
Gd1120 O1140 2.377 . S
Gd1120 O1142 2.448 . S
Gd1120 O1143 2.506 . S
Gd1120 O1144 2.435 . S
Gd1120 O1145 2.717 . S
Gd1120 O1147 2.395 . S
Gd1120 O1151 2.327 . S
Gd1121 C1132 2.818 . S
Gd1121 O1141 2.395 . S
Gd1121 O1145 2.327 . S
Gd1121 O1146 2.377 . S
Gd1121 O1148 2.448 . S
Gd1121 O1149 2.506 . S
Gd1121 O1150 2.435 . S
Gd1121 O1151 2.717 . S
C1122 O1140 1.240 . S
C1122 O1141 1.240 . S
C1123 Gd1120 2.818 . S
C1123 C1124 1.510 . S
C1123 O1142 1.249 . S
C1123 O1143 1.252 . S
C1124 C1123 1.510 . S
C1124 C1125 1.404 . S
C1124 C1126 1.352 . S
C1125 C1124 1.404 . S
C1125 C1129 1.389 . S
C1125 H1152 0.930 . S
C1126 C1124 1.352 . S
C1126 C1128 1.374 . S
C1126 H1153 0.931 . S
C1127 C1128 1.359 . S
C1127 C1129 1.364 . S
C1128 C1126 1.374 . S
C1128 C1127 1.359 . S
C1128 H1154 0.931 . S
C1129 C1125 1.389 . S
C1129 C1127 1.364 . S
C1129 H1155 0.931 . S
C1130 O1144 1.256 . S
C1130 O1145 1.257 . S
C1131 O1146 1.240 . S
C1131 O1147 1.240 . S
C1132 Gd1121 2.818 . S
C1132 C1133 1.510 . S
C1132 O1148 1.249 . S
C1132 O1149 1.252 . S
C1133 C1132 1.510 . S
C1133 C1134 1.404 . S
C1133 C1135 1.352 . S
C1134 C1133 1.404 . S
C1134 C1138 1.389 . S
C1134 H1156 0.930 . S
C1135 C1133 1.352 . S
C1135 C1137 1.374 . S
C1135 H1157 0.931 . S
C1136 C1137 1.359 . S
C1136 C1138 1.364 . S
C1137 C1135 1.374 . S
C1137 C1136 1.359 . S
C1137 H1158 0.931 . S
C1138 C1134 1.389 . S
C1138 C1136 1.364 . S
C1138 H1159 0.931 . S
C1139 O1150 1.256 . S
C1139 O1151 1.257 . S
O1140 Gd1120 2.377 . S
O1140 C1122 1.240 . S
O1141 Gd1121 2.395 . S
O1141 C1122 1.240 . S
O1142 Gd1120 2.448 . S
O1142 C1123 1.249 . S
O1143 Gd1120 2.506 . S
O1143 C1123 1.252 . S
O1144 Gd1120 2.435 . S
O1144 C1130 1.256 . S
O1145 Gd1120 2.717 . S
O1145 Gd1121 2.327 . S
O1145 C1130 1.257 . S
O1146 Gd1121 2.377 . S
O1146 C1131 1.240 . S
O1147 Gd1120 2.395 . S
O1147 C1131 1.240 . S
O1148 Gd1121 2.448 . S
O1148 C1132 1.249 . S
O1149 Gd1121 2.506 . S
O1149 C1132 1.252 . S
O1150 Gd1121 2.435 . S
O1150 C1139 1.256 . S
O1151 Gd1120 2.327 . S
O1151 Gd1121 2.717 . S
O1151 C1139 1.257 . S
H1152 C1125 0.930 . S
H1153 C1126 0.931 . S
H1154 C1128 0.931 . S
H1155 C1129 0.931 . S
H1156 C1134 0.930 . S
H1157 C1135 0.931 . S
H1158 C1137 0.931 . S
H1159 C1138 0.931 . S
Gd1160 C1163 2.818 . S
Gd1160 O1180 2.377 . S
Gd1160 O1182 2.448 . S
Gd1160 O1183 2.506 . S
Gd1160 O1184 2.435 . S
Gd1160 O1185 2.717 . S
Gd1160 O1187 2.395 . S
Gd1160 O1191 2.327 . S
Gd1161 C1172 2.818 . S
Gd1161 O1181 2.395 . S
Gd1161 O1185 2.327 . S
Gd1161 O1186 2.377 . S
Gd1161 O1188 2.448 . S
Gd1161 O1189 2.506 . S
Gd1161 O1190 2.435 . S
Gd1161 O1191 2.717 . S
C1162 O1180 1.240 . S
C1162 O1181 1.240 . S
C1163 Gd1160 2.818 . S
C1163 C1164 1.510 . S
C1163 O1182 1.249 . S
C1163 O1183 1.252 . S
C1164 C1163 1.510 . S
C1164 C1165 1.404 . S
C1164 C1166 1.352 . S
C1165 C1164 1.404 . S
C1165 C1169 1.389 . S
C1165 H1192 0.930 . S
C1166 C1164 1.352 . S
C1166 C1168 1.374 . S
C1166 H1193 0.931 . S
C1167 C1168 1.359 . S
C1167 C1169 1.364 . S
C1168 C1166 1.374 . S
C1168 C1167 1.359 . S
C1168 H1194 0.931 . S
C1169 C1165 1.389 . S
C1169 C1167 1.364 . S
C1169 H1195 0.931 . S
C1170 O1184 1.256 . S
C1170 O1185 1.257 . S
C1171 O1186 1.240 . S
C1171 O1187 1.240 . S
C1172 Gd1161 2.818 . S
C1172 C1173 1.510 . S
C1172 O1188 1.249 . S
C1172 O1189 1.252 . S
C1173 C1172 1.510 . S
C1173 C1174 1.404 . S
C1173 C1175 1.352 . S
C1174 C1173 1.404 . S
C1174 C1178 1.389 . S
C1174 H1196 0.930 . S
C1175 C1173 1.352 . S
C1175 C1177 1.374 . S
C1175 H1197 0.931 . S
C1176 C1177 1.359 . S
C1176 C1178 1.364 . S
C1177 C1175 1.374 . S
C1177 C1176 1.359 . S
C1177 H1198 0.931 . S
C1178 C1174 1.389 . S
C1178 C1176 1.364 . S
C1178 H1199 0.931 . S
C1179 O1190 1.256 . S
C1179 O1191 1.257 . S
O1180 Gd1160 2.377 . S
O1180 C1162 1.240 . S
O1181 Gd1161 2.395 . S
O1181 C1162 1.240 . S
O1182 Gd1160 2.448 . S
O1182 C1163 1.249 . S
O1183 Gd1160 2.506 . S
O1183 C1163 1.252 . S
O1184 Gd1160 2.435 . S
O1184 C1170 1.256 . S
O1185 Gd1160 2.717 . S
O1185 Gd1161 2.327 . S
O1185 C1170 1.257 . S
O1186 Gd1161 2.377 . S
O1186 C1171 1.240 . S
O1187 Gd1160 2.395 . S
O1187 C1171 1.240 . S
O1188 Gd1161 2.448 . S
O1188 C1172 1.249 . S
O1189 Gd1161 2.506 . S
O1189 C1172 1.252 . S
O1190 Gd1161 2.435 . S
O1190 C1179 1.256 . S
O1191 Gd1160 2.327 . S
O1191 Gd1161 2.717 . S
O1191 C1179 1.257 . S
H1192 C1165 0.930 . S
H1193 C1166 0.931 . S
H1194 C1168 0.931 . S
H1195 C1169 0.931 . S
H1196 C1174 0.930 . S
H1197 C1175 0.931 . S
H1198 C1177 0.931 . S
H1199 C1178 0.931 . S
Gd1200 C1203 2.818 . S
Gd1200 O1220 2.377 . S
Gd1200 O1222 2.448 . S
Gd1200 O1223 2.506 . S
Gd1200 O1224 2.435 . S
Gd1200 O1225 2.717 . S
Gd1200 O1227 2.395 . S
Gd1200 O1231 2.327 . S
Gd1201 C1212 2.818 . S
Gd1201 O1221 2.395 . S
Gd1201 O1225 2.327 . S
Gd1201 O1226 2.377 . S
Gd1201 O1228 2.448 . S
Gd1201 O1229 2.506 . S
Gd1201 O1230 2.435 . S
Gd1201 O1231 2.717 . S
C1202 O1220 1.240 . S
C1202 O1221 1.240 . S
C1203 Gd1200 2.818 . S
C1203 C1204 1.510 . S
C1203 O1222 1.249 . S
C1203 O1223 1.252 . S
C1204 C1203 1.510 . S
C1204 C1205 1.404 . S
C1204 C1206 1.352 . S
C1205 C1204 1.404 . S
C1205 C1209 1.389 . S
C1205 H1232 0.930 . S
C1206 C1204 1.352 . S
C1206 C1208 1.374 . S
C1206 H1233 0.931 . S
C1207 C1208 1.359 . S
C1207 C1209 1.364 . S
C1208 C1206 1.374 . S
C1208 C1207 1.359 . S
C1208 H1234 0.931 . S
C1209 C1205 1.389 . S
C1209 C1207 1.364 . S
C1209 H1235 0.931 . S
C1210 O1224 1.256 . S
C1210 O1225 1.257 . S
C1211 O1226 1.240 . S
C1211 O1227 1.240 . S
C1212 Gd1201 2.818 . S
C1212 C1213 1.510 . S
C1212 O1228 1.249 . S
C1212 O1229 1.252 . S
C1213 C1212 1.510 . S
C1213 C1214 1.404 . S
C1213 C1215 1.352 . S
C1214 C1213 1.404 . S
C1214 C1218 1.389 . S
C1214 H1236 0.930 . S
C1215 C1213 1.352 . S
C1215 C1217 1.374 . S
C1215 H1237 0.931 . S
C1216 C1217 1.359 . S
C1216 C1218 1.364 . S
C1217 C1215 1.374 . S
C1217 C1216 1.359 . S
C1217 H1238 0.931 . S
C1218 C1214 1.389 . S
C1218 C1216 1.364 . S
C1218 H1239 0.931 . S
C1219 O1230 1.256 . S
C1219 O1231 1.257 . S
O1220 Gd1200 2.377 . S
O1220 C1202 1.240 . S
O1221 Gd1201 2.395 . S
O1221 C1202 1.240 . S
O1222 Gd1200 2.448 . S
O1222 C1203 1.249 . S
O1223 Gd1200 2.506 . S
O1223 C1203 1.252 . S
O1224 Gd1200 2.435 . S
O1224 C1210 1.256 . S
O1225 Gd1200 2.717 . S
O1225 Gd1201 2.327 . S
O1225 C1210 1.257 . S
O1226 Gd1201 2.377 . S
O1226 C1211 1.240 . S
O1227 Gd1200 2.395 . S
O1227 C1211 1.240 . S
O1228 Gd1201 2.448 . S
O1228 C1212 1.249 . S
O1229 Gd1201 2.506 . S
O1229 C1212 1.252 . S
O1230 Gd1201 2.435 . S
O1230 C1219 1.256 . S
O1231 Gd1200 2.327 . S
O1231 Gd1201 2.717 . S
O1231 C1219 1.257 . S
H1232 C1205 0.930 . S
H1233 C1206 0.931 . S
H1234 C1208 0.931 . S
H1235 C1209 0.931 . S
H1236 C1214 0.930 . S
H1237 C1215 0.931 . S
H1238 C1217 0.931 . S
H1239 C1218 0.931 . S
Gd1240 C1243 2.818 . S
Gd1240 O1260 2.377 . S
Gd1240 O1262 2.448 . S
Gd1240 O1263 2.506 . S
Gd1240 O1264 2.435 . S
Gd1240 O1265 2.717 . S
Gd1240 O1267 2.395 . S
Gd1240 O1271 2.327 . S
Gd1241 C1252 2.818 . S
Gd1241 O1261 2.395 . S
Gd1241 O1265 2.327 . S
Gd1241 O1266 2.377 . S
Gd1241 O1268 2.448 . S
Gd1241 O1269 2.506 . S
Gd1241 O1270 2.435 . S
Gd1241 O1271 2.717 . S
C1242 O1260 1.240 . S
C1242 O1261 1.240 . S
C1243 Gd1240 2.818 . S
C1243 C1244 1.510 . S
C1243 O1262 1.249 . S
C1243 O1263 1.252 . S
C1244 C1243 1.510 . S
C1244 C1245 1.404 . S
C1244 C1246 1.352 . S
C1245 C1244 1.404 . S
C1245 C1249 1.389 . S
C1245 H1272 0.930 . S
C1246 C1244 1.352 . S
C1246 C1248 1.374 . S
C1246 H1273 0.931 . S
C1247 C1248 1.359 . S
C1247 C1249 1.364 . S
C1248 C1246 1.374 . S
C1248 C1247 1.359 . S
C1248 H1274 0.931 . S
C1249 C1245 1.389 . S
C1249 C1247 1.364 . S
C1249 H1275 0.931 . S
C1250 O1264 1.256 . S
C1250 O1265 1.257 . S
C1251 O1266 1.240 . S
C1251 O1267 1.240 . S
C1252 Gd1241 2.818 . S
C1252 C1253 1.510 . S
C1252 O1268 1.249 . S
C1252 O1269 1.252 . S
C1253 C1252 1.510 . S
C1253 C1254 1.404 . S
C1253 C1255 1.352 . S
C1254 C1253 1.404 . S
C1254 C1258 1.389 . S
C1254 H1276 0.930 . S
C1255 C1253 1.352 . S
C1255 C1257 1.374 . S
C1255 H1277 0.931 . S
C1256 C1257 1.359 . S
C1256 C1258 1.364 . S
C1257 C1255 1.374 . S
C1257 C1256 1.359 . S
C1257 H1278 0.931 . S
C1258 C1254 1.389 . S
C1258 C1256 1.364 . S
C1258 H1279 0.931 . S
C1259 O1270 1.256 . S
C1259 O1271 1.257 . S
O1260 Gd1240 2.377 . S
O1260 C1242 1.240 . S
O1261 Gd1241 2.395 . S
O1261 C1242 1.240 . S
O1262 Gd1240 2.448 . S
O1262 C1243 1.249 . S
O1263 Gd1240 2.506 . S
O1263 C1243 1.252 . S
O1264 Gd1240 2.435 . S
O1264 C1250 1.256 . S
O1265 Gd1240 2.717 . S
O1265 Gd1241 2.327 . S
O1265 C1250 1.257 . S
O1266 Gd1241 2.377 . S
O1266 C1251 1.240 . S
O1267 Gd1240 2.395 . S
O1267 C1251 1.240 . S
O1268 Gd1241 2.448 . S
O1268 C1252 1.249 . S
O1269 Gd1241 2.506 . S
O1269 C1252 1.252 . S
O1270 Gd1241 2.435 . S
O1270 C1259 1.256 . S
O1271 Gd1240 2.327 . S
O1271 Gd1241 2.717 . S
O1271 C1259 1.257 . S
H1272 C1245 0.930 . S
H1273 C1246 0.931 . S
H1274 C1248 0.931 . S
H1275 C1249 0.931 . S
H1276 C1254 0.930 . S
H1277 C1255 0.931 . S
H1278 C1257 0.931 . S
H1279 C1258 0.931 . S
Gd1280 C1283 2.818 . S
Gd1280 O1300 2.377 . S
Gd1280 O1302 2.448 . S
Gd1280 O1303 2.506 . S
Gd1280 O1304 2.435 . S
Gd1280 O1305 2.717 . S
Gd1280 O1307 2.395 . S
Gd1280 O1311 2.327 . S
Gd1281 C1292 2.818 . S
Gd1281 O1301 2.395 . S
Gd1281 O1305 2.327 . S
Gd1281 O1306 2.377 . S
Gd1281 O1308 2.448 . S
Gd1281 O1309 2.506 . S
Gd1281 O1310 2.435 . S
Gd1281 O1311 2.717 . S
C1282 O1300 1.240 . S
C1282 O1301 1.240 . S
C1283 Gd1280 2.818 . S
C1283 C1284 1.510 . S
C1283 O1302 1.249 . S
C1283 O1303 1.252 . S
C1284 C1283 1.510 . S
C1284 C1285 1.404 . S
C1284 C1286 1.352 . S
C1285 C1284 1.404 . S
C1285 C1289 1.389 . S
C1285 H1312 0.930 . S
C1286 C1284 1.352 . S
C1286 C1288 1.374 . S
C1286 H1313 0.931 . S
C1287 C1288 1.359 . S
C1287 C1289 1.364 . S
C1288 C1286 1.374 . S
C1288 C1287 1.359 . S
C1288 H1314 0.931 . S
C1289 C1285 1.389 . S
C1289 C1287 1.364 . S
C1289 H1315 0.931 . S
C1290 O1304 1.256 . S
C1290 O1305 1.257 . S
C1291 O1306 1.240 . S
C1291 O1307 1.240 . S
C1292 Gd1281 2.818 . S
C1292 C1293 1.510 . S
C1292 O1308 1.249 . S
C1292 O1309 1.252 . S
C1293 C1292 1.510 . S
C1293 C1294 1.404 . S
C1293 C1295 1.352 . S
C1294 C1293 1.404 . S
C1294 C1298 1.389 . S
C1294 H1316 0.930 . S
C1295 C1293 1.352 . S
C1295 C1297 1.374 . S
C1295 H1317 0.931 . S
C1296 C1297 1.359 . S
C1296 C1298 1.364 . S
C1297 C1295 1.374 . S
C1297 C1296 1.359 . S
C1297 H1318 0.931 . S
C1298 C1294 1.389 . S
C1298 C1296 1.364 . S
C1298 H1319 0.931 . S
C1299 O1310 1.256 . S
C1299 O1311 1.257 . S
O1300 Gd1280 2.377 . S
O1300 C1282 1.240 . S
O1301 Gd1281 2.395 . S
O1301 C1282 1.240 . S
O1302 Gd1280 2.448 . S
O1302 C1283 1.249 . S
O1303 Gd1280 2.506 . S
O1303 C1283 1.252 . S
O1304 Gd1280 2.435 . S
O1304 C1290 1.256 . S
O1305 Gd1280 2.717 . S
O1305 Gd1281 2.327 . S
O1305 C1290 1.257 . S
O1306 Gd1281 2.377 . S
O1306 C1291 1.240 . S
O1307 Gd1280 2.395 . S
O1307 C1291 1.240 . S
O1308 Gd1281 2.448 . S
O1308 C1292 1.249 . S
O1309 Gd1281 2.506 . S
O1309 C1292 1.252 . S
O1310 Gd1281 2.435 . S
O1310 C1299 1.256 . S
O1311 Gd1280 2.327 . S
O1311 Gd1281 2.717 . S
O1311 C1299 1.257 . S
H1312 C1285 0.930 . S
H1313 C1286 0.931 . S
H1314 C1288 0.931 . S
H1315 C1289 0.931 . S
H1316 C1294 0.930 . S
H1317 C1295 0.931 . S
H1318 C1297 0.931 . S
H1319 C1298 0.931 . S
Gd1320 C1323 2.818 . S
Gd1320 O1340 2.377 . S
Gd1320 O1342 2.448 . S
Gd1320 O1343 2.506 . S
Gd1320 O1344 2.435 . S
Gd1320 O1345 2.717 . S
Gd1320 O1347 2.395 . S
Gd1320 O1351 2.327 . S
Gd1321 C1332 2.818 . S
Gd1321 O1341 2.395 . S
Gd1321 O1345 2.327 . S
Gd1321 O1346 2.377 . S
Gd1321 O1348 2.448 . S
Gd1321 O1349 2.506 . S
Gd1321 O1350 2.435 . S
Gd1321 O1351 2.717 . S
C1322 O1340 1.240 . S
C1322 O1341 1.240 . S
C1323 Gd1320 2.818 . S
C1323 C1324 1.510 . S
C1323 O1342 1.249 . S
C1323 O1343 1.252 . S
C1324 C1323 1.510 . S
C1324 C1325 1.404 . S
C1324 C1326 1.352 . S
C1325 C1324 1.404 . S
C1325 C1329 1.389 . S
C1325 H1352 0.930 . S
C1326 C1324 1.352 . S
C1326 C1328 1.374 . S
C1326 H1353 0.931 . S
C1327 C1328 1.359 . S
C1327 C1329 1.364 . S
C1328 C1326 1.374 . S
C1328 C1327 1.359 . S
C1328 H1354 0.931 . S
C1329 C1325 1.389 . S
C1329 C1327 1.364 . S
C1329 H1355 0.931 . S
C1330 O1344 1.256 . S
C1330 O1345 1.257 . S
C1331 O1346 1.240 . S
C1331 O1347 1.240 . S
C1332 Gd1321 2.818 . S
C1332 C1333 1.510 . S
C1332 O1348 1.249 . S
C1332 O1349 1.252 . S
C1333 C1332 1.510 . S
C1333 C1334 1.404 . S
C1333 C1335 1.352 . S
C1334 C1333 1.404 . S
C1334 C1338 1.389 . S
C1334 H1356 0.930 . S
C1335 C1333 1.352 . S
C1335 C1337 1.374 . S
C1335 H1357 0.931 . S
C1336 C1337 1.359 . S
C1336 C1338 1.364 . S
C1337 C1335 1.374 . S
C1337 C1336 1.359 . S
C1337 H1358 0.931 . S
C1338 C1334 1.389 . S
C1338 C1336 1.364 . S
C1338 H1359 0.931 . S
C1339 O1350 1.256 . S
C1339 O1351 1.257 . S
O1340 Gd1320 2.377 . S
O1340 C1322 1.240 . S
O1341 Gd1321 2.395 . S
O1341 C1322 1.240 . S
O1342 Gd1320 2.448 . S
O1342 C1323 1.249 . S
O1343 Gd1320 2.506 . S
O1343 C1323 1.252 . S
O1344 Gd1320 2.435 . S
O1344 C1330 1.256 . S
O1345 Gd1320 2.717 . S
O1345 Gd1321 2.327 . S
O1345 C1330 1.257 . S
O1346 Gd1321 2.377 . S
O1346 C1331 1.240 . S
O1347 Gd1320 2.395 . S
O1347 C1331 1.240 . S
O1348 Gd1321 2.448 . S
O1348 C1332 1.249 . S
O1349 Gd1321 2.506 . S
O1349 C1332 1.252 . S
O1350 Gd1321 2.435 . S
O1350 C1339 1.256 . S
O1351 Gd1320 2.327 . S
O1351 Gd1321 2.717 . S
O1351 C1339 1.257 . S
H1352 C1325 0.930 . S
H1353 C1326 0.931 . S
H1354 C1328 0.931 . S
H1355 C1329 0.931 . S
H1356 C1334 0.930 . S
H1357 C1335 0.931 . S
H1358 C1337 0.931 . S
H1359 C1338 0.931 . S
Gd1360 C1363 2.818 . S
Gd1360 O1380 2.377 . S
Gd1360 O1382 2.448 . S
Gd1360 O1383 2.506 . S
Gd1360 O1384 2.435 . S
Gd1360 O1385 2.717 . S
Gd1360 O1387 2.395 . S
Gd1360 O1391 2.327 . S
Gd1361 C1372 2.818 . S
Gd1361 O1381 2.395 . S
Gd1361 O1385 2.327 . S
Gd1361 O1386 2.377 . S
Gd1361 O1388 2.448 . S
Gd1361 O1389 2.506 . S
Gd1361 O1390 2.435 . S
Gd1361 O1391 2.717 . S
C1362 O1380 1.240 . S
C1362 O1381 1.240 . S
C1363 Gd1360 2.818 . S
C1363 C1364 1.510 . S
C1363 O1382 1.249 . S
C1363 O1383 1.252 . S
C1364 C1363 1.510 . S
C1364 C1365 1.404 . S
C1364 C1366 1.352 . S
C1365 C1364 1.404 . S
C1365 C1369 1.389 . S
C1365 H1392 0.930 . S
C1366 C1364 1.352 . S
C1366 C1368 1.374 . S
C1366 H1393 0.931 . S
C1367 C1368 1.359 . S
C1367 C1369 1.364 . S
C1368 C1366 1.374 . S
C1368 C1367 1.359 . S
C1368 H1394 0.931 . S
C1369 C1365 1.389 . S
C1369 C1367 1.364 . S
C1369 H1395 0.931 . S
C1370 O1384 1.256 . S
C1370 O1385 1.257 . S
C1371 O1386 1.240 . S
C1371 O1387 1.240 . S
C1372 Gd1361 2.818 . S
C1372 C1373 1.510 . S
C1372 O1388 1.249 . S
C1372 O1389 1.252 . S
C1373 C1372 1.510 . S
C1373 C1374 1.404 . S
C1373 C1375 1.352 . S
C1374 C1373 1.404 . S
C1374 C1378 1.389 . S
C1374 H1396 0.930 . S
C1375 C1373 1.352 . S
C1375 C1377 1.374 . S
C1375 H1397 0.931 . S
C1376 C1377 1.359 . S
C1376 C1378 1.364 . S
C1377 C1375 1.374 . S
C1377 C1376 1.359 . S
C1377 H1398 0.931 . S
C1378 C1374 1.389 . S
C1378 C1376 1.364 . S
C1378 H1399 0.931 . S
C1379 O1390 1.256 . S
C1379 O1391 1.257 . S
O1380 Gd1360 2.377 . S
O1380 C1362 1.240 . S
O1381 Gd1361 2.395 . S
O1381 C1362 1.240 . S
O1382 Gd1360 2.448 . S
O1382 C1363 1.249 . S
O1383 Gd1360 2.506 . S
O1383 C1363 1.252 . S
O1384 Gd1360 2.435 . S
O1384 C1370 1.256 . S
O1385 Gd1360 2.717 . S
O1385 Gd1361 2.327 . S
O1385 C1370 1.257 . S
O1386 Gd1361 2.377 . S
O1386 C1371 1.240 . S
O1387 Gd1360 2.395 . S
O1387 C1371 1.240 . S
O1388 Gd1361 2.448 . S
O1388 C1372 1.249 . S
O1389 Gd1361 2.506 . S
O1389 C1372 1.252 . S
O1390 Gd1361 2.435 . S
O1390 C1379 1.256 . S
O1391 Gd1360 2.327 . S
O1391 Gd1361 2.717 . S
O1391 C1379 1.257 . S
H1392 C1365 0.930 . S
H1393 C1366 0.931 . S
H1394 C1368 0.931 . S
H1395 C1369 0.931 . S
H1396 C1374 0.930 . S
H1397 C1375 0.931 . S
H1398 C1377 0.931 . S
H1399 C1378 0.931 . S
Gd1400 C1403 2.818 . S
Gd1400 O1420 2.377 . S
Gd1400 O1422 2.448 . S
Gd1400 O1423 2.506 . S
Gd1400 O1424 2.435 . S
Gd1400 O1425 2.717 . S
Gd1400 O1427 2.395 . S
Gd1400 O1431 2.327 . S
Gd1401 C1412 2.818 . S
Gd1401 O1421 2.395 . S
Gd1401 O1425 2.327 . S
Gd1401 O1426 2.377 . S
Gd1401 O1428 2.448 . S
Gd1401 O1429 2.506 . S
Gd1401 O1430 2.435 . S
Gd1401 O1431 2.717 . S
C1402 O1420 1.240 . S
C1402 O1421 1.240 . S
C1403 Gd1400 2.818 . S
C1403 C1404 1.510 . S
C1403 O1422 1.249 . S
C1403 O1423 1.252 . S
C1404 C1403 1.510 . S
C1404 C1405 1.404 . S
C1404 C1406 1.352 . S
C1405 C1404 1.404 . S
C1405 C1409 1.389 . S
C1405 H1432 0.930 . S
C1406 C1404 1.352 . S
C1406 C1408 1.374 . S
C1406 H1433 0.931 . S
C1407 C1408 1.359 . S
C1407 C1409 1.364 . S
C1408 C1406 1.374 . S
C1408 C1407 1.359 . S
C1408 H1434 0.931 . S
C1409 C1405 1.389 . S
C1409 C1407 1.364 . S
C1409 H1435 0.931 . S
C1410 O1424 1.256 . S
C1410 O1425 1.257 . S
C1411 O1426 1.240 . S
C1411 O1427 1.240 . S
C1412 Gd1401 2.818 . S
C1412 C1413 1.510 . S
C1412 O1428 1.249 . S
C1412 O1429 1.252 . S
C1413 C1412 1.510 . S
C1413 C1414 1.404 . S
C1413 C1415 1.352 . S
C1414 C1413 1.404 . S
C1414 C1418 1.389 . S
C1414 H1436 0.930 . S
C1415 C1413 1.352 . S
C1415 C1417 1.374 . S
C1415 H1437 0.931 . S
C1416 C1417 1.359 . S
C1416 C1418 1.364 . S
C1417 C1415 1.374 . S
C1417 C1416 1.359 . S
C1417 H1438 0.931 . S
C1418 C1414 1.389 . S
C1418 C1416 1.364 . S
C1418 H1439 0.931 . S
C1419 O1430 1.256 . S
C1419 O1431 1.257 . S
O1420 Gd1400 2.377 . S
O1420 C1402 1.240 . S
O1421 Gd1401 2.395 . S
O1421 C1402 1.240 . S
O1422 Gd1400 2.448 . S
O1422 C1403 1.249 . S
O1423 Gd1400 2.506 . S
O1423 C1403 1.252 . S
O1424 Gd1400 2.435 . S
O1424 C1410 1.256 . S
O1425 Gd1400 2.717 . S
O1425 Gd1401 2.327 . S
O1425 C1410 1.257 . S
O1426 Gd1401 2.377 . S
O1426 C1411 1.240 . S
O1427 Gd1400 2.395 . S
O1427 C1411 1.240 . S
O1428 Gd1401 2.448 . S
O1428 C1412 1.249 . S
O1429 Gd1401 2.506 . S
O1429 C1412 1.252 . S
O1430 Gd1401 2.435 . S
O1430 C1419 1.256 . S
O1431 Gd1400 2.327 . S
O1431 Gd1401 2.717 . S
O1431 C1419 1.257 . S
H1432 C1405 0.930 . S
H1433 C1406 0.931 . S
H1434 C1408 0.931 . S
H1435 C1409 0.931 . S
H1436 C1414 0.930 . S
H1437 C1415 0.931 . S
H1438 C1417 0.931 . S
H1439 C1418 0.931 . S
H1440 C1446 0.930 . S
H1441 C1449 0.930 1_556 S
H1442 C1450 0.930 . S
H1443 C1451 0.930 . S
H1444 C1454 0.930 . S
H1445 C1455 0.930 . S
C1446 H1440 0.930 . S
C1446 C1447 1.355 . S
C1446 C1448 1.415 . S
C1447 C1446 1.355 . S
C1447 C1449 1.419 . S
C1448 C1446 1.415 . S
C1448 C1453 1.425 1_554 S
C1448 C1455 1.409 1_545 S
C1449 H1441 0.930 1_554 S
C1449 C1447 1.419 . S
C1449 C1450 1.362 1_554 S
C1450 H1442 0.930 . S
C1450 C1449 1.362 1_556 S
C1450 C1453 1.409 . S
C1451 H1443 0.930 . S
C1451 C1452 1.355 . S
C1451 C1453 1.415 1_565 S
C1452 C1451 1.355 . S
C1452 C1454 1.419 1_556 S
C1453 C1448 1.425 1_556 S
C1453 C1450 1.409 . S
C1453 C1451 1.415 1_545 S
C1454 H1444 0.930 . S
C1454 C1452 1.419 1_554 S
C1454 C1455 1.362 . S
C1455 H1445 0.930 . S
C1455 C1448 1.409 1_565 S
C1455 C1454 1.362 . S
H1456 C1462 0.930 . S
H1457 C1465 0.930 . S
H1458 C1466 0.930 . S
H1459 C1467 0.930 . S
H1460 C1470 0.930 . S
H1461 C1471 0.930 . S
C1462 H1456 0.930 . S
C1462 C1463 1.355 . S
C1462 C1464 1.415 1_456 S
C1463 C1462 1.355 . S
C1463 C1465 1.419 1_556 S
C1464 C1462 1.415 1_654 S
C1464 C1469 1.425 . S
C1464 C1471 1.409 1_554 S
C1465 H1457 0.930 . S
C1465 C1463 1.419 1_554 S
C1465 C1466 1.362 1_455 S
C1466 H1458 0.930 . S
C1466 C1465 1.362 1_655 S
C1466 C1469 1.409 . S
C1467 H1459 0.930 . S
C1467 C1468 1.355 . S
C1467 C1469 1.415 . S
C1468 C1467 1.355 . S
C1468 C1470 1.419 . S
C1469 C1464 1.425 . S
C1469 C1466 1.409 . S
C1469 C1467 1.415 . S
C1470 H1460 0.930 . S
C1470 C1468 1.419 . S
C1470 C1471 1.362 1_554 S
C1471 H1461 0.930 . S
C1471 C1464 1.409 1_556 S
C1471 C1470 1.362 1_556 S
H1472 C1478 0.930 . S
H1473 C1481 0.930 . S
H1474 C1482 0.930 . S
H1475 C1483 0.930 . S
H1476 C1486 0.930 1_556 S
H1477 C1487 0.930 . S
C1478 H1472 0.930 . S
C1478 C1479 1.355 . S
C1478 C1480 1.415 . S
C1479 C1478 1.355 . S
C1479 C1481 1.419 1_556 S
C1480 C1478 1.415 . S
C1480 C1485 1.425 1_556 S
C1480 C1487 1.409 . S
C1481 H1473 0.930 . S
C1481 C1479 1.419 1_554 S
C1481 C1482 1.362 . S
C1482 H1474 0.930 . S
C1482 C1481 1.362 . S
C1482 C1485 1.409 . S
C1483 H1475 0.930 . S
C1483 C1484 1.355 . S
C1483 C1485 1.415 . S
C1484 C1483 1.355 . S
C1484 C1486 1.419 . S
C1485 C1480 1.425 1_554 S
C1485 C1482 1.409 . S
C1485 C1483 1.415 . S
C1486 H1476 0.930 1_554 S
C1486 C1484 1.419 . S
C1486 C1487 1.362 1_554 S
C1487 H1477 0.930 . S
C1487 C1480 1.409 . S
C1487 C1486 1.362 1_556 S
H1488 C1494 0.930 . S
H1489 C1497 0.930 . S
H1490 C1498 0.930 . S
H1491 C1499 0.930 . S
H1492 C1502 0.930 . S
H1493 C1503 0.930 . S
C1494 H1488 0.930 . S
C1494 C1495 1.355 . S
C1494 C1496 1.415 1_655 S
C1495 C1494 1.355 . S
C1495 C1497 1.419 . S
C1496 C1494 1.415 1_455 S
C1496 C1501 1.425 . S
C1496 C1503 1.409 . S
C1497 H1489 0.930 . S
C1497 C1495 1.419 . S
C1497 C1498 1.362 . S
C1498 H1490 0.930 . S
C1498 C1497 1.362 . S
C1498 C1501 1.409 1_655 S
C1499 H1491 0.930 . S
C1499 C1500 1.355 . S
C1499 C1501 1.415 . S
C1500 C1499 1.355 . S
C1500 C1502 1.419 . S
C1501 C1496 1.425 . S
C1501 C1498 1.409 1_455 S
C1501 C1499 1.415 . S
C1502 H1492 0.930 . S
C1502 C1500 1.419 . S
C1502 C1503 1.362 . S
C1503 H1493 0.930 . S
C1503 C1496 1.409 . S
C1503 C1502 1.362 . S
H1504 C1510 0.930 . S
H1505 C1513 0.930 . S
H1506 C1514 0.930 . S
H1507 C1515 0.930 . S
H1508 C1518 0.930 . S
H1509 C1519 0.930 . S
C1510 H1504 0.930 . S
C1510 C1511 1.355 . S
C1510 C1512 1.415 . S
C1511 C1510 1.355 . S
C1511 C1513 1.419 . S
C1512 C1510 1.415 . S
C1512 C1517 1.425 . S
C1512 C1519 1.409 . S
C1513 H1505 0.930 . S
C1513 C1511 1.419 . S
C1513 C1514 1.362 . S
C1514 H1506 0.930 . S
C1514 C1513 1.362 . S
C1514 C1517 1.409 . S
C1515 H1507 0.930 . S
C1515 C1516 1.355 . S
C1515 C1517 1.415 . S
C1516 C1515 1.355 . S
C1516 C1518 1.419 . S
C1517 C1512 1.425 . S
C1517 C1514 1.409 . S
C1517 C1515 1.415 . S
C1518 H1508 0.930 . S
C1518 C1516 1.419 . S
C1518 C1519 1.362 . S
C1519 H1509 0.930 . S
C1519 C1512 1.409 . S
C1519 C1518 1.362 . S
H1520 C1526 0.930 . S
H1521 C1529 0.930 . S
H1522 C1530 0.930 . S
H1523 C1531 0.930 . S
H1524 C1534 0.930 . S
H1525 C1535 0.930 . S
C1526 H1520 0.930 . S
C1526 C1527 1.355 . S
C1526 C1528 1.415 . S
C1527 C1526 1.355 . S
C1527 C1529 1.419 . S
C1528 C1526 1.415 . S
C1528 C1533 1.425 . S
C1528 C1535 1.409 . S
C1529 H1521 0.930 . S
C1529 C1527 1.419 . S
C1529 C1530 1.362 . S
C1530 H1522 0.930 . S
C1530 C1529 1.362 . S
C1530 C1533 1.409 . S
C1531 H1523 0.930 . S
C1531 C1532 1.355 . S
C1531 C1533 1.415 1_545 S
C1532 C1531 1.355 . S
C1532 C1534 1.419 . S
C1533 C1528 1.425 . S
C1533 C1530 1.409 . S
C1533 C1531 1.415 1_565 S
C1534 H1524 0.930 . S
C1534 C1532 1.419 . S
C1534 C1535 1.362 1_545 S
C1535 H1525 0.930 . S
C1535 C1528 1.409 . S
C1535 C1534 1.362 1_565 S
H1536 C1542 0.930 . S
H1537 C1545 0.930 . S
H1538 C1546 0.930 . S
H1539 C1547 0.930 . S
H1540 C1550 0.930 1_554 S
H1541 C1551 0.930 . S
C1542 H1536 0.930 . S
C1542 C1543 1.355 . S
C1542 C1544 1.415 1_545 S
C1543 C1542 1.355 . S
C1543 C1545 1.419 1_554 S
C1544 C1542 1.415 1_565 S
C1544 C1549 1.425 1_554 S
C1544 C1551 1.409 . S
C1545 H1537 0.930 . S
C1545 C1543 1.419 1_556 S
C1545 C1546 1.362 . S
C1546 H1538 0.930 . S
C1546 C1545 1.362 . S
C1546 C1549 1.409 1_545 S
C1547 H1539 0.930 . S
C1547 C1548 1.355 . S
C1547 C1549 1.415 . S
C1548 C1547 1.355 . S
C1548 C1550 1.419 . S
C1549 C1544 1.425 1_556 S
C1549 C1546 1.409 1_565 S
C1549 C1547 1.415 . S
C1550 H1540 0.930 1_556 S
C1550 C1548 1.419 . S
C1550 C1551 1.362 1_556 S
C1551 H1541 0.930 . S
C1551 C1544 1.409 . S
C1551 C1550 1.362 1_554 S
H1552 C1558 0.930 . S
H1553 C1561 0.930 . S
H1554 C1562 0.930 . S
H1555 C1563 0.930 . S
H1556 C1566 0.930 . S
H1557 C1567 0.902 1_556 S
C1558 H1552 0.930 . S
C1558 C1559 1.355 . S
C1558 C1560 1.415 . S
C1559 C1558 1.355 . S
C1559 C1561 1.419 . S
C1560 C1558 1.415 . S
C1560 C1565 1.425 . S
C1560 C1567 1.410 1_456 S
C1561 H1553 0.930 . S
C1561 C1559 1.419 . S
C1561 C1562 1.362 . S
C1562 H1554 0.930 . S
C1562 C1561 1.362 . S
C1562 C1565 1.409 . S
C1563 H1555 0.930 . S
C1563 C1564 1.355 1_556 S
C1563 C1565 1.415 1_655 S
C1564 C1563 1.355 1_554 S
C1564 C1566 1.419 . S
C1565 C1560 1.425 . S
C1565 C1562 1.409 . S
C1565 C1563 1.415 1_455 S
C1566 H1556 0.930 . S
C1566 C1564 1.419 . S
C1566 C1567 1.361 . S
C1567 H1557 0.902 1_554 S
C1567 C1560 1.410 1_654 S
C1567 C1566 1.361 . S
H1568 C1574 0.930 . S
H1569 C1577 0.930 . S
H1570 C1578 0.930 . S
H1571 C1579 0.930 . S
H1572 C1582 0.930 . S
H1573 C1583 0.930 . S
C1574 H1568 0.930 . S
C1574 C1575 1.355 1_556 S
C1574 C1576 1.415 . S
C1575 C1574 1.355 1_554 S
C1575 C1577 1.419 . S
C1576 C1574 1.415 . S
C1576 C1581 1.425 . S
C1576 C1583 1.409 . S
C1577 H1569 0.930 . S
C1577 C1575 1.419 . S
C1577 C1578 1.362 . S
C1578 H1570 0.930 . S
C1578 C1577 1.362 . S
C1578 C1581 1.409 1_554 S
C1579 H1571 0.930 . S
C1579 C1580 1.355 . S
C1579 C1581 1.415 . S
C1580 C1579 1.355 . S
C1580 C1582 1.419 . S
C1581 C1576 1.425 . S
C1581 C1578 1.409 1_556 S
C1581 C1579 1.415 . S
C1582 H1572 0.930 . S
C1582 C1580 1.419 . S
C1582 C1583 1.362 . S
C1583 H1573 0.930 . S
C1583 C1576 1.409 . S
C1583 C1582 1.362 . S
H1584 C1590 0.923 . S
H1585 C1593 0.930 . S
H1586 C1594 0.930 . S
H1587 C1595 0.930 . S
H1588 C1598 0.930 . S
H1589 C1599 0.930 . S
C1590 H1584 0.923 . S
C1590 C1591 1.355 . S
C1590 C1592 1.415 1_455 S
C1591 C1590 1.355 . S
C1591 C1593 1.419 . S
C1592 C1590 1.415 1_655 S
C1592 C1597 1.425 . S
C1592 C1599 1.409 . S
C1593 H1585 0.930 . S
C1593 C1591 1.419 . S
C1593 C1594 1.362 . S
C1594 H1586 0.930 . S
C1594 C1593 1.362 . S
C1594 C1597 1.409 1_455 S
C1595 H1587 0.930 . S
C1595 C1596 1.355 . S
C1595 C1597 1.415 . S
C1596 C1595 1.355 . S
C1596 C1598 1.419 . S
C1597 C1592 1.425 . S
C1597 C1594 1.409 1_655 S
C1597 C1595 1.415 . S
C1598 H1588 0.930 . S
C1598 C1596 1.419 . S
C1598 C1599 1.362 . S
C1599 H1589 0.930 . S
C1599 C1592 1.409 . S
C1599 C1598 1.362 . S
H1600 C1606 0.930 . S
H1601 C1609 0.930 . S
H1602 C1610 0.930 . S
H1603 C1611 0.930 . S
H1604 C1614 0.930 . S
H1605 C1615 0.930 . S
C1606 H1600 0.930 . S
C1606 C1607 1.355 . S
C1606 C1608 1.415 . S
C1607 C1606 1.355 . S
C1607 C1609 1.419 . S
C1608 C1606 1.415 . S
C1608 C1613 1.425 . S
C1608 C1615 1.409 . S
C1609 H1601 0.930 . S
C1609 C1607 1.419 . S
C1609 C1610 1.362 . S
C1610 H1602 0.930 . S
C1610 C1609 1.362 . S
C1610 C1613 1.409 . S
C1611 H1603 0.930 . S
C1611 C1612 1.355 . S
C1611 C1613 1.415 . S
C1612 C1611 1.355 . S
C1612 C1614 1.419 . S
C1613 C1608 1.425 . S
C1613 C1610 1.409 . S
C1613 C1611 1.415 . S
C1614 H1604 0.930 . S
C1614 C1612 1.419 . S
C1614 C1615 1.362 . S
C1615 H1605 0.930 . S
C1615 C1608 1.409 . S
C1615 C1614 1.362 . S
H1616 C1622 0.930 . S
H1617 C1625 0.930 . S
H1618 C1626 0.930 . S
H1619 C1627 0.930 . S
H1620 C1630 0.930 . S
H1621 C1631 0.930 . S
C1622 H1616 0.930 . S
C1622 C1623 1.355 . S
C1622 C1624 1.415 . S
C1623 C1622 1.355 . S
C1623 C1625 1.419 . S
C1624 C1622 1.415 . S
C1624 C1629 1.425 . S
C1624 C1631 1.409 1_545 S
C1625 H1617 0.930 . S
C1625 C1623 1.419 . S
C1625 C1626 1.362 . S
C1626 H1618 0.930 . S
C1626 C1625 1.362 . S
C1626 C1629 1.409 . S
C1627 H1619 0.930 . S
C1627 C1628 1.355 . S
C1627 C1629 1.415 1_565 S
C1628 C1627 1.355 . S
C1628 C1630 1.419 . S
C1629 C1624 1.425 . S
C1629 C1626 1.409 . S
C1629 C1627 1.415 1_545 S
C1630 H1620 0.930 . S
C1630 C1628 1.419 . S
C1630 C1631 1.362 . S
C1631 H1621 0.930 . S
C1631 C1624 1.409 1_565 S
C1631 C1630 1.362 . S
H1632 C1638 0.930 . S
H1633 C1641 0.930 . S
H1634 C1642 0.930 . S
H1635 C1643 0.930 . S
H1636 C1646 0.930 . S
H1637 C1647 0.930 . S
C1638 H1632 0.930 . S
C1638 C1639 1.355 . S
C1638 C1640 1.415 . S
C1639 C1638 1.355 . S
C1639 C1641 1.419 . S
C1640 C1638 1.415 . S
C1640 C1645 1.425 . S
C1640 C1647 1.409 . S
C1641 H1633 0.930 . S
C1641 C1639 1.419 . S
C1641 C1642 1.362 . S
C1642 H1634 0.930 . S
C1642 C1641 1.362 . S
C1642 C1645 1.409 . S
C1643 H1635 0.930 . S
C1643 C1644 1.355 . S
C1643 C1645 1.415 . S
C1644 C1643 1.355 . S
C1644 C1646 1.419 . S
C1645 C1640 1.425 . S
C1645 C1642 1.409 . S
C1645 C1643 1.415 . S
C1646 H1636 0.930 . S
C1646 C1644 1.419 . S
C1646 C1647 1.362 . S
C1647 H1637 0.930 . S
C1647 C1640 1.409 . S
C1647 C1646 1.362 . S
H1648 C1654 0.930 . S
H1649 C1657 0.930 . S
H1650 C1658 0.930 . S
H1651 C1659 0.930 . S
H1652 C1662 0.930 . S
H1653 C1663 0.930 . S
C1654 H1648 0.930 . S
C1654 C1655 1.355 . S
C1654 C1656 1.415 . S
C1655 C1654 1.355 . S
C1655 C1657 1.419 . S
C1656 C1654 1.415 . S
C1656 C1661 1.425 . S
C1656 C1663 1.409 . S
C1657 H1649 0.930 . S
C1657 C1655 1.419 . S
C1657 C1658 1.362 . S
C1658 H1650 0.930 . S
C1658 C1657 1.362 . S
C1658 C1661 1.409 . S
C1659 H1651 0.930 . S
C1659 C1660 1.355 . S
C1659 C1661 1.415 . S
C1660 C1659 1.355 . S
C1660 C1662 1.419 . S
C1661 C1656 1.425 . S
C1661 C1658 1.409 . S
C1661 C1659 1.415 . S
C1662 H1652 0.930 . S
C1662 C1660 1.419 . S
C1662 C1663 1.362 . S
C1663 H1653 0.930 . S
C1663 C1656 1.409 . S
C1663 C1662 1.362 . S
H1664 C1670 0.930 . S
H1665 C1673 0.930 . S
H1666 C1674 0.930 . S
H1667 C1675 0.930 . S
H1668 C1678 0.930 . S
H1669 C1679 0.930 . S
C1670 H1664 0.930 . S
C1670 C1671 1.355 . S
C1670 C1672 1.415 . S
C1671 C1670 1.355 . S
C1671 C1673 1.419 . S
C1672 C1670 1.415 . S
C1672 C1677 1.425 . S
C1672 C1679 1.409 . S
C1673 H1665 0.930 . S
C1673 C1671 1.419 . S
C1673 C1674 1.362 . S
C1674 H1666 0.930 . S
C1674 C1673 1.362 . S
C1674 C1677 1.409 . S
C1675 H1667 0.930 . S
C1675 C1676 1.355 . S
C1675 C1677 1.415 . S
C1676 C1675 1.355 . S
C1676 C1678 1.419 . S
C1677 C1672 1.425 . S
C1677 C1674 1.409 . S
C1677 C1675 1.415 . S
C1678 H1668 0.930 . S
C1678 C1676 1.419 . S
C1678 C1679 1.362 . S
C1679 H1669 0.930 . S
C1679 C1672 1.409 . S
C1679 C1678 1.362 . S
H1680 C1686 0.930 . S
H1681 C1689 0.930 . S
H1682 C1690 0.930 . S
H1683 C1691 0.930 . S
H1684 C1694 0.930 . S
H1685 C1695 0.930 . S
C1686 H1680 0.930 . S
C1686 C1687 1.355 . S
C1686 C1688 1.415 . S
C1687 C1686 1.355 . S
C1687 C1689 1.419 . S
C1688 C1686 1.415 . S
C1688 C1693 1.425 . S
C1688 C1695 1.409 . S
C1689 H1681 0.930 . S
C1689 C1687 1.419 . S
C1689 C1690 1.362 . S
C1690 H1682 0.930 . S
C1690 C1689 1.362 . S
C1690 C1693 1.409 . S
C1691 H1683 0.930 . S
C1691 C1692 1.355 . S
C1691 C1693 1.415 . S
C1692 C1691 1.355 . S
C1692 C1694 1.419 . S
C1693 C1688 1.425 . S
C1693 C1690 1.409 . S
C1693 C1691 1.415 . S
C1694 H1684 0.930 . S
C1694 C1692 1.419 . S
C1694 C1695 1.362 . S
C1695 H1685 0.930 . S
C1695 C1688 1.409 . S
C1695 C1694 1.362 . S
H1696 C1702 0.930 . S
H1697 C1705 0.930 . S
H1698 C1706 0.930 . S
H1699 C1707 0.930 . S
H1700 C1710 0.930 . S
H1701 C1711 0.930 . S
C1702 H1696 0.930 . S
C1702 C1703 1.355 . S
C1702 C1704 1.415 . S
C1703 C1702 1.355 . S
C1703 C1705 1.419 . S
C1704 C1702 1.415 . S
C1704 C1709 1.425 . S
C1704 C1711 1.409 . S
C1705 H1697 0.930 . S
C1705 C1703 1.419 . S
C1705 C1706 1.362 . S
C1706 H1698 0.930 . S
C1706 C1705 1.362 . S
C1706 C1709 1.409 . S
C1707 H1699 0.930 . S
C1707 C1708 1.355 . S
C1707 C1709 1.415 . S
C1708 C1707 1.355 . S
C1708 C1710 1.419 . S
C1709 C1704 1.425 . S
C1709 C1706 1.409 . S
C1709 C1707 1.415 . S
C1710 H1700 0.930 . S
C1710 C1708 1.419 . S
C1710 C1711 1.362 . S
C1711 H1701 0.930 . S
C1711 C1704 1.409 . S
C1711 C1710 1.362 . S
H1712 C1718 0.930 . S
H1713 C1721 0.930 . S
H1714 C1722 0.930 . S
H1715 C1723 0.930 . S
H1716 C1726 0.930 . S
H1717 C1727 0.930 . S
C1718 H1712 0.930 . S
C1718 C1719 1.355 . S
C1718 C1720 1.415 . S
C1719 C1718 1.355 . S
C1719 C1721 1.419 . S
C1720 C1718 1.415 . S
C1720 C1725 1.425 . S
C1720 C1727 1.409 . S
C1721 H1713 0.930 . S
C1721 C1719 1.419 . S
C1721 C1722 1.362 . S
C1722 H1714 0.930 . S
C1722 C1721 1.362 . S
C1722 C1725 1.409 . S
C1723 H1715 0.930 . S
C1723 C1724 1.355 . S
C1723 C1725 1.415 . S
C1724 C1723 1.355 . S
C1724 C1726 1.419 . S
C1725 C1720 1.425 . S
C1725 C1722 1.409 . S
C1725 C1723 1.415 . S
C1726 H1716 0.930 . S
C1726 C1724 1.419 . S
C1726 C1727 1.362 . S
C1727 H1717 0.930 . S
C1727 C1720 1.409 . S
C1727 C1726 1.362 . S
H1728 C1734 0.930 . S
H1729 C1737 0.930 . S
H1730 C1738 0.930 . S
H1731 C1739 0.930 . S
H1732 C1742 0.930 . S
H1733 C1743 0.930 . S
C1734 H1728 0.930 . S
C1734 C1735 1.355 . S
C1734 C1736 1.415 . S
C1735 C1734 1.355 . S
C1735 C1737 1.419 . S
C1736 C1734 1.415 . S
C1736 C1741 1.425 . S
C1736 C1743 1.409 . S
C1737 H1729 0.930 . S
C1737 C1735 1.419 . S
C1737 C1738 1.362 . S
C1738 H1730 0.930 . S
C1738 C1737 1.362 . S
C1738 C1741 1.409 . S
C1739 H1731 0.930 . S
C1739 C1740 1.355 . S
C1739 C1741 1.415 . S
C1740 C1739 1.355 . S
C1740 C1742 1.419 . S
C1741 C1736 1.425 . S
C1741 C1738 1.409 . S
C1741 C1739 1.415 . S
C1742 H1732 0.930 . S
C1742 C1740 1.419 . S
C1742 C1743 1.362 . S
C1743 H1733 0.930 . S
C1743 C1736 1.409 . S
C1743 C1742 1.362 . S
H1744 C1750 0.930 . S
H1745 C1753 0.930 . S
H1746 C1754 0.930 . S
H1747 C1755 0.930 . S
H1748 C1758 0.930 . S
H1749 C1759 0.930 . S
C1750 H1744 0.930 . S
C1750 C1751 1.355 . S
C1750 C1752 1.415 . S
C1751 C1750 1.355 . S
C1751 C1753 1.419 . S
C1752 C1750 1.415 . S
C1752 C1757 1.425 . S
C1752 C1759 1.409 . S
C1753 H1745 0.930 . S
C1753 C1751 1.419 . S
C1753 C1754 1.362 . S
C1754 H1746 0.930 . S
C1754 C1753 1.362 . S
C1754 C1757 1.409 . S
C1755 H1747 0.930 . S
C1755 C1756 1.355 . S
C1755 C1757 1.415 . S
C1756 C1755 1.355 . S
C1756 C1758 1.419 . S
C1757 C1752 1.425 . S
C1757 C1754 1.409 . S
C1757 C1755 1.415 . S
C1758 H1748 0.930 . S
C1758 C1756 1.419 . S
C1758 C1759 1.362 . S
C1759 H1749 0.930 . S
C1759 C1752 1.409 . S
C1759 C1758 1.362 . S
H1760 C1766 0.930 . S
H1761 C1769 0.930 . S
H1762 C1770 0.930 . S
H1763 C1771 0.930 . S
H1764 C1774 0.930 . S
H1765 C1775 0.930 . S
C1766 H1760 0.930 . S
C1766 C1767 1.355 . S
C1766 C1768 1.415 . S
C1767 C1766 1.355 . S
C1767 C1769 1.419 . S
C1768 C1766 1.415 . S
C1768 C1773 1.425 . S
C1768 C1775 1.409 . S
C1769 H1761 0.930 . S
C1769 C1767 1.419 . S
C1769 C1770 1.362 . S
C1770 H1762 0.930 . S
C1770 C1769 1.362 . S
C1770 C1773 1.409 . S
C1771 H1763 0.930 . S
C1771 C1772 1.355 . S
C1771 C1773 1.415 . S
C1772 C1771 1.355 . S
C1772 C1774 1.419 . S
C1773 C1768 1.425 . S
C1773 C1770 1.409 . S
C1773 C1771 1.415 . S
C1774 H1764 0.930 . S
C1774 C1772 1.419 . S
C1774 C1775 1.362 . S
C1775 H1765 0.930 . S
C1775 C1768 1.409 . S
C1775 C1774 1.362 . S
H1776 C1782 0.930 . S
H1777 C1785 0.930 . S
H1778 C1786 0.930 . S
H1779 C1787 0.930 . S
H1780 C1790 0.930 . S
H1781 C1791 0.930 . S
C1782 H1776 0.930 . S
C1782 C1783 1.355 . S
C1782 C1784 1.415 . S
C1783 C1782 1.355 . S
C1783 C1785 1.419 . S
C1784 C1782 1.415 . S
C1784 C1789 1.425 . S
C1784 C1791 1.409 . S
C1785 H1777 0.930 . S
C1785 C1783 1.419 . S
C1785 C1786 1.362 . S
C1786 H1778 0.930 . S
C1786 C1785 1.362 . S
C1786 C1789 1.409 . S
C1787 H1779 0.930 . S
C1787 C1788 1.355 . S
C1787 C1789 1.415 . S
C1788 C1787 1.355 . S
C1788 C1790 1.419 . S
C1789 C1784 1.425 . S
C1789 C1786 1.409 . S
C1789 C1787 1.415 . S
C1790 H1780 0.930 . S
C1790 C1788 1.419 . S
C1790 C1791 1.362 . S
C1791 H1781 0.930 . S
C1791 C1784 1.409 . S
C1791 C1790 1.362 . S
H1792 C1798 0.930 . S
H1793 C1801 0.930 . S
H1794 C1802 0.930 . S
H1795 C1803 0.930 . S
H1796 C1806 0.930 . S
H1797 C1807 0.930 . S
C1798 H1792 0.930 . S
C1798 C1799 1.355 . S
C1798 C1800 1.415 . S
C1799 C1798 1.355 . S
C1799 C1801 1.419 . S
C1800 C1798 1.415 . S
C1800 C1805 1.425 . S
C1800 C1807 1.409 . S
C1801 H1793 0.930 . S
C1801 C1799 1.419 . S
C1801 C1802 1.362 . S
C1802 H1794 0.930 . S
C1802 C1801 1.362 . S
C1802 C1805 1.409 . S
C1803 H1795 0.930 . S
C1803 C1804 1.355 . S
C1803 C1805 1.415 . S
C1804 C1803 1.355 . S
C1804 C1806 1.419 . S
C1805 C1800 1.425 . S
C1805 C1802 1.409 . S
C1805 C1803 1.415 . S
C1806 H1796 0.930 . S
C1806 C1804 1.419 . S
C1806 C1807 1.362 . S
C1807 H1797 0.930 . S
C1807 C1800 1.409 . S
C1807 C1806 1.362 . S
H1808 C1814 0.930 . S
H1809 C1817 0.930 . S
H1810 C1818 0.930 . S
H1811 C1819 0.930 . S
H1812 C1822 0.930 . S
H1813 C1823 0.930 . S
C1814 H1808 0.930 . S
C1814 C1815 1.355 . S
C1814 C1816 1.415 . S
C1815 C1814 1.355 . S
C1815 C1817 1.419 . S
C1816 C1814 1.415 . S
C1816 C1821 1.425 . S
C1816 C1823 1.409 . S
C1817 H1809 0.930 . S
C1817 C1815 1.419 . S
C1817 C1818 1.362 . S
C1818 H1810 0.930 . S
C1818 C1817 1.362 . S
C1818 C1821 1.409 . S
C1819 H1811 0.930 . S
C1819 C1820 1.355 . S
C1819 C1821 1.415 . S
C1820 C1819 1.355 . S
C1820 C1822 1.419 . S
C1821 C1816 1.425 . S
C1821 C1818 1.409 . S
C1821 C1819 1.415 . S
C1822 H1812 0.930 . S
C1822 C1820 1.419 . S
C1822 C1823 1.362 . S
C1823 H1813 0.930 . S
C1823 C1816 1.409 . S
C1823 C1822 1.362 . S
H1824 C1830 0.930 . S
H1825 C1833 0.930 . S
H1826 C1834 0.930 . S
H1827 C1835 0.930 . S
H1828 C1838 0.930 . S
H1829 C1839 0.930 . S
C1830 H1824 0.930 . S
C1830 C1831 1.355 . S
C1830 C1832 1.415 . S
C1831 C1830 1.355 . S
C1831 C1833 1.419 . S
C1832 C1830 1.415 . S
C1832 C1837 1.425 . S
C1832 C1839 1.409 . S
C1833 H1825 0.930 . S
C1833 C1831 1.419 . S
C1833 C1834 1.362 . S
C1834 H1826 0.930 . S
C1834 C1833 1.362 . S
C1834 C1837 1.409 . S
C1835 H1827 0.930 . S
C1835 C1836 1.355 . S
C1835 C1837 1.415 . S
C1836 C1835 1.355 . S
C1836 C1838 1.419 . S
C1837 C1832 1.425 . S
C1837 C1834 1.409 . S
C1837 C1835 1.415 . S
C1838 H1828 0.930 . S
C1838 C1836 1.419 . S
C1838 C1839 1.362 . S
C1839 H1829 0.930 . S
C1839 C1832 1.409 . S
C1839 C1838 1.362 . S
H1840 C1846 0.930 . S
H1841 C1849 0.930 . S
H1842 C1850 0.930 . S
H1843 C1851 0.930 . S
H1844 C1854 0.930 . S
H1845 C1855 0.930 . S
C1846 H1840 0.930 . S
C1846 C1847 1.355 . S
C1846 C1848 1.415 . S
C1847 C1846 1.355 . S
C1847 C1849 1.419 . S
C1848 C1846 1.415 . S
C1848 C1853 1.425 . S
C1848 C1855 1.409 . S
C1849 H1841 0.930 . S
C1849 C1847 1.419 . S
C1849 C1850 1.362 . S
C1850 H1842 0.930 . S
C1850 C1849 1.362 . S
C1850 C1853 1.409 . S
C1851 H1843 0.930 . S
C1851 C1852 1.355 . S
C1851 C1853 1.415 . S
C1852 C1851 1.355 . S
C1852 C1854 1.419 . S
C1853 C1848 1.425 . S
C1853 C1850 1.409 . S
C1853 C1851 1.415 . S
C1854 H1844 0.930 . S
C1854 C1852 1.419 . S
C1854 C1855 1.362 . S
C1855 H1845 0.930 . S
C1855 C1848 1.409 . S
C1855 C1854 1.362 . S
H1856 C1862 0.930 . S
H1857 C1865 0.930 . S
H1858 C1866 0.930 . S
H1859 C1867 0.930 . S
H1860 C1870 0.930 . S
H1861 C1871 0.930 . S
C1862 H1856 0.930 . S
C1862 C1863 1.355 . S
C1862 C1864 1.415 . S
C1863 C1862 1.355 . S
C1863 C1865 1.419 . S
C1864 C1862 1.415 . S
C1864 C1869 1.425 . S
C1864 C1871 1.409 . S
C1865 H1857 0.930 . S
C1865 C1863 1.419 . S
C1865 C1866 1.362 . S
C1866 H1858 0.930 . S
C1866 C1865 1.362 . S
C1866 C1869 1.409 . S
C1867 H1859 0.930 . S
C1867 C1868 1.355 . S
C1867 C1869 1.415 . S
C1868 C1867 1.355 . S
C1868 C1870 1.419 . S
C1869 C1864 1.425 . S
C1869 C1866 1.409 . S
C1869 C1867 1.415 . S
C1870 H1860 0.930 . S
C1870 C1868 1.419 . S
C1870 C1871 1.362 . S
C1871 H1861 0.930 . S
C1871 C1864 1.409 . S
C1871 C1870 1.362 . S
H1872 C1878 0.930 . S
H1873 C1881 0.930 . S
H1874 C1882 0.930 . S
H1875 C1883 0.930 . S
H1876 C1886 0.930 . S
H1877 C1887 0.930 . S
C1878 H1872 0.930 . S
C1878 C1879 1.355 . S
C1878 C1880 1.415 . S
C1879 C1878 1.355 . S
C1879 C1881 1.419 . S
C1880 C1878 1.415 . S
C1880 C1885 1.425 . S
C1880 C1887 1.409 . S
C1881 H1873 0.930 . S
C1881 C1879 1.419 . S
C1881 C1882 1.362 . S
C1882 H1874 0.930 . S
C1882 C1881 1.362 . S
C1882 C1885 1.409 . S
C1883 H1875 0.930 . S
C1883 C1884 1.355 . S
C1883 C1885 1.415 . S
C1884 C1883 1.355 . S
C1884 C1886 1.419 . S
C1885 C1880 1.425 . S
C1885 C1882 1.409 . S
C1885 C1883 1.415 . S
C1886 H1876 0.930 . S
C1886 C1884 1.419 . S
C1886 C1887 1.362 . S
C1887 H1877 0.930 . S
C1887 C1880 1.409 . S
C1887 C1886 1.362 . S
H1888 C1894 0.930 . S
H1889 C1897 0.930 . S
H1890 C1898 0.930 . S
H1891 C1899 0.930 . S
H1892 C1902 0.930 . S
H1893 C1903 0.930 . S
C1894 H1888 0.930 . S
C1894 C1895 1.355 . S
C1894 C1896 1.415 . S
C1895 C1894 1.355 . S
C1895 C1897 1.419 . S
C1896 C1894 1.415 . S
C1896 C1901 1.425 . S
C1896 C1903 1.409 . S
C1897 H1889 0.930 . S
C1897 C1895 1.419 . S
C1897 C1898 1.362 . S
C1898 H1890 0.930 . S
C1898 C1897 1.362 . S
C1898 C1901 1.409 . S
C1899 H1891 0.930 . S
C1899 C1900 1.355 . S
C1899 C1901 1.415 . S
C1900 C1899 1.355 . S
C1900 C1902 1.419 . S
C1901 C1896 1.425 . S
C1901 C1898 1.409 . S
C1901 C1899 1.415 . S
C1902 H1892 0.930 . S
C1902 C1900 1.419 . S
C1902 C1903 1.362 . S
C1903 H1893 0.930 . S
C1903 C1896 1.409 . S
C1903 C1902 1.362 . S
H1904 C1910 0.930 . S
H1905 C1913 0.930 . S
H1906 C1914 0.930 . S
H1907 C1915 0.930 . S
H1908 C1918 0.930 . S
H1909 C1919 0.930 . S
C1910 H1904 0.930 . S
C1910 C1911 1.355 . S
C1910 C1912 1.415 . S
C1911 C1910 1.355 . S
C1911 C1913 1.419 . S
C1912 C1910 1.415 . S
C1912 C1917 1.425 . S
C1912 C1919 1.409 . S
C1913 H1905 0.930 . S
C1913 C1911 1.419 . S
C1913 C1914 1.362 . S
C1914 H1906 0.930 . S
C1914 C1913 1.362 . S
C1914 C1917 1.409 . S
C1915 H1907 0.930 . S
C1915 C1916 1.355 . S
C1915 C1917 1.415 . S
C1916 C1915 1.355 . S
C1916 C1918 1.419 . S
C1917 C1912 1.425 . S
C1917 C1914 1.409 . S
C1917 C1915 1.415 . S
C1918 H1908 0.930 . S
C1918 C1916 1.419 . S
C1918 C1919 1.362 . S
C1919 H1909 0.930 . S
C1919 C1912 1.409 . S
C1919 C1918 1.362 . S
H1920 C1926 0.930 . S
H1921 C1929 0.930 . S
H1922 C1930 0.930 . S
H1923 C1931 0.930 . S
H1924 C1934 0.930 . S
H1925 C1935 0.930 . S
C1926 H1920 0.930 . S
C1926 C1927 1.355 . S
C1926 C1928 1.415 . S
C1927 C1926 1.355 . S
C1927 C1929 1.419 . S
C1928 C1926 1.415 . S
C1928 C1933 1.425 . S
C1928 C1935 1.409 . S
C1929 H1921 0.930 . S
C1929 C1927 1.419 . S
C1929 C1930 1.362 . S
C1930 H1922 0.930 . S
C1930 C1929 1.362 . S
C1930 C1933 1.409 . S
C1931 H1923 0.930 . S
C1931 C1932 1.355 . S
C1931 C1933 1.415 . S
C1932 C1931 1.355 . S
C1932 C1934 1.419 . S
C1933 C1928 1.425 . S
C1933 C1930 1.409 . S
C1933 C1931 1.415 . S
C1934 H1924 0.930 . S
C1934 C1932 1.419 . S
C1934 C1935 1.362 . S
C1935 H1925 0.930 . S
C1935 C1928 1.409 . S
C1935 C1934 1.362 . S
H1936 C1942 0.930 . S
H1937 C1945 0.930 . S
H1938 C1946 0.930 . S
H1939 C1947 0.930 . S
H1940 C1950 0.930 . S
H1941 C1951 0.930 . S
C1942 H1936 0.930 . S
C1942 C1943 1.355 . S
C1942 C1944 1.415 . S
C1943 C1942 1.355 . S
C1943 C1945 1.419 . S
C1944 C1942 1.415 . S
C1944 C1949 1.425 . S
C1944 C1951 1.409 . S
C1945 H1937 0.930 . S
C1945 C1943 1.419 . S
C1945 C1946 1.362 . S
C1946 H1938 0.930 . S
C1946 C1945 1.362 . S
C1946 C1949 1.409 . S
C1947 H1939 0.930 . S
C1947 C1948 1.355 . S
C1947 C1949 1.415 . S
C1948 C1947 1.355 . S
C1948 C1950 1.419 . S
C1949 C1944 1.425 . S
C1949 C1946 1.409 . S
C1949 C1947 1.415 . S
C1950 H1940 0.930 . S
C1950 C1948 1.419 . S
C1950 C1951 1.362 . S
C1951 H1941 0.930 . S
C1951 C1944 1.409 . S
C1951 C1950 1.362 . S
H1952 C1958 0.930 . S
H1953 C1961 0.930 . S
H1954 C1962 0.930 . S
H1955 C1963 0.930 . S
H1956 C1966 0.930 . S
H1957 C1967 0.930 . S
C1958 H1952 0.930 . S
C1958 C1959 1.355 . S
C1958 C1960 1.415 . S
C1959 C1958 1.355 . S
C1959 C1961 1.419 . S
C1960 C1958 1.415 . S
C1960 C1965 1.425 . S
C1960 C1967 1.409 . S
C1961 H1953 0.930 . S
C1961 C1959 1.419 . S
C1961 C1962 1.362 . S
C1962 H1954 0.930 . S
C1962 C1961 1.362 . S
C1962 C1965 1.409 . S
C1963 H1955 0.930 . S
C1963 C1964 1.355 . S
C1963 C1965 1.415 . S
C1964 C1963 1.355 . S
C1964 C1966 1.419 . S
C1965 C1960 1.425 . S
C1965 C1962 1.409 . S
C1965 C1963 1.415 . S
C1966 H1956 0.930 . S
C1966 C1964 1.419 . S
C1966 C1967 1.362 . S
C1967 H1957 0.930 . S
C1967 C1960 1.409 . S
C1967 C1966 1.362 . S
H1968 C1974 0.930 . S
H1969 C1977 0.930 . S
H1970 C1978 0.930 . S
H1971 C1979 0.930 . S
H1972 C1982 0.930 . S
H1973 C1983 0.930 . S
C1974 H1968 0.930 . S
C1974 C1975 1.355 . S
C1974 C1976 1.415 . S
C1975 C1974 1.355 . S
C1975 C1977 1.419 . S
C1976 C1974 1.415 . S
C1976 C1981 1.425 . S
C1976 C1983 1.409 . S
C1977 H1969 0.930 . S
C1977 C1975 1.419 . S
C1977 C1978 1.362 . S
C1978 H1970 0.930 . S
C1978 C1977 1.362 . S
C1978 C1981 1.409 . S
C1979 H1971 0.930 . S
C1979 C1980 1.355 . S
C1979 C1981 1.415 . S
C1980 C1979 1.355 . S
C1980 C1982 1.419 . S
C1981 C1976 1.425 . S
C1981 C1978 1.409 . S
C1981 C1979 1.415 . S
C1982 H1972 0.930 . S
C1982 C1980 1.419 . S
C1982 C1983 1.362 . S
C1983 H1973 0.930 . S
C1983 C1976 1.409 . S
C1983 C1982 1.362 . S
H1984 C1990 0.930 . S
H1985 C1993 0.930 . S
H1986 C1994 0.930 . S
H1987 C1995 0.930 . S
H1988 C1998 0.930 . S
H1989 C1999 0.930 . S
C1990 H1984 0.930 . S
C1990 C1991 1.355 . S
C1990 C1992 1.415 . S
C1991 C1990 1.355 . S
C1991 C1993 1.419 . S
C1992 C1990 1.415 . S
C1992 C1997 1.425 . S
C1992 C1999 1.409 . S
C1993 H1985 0.930 . S
C1993 C1991 1.419 . S
C1993 C1994 1.362 . S
C1994 H1986 0.930 . S
C1994 C1993 1.362 . S
C1994 C1997 1.409 . S
C1995 H1987 0.930 . S
C1995 C1996 1.355 . S
C1995 C1997 1.415 . S
C1996 C1995 1.355 . S
C1996 C1998 1.419 . S
C1997 C1992 1.425 . S
C1997 C1994 1.409 . S
C1997 C1995 1.415 . S
C1998 H1988 0.930 . S
C1998 C1996 1.419 . S
C1998 C1999 1.362 . S
C1999 H1989 0.930 . S
C1999 C1992 1.409 . S
C1999 C1998 1.362 . S
H2000 C2006 0.930 . S
H2001 C2009 0.930 . S
H2002 C2010 0.930 . S
H2003 C2011 0.930 . S
H2004 C2014 0.930 . S
H2005 C2015 0.930 . S
C2006 H2000 0.930 . S
C2006 C2007 1.355 . S
C2006 C2008 1.415 . S
C2007 C2006 1.355 . S
C2007 C2009 1.419 . S
C2008 C2006 1.415 . S
C2008 C2013 1.425 . S
C2008 C2015 1.409 . S
C2009 H2001 0.930 . S
C2009 C2007 1.419 . S
C2009 C2010 1.362 . S
C2010 H2002 0.930 . S
C2010 C2009 1.362 . S
C2010 C2013 1.409 . S
C2011 H2003 0.930 . S
C2011 C2012 1.355 . S
C2011 C2013 1.415 . S
C2012 C2011 1.355 . S
C2012 C2014 1.419 . S
C2013 C2008 1.425 . S
C2013 C2010 1.409 . S
C2013 C2011 1.415 . S
C2014 H2004 0.930 . S
C2014 C2012 1.419 . S
C2014 C2015 1.362 . S
C2015 H2005 0.930 . S
C2015 C2008 1.409 . S
C2015 C2014 1.362 . S
H2016 C2022 0.930 . S
H2017 C2025 0.930 . S
H2018 C2026 0.930 . S
H2019 C2027 0.930 . S
H2020 C2030 0.930 . S
H2021 C2031 0.930 . S
C2022 H2016 0.930 . S
C2022 C2023 1.355 . S
C2022 C2024 1.415 . S
C2023 C2022 1.355 . S
C2023 C2025 1.419 . S
C2024 C2022 1.415 . S
C2024 C2029 1.425 . S
C2024 C2031 1.409 . S
C2025 H2017 0.930 . S
C2025 C2023 1.419 . S
C2025 C2026 1.362 . S
C2026 H2018 0.930 . S
C2026 C2025 1.362 . S
C2026 C2029 1.409 . S
C2027 H2019 0.930 . S
C2027 C2028 1.355 . S
C2027 C2029 1.415 . S
C2028 C2027 1.355 . S
C2028 C2030 1.419 . S
C2029 C2024 1.425 . S
C2029 C2026 1.409 . S
C2029 C2027 1.415 . S
C2030 H2020 0.930 . S
C2030 C2028 1.419 . S
C2030 C2031 1.362 . S
C2031 H2021 0.930 . S
C2031 C2024 1.409 . S
C2031 C2030 1.362 . S
H2032 C2038 0.930 . S
H2033 C2041 0.930 . S
H2034 C2042 0.930 . S
H2035 C2043 0.930 . S
H2036 C2046 0.930 . S
H2037 C2047 0.930 . S
C2038 H2032 0.930 . S
C2038 C2039 1.355 . S
C2038 C2040 1.415 . S
C2039 C2038 1.355 . S
C2039 C2041 1.419 . S
C2040 C2038 1.415 . S
C2040 C2045 1.425 . S
C2040 C2047 1.409 . S
C2041 H2033 0.930 . S
C2041 C2039 1.419 . S
C2041 C2042 1.362 . S
C2042 H2034 0.930 . S
C2042 C2041 1.362 . S
C2042 C2045 1.409 . S
C2043 H2035 0.930 . S
C2043 C2044 1.355 . S
C2043 C2045 1.415 . S
C2044 C2043 1.355 . S
C2044 C2046 1.419 . S
C2045 C2040 1.425 . S
C2045 C2042 1.409 . S
C2045 C2043 1.415 . S
C2046 H2036 0.930 . S
C2046 C2044 1.419 . S
C2046 C2047 1.362 . S
C2047 H2037 0.930 . S
C2047 C2040 1.409 . S
C2047 C2046 1.362 . S
H2048 C2054 0.930 . S
H2049 C2057 0.930 . S
H2050 C2058 0.930 . S
H2051 C2059 0.930 . S
H2052 C2062 0.930 . S
H2053 C2063 0.930 . S
C2054 H2048 0.930 . S
C2054 C2055 1.355 . S
C2054 C2056 1.415 . S
C2055 C2054 1.355 . S
C2055 C2057 1.419 . S
C2056 C2054 1.415 . S
C2056 C2061 1.425 . S
C2056 C2063 1.409 . S
C2057 H2049 0.930 . S
C2057 C2055 1.419 . S
C2057 C2058 1.362 . S
C2058 H2050 0.930 . S
C2058 C2057 1.362 . S
C2058 C2061 1.409 . S
C2059 H2051 0.930 . S
C2059 C2060 1.355 . S
C2059 C2061 1.415 . S
C2060 C2059 1.355 . S
C2060 C2062 1.419 . S
C2061 C2056 1.425 . S
C2061 C2058 1.409 . S
C2061 C2059 1.415 . S
C2062 H2052 0.930 . S
C2062 C2060 1.419 . S
C2062 C2063 1.362 . S
C2063 H2053 0.930 . S
C2063 C2056 1.409 . S
C2063 C2062 1.362 . S
H2064 C2070 0.930 . S
H2065 C2073 0.930 . S
H2066 C2074 0.930 . S
H2067 C2075 0.930 . S
H2068 C2078 0.930 . S
H2069 C2079 0.930 . S
C2070 H2064 0.930 . S
C2070 C2071 1.355 . S
C2070 C2072 1.415 . S
C2071 C2070 1.355 . S
C2071 C2073 1.419 . S
C2072 C2070 1.415 . S
C2072 C2077 1.425 . S
C2072 C2079 1.409 . S
C2073 H2065 0.930 . S
C2073 C2071 1.419 . S
C2073 C2074 1.362 . S
C2074 H2066 0.930 . S
C2074 C2073 1.362 . S
C2074 C2077 1.409 . S
C2075 H2067 0.930 . S
C2075 C2076 1.355 . S
C2075 C2077 1.415 . S
C2076 C2075 1.355 . S
C2076 C2078 1.419 . S
C2077 C2072 1.425 . S
C2077 C2074 1.409 . S
C2077 C2075 1.415 . S
C2078 H2068 0.930 . S
C2078 C2076 1.419 . S
C2078 C2079 1.362 . S
C2079 H2069 0.930 . S
C2079 C2072 1.409 . S
C2079 C2078 1.362 . S
H2080 C2086 0.930 . S
H2081 C2089 0.930 . S
H2082 C2090 0.930 . S
H2083 C2091 0.930 . S
H2084 C2094 0.930 . S
H2085 C2095 0.930 . S
C2086 H2080 0.930 . S
C2086 C2087 1.355 . S
C2086 C2088 1.415 . S
C2087 C2086 1.355 . S
C2087 C2089 1.419 . S
C2088 C2086 1.415 . S
C2088 C2093 1.425 . S
C2088 C2095 1.409 . S
C2089 H2081 0.930 . S
C2089 C2087 1.419 . S
C2089 C2090 1.362 . S
C2090 H2082 0.930 . S
C2090 C2089 1.362 . S
C2090 C2093 1.409 . S
C2091 H2083 0.930 . S
C2091 C2092 1.355 . S
C2091 C2093 1.415 . S
C2092 C2091 1.355 . S
C2092 C2094 1.419 . S
C2093 C2088 1.425 . S
C2093 C2090 1.409 . S
C2093 C2091 1.415 . S
C2094 H2084 0.930 . S
C2094 C2092 1.419 . S
C2094 C2095 1.362 . S
C2095 H2085 0.930 . S
C2095 C2088 1.409 . S
C2095 C2094 1.362 . S
H2096 C2102 0.930 . S
H2097 C2105 0.930 . S
H2098 C2106 0.930 . S
H2099 C2107 0.930 . S
H2100 C2110 0.930 . S
H2101 C2111 0.930 . S
C2102 H2096 0.930 . S
C2102 C2103 1.355 . S
C2102 C2104 1.415 . S
C2103 C2102 1.355 . S
C2103 C2105 1.419 . S
C2104 C2102 1.415 . S
C2104 C2109 1.425 . S
C2104 C2111 1.409 . S
C2105 H2097 0.930 . S
C2105 C2103 1.419 . S
C2105 C2106 1.362 . S
C2106 H2098 0.930 . S
C2106 C2105 1.362 . S
C2106 C2109 1.409 . S
C2107 H2099 0.930 . S
C2107 C2108 1.355 . S
C2107 C2109 1.415 . S
C2108 C2107 1.355 . S
C2108 C2110 1.419 . S
C2109 C2104 1.425 . S
C2109 C2106 1.409 . S
C2109 C2107 1.415 . S
C2110 H2100 0.930 . S
C2110 C2108 1.419 . S
C2110 C2111 1.362 . S
C2111 H2101 0.930 . S
C2111 C2104 1.409 . S
C2111 C2110 1.362 . S
H2112 C2118 0.930 . S
H2113 C2121 0.930 . S
H2114 C2122 0.930 . S
H2115 C2123 0.930 . S
H2116 C2126 0.930 . S
H2117 C2127 0.930 . S
C2118 H2112 0.930 . S
C2118 C2119 1.355 . S
C2118 C2120 1.415 . S
C2119 C2118 1.355 . S
C2119 C2121 1.419 . S
C2120 C2118 1.415 . S
C2120 C2125 1.425 . S
C2120 C2127 1.409 . S
C2121 H2113 0.930 . S
C2121 C2119 1.419 . S
C2121 C2122 1.362 . S
C2122 H2114 0.930 . S
C2122 C2121 1.362 . S
C2122 C2125 1.409 . S
C2123 H2115 0.930 . S
C2123 C2124 1.355 . S
C2123 C2125 1.415 . S
C2124 C2123 1.355 . S
C2124 C2126 1.419 . S
C2125 C2120 1.425 . S
C2125 C2122 1.409 . S
C2125 C2123 1.415 . S
C2126 H2116 0.930 . S
C2126 C2124 1.419 . S
C2126 C2127 1.362 . S
C2127 H2117 0.930 . S
C2127 C2120 1.409 . S
C2127 C2126 1.362 . S
H2128 C2134 0.930 . S
H2129 C2137 0.930 . S
H2130 C2138 0.930 . S
H2131 C2139 0.930 . S
H2132 C2142 0.930 . S
H2133 C2143 0.930 . S
C2134 H2128 0.930 . S
C2134 C2135 1.355 . S
C2134 C2136 1.415 . S
C2135 C2134 1.355 . S
C2135 C2137 1.419 . S
C2136 C2134 1.415 . S
C2136 C2141 1.425 . S
C2136 C2143 1.409 . S
C2137 H2129 0.930 . S
C2137 C2135 1.419 . S
C2137 C2138 1.362 . S
C2138 H2130 0.930 . S
C2138 C2137 1.362 . S
C2138 C2141 1.409 . S
C2139 H2131 0.930 . S
C2139 C2140 1.355 . S
C2139 C2141 1.415 . S
C2140 C2139 1.355 . S
C2140 C2142 1.419 . S
C2141 C2136 1.425 . S
C2141 C2138 1.409 . S
C2141 C2139 1.415 . S
C2142 H2132 0.930 . S
C2142 C2140 1.419 . S
C2142 C2143 1.362 . S
C2143 H2133 0.930 . S
C2143 C2136 1.409 . S
C2143 C2142 1.362 . S
H2144 C2150 0.930 . S
H2145 C2153 0.930 . S
H2146 C2154 0.930 . S
H2147 C2155 0.930 . S
H2148 C2158 0.930 . S
H2149 C2159 0.930 . S
C2150 H2144 0.930 . S
C2150 C2151 1.355 . S
C2150 C2152 1.415 . S
C2151 C2150 1.355 . S
C2151 C2153 1.419 . S
C2152 C2150 1.415 . S
C2152 C2157 1.425 . S
C2152 C2159 1.409 . S
C2153 H2145 0.930 . S
C2153 C2151 1.419 . S
C2153 C2154 1.362 . S
C2154 H2146 0.930 . S
C2154 C2153 1.362 . S
C2154 C2157 1.409 . S
C2155 H2147 0.930 . S
C2155 C2156 1.355 . S
C2155 C2157 1.415 . S
C2156 C2155 1.355 . S
C2156 C2158 1.419 . S
C2157 C2152 1.425 . S
C2157 C2154 1.409 . S
C2157 C2155 1.415 . S
C2158 H2148 0.930 . S
C2158 C2156 1.419 . S
C2158 C2159 1.362 . S
C2159 H2149 0.930 . S
C2159 C2152 1.409 . S
C2159 C2158 1.362 . S
H2160 C2166 0.930 . S
H2161 C2169 0.930 . S
H2162 C2170 0.930 . S
H2163 C2171 0.930 . S
H2164 C2174 0.930 . S
H2165 C2175 0.930 . S
C2166 H2160 0.930 . S
C2166 C2167 1.355 . S
C2166 C2168 1.415 . S
C2167 C2166 1.355 . S
C2167 C2169 1.419 . S
C2168 C2166 1.415 . S
C2168 C2173 1.425 . S
C2168 C2175 1.409 . S
C2169 H2161 0.930 . S
C2169 C2167 1.419 . S
C2169 C2170 1.362 . S
C2170 H2162 0.930 . S
C2170 C2169 1.362 . S
C2170 C2173 1.409 . S
C2171 H2163 0.930 . S
C2171 C2172 1.355 . S
C2171 C2173 1.415 . S
C2172 C2171 1.355 . S
C2172 C2174 1.419 . S
C2173 C2168 1.425 . S
C2173 C2170 1.409 . S
C2173 C2171 1.415 . S
C2174 H2164 0.930 . S
C2174 C2172 1.419 . S
C2174 C2175 1.362 . S
C2175 H2165 0.930 . S
C2175 C2168 1.409 . S
C2175 C2174 1.362 . S
H2176 C2182 0.930 . S
H2177 C2185 0.930 . S
H2178 C2186 0.930 . S
H2179 C2187 0.930 . S
H2180 C2190 0.930 . S
H2181 C2191 0.930 . S
C2182 H2176 0.930 . S
C2182 C2183 1.355 . S
C2182 C2184 1.415 . S
C2183 C2182 1.355 . S
C2183 C2185 1.419 . S
C2184 C2182 1.415 . S
C2184 C2189 1.425 . S
C2184 C2191 1.409 . S
C2185 H2177 0.930 . S
C2185 C2183 1.419 . S
C2185 C2186 1.362 . S
C2186 H2178 0.930 . S
C2186 C2185 1.362 . S
C2186 C2189 1.409 . S
C2187 H2179 0.930 . S
C2187 C2188 1.355 . S
C2187 C2189 1.415 . S
C2188 C2187 1.355 . S
C2188 C2190 1.419 . S
C2189 C2184 1.425 . S
C2189 C2186 1.409 . S
C2189 C2187 1.415 . S
C2190 H2180 0.930 . S
C2190 C2188 1.419 . S
C2190 C2191 1.362 . S
C2191 H2181 0.930 . S
C2191 C2184 1.409 . S
C2191 C2190 1.362 . S
H2192 C2198 0.930 . S
H2193 C2201 0.930 . S
H2194 C2202 0.930 . S
H2195 C2203 0.930 . S
H2196 C2206 0.930 . S
H2197 C2207 0.930 . S
C2198 H2192 0.930 . S
C2198 C2199 1.355 . S
C2198 C2200 1.415 . S
C2199 C2198 1.355 . S
C2199 C2201 1.419 . S
C2200 C2198 1.415 . S
C2200 C2205 1.425 . S
C2200 C2207 1.409 . S
C2201 H2193 0.930 . S
C2201 C2199 1.419 . S
C2201 C2202 1.362 . S
C2202 H2194 0.930 . S
C2202 C2201 1.362 . S
C2202 C2205 1.409 . S
C2203 H2195 0.930 . S
C2203 C2204 1.355 . S
C2203 C2205 1.415 . S
C2204 C2203 1.355 . S
C2204 C2206 1.419 . S
C2205 C2200 1.425 . S
C2205 C2202 1.409 . S
C2205 C2203 1.415 . S
C2206 H2196 0.930 . S
C2206 C2204 1.419 . S
C2206 C2207 1.362 . S
C2207 H2197 0.930 . S
C2207 C2200 1.409 . S
C2207 C2206 1.362 . S
H2208 C2214 0.930 . S
H2209 C2217 0.930 . S
H2210 C2218 0.930 . S
H2211 C2219 0.930 . S
H2212 C2222 0.930 . S
H2213 C2223 0.930 . S
C2214 H2208 0.930 . S
C2214 C2215 1.355 . S
C2214 C2216 1.415 . S
C2215 C2214 1.355 . S
C2215 C2217 1.419 . S
C2216 C2214 1.415 . S
C2216 C2221 1.425 1_655 S
C2216 C2223 1.409 . S
C2217 H2209 0.930 . S
C2217 C2215 1.419 . S
C2217 C2218 1.362 1_655 S
C2218 H2210 0.930 . S
C2218 C2217 1.362 1_455 S
C2218 C2221 1.409 . S
C2219 H2211 0.930 . S
C2219 C2220 1.355 . S
C2219 C2221 1.415 . S
C2220 C2219 1.355 . S
C2220 C2222 1.419 . S
C2221 C2216 1.425 1_455 S
C2221 C2218 1.409 . S
C2221 C2219 1.415 . S
C2222 H2212 0.930 . S
C2222 C2220 1.419 . S
C2222 C2223 1.362 1_455 S
C2223 H2213 0.930 . S
C2223 C2216 1.409 . S
C2223 C2222 1.362 1_655 S
H2224 C2230 0.930 . S
H2225 C2233 0.930 . S
H2226 C2234 0.930 . S
H2227 C2235 0.930 . S
H2228 C2238 0.930 . S
H2229 C2239 0.930 . S
C2230 H2224 0.930 . S
C2230 C2231 1.355 . S
C2230 C2232 1.415 . S
C2231 C2230 1.355 . S
C2231 C2233 1.419 . S
C2232 C2230 1.415 . S
C2232 C2237 1.425 . S
C2232 C2239 1.409 . S
C2233 H2225 0.930 . S
C2233 C2231 1.419 . S
C2233 C2234 1.362 . S
C2234 H2226 0.930 . S
C2234 C2233 1.362 . S
C2234 C2237 1.409 . S
C2235 H2227 0.930 . S
C2235 C2236 1.355 . S
C2235 C2237 1.415 . S
C2236 C2235 1.355 . S
C2236 C2238 1.419 . S
C2237 C2232 1.425 . S
C2237 C2234 1.409 . S
C2237 C2235 1.415 . S
C2238 H2228 0.930 . S
C2238 C2236 1.419 . S
C2238 C2239 1.362 . S
C2239 H2229 0.930 . S
C2239 C2232 1.409 . S
C2239 C2238 1.362 . S
H2240 C2246 0.930 . S
H2241 C2249 0.930 . S
H2242 C2250 0.930 . S
H2243 C2251 0.930 . S
H2244 C2254 0.930 . S
H2245 C2255 0.930 . S
C2246 H2240 0.930 . S
C2246 C2247 1.355 . S
C2246 C2248 1.404 1_545 S
C2247 C2246 1.355 . S
C2247 C2249 1.419 . S
C2248 C2246 1.404 1_565 S
C2248 C2253 1.399 1_565 S
C2248 C2255 1.433 . S
C2249 H2241 0.930 . S
C2249 C2247 1.419 . S
C2249 C2250 1.362 . S
C2250 H2242 0.930 . S
C2250 C2249 1.362 . S
C2250 C2253 1.433 . S
C2251 H2243 0.930 . S
C2251 C2252 1.355 . S
C2251 C2253 1.404 1_565 S
C2252 C2251 1.355 . S
C2252 C2254 1.419 . S
C2253 C2248 1.399 1_545 S
C2253 C2250 1.433 . S
C2253 C2251 1.404 1_545 S
C2254 H2244 0.930 . S
C2254 C2252 1.419 . S
C2254 C2255 1.362 . S
C2255 H2245 0.930 . S
C2255 C2248 1.433 . S
C2255 C2254 1.362 . S
H2256 C2262 0.930 . S
H2257 C2265 0.930 . S
H2258 C2266 0.930 . S
H2259 C2267 0.930 . S
H2260 C2270 0.930 . S
H2261 C2271 0.930 . S
C2262 H2256 0.930 . S
C2262 C2263 1.355 . S
C2262 C2264 1.415 . S
C2263 C2262 1.355 . S
C2263 C2265 1.419 1_554 S
C2264 C2262 1.415 . S
C2264 C2269 1.425 1_564 S
C2264 C2271 1.409 1_565 S
C2265 H2257 0.930 . S
C2265 C2263 1.419 1_556 S
C2265 C2266 1.362 . S
C2266 H2258 0.930 . S
C2266 C2265 1.362 . S
C2266 C2269 1.409 1_565 S
C2267 H2259 0.930 . S
C2267 C2268 1.355 . S
C2267 C2269 1.415 . S
C2268 C2267 1.355 . S
C2268 C2270 1.419 1_556 S
C2269 C2264 1.425 1_546 S
C2269 C2266 1.409 1_545 S
C2269 C2267 1.415 . S
C2270 H2260 0.930 . S
C2270 C2268 1.419 1_554 S
C2270 C2271 1.362 . S
C2271 H2261 0.930 . S
C2271 C2264 1.409 1_545 S
C2271 C2270 1.362 . S
H2272 C2278 0.929 1_554 S
H2273 C2281 0.930 . S
H2274 C2282 0.930 . S
H2275 C2283 0.929 1_556 S
H2276 C2286 0.930 . S
H2277 C2287 0.930 . S
C2278 H2272 0.929 1_556 S
C2278 C2279 1.355 . S
C2278 C2280 1.410 1_656 S
C2279 C2278 1.355 . S
C2279 C2281 1.419 . S
C2280 C2278 1.410 1_454 S
C2280 C2285 1.415 1_454 S
C2280 C2287 1.419 . S
C2281 H2273 0.930 . S
C2281 C2279 1.419 . S
C2281 C2282 1.362 . S
C2282 H2274 0.930 . S
C2282 C2281 1.362 . S
C2282 C2285 1.419 . S
C2283 H2275 0.929 1_554 S
C2283 C2284 1.355 . S
C2283 C2285 1.410 1_454 S
C2284 C2283 1.355 . S
C2284 C2286 1.419 . S
C2285 C2280 1.415 1_656 S
C2285 C2282 1.419 . S
C2285 C2283 1.410 1_656 S
C2286 H2276 0.930 . S
C2286 C2284 1.419 . S
C2286 C2287 1.362 . S
C2287 H2277 0.930 . S
C2287 C2280 1.419 . S
C2287 C2286 1.362 . S
H2288 C2294 0.930 . S
H2289 C2297 0.930 . S
H2290 C2298 0.930 . S
H2291 C2299 0.930 . S
H2292 C2302 0.930 . S
H2293 C2303 0.930 . S
C2294 H2288 0.930 . S
C2294 C2295 1.355 1_556 S
C2294 C2296 1.415 . S
C2295 C2294 1.355 1_554 S
C2295 C2297 1.419 . S
C2296 C2294 1.415 . S
C2296 C2301 1.425 1_556 S
C2296 C2303 1.409 . S
C2297 H2289 0.930 . S
C2297 C2295 1.419 . S
C2297 C2298 1.362 . S
C2298 H2290 0.930 . S
C2298 C2297 1.362 . S
C2298 C2301 1.409 . S
C2299 H2291 0.930 . S
C2299 C2300 1.355 1_554 S
C2299 C2301 1.415 . S
C2300 C2299 1.355 1_556 S
C2300 C2302 1.419 . S
C2301 C2296 1.425 1_554 S
C2301 C2298 1.409 . S
C2301 C2299 1.415 . S
C2302 H2292 0.930 . S
C2302 C2300 1.419 . S
C2302 C2303 1.362 . S
C2303 H2293 0.930 . S
C2303 C2296 1.409 . S
C2303 C2302 1.362 . S
H2304 C2310 0.930 . S
H2305 C2313 0.930 1_554 S
H2306 C2314 0.922 1_554 S
H2307 C2315 0.930 . S
H2308 C2318 0.930 . S
H2309 C2319 0.930 . S
C2310 H2304 0.930 . S
C2310 C2311 1.355 . S
C2310 C2312 1.415 . S
C2311 C2310 1.355 . S
C2311 C2313 1.419 . S
C2312 C2310 1.415 . S
C2312 C2317 1.425 . S
C2312 C2319 1.409 . S
C2313 H2305 0.930 1_556 S
C2313 C2311 1.419 . S
C2313 C2314 1.362 . S
C2314 H2306 0.922 1_556 S
C2314 C2313 1.362 . S
C2314 C2317 1.409 . S
C2315 H2307 0.930 . S
C2315 C2316 1.355 . S
C2315 C2317 1.415 . S
C2316 C2315 1.355 . S
C2316 C2318 1.419 . S
C2317 C2312 1.425 . S
C2317 C2314 1.409 . S
C2317 C2315 1.415 . S
C2318 H2308 0.930 . S
C2318 C2316 1.419 . S
C2318 C2319 1.362 . S
C2319 H2309 0.930 . S
C2319 C2312 1.409 . S
C2319 C2318 1.362 . S
H2320 C2326 0.930 . S
H2321 C2329 0.930 1_554 S
H2322 C2330 0.930 . S
H2323 C2331 0.930 . S
H2324 C2334 0.930 . S
H2325 C2335 0.930 . S
C2326 H2320 0.930 . S
C2326 C2327 1.355 . S
C2326 C2328 1.415 . S
C2327 C2326 1.355 . S
C2327 C2329 1.419 . S
C2328 C2326 1.415 . S
C2328 C2333 1.425 . S
C2328 C2335 1.409 . S
C2329 H2321 0.930 1_556 S
C2329 C2327 1.419 . S
C2329 C2330 1.362 . S
C2330 H2322 0.930 . S
C2330 C2329 1.362 . S
C2330 C2333 1.409 . S
C2331 H2323 0.930 . S
C2331 C2332 1.355 . S
C2331 C2333 1.415 . S
C2332 C2331 1.355 . S
C2332 C2334 1.419 . S
C2333 C2328 1.425 . S
C2333 C2330 1.409 . S
C2333 C2331 1.415 . S
C2334 H2324 0.930 . S
C2334 C2332 1.419 . S
C2334 C2335 1.362 . S
C2335 H2325 0.930 . S
C2335 C2328 1.409 . S
C2335 C2334 1.362 . S
H2336 C2342 0.930 . S
H2337 C2345 0.930 . S
H2338 C2346 0.930 . S
H2339 C2347 0.930 . S
H2340 C2350 0.930 . S
H2341 C2351 0.930 . S
C2342 H2336 0.930 . S
C2342 C2343 1.355 . S
C2342 C2344 1.415 . S
C2343 C2342 1.355 . S
C2343 C2345 1.419 . S
C2344 C2342 1.415 . S
C2344 C2349 1.425 . S
C2344 C2351 1.409 . S
C2345 H2337 0.930 . S
C2345 C2343 1.419 . S
C2345 C2346 1.362 . S
C2346 H2338 0.930 . S
C2346 C2345 1.362 . S
C2346 C2349 1.409 . S
C2347 H2339 0.930 . S
C2347 C2348 1.355 . S
C2347 C2349 1.415 . S
C2348 C2347 1.355 . S
C2348 C2350 1.419 . S
C2349 C2344 1.425 . S
C2349 C2346 1.409 . S
C2349 C2347 1.415 . S
C2350 H2340 0.930 . S
C2350 C2348 1.419 . S
C2350 C2351 1.362 . S
C2351 H2341 0.930 . S
C2351 C2344 1.409 . S
C2351 C2350 1.362 . S
H2352 C2358 0.930 . S
H2353 C2361 0.930 . S
H2354 C2362 0.930 . S
H2355 C2363 0.930 . S
H2356 C2366 0.930 . S
H2357 C2367 0.930 . S
C2358 H2352 0.930 . S
C2358 C2359 1.355 . S
C2358 C2360 1.415 . S
C2359 C2358 1.355 . S
C2359 C2361 1.419 . S
C2360 C2358 1.415 . S
C2360 C2365 1.425 . S
C2360 C2367 1.409 . S
C2361 H2353 0.930 . S
C2361 C2359 1.419 . S
C2361 C2362 1.362 . S
C2362 H2354 0.930 . S
C2362 C2361 1.362 . S
C2362 C2365 1.409 . S
C2363 H2355 0.930 . S
C2363 C2364 1.355 . S
C2363 C2365 1.415 . S
C2364 C2363 1.355 . S
C2364 C2366 1.419 . S
C2365 C2360 1.425 . S
C2365 C2362 1.409 . S
C2365 C2363 1.415 . S
C2366 H2356 0.930 . S
C2366 C2364 1.419 . S
C2366 C2367 1.362 . S
C2367 H2357 0.930 . S
C2367 C2360 1.409 . S
C2367 C2366 1.362 . S
H2368 C2374 0.930 . S
H2369 C2377 0.930 . S
H2370 C2378 0.930 . S
H2371 C2379 0.930 . S
H2372 C2382 0.930 . S
H2373 C2383 0.930 . S
C2374 H2368 0.930 . S
C2374 C2375 1.355 . S
C2374 C2376 1.415 . S
C2375 C2374 1.355 . S
C2375 C2377 1.419 . S
C2376 C2374 1.415 . S
C2376 C2381 1.425 . S
C2376 C2383 1.409 . S
C2377 H2369 0.930 . S
C2377 C2375 1.419 . S
C2377 C2378 1.362 . S
C2378 H2370 0.930 . S
C2378 C2377 1.362 . S
C2378 C2381 1.409 . S
C2379 H2371 0.930 . S
C2379 C2380 1.355 . S
C2379 C2381 1.415 . S
C2380 C2379 1.355 . S
C2380 C2382 1.419 . S
C2381 C2376 1.425 . S
C2381 C2378 1.409 . S
C2381 C2379 1.415 . S
C2382 H2372 0.930 . S
C2382 C2380 1.419 . S
C2382 C2383 1.362 . S
C2383 H2373 0.930 . S
C2383 C2376 1.409 . S
C2383 C2382 1.362 . S
H2384 C2390 0.930 . S
H2385 C2393 0.930 . S
H2386 C2394 0.930 . S
H2387 C2395 0.930 . S
H2388 C2398 0.930 . S
H2389 C2399 0.930 . S
C2390 H2384 0.930 . S
C2390 C2391 1.355 . S
C2390 C2392 1.415 . S
C2391 C2390 1.355 . S
C2391 C2393 1.419 . S
C2392 C2390 1.415 . S
C2392 C2397 1.425 . S
C2392 C2399 1.409 . S
C2393 H2385 0.930 . S
C2393 C2391 1.419 . S
C2393 C2394 1.362 . S
C2394 H2386 0.930 . S
C2394 C2393 1.362 . S
C2394 C2397 1.409 . S
C2395 H2387 0.930 . S
C2395 C2396 1.355 . S
C2395 C2397 1.415 . S
C2396 C2395 1.355 . S
C2396 C2398 1.419 . S
C2397 C2392 1.425 . S
C2397 C2394 1.409 . S
C2397 C2395 1.415 . S
C2398 H2388 0.930 . S
C2398 C2396 1.419 . S
C2398 C2399 1.362 . S
C2399 H2389 0.930 . S
C2399 C2392 1.409 . S
C2399 C2398 1.362 . S
H2400 C2406 0.930 . S
H2401 C2409 0.930 . S
H2402 C2410 0.930 . S
H2403 C2411 0.930 . S
H2404 C2414 0.930 . S
H2405 C2415 0.930 . S
C2406 H2400 0.930 . S
C2406 C2407 1.355 . S
C2406 C2408 1.415 . S
C2407 C2406 1.355 . S
C2407 C2409 1.419 . S
C2408 C2406 1.415 . S
C2408 C2413 1.425 . S
C2408 C2415 1.409 . S
C2409 H2401 0.930 . S
C2409 C2407 1.419 . S
C2409 C2410 1.362 . S
C2410 H2402 0.930 . S
C2410 C2409 1.362 . S
C2410 C2413 1.409 . S
C2411 H2403 0.930 . S
C2411 C2412 1.355 . S
C2411 C2413 1.415 . S
C2412 C2411 1.355 . S
C2412 C2414 1.419 . S
C2413 C2408 1.425 . S
C2413 C2410 1.409 . S
C2413 C2411 1.415 . S
C2414 H2404 0.930 . S
C2414 C2412 1.419 . S
C2414 C2415 1.362 . S
C2415 H2405 0.930 . S
C2415 C2408 1.409 . S
C2415 C2414 1.362 . S
H2416 C2422 0.930 . S
H2417 C2425 0.930 . S
H2418 C2426 0.930 . S
H2419 C2427 0.930 . S
H2420 C2430 0.930 . S
H2421 C2431 0.930 . S
C2422 H2416 0.930 . S
C2422 C2423 1.355 . S
C2422 C2424 1.415 . S
C2423 C2422 1.355 . S
C2423 C2425 1.419 . S
C2424 C2422 1.415 . S
C2424 C2429 1.425 . S
C2424 C2431 1.409 . S
C2425 H2417 0.930 . S
C2425 C2423 1.419 . S
C2425 C2426 1.362 . S
C2426 H2418 0.930 . S
C2426 C2425 1.362 . S
C2426 C2429 1.409 . S
C2427 H2419 0.930 . S
C2427 C2428 1.355 . S
C2427 C2429 1.415 . S
C2428 C2427 1.355 . S
C2428 C2430 1.419 . S
C2429 C2424 1.425 . S
C2429 C2426 1.409 . S
C2429 C2427 1.415 . S
C2430 H2420 0.930 . S
C2430 C2428 1.419 . S
C2430 C2431 1.362 . S
C2431 H2421 0.930 . S
C2431 C2424 1.409 . S
C2431 C2430 1.362 . S
H2432 C2438 0.930 . S
H2433 C2441 0.930 . S
H2434 C2442 0.930 . S
H2435 C2443 0.930 . S
H2436 C2446 0.930 . S
H2437 C2447 0.930 . S
C2438 H2432 0.930 . S
C2438 C2439 1.355 . S
C2438 C2440 1.415 . S
C2439 C2438 1.355 . S
C2439 C2441 1.419 . S
C2440 C2438 1.415 . S
C2440 C2445 1.425 . S
C2440 C2447 1.409 . S
C2441 H2433 0.930 . S
C2441 C2439 1.419 . S
C2441 C2442 1.362 . S
C2442 H2434 0.930 . S
C2442 C2441 1.362 . S
C2442 C2445 1.409 . S
C2443 H2435 0.930 . S
C2443 C2444 1.355 . S
C2443 C2445 1.415 . S
C2444 C2443 1.355 . S
C2444 C2446 1.419 . S
C2445 C2440 1.425 . S
C2445 C2442 1.409 . S
C2445 C2443 1.415 . S
C2446 H2436 0.930 . S
C2446 C2444 1.419 . S
C2446 C2447 1.362 . S
C2447 H2437 0.930 . S
C2447 C2440 1.409 . S
C2447 C2446 1.362 . S
H2448 C2454 0.930 . S
H2449 C2457 0.930 . S
H2450 C2458 0.930 . S
H2451 C2459 0.930 . S
H2452 C2462 0.930 . S
H2453 C2463 0.930 . S
C2454 H2448 0.930 . S
C2454 C2455 1.355 . S
C2454 C2456 1.415 . S
C2455 C2454 1.355 . S
C2455 C2457 1.419 . S
C2456 C2454 1.415 . S
C2456 C2461 1.425 . S
C2456 C2463 1.409 . S
C2457 H2449 0.930 . S
C2457 C2455 1.419 . S
C2457 C2458 1.362 . S
C2458 H2450 0.930 . S
C2458 C2457 1.362 . S
C2458 C2461 1.409 . S
C2459 H2451 0.930 . S
C2459 C2460 1.355 . S
C2459 C2461 1.415 . S
C2460 C2459 1.355 . S
C2460 C2462 1.419 . S
C2461 C2456 1.425 . S
C2461 C2458 1.409 . S
C2461 C2459 1.415 . S
C2462 H2452 0.930 . S
C2462 C2460 1.419 . S
C2462 C2463 1.362 . S
C2463 H2453 0.930 . S
C2463 C2456 1.409 . S
C2463 C2462 1.362 . S
H2464 C2470 0.930 . S
H2465 C2473 0.930 . S
H2466 C2474 0.930 . S
H2467 C2475 0.930 . S
H2468 C2478 0.930 . S
H2469 C2479 0.930 . S
C2470 H2464 0.930 . S
C2470 C2471 1.355 . S
C2470 C2472 1.415 . S
C2471 C2470 1.355 . S
C2471 C2473 1.419 . S
C2472 C2470 1.415 . S
C2472 C2477 1.425 . S
C2472 C2479 1.409 . S
C2473 H2465 0.930 . S
C2473 C2471 1.419 . S
C2473 C2474 1.362 . S
C2474 H2466 0.930 . S
C2474 C2473 1.362 . S
C2474 C2477 1.409 . S
C2475 H2467 0.930 . S
C2475 C2476 1.355 . S
C2475 C2477 1.415 . S
C2476 C2475 1.355 . S
C2476 C2478 1.419 . S
C2477 C2472 1.425 . S
C2477 C2474 1.409 . S
C2477 C2475 1.415 . S
C2478 H2468 0.930 . S
C2478 C2476 1.419 . S
C2478 C2479 1.362 . S
C2479 H2469 0.930 . S
C2479 C2472 1.409 . S
C2479 C2478 1.362 . S
H2480 C2486 0.930 . S
H2481 C2489 0.930 . S
H2482 C2490 0.930 . S
H2483 C2491 0.930 . S
H2484 C2494 0.930 . S
H2485 C2495 0.930 . S
C2486 H2480 0.930 . S
C2486 C2487 1.355 . S
C2486 C2488 1.415 . S
C2487 C2486 1.355 . S
C2487 C2489 1.419 . S
C2488 C2486 1.415 . S
C2488 C2493 1.425 . S
C2488 C2495 1.409 . S
C2489 H2481 0.930 . S
C2489 C2487 1.419 . S
C2489 C2490 1.362 . S
C2490 H2482 0.930 . S
C2490 C2489 1.362 . S
C2490 C2493 1.409 . S
C2491 H2483 0.930 . S
C2491 C2492 1.355 . S
C2491 C2493 1.415 . S
C2492 C2491 1.355 . S
C2492 C2494 1.419 . S
C2493 C2488 1.425 . S
C2493 C2490 1.409 . S
C2493 C2491 1.415 . S
C2494 H2484 0.930 . S
C2494 C2492 1.419 . S
C2494 C2495 1.362 . S
C2495 H2485 0.930 . S
C2495 C2488 1.409 . S
C2495 C2494 1.362 . S
H2496 C2502 0.930 . S
H2497 C2505 0.930 . S
H2498 C2506 0.930 1_655 S
H2499 C2507 0.930 . S
H2500 C2510 0.930 . S
H2501 C2511 0.930 1_455 S
C2502 H2496 0.930 . S
C2502 C2503 1.355 . S
C2502 C2504 1.415 . S
C2503 C2502 1.355 . S
C2503 C2505 1.419 . S
C2504 C2502 1.415 . S
C2504 C2509 1.425 1_455 S
C2504 C2511 1.409 1_455 S
C2505 H2497 0.930 . S
C2505 C2503 1.419 . S
C2505 C2506 1.362 . S
C2506 H2498 0.930 1_455 S
C2506 C2505 1.362 . S
C2506 C2509 1.409 1_455 S
C2507 H2499 0.930 . S
C2507 C2508 1.355 . S
C2507 C2509 1.415 . S
C2508 C2507 1.355 . S
C2508 C2510 1.419 . S
C2509 C2504 1.425 1_655 S
C2509 C2506 1.409 1_655 S
C2509 C2507 1.415 . S
C2510 H2500 0.930 . S
C2510 C2508 1.419 . S
C2510 C2511 1.362 . S
C2511 H2501 0.930 1_655 S
C2511 C2504 1.409 1_655 S
C2511 C2510 1.362 . S
H2512 C2518 0.930 . S
H2513 C2521 0.930 . S
H2514 C2522 0.930 . S
H2515 C2523 0.930 . S
H2516 C2526 0.930 . S
H2517 C2527 0.930 . S
C2518 H2512 0.930 . S
C2518 C2519 1.355 . S
C2518 C2520 1.415 . S
C2519 C2518 1.355 . S
C2519 C2521 1.419 . S
C2520 C2518 1.415 . S
C2520 C2525 1.425 . S
C2520 C2527 1.409 . S
C2521 H2513 0.930 . S
C2521 C2519 1.419 . S
C2521 C2522 1.362 . S
C2522 H2514 0.930 . S
C2522 C2521 1.362 . S
C2522 C2525 1.409 . S
C2523 H2515 0.930 . S
C2523 C2524 1.355 . S
C2523 C2525 1.415 . S
C2524 C2523 1.355 . S
C2524 C2526 1.419 . S
C2525 C2520 1.425 . S
C2525 C2522 1.409 . S
C2525 C2523 1.415 . S
C2526 H2516 0.930 . S
C2526 C2524 1.419 . S
C2526 C2527 1.362 . S
C2527 H2517 0.930 . S
C2527 C2520 1.409 . S
C2527 C2526 1.362 . S
H2528 C2534 0.930 . S
H2529 C2537 0.930 . S
H2530 C2538 0.930 . S
H2531 C2539 0.930 . S
H2532 C2542 0.930 . S
H2533 C2543 0.930 . S
C2534 H2528 0.930 . S
C2534 C2535 1.355 . S
C2534 C2536 1.366 1_545 S
C2535 C2534 1.355 . S
C2535 C2537 1.419 . S
C2536 C2534 1.366 1_565 S
C2536 C2541 1.458 1_565 S
C2536 C2543 1.447 . S
C2537 H2529 0.930 . S
C2537 C2535 1.419 . S
C2537 C2538 1.362 . S
C2538 H2530 0.930 . S
C2538 C2537 1.362 . S
C2538 C2541 1.446 . S
C2539 H2531 0.930 . S
C2539 C2540 1.355 . S
C2539 C2541 1.367 1_565 S
C2540 C2539 1.355 . S
C2540 C2542 1.419 . S
C2541 C2536 1.458 1_545 S
C2541 C2538 1.446 . S
C2541 C2539 1.367 1_545 S
C2542 H2532 0.930 . S
C2542 C2540 1.419 . S
C2542 C2543 1.362 . S
C2543 H2533 0.930 . S
C2543 C2536 1.447 . S
C2543 C2542 1.362 . S
H2544 C2550 0.930 . S
H2545 C2553 0.930 . S
H2546 C2554 0.930 . S
H2547 C2555 0.930 . S
H2548 C2558 0.930 . S
H2549 C2559 0.930 . S
C2550 H2544 0.930 . S
C2550 C2551 1.355 . S
C2550 C2552 1.415 1_565 S
C2551 C2550 1.355 . S
C2551 C2553 1.419 . S
C2552 C2550 1.415 1_545 S
C2552 C2557 1.425 1_545 S
C2552 C2559 1.409 . S
C2553 H2545 0.930 . S
C2553 C2551 1.419 . S
C2553 C2554 1.362 . S
C2554 H2546 0.930 . S
C2554 C2553 1.362 . S
C2554 C2557 1.409 . S
C2555 H2547 0.930 . S
C2555 C2556 1.355 . S
C2555 C2557 1.415 1_545 S
C2556 C2555 1.355 . S
C2556 C2558 1.419 . S
C2557 C2552 1.425 1_565 S
C2557 C2554 1.409 . S
C2557 C2555 1.415 1_565 S
C2558 H2548 0.930 . S
C2558 C2556 1.419 . S
C2558 C2559 1.362 . S
C2559 H2549 0.930 . S
C2559 C2552 1.409 . S
C2559 C2558 1.362 . S
H2560 C2566 0.930 . S
H2561 C2569 0.930 . S
H2562 C2570 0.930 . S
H2563 C2571 0.930 . S
H2564 C2574 0.930 . S
H2565 C2575 0.930 . S
C2566 H2560 0.930 . S
C2566 C2567 1.355 . S
C2566 C2568 1.415 1_455 S
C2567 C2566 1.355 . S
C2567 C2569 1.419 . S
C2568 C2566 1.415 1_655 S
C2568 C2573 1.425 1_655 S
C2568 C2575 1.409 . S
C2569 H2561 0.930 . S
C2569 C2567 1.419 . S
C2569 C2570 1.362 . S
C2570 H2562 0.930 . S
C2570 C2569 1.362 . S
C2570 C2573 1.409 . S
C2571 H2563 0.930 . S
C2571 C2572 1.355 . S
C2571 C2573 1.415 1_655 S
C2572 C2571 1.355 . S
C2572 C2574 1.419 . S
C2573 C2568 1.425 1_455 S
C2573 C2570 1.409 . S
C2573 C2571 1.415 1_455 S
C2574 H2564 0.930 . S
C2574 C2572 1.419 . S
C2574 C2575 1.362 . S
C2575 H2565 0.930 . S
C2575 C2568 1.409 . S
C2575 C2574 1.362 . S
H2576 C2582 0.930 . S
H2577 C2585 0.930 . S
H2578 C2586 0.930 . S
H2579 C2587 0.930 . S
H2580 C2590 0.930 . S
H2581 C2591 0.930 . S
C2582 H2576 0.930 . S
C2582 C2583 1.355 . S
C2582 C2584 1.415 . S
C2583 C2582 1.355 . S
C2583 C2585 1.419 . S
C2584 C2582 1.415 . S
C2584 C2589 1.425 . S
C2584 C2591 1.409 . S
C2585 H2577 0.930 . S
C2585 C2583 1.419 . S
C2585 C2586 1.362 . S
C2586 H2578 0.930 . S
C2586 C2585 1.362 . S
C2586 C2589 1.409 . S
C2587 H2579 0.930 . S
C2587 C2588 1.355 . S
C2587 C2589 1.415 . S
C2588 C2587 1.355 . S
C2588 C2590 1.419 . S
C2589 C2584 1.425 . S
C2589 C2586 1.409 . S
C2589 C2587 1.415 . S
C2590 H2580 0.930 . S
C2590 C2588 1.419 . S
C2590 C2591 1.362 . S
C2591 H2581 0.930 . S
C2591 C2584 1.409 . S
C2591 C2590 1.362 . S
H2592 C2598 0.930 . S
H2593 C2601 0.930 . S
H2594 C2602 0.930 . S
H2595 C2603 0.930 . S
H2596 C2606 0.930 . S
H2597 C2607 0.930 . S
C2598 H2592 0.930 . S
C2598 C2599 1.355 . S
C2598 C2600 1.415 . S
C2599 C2598 1.355 . S
C2599 C2601 1.419 . S
C2600 C2598 1.415 . S
C2600 C2605 1.425 . S
C2600 C2607 1.409 . S
C2601 H2593 0.930 . S
C2601 C2599 1.419 . S
C2601 C2602 1.362 . S
C2602 H2594 0.930 . S
C2602 C2601 1.362 . S
C2602 C2605 1.409 . S
C2603 H2595 0.930 . S
C2603 C2604 1.355 . S
C2603 C2605 1.415 . S
C2604 C2603 1.355 . S
C2604 C2606 1.419 . S
C2605 C2600 1.425 . S
C2605 C2602 1.409 . S
C2605 C2603 1.415 . S
C2606 H2596 0.930 . S
C2606 C2604 1.419 . S
C2606 C2607 1.362 . S
C2607 H2597 0.930 . S
C2607 C2600 1.409 . S
C2607 C2606 1.362 . S
H2608 C2614 0.930 . S
H2609 C2617 0.930 . S
H2610 C2618 0.930 . S
H2611 C2619 0.930 . S
H2612 C2622 0.930 . S
H2613 C2623 0.930 . S
C2614 H2608 0.930 . S
C2614 C2615 1.355 . S
C2614 C2616 1.415 . S
C2615 C2614 1.355 . S
C2615 C2617 1.419 . S
C2616 C2614 1.415 . S
C2616 C2621 1.425 1_545 S
C2616 C2623 1.409 1_545 S
C2617 H2609 0.930 . S
C2617 C2615 1.419 . S
C2617 C2618 1.362 . S
C2618 H2610 0.930 . S
C2618 C2617 1.362 . S
C2618 C2621 1.409 1_545 S
C2619 H2611 0.930 . S
C2619 C2620 1.355 . S
C2619 C2621 1.415 . S
C2620 C2619 1.355 . S
C2620 C2622 1.419 . S
C2621 C2616 1.425 1_565 S
C2621 C2618 1.409 1_565 S
C2621 C2619 1.415 . S
C2622 H2612 0.930 . S
C2622 C2620 1.419 . S
C2622 C2623 1.362 . S
C2623 H2613 0.930 . S
C2623 C2616 1.409 1_565 S
C2623 C2622 1.362 . S
H2624 C2630 0.930 . S
H2625 C2633 0.930 . S
H2626 C2634 0.930 . S
H2627 C2635 0.930 . S
H2628 C2638 0.930 . S
H2629 C2639 0.930 . S
C2630 H2624 0.930 . S
C2630 C2631 1.355 . S
C2630 C2632 1.415 . S
C2631 C2630 1.355 . S
C2631 C2633 1.419 . S
C2632 C2630 1.415 . S
C2632 C2637 1.425 1_655 S
C2632 C2639 1.409 1_655 S
C2633 H2625 0.930 . S
C2633 C2631 1.419 . S
C2633 C2634 1.362 . S
C2634 H2626 0.930 . S
C2634 C2633 1.362 . S
C2634 C2637 1.409 1_655 S
C2635 H2627 0.930 . S
C2635 C2636 1.355 . S
C2635 C2637 1.415 . S
C2636 C2635 1.355 . S
C2636 C2638 1.419 . S
C2637 C2632 1.425 1_455 S
C2637 C2634 1.409 1_455 S
C2637 C2635 1.415 . S
C2638 H2628 0.930 . S
C2638 C2636 1.419 . S
C2638 C2639 1.362 . S
C2639 H2629 0.930 . S
C2639 C2632 1.409 1_455 S
C2639 C2638 1.362 . S
H2640 C2646 0.930 . S
H2641 C2649 0.930 . S
H2642 C2650 0.930 . S
H2643 C2651 0.930 . S
H2644 C2654 0.930 . S
H2645 C2655 0.930 . S
C2646 H2640 0.930 . S
C2646 C2647 1.355 . S
C2646 C2648 1.415 . S
C2647 C2646 1.355 . S
C2647 C2649 1.419 . S
C2648 C2646 1.415 . S
C2648 C2653 1.425 . S
C2648 C2655 1.409 . S
C2649 H2641 0.930 . S
C2649 C2647 1.419 . S
C2649 C2650 1.362 . S
C2650 H2642 0.930 . S
C2650 C2649 1.362 . S
C2650 C2653 1.409 . S
C2651 H2643 0.930 . S
C2651 C2652 1.355 . S
C2651 C2653 1.415 . S
C2652 C2651 1.355 . S
C2652 C2654 1.419 . S
C2653 C2648 1.425 . S
C2653 C2650 1.409 . S
C2653 C2651 1.415 . S
C2654 H2644 0.930 . S
C2654 C2652 1.419 . S
C2654 C2655 1.362 . S
C2655 H2645 0.930 . S
C2655 C2648 1.409 . S
C2655 C2654 1.362 . S
H2656 C2662 0.930 . S
H2657 C2665 0.930 . S
H2658 C2666 0.930 . S
H2659 C2667 0.930 . S
H2660 C2670 0.930 . S
H2661 C2671 0.930 . S
C2662 H2656 0.930 . S
C2662 C2663 1.355 . S
C2662 C2664 1.415 . S
C2663 C2662 1.355 . S
C2663 C2665 1.419 . S
C2664 C2662 1.415 . S
C2664 C2669 1.425 1_565 S
C2664 C2671 1.409 . S
C2665 H2657 0.930 . S
C2665 C2663 1.419 . S
C2665 C2666 1.362 1_565 S
C2666 H2658 0.930 . S
C2666 C2665 1.362 1_545 S
C2666 C2669 1.409 . S
C2667 H2659 0.930 . S
C2667 C2668 1.355 . S
C2667 C2669 1.415 . S
C2668 C2667 1.355 . S
C2668 C2670 1.419 . S
C2669 C2664 1.425 1_545 S
C2669 C2666 1.409 . S
C2669 C2667 1.415 . S
C2670 H2660 0.930 . S
C2670 C2668 1.419 . S
C2670 C2671 1.362 1_545 S
C2671 H2661 0.930 . S
C2671 C2664 1.409 . S
C2671 C2670 1.362 1_565 S
H2672 C2678 0.930 . S
H2673 C2681 0.930 . S
H2674 C2682 0.930 . S
H2675 C2683 0.930 . S
H2676 C2686 0.930 . S
H2677 C2687 0.930 . S
C2678 H2672 0.930 . S
C2678 C2679 1.355 . S
C2678 C2680 1.415 . S
C2679 C2678 1.355 . S
C2679 C2681 1.419 . S
C2680 C2678 1.415 . S
C2680 C2685 1.425 1_655 S
C2680 C2687 1.409 . S
C2681 H2673 0.930 . S
C2681 C2679 1.419 . S
C2681 C2682 1.362 1_655 S
C2682 H2674 0.930 . S
C2682 C2681 1.362 1_455 S
C2682 C2685 1.409 . S
C2683 H2675 0.930 . S
C2683 C2684 1.355 . S
C2683 C2685 1.415 . S
C2684 C2683 1.355 . S
C2684 C2686 1.419 . S
C2685 C2680 1.425 1_455 S
C2685 C2682 1.409 . S
C2685 C2683 1.415 . S
C2686 H2676 0.930 . S
C2686 C2684 1.419 . S
C2686 C2687 1.362 1_455 S
C2687 H2677 0.930 . S
C2687 C2680 1.409 . S
C2687 C2686 1.362 1_655 S
H2688 C2694 0.930 . S
H2689 C2697 0.930 . S
H2690 C2698 0.930 . S
H2691 C2699 0.930 . S
H2692 C2702 0.930 . S
H2693 C2703 0.930 . S
C2694 H2688 0.930 . S
C2694 C2695 1.355 . S
C2694 C2696 1.415 . S
C2695 C2694 1.355 . S
C2695 C2697 1.419 . S
C2696 C2694 1.415 . S
C2696 C2701 1.425 . S
C2696 C2703 1.409 . S
C2697 H2689 0.930 . S
C2697 C2695 1.419 . S
C2697 C2698 1.362 . S
C2698 H2690 0.930 . S
C2698 C2697 1.362 . S
C2698 C2701 1.409 . S
C2699 H2691 0.930 . S
C2699 C2700 1.355 . S
C2699 C2701 1.415 . S
C2700 C2699 1.355 . S
C2700 C2702 1.419 . S
C2701 C2696 1.425 . S
C2701 C2698 1.409 . S
C2701 C2699 1.415 . S
C2702 H2692 0.930 . S
C2702 C2700 1.419 . S
C2702 C2703 1.362 . S
C2703 H2693 0.930 . S
C2703 C2696 1.409 . S
C2703 C2702 1.362 . S
H2704 C2710 0.930 . S
H2705 C2713 0.930 . S
H2706 C2714 0.930 . S
H2707 C2715 0.930 . S
H2708 C2718 0.930 . S
H2709 C2719 0.930 . S
C2710 H2704 0.930 . S
C2710 C2711 1.355 . S
C2710 C2712 1.415 . S
C2711 C2710 1.355 . S
C2711 C2713 1.419 . S
C2712 C2710 1.415 . S
C2712 C2717 1.425 . S
C2712 C2719 1.409 . S
C2713 H2705 0.930 . S
C2713 C2711 1.419 . S
C2713 C2714 1.362 . S
C2714 H2706 0.930 . S
C2714 C2713 1.362 . S
C2714 C2717 1.409 . S
C2715 H2707 0.930 . S
C2715 C2716 1.355 . S
C2715 C2717 1.415 . S
C2716 C2715 1.355 . S
C2716 C2718 1.419 . S
C2717 C2712 1.425 . S
C2717 C2714 1.409 . S
C2717 C2715 1.415 . S
C2718 H2708 0.930 . S
C2718 C2716 1.419 . S
C2718 C2719 1.362 . S
C2719 H2709 0.930 . S
C2719 C2712 1.409 . S
C2719 C2718 1.362 . S
H2720 C2726 0.930 . S
H2721 C2729 0.930 . S
H2722 C2730 0.930 . S
H2723 C2731 0.930 . S
H2724 C2734 0.930 . S
H2725 C2735 0.930 . S
C2726 H2720 0.930 . S
C2726 C2727 1.355 . S
C2726 C2728 1.415 . S
C2727 C2726 1.355 . S
C2727 C2729 1.419 . S
C2728 C2726 1.415 . S
C2728 C2733 1.425 . S
C2728 C2735 1.409 . S
C2729 H2721 0.930 . S
C2729 C2727 1.419 . S
C2729 C2730 1.362 . S
C2730 H2722 0.930 . S
C2730 C2729 1.362 . S
C2730 C2733 1.409 . S
C2731 H2723 0.930 . S
C2731 C2732 1.355 . S
C2731 C2733 1.415 . S
C2732 C2731 1.355 . S
C2732 C2734 1.419 . S
C2733 C2728 1.425 . S
C2733 C2730 1.409 . S
C2733 C2731 1.415 . S
C2734 H2724 0.930 . S
C2734 C2732 1.419 . S
C2734 C2735 1.362 . S
C2735 H2725 0.930 . S
C2735 C2728 1.409 . S
C2735 C2734 1.362 . S
H2736 C2742 0.930 . S
H2737 C2745 0.930 . S
H2738 C2746 0.930 . S
H2739 C2747 0.930 . S
H2740 C2750 0.930 . S
H2741 C2751 0.930 . S
C2742 H2736 0.930 . S
C2742 C2743 1.355 . S
C2742 C2744 1.415 . S
C2743 C2742 1.355 . S
C2743 C2745 1.419 . S
C2744 C2742 1.415 . S
C2744 C2749 1.425 . S
C2744 C2751 1.409 . S
C2745 H2737 0.930 . S
C2745 C2743 1.419 . S
C2745 C2746 1.362 . S
C2746 H2738 0.930 . S
C2746 C2745 1.362 . S
C2746 C2749 1.409 . S
C2747 H2739 0.930 . S
C2747 C2748 1.355 . S
C2747 C2749 1.415 . S
C2748 C2747 1.355 . S
C2748 C2750 1.419 . S
C2749 C2744 1.425 . S
C2749 C2746 1.409 . S
C2749 C2747 1.415 . S
C2750 H2740 0.930 . S
C2750 C2748 1.419 . S
C2750 C2751 1.362 . S
C2751 H2741 0.930 . S
C2751 C2744 1.409 . S
C2751 C2750 1.362 . S
H2752 C2758 0.930 . S
H2753 C2761 0.930 . S
H2754 C2762 0.930 . S
H2755 C2763 0.930 . S
H2756 C2766 0.930 . S
H2757 C2767 0.930 . S
C2758 H2752 0.930 . S
C2758 C2759 1.355 . S
C2758 C2760 1.415 . S
C2759 C2758 1.355 . S
C2759 C2761 1.419 . S
C2760 C2758 1.415 . S
C2760 C2765 1.425 . S
C2760 C2767 1.409 . S
C2761 H2753 0.930 . S
C2761 C2759 1.419 . S
C2761 C2762 1.362 . S
C2762 H2754 0.930 . S
C2762 C2761 1.362 . S
C2762 C2765 1.409 . S
C2763 H2755 0.930 . S
C2763 C2764 1.355 . S
C2763 C2765 1.415 . S
C2764 C2763 1.355 . S
C2764 C2766 1.419 . S
C2765 C2760 1.425 . S
C2765 C2762 1.409 . S
C2765 C2763 1.415 . S
C2766 H2756 0.930 . S
C2766 C2764 1.419 . S
C2766 C2767 1.362 . S
C2767 H2757 0.930 . S
C2767 C2760 1.409 . S
C2767 C2766 1.362 . S
H2768 C2774 0.930 . S
H2769 C2777 0.930 . S
H2770 C2778 0.930 . S
H2771 C2779 0.930 . S
H2772 C2782 0.930 . S
H2773 C2783 0.930 . S
C2774 H2768 0.930 . S
C2774 C2775 1.355 . S
C2774 C2776 1.415 . S
C2775 C2774 1.355 . S
C2775 C2777 1.419 . S
C2776 C2774 1.415 . S
C2776 C2781 1.425 . S
C2776 C2783 1.409 . S
C2777 H2769 0.930 . S
C2777 C2775 1.419 . S
C2777 C2778 1.362 . S
C2778 H2770 0.930 . S
C2778 C2777 1.362 . S
C2778 C2781 1.409 . S
C2779 H2771 0.930 . S
C2779 C2780 1.355 . S
C2779 C2781 1.415 . S
C2780 C2779 1.355 . S
C2780 C2782 1.419 . S
C2781 C2776 1.425 . S
C2781 C2778 1.409 . S
C2781 C2779 1.415 . S
C2782 H2772 0.930 . S
C2782 C2780 1.419 . S
C2782 C2783 1.362 . S
C2783 H2773 0.930 . S
C2783 C2776 1.409 . S
C2783 C2782 1.362 . S
H2784 C2790 0.930 . S
H2785 C2793 0.930 . S
H2786 C2794 0.930 . S
H2787 C2795 0.930 . S
H2788 C2798 0.930 . S
H2789 C2799 0.930 . S
C2790 H2784 0.930 . S
C2790 C2791 1.355 . S
C2790 C2792 1.415 . S
C2791 C2790 1.355 . S
C2791 C2793 1.419 . S
C2792 C2790 1.415 . S
C2792 C2797 1.425 . S
C2792 C2799 1.409 . S
C2793 H2785 0.930 . S
C2793 C2791 1.419 . S
C2793 C2794 1.362 . S
C2794 H2786 0.930 . S
C2794 C2793 1.362 . S
C2794 C2797 1.409 . S
C2795 H2787 0.930 . S
C2795 C2796 1.355 . S
C2795 C2797 1.415 . S
C2796 C2795 1.355 . S
C2796 C2798 1.419 . S
C2797 C2792 1.425 . S
C2797 C2794 1.409 . S
C2797 C2795 1.415 . S
C2798 H2788 0.930 . S
C2798 C2796 1.419 . S
C2798 C2799 1.362 . S
C2799 H2789 0.930 . S
C2799 C2792 1.409 . S
C2799 C2798 1.362 . S
H2800 C2806 0.930 . S
H2801 C2809 0.930 . S
H2802 C2810 0.930 . S
H2803 C2811 0.930 . S
H2804 C2814 0.930 . S
H2805 C2815 0.930 . S
C2806 H2800 0.930 . S
C2806 C2807 1.355 . S
C2806 C2808 1.415 . S
C2807 C2806 1.355 . S
C2807 C2809 1.419 . S
C2808 C2806 1.415 . S
C2808 C2813 1.425 . S
C2808 C2815 1.409 . S
C2809 H2801 0.930 . S
C2809 C2807 1.419 . S
C2809 C2810 1.362 . S
C2810 H2802 0.930 . S
C2810 C2809 1.362 . S
C2810 C2813 1.409 . S
C2811 H2803 0.930 . S
C2811 C2812 1.355 . S
C2811 C2813 1.415 . S
C2812 C2811 1.355 . S
C2812 C2814 1.419 . S
C2813 C2808 1.425 . S
C2813 C2810 1.409 . S
C2813 C2811 1.415 . S
C2814 H2804 0.930 . S
C2814 C2812 1.419 . S
C2814 C2815 1.362 . S
C2815 H2805 0.930 . S
C2815 C2808 1.409 . S
C2815 C2814 1.362 . S
H2816 C2822 0.930 1_554 S
H2817 C2825 0.930 . S
H2818 C2826 0.930 . S
H2819 C2827 0.930 . S
H2820 C2830 0.930 . S
H2821 C2831 0.930 . S
C2822 H2816 0.930 1_556 S
C2822 C2823 1.355 . S
C2822 C2824 1.415 . S
C2823 C2822 1.355 . S
C2823 C2825 1.419 . S
C2824 C2822 1.415 . S
C2824 C2829 1.425 . S
C2824 C2831 1.409 . S
C2825 H2817 0.930 . S
C2825 C2823 1.419 . S
C2825 C2826 1.362 . S
C2826 H2818 0.930 . S
C2826 C2825 1.362 . S
C2826 C2829 1.409 . S
C2827 H2819 0.930 . S
C2827 C2828 1.355 . S
C2827 C2829 1.415 . S
C2828 C2827 1.355 . S
C2828 C2830 1.419 . S
C2829 C2824 1.425 . S
C2829 C2826 1.409 . S
C2829 C2827 1.415 . S
C2830 H2820 0.930 . S
C2830 C2828 1.419 . S
C2830 C2831 1.362 . S
C2831 H2821 0.930 . S
C2831 C2824 1.409 . S
C2831 C2830 1.362 . S
H2832 C2838 0.930 . S
H2833 C2841 0.930 . S
H2834 C2842 0.930 . S
H2835 C2843 0.930 . S
H2836 C2846 0.930 . S
H2837 C2847 0.930 . S
C2838 H2832 0.930 . S
C2838 C2839 1.355 . S
C2838 C2840 1.415 . S
C2839 C2838 1.355 . S
C2839 C2841 1.419 . S
C2840 C2838 1.415 . S
C2840 C2845 1.425 . S
C2840 C2847 1.409 . S
C2841 H2833 0.930 . S
C2841 C2839 1.419 . S
C2841 C2842 1.362 . S
C2842 H2834 0.930 . S
C2842 C2841 1.362 . S
C2842 C2845 1.409 . S
C2843 H2835 0.930 . S
C2843 C2844 1.355 . S
C2843 C2845 1.415 . S
C2844 C2843 1.355 . S
C2844 C2846 1.419 . S
C2845 C2840 1.425 . S
C2845 C2842 1.409 . S
C2845 C2843 1.415 . S
C2846 H2836 0.930 . S
C2846 C2844 1.419 . S
C2846 C2847 1.362 . S
C2847 H2837 0.930 . S
C2847 C2840 1.409 . S
C2847 C2846 1.362 . S
H2848 C2854 0.930 . S
H2849 C2857 0.930 . S
H2850 C2858 0.930 . S
H2851 C2859 0.930 . S
H2852 C2862 0.930 . S
H2853 C2863 0.930 . S
C2854 H2848 0.930 . S
C2854 C2855 1.355 . S
C2854 C2856 1.415 . S
C2855 C2854 1.355 . S
C2855 C2857 1.419 . S
C2856 C2854 1.415 . S
C2856 C2861 1.425 . S
C2856 C2863 1.409 . S
C2857 H2849 0.930 . S
C2857 C2855 1.419 . S
C2857 C2858 1.362 . S
C2858 H2850 0.930 . S
C2858 C2857 1.362 . S
C2858 C2861 1.409 . S
C2859 H2851 0.930 . S
C2859 C2860 1.355 . S
C2859 C2861 1.415 . S
C2860 C2859 1.355 . S
C2860 C2862 1.419 . S
C2861 C2856 1.425 . S
C2861 C2858 1.409 . S
C2861 C2859 1.415 . S
C2862 H2852 0.930 . S
C2862 C2860 1.419 . S
C2862 C2863 1.362 . S
C2863 H2853 0.930 . S
C2863 C2856 1.409 . S
C2863 C2862 1.362 . S
H2864 C2870 0.930 . S
H2865 C2873 0.930 . S
H2866 C2874 0.930 . S
H2867 C2875 0.930 . S
H2868 C2878 0.930 . S
H2869 C2879 0.930 . S
C2870 H2864 0.930 . S
C2870 C2871 1.355 . S
C2870 C2872 1.415 . S
C2871 C2870 1.355 . S
C2871 C2873 1.419 . S
C2872 C2870 1.415 . S
C2872 C2877 1.425 . S
C2872 C2879 1.409 . S
C2873 H2865 0.930 . S
C2873 C2871 1.419 . S
C2873 C2874 1.362 . S
C2874 H2866 0.930 . S
C2874 C2873 1.362 . S
C2874 C2877 1.409 . S
C2875 H2867 0.930 . S
C2875 C2876 1.355 . S
C2875 C2877 1.415 . S
C2876 C2875 1.355 . S
C2876 C2878 1.419 . S
C2877 C2872 1.425 . S
C2877 C2874 1.409 . S
C2877 C2875 1.415 . S
C2878 H2868 0.930 . S
C2878 C2876 1.419 . S
C2878 C2879 1.362 . S
C2879 H2869 0.930 . S
C2879 C2872 1.409 . S
C2879 C2878 1.362 . S
H2880 C2886 0.930 . S
H2881 C2889 0.930 . S
H2882 C2890 0.930 . S
H2883 C2891 0.930 . S
H2884 C2894 0.930 . S
H2885 C2895 0.930 . S
C2886 H2880 0.930 . S
C2886 C2887 1.355 . S
C2886 C2888 1.415 . S
C2887 C2886 1.355 . S
C2887 C2889 1.419 . S
C2888 C2886 1.415 . S
C2888 C2893 1.425 . S
C2888 C2895 1.409 . S
C2889 H2881 0.930 . S
C2889 C2887 1.419 . S
C2889 C2890 1.362 . S
C2890 H2882 0.930 . S
C2890 C2889 1.362 . S
C2890 C2893 1.409 . S
C2891 H2883 0.930 . S
C2891 C2892 1.355 . S
C2891 C2893 1.415 . S
C2892 C2891 1.355 . S
C2892 C2894 1.419 . S
C2893 C2888 1.425 . S
C2893 C2890 1.409 . S
C2893 C2891 1.415 . S
C2894 H2884 0.930 . S
C2894 C2892 1.419 . S
C2894 C2895 1.362 . S
C2895 H2885 0.930 . S
C2895 C2888 1.409 . S
C2895 C2894 1.362 . S
H2896 C2902 0.930 . S
H2897 C2905 0.930 . S
H2898 C2906 0.930 . S
H2899 C2907 0.930 . S
H2900 C2910 0.930 . S
H2901 C2911 0.930 . S
C2902 H2896 0.930 . S
C2902 C2903 1.355 . S
C2902 C2904 1.415 . S
C2903 C2902 1.355 . S
C2903 C2905 1.419 . S
C2904 C2902 1.415 . S
C2904 C2909 1.425 . S
C2904 C2911 1.409 . S
C2905 H2897 0.930 . S
C2905 C2903 1.419 . S
C2905 C2906 1.362 . S
C2906 H2898 0.930 . S
C2906 C2905 1.362 . S
C2906 C2909 1.409 . S
C2907 H2899 0.930 . S
C2907 C2908 1.355 . S
C2907 C2909 1.415 . S
C2908 C2907 1.355 . S
C2908 C2910 1.419 . S
C2909 C2904 1.425 . S
C2909 C2906 1.409 . S
C2909 C2907 1.415 . S
C2910 H2900 0.930 . S
C2910 C2908 1.419 . S
C2910 C2911 1.362 . S
C2911 H2901 0.930 . S
C2911 C2904 1.409 . S
C2911 C2910 1.362 . S
H2912 C2918 0.930 . S
H2913 C2921 0.930 . S
H2914 C2922 0.911 1_556 S
H2915 C2923 0.930 . S
H2916 C2926 0.930 . S
H2917 C2927 0.930 . S
C2918 H2912 0.930 . S
C2918 C2919 1.355 . S
C2918 C2920 1.415 . S
C2919 C2918 1.355 . S
C2919 C2921 1.419 . S
C2920 C2918 1.415 . S
C2920 C2925 1.425 . S
C2920 C2927 1.409 . S
C2921 H2913 0.930 . S
C2921 C2919 1.419 . S
C2921 C2922 1.362 . S
C2922 H2914 0.911 1_554 S
C2922 C2921 1.362 . S
C2922 C2925 1.409 . S
C2923 H2915 0.930 . S
C2923 C2924 1.355 . S
C2923 C2925 1.415 . S
C2924 C2923 1.355 . S
C2924 C2926 1.419 . S
C2925 C2920 1.425 . S
C2925 C2922 1.409 . S
C2925 C2923 1.415 . S
C2926 H2916 0.930 . S
C2926 C2924 1.419 . S
C2926 C2927 1.362 . S
C2927 H2917 0.930 . S
C2927 C2920 1.409 . S
C2927 C2926 1.362 . S
H2928 C2934 0.930 . S
H2929 C2937 0.930 . S
H2930 C2938 0.930 . S
H2931 C2939 0.930 . S
H2932 C2942 0.930 . S
H2933 C2943 0.930 . S
C2934 H2928 0.930 . S
C2934 C2935 1.355 . S
C2934 C2936 1.415 . S
C2935 C2934 1.355 . S
C2935 C2937 1.419 . S
C2936 C2934 1.415 . S
C2936 C2941 1.425 . S
C2936 C2943 1.409 . S
C2937 H2929 0.930 . S
C2937 C2935 1.419 . S
C2937 C2938 1.362 . S
C2938 H2930 0.930 . S
C2938 C2937 1.362 . S
C2938 C2941 1.409 . S
C2939 H2931 0.930 . S
C2939 C2940 1.355 . S
C2939 C2941 1.415 . S
C2940 C2939 1.355 . S
C2940 C2942 1.419 . S
C2941 C2936 1.425 . S
C2941 C2938 1.409 . S
C2941 C2939 1.415 . S
C2942 H2932 0.930 . S
C2942 C2940 1.419 . S
C2942 C2943 1.362 . S
C2943 H2933 0.930 . S
C2943 C2936 1.409 . S
C2943 C2942 1.362 . S
H2944 C2950 0.930 . S
H2945 C2953 0.930 . S
H2946 C2954 0.930 . S
H2947 C2955 0.930 . S
H2948 C2958 0.930 . S
H2949 C2959 0.930 . S
C2950 H2944 0.930 . S
C2950 C2951 1.355 . S
C2950 C2952 1.415 . S
C2951 C2950 1.355 . S
C2951 C2953 1.419 . S
C2952 C2950 1.415 . S
C2952 C2957 1.425 . S
C2952 C2959 1.409 . S
C2953 H2945 0.930 . S
C2953 C2951 1.419 . S
C2953 C2954 1.362 . S
C2954 H2946 0.930 . S
C2954 C2953 1.362 . S
C2954 C2957 1.409 . S
C2955 H2947 0.930 . S
C2955 C2956 1.355 . S
C2955 C2957 1.415 . S
C2956 C2955 1.355 . S
C2956 C2958 1.419 . S
C2957 C2952 1.425 . S
C2957 C2954 1.409 . S
C2957 C2955 1.415 . S
C2958 H2948 0.930 . S
C2958 C2956 1.419 . S
C2958 C2959 1.362 . S
C2959 H2949 0.930 . S
C2959 C2952 1.409 . S
C2959 C2958 1.362 . S
H2960 C2966 0.930 . S
H2961 C2969 0.930 1_455 S
H2962 C2970 0.930 . S
H2963 C2971 0.930 . S
H2964 C2974 0.930 . S
H2965 C2975 0.930 . S
C2966 H2960 0.930 . S
C2966 C2967 1.355 . S
C2966 C2968 1.415 . S
C2967 C2966 1.355 . S
C2967 C2969 1.419 . S
C2968 C2966 1.415 . S
C2968 C2973 1.425 . S
C2968 C2975 1.409 . S
C2969 H2961 0.930 1_655 S
C2969 C2967 1.419 . S
C2969 C2970 1.362 . S
C2970 H2962 0.930 . S
C2970 C2969 1.362 . S
C2970 C2973 1.409 . S
C2971 H2963 0.930 . S
C2971 C2972 1.355 . S
C2971 C2973 1.415 . S
C2972 C2971 1.355 . S
C2972 C2974 1.419 . S
C2973 C2968 1.425 . S
C2973 C2970 1.409 . S
C2973 C2971 1.415 . S
C2974 H2964 0.930 . S
C2974 C2972 1.419 . S
C2974 C2975 1.362 . S
C2975 H2965 0.930 . S
C2975 C2968 1.409 . S
C2975 C2974 1.362 . S
H2976 C2982 0.930 . S
H2977 C2985 0.930 . S
H2978 C2986 0.930 . S
H2979 C2987 0.930 . S
H2980 C2990 0.930 . S
H2981 C2991 0.930 . S
C2982 H2976 0.930 . S
C2982 C2983 1.355 . S
C2982 C2984 1.415 . S
C2983 C2982 1.355 . S
C2983 C2985 1.419 . S
C2984 C2982 1.415 . S
C2984 C2989 1.425 . S
C2984 C2991 1.409 . S
C2985 H2977 0.930 . S
C2985 C2983 1.419 . S
C2985 C2986 1.362 . S
C2986 H2978 0.930 . S
C2986 C2985 1.362 . S
C2986 C2989 1.409 . S
C2987 H2979 0.930 . S
C2987 C2988 1.355 . S
C2987 C2989 1.415 . S
C2988 C2987 1.355 . S
C2988 C2990 1.419 . S
C2989 C2984 1.425 . S
C2989 C2986 1.409 . S
C2989 C2987 1.415 . S
C2990 H2980 0.930 . S
C2990 C2988 1.419 . S
C2990 C2991 1.362 . S
C2991 H2981 0.930 . S
C2991 C2984 1.409 . S
C2991 C2990 1.362 . S
H2992 C2998 0.930 . S
H2993 C3001 0.930 . S
H2994 C3002 0.930 1_565 S
H2995 C3003 0.930 . S
H2996 C3006 0.930 . S
H2997 C3007 0.930 . S
C2998 H2992 0.930 . S
C2998 C2999 1.355 . S
C2998 C3000 1.415 . S
C2999 C2998 1.355 . S
C2999 C3001 1.419 1_545 S
C3000 C2998 1.415 . S
C3000 C3005 1.425 . S
C3000 C3007 1.409 . S
C3001 H2993 0.930 . S
C3001 C2999 1.419 1_565 S
C3001 C3002 1.362 1_565 S
C3002 H2994 0.930 1_545 S
C3002 C3001 1.362 1_545 S
C3002 C3005 1.409 . S
C3003 H2995 0.930 . S
C3003 C3004 1.355 . S
C3003 C3005 1.415 . S
C3004 C3003 1.355 . S
C3004 C3006 1.419 . S
C3005 C3000 1.425 . S
C3005 C3002 1.409 . S
C3005 C3003 1.415 . S
C3006 H2996 0.930 . S
C3006 C3004 1.419 . S
C3006 C3007 1.362 . S
C3007 H2997 0.930 . S
C3007 C3000 1.409 . S
C3007 C3006 1.362 . S
H3008 C3014 0.930 . S
H3009 C3017 0.930 . S
H3010 C3018 0.930 . S
H3011 C3019 0.930 1_455 S
H3012 C3022 0.930 . S
H3013 C3023 0.930 . S
C3014 H3008 0.930 . S
C3014 C3015 1.355 . S
C3014 C3016 1.415 . S
C3015 C3014 1.355 . S
C3015 C3017 1.419 . S
C3016 C3014 1.415 . S
C3016 C3021 1.425 . S
C3016 C3023 1.409 . S
C3017 H3009 0.930 . S
C3017 C3015 1.419 . S
C3017 C3018 1.362 . S
C3018 H3010 0.930 . S
C3018 C3017 1.362 . S
C3018 C3021 1.409 . S
C3019 H3011 0.930 1_655 S
C3019 C3020 1.355 . S
C3019 C3021 1.415 . S
C3020 C3019 1.355 . S
C3020 C3022 1.419 . S
C3021 C3016 1.425 . S
C3021 C3018 1.409 . S
C3021 C3019 1.415 . S
C3022 H3012 0.930 . S
C3022 C3020 1.419 . S
C3022 C3023 1.362 . S
C3023 H3013 0.930 . S
C3023 C3016 1.409 . S
C3023 C3022 1.362 . S
H3024 C3030 0.930 . S
H3025 C3033 0.930 . S
H3026 C3034 0.930 . S
H3027 C3035 0.930 . S
H3028 C3038 0.930 . S
H3029 C3039 0.930 . S
C3030 H3024 0.930 . S
C3030 C3031 1.355 . S
C3030 C3032 1.415 . S
C3031 C3030 1.355 . S
C3031 C3033 1.419 . S
C3032 C3030 1.415 . S
C3032 C3037 1.425 . S
C3032 C3039 1.409 . S
C3033 H3025 0.930 . S
C3033 C3031 1.419 . S
C3033 C3034 1.362 . S
C3034 H3026 0.930 . S
C3034 C3033 1.362 . S
C3034 C3037 1.409 . S
C3035 H3027 0.930 . S
C3035 C3036 1.355 . S
C3035 C3037 1.415 . S
C3036 C3035 1.355 . S
C3036 C3038 1.419 . S
C3037 C3032 1.425 . S
C3037 C3034 1.409 . S
C3037 C3035 1.415 . S
C3038 H3028 0.930 . S
C3038 C3036 1.419 . S
C3038 C3039 1.362 . S
C3039 H3029 0.930 . S
C3039 C3032 1.409 . S
C3039 C3038 1.362 . S
H3040 C3046 0.930 . S
H3041 C3049 0.930 . S
H3042 C3050 0.930 . S
H3043 C3051 0.930 . S
H3044 C3054 0.930 . S
H3045 C3055 0.930 . S
C3046 H3040 0.930 . S
C3046 C3047 1.355 . S
C3046 C3048 1.415 . S
C3047 C3046 1.355 . S
C3047 C3049 1.419 . S
C3048 C3046 1.415 . S
C3048 C3053 1.425 . S
C3048 C3055 1.409 . S
C3049 H3041 0.930 . S
C3049 C3047 1.419 . S
C3049 C3050 1.362 . S
C3050 H3042 0.930 . S
C3050 C3049 1.362 . S
C3050 C3053 1.409 . S
C3051 H3043 0.930 . S
C3051 C3052 1.355 . S
C3051 C3053 1.415 . S
C3052 C3051 1.355 . S
C3052 C3054 1.419 . S
C3053 C3048 1.425 . S
C3053 C3050 1.409 . S
C3053 C3051 1.415 . S
C3054 H3044 0.930 . S
C3054 C3052 1.419 . S
C3054 C3055 1.362 . S
C3055 H3045 0.930 . S
C3055 C3048 1.409 . S
C3055 C3054 1.362 . S
H3056 C3062 0.930 . S
H3057 C3065 0.930 . S
H3058 C3066 0.930 . S
H3059 C3067 0.930 . S
H3060 C3070 0.930 . S
H3061 C3071 0.930 1_655 S
C3062 H3056 0.930 . S
C3062 C3063 1.355 . S
C3062 C3064 1.415 . S
C3063 C3062 1.355 . S
C3063 C3065 1.419 . S
C3064 C3062 1.415 . S
C3064 C3069 1.425 . S
C3064 C3071 1.409 . S
C3065 H3057 0.930 . S
C3065 C3063 1.419 . S
C3065 C3066 1.362 . S
C3066 H3058 0.930 . S
C3066 C3065 1.362 . S
C3066 C3069 1.409 . S
C3067 H3059 0.930 . S
C3067 C3068 1.355 . S
C3067 C3069 1.415 . S
C3068 C3067 1.355 . S
C3068 C3070 1.419 1_455 S
C3069 C3064 1.425 . S
C3069 C3066 1.409 . S
C3069 C3067 1.415 . S
C3070 H3060 0.930 . S
C3070 C3068 1.419 1_655 S
C3070 C3071 1.362 1_655 S
C3071 H3061 0.930 1_455 S
C3071 C3064 1.409 . S
C3071 C3070 1.362 1_455 S
H3072 C3078 0.930 . S
H3073 C3081 0.930 . S
H3074 C3082 0.930 . S
H3075 C3083 0.930 . S
H3076 C3086 0.930 . S
H3077 C3087 0.930 . S
C3078 H3072 0.930 . S
C3078 C3079 1.355 . S
C3078 C3080 1.415 . S
C3079 C3078 1.355 . S
C3079 C3081 1.419 . S
C3080 C3078 1.415 . S
C3080 C3085 1.425 1_655 S
C3080 C3087 1.409 1_655 S
C3081 H3073 0.930 . S
C3081 C3079 1.419 . S
C3081 C3082 1.362 . S
C3082 H3074 0.930 . S
C3082 C3081 1.362 . S
C3082 C3085 1.409 1_655 S
C3083 H3075 0.930 . S
C3083 C3084 1.355 . S
C3083 C3085 1.415 . S
C3084 C3083 1.355 . S
C3084 C3086 1.419 . S
C3085 C3080 1.425 1_455 S
C3085 C3082 1.409 1_455 S
C3085 C3083 1.415 . S
C3086 H3076 0.930 . S
C3086 C3084 1.419 . S
C3086 C3087 1.362 . S
C3087 H3077 0.930 . S
C3087 C3080 1.409 1_455 S
C3087 C3086 1.362 . S
H3088 C3094 0.930 . S
H3089 C3097 0.930 . S
H3090 C3098 0.930 . S
H3091 C3099 0.930 . S
H3092 C3102 0.930 . S
H3093 C3103 0.930 . S
C3094 H3088 0.930 . S
C3094 C3095 1.355 . S
C3094 C3096 1.415 . S
C3095 C3094 1.355 . S
C3095 C3097 1.419 . S
C3096 C3094 1.415 . S
C3096 C3101 1.425 . S
C3096 C3103 1.409 . S
C3097 H3089 0.930 . S
C3097 C3095 1.419 . S
C3097 C3098 1.362 . S
C3098 H3090 0.930 . S
C3098 C3097 1.362 . S
C3098 C3101 1.409 . S
C3099 H3091 0.930 . S
C3099 C3100 1.355 . S
C3099 C3101 1.415 . S
C3100 C3099 1.355 . S
C3100 C3102 1.419 . S
C3101 C3096 1.425 . S
C3101 C3098 1.409 . S
C3101 C3099 1.415 . S
C3102 H3092 0.930 . S
C3102 C3100 1.419 . S
C3102 C3103 1.362 . S
C3103 H3093 0.930 . S
C3103 C3096 1.409 . S
C3103 C3102 1.362 . S
H3104 C3110 0.930 . S
H3105 C3113 0.930 . S
H3106 C3114 0.930 . S
H3107 C3115 0.930 . S
H3108 C3118 0.930 . S
H3109 C3119 0.930 . S
C3110 H3104 0.930 . S
C3110 C3111 1.355 . S
C3110 C3112 1.471 . S
C3111 C3110 1.355 . S
C3111 C3113 1.419 . S
C3112 C3110 1.471 . S
C3112 C3117 1.416 1_545 S
C3112 C3119 1.362 1_545 S
C3113 H3105 0.930 . S
C3113 C3111 1.419 . S
C3113 C3114 1.362 . S
C3114 H3106 0.930 . S
C3114 C3113 1.362 . S
C3114 C3117 1.362 1_545 S
C3115 H3107 0.930 . S
C3115 C3116 1.355 . S
C3115 C3117 1.471 . S
C3116 C3115 1.355 . S
C3116 C3118 1.419 . S
C3117 C3112 1.416 1_565 S
C3117 C3114 1.362 1_565 S
C3117 C3115 1.471 . S
C3118 H3108 0.930 . S
C3118 C3116 1.419 . S
C3118 C3119 1.362 . S
C3119 H3109 0.930 . S
C3119 C3112 1.362 1_565 S
C3119 C3118 1.362 . S
H3120 C3126 0.930 . S
H3121 C3129 0.930 . S
H3122 C3130 0.930 . S
H3123 C3131 0.930 . S
H3124 C3134 0.930 . S
H3125 C3135 0.930 . S
C3126 H3120 0.930 . S
C3126 C3127 1.355 . S
C3126 C3128 1.471 . S
C3127 C3126 1.355 . S
C3127 C3129 1.419 . S
C3128 C3126 1.471 . S
C3128 C3133 1.429 1_545 S
C3128 C3135 1.356 1_545 S
C3129 H3121 0.930 . S
C3129 C3127 1.419 . S
C3129 C3130 1.362 . S
C3130 H3122 0.930 . S
C3130 C3129 1.362 . S
C3130 C3133 1.356 1_545 S
C3131 H3123 0.930 . S
C3131 C3132 1.355 . S
C3131 C3133 1.470 . S
C3132 C3131 1.355 . S
C3132 C3134 1.419 . S
C3133 C3128 1.429 1_565 S
C3133 C3130 1.356 1_565 S
C3133 C3131 1.470 . S
C3134 H3124 0.930 . S
C3134 C3132 1.419 . S
C3134 C3135 1.362 . S
C3135 H3125 0.930 . S
C3135 C3128 1.356 1_565 S
C3135 C3134 1.362 . S
H3136 C3142 0.930 . S
H3137 C3145 0.930 . S
H3138 C3146 0.930 . S
H3139 C3147 0.930 . S
H3140 C3150 0.930 . S
H3141 C3151 0.930 . S
C3142 H3136 0.930 . S
C3142 C3143 1.355 . S
C3142 C3144 1.415 . S
C3143 C3142 1.355 . S
C3143 C3145 1.419 . S
C3144 C3142 1.415 . S
C3144 C3149 1.425 1_655 S
C3144 C3151 1.409 1_655 S
C3145 H3137 0.930 . S
C3145 C3143 1.419 . S
C3145 C3146 1.362 . S
C3146 H3138 0.930 . S
C3146 C3145 1.362 . S
C3146 C3149 1.409 1_655 S
C3147 H3139 0.930 . S
C3147 C3148 1.355 . S
C3147 C3149 1.415 . S
C3148 C3147 1.355 . S
C3148 C3150 1.419 . S
C3149 C3144 1.425 1_455 S
C3149 C3146 1.409 1_455 S
C3149 C3147 1.415 . S
C3150 H3140 0.930 . S
C3150 C3148 1.419 . S
C3150 C3151 1.362 . S
C3151 H3141 0.930 . S
C3151 C3144 1.409 1_455 S
C3151 C3150 1.362 . S
H3152 C3158 0.930 . S
H3153 C3161 0.930 . S
H3154 C3162 0.930 . S
H3155 C3163 0.930 . S
H3156 C3166 0.930 . S
H3157 C3167 0.930 . S
C3158 H3152 0.930 . S
C3158 C3159 1.355 . S
C3158 C3160 1.415 . S
C3159 C3158 1.355 . S
C3159 C3161 1.419 . S
C3160 C3158 1.415 . S
C3160 C3165 1.425 . S
C3160 C3167 1.409 . S
C3161 H3153 0.930 . S
C3161 C3159 1.419 . S
C3161 C3162 1.362 . S
C3162 H3154 0.930 . S
C3162 C3161 1.362 . S
C3162 C3165 1.409 . S
C3163 H3155 0.930 . S
C3163 C3164 1.355 . S
C3163 C3165 1.415 . S
C3164 C3163 1.355 . S
C3164 C3166 1.419 . S
C3165 C3160 1.425 . S
C3165 C3162 1.409 . S
C3165 C3163 1.415 . S
C3166 H3156 0.930 . S
C3166 C3164 1.419 . S
C3166 C3167 1.362 . S
C3167 H3157 0.930 . S
C3167 C3160 1.409 . S
C3167 C3166 1.362 . S
C1447 C7 1.922 . S
C1452 C282 1.951 . S
C1463 C322 1.973 . S
C1468 C47 1.931 . S
C1479 C242 1.957 . S
C1484 C87 1.917 . S
C1495 C442 1.968 . S
C1500 C127 1.923 . S
C1511 C167 1.922 . S
C1516 C362 1.968 . S
C1527 C207 1.954 . S
C1532 C402 1.958 . S
C1543 C51 1.950 . S
C1548 C256 1.923 . S
C1559 C296 1.936 . S
C1564 C91 1.949 . S
C1575 C11 1.964 . S
C1580 C336 1.959 . S
C1591 C211 1.949 . S
C1596 C376 1.927 . S
C1607 C416 1.933 . S
C1612 C131 1.950 . S
C1623 C456 1.927 . S
C1628 C171 1.949 . S
C1639 C487 1.918 . S
C1644 C762 1.962 . S
C1655 C802 1.974 . S
C1660 C527 1.956 . S
C1671 C722 1.956 . S
C1676 C567 1.951 . S
C1687 C607 1.918 . S
C1692 C922 1.962 . S
C1703 C842 1.952 . S
C1708 C647 1.920 . S
C1719 C687 1.931 . S
C1724 C882 1.973 . S
C1735 C736 1.928 . S
C1740 C531 1.971 . S
C1751 C571 1.956 . S
C1756 C776 1.951 . S
C1767 C816 1.957 . S
C1772 C491 1.962 . S
C1783 C691 1.950 . S
C1788 C856 1.926 . S
C1799 C611 1.950 . S
C1804 C896 1.936 . S
C1815 C936 1.955 . S
C1820 C651 1.959 . S
C1831 C967 1.930 . S
C1836 C1242 1.949 . S
C1847 C1007 1.926 . S
C1852 C1282 1.949 . S
C1863 C1202 1.960 . S
C1868 C1047 1.917 . S
C1879 C1402 1.952 . S
C1884 C1087 1.943 . S
C1895 C1127 1.951 . S
C1900 C1322 1.977 . S
C1911 C1362 1.973 . S
C1916 C1167 1.931 . S
C1927 C1011 1.950 . S
C1932 C1216 1.923 . S
C1943 C1256 1.955 . S
C1948 C1051 1.959 . S
C1959 C971 1.977 . S
C1964 C1296 1.944 . S
C1975 C1336 1.918 . S
C1980 C1171 1.961 . S
C1991 C1376 1.920 . S
C1996 C1091 1.965 . S
C2007 C1416 1.959 . S
C2012 C1131 1.971 . S
C2023 C2 2.231 . S
C2028 C731 2.231 . S
C2039 C42 2.235 . S
C2044 C771 2.235 . S
C2055 C811 2.258 . S
C2060 C82 2.258 . S
C2071 C1331 2.224 . S
C2076 C122 2.224 . S
C2087 C1371 2.271 . S
C2092 C162 2.271 . S
C2103 C1411 2.258 . S
C2108 C202 2.258 . S
C2119 C251 2.242 . S
C2124 C962 2.242 . S
C2135 C1002 2.235 . S
C2140 C291 2.235 . S
C2151 C331 2.253 . S
C2156 C1042 2.253 . S
C2167 C371 2.226 . S
C2172 C602 2.226 . S
C2183 C411 2.223 . S
C2188 C642 2.223 . S
C2199 C451 2.272 . S
C2204 C682 2.272 . S
C2215 C482 2.225 . S
C2220 C1211 2.225 . S
C2231 C1251 2.224 . S
C2236 C522 2.224 . S
C2247 C562 2.264 . S
C2252 C1291 2.264 . S
C2263 C1082 2.252 . S
C2268 C851 2.252 . S
C2279 C891 2.271 . S
C2284 C1122 2.271 . S
C2295 C1162 2.252 . S
C2300 C931 2.252 . S
C2311 C19 2.197 1_556 S
C2316 C659 2.170 . S
C2327 C59 2.171 1_556 S
C2332 C699 2.189 . S
C2343 C619 2.190 . S
C2348 C99 2.237 1_556 S
C2359 C139 2.198 . S
C2364 C1059 2.242 . S
C2375 C979 2.237 . S
C2380 C179 2.238 . S
C2391 C219 2.202 . S
C2396 C1019 2.243 . S
C2407 C1370 2.218 . S
C2412 C250 2.246 1_554 S
C2423 C290 2.197 1_554 S
C2428 C1410 2.241 . S
C2439 C1330 2.206 . S
C2444 C330 2.170 1_554 S
C2455 C370 2.169 . S
C2460 C810 2.203 . S
C2471 C410 2.222 . S
C2476 C730 2.175 . S
C2487 C450 2.244 . S
C2492 C770 2.226 . S
C2503 C1139 2.169 . S
C2508 C499 2.204 . S
C2519 C539 2.246 . S
C2524 C1179 2.213 . S
C2535 C579 2.205 . S
C2540 C1099 2.245 . S
C2551 C1290 2.245 . S
C2556 C850 2.225 . S
C2567 C1210 2.232 . S
C2572 C890 2.242 . S
C2583 C1250 2.169 . S
C2588 C930 2.202 . S
C2599 C130 2.766 . S
C2604 C10 2.774 . S
C2615 C50 2.762 . S
C2620 C170 2.771 . S
C2631 C90 2.755 . S
C2636 C210 2.747 . S
C2647 C379 2.749 . S
C2652 C259 2.743 . S
C2663 C299 2.741 . S
C2668 C419 2.741 . S
C2679 C459 2.743 . S
C2684 C339 2.740 . S
C2695 C610 2.750 . S
C2700 C490 2.743 . S
C2711 C530 2.777 . S
C2716 C650 2.770 . S
C2727 C570 2.775 . S
C2732 C690 2.768 . S
C2743 C739 2.780 . S
C2748 C859 2.778 1_554 S
C2759 C779 2.764 . S
C2764 C899 2.772 1_554 S
C2775 C819 2.761 . S
C2780 C939 2.752 1_554 S
C2791 C970 2.774 . S
C2796 C1090 2.779 1_556 S
C2807 C1130 2.765 1_556 S
C2812 C1010 2.773 . S
C2823 C1170 2.780 1_556 S
C2828 C1050 2.776 . S
C2839 C1219 2.779 . S
C2844 C1339 2.774 . S
C2855 C1379 2.779 . S
C2860 C1259 2.776 . S
C2871 C1299 2.777 . S
C2876 C1419 2.780 . S
C2887 C16 0.431 . S
C2892 C1176 0.294 . S
C2903 C1096 0.234 . S
C2908 C56 0.296 . S
C2919 C96 0.321 . S
C2924 C1136 0.216 . S
C2935 C536 0.384 . S
C2940 C136 0.405 . S
C2951 C176 0.314 . S
C2956 C576 0.220 . S
C2967 C216 0.263 . S
C2972 C496 0.263 . S
C2983 C927 0.227 . S
C2988 C247 0.410 . S
C2999 C287 0.290 . S
C3004 C847 0.430 . S
C3015 C887 0.359 . S
C3020 C327 0.420 . S
C3031 C367 0.283 . S
C3036 C1247 0.430 . S
C3047 C1287 0.200 . S
C3052 C407 0.361 . S
C3063 C1207 0.333 . S
C3068 C447 0.209 . S
C3079 C616 0.431 . S
C3084 C1016 0.312 . S
C3095 C656 0.393 . S
C3100 C1056 0.209 . S
C3111 C696 0.293 . S
C3116 C976 0.236 . S
C3127 C727 0.219 . S
C3132 C1407 0.316 . S
C3143 C767 0.404 . S
C3148 C1327 0.219 . S
C3159 C1367 0.319 . S
C3164 C807 0.430 . S
