# Generated by pormake.
# Topology wmt, (6)-cn, num edge types: 1
# Building blocks:
#     Node 0, Type 0, BuildingBlock: KUMJIN_clean_sbu_1, # of connection points: 6
#     Node 1, Type 0, BuildingBlock: KUMJIN_clean_sbu_1, # of connection points: 6
#     Node 2, Type 0, BuildingBlock: KUMJIN_clean_sbu_1, # of connection points: 6
#     Node 3, Type 0, BuildingBlock: KUMJIN_clean_sbu_1, # of connection points: 6
#     Node 4, Type 0, BuildingBlock: KUMJIN_clean_sbu_1, # of connection points: 6
#     Node 5, Type 0, BuildingBlock: KUMJIN_clean_sbu_1, # of connection points: 6
#     Node 6, Type 0, BuildingBlock: KUMJIN_clean_sbu_1, # of connection points: 6
#     Node 7, Type 0, BuildingBlock: KUMJIN_clean_sbu_1, # of connection points: 6
#     Node 8, Type 0, BuildingBlock: KUMJIN_clean_sbu_1, # of connection points: 6
#     Node 9, Type 0, BuildingBlock: KUMJIN_clean_sbu_1, # of connection points: 6
#     Node 10, Type 0, BuildingBlock: KUMJIN_clean_sbu_1, # of connection points: 6
#     Node 11, Type 0, BuildingBlock: KUMJIN_clean_sbu_1, # of connection points: 6
#     Node 12, Type 0, BuildingBlock: KUMJIN_clean_sbu_1, # of connection points: 6
#     Node 13, Type 0, BuildingBlock: KUMJIN_clean_sbu_1, # of connection points: 6
#     Node 14, Type 0, BuildingBlock: KUMJIN_clean_sbu_1, # of connection points: 6
#     Node 15, Type 0, BuildingBlock: KUMJIN_clean_sbu_1, # of connection points: 6
#     Node 16, Type 0, BuildingBlock: KUMJIN_clean_sbu_1, # of connection points: 6
#     Node 17, Type 0, BuildingBlock: KUMJIN_clean_sbu_1, # of connection points: 6
#     Node 18, Type 0, BuildingBlock: KUMJIN_clean_sbu_1, # of connection points: 6
#     Node 19, Type 0, BuildingBlock: KUMJIN_clean_sbu_1, # of connection points: 6
#     Node 20, Type 0, BuildingBlock: KUMJIN_clean_sbu_1, # of connection points: 6
#     Node 21, Type 0, BuildingBlock: KUMJIN_clean_sbu_1, # of connection points: 6
#     Node 22, Type 0, BuildingBlock: KUMJIN_clean_sbu_1, # of connection points: 6
#     Node 23, Type 0, BuildingBlock: KUMJIN_clean_sbu_1, # of connection points: 6
#     Node 24, Type 0, BuildingBlock: KUMJIN_clean_sbu_1, # of connection points: 6
#     Node 25, Type 0, BuildingBlock: KUMJIN_clean_sbu_1, # of connection points: 6
#     Node 26, Type 0, BuildingBlock: KUMJIN_clean_sbu_1, # of connection points: 6
#     Node 27, Type 0, BuildingBlock: KUMJIN_clean_sbu_1, # of connection points: 6
#     Node 28, Type 0, BuildingBlock: KUMJIN_clean_sbu_1, # of connection points: 6
#     Node 29, Type 0, BuildingBlock: KUMJIN_clean_sbu_1, # of connection points: 6
#     Node 30, Type 0, BuildingBlock: KUMJIN_clean_sbu_1, # of connection points: 6
#     Node 31, Type 0, BuildingBlock: KUMJIN_clean_sbu_1, # of connection points: 6
#     Node 32, Type 0, BuildingBlock: KUMJIN_clean_sbu_1, # of connection points: 6
#     Node 33, Type 0, BuildingBlock: KUMJIN_clean_sbu_1, # of connection points: 6
#     Node 34, Type 0, BuildingBlock: KUMJIN_clean_sbu_1, # of connection points: 6
#     Node 35, Type 0, BuildingBlock: KUMJIN_clean_sbu_1, # of connection points: 6
#     Edge 36, Type (0, 0), None
#     Edge 37, Type (0, 0), None
#     Edge 38, Type (0, 0), None
#     Edge 39, Type (0, 0), None
#     Edge 40, Type (0, 0), None
#     Edge 41, Type (0, 0), None
#     Edge 42, Type (0, 0), None
#     Edge 43, Type (0, 0), None
#     Edge 44, Type (0, 0), None
#     Edge 45, Type (0, 0), None
#     Edge 46, Type (0, 0), None
#     Edge 47, Type (0, 0), None
#     Edge 48, Type (0, 0), None
#     Edge 49, Type (0, 0), None
#     Edge 50, Type (0, 0), None
#     Edge 51, Type (0, 0), None
#     Edge 52, Type (0, 0), None
#     Edge 53, Type (0, 0), None
#     Edge 54, Type (0, 0), None
#     Edge 55, Type (0, 0), None
#     Edge 56, Type (0, 0), None
#     Edge 57, Type (0, 0), None
#     Edge 58, Type (0, 0), None
#     Edge 59, Type (0, 0), None
#     Edge 60, Type (0, 0), None
#     Edge 61, Type (0, 0), None
#     Edge 62, Type (0, 0), None
#     Edge 63, Type (0, 0), None
#     Edge 64, Type (0, 0), None
#     Edge 65, Type (0, 0), None
#     Edge 66, Type (0, 0), None
#     Edge 67, Type (0, 0), None
#     Edge 68, Type (0, 0), None
#     Edge 69, Type (0, 0), None
#     Edge 70, Type (0, 0), None
#     Edge 71, Type (0, 0), None
#     Edge 72, Type (0, 0), None
#     Edge 73, Type (0, 0), None
#     Edge 74, Type (0, 0), None
#     Edge 75, Type (0, 0), None
#     Edge 76, Type (0, 0), None
#     Edge 77, Type (0, 0), None
#     Edge 78, Type (0, 0), None
#     Edge 79, Type (0, 0), None
#     Edge 80, Type (0, 0), None
#     Edge 81, Type (0, 0), None
#     Edge 82, Type (0, 0), None
#     Edge 83, Type (0, 0), None
#     Edge 84, Type (0, 0), None
#     Edge 85, Type (0, 0), None
#     Edge 86, Type (0, 0), None
#     Edge 87, Type (0, 0), None
#     Edge 88, Type (0, 0), None
#     Edge 89, Type (0, 0), None
#     Edge 90, Type (0, 0), None
#     Edge 91, Type (0, 0), None
#     Edge 92, Type (0, 0), None
#     Edge 93, Type (0, 0), None
#     Edge 94, Type (0, 0), None
#     Edge 95, Type (0, 0), None
#     Edge 96, Type (0, 0), None
#     Edge 97, Type (0, 0), None
#     Edge 98, Type (0, 0), None
#     Edge 99, Type (0, 0), None
#     Edge 100, Type (0, 0), None
#     Edge 101, Type (0, 0), None
#     Edge 102, Type (0, 0), None
#     Edge 103, Type (0, 0), None
#     Edge 104, Type (0, 0), None
#     Edge 105, Type (0, 0), None
#     Edge 106, Type (0, 0), None
#     Edge 107, Type (0, 0), None
#     Edge 108, Type (0, 0), None
#     Edge 109, Type (0, 0), None
#     Edge 110, Type (0, 0), None
#     Edge 111, Type (0, 0), None
#     Edge 112, Type (0, 0), None
#     Edge 113, Type (0, 0), None
#     Edge 114, Type (0, 0), None
#     Edge 115, Type (0, 0), None
#     Edge 116, Type (0, 0), None
#     Edge 117, Type (0, 0), None
#     Edge 118, Type (0, 0), None
#     Edge 119, Type (0, 0), None
#     Edge 120, Type (0, 0), None
#     Edge 121, Type (0, 0), None
#     Edge 122, Type (0, 0), None
#     Edge 123, Type (0, 0), None
#     Edge 124, Type (0, 0), None
#     Edge 125, Type (0, 0), None
#     Edge 126, Type (0, 0), None
#     Edge 127, Type (0, 0), None
#     Edge 128, Type (0, 0), None
#     Edge 129, Type (0, 0), None
#     Edge 130, Type (0, 0), None
#     Edge 131, Type (0, 0), None
#     Edge 132, Type (0, 0), None
#     Edge 133, Type (0, 0), None
#     Edge 134, Type (0, 0), None
#     Edge 135, Type (0, 0), None
#     Edge 136, Type (0, 0), None
#     Edge 137, Type (0, 0), None
#     Edge 138, Type (0, 0), None
#     Edge 139, Type (0, 0), None
#     Edge 140, Type (0, 0), None
#     Edge 141, Type (0, 0), None
#     Edge 142, Type (0, 0), None
#     Edge 143, Type (0, 0), None
# Relax obj value: 0.681
# Max RMSD: 0.254
# Mean RMSD: 0.254
data_MOF--net-wmt--node1-KUMJIN_clean_sbu_1--edge1-none
_symmetry_space_group_name_H-M    P1
_symmetry_Int_Tables_number       1
_symmetry_cell_setting            triclinic
loop_
_symmetry_equiv_pos_as_xyz
'x, y, z'
_cell_length_a     42.08805
_cell_length_b     42.102052
_cell_length_c     19.038995
_cell_angle_alpha  89.860356
_cell_angle_beta   90.039192
_cell_angle_gamma 120.14816
loop_
_atom_site_label
_atom_site_type_symbol
_atom_site_fract_x
_atom_site_fract_y
_atom_site_fract_z
_atom_type_partial_charge
Eu0 Eu -0.05253 0.3991 0.11865 0.0
C1 C 0.11627 0.50078 0.18574 0.0
N2 N 0.08545 0.47117 0.21201 0.0
C3 C 0.12317 0.45838 0.28605 0.0
C4 C 0.15186 0.50741 0.20279 0.0
C5 C 0.08885 0.45292 0.26686 0.0
C6 C 0.15488 0.48501 0.25292 0.0
C7 C 0.14426 0.56063 0.13053 0.0
C8 C 0.11263 0.52799 0.1541 0.0
C9 C 0.17927 0.56471 0.13824 0.0
C10 C 0.18317 0.53843 0.1759 0.0
Eu11 Eu 0.027 0.46473 0.19403 0.0
N12 N 0.07847 0.52397 0.15243 0.0
C13 C 0.14016 0.58915 0.10378 0.0
C14 C 0.07521 0.55315 0.12899 0.0
C15 C 0.10557 0.58556 0.10364 0.0
H16 H 0.06462 0.43452 0.29658 0.0
H17 H 0.10281 0.60836 0.08569 0.0
H18 H 0.86858 0.37873 0.20558 0.0
H19 H 0.0207 0.32968 0.17908 0.0
H20 H 0.04898 0.55132 0.13199 0.0
H21 H 0.16365 0.61458 0.08579 0.0
H22 H 0.00949 0.38146 0.19924 0.0
H23 H 0.12445 0.44156 0.32606 0.0
H24 H 0.20361 0.58928 0.11986 0.0
H25 H 0.21053 0.5434 0.18748 0.0
H26 H 0.81204 0.32302 0.27344 0.0
H27 H 0.18145 0.48992 0.27041 0.0
H28 H -0.02098 0.27668 0.11332 0.0
N29 N 0.89275 0.34928 0.14522 0.0
C30 C 0.89681 0.31768 0.11385 0.0
C31 C 0.82913 0.31742 0.24105 0.0
C32 C 0.86608 0.2752 0.13055 0.0
C33 C 0.86492 0.35223 0.1985 0.0
C34 C 0.8184 0.27356 0.22615 0.0
N35 N -0.04092 0.35398 0.14337 0.0
C36 C -0.00932 0.35749 0.16933 0.0
C37 C -0.06115 0.29331 0.10638 0.0
C38 C 0.93244 0.32273 0.11458 0.0
C39 C -0.0261 0.29924 0.11757 0.0
C40 C -0.00099 0.33045 0.15322 0.0
H41 H 0.79636 0.25105 0.25454 0.0
H42 H 0.85411 0.23076 0.06845 0.0
H43 H 0.91546 0.23615 0.08106 0.0
O44 O 0.93376 0.39302 1.00827 0.0
O45 O 0.93015 0.40366 0.24492 0.0
O46 O -0.01653 0.43143 0.29968 0.0
O47 O 0.89122 0.3779 0.07921 0.0
O48 O -0.00657 0.39239 0.05284 0.0
O49 O 0.04675 0.42936 0.11231 0.0
O50 O 0.05309 0.51581 0.25159 0.0
O51 O 0.01958 0.48957 0.0992 0.0
O52 O -0.00734 0.43924 1.03628 0.0
O53 O 0.01976 0.4632 0.30665 0.0
O54 O -0.01908 0.4734 0.13498 0.0
O55 O 0.93058 0.43068 0.17967 0.0
C56 C -0.05438 0.41271 0.31043 0.0
C57 C 0.87742 0.3819 0.96249 0.0
C58 C 0.90125 0.41198 0.8565 0.0
C59 C 0.8761 0.38007 0.81992 0.0
C60 C 0.85226 0.35018 0.9283 0.0
C61 C 0.84723 0.35118 0.85631 0.0
C62 C 0.89357 0.41425 0.92497 0.0
C63 C 0.03018 0.40604 0.05528 0.0
C64 C 0.89892 0.37717 1.0157 0.0
C65 C 0.87439 0.25055 0.09975 0.0
C66 C 0.91017 0.25804 0.09477 0.0
C67 C 0.0198 0.47346 0.04201 0.0
C68 C 0.06037 0.5149 0.37416 0.0
C69 C 0.05553 0.53135 0.49226 0.0
C70 C 0.09401 0.54816 0.49851 0.0
C71 C 0.09793 0.52805 0.38183 0.0
C72 C 0.03941 0.51484 0.43018 0.0
C73 C 0.11497 0.54517 0.4446 0.0
C74 C -0.05551 0.45544 0.13444 0.0
C75 C 0.04038 0.49891 0.31092 0.0
H76 H 0.88192 0.37459 0.76823 0.0
H77 H 0.84523 0.32454 0.95241 0.0
H78 H 0.82862 0.32652 0.82883 0.0
H79 H 0.91229 0.43866 0.94866 0.0
H80 H 0.10804 0.56432 0.54337 0.0
H81 H 0.11377 0.52571 0.33948 0.0
H82 H 0.00992 0.50037 0.42668 0.0
H83 H 0.14434 0.55693 0.45077 0.0
Eu84 Eu 0.5002 0.53512 0.13195 0.0
C85 C 0.39678 0.60065 0.19504 0.0
N86 N 0.42507 0.59715 0.22089 0.0
C87 C 0.43672 0.64221 0.30662 0.0
C88 C 0.38944 0.62765 0.22116 0.0
C89 C 0.44294 0.61542 0.27888 0.0
C90 C 0.41057 0.64919 0.27697 0.0
C91 C 0.34043 0.57484 0.12775 0.0
C92 C 0.3716 0.5735 0.15205 0.0
C93 C 0.33547 0.60422 0.14711 0.0
C94 C 0.35949 0.63015 0.19533 0.0
Eu95 Eu 0.42945 0.5458 0.1933 0.0
N96 N 0.37507 0.5434 0.14235 0.0
C97 C 0.31351 0.54515 0.09002 0.0
C98 C 0.34777 0.51372 0.10724 0.0
C99 C 0.31695 0.51429 0.08057 0.0
H100 H 0.46143 0.6082 0.30411 0.0
H101 H 0.2951 0.49047 0.05499 0.0
H102 H 0.51819 0.47749 0.23974 0.0
H103 H 0.58371 0.68267 0.16728 0.0
H104 H 0.34868 0.4887 0.10321 0.0
H105 H 0.28917 0.54502 0.07095 0.0
H106 H 0.52797 0.62225 0.19633 0.0
H107 H 0.45264 0.65705 0.35045 0.0
H108 H 0.31181 0.6057 0.12901 0.0
H109 H 0.35396 0.65118 0.21418 0.0
H110 H 0.57457 0.47979 0.31197 0.0
H111 H 0.40566 0.66986 0.29923 0.0
H112 H 0.63445 0.68546 0.10444 0.0
N113 N 0.5485 0.5276 0.16456 0.0
C114 C 0.5812 0.56018 0.12559 0.0
C115 C 0.57967 0.50012 0.27267 0.0
C116 C 0.62301 0.5704 0.1425 0.0
C117 C 0.54483 0.49977 0.22698 0.0
C118 C 0.62361 0.5305 0.25098 0.0
N119 N 0.5503 0.5925 0.14701 0.0
C120 C 0.55109 0.6238 0.16856 0.0
C121 C 0.61227 0.62741 0.10871 0.0
C122 C 0.5802 0.59302 0.12101 0.0
C123 C 0.61038 0.65909 0.11462 0.0
C124 C 0.58066 0.65756 0.14861 0.0
H125 H 0.64518 0.53075 0.28184 0.0
H126 H 0.6652 0.59335 0.06854 0.0
H127 H 0.66926 0.65535 0.07702 0.0
O128 O 0.49322 0.51364 1.0256 0.0
O129 O 0.49123 0.5116 0.25347 0.0
O130 O 0.46173 0.53627 0.30286 0.0
O131 O 0.51882 0.49736 0.10378 0.0
O132 O 0.50735 0.5897 0.06918 0.0
O133 O 0.46657 0.60329 0.11972 0.0
O134 O 0.37526 0.52208 0.24148 0.0
O135 O 0.41454 0.52184 0.08753 0.0
O136 O 0.46935 0.54319 1.03619 0.0
O137 O 0.42139 0.52423 0.29841 0.0
O138 O 0.41525 0.49213 0.12646 0.0
O139 O 0.4576 0.48643 0.17627 0.0
C140 C 0.48064 0.51744 0.31628 0.0
C141 C 0.51889 0.47546 0.9903 0.0
C142 C 0.52125 0.51242 0.89687 0.0
C143 C 0.55718 0.53735 0.92198 0.0
C144 C 0.55675 0.49102 0.99186 0.0
C145 C 0.57636 0.52552 0.96427 0.0
C146 C 0.50425 0.47739 0.92641 0.0
C147 C 0.49317 0.61262 0.0685 0.0
C148 C 0.50722 0.49311 0.04131 0.0
C149 C 0.64847 0.59888 0.10124 0.0
C150 C 0.64591 0.62996 0.09523 0.0
C151 C 0.43562 0.53771 1.03392 0.0
C152 C 0.37186 0.51731 0.36532 0.0
C153 C 0.35397 0.49197 0.48109 0.0
C154 C 0.34276 0.51784 0.49466 0.0
C155 C 0.36317 0.54462 0.38006 0.0
C156 C 0.36734 0.49115 0.41555 0.0
C157 C 0.34797 0.54446 0.44495 0.0
C158 C 0.4351 0.47593 0.12567 0.0
C159 C 0.38693 0.51512 0.29936 0.0
H160 H 0.57235 0.56433 0.90281 0.0
H161 H 0.57079 0.47957 1.01992 0.0
H162 H 0.60553 0.54162 0.97384 0.0
H163 H 0.47509 0.45937 0.91969 0.0
H164 H 0.33058 0.51785 0.54414 0.0
H165 H 0.36752 0.56537 0.3415 0.0
H166 H 0.37625 0.47155 0.40519 0.0
H167 H 0.34044 0.56495 0.45693 0.0
Eu168 Eu 0.35362 0.94081 0.1265 0.0
C169 C 0.299 0.76659 0.17236 0.0
N170 N 0.29519 0.79501 0.1961 0.0
C171 C 0.23718 0.75121 0.24485 0.0
C172 C 0.27198 0.72937 0.1848 0.0
C173 C 0.26577 0.78738 0.2359 0.0
C174 C 0.24111 0.72202 0.22298 0.0
C175 C 0.33655 0.74575 0.11665 0.0
C176 C 0.33119 0.77463 0.14126 0.0
C177 C 0.30892 0.70894 0.12471 0.0
C178 C 0.27673 0.7007 0.15987 0.0
Eu179 Eu 0.34509 0.85723 0.187 0.0
N180 N 0.35817 0.81052 0.13933 0.0
C181 C 0.37034 0.75436 0.08904 0.0
C182 C 0.39151 0.81855 0.11223 0.0
C183 C 0.39813 0.7906 0.08899 0.0
H184 H 0.26578 0.80962 0.26212 0.0
H185 H 0.42536 0.79592 0.07763 0.0
H186 H 0.41789 0.01393 0.22785 0.0
H187 H 0.20611 0.88813 0.12613 0.0
H188 H 0.41407 0.8461 0.11595 0.0
H189 H 0.37604 0.73311 0.07217 0.0
H190 H 0.26197 0.88705 0.1705 0.0
H191 H 0.21214 0.74555 0.26883 0.0
H192 H 0.31281 0.68673 0.10648 0.0
H193 H 0.25592 0.67219 0.1683 0.0
H194 H 0.4209 0.06897 0.30827 0.0
H195 H 0.22 0.69404 0.23474 0.0
H196 H 0.21269 0.94271 0.07128 0.0
N197 N 0.36766 -0.00027 0.15642 0.0
C198 C 0.33631 0.0038 0.12152 0.0
C199 C 0.40046 0.05604 0.2687 0.0
C200 C 0.32918 0.03667 0.14484 0.0
C201 C 0.39732 0.02133 0.21779 0.0
C202 C 0.37231 0.07306 0.25362 0.0
N203 N 0.29836 0.93995 0.13141 0.0
C204 C 0.26429 0.91067 0.14443 0.0
C205 C 0.27111 -0.02588 0.09111 0.0
C206 C 0.30265 -0.02801 0.10815 0.0
C207 C 0.23705 0.94215 0.08797 0.0
C208 C 0.23329 0.91066 0.11825 0.0
H209 H 0.37422 0.09466 0.28757 0.0
H210 H 0.31503 0.06496 0.07326 0.0
H211 H 0.25121 0.00887 0.05559 0.0
O212 O 0.37495 0.95068 1.02104 0.0
O213 O 0.37561 0.95341 0.2503 0.0
O214 O 0.35987 0.9 0.29768 0.0
O215 O 0.39081 -0.00333 0.09022 0.0
O216 O 0.30102 0.89453 0.06223 0.0
O217 O 0.2891 0.83923 0.10802 0.0
O218 O 0.37359 0.83575 0.24695 0.0
O219 O 0.37408 0.8708 0.08577 0.0
O220 O 0.34807 0.90026 1.035 0.0
O221 O 0.34482 0.86102 0.30125 0.0
O222 O 0.40044 0.90227 0.12797 0.0
O223 O 0.40235 0.94953 0.17474 0.0
C224 C 0.37462 0.93737 0.31255 0.0
C225 C 0.41191 0.01058 0.97521 0.0
C226 C 0.41616 -0.0058 0.86202 0.0
C227 C 0.40714 0.01984 0.83573 0.0
C228 C 0.40165 0.03553 0.95391 0.0
C229 C 0.40319 0.04282 0.88304 0.0
C230 C 0.42802 -0.00204 0.92908 0.0
C231 C 0.27979 0.8576 0.05836 0.0
C232 C 0.39129 -0.01412 1.02875 0.0
C233 C 0.30548 0.03945 0.09866 0.0
C234 C 0.2739 0.00787 0.07921 0.0
C235 C 0.35779 0.87492 1.03177 0.0
C236 C 0.37333 0.83469 0.37195 0.0
C237 C 0.41064 0.84942 0.47611 0.0
C238 C 0.3941 0.81164 0.49085 0.0
C239 C 0.35433 0.79752 0.39048 0.0
C240 C 0.40047 0.86077 0.41595 0.0
C241 C 0.36504 0.78597 0.44994 0.0
C242 C 0.41431 0.93839 0.12541 0.0
C243 C 0.3664 0.84689 0.30586 0.0
H244 H 0.39948 0.01966 0.78222 0.0
H245 H 0.38898 0.04585 0.98989 0.0
H246 H 0.39525 0.0617 0.86649 0.0
H247 H 0.43555 -0.02146 0.94603 0.0
H248 H 0.40233 0.80219 0.53637 0.0
H249 H 0.33213 0.77756 0.358 0.0
H250 H 0.41242 0.8898 0.40526 0.0
H251 H 0.35086 0.75723 0.46454 0.0
Eu252 Eu 0.38197 -0.03022 0.58504 0.0
C253 C 0.47998 0.13367 0.51501 0.0
N254 N 0.44713 0.10324 0.49843 0.0
C255 C 0.43076 0.14254 0.43641 0.0
C256 C 0.48725 0.16963 0.49915 0.0
C257 C 0.42303 0.1074 0.45727 0.0
C258 C 0.46224 0.17355 0.45865 0.0
C259 C 0.54315 0.16068 0.55374 0.0
C260 C 0.50846 0.12924 0.53766 0.0
C261 C 0.54832 0.19607 0.54728 0.0
C262 C 0.52064 0.20061 0.51813 0.0
Eu263 Eu 0.43993 0.04355 0.51614 0.0
N264 N 0.50325 0.09464 0.53935 0.0
C265 C 0.57261 0.15612 0.57113 0.0
C266 C 0.53364 0.09107 0.5524 0.0
C267 C 0.5682 0.12144 0.56762 0.0
H268 H 0.39932 0.08351 0.43622 0.0
H269 H 0.59215 0.11865 0.57314 0.0
H270 H 0.35867 0.8849 0.51643 0.0
H271 H 0.33586 0.05649 0.59066 0.0
H272 H 0.53132 0.06457 0.54981 0.0
H273 H 0.59948 0.17946 0.58248 0.0
H274 H 0.36861 0.03329 0.51543 0.0
H275 H 0.41385 0.14657 0.40064 0.0
H276 H 0.5745 0.22014 0.55982 0.0
H277 H 0.52585 0.22816 0.50762 0.0
H278 H 0.30271 0.82649 0.4599 0.0
H279 H 0.46787 0.20041 0.44142 0.0
H280 H 0.27389 0.01163 0.63595 0.0
N281 N 0.33031 0.91371 0.5703 0.0
C282 C 0.29897 0.92052 0.59494 0.0
C283 C 0.29671 0.84481 0.48903 0.0
C284 C 0.2556 0.89051 0.57882 0.0
C285 C 0.33225 0.88228 0.52607 0.0
C286 C 0.25291 0.83644 0.49931 0.0
N287 N 0.33693 -0.01918 0.55816 0.0
C288 C 0.34354 0.01467 0.54241 0.0
C289 C 0.27964 -0.03431 0.60622 0.0
C290 C 0.3061 0.95617 0.59134 0.0
C291 C 0.29131 0.00246 0.6128 0.0
C292 C 0.32453 0.02747 0.58218 0.0
H293 H 0.23 0.81333 0.4749 0.0
H294 H 0.20291 0.88882 0.58909 0.0
H295 H 0.22284 0.94835 0.61873 0.0
O296 O 0.39031 -0.0317 0.69247 0.0
O297 O 0.38599 0.94764 0.46181 0.0
O298 O 0.40536 0.00024 0.40979 0.0
O299 O 0.35651 0.91684 0.64189 0.0
O300 O 0.37275 0.01182 0.66002 0.0
O301 O 0.41028 0.0661 0.60614 0.0
O302 O 0.48459 0.0553 0.44847 0.0
O303 O 0.47242 0.04383 0.60497 0.0
O304 O 0.42299 0.01411 0.67045 0.0
O305 O 0.42947 0.03854 0.40519 0.0
O306 O 0.44662 -0.0035 0.57622 0.0
O307 O 0.40964 0.94601 0.52294 0.0
C308 C 0.3905 -0.0372 0.39632 0.0
C309 C 0.3852 0.91706 0.74742 0.0
C310 C 0.39735 0.95601 0.84012 0.0
C311 C 0.36361 0.93063 0.86871 0.0
C312 C 0.35594 0.88793 0.77909 0.0
C313 C 0.34335 0.89503 0.8399 0.0
C314 C 0.41173 0.9439 0.79015 0.0
C315 C 0.38733 0.04872 0.66305 0.0
C316 C 0.3708 0.93308 0.69949 0.0
C317 C 0.23107 0.9034 0.59741 0.0
C318 C 0.24304 0.93988 0.61019 0.0
C319 C 0.45709 0.04186 0.66406 0.0
C320 C 0.48121 0.06844 0.33202 0.0
C321 C 0.50617 0.06556 0.22254 0.0
C322 C 0.5228 0.1039 0.21615 0.0
C323 C 0.49438 0.10607 0.32437 0.0
C324 C 0.48541 0.04828 0.28011 0.0
C325 C 0.51513 0.1239 0.26492 0.0
C326 C 0.42869 -0.03973 0.57746 0.0
C327 C 0.46383 0.04797 0.3932 0.0
H328 H 0.35403 0.94053 0.90897 0.0
H329 H 0.33695 0.86613 0.74711 0.0
H330 H 0.3175 0.87316 0.85871 0.0
H331 H 0.43653 -0.03504 0.767 0.0
H332 H 0.54194 0.11827 0.17482 0.0
H333 H 0.48975 0.12142 0.36458 0.0
H334 H 0.47095 0.01858 0.28297 0.0
H335 H 0.52665 0.15321 0.25836 0.0
Eu336 Eu 0.91468 0.38219 0.59004 0.0
C337 C 0.75449 0.33147 0.52002 0.0
N338 N 0.77838 0.32021 0.50062 0.0
C339 C 0.72686 0.26093 0.47366 0.0
C340 C 0.71585 0.30762 0.51765 0.0
C341 C 0.7647 0.28525 0.47852 0.0
C342 C 0.70223 0.27237 0.49157 0.0
C343 C 0.7446 0.3786 0.5684 0.0
C344 C 0.76869 0.3667 0.54374 0.0
C345 C 0.70648 0.35479 0.5686 0.0
C346 C 0.69204 0.31934 0.54241 0.0
Eu347 Eu 0.84358 0.36333 0.50802 0.0
N348 N 0.80609 0.38911 0.54477 0.0
C349 C 0.75936 0.41478 0.58843 0.0
C350 C 0.82015 0.42417 0.56692 0.0
C351 C 0.79678 0.43785 0.58306 0.0
H352 H 0.78334 0.27701 0.46305 0.0
H353 H 0.80625 0.46621 0.5859 0.0
H354 H -0.00738 0.45 0.48551 0.0
H355 H 0.85718 0.23591 0.55956 0.0
H356 H 0.8491 0.44166 0.56781 0.0
H357 H 0.74209 0.42572 0.60421 0.0
H358 H 0.85829 0.29305 0.51865 0.0
H359 H 0.71665 0.23317 0.45658 0.0
H360 H 0.68799 0.36386 0.58717 0.0
H361 H 0.6625 0.30122 0.54161 0.0
H362 H 0.04951 0.45292 0.41049 0.0
H363 H 0.67291 0.25343 0.48742 0.0
H364 H 0.90787 0.23841 0.62076 0.0
N365 N -0.02634 0.39738 0.55107 0.0
C366 C -0.02538 0.36363 0.58411 0.0
C367 C 0.03495 0.43177 0.44819 0.0
C368 C 0.00788 0.35591 0.56592 0.0
C369 C -0.00135 0.42845 0.49462 0.0
C370 C 0.05015 0.40199 0.46379 0.0
N371 N 0.90956 0.32688 0.56855 0.0
C372 C 0.88029 0.29416 0.54953 0.0
C373 C -0.05862 0.29685 0.60744 0.0
C374 C -0.0588 0.32956 0.59205 0.0
C375 C 0.90855 0.26375 0.6072 0.0
C376 C 0.87864 0.26215 0.57389 0.0
H377 H 0.07298 0.40432 0.43312 0.0
H378 H 0.03034 0.33411 0.63721 0.0
H379 H -0.02622 0.27179 0.63039 0.0
O380 O 0.93685 0.37605 0.68695 0.0
O381 O 0.93315 0.40715 0.46115 0.0
O382 O 0.88361 0.37205 0.40307 0.0
O383 O -0.03034 0.42405 0.62511 0.0
O384 O 0.87975 0.33139 0.66504 0.0
O385 O 0.82831 0.31064 0.59896 0.0
O386 O 0.83311 0.39498 0.43586 0.0
O387 O 0.81454 0.34793 0.60957 0.0
O388 O 0.86846 0.38726 0.65855 0.0
O389 O 0.8256 0.3408 0.40157 0.0
O390 O 0.89748 0.42488 0.52808 0.0
O391 O 0.8993 0.41883 0.63827 0.0
C392 C 0.91953 0.39841 0.39359 0.0
C393 C -0.02522 0.4282 0.74462 0.0
C394 C -0.05965 0.43295 0.83633 0.0
C395 C -0.0318 0.43831 0.88276 0.0
C396 C 0.00024 0.42839 0.79044 0.0
C397 C -0.00049 0.43787 0.85936 0.0
C398 C -0.05167 0.4359 0.76763 0.0
C399 C 0.84428 0.30655 0.66093 0.0
C400 C -0.03297 0.40732 0.68312 0.0
C401 C 0.00684 0.3286 0.60799 0.0
C402 C -0.02604 0.29683 0.61706 0.0
C403 C 0.83178 0.36884 0.66166 0.0
C404 C 0.81005 0.37684 0.32124 0.0
C405 C 0.82097 0.42021 0.2264 0.0
C406 C 0.78278 0.40775 0.22736 0.0
C407 C 0.77239 0.36308 0.31754 0.0
C408 C 0.83364 0.40289 0.27188 0.0
C409 C 0.75867 0.37813 0.26942 0.0
C410 C 0.91404 0.44053 0.58874 0.0
C411 C 0.82662 0.37188 0.38429 0.0
H412 H -0.0348 0.44227 0.93647 0.0
H413 H 0.01826 0.41889 0.77244 0.0
H414 H 0.01965 0.43913 0.89619 0.0
H415 H 0.9282 0.43538 0.73499 0.0
H416 H 0.77106 0.41976 0.19311 0.0
H417 H 0.75412 0.34259 0.35485 0.0
H418 H 0.86253 0.41266 0.27519 0.0
H419 H 0.72943 0.368 0.2669 0.0
Eu420 Eu 0.50697 0.51384 0.58953 0.0
C421 C 0.56669 0.40934 0.52043 0.0
N422 N 0.57036 0.44183 0.49952 0.0
C423 C 0.62759 0.4574 0.44549 0.0
C424 C 0.59472 0.40076 0.50942 0.0
C425 C 0.59867 0.46403 0.45748 0.0
C426 C 0.62569 0.42567 0.47211 0.0
C427 C 0.52672 0.34727 0.55964 0.0
C428 C 0.5329 0.3827 0.54172 0.0
C429 C 0.55572 0.33994 0.55739 0.0
C430 C 0.58971 0.36657 0.53086 0.0
Eu431 Eu 0.52132 0.45404 0.51438 0.0
N432 N 0.50532 0.39052 0.53896 0.0
C433 C 0.49107 0.31936 0.57269 0.0
C434 C 0.47012 0.36229 0.54896 0.0
C435 C 0.46276 0.32663 0.56341 0.0
H436 H 0.59696 0.48548 0.43141 0.0
H437 H 0.43526 0.30425 0.56108 0.0
H438 H 0.44293 0.52916 0.49936 0.0
H439 H 0.65374 0.59614 0.56529 0.0
H440 H 0.44782 0.36744 0.54314 0.0
H441 H 0.48491 0.29158 0.5837 0.0
H442 H 0.59412 0.54399 0.52656 0.0
H443 H 0.65082 0.47631 0.41471 0.0
H444 H 0.55141 0.31304 0.57117 0.0
H445 H 0.61124 0.35987 0.52392 0.0
H446 H 0.44382 0.58058 0.41702 0.0
H447 H 0.64719 0.41961 0.46061 0.0
H448 H 0.65639 0.65002 0.61871 0.0
N449 N 0.49699 0.56207 0.56516 0.0
C450 C 0.53125 0.59643 0.59637 0.0
C451 C 0.46554 0.58849 0.45505 0.0
C452 C 0.54144 0.63761 0.57245 0.0
C453 C 0.46668 0.55594 0.50657 0.0
C454 C 0.49719 0.63358 0.46704 0.0
N455 N 0.56376 0.56528 0.57711 0.0
C456 C 0.59526 0.5665 0.55569 0.0
C457 C 0.59847 0.62808 0.60928 0.0
C458 C 0.56406 0.59544 0.60124 0.0
C459 C 0.63015 0.62594 0.60774 0.0
C460 C 0.62872 0.59524 0.57829 0.0
H461 H 0.49616 0.65394 0.43362 0.0
H462 H 0.56395 0.68162 0.64312 0.0
H463 H 0.62645 0.68609 0.63293 0.0
O464 O 0.48492 0.49151 0.6938 0.0
O465 O 0.48154 0.507 0.46444 0.0
O466 O 0.51453 0.48883 0.4097 0.0
O467 O 0.47918 0.53646 0.65231 0.0
O468 O 0.56097 0.52025 0.65045 0.0
O469 O 0.57854 0.48634 0.58856 0.0
O470 O 0.4849 0.41349 0.4425 0.0
O471 O 0.49425 0.42465 0.60943 0.0
O472 O 0.51621 0.47624 0.67023 0.0
O473 O 0.53073 0.46633 0.404 0.0
O474 O 0.4677 0.44606 0.58063 0.0
O475 O 0.4571 0.48423 0.52561 0.0
C476 C 0.49162 0.50281 0.39858 0.0
C477 C 0.45434 0.51368 0.7685 0.0
C478 C 0.49994 0.52423 0.85297 0.0
C479 C 0.5149 0.56097 0.83353 0.0
C480 C 0.45959 0.54855 0.77984 0.0
C481 C 0.49429 0.57373 0.8001 0.0
C482 C 0.46552 0.49964 0.82354 0.0
C483 C 0.58546 0.5085 0.64599 0.0
C484 C 0.47314 0.51417 0.70387 0.0
C485 C 0.56951 0.66406 0.61222 0.0
C486 C 0.60079 0.66197 0.61858 0.0
C487 C 0.51028 0.4424 0.66517 0.0
C488 C 0.50345 0.41611 0.32702 0.0
C489 C 0.47121 0.38817 0.22193 0.0
C490 C 0.49131 0.36987 0.21578 0.0
C491 C 0.52702 0.40208 0.31764 0.0
C492 C 0.47735 0.41083 0.27768 0.0
C493 C 0.52063 0.37843 0.26136 0.0
C494 C 0.44797 0.46272 0.57738 0.0
C495 C 0.5022 0.43434 0.38871 0.0
H496 H 0.54268 0.58018 0.84186 0.0
H497 H 0.44682 0.55957 0.74818 0.0
H498 H 0.50626 0.60142 0.78096 0.0
H499 H 0.45432 0.47035 0.82594 0.0
H500 H 0.48507 0.34996 0.17497 0.0
H501 H 0.54853 0.40771 0.35521 0.0
H502 H 0.4633 0.4264 0.28045 0.0
H503 H 0.53748 0.36594 0.25435 0.0
Eu504 Eu 0.84531 0.45329 1.01009 0.0
C505 C -0.02109 0.59911 0.09486 0.0
N506 N -0.02115 0.56564 0.05986 0.0
C507 C 0.03456 0.59449 0.94632 0.0
C508 C 0.00857 0.64079 0.07015 0.0
C509 C 0.00236 0.56105 0.99818 0.0
C510 C 0.04675 0.63839 0.96012 0.0
C511 C -0.05716 0.62876 0.11834 0.0
C512 C -0.05514 0.59667 0.10576 0.0
C513 C -0.02578 0.66294 0.12734 0.0
C514 C 0.00765 0.66651 0.11319 0.0
Eu515 Eu 0.92137 0.51576 0.08486 0.0
N516 N 0.91495 0.56674 0.07986 0.0
C517 C 0.90924 0.62659 0.11641 0.0
C518 C 0.88441 0.56794 0.06095 0.0
C519 C 0.87993 0.59629 0.0857 0.0
H520 H -0.00123 0.53456 0.99308 0.0
H521 H 0.85613 0.59755 0.07237 0.0
H522 H 0.80508 0.48646 0.92262 0.0
H523 H 0.7815 0.3217 0.1608 0.0
H524 H 0.86338 0.54655 1.0292 0.0
H525 H 0.90774 0.651 0.12663 0.0
H526 H 0.833 0.37798 0.10689 0.0
H527 H 0.05085 0.58983 0.9105 0.0
H528 H -0.02736 0.68651 0.14514 0.0
H529 H 0.03182 0.68508 0.13985 0.0
H530 H 0.74239 0.47639 0.89792 0.0
H531 H 0.06665 0.65891 0.92554 0.0
H532 H 0.71796 0.30599 0.14185 0.0
N533 N 0.78588 0.44282 0.99079 0.0
C534 C 0.75658 0.41117 1.01447 0.0
C535 C 0.74578 0.45775 0.93049 0.0
C536 C 0.72028 0.40253 0.9993 0.0
C537 C 0.781 0.46467 0.94628 0.0
C538 C 0.71523 0.42662 0.9572 0.0
N539 N 0.79844 0.39434 0.05766 0.0
C540 C 0.8053 0.37151 0.09804 0.0
C541 C 0.73291 0.35425 0.07881 0.0
C542 C 0.76292 0.38654 0.05039 0.0
C543 C 0.74008 0.33083 0.11861 0.0
C544 C 0.77632 0.33976 0.12916 0.0
H545 H 0.68793 0.42103 0.94438 0.0
H546 H 0.66238 0.36312 1.01386 0.0
H547 H 0.67347 0.32137 0.08685 0.0
O548 O 0.82076 0.40292 0.94776 0.0
O549 O 0.82463 0.44542 0.11609 0.0
O550 O 0.88069 0.46797 0.1671 0.0
O551 O 0.84265 0.45729 0.89701 0.0
O552 O 0.88519 0.43627 0.06917 0.0
O553 O 0.93566 0.48139 1.02972 0.0
O554 O 0.93288 0.5083 0.19139 0.0
O555 O -0.06113 0.5097 0.95876 0.0
O556 O 0.88711 0.48502 0.90305 0.0
O557 O -0.02227 0.53767 0.11862 0.0
O558 O 0.87981 0.52366 0.15981 0.0
O559 O 0.8285 0.49195 0.09231 0.0
C560 C 0.84396 0.44623 0.16933 0.0
C561 C 0.80653 0.40383 0.8245 0.0
C562 C 0.80972 0.37519 0.71573 0.0
C563 C 0.77097 0.35386 0.71621 0.0
C564 C 0.76813 0.38408 0.82235 0.0
C565 C 0.7504 0.35996 0.76667 0.0
C566 C 0.82653 0.40273 0.76644 0.0
C567 C 0.92175 0.4542 0.07068 0.0
C568 C 0.82696 0.42165 0.88896 0.0
C569 C 0.69039 0.36998 1.02509 0.0
C570 C 0.69671 0.3462 0.06617 0.0
C571 C 0.92444 0.5017 0.89245 0.0
C572 C -0.00642 0.5332 0.23266 0.0
C573 C -0.02493 0.51846 0.34677 0.0
C574 C 0.0031 0.55425 0.36768 0.0
C575 C 0.0194 0.56938 0.24784 0.0
C576 C -0.02073 0.5067 0.28341 0.0
C577 C 0.0258 0.57912 0.31746 0.0
C578 C 0.84391 0.5124 0.15408 0.0
C579 C -0.03196 0.52698 0.18049 0.0
H580 H 0.75641 0.33262 0.67749 0.0
H581 H 0.75208 0.38639 0.86429 0.0
H582 H 0.7207 0.34456 0.76454 0.0
H583 H 0.8558 0.42116 0.76402 0.0
H584 H 0.00626 0.565 0.41956 0.0
H585 H 0.03004 0.59048 0.20787 0.0
H586 H -0.03883 0.47864 0.26893 0.0
H587 H 0.04379 0.60701 0.33155 0.0
Eu588 Eu 0.44185 0.37436 1.01413 0.0
C589 C 0.29802 0.35414 0.08047 0.0
N590 N 0.32863 0.39378 0.06114 0.0
C591 C 0.29303 0.43066 0.9905 0.0
C592 C 0.25434 0.34018 0.0666 0.0
C593 C 0.32964 0.42858 1.02343 0.0
C594 C 0.24955 0.39356 0.99806 0.0
C595 C 0.2813 0.29024 0.08784 0.0
C596 C 0.30652 0.32656 0.07356 0.0
C597 C 0.24443 0.27847 0.0909 0.0
C598 C 0.23082 0.30168 0.07943 0.0
Eu599 Eu 0.38074 0.39025 0.07877 0.0
N600 N 0.33863 0.33454 0.04419 0.0
C601 C 0.29505 0.26679 0.09972 0.0
C602 C 0.34758 0.30861 1.03183 0.0
C603 C 0.32972 0.27703 0.07341 0.0
H604 H 0.35616 0.45274 1.01502 0.0
H605 H 0.34106 0.25907 0.07913 0.0
H606 H 0.40883 0.30387 0.91242 0.0
H607 H 0.58547 0.43995 0.12348 0.0
H608 H 0.37327 0.31623 1.00622 0.0
H609 H 0.2784 0.2398 0.12238 0.0
H610 H 0.52843 0.43691 0.08672 0.0
H611 H 0.29768 0.45536 0.96425 0.0
H612 H 0.22551 0.25086 0.10537 0.0
H613 H 0.20211 0.28709 0.07269 0.0
H614 H 0.4213 0.2557 0.87279 0.0
H615 H 0.22594 0.39399 0.9774 0.0
H616 H 0.59262 0.386 0.11357 0.0
N617 N 0.44772 0.32151 0.99302 0.0
C618 C 0.47829 0.32088 1.01541 0.0
C619 C 0.4347 0.27126 0.91748 0.0
C620 C 0.48503 0.29224 0.99615 0.0
C621 C 0.42754 0.29842 0.94087 0.0
C622 C 0.46204 0.26672 0.9475 0.0
N623 N 0.50172 0.38157 0.05168 0.0
C624 C 0.53074 0.41313 0.07902 0.0
C625 C 0.53882 0.35245 0.06775 0.0
C626 C 0.5059 0.35163 0.04647 0.0
C627 C 0.56727 0.38441 0.09648 0.0
C628 C 0.56333 0.41497 0.10149 0.0
H629 H 0.46739 0.24571 0.92798 0.0
H630 H 0.52166 0.27009 1.00529 0.0
H631 H 0.56808 0.32227 0.07283 0.0
O632 O 0.49148 0.40336 0.9557 0.0
O633 O 0.46737 0.40668 0.10727 0.0
O634 O 0.41672 0.38472 0.1681 0.0
O635 O 0.43784 0.37797 0.90205 0.0
O636 O 0.44959 0.42944 0.07155 0.0
O637 O 0.41112 0.44085 1.01809 0.0
O638 O 0.39799 0.41147 0.18165 0.0
O639 O 0.38637 0.41659 0.95766 0.0
O640 O 0.4077 0.38407 0.90754 0.0
O641 O 0.35173 0.41296 0.13471 0.0
O642 O 0.37339 0.33823 0.153 0.0
O643 O 0.4112 0.32124 0.10166 0.0
C644 C 0.45036 0.39051 0.16377 0.0
C645 C 0.49054 0.39484 0.83469 0.0
C646 C 0.51367 0.42209 0.72327 0.0
C647 C 0.52839 0.39882 0.7142 0.0
C648 C 0.50215 0.36931 0.82478 0.0
C649 C 0.52203 0.37193 0.76438 0.0
C650 C 0.49602 0.42075 0.78441 0.0
C651 C 0.43445 0.4505 0.06652 0.0
C652 C 0.47361 0.39743 0.89698 0.0
C653 C 0.51672 0.29225 1.01902 0.0
C654 C 0.54323 0.32202 0.05665 0.0
C655 C 0.39257 0.4065 0.89366 0.0
C656 C 0.37795 0.4486 0.23876 0.0
C657 C 0.38165 0.41223 0.32498 0.0
C658 C 0.34364 0.3922 0.3235 0.0
C659 C 0.34274 0.43975 0.25701 0.0
C660 C 0.39865 0.44635 0.29327 0.0
C661 C 0.32338 0.40702 0.29285 0.0
C662 C 0.38797 0.31567 0.1577 0.0
C663 C 0.37384 0.42191 0.18622 0.0
H664 H 0.5448 0.40156 0.66901 0.0
H665 H 0.49742 0.34893 0.86445 0.0
H666 H 0.53269 0.35353 0.75676 0.0
H667 H 0.48497 0.43892 0.79147 0.0
H668 H 0.33146 0.36444 0.33789 0.0
H669 H 0.32828 0.44738 0.22147 0.0
H670 H 0.42755 0.45863 0.28671 0.0
H671 H 0.29475 0.39103 0.28163 0.0
Eu672 Eu 0.52094 0.0474 1.02098 0.0
C673 C 0.54177 0.9243 0.07844 0.0
N674 N 0.50275 0.91798 0.06413 0.0
C675 C 0.45966 0.8461 0.9936 0.0
C676 C 0.55246 0.89277 0.05999 0.0
C677 C 0.46587 0.88582 1.02957 0.0
C678 C 0.49439 0.83636 0.99551 0.0
C679 C 0.6068 -0.0314 0.08775 0.0
C680 C 0.57079 -0.04013 0.07559 0.0
C681 C 0.61638 0.94193 0.08455 0.0
C682 C 0.591 0.90595 0.06905 0.0
Eu683 Eu 0.50795 -0.02638 0.08598 0.0
N684 N 0.5644 -0.01367 0.0537 0.0
C685 C 0.63203 0.00496 0.10501 0.0
C686 C 0.59194 0.021 0.0456 0.0
C687 C 0.62345 0.03174 0.08641 0.0
H688 H 0.44242 0.88955 1.02553 0.0
H689 H 0.64349 0.0606 0.09248 0.0
H690 H 0.60049 0.09063 0.93939 0.0
H691 H 0.44312 0.11896 0.07974 0.0
H692 H 0.58611 0.0408 1.0225 0.0
H693 H 0.65915 0.01317 0.12469 0.0
H694 H 0.45149 0.06607 0.05555 0.0
H695 H 0.43395 0.82764 0.96808 0.0
H696 H 0.64445 0.94907 0.09211 0.0
H697 H 0.60497 0.89319 0.05006 0.0
H698 H 0.65223 0.15491 0.91619 0.0
H699 H 0.4914 0.81174 0.97265 0.0
H700 H 0.49533 0.18019 0.09514 0.0
N701 N 0.57378 0.10796 1.00873 0.0
C702 C 0.57152 0.1378 1.02932 0.0
C703 C 0.63034 0.14939 0.95068 0.0
C704 C 0.60055 0.17424 1.01791 0.0
C705 C 0.60196 0.11361 0.96609 0.0
C706 C 0.62986 0.17957 0.97721 0.0
N707 N 0.50917 0.09763 0.04843 0.0
C708 C 0.47496 0.09281 0.06107 0.0
C709 C 0.53433 0.1631 0.06861 0.0
C710 C 0.53826 0.13246 0.05022 0.0
C711 C 0.49967 0.15747 0.08334 0.0
C712 C 0.46993 0.12246 0.07688 0.0
H713 H 0.65112 0.20694 0.96217 0.0
H714 H 0.6204 0.2323 1.03361 0.0
H715 H 0.56205 0.22224 0.0817 0.0
O716 O 0.49407 0.06545 0.94933 0.0
O717 O 0.48645 0.04166 0.10949 0.0
O718 O 0.51393 0.01752 0.16864 0.0
O719 O 0.52707 0.04133 0.91135 0.0
O720 O 0.46213 0.00131 0.07513 0.0
O721 O 0.45723 0.95278 1.02846 0.0
O722 O 0.47821 -0.03312 0.18112 0.0
O723 O 0.48096 0.95135 0.96347 0.0
O724 O 0.50948 0.00423 0.91143 0.0
O725 O 0.48806 0.92343 0.14774 0.0
O726 O 0.56042 0.01697 0.16177 0.0
O727 O 0.57564 0.07116 0.11033 0.0
C728 C 0.50413 0.04253 0.16483 0.0
C729 C 0.51 0.07327 0.83029 0.0
C730 C 0.47991 0.06621 0.72025 0.0
C731 C 0.50008 0.1046 0.71129 0.0
C732 C 0.53219 0.11106 0.82038 0.0
C733 C 0.52732 0.12683 0.7597 0.0
C734 C 0.48619 0.05118 0.77871 0.0
C735 C 0.4422 -0.0352 0.06935 0.0
C736 C 0.5061 0.05522 0.89591 0.0
C737 C 0.59778 0.20443 0.04041 0.0
C738 C 0.56465 0.19876 0.06711 0.0
C739 C 0.48832 -0.03348 0.89751 0.0
C740 C 0.44487 0.90988 0.24364 0.0
C741 C 0.48505 0.95073 0.32382 0.0
C742 C 0.50462 0.93249 0.31687 0.0
C743 C 0.45357 0.88316 0.25963 0.0
C744 C 0.44951 0.93362 0.29792 0.0
C745 C 0.48797 0.89681 0.28912 0.0
C746 C 0.58345 0.05421 0.16577 0.0
C747 C 0.4682 0.93223 0.18525 0.0
H748 H 0.49457 0.11736 0.6678 0.0
H749 H 0.55162 0.12811 0.86027 0.0
H750 H 0.54342 0.15623 0.75162 0.0
H751 H 0.47258 0.02193 0.78426 0.0
H752 H 0.53266 0.94727 0.32816 0.0
H753 H 0.44507 0.86124 0.2237 0.0
H754 H 0.43742 0.95065 0.29346 0.0
H755 H 0.50342 0.88353 0.27733 0.0
Eu756 Eu 0.42739 0.85842 0.69185 0.0
C757 C 0.58351 0.01036 0.60223 0.0
N758 N 0.5475 0.00321 0.63997 0.0
C759 C 0.56902 0.04432 0.77247 0.0
C760 C 0.62353 0.03898 0.63624 0.0
C761 C 0.53898 0.01773 0.71095 0.0
C762 C 0.61371 0.06143 0.7598 0.0
C763 C 0.62026 -0.01651 0.5657 0.0
C764 C 0.58549 -0.01991 0.57958 0.0
C765 C 0.6512 0.01716 0.55956 0.0
C766 C 0.65155 0.04679 0.5894 0.0
Eu767 Eu 0.50081 0.94418 0.61759 0.0
N768 N 0.55733 0.9468 0.59671 0.0
C769 C 0.62351 0.95288 0.5578 0.0
C770 C 0.56302 0.91788 0.59999 0.0
C771 C 0.593 0.91949 0.56706 0.0
H772 H 0.51194 0.01392 0.71632 0.0
H773 H 0.59481 0.89574 0.55466 0.0
H774 H 0.46489 0.81372 0.75978 0.0
H775 H 0.28703 0.79458 0.57341 0.0
H776 H 0.54349 0.89377 0.62572 0.0
H777 H 0.64919 0.95493 0.54272 0.0
H778 H 0.34688 0.84536 0.61632 0.0
H779 H 0.56131 0.0554 0.81432 0.0
H780 H 0.67472 0.01849 0.5353 0.0
H781 H 0.67257 0.07423 0.58083 0.0
H782 H 0.45742 0.75139 0.75874 0.0
H783 H 0.63209 0.08085 0.7978 0.0
H784 H 0.27297 0.73136 0.57988 0.0
N785 N 0.41765 0.79764 0.70028 0.0
C786 C 0.38461 0.7685 0.68095 0.0
C787 C 0.43573 0.75574 0.74169 0.0
C788 C 0.37542 0.73181 0.69478 0.0
C789 C 0.44191 0.79132 0.73483 0.0
C790 C 0.40124 0.72581 0.72761 0.0
N791 N 0.36759 0.81086 0.64592 0.0
C792 C 0.34217 0.8179 0.61591 0.0
C793 C 0.32495 0.74559 0.62798 0.0
C794 C 0.35925 0.77527 0.65077 0.0
C795 C 0.29965 0.7532 0.59705 0.0
C796 C 0.30814 0.78938 0.5916 0.0
H797 H 0.39547 0.69816 0.73864 0.0
H798 H 0.33417 0.67414 0.68456 0.0
H799 H 0.28992 0.68632 0.62359 0.0
O800 O 0.37714 0.83311 0.75209 0.0
O801 O 0.41063 0.87071 0.58974 0.0
O802 O 0.46414 0.90218 0.53099 0.0
O803 O 0.43143 0.86147 0.80631 0.0
O804 O 0.41257 0.90005 0.63513 0.0
O805 O 0.46029 0.94864 0.6741 0.0
O806 O 0.48087 0.95217 0.5196 0.0
O807 O 0.49013 0.95586 0.74795 0.0
O808 O 0.45612 0.9029 0.79953 0.0
O809 O 0.51736 -0.00068 0.58046 0.0
O810 O 0.49995 0.8937 0.55246 0.0
O811 O 0.46509 0.84036 0.61376 0.0
C812 C 0.42951 0.87544 0.53299 0.0
C813 C 0.37636 0.83261 0.87769 0.0
C814 C 0.3507 0.84939 0.97439 0.0
C815 C 0.32647 0.81177 0.98741 0.0
C816 C 0.35395 0.79541 0.89369 0.0
C817 C 0.32915 0.78502 0.94909 0.0
C818 C 0.37672 0.85949 0.92107 0.0
C819 C 0.43276 0.93633 0.6336 0.0
C820 C 0.39539 0.84339 0.81112 0.0
C821 C 0.34126 0.7023 0.67437 0.0
C822 C 0.31621 0.7092 0.6397 0.0
C823 C 0.47742 0.94064 0.81249 0.0
C824 C 0.51303 0.00721 0.46201 0.0
C825 C 0.503 -0.0114 0.34645 0.0
C826 C 0.53966 0.01338 0.3304 0.0
C827 C 0.55059 0.02963 0.45145 0.0
C828 C 0.48884 -0.00704 0.40694 0.0
C829 C 0.56364 0.03432 0.38365 0.0
C830 C 0.48771 0.85712 0.55613 0.0
C831 C 0.49866 -0.01234 0.52442 0.0
H832 H 0.30735 0.80291 1.03074 0.0
H833 H 0.3548 0.77455 0.86187 0.0
H834 H 0.31182 0.75627 0.96213 0.0
H835 H 0.39686 0.88822 0.91268 0.0
H836 H 0.55001 0.01301 0.28032 0.0
H837 H 0.56965 0.04146 0.49461 0.0
H838 H 0.45976 -0.02501 0.41745 0.0
H839 H 0.59268 0.05072 0.37517 0.0
Eu840 Eu 0.02771 0.54602 0.69323 0.0
C841 C 0.91367 0.56862 0.65065 0.0
N842 N 0.91016 0.53479 0.69084 0.0
C843 C 0.84403 0.50702 0.7801 0.0
C844 C 0.88165 0.58077 0.65547 0.0
C845 C 0.88118 0.50711 0.74782 0.0
C846 C 0.83248 0.53728 0.7515 0.0
C847 C -0.0446 0.62789 0.60493 0.0
C848 C -0.05125 0.59671 0.63975 0.0
C849 C 0.92708 0.63538 0.59493 0.0
C850 C 0.89151 0.61363 0.61921 0.0
Eu851 Eu -0.04153 0.53565 0.62286 0.0
N852 N -0.02355 0.5923 0.66278 0.0
C853 C -0.00833 0.65226 0.58481 0.0
C854 C 0.0112 0.61979 0.66103 0.0
C855 C 0.02011 0.64947 0.61613 0.0
H856 H 0.88008 0.4818 0.76104 0.0
H857 H 0.04852 0.67067 0.6095 0.0
H858 H 0.07823 0.63226 0.75478 0.0
H859 H 0.08847 0.4554 0.6786 0.0
H860 H 0.03183 0.61627 0.68641 0.0
H861 H -0.00147 0.67601 0.55292 0.0
H862 H 0.03971 0.46962 0.69127 0.0
H863 H 0.82461 0.48494 0.8124 0.0
H864 H 0.93291 0.65959 0.56787 0.0
H865 H 0.87432 0.6252 0.61485 0.0
H866 H 0.14152 0.67612 0.78307 0.0
H867 H 0.8085 0.53619 0.77425 0.0
H868 H 0.1503 0.50339 0.63844 0.0
N869 N 0.09034 0.59645 0.69926 0.0
C870 C 0.11803 0.58966 0.68328 0.0
C871 C 0.13559 0.65368 0.74971 0.0
C872 C 0.15557 0.61703 0.69051 0.0
C873 C 0.09925 0.62832 0.73304 0.0
C874 C 0.16403 0.64895 0.72608 0.0
N875 N 0.07387 0.5269 0.67845 0.0
C876 C 0.06699 0.49137 0.68207 0.0
C877 C 0.13794 0.54638 0.65523 0.0
C878 C 0.1095 0.55414 0.67113 0.0
C879 C 0.12933 0.5101 0.65041 0.0
C880 C 0.09432 0.48281 0.66894 0.0
H881 H 0.19221 0.66902 0.73905 0.0
H882 H 0.21222 0.63139 0.67282 0.0
H883 H 0.19634 0.56923 0.63708 0.0
O884 O 0.02985 0.51151 0.77456 0.0
O885 O 0.037 0.51777 0.60989 0.0
O886 O 0.00412 0.53515 0.54638 0.0
O887 O 0.04336 0.56851 0.79773 0.0
O888 O -0.0289 0.48714 0.66196 0.0
O889 O -0.03748 0.49656 0.5551 0.0
O890 O 0.92997 0.5479 0.54181 0.0
O891 O -0.06129 0.50359 0.74307 0.0
O892 O -0.01273 0.54043 0.79872 0.0
O893 O 0.90288 0.49596 0.59323 0.0
O894 O -0.00271 0.58443 0.54095 0.0
O895 O 0.05092 0.59725 0.59308 0.0
C896 C 0.03169 0.52821 0.55118 0.0
C897 C 0.05724 0.53548 0.8854 0.0
C898 C 0.04564 0.49624 0.98606 0.0
C899 C 0.08381 0.51142 0.99359 0.0
C900 C 0.09496 0.55468 0.89886 0.0
C901 C 0.10834 0.5422 0.95346 0.0
C902 C 0.03341 0.50956 0.93261 0.0
C903 C -0.04726 0.47305 0.60062 0.0
C904 C 0.04 0.53764 0.82103 0.0
C905 C 0.18353 0.61015 0.66983 0.0
C906 C 0.17453 0.57483 0.65014 0.0
C907 C -0.049 0.51489 0.81002 0.0
C908 C 0.90147 0.49843 0.47441 0.0
C909 C -0.06194 0.49803 0.37887 0.0
C910 C 0.90517 0.47518 0.34235 0.0
C911 C 0.86949 0.47656 0.44044 0.0
C912 C 0.93472 0.50844 0.44364 0.0
C913 C 0.87108 0.46523 0.3736 0.0
C914 C 0.03432 0.60502 0.53614 0.0
C915 C 0.90284 0.51471 0.53975 0.0
H916 H 0.09451 0.5001 1.03137 0.0
H917 H 0.11374 0.57659 0.86432 0.0
H918 H 0.13765 0.55503 0.96218 0.0
H919 H 0.00475 0.49996 0.92656 0.0
H920 H 0.90558 0.46817 0.28867 0.0
H921 H 0.84425 0.47059 0.46463 0.0
H922 H -0.04126 0.52893 0.46791 0.0
H923 H 0.84615 0.45419 0.34451 0.0
Eu924 Eu 0.34452 0.46357 0.69501 0.0
C925 C 0.33817 0.31666 0.61036 0.0
N926 N 0.36854 0.35148 0.64871 0.0
C927 C 0.39471 0.32627 0.76865 0.0
C928 C 0.32877 0.27579 0.63581 0.0
C929 C 0.39478 0.35812 0.71518 0.0
C930 C 0.36688 0.28161 0.75162 0.0
C931 C 0.27375 0.28196 0.57695 0.0
C932 C 0.30558 0.31583 0.5934 0.0
C933 C 0.27558 0.25036 0.56595 0.0
C934 C 0.30601 0.24945 0.58868 0.0
Eu935 Eu 0.35833 0.39906 0.6222 0.0
N936 N 0.30188 0.34412 0.61634 0.0
C937 C 0.2399 0.27937 0.57813 0.0
C938 C 0.26782 0.33919 0.62991 0.0
C939 C 0.23673 0.3076 0.60728 0.0
H940 H 0.41879 0.38479 0.72241 0.0
H941 H 0.20991 0.30239 0.62014 0.0
H942 H 0.26404 0.43008 0.753 0.0
H943 H 0.43572 0.61277 0.65866 0.0
H944 H 0.26516 0.35973 0.65846 0.0
H945 H 0.21552 0.25334 0.56677 0.0
H946 H 0.41771 0.54587 0.65713 0.0
H947 H 0.41522 0.33409 0.8086 0.0
H948 H 0.25271 0.22638 0.54283 0.0
H949 H 0.31429 0.23153 0.56879 0.0
H950 H 0.2092 0.43896 0.75558 0.0
H951 H 0.36868 0.26172 0.78537 0.0
H952 H 0.38906 0.62996 0.64168 0.0
N953 N 0.29679 0.4785 0.70418 0.0
C954 C 0.30224 0.51218 0.68828 0.0
C955 C 0.23549 0.46026 0.73765 0.0
C956 C 0.27443 0.52135 0.69504 0.0
C957 C 0.26485 0.45379 0.73299 0.0
C958 C 0.24085 0.49493 0.72141 0.0
N959 N 0.36229 0.52788 0.6735 0.0
C960 C 0.39767 0.55426 0.66131 0.0
C961 C 0.34486 0.57459 0.65797 0.0
C962 C 0.33657 0.53815 0.67249 0.0
C963 C 0.3812 0.60143 0.64904 0.0
C964 C 0.40772 0.59144 0.65486 0.0
H965 H 0.21931 0.50133 0.72991 0.0
H966 H 0.26004 0.56383 0.68074 0.0
H967 H 0.32274 0.61108 0.64619 0.0
O968 O 0.38413 0.49939 0.76751 0.0
O969 O 0.37089 0.48997 0.59677 0.0
O970 O 0.35338 0.43799 0.5366 0.0
O971 O 0.33143 0.45534 0.80809 0.0
O972 O 0.40076 0.47768 0.63233 0.0
O973 O 0.40703 0.43504 0.67944 0.0
O974 O 0.38293 0.41631 0.51981 0.0
O975 O 0.38749 0.41283 0.74511 0.0
O976 O 0.35372 0.42981 0.79908 0.0
O977 O 0.39378 0.37978 0.58185 0.0
O978 O 0.30732 0.39343 0.55256 0.0
O979 O 0.28891 0.42745 0.61348 0.0
C980 C 0.35794 0.47162 0.53965 0.0
C981 C 0.37205 0.50487 0.8837 0.0
C982 C 0.41661 0.54085 0.97276 0.0
C983 C 0.39837 0.56089 0.98189 0.0
C984 C 0.35215 0.52244 0.89737 0.0
C985 C 0.3653 0.55041 0.94715 0.0
C986 C 0.4033 0.51299 0.92312 0.0
C987 C 0.41899 0.45965 0.63262 0.0
C988 C 0.36486 0.48211 0.82266 0.0
C989 C 0.28144 0.55671 0.67749 0.0
C990 C 0.31689 0.58345 0.65799 0.0
C991 C 0.37764 0.41689 0.81078 0.0
C992 C 0.40633 0.38402 0.46382 0.0
C993 C 0.40297 0.39565 0.34706 0.0
C994 C 0.39278 0.35938 0.33035 0.0
C995 C 0.39177 0.34671 0.45281 0.0
C996 C 0.41888 0.40903 0.40982 0.0
C997 C 0.38758 0.33489 0.3845 0.0
C998 C 0.28268 0.40504 0.55538 0.0
C999 C 0.39968 0.3976 0.52483 0.0
H1000 H 0.40778 0.58235 1.02102 0.0
H1001 H 0.32822 0.5163 0.86629 0.0
H1002 H 0.35055 0.56486 0.95702 0.0
H1003 H 0.41616 0.49641 0.91748 0.0
H1004 H 0.38652 0.34977 0.27786 0.0
H1005 H 0.3826 0.32706 0.49549 0.0
H1006 H 0.4293 0.43791 0.42078 0.0
H1007 H 0.37727 0.30627 0.37585 0.0
Eu1008 Eu 0.61649 0.72878 0.45786 0.0
C1009 C 0.78502 0.8368 0.51919 0.0
N1010 N 0.75526 0.8044 0.53923 0.0
C1011 C 0.79489 0.78512 0.58721 0.0
C1012 C 0.82114 0.84429 0.53217 0.0
C1013 C 0.75996 0.78023 0.57727 0.0
C1014 C 0.82562 0.81792 0.56691 0.0
C1015 C 0.81011 0.89788 0.47087 0.0
C1016 C 0.77951 0.86363 0.49151 0.0
C1017 C 0.84599 0.90453 0.47992 0.0
C1018 C 0.85154 0.87795 0.51187 0.0
Eu1019 Eu 0.69562 0.79585 0.5301 0.0
N1020 N 0.74436 0.85689 0.48805 0.0
C1021 C 0.80409 0.92528 0.44518 0.0
C1022 C 0.73906 0.88454 0.46277 0.0
C1023 C 0.76855 0.91887 0.44271 0.0
H1024 H 0.7362 0.75849 0.6013 0.0
H1025 H 0.76439 0.94131 0.42873 0.0
H1026 H 0.53716 0.71429 0.54226 0.0
H1027 H 0.68509 0.65143 0.47192 0.0
H1028 H 0.71208 0.88088 0.46142 0.0
H1029 H 0.82672 0.95199 0.43014 0.0
H1030 H 0.67756 0.70307 0.51615 0.0
H1031 H 0.79796 0.764 0.61153 0.0
H1032 H 0.86955 0.9306 0.46478 0.0
H1033 H 0.87937 0.88375 0.52128 0.0
H1034 H 0.48073 0.6622 0.61481 0.0
H1035 H 0.85279 0.82318 0.57909 0.0
H1036 H 0.63335 0.5967 0.42447 0.0
N1037 N 0.55859 0.6807 0.48276 0.0
C1038 C 0.55963 0.64649 0.45507 0.0
C1039 C 0.49572 0.65439 0.58065 0.0
C1040 C 0.52749 0.60538 0.47668 0.0
C1041 C 0.53209 0.68694 0.53494 0.0
C1042 C 0.48273 0.60948 0.57059 0.0
N1043 N 0.62355 0.67911 0.47468 0.0
C1044 C 0.65535 0.67963 0.49035 0.0
C1045 C 0.59635 0.61702 0.43883 0.0
C1046 C 0.59383 0.64864 0.45015 0.0
C1047 C 0.63075 0.62036 0.43658 0.0
C1048 C 0.66027 0.65148 0.46464 0.0
H1049 H 0.46157 0.5887 0.60208 0.0
H1050 H 0.5108 0.56561 0.40354 0.0
H1051 H 0.56726 0.55908 0.41677 0.0
O1052 O 0.60719 0.73326 0.34763 0.0
O1053 O 0.59946 0.73475 0.58438 0.0
O1054 O 0.65295 0.76382 0.63775 0.0
O1055 O 0.56124 0.70472 0.41328 0.0
O1056 O 0.66312 0.72363 0.3905 0.0
O1057 O 0.71627 0.76083 0.44943 0.0
O1058 O 0.7217 0.84593 0.59028 0.0
O1059 O 0.68517 0.81881 0.43605 0.0
O1060 O 0.66133 0.7683 0.37355 0.0
O1061 O 0.68672 0.79303 0.64256 0.0
O1062 O 0.64811 0.801 0.47127 0.0
O1063 O 0.59852 0.76023 0.52069 0.0
C1064 C 0.61518 0.7445 0.64983 0.0
C1065 C 0.54957 0.71951 0.30398 0.0
C1066 C 0.57377 0.74386 0.19467 0.0
C1067 C 0.54635 0.71099 0.16376 0.0
C1068 C 0.52109 0.68771 0.27591 0.0
C1069 C 0.51748 0.68466 0.20376 0.0
C1070 C 0.56789 0.75008 0.26181 0.0
C1071 C 0.69998 0.73766 0.39225 0.0
C1072 C 0.572 0.71283 0.35082 0.0
C1073 C 0.53103 0.57865 0.44238 0.0
C1074 C 0.5651 0.5827 0.43165 0.0
C1075 C 0.68672 0.80324 0.37904 0.0
C1076 C 0.72164 0.84542 0.71433 0.0
C1077 C 0.71173 0.86687 0.82413 0.0
C1078 C 0.74995 0.88629 0.83506 0.0
C1079 C 0.75916 0.86118 0.72847 0.0
C1080 C 0.69785 0.84743 0.76266 0.0
C1081 C 0.77351 0.88245 0.78867 0.0
C1082 C 0.61245 0.77877 0.46547 0.0
C1083 C 0.70613 0.82864 0.64814 0.0
H1084 H 0.54979 0.70267 0.11367 0.0
H1085 H 0.50852 0.66346 0.30792 0.0
H1086 H 0.49714 0.65956 0.18032 0.0
H1087 H 0.58886 0.77461 0.28273 0.0
H1088 H 0.76137 0.90422 0.87952 0.0
H1089 H 0.77722 0.85825 0.69187 0.0
H1090 H 0.66847 0.83303 0.75348 0.0
H1091 H 0.80275 0.89624 0.79893 0.0
Eu1092 Eu 0.16406 0.86835 0.45889 0.0
C1093 C 0.05145 0.92596 0.51334 0.0
N1094 N 0.0848 0.9333 0.53875 0.0
C1095 C 0.09465 -0.00778 0.57466 0.0
C1096 C 0.03969 0.95226 0.5143 0.0
C1097 C 0.10437 -0.03503 0.57546 0.0
C1098 C 0.0621 -0.01417 0.54494 0.0
C1099 C -0.00886 0.88146 0.47242 0.0
C1100 C 0.02711 0.89092 0.49489 0.0
C1101 C -0.01921 0.90814 0.46686 0.0
C1102 C 0.00507 0.94368 0.48857 0.0
Eu1103 Eu 0.10283 0.88643 0.52986 0.0
N1104 N 0.03799 0.86565 0.50111 0.0
C1105 C -0.0343 0.8451 0.46004 0.0
C1106 C 0.01235 0.82991 0.48714 0.0
C1107 C -0.02427 0.8191 0.47154 0.0
H1108 H 0.1256 -0.03196 0.6102 0.0
H1109 H -0.04528 0.79084 0.46849 0.0
H1110 H 0.17581 0.80716 0.57357 0.0
H1111 H 0.25113 0.01099 0.42482 0.0
H1112 H 0.02157 0.81093 0.48077 0.0
H1113 H -0.06192 0.83681 0.44345 0.0
H1114 H 0.1999 0.95777 0.487 0.0
H1115 H 0.11119 0.01781 0.59936 0.0
H1116 H -0.04649 0.90114 0.44924 0.0
H1117 H -0.00369 -0.03609 0.48798 0.0
H1118 H 0.22684 0.80962 0.65848 0.0
H1119 H 0.05375 0.0063 0.54893 0.0
H1120 H 0.30698 0.00901 0.4023 0.0
N1121 N 0.20988 0.85645 0.49672 0.0
C1122 C 0.24516 0.88612 0.45816 0.0
C1123 C 0.2346 0.82965 0.61747 0.0
C1124 C 0.28558 0.89449 0.48311 0.0
C1125 C 0.20271 0.83031 0.56421 0.0
C1126 C 0.27954 0.8567 0.5993 0.0
N1127 N 0.21883 0.923 0.46382 0.0
C1128 C 0.22229 0.95647 0.46825 0.0
C1129 C 0.28109 0.95137 0.42801 0.0
C1130 C 0.24701 0.91924 0.44187 0.0
C1131 C 0.28241 -0.0153 0.42029 0.0
C1132 C 0.25162 -0.01357 0.43629 0.0
H1133 H 0.29937 0.85524 0.63377 0.0
H1134 H 0.33002 0.90956 0.41387 0.0
H1135 H 0.33809 -0.02556 0.40966 0.0
O1136 O 0.16996 0.85967 0.35323 0.0
O1137 O 0.14722 0.83901 0.58141 0.0
O1138 O 0.13677 0.87788 0.63346 0.0
O1139 O 0.1815 0.82858 0.42474 0.0
O1140 O 0.16981 0.91847 0.38208 0.0
O1141 O 0.13852 0.9401 0.44343 0.0
O1142 O 0.06804 0.84477 0.60302 0.0
O1143 O 0.07532 0.86787 0.4322 0.0
O1144 O 0.12308 0.87099 0.37118 0.0
O1145 O 0.10359 0.90157 0.63969 0.0
O1146 O 0.09218 0.83098 0.46556 0.0
O1147 O 0.12996 0.81671 0.51276 0.0
C1148 C 0.14555 0.85097 0.64668 0.0
C1149 C 0.17885 0.81541 0.3044 0.0
C1150 C 0.15355 0.81586 0.1969 0.0
C1151 C 0.18583 0.82191 0.16337 0.0
C1152 C 0.21121 0.82121 0.27396 0.0
C1153 C 0.213 0.82039 0.20165 0.0
C1154 C 0.14791 0.80424 0.26407 0.0
C1155 C 0.15945 0.94427 0.38374 0.0
C1156 C 0.18366 0.83894 0.36119 0.0
C1157 C 0.31245 0.91787 0.43709 0.0
C1158 C 0.31295 0.94987 0.42174 0.0
C1159 C 0.09174 0.87214 0.37378 0.0
C1160 C 0.05373 0.85965 0.71269 0.0
C1161 C 0.02005 0.82014 0.81012 0.0
C1162 C 0.00185 0.84021 0.81886 0.0
C1163 C 0.03768 0.88131 0.72471 0.0
C1164 C 0.04527 0.82947 0.75587 0.0
C1165 C 0.01122 0.87114 0.77736 0.0
C1166 C 0.10943 0.81157 0.4609 0.0
C1167 C 0.07976 0.86731 0.65638 0.0
H1168 H 0.19291 0.83216 0.11197 0.0
H1169 H 0.23595 0.8323 0.3053 0.0
H1170 H 0.23784 0.82597 0.1764 0.0
H1171 H 0.12413 0.80256 0.28611 0.0
H1172 H -0.01795 0.83329 0.86075 0.0
H1173 H 0.0447 0.90509 0.69218 0.0
H1174 H 0.06025 0.81487 0.75033 0.0
H1175 H -0.00193 0.88725 0.78615 0.0
Eu1176 Eu 0.03051 0.28532 0.45447 0.0
C1177 C -0.03268 0.11374 0.51698 0.0
N1178 N -0.03315 0.14357 0.54349 0.0
C1179 C 0.91758 0.1039 0.61888 0.0
C1180 C -0.06013 0.07753 0.53505 0.0
C1181 C -0.05574 0.13899 0.59728 0.0
C1182 C 0.91471 0.07298 0.58694 0.0
C1183 C 0.0009 0.08847 0.45933 0.0
C1184 C -0.0013 0.11913 0.48431 0.0
C1185 C -0.02903 0.05278 0.46733 0.0
C1186 C -0.05912 0.0472 0.50729 0.0
Eu1187 Eu 0.01817 0.20287 0.53032 0.0
N1188 N 0.02838 0.15379 0.48442 0.0
C1189 C 0.03398 0.09407 0.43222 0.0
C1190 C 0.06141 0.1584 0.46096 0.0
C1191 C 0.06448 0.12899 0.43447 0.0
H1192 H -0.05086 0.16302 0.62598 0.0
H1193 H 0.09076 0.13263 0.41929 0.0
H1194 H 0.09098 0.36364 0.54387 0.0
H1195 H 0.88774 0.21093 0.47251 0.0
H1196 H 0.08605 0.18452 0.46584 0.0
H1197 H 0.03683 0.07133 0.41339 0.0
H1198 H -0.05238 0.22205 0.51754 0.0
H1199 H 0.89991 0.10098 0.66112 0.0
H1200 H -0.02783 0.02918 0.44803 0.0
H1201 H 0.91946 0.01936 0.51934 0.0
H1202 H 0.09285 0.41964 0.61187 0.0
H1203 H 0.89479 0.04593 0.60612 0.0
H1204 H 0.8804 0.25952 0.42327 0.0
N1205 N 0.038 0.34139 0.48068 0.0
C1206 C 0.00308 0.33865 0.4485 0.0
C1207 C 0.06958 0.40344 0.57948 0.0
C1208 C -0.00851 0.3691 0.46683 0.0
C1209 C 0.0686 0.36816 0.5349 0.0
C1210 C 0.03627 0.41466 0.56504 0.0
N1211 N -0.02553 0.27591 0.47566 0.0
C1212 C -0.05526 0.24304 0.49056 0.0
C1213 C -0.06308 0.29877 0.43417 0.0
C1214 C -0.02807 0.3037 0.44654 0.0
C1215 C 0.90734 0.26372 0.43429 0.0
C1216 C 0.91126 0.2359 0.46373 0.0
H1217 H 0.03658 0.43705 0.59327 0.0
H1218 H -0.03411 0.38364 0.39499 0.0
H1219 H 0.90489 0.324 0.40975 0.0
O1220 O 0.03016 0.30363 0.34999 0.0
O1221 O 0.05025 0.30109 0.58083 0.0
O1222 O 0.03149 0.24784 0.63513 0.0
O1223 O 0.07288 0.33941 0.41546 0.0
O1224 O -0.01885 0.23695 0.38414 0.0
O1225 O -0.0362 0.18405 0.4468 0.0
O1226 O 0.03888 0.1737 0.59102 0.0
O1227 O 0.05191 0.21318 0.43571 0.0
O1228 O 0.02891 0.2419 0.37521 0.0
O1229 O 0.02264 0.21008 0.64316 0.0
O1230 O 0.07445 0.24718 0.47977 0.0
O1231 O 0.07816 0.2977 0.51224 0.0
C1232 C 0.04734 0.28559 0.64551 0.0
C1233 C 0.08247 0.3463 0.29492 0.0
C1234 C 0.08295 0.31379 0.19408 0.0
C1235 C 0.08238 0.34105 0.15211 0.0
C1236 C 0.08259 0.37341 0.25381 0.0
C1237 C 0.0864 0.37309 0.18179 0.0
C1238 C 0.08879 0.32014 0.26467 0.0
C1239 C -0.0422 0.20013 0.38792 0.0
C1240 C 0.05884 0.33539 0.35483 0.0
C1241 C -0.03935 0.36316 0.43184 0.0
C1242 C 0.93147 0.32825 0.42516 0.0
C1243 C 0.03829 0.21642 0.37734 0.0
C1244 C 0.02788 0.16592 0.71401 0.0
C1245 C 0.05688 0.16895 0.82434 0.0
C1246 C 0.03763 0.13014 0.827 0.0
C1247 C 0.00754 0.12755 0.71704 0.0
C1248 C 0.04871 0.1858 0.77128 0.0
C1249 C 0.01183 0.10962 0.77506 0.0
C1250 C 0.09136 0.28335 0.47373 0.0
C1251 C 0.03467 0.18699 0.64974 0.0
H1252 H 0.07337 0.3355 0.09899 0.0
H1253 H 0.07131 0.38871 0.27565 0.0
H1254 H 0.08391 0.39287 0.14939 0.0
H1255 H 0.08532 0.29752 0.29514 0.0
H1256 H 0.04248 0.11569 0.86886 0.0
H1257 H -0.01008 0.11175 0.674 0.0
H1258 H 0.06192 0.21505 0.77104 0.0
H1259 H -0.00333 0.07995 0.77807 0.0
Eu1260 Eu 0.04938 0.31604 0.92344 0.0
C1261 C 0.1559 0.47407 0.84536 0.0
N1262 N 0.11987 0.44784 0.83678 0.0
C1263 C 0.10515 0.49518 0.82239 0.0
C1264 C 0.16782 0.51202 0.84185 0.0
C1265 C 0.09462 0.45821 0.82827 0.0
C1266 C 0.14206 0.52229 0.82633 0.0
C1267 C 0.21713 0.4894 0.88005 0.0
C1268 C 0.18032 0.46294 0.86282 0.0
C1269 C 0.22903 0.52702 0.87719 0.0
C1270 C 0.20445 0.53838 0.85701 0.0
Eu1271 Eu 0.1022 0.38431 0.84514 0.0
N1272 N 0.16721 0.42602 0.8691 0.0
C1273 C 0.24142 0.47731 0.89582 0.0
C1274 C 0.19107 0.41471 0.88766 0.0
C1275 C 0.2288 0.44 0.8934 0.0
H1276 H 0.06656 0.4375 0.82658 0.0
H1277 H 0.24853 0.43105 0.89168 0.0
H1278 H 0.03334 0.23927 0.80551 0.0
H1279 H -0.03184 0.38066 0.92214 0.0
H1280 H 0.18078 0.38629 0.89625 0.0
H1281 H 0.27019 0.49649 0.90514 0.0
H1282 H 0.01892 0.37659 0.8622 0.0
H1283 H 0.08453 0.50238 0.8131 0.0
H1284 H 0.25721 0.54743 0.88953 0.0
H1285 H 0.21376 0.5675 0.8549 0.0
H1286 H -0.02196 0.18353 0.73527 0.0
H1287 H 0.15018 0.55098 0.82032 0.0
H1288 H 0.91699 0.32728 0.97255 0.0
N1289 N 0.00287 0.25988 0.87571 0.0
C1290 C -0.0307 0.25843 0.9141 0.0
C1291 C -0.02748 0.19876 0.77316 0.0
C1292 C 0.9274 0.22484 0.9 0.0
C1293 C 0.00674 0.23501 0.81628 0.0
C1294 C 0.92841 0.18317 0.79522 0.0
N1295 N -0.00029 0.32313 0.90347 0.0
C1296 C -0.00248 0.35365 0.89033 0.0
C1297 C -0.06176 0.29224 0.94525 0.0
C1298 C -0.02989 0.29169 0.92604 0.0
C1299 C -0.05972 0.32579 0.95309 0.0
C1300 C -0.03073 0.35631 0.92252 0.0
H1301 H 0.90736 0.16029 0.766 0.0
H1302 H 0.88276 0.20327 0.97054 0.0
H1303 H 0.88089 0.26138 0.9698 0.0
O1304 O 0.02027 0.29137 1.01868 0.0
O1305 O 0.05755 0.29885 0.7953 0.0
O1306 O 0.06821 0.34699 0.73948 0.0
O1307 O 0.03405 0.25943 0.95097 0.0
O1308 O 0.03605 0.35222 1.00129 0.0
O1309 O 0.06893 0.40333 0.93702 0.0
O1310 O 0.14214 0.38753 0.77237 0.0
O1311 O 0.12555 0.41437 0.94082 0.0
O1312 O 0.1013 0.35991 0.99405 0.0
O1313 O 0.09954 0.40175 0.7384 0.0
O1314 O 0.10731 0.32931 0.87235 0.0
O1315 O 0.09616 0.32254 0.98266 0.0
C1316 C 0.06025 0.31181 0.72806 0.0
C1317 C 0.0291 0.24761 0.07027 0.0
C1318 C 0.06401 0.27524 0.17061 0.0
C1319 C 0.0358 0.24807 0.2106 0.0
C1320 C -7e-05 0.22146 0.10925 0.0
C1321 C 0.00498 0.21913 0.18036 0.0
C1322 C 0.06324 0.26902 0.10096 0.0
C1323 C 0.04862 0.3882 0.99848 0.0
C1324 C 0.01983 0.26072 1.00984 0.0
C1325 C 0.90167 0.22668 0.9423 0.0
C1326 C 0.90482 0.26022 0.95362 0.0
C1327 C 0.12491 0.39595 0.99411 0.0
C1328 C 0.14648 0.40853 0.65585 0.0
C1329 C 0.17366 0.39305 0.55994 0.0
C1330 C 0.19986 0.4305 0.55268 0.0
C1331 C 0.16918 0.44567 0.64238 0.0
C1332 C 0.14753 0.38234 0.61284 0.0
C1333 C 0.19648 0.45679 0.59129 0.0
C1334 C 0.10387 0.30961 0.93081 0.0
C1335 C 0.12669 0.39587 0.72103 0.0
H1336 H 0.03449 0.25214 0.26392 0.0
H1337 H -0.02702 0.207 0.08561 0.0
H1338 H -0.01699 0.20011 0.21401 0.0
H1339 H 0.08668 0.28857 0.07366 0.0
H1340 H 0.22138 0.43973 0.51395 0.0
H1341 H 0.16749 0.46548 0.67543 0.0
H1342 H 0.12746 0.35351 0.62 0.0
H1343 H 0.21542 0.48571 0.58243 0.0
Eu1344 Eu 0.59039 0.7202 0.91922 0.0
C1345 C 0.42388 0.66071 0.86419 0.0
N1346 N 0.45266 0.6551 0.85256 0.0
C1347 C 0.40972 0.59389 0.81545 0.0
C1348 C 0.38696 0.63255 0.85441 0.0
C1349 C 0.44565 0.62201 0.82804 0.0
C1350 C 0.38037 0.5996 0.82617 0.0
C1351 C 0.40168 0.70173 0.89473 0.0
C1352 C 0.43117 0.69524 0.87999 0.0
C1353 C 0.36522 0.67286 0.89291 0.0
C1354 C 0.35778 0.63836 0.87079 0.0
Eu1355 Eu 0.51482 0.70566 0.85821 0.0
N1356 N 0.46678 0.72274 0.87742 0.0
C1357 C 0.40919 0.73741 0.90482 0.0
C1358 C 0.47323 0.75809 0.88326 0.0
C1359 C 0.44471 0.76564 0.89493 0.0
H1360 H 0.46799 0.61804 0.81572 0.0
H1361 H 0.44973 0.79336 0.89183 0.0
H1362 H 0.66189 0.76813 0.77372 0.0
H1363 H 0.50664 0.5894 0.94523 0.0
H1364 H 0.50047 0.7806 0.87751 0.0
H1365 H 0.38744 0.74359 0.91393 0.0
H1366 H 0.52296 0.64171 0.86418 0.0
H1367 H 0.40432 0.56758 0.79754 0.0
H1368 H 0.34259 0.67749 0.90408 0.0
H1369 H 0.32944 0.61657 0.8652 0.0
H1370 H 0.7099 0.75868 0.70454 0.0
H1371 H 0.35261 0.57796 0.81461 0.0
H1372 H 0.55593 0.58343 1.00071 0.0
N1373 N 0.63925 0.72084 0.85708 0.0
C1374 C 0.63998 0.69127 0.90336 0.0
C1375 C 0.69527 0.74052 0.74731 0.0
C1376 C 0.67069 0.67851 0.89205 0.0
C1377 C 0.66217 0.74381 0.78979 0.0
C1378 C 0.70948 0.71241 0.77727 0.0
N1379 N 0.57805 0.66529 0.88683 0.0
C1380 C 0.54356 0.63799 0.88947 0.0
C1381 C 0.59938 0.63093 0.9477 0.0
C1382 C 0.60568 0.6628 0.91626 0.0
C1383 C 0.56327 0.60711 0.96895 0.0
C1384 C 0.53503 0.61015 0.93795 0.0
H1385 H 0.73129 0.71236 0.74869 0.0
H1386 H 0.68525 0.6457 0.95374 0.0
H1387 H 0.62289 0.59847 0.97804 0.0
O1388 O 0.61215 0.70966 1.01333 0.0
O1389 O 0.60407 0.74817 0.79797 0.0
O1390 O 0.55418 0.70851 0.75092 0.0
O1391 O 0.64606 0.75819 0.95692 0.0
O1392 O 0.54732 0.67358 1.00607 0.0
O1393 O 0.49287 0.65372 0.95133 0.0
O1394 O 0.51538 0.74265 0.782 0.0
O1395 O 0.51414 0.73888 0.94419 0.0
O1396 O 0.5449 0.71788 1.00324 0.0
O1397 O 0.5061 0.68823 0.74861 0.0
O1398 O 0.56379 0.76196 0.91527 0.0
O1399 O 0.61826 0.77535 0.8791 0.0
C1400 C 0.59012 0.73399 0.73396 0.0
C1401 C 0.64681 0.76003 0.0756 0.0
C1402 C 0.61196 0.76409 0.16833 0.0
C1403 C 0.64286 0.77599 0.21192 0.0
C1404 C 0.67601 0.76839 0.11822 0.0
C1405 C 0.67547 0.77899 0.18609 0.0
C1406 C 0.61682 0.76174 0.09909 0.0
C1407 C 0.5103 0.64906 1.00936 0.0
C1408 C 0.64228 0.74039 1.01345 0.0
C1409 C 0.6639 0.64896 0.93545 0.0
C1410 C 0.62807 0.62376 0.9553 0.0
C1411 C 0.51858 0.7268 1.00255 0.0
C1412 C 0.49336 0.72422 0.66943 0.0
C1413 C 0.50181 0.76232 0.57021 0.0
C1414 C 0.46358 0.74682 0.56511 0.0
C1415 C 0.45541 0.70497 0.65956 0.0
C1416 C 0.51638 0.75106 0.62265 0.0
C1417 C 0.44044 0.71649 0.60664 0.0
C1418 C 0.60028 0.78155 0.92381 0.0
C1419 C 0.51095 0.72051 0.73026 0.0
H1420 H 0.641 0.77967 0.26636 0.0
H1421 H 0.6974 0.76486 0.09772 0.0
H1422 H 0.69795 0.78396 0.22019 0.0
H1423 H 0.59421 0.7544 0.06552 0.0
H1424 H 0.45169 0.75619 0.5257 0.0
H1425 H 0.43782 0.68285 0.6948 0.0
H1426 H 0.54584 0.76216 0.62546 0.0
H1427 H 0.41101 0.70258 0.59888 0.0
Eu1428 Eu 0.17337 0.84952 0.91615 0.0
C1429 C 0.23688 0.74919 0.85021 0.0
N1430 N 0.23757 0.78116 0.83295 0.0
C1431 C 0.28912 0.797 0.75994 0.0
C1432 C 0.26522 0.74253 0.82905 0.0
C1433 C 0.26316 0.80477 0.78724 0.0
C1434 C 0.29145 0.76701 0.78289 0.0
C1435 C 0.20517 0.6881 0.90115 0.0
C1436 C 0.2061 0.72126 0.88146 0.0
C1437 C 0.23526 0.68346 0.88711 0.0
C1438 C 0.26495 0.71033 0.84938 0.0
Eu1439 Eu 0.18473 0.78612 0.85235 0.0
N1440 N 0.17659 0.72587 0.89011 0.0
C1441 C 0.17368 0.65997 0.93242 0.0
C1442 C 0.14547 0.69724 0.92023 0.0
C1443 C 0.14365 0.66457 0.94181 0.0
H1444 H 0.26159 0.82803 0.76759 0.0
H1445 H 0.11895 0.64289 0.96592 0.0
H1446 H 0.11083 0.86974 0.84333 0.0
H1447 H 0.30302 0.89545 0.93694 0.0
H1448 H 0.1218 0.69954 0.93003 0.0
H1449 H 0.17207 0.63446 0.94848 0.0
H1450 H 0.25145 0.86256 0.8536 0.0
H1451 H 0.30614 0.81316 0.71868 0.0
H1452 H 0.235 0.65845 0.90202 0.0
H1453 H 0.2871 0.70557 0.83455 0.0
H1454 H 0.10923 0.92329 0.77764 0.0
H1455 H 0.31245 0.76202 0.76232 0.0
H1456 H 0.32172 -0.04115 0.97262 0.0
N1457 N 0.16794 0.89971 0.89821 0.0
C1458 C 0.20584 0.93172 0.92293 0.0
C1459 C 0.13317 0.9306 0.80861 0.0
C1460 C 0.2191 -0.02555 0.9024 0.0
C1461 C 0.1348 0.89636 0.85086 0.0
C1462 C 0.16835 -0.0254 0.81632 0.0
N1463 N 0.22945 0.89446 0.88946 0.0
C1464 C 0.25718 0.88805 0.87741 0.0
C1465 C 0.27027 0.95198 0.93873 0.0
C1466 C 0.23467 0.92506 0.92196 0.0
C1467 C 0.29598 0.94133 0.94652 0.0
C1468 C 0.28811 0.90791 0.91848 0.0
H1469 H 0.16854 -0.00379 0.78648 0.0
H1470 H 0.27046 0.02706 0.90926 0.0
H1471 H 0.30875 0.00886 0.95299 0.0
O1472 O 0.16101 0.84142 1.02283 0.0
O1473 O 0.14655 0.84277 0.79449 0.0
O1474 O 0.17736 0.82024 0.74377 0.0
O1475 O 0.14597 0.87586 0.96856 0.0
O1476 O 0.22378 0.85631 0.99268 0.0
O1477 O 0.23863 0.81704 0.9406 0.0
O1478 O 0.15809 0.73645 0.79325 0.0
O1479 O 0.15058 0.76029 0.94295 0.0
O1480 O 0.17666 0.81096 1.00195 0.0
O1481 O 0.17803 0.78915 0.74067 0.0
O1482 O 0.12959 0.77881 0.91037 0.0
O1483 O 0.12188 0.82016 0.85967 0.0
C1484 C 0.15613 0.83651 0.72993 0.0
C1485 C 0.11693 0.85074 0.07358 0.0
C1486 C 0.13242 0.83303 0.17501 0.0
C1487 C 0.13519 0.86358 0.20876 0.0
C1488 C 0.11781 0.88096 0.10346 0.0
C1489 C 0.12494 0.88645 0.17412 0.0
C1490 C 0.11222 0.82181 0.11605 0.0
C1491 C 0.24533 0.84081 0.99677 0.0
C1492 C 0.14715 0.86248 1.02739 0.0
C1493 C 0.25614 -0.00041 0.92279 0.0
C1494 C 0.28032 -0.01172 0.9425 0.0
C1495 C 0.16852 0.77678 0.99822 0.0
C1496 C 0.16127 0.73746 0.67021 0.0
C1497 C 0.13243 0.71506 0.55895 0.0
C1498 C 0.15377 0.69825 0.54973 0.0
C1499 C 0.18596 0.72505 0.65765 0.0
C1500 C 0.13541 0.73349 0.62035 0.0
C1501 C 0.18152 0.70443 0.5975 0.0
C1502 C 0.11307 0.79852 0.91102 0.0
C1503 C 0.15997 0.75356 0.7352 0.0
H1504 H 0.14579 0.86989 0.25956 0.0
H1505 H 0.12405 0.90416 0.07083 0.0
H1506 H 0.12649 0.91018 0.19915 0.0
H1507 H 0.11161 0.79809 0.09416 0.0
H1508 H 0.14891 0.68049 0.50574 0.0
H1509 H 0.207 0.7296 0.69566 0.0
H1510 H 0.11869 0.74611 0.62784 0.0
H1511 H 0.19892 0.6927 0.58863 0.0
Eu1512 Eu 0.51039 0.78262 0.35837 0.0
C1513 C 0.63905 0.93283 0.41143 0.0
N1514 N 0.64496 0.89986 0.39885 0.0
C1515 C 0.71742 0.92795 0.33119 0.0
C1516 C 0.67109 -0.02519 0.3935 0.0
C1517 C 0.67697 0.89463 0.36633 0.0
C1518 C 0.72754 -0.02759 0.33116 0.0
C1519 C 0.5956 0.95433 0.41876 0.0
C1520 C 0.60387 0.9266 0.40756 0.0
C1521 C 0.62298 -0.00923 0.41913 0.0
C1522 C 0.6593 0.00101 0.40555 0.0
Eu1523 Eu 0.59004 0.84935 0.42311 0.0
N1524 N 0.5772 0.89315 0.38867 0.0
C1525 C 0.55926 0.94337 0.43478 0.0
C1526 C 0.54256 0.88591 0.38048 0.0
C1527 C 0.53231 0.9075 0.41869 0.0
H1528 H 0.67244 0.86727 0.36793 0.0
H1529 H 0.50358 0.8983 0.42684 0.0
H1530 H 0.47592 0.82075 0.2632 0.0
H1531 H 0.43442 0.64819 0.50027 0.0
H1532 H 0.52241 0.85967 0.35987 0.0
H1533 H 0.55121 -0.03734 0.45264 0.0
H1534 H 0.48803 0.70088 0.44699 0.0
H1535 H 0.73764 0.9217 0.31237 0.0
H1536 H 0.61598 0.01203 0.42681 0.0
H1537 H 0.67439 0.02881 0.39232 0.0
H1538 H 0.41556 0.80556 0.2173 0.0
H1539 H 0.75313 -0.00601 0.31044 0.0
H1540 H 0.37286 0.64048 0.4859 0.0
N1541 N 0.45326 0.77881 0.3393 0.0
C1542 C 0.42197 0.74855 0.36281 0.0
C1543 C 0.41699 0.79111 0.26068 0.0
C1544 C 0.38678 0.7407 0.33988 0.0
C1545 C 0.45109 0.79966 0.2876 0.0
C1546 C 0.38474 0.76237 0.28738 0.0
N1547 N 0.45895 0.72652 0.40804 0.0
C1548 C 0.46203 0.69967 0.44335 0.0
C1549 C 0.39293 0.69117 0.42748 0.0
C1550 C 0.425 0.72264 0.40144 0.0
C1551 C 0.39663 0.66476 0.46493 0.0
C1552 C 0.43135 0.66904 0.47293 0.0
H1553 H 0.35858 0.75628 0.26522 0.0
H1554 H 0.32787 0.70417 0.34908 0.0
H1555 H 0.3333 0.66179 0.43037 0.0
O1556 O 0.48009 0.7313 0.29872 0.0
O1557 O 0.52301 0.76337 0.45559 0.0
O1558 O 0.55034 0.8162 0.51198 0.0
O1559 O 0.51994 0.7836 0.24828 0.0
O1560 O 0.55216 0.76588 0.41166 0.0
O1561 O 0.60301 0.81227 0.37256 0.0
O1562 O 0.6015 0.82794 0.51388 0.0
O1563 O 0.60923 0.8428 0.30158 0.0
O1564 O 0.55469 0.8168 0.25129 0.0
O1565 O 0.64116 0.88224 0.48264 0.0
O1566 O 0.54304 0.85421 0.49443 0.0
O1567 O 0.48845 0.81519 0.44241 0.0
C1568 C 0.52521 0.78163 0.51126 0.0
C1569 C 0.47935 0.7368 0.17246 0.0
C1570 C 0.49226 0.72096 0.05891 0.0
C1571 C 0.45431 0.69732 0.04909 0.0
C1572 C 0.44152 0.71536 0.16143 0.0
C1573 C 0.42897 0.69621 0.09819 0.0
C1574 C 0.50378 0.74285 0.11793 0.0
C1575 C 0.58876 0.78333 0.40976 0.0
C1576 C 0.4962 0.74874 0.24084 0.0
C1577 C 0.35493 0.70989 0.36552 0.0
C1578 C 0.35802 0.68575 0.41134 0.0
C1579 C 0.5926 0.83397 0.23745 0.0
C1580 C 0.65881 0.85316 0.57343 0.0
C1581 C 0.61694 0.85045 0.6544 0.0
C1582 C 0.63343 0.88819 0.64541 0.0
C1583 C 0.68442 0.8891 0.59065 0.0
C1584 C 0.63566 0.83362 0.6288 0.0
C1585 C 0.66915 0.90856 0.61835 0.0
C1586 C 0.50579 0.83952 0.49723 0.0
C1587 C 0.63574 0.85326 0.51547 0.0
H1588 H 0.44427 0.67964 1.00401 0.0
H1589 H 0.42218 0.7126 0.20178 0.0
H1590 H 0.39983 0.67923 0.08843 0.0
H1591 H 0.53266 0.76235 0.12449 0.0
H1592 H 0.61801 0.9007 0.65698 0.0
H1593 H 0.70806 0.90432 0.55911 0.0
H1594 H 0.6209 0.80439 0.62702 0.0
H1595 H 0.68187 0.93733 0.60646 0.0
Eu1596 Eu 0.10825 0.70487 0.34513 0.0
C1597 C -0.03922 0.69463 0.42165 0.0
N1598 N -0.00613 0.72355 0.37741 0.0
C1599 C -0.0365 0.74216 0.25453 0.0
C1600 C 0.9189 0.68339 0.40002 0.0
C1601 C -0.00242 0.7461 0.30647 0.0
C1602 C 0.91969 0.71467 0.27899 0.0
C1603 C 0.92828 0.62883 0.44878 0.0
C1604 C -0.03859 0.66256 0.43683 0.0
C1605 C 0.89537 0.62811 0.46145 0.0
C1606 C 0.89377 0.65933 0.44774 0.0
Eu1607 Eu 0.0439 0.71886 0.41258 0.0
N1608 N -0.00895 0.66164 0.41368 0.0
C1609 C 0.92854 0.59632 0.44518 0.0
C1610 C -0.01131 0.6294 0.39507 0.0
C1611 C -0.04174 0.5965 0.41437 0.0
H1612 H 0.02263 0.77119 0.29538 0.0
H1613 H -0.0444 0.57138 0.39769 0.0
H1614 H 0.08855 0.62974 0.25169 0.0
H1615 H 0.25587 0.79602 0.39322 0.0
H1616 H 0.01076 0.62992 0.36632 0.0
H1617 H 0.90383 0.57058 0.45621 0.0
H1618 H 0.19138 0.77919 0.38613 0.0
H1619 H -0.03077 0.75903 0.20852 0.0
H1620 H 0.87224 0.60384 0.48315 0.0
H1621 H 0.87472 0.66577 0.46945 0.0
H1622 H 0.10438 0.58072 0.24616 0.0
H1623 H 0.89891 0.713 0.24513 0.0
H1624 H 0.27165 0.74943 0.42945 0.0
N1625 N 0.12472 0.65734 0.33568 0.0
C1626 C 0.156 0.6622 0.367 0.0
C1627 C 0.11853 0.60309 0.28135 0.0
C1628 C 0.16729 0.6357 0.36293 0.0
C1629 C 0.10849 0.63003 0.28739 0.0
C1630 C 0.14781 0.60573 0.31956 0.0
N1631 N 0.17122 0.72275 0.37972 0.0
C1632 C 0.19805 0.75832 0.38951 0.0
C1633 C 0.21619 0.70502 0.41186 0.0
C1634 C 0.18056 0.69656 0.38879 0.0
C1635 C 0.24343 0.74156 0.41776 0.0
C1636 C 0.23461 0.76806 0.40078 0.0
H1637 H 0.15695 0.58614 0.31096 0.0
H1638 H 0.20834 0.62151 0.39407 0.0
H1639 H 0.25145 0.68304 0.43892 0.0
O1640 O 0.15116 0.73742 0.27408 0.0
O1641 O 0.13178 0.73434 0.44334 0.0
O1642 O 0.07889 0.71222 0.50109 0.0
O1643 O 0.09704 0.69341 0.23382 0.0
O1644 O 0.12082 0.76241 0.40395 0.0
O1645 O 0.07778 0.77054 0.3619 0.0
O1646 O 0.06087 0.74512 0.51487 0.0
O1647 O 0.05745 0.74727 0.29186 0.0
O1648 O 0.07258 0.71246 0.23934 0.0
O1649 O 0.02395 0.75373 0.45071 0.0
O1650 O 0.04005 0.66622 0.47907 0.0
O1651 O 0.07584 0.64874 0.42266 0.0
C1652 C 0.11317 0.7195 0.49959 0.0
C1653 C 0.14849 0.72107 0.1573 0.0
C1654 C 0.1732 0.75612 0.0537 0.0
C1655 C 0.19672 0.74161 0.04657 0.0
C1656 C 0.16798 0.70267 0.14732 0.0
C1657 C 0.19251 0.7132 0.091 0.0
C1658 C 0.14889 0.74512 0.10818 0.0
C1659 C 0.1049 0.78319 0.40321 0.0
C1660 C 0.13043 0.72043 0.22029 0.0
C1661 C 0.2002 0.64219 0.39455 0.0
C1662 C 0.22474 0.67712 0.41972 0.0
C1663 C 0.05898 0.736 0.22659 0.0
C1664 C 0.02868 0.77125 0.56813 0.0
C1665 C 0.02591 0.73508 0.66378 0.0
C1666 C -0.01088 0.71273 0.64487 0.0
C1667 C -0.00906 0.75637 0.56591 0.0
C1668 C 0.04489 0.76865 0.62963 0.0
C1669 C -0.02912 0.72503 0.60202 0.0
C1670 C 0.05243 0.6418 0.47819 0.0
C1671 C 0.04261 0.76224 0.50777 0.0
H1672 H 0.21724 0.75124 1.00577 0.0
H1673 H 0.1653 0.68183 0.18409 0.0
H1674 H 0.20887 0.70027 0.08295 0.0
H1675 H 0.13058 0.75607 0.11342 0.0
H1676 H -0.02648 0.68636 0.66595 0.0
H1677 H -0.02318 0.75949 0.52186 0.0
H1678 H 0.07447 0.78485 0.63335 0.0
H1679 H -0.05835 0.71022 0.593 0.0
Eu1680 Eu 0.18707 0.38247 0.34847 0.0
C1681 C 0.2097 0.25459 0.40696 0.0
N1682 N 0.17098 0.24781 0.38881 0.0
C1683 C 0.13033 0.17651 0.31621 0.0
C1684 C 0.22171 0.2242 0.38933 0.0
C1685 C 0.13505 0.21543 0.35238 0.0
C1686 C 0.16568 0.16795 0.31948 0.0
C1687 C 0.27357 0.29941 0.42489 0.0
C1688 C 0.23814 0.29013 0.40597 0.0
C1689 C 0.28412 0.27327 0.42503 0.0
C1690 C 0.25978 0.23738 0.4048 0.0
Eu1691 Eu 0.17634 0.30273 0.41575 0.0
N1692 N 0.23166 0.31585 0.37964 0.0
C1693 C 0.29758 0.3359 0.44195 0.0
C1694 C 0.25778 0.35108 0.37837 0.0
C1695 C 0.28839 0.36202 0.42117 0.0
H1696 H 0.11153 0.21858 0.34975 0.0
H1697 H 0.30719 0.39092 0.42945 0.0
H1698 H 0.25914 0.41732 0.25135 0.0
H1699 H 0.128 0.45945 0.48402 0.0
H1700 H 0.25114 0.37041 0.35583 0.0
H1701 H 0.32452 0.3448 0.46342 0.0
H1702 H 0.12623 0.40602 0.4296 0.0
H1703 H 0.10432 0.15657 0.29506 0.0
H1704 H 0.31257 0.28136 0.43506 0.0
H1705 H 0.27422 0.22479 0.38759 0.0
H1706 H 0.30218 0.47762 0.20105 0.0
H1707 H 0.16285 0.14329 0.29698 0.0
H1708 H 0.18362 0.52022 0.4756 0.0
N1709 N 0.24116 0.4394 0.33021 0.0
C1710 C 0.24285 0.47057 0.3559 0.0
C1711 C 0.28829 0.47621 0.2485 0.0
C1712 C 0.27107 0.50587 0.33497 0.0
C1713 C 0.26331 0.44198 0.27651 0.0
C1714 C 0.2937 0.50829 0.27976 0.0
N1715 N 0.18241 0.43402 0.39718 0.0
C1716 C 0.15183 0.43152 0.42902 0.0
C1717 C 0.2144 0.49973 0.41956 0.0
C1718 C 0.21336 0.46764 0.39304 0.0
C1719 C 0.18371 0.49641 0.45418 0.0
C1720 C 0.15226 0.46215 0.45882 0.0
H1721 H 0.3136 0.53466 0.25793 0.0
H1722 H 0.29509 0.56471 0.34858 0.0
H1723 H 0.24647 0.55911 0.42746 0.0
O1724 O 0.1682 0.41465 0.28969 0.0
O1725 O 0.15406 0.37183 0.44452 0.0
O1726 O 0.1779 0.34304 0.50113 0.0
O1727 O 0.1738 0.37132 0.23875 0.0
O1728 O 0.12977 0.33969 0.40118 0.0
O1729 O 0.12531 0.2887 0.36886 0.0
O1730 O 0.18159 0.27609 0.50808 0.0
O1731 O 0.1545 0.28504 0.29127 0.0
O1732 O 0.17543 0.33877 0.23992 0.0
O1733 O 0.13203 0.2527 0.45426 0.0
O1734 O 0.22337 0.34924 0.49606 0.0
O1735 O 0.24066 0.40304 0.43759 0.0
C1736 C 0.16786 0.36783 0.50201 0.0
C1737 C 0.17731 0.41805 0.16487 0.0
C1738 C 0.15291 0.41654 0.04928 0.0
C1739 C 0.17488 0.45527 0.04648 0.0
C1740 C 0.20034 0.45617 0.16082 0.0
C1741 C 0.20006 0.4746 0.09999 0.0
C1742 C 0.15809 0.39856 0.10529 0.0
C1743 C 0.11221 0.30342 0.40741 0.0
C1744 C 0.16663 0.39781 0.23126 0.0
C1745 C 0.27304 0.5376 0.36315 0.0
C1746 C 0.2452 0.53442 0.40732 0.0
C1747 C 0.1582 0.30088 0.22664 0.0
C1748 C 0.12881 0.24336 0.56908 0.0
C1749 C 0.12829 0.27562 0.66891 0.0
C1750 C 0.12026 0.24459 0.70903 0.0
C1751 C 0.11992 0.21242 0.60661 0.0
C1752 C 0.12735 0.27242 0.5981 0.0
C1753 C 0.11198 0.2114 0.67685 0.0
C1754 C 0.24655 0.38648 0.49621 0.0
C1755 C 0.14844 0.24944 0.5067 0.0
H1756 H 0.1724 0.47082 1.0038 0.0
H1757 H 0.21703 0.47164 0.20506 0.0
H1758 H 0.21745 0.50411 0.09626 0.0
H1759 H 0.14421 0.36915 0.10555 0.0
H1760 H 0.12494 0.24709 0.76398 0.0
H1761 H 0.12362 0.19199 0.582 0.0
H1762 H 0.1347 0.29634 0.56794 0.0
H1763 H 0.10748 0.18795 0.70803 0.0
Eu1764 Eu 0.10403 0.19806 1.03162 0.0
C1765 C 0.24305 0.33849 0.94727 0.0
N1766 N 0.20711 0.32982 0.98885 0.0
C1767 C 0.23219 0.377 0.11568 0.0
C1768 C 0.2838 0.371 0.97354 0.0
C1769 C 0.20051 0.34639 0.05994 0.0
C1770 C 0.27699 0.39689 0.09588 0.0
C1771 C 0.28175 0.31403 0.90715 0.0
C1772 C 0.24656 0.30894 0.92356 0.0
C1773 C 0.31202 0.34836 0.90017 0.0
C1774 C 0.3111 0.37818 0.92467 0.0
Eu1775 Eu 0.16096 0.27041 0.94608 0.0
N1776 N 0.21824 0.27449 0.93376 0.0
C1777 C 0.28593 0.28438 0.89308 0.0
C1778 C 0.22341 0.24596 0.92169 0.0
C1779 C 0.25563 0.25023 0.89456 0.0
H1780 H 0.17427 0.34407 0.06798 0.0
H1781 H 0.25867 0.22687 0.8836 0.0
H1782 H 0.13278 0.13946 0.07836 0.0
H1783 H -0.04158 0.15503 0.99864 0.0
H1784 H 0.20405 0.21998 0.93985 0.0
H1785 H 0.31242 0.28767 0.87976 0.0
H1786 H 0.02502 0.19801 0.99966 0.0
H1787 H 0.22405 0.38752 0.15874 0.0
H1788 H 0.33614 0.3507 0.87674 0.0
H1789 H 0.33173 0.4053 0.91163 0.0
H1790 H 0.11284 0.07412 0.08316 0.0
H1791 H 0.29624 0.41867 0.12995 0.0
H1792 H 0.93535 0.08981 0.9692 0.0
N1793 N 0.08429 0.1329 1.03766 0.0
C1794 C 0.04873 0.10754 1.02192 0.0
C1795 C 0.09471 0.08303 0.06381 0.0
C1796 C 0.03575 0.06925 1.0217 0.0
C1797 C 0.10664 0.12049 0.05998 0.0
C1798 C 0.05926 0.05717 0.04396 0.0
N1799 N 0.03833 0.15682 1.01071 0.0
C1800 C 0.01442 0.16932 1.00181 0.0
C1801 C -0.01212 0.09466 0.99024 0.0
C1802 C 0.02481 0.11972 1.00889 0.0
C1803 C -0.03601 0.10802 0.98113 0.0
C1804 C -0.02298 0.14507 0.99245 0.0
H1805 H 0.0502 0.02812 0.04731 0.0
H1806 H -0.01041 0.01498 0.99934 0.0
H1807 H -0.05249 0.03762 0.96985 0.0
O1808 O 0.07009 0.20131 0.11131 0.0
O1809 O 0.07198 0.17633 0.9406 0.0
O1810 O 0.11223 0.22412 0.87448 0.0
O1811 O 0.10653 0.17894 0.13835 0.0
O1812 O 0.09704 0.25158 0.99657 0.0
O1813 O 0.11441 0.26334 0.88742 0.0
O1814 O 0.18619 0.29734 0.85091 0.0
O1815 O 0.14711 0.28528 0.07372 0.0
O1816 O 0.13929 0.23946 0.13185 0.0
O1817 O 0.17048 0.32573 0.92482 0.0
O1818 O 0.16135 0.22623 0.8647 0.0
O1819 O 0.13872 0.17932 0.94179 0.0
C1820 C 0.08192 0.19106 0.88122 0.0
C1821 C 0.0618 0.1755 0.22408 0.0
C1822 C 0.03391 0.19081 0.32017 0.0
C1823 C 0.00849 0.15323 0.32821 0.0
C1824 C 0.03964 0.13817 0.23842 0.0
C1825 C 0.01279 0.12704 0.29076 0.0
C1826 C 0.06061 0.20142 0.26798 0.0
C1827 C 0.10035 0.27117 0.93704 0.0
C1828 C 0.08346 0.18941 0.16031 0.0
C1829 C -0.00048 0.04424 1.00121 0.0
C1830 C -0.02437 0.05704 0.9846 0.0
C1831 C 0.14757 0.27489 0.14234 0.0
C1832 C 0.17505 0.3408 0.80554 0.0
C1833 C 0.1493 0.31264 0.69788 0.0
C1834 C 0.18114 0.33973 0.66443 0.0
C1835 C 0.20609 0.36808 0.77309 0.0
C1836 C 0.14423 0.31745 0.76674 0.0
C1837 C 0.20791 0.36907 0.70084 0.0
C1838 C 0.15269 0.1911 0.87341 0.0
C1839 C 0.18399 0.32624 0.86399 0.0
H1840 H -0.01339 0.14409 0.36629 0.0
H1841 H 0.04205 0.11804 0.20721 0.0
H1842 H -0.00543 0.09809 0.3009 0.0
H1843 H 0.08126 0.23015 0.26208 0.0
H1844 H 0.1878 0.33694 0.61259 0.0
H1845 H 0.23056 0.38324 0.80435 0.0
H1846 H 0.11971 0.29636 0.79053 0.0
H1847 H 0.23213 0.38837 0.67332 0.0
Eu1848 Eu 0.70073 0.88152 0.03898 0.0
C1849 C 0.54928 0.88239 0.9394 0.0
N1850 N 0.55655 0.85396 0.97823 0.0
C1851 C 0.51412 0.83393 0.1101 0.0
C1852 C 0.52026 0.89369 0.97159 0.0
C1853 C 0.54152 0.83095 0.04929 0.0
C1854 C 0.4964 0.86124 0.09543 0.0
C1855 C 0.57532 0.9447 0.89637 0.0
C1856 C 0.57917 0.91411 0.9142 0.0
C1857 C 0.5414 0.94082 0.88809 0.0
C1858 C 0.51199 0.91235 0.92143 0.0
Eu1859 Eu 0.61645 0.86722 0.95649 0.0
N1860 N 0.61269 0.91975 0.92971 0.0
C1861 C 0.60564 -0.02124 0.88618 0.0
C1862 C 0.64201 0.95372 0.92207 0.0
C1863 C 0.63943 -0.01794 0.8923 0.0
H1864 H 0.54566 0.80807 0.05578 0.0
H1865 H 0.66349 0.00784 0.88046 0.0
H1866 H 0.75541 -0.03413 0.09763 0.0
H1867 H 0.74876 0.78624 0.96598 0.0
H1868 H 0.6675 -0.0406 0.9408 0.0
H1869 H 0.60304 0.00206 0.87092 0.0
H1870 H 0.70499 0.80442 1.00168 0.0
H1871 H 0.50518 0.81607 0.15512 0.0
H1872 H 0.53983 -0.03825 0.85923 0.0
H1873 H 0.48424 0.90443 0.90988 0.0
H1874 H 0.82073 0.01479 0.09716 0.0
H1875 H 0.47659 0.86027 0.13292 0.0
H1876 H 0.8112 0.8331 0.92925 0.0
N1877 N 0.76417 0.92925 0.03871 0.0
C1878 C 0.79012 0.92159 1.01532 0.0
C1879 C 0.81245 -0.01166 0.07537 0.0
C1880 C 0.82811 0.94774 1.01765 0.0
C1881 C 0.77524 -0.03833 0.07145 0.0
C1882 C 0.83911 -0.01901 0.0505 0.0
N1883 N 0.7431 0.86104 1.00398 0.0
C1884 C 0.73253 0.82505 0.99246 0.0
C1885 C 0.80486 0.87743 0.96866 0.0
C1886 C 0.77905 0.88656 0.9954 0.0
C1887 C 0.79285 0.84109 0.95195 0.0
C1888 C 0.75721 0.81466 0.9688 0.0
H1889 H 0.86797 0.0014 0.05576 0.0
H1890 H 0.88295 -0.04032 0.98867 0.0
H1891 H 0.86203 0.89783 0.94196 0.0
O1892 O 0.71629 0.85391 0.11253 0.0
O1893 O 0.69213 0.85048 0.94076 0.0
O1894 O 0.66 0.86983 0.87636 0.0
O1895 O 0.70608 0.89838 0.14958 0.0
O1896 O 0.65793 0.82407 0.98857 0.0
O1897 O 0.60826 0.8227 1.02096 0.0
O1898 O 0.61101 0.8398 0.85941 0.0
O1899 O 0.60359 0.84548 0.08803 0.0
O1900 O 0.65544 0.86322 0.14272 0.0
O1901 O 0.56213 0.82912 0.91408 0.0
O1902 O 0.66916 0.91433 0.88874 0.0
O1903 O 0.72034 0.93629 0.95703 0.0
C1904 C 0.68687 0.86231 0.8817 0.0
C1905 C 0.72876 0.86996 0.23149 0.0
C1906 C 0.7131 0.82667 0.32602 0.0
C1907 C 0.75035 0.83724 0.33289 0.0
C1908 C 0.76595 0.88216 0.24042 0.0
C1909 C 0.77692 0.86666 0.29335 0.0
C1910 C 0.70328 0.84547 0.27881 0.0
C1911 C 0.62174 0.8074 0.98469 0.0
C1912 C 0.71431 0.87275 0.16492 0.0
C1913 C 0.85388 0.93945 0.98923 0.0
C1914 C 0.84205 0.90438 0.96288 0.0
C1915 C 0.61798 0.84711 0.15321 0.0
C1916 C 0.55883 0.81926 0.7939 0.0
C1917 C 0.57935 0.82916 0.67881 0.0
C1918 C 0.55316 0.83885 0.66147 0.0
C1919 C 0.53469 0.83218 0.78106 0.0
C1920 C 0.57574 0.81141 0.74017 0.0
C1921 C 0.53026 0.83983 0.71256 0.0
C1922 C 0.70557 0.93984 0.89433 0.0
C1923 C 0.57548 0.8228 0.85937 0.0
H1924 H 0.75898 0.82387 0.37063 0.0
H1925 H 0.78579 0.90196 0.20415 0.0
H1926 H 0.80575 0.87606 0.30131 0.0
H1927 H 0.67507 0.83907 0.27453 0.0
H1928 H 0.55351 0.84961 0.61181 0.0
H1929 H 0.52151 0.83853 0.82304 0.0
H1930 H 0.59509 0.8022 0.75205 0.0
H1931 H 0.51291 0.85108 0.70112 0.0
Eu1932 Eu 0.01334 0.80168 1.02704 0.0
C1933 C -0.00396 0.64952 0.95475 0.0
N1934 N 0.03164 0.68419 0.98031 0.0
C1935 C 0.07178 0.65925 0.07209 0.0
C1936 C -0.01165 0.60881 0.97433 0.0
C1937 C 0.06598 0.6914 1.02861 0.0
C1938 C 0.04041 0.61422 0.063 0.0
C1939 C 0.92917 0.61811 0.94462 0.0
C1940 C -0.03649 0.65043 0.95388 0.0
C1941 C 0.92653 0.58414 0.9347 0.0
C1942 C -0.04258 0.58124 0.94121 0.0
Eu1943 Eu 0.02236 0.73201 0.95846 0.0
N1944 N -0.03539 0.68109 0.97688 0.0
C1945 C 0.89786 0.62083 0.94422 0.0
C1946 C 0.93318 0.68031 0.99746 0.0
C1947 C 0.89962 0.65152 0.97401 0.0
H1948 H 0.08802 0.71923 1.03332 0.0
H1949 H 0.87453 0.65014 0.98518 0.0
H1950 H 0.92969 0.76504 0.09091 0.0
H1951 H 0.09216 0.9398 0.89873 0.0
H1952 H 0.9345 0.70358 1.02394 0.0
H1953 H 0.87144 0.59688 0.93353 0.0
H1954 H 0.08279 0.88127 0.94874 0.0
H1955 H 0.09557 0.66636 0.10294 0.0
H1956 H 0.90101 0.56047 0.91771 0.0
H1957 H -0.03752 0.56576 0.90412 0.0
H1958 H 0.87723 0.77718 0.09455 0.0
H1959 H 0.04381 0.59418 0.09143 0.0
H1960 H 0.04416 0.9556 0.90622 0.0
N1961 N -0.03595 0.8141 0.03984 0.0
C1962 C -0.03085 0.8474 1.01905 0.0
C1963 C 0.90412 0.79804 0.0798 0.0
C1964 C -0.05752 0.85779 1.03208 0.0
C1965 C 0.93243 0.7901 0.07228 0.0
C1966 C 0.91035 0.83304 0.06592 0.0
N1967 N 0.02786 0.8622 0.98127 0.0
C1968 C 0.0605 0.88677 0.9497 0.0
C1969 C 0.00664 0.90566 0.96098 0.0
C1970 C 0.00134 0.87156 0.98645 0.0
C1971 C 0.03925 0.92953 0.92703 0.0
C1972 C 0.06635 0.92024 0.92196 0.0
H1973 H 0.88935 0.83997 0.07745 0.0
H1974 H 0.9274 0.89973 1.01788 0.0
H1975 H -0.01645 0.94148 0.95297 0.0
O1976 O 0.0382 0.85119 0.08864 0.0
O1977 O 0.04017 0.81843 0.92417 0.0
O1978 O 0.01376 0.76517 0.86924 0.0
O1979 O 0.02243 0.79768 0.13691 0.0
O1980 O 0.06852 0.81544 0.96435 0.0
O1981 O 0.0709 0.77003 1.00965 0.0
O1982 O 0.04884 0.75363 0.85642 0.0
O1983 O 0.04741 0.73733 0.08002 0.0
O1984 O 0.02661 0.7692 0.13372 0.0
O1985 O 0.05083 0.7085 0.90523 0.0
O1986 O -0.03129 0.72618 0.90262 0.0
O1987 O -0.04518 0.76535 0.95675 0.0
C1988 C 0.02216 0.79967 0.87021 0.0
C1989 C 0.03442 0.84653 0.21203 0.0
C1990 C 0.06993 0.87342 0.31542 0.0
C1991 C 0.05126 0.89332 0.32401 0.0
C1992 C 0.01358 0.86345 0.22307 0.0
C1993 C 0.02171 0.88657 0.28064 0.0
C1994 C 0.05898 0.84799 0.26233 0.0
C1995 C 0.08593 0.79666 0.96709 0.0
C1996 C 0.03729 0.83304 0.14499 0.0
C1997 C -0.05207 0.89182 1.0088 0.0
C1998 C -0.02029 0.91544 0.9718 0.0
C1999 C 0.0438 0.7483 0.14494 0.0
C2000 C 0.08685 0.73264 0.80053 0.0
C2001 C 0.04472 0.72175 0.71066 0.0
C2002 C 0.02748 0.6851 0.73516 0.0
C2003 C 0.08161 0.69745 0.79467 0.0
C2004 C 0.07908 0.7458 0.74007 0.0
C2005 C 0.04707 0.67201 0.77258 0.0
C2006 C -0.05388 0.73994 0.9041 0.0
C2007 C 0.06346 0.73295 0.85701 0.0
H2008 H 0.0584 0.91276 0.36643 0.0
H2009 H -0.00722 0.86036 0.18571 0.0
H2010 H 0.00621 0.9003 0.29008 0.0
H2011 H 0.07053 0.83019 0.25847 0.0
H2012 H -2e-05 0.66578 0.72317 0.0
H2013 H 0.09563 0.68804 0.82783 0.0
H2014 H 0.0912 0.77506 0.73431 0.0
H2015 H 0.03485 0.64383 0.7898 0.0
Eu2016 Eu 0.29041 0.06436 0.78715 0.0
C2017 C 0.45855 0.17736 0.84089 0.0
N2018 N 0.43211 0.14538 0.87066 0.0
C2019 C 0.47969 0.13503 0.91302 0.0
C2020 C 0.49653 0.1889 0.84611 0.0
C2021 C 0.44297 0.12636 0.91209 0.0
C2022 C 0.50673 0.16689 0.88203 0.0
C2023 C 0.47528 0.23352 0.7784 0.0
C2024 C 0.44806 0.19967 0.8084 0.0
C2025 C 0.51262 0.24437 0.78198 0.0
C2026 C 0.52329 0.22205 0.81602 0.0
Eu2027 Eu 0.3684 0.12776 0.85435 0.0
N2028 N 0.41147 0.18861 0.80636 0.0
C2029 C 0.4645 0.25615 0.74678 0.0
C2030 C 0.4012 0.21072 0.77227 0.0
C2031 C 0.42761 0.24491 0.7445 0.0
H2032 H 0.42339 0.10513 0.94561 0.0
H2033 H 0.42056 0.26447 0.7264 0.0
H2034 H 0.21544 0.05354 0.88521 0.0
H2035 H 0.34302 -0.03048 0.79246 0.0
H2036 H 0.37296 0.20337 0.76952 0.0
H2037 H 0.48443 0.28277 0.72555 0.0
H2038 H 0.34173 0.0252 0.83402 0.0
H2039 H 0.48763 0.11775 0.93849 0.0
H2040 H 0.53346 0.27016 0.75925 0.0
H2041 H 0.55227 0.23079 0.81943 0.0
H2042 H 0.16434 0.00271 0.97044 0.0
H2043 H 0.53537 0.17452 0.88708 0.0
H2044 H 0.28759 0.91822 0.74515 0.0
N2045 N 0.23136 0.01818 0.81558 0.0
C2046 C 0.22678 -0.01767 0.78125 0.0
C2047 C 0.17814 -0.00469 0.93305 0.0
C2048 C 0.19449 0.94239 0.808 0.0
C2049 C 0.21125 0.02632 0.8796 0.0
C2050 C 0.16099 0.95047 0.91941 0.0
N2051 N 0.29048 0.00873 0.79116 0.0
C2052 C 0.31899 0.00365 0.80824 0.0
C2053 C 0.25628 0.94578 0.75777 0.0
C2054 C 0.25851 -0.01974 0.76898 0.0
C2055 C 0.288 0.94344 0.75863 0.0
C2056 C 0.31939 -0.02767 0.78626 0.0
H2057 H 0.13928 0.93132 0.95413 0.0
H2058 H 0.16535 0.89754 0.74231 0.0
H2059 H 0.22142 0.88955 0.72959 0.0
O2060 O 0.2814 0.07416 0.67806 0.0
O2061 O 0.27517 0.0804 0.90838 0.0
O2062 O 0.3256 0.09505 0.96118 0.0
O2063 O 0.23563 0.04539 0.7512 0.0
O2064 O 0.3332 0.05411 0.71996 0.0
O2065 O 0.38679 0.09024 0.77687 0.0
O2066 O 0.38107 0.17578 0.91296 0.0
O2067 O 0.38686 0.1358 0.74728 0.0
O2068 O 0.32988 0.10605 0.69667 0.0
O2069 O 0.37642 0.12651 0.96685 0.0
O2070 O 0.32839 0.14278 0.78856 0.0
O2071 O 0.27932 0.10233 0.83941 0.0
C2072 C 0.28895 0.08365 0.97425 0.0
C2073 C 0.22023 0.04631 0.63649 0.0
C2074 C 0.23219 0.06154 0.52046 0.0
C2075 C 0.20631 0.02549 0.5007 0.0
C2076 C 0.19712 0.00943 0.62231 0.0
C2077 C 0.18731 -0.00018 0.55353 0.0
C2078 C 0.23018 0.07271 0.58592 0.0
C2079 C 0.36946 0.06613 0.72178 0.0
C2080 C 0.24618 0.05586 0.68891 0.0
C2081 C 0.19122 0.91495 0.76443 0.0
C2082 C 0.22259 0.91427 0.74798 0.0
C2083 C 0.36619 0.1297 0.69307 0.0
C2084 C 0.39565 0.18102 1.03319 0.0
C2085 C 0.38872 0.21137 0.13397 0.0
C2086 C 0.42755 0.23 0.14185 0.0
C2087 C 0.43324 0.1965 0.04559 0.0
C2088 C 0.37309 0.18741 0.07808 0.0
C2089 C 0.44918 0.22111 0.10042 0.0
C2090 C 0.29206 0.1248 0.78867 0.0
C2091 C 0.37914 0.15904 0.97232 0.0
H2092 H 0.20314 0.01689 0.44705 0.0
H2093 H 0.18877 -0.01156 0.66246 0.0
H2094 H 0.16814 -0.02829 0.54316 0.0
H2095 H 0.24856 0.1012 0.59905 0.0
H2096 H 0.44126 0.24992 0.18317 0.0
H2097 H 0.45021 0.19045 1.01173 0.0
H2098 H 0.34356 0.17291 0.07087 0.0
H2099 H 0.47829 0.23353 0.11074 0.0
Eu2100 Eu 0.82851 0.19594 0.79188 0.0
C2101 C 0.72732 0.25783 0.86659 0.0
N2102 N 0.75831 0.25993 0.89375 0.0
C2103 C 0.76898 0.31219 0.95937 0.0
C2104 C 0.71775 0.28491 0.88121 0.0
C2105 C 0.77612 0.28393 0.94566 0.0
C2106 C 0.7401 0.31323 0.92636 0.0
C2107 C 0.66902 0.2221 0.80772 0.0
C2108 C 0.7028 0.22637 0.8322 0.0
C2109 C 0.661 0.25039 0.8167 0.0
C2110 C 0.68526 0.28173 0.85414 0.0
Eu2111 Eu 0.77197 0.21323 0.86643 0.0
N2112 N 0.71118 0.19912 0.82605 0.0
C2113 C 0.64332 0.18874 0.77862 0.0
C2114 C 0.68621 0.16687 0.79496 0.0
C2115 C 0.65146 0.16073 0.77457 0.0
H2116 H 0.79563 0.28071 0.97625 0.0
H2117 H 0.62995 0.13416 0.75869 0.0
H2118 H 0.8529 0.13888 0.88595 0.0
H2119 H 0.89955 0.33985 0.85822 0.0
H2120 H 0.69275 0.14551 0.78975 0.0
H2121 H 0.61658 0.18378 0.76189 0.0
H2122 H 0.84711 0.27606 0.87773 0.0
H2123 H 0.78642 0.33326 0.99416 0.0
H2124 H 0.63538 0.24754 0.79779 0.0
H2125 H 0.67799 0.30263 0.8643 0.0
H2126 H 0.90944 0.14098 0.9468 0.0
H2127 H 0.73411 0.33472 0.93868 0.0
H2128 H -0.04966 0.35166 0.78647 0.0
N2129 N 0.87957 0.19302 0.82069 0.0
C2130 C 0.91013 0.22878 0.78562 0.0
C2131 C 0.91501 0.16362 0.91277 0.0
C2132 C -0.04649 0.24181 0.79772 0.0
C2133 C 0.87878 0.16308 0.87429 0.0
C2134 C -0.04154 0.19739 0.89288 0.0
N2135 N 0.87326 0.25364 0.81685 0.0
C2136 C 0.87026 0.28158 0.84483 0.0
C2137 C 0.93334 0.29494 0.77526 0.0
C2138 C 0.90432 0.25882 0.78562 0.0
C2139 C 0.92782 0.32385 0.7906 0.0
C2140 C 0.89758 0.31731 0.82994 0.0
H2141 H -0.01814 0.19811 0.91791 0.0
H2142 H -0.00146 0.27632 0.73657 0.0
H2143 H -0.01011 0.32974 0.74595 0.0
O2144 O 0.8464 0.19711 0.6855 0.0
O2145 O 0.82495 0.17224 0.91697 0.0
O2146 O 0.80621 0.20516 0.97123 0.0
O2147 O 0.84801 0.1595 0.75643 0.0
O2148 O 0.83892 0.24699 0.71724 0.0
O2149 O 0.80704 0.26715 0.7808 0.0
O2150 O 0.72117 0.18064 0.92075 0.0
O2151 O 0.75938 0.22374 0.76228 0.0
O2152 O 0.78098 0.18991 0.71028 0.0
O2153 O 0.77308 0.21246 0.97942 0.0
O2154 O 0.7584 0.15767 0.80922 0.0
O2155 O 0.79845 0.14644 0.85699 0.0
C2156 C 0.81942 0.18138 0.98257 0.0
C2157 C 0.84245 0.14475 0.64107 0.0
C2158 C 0.81448 0.14646 0.53625 0.0
C2159 C 0.84488 0.14933 0.50044 0.0
C2160 C 0.87148 0.14534 0.60694 0.0
C2161 C 0.87259 0.14675 0.53479 0.0
C2162 C 0.81106 0.13779 0.60526 0.0
C2163 C 0.82761 0.2716 0.72028 0.0
C2164 C 0.85406 0.17143 0.69424 0.0
C2165 C -0.02304 0.27472 0.76449 0.0
C2166 C -0.0315 0.30226 0.76016 0.0
C2167 C 0.75953 0.20491 0.70945 0.0
C2168 C 0.71703 0.18603 0.04242 0.0
C2169 C 0.69302 0.15557 0.15188 0.0
C2170 C 0.67596 0.17668 0.16149 0.0
C2171 C 0.70353 0.20985 0.05466 0.0
C2172 C 0.71203 0.15923 0.09089 0.0
C2173 C 0.68204 0.2045 0.11398 0.0
C2174 C 0.77953 0.14279 0.80254 0.0
C2175 C 0.73775 0.18846 0.98135 0.0
H2176 H 0.84942 0.15754 0.44773 0.0
H2177 H 0.89564 0.15285 0.63673 0.0
H2178 H 0.8966 0.15081 0.50648 0.0
H2179 H 0.79048 0.14098 0.63087 0.0
H2180 H 0.65843 0.17188 0.20596 0.0
H2181 H 0.70882 0.23164 1.01801 0.0
H2182 H 0.72537 0.14314 0.08387 0.0
H2183 H 0.67019 0.22176 0.12311 0.0
Eu2184 Eu 0.69684 0.60156 0.77755 0.0
C2185 C 0.64183 0.44115 0.85504 0.0
N2186 N 0.63124 0.4661 0.87176 0.0
C2187 C 0.57387 0.41731 0.91338 0.0
C2188 C 0.61745 0.40294 0.86397 0.0
C2189 C 0.59687 0.45423 0.89614 0.0
C2190 C 0.58385 0.3914 0.89669 0.0
C2191 C 0.68507 0.42741 0.79798 0.0
C2192 C 0.67649 0.45342 0.82626 0.0
C2193 C 0.66037 0.38961 0.80527 0.0
C2194 C 0.62702 0.37741 0.83981 0.0
Eu2195 Eu 0.67672 0.52933 0.86176 0.0
N2196 N 0.70049 0.4906 0.82051 0.0
C2197 C 0.7177 0.44001 0.76092 0.0
C2198 C 0.73239 0.50258 0.78371 0.0
C2199 C 0.74077 0.47753 0.75197 0.0
H2200 H 0.58807 0.47368 0.90335 0.0
H2201 H 0.76419 0.48672 0.718 0.0
H2202 H 0.75493 0.68531 0.87253 0.0
H2203 H 0.55908 0.51312 0.78628 0.0
H2204 H 0.74917 0.53112 0.77282 0.0
H2205 H 0.72466 0.42101 0.73667 0.0
H2206 H 0.6175 0.53555 0.85639 0.0
H2207 H 0.54819 0.40856 0.93838 0.0
H2208 H 0.66688 0.36958 0.78446 0.0
H2209 H 0.60836 0.34813 0.84588 0.0
H2210 H 0.75718 0.74516 0.92083 0.0
H2211 H 0.565 0.36257 0.90744 0.0
H2212 H 0.54895 0.55955 0.72559 0.0
N2213 N 0.69936 0.65541 0.81787 0.0
C2214 C 0.663 0.64942 0.78451 0.0
C2215 C 0.73324 0.72591 0.89239 0.0
C2216 C 0.65082 0.68129 0.7884 0.0
C2217 C 0.73076 0.687 0.86404 0.0
C2218 C 0.70067 0.7363 0.86982 0.0
N2219 N 0.64019 0.58772 0.81194 0.0
C2220 C 0.61243 0.55401 0.82553 0.0
C2221 C 0.5996 0.60497 0.76269 0.0
C2222 C 0.63444 0.6138 0.78373 0.0
C2223 C 0.57456 0.56801 0.75233 0.0
C2224 C 0.57984 0.54196 0.78732 0.0
H2225 H 0.70211 0.76122 0.88983 0.0
H2226 H 0.60315 0.68595 0.75866 0.0
H2227 H 0.56219 0.62389 0.73944 0.0
O2228 O 0.68773 0.62168 0.67958 0.0
O2229 O 0.72114 0.62482 0.9086 0.0
O2230 O 0.68986 0.57363 0.96756 0.0
O2231 O 0.73209 0.65824 0.74408 0.0
O2232 O 0.64542 0.56238 0.70183 0.0
O2233 O 0.62608 0.50906 0.76296 0.0
O2234 O 0.70941 0.51429 0.92759 0.0
O2235 O 0.6659 0.50307 0.75747 0.0
O2236 O 0.70255 0.55694 0.70493 0.0
O2237 O 0.65688 0.50942 0.96746 0.0
O2238 O 0.73171 0.58663 0.83741 0.0
O2239 O 0.73644 0.58699 0.72439 0.0
C2240 C 0.71366 0.61119 0.97722 0.0
C2241 C 0.73988 0.66728 0.62767 0.0
C2242 C 0.74808 0.63809 0.5318 0.0
C2243 C 0.74915 0.66562 0.48832 0.0
C2244 C 0.73879 0.69348 0.58603 0.0
C2245 C 0.74831 0.69575 0.51616 0.0
C2246 C 0.75179 0.64461 0.60142 0.0
C2247 C 0.6218 0.52582 0.70228 0.0
C2248 C 0.71607 0.65415 0.68561 0.0
C2249 C 0.61468 0.66886 0.76365 0.0
C2250 C 0.58982 0.63171 0.7547 0.0
C2251 C 0.68524 0.52058 0.70353 0.0
C2252 C 0.68979 0.48983 0.04577 0.0
C2253 C 0.72645 0.49775 0.15113 0.0
C2254 C 0.70881 0.45909 0.1565 0.0
C2255 C 0.67064 0.45179 0.0558 0.0
C2256 C 0.71558 0.51269 0.0963 0.0
C2257 C 0.68009 0.43652 0.11137 0.0
C2258 C 0.74625 0.60659 0.77891 0.0
C2259 C 0.68587 0.50568 0.97973 0.0
H2260 H 0.74271 0.66013 0.43487 0.0
H2261 H 0.72419 0.70635 0.60489 0.0
H2262 H 0.74604 0.71499 0.48175 0.0
H2263 H 0.75117 0.62355 0.6326 0.0
H2264 H 0.7162 0.44606 0.19736 0.0
H2265 H 0.6495 0.43388 1.01918 0.0
H2266 H 0.7269 0.54192 0.09242 0.0
H2267 H 0.66574 0.40704 0.1186 0.0
Eu2268 Eu 0.71789 0.64584 0.26078 0.0
C2269 C 0.82337 0.80571 0.20532 0.0
N2270 N 0.78974 0.77875 0.1836 0.0
C2271 C 0.77768 0.82513 0.1407 0.0
C2272 C 0.83413 0.84336 0.20057 0.0
C2273 C 0.76728 0.78828 0.1512 0.0
C2274 C 0.81167 0.85284 0.16389 0.0
C2275 C 0.88396 0.82373 0.24803 0.0
C2276 C 0.84889 0.79628 0.22318 0.0
C2277 C 0.8923 0.86025 0.25485 0.0
C2278 C 0.86781 0.87038 0.22854 0.0
Eu2279 Eu 0.77465 0.71569 0.18383 0.0
N2280 N 0.84039 0.76091 0.21165 0.0
C2281 C 0.91066 0.81446 0.26028 0.0
C2282 C 0.86902 0.75388 0.21448 0.0
C2283 C 0.90381 0.78018 0.23991 0.0
H2284 H 0.74264 0.76659 0.13047 0.0
H2285 H 0.92639 0.77544 0.24083 0.0
H2286 H 0.70028 0.56476 0.16245 0.0
H2287 H 0.64921 0.72177 0.25062 0.0
H2288 H 0.86339 0.7273 0.19944 0.0
H2289 H -0.06233 0.83451 0.27942 0.0
H2290 H 0.69561 0.71048 0.19047 0.0
H2291 H 0.75957 0.83224 0.11526 0.0
H2292 H 0.91873 0.88125 0.27483 0.0
H2293 H 0.87559 0.89915 0.22795 0.0
H2294 H 0.6431 0.50576 0.10194 0.0
H2295 H 0.82038 0.88136 0.15333 0.0
H2296 H 0.59469 0.67128 0.30215 0.0
N2297 N 0.67057 0.59017 0.22343 0.0
C2298 C 0.63804 0.59333 0.2559 0.0
C2299 C 0.63816 0.52351 0.13469 0.0
C2300 C 0.59557 0.56109 0.2437 0.0
C2301 C 0.67349 0.56113 0.1726 0.0
C2302 C 0.59429 0.5118 0.15294 0.0
N2303 N 0.67172 0.65709 0.23547 0.0
C2304 C 0.67274 0.68902 0.21895 0.0
C2305 C 0.61141 0.63217 0.28012 0.0
C2306 C 0.64131 0.628 0.26168 0.0
C2307 C 0.61644 0.66717 0.2834 0.0
C2308 C 0.64668 0.69559 0.25047 0.0
H2309 H 0.57218 0.48683 0.13153 0.0
H2310 H 0.54643 0.54575 0.30296 0.0
H2311 H 0.55456 0.60607 0.30888 0.0
O2312 O 0.68833 0.61907 0.35611 0.0
O2313 O 0.72155 0.62543 0.13112 0.0
O2314 O 0.74501 0.67581 0.07279 0.0
O2315 O 0.70671 0.59108 0.2891 0.0
O2316 O 0.70457 0.68364 0.33564 0.0
O2317 O 0.74156 0.73623 0.2758 0.0
O2318 O 0.81345 0.72509 0.10342 0.0
O2319 O 0.80939 0.72325 0.27278 0.0
O2320 O 0.75999 0.69246 0.33697 0.0
O2321 O 0.76282 0.72721 0.07792 0.0
O2322 O 0.77607 0.65933 0.21128 0.0
O2323 O 0.76348 0.65205 0.32243 0.0
C2324 C 0.72812 0.63844 0.0622 0.0
C2325 C 0.69632 0.57326 0.40524 0.0
C2326 C 0.72796 0.59927 0.50978 0.0
C2327 C 0.69748 0.5728 0.54801 0.0
C2328 C 0.66559 0.54768 0.44122 0.0
C2329 C 0.66726 0.54484 0.51346 0.0
C2330 C 0.72919 0.59352 0.4401 0.0
C2331 C 0.71838 0.72015 0.33445 0.0
C2332 C 0.68951 0.58934 0.34555 0.0
C2333 C 0.57019 0.5672 0.28049 0.0
C2334 C 0.57696 0.60225 0.29157 0.0
C2335 C 0.79384 0.72011 0.3312 0.0
C2336 C 0.81254 0.75071 0.99507 0.0
C2337 C 0.84214 0.74856 0.88873 0.0
C2338 C 0.86285 0.78732 0.88868 0.0
C2339 C 0.83185 0.78898 0.99444 0.0
C2340 C 0.81625 0.73102 0.94069 0.0
C2341 C 0.85687 0.80736 0.94012 0.0
C2342 C 0.77606 0.64305 0.27284 0.0
C2343 C 0.79339 0.7292 0.05557 0.0
H2344 H 0.69375 0.57728 0.60139 0.0
H2345 H 0.63977 0.53577 0.41453 0.0
H2346 H 0.64309 0.52629 0.54286 0.0
H2347 H 0.75235 0.61488 0.41447 0.0
H2348 H 0.88349 0.8022 0.84896 0.0
H2349 H 0.82861 0.8043 1.03668 0.0
H2350 H 0.79976 0.70159 0.94095 0.0
H2351 H 0.87252 0.83707 0.93916 0.0
Eu2352 Eu 0.2565 0.05763 0.24707 0.0
C2353 C 0.09406 -0.0093 0.1871 0.0
N2354 N 0.12464 -0.01043 0.16685 0.0
C2355 C 0.08553 0.93553 0.10182 0.0
C2356 C 0.05815 -0.03865 0.17369 0.0
C2357 C 0.12062 -0.03705 0.12199 0.0
C2358 C 0.05432 0.93367 0.12969 0.0
C2359 C 0.06682 0.02653 0.22464 0.0
C2360 C 0.09819 0.0235 0.20755 0.0
C2361 C 0.03163 -0.00451 0.22321 0.0
C2362 C 0.02716 -0.0371 0.19594 0.0
Eu2363 Eu 0.18418 0.04224 0.18084 0.0
N2364 N 0.13256 0.0531 0.20518 0.0
C2365 C 0.07125 0.06102 0.23672 0.0
C2366 C 0.13594 0.08698 0.21448 0.0
C2367 C 0.10576 0.09139 0.22801 0.0
H2368 H 0.14466 -0.03554 0.09838 0.0
H2369 H 0.10901 0.11831 0.22816 0.0
H2370 H 0.3405 0.12077 0.17448 0.0
H2371 H 0.17684 0.92545 0.25044 0.0
H2372 H 0.16242 0.11061 0.21072 0.0
H2373 H 0.04794 0.0646 0.2475 0.0
H2374 H 0.19546 -0.02079 0.1775 0.0
H2375 H 0.08224 0.91631 0.06315 0.0
H2376 H 0.00757 -0.00274 0.23705 0.0
H2377 H -0.00038 0.93997 0.18774 0.0
H2378 H 0.39494 0.12084 0.10624 0.0
H2379 H 0.02747 0.91249 0.11242 0.0
H2380 H 0.22153 0.90607 0.2856 0.0
N2381 N 0.3135 0.06441 0.23312 0.0
C2382 C 0.30829 0.02719 0.26028 0.0
C2383 C 0.3786 0.09789 0.14032 0.0
C2384 C 0.33812 0.01478 0.24175 0.0
C2385 C 0.34284 0.0968 0.18344 0.0
C2386 C 0.38778 0.06308 0.15154 0.0
N2387 N 0.24772 0.00194 0.22312 0.0
C2388 C 0.21518 -0.02626 0.20254 0.0
C2389 C 0.26587 -0.03903 0.26739 0.0
C2390 C 0.27317 -0.003 0.256 0.0
C2391 C 0.2296 0.93313 0.26616 0.0
C2392 C 0.20417 0.94051 0.23531 0.0
H2393 H 0.40958 0.06284 0.1228 0.0
H2394 H 0.35055 -0.01932 0.30258 0.0
H2395 H 0.28807 0.9263 0.29409 0.0
O2396 O 0.25726 0.07717 0.35043 0.0
O2397 O 0.27807 0.08371 0.12332 0.0
O2398 O 0.22578 0.05114 0.0716 0.0
O2399 O 0.30826 0.08486 0.30583 0.0
O2400 O 0.21504 0.00358 0.3206 0.0
O2401 O 0.16103 -0.01266 0.26747 0.0
O2402 O 0.1712 0.07443 0.11317 0.0
O2403 O 0.1843 0.07458 0.26901 0.0
O2404 O 0.2104 0.04982 0.33026 0.0
O2405 O 0.18918 0.03769 0.06958 0.0
O2406 O 0.23214 0.09658 0.24188 0.0
O2407 O 0.28082 0.10908 0.18347 0.0
C2408 C 0.26313 0.07355 0.05772 0.0
C2409 C 0.31154 0.11545 0.4138 0.0
C2410 C 0.27023 0.07914 0.49855 0.0
C2411 C 0.2905 0.06188 0.50724 0.0
C2412 C 0.33823 0.10781 0.43538 0.0
C2413 C 0.32556 0.07692 0.47621 0.0
C2414 C 0.28652 0.11245 0.46465 0.0
C2415 C 0.17803 -0.01983 0.32325 0.0
C2416 C 0.29201 0.08909 0.35883 0.0
C2417 C 0.32988 -0.01837 0.27367 0.0
C2418 C 0.29396 0.95365 0.27962 0.0
C2419 C 0.18398 0.05789 0.32533 0.0
C2420 C 0.15965 0.05998 0.99551 0.0
C2421 C 0.16287 0.08842 0.88582 0.0
C2422 C 0.12449 0.06706 0.87989 0.0
C2423 C 0.12205 0.03524 0.98688 0.0
C2424 C 0.17998 0.08556 0.94456 0.0
C2425 C 0.10422 0.03937 0.92882 0.0
C2426 C 0.26852 0.117 0.23701 0.0
C2427 C 0.17947 0.0623 0.05759 0.0
H2428 H 0.27612 0.03528 0.52911 0.0
H2429 H 0.35899 0.11198 0.39817 0.0
H2430 H 0.33981 0.06218 0.47041 0.0
H2431 H 0.26782 0.12172 0.45339 0.0
H2432 H 0.11032 0.07211 0.83851 0.0
H2433 H 0.10648 0.01472 1.02652 0.0
H2434 H 0.2096 0.10224 0.94901 0.0
H2435 H 0.07479 0.02213 0.9229 0.0
Eu2436 Eu 0.84735 0.18377 0.25389 0.0
C2437 C 0.90489 0.07388 0.1997 0.0
N2438 N 0.91065 0.10771 0.18263 0.0
C2439 C -0.02829 0.12466 0.14716 0.0
C2440 C 0.9325 0.06428 0.19223 0.0
C2441 C -0.05681 0.13235 0.1545 0.0
C2442 C -0.03431 0.08976 0.16265 0.0
C2443 C 0.86279 0.01187 0.2354 0.0
C2444 C 0.87041 0.04784 0.21743 0.0
C2445 C 0.89096 0.00332 0.23609 0.0
C2446 C 0.92581 0.02938 0.21264 0.0
Eu2447 Eu 0.86186 0.12189 0.18879 0.0
N2448 N 0.84381 0.05698 0.21261 0.0
C2449 C 0.82673 -0.01533 0.24616 0.0
C2450 C 0.80814 0.02906 0.21952 0.0
C2451 C 0.79929 -0.00729 0.23302 0.0
H2452 H -0.05433 0.15719 0.13638 0.0
H2453 H 0.77127 -0.02952 0.23101 0.0
H2454 H 0.78323 0.1959 0.14516 0.0
H2455 H -0.00827 0.26465 0.25052 0.0
H2456 H 0.78687 0.03555 0.21711 0.0
H2457 H 0.81982 0.95696 0.25947 0.0
H2458 H 0.93525 0.2118 0.19825 0.0
H2459 H -0.00173 0.14556 0.12922 0.0
H2460 H 0.88549 -0.02396 0.25016 0.0
H2461 H -0.05293 0.02209 0.209 0.0
H2462 H 0.78013 0.24925 0.07639 0.0
H2463 H -0.01313 0.0829 0.15282 0.0
H2464 H -0.00967 0.31754 0.29575 0.0
N2465 N 0.83599 0.22892 0.21381 0.0
C2466 C 0.86849 0.26292 0.2491 0.0
C2467 C 0.80344 0.25602 0.10863 0.0
C2468 C 0.87714 0.30402 0.23003 0.0
C2469 C 0.80597 0.22305 0.15495 0.0
C2470 C 0.833 0.30063 0.12518 0.0
N2471 N 0.90254 0.2335 0.2331 0.0
C2472 C 0.93477 0.23432 0.22376 0.0
C2473 C 0.9337 0.29452 0.2759 0.0
C2474 C 0.90097 0.26243 0.259 0.0
C2475 C -0.03466 0.29297 0.28133 0.0
C2476 C -0.0338 0.26312 0.25361 0.0
H2477 H 0.83051 0.32119 0.09492 0.0
H2478 H 0.89939 0.3488 0.29912 0.0
H2479 H -0.03959 0.35219 0.29827 0.0
O2480 O 0.85052 0.20645 0.35489 0.0
O2481 O 0.82492 0.17633 0.12968 0.0
O2482 O 0.85339 0.15253 0.0782 0.0
O2483 O 0.8063 0.19798 0.29058 0.0
O2484 O 0.89704 0.19208 0.33115 0.0
O2485 O 0.91656 0.15848 0.27196 0.0
O2486 O 0.82308 0.0854 0.11528 0.0
O2487 O 0.83531 0.09057 0.28103 0.0
O2488 O 0.84997 0.14202 0.33928 0.0
O2489 O 0.87803 0.12891 0.07856 0.0
O2490 O 0.806 0.11234 0.25059 0.0
O2491 O 0.79461 0.15184 0.20372 0.0
C2492 C 0.832 0.16809 0.06522 0.0
C2493 C 0.79977 0.19883 0.40923 0.0
C2494 C 0.79493 0.16479 0.50972 0.0
C2495 C 0.7929 0.19168 0.54977 0.0
C2496 C 0.79986 0.22655 0.44793 0.0
C2497 C 0.79228 0.2212 0.51873 0.0
C2498 C 0.79191 0.16588 0.43917 0.0
C2499 C 0.92186 0.18083 0.32973 0.0
C2500 C 0.82206 0.20984 0.34938 0.0
C2501 C 0.90462 0.33044 0.27121 0.0
C2502 C 0.93522 0.32793 0.28322 0.0
C2503 C 0.8456 0.10826 0.33851 0.0
C2504 C 0.83991 0.07941 1.00286 0.0
C2505 C 0.80123 0.04931 0.90482 0.0
C2506 C 0.81837 0.02829 0.89655 0.0
C2507 C 0.85949 0.06122 0.99212 0.0
C2508 C 0.81179 0.07437 0.9583 0.0
C2509 C 0.84874 0.03563 0.93782 0.0
C2510 C 0.78683 0.12968 0.25329 0.0
C2511 C 0.84501 0.10192 0.06227 0.0
H2512 H 0.80045 0.19512 0.60281 0.0
H2513 H 0.81117 0.25339 0.42427 0.0
H2514 H 0.79391 0.24302 0.55108 0.0
H2515 H 0.79697 0.14715 0.40992 0.0
H2516 H 0.80964 0.00779 0.85588 0.0
H2517 H 0.88124 0.06527 1.02777 0.0
H2518 H 0.79925 0.09137 0.96315 0.0
H2519 H 0.86336 0.02099 0.92857 0.0
Eu2520 Eu 0.18256 0.11914 0.67998 0.0
C2521 C 0.30302 0.26307 0.74767 0.0
N2522 N 0.30933 0.23136 0.72463 0.0
C2523 C 0.37742 0.26316 0.64132 0.0
C2524 C 0.33373 0.30622 0.73112 0.0
C2525 C 0.34009 0.22848 0.6805 0.0
C2526 C 0.38696 0.30727 0.65066 0.0
C2527 C 0.25813 0.28335 0.74925 0.0
C2528 C 0.2674 0.25611 0.74069 0.0
C2529 C 0.28469 0.31945 0.76023 0.0
C2530 C 0.32145 0.33108 0.75013 0.0
Eu2531 Eu 0.25449 0.17947 0.74347 0.0
N2532 N 0.24266 0.22377 0.71259 0.0
C2533 C 0.22157 0.27344 0.74302 0.0
C2534 C 0.20954 0.21686 0.68987 0.0
C2535 C 0.19742 0.23971 0.71434 0.0
H2536 H 0.33759 0.20199 0.67302 0.0
H2537 H 0.16985 0.23007 0.7178 0.0
H2538 H 0.13926 0.15226 0.59556 0.0
H2539 H 0.11286 -0.03013 0.73455 0.0
H2540 H 0.19077 0.19068 0.66674 0.0
H2541 H 0.21284 0.29323 0.74987 0.0
H2542 H 0.16499 0.0316 0.71297 0.0
H2543 H 0.39474 0.25624 0.61122 0.0
H2544 H 0.27672 0.33991 0.77 0.0
H2545 H 0.33697 0.35948 0.74482 0.0
H2546 H 0.07508 0.13959 0.57364 0.0
H2547 H 0.40975 0.32947 0.62367 0.0
H2548 H 0.05179 -0.04011 0.76 0.0
N2549 N 0.12184 0.10963 0.66843 0.0
C2550 C 0.09235 0.07798 0.6923 0.0
C2551 C 0.08009 0.12305 0.60855 0.0
C2552 C 0.05576 0.06988 0.68119 0.0
C2553 C 0.11597 0.13082 0.62309 0.0
C2554 C 0.05003 0.09303 0.63828 0.0
N2555 N 0.13312 0.05703 0.71087 0.0
C2556 C 0.13832 0.02784 0.72144 0.0
C2557 C 0.0681 0.01609 0.73512 0.0
C2558 C 0.09826 0.0508 0.71502 0.0
C2559 C 0.07422 -0.01277 0.74809 0.0
C2560 C 0.10908 -0.00711 0.7372 0.0
H2561 H 0.02257 0.08647 0.62338 0.0
H2562 H -0.00209 0.03096 0.69916 0.0
H2563 H 0.00911 -0.01604 0.75032 0.0
O2564 O 0.16584 0.07302 0.61218 0.0
O2565 O 0.1865 0.09098 0.77237 0.0
O2566 O 0.21071 0.1434 0.82848 0.0
O2567 O 0.1892 0.12897 0.56998 0.0
O2568 O 0.22945 0.1097 0.73843 0.0
O2569 O 0.27767 0.1511 0.6861 0.0
O2570 O 0.25795 0.15708 0.84491 0.0
O2571 O 0.27694 0.17654 0.62072 0.0
O2572 O 0.22418 0.1532 0.56973 0.0
O2573 O 0.30457 0.20705 0.80362 0.0
O2574 O 0.20991 0.18921 0.81335 0.0
O2575 O 0.15672 0.14973 0.76091 0.0
C2576 C 0.18575 0.10847 0.8267 0.0
C2577 C 0.15604 0.07888 0.49377 0.0
C2578 C 0.16035 0.05571 0.38277 0.0
C2579 C 0.12194 0.03824 0.37627 0.0
C2580 C 0.11845 0.06538 0.48539 0.0
C2581 C 0.1012 0.04474 0.42557 0.0
C2582 C 0.17682 0.07625 0.44093 0.0
C2583 C 0.26588 0.12584 0.73134 0.0
C2584 C 0.17568 0.09405 0.5571 0.0
C2585 C 0.02596 0.03693 0.70601 0.0
C2586 C 0.03227 0.01017 0.73455 0.0
C2587 C 0.26185 0.17063 0.5552 0.0
C2588 C 0.31559 0.17966 0.90595 0.0
C2589 C 0.28213 0.18927 0.99186 0.0
C2590 C 0.30368 0.22621 0.97336 0.0
C2591 C 0.34569 0.21462 0.91377 0.0
C2592 C 0.29386 0.16586 0.96562 0.0
C2593 C 0.3377 0.23994 0.94169 0.0
C2594 C 0.17275 0.17444 0.81556 0.0
C2595 C 0.2923 0.18171 0.85088 0.0
H2596 H 0.10803 0.01929 0.33455 0.0
H2597 H 0.10258 0.06909 0.52592 0.0
H2598 H 0.0718 0.03246 0.41902 0.0
H2599 H 0.20633 0.09112 0.44423 0.0
H2600 H 0.29417 0.24441 0.97852 0.0
H2601 H 0.36565 0.22423 0.87339 0.0
H2602 H 0.27551 0.13673 0.9687 0.0
H2603 H 0.3525 0.26809 0.92546 0.0
Eu2604 Eu 0.7804 0.03903 0.69458 0.0
C2605 C 0.63098 0.01586 0.74252 0.0
N2606 N 0.66416 0.05499 0.73073 0.0
C2607 C 0.6368 0.09945 0.6602 0.0
C2608 C 0.58911 0.00576 0.72283 0.0
C2609 C 0.66979 0.09245 0.69729 0.0
C2610 C 0.59225 0.06497 0.65898 0.0
C2611 C 0.60917 0.95049 0.75003 0.0
C2612 C 0.63709 -0.01332 0.73912 0.0
C2613 C 0.5729 0.94127 0.74778 0.0
C2614 C 0.56306 -0.03267 0.73239 0.0
Eu2615 Eu 0.71412 0.05001 0.75771 0.0
N2616 N 0.6708 -0.00658 0.72334 0.0
C2617 C 0.61966 0.92509 0.76911 0.0
C2618 C 0.67819 -0.03392 0.71866 0.0
C2619 C 0.65577 0.93401 0.75633 0.0
H2620 H 0.69724 0.11551 0.69715 0.0
H2621 H 0.6642 0.91387 0.76419 0.0
H2622 H 0.74473 -0.03886 0.61097 0.0
H2623 H 0.91756 0.11126 0.82661 0.0
H2624 H 0.70444 -0.02794 0.69873 0.0
H2625 H 0.59995 0.8978 0.78681 0.0
H2626 H 0.86149 0.10556 0.77398 0.0
H2627 H 0.64339 0.12584 0.64024 0.0
H2628 H 0.55151 0.91284 0.75408 0.0
H2629 H 0.53637 0.95391 0.71325 0.0
H2630 H 0.75984 0.91211 0.58306 0.0
H2631 H 0.57127 0.06875 0.63442 0.0
H2632 H 0.93004 0.06041 0.81866 0.0
N2633 N 0.78915 -0.01212 0.68031 0.0
C2634 C 0.82108 -0.00953 0.7037 0.0
C2635 C 0.77618 0.93358 0.61803 0.0
C2636 C 0.83006 -0.03703 0.68882 0.0
C2637 C 0.76742 -0.03947 0.63567 0.0
C2638 C 0.80732 0.93464 0.64442 0.0
N2639 N 0.83977 0.05042 0.74017 0.0
C2640 C 0.86547 0.08239 0.77208 0.0
C2641 C 0.8796 0.02514 0.76292 0.0
C2642 C 0.84659 0.02213 0.73641 0.0
C2643 C 0.90485 0.05731 0.79676 0.0
C2644 C 0.89774 0.08603 0.80145 0.0
H2645 H 0.81401 0.91396 0.62867 0.0
H2646 H 0.86903 0.9442 0.70488 0.0
H2647 H 0.91188 -0.00176 0.7735 0.0
O2648 O 0.83055 0.06404 0.63221 0.0
O2649 O 0.79906 0.07068 0.79182 0.0
O2650 O 0.74666 0.04364 0.84915 0.0
O2651 O 0.77615 0.04373 0.58364 0.0
O2652 O 0.79304 0.09594 0.74904 0.0
O2653 O 0.74806 0.10087 0.70618 0.0
O2654 O 0.73482 0.07992 0.85368 0.0
O2655 O 0.72158 0.07721 0.63509 0.0
O2656 O 0.74864 0.0506 0.58449 0.0
O2657 O 0.68232 0.06919 0.81477 0.0
O2658 O 0.70894 -0.00125 0.83306 0.0
O2659 O 0.74802 -0.0163 0.77996 0.0
C2660 C 0.78131 0.05336 0.84726 0.0
C2661 C 0.82518 0.05571 0.50767 0.0
C2662 C 0.84803 0.08724 0.39776 0.0
C2663 C 0.86858 0.06939 0.39002 0.0
C2664 C 0.84304 0.03568 0.49795 0.0
C2665 C 0.8641 0.04193 0.43738 0.0
C2666 C 0.82356 0.07687 0.45316 0.0
C2667 C 0.77575 0.11514 0.74591 0.0
C2668 C 0.81166 0.05982 0.57481 0.0
C2669 C 0.8624 -0.03445 0.71512 0.0
C2670 C 0.88682 -0.00367 0.7536 0.0
C2671 C 0.73111 0.07087 0.56988 0.0
C2672 C 0.70928 0.11226 0.9112 0.0
C2673 C 0.70392 0.06947 0.99381 0.0
C2674 C 0.66664 0.05088 0.97497 0.0
C2675 C 0.67334 0.10413 0.92056 0.0
C2676 C 0.72464 0.10575 0.97 0.0
C2677 C 0.65031 0.06921 0.94484 0.0
C2678 C 0.72349 -0.02392 0.83537 0.0
C2679 C 0.71016 0.08961 0.85397 0.0
H2680 H 0.88703 0.07575 0.34613 0.0
H2681 H 0.8416 0.01646 0.53746 0.0
H2682 H 0.87801 0.02662 0.42831 0.0
H2683 H 0.80438 0.08673 0.45601 0.0
H2684 H 0.64945 0.0229 0.98339 0.0
H2685 H 0.66149 0.114 0.8838 0.0
H2686 H 0.75415 0.12025 0.97439 0.0
H2687 H 0.62208 0.05456 0.92833 0.0
Eu2688 Eu 0.85907 0.71495 0.68338 0.0
C2689 C 0.8773 0.59973 0.76759 0.0
N2690 N 0.84436 0.59617 0.72317 0.0
C2691 C 0.82095 0.53307 0.62927 0.0
C2692 C 0.89127 0.56884 0.76157 0.0
C2693 C 0.8188 0.56837 0.66364 0.0
C2694 C 0.85132 0.52182 0.65955 0.0
C2695 C -0.06009 0.64463 0.79532 0.0
C2696 C 0.90473 0.63516 0.7753 0.0
C2697 C -0.04954 0.6184 0.803 0.0
C2698 C 0.92678 0.5814 0.79043 0.0
Eu2699 Eu 0.84046 0.64687 0.76289 0.0
N2700 N 0.89866 0.66054 0.74537 0.0
C2701 C -0.03539 0.68191 0.80355 0.0
C2702 C 0.92594 0.69381 0.72935 0.0
C2703 C -0.04208 0.70727 0.76901 0.0
H2704 H 0.79377 0.56746 0.64868 0.0
H2705 H -0.02181 0.73613 0.76669 0.0
H2706 H -0.04957 0.76495 0.65607 0.0
H2707 H 0.77355 0.77133 0.78486 0.0
H2708 H 0.91985 0.71074 0.6968 0.0
H2709 H -0.00991 0.69117 0.83086 0.0
H2710 H 0.78682 0.7217 0.74786 0.0
H2711 H 0.80129 0.51643 0.58992 0.0
H2712 H -0.02219 0.62644 0.82003 0.0
H2713 H -0.06091 0.56492 0.79471 0.0
H2714 H -0.00304 0.82725 0.62366 0.0
H2715 H 0.85335 0.49992 0.63556 0.0
H2716 H 0.81889 0.83555 0.76716 0.0
N2717 N 0.90823 0.77673 0.66954 0.0
C2718 C 0.90007 0.80416 0.67696 0.0
C2719 C -0.03015 0.82136 0.63811 0.0
C2720 C 0.92724 0.84144 0.66639 0.0
C2721 C -0.05682 0.78551 0.65468 0.0
C2722 C -0.03829 0.84948 0.64241 0.0
N2723 N 0.83912 0.759 0.70782 0.0
C2724 C 0.80609 0.75008 0.73745 0.0
C2725 C 0.85854 0.82388 0.71976 0.0
C2726 C 0.8652 0.79537 0.69913 0.0
C2727 C 0.82485 0.81456 0.74989 0.0
C2728 C 0.7988 0.77774 0.75931 0.0
H2729 H -0.01721 0.8775 0.63098 0.0
H2730 H -0.05942 0.89818 0.67507 0.0
H2731 H 0.88083 0.88284 0.72537 0.0
O2732 O 0.82619 0.72356 0.60838 0.0
O2733 O 0.86551 0.74503 0.77949 0.0
O2734 O 0.83415 0.69132 0.83427 0.0
O2735 O 0.88143 0.73131 0.57805 0.0
O2736 O 0.79827 0.66128 0.71125 0.0
O2737 O 0.80149 0.65535 0.8236 0.0
O2738 O 0.84136 0.61929 0.85675 0.0
O2739 O 0.81483 0.62619 0.63404 0.0
O2740 O 0.8548 0.67388 0.57996 0.0
O2741 O 0.79792 0.59023 0.78267 0.0
O2742 O 0.88763 0.68535 0.84666 0.0
O2743 O 0.9077 0.73778 0.78431 0.0
C2744 C 0.84667 0.72718 0.83263 0.0
C2745 C 0.84973 0.74941 0.49625 0.0
C2746 C 0.8158 0.74296 0.39013 0.0
C2747 C 0.83177 0.78132 0.38737 0.0
C2748 C 0.86898 0.78748 0.48897 0.0
C2749 C 0.85977 0.80356 0.43423 0.0
C2750 C 0.82531 0.72746 0.44463 0.0
C2751 C 0.78103 0.64375 0.77135 0.0
C2752 C 0.85096 0.73089 0.559 0.0
C2753 C 0.91977 0.86956 0.6822 0.0
C2754 C 0.8858 0.86083 0.71066 0.0
C2755 C 0.82808 0.63797 0.56669 0.0
C2756 C 0.78775 0.5723 0.90042 0.0
C2757 C 0.78649 0.59916 1.00788 0.0
C2758 C 0.79053 0.57202 0.0436 0.0
C2759 C 0.79215 0.5458 0.93413 0.0
C2760 C 0.77835 0.59418 0.93843 0.0
C2761 C 0.79087 0.5437 1.0068 0.0
C2762 C 0.91067 0.72197 0.84668 0.0
C2763 C 0.81166 0.58894 0.84219 0.0
H2764 H 0.82303 0.79408 0.3487 0.0
H2765 H 0.88949 0.80455 0.52722 0.0
H2766 H 0.87336 0.83314 0.42957 0.0
H2767 H 0.81402 0.69814 0.4472 0.0
H2768 H 0.79778 0.57475 0.09782 0.0
H2769 H 0.80284 0.53206 0.90379 0.0
H2770 H 0.7768 0.61587 0.91381 0.0
H2771 H 0.79591 0.52417 1.03413 0.0
Eu2772 Eu 0.77227 0.53243 0.3654 0.0
C2773 C 0.90285 0.65191 0.29343 0.0
N2774 N 0.8709 0.65826 0.31825 0.0
C2775 C 0.90494 0.73109 0.38712 0.0
C2776 C -0.05356 0.68394 0.30303 0.0
C2777 C 0.86906 0.69103 0.35744 0.0
C2778 C -0.0512 0.74064 0.37431 0.0
C2779 C 0.92482 0.60863 0.27771 0.0
C2780 C 0.89696 0.61636 0.29365 0.0
C2781 C -0.03949 0.63649 0.26551 0.0
C2782 C -0.02831 0.67303 0.27904 0.0
Eu2783 Eu 0.82152 0.60226 0.28233 0.0
N2784 N 0.86511 0.58974 0.32098 0.0
C2785 C 0.91659 0.5722 0.28128 0.0
C2786 C 0.86155 0.55806 0.34519 0.0
C2787 C 0.88521 0.54709 0.3176 0.0
H2788 H 0.84232 0.6879 0.36319 0.0
H2789 H 0.87812 0.51938 0.31979 0.0
H2790 H 0.81034 0.48309 0.40639 0.0
H2791 H 0.63725 0.47867 0.23171 0.0
H2792 H 0.83761 0.53964 0.37488 0.0
H2793 H 0.93605 0.56419 0.26386 0.0
H2794 H 0.69756 0.52806 0.28063 0.0
H2795 H 0.90018 0.75148 0.41074 0.0
H2796 H -0.01862 0.6296 0.25189 0.0
H2797 H 0.00052 0.6904 0.27885 0.0
H2798 H 0.79174 0.41824 0.43235 0.0
H2799 H -0.02818 0.76625 0.39282 0.0
H2800 H 0.61427 0.41483 0.25872 0.0
N2801 N 0.75744 0.47083 0.38037 0.0
C2802 C 0.72185 0.44413 0.36894 0.0
C2803 C 0.77186 0.42533 0.41597 0.0
C2804 C 0.71023 0.40673 0.38134 0.0
C2805 C 0.78253 0.46172 0.40084 0.0
C2806 C 0.73537 0.39792 0.40864 0.0
N2807 N 0.70917 0.49033 0.33057 0.0
C2808 C 0.68725 0.49973 0.29372 0.0
C2809 C 0.66248 0.4257 0.31782 0.0
C2810 C 0.69742 0.45379 0.3413 0.0
C2811 C 0.64054 0.4355 0.27994 0.0
C2812 C 0.65341 0.4723 0.26606 0.0
H2813 H 0.72727 0.36968 0.41998 0.0
H2814 H 0.66563 0.35042 0.3725 0.0
H2815 H 0.62421 0.36697 0.31307 0.0
O2816 O 0.72661 0.51938 0.43373 0.0
O2817 O 0.75461 0.50397 0.26276 0.0
O2818 O 0.77229 0.55725 0.20775 0.0
O2819 O 0.77553 0.51588 0.47189 0.0
O2820 O 0.77151 0.58803 0.34134 0.0
O2821 O 0.76719 0.58633 0.22879 0.0
O2822 O 0.85047 0.62227 0.1854 0.0
O2823 O 0.82093 0.62554 0.4132 0.0
O2824 O 0.80277 0.5746 0.47204 0.0
O2825 O 0.84019 0.65806 0.24517 0.0
O2826 O 0.83788 0.56579 0.21077 0.0
O2827 O 0.80464 0.51311 0.27196 0.0
C2828 C 0.75325 0.52072 0.20713 0.0
C2829 C 0.72261 0.4943 0.54795 0.0
C2830 C 0.68973 0.49875 0.64792 0.0
C2831 C 0.66804 0.46006 0.64883 0.0
C2832 C 0.7028 0.45602 0.55186 0.0
C2833 C 0.67589 0.4389 0.60343 0.0
C2834 C 0.71784 0.5154 0.59864 0.0
C2835 C 0.77436 0.60627 0.28209 0.0
C2836 C 0.74358 0.51347 0.48624 0.0
C2837 C 0.6746 0.37917 0.3635 0.0
C2838 C 0.65106 0.38858 0.32997 0.0
C2839 C 0.81544 0.61158 0.48182 0.0
C2840 C 0.84205 0.66543 0.12874 0.0
C2841 C 0.80355 0.63732 1.03362 0.0
C2842 C 0.82778 0.66734 0.99156 0.0
C2843 C 0.86765 0.69426 0.08845 0.0
C2844 C 0.80743 0.64179 0.10361 0.0
C2845 C 0.85845 0.69778 1.02036 0.0
C2846 C 0.82585 0.52975 0.21214 0.0
C2847 C 0.85353 0.65426 0.18844 0.0
H2848 H 0.64591 0.44602 0.68631 0.0
H2849 H 0.70703 0.4395 0.51381 0.0
H2850 H 0.66017 0.40924 0.60654 0.0
H2851 H 0.73548 0.54492 0.59821 0.0
H2852 H 0.82841 0.66407 0.93711 0.0
H2853 H 0.89506 0.71058 0.10808 0.0
H2854 H 0.78776 0.61989 0.13432 0.0
H2855 H 0.87835 0.71936 0.98685 0.0
Eu2856 Eu 0.36804 0.22132 0.35669 0.0
C2857 C 0.2216 0.21629 0.26836 0.0
N2858 N 0.22858 0.18759 0.3067 0.0
C2859 C 0.18298 0.16452 0.43506 0.0
C2860 C 0.1911 0.22547 0.29828 0.0
C2861 C 0.21242 0.16327 0.37664 0.0
C2862 C 0.16505 0.19119 0.42003 0.0
C2863 C 0.24871 0.28118 0.23688 0.0
C2864 C 0.25216 0.24971 0.24933 0.0
C2865 C 0.21493 0.27784 0.22856 0.0
C2866 C 0.18465 0.24635 0.25107 0.0
Eu2867 Eu 0.28751 0.20096 0.27688 0.0
N2868 N 0.28501 0.25501 0.26898 0.0
C2869 C 0.27945 0.31554 0.23179 0.0
C2870 C 0.31319 0.28961 0.27855 0.0
C2871 C 0.31252 0.31886 0.24704 0.0
H2872 H 0.21607 0.14005 0.38249 0.0
H2873 H 0.33668 0.34462 0.23764 0.0
H2874 H 0.41916 0.30326 0.43354 0.0
H2875 H 0.42474 0.14015 0.23257 0.0
H2876 H 0.33669 0.29311 0.3036 0.0
H2877 H 0.27775 0.33935 0.21626 0.0
H2878 H 0.37595 0.15053 0.28173 0.0
H2879 H 0.17002 0.14465 0.47465 0.0
H2880 H 0.21369 0.30071 0.20734 0.0
H2881 H 0.15747 0.23949 0.24028 0.0
H2882 H 0.48206 0.35643 0.42269 0.0
H2883 H 0.1445 0.18962 0.45671 0.0
H2884 H 0.48873 0.18578 0.24318 0.0
N2885 N 0.4308 0.26895 0.37349 0.0
C2886 C 0.45846 0.2634 0.35153 0.0
C2887 C 0.47589 0.32997 0.4057 0.0
C2888 C 0.496 0.29089 0.35827 0.0
C2889 C 0.43967 0.30099 0.40524 0.0
C2890 C 0.50439 0.32442 0.38629 0.0
N2891 N 0.41318 0.20427 0.31838 0.0
C2892 C 0.4041 0.17171 0.28608 0.0
C2893 C 0.47773 0.22421 0.29716 0.0
C2894 C 0.44947 0.23023 0.323 0.0
C2895 C 0.46809 0.19128 0.26447 0.0
C2896 C 0.43133 0.16522 0.25845 0.0
H2897 H 0.53265 0.34634 0.39184 0.0
H2898 H 0.55269 0.3057 0.3396 0.0
H2899 H 0.53651 0.24692 0.28435 0.0
O2900 O 0.37439 0.18272 0.41821 0.0
O2901 O 0.38561 0.22435 0.24976 0.0
O2902 O 0.33027 0.20084 0.19195 0.0
O2903 O 0.37461 0.22991 0.46986 0.0
O2904 O 0.32996 0.16581 0.29165 0.0
O2905 O 0.28032 0.15633 0.34014 0.0
O2906 O 0.27663 0.17695 0.17249 0.0
O2907 O 0.27524 0.17493 0.40447 0.0
O2908 O 0.32426 0.21297 0.45911 0.0
O2909 O 0.23188 0.16133 0.24399 0.0
O2910 O 0.3342 0.25287 0.20868 0.0
O2911 O 0.38519 0.2764 0.27802 0.0
C2912 C 0.36645 0.21227 0.19304 0.0
C2913 C 0.39109 0.19253 0.53627 0.0
C2914 C 0.38664 0.15329 0.63273 0.0
C2915 C 0.42564 0.17297 0.63599 0.0
C2916 C 0.42904 0.21403 0.54475 0.0
C2917 C 0.44632 0.20418 0.59511 0.0
C2918 C 0.36958 0.16303 0.58147 0.0
C2919 C 0.29384 0.14618 0.2919 0.0
C2920 C 0.37339 0.19814 0.4772 0.0
C2921 C 0.52398 0.28468 0.33491 0.0
C2922 C 0.5148 0.25137 0.30366 0.0
C2923 C 0.2878 0.18701 0.47111 0.0
C2924 C 0.21672 0.14861 0.12651 0.0
C2925 C 0.2452 0.17474 1.0217 0.0
C2926 C 0.22794 0.19562 1.02548 0.0
C2927 C 0.19487 0.16478 0.12519 0.0
C2928 C 0.23172 0.14463 0.06507 0.0
C2929 C 0.19775 0.18563 0.06767 0.0
C2930 C 0.3698 0.27978 0.21599 0.0
C2931 C 0.24144 0.15711 0.18309 0.0
H2932 H 0.44033 0.1658 0.67363 0.0
H2933 H 0.44528 0.23719 0.51038 0.0
H2934 H 0.47581 0.22026 0.60162 0.0
H2935 H 0.33986 0.14831 0.57749 0.0
H2936 H 0.24265 0.22356 1.01482 0.0
H2937 H 0.18037 0.16623 0.1707 0.0
H2938 H 0.24575 0.12904 0.06776 0.0
H2939 H 0.18279 0.20033 0.06617 0.0
Eu2940 Eu 0.68154 0.12776 0.3664 0.0
C2941 C 0.682 -0.01842 0.27313 0.0
N2942 N 0.71063 0.0172 0.31198 0.0
C2943 C 0.72947 -0.00519 0.44514 0.0
C2944 C 0.67039 0.94133 0.30591 0.0
C2945 C 0.7334 0.02518 0.3835 0.0
C2946 C 0.7018 0.94999 0.43104 0.0
C2947 C 0.61871 0.9452 0.23339 0.0
C2948 C 0.64973 -0.02026 0.25016 0.0
C2949 C 0.6223 0.91498 0.22431 0.0
C2950 C 0.6507 0.9138 0.25711 0.0
Eu2951 Eu 0.69829 0.06373 0.28796 0.0
N2952 N 0.64412 0.0071 0.27023 0.0
C2953 C 0.58419 0.94114 0.22836 0.0
C2954 C 0.60923 0.00084 0.27507 0.0
C2955 C 0.5806 -0.02918 0.2425 0.0
H2956 H 0.75804 0.05129 0.38799 0.0
H2957 H 0.55506 -0.03083 0.23053 0.0
H2958 H 0.59826 0.0984 0.43594 0.0
H2959 H 0.77294 0.27569 0.32611 0.0
H2960 H 0.60457 0.02017 0.3011 0.0
H2961 H 0.56046 0.91551 0.21245 0.0
H2962 H 0.75647 0.21167 0.34243 0.0
H2963 H 0.74779 0.00311 0.48899 0.0
H2964 H 0.60071 0.89202 0.19756 0.0
H2965 H 0.65674 0.89252 0.2481 0.0
H2966 H 0.54583 0.10914 0.42454 0.0
H2967 H 0.70269 0.93135 0.46868 0.0
H2968 H 0.72639 0.29043 0.28374 0.0
N2969 N 0.63244 0.14176 0.36908 0.0
C2970 C 0.63843 0.17445 0.34327 0.0
C2971 C 0.57186 0.12781 0.40197 0.0
C2972 C 0.61079 0.1842 0.3423 0.0
C2973 C 0.60052 0.12011 0.4036 0.0
C2974 C 0.57729 0.16044 0.373 0.0
N2975 N 0.69973 0.19116 0.33958 0.0
C2976 C 0.73552 0.21821 0.33465 0.0
C2977 C 0.68202 0.23574 0.30524 0.0
C2978 C 0.67349 0.20016 0.32785 0.0
C2979 C 0.71862 0.26274 0.29907 0.0
C2980 C 0.74517 0.25434 0.31903 0.0
H2981 H 0.5561 0.16776 0.3772 0.0
H2982 H 0.59691 0.22556 0.31205 0.0
H2983 H 0.66005 0.27092 0.27711 0.0
O2984 O 0.71624 0.16578 0.44411 0.0
O2985 O 0.70985 0.15417 0.26858 0.0
O2986 O 0.69268 0.10261 0.20634 0.0
O2987 O 0.66356 0.11698 0.47581 0.0
O2988 O 0.73901 0.14295 0.30837 0.0
O2989 O 0.74428 0.09891 0.35121 0.0
O2990 O 0.72574 0.08373 0.18708 0.0
O2991 O 0.72538 0.07702 0.41722 0.0
O2992 O 0.69462 0.09714 0.47184 0.0
O2993 O 0.73637 0.04758 0.24853 0.0
O2994 O 0.64705 0.06217 0.21882 0.0
O2995 O 0.6263 0.09296 0.28429 0.0
C2996 C 0.69738 0.13607 0.21081 0.0
C2997 C 0.69494 0.16692 0.55566 0.0
C2998 C 0.73265 0.19981 0.65438 0.0
C2999 C 0.71562 0.22153 0.65474 0.0
C3000 C 0.67637 0.18661 0.55847 0.0
C3001 C 0.6861 0.21331 0.61016 0.0
C3002 C 0.72016 0.17111 0.60719 0.0
C3003 C 0.75815 0.12575 0.30941 0.0
C3004 C 0.69426 0.14637 0.49526 0.0
C3005 C 0.6182 0.21828 0.31501 0.0
C3006 C 0.65397 0.24401 0.29532 0.0
C3007 C 0.71709 0.08246 0.48416 0.0
C3008 C 0.74765 0.04938 0.12954 0.0
C3009 C 0.72178 0.05015 1.02313 0.0
C3010 C 0.70453 0.0119 1.02336 0.0
C3011 C 0.73414 0.01155 0.12686 0.0
C3012 C 0.75016 0.06879 0.06943 0.0
C3013 C 0.71498 -0.007 0.06818 0.0
C3014 C 0.62097 0.07246 0.22388 0.0
C3015 C 0.74295 0.06538 0.19119 0.0
H3016 H 0.72426 0.24421 0.69085 0.0
H3017 H 0.65604 0.18262 0.51924 0.0
H3018 H 0.67221 0.22902 0.61338 0.0
H3019 H 0.73122 0.1528 0.60819 0.0
H3020 H 0.67716 -0.00264 1.01006 0.0
H3021 H 0.73278 -0.00435 0.17254 0.0
H3022 H 0.76339 0.09845 0.07318 0.0
H3023 H 0.70086 -0.03669 0.06768 0.0
loop_
_geom_bond_atom_site_label_1
_geom_bond_atom_site_label_2
_geom_bond_distance
_geom_bond_site_symmetry_2
_ccdc_geom_bond_type
Eu0 N29 2.600 1_455 S
Eu0 N35 2.562 1_455 S
Eu0 O44 2.462 1_554 S
Eu0 O45 2.373 . S
Eu0 O47 2.432 1_454 S
Eu0 O48 2.291 . S
Eu0 O52 2.335 . S
Eu0 O55 2.372 1_455 S
Eu0 C64 2.787 1_454 S
C1 N2 1.365 . S
C1 C4 1.405 . S
C1 C8 1.448 . S
N2 C1 1.365 . S
N2 C5 1.319 . S
N2 Eu11 2.600 . S
C3 C5 1.397 . S
C3 C6 1.367 . S
C3 H23 0.931 . S
C4 C1 1.405 . S
C4 C6 1.403 . S
C4 C10 1.439 . S
C5 N2 1.319 . S
C5 C3 1.397 . S
C5 H16 0.930 . S
C6 C3 1.367 . S
C6 C4 1.403 . S
C6 H27 0.929 . S
C7 C8 1.430 . S
C7 C9 1.387 . S
C7 C13 1.404 . S
C8 C1 1.448 . S
C8 C7 1.430 . S
C8 N12 1.351 . S
C9 C7 1.387 . S
C9 C10 1.374 . S
C9 H24 0.931 . S
C10 C4 1.439 . S
C10 C9 1.374 . S
C10 H25 0.931 . S
Eu11 N2 2.600 . S
Eu11 N12 2.562 . S
Eu11 O46 2.335 . S
Eu11 O49 2.372 . S
Eu11 O50 2.462 . S
Eu11 O51 2.373 . S
Eu11 O53 2.432 . S
Eu11 O54 2.291 . S
Eu11 C75 2.787 . S
N12 C8 1.351 . S
N12 Eu11 2.562 . S
N12 C14 1.325 . S
C13 C7 1.404 . S
C13 C15 1.366 . S
C13 H21 0.930 . S
C14 N12 1.325 . S
C14 C15 1.416 . S
C14 H20 0.929 . S
C15 C13 1.366 . S
C15 C14 1.416 . S
C15 H17 0.930 . S
H16 C5 0.930 . S
H17 C15 0.930 . S
H18 C33 0.930 . S
H19 C40 0.930 1_455 S
H20 C14 0.929 . S
H21 C13 0.930 . S
H22 C36 0.929 . S
H23 C3 0.931 . S
H24 C9 0.931 . S
H25 C10 0.931 . S
H26 C31 0.931 . S
H27 C6 0.929 . S
H28 C39 0.930 . S
N29 Eu0 2.600 1_655 S
N29 C30 1.365 . S
N29 C33 1.319 . S
C30 N29 1.365 . S
C30 C32 1.405 . S
C30 C38 1.448 . S
C31 H26 0.931 . S
C31 C33 1.397 . S
C31 C34 1.367 . S
C32 C30 1.405 . S
C32 C34 1.403 . S
C32 C65 1.439 . S
C33 H18 0.930 . S
C33 N29 1.319 . S
C33 C31 1.397 . S
C34 C31 1.367 . S
C34 C32 1.403 . S
C34 H41 0.929 . S
N35 Eu0 2.562 1_655 S
N35 C36 1.325 1_655 S
N35 C38 1.351 . S
C36 H22 0.929 . S
C36 N35 1.325 1_455 S
C36 C40 1.416 1_455 S
C37 C38 1.430 . S
C37 C39 1.404 . S
C37 C66 1.387 . S
C38 C30 1.448 . S
C38 N35 1.351 . S
C38 C37 1.430 . S
C39 H28 0.930 . S
C39 C37 1.404 . S
C39 C40 1.366 . S
C40 H19 0.930 1_655 S
C40 C36 1.416 1_655 S
C40 C39 1.366 . S
H41 C34 0.929 . S
H42 C65 0.931 . S
H43 C66 0.931 . S
O44 Eu0 2.462 1_556 S
O44 C64 1.252 1_455 S
O45 Eu0 2.373 . S
O45 C56 1.249 . S
O46 Eu11 2.335 . S
O46 C56 1.264 . S
O47 Eu0 2.432 1_656 S
O47 C64 1.268 . S
O48 Eu0 2.291 . S
O48 C63 1.255 . S
O49 Eu11 2.372 . S
O49 C63 1.257 . S
O50 Eu11 2.462 . S
O50 C75 1.252 . S
O51 Eu11 2.373 . S
O51 C67 1.249 . S
O52 Eu0 2.335 . S
O52 C67 1.264 . S
O53 Eu11 2.432 . S
O53 C75 1.268 . S
O54 Eu11 2.291 . S
O54 C74 1.255 . S
O55 Eu0 2.372 1_655 S
O55 C74 1.257 1_655 S
C56 O45 1.249 . S
C56 O46 1.264 . S
C57 C60 1.382 . S
C57 C62 1.390 1_655 S
C57 C64 1.506 . S
C58 C59 1.398 . S
C58 C62 1.392 1_655 S
C59 C58 1.398 . S
C59 C61 1.372 . S
C59 H76 0.931 . S
C60 C57 1.382 . S
C60 C61 1.390 . S
C60 H77 0.931 . S
C61 C59 1.372 . S
C61 C60 1.390 . S
C61 H78 0.929 . S
C62 C57 1.390 1_455 S
C62 C58 1.392 1_455 S
C62 H79 0.930 . S
C63 O48 1.255 . S
C63 O49 1.257 . S
C64 Eu0 2.787 1_656 S
C64 O44 1.252 1_655 S
C64 O47 1.268 . S
C64 C57 1.506 . S
C65 C32 1.439 . S
C65 H42 0.931 . S
C65 C66 1.374 . S
C66 C37 1.387 . S
C66 H43 0.931 . S
C66 C65 1.374 . S
C67 O51 1.249 . S
C67 O52 1.264 . S
C68 C71 1.382 . S
C68 C72 1.390 . S
C68 C75 1.506 . S
C69 C70 1.398 . S
C69 C72 1.392 . S
C70 C69 1.398 . S
C70 C73 1.372 . S
C70 H80 0.931 . S
C71 C68 1.382 . S
C71 C73 1.390 . S
C71 H81 0.931 . S
C72 C68 1.390 . S
C72 C69 1.392 . S
C72 H82 0.930 . S
C73 C70 1.372 . S
C73 C71 1.390 . S
C73 H83 0.929 . S
C74 O54 1.255 . S
C74 O55 1.257 1_455 S
C75 Eu11 2.787 . S
C75 O50 1.252 . S
C75 O53 1.268 . S
C75 C68 1.506 . S
H76 C59 0.931 . S
H77 C60 0.931 . S
H78 C61 0.929 . S
H79 C62 0.930 . S
H80 C70 0.931 . S
H81 C71 0.931 . S
H82 C72 0.930 . S
H83 C73 0.929 . S
Eu84 N113 2.600 . S
Eu84 N119 2.562 . S
Eu84 O128 2.462 1_554 S
Eu84 O129 2.373 . S
Eu84 O131 2.432 1_554 S
Eu84 O132 2.291 . S
Eu84 O136 2.335 . S
Eu84 O139 2.372 . S
Eu84 C148 2.787 1_554 S
C85 N86 1.365 . S
C85 C88 1.405 . S
C85 C92 1.448 . S
N86 C85 1.365 . S
N86 C89 1.319 . S
N86 Eu95 2.600 . S
C87 C89 1.397 . S
C87 C90 1.367 . S
C87 H107 0.931 . S
C88 C85 1.405 . S
C88 C90 1.403 . S
C88 C94 1.439 . S
C89 N86 1.319 . S
C89 C87 1.397 . S
C89 H100 0.930 . S
C90 C87 1.367 . S
C90 C88 1.403 . S
C90 H111 0.929 . S
C91 C92 1.430 . S
C91 C93 1.387 . S
C91 C97 1.404 . S
C92 C85 1.448 . S
C92 C91 1.430 . S
C92 N96 1.351 . S
C93 C91 1.387 . S
C93 C94 1.374 . S
C93 H108 0.931 . S
C94 C88 1.439 . S
C94 C93 1.374 . S
C94 H109 0.931 . S
Eu95 N86 2.600 . S
Eu95 N96 2.562 . S
Eu95 O130 2.335 . S
Eu95 O133 2.372 . S
Eu95 O134 2.462 . S
Eu95 O135 2.373 . S
Eu95 O137 2.432 . S
Eu95 O138 2.291 . S
Eu95 C159 2.787 . S
N96 C92 1.351 . S
N96 Eu95 2.562 . S
N96 C98 1.325 . S
C97 C91 1.404 . S
C97 C99 1.366 . S
C97 H105 0.930 . S
C98 N96 1.325 . S
C98 C99 1.416 . S
C98 H104 0.929 . S
C99 C97 1.366 . S
C99 C98 1.416 . S
C99 H101 0.930 . S
H100 C89 0.930 . S
H101 C99 0.930 . S
H102 C117 0.930 . S
H103 C124 0.930 . S
H104 C98 0.929 . S
H105 C97 0.930 . S
H106 C120 0.929 . S
H107 C87 0.931 . S
H108 C93 0.931 . S
H109 C94 0.931 . S
H110 C115 0.931 . S
H111 C90 0.929 . S
H112 C123 0.930 . S
N113 Eu84 2.600 . S
N113 C114 1.365 . S
N113 C117 1.319 . S
C114 N113 1.365 . S
C114 C116 1.405 . S
C114 C122 1.448 . S
C115 H110 0.931 . S
C115 C117 1.397 . S
C115 C118 1.367 . S
C116 C114 1.405 . S
C116 C118 1.403 . S
C116 C149 1.439 . S
C117 H102 0.930 . S
C117 N113 1.319 . S
C117 C115 1.397 . S
C118 C115 1.367 . S
C118 C116 1.403 . S
C118 H125 0.929 . S
N119 Eu84 2.562 . S
N119 C120 1.325 . S
N119 C122 1.351 . S
C120 H106 0.929 . S
C120 N119 1.325 . S
C120 C124 1.416 . S
C121 C122 1.430 . S
C121 C123 1.404 . S
C121 C150 1.387 . S
C122 C114 1.448 . S
C122 N119 1.351 . S
C122 C121 1.430 . S
C123 H112 0.930 . S
C123 C121 1.404 . S
C123 C124 1.366 . S
C124 H103 0.930 . S
C124 C120 1.416 . S
C124 C123 1.366 . S
H125 C118 0.929 . S
H126 C149 0.931 . S
H127 C150 0.931 . S
O128 Eu84 2.462 1_556 S
O128 C148 1.252 . S
O129 Eu84 2.373 . S
O129 C140 1.249 . S
O130 Eu95 2.335 . S
O130 C140 1.264 . S
O131 Eu84 2.432 1_556 S
O131 C148 1.268 . S
O132 Eu84 2.291 . S
O132 C147 1.255 . S
O133 Eu95 2.372 . S
O133 C147 1.257 . S
O134 Eu95 2.462 . S
O134 C159 1.252 . S
O135 Eu95 2.373 . S
O135 C151 1.249 . S
O136 Eu84 2.335 . S
O136 C151 1.264 . S
O137 Eu95 2.432 . S
O137 C159 1.268 . S
O138 Eu95 2.291 . S
O138 C158 1.255 . S
O139 Eu84 2.372 . S
O139 C158 1.257 . S
C140 O129 1.249 . S
C140 O130 1.264 . S
C141 C144 1.382 . S
C141 C146 1.390 . S
C141 C148 1.506 . S
C142 C143 1.398 . S
C142 C146 1.392 . S
C143 C142 1.398 . S
C143 C145 1.372 . S
C143 H160 0.931 . S
C144 C141 1.382 . S
C144 C145 1.390 . S
C144 H161 0.931 . S
C145 C143 1.372 . S
C145 C144 1.390 . S
C145 H162 0.929 . S
C146 C141 1.390 . S
C146 C142 1.392 . S
C146 H163 0.930 . S
C147 O132 1.255 . S
C147 O133 1.257 . S
C148 Eu84 2.787 1_556 S
C148 O128 1.252 . S
C148 O131 1.268 . S
C148 C141 1.506 . S
C149 C116 1.439 . S
C149 H126 0.931 . S
C149 C150 1.374 . S
C150 C121 1.387 . S
C150 H127 0.931 . S
C150 C149 1.374 . S
C151 O135 1.249 . S
C151 O136 1.264 . S
C152 C155 1.382 . S
C152 C156 1.390 . S
C152 C159 1.506 . S
C153 C154 1.398 . S
C153 C156 1.392 . S
C154 C153 1.398 . S
C154 C157 1.372 . S
C154 H164 0.931 . S
C155 C152 1.382 . S
C155 C157 1.390 . S
C155 H165 0.931 . S
C156 C152 1.390 . S
C156 C153 1.392 . S
C156 H166 0.930 . S
C157 C154 1.372 . S
C157 C155 1.390 . S
C157 H167 0.929 . S
C158 O138 1.255 . S
C158 O139 1.257 . S
C159 Eu95 2.787 . S
C159 O134 1.252 . S
C159 O137 1.268 . S
C159 C152 1.506 . S
H160 C143 0.931 . S
H161 C144 0.931 . S
H162 C145 0.929 . S
H163 C146 0.930 . S
H164 C154 0.931 . S
H165 C155 0.931 . S
H166 C156 0.930 . S
H167 C157 0.929 . S
Eu168 N197 2.600 1_565 S
Eu168 N203 2.562 1_565 S
Eu168 O212 2.462 1_554 S
Eu168 O213 2.373 . S
Eu168 O215 2.432 1_564 S
Eu168 O216 2.291 . S
Eu168 O220 2.335 . S
Eu168 O223 2.372 1_565 S
Eu168 C232 2.787 1_564 S
C169 N170 1.365 . S
C169 C172 1.405 . S
C169 C176 1.448 . S
N170 C169 1.365 . S
N170 C173 1.319 . S
N170 Eu179 2.600 . S
C171 C173 1.397 . S
C171 C174 1.367 . S
C171 H191 0.931 . S
C172 C169 1.405 . S
C172 C174 1.403 . S
C172 C178 1.439 . S
C173 N170 1.319 . S
C173 C171 1.397 . S
C173 H184 0.930 . S
C174 C171 1.367 . S
C174 C172 1.403 . S
C174 H195 0.929 . S
C175 C176 1.430 . S
C175 C177 1.387 . S
C175 C181 1.404 . S
C176 C169 1.448 . S
C176 C175 1.430 . S
C176 N180 1.351 . S
C177 C175 1.387 . S
C177 C178 1.374 . S
C177 H192 0.931 . S
C178 C172 1.439 . S
C178 C177 1.374 . S
C178 H193 0.931 . S
Eu179 N170 2.600 . S
Eu179 N180 2.562 . S
Eu179 O214 2.335 . S
Eu179 O217 2.372 . S
Eu179 O218 2.462 . S
Eu179 O219 2.373 . S
Eu179 O221 2.432 . S
Eu179 O222 2.291 . S
Eu179 C243 2.787 . S
N180 C176 1.351 . S
N180 Eu179 2.562 . S
N180 C182 1.325 . S
C181 C175 1.404 . S
C181 C183 1.366 . S
C181 H189 0.930 . S
C182 N180 1.325 . S
C182 C183 1.416 . S
C182 H188 0.929 . S
C183 C181 1.366 . S
C183 C182 1.416 . S
C183 H185 0.930 . S
H184 C173 0.930 . S
H185 C183 0.930 . S
H186 C201 0.930 . S
H187 C208 0.930 1_565 S
H188 C182 0.929 . S
H189 C181 0.930 . S
H190 C204 0.929 . S
H191 C171 0.931 . S
H192 C177 0.931 . S
H193 C178 0.931 . S
H194 C199 0.931 . S
H195 C174 0.929 . S
H196 C207 0.930 . S
N197 Eu168 2.600 1_545 S
N197 C198 1.365 . S
N197 C201 1.319 . S
C198 N197 1.365 . S
C198 C200 1.405 . S
C198 C206 1.448 . S
C199 H194 0.931 . S
C199 C201 1.397 . S
C199 C202 1.367 . S
C200 C198 1.405 . S
C200 C202 1.403 . S
C200 C233 1.439 . S
C201 H186 0.930 . S
C201 N197 1.319 . S
C201 C199 1.397 . S
C202 C199 1.367 . S
C202 C200 1.403 . S
C202 H209 0.929 . S
N203 Eu168 2.562 1_545 S
N203 C204 1.325 1_545 S
N203 C206 1.351 . S
C204 H190 0.929 . S
C204 N203 1.325 1_565 S
C204 C208 1.416 1_565 S
C205 C206 1.430 . S
C205 C207 1.404 . S
C205 C234 1.387 . S
C206 C198 1.448 . S
C206 N203 1.351 . S
C206 C205 1.430 . S
C207 H196 0.930 . S
C207 C205 1.404 . S
C207 C208 1.366 . S
C208 H187 0.930 1_545 S
C208 C204 1.416 1_545 S
C208 C207 1.366 . S
H209 C202 0.929 . S
H210 C233 0.931 . S
H211 C234 0.931 . S
O212 Eu168 2.462 1_556 S
O212 C232 1.252 1_565 S
O213 Eu168 2.373 . S
O213 C224 1.249 . S
O214 Eu179 2.335 . S
O214 C224 1.264 . S
O215 Eu168 2.432 1_546 S
O215 C232 1.268 . S
O216 Eu168 2.291 . S
O216 C231 1.255 . S
O217 Eu179 2.372 . S
O217 C231 1.257 . S
O218 Eu179 2.462 . S
O218 C243 1.252 . S
O219 Eu179 2.373 . S
O219 C235 1.249 . S
O220 Eu168 2.335 . S
O220 C235 1.264 . S
O221 Eu179 2.432 . S
O221 C243 1.268 . S
O222 Eu179 2.291 . S
O222 C242 1.255 . S
O223 Eu168 2.372 1_545 S
O223 C242 1.257 1_545 S
C224 O213 1.249 . S
C224 O214 1.264 . S
C225 C228 1.382 . S
C225 C230 1.390 1_545 S
C225 C232 1.506 . S
C226 C227 1.398 . S
C226 C230 1.392 1_545 S
C227 C226 1.398 . S
C227 C229 1.372 . S
C227 H244 0.931 . S
C228 C225 1.382 . S
C228 C229 1.390 . S
C228 H245 0.931 . S
C229 C227 1.372 . S
C229 C228 1.390 . S
C229 H246 0.929 . S
C230 C225 1.390 1_565 S
C230 C226 1.392 1_565 S
C230 H247 0.930 . S
C231 O216 1.255 . S
C231 O217 1.257 . S
C232 Eu168 2.787 1_546 S
C232 O212 1.252 1_545 S
C232 O215 1.268 . S
C232 C225 1.506 . S
C233 C200 1.439 . S
C233 H210 0.931 . S
C233 C234 1.374 . S
C234 C205 1.387 . S
C234 H211 0.931 . S
C234 C233 1.374 . S
C235 O219 1.249 . S
C235 O220 1.264 . S
C236 C239 1.382 . S
C236 C240 1.390 . S
C236 C243 1.506 . S
C237 C238 1.398 . S
C237 C240 1.392 . S
C238 C237 1.398 . S
C238 C241 1.372 . S
C238 H248 0.931 . S
C239 C236 1.382 . S
C239 C241 1.390 . S
C239 H249 0.931 . S
C240 C236 1.390 . S
C240 C237 1.392 . S
C240 H250 0.930 . S
C241 C238 1.372 . S
C241 C239 1.390 . S
C241 H251 0.929 . S
C242 O222 1.255 . S
C242 O223 1.257 1_565 S
C243 Eu179 2.787 . S
C243 O218 1.252 . S
C243 O221 1.268 . S
C243 C236 1.506 . S
H244 C227 0.931 . S
H245 C228 0.931 . S
H246 C229 0.929 . S
H247 C230 0.930 . S
H248 C238 0.931 . S
H249 C239 0.931 . S
H250 C240 0.930 . S
H251 C241 0.929 . S
Eu252 N281 2.600 1_545 S
Eu252 N287 2.562 1_545 S
Eu252 O296 2.462 . S
Eu252 O297 2.373 . S
Eu252 O299 2.432 1_545 S
Eu252 O300 2.291 . S
Eu252 O304 2.335 . S
Eu252 O307 2.372 1_545 S
Eu252 C316 2.787 1_545 S
C253 N254 1.365 . S
C253 C256 1.405 . S
C253 C260 1.448 . S
N254 C253 1.365 . S
N254 C257 1.319 . S
N254 Eu263 2.600 . S
C255 C257 1.397 . S
C255 C258 1.367 . S
C255 H275 0.931 . S
C256 C253 1.405 . S
C256 C258 1.403 . S
C256 C262 1.439 . S
C257 N254 1.319 . S
C257 C255 1.397 . S
C257 H268 0.930 . S
C258 C255 1.367 . S
C258 C256 1.403 . S
C258 H279 0.929 . S
C259 C260 1.430 . S
C259 C261 1.387 . S
C259 C265 1.404 . S
C260 C253 1.448 . S
C260 C259 1.430 . S
C260 N264 1.351 . S
C261 C259 1.387 . S
C261 C262 1.374 . S
C261 H276 0.931 . S
C262 C256 1.439 . S
C262 C261 1.374 . S
C262 H277 0.931 . S
Eu263 N254 2.600 . S
Eu263 N264 2.562 . S
Eu263 O298 2.335 . S
Eu263 O301 2.372 . S
Eu263 O302 2.462 . S
Eu263 O303 2.373 . S
Eu263 O305 2.432 . S
Eu263 O306 2.291 . S
Eu263 C327 2.787 . S
N264 C260 1.351 . S
N264 Eu263 2.562 . S
N264 C266 1.325 . S
C265 C259 1.404 . S
C265 C267 1.366 . S
C265 H273 0.930 . S
C266 N264 1.325 . S
C266 C267 1.416 . S
C266 H272 0.929 . S
C267 C265 1.366 . S
C267 C266 1.416 . S
C267 H269 0.930 . S
H268 C257 0.930 . S
H269 C267 0.930 . S
H270 C285 0.930 . S
H271 C292 0.930 1_545 S
H272 C266 0.929 . S
H273 C265 0.930 . S
H274 C288 0.929 . S
H275 C255 0.931 . S
H276 C261 0.931 . S
H277 C262 0.931 . S
H278 C283 0.931 . S
H279 C258 0.929 . S
H280 C291 0.930 . S
N281 Eu252 2.600 1_565 S
N281 C282 1.365 . S
N281 C285 1.319 . S
C282 N281 1.365 . S
C282 C284 1.405 . S
C282 C290 1.448 . S
C283 H278 0.931 . S
C283 C285 1.397 . S
C283 C286 1.367 . S
C284 C282 1.405 . S
C284 C286 1.403 . S
C284 C317 1.439 . S
C285 H270 0.930 . S
C285 N281 1.319 . S
C285 C283 1.397 . S
C286 C283 1.367 . S
C286 C284 1.403 . S
C286 H293 0.929 . S
N287 Eu252 2.562 1_565 S
N287 C288 1.325 1_565 S
N287 C290 1.351 . S
C288 H274 0.929 . S
C288 N287 1.325 1_545 S
C288 C292 1.416 1_545 S
C289 C290 1.430 . S
C289 C291 1.404 . S
C289 C318 1.387 . S
C290 C282 1.448 . S
C290 N287 1.351 . S
C290 C289 1.430 . S
C291 H280 0.930 . S
C291 C289 1.404 . S
C291 C292 1.366 . S
C292 H271 0.930 1_565 S
C292 C288 1.416 1_565 S
C292 C291 1.366 . S
H293 C286 0.929 . S
H294 C317 0.931 . S
H295 C318 0.931 . S
O296 Eu252 2.462 . S
O296 C316 1.252 1_545 S
O297 Eu252 2.373 . S
O297 C308 1.249 . S
O298 Eu263 2.335 . S
O298 C308 1.264 . S
O299 Eu252 2.432 1_565 S
O299 C316 1.268 . S
O300 Eu252 2.291 . S
O300 C315 1.255 . S
O301 Eu263 2.372 . S
O301 C315 1.257 . S
O302 Eu263 2.462 . S
O302 C327 1.252 . S
O303 Eu263 2.373 . S
O303 C319 1.249 . S
O304 Eu252 2.335 . S
O304 C319 1.264 . S
O305 Eu263 2.432 . S
O305 C327 1.268 . S
O306 Eu263 2.291 . S
O306 C326 1.255 . S
O307 Eu252 2.372 1_565 S
O307 C326 1.257 1_565 S
C308 O297 1.249 . S
C308 O298 1.264 . S
C309 C312 1.382 . S
C309 C314 1.390 1_565 S
C309 C316 1.506 . S
C310 C311 1.398 . S
C310 C314 1.392 1_565 S
C311 C310 1.398 . S
C311 C313 1.372 . S
C311 H328 0.931 . S
C312 C309 1.382 . S
C312 C313 1.390 . S
C312 H329 0.931 . S
C313 C311 1.372 . S
C313 C312 1.390 . S
C313 H330 0.929 . S
C314 C309 1.390 1_545 S
C314 C310 1.392 1_545 S
C314 H331 0.930 . S
C315 O300 1.255 . S
C315 O301 1.257 . S
C316 Eu252 2.787 1_565 S
C316 O296 1.252 1_565 S
C316 O299 1.268 . S
C316 C309 1.506 . S
C317 C284 1.439 . S
C317 H294 0.931 . S
C317 C318 1.374 . S
C318 C289 1.387 . S
C318 H295 0.931 . S
C318 C317 1.374 . S
C319 O303 1.249 . S
C319 O304 1.264 . S
C320 C323 1.382 . S
C320 C324 1.390 . S
C320 C327 1.506 . S
C321 C322 1.398 . S
C321 C324 1.392 . S
C322 C321 1.398 . S
C322 C325 1.372 . S
C322 H332 0.931 . S
C323 C320 1.382 . S
C323 C325 1.390 . S
C323 H333 0.931 . S
C324 C320 1.390 . S
C324 C321 1.392 . S
C324 H334 0.930 . S
C325 C322 1.372 . S
C325 C323 1.390 . S
C325 H335 0.929 . S
C326 O306 1.255 . S
C326 O307 1.257 1_545 S
C327 Eu263 2.787 . S
C327 O302 1.252 . S
C327 O305 1.268 . S
C327 C320 1.506 . S
H328 C311 0.931 . S
H329 C312 0.931 . S
H330 C313 0.929 . S
H331 C314 0.930 . S
H332 C322 0.931 . S
H333 C323 0.931 . S
H334 C324 0.930 . S
H335 C325 0.929 . S
Eu336 N365 2.600 1_655 S
Eu336 N371 2.562 1_655 S
Eu336 O380 2.462 . S
Eu336 O381 2.373 . S
Eu336 O383 2.432 1_655 S
Eu336 O384 2.291 . S
Eu336 O388 2.335 . S
Eu336 O391 2.372 1_655 S
Eu336 C400 2.787 1_655 S
C337 N338 1.365 . S
C337 C340 1.405 . S
C337 C344 1.448 . S
N338 C337 1.365 . S
N338 C341 1.319 . S
N338 Eu347 2.600 . S
C339 C341 1.397 . S
C339 C342 1.367 . S
C339 H359 0.931 . S
C340 C337 1.405 . S
C340 C342 1.403 . S
C340 C346 1.439 . S
C341 N338 1.319 . S
C341 C339 1.397 . S
C341 H352 0.930 . S
C342 C339 1.367 . S
C342 C340 1.403 . S
C342 H363 0.929 . S
C343 C344 1.430 . S
C343 C345 1.387 . S
C343 C349 1.404 . S
C344 C337 1.448 . S
C344 C343 1.430 . S
C344 N348 1.351 . S
C345 C343 1.387 . S
C345 C346 1.374 . S
C345 H360 0.931 . S
C346 C340 1.439 . S
C346 C345 1.374 . S
C346 H361 0.931 . S
Eu347 N338 2.600 . S
Eu347 N348 2.562 . S
Eu347 O382 2.335 . S
Eu347 O385 2.372 . S
Eu347 O386 2.462 . S
Eu347 O387 2.373 . S
Eu347 O389 2.432 . S
Eu347 O390 2.291 . S
Eu347 C411 2.787 . S
N348 C344 1.351 . S
N348 Eu347 2.562 . S
N348 C350 1.325 . S
C349 C343 1.404 . S
C349 C351 1.366 . S
C349 H357 0.930 . S
C350 N348 1.325 . S
C350 C351 1.416 . S
C350 H356 0.929 . S
C351 C349 1.366 . S
C351 C350 1.416 . S
C351 H353 0.930 . S
H352 C341 0.930 . S
H353 C351 0.930 . S
H354 C369 0.930 . S
H355 C376 0.930 1_655 S
H356 C350 0.929 . S
H357 C349 0.930 . S
H358 C372 0.929 . S
H359 C339 0.931 . S
H360 C345 0.931 . S
H361 C346 0.931 . S
H362 C367 0.931 . S
H363 C342 0.929 . S
H364 C375 0.930 . S
N365 Eu336 2.600 1_455 S
N365 C366 1.365 . S
N365 C369 1.319 . S
C366 N365 1.365 . S
C366 C368 1.405 . S
C366 C374 1.448 . S
C367 H362 0.931 . S
C367 C369 1.397 . S
C367 C370 1.367 . S
C368 C366 1.405 . S
C368 C370 1.403 . S
C368 C401 1.439 . S
C369 H354 0.930 . S
C369 N365 1.319 . S
C369 C367 1.397 . S
C370 C367 1.367 . S
C370 C368 1.403 . S
C370 H377 0.929 . S
N371 Eu336 2.562 1_455 S
N371 C372 1.325 1_455 S
N371 C374 1.351 . S
C372 H358 0.929 . S
C372 N371 1.325 1_655 S
C372 C376 1.416 1_655 S
C373 C374 1.430 . S
C373 C375 1.404 . S
C373 C402 1.387 . S
C374 C366 1.448 . S
C374 N371 1.351 . S
C374 C373 1.430 . S
C375 H364 0.930 . S
C375 C373 1.404 . S
C375 C376 1.366 . S
C376 H355 0.930 1_455 S
C376 C372 1.416 1_455 S
C376 C375 1.366 . S
H377 C370 0.929 . S
H378 C401 0.931 . S
H379 C402 0.931 . S
O380 Eu336 2.462 . S
O380 C400 1.252 1_655 S
O381 Eu336 2.373 . S
O381 C392 1.249 . S
O382 Eu347 2.335 . S
O382 C392 1.264 . S
O383 Eu336 2.432 1_455 S
O383 C400 1.268 . S
O384 Eu336 2.291 . S
O384 C399 1.255 . S
O385 Eu347 2.372 . S
O385 C399 1.257 . S
O386 Eu347 2.462 . S
O386 C411 1.252 . S
O387 Eu347 2.373 . S
O387 C403 1.249 . S
O388 Eu336 2.335 . S
O388 C403 1.264 . S
O389 Eu347 2.432 . S
O389 C411 1.268 . S
O390 Eu347 2.291 . S
O390 C410 1.255 . S
O391 Eu336 2.372 1_455 S
O391 C410 1.257 1_455 S
C392 O381 1.249 . S
C392 O382 1.264 . S
C393 C396 1.382 . S
C393 C398 1.390 1_455 S
C393 C400 1.506 . S
C394 C395 1.398 . S
C394 C398 1.392 1_455 S
C395 C394 1.398 . S
C395 C397 1.372 . S
C395 H412 0.931 . S
C396 C393 1.382 . S
C396 C397 1.390 . S
C396 H413 0.931 . S
C397 C395 1.372 . S
C397 C396 1.390 . S
C397 H414 0.929 . S
C398 C393 1.390 1_655 S
C398 C394 1.392 1_655 S
C398 H415 0.930 . S
C399 O384 1.255 . S
C399 O385 1.257 . S
C400 Eu336 2.787 1_455 S
C400 O380 1.252 1_455 S
C400 O383 1.268 . S
C400 C393 1.506 . S
C401 C368 1.439 . S
C401 H378 0.931 . S
C401 C402 1.374 . S
C402 C373 1.387 . S
C402 H379 0.931 . S
C402 C401 1.374 . S
C403 O387 1.249 . S
C403 O388 1.264 . S
C404 C407 1.382 . S
C404 C408 1.390 . S
C404 C411 1.506 . S
C405 C406 1.398 . S
C405 C408 1.392 . S
C406 C405 1.398 . S
C406 C409 1.372 . S
C406 H416 0.931 . S
C407 C404 1.382 . S
C407 C409 1.390 . S
C407 H417 0.931 . S
C408 C404 1.390 . S
C408 C405 1.392 . S
C408 H418 0.930 . S
C409 C406 1.372 . S
C409 C407 1.390 . S
C409 H419 0.929 . S
C410 O390 1.255 . S
C410 O391 1.257 1_655 S
C411 Eu347 2.787 . S
C411 O386 1.252 . S
C411 O389 1.268 . S
C411 C404 1.506 . S
H412 C395 0.931 . S
H413 C396 0.931 . S
H414 C397 0.929 . S
H415 C398 0.930 . S
H416 C406 0.931 . S
H417 C407 0.931 . S
H418 C408 0.930 . S
H419 C409 0.929 . S
Eu420 N449 2.600 . S
Eu420 N455 2.562 . S
Eu420 O464 2.462 . S
Eu420 O465 2.373 . S
Eu420 O467 2.432 . S
Eu420 O468 2.291 . S
Eu420 O472 2.335 . S
Eu420 O475 2.372 . S
Eu420 C484 2.787 . S
C421 N422 1.365 . S
C421 C424 1.405 . S
C421 C428 1.448 . S
N422 C421 1.365 . S
N422 C425 1.319 . S
N422 Eu431 2.600 . S
C423 C425 1.397 . S
C423 C426 1.367 . S
C423 H443 0.931 . S
C424 C421 1.405 . S
C424 C426 1.403 . S
C424 C430 1.439 . S
C425 N422 1.319 . S
C425 C423 1.397 . S
C425 H436 0.930 . S
C426 C423 1.367 . S
C426 C424 1.403 . S
C426 H447 0.929 . S
C427 C428 1.430 . S
C427 C429 1.387 . S
C427 C433 1.404 . S
C428 C421 1.448 . S
C428 C427 1.430 . S
C428 N432 1.351 . S
C429 C427 1.387 . S
C429 C430 1.374 . S
C429 H444 0.931 . S
C430 C424 1.439 . S
C430 C429 1.374 . S
C430 H445 0.931 . S
Eu431 N422 2.600 . S
Eu431 N432 2.562 . S
Eu431 O466 2.335 . S
Eu431 O469 2.372 . S
Eu431 O470 2.462 . S
Eu431 O471 2.373 . S
Eu431 O473 2.432 . S
Eu431 O474 2.291 . S
Eu431 C495 2.787 . S
N432 C428 1.351 . S
N432 Eu431 2.562 . S
N432 C434 1.325 . S
C433 C427 1.404 . S
C433 C435 1.366 . S
C433 H441 0.930 . S
C434 N432 1.325 . S
C434 C435 1.416 . S
C434 H440 0.929 . S
C435 C433 1.366 . S
C435 C434 1.416 . S
C435 H437 0.930 . S
H436 C425 0.930 . S
H437 C435 0.930 . S
H438 C453 0.930 . S
H439 C460 0.930 . S
H440 C434 0.929 . S
H441 C433 0.930 . S
H442 C456 0.929 . S
H443 C423 0.931 . S
H444 C429 0.931 . S
H445 C430 0.931 . S
H446 C451 0.931 . S
H447 C426 0.929 . S
H448 C459 0.930 . S
N449 Eu420 2.600 . S
N449 C450 1.365 . S
N449 C453 1.319 . S
C450 N449 1.365 . S
C450 C452 1.405 . S
C450 C458 1.448 . S
C451 H446 0.931 . S
C451 C453 1.397 . S
C451 C454 1.367 . S
C452 C450 1.405 . S
C452 C454 1.403 . S
C452 C485 1.439 . S
C453 H438 0.930 . S
C453 N449 1.319 . S
C453 C451 1.397 . S
C454 C451 1.367 . S
C454 C452 1.403 . S
C454 H461 0.929 . S
N455 Eu420 2.562 . S
N455 C456 1.325 . S
N455 C458 1.351 . S
C456 H442 0.929 . S
C456 N455 1.325 . S
C456 C460 1.416 . S
C457 C458 1.430 . S
C457 C459 1.404 . S
C457 C486 1.387 . S
C458 C450 1.448 . S
C458 N455 1.351 . S
C458 C457 1.430 . S
C459 H448 0.930 . S
C459 C457 1.404 . S
C459 C460 1.366 . S
C460 H439 0.930 . S
C460 C456 1.416 . S
C460 C459 1.366 . S
H461 C454 0.929 . S
H462 C485 0.931 . S
H463 C486 0.931 . S
O464 Eu420 2.462 . S
O464 C484 1.252 . S
O465 Eu420 2.373 . S
O465 C476 1.249 . S
O466 Eu431 2.335 . S
O466 C476 1.264 . S
O467 Eu420 2.432 . S
O467 C484 1.268 . S
O468 Eu420 2.291 . S
O468 C483 1.255 . S
O469 Eu431 2.372 . S
O469 C483 1.257 . S
O470 Eu431 2.462 . S
O470 C495 1.252 . S
O471 Eu431 2.373 . S
O471 C487 1.249 . S
O472 Eu420 2.335 . S
O472 C487 1.264 . S
O473 Eu431 2.432 . S
O473 C495 1.268 . S
O474 Eu431 2.291 . S
O474 C494 1.255 . S
O475 Eu420 2.372 . S
O475 C494 1.257 . S
C476 O465 1.249 . S
C476 O466 1.264 . S
C477 C480 1.382 . S
C477 C482 1.390 . S
C477 C484 1.506 . S
C478 C479 1.398 . S
C478 C482 1.392 . S
C479 C478 1.398 . S
C479 C481 1.372 . S
C479 H496 0.931 . S
C480 C477 1.382 . S
C480 C481 1.390 . S
C480 H497 0.931 . S
C481 C479 1.372 . S
C481 C480 1.390 . S
C481 H498 0.929 . S
C482 C477 1.390 . S
C482 C478 1.392 . S
C482 H499 0.930 . S
C483 O468 1.255 . S
C483 O469 1.257 . S
C484 Eu420 2.787 . S
C484 O464 1.252 . S
C484 O467 1.268 . S
C484 C477 1.506 . S
C485 C452 1.439 . S
C485 H462 0.931 . S
C485 C486 1.374 . S
C486 C457 1.387 . S
C486 H463 0.931 . S
C486 C485 1.374 . S
C487 O471 1.249 . S
C487 O472 1.264 . S
C488 C491 1.382 . S
C488 C492 1.390 . S
C488 C495 1.506 . S
C489 C490 1.398 . S
C489 C492 1.392 . S
C490 C489 1.398 . S
C490 C493 1.372 . S
C490 H500 0.931 . S
C491 C488 1.382 . S
C491 C493 1.390 . S
C491 H501 0.931 . S
C492 C488 1.390 . S
C492 C489 1.392 . S
C492 H502 0.930 . S
C493 C490 1.372 . S
C493 C491 1.390 . S
C493 H503 0.929 . S
C494 O474 1.255 . S
C494 O475 1.257 . S
C495 Eu431 2.787 . S
C495 O470 1.252 . S
C495 O473 1.268 . S
C495 C488 1.506 . S
H496 C479 0.931 . S
H497 C480 0.931 . S
H498 C481 0.929 . S
H499 C482 0.930 . S
H500 C490 0.931 . S
H501 C491 0.931 . S
H502 C492 0.930 . S
H503 C493 0.929 . S
Eu504 N533 2.600 . S
Eu504 N539 2.562 . S
Eu504 O548 2.462 . S
Eu504 O549 2.373 1_556 S
Eu504 O551 2.432 . S
Eu504 O552 2.291 . S
Eu504 O556 2.335 . S
Eu504 O559 2.372 . S
Eu504 C568 2.787 . S
C505 N506 1.366 1_556 S
C505 C508 1.404 . S
C505 C512 1.448 1_556 S
N506 C505 1.366 1_554 S
N506 C509 1.319 . S
N506 Eu515 2.600 1_455 S
C507 C509 1.397 1_556 S
C507 C510 1.367 . S
C507 H527 0.931 . S
C508 C505 1.404 . S
C508 C510 1.403 . S
C508 C514 1.439 . S
C509 N506 1.319 . S
C509 C507 1.397 1_554 S
C509 H520 0.930 . S
C510 C507 1.367 . S
C510 C508 1.403 . S
C510 H531 0.929 . S
C511 C512 1.430 1_556 S
C511 C513 1.387 . S
C511 C517 1.404 . S
C512 C505 1.448 1_554 S
C512 C511 1.430 1_554 S
C512 N516 1.351 . S
C513 C511 1.387 . S
C513 C514 1.374 . S
C513 H528 0.931 . S
C514 C508 1.439 . S
C514 C513 1.374 . S
C514 H529 0.931 . S
Eu515 N506 2.600 1_655 S
Eu515 N516 2.562 1_655 S
Eu515 O550 2.335 . S
Eu515 O553 2.372 1_655 S
Eu515 O554 2.462 . S
Eu515 O555 2.373 1_554 S
Eu515 O557 2.432 1_655 S
Eu515 O558 2.291 . S
Eu515 C579 2.787 1_655 S
N516 C512 1.351 . S
N516 Eu515 2.562 1_455 S
N516 C518 1.325 1_455 S
C517 C511 1.404 . S
C517 C519 1.366 1_556 S
C517 H525 0.930 . S
C518 N516 1.325 1_655 S
C518 C519 1.416 1_655 S
C518 H524 0.929 . S
C519 C517 1.366 1_554 S
C519 C518 1.416 1_455 S
C519 H521 0.930 1_455 S
H520 C509 0.930 . S
H521 C519 0.930 1_655 S
H522 C537 0.930 . S
H523 C544 0.930 . S
H524 C518 0.929 . S
H525 C517 0.930 . S
H526 C540 0.929 . S
H527 C507 0.931 . S
H528 C513 0.931 . S
H529 C514 0.931 . S
H530 C535 0.931 . S
H531 C510 0.929 . S
H532 C543 0.930 . S
N533 Eu504 2.600 . S
N533 C534 1.365 1_556 S
N533 C537 1.319 . S
C534 N533 1.365 1_554 S
C534 C536 1.405 . S
C534 C542 1.447 1_554 S
C535 H530 0.931 . S
C535 C537 1.397 1_554 S
C535 C538 1.367 . S
C536 C534 1.405 . S
C536 C538 1.403 . S
C536 C569 1.439 . S
C537 H522 0.930 . S
C537 N533 1.319 . S
C537 C535 1.397 1_556 S
C538 C535 1.367 . S
C538 C536 1.403 . S
C538 H545 0.929 . S
N539 Eu504 2.562 . S
N539 C540 1.325 . S
N539 C542 1.356 . S
C540 H526 0.929 . S
C540 N539 1.325 . S
C540 C544 1.416 . S
C541 C542 1.426 1_554 S
C541 C543 1.404 . S
C541 C570 1.387 . S
C542 C534 1.447 1_556 S
C542 N539 1.356 . S
C542 C541 1.426 1_556 S
C543 H532 0.930 . S
C543 C541 1.404 . S
C543 C544 1.366 1_554 S
C544 H523 0.930 . S
C544 C540 1.416 . S
C544 C543 1.366 1_556 S
H545 C538 0.929 . S
H546 C569 0.931 . S
H547 C570 0.931 . S
O548 Eu504 2.462 . S
O548 C568 1.252 . S
O549 Eu504 2.373 1_554 S
O549 C560 1.249 . S
O550 Eu515 2.335 . S
O550 C560 1.264 . S
O551 Eu504 2.432 . S
O551 C568 1.268 . S
O552 Eu504 2.291 . S
O552 C567 1.255 . S
O553 Eu515 2.372 1_455 S
O553 C567 1.257 1_454 S
O554 Eu515 2.462 . S
O554 C579 1.252 1_655 S
O555 Eu515 2.373 1_556 S
O555 C571 1.249 . S
O556 Eu504 2.335 . S
O556 C571 1.264 . S
O557 Eu515 2.432 1_455 S
O557 C579 1.268 . S
O558 Eu515 2.291 . S
O558 C578 1.255 . S
O559 Eu504 2.372 . S
O559 C578 1.257 1_556 S
C560 O549 1.249 . S
C560 O550 1.264 . S
C561 C564 1.382 . S
C561 C566 1.390 . S
C561 C568 1.506 . S
C562 C563 1.398 . S
C562 C566 1.392 . S
C563 C562 1.398 . S
C563 C565 1.372 . S
C563 H580 0.931 . S
C564 C561 1.382 . S
C564 C565 1.390 . S
C564 H581 0.931 . S
C565 C563 1.372 . S
C565 C564 1.390 . S
C565 H582 0.929 . S
C566 C561 1.390 . S
C566 C562 1.392 . S
C566 H583 0.930 . S
C567 O552 1.255 . S
C567 O553 1.257 1_656 S
C568 Eu504 2.787 . S
C568 O548 1.252 . S
C568 O551 1.268 . S
C568 C561 1.506 . S
C569 C536 1.439 . S
C569 H546 0.931 . S
C569 C570 1.374 . S
C570 C541 1.387 . S
C570 H547 0.931 . S
C570 C569 1.374 . S
C571 O555 1.249 . S
C571 O556 1.264 . S
C572 C575 1.382 . S
C572 C576 1.390 1_455 S
C572 C579 1.506 . S
C573 C574 1.398 . S
C573 C576 1.392 1_455 S
C574 C573 1.398 . S
C574 C577 1.372 . S
C574 H584 0.931 . S
C575 C572 1.382 . S
C575 C577 1.390 . S
C575 H585 0.931 . S
C576 C572 1.390 1_655 S
C576 C573 1.392 1_655 S
C576 H586 0.930 . S
C577 C574 1.372 . S
C577 C575 1.390 . S
C577 H587 0.929 . S
C578 O558 1.255 . S
C578 O559 1.257 1_554 S
C579 Eu515 2.787 1_455 S
C579 O554 1.252 1_455 S
C579 O557 1.268 . S
C579 C572 1.506 . S
H580 C563 0.931 . S
H581 C564 0.931 . S
H582 C565 0.929 . S
H583 C566 0.930 . S
H584 C574 0.931 . S
H585 C575 0.931 . S
H586 C576 0.930 . S
H587 C577 0.929 . S
Eu588 N617 2.600 . S
Eu588 N623 2.562 . S
Eu588 O632 2.462 . S
Eu588 O633 2.373 1_556 S
Eu588 O635 2.432 . S
Eu588 O636 2.291 . S
Eu588 O640 2.335 . S
Eu588 O643 2.372 . S
Eu588 C652 2.787 . S
C589 N590 1.365 . S
C589 C592 1.406 1_554 S
C589 C596 1.447 . S
N590 C589 1.365 . S
N590 C593 1.319 . S
N590 Eu599 2.600 . S
C591 C593 1.397 1_556 S
C591 C594 1.367 . S
C591 H611 0.931 . S
C592 C589 1.406 1_556 S
C592 C594 1.403 . S
C592 C598 1.439 . S
C593 N590 1.319 . S
C593 C591 1.397 1_554 S
C593 H604 0.930 . S
C594 C591 1.367 . S
C594 C592 1.403 . S
C594 H615 0.929 . S
C595 C596 1.430 1_556 S
C595 C597 1.387 . S
C595 C601 1.404 . S
C596 C589 1.447 . S
C596 C595 1.430 1_554 S
C596 N600 1.351 . S
C597 C595 1.387 . S
C597 C598 1.374 . S
C597 H612 0.931 . S
C598 C592 1.439 . S
C598 C597 1.374 . S
C598 H613 0.931 . S
Eu599 N590 2.600 . S
Eu599 N600 2.562 . S
Eu599 O634 2.335 . S
Eu599 O637 2.372 . S
Eu599 O638 2.462 . S
Eu599 O639 2.373 1_554 S
Eu599 O641 2.432 . S
Eu599 O642 2.291 . S
Eu599 C663 2.787 . S
N600 C596 1.351 . S
N600 Eu599 2.562 . S
N600 C602 1.325 . S
C601 C595 1.404 . S
C601 C603 1.366 1_556 S
C601 H609 0.930 . S
C602 N600 1.325 . S
C602 C603 1.416 . S
C602 H608 0.929 . S
C603 C601 1.366 1_554 S
C603 C602 1.416 . S
C603 H605 0.930 . S
H604 C593 0.930 . S
H605 C603 0.930 . S
H606 C621 0.930 . S
H607 C628 0.930 . S
H608 C602 0.929 . S
H609 C601 0.930 . S
H610 C624 0.929 . S
H611 C591 0.931 . S
H612 C597 0.931 . S
H613 C598 0.931 . S
H614 C619 0.931 . S
H615 C594 0.929 . S
H616 C627 0.930 . S
N617 Eu588 2.600 . S
N617 C618 1.365 1_556 S
N617 C621 1.319 . S
C618 N617 1.365 1_554 S
C618 C620 1.405 . S
C618 C626 1.447 1_554 S
C619 H614 0.931 . S
C619 C621 1.397 1_554 S
C619 C622 1.367 . S
C620 C618 1.405 . S
C620 C622 1.403 . S
C620 C653 1.439 . S
C621 H606 0.930 . S
C621 N617 1.319 . S
C621 C619 1.397 1_556 S
C622 C619 1.367 . S
C622 C620 1.403 . S
C622 H629 0.929 . S
N623 Eu588 2.562 . S
N623 C624 1.325 . S
N623 C626 1.356 . S
C624 H610 0.929 . S
C624 N623 1.325 . S
C624 C628 1.416 . S
C625 C626 1.426 1_554 S
C625 C627 1.404 . S
C625 C654 1.387 . S
C626 C618 1.447 1_556 S
C626 N623 1.356 . S
C626 C625 1.426 1_556 S
C627 H616 0.930 . S
C627 C625 1.404 . S
C627 C628 1.366 1_554 S
C628 H607 0.930 . S
C628 C624 1.416 . S
C628 C627 1.366 1_556 S
H629 C622 0.929 . S
H630 C653 0.931 . S
H631 C654 0.931 . S
O632 Eu588 2.462 . S
O632 C652 1.252 . S
O633 Eu588 2.373 1_554 S
O633 C644 1.249 . S
O634 Eu599 2.335 . S
O634 C644 1.264 . S
O635 Eu588 2.432 . S
O635 C652 1.268 . S
O636 Eu588 2.291 . S
O636 C651 1.255 . S
O637 Eu599 2.372 . S
O637 C651 1.257 1_554 S
O638 Eu599 2.462 . S
O638 C663 1.252 . S
O639 Eu599 2.373 1_556 S
O639 C655 1.249 . S
O640 Eu588 2.335 . S
O640 C655 1.264 . S
O641 Eu599 2.432 . S
O641 C663 1.268 . S
O642 Eu599 2.291 . S
O642 C662 1.255 . S
O643 Eu588 2.372 . S
O643 C662 1.257 1_556 S
C644 O633 1.249 . S
C644 O634 1.264 . S
C645 C648 1.382 . S
C645 C650 1.390 . S
C645 C652 1.506 . S
C646 C647 1.398 . S
C646 C650 1.392 . S
C647 C646 1.398 . S
C647 C649 1.372 . S
C647 H664 0.931 . S
C648 C645 1.382 . S
C648 C649 1.390 . S
C648 H665 0.931 . S
C649 C647 1.372 . S
C649 C648 1.390 . S
C649 H666 0.929 . S
C650 C645 1.390 . S
C650 C646 1.392 . S
C650 H667 0.930 . S
C651 O636 1.255 . S
C651 O637 1.257 1_556 S
C652 Eu588 2.787 . S
C652 O632 1.252 . S
C652 O635 1.268 . S
C652 C645 1.506 . S
C653 C620 1.439 . S
C653 H630 0.931 . S
C653 C654 1.374 . S
C654 C625 1.387 . S
C654 H631 0.931 . S
C654 C653 1.374 . S
C655 O639 1.249 . S
C655 O640 1.264 . S
C656 C659 1.382 . S
C656 C660 1.390 . S
C656 C663 1.506 . S
C657 C658 1.398 . S
C657 C660 1.392 . S
C658 C657 1.398 . S
C658 C661 1.372 . S
C658 H668 0.931 . S
C659 C656 1.382 . S
C659 C661 1.390 . S
C659 H669 0.931 . S
C660 C656 1.390 . S
C660 C657 1.392 . S
C660 H670 0.930 . S
C661 C658 1.372 . S
C661 C659 1.390 . S
C661 H671 0.929 . S
C662 O642 1.255 . S
C662 O643 1.257 1_554 S
C663 Eu599 2.787 . S
C663 O638 1.252 . S
C663 O641 1.268 . S
C663 C656 1.506 . S
H664 C647 0.931 . S
H665 C648 0.931 . S
H666 C649 0.929 . S
H667 C650 0.930 . S
H668 C658 0.931 . S
H669 C659 0.931 . S
H670 C660 0.930 . S
H671 C661 0.929 . S
Eu672 N701 2.600 . S
Eu672 N707 2.562 . S
Eu672 O716 2.462 . S
Eu672 O717 2.373 1_556 S
Eu672 O719 2.432 . S
Eu672 O720 2.291 . S
Eu672 O724 2.335 . S
Eu672 O727 2.372 . S
Eu672 C736 2.787 . S
C673 N674 1.365 . S
C673 C676 1.406 1_554 S
C673 C680 1.447 . S
N674 C673 1.365 . S
N674 C677 1.319 . S
N674 Eu683 2.600 1_565 S
C675 C677 1.397 1_556 S
C675 C678 1.367 . S
C675 H695 0.931 . S
C676 C673 1.406 1_556 S
C676 C678 1.403 . S
C676 C682 1.439 . S
C677 N674 1.319 . S
C677 C675 1.397 1_554 S
C677 H688 0.930 . S
C678 C675 1.367 . S
C678 C676 1.403 . S
C678 H699 0.929 . S
C679 C680 1.430 1_556 S
C679 C681 1.387 . S
C679 C685 1.404 . S
C680 C673 1.447 . S
C680 C679 1.430 1_554 S
C680 N684 1.351 . S
C681 C679 1.387 . S
C681 C682 1.374 . S
C681 H696 0.931 . S
C682 C676 1.439 . S
C682 C681 1.374 . S
C682 H697 0.931 . S
Eu683 N674 2.600 1_545 S
Eu683 N684 2.562 1_545 S
Eu683 O718 2.335 . S
Eu683 O721 2.372 1_545 S
Eu683 O722 2.462 . S
Eu683 O723 2.373 1_554 S
Eu683 O725 2.432 1_545 S
Eu683 O726 2.291 . S
Eu683 C747 2.787 1_545 S
N684 C680 1.351 . S
N684 Eu683 2.562 1_565 S
N684 C686 1.325 1_565 S
C685 C679 1.404 . S
C685 C687 1.366 1_556 S
C685 H693 0.930 . S
C686 N684 1.325 1_545 S
C686 C687 1.416 1_545 S
C686 H692 0.929 . S
C687 C685 1.366 1_554 S
C687 C686 1.416 1_565 S
C687 H689 0.930 1_565 S
H688 C677 0.930 . S
H689 C687 0.930 1_545 S
H690 C705 0.930 . S
H691 C712 0.930 . S
H692 C686 0.929 . S
H693 C685 0.930 . S
H694 C708 0.929 . S
H695 C675 0.931 . S
H696 C681 0.931 . S
H697 C682 0.931 . S
H698 C703 0.931 . S
H699 C678 0.929 . S
H700 C711 0.930 . S
N701 Eu672 2.600 . S
N701 C702 1.365 1_556 S
N701 C705 1.319 . S
C702 N701 1.365 1_554 S
C702 C704 1.405 . S
C702 C710 1.447 1_554 S
C703 H698 0.931 . S
C703 C705 1.397 1_554 S
C703 C706 1.367 . S
C704 C702 1.405 . S
C704 C706 1.403 . S
C704 C737 1.439 . S
C705 H690 0.930 . S
C705 N701 1.319 . S
C705 C703 1.397 1_556 S
C706 C703 1.367 . S
C706 C704 1.403 . S
C706 H713 0.929 . S
N707 Eu672 2.562 . S
N707 C708 1.325 . S
N707 C710 1.356 . S
C708 H694 0.929 . S
C708 N707 1.325 . S
C708 C712 1.416 . S
C709 C710 1.426 1_554 S
C709 C711 1.404 . S
C709 C738 1.387 . S
C710 C702 1.447 1_556 S
C710 N707 1.356 . S
C710 C709 1.426 1_556 S
C711 H700 0.930 . S
C711 C709 1.404 . S
C711 C712 1.366 1_554 S
C712 H691 0.930 . S
C712 C708 1.416 . S
C712 C711 1.366 1_556 S
H713 C706 0.929 . S
H714 C737 0.931 . S
H715 C738 0.931 . S
O716 Eu672 2.462 . S
O716 C736 1.252 . S
O717 Eu672 2.373 1_554 S
O717 C728 1.249 . S
O718 Eu683 2.335 . S
O718 C728 1.264 . S
O719 Eu672 2.432 . S
O719 C736 1.268 . S
O720 Eu672 2.291 . S
O720 C735 1.255 . S
O721 Eu683 2.372 1_565 S
O721 C735 1.257 1_564 S
O722 Eu683 2.462 . S
O722 C747 1.252 1_545 S
O723 Eu683 2.373 1_556 S
O723 C739 1.249 . S
O724 Eu672 2.335 . S
O724 C739 1.264 . S
O725 Eu683 2.432 1_565 S
O725 C747 1.268 . S
O726 Eu683 2.291 . S
O726 C746 1.255 . S
O727 Eu672 2.372 . S
O727 C746 1.257 1_556 S
C728 O717 1.249 . S
C728 O718 1.264 . S
C729 C732 1.382 . S
C729 C734 1.390 . S
C729 C736 1.506 . S
C730 C731 1.398 . S
C730 C734 1.392 . S
C731 C730 1.398 . S
C731 C733 1.372 . S
C731 H748 0.931 . S
C732 C729 1.382 . S
C732 C733 1.390 . S
C732 H749 0.931 . S
C733 C731 1.372 . S
C733 C732 1.390 . S
C733 H750 0.929 . S
C734 C729 1.390 . S
C734 C730 1.392 . S
C734 H751 0.930 . S
C735 O720 1.255 . S
C735 O721 1.257 1_546 S
C736 Eu672 2.787 . S
C736 O716 1.252 . S
C736 O719 1.268 . S
C736 C729 1.506 . S
C737 C704 1.439 . S
C737 H714 0.931 . S
C737 C738 1.374 . S
C738 C709 1.387 . S
C738 H715 0.931 . S
C738 C737 1.374 . S
C739 O723 1.249 . S
C739 O724 1.264 . S
C740 C743 1.382 . S
C740 C744 1.390 1_565 S
C740 C747 1.506 . S
C741 C742 1.398 . S
C741 C744 1.392 1_565 S
C742 C741 1.398 . S
C742 C745 1.372 . S
C742 H752 0.931 . S
C743 C740 1.382 . S
C743 C745 1.390 . S
C743 H753 0.931 . S
C744 C740 1.390 1_545 S
C744 C741 1.392 1_545 S
C744 H754 0.930 . S
C745 C742 1.372 . S
C745 C743 1.390 . S
C745 H755 0.929 . S
C746 O726 1.255 . S
C746 O727 1.257 1_554 S
C747 Eu683 2.787 1_565 S
C747 O722 1.252 1_565 S
C747 O725 1.268 . S
C747 C740 1.506 . S
H748 C731 0.931 . S
H749 C732 0.931 . S
H750 C733 0.929 . S
H751 C734 0.930 . S
H752 C742 0.931 . S
H753 C743 0.931 . S
H754 C744 0.930 . S
H755 C745 0.929 . S
Eu756 N785 2.600 . S
Eu756 N791 2.562 . S
Eu756 O800 2.462 . S
Eu756 O801 2.373 . S
Eu756 O803 2.432 . S
Eu756 O804 2.291 . S
Eu756 O808 2.335 . S
Eu756 O811 2.372 . S
Eu756 C820 2.787 . S
C757 N758 1.365 . S
C757 C760 1.405 . S
C757 C764 1.448 . S
N758 C757 1.365 . S
N758 C761 1.319 . S
N758 Eu767 2.600 1_545 S
C759 C761 1.397 . S
C759 C762 1.367 . S
C759 H779 0.931 . S
C760 C757 1.405 . S
C760 C762 1.403 . S
C760 C766 1.439 . S
C761 N758 1.319 . S
C761 C759 1.397 . S
C761 H772 0.930 . S
C762 C759 1.367 . S
C762 C760 1.403 . S
C762 H783 0.929 . S
C763 C764 1.430 . S
C763 C765 1.387 . S
C763 C769 1.404 . S
C764 C757 1.448 . S
C764 C763 1.430 . S
C764 N768 1.351 . S
C765 C763 1.387 . S
C765 C766 1.374 . S
C765 H780 0.931 . S
C766 C760 1.439 . S
C766 C765 1.374 . S
C766 H781 0.931 . S
Eu767 N758 2.600 1_565 S
Eu767 N768 2.562 1_565 S
Eu767 O802 2.335 . S
Eu767 O805 2.372 1_565 S
Eu767 O806 2.462 . S
Eu767 O807 2.373 . S
Eu767 O809 2.432 1_565 S
Eu767 O810 2.291 . S
Eu767 C831 2.787 1_565 S
N768 C764 1.351 . S
N768 Eu767 2.562 1_545 S
N768 C770 1.325 1_545 S
C769 C763 1.404 . S
C769 C771 1.366 . S
C769 H777 0.930 . S
C770 N768 1.325 1_565 S
C770 C771 1.416 1_565 S
C770 H776 0.929 . S
C771 C769 1.366 . S
C771 C770 1.416 1_545 S
C771 H773 0.930 1_545 S
H772 C761 0.930 . S
H773 C771 0.930 1_565 S
H774 C789 0.930 . S
H775 C796 0.930 . S
H776 C770 0.929 . S
H777 C769 0.930 . S
H778 C792 0.929 . S
H779 C759 0.931 . S
H780 C765 0.931 . S
H781 C766 0.931 . S
H782 C787 0.931 . S
H783 C762 0.929 . S
H784 C795 0.930 . S
N785 Eu756 2.600 . S
N785 C786 1.365 . S
N785 C789 1.319 . S
C786 N785 1.365 . S
C786 C788 1.405 . S
C786 C794 1.448 . S
C787 H782 0.931 . S
C787 C789 1.397 . S
C787 C790 1.367 . S
C788 C786 1.405 . S
C788 C790 1.403 . S
C788 C821 1.439 . S
C789 H774 0.930 . S
C789 N785 1.319 . S
C789 C787 1.397 . S
C790 C787 1.367 . S
C790 C788 1.403 . S
C790 H797 0.929 . S
N791 Eu756 2.562 . S
N791 C792 1.325 . S
N791 C794 1.351 . S
C792 H778 0.929 . S
C792 N791 1.325 . S
C792 C796 1.416 . S
C793 C794 1.430 . S
C793 C795 1.404 . S
C793 C822 1.387 . S
C794 C786 1.448 . S
C794 N791 1.351 . S
C794 C793 1.430 . S
C795 H784 0.930 . S
C795 C793 1.404 . S
C795 C796 1.366 . S
C796 H775 0.930 . S
C796 C792 1.416 . S
C796 C795 1.366 . S
H797 C790 0.929 . S
H798 C821 0.931 . S
H799 C822 0.931 . S
O800 Eu756 2.462 . S
O800 C820 1.252 . S
O801 Eu756 2.373 . S
O801 C812 1.249 . S
O802 Eu767 2.335 . S
O802 C812 1.264 . S
O803 Eu756 2.432 . S
O803 C820 1.268 . S
O804 Eu756 2.291 . S
O804 C819 1.255 . S
O805 Eu767 2.372 1_545 S
O805 C819 1.257 1_545 S
O806 Eu767 2.462 . S
O806 C831 1.252 1_565 S
O807 Eu767 2.373 . S
O807 C823 1.249 . S
O808 Eu756 2.335 . S
O808 C823 1.264 . S
O809 Eu767 2.432 1_545 S
O809 C831 1.268 . S
O810 Eu767 2.291 . S
O810 C830 1.255 . S
O811 Eu756 2.372 . S
O811 C830 1.257 . S
C812 O801 1.249 . S
C812 O802 1.264 . S
C813 C816 1.382 . S
C813 C818 1.390 . S
C813 C820 1.506 . S
C814 C815 1.398 . S
C814 C818 1.392 . S
C815 C814 1.398 . S
C815 C817 1.372 . S
C815 H832 0.931 1_556 S
C816 C813 1.382 . S
C816 C817 1.390 . S
C816 H833 0.931 . S
C817 C815 1.372 . S
C817 C816 1.390 . S
C817 H834 0.929 . S
C818 C813 1.390 . S
C818 C814 1.392 . S
C818 H835 0.930 . S
C819 O804 1.255 . S
C819 O805 1.257 1_565 S
C820 Eu756 2.787 . S
C820 O800 1.252 . S
C820 O803 1.268 . S
C820 C813 1.506 . S
C821 C788 1.439 . S
C821 H798 0.931 . S
C821 C822 1.374 . S
C822 C793 1.387 . S
C822 H799 0.931 . S
C822 C821 1.374 . S
C823 O807 1.249 . S
C823 O808 1.264 . S
C824 C827 1.382 . S
C824 C828 1.390 1_545 S
C824 C831 1.506 . S
C825 C826 1.398 . S
C825 C828 1.392 1_545 S
C826 C825 1.398 . S
C826 C829 1.372 . S
C826 H836 0.931 . S
C827 C824 1.382 . S
C827 C829 1.390 . S
C827 H837 0.931 . S
C828 C824 1.390 1_565 S
C828 C825 1.392 1_565 S
C828 H838 0.930 . S
C829 C826 1.372 . S
C829 C827 1.390 . S
C829 H839 0.929 . S
C830 O810 1.255 . S
C830 O811 1.257 . S
C831 Eu767 2.787 1_545 S
C831 O806 1.252 1_545 S
C831 O809 1.268 . S
C831 C824 1.506 . S
H832 C815 0.931 1_554 S
H833 C816 0.931 . S
H834 C817 0.929 . S
H835 C818 0.930 . S
H836 C826 0.931 . S
H837 C827 0.931 . S
H838 C828 0.930 . S
H839 C829 0.929 . S
Eu840 N869 2.600 . S
Eu840 N875 2.562 . S
Eu840 O884 2.462 . S
Eu840 O885 2.373 . S
Eu840 O887 2.432 . S
Eu840 O888 2.291 . S
Eu840 O892 2.335 . S
Eu840 O895 2.372 . S
Eu840 C904 2.787 . S
C841 N842 1.365 . S
C841 C844 1.405 . S
C841 C848 1.448 . S
N842 C841 1.365 . S
N842 C845 1.319 . S
N842 Eu851 2.600 1_655 S
C843 C845 1.397 . S
C843 C846 1.367 . S
C843 H863 0.931 . S
C844 C841 1.405 . S
C844 C846 1.403 . S
C844 C850 1.439 . S
C845 N842 1.319 . S
C845 C843 1.397 . S
C845 H856 0.930 . S
C846 C843 1.367 . S
C846 C844 1.403 . S
C846 H867 0.929 . S
C847 C848 1.430 . S
C847 C849 1.387 . S
C847 C853 1.404 . S
C848 C841 1.448 . S
C848 C847 1.430 . S
C848 N852 1.351 . S
C849 C847 1.387 . S
C849 C850 1.374 . S
C849 H864 0.931 . S
C850 C844 1.439 . S
C850 C849 1.374 . S
C850 H865 0.931 . S
Eu851 N842 2.600 1_455 S
Eu851 N852 2.562 1_455 S
Eu851 O886 2.335 . S
Eu851 O889 2.372 1_455 S
Eu851 O890 2.462 . S
Eu851 O891 2.373 . S
Eu851 O893 2.432 1_455 S
Eu851 O894 2.291 . S
Eu851 C915 2.787 1_455 S
N852 C848 1.351 . S
N852 Eu851 2.562 1_655 S
N852 C854 1.325 1_655 S
C853 C847 1.404 . S
C853 C855 1.366 . S
C853 H861 0.930 . S
C854 N852 1.325 1_455 S
C854 C855 1.416 1_455 S
C854 H860 0.929 . S
C855 C853 1.366 . S
C855 C854 1.416 1_655 S
C855 H857 0.930 1_655 S
H856 C845 0.930 . S
H857 C855 0.930 1_455 S
H858 C873 0.930 . S
H859 C880 0.930 . S
H860 C854 0.929 . S
H861 C853 0.930 . S
H862 C876 0.929 . S
H863 C843 0.931 . S
H864 C849 0.931 . S
H865 C850 0.931 . S
H866 C871 0.931 . S
H867 C846 0.929 . S
H868 C879 0.930 . S
N869 Eu840 2.600 . S
N869 C870 1.365 . S
N869 C873 1.319 . S
C870 N869 1.365 . S
C870 C872 1.405 . S
C870 C878 1.448 . S
C871 H866 0.931 . S
C871 C873 1.397 . S
C871 C874 1.367 . S
C872 C870 1.405 . S
C872 C874 1.403 . S
C872 C905 1.439 . S
C873 H858 0.930 . S
C873 N869 1.319 . S
C873 C871 1.397 . S
C874 C871 1.367 . S
C874 C872 1.403 . S
C874 H881 0.929 . S
N875 Eu840 2.562 . S
N875 C876 1.325 . S
N875 C878 1.351 . S
C876 H862 0.929 . S
C876 N875 1.325 . S
C876 C880 1.416 . S
C877 C878 1.430 . S
C877 C879 1.404 . S
C877 C906 1.387 . S
C878 C870 1.448 . S
C878 N875 1.351 . S
C878 C877 1.430 . S
C879 H868 0.930 . S
C879 C877 1.404 . S
C879 C880 1.366 . S
C880 H859 0.930 . S
C880 C876 1.416 . S
C880 C879 1.366 . S
H881 C874 0.929 . S
H882 C905 0.931 . S
H883 C906 0.931 . S
O884 Eu840 2.462 . S
O884 C904 1.252 . S
O885 Eu840 2.373 . S
O885 C896 1.249 . S
O886 Eu851 2.335 . S
O886 C896 1.264 . S
O887 Eu840 2.432 . S
O887 C904 1.268 . S
O888 Eu840 2.291 . S
O888 C903 1.255 . S
O889 Eu851 2.372 1_655 S
O889 C903 1.257 1_655 S
O890 Eu851 2.462 . S
O890 C915 1.252 1_455 S
O891 Eu851 2.373 . S
O891 C907 1.249 . S
O892 Eu840 2.335 . S
O892 C907 1.264 . S
O893 Eu851 2.432 1_655 S
O893 C915 1.268 . S
O894 Eu851 2.291 . S
O894 C914 1.255 . S
O895 Eu840 2.372 . S
O895 C914 1.257 . S
C896 O885 1.249 . S
C896 O886 1.264 . S
C897 C900 1.382 . S
C897 C902 1.390 . S
C897 C904 1.506 . S
C898 C899 1.398 . S
C898 C902 1.392 . S
C899 C898 1.398 . S
C899 C901 1.372 . S
C899 H916 0.931 1_556 S
C900 C897 1.382 . S
C900 C901 1.390 . S
C900 H917 0.931 . S
C901 C899 1.372 . S
C901 C900 1.390 . S
C901 H918 0.929 . S
C902 C897 1.390 . S
C902 C898 1.392 . S
C902 H919 0.930 . S
C903 O888 1.255 . S
C903 O889 1.257 1_455 S
C904 Eu840 2.787 . S
C904 O884 1.252 . S
C904 O887 1.268 . S
C904 C897 1.506 . S
C905 C872 1.439 . S
C905 H882 0.931 . S
C905 C906 1.374 . S
C906 C877 1.387 . S
C906 H883 0.931 . S
C906 C905 1.374 . S
C907 O891 1.249 . S
C907 O892 1.264 . S
C908 C911 1.382 . S
C908 C912 1.390 1_655 S
C908 C915 1.506 . S
C909 C910 1.398 . S
C909 C912 1.392 1_655 S
C910 C909 1.398 . S
C910 C913 1.372 . S
C910 H920 0.931 . S
C911 C908 1.382 . S
C911 C913 1.390 . S
C911 H921 0.931 . S
C912 C908 1.390 1_455 S
C912 C909 1.392 1_455 S
C912 H922 0.930 . S
C913 C910 1.372 . S
C913 C911 1.390 . S
C913 H923 0.929 . S
C914 O894 1.255 . S
C914 O895 1.257 . S
C915 Eu851 2.787 1_655 S
C915 O890 1.252 1_655 S
C915 O893 1.268 . S
C915 C908 1.506 . S
H916 C899 0.931 1_554 S
H917 C900 0.931 . S
H918 C901 0.929 . S
H919 C902 0.930 . S
H920 C910 0.931 . S
H921 C911 0.931 . S
H922 C912 0.930 . S
H923 C913 0.929 . S
Eu924 N953 2.600 . S
Eu924 N959 2.562 . S
Eu924 O968 2.462 . S
Eu924 O969 2.373 . S
Eu924 O971 2.432 . S
Eu924 O972 2.291 . S
Eu924 O976 2.335 . S
Eu924 O979 2.372 . S
Eu924 C988 2.787 . S
C925 N926 1.365 . S
C925 C928 1.405 . S
C925 C932 1.448 . S
N926 C925 1.365 . S
N926 C929 1.319 . S
N926 Eu935 2.600 . S
C927 C929 1.397 . S
C927 C930 1.367 . S
C927 H947 0.931 . S
C928 C925 1.405 . S
C928 C930 1.403 . S
C928 C934 1.439 . S
C929 N926 1.319 . S
C929 C927 1.397 . S
C929 H940 0.930 . S
C930 C927 1.367 . S
C930 C928 1.403 . S
C930 H951 0.929 . S
C931 C932 1.430 . S
C931 C933 1.387 . S
C931 C937 1.404 . S
C932 C925 1.448 . S
C932 C931 1.430 . S
C932 N936 1.351 . S
C933 C931 1.387 . S
C933 C934 1.374 . S
C933 H948 0.931 . S
C934 C928 1.439 . S
C934 C933 1.374 . S
C934 H949 0.931 . S
Eu935 N926 2.600 . S
Eu935 N936 2.562 . S
Eu935 O970 2.335 . S
Eu935 O973 2.372 . S
Eu935 O974 2.462 . S
Eu935 O975 2.373 . S
Eu935 O977 2.432 . S
Eu935 O978 2.291 . S
Eu935 C999 2.787 . S
N936 C932 1.351 . S
N936 Eu935 2.562 . S
N936 C938 1.325 . S
C937 C931 1.404 . S
C937 C939 1.366 . S
C937 H945 0.930 . S
C938 N936 1.325 . S
C938 C939 1.416 . S
C938 H944 0.929 . S
C939 C937 1.366 . S
C939 C938 1.416 . S
C939 H941 0.930 . S
H940 C929 0.930 . S
H941 C939 0.930 . S
H942 C957 0.930 . S
H943 C964 0.930 . S
H944 C938 0.929 . S
H945 C937 0.930 . S
H946 C960 0.929 . S
H947 C927 0.931 . S
H948 C933 0.931 . S
H949 C934 0.931 . S
H950 C955 0.931 . S
H951 C930 0.929 . S
H952 C963 0.930 . S
N953 Eu924 2.600 . S
N953 C954 1.365 . S
N953 C957 1.319 . S
C954 N953 1.365 . S
C954 C956 1.405 . S
C954 C962 1.448 . S
C955 H950 0.931 . S
C955 C957 1.397 . S
C955 C958 1.367 . S
C956 C954 1.405 . S
C956 C958 1.403 . S
C956 C989 1.439 . S
C957 H942 0.930 . S
C957 N953 1.319 . S
C957 C955 1.397 . S
C958 C955 1.367 . S
C958 C956 1.403 . S
C958 H965 0.929 . S
N959 Eu924 2.562 . S
N959 C960 1.325 . S
N959 C962 1.351 . S
C960 H946 0.929 . S
C960 N959 1.325 . S
C960 C964 1.416 . S
C961 C962 1.430 . S
C961 C963 1.404 . S
C961 C990 1.387 . S
C962 C954 1.448 . S
C962 N959 1.351 . S
C962 C961 1.430 . S
C963 H952 0.930 . S
C963 C961 1.404 . S
C963 C964 1.366 . S
C964 H943 0.930 . S
C964 C960 1.416 . S
C964 C963 1.366 . S
H965 C958 0.929 . S
H966 C989 0.931 . S
H967 C990 0.931 . S
O968 Eu924 2.462 . S
O968 C988 1.252 . S
O969 Eu924 2.373 . S
O969 C980 1.249 . S
O970 Eu935 2.335 . S
O970 C980 1.264 . S
O971 Eu924 2.432 . S
O971 C988 1.268 . S
O972 Eu924 2.291 . S
O972 C987 1.255 . S
O973 Eu935 2.372 . S
O973 C987 1.257 . S
O974 Eu935 2.462 . S
O974 C999 1.252 . S
O975 Eu935 2.373 . S
O975 C991 1.249 . S
O976 Eu924 2.335 . S
O976 C991 1.264 . S
O977 Eu935 2.432 . S
O977 C999 1.268 . S
O978 Eu935 2.291 . S
O978 C998 1.255 . S
O979 Eu924 2.372 . S
O979 C998 1.257 . S
C980 O969 1.249 . S
C980 O970 1.264 . S
C981 C984 1.382 . S
C981 C986 1.390 . S
C981 C988 1.506 . S
C982 C983 1.398 . S
C982 C986 1.392 . S
C983 C982 1.398 . S
C983 C985 1.372 . S
C983 H1000 0.931 1_556 S
C984 C981 1.382 . S
C984 C985 1.390 . S
C984 H1001 0.931 . S
C985 C983 1.372 . S
C985 C984 1.390 . S
C985 H1002 0.929 . S
C986 C981 1.390 . S
C986 C982 1.392 . S
C986 H1003 0.930 . S
C987 O972 1.255 . S
C987 O973 1.257 . S
C988 Eu924 2.787 . S
C988 O968 1.252 . S
C988 O971 1.268 . S
C988 C981 1.506 . S
C989 C956 1.439 . S
C989 H966 0.931 . S
C989 C990 1.374 . S
C990 C961 1.387 . S
C990 H967 0.931 . S
C990 C989 1.374 . S
C991 O975 1.249 . S
C991 O976 1.264 . S
C992 C995 1.382 . S
C992 C996 1.390 . S
C992 C999 1.506 . S
C993 C994 1.398 . S
C993 C996 1.392 . S
C994 C993 1.398 . S
C994 C997 1.372 . S
C994 H1004 0.931 . S
C995 C992 1.382 . S
C995 C997 1.390 . S
C995 H1005 0.931 . S
C996 C992 1.390 . S
C996 C993 1.392 . S
C996 H1006 0.930 . S
C997 C994 1.372 . S
C997 C995 1.390 . S
C997 H1007 0.929 . S
C998 O978 1.255 . S
C998 O979 1.257 . S
C999 Eu935 2.787 . S
C999 O974 1.252 . S
C999 O977 1.268 . S
C999 C992 1.506 . S
H1000 C983 0.931 1_554 S
H1001 C984 0.931 . S
H1002 C985 0.929 . S
H1003 C986 0.930 . S
H1004 C994 0.931 . S
H1005 C995 0.931 . S
H1006 C996 0.930 . S
H1007 C997 0.929 . S
Eu1008 N1037 2.600 . S
Eu1008 N1043 2.562 . S
Eu1008 O1052 2.462 . S
Eu1008 O1053 2.373 . S
Eu1008 O1055 2.432 . S
Eu1008 O1056 2.291 . S
Eu1008 O1060 2.335 . S
Eu1008 O1063 2.372 . S
Eu1008 C1072 2.787 . S
C1009 N1010 1.365 . S
C1009 C1012 1.405 . S
C1009 C1016 1.448 . S
N1010 C1009 1.365 . S
N1010 C1013 1.319 . S
N1010 Eu1019 2.600 . S
C1011 C1013 1.397 . S
C1011 C1014 1.367 . S
C1011 H1031 0.931 . S
C1012 C1009 1.405 . S
C1012 C1014 1.403 . S
C1012 C1018 1.439 . S
C1013 N1010 1.319 . S
C1013 C1011 1.397 . S
C1013 H1024 0.930 . S
C1014 C1011 1.367 . S
C1014 C1012 1.403 . S
C1014 H1035 0.929 . S
C1015 C1016 1.430 . S
C1015 C1017 1.387 . S
C1015 C1021 1.404 . S
C1016 C1009 1.448 . S
C1016 C1015 1.430 . S
C1016 N1020 1.351 . S
C1017 C1015 1.387 . S
C1017 C1018 1.374 . S
C1017 H1032 0.931 1_565 S
C1018 C1012 1.439 . S
C1018 C1017 1.374 . S
C1018 H1033 0.931 . S
Eu1019 N1010 2.600 . S
Eu1019 N1020 2.562 . S
Eu1019 O1054 2.335 . S
Eu1019 O1057 2.372 . S
Eu1019 O1058 2.462 . S
Eu1019 O1059 2.373 . S
Eu1019 O1061 2.432 . S
Eu1019 O1062 2.291 . S
Eu1019 C1083 2.787 . S
N1020 C1016 1.351 . S
N1020 Eu1019 2.562 . S
N1020 C1022 1.325 . S
C1021 C1015 1.404 . S
C1021 C1023 1.366 . S
C1021 H1029 0.930 1_565 S
C1022 N1020 1.325 . S
C1022 C1023 1.416 . S
C1022 H1028 0.929 . S
C1023 C1021 1.366 . S
C1023 C1022 1.416 . S
C1023 H1025 0.930 . S
H1024 C1013 0.930 . S
H1025 C1023 0.930 . S
H1026 C1041 0.930 . S
H1027 C1048 0.930 . S
H1028 C1022 0.929 . S
H1029 C1021 0.930 1_545 S
H1030 C1044 0.929 . S
H1031 C1011 0.931 . S
H1032 C1017 0.931 1_545 S
H1033 C1018 0.931 . S
H1034 C1039 0.931 . S
H1035 C1014 0.929 . S
H1036 C1047 0.930 . S
N1037 Eu1008 2.600 . S
N1037 C1038 1.365 . S
N1037 C1041 1.319 . S
C1038 N1037 1.365 . S
C1038 C1040 1.405 . S
C1038 C1046 1.448 . S
C1039 H1034 0.931 . S
C1039 C1041 1.397 . S
C1039 C1042 1.367 . S
C1040 C1038 1.405 . S
C1040 C1042 1.403 . S
C1040 C1073 1.439 . S
C1041 H1026 0.930 . S
C1041 N1037 1.319 . S
C1041 C1039 1.397 . S
C1042 C1039 1.367 . S
C1042 C1040 1.403 . S
C1042 H1049 0.929 . S
N1043 Eu1008 2.562 . S
N1043 C1044 1.325 . S
N1043 C1046 1.351 . S
C1044 H1030 0.929 . S
C1044 N1043 1.325 . S
C1044 C1048 1.416 . S
C1045 C1046 1.430 . S
C1045 C1047 1.404 . S
C1045 C1074 1.387 . S
C1046 C1038 1.448 . S
C1046 N1043 1.351 . S
C1046 C1045 1.430 . S
C1047 H1036 0.930 . S
C1047 C1045 1.404 . S
C1047 C1048 1.366 . S
C1048 H1027 0.930 . S
C1048 C1044 1.416 . S
C1048 C1047 1.366 . S
H1049 C1042 0.929 . S
H1050 C1073 0.931 . S
H1051 C1074 0.931 . S
O1052 Eu1008 2.462 . S
O1052 C1072 1.252 . S
O1053 Eu1008 2.373 . S
O1053 C1064 1.249 . S
O1054 Eu1019 2.335 . S
O1054 C1064 1.264 . S
O1055 Eu1008 2.432 . S
O1055 C1072 1.268 . S
O1056 Eu1008 2.291 . S
O1056 C1071 1.255 . S
O1057 Eu1019 2.372 . S
O1057 C1071 1.257 . S
O1058 Eu1019 2.462 . S
O1058 C1083 1.252 . S
O1059 Eu1019 2.373 . S
O1059 C1075 1.249 . S
O1060 Eu1008 2.335 . S
O1060 C1075 1.264 . S
O1061 Eu1019 2.432 . S
O1061 C1083 1.268 . S
O1062 Eu1019 2.291 . S
O1062 C1082 1.255 . S
O1063 Eu1008 2.372 . S
O1063 C1082 1.257 . S
C1064 O1053 1.249 . S
C1064 O1054 1.264 . S
C1065 C1068 1.382 . S
C1065 C1070 1.390 . S
C1065 C1072 1.506 . S
C1066 C1067 1.398 . S
C1066 C1070 1.392 . S
C1067 C1066 1.398 . S
C1067 C1069 1.372 . S
C1067 H1084 0.931 . S
C1068 C1065 1.382 . S
C1068 C1069 1.390 . S
C1068 H1085 0.931 . S
C1069 C1067 1.372 . S
C1069 C1068 1.390 . S
C1069 H1086 0.929 . S
C1070 C1065 1.390 . S
C1070 C1066 1.392 . S
C1070 H1087 0.930 . S
C1071 O1056 1.255 . S
C1071 O1057 1.257 . S
C1072 Eu1008 2.787 . S
C1072 O1052 1.252 . S
C1072 O1055 1.268 . S
C1072 C1065 1.506 . S
C1073 C1040 1.439 . S
C1073 H1050 0.931 . S
C1073 C1074 1.374 . S
C1074 C1045 1.387 . S
C1074 H1051 0.931 . S
C1074 C1073 1.374 . S
C1075 O1059 1.249 . S
C1075 O1060 1.264 . S
C1076 C1079 1.382 . S
C1076 C1080 1.390 . S
C1076 C1083 1.506 . S
C1077 C1078 1.398 . S
C1077 C1080 1.392 . S
C1078 C1077 1.398 . S
C1078 C1081 1.372 . S
C1078 H1088 0.931 . S
C1079 C1076 1.382 . S
C1079 C1081 1.390 . S
C1079 H1089 0.931 . S
C1080 C1076 1.390 . S
C1080 C1077 1.392 . S
C1080 H1090 0.930 . S
C1081 C1078 1.372 . S
C1081 C1079 1.390 . S
C1081 H1091 0.929 . S
C1082 O1062 1.255 . S
C1082 O1063 1.257 . S
C1083 Eu1019 2.787 . S
C1083 O1058 1.252 . S
C1083 O1061 1.268 . S
C1083 C1076 1.506 . S
H1084 C1067 0.931 . S
H1085 C1068 0.931 . S
H1086 C1069 0.929 . S
H1087 C1070 0.930 . S
H1088 C1078 0.931 . S
H1089 C1079 0.931 . S
H1090 C1080 0.930 . S
H1091 C1081 0.929 . S
Eu1092 N1121 2.600 . S
Eu1092 N1127 2.562 . S
Eu1092 O1136 2.462 . S
Eu1092 O1137 2.373 . S
Eu1092 O1139 2.432 . S
Eu1092 O1140 2.291 . S
Eu1092 O1144 2.335 . S
Eu1092 O1147 2.372 . S
Eu1092 C1156 2.787 . S
C1093 N1094 1.365 . S
C1093 C1096 1.405 . S
C1093 C1100 1.448 . S
N1094 C1093 1.365 . S
N1094 C1097 1.319 1_565 S
N1094 Eu1103 2.600 . S
C1095 C1097 1.397 . S
C1095 C1098 1.367 . S
C1095 H1115 0.931 . S
C1096 C1093 1.405 . S
C1096 C1098 1.403 1_565 S
C1096 C1102 1.439 . S
C1097 N1094 1.319 1_545 S
C1097 C1095 1.397 . S
C1097 H1108 0.930 . S
C1098 C1095 1.367 . S
C1098 C1096 1.403 1_545 S
C1098 H1119 0.929 . S
C1099 C1100 1.430 . S
C1099 C1101 1.387 . S
C1099 C1105 1.404 . S
C1100 C1093 1.448 . S
C1100 C1099 1.430 . S
C1100 N1104 1.351 . S
C1101 C1099 1.387 . S
C1101 C1102 1.374 . S
C1101 H1116 0.931 1_455 S
C1102 C1096 1.439 . S
C1102 C1101 1.374 . S
C1102 H1117 0.931 . S
Eu1103 N1094 2.600 . S
Eu1103 N1104 2.562 . S
Eu1103 O1138 2.335 . S
Eu1103 O1141 2.372 1_565 S
Eu1103 O1142 2.462 . S
Eu1103 O1143 2.373 . S
Eu1103 O1145 2.432 . S
Eu1103 O1146 2.291 . S
Eu1103 C1167 2.787 . S
N1104 C1100 1.351 . S
N1104 Eu1103 2.562 . S
N1104 C1106 1.325 . S
C1105 C1099 1.404 . S
C1105 C1107 1.366 . S
C1105 H1113 0.930 1_455 S
C1106 N1104 1.325 . S
C1106 C1107 1.416 . S
C1106 H1112 0.929 . S
C1107 C1105 1.366 . S
C1107 C1106 1.416 . S
C1107 H1109 0.930 . S
H1108 C1097 0.930 . S
H1109 C1107 0.930 . S
H1110 C1125 0.930 . S
H1111 C1132 0.930 . S
H1112 C1106 0.929 . S
H1113 C1105 0.930 1_655 S
H1114 C1128 0.929 . S
H1115 C1095 0.931 . S
H1116 C1101 0.931 1_655 S
H1117 C1102 0.931 . S
H1118 C1123 0.931 . S
H1119 C1098 0.929 . S
H1120 C1131 0.930 . S
N1121 Eu1092 2.600 . S
N1121 C1122 1.365 . S
N1121 C1125 1.319 . S
C1122 N1121 1.365 . S
C1122 C1124 1.405 . S
C1122 C1130 1.448 . S
C1123 H1118 0.931 . S
C1123 C1125 1.397 . S
C1123 C1126 1.367 . S
C1124 C1122 1.405 . S
C1124 C1126 1.403 . S
C1124 C1157 1.439 . S
C1125 H1110 0.930 . S
C1125 N1121 1.319 . S
C1125 C1123 1.397 . S
C1126 C1123 1.367 . S
C1126 C1124 1.403 . S
C1126 H1133 0.929 . S
N1127 Eu1092 2.562 . S
N1127 C1128 1.325 1_565 S
N1127 C1130 1.351 . S
C1128 H1114 0.929 . S
C1128 N1127 1.325 1_545 S
C1128 C1132 1.416 . S
C1129 C1130 1.430 . S
C1129 C1131 1.404 1_565 S
C1129 C1158 1.387 . S
C1130 C1122 1.448 . S
C1130 N1127 1.351 . S
C1130 C1129 1.430 . S
C1131 H1120 0.930 . S
C1131 C1129 1.404 1_545 S
C1131 C1132 1.366 . S
C1132 H1111 0.930 . S
C1132 C1128 1.416 . S
C1132 C1131 1.366 . S
H1133 C1126 0.929 . S
H1134 C1157 0.931 . S
H1135 C1158 0.931 . S
O1136 Eu1092 2.462 . S
O1136 C1156 1.252 . S
O1137 Eu1092 2.373 . S
O1137 C1148 1.249 . S
O1138 Eu1103 2.335 . S
O1138 C1148 1.264 . S
O1139 Eu1092 2.432 . S
O1139 C1156 1.268 . S
O1140 Eu1092 2.291 . S
O1140 C1155 1.255 1_565 S
O1141 Eu1103 2.372 1_545 S
O1141 C1155 1.257 . S
O1142 Eu1103 2.462 . S
O1142 C1167 1.252 . S
O1143 Eu1103 2.373 . S
O1143 C1159 1.249 . S
O1144 Eu1092 2.335 . S
O1144 C1159 1.264 . S
O1145 Eu1103 2.432 . S
O1145 C1167 1.268 . S
O1146 Eu1103 2.291 . S
O1146 C1166 1.255 . S
O1147 Eu1092 2.372 . S
O1147 C1166 1.257 . S
C1148 O1137 1.249 . S
C1148 O1138 1.264 . S
C1149 C1152 1.382 . S
C1149 C1154 1.390 . S
C1149 C1156 1.506 . S
C1150 C1151 1.398 . S
C1150 C1154 1.392 . S
C1151 C1150 1.398 . S
C1151 C1153 1.372 . S
C1151 H1168 0.931 . S
C1152 C1149 1.382 . S
C1152 C1153 1.390 . S
C1152 H1169 0.931 . S
C1153 C1151 1.372 . S
C1153 C1152 1.390 . S
C1153 H1170 0.929 . S
C1154 C1149 1.390 . S
C1154 C1150 1.392 . S
C1154 H1171 0.930 . S
C1155 O1140 1.255 1_545 S
C1155 O1141 1.257 . S
C1156 Eu1092 2.787 . S
C1156 O1136 1.252 . S
C1156 O1139 1.268 . S
C1156 C1149 1.506 . S
C1157 C1124 1.439 . S
C1157 H1134 0.931 . S
C1157 C1158 1.374 . S
C1158 C1129 1.387 . S
C1158 H1135 0.931 . S
C1158 C1157 1.374 . S
C1159 O1143 1.249 . S
C1159 O1144 1.264 . S
C1160 C1163 1.382 . S
C1160 C1164 1.390 . S
C1160 C1167 1.506 . S
C1161 C1162 1.398 . S
C1161 C1164 1.392 . S
C1162 C1161 1.398 . S
C1162 C1165 1.372 . S
C1162 H1172 0.931 . S
C1163 C1160 1.382 . S
C1163 C1165 1.390 . S
C1163 H1173 0.931 . S
C1164 C1160 1.390 . S
C1164 C1161 1.392 . S
C1164 H1174 0.930 . S
C1165 C1162 1.372 . S
C1165 C1163 1.390 . S
C1165 H1175 0.929 . S
C1166 O1146 1.255 . S
C1166 O1147 1.257 . S
C1167 Eu1103 2.787 . S
C1167 O1142 1.252 . S
C1167 O1145 1.268 . S
C1167 C1160 1.506 . S
H1168 C1151 0.931 . S
H1169 C1152 0.931 . S
H1170 C1153 0.929 . S
H1171 C1154 0.930 . S
H1172 C1162 0.931 . S
H1173 C1163 0.931 . S
H1174 C1164 0.930 . S
H1175 C1165 0.929 . S
Eu1176 N1205 2.600 . S
Eu1176 N1211 2.562 . S
Eu1176 O1220 2.462 . S
Eu1176 O1221 2.373 . S
Eu1176 O1223 2.432 . S
Eu1176 O1224 2.291 . S
Eu1176 O1228 2.335 . S
Eu1176 O1231 2.372 . S
Eu1176 C1240 2.787 . S
C1177 N1178 1.365 . S
C1177 C1180 1.405 . S
C1177 C1184 1.448 . S
N1178 C1177 1.365 . S
N1178 C1181 1.319 1_455 S
N1178 Eu1187 2.600 . S
C1179 C1181 1.397 . S
C1179 C1182 1.367 . S
C1179 H1199 0.931 . S
C1180 C1177 1.405 . S
C1180 C1182 1.403 1_455 S
C1180 C1186 1.439 . S
C1181 N1178 1.319 1_655 S
C1181 C1179 1.397 . S
C1181 H1192 0.930 . S
C1182 C1179 1.367 . S
C1182 C1180 1.403 1_655 S
C1182 H1203 0.929 . S
C1183 C1184 1.430 . S
C1183 C1185 1.387 . S
C1183 C1189 1.404 . S
C1184 C1177 1.448 . S
C1184 C1183 1.430 . S
C1184 N1188 1.351 . S
C1185 C1183 1.387 . S
C1185 C1186 1.374 . S
C1185 H1200 0.931 . S
C1186 C1180 1.439 . S
C1186 C1185 1.374 . S
C1186 H1201 0.931 . S
Eu1187 N1178 2.600 . S
Eu1187 N1188 2.562 . S
Eu1187 O1222 2.335 . S
Eu1187 O1225 2.372 1_455 S
Eu1187 O1226 2.462 . S
Eu1187 O1227 2.373 . S
Eu1187 O1229 2.432 . S
Eu1187 O1230 2.291 . S
Eu1187 C1251 2.787 . S
N1188 C1184 1.351 . S
N1188 Eu1187 2.562 . S
N1188 C1190 1.325 . S
C1189 C1183 1.404 . S
C1189 C1191 1.366 . S
C1189 H1197 0.930 . S
C1190 N1188 1.325 . S
C1190 C1191 1.416 . S
C1190 H1196 0.929 . S
C1191 C1189 1.366 . S
C1191 C1190 1.416 . S
C1191 H1193 0.930 . S
H1192 C1181 0.930 . S
H1193 C1191 0.930 . S
H1194 C1209 0.930 . S
H1195 C1216 0.930 . S
H1196 C1190 0.929 . S
H1197 C1189 0.930 . S
H1198 C1212 0.929 . S
H1199 C1179 0.931 . S
H1200 C1185 0.931 . S
H1201 C1186 0.931 . S
H1202 C1207 0.931 . S
H1203 C1182 0.929 . S
H1204 C1215 0.930 . S
N1205 Eu1176 2.600 . S
N1205 C1206 1.365 . S
N1205 C1209 1.319 . S
C1206 N1205 1.365 . S
C1206 C1208 1.405 . S
C1206 C1214 1.448 . S
C1207 H1202 0.931 . S
C1207 C1209 1.397 . S
C1207 C1210 1.367 . S
C1208 C1206 1.405 . S
C1208 C1210 1.403 . S
C1208 C1241 1.439 . S
C1209 H1194 0.930 . S
C1209 N1205 1.319 . S
C1209 C1207 1.397 . S
C1210 C1207 1.367 . S
C1210 C1208 1.403 . S
C1210 H1217 0.929 . S
N1211 Eu1176 2.562 . S
N1211 C1212 1.325 1_455 S
N1211 C1214 1.351 . S
C1212 H1198 0.929 . S
C1212 N1211 1.325 1_655 S
C1212 C1216 1.416 . S
C1213 C1214 1.430 . S
C1213 C1215 1.404 1_455 S
C1213 C1242 1.387 . S
C1214 C1206 1.448 . S
C1214 N1211 1.351 . S
C1214 C1213 1.430 . S
C1215 H1204 0.930 . S
C1215 C1213 1.404 1_655 S
C1215 C1216 1.366 . S
C1216 H1195 0.930 . S
C1216 C1212 1.416 . S
C1216 C1215 1.366 . S
H1217 C1210 0.929 . S
H1218 C1241 0.931 . S
H1219 C1242 0.931 . S
O1220 Eu1176 2.462 . S
O1220 C1240 1.252 . S
O1221 Eu1176 2.373 . S
O1221 C1232 1.249 . S
O1222 Eu1187 2.335 . S
O1222 C1232 1.264 . S
O1223 Eu1176 2.432 . S
O1223 C1240 1.268 . S
O1224 Eu1176 2.291 . S
O1224 C1239 1.255 1_455 S
O1225 Eu1187 2.372 1_655 S
O1225 C1239 1.257 . S
O1226 Eu1187 2.462 . S
O1226 C1251 1.252 . S
O1227 Eu1187 2.373 . S
O1227 C1243 1.249 . S
O1228 Eu1176 2.335 . S
O1228 C1243 1.264 . S
O1229 Eu1187 2.432 . S
O1229 C1251 1.268 . S
O1230 Eu1187 2.291 . S
O1230 C1250 1.255 . S
O1231 Eu1176 2.372 . S
O1231 C1250 1.257 . S
C1232 O1221 1.249 . S
C1232 O1222 1.264 . S
C1233 C1236 1.382 . S
C1233 C1238 1.390 . S
C1233 C1240 1.506 . S
C1234 C1235 1.398 . S
C1234 C1238 1.392 . S
C1235 C1234 1.398 . S
C1235 C1237 1.372 . S
C1235 H1252 0.931 . S
C1236 C1233 1.382 . S
C1236 C1237 1.390 . S
C1236 H1253 0.931 . S
C1237 C1235 1.372 . S
C1237 C1236 1.390 . S
C1237 H1254 0.929 . S
C1238 C1233 1.390 . S
C1238 C1234 1.392 . S
C1238 H1255 0.930 . S
C1239 O1224 1.255 1_655 S
C1239 O1225 1.257 . S
C1240 Eu1176 2.787 . S
C1240 O1220 1.252 . S
C1240 O1223 1.268 . S
C1240 C1233 1.506 . S
C1241 C1208 1.439 . S
C1241 H1218 0.931 . S
C1241 C1242 1.374 . S
C1242 C1213 1.387 . S
C1242 H1219 0.931 . S
C1242 C1241 1.374 . S
C1243 O1227 1.249 . S
C1243 O1228 1.264 . S
C1244 C1247 1.382 . S
C1244 C1248 1.390 . S
C1244 C1251 1.506 . S
C1245 C1246 1.398 . S
C1245 C1248 1.392 . S
C1246 C1245 1.398 . S
C1246 C1249 1.372 . S
C1246 H1256 0.931 . S
C1247 C1244 1.382 . S
C1247 C1249 1.390 . S
C1247 H1257 0.931 . S
C1248 C1244 1.390 . S
C1248 C1245 1.392 . S
C1248 H1258 0.930 . S
C1249 C1246 1.372 . S
C1249 C1247 1.390 . S
C1249 H1259 0.929 . S
C1250 O1230 1.255 . S
C1250 O1231 1.257 . S
C1251 Eu1187 2.787 . S
C1251 O1226 1.252 . S
C1251 O1229 1.268 . S
C1251 C1244 1.506 . S
H1252 C1235 0.931 . S
H1253 C1236 0.931 . S
H1254 C1237 0.929 . S
H1255 C1238 0.930 . S
H1256 C1246 0.931 . S
H1257 C1247 0.931 . S
H1258 C1248 0.930 . S
H1259 C1249 0.929 . S
Eu1260 N1289 2.600 . S
Eu1260 N1295 2.562 . S
Eu1260 O1304 2.462 . S
Eu1260 O1305 2.373 . S
Eu1260 O1307 2.432 . S
Eu1260 O1308 2.291 . S
Eu1260 O1312 2.335 . S
Eu1260 O1315 2.372 . S
Eu1260 C1324 2.787 1_556 S
C1261 N1262 1.365 . S
C1261 C1264 1.405 . S
C1261 C1268 1.448 . S
N1262 C1261 1.365 . S
N1262 C1265 1.319 . S
N1262 Eu1271 2.600 . S
C1263 C1265 1.397 . S
C1263 C1266 1.367 . S
C1263 H1283 0.931 . S
C1264 C1261 1.405 . S
C1264 C1266 1.403 . S
C1264 C1270 1.439 . S
C1265 N1262 1.319 . S
C1265 C1263 1.397 . S
C1265 H1276 0.930 . S
C1266 C1263 1.367 . S
C1266 C1264 1.403 . S
C1266 H1287 0.929 . S
C1267 C1268 1.430 . S
C1267 C1269 1.387 . S
C1267 C1273 1.404 . S
C1268 C1261 1.448 . S
C1268 C1267 1.430 . S
C1268 N1272 1.351 . S
C1269 C1267 1.387 . S
C1269 C1270 1.374 . S
C1269 H1284 0.931 . S
C1270 C1264 1.439 . S
C1270 C1269 1.374 . S
C1270 H1285 0.931 . S
Eu1271 N1262 2.600 . S
Eu1271 N1272 2.562 . S
Eu1271 O1306 2.335 . S
Eu1271 O1309 2.372 . S
Eu1271 O1310 2.462 . S
Eu1271 O1311 2.373 . S
Eu1271 O1313 2.432 . S
Eu1271 O1314 2.291 . S
Eu1271 C1335 2.787 . S
N1272 C1268 1.351 . S
N1272 Eu1271 2.562 . S
N1272 C1274 1.325 . S
C1273 C1267 1.404 . S
C1273 C1275 1.366 . S
C1273 H1281 0.930 . S
C1274 N1272 1.325 . S
C1274 C1275 1.416 . S
C1274 H1280 0.929 . S
C1275 C1273 1.366 . S
C1275 C1274 1.416 . S
C1275 H1277 0.930 . S
H1276 C1265 0.930 . S
H1277 C1275 0.930 . S
H1278 C1293 0.930 . S
H1279 C1300 0.930 . S
H1280 C1274 0.929 . S
H1281 C1273 0.930 . S
H1282 C1296 0.929 1_455 S
H1283 C1263 0.931 . S
H1284 C1269 0.931 . S
H1285 C1270 0.931 . S
H1286 C1291 0.931 . S
H1287 C1266 0.929 . S
H1288 C1299 0.930 . S
N1289 Eu1260 2.600 . S
N1289 C1290 1.365 . S
N1289 C1293 1.319 . S
C1290 N1289 1.365 . S
C1290 C1292 1.405 1_455 S
C1290 C1298 1.448 1_455 S
C1291 H1286 0.931 . S
C1291 C1293 1.397 . S
C1291 C1294 1.367 . S
C1292 C1290 1.405 1_655 S
C1292 C1294 1.403 1_655 S
C1292 C1325 1.439 . S
C1293 H1278 0.930 . S
C1293 N1289 1.319 . S
C1293 C1291 1.397 . S
C1294 C1291 1.367 . S
C1294 C1292 1.403 1_455 S
C1294 H1301 0.929 1_455 S
N1295 Eu1260 2.562 . S
N1295 C1296 1.325 1_455 S
N1295 C1298 1.351 1_455 S
C1296 H1282 0.929 1_655 S
C1296 N1295 1.325 1_655 S
C1296 C1300 1.416 . S
C1297 C1298 1.430 . S
C1297 C1299 1.404 . S
C1297 C1326 1.387 . S
C1298 C1290 1.448 1_655 S
C1298 N1295 1.351 1_655 S
C1298 C1297 1.430 . S
C1299 H1288 0.930 . S
C1299 C1297 1.404 . S
C1299 C1300 1.366 . S
C1300 H1279 0.930 . S
C1300 C1296 1.416 . S
C1300 C1299 1.366 . S
H1301 C1294 0.929 1_655 S
H1302 C1325 0.931 . S
H1303 C1326 0.931 . S
O1304 Eu1260 2.462 . S
O1304 C1324 1.252 1_556 S
O1305 Eu1260 2.373 . S
O1305 C1316 1.249 . S
O1306 Eu1271 2.335 . S
O1306 C1316 1.264 . S
O1307 Eu1260 2.432 . S
O1307 C1324 1.268 1_556 S
O1308 Eu1260 2.291 . S
O1308 C1323 1.255 . S
O1309 Eu1271 2.372 . S
O1309 C1323 1.257 . S
O1310 Eu1271 2.462 . S
O1310 C1335 1.252 . S
O1311 Eu1271 2.373 . S
O1311 C1327 1.249 . S
O1312 Eu1260 2.335 . S
O1312 C1327 1.264 . S
O1313 Eu1271 2.432 . S
O1313 C1335 1.268 . S
O1314 Eu1271 2.291 . S
O1314 C1334 1.255 . S
O1315 Eu1260 2.372 . S
O1315 C1334 1.257 . S
C1316 O1305 1.249 . S
C1316 O1306 1.264 . S
C1317 C1320 1.382 . S
C1317 C1322 1.390 . S
C1317 C1324 1.506 . S
C1318 C1319 1.398 . S
C1318 C1322 1.392 . S
C1319 C1318 1.398 . S
C1319 C1321 1.372 . S
C1319 H1336 0.931 1_455 S
C1320 C1317 1.382 . S
C1320 C1321 1.390 . S
C1320 H1337 0.931 . S
C1321 C1319 1.372 . S
C1321 C1320 1.390 . S
C1321 H1338 0.929 . S
C1322 C1317 1.390 . S
C1322 C1318 1.392 . S
C1322 H1339 0.930 . S
C1323 O1308 1.255 . S
C1323 O1309 1.257 . S
C1324 Eu1260 2.787 1_554 S
C1324 O1304 1.252 1_554 S
C1324 O1307 1.268 1_554 S
C1324 C1317 1.506 . S
C1325 C1292 1.439 . S
C1325 H1302 0.931 . S
C1325 C1326 1.374 . S
C1326 C1297 1.387 . S
C1326 H1303 0.931 . S
C1326 C1325 1.374 . S
C1327 O1311 1.249 . S
C1327 O1312 1.264 . S
C1328 C1331 1.382 . S
C1328 C1332 1.390 . S
C1328 C1335 1.506 . S
C1329 C1330 1.398 . S
C1329 C1332 1.392 . S
C1330 C1329 1.398 . S
C1330 C1333 1.372 . S
C1330 H1340 0.931 . S
C1331 C1328 1.382 . S
C1331 C1333 1.390 . S
C1331 H1341 0.931 . S
C1332 C1328 1.390 . S
C1332 C1329 1.392 . S
C1332 H1342 0.930 . S
C1333 C1330 1.372 . S
C1333 C1331 1.390 . S
C1333 H1343 0.929 . S
C1334 O1314 1.255 . S
C1334 O1315 1.257 . S
C1335 Eu1271 2.787 . S
C1335 O1310 1.252 . S
C1335 O1313 1.268 . S
C1335 C1328 1.506 . S
H1336 C1319 0.931 1_655 S
H1337 C1320 0.931 . S
H1338 C1321 0.929 . S
H1339 C1322 0.930 . S
H1340 C1330 0.931 . S
H1341 C1331 0.931 . S
H1342 C1332 0.930 . S
H1343 C1333 0.929 . S
Eu1344 N1373 2.600 . S
Eu1344 N1379 2.562 . S
Eu1344 O1388 2.462 . S
Eu1344 O1389 2.373 . S
Eu1344 O1391 2.432 . S
Eu1344 O1392 2.291 . S
Eu1344 O1396 2.335 . S
Eu1344 O1399 2.372 . S
Eu1344 C1408 2.787 1_556 S
C1345 N1346 1.365 . S
C1345 C1348 1.405 . S
C1345 C1352 1.448 . S
N1346 C1345 1.365 . S
N1346 C1349 1.319 . S
N1346 Eu1355 2.600 . S
C1347 C1349 1.397 . S
C1347 C1350 1.367 . S
C1347 H1367 0.931 . S
C1348 C1345 1.405 . S
C1348 C1350 1.403 . S
C1348 C1354 1.439 . S
C1349 N1346 1.319 . S
C1349 C1347 1.397 . S
C1349 H1360 0.930 . S
C1350 C1347 1.367 . S
C1350 C1348 1.403 . S
C1350 H1371 0.929 . S
C1351 C1352 1.430 . S
C1351 C1353 1.387 . S
C1351 C1357 1.404 . S
C1352 C1345 1.448 . S
C1352 C1351 1.430 . S
C1352 N1356 1.351 . S
C1353 C1351 1.387 . S
C1353 C1354 1.374 . S
C1353 H1368 0.931 . S
C1354 C1348 1.439 . S
C1354 C1353 1.374 . S
C1354 H1369 0.931 . S
Eu1355 N1346 2.600 . S
Eu1355 N1356 2.562 . S
Eu1355 O1390 2.335 . S
Eu1355 O1393 2.372 . S
Eu1355 O1394 2.462 . S
Eu1355 O1395 2.373 . S
Eu1355 O1397 2.432 . S
Eu1355 O1398 2.291 . S
Eu1355 C1419 2.787 . S
N1356 C1352 1.351 . S
N1356 Eu1355 2.562 . S
N1356 C1358 1.325 . S
C1357 C1351 1.404 . S
C1357 C1359 1.366 . S
C1357 H1365 0.930 . S
C1358 N1356 1.325 . S
C1358 C1359 1.416 . S
C1358 H1364 0.929 . S
C1359 C1357 1.366 . S
C1359 C1358 1.416 . S
C1359 H1361 0.930 . S
H1360 C1349 0.930 . S
H1361 C1359 0.930 . S
H1362 C1377 0.930 . S
H1363 C1384 0.930 . S
H1364 C1358 0.929 . S
H1365 C1357 0.930 . S
H1366 C1380 0.929 . S
H1367 C1347 0.931 . S
H1368 C1353 0.931 . S
H1369 C1354 0.931 . S
H1370 C1375 0.931 . S
H1371 C1350 0.929 . S
H1372 C1383 0.930 . S
N1373 Eu1344 2.600 . S
N1373 C1374 1.365 . S
N1373 C1377 1.319 . S
C1374 N1373 1.365 . S
C1374 C1376 1.405 . S
C1374 C1382 1.448 . S
C1375 H1370 0.931 . S
C1375 C1377 1.397 . S
C1375 C1378 1.367 . S
C1376 C1374 1.405 . S
C1376 C1378 1.403 . S
C1376 C1409 1.439 . S
C1377 H1362 0.930 . S
C1377 N1373 1.319 . S
C1377 C1375 1.397 . S
C1378 C1375 1.367 . S
C1378 C1376 1.403 . S
C1378 H1385 0.929 . S
N1379 Eu1344 2.562 . S
N1379 C1380 1.325 . S
N1379 C1382 1.351 . S
C1380 H1366 0.929 . S
C1380 N1379 1.325 . S
C1380 C1384 1.416 . S
C1381 C1382 1.430 . S
C1381 C1383 1.404 . S
C1381 C1410 1.387 . S
C1382 C1374 1.448 . S
C1382 N1379 1.351 . S
C1382 C1381 1.430 . S
C1383 H1372 0.930 . S
C1383 C1381 1.404 . S
C1383 C1384 1.366 . S
C1384 H1363 0.930 . S
C1384 C1380 1.416 . S
C1384 C1383 1.366 . S
H1385 C1378 0.929 . S
H1386 C1409 0.931 . S
H1387 C1410 0.931 . S
O1388 Eu1344 2.462 . S
O1388 C1408 1.252 1_556 S
O1389 Eu1344 2.373 . S
O1389 C1400 1.249 . S
O1390 Eu1355 2.335 . S
O1390 C1400 1.264 . S
O1391 Eu1344 2.432 . S
O1391 C1408 1.268 1_556 S
O1392 Eu1344 2.291 . S
O1392 C1407 1.255 . S
O1393 Eu1355 2.372 . S
O1393 C1407 1.257 . S
O1394 Eu1355 2.462 . S
O1394 C1419 1.252 . S
O1395 Eu1355 2.373 . S
O1395 C1411 1.249 . S
O1396 Eu1344 2.335 . S
O1396 C1411 1.264 . S
O1397 Eu1355 2.432 . S
O1397 C1419 1.268 . S
O1398 Eu1355 2.291 . S
O1398 C1418 1.255 . S
O1399 Eu1344 2.372 . S
O1399 C1418 1.257 . S
C1400 O1389 1.249 . S
C1400 O1390 1.264 . S
C1401 C1404 1.382 . S
C1401 C1406 1.390 . S
C1401 C1408 1.506 . S
C1402 C1403 1.398 . S
C1402 C1406 1.392 . S
C1403 C1402 1.398 . S
C1403 C1405 1.372 . S
C1403 H1420 0.931 . S
C1404 C1401 1.382 . S
C1404 C1405 1.390 . S
C1404 H1421 0.931 . S
C1405 C1403 1.372 . S
C1405 C1404 1.390 . S
C1405 H1422 0.929 . S
C1406 C1401 1.390 . S
C1406 C1402 1.392 . S
C1406 H1423 0.930 . S
C1407 O1392 1.255 . S
C1407 O1393 1.257 . S
C1408 Eu1344 2.787 1_554 S
C1408 O1388 1.252 1_554 S
C1408 O1391 1.268 1_554 S
C1408 C1401 1.506 . S
C1409 C1376 1.439 . S
C1409 H1386 0.931 . S
C1409 C1410 1.374 . S
C1410 C1381 1.387 . S
C1410 H1387 0.931 . S
C1410 C1409 1.374 . S
C1411 O1395 1.249 . S
C1411 O1396 1.264 . S
C1412 C1415 1.382 . S
C1412 C1416 1.390 . S
C1412 C1419 1.506 . S
C1413 C1414 1.398 . S
C1413 C1416 1.392 . S
C1414 C1413 1.398 . S
C1414 C1417 1.372 . S
C1414 H1424 0.931 . S
C1415 C1412 1.382 . S
C1415 C1417 1.390 . S
C1415 H1425 0.931 . S
C1416 C1412 1.390 . S
C1416 C1413 1.392 . S
C1416 H1426 0.930 . S
C1417 C1414 1.372 . S
C1417 C1415 1.390 . S
C1417 H1427 0.929 . S
C1418 O1398 1.255 . S
C1418 O1399 1.257 . S
C1419 Eu1355 2.787 . S
C1419 O1394 1.252 . S
C1419 O1397 1.268 . S
C1419 C1412 1.506 . S
H1420 C1403 0.931 . S
H1421 C1404 0.931 . S
H1422 C1405 0.929 . S
H1423 C1406 0.930 . S
H1424 C1414 0.931 . S
H1425 C1415 0.931 . S
H1426 C1416 0.930 . S
H1427 C1417 0.929 . S
Eu1428 N1457 2.600 . S
Eu1428 N1463 2.562 . S
Eu1428 O1472 2.462 . S
Eu1428 O1473 2.373 . S
Eu1428 O1475 2.432 . S
Eu1428 O1476 2.291 . S
Eu1428 O1480 2.335 . S
Eu1428 O1483 2.372 . S
Eu1428 C1492 2.787 1_556 S
C1429 N1430 1.365 . S
C1429 C1432 1.405 . S
C1429 C1436 1.448 . S
N1430 C1429 1.365 . S
N1430 C1433 1.319 . S
N1430 Eu1439 2.600 . S
C1431 C1433 1.397 . S
C1431 C1434 1.367 . S
C1431 H1451 0.931 . S
C1432 C1429 1.405 . S
C1432 C1434 1.403 . S
C1432 C1438 1.439 . S
C1433 N1430 1.319 . S
C1433 C1431 1.397 . S
C1433 H1444 0.930 . S
C1434 C1431 1.367 . S
C1434 C1432 1.403 . S
C1434 H1455 0.929 . S
C1435 C1436 1.430 . S
C1435 C1437 1.387 . S
C1435 C1441 1.404 . S
C1436 C1429 1.448 . S
C1436 C1435 1.430 . S
C1436 N1440 1.351 . S
C1437 C1435 1.387 . S
C1437 C1438 1.374 . S
C1437 H1452 0.931 . S
C1438 C1432 1.439 . S
C1438 C1437 1.374 . S
C1438 H1453 0.931 . S
Eu1439 N1430 2.600 . S
Eu1439 N1440 2.562 . S
Eu1439 O1474 2.335 . S
Eu1439 O1477 2.372 . S
Eu1439 O1478 2.462 . S
Eu1439 O1479 2.373 . S
Eu1439 O1481 2.432 . S
Eu1439 O1482 2.291 . S
Eu1439 C1503 2.787 . S
N1440 C1436 1.351 . S
N1440 Eu1439 2.562 . S
N1440 C1442 1.325 . S
C1441 C1435 1.404 . S
C1441 C1443 1.366 . S
C1441 H1449 0.930 . S
C1442 N1440 1.325 . S
C1442 C1443 1.416 . S
C1442 H1448 0.929 . S
C1443 C1441 1.366 . S
C1443 C1442 1.416 . S
C1443 H1445 0.930 . S
H1444 C1433 0.930 . S
H1445 C1443 0.930 . S
H1446 C1461 0.930 . S
H1447 C1468 0.930 . S
H1448 C1442 0.929 . S
H1449 C1441 0.930 . S
H1450 C1464 0.929 1_565 S
H1451 C1431 0.931 . S
H1452 C1437 0.931 . S
H1453 C1438 0.931 . S
H1454 C1459 0.931 . S
H1455 C1434 0.929 . S
H1456 C1467 0.930 . S
N1457 Eu1428 2.600 . S
N1457 C1458 1.365 . S
N1457 C1461 1.319 . S
C1458 N1457 1.365 . S
C1458 C1460 1.405 1_565 S
C1458 C1466 1.448 1_565 S
C1459 H1454 0.931 . S
C1459 C1461 1.397 . S
C1459 C1462 1.367 . S
C1460 C1458 1.405 1_545 S
C1460 C1462 1.403 1_545 S
C1460 C1493 1.439 . S
C1461 H1446 0.930 . S
C1461 N1457 1.319 . S
C1461 C1459 1.397 . S
C1462 C1459 1.367 . S
C1462 C1460 1.403 1_565 S
C1462 H1469 0.929 1_565 S
N1463 Eu1428 2.562 . S
N1463 C1464 1.325 1_565 S
N1463 C1466 1.351 1_565 S
C1464 H1450 0.929 1_545 S
C1464 N1463 1.325 1_545 S
C1464 C1468 1.416 . S
C1465 C1466 1.430 . S
C1465 C1467 1.404 . S
C1465 C1494 1.387 . S
C1466 C1458 1.448 1_545 S
C1466 N1463 1.351 1_545 S
C1466 C1465 1.430 . S
C1467 H1456 0.930 . S
C1467 C1465 1.404 . S
C1467 C1468 1.366 . S
C1468 H1447 0.930 . S
C1468 C1464 1.416 . S
C1468 C1467 1.366 . S
H1469 C1462 0.929 1_545 S
H1470 C1493 0.931 . S
H1471 C1494 0.931 . S
O1472 Eu1428 2.462 . S
O1472 C1492 1.252 1_556 S
O1473 Eu1428 2.373 . S
O1473 C1484 1.249 . S
O1474 Eu1439 2.335 . S
O1474 C1484 1.264 . S
O1475 Eu1428 2.432 . S
O1475 C1492 1.268 1_556 S
O1476 Eu1428 2.291 . S
O1476 C1491 1.255 . S
O1477 Eu1439 2.372 . S
O1477 C1491 1.257 . S
O1478 Eu1439 2.462 . S
O1478 C1503 1.252 . S
O1479 Eu1439 2.373 . S
O1479 C1495 1.249 . S
O1480 Eu1428 2.335 . S
O1480 C1495 1.264 . S
O1481 Eu1439 2.432 . S
O1481 C1503 1.268 . S
O1482 Eu1439 2.291 . S
O1482 C1502 1.255 . S
O1483 Eu1428 2.372 . S
O1483 C1502 1.257 . S
C1484 O1473 1.249 . S
C1484 O1474 1.264 . S
C1485 C1488 1.382 . S
C1485 C1490 1.390 . S
C1485 C1492 1.506 . S
C1486 C1487 1.398 . S
C1486 C1490 1.392 . S
C1487 C1486 1.398 . S
C1487 C1489 1.372 . S
C1487 H1504 0.931 1_565 S
C1488 C1485 1.382 . S
C1488 C1489 1.390 . S
C1488 H1505 0.931 . S
C1489 C1487 1.372 . S
C1489 C1488 1.390 . S
C1489 H1506 0.929 . S
C1490 C1485 1.390 . S
C1490 C1486 1.392 . S
C1490 H1507 0.930 . S
C1491 O1476 1.255 . S
C1491 O1477 1.257 . S
C1492 Eu1428 2.787 1_554 S
C1492 O1472 1.252 1_554 S
C1492 O1475 1.268 1_554 S
C1492 C1485 1.506 . S
C1493 C1460 1.439 . S
C1493 H1470 0.931 . S
C1493 C1494 1.374 . S
C1494 C1465 1.387 . S
C1494 H1471 0.931 . S
C1494 C1493 1.374 . S
C1495 O1479 1.249 . S
C1495 O1480 1.264 . S
C1496 C1499 1.382 . S
C1496 C1500 1.390 . S
C1496 C1503 1.506 . S
C1497 C1498 1.398 . S
C1497 C1500 1.392 . S
C1498 C1497 1.398 . S
C1498 C1501 1.372 . S
C1498 H1508 0.931 . S
C1499 C1496 1.382 . S
C1499 C1501 1.390 . S
C1499 H1509 0.931 . S
C1500 C1496 1.390 . S
C1500 C1497 1.392 . S
C1500 H1510 0.930 . S
C1501 C1498 1.372 . S
C1501 C1499 1.390 . S
C1501 H1511 0.929 . S
C1502 O1482 1.255 . S
C1502 O1483 1.257 . S
C1503 Eu1439 2.787 . S
C1503 O1478 1.252 . S
C1503 O1481 1.268 . S
C1503 C1496 1.506 . S
H1504 C1487 0.931 1_545 S
H1505 C1488 0.931 . S
H1506 C1489 0.929 . S
H1507 C1490 0.930 . S
H1508 C1498 0.931 . S
H1509 C1499 0.931 . S
H1510 C1500 0.930 . S
H1511 C1501 0.929 . S
Eu1512 N1541 2.600 . S
Eu1512 N1547 2.562 . S
Eu1512 O1556 2.462 . S
Eu1512 O1557 2.373 . S
Eu1512 O1559 2.432 . S
Eu1512 O1560 2.291 . S
Eu1512 O1564 2.335 . S
Eu1512 O1567 2.372 . S
Eu1512 C1576 2.787 . S
C1513 N1514 1.365 . S
C1513 C1516 1.405 1_565 S
C1513 C1520 1.448 1_565 S
N1514 C1513 1.365 . S
N1514 C1517 1.319 . S
N1514 Eu1523 2.600 . S
C1515 C1517 1.397 . S
C1515 C1518 1.367 . S
C1515 H1535 0.931 . S
C1516 C1513 1.405 1_545 S
C1516 C1518 1.403 1_545 S
C1516 C1522 1.439 . S
C1517 N1514 1.319 . S
C1517 C1515 1.397 . S
C1517 H1528 0.930 . S
C1518 C1515 1.367 . S
C1518 C1516 1.403 1_565 S
C1518 H1539 0.929 1_565 S
C1519 C1520 1.430 . S
C1519 C1521 1.387 . S
C1519 C1525 1.404 . S
C1520 C1513 1.448 1_545 S
C1520 C1519 1.430 . S
C1520 N1524 1.351 1_545 S
C1521 C1519 1.387 . S
C1521 C1522 1.374 . S
C1521 H1536 0.931 . S
C1522 C1516 1.439 . S
C1522 C1521 1.374 . S
C1522 H1537 0.931 . S
Eu1523 N1514 2.600 . S
Eu1523 N1524 2.562 . S
Eu1523 O1558 2.335 . S
Eu1523 O1561 2.372 . S
Eu1523 O1562 2.462 . S
Eu1523 O1563 2.373 . S
Eu1523 O1565 2.432 . S
Eu1523 O1566 2.291 . S
Eu1523 C1587 2.787 . S
N1524 C1520 1.351 1_565 S
N1524 Eu1523 2.562 . S
N1524 C1526 1.325 1_565 S
C1525 C1519 1.404 . S
C1525 C1527 1.366 . S
C1525 H1533 0.930 . S
C1526 N1524 1.325 1_545 S
C1526 C1527 1.416 . S
C1526 H1532 0.929 1_545 S
C1527 C1525 1.366 . S
C1527 C1526 1.416 . S
C1527 H1529 0.930 . S
H1528 C1517 0.930 . S
H1529 C1527 0.930 . S
H1530 C1545 0.930 . S
H1531 C1552 0.930 . S
H1532 C1526 0.929 1_565 S
H1533 C1525 0.930 . S
H1534 C1548 0.929 . S
H1535 C1515 0.931 . S
H1536 C1521 0.931 . S
H1537 C1522 0.931 . S
H1538 C1543 0.931 . S
H1539 C1518 0.929 1_545 S
H1540 C1551 0.930 . S
N1541 Eu1512 2.600 . S
N1541 C1542 1.365 . S
N1541 C1545 1.319 . S
C1542 N1541 1.365 . S
C1542 C1544 1.405 . S
C1542 C1550 1.448 . S
C1543 H1538 0.931 . S
C1543 C1545 1.397 . S
C1543 C1546 1.367 . S
C1544 C1542 1.405 . S
C1544 C1546 1.403 . S
C1544 C1577 1.439 . S
C1545 H1530 0.930 . S
C1545 N1541 1.319 . S
C1545 C1543 1.397 . S
C1546 C1543 1.367 . S
C1546 C1544 1.403 . S
C1546 H1553 0.929 . S
N1547 Eu1512 2.562 . S
N1547 C1548 1.325 . S
N1547 C1550 1.351 . S
C1548 H1534 0.929 . S
C1548 N1547 1.325 . S
C1548 C1552 1.416 . S
C1549 C1550 1.430 . S
C1549 C1551 1.404 . S
C1549 C1578 1.387 . S
C1550 C1542 1.448 . S
C1550 N1547 1.351 . S
C1550 C1549 1.430 . S
C1551 H1540 0.930 . S
C1551 C1549 1.404 . S
C1551 C1552 1.366 . S
C1552 H1531 0.930 . S
C1552 C1548 1.416 . S
C1552 C1551 1.366 . S
H1553 C1546 0.929 . S
H1554 C1577 0.931 . S
H1555 C1578 0.931 . S
O1556 Eu1512 2.462 . S
O1556 C1576 1.252 . S
O1557 Eu1512 2.373 . S
O1557 C1568 1.249 . S
O1558 Eu1523 2.335 . S
O1558 C1568 1.264 . S
O1559 Eu1512 2.432 . S
O1559 C1576 1.268 . S
O1560 Eu1512 2.291 . S
O1560 C1575 1.255 . S
O1561 Eu1523 2.372 . S
O1561 C1575 1.257 . S
O1562 Eu1523 2.462 . S
O1562 C1587 1.252 . S
O1563 Eu1523 2.373 . S
O1563 C1579 1.249 . S
O1564 Eu1512 2.335 . S
O1564 C1579 1.264 . S
O1565 Eu1523 2.432 . S
O1565 C1587 1.268 . S
O1566 Eu1523 2.291 . S
O1566 C1586 1.255 . S
O1567 Eu1512 2.372 . S
O1567 C1586 1.257 . S
C1568 O1557 1.249 . S
C1568 O1558 1.264 . S
C1569 C1572 1.382 . S
C1569 C1574 1.390 . S
C1569 C1576 1.506 . S
C1570 C1571 1.398 . S
C1570 C1574 1.392 1_556 S
C1571 C1570 1.398 . S
C1571 C1573 1.372 . S
C1571 H1588 0.931 . S
C1572 C1569 1.382 . S
C1572 C1573 1.390 1_554 S
C1572 H1589 0.931 . S
C1573 C1571 1.372 . S
C1573 C1572 1.390 1_556 S
C1573 H1590 0.929 . S
C1574 C1569 1.390 . S
C1574 C1570 1.392 1_554 S
C1574 H1591 0.930 . S
C1575 O1560 1.255 . S
C1575 O1561 1.257 . S
C1576 Eu1512 2.787 . S
C1576 O1556 1.252 . S
C1576 O1559 1.268 . S
C1576 C1569 1.506 . S
C1577 C1544 1.439 . S
C1577 H1554 0.931 . S
C1577 C1578 1.374 . S
C1578 C1549 1.387 . S
C1578 H1555 0.931 . S
C1578 C1577 1.374 . S
C1579 O1563 1.249 . S
C1579 O1564 1.264 . S
C1580 C1583 1.382 . S
C1580 C1584 1.390 . S
C1580 C1587 1.506 . S
C1581 C1582 1.398 . S
C1581 C1584 1.392 . S
C1582 C1581 1.398 . S
C1582 C1585 1.372 . S
C1582 H1592 0.931 1_565 S
C1583 C1580 1.382 . S
C1583 C1585 1.390 . S
C1583 H1593 0.931 . S
C1584 C1580 1.390 . S
C1584 C1581 1.392 . S
C1584 H1594 0.930 . S
C1585 C1582 1.372 . S
C1585 C1583 1.390 . S
C1585 H1595 0.929 . S
C1586 O1566 1.255 . S
C1586 O1567 1.257 . S
C1587 Eu1523 2.787 . S
C1587 O1562 1.252 . S
C1587 O1565 1.268 . S
C1587 C1580 1.506 . S
H1588 C1571 0.931 . S
H1589 C1572 0.931 . S
H1590 C1573 0.929 . S
H1591 C1574 0.930 . S
H1592 C1582 0.931 1_545 S
H1593 C1583 0.931 . S
H1594 C1584 0.930 . S
H1595 C1585 0.929 . S
Eu1596 N1625 2.600 . S
Eu1596 N1631 2.562 . S
Eu1596 O1640 2.462 . S
Eu1596 O1641 2.373 . S
Eu1596 O1643 2.432 . S
Eu1596 O1644 2.291 . S
Eu1596 O1648 2.335 . S
Eu1596 O1651 2.372 . S
Eu1596 C1660 2.787 . S
C1597 N1598 1.365 . S
C1597 C1600 1.405 1_455 S
C1597 C1604 1.448 1_455 S
N1598 C1597 1.365 . S
N1598 C1601 1.319 . S
N1598 Eu1607 2.600 . S
C1599 C1601 1.397 . S
C1599 C1602 1.367 . S
C1599 H1619 0.931 . S
C1600 C1597 1.405 1_655 S
C1600 C1602 1.403 1_655 S
C1600 C1606 1.439 . S
C1601 N1598 1.319 . S
C1601 C1599 1.397 . S
C1601 H1612 0.930 . S
C1602 C1599 1.367 . S
C1602 C1600 1.403 1_455 S
C1602 H1623 0.929 1_455 S
C1603 C1604 1.430 . S
C1603 C1605 1.387 . S
C1603 C1609 1.404 . S
C1604 C1597 1.448 1_655 S
C1604 C1603 1.430 . S
C1604 N1608 1.351 1_655 S
C1605 C1603 1.387 . S
C1605 C1606 1.374 . S
C1605 H1620 0.931 . S
C1606 C1600 1.439 . S
C1606 C1605 1.374 . S
C1606 H1621 0.931 . S
Eu1607 N1598 2.600 . S
Eu1607 N1608 2.562 . S
Eu1607 O1642 2.335 . S
Eu1607 O1645 2.372 . S
Eu1607 O1646 2.462 . S
Eu1607 O1647 2.373 . S
Eu1607 O1649 2.432 . S
Eu1607 O1650 2.291 . S
Eu1607 C1671 2.787 . S
N1608 C1604 1.351 1_455 S
N1608 Eu1607 2.562 . S
N1608 C1610 1.325 1_455 S
C1609 C1603 1.404 . S
C1609 C1611 1.366 . S
C1609 H1617 0.930 . S
C1610 N1608 1.325 1_655 S
C1610 C1611 1.416 . S
C1610 H1616 0.929 1_655 S
C1611 C1609 1.366 . S
C1611 C1610 1.416 . S
C1611 H1613 0.930 . S
H1612 C1601 0.930 . S
H1613 C1611 0.930 . S
H1614 C1629 0.930 . S
H1615 C1636 0.930 . S
H1616 C1610 0.929 1_455 S
H1617 C1609 0.930 . S
H1618 C1632 0.929 . S
H1619 C1599 0.931 . S
H1620 C1605 0.931 . S
H1621 C1606 0.931 . S
H1622 C1627 0.931 . S
H1623 C1602 0.929 1_655 S
H1624 C1635 0.930 . S
N1625 Eu1596 2.600 . S
N1625 C1626 1.365 . S
N1625 C1629 1.319 . S
C1626 N1625 1.365 . S
C1626 C1628 1.405 . S
C1626 C1634 1.448 . S
C1627 H1622 0.931 . S
C1627 C1629 1.397 . S
C1627 C1630 1.367 . S
C1628 C1626 1.405 . S
C1628 C1630 1.403 . S
C1628 C1661 1.439 . S
C1629 H1614 0.930 . S
C1629 N1625 1.319 . S
C1629 C1627 1.397 . S
C1630 C1627 1.367 . S
C1630 C1628 1.403 . S
C1630 H1637 0.929 . S
N1631 Eu1596 2.562 . S
N1631 C1632 1.325 . S
N1631 C1634 1.351 . S
C1632 H1618 0.929 . S
C1632 N1631 1.325 . S
C1632 C1636 1.416 . S
C1633 C1634 1.430 . S
C1633 C1635 1.404 . S
C1633 C1662 1.387 . S
C1634 C1626 1.448 . S
C1634 N1631 1.351 . S
C1634 C1633 1.430 . S
C1635 H1624 0.930 . S
C1635 C1633 1.404 . S
C1635 C1636 1.366 . S
C1636 H1615 0.930 . S
C1636 C1632 1.416 . S
C1636 C1635 1.366 . S
H1637 C1630 0.929 . S
H1638 C1661 0.931 . S
H1639 C1662 0.931 . S
O1640 Eu1596 2.462 . S
O1640 C1660 1.252 . S
O1641 Eu1596 2.373 . S
O1641 C1652 1.249 . S
O1642 Eu1607 2.335 . S
O1642 C1652 1.264 . S
O1643 Eu1596 2.432 . S
O1643 C1660 1.268 . S
O1644 Eu1596 2.291 . S
O1644 C1659 1.255 . S
O1645 Eu1607 2.372 . S
O1645 C1659 1.257 . S
O1646 Eu1607 2.462 . S
O1646 C1671 1.252 . S
O1647 Eu1607 2.373 . S
O1647 C1663 1.249 . S
O1648 Eu1596 2.335 . S
O1648 C1663 1.264 . S
O1649 Eu1607 2.432 . S
O1649 C1671 1.268 . S
O1650 Eu1607 2.291 . S
O1650 C1670 1.255 . S
O1651 Eu1596 2.372 . S
O1651 C1670 1.257 . S
C1652 O1641 1.249 . S
C1652 O1642 1.264 . S
C1653 C1656 1.382 . S
C1653 C1658 1.390 . S
C1653 C1660 1.506 . S
C1654 C1655 1.398 . S
C1654 C1658 1.392 1_556 S
C1655 C1654 1.398 . S
C1655 C1657 1.372 . S
C1655 H1672 0.931 . S
C1656 C1653 1.382 . S
C1656 C1657 1.390 1_554 S
C1656 H1673 0.931 . S
C1657 C1655 1.372 . S
C1657 C1656 1.390 1_556 S
C1657 H1674 0.929 . S
C1658 C1653 1.390 . S
C1658 C1654 1.392 1_554 S
C1658 H1675 0.930 . S
C1659 O1644 1.255 . S
C1659 O1645 1.257 . S
C1660 Eu1596 2.787 . S
C1660 O1640 1.252 . S
C1660 O1643 1.268 . S
C1660 C1653 1.506 . S
C1661 C1628 1.439 . S
C1661 H1638 0.931 . S
C1661 C1662 1.374 . S
C1662 C1633 1.387 . S
C1662 H1639 0.931 . S
C1662 C1661 1.374 . S
C1663 O1647 1.249 . S
C1663 O1648 1.264 . S
C1664 C1667 1.382 . S
C1664 C1668 1.390 . S
C1664 C1671 1.506 . S
C1665 C1666 1.398 . S
C1665 C1668 1.392 . S
C1666 C1665 1.398 . S
C1666 C1669 1.372 . S
C1666 H1676 0.931 1_455 S
C1667 C1664 1.382 . S
C1667 C1669 1.390 . S
C1667 H1677 0.931 . S
C1668 C1664 1.390 . S
C1668 C1665 1.392 . S
C1668 H1678 0.930 . S
C1669 C1666 1.372 . S
C1669 C1667 1.390 . S
C1669 H1679 0.929 . S
C1670 O1650 1.255 . S
C1670 O1651 1.257 . S
C1671 Eu1607 2.787 . S
C1671 O1646 1.252 . S
C1671 O1649 1.268 . S
C1671 C1664 1.506 . S
H1672 C1655 0.931 . S
H1673 C1656 0.931 . S
H1674 C1657 0.929 . S
H1675 C1658 0.930 . S
H1676 C1666 0.931 1_655 S
H1677 C1667 0.931 . S
H1678 C1668 0.930 . S
H1679 C1669 0.929 . S
Eu1680 N1709 2.600 . S
Eu1680 N1715 2.562 . S
Eu1680 O1724 2.462 . S
Eu1680 O1725 2.373 . S
Eu1680 O1727 2.432 . S
Eu1680 O1728 2.291 . S
Eu1680 O1732 2.335 . S
Eu1680 O1735 2.372 . S
Eu1680 C1744 2.787 . S
C1681 N1682 1.365 . S
C1681 C1684 1.405 . S
C1681 C1688 1.448 . S
N1682 C1681 1.365 . S
N1682 C1685 1.319 . S
N1682 Eu1691 2.600 . S
C1683 C1685 1.397 . S
C1683 C1686 1.367 . S
C1683 H1703 0.931 . S
C1684 C1681 1.405 . S
C1684 C1686 1.403 . S
C1684 C1690 1.439 . S
C1685 N1682 1.319 . S
C1685 C1683 1.397 . S
C1685 H1696 0.930 . S
C1686 C1683 1.367 . S
C1686 C1684 1.403 . S
C1686 H1707 0.929 . S
C1687 C1688 1.430 . S
C1687 C1689 1.387 . S
C1687 C1693 1.404 . S
C1688 C1681 1.448 . S
C1688 C1687 1.430 . S
C1688 N1692 1.351 . S
C1689 C1687 1.387 . S
C1689 C1690 1.374 . S
C1689 H1704 0.931 . S
C1690 C1684 1.439 . S
C1690 C1689 1.374 . S
C1690 H1705 0.931 . S
Eu1691 N1682 2.600 . S
Eu1691 N1692 2.562 . S
Eu1691 O1726 2.335 . S
Eu1691 O1729 2.372 . S
Eu1691 O1730 2.462 . S
Eu1691 O1731 2.373 . S
Eu1691 O1733 2.432 . S
Eu1691 O1734 2.291 . S
Eu1691 C1755 2.787 . S
N1692 C1688 1.351 . S
N1692 Eu1691 2.562 . S
N1692 C1694 1.325 . S
C1693 C1687 1.404 . S
C1693 C1695 1.366 . S
C1693 H1701 0.930 . S
C1694 N1692 1.325 . S
C1694 C1695 1.416 . S
C1694 H1700 0.929 . S
C1695 C1693 1.366 . S
C1695 C1694 1.416 . S
C1695 H1697 0.930 . S
H1696 C1685 0.930 . S
H1697 C1695 0.930 . S
H1698 C1713 0.930 . S
H1699 C1720 0.930 . S
H1700 C1694 0.929 . S
H1701 C1693 0.930 . S
H1702 C1716 0.929 . S
H1703 C1683 0.931 . S
H1704 C1689 0.931 . S
H1705 C1690 0.931 . S
H1706 C1711 0.931 . S
H1707 C1686 0.929 . S
H1708 C1719 0.930 . S
N1709 Eu1680 2.600 . S
N1709 C1710 1.365 . S
N1709 C1713 1.319 . S
C1710 N1709 1.365 . S
C1710 C1712 1.405 . S
C1710 C1718 1.448 . S
C1711 H1706 0.931 . S
C1711 C1713 1.397 . S
C1711 C1714 1.367 . S
C1712 C1710 1.405 . S
C1712 C1714 1.403 . S
C1712 C1745 1.439 . S
C1713 H1698 0.930 . S
C1713 N1709 1.319 . S
C1713 C1711 1.397 . S
C1714 C1711 1.367 . S
C1714 C1712 1.403 . S
C1714 H1721 0.929 . S
N1715 Eu1680 2.562 . S
N1715 C1716 1.325 . S
N1715 C1718 1.351 . S
C1716 H1702 0.929 . S
C1716 N1715 1.325 . S
C1716 C1720 1.416 . S
C1717 C1718 1.430 . S
C1717 C1719 1.404 . S
C1717 C1746 1.387 . S
C1718 C1710 1.448 . S
C1718 N1715 1.351 . S
C1718 C1717 1.430 . S
C1719 H1708 0.930 . S
C1719 C1717 1.404 . S
C1719 C1720 1.366 . S
C1720 H1699 0.930 . S
C1720 C1716 1.416 . S
C1720 C1719 1.366 . S
H1721 C1714 0.929 . S
H1722 C1745 0.931 . S
H1723 C1746 0.931 . S
O1724 Eu1680 2.462 . S
O1724 C1744 1.252 . S
O1725 Eu1680 2.373 . S
O1725 C1736 1.249 . S
O1726 Eu1691 2.335 . S
O1726 C1736 1.264 . S
O1727 Eu1680 2.432 . S
O1727 C1744 1.268 . S
O1728 Eu1680 2.291 . S
O1728 C1743 1.255 . S
O1729 Eu1691 2.372 . S
O1729 C1743 1.257 . S
O1730 Eu1691 2.462 . S
O1730 C1755 1.252 . S
O1731 Eu1691 2.373 . S
O1731 C1747 1.249 . S
O1732 Eu1680 2.335 . S
O1732 C1747 1.264 . S
O1733 Eu1691 2.432 . S
O1733 C1755 1.268 . S
O1734 Eu1691 2.291 . S
O1734 C1754 1.255 . S
O1735 Eu1680 2.372 . S
O1735 C1754 1.257 . S
C1736 O1725 1.249 . S
C1736 O1726 1.264 . S
C1737 C1740 1.382 . S
C1737 C1742 1.390 . S
C1737 C1744 1.506 . S
C1738 C1739 1.398 . S
C1738 C1742 1.392 1_556 S
C1739 C1738 1.398 . S
C1739 C1741 1.372 . S
C1739 H1756 0.931 . S
C1740 C1737 1.382 . S
C1740 C1741 1.390 1_554 S
C1740 H1757 0.931 . S
C1741 C1739 1.372 . S
C1741 C1740 1.390 1_556 S
C1741 H1758 0.929 . S
C1742 C1737 1.390 . S
C1742 C1738 1.392 1_554 S
C1742 H1759 0.930 . S
C1743 O1728 1.255 . S
C1743 O1729 1.257 . S
C1744 Eu1680 2.787 . S
C1744 O1724 1.252 . S
C1744 O1727 1.268 . S
C1744 C1737 1.506 . S
C1745 C1712 1.439 . S
C1745 H1722 0.931 . S
C1745 C1746 1.374 . S
C1746 C1717 1.387 . S
C1746 H1723 0.931 . S
C1746 C1745 1.374 . S
C1747 O1731 1.249 . S
C1747 O1732 1.264 . S
C1748 C1751 1.382 . S
C1748 C1752 1.390 . S
C1748 C1755 1.506 . S
C1749 C1750 1.398 . S
C1749 C1752 1.392 . S
C1750 C1749 1.398 . S
C1750 C1753 1.372 . S
C1750 H1760 0.931 . S
C1751 C1748 1.382 . S
C1751 C1753 1.390 . S
C1751 H1761 0.931 . S
C1752 C1748 1.390 . S
C1752 C1749 1.392 . S
C1752 H1762 0.930 . S
C1753 C1750 1.372 . S
C1753 C1751 1.390 . S
C1753 H1763 0.929 . S
C1754 O1734 1.255 . S
C1754 O1735 1.257 . S
C1755 Eu1691 2.787 . S
C1755 O1730 1.252 . S
C1755 O1733 1.268 . S
C1755 C1748 1.506 . S
H1756 C1739 0.931 . S
H1757 C1740 0.931 . S
H1758 C1741 0.929 . S
H1759 C1742 0.930 . S
H1760 C1750 0.931 . S
H1761 C1751 0.931 . S
H1762 C1752 0.930 . S
H1763 C1753 0.929 . S
Eu1764 N1793 2.600 1_554 S
Eu1764 N1799 2.562 1_554 S
Eu1764 O1808 2.462 . S
Eu1764 O1809 2.373 1_554 S
Eu1764 O1811 2.432 . S
Eu1764 O1812 2.291 1_554 S
Eu1764 O1816 2.335 . S
Eu1764 O1819 2.372 1_554 S
Eu1764 C1828 2.787 . S
C1765 N1766 1.365 . S
C1765 C1768 1.405 . S
C1765 C1772 1.448 . S
N1766 C1765 1.365 . S
N1766 C1769 1.319 . S
N1766 Eu1775 2.600 . S
C1767 C1769 1.397 . S
C1767 C1770 1.367 . S
C1767 H1787 0.931 . S
C1768 C1765 1.405 . S
C1768 C1770 1.403 . S
C1768 C1774 1.439 1_556 S
C1769 N1766 1.319 . S
C1769 C1767 1.397 . S
C1769 H1780 0.930 . S
C1770 C1767 1.367 . S
C1770 C1768 1.403 . S
C1770 H1791 0.929 1_556 S
C1771 C1772 1.430 . S
C1771 C1773 1.387 1_556 S
C1771 C1777 1.404 . S
C1772 C1765 1.448 . S
C1772 C1771 1.430 . S
C1772 N1776 1.351 . S
C1773 C1771 1.387 1_554 S
C1773 C1774 1.374 . S
C1773 H1788 0.931 . S
C1774 C1768 1.439 1_554 S
C1774 C1773 1.374 . S
C1774 H1789 0.931 . S
Eu1775 N1766 2.600 . S
Eu1775 N1776 2.562 . S
Eu1775 O1810 2.335 . S
Eu1775 O1813 2.372 . S
Eu1775 O1814 2.462 . S
Eu1775 O1815 2.373 1_556 S
Eu1775 O1817 2.432 . S
Eu1775 O1818 2.291 . S
Eu1775 C1839 2.787 . S
N1776 C1772 1.351 . S
N1776 Eu1775 2.562 . S
N1776 C1778 1.325 . S
C1777 C1771 1.404 . S
C1777 C1779 1.366 . S
C1777 H1785 0.930 . S
C1778 N1776 1.325 . S
C1778 C1779 1.416 . S
C1778 H1784 0.929 . S
C1779 C1777 1.366 . S
C1779 C1778 1.416 . S
C1779 H1781 0.930 . S
H1780 C1769 0.930 . S
H1781 C1779 0.930 . S
H1782 C1797 0.930 . S
H1783 C1804 0.930 . S
H1784 C1778 0.929 . S
H1785 C1777 0.930 . S
H1786 C1800 0.929 1_554 S
H1787 C1767 0.931 . S
H1788 C1773 0.931 . S
H1789 C1774 0.931 . S
H1790 C1795 0.931 . S
H1791 C1770 0.929 1_554 S
H1792 C1803 0.930 1_655 S
N1793 Eu1764 2.600 1_556 S
N1793 C1794 1.365 . S
N1793 C1797 1.319 . S
C1794 N1793 1.365 . S
C1794 C1796 1.405 . S
C1794 C1802 1.448 . S
C1795 H1790 0.931 . S
C1795 C1797 1.397 . S
C1795 C1798 1.367 . S
C1796 C1794 1.405 . S
C1796 C1798 1.403 . S
C1796 C1829 1.439 . S
C1797 H1782 0.930 . S
C1797 N1793 1.319 . S
C1797 C1795 1.397 . S
C1798 C1795 1.367 . S
C1798 C1796 1.403 . S
C1798 H1805 0.929 . S
N1799 Eu1764 2.562 1_556 S
N1799 C1800 1.325 . S
N1799 C1802 1.351 . S
C1800 H1786 0.929 1_556 S
C1800 N1799 1.325 . S
C1800 C1804 1.416 . S
C1801 C1802 1.430 . S
C1801 C1803 1.404 . S
C1801 C1830 1.387 . S
C1802 C1794 1.448 . S
C1802 N1799 1.351 . S
C1802 C1801 1.430 . S
C1803 H1792 0.930 1_455 S
C1803 C1801 1.404 . S
C1803 C1804 1.366 . S
C1804 H1783 0.930 . S
C1804 C1800 1.416 . S
C1804 C1803 1.366 . S
H1805 C1798 0.929 . S
H1806 C1829 0.931 . S
H1807 C1830 0.931 1_655 S
O1808 Eu1764 2.462 . S
O1808 C1828 1.252 . S
O1809 Eu1764 2.373 1_556 S
O1809 C1820 1.249 . S
O1810 Eu1775 2.335 . S
O1810 C1820 1.264 . S
O1811 Eu1764 2.432 . S
O1811 C1828 1.268 . S
O1812 Eu1764 2.291 1_556 S
O1812 C1827 1.255 . S
O1813 Eu1775 2.372 . S
O1813 C1827 1.257 . S
O1814 Eu1775 2.462 . S
O1814 C1839 1.252 . S
O1815 Eu1775 2.373 1_554 S
O1815 C1831 1.249 . S
O1816 Eu1764 2.335 . S
O1816 C1831 1.264 . S
O1817 Eu1775 2.432 . S
O1817 C1839 1.268 . S
O1818 Eu1775 2.291 . S
O1818 C1838 1.255 . S
O1819 Eu1764 2.372 1_556 S
O1819 C1838 1.257 . S
C1820 O1809 1.249 . S
C1820 O1810 1.264 . S
C1821 C1824 1.382 . S
C1821 C1826 1.390 . S
C1821 C1828 1.506 . S
C1822 C1823 1.398 . S
C1822 C1826 1.392 . S
C1823 C1822 1.398 . S
C1823 C1825 1.372 . S
C1823 H1840 0.931 . S
C1824 C1821 1.382 . S
C1824 C1825 1.390 . S
C1824 H1841 0.931 . S
C1825 C1823 1.372 . S
C1825 C1824 1.390 . S
C1825 H1842 0.929 . S
C1826 C1821 1.390 . S
C1826 C1822 1.392 . S
C1826 H1843 0.930 . S
C1827 O1812 1.255 . S
C1827 O1813 1.257 . S
C1828 Eu1764 2.787 . S
C1828 O1808 1.252 . S
C1828 O1811 1.268 . S
C1828 C1821 1.506 . S
C1829 C1796 1.439 . S
C1829 H1806 0.931 . S
C1829 C1830 1.374 . S
C1830 C1801 1.387 . S
C1830 H1807 0.931 1_455 S
C1830 C1829 1.374 . S
C1831 O1815 1.249 . S
C1831 O1816 1.264 . S
C1832 C1835 1.382 . S
C1832 C1836 1.390 . S
C1832 C1839 1.506 . S
C1833 C1834 1.398 . S
C1833 C1836 1.392 . S
C1834 C1833 1.398 . S
C1834 C1837 1.372 . S
C1834 H1844 0.931 . S
C1835 C1832 1.382 . S
C1835 C1837 1.390 . S
C1835 H1845 0.931 . S
C1836 C1832 1.390 . S
C1836 C1833 1.392 . S
C1836 H1846 0.930 . S
C1837 C1834 1.372 . S
C1837 C1835 1.390 . S
C1837 H1847 0.929 . S
C1838 O1818 1.255 . S
C1838 O1819 1.257 . S
C1839 Eu1775 2.787 . S
C1839 O1814 1.252 . S
C1839 O1817 1.268 . S
C1839 C1832 1.506 . S
H1840 C1823 0.931 . S
H1841 C1824 0.931 . S
H1842 C1825 0.929 . S
H1843 C1826 0.930 . S
H1844 C1834 0.931 . S
H1845 C1835 0.931 . S
H1846 C1836 0.930 . S
H1847 C1837 0.929 . S
Eu1848 N1877 2.600 1_554 S
Eu1848 N1883 2.562 1_554 S
Eu1848 O1892 2.462 . S
Eu1848 O1893 2.373 1_554 S
Eu1848 O1895 2.432 . S
Eu1848 O1896 2.291 1_554 S
Eu1848 O1900 2.335 . S
Eu1848 O1903 2.372 1_564 S
Eu1848 C1912 2.787 . S
C1849 N1850 1.365 . S
C1849 C1852 1.405 . S
C1849 C1856 1.448 . S
N1850 C1849 1.365 . S
N1850 C1853 1.319 . S
N1850 Eu1859 2.600 . S
C1851 C1853 1.397 . S
C1851 C1854 1.367 . S
C1851 H1871 0.931 . S
C1852 C1849 1.405 . S
C1852 C1854 1.403 . S
C1852 C1858 1.439 1_556 S
C1853 N1850 1.319 . S
C1853 C1851 1.397 . S
C1853 H1864 0.930 . S
C1854 C1851 1.367 . S
C1854 C1852 1.403 . S
C1854 H1875 0.929 1_556 S
C1855 C1856 1.430 . S
C1855 C1857 1.387 1_556 S
C1855 C1861 1.404 1_565 S
C1856 C1849 1.448 . S
C1856 C1855 1.430 . S
C1856 N1860 1.351 . S
C1857 C1855 1.387 1_554 S
C1857 C1858 1.374 . S
C1857 H1872 0.931 . S
C1858 C1852 1.439 1_554 S
C1858 C1857 1.374 . S
C1858 H1873 0.931 . S
Eu1859 N1850 2.600 . S
Eu1859 N1860 2.562 . S
Eu1859 O1894 2.335 . S
Eu1859 O1897 2.372 . S
Eu1859 O1898 2.462 . S
Eu1859 O1899 2.373 1_556 S
Eu1859 O1901 2.432 . S
Eu1859 O1902 2.291 . S
Eu1859 C1923 2.787 . S
N1860 C1856 1.351 . S
N1860 Eu1859 2.562 . S
N1860 C1862 1.325 1_565 S
C1861 C1855 1.404 1_545 S
C1861 C1863 1.366 . S
C1861 H1869 0.930 . S
C1862 N1860 1.325 1_545 S
C1862 C1863 1.416 . S
C1862 H1868 0.929 . S
C1863 C1861 1.366 . S
C1863 C1862 1.416 . S
C1863 H1865 0.930 . S
H1864 C1853 0.930 . S
H1865 C1863 0.930 . S
H1866 C1881 0.930 . S
H1867 C1888 0.930 . S
H1868 C1862 0.929 . S
H1869 C1861 0.930 . S
H1870 C1884 0.929 1_554 S
H1871 C1851 0.931 . S
H1872 C1857 0.931 . S
H1873 C1858 0.931 . S
H1874 C1879 0.931 . S
H1875 C1854 0.929 1_554 S
H1876 C1887 0.930 . S
N1877 Eu1848 2.600 1_556 S
N1877 C1878 1.365 . S
N1877 C1881 1.319 1_565 S
C1878 N1877 1.365 . S
C1878 C1880 1.405 . S
C1878 C1886 1.448 . S
C1879 H1874 0.931 . S
C1879 C1881 1.397 . S
C1879 C1882 1.367 . S
C1880 C1878 1.405 . S
C1880 C1882 1.403 1_565 S
C1880 C1913 1.439 . S
C1881 H1866 0.930 . S
C1881 N1877 1.319 1_545 S
C1881 C1879 1.397 . S
C1882 C1879 1.367 . S
C1882 C1880 1.403 1_545 S
C1882 H1889 0.929 . S
N1883 Eu1848 2.562 1_556 S
N1883 C1884 1.325 . S
N1883 C1886 1.351 . S
C1884 H1870 0.929 1_556 S
C1884 N1883 1.325 . S
C1884 C1888 1.416 . S
C1885 C1886 1.430 . S
C1885 C1887 1.404 . S
C1885 C1914 1.387 . S
C1886 C1878 1.448 . S
C1886 N1883 1.351 . S
C1886 C1885 1.430 . S
C1887 H1876 0.930 . S
C1887 C1885 1.404 . S
C1887 C1888 1.366 . S
C1888 H1867 0.930 . S
C1888 C1884 1.416 . S
C1888 C1887 1.366 . S
H1889 C1882 0.929 . S
H1890 C1913 0.931 . S
H1891 C1914 0.931 . S
O1892 Eu1848 2.462 . S
O1892 C1912 1.252 . S
O1893 Eu1848 2.373 1_556 S
O1893 C1904 1.249 . S
O1894 Eu1859 2.335 . S
O1894 C1904 1.264 . S
O1895 Eu1848 2.432 . S
O1895 C1912 1.268 . S
O1896 Eu1848 2.291 1_556 S
O1896 C1911 1.255 . S
O1897 Eu1859 2.372 . S
O1897 C1911 1.257 . S
O1898 Eu1859 2.462 . S
O1898 C1923 1.252 . S
O1899 Eu1859 2.373 1_554 S
O1899 C1915 1.249 . S
O1900 Eu1848 2.335 . S
O1900 C1915 1.264 . S
O1901 Eu1859 2.432 . S
O1901 C1923 1.268 . S
O1902 Eu1859 2.291 . S
O1902 C1922 1.255 1_565 S
O1903 Eu1848 2.372 1_546 S
O1903 C1922 1.257 . S
C1904 O1893 1.249 . S
C1904 O1894 1.264 . S
C1905 C1908 1.382 . S
C1905 C1910 1.390 . S
C1905 C1912 1.506 . S
C1906 C1907 1.398 . S
C1906 C1910 1.392 . S
C1907 C1906 1.398 . S
C1907 C1909 1.372 . S
C1907 H1924 0.931 . S
C1908 C1905 1.382 . S
C1908 C1909 1.390 . S
C1908 H1925 0.931 . S
C1909 C1907 1.372 . S
C1909 C1908 1.390 . S
C1909 H1926 0.929 . S
C1910 C1905 1.390 . S
C1910 C1906 1.392 . S
C1910 H1927 0.930 . S
C1911 O1896 1.255 . S
C1911 O1897 1.257 . S
C1912 Eu1848 2.787 . S
C1912 O1892 1.252 . S
C1912 O1895 1.268 . S
C1912 C1905 1.506 . S
C1913 C1880 1.439 . S
C1913 H1890 0.931 . S
C1913 C1914 1.374 . S
C1914 C1885 1.387 . S
C1914 H1891 0.931 . S
C1914 C1913 1.374 . S
C1915 O1899 1.249 . S
C1915 O1900 1.264 . S
C1916 C1919 1.382 . S
C1916 C1920 1.390 . S
C1916 C1923 1.506 . S
C1917 C1918 1.398 . S
C1917 C1920 1.392 . S
C1918 C1917 1.398 . S
C1918 C1921 1.372 . S
C1918 H1928 0.931 . S
C1919 C1916 1.382 . S
C1919 C1921 1.390 . S
C1919 H1929 0.931 . S
C1920 C1916 1.390 . S
C1920 C1917 1.392 . S
C1920 H1930 0.930 . S
C1921 C1918 1.372 . S
C1921 C1919 1.390 . S
C1921 H1931 0.929 . S
C1922 O1902 1.255 1_545 S
C1922 O1903 1.257 . S
C1923 Eu1859 2.787 . S
C1923 O1898 1.252 . S
C1923 O1901 1.268 . S
C1923 C1916 1.506 . S
H1924 C1907 0.931 . S
H1925 C1908 0.931 . S
H1926 C1909 0.929 . S
H1927 C1910 0.930 . S
H1928 C1918 0.931 . S
H1929 C1919 0.931 . S
H1930 C1920 0.930 . S
H1931 C1921 0.929 . S
Eu1932 N1961 2.600 1_554 S
Eu1932 N1967 2.562 1_554 S
Eu1932 O1976 2.462 . S
Eu1932 O1977 2.373 1_554 S
Eu1932 O1979 2.432 . S
Eu1932 O1980 2.291 1_554 S
Eu1932 O1984 2.335 . S
Eu1932 O1987 2.372 1_454 S
Eu1932 C1996 2.787 . S
C1933 N1934 1.365 . S
C1933 C1936 1.405 . S
C1933 C1940 1.448 . S
N1934 C1933 1.365 . S
N1934 C1937 1.319 . S
N1934 Eu1943 2.600 . S
C1935 C1937 1.397 . S
C1935 C1938 1.367 . S
C1935 H1955 0.931 . S
C1936 C1933 1.405 . S
C1936 C1938 1.403 . S
C1936 C1942 1.439 1_556 S
C1937 N1934 1.319 . S
C1937 C1935 1.397 . S
C1937 H1948 0.930 . S
C1938 C1935 1.367 . S
C1938 C1936 1.403 . S
C1938 H1959 0.929 1_556 S
C1939 C1940 1.430 . S
C1939 C1941 1.387 1_556 S
C1939 C1945 1.404 1_455 S
C1940 C1933 1.448 . S
C1940 C1939 1.430 . S
C1940 N1944 1.351 . S
C1941 C1939 1.387 1_554 S
C1941 C1942 1.374 . S
C1941 H1956 0.931 . S
C1942 C1936 1.439 1_554 S
C1942 C1941 1.374 . S
C1942 H1957 0.931 . S
Eu1943 N1934 2.600 . S
Eu1943 N1944 2.562 . S
Eu1943 O1978 2.335 . S
Eu1943 O1981 2.372 . S
Eu1943 O1982 2.462 . S
Eu1943 O1983 2.373 1_556 S
Eu1943 O1985 2.432 . S
Eu1943 O1986 2.291 . S
Eu1943 C2007 2.787 . S
N1944 C1940 1.351 . S
N1944 Eu1943 2.562 . S
N1944 C1946 1.325 1_455 S
C1945 C1939 1.404 1_655 S
C1945 C1947 1.366 . S
C1945 H1953 0.930 . S
C1946 N1944 1.325 1_655 S
C1946 C1947 1.416 . S
C1946 H1952 0.929 . S
C1947 C1945 1.366 . S
C1947 C1946 1.416 . S
C1947 H1949 0.930 . S
H1948 C1937 0.930 . S
H1949 C1947 0.930 . S
H1950 C1965 0.930 . S
H1951 C1972 0.930 . S
H1952 C1946 0.929 . S
H1953 C1945 0.930 . S
H1954 C1968 0.929 1_554 S
H1955 C1935 0.931 . S
H1956 C1941 0.931 . S
H1957 C1942 0.931 . S
H1958 C1963 0.931 . S
H1959 C1938 0.929 1_554 S
H1960 C1971 0.930 1_545 S
N1961 Eu1932 2.600 1_556 S
N1961 C1962 1.365 . S
N1961 C1965 1.319 1_455 S
C1962 N1961 1.365 . S
C1962 C1964 1.405 . S
C1962 C1970 1.448 . S
C1963 H1958 0.931 . S
C1963 C1965 1.397 . S
C1963 C1966 1.367 . S
C1964 C1962 1.405 . S
C1964 C1966 1.403 1_455 S
C1964 C1997 1.439 . S
C1965 H1950 0.930 . S
C1965 N1961 1.319 1_655 S
C1965 C1963 1.397 . S
C1966 C1963 1.367 . S
C1966 C1964 1.403 1_655 S
C1966 H1973 0.929 . S
N1967 Eu1932 2.562 1_556 S
N1967 C1968 1.325 . S
N1967 C1970 1.351 . S
C1968 H1954 0.929 1_556 S
C1968 N1967 1.325 . S
C1968 C1972 1.416 . S
C1969 C1970 1.430 . S
C1969 C1971 1.404 . S
C1969 C1998 1.387 . S
C1970 C1962 1.448 . S
C1970 N1967 1.351 . S
C1970 C1969 1.430 . S
C1971 H1960 0.930 1_565 S
C1971 C1969 1.404 . S
C1971 C1972 1.366 . S
C1972 H1951 0.930 . S
C1972 C1968 1.416 . S
C1972 C1971 1.366 . S
H1973 C1966 0.929 . S
H1974 C1997 0.931 . S
H1975 C1998 0.931 1_545 S
O1976 Eu1932 2.462 . S
O1976 C1996 1.252 . S
O1977 Eu1932 2.373 1_556 S
O1977 C1988 1.249 . S
O1978 Eu1943 2.335 . S
O1978 C1988 1.264 . S
O1979 Eu1932 2.432 . S
O1979 C1996 1.268 . S
O1980 Eu1932 2.291 1_556 S
O1980 C1995 1.255 . S
O1981 Eu1943 2.372 . S
O1981 C1995 1.257 . S
O1982 Eu1943 2.462 . S
O1982 C2007 1.252 . S
O1983 Eu1943 2.373 1_554 S
O1983 C1999 1.249 . S
O1984 Eu1932 2.335 . S
O1984 C1999 1.264 . S
O1985 Eu1943 2.432 . S
O1985 C2007 1.268 . S
O1986 Eu1943 2.291 . S
O1986 C2006 1.255 1_455 S
O1987 Eu1932 2.372 1_656 S
O1987 C2006 1.257 . S
C1988 O1977 1.249 . S
C1988 O1978 1.264 . S
C1989 C1992 1.382 . S
C1989 C1994 1.390 . S
C1989 C1996 1.506 . S
C1990 C1991 1.398 . S
C1990 C1994 1.392 . S
C1991 C1990 1.398 . S
C1991 C1993 1.372 . S
C1991 H2008 0.931 . S
C1992 C1989 1.382 . S
C1992 C1993 1.390 . S
C1992 H2009 0.931 . S
C1993 C1991 1.372 . S
C1993 C1992 1.390 . S
C1993 H2010 0.929 . S
C1994 C1989 1.390 . S
C1994 C1990 1.392 . S
C1994 H2011 0.930 . S
C1995 O1980 1.255 . S
C1995 O1981 1.257 . S
C1996 Eu1932 2.787 . S
C1996 O1976 1.252 . S
C1996 O1979 1.268 . S
C1996 C1989 1.506 . S
C1997 C1964 1.439 . S
C1997 H1974 0.931 . S
C1997 C1998 1.374 . S
C1998 C1969 1.387 . S
C1998 H1975 0.931 1_565 S
C1998 C1997 1.374 . S
C1999 O1983 1.249 . S
C1999 O1984 1.264 . S
C2000 C2003 1.382 . S
C2000 C2004 1.390 . S
C2000 C2007 1.506 . S
C2001 C2002 1.398 . S
C2001 C2004 1.392 . S
C2002 C2001 1.398 . S
C2002 C2005 1.372 . S
C2002 H2012 0.931 . S
C2003 C2000 1.382 . S
C2003 C2005 1.390 . S
C2003 H2013 0.931 . S
C2004 C2000 1.390 . S
C2004 C2001 1.392 . S
C2004 H2014 0.930 . S
C2005 C2002 1.372 . S
C2005 C2003 1.390 . S
C2005 H2015 0.929 . S
C2006 O1986 1.255 1_655 S
C2006 O1987 1.257 . S
C2007 Eu1943 2.787 . S
C2007 O1982 1.252 . S
C2007 O1985 1.268 . S
C2007 C2000 1.506 . S
H2008 C1991 0.931 . S
H2009 C1992 0.931 . S
H2010 C1993 0.929 . S
H2011 C1994 0.930 . S
H2012 C2002 0.931 . S
H2013 C2003 0.931 . S
H2014 C2004 0.930 . S
H2015 C2005 0.929 . S
Eu2016 N2045 2.600 . S
Eu2016 N2051 2.562 . S
Eu2016 O2060 2.462 . S
Eu2016 O2061 2.373 . S
Eu2016 O2063 2.432 . S
Eu2016 O2064 2.291 . S
Eu2016 O2068 2.335 . S
Eu2016 O2071 2.372 . S
Eu2016 C2080 2.787 . S
C2017 N2018 1.365 . S
C2017 C2020 1.405 . S
C2017 C2024 1.448 . S
N2018 C2017 1.365 . S
N2018 C2021 1.319 . S
N2018 Eu2027 2.600 . S
C2019 C2021 1.397 . S
C2019 C2022 1.367 . S
C2019 H2039 0.931 . S
C2020 C2017 1.405 . S
C2020 C2022 1.403 . S
C2020 C2026 1.439 . S
C2021 N2018 1.319 . S
C2021 C2019 1.397 . S
C2021 H2032 0.930 . S
C2022 C2019 1.367 . S
C2022 C2020 1.403 . S
C2022 H2043 0.929 . S
C2023 C2024 1.430 . S
C2023 C2025 1.387 . S
C2023 C2029 1.404 . S
C2024 C2017 1.448 . S
C2024 C2023 1.430 . S
C2024 N2028 1.351 . S
C2025 C2023 1.387 . S
C2025 C2026 1.374 . S
C2025 H2040 0.931 . S
C2026 C2020 1.439 . S
C2026 C2025 1.374 . S
C2026 H2041 0.931 . S
Eu2027 N2018 2.600 . S
Eu2027 N2028 2.562 . S
Eu2027 O2062 2.335 . S
Eu2027 O2065 2.372 . S
Eu2027 O2066 2.462 . S
Eu2027 O2067 2.373 . S
Eu2027 O2069 2.432 . S
Eu2027 O2070 2.291 . S
Eu2027 C2091 2.787 . S
N2028 C2024 1.351 . S
N2028 Eu2027 2.562 . S
N2028 C2030 1.325 . S
C2029 C2023 1.404 . S
C2029 C2031 1.366 . S
C2029 H2037 0.930 . S
C2030 N2028 1.325 . S
C2030 C2031 1.416 . S
C2030 H2036 0.929 . S
C2031 C2029 1.366 . S
C2031 C2030 1.416 . S
C2031 H2033 0.930 . S
H2032 C2021 0.930 . S
H2033 C2031 0.930 . S
H2034 C2049 0.930 . S
H2035 C2056 0.930 . S
H2036 C2030 0.929 . S
H2037 C2029 0.930 . S
H2038 C2052 0.929 1_545 S
H2039 C2019 0.931 . S
H2040 C2025 0.931 . S
H2041 C2026 0.931 . S
H2042 C2047 0.931 . S
H2043 C2022 0.929 . S
H2044 C2055 0.930 . S
N2045 Eu2016 2.600 . S
N2045 C2046 1.365 . S
N2045 C2049 1.319 . S
C2046 N2045 1.365 . S
C2046 C2048 1.405 1_545 S
C2046 C2054 1.448 1_545 S
C2047 H2042 0.931 . S
C2047 C2049 1.397 . S
C2047 C2050 1.367 . S
C2048 C2046 1.405 1_565 S
C2048 C2050 1.403 1_565 S
C2048 C2081 1.439 . S
C2049 H2034 0.930 . S
C2049 N2045 1.319 . S
C2049 C2047 1.397 . S
C2050 C2047 1.367 . S
C2050 C2048 1.403 1_545 S
C2050 H2057 0.929 1_545 S
N2051 Eu2016 2.562 . S
N2051 C2052 1.325 1_545 S
N2051 C2054 1.351 1_545 S
C2052 H2038 0.929 1_565 S
C2052 N2051 1.325 1_565 S
C2052 C2056 1.416 . S
C2053 C2054 1.430 . S
C2053 C2055 1.404 . S
C2053 C2082 1.387 . S
C2054 C2046 1.448 1_565 S
C2054 N2051 1.351 1_565 S
C2054 C2053 1.430 . S
C2055 H2044 0.930 . S
C2055 C2053 1.404 . S
C2055 C2056 1.366 . S
C2056 H2035 0.930 . S
C2056 C2052 1.416 . S
C2056 C2055 1.366 . S
H2057 C2050 0.929 1_565 S
H2058 C2081 0.931 . S
H2059 C2082 0.931 . S
O2060 Eu2016 2.462 . S
O2060 C2080 1.252 . S
O2061 Eu2016 2.373 . S
O2061 C2072 1.249 . S
O2062 Eu2027 2.335 . S
O2062 C2072 1.264 . S
O2063 Eu2016 2.432 . S
O2063 C2080 1.268 . S
O2064 Eu2016 2.291 . S
O2064 C2079 1.255 . S
O2065 Eu2027 2.372 . S
O2065 C2079 1.257 . S
O2066 Eu2027 2.462 . S
O2066 C2091 1.252 . S
O2067 Eu2027 2.373 . S
O2067 C2083 1.249 . S
O2068 Eu2016 2.335 . S
O2068 C2083 1.264 . S
O2069 Eu2027 2.432 . S
O2069 C2091 1.268 . S
O2070 Eu2027 2.291 . S
O2070 C2090 1.255 . S
O2071 Eu2016 2.372 . S
O2071 C2090 1.257 . S
C2072 O2061 1.249 . S
C2072 O2062 1.264 . S
C2073 C2076 1.382 . S
C2073 C2078 1.390 . S
C2073 C2080 1.506 . S
C2074 C2075 1.398 . S
C2074 C2078 1.392 . S
C2075 C2074 1.398 . S
C2075 C2077 1.372 . S
C2075 H2092 0.931 1_545 S
C2076 C2073 1.382 . S
C2076 C2077 1.390 . S
C2076 H2093 0.931 . S
C2077 C2075 1.372 . S
C2077 C2076 1.390 . S
C2077 H2094 0.929 . S
C2078 C2073 1.390 . S
C2078 C2074 1.392 . S
C2078 H2095 0.930 . S
C2079 O2064 1.255 . S
C2079 O2065 1.257 . S
C2080 Eu2016 2.787 . S
C2080 O2060 1.252 . S
C2080 O2063 1.268 . S
C2080 C2073 1.506 . S
C2081 C2048 1.439 . S
C2081 H2058 0.931 . S
C2081 C2082 1.374 . S
C2082 C2053 1.387 . S
C2082 H2059 0.931 . S
C2082 C2081 1.374 . S
C2083 O2067 1.249 . S
C2083 O2068 1.264 . S
C2084 C2087 1.382 . S
C2084 C2088 1.390 . S
C2084 C2091 1.506 1_554 S
C2085 C2086 1.398 . S
C2085 C2088 1.392 . S
C2086 C2085 1.398 . S
C2086 C2089 1.372 . S
C2086 H2096 0.931 . S
C2087 C2084 1.382 . S
C2087 C2089 1.390 . S
C2087 H2097 0.931 . S
C2088 C2084 1.390 . S
C2088 C2085 1.392 . S
C2088 H2098 0.930 . S
C2089 C2086 1.372 . S
C2089 C2087 1.390 . S
C2089 H2099 0.929 . S
C2090 O2070 1.255 . S
C2090 O2071 1.257 . S
C2091 Eu2027 2.787 . S
C2091 O2066 1.252 . S
C2091 O2069 1.268 . S
C2091 C2084 1.506 1_556 S
H2092 C2075 0.931 1_565 S
H2093 C2076 0.931 . S
H2094 C2077 0.929 . S
H2095 C2078 0.930 . S
H2096 C2086 0.931 . S
H2097 C2087 0.931 . S
H2098 C2088 0.930 . S
H2099 C2089 0.929 . S
Eu2100 N2129 2.600 . S
Eu2100 N2135 2.562 . S
Eu2100 O2144 2.462 . S
Eu2100 O2145 2.373 . S
Eu2100 O2147 2.432 . S
Eu2100 O2148 2.291 . S
Eu2100 O2152 2.335 . S
Eu2100 O2155 2.372 . S
Eu2100 C2164 2.787 . S
C2101 N2102 1.365 . S
C2101 C2104 1.405 . S
C2101 C2108 1.448 . S
N2102 C2101 1.365 . S
N2102 C2105 1.319 . S
N2102 Eu2111 2.600 . S
C2103 C2105 1.397 . S
C2103 C2106 1.367 . S
C2103 H2123 0.931 . S
C2104 C2101 1.405 . S
C2104 C2106 1.403 . S
C2104 C2110 1.439 . S
C2105 N2102 1.319 . S
C2105 C2103 1.397 . S
C2105 H2116 0.930 . S
C2106 C2103 1.367 . S
C2106 C2104 1.403 . S
C2106 H2127 0.929 . S
C2107 C2108 1.430 . S
C2107 C2109 1.387 . S
C2107 C2113 1.404 . S
C2108 C2101 1.448 . S
C2108 C2107 1.430 . S
C2108 N2112 1.351 . S
C2109 C2107 1.387 . S
C2109 C2110 1.374 . S
C2109 H2124 0.931 . S
C2110 C2104 1.439 . S
C2110 C2109 1.374 . S
C2110 H2125 0.931 . S
Eu2111 N2102 2.600 . S
Eu2111 N2112 2.562 . S
Eu2111 O2146 2.335 . S
Eu2111 O2149 2.372 . S
Eu2111 O2150 2.462 . S
Eu2111 O2151 2.373 . S
Eu2111 O2153 2.432 . S
Eu2111 O2154 2.291 . S
Eu2111 C2175 2.787 . S
N2112 C2108 1.351 . S
N2112 Eu2111 2.562 . S
N2112 C2114 1.325 . S
C2113 C2107 1.404 . S
C2113 C2115 1.366 . S
C2113 H2121 0.930 . S
C2114 N2112 1.325 . S
C2114 C2115 1.416 . S
C2114 H2120 0.929 . S
C2115 C2113 1.366 . S
C2115 C2114 1.416 . S
C2115 H2117 0.930 . S
H2116 C2105 0.930 . S
H2117 C2115 0.930 . S
H2118 C2133 0.930 . S
H2119 C2140 0.930 . S
H2120 C2114 0.929 . S
H2121 C2113 0.930 . S
H2122 C2136 0.929 1_655 S
H2123 C2103 0.931 . S
H2124 C2109 0.931 . S
H2125 C2110 0.931 . S
H2126 C2131 0.931 . S
H2127 C2106 0.929 . S
H2128 C2139 0.930 . S
N2129 Eu2100 2.600 . S
N2129 C2130 1.365 . S
N2129 C2133 1.319 . S
C2130 N2129 1.365 . S
C2130 C2132 1.405 1_655 S
C2130 C2138 1.448 1_655 S
C2131 H2126 0.931 . S
C2131 C2133 1.397 . S
C2131 C2134 1.367 . S
C2132 C2130 1.405 1_455 S
C2132 C2134 1.403 1_455 S
C2132 C2165 1.439 . S
C2133 H2118 0.930 . S
C2133 N2129 1.319 . S
C2133 C2131 1.397 . S
C2134 C2131 1.367 . S
C2134 C2132 1.403 1_655 S
C2134 H2141 0.929 1_655 S
N2135 Eu2100 2.562 . S
N2135 C2136 1.325 1_655 S
N2135 C2138 1.351 1_655 S
C2136 H2122 0.929 1_455 S
C2136 N2135 1.325 1_455 S
C2136 C2140 1.416 . S
C2137 C2138 1.430 . S
C2137 C2139 1.404 . S
C2137 C2166 1.387 . S
C2138 C2130 1.448 1_455 S
C2138 N2135 1.351 1_455 S
C2138 C2137 1.430 . S
C2139 H2128 0.930 . S
C2139 C2137 1.404 . S
C2139 C2140 1.366 . S
C2140 H2119 0.930 . S
C2140 C2136 1.416 . S
C2140 C2139 1.366 . S
H2141 C2134 0.929 1_455 S
H2142 C2165 0.931 . S
H2143 C2166 0.931 . S
O2144 Eu2100 2.462 . S
O2144 C2164 1.252 . S
O2145 Eu2100 2.373 . S
O2145 C2156 1.249 . S
O2146 Eu2111 2.335 . S
O2146 C2156 1.264 . S
O2147 Eu2100 2.432 . S
O2147 C2164 1.268 . S
O2148 Eu2100 2.291 . S
O2148 C2163 1.255 . S
O2149 Eu2111 2.372 . S
O2149 C2163 1.257 . S
O2150 Eu2111 2.462 . S
O2150 C2175 1.252 . S
O2151 Eu2111 2.373 . S
O2151 C2167 1.249 . S
O2152 Eu2100 2.335 . S
O2152 C2167 1.264 . S
O2153 Eu2111 2.432 . S
O2153 C2175 1.268 . S
O2154 Eu2111 2.291 . S
O2154 C2174 1.255 . S
O2155 Eu2100 2.372 . S
O2155 C2174 1.257 . S
C2156 O2145 1.249 . S
C2156 O2146 1.264 . S
C2157 C2160 1.382 . S
C2157 C2162 1.390 . S
C2157 C2164 1.506 . S
C2158 C2159 1.398 . S
C2158 C2162 1.392 . S
C2159 C2158 1.398 . S
C2159 C2161 1.372 . S
C2159 H2176 0.931 1_655 S
C2160 C2157 1.382 . S
C2160 C2161 1.390 . S
C2160 H2177 0.931 . S
C2161 C2159 1.372 . S
C2161 C2160 1.390 . S
C2161 H2178 0.929 . S
C2162 C2157 1.390 . S
C2162 C2158 1.392 . S
C2162 H2179 0.930 . S
C2163 O2148 1.255 . S
C2163 O2149 1.257 . S
C2164 Eu2100 2.787 . S
C2164 O2144 1.252 . S
C2164 O2147 1.268 . S
C2164 C2157 1.506 . S
C2165 C2132 1.439 . S
C2165 H2142 0.931 . S
C2165 C2166 1.374 . S
C2166 C2137 1.387 . S
C2166 H2143 0.931 . S
C2166 C2165 1.374 . S
C2167 O2151 1.249 . S
C2167 O2152 1.264 . S
C2168 C2171 1.382 . S
C2168 C2172 1.390 . S
C2168 C2175 1.506 1_554 S
C2169 C2170 1.398 . S
C2169 C2172 1.392 . S
C2170 C2169 1.398 . S
C2170 C2173 1.372 . S
C2170 H2180 0.931 . S
C2171 C2168 1.382 . S
C2171 C2173 1.390 . S
C2171 H2181 0.931 . S
C2172 C2168 1.390 . S
C2172 C2169 1.392 . S
C2172 H2182 0.930 . S
C2173 C2170 1.372 . S
C2173 C2171 1.390 . S
C2173 H2183 0.929 . S
C2174 O2154 1.255 . S
C2174 O2155 1.257 . S
C2175 Eu2111 2.787 . S
C2175 O2150 1.252 . S
C2175 O2153 1.268 . S
C2175 C2168 1.506 1_556 S
H2176 C2159 0.931 1_455 S
H2177 C2160 0.931 . S
H2178 C2161 0.929 . S
H2179 C2162 0.930 . S
H2180 C2170 0.931 . S
H2181 C2171 0.931 . S
H2182 C2172 0.930 . S
H2183 C2173 0.929 . S
Eu2184 N2213 2.600 . S
Eu2184 N2219 2.562 . S
Eu2184 O2228 2.462 . S
Eu2184 O2229 2.373 . S
Eu2184 O2231 2.432 . S
Eu2184 O2232 2.291 . S
Eu2184 O2236 2.335 . S
Eu2184 O2239 2.372 . S
Eu2184 C2248 2.787 . S
C2185 N2186 1.365 . S
C2185 C2188 1.405 . S
C2185 C2192 1.448 . S
N2186 C2185 1.365 . S
N2186 C2189 1.319 . S
N2186 Eu2195 2.600 . S
C2187 C2189 1.397 . S
C2187 C2190 1.367 . S
C2187 H2207 0.931 . S
C2188 C2185 1.405 . S
C2188 C2190 1.403 . S
C2188 C2194 1.439 . S
C2189 N2186 1.319 . S
C2189 C2187 1.397 . S
C2189 H2200 0.930 . S
C2190 C2187 1.367 . S
C2190 C2188 1.403 . S
C2190 H2211 0.929 . S
C2191 C2192 1.430 . S
C2191 C2193 1.387 . S
C2191 C2197 1.404 . S
C2192 C2185 1.448 . S
C2192 C2191 1.430 . S
C2192 N2196 1.351 . S
C2193 C2191 1.387 . S
C2193 C2194 1.374 . S
C2193 H2208 0.931 . S
C2194 C2188 1.439 . S
C2194 C2193 1.374 . S
C2194 H2209 0.931 . S
Eu2195 N2186 2.600 . S
Eu2195 N2196 2.562 . S
Eu2195 O2230 2.335 . S
Eu2195 O2233 2.372 . S
Eu2195 O2234 2.462 . S
Eu2195 O2235 2.373 . S
Eu2195 O2237 2.432 . S
Eu2195 O2238 2.291 . S
Eu2195 C2259 2.787 . S
N2196 C2192 1.351 . S
N2196 Eu2195 2.562 . S
N2196 C2198 1.325 . S
C2197 C2191 1.404 . S
C2197 C2199 1.366 . S
C2197 H2205 0.930 . S
C2198 N2196 1.325 . S
C2198 C2199 1.416 . S
C2198 H2204 0.929 . S
C2199 C2197 1.366 . S
C2199 C2198 1.416 . S
C2199 H2201 0.930 . S
H2200 C2189 0.930 . S
H2201 C2199 0.930 . S
H2202 C2217 0.930 . S
H2203 C2224 0.930 . S
H2204 C2198 0.929 . S
H2205 C2197 0.930 . S
H2206 C2220 0.929 . S
H2207 C2187 0.931 . S
H2208 C2193 0.931 . S
H2209 C2194 0.931 . S
H2210 C2215 0.931 . S
H2211 C2190 0.929 . S
H2212 C2223 0.930 . S
N2213 Eu2184 2.600 . S
N2213 C2214 1.365 . S
N2213 C2217 1.319 . S
C2214 N2213 1.365 . S
C2214 C2216 1.405 . S
C2214 C2222 1.448 . S
C2215 H2210 0.931 . S
C2215 C2217 1.397 . S
C2215 C2218 1.367 . S
C2216 C2214 1.405 . S
C2216 C2218 1.403 . S
C2216 C2249 1.439 . S
C2217 H2202 0.930 . S
C2217 N2213 1.319 . S
C2217 C2215 1.397 . S
C2218 C2215 1.367 . S
C2218 C2216 1.403 . S
C2218 H2225 0.929 . S
N2219 Eu2184 2.562 . S
N2219 C2220 1.325 . S
N2219 C2222 1.351 . S
C2220 H2206 0.929 . S
C2220 N2219 1.325 . S
C2220 C2224 1.416 . S
C2221 C2222 1.430 . S
C2221 C2223 1.404 . S
C2221 C2250 1.387 . S
C2222 C2214 1.448 . S
C2222 N2219 1.351 . S
C2222 C2221 1.430 . S
C2223 H2212 0.930 . S
C2223 C2221 1.404 . S
C2223 C2224 1.366 . S
C2224 H2203 0.930 . S
C2224 C2220 1.416 . S
C2224 C2223 1.366 . S
H2225 C2218 0.929 . S
H2226 C2249 0.931 . S
H2227 C2250 0.931 . S
O2228 Eu2184 2.462 . S
O2228 C2248 1.252 . S
O2229 Eu2184 2.373 . S
O2229 C2240 1.249 . S
O2230 Eu2195 2.335 . S
O2230 C2240 1.264 . S
O2231 Eu2184 2.432 . S
O2231 C2248 1.268 . S
O2232 Eu2184 2.291 . S
O2232 C2247 1.255 . S
O2233 Eu2195 2.372 . S
O2233 C2247 1.257 . S
O2234 Eu2195 2.462 . S
O2234 C2259 1.252 . S
O2235 Eu2195 2.373 . S
O2235 C2251 1.249 . S
O2236 Eu2184 2.335 . S
O2236 C2251 1.264 . S
O2237 Eu2195 2.432 . S
O2237 C2259 1.268 . S
O2238 Eu2195 2.291 . S
O2238 C2258 1.255 . S
O2239 Eu2184 2.372 . S
O2239 C2258 1.257 . S
C2240 O2229 1.249 . S
C2240 O2230 1.264 . S
C2241 C2244 1.382 . S
C2241 C2246 1.390 . S
C2241 C2248 1.506 . S
C2242 C2243 1.398 . S
C2242 C2246 1.392 . S
C2243 C2242 1.398 . S
C2243 C2245 1.372 . S
C2243 H2260 0.931 . S
C2244 C2241 1.382 . S
C2244 C2245 1.390 . S
C2244 H2261 0.931 . S
C2245 C2243 1.372 . S
C2245 C2244 1.390 . S
C2245 H2262 0.929 . S
C2246 C2241 1.390 . S
C2246 C2242 1.392 . S
C2246 H2263 0.930 . S
C2247 O2232 1.255 . S
C2247 O2233 1.257 . S
C2248 Eu2184 2.787 . S
C2248 O2228 1.252 . S
C2248 O2231 1.268 . S
C2248 C2241 1.506 . S
C2249 C2216 1.439 . S
C2249 H2226 0.931 . S
C2249 C2250 1.374 . S
C2250 C2221 1.387 . S
C2250 H2227 0.931 . S
C2250 C2249 1.374 . S
C2251 O2235 1.249 . S
C2251 O2236 1.264 . S
C2252 C2255 1.382 . S
C2252 C2256 1.390 . S
C2252 C2259 1.506 1_554 S
C2253 C2254 1.398 . S
C2253 C2256 1.392 . S
C2254 C2253 1.398 . S
C2254 C2257 1.372 . S
C2254 H2264 0.931 . S
C2255 C2252 1.382 . S
C2255 C2257 1.390 . S
C2255 H2265 0.931 . S
C2256 C2252 1.390 . S
C2256 C2253 1.392 . S
C2256 H2266 0.930 . S
C2257 C2254 1.372 . S
C2257 C2255 1.390 . S
C2257 H2267 0.929 . S
C2258 O2238 1.255 . S
C2258 O2239 1.257 . S
C2259 Eu2195 2.787 . S
C2259 O2234 1.252 . S
C2259 O2237 1.268 . S
C2259 C2252 1.506 1_556 S
H2260 C2243 0.931 . S
H2261 C2244 0.931 . S
H2262 C2245 0.929 . S
H2263 C2246 0.930 . S
H2264 C2254 0.931 . S
H2265 C2255 0.931 . S
H2266 C2256 0.930 . S
H2267 C2257 0.929 . S
Eu2268 N2297 2.600 . S
Eu2268 N2303 2.562 . S
Eu2268 O2312 2.462 . S
Eu2268 O2313 2.373 . S
Eu2268 O2315 2.432 . S
Eu2268 O2316 2.291 . S
Eu2268 O2320 2.335 . S
Eu2268 O2323 2.372 . S
Eu2268 C2332 2.787 . S
C2269 N2270 1.365 . S
C2269 C2272 1.405 . S
C2269 C2276 1.448 . S
N2270 C2269 1.365 . S
N2270 C2273 1.319 . S
N2270 Eu2279 2.600 . S
C2271 C2273 1.397 . S
C2271 C2274 1.367 . S
C2271 H2291 0.931 . S
C2272 C2269 1.405 . S
C2272 C2274 1.403 . S
C2272 C2278 1.439 . S
C2273 N2270 1.319 . S
C2273 C2271 1.397 . S
C2273 H2284 0.930 . S
C2274 C2271 1.367 . S
C2274 C2272 1.403 . S
C2274 H2295 0.929 . S
C2275 C2276 1.430 . S
C2275 C2277 1.387 . S
C2275 C2281 1.404 . S
C2276 C2269 1.448 . S
C2276 C2275 1.430 . S
C2276 N2280 1.351 . S
C2277 C2275 1.387 . S
C2277 C2278 1.374 . S
C2277 H2292 0.931 1_655 S
C2278 C2272 1.439 . S
C2278 C2277 1.374 . S
C2278 H2293 0.931 . S
Eu2279 N2270 2.600 . S
Eu2279 N2280 2.562 . S
Eu2279 O2314 2.335 . S
Eu2279 O2317 2.372 . S
Eu2279 O2318 2.462 . S
Eu2279 O2319 2.373 . S
Eu2279 O2321 2.432 . S
Eu2279 O2322 2.291 . S
Eu2279 C2343 2.787 1_554 S
N2280 C2276 1.351 . S
N2280 Eu2279 2.562 . S
N2280 C2282 1.325 . S
C2281 C2275 1.404 . S
C2281 C2283 1.366 . S
C2281 H2289 0.930 1_655 S
C2282 N2280 1.325 . S
C2282 C2283 1.416 . S
C2282 H2288 0.929 . S
C2283 C2281 1.366 . S
C2283 C2282 1.416 . S
C2283 H2285 0.930 . S
H2284 C2273 0.930 . S
H2285 C2283 0.930 . S
H2286 C2301 0.930 . S
H2287 C2308 0.930 . S
H2288 C2282 0.929 . S
H2289 C2281 0.930 1_455 S
H2290 C2304 0.929 . S
H2291 C2271 0.931 . S
H2292 C2277 0.931 1_455 S
H2293 C2278 0.931 . S
H2294 C2299 0.931 . S
H2295 C2274 0.929 . S
H2296 C2307 0.930 . S
N2297 Eu2268 2.600 . S
N2297 C2298 1.365 . S
N2297 C2301 1.319 . S
C2298 N2297 1.365 . S
C2298 C2300 1.405 . S
C2298 C2306 1.448 . S
C2299 H2294 0.931 . S
C2299 C2301 1.397 . S
C2299 C2302 1.367 . S
C2300 C2298 1.405 . S
C2300 C2302 1.403 . S
C2300 C2333 1.439 . S
C2301 H2286 0.930 . S
C2301 N2297 1.319 . S
C2301 C2299 1.397 . S
C2302 C2299 1.367 . S
C2302 C2300 1.403 . S
C2302 H2309 0.929 . S
N2303 Eu2268 2.562 . S
N2303 C2304 1.325 . S
N2303 C2306 1.351 . S
C2304 H2290 0.929 . S
C2304 N2303 1.325 . S
C2304 C2308 1.416 . S
C2305 C2306 1.430 . S
C2305 C2307 1.404 . S
C2305 C2334 1.387 . S
C2306 C2298 1.448 . S
C2306 N2303 1.351 . S
C2306 C2305 1.430 . S
C2307 H2296 0.930 . S
C2307 C2305 1.404 . S
C2307 C2308 1.366 . S
C2308 H2287 0.930 . S
C2308 C2304 1.416 . S
C2308 C2307 1.366 . S
H2309 C2302 0.929 . S
H2310 C2333 0.931 . S
H2311 C2334 0.931 . S
O2312 Eu2268 2.462 . S
O2312 C2332 1.252 . S
O2313 Eu2268 2.373 . S
O2313 C2324 1.249 . S
O2314 Eu2279 2.335 . S
O2314 C2324 1.264 . S
O2315 Eu2268 2.432 . S
O2315 C2332 1.268 . S
O2316 Eu2268 2.291 . S
O2316 C2331 1.255 . S
O2317 Eu2279 2.372 . S
O2317 C2331 1.257 . S
O2318 Eu2279 2.462 . S
O2318 C2343 1.252 1_554 S
O2319 Eu2279 2.373 . S
O2319 C2335 1.249 . S
O2320 Eu2268 2.335 . S
O2320 C2335 1.264 . S
O2321 Eu2279 2.432 . S
O2321 C2343 1.268 1_554 S
O2322 Eu2279 2.291 . S
O2322 C2342 1.255 . S
O2323 Eu2268 2.372 . S
O2323 C2342 1.257 . S
C2324 O2313 1.249 . S
C2324 O2314 1.264 . S
C2325 C2328 1.382 . S
C2325 C2330 1.390 . S
C2325 C2332 1.506 . S
C2326 C2327 1.398 . S
C2326 C2330 1.392 . S
C2327 C2326 1.398 . S
C2327 C2329 1.372 . S
C2327 H2344 0.931 . S
C2328 C2325 1.382 . S
C2328 C2329 1.390 . S
C2328 H2345 0.931 . S
C2329 C2327 1.372 . S
C2329 C2328 1.390 . S
C2329 H2346 0.929 . S
C2330 C2325 1.390 . S
C2330 C2326 1.392 . S
C2330 H2347 0.930 . S
C2331 O2316 1.255 . S
C2331 O2317 1.257 . S
C2332 Eu2268 2.787 . S
C2332 O2312 1.252 . S
C2332 O2315 1.268 . S
C2332 C2325 1.506 . S
C2333 C2300 1.439 . S
C2333 H2310 0.931 . S
C2333 C2334 1.374 . S
C2334 C2305 1.387 . S
C2334 H2311 0.931 . S
C2334 C2333 1.374 . S
C2335 O2319 1.249 . S
C2335 O2320 1.264 . S
C2336 C2339 1.382 . S
C2336 C2340 1.390 . S
C2336 C2343 1.506 . S
C2337 C2338 1.398 . S
C2337 C2340 1.392 . S
C2338 C2337 1.398 . S
C2338 C2341 1.372 . S
C2338 H2348 0.931 . S
C2339 C2336 1.382 . S
C2339 C2341 1.390 . S
C2339 H2349 0.931 . S
C2340 C2336 1.390 . S
C2340 C2337 1.392 . S
C2340 H2350 0.930 . S
C2341 C2338 1.372 . S
C2341 C2339 1.390 . S
C2341 H2351 0.929 . S
C2342 O2322 1.255 . S
C2342 O2323 1.257 . S
C2343 Eu2279 2.787 1_556 S
C2343 O2318 1.252 1_556 S
C2343 O2321 1.268 1_556 S
C2343 C2336 1.506 . S
H2344 C2327 0.931 . S
H2345 C2328 0.931 . S
H2346 C2329 0.929 . S
H2347 C2330 0.930 . S
H2348 C2338 0.931 . S
H2349 C2339 0.931 . S
H2350 C2340 0.930 . S
H2351 C2341 0.929 . S
Eu2352 N2381 2.600 . S
Eu2352 N2387 2.562 . S
Eu2352 O2396 2.462 . S
Eu2352 O2397 2.373 . S
Eu2352 O2399 2.432 . S
Eu2352 O2400 2.291 . S
Eu2352 O2404 2.335 . S
Eu2352 O2407 2.372 . S
Eu2352 C2416 2.787 . S
C2353 N2354 1.365 . S
C2353 C2356 1.405 . S
C2353 C2360 1.448 . S
N2354 C2353 1.365 . S
N2354 C2357 1.319 1_545 S
N2354 Eu2363 2.600 . S
C2355 C2357 1.397 . S
C2355 C2358 1.367 . S
C2355 H2375 0.931 . S
C2356 C2353 1.405 . S
C2356 C2358 1.403 1_545 S
C2356 C2362 1.439 . S
C2357 N2354 1.319 1_565 S
C2357 C2355 1.397 . S
C2357 H2368 0.930 . S
C2358 C2355 1.367 . S
C2358 C2356 1.403 1_565 S
C2358 H2379 0.929 . S
C2359 C2360 1.430 . S
C2359 C2361 1.387 . S
C2359 C2365 1.404 . S
C2360 C2353 1.448 . S
C2360 C2359 1.430 . S
C2360 N2364 1.351 . S
C2361 C2359 1.387 . S
C2361 C2362 1.374 . S
C2361 H2376 0.931 . S
C2362 C2356 1.439 . S
C2362 C2361 1.374 . S
C2362 H2377 0.931 . S
Eu2363 N2354 2.600 . S
Eu2363 N2364 2.562 . S
Eu2363 O2398 2.335 . S
Eu2363 O2401 2.372 1_545 S
Eu2363 O2402 2.462 . S
Eu2363 O2403 2.373 . S
Eu2363 O2405 2.432 . S
Eu2363 O2406 2.291 . S
Eu2363 C2427 2.787 1_554 S
N2364 C2360 1.351 . S
N2364 Eu2363 2.562 . S
N2364 C2366 1.325 . S
C2365 C2359 1.404 . S
C2365 C2367 1.366 . S
C2365 H2373 0.930 . S
C2366 N2364 1.325 . S
C2366 C2367 1.416 . S
C2366 H2372 0.929 . S
C2367 C2365 1.366 . S
C2367 C2366 1.416 . S
C2367 H2369 0.930 . S
H2368 C2357 0.930 . S
H2369 C2367 0.930 . S
H2370 C2385 0.930 . S
H2371 C2392 0.930 . S
H2372 C2366 0.929 . S
H2373 C2365 0.930 . S
H2374 C2388 0.929 . S
H2375 C2355 0.931 . S
H2376 C2361 0.931 . S
H2377 C2362 0.931 . S
H2378 C2383 0.931 . S
H2379 C2358 0.929 . S
H2380 C2391 0.930 . S
N2381 Eu2352 2.600 . S
N2381 C2382 1.365 . S
N2381 C2385 1.319 . S
C2382 N2381 1.365 . S
C2382 C2384 1.405 . S
C2382 C2390 1.448 . S
C2383 H2378 0.931 . S
C2383 C2385 1.397 . S
C2383 C2386 1.367 . S
C2384 C2382 1.405 . S
C2384 C2386 1.403 . S
C2384 C2417 1.439 . S
C2385 H2370 0.930 . S
C2385 N2381 1.319 . S
C2385 C2383 1.397 . S
C2386 C2383 1.367 . S
C2386 C2384 1.403 . S
C2386 H2393 0.929 . S
N2387 Eu2352 2.562 . S
N2387 C2388 1.325 1_545 S
N2387 C2390 1.351 . S
C2388 H2374 0.929 . S
C2388 N2387 1.325 1_565 S
C2388 C2392 1.416 . S
C2389 C2390 1.430 . S
C2389 C2391 1.404 1_545 S
C2389 C2418 1.387 . S
C2390 C2382 1.448 . S
C2390 N2387 1.351 . S
C2390 C2389 1.430 . S
C2391 H2380 0.930 . S
C2391 C2389 1.404 1_565 S
C2391 C2392 1.366 . S
C2392 H2371 0.930 . S
C2392 C2388 1.416 . S
C2392 C2391 1.366 . S
H2393 C2386 0.929 . S
H2394 C2417 0.931 . S
H2395 C2418 0.931 . S
O2396 Eu2352 2.462 . S
O2396 C2416 1.252 . S
O2397 Eu2352 2.373 . S
O2397 C2408 1.249 . S
O2398 Eu2363 2.335 . S
O2398 C2408 1.264 . S
O2399 Eu2352 2.432 . S
O2399 C2416 1.268 . S
O2400 Eu2352 2.291 . S
O2400 C2415 1.255 1_545 S
O2401 Eu2363 2.372 1_565 S
O2401 C2415 1.257 . S
O2402 Eu2363 2.462 . S
O2402 C2427 1.252 1_554 S
O2403 Eu2363 2.373 . S
O2403 C2419 1.249 . S
O2404 Eu2352 2.335 . S
O2404 C2419 1.264 . S
O2405 Eu2363 2.432 . S
O2405 C2427 1.268 1_554 S
O2406 Eu2363 2.291 . S
O2406 C2426 1.255 . S
O2407 Eu2352 2.372 . S
O2407 C2426 1.257 . S
C2408 O2397 1.249 . S
C2408 O2398 1.264 . S
C2409 C2412 1.382 . S
C2409 C2414 1.390 . S
C2409 C2416 1.506 . S
C2410 C2411 1.398 . S
C2410 C2414 1.392 . S
C2411 C2410 1.398 . S
C2411 C2413 1.372 . S
C2411 H2428 0.931 . S
C2412 C2409 1.382 . S
C2412 C2413 1.390 . S
C2412 H2429 0.931 . S
C2413 C2411 1.372 . S
C2413 C2412 1.390 . S
C2413 H2430 0.929 . S
C2414 C2409 1.390 . S
C2414 C2410 1.392 . S
C2414 H2431 0.930 . S
C2415 O2400 1.255 1_565 S
C2415 O2401 1.257 . S
C2416 Eu2352 2.787 . S
C2416 O2396 1.252 . S
C2416 O2399 1.268 . S
C2416 C2409 1.506 . S
C2417 C2384 1.439 . S
C2417 H2394 0.931 . S
C2417 C2418 1.374 . S
C2418 C2389 1.387 . S
C2418 H2395 0.931 . S
C2418 C2417 1.374 . S
C2419 O2403 1.249 . S
C2419 O2404 1.264 . S
C2420 C2423 1.382 . S
C2420 C2424 1.390 . S
C2420 C2427 1.506 . S
C2421 C2422 1.398 . S
C2421 C2424 1.392 . S
C2422 C2421 1.398 . S
C2422 C2425 1.372 . S
C2422 H2432 0.931 . S
C2423 C2420 1.382 . S
C2423 C2425 1.390 . S
C2423 H2433 0.931 . S
C2424 C2420 1.390 . S
C2424 C2421 1.392 . S
C2424 H2434 0.930 . S
C2425 C2422 1.372 . S
C2425 C2423 1.390 . S
C2425 H2435 0.929 . S
C2426 O2406 1.255 . S
C2426 O2407 1.257 . S
C2427 Eu2363 2.787 1_556 S
C2427 O2402 1.252 1_556 S
C2427 O2405 1.268 1_556 S
C2427 C2420 1.506 . S
H2428 C2411 0.931 . S
H2429 C2412 0.931 . S
H2430 C2413 0.929 . S
H2431 C2414 0.930 . S
H2432 C2422 0.931 . S
H2433 C2423 0.931 . S
H2434 C2424 0.930 . S
H2435 C2425 0.929 . S
Eu2436 N2465 2.600 . S
Eu2436 N2471 2.562 . S
Eu2436 O2480 2.462 . S
Eu2436 O2481 2.373 . S
Eu2436 O2483 2.432 . S
Eu2436 O2484 2.291 . S
Eu2436 O2488 2.335 . S
Eu2436 O2491 2.372 . S
Eu2436 C2500 2.787 . S
C2437 N2438 1.365 . S
C2437 C2440 1.405 . S
C2437 C2444 1.448 . S
N2438 C2437 1.365 . S
N2438 C2441 1.319 1_655 S
N2438 Eu2447 2.600 . S
C2439 C2441 1.397 . S
C2439 C2442 1.367 . S
C2439 H2459 0.931 . S
C2440 C2437 1.405 . S
C2440 C2442 1.403 1_655 S
C2440 C2446 1.439 . S
C2441 N2438 1.319 1_455 S
C2441 C2439 1.397 . S
C2441 H2452 0.930 . S
C2442 C2439 1.367 . S
C2442 C2440 1.403 1_455 S
C2442 H2463 0.929 . S
C2443 C2444 1.430 . S
C2443 C2445 1.387 . S
C2443 C2449 1.404 . S
C2444 C2437 1.448 . S
C2444 C2443 1.430 . S
C2444 N2448 1.351 . S
C2445 C2443 1.387 . S
C2445 C2446 1.374 . S
C2445 H2460 0.931 1_545 S
C2446 C2440 1.439 . S
C2446 C2445 1.374 . S
C2446 H2461 0.931 . S
Eu2447 N2438 2.600 . S
Eu2447 N2448 2.562 . S
Eu2447 O2482 2.335 . S
Eu2447 O2485 2.372 1_655 S
Eu2447 O2486 2.462 . S
Eu2447 O2487 2.373 . S
Eu2447 O2489 2.432 . S
Eu2447 O2490 2.291 . S
Eu2447 C2511 2.787 1_554 S
N2448 C2444 1.351 . S
N2448 Eu2447 2.562 . S
N2448 C2450 1.325 . S
C2449 C2443 1.404 . S
C2449 C2451 1.366 . S
C2449 H2457 0.930 1_545 S
C2450 N2448 1.325 . S
C2450 C2451 1.416 . S
C2450 H2456 0.929 . S
C2451 C2449 1.366 . S
C2451 C2450 1.416 . S
C2451 H2453 0.930 . S
H2452 C2441 0.930 . S
H2453 C2451 0.930 . S
H2454 C2469 0.930 . S
H2455 C2476 0.930 . S
H2456 C2450 0.929 . S
H2457 C2449 0.930 1_565 S
H2458 C2472 0.929 . S
H2459 C2439 0.931 . S
H2460 C2445 0.931 1_565 S
H2461 C2446 0.931 . S
H2462 C2467 0.931 . S
H2463 C2442 0.929 . S
H2464 C2475 0.930 . S
N2465 Eu2436 2.600 . S
N2465 C2466 1.365 . S
N2465 C2469 1.319 . S
C2466 N2465 1.365 . S
C2466 C2468 1.405 . S
C2466 C2474 1.448 . S
C2467 H2462 0.931 . S
C2467 C2469 1.397 . S
C2467 C2470 1.367 . S
C2468 C2466 1.405 . S
C2468 C2470 1.403 . S
C2468 C2501 1.439 . S
C2469 H2454 0.930 . S
C2469 N2465 1.319 . S
C2469 C2467 1.397 . S
C2470 C2467 1.367 . S
C2470 C2468 1.403 . S
C2470 H2477 0.929 . S
N2471 Eu2436 2.562 . S
N2471 C2472 1.325 1_655 S
N2471 C2474 1.351 . S
C2472 H2458 0.929 . S
C2472 N2471 1.325 1_455 S
C2472 C2476 1.416 . S
C2473 C2474 1.430 . S
C2473 C2475 1.404 1_655 S
C2473 C2502 1.387 . S
C2474 C2466 1.448 . S
C2474 N2471 1.351 . S
C2474 C2473 1.430 . S
C2475 H2464 0.930 . S
C2475 C2473 1.404 1_455 S
C2475 C2476 1.366 . S
C2476 H2455 0.930 . S
C2476 C2472 1.416 . S
C2476 C2475 1.366 . S
H2477 C2470 0.929 . S
H2478 C2501 0.931 . S
H2479 C2502 0.931 . S
O2480 Eu2436 2.462 . S
O2480 C2500 1.252 . S
O2481 Eu2436 2.373 . S
O2481 C2492 1.249 . S
O2482 Eu2447 2.335 . S
O2482 C2492 1.264 . S
O2483 Eu2436 2.432 . S
O2483 C2500 1.268 . S
O2484 Eu2436 2.291 . S
O2484 C2499 1.255 1_655 S
O2485 Eu2447 2.372 1_455 S
O2485 C2499 1.257 . S
O2486 Eu2447 2.462 . S
O2486 C2511 1.252 1_554 S
O2487 Eu2447 2.373 . S
O2487 C2503 1.249 . S
O2488 Eu2436 2.335 . S
O2488 C2503 1.264 . S
O2489 Eu2447 2.432 . S
O2489 C2511 1.268 1_554 S
O2490 Eu2447 2.291 . S
O2490 C2510 1.255 . S
O2491 Eu2436 2.372 . S
O2491 C2510 1.257 . S
C2492 O2481 1.249 . S
C2492 O2482 1.264 . S
C2493 C2496 1.382 . S
C2493 C2498 1.390 . S
C2493 C2500 1.506 . S
C2494 C2495 1.398 . S
C2494 C2498 1.392 . S
C2495 C2494 1.398 . S
C2495 C2497 1.372 . S
C2495 H2512 0.931 . S
C2496 C2493 1.382 . S
C2496 C2497 1.390 . S
C2496 H2513 0.931 . S
C2497 C2495 1.372 . S
C2497 C2496 1.390 . S
C2497 H2514 0.929 . S
C2498 C2493 1.390 . S
C2498 C2494 1.392 . S
C2498 H2515 0.930 . S
C2499 O2484 1.255 1_455 S
C2499 O2485 1.257 . S
C2500 Eu2436 2.787 . S
C2500 O2480 1.252 . S
C2500 O2483 1.268 . S
C2500 C2493 1.506 . S
C2501 C2468 1.439 . S
C2501 H2478 0.931 . S
C2501 C2502 1.374 . S
C2502 C2473 1.387 . S
C2502 H2479 0.931 . S
C2502 C2501 1.374 . S
C2503 O2487 1.249 . S
C2503 O2488 1.264 . S
C2504 C2507 1.382 . S
C2504 C2508 1.390 . S
C2504 C2511 1.506 . S
C2505 C2506 1.398 . S
C2505 C2508 1.392 . S
C2506 C2505 1.398 . S
C2506 C2509 1.372 . S
C2506 H2516 0.931 . S
C2507 C2504 1.382 . S
C2507 C2509 1.390 . S
C2507 H2517 0.931 . S
C2508 C2504 1.390 . S
C2508 C2505 1.392 . S
C2508 H2518 0.930 . S
C2509 C2506 1.372 . S
C2509 C2507 1.390 . S
C2509 H2519 0.929 . S
C2510 O2490 1.255 . S
C2510 O2491 1.257 . S
C2511 Eu2447 2.787 1_556 S
C2511 O2486 1.252 1_556 S
C2511 O2489 1.268 1_556 S
C2511 C2504 1.506 . S
H2512 C2495 0.931 . S
H2513 C2496 0.931 . S
H2514 C2497 0.929 . S
H2515 C2498 0.930 . S
H2516 C2506 0.931 . S
H2517 C2507 0.931 . S
H2518 C2508 0.930 . S
H2519 C2509 0.929 . S
Eu2520 N2549 2.600 . S
Eu2520 N2555 2.562 . S
Eu2520 O2564 2.462 . S
Eu2520 O2565 2.373 . S
Eu2520 O2567 2.432 . S
Eu2520 O2568 2.291 . S
Eu2520 O2572 2.335 . S
Eu2520 O2575 2.372 . S
Eu2520 C2584 2.787 . S
C2521 N2522 1.365 . S
C2521 C2524 1.405 . S
C2521 C2528 1.448 . S
N2522 C2521 1.365 . S
N2522 C2525 1.319 . S
N2522 Eu2531 2.600 . S
C2523 C2525 1.397 . S
C2523 C2526 1.367 . S
C2523 H2543 0.931 . S
C2524 C2521 1.405 . S
C2524 C2526 1.403 . S
C2524 C2530 1.439 . S
C2525 N2522 1.319 . S
C2525 C2523 1.397 . S
C2525 H2536 0.930 . S
C2526 C2523 1.367 . S
C2526 C2524 1.403 . S
C2526 H2547 0.929 . S
C2527 C2528 1.430 . S
C2527 C2529 1.387 . S
C2527 C2533 1.404 . S
C2528 C2521 1.448 . S
C2528 C2527 1.430 . S
C2528 N2532 1.351 . S
C2529 C2527 1.387 . S
C2529 C2530 1.374 . S
C2529 H2544 0.931 . S
C2530 C2524 1.439 . S
C2530 C2529 1.374 . S
C2530 H2545 0.931 . S
Eu2531 N2522 2.600 . S
Eu2531 N2532 2.562 . S
Eu2531 O2566 2.335 . S
Eu2531 O2569 2.372 . S
Eu2531 O2570 2.462 . S
Eu2531 O2571 2.373 . S
Eu2531 O2573 2.432 . S
Eu2531 O2574 2.291 . S
Eu2531 C2595 2.787 . S
N2532 C2528 1.351 . S
N2532 Eu2531 2.562 . S
N2532 C2534 1.325 . S
C2533 C2527 1.404 . S
C2533 C2535 1.366 . S
C2533 H2541 0.930 . S
C2534 N2532 1.325 . S
C2534 C2535 1.416 . S
C2534 H2540 0.929 . S
C2535 C2533 1.366 . S
C2535 C2534 1.416 . S
C2535 H2537 0.930 . S
H2536 C2525 0.930 . S
H2537 C2535 0.930 . S
H2538 C2553 0.930 . S
H2539 C2560 0.930 . S
H2540 C2534 0.929 . S
H2541 C2533 0.930 . S
H2542 C2556 0.929 . S
H2543 C2523 0.931 . S
H2544 C2529 0.931 . S
H2545 C2530 0.931 . S
H2546 C2551 0.931 . S
H2547 C2526 0.929 . S
H2548 C2559 0.930 1_565 S
N2549 Eu2520 2.600 . S
N2549 C2550 1.365 . S
N2549 C2553 1.319 . S
C2550 N2549 1.365 . S
C2550 C2552 1.405 . S
C2550 C2558 1.448 . S
C2551 H2546 0.931 . S
C2551 C2553 1.397 . S
C2551 C2554 1.367 . S
C2552 C2550 1.405 . S
C2552 C2554 1.403 . S
C2552 C2585 1.439 . S
C2553 H2538 0.930 . S
C2553 N2549 1.319 . S
C2553 C2551 1.397 . S
C2554 C2551 1.367 . S
C2554 C2552 1.403 . S
C2554 H2561 0.929 . S
N2555 Eu2520 2.562 . S
N2555 C2556 1.325 . S
N2555 C2558 1.351 . S
C2556 H2542 0.929 . S
C2556 N2555 1.325 . S
C2556 C2560 1.416 . S
C2557 C2558 1.430 . S
C2557 C2559 1.404 . S
C2557 C2586 1.387 . S
C2558 C2550 1.448 . S
C2558 N2555 1.351 . S
C2558 C2557 1.430 . S
C2559 H2548 0.930 1_545 S
C2559 C2557 1.404 . S
C2559 C2560 1.366 . S
C2560 H2539 0.930 . S
C2560 C2556 1.416 . S
C2560 C2559 1.366 . S
H2561 C2554 0.929 . S
H2562 C2585 0.931 . S
H2563 C2586 0.931 1_565 S
O2564 Eu2520 2.462 . S
O2564 C2584 1.252 . S
O2565 Eu2520 2.373 . S
O2565 C2576 1.249 . S
O2566 Eu2531 2.335 . S
O2566 C2576 1.264 . S
O2567 Eu2520 2.432 . S
O2567 C2584 1.268 . S
O2568 Eu2520 2.291 . S
O2568 C2583 1.255 . S
O2569 Eu2531 2.372 . S
O2569 C2583 1.257 . S
O2570 Eu2531 2.462 . S
O2570 C2595 1.252 . S
O2571 Eu2531 2.373 . S
O2571 C2587 1.249 . S
O2572 Eu2520 2.335 . S
O2572 C2587 1.264 . S
O2573 Eu2531 2.432 . S
O2573 C2595 1.268 . S
O2574 Eu2531 2.291 . S
O2574 C2594 1.255 . S
O2575 Eu2520 2.372 . S
O2575 C2594 1.257 . S
C2576 O2565 1.249 . S
C2576 O2566 1.264 . S
C2577 C2580 1.382 . S
C2577 C2582 1.390 . S
C2577 C2584 1.506 . S
C2578 C2579 1.398 . S
C2578 C2582 1.392 . S
C2579 C2578 1.398 . S
C2579 C2581 1.372 . S
C2579 H2596 0.931 . S
C2580 C2577 1.382 . S
C2580 C2581 1.390 . S
C2580 H2597 0.931 . S
C2581 C2579 1.372 . S
C2581 C2580 1.390 . S
C2581 H2598 0.929 . S
C2582 C2577 1.390 . S
C2582 C2578 1.392 . S
C2582 H2599 0.930 . S
C2583 O2568 1.255 . S
C2583 O2569 1.257 . S
C2584 Eu2520 2.787 . S
C2584 O2564 1.252 . S
C2584 O2567 1.268 . S
C2584 C2577 1.506 . S
C2585 C2552 1.439 . S
C2585 H2562 0.931 . S
C2585 C2586 1.374 . S
C2586 C2557 1.387 . S
C2586 H2563 0.931 1_545 S
C2586 C2585 1.374 . S
C2587 O2571 1.249 . S
C2587 O2572 1.264 . S
C2588 C2591 1.382 . S
C2588 C2592 1.390 . S
C2588 C2595 1.506 . S
C2589 C2590 1.398 . S
C2589 C2592 1.392 1_554 S
C2590 C2589 1.398 . S
C2590 C2593 1.372 . S
C2590 H2600 0.931 . S
C2591 C2588 1.382 . S
C2591 C2593 1.390 1_556 S
C2591 H2601 0.931 . S
C2592 C2588 1.390 . S
C2592 C2589 1.392 1_556 S
C2592 H2602 0.930 . S
C2593 C2590 1.372 . S
C2593 C2591 1.390 1_554 S
C2593 H2603 0.929 . S
C2594 O2574 1.255 . S
C2594 O2575 1.257 . S
C2595 Eu2531 2.787 . S
C2595 O2570 1.252 . S
C2595 O2573 1.268 . S
C2595 C2588 1.506 . S
H2596 C2579 0.931 . S
H2597 C2580 0.931 . S
H2598 C2581 0.929 . S
H2599 C2582 0.930 . S
H2600 C2590 0.931 . S
H2601 C2591 0.931 . S
H2602 C2592 0.930 . S
H2603 C2593 0.929 . S
Eu2604 N2633 2.600 . S
Eu2604 N2639 2.562 . S
Eu2604 O2648 2.462 . S
Eu2604 O2649 2.373 . S
Eu2604 O2651 2.432 . S
Eu2604 O2652 2.291 . S
Eu2604 O2656 2.335 . S
Eu2604 O2659 2.372 1_545 S
Eu2604 C2668 2.787 . S
C2605 N2606 1.365 . S
C2605 C2608 1.405 . S
C2605 C2612 1.448 . S
N2606 C2605 1.365 . S
N2606 C2609 1.319 . S
N2606 Eu2615 2.600 . S
C2607 C2609 1.397 . S
C2607 C2610 1.367 . S
C2607 H2627 0.931 . S
C2608 C2605 1.405 . S
C2608 C2610 1.403 . S
C2608 C2614 1.439 . S
C2609 N2606 1.319 . S
C2609 C2607 1.397 . S
C2609 H2620 0.930 . S
C2610 C2607 1.367 . S
C2610 C2608 1.403 . S
C2610 H2631 0.929 . S
C2611 C2612 1.430 . S
C2611 C2613 1.387 . S
C2611 C2617 1.404 1_545 S
C2612 C2605 1.448 . S
C2612 C2611 1.430 . S
C2612 N2616 1.351 . S
C2613 C2611 1.387 . S
C2613 C2614 1.374 . S
C2613 H2628 0.931 . S
C2614 C2608 1.439 . S
C2614 C2613 1.374 . S
C2614 H2629 0.931 . S
Eu2615 N2606 2.600 . S
Eu2615 N2616 2.562 . S
Eu2615 O2650 2.335 . S
Eu2615 O2653 2.372 . S
Eu2615 O2654 2.462 . S
Eu2615 O2655 2.373 . S
Eu2615 O2657 2.432 . S
Eu2615 O2658 2.291 . S
Eu2615 C2679 2.787 . S
N2616 C2612 1.351 . S
N2616 Eu2615 2.562 . S
N2616 C2618 1.325 1_545 S
C2617 C2611 1.404 1_565 S
C2617 C2619 1.366 . S
C2617 H2625 0.930 . S
C2618 N2616 1.325 1_565 S
C2618 C2619 1.416 . S
C2618 H2624 0.929 . S
C2619 C2617 1.366 . S
C2619 C2618 1.416 . S
C2619 H2621 0.930 . S
H2620 C2609 0.930 . S
H2621 C2619 0.930 . S
H2622 C2637 0.930 . S
H2623 C2644 0.930 . S
H2624 C2618 0.929 . S
H2625 C2617 0.930 . S
H2626 C2640 0.929 . S
H2627 C2607 0.931 . S
H2628 C2613 0.931 . S
H2629 C2614 0.931 . S
H2630 C2635 0.931 . S
H2631 C2610 0.929 . S
H2632 C2643 0.930 1_455 S
N2633 Eu2604 2.600 . S
N2633 C2634 1.365 . S
N2633 C2637 1.319 1_545 S
C2634 N2633 1.365 . S
C2634 C2636 1.405 . S
C2634 C2642 1.448 . S
C2635 H2630 0.931 . S
C2635 C2637 1.397 . S
C2635 C2638 1.367 . S
C2636 C2634 1.405 . S
C2636 C2638 1.403 1_545 S
C2636 C2669 1.439 . S
C2637 H2622 0.930 . S
C2637 N2633 1.319 1_565 S
C2637 C2635 1.397 . S
C2638 C2635 1.367 . S
C2638 C2636 1.403 1_565 S
C2638 H2645 0.929 . S
N2639 Eu2604 2.562 . S
N2639 C2640 1.325 . S
N2639 C2642 1.351 . S
C2640 H2626 0.929 . S
C2640 N2639 1.325 . S
C2640 C2644 1.416 . S
C2641 C2642 1.430 . S
C2641 C2643 1.404 . S
C2641 C2670 1.387 . S
C2642 C2634 1.448 . S
C2642 N2639 1.351 . S
C2642 C2641 1.430 . S
C2643 H2632 0.930 1_655 S
C2643 C2641 1.404 . S
C2643 C2644 1.366 . S
C2644 H2623 0.930 . S
C2644 C2640 1.416 . S
C2644 C2643 1.366 . S
H2645 C2638 0.929 . S
H2646 C2669 0.931 . S
H2647 C2670 0.931 1_455 S
O2648 Eu2604 2.462 . S
O2648 C2668 1.252 . S
O2649 Eu2604 2.373 . S
O2649 C2660 1.249 . S
O2650 Eu2615 2.335 . S
O2650 C2660 1.264 . S
O2651 Eu2604 2.432 . S
O2651 C2668 1.268 . S
O2652 Eu2604 2.291 . S
O2652 C2667 1.255 . S
O2653 Eu2615 2.372 . S
O2653 C2667 1.257 . S
O2654 Eu2615 2.462 . S
O2654 C2679 1.252 . S
O2655 Eu2615 2.373 . S
O2655 C2671 1.249 . S
O2656 Eu2604 2.335 . S
O2656 C2671 1.264 . S
O2657 Eu2615 2.432 . S
O2657 C2679 1.268 . S
O2658 Eu2615 2.291 . S
O2658 C2678 1.255 1_545 S
O2659 Eu2604 2.372 1_565 S
O2659 C2678 1.257 . S
C2660 O2649 1.249 . S
C2660 O2650 1.264 . S
C2661 C2664 1.382 . S
C2661 C2666 1.390 . S
C2661 C2668 1.506 . S
C2662 C2663 1.398 . S
C2662 C2666 1.392 . S
C2663 C2662 1.398 . S
C2663 C2665 1.372 . S
C2663 H2680 0.931 . S
C2664 C2661 1.382 . S
C2664 C2665 1.390 . S
C2664 H2681 0.931 . S
C2665 C2663 1.372 . S
C2665 C2664 1.390 . S
C2665 H2682 0.929 . S
C2666 C2661 1.390 . S
C2666 C2662 1.392 . S
C2666 H2683 0.930 . S
C2667 O2652 1.255 . S
C2667 O2653 1.257 . S
C2668 Eu2604 2.787 . S
C2668 O2648 1.252 . S
C2668 O2651 1.268 . S
C2668 C2661 1.506 . S
C2669 C2636 1.439 . S
C2669 H2646 0.931 . S
C2669 C2670 1.374 . S
C2670 C2641 1.387 . S
C2670 H2647 0.931 1_655 S
C2670 C2669 1.374 . S
C2671 O2655 1.249 . S
C2671 O2656 1.264 . S
C2672 C2675 1.382 . S
C2672 C2676 1.390 . S
C2672 C2679 1.506 . S
C2673 C2674 1.398 . S
C2673 C2676 1.392 1_554 S
C2674 C2673 1.398 . S
C2674 C2677 1.372 . S
C2674 H2684 0.931 . S
C2675 C2672 1.382 . S
C2675 C2677 1.390 1_556 S
C2675 H2685 0.931 . S
C2676 C2672 1.390 . S
C2676 C2673 1.392 1_556 S
C2676 H2686 0.930 . S
C2677 C2674 1.372 . S
C2677 C2675 1.390 1_554 S
C2677 H2687 0.929 . S
C2678 O2658 1.255 1_565 S
C2678 O2659 1.257 . S
C2679 Eu2615 2.787 . S
C2679 O2654 1.252 . S
C2679 O2657 1.268 . S
C2679 C2672 1.506 . S
H2680 C2663 0.931 . S
H2681 C2664 0.931 . S
H2682 C2665 0.929 . S
H2683 C2666 0.930 . S
H2684 C2674 0.931 . S
H2685 C2675 0.931 . S
H2686 C2676 0.930 . S
H2687 C2677 0.929 . S
Eu2688 N2717 2.600 . S
Eu2688 N2723 2.562 . S
Eu2688 O2732 2.462 . S
Eu2688 O2733 2.373 . S
Eu2688 O2735 2.432 . S
Eu2688 O2736 2.291 . S
Eu2688 O2740 2.335 . S
Eu2688 O2743 2.372 1_655 S
Eu2688 C2752 2.787 . S
C2689 N2690 1.365 . S
C2689 C2692 1.405 . S
C2689 C2696 1.448 . S
N2690 C2689 1.365 . S
N2690 C2693 1.319 . S
N2690 Eu2699 2.600 . S
C2691 C2693 1.397 . S
C2691 C2694 1.367 . S
C2691 H2711 0.931 . S
C2692 C2689 1.405 . S
C2692 C2694 1.403 . S
C2692 C2698 1.439 . S
C2693 N2690 1.319 . S
C2693 C2691 1.397 . S
C2693 H2704 0.930 . S
C2694 C2691 1.367 . S
C2694 C2692 1.403 . S
C2694 H2715 0.929 . S
C2695 C2696 1.430 . S
C2695 C2697 1.387 . S
C2695 C2701 1.404 1_655 S
C2696 C2689 1.448 . S
C2696 C2695 1.430 . S
C2696 N2700 1.351 . S
C2697 C2695 1.387 . S
C2697 C2698 1.374 . S
C2697 H2712 0.931 . S
C2698 C2692 1.439 . S
C2698 C2697 1.374 . S
C2698 H2713 0.931 . S
Eu2699 N2690 2.600 . S
Eu2699 N2700 2.562 . S
Eu2699 O2734 2.335 . S
Eu2699 O2737 2.372 . S
Eu2699 O2738 2.462 . S
Eu2699 O2739 2.373 . S
Eu2699 O2741 2.432 . S
Eu2699 O2742 2.291 . S
Eu2699 C2763 2.787 . S
N2700 C2696 1.351 . S
N2700 Eu2699 2.562 . S
N2700 C2702 1.325 1_655 S
C2701 C2695 1.404 1_455 S
C2701 C2703 1.366 . S
C2701 H2709 0.930 . S
C2702 N2700 1.325 1_455 S
C2702 C2703 1.416 . S
C2702 H2708 0.929 . S
C2703 C2701 1.366 . S
C2703 C2702 1.416 . S
C2703 H2705 0.930 . S
H2704 C2693 0.930 . S
H2705 C2703 0.930 . S
H2706 C2721 0.930 . S
H2707 C2728 0.930 . S
H2708 C2702 0.929 . S
H2709 C2701 0.930 . S
H2710 C2724 0.929 . S
H2711 C2691 0.931 . S
H2712 C2697 0.931 . S
H2713 C2698 0.931 . S
H2714 C2719 0.931 . S
H2715 C2694 0.929 . S
H2716 C2727 0.930 . S
N2717 Eu2688 2.600 . S
N2717 C2718 1.365 . S
N2717 C2721 1.319 1_655 S
C2718 N2717 1.365 . S
C2718 C2720 1.405 . S
C2718 C2726 1.448 . S
C2719 H2714 0.931 . S
C2719 C2721 1.397 . S
C2719 C2722 1.367 . S
C2720 C2718 1.405 . S
C2720 C2722 1.403 1_655 S
C2720 C2753 1.439 . S
C2721 H2706 0.930 . S
C2721 N2717 1.319 1_455 S
C2721 C2719 1.397 . S
C2722 C2719 1.367 . S
C2722 C2720 1.403 1_455 S
C2722 H2729 0.929 . S
N2723 Eu2688 2.562 . S
N2723 C2724 1.325 . S
N2723 C2726 1.351 . S
C2724 H2710 0.929 . S
C2724 N2723 1.325 . S
C2724 C2728 1.416 . S
C2725 C2726 1.430 . S
C2725 C2727 1.404 . S
C2725 C2754 1.387 . S
C2726 C2718 1.448 . S
C2726 N2723 1.351 . S
C2726 C2725 1.430 . S
C2727 H2716 0.930 . S
C2727 C2725 1.404 . S
C2727 C2728 1.366 . S
C2728 H2707 0.930 . S
C2728 C2724 1.416 . S
C2728 C2727 1.366 . S
H2729 C2722 0.929 . S
H2730 C2753 0.931 . S
H2731 C2754 0.931 . S
O2732 Eu2688 2.462 . S
O2732 C2752 1.252 . S
O2733 Eu2688 2.373 . S
O2733 C2744 1.249 . S
O2734 Eu2699 2.335 . S
O2734 C2744 1.264 . S
O2735 Eu2688 2.432 . S
O2735 C2752 1.268 . S
O2736 Eu2688 2.291 . S
O2736 C2751 1.255 . S
O2737 Eu2699 2.372 . S
O2737 C2751 1.257 . S
O2738 Eu2699 2.462 . S
O2738 C2763 1.252 . S
O2739 Eu2699 2.373 . S
O2739 C2755 1.249 . S
O2740 Eu2688 2.335 . S
O2740 C2755 1.264 . S
O2741 Eu2699 2.432 . S
O2741 C2763 1.268 . S
O2742 Eu2699 2.291 . S
O2742 C2762 1.255 1_655 S
O2743 Eu2688 2.372 1_455 S
O2743 C2762 1.257 . S
C2744 O2733 1.249 . S
C2744 O2734 1.264 . S
C2745 C2748 1.382 . S
C2745 C2750 1.390 . S
C2745 C2752 1.506 . S
C2746 C2747 1.398 . S
C2746 C2750 1.392 . S
C2747 C2746 1.398 . S
C2747 C2749 1.372 . S
C2747 H2764 0.931 . S
C2748 C2745 1.382 . S
C2748 C2749 1.390 . S
C2748 H2765 0.931 . S
C2749 C2747 1.372 . S
C2749 C2748 1.390 . S
C2749 H2766 0.929 . S
C2750 C2745 1.390 . S
C2750 C2746 1.392 . S
C2750 H2767 0.930 . S
C2751 O2736 1.255 . S
C2751 O2737 1.257 . S
C2752 Eu2688 2.787 . S
C2752 O2732 1.252 . S
C2752 O2735 1.268 . S
C2752 C2745 1.506 . S
C2753 C2720 1.439 . S
C2753 H2730 0.931 . S
C2753 C2754 1.374 . S
C2754 C2725 1.387 . S
C2754 H2731 0.931 . S
C2754 C2753 1.374 . S
C2755 O2739 1.249 . S
C2755 O2740 1.264 . S
C2756 C2759 1.382 . S
C2756 C2760 1.390 . S
C2756 C2763 1.506 . S
C2757 C2758 1.398 . S
C2757 C2760 1.392 1_554 S
C2758 C2757 1.398 . S
C2758 C2761 1.372 . S
C2758 H2768 0.931 . S
C2759 C2756 1.382 . S
C2759 C2761 1.390 1_556 S
C2759 H2769 0.931 . S
C2760 C2756 1.390 . S
C2760 C2757 1.392 1_556 S
C2760 H2770 0.930 . S
C2761 C2758 1.372 . S
C2761 C2759 1.390 1_554 S
C2761 H2771 0.929 . S
C2762 O2742 1.255 1_455 S
C2762 O2743 1.257 . S
C2763 Eu2699 2.787 . S
C2763 O2738 1.252 . S
C2763 O2741 1.268 . S
C2763 C2756 1.506 . S
H2764 C2747 0.931 . S
H2765 C2748 0.931 . S
H2766 C2749 0.929 . S
H2767 C2750 0.930 . S
H2768 C2758 0.931 . S
H2769 C2759 0.931 . S
H2770 C2760 0.930 . S
H2771 C2761 0.929 . S
Eu2772 N2801 2.600 . S
Eu2772 N2807 2.562 . S
Eu2772 O2816 2.462 . S
Eu2772 O2817 2.373 . S
Eu2772 O2819 2.432 . S
Eu2772 O2820 2.291 . S
Eu2772 O2824 2.335 . S
Eu2772 O2827 2.372 . S
Eu2772 C2836 2.787 . S
C2773 N2774 1.365 . S
C2773 C2776 1.405 1_655 S
C2773 C2780 1.448 1_655 S
N2774 C2773 1.365 . S
N2774 C2777 1.319 . S
N2774 Eu2783 2.600 . S
C2775 C2777 1.397 . S
C2775 C2778 1.367 . S
C2775 H2795 0.931 . S
C2776 C2773 1.405 1_455 S
C2776 C2778 1.403 1_455 S
C2776 C2782 1.439 . S
C2777 N2774 1.319 . S
C2777 C2775 1.397 . S
C2777 H2788 0.930 . S
C2778 C2775 1.367 . S
C2778 C2776 1.403 1_655 S
C2778 H2799 0.929 1_655 S
C2779 C2780 1.430 . S
C2779 C2781 1.387 . S
C2779 C2785 1.404 . S
C2780 C2773 1.448 1_455 S
C2780 C2779 1.430 . S
C2780 N2784 1.351 1_455 S
C2781 C2779 1.387 . S
C2781 C2782 1.374 . S
C2781 H2796 0.931 . S
C2782 C2776 1.439 . S
C2782 C2781 1.374 . S
C2782 H2797 0.931 . S
Eu2783 N2774 2.600 . S
Eu2783 N2784 2.562 . S
Eu2783 O2818 2.335 . S
Eu2783 O2821 2.372 . S
Eu2783 O2822 2.462 . S
Eu2783 O2823 2.373 . S
Eu2783 O2825 2.432 . S
Eu2783 O2826 2.291 . S
Eu2783 C2847 2.787 . S
N2784 C2780 1.351 1_655 S
N2784 Eu2783 2.562 . S
N2784 C2786 1.325 1_655 S
C2785 C2779 1.404 . S
C2785 C2787 1.366 . S
C2785 H2793 0.930 . S
C2786 N2784 1.325 1_455 S
C2786 C2787 1.416 . S
C2786 H2792 0.929 1_455 S
C2787 C2785 1.366 . S
C2787 C2786 1.416 . S
C2787 H2789 0.930 . S
H2788 C2777 0.930 . S
H2789 C2787 0.930 . S
H2790 C2805 0.930 . S
H2791 C2812 0.930 . S
H2792 C2786 0.929 1_655 S
H2793 C2785 0.930 . S
H2794 C2808 0.929 . S
H2795 C2775 0.931 . S
H2796 C2781 0.931 . S
H2797 C2782 0.931 . S
H2798 C2803 0.931 . S
H2799 C2778 0.929 1_455 S
H2800 C2811 0.930 . S
N2801 Eu2772 2.600 . S
N2801 C2802 1.365 . S
N2801 C2805 1.319 . S
C2802 N2801 1.365 . S
C2802 C2804 1.405 . S
C2802 C2810 1.448 . S
C2803 H2798 0.931 . S
C2803 C2805 1.397 . S
C2803 C2806 1.367 . S
C2804 C2802 1.405 . S
C2804 C2806 1.403 . S
C2804 C2837 1.439 . S
C2805 H2790 0.930 . S
C2805 N2801 1.319 . S
C2805 C2803 1.397 . S
C2806 C2803 1.367 . S
C2806 C2804 1.403 . S
C2806 H2813 0.929 . S
N2807 Eu2772 2.562 . S
N2807 C2808 1.325 . S
N2807 C2810 1.351 . S
C2808 H2794 0.929 . S
C2808 N2807 1.325 . S
C2808 C2812 1.416 . S
C2809 C2810 1.430 . S
C2809 C2811 1.404 . S
C2809 C2838 1.387 . S
C2810 C2802 1.448 . S
C2810 N2807 1.351 . S
C2810 C2809 1.430 . S
C2811 H2800 0.930 . S
C2811 C2809 1.404 . S
C2811 C2812 1.366 . S
C2812 H2791 0.930 . S
C2812 C2808 1.416 . S
C2812 C2811 1.366 . S
H2813 C2806 0.929 . S
H2814 C2837 0.931 . S
H2815 C2838 0.931 . S
O2816 Eu2772 2.462 . S
O2816 C2836 1.252 . S
O2817 Eu2772 2.373 . S
O2817 C2828 1.249 . S
O2818 Eu2783 2.335 . S
O2818 C2828 1.264 . S
O2819 Eu2772 2.432 . S
O2819 C2836 1.268 . S
O2820 Eu2772 2.291 . S
O2820 C2835 1.255 . S
O2821 Eu2783 2.372 . S
O2821 C2835 1.257 . S
O2822 Eu2783 2.462 . S
O2822 C2847 1.252 . S
O2823 Eu2783 2.373 . S
O2823 C2839 1.249 . S
O2824 Eu2772 2.335 . S
O2824 C2839 1.264 . S
O2825 Eu2783 2.432 . S
O2825 C2847 1.268 . S
O2826 Eu2783 2.291 . S
O2826 C2846 1.255 . S
O2827 Eu2772 2.372 . S
O2827 C2846 1.257 . S
C2828 O2817 1.249 . S
C2828 O2818 1.264 . S
C2829 C2832 1.382 . S
C2829 C2834 1.390 . S
C2829 C2836 1.506 . S
C2830 C2831 1.398 . S
C2830 C2834 1.392 . S
C2831 C2830 1.398 . S
C2831 C2833 1.372 . S
C2831 H2848 0.931 . S
C2832 C2829 1.382 . S
C2832 C2833 1.390 . S
C2832 H2849 0.931 . S
C2833 C2831 1.372 . S
C2833 C2832 1.390 . S
C2833 H2850 0.929 . S
C2834 C2829 1.390 . S
C2834 C2830 1.392 . S
C2834 H2851 0.930 . S
C2835 O2820 1.255 . S
C2835 O2821 1.257 . S
C2836 Eu2772 2.787 . S
C2836 O2816 1.252 . S
C2836 O2819 1.268 . S
C2836 C2829 1.506 . S
C2837 C2804 1.439 . S
C2837 H2814 0.931 . S
C2837 C2838 1.374 . S
C2838 C2809 1.387 . S
C2838 H2815 0.931 . S
C2838 C2837 1.374 . S
C2839 O2823 1.249 . S
C2839 O2824 1.264 . S
C2840 C2843 1.382 . S
C2840 C2844 1.390 . S
C2840 C2847 1.506 . S
C2841 C2842 1.398 . S
C2841 C2844 1.392 1_556 S
C2842 C2841 1.398 . S
C2842 C2845 1.372 . S
C2842 H2852 0.931 1_655 S
C2843 C2840 1.382 . S
C2843 C2845 1.390 1_554 S
C2843 H2853 0.931 . S
C2844 C2840 1.390 . S
C2844 C2841 1.392 1_554 S
C2844 H2854 0.930 . S
C2845 C2842 1.372 . S
C2845 C2843 1.390 1_556 S
C2845 H2855 0.929 . S
C2846 O2826 1.255 . S
C2846 O2827 1.257 . S
C2847 Eu2783 2.787 . S
C2847 O2822 1.252 . S
C2847 O2825 1.268 . S
C2847 C2840 1.506 . S
H2848 C2831 0.931 . S
H2849 C2832 0.931 . S
H2850 C2833 0.929 . S
H2851 C2834 0.930 . S
H2852 C2842 0.931 1_455 S
H2853 C2843 0.931 . S
H2854 C2844 0.930 . S
H2855 C2845 0.929 . S
Eu2856 N2885 2.600 . S
Eu2856 N2891 2.562 . S
Eu2856 O2900 2.462 . S
Eu2856 O2901 2.373 . S
Eu2856 O2903 2.432 . S
Eu2856 O2904 2.291 . S
Eu2856 O2908 2.335 . S
Eu2856 O2911 2.372 . S
Eu2856 C2920 2.787 . S
C2857 N2858 1.365 . S
C2857 C2860 1.405 . S
C2857 C2864 1.448 . S
N2858 C2857 1.365 . S
N2858 C2861 1.319 . S
N2858 Eu2867 2.600 . S
C2859 C2861 1.397 . S
C2859 C2862 1.367 . S
C2859 H2879 0.931 . S
C2860 C2857 1.405 . S
C2860 C2862 1.403 . S
C2860 C2866 1.439 . S
C2861 N2858 1.319 . S
C2861 C2859 1.397 . S
C2861 H2872 0.930 . S
C2862 C2859 1.367 . S
C2862 C2860 1.403 . S
C2862 H2883 0.929 . S
C2863 C2864 1.430 . S
C2863 C2865 1.387 . S
C2863 C2869 1.404 . S
C2864 C2857 1.448 . S
C2864 C2863 1.430 . S
C2864 N2868 1.351 . S
C2865 C2863 1.387 . S
C2865 C2866 1.374 . S
C2865 H2880 0.931 . S
C2866 C2860 1.439 . S
C2866 C2865 1.374 . S
C2866 H2881 0.931 . S
Eu2867 N2858 2.600 . S
Eu2867 N2868 2.562 . S
Eu2867 O2902 2.335 . S
Eu2867 O2905 2.372 . S
Eu2867 O2906 2.462 . S
Eu2867 O2907 2.373 . S
Eu2867 O2909 2.432 . S
Eu2867 O2910 2.291 . S
Eu2867 C2931 2.787 . S
N2868 C2864 1.351 . S
N2868 Eu2867 2.562 . S
N2868 C2870 1.325 . S
C2869 C2863 1.404 . S
C2869 C2871 1.366 . S
C2869 H2877 0.930 . S
C2870 N2868 1.325 . S
C2870 C2871 1.416 . S
C2870 H2876 0.929 . S
C2871 C2869 1.366 . S
C2871 C2870 1.416 . S
C2871 H2873 0.930 . S
H2872 C2861 0.930 . S
H2873 C2871 0.930 . S
H2874 C2889 0.930 . S
H2875 C2896 0.930 . S
H2876 C2870 0.929 . S
H2877 C2869 0.930 . S
H2878 C2892 0.929 . S
H2879 C2859 0.931 . S
H2880 C2865 0.931 . S
H2881 C2866 0.931 . S
H2882 C2887 0.931 . S
H2883 C2862 0.929 . S
H2884 C2895 0.930 . S
N2885 Eu2856 2.600 . S
N2885 C2886 1.365 . S
N2885 C2889 1.319 . S
C2886 N2885 1.365 . S
C2886 C2888 1.405 . S
C2886 C2894 1.448 . S
C2887 H2882 0.931 . S
C2887 C2889 1.397 . S
C2887 C2890 1.367 . S
C2888 C2886 1.405 . S
C2888 C2890 1.403 . S
C2888 C2921 1.439 . S
C2889 H2874 0.930 . S
C2889 N2885 1.319 . S
C2889 C2887 1.397 . S
C2890 C2887 1.367 . S
C2890 C2888 1.403 . S
C2890 H2897 0.929 . S
N2891 Eu2856 2.562 . S
N2891 C2892 1.325 . S
N2891 C2894 1.351 . S
C2892 H2878 0.929 . S
C2892 N2891 1.325 . S
C2892 C2896 1.416 . S
C2893 C2894 1.430 . S
C2893 C2895 1.404 . S
C2893 C2922 1.387 . S
C2894 C2886 1.448 . S
C2894 N2891 1.351 . S
C2894 C2893 1.430 . S
C2895 H2884 0.930 . S
C2895 C2893 1.404 . S
C2895 C2896 1.366 . S
C2896 H2875 0.930 . S
C2896 C2892 1.416 . S
C2896 C2895 1.366 . S
H2897 C2890 0.929 . S
H2898 C2921 0.931 . S
H2899 C2922 0.931 . S
O2900 Eu2856 2.462 . S
O2900 C2920 1.252 . S
O2901 Eu2856 2.373 . S
O2901 C2912 1.249 . S
O2902 Eu2867 2.335 . S
O2902 C2912 1.264 . S
O2903 Eu2856 2.432 . S
O2903 C2920 1.268 . S
O2904 Eu2856 2.291 . S
O2904 C2919 1.255 . S
O2905 Eu2867 2.372 . S
O2905 C2919 1.257 . S
O2906 Eu2867 2.462 . S
O2906 C2931 1.252 . S
O2907 Eu2867 2.373 . S
O2907 C2923 1.249 . S
O2908 Eu2856 2.335 . S
O2908 C2923 1.264 . S
O2909 Eu2867 2.432 . S
O2909 C2931 1.268 . S
O2910 Eu2867 2.291 . S
O2910 C2930 1.255 . S
O2911 Eu2856 2.372 . S
O2911 C2930 1.257 . S
C2912 O2901 1.249 . S
C2912 O2902 1.264 . S
C2913 C2916 1.382 . S
C2913 C2918 1.390 . S
C2913 C2920 1.506 . S
C2914 C2915 1.398 . S
C2914 C2918 1.392 . S
C2915 C2914 1.398 . S
C2915 C2917 1.372 . S
C2915 H2932 0.931 . S
C2916 C2913 1.382 . S
C2916 C2917 1.390 . S
C2916 H2933 0.931 . S
C2917 C2915 1.372 . S
C2917 C2916 1.390 . S
C2917 H2934 0.929 . S
C2918 C2913 1.390 . S
C2918 C2914 1.392 . S
C2918 H2935 0.930 . S
C2919 O2904 1.255 . S
C2919 O2905 1.257 . S
C2920 Eu2856 2.787 . S
C2920 O2900 1.252 . S
C2920 O2903 1.268 . S
C2920 C2913 1.506 . S
C2921 C2888 1.439 . S
C2921 H2898 0.931 . S
C2921 C2922 1.374 . S
C2922 C2893 1.387 . S
C2922 H2899 0.931 . S
C2922 C2921 1.374 . S
C2923 O2907 1.249 . S
C2923 O2908 1.264 . S
C2924 C2927 1.382 . S
C2924 C2928 1.390 . S
C2924 C2931 1.506 . S
C2925 C2926 1.398 . S
C2925 C2928 1.392 1_556 S
C2926 C2925 1.398 . S
C2926 C2929 1.372 . S
C2926 H2936 0.931 . S
C2927 C2924 1.382 . S
C2927 C2929 1.390 1_554 S
C2927 H2937 0.931 . S
C2928 C2924 1.390 . S
C2928 C2925 1.392 1_554 S
C2928 H2938 0.930 . S
C2929 C2926 1.372 . S
C2929 C2927 1.390 1_556 S
C2929 H2939 0.929 . S
C2930 O2910 1.255 . S
C2930 O2911 1.257 . S
C2931 Eu2867 2.787 . S
C2931 O2906 1.252 . S
C2931 O2909 1.268 . S
C2931 C2924 1.506 . S
H2932 C2915 0.931 . S
H2933 C2916 0.931 . S
H2934 C2917 0.929 . S
H2935 C2918 0.930 . S
H2936 C2926 0.931 . S
H2937 C2927 0.931 . S
H2938 C2928 0.930 . S
H2939 C2929 0.929 . S
Eu2940 N2969 2.600 . S
Eu2940 N2975 2.562 . S
Eu2940 O2984 2.462 . S
Eu2940 O2985 2.373 . S
Eu2940 O2987 2.432 . S
Eu2940 O2988 2.291 . S
Eu2940 O2992 2.335 . S
Eu2940 O2995 2.372 . S
Eu2940 C3004 2.787 . S
C2941 N2942 1.365 . S
C2941 C2944 1.405 1_545 S
C2941 C2948 1.448 1_545 S
N2942 C2941 1.365 . S
N2942 C2945 1.319 . S
N2942 Eu2951 2.600 . S
C2943 C2945 1.397 . S
C2943 C2946 1.367 . S
C2943 H2963 0.931 . S
C2944 C2941 1.405 1_565 S
C2944 C2946 1.403 1_565 S
C2944 C2950 1.439 . S
C2945 N2942 1.319 . S
C2945 C2943 1.397 . S
C2945 H2956 0.930 . S
C2946 C2943 1.367 . S
C2946 C2944 1.403 1_545 S
C2946 H2967 0.929 1_545 S
C2947 C2948 1.430 . S
C2947 C2949 1.387 . S
C2947 C2953 1.404 . S
C2948 C2941 1.448 1_565 S
C2948 C2947 1.430 . S
C2948 N2952 1.351 1_565 S
C2949 C2947 1.387 . S
C2949 C2950 1.374 . S
C2949 H2964 0.931 . S
C2950 C2944 1.439 . S
C2950 C2949 1.374 . S
C2950 H2965 0.931 . S
Eu2951 N2942 2.600 . S
Eu2951 N2952 2.562 . S
Eu2951 O2986 2.335 . S
Eu2951 O2989 2.372 . S
Eu2951 O2990 2.462 . S
Eu2951 O2991 2.373 . S
Eu2951 O2993 2.432 . S
Eu2951 O2994 2.291 . S
Eu2951 C3015 2.787 . S
N2952 C2948 1.351 1_545 S
N2952 Eu2951 2.562 . S
N2952 C2954 1.325 1_545 S
C2953 C2947 1.404 . S
C2953 C2955 1.366 . S
C2953 H2961 0.930 . S
C2954 N2952 1.325 1_565 S
C2954 C2955 1.416 . S
C2954 H2960 0.929 1_565 S
C2955 C2953 1.366 . S
C2955 C2954 1.416 . S
C2955 H2957 0.930 . S
H2956 C2945 0.930 . S
H2957 C2955 0.930 . S
H2958 C2973 0.930 . S
H2959 C2980 0.930 . S
H2960 C2954 0.929 1_545 S
H2961 C2953 0.930 . S
H2962 C2976 0.929 . S
H2963 C2943 0.931 . S
H2964 C2949 0.931 . S
H2965 C2950 0.931 . S
H2966 C2971 0.931 . S
H2967 C2946 0.929 1_565 S
H2968 C2979 0.930 . S
N2969 Eu2940 2.600 . S
N2969 C2970 1.365 . S
N2969 C2973 1.319 . S
C2970 N2969 1.365 . S
C2970 C2972 1.405 . S
C2970 C2978 1.448 . S
C2971 H2966 0.931 . S
C2971 C2973 1.397 . S
C2971 C2974 1.367 . S
C2972 C2970 1.405 . S
C2972 C2974 1.403 . S
C2972 C3005 1.439 . S
C2973 H2958 0.930 . S
C2973 N2969 1.319 . S
C2973 C2971 1.397 . S
C2974 C2971 1.367 . S
C2974 C2972 1.403 . S
C2974 H2981 0.929 . S
N2975 Eu2940 2.562 . S
N2975 C2976 1.325 . S
N2975 C2978 1.351 . S
C2976 H2962 0.929 . S
C2976 N2975 1.325 . S
C2976 C2980 1.416 . S
C2977 C2978 1.430 . S
C2977 C2979 1.404 . S
C2977 C3006 1.387 . S
C2978 C2970 1.448 . S
C2978 N2975 1.351 . S
C2978 C2977 1.430 . S
C2979 H2968 0.930 . S
C2979 C2977 1.404 . S
C2979 C2980 1.366 . S
C2980 H2959 0.930 . S
C2980 C2976 1.416 . S
C2980 C2979 1.366 . S
H2981 C2974 0.929 . S
H2982 C3005 0.931 . S
H2983 C3006 0.931 . S
O2984 Eu2940 2.462 . S
O2984 C3004 1.252 . S
O2985 Eu2940 2.373 . S
O2985 C2996 1.249 . S
O2986 Eu2951 2.335 . S
O2986 C2996 1.264 . S
O2987 Eu2940 2.432 . S
O2987 C3004 1.268 . S
O2988 Eu2940 2.291 . S
O2988 C3003 1.255 . S
O2989 Eu2951 2.372 . S
O2989 C3003 1.257 . S
O2990 Eu2951 2.462 . S
O2990 C3015 1.252 . S
O2991 Eu2951 2.373 . S
O2991 C3007 1.249 . S
O2992 Eu2940 2.335 . S
O2992 C3007 1.264 . S
O2993 Eu2951 2.432 . S
O2993 C3015 1.268 . S
O2994 Eu2951 2.291 . S
O2994 C3014 1.255 . S
O2995 Eu2940 2.372 . S
O2995 C3014 1.257 . S
C2996 O2985 1.249 . S
C2996 O2986 1.264 . S
C2997 C3000 1.382 . S
C2997 C3002 1.390 . S
C2997 C3004 1.506 . S
C2998 C2999 1.398 . S
C2998 C3002 1.392 . S
C2999 C2998 1.398 . S
C2999 C3001 1.372 . S
C2999 H3016 0.931 . S
C3000 C2997 1.382 . S
C3000 C3001 1.390 . S
C3000 H3017 0.931 . S
C3001 C2999 1.372 . S
C3001 C3000 1.390 . S
C3001 H3018 0.929 . S
C3002 C2997 1.390 . S
C3002 C2998 1.392 . S
C3002 H3019 0.930 . S
C3003 O2988 1.255 . S
C3003 O2989 1.257 . S
C3004 Eu2940 2.787 . S
C3004 O2984 1.252 . S
C3004 O2987 1.268 . S
C3004 C2997 1.506 . S
C3005 C2972 1.439 . S
C3005 H2982 0.931 . S
C3005 C3006 1.374 . S
C3006 C2977 1.387 . S
C3006 H2983 0.931 . S
C3006 C3005 1.374 . S
C3007 O2991 1.249 . S
C3007 O2992 1.264 . S
C3008 C3011 1.382 . S
C3008 C3012 1.390 . S
C3008 C3015 1.506 . S
C3009 C3010 1.398 . S
C3009 C3012 1.392 1_556 S
C3010 C3009 1.398 . S
C3010 C3013 1.372 . S
C3010 H3020 0.931 1_545 S
C3011 C3008 1.382 . S
C3011 C3013 1.390 1_554 S
C3011 H3021 0.931 . S
C3012 C3008 1.390 . S
C3012 C3009 1.392 1_554 S
C3012 H3022 0.930 . S
C3013 C3010 1.372 . S
C3013 C3011 1.390 1_556 S
C3013 H3023 0.929 . S
C3014 O2994 1.255 . S
C3014 O2995 1.257 . S
C3015 Eu2951 2.787 . S
C3015 O2990 1.252 . S
C3015 O2993 1.268 . S
C3015 C3008 1.506 . S
H3016 C2999 0.931 . S
H3017 C3000 0.931 . S
H3018 C3001 0.929 . S
H3019 C3002 0.930 . S
H3020 C3010 0.931 1_565 S
H3021 C3011 0.931 . S
H3022 C3012 0.930 . S
H3023 C3013 0.929 . S
C1323 C63 5.194 1_556 S
C1407 C147 5.195 1_556 S
C231 C1491 5.195 1_554 S
C315 C2079 5.194 . S
C399 C2163 5.195 . S
C483 C2247 5.195 . S
C2846 C578 5.194 . S
C2930 C662 5.195 . S
C746 C3014 5.194 . S
C1586 C830 5.194 . S
C914 C1670 5.195 . S
C998 C1754 5.194 . S
C2331 C1071 5.194 . S
C1155 C2415 5.194 1_545 S
C2499 C1239 5.195 1_455 S
C2594 C1838 5.194 . S
C2678 C1922 5.194 1_565 S
C2006 C2762 5.194 1_655 S
C58 C394 1.515 1_655 S
C142 C478 1.515 . S
C226 C310 1.515 1_545 S
C573 C909 1.515 1_455 S
C657 C993 1.515 . S
C741 C825 1.515 1_565 S
C1066 C1402 1.515 . S
C1486 C1150 1.515 . S
C1234 C1318 1.515 . S
C1581 C1917 1.515 . S
C1665 C2001 1.515 . S
C1833 C1749 1.515 . S
C2074 C2410 1.515 . S
C2494 C2158 1.515 . S
C2242 C2326 1.515 . S
C2589 C2925 1.515 1_554 S
C2673 C3009 1.515 1_554 S
C2757 C2841 1.515 1_554 S
C898 C67 2.217 1_556 S
C151 C982 2.217 1_554 S
C235 C814 2.218 1_554 S
C319 C730 2.217 . S
C403 C562 2.218 . S
C646 C487 2.217 . S
C560 C405 2.217 . S
C489 C644 2.218 . S
C728 C321 2.218 . S
C812 C237 2.217 . S
C69 C896 2.217 . S
C153 C980 2.217 . S
C1906 C1075 2.217 . S
C1990 C1159 2.217 . S
C1822 C1243 2.217 . S
C1738 C1327 2.217 . S
C1411 C1570 2.217 . S
C1654 C1495 2.217 . S
C1413 C1568 2.217 . S
C1652 C1497 2.218 . S
C1736 C1329 2.218 . S
C1245 C1820 2.217 . S
C1904 C1077 2.218 . S
C1988 C1161 2.217 . S
C2083 C2914 2.218 . S
C2167 C2998 2.218 . S
C2830 C2251 2.217 . S
C2746 C2335 2.217 . S
C2419 C2578 2.218 . S
C2662 C2503 2.218 . S
C2576 C2421 2.218 . S
C2505 C2660 2.218 . S
C2744 C2337 2.217 . S
C2828 C2253 2.217 . S
C2085 C2912 2.217 . S
C2169 C2996 2.218 . S
C56 C392 4.002 1_455 S
C476 C140 4.002 . S
C224 C308 4.002 1_565 S
C571 C907 4.002 1_655 S
C991 C655 4.002 . S
C739 C823 4.002 1_545 S
C1400 C1064 4.002 . S
C1484 C1148 4.002 . S
C1316 C1232 4.002 . S
C1915 C1579 4.002 . S
C1663 C1999 4.002 . S
C1831 C1747 4.002 . S
C2408 C2072 4.002 1_554 S
C2156 C2492 4.002 1_556 S
C2240 C2324 4.002 1_556 S
C2923 C2587 4.002 . S
C2671 C3007 4.002 . S
C2755 C2839 4.002 . S
C74 C567 3.886 1_454 S
C158 C651 3.886 1_554 S
C735 C242 3.885 1_546 S
C819 C326 3.886 1_565 S
C410 C903 3.886 1_655 S
C494 C987 3.886 . S
C1575 C1082 3.886 . S
C1166 C1659 3.886 . S
C1743 C1250 3.886 . S
C1827 C1334 3.886 . S
C1911 C1418 3.886 . S
C1995 C1502 3.886 . S
C2583 C2090 3.886 . S
C2174 C2667 3.886 . S
C2751 C2258 3.886 . S
C2835 C2342 3.886 . S
C2919 C2426 3.886 . S
C2510 C3003 3.886 . S
