# Generated by pormake.
# Topology eta, (3)-cn, num edge types: 1
# Building blocks:
#     Node 0, Type 0, BuildingBlock: WUSLED_clean_sbu_0, # of connection points: 3
#     Node 1, Type 0, BuildingBlock: WUSLED_clean_sbu_0, # of connection points: 3
#     Node 2, Type 0, BuildingBlock: WUSLED_clean_sbu_0, # of connection points: 3
#     Node 3, Type 0, BuildingBlock: WUSLED_clean_sbu_0, # of connection points: 3
#     Node 4, Type 0, BuildingBlock: WUSLED_clean_sbu_0, # of connection points: 3
#     Node 5, Type 0, BuildingBlock: WUSLED_clean_sbu_0, # of connection points: 3
#     Edge 6, Type (0, 0), BuildingBlock: FUNLAD_clean_linker_0, # of connection points: 2
#     Edge 7, Type (0, 0), BuildingBlock: FUNLAD_clean_linker_0, # of connection points: 2
#     Edge 8, Type (0, 0), BuildingBlock: FUNLAD_clean_linker_0, # of connection points: 2
#     Edge 9, Type (0, 0), BuildingBlock: FUNLAD_clean_linker_0, # of connection points: 2
#     Edge 10, Type (0, 0), BuildingBlock: FUNLAD_clean_linker_0, # of connection points: 2
#     Edge 11, Type (0, 0), BuildingBlock: FUNLAD_clean_linker_0, # of connection points: 2
#     Edge 12, Type (0, 0), BuildingBlock: FUNLAD_clean_linker_0, # of connection points: 2
#     Edge 13, Type (0, 0), BuildingBlock: FUNLAD_clean_linker_0, # of connection points: 2
#     Edge 14, Type (0, 0), BuildingBlock: FUNLAD_clean_linker_0, # of connection points: 2
# Relax obj value: 0.000
# Max RMSD: 0.005
# Mean RMSD: 0.005
data_MOF--net-eta--node1-WUSLED_clean_sbu_0--edge1-FUNLAD_clean_linker_0
_symmetry_space_group_name_H-M    P1
_symmetry_Int_Tables_number       1
_symmetry_cell_setting            triclinic
loop_
_symmetry_equiv_pos_as_xyz
'x, y, z'
_cell_length_a     73.786834
_cell_length_b     74.456556
_cell_length_c     60.560681
_cell_angle_alpha  89.531827
_cell_angle_beta   90.01903
_cell_angle_gamma 121.02562
loop_
_atom_site_label
_atom_site_type_symbol
_atom_site_fract_x
_atom_site_fract_y
_atom_site_fract_z
_atom_type_partial_charge
C0 C 0.24664 0.60727 0.12935 0.0
C1 C 0.26855 0.62095 0.13129 0.0
C2 C 0.27423 0.60911 0.09592 0.0
C3 C 0.28224 0.62189 0.11468 0.0
C4 C 0.25223 0.5954 0.09418 0.0
C5 C 0.23859 0.5945 0.11075 0.0
U6 U 0.23499 0.62191 0.18586 0.0
O7 O 0.21087 0.62936 0.19543 0.0
O8 O 0.21042 0.60213 0.21027 0.0
C9 C 0.20054 0.6125 0.20795 0.0
C10 C 0.23194 0.60609 0.14647 0.0
C11 C 0.17752 0.59955 0.20442 0.0
C12 C 0.14661 0.58547 0.1807 0.0
C13 C 0.16856 0.59764 0.18346 0.0
C14 C 0.14237 0.57665 0.21969 0.0
C15 C 0.13326 0.57483 0.1988 0.0
C16 C 0.16427 0.58893 0.22245 0.0
C17 C 0.2802 0.6583 0.22417 0.0
C18 C 0.27629 0.67591 0.25585 0.0
C19 C 0.30812 0.67441 0.25149 0.0
C20 C 0.30012 0.6632 0.23193 0.0
C21 C 0.29636 0.68101 0.26361 0.0
C22 C 0.26823 0.66457 0.23635 0.0
C23 C 0.27226 0.64677 0.20334 0.0
O24 O 0.23156 0.59638 0.16483 0.0
O25 O 0.23192 0.6235 0.14988 0.0
O26 O 0.26286 0.65342 0.18996 0.0
O27 O 0.2623 0.62625 0.20509 0.0
H28 H 0.27503 0.63088 0.14562 0.0
H29 H 0.29909 0.63246 0.11665 0.0
H30 H 0.24548 0.58556 0.07984 0.0
H31 H 0.22171 0.58388 0.10898 0.0
H32 H 0.14009 0.58419 0.16436 0.0
H33 H 0.1785 0.60556 0.16924 0.0
H34 H 0.13253 0.56885 0.234 0.0
H35 H 0.17088 0.5902 0.23875 0.0
H36 H 0.26674 0.68054 0.26495 0.0
H37 H 0.32371 0.67826 0.25689 0.0
H38 H 0.30956 0.65848 0.22276 0.0
H39 H 0.25271 0.66076 0.23073 0.0
C40 C 0.62139 0.23307 0.58294 0.0
C41 C 0.63289 0.25485 0.57955 0.0
C42 C 0.62469 0.26019 0.61708 0.0
C43 C 0.63451 0.26831 0.59648 0.0
C44 C 0.61316 0.23831 0.62028 0.0
C45 C 0.61154 0.2249 0.60336 0.0
U46 U 0.63353 0.22259 0.52472 0.0
O47 O 0.64165 0.19951 0.51343 0.0
O48 O 0.61317 0.19842 0.50091 0.0
C49 C 0.62418 0.18907 0.5019 0.0
C50 C 0.6196 0.21868 0.56543 0.0
C51 C 0.61211 0.16608 0.5052 0.0
C52 C 0.57979 0.13349 0.51487 0.0
C53 C 0.59113 0.15538 0.51299 0.0
C54 C 0.61034 0.13268 0.50174 0.0
C55 C 0.5892 0.12182 0.50913 0.0
C56 C 0.62161 0.15453 0.49973 0.0
C57 C 0.66712 0.26848 0.48541 0.0
C58 C 0.67984 0.26434 0.44991 0.0
C59 C 0.68384 0.29772 0.45951 0.0
C60 C 0.67408 0.28937 0.4799 0.0
C61 C 0.68685 0.28532 0.44426 0.0
C62 C 0.66998 0.25597 0.47029 0.0
C63 C 0.65678 0.26002 0.5069 0.0
O64 O 0.6086 0.218 0.54805 0.0
O65 O 0.63723 0.21931 0.56031 0.0
O66 O 0.66465 0.25087 0.51889 0.0
O67 O 0.636 0.24955 0.50667 0.0
H68 H 0.64065 0.26142 0.56386 0.0
H69 H 0.6437 0.28506 0.59352 0.0
H70 H 0.60514 0.23151 0.63579 0.0
H71 H 0.60256 0.20811 0.60623 0.0
H72 H 0.56349 0.1257 0.52038 0.0
H73 H 0.58337 0.16386 0.51736 0.0
H74 H 0.61826 0.1243 0.49755 0.0
H75 H 0.63778 0.16243 0.49374 0.0
H76 H 0.68169 0.2543 0.43844 0.0
H77 H 0.68927 0.31399 0.45581 0.0
H78 H 0.672 0.29925 0.49139 0.0
H79 H 0.66456 0.23974 0.47423 0.0
C80 C 0.44931 0.64323 0.79389 0.0
C81 C 0.43205 0.64628 0.794 0.0
C82 C 0.44437 0.66621 0.75955 0.0
C83 C 0.42955 0.65759 0.77693 0.0
C84 C 0.46177 0.66331 0.75969 0.0
C85 C 0.46417 0.65188 0.77669 0.0
U86 U 0.43841 0.62092 0.85245 0.0
O87 O 0.43155 0.59029 0.86512 0.0
O88 O 0.45976 0.619 0.87655 0.0
C89 C 0.44922 0.5984 0.87643 0.0
C90 C 0.45208 0.63123 0.81163 0.0
C91 C 0.462 0.58861 0.87319 0.0
C92 C 0.4763 0.5725 0.84963 0.0
C93 C 0.46458 0.58234 0.8522 0.0
C94 C 0.48339 0.57557 0.88891 0.0
C95 C 0.48579 0.56896 0.86799 0.0
C96 C 0.47157 0.58526 0.89147 0.0
C97 C 0.40297 0.63173 0.88983 0.0
C98 C 0.39897 0.62602 0.92957 0.0
C99 C 0.37593 0.63458 0.90955 0.0
C100 C 0.38619 0.63543 0.88984 0.0
C101 C 0.3823 0.63007 0.92971 0.0
C102 C 0.40922 0.62684 0.90978 0.0
C103 C 0.41389 0.63348 0.86888 0.0
O104 O 0.46292 0.64223 0.82877 0.0
O105 O 0.43507 0.61335 0.81712 0.0
O106 O 0.40663 0.61604 0.85773 0.0
O107 O 0.43465 0.64483 0.86933 0.0
H108 H 0.42051 0.63989 0.80727 0.0
H109 H 0.41614 0.65977 0.77744 0.0
H110 H 0.47334 0.66958 0.74645 0.0
H111 H 0.47761 0.64972 0.77638 0.0
H112 H 0.47806 0.56783 0.83327 0.0
H113 H 0.45746 0.58494 0.83782 0.0
H114 H 0.49031 0.57288 0.9034 0.0
H115 H 0.46975 0.58999 0.9078 0.0
H116 H 0.40439 0.62266 0.9448 0.0
H117 H 0.36292 0.63738 0.90896 0.0
H118 H 0.38108 0.63911 0.87457 0.0
H119 H 0.42214 0.62389 0.91007 0.0
C120 C 0.82902 0.43794 0.12737 0.0
C121 C 0.80699 0.42446 0.12826 0.0
C122 C 0.8039 0.43435 0.09055 0.0
C123 C 0.79453 0.42268 0.11 0.0
C124 C 0.82597 0.44809 0.08999 0.0
C125 C 0.83839 0.44983 0.10822 0.0
U126 U 0.83659 0.42632 0.18724 0.0
O127 O 0.85856 0.4175 0.20097 0.0
O128 O 0.86057 0.44662 0.21144 0.0
C129 C 0.86909 0.43488 0.21232 0.0
C130 C 0.8425 0.43956 0.14606 0.0
C131 C 0.89222 0.44606 0.20998 0.0
C132 C 0.92436 0.46629 0.18824 0.0
C133 C 0.90227 0.4558 0.19002 0.0
C134 C 0.92645 0.45738 0.22635 0.0
C135 C 0.93672 0.46713 0.20639 0.0
C136 C 0.90444 0.44695 0.2281 0.0
C137 C 0.78889 0.39474 0.22528 0.0
C138 C 0.78953 0.37795 0.25967 0.0
C139 C 0.76077 0.38392 0.25237 0.0
C140 C 0.76989 0.39304 0.23197 0.0
C141 C 0.77045 0.37623 0.26645 0.0
C142 C 0.79874 0.38722 0.23932 0.0
C143 C 0.79821 0.40449 0.20375 0.0
O144 O 0.84276 0.45088 0.16274 0.0
O145 O 0.84113 0.42194 0.15226 0.0
O146 O 0.80726 0.39605 0.19268 0.0
O147 O 0.80923 0.42509 0.20344 0.0
H148 H 0.79949 0.41516 0.14297 0.0
H149 H 0.77762 0.41182 0.11093 0.0
H150 H 0.83368 0.45757 0.07545 0.0
H151 H 0.85536 0.4604 0.10731 0.0
H152 H 0.93173 0.47347 0.17258 0.0
H153 H 0.89303 0.45523 0.17584 0.0
H154 H 0.93545 0.45802 0.24076 0.0
H155 H 0.89693 0.43958 0.24366 0.0
H156 H 0.7975 0.3724 0.27025 0.0
H157 H 0.74596 0.38264 0.25699 0.0
H158 H 0.76208 0.39877 0.22138 0.0
H159 H 0.81354 0.38855 0.23457 0.0
C160 C 0.41333 0.81538 0.4629 0.0
C161 C 0.41013 0.7951 0.46299 0.0
C162 C 0.39042 0.78732 0.42858 0.0
C163 C 0.39885 0.78122 0.44593 0.0
C164 C 0.39335 0.80755 0.42883 0.0
C165 C 0.40475 0.82146 0.44582 0.0
U166 U 0.43779 0.82735 0.52029 0.0
O167 O 0.46927 0.8522 0.53125 0.0
O168 O 0.44076 0.85027 0.54489 0.0
C169 C 0.46153 0.86104 0.54373 0.0
C170 C 0.42581 0.8304 0.48031 0.0
C171 C 0.47142 0.88385 0.54098 0.0
C172 C 0.47468 0.91433 0.52206 0.0
C173 C 0.46518 0.89253 0.5241 0.0
C174 C 0.49688 0.9189 0.55354 0.0
C175 C 0.4906 0.92779 0.53683 0.0
C176 C 0.48736 0.89716 0.55559 0.0
C177 C 0.4293 0.78189 0.55775 0.0
C178 C 0.45074 0.78491 0.58961 0.0
C179 C 0.41657 0.7534 0.58454 0.0
C180 C 0.4137 0.76189 0.56511 0.0
C181 C 0.43519 0.76475 0.59694 0.0
C182 C 0.44778 0.79345 0.57024 0.0
C183 C 0.42606 0.79023 0.53695 0.0
O184 O 0.41524 0.8295 0.49817 0.0
O185 O 0.44413 0.83218 0.48464 0.0
O186 O 0.44286 0.8009 0.52431 0.0
O187 O 0.41449 0.79892 0.53844 0.0
H188 H 0.41651 0.79006 0.47615 0.0
H189 H 0.39664 0.76566 0.44638 0.0
H190 H 0.38723 0.8128 0.41562 0.0
H191 H 0.40705 0.83706 0.44551 0.0
H192 H 0.4693 0.9206 0.50914 0.0
H193 H 0.4529 0.88247 0.51262 0.0
H194 H 0.50933 0.92874 0.56495 0.0
H195 H 0.49245 0.89072 0.56863 0.0
H196 H 0.46514 0.79414 0.59894 0.0
H197 H 0.40439 0.73777 0.58961 0.0
H198 H 0.39933 0.75274 0.5557 0.0
H199 H 0.45996 0.80902 0.56495 0.0
C200 C 0.61822 0.40037 0.79603 0.0
C201 C 0.63208 0.39276 0.79731 0.0
C202 C 0.62055 0.37674 0.76108 0.0
C203 C 0.63324 0.38105 0.77997 0.0
C204 C 0.60664 0.38439 0.76002 0.0
C205 C 0.60552 0.39609 0.77733 0.0
U206 U 0.6322 0.42323 0.85408 0.0
O207 O 0.64 0.45415 0.86614 0.0
O208 O 0.6121 0.42578 0.87928 0.0
C209 C 0.62294 0.44637 0.87858 0.0
C210 C 0.61674 0.41269 0.81405 0.0
C211 C 0.61039 0.45661 0.87673 0.0
C212 C 0.59809 0.47642 0.85601 0.0
C213 C 0.60919 0.46582 0.85687 0.0
C214 C 0.58875 0.46819 0.89463 0.0
C215 C 0.58792 0.47794 0.87497 0.0
C216 C 0.59992 0.4577 0.89549 0.0
C217 C 0.6684 0.41313 0.89049 0.0
C218 C 0.67722 0.42599 0.92806 0.0
C219 C 0.69314 0.40775 0.91174 0.0
C220 C 0.68196 0.40526 0.89224 0.0
C221 C 0.69096 0.41819 0.92989 0.0
C222 C 0.66606 0.42351 0.9085 0.0
C223 C 0.65698 0.41054 0.86973 0.0
O224 O 0.60661 0.40193 0.83182 0.0
O225 O 0.63428 0.43035 0.81853 0.0
O226 O 0.66392 0.42766 0.85773 0.0
O227 O 0.63625 0.39933 0.87114 0.0
H228 H 0.64201 0.39593 0.81167 0.0
H229 H 0.64427 0.3756 0.78125 0.0
H230 H 0.59639 0.38109 0.74593 0.0
H231 H 0.59465 0.40175 0.77614 0.0
H232 H 0.59794 0.48387 0.84063 0.0
H233 H 0.61709 0.4651 0.84212 0.0
H234 H 0.58077 0.46864 0.90943 0.0
H235 H 0.60054 0.4506 0.91094 0.0
H236 H 0.67535 0.43431 0.94161 0.0
H237 H 0.70334 0.40129 0.91267 0.0
H238 H 0.68391 0.39716 0.8785 0.0
H239 H 0.65568 0.42977 0.90738 0.0
C240 C 0.36703 0.61461 0.96718 0.0
C241 C 0.37168 0.62985 0.95073 0.0
C242 C 0.35656 0.6142 0.98664 0.0
C243 C 0.35039 0.62901 0.99004 0.0
C244 C 0.35553 0.64451 0.97383 0.0
C245 C 0.36597 0.64492 0.95442 0.0
C246 C 0.33884 0.62911 1.01021 0.0
C247 C 0.32755 0.61228 0.02352 0.0
C248 C 0.31471 0.61206 0.04265 0.0
C249 C 0.29795 0.59271 0.0503 0.0
C250 C 0.28502 0.59174 0.0677 0.0
C251 C 0.28862 0.61013 0.07805 0.0
H252 H 0.33187 0.64565 0.04862 0.0
C253 C 0.30579 0.62948 0.07088 0.0
C254 C 0.31873 0.63045 0.05344 0.0
H255 H 0.30901 0.64395 0.07847 0.0
H256 H 0.37119 0.60276 0.96488 0.0
H257 H 0.35353 0.60235 0.99893 0.0
H258 H 0.35125 0.65629 0.97605 0.0
H259 H 0.36969 0.65717 0.94235 0.0
H260 H 0.33854 0.6433 1.01322 0.0
H261 H 0.32634 0.59754 1.01947 0.0
H262 H 0.29462 0.57825 0.04256 0.0
H263 H 0.2722 0.57653 0.07308 0.0
C264 C 0.69228 0.30734 0.41042 0.0
C265 C 0.69725 0.2943 0.42259 0.0
C266 C 0.70221 0.31605 0.39019 0.0
C267 C 0.7176 0.3121 0.38171 0.0
C268 C 0.72228 0.29877 0.39373 0.0
C269 C 0.71227 0.29 0.41392 0.0
C270 C 0.72864 0.32103 0.36022 0.0
C271 C 0.7304 0.33831 0.35061 0.0
C272 C 0.74122 0.34762 0.32906 0.0
C273 C 0.7426 0.36629 0.32184 0.0
C274 C 0.75214 0.37558 0.30165 0.0
C275 C 0.76065 0.36649 0.28811 0.0
H276 H 0.74902 0.32408 0.31996 0.0
C277 C 0.75947 0.34792 0.29529 0.0
C278 C 0.7498 0.33851 0.31546 0.0
H279 H 0.76565 0.34039 0.2851 0.0
H280 H 0.68042 0.31058 0.41639 0.0
H281 H 0.69743 0.32551 0.38119 0.0
H282 H 0.7339 0.29527 0.38757 0.0
H283 H 0.71657 0.28012 0.42293 0.0
H284 H 0.73606 0.31328 0.35265 0.0
H285 H 0.72392 0.34653 0.35912 0.0
H286 H 0.73621 0.37375 0.33184 0.0
H287 H 0.753 0.39002 0.29673 0.0
C288 C 0.45889 0.69673 0.73302 0.0
C289 C 0.4416 0.678 0.74122 0.0
C290 C 0.45634 0.70767 0.71558 0.0
C291 C 0.43638 0.69995 0.70569 0.0
C292 C 0.41909 0.68134 0.71415 0.0
C293 C 0.42163 0.6705 0.73167 0.0
C294 C 0.43269 0.71072 0.68683 0.0
C295 C 0.44819 0.72603 0.67431 0.0
C296 C 0.44433 0.73614 0.65492 0.0
C297 C 0.46093 0.74756 0.6398 0.0
C298 C 0.45807 0.75704 0.62117 0.0
C299 C 0.43849 0.75536 0.6172 0.0
H300 H 0.41183 0.72701 0.66272 0.0
C301 C 0.42198 0.74432 0.63251 0.0
C302 C 0.42487 0.73493 0.65122 0.0
H303 H 0.40684 0.7431 0.63013 0.0
H304 H 0.47441 0.70312 0.74031 0.0
H305 H 0.47004 0.72223 0.71023 0.0
H306 H 0.4035 0.67502 0.70704 0.0
H307 H 0.408 0.65603 0.73748 0.0
H308 H 0.41632 0.70493 0.6826 0.0
H309 H 0.46452 0.73084 0.67751 0.0
H310 H 0.47615 0.74893 0.64222 0.0
H311 H 0.47107 0.76532 0.60963 0.0
C312 C 0.77099 0.4301 0.07279 0.0
C313 C 0.79087 0.43194 0.07074 0.0
C314 C 0.75887 0.42789 0.05407 0.0
C315 C 0.76641 0.42753 0.03279 0.0
C316 C 0.78617 0.42914 0.03085 0.0
C317 C 0.79826 0.43136 0.04952 0.0
C318 C 0.75426 0.42504 1.01218 0.0
C319 C 0.73761 0.42783 1.01072 0.0
C320 C 0.72605 0.42552 0.98972 0.0
C321 C 0.70502 0.42081 0.99072 0.0
C322 C 0.69364 0.41849 0.97138 0.0
C323 C 0.70309 0.42099 0.95054 0.0
H324 H 0.75207 0.43294 0.96725 0.0
C325 C 0.72428 0.42613 0.94954 0.0
C326 C 0.73566 0.42845 0.96885 0.0
H327 H 0.73223 0.42869 0.93378 0.0
H328 H 0.76485 0.43055 0.08889 0.0
H329 H 0.74357 0.42622 0.05652 0.0
H330 H 0.79236 0.42872 1.01477 0.0
H331 H 0.81331 0.43234 0.04732 0.0
H332 H 0.75956 0.42082 0.99746 0.0
H333 H 0.73184 0.43165 0.02533 0.0
H334 H 0.69726 0.41865 1.00653 0.0
H335 H 0.67731 0.4144 0.97278 0.0
C336 C 0.36036 0.77085 0.40153 0.0
C337 C 0.37903 0.77283 0.41004 0.0
C338 C 0.34988 0.7575 0.38382 0.0
C339 C 0.35801 0.74599 0.37399 0.0
C340 C 0.37652 0.74781 0.38277 0.0
C341 C 0.3869 0.76105 0.40054 0.0
C342 C 0.34777 0.73174 0.35485 0.0
C343 C 0.33278 0.73169 0.34199 0.0
C344 C 0.32327 0.71801 0.32232 0.0
C345 C 0.31233 0.72314 0.30694 0.0
C346 C 0.30342 0.71105 0.28807 0.0
C347 C 0.3052 0.69345 0.28408 0.0
H348 H 0.33212 0.69494 0.33026 0.0
C349 C 0.31577 0.68803 0.29962 0.0
C350 C 0.32458 0.70004 0.31859 0.0
H351 H 0.31703 0.67431 0.29725 0.0
H352 H 0.35368 0.77944 0.40876 0.0
H353 H 0.33535 0.7562 0.37821 0.0
H354 H 0.38316 0.73911 0.3757 0.0
H355 H 0.40135 0.76234 0.40657 0.0
H356 H 0.35375 0.72159 0.3507 0.0
H357 H 0.32783 0.74285 0.34515 0.0
H358 H 0.31089 0.73676 0.30938 0.0
H359 H 0.2955 0.71574 0.27635 0.0
C360 C 0.62341 0.3466 0.74676 0.0
C361 C 0.62168 0.36427 0.74257 0.0
C362 C 0.62384 0.33455 0.72936 0.0
C363 C 0.62269 0.33999 0.70728 0.0
C364 C 0.62099 0.35765 0.70314 0.0
C365 C 0.62058 0.36969 0.72051 0.0
C366 C 0.62223 0.32725 0.68816 0.0
C367 C 0.6296 0.314 0.68884 0.0
C368 C 0.62854 0.30078 0.66991 0.0
C369 C 0.63038 0.28322 0.67426 0.0
C370 C 0.62924 0.27017 0.65717 0.0
C371 C 0.62638 0.27441 0.6352 0.0
H372 H 0.62526 0.31895 0.64353 0.0
C373 C 0.62498 0.29222 0.63073 0.0
C374 C 0.6261 0.30529 0.64784 0.0
H375 H 0.62272 0.29594 0.61401 0.0
H376 H 0.62387 0.34173 0.76355 0.0
H377 H 0.62448 0.32073 0.73343 0.0
H378 H 0.61999 0.3622 0.68635 0.0
H379 H 0.61951 0.38333 0.71663 0.0
H380 H 0.61549 0.32904 0.67298 0.0
H381 H 0.63637 0.31229 0.70403 0.0
H382 H 0.63253 0.27945 0.69101 0.0
H383 H 0.63078 0.25681 0.66118 0.0
C384 C 0.09816 0.54231 0.20651 0.0
C385 C 0.10992 0.56199 0.19606 0.0
C386 C 0.07613 0.5305 0.20466 0.0
C387 C 0.06524 0.53822 0.1925 0.0
C388 C 0.0771 0.55767 0.1816 0.0
C389 C 0.09916 0.56943 0.18336 0.0
C390 C 0.0417 0.52656 0.19062 0.0
C391 C 1.02854 0.5112 0.20475 0.0
C392 C 1.00501 0.49987 0.20355 0.0
C393 C 0.99336 0.48043 0.21444 0.0
C394 C 0.97128 0.46966 0.21494 0.0
C395 C 0.96021 0.47815 0.20471 0.0
H396 H 1.00225 0.52347 0.18494 0.0
C397 C 0.97181 0.4975 0.19354 0.0
C398 C 0.99396 0.50829 0.19301 0.0
H399 H 0.9638 0.50465 0.18579 0.0
H400 H 0.10603 0.53592 0.216 0.0
H401 H 0.0679 0.51528 0.21262 0.0
H402 H 0.06924 0.56398 0.17196 0.0
H403 H 0.10774 0.58457 0.17518 0.0
H404 H 0.03511 0.53125 0.17732 0.0
H405 H 1.03508 0.5065 0.21807 0.0
H406 H 1.00139 0.47354 0.22272 0.0
H407 H 0.96288 0.45465 0.22339 0.0
C408 C 0.56252 0.08787 0.52779 0.0
C409 C 0.57697 0.09845 0.51047 0.0
C410 C 0.55106 0.06594 0.52897 0.0
C411 C 0.55395 0.054 0.51294 0.0
C412 C 0.56822 0.06462 0.49553 0.0
C413 C 0.57957 0.0865 0.4943 0.0
C414 C 0.54232 0.03058 0.51337 0.0
C415 C 0.53176 1.01863 0.53111 0.0
C416 C 0.52088 0.99527 0.53176 0.0
C417 C 0.5156 0.98511 0.55243 0.0
C418 C 0.50566 0.9633 0.55405 0.0
C419 C 0.50065 0.951 0.53498 0.0
H420 H 0.51854 0.9899 0.49629 0.0
C421 C 0.5055 0.96108 0.51423 0.0
C422 C 0.51542 0.98293 0.5126 0.0
H423 H 0.50193 0.95212 0.49919 0.0
H424 H 0.56016 0.09653 0.54061 0.0
H425 H 0.5399 0.05861 0.54239 0.0
H426 H 0.57066 0.05594 0.48278 0.0
H427 H 0.5902 0.09404 0.48045 0.0
H428 H 0.54348 1.02308 0.49861 0.0
H429 H 0.53184 0.02615 0.5464 0.0
H430 H 0.51931 0.99409 0.56749 0.0
H431 H 0.50177 0.95608 0.5703 0.0
C432 C 0.51712 0.56539 0.87664 0.0
C433 C 0.49791 0.55814 0.86547 0.0
C434 C 0.5282 0.55485 0.8749 0.0
C435 C 0.52016 0.53657 0.86212 0.0
C436 C 0.50121 0.52966 0.85053 0.0
C437 C 0.4902 0.54028 0.85219 0.0
C438 C 0.53107 0.52443 0.86022 0.0
C439 C 0.54525 0.52548 0.87506 0.0
C440 C 0.55592 0.51304 0.87411 0.0
C441 C 0.56798 0.51369 0.89239 0.0
C442 C 0.57832 0.50241 0.8926 0.0
C443 C 0.57691 0.49005 0.8745 0.0
H444 H 0.54601 0.50009 0.84114 0.0
C445 C 0.56505 0.48951 0.85605 0.0
C446 C 0.55472 0.50089 0.8558 0.0
H447 H 0.56352 0.48008 0.84186 0.0
H448 H 0.52373 0.57937 0.88661 0.0
H449 H 0.54313 0.56131 0.88341 0.0
H450 H 0.49469 0.51577 0.84041 0.0
H451 H 0.47539 0.53422 0.84345 0.0
H452 H 0.52631 0.51355 0.84663 0.0
H453 H 0.54879 0.53542 0.88936 0.0
H454 H 0.56943 0.52301 0.90667 0.0
H455 H 0.58767 0.5036 0.90692 0.0
loop_
_geom_bond_atom_site_label_1
_geom_bond_atom_site_label_2
_geom_bond_distance
_geom_bond_site_symmetry_2
_ccdc_geom_bond_type
C0 C1 1.264 . S
C0 C5 1.479 . S
C0 C10 1.465 . S
C1 C0 1.264 . S
C1 C3 1.339 . S
C1 H28 0.931 . S
C2 C3 1.395 . S
C2 C4 1.320 . S
C3 C1 1.339 . S
C3 C2 1.395 . S
C3 H29 0.929 . S
C4 C2 1.320 . S
C4 C5 1.405 . S
C4 H30 0.930 . S
C5 C0 1.479 . S
C5 C4 1.405 . S
C5 H31 0.931 . S
U6 O7 2.454 . S
U6 O8 2.458 . S
U6 C9 2.984 . S
U6 C10 2.847 . S
U6 C23 2.882 . S
U6 O24 2.441 . S
U6 O25 2.420 . S
U6 O26 2.455 . S
U6 O27 2.449 . S
O7 U6 2.454 . S
O7 C9 1.353 . S
O8 U6 2.458 . S
O8 C9 1.286 . S
C9 U6 2.984 . S
C9 O7 1.353 . S
C9 O8 1.286 . S
C9 C11 1.363 . S
C10 C0 1.465 . S
C10 U6 2.847 . S
C10 O24 1.249 . S
C10 O25 1.202 . S
C11 C9 1.363 . S
C11 C13 1.408 . S
C11 C16 1.342 . S
C12 C13 1.310 . S
C12 C15 1.461 . S
C12 H32 0.932 . S
C13 C11 1.408 . S
C13 C12 1.310 . S
C13 H33 0.930 . S
C14 C15 1.474 . S
C14 C16 1.285 . S
C14 H34 0.929 . S
C15 C12 1.461 . S
C15 C14 1.474 . S
C16 C11 1.342 . S
C16 C14 1.285 . S
C16 H35 0.930 . S
C17 C20 1.424 . S
C17 C22 1.245 . S
C17 C23 1.428 . S
C18 C21 1.260 . S
C18 C22 1.477 . S
C18 H36 0.932 . S
C19 C20 1.384 . S
C19 C21 1.479 . S
C19 H37 0.929 . S
C20 C17 1.424 . S
C20 C19 1.384 . S
C20 H38 0.928 . S
C21 C18 1.260 . S
C21 C19 1.479 . S
C22 C17 1.245 . S
C22 C18 1.477 . S
C22 H39 0.932 . S
C23 U6 2.882 . S
C23 C17 1.428 . S
C23 O26 1.301 . S
C23 O27 1.282 . S
O24 U6 2.441 . S
O24 C10 1.249 . S
O25 U6 2.420 . S
O25 C10 1.202 . S
O26 U6 2.455 . S
O26 C23 1.301 . S
O27 U6 2.449 . S
O27 C23 1.282 . S
H28 C1 0.931 . S
H29 C3 0.929 . S
H30 C4 0.930 . S
H31 C5 0.931 . S
H32 C12 0.932 . S
H33 C13 0.930 . S
H34 C14 0.929 . S
H35 C16 0.930 . S
H36 C18 0.932 . S
H37 C19 0.929 . S
H38 C20 0.928 . S
H39 C22 0.932 . S
C40 C41 1.264 . S
C40 C45 1.479 . S
C40 C50 1.465 . S
C41 C40 1.264 . S
C41 C43 1.339 . S
C41 H68 0.931 . S
C42 C43 1.395 . S
C42 C44 1.320 . S
C43 C41 1.339 . S
C43 C42 1.395 . S
C43 H69 0.929 . S
C44 C42 1.320 . S
C44 C45 1.405 . S
C44 H70 0.930 . S
C45 C40 1.479 . S
C45 C44 1.405 . S
C45 H71 0.931 . S
U46 O47 2.454 . S
U46 O48 2.458 . S
U46 C49 2.984 . S
U46 C50 2.847 . S
U46 C63 2.882 . S
U46 O64 2.441 . S
U46 O65 2.420 . S
U46 O66 2.455 . S
U46 O67 2.449 . S
O47 U46 2.454 . S
O47 C49 1.353 . S
O48 U46 2.458 . S
O48 C49 1.286 . S
C49 U46 2.984 . S
C49 O47 1.353 . S
C49 O48 1.286 . S
C49 C51 1.363 . S
C50 C40 1.465 . S
C50 U46 2.847 . S
C50 O64 1.249 . S
C50 O65 1.202 . S
C51 C49 1.363 . S
C51 C53 1.408 . S
C51 C56 1.342 . S
C52 C53 1.310 . S
C52 C55 1.461 . S
C52 H72 0.932 . S
C53 C51 1.408 . S
C53 C52 1.310 . S
C53 H73 0.930 . S
C54 C55 1.474 . S
C54 C56 1.285 . S
C54 H74 0.929 . S
C55 C52 1.461 . S
C55 C54 1.474 . S
C56 C51 1.342 . S
C56 C54 1.285 . S
C56 H75 0.930 . S
C57 C60 1.424 . S
C57 C62 1.245 . S
C57 C63 1.428 . S
C58 C61 1.260 . S
C58 C62 1.477 . S
C58 H76 0.932 . S
C59 C60 1.384 . S
C59 C61 1.479 . S
C59 H77 0.929 . S
C60 C57 1.424 . S
C60 C59 1.384 . S
C60 H78 0.928 . S
C61 C58 1.260 . S
C61 C59 1.479 . S
C62 C57 1.245 . S
C62 C58 1.477 . S
C62 H79 0.932 . S
C63 U46 2.882 . S
C63 C57 1.428 . S
C63 O66 1.301 . S
C63 O67 1.282 . S
O64 U46 2.441 . S
O64 C50 1.249 . S
O65 U46 2.420 . S
O65 C50 1.202 . S
O66 U46 2.455 . S
O66 C63 1.301 . S
O67 U46 2.449 . S
O67 C63 1.282 . S
H68 C41 0.931 . S
H69 C43 0.929 . S
H70 C44 0.930 . S
H71 C45 0.931 . S
H72 C52 0.932 . S
H73 C53 0.930 . S
H74 C54 0.929 . S
H75 C56 0.930 . S
H76 C58 0.932 . S
H77 C59 0.929 . S
H78 C60 0.928 . S
H79 C62 0.932 . S
C80 C81 1.264 . S
C80 C85 1.479 . S
C80 C90 1.465 . S
C81 C80 1.264 . S
C81 C83 1.339 . S
C81 H108 0.931 . S
C82 C83 1.395 . S
C82 C84 1.320 . S
C83 C81 1.339 . S
C83 C82 1.395 . S
C83 H109 0.929 . S
C84 C82 1.320 . S
C84 C85 1.405 . S
C84 H110 0.930 . S
C85 C80 1.479 . S
C85 C84 1.405 . S
C85 H111 0.931 . S
U86 O87 2.454 . S
U86 O88 2.458 . S
U86 C89 2.984 . S
U86 C90 2.847 . S
U86 C103 2.882 . S
U86 O104 2.441 . S
U86 O105 2.420 . S
U86 O106 2.455 . S
U86 O107 2.449 . S
O87 U86 2.454 . S
O87 C89 1.353 . S
O88 U86 2.458 . S
O88 C89 1.286 . S
C89 U86 2.984 . S
C89 O87 1.353 . S
C89 O88 1.286 . S
C89 C91 1.363 . S
C90 C80 1.465 . S
C90 U86 2.847 . S
C90 O104 1.249 . S
C90 O105 1.202 . S
C91 C89 1.363 . S
C91 C93 1.408 . S
C91 C96 1.342 . S
C92 C93 1.310 . S
C92 C95 1.461 . S
C92 H112 0.932 . S
C93 C91 1.408 . S
C93 C92 1.310 . S
C93 H113 0.930 . S
C94 C95 1.474 . S
C94 C96 1.285 . S
C94 H114 0.929 . S
C95 C92 1.461 . S
C95 C94 1.474 . S
C96 C91 1.342 . S
C96 C94 1.285 . S
C96 H115 0.930 . S
C97 C100 1.424 . S
C97 C102 1.245 . S
C97 C103 1.428 . S
C98 C101 1.260 . S
C98 C102 1.477 . S
C98 H116 0.932 . S
C99 C100 1.384 . S
C99 C101 1.479 . S
C99 H117 0.929 . S
C100 C97 1.424 . S
C100 C99 1.384 . S
C100 H118 0.928 . S
C101 C98 1.260 . S
C101 C99 1.479 . S
C102 C97 1.245 . S
C102 C98 1.477 . S
C102 H119 0.932 . S
C103 U86 2.882 . S
C103 C97 1.428 . S
C103 O106 1.301 . S
C103 O107 1.282 . S
O104 U86 2.441 . S
O104 C90 1.249 . S
O105 U86 2.420 . S
O105 C90 1.202 . S
O106 U86 2.455 . S
O106 C103 1.301 . S
O107 U86 2.449 . S
O107 C103 1.282 . S
H108 C81 0.931 . S
H109 C83 0.929 . S
H110 C84 0.930 . S
H111 C85 0.931 . S
H112 C92 0.932 . S
H113 C93 0.930 . S
H114 C94 0.929 . S
H115 C96 0.930 . S
H116 C98 0.932 . S
H117 C99 0.929 . S
H118 C100 0.928 . S
H119 C102 0.932 . S
C120 C121 1.264 . S
C120 C125 1.479 . S
C120 C130 1.465 . S
C121 C120 1.264 . S
C121 C123 1.339 . S
C121 H148 0.931 . S
C122 C123 1.395 . S
C122 C124 1.320 . S
C123 C121 1.339 . S
C123 C122 1.395 . S
C123 H149 0.929 . S
C124 C122 1.320 . S
C124 C125 1.405 . S
C124 H150 0.930 . S
C125 C120 1.479 . S
C125 C124 1.405 . S
C125 H151 0.931 . S
U126 O127 2.454 . S
U126 O128 2.458 . S
U126 C129 2.984 . S
U126 C130 2.847 . S
U126 C143 2.882 . S
U126 O144 2.441 . S
U126 O145 2.420 . S
U126 O146 2.455 . S
U126 O147 2.449 . S
O127 U126 2.454 . S
O127 C129 1.353 . S
O128 U126 2.458 . S
O128 C129 1.286 . S
C129 U126 2.984 . S
C129 O127 1.353 . S
C129 O128 1.286 . S
C129 C131 1.363 . S
C130 C120 1.465 . S
C130 U126 2.847 . S
C130 O144 1.249 . S
C130 O145 1.202 . S
C131 C129 1.363 . S
C131 C133 1.408 . S
C131 C136 1.342 . S
C132 C133 1.310 . S
C132 C135 1.461 . S
C132 H152 0.932 . S
C133 C131 1.408 . S
C133 C132 1.310 . S
C133 H153 0.930 . S
C134 C135 1.474 . S
C134 C136 1.285 . S
C134 H154 0.929 . S
C135 C132 1.461 . S
C135 C134 1.474 . S
C136 C131 1.342 . S
C136 C134 1.285 . S
C136 H155 0.930 . S
C137 C140 1.424 . S
C137 C142 1.245 . S
C137 C143 1.428 . S
C138 C141 1.260 . S
C138 C142 1.477 . S
C138 H156 0.932 . S
C139 C140 1.384 . S
C139 C141 1.479 . S
C139 H157 0.929 . S
C140 C137 1.424 . S
C140 C139 1.384 . S
C140 H158 0.928 . S
C141 C138 1.260 . S
C141 C139 1.479 . S
C142 C137 1.245 . S
C142 C138 1.477 . S
C142 H159 0.932 . S
C143 U126 2.882 . S
C143 C137 1.428 . S
C143 O146 1.301 . S
C143 O147 1.282 . S
O144 U126 2.441 . S
O144 C130 1.249 . S
O145 U126 2.420 . S
O145 C130 1.202 . S
O146 U126 2.455 . S
O146 C143 1.301 . S
O147 U126 2.449 . S
O147 C143 1.282 . S
H148 C121 0.931 . S
H149 C123 0.929 . S
H150 C124 0.930 . S
H151 C125 0.931 . S
H152 C132 0.932 . S
H153 C133 0.930 . S
H154 C134 0.929 . S
H155 C136 0.930 . S
H156 C138 0.932 . S
H157 C139 0.929 . S
H158 C140 0.928 . S
H159 C142 0.932 . S
C160 C161 1.264 . S
C160 C165 1.479 . S
C160 C170 1.465 . S
C161 C160 1.264 . S
C161 C163 1.339 . S
C161 H188 0.931 . S
C162 C163 1.395 . S
C162 C164 1.320 . S
C163 C161 1.339 . S
C163 C162 1.395 . S
C163 H189 0.929 . S
C164 C162 1.320 . S
C164 C165 1.405 . S
C164 H190 0.930 . S
C165 C160 1.479 . S
C165 C164 1.405 . S
C165 H191 0.931 . S
U166 O167 2.454 . S
U166 O168 2.458 . S
U166 C169 2.984 . S
U166 C170 2.847 . S
U166 C183 2.882 . S
U166 O184 2.441 . S
U166 O185 2.420 . S
U166 O186 2.455 . S
U166 O187 2.449 . S
O167 U166 2.454 . S
O167 C169 1.353 . S
O168 U166 2.458 . S
O168 C169 1.286 . S
C169 U166 2.984 . S
C169 O167 1.353 . S
C169 O168 1.286 . S
C169 C171 1.363 . S
C170 C160 1.465 . S
C170 U166 2.847 . S
C170 O184 1.249 . S
C170 O185 1.202 . S
C171 C169 1.363 . S
C171 C173 1.408 . S
C171 C176 1.342 . S
C172 C173 1.310 . S
C172 C175 1.461 . S
C172 H192 0.932 . S
C173 C171 1.408 . S
C173 C172 1.310 . S
C173 H193 0.930 . S
C174 C175 1.474 . S
C174 C176 1.285 . S
C174 H194 0.929 . S
C175 C172 1.461 . S
C175 C174 1.474 . S
C176 C171 1.342 . S
C176 C174 1.285 . S
C176 H195 0.930 . S
C177 C180 1.424 . S
C177 C182 1.245 . S
C177 C183 1.428 . S
C178 C181 1.260 . S
C178 C182 1.477 . S
C178 H196 0.932 . S
C179 C180 1.384 . S
C179 C181 1.479 . S
C179 H197 0.929 . S
C180 C177 1.424 . S
C180 C179 1.384 . S
C180 H198 0.928 . S
C181 C178 1.260 . S
C181 C179 1.479 . S
C182 C177 1.245 . S
C182 C178 1.477 . S
C182 H199 0.932 . S
C183 U166 2.882 . S
C183 C177 1.428 . S
C183 O186 1.301 . S
C183 O187 1.282 . S
O184 U166 2.441 . S
O184 C170 1.249 . S
O185 U166 2.420 . S
O185 C170 1.202 . S
O186 U166 2.455 . S
O186 C183 1.301 . S
O187 U166 2.449 . S
O187 C183 1.282 . S
H188 C161 0.931 . S
H189 C163 0.929 . S
H190 C164 0.930 . S
H191 C165 0.931 . S
H192 C172 0.932 . S
H193 C173 0.930 . S
H194 C174 0.929 . S
H195 C176 0.930 . S
H196 C178 0.932 . S
H197 C179 0.929 . S
H198 C180 0.928 . S
H199 C182 0.932 . S
C200 C201 1.264 . S
C200 C205 1.479 . S
C200 C210 1.465 . S
C201 C200 1.264 . S
C201 C203 1.339 . S
C201 H228 0.931 . S
C202 C203 1.395 . S
C202 C204 1.320 . S
C203 C201 1.339 . S
C203 C202 1.395 . S
C203 H229 0.929 . S
C204 C202 1.320 . S
C204 C205 1.405 . S
C204 H230 0.930 . S
C205 C200 1.479 . S
C205 C204 1.405 . S
C205 H231 0.931 . S
U206 O207 2.454 . S
U206 O208 2.458 . S
U206 C209 2.984 . S
U206 C210 2.847 . S
U206 C223 2.882 . S
U206 O224 2.441 . S
U206 O225 2.420 . S
U206 O226 2.455 . S
U206 O227 2.449 . S
O207 U206 2.454 . S
O207 C209 1.353 . S
O208 U206 2.458 . S
O208 C209 1.286 . S
C209 U206 2.984 . S
C209 O207 1.353 . S
C209 O208 1.286 . S
C209 C211 1.363 . S
C210 C200 1.465 . S
C210 U206 2.847 . S
C210 O224 1.249 . S
C210 O225 1.202 . S
C211 C209 1.363 . S
C211 C213 1.408 . S
C211 C216 1.342 . S
C212 C213 1.310 . S
C212 C215 1.461 . S
C212 H232 0.932 . S
C213 C211 1.408 . S
C213 C212 1.310 . S
C213 H233 0.930 . S
C214 C215 1.474 . S
C214 C216 1.285 . S
C214 H234 0.929 . S
C215 C212 1.461 . S
C215 C214 1.474 . S
C216 C211 1.342 . S
C216 C214 1.285 . S
C216 H235 0.930 . S
C217 C220 1.424 . S
C217 C222 1.245 . S
C217 C223 1.428 . S
C218 C221 1.260 . S
C218 C222 1.477 . S
C218 H236 0.932 . S
C219 C220 1.384 . S
C219 C221 1.479 . S
C219 H237 0.929 . S
C220 C217 1.424 . S
C220 C219 1.384 . S
C220 H238 0.928 . S
C221 C218 1.260 . S
C221 C219 1.479 . S
C222 C217 1.245 . S
C222 C218 1.477 . S
C222 H239 0.932 . S
C223 U206 2.882 . S
C223 C217 1.428 . S
C223 O226 1.301 . S
C223 O227 1.282 . S
O224 U206 2.441 . S
O224 C210 1.249 . S
O225 U206 2.420 . S
O225 C210 1.202 . S
O226 U206 2.455 . S
O226 C223 1.301 . S
O227 U206 2.449 . S
O227 C223 1.282 . S
H228 C201 0.931 . S
H229 C203 0.929 . S
H230 C204 0.930 . S
H231 C205 0.931 . S
H232 C212 0.932 . S
H233 C213 0.930 . S
H234 C214 0.929 . S
H235 C216 0.930 . S
H236 C218 0.932 . S
H237 C219 0.929 . S
H238 C220 0.928 . S
H239 C222 0.932 . S
C240 C241 1.386 . S
C240 C242 1.383 . S
C240 H256 0.951 . S
C241 C240 1.386 . S
C241 C245 1.383 . S
C242 C240 1.383 . S
C242 C243 1.402 . S
C242 H257 0.951 . S
C243 C242 1.402 . S
C243 C244 1.375 . S
C243 C246 1.481 . S
C244 C243 1.375 . S
C244 C245 1.367 . S
C244 H258 0.951 . S
C245 C241 1.383 . S
C245 C244 1.367 . S
C245 H259 0.950 . S
C246 C243 1.481 . S
C246 C247 1.297 1_556 S
C246 H260 0.950 . S
C247 C246 1.297 1_554 S
C247 C248 1.479 . S
C247 H261 0.950 . S
C248 C247 1.479 . S
C248 C249 1.375 . S
C248 C254 1.404 . S
C249 C248 1.375 . S
C249 C250 1.369 . S
C249 H262 0.950 . S
C250 C249 1.369 . S
C250 C251 1.392 . S
C250 H263 0.951 . S
C251 C250 1.392 . S
C251 C253 1.384 . S
H252 C254 0.949 . S
C253 C251 1.384 . S
C253 C254 1.385 . S
C253 H255 0.950 . S
C254 C248 1.404 . S
C254 H252 0.949 . S
C254 C253 1.385 . S
H255 C253 0.950 . S
H256 C240 0.951 . S
H257 C242 0.951 . S
H258 C244 0.951 . S
H259 C245 0.950 . S
H260 C246 0.950 . S
H261 C247 0.950 . S
H262 C249 0.950 . S
H263 C250 0.951 . S
C264 C265 1.386 . S
C264 C266 1.383 . S
C264 H280 0.951 . S
C265 C264 1.386 . S
C265 C269 1.383 . S
C266 C264 1.383 . S
C266 C267 1.402 . S
C266 H281 0.951 . S
C267 C266 1.402 . S
C267 C268 1.375 . S
C267 C270 1.481 . S
C268 C267 1.375 . S
C268 C269 1.367 . S
C268 H282 0.951 . S
C269 C265 1.383 . S
C269 C268 1.367 . S
C269 H283 0.950 . S
C270 C267 1.481 . S
C270 C271 1.297 . S
C270 H284 0.950 . S
C271 C270 1.297 . S
C271 C272 1.479 . S
C271 H285 0.950 . S
C272 C271 1.479 . S
C272 C273 1.375 . S
C272 C278 1.404 . S
C273 C272 1.375 . S
C273 C274 1.369 . S
C273 H286 0.950 . S
C274 C273 1.369 . S
C274 C275 1.392 . S
C274 H287 0.951 . S
C275 C274 1.392 . S
C275 C277 1.384 . S
H276 C278 0.949 . S
C277 C275 1.384 . S
C277 C278 1.385 . S
C277 H279 0.950 . S
C278 C272 1.404 . S
C278 H276 0.949 . S
C278 C277 1.385 . S
H279 C277 0.950 . S
H280 C264 0.951 . S
H281 C266 0.951 . S
H282 C268 0.951 . S
H283 C269 0.950 . S
H284 C270 0.950 . S
H285 C271 0.950 . S
H286 C273 0.950 . S
H287 C274 0.951 . S
C288 C289 1.386 . S
C288 C290 1.383 . S
C288 H304 0.951 . S
C289 C288 1.386 . S
C289 C293 1.383 . S
C290 C288 1.383 . S
C290 C291 1.402 . S
C290 H305 0.951 . S
C291 C290 1.402 . S
C291 C292 1.375 . S
C291 C294 1.481 . S
C292 C291 1.375 . S
C292 C293 1.367 . S
C292 H306 0.951 . S
C293 C289 1.383 . S
C293 C292 1.367 . S
C293 H307 0.950 . S
C294 C291 1.481 . S
C294 C295 1.297 . S
C294 H308 0.950 . S
C295 C294 1.297 . S
C295 C296 1.479 . S
C295 H309 0.950 . S
C296 C295 1.479 . S
C296 C297 1.375 . S
C296 C302 1.404 . S
C297 C296 1.375 . S
C297 C298 1.369 . S
C297 H310 0.950 . S
C298 C297 1.369 . S
C298 C299 1.392 . S
C298 H311 0.951 . S
C299 C298 1.392 . S
C299 C301 1.384 . S
H300 C302 0.949 . S
C301 C299 1.384 . S
C301 C302 1.385 . S
C301 H303 0.950 . S
C302 C296 1.404 . S
C302 H300 0.949 . S
C302 C301 1.385 . S
H303 C301 0.950 . S
H304 C288 0.951 . S
H305 C290 0.951 . S
H306 C292 0.951 . S
H307 C293 0.950 . S
H308 C294 0.950 . S
H309 C295 0.950 . S
H310 C297 0.950 . S
H311 C298 0.951 . S
C312 C313 1.386 . S
C312 C314 1.383 . S
C312 H328 0.951 . S
C313 C312 1.386 . S
C313 C317 1.383 . S
C314 C312 1.383 . S
C314 C315 1.402 . S
C314 H329 0.951 . S
C315 C314 1.402 . S
C315 C316 1.375 . S
C315 C318 1.481 . S
C316 C315 1.375 . S
C316 C317 1.367 . S
C316 H330 0.951 . S
C317 C313 1.383 . S
C317 C316 1.367 . S
C317 H331 0.950 . S
C318 C315 1.481 . S
C318 C319 1.299 . S
C318 H332 0.950 1_554 S
C319 C318 1.299 . S
C319 C320 1.468 1_554 S
C319 H333 0.962 . S
C320 C319 1.468 1_556 S
C320 C321 1.375 . S
C320 C326 1.404 . S
C321 C320 1.375 . S
C321 C322 1.369 . S
C321 H334 0.950 . S
C322 C321 1.369 . S
C322 C323 1.392 . S
C322 H335 0.951 . S
C323 C322 1.392 . S
C323 C325 1.384 . S
H324 C326 0.949 . S
C325 C323 1.384 . S
C325 C326 1.385 . S
C325 H327 0.950 . S
C326 C320 1.404 . S
C326 H324 0.949 . S
C326 C325 1.385 . S
H327 C325 0.950 . S
H328 C312 0.951 . S
H329 C314 0.951 . S
H330 C316 0.951 . S
H331 C317 0.950 . S
H332 C318 0.950 1_556 S
H333 C319 0.962 . S
H334 C321 0.950 . S
H335 C322 0.951 . S
C336 C337 1.386 . S
C336 C338 1.383 . S
C336 H352 0.951 . S
C337 C336 1.386 . S
C337 C341 1.383 . S
C338 C336 1.383 . S
C338 C339 1.402 . S
C338 H353 0.951 . S
C339 C338 1.402 . S
C339 C340 1.375 . S
C339 C342 1.481 . S
C340 C339 1.375 . S
C340 C341 1.367 . S
C340 H354 0.951 . S
C341 C337 1.383 . S
C341 C340 1.367 . S
C341 H355 0.950 . S
C342 C339 1.481 . S
C342 C343 1.297 . S
C342 H356 0.950 . S
C343 C342 1.297 . S
C343 C344 1.479 . S
C343 H357 0.950 . S
C344 C343 1.479 . S
C344 C345 1.375 . S
C344 C350 1.404 . S
C345 C344 1.375 . S
C345 C346 1.369 . S
C345 H358 0.950 . S
C346 C345 1.369 . S
C346 C347 1.392 . S
C346 H359 0.951 . S
C347 C346 1.392 . S
C347 C349 1.384 . S
H348 C350 0.949 . S
C349 C347 1.384 . S
C349 C350 1.385 . S
C349 H351 0.950 . S
C350 C344 1.404 . S
C350 H348 0.949 . S
C350 C349 1.385 . S
H351 C349 0.950 . S
H352 C336 0.951 . S
H353 C338 0.951 . S
H354 C340 0.951 . S
H355 C341 0.950 . S
H356 C342 0.950 . S
H357 C343 0.950 . S
H358 C345 0.950 . S
H359 C346 0.951 . S
C360 C361 1.386 . S
C360 C362 1.383 . S
C360 H376 0.951 . S
C361 C360 1.386 . S
C361 C365 1.383 . S
C362 C360 1.383 . S
C362 C363 1.402 . S
C362 H377 0.951 . S
C363 C362 1.402 . S
C363 C364 1.375 . S
C363 C366 1.481 . S
C364 C363 1.375 . S
C364 C365 1.367 . S
C364 H378 0.951 . S
C365 C361 1.383 . S
C365 C364 1.367 . S
C365 H379 0.950 . S
C366 C363 1.481 . S
C366 C367 1.297 . S
C366 H380 0.950 . S
C367 C366 1.297 . S
C367 C368 1.479 . S
C367 H381 0.950 . S
C368 C367 1.479 . S
C368 C369 1.375 . S
C368 C374 1.404 . S
C369 C368 1.375 . S
C369 C370 1.369 . S
C369 H382 0.950 . S
C370 C369 1.369 . S
C370 C371 1.392 . S
C370 H383 0.951 . S
C371 C370 1.392 . S
C371 C373 1.384 . S
H372 C374 0.949 . S
C373 C371 1.384 . S
C373 C374 1.385 . S
C373 H375 0.950 . S
C374 C368 1.404 . S
C374 H372 0.949 . S
C374 C373 1.385 . S
H375 C373 0.950 . S
H376 C360 0.951 . S
H377 C362 0.951 . S
H378 C364 0.951 . S
H379 C365 0.950 . S
H380 C366 0.950 . S
H381 C367 0.950 . S
H382 C369 0.950 . S
H383 C370 0.951 . S
C384 C385 1.386 . S
C384 C386 1.383 . S
C384 H400 0.951 . S
C385 C384 1.386 . S
C385 C389 1.383 . S
C386 C384 1.383 . S
C386 C387 1.402 . S
C386 H401 0.951 . S
C387 C386 1.402 . S
C387 C388 1.375 . S
C387 C390 1.481 . S
C388 C387 1.375 . S
C388 C389 1.367 . S
C388 H402 0.951 . S
C389 C385 1.383 . S
C389 C388 1.367 . S
C389 H403 0.950 . S
C390 C387 1.481 . S
C390 C391 1.297 1_455 S
C390 H404 0.950 . S
C391 C390 1.297 1_655 S
C391 C392 1.479 . S
C391 H405 0.950 . S
C392 C391 1.479 . S
C392 C393 1.375 . S
C392 C398 1.404 . S
C393 C392 1.375 . S
C393 C394 1.369 . S
C393 H406 0.950 . S
C394 C393 1.369 . S
C394 C395 1.392 . S
C394 H407 0.951 . S
C395 C394 1.392 . S
C395 C397 1.384 . S
H396 C398 0.949 . S
C397 C395 1.384 . S
C397 C398 1.385 . S
C397 H399 0.950 . S
C398 C392 1.404 . S
C398 H396 0.949 . S
C398 C397 1.385 . S
H399 C397 0.950 . S
H400 C384 0.951 . S
H401 C386 0.951 . S
H402 C388 0.951 . S
H403 C389 0.950 . S
H404 C390 0.950 . S
H405 C391 0.950 . S
H406 C393 0.950 . S
H407 C394 0.951 . S
C408 C409 1.386 . S
C408 C410 1.383 . S
C408 H424 0.951 . S
C409 C408 1.386 . S
C409 C413 1.383 . S
C410 C408 1.383 . S
C410 C411 1.402 . S
C410 H425 0.951 . S
C411 C410 1.402 . S
C411 C412 1.375 . S
C411 C414 1.481 . S
C412 C411 1.375 . S
C412 C413 1.367 . S
C412 H426 0.951 . S
C413 C409 1.383 . S
C413 C412 1.367 . S
C413 H427 0.950 . S
C414 C411 1.481 . S
C414 C415 1.297 1_545 S
C414 H428 0.950 . S
C415 C414 1.297 1_565 S
C415 C416 1.479 . S
C415 H429 0.950 . S
C416 C415 1.479 . S
C416 C417 1.375 . S
C416 C422 1.404 . S
C417 C416 1.375 . S
C417 C418 1.369 . S
C417 H430 0.950 . S
C418 C417 1.369 . S
C418 C419 1.392 . S
C418 H431 0.951 . S
C419 C418 1.392 . S
C419 C421 1.384 . S
H420 C422 0.949 . S
C421 C419 1.384 . S
C421 C422 1.385 . S
C421 H423 0.950 . S
C422 C416 1.404 . S
C422 H420 0.949 . S
C422 C421 1.385 . S
H423 C421 0.950 . S
H424 C408 0.951 . S
H425 C410 0.951 . S
H426 C412 0.951 . S
H427 C413 0.950 . S
H428 C414 0.950 . S
H429 C415 0.950 . S
H430 C417 0.950 . S
H431 C418 0.951 . S
C432 C433 1.386 . S
C432 C434 1.383 . S
C432 H448 0.951 . S
C433 C432 1.386 . S
C433 C437 1.383 . S
C434 C432 1.383 . S
C434 C435 1.402 . S
C434 H449 0.951 . S
C435 C434 1.402 . S
C435 C436 1.375 . S
C435 C438 1.481 . S
C436 C435 1.375 . S
C436 C437 1.367 . S
C436 H450 0.951 . S
C437 C433 1.383 . S
C437 C436 1.367 . S
C437 H451 0.950 . S
C438 C435 1.481 . S
C438 C439 1.297 . S
C438 H452 0.950 . S
C439 C438 1.297 . S
C439 C440 1.479 . S
C439 H453 0.950 . S
C440 C439 1.479 . S
C440 C441 1.375 . S
C440 C446 1.404 . S
C441 C440 1.375 . S
C441 C442 1.369 . S
C441 H454 0.950 . S
C442 C441 1.369 . S
C442 C443 1.392 . S
C442 H455 0.951 . S
C443 C442 1.392 . S
C443 C445 1.384 . S
H444 C446 0.949 . S
C445 C443 1.384 . S
C445 C446 1.385 . S
C445 H447 0.950 . S
C446 C440 1.404 . S
C446 H444 0.949 . S
C446 C445 1.385 . S
H447 C445 0.950 . S
H448 C432 0.951 . S
H449 C434 0.951 . S
H450 C436 0.951 . S
H451 C437 0.950 . S
H452 C438 0.950 . S
H453 C439 0.950 . S
H454 C441 0.950 . S
H455 C442 0.951 . S
C241 C101 1.497 . S
C251 C2 1.490 . S
C265 C61 1.474 . S
C275 C141 1.491 . S
C289 C82 1.473 . S
C299 C181 1.473 . S
C313 C122 1.485 . S
C323 C221 1.468 . S
C337 C162 1.472 . S
C347 C21 1.453 . S
C361 C202 1.478 . S
C371 C42 1.481 . S
C385 C15 1.496 . S
C395 C135 1.495 . S
C409 C55 1.497 . S
C419 C175 1.489 . S
C433 C95 1.496 . S
C443 C215 1.496 . S
