# Generated by pormake.
# Topology fnz, (5)-cn, num edge types: 1
# Building blocks:
#     Node 0, Type 0, BuildingBlock: XOMCOT_clean_sbu_1, # of connection points: 5
#     Node 1, Type 0, BuildingBlock: XOMCOT_clean_sbu_1, # of connection points: 5
#     Node 2, Type 0, BuildingBlock: XOMCOT_clean_sbu_1, # of connection points: 5
#     Node 3, Type 0, BuildingBlock: XOMCOT_clean_sbu_1, # of connection points: 5
#     Node 4, Type 0, BuildingBlock: XOMCOT_clean_sbu_1, # of connection points: 5
#     Node 5, Type 0, BuildingBlock: XOMCOT_clean_sbu_1, # of connection points: 5
#     Node 6, Type 0, BuildingBlock: XOMCOT_clean_sbu_1, # of connection points: 5
#     Node 7, Type 0, BuildingBlock: XOMCOT_clean_sbu_1, # of connection points: 5
#     Node 8, Type 0, BuildingBlock: XOMCOT_clean_sbu_1, # of connection points: 5
#     Node 9, Type 0, BuildingBlock: XOMCOT_clean_sbu_1, # of connection points: 5
#     Node 10, Type 0, BuildingBlock: XOMCOT_clean_sbu_1, # of connection points: 5
#     Node 11, Type 0, BuildingBlock: XOMCOT_clean_sbu_1, # of connection points: 5
#     Edge 12, Type (0, 0), BuildingBlock: MIFKUJ_clean_linker_0, # of connection points: 2
#     Edge 13, Type (0, 0), BuildingBlock: MIFKUJ_clean_linker_0, # of connection points: 2
#     Edge 14, Type (0, 0), BuildingBlock: MIFKUJ_clean_linker_0, # of connection points: 2
#     Edge 15, Type (0, 0), BuildingBlock: MIFKUJ_clean_linker_0, # of connection points: 2
#     Edge 16, Type (0, 0), BuildingBlock: MIFKUJ_clean_linker_0, # of connection points: 2
#     Edge 17, Type (0, 0), BuildingBlock: MIFKUJ_clean_linker_0, # of connection points: 2
#     Edge 18, Type (0, 0), BuildingBlock: MIFKUJ_clean_linker_0, # of connection points: 2
#     Edge 19, Type (0, 0), BuildingBlock: MIFKUJ_clean_linker_0, # of connection points: 2
#     Edge 20, Type (0, 0), BuildingBlock: MIFKUJ_clean_linker_0, # of connection points: 2
#     Edge 21, Type (0, 0), BuildingBlock: MIFKUJ_clean_linker_0, # of connection points: 2
#     Edge 22, Type (0, 0), BuildingBlock: MIFKUJ_clean_linker_0, # of connection points: 2
#     Edge 23, Type (0, 0), BuildingBlock: MIFKUJ_clean_linker_0, # of connection points: 2
#     Edge 24, Type (0, 0), BuildingBlock: MIFKUJ_clean_linker_0, # of connection points: 2
#     Edge 25, Type (0, 0), BuildingBlock: MIFKUJ_clean_linker_0, # of connection points: 2
#     Edge 26, Type (0, 0), BuildingBlock: MIFKUJ_clean_linker_0, # of connection points: 2
#     Edge 27, Type (0, 0), BuildingBlock: MIFKUJ_clean_linker_0, # of connection points: 2
#     Edge 28, Type (0, 0), BuildingBlock: MIFKUJ_clean_linker_0, # of connection points: 2
#     Edge 29, Type (0, 0), BuildingBlock: MIFKUJ_clean_linker_0, # of connection points: 2
#     Edge 30, Type (0, 0), BuildingBlock: MIFKUJ_clean_linker_0, # of connection points: 2
#     Edge 31, Type (0, 0), BuildingBlock: MIFKUJ_clean_linker_0, # of connection points: 2
#     Edge 32, Type (0, 0), BuildingBlock: MIFKUJ_clean_linker_0, # of connection points: 2
#     Edge 33, Type (0, 0), BuildingBlock: MIFKUJ_clean_linker_0, # of connection points: 2
#     Edge 34, Type (0, 0), BuildingBlock: MIFKUJ_clean_linker_0, # of connection points: 2
#     Edge 35, Type (0, 0), BuildingBlock: MIFKUJ_clean_linker_0, # of connection points: 2
#     Edge 36, Type (0, 0), BuildingBlock: MIFKUJ_clean_linker_0, # of connection points: 2
#     Edge 37, Type (0, 0), BuildingBlock: MIFKUJ_clean_linker_0, # of connection points: 2
#     Edge 38, Type (0, 0), BuildingBlock: MIFKUJ_clean_linker_0, # of connection points: 2
#     Edge 39, Type (0, 0), BuildingBlock: MIFKUJ_clean_linker_0, # of connection points: 2
#     Edge 40, Type (0, 0), BuildingBlock: MIFKUJ_clean_linker_0, # of connection points: 2
#     Edge 41, Type (0, 0), BuildingBlock: MIFKUJ_clean_linker_0, # of connection points: 2
# Relax obj value: 0.375
# Max RMSD: 0.283
# Mean RMSD: 0.283
data_MOF--net-fnz--node1-XOMCOT_clean_sbu_1--edge1-MIFKUJ_clean_linker_0
_symmetry_space_group_name_H-M    P1
_symmetry_Int_Tables_number       1
_symmetry_cell_setting            triclinic
loop_
_symmetry_equiv_pos_as_xyz
'x, y, z'
_cell_length_a     56.913607
_cell_length_b     56.908455
_cell_length_c     35.211223
_cell_angle_alpha  89.913094
_cell_angle_beta   90.003645
_cell_angle_gamma 119.89797
loop_
_atom_site_label
_atom_site_type_symbol
_atom_site_fract_x
_atom_site_fract_y
_atom_site_fract_z
_atom_type_partial_charge
C0 C 0.50038 0.15979 0.97476 0.0
C1 C 0.51496 0.14645 0.97749 0.0
N2 N 0.49787 0.12075 0.98813 0.0
N3 N 0.47401 0.14251 0.98306 0.0
C4 C 0.47342 0.11891 0.99137 0.0
H5 H 0.50862 0.1808 0.96682 0.0
Co6 Co 0.44518 0.15054 0.97993 0.0
C7 C 0.47272 0.17489 0.05382 0.0
O8 O 0.48005 0.15644 0.05675 0.0
N9 N 0.41727 0.15843 0.97578 0.0
C10 C 0.37817 0.15605 0.96152 0.0
C11 C 0.39223 0.14219 0.96183 0.0
C12 C 0.41815 0.18213 0.98324 0.0
N13 N 0.39453 0.18127 0.97494 0.0
O14 O 0.4659 0.17944 0.94419 0.0
H15 H 0.38476 0.12172 0.9519 0.0
H16 H 0.43614 0.19996 0.99334 0.0
O17 O 0.45943 0.17508 0.0245 0.0
C18 C 0.46105 0.16838 0.91138 0.0
O19 O 0.4459 0.14186 0.90965 0.0
N20 N 0.42268 0.12048 1.01019 0.0
C21 C 0.38712 0.07052 0.04237 0.0
C22 C 0.39735 0.0942 0.06417 0.0
C23 C 0.41509 0.11927 0.04731 0.0
C24 C 0.41096 0.09778 0.98819 0.0
C25 C 0.39369 0.07252 1.00387 0.0
H26 H 0.42213 0.13743 0.06397 0.0
H27 H 0.41603 0.0993 0.95835 0.0
H28 H 0.45551 0.10029 0.99903 0.0
H29 H 0.53639 0.15496 0.97193 0.0
H30 H 0.35748 0.14806 0.95209 0.0
H31 H 0.39178 0.09328 0.09377 0.0
H32 H 0.38546 0.05466 0.98604 0.0
C33 C 0.33348 0.50376 0.02534 0.0
C34 C 0.36142 0.51828 0.02684 0.0
N35 N 0.37086 0.5022 1.01428 0.0
N36 N 0.32536 0.47872 1.01176 0.0
C37 C 0.34867 0.47857 1.00506 0.0
H38 H 0.31986 0.51076 0.03442 0.0
Co39 Co 0.28901 0.45132 1.00809 0.0
C40 C 0.27286 0.4302 0.08633 0.0
O41 O 0.26067 0.40515 0.07371 0.0
N42 N 0.25211 0.42518 1.00518 0.0
C43 C 0.21101 0.38896 0.99985 0.0
C44 C 0.2381 0.39938 0.99237 0.0
C45 C 0.23287 0.42999 0.0196 0.0
N46 N 0.20776 0.40819 0.01722 0.0
O47 O 0.28961 0.4548 0.95305 0.0
H48 H 0.24645 0.38808 0.97936 0.0
H49 H 0.23748 0.44888 0.03315 0.0
O50 O 0.28627 0.44992 0.06345 0.0
C51 C 0.30568 0.46397 0.92466 0.0
O52 O 0.3319 0.47464 0.92938 0.0
N53 N 0.30019 0.42412 1.00621 0.0
C54 C 0.32001 0.38765 1.00277 0.0
C55 C 0.32342 0.403 0.03547 0.0
C56 C 0.31365 0.42116 0.0365 0.0
C57 C 0.29753 0.40982 0.97368 0.0
C58 C 0.30696 0.39138 0.97155 0.0
H59 H 0.31841 0.4339 0.0612 0.0
H60 H 0.28755 0.41195 0.94899 0.0
H61 H 0.34955 0.4616 0.99289 0.0
H62 H 0.37373 0.53872 0.03743 0.0
H63 H 0.19496 0.36868 0.99317 0.0
H64 H 0.33428 0.40162 0.05984 0.0
H65 H 0.30369 0.3799 0.94566 0.0
C66 C 0.84079 0.33067 1.00786 0.0
C67 C 0.85543 0.35862 1.0092 0.0
N68 N 0.88165 0.36646 1.00293 0.0
N69 N 0.85783 0.32115 1.00078 0.0
C70 C 0.88246 0.3435 0.99725 0.0
H71 H 0.81928 0.31807 1.01301 0.0
Co72 Co 0.84998 0.2852 0.99918 0.0
C73 C 0.82608 0.26217 0.07404 0.0
O74 O 0.84133 0.25084 0.07395 0.0
N75 N 0.84123 0.24852 0.99641 0.0
C76 C 0.8391 0.20857 0.98945 0.0
C77 C 0.85566 0.23625 0.9875 0.0
C78 C 0.81579 0.22769 1.00214 0.0
N79 N 0.81409 0.20331 0.99908 0.0
O80 O 0.81998 0.27629 0.96518 0.0
H81 H 0.87681 0.2462 0.98007 0.0
H82 H 0.79877 0.2304 1.0091 0.0
O83 O 0.82708 0.27702 0.04582 0.0
C84 C 0.82994 0.28149 0.93164 0.0
O85 O 0.85638 0.29275 0.92818 0.0
N86 N 0.8815 0.29515 0.02831 0.0
C87 C 0.93415 0.31942 0.05699 0.0
C88 C 0.91337 0.31941 0.0783 0.0
C89 C 0.88706 0.30723 0.06332 0.0
C90 C 0.90197 0.29631 1.00684 0.0
C91 C 0.92818 0.30752 0.02102 0.0
H92 H 0.8718 0.30932 0.07873 0.0
H93 H 0.8984 0.29042 0.97733 0.0
H94 H 0.90094 0.34306 0.99187 0.0
H95 H 0.84769 0.37203 0.01622 0.0
H96 H 0.84521 0.19353 0.98525 0.0
H97 H 0.91761 0.32945 0.1056 0.0
H98 H 0.94407 0.30841 1.00305 0.0
C99 C 0.52335 0.85039 0.93333 0.0
C100 C 0.51131 0.86613 0.93143 0.0
N101 N 0.51599 0.87977 0.96429 0.0
N102 N 0.53582 0.85409 0.96722 0.0
C103 C 0.53033 0.87171 0.98576 0.0
H104 H 0.52522 0.83932 0.90978 0.0
Co105 Co 0.56367 0.84599 0.97707 0.0
C106 C 0.5246 0.81696 0.04237 0.0
O107 O 0.50372 0.81769 0.02786 0.0
N108 N 0.59159 0.83856 0.98628 0.0
C109 C 0.63211 0.84203 0.9905 0.0
C110 C 0.61833 0.85519 0.98033 0.0
C111 C 0.58953 0.81531 0.99945 0.0
N112 N 0.61394 0.81692 1.00252 0.0
O113 O 0.54494 0.81318 0.94726 0.0
H114 H 0.62727 0.87551 0.96897 0.0
H115 H 0.57045 0.79758 1.00679 0.0
O116 O 0.54689 0.82705 0.02408 0.0
C117 C 0.55757 0.81675 0.91585 0.0
O118 O 0.57956 0.84017 0.90968 0.0
N119 N 0.58325 0.87889 1.00214 0.0
C120 C 0.61194 0.9324 0.02671 0.0
C121 C 0.60064 0.91097 0.05313 0.0
C122 C 0.58644 0.88412 0.04019 0.0
C123 C 0.59479 0.89932 0.9763 0.0
C124 C 0.60927 0.92613 0.98788 0.0
H125 H 0.57767 0.8678 0.06065 0.0
H126 H 0.59234 0.89458 0.9463 0.0
H127 H 0.53928 0.88098 1.01267 0.0
H128 H 0.50204 0.86926 0.90652 0.0
H129 H 0.65378 0.85013 0.98844 0.0
H130 H 0.60235 0.91488 0.08337 0.0
H131 H 0.61842 0.94177 0.96639 0.0
C132 C 0.66387 0.51477 0.9914 0.0
C133 C 0.63684 0.50631 0.98616 0.0
N134 N 0.63305 0.52764 0.9918 0.0
N135 N 0.67715 0.54123 1.001 0.0
C136 C 0.65792 0.54858 0.99992 0.0
H137 H 0.67317 0.50227 0.98881 0.0
Co138 Co 0.71455 0.56358 1.01024 0.0
C139 C 0.69863 0.52215 0.07524 0.0
O140 O 0.67233 0.50939 0.06958 0.0
N141 N 0.75171 0.58576 0.01918 0.0
C142 C 0.79092 0.61028 0.0492 0.0
C143 C 0.76325 0.59586 0.05326 0.0
C144 C 0.77281 0.59418 0.99492 0.0
N145 N 0.79686 0.60907 1.01252 0.0
O146 O 0.72232 0.54289 0.97383 0.0
H147 H 0.75225 0.5925 0.07962 0.0
H148 H 0.77076 0.58942 0.96497 0.0
O149 O 0.71437 0.54162 0.05332 0.0
C150 C 0.7208 0.55172 0.94102 0.0
O151 O 0.71418 0.57079 0.93946 0.0
N152 N 0.70735 0.58573 0.04202 0.0
C153 C 0.69111 0.62065 0.07151 0.0
C154 C 0.68208 0.59518 0.08811 0.0
C155 C 0.69083 0.57802 0.07322 0.0
C156 C 0.71698 0.61086 0.0266 0.0
C157 C 0.70945 0.62881 0.04127 0.0
H158 H 0.68246 0.55793 0.08479 0.0
H159 H 0.72942 0.61642 1.00131 0.0
H160 H 0.66204 0.56895 1.00543 0.0
H161 H 0.62129 0.48601 0.97863 0.0
H162 H 0.80557 0.62004 0.07172 0.0
H163 H 0.66753 0.58821 0.11116 0.0
H164 H 0.7164 0.64818 0.02739 0.0
C165 C 0.15313 0.6648 0.07058 0.0
C166 C 0.13828 0.63697 0.06755 0.0
N167 N 0.11258 0.63 0.05909 0.0
N168 N 0.13687 0.67544 0.06418 0.0
C169 C 0.11222 0.65348 0.05762 0.0
H170 H 0.17463 0.67653 0.07623 0.0
Co171 Co 0.14761 0.71288 0.06458 0.0
C172 C 0.16709 0.71574 0.13293 0.0
O173 O 0.14088 0.706 0.13706 0.0
N174 N 0.15788 0.74927 0.0669 0.0
C175 C 0.15766 0.78658 0.08427 0.0
C176 C 0.14285 0.75884 0.08302 0.0
C177 C 0.18195 0.77151 0.05909 0.0
N178 N 0.18231 0.7946 0.06934 0.0
O179 O 0.17127 0.71969 0.01946 0.0
H180 H 0.12287 0.74643 0.09492 0.0
H181 H 0.19909 0.77071 0.04731 0.0
O182 O 0.1766 0.71997 0.09922 0.0
C183 C 0.16822 0.70394 0.99149 0.0
O184 O 0.14719 0.67935 0.99088 0.0
N185 N 0.1179 0.70692 0.0342 0.0
C186 C 0.07015 0.69933 1.00119 0.0
C187 C 0.07118 0.69461 0.03998 0.0
C188 C 0.09532 0.69879 0.05592 0.0
C189 C 0.11774 0.71328 0.99673 0.0
C190 C 0.09372 0.70879 0.97934 0.0
H191 H 0.09607 0.69518 0.08595 0.0
H192 H 0.13607 0.72263 0.98013 0.0
H193 H 0.09413 0.65428 0.05141 0.0
H194 H 0.14597 0.62307 0.07028 0.0
H195 H 0.15124 0.79973 0.09712 0.0
H196 H 0.05339 0.68752 0.0578 0.0
H197 H 0.09375 0.71347 0.9495 0.0
C198 C 0.83546 0.50635 0.48928 0.0
C199 C 0.84963 0.49257 0.48725 0.0
N200 N 0.87486 0.50898 0.5003 0.0
N201 N 0.85155 0.53132 0.504 0.0
C202 C 0.87541 0.53211 0.5103 0.0
H203 H 0.81472 0.49855 0.48031 0.0
Co204 Co 0.84349 0.55975 0.50918 0.0
C205 C 0.8254 0.5511 0.43903 0.0
O206 O 0.85174 0.56756 0.43713 0.0
N207 N 0.8359 0.58792 0.51288 0.0
C208 C 0.83914 0.62828 0.50751 0.0
C209 C 0.85184 0.61357 0.50069 0.0
C210 C 0.81333 0.58734 0.52613 0.0
N211 N 0.81484 0.61175 0.52355 0.0
O212 O 0.81845 0.54144 0.55187 0.0
H213 H 0.87132 0.62115 0.48716 0.0
H214 H 0.79575 0.56913 0.53628 0.0
O215 O 0.81491 0.54278 0.47185 0.0
C216 C 0.81201 0.52116 0.57385 0.0
O217 O 0.82253 0.50551 0.56829 0.0
N218 N 0.87303 0.57853 0.54247 0.0
C219 C 0.92187 0.60918 0.58062 0.0
C220 C 0.92045 0.6114 0.54128 0.0
C221 C 0.89584 0.59583 0.52278 0.0
C222 C 0.87386 0.5767 0.58116 0.0
C223 C 0.89835 0.5917 0.6008 0.0
H224 H 0.89501 0.59685 0.49217 0.0
H225 H 0.85597 0.56376 0.59735 0.0
H226 H 0.89313 0.54923 0.52205 0.0
H227 H 0.84215 0.47237 0.47607 0.0
H228 H 0.84734 0.64956 0.50117 0.0
H229 H 0.93837 0.62466 0.52489 0.0
H230 H 0.89891 0.58975 0.63135 0.0
C231 C 0.32974 0.84264 0.57635 0.0
C232 C 0.35684 0.86155 0.57973 0.0
N233 N 0.35971 0.88641 0.57618 0.0
N234 N 0.3155 0.85543 0.57003 0.0
C235 C 0.33433 0.88211 0.5714 0.0
H236 H 0.32111 0.82087 0.57698 0.0
Co237 Co 0.27763 0.83922 0.56186 0.0
C238 C 0.29514 0.81897 0.49227 0.0
O239 O 0.32141 0.83388 0.49732 0.0
N240 N 0.24013 0.82287 0.55365 0.0
C241 C 0.20107 0.80636 0.52276 0.0
C242 C 0.22863 0.82242 0.51994 0.0
C243 C 0.219 0.80696 0.57663 0.0
N244 N 0.1949 0.79649 0.55843 0.0
O245 O 0.27151 0.80977 0.59517 0.0
H246 H 0.23971 0.83227 0.49435 0.0
H247 H 0.22127 0.80261 0.60584 0.0
O248 O 0.27878 0.8202 0.51602 0.0
C249 C 0.27392 0.81942 0.62865 0.0
O250 O 0.28004 0.84486 0.63204 0.0
N251 N 0.28311 0.86954 0.53383 0.0
C252 C 0.30018 0.92337 0.51608 0.0
C253 C 0.30885 0.90843 0.49418 0.0
C254 C 0.29974 0.88123 0.50328 0.0
C255 C 0.27268 0.88301 0.55302 0.0
C256 C 0.28042 0.90965 0.54404 0.0
H257 H 0.3084 0.87085 0.48841 0.0
H258 H 0.2597 0.87361 0.57734 0.0
H259 H 0.32965 0.89826 0.56879 0.0
H260 H 0.37324 0.85723 0.58283 0.0
H261 H 0.18686 0.80134 0.49961 0.0
H262 H 0.32406 0.91808 0.47226 0.0
H263 H 0.27217 0.91985 0.56065 0.0
C264 C 0.49853 0.33731 0.49471 0.0
C265 C 0.51036 0.3651 0.49693 0.0
N266 N 0.49058 0.37155 0.49623 0.0
N267 N 0.47137 0.32621 0.4919 0.0
C268 C 0.46724 0.34764 0.4939 0.0
H269 H 0.50915 0.32599 0.49403 0.0
Co270 Co 0.44508 0.28911 0.48675 0.0
C271 C 0.47638 0.30096 0.41196 0.0
O272 O 0.48884 0.32743 0.41557 0.0
N273 N 0.41905 0.25232 0.48113 0.0
C274 C 0.38704 0.21404 0.45505 0.0
C275 C 0.40193 0.24165 0.45131 0.0
C276 C 0.41449 0.23057 0.50223 0.0
N277 N 0.3951 0.20718 0.48694 0.0
O278 O 0.46762 0.27908 0.5162 0.0
H279 H 0.401 0.25305 0.42734 0.0
H280 H 0.42553 0.23161 0.5277 0.0
O281 O 0.46017 0.28581 0.43796 0.0
C282 C 0.46555 0.28418 0.55107 0.0
O283 O 0.45106 0.29567 0.5592 0.0
N284 N 0.42139 0.29854 0.46346 0.0
C285 C 0.38226 0.31234 0.44573 0.0
C286 C 0.40345 0.31831 0.42023 0.0
C287 C 0.42288 0.31091 0.42951 0.0
C288 C 0.40097 0.29295 0.48842 0.0
C289 C 0.38101 0.29932 0.47992 0.0
H290 H 0.43925 0.31587 0.41001 0.0
H291 H 0.40048 0.2837 0.51549 0.0
H292 H 0.44747 0.34591 0.49264 0.0
H293 H 0.53187 0.3794 0.4986 0.0
H294 H 0.37258 0.19993 0.43481 0.0
H295 H 0.40501 0.32867 0.39372 0.0
H296 H 0.36511 0.29483 0.50044 0.0
C297 C 0.14713 0.47913 0.49872 0.0
C298 C 0.13043 0.49018 0.49827 0.0
N299 N 0.1058 0.4715 0.51139 0.0
N300 N 0.13308 0.45349 0.51179 0.0
C301 C 0.10818 0.44961 0.51981 0.0
H302 H 0.16798 0.48908 0.48945 0.0
Co303 Co 0.1436 0.42742 0.5164 0.0
C304 C 0.18856 0.45743 0.46029 0.0
O305 O 0.20578 0.47272 0.48655 0.0
N306 N 0.15412 0.40127 0.52209 0.0
C307 C 0.16145 0.37018 0.54944 0.0
C308 C 0.14776 0.38438 0.55214 0.0
C309 C 0.1721 0.39735 0.50193 0.0
N310 N 0.17681 0.37861 0.51795 0.0
O311 O 0.17382 0.4512 0.54698 0.0
H312 H 0.13504 0.38343 0.57558 0.0
H313 H 0.18242 0.4085 0.47668 0.0
O314 O 0.16431 0.43988 0.46941 0.0
C315 C 0.16702 0.45125 0.5814 0.0
O316 O 0.14106 0.43854 0.58984 0.0
N317 N 0.11275 0.40303 0.48915 0.0
C318 C 0.06144 0.36884 0.45942 0.0
C319 C 0.08075 0.39086 0.4381 0.0
C320 C 0.1065 0.40774 0.45347 0.0
C321 C 0.09408 0.38177 0.51011 0.0
C322 C 0.06851 0.36417 0.49557 0.0
H323 H 0.12073 0.42545 0.43764 0.0
H324 H 0.09844 0.37926 0.53915 0.0
H325 H 0.09203 0.43079 0.53118 0.0
H326 H 0.13592 0.51017 0.48788 0.0
H327 H 0.16144 0.35605 0.57007 0.0
H328 H 0.07575 0.39533 0.41033 0.0
H329 H 0.05384 0.3479 0.51336 0.0
C330 C 0.65738 0.15736 0.49679 0.0
C331 C 0.62966 0.14444 0.50182 0.0
N332 N 0.62107 0.11858 0.51164 0.0
N333 N 0.66639 0.13971 0.50304 0.0
C334 C 0.64351 0.11625 0.51199 0.0
H335 H 0.67015 0.1785 0.48955 0.0
Co336 Co 0.70325 0.14775 0.49946 0.0
C337 C 0.7071 0.16714 0.43189 0.0
O338 O 0.69639 0.1407 0.42946 0.0
N339 N 0.73901 0.15574 0.4946 0.0
C340 C 0.77512 0.1533 0.47684 0.0
C341 C 0.74757 0.13887 0.4822 0.0
C342 C 0.76164 0.18035 0.49627 0.0
N343 N 0.78399 0.17948 0.48544 0.0
O344 O 0.71325 0.17129 0.54527 0.0
H345 H 0.73452 0.11773 0.4754 0.0
H346 H 0.76146 0.19869 0.50374 0.0
O347 O 0.71144 0.17749 0.46512 0.0
C348 C 0.69924 0.16841 0.5753 0.0
O349 O 0.67438 0.14794 0.57765 0.0
N350 N 0.69586 0.11694 0.52832 0.0
C351 C 0.68426 0.06684 0.55786 0.0
C352 C 0.67712 0.06907 0.52059 0.0
C353 C 0.68382 0.09437 0.50611 0.0
C354 C 0.70463 0.11557 0.564 0.0
C355 C 0.69875 0.09048 0.57952 0.0
H356 H 0.67876 0.09604 0.477 0.0
H357 H 0.71688 0.13371 0.58025 0.0
H358 H 0.64285 0.09759 0.51925 0.0
H359 H 0.61696 0.15354 0.49927 0.0
H360 H 0.78736 0.14536 0.46521 0.0
H361 H 0.66692 0.05142 0.50246 0.0
H362 H 0.70556 0.08956 0.60793 0.0
C363 C 0.51368 0.6717 0.46443 0.0
C364 C 0.50103 0.64386 0.46166 0.0
N365 N 0.5199 0.63643 0.46614 0.0
N366 N 0.5404 0.68184 0.47125 0.0
C367 C 0.54345 0.65969 0.47162 0.0
H368 H 0.50382 0.68372 0.46264 0.0
Co369 Co 0.56646 0.71886 0.47903 0.0
C370 C 0.55689 0.72994 0.41125 0.0
O371 O 0.57548 0.72275 0.40862 0.0
N372 N 0.59228 0.75518 0.48561 0.0
C373 C 0.63144 0.79371 0.48105 0.0
C374 C 0.61685 0.76734 0.46882 0.0
C375 C 0.59221 0.77464 0.50753 0.0
N376 N 0.61592 0.79825 0.50543 0.0
O377 O 0.54604 0.72072 0.52323 0.0
H378 H 0.62376 0.75757 0.44903 0.0
H379 H 0.57534 0.77156 0.52512 0.0
O380 O 0.54708 0.72935 0.44411 0.0
C381 C 0.53148 0.70309 0.54833 0.0
O382 O 0.52734 0.67829 0.54577 0.0
N383 N 0.58793 0.70971 0.50923 0.0
C384 C 0.62616 0.69847 0.54071 0.0
C385 C 0.62364 0.69944 0.50131 0.0
C386 C 0.60467 0.70542 0.48627 0.0
C387 C 0.5911 0.71046 0.54781 0.0
C388 C 0.60969 0.70409 0.56422 0.0
H389 H 0.60283 0.70614 0.45578 0.0
H390 H 0.58016 0.71671 0.56625 0.0
H391 H 0.56225 0.6601 0.47718 0.0
H392 H 0.47964 0.63018 0.45693 0.0
H393 H 0.65174 0.80854 0.47217 0.0
H394 H 0.63607 0.69534 0.48218 0.0
H395 H 0.61177 0.70437 0.59482 0.0
H396 H 0.53288 0.11235 0.94625 0.0
H397 H 0.53823 0.07217 0.94767 0.0
H398 H 0.48079 0.03909 0.03972 0.0
H399 H 0.47524 0.07916 0.03822 0.0
H400 H 0.52859 0.03167 0.04591 0.0
H401 H 0.45611 0.01709 0.96055 0.0
H402 H 0.43614 0.02938 0.90734 0.0
H403 H 0.49558 0.03027 0.83132 0.0
H404 H 0.51618 0.0184 0.88427 0.0
H405 H 0.49777 0.89359 0.02652 0.0
H406 H 0.49587 0.93547 0.03574 0.0
H407 H 0.53154 0.96336 0.92483 0.0
H408 H 0.53186 0.92108 0.9151 0.0
H409 H 0.49393 0.9738 0.93124 0.0
H410 H 0.56609 0.98642 0.01604 0.0
H411 H 0.58618 0.97454 0.06966 0.0
H412 H 0.52999 0.97872 0.14657 0.0
H413 H 0.50905 0.98996 0.0935 0.0
C414 C 0.52183 0.09677 0.96727 0.0
C415 C 0.5035 0.09879 0.99193 0.0
C416 C 0.52483 0.07382 0.968 0.0
C417 C 0.50981 0.05263 0.99371 0.0
C418 C 0.49259 0.05523 0.01973 0.0
C419 C 0.48928 0.078 0.01864 0.0
C420 C 0.5102 0.0268 0.99102 0.0
C421 C 0.52093 0.01884 0.02101 0.0
C422 C 0.50038 0.01031 0.95837 0.0
C423 C 0.48785 0.01715 0.92643 0.0
C424 C 0.46506 0.02014 0.93255 0.0
C425 C 0.4536 0.02699 0.90243 0.0
C426 C 0.46463 0.03068 0.86599 0.0
C427 C 0.48709 0.02745 0.85957 0.0
C428 C 0.49865 0.02065 0.88962 0.0
C429 C 0.50498 0.90872 1.00421 0.0
C430 C 0.51453 0.90405 0.96992 0.0
C431 C 0.50419 0.93275 1.00955 0.0
C432 C 0.51388 0.95292 0.98116 0.0
C433 C 0.52376 0.9482 0.94712 0.0
C434 C 0.52388 0.924 0.94147 0.0
C435 C 0.51306 0.97858 0.98583 0.0
C436 C 0.50197 0.98655 0.95617 0.0
C437 C 0.52284 0.99512 0.01872 0.0
C438 C 0.53573 0.98868 0.05066 0.0
C439 C 0.55781 0.98453 0.04431 0.0
C440 C 0.56935 0.9779 0.07458 0.0
C441 C 0.5593 0.97574 0.11136 0.0
C442 C 0.53771 0.9803 0.11803 0.0
C443 C 0.52597 0.98677 0.08787 0.0
H444 H 0.56834 0.97069 0.13473 0.0
H445 H 0.45573 0.03598 0.8427 0.0
H446 H 0.6257 0.57136 0.98458 0.0
H447 H 0.58287 0.57139 0.9872 0.0
H448 H 0.53972 0.48453 1.00084 0.0
H449 H 0.5823 0.48424 0.99899 0.0
H450 H 0.51572 0.5004 0.94891 0.0
H451 H 0.55373 0.52776 0.07401 0.0
H452 H 0.587 0.55636 0.12238 0.0
H453 H 0.57665 0.62346 0.09034 0.0
H454 H 0.54416 0.59562 0.04067 0.0
H455 H 0.38868 0.46632 0.0208 0.0
H456 H 0.4351 0.4755 1.01476 0.0
H457 H 0.46292 0.56053 0.99862 0.0
H458 H 0.41608 0.5514 1.00447 0.0
H459 H 0.49634 0.55109 0.04681 0.0
H460 H 0.45853 0.52417 0.92209 0.0
H461 H 0.42325 0.4949 0.87624 0.0
H462 H 0.43179 0.42709 0.91049 0.0
H463 H 0.46694 0.45604 0.95694 0.0
C464 C 0.6072 0.55223 0.98841 0.0
C465 C 0.60769 0.52776 0.99162 0.0
C466 C 0.58267 0.55233 0.98982 0.0
C467 C 0.5581 0.52799 0.99448 0.0
C468 C 0.55844 0.50356 0.9971 0.0
C469 C 0.5829 0.50343 0.99584 0.0
C470 C 0.53187 0.52767 0.99648 0.0
C471 C 0.51152 0.51144 0.97044 0.0
C472 C 0.52658 0.5427 0.02389 0.0
C473 C 0.5468 0.55968 0.05309 0.0
C474 C 0.5589 0.54875 0.07674 0.0
C475 C 0.57761 0.56483 0.10446 0.0
C476 C 0.58401 0.59174 0.10933 0.0
C477 C 0.57175 0.60264 0.08644 0.0
C478 C 0.55331 0.58676 0.05835 0.0
C479 C 0.40455 0.48696 0.01562 0.0
C480 C 0.39859 0.50808 1.01246 0.0
C481 C 0.43114 0.4922 1.01234 0.0
C482 C 0.45239 0.51862 1.00557 0.0
C483 C 0.44676 0.53997 1.00368 0.0
C484 C 0.42003 0.53474 1.00706 0.0
C485 C 0.48029 0.52348 0.99975 0.0
C486 C 0.50085 0.54052 0.02492 0.0
C487 C 0.48593 0.50935 0.97151 0.0
C488 C 0.46533 0.49219 0.94293 0.0
C489 C 0.45285 0.50301 0.91987 0.0
C490 C 0.43287 0.48649 0.89381 0.0
C491 C 0.42529 0.45915 0.89045 0.0
C492 C 0.43772 0.44828 0.91308 0.0
C493 C 0.45771 0.46473 0.93917 0.0
H494 H 0.40979 0.44638 0.87032 0.0
H495 H 0.59844 0.60413 0.13088 0.0
H496 H 0.10374 0.58253 0.08964 0.0
H497 H 0.06459 0.53747 0.07869 0.0
H498 H 0.03148 0.57193 1.00061 0.0
H499 H 0.07036 0.61688 1.01167 0.0
H500 H 0.99349 0.53802 0.04764 0.0
H501 H 0.06106 0.53344 0.96835 0.0
H502 H 0.10552 0.53716 0.95622 0.0
H503 H 0.09001 0.47854 0.04378 0.0
H504 H 0.04537 0.47422 0.05601 0.0
H505 H 0.88775 0.41344 0.97522 0.0
H506 H 0.92755 0.45874 0.98255 0.0
H507 H 0.96628 0.42459 0.05084 0.0
H508 H 0.92721 0.37938 0.04148 0.0
H509 H 0.00178 0.45894 1.00771 0.0
H510 H 0.93529 0.46285 0.08842 0.0
H511 H 0.89149 0.4595 0.10431 0.0
H512 H 0.90545 0.51982 0.02012 0.0
H513 H 0.94906 0.52307 1.00329 0.0
C514 C 0.08825 0.58041 0.06985 0.0
C515 C 0.0901 0.60328 0.05168 0.0
C516 C 0.0659 0.55466 0.06355 0.0
C517 C 0.0452 0.55125 0.03848 0.0
C518 C 0.04714 0.57404 0.02012 0.0
C519 C 0.06935 0.59976 0.0266 0.0
C520 C 0.0211 0.52409 0.03215 0.0
C521 C 0.99526 0.52079 0.03841 0.0
C522 C 0.02339 0.50143 0.02115 0.0
C523 C 0.04999 0.50363 1.01321 0.0
C524 C 0.06717 0.52135 0.98497 0.0
C525 C 0.09235 0.52348 0.97797 0.0
C526 C 0.10055 0.50801 0.99909 0.0
C527 C 0.08356 0.49033 0.02718 0.0
C528 C 0.05828 0.48795 0.03405 0.0
C529 C 0.90485 0.41582 0.99173 0.0
C530 C 0.90462 0.39311 1.00767 0.0
C531 C 0.92749 0.44166 0.9962 0.0
C532 C 0.94987 0.4453 0.01787 0.0
C533 C 0.94943 0.42245 0.03391 0.0
C534 C 0.92714 0.39663 0.0286 0.0
C535 C 0.97398 0.47269 0.0234 0.0
C536 C -0.00012 0.4761 0.01692 0.0
C537 C 0.97173 0.49539 0.03469 0.0
C538 C 0.94536 0.49314 0.04451 0.0
C539 C 0.92891 0.47525 0.07314 0.0
C540 C 0.90412 0.47336 0.08231 0.0
C541 C 0.89567 0.48941 0.06322 0.0
C542 C 0.91199 0.50738 0.0349 0.0
C543 C 0.93675 0.50928 0.02556 0.0
H544 H 0.87649 0.48794 0.07039 0.0
H545 H 0.12008 0.50973 0.99373 0.0
H546 H 0.0532 0.43047 0.51559 0.0
H547 H 0.0127 0.43473 0.51707 0.0
H548 H 0.06239 0.52176 0.5111 0.0
H549 H 0.10304 0.51784 0.51186 0.0
H550 H 0.02329 0.50917 0.55911 0.0
H551 H 0.02953 0.47954 0.43359 0.0
H552 H 0.03187 0.44898 0.38614 0.0
H553 H 0.95349 0.38512 0.42097 0.0
H554 H 0.95091 0.41512 0.46912 0.0
H555 H 0.92848 0.54587 0.49556 0.0
H556 H 0.96626 0.5373 0.49998 0.0
H557 H 0.91018 0.45168 0.51254 0.0
H558 H 0.87206 0.46017 0.50819 0.0
H559 H 0.95049 0.4609 0.46402 0.0
H560 H 0.94421 0.49081 0.58877 0.0
H561 H 0.94197 0.5214 0.63633 0.0
H562 H 0.02027 0.58524 0.60125 0.0
H563 H 0.02278 0.5552 0.55299 0.0
C564 C 0.05569 0.45059 0.51524 0.0
C565 C 0.08165 0.47384 0.51342 0.0
C566 C 0.03237 0.45295 0.51563 0.0
C567 C 0.03442 0.47855 0.51353 0.0
C568 C 0.06024 0.50176 0.51255 0.0
C569 C 0.08354 0.49945 0.51259 0.0
C570 C 0.00981 0.48139 0.51196 0.0
C571 C 0.00753 0.49881 0.53803 0.0
C572 C 0.98883 0.46733 0.48507 0.0
C573 C 0.99029 0.44942 0.45562 0.0
C574 C 0.01293 0.45888 0.43148 0.0
C575 C 0.01429 0.44166 0.40438 0.0
C576 C 0.99294 0.41506 0.40072 0.0
C577 C 0.97011 0.40567 0.424 0.0
C578 C 0.96872 0.42275 0.45126 0.0
C579 C 0.92409 0.52522 0.49968 0.0
C580 C 0.89717 0.50372 0.50197 0.0
C581 C 0.94577 0.52035 0.50211 0.0
C582 C 0.94108 0.49389 0.50722 0.0
C583 C 0.91427 0.47228 0.50871 0.0
C584 C 0.89251 0.47714 0.50615 0.0
C585 C 0.96424 0.48889 0.51082 0.0
C586 C 0.96622 0.47109 0.48519 0.0
C587 C 0.98503 0.50267 0.53795 0.0
C588 C 0.98357 0.5208 0.567 0.0
C589 C 0.96085 0.51145 0.59095 0.0
C590 C 0.95954 0.52868 0.61806 0.0
C591 C 0.98094 0.55525 0.62176 0.0
C592 C 0.00368 0.56467 0.59831 0.0
C593 C 0.00506 0.54754 0.57108 0.0
H594 H 0.97993 0.5685 0.6429 0.0
H595 H 0.99403 0.40176 0.37972 0.0
H596 H 0.57401 0.11247 0.48307 0.0
H597 H 0.52812 0.07477 0.49515 0.0
H598 H 0.56063 0.03921 0.57229 0.0
H599 H 0.60626 0.07664 0.56038 0.0
H600 H 0.52602 0.00226 0.52355 0.0
H601 H 0.52522 0.07041 0.60537 0.0
H602 H 0.53145 0.11585 0.61766 0.0
H603 H 0.47103 0.10217 0.53407 0.0
H604 H 0.46434 0.05658 0.52142 0.0
H605 H 0.40781 0.89963 0.60896 0.0
H606 H 0.45115 0.94119 0.59933 0.0
H607 H 0.41214 0.97245 0.52642 0.0
H608 H 0.3687 0.93104 0.53623 0.0
H609 H 0.44902 0.0122 0.56954 0.0
H610 H 0.44778 0.94403 0.48926 0.0
H611 H 0.44241 0.8995 0.47296 0.0
H612 H 0.50755 0.91395 0.5484 0.0
H613 H 0.51304 0.95844 0.56559 0.0
C614 C 0.57129 0.09679 0.50296 0.0
C615 C 0.59383 0.09746 0.52047 0.0
C616 C 0.54506 0.07524 0.50985 0.0
C617 C 0.54088 0.05414 0.53474 0.0
C618 C 0.56333 0.05512 0.55278 0.0
C619 C 0.58946 0.07652 0.54582 0.0
C620 C 0.51335 0.03046 0.54114 0.0
C621 C 0.50929 0.00442 0.53413 0.0
C622 C 0.49124 0.03329 0.55362 0.0
C623 C 0.49443 0.0602 0.56227 0.0
C624 C 0.51326 0.0771 0.58964 0.0
C625 C 0.51683 0.10285 0.59671 0.0
C626 C 0.50165 0.11189 0.57664 0.0
C627 C 0.48269 0.09509 0.54969 0.0
C628 C 0.47893 0.06927 0.54265 0.0
C629 C 0.40844 0.91537 0.59098 0.0
C630 C 0.3848 0.91187 0.57319 0.0
C631 C 0.43324 0.93914 0.58546 0.0
C632 C 0.43505 0.95979 0.56155 0.0
C633 C 0.4113 0.95682 0.54493 0.0
C634 C 0.38643 0.93312 0.55067 0.0
C635 C 0.46187 0.98391 0.55282 0.0
C636 C 0.46576 0.01001 0.5591 0.0
C637 C 0.48385 0.98119 0.53931 0.0
C638 C 0.48064 0.95446 0.52899 0.0
C639 C 0.46081 0.93763 0.5026 0.0
C640 C 0.45777 0.91241 0.49317 0.0
C641 C 0.47458 0.90387 0.5097 0.0
C642 C 0.49451 0.92057 0.53565 0.0
C643 C 0.49761 0.9458 0.54524 0.0
H644 H 0.4722 0.88434 0.50235 0.0
H645 H 0.50458 0.1319 0.58195 0.0
H646 H 0.45426 0.38627 0.51968 0.0
H647 H 0.45842 0.43099 0.51421 0.0
H648 H 0.53758 0.46229 0.46384 0.0
H649 H 0.53356 0.41765 0.46926 0.0
H650 H 0.53861 0.49665 0.5143 0.0
H651 H 0.48006 0.44668 0.41103 0.0
H652 H 0.4401 0.4102 0.37867 0.0
H653 H 0.38783 0.42916 0.44347 0.0
H654 H 0.42742 0.46542 0.47678 0.0
H655 H 0.55521 0.62051 0.44341 0.0
H656 H 0.54973 0.57523 0.44886 0.0
H657 H 0.47045 0.54573 0.49808 0.0
H658 H 0.47572 0.59099 0.49196 0.0
H659 H 0.46899 0.5103 0.44936 0.0
H660 H 0.52861 0.56144 0.55155 0.0
H661 H 0.56923 0.59905 0.58112 0.0
H662 H 0.6202 0.57816 0.51663 0.0
H663 H 0.57993 0.5408 0.48597 0.0
C664 C 0.4725 0.40261 0.50725 0.0
C665 C 0.49354 0.39828 0.4948 0.0
C666 C 0.47484 0.4282 0.50409 0.0
C667 C 0.49815 0.44998 0.48808 0.0
C668 C 0.51938 0.44583 0.47627 0.0
C669 C 0.51711 0.42028 0.47957 0.0
C670 C 0.50068 0.4772 0.4841 0.0
C671 C 0.52354 0.49968 0.49967 0.0
C672 C 0.48068 0.48108 0.46583 0.0
C673 C 0.45674 0.45862 0.44672 0.0
C674 C 0.46003 0.44286 0.41876 0.0
C675 C 0.43744 0.42226 0.40015 0.0
C676 C 0.41145 0.4174 0.40896 0.0
C677 C 0.40797 0.43297 0.43663 0.0
C678 C 0.43048 0.45352 0.45542 0.0
C679 C 0.53665 0.60438 0.45547 0.0
C680 C 0.51597 0.60936 0.46749 0.0
C681 C 0.53355 0.5785 0.45868 0.0
C682 C 0.5099 0.55712 0.47464 0.0
C683 C 0.48893 0.56189 0.48581 0.0
C684 C 0.49191 0.58774 0.4822 0.0
C685 C 0.50695 0.52977 0.47946 0.0
C686 C 0.48401 0.50726 0.4641 0.0
C687 C 0.52693 0.52586 0.4978 0.0
C688 C 0.5512 0.54846 0.51614 0.0
C689 C 0.54847 0.56502 0.54336 0.0
C690 C 0.57145 0.58629 0.56034 0.0
C691 C 0.59726 0.59102 0.55066 0.0
C692 C 0.60018 0.5745 0.524 0.0
C693 C 0.57728 0.55329 0.5068 0.0
H694 H 0.61499 0.60741 0.5639 0.0
H695 H 0.39401 0.40158 0.39433 0.0
H696 H 0.33465 0.04955 0.06403 0.0
H697 H 0.30219 0.00174 0.07679 0.0
H698 H 0.36673 0.98289 0.06845 0.0
H699 H 0.39885 0.03054 0.05411 0.0
H700 H 0.32765 0.95043 0.02574 0.0
H701 H 0.33213 0.97791 0.1545 0.0
H702 H 0.33128 0.00543 0.20794 0.0
H703 H 0.24904 0.98277 0.18127 0.0
H704 H 0.24951 0.9554 0.12734 0.0
H705 H 0.23605 0.81085 0.07202 0.0
H706 H 0.27376 0.8576 0.07417 0.0
H707 H 0.21721 0.88707 0.06755 0.0
H708 H 0.17958 0.84058 0.06494 0.0
H709 H 0.25509 0.91262 0.12322 0.0
H710 H 0.25322 0.88857 0.99081 0.0
H711 H 0.25452 0.86062 0.93828 0.0
H712 H 0.33325 0.87664 0.97422 0.0
H713 H 0.33224 0.90439 0.02731 0.0
C714 C 0.3419 0.03523 0.0661 0.0
C715 C 0.3691 0.0435 0.05852 0.0
C716 C 0.32341 0.00794 0.07341 0.0
C717 C 0.33201 0.98864 0.07385 0.0
C718 C 0.35958 0.99733 0.06821 0.0
C719 C 0.37794 0.02451 0.06035 0.0
C720 C 0.3119 0.95921 0.0762 0.0
C721 C 0.31216 0.94211 0.04761 0.0
C722 C 0.29132 0.94832 0.10422 0.0
C723 C 0.29093 0.96475 0.13668 0.0
C724 C 0.31393 0.97895 0.15985 0.0
C725 C 0.3135 0.9945 0.19026 0.0
C726 C 0.29014 0.99589 0.19795 0.0
C727 C 0.26713 0.98169 0.17527 0.0
C728 C 0.26745 0.96612 0.14481 0.0
C729 C 0.23167 0.82728 0.07047 0.0
C730 C 0.20478 0.82197 0.06837 0.0
C731 C 0.25323 0.85398 0.07193 0.0
C732 C 0.24825 0.87579 0.07108 0.0
C733 C 0.22148 0.87053 0.06861 0.0
C734 C 0.19999 0.84394 0.06713 0.0
C735 C 0.27079 0.9042 0.0726 0.0
C736 C 0.2709 0.92102 0.10181 0.0
C737 C 0.29184 0.91481 0.04535 0.0
C738 C 0.29252 0.89829 1.01328 0.0
C739 C 0.27071 0.88595 0.98769 0.0
C740 C 0.27141 0.87018 0.95778 0.0
C741 C 0.29391 0.86678 0.95298 0.0
C742 C 0.31581 0.87924 0.97801 0.0
C743 C 0.31519 0.895 1.008 0.0
H744 H 0.29442 0.85456 0.92982 0.0
H745 H 0.28985 0.00794 0.22151 0.0
H746 H 0.41958 0.22567 0.0205 0.0
H747 H 0.40868 0.26191 0.027 0.0
H748 H 0.34415 0.2222 0.94548 0.0
H749 H 0.35528 0.18628 0.93794 0.0
H750 H 0.40793 0.29737 0.97369 0.0
H751 H 0.29114 0.23056 0.97643 0.0
H752 H 0.25632 0.18451 0.99607 0.0
H753 H 0.31138 0.18236 0.07752 0.0
H754 H 0.34636 0.22851 0.05877 0.0
H755 H 0.34453 0.37704 0.9432 0.0
H756 H 0.3592 0.34334 0.94045 0.0
H757 H 0.33369 0.32062 0.05657 0.0
H758 H 0.31803 0.35346 0.05905 0.0
H759 H 0.31642 0.27711 1.01523 0.0
H760 H 0.40181 0.35919 0.03029 0.0
H761 H 0.44003 0.40485 0.01624 0.0
H762 H 0.4507 0.3775 0.90743 0.0
H763 H 0.4123 0.33182 0.92051 0.0
C764 C 0.40327 0.22472 1.00357 0.0
C765 C 0.38828 0.20286 0.97876 0.0
C766 C 0.39701 0.24544 1.00746 0.0
C767 C 0.37546 0.2446 0.98699 0.0
C768 C 0.36062 0.22303 0.96196 0.0
C769 C 0.36697 0.20241 0.95784 0.0
C770 C 0.36843 0.26627 0.99176 0.0
C771 C 0.38792 0.29301 0.98271 0.0
C772 C 0.34246 0.26054 1.00411 0.0
C773 C 0.32145 0.23288 0.01588 0.0
C774 C 0.29578 0.22029 0.99862 0.0
C775 C 0.27602 0.19417 1.00959 0.0
C776 C 0.28167 0.18048 0.03793 0.0
C777 C 0.30706 0.19293 0.05546 0.0
C778 C 0.32688 0.21905 0.04462 0.0
C779 C 0.34188 0.36476 0.96809 0.0
C780 C 0.32999 0.36793 1.00133 0.0
C781 C 0.3506 0.34572 0.96662 0.0
C782 C 0.3478 0.32958 0.99842 0.0
C783 C 0.33614 0.33286 0.03168 0.0
C784 C 0.32737 0.35182 0.03316 0.0
C785 C 0.35585 0.30842 0.99663 0.0
C786 C 0.33646 0.28163 1.00612 0.0
C787 C 0.38205 0.31421 0.98507 0.0
C788 C 0.40404 0.34211 0.9763 0.0
C789 C 0.41204 0.36301 1.00314 0.0
C790 C 0.43381 0.38887 0.99541 0.0
C791 C 0.44784 0.39399 0.96105 0.0
C792 C 0.43986 0.37345 0.93408 0.0
C793 C 0.4181 0.34759 0.94163 0.0
H794 H 0.46501 0.41381 0.95535 0.0
H795 H 0.26635 0.16026 0.04636 0.0
H796 H 0.96577 0.2976 0.07309 0.0
H797 H 0.01504 0.32188 0.08141 0.0
H798 H 0.0163 0.39821 0.07441 0.0
H799 H 0.96674 0.37376 0.0668 0.0
H800 H 0.05027 0.39317 0.02222 0.0
H801 H 0.03555 0.38424 0.15482 0.0
H802 H 0.015 0.36146 0.21537 0.0
H803 H 0.04624 0.30733 0.19942 0.0
H804 H 0.06665 0.32949 0.13846 0.0
H805 H 0.194 0.44737 0.02377 0.0
H806 H 0.15005 0.44119 0.04435 0.0
H807 H 0.12121 0.35627 0.06405 0.0
H808 H 0.16496 0.36243 0.04425 0.0
H809 H 0.10393 0.37703 0.11919 0.0
H810 H 0.10885 0.3791 0.98105 0.0
H811 H 0.12807 0.40021 0.91906 0.0
H812 H 0.11377 0.46578 0.94486 0.0
H813 H 0.09477 0.44513 1.00719 0.0
C814 C 0.97653 0.31953 0.07461 0.0
C815 C 0.96263 0.33388 0.06975 0.0
C816 C 0.00462 0.3334 0.07936 0.0
C817 C 0.01932 0.36186 0.07875 0.0
C818 C 0.00531 0.37626 0.07526 0.0
C819 C 0.97707 0.36233 0.07115 0.0
C820 C 0.04936 0.37603 0.07716 0.0
C821 C 0.06217 0.39031 0.04391 0.0
C822 C 0.06475 0.37194 0.10521 0.0
C823 C 0.05253 0.35848 0.1419 0.0
C824 C 0.03787 0.36734 0.16405 0.0
C825 C 0.02628 0.35456 0.19849 0.0
C826 C 0.02928 0.33295 0.21121 0.0
C827 C 0.04393 0.32409 0.18954 0.0
C828 C 0.05556 0.33679 0.15505 0.0
C829 C 0.17838 0.4275 0.033 0.0
C830 C 0.18277 0.40528 0.03177 0.0
C831 C 0.15327 0.42397 0.0446 0.0
C832 C 0.13224 0.3982 0.05536 0.0
C833 C 0.13709 0.37633 0.05582 0.0
C834 C 0.16202 0.3798 0.04405 0.0
C835 C 0.10452 0.39316 0.06362 0.0
C836 C 0.09216 0.38056 0.09805 0.0
C837 C 0.08944 0.39858 0.03651 0.0
C838 C 0.10083 0.41086 0.99901 0.0
C839 C 0.11005 0.39815 0.97363 0.0
C840 C 0.12085 0.40999 0.93841 0.0
C841 C 0.12226 0.43439 0.92809 0.0
C842 C 0.11277 0.44694 0.95293 0.0
C843 C 0.102 0.43519 0.9882 0.0
H844 H 0.13062 0.44351 0.9008 0.0
H845 H 0.02029 0.32308 0.23789 0.0
H846 H 0.77553 0.19277 0.05188 0.0
H847 H 0.73868 0.14825 0.07116 0.0
H848 H 0.76325 0.11068 0.98543 0.0
H849 H 0.80072 0.15512 0.96718 0.0
H850 H 0.69584 0.11005 0.04064 0.0
H851 H 0.75434 0.05152 1.01222 0.0
H852 H 0.80121 0.06005 0.01628 0.0
H853 H 0.82058 0.12306 0.09796 0.0
H854 H 0.77373 0.11466 0.09484 0.0
H855 H 0.61173 0.97558 0.99307 0.0
H856 H 0.64278 0.02323 1.00433 0.0
H857 H 0.67638 0.00294 0.10051 0.0
H858 H 0.64653 0.95475 0.08744 0.0
H859 H 0.71504 0.03488 0.05991 0.0
H860 H 0.64286 0.04264 0.11048 0.0
H861 H 0.59683 0.03607 0.11712 0.0
H862 H 0.60511 0.07549 1.00992 0.0
H863 H 0.65137 0.08263 1.00281 0.0
C864 C 0.77297 0.17501 0.03709 0.0
C865 C 0.79116 0.17734 1.00832 0.0
C866 C 0.75191 0.14957 0.04814 0.0
C867 C 0.74851 0.12603 0.03034 0.0
C868 C 0.76595 0.12847 1.00042 0.0
C869 C 0.78728 0.15384 0.98985 0.0
C870 C 0.72685 0.09885 0.04289 0.0
C871 C 0.70002 0.09363 0.04514 0.0
C872 C 0.73239 0.07767 0.05064 0.0
C873 C 0.76053 0.08255 0.0531 0.0
C874 C 0.76854 0.06708 0.03124 0.0
C875 C 0.79513 0.07192 0.03333 0.0
C876 C 0.81387 0.09212 0.0573 0.0
C877 C 0.80606 0.10747 0.07933 0.0
C878 C 0.7795 0.10269 0.07738 0.0
C879 C 0.62571 0.98116 0.01666 0.0
C880 C 0.62713 0.96126 0.0387 0.0
C881 C 0.64311 0.00858 0.02366 0.0
C882 C 0.66194 0.01687 0.05345 0.0
C883 C 0.66207 0.99708 0.07728 0.0
C884 C 0.64485 0.9695 0.06994 0.0
C885 C 0.68378 0.04568 0.05577 0.0
C886 C 0.71077 0.05131 0.05629 0.0
C887 C 0.67843 0.06737 0.0522 0.0
C888 C 0.65059 0.06312 0.05609 0.0
C889 C 0.63485 0.04984 0.08826 0.0
C890 C 0.60876 0.0461 0.09216 0.0
C891 C 0.59804 0.05529 0.06392 0.0
C892 C 0.61347 0.06842 0.0318 0.0
C893 C 0.6397 0.07249 0.02794 0.0
H894 H 0.5778 0.05228 0.06697 0.0
H895 H 0.83445 0.09585 0.05884 0.0
H896 H 0.58129 0.76246 0.99681 0.0
H897 H 0.59168 0.72752 0.01728 0.0
H898 H 0.66961 0.78951 0.05826 0.0
H899 H 0.65939 0.82444 0.03769 0.0
H900 H 0.67428 0.75309 0.01653 0.0
H901 H 0.61577 0.75098 0.11624 0.0
H902 H 0.57341 0.74692 0.1408 0.0
H903 H 0.52888 0.66485 0.10087 0.0
H904 H 0.5708 0.66882 0.07433 0.0
H905 H 0.71619 0.67096 0.10273 0.0
H906 H 0.69947 0.7032 0.10207 0.0
H907 H 0.62329 0.64134 0.05626 0.0
H908 H 0.63945 0.60869 0.05889 0.0
H909 H 0.61657 0.67693 0.10313 0.0
H910 H 0.67108 0.67979 0.99735 0.0
H911 H 0.71148 0.68277 0.96691 0.0
H912 H 0.76127 0.76164 1.01545 0.0
H913 H 0.72118 0.7589 0.0468 0.0
C914 C 0.60049 0.76861 1.01058 0.0
C915 C 0.61955 0.79622 0.01557 0.0
C916 C 0.60641 0.74863 0.02224 0.0
C917 C 0.63134 0.7559 0.0396 0.0
C918 C 0.65028 0.78344 0.04485 0.0
C919 C 0.64445 0.80338 0.03297 0.0
C920 C 0.63825 0.73498 0.05113 0.0
C921 C 0.66187 0.73674 0.036 0.0
C922 C 0.62156 0.71309 0.07558 0.0
C923 C 0.59646 0.71033 0.09282 0.0
C924 C 0.59693 0.73214 0.11231 0.0
C925 C 0.57296 0.72987 0.12653 0.0
C926 C 0.54845 0.70565 0.12238 0.0
C927 C 0.54787 0.68363 0.10397 0.0
C928 C 0.57173 0.68592 0.08918 0.0
C929 C 0.69546 0.66402 0.09424 0.0
C930 C 0.67897 0.63745 0.08117 0.0
C931 C 0.68597 0.68241 0.09362 0.0
C932 C 0.66019 0.67466 0.07881 0.0
C933 C 0.64301 0.64756 0.06836 0.0
C934 C 0.65229 0.62899 0.06976 0.0
C935 C 0.65279 0.69549 0.06902 0.0
C936 C 0.62905 0.69354 0.08409 0.0
C937 C 0.66912 0.7171 0.04409 0.0
C938 C 0.69319 0.71902 0.02475 0.0
C939 C 0.69067 0.69769 1.00175 0.0
C940 C 0.71351 0.69934 0.98432 0.0
C941 C 0.73894 0.72236 0.98931 0.0
C942 C 0.74156 0.74381 1.01167 0.0
C943 C 0.71879 0.74222 0.02928 0.0
H944 H 0.7566 0.72359 0.9758 0.0
H945 H 0.52992 0.70391 0.13352 0.0
H946 H 0.84162 0.65574 0.03135 0.0
H947 H 0.88782 0.67173 1.00903 0.0
H948 H 0.85883 0.60191 0.93605 0.0
H949 H 0.81236 0.58589 0.95828 0.0
H950 H 0.9015 0.60923 0.97959 0.0
H951 H 0.88281 0.66273 0.89567 0.0
H952 H 0.86603 0.69328 0.87567 0.0
H953 H 0.9239 0.7557 0.94859 0.0
H954 H 0.94081 0.72546 0.9695 0.0
H955 H 0.04234 0.66592 0.94221 0.0
H956 H 0.99546 0.6515 0.92329 0.0
H957 H 0.99327 0.70714 1.00441 0.0
H958 H 0.03978 0.72133 0.02341 0.0
H959 H 0.96494 0.70327 0.93704 0.0
H960 H 0.9739 0.64509 0.03151 0.0
H961 H 0.991 0.6151 0.05297 0.0
H962 H 0.95063 0.56128 0.95978 0.0
H963 H 0.93367 0.59126 0.93741 0.0
C964 C 0.84509 0.644 1.01022 0.0
C965 C 0.8235 0.61962 0.99656 0.0
C966 C 0.87141 0.65323 0.99724 0.0
C967 C 0.87669 0.63816 0.97049 0.0
C968 C 0.85511 0.61396 0.95636 0.0
C969 C 0.82863 0.60491 0.96896 0.0
C970 C 0.90509 0.64681 0.96011 0.0
C971 C 0.91523 0.62951 0.96916 0.0
C972 C 0.92303 0.67335 0.94684 0.0
C973 C 0.91303 0.69175 0.93427 0.0
C974 C 0.89186 0.68291 0.90765 0.0
C975 C 0.88233 0.70018 0.89612 0.0
C976 C 0.89387 0.72639 0.91088 0.0
C977 C 0.915 0.7354 0.93716 0.0
C978 C 0.9246 0.71822 0.94881 0.0
C979 C 0.032 0.67554 0.95511 0.0
C980 C 0.04437 0.69451 0.98442 0.0
C981 C 0.00531 0.66729 0.94439 0.0
C982 C 0.9909 0.67813 0.9627 0.0
C983 C 0.00407 0.69859 0.98988 0.0
C984 C 0.03052 0.70657 1.00087 0.0
C985 C 0.96128 0.666 0.95777 0.0
C986 C 0.95098 0.68267 0.94606 0.0
C987 C 0.94315 0.63888 0.96862 0.0
C988 C 0.95286 0.62059 0.98249 0.0
C989 C 0.96884 0.62696 1.01545 0.0
C990 C 0.97849 0.60996 0.02779 0.0
C991 C 0.97201 0.58636 1.00766 0.0
C992 C 0.95571 0.57962 0.97528 0.0
C993 C 0.94609 0.59661 0.96274 0.0
H994 H 0.9796 0.5733 0.01721 0.0
H995 H 0.88646 0.73972 0.90192 0.0
H996 H 0.14649 0.78637 0.52999 0.0
H997 H 0.10176 0.75031 0.54855 0.0
H998 H 0.13707 0.72606 0.63781 0.0
H999 H 0.18243 0.76167 0.61846 0.0
H1000 H 0.08528 0.69279 0.55072 0.0
H1001 H 0.08419 0.70343 0.71025 0.0
H1002 H 0.10801 0.7372 0.76067 0.0
H1003 H 0.12112 0.80135 0.68394 0.0
H1004 H 0.09712 0.76794 0.63324 0.0
H1005 H 0.95515 0.59088 0.60464 0.0
H1006 H 0.00361 0.61898 0.61971 0.0
H1007 H 0.99665 0.69087 0.61145 0.0
H1008 H 0.9484 0.66286 0.59622 0.0
H1009 H 0.03691 0.69409 0.66735 0.0
H1010 H 0.00738 0.66851 0.53352 0.0
H1011 H 0.98286 0.63282 0.48572 0.0
H1012 H 0.0322 0.59744 0.51217 0.0
H1013 H 0.05668 0.63269 0.56063 0.0
C1014 C 0.14498 0.77333 0.55335 0.0
C1015 C 0.1683 0.77682 0.57224 0.0
C1016 C 0.1193 0.75276 0.56402 0.0
C1017 C 0.11617 0.73541 0.59426 0.0
C1018 C 0.13914 0.73927 0.61431 0.0
C1019 C 0.16504 0.75978 0.60332 0.0
C1020 C 0.08865 0.71312 0.60374 0.0
C1021 C 0.07486 0.69283 0.57651 0.0
C1022 C 0.07519 0.71295 0.63758 0.0
C1023 C 0.08914 0.73323 0.66791 0.0
C1024 C 0.09209 0.72474 0.70421 0.0
C1025 C 0.10563 0.74381 0.73282 0.0
C1026 C 0.11616 0.7714 0.72547 0.0
C1027 C 0.11306 0.77998 0.68955 0.0
C1028 C 0.09953 0.76099 0.66085 0.0
C1029 C 0.96384 0.61259 0.60769 0.0
C1030 C 0.94831 0.62488 0.59952 0.0
C1031 C 0.99141 0.62857 0.61625 0.0
C1032 C 0.00366 0.65696 0.61657 0.0
C1033 C 0.98752 0.669 0.61172 0.0
C1034 C 0.96005 0.65306 0.60288 0.0
C1035 C 0.03349 0.6742 0.61394 0.0
C1036 C 0.04764 0.69355 0.6422 0.0
C1037 C 0.04749 0.67338 0.58122 0.0
C1038 C 0.03369 0.65307 0.55083 0.0
C1039 C 0.01295 0.65308 0.52916 0.0
C1040 C 0.99902 0.6329 0.50204 0.0
C1041 C 0.00588 0.61279 0.49604 0.0
C1042 C 0.02684 0.61297 0.51695 0.0
C1043 C 0.04076 0.63305 0.54422 0.0
H1044 H 0.99501 0.59712 0.47514 0.0
H1045 H 0.12665 0.78613 0.74764 0.0
H1046 H 0.34462 0.16571 0.49574 0.0
H1047 H 0.33125 0.11799 0.5049 0.0
H1048 H 0.41566 0.13984 0.50707 0.0
H1049 H 0.42876 0.18774 0.50036 0.0
H1050 H 0.33681 0.08706 0.46032 0.0
H1051 H 0.42392 0.09093 0.55166 0.0
H1052 H 0.45517 0.11901 0.60253 0.0
H1053 H 0.39873 0.14402 0.63732 0.0
H1054 H 0.36696 0.11578 0.58718 0.0
H1055 H 0.32006 0.95564 0.45203 0.0
H1056 H 0.34121 0.005 0.4485 0.0
H1057 H 0.33003 0.00813 0.56926 0.0
H1058 H 0.31147 0.95963 0.57358 0.0
H1059 H 0.37427 0.04882 0.55319 0.0
H1060 H 0.28512 0.00945 0.49852 0.0
H1061 H 0.24824 0.98082 0.45426 0.0
H1062 H 0.29834 0.02531 0.35955 0.0
H1063 H 0.33564 0.05401 0.40327 0.0
C1064 C 0.36016 0.16019 0.49926 0.0
C1065 C 0.38759 0.18009 0.49778 0.0
C1066 C 0.35261 0.13302 0.50412 0.0
C1067 C 0.37242 0.1252 0.50665 0.0
C1068 C 0.39997 0.1453 0.50597 0.0
C1069 C 0.40748 0.17261 0.50215 0.0
C1070 C 0.36405 0.09596 0.50763 0.0
C1071 C 0.34499 0.07875 0.48076 0.0
C1072 C 0.37455 0.08496 0.53435 0.0
C1073 C 0.39326 0.10155 0.56522 0.0
C1074 C 0.41817 0.10238 0.57022 0.0
C1075 C 0.43597 0.11832 0.59892 0.0
C1076 C 0.42902 0.13342 0.62295 0.0
C1077 C 0.40415 0.13244 0.61854 0.0
C1078 C 0.38625 0.11648 0.58998 0.0
C1079 C 0.32248 0.96687 0.4779 0.0
C1080 C 0.3133 0.9534 0.51292 0.0
C1081 C 0.33434 0.99511 0.4758 0.0
C1082 C 0.33666 0.01031 0.5085 0.0
C1083 C 0.32836 0.99697 0.54355 0.0
C1084 C 0.31716 0.96899 0.5458 0.0
C1085 C 0.34655 0.03989 0.50649 0.0
C1086 C 0.36612 0.05721 0.53282 0.0
C1087 C 0.33561 0.05085 0.48045 0.0
C1088 C 0.31325 0.03364 0.45411 0.0
C1089 C 0.28831 0.01299 0.46823 0.0
C1090 C 0.26734 0.99677 0.44326 0.0
C1091 C 0.27097 0.00119 0.40412 0.0
C1092 C 0.29558 0.02188 0.38987 0.0
C1093 C 0.31664 0.03813 0.41473 0.0
H1094 H 0.25471 0.98862 0.38482 0.0
H1095 H 0.44286 0.1458 0.64506 0.0
H1096 H 0.17021 0.32899 0.50645 0.0
H1097 H 0.20531 0.31823 0.4875 0.0
H1098 H 0.26499 0.4035 0.48908 0.0
H1099 H 0.2294 0.41412 0.50533 0.0
H1100 H 0.27416 0.38221 0.43082 0.0
H1101 H 0.25873 0.35829 0.56198 0.0
H1102 H 0.23209 0.33582 0.61939 0.0
H1103 H 0.2062 0.25788 0.56952 0.0
H1104 H 0.23239 0.2799 0.51155 0.0
H1105 H 0.39008 0.36336 0.44645 0.0
H1106 H 0.3547 0.37586 0.45192 0.0
H1107 H 0.29332 0.29197 0.43765 0.0
H1108 H 0.32869 0.27952 0.43311 0.0
H1109 H 0.2855 0.31301 0.50103 0.0
H1110 H 0.30548 0.34152 0.36912 0.0
H1111 H 0.33584 0.36754 0.31625 0.0
H1112 H 0.35845 0.44199 0.37474 0.0
H1113 H 0.32862 0.41639 0.42824 0.0
C1114 C 0.19085 0.34528 0.50248 0.0
C1115 C 0.1973 0.37229 0.5071 0.0
C1116 C 0.21091 0.33921 0.49192 0.0
C1117 C 0.23794 0.36005 0.48727 0.0
C1118 C 0.24432 0.38708 0.49228 0.0
C1119 C 0.22409 0.39316 0.5016 0.0
C1120 C 0.25957 0.35372 0.47726 0.0
C1121 C 0.27684 0.36737 0.44654 0.0
C1122 C 0.263 0.33408 0.4974 0.0
C1123 C 0.2473 0.32075 0.53227 0.0
C1124 C 0.24719 0.33636 0.56314 0.0
C1125 C 0.2322 0.32371 0.5958 0.0
C1126 C 0.21741 0.29544 0.59806 0.0
C1127 C 0.21764 0.27977 0.5677 0.0
C1128 C 0.23257 0.29233 0.53495 0.0
C1129 C 0.36904 0.34787 0.443 0.0
C1130 C 0.36193 0.32061 0.43879 0.0
C1131 C 0.34886 0.35495 0.44628 0.0
C1132 C 0.32136 0.33485 0.44505 0.0
C1133 C 0.31439 0.30779 0.43867 0.0
C1134 C 0.33453 0.30071 0.43573 0.0
C1135 C 0.29987 0.34141 0.45447 0.0
C1136 C 0.28272 0.32785 0.48527 0.0
C1137 C 0.29711 0.36167 0.43509 0.0
C1138 C 0.31487 0.37702 0.40273 0.0
C1139 C 0.31704 0.36343 0.37079 0.0
C1140 C 0.33416 0.3781 0.34071 0.0
C1141 C 0.34908 0.4064 0.34214 0.0
C1142 C 0.34686 0.42008 0.37363 0.0
C1143 C 0.32983 0.4055 0.40381 0.0
H1144 H 0.36234 0.41772 0.31884 0.0
H1145 H 0.20581 0.28568 0.62337 0.0
H1146 H 0.02689 0.38587 0.43479 0.0
H1147 H 0.97761 0.35766 0.42677 0.0
H1148 H 0.98309 0.28595 0.44838 0.0
H1149 H 0.03216 0.31391 0.45623 0.0
H1150 H 0.94433 0.27775 0.39361 0.0
H1151 H 0.97338 0.31835 0.51888 0.0
H1152 H 0.99644 0.35743 0.56204 0.0
H1153 H 0.9436 0.38666 0.52579 0.0
H1154 H 0.92083 0.34824 0.48127 0.0
H1155 H 0.83061 0.17775 0.48626 0.0
H1156 H 0.87593 0.21445 0.47087 0.0
H1157 H 0.8448 0.26916 0.45637 0.0
H1158 H 0.79903 0.23224 0.47103 0.0
H1159 H 0.89352 0.29198 0.49715 0.0
H1160 H 0.85978 0.24814 0.37913 0.0
H1161 H 0.83691 0.20972 0.33487 0.0
H1162 H 0.89737 0.18724 0.35642 0.0
H1163 H 0.92043 0.22534 0.40123 0.0
C1164 C 0.01763 0.36402 0.43656 0.0
C1165 C 0.03318 0.35197 0.4463 0.0
C1166 C 0.98953 0.34801 0.43221 0.0
C1167 C 0.97673 0.31982 0.43749 0.0
C1168 C 0.99257 0.30767 0.44423 0.0
C1169 C 0.02054 0.32362 0.44884 0.0
C1170 C 0.94686 0.30312 0.44049 0.0
C1171 C 0.93318 0.28087 0.41615 0.0
C1172 C 0.93221 0.30773 0.46926 0.0
C1173 C 0.94565 0.33063 0.49634 0.0
C1174 C 0.96687 0.33328 0.51976 0.0
C1175 C 0.97992 0.35534 0.54441 0.0
C1176 C 0.97162 0.37463 0.54641 0.0
C1177 C 0.95016 0.37183 0.52389 0.0
C1178 C 0.93721 0.34995 0.49889 0.0
C1179 C 0.83328 0.1975 0.47961 0.0
C1180 C 0.81106 0.20189 0.47953 0.0
C1181 C 0.85923 0.21849 0.47087 0.0
C1182 C 0.86363 0.2444 0.46185 0.0
C1183 C 0.84177 0.24926 0.46309 0.0
C1184 C 0.81566 0.22815 0.4717 0.0
C1185 C 0.8912 0.26608 0.45102 0.0
C1186 C 0.90445 0.28923 0.47394 0.0
C1187 C 0.90544 0.26244 0.42077 0.0
C1188 C 0.89175 0.23952 0.39373 0.0
C1189 C 0.8681 0.2349 0.37465 0.0
C1190 C 0.85512 0.2132 0.34941 0.0
C1191 C 0.86566 0.19602 0.34289 0.0
C1192 C 0.88924 0.20056 0.36151 0.0
C1193 C 0.9023 0.22224 0.38678 0.0
H1194 H 0.85557 0.17923 0.32335 0.0
H1195 H 0.98171 0.39167 0.56555 0.0
H1196 H 0.63477 0.02153 0.56084 0.0
H1197 H 0.62514 0.97496 0.56995 0.0
H1198 H 0.70961 0.00439 0.59406 0.0
H1199 H 0.71927 0.0512 0.58507 0.0
H1200 H 0.69032 0.96914 0.53398 0.0
H1201 H 0.66332 0.97046 0.66168 0.0
H1202 H 0.63899 0.97845 0.71344 0.0
H1203 H 0.56275 0.92077 0.66413 0.0
H1204 H 0.5866 0.91271 0.61173 0.0
H1205 H 0.66564 0.83571 0.52996 0.0
H1206 H 0.679 0.88051 0.55562 0.0
H1207 H 0.5961 0.86295 0.54819 0.0
H1208 H 0.58258 0.81774 0.52357 0.0
H1209 H 0.61889 0.89295 0.60851 0.0
H1210 H 0.6436 0.89789 0.47682 0.0
H1211 H 0.66561 0.89054 0.42136 0.0
H1212 H 0.74348 0.93747 0.47414 0.0
H1213 H 0.72186 0.94479 0.53017 0.0
C1214 C 0.65109 0.01805 0.56929 0.0
C1215 C 0.67775 0.03982 0.5722 0.0
C1216 C 0.64558 0.99147 0.57464 0.0
C1217 C 0.66665 0.98619 0.58276 0.0
C1218 C 0.69305 0.00805 0.58799 0.0
C1219 C 0.69853 0.03474 0.58305 0.0
C1220 C 0.66167 0.95807 0.57983 0.0
C1221 C 0.67523 0.95256 0.55101 0.0
C1222 C 0.64124 0.93637 0.60108 0.0
C1223 C 0.62679 0.94112 0.6326 0.0
C1224 C 0.64137 0.95963 0.66168 0.0
C1225 C 0.62766 0.96414 0.69119 0.0
C1226 C 0.59935 0.95016 0.69204 0.0
C1227 C 0.58468 0.93159 0.66343 0.0
C1228 C 0.59829 0.92701 0.63385 0.0
C1229 C 0.65027 0.84138 0.53401 0.0
C1230 C 0.62316 0.82346 0.52409 0.0
C1231 C 0.6579 0.86696 0.54874 0.0
C1232 C 0.63869 0.87541 0.55292 0.0
C1233 C 0.61133 0.85697 0.54506 0.0
C1234 C 0.60361 0.83115 0.5309 0.0
C1235 C 0.64741 0.90406 0.56244 0.0
C1236 C 0.63443 0.90962 0.59216 0.0
C1237 C 0.66804 0.92591 0.54154 0.0
C1238 C 0.68109 0.92161 0.50785 0.0
C1239 C 0.6654 0.90648 0.4767 0.0
C1240 C 0.6778 0.90234 0.44516 0.0
C1241 C 0.70592 0.91346 0.44428 0.0
C1242 C 0.72169 0.92881 0.4749 0.0
C1243 C 0.70938 0.93297 0.50655 0.0
H1244 H 0.71548 0.91024 0.41982 0.0
H1245 H 0.58877 0.95368 0.71491 0.0
H1246 H 0.61809 0.65995 0.59379 0.0
H1247 H 0.64982 0.64408 0.61066 0.0
H1248 H 0.71039 0.70536 0.53773 0.0
H1249 H 0.67922 0.72148 0.52171 0.0
H1250 H 0.6691 0.62252 0.56014 0.0
H1251 H 0.77247 0.72421 0.56514 0.0
H1252 H 0.79064 0.77023 0.59116 0.0
H1253 H 0.72699 0.74004 0.67433 0.0
H1254 H 0.70864 0.69375 0.64922 0.0
H1255 H 0.80977 0.65403 0.49809 0.0
H1256 H 0.7767 0.66664 0.51807 0.0
H1257 H 0.74021 0.59799 0.59391 0.0
H1258 H 0.77389 0.58546 0.57478 0.0
H1259 H 0.76684 0.67983 0.58982 0.0
H1260 H 0.66843 0.5771 0.59151 0.0
H1261 H 0.64877 0.53135 0.56373 0.0
H1262 H 0.70114 0.56422 0.46687 0.0
H1263 H 0.72074 0.61018 0.49374 0.0
C1264 C 0.63849 0.67049 0.58241 0.0
C1265 C 0.64626 0.69182 0.55635 0.0
C1266 C 0.6565 0.66133 0.59184 0.0
C1267 C 0.68251 0.6736 0.5756 0.0
C1268 C 0.69063 0.69583 0.55114 0.0
C1269 C 0.67273 0.7049 0.54172 0.0
C1270 C 0.70023 0.66157 0.58001 0.0
C1271 C 0.69031 0.63478 0.5678 0.0
C1272 C 0.72795 0.67767 0.58955 0.0
C1273 C 0.73911 0.70546 0.60516 0.0
C1274 C 0.76245 0.72732 0.58917 0.0
C1275 C 0.77276 0.75348 0.60371 0.0
C1276 C 0.75996 0.75806 0.63434 0.0
C1277 C 0.73685 0.73648 0.65054 0.0
C1278 C 0.72646 0.71027 0.63612 0.0
C1279 C 0.79504 0.64171 0.51937 0.0
C1280 C 0.79471 0.61875 0.53488 0.0
C1281 C 0.77604 0.64894 0.5307 0.0
C1282 C 0.75606 0.63329 0.55749 0.0
C1283 C 0.75542 0.61026 0.57302 0.0
C1284 C 0.77461 0.60306 0.56186 0.0
C1285 C 0.73591 0.64132 0.56835 0.0
C1286 C 0.74544 0.66733 0.58344 0.0
C1287 C 0.70784 0.62451 0.56149 0.0
C1288 C 0.69643 0.59699 0.54504 0.0
C1289 C 0.67577 0.57453 0.56432 0.0
C1290 C 0.6646 0.54858 0.54869 0.0
C1291 C 0.67382 0.54486 0.51368 0.0
C1292 C 0.69414 0.56711 0.49412 0.0
C1293 C 0.70533 0.59311 0.50957 0.0
H1294 H 0.66514 0.52475 0.50163 0.0
H1295 H 0.76797 0.77834 0.64554 0.0
H1296 H 0.50503 0.32753 0.34828 0.0
H1297 H 0.50512 0.30833 0.28639 0.0
H1298 H 0.45218 0.22794 0.33 0.0
H1299 H 0.45143 0.2471 0.3919 0.0
H1300 H 0.52125 0.27596 0.26051 0.0
H1301 H 0.41044 0.18753 0.26024 0.0
H1302 H 0.36632 0.17624 0.28839 0.0
H1303 H 0.39151 0.26087 0.29572 0.0
H1304 H 0.4356 0.27264 0.26712 0.0
H1305 H 0.50155 0.18034 0.11832 0.0
H1306 H 0.50308 0.20397 0.17666 0.0
H1307 H 0.45222 0.23153 0.12557 0.0
H1308 H 0.45014 0.20732 0.06686 0.0
H1309 H 0.43492 0.21327 0.19578 0.0
H1310 H 0.52046 0.27529 0.14072 0.0
H1311 H 0.56484 0.28982 0.11091 0.0
H1312 H 0.59037 0.2642 0.20971 0.0
H1313 H 0.546 0.24917 0.23992 0.0
C1314 C 0.49346 0.30574 0.34487 0.0
C1315 C 0.47811 0.28892 0.3752 0.0
C1316 C 0.49358 0.29475 0.30934 0.0
C1317 C 0.47835 0.26667 0.3031 0.0
C1318 C 0.46368 0.24972 0.33369 0.0
C1319 C 0.46342 0.26071 0.36924 0.0
C1320 C 0.47772 0.2553 0.26455 0.0
C1321 C 0.50235 0.26223 0.24644 0.0
C1322 C 0.45311 0.23782 0.24553 0.0
C1323 C 0.42641 0.23095 0.26186 0.0
C1324 C 0.4065 0.20371 0.26767 0.0
C1325 C 0.38151 0.19723 0.28374 0.0
C1326 C 0.37615 0.21783 0.29394 0.0
C1327 C 0.39572 0.24494 0.28791 0.0
C1328 C 0.42071 0.25153 0.27179 0.0
C1329 C 0.49086 0.19163 0.11917 0.0
C1330 C 0.47578 0.19194 0.08765 0.0
C1331 C 0.49184 0.20525 0.15269 0.0
C1332 C 0.47797 0.21981 0.15565 0.0
C1333 C 0.46313 0.22048 0.12408 0.0
C1334 C 0.46213 0.2068 0.09038 0.0
C1335 C 0.47847 0.23354 0.1921 0.0
C1336 C 0.45382 0.22703 0.20983 0.0
C1337 C 0.50306 0.25182 0.21048 0.0
C1338 C 0.52981 0.2609 0.19246 0.0
C1339 C 0.53546 0.27257 0.15598 0.0
C1340 C 0.56063 0.28093 0.13903 0.0
C1341 C 0.58039 0.27788 0.15837 0.0
C1342 C 0.57504 0.26653 0.19475 0.0
C1343 C 0.5499 0.25811 0.21182 0.0
H1344 H 0.59986 0.28437 0.1452 0.0
H1345 H 0.35682 0.21277 0.30646 0.0
H1346 H 0.25583 0.39499 0.14621 0.0
H1347 H 0.24355 0.40242 0.20991 0.0
H1348 H 0.26631 0.48446 0.17935 0.0
H1349 H 0.27907 0.47737 0.11575 0.0
H1350 H 0.27334 0.44116 0.26696 0.0
H1351 H 0.21358 0.4933 0.21726 0.0
H1352 H 0.18795 0.49415 0.16123 0.0
H1353 H 0.17054 0.41402 0.1308 0.0
H1354 H 0.19567 0.41252 0.18695 0.0
H1355 H 0.23921 0.49043 0.43052 0.0
H1356 H 0.25517 0.48907 0.36645 0.0
H1357 H 0.17525 0.4248 0.33654 0.0
H1358 H 0.15909 0.42617 0.4002 0.0
H1359 H 0.19707 0.45959 0.27854 0.0
H1360 H 0.22381 0.41061 0.36178 0.0
H1361 H 0.24519 0.40433 0.41847 0.0
H1362 H 0.32287 0.46852 0.38179 0.0
H1363 H 0.30172 0.47552 0.32487 0.0
C1364 C 0.25859 0.41473 0.15322 0.0
C1365 C 0.2684 0.43558 0.12598 0.0
C1366 C 0.2516 0.41895 0.18962 0.0
C1367 C 0.25382 0.4439 0.19916 0.0
C1368 C 0.26432 0.46501 0.17241 0.0
C1369 C 0.27172 0.46095 0.13618 0.0
C1370 C 0.2441 0.44743 0.23659 0.0
C1371 C 0.25683 0.44543 0.26952 0.0
C1372 C 0.22214 0.45237 0.23984 0.0
C1373 C 0.20683 0.45298 0.20607 0.0
C1374 C 0.20424 0.47586 0.19865 0.0
C1375 C 0.18979 0.47643 0.16688 0.0
C1376 C 0.17771 0.45419 0.14241 0.0
C1377 C 0.18001 0.43128 0.14969 0.0
C1378 C 0.1944 0.43058 0.18145 0.0
C1379 C 0.22494 0.47619 0.41021 0.0
C1380 C 0.19788 0.45833 0.42065 0.0
C1381 C 0.23412 0.4754 0.3736 0.0
C1382 C 0.21648 0.45664 0.34677 0.0
C1383 C 0.18924 0.43949 0.35669 0.0
C1384 C 0.18004 0.44026 0.39323 0.0
C1385 C 0.22661 0.45378 0.30908 0.0
C1386 C 0.21389 0.45579 0.27603 0.0
C1387 C 0.24818 0.44823 0.30569 0.0
C1388 C 0.26112 0.44386 0.33941 0.0
C1389 C 0.24541 0.42356 0.36596 0.0
C1390 C 0.25751 0.41988 0.39817 0.0
C1391 C 0.28538 0.43619 0.40402 0.0
C1392 C 0.30126 0.45603 0.37736 0.0
C1393 C 0.28922 0.45987 0.3451 0.0
H1394 H 0.29468 0.43342 0.42915 0.0
H1395 H 0.16649 0.45469 0.1179 0.0
H1396 H 0.81727 0.29908 0.11294 0.0
H1397 H 0.79421 0.29178 0.17492 0.0
H1398 H 0.77318 0.2078 0.17254 0.0
H1399 H 0.79698 0.21523 0.11216 0.0
H1400 H 0.72931 0.2213 0.19528 0.0
H1401 H 0.82322 0.24229 0.2194 0.0
H1402 H 0.87271 0.27265 0.21558 0.0
H1403 H 0.86526 0.33505 0.27328 0.0
H1404 H 0.81563 0.30513 0.27692 0.0
H1405 H 0.69995 0.14778 0.36018 0.0
H1406 H 0.7171 0.17234 0.30143 0.0
H1407 H 0.75155 0.24822 0.36189 0.0
H1408 H 0.73508 0.22319 0.42233 0.0
H1409 H 0.7866 0.25076 0.31106 0.0
H1410 H 0.69456 0.22644 0.30157 0.0
H1411 H 0.64492 0.19737 0.30566 0.0
H1412 H 0.64715 0.14464 0.22043 0.0
H1413 H 0.69683 0.17313 0.2162 0.0
C1414 C 0.80723 0.279 0.12542 0.0
C1415 C 0.80866 0.25764 0.10763 0.0
C1416 C 0.79425 0.27489 0.16084 0.0
C1417 C 0.782 0.24922 0.17831 0.0
C1418 C 0.78239 0.22771 0.15955 0.0
C1419 C 0.79592 0.23197 0.12497 0.0
C1420 C 0.76985 0.24446 0.21694 0.0
C1421 C 0.74173 0.22784 0.22068 0.0
C1422 C 0.78598 0.25381 0.25006 0.0
C1423 C 0.81574 0.27166 0.24791 0.0
C1424 C 0.83212 0.26259 0.23088 0.0
C1425 C 0.86019 0.27968 0.22884 0.0
C1426 C 0.87211 0.3058 0.24404 0.0
C1427 C 0.85599 0.31484 0.26142 0.0
C1428 C 0.8279 0.29783 0.26348 0.0
C1429 C 0.71092 0.16972 0.36137 0.0
C1430 C 0.71594 0.18345 0.39625 0.0
C1431 C 0.72059 0.18384 0.32736 0.0
C1432 C 0.73509 0.21226 0.32671 0.0
C1433 C 0.74015 0.22628 0.36146 0.0
C1434 C 0.73062 0.21198 0.39598 0.0
C1435 C 0.74591 0.22656 0.28963 0.0
C1436 C 0.77384 0.24487 0.286 0.0
C1437 C 0.72948 0.2191 0.25654 0.0
C1438 C 0.69949 0.20195 0.25864 0.0
C1439 C 0.68449 0.20858 0.28382 0.0
C1440 C 0.65633 0.1922 0.28615 0.0
C1441 C 0.6429 0.16917 0.26333 0.0
C1442 C 0.65758 0.1625 0.23806 0.0
C1443 C 0.68575 0.1788 0.23562 0.0
H1444 H 0.6211 0.1565 0.26521 0.0
H1445 H 0.89385 0.319 0.24245 0.0
H1446 H 0.48615 0.80517 0.09776 0.0
H1447 H 0.48537 0.78862 0.16247 0.0
H1448 H 0.55875 0.7867 0.13918 0.0
H1449 H 0.55992 0.80353 0.07503 0.0
H1450 H 0.5199 0.74016 0.17593 0.0
H1451 H 0.56188 0.83733 0.18866 0.0
H1452 H 0.56411 0.88155 0.1824 0.0
H1453 H 0.4936 0.85337 0.25306 0.0
H1454 H 0.49071 0.80879 0.25924 0.0
H1455 H 0.58243 0.74138 0.34338 0.0
H1456 H 0.56995 0.75404 0.28431 0.0
H1457 H 0.50091 0.7516 0.33875 0.0
H1458 H 0.51373 0.73907 0.39938 0.0
H1459 H 0.52856 0.79625 0.28865 0.0
H1460 H 0.48746 0.69952 0.27856 0.0
H1461 H 0.48571 0.65547 0.28492 0.0
H1462 H 0.55426 0.68309 0.21042 0.0
H1463 H 0.55672 0.72749 0.20452 0.0
C1464 C 0.50204 0.80108 0.10636 0.0
C1465 C 0.52309 0.80569 0.08108 0.0
C1466 C 0.50162 0.79173 0.14342 0.0
C1467 C 0.52207 0.78652 0.15579 0.0
C1468 C 0.54274 0.79053 0.13033 0.0
C1469 C 0.54339 0.80023 0.09358 0.0
C1470 C 0.52239 0.77721 0.19531 0.0
C1471 C 0.52175 0.75245 0.20051 0.0
C1472 C 0.52411 0.79283 0.22763 0.0
C1473 C 0.52586 0.81961 0.22399 0.0
C1474 C 0.54669 0.84047 0.20255 0.0
C1475 C 0.54811 0.86562 0.19908 0.0
C1476 C 0.52895 0.87024 0.21721 0.0
C1477 C 0.50838 0.84974 0.23895 0.0
C1478 C 0.50685 0.82453 0.24245 0.0
C1479 C 0.56452 0.74344 0.34316 0.0
C1480 C 0.54889 0.73884 0.37621 0.0
C1481 C 0.55737 0.75067 0.3091 0.0
C1482 C 0.53415 0.7532 0.30671 0.0
C1483 C 0.51881 0.74952 0.33984 0.0
C1484 C 0.52611 0.74235 0.37441 0.0
C1485 C 0.52644 0.75941 0.26909 0.0
C1486 C 0.52589 0.78362 0.26414 0.0
C1487 C 0.52342 0.74325 0.23691 0.0
C1488 C 0.52208 0.71665 0.24066 0.0
C1489 C 0.50216 0.69617 0.26361 0.0
C1490 C 0.50108 0.67118 0.26723 0.0
C1491 C 0.51979 0.66644 0.24798 0.0
C1492 C 0.53969 0.68672 0.22519 0.0
C1493 C 0.54089 0.71176 0.2216 0.0
H1494 H 0.51891 0.64707 0.2508 0.0
H1495 H 0.53009 0.88973 0.21451 0.0
H1496 H 0.76958 0.52155 0.42943 0.0
H1497 H 0.74444 0.51247 0.36921 0.0
H1498 H 0.81999 0.55506 0.30804 0.0
H1499 H 0.84488 0.56425 0.36719 0.0
H1500 H 0.78623 0.57166 0.28501 0.0
H1501 H 0.78123 0.48542 0.30789 0.0
H1502 H 0.76931 0.44392 0.34438 0.0
H1503 H 0.68538 0.42201 0.34252 0.0
H1504 H 0.69687 0.4636 0.30642 0.0
H1505 H 0.75171 0.54114 0.0944 0.0
H1506 H 0.76997 0.54104 0.15715 0.0
H1507 H 0.68885 0.496 0.20227 0.0
H1508 H 0.67038 0.49529 0.13924 0.0
H1509 H 0.7211 0.4801 0.23621 0.0
H1510 H 0.72566 0.56498 0.21034 0.0
H1511 H 0.73726 0.60517 0.17088 0.0
H1512 H 0.8217 0.62959 0.17831 0.0
H1513 H 0.81055 0.58926 0.21726 0.0
C1514 C 0.78075 0.52879 0.40308 0.0
C1515 C 0.80927 0.54372 0.4033 0.0
C1516 C 0.76638 0.52356 0.36865 0.0
C1517 C 0.78031 0.53312 0.33392 0.0
C1518 C 0.80871 0.54763 0.33431 0.0
C1519 C 0.82295 0.55281 0.36837 0.0
C1520 C 0.76583 0.52881 0.29695 0.0
C1521 C 0.77213 0.55159 0.27433 0.0
C1522 C 0.74685 0.50273 0.28318 0.0
C1523 C 0.73995 0.47777 0.30488 0.0
C1524 C 0.76027 0.47187 0.31556 0.0
C1525 C 0.75358 0.44831 0.33611 0.0
C1526 C 0.72662 0.43039 0.34587 0.0
C1527 C 0.70627 0.43595 0.33501 0.0
C1528 C 0.71285 0.4595 0.31449 0.0
C1529 C 0.7377 0.5308 0.11749 0.0
C1530 C 0.70956 0.51848 0.11178 0.0
C1531 C 0.74818 0.53086 0.15347 0.0
C1532 C 0.73082 0.5191 0.18479 0.0
C1533 C 0.70269 0.50536 0.1787 0.0
C1534 C 0.69216 0.505 0.14256 0.0
C1535 C 0.74207 0.5229 0.22406 0.0
C1536 C 0.73505 0.50014 0.2471 0.0
C1537 C 0.76036 0.54903 0.2384 0.0
C1538 C 0.76725 0.574 0.21654 0.0
C1539 C 0.7467 0.5789 0.20352 0.0
C1540 C 0.75319 0.60168 0.18119 0.0
C1541 C 0.7802 0.6199 0.17204 0.0
C1542 C 0.80079 0.61545 0.18541 0.0
C1543 C 0.7944 0.59265 0.20765 0.0
H1544 H 0.78518 0.63747 0.15463 0.0
H1545 H 0.72148 0.41215 0.36176 0.0
H1546 H 0.15027 0.70415 0.20603 0.0
H1547 H 0.17701 0.72148 0.26356 0.0
H1548 H 0.25005 0.76277 0.1968 0.0
H1549 H 0.22309 0.74552 0.13816 0.0
H1550 H 0.25296 0.73525 0.26868 0.0
H1551 H 0.22953 0.80045 0.22447 0.0
H1552 H 0.19871 0.8153 0.19892 0.0
H1553 H 0.14883 0.7849 0.29852 0.0
H1554 H 0.17909 0.76939 0.32437 0.0
H1555 H 0.32398 0.81959 0.42936 0.0
H1556 H 0.30634 0.80128 0.36636 0.0
H1557 H 0.22464 0.76853 0.40802 0.0
H1558 H 0.24208 0.787 0.47092 0.0
H1559 H 0.23106 0.79554 0.34392 0.0
H1560 H 0.25263 0.72799 0.38639 0.0
H1561 H 0.28211 0.71126 0.41131 0.0
H1562 H 0.33509 0.74541 0.31529 0.0
H1563 H 0.3061 0.76266 0.29004 0.0
C1564 C 0.17206 0.71667 0.2033 0.0
C1565 C 0.18449 0.72365 0.16733 0.0
C1566 C 0.18732 0.72654 0.23637 0.0
C1567 C 0.21546 0.74363 0.23449 0.0
C1568 C 0.22832 0.74959 0.19883 0.0
C1569 C 0.21291 0.73975 0.1654 0.0
C1570 C 0.23057 0.75651 0.26997 0.0
C1571 C 0.24868 0.7489 0.28485 0.0
C1572 C 0.22453 0.77387 0.29136 0.0
C1573 C 0.20649 0.78357 0.27623 0.0
C1574 C 0.21188 0.79674 0.24081 0.0
C1575 C 0.19452 0.8053 0.22628 0.0
C1576 C 0.1718 0.80101 0.24706 0.0
C1577 C 0.16643 0.7882 0.28245 0.0
C1578 C 0.1837 0.77953 0.29707 0.0
C1579 C 0.30223 0.80816 0.42533 0.0
C1580 C 0.28448 0.80493 0.45533 0.0
C1581 C 0.29217 0.79764 0.38919 0.0
C1582 C 0.26412 0.78345 0.38229 0.0
C1583 C 0.24636 0.77951 0.41249 0.0
C1584 C 0.25639 0.79003 0.44857 0.0
C1585 C 0.25317 0.7739 0.34333 0.0
C1586 C 0.23574 0.78218 0.32772 0.0
C1587 C 0.25991 0.7572 0.32139 0.0
C1588 C 0.27737 0.74689 0.33656 0.0
C1589 C 0.2707 0.73214 0.37077 0.0
C1590 C 0.28729 0.72252 0.38491 0.0
C1591 C 0.31051 0.72734 0.36496 0.0
C1592 C 0.31713 0.74174 0.33076 0.0
C1593 C 0.30062 0.75142 0.3165 0.0
H1594 H 0.32332 0.71987 0.37595 0.0
H1595 H 0.15838 0.80765 0.23577 0.0
H1596 H 0.53259 0.751 0.56462 0.0
H1597 H 0.52901 0.76751 0.6274 0.0
H1598 H 0.51484 0.69236 0.67776 0.0
H1599 H 0.51707 0.6754 0.61538 0.0
H1600 H 0.48746 0.70836 0.71584 0.0
H1601 H 0.58011 0.75221 0.67109 0.0
H1602 H 0.61759 0.77964 0.62683 0.0
H1603 H 0.60449 0.84709 0.64208 0.0
H1604 H 0.56664 0.81991 0.68603 0.0
H1605 H 0.58715 0.8004 0.87629 0.0
H1606 H 0.57589 0.77722 0.81515 0.0
H1607 H 0.49582 0.76765 0.82135 0.0
H1608 H 0.5069 0.79001 0.88374 0.0
H1609 H 0.56735 0.79545 0.75375 0.0
H1610 H 0.45307 0.71651 0.76012 0.0
H1611 H 0.41883 0.68601 0.80644 0.0
H1612 H 0.48105 0.68366 0.87251 0.0
H1613 H 0.51558 0.71384 0.82635 0.0
C1614 C 0.52824 0.73785 0.58902 0.0
C1615 C 0.52546 0.712 0.58493 0.0
C1616 C 0.52632 0.74735 0.62498 0.0
C1617 C 0.52232 0.73148 0.65768 0.0
C1618 C 0.518 0.7051 0.65321 0.0
C1619 C 0.51938 0.69543 0.61732 0.0
C1620 C 0.52477 0.74277 0.69671 0.0
C1621 C 0.50485 0.72751 0.72405 0.0
C1622 C 0.54762 0.76756 0.70787 0.0
C1623 C 0.57041 0.78396 0.68156 0.0
C1624 C 0.58513 0.77284 0.66483 0.0
C1625 C 0.60643 0.78834 0.63981 0.0
C1626 C 0.6134 0.81508 0.6317 0.0
C1627 C 0.59904 0.82637 0.64843 0.0
C1628 C 0.57767 0.81093 0.67339 0.0
C1629 C 0.56682 0.79248 0.86518 0.0
C1630 C 0.5478 0.79671 0.88481 0.0
C1631 C 0.56048 0.77951 0.83 0.0
C1632 C 0.5351 0.77087 0.81319 0.0
C1633 C 0.51547 0.77384 0.83373 0.0
C1634 C 0.52172 0.78647 0.8695 0.0
C1635 C 0.53035 0.76076 0.7732 0.0
C1636 C 0.54979 0.77641 0.74557 0.0
C1637 C 0.50752 0.73595 0.76216 0.0
C1638 C 0.48693 0.71771 0.79002 0.0
C1639 C 0.45942 0.70944 0.7845 0.0
C1640 C 0.43997 0.69221 0.81073 0.0
C1641 C 0.44777 0.68299 0.84248 0.0
C1642 C 0.47504 0.69091 0.848 0.0
C1643 C 0.49457 0.70811 0.82185 0.0
H1644 H 0.43268 0.66966 0.86275 0.0
H1645 H 0.63003 0.8271 0.61261 0.0
H1646 H 0.79865 0.48335 0.63041 0.0
H1647 H 0.78173 0.48386 0.694 0.0
H1648 H 0.7768 0.55484 0.66439 0.0
H1649 H 0.79433 0.55488 0.6012 0.0
H1650 H 0.80188 0.56255 0.72956 0.0
H1651 H 0.71959 0.49091 0.67658 0.0
H1652 H 0.69058 0.44738 0.64437 0.0
H1653 H 0.7064 0.40517 0.73293 0.0
H1654 H 0.73582 0.44852 0.76544 0.0
H1655 H 0.72007 0.5699 0.87015 0.0
H1656 H 0.73479 0.55962 0.81099 0.0
H1657 H 0.75319 0.50416 0.86948 0.0
H1658 H 0.73854 0.5147 0.93005 0.0
H1659 H 0.72392 0.48571 0.79423 0.0
H1660 H 0.804 0.559 0.84925 0.0
H1661 H 0.8308 0.60319 0.88082 0.0
H1662 H 0.81707 0.64295 0.78687 0.0
H1663 H 0.7898 0.59892 0.75488 0.0
C1664 C 0.79359 0.49886 0.63717 0.0
C1665 C 0.7979 0.51908 0.61044 0.0
C1666 C 0.78382 0.49907 0.67364 0.0
C1667 C 0.77789 0.51935 0.68417 0.0
C1668 C 0.7813 0.53901 0.65711 0.0
C1669 C 0.79115 0.53887 0.62073 0.0
C1670 C 0.76969 0.52117 0.72388 0.0
C1671 C 0.78468 0.54576 0.74345 0.0
C1672 C 0.74776 0.49906 0.74274 0.0
C1673 C 0.73017 0.473 0.7232 0.0
C1674 C 0.71709 0.47237 0.68901 0.0
C1675 C 0.70053 0.44773 0.67074 0.0
C1676 C 0.69672 0.42353 0.68653 0.0
C1677 C 0.70941 0.42393 0.72069 0.0
C1678 C 0.72602 0.44853 0.73906 0.0
C1679 C 0.72709 0.55538 0.8708 0.0
C1680 C 0.72826 0.54325 0.90513 0.0
C1681 C 0.73552 0.54953 0.83673 0.0
C1682 C 0.74529 0.53132 0.8358 0.0
C1683 C 0.74572 0.51833 0.86963 0.0
C1684 C 0.73741 0.52439 0.90418 0.0
C1685 C 0.75587 0.52715 0.7993 0.0
C1686 C 0.74135 0.50226 0.78036 0.0
C1687 C 0.77811 0.54903 0.78078 0.0
C1688 C 0.79468 0.5756 0.79978 0.0
C1689 C 0.80651 0.57713 0.83544 0.0
C1690 C 0.82181 0.60216 0.8534 0.0
C1691 C 0.82559 0.62585 0.83594 0.0
C1692 C 0.81412 0.62457 0.80038 0.0
C1693 C 0.79876 0.59958 0.78229 0.0
H1694 H 0.83744 0.64518 0.84993 0.0
H1695 H 0.68388 0.40447 0.67235 0.0
H1696 H 0.29471 0.83814 0.698 0.0
H1697 H 0.28008 0.8148 0.75853 0.0
H1698 H 0.2252 0.74063 0.70056 0.0
H1699 H 0.23958 0.76446 0.63908 0.0
H1700 H 0.19983 0.75055 0.75633 0.0
H1701 H 0.28199 0.74811 0.74899 0.0
H1702 H 0.33083 0.76593 0.73868 0.0
H1703 H 0.34948 0.82145 0.83131 0.0
H1704 H 0.30074 0.80425 0.84186 0.0
H1705 H 0.16382 0.67548 0.92729 0.0
H1706 H 0.18501 0.6928 0.86586 0.0
H1707 H 0.23043 0.77328 0.9125 0.0
H1708 H 0.20878 0.75611 0.97466 0.0
H1709 H 0.26065 0.75694 0.86173 0.0
H1710 H 0.17795 0.76015 0.86634 0.0
H1711 H 0.12899 0.74179 0.87618 0.0
H1712 H 0.11134 0.68387 0.78713 0.0
H1713 H 0.16023 0.70143 0.77739 0.0
C1714 C 0.27988 0.81671 0.69795 0.0
C1715 C 0.2683 0.80312 0.66375 0.0
C1716 C 0.27163 0.8033 0.73272 0.0
C1717 C 0.2517 0.77584 0.73432 0.0
C1718 C 0.24073 0.76182 0.70006 0.0
C1719 C 0.2491 0.77533 0.66495 0.0
C1720 C 0.24096 0.76286 0.77199 0.0
C1721 C 0.21309 0.7514 0.77908 0.0
C1722 C 0.2583 0.76464 0.80215 0.0
C1723 C 0.28767 0.77499 0.79605 0.0
C1724 C 0.2965 0.76425 0.767 0.0
C1725 C 0.32417 0.77422 0.76114 0.0
C1726 C 0.34325 0.79484 0.78429 0.0
C1727 C 0.33468 0.80548 0.8134 0.0
C1728 C 0.30702 0.7956 0.81937 0.0
C1729 C 0.1785 0.69687 0.92486 0.0
C1730 C 0.18439 0.71445 0.95602 0.0
C1731 C 0.19057 0.70671 0.88954 0.0
C1732 C 0.20901 0.73434 0.88446 0.0
C1733 C 0.21615 0.75185 0.91585 0.0
C1734 C 0.20379 0.74202 0.95134 0.0
C1735 C 0.21969 0.74486 0.84586 0.0
C1736 C 0.24746 0.75586 0.83874 0.0
C1737 C 0.20225 0.74253 0.81559 0.0
C1738 C 0.1728 0.73186 0.82152 0.0
C1739 C 0.16365 0.74326 0.84919 0.0
C1740 C 0.13589 0.73303 0.85471 0.0
C1741 C 0.11706 0.71159 0.83242 0.0
C1742 C 0.12595 0.70039 0.80451 0.0
C1743 C 0.15369 0.71046 0.79899 0.0
H1744 H 0.09559 0.70375 0.83666 0.0
H1745 H 0.36467 0.80253 0.7797 0.0
H1746 H 0.48411 0.22375 0.89956 0.0
H1747 H 0.49325 0.24721 0.83795 0.0
H1748 H 0.46578 0.17114 0.78009 0.0
H1749 H 0.45756 0.14806 0.84072 0.0
H1750 H 0.50611 0.20808 0.74242 0.0
H1751 H 0.42431 0.19961 0.79529 0.0
H1752 H 0.39692 0.20585 0.84428 0.0
H1753 H 0.44702 0.29226 0.83475 0.0
H1754 H 0.47498 0.2865 0.7861 0.0
H1755 H 0.46432 0.23561 0.56234 0.0
H1756 H 0.47045 0.21852 0.62341 0.0
H1757 H 0.49721 0.29691 0.67393 0.0
H1758 H 0.48967 0.31337 0.61372 0.0
H1759 H 0.46036 0.26113 0.71638 0.0
H1760 H 0.54017 0.26728 0.65736 0.0
H1761 H 0.56492 0.25799 0.60754 0.0
H1762 H 0.51485 0.17243 0.62673 0.0
H1763 H 0.48967 0.18121 0.67641 0.0
C1764 C 0.48049 0.21219 0.87367 0.0
C1765 C 0.46986 0.18398 0.87519 0.0
C1766 C 0.48552 0.22555 0.83842 0.0
C1767 C 0.47978 0.21091 0.80412 0.0
C1768 C 0.47038 0.183 0.80588 0.0
C1769 C 0.46552 0.16976 0.84081 0.0
C1770 C 0.48196 0.2239 0.7663 0.0
C1771 C 0.49604 0.21963 0.73672 0.0
C1772 C 0.46897 0.2391 0.75861 0.0
C1773 C 0.45192 0.24263 0.78738 0.0
C1774 C 0.42958 0.21994 0.80381 0.0
C1775 C 0.41395 0.22339 0.8315 0.0
C1776 C 0.42028 0.24943 0.84271 0.0
C1777 C 0.44218 0.27209 0.82611 0.0
C1778 C 0.45793 0.26875 0.79847 0.0
C1779 C 0.47226 0.24935 0.58621 0.0
C1780 C 0.47654 0.27583 0.58326 0.0
C1781 C 0.47577 0.23959 0.62126 0.0
C1782 C 0.48431 0.25638 0.65367 0.0
C1783 C 0.49038 0.28339 0.64972 0.0
C1784 C 0.48634 0.2929 0.61511 0.0
C1785 C 0.48473 0.24554 0.69235 0.0
C1786 C 0.47087 0.25 0.7221 0.0
C1787 C 0.49756 0.23015 0.69997 0.0
C1788 C 0.51292 0.22491 0.67039 0.0
C1789 C 0.53436 0.24649 0.65081 0.0
C1790 C 0.54849 0.24131 0.62262 0.0
C1791 C 0.54143 0.21464 0.61391 0.0
C1792 C 0.52029 0.19308 0.63346 0.0
C1793 C 0.50612 0.19815 0.66168 0.0
H1794 H 0.55238 0.21067 0.59206 0.0
H1795 H 0.40817 0.25206 0.86419 0.0
H1796 H 0.33272 0.47823 0.85646 0.0
H1797 H 0.31414 0.47828 0.79376 0.0
H1798 H 0.23509 0.44887 0.84368 0.0
H1799 H 0.25326 0.44806 0.90602 0.0
H1800 H 0.2304 0.42288 0.78049 0.0
H1801 H 0.27814 0.51711 0.81847 0.0
H1802 H 0.31803 0.55984 0.83887 0.0
H1803 H 0.36023 0.56119 0.73706 0.0
H1804 H 0.32067 0.51827 0.71628 0.0
H1805 H 0.15837 0.4569 0.65576 0.0
H1806 H 0.18784 0.46237 0.7092 0.0
H1807 H 0.25044 0.47094 0.63205 0.0
H1808 H 0.22078 0.46518 0.57785 0.0
H1809 H 0.26803 0.50664 0.70242 0.0
H1810 H 0.21767 0.41368 0.66252 0.0
H1811 H 0.17626 0.3724 0.64208 0.0
H1812 H 0.13812 0.36958 0.74854 0.0
H1813 H 0.17916 0.41117 0.76934 0.0
C1814 C 0.31136 0.47168 0.85405 0.0
C1815 C 0.29452 0.46324 0.88633 0.0
C1816 C 0.30079 0.47185 0.81819 0.0
C1817 C 0.27327 0.46393 0.814 0.0
C1818 C 0.25639 0.45508 0.84612 0.0
C1819 C 0.26685 0.45469 0.88184 0.0
C1820 C 0.26178 0.46477 0.77638 0.0
C1821 C 0.23863 0.44127 0.7636 0.0
C1822 C 0.27286 0.48852 0.75363 0.0
C1823 C 0.29659 0.51434 0.76605 0.0
C1824 C 0.29601 0.52642 0.80058 0.0
C1825 C 0.31854 0.55069 0.81218 0.0
C1826 C 0.34168 0.56318 0.78933 0.0
C1827 C 0.34231 0.55146 0.75477 0.0
C1828 C 0.31984 0.52718 0.74305 0.0
C1829 C 0.17859 0.46049 0.64996 0.0
C1830 C 0.18712 0.46029 0.61255 0.0
C1831 C 0.19541 0.46363 0.68059 0.0
C1832 C 0.22113 0.46669 0.67453 0.0
C1833 C 0.23061 0.46857 0.63722 0.0
C1834 C 0.21366 0.4653 0.60634 0.0
C1835 C 0.23648 0.46502 0.7074 0.0
C1836 C 0.2602 0.48823 0.71916 0.0
C1837 C 0.22593 0.44106 0.7294 0.0
C1838 C 0.20143 0.41567 0.71737 0.0
C1839 C 0.20039 0.40437 0.68147 0.0
C1840 C 0.17698 0.38091 0.66982 0.0
C1841 C 0.15455 0.3684 0.69397 0.0
C1842 C 0.15551 0.3793 0.72986 0.0
C1843 C 0.17885 0.40281 0.74161 0.0
H1844 H 0.13644 0.35024 0.68489 0.0
H1845 H 0.3591 0.58196 0.79836 0.0
H1846 H 0.84755 0.2978 0.85976 0.0
H1847 H 0.82282 0.28122 0.8007 0.0
H1848 H 0.74953 0.23005 0.86326 0.0
H1849 H 0.77473 0.24629 0.92338 0.0
H1850 H 0.75542 0.20219 0.80732 0.0
H1851 H 0.75887 0.28731 0.81327 0.0
H1852 H 0.77952 0.33672 0.82146 0.0
H1853 H 0.83129 0.35025 0.72545 0.0
H1854 H 0.81123 0.3009 0.71698 0.0
H1855 H 0.67419 0.16553 0.64246 0.0
H1856 H 0.69463 0.18741 0.70239 0.0
H1857 H 0.77304 0.22996 0.64865 0.0
H1858 H 0.75264 0.20775 0.58794 0.0
H1859 H 0.76194 0.26238 0.70078 0.0
H1860 H 0.75898 0.17644 0.69758 0.0
H1861 H 0.73673 0.12694 0.68901 0.0
H1862 H 0.68215 0.11512 0.7807 0.0
H1863 H 0.70376 0.16462 0.78936 0.0
C1864 C 0.82608 0.28324 0.86124 0.0
C1865 C 0.81315 0.27341 0.8965 0.0
C1866 C 0.81186 0.27387 0.8272 0.0
C1867 C 0.78414 0.25458 0.82721 0.0
C1868 C 0.7709 0.24503 0.8624 0.0
C1869 C 0.78524 0.25445 0.89678 0.0
C1870 C 0.76979 0.24353 0.79031 0.0
C1871 C 0.75642 0.21538 0.78436 0.0
C1872 C 0.77155 0.26065 0.75975 0.0
C1873 C 0.78367 0.29038 0.76468 0.0
C1874 C 0.7748 0.30081 0.79407 0.0
C1875 C 0.78638 0.32881 0.79873 0.0
C1876 C 0.80674 0.34661 0.77404 0.0
C1877 C 0.81553 0.33644 0.74457 0.0
C1878 C 0.80403 0.30845 0.73979 0.0
C1879 C 0.69578 0.17971 0.64303 0.0
C1880 C 0.71178 0.18467 0.61022 0.0
C1881 C 0.70743 0.19219 0.67752 0.0
C1882 C 0.73541 0.21005 0.68024 0.0
C1883 C 0.75138 0.21616 0.64724 0.0
C1884 C 0.73971 0.20346 0.61255 0.0
C1885 C 0.74786 0.22122 0.71798 0.0
C1886 C 0.76086 0.24929 0.72396 0.0
C1887 C 0.7456 0.20405 0.74866 0.0
C1888 C 0.73282 0.17426 0.74386 0.0
C1889 C 0.74209 0.1633 0.71572 0.0
C1890 C 0.72961 0.13524 0.71087 0.0
C1891 C 0.708 0.1179 0.73424 0.0
C1892 C 0.69887 0.12859 0.76258 0.0
C1893 C 0.71123 0.15665 0.76748 0.0
H1894 H 0.69836 0.09617 0.73044 0.0
H1895 H 0.81568 0.36828 0.7777 0.0
loop_
_geom_bond_atom_site_label_1
_geom_bond_atom_site_label_2
_geom_bond_distance
_geom_bond_site_symmetry_2
_ccdc_geom_bond_type
C0 C1 1.351 . S
C0 N3 1.368 . S
C0 H5 0.931 . S
C1 C0 1.351 . S
C1 N2 1.353 1_556 S
C1 H29 0.930 . S
N2 C1 1.353 1_554 S
N2 C4 1.349 . S
N3 C0 1.368 . S
N3 C4 1.321 1_556 S
N3 Co6 2.139 . S
C4 N2 1.349 . S
C4 N3 1.321 1_554 S
C4 H28 0.930 . S
H5 C0 0.931 . S
Co6 N3 2.139 . S
Co6 N9 2.116 1_556 S
Co6 O14 2.077 . S
Co6 O17 2.014 1_556 S
Co6 N20 2.139 1_556 S
C7 O8 1.227 . S
C7 O17 1.265 . S
O8 C7 1.227 . S
N9 Co6 2.116 1_554 S
N9 C11 1.375 . S
N9 C12 1.313 1_554 S
C10 C11 1.338 . S
C10 N13 1.377 1_554 S
C10 H30 0.930 . S
C11 N9 1.375 . S
C11 C10 1.338 . S
C11 H15 0.931 . S
C12 N9 1.313 1_556 S
C12 N13 1.344 . S
C12 H16 0.930 . S
N13 C10 1.377 1_556 S
N13 C12 1.344 . S
O14 Co6 2.077 . S
O14 C18 1.253 . S
H15 C11 0.931 . S
H16 C12 0.930 . S
O17 Co6 2.014 1_554 S
O17 C7 1.265 . S
C18 O14 1.253 . S
C18 O19 1.227 . S
O19 C18 1.227 . S
N20 Co6 2.139 1_554 S
N20 C23 1.346 . S
N20 C24 1.345 1_554 S
C21 C22 1.387 . S
C21 C25 1.391 1_554 S
C22 C21 1.387 . S
C22 C23 1.369 . S
C22 H31 0.929 . S
C23 N20 1.346 . S
C23 C22 1.369 . S
C23 H26 0.928 . S
C24 N20 1.345 1_556 S
C24 C25 1.371 . S
C24 H27 0.931 . S
C25 C21 1.391 1_556 S
C25 C24 1.371 . S
C25 H32 0.930 . S
H26 C23 0.928 . S
H27 C24 0.931 . S
H28 C4 0.930 . S
H29 C1 0.930 . S
H30 C10 0.930 . S
H31 C22 0.929 . S
H32 C25 0.930 . S
C33 C34 1.351 . S
C33 N36 1.368 . S
C33 H38 0.931 . S
C34 C33 1.351 . S
C34 N35 1.353 1_556 S
C34 H62 0.930 . S
N35 C34 1.353 1_554 S
N35 C37 1.349 . S
N36 C33 1.368 . S
N36 C37 1.321 1_556 S
N36 Co39 2.139 . S
C37 N35 1.349 . S
C37 N36 1.321 1_554 S
C37 H61 0.930 . S
H38 C33 0.931 . S
Co39 N36 2.139 . S
Co39 N42 2.116 1_556 S
Co39 O47 2.077 . S
Co39 O50 2.013 1_556 S
Co39 N53 2.139 1_556 S
C40 O41 1.227 . S
C40 O50 1.265 . S
O41 C40 1.227 . S
N42 Co39 2.116 1_554 S
N42 C44 1.375 . S
N42 C45 1.313 1_554 S
C43 C44 1.338 . S
C43 N46 1.377 1_554 S
C43 H63 0.930 . S
C44 N42 1.375 . S
C44 C43 1.338 . S
C44 H48 0.931 . S
C45 N42 1.313 1_556 S
C45 N46 1.344 . S
C45 H49 0.930 . S
N46 C43 1.377 1_556 S
N46 C45 1.344 . S
O47 Co39 2.077 . S
O47 C51 1.253 . S
H48 C44 0.931 . S
H49 C45 0.930 . S
O50 Co39 2.013 1_554 S
O50 C40 1.265 . S
C51 O47 1.253 . S
C51 O52 1.227 . S
O52 C51 1.227 . S
N53 Co39 2.139 1_554 S
N53 C56 1.346 . S
N53 C57 1.345 1_554 S
C54 C55 1.387 . S
C54 C58 1.391 1_554 S
C55 C54 1.387 . S
C55 C56 1.369 . S
C55 H64 0.929 . S
C56 N53 1.346 . S
C56 C55 1.369 . S
C56 H59 0.928 . S
C57 N53 1.345 1_556 S
C57 C58 1.371 . S
C57 H60 0.931 . S
C58 C54 1.391 1_556 S
C58 C57 1.371 . S
C58 H65 0.930 . S
H59 C56 0.928 . S
H60 C57 0.931 . S
H61 C37 0.930 . S
H62 C34 0.930 . S
H63 C43 0.930 . S
H64 C55 0.929 . S
H65 C58 0.930 . S
C66 C67 1.351 . S
C66 N69 1.368 . S
C66 H71 0.931 . S
C67 C66 1.351 . S
C67 N68 1.353 1_556 S
C67 H95 0.930 . S
N68 C67 1.353 1_554 S
N68 C70 1.349 . S
N69 C66 1.368 . S
N69 C70 1.321 1_556 S
N69 Co72 2.139 . S
C70 N68 1.349 . S
C70 N69 1.321 1_554 S
C70 H94 0.930 . S
H71 C66 0.931 . S
Co72 N69 2.139 . S
Co72 N75 2.116 1_556 S
Co72 O80 2.077 . S
Co72 O83 2.013 1_556 S
Co72 N86 2.139 1_556 S
C73 O74 1.227 . S
C73 O83 1.265 . S
O74 C73 1.227 . S
N75 Co72 2.116 1_554 S
N75 C77 1.375 . S
N75 C78 1.313 1_554 S
C76 C77 1.338 . S
C76 N79 1.377 1_554 S
C76 H96 0.930 . S
C77 N75 1.375 . S
C77 C76 1.338 . S
C77 H81 0.931 . S
C78 N75 1.313 1_556 S
C78 N79 1.344 . S
C78 H82 0.930 . S
N79 C76 1.377 1_556 S
N79 C78 1.344 . S
O80 Co72 2.077 . S
O80 C84 1.253 . S
H81 C77 0.931 . S
H82 C78 0.930 . S
O83 Co72 2.013 1_554 S
O83 C73 1.265 . S
C84 O80 1.253 . S
C84 O85 1.227 . S
O85 C84 1.227 . S
N86 Co72 2.139 1_554 S
N86 C89 1.346 . S
N86 C90 1.345 1_554 S
C87 C88 1.387 . S
C87 C91 1.391 1_554 S
C88 C87 1.387 . S
C88 C89 1.369 . S
C88 H97 0.929 . S
C89 N86 1.346 . S
C89 C88 1.369 . S
C89 H92 0.928 . S
C90 N86 1.345 1_556 S
C90 C91 1.371 . S
C90 H93 0.931 . S
C91 C87 1.391 1_556 S
C91 C90 1.371 . S
C91 H98 0.930 . S
H92 C89 0.928 . S
H93 C90 0.931 . S
H94 C70 0.930 . S
H95 C67 0.930 . S
H96 C76 0.930 . S
H97 C88 0.929 . S
H98 C91 0.930 . S
C99 C100 1.351 . S
C99 N102 1.368 . S
C99 H104 0.931 . S
C100 C99 1.351 . S
C100 N101 1.353 1_556 S
C100 H128 0.930 . S
N101 C100 1.353 1_554 S
N101 C103 1.349 . S
N102 C99 1.368 . S
N102 C103 1.321 1_556 S
N102 Co105 2.139 . S
C103 N101 1.349 . S
C103 N102 1.321 1_554 S
C103 H127 0.930 . S
H104 C99 0.931 . S
Co105 N102 2.139 . S
Co105 N108 2.116 1_556 S
Co105 O113 2.077 . S
Co105 O116 2.014 1_556 S
Co105 N119 2.139 1_556 S
C106 O107 1.227 . S
C106 O116 1.265 . S
O107 C106 1.227 . S
N108 Co105 2.116 1_554 S
N108 C110 1.375 . S
N108 C111 1.313 1_554 S
C109 C110 1.338 . S
C109 N112 1.377 1_554 S
C109 H129 0.930 . S
C110 N108 1.375 . S
C110 C109 1.338 . S
C110 H114 0.931 . S
C111 N108 1.313 1_556 S
C111 N112 1.344 . S
C111 H115 0.930 . S
N112 C109 1.377 1_556 S
N112 C111 1.344 . S
O113 Co105 2.077 . S
O113 C117 1.253 . S
H114 C110 0.931 . S
H115 C111 0.930 . S
O116 Co105 2.014 1_554 S
O116 C106 1.265 . S
C117 O113 1.253 . S
C117 O118 1.227 . S
O118 C117 1.227 . S
N119 Co105 2.139 1_554 S
N119 C122 1.346 . S
N119 C123 1.345 1_554 S
C120 C121 1.387 . S
C120 C124 1.391 1_554 S
C121 C120 1.387 . S
C121 C122 1.369 . S
C121 H130 0.929 . S
C122 N119 1.346 . S
C122 C121 1.369 . S
C122 H125 0.928 . S
C123 N119 1.345 1_556 S
C123 C124 1.371 . S
C123 H126 0.931 . S
C124 C120 1.391 1_556 S
C124 C123 1.371 . S
C124 H131 0.930 . S
H125 C122 0.928 . S
H126 C123 0.931 . S
H127 C103 0.930 . S
H128 C100 0.930 . S
H129 C109 0.930 . S
H130 C121 0.929 . S
H131 C124 0.930 . S
C132 C133 1.351 . S
C132 N135 1.368 . S
C132 H137 0.931 . S
C133 C132 1.351 . S
C133 N134 1.353 1_556 S
C133 H161 0.930 . S
N134 C133 1.353 1_554 S
N134 C136 1.349 . S
N135 C132 1.368 . S
N135 C136 1.321 1_556 S
N135 Co138 2.139 . S
C136 N134 1.349 . S
C136 N135 1.321 1_554 S
C136 H160 0.930 . S
H137 C132 0.931 . S
Co138 N135 2.139 . S
Co138 N141 2.116 1_556 S
Co138 O146 2.077 . S
Co138 O149 2.013 1_556 S
Co138 N152 2.139 1_556 S
C139 O140 1.227 . S
C139 O149 1.265 . S
O140 C139 1.227 . S
N141 Co138 2.116 1_554 S
N141 C143 1.375 . S
N141 C144 1.313 1_554 S
C142 C143 1.338 . S
C142 N145 1.377 1_554 S
C142 H162 0.930 . S
C143 N141 1.375 . S
C143 C142 1.338 . S
C143 H147 0.931 . S
C144 N141 1.313 1_556 S
C144 N145 1.344 . S
C144 H148 0.930 . S
N145 C142 1.377 1_556 S
N145 C144 1.344 . S
O146 Co138 2.077 . S
O146 C150 1.253 . S
H147 C143 0.931 . S
H148 C144 0.930 . S
O149 Co138 2.013 1_554 S
O149 C139 1.265 . S
C150 O146 1.253 . S
C150 O151 1.227 . S
O151 C150 1.227 . S
N152 Co138 2.139 1_554 S
N152 C155 1.346 . S
N152 C156 1.345 1_554 S
C153 C154 1.387 . S
C153 C157 1.391 1_554 S
C154 C153 1.387 . S
C154 C155 1.369 . S
C154 H163 0.929 . S
C155 N152 1.346 . S
C155 C154 1.369 . S
C155 H158 0.928 . S
C156 N152 1.345 1_556 S
C156 C157 1.371 . S
C156 H159 0.931 . S
C157 C153 1.391 1_556 S
C157 C156 1.371 . S
C157 H164 0.930 . S
H158 C155 0.928 . S
H159 C156 0.931 . S
H160 C136 0.930 . S
H161 C133 0.930 . S
H162 C142 0.930 . S
H163 C154 0.929 . S
H164 C157 0.930 . S
C165 C166 1.351 . S
C165 N168 1.368 . S
C165 H170 0.931 . S
C166 C165 1.351 . S
C166 N167 1.353 1_556 S
C166 H194 0.930 . S
N167 C166 1.353 1_554 S
N167 C169 1.349 . S
N168 C165 1.368 . S
N168 C169 1.321 1_556 S
N168 Co171 2.139 . S
C169 N167 1.349 . S
C169 N168 1.321 1_554 S
C169 H193 0.930 . S
H170 C165 0.931 . S
Co171 N168 2.139 . S
Co171 N174 2.116 1_556 S
Co171 O179 2.077 . S
Co171 O182 2.013 1_556 S
Co171 N185 2.139 1_556 S
C172 O173 1.227 . S
C172 O182 1.265 . S
O173 C172 1.227 . S
N174 Co171 2.116 1_554 S
N174 C176 1.375 . S
N174 C177 1.313 1_554 S
C175 C176 1.338 . S
C175 N178 1.377 1_554 S
C175 H195 0.930 . S
C176 N174 1.375 . S
C176 C175 1.338 . S
C176 H180 0.931 . S
C177 N174 1.313 1_556 S
C177 N178 1.344 . S
C177 H181 0.930 . S
N178 C175 1.377 1_556 S
N178 C177 1.344 . S
O179 Co171 2.077 . S
O179 C183 1.253 . S
H180 C176 0.931 . S
H181 C177 0.930 . S
O182 Co171 2.013 1_554 S
O182 C172 1.265 . S
C183 O179 1.253 . S
C183 O184 1.227 . S
O184 C183 1.227 . S
N185 Co171 2.139 1_554 S
N185 C188 1.346 . S
N185 C189 1.345 1_554 S
C186 C187 1.387 . S
C186 C190 1.391 1_554 S
C187 C186 1.387 . S
C187 C188 1.369 . S
C187 H196 0.929 . S
C188 N185 1.346 . S
C188 C187 1.369 . S
C188 H191 0.928 . S
C189 N185 1.345 1_556 S
C189 C190 1.371 . S
C189 H192 0.931 . S
C190 C186 1.391 1_556 S
C190 C189 1.371 . S
C190 H197 0.930 . S
H191 C188 0.928 . S
H192 C189 0.931 . S
H193 C169 0.930 . S
H194 C166 0.930 . S
H195 C175 0.930 . S
H196 C187 0.929 . S
H197 C190 0.930 . S
C198 C199 1.351 . S
C198 N201 1.368 . S
C198 H203 0.931 . S
C199 C198 1.351 . S
C199 N200 1.373 . S
C199 H227 0.930 . S
N200 C199 1.373 . S
N200 C202 1.340 . S
N201 C198 1.368 . S
N201 C202 1.321 . S
N201 Co204 2.135 . S
C202 N200 1.340 . S
C202 N201 1.321 . S
C202 H226 0.930 . S
H203 C198 0.931 . S
Co204 N201 2.135 . S
Co204 N207 2.121 . S
Co204 O212 2.055 . S
Co204 O215 2.039 . S
Co204 N218 2.140 . S
C205 O206 1.227 . S
C205 O215 1.265 . S
O206 C205 1.227 . S
N207 Co204 2.121 . S
N207 C209 1.375 . S
N207 C210 1.313 . S
C208 C209 1.338 . S
C208 N211 1.377 . S
C208 H228 0.930 . S
C209 N207 1.375 . S
C209 C208 1.338 . S
C209 H213 0.931 . S
C210 N207 1.313 . S
C210 N211 1.344 . S
C210 H214 0.930 . S
N211 C208 1.377 . S
N211 C210 1.344 . S
O212 Co204 2.055 . S
O212 C216 1.253 . S
H213 C209 0.931 . S
H214 C210 0.930 . S
O215 Co204 2.039 . S
O215 C205 1.265 . S
C216 O212 1.253 . S
C216 O217 1.227 . S
O217 C216 1.227 . S
N218 Co204 2.140 . S
N218 C221 1.346 . S
N218 C222 1.345 . S
C219 C220 1.387 . S
C219 C223 1.391 . S
C220 C219 1.387 . S
C220 C221 1.369 . S
C220 H229 0.929 . S
C221 N218 1.346 . S
C221 C220 1.369 . S
C221 H224 0.928 . S
C222 N218 1.345 . S
C222 C223 1.371 . S
C222 H225 0.931 . S
C223 C219 1.391 . S
C223 C222 1.371 . S
C223 H230 0.930 . S
H224 C221 0.928 . S
H225 C222 0.931 . S
H226 C202 0.930 . S
H227 C199 0.930 . S
H228 C208 0.930 . S
H229 C220 0.929 . S
H230 C223 0.930 . S
C231 C232 1.351 . S
C231 N234 1.368 . S
C231 H236 0.931 . S
C232 C231 1.351 . S
C232 N233 1.373 . S
C232 H260 0.930 . S
N233 C232 1.373 . S
N233 C235 1.340 . S
N234 C231 1.368 . S
N234 C235 1.321 . S
N234 Co237 2.135 . S
C235 N233 1.340 . S
C235 N234 1.321 . S
C235 H259 0.930 . S
H236 C231 0.931 . S
Co237 N234 2.135 . S
Co237 N240 2.121 . S
Co237 O245 2.055 . S
Co237 O248 2.039 . S
Co237 N251 2.140 . S
C238 O239 1.227 . S
C238 O248 1.265 . S
O239 C238 1.227 . S
N240 Co237 2.121 . S
N240 C242 1.375 . S
N240 C243 1.313 . S
C241 C242 1.338 . S
C241 N244 1.377 . S
C241 H261 0.930 . S
C242 N240 1.375 . S
C242 C241 1.338 . S
C242 H246 0.931 . S
C243 N240 1.313 . S
C243 N244 1.344 . S
C243 H247 0.930 . S
N244 C241 1.377 . S
N244 C243 1.344 . S
O245 Co237 2.055 . S
O245 C249 1.253 . S
H246 C242 0.931 . S
H247 C243 0.930 . S
O248 Co237 2.039 . S
O248 C238 1.265 . S
C249 O245 1.253 . S
C249 O250 1.227 . S
O250 C249 1.227 . S
N251 Co237 2.140 . S
N251 C254 1.346 . S
N251 C255 1.345 . S
C252 C253 1.387 . S
C252 C256 1.391 . S
C253 C252 1.387 . S
C253 C254 1.369 . S
C253 H262 0.929 . S
C254 N251 1.346 . S
C254 C253 1.369 . S
C254 H257 0.928 . S
C255 N251 1.345 . S
C255 C256 1.371 . S
C255 H258 0.931 . S
C256 C252 1.391 . S
C256 C255 1.371 . S
C256 H263 0.930 . S
H257 C254 0.928 . S
H258 C255 0.931 . S
H259 C235 0.930 . S
H260 C232 0.930 . S
H261 C241 0.930 . S
H262 C253 0.929 . S
H263 C256 0.930 . S
C264 C265 1.351 . S
C264 N267 1.368 . S
C264 H269 0.931 . S
C265 C264 1.351 . S
C265 N266 1.373 . S
C265 H293 0.930 . S
N266 C265 1.373 . S
N266 C268 1.340 . S
N267 C264 1.368 . S
N267 C268 1.321 . S
N267 Co270 2.135 . S
C268 N266 1.340 . S
C268 N267 1.321 . S
C268 H292 0.930 . S
H269 C264 0.931 . S
Co270 N267 2.135 . S
Co270 N273 2.121 . S
Co270 O278 2.055 . S
Co270 O281 2.039 . S
Co270 N284 2.140 . S
C271 O272 1.227 . S
C271 O281 1.265 . S
O272 C271 1.227 . S
N273 Co270 2.121 . S
N273 C275 1.375 . S
N273 C276 1.313 . S
C274 C275 1.338 . S
C274 N277 1.377 . S
C274 H294 0.930 . S
C275 N273 1.375 . S
C275 C274 1.338 . S
C275 H279 0.931 . S
C276 N273 1.313 . S
C276 N277 1.344 . S
C276 H280 0.930 . S
N277 C274 1.377 . S
N277 C276 1.344 . S
O278 Co270 2.055 . S
O278 C282 1.253 . S
H279 C275 0.931 . S
H280 C276 0.930 . S
O281 Co270 2.039 . S
O281 C271 1.265 . S
C282 O278 1.253 . S
C282 O283 1.227 . S
O283 C282 1.227 . S
N284 Co270 2.140 . S
N284 C287 1.346 . S
N284 C288 1.345 . S
C285 C286 1.387 . S
C285 C289 1.391 . S
C286 C285 1.387 . S
C286 C287 1.369 . S
C286 H295 0.929 . S
C287 N284 1.346 . S
C287 C286 1.369 . S
C287 H290 0.928 . S
C288 N284 1.345 . S
C288 C289 1.371 . S
C288 H291 0.931 . S
C289 C285 1.391 . S
C289 C288 1.371 . S
C289 H296 0.930 . S
H290 C287 0.928 . S
H291 C288 0.931 . S
H292 C268 0.930 . S
H293 C265 0.930 . S
H294 C274 0.930 . S
H295 C286 0.929 . S
H296 C289 0.930 . S
C297 C298 1.351 . S
C297 N300 1.368 . S
C297 H302 0.931 . S
C298 C297 1.351 . S
C298 N299 1.373 . S
C298 H326 0.930 . S
N299 C298 1.373 . S
N299 C301 1.340 . S
N300 C297 1.368 . S
N300 C301 1.321 . S
N300 Co303 2.135 . S
C301 N299 1.340 . S
C301 N300 1.321 . S
C301 H325 0.930 . S
H302 C297 0.931 . S
Co303 N300 2.135 . S
Co303 N306 2.121 . S
Co303 O311 2.055 . S
Co303 O314 2.039 . S
Co303 N317 2.140 . S
C304 O305 1.227 . S
C304 O314 1.265 . S
O305 C304 1.227 . S
N306 Co303 2.121 . S
N306 C308 1.375 . S
N306 C309 1.313 . S
C307 C308 1.338 . S
C307 N310 1.377 . S
C307 H327 0.930 . S
C308 N306 1.375 . S
C308 C307 1.338 . S
C308 H312 0.931 . S
C309 N306 1.313 . S
C309 N310 1.344 . S
C309 H313 0.930 . S
N310 C307 1.377 . S
N310 C309 1.344 . S
O311 Co303 2.055 . S
O311 C315 1.253 . S
H312 C308 0.931 . S
H313 C309 0.930 . S
O314 Co303 2.039 . S
O314 C304 1.265 . S
C315 O311 1.253 . S
C315 O316 1.227 . S
O316 C315 1.227 . S
N317 Co303 2.140 . S
N317 C320 1.346 . S
N317 C321 1.345 . S
C318 C319 1.387 . S
C318 C322 1.391 . S
C319 C318 1.387 . S
C319 C320 1.369 . S
C319 H328 0.929 . S
C320 N317 1.346 . S
C320 C319 1.369 . S
C320 H323 0.928 . S
C321 N317 1.345 . S
C321 C322 1.371 . S
C321 H324 0.931 . S
C322 C318 1.391 . S
C322 C321 1.371 . S
C322 H329 0.930 . S
H323 C320 0.928 . S
H324 C321 0.931 . S
H325 C301 0.930 . S
H326 C298 0.930 . S
H327 C307 0.930 . S
H328 C319 0.929 . S
H329 C322 0.930 . S
C330 C331 1.351 . S
C330 N333 1.368 . S
C330 H335 0.931 . S
C331 C330 1.351 . S
C331 N332 1.373 . S
C331 H359 0.930 . S
N332 C331 1.373 . S
N332 C334 1.340 . S
N333 C330 1.368 . S
N333 C334 1.321 . S
N333 Co336 2.135 . S
C334 N332 1.340 . S
C334 N333 1.321 . S
C334 H358 0.930 . S
H335 C330 0.931 . S
Co336 N333 2.135 . S
Co336 N339 2.121 . S
Co336 O344 2.055 . S
Co336 O347 2.039 . S
Co336 N350 2.140 . S
C337 O338 1.227 . S
C337 O347 1.265 . S
O338 C337 1.227 . S
N339 Co336 2.121 . S
N339 C341 1.375 . S
N339 C342 1.313 . S
C340 C341 1.338 . S
C340 N343 1.377 . S
C340 H360 0.930 . S
C341 N339 1.375 . S
C341 C340 1.338 . S
C341 H345 0.931 . S
C342 N339 1.313 . S
C342 N343 1.344 . S
C342 H346 0.930 . S
N343 C340 1.377 . S
N343 C342 1.344 . S
O344 Co336 2.055 . S
O344 C348 1.253 . S
H345 C341 0.931 . S
H346 C342 0.930 . S
O347 Co336 2.039 . S
O347 C337 1.265 . S
C348 O344 1.253 . S
C348 O349 1.227 . S
O349 C348 1.227 . S
N350 Co336 2.140 . S
N350 C353 1.346 . S
N350 C354 1.345 . S
C351 C352 1.387 . S
C351 C355 1.391 . S
C352 C351 1.387 . S
C352 C353 1.369 . S
C352 H361 0.929 . S
C353 N350 1.346 . S
C353 C352 1.369 . S
C353 H356 0.928 . S
C354 N350 1.345 . S
C354 C355 1.371 . S
C354 H357 0.931 . S
C355 C351 1.391 . S
C355 C354 1.371 . S
C355 H362 0.930 . S
H356 C353 0.928 . S
H357 C354 0.931 . S
H358 C334 0.930 . S
H359 C331 0.930 . S
H360 C340 0.930 . S
H361 C352 0.929 . S
H362 C355 0.930 . S
C363 C364 1.351 . S
C363 N366 1.368 . S
C363 H368 0.931 . S
C364 C363 1.351 . S
C364 N365 1.373 . S
C364 H392 0.930 . S
N365 C364 1.373 . S
N365 C367 1.340 . S
N366 C363 1.368 . S
N366 C367 1.321 . S
N366 Co369 2.135 . S
C367 N365 1.340 . S
C367 N366 1.321 . S
C367 H391 0.930 . S
H368 C363 0.931 . S
Co369 N366 2.135 . S
Co369 N372 2.121 . S
Co369 O377 2.055 . S
Co369 O380 2.039 . S
Co369 N383 2.140 . S
C370 O371 1.227 . S
C370 O380 1.265 . S
O371 C370 1.227 . S
N372 Co369 2.121 . S
N372 C374 1.375 . S
N372 C375 1.313 . S
C373 C374 1.338 . S
C373 N376 1.377 . S
C373 H393 0.930 . S
C374 N372 1.375 . S
C374 C373 1.338 . S
C374 H378 0.931 . S
C375 N372 1.313 . S
C375 N376 1.344 . S
C375 H379 0.930 . S
N376 C373 1.377 . S
N376 C375 1.344 . S
O377 Co369 2.055 . S
O377 C381 1.253 . S
H378 C374 0.931 . S
H379 C375 0.930 . S
O380 Co369 2.039 . S
O380 C370 1.265 . S
C381 O377 1.253 . S
C381 O382 1.227 . S
O382 C381 1.227 . S
N383 Co369 2.140 . S
N383 C386 1.346 . S
N383 C387 1.345 . S
C384 C385 1.387 . S
C384 C388 1.391 . S
C385 C384 1.387 . S
C385 C386 1.369 . S
C385 H394 0.929 . S
C386 N383 1.346 . S
C386 C385 1.369 . S
C386 H389 0.928 . S
C387 N383 1.345 . S
C387 C388 1.371 . S
C387 H390 0.931 . S
C388 C384 1.391 . S
C388 C387 1.371 . S
C388 H395 0.930 . S
H389 C386 0.928 . S
H390 C387 0.931 . S
H391 C367 0.930 . S
H392 C364 0.930 . S
H393 C373 0.930 . S
H394 C385 0.929 . S
H395 C388 0.930 . S
H396 C414 0.951 . S
H397 C416 0.951 . S
H398 C418 0.950 . S
H399 C419 0.950 . S
H400 C421 0.950 . S
H401 C424 0.950 . S
H402 C425 0.950 . S
H403 C427 0.950 . S
H404 C428 0.950 . S
H405 C429 0.951 . S
H406 C431 0.951 . S
H407 C433 0.950 . S
H408 C434 0.950 . S
H409 C436 0.950 . S
H410 C439 0.950 . S
H411 C440 0.950 . S
H412 C442 0.950 . S
H413 C443 0.950 . S
C414 H396 0.951 . S
C414 C415 1.366 1_556 S
C414 C416 1.388 . S
C415 C414 1.366 1_554 S
C415 C419 1.385 . S
C416 H397 0.951 . S
C416 C414 1.388 . S
C416 C417 1.366 1_556 S
C417 C416 1.366 1_554 S
C417 C418 1.414 . S
C417 C420 1.499 . S
C418 H398 0.950 . S
C418 C417 1.414 . S
C418 C419 1.374 . S
C419 H399 0.950 . S
C419 C415 1.385 . S
C419 C418 1.374 . S
C420 C417 1.499 . S
C420 C421 1.373 . S
C420 C422 1.389 1_554 S
C421 H400 0.950 . S
C421 C420 1.373 . S
C421 C437 1.377 1_545 S
C422 C420 1.389 1_556 S
C422 C423 1.524 . S
C422 C436 1.377 1_545 S
C423 C422 1.524 . S
C423 C424 1.397 . S
C423 C428 1.363 . S
C424 H401 0.950 . S
C424 C423 1.397 . S
C424 C425 1.334 . S
C425 H402 0.950 . S
C425 C424 1.334 . S
C425 C426 1.287 . S
C426 C425 1.287 . S
C426 C427 1.524 . S
C426 H445 0.913 . S
C427 H403 0.950 . S
C427 C426 1.524 . S
C427 C428 1.415 . S
C428 H404 0.950 . S
C428 C423 1.363 . S
C428 C427 1.415 . S
C429 H405 0.951 . S
C429 C430 1.366 . S
C429 C431 1.388 . S
C430 C429 1.366 . S
C430 C434 1.385 1_554 S
C431 H406 0.951 . S
C431 C429 1.388 . S
C431 C432 1.366 . S
C432 C431 1.366 . S
C432 C433 1.414 1_554 S
C432 C435 1.499 . S
C433 H407 0.950 . S
C433 C432 1.414 1_556 S
C433 C434 1.374 . S
C434 H408 0.950 . S
C434 C430 1.385 1_556 S
C434 C433 1.374 . S
C435 C432 1.499 . S
C435 C436 1.373 1_554 S
C435 C437 1.389 . S
C436 H409 0.950 . S
C436 C422 1.377 1_565 S
C436 C435 1.373 1_556 S
C437 C421 1.377 1_565 S
C437 C435 1.389 . S
C437 C438 1.524 . S
C438 C437 1.524 . S
C438 C439 1.397 . S
C438 C443 1.363 . S
C439 H410 0.950 . S
C439 C438 1.397 . S
C439 C440 1.334 . S
C440 H411 0.950 . S
C440 C439 1.334 . S
C440 C441 1.287 . S
C441 C440 1.287 . S
C441 C442 1.524 . S
C441 H444 0.999 . S
C442 H412 0.950 . S
C442 C441 1.524 . S
C442 C443 1.415 . S
C443 H413 0.950 . S
C443 C438 1.363 . S
C443 C442 1.415 . S
H444 C441 0.999 . S
H445 C426 0.913 . S
H446 C464 0.951 . S
H447 C466 0.951 . S
H448 C468 0.950 . S
H449 C469 0.950 . S
H450 C471 0.950 . S
H451 C474 0.950 . S
H452 C475 0.950 . S
H453 C477 0.950 . S
H454 C478 0.950 . S
H455 C479 0.951 . S
H456 C481 0.951 . S
H457 C483 0.950 . S
H458 C484 0.950 . S
H459 C486 0.950 . S
H460 C489 0.950 . S
H461 C490 0.950 . S
H462 C492 0.950 . S
H463 C493 0.950 . S
C464 H446 0.951 . S
C464 C465 1.366 . S
C464 C466 1.388 . S
C465 C464 1.366 . S
C465 C469 1.385 1_554 S
C466 H447 0.951 . S
C466 C464 1.388 . S
C466 C467 1.366 . S
C467 C466 1.366 . S
C467 C468 1.414 1_554 S
C467 C470 1.499 . S
C468 H448 0.950 . S
C468 C467 1.414 1_556 S
C468 C469 1.374 . S
C469 H449 0.950 . S
C469 C465 1.385 1_556 S
C469 C468 1.374 . S
C470 C467 1.499 . S
C470 C471 1.373 1_554 S
C470 C472 1.389 . S
C471 H450 0.950 . S
C471 C470 1.373 1_556 S
C471 C487 1.377 . S
C472 C470 1.389 . S
C472 C473 1.524 . S
C472 C486 1.377 . S
C473 C472 1.524 . S
C473 C474 1.397 . S
C473 C478 1.363 . S
C474 H451 0.950 . S
C474 C473 1.397 . S
C474 C475 1.334 . S
C475 H452 0.950 . S
C475 C474 1.334 . S
C475 C476 1.287 . S
C476 C475 1.287 . S
C476 C477 1.524 . S
C476 H495 0.913 . S
C477 H453 0.950 . S
C477 C476 1.524 . S
C477 C478 1.415 . S
C478 H454 0.950 . S
C478 C473 1.363 . S
C478 C477 1.415 . S
C479 H455 0.951 . S
C479 C480 1.366 1_556 S
C479 C481 1.388 . S
C480 C479 1.366 1_554 S
C480 C484 1.385 . S
C481 H456 0.951 . S
C481 C479 1.388 . S
C481 C482 1.366 1_556 S
C482 C481 1.366 1_554 S
C482 C483 1.414 . S
C482 C485 1.499 . S
C483 H457 0.950 . S
C483 C482 1.414 . S
C483 C484 1.374 . S
C484 H458 0.950 . S
C484 C480 1.385 . S
C484 C483 1.374 . S
C485 C482 1.499 . S
C485 C486 1.373 . S
C485 C487 1.389 1_554 S
C486 H459 0.950 . S
C486 C472 1.377 . S
C486 C485 1.373 . S
C487 C471 1.377 . S
C487 C485 1.389 1_556 S
C487 C488 1.524 . S
C488 C487 1.524 . S
C488 C489 1.397 . S
C488 C493 1.363 . S
C489 H460 0.950 . S
C489 C488 1.397 . S
C489 C490 1.334 . S
C490 H461 0.950 . S
C490 C489 1.334 . S
C490 C491 1.287 . S
C491 C490 1.287 . S
C491 C492 1.524 . S
C491 H494 0.999 . S
C492 H462 0.950 . S
C492 C491 1.524 . S
C492 C493 1.415 . S
C493 H463 0.950 . S
C493 C488 1.363 . S
C493 C492 1.415 . S
H494 C491 0.999 . S
H495 C476 0.913 . S
H496 C514 0.951 . S
H497 C516 0.951 . S
H498 C518 0.950 . S
H499 C519 0.950 . S
H500 C521 0.950 . S
H501 C524 0.950 . S
H502 C525 0.950 . S
H503 C527 0.950 . S
H504 C528 0.950 . S
H505 C529 0.952 . S
H506 C531 0.944 1_556 S
H507 C533 0.950 . S
H508 C534 0.950 . S
H509 C536 0.950 . S
H510 C539 0.950 . S
H511 C540 0.950 . S
H512 C542 0.950 . S
H513 C543 0.950 . S
C514 H496 0.951 . S
C514 C515 1.366 . S
C514 C516 1.388 . S
C515 C514 1.366 . S
C515 C519 1.385 1_554 S
C516 H497 0.951 . S
C516 C514 1.388 . S
C516 C517 1.366 . S
C517 C516 1.366 . S
C517 C518 1.414 1_554 S
C517 C520 1.499 . S
C518 H498 0.950 . S
C518 C517 1.414 1_556 S
C518 C519 1.374 . S
C519 H499 0.950 . S
C519 C515 1.385 1_556 S
C519 C518 1.374 . S
C520 C517 1.499 . S
C520 C521 1.373 1_455 S
C520 C522 1.389 1_554 S
C521 H500 0.950 . S
C521 C520 1.373 1_655 S
C521 C537 1.377 . S
C522 C520 1.389 1_556 S
C522 C523 1.524 . S
C522 C536 1.377 . S
C523 C522 1.524 . S
C523 C524 1.397 . S
C523 C528 1.363 . S
C524 H501 0.950 . S
C524 C523 1.397 . S
C524 C525 1.334 . S
C525 H502 0.950 . S
C525 C524 1.334 . S
C525 C526 1.287 . S
C526 C525 1.287 . S
C526 C527 1.524 . S
C526 H545 0.913 . S
C527 H503 0.950 . S
C527 C526 1.524 . S
C527 C528 1.415 . S
C528 H504 0.950 . S
C528 C523 1.363 . S
C528 C527 1.415 . S
C529 H505 0.952 . S
C529 C530 1.365 1_556 S
C529 C531 1.387 1_556 S
C530 C529 1.365 1_554 S
C530 C534 1.385 . S
C531 H506 0.944 1_554 S
C531 C529 1.387 1_554 S
C531 C532 1.373 . S
C532 C531 1.373 . S
C532 C533 1.414 . S
C532 C535 1.499 . S
C533 H507 0.950 . S
C533 C532 1.414 . S
C533 C534 1.374 . S
C534 H508 0.950 . S
C534 C530 1.385 . S
C534 C533 1.374 . S
C535 C532 1.499 . S
C535 C536 1.373 1_654 S
C535 C537 1.389 . S
C536 H509 0.950 . S
C536 C522 1.377 . S
C536 C535 1.373 1_456 S
C537 C521 1.377 . S
C537 C535 1.389 . S
C537 C538 1.524 . S
C538 C537 1.524 . S
C538 C539 1.397 . S
C538 C543 1.363 . S
C539 H510 0.950 . S
C539 C538 1.397 . S
C539 C540 1.334 . S
C540 H511 0.950 . S
C540 C539 1.334 . S
C540 C541 1.287 . S
C541 C540 1.287 . S
C541 C542 1.524 . S
C541 H544 0.999 . S
C542 H512 0.950 . S
C542 C541 1.524 . S
C542 C543 1.415 . S
C543 H513 0.950 . S
C543 C538 1.363 . S
C543 C542 1.415 . S
H544 C541 0.999 . S
H545 C526 0.913 . S
H546 C564 0.951 . S
H547 C566 0.951 . S
H548 C568 0.950 . S
H549 C569 0.950 . S
H550 C571 0.950 . S
H551 C574 0.950 . S
H552 C575 0.986 . S
H553 C577 0.950 . S
H554 C578 0.950 . S
H555 C579 0.951 . S
H556 C581 0.951 . S
H557 C583 0.950 . S
H558 C584 0.950 . S
H559 C586 0.950 . S
H560 C589 0.950 . S
H561 C590 0.986 . S
H562 C592 0.950 . S
H563 C593 0.950 . S
C564 H546 0.951 . S
C564 C565 1.366 . S
C564 C566 1.388 . S
C565 C564 1.366 . S
C565 C569 1.385 . S
C566 H547 0.951 . S
C566 C564 1.388 . S
C566 C567 1.366 . S
C567 C566 1.366 . S
C567 C568 1.414 . S
C567 C570 1.499 . S
C568 H548 0.950 . S
C568 C567 1.414 . S
C568 C569 1.374 . S
C569 H549 0.950 . S
C569 C565 1.385 . S
C569 C568 1.374 . S
C570 C567 1.499 . S
C570 C571 1.373 . S
C570 C572 1.389 1_455 S
C571 H550 0.950 . S
C571 C570 1.373 . S
C571 C587 1.377 . S
C572 C570 1.389 1_655 S
C572 C573 1.524 . S
C572 C586 1.377 . S
C573 C572 1.524 . S
C573 C574 1.397 1_655 S
C573 C578 1.363 . S
C574 H551 0.950 . S
C574 C573 1.397 1_455 S
C574 C575 1.323 . S
C575 H552 0.986 . S
C575 C574 1.323 . S
C575 C576 1.263 1_455 S
C576 C575 1.263 1_655 S
C576 C577 1.524 . S
C576 H595 0.913 . S
C577 H553 0.950 . S
C577 C576 1.524 . S
C577 C578 1.415 . S
C578 H554 0.950 . S
C578 C573 1.363 . S
C578 C577 1.415 . S
C579 H555 0.951 . S
C579 C580 1.366 . S
C579 C581 1.388 . S
C580 C579 1.366 . S
C580 C584 1.385 . S
C581 H556 0.951 . S
C581 C579 1.388 . S
C581 C582 1.366 . S
C582 C581 1.366 . S
C582 C583 1.414 . S
C582 C585 1.499 . S
C583 H557 0.950 . S
C583 C582 1.414 . S
C583 C584 1.374 . S
C584 H558 0.950 . S
C584 C580 1.385 . S
C584 C583 1.374 . S
C585 C582 1.499 . S
C585 C586 1.373 . S
C585 C587 1.389 1_655 S
C586 H559 0.950 . S
C586 C572 1.377 . S
C586 C585 1.373 . S
C587 C571 1.377 . S
C587 C585 1.389 1_455 S
C587 C588 1.524 . S
C588 C587 1.524 . S
C588 C589 1.397 1_455 S
C588 C593 1.363 . S
C589 H560 0.950 . S
C589 C588 1.397 1_655 S
C589 C590 1.323 . S
C590 H561 0.986 . S
C590 C589 1.323 . S
C590 C591 1.263 1_655 S
C591 C590 1.263 1_455 S
C591 C592 1.524 . S
C591 H594 0.999 . S
C592 H562 0.950 . S
C592 C591 1.524 . S
C592 C593 1.415 . S
C593 H563 0.950 . S
C593 C588 1.363 . S
C593 C592 1.415 . S
H594 C591 0.999 . S
H595 C576 0.913 . S
H596 C614 0.951 . S
H597 C616 0.951 . S
H598 C618 0.950 . S
H599 C619 0.950 . S
H600 C621 0.948 . S
H601 C624 0.950 . S
H602 C625 0.950 . S
H603 C627 0.950 . S
H604 C628 0.950 . S
H605 C629 0.951 . S
H606 C631 0.951 . S
H607 C633 0.950 . S
H608 C634 0.950 . S
H609 C636 0.948 . S
H610 C639 0.950 . S
H611 C640 0.950 . S
H612 C642 0.950 . S
H613 C643 0.950 . S
C614 H596 0.951 . S
C614 C615 1.366 . S
C614 C616 1.388 . S
C615 C614 1.366 . S
C615 C619 1.385 . S
C616 H597 0.951 . S
C616 C614 1.388 . S
C616 C617 1.366 . S
C617 C616 1.366 . S
C617 C618 1.414 . S
C617 C620 1.499 . S
C618 H598 0.950 . S
C618 C617 1.414 . S
C618 C619 1.374 . S
C619 H599 0.950 . S
C619 C615 1.385 . S
C619 C618 1.374 . S
C620 C617 1.499 . S
C620 C621 1.381 . S
C620 C622 1.389 . S
C621 H600 0.948 . S
C621 C620 1.381 . S
C621 C637 1.374 1_545 S
C622 C620 1.389 . S
C622 C623 1.524 . S
C622 C636 1.374 1_545 S
C623 C622 1.524 . S
C623 C624 1.397 . S
C623 C628 1.363 . S
C624 H601 0.950 . S
C624 C623 1.397 . S
C624 C625 1.334 . S
C625 H602 0.950 . S
C625 C624 1.334 . S
C625 C626 1.287 . S
C626 C625 1.287 . S
C626 C627 1.524 . S
C626 H645 0.913 . S
C627 H603 0.950 . S
C627 C626 1.524 . S
C627 C628 1.415 . S
C628 H604 0.950 . S
C628 C623 1.363 . S
C628 C627 1.415 . S
C629 H605 0.951 . S
C629 C630 1.366 . S
C629 C631 1.388 . S
C630 C629 1.366 . S
C630 C634 1.385 . S
C631 H606 0.951 . S
C631 C629 1.388 . S
C631 C632 1.366 . S
C632 C631 1.366 . S
C632 C633 1.414 . S
C632 C635 1.499 . S
C633 H607 0.950 . S
C633 C632 1.414 . S
C633 C634 1.374 . S
C634 H608 0.950 . S
C634 C630 1.385 . S
C634 C633 1.374 . S
C635 C632 1.499 . S
C635 C636 1.381 . S
C635 C637 1.389 . S
C636 H609 0.948 . S
C636 C622 1.374 1_565 S
C636 C635 1.381 . S
C637 C621 1.374 1_565 S
C637 C635 1.389 . S
C637 C638 1.524 . S
C638 C637 1.524 . S
C638 C639 1.397 . S
C638 C643 1.363 . S
C639 H610 0.950 . S
C639 C638 1.397 . S
C639 C640 1.334 . S
C640 H611 0.950 . S
C640 C639 1.334 . S
C640 C641 1.287 . S
C641 C640 1.287 . S
C641 C642 1.524 . S
C641 H644 0.999 . S
C642 H612 0.950 . S
C642 C641 1.524 . S
C642 C643 1.415 . S
C643 H613 0.950 . S
C643 C638 1.363 . S
C643 C642 1.415 . S
H644 C641 0.999 . S
H645 C626 0.913 . S
H646 C664 0.951 . S
H647 C666 0.951 . S
H648 C668 0.950 . S
H649 C669 0.950 . S
H650 C671 0.950 . S
H651 C674 0.950 . S
H652 C675 0.950 . S
H653 C677 0.950 . S
H654 C678 0.950 . S
H655 C679 0.951 . S
H656 C681 0.951 . S
H657 C683 0.950 . S
H658 C684 0.950 . S
H659 C686 0.950 . S
H660 C689 0.950 . S
H661 C690 0.950 . S
H662 C692 0.950 . S
H663 C693 0.950 . S
C664 H646 0.951 . S
C664 C665 1.366 . S
C664 C666 1.388 . S
C665 C664 1.366 . S
C665 C669 1.385 . S
C666 H647 0.951 . S
C666 C664 1.388 . S
C666 C667 1.366 . S
C667 C666 1.366 . S
C667 C668 1.414 . S
C667 C670 1.499 . S
C668 H648 0.950 . S
C668 C667 1.414 . S
C668 C669 1.374 . S
C669 H649 0.950 . S
C669 C665 1.385 . S
C669 C668 1.374 . S
C670 C667 1.499 . S
C670 C671 1.373 . S
C670 C672 1.389 . S
C671 H650 0.950 . S
C671 C670 1.373 . S
C671 C687 1.377 . S
C672 C670 1.389 . S
C672 C673 1.524 . S
C672 C686 1.377 . S
C673 C672 1.524 . S
C673 C674 1.397 . S
C673 C678 1.363 . S
C674 H651 0.950 . S
C674 C673 1.397 . S
C674 C675 1.334 . S
C675 H652 0.950 . S
C675 C674 1.334 . S
C675 C676 1.287 . S
C676 C675 1.287 . S
C676 C677 1.524 . S
C676 H695 0.913 . S
C677 H653 0.950 . S
C677 C676 1.524 . S
C677 C678 1.415 . S
C678 H654 0.950 . S
C678 C673 1.363 . S
C678 C677 1.415 . S
C679 H655 0.951 . S
C679 C680 1.366 . S
C679 C681 1.388 . S
C680 C679 1.366 . S
C680 C684 1.385 . S
C681 H656 0.951 . S
C681 C679 1.388 . S
C681 C682 1.366 . S
C682 C681 1.366 . S
C682 C683 1.414 . S
C682 C685 1.499 . S
C683 H657 0.950 . S
C683 C682 1.414 . S
C683 C684 1.374 . S
C684 H658 0.950 . S
C684 C680 1.385 . S
C684 C683 1.374 . S
C685 C682 1.499 . S
C685 C686 1.373 . S
C685 C687 1.389 . S
C686 H659 0.950 . S
C686 C672 1.377 . S
C686 C685 1.373 . S
C687 C671 1.377 . S
C687 C685 1.389 . S
C687 C688 1.524 . S
C688 C687 1.524 . S
C688 C689 1.397 . S
C688 C693 1.363 . S
C689 H660 0.950 . S
C689 C688 1.397 . S
C689 C690 1.334 . S
C690 H661 0.950 . S
C690 C689 1.334 . S
C690 C691 1.287 . S
C691 C690 1.287 . S
C691 C692 1.524 . S
C691 H694 0.999 . S
C692 H662 0.950 . S
C692 C691 1.524 . S
C692 C693 1.415 . S
C693 H663 0.950 . S
C693 C688 1.363 . S
C693 C692 1.415 . S
H694 C691 0.999 . S
H695 C676 0.913 . S
H696 C714 0.951 . S
H697 C716 0.951 . S
H698 C718 0.952 1_565 S
H699 C719 0.950 . S
H700 C721 0.950 . S
H701 C724 0.950 . S
H702 C725 0.950 . S
H703 C727 0.950 . S
H704 C728 0.950 . S
H705 C729 0.951 . S
H706 C731 0.951 . S
H707 C733 0.950 . S
H708 C734 0.950 . S
H709 C736 0.950 . S
H710 C739 0.950 . S
H711 C740 0.950 . S
H712 C742 0.950 . S
H713 C743 0.950 . S
C714 H696 0.951 . S
C714 C715 1.366 . S
C714 C716 1.388 . S
C715 C714 1.366 . S
C715 C719 1.385 . S
C716 H697 0.951 . S
C716 C714 1.388 . S
C716 C717 1.366 1_545 S
C717 C716 1.366 1_565 S
C717 C718 1.414 1_565 S
C717 C720 1.500 . S
C718 H698 0.952 1_545 S
C718 C717 1.414 1_545 S
C718 C719 1.372 . S
C719 H699 0.950 . S
C719 C715 1.385 . S
C719 C718 1.372 . S
C720 C717 1.500 . S
C720 C721 1.359 1_554 S
C720 C722 1.402 . S
C721 H700 0.950 . S
C721 C720 1.359 1_556 S
C721 C737 1.377 . S
C722 C720 1.402 . S
C722 C723 1.524 . S
C722 C736 1.377 . S
C723 C722 1.524 . S
C723 C724 1.397 . S
C723 C728 1.363 . S
C724 H701 0.950 . S
C724 C723 1.397 . S
C724 C725 1.334 . S
C725 H702 0.950 . S
C725 C724 1.334 . S
C725 C726 1.287 . S
C726 C725 1.287 . S
C726 C727 1.524 . S
C726 H745 0.913 . S
C727 H703 0.950 . S
C727 C726 1.524 . S
C727 C728 1.415 . S
C728 H704 0.950 . S
C728 C723 1.363 . S
C728 C727 1.415 . S
C729 H705 0.951 . S
C729 C730 1.366 . S
C729 C731 1.388 . S
C730 C729 1.366 . S
C730 C734 1.385 . S
C731 H706 0.951 . S
C731 C729 1.388 . S
C731 C732 1.366 . S
C732 C731 1.366 . S
C732 C733 1.414 . S
C732 C735 1.499 . S
C733 H707 0.950 . S
C733 C732 1.414 . S
C733 C734 1.374 . S
C734 H708 0.950 . S
C734 C730 1.385 . S
C734 C733 1.374 . S
C735 C732 1.499 . S
C735 C736 1.373 1_556 S
C735 C737 1.389 . S
C736 H709 0.950 . S
C736 C722 1.377 . S
C736 C735 1.373 1_554 S
C737 C721 1.377 . S
C737 C735 1.389 . S
C737 C738 1.524 . S
C738 C737 1.524 . S
C738 C739 1.397 . S
C738 C743 1.363 . S
C739 H710 0.950 . S
C739 C738 1.397 . S
C739 C740 1.334 . S
C740 H711 0.950 . S
C740 C739 1.334 . S
C740 C741 1.287 . S
C741 C740 1.287 . S
C741 C742 1.524 . S
C741 H744 0.999 . S
C742 H712 0.950 . S
C742 C741 1.524 . S
C742 C743 1.415 . S
C743 H713 0.950 . S
C743 C738 1.363 . S
C743 C742 1.415 . S
H744 C741 0.999 . S
H745 C726 0.913 . S
H746 C764 0.951 . S
H747 C766 0.951 . S
H748 C768 0.950 . S
H749 C769 0.950 . S
H750 C771 0.950 . S
H751 C774 0.950 . S
H752 C775 0.950 . S
H753 C777 0.950 . S
H754 C778 0.950 . S
H755 C779 0.951 . S
H756 C781 0.951 . S
H757 C783 0.950 . S
H758 C784 0.950 . S
H759 C786 0.950 . S
H760 C789 0.950 . S
H761 C790 0.950 . S
H762 C792 0.950 . S
H763 C793 0.950 . S
C764 H746 0.951 . S
C764 C765 1.366 1_554 S
C764 C766 1.388 . S
C765 C764 1.366 1_556 S
C765 C769 1.385 . S
C766 H747 0.951 . S
C766 C764 1.388 . S
C766 C767 1.366 1_554 S
C767 C766 1.366 1_556 S
C767 C768 1.414 . S
C767 C770 1.499 . S
C768 H748 0.950 . S
C768 C767 1.414 . S
C768 C769 1.374 . S
C769 H749 0.950 . S
C769 C765 1.385 . S
C769 C768 1.374 . S
C770 C767 1.499 . S
C770 C771 1.373 . S
C770 C772 1.389 1_556 S
C771 H750 0.950 . S
C771 C770 1.373 . S
C771 C787 1.377 . S
C772 C770 1.389 1_554 S
C772 C773 1.524 . S
C772 C786 1.377 . S
C773 C772 1.524 . S
C773 C774 1.397 . S
C773 C778 1.363 . S
C774 H751 0.950 . S
C774 C773 1.397 . S
C774 C775 1.334 . S
C775 H752 0.950 . S
C775 C774 1.334 . S
C775 C776 1.287 . S
C776 C775 1.287 . S
C776 C777 1.524 . S
C776 H795 0.913 . S
C777 H753 0.950 . S
C777 C776 1.524 . S
C777 C778 1.415 . S
C778 H754 0.950 . S
C778 C773 1.363 . S
C778 C777 1.415 . S
C779 H755 0.951 . S
C779 C780 1.366 1_556 S
C779 C781 1.388 . S
C780 C779 1.366 1_554 S
C780 C784 1.385 . S
C781 H756 0.951 . S
C781 C779 1.388 . S
C781 C782 1.369 . S
C782 C781 1.369 . S
C782 C783 1.410 1_556 S
C782 C785 1.499 . S
C783 H757 0.950 . S
C783 C782 1.410 1_554 S
C783 C784 1.374 . S
C784 H758 0.950 . S
C784 C780 1.385 . S
C784 C783 1.374 . S
C785 C782 1.499 . S
C785 C786 1.373 1_556 S
C785 C787 1.389 . S
C786 H759 0.950 . S
C786 C772 1.377 . S
C786 C785 1.373 1_554 S
C787 C771 1.377 . S
C787 C785 1.389 . S
C787 C788 1.524 . S
C788 C787 1.524 . S
C788 C789 1.397 . S
C788 C793 1.363 . S
C789 H760 0.950 . S
C789 C788 1.397 . S
C789 C790 1.334 . S
C790 H761 0.950 . S
C790 C789 1.334 . S
C790 C791 1.287 . S
C791 C790 1.287 . S
C791 C792 1.524 . S
C791 H794 0.999 . S
C792 H762 0.950 . S
C792 C791 1.524 . S
C792 C793 1.415 . S
C793 H763 0.950 . S
C793 C788 1.363 . S
C793 C792 1.415 . S
H794 C791 0.999 . S
H795 C776 0.913 . S
H796 C814 0.951 . S
H797 C816 0.921 1_455 S
H798 C818 0.950 1_455 S
H799 C819 0.950 . S
H800 C821 0.950 . S
H801 C824 0.950 . S
H802 C825 0.950 . S
H803 C827 0.950 . S
H804 C828 0.950 . S
H805 C829 0.951 . S
H806 C831 0.951 . S
H807 C833 0.950 . S
H808 C834 0.950 . S
H809 C836 0.950 . S
H810 C839 0.950 . S
H811 C840 0.950 . S
H812 C842 0.950 . S
H813 C843 0.950 . S
C814 H796 0.951 . S
C814 C815 1.366 . S
C814 C816 1.388 . S
C815 C814 1.366 . S
C815 C819 1.385 1_554 S
C816 H797 0.921 1_655 S
C816 C814 1.388 . S
C816 C817 1.366 1_655 S
C817 C816 1.366 1_455 S
C817 C818 1.414 1_454 S
C817 C820 1.497 1_554 S
C818 H798 0.950 1_655 S
C818 C817 1.414 1_656 S
C818 C819 1.374 . S
C819 H799 0.950 . S
C819 C815 1.385 1_556 S
C819 C818 1.374 . S
C820 C817 1.497 1_556 S
C820 C821 1.401 . S
C820 C822 1.365 1_556 S
C821 H800 0.950 . S
C821 C820 1.401 . S
C821 C837 1.377 . S
C822 C820 1.365 1_554 S
C822 C823 1.524 . S
C822 C836 1.377 . S
C823 C822 1.524 . S
C823 C824 1.397 . S
C823 C828 1.363 . S
C824 H801 0.950 . S
C824 C823 1.397 . S
C824 C825 1.334 . S
C825 H802 0.950 . S
C825 C824 1.334 . S
C825 C826 1.287 . S
C826 C825 1.287 . S
C826 C827 1.524 . S
C826 H845 0.913 . S
C827 H803 0.950 . S
C827 C826 1.524 . S
C827 C828 1.415 . S
C828 H804 0.950 . S
C828 C823 1.363 . S
C828 C827 1.415 . S
C829 H805 0.951 . S
C829 C830 1.366 . S
C829 C831 1.388 . S
C830 C829 1.366 . S
C830 C834 1.385 1_556 S
C831 H806 0.951 . S
C831 C829 1.388 . S
C831 C832 1.366 . S
C832 C831 1.366 . S
C832 C833 1.414 1_556 S
C832 C835 1.499 . S
C833 H807 0.950 . S
C833 C832 1.414 1_554 S
C833 C834 1.374 . S
C834 H808 0.950 . S
C834 C830 1.385 1_554 S
C834 C833 1.374 . S
C835 C832 1.499 . S
C835 C836 1.373 1_556 S
C835 C837 1.389 . S
C836 H809 0.950 . S
C836 C822 1.377 . S
C836 C835 1.373 1_554 S
C837 C821 1.377 . S
C837 C835 1.389 . S
C837 C838 1.524 . S
C838 C837 1.524 . S
C838 C839 1.397 . S
C838 C843 1.363 . S
C839 H810 0.950 . S
C839 C838 1.397 . S
C839 C840 1.334 . S
C840 H811 0.950 . S
C840 C839 1.334 . S
C840 C841 1.287 . S
C841 C840 1.287 . S
C841 C842 1.524 . S
C841 H844 0.999 . S
C842 H812 0.950 . S
C842 C841 1.524 . S
C842 C843 1.415 . S
C843 H813 0.950 . S
C843 C838 1.363 . S
C843 C842 1.415 . S
H844 C841 0.999 . S
H845 C826 0.913 . S
H846 C864 0.951 . S
H847 C866 0.951 . S
H848 C868 0.950 . S
H849 C869 0.950 . S
H850 C871 0.950 . S
H851 C874 0.950 . S
H852 C875 0.950 . S
H853 C877 0.950 . S
H854 C878 0.950 . S
H855 C879 0.951 . S
H856 C881 0.951 . S
H857 C883 0.950 1_545 S
H858 C884 0.950 . S
H859 C886 0.950 . S
H860 C889 0.950 . S
H861 C890 0.950 . S
H862 C892 0.950 . S
H863 C893 0.950 . S
C864 H846 0.951 . S
C864 C865 1.366 1_554 S
C864 C866 1.388 . S
C865 C864 1.366 1_556 S
C865 C869 1.385 . S
C866 H847 0.951 . S
C866 C864 1.388 . S
C866 C867 1.366 1_554 S
C867 C866 1.366 1_556 S
C867 C868 1.414 . S
C867 C870 1.499 . S
C868 H848 0.950 . S
C868 C867 1.414 . S
C868 C869 1.374 . S
C869 H849 0.950 . S
C869 C865 1.385 . S
C869 C868 1.374 . S
C870 C867 1.499 . S
C870 C871 1.373 . S
C870 C872 1.389 1_556 S
C871 H850 0.950 . S
C871 C870 1.373 . S
C871 C887 1.377 . S
C872 C870 1.389 1_554 S
C872 C873 1.524 . S
C872 C886 1.377 . S
C873 C872 1.524 . S
C873 C874 1.397 . S
C873 C878 1.363 . S
C874 H851 0.950 . S
C874 C873 1.397 . S
C874 C875 1.334 . S
C875 H852 0.950 . S
C875 C874 1.334 . S
C875 C876 1.287 . S
C876 C875 1.287 . S
C876 C877 1.524 . S
C876 H895 0.913 . S
C877 H853 0.950 . S
C877 C876 1.524 . S
C877 C878 1.415 . S
C878 H854 0.950 . S
C878 C873 1.363 . S
C878 C877 1.415 . S
C879 H855 0.951 . S
C879 C880 1.366 1_556 S
C879 C881 1.388 . S
C880 C879 1.366 1_554 S
C880 C884 1.385 . S
C881 H856 0.951 . S
C881 C879 1.388 . S
C881 C882 1.368 1_566 S
C882 C881 1.368 1_544 S
C882 C883 1.411 1_545 S
C882 C885 1.499 1_554 S
C883 H857 0.950 1_565 S
C883 C882 1.411 1_565 S
C883 C884 1.374 . S
C884 H858 0.950 . S
C884 C880 1.385 . S
C884 C883 1.374 . S
C885 C882 1.499 1_556 S
C885 C886 1.373 1_556 S
C885 C887 1.389 . S
C886 H859 0.950 . S
C886 C872 1.377 . S
C886 C885 1.373 1_554 S
C887 C871 1.377 . S
C887 C885 1.389 . S
C887 C888 1.524 . S
C888 C887 1.524 . S
C888 C889 1.397 . S
C888 C893 1.363 . S
C889 H860 0.950 . S
C889 C888 1.397 . S
C889 C890 1.334 . S
C890 H861 0.950 . S
C890 C889 1.334 . S
C890 C891 1.287 . S
C891 C890 1.287 . S
C891 C892 1.524 . S
C891 H894 0.999 . S
C892 H862 0.950 . S
C892 C891 1.524 . S
C892 C893 1.415 . S
C893 H863 0.950 . S
C893 C888 1.363 . S
C893 C892 1.415 . S
H894 C891 0.999 . S
H895 C876 0.913 . S
H896 C914 0.951 . S
H897 C916 0.951 . S
H898 C918 0.950 1_554 S
H899 C919 0.950 1_554 S
H900 C921 0.950 . S
H901 C924 0.950 . S
H902 C925 0.950 . S
H903 C927 0.950 . S
H904 C928 0.950 . S
H905 C929 0.951 . S
H906 C931 0.951 . S
H907 C933 0.950 . S
H908 C934 0.950 . S
H909 C936 0.950 . S
H910 C939 0.950 . S
H911 C940 0.950 . S
H912 C942 0.950 . S
H913 C943 0.950 . S
C914 H896 0.951 . S
C914 C915 1.366 . S
C914 C916 1.388 . S
C915 C914 1.366 . S
C915 C919 1.385 . S
C916 H897 0.951 . S
C916 C914 1.388 . S
C916 C917 1.366 . S
C917 C916 1.366 . S
C917 C918 1.414 . S
C917 C920 1.499 . S
C918 H898 0.950 1_556 S
C918 C917 1.414 . S
C918 C919 1.374 . S
C919 H899 0.950 1_556 S
C919 C915 1.385 . S
C919 C918 1.374 . S
C920 C917 1.499 . S
C920 C921 1.373 . S
C920 C922 1.389 1_556 S
C921 H900 0.950 . S
C921 C920 1.373 . S
C921 C937 1.377 . S
C922 C920 1.389 1_554 S
C922 C923 1.524 . S
C922 C936 1.377 . S
C923 C922 1.524 . S
C923 C924 1.397 . S
C923 C928 1.363 . S
C924 H901 0.950 . S
C924 C923 1.397 . S
C924 C925 1.334 . S
C925 H902 0.950 . S
C925 C924 1.334 . S
C925 C926 1.287 . S
C926 C925 1.287 . S
C926 C927 1.524 . S
C926 H945 0.913 . S
C927 H903 0.950 . S
C927 C926 1.524 . S
C927 C928 1.415 . S
C928 H904 0.950 . S
C928 C923 1.363 . S
C928 C927 1.415 . S
C929 H905 0.951 . S
C929 C930 1.366 . S
C929 C931 1.388 . S
C930 C929 1.366 . S
C930 C934 1.385 1_554 S
C931 H906 0.951 . S
C931 C929 1.388 . S
C931 C932 1.366 1_554 S
C932 C931 1.366 1_556 S
C932 C933 1.414 . S
C932 C935 1.499 . S
C933 H907 0.950 . S
C933 C932 1.414 . S
C933 C934 1.374 . S
C934 H908 0.950 . S
C934 C930 1.385 1_556 S
C934 C933 1.374 . S
C935 C932 1.499 . S
C935 C936 1.373 1_556 S
C935 C937 1.389 . S
C936 H909 0.950 . S
C936 C922 1.377 . S
C936 C935 1.373 1_554 S
C937 C921 1.377 . S
C937 C935 1.389 . S
C937 C938 1.524 . S
C938 C937 1.524 . S
C938 C939 1.397 . S
C938 C943 1.363 . S
C939 H910 0.950 . S
C939 C938 1.397 . S
C939 C940 1.334 . S
C940 H911 0.950 . S
C940 C939 1.334 . S
C940 C941 1.287 . S
C941 C940 1.287 . S
C941 C942 1.524 . S
C941 H944 0.999 . S
C942 H912 0.950 . S
C942 C941 1.524 . S
C942 C943 1.415 . S
C943 H913 0.950 . S
C943 C938 1.363 . S
C943 C942 1.415 . S
H944 C941 0.999 . S
H945 C926 0.913 . S
H946 C964 0.957 . S
H947 C966 0.951 1_554 S
H948 C968 0.950 . S
H949 C969 0.950 . S
H950 C971 0.950 . S
H951 C974 0.950 . S
H952 C975 0.950 . S
H953 C977 0.950 . S
H954 C978 0.950 . S
H955 C979 0.951 . S
H956 C981 0.951 1_655 S
H957 C983 0.950 . S
H958 C984 0.950 . S
H959 C986 0.950 . S
H960 C989 0.950 . S
H961 C990 0.950 . S
H962 C992 0.950 . S
H963 C993 0.950 . S
C964 H946 0.957 . S
C964 C965 1.366 . S
C964 C966 1.388 . S
C965 C964 1.366 . S
C965 C969 1.385 . S
C966 H947 0.951 1_556 S
C966 C964 1.388 . S
C966 C967 1.366 . S
C967 C966 1.366 . S
C967 C968 1.414 . S
C967 C970 1.499 . S
C968 H948 0.950 . S
C968 C967 1.414 . S
C968 C969 1.374 . S
C969 H949 0.950 . S
C969 C965 1.385 . S
C969 C968 1.374 . S
C970 C967 1.499 . S
C970 C971 1.373 1_556 S
C970 C972 1.389 . S
C971 H950 0.950 . S
C971 C970 1.373 1_554 S
C971 C987 1.377 . S
C972 C970 1.389 . S
C972 C973 1.524 . S
C972 C986 1.377 . S
C973 C972 1.524 . S
C973 C974 1.397 . S
C973 C978 1.363 . S
C974 H951 0.950 . S
C974 C973 1.397 . S
C974 C975 1.334 . S
C975 H952 0.950 . S
C975 C974 1.334 . S
C975 C976 1.287 . S
C976 C975 1.287 . S
C976 C977 1.524 . S
C976 H995 0.913 . S
C977 H953 0.950 . S
C977 C976 1.524 . S
C977 C978 1.415 . S
C978 H954 0.950 . S
C978 C973 1.363 . S
C978 C977 1.415 . S
C979 H955 0.951 . S
C979 C980 1.366 1_556 S
C979 C981 1.386 . S
C980 C979 1.366 1_554 S
C980 C984 1.385 . S
C981 H956 0.951 1_455 S
C981 C979 1.386 . S
C981 C982 1.367 1_456 S
C982 C981 1.367 1_654 S
C982 C983 1.414 1_655 S
C982 C985 1.500 . S
C983 H957 0.950 . S
C983 C982 1.414 1_455 S
C983 C984 1.374 . S
C984 H958 0.950 . S
C984 C980 1.385 . S
C984 C983 1.374 . S
C985 C982 1.500 . S
C985 C986 1.357 1_554 S
C985 C987 1.402 . S
C986 H959 0.950 . S
C986 C972 1.377 . S
C986 C985 1.357 1_556 S
C987 C971 1.377 . S
C987 C985 1.402 . S
C987 C988 1.524 . S
C988 C987 1.524 . S
C988 C989 1.397 . S
C988 C993 1.363 . S
C989 H960 0.950 . S
C989 C988 1.397 . S
C989 C990 1.334 . S
C990 H961 0.950 . S
C990 C989 1.334 . S
C990 C991 1.287 . S
C991 C990 1.287 . S
C991 C992 1.524 . S
C991 H994 0.999 . S
C992 H962 0.950 . S
C992 C991 1.524 . S
C992 C993 1.415 . S
C993 H963 0.950 . S
C993 C988 1.363 . S
C993 C992 1.415 . S
H994 C991 0.999 . S
H995 C976 0.913 . S
H996 C1014 0.951 . S
H997 C1016 0.951 . S
H998 C1018 0.950 . S
H999 C1019 0.950 . S
H1000 C1021 0.950 . S
H1001 C1024 0.950 . S
H1002 C1025 0.950 . S
H1003 C1027 0.950 . S
H1004 C1028 0.950 . S
H1005 C1029 0.951 . S
H1006 C1031 0.947 . S
H1007 C1033 0.950 . S
H1008 C1034 0.950 . S
H1009 C1036 0.950 . S
H1010 C1039 0.950 . S
H1011 C1040 0.950 . S
H1012 C1042 0.950 . S
H1013 C1043 0.950 . S
C1014 H996 0.951 . S
C1014 C1015 1.366 . S
C1014 C1016 1.388 . S
C1015 C1014 1.366 . S
C1015 C1019 1.385 . S
C1016 H997 0.951 . S
C1016 C1014 1.388 . S
C1016 C1017 1.366 . S
C1017 C1016 1.366 . S
C1017 C1018 1.414 . S
C1017 C1020 1.499 . S
C1018 H998 0.950 . S
C1018 C1017 1.414 . S
C1018 C1019 1.374 . S
C1019 H999 0.950 . S
C1019 C1015 1.385 . S
C1019 C1018 1.374 . S
C1020 C1017 1.499 . S
C1020 C1021 1.373 . S
C1020 C1022 1.389 . S
C1021 H1000 0.950 . S
C1021 C1020 1.373 . S
C1021 C1037 1.377 . S
C1022 C1020 1.389 . S
C1022 C1023 1.524 . S
C1022 C1036 1.377 . S
C1023 C1022 1.524 . S
C1023 C1024 1.397 . S
C1023 C1028 1.363 . S
C1024 H1001 0.950 . S
C1024 C1023 1.397 . S
C1024 C1025 1.334 . S
C1025 H1002 0.950 . S
C1025 C1024 1.334 . S
C1025 C1026 1.287 . S
C1026 C1025 1.287 . S
C1026 C1027 1.524 . S
C1026 H1045 0.913 . S
C1027 H1003 0.950 . S
C1027 C1026 1.524 . S
C1027 C1028 1.415 . S
C1028 H1004 0.950 . S
C1028 C1023 1.363 . S
C1028 C1027 1.415 . S
C1029 H1005 0.951 . S
C1029 C1030 1.366 . S
C1029 C1031 1.391 1_655 S
C1030 C1029 1.366 . S
C1030 C1034 1.385 . S
C1031 H1006 0.947 . S
C1031 C1029 1.391 1_455 S
C1031 C1032 1.366 . S
C1032 C1031 1.366 . S
C1032 C1033 1.414 1_455 S
C1032 C1035 1.499 . S
C1033 H1007 0.950 . S
C1033 C1032 1.414 1_655 S
C1033 C1034 1.374 . S
C1034 H1008 0.950 . S
C1034 C1030 1.385 . S
C1034 C1033 1.374 . S
C1035 C1032 1.499 . S
C1035 C1036 1.373 . S
C1035 C1037 1.389 . S
C1036 H1009 0.950 . S
C1036 C1022 1.377 . S
C1036 C1035 1.373 . S
C1037 C1021 1.377 . S
C1037 C1035 1.389 . S
C1037 C1038 1.524 . S
C1038 C1037 1.524 . S
C1038 C1039 1.397 . S
C1038 C1043 1.363 . S
C1039 H1010 0.950 . S
C1039 C1038 1.397 . S
C1039 C1040 1.334 . S
C1040 H1011 0.950 . S
C1040 C1039 1.334 . S
C1040 C1041 1.287 . S
C1041 C1040 1.287 . S
C1041 C1042 1.524 . S
C1041 H1044 0.999 . S
C1042 H1012 0.950 . S
C1042 C1041 1.524 . S
C1042 C1043 1.415 . S
C1043 H1013 0.950 . S
C1043 C1038 1.363 . S
C1043 C1042 1.415 . S
H1044 C1041 0.999 . S
H1045 C1026 0.913 . S
H1046 C1064 0.951 . S
H1047 C1066 0.951 . S
H1048 C1068 0.950 . S
H1049 C1069 0.950 . S
H1050 C1071 0.950 . S
H1051 C1074 0.950 . S
H1052 C1075 0.950 . S
H1053 C1077 0.950 . S
H1054 C1078 0.950 . S
H1055 C1079 0.951 . S
H1056 C1081 0.939 1_545 S
H1057 C1083 0.950 . S
H1058 C1084 0.950 . S
H1059 C1086 0.950 . S
H1060 C1089 0.950 . S
H1061 C1090 0.950 1_565 S
H1062 C1092 0.950 . S
H1063 C1093 0.950 . S
C1064 H1046 0.951 . S
C1064 C1065 1.366 . S
C1064 C1066 1.388 . S
C1065 C1064 1.366 . S
C1065 C1069 1.385 . S
C1066 H1047 0.951 . S
C1066 C1064 1.388 . S
C1066 C1067 1.366 . S
C1067 C1066 1.366 . S
C1067 C1068 1.414 . S
C1067 C1070 1.499 . S
C1068 H1048 0.950 . S
C1068 C1067 1.414 . S
C1068 C1069 1.374 . S
C1069 H1049 0.950 . S
C1069 C1065 1.385 . S
C1069 C1068 1.374 . S
C1070 C1067 1.499 . S
C1070 C1071 1.373 . S
C1070 C1072 1.389 . S
C1071 H1050 0.950 . S
C1071 C1070 1.373 . S
C1071 C1087 1.377 . S
C1072 C1070 1.389 . S
C1072 C1073 1.524 . S
C1072 C1086 1.377 . S
C1073 C1072 1.524 . S
C1073 C1074 1.397 . S
C1073 C1078 1.363 . S
C1074 H1051 0.950 . S
C1074 C1073 1.397 . S
C1074 C1075 1.334 . S
C1075 H1052 0.950 . S
C1075 C1074 1.334 . S
C1075 C1076 1.287 . S
C1076 C1075 1.287 . S
C1076 C1077 1.524 . S
C1076 H1095 0.913 . S
C1077 H1053 0.950 . S
C1077 C1076 1.524 . S
C1077 C1078 1.415 . S
C1078 H1054 0.950 . S
C1078 C1073 1.363 . S
C1078 C1077 1.415 . S
C1079 H1055 0.951 . S
C1079 C1080 1.366 . S
C1079 C1081 1.423 . S
C1080 C1079 1.366 . S
C1080 C1084 1.385 . S
C1081 H1056 0.939 1_565 S
C1081 C1079 1.423 . S
C1081 C1082 1.343 1_565 S
C1082 C1081 1.343 1_545 S
C1082 C1083 1.414 1_545 S
C1082 C1085 1.499 . S
C1083 H1057 0.950 . S
C1083 C1082 1.414 1_565 S
C1083 C1084 1.374 . S
C1084 H1058 0.950 . S
C1084 C1080 1.385 . S
C1084 C1083 1.374 . S
C1085 C1082 1.499 . S
C1085 C1086 1.373 . S
C1085 C1087 1.389 . S
C1086 H1059 0.950 . S
C1086 C1072 1.377 . S
C1086 C1085 1.373 . S
C1087 C1071 1.377 . S
C1087 C1085 1.389 . S
C1087 C1088 1.524 . S
C1088 C1087 1.524 . S
C1088 C1089 1.397 . S
C1088 C1093 1.363 . S
C1089 H1060 0.950 . S
C1089 C1088 1.397 . S
C1089 C1090 1.334 . S
C1090 H1061 0.950 1_545 S
C1090 C1089 1.334 . S
C1090 C1091 1.287 . S
C1091 C1090 1.287 . S
C1091 C1092 1.524 . S
C1091 H1094 0.999 . S
C1092 H1062 0.950 . S
C1092 C1091 1.524 . S
C1092 C1093 1.415 . S
C1093 H1063 0.950 . S
C1093 C1088 1.363 . S
C1093 C1092 1.415 . S
H1094 C1091 0.999 . S
H1095 C1076 0.913 . S
H1096 C1114 0.951 . S
H1097 C1116 0.951 . S
H1098 C1118 0.950 . S
H1099 C1119 0.950 . S
H1100 C1121 0.950 . S
H1101 C1124 0.950 . S
H1102 C1125 0.950 . S
H1103 C1127 0.950 . S
H1104 C1128 0.950 . S
H1105 C1129 0.951 . S
H1106 C1131 0.951 . S
H1107 C1133 0.950 . S
H1108 C1134 0.950 . S
H1109 C1136 0.950 . S
H1110 C1139 0.950 . S
H1111 C1140 0.950 . S
H1112 C1142 0.950 . S
H1113 C1143 0.950 . S
C1114 H1096 0.951 . S
C1114 C1115 1.366 . S
C1114 C1116 1.388 . S
C1115 C1114 1.366 . S
C1115 C1119 1.385 . S
C1116 H1097 0.951 . S
C1116 C1114 1.388 . S
C1116 C1117 1.366 . S
C1117 C1116 1.366 . S
C1117 C1118 1.414 . S
C1117 C1120 1.499 . S
C1118 H1098 0.950 . S
C1118 C1117 1.414 . S
C1118 C1119 1.374 . S
C1119 H1099 0.950 . S
C1119 C1115 1.385 . S
C1119 C1118 1.374 . S
C1120 C1117 1.499 . S
C1120 C1121 1.373 . S
C1120 C1122 1.389 . S
C1121 H1100 0.950 . S
C1121 C1120 1.373 . S
C1121 C1137 1.377 . S
C1122 C1120 1.389 . S
C1122 C1123 1.524 . S
C1122 C1136 1.377 . S
C1123 C1122 1.524 . S
C1123 C1124 1.397 . S
C1123 C1128 1.363 . S
C1124 H1101 0.950 . S
C1124 C1123 1.397 . S
C1124 C1125 1.334 . S
C1125 H1102 0.950 . S
C1125 C1124 1.334 . S
C1125 C1126 1.287 . S
C1126 C1125 1.287 . S
C1126 C1127 1.524 . S
C1126 H1145 0.913 . S
C1127 H1103 0.950 . S
C1127 C1126 1.524 . S
C1127 C1128 1.415 . S
C1128 H1104 0.950 . S
C1128 C1123 1.363 . S
C1128 C1127 1.415 . S
C1129 H1105 0.951 . S
C1129 C1130 1.366 . S
C1129 C1131 1.388 . S
C1130 C1129 1.366 . S
C1130 C1134 1.385 . S
C1131 H1106 0.951 . S
C1131 C1129 1.388 . S
C1131 C1132 1.366 . S
C1132 C1131 1.366 . S
C1132 C1133 1.414 . S
C1132 C1135 1.499 . S
C1133 H1107 0.950 . S
C1133 C1132 1.414 . S
C1133 C1134 1.374 . S
C1134 H1108 0.950 . S
C1134 C1130 1.385 . S
C1134 C1133 1.374 . S
C1135 C1132 1.499 . S
C1135 C1136 1.373 . S
C1135 C1137 1.389 . S
C1136 H1109 0.950 . S
C1136 C1122 1.377 . S
C1136 C1135 1.373 . S
C1137 C1121 1.377 . S
C1137 C1135 1.389 . S
C1137 C1138 1.524 . S
C1138 C1137 1.524 . S
C1138 C1139 1.397 . S
C1138 C1143 1.363 . S
C1139 H1110 0.950 . S
C1139 C1138 1.397 . S
C1139 C1140 1.334 . S
C1140 H1111 0.950 . S
C1140 C1139 1.334 . S
C1140 C1141 1.287 . S
C1141 C1140 1.287 . S
C1141 C1142 1.524 . S
C1141 H1144 0.999 . S
C1142 H1112 0.950 . S
C1142 C1141 1.524 . S
C1142 C1143 1.415 . S
C1143 H1113 0.950 . S
C1143 C1138 1.363 . S
C1143 C1142 1.415 . S
H1144 C1141 0.999 . S
H1145 C1126 0.913 . S
H1146 C1164 0.951 . S
H1147 C1166 0.955 1_655 S
H1148 C1168 0.950 . S
H1149 C1169 0.950 . S
H1150 C1171 0.950 . S
H1151 C1174 0.950 . S
H1152 C1175 0.950 1_455 S
H1153 C1177 0.950 . S
H1154 C1178 0.950 . S
H1155 C1179 0.951 . S
H1156 C1181 0.951 . S
H1157 C1183 0.950 . S
H1158 C1184 0.950 . S
H1159 C1186 0.950 . S
H1160 C1189 0.950 . S
H1161 C1190 0.950 . S
H1162 C1192 0.950 . S
H1163 C1193 0.950 . S
C1164 H1146 0.951 . S
C1164 C1165 1.366 . S
C1164 C1166 1.384 . S
C1165 C1164 1.366 . S
C1165 C1169 1.385 . S
C1166 H1147 0.955 1_455 S
C1166 C1164 1.384 . S
C1166 C1167 1.365 1_455 S
C1167 C1166 1.365 1_655 S
C1167 C1168 1.414 1_655 S
C1167 C1170 1.499 . S
C1168 H1148 0.950 . S
C1168 C1167 1.414 1_455 S
C1168 C1169 1.374 . S
C1169 H1149 0.950 . S
C1169 C1165 1.385 . S
C1169 C1168 1.374 . S
C1170 C1167 1.499 . S
C1170 C1171 1.373 . S
C1170 C1172 1.389 . S
C1171 H1150 0.950 . S
C1171 C1170 1.373 . S
C1171 C1187 1.377 . S
C1172 C1170 1.389 . S
C1172 C1173 1.524 . S
C1172 C1186 1.377 . S
C1173 C1172 1.524 . S
C1173 C1174 1.397 . S
C1173 C1178 1.363 . S
C1174 H1151 0.950 . S
C1174 C1173 1.397 . S
C1174 C1175 1.334 . S
C1175 H1152 0.950 1_655 S
C1175 C1174 1.334 . S
C1175 C1176 1.287 . S
C1176 C1175 1.287 . S
C1176 C1177 1.524 . S
C1176 H1195 0.913 . S
C1177 H1153 0.950 . S
C1177 C1176 1.524 . S
C1177 C1178 1.415 . S
C1178 H1154 0.950 . S
C1178 C1173 1.363 . S
C1178 C1177 1.415 . S
C1179 H1155 0.951 . S
C1179 C1180 1.366 . S
C1179 C1181 1.388 . S
C1180 C1179 1.366 . S
C1180 C1184 1.385 . S
C1181 H1156 0.951 . S
C1181 C1179 1.388 . S
C1181 C1182 1.366 . S
C1182 C1181 1.366 . S
C1182 C1183 1.414 . S
C1182 C1185 1.499 . S
C1183 H1157 0.950 . S
C1183 C1182 1.414 . S
C1183 C1184 1.374 . S
C1184 H1158 0.950 . S
C1184 C1180 1.385 . S
C1184 C1183 1.374 . S
C1185 C1182 1.499 . S
C1185 C1186 1.373 . S
C1185 C1187 1.389 . S
C1186 H1159 0.950 . S
C1186 C1172 1.377 . S
C1186 C1185 1.373 . S
C1187 C1171 1.377 . S
C1187 C1185 1.389 . S
C1187 C1188 1.524 . S
C1188 C1187 1.524 . S
C1188 C1189 1.397 . S
C1188 C1193 1.363 . S
C1189 H1160 0.950 . S
C1189 C1188 1.397 . S
C1189 C1190 1.334 . S
C1190 H1161 0.950 . S
C1190 C1189 1.334 . S
C1190 C1191 1.287 . S
C1191 C1190 1.287 . S
C1191 C1192 1.524 . S
C1191 H1194 0.999 . S
C1192 H1162 0.950 . S
C1192 C1191 1.524 . S
C1192 C1193 1.415 . S
C1193 H1163 0.950 . S
C1193 C1188 1.363 . S
C1193 C1192 1.415 . S
H1194 C1191 0.999 . S
H1195 C1176 0.913 . S
H1196 C1214 0.951 . S
H1197 C1216 0.954 . S
H1198 C1218 0.950 . S
H1199 C1219 0.950 . S
H1200 C1221 0.950 . S
H1201 C1224 0.950 . S
H1202 C1225 0.950 . S
H1203 C1227 0.950 . S
H1204 C1228 0.950 . S
H1205 C1229 0.951 . S
H1206 C1231 0.951 . S
H1207 C1233 0.950 . S
H1208 C1234 0.950 . S
H1209 C1236 0.950 . S
H1210 C1239 0.950 . S
H1211 C1240 0.950 . S
H1212 C1242 0.950 . S
H1213 C1243 0.950 . S
C1214 H1196 0.951 . S
C1214 C1215 1.366 . S
C1214 C1216 1.373 1_545 S
C1215 C1214 1.366 . S
C1215 C1219 1.385 . S
C1216 H1197 0.954 . S
C1216 C1214 1.373 1_565 S
C1216 C1217 1.377 . S
C1217 C1216 1.377 . S
C1217 C1218 1.414 1_565 S
C1217 C1220 1.499 . S
C1218 H1198 0.950 . S
C1218 C1217 1.414 1_545 S
C1218 C1219 1.374 . S
C1219 H1199 0.950 . S
C1219 C1215 1.385 . S
C1219 C1218 1.374 . S
C1220 C1217 1.499 . S
C1220 C1221 1.373 . S
C1220 C1222 1.389 . S
C1221 H1200 0.950 . S
C1221 C1220 1.373 . S
C1221 C1237 1.377 . S
C1222 C1220 1.389 . S
C1222 C1223 1.524 . S
C1222 C1236 1.377 . S
C1223 C1222 1.524 . S
C1223 C1224 1.397 . S
C1223 C1228 1.363 . S
C1224 H1201 0.950 . S
C1224 C1223 1.397 . S
C1224 C1225 1.334 . S
C1225 H1202 0.950 . S
C1225 C1224 1.334 . S
C1225 C1226 1.287 . S
C1226 C1225 1.287 . S
C1226 C1227 1.524 . S
C1226 H1245 0.913 . S
C1227 H1203 0.950 . S
C1227 C1226 1.524 . S
C1227 C1228 1.415 . S
C1228 H1204 0.950 . S
C1228 C1223 1.363 . S
C1228 C1227 1.415 . S
C1229 H1205 0.951 . S
C1229 C1230 1.366 . S
C1229 C1231 1.388 . S
C1230 C1229 1.366 . S
C1230 C1234 1.385 . S
C1231 H1206 0.951 . S
C1231 C1229 1.388 . S
C1231 C1232 1.366 . S
C1232 C1231 1.366 . S
C1232 C1233 1.414 . S
C1232 C1235 1.499 . S
C1233 H1207 0.950 . S
C1233 C1232 1.414 . S
C1233 C1234 1.374 . S
C1234 H1208 0.950 . S
C1234 C1230 1.385 . S
C1234 C1233 1.374 . S
C1235 C1232 1.499 . S
C1235 C1236 1.373 . S
C1235 C1237 1.389 . S
C1236 H1209 0.950 . S
C1236 C1222 1.377 . S
C1236 C1235 1.373 . S
C1237 C1221 1.377 . S
C1237 C1235 1.389 . S
C1237 C1238 1.524 . S
C1238 C1237 1.524 . S
C1238 C1239 1.397 . S
C1238 C1243 1.363 . S
C1239 H1210 0.950 . S
C1239 C1238 1.397 . S
C1239 C1240 1.334 . S
C1240 H1211 0.950 . S
C1240 C1239 1.334 . S
C1240 C1241 1.287 . S
C1241 C1240 1.287 . S
C1241 C1242 1.524 . S
C1241 H1244 0.999 . S
C1242 H1212 0.950 . S
C1242 C1241 1.524 . S
C1242 C1243 1.415 . S
C1243 H1213 0.950 . S
C1243 C1238 1.363 . S
C1243 C1242 1.415 . S
H1244 C1241 0.999 . S
H1245 C1226 0.913 . S
H1246 C1264 0.951 . S
H1247 C1266 0.951 . S
H1248 C1268 0.950 . S
H1249 C1269 0.950 . S
H1250 C1271 0.950 . S
H1251 C1274 0.950 . S
H1252 C1275 0.950 . S
H1253 C1277 0.950 . S
H1254 C1278 0.950 . S
H1255 C1279 0.951 . S
H1256 C1281 0.951 . S
H1257 C1283 0.950 . S
H1258 C1284 0.950 . S
H1259 C1286 0.950 . S
H1260 C1289 0.950 . S
H1261 C1290 0.950 . S
H1262 C1292 0.950 . S
H1263 C1293 0.950 . S
C1264 H1246 0.951 . S
C1264 C1265 1.366 . S
C1264 C1266 1.388 . S
C1265 C1264 1.366 . S
C1265 C1269 1.385 . S
C1266 H1247 0.951 . S
C1266 C1264 1.388 . S
C1266 C1267 1.366 . S
C1267 C1266 1.366 . S
C1267 C1268 1.414 . S
C1267 C1270 1.499 . S
C1268 H1248 0.950 . S
C1268 C1267 1.414 . S
C1268 C1269 1.374 . S
C1269 H1249 0.950 . S
C1269 C1265 1.385 . S
C1269 C1268 1.374 . S
C1270 C1267 1.499 . S
C1270 C1271 1.373 . S
C1270 C1272 1.389 . S
C1271 H1250 0.950 . S
C1271 C1270 1.373 . S
C1271 C1287 1.377 . S
C1272 C1270 1.389 . S
C1272 C1273 1.524 . S
C1272 C1286 1.377 . S
C1273 C1272 1.524 . S
C1273 C1274 1.397 . S
C1273 C1278 1.363 . S
C1274 H1251 0.950 . S
C1274 C1273 1.397 . S
C1274 C1275 1.334 . S
C1275 H1252 0.950 . S
C1275 C1274 1.334 . S
C1275 C1276 1.287 . S
C1276 C1275 1.287 . S
C1276 C1277 1.524 . S
C1276 H1295 0.913 . S
C1277 H1253 0.950 . S
C1277 C1276 1.524 . S
C1277 C1278 1.415 . S
C1278 H1254 0.950 . S
C1278 C1273 1.363 . S
C1278 C1277 1.415 . S
C1279 H1255 0.951 . S
C1279 C1280 1.366 . S
C1279 C1281 1.388 . S
C1280 C1279 1.366 . S
C1280 C1284 1.385 . S
C1281 H1256 0.951 . S
C1281 C1279 1.388 . S
C1281 C1282 1.366 . S
C1282 C1281 1.366 . S
C1282 C1283 1.414 . S
C1282 C1285 1.499 . S
C1283 H1257 0.950 . S
C1283 C1282 1.414 . S
C1283 C1284 1.374 . S
C1284 H1258 0.950 . S
C1284 C1280 1.385 . S
C1284 C1283 1.374 . S
C1285 C1282 1.499 . S
C1285 C1286 1.373 . S
C1285 C1287 1.389 . S
C1286 H1259 0.950 . S
C1286 C1272 1.377 . S
C1286 C1285 1.373 . S
C1287 C1271 1.377 . S
C1287 C1285 1.389 . S
C1287 C1288 1.524 . S
C1288 C1287 1.524 . S
C1288 C1289 1.397 . S
C1288 C1293 1.363 . S
C1289 H1260 0.950 . S
C1289 C1288 1.397 . S
C1289 C1290 1.334 . S
C1290 H1261 0.950 . S
C1290 C1289 1.334 . S
C1290 C1291 1.287 . S
C1291 C1290 1.287 . S
C1291 C1292 1.524 . S
C1291 H1294 0.999 . S
C1292 H1262 0.950 . S
C1292 C1291 1.524 . S
C1292 C1293 1.415 . S
C1293 H1263 0.950 . S
C1293 C1288 1.363 . S
C1293 C1292 1.415 . S
H1294 C1291 0.999 . S
H1295 C1276 0.913 . S
H1296 C1314 0.951 . S
H1297 C1316 0.951 . S
H1298 C1318 0.950 . S
H1299 C1319 0.950 . S
H1300 C1321 0.950 . S
H1301 C1324 0.950 . S
H1302 C1325 0.950 . S
H1303 C1327 0.950 . S
H1304 C1328 0.950 . S
H1305 C1329 0.951 . S
H1306 C1331 0.951 . S
H1307 C1333 0.950 . S
H1308 C1334 0.950 . S
H1309 C1336 0.950 . S
H1310 C1339 0.950 . S
H1311 C1340 0.950 . S
H1312 C1342 0.950 . S
H1313 C1343 0.950 . S
C1314 H1296 0.951 . S
C1314 C1315 1.366 . S
C1314 C1316 1.388 . S
C1315 C1314 1.366 . S
C1315 C1319 1.385 . S
C1316 H1297 0.951 . S
C1316 C1314 1.388 . S
C1316 C1317 1.366 . S
C1317 C1316 1.366 . S
C1317 C1318 1.414 . S
C1317 C1320 1.499 . S
C1318 H1298 0.950 . S
C1318 C1317 1.414 . S
C1318 C1319 1.374 . S
C1319 H1299 0.950 . S
C1319 C1315 1.385 . S
C1319 C1318 1.374 . S
C1320 C1317 1.499 . S
C1320 C1321 1.373 . S
C1320 C1322 1.389 . S
C1321 H1300 0.950 . S
C1321 C1320 1.373 . S
C1321 C1337 1.377 . S
C1322 C1320 1.389 . S
C1322 C1323 1.524 . S
C1322 C1336 1.377 . S
C1323 C1322 1.524 . S
C1323 C1324 1.397 . S
C1323 C1328 1.363 . S
C1324 H1301 0.950 . S
C1324 C1323 1.397 . S
C1324 C1325 1.334 . S
C1325 H1302 0.950 . S
C1325 C1324 1.334 . S
C1325 C1326 1.287 . S
C1326 C1325 1.287 . S
C1326 C1327 1.524 . S
C1326 H1345 0.913 . S
C1327 H1303 0.950 . S
C1327 C1326 1.524 . S
C1327 C1328 1.415 . S
C1328 H1304 0.950 . S
C1328 C1323 1.363 . S
C1328 C1327 1.415 . S
C1329 H1305 0.951 . S
C1329 C1330 1.366 . S
C1329 C1331 1.388 . S
C1330 C1329 1.366 . S
C1330 C1334 1.385 . S
C1331 H1306 0.951 . S
C1331 C1329 1.388 . S
C1331 C1332 1.366 . S
C1332 C1331 1.366 . S
C1332 C1333 1.414 . S
C1332 C1335 1.499 . S
C1333 H1307 0.950 . S
C1333 C1332 1.414 . S
C1333 C1334 1.374 . S
C1334 H1308 0.950 . S
C1334 C1330 1.385 . S
C1334 C1333 1.374 . S
C1335 C1332 1.499 . S
C1335 C1336 1.373 . S
C1335 C1337 1.389 . S
C1336 H1309 0.950 . S
C1336 C1322 1.377 . S
C1336 C1335 1.373 . S
C1337 C1321 1.377 . S
C1337 C1335 1.389 . S
C1337 C1338 1.524 . S
C1338 C1337 1.524 . S
C1338 C1339 1.397 . S
C1338 C1343 1.363 . S
C1339 H1310 0.950 . S
C1339 C1338 1.397 . S
C1339 C1340 1.334 . S
C1340 H1311 0.950 . S
C1340 C1339 1.334 . S
C1340 C1341 1.287 . S
C1341 C1340 1.287 . S
C1341 C1342 1.524 . S
C1341 H1344 0.999 . S
C1342 H1312 0.950 . S
C1342 C1341 1.524 . S
C1342 C1343 1.415 . S
C1343 H1313 0.950 . S
C1343 C1338 1.363 . S
C1343 C1342 1.415 . S
H1344 C1341 0.999 . S
H1345 C1326 0.913 . S
H1346 C1364 0.951 . S
H1347 C1366 0.951 . S
H1348 C1368 0.950 . S
H1349 C1369 0.950 . S
H1350 C1371 0.950 . S
H1351 C1374 0.950 . S
H1352 C1375 0.950 . S
H1353 C1377 0.950 . S
H1354 C1378 0.950 . S
H1355 C1379 0.951 . S
H1356 C1381 0.951 . S
H1357 C1383 0.950 . S
H1358 C1384 0.950 . S
H1359 C1386 0.950 . S
H1360 C1389 0.950 . S
H1361 C1390 0.950 . S
H1362 C1392 0.950 . S
H1363 C1393 0.950 . S
C1364 H1346 0.951 . S
C1364 C1365 1.366 . S
C1364 C1366 1.388 . S
C1365 C1364 1.366 . S
C1365 C1369 1.385 . S
C1366 H1347 0.951 . S
C1366 C1364 1.388 . S
C1366 C1367 1.366 . S
C1367 C1366 1.366 . S
C1367 C1368 1.414 . S
C1367 C1370 1.499 . S
C1368 H1348 0.950 . S
C1368 C1367 1.414 . S
C1368 C1369 1.374 . S
C1369 H1349 0.950 . S
C1369 C1365 1.385 . S
C1369 C1368 1.374 . S
C1370 C1367 1.499 . S
C1370 C1371 1.373 . S
C1370 C1372 1.389 . S
C1371 H1350 0.950 . S
C1371 C1370 1.373 . S
C1371 C1387 1.377 . S
C1372 C1370 1.389 . S
C1372 C1373 1.524 . S
C1372 C1386 1.377 . S
C1373 C1372 1.524 . S
C1373 C1374 1.397 . S
C1373 C1378 1.363 . S
C1374 H1351 0.950 . S
C1374 C1373 1.397 . S
C1374 C1375 1.334 . S
C1375 H1352 0.950 . S
C1375 C1374 1.334 . S
C1375 C1376 1.287 . S
C1376 C1375 1.287 . S
C1376 C1377 1.524 . S
C1376 H1395 0.913 . S
C1377 H1353 0.950 . S
C1377 C1376 1.524 . S
C1377 C1378 1.415 . S
C1378 H1354 0.950 . S
C1378 C1373 1.363 . S
C1378 C1377 1.415 . S
C1379 H1355 0.951 . S
C1379 C1380 1.366 . S
C1379 C1381 1.388 . S
C1380 C1379 1.366 . S
C1380 C1384 1.385 . S
C1381 H1356 0.951 . S
C1381 C1379 1.388 . S
C1381 C1382 1.366 . S
C1382 C1381 1.366 . S
C1382 C1383 1.414 . S
C1382 C1385 1.499 . S
C1383 H1357 0.950 . S
C1383 C1382 1.414 . S
C1383 C1384 1.374 . S
C1384 H1358 0.950 . S
C1384 C1380 1.385 . S
C1384 C1383 1.374 . S
C1385 C1382 1.499 . S
C1385 C1386 1.373 . S
C1385 C1387 1.389 . S
C1386 H1359 0.950 . S
C1386 C1372 1.377 . S
C1386 C1385 1.373 . S
C1387 C1371 1.377 . S
C1387 C1385 1.389 . S
C1387 C1388 1.524 . S
C1388 C1387 1.524 . S
C1388 C1389 1.397 . S
C1388 C1393 1.363 . S
C1389 H1360 0.950 . S
C1389 C1388 1.397 . S
C1389 C1390 1.334 . S
C1390 H1361 0.950 . S
C1390 C1389 1.334 . S
C1390 C1391 1.287 . S
C1391 C1390 1.287 . S
C1391 C1392 1.524 . S
C1391 H1394 0.999 . S
C1392 H1362 0.950 . S
C1392 C1391 1.524 . S
C1392 C1393 1.415 . S
C1393 H1363 0.950 . S
C1393 C1388 1.363 . S
C1393 C1392 1.415 . S
H1394 C1391 0.999 . S
H1395 C1376 0.913 . S
H1396 C1414 0.951 . S
H1397 C1416 0.951 . S
H1398 C1418 0.950 . S
H1399 C1419 0.950 . S
H1400 C1421 0.950 . S
H1401 C1424 0.950 . S
H1402 C1425 0.950 . S
H1403 C1427 0.950 . S
H1404 C1428 0.950 . S
H1405 C1429 0.951 . S
H1406 C1431 0.951 . S
H1407 C1433 0.950 . S
H1408 C1434 0.950 . S
H1409 C1436 0.950 . S
H1410 C1439 0.950 . S
H1411 C1440 0.950 . S
H1412 C1442 0.950 . S
H1413 C1443 0.950 . S
C1414 H1396 0.951 . S
C1414 C1415 1.366 . S
C1414 C1416 1.388 . S
C1415 C1414 1.366 . S
C1415 C1419 1.385 . S
C1416 H1397 0.951 . S
C1416 C1414 1.388 . S
C1416 C1417 1.366 . S
C1417 C1416 1.366 . S
C1417 C1418 1.414 . S
C1417 C1420 1.499 . S
C1418 H1398 0.950 . S
C1418 C1417 1.414 . S
C1418 C1419 1.374 . S
C1419 H1399 0.950 . S
C1419 C1415 1.385 . S
C1419 C1418 1.374 . S
C1420 C1417 1.499 . S
C1420 C1421 1.373 . S
C1420 C1422 1.389 . S
C1421 H1400 0.950 . S
C1421 C1420 1.373 . S
C1421 C1437 1.377 . S
C1422 C1420 1.389 . S
C1422 C1423 1.524 . S
C1422 C1436 1.377 . S
C1423 C1422 1.524 . S
C1423 C1424 1.397 . S
C1423 C1428 1.363 . S
C1424 H1401 0.950 . S
C1424 C1423 1.397 . S
C1424 C1425 1.334 . S
C1425 H1402 0.950 . S
C1425 C1424 1.334 . S
C1425 C1426 1.287 . S
C1426 C1425 1.287 . S
C1426 C1427 1.524 . S
C1426 H1445 0.913 . S
C1427 H1403 0.950 . S
C1427 C1426 1.524 . S
C1427 C1428 1.415 . S
C1428 H1404 0.950 . S
C1428 C1423 1.363 . S
C1428 C1427 1.415 . S
C1429 H1405 0.951 . S
C1429 C1430 1.366 . S
C1429 C1431 1.388 . S
C1430 C1429 1.366 . S
C1430 C1434 1.385 . S
C1431 H1406 0.951 . S
C1431 C1429 1.388 . S
C1431 C1432 1.366 . S
C1432 C1431 1.366 . S
C1432 C1433 1.414 . S
C1432 C1435 1.499 . S
C1433 H1407 0.950 . S
C1433 C1432 1.414 . S
C1433 C1434 1.374 . S
C1434 H1408 0.950 . S
C1434 C1430 1.385 . S
C1434 C1433 1.374 . S
C1435 C1432 1.499 . S
C1435 C1436 1.373 . S
C1435 C1437 1.389 . S
C1436 H1409 0.950 . S
C1436 C1422 1.377 . S
C1436 C1435 1.373 . S
C1437 C1421 1.377 . S
C1437 C1435 1.389 . S
C1437 C1438 1.524 . S
C1438 C1437 1.524 . S
C1438 C1439 1.397 . S
C1438 C1443 1.363 . S
C1439 H1410 0.950 . S
C1439 C1438 1.397 . S
C1439 C1440 1.334 . S
C1440 H1411 0.950 . S
C1440 C1439 1.334 . S
C1440 C1441 1.287 . S
C1441 C1440 1.287 . S
C1441 C1442 1.524 . S
C1441 H1444 0.999 . S
C1442 H1412 0.950 . S
C1442 C1441 1.524 . S
C1442 C1443 1.415 . S
C1443 H1413 0.950 . S
C1443 C1438 1.363 . S
C1443 C1442 1.415 . S
H1444 C1441 0.999 . S
H1445 C1426 0.913 . S
H1446 C1464 0.951 . S
H1447 C1466 0.951 . S
H1448 C1468 0.950 . S
H1449 C1469 0.950 . S
H1450 C1471 0.950 . S
H1451 C1474 0.950 . S
H1452 C1475 0.950 . S
H1453 C1477 0.950 . S
H1454 C1478 0.950 . S
H1455 C1479 0.951 . S
H1456 C1481 0.951 . S
H1457 C1483 0.950 . S
H1458 C1484 0.950 . S
H1459 C1486 0.950 . S
H1460 C1489 0.950 . S
H1461 C1490 0.950 . S
H1462 C1492 0.950 . S
H1463 C1493 0.950 . S
C1464 H1446 0.951 . S
C1464 C1465 1.366 . S
C1464 C1466 1.388 . S
C1465 C1464 1.366 . S
C1465 C1469 1.385 . S
C1466 H1447 0.951 . S
C1466 C1464 1.388 . S
C1466 C1467 1.366 . S
C1467 C1466 1.366 . S
C1467 C1468 1.414 . S
C1467 C1470 1.499 . S
C1468 H1448 0.950 . S
C1468 C1467 1.414 . S
C1468 C1469 1.374 . S
C1469 H1449 0.950 . S
C1469 C1465 1.385 . S
C1469 C1468 1.374 . S
C1470 C1467 1.499 . S
C1470 C1471 1.373 . S
C1470 C1472 1.389 . S
C1471 H1450 0.950 . S
C1471 C1470 1.373 . S
C1471 C1487 1.377 . S
C1472 C1470 1.389 . S
C1472 C1473 1.524 . S
C1472 C1486 1.377 . S
C1473 C1472 1.524 . S
C1473 C1474 1.397 . S
C1473 C1478 1.363 . S
C1474 H1451 0.950 . S
C1474 C1473 1.397 . S
C1474 C1475 1.334 . S
C1475 H1452 0.950 . S
C1475 C1474 1.334 . S
C1475 C1476 1.287 . S
C1476 C1475 1.287 . S
C1476 C1477 1.524 . S
C1476 H1495 0.913 . S
C1477 H1453 0.950 . S
C1477 C1476 1.524 . S
C1477 C1478 1.415 . S
C1478 H1454 0.950 . S
C1478 C1473 1.363 . S
C1478 C1477 1.415 . S
C1479 H1455 0.951 . S
C1479 C1480 1.366 . S
C1479 C1481 1.388 . S
C1480 C1479 1.366 . S
C1480 C1484 1.385 . S
C1481 H1456 0.951 . S
C1481 C1479 1.388 . S
C1481 C1482 1.366 . S
C1482 C1481 1.366 . S
C1482 C1483 1.414 . S
C1482 C1485 1.499 . S
C1483 H1457 0.950 . S
C1483 C1482 1.414 . S
C1483 C1484 1.374 . S
C1484 H1458 0.950 . S
C1484 C1480 1.385 . S
C1484 C1483 1.374 . S
C1485 C1482 1.499 . S
C1485 C1486 1.373 . S
C1485 C1487 1.389 . S
C1486 H1459 0.950 . S
C1486 C1472 1.377 . S
C1486 C1485 1.373 . S
C1487 C1471 1.377 . S
C1487 C1485 1.389 . S
C1487 C1488 1.524 . S
C1488 C1487 1.524 . S
C1488 C1489 1.397 . S
C1488 C1493 1.363 . S
C1489 H1460 0.950 . S
C1489 C1488 1.397 . S
C1489 C1490 1.334 . S
C1490 H1461 0.950 . S
C1490 C1489 1.334 . S
C1490 C1491 1.287 . S
C1491 C1490 1.287 . S
C1491 C1492 1.524 . S
C1491 H1494 0.999 . S
C1492 H1462 0.950 . S
C1492 C1491 1.524 . S
C1492 C1493 1.415 . S
C1493 H1463 0.950 . S
C1493 C1488 1.363 . S
C1493 C1492 1.415 . S
H1494 C1491 0.999 . S
H1495 C1476 0.913 . S
H1496 C1514 0.951 . S
H1497 C1516 0.951 . S
H1498 C1518 0.950 . S
H1499 C1519 0.950 . S
H1500 C1521 0.950 . S
H1501 C1524 0.950 . S
H1502 C1525 0.950 . S
H1503 C1527 0.950 . S
H1504 C1528 0.950 . S
H1505 C1529 0.951 . S
H1506 C1531 0.951 . S
H1507 C1533 0.950 . S
H1508 C1534 0.950 . S
H1509 C1536 0.950 . S
H1510 C1539 0.950 . S
H1511 C1540 0.950 . S
H1512 C1542 0.950 . S
H1513 C1543 0.950 . S
C1514 H1496 0.951 . S
C1514 C1515 1.366 . S
C1514 C1516 1.388 . S
C1515 C1514 1.366 . S
C1515 C1519 1.385 . S
C1516 H1497 0.951 . S
C1516 C1514 1.388 . S
C1516 C1517 1.366 . S
C1517 C1516 1.366 . S
C1517 C1518 1.414 . S
C1517 C1520 1.499 . S
C1518 H1498 0.950 . S
C1518 C1517 1.414 . S
C1518 C1519 1.374 . S
C1519 H1499 0.950 . S
C1519 C1515 1.385 . S
C1519 C1518 1.374 . S
C1520 C1517 1.499 . S
C1520 C1521 1.373 . S
C1520 C1522 1.389 . S
C1521 H1500 0.950 . S
C1521 C1520 1.373 . S
C1521 C1537 1.377 . S
C1522 C1520 1.389 . S
C1522 C1523 1.524 . S
C1522 C1536 1.377 . S
C1523 C1522 1.524 . S
C1523 C1524 1.397 . S
C1523 C1528 1.363 . S
C1524 H1501 0.950 . S
C1524 C1523 1.397 . S
C1524 C1525 1.334 . S
C1525 H1502 0.950 . S
C1525 C1524 1.334 . S
C1525 C1526 1.287 . S
C1526 C1525 1.287 . S
C1526 C1527 1.524 . S
C1526 H1545 0.913 . S
C1527 H1503 0.950 . S
C1527 C1526 1.524 . S
C1527 C1528 1.415 . S
C1528 H1504 0.950 . S
C1528 C1523 1.363 . S
C1528 C1527 1.415 . S
C1529 H1505 0.951 . S
C1529 C1530 1.366 . S
C1529 C1531 1.388 . S
C1530 C1529 1.366 . S
C1530 C1534 1.385 . S
C1531 H1506 0.951 . S
C1531 C1529 1.388 . S
C1531 C1532 1.366 . S
C1532 C1531 1.366 . S
C1532 C1533 1.414 . S
C1532 C1535 1.499 . S
C1533 H1507 0.950 . S
C1533 C1532 1.414 . S
C1533 C1534 1.374 . S
C1534 H1508 0.950 . S
C1534 C1530 1.385 . S
C1534 C1533 1.374 . S
C1535 C1532 1.499 . S
C1535 C1536 1.373 . S
C1535 C1537 1.389 . S
C1536 H1509 0.950 . S
C1536 C1522 1.377 . S
C1536 C1535 1.373 . S
C1537 C1521 1.377 . S
C1537 C1535 1.389 . S
C1537 C1538 1.524 . S
C1538 C1537 1.524 . S
C1538 C1539 1.397 . S
C1538 C1543 1.363 . S
C1539 H1510 0.950 . S
C1539 C1538 1.397 . S
C1539 C1540 1.334 . S
C1540 H1511 0.950 . S
C1540 C1539 1.334 . S
C1540 C1541 1.287 . S
C1541 C1540 1.287 . S
C1541 C1542 1.524 . S
C1541 H1544 0.999 . S
C1542 H1512 0.950 . S
C1542 C1541 1.524 . S
C1542 C1543 1.415 . S
C1543 H1513 0.950 . S
C1543 C1538 1.363 . S
C1543 C1542 1.415 . S
H1544 C1541 0.999 . S
H1545 C1526 0.913 . S
H1546 C1564 0.951 . S
H1547 C1566 0.951 . S
H1548 C1568 0.950 . S
H1549 C1569 0.950 . S
H1550 C1571 0.950 . S
H1551 C1574 0.950 . S
H1552 C1575 0.950 . S
H1553 C1577 0.950 . S
H1554 C1578 0.950 . S
H1555 C1579 0.951 . S
H1556 C1581 0.951 . S
H1557 C1583 0.950 . S
H1558 C1584 0.950 . S
H1559 C1586 0.950 . S
H1560 C1589 0.950 . S
H1561 C1590 0.950 . S
H1562 C1592 0.950 . S
H1563 C1593 0.950 . S
C1564 H1546 0.951 . S
C1564 C1565 1.366 . S
C1564 C1566 1.388 . S
C1565 C1564 1.366 . S
C1565 C1569 1.385 . S
C1566 H1547 0.951 . S
C1566 C1564 1.388 . S
C1566 C1567 1.366 . S
C1567 C1566 1.366 . S
C1567 C1568 1.414 . S
C1567 C1570 1.499 . S
C1568 H1548 0.950 . S
C1568 C1567 1.414 . S
C1568 C1569 1.374 . S
C1569 H1549 0.950 . S
C1569 C1565 1.385 . S
C1569 C1568 1.374 . S
C1570 C1567 1.499 . S
C1570 C1571 1.373 . S
C1570 C1572 1.389 . S
C1571 H1550 0.950 . S
C1571 C1570 1.373 . S
C1571 C1587 1.377 . S
C1572 C1570 1.389 . S
C1572 C1573 1.524 . S
C1572 C1586 1.377 . S
C1573 C1572 1.524 . S
C1573 C1574 1.397 . S
C1573 C1578 1.363 . S
C1574 H1551 0.950 . S
C1574 C1573 1.397 . S
C1574 C1575 1.334 . S
C1575 H1552 0.950 . S
C1575 C1574 1.334 . S
C1575 C1576 1.287 . S
C1576 C1575 1.287 . S
C1576 C1577 1.524 . S
C1576 H1595 0.913 . S
C1577 H1553 0.950 . S
C1577 C1576 1.524 . S
C1577 C1578 1.415 . S
C1578 H1554 0.950 . S
C1578 C1573 1.363 . S
C1578 C1577 1.415 . S
C1579 H1555 0.951 . S
C1579 C1580 1.366 . S
C1579 C1581 1.388 . S
C1580 C1579 1.366 . S
C1580 C1584 1.385 . S
C1581 H1556 0.951 . S
C1581 C1579 1.388 . S
C1581 C1582 1.366 . S
C1582 C1581 1.366 . S
C1582 C1583 1.414 . S
C1582 C1585 1.499 . S
C1583 H1557 0.950 . S
C1583 C1582 1.414 . S
C1583 C1584 1.374 . S
C1584 H1558 0.950 . S
C1584 C1580 1.385 . S
C1584 C1583 1.374 . S
C1585 C1582 1.499 . S
C1585 C1586 1.373 . S
C1585 C1587 1.389 . S
C1586 H1559 0.950 . S
C1586 C1572 1.377 . S
C1586 C1585 1.373 . S
C1587 C1571 1.377 . S
C1587 C1585 1.389 . S
C1587 C1588 1.524 . S
C1588 C1587 1.524 . S
C1588 C1589 1.397 . S
C1588 C1593 1.363 . S
C1589 H1560 0.950 . S
C1589 C1588 1.397 . S
C1589 C1590 1.334 . S
C1590 H1561 0.950 . S
C1590 C1589 1.334 . S
C1590 C1591 1.287 . S
C1591 C1590 1.287 . S
C1591 C1592 1.524 . S
C1591 H1594 0.999 . S
C1592 H1562 0.950 . S
C1592 C1591 1.524 . S
C1592 C1593 1.415 . S
C1593 H1563 0.950 . S
C1593 C1588 1.363 . S
C1593 C1592 1.415 . S
H1594 C1591 0.999 . S
H1595 C1576 0.913 . S
H1596 C1614 0.951 . S
H1597 C1616 0.951 . S
H1598 C1618 0.950 . S
H1599 C1619 0.950 . S
H1600 C1621 0.950 . S
H1601 C1624 0.950 . S
H1602 C1625 0.950 . S
H1603 C1627 0.950 . S
H1604 C1628 0.950 . S
H1605 C1629 0.951 . S
H1606 C1631 0.951 . S
H1607 C1633 0.950 . S
H1608 C1634 0.950 . S
H1609 C1636 0.950 . S
H1610 C1639 0.950 . S
H1611 C1640 0.950 . S
H1612 C1642 0.950 . S
H1613 C1643 0.950 . S
C1614 H1596 0.951 . S
C1614 C1615 1.366 . S
C1614 C1616 1.388 . S
C1615 C1614 1.366 . S
C1615 C1619 1.385 . S
C1616 H1597 0.951 . S
C1616 C1614 1.388 . S
C1616 C1617 1.366 . S
C1617 C1616 1.366 . S
C1617 C1618 1.414 . S
C1617 C1620 1.499 . S
C1618 H1598 0.950 . S
C1618 C1617 1.414 . S
C1618 C1619 1.374 . S
C1619 H1599 0.950 . S
C1619 C1615 1.385 . S
C1619 C1618 1.374 . S
C1620 C1617 1.499 . S
C1620 C1621 1.373 . S
C1620 C1622 1.389 . S
C1621 H1600 0.950 . S
C1621 C1620 1.373 . S
C1621 C1637 1.377 . S
C1622 C1620 1.389 . S
C1622 C1623 1.524 . S
C1622 C1636 1.377 . S
C1623 C1622 1.524 . S
C1623 C1624 1.397 . S
C1623 C1628 1.363 . S
C1624 H1601 0.950 . S
C1624 C1623 1.397 . S
C1624 C1625 1.334 . S
C1625 H1602 0.950 . S
C1625 C1624 1.334 . S
C1625 C1626 1.287 . S
C1626 C1625 1.287 . S
C1626 C1627 1.524 . S
C1626 H1645 0.913 . S
C1627 H1603 0.950 . S
C1627 C1626 1.524 . S
C1627 C1628 1.415 . S
C1628 H1604 0.950 . S
C1628 C1623 1.363 . S
C1628 C1627 1.415 . S
C1629 H1605 0.951 . S
C1629 C1630 1.366 . S
C1629 C1631 1.388 . S
C1630 C1629 1.366 . S
C1630 C1634 1.385 . S
C1631 H1606 0.951 . S
C1631 C1629 1.388 . S
C1631 C1632 1.366 . S
C1632 C1631 1.366 . S
C1632 C1633 1.414 . S
C1632 C1635 1.499 . S
C1633 H1607 0.950 . S
C1633 C1632 1.414 . S
C1633 C1634 1.374 . S
C1634 H1608 0.950 . S
C1634 C1630 1.385 . S
C1634 C1633 1.374 . S
C1635 C1632 1.499 . S
C1635 C1636 1.373 . S
C1635 C1637 1.389 . S
C1636 H1609 0.950 . S
C1636 C1622 1.377 . S
C1636 C1635 1.373 . S
C1637 C1621 1.377 . S
C1637 C1635 1.389 . S
C1637 C1638 1.524 . S
C1638 C1637 1.524 . S
C1638 C1639 1.397 . S
C1638 C1643 1.363 . S
C1639 H1610 0.950 . S
C1639 C1638 1.397 . S
C1639 C1640 1.334 . S
C1640 H1611 0.950 . S
C1640 C1639 1.334 . S
C1640 C1641 1.287 . S
C1641 C1640 1.287 . S
C1641 C1642 1.524 . S
C1641 H1644 0.999 . S
C1642 H1612 0.950 . S
C1642 C1641 1.524 . S
C1642 C1643 1.415 . S
C1643 H1613 0.950 . S
C1643 C1638 1.363 . S
C1643 C1642 1.415 . S
H1644 C1641 0.999 . S
H1645 C1626 0.913 . S
H1646 C1664 0.951 . S
H1647 C1666 0.951 . S
H1648 C1668 0.950 . S
H1649 C1669 0.950 . S
H1650 C1671 0.950 . S
H1651 C1674 0.950 . S
H1652 C1675 0.950 . S
H1653 C1677 0.950 . S
H1654 C1678 0.950 . S
H1655 C1679 0.951 . S
H1656 C1681 0.951 . S
H1657 C1683 0.950 . S
H1658 C1684 0.950 . S
H1659 C1686 0.950 . S
H1660 C1689 0.950 . S
H1661 C1690 0.950 . S
H1662 C1692 0.950 . S
H1663 C1693 0.950 . S
C1664 H1646 0.951 . S
C1664 C1665 1.366 . S
C1664 C1666 1.388 . S
C1665 C1664 1.366 . S
C1665 C1669 1.385 . S
C1666 H1647 0.951 . S
C1666 C1664 1.388 . S
C1666 C1667 1.366 . S
C1667 C1666 1.366 . S
C1667 C1668 1.414 . S
C1667 C1670 1.499 . S
C1668 H1648 0.950 . S
C1668 C1667 1.414 . S
C1668 C1669 1.374 . S
C1669 H1649 0.950 . S
C1669 C1665 1.385 . S
C1669 C1668 1.374 . S
C1670 C1667 1.499 . S
C1670 C1671 1.373 . S
C1670 C1672 1.389 . S
C1671 H1650 0.950 . S
C1671 C1670 1.373 . S
C1671 C1687 1.377 . S
C1672 C1670 1.389 . S
C1672 C1673 1.524 . S
C1672 C1686 1.377 . S
C1673 C1672 1.524 . S
C1673 C1674 1.397 . S
C1673 C1678 1.363 . S
C1674 H1651 0.950 . S
C1674 C1673 1.397 . S
C1674 C1675 1.334 . S
C1675 H1652 0.950 . S
C1675 C1674 1.334 . S
C1675 C1676 1.287 . S
C1676 C1675 1.287 . S
C1676 C1677 1.524 . S
C1676 H1695 0.913 . S
C1677 H1653 0.950 . S
C1677 C1676 1.524 . S
C1677 C1678 1.415 . S
C1678 H1654 0.950 . S
C1678 C1673 1.363 . S
C1678 C1677 1.415 . S
C1679 H1655 0.951 . S
C1679 C1680 1.366 . S
C1679 C1681 1.388 . S
C1680 C1679 1.366 . S
C1680 C1684 1.385 . S
C1681 H1656 0.951 . S
C1681 C1679 1.388 . S
C1681 C1682 1.366 . S
C1682 C1681 1.366 . S
C1682 C1683 1.414 . S
C1682 C1685 1.499 . S
C1683 H1657 0.950 . S
C1683 C1682 1.414 . S
C1683 C1684 1.374 . S
C1684 H1658 0.950 . S
C1684 C1680 1.385 . S
C1684 C1683 1.374 . S
C1685 C1682 1.499 . S
C1685 C1686 1.373 . S
C1685 C1687 1.389 . S
C1686 H1659 0.950 . S
C1686 C1672 1.377 . S
C1686 C1685 1.373 . S
C1687 C1671 1.377 . S
C1687 C1685 1.389 . S
C1687 C1688 1.524 . S
C1688 C1687 1.524 . S
C1688 C1689 1.397 . S
C1688 C1693 1.363 . S
C1689 H1660 0.950 . S
C1689 C1688 1.397 . S
C1689 C1690 1.334 . S
C1690 H1661 0.950 . S
C1690 C1689 1.334 . S
C1690 C1691 1.287 . S
C1691 C1690 1.287 . S
C1691 C1692 1.524 . S
C1691 H1694 0.999 . S
C1692 H1662 0.950 . S
C1692 C1691 1.524 . S
C1692 C1693 1.415 . S
C1693 H1663 0.950 . S
C1693 C1688 1.363 . S
C1693 C1692 1.415 . S
H1694 C1691 0.999 . S
H1695 C1676 0.913 . S
H1696 C1714 0.951 . S
H1697 C1716 0.951 . S
H1698 C1718 0.950 . S
H1699 C1719 0.950 . S
H1700 C1721 0.950 . S
H1701 C1724 0.950 . S
H1702 C1725 0.950 . S
H1703 C1727 0.950 . S
H1704 C1728 0.950 . S
H1705 C1729 0.951 . S
H1706 C1731 0.951 . S
H1707 C1733 0.950 . S
H1708 C1734 0.950 . S
H1709 C1736 0.950 . S
H1710 C1739 0.950 . S
H1711 C1740 0.950 . S
H1712 C1742 0.950 . S
H1713 C1743 0.950 . S
C1714 H1696 0.951 . S
C1714 C1715 1.366 . S
C1714 C1716 1.388 . S
C1715 C1714 1.366 . S
C1715 C1719 1.385 . S
C1716 H1697 0.951 . S
C1716 C1714 1.388 . S
C1716 C1717 1.366 . S
C1717 C1716 1.366 . S
C1717 C1718 1.414 . S
C1717 C1720 1.499 . S
C1718 H1698 0.950 . S
C1718 C1717 1.414 . S
C1718 C1719 1.374 . S
C1719 H1699 0.950 . S
C1719 C1715 1.385 . S
C1719 C1718 1.374 . S
C1720 C1717 1.499 . S
C1720 C1721 1.373 . S
C1720 C1722 1.389 . S
C1721 H1700 0.950 . S
C1721 C1720 1.373 . S
C1721 C1737 1.377 . S
C1722 C1720 1.389 . S
C1722 C1723 1.524 . S
C1722 C1736 1.377 . S
C1723 C1722 1.524 . S
C1723 C1724 1.397 . S
C1723 C1728 1.363 . S
C1724 H1701 0.950 . S
C1724 C1723 1.397 . S
C1724 C1725 1.334 . S
C1725 H1702 0.950 . S
C1725 C1724 1.334 . S
C1725 C1726 1.287 . S
C1726 C1725 1.287 . S
C1726 C1727 1.524 . S
C1726 H1745 0.913 . S
C1727 H1703 0.950 . S
C1727 C1726 1.524 . S
C1727 C1728 1.415 . S
C1728 H1704 0.950 . S
C1728 C1723 1.363 . S
C1728 C1727 1.415 . S
C1729 H1705 0.951 . S
C1729 C1730 1.366 . S
C1729 C1731 1.388 . S
C1730 C1729 1.366 . S
C1730 C1734 1.385 . S
C1731 H1706 0.951 . S
C1731 C1729 1.388 . S
C1731 C1732 1.366 . S
C1732 C1731 1.366 . S
C1732 C1733 1.414 . S
C1732 C1735 1.499 . S
C1733 H1707 0.950 . S
C1733 C1732 1.414 . S
C1733 C1734 1.374 . S
C1734 H1708 0.950 . S
C1734 C1730 1.385 . S
C1734 C1733 1.374 . S
C1735 C1732 1.499 . S
C1735 C1736 1.373 . S
C1735 C1737 1.389 . S
C1736 H1709 0.950 . S
C1736 C1722 1.377 . S
C1736 C1735 1.373 . S
C1737 C1721 1.377 . S
C1737 C1735 1.389 . S
C1737 C1738 1.524 . S
C1738 C1737 1.524 . S
C1738 C1739 1.397 . S
C1738 C1743 1.363 . S
C1739 H1710 0.950 . S
C1739 C1738 1.397 . S
C1739 C1740 1.334 . S
C1740 H1711 0.950 . S
C1740 C1739 1.334 . S
C1740 C1741 1.287 . S
C1741 C1740 1.287 . S
C1741 C1742 1.524 . S
C1741 H1744 0.999 . S
C1742 H1712 0.950 . S
C1742 C1741 1.524 . S
C1742 C1743 1.415 . S
C1743 H1713 0.950 . S
C1743 C1738 1.363 . S
C1743 C1742 1.415 . S
H1744 C1741 0.999 . S
H1745 C1726 0.913 . S
H1746 C1764 0.951 . S
H1747 C1766 0.951 . S
H1748 C1768 0.950 . S
H1749 C1769 0.950 . S
H1750 C1771 0.950 . S
H1751 C1774 0.950 . S
H1752 C1775 0.950 . S
H1753 C1777 0.950 . S
H1754 C1778 0.950 . S
H1755 C1779 0.951 . S
H1756 C1781 0.951 . S
H1757 C1783 0.950 . S
H1758 C1784 0.950 . S
H1759 C1786 0.950 . S
H1760 C1789 0.950 . S
H1761 C1790 0.950 . S
H1762 C1792 0.950 . S
H1763 C1793 0.950 . S
C1764 H1746 0.951 . S
C1764 C1765 1.366 . S
C1764 C1766 1.388 . S
C1765 C1764 1.366 . S
C1765 C1769 1.385 . S
C1766 H1747 0.951 . S
C1766 C1764 1.388 . S
C1766 C1767 1.366 . S
C1767 C1766 1.366 . S
C1767 C1768 1.414 . S
C1767 C1770 1.499 . S
C1768 H1748 0.950 . S
C1768 C1767 1.414 . S
C1768 C1769 1.374 . S
C1769 H1749 0.950 . S
C1769 C1765 1.385 . S
C1769 C1768 1.374 . S
C1770 C1767 1.499 . S
C1770 C1771 1.373 . S
C1770 C1772 1.389 . S
C1771 H1750 0.950 . S
C1771 C1770 1.373 . S
C1771 C1787 1.377 . S
C1772 C1770 1.389 . S
C1772 C1773 1.524 . S
C1772 C1786 1.377 . S
C1773 C1772 1.524 . S
C1773 C1774 1.397 . S
C1773 C1778 1.363 . S
C1774 H1751 0.950 . S
C1774 C1773 1.397 . S
C1774 C1775 1.334 . S
C1775 H1752 0.950 . S
C1775 C1774 1.334 . S
C1775 C1776 1.287 . S
C1776 C1775 1.287 . S
C1776 C1777 1.524 . S
C1776 H1795 0.913 . S
C1777 H1753 0.950 . S
C1777 C1776 1.524 . S
C1777 C1778 1.415 . S
C1778 H1754 0.950 . S
C1778 C1773 1.363 . S
C1778 C1777 1.415 . S
C1779 H1755 0.951 . S
C1779 C1780 1.366 . S
C1779 C1781 1.388 . S
C1780 C1779 1.366 . S
C1780 C1784 1.385 . S
C1781 H1756 0.951 . S
C1781 C1779 1.388 . S
C1781 C1782 1.366 . S
C1782 C1781 1.366 . S
C1782 C1783 1.414 . S
C1782 C1785 1.499 . S
C1783 H1757 0.950 . S
C1783 C1782 1.414 . S
C1783 C1784 1.374 . S
C1784 H1758 0.950 . S
C1784 C1780 1.385 . S
C1784 C1783 1.374 . S
C1785 C1782 1.499 . S
C1785 C1786 1.373 . S
C1785 C1787 1.389 . S
C1786 H1759 0.950 . S
C1786 C1772 1.377 . S
C1786 C1785 1.373 . S
C1787 C1771 1.377 . S
C1787 C1785 1.389 . S
C1787 C1788 1.524 . S
C1788 C1787 1.524 . S
C1788 C1789 1.397 . S
C1788 C1793 1.363 . S
C1789 H1760 0.950 . S
C1789 C1788 1.397 . S
C1789 C1790 1.334 . S
C1790 H1761 0.950 . S
C1790 C1789 1.334 . S
C1790 C1791 1.287 . S
C1791 C1790 1.287 . S
C1791 C1792 1.524 . S
C1791 H1794 0.999 . S
C1792 H1762 0.950 . S
C1792 C1791 1.524 . S
C1792 C1793 1.415 . S
C1793 H1763 0.950 . S
C1793 C1788 1.363 . S
C1793 C1792 1.415 . S
H1794 C1791 0.999 . S
H1795 C1776 0.913 . S
H1796 C1814 0.951 . S
H1797 C1816 0.951 . S
H1798 C1818 0.950 . S
H1799 C1819 0.950 . S
H1800 C1821 0.950 . S
H1801 C1824 0.950 . S
H1802 C1825 0.950 . S
H1803 C1827 0.950 . S
H1804 C1828 0.950 . S
H1805 C1829 0.951 . S
H1806 C1831 0.951 . S
H1807 C1833 0.950 . S
H1808 C1834 0.950 . S
H1809 C1836 0.950 . S
H1810 C1839 0.950 . S
H1811 C1840 0.950 . S
H1812 C1842 0.950 . S
H1813 C1843 0.950 . S
C1814 H1796 0.951 . S
C1814 C1815 1.366 . S
C1814 C1816 1.388 . S
C1815 C1814 1.366 . S
C1815 C1819 1.385 . S
C1816 H1797 0.951 . S
C1816 C1814 1.388 . S
C1816 C1817 1.366 . S
C1817 C1816 1.366 . S
C1817 C1818 1.414 . S
C1817 C1820 1.499 . S
C1818 H1798 0.950 . S
C1818 C1817 1.414 . S
C1818 C1819 1.374 . S
C1819 H1799 0.950 . S
C1819 C1815 1.385 . S
C1819 C1818 1.374 . S
C1820 C1817 1.499 . S
C1820 C1821 1.373 . S
C1820 C1822 1.389 . S
C1821 H1800 0.950 . S
C1821 C1820 1.373 . S
C1821 C1837 1.377 . S
C1822 C1820 1.389 . S
C1822 C1823 1.524 . S
C1822 C1836 1.377 . S
C1823 C1822 1.524 . S
C1823 C1824 1.397 . S
C1823 C1828 1.363 . S
C1824 H1801 0.950 . S
C1824 C1823 1.397 . S
C1824 C1825 1.334 . S
C1825 H1802 0.950 . S
C1825 C1824 1.334 . S
C1825 C1826 1.287 . S
C1826 C1825 1.287 . S
C1826 C1827 1.524 . S
C1826 H1845 0.913 . S
C1827 H1803 0.950 . S
C1827 C1826 1.524 . S
C1827 C1828 1.415 . S
C1828 H1804 0.950 . S
C1828 C1823 1.363 . S
C1828 C1827 1.415 . S
C1829 H1805 0.951 . S
C1829 C1830 1.366 . S
C1829 C1831 1.388 . S
C1830 C1829 1.366 . S
C1830 C1834 1.385 . S
C1831 H1806 0.951 . S
C1831 C1829 1.388 . S
C1831 C1832 1.366 . S
C1832 C1831 1.366 . S
C1832 C1833 1.414 . S
C1832 C1835 1.499 . S
C1833 H1807 0.950 . S
C1833 C1832 1.414 . S
C1833 C1834 1.374 . S
C1834 H1808 0.950 . S
C1834 C1830 1.385 . S
C1834 C1833 1.374 . S
C1835 C1832 1.499 . S
C1835 C1836 1.373 . S
C1835 C1837 1.389 . S
C1836 H1809 0.950 . S
C1836 C1822 1.377 . S
C1836 C1835 1.373 . S
C1837 C1821 1.377 . S
C1837 C1835 1.389 . S
C1837 C1838 1.524 . S
C1838 C1837 1.524 . S
C1838 C1839 1.397 . S
C1838 C1843 1.363 . S
C1839 H1810 0.950 . S
C1839 C1838 1.397 . S
C1839 C1840 1.334 . S
C1840 H1811 0.950 . S
C1840 C1839 1.334 . S
C1840 C1841 1.287 . S
C1841 C1840 1.287 . S
C1841 C1842 1.524 . S
C1841 H1844 0.999 . S
C1842 H1812 0.950 . S
C1842 C1841 1.524 . S
C1842 C1843 1.415 . S
C1843 H1813 0.950 . S
C1843 C1838 1.363 . S
C1843 C1842 1.415 . S
H1844 C1841 0.999 . S
H1845 C1826 0.913 . S
H1846 C1864 0.951 . S
H1847 C1866 0.951 . S
H1848 C1868 0.950 . S
H1849 C1869 0.950 . S
H1850 C1871 0.950 . S
H1851 C1874 0.950 . S
H1852 C1875 0.950 . S
H1853 C1877 0.950 . S
H1854 C1878 0.950 . S
H1855 C1879 0.951 . S
H1856 C1881 0.951 . S
H1857 C1883 0.950 . S
H1858 C1884 0.950 . S
H1859 C1886 0.950 . S
H1860 C1889 0.950 . S
H1861 C1890 0.950 . S
H1862 C1892 0.950 . S
H1863 C1893 0.950 . S
C1864 H1846 0.951 . S
C1864 C1865 1.366 . S
C1864 C1866 1.388 . S
C1865 C1864 1.366 . S
C1865 C1869 1.385 . S
C1866 H1847 0.951 . S
C1866 C1864 1.388 . S
C1866 C1867 1.366 . S
C1867 C1866 1.366 . S
C1867 C1868 1.414 . S
C1867 C1870 1.499 . S
C1868 H1848 0.950 . S
C1868 C1867 1.414 . S
C1868 C1869 1.374 . S
C1869 H1849 0.950 . S
C1869 C1865 1.385 . S
C1869 C1868 1.374 . S
C1870 C1867 1.499 . S
C1870 C1871 1.373 . S
C1870 C1872 1.389 . S
C1871 H1850 0.950 . S
C1871 C1870 1.373 . S
C1871 C1887 1.377 . S
C1872 C1870 1.389 . S
C1872 C1873 1.524 . S
C1872 C1886 1.377 . S
C1873 C1872 1.524 . S
C1873 C1874 1.397 . S
C1873 C1878 1.363 . S
C1874 H1851 0.950 . S
C1874 C1873 1.397 . S
C1874 C1875 1.334 . S
C1875 H1852 0.950 . S
C1875 C1874 1.334 . S
C1875 C1876 1.287 . S
C1876 C1875 1.287 . S
C1876 C1877 1.524 . S
C1876 H1895 0.913 . S
C1877 H1853 0.950 . S
C1877 C1876 1.524 . S
C1877 C1878 1.415 . S
C1878 H1854 0.950 . S
C1878 C1873 1.363 . S
C1878 C1877 1.415 . S
C1879 H1855 0.951 . S
C1879 C1880 1.366 . S
C1879 C1881 1.388 . S
C1880 C1879 1.366 . S
C1880 C1884 1.385 . S
C1881 H1856 0.951 . S
C1881 C1879 1.388 . S
C1881 C1882 1.366 . S
C1882 C1881 1.366 . S
C1882 C1883 1.414 . S
C1882 C1885 1.499 . S
C1883 H1857 0.950 . S
C1883 C1882 1.414 . S
C1883 C1884 1.374 . S
C1884 H1858 0.950 . S
C1884 C1880 1.385 . S
C1884 C1883 1.374 . S
C1885 C1882 1.499 . S
C1885 C1886 1.373 . S
C1885 C1887 1.389 . S
C1886 H1859 0.950 . S
C1886 C1872 1.377 . S
C1886 C1885 1.373 . S
C1887 C1871 1.377 . S
C1887 C1885 1.389 . S
C1887 C1888 1.524 . S
C1888 C1887 1.524 . S
C1888 C1889 1.397 . S
C1888 C1893 1.363 . S
C1889 H1860 0.950 . S
C1889 C1888 1.397 . S
C1889 C1890 1.334 . S
C1890 H1861 0.950 . S
C1890 C1889 1.334 . S
C1890 C1891 1.287 . S
C1891 C1890 1.287 . S
C1891 C1892 1.524 . S
C1891 H1894 0.999 . S
C1892 H1862 0.950 . S
C1892 C1891 1.524 . S
C1892 C1893 1.415 . S
C1893 H1863 0.950 . S
C1893 C1888 1.363 . S
C1893 C1892 1.415 . S
H1894 C1891 0.999 . S
H1895 C1876 0.913 . S
C415 N2 1.859 . S
C430 N101 1.858 . S
C465 N134 1.858 . S
C480 N35 1.859 . S
C515 N167 1.859 . S
C530 N68 1.858 . S
C565 N299 1.854 . S
C580 N200 1.855 . S
C615 N332 1.855 . S
C630 N233 1.854 . S
C665 N266 1.854 . S
C680 N365 1.855 . S
C715 C21 0.167 . S
C730 N178 0.423 . S
C765 N13 0.425 . S
C780 C54 0.170 . S
C815 C87 0.168 . S
C830 N46 0.422 . S
C865 N79 0.425 . S
C880 C120 0.170 . S
C915 N112 0.427 . S
C930 C153 0.168 . S
C965 N145 0.422 . S
C980 C186 0.168 . S
C1015 N244 0.422 . S
C1030 C219 0.168 . S
C1065 N277 0.423 . S
C1080 C252 0.166 . S
C1115 N310 0.422 . S
C1130 C285 0.169 . S
C1165 C318 0.169 . S
C1180 N343 0.426 . S
C1215 C351 0.169 . S
C1230 N376 0.426 . S
C1265 C384 0.166 . S
C1280 N211 0.424 . S
C1315 C271 1.601 . S
C1330 C7 1.600 . S
C1365 C40 1.601 . S
C1380 C304 1.600 . S
C1415 C73 1.600 . S
C1430 C337 1.600 . S
C1465 C106 1.600 . S
C1480 C370 1.600 . S
C1515 C205 1.600 . S
C1530 C139 1.601 . S
C1565 C172 1.601 . S
C1580 C238 1.600 . S
C1615 C381 1.454 . S
C1630 C117 1.453 . S
C1665 C216 1.453 . S
C1680 C150 1.453 . S
C1715 C249 1.453 . S
C1730 C183 1.453 . S
C1765 C18 1.453 . S
C1780 C282 1.453 . S
C1815 C51 1.453 . S
C1830 C315 1.453 . S
C1865 C84 1.453 . S
C1880 C348 1.453 . S
