# Generated by pormake.
# Topology ilc, (8)-cn, num edge types: 1
# Building blocks:
#     Node 0, Type 0, BuildingBlock: TAGTUT_clean_sbu_1, # of connection points: 8
#     Node 1, Type 0, BuildingBlock: TAGTUT_clean_sbu_1, # of connection points: 8
#     Node 2, Type 0, BuildingBlock: TAGTUT_clean_sbu_1, # of connection points: 8
#     Edge 3, Type (0, 0), BuildingBlock: TEMPAE_clean_linker_10, # of connection points: 2
#     Edge 4, Type (0, 0), BuildingBlock: TEMPAE_clean_linker_10, # of connection points: 2
#     Edge 5, Type (0, 0), BuildingBlock: TEMPAE_clean_linker_10, # of connection points: 2
#     Edge 6, Type (0, 0), BuildingBlock: TEMPAE_clean_linker_10, # of connection points: 2
#     Edge 7, Type (0, 0), BuildingBlock: TEMPAE_clean_linker_10, # of connection points: 2
#     Edge 8, Type (0, 0), BuildingBlock: TEMPAE_clean_linker_10, # of connection points: 2
#     Edge 9, Type (0, 0), BuildingBlock: TEMPAE_clean_linker_10, # of connection points: 2
#     Edge 10, Type (0, 0), BuildingBlock: TEMPAE_clean_linker_10, # of connection points: 2
#     Edge 11, Type (0, 0), BuildingBlock: TEMPAE_clean_linker_10, # of connection points: 2
#     Edge 12, Type (0, 0), BuildingBlock: TEMPAE_clean_linker_10, # of connection points: 2
#     Edge 13, Type (0, 0), BuildingBlock: TEMPAE_clean_linker_10, # of connection points: 2
#     Edge 14, Type (0, 0), BuildingBlock: TEMPAE_clean_linker_10, # of connection points: 2
# Relax obj value: 0.134
# Max RMSD: 0.140
# Mean RMSD: 0.140
data_MOF--net-ilc--node1-TAGTUT_clean_sbu_1--edge1-TEMPAE_clean_linker_10
_symmetry_space_group_name_H-M    P1
_symmetry_Int_Tables_number       1
_symmetry_cell_setting            triclinic
loop_
_symmetry_equiv_pos_as_xyz
'x, y, z'
_cell_length_a     26.213279
_cell_length_b     28.630422
_cell_length_c     15.150541
_cell_angle_alpha  99.196895
_cell_angle_beta   85.863873
_cell_angle_gamma 135.05681
loop_
_atom_site_label
_atom_site_type_symbol
_atom_site_fract_x
_atom_site_fract_y
_atom_site_fract_z
_atom_type_partial_charge
C0 C 0.16242 0.96744 0.15901 0.0
C1 C 0.12359 0.09216 0.22871 0.0
C2 C 0.86877 0.90564 0.06016 0.0
Mg3 Mg 0.18304 0.07033 0.07111 0.0
O4 O 0.08655 0.99335 0.02513 0.0
Mg5 Mg 1.01338 0.93448 0.11088 0.0
Mg6 Mg 0.03106 1.00822 -0.02555 0.0
O7 O 0.97787 0.02482 0.92445 0.0
Mg8 Mg 0.88182 0.9538 0.87933 0.0
Mg9 Mg 0.05152 0.08939 0.84393 0.0
C10 C 0.18957 0.10577 0.88036 0.0
C11 C 0.10866 0.16206 0.04861 0.0
O12 O 0.09376 0.93014 0.1556 0.0
O13 O 0.20738 0.02344 0.1293 0.0
O14 O 0.06883 0.0285 0.21443 0.0
O15 O 0.17633 0.12317 0.17816 0.0
O16 O 0.22252 0.11105 0.94611 0.0
O17 O 0.12136 0.07075 0.87922 0.0
C18 C 0.95574 0.85547 0.90516 0.0
O19 O 0.97327 0.90713 0.88457 0.0
O20 O 0.96538 0.85269 -0.01424 0.0
O21 O 0.97292 0.10038 0.81502 0.0
O22 O 0.86065 1.00979 0.8498 0.0
O23 O 0.99422 1.00496 0.72603 0.0
C24 C 0.90529 0.06649 0.82204 0.0
O25 O 0.88226 0.91098 0.75199 0.0
O26 O 0.83779 0.90124 -0.00704 0.0
C27 C 0.93277 0.94589 0.69926 0.0
O28 O 0.93805 0.94437 0.0667 0.0
O29 O 0.08797 0.10854 0.06622 0.0
O30 O 0.10161 0.16775 0.96947 0.0
C31 C 0.75345 0.22733 0.47473 0.0
C32 C 0.77888 0.39132 0.5629 0.0
C33 C 0.52243 0.24542 0.37656 0.0
Mg34 Mg 0.81463 0.35173 0.39617 0.0
O35 O 0.71997 0.29805 0.35621 0.0
Mg36 Mg 0.63917 0.24191 0.43581 0.0
Mg37 Mg 0.68796 0.33427 0.30565 0.0
O38 O 0.65078 0.36459 0.24998 0.0
Mg39 Mg 0.55799 0.29418 0.18941 0.0
Mg40 Mg 0.73451 0.42407 0.17452 0.0
C41 C 0.85082 0.41256 0.22152 0.0
C42 C 0.78065 0.49114 0.38553 0.0
O43 O 0.69182 0.20803 0.4777 0.0
O44 O 0.80809 0.2801 0.44261 0.0
O45 O 0.71337 0.33295 0.54877 0.0
O46 O 0.8254 0.4143 0.50388 0.0
O47 O 0.86832 0.39766 0.28018 0.0
O48 O 0.79033 0.396 0.22403 0.0
C49 C 0.59175 0.1766 0.22679 0.0
O50 O 0.62736 0.23565 0.21103 0.0
O51 O 0.58326 0.16339 0.30691 0.0
O52 O 0.66924 0.44381 0.12248 0.0
O53 O 0.55081 0.35498 0.1394 0.0
O54 O 0.6799 0.33432 0.06753 0.0
C55 C 0.60234 0.4126 0.11599 0.0
O56 O 0.56507 0.24038 0.08256 0.0
O57 O 0.50054 0.24561 0.30369 0.0
C58 C 0.62377 0.27211 0.04306 0.0
O59 O 0.58893 0.27665 0.39042 0.0
O60 O 0.75006 0.43348 0.40196 0.0
O61 O 0.78305 0.50193 0.30506 0.0
C62 C 0.44354 0.58855 0.8269 0.0
C63 C 0.44103 0.73711 0.90708 0.0
C64 C 0.21029 0.61123 0.7364 0.0
Mg65 Mg 0.49414 0.70811 0.74725 0.0
O66 O 0.39899 0.64217 0.69524 0.0
Mg67 Mg 0.31785 0.58704 0.77631 0.0
Mg68 Mg 0.36612 0.67706 0.64127 0.0
O69 O 0.33666 0.71529 0.59039 0.0
Mg70 Mg 0.24175 0.66615 0.55658 0.0
Mg71 Mg 0.41371 0.76627 0.50463 0.0
C72 C 0.52383 0.75254 0.55527 0.0
C73 C 0.47728 0.84015 0.70936 0.0
O74 O 0.37745 0.55973 0.82193 0.0
O75 O 0.49598 0.64471 0.80019 0.0
O76 O 0.38044 0.67637 0.88686 0.0
O77 O 0.49518 0.76433 0.85913 0.0
O78 O 0.54697 0.75203 0.62681 0.0
O79 O 0.4585 0.72515 0.54596 0.0
C80 C 0.26284 0.51717 0.56732 0.0
O81 O 0.29442 0.57486 0.54967 0.0
O82 O 0.26271 0.5078 0.64781 0.0
O83 O 0.36655 0.80719 0.47142 0.0
O84 O 0.25411 0.74298 0.51929 0.0
O85 O 0.33343 0.67641 0.39326 0.0
C86 C 0.30834 0.79355 0.48344 0.0
O87 O 0.22091 0.6021 0.44048 0.0
O88 O 0.19222 0.62529 0.67719 0.0
C89 C 0.26553 0.62254 0.3792 0.0
O90 O 0.26788 0.62277 0.73091 0.0
O91 O 0.44076 0.78227 0.73195 0.0
O92 O 0.47866 0.84725 0.62744 0.0
C93 C 0.93829 0.9322 0.53673 0.0
C94 C 0.91088 0.94194 0.61109 0.0
C95 C 0.96567 0.97205 0.46971 0.0
C96 C 0.97265 0.02678 0.48418 0.0
C97 C 0.93595 0.03019 0.55279 0.0
C98 C 0.89923 0.98283 0.61067 0.0
C99 C 0.99303 0.95948 0.38816 0.0
C100 C 0.94126 0.08687 0.57267 0.0
C101 C 0.14599 0.14381 0.38312 0.0
C102 C 0.11707 0.129 0.29766 0.0
C103 C 0.10084 0.12202 0.45477 0.0
C104 C 1.02703 0.084 0.43639 0.0
C105 C 1.00568 0.08761 0.35719 0.0
C106 C 0.0534 0.11341 0.28858 0.0
C107 C 0.12802 0.12802 0.54439 0.0
C108 C 0.92933 0.05369 0.33876 0.0
H109 H 0.94519 0.89897 0.53553 0.0
H110 H 0.87445 0.98742 0.66673 0.0
H111 H 0.97457 0.96236 0.32754 0.0
H112 H 0.05302 0.99783 0.39279 0.0
H113 H 0.97296 0.90939 0.3808 0.0
H114 H 0.88634 0.06609 0.56588 0.0
H115 H 0.96267 0.11182 0.64264 0.0
H116 H 0.97709 0.12595 0.52924 0.0
H117 H 0.19771 0.1603 0.39097 0.0
H118 H 0.03322 0.10581 0.22251 0.0
H119 H 0.1232 0.08617 0.54363 0.0
H120 H 0.09617 0.12585 0.5992 0.0
H121 H 0.18596 0.17569 0.55844 0.0
H122 H 0.89132 0.99955 0.34196 0.0
H123 H 0.92172 0.06024 0.27226 0.0
H124 H 0.91505 0.07443 0.39018 0.0
C125 C 0.76777 0.40898 0.7211 0.0
C126 C 0.80815 0.41175 0.65395 0.0
C127 C 0.74632 0.37096 0.7881 0.0
C128 C 0.76307 0.33267 0.78353 0.0
C129 C 0.81662 0.34781 0.72596 0.0
C130 C 0.84383 0.39311 0.66722 0.0
C131 C 0.70417 0.37089 0.86098 0.0
C132 C 0.84152 0.31342 0.71903 0.0
C133 C 0.70261 0.26001 -0.01349 0.0
C134 C 0.63509 0.23753 -0.0231 0.0
C135 C 0.74638 0.28041 0.91407 0.0
C136 C 0.71856 0.27407 0.83174 0.0
C137 C 0.64242 0.22734 0.81685 0.0
C138 C 0.60072 0.21168 0.89165 0.0
C139 C 0.8235 0.3156 0.92985 0.0
C140 C 0.60839 0.20719 0.7248 0.0
H141 H 0.74458 0.42807 0.71413 0.0
H142 H 0.88007 0.40026 0.61769 0.0
H143 H 0.72055 0.36996 0.925 0.0
H144 H 0.71473 0.41642 0.86826 0.0
H145 H 0.64529 0.32696 0.84584 0.0
H146 H 0.89306 0.34591 0.75968 0.0
H147 H 0.80134 0.26421 0.74233 0.0
H148 H 0.85354 0.3065 0.64923 0.0
H149 H 0.72717 0.27574 0.05318 0.0
H150 H 0.54641 0.18991 0.88339 0.0
H151 H 0.86143 0.36249 0.90099 0.0
H152 H 0.82975 0.28248 0.89709 0.0
H153 H 0.83931 0.32741 0.00213 0.0
H154 H 0.6015 0.24008 0.71533 0.0
H155 H 0.55396 0.15495 0.71697 0.0
H156 H 0.64276 0.2117 0.67199 0.0
C157 C 0.38706 0.776 0.96602 0.0
C158 C 0.44023 0.77704 -0.02144 0.0
C159 C 0.33814 0.75706 0.03225 0.0
C160 C 0.34753 0.74421 0.11245 0.0
C161 C 0.41661 0.77124 0.13499 0.0
C162 C 0.4615 0.78415 0.06544 0.0
C163 C 0.27312 0.74325 0.0117 0.0
C164 C 0.43583 0.77266 0.22736 0.0
C165 C 0.22044 0.64846 0.28684 0.0
C166 C 0.23748 0.61215 0.2915 0.0
C167 C 0.24671 0.68716 0.21871 0.0
C168 C 0.28454 0.68379 0.1516 0.0
C169 C 0.27798 0.62943 0.14198 0.0
C170 C 0.2591 0.59695 0.21552 0.0
C171 C 0.23716 0.73325 0.22206 0.0
C172 C 0.29901 0.61118 0.05896 0.0
H173 H 0.37464 0.77597 0.8992 0.0
H174 H 0.50578 0.78931 0.07664 0.0
H175 H 0.2234 0.69244 0.02474 0.0
H176 H 0.27611 0.78018 0.05541 0.0
H177 H 0.27034 0.74817 0.9415 0.0
H178 H 0.4951 0.81468 0.24314 0.0
H179 H 0.40707 0.77787 0.27875 0.0
H180 H 0.42024 0.72547 0.2304 0.0
H181 H 0.1987 0.65634 0.34416 0.0
H182 H 0.26849 0.5658 0.21698 0.0
H183 H 0.28821 0.78324 0.2085 0.0
H184 H 0.21809 0.73829 0.28722 0.0
H185 H 0.19513 0.71186 0.16993 0.0
H186 H 0.26991 0.55781 0.05066 0.0
H187 H 0.35782 0.64207 0.06375 0.0
H188 H 0.28559 0.6195 -0.00066 0.0
C189 C 0.24653 0.83076 0.47677 0.0
C190 C 0.30025 0.83321 0.44697 0.0
C191 C 0.23019 0.8589 0.43298 0.0
C192 C 0.26603 0.88737 0.35506 0.0
C193 C 0.32289 0.89313 0.32768 0.0
C194 C 0.34068 0.86762 0.37543 0.0
C195 C 0.17304 0.85634 0.46842 0.0
C196 C 0.36243 0.92322 0.24529 0.0
C197 C 0.15539 0.88051 0.19351 0.0
C198 C 0.19118 0.94747 0.20479 0.0
C199 C 0.1809 0.86084 0.23949 0.0
C200 C 0.2422 0.90895 0.30085 0.0
C201 C 0.27904 0.97694 0.31152 0.0
C202 C 0.25347 0.9954 0.26265 0.0
C203 C 0.14366 0.78897 0.21969 0.0
C204 C 0.34412 0.0308 0.37607 0.0
H205 H 0.21617 0.80564 0.5334 0.0
H206 H 0.38246 0.86998 0.35215 0.0
H207 H 0.19352 0.90648 0.47395 0.0
H208 H 0.12463 0.82122 0.42106 0.0
H209 H 0.15624 0.83965 0.53508 0.0
H210 H 0.38888 0.9756 0.25393 0.0
H211 H 0.40421 0.92266 0.23123 0.0
H212 H 0.32312 0.89506 0.18651 0.0
H213 H 0.10797 0.84365 0.14759 0.0
H214 H 0.28106 0.04728 0.2721 0.0
H215 H 0.13226 0.7682 0.28226 0.0
H216 H 0.18019 0.78712 0.18198 0.0
H217 H 0.0921 0.7564 0.17866 0.0
H218 H 0.32774 0.04546 0.4346 0.0
H219 H 0.38651 0.07576 0.34356 0.0
H220 H 0.36831 0.01537 0.40113 0.0
C221 C 0.18932 0.39608 0.5054 0.0
C222 C 0.23319 0.46235 0.49114 0.0
C223 C 0.16691 0.34557 0.43429 0.0
C224 C 0.19015 0.36196 0.34715 0.0
C225 C 0.2338 0.42853 0.33227 0.0
C226 C 0.25394 0.47752 0.40394 0.0
C227 C 0.11922 0.27488 0.45259 0.0
C228 C 0.26027 0.4484 0.24072 0.0
C229 C 0.19377 0.25026 0.1781 0.0
C230 C 0.13171 0.2147 0.12313 0.0
C231 C 0.21313 0.29789 0.2519 0.0
C232 C 0.16902 0.30979 0.27115 0.0
C233 C 0.10617 0.27367 0.21543 0.0
C234 C 0.08866 0.227 0.14167 0.0
C235 C 0.281 0.33578 0.30886 0.0
C236 C 0.05714 0.28404 0.23402 0.0
H237 H 0.17291 0.38373 0.57233 0.0
H238 H 0.28818 0.52848 0.39189 0.0
H239 H 0.06959 0.23966 0.40725 0.0
H240 H 0.1481 0.25948 0.4388 0.0
H241 H 0.10304 0.26956 0.52294 0.0
H242 H 0.2996 0.50333 0.24216 0.0
H243 H 0.28653 0.43181 0.21321 0.0
H244 H 0.21368 0.42345 0.19401 0.0
H245 H 0.22732 0.24108 0.16306 0.0
H246 H 0.04025 0.19887 0.09932 0.0
H247 H 0.26747 0.32707 0.37925 0.0
H248 H 0.31864 0.39031 0.3086 0.0
H249 H 0.30935 0.32071 0.28495 0.0
H250 H 0.03781 0.27431 0.30263 0.0
H251 H 1.00941 0.25083 0.18554 0.0
H252 H 0.08756 0.33678 0.23094 0.0
C253 C 0.54633 0.7573 0.38987 0.0
C254 C 0.57272 0.77823 0.47963 0.0
C255 C 0.59227 0.77331 0.31903 0.0
C256 C 0.66617 0.81138 0.33854 0.0
C257 C 0.69249 0.83265 0.4288 0.0
C258 C 0.64617 0.8169 0.49766 0.0
C259 C 0.5617 0.74925 0.22357 0.0
C260 C 0.77021 0.87339 0.45405 0.0
C261 C 0.78812 0.82269 0.16679 0.0
C262 C 0.82579 0.88438 0.14016 0.0
C263 C 0.73459 0.79723 0.23001 0.0
C264 C 0.71806 0.83403 0.26604 0.0
C265 C 0.75625 0.89623 0.23878 0.0
C266 C 0.80902 0.9202 0.17602 0.0
C267 C 0.69557 0.73107 0.25836 0.0
C268 C 0.74176 0.93789 0.27633 0.0
H269 H 0.48953 0.72675 0.37492 0.0
H270 H 0.66766 0.83397 0.56651 0.0
H271 H 0.5818 0.72995 0.182 0.0
H272 H 0.50164 0.70919 0.21919 0.0
H273 H 0.57969 0.79181 0.19443 0.0
H274 H 0.7751 0.86547 0.52098 0.0
H275 H 0.79418 0.86095 0.40552 0.0
H276 H 0.80185 0.92695 0.45628 0.0
H277 H 0.79883 0.79361 0.13629 0.0
H278 H 0.83616 0.96666 0.15255 0.0
H279 H 0.70656 0.73853 0.33126 0.0
H280 H 0.71238 0.70726 0.22184 0.0
H281 H 0.63629 0.6964 0.24651 0.0
H282 H 0.68367 0.90822 0.26481 0.0
H283 H 0.77454 0.9842 0.24591 0.0
H284 H 0.7544 0.95235 0.34981 0.0
C285 C 0.72506 0.16077 0.59255 0.0
C286 C 0.76434 0.19192 0.51851 0.0
C287 C 0.74433 0.13877 0.64586 0.0
C288 C 0.80152 0.14437 0.62151 0.0
C289 C 0.83718 0.17054 0.54219 0.0
C290 C 0.81931 0.1954 0.49294 0.0
C291 C 0.70512 0.11206 0.72999 0.0
C292 C 0.89308 0.17101 0.50796 0.0
C293 C 0.91289 0.15409 0.78677 0.0
C294 C 0.87482 0.08673 0.78117 0.0
C295 C 0.88726 0.173 0.7388 0.0
C296 C 0.82482 0.12383 0.67927 0.0
C297 C 0.78578 0.05555 0.67448 0.0
C298 C 0.80991 0.03783 0.72784 0.0
C299 C 0.92694 0.24558 0.75183 0.0
C300 C 0.71981 1.00062 0.61144 0.0
H301 H 0.68238 0.15773 0.61264 0.0
H302 H 0.84867 0.21795 0.43445 0.0
H303 H 0.66555 0.05672 0.71826 0.0
H304 H 0.74353 0.13125 0.78619 0.0
H305 H 0.67524 0.12596 0.75026 0.0
H306 H 0.92104 0.19927 0.45079 0.0
H307 H 0.93437 0.19293 0.56163 0.0
H308 H 0.86569 0.11862 0.48508 0.0
H309 H 0.96257 0.19188 0.82871 0.0
H310 H 0.78023 0.98553 0.72293 0.0
H311 H 0.88859 0.24984 0.7714 0.0
H312 H 0.94947 0.26605 0.68821 0.0
H313 H 0.97189 0.27686 0.80422 0.0
H314 H 0.71626 0.95959 0.58729 0.0
H315 H 0.71961 0.01886 0.55227 0.0
H316 H 0.67051 0.97882 0.64795 0.0
C317 C 0.77478 0.52792 0.54395 0.0
C318 C 0.80915 0.54482 0.46278 0.0
C319 C 0.79771 0.57747 0.61674 0.0
C320 C 0.85841 0.64589 0.60983 0.0
C321 C 0.89487 0.66319 0.52892 0.0
C322 C 0.86894 0.61256 0.45582 0.0
C323 C 0.75567 0.55654 0.70023 0.0
C324 C 0.96162 0.73517 0.51978 0.0
C325 C 0.88181 0.78077 0.76199 0.0
C326 C 0.9279 0.79957 0.8323 0.0
C327 C 0.85788 0.73019 0.69016 0.0
C328 C 0.88268 0.69916 0.68666 0.0
C329 C 0.9299 0.71853 0.75724 0.0
C330 C 0.95086 0.76759 0.82989 0.0
C331 C 0.80564 0.70972 0.61829 0.0
C332 C 0.95971 0.68861 0.75498 0.0
H333 H 0.72821 0.47568 0.54968 0.0
H334 H 0.89613 0.62589 0.3936 0.0
H335 H 0.79121 0.57361 0.75875 0.0
H336 H 0.73578 0.58051 0.71442 0.0
H337 H 0.70863 0.50141 0.69409 0.0
H338 H 0.98522 0.74015 0.45379 0.0
H339 H 0.9484 0.76477 0.52808 0.0
H340 H 1.0032 0.75749 0.57339 0.0
H341 H 0.86368 0.80511 0.76377 0.0
H342 H 0.9874 0.78268 0.8834 0.0
H343 H 0.75635 0.65515 0.61197 0.0
H344 H 0.8305 0.71966 0.55264 0.0
H345 H 0.78935 0.73685 0.63258 0.0
H346 H 0.91496 0.63375 0.75384 0.0
H347 H 0.99758 0.71047 0.81355 0.0
H348 H 0.98866 0.69693 0.69283 0.0
C349 C 0.39825 0.18142 0.42831 0.0
C350 C 0.47041 0.21631 0.44869 0.0
C351 C 0.34952 0.16196 0.4953 0.0
C352 C 0.37306 0.17786 0.58583 0.0
C353 C 0.44527 0.21172 0.60735 0.0
C354 C 0.49303 0.23013 0.53837 0.0
C355 C 0.27328 0.12605 0.46913 0.0
C356 C 0.47232 0.22878 0.70312 0.0
C357 C 0.26927 0.18393 0.76937 0.0
C358 C 0.22629 0.12125 0.79589 0.0
C359 C 0.31607 0.20249 0.69921 0.0
C360 C 0.32145 0.1581 0.65737 0.0
C361 C 0.27673 0.09421 0.68322 0.0
C362 C 0.2293 0.07645 0.75154 0.0
C363 C 0.36188 0.27058 0.67245 0.0
C364 C 0.27999 0.04503 0.6402 0.0
H365 H 0.3797 0.17012 0.35938 0.0
H366 H 0.54858 0.25735 0.55505 0.0
H367 H 0.23363 0.07713 0.49362 0.0
H368 H 0.26292 0.15611 0.50113 0.0
H369 H 0.26335 0.11717 0.39549 0.0
H370 H 0.53232 0.26705 0.7104 0.0
H371 H 0.45322 0.2478 0.74818 0.0
H372 H 0.45081 0.18287 0.72584 0.0
H373 H 0.26807 0.21906 0.80528 0.0
H374 H 0.19672 0.02835 0.77352 0.0
H375 H 0.34301 0.29421 0.70028 0.0
H376 H 0.36125 0.26708 0.59846 0.0
H377 H 0.41878 0.30363 0.69743 0.0
H378 H 0.25904 0.02769 0.56935 0.0
H379 H 0.24741 1.00047 0.67459 0.0
H380 H 0.33676 0.06941 0.64051 0.0
C381 C 0.53079 0.43977 0.11873 0.0
C382 C 0.58228 0.44231 0.07794 0.0
C383 C 0.50604 0.46253 0.07996 0.0
C384 C 0.53152 0.48605 -0.00331 0.0
C385 C 0.58308 0.48805 0.9548 0.0
C386 C 0.60891 0.46724 -0.00312 0.0
C387 C 0.45309 0.46184 0.12841 0.0
C388 C 0.61013 0.51115 0.86492 0.0
C389 C 0.42036 0.49156 0.85862 0.0
C390 C 0.46251 0.56026 0.87236 0.0
C391 C 0.44223 0.46643 0.89845 0.0
C392 C 0.5064 0.51104 0.95513 0.0
C393 C 0.54737 0.58009 0.97172 0.0
C394 C 0.52551 0.60391 0.92907 0.0
C395 C 0.3979 0.39262 0.87803 0.0
C396 C 0.61458 0.62904 0.03415 0.0
H397 H 0.51016 0.42021 0.18145 0.0
H398 H 0.64773 0.46794 0.96472 0.0
H399 H 0.47603 0.51314 0.14104 0.0
H400 H 0.40224 0.42975 0.08629 0.0
H401 H 0.43969 0.4431 0.19346 0.0
H402 H 0.64453 0.50341 0.83768 0.0
H403 H 0.56381 0.48372 0.8161 0.0
H404 H 0.64223 0.56515 0.87122 0.0
H405 H 0.37179 0.45794 0.81456 0.0
H406 H 0.5576 0.65703 0.9408 0.0
H407 H 0.38117 0.37092 0.94092 0.0
H408 H 0.4313 0.38531 0.84432 0.0
H409 H 0.34866 0.36448 0.83435 0.0
H410 H 0.60317 0.61057 0.0989 0.0
H411 H 0.63553 0.6796 0.04756 0.0
H412 H 0.6577 0.6337 0.00449 0.0
C413 C 0.50671 0.94451 0.76643 0.0
C414 C 0.50849 0.89828 0.78013 0.0
C415 C 0.52434 0.99312 0.83703 0.0
C416 C 0.54213 0.99438 0.92401 0.0
C417 C 0.54851 0.95075 0.93677 0.0
C418 C 0.53333 0.90453 0.86408 0.0
C419 C 0.5222 0.04205 0.81907 0.0
C420 C 0.56863 0.95098 0.02789 0.0
C421 C 0.63503 0.14517 0.10583 0.0
C422 C 0.5765 0.12817 0.15097 0.0
C423 C 0.62465 0.10325 0.03048 0.0
C424 C 0.55373 0.0409 0.00178 0.0
C425 C 0.49415 0.0225 0.04888 0.0
C426 C 0.50627 0.06688 0.12267 0.0
C427 C 0.68967 0.12724 -0.01985 0.0
C428 C 0.41784 0.95554 0.0225 0.0
H429 H 0.48897 0.94124 0.70126 0.0
H430 H 0.54013 0.87278 0.87343 0.0
H431 H 0.47664 0.03144 0.85296 0.0
H432 H 0.57278 0.09364 0.84709 0.0
H433 H 0.51578 0.03978 0.74636 0.0
H434 H 0.58125 0.921 0.02421 0.0
H435 H 0.61621 1.00264 0.06025 0.0
H436 H 0.5228 0.92981 0.07166 0.0
H437 H 0.68949 0.19206 0.12942 0.0
H438 H 0.46115 0.05421 0.15742 0.0
H439 H 0.69016 0.14363 0.91835 0.0
H440 H 0.68738 0.08681 0.95988 0.0
H441 H 0.7413 0.17041 0.01996 0.0
H442 H 0.40662 0.9443 0.94899 0.0
H443 H 0.3771 0.95337 0.05545 0.0
H444 H 0.41107 0.91571 0.04203 0.0
C445 C 0.12438 0.5215 0.83291 0.0
C446 C 0.16316 0.58503 0.81284 0.0
C447 C 0.06868 0.49245 0.89344 0.0
C448 C 0.05431 0.52959 0.93906 0.0
C449 C 0.09459 0.59438 0.91894 0.0
C450 C 0.14593 0.61962 0.85387 0.0
C451 C 1.02467 0.42107 0.90449 0.0
C452 C 0.08459 0.63828 0.96464 0.0
C453 C 0.88718 0.45754 0.0736 0.0
C454 C 0.90375 0.44906 0.15162 0.0
C455 C 0.9357 0.48456 0.00396 0.0
C456 C 1.00234 0.50351 0.01257 0.0
C457 C 1.02074 0.49896 0.09397 0.0
C458 C 0.97157 0.4717 0.16144 0.0
C459 C 0.91362 0.49084 0.92118 0.0
C460 C 0.09235 0.52227 0.11058 0.0
H461 H 0.13456 0.4929 0.79762 0.0
H462 H 0.17319 0.66738 0.83484 0.0
H463 H 0.06063 0.41802 0.93048 0.0
H464 H 0.97969 0.40001 0.94936 0.0
H465 H 1.00176 0.38903 0.8379 0.0
H466 H 0.13637 0.69197 0.97242 0.0
H467 H 0.04774 0.63279 0.9215 0.0
H468 H 0.06256 0.62618 0.03168 0.0
H469 H 0.83546 0.441 0.06539 0.0
H470 H 0.9865 0.46727 0.22215 0.0
H471 H 0.93905 0.4892 0.8606 0.0
H472 H 0.92798 0.53828 0.93221 0.0
H473 H 0.85436 0.45048 0.9094 0.0
H474 H 0.09049 0.48365 0.07748 0.0
H475 H 0.10474 0.53026 0.18299 0.0
H476 H 0.13669 0.56924 0.0831 0.0
loop_
_geom_bond_atom_site_label_1
_geom_bond_atom_site_label_2
_geom_bond_distance
_geom_bond_site_symmetry_2
_ccdc_geom_bond_type
C0 O12 1.241 . S
C0 O13 1.280 . S
C1 O14 1.277 1_445 S
C1 O15 1.245 . S
C2 O26 1.247 1_554 S
C2 O28 1.289 . S
Mg3 O4 1.926 1_545 S
Mg3 O13 1.984 1_545 S
Mg3 O15 1.988 . S
Mg3 O16 2.061 . S
O4 Mg3 1.926 1_565 S
O4 Mg5 1.986 1_455 S
O4 Mg6 1.917 1_565 S
Mg5 O4 1.986 1_655 S
Mg5 O12 2.042 1_655 S
Mg5 O14 2.041 . S
Mg5 O20 2.038 . S
Mg5 O28 2.238 . S
Mg6 O4 1.917 1_545 S
Mg6 O7 1.917 1_454 S
Mg6 O17 2.106 1_554 S
Mg6 O19 2.079 1_444 S
Mg6 O28 2.106 1_445 S
Mg6 O29 2.079 . S
O7 Mg6 1.917 1_656 S
O7 Mg8 1.926 1_545 S
O7 Mg9 1.986 1_655 S
Mg8 O7 1.926 1_565 S
Mg8 O22 1.984 1_565 S
Mg8 O25 1.988 . S
Mg8 O26 2.061 . S
Mg9 O7 1.986 1_455 S
Mg9 O17 2.238 . S
Mg9 O21 2.042 1_455 S
Mg9 O23 2.041 . S
Mg9 O30 2.038 . S
C10 O16 1.247 1_556 S
C10 O17 1.289 . S
C11 O29 1.245 . S
C11 O30 1.274 1_554 S
O12 C0 1.241 . S
O12 Mg5 2.042 1_455 S
O13 C0 1.280 . S
O13 Mg3 1.984 1_565 S
O14 C1 1.277 1_665 S
O14 Mg5 2.041 . S
O15 C1 1.245 . S
O15 Mg3 1.988 . S
O16 Mg3 2.061 . S
O16 C10 1.247 1_554 S
O17 Mg6 2.106 1_556 S
O17 Mg9 2.238 . S
O17 C10 1.289 . S
C18 O19 1.245 . S
C18 O20 1.274 1_556 S
O19 Mg6 2.079 1_666 S
O19 C18 1.245 . S
O20 Mg5 2.038 . S
O20 C18 1.274 1_554 S
O21 Mg9 2.042 1_655 S
O21 C24 1.241 . S
O22 Mg8 1.984 1_545 S
O22 C24 1.280 . S
O23 Mg9 2.041 . S
O23 C27 1.277 1_445 S
C24 O21 1.241 . S
C24 O22 1.280 . S
O25 Mg8 1.988 . S
O25 C27 1.245 . S
O26 C2 1.247 1_556 S
O26 Mg8 2.061 . S
C27 O23 1.277 1_665 S
C27 O25 1.245 . S
O28 C2 1.289 . S
O28 Mg5 2.238 . S
O28 Mg6 2.106 1_665 S
O29 Mg6 2.079 . S
O29 C11 1.245 . S
O30 Mg9 2.038 . S
O30 C11 1.274 1_556 S
C31 O43 1.241 . S
C31 O44 1.280 . S
C32 O45 1.277 . S
C32 O46 1.245 . S
C33 O57 1.247 . S
C33 O59 1.289 . S
Mg34 O35 1.926 . S
Mg34 O44 1.984 . S
Mg34 O46 1.988 . S
Mg34 O47 2.061 . S
O35 Mg34 1.926 . S
O35 Mg36 1.986 . S
O35 Mg37 1.917 . S
Mg36 O35 1.986 . S
Mg36 O43 2.042 . S
Mg36 O45 2.041 . S
Mg36 O51 2.038 . S
Mg36 O59 2.238 . S
Mg37 O35 1.917 . S
Mg37 O38 1.917 . S
Mg37 O48 2.106 . S
Mg37 O50 2.079 . S
Mg37 O59 2.106 . S
Mg37 O60 2.079 . S
O38 Mg37 1.917 . S
O38 Mg39 1.926 . S
O38 Mg40 1.986 . S
Mg39 O38 1.926 . S
Mg39 O53 1.984 . S
Mg39 O56 1.988 . S
Mg39 O57 2.061 . S
Mg40 O38 1.986 . S
Mg40 O48 2.238 . S
Mg40 O52 2.042 . S
Mg40 O54 2.041 . S
Mg40 O61 2.038 . S
C41 O47 1.247 . S
C41 O48 1.289 . S
C42 O60 1.245 . S
C42 O61 1.274 . S
O43 C31 1.241 . S
O43 Mg36 2.042 . S
O44 C31 1.280 . S
O44 Mg34 1.984 . S
O45 C32 1.277 . S
O45 Mg36 2.041 . S
O46 C32 1.245 . S
O46 Mg34 1.988 . S
O47 Mg34 2.061 . S
O47 C41 1.247 . S
O48 Mg37 2.106 . S
O48 Mg40 2.238 . S
O48 C41 1.289 . S
C49 O50 1.245 . S
C49 O51 1.274 . S
O50 Mg37 2.079 . S
O50 C49 1.245 . S
O51 Mg36 2.038 . S
O51 C49 1.274 . S
O52 Mg40 2.042 . S
O52 C55 1.241 . S
O53 Mg39 1.984 . S
O53 C55 1.280 . S
O54 Mg40 2.041 . S
O54 C58 1.277 . S
C55 O52 1.241 . S
C55 O53 1.280 . S
O56 Mg39 1.988 . S
O56 C58 1.245 . S
O57 C33 1.247 . S
O57 Mg39 2.061 . S
C58 O54 1.277 . S
C58 O56 1.245 . S
O59 C33 1.289 . S
O59 Mg36 2.238 . S
O59 Mg37 2.106 . S
O60 Mg37 2.079 . S
O60 C42 1.245 . S
O61 Mg40 2.038 . S
O61 C42 1.274 . S
C62 O74 1.241 . S
C62 O75 1.280 . S
C63 O76 1.277 . S
C63 O77 1.245 . S
C64 O88 1.247 . S
C64 O90 1.289 . S
Mg65 O66 1.926 . S
Mg65 O75 1.984 . S
Mg65 O77 1.988 . S
Mg65 O78 2.061 . S
O66 Mg65 1.926 . S
O66 Mg67 1.986 . S
O66 Mg68 1.917 . S
Mg67 O66 1.986 . S
Mg67 O74 2.042 . S
Mg67 O76 2.041 . S
Mg67 O82 2.038 . S
Mg67 O90 2.238 . S
Mg68 O66 1.917 . S
Mg68 O69 1.917 . S
Mg68 O79 2.106 . S
Mg68 O81 2.079 . S
Mg68 O90 2.106 . S
Mg68 O91 2.079 . S
O69 Mg68 1.917 . S
O69 Mg70 1.926 . S
O69 Mg71 1.986 . S
Mg70 O69 1.926 . S
Mg70 O84 1.984 . S
Mg70 O87 1.988 . S
Mg70 O88 2.061 . S
Mg71 O69 1.986 . S
Mg71 O79 2.238 . S
Mg71 O83 2.042 . S
Mg71 O85 2.041 . S
Mg71 O92 2.038 . S
C72 O78 1.247 . S
C72 O79 1.289 . S
C73 O91 1.245 . S
C73 O92 1.274 . S
O74 C62 1.241 . S
O74 Mg67 2.042 . S
O75 C62 1.280 . S
O75 Mg65 1.984 . S
O76 C63 1.277 . S
O76 Mg67 2.041 . S
O77 C63 1.245 . S
O77 Mg65 1.988 . S
O78 Mg65 2.061 . S
O78 C72 1.247 . S
O79 Mg68 2.106 . S
O79 Mg71 2.238 . S
O79 C72 1.289 . S
C80 O81 1.245 . S
C80 O82 1.274 . S
O81 Mg68 2.079 . S
O81 C80 1.245 . S
O82 Mg67 2.038 . S
O82 C80 1.274 . S
O83 Mg71 2.042 . S
O83 C86 1.241 . S
O84 Mg70 1.984 . S
O84 C86 1.280 . S
O85 Mg71 2.041 . S
O85 C89 1.277 . S
C86 O83 1.241 . S
C86 O84 1.280 . S
O87 Mg70 1.988 . S
O87 C89 1.245 . S
O88 C64 1.247 . S
O88 Mg70 2.061 . S
C89 O85 1.277 . S
C89 O87 1.245 . S
O90 C64 1.289 . S
O90 Mg67 2.238 . S
O90 Mg68 2.106 . S
O91 Mg68 2.079 . S
O91 C73 1.245 . S
O92 Mg71 2.038 . S
O92 C73 1.274 . S
C93 C94 1.391 . S
C93 C95 1.392 1_655 S
C93 H109 0.921 1_655 S
C94 C93 1.391 . S
C94 C98 1.376 . S
C95 C93 1.392 1_455 S
C95 C96 1.361 1_455 S
C95 C99 1.540 . S
C96 C95 1.361 1_655 S
C96 C97 1.410 . S
C96 C104 1.503 1_655 S
C97 C96 1.410 . S
C97 C98 1.392 . S
C97 C100 1.511 1_565 S
C98 C94 1.376 . S
C98 C97 1.392 . S
C98 H110 0.929 . S
C99 C95 1.540 . S
C99 H111 0.960 . S
C99 H112 0.962 . S
C99 H113 0.960 . S
C100 C97 1.511 1_545 S
C100 H114 0.961 . S
C100 H115 0.961 . S
C100 H116 0.961 1_545 S
C101 C102 1.370 . S
C101 C103 1.363 . S
C101 H117 0.931 . S
C102 C101 1.370 . S
C102 C106 1.408 1_445 S
C103 C101 1.363 . S
C103 C104 1.370 1_545 S
C103 C107 1.524 . S
C104 C96 1.503 1_455 S
C104 C103 1.370 1_565 S
C104 C105 1.403 1_455 S
C105 C104 1.403 1_655 S
C105 C106 1.404 . S
C105 C108 1.539 . S
C106 C102 1.408 1_665 S
C106 C105 1.404 . S
C106 H118 0.930 . S
C107 C103 1.524 . S
C107 H119 0.956 . S
C107 H120 0.961 . S
C107 H121 0.961 . S
C108 C105 1.539 . S
C108 H122 0.958 . S
C108 H123 0.961 . S
C108 H124 0.960 . S
H109 C93 0.921 1_455 S
H110 C98 0.929 . S
H111 C99 0.960 . S
H112 C99 0.962 . S
H113 C99 0.960 . S
H114 C100 0.961 . S
H115 C100 0.961 . S
H116 C100 0.961 1_565 S
H117 C101 0.931 . S
H118 C106 0.930 . S
H119 C107 0.956 . S
H120 C107 0.961 . S
H121 C107 0.961 . S
H122 C108 0.958 . S
H123 C108 0.961 . S
H124 C108 0.960 . S
C125 C126 1.391 . S
C125 C127 1.394 . S
C125 H141 0.931 . S
C126 C125 1.391 . S
C126 C130 1.376 . S
C127 C125 1.394 . S
C127 C128 1.369 . S
C127 C131 1.531 . S
C128 C127 1.369 . S
C128 C129 1.410 . S
C128 C136 1.503 . S
C129 C128 1.410 . S
C129 C130 1.392 . S
C129 C132 1.511 . S
C130 C126 1.376 . S
C130 C129 1.392 . S
C130 H142 0.929 . S
C131 C127 1.531 . S
C131 H143 0.960 . S
C131 H144 0.962 . S
C131 H145 0.960 . S
C132 C129 1.511 . S
C132 H146 0.961 . S
C132 H147 0.961 . S
C132 H148 0.961 . S
C133 C134 1.370 . S
C133 C135 1.363 1_554 S
C133 H149 0.931 . S
C134 C133 1.370 . S
C134 C138 1.408 . S
C135 C133 1.363 1_556 S
C135 C136 1.370 . S
C135 C139 1.524 . S
C136 C128 1.503 . S
C136 C135 1.370 . S
C136 C137 1.403 . S
C137 C136 1.403 . S
C137 C138 1.404 1_556 S
C137 C140 1.539 . S
C138 C134 1.408 . S
C138 C137 1.404 1_554 S
C138 H150 0.930 . S
C139 C135 1.524 . S
C139 H151 0.956 . S
C139 H152 0.961 . S
C139 H153 0.961 . S
C140 C137 1.539 . S
C140 H154 0.958 . S
C140 H155 0.961 . S
C140 H156 0.960 . S
H141 C125 0.931 . S
H142 C130 0.929 . S
H143 C131 0.960 . S
H144 C131 0.962 . S
H145 C131 0.960 . S
H146 C132 0.961 . S
H147 C132 0.961 . S
H148 C132 0.961 . S
H149 C133 0.931 . S
H150 C138 0.930 . S
H151 C139 0.956 . S
H152 C139 0.961 . S
H153 C139 0.961 . S
H154 C140 0.958 . S
H155 C140 0.961 . S
H156 C140 0.960 . S
C157 C158 1.391 . S
C157 C159 1.394 1_556 S
C157 H173 0.931 . S
C158 C157 1.391 . S
C158 C162 1.376 . S
C159 C157 1.394 1_554 S
C159 C160 1.369 . S
C159 C163 1.531 . S
C160 C159 1.369 . S
C160 C161 1.410 . S
C160 C168 1.503 . S
C161 C160 1.410 . S
C161 C162 1.393 1_554 S
C161 C164 1.511 . S
C162 C158 1.376 . S
C162 C161 1.393 1_556 S
C162 H174 0.929 . S
C163 C159 1.531 . S
C163 H175 0.960 . S
C163 H176 0.962 . S
C163 H177 0.960 . S
C164 C161 1.511 . S
C164 H178 0.961 . S
C164 H179 0.961 . S
C164 H180 0.961 . S
C165 C166 1.370 . S
C165 C167 1.363 . S
C165 H181 0.931 . S
C166 C165 1.370 . S
C166 C170 1.408 . S
C167 C165 1.363 . S
C167 C168 1.370 . S
C167 C171 1.524 . S
C168 C160 1.503 . S
C168 C167 1.370 . S
C168 C169 1.403 . S
C169 C168 1.403 . S
C169 C170 1.404 . S
C169 C172 1.539 . S
C170 C166 1.408 . S
C170 C169 1.404 . S
C170 H182 0.930 . S
C171 C167 1.524 . S
C171 H183 0.956 . S
C171 H184 0.961 . S
C171 H185 0.961 . S
C172 C169 1.539 . S
C172 H186 0.958 . S
C172 H187 0.961 . S
C172 H188 0.960 . S
H173 C157 0.931 . S
H174 C162 0.929 . S
H175 C163 0.960 . S
H176 C163 0.962 . S
H177 C163 0.960 . S
H178 C164 0.961 . S
H179 C164 0.961 . S
H180 C164 0.961 . S
H181 C165 0.931 . S
H182 C170 0.930 . S
H183 C171 0.956 . S
H184 C171 0.961 . S
H185 C171 0.961 . S
H186 C172 0.958 . S
H187 C172 0.961 . S
H188 C172 0.960 . S
C189 C190 1.391 . S
C189 C191 1.394 . S
C189 H205 0.931 . S
C190 C189 1.391 . S
C190 C194 1.376 . S
C191 C189 1.394 . S
C191 C192 1.369 . S
C191 C195 1.531 . S
C192 C191 1.369 . S
C192 C193 1.410 . S
C192 C200 1.503 . S
C193 C192 1.410 . S
C193 C194 1.392 . S
C193 C196 1.511 . S
C194 C190 1.376 . S
C194 C193 1.392 . S
C194 H206 0.929 . S
C195 C191 1.531 . S
C195 H207 0.960 . S
C195 H208 0.962 . S
C195 H209 0.960 . S
C196 C193 1.511 . S
C196 H210 0.961 . S
C196 H211 0.961 . S
C196 H212 0.961 . S
C197 C198 1.370 . S
C197 C199 1.363 . S
C197 H213 0.931 . S
C198 C197 1.370 . S
C198 C202 1.408 . S
C199 C197 1.363 . S
C199 C200 1.370 . S
C199 C203 1.524 . S
C200 C192 1.503 . S
C200 C199 1.370 . S
C200 C201 1.403 . S
C201 C200 1.403 . S
C201 C202 1.404 . S
C201 C204 1.539 . S
C202 C198 1.408 . S
C202 C201 1.404 . S
C202 H214 0.930 . S
C203 C199 1.524 . S
C203 H215 0.956 . S
C203 H216 0.961 . S
C203 H217 0.961 . S
C204 C201 1.539 . S
C204 H218 0.958 . S
C204 H219 0.961 1_565 S
C204 H220 0.960 . S
H205 C189 0.931 . S
H206 C194 0.929 . S
H207 C195 0.960 . S
H208 C195 0.962 . S
H209 C195 0.960 . S
H210 C196 0.961 . S
H211 C196 0.961 . S
H212 C196 0.961 . S
H213 C197 0.931 . S
H214 C202 0.930 . S
H215 C203 0.956 . S
H216 C203 0.961 . S
H217 C203 0.961 . S
H218 C204 0.958 . S
H219 C204 0.961 1_545 S
H220 C204 0.960 . S
C221 C222 1.391 . S
C221 C223 1.394 . S
C221 H237 0.931 . S
C222 C221 1.391 . S
C222 C226 1.376 . S
C223 C221 1.394 . S
C223 C224 1.369 . S
C223 C227 1.531 . S
C224 C223 1.369 . S
C224 C225 1.410 . S
C224 C232 1.503 . S
C225 C224 1.410 . S
C225 C226 1.392 . S
C225 C228 1.511 . S
C226 C222 1.376 . S
C226 C225 1.392 . S
C226 H238 0.929 . S
C227 C223 1.531 . S
C227 H239 0.960 . S
C227 H240 0.962 . S
C227 H241 0.960 . S
C228 C225 1.511 . S
C228 H242 0.961 . S
C228 H243 0.961 . S
C228 H244 0.961 . S
C229 C230 1.370 . S
C229 C231 1.363 . S
C229 H245 0.931 . S
C230 C229 1.370 . S
C230 C234 1.408 . S
C231 C229 1.363 . S
C231 C232 1.370 . S
C231 C235 1.524 . S
C232 C224 1.503 . S
C232 C231 1.370 . S
C232 C233 1.403 . S
C233 C232 1.403 . S
C233 C234 1.404 . S
C233 C236 1.539 . S
C234 C230 1.408 . S
C234 C233 1.404 . S
C234 H246 0.930 . S
C235 C231 1.524 . S
C235 H247 0.956 . S
C235 H248 0.961 . S
C235 H249 0.961 . S
C236 C233 1.539 . S
C236 H250 0.958 1_455 S
C236 H251 0.961 1_455 S
C236 H252 0.960 . S
H237 C221 0.931 . S
H238 C226 0.929 . S
H239 C227 0.960 . S
H240 C227 0.962 . S
H241 C227 0.960 . S
H242 C228 0.961 . S
H243 C228 0.961 . S
H244 C228 0.961 . S
H245 C229 0.931 . S
H246 C234 0.930 . S
H247 C235 0.956 . S
H248 C235 0.961 . S
H249 C235 0.961 . S
H250 C236 0.958 1_655 S
H251 C236 0.961 1_655 S
H252 C236 0.960 . S
C253 C254 1.391 . S
C253 C255 1.394 . S
C253 H269 0.931 . S
C254 C253 1.391 . S
C254 C258 1.376 . S
C255 C253 1.394 . S
C255 C256 1.369 . S
C255 C259 1.531 . S
C256 C255 1.369 . S
C256 C257 1.410 . S
C256 C264 1.503 . S
C257 C256 1.410 . S
C257 C258 1.392 . S
C257 C260 1.511 . S
C258 C254 1.376 . S
C258 C257 1.392 . S
C258 H270 0.929 . S
C259 C255 1.531 . S
C259 H271 0.960 . S
C259 H272 0.962 . S
C259 H273 0.960 . S
C260 C257 1.511 . S
C260 H274 0.961 . S
C260 H275 0.961 . S
C260 H276 0.961 . S
C261 C262 1.370 . S
C261 C263 1.363 . S
C261 H277 0.931 . S
C262 C261 1.370 . S
C262 C266 1.408 . S
C263 C261 1.363 . S
C263 C264 1.370 . S
C263 C267 1.524 . S
C264 C256 1.503 . S
C264 C263 1.370 . S
C264 C265 1.403 . S
C265 C264 1.403 . S
C265 C266 1.404 . S
C265 C268 1.539 . S
C266 C262 1.408 . S
C266 C265 1.404 . S
C266 H278 0.930 . S
C267 C263 1.524 . S
C267 H279 0.956 . S
C267 H280 0.961 . S
C267 H281 0.961 . S
C268 C265 1.539 . S
C268 H282 0.958 . S
C268 H283 0.961 1_565 S
C268 H284 0.960 . S
H269 C253 0.931 . S
H270 C258 0.929 . S
H271 C259 0.960 . S
H272 C259 0.962 . S
H273 C259 0.960 . S
H274 C260 0.961 . S
H275 C260 0.961 . S
H276 C260 0.961 . S
H277 C261 0.931 . S
H278 C266 0.930 . S
H279 C267 0.956 . S
H280 C267 0.961 . S
H281 C267 0.961 . S
H282 C268 0.958 . S
H283 C268 0.961 1_545 S
H284 C268 0.960 . S
C285 C286 1.391 . S
C285 C287 1.394 . S
C285 H301 0.931 . S
C286 C285 1.391 . S
C286 C290 1.376 . S
C287 C285 1.394 . S
C287 C288 1.369 . S
C287 C291 1.531 . S
C288 C287 1.369 . S
C288 C289 1.410 . S
C288 C296 1.503 . S
C289 C288 1.410 . S
C289 C290 1.392 . S
C289 C292 1.511 . S
C290 C286 1.376 . S
C290 C289 1.392 . S
C290 H302 0.929 . S
C291 C287 1.531 . S
C291 H303 0.960 . S
C291 H304 0.962 . S
C291 H305 0.960 . S
C292 C289 1.511 . S
C292 H306 0.961 . S
C292 H307 0.961 . S
C292 H308 0.961 . S
C293 C294 1.370 . S
C293 C295 1.363 . S
C293 H309 0.931 . S
C294 C293 1.370 . S
C294 C298 1.408 . S
C295 C293 1.363 . S
C295 C296 1.370 . S
C295 C299 1.524 . S
C296 C288 1.503 . S
C296 C295 1.370 . S
C296 C297 1.403 . S
C297 C296 1.403 . S
C297 C298 1.404 . S
C297 C300 1.539 . S
C298 C294 1.408 . S
C298 C297 1.404 . S
C298 H310 0.930 . S
C299 C295 1.524 . S
C299 H311 0.956 . S
C299 H312 0.961 . S
C299 H313 0.961 . S
C300 C297 1.539 . S
C300 H314 0.958 . S
C300 H315 0.961 . S
C300 H316 0.960 . S
H301 C285 0.931 . S
H302 C290 0.929 . S
H303 C291 0.960 . S
H304 C291 0.962 . S
H305 C291 0.960 . S
H306 C292 0.961 . S
H307 C292 0.961 . S
H308 C292 0.961 . S
H309 C293 0.931 . S
H310 C298 0.930 . S
H311 C299 0.956 . S
H312 C299 0.961 . S
H313 C299 0.961 . S
H314 C300 0.958 . S
H315 C300 0.961 . S
H316 C300 0.960 . S
C317 C318 1.391 . S
C317 C319 1.394 . S
C317 H333 0.931 . S
C318 C317 1.391 . S
C318 C322 1.376 . S
C319 C317 1.394 . S
C319 C320 1.369 . S
C319 C323 1.531 . S
C320 C319 1.369 . S
C320 C321 1.410 . S
C320 C328 1.503 . S
C321 C320 1.410 . S
C321 C322 1.392 . S
C321 C324 1.511 . S
C322 C318 1.376 . S
C322 C321 1.392 . S
C322 H334 0.929 . S
C323 C319 1.531 . S
C323 H335 0.960 . S
C323 H336 0.962 . S
C323 H337 0.960 . S
C324 C321 1.511 . S
C324 H338 0.961 . S
C324 H339 0.961 . S
C324 H340 0.961 . S
C325 C326 1.370 . S
C325 C327 1.363 . S
C325 H341 0.931 . S
C326 C325 1.370 . S
C326 C330 1.408 . S
C327 C325 1.363 . S
C327 C328 1.370 . S
C327 C331 1.524 . S
C328 C320 1.503 . S
C328 C327 1.370 . S
C328 C329 1.403 . S
C329 C328 1.403 . S
C329 C330 1.404 . S
C329 C332 1.539 . S
C330 C326 1.408 . S
C330 C329 1.404 . S
C330 H342 0.930 . S
C331 C327 1.524 . S
C331 H343 0.956 . S
C331 H344 0.961 . S
C331 H345 0.961 . S
C332 C329 1.539 . S
C332 H346 0.958 . S
C332 H347 0.961 . S
C332 H348 0.960 . S
H333 C317 0.931 . S
H334 C322 0.929 . S
H335 C323 0.960 . S
H336 C323 0.962 . S
H337 C323 0.960 . S
H338 C324 0.961 . S
H339 C324 0.961 . S
H340 C324 0.961 . S
H341 C325 0.931 . S
H342 C330 0.930 . S
H343 C331 0.956 . S
H344 C331 0.961 . S
H345 C331 0.961 . S
H346 C332 0.958 . S
H347 C332 0.961 . S
H348 C332 0.960 . S
C349 C350 1.391 . S
C349 C351 1.394 . S
C349 H365 0.931 . S
C350 C349 1.391 . S
C350 C354 1.376 . S
C351 C349 1.394 . S
C351 C352 1.369 . S
C351 C355 1.531 . S
C352 C351 1.369 . S
C352 C353 1.410 . S
C352 C360 1.503 . S
C353 C352 1.410 . S
C353 C354 1.392 . S
C353 C356 1.511 . S
C354 C350 1.376 . S
C354 C353 1.392 . S
C354 H366 0.929 . S
C355 C351 1.531 . S
C355 H367 0.960 . S
C355 H368 0.962 . S
C355 H369 0.960 . S
C356 C353 1.511 . S
C356 H370 0.961 . S
C356 H371 0.961 . S
C356 H372 0.961 . S
C357 C358 1.370 . S
C357 C359 1.363 . S
C357 H373 0.931 . S
C358 C357 1.370 . S
C358 C362 1.408 . S
C359 C357 1.363 . S
C359 C360 1.370 . S
C359 C363 1.524 . S
C360 C352 1.503 . S
C360 C359 1.370 . S
C360 C361 1.403 . S
C361 C360 1.403 . S
C361 C362 1.404 . S
C361 C364 1.539 . S
C362 C358 1.408 . S
C362 C361 1.404 . S
C362 H374 0.930 . S
C363 C359 1.524 . S
C363 H375 0.956 . S
C363 H376 0.961 . S
C363 H377 0.961 . S
C364 C361 1.539 . S
C364 H378 0.958 . S
C364 H379 0.961 1_545 S
C364 H380 0.960 . S
H365 C349 0.931 . S
H366 C354 0.929 . S
H367 C355 0.960 . S
H368 C355 0.962 . S
H369 C355 0.960 . S
H370 C356 0.961 . S
H371 C356 0.961 . S
H372 C356 0.961 . S
H373 C357 0.931 . S
H374 C362 0.930 . S
H375 C363 0.956 . S
H376 C363 0.961 . S
H377 C363 0.961 . S
H378 C364 0.958 . S
H379 C364 0.961 1_565 S
H380 C364 0.960 . S
C381 C382 1.391 . S
C381 C383 1.394 . S
C381 H397 0.931 . S
C382 C381 1.391 . S
C382 C386 1.376 . S
C383 C381 1.394 . S
C383 C384 1.369 . S
C383 C387 1.531 . S
C384 C383 1.369 . S
C384 C385 1.410 . S
C384 C392 1.503 1_554 S
C385 C384 1.410 . S
C385 C386 1.398 . S
C385 C388 1.505 1_554 S
C386 C382 1.376 . S
C386 C385 1.398 . S
C386 H398 0.929 . S
C387 C383 1.531 . S
C387 H399 0.960 . S
C387 H400 0.962 . S
C387 H401 0.960 . S
C388 C385 1.505 1_556 S
C388 H402 0.961 . S
C388 H403 0.961 . S
C388 H404 0.961 . S
C389 C390 1.370 . S
C389 C391 1.363 . S
C389 H405 0.931 . S
C390 C389 1.370 . S
C390 C394 1.408 . S
C391 C389 1.363 . S
C391 C392 1.370 . S
C391 C395 1.524 1_556 S
C392 C384 1.503 1_556 S
C392 C391 1.370 . S
C392 C393 1.403 . S
C393 C392 1.403 . S
C393 C394 1.404 . S
C393 C396 1.539 . S
C394 C390 1.408 . S
C394 C393 1.404 . S
C394 H406 0.930 . S
C395 C391 1.524 1_554 S
C395 H407 0.956 . S
C395 H408 0.961 . S
C395 H409 0.961 . S
C396 C393 1.539 . S
C396 H410 0.958 . S
C396 H411 0.961 . S
C396 H412 0.960 . S
H397 C381 0.931 . S
H398 C386 0.929 . S
H399 C387 0.960 . S
H400 C387 0.962 . S
H401 C387 0.960 . S
H402 C388 0.961 . S
H403 C388 0.961 . S
H404 C388 0.961 . S
H405 C389 0.931 . S
H406 C394 0.930 . S
H407 C395 0.956 . S
H408 C395 0.961 . S
H409 C395 0.961 . S
H410 C396 0.958 . S
H411 C396 0.961 . S
H412 C396 0.960 . S
C413 C414 1.391 . S
C413 C415 1.394 . S
C413 H429 0.931 . S
C414 C413 1.391 . S
C414 C418 1.376 . S
C415 C413 1.394 . S
C415 C416 1.369 . S
C415 C419 1.531 . S
C416 C415 1.369 . S
C416 C417 1.410 . S
C416 C424 1.503 1_566 S
C417 C416 1.410 . S
C417 C418 1.392 . S
C417 C420 1.511 1_556 S
C418 C414 1.376 . S
C418 C417 1.392 . S
C418 H430 0.929 . S
C419 C415 1.531 . S
C419 H431 0.960 . S
C419 H432 0.962 1_565 S
C419 H433 0.960 . S
C420 C417 1.511 1_554 S
C420 H434 0.961 . S
C420 H435 0.943 1_565 S
C420 H436 0.961 . S
C421 C422 1.370 . S
C421 C423 1.363 . S
C421 H437 0.931 . S
C422 C421 1.370 . S
C422 C426 1.408 . S
C423 C421 1.363 . S
C423 C424 1.370 . S
C423 C427 1.524 1_554 S
C424 C416 1.503 1_544 S
C424 C423 1.370 . S
C424 C425 1.403 . S
C425 C424 1.403 . S
C425 C426 1.404 . S
C425 C428 1.539 1_545 S
C426 C422 1.408 . S
C426 C425 1.404 . S
C426 H438 0.930 . S
C427 C423 1.524 1_556 S
C427 H439 0.956 . S
C427 H440 0.961 . S
C427 H441 0.961 . S
C428 C425 1.539 1_565 S
C428 H442 0.958 . S
C428 H443 0.961 . S
C428 H444 0.960 . S
H429 C413 0.931 . S
H430 C418 0.929 . S
H431 C419 0.960 . S
H432 C419 0.962 1_545 S
H433 C419 0.960 . S
H434 C420 0.961 . S
H435 C420 0.943 1_545 S
H436 C420 0.961 . S
H437 C421 0.931 . S
H438 C426 0.930 . S
H439 C427 0.956 . S
H440 C427 0.961 . S
H441 C427 0.961 . S
H442 C428 0.958 . S
H443 C428 0.961 . S
H444 C428 0.960 . S
C445 C446 1.391 . S
C445 C447 1.394 . S
C445 H461 0.931 . S
C446 C445 1.391 . S
C446 C450 1.376 . S
C447 C445 1.394 . S
C447 C448 1.369 . S
C447 C451 1.531 1_455 S
C448 C447 1.369 . S
C448 C449 1.410 . S
C448 C456 1.503 1_456 S
C449 C448 1.410 . S
C449 C450 1.392 . S
C449 C452 1.511 1_556 S
C450 C446 1.376 . S
C450 C449 1.392 . S
C450 H462 0.929 . S
C451 C447 1.531 1_655 S
C451 H463 0.960 . S
C451 H464 0.962 . S
C451 H465 0.960 . S
C452 C449 1.511 1_554 S
C452 H466 0.961 . S
C452 H467 0.961 . S
C452 H468 0.961 . S
C453 C454 1.370 . S
C453 C455 1.363 . S
C453 H469 0.931 . S
C454 C453 1.370 . S
C454 C458 1.408 . S
C455 C453 1.363 . S
C455 C456 1.370 . S
C455 C459 1.524 . S
C456 C448 1.503 1_654 S
C456 C455 1.370 . S
C456 C457 1.403 . S
C457 C456 1.403 . S
C457 C458 1.404 . S
C457 C460 1.539 . S
C458 C454 1.408 . S
C458 C457 1.404 . S
C458 H470 0.930 . S
C459 C455 1.524 . S
C459 H471 0.956 1_554 S
C459 H472 0.961 1_655 S
C459 H473 0.961 . S
C460 C457 1.539 . S
C460 H474 0.958 . S
C460 H475 0.961 . S
C460 H476 0.960 1_655 S
H461 C445 0.931 . S
H462 C450 0.929 . S
H463 C451 0.960 . S
H464 C451 0.962 . S
H465 C451 0.960 . S
H466 C452 0.961 . S
H467 C452 0.961 . S
H468 C452 0.961 . S
H469 C453 0.931 . S
H470 C458 0.930 . S
H471 C459 0.956 1_556 S
H472 C459 0.961 1_455 S
H473 C459 0.961 . S
H474 C460 0.958 . S
H475 C460 0.961 . S
H476 C460 0.960 1_455 S
C94 C27 0.691 . S
C102 C1 0.612 . S
C126 C32 0.641 . S
C134 C58 0.636 . S
C158 C63 0.593 . S
C166 C89 0.649 . S
C190 C86 2.026 . S
C198 C0 1.995 . S
C222 C80 2.030 . S
C230 C11 2.042 . S
C254 C72 1.695 . S
C262 C2 1.714 . S
C286 C31 2.030 . S
C294 C24 1.992 . S
C318 C42 2.041 . S
C326 C18 2.043 . S
C350 C33 1.695 . S
C358 C10 1.713 . S
C382 C55 1.980 . S
C390 C62 2.015 . S
C414 C73 2.050 . S
C422 C49 2.037 . S
C446 C64 1.702 . S
C454 C41 1.710 . S
