# Generated by pormake.
# Topology noy, (5)-cn, num edge types: 1
# Building blocks:
#     Node 0, Type 0, BuildingBlock: XOMCOT_clean_sbu_1, # of connection points: 5
#     Node 1, Type 0, BuildingBlock: XOMCOT_clean_sbu_1, # of connection points: 5
#     Node 2, Type 0, BuildingBlock: XOMCOT_clean_sbu_1, # of connection points: 5
#     Node 3, Type 0, BuildingBlock: XOMCOT_clean_sbu_1, # of connection points: 5
#     Node 4, Type 0, BuildingBlock: XOMCOT_clean_sbu_1, # of connection points: 5
#     Node 5, Type 0, BuildingBlock: XOMCOT_clean_sbu_1, # of connection points: 5
#     Node 6, Type 0, BuildingBlock: XOMCOT_clean_sbu_1, # of connection points: 5
#     Node 7, Type 0, BuildingBlock: XOMCOT_clean_sbu_1, # of connection points: 5
#     Edge 8, Type (0, 0), BuildingBlock: OJICUG_clean_linker_0, # of connection points: 2
#     Edge 9, Type (0, 0), BuildingBlock: OJICUG_clean_linker_0, # of connection points: 2
#     Edge 10, Type (0, 0), BuildingBlock: OJICUG_clean_linker_0, # of connection points: 2
#     Edge 11, Type (0, 0), BuildingBlock: OJICUG_clean_linker_0, # of connection points: 2
#     Edge 12, Type (0, 0), BuildingBlock: OJICUG_clean_linker_0, # of connection points: 2
#     Edge 13, Type (0, 0), BuildingBlock: OJICUG_clean_linker_0, # of connection points: 2
#     Edge 14, Type (0, 0), BuildingBlock: OJICUG_clean_linker_0, # of connection points: 2
#     Edge 15, Type (0, 0), BuildingBlock: OJICUG_clean_linker_0, # of connection points: 2
#     Edge 16, Type (0, 0), BuildingBlock: OJICUG_clean_linker_0, # of connection points: 2
#     Edge 17, Type (0, 0), BuildingBlock: OJICUG_clean_linker_0, # of connection points: 2
#     Edge 18, Type (0, 0), BuildingBlock: OJICUG_clean_linker_0, # of connection points: 2
#     Edge 19, Type (0, 0), BuildingBlock: OJICUG_clean_linker_0, # of connection points: 2
#     Edge 20, Type (0, 0), BuildingBlock: OJICUG_clean_linker_0, # of connection points: 2
#     Edge 21, Type (0, 0), BuildingBlock: OJICUG_clean_linker_0, # of connection points: 2
#     Edge 22, Type (0, 0), BuildingBlock: OJICUG_clean_linker_0, # of connection points: 2
#     Edge 23, Type (0, 0), BuildingBlock: OJICUG_clean_linker_0, # of connection points: 2
#     Edge 24, Type (0, 0), BuildingBlock: OJICUG_clean_linker_0, # of connection points: 2
#     Edge 25, Type (0, 0), BuildingBlock: OJICUG_clean_linker_0, # of connection points: 2
#     Edge 26, Type (0, 0), BuildingBlock: OJICUG_clean_linker_0, # of connection points: 2
#     Edge 27, Type (0, 0), BuildingBlock: OJICUG_clean_linker_0, # of connection points: 2
# Relax obj value: 0.159
# Max RMSD: 0.178
# Mean RMSD: 0.178
data_MOF--net-noy--node1-XOMCOT_clean_sbu_1--edge1-OJICUG_clean_linker_0
_symmetry_space_group_name_H-M    P1
_symmetry_Int_Tables_number       1
_symmetry_cell_setting            triclinic
loop_
_symmetry_equiv_pos_as_xyz
'x, y, z'
_cell_length_a     38.744291
_cell_length_b     33.936056
_cell_length_c     15.206446
_cell_angle_alpha  90.028287
_cell_angle_beta   90.012303
_cell_angle_gamma 89.323087
loop_
_atom_site_label
_atom_site_type_symbol
_atom_site_fract_x
_atom_site_fract_y
_atom_site_fract_z
_atom_type_partial_charge
C0 C 0.29961 0.40177 0.16592 0.0
C1 C 0.2974 0.42933 0.10003 0.0
N2 N 0.29798 0.46555 0.13653 0.0
N3 N 0.3014 0.42023 0.24413 0.0
C4 C 0.30042 0.45911 0.2243 0.0
H5 H 0.30112 0.3702 0.15704 0.0
Co6 Co 0.30843 0.39367 0.34992 0.0
C7 C 0.29655 0.45218 0.49346 0.0
O8 O 0.31983 0.43313 0.54026 0.0
N9 N 0.3157 0.36481 0.45654 0.0
C10 C 0.33757 0.32531 0.56055 0.0
C11 C 0.34491 0.34724 0.487 0.0
C12 C 0.29104 0.35305 0.51375 0.0
N13 N 0.30364 0.32894 0.57731 0.0
O14 O 0.26387 0.36962 0.33575 0.0
H15 H 0.3701 0.34897 0.45736 0.0
H16 H 0.26401 0.36082 0.50684 0.0
O17 O 0.28904 0.43962 0.41615 0.0
C18 C 0.26931 0.33456 0.30742 0.0
O19 O 0.30133 0.32135 0.30548 0.0
N20 N 0.3532 0.41325 0.35216 0.0
C21 C 0.42218 0.42944 0.31981 0.0
C22 C 0.40054 0.45833 0.35714 0.0
C23 C 0.36568 0.4497 0.37236 0.0
C24 C 0.37363 0.38613 0.31086 0.0
C25 C 0.40827 0.39321 0.29584 0.0
H26 H 0.34893 0.47272 0.39711 0.0
H27 H 0.36278 0.35843 0.29009 0.0
H28 H 0.30231 0.48214 0.27316 0.0
H29 H 0.29709 0.42297 0.03031 0.0
H30 H 0.35574 0.30764 0.5981 0.0
H31 H 0.41043 0.48707 0.37411 0.0
H32 H 0.42405 0.37062 0.26464 0.0
C33 C 0.68792 0.67528 0.66155 0.0
C34 C 0.69066 0.64774 0.59567 0.0
N35 N 0.69071 0.61151 0.63216 0.0
N36 N 0.68638 0.6568 0.73972 0.0
C37 C 0.68815 0.61796 0.71991 0.0
H38 H 0.68578 0.70682 0.65272 0.0
Co39 Co 0.67837 0.68304 0.84549 0.0
C40 C 0.68899 0.62403 0.9884 0.0
O41 O 0.6649 0.64257 0.03358 0.0
N42 N 0.67017 0.71149 0.95201 0.0
C43 C 0.64781 0.75137 0.05463 0.0
C44 C 0.6409 0.72955 0.98047 0.0
C45 C 0.6944 0.72278 1.01089 0.0
N46 N 0.68152 0.74711 0.07366 0.0
O47 O 0.72293 0.70728 0.83403 0.0
H48 H 0.61606 0.72834 0.94869 0.0
H49 H 0.72141 0.71463 1.00553 0.0
O50 O 0.69736 0.63702 0.91209 0.0
C51 C 0.71761 0.74232 0.80553 0.0
O52 O 0.6856 0.75553 0.80271 0.0
N53 N 0.63361 0.66325 0.8445 0.0
C54 C 0.56748 0.64354 0.78854 0.0
C55 C 0.58812 0.61592 0.83378 0.0
C56 C 0.6216 0.62615 0.86 0.0
C57 C 0.61368 0.69016 0.80106 0.0
C58 C 0.58052 0.68126 0.77393 0.0
H59 H 0.63811 0.60351 0.88732 0.0
H60 H 0.6242 0.71864 0.78505 0.0
H61 H 0.6866 0.59493 0.76879 0.0
H62 H 0.69085 0.6541 0.52597 0.0
H63 H 0.62955 0.76951 0.09082 0.0
H64 H 0.57914 0.58624 0.8449 0.0
H65 H 0.56542 0.7037 0.74028 0.0
C66 C 0.34109 0.65969 0.88389 0.0
C67 C 0.33996 0.63418 0.95403 0.0
N68 N 0.31505 0.60757 0.93899 0.0
N69 N 0.31707 0.64934 0.82438 0.0
C70 C 0.30139 0.61776 0.86008 0.0
H71 H 0.35918 0.68339 0.87508 0.0
Co72 Co 0.31137 0.67294 0.71372 0.0
C73 C 0.27073 0.61238 0.60978 0.0
O74 O 0.2528 0.63823 0.5639 0.0
N75 N 0.30604 0.69728 0.60225 0.0
C76 C 0.30912 0.71057 0.45893 0.0
C77 C 0.31759 0.68383 0.52382 0.0
C78 C 0.2909 0.73241 0.58308 0.0
N79 N 0.29222 0.7412 0.49623 0.0
O80 O 0.26745 0.69434 0.75245 0.0
H81 H 0.33093 0.65598 0.51412 0.0
H82 H 0.2791 0.75134 0.63193 0.0
O83 O 0.29186 0.62407 0.66848 0.0
C84 C 0.27547 0.72387 0.80043 0.0
O85 O 0.30812 0.73378 0.80495 0.0
N86 N 0.35559 0.65518 0.68333 0.0
C87 C 0.42585 0.63767 0.68557 0.0
C88 C 0.40167 0.60757 0.69471 0.0
C89 C 0.36644 0.61692 0.69268 0.0
C90 C 0.37876 0.68448 0.67083 0.0
C91 C 0.41404 0.67627 0.67033 0.0
H92 H 0.34816 0.59391 0.70609 0.0
H93 H 0.36986 0.71476 0.66696 0.0
H94 H 0.28079 0.60212 0.82784 0.0
H95 H 0.35737 0.63423 1.00966 0.0
H96 H 0.31399 0.70699 0.38929 0.0
H97 H 0.40994 0.5775 0.70735 0.0
H98 H 0.43196 0.70041 0.66469 0.0
C99 C 0.65165 0.41446 0.38517 0.0
C100 C 0.65266 0.44028 0.45477 0.0
N101 N 0.6761 0.46825 0.43703 0.0
N102 N 0.67426 0.42596 0.32326 0.0
C103 C 0.68902 0.45856 0.35699 0.0
H104 H 0.63452 0.3897 0.37848 0.0
Co105 Co 0.67929 0.4023 0.21241 0.0
C106 C 0.71688 0.4642 0.10549 0.0
O107 O 0.73549 0.43885 0.05993 0.0
N108 N 0.68387 0.37795 0.10079 0.0
C109 C 0.67914 0.36415 0.95797 0.0
C110 C 0.67083 0.39075 1.02337 0.0
C111 C 0.69972 0.34334 0.08058 0.0
N112 N 0.69744 0.33427 0.99401 0.0
O113 O 0.72433 0.38291 0.24764 0.0
H114 H 0.65651 0.41803 1.01469 0.0
H115 H 0.71269 0.32495 0.12851 0.0
O116 O 0.69639 0.45194 0.16504 0.0
C117 C 0.71727 0.35296 0.29536 0.0
O118 O 0.68494 0.3419 0.30059 0.0
N119 N 0.63413 0.41761 0.18632 0.0
C120 C 0.56398 0.42974 0.21359 0.0
C121 C 0.58621 0.46195 0.20836 0.0
C122 C 0.62154 0.45522 0.19485 0.0
C123 C 0.61242 0.38645 0.18316 0.0
C124 C 0.57716 0.3919 0.19583 0.0
H125 H 0.63889 0.47976 0.20046 0.0
H126 H 0.62289 0.35682 0.17882 0.0
H127 H 0.70839 0.47525 0.32261 0.0
H128 H 0.63612 0.4394 0.51202 0.0
H129 H 0.67315 0.36732 0.88881 0.0
H130 H 0.57695 0.49156 0.2221 0.0
H131 H 0.56068 0.36634 0.19793 0.0
C132 C 0.79871 0.8998 0.16174 0.0
C133 C 0.79632 0.92737 0.09589 0.0
N134 N 0.79725 0.96359 0.13232 0.0
N135 N 0.80097 0.91826 0.23987 0.0
C136 C 0.80001 0.95713 0.22002 0.0
H137 H 0.80015 0.86822 0.15284 0.0
Co138 Co 0.80893 0.89185 0.34555 0.0
C139 C 0.79789 0.95056 0.48899 0.0
O140 O 0.82182 0.93194 0.53455 0.0
N141 N 0.81708 0.86326 0.45189 0.0
C142 C 0.83942 0.82321 0.55414 0.0
C143 C 0.84634 0.84511 0.48015 0.0
C144 C 0.79285 0.85191 0.51067 0.0
N145 N 0.80572 0.82749 0.57325 0.0
O146 O 0.76441 0.86757 0.33373 0.0
H147 H 0.87116 0.84632 0.44831 0.0
H148 H 0.76585 0.8601 0.50541 0.0
O149 O 0.78982 0.93775 0.41229 0.0
C150 C 0.76975 0.8325 0.30536 0.0
O151 O 0.80177 0.81932 0.30248 0.0
N152 N 0.85367 0.91171 0.34508 0.0
C153 C 0.91981 0.93165 0.28976 0.0
C154 C 0.89918 0.95906 0.33572 0.0
C155 C 0.86571 0.9487 0.36169 0.0
C156 C 0.8736 0.88498 0.30108 0.0
C157 C 0.90677 0.894 0.27423 0.0
H158 H 0.84923 0.9712 0.38971 0.0
H159 H 0.86309 0.85656 0.28439 0.0
H160 H 0.80228 0.98015 0.26878 0.0
H161 H 0.79574 0.92101 1.02619 0.0
H162 H 0.85768 0.80502 0.59019 0.0
H163 H 0.90816 0.98868 0.34763 0.0
H164 H 0.92187 0.8717 0.24009 0.0
C165 C 0.18688 0.17563 0.66647 0.0
C166 C 0.18944 0.14809 0.60052 0.0
N167 N 0.18923 0.11187 0.63694 0.0
N168 N 0.18523 0.15713 0.74463 0.0
C169 C 0.18672 0.11828 0.7247 0.0
H170 H 0.18491 0.20718 0.65764 0.0
Co171 Co 0.17734 0.18346 0.85048 0.0
C172 C 0.18893 0.12486 0.9936 0.0
O173 O 0.1649 0.14329 0.03919 0.0
N174 N 0.16927 0.21201 0.95695 0.0
C175 C 0.14707 0.25209 0.05942 0.0
C176 C 0.14001 0.22996 0.98579 0.0
C177 C 0.19365 0.22367 1.01507 0.0
N178 N 0.18087 0.24813 0.07772 0.0
O179 O 0.22161 0.20817 0.83798 0.0
H180 H 0.11508 0.22849 0.95453 0.0
H181 H 0.22068 0.21571 1.00918 0.0
O182 O 0.19691 0.13774 0.91693 0.0
C183 C 0.21582 0.24309 0.8093 0.0
O184 O 0.18366 0.25583 0.80687 0.0
N185 N 0.13278 0.16318 0.85059 0.0
C186 C 0.06715 0.14228 0.79334 0.0
C187 C 0.08797 0.11505 0.8392 0.0
C188 C 0.1212 0.12589 0.86611 0.0
C189 C 0.11256 0.18979 0.80713 0.0
C190 C 0.07963 0.18028 0.77929 0.0
H191 H 0.13794 0.10353 0.89367 0.0
H192 H 0.12274 0.21844 0.79118 0.0
H193 H 0.18501 0.09521 0.77346 0.0
H194 H 0.18963 0.15444 0.53081 0.0
H195 H 0.12885 0.27023 0.09572 0.0
H196 H 0.07937 0.08519 0.85002 0.0
H197 H 0.06433 0.2024 0.7452 0.0
C198 C 0.84157 0.15759 0.88021 0.0
C199 C 0.84022 0.13208 0.95032 0.0
N200 N 0.81525 0.10557 0.93496 0.0
N201 N 0.81763 0.14736 0.8204 0.0
C202 C 0.80177 0.11585 0.8559 0.0
H203 H 0.85978 0.18119 0.87163 0.0
Co204 Co 0.8123 0.17091 0.70952 0.0
C205 C 0.77126 0.11039 0.60629 0.0
O206 O 0.75309 0.13617 0.56079 0.0
N207 N 0.80736 0.19516 0.59787 0.0
C208 C 0.81055 0.20792 0.45438 0.0
C209 C 0.81819 0.18098 0.51947 0.0
C210 C 0.79355 0.23097 0.57852 0.0
N211 N 0.79494 0.23949 0.4915 0.0
O212 O 0.76848 0.19276 0.74764 0.0
H213 H 0.83056 0.15254 0.50998 0.0
H214 H 0.78273 0.25059 0.62748 0.0
O215 O 0.7926 0.12217 0.66435 0.0
C216 C 0.77686 0.22233 0.79506 0.0
O217 O 0.8096 0.2319 0.79887 0.0
N218 N 0.85643 0.15275 0.67969 0.0
C219 C 0.92659 0.13489 0.68373 0.0
C220 C 0.90227 0.10495 0.69284 0.0
C221 C 0.86709 0.11447 0.68987 0.0
C222 C 0.87975 0.18187 0.66696 0.0
C223 C 0.915 0.17349 0.66737 0.0
H224 H 0.84867 0.09163 0.70338 0.0
H225 H 0.871 0.21219 0.66242 0.0
H226 H 0.78119 0.10029 0.82338 0.0
H227 H 0.85754 0.13204 1.00613 0.0
H228 H 0.81514 0.20388 0.38475 0.0
H229 H 0.91038 0.0749 0.70635 0.0
H230 H 0.93302 0.19752 0.66172 0.0
C231 C 0.14657 0.91736 0.38469 0.0
C232 C 0.14768 0.94293 0.45479 0.0
N233 N 0.17245 0.96967 0.43951 0.0
N234 N 0.17045 0.9278 0.32499 0.0
C235 C 0.18605 0.9595 0.36051 0.0
H236 H 0.12856 0.89355 0.37607 0.0
Co237 Co 0.17614 0.9042 0.21429 0.0
C238 C 0.2163 0.96512 0.11031 0.0
O239 O 0.23444 0.93945 0.0644 0.0
N240 N 0.18149 0.87988 0.10275 0.0
C241 C 0.17833 0.86655 0.95942 0.0
C242 C 0.16978 0.89324 1.02441 0.0
C243 C 0.19683 0.84487 0.08342 0.0
N244 N 0.19546 0.83606 0.99656 0.0
O245 O 0.22022 0.88314 0.25271 0.0
H246 H 0.15626 0.92098 1.01484 0.0
H247 H 0.20881 0.82603 0.13215 0.0
O248 O 0.19527 0.9532 0.16895 0.0
C249 C 0.21235 0.85355 0.30062 0.0
O250 O 0.17975 0.84345 0.3052 0.0
N251 N 0.13178 0.9216 0.18422 0.0
C252 C 0.06142 0.93852 0.18689 0.0
C253 C 0.08541 0.96881 0.19604 0.0
C254 C 0.12069 0.95976 0.19378 0.0
C255 C 0.10879 0.8921 0.17174 0.0
C256 C 0.07345 0.90001 0.17145 0.0
H257 H 0.13884 0.98291 0.20718 0.0
H258 H 0.11787 0.86189 0.16771 0.0
H259 H 0.20653 0.97524 0.3281 0.0
H260 H 0.13035 0.94282 0.51056 0.0
H261 H 0.17336 0.87007 0.88981 0.0
H262 H 0.07696 0.99881 0.20885 0.0
H263 H 0.05568 0.87573 0.16579 0.0
C264 C 0.4708 0.46355 0.24347 0.0
C265 C 0.45929 0.43564 0.3047 0.0
H266 H 0.51349 0.48345 0.16531 0.0
C267 C 0.48298 0.40888 0.34157 0.0
H268 H 0.45276 0.48421 0.21374 0.0
C269 C 0.51717 0.40824 0.31388 0.0
C270 C 0.52842 0.43419 0.24817 0.0
H271 H 0.47461 0.38722 0.38915 0.0
H272 H 0.53467 0.38659 0.34226 0.0
C273 C 0.50532 0.46291 0.21543 0.0
C274 C 0.50835 0.6152 0.8086 0.0
C275 C 0.53263 0.63396 0.75486 0.0
H276 H 0.45499 0.60138 0.82782 0.0
C277 C 0.52225 0.64771 0.67154 0.0
H278 H 0.51561 0.60433 0.87304 0.0
C279 C 0.48773 0.64629 0.64607 0.0
C280 C 0.46296 0.63055 0.70281 0.0
H281 H 0.5406 0.66139 0.62768 0.0
H282 H 0.4801 0.65927 0.58384 0.0
C283 C 0.47372 0.61346 0.78264 0.0
C284 C 0.01348 0.96215 0.28437 0.0
C285 C 0.02429 0.94532 0.20429 0.0
H286 H 0.97158 0.97085 0.3749 0.0
C287 C -0.00042 0.92956 0.14736 0.0
H288 H 0.03217 0.97424 0.32968 0.0
C289 C 0.96507 0.9279 0.17279 0.0
C290 C 0.95465 0.94141 0.25631 0.0
H291 H 0.00726 0.91678 0.08494 0.0
H292 H 0.94678 0.91425 0.12871 0.0
C293 C 0.97887 0.96017 0.31031 0.0
C294 C 0.023 0.1451 0.67377 0.0
C295 C 0.03275 0.13196 0.75803 0.0
H296 H 0.98149 0.15587 0.58365 0.0
C297 C 0.00819 0.11328 0.81103 0.0
H298 H 0.04161 0.15873 0.63057 0.0
C299 C 0.97378 0.11116 0.78338 0.0
C300 C 0.96357 0.12775 0.70257 0.0
H301 H 0.01501 0.10287 0.87615 0.0
H302 H 0.95476 0.09927 0.828 0.0
C303 C 0.98871 0.14327 0.64657 0.0
C304 C 0.31786 0.57094 0.08028 0.0
C305 C 0.30773 0.57304 0.9914 0.0
H306 H 0.32305 0.53544 0.19582 0.0
C307 C 0.29203 0.53994 0.95358 0.0
H308 H 0.32947 0.59595 0.1124 0.0
C309 C 0.28778 0.50535 1.00212 0.0
C310 C 0.29932 0.50265 0.08975 0.0
H311 H 0.28395 0.5401 0.88552 0.0
H312 H 0.27586 0.4805 0.97015 0.0
C313 C 0.31379 0.53622 0.12874 0.0
C314 C 0.67348 0.50522 0.57795 0.0
C315 C 0.68275 0.50329 0.48847 0.0
H316 H 0.66832 0.54072 0.69339 0.0
C317 C 0.69696 0.53694 0.44929 0.0
H318 H 0.66306 0.47982 0.61117 0.0
C319 C 0.70062 0.57183 0.49722 0.0
C320 C 0.68993 0.57429 0.58558 0.0
H321 H 0.70434 0.53695 0.38073 0.0
H322 H 0.71144 0.59705 0.4642 0.0
C323 C 0.67691 0.54022 0.62575 0.0
C324 C 0.71886 0.5578 0.9663 0.0
C325 C 0.70131 0.58484 1.02102 0.0
H326 H 0.73787 0.49845 0.95009 0.0
C327 C 0.69247 0.57277 0.10661 0.0
H328 H 0.72605 0.56602 0.90004 0.0
C329 C 0.69909 0.53424 0.13507 0.0
C330 C 0.71492 0.5065 0.07904 0.0
H331 H 0.67927 0.59277 0.1512 0.0
H332 H 0.69081 0.52591 0.20041 0.0
C333 C 0.72566 0.51904 0.99511 0.0
C334 C 0.26786 0.51898 0.47017 0.0
C335 C 0.28439 0.49149 0.52577 0.0
H336 H 0.2502 0.5788 0.45322 0.0
C337 C 0.29252 0.50322 0.6121 0.0
H338 H 0.26125 0.51103 0.40333 0.0
C339 C 0.28637 0.54185 0.64044 0.0
C340 C 0.27168 0.57003 0.58359 0.0
H341 H 0.30491 0.48287 0.65736 0.0
H342 H 0.29422 0.54995 0.70631 0.0
C343 C 0.26149 0.55784 0.4989 0.0
C344 C 0.81782 0.06883 0.07616 0.0
C345 C 0.80772 0.07106 0.98728 0.0
H346 H 0.8228 1.03328 0.19161 0.0
C347 C 0.7918 0.0381 0.9494 0.0
H348 H 0.82958 0.09373 0.10836 0.0
C349 C 0.78732 1.00353 0.99789 0.0
C350 C 0.79883 1.00069 0.08554 0.0
H351 H 0.78373 0.03835 0.88134 0.0
H352 H 0.77525 0.97879 0.96587 0.0
C353 C 0.81353 1.03413 0.12454 0.0
C354 C 0.17373 0.0411 0.62923 0.0
C355 C 0.18801 0.07474 0.59014 0.0
H356 H 0.15828 0.98128 0.61303 0.0
C357 C 0.1994 0.07208 0.50239 0.0
H358 H 0.16456 0.04184 0.69638 0.0
C359 C 0.19522 1.03744 0.45387 0.0
C360 C 0.17971 1.00427 0.49183 0.0
H361 H 0.21115 0.097 0.47033 0.0
H362 H 0.20317 1.03731 0.38573 0.0
C363 C 0.16972 1.00634 0.58081 0.0
C364 C 0.21853 0.05854 0.9709 0.0
C365 C 0.20151 0.08579 1.02619 0.0
H366 H 0.23692 0.99898 0.95421 0.0
C367 C 0.19329 0.07397 0.11236 0.0
H368 H 0.22523 0.06657 0.90419 0.0
C369 C 0.19985 1.03544 0.1408 0.0
C370 C 0.21499 1.00746 0.08417 0.0
H371 H 0.18054 0.09415 0.15737 0.0
H372 H 0.19194 1.02725 0.20654 0.0
C373 C 0.22527 1.01978 0.9997 0.0
C374 C 0.78734 0.03997 0.63656 0.0
C375 C 0.77231 0.06805 0.58004 0.0
H376 H 0.80642 0.98115 0.65289 0.0
C377 C 0.76198 0.05583 0.4955 0.0
H378 H 0.79529 0.04808 0.70234 0.0
C379 C 0.76856 1.01704 0.46655 0.0
C380 C 0.78548 0.98969 0.52173 0.0
H381 H 0.75041 0.07671 0.45009 0.0
H382 H 0.76183 1.00907 0.39979 0.0
C383 C 0.79375 1.00142 0.60796 0.0
C384 C 0.25037 0.27156 0.23998 0.0
C385 C 0.24265 0.31102 0.2619 0.0
H386 H 0.2368 0.22078 0.16453 0.0
C387 C 0.21218 0.32827 0.22883 0.0
H388 H 0.27348 0.25715 0.26487 0.0
C389 C 0.19103 0.3071 0.17096 0.0
C390 C 0.20014 0.26848 0.14479 0.0
H391 H 0.20566 0.35866 0.24383 0.0
H392 H 0.16853 0.32166 0.14324 0.0
C393 C 0.22952 0.25068 0.18192 0.0
C394 C 0.73682 0.8051 0.73781 0.0
C395 C 0.74435 0.76562 0.75984 0.0
H396 H 0.75039 0.85558 0.66143 0.0
C397 C 0.77458 0.74804 0.72616 0.0
H398 H 0.7139 0.81975 0.76314 0.0
C399 C 0.79562 0.76888 0.66749 0.0
C400 C 0.78663 0.80751 0.64113 0.0
H401 H 0.78093 0.71761 0.74117 0.0
H402 H 0.81788 0.75405 0.63929 0.0
C403 C 0.75755 0.82566 0.67895 0.0
C404 C 0.24201 0.78575 0.98751 0.0
C405 C 0.21227 0.80346 0.95151 0.0
H406 H 0.28474 0.74634 0.96772 0.0
C407 C 0.20084 0.79054 0.86821 0.0
H408 H 0.25186 0.79495 0.05075 0.0
C409 C 0.21976 0.76206 0.82045 0.0
C410 C 0.25058 0.74642 0.85498 0.0
H411 H 0.17779 0.80319 0.83893 0.0
H412 H 0.21146 0.75409 0.75485 0.0
C413 C 0.26096 0.75786 0.93968 0.0
C414 C 0.77181 0.31267 0.31276 0.0
C415 C 0.74275 0.3313 0.34973 0.0
H416 H 0.81159 0.26874 0.32943 0.0
C417 C 0.73363 0.32238 0.4368 0.0
H418 H 0.77899 0.31854 0.24522 0.0
C419 C 0.75182 0.29384 0.48465 0.0
C420 C 0.77954 0.27299 0.44636 0.0
H421 H 0.71106 0.3361 0.46651 0.0
H422 H 0.74267 0.28657 0.54977 0.0
C423 C 0.79004 0.28368 0.36067 0.0
C424 C 0.72976 0.74902 0.17916 0.0
C425 C 0.70063 0.76712 0.1415 0.0
H426 H 0.77351 0.75504 0.26304 0.0
C427 C 0.69163 0.80575 0.16789 0.0
H428 H 0.73694 0.71911 0.16159 0.0
C429 C 0.71271 0.82665 0.2264 0.0
C430 C 0.74299 0.80913 0.25986 0.0
H431 H 0.66932 0.82053 0.13981 0.0
H432 H 0.70633 0.85708 0.24143 0.0
C433 C 0.75054 0.76964 0.23786 0.0
C434 C 0.27291 0.24962 0.731 0.0
C435 C 0.2422 0.26668 0.76302 0.0
H436 H 0.31659 0.25614 0.64566 0.0
C437 C 0.23398 0.30579 0.73921 0.0
H438 H 0.2798 0.21949 0.74743 0.0
C439 C 0.25464 0.32646 0.68039 0.0
C440 C 0.28431 0.30881 0.64446 0.0
H441 H 0.21066 0.32004 0.76322 0.0
H442 H 0.24702 0.35608 0.66162 0.0
C443 C 0.29386 0.27058 0.67241 0.0
C444 C 0.76342 0.25708 0.93403 0.0
C445 C 0.75233 0.24509 0.8503 0.0
H446 H 0.75501 0.29445 0.04487 0.0
C447 C 0.72101 0.26013 0.81744 0.0
H448 H 0.78756 0.24599 0.96088 0.0
C449 C 0.70222 0.28852 0.86584 0.0
C450 C 0.71431 0.30194 0.94815 0.0
H451 H 0.71213 0.25171 0.75263 0.0
H452 H 0.67872 0.30065 0.83787 0.0
C453 C 0.74463 0.28487 0.98247 0.0
C454 C 0.22716 0.81998 0.44006 0.0
C455 C 0.23735 0.83113 0.35505 0.0
H456 H 0.23632 0.78304 0.55125 0.0
C457 C 0.26795 0.81513 0.32008 0.0
H458 H 0.20354 0.83177 0.46841 0.0
C459 C 0.28682 0.78658 0.36771 0.0
C460 C 0.27555 0.77392 0.45133 0.0
H461 H 0.27608 0.82284 0.25421 0.0
H462 H 0.30968 0.77365 0.33808 0.0
C463 C 0.24606 0.79201 0.48777 0.0
loop_
_geom_bond_atom_site_label_1
_geom_bond_atom_site_label_2
_geom_bond_distance
_geom_bond_site_symmetry_2
_ccdc_geom_bond_type
C0 C1 1.351 . S
C0 N3 1.368 . S
C0 H5 0.931 . S
C1 C0 1.351 . S
C1 N2 1.373 . S
C1 H29 0.930 1_554 S
N2 C1 1.373 . S
N2 C4 1.340 . S
N3 C0 1.368 . S
N3 C4 1.321 . S
N3 Co6 2.135 . S
C4 N2 1.340 . S
C4 N3 1.321 . S
C4 H28 0.930 . S
H5 C0 0.931 . S
Co6 N3 2.135 . S
Co6 N9 2.121 . S
Co6 O14 2.055 . S
Co6 O17 2.039 . S
Co6 N20 2.140 . S
C7 O8 1.227 . S
C7 O17 1.265 . S
O8 C7 1.227 . S
N9 Co6 2.121 . S
N9 C11 1.375 . S
N9 C12 1.313 . S
C10 C11 1.338 . S
C10 N13 1.377 . S
C10 H30 0.930 . S
C11 N9 1.375 . S
C11 C10 1.338 . S
C11 H15 0.931 . S
C12 N9 1.313 . S
C12 N13 1.344 . S
C12 H16 0.930 . S
N13 C10 1.377 . S
N13 C12 1.344 . S
O14 Co6 2.055 . S
O14 C18 1.253 . S
H15 C11 0.931 . S
H16 C12 0.930 . S
O17 Co6 2.039 . S
O17 C7 1.265 . S
C18 O14 1.253 . S
C18 O19 1.227 . S
O19 C18 1.227 . S
N20 Co6 2.140 . S
N20 C23 1.346 . S
N20 C24 1.345 . S
C21 C22 1.387 . S
C21 C25 1.391 . S
C22 C21 1.387 . S
C22 C23 1.369 . S
C22 H31 0.929 . S
C23 N20 1.346 . S
C23 C22 1.369 . S
C23 H26 0.928 . S
C24 N20 1.345 . S
C24 C25 1.371 . S
C24 H27 0.931 . S
C25 C21 1.391 . S
C25 C24 1.371 . S
C25 H32 0.930 . S
H26 C23 0.928 . S
H27 C24 0.931 . S
H28 C4 0.930 . S
H29 C1 0.930 1_556 S
H30 C10 0.930 . S
H31 C22 0.929 . S
H32 C25 0.930 . S
C33 C34 1.351 . S
C33 N36 1.368 . S
C33 H38 0.931 . S
C34 C33 1.351 . S
C34 N35 1.373 . S
C34 H62 0.930 . S
N35 C34 1.373 . S
N35 C37 1.340 . S
N36 C33 1.368 . S
N36 C37 1.321 . S
N36 Co39 2.135 . S
C37 N35 1.340 . S
C37 N36 1.321 . S
C37 H61 0.930 . S
H38 C33 0.931 . S
Co39 N36 2.135 . S
Co39 N42 2.121 . S
Co39 O47 2.055 . S
Co39 O50 2.039 . S
Co39 N53 2.140 . S
C40 O41 1.227 . S
C40 O50 1.265 . S
O41 C40 1.227 . S
N42 Co39 2.121 . S
N42 C44 1.375 . S
N42 C45 1.313 . S
C43 C44 1.338 1_554 S
C43 N46 1.377 1_554 S
C43 H63 0.930 . S
C44 N42 1.375 . S
C44 C43 1.338 1_556 S
C44 H48 0.931 . S
C45 N42 1.313 . S
C45 N46 1.344 . S
C45 H49 0.930 . S
N46 C43 1.377 1_556 S
N46 C45 1.344 . S
O47 Co39 2.055 . S
O47 C51 1.253 . S
H48 C44 0.931 . S
H49 C45 0.930 . S
O50 Co39 2.039 . S
O50 C40 1.265 . S
C51 O47 1.253 . S
C51 O52 1.227 . S
O52 C51 1.227 . S
N53 Co39 2.140 . S
N53 C56 1.346 . S
N53 C57 1.345 . S
C54 C55 1.387 . S
C54 C58 1.391 . S
C55 C54 1.387 . S
C55 C56 1.369 . S
C55 H64 0.929 . S
C56 N53 1.346 . S
C56 C55 1.369 . S
C56 H59 0.928 . S
C57 N53 1.345 . S
C57 C58 1.371 . S
C57 H60 0.931 . S
C58 C54 1.391 . S
C58 C57 1.371 . S
C58 H65 0.930 . S
H59 C56 0.928 . S
H60 C57 0.931 . S
H61 C37 0.930 . S
H62 C34 0.930 . S
H63 C43 0.930 . S
H64 C55 0.929 . S
H65 C58 0.930 . S
C66 C67 1.351 . S
C66 N69 1.368 . S
C66 H71 0.931 . S
C67 C66 1.351 . S
C67 N68 1.373 . S
C67 H95 0.930 1_556 S
N68 C67 1.373 . S
N68 C70 1.340 . S
N69 C66 1.368 . S
N69 C70 1.321 . S
N69 Co72 2.135 . S
C70 N68 1.340 . S
C70 N69 1.321 . S
C70 H94 0.930 . S
H71 C66 0.931 . S
Co72 N69 2.135 . S
Co72 N75 2.121 . S
Co72 O80 2.055 . S
Co72 O83 2.039 . S
Co72 N86 2.140 . S
C73 O74 1.227 . S
C73 O83 1.265 . S
O74 C73 1.227 . S
N75 Co72 2.121 . S
N75 C77 1.375 . S
N75 C78 1.313 . S
C76 C77 1.338 . S
C76 N79 1.377 . S
C76 H96 0.930 . S
C77 N75 1.375 . S
C77 C76 1.338 . S
C77 H81 0.931 . S
C78 N75 1.313 . S
C78 N79 1.344 . S
C78 H82 0.930 . S
N79 C76 1.377 . S
N79 C78 1.344 . S
O80 Co72 2.055 . S
O80 C84 1.253 . S
H81 C77 0.931 . S
H82 C78 0.930 . S
O83 Co72 2.039 . S
O83 C73 1.265 . S
C84 O80 1.253 . S
C84 O85 1.227 . S
O85 C84 1.227 . S
N86 Co72 2.140 . S
N86 C89 1.346 . S
N86 C90 1.345 . S
C87 C88 1.387 . S
C87 C91 1.391 . S
C88 C87 1.387 . S
C88 C89 1.369 . S
C88 H97 0.929 . S
C89 N86 1.346 . S
C89 C88 1.369 . S
C89 H92 0.928 . S
C90 N86 1.345 . S
C90 C91 1.371 . S
C90 H93 0.931 . S
C91 C87 1.391 . S
C91 C90 1.371 . S
C91 H98 0.930 . S
H92 C89 0.928 . S
H93 C90 0.931 . S
H94 C70 0.930 . S
H95 C67 0.930 1_554 S
H96 C76 0.930 . S
H97 C88 0.929 . S
H98 C91 0.930 . S
C99 C100 1.351 . S
C99 N102 1.368 . S
C99 H104 0.931 . S
C100 C99 1.351 . S
C100 N101 1.373 . S
C100 H128 0.930 . S
N101 C100 1.373 . S
N101 C103 1.340 . S
N102 C99 1.368 . S
N102 C103 1.321 . S
N102 Co105 2.135 . S
C103 N101 1.340 . S
C103 N102 1.321 . S
C103 H127 0.930 . S
H104 C99 0.931 . S
Co105 N102 2.135 . S
Co105 N108 2.121 . S
Co105 O113 2.055 . S
Co105 O116 2.039 . S
Co105 N119 2.140 . S
C106 O107 1.227 . S
C106 O116 1.265 . S
O107 C106 1.227 . S
N108 Co105 2.121 . S
N108 C110 1.375 . S
N108 C111 1.313 . S
C109 C110 1.338 1_556 S
C109 N112 1.377 1_556 S
C109 H129 0.930 . S
C110 N108 1.375 . S
C110 C109 1.338 1_554 S
C110 H114 0.931 . S
C111 N108 1.313 . S
C111 N112 1.344 . S
C111 H115 0.930 . S
N112 C109 1.377 1_554 S
N112 C111 1.344 . S
O113 Co105 2.055 . S
O113 C117 1.253 . S
H114 C110 0.931 . S
H115 C111 0.930 . S
O116 Co105 2.039 . S
O116 C106 1.265 . S
C117 O113 1.253 . S
C117 O118 1.227 . S
O118 C117 1.227 . S
N119 Co105 2.140 . S
N119 C122 1.346 . S
N119 C123 1.345 . S
C120 C121 1.387 . S
C120 C124 1.391 . S
C121 C120 1.387 . S
C121 C122 1.369 . S
C121 H130 0.929 . S
C122 N119 1.346 . S
C122 C121 1.369 . S
C122 H125 0.928 . S
C123 N119 1.345 . S
C123 C124 1.371 . S
C123 H126 0.931 . S
C124 C120 1.391 . S
C124 C123 1.371 . S
C124 H131 0.930 . S
H125 C122 0.928 . S
H126 C123 0.931 . S
H127 C103 0.930 . S
H128 C100 0.930 . S
H129 C109 0.930 . S
H130 C121 0.929 . S
H131 C124 0.930 . S
C132 C133 1.351 . S
C132 N135 1.368 . S
C132 H137 0.931 . S
C133 C132 1.351 . S
C133 N134 1.373 . S
C133 H161 0.930 1_554 S
N134 C133 1.373 . S
N134 C136 1.340 . S
N135 C132 1.368 . S
N135 C136 1.321 . S
N135 Co138 2.135 . S
C136 N134 1.340 . S
C136 N135 1.321 . S
C136 H160 0.930 . S
H137 C132 0.931 . S
Co138 N135 2.135 . S
Co138 N141 2.121 . S
Co138 O146 2.055 . S
Co138 O149 2.039 . S
Co138 N152 2.140 . S
C139 O140 1.227 . S
C139 O149 1.265 . S
O140 C139 1.227 . S
N141 Co138 2.121 . S
N141 C143 1.375 . S
N141 C144 1.313 . S
C142 C143 1.338 . S
C142 N145 1.377 . S
C142 H162 0.930 . S
C143 N141 1.375 . S
C143 C142 1.338 . S
C143 H147 0.931 . S
C144 N141 1.313 . S
C144 N145 1.344 . S
C144 H148 0.930 . S
N145 C142 1.377 . S
N145 C144 1.344 . S
O146 Co138 2.055 . S
O146 C150 1.253 . S
H147 C143 0.931 . S
H148 C144 0.930 . S
O149 Co138 2.039 . S
O149 C139 1.265 . S
C150 O146 1.253 . S
C150 O151 1.227 . S
O151 C150 1.227 . S
N152 Co138 2.140 . S
N152 C155 1.346 . S
N152 C156 1.345 . S
C153 C154 1.387 . S
C153 C157 1.391 . S
C154 C153 1.387 . S
C154 C155 1.369 . S
C154 H163 0.929 . S
C155 N152 1.346 . S
C155 C154 1.369 . S
C155 H158 0.928 . S
C156 N152 1.345 . S
C156 C157 1.371 . S
C156 H159 0.931 . S
C157 C153 1.391 . S
C157 C156 1.371 . S
C157 H164 0.930 . S
H158 C155 0.928 . S
H159 C156 0.931 . S
H160 C136 0.930 . S
H161 C133 0.930 1_556 S
H162 C142 0.930 . S
H163 C154 0.929 . S
H164 C157 0.930 . S
C165 C166 1.351 . S
C165 N168 1.368 . S
C165 H170 0.931 . S
C166 C165 1.351 . S
C166 N167 1.373 . S
C166 H194 0.930 . S
N167 C166 1.373 . S
N167 C169 1.340 . S
N168 C165 1.368 . S
N168 C169 1.321 . S
N168 Co171 2.135 . S
C169 N167 1.340 . S
C169 N168 1.321 . S
C169 H193 0.930 . S
H170 C165 0.931 . S
Co171 N168 2.135 . S
Co171 N174 2.121 . S
Co171 O179 2.055 . S
Co171 O182 2.039 . S
Co171 N185 2.140 . S
C172 O173 1.227 . S
C172 O182 1.265 . S
O173 C172 1.227 . S
N174 Co171 2.121 . S
N174 C176 1.375 . S
N174 C177 1.313 . S
C175 C176 1.338 1_554 S
C175 N178 1.377 1_554 S
C175 H195 0.930 . S
C176 N174 1.375 . S
C176 C175 1.338 1_556 S
C176 H180 0.931 . S
C177 N174 1.313 . S
C177 N178 1.344 . S
C177 H181 0.930 . S
N178 C175 1.377 1_556 S
N178 C177 1.344 . S
O179 Co171 2.055 . S
O179 C183 1.253 . S
H180 C176 0.931 . S
H181 C177 0.930 . S
O182 Co171 2.039 . S
O182 C172 1.265 . S
C183 O179 1.253 . S
C183 O184 1.227 . S
O184 C183 1.227 . S
N185 Co171 2.140 . S
N185 C188 1.346 . S
N185 C189 1.345 . S
C186 C187 1.387 . S
C186 C190 1.391 . S
C187 C186 1.387 . S
C187 C188 1.369 . S
C187 H196 0.929 . S
C188 N185 1.346 . S
C188 C187 1.369 . S
C188 H191 0.928 . S
C189 N185 1.345 . S
C189 C190 1.371 . S
C189 H192 0.931 . S
C190 C186 1.391 . S
C190 C189 1.371 . S
C190 H197 0.930 . S
H191 C188 0.928 . S
H192 C189 0.931 . S
H193 C169 0.930 . S
H194 C166 0.930 . S
H195 C175 0.930 . S
H196 C187 0.929 . S
H197 C190 0.930 . S
C198 C199 1.351 . S
C198 N201 1.368 . S
C198 H203 0.931 . S
C199 C198 1.351 . S
C199 N200 1.373 . S
C199 H227 0.930 1_556 S
N200 C199 1.373 . S
N200 C202 1.340 . S
N201 C198 1.368 . S
N201 C202 1.321 . S
N201 Co204 2.135 . S
C202 N200 1.340 . S
C202 N201 1.321 . S
C202 H226 0.930 . S
H203 C198 0.931 . S
Co204 N201 2.135 . S
Co204 N207 2.121 . S
Co204 O212 2.055 . S
Co204 O215 2.039 . S
Co204 N218 2.140 . S
C205 O206 1.227 . S
C205 O215 1.265 . S
O206 C205 1.227 . S
N207 Co204 2.121 . S
N207 C209 1.375 . S
N207 C210 1.313 . S
C208 C209 1.338 . S
C208 N211 1.377 . S
C208 H228 0.930 . S
C209 N207 1.375 . S
C209 C208 1.338 . S
C209 H213 0.931 . S
C210 N207 1.313 . S
C210 N211 1.344 . S
C210 H214 0.930 . S
N211 C208 1.377 . S
N211 C210 1.344 . S
O212 Co204 2.055 . S
O212 C216 1.253 . S
H213 C209 0.931 . S
H214 C210 0.930 . S
O215 Co204 2.039 . S
O215 C205 1.265 . S
C216 O212 1.253 . S
C216 O217 1.227 . S
O217 C216 1.227 . S
N218 Co204 2.140 . S
N218 C221 1.346 . S
N218 C222 1.345 . S
C219 C220 1.387 . S
C219 C223 1.391 . S
C220 C219 1.387 . S
C220 C221 1.369 . S
C220 H229 0.929 . S
C221 N218 1.346 . S
C221 C220 1.369 . S
C221 H224 0.928 . S
C222 N218 1.345 . S
C222 C223 1.371 . S
C222 H225 0.931 . S
C223 C219 1.391 . S
C223 C222 1.371 . S
C223 H230 0.930 . S
H224 C221 0.928 . S
H225 C222 0.931 . S
H226 C202 0.930 . S
H227 C199 0.930 1_554 S
H228 C208 0.930 . S
H229 C220 0.929 . S
H230 C223 0.930 . S
C231 C232 1.351 . S
C231 N234 1.368 . S
C231 H236 0.931 . S
C232 C231 1.351 . S
C232 N233 1.373 . S
C232 H260 0.930 . S
N233 C232 1.373 . S
N233 C235 1.340 . S
N234 C231 1.368 . S
N234 C235 1.321 . S
N234 Co237 2.135 . S
C235 N233 1.340 . S
C235 N234 1.321 . S
C235 H259 0.930 . S
H236 C231 0.931 . S
Co237 N234 2.135 . S
Co237 N240 2.121 . S
Co237 O245 2.055 . S
Co237 O248 2.039 . S
Co237 N251 2.140 . S
C238 O239 1.227 . S
C238 O248 1.265 . S
O239 C238 1.227 . S
N240 Co237 2.121 . S
N240 C242 1.375 . S
N240 C243 1.313 . S
C241 C242 1.338 1_556 S
C241 N244 1.377 1_556 S
C241 H261 0.930 . S
C242 N240 1.375 . S
C242 C241 1.338 1_554 S
C242 H246 0.931 . S
C243 N240 1.313 . S
C243 N244 1.344 . S
C243 H247 0.930 . S
N244 C241 1.377 1_554 S
N244 C243 1.344 . S
O245 Co237 2.055 . S
O245 C249 1.253 . S
H246 C242 0.931 . S
H247 C243 0.930 . S
O248 Co237 2.039 . S
O248 C238 1.265 . S
C249 O245 1.253 . S
C249 O250 1.227 . S
O250 C249 1.227 . S
N251 Co237 2.140 . S
N251 C254 1.346 . S
N251 C255 1.345 . S
C252 C253 1.387 . S
C252 C256 1.391 . S
C253 C252 1.387 . S
C253 C254 1.369 . S
C253 H262 0.929 . S
C254 N251 1.346 . S
C254 C253 1.369 . S
C254 H257 0.928 . S
C255 N251 1.345 . S
C255 C256 1.371 . S
C255 H258 0.931 . S
C256 C252 1.391 . S
C256 C255 1.371 . S
C256 H263 0.930 . S
H257 C254 0.928 . S
H258 C255 0.931 . S
H259 C235 0.930 . S
H260 C232 0.930 . S
H261 C241 0.930 . S
H262 C253 0.929 . S
H263 C256 0.930 . S
C264 C265 1.387 . S
C264 H268 0.950 . S
C264 C273 1.390 . S
C265 C264 1.387 . S
C265 C267 1.387 . S
H266 C273 0.950 . S
C267 C265 1.387 . S
C267 C269 1.390 . S
C267 H271 0.950 . S
H268 C264 0.950 . S
C269 C267 1.390 . S
C269 C270 1.387 . S
C269 H272 0.950 . S
C270 C269 1.387 . S
C270 C273 1.387 . S
H271 C267 0.950 . S
H272 C269 0.950 . S
C273 C264 1.390 . S
C273 H266 0.950 . S
C273 C270 1.387 . S
C274 C275 1.387 . S
C274 H278 0.950 . S
C274 C283 1.390 . S
C275 C274 1.387 . S
C275 C277 1.387 . S
H276 C283 0.950 . S
C277 C275 1.387 . S
C277 C279 1.390 . S
C277 H281 0.950 . S
H278 C274 0.950 . S
C279 C277 1.390 . S
C279 C280 1.387 . S
C279 H282 0.950 . S
C280 C279 1.387 . S
C280 C283 1.387 . S
H281 C277 0.950 . S
H282 C279 0.950 . S
C283 C274 1.390 . S
C283 H276 0.950 . S
C283 C280 1.387 . S
C284 C285 1.387 . S
C284 H288 0.950 . S
C284 C293 1.390 1_455 S
C285 C284 1.387 . S
C285 C287 1.387 . S
H286 C293 0.950 . S
C287 C285 1.387 . S
C287 C289 1.390 1_455 S
C287 H291 0.950 . S
H288 C284 0.950 . S
C289 C287 1.390 1_655 S
C289 C290 1.387 . S
C289 H292 0.950 . S
C290 C289 1.387 . S
C290 C293 1.387 . S
H291 C287 0.950 . S
H292 C289 0.950 . S
C293 C284 1.390 1_655 S
C293 H286 0.950 . S
C293 C290 1.387 . S
C294 C295 1.387 . S
C294 H298 0.950 . S
C294 C303 1.390 1_455 S
C295 C294 1.387 . S
C295 C297 1.387 . S
H296 C303 0.950 . S
C297 C295 1.387 . S
C297 C299 1.390 1_455 S
C297 H301 0.950 . S
H298 C294 0.950 . S
C299 C297 1.390 1_655 S
C299 C300 1.387 . S
C299 H302 0.950 . S
C300 C299 1.387 . S
C300 C303 1.387 . S
H301 C297 0.950 . S
H302 C299 0.950 . S
C303 C294 1.390 1_655 S
C303 H296 0.950 . S
C303 C300 1.387 . S
C304 C305 1.387 . S
C304 H308 0.950 . S
C304 C313 1.390 1_556 S
C305 C304 1.387 . S
C305 C307 1.387 . S
H306 C313 0.950 . S
C307 C305 1.387 . S
C307 C309 1.390 1_556 S
C307 H311 0.950 . S
H308 C304 0.950 . S
C309 C307 1.390 1_554 S
C309 C310 1.387 . S
C309 H312 0.950 . S
C310 C309 1.387 . S
C310 C313 1.387 . S
H311 C307 0.950 . S
H312 C309 0.950 . S
C313 C304 1.390 1_554 S
C313 H306 0.950 . S
C313 C310 1.387 . S
C314 C315 1.387 . S
C314 H318 0.950 . S
C314 C323 1.390 . S
C315 C314 1.387 . S
C315 C317 1.387 . S
H316 C323 0.950 . S
C317 C315 1.387 . S
C317 C319 1.390 . S
C317 H321 0.950 . S
H318 C314 0.950 . S
C319 C317 1.390 . S
C319 C320 1.387 . S
C319 H322 0.950 . S
C320 C319 1.387 . S
C320 C323 1.387 . S
H321 C317 0.950 . S
H322 C319 0.950 . S
C323 C314 1.390 . S
C323 H316 0.950 . S
C323 C320 1.387 . S
C324 C325 1.387 . S
C324 H328 0.950 . S
C324 C333 1.390 1_556 S
C325 C324 1.387 . S
C325 C327 1.387 . S
H326 C333 0.950 . S
C327 C325 1.387 . S
C327 C329 1.390 1_556 S
C327 H331 0.950 . S
H328 C324 0.950 . S
C329 C327 1.390 1_554 S
C329 C330 1.387 . S
C329 H332 0.950 . S
C330 C329 1.387 . S
C330 C333 1.387 . S
H331 C327 0.950 . S
H332 C329 0.950 . S
C333 C324 1.390 1_554 S
C333 H326 0.950 . S
C333 C330 1.387 . S
C334 C335 1.387 . S
C334 H338 0.950 . S
C334 C343 1.390 . S
C335 C334 1.387 . S
C335 C337 1.387 . S
H336 C343 0.950 . S
C337 C335 1.387 . S
C337 C339 1.390 . S
C337 H341 0.950 . S
H338 C334 0.950 . S
C339 C337 1.390 . S
C339 C340 1.387 . S
C339 H342 0.950 . S
C340 C339 1.387 . S
C340 C343 1.387 . S
H341 C337 0.950 . S
H342 C339 0.950 . S
C343 C334 1.390 . S
C343 H336 0.950 . S
C343 C340 1.387 . S
C344 C345 1.387 . S
C344 H348 0.950 . S
C344 C353 1.390 1_546 S
C345 C344 1.387 . S
C345 C347 1.387 . S
H346 C353 0.950 . S
C347 C345 1.387 . S
C347 C349 1.390 1_546 S
C347 H351 0.950 . S
H348 C344 0.950 . S
C349 C347 1.390 1_564 S
C349 C350 1.387 . S
C349 H352 0.950 . S
C350 C349 1.387 . S
C350 C353 1.387 . S
H351 C347 0.950 . S
H352 C349 0.950 . S
C353 C344 1.390 1_564 S
C353 H346 0.950 . S
C353 C350 1.387 . S
C354 C355 1.387 . S
C354 H358 0.950 . S
C354 C363 1.390 1_545 S
C355 C354 1.387 . S
C355 C357 1.387 . S
H356 C363 0.950 . S
C357 C355 1.387 . S
C357 C359 1.390 1_545 S
C357 H361 0.950 . S
H358 C354 0.950 . S
C359 C357 1.390 1_565 S
C359 C360 1.387 . S
C359 H362 0.950 . S
C360 C359 1.387 . S
C360 C363 1.387 . S
H361 C357 0.950 . S
H362 C359 0.950 . S
C363 C354 1.390 1_565 S
C363 H356 0.950 . S
C363 C360 1.387 . S
C364 C365 1.387 . S
C364 H368 0.950 . S
C364 C373 1.390 1_546 S
C365 C364 1.387 . S
C365 C367 1.387 . S
H366 C373 0.950 . S
C367 C365 1.387 . S
C367 C369 1.390 1_546 S
C367 H371 0.950 . S
H368 C364 0.950 . S
C369 C367 1.390 1_564 S
C369 C370 1.387 . S
C369 H372 0.950 . S
C370 C369 1.387 . S
C370 C373 1.387 . S
H371 C367 0.950 . S
H372 C369 0.950 . S
C373 C364 1.390 1_564 S
C373 H366 0.950 . S
C373 C370 1.387 . S
C374 C375 1.387 . S
C374 H378 0.950 . S
C374 C383 1.390 1_545 S
C375 C374 1.387 . S
C375 C377 1.387 . S
H376 C383 0.950 . S
C377 C375 1.387 . S
C377 C379 1.390 1_545 S
C377 H381 0.950 . S
H378 C374 0.950 . S
C379 C377 1.390 1_565 S
C379 C380 1.387 . S
C379 H382 0.950 . S
C380 C379 1.387 . S
C380 C383 1.387 . S
H381 C377 0.950 . S
H382 C379 0.950 . S
C383 C374 1.390 1_565 S
C383 H376 0.950 . S
C383 C380 1.387 . S
C384 C385 1.387 . S
C384 H388 0.950 . S
C384 C393 1.390 . S
C385 C384 1.387 . S
C385 C387 1.387 . S
H386 C393 0.950 1_556 S
C387 C385 1.387 . S
C387 C389 1.390 . S
C387 H391 0.950 . S
H388 C384 0.950 . S
C389 C387 1.390 . S
C389 C390 1.387 . S
C389 H392 0.950 . S
C390 C389 1.387 . S
C390 C393 1.387 . S
H391 C387 0.950 . S
H392 C389 0.950 . S
C393 C384 1.390 . S
C393 H386 0.950 1_554 S
C393 C390 1.387 . S
C394 C395 1.387 . S
C394 H398 0.950 . S
C394 C403 1.390 . S
C395 C394 1.387 . S
C395 C397 1.387 . S
H396 C403 0.950 . S
C397 C395 1.387 . S
C397 C399 1.390 . S
C397 H401 0.950 . S
H398 C394 0.950 . S
C399 C397 1.390 . S
C399 C400 1.387 . S
C399 H402 0.950 . S
C400 C399 1.387 . S
C400 C403 1.387 . S
H401 C397 0.950 . S
H402 C399 0.950 . S
C403 C394 1.390 . S
C403 H396 0.950 . S
C403 C400 1.387 . S
C404 C405 1.387 . S
C404 H408 0.950 1_556 S
C404 C413 1.390 . S
C405 C404 1.387 . S
C405 C407 1.387 . S
H406 C413 0.950 . S
C407 C405 1.387 . S
C407 C409 1.390 . S
C407 H411 0.950 . S
H408 C404 0.950 1_554 S
C409 C407 1.390 . S
C409 C410 1.387 . S
C409 H412 0.950 . S
C410 C409 1.387 . S
C410 C413 1.387 . S
H411 C407 0.950 . S
H412 C409 0.950 . S
C413 C404 1.390 . S
C413 H406 0.950 . S
C413 C410 1.387 . S
C414 C415 1.387 . S
C414 H418 0.950 . S
C414 C423 1.390 . S
C415 C414 1.387 . S
C415 C417 1.387 . S
H416 C423 0.950 . S
C417 C415 1.387 . S
C417 C419 1.390 . S
C417 H421 0.950 . S
H418 C414 0.950 . S
C419 C417 1.390 . S
C419 C420 1.387 . S
C419 H422 0.950 . S
C420 C419 1.387 . S
C420 C423 1.387 . S
H421 C417 0.950 . S
H422 C419 0.950 . S
C423 C414 1.390 . S
C423 H416 0.950 . S
C423 C420 1.387 . S
C424 C425 1.387 . S
C424 H428 0.950 1_554 S
C424 C433 1.390 . S
C425 C424 1.387 . S
C425 C427 1.387 . S
H426 C433 0.950 . S
C427 C425 1.387 . S
C427 C429 1.390 . S
C427 H431 0.950 . S
H428 C424 0.950 1_556 S
C429 C427 1.390 . S
C429 C430 1.387 . S
C429 H432 0.950 . S
C430 C429 1.387 . S
C430 C433 1.387 . S
H431 C427 0.950 . S
H432 C429 0.950 . S
C433 C424 1.390 . S
C433 H426 0.950 . S
C433 C430 1.387 . S
C434 C435 1.387 . S
C434 H438 0.950 . S
C434 C443 1.390 . S
C435 C434 1.387 . S
C435 C437 1.387 . S
H436 C443 0.950 . S
C437 C435 1.387 . S
C437 C439 1.390 . S
C437 H441 0.950 . S
H438 C434 0.950 . S
C439 C437 1.390 . S
C439 C440 1.387 . S
C439 H442 0.950 . S
C440 C439 1.387 . S
C440 C443 1.387 . S
H441 C437 0.950 . S
H442 C439 0.950 . S
C443 C434 1.390 . S
C443 H436 0.950 . S
C443 C440 1.387 . S
C444 C445 1.387 . S
C444 H448 0.950 . S
C444 C453 1.390 . S
C445 C444 1.387 . S
C445 C447 1.387 . S
H446 C453 0.950 1_554 S
C447 C445 1.387 . S
C447 C449 1.390 . S
C447 H451 0.950 . S
H448 C444 0.950 . S
C449 C447 1.390 . S
C449 C450 1.387 . S
C449 H452 0.950 . S
C450 C449 1.387 . S
C450 C453 1.387 . S
H451 C447 0.950 . S
H452 C449 0.950 . S
C453 C444 1.390 . S
C453 H446 0.950 1_556 S
C453 C450 1.387 . S
C454 C455 1.387 . S
C454 H458 0.950 . S
C454 C463 1.390 . S
C455 C454 1.387 . S
C455 C457 1.387 . S
H456 C463 0.950 . S
C457 C455 1.387 . S
C457 C459 1.390 . S
C457 H461 0.950 . S
H458 C454 0.950 . S
C459 C457 1.390 . S
C459 C460 1.387 . S
C459 H462 0.950 . S
C460 C459 1.387 . S
C460 C463 1.387 . S
H461 C457 0.950 . S
H462 C459 0.950 . S
C463 C454 1.390 . S
C463 H456 0.950 . S
C463 C460 1.387 . S
C265 C21 1.541 . S
C270 C120 1.541 . S
C275 C54 1.541 . S
C280 C87 1.541 . S
C285 C252 1.541 . S
C290 C153 1.541 . S
C295 C186 1.542 . S
C300 C219 1.542 . S
C305 N68 1.122 . S
C310 N2 1.122 . S
C315 N101 1.122 . S
C320 N35 1.122 . S
C325 C40 1.670 . S
C330 C106 1.670 . S
C335 C7 1.670 . S
C340 C73 1.670 . S
C345 N200 1.122 . S
C350 N134 1.122 . S
C355 N167 1.122 . S
C360 N233 1.122 . S
C365 C172 1.670 . S
C370 C238 1.670 . S
C375 C205 1.671 . S
C380 C139 1.671 . S
C385 C18 1.448 . S
C390 N178 1.429 1_554 S
C395 C51 1.448 . S
C400 N145 1.429 . S
C405 N244 1.430 1_556 S
C410 C84 1.448 . S
C415 C117 1.448 . S
C420 N211 1.431 . S
C425 N46 1.429 1_554 S
C430 C150 1.448 . S
C435 C183 1.447 . S
C440 N13 1.430 . S
C445 C216 1.449 . S
C450 N112 1.429 1_556 S
C455 C249 1.448 . S
C460 N79 1.430 . S
