# Generated by pormake.
# Topology wjl, (5)-cn, num edge types: 1
# Building blocks:
#     Node 0, Type 0, BuildingBlock: BEQFEK_clean_sbu_0, # of connection points: 5
#     Node 1, Type 0, BuildingBlock: BEQFEK_clean_sbu_0, # of connection points: 5
#     Node 2, Type 0, BuildingBlock: BEQFEK_clean_sbu_0, # of connection points: 5
#     Node 3, Type 0, BuildingBlock: BEQFEK_clean_sbu_0, # of connection points: 5
#     Node 4, Type 0, BuildingBlock: BEQFEK_clean_sbu_0, # of connection points: 5
#     Node 5, Type 0, BuildingBlock: BEQFEK_clean_sbu_0, # of connection points: 5
#     Node 6, Type 0, BuildingBlock: BEQFEK_clean_sbu_0, # of connection points: 5
#     Node 7, Type 0, BuildingBlock: BEQFEK_clean_sbu_0, # of connection points: 5
#     Node 8, Type 0, BuildingBlock: BEQFEK_clean_sbu_0, # of connection points: 5
#     Node 9, Type 0, BuildingBlock: BEQFEK_clean_sbu_0, # of connection points: 5
#     Node 10, Type 0, BuildingBlock: BEQFEK_clean_sbu_0, # of connection points: 5
#     Node 11, Type 0, BuildingBlock: BEQFEK_clean_sbu_0, # of connection points: 5
#     Edge 12, Type (0, 0), BuildingBlock: XUDNAN_clean_linker_2, # of connection points: 2
#     Edge 13, Type (0, 0), BuildingBlock: XUDNAN_clean_linker_2, # of connection points: 2
#     Edge 14, Type (0, 0), BuildingBlock: XUDNAN_clean_linker_2, # of connection points: 2
#     Edge 15, Type (0, 0), BuildingBlock: XUDNAN_clean_linker_2, # of connection points: 2
#     Edge 16, Type (0, 0), BuildingBlock: XUDNAN_clean_linker_2, # of connection points: 2
#     Edge 17, Type (0, 0), BuildingBlock: XUDNAN_clean_linker_2, # of connection points: 2
#     Edge 18, Type (0, 0), BuildingBlock: XUDNAN_clean_linker_2, # of connection points: 2
#     Edge 19, Type (0, 0), BuildingBlock: XUDNAN_clean_linker_2, # of connection points: 2
#     Edge 20, Type (0, 0), BuildingBlock: XUDNAN_clean_linker_2, # of connection points: 2
#     Edge 21, Type (0, 0), BuildingBlock: XUDNAN_clean_linker_2, # of connection points: 2
#     Edge 22, Type (0, 0), BuildingBlock: XUDNAN_clean_linker_2, # of connection points: 2
#     Edge 23, Type (0, 0), BuildingBlock: XUDNAN_clean_linker_2, # of connection points: 2
#     Edge 24, Type (0, 0), BuildingBlock: XUDNAN_clean_linker_2, # of connection points: 2
#     Edge 25, Type (0, 0), BuildingBlock: XUDNAN_clean_linker_2, # of connection points: 2
#     Edge 26, Type (0, 0), BuildingBlock: XUDNAN_clean_linker_2, # of connection points: 2
#     Edge 27, Type (0, 0), BuildingBlock: XUDNAN_clean_linker_2, # of connection points: 2
#     Edge 28, Type (0, 0), BuildingBlock: XUDNAN_clean_linker_2, # of connection points: 2
#     Edge 29, Type (0, 0), BuildingBlock: XUDNAN_clean_linker_2, # of connection points: 2
#     Edge 30, Type (0, 0), BuildingBlock: XUDNAN_clean_linker_2, # of connection points: 2
#     Edge 31, Type (0, 0), BuildingBlock: XUDNAN_clean_linker_2, # of connection points: 2
#     Edge 32, Type (0, 0), BuildingBlock: XUDNAN_clean_linker_2, # of connection points: 2
#     Edge 33, Type (0, 0), BuildingBlock: XUDNAN_clean_linker_2, # of connection points: 2
#     Edge 34, Type (0, 0), BuildingBlock: XUDNAN_clean_linker_2, # of connection points: 2
#     Edge 35, Type (0, 0), BuildingBlock: XUDNAN_clean_linker_2, # of connection points: 2
#     Edge 36, Type (0, 0), BuildingBlock: XUDNAN_clean_linker_2, # of connection points: 2
#     Edge 37, Type (0, 0), BuildingBlock: XUDNAN_clean_linker_2, # of connection points: 2
#     Edge 38, Type (0, 0), BuildingBlock: XUDNAN_clean_linker_2, # of connection points: 2
#     Edge 39, Type (0, 0), BuildingBlock: XUDNAN_clean_linker_2, # of connection points: 2
#     Edge 40, Type (0, 0), BuildingBlock: XUDNAN_clean_linker_2, # of connection points: 2
#     Edge 41, Type (0, 0), BuildingBlock: XUDNAN_clean_linker_2, # of connection points: 2
# Relax obj value: 0.497
# Max RMSD: 0.235
# Mean RMSD: 0.235
data_MOF--net-wjl--node1-BEQFEK_clean_sbu_0--edge1-XUDNAN_clean_linker_2
_symmetry_space_group_name_H-M    P1
_symmetry_Int_Tables_number       1
_symmetry_cell_setting            triclinic
loop_
_symmetry_equiv_pos_as_xyz
'x, y, z'
_cell_length_a     27.217176
_cell_length_b     27.252084
_cell_length_c     82.922436
_cell_angle_alpha  89.990056
_cell_angle_beta   90.029024
_cell_angle_gamma 119.94055
loop_
_atom_site_label
_atom_site_type_symbol
_atom_site_fract_x
_atom_site_fract_y
_atom_site_fract_z
_atom_type_partial_charge
Co0 Co 0.42476 0.08378 0.35725 0.0
Co1 Co 0.32366 0.0326 0.33288 0.0
C2 C 0.42198 0.14522 0.32694 0.0
O3 O 0.44276 0.1426 0.34045 0.0
O4 O 0.37589 0.10403 0.32166 0.0
C5 C 0.54131 0.13008 0.36246 0.0
O6 O 0.54037 0.12525 0.34668 0.0
C7 C 0.23984 0.00074 0.30644 0.0
C8 C 0.18325 0.91 0.31159 0.0
C9 C 0.19262 0.95198 0.3005 0.0
N10 N 0.25804 0.98707 0.3199 0.0
N11 N 0.22305 0.93315 0.32313 0.0
C12 C 0.26443 0.06034 0.30055 0.0
H13 H 0.28302 0.09037 0.31076 0.0
H14 H 0.29854 0.06958 0.2917 0.0
H15 H 0.23134 0.06699 0.29484 0.0
C16 C 0.4273 0.97957 0.3491 0.0
N17 N 0.40419 0.01309 0.34793 0.0
N18 N 0.36369 0.9924 0.33699 0.0
C19 C 0.36183 0.94628 0.3303 0.0
C20 C 0.40167 0.93639 0.33788 0.0
C21 C 0.47181 0.98757 0.3611 0.0
H22 H 0.46737 0.00748 0.37224 0.0
H23 H 0.51433 0.01539 0.35583 0.0
H24 H 0.46853 0.94639 0.36417 0.0
O25 O 0.36413 0.0777 0.37114 0.0
O26 O 0.2947 0.05027 0.35315 0.0
H27 H 0.28722 0.88016 0.31918 0.0
H28 H 0.35127 0.90043 0.30818 0.0
C29 C 0.32845 0.91678 0.31553 0.0
H30 H 0.32079 0.94606 0.30807 0.0
H31 H 0.22705 0.91189 0.33305 0.0
O32 O 0.49484 0.1125 0.36999 0.0
C33 C 0.31405 0.06553 0.36739 0.0
Co34 Co 0.35251 0.41065 0.53007 0.0
Co35 Co 0.29623 0.31197 0.50489 0.0
C36 C 0.26821 0.40376 0.50508 0.0
O37 O 0.29956 0.42432 0.51743 0.0
O38 O 0.26378 0.36042 0.4979 0.0
C39 C 0.40905 0.52629 0.53768 0.0
O40 O 0.39705 0.52951 0.5225 0.0
C41 C 0.25007 0.23982 0.47559 0.0
C42 C 0.2789 0.17831 0.47996 0.0
C43 C 0.253 0.19485 0.46845 0.0
N44 N 0.27539 0.25033 0.49016 0.0
N45 N 0.29084 0.21223 0.49285 0.0
C46 C 0.21974 0.2693 0.46954 0.0
H47 H 0.20251 0.28202 0.47979 0.0
H48 H 0.24981 0.30788 0.46277 0.0
H49 H 0.1836 0.241 0.46167 0.0
C50 C 0.45713 0.42389 0.51614 0.0
N51 N 0.40027 0.39758 0.51679 0.0
N52 N 0.37822 0.35691 0.50595 0.0
C53 C 0.42133 0.35702 0.49775 0.0
C54 C 0.47266 0.399 0.50412 0.0
C55 C 0.49539 0.47455 0.52617 0.0
H56 H 0.48943 0.51037 0.52257 0.0
H57 H 0.54081 0.48832 0.52458 0.0
H58 H 0.48386 0.46514 0.53908 0.0
O59 O 0.30918 0.34626 0.54414 0.0
O60 O 0.26187 0.27683 0.52646 0.0
H61 H 0.45272 0.3321 0.4771 0.0
H62 H 0.3783 0.31071 0.47646 0.0
C63 C 0.41373 0.31689 0.4844 0.0
H64 H 0.4036 0.27553 0.48968 0.0
H65 H 0.31164 0.21083 0.50327 0.0
O66 O 0.39553 0.47825 0.54363 0.0
C67 C 0.27272 0.29527 0.54091 0.0
Co68 Co 0.91182 0.33525 0.68745 0.0
Co69 Co 0.97302 0.2865 0.66666 0.0
C70 C 0.8611 0.26878 0.65674 0.0
O71 O 0.86044 0.29543 0.66926 0.0
O72 O 0.90307 0.26186 0.65357 0.0
C73 C 0.85616 0.39912 0.69122 0.0
O74 O 0.85733 0.40006 0.67538 0.0
C75 C 0.03221 0.2607 0.64059 0.0
C76 C 0.08048 0.23172 0.65531 0.0
C77 C 0.06986 0.23979 0.63943 0.0
N78 N 0.02196 0.26448 0.65631 0.0
N79 N 0.05081 0.24686 0.66498 0.0
C80 C 0.00748 0.27891 0.62735 0.0
H81 H 0.98574 0.30078 0.63234 0.0
H82 H 0.04139 0.30797 0.61898 0.0
H83 H 0.97591 0.24117 0.62056 0.0
C84 C 0.01423 0.44195 0.68074 0.0
N85 N 0.98587 0.38519 0.68034 0.0
N86 N 0.01019 0.36731 0.67002 0.0
C87 C 0.05343 0.41316 0.66281 0.0
C88 C 0.05665 0.4621 0.66921 0.0
C89 C -0.00049 0.47672 0.69157 0.0
H90 H 0.98317 0.45473 0.70326 0.0
H91 H 0.9664 0.48316 0.68584 0.0
H92 H 0.03729 0.51895 0.69375 0.0
O93 O 0.9097 0.27975 0.70218 0.0
O94 O 0.95124 0.24241 0.68772 0.0
H95 H 0.09561 0.37611 0.65019 0.0
H96 H 0.12432 0.45071 0.64627 0.0
C97 C 0.08489 0.40997 0.64844 0.0
H98 H 0.05747 0.3997 0.63763 0.0
H99 H 0.05017 0.24508 0.67756 0.0
O100 O 0.87908 0.37524 0.6988 0.0
C101 C 0.92628 0.24409 0.70056 0.0
Co102 Co 0.5605 0.87013 0.85465 0.0
Co103 Co 0.66654 0.92763 0.8319 0.0
C104 C 0.56787 0.81456 0.82424 0.0
O105 O 0.54434 0.8148 0.83743 0.0
O106 O 0.6151 0.8566 0.81994 0.0
C107 C 0.44319 0.80465 0.86267 0.0
O108 O 0.43888 0.78651 0.84778 0.0
C109 C 0.73407 0.98398 0.80301 0.0
C110 C 0.82154 0.0178 0.81205 0.0
C111 C 0.79058 0.0135 0.79836 0.0
N112 N 0.73177 0.97153 0.81877 0.0
N113 N 0.7842 0.99189 0.8241 0.0
C114 C 0.68302 0.96343 0.79239 0.0
H115 H 0.68375 0.93449 0.7831 0.0
H116 H 0.64345 0.94097 0.79956 0.0
H117 H 0.68356 -0.00058 0.78602 0.0
C118 C 0.55629 0.973 0.84718 0.0
N119 N 0.58187 0.94184 0.84606 0.0
N120 N 0.62764 0.96835 0.83707 0.0
C121 C 0.63321 0.01849 0.83244 0.0
C122 C 0.58814 0.02308 0.83872 0.0
C123 C 0.49876 0.95126 0.8545 0.0
H124 H 0.50168 0.94792 0.86776 0.0
H125 H 0.46966 0.90839 0.84971 0.0
H126 H 0.48012 0.97829 0.85174 0.0
O127 O 0.62063 0.87348 0.86842 0.0
O128 O 0.69415 0.90672 0.85171 0.0
H129 H 0.72063 0.06163 0.82521 0.0
H130 H 0.68685 0.10439 0.82435 0.0
C131 C 0.68077 0.06143 0.82233 0.0
H132 H 0.67058 0.05048 0.80943 0.0
H133 H 0.79452 0.98748 0.83593 0.0
O134 O 0.49139 0.84164 0.86807 0.0
C135 C 0.67165 0.88702 0.8654 0.0
Co136 Co 0.66028 0.5528 0.02785 0.0
Co137 Co 0.71939 0.63777 -0.00042 0.0
C138 C 0.72628 0.53431 0.00093 0.0
O139 O 0.69982 0.52364 0.01428 0.0
O140 O 0.7361 0.57756 0.99257 0.0
C141 C 0.5904 0.44101 0.03837 0.0
O142 O 0.59188 0.43099 0.02293 0.0
C143 C 0.74947 0.70005 0.9683 0.0
C144 C 0.7724 0.78536 0.97716 0.0
C145 C 0.76572 0.75473 0.96321 0.0
N146 N 0.7462 0.69867 0.98451 0.0
N147 N 0.76105 0.75008 0.98969 0.0
C148 C 0.73236 0.64903 0.95796 0.0
H149 H 0.708 0.6096 0.96507 0.0
H150 H 0.70665 0.64908 0.94757 0.0
H151 H 0.77102 0.65029 0.95316 0.0
C152 C 0.55938 0.55247 0.01525 0.0
N153 N 0.61544 0.57161 0.01515 0.0
N154 N 0.63917 0.60671 0.003 0.0
C155 C 0.59822 0.61055 -0.00517 0.0
C156 C 0.54627 0.57592 0.00231 0.0
C157 C 0.51926 0.51294 0.02768 0.0
H158 H 0.54005 0.52278 0.03967 0.0
H159 H 0.50723 0.46885 0.02444 0.0
H160 H 0.48021 0.5161 0.02834 0.0
O161 O 0.71634 0.61825 0.04 0.0
O162 O 0.76526 0.67376 0.01958 0.0
H163 H 0.63846 0.68815 0.98155 0.0
H164 H 0.56827 0.63792 0.97431 0.0
C165 C 0.60804 0.64265 0.97941 0.0
H166 H 0.62691 0.62675 0.97046 0.0
H167 H 0.76118 0.76053 0.00178 0.0
O168 O 0.61481 0.49192 0.04329 0.0
C169 C 0.75844 0.66324 0.03463 0.0
Co170 Co 0.08872 0.6737 0.2001 0.0
Co171 Co 0.04954 0.71478 0.17025 0.0
C172 C 0.16877 0.7519 0.17348 0.0
O173 O 0.15591 0.72633 0.18702 0.0
O174 O 0.13068 0.74974 0.16407 0.0
C175 C 0.14825 0.62069 0.20926 0.0
O176 O 0.15864 0.62693 0.1937 0.0
C177 C 0.01573 0.74962 0.13993 0.0
C178 C 0.92296 0.7047 0.14355 0.0
C179 C 0.96488 0.73825 0.1326 0.0
N180 N 0.00358 0.72299 0.1543 0.0
N181 N 0.94817 0.69696 0.15642 0.0
C182 C 0.07489 0.78717 0.13401 0.0
H183 H 0.10435 0.80597 0.14434 0.0
H184 H 0.08848 0.76165 0.12683 0.0
H185 H 0.07731 0.82178 0.12638 0.0
C186 C 0.00839 0.56218 0.18715 0.0
N187 N 0.0325 0.61884 0.18701 0.0
N188 N 0.01928 0.63516 0.17361 0.0
C189 C 0.98823 0.58898 0.16432 0.0
C190 C 0.98045 0.54113 0.17263 0.0
C191 C 0.011 0.52875 0.20113 0.0
H192 H 0.0145 0.55118 0.21261 0.0
H193 H 0.04862 0.52343 0.1999 0.0
H194 H 0.97262 0.48607 0.20149 0.0
O195 O 0.061 0.71712 0.21145 0.0
O196 O 0.04549 0.75646 0.19002 0.0
H197 H 0.97064 0.55599 0.14004 0.0
H198 H 0.0037 0.63223 0.14159 0.0
C199 C 0.97254 0.59138 0.14716 0.0
H200 H 0.93008 0.58771 0.14683 0.0
H201 H 0.92744 0.6728 0.16657 0.0
O202 O 0.11648 0.6376 0.21536 0.0
C203 C 0.0484 0.75208 0.20529 0.0
Co204 Co 0.90829 0.53614 0.43077 0.0
Co205 Co 0.96965 0.65338 0.44844 0.0
C206 C 0.85231 0.56268 0.45754 0.0
O207 O 0.85153 0.53059 0.44633 0.0
O208 O 0.89568 0.61096 0.46025 0.0
C209 C 0.83893 0.4169 0.42654 0.0
O210 O 0.82053 0.41961 0.44097 0.0
C211 C 0.02478 0.73016 0.47555 0.0
C212 C 0.07379 0.81316 0.46347 0.0
C213 C 0.062 0.7871 0.47842 0.0
N214 N 0.01541 0.72275 0.4596 0.0
N215 N 0.04444 0.77256 0.45245 0.0
C216 C 0.99581 0.68379 0.48772 0.0
H217 H 0.95817 0.68476 0.49245 0.0
H218 H 0.98128 0.64188 0.48205 0.0
H219 H 0.024 0.68954 0.49806 0.0
C220 C 0.00414 0.52868 0.44491 0.0
N221 N 0.97801 0.55819 0.44124 0.0
N222 N 0.00623 0.60904 0.44765 0.0
C223 C 0.05284 0.61437 0.455 0.0
C224 C 0.05258 0.56327 0.45386 0.0
C225 C 0.97795 0.46637 0.44197 0.0
H226 H 0.97618 0.45855 0.42879 0.0
H227 H 0.93386 0.4445 0.44658 0.0
H228 H 0.00139 0.4479 0.44793 0.0
O229 O 0.91508 0.59024 0.41389 0.0
O230 O 0.95615 0.67314 0.42647 0.0
H231 H 0.10251 0.70511 0.45638 0.0
H232 H 0.1386 0.66836 0.46321 0.0
C233 C 0.09734 0.66739 0.46295 0.0
H234 H 0.08477 0.66904 0.47554 0.0
H235 H 0.04475 0.77874 0.44002 0.0
O236 O 0.87839 0.46164 0.42014 0.0
C237 C 0.93386 0.64337 0.41391 0.0
Co238 Co 0.35926 0.89154 0.59721 0.0
Co239 Co 0.30841 0.96145 0.61237 0.0
C240 C 0.27673 0.84385 0.62382 0.0
O241 O 0.31158 0.8409 0.61432 0.0
O242 O 0.27044 0.88711 0.62403 0.0
C243 C 0.41602 0.82881 0.5975 0.0
O244 O 0.40865 0.82989 0.61313 0.0
C245 C 0.29424 0.02079 0.63949 0.0
C246 C 0.24486 0.05745 0.62911 0.0
C247 C 0.26817 0.05183 0.64336 0.0
N248 N 0.28706 0.00888 0.62366 0.0
N249 N 0.25762 0.03099 0.61749 0.0
C250 C 0.32064 0.99788 0.65087 0.0
H251 H 0.2918 0.97691 0.66123 0.0
H252 H 0.33015 0.96754 0.64467 0.0
H253 H 0.36082 0.03291 0.65573 0.0
C254 C 0.46671 0.99488 0.60494 0.0
N255 N 0.40974 0.96455 0.60512 0.0
N256 N 0.38939 0.99521 0.61134 0.0
C257 C 0.43337 0.04685 0.6151 0.0
C258 C 0.48374 0.04826 0.61115 0.0
C259 C 0.50365 0.97137 0.59982 0.0
H260 H 0.49354 0.9561 0.58719 0.0
H261 H 0.49474 0.93495 0.60765 0.0
H262 H 0.54943 0.00242 0.60085 0.0
O263 O 0.30989 0.89475 0.58011 0.0
O264 O 0.27656 0.94797 0.59024 0.0
H265 H 0.38921 0.09374 0.61613 0.0
H266 H 0.46549 0.1364 0.61815 0.0
C267 C 0.42757 0.0953 0.62126 0.0
H268 H 0.42358 0.09247 0.63457 0.0
H269 H 0.24512 0.02693 0.60544 0.0
O270 O 0.3999 0.85503 0.58816 0.0
C271 C 0.28006 0.9187 0.57878 0.0
Co272 Co 0.44368 0.31533 0.76557 0.0
Co273 Co 0.3279 0.26026 0.78398 0.0
C274 C 0.42364 0.23964 0.79341 0.0
O275 O 0.45489 0.27095 0.78208 0.0
O276 O 0.37395 0.23197 0.79579 0.0
C277 C 0.56274 0.37204 0.7593 0.0
O278 O 0.56602 0.35545 0.77394 0.0
C279 C 0.25679 0.2389 0.81242 0.0
C280 C 0.1748 0.22083 0.80192 0.0
C281 C 0.20253 0.22694 0.81642 0.0
N282 N 0.26106 0.23965 0.79627 0.0
N283 N 0.21169 0.22812 0.79005 0.0
C284 C 0.3055 0.25485 0.82366 0.0
H285 H 0.34587 0.28588 0.81779 0.0
H286 H 0.29992 0.27298 0.83503 0.0
H287 H 0.30789 0.21638 0.82662 0.0
C288 C 0.44377 0.41951 0.77406 0.0
N289 N 0.41942 0.36285 0.77437 0.0
N290 N 0.37014 0.34094 0.78173 0.0
C291 C 0.3613 0.38361 0.78622 0.0
C292 C 0.40753 0.43472 0.78134 0.0
C293 C 0.50268 0.45806 0.76802 0.0
H294 H 0.50338 0.45457 0.7547 0.0
H295 H 0.53173 0.44478 0.77321 0.0
H296 H 0.51866 0.50283 0.7714 0.0
O297 O 0.38853 0.26339 0.75005 0.0
O298 O 0.30465 0.22304 0.76217 0.0
H299 H 0.27099 0.34293 0.788 0.0
H300 H 0.30738 0.41545 0.79487 0.0
C301 C 0.30892 0.37555 0.79447 0.0
H302 H 0.30783 0.3605 0.80696 0.0
H303 H 0.20377 0.22712 0.7777 0.0
O304 O 0.51473 0.35994 0.75358 0.0
C305 C 0.33541 0.22919 0.74988 0.0
Co306 Co 0.08983 0.41648 0.93333 0.0
Co307 Co 0.05073 0.30592 0.95353 0.0
C308 C 0.15955 0.41161 0.96074 0.0
O309 O 0.14999 0.4363 0.94922 0.0
O310 O 0.12482 0.36004 0.96417 0.0
C311 C 0.1406 0.53488 0.92911 0.0
O312 O 0.14422 0.5341 0.9449 0.0
C313 C 0.00583 0.23541 0.98229 0.0
C314 C 0.96535 0.14875 0.97228 0.0
C315 C 0.97338 0.17867 0.98646 0.0
N316 N 0.01545 0.2388 0.96633 0.0
N317 N 0.99195 0.18686 0.96045 0.0
C318 C 0.02919 0.28599 0.99318 0.0
H319 H 0.01914 0.31784 0.98827 0.0
H320 H 0.01316 0.27457 0.00569 0.0
H321 H 0.07608 0.30615 0.99342 0.0
C322 C 0.98133 0.40359 0.94619 0.0
N323 N 0.01896 0.38561 0.94403 0.0
N324 N 0.00083 0.33709 0.95161 0.0
C325 C 0.94959 0.32142 0.95812 0.0
C326 C 0.93609 0.36371 0.95534 0.0
C327 C 0.99071 0.46008 0.94083 0.0
H328 H 0.03547 0.48904 0.93799 0.0
H329 H 0.97755 0.47978 0.95034 0.0
H330 H 0.96526 0.45454 0.92982 0.0
O331 O 0.09059 0.36211 0.91749 0.0
O332 O 0.06686 0.28512 0.93207 0.0
H333 H 0.86658 0.25374 0.96481 0.0
H334 H 0.92243 0.26617 0.97861 0.0
C335 C 0.9117 0.26493 0.96569 0.0
H336 H 0.91704 0.23169 0.95961 0.0
H337 H 0.99247 0.17747 0.94827 0.0
O338 O 0.11356 0.4882 0.92154 0.0
C339 C 0.08186 0.31178 0.91873 0.0
Co340 Co 0.67228 0.10136 0.10325 0.0
Co341 Co 0.72486 0.03572 0.12027 0.0
C342 C 0.76244 0.15656 0.12836 0.0
O343 O 0.72717 0.157 0.11843 0.0
O344 O 0.7667 0.11248 0.13033 0.0
C345 C 0.61916 0.16752 0.1033 0.0
O346 O 0.63231 0.17163 0.11868 0.0
C347 C 0.75242 0.98693 0.1477 0.0
C348 C 0.75638 0.91517 0.13669 0.0
C349 C 0.75958 0.94126 0.1513 0.0
N350 N 0.7453 0.98786 0.1317 0.0
N351 N 0.74883 0.94553 0.12513 0.0
C352 C 0.74563 0.02501 0.15939 0.0
H353 H 0.71791 0.04008 0.15422 0.0
H354 H 0.72749 0.00288 0.17096 0.0
H355 H 0.78789 0.06235 0.16184 0.0
C356 C 0.56652 0.00734 0.11722 0.0
N357 N 0.62254 0.03288 0.11401 0.0
N358 N 0.64434 0.00502 0.1212 0.0
C359 C 0.60251 0.96044 0.12911 0.0
C360 C 0.55197 0.96075 0.12705 0.0
C361 C 0.5296 0.03135 0.11257 0.0
H362 H 0.53761 0.0455 0.09984 0.0
H363 H 0.54005 0.06838 0.12035 0.0
H364 H 0.48396 0.00055 0.11407 0.0
O365 O 0.7152 0.08995 0.08571 0.0
O366 O 0.75124 0.0419 0.09766 0.0
H367 H 0.56908 0.87971 0.14123 0.0
H368 H 0.63149 0.93741 0.15022 0.0
C369 C 0.61036 0.91817 0.13863 0.0
H370 H 0.63723 0.90555 0.13181 0.0
H371 H 0.74341 0.93581 0.11285 0.0
O372 O 0.631 0.1374 0.09416 0.0
C373 C 0.74497 0.06578 0.08524 0.0
Co374 Co 0.54771 0.6412 0.26738 0.0
Co375 Co 0.6597 0.69929 0.2875 0.0
C376 C 0.56103 0.71079 0.2971 0.0
O377 O 0.53427 0.68062 0.28504 0.0
O378 O 0.61186 0.72312 0.30005 0.0
C379 C 0.42928 0.57422 0.26606 0.0
O380 O 0.43622 0.5738 0.28173 0.0
C381 C 0.73671 0.71731 0.31445 0.0
C382 C 0.82077 0.76456 0.30279 0.0
C383 C 0.79438 0.74184 0.31735 0.0
N384 N 0.72924 0.72474 0.29881 0.0
N385 N 0.77965 0.75332 0.29193 0.0
C386 C 0.68952 0.69039 0.32646 0.0
H387 H 0.6912 0.7237 0.33452 0.0
H388 H 0.6478 0.66867 0.32027 0.0
H389 H 0.69425 0.65966 0.33411 0.0
C390 C 0.55446 0.53901 0.27422 0.0
N391 N 0.57519 0.59514 0.27543 0.0
N392 N 0.6219 0.61818 0.28415 0.0
C393 C 0.6322 0.57654 0.2888 0.0
C394 C 0.58978 0.52515 0.28269 0.0
C395 C 0.49919 0.49941 0.26622 0.0
H396 H 0.49633 0.51726 0.25447 0.0
H397 H 0.46403 0.49474 0.274 0.0
H398 H 0.49331 0.45671 0.26423 0.0
O399 O 0.60145 0.69593 0.25173 0.0
O400 O 0.68022 0.73971 0.26634 0.0
H401 H 0.6894 0.54872 0.29723 0.0
H402 H 0.67485 0.5899 0.31135 0.0
C403 C 0.6824 0.58534 0.29845 0.0
H404 H 0.72093 0.62426 0.29441 0.0
H405 H 0.78599 0.76474 0.27977 0.0
O406 O 0.47279 0.5977 0.25703 0.0
C407 C 0.65344 0.73353 0.2532 0.0
H408 H 0.50722 0.95047 0.33253 0.0
H409 H 0.32897 0.82326 0.33437 0.0
H410 H 0.3528 0.74937 0.32731 0.0
H411 H 0.5411 0.89606 0.29877 0.0
H412 H 0.61043 0.91266 0.30577 0.0
H413 H 0.5798 0.95427 0.31249 0.0
H414 H 0.59255 0.93339 0.34221 0.0
H415 H 0.62305 0.8914 0.33557 0.0
H416 H 0.56252 0.86103 0.34883 0.0
H417 H 0.39453 0.6915 0.31805 0.0
H418 H 0.45067 0.65316 0.30573 0.0
H419 H 0.60313 0.81697 0.31034 0.0
C420 C 0.47343 0.90683 0.33179 0.0
C421 C 0.41629 0.89219 0.33411 0.0
C422 C 0.37294 0.83509 0.33259 0.0
C423 C 0.38615 0.79292 0.32873 0.0
C424 C 0.44294 0.80869 0.32651 0.0
C425 C 0.48594 0.86425 0.32794 0.0
C426 C 0.54302 0.87043 0.32374 0.0
C427 C 0.57015 0.91072 0.30934 0.0
C428 C 0.58262 0.89023 0.33847 0.0
C429 C 0.52522 0.80983 0.3193 0.0
C430 C 0.46733 0.77492 0.3212 0.0
C431 C 0.43995 0.71814 0.31675 0.0
C432 C 0.47219 0.69678 0.30976 0.0
C433 C 0.53123 0.73197 0.3073 0.0
C434 C 0.55835 0.78886 0.31252 0.0
H435 H 0.52207 0.43049 0.47424 0.0
H436 H 0.55534 0.40484 0.52374 0.0
H437 H 0.6574 0.44718 0.51747 0.0
H438 H 0.62532 0.39372 0.45674 0.0
H439 H 0.64381 0.44427 0.4406 0.0
H440 H 0.57354 0.41068 0.4491 0.0
H441 H 0.58565 0.50959 0.4549 0.0
H442 H 0.65643 0.54349 0.44679 0.0
H443 H 0.64455 0.55947 0.46702 0.0
H444 H 0.7569 0.50267 0.50649 0.0
H445 H 0.84508 0.54958 0.49016 0.0
H446 H 0.74534 0.52804 0.44725 0.0
C447 C 0.55063 0.43223 0.48361 0.0
C448 C 0.53124 0.41495 0.4995 0.0
C449 C 0.56983 0.41857 0.51153 0.0
C450 C 0.62772 0.4426 0.5081 0.0
C451 C 0.64594 0.4612 0.49244 0.0
C452 C 0.60834 0.45457 0.48027 0.0
C453 C 0.6388 0.47666 0.46436 0.0
C454 C 0.61921 0.42846 0.45197 0.0
C455 C 0.63087 0.52518 0.4579 0.0
C456 C 0.69944 0.49796 0.4696 0.0
C457 C 0.70281 0.48952 0.4859 0.0
C458 C 0.75477 0.50865 0.49366 0.0
C459 C 0.80451 0.53564 0.48438 0.0
C460 C 0.80144 0.54204 0.46757 0.0
C461 C 0.7484 0.52328 0.46013 0.0
H462 H 0.29848 0.76282 0.63577 0.0
H463 H 0.16752 0.80892 0.63224 0.0
H464 H 0.09765 0.71558 0.64328 0.0
H465 H 0.21668 0.62063 0.62466 0.0
H466 H 0.24696 0.59332 0.63895 0.0
H467 H 0.28829 0.66496 0.63173 0.0
H468 H 0.3054 0.7029 0.66103 0.0
H469 H 0.26514 0.63128 0.66838 0.0
H470 H 0.24561 0.68302 0.67417 0.0
H471 H 0.04029 0.61396 0.65049 0.0
H472 H 0.00042 0.51533 0.6594 0.0
H473 H 0.16945 0.53715 0.66191 0.0
C474 C 0.25532 0.7536 0.63766 0.0
C475 C 0.23819 0.7929 0.63315 0.0
C476 C 0.18151 0.77957 0.63576 0.0
C477 C 0.1415 0.72654 0.64188 0.0
C478 C 0.15929 0.68802 0.64567 0.0
C479 C 0.21511 0.70135 0.64415 0.0
C480 C 0.22287 0.65218 0.64934 0.0
C481 C 0.24501 0.63158 0.63533 0.0
C482 C 0.26207 0.66831 0.66411 0.0
C483 C 0.16232 0.60864 0.65363 0.0
C484 C 0.12644 0.63019 0.65114 0.0
C485 C 0.06811 0.59721 0.65302 0.0
C486 C 0.04595 0.5413 0.65816 0.0
C487 C 0.082 0.51922 0.66187 0.0
C488 C 0.14096 0.55307 0.6593 0.0
H489 H 0.48564 0.19272 0.78332 0.0
H490 H 0.41177 0.22124 0.82608 0.0
H491 H 0.45549 0.17765 0.84286 0.0
H492 H 0.45919 0.05563 0.79514 0.0
H493 H 0.52309 0.06413 0.78602 0.0
H494 H 0.48953 0.10131 0.77789 0.0
H495 H 0.58382 0.19626 0.78117 0.0
H496 H 0.61735 0.15932 0.78958 0.0
H497 H 0.61717 0.21603 0.80071 0.0
H498 H 0.50973 0.13299 0.85481 0.0
H499 H 0.55459 0.07518 0.86061 0.0
H500 H 0.58444 0.06825 0.80954 0.0
C501 C 0.47895 0.19002 0.79624 0.0
C502 C 0.44599 0.21074 0.80351 0.0
C503 C 0.43697 0.20551 0.82036 0.0
C504 C 0.46204 0.18137 0.82995 0.0
C505 C 0.49504 0.16199 0.8224 0.0
C506 C 0.50242 0.16495 0.80587 0.0
C507 C 0.53553 0.13675 0.80051 0.0
C508 C 0.49968 0.08647 0.78923 0.0
C509 C 0.59181 0.17967 0.79252 0.0
C510 C 0.54557 0.11712 0.8166 0.0
C511 C 0.52305 0.13323 0.82911 0.0
C512 C 0.527 0.11975 0.84508 0.0
C513 C 0.55253 0.08702 0.84826 0.0
C514 C 0.57223 0.06681 0.8355 0.0
C515 C 0.57018 0.08352 0.81954 0.0
H516 H 0.45513 0.47089 -0.00279 0.0
H517 H 0.50856 0.64961 -0.00443 0.0
H518 H 0.41208 0.6259 0.98685 0.0
H519 H 0.36721 0.42977 0.96261 0.0
H520 H 0.31389 0.36294 0.97082 0.0
H521 H 0.38618 0.39418 0.9776 0.0
H522 H 0.35314 0.38976 0.00713 0.0
H523 H 0.28066 0.35875 0.00043 0.0
H524 H 0.31188 0.42255 0.01236 0.0
H525 H 0.31233 0.58315 0.97713 0.0
H526 H 0.21622 0.52489 0.96607 0.0
H527 H 0.22561 0.37279 0.97478 0.0
C528 C 0.44618 0.50491 -0.00483 0.0
C529 C 0.48895 0.56209 -0.00302 0.0
C530 C 0.47627 0.60563 -0.00596 0.0
C531 C 0.42162 0.5925 0.98924 0.0
C532 C 0.38027 0.53562 0.98759 0.0
C533 C 0.39183 0.49249 0.99045 0.0
C534 C 0.34037 0.43496 0.9872 0.0
C535 C 0.35266 0.40364 0.97376 0.0
C536 C 0.32033 0.39941 0.00271 0.0
C537 C 0.29823 0.4525 0.98173 0.0
C538 C 0.32216 0.51077 0.98218 0.0
C539 C 0.29296 0.53751 0.97688 0.0
C540 C 0.2384 0.50401 0.97059 0.0
C541 C 0.21337 0.44433 0.96966 0.0
C542 C 0.24326 0.41818 0.97565 0.0
H543 H 0.87971 0.47634 0.15661 0.0
H544 H 0.02811 0.47404 0.17469 0.0
H545 H 0.98641 0.3741 0.16663 0.0
H546 H 0.77593 0.33482 0.16765 0.0
H547 H 0.73457 0.32099 0.1495 0.0
H548 H 0.77529 0.39227 0.15705 0.0
H549 H 0.82717 0.42548 0.1296 0.0
H550 H 0.78613 0.35441 0.12193 0.0
H551 H 0.86248 0.39011 0.12132 0.0
H552 H 0.92761 0.27364 0.15736 0.0
H553 H 0.85975 0.18206 0.14487 0.0
H554 H 0.75224 0.25118 0.13131 0.0
C555 C 0.90345 0.45479 0.15876 0.0
C556 C 0.95643 0.48238 0.16665 0.0
C557 C 0.98652 0.45305 0.16918 0.0
C558 C 0.9634 0.3964 0.16454 0.0
C559 C 0.9105 0.36989 0.15713 0.0
C560 C 0.88123 0.39827 0.154 0.0
C561 C 0.82598 0.36032 0.14536 0.0
C562 C 0.77493 0.35159 0.1555 0.0
C563 C 0.82544 0.38399 0.12855 0.0
C564 C 0.82878 0.30628 0.1442 0.0
C565 C 0.87762 0.31253 0.15119 0.0
C566 C 0.8893 0.26822 0.15176 0.0
C567 C 0.85042 0.21632 0.1447 0.0
C568 C 0.80087 0.2095 0.13705 0.0
C569 C 0.78988 0.25507 0.13699 0.0
H570 H 0.22502 0.40292 0.4747 0.0
H571 H 0.23708 0.46547 0.52357 0.0
H572 H 0.18441 0.51293 0.51551 0.0
H573 H 0.24514 0.53027 0.45512 0.0
H574 H 0.19584 0.49354 0.43899 0.0
H575 H 0.23306 0.4621 0.4485 0.0
H576 H 0.1374 0.37216 0.45503 0.0
H577 H 0.09989 0.40326 0.4455 0.0
H578 H 0.08396 0.37885 0.46606 0.0
H579 H 0.12872 0.55105 0.50293 0.0
H580 H 0.07502 0.5816 0.48587 0.0
H581 H 0.10434 0.5029 0.4443 0.0
C582 C 0.21618 0.42634 0.48367 0.0
C583 C 0.23511 0.43041 0.49977 0.0
C584 C 0.22328 0.46194 0.51116 0.0
C585 C 0.19325 0.489 0.50673 0.0
C586 C 0.17569 0.48475 0.4908 0.0
C587 C 0.18681 0.45463 0.47938 0.0
C588 C 0.16408 0.45856 0.46299 0.0
C589 C 0.21242 0.48787 0.45068 0.0
C590 C 0.11863 0.3997 0.45705 0.0
C591 C 0.13834 0.49526 0.4671 0.0
C592 C 0.14533 0.50938 0.48326 0.0
C593 C 0.12365 0.54108 0.4902 0.0
C594 C 0.09373 0.55878 0.48036 0.0
C595 C 0.0865 0.54561 0.46371 0.0
C596 C 0.10944 0.51368 0.45699 0.0
H597 H 0.53049 0.10469 0.63919 0.0
H598 H 0.56944 0.09415 0.58911 0.0
H599 H 0.67169 0.15595 0.59479 0.0
H600 H 0.64654 0.25621 0.64514 0.0
H601 H 0.65866 0.24198 0.66555 0.0
H602 H 0.5886 0.20335 0.65693 0.0
H603 H 0.58546 0.10903 0.66371 0.0
H604 H 0.65572 0.14716 0.67207 0.0
H605 H 0.64038 0.0966 0.65612 0.0
H606 H 0.76958 0.20399 0.60705 0.0
H607 H 0.85568 0.24713 0.62424 0.0
H608 H 0.75228 0.23238 0.66576 0.0
C609 C 0.5605 0.11714 0.62934 0.0
C610 C 0.54263 0.09433 0.61378 0.0
C611 C 0.58281 0.11082 0.60117 0.0
C612 C 0.6408 0.1459 0.60427 0.0
C613 C 0.65756 0.16534 0.61997 0.0
C614 C 0.61846 0.15284 0.6322 0.0
C615 C 0.64762 0.17678 0.64816 0.0
C616 C 0.63459 0.2223 0.6543 0.0
C617 C 0.63132 0.12957 0.66074 0.0
C618 C 0.70903 0.20253 0.64312 0.0
C619 C 0.71403 0.19551 0.62682 0.0
C620 C 0.76637 0.21113 0.61975 0.0
C621 C 0.81491 0.23513 0.62959 0.0
C622 C 0.8106 0.24373 0.64623 0.0
C623 C 0.75697 0.22747 0.65298 0.0
H624 H 0.49939 0.70688 0.83462 0.0
H625 H 0.57492 0.80606 0.79143 0.0
H626 H 0.52838 0.71829 0.77505 0.0
H627 H 0.52363 0.59699 0.82422 0.0
H628 H 0.45937 0.54181 0.8332 0.0
H629 H 0.49151 0.61279 0.84095 0.0
H630 H 0.3971 0.61266 0.83654 0.0
H631 H 0.36483 0.54168 0.8286 0.0
H632 H 0.36502 0.59733 0.81681 0.0
H633 H 0.47779 0.61963 0.76375 0.0
H634 H 0.43918 0.5174 0.75876 0.0
H635 H 0.40316 0.48321 0.80971 0.0
C636 C 0.50524 0.71027 0.82167 0.0
C637 C 0.54003 0.76314 0.81421 0.0
C638 C 0.54815 0.76584 0.79732 0.0
C639 C 0.52152 0.71636 0.78794 0.0
C640 C 0.48749 0.66479 0.79571 0.0
C641 C 0.47996 0.6614 0.81223 0.0
C642 C 0.44713 0.60055 0.81791 0.0
C643 C 0.48254 0.58728 0.82976 0.0
C644 C 0.39014 0.58729 0.82541 0.0
C645 C 0.43853 0.57 0.80205 0.0
C646 C 0.46075 0.60779 0.78933 0.0
C647 C 0.46008 0.58971 0.77359 0.0
C648 C 0.43816 0.53174 0.77088 0.0
C649 C 0.41859 0.49295 0.78388 0.0
C650 C 0.41712 0.51207 0.79956 0.0
H651 H 0.87535 0.41218 0.94324 0.0
H652 H 0.89905 0.33623 0.98642 0.0
H653 H 0.83625 0.36027 0.00136 0.0
H654 H 0.89448 0.53213 0.96352 0.0
H655 H 0.84508 0.54262 0.95159 0.0
H656 H 0.87992 0.50745 0.94296 0.0
H657 H 0.78253 0.42065 0.93583 0.0
H658 H 0.74726 0.45572 0.94436 0.0
H659 H 0.73019 0.38645 0.95145 0.0
H660 H 0.78007 0.40066 0.01251 0.0
H661 H 0.73919 0.46004 0.01982 0.0
H662 H 0.76303 0.52333 0.97068 0.0
C663 C 0.86692 0.40004 0.95578 0.0
C664 C 0.89169 0.37136 0.96352 0.0
C665 C 0.8791 0.35611 0.97996 0.0
C666 C 0.84382 0.3702 0.98865 0.0
C667 C 0.82222 0.40061 0.98084 0.0
C668 C 0.83357 0.41584 0.96482 0.0
C669 C 0.81192 0.45543 0.95999 0.0
C670 C 0.86076 0.5128 0.95418 0.0
C671 C 0.76518 0.4279 0.94714 0.0
C672 C 0.78805 0.46121 0.97594 0.0
C673 C 0.79318 0.42791 0.98765 0.0
C674 C 0.77548 0.42666 0.00344 0.0
C675 C 0.75234 0.46071 0.00746 0.0
C676 C 0.74803 0.49659 -0.00416 0.0
C677 C 0.76585 0.49647 0.97982 0.0
H678 H 0.44187 0.90145 0.11592 0.0
H679 H 0.54334 0.94795 0.15954 0.0
H680 H 0.45631 0.89802 0.17589 0.0
H681 H 0.33258 0.92447 0.1324 0.0
H682 H 0.27557 0.86636 0.1217 0.0
H683 H 0.34588 0.90221 0.11322 0.0
H684 H 0.34473 0.80678 0.1112 0.0
H685 H 0.27435 0.77059 0.11963 0.0
H686 H 0.33038 0.76365 0.12898 0.0
H687 H 0.35985 0.84475 0.18747 0.0
H688 H 0.25827 0.79232 0.19403 0.0
H689 H 0.21682 0.78545 0.14317 0.0
C690 C 0.44555 0.90122 0.12892 0.0
C691 C 0.49921 0.92836 0.13651 0.0
C692 C 0.50262 0.92666 0.1535 0.0
C693 C 0.45347 0.89875 0.16288 0.0
C694 C 0.4012 0.87327 0.15507 0.0
C695 C 0.39671 0.87436 0.1385 0.0
C696 C 0.33503 0.84528 0.13327 0.0
C697 C 0.32148 0.88708 0.12464 0.0
C698 C 0.32027 0.79349 0.12264 0.0
C699 C 0.30567 0.8277 0.14952 0.0
C700 C 0.34488 0.84401 0.16187 0.0
C701 C 0.32868 0.83186 0.17793 0.0
C702 C 0.27079 0.80195 0.18151 0.0
C703 C 0.22952 0.78486 0.16912 0.0
C704 C 0.24734 0.79835 0.1529 0.0
H705 H 0.48017 0.25361 0.33814 0.0
H706 H 0.43039 0.15447 0.29413 0.0
H707 H 0.48132 0.24254 0.27807 0.0
H708 H 0.45513 0.35991 0.32316 0.0
H709 H 0.51274 0.41692 0.33401 0.0
H710 H 0.47944 0.34608 0.34193 0.0
H711 H 0.57728 0.35154 0.34297 0.0
H712 H 0.61076 0.42232 0.33484 0.0
H713 H 0.61942 0.36832 0.32489 0.0
H714 H 0.5353 0.34123 0.26688 0.0
H715 H 0.57383 0.44305 0.26109 0.0
H716 H 0.58035 0.47753 0.31228 0.0
C717 C 0.48091 0.25053 0.32512 0.0
C718 C 0.45225 0.19746 0.31732 0.0
C719 C 0.45246 0.19488 0.30028 0.0
C720 C 0.48164 0.24455 0.29111 0.0
C721 C 0.50958 0.29635 0.29917 0.0
C722 C 0.50858 0.29972 0.31579 0.0
C723 C 0.53597 0.36067 0.32141 0.0
C724 C 0.49327 0.37151 0.33066 0.0
C725 C 0.58901 0.37664 0.33163 0.0
C726 C 0.55165 0.39108 0.30534 0.0
C727 C 0.53748 0.35327 0.2927 0.0
C728 C 0.54641 0.37116 0.27669 0.0
C729 C 0.56816 0.42887 0.27351 0.0
C730 C 0.57908 0.4675 0.28624 0.0
C731 C 0.57262 0.44871 0.30235 0.0
H732 H 0.73371 0.32721 0.43228 0.0
H733 H 0.87405 0.39072 0.39856 0.0
H734 H 0.81594 0.31145 0.38011 0.0
H735 H 0.67092 0.17127 0.42294 0.0
H736 H 0.59994 0.15975 0.42479 0.0
H737 H 0.65638 0.21316 0.43689 0.0
H738 H 0.63305 0.28835 0.42597 0.0
H739 H 0.57709 0.23554 0.41379 0.0
H740 H 0.63281 0.29865 0.4045 0.0
H741 H 0.73861 0.23656 0.36352 0.0
H742 H 0.64802 0.17275 0.34996 0.0
H743 H 0.55762 0.15911 0.39436 0.0
C744 C 0.75297 0.32321 0.42131 0.0
C745 C 0.80845 0.36474 0.41688 0.0
C746 C 0.83164 0.35909 0.40219 0.0
C747 C 0.79906 0.31407 0.39169 0.0
C748 C 0.74357 0.27505 0.3961 0.0
C749 C 0.72082 0.27895 0.41064 0.0
C750 C 0.65802 0.23667 0.41157 0.0
C751 C 0.64561 0.19259 0.42484 0.0
C752 C 0.62325 0.26661 0.41409 0.0
C753 C 0.64841 0.21036 0.39499 0.0
C754 C 0.69845 0.23212 0.38638 0.0
C755 C 0.69933 0.21826 0.37025 0.0
C756 C 0.64763 0.18216 0.36263 0.0
C757 C 0.59582 0.1609 0.37112 0.0
C758 C 0.59658 0.17406 0.38761 0.0
H759 H 0.41959 0.62855 0.53043 0.0
H760 H 0.44791 0.53674 0.56866 0.0
H761 H 0.47122 0.61577 0.58739 0.0
H762 H 0.52785 0.77659 0.54422 0.0
H763 H 0.48132 0.80301 0.53859 0.0
H764 H 0.48039 0.74595 0.52733 0.0
H765 H 0.37227 0.68433 0.53234 0.0
H766 H 0.37289 0.74076 0.54365 0.0
H767 H 0.34591 0.67196 0.55275 0.0
H768 H 0.47341 0.69478 0.60293 0.0
H769 H 0.45362 0.76701 0.6141 0.0
H770 H 0.4234 0.80712 0.56574 0.0
C771 C 0.43275 0.62595 0.54258 0.0
C772 C 0.43219 0.57674 0.5481 0.0
C773 C 0.44825 0.57424 0.56419 0.0
C774 C 0.46189 0.61906 0.57488 0.0
C775 C 0.45971 0.6661 0.56923 0.0
C776 C 0.44603 0.67007 0.5534 0.0
C777 C 0.43876 0.72104 0.55088 0.0
C778 C 0.48485 0.76421 0.53959 0.0
C779 C 0.37892 0.70343 0.54454 0.0
C780 C 0.4472 0.74324 0.56795 0.0
C781 C 0.46059 0.71184 0.57829 0.0
C782 C 0.46433 0.72058 0.59491 0.0
C783 C 0.45277 0.76154 0.60114 0.0
C784 C 0.43711 0.79272 0.59077 0.0
C785 C 0.43607 0.78453 0.57395 0.0
H786 H 0.83802 0.39324 0.72363 0.0
H787 H 0.79768 0.44853 0.67897 0.0
H788 H 0.72906 0.46627 0.69355 0.0
H789 H 0.70492 0.31382 0.73624 0.0
H790 H 0.7177 0.3289 0.75748 0.0
H791 H 0.77363 0.33479 0.74474 0.0
H792 H 0.83812 0.43883 0.75381 0.0
H793 H 0.78232 0.43315 0.76677 0.0
H794 H 0.81323 0.4887 0.7519 0.0
H795 H 0.65239 0.45876 0.71131 0.0
H796 H 0.57407 0.4272 0.73084 0.0
H797 H 0.66401 0.37646 0.76397 0.0
C798 C 0.8163 0.41104 0.71701 0.0
C799 C 0.82316 0.41959 0.70018 0.0
C800 C 0.7932 0.44189 0.69189 0.0
C801 C 0.75435 0.45237 0.70009 0.0
C802 C 0.74662 0.44093 0.71657 0.0
C803 C 0.77727 0.42135 0.72499 0.0
C804 C 0.75546 0.40442 0.74202 0.0
C805 C 0.73681 0.3418 0.74529 0.0
C806 C 0.79994 0.44364 0.75435 0.0
C807 C 0.70542 0.41406 0.74156 0.0
C808 C 0.70184 0.43644 0.72692 0.0
C809 C 0.6555 0.44267 0.72297 0.0
C810 C 0.61108 0.42428 0.73409 0.0
C811 C 0.61324 0.3996 0.74891 0.0
C812 C 0.66181 0.39621 0.75287 0.0
H813 H 0.34346 0.70657 0.85789 0.0
H814 H 0.43141 0.84473 0.89183 0.0
H815 H 0.35199 0.79646 0.91101 0.0
H816 H 0.19473 0.67003 0.86875 0.0
H817 H 0.16939 0.59536 0.86654 0.0
H818 H 0.22725 0.64584 0.85424 0.0
H819 H 0.28958 0.60456 0.86414 0.0
H820 H 0.23212 0.55414 0.8764 0.0
H821 H 0.29993 0.6009 0.8855 0.0
H822 H 0.27143 0.7276 0.92788 0.0
H823 H 0.1985 0.64181 0.94163 0.0
H824 H 0.16321 0.54795 0.89679 0.0
C825 C 0.34519 0.72754 0.86914 0.0
C826 C 0.39328 0.77951 0.87335 0.0
C827 C 0.39478 0.80494 0.88837 0.0
C828 C 0.34971 0.77805 0.89928 0.0
C829 C 0.30348 0.72598 0.89494 0.0
C830 C 0.30085 0.70104 0.8802 0.0
C831 C 0.25034 0.64173 0.87929 0.0
C832 C 0.20791 0.63805 0.86644 0.0
C833 C 0.26915 0.59779 0.87616 0.0
C834 C 0.22652 0.63617 0.89609 0.0
C835 C 0.25698 0.68567 0.90481 0.0
C836 C 0.24649 0.68899 0.92109 0.0
C837 C 0.20504 0.63998 0.92881 0.0
C838 C 0.17504 0.5883 0.92025 0.0
C839 C 0.18468 0.58707 0.90357 0.0
H840 H 0.5964 0.17609 0.07166 0.0
H841 H 0.58951 0.23616 0.11961 0.0
H842 H 0.56209 0.30213 0.10786 0.0
H843 H 0.66308 0.30428 0.05381 0.0
H844 H 0.62663 0.2829 0.03473 0.0
H845 H 0.6332 0.23215 0.04697 0.0
H846 H 0.52396 0.16687 0.04676 0.0
H847 H 0.51705 0.21767 0.03445 0.0
H848 H 0.47919 0.19437 0.05327 0.0
H849 H 0.5538 0.37295 0.09098 0.0
H850 H 0.56577 0.44313 0.07025 0.0
H851 H 0.57586 0.33594 0.03327 0.0
C852 C 0.58734 0.20181 0.07973 0.0
C853 C 0.59493 0.20091 0.09654 0.0
C854 C 0.58375 0.23599 0.10668 0.0
C855 C 0.56783 0.27339 0.10012 0.0
C856 C 0.56259 0.27464 0.08343 0.0
C857 C 0.5715 0.23936 0.07337 0.0
C858 C 0.57034 0.25386 0.05582 0.0
C859 C 0.62665 0.26923 0.04735 0.0
C860 C 0.5196 0.2053 0.04706 0.0
C861 C 0.56268 0.30487 0.0576 0.0
C862 C 0.55712 0.31551 0.07361 0.0
C863 C 0.55655 0.36427 0.07838 0.0
C864 C 0.56356 0.40396 0.06654 0.0
C865 C 0.57121 0.39462 0.05017 0.0
C866 C 0.56865 0.34352 0.04564 0.0
H867 H 0.40175 0.57629 0.23449 0.0
H868 H 0.33036 0.53845 0.28271 0.0
H869 H 0.24244 0.53195 0.27232 0.0
H870 H 0.3578 0.66732 0.2246 0.0
H871 H 0.34155 0.64733 0.20372 0.0
H872 H 0.39327 0.63614 0.21397 0.0
H873 H 0.33737 0.5294 0.20674 0.0
H874 H 0.28566 0.54036 0.19621 0.0
H875 H 0.26336 0.48795 0.21196 0.0
H876 H 0.17178 0.54923 0.25801 0.0
H877 H 0.12074 0.58195 0.24031 0.0
H878 H 0.23738 0.60656 0.2014 0.0
C879 C 0.36685 0.56454 0.24276 0.0
C880 C 0.37289 0.55791 0.25939 0.0
C881 C 0.32659 0.54345 0.26989 0.0
C882 C 0.27641 0.5396 0.2641 0.0
C883 C 0.27295 0.54937 0.24776 0.0
C884 C 0.31656 0.56047 0.23717 0.0
C885 C 0.30513 0.57572 0.2206 0.0
C886 C 0.35221 0.63514 0.21544 0.0
C887 C 0.2974 0.53065 0.20814 0.0
C888 C 0.24988 0.57456 0.22375 0.0
C889 C 0.23152 0.55852 0.23942 0.0
C890 C 0.18481 0.56034 0.24559 0.0
C891 C 0.15638 0.57936 0.23551 0.0
C892 C 0.17495 0.59633 0.21948 0.0
C893 C 0.22157 0.59278 0.2135 0.0
H894 H 0.00504 0.73584 0.23554 0.0
H895 H 0.09801 0.86524 0.1998 0.0
H896 H 0.1302 0.93856 0.22092 0.0
H897 H 0.97252 0.83291 0.26369 0.0
H898 H 0.98016 0.79763 0.28109 0.0
H899 H 0.95005 0.75856 0.26272 0.0
H900 H 0.02501 0.72657 0.2629 0.0
H901 H 0.05615 0.76623 0.28092 0.0
H902 H 0.09931 0.77937 0.2632 0.0
H903 H 0.17804 0.98926 0.24596 0.0
H904 H 0.22453 0.01644 0.27217 0.0
H905 H 0.09235 0.85892 0.29266 0.0
C906 C 0.02931 0.77999 0.2321 0.0
C907 C 0.04881 0.79513 0.21612 0.0
C908 C 0.08177 0.85297 0.21194 0.0
C909 C 0.10047 0.89489 0.2239 0.0
C910 C 0.08412 0.87827 0.23984 0.0
C911 C 0.04724 0.82231 0.24387 0.0
C912 C 0.04209 0.81438 0.262 0.0
C913 C 0.98268 0.80005 0.26771 0.0
C914 C 0.05656 0.76903 0.26756 0.0
C915 C 0.08637 0.87305 0.26748 0.0
C916 C 0.10944 0.90961 0.25457 0.0
C917 C 0.15818 0.96234 0.2563 0.0
C918 C 0.1843 0.9778 0.27149 0.0
C919 C 0.16112 0.94123 0.28497 0.0
C920 C 0.11049 0.88888 0.28283 0.0
H921 H 0.29188 0.02521 0.39803 0.0
H922 H 0.26533 0.131 0.36429 0.0
H923 H 0.23092 0.16656 0.38655 0.0
H924 H 0.16482 0.99437 0.42515 0.0
H925 H 0.20354 0.99468 0.44282 0.0
H926 H 0.21518 0.96988 0.42383 0.0
H927 H 0.32265 0.04194 0.42611 0.0
H928 H 0.3114 0.06747 0.4449 0.0
H929 H 0.34591 0.11616 0.4285 0.0
H930 H 0.22623 0.20847 0.41293 0.0
H931 H 0.236 0.2427 0.44056 0.0
H932 H 0.24959 0.09905 0.45746 0.0
C933 C 0.2764 0.05398 0.3953 0.0
C934 C 0.2806 0.07521 0.37956 0.0
C935 C 0.26133 0.11368 0.3763 0.0
C936 C 0.24195 0.13415 0.38886 0.0
C937 C 0.24041 0.11413 0.40445 0.0
C938 C 0.25525 0.07337 0.40762 0.0
C939 C 0.25388 0.06199 0.42553 0.0
C940 C 0.20652 0.00165 0.42957 0.0
C941 C 0.3119 0.07257 0.4316 0.0
C942 C 0.24021 0.10573 0.43203 0.0
C943 C 0.23234 0.1352 0.4197 0.0
C944 C 0.22893 0.18368 0.42273 0.0
C945 C 0.23378 0.20254 0.43871 0.0
C946 C 0.24032 0.17213 0.45165 0.0
C947 C 0.24255 0.12248 0.44807 0.0
H948 H 0.04404 0.23343 0.60623 0.0
H949 H 0.16083 0.22366 0.64016 0.0
H950 H 0.21416 0.21552 0.61757 0.0
H951 H 0.05211 0.14172 0.57434 0.0
H952 H 0.05063 0.18605 0.55844 0.0
H953 H 0.01426 0.17967 0.57717 0.0
H954 H 0.07042 0.28874 0.58072 0.0
H955 H 0.10611 0.29533 0.56195 0.0
H956 H 0.14682 0.32538 0.58007 0.0
H957 H 0.26481 0.22557 0.59204 0.0
H958 H 0.31045 0.25735 0.56539 0.0
H959 H 0.16314 0.26169 0.54767 0.0
C960 C 0.08067 0.22992 0.60914 0.0
C961 C 0.09826 0.23057 0.62526 0.0
C962 C 0.14592 0.22354 0.62804 0.0
C963 C 0.17663 0.21854 0.61524 0.0
C964 C 0.15922 0.22008 0.59958 0.0
C965 C 0.11232 0.22553 0.59646 0.0
C966 C 0.10659 0.23282 0.57855 0.0
C967 C 0.05269 0.18202 0.57173 0.0
C968 C 0.10759 0.28889 0.57513 0.0
C969 C 0.15942 0.23387 0.57224 0.0
C970 C 0.18838 0.22494 0.58456 0.0
C971 C 0.24179 0.23084 0.58218 0.0
C972 C 0.26731 0.2486 0.56702 0.0
C973 C 0.23924 0.25977 0.55446 0.0
C974 C 0.18401 0.2506 0.55693 0.0
H975 H 0.76701 0.08255 0.78031 0.0
H976 H 0.87147 0.00399 0.78146 0.0
H977 H 0.91612 0.05096 0.75559 0.0
H978 H 0.7444 0.07544 0.7367 0.0
H979 H 0.74829 0.14341 0.73617 0.0
H980 H 0.72244 0.09993 0.75396 0.0
H981 H 0.79815 0.18269 0.77115 0.0
H982 H 0.8245 0.22619 0.75341 0.0
H983 H 0.87196 0.21417 0.76578 0.0
H984 H 0.9503 0.10929 0.72951 0.0
H985 H 0.9737 0.17671 0.70674 0.0
H986 H 0.84736 0.21692 0.724 0.0
C987 C 0.79784 0.07368 0.77484 0.0
C988 C 0.81463 0.03834 0.78251 0.0
C989 C 0.85758 0.03038 0.77552 0.0
C990 C 0.883 0.05674 0.76087 0.0
C991 C 0.8653 0.09136 0.75353 0.0
C992 C 0.8238 0.09994 0.76036 0.0
C993 C 0.81453 0.14166 0.75074 0.0
C994 C 0.75382 0.1134 0.74399 0.0
C995 C 0.82813 0.19428 0.76088 0.0
C996 C 0.85757 0.15569 0.73749 0.0
C997 C 0.88619 0.12603 0.7391 0.0
C998 C 0.92809 0.13272 0.72814 0.0
C999 C 0.94112 0.171 0.71526 0.0
C1000 C 0.9128 0.20244 0.71367 0.0
C1001 C 0.87036 0.1941 0.72493 0.0
H1002 H 0.72125 0.81993 0.95455 0.0
H1003 H 0.8072 0.73548 0.93496 0.0
H1004 H 0.80201 0.76965 0.90759 0.0
H1005 H 0.62351 0.7842 0.9233 0.0
H1006 H 0.62282 0.84998 0.92388 0.0
H1007 H 0.63941 0.82402 0.9418 0.0
H1008 H 0.73453 0.91858 0.94443 0.0
H1009 H 0.71835 0.94474 0.92641 0.0
H1010 H 0.78366 0.94319 0.92778 0.0
H1011 H 0.78397 0.81166 0.88216 0.0
H1012 H 0.74505 0.84696 0.86095 0.0
H1013 H 0.66702 0.8984 0.89776 0.0
C1014 C 0.73985 0.80937 0.94454 0.0
C1015 C 0.76473 0.77524 0.9468 0.0
C1016 C 0.78751 0.76123 0.9334 0.0
C1017 C 0.78525 0.78094 0.91788 0.0
C1018 C 0.75996 0.81435 0.91607 0.0
C1019 C 0.73727 0.82794 0.92907 0.0
C1020 C 0.70799 0.8601 0.92394 0.0
C1021 C 0.6447 0.82761 0.92849 0.0
C1022 C 0.73794 0.92022 0.93107 0.0
C1023 C 0.71634 0.8614 0.90592 0.0
C1024 C 0.74764 0.83617 0.90158 0.0
C1025 C 0.75966 0.83168 0.88546 0.0
C1026 C 0.73771 0.85208 0.87351 0.0
C1027 C 0.70319 0.87531 0.8778 0.0
C1028 C 0.69342 0.88089 0.8942 0.0
H1029 H 0.86967 0.73825 0.12304 0.0
H1030 H 0.02917 0.76197 0.1045 0.0
H1031 H -0.00057 0.76847 0.07704 0.0
H1032 H 0.79056 0.64084 0.09548 0.0
H1033 H 0.73645 0.6602 0.09351 0.0
H1034 H 0.77634 0.67544 0.11187 0.0
H1035 H 0.80654 0.78162 0.10923 0.0
H1036 H 0.76641 0.7666 0.09079 0.0
H1037 H 0.8406 0.81942 0.09101 0.0
H1038 H 0.94651 0.75655 0.05118 0.0
H1039 H 0.87282 0.71626 0.02997 0.0
H1040 H 0.74458 0.68884 0.06536 0.0
C1041 C 0.89936 0.74688 0.11329 0.0
C1042 C 0.9528 0.75174 0.11619 0.0
C1043 C 0.98937 0.76108 0.10295 0.0
C1044 C 0.9725 0.76435 0.08715 0.0
C1045 C 0.91871 0.75751 0.08473 0.0
C1046 C 0.88256 0.74863 0.09749 0.0
C1047 C 0.82344 0.73177 0.09171 0.0
C1048 C 0.77916 0.67363 0.09854 0.0
C1049 C 0.80838 0.7776 0.09594 0.0
C1050 C 0.83099 0.72922 0.07373 0.0
C1051 C 0.88673 0.74648 0.06985 0.0
C1052 C 0.903 0.74388 0.05406 0.0
C1053 C 0.86094 0.72111 0.04208 0.0
C1054 C 0.80328 0.69975 0.04611 0.0
C1055 C 0.78854 0.7055 0.062 0.0
H1056 H 0.12346 0.7583 0.49809 0.0
H1057 H 0.066 0.8796 0.49233 0.0
H1058 H 0.11613 0.92788 0.51753 0.0
H1059 H 0.11235 0.74669 0.54148 0.0
H1060 H 0.1755 0.74149 0.54365 0.0
H1061 H 0.13375 0.71646 0.52552 0.0
H1062 H 0.22266 0.78164 0.50848 0.0
H1063 H 0.26459 0.80722 0.52657 0.0
H1064 H 0.26165 0.85655 0.51266 0.0
H1065 H 0.1713 0.96105 0.54377 0.0
H1066 H 0.22996 0.97896 0.56824 0.0
H1067 H 0.25345 0.83723 0.55583 0.0
C1068 C 0.1205 0.79431 0.50236 0.0
C1069 C 0.08975 0.81454 0.49366 0.0
C1070 C 0.08878 0.86322 0.49909 0.0
C1071 C 0.11707 0.89077 0.51333 0.0
C1072 C 0.14674 0.86943 0.52175 0.0
C1073 C 0.14888 0.82248 0.5164 0.0
C1074 C 0.18498 0.80888 0.52732 0.0
C1075 C 0.14952 0.74989 0.53494 0.0
C1076 C 0.23652 0.8139 0.51821 0.0
C1077 C 0.20267 0.85533 0.53974 0.0
C1078 C 0.18003 0.8897 0.5364 0.0
C1079 C 0.18951 0.9346 0.54645 0.0
C1080 C 0.22283 0.94443 0.56032 0.0
C1081 C 0.24665 0.9098 0.56389 0.0
C1082 C 0.23649 0.86495 0.55335 0.0
H1083 H 0.39234 0.20994 0.72621 0.0
H1084 H 0.22342 0.1734 0.73981 0.0
H1085 H 0.18627 0.123 0.71378 0.0
H1086 H 0.38447 0.23711 0.68494 0.0
H1087 H 0.42469 0.20459 0.67838 0.0
H1088 H 0.43652 0.23588 0.69812 0.0
H1089 H 0.41628 0.14086 0.71101 0.0
H1090 H 0.40449 0.10928 0.69129 0.0
H1091 H 0.35053 0.07715 0.70658 0.0
H1092 H 0.16997 0.08092 0.68513 0.0
H1093 H 0.17485 0.04535 0.65792 0.0
H1094 H 0.35491 0.11063 0.66435 0.0
C1095 C 0.34741 0.19136 0.72381 0.0
C1096 C 0.31077 0.19594 0.73498 0.0
C1097 C 0.25221 0.17032 0.7314 0.0
C1098 C 0.23086 0.14184 0.71665 0.0
C1099 C 0.26865 0.13901 0.70579 0.0
C1100 C 0.32561 0.16271 0.70935 0.0
C1101 C 0.35793 0.15423 0.69588 0.0
C1102 C 0.40357 0.21135 0.68892 0.0
C1103 C 0.38381 0.11823 0.70153 0.0
C1104 C 0.31046 0.12232 0.684 0.0
C1105 C 0.2592 0.11397 0.68982 0.0
C1106 C 0.2098 0.08673 0.68058 0.0
C1107 C 0.21296 0.06693 0.66517 0.0
C1108 C 0.26496 0.074 0.65931 0.0
C1109 C 0.31421 0.10269 0.66879 0.0
H1110 H 0.15718 0.29031 0.82695 0.0
H1111 H 0.19952 0.16396 0.84231 0.0
H1112 H 0.16547 0.16614 0.86988 0.0
H1113 H 0.20684 0.37309 0.8624 0.0
H1114 H 0.15289 0.39305 0.8626 0.0
H1115 H 0.17456 0.37678 0.84379 0.0
H1116 H 0.07036 0.30077 0.83772 0.0
H1117 H 0.04835 0.3168 0.85654 0.0
H1118 H 0.03142 0.24524 0.85218 0.0
H1119 H 0.12881 0.184 0.89582 0.0
H1120 H 0.10111 0.22233 0.91886 0.0
H1121 H 0.08905 0.34204 0.88687 0.0
C1122 C 0.15824 0.26247 0.8361 0.0
C1123 C 0.18013 0.22643 0.83262 0.0
C1124 C 0.18251 0.19157 0.84486 0.0
C1125 C 0.16311 0.19242 0.86048 0.0
C1126 C 0.14217 0.22888 0.86362 0.0
C1127 C 0.14019 0.26371 0.85181 0.0
C1128 C 0.1204 0.30246 0.85863 0.0
C1129 C 0.16642 0.36504 0.85674 0.0
C1130 C 0.06429 0.29058 0.8508 0.0
C1131 C 0.11199 0.28435 0.87614 0.0
C1132 C 0.12378 0.24117 0.87871 0.0
C1133 C 0.11941 0.21777 0.89395 0.0
C1134 C 0.10348 0.23973 0.90695 0.0
C1135 C 0.09305 0.28528 0.90468 0.0
C1136 C 0.09686 0.30731 0.88901 0.0
H1137 H 0.90944 0.21071 0.00401 0.0
H1138 H 0.96738 0.08878 0.00268 0.0
H1139 H 0.9128 0.04394 0.0276 0.0
H1140 H 0.9131 0.22821 0.04714 0.0
H1141 H 0.84983 0.23376 0.04754 0.0
H1142 H 0.89451 0.25611 0.02994 0.0
H1143 H 0.80838 0.18859 0.0123 0.0
H1144 H 0.76351 0.1655 0.02987 0.0
H1145 H 0.76859 0.11432 0.01727 0.0
H1146 H 0.85355 0.01461 0.05313 0.0
H1147 H 0.7931 0.00171 0.07683 0.0
H1148 H 0.77127 0.1409 0.06039 0.0
C1149 C 0.91154 0.1753 0.00916 0.0
C1150 C 0.94374 0.15399 0.00178 0.0
C1151 C 0.94358 0.1061 0.00841 0.0
C1152 C 0.91268 0.08042 0.02249 0.0
C1153 C 0.88148 0.10267 0.02955 0.0
C1154 C 0.88053 0.14891 0.02305 0.0
C1155 C 0.84277 0.16402 0.03269 0.0
C1156 C 0.87711 0.22408 0.03975 0.0
C1157 C 0.79285 0.15771 0.02241 0.0
C1158 C 0.8229 0.11937 0.04574 0.0
C1159 C 0.84576 0.08446 0.04377 0.0
C1160 C 0.83506 0.04142 0.05472 0.0
C1161 C 0.80066 0.03439 0.06813 0.0
C1162 C 0.77699 0.0699 0.07039 0.0
C1163 C 0.78789 0.11241 0.05889 0.0
H1164 H 0.68713 0.83496 0.16183 0.0
H1165 H 0.82807 0.99607 0.17701 0.0
H1166 H 0.82098 0.95811 0.20464 0.0
H1167 H 0.6064 0.81237 0.19695 0.0
H1168 H 0.57717 0.7367 0.19726 0.0
H1169 H 0.59795 0.77437 0.17842 0.0
H1170 H 0.66397 0.7333 0.17257 0.0
H1171 H 0.64319 0.69525 0.1914 0.0
H1172 H 0.71713 0.74276 0.18717 0.0
H1173 H 0.79568 0.90272 0.23081 0.0
H1174 H 0.75048 0.8374 0.25377 0.0
H1175 H 0.6223 0.71519 0.22145 0.0
C1176 C 0.71725 0.86169 0.17092 0.0
C1177 C 0.75867 0.91798 0.16739 0.0
C1178 C 0.79637 0.95261 0.17959 0.0
C1179 C 0.79269 0.93137 0.19524 0.0
C1180 C 0.75069 0.87572 0.19844 0.0
C1181 C 0.71341 0.84152 0.18662 0.0
C1182 C 0.66907 0.78506 0.19341 0.0
C1183 C 0.60912 0.77667 0.19139 0.0
C1184 C 0.67364 0.73621 0.18568 0.0
C1185 C 0.68685 0.79288 0.21093 0.0
C1186 C 0.73451 0.84503 0.21357 0.0
C1187 C 0.7584 0.86175 0.22887 0.0
C1188 C 0.7325 0.82437 0.24182 0.0
C1189 C 0.68274 0.77137 0.23941 0.0
C1190 C 0.6601 0.75553 0.22371 0.0
H1191 H 0.77483 0.6477 0.3339 0.0
H1192 H 0.88031 0.83039 0.33337 0.0
H1193 H 0.93043 0.82583 0.35785 0.0
H1194 H 0.75959 0.63014 0.37693 0.0
H1195 H 0.76273 0.56562 0.37684 0.0
H1196 H 0.73559 0.58437 0.35953 0.0
H1197 H 0.80918 0.577 0.34139 0.0
H1198 H 0.83696 0.55879 0.35867 0.0
H1199 H 0.88354 0.61835 0.34625 0.0
H1200 H 0.96607 0.80045 0.38304 0.0
H1201 H 0.98661 0.75651 0.40628 0.0
H1202 H 0.85963 0.59023 0.38921 0.0
C1203 C 0.80769 0.68677 0.33916 0.0
C1204 C 0.82291 0.73955 0.33216 0.0
C1205 C 0.86778 0.78969 0.33882 0.0
C1206 C 0.89637 0.78744 0.35266 0.0
C1207 C 0.88 0.73458 0.35941 0.0
C1208 C 0.8369 0.68516 0.3528 0.0
C1209 C 0.82804 0.63365 0.3621 0.0
C1210 C 0.76793 0.60158 0.36928 0.0
C1211 C 0.84018 0.59467 0.35147 0.0
C1212 C 0.8725 0.66174 0.37509 0.0
C1213 C 0.90196 0.71995 0.3734 0.0
C1214 C 0.94361 0.75488 0.3844 0.0
C1215 C 0.95498 0.72958 0.39755 0.0
C1216 C 0.92516 0.66995 0.39947 0.0
C1217 C 0.88387 0.63585 0.38795 0.0
loop_
_geom_bond_atom_site_label_1
_geom_bond_atom_site_label_2
_geom_bond_distance
_geom_bond_site_symmetry_2
_ccdc_geom_bond_type
Co0 O3 1.970 . S
Co0 N17 1.989 . S
Co0 O25 1.967 . S
Co0 O32 1.920 . S
Co1 O4 1.966 . S
Co1 N10 2.022 . S
Co1 N18 1.993 . S
Co1 O26 1.941 . S
C2 O3 1.258 . S
C2 O4 1.263 . S
O3 Co0 1.970 . S
O3 C2 1.258 . S
O4 Co1 1.966 . S
O4 C2 1.263 . S
C5 O6 1.235 . S
C5 O32 1.289 . S
O6 C5 1.235 . S
C7 C9 1.400 . S
C7 N10 1.351 . S
C7 C12 1.501 . S
C8 C9 1.387 1_565 S
C8 N11 1.341 1_565 S
C9 C7 1.400 . S
C9 C8 1.387 1_545 S
N10 Co1 2.022 . S
N10 C7 1.351 . S
N10 N11 1.365 . S
N11 C8 1.341 1_545 S
N11 N10 1.365 . S
N11 H31 0.862 1_545 S
C12 C7 1.501 . S
C12 H13 0.961 . S
C12 H14 0.961 . S
C12 H15 0.960 . S
H13 C12 0.961 . S
H14 C12 0.961 . S
H15 C12 0.960 . S
C16 N17 1.342 . S
C16 C20 1.401 . S
C16 C21 1.499 . S
N17 Co0 1.989 . S
N17 C16 1.342 . S
N17 N18 1.388 . S
N18 Co1 1.993 . S
N18 N17 1.388 . S
N18 C19 1.346 . S
C19 N18 1.346 . S
C19 C20 1.396 . S
C19 C29 1.510 . S
C20 C16 1.401 . S
C20 C19 1.396 . S
C21 C16 1.499 . S
C21 H22 0.959 . S
C21 H23 0.960 . S
C21 H24 0.961 . S
H22 C21 0.959 . S
H23 C21 0.960 . S
H24 C21 0.961 . S
O25 Co0 1.967 . S
O25 C33 1.258 . S
O26 Co1 1.941 . S
O26 C33 1.266 . S
H27 C29 0.959 1_565 S
H28 C29 0.961 . S
C29 C19 1.510 . S
C29 H27 0.959 1_545 S
C29 H28 0.961 . S
C29 H30 0.960 . S
H30 C29 0.960 . S
H31 N11 0.862 1_565 S
O32 Co0 1.920 . S
O32 C5 1.289 . S
C33 O25 1.258 . S
C33 O26 1.266 . S
Co34 O37 1.970 . S
Co34 N51 1.989 . S
Co34 O59 1.967 . S
Co34 O66 1.920 . S
Co35 O38 1.966 . S
Co35 N44 2.022 . S
Co35 N52 1.993 . S
Co35 O60 1.941 . S
C36 O37 1.258 . S
C36 O38 1.263 . S
O37 Co34 1.970 . S
O37 C36 1.258 . S
O38 Co35 1.966 . S
O38 C36 1.263 . S
C39 O40 1.235 . S
C39 O66 1.289 . S
O40 C39 1.235 . S
C41 C43 1.400 . S
C41 N44 1.351 . S
C41 C46 1.501 . S
C42 C43 1.387 . S
C42 N45 1.341 . S
C43 C41 1.400 . S
C43 C42 1.387 . S
N44 Co35 2.022 . S
N44 C41 1.351 . S
N44 N45 1.365 . S
N45 C42 1.341 . S
N45 N44 1.365 . S
N45 H65 0.862 . S
C46 C41 1.501 . S
C46 H47 0.961 . S
C46 H48 0.961 . S
C46 H49 0.960 . S
H47 C46 0.961 . S
H48 C46 0.961 . S
H49 C46 0.960 . S
C50 N51 1.342 . S
C50 C54 1.401 . S
C50 C55 1.499 . S
N51 Co34 1.989 . S
N51 C50 1.342 . S
N51 N52 1.388 . S
N52 Co35 1.993 . S
N52 N51 1.388 . S
N52 C53 1.346 . S
C53 N52 1.346 . S
C53 C54 1.396 . S
C53 C63 1.510 . S
C54 C50 1.401 . S
C54 C53 1.396 . S
C55 C50 1.499 . S
C55 H56 0.959 . S
C55 H57 0.960 . S
C55 H58 0.961 . S
H56 C55 0.959 . S
H57 C55 0.960 . S
H58 C55 0.961 . S
O59 Co34 1.967 . S
O59 C67 1.258 . S
O60 Co35 1.941 . S
O60 C67 1.266 . S
H61 C63 0.959 . S
H62 C63 0.961 . S
C63 C53 1.510 . S
C63 H61 0.959 . S
C63 H62 0.961 . S
C63 H64 0.960 . S
H64 C63 0.960 . S
H65 N45 0.862 . S
O66 Co34 1.920 . S
O66 C39 1.289 . S
C67 O59 1.258 . S
C67 O60 1.266 . S
Co68 O71 1.970 . S
Co68 N85 1.989 . S
Co68 O93 1.967 . S
Co68 O100 1.920 . S
Co69 O72 1.966 . S
Co69 N78 2.022 . S
Co69 N86 1.993 . S
Co69 O94 1.941 . S
C70 O71 1.258 . S
C70 O72 1.263 . S
O71 Co68 1.970 . S
O71 C70 1.258 . S
O72 Co69 1.966 . S
O72 C70 1.263 . S
C73 O74 1.235 . S
C73 O100 1.289 . S
O74 C73 1.235 . S
C75 C77 1.400 . S
C75 N78 1.351 . S
C75 C80 1.501 . S
C76 C77 1.387 1_455 S
C76 N79 1.341 1_455 S
C77 C75 1.400 . S
C77 C76 1.387 1_655 S
N78 Co69 2.022 . S
N78 C75 1.351 . S
N78 N79 1.365 . S
N79 C76 1.341 1_655 S
N79 N78 1.365 . S
N79 H99 0.862 . S
C80 C75 1.501 . S
C80 H81 0.961 . S
C80 H82 0.961 . S
C80 H83 0.960 . S
H81 C80 0.961 . S
H82 C80 0.961 . S
H83 C80 0.960 . S
C84 N85 1.342 . S
C84 C88 1.401 . S
C84 C89 1.499 . S
N85 Co68 1.989 . S
N85 C84 1.342 . S
N85 N86 1.388 . S
N86 Co69 1.993 . S
N86 N85 1.388 . S
N86 C87 1.346 . S
C87 N86 1.346 . S
C87 C88 1.396 . S
C87 C97 1.510 . S
C88 C84 1.401 . S
C88 C87 1.396 . S
C89 C84 1.499 . S
C89 H90 0.959 . S
C89 H91 0.960 . S
C89 H92 0.961 . S
H90 C89 0.959 . S
H91 C89 0.960 . S
H92 C89 0.961 . S
O93 Co68 1.967 . S
O93 C101 1.258 . S
O94 Co69 1.941 . S
O94 C101 1.266 . S
H95 C97 0.959 1_455 S
H96 C97 0.961 . S
C97 C87 1.510 . S
C97 H95 0.959 1_655 S
C97 H96 0.961 . S
C97 H98 0.960 . S
H98 C97 0.960 . S
H99 N79 0.862 . S
O100 Co68 1.920 . S
O100 C73 1.289 . S
C101 O93 1.258 . S
C101 O94 1.266 . S
Co102 O105 1.970 . S
Co102 N119 1.989 . S
Co102 O127 1.967 . S
Co102 O134 1.920 . S
Co103 O106 1.966 . S
Co103 N112 2.022 . S
Co103 N120 1.993 . S
Co103 O128 1.941 . S
C104 O105 1.258 . S
C104 O106 1.263 . S
O105 Co102 1.970 . S
O105 C104 1.258 . S
O106 Co103 1.966 . S
O106 C104 1.263 . S
C107 O108 1.235 . S
C107 O134 1.289 . S
O108 C107 1.235 . S
C109 C111 1.400 . S
C109 N112 1.351 . S
C109 C114 1.501 . S
C110 C111 1.387 . S
C110 N113 1.341 . S
C111 C109 1.400 . S
C111 C110 1.387 . S
N112 Co103 2.022 . S
N112 C109 1.351 . S
N112 N113 1.365 . S
N113 C110 1.341 . S
N113 N112 1.365 . S
N113 H133 0.862 . S
C114 C109 1.501 . S
C114 H115 0.961 . S
C114 H116 0.961 . S
C114 H117 0.960 . S
H115 C114 0.961 . S
H116 C114 0.961 . S
H117 C114 0.960 . S
C118 N119 1.342 . S
C118 C122 1.401 . S
C118 C123 1.499 . S
N119 Co102 1.989 . S
N119 C118 1.342 . S
N119 N120 1.388 . S
N120 Co103 1.993 . S
N120 N119 1.388 . S
N120 C121 1.346 . S
C121 N120 1.346 . S
C121 C122 1.396 . S
C121 C131 1.510 . S
C122 C118 1.401 . S
C122 C121 1.396 . S
C123 C118 1.499 . S
C123 H124 0.959 . S
C123 H125 0.960 . S
C123 H126 0.961 . S
H124 C123 0.959 . S
H125 C123 0.960 . S
H126 C123 0.961 . S
O127 Co102 1.967 . S
O127 C135 1.258 . S
O128 Co103 1.941 . S
O128 C135 1.266 . S
H129 C131 0.959 1_545 S
H130 C131 0.961 . S
C131 C121 1.510 . S
C131 H129 0.959 1_565 S
C131 H130 0.961 . S
C131 H132 0.960 . S
H132 C131 0.960 . S
H133 N113 0.862 . S
O134 Co102 1.920 . S
O134 C107 1.289 . S
C135 O127 1.258 . S
C135 O128 1.266 . S
Co136 O139 1.970 . S
Co136 N153 1.989 . S
Co136 O161 1.967 . S
Co136 O168 1.920 . S
Co137 O140 1.966 . S
Co137 N146 2.022 . S
Co137 N154 1.993 . S
Co137 O162 1.941 1_556 S
C138 O139 1.258 1_556 S
C138 O140 1.263 . S
O139 Co136 1.970 . S
O139 C138 1.258 1_554 S
O140 Co137 1.966 . S
O140 C138 1.263 . S
C141 O142 1.235 . S
C141 O168 1.289 . S
O142 C141 1.235 . S
C143 C145 1.400 . S
C143 N146 1.351 . S
C143 C148 1.501 . S
C144 C145 1.387 . S
C144 N147 1.341 . S
C145 C143 1.400 . S
C145 C144 1.387 . S
N146 Co137 2.022 . S
N146 C143 1.351 . S
N146 N147 1.365 . S
N147 C144 1.341 . S
N147 N146 1.365 . S
N147 H167 0.862 . S
C148 C143 1.501 . S
C148 H149 0.961 . S
C148 H150 0.961 . S
C148 H151 0.960 . S
H149 C148 0.961 . S
H150 C148 0.961 . S
H151 C148 0.960 . S
C152 N153 1.342 . S
C152 C156 1.401 . S
C152 C157 1.499 . S
N153 Co136 1.989 . S
N153 C152 1.342 . S
N153 N154 1.388 1_554 S
N154 Co137 1.993 . S
N154 N153 1.388 1_556 S
N154 C155 1.346 . S
C155 N154 1.346 . S
C155 C156 1.396 1_556 S
C155 C165 1.510 . S
C156 C152 1.401 . S
C156 C155 1.396 1_554 S
C157 C152 1.499 . S
C157 H158 0.959 . S
C157 H159 0.960 . S
C157 H160 0.961 . S
H158 C157 0.959 . S
H159 C157 0.960 . S
H160 C157 0.961 . S
O161 Co136 1.967 . S
O161 C169 1.258 . S
O162 Co137 1.941 1_554 S
O162 C169 1.266 . S
H163 C165 0.959 . S
H164 C165 0.961 . S
C165 C155 1.510 . S
C165 H163 0.959 . S
C165 H164 0.961 . S
C165 H166 0.960 . S
H166 C165 0.960 . S
H167 N147 0.862 . S
O168 Co136 1.920 . S
O168 C141 1.289 . S
C169 O161 1.258 . S
C169 O162 1.266 . S
Co170 O173 1.970 . S
Co170 N187 1.989 . S
Co170 O195 1.967 . S
Co170 O202 1.920 . S
Co171 O174 1.966 . S
Co171 N180 2.022 . S
Co171 N188 1.993 . S
Co171 O196 1.941 . S
C172 O173 1.258 . S
C172 O174 1.263 . S
O173 Co170 1.970 . S
O173 C172 1.258 . S
O174 Co171 1.966 . S
O174 C172 1.263 . S
C175 O176 1.235 . S
C175 O202 1.289 . S
O176 C175 1.235 . S
C177 C179 1.400 . S
C177 N180 1.351 . S
C177 C182 1.501 . S
C178 C179 1.387 . S
C178 N181 1.341 . S
C179 C177 1.400 . S
C179 C178 1.387 . S
N180 Co171 2.022 . S
N180 C177 1.351 . S
N180 N181 1.365 . S
N181 C178 1.341 . S
N181 N180 1.365 . S
N181 H201 0.862 . S
C182 C177 1.501 . S
C182 H183 0.961 . S
C182 H184 0.961 . S
C182 H185 0.960 . S
H183 C182 0.961 . S
H184 C182 0.961 . S
H185 C182 0.960 . S
C186 N187 1.342 . S
C186 C190 1.401 . S
C186 C191 1.499 . S
N187 Co170 1.989 . S
N187 C186 1.342 . S
N187 N188 1.388 . S
N188 Co171 1.993 . S
N188 N187 1.388 . S
N188 C189 1.346 . S
C189 N188 1.346 . S
C189 C190 1.396 . S
C189 C199 1.510 . S
C190 C186 1.401 . S
C190 C189 1.396 . S
C191 C186 1.499 . S
C191 H192 0.959 . S
C191 H193 0.960 . S
C191 H194 0.961 . S
H192 C191 0.959 . S
H193 C191 0.960 . S
H194 C191 0.961 . S
O195 Co170 1.967 . S
O195 C203 1.258 . S
O196 Co171 1.941 . S
O196 C203 1.266 . S
H197 C199 0.959 1_655 S
H198 C199 0.961 . S
C199 C189 1.510 . S
C199 H197 0.959 1_455 S
C199 H198 0.961 . S
C199 H200 0.960 . S
H200 C199 0.960 . S
H201 N181 0.862 . S
O202 Co170 1.920 . S
O202 C175 1.289 . S
C203 O195 1.258 . S
C203 O196 1.266 . S
Co204 O207 1.970 . S
Co204 N221 1.989 . S
Co204 O229 1.967 . S
Co204 O236 1.920 . S
Co205 O208 1.966 . S
Co205 N214 2.022 . S
Co205 N222 1.993 . S
Co205 O230 1.941 . S
C206 O207 1.258 . S
C206 O208 1.263 . S
O207 Co204 1.970 . S
O207 C206 1.258 . S
O208 Co205 1.966 . S
O208 C206 1.263 . S
C209 O210 1.235 . S
C209 O236 1.289 . S
O210 C209 1.235 . S
C211 C213 1.400 . S
C211 N214 1.351 . S
C211 C216 1.501 . S
C212 C213 1.387 1_455 S
C212 N215 1.341 1_455 S
C213 C211 1.400 . S
C213 C212 1.387 1_655 S
N214 Co205 2.022 . S
N214 C211 1.351 . S
N214 N215 1.365 . S
N215 C212 1.341 1_655 S
N215 N214 1.365 . S
N215 H235 0.862 . S
C216 C211 1.501 . S
C216 H217 0.961 . S
C216 H218 0.961 . S
C216 H219 0.960 . S
H217 C216 0.961 . S
H218 C216 0.961 . S
H219 C216 0.960 . S
C220 N221 1.342 . S
C220 C224 1.401 . S
C220 C225 1.499 . S
N221 Co204 1.989 . S
N221 C220 1.342 . S
N221 N222 1.388 . S
N222 Co205 1.993 . S
N222 N221 1.388 . S
N222 C223 1.346 . S
C223 N222 1.346 . S
C223 C224 1.396 . S
C223 C233 1.510 . S
C224 C220 1.401 . S
C224 C223 1.396 . S
C225 C220 1.499 . S
C225 H226 0.959 . S
C225 H227 0.960 . S
C225 H228 0.961 . S
H226 C225 0.959 . S
H227 C225 0.960 . S
H228 C225 0.961 . S
O229 Co204 1.967 . S
O229 C237 1.258 . S
O230 Co205 1.941 . S
O230 C237 1.266 . S
H231 C233 0.959 1_455 S
H232 C233 0.961 . S
C233 C223 1.510 . S
C233 H231 0.959 1_655 S
C233 H232 0.961 . S
C233 H234 0.960 . S
H234 C233 0.960 . S
H235 N215 0.862 . S
O236 Co204 1.920 . S
O236 C209 1.289 . S
C237 O229 1.258 . S
C237 O230 1.266 . S
Co238 O241 1.970 . S
Co238 N255 1.989 . S
Co238 O263 1.967 . S
Co238 O270 1.920 . S
Co239 O242 1.966 . S
Co239 N248 2.022 . S
Co239 N256 1.993 . S
Co239 O264 1.941 . S
C240 O241 1.258 . S
C240 O242 1.263 . S
O241 Co238 1.970 . S
O241 C240 1.258 . S
O242 Co239 1.966 . S
O242 C240 1.263 . S
C243 O244 1.235 . S
C243 O270 1.289 . S
O244 C243 1.235 . S
C245 C247 1.400 . S
C245 N248 1.351 . S
C245 C250 1.501 . S
C246 C247 1.387 . S
C246 N249 1.341 . S
C247 C245 1.400 . S
C247 C246 1.387 . S
N248 Co239 2.022 . S
N248 C245 1.351 . S
N248 N249 1.365 . S
N249 C246 1.341 . S
N249 N248 1.365 . S
N249 H269 0.862 . S
C250 C245 1.501 . S
C250 H251 0.961 . S
C250 H252 0.961 . S
C250 H253 0.960 . S
H251 C250 0.961 . S
H252 C250 0.961 . S
H253 C250 0.960 . S
C254 N255 1.342 . S
C254 C258 1.401 . S
C254 C259 1.499 . S
N255 Co238 1.989 . S
N255 C254 1.342 . S
N255 N256 1.388 . S
N256 Co239 1.993 . S
N256 N255 1.388 . S
N256 C257 1.346 . S
C257 N256 1.346 . S
C257 C258 1.396 . S
C257 C267 1.510 . S
C258 C254 1.401 . S
C258 C257 1.396 . S
C259 C254 1.499 . S
C259 H260 0.959 . S
C259 H261 0.960 . S
C259 H262 0.961 . S
H260 C259 0.959 . S
H261 C259 0.960 . S
H262 C259 0.961 . S
O263 Co238 1.967 . S
O263 C271 1.258 . S
O264 Co239 1.941 . S
O264 C271 1.266 . S
H265 C267 0.959 1_545 S
H266 C267 0.961 . S
C267 C257 1.510 . S
C267 H265 0.959 1_565 S
C267 H266 0.961 . S
C267 H268 0.960 . S
H268 C267 0.960 . S
H269 N249 0.862 . S
O270 Co238 1.920 . S
O270 C243 1.289 . S
C271 O263 1.258 . S
C271 O264 1.266 . S
Co272 O275 1.970 . S
Co272 N289 1.989 . S
Co272 O297 1.967 . S
Co272 O304 1.920 . S
Co273 O276 1.966 . S
Co273 N282 2.022 . S
Co273 N290 1.993 . S
Co273 O298 1.941 . S
C274 O275 1.258 . S
C274 O276 1.263 . S
O275 Co272 1.970 . S
O275 C274 1.258 . S
O276 Co273 1.966 . S
O276 C274 1.263 . S
C277 O278 1.235 . S
C277 O304 1.289 . S
O278 C277 1.235 . S
C279 C281 1.400 . S
C279 N282 1.351 . S
C279 C284 1.501 . S
C280 C281 1.387 . S
C280 N283 1.341 . S
C281 C279 1.400 . S
C281 C280 1.387 . S
N282 Co273 2.022 . S
N282 C279 1.351 . S
N282 N283 1.365 . S
N283 C280 1.341 . S
N283 N282 1.365 . S
N283 H303 0.862 . S
C284 C279 1.501 . S
C284 H285 0.961 . S
C284 H286 0.961 . S
C284 H287 0.960 . S
H285 C284 0.961 . S
H286 C284 0.961 . S
H287 C284 0.960 . S
C288 N289 1.342 . S
C288 C292 1.401 . S
C288 C293 1.499 . S
N289 Co272 1.989 . S
N289 C288 1.342 . S
N289 N290 1.388 . S
N290 Co273 1.993 . S
N290 N289 1.388 . S
N290 C291 1.346 . S
C291 N290 1.346 . S
C291 C292 1.396 . S
C291 C301 1.510 . S
C292 C288 1.401 . S
C292 C291 1.396 . S
C293 C288 1.499 . S
C293 H294 0.959 . S
C293 H295 0.960 . S
C293 H296 0.961 . S
H294 C293 0.959 . S
H295 C293 0.960 . S
H296 C293 0.961 . S
O297 Co272 1.967 . S
O297 C305 1.258 . S
O298 Co273 1.941 . S
O298 C305 1.266 . S
H299 C301 0.959 . S
H300 C301 0.961 . S
C301 C291 1.510 . S
C301 H299 0.959 . S
C301 H300 0.961 . S
C301 H302 0.960 . S
H302 C301 0.960 . S
H303 N283 0.862 . S
O304 Co272 1.920 . S
O304 C277 1.289 . S
C305 O297 1.258 . S
C305 O298 1.266 . S
Co306 O309 1.970 . S
Co306 N323 1.989 . S
Co306 O331 1.967 . S
Co306 O338 1.920 . S
Co307 O310 1.966 . S
Co307 N316 2.022 . S
Co307 N324 1.993 . S
Co307 O332 1.941 . S
C308 O309 1.258 . S
C308 O310 1.263 . S
O309 Co306 1.970 . S
O309 C308 1.258 . S
O310 Co307 1.966 . S
O310 C308 1.263 . S
C311 O312 1.235 . S
C311 O338 1.289 . S
O312 C311 1.235 . S
C313 C315 1.400 . S
C313 N316 1.351 1_554 S
C313 C318 1.501 . S
C314 C315 1.387 . S
C314 N317 1.341 1_554 S
C315 C313 1.400 . S
C315 C314 1.387 . S
N316 Co307 2.022 . S
N316 C313 1.351 1_556 S
N316 N317 1.365 . S
N317 C314 1.341 1_556 S
N317 N316 1.365 . S
N317 H337 0.862 . S
C318 C313 1.501 . S
C318 H319 0.961 . S
C318 H320 0.961 . S
C318 H321 0.960 . S
H319 C318 0.961 . S
H320 C318 0.961 . S
H321 C318 0.960 . S
C322 N323 1.342 . S
C322 C326 1.401 . S
C322 C327 1.499 . S
N323 Co306 1.989 . S
N323 C322 1.342 . S
N323 N324 1.388 . S
N324 Co307 1.993 . S
N324 N323 1.388 . S
N324 C325 1.346 . S
C325 N324 1.346 . S
C325 C326 1.396 . S
C325 C335 1.510 . S
C326 C322 1.401 . S
C326 C325 1.396 . S
C327 C322 1.499 . S
C327 H328 0.959 . S
C327 H329 0.960 . S
C327 H330 0.961 . S
H328 C327 0.959 . S
H329 C327 0.960 . S
H330 C327 0.961 . S
O331 Co306 1.967 . S
O331 C339 1.258 . S
O332 Co307 1.941 . S
O332 C339 1.266 . S
H333 C335 0.959 1_655 S
H334 C335 0.961 . S
C335 C325 1.510 . S
C335 H333 0.959 1_455 S
C335 H334 0.961 . S
C335 H336 0.960 . S
H336 C335 0.960 . S
H337 N317 0.862 . S
O338 Co306 1.920 . S
O338 C311 1.289 . S
C339 O331 1.258 . S
C339 O332 1.266 . S
Co340 O343 1.970 . S
Co340 N357 1.989 . S
Co340 O365 1.967 . S
Co340 O372 1.920 . S
Co341 O344 1.966 . S
Co341 N350 2.022 . S
Co341 N358 1.993 . S
Co341 O366 1.941 . S
C342 O343 1.258 . S
C342 O344 1.263 . S
O343 Co340 1.970 . S
O343 C342 1.258 . S
O344 Co341 1.966 . S
O344 C342 1.263 . S
C345 O346 1.235 . S
C345 O372 1.289 . S
O346 C345 1.235 . S
C347 C349 1.400 . S
C347 N350 1.351 . S
C347 C352 1.501 . S
C348 C349 1.387 1_565 S
C348 N351 1.341 1_565 S
C349 C347 1.400 . S
C349 C348 1.387 1_545 S
N350 Co341 2.022 . S
N350 C347 1.351 . S
N350 N351 1.365 . S
N351 C348 1.341 1_545 S
N351 N350 1.365 . S
N351 H371 0.862 1_545 S
C352 C347 1.501 . S
C352 H353 0.961 . S
C352 H354 0.961 . S
C352 H355 0.960 . S
H353 C352 0.961 . S
H354 C352 0.961 . S
H355 C352 0.960 . S
C356 N357 1.342 . S
C356 C360 1.401 . S
C356 C361 1.499 . S
N357 Co340 1.989 . S
N357 C356 1.342 . S
N357 N358 1.388 . S
N358 Co341 1.993 . S
N358 N357 1.388 . S
N358 C359 1.346 . S
C359 N358 1.346 . S
C359 C360 1.396 . S
C359 C369 1.510 . S
C360 C356 1.401 . S
C360 C359 1.396 . S
C361 C356 1.499 . S
C361 H362 0.959 . S
C361 H363 0.960 . S
C361 H364 0.961 . S
H362 C361 0.959 . S
H363 C361 0.960 . S
H364 C361 0.961 . S
O365 Co340 1.967 . S
O365 C373 1.258 . S
O366 Co341 1.941 . S
O366 C373 1.266 . S
H367 C369 0.959 1_565 S
H368 C369 0.961 . S
C369 C359 1.510 . S
C369 H367 0.959 1_545 S
C369 H368 0.961 . S
C369 H370 0.960 . S
H370 C369 0.960 . S
H371 N351 0.862 1_565 S
O372 Co340 1.920 . S
O372 C345 1.289 . S
C373 O365 1.258 . S
C373 O366 1.266 . S
Co374 O377 1.970 . S
Co374 N391 1.989 . S
Co374 O399 1.967 . S
Co374 O406 1.920 . S
Co375 O378 1.966 . S
Co375 N384 2.022 . S
Co375 N392 1.993 . S
Co375 O400 1.941 . S
C376 O377 1.258 . S
C376 O378 1.263 . S
O377 Co374 1.970 . S
O377 C376 1.258 . S
O378 Co375 1.966 . S
O378 C376 1.263 . S
C379 O380 1.235 . S
C379 O406 1.289 . S
O380 C379 1.235 . S
C381 C383 1.400 . S
C381 N384 1.351 . S
C381 C386 1.501 . S
C382 C383 1.387 . S
C382 N385 1.341 . S
C383 C381 1.400 . S
C383 C382 1.387 . S
N384 Co375 2.022 . S
N384 C381 1.351 . S
N384 N385 1.365 . S
N385 C382 1.341 . S
N385 N384 1.365 . S
N385 H405 0.862 . S
C386 C381 1.501 . S
C386 H387 0.961 . S
C386 H388 0.961 . S
C386 H389 0.960 . S
H387 C386 0.961 . S
H388 C386 0.961 . S
H389 C386 0.960 . S
C390 N391 1.342 . S
C390 C394 1.401 . S
C390 C395 1.499 . S
N391 Co374 1.989 . S
N391 C390 1.342 . S
N391 N392 1.388 . S
N392 Co375 1.993 . S
N392 N391 1.388 . S
N392 C393 1.346 . S
C393 N392 1.346 . S
C393 C394 1.396 . S
C393 C403 1.510 . S
C394 C390 1.401 . S
C394 C393 1.396 . S
C395 C390 1.499 . S
C395 H396 0.959 . S
C395 H397 0.960 . S
C395 H398 0.961 . S
H396 C395 0.959 . S
H397 C395 0.960 . S
H398 C395 0.961 . S
O399 Co374 1.967 . S
O399 C407 1.258 . S
O400 Co375 1.941 . S
O400 C407 1.266 . S
H401 C403 0.959 . S
H402 C403 0.961 . S
C403 C393 1.510 . S
C403 H401 0.959 . S
C403 H402 0.961 . S
C403 H404 0.960 . S
H404 C403 0.960 . S
H405 N385 0.862 . S
O406 Co374 1.920 . S
O406 C379 1.289 . S
C407 O399 1.258 . S
C407 O400 1.266 . S
H408 C420 0.930 . S
H409 C422 0.930 . S
H410 C423 0.930 . S
H411 C427 0.959 . S
H412 C427 0.959 . S
H413 C427 0.961 . S
H414 C428 0.960 . S
H415 C428 0.961 . S
H416 C428 0.959 . S
H417 C431 0.929 . S
H418 C432 0.931 . S
H419 C434 0.930 . S
C420 H408 0.930 . S
C420 C421 1.399 . S
C420 C425 1.399 1_545 S
C421 C420 1.399 . S
C421 C422 1.376 1_545 S
C422 H409 0.930 . S
C422 C421 1.376 1_565 S
C422 C423 1.388 . S
C423 H410 0.930 . S
C423 C422 1.388 . S
C423 C424 1.390 . S
C424 C423 1.390 . S
C424 C425 1.394 . S
C424 C430 1.465 . S
C425 C420 1.399 1_565 S
C425 C424 1.394 . S
C425 C426 1.516 . S
C426 C425 1.516 . S
C426 C427 1.502 1_565 S
C426 C428 1.561 . S
C426 C429 1.526 . S
C427 H411 0.959 . S
C427 H412 0.959 . S
C427 H413 0.961 . S
C427 C426 1.502 1_545 S
C428 H414 0.960 . S
C428 H415 0.961 . S
C428 H416 0.959 . S
C428 C426 1.561 . S
C429 C426 1.526 . S
C429 C430 1.396 . S
C429 C434 1.390 . S
C430 C424 1.465 . S
C430 C429 1.396 . S
C430 C431 1.399 . S
C431 H417 0.929 . S
C431 C430 1.399 . S
C431 C432 1.385 . S
C432 H418 0.931 . S
C432 C431 1.385 . S
C432 C433 1.389 . S
C433 C432 1.389 . S
C433 C434 1.387 . S
C434 H419 0.930 . S
C434 C429 1.390 . S
C434 C433 1.387 . S
H435 C447 0.930 . S
H436 C449 0.930 . S
H437 C450 0.930 . S
H438 C454 0.959 . S
H439 C454 0.959 . S
H440 C454 0.961 . S
H441 C455 0.960 . S
H442 C455 0.961 . S
H443 C455 0.959 . S
H444 C458 0.929 . S
H445 C459 0.931 . S
H446 C461 0.930 . S
C447 H435 0.930 . S
C447 C448 1.399 . S
C447 C452 1.399 . S
C448 C447 1.399 . S
C448 C449 1.376 . S
C449 H436 0.930 . S
C449 C448 1.376 . S
C449 C450 1.388 . S
C450 H437 0.930 . S
C450 C449 1.388 . S
C450 C451 1.390 . S
C451 C450 1.390 . S
C451 C452 1.394 . S
C451 C457 1.465 . S
C452 C447 1.399 . S
C452 C451 1.394 . S
C452 C453 1.516 . S
C453 C452 1.516 . S
C453 C454 1.502 . S
C453 C455 1.561 . S
C453 C456 1.526 . S
C454 H438 0.959 . S
C454 H439 0.959 . S
C454 H440 0.961 . S
C454 C453 1.502 . S
C455 H441 0.960 . S
C455 H442 0.961 . S
C455 H443 0.959 . S
C455 C453 1.561 . S
C456 C453 1.526 . S
C456 C457 1.396 . S
C456 C461 1.390 . S
C457 C451 1.465 . S
C457 C456 1.396 . S
C457 C458 1.399 . S
C458 H444 0.929 . S
C458 C457 1.399 . S
C458 C459 1.385 . S
C459 H445 0.931 . S
C459 C458 1.385 . S
C459 C460 1.389 . S
C460 C459 1.389 . S
C460 C461 1.387 . S
C461 H446 0.930 . S
C461 C456 1.390 . S
C461 C460 1.387 . S
H462 C474 0.930 . S
H463 C476 0.930 . S
H464 C477 0.930 1_655 S
H465 C481 0.959 . S
H466 C481 0.959 . S
H467 C481 0.961 . S
H468 C482 0.960 . S
H469 C482 0.961 . S
H470 C482 0.959 . S
H471 C485 0.929 . S
H472 C486 0.931 . S
H473 C488 0.930 . S
C474 H462 0.930 . S
C474 C475 1.399 . S
C474 C479 1.399 . S
C475 C474 1.399 . S
C475 C476 1.376 . S
C476 H463 0.930 . S
C476 C475 1.376 . S
C476 C477 1.388 . S
C477 H464 0.930 1_455 S
C477 C476 1.388 . S
C477 C478 1.390 . S
C478 C477 1.390 . S
C478 C479 1.394 . S
C478 C484 1.465 1_455 S
C479 C474 1.399 . S
C479 C478 1.394 . S
C479 C480 1.516 . S
C480 C479 1.516 . S
C480 C481 1.502 . S
C480 C482 1.561 . S
C480 C483 1.526 . S
C481 H465 0.959 . S
C481 H466 0.959 . S
C481 H467 0.961 . S
C481 C480 1.502 . S
C482 H468 0.960 . S
C482 H469 0.961 . S
C482 H470 0.959 . S
C482 C480 1.561 . S
C483 C480 1.526 . S
C483 C484 1.396 1_455 S
C483 C488 1.390 . S
C484 C478 1.465 1_655 S
C484 C483 1.396 1_655 S
C484 C485 1.399 . S
C485 H471 0.929 . S
C485 C484 1.399 . S
C485 C486 1.385 . S
C486 H472 0.931 . S
C486 C485 1.385 . S
C486 C487 1.389 . S
C487 C486 1.389 . S
C487 C488 1.387 1_655 S
C488 H473 0.930 . S
C488 C483 1.390 . S
C488 C487 1.387 1_455 S
H489 C501 0.930 . S
H490 C503 0.930 . S
H491 C504 0.930 . S
H492 C508 0.959 . S
H493 C508 0.959 . S
H494 C508 0.961 . S
H495 C509 0.959 1_545 S
H496 C509 0.961 . S
H497 C509 0.959 1_545 S
H498 C512 0.929 . S
H499 C513 0.931 . S
H500 C515 0.930 . S
C501 H489 0.930 . S
C501 C502 1.399 . S
C501 C506 1.399 . S
C502 C501 1.399 . S
C502 C503 1.376 . S
C503 H490 0.930 . S
C503 C502 1.376 . S
C503 C504 1.388 . S
C504 H491 0.930 . S
C504 C503 1.388 . S
C504 C505 1.390 . S
C505 C504 1.390 . S
C505 C506 1.394 . S
C505 C511 1.465 . S
C506 C501 1.399 . S
C506 C505 1.394 . S
C506 C507 1.516 1_545 S
C507 C506 1.516 1_565 S
C507 C508 1.502 . S
C507 C509 1.561 . S
C507 C510 1.526 . S
C508 H492 0.959 . S
C508 H493 0.959 . S
C508 H494 0.961 . S
C508 C507 1.502 . S
C509 H495 0.959 1_565 S
C509 H496 0.961 . S
C509 H497 0.959 1_565 S
C509 C507 1.561 . S
C510 C507 1.526 . S
C510 C511 1.396 1_565 S
C510 C515 1.390 . S
C511 C505 1.465 . S
C511 C510 1.396 1_545 S
C511 C512 1.399 . S
C512 H498 0.929 . S
C512 C511 1.399 . S
C512 C513 1.385 . S
C513 H499 0.931 . S
C513 C512 1.385 . S
C513 C514 1.389 1_545 S
C514 C513 1.389 1_565 S
C514 C515 1.387 . S
C515 H500 0.930 . S
C515 C510 1.390 . S
C515 C514 1.387 . S
H516 C528 0.930 . S
H517 C530 0.930 . S
H518 C531 0.930 . S
H519 C535 0.959 . S
H520 C535 0.959 . S
H521 C535 0.961 . S
H522 C536 0.960 . S
H523 C536 0.961 . S
H524 C536 0.959 . S
H525 C539 0.929 . S
H526 C540 0.931 . S
H527 C542 0.930 1_554 S
C528 H516 0.930 . S
C528 C529 1.399 1_554 S
C528 C533 1.399 . S
C529 C528 1.399 1_556 S
C529 C530 1.376 . S
C530 H517 0.930 . S
C530 C529 1.376 . S
C530 C531 1.388 . S
C531 H518 0.930 . S
C531 C530 1.388 . S
C531 C532 1.390 . S
C532 C531 1.390 . S
C532 C533 1.394 1_556 S
C532 C538 1.465 . S
C533 C528 1.399 . S
C533 C532 1.394 1_554 S
C533 C534 1.516 . S
C534 C533 1.516 . S
C534 C535 1.502 . S
C534 C536 1.561 . S
C534 C537 1.526 1_554 S
C535 H519 0.959 . S
C535 H520 0.959 . S
C535 H521 0.961 . S
C535 C534 1.502 . S
C536 H522 0.960 . S
C536 H523 0.961 . S
C536 H524 0.959 . S
C536 C534 1.561 . S
C537 C534 1.526 1_556 S
C537 C538 1.396 . S
C537 C542 1.390 . S
C538 C532 1.465 . S
C538 C537 1.396 . S
C538 C539 1.399 . S
C539 H525 0.929 . S
C539 C538 1.399 . S
C539 C540 1.385 . S
C540 H526 0.931 . S
C540 C539 1.385 . S
C540 C541 1.389 . S
C541 C540 1.389 . S
C541 C542 1.387 . S
C542 H527 0.930 1_556 S
C542 C537 1.390 . S
C542 C541 1.387 . S
H543 C555 0.930 . S
H544 C557 0.940 . S
H545 C558 0.930 . S
H546 C562 0.959 . S
H547 C562 0.959 . S
H548 C562 0.961 . S
H549 C563 0.960 . S
H550 C563 0.961 . S
H551 C563 0.959 . S
H552 C566 0.929 . S
H553 C567 0.931 . S
H554 C569 0.930 . S
C555 H543 0.930 . S
C555 C556 1.399 . S
C555 C560 1.399 1_455 S
C556 C555 1.399 . S
C556 C557 1.367 1_455 S
C557 H544 0.940 . S
C557 C556 1.367 1_655 S
C557 C558 1.389 . S
C558 H545 0.930 . S
C558 C557 1.389 . S
C558 C559 1.390 . S
C559 C558 1.390 . S
C559 C560 1.394 . S
C559 C565 1.465 . S
C560 C555 1.399 1_655 S
C560 C559 1.394 . S
C560 C561 1.516 . S
C561 C560 1.516 . S
C561 C562 1.502 1_655 S
C561 C563 1.561 . S
C561 C564 1.526 . S
C562 H546 0.959 . S
C562 H547 0.959 . S
C562 H548 0.961 . S
C562 C561 1.502 1_455 S
C563 H549 0.960 . S
C563 H550 0.961 . S
C563 H551 0.959 . S
C563 C561 1.561 . S
C564 C561 1.526 . S
C564 C565 1.396 . S
C564 C569 1.390 . S
C565 C559 1.465 . S
C565 C564 1.396 . S
C565 C566 1.399 . S
C566 H552 0.929 . S
C566 C565 1.399 . S
C566 C567 1.385 . S
C567 H553 0.931 . S
C567 C566 1.385 . S
C567 C568 1.389 . S
C568 C567 1.389 . S
C568 C569 1.387 . S
C569 H554 0.930 . S
C569 C564 1.390 . S
C569 C568 1.387 . S
H570 C582 0.930 . S
H571 C584 0.930 . S
H572 C585 0.930 . S
H573 C589 0.959 . S
H574 C589 0.959 . S
H575 C589 0.961 . S
H576 C590 0.960 1_455 S
H577 C590 0.961 . S
H578 C590 0.959 . S
H579 C593 0.929 . S
H580 C594 0.931 . S
H581 C596 0.930 . S
C582 H570 0.930 . S
C582 C583 1.399 . S
C582 C587 1.399 . S
C583 C582 1.399 . S
C583 C584 1.376 . S
C584 H571 0.930 . S
C584 C583 1.376 . S
C584 C585 1.388 . S
C585 H572 0.930 . S
C585 C584 1.388 . S
C585 C586 1.390 . S
C586 C585 1.390 . S
C586 C587 1.394 . S
C586 C592 1.465 . S
C587 C582 1.399 . S
C587 C586 1.394 . S
C587 C588 1.516 . S
C588 C587 1.516 . S
C588 C589 1.502 . S
C588 C590 1.561 1_455 S
C588 C591 1.526 . S
C589 H573 0.959 . S
C589 H574 0.959 . S
C589 H575 0.961 . S
C589 C588 1.502 . S
C590 H576 0.960 1_655 S
C590 H577 0.961 . S
C590 H578 0.959 . S
C590 C588 1.561 1_655 S
C591 C588 1.526 . S
C591 C592 1.396 . S
C591 C596 1.390 1_455 S
C592 C586 1.465 . S
C592 C591 1.396 . S
C592 C593 1.399 1_455 S
C593 H579 0.929 . S
C593 C592 1.399 1_655 S
C593 C594 1.385 . S
C594 H580 0.931 . S
C594 C593 1.385 . S
C594 C595 1.389 . S
C595 C594 1.389 . S
C595 C596 1.387 . S
C596 H581 0.930 . S
C596 C591 1.390 1_655 S
C596 C595 1.387 . S
H597 C609 0.930 . S
H598 C611 0.930 . S
H599 C612 0.930 . S
H600 C616 0.959 . S
H601 C616 0.959 . S
H602 C616 0.961 1_565 S
H603 C617 0.960 . S
H604 C617 0.961 . S
H605 C617 0.959 . S
H606 C620 0.929 . S
H607 C621 0.931 . S
H608 C623 0.930 . S
C609 H597 0.930 . S
C609 C610 1.399 . S
C609 C614 1.399 . S
C610 C609 1.399 . S
C610 C611 1.376 . S
C611 H598 0.930 . S
C611 C610 1.376 . S
C611 C612 1.388 1_565 S
C612 H599 0.930 . S
C612 C611 1.388 1_545 S
C612 C613 1.390 . S
C613 C612 1.390 . S
C613 C614 1.394 1_545 S
C613 C619 1.465 . S
C614 C609 1.399 . S
C614 C613 1.394 1_565 S
C614 C615 1.516 . S
C615 C614 1.516 . S
C615 C616 1.502 1_565 S
C615 C617 1.561 . S
C615 C618 1.526 1_565 S
C616 H600 0.959 . S
C616 H601 0.959 . S
C616 H602 0.961 1_545 S
C616 C615 1.502 1_545 S
C617 H603 0.960 . S
C617 H604 0.961 . S
C617 H605 0.959 . S
C617 C615 1.561 . S
C618 C615 1.526 1_545 S
C618 C619 1.396 . S
C618 C623 1.390 . S
C619 C613 1.465 . S
C619 C618 1.396 . S
C619 C620 1.399 . S
C620 H606 0.929 . S
C620 C619 1.399 . S
C620 C621 1.385 . S
C621 H607 0.931 . S
C621 C620 1.385 . S
C621 C622 1.389 . S
C622 C621 1.389 . S
C622 C623 1.387 . S
C623 H608 0.930 . S
C623 C618 1.390 . S
C623 C622 1.387 . S
H624 C636 0.930 . S
H625 C638 0.930 . S
H626 C639 0.930 . S
H627 C643 0.959 . S
H628 C643 0.959 . S
H629 C643 0.961 . S
H630 C644 0.960 . S
H631 C644 0.961 . S
H632 C644 0.959 . S
H633 C647 0.929 . S
H634 C648 0.931 . S
H635 C650 0.930 . S
C636 H624 0.930 . S
C636 C637 1.399 . S
C636 C641 1.399 . S
C637 C636 1.399 . S
C637 C638 1.376 . S
C638 H625 0.930 . S
C638 C637 1.376 . S
C638 C639 1.388 . S
C639 H626 0.930 . S
C639 C638 1.388 . S
C639 C640 1.390 . S
C640 C639 1.390 . S
C640 C641 1.394 . S
C640 C646 1.465 . S
C641 C636 1.399 . S
C641 C640 1.394 . S
C641 C642 1.516 . S
C642 C641 1.516 . S
C642 C643 1.502 . S
C642 C644 1.561 . S
C642 C645 1.526 . S
C643 H627 0.959 . S
C643 H628 0.959 . S
C643 H629 0.961 . S
C643 C642 1.502 . S
C644 H630 0.960 . S
C644 H631 0.961 . S
C644 H632 0.959 . S
C644 C642 1.561 . S
C645 C642 1.526 . S
C645 C646 1.396 . S
C645 C650 1.390 . S
C646 C640 1.465 . S
C646 C645 1.396 . S
C646 C647 1.399 . S
C647 H633 0.929 . S
C647 C646 1.399 . S
C647 C648 1.385 . S
C648 H634 0.931 . S
C648 C647 1.385 . S
C648 C649 1.389 . S
C649 C648 1.389 . S
C649 C650 1.387 . S
C650 H635 0.930 . S
C650 C645 1.390 . S
C650 C649 1.387 . S
H651 C663 0.930 . S
H652 C665 0.930 . S
H653 C666 0.930 1_554 S
H654 C670 0.959 . S
H655 C670 0.959 . S
H656 C670 0.961 . S
H657 C671 0.960 . S
H658 C671 0.961 . S
H659 C671 0.959 . S
H660 C674 0.924 1_554 S
H661 C675 0.924 . S
H662 C677 0.930 . S
C663 H651 0.930 . S
C663 C664 1.399 . S
C663 C668 1.399 1_455 S
C664 C663 1.399 . S
C664 C665 1.376 . S
C665 H652 0.930 . S
C665 C664 1.376 . S
C665 C666 1.388 1_455 S
C666 H653 0.930 1_556 S
C666 C665 1.388 1_655 S
C666 C667 1.390 . S
C667 C666 1.390 . S
C667 C668 1.394 . S
C667 C673 1.465 . S
C668 C663 1.399 1_655 S
C668 C667 1.394 . S
C668 C669 1.516 . S
C669 C668 1.516 . S
C669 C670 1.502 1_655 S
C669 C671 1.561 . S
C669 C672 1.526 . S
C670 H654 0.959 . S
C670 H655 0.959 . S
C670 H656 0.961 . S
C670 C669 1.502 1_455 S
C671 H657 0.960 . S
C671 H658 0.961 . S
C671 H659 0.959 . S
C671 C669 1.561 . S
C672 C669 1.526 . S
C672 C673 1.396 . S
C672 C677 1.390 . S
C673 C667 1.465 . S
C673 C672 1.396 . S
C673 C674 1.405 . S
C674 H660 0.924 1_556 S
C674 C673 1.405 . S
C674 C675 1.385 1_556 S
C675 H661 0.924 . S
C675 C674 1.385 1_554 S
C675 C676 1.396 1_554 S
C676 C675 1.396 1_556 S
C676 C677 1.387 . S
C677 H662 0.930 . S
C677 C672 1.390 . S
C677 C676 1.387 . S
H678 C690 0.930 . S
H679 C692 0.930 . S
H680 C693 0.930 . S
H681 C697 0.959 . S
H682 C697 0.959 . S
H683 C697 0.961 . S
H684 C698 0.960 . S
H685 C698 0.961 . S
H686 C698 0.959 . S
H687 C701 0.929 . S
H688 C702 0.931 . S
H689 C704 0.930 . S
C690 H678 0.930 . S
C690 C691 1.399 . S
C690 C695 1.399 1_545 S
C691 C690 1.399 . S
C691 C692 1.376 1_545 S
C692 H679 0.930 . S
C692 C691 1.376 1_565 S
C692 C693 1.388 . S
C693 H680 0.930 . S
C693 C692 1.388 . S
C693 C694 1.390 . S
C694 C693 1.390 . S
C694 C695 1.394 . S
C694 C700 1.465 . S
C695 C690 1.399 1_565 S
C695 C694 1.394 . S
C695 C696 1.516 . S
C696 C695 1.516 . S
C696 C697 1.502 1_565 S
C696 C698 1.561 . S
C696 C699 1.526 . S
C697 H681 0.959 . S
C697 H682 0.959 . S
C697 H683 0.961 . S
C697 C696 1.502 1_545 S
C698 H684 0.960 . S
C698 H685 0.961 . S
C698 H686 0.959 . S
C698 C696 1.561 . S
C699 C696 1.526 . S
C699 C700 1.396 . S
C699 C704 1.390 . S
C700 C694 1.465 . S
C700 C699 1.396 . S
C700 C701 1.399 . S
C701 H687 0.929 . S
C701 C700 1.399 . S
C701 C702 1.385 . S
C702 H688 0.931 . S
C702 C701 1.385 . S
C702 C703 1.389 . S
C703 C702 1.389 . S
C703 C704 1.387 . S
C704 H689 0.930 . S
C704 C699 1.390 . S
C704 C703 1.387 . S
H705 C717 0.930 . S
H706 C719 0.930 . S
H707 C720 0.930 . S
H708 C724 0.959 . S
H709 C724 0.959 . S
H710 C724 0.961 . S
H711 C725 0.960 . S
H712 C725 0.961 . S
H713 C725 0.959 . S
H714 C728 0.929 . S
H715 C729 0.931 . S
H716 C731 0.930 . S
C717 H705 0.930 . S
C717 C718 1.399 . S
C717 C722 1.399 . S
C718 C717 1.399 . S
C718 C719 1.376 . S
C719 H706 0.930 . S
C719 C718 1.376 . S
C719 C720 1.388 . S
C720 H707 0.930 . S
C720 C719 1.388 . S
C720 C721 1.390 . S
C721 C720 1.390 . S
C721 C722 1.394 . S
C721 C727 1.465 . S
C722 C717 1.399 . S
C722 C721 1.394 . S
C722 C723 1.516 . S
C723 C722 1.516 . S
C723 C724 1.502 . S
C723 C725 1.561 . S
C723 C726 1.526 . S
C724 H708 0.959 . S
C724 H709 0.959 . S
C724 H710 0.961 . S
C724 C723 1.502 . S
C725 H711 0.960 . S
C725 H712 0.961 . S
C725 H713 0.959 . S
C725 C723 1.561 . S
C726 C723 1.526 . S
C726 C727 1.396 . S
C726 C731 1.390 . S
C727 C721 1.465 . S
C727 C726 1.396 . S
C727 C728 1.399 . S
C728 H714 0.929 . S
C728 C727 1.399 . S
C728 C729 1.385 . S
C729 H715 0.931 . S
C729 C728 1.385 . S
C729 C730 1.389 . S
C730 C729 1.389 . S
C730 C731 1.387 . S
C731 H716 0.930 . S
C731 C726 1.390 . S
C731 C730 1.387 . S
H732 C744 0.930 . S
H733 C746 0.930 . S
H734 C747 0.930 . S
H735 C751 0.959 . S
H736 C751 0.959 . S
H737 C751 0.961 . S
H738 C752 0.960 . S
H739 C752 0.961 . S
H740 C752 0.959 . S
H741 C755 0.929 . S
H742 C756 0.931 . S
H743 C758 0.930 . S
C744 H732 0.930 . S
C744 C745 1.399 . S
C744 C749 1.399 . S
C745 C744 1.399 . S
C745 C746 1.376 . S
C746 H733 0.930 . S
C746 C745 1.376 . S
C746 C747 1.388 . S
C747 H734 0.930 . S
C747 C746 1.388 . S
C747 C748 1.390 . S
C748 C747 1.390 . S
C748 C749 1.394 . S
C748 C754 1.465 . S
C749 C744 1.399 . S
C749 C748 1.394 . S
C749 C750 1.516 . S
C750 C749 1.516 . S
C750 C751 1.502 . S
C750 C752 1.561 . S
C750 C753 1.526 . S
C751 H735 0.959 . S
C751 H736 0.959 . S
C751 H737 0.961 . S
C751 C750 1.502 . S
C752 H738 0.960 . S
C752 H739 0.961 . S
C752 H740 0.959 . S
C752 C750 1.561 . S
C753 C750 1.526 . S
C753 C754 1.396 . S
C753 C758 1.390 . S
C754 C748 1.465 . S
C754 C753 1.396 . S
C754 C755 1.399 . S
C755 H741 0.929 . S
C755 C754 1.399 . S
C755 C756 1.385 . S
C756 H742 0.931 . S
C756 C755 1.385 . S
C756 C757 1.389 . S
C757 C756 1.389 . S
C757 C758 1.387 . S
C758 H743 0.930 . S
C758 C753 1.390 . S
C758 C757 1.387 . S
H759 C771 0.930 . S
H760 C773 0.930 . S
H761 C774 0.930 . S
H762 C778 0.959 . S
H763 C778 0.959 . S
H764 C778 0.961 . S
H765 C779 0.960 . S
H766 C779 0.961 . S
H767 C779 0.959 . S
H768 C782 0.929 . S
H769 C783 0.931 . S
H770 C785 0.930 . S
C771 H759 0.930 . S
C771 C772 1.399 . S
C771 C776 1.399 . S
C772 C771 1.399 . S
C772 C773 1.376 . S
C773 H760 0.930 . S
C773 C772 1.376 . S
C773 C774 1.388 . S
C774 H761 0.930 . S
C774 C773 1.388 . S
C774 C775 1.390 . S
C775 C774 1.390 . S
C775 C776 1.394 . S
C775 C781 1.465 . S
C776 C771 1.399 . S
C776 C775 1.394 . S
C776 C777 1.516 . S
C777 C776 1.516 . S
C777 C778 1.502 . S
C777 C779 1.561 . S
C777 C780 1.526 . S
C778 H762 0.959 . S
C778 H763 0.959 . S
C778 H764 0.961 . S
C778 C777 1.502 . S
C779 H765 0.960 . S
C779 H766 0.961 . S
C779 H767 0.959 . S
C779 C777 1.561 . S
C780 C777 1.526 . S
C780 C781 1.396 . S
C780 C785 1.390 . S
C781 C775 1.465 . S
C781 C780 1.396 . S
C781 C782 1.399 . S
C782 H768 0.929 . S
C782 C781 1.399 . S
C782 C783 1.385 . S
C783 H769 0.931 . S
C783 C782 1.385 . S
C783 C784 1.389 . S
C784 C783 1.389 . S
C784 C785 1.387 . S
C785 H770 0.930 . S
C785 C780 1.390 . S
C785 C784 1.387 . S
H786 C798 0.930 . S
H787 C800 0.930 . S
H788 C801 0.930 . S
H789 C805 0.959 . S
H790 C805 0.959 . S
H791 C805 0.961 . S
H792 C806 0.960 . S
H793 C806 0.961 . S
H794 C806 0.959 . S
H795 C809 0.929 . S
H796 C810 0.931 . S
H797 C812 0.930 . S
C798 H786 0.930 . S
C798 C799 1.399 . S
C798 C803 1.399 . S
C799 C798 1.399 . S
C799 C800 1.376 . S
C800 H787 0.930 . S
C800 C799 1.376 . S
C800 C801 1.388 . S
C801 H788 0.930 . S
C801 C800 1.388 . S
C801 C802 1.390 . S
C802 C801 1.390 . S
C802 C803 1.394 . S
C802 C808 1.465 . S
C803 C798 1.399 . S
C803 C802 1.394 . S
C803 C804 1.516 . S
C804 C803 1.516 . S
C804 C805 1.502 . S
C804 C806 1.561 . S
C804 C807 1.526 . S
C805 H789 0.959 . S
C805 H790 0.959 . S
C805 H791 0.961 . S
C805 C804 1.502 . S
C806 H792 0.960 . S
C806 H793 0.961 . S
C806 H794 0.959 . S
C806 C804 1.561 . S
C807 C804 1.526 . S
C807 C808 1.396 . S
C807 C812 1.390 . S
C808 C802 1.465 . S
C808 C807 1.396 . S
C808 C809 1.399 . S
C809 H795 0.929 . S
C809 C808 1.399 . S
C809 C810 1.385 . S
C810 H796 0.931 . S
C810 C809 1.385 . S
C810 C811 1.389 . S
C811 C810 1.389 . S
C811 C812 1.387 . S
C812 H797 0.930 . S
C812 C807 1.390 . S
C812 C811 1.387 . S
H813 C825 0.930 . S
H814 C827 0.930 . S
H815 C828 0.930 . S
H816 C832 0.959 . S
H817 C832 0.959 . S
H818 C832 0.961 . S
H819 C833 0.960 . S
H820 C833 0.961 . S
H821 C833 0.959 . S
H822 C836 0.929 . S
H823 C837 0.931 . S
H824 C839 0.930 . S
C825 H813 0.930 . S
C825 C826 1.399 . S
C825 C830 1.399 . S
C826 C825 1.399 . S
C826 C827 1.376 . S
C827 H814 0.930 . S
C827 C826 1.376 . S
C827 C828 1.388 . S
C828 H815 0.930 . S
C828 C827 1.388 . S
C828 C829 1.390 . S
C829 C828 1.390 . S
C829 C830 1.394 . S
C829 C835 1.465 . S
C830 C825 1.399 . S
C830 C829 1.394 . S
C830 C831 1.516 . S
C831 C830 1.516 . S
C831 C832 1.502 . S
C831 C833 1.561 . S
C831 C834 1.526 . S
C832 H816 0.959 . S
C832 H817 0.959 . S
C832 H818 0.961 . S
C832 C831 1.502 . S
C833 H819 0.960 . S
C833 H820 0.961 . S
C833 H821 0.959 . S
C833 C831 1.561 . S
C834 C831 1.526 . S
C834 C835 1.396 . S
C834 C839 1.390 . S
C835 C829 1.465 . S
C835 C834 1.396 . S
C835 C836 1.399 . S
C836 H822 0.929 . S
C836 C835 1.399 . S
C836 C837 1.385 . S
C837 H823 0.931 . S
C837 C836 1.385 . S
C837 C838 1.389 . S
C838 C837 1.389 . S
C838 C839 1.387 . S
C839 H824 0.930 . S
C839 C834 1.390 . S
C839 C838 1.387 . S
H840 C852 0.930 . S
H841 C854 0.930 . S
H842 C855 0.930 . S
H843 C859 0.959 . S
H844 C859 0.959 . S
H845 C859 0.961 . S
H846 C860 0.960 . S
H847 C860 0.961 . S
H848 C860 0.959 . S
H849 C863 0.929 . S
H850 C864 0.931 . S
H851 C866 0.930 . S
C852 H840 0.930 . S
C852 C853 1.399 . S
C852 C857 1.399 . S
C853 C852 1.399 . S
C853 C854 1.376 . S
C854 H841 0.930 . S
C854 C853 1.376 . S
C854 C855 1.388 . S
C855 H842 0.930 . S
C855 C854 1.388 . S
C855 C856 1.390 . S
C856 C855 1.390 . S
C856 C857 1.394 . S
C856 C862 1.465 . S
C857 C852 1.399 . S
C857 C856 1.394 . S
C857 C858 1.516 . S
C858 C857 1.516 . S
C858 C859 1.502 . S
C858 C860 1.561 . S
C858 C861 1.526 . S
C859 H843 0.959 . S
C859 H844 0.959 . S
C859 H845 0.961 . S
C859 C858 1.502 . S
C860 H846 0.960 . S
C860 H847 0.961 . S
C860 H848 0.959 . S
C860 C858 1.561 . S
C861 C858 1.526 . S
C861 C862 1.396 . S
C861 C866 1.390 . S
C862 C856 1.465 . S
C862 C861 1.396 . S
C862 C863 1.399 . S
C863 H849 0.929 . S
C863 C862 1.399 . S
C863 C864 1.385 . S
C864 H850 0.931 . S
C864 C863 1.385 . S
C864 C865 1.389 . S
C865 C864 1.389 . S
C865 C866 1.387 . S
C866 H851 0.930 . S
C866 C861 1.390 . S
C866 C865 1.387 . S
H867 C879 0.930 . S
H868 C881 0.930 . S
H869 C882 0.930 . S
H870 C886 0.959 . S
H871 C886 0.959 . S
H872 C886 0.961 . S
H873 C887 0.960 . S
H874 C887 0.961 . S
H875 C887 0.959 . S
H876 C890 0.929 . S
H877 C891 0.931 . S
H878 C893 0.930 . S
C879 H867 0.930 . S
C879 C880 1.399 . S
C879 C884 1.399 . S
C880 C879 1.399 . S
C880 C881 1.376 . S
C881 H868 0.930 . S
C881 C880 1.376 . S
C881 C882 1.388 . S
C882 H869 0.930 . S
C882 C881 1.388 . S
C882 C883 1.390 . S
C883 C882 1.390 . S
C883 C884 1.394 . S
C883 C889 1.465 . S
C884 C879 1.399 . S
C884 C883 1.394 . S
C884 C885 1.516 . S
C885 C884 1.516 . S
C885 C886 1.502 . S
C885 C887 1.561 . S
C885 C888 1.526 . S
C886 H870 0.959 . S
C886 H871 0.959 . S
C886 H872 0.961 . S
C886 C885 1.502 . S
C887 H873 0.960 . S
C887 H874 0.961 . S
C887 H875 0.959 . S
C887 C885 1.561 . S
C888 C885 1.526 . S
C888 C889 1.396 . S
C888 C893 1.390 . S
C889 C883 1.465 . S
C889 C888 1.396 . S
C889 C890 1.399 . S
C890 H876 0.929 . S
C890 C889 1.399 . S
C890 C891 1.385 . S
C891 H877 0.931 . S
C891 C890 1.385 . S
C891 C892 1.389 . S
C892 C891 1.389 . S
C892 C893 1.387 . S
C893 H878 0.930 . S
C893 C888 1.390 . S
C893 C892 1.387 . S
H894 C906 0.930 . S
H895 C908 0.930 . S
H896 C909 0.930 1_545 S
H897 C913 0.959 . S
H898 C913 0.959 . S
H899 C913 0.961 . S
H900 C914 0.960 . S
H901 C914 0.961 . S
H902 C914 0.959 . S
H903 C917 0.929 . S
H904 C918 0.931 . S
H905 C920 0.930 . S
C906 H894 0.930 . S
C906 C907 1.399 . S
C906 C911 1.399 . S
C907 C906 1.399 . S
C907 C908 1.376 . S
C908 H895 0.930 . S
C908 C907 1.376 . S
C908 C909 1.388 . S
C909 H896 0.930 1_565 S
C909 C908 1.388 . S
C909 C910 1.390 . S
C910 C909 1.390 . S
C910 C911 1.394 . S
C910 C916 1.465 . S
C911 C906 1.399 . S
C911 C910 1.394 . S
C911 C912 1.516 . S
C912 C911 1.516 . S
C912 C913 1.502 . S
C912 C914 1.561 . S
C912 C915 1.526 . S
C913 H897 0.959 . S
C913 H898 0.959 . S
C913 H899 0.961 . S
C913 C912 1.502 . S
C914 H900 0.960 . S
C914 H901 0.961 . S
C914 H902 0.959 . S
C914 C912 1.561 . S
C915 C912 1.526 . S
C915 C916 1.396 . S
C915 C920 1.390 . S
C916 C910 1.465 . S
C916 C915 1.396 . S
C916 C917 1.399 1_565 S
C917 H903 0.929 . S
C917 C916 1.399 1_545 S
C917 C918 1.385 . S
C918 H904 0.931 . S
C918 C917 1.385 . S
C918 C919 1.389 . S
C919 C918 1.389 . S
C919 C920 1.387 1_545 S
C920 H905 0.930 . S
C920 C915 1.390 . S
C920 C919 1.387 1_565 S
H921 C933 0.930 . S
H922 C935 0.930 . S
H923 C936 0.930 . S
H924 C940 0.959 . S
H925 C940 0.959 . S
H926 C940 0.961 . S
H927 C941 0.960 . S
H928 C941 0.961 . S
H929 C941 0.959 . S
H930 C944 0.929 . S
H931 C945 0.931 . S
H932 C947 0.930 . S
C933 H921 0.930 . S
C933 C934 1.399 . S
C933 C938 1.399 . S
C934 C933 1.399 . S
C934 C935 1.376 . S
C935 H922 0.930 . S
C935 C934 1.376 . S
C935 C936 1.388 . S
C936 H923 0.930 . S
C936 C935 1.388 . S
C936 C937 1.390 . S
C937 C936 1.390 . S
C937 C938 1.394 . S
C937 C943 1.465 . S
C938 C933 1.399 . S
C938 C937 1.394 . S
C938 C939 1.516 . S
C939 C938 1.516 . S
C939 C940 1.502 . S
C939 C941 1.561 . S
C939 C942 1.526 . S
C940 H924 0.959 . S
C940 H925 0.959 . S
C940 H926 0.961 . S
C940 C939 1.502 . S
C941 H927 0.960 . S
C941 H928 0.961 . S
C941 H929 0.959 . S
C941 C939 1.561 . S
C942 C939 1.526 . S
C942 C943 1.396 . S
C942 C947 1.390 . S
C943 C937 1.465 . S
C943 C942 1.396 . S
C943 C944 1.399 . S
C944 H930 0.929 . S
C944 C943 1.399 . S
C944 C945 1.385 . S
C945 H931 0.931 . S
C945 C944 1.385 . S
C945 C946 1.389 . S
C946 C945 1.389 . S
C946 C947 1.387 . S
C947 H932 0.930 . S
C947 C942 1.390 . S
C947 C946 1.387 . S
H948 C960 0.930 . S
H949 C962 0.930 . S
H950 C963 0.930 . S
H951 C967 0.959 . S
H952 C967 0.959 . S
H953 C967 0.961 . S
H954 C968 0.960 . S
H955 C968 0.961 . S
H956 C968 0.959 . S
H957 C971 0.929 . S
H958 C972 0.931 . S
H959 C974 0.930 . S
C960 H948 0.930 . S
C960 C961 1.399 . S
C960 C965 1.399 . S
C961 C960 1.399 . S
C961 C962 1.376 1_655 S
C962 H949 0.930 . S
C962 C961 1.376 1_455 S
C962 C963 1.388 . S
C963 H950 0.930 . S
C963 C962 1.388 . S
C963 C964 1.390 . S
C964 C963 1.390 . S
C964 C965 1.394 1_455 S
C964 C970 1.465 . S
C965 C960 1.399 . S
C965 C964 1.394 1_655 S
C965 C966 1.516 . S
C966 C965 1.516 . S
C966 C967 1.502 . S
C966 C968 1.561 . S
C966 C969 1.526 1_655 S
C967 H951 0.959 . S
C967 H952 0.959 . S
C967 H953 0.961 . S
C967 C966 1.502 . S
C968 H954 0.960 . S
C968 H955 0.961 . S
C968 H956 0.959 . S
C968 C966 1.561 . S
C969 C966 1.526 1_455 S
C969 C970 1.396 . S
C969 C974 1.390 . S
C970 C964 1.465 . S
C970 C969 1.396 . S
C970 C971 1.399 . S
C971 H957 0.929 . S
C971 C970 1.399 . S
C971 C972 1.385 . S
C972 H958 0.931 . S
C972 C971 1.385 . S
C972 C973 1.389 . S
C973 C972 1.389 . S
C973 C974 1.387 . S
C974 H959 0.930 . S
C974 C969 1.390 . S
C974 C973 1.387 . S
H975 C987 0.930 . S
H976 C989 0.930 . S
H977 C990 0.930 . S
H978 C994 0.959 . S
H979 C994 0.959 . S
H980 C994 0.961 . S
H981 C995 0.960 . S
H982 C995 0.961 . S
H983 C995 0.959 . S
H984 C998 0.929 . S
H985 C999 0.931 . S
H986 C1001 0.930 . S
C987 H975 0.930 . S
C987 C988 1.399 . S
C987 C992 1.399 . S
C988 C987 1.399 . S
C988 C989 1.376 . S
C989 H976 0.930 . S
C989 C988 1.376 . S
C989 C990 1.388 1_565 S
C990 H977 0.930 . S
C990 C989 1.388 1_545 S
C990 C991 1.390 . S
C991 C990 1.390 . S
C991 C992 1.394 1_545 S
C991 C997 1.465 . S
C992 C987 1.399 . S
C992 C991 1.394 1_565 S
C992 C993 1.516 1_565 S
C993 C992 1.516 1_545 S
C993 C994 1.502 1_545 S
C993 C995 1.561 . S
C993 C996 1.526 . S
C994 H978 0.959 . S
C994 H979 0.959 . S
C994 H980 0.961 . S
C994 C993 1.502 1_565 S
C995 H981 0.960 . S
C995 H982 0.961 . S
C995 H983 0.959 . S
C995 C993 1.561 . S
C996 C993 1.526 . S
C996 C997 1.396 . S
C996 C1001 1.390 . S
C997 C991 1.465 . S
C997 C996 1.396 . S
C997 C998 1.399 . S
C998 H984 0.929 . S
C998 C997 1.399 . S
C998 C999 1.385 . S
C999 H985 0.931 . S
C999 C998 1.385 . S
C999 C1000 1.389 . S
C1000 C999 1.389 . S
C1000 C1001 1.387 . S
C1001 H986 0.930 . S
C1001 C996 1.390 . S
C1001 C1000 1.387 . S
H1002 C1014 0.930 . S
H1003 C1016 0.930 . S
H1004 C1017 0.930 . S
H1005 C1021 0.959 . S
H1006 C1021 0.959 . S
H1007 C1021 0.961 . S
H1008 C1022 0.960 . S
H1009 C1022 0.961 . S
H1010 C1022 0.959 . S
H1011 C1025 0.929 . S
H1012 C1026 0.931 . S
H1013 C1028 0.930 . S
C1014 H1002 0.930 . S
C1014 C1015 1.399 . S
C1014 C1019 1.399 . S
C1015 C1014 1.399 . S
C1015 C1016 1.376 . S
C1016 H1003 0.930 . S
C1016 C1015 1.376 . S
C1016 C1017 1.388 . S
C1017 H1004 0.930 . S
C1017 C1016 1.388 . S
C1017 C1018 1.390 . S
C1018 C1017 1.390 . S
C1018 C1019 1.394 . S
C1018 C1024 1.465 . S
C1019 C1014 1.399 . S
C1019 C1018 1.394 . S
C1019 C1020 1.516 . S
C1020 C1019 1.516 . S
C1020 C1021 1.502 . S
C1020 C1022 1.561 . S
C1020 C1023 1.526 . S
C1021 H1005 0.959 . S
C1021 H1006 0.959 . S
C1021 H1007 0.961 . S
C1021 C1020 1.502 . S
C1022 H1008 0.960 . S
C1022 H1009 0.961 . S
C1022 H1010 0.959 . S
C1022 C1020 1.561 . S
C1023 C1020 1.526 . S
C1023 C1024 1.396 . S
C1023 C1028 1.390 . S
C1024 C1018 1.465 . S
C1024 C1023 1.396 . S
C1024 C1025 1.399 . S
C1025 H1011 0.929 . S
C1025 C1024 1.399 . S
C1025 C1026 1.385 . S
C1026 H1012 0.931 . S
C1026 C1025 1.385 . S
C1026 C1027 1.389 . S
C1027 C1026 1.389 . S
C1027 C1028 1.387 . S
C1028 H1013 0.930 . S
C1028 C1023 1.390 . S
C1028 C1027 1.387 . S
H1029 C1041 0.930 . S
H1030 C1043 0.930 . S
H1031 C1044 0.930 . S
H1032 C1048 0.959 . S
H1033 C1048 0.959 . S
H1034 C1048 0.961 . S
H1035 C1049 0.960 . S
H1036 C1049 0.961 . S
H1037 C1049 0.959 . S
H1038 C1052 0.929 . S
H1039 C1053 0.931 . S
H1040 C1055 0.930 . S
C1041 H1029 0.930 . S
C1041 C1042 1.399 . S
C1041 C1046 1.399 . S
C1042 C1041 1.399 . S
C1042 C1043 1.376 . S
C1043 H1030 0.930 . S
C1043 C1042 1.376 . S
C1043 C1044 1.388 1_455 S
C1044 H1031 0.930 . S
C1044 C1043 1.388 1_655 S
C1044 C1045 1.390 . S
C1045 C1044 1.390 . S
C1045 C1046 1.394 1_655 S
C1045 C1051 1.465 . S
C1046 C1041 1.399 . S
C1046 C1045 1.394 1_455 S
C1046 C1047 1.516 1_455 S
C1047 C1046 1.516 1_655 S
C1047 C1048 1.502 . S
C1047 C1049 1.561 1_655 S
C1047 C1050 1.526 . S
C1048 H1032 0.959 . S
C1048 H1033 0.959 . S
C1048 H1034 0.961 . S
C1048 C1047 1.502 . S
C1049 H1035 0.960 . S
C1049 H1036 0.961 . S
C1049 H1037 0.959 . S
C1049 C1047 1.561 1_455 S
C1050 C1047 1.526 . S
C1050 C1051 1.396 . S
C1050 C1055 1.390 . S
C1051 C1045 1.465 . S
C1051 C1050 1.396 . S
C1051 C1052 1.399 . S
C1052 H1038 0.929 . S
C1052 C1051 1.399 . S
C1052 C1053 1.385 . S
C1053 H1039 0.931 . S
C1053 C1052 1.385 . S
C1053 C1054 1.389 . S
C1054 C1053 1.389 . S
C1054 C1055 1.387 . S
C1055 H1040 0.930 . S
C1055 C1050 1.390 . S
C1055 C1054 1.387 . S
H1056 C1068 0.930 . S
H1057 C1070 0.930 . S
H1058 C1071 0.930 . S
H1059 C1075 0.959 . S
H1060 C1075 0.959 . S
H1061 C1075 0.961 . S
H1062 C1076 0.960 . S
H1063 C1076 0.961 . S
H1064 C1076 0.959 . S
H1065 C1079 0.929 . S
H1066 C1080 0.931 . S
H1067 C1082 0.930 . S
C1068 H1056 0.930 . S
C1068 C1069 1.399 . S
C1068 C1073 1.399 1_655 S
C1069 C1068 1.399 . S
C1069 C1070 1.376 . S
C1070 H1057 0.930 . S
C1070 C1069 1.376 . S
C1070 C1071 1.388 1_655 S
C1071 H1058 0.930 . S
C1071 C1070 1.388 1_455 S
C1071 C1072 1.390 . S
C1072 C1071 1.390 . S
C1072 C1073 1.394 . S
C1072 C1078 1.465 . S
C1073 C1068 1.399 1_455 S
C1073 C1072 1.394 . S
C1073 C1074 1.516 . S
C1074 C1073 1.516 . S
C1074 C1075 1.502 1_455 S
C1074 C1076 1.561 . S
C1074 C1077 1.526 . S
C1075 H1059 0.959 . S
C1075 H1060 0.959 . S
C1075 H1061 0.961 . S
C1075 C1074 1.502 1_655 S
C1076 H1062 0.960 . S
C1076 H1063 0.961 . S
C1076 H1064 0.959 . S
C1076 C1074 1.561 . S
C1077 C1074 1.526 . S
C1077 C1078 1.396 . S
C1077 C1082 1.390 . S
C1078 C1072 1.465 . S
C1078 C1077 1.396 . S
C1078 C1079 1.399 . S
C1079 H1065 0.929 . S
C1079 C1078 1.399 . S
C1079 C1080 1.385 . S
C1080 H1066 0.931 . S
C1080 C1079 1.385 . S
C1080 C1081 1.389 . S
C1081 C1080 1.389 . S
C1081 C1082 1.387 . S
C1082 H1067 0.930 . S
C1082 C1077 1.390 . S
C1082 C1081 1.387 . S
H1083 C1095 0.930 . S
H1084 C1097 0.930 . S
H1085 C1098 0.930 . S
H1086 C1102 0.959 . S
H1087 C1102 0.959 . S
H1088 C1102 0.961 . S
H1089 C1103 0.960 . S
H1090 C1103 0.961 . S
H1091 C1103 0.959 . S
H1092 C1106 0.929 . S
H1093 C1107 0.931 . S
H1094 C1109 0.930 . S
C1095 H1083 0.930 . S
C1095 C1096 1.399 . S
C1095 C1100 1.399 . S
C1096 C1095 1.399 . S
C1096 C1097 1.376 . S
C1097 H1084 0.930 . S
C1097 C1096 1.376 . S
C1097 C1098 1.388 . S
C1098 H1085 0.930 . S
C1098 C1097 1.388 . S
C1098 C1099 1.390 . S
C1099 C1098 1.390 . S
C1099 C1100 1.394 . S
C1099 C1105 1.465 . S
C1100 C1095 1.399 . S
C1100 C1099 1.394 . S
C1100 C1101 1.516 1_545 S
C1101 C1100 1.516 1_565 S
C1101 C1102 1.502 . S
C1101 C1103 1.561 . S
C1101 C1104 1.526 . S
C1102 H1086 0.959 . S
C1102 H1087 0.959 . S
C1102 H1088 0.961 . S
C1102 C1101 1.502 . S
C1103 H1089 0.960 . S
C1103 H1090 0.961 . S
C1103 H1091 0.959 . S
C1103 C1101 1.561 . S
C1104 C1101 1.526 . S
C1104 C1105 1.396 1_565 S
C1104 C1109 1.390 . S
C1105 C1099 1.465 . S
C1105 C1104 1.396 1_545 S
C1105 C1106 1.399 . S
C1106 H1092 0.929 . S
C1106 C1105 1.399 . S
C1106 C1107 1.385 . S
C1107 H1093 0.931 . S
C1107 C1106 1.385 . S
C1107 C1108 1.389 1_545 S
C1108 C1107 1.389 1_565 S
C1108 C1109 1.387 . S
C1109 H1094 0.930 . S
C1109 C1104 1.390 . S
C1109 C1108 1.387 . S
H1110 C1122 0.930 . S
H1111 C1124 0.930 . S
H1112 C1125 0.930 . S
H1113 C1129 0.959 . S
H1114 C1129 0.959 . S
H1115 C1129 0.961 . S
H1116 C1130 0.960 . S
H1117 C1130 0.961 . S
H1118 C1130 0.959 . S
H1119 C1133 0.929 . S
H1120 C1134 0.931 . S
H1121 C1136 0.930 . S
C1122 H1110 0.930 . S
C1122 C1123 1.399 . S
C1122 C1127 1.399 . S
C1123 C1122 1.399 . S
C1123 C1124 1.376 . S
C1124 H1111 0.930 . S
C1124 C1123 1.376 . S
C1124 C1125 1.388 . S
C1125 H1112 0.930 . S
C1125 C1124 1.388 . S
C1125 C1126 1.390 . S
C1126 C1125 1.390 . S
C1126 C1127 1.394 . S
C1126 C1132 1.465 . S
C1127 C1122 1.399 . S
C1127 C1126 1.394 . S
C1127 C1128 1.516 . S
C1128 C1127 1.516 . S
C1128 C1129 1.502 . S
C1128 C1130 1.561 . S
C1128 C1131 1.526 . S
C1129 H1113 0.959 . S
C1129 H1114 0.959 . S
C1129 H1115 0.961 . S
C1129 C1128 1.502 . S
C1130 H1116 0.960 . S
C1130 H1117 0.961 . S
C1130 H1118 0.959 . S
C1130 C1128 1.561 . S
C1131 C1128 1.526 . S
C1131 C1132 1.396 . S
C1131 C1136 1.390 . S
C1132 C1126 1.465 . S
C1132 C1131 1.396 . S
C1132 C1133 1.399 . S
C1133 H1119 0.929 . S
C1133 C1132 1.399 . S
C1133 C1134 1.385 . S
C1134 H1120 0.931 . S
C1134 C1133 1.385 . S
C1134 C1135 1.389 . S
C1135 C1134 1.389 . S
C1135 C1136 1.387 . S
C1136 H1121 0.930 . S
C1136 C1131 1.390 . S
C1136 C1135 1.387 . S
H1137 C1149 0.930 . S
H1138 C1151 0.930 . S
H1139 C1152 0.930 . S
H1140 C1156 0.959 . S
H1141 C1156 0.959 . S
H1142 C1156 0.961 . S
H1143 C1157 0.960 . S
H1144 C1157 0.961 . S
H1145 C1157 0.959 . S
H1146 C1160 0.929 1_455 S
H1147 C1161 0.931 . S
H1148 C1163 0.930 . S
C1149 H1137 0.930 . S
C1149 C1150 1.399 1_655 S
C1149 C1154 1.399 . S
C1150 C1149 1.399 1_455 S
C1150 C1151 1.376 . S
C1151 H1138 0.930 . S
C1151 C1150 1.376 . S
C1151 C1152 1.388 . S
C1152 H1139 0.930 . S
C1152 C1151 1.388 . S
C1152 C1153 1.390 . S
C1153 C1152 1.390 . S
C1153 C1154 1.394 1_455 S
C1153 C1159 1.465 1_455 S
C1154 C1149 1.399 . S
C1154 C1153 1.394 1_655 S
C1154 C1155 1.516 . S
C1155 C1154 1.516 . S
C1155 C1156 1.502 . S
C1155 C1157 1.561 . S
C1155 C1158 1.526 . S
C1156 H1140 0.959 . S
C1156 H1141 0.959 . S
C1156 H1142 0.961 . S
C1156 C1155 1.502 . S
C1157 H1143 0.960 . S
C1157 H1144 0.961 . S
C1157 H1145 0.959 . S
C1157 C1155 1.561 . S
C1158 C1155 1.526 . S
C1158 C1159 1.396 . S
C1158 C1163 1.390 . S
C1159 C1153 1.465 1_655 S
C1159 C1158 1.396 . S
C1159 C1160 1.399 . S
C1160 H1146 0.929 1_655 S
C1160 C1159 1.399 . S
C1160 C1161 1.385 . S
C1161 H1147 0.931 . S
C1161 C1160 1.385 . S
C1161 C1162 1.389 . S
C1162 C1161 1.389 . S
C1162 C1163 1.387 . S
C1163 H1148 0.930 . S
C1163 C1158 1.390 . S
C1163 C1162 1.387 . S
H1164 C1176 0.930 . S
H1165 C1178 0.930 . S
H1166 C1179 0.930 . S
H1167 C1183 0.959 . S
H1168 C1183 0.959 . S
H1169 C1183 0.961 . S
H1170 C1184 0.960 . S
H1171 C1184 0.961 . S
H1172 C1184 0.959 . S
H1173 C1187 0.929 1_545 S
H1174 C1188 0.931 . S
H1175 C1190 0.930 . S
C1176 H1164 0.930 . S
C1176 C1177 1.399 1_565 S
C1176 C1181 1.399 . S
C1177 C1176 1.399 1_545 S
C1177 C1178 1.376 . S
C1178 H1165 0.930 . S
C1178 C1177 1.376 . S
C1178 C1179 1.388 . S
C1179 H1166 0.930 . S
C1179 C1178 1.388 . S
C1179 C1180 1.390 1_545 S
C1180 C1179 1.390 1_565 S
C1180 C1181 1.394 . S
C1180 C1186 1.465 . S
C1181 C1176 1.399 . S
C1181 C1180 1.394 . S
C1181 C1182 1.516 . S
C1182 C1181 1.516 . S
C1182 C1183 1.502 . S
C1182 C1184 1.561 . S
C1182 C1185 1.526 . S
C1183 H1167 0.959 . S
C1183 H1168 0.959 . S
C1183 H1169 0.961 . S
C1183 C1182 1.502 . S
C1184 H1170 0.960 . S
C1184 H1171 0.961 . S
C1184 H1172 0.959 . S
C1184 C1182 1.561 . S
C1185 C1182 1.526 . S
C1185 C1186 1.396 . S
C1185 C1190 1.390 . S
C1186 C1180 1.465 . S
C1186 C1185 1.396 . S
C1186 C1187 1.399 . S
C1187 H1173 0.929 1_565 S
C1187 C1186 1.399 . S
C1187 C1188 1.385 . S
C1188 H1174 0.931 . S
C1188 C1187 1.385 . S
C1188 C1189 1.389 . S
C1189 C1188 1.389 . S
C1189 C1190 1.387 . S
C1190 H1175 0.930 . S
C1190 C1185 1.390 . S
C1190 C1189 1.387 . S
H1191 C1203 0.930 . S
H1192 C1205 0.930 . S
H1193 C1206 0.930 . S
H1194 C1210 0.959 . S
H1195 C1210 0.959 . S
H1196 C1210 0.961 . S
H1197 C1211 0.960 . S
H1198 C1211 0.961 . S
H1199 C1211 0.959 . S
H1200 C1214 0.929 . S
H1201 C1215 0.931 . S
H1202 C1217 0.930 . S
C1203 H1191 0.930 . S
C1203 C1204 1.399 . S
C1203 C1208 1.399 . S
C1204 C1203 1.399 . S
C1204 C1205 1.376 . S
C1205 H1192 0.930 . S
C1205 C1204 1.376 . S
C1205 C1206 1.388 . S
C1206 H1193 0.930 . S
C1206 C1205 1.388 . S
C1206 C1207 1.390 . S
C1207 C1206 1.390 . S
C1207 C1208 1.394 . S
C1207 C1213 1.465 . S
C1208 C1203 1.399 . S
C1208 C1207 1.394 . S
C1208 C1209 1.516 . S
C1209 C1208 1.516 . S
C1209 C1210 1.502 . S
C1209 C1211 1.561 . S
C1209 C1212 1.526 . S
C1210 H1194 0.959 . S
C1210 H1195 0.959 . S
C1210 H1196 0.961 . S
C1210 C1209 1.502 . S
C1211 H1197 0.960 . S
C1211 H1198 0.961 . S
C1211 H1199 0.959 . S
C1211 C1209 1.561 . S
C1212 C1209 1.526 . S
C1212 C1213 1.396 . S
C1212 C1217 1.390 . S
C1213 C1207 1.465 . S
C1213 C1212 1.396 . S
C1213 C1214 1.399 . S
C1214 H1200 0.929 . S
C1214 C1213 1.399 . S
C1214 C1215 1.385 . S
C1215 H1201 0.931 . S
C1215 C1214 1.385 . S
C1215 C1216 1.389 . S
C1216 C1215 1.389 . S
C1216 C1217 1.387 . S
C1217 H1202 0.930 . S
C1217 C1212 1.390 . S
C1217 C1216 1.387 . S
C421 C20 1.419 . S
C433 C376 1.347 . S
C448 C54 1.389 . S
C460 C206 1.421 . S
C475 C240 1.410 . S
C487 C88 1.368 . S
C502 C274 1.364 . S
C514 C122 1.434 . S
C529 C156 1.420 1_556 S
C541 C308 1.346 . S
C556 C190 1.417 . S
C568 C342 1.348 . S
C583 C36 1.384 . S
C595 C224 1.381 . S
C610 C258 1.409 . S
C622 C70 1.404 . S
C637 C104 1.374 . S
C649 C292 1.430 . S
C664 C326 1.413 . S
C676 C138 1.350 . S
C691 C360 1.418 . S
C703 C172 1.348 . S
C718 C2 1.386 . S
C730 C394 1.424 . S
C745 C209 0.760 . S
C757 C5 0.705 . S
C772 C39 0.711 . S
C784 C243 0.676 . S
C799 C73 0.672 . S
C811 C277 0.716 . S
C826 C107 0.754 . S
C838 C311 0.677 . S
C853 C345 0.748 . S
C865 C141 0.731 . S
C880 C379 0.678 . S
C892 C175 0.705 . S
C907 C203 0.828 . S
C919 C9 0.898 . S
C934 C33 0.805 . S
C946 C43 0.858 . S
C961 C77 0.823 . S
C973 C67 0.821 . S
C988 C111 0.827 . S
C1000 C101 0.896 . S
C1015 C145 0.904 . S
C1027 C135 0.838 . S
C1042 C179 0.865 . S
C1054 C169 0.807 . S
C1069 C213 0.835 . S
C1081 C271 0.902 . S
C1096 C305 0.891 . S
C1108 C247 0.823 . S
C1123 C281 0.907 . S
C1135 C339 0.845 . S
C1150 C315 0.898 . S
C1162 C373 0.900 . S
C1177 C349 0.893 . S
C1189 C407 0.904 . S
C1204 C383 0.851 . S
C1216 C237 0.910 . S
