# Generated by pormake.
# Topology mmt, (4)-cn, num edge types: 1
# Building blocks:
#     Node 0, Type 0, BuildingBlock: KUFVIS_clean_sbu_0, # of connection points: 4
#     Node 1, Type 0, BuildingBlock: KUFVIS_clean_sbu_0, # of connection points: 4
#     Node 2, Type 0, BuildingBlock: KUFVIS_clean_sbu_0, # of connection points: 4
#     Node 3, Type 0, BuildingBlock: KUFVIS_clean_sbu_0, # of connection points: 4
#     Node 4, Type 0, BuildingBlock: KUFVIS_clean_sbu_0, # of connection points: 4
#     Node 5, Type 0, BuildingBlock: KUFVIS_clean_sbu_0, # of connection points: 4
#     Node 6, Type 0, BuildingBlock: KUFVIS_clean_sbu_0, # of connection points: 4
#     Node 7, Type 0, BuildingBlock: KUFVIS_clean_sbu_0, # of connection points: 4
#     Edge 8, Type (0, 0), None
#     Edge 9, Type (0, 0), None
#     Edge 10, Type (0, 0), None
#     Edge 11, Type (0, 0), None
#     Edge 12, Type (0, 0), None
#     Edge 13, Type (0, 0), None
#     Edge 14, Type (0, 0), None
#     Edge 15, Type (0, 0), None
#     Edge 16, Type (0, 0), None
#     Edge 17, Type (0, 0), None
#     Edge 18, Type (0, 0), None
#     Edge 19, Type (0, 0), None
#     Edge 20, Type (0, 0), None
#     Edge 21, Type (0, 0), None
#     Edge 22, Type (0, 0), None
#     Edge 23, Type (0, 0), None
# Relax obj value: 0.030
# Max RMSD: 0.060
# Mean RMSD: 0.060
data_MOF--net-mmt--node1-KUFVIS_clean_sbu_0--edge1-none
_symmetry_space_group_name_H-M    P1
_symmetry_Int_Tables_number       1
_symmetry_cell_setting            triclinic
loop_
_symmetry_equiv_pos_as_xyz
'x, y, z'
_cell_length_a     10.61548
_cell_length_b     16.31831
_cell_length_c     19.971584
_cell_angle_alpha  90.000373
_cell_angle_beta   89.999335
_cell_angle_gamma 90.15864
loop_
_atom_site_label
_atom_site_type_symbol
_atom_site_fract_x
_atom_site_fract_y
_atom_site_fract_z
_atom_type_partial_charge
Mn0 Mn 0.06145 0.56003 0.36052 0.0
Mn1 Mn 0.0591 0.63285 0.20494 0.0
C2 C 0.89432 0.52557 0.28442 0.0
C3 C -0.0028 0.53094 0.47621 0.0
C4 C 0.27222 0.53121 0.2569 0.0
O5 O 0.16642 0.67324 0.36716 0.0
O6 O 0.12272 0.72349 0.26254 0.0
C7 C 0.92856 0.77833 0.16636 0.0
N8 N 0.92689 0.69496 0.16699 0.0
C9 C 0.84995 0.6919 0.05327 0.0
C10 C 0.86775 0.77623 0.04936 0.0
C11 C 0.90077 0.82002 0.10683 0.0
C12 C 0.88849 0.65293 0.11178 0.0
H13 H 0.96505 0.81218 0.2086 0.0
C14 C 0.17583 0.72988 0.32074 0.0
O15 O 0.10117 0.5075 0.4505 0.0
O16 O 0.93567 0.58178 0.43824 0.0
N17 N -0.00277 0.54272 0.15369 0.0
C18 C 0.01362 0.46049 0.16272 0.0
C19 C 0.94437 0.40528 0.1229 0.0
C20 C 0.87259 0.4355 0.06901 0.0
C21 C 0.86345 0.52057 0.05975 0.0
C22 C 0.91501 0.57103 0.10884 0.0
H23 H 0.07428 0.43771 0.20191 0.0
O24 O 0.93331 0.47626 0.33006 0.0
O25 O 0.95895 0.59311 0.28093 0.0
O26 O 0.21628 0.50508 0.30931 0.0
O27 O 0.21784 0.58 0.21887 0.0
C28 C 0.80737 0.55803 1.00383 0.0
C29 C 0.80587 0.64413 0.99929 0.0
H30 H 0.85745 0.80768 1.0022 0.0
H31 H 0.91058 0.88517 0.10376 0.0
H32 H 0.95328 0.33994 0.13068 0.0
H33 H 0.82837 0.39327 0.03433 0.0
H34 H 0.76927 0.52126 0.96345 0.0
H35 H 0.77267 0.67288 0.95373 0.0
Mn36 Mn 0.38672 0.969 0.36052 0.0
Mn37 Mn 0.38907 0.8962 0.20493 0.0
C38 C 0.55385 1.00346 0.28442 0.0
C39 C 0.45098 0.99809 0.47621 0.0
C40 C 0.17595 0.99783 0.2569 0.0
O41 O 0.28176 0.85579 0.36716 0.0
O42 O 0.32544 0.80555 0.26253 0.0
C43 C 0.5196 0.75071 0.16634 0.0
N44 N 0.52128 0.83408 0.16698 0.0
C45 C 0.59822 0.83714 0.05326 0.0
C46 C 0.58041 0.7528 0.04935 0.0
C47 C 0.54738 0.70902 0.10681 0.0
C48 C 0.55969 0.87611 0.11177 0.0
H49 H 0.4831 0.71686 0.20858 0.0
C50 C 0.27239 0.79914 0.32074 0.0
O51 O 0.347 0.02153 0.4505 0.0
O52 O 0.5125 0.94725 0.43823 0.0
N53 N 0.45096 0.98633 0.15368 0.0
C54 C 0.43457 0.06855 0.16271 0.0
C55 C 0.50382 0.12376 0.12289 0.0
C56 C 0.57559 0.09354 0.06901 0.0
C57 C 0.58473 1.00847 0.05974 0.0
C58 C 0.53317 0.95801 0.10883 0.0
H59 H 0.37391 0.09133 0.20191 0.0
O60 O 0.51485 0.05278 0.33006 0.0
O61 O 0.48922 0.93593 0.28093 0.0
O62 O 0.23187 0.02395 0.30932 0.0
O63 O 0.23034 0.94906 0.21886 0.0
C64 C 0.64081 0.97101 1.00382 0.0
C65 C 0.6423 0.88491 0.99928 0.0
H66 H 0.59071 0.72136 1.00218 0.0
H67 H 0.53755 0.64387 0.10374 0.0
H68 H 0.49491 0.1891 0.13068 0.0
H69 H 0.61981 0.13577 0.03433 0.0
H70 H 0.67891 1.00777 0.96344 0.0
H71 H 0.67551 0.85616 0.95372 0.0
Mn72 Mn 0.56034 0.45961 0.15754 0.0
Mn73 Mn 0.56279 0.41606 0.31941 0.0
C74 C 0.4034 0.50938 0.23371 0.0
C75 C 0.49501 0.49445 0.04264 0.0
C76 C 0.76117 0.51554 0.2608 0.0
O77 O 0.64544 0.34197 0.15067 0.0
O78 O 0.66319 0.33327 0.26414 0.0
C79 C 0.4425 0.25366 0.33513 0.0
N80 N 0.45282 0.33394 0.35175 0.0
C81 C 0.3695 0.31023 0.4618 0.0
C82 C 0.37177 0.22642 0.44843 0.0
C83 C 0.39196 0.1997 0.38275 0.0
C84 C 0.4074 0.36237 0.41066 0.0
H85 H 0.4735 0.23163 0.28681 0.0
C86 C 0.6861 0.3048 0.20445 0.0
O87 O 0.60547 0.50482 0.06615 0.0
O88 O 0.42377 0.45117 0.08224 0.0
N89 N 0.46812 0.48973 0.37383 0.0
C90 C 0.46233 0.57322 0.37364 0.0
C91 C 0.39327 0.61319 0.42386 0.0
C92 C 0.34023 0.56729 0.47631 0.0
C93 C 0.34967 0.48146 0.47516 0.0
C94 C 0.40776 0.44541 0.42008 0.0
H95 H 0.51078 0.60873 0.33582 0.0
O96 O 0.45687 0.55504 0.18903 0.0
O97 O 0.4566 0.43905 0.24179 0.0
O98 O 0.73247 0.49533 0.20157 0.0
O99 O 0.68216 0.50525 0.30618 0.0
C100 C 0.30656 0.43002 0.52682 0.0
C101 C 0.32683 0.34465 0.52247 0.0
H102 H 0.35062 0.18244 0.48684 0.0
H103 H 0.367 0.13835 0.36981 0.0
H104 H 0.38816 0.67939 0.42461 0.0
H105 H 0.29381 0.59836 0.51737 0.0
H106 H 0.26419 0.45571 0.57139 0.0
H107 H 0.30398 0.30651 0.56489 0.0
Mn108 Mn 0.88783 0.06943 0.15754 0.0
Mn109 Mn 0.88537 0.11298 0.31941 0.0
C110 C 0.04477 0.01966 0.23371 0.0
C111 C 0.95317 0.03458 0.04264 0.0
C112 C 0.687 1.0135 0.2608 0.0
O113 O 0.80273 0.18707 0.15067 0.0
O114 O 0.78498 0.19577 0.26414 0.0
C115 C 0.00567 0.27538 0.33513 0.0
N116 N -0.00465 0.1951 0.35175 0.0
C117 C 0.07867 0.21881 0.4618 0.0
C118 C 0.07641 0.30261 0.44843 0.0
C119 C 0.05621 0.32934 0.38275 0.0
C120 C 0.04076 0.16667 0.41066 0.0
H121 H -0.02534 0.2974 0.28681 0.0
C122 C 0.76207 0.22424 0.20445 0.0
O123 O 0.84271 0.02421 0.06615 0.0
O124 O 0.0244 0.07787 0.08224 0.0
N125 N -0.01996 0.03931 0.37383 0.0
C126 C -0.01417 0.95581 0.37364 0.0
C127 C 0.0549 0.91585 0.42386 0.0
C128 C 0.10794 0.96174 0.4763 0.0
C129 C 0.09849 0.04758 0.47516 0.0
C130 C 0.0404 0.08363 0.42007 0.0
H131 H 0.93738 0.92031 0.33581 0.0
O132 O -0.0087 0.97399 0.18903 0.0
O133 O -0.00843 0.08999 0.24179 0.0
O134 O 0.7157 0.03371 0.20157 0.0
O135 O 0.766 0.0238 0.30618 0.0
C136 C 0.14161 0.09901 0.52682 0.0
C137 C 0.12134 0.18438 0.52246 0.0
H138 H 0.09755 0.3466 0.48684 0.0
H139 H 0.08116 0.39069 0.36981 0.0
H140 H 0.06001 0.84965 0.4246 0.0
H141 H 0.15436 0.93068 0.51736 0.0
H142 H 0.18398 0.07332 0.57138 0.0
H143 H 0.14419 0.22252 0.56488 0.0
Mn144 Mn 0.88672 0.469 0.65903 0.0
Mn145 Mn 0.88907 0.39619 0.81461 0.0
C146 C 0.05385 0.50346 0.73512 0.0
C147 C 0.95098 0.4981 0.54334 0.0
C148 C 0.67595 0.49782 0.76264 0.0
O149 O 0.78176 0.35579 0.65239 0.0
O150 O 0.82545 0.30554 0.75701 0.0
C151 C 0.01962 0.2507 0.85319 0.0
N152 N 0.02128 0.33408 0.85256 0.0
C153 C 0.09822 0.33714 0.96628 0.0
C154 C 0.08042 0.2528 0.97018 0.0
C155 C 0.04741 0.20902 0.91272 0.0
C156 C 0.05968 0.3761 0.90777 0.0
H157 H -0.01687 0.21685 0.81095 0.0
C158 C 0.77235 0.29915 0.69881 0.0
O159 O 0.847 0.52153 0.56905 0.0
O160 O 0.0125 0.44725 0.58131 0.0
N161 N 0.95094 0.48632 0.86586 0.0
C162 C 0.93455 0.56855 0.85683 0.0
C163 C 0.0038 0.62375 0.89665 0.0
C164 C 0.07557 0.59353 0.95053 0.0
C165 C 0.08472 0.50846 0.9598 0.0
C166 C 0.03316 0.458 0.91071 0.0
H167 H 0.87389 0.59132 0.81764 0.0
O168 O 0.01486 0.55278 0.68949 0.0
O169 O -0.01078 0.43593 0.73862 0.0
O170 O 0.73188 0.52395 0.71024 0.0
O171 O 0.73033 0.44904 0.80068 0.0
C172 C 0.14079 0.47101 0.01572 0.0
C173 C 0.1423 0.38491 0.02025 0.0
H174 H 0.09073 0.22135 0.01735 0.0
H175 H 0.03761 0.14387 0.91578 0.0
H176 H -0.00511 0.6891 0.88886 0.0
H177 H 0.11979 0.63577 0.98521 0.0
H178 H 0.17889 0.50777 0.05609 0.0
H179 H 0.1755 0.35615 0.06581 0.0
Mn180 Mn 0.56146 0.06003 0.65903 0.0
Mn181 Mn 0.5591 0.13283 0.81462 0.0
C182 C 0.39433 0.02557 0.73513 0.0
C183 C 0.49719 0.03093 0.54334 0.0
C184 C 0.77222 0.03121 0.76265 0.0
O185 O 0.66641 0.17324 0.65239 0.0
O186 O 0.62273 0.22348 0.75702 0.0
C187 C 0.42857 0.27832 0.8532 0.0
N188 N 0.4269 0.19495 0.85257 0.0
C189 C 0.34995 0.19189 0.96629 0.0
C190 C 0.36776 0.27623 0.9702 0.0
C191 C 0.40078 0.32001 0.91273 0.0
C192 C 0.38849 0.15292 0.90778 0.0
H193 H 0.46506 0.31217 0.81096 0.0
C194 C 0.67578 0.22989 0.69881 0.0
O195 O 0.60118 1.0075 0.56905 0.0
O196 O 0.43567 0.08177 0.58131 0.0
N197 N 0.49722 0.0427 0.86586 0.0
C198 C 0.51361 0.96048 0.85683 0.0
C199 C 0.44436 0.90527 0.89665 0.0
C200 C 0.37259 0.93549 0.95054 0.0
C201 C 0.36344 0.02056 0.95981 0.0
C202 C 0.41501 0.07102 0.91072 0.0
H203 H 0.57427 0.9377 0.81764 0.0
O204 O 0.43332 0.97625 0.68949 0.0
O205 O 0.45896 0.0931 0.73862 0.0
O206 O 0.7163 1.00508 0.71023 0.0
O207 O 0.71784 0.07998 0.80068 0.0
C208 C 0.30737 0.05802 0.01573 0.0
C209 C 0.30587 0.14412 0.02026 0.0
H210 H 0.35746 0.30768 0.01736 0.0
H211 H 0.4106 0.38516 0.9158 0.0
H212 H 0.45326 0.83993 0.88887 0.0
H213 H 0.32837 0.89326 0.98522 0.0
H214 H 0.26927 0.02126 0.0561 0.0
H215 H 0.27267 0.17287 0.06582 0.0
Mn216 Mn 0.38783 0.56942 0.86201 0.0
Mn217 Mn 0.38537 0.61297 0.70014 0.0
C218 C 0.54477 0.51965 0.78584 0.0
C219 C 0.45317 0.53456 0.9769 0.0
C220 C 0.187 0.5135 0.75875 0.0
O221 O 0.30273 0.68707 0.86888 0.0
O222 O 0.28498 0.69576 0.75541 0.0
C223 C 0.50568 0.77537 0.68442 0.0
N224 N 0.49535 0.69509 0.6678 0.0
C225 C 0.57867 0.71881 0.55775 0.0
C226 C 0.57641 0.80261 0.57112 0.0
C227 C 0.55622 0.82933 0.63681 0.0
C228 C 0.54077 0.66666 0.60889 0.0
H229 H 0.47467 0.7974 0.73274 0.0
C230 C 0.26207 0.72424 0.81511 0.0
O231 O 0.3427 0.5242 0.9534 0.0
O232 O 0.5244 0.57786 0.93731 0.0
N233 N 0.48005 0.5393 0.64572 0.0
C234 C 0.48584 0.45581 0.64591 0.0
C235 C 0.5549 0.41585 0.59569 0.0
C236 C 0.60794 0.46174 0.54324 0.0
C237 C 0.5985 0.54758 0.54439 0.0
C238 C 0.54041 0.58362 0.59947 0.0
H239 H 0.43739 0.4203 0.68373 0.0
O240 O 0.4913 0.47399 0.83052 0.0
O241 O 0.49157 0.58998 0.77776 0.0
O242 O 0.2157 0.53371 0.81798 0.0
O243 O 0.26601 0.52379 0.71337 0.0
C244 C 0.64161 0.59901 0.49272 0.0
C245 C 0.62133 0.68438 0.49708 0.0
H246 H 0.59756 0.8466 0.53271 0.0
H247 H 0.58118 0.89068 0.64974 0.0
H248 H 0.56001 0.34964 0.59494 0.0
H249 H 0.65436 0.43068 0.50217 0.0
H250 H 0.68398 0.57332 0.44816 0.0
H251 H 0.64419 0.72252 0.45466 0.0
Mn252 Mn 0.06035 0.95961 0.86201 0.0
Mn253 Mn 0.06281 0.91606 0.70014 0.0
C254 C 0.9034 1.00937 0.78584 0.0
C255 C -0.005 0.99447 0.9769 0.0
C256 C 0.26118 0.01553 0.75875 0.0
O257 O 0.14544 0.84196 0.86888 0.0
O258 O 0.16319 0.83327 0.75541 0.0
C259 C 0.9425 0.75365 0.68442 0.0
N260 N 0.95283 0.83394 0.6678 0.0
C261 C 0.8695 0.81022 0.55775 0.0
C262 C 0.87176 0.72642 0.57112 0.0
C263 C 0.89196 0.69969 0.63681 0.0
C264 C 0.90741 0.86236 0.60889 0.0
H265 H 0.97351 0.73163 0.73274 0.0
C266 C 0.18611 0.80479 0.81511 0.0
O267 O 0.10547 1.00483 0.9534 0.0
O268 O 0.92377 0.95117 0.93731 0.0
N269 N 0.96814 0.98972 0.64572 0.0
C270 C 0.96235 0.07322 0.64591 0.0
C271 C 0.89328 0.11318 0.59569 0.0
C272 C 0.84024 0.06729 0.54324 0.0
C273 C 0.84968 0.98145 0.54439 0.0
C274 C 0.90778 0.9454 0.59948 0.0
H275 H 0.0108 0.10872 0.68374 0.0
O276 O 0.95688 0.05504 0.83052 0.0
O277 O 0.95661 0.93905 0.77776 0.0
O278 O 0.23248 0.99532 0.81798 0.0
O279 O 0.18218 1.00524 0.71337 0.0
C280 C 0.80657 0.93002 0.49273 0.0
C281 C 0.82684 0.84465 0.49709 0.0
H282 H 0.85061 0.68243 0.53271 0.0
H283 H 0.867 0.63835 0.64974 0.0
H284 H 0.88817 0.17938 0.59495 0.0
H285 H 0.79381 0.09835 0.50218 0.0
H286 H 0.76419 0.95571 0.44817 0.0
H287 H 0.80398 0.80651 0.45467 0.0
loop_
_geom_bond_atom_site_label_1
_geom_bond_atom_site_label_2
_geom_bond_distance
_geom_bond_site_symmetry_2
_ccdc_geom_bond_type
Mn0 O5 2.095 . S
Mn0 O15 2.162 . S
Mn0 O16 2.297 1_455 S
Mn0 O24 2.385 . S
Mn0 O25 2.209 . S
Mn0 O26 2.094 . S
Mn1 O6 2.121 . S
Mn1 N8 2.257 1_455 S
Mn1 N17 2.282 . S
Mn1 O25 2.215 . S
Mn1 O27 2.117 . S
C2 O24 1.234 1_655 S
C2 O25 1.283 1_655 S
C3 O15 1.281 . S
C3 O16 1.236 1_455 S
C4 O26 1.240 . S
C4 O27 1.264 . S
O5 Mn0 2.095 . S
O5 C14 1.250 . S
O6 Mn1 2.121 . S
O6 C14 1.258 . S
C7 N8 1.326 . S
C7 C11 1.460 . S
C7 H13 0.929 . S
N8 Mn1 2.257 1_655 S
N8 C7 1.326 . S
N8 C12 1.362 . S
C9 C10 1.258 . S
C9 C12 1.431 . S
C9 C29 1.449 . S
C10 C9 1.258 . S
C10 C11 1.477 . S
C10 H30 0.931 . S
C11 C7 1.460 . S
C11 C10 1.477 . S
C11 H31 0.930 . S
C12 N8 1.362 . S
C12 C9 1.431 . S
C12 C22 1.476 . S
H13 C7 0.929 . S
C14 O5 1.250 . S
C14 O6 1.258 . S
O15 Mn0 2.162 . S
O15 C3 1.281 . S
O16 Mn0 2.297 1_655 S
O16 C3 1.236 1_655 S
N17 Mn1 2.282 . S
N17 C18 1.328 . S
N17 C22 1.318 1_455 S
C18 N17 1.328 . S
C18 C19 1.457 . S
C18 H23 0.929 . S
C19 C18 1.457 . S
C19 C20 1.291 1_455 S
C19 H32 0.931 . S
C20 C19 1.291 1_655 S
C20 C21 1.373 . S
C20 H33 0.929 1_554 S
C21 C20 1.373 . S
C21 C22 1.396 . S
C21 C28 1.403 . S
C22 C12 1.476 . S
C22 N17 1.318 1_655 S
C22 C21 1.396 . S
H23 C18 0.929 . S
O24 Mn0 2.385 . S
O24 C2 1.234 1_455 S
O25 Mn0 2.209 . S
O25 Mn1 2.215 . S
O25 C2 1.283 1_455 S
O26 Mn0 2.094 . S
O26 C4 1.240 . S
O27 Mn1 2.117 . S
O27 C4 1.264 . S
C28 C21 1.403 . S
C28 C29 1.399 . S
C28 H34 0.929 1_554 S
C29 C9 1.449 . S
C29 C28 1.399 . S
C29 H35 0.930 1_554 S
H30 C10 0.931 . S
H31 C11 0.930 . S
H32 C19 0.931 . S
H33 C20 0.929 1_556 S
H34 C28 0.929 1_556 S
H35 C29 0.930 1_556 S
Mn36 O41 2.095 . S
Mn36 O51 2.162 1_565 S
Mn36 O52 2.297 . S
Mn36 O60 2.385 1_565 S
Mn36 O61 2.209 . S
Mn36 O62 2.094 1_565 S
Mn37 O42 2.121 . S
Mn37 N44 2.257 . S
Mn37 N53 2.282 . S
Mn37 O61 2.215 . S
Mn37 O63 2.117 . S
C38 O60 1.234 1_565 S
C38 O61 1.283 . S
C39 O51 1.281 1_565 S
C39 O52 1.236 . S
C40 O62 1.240 1_565 S
C40 O63 1.264 . S
O41 Mn36 2.095 . S
O41 C50 1.250 . S
O42 Mn37 2.121 . S
O42 C50 1.258 . S
C43 N44 1.326 . S
C43 C47 1.460 . S
C43 H49 0.929 . S
N44 Mn37 2.257 . S
N44 C43 1.326 . S
N44 C48 1.362 . S
C45 C46 1.258 . S
C45 C48 1.431 . S
C45 C65 1.449 . S
C46 C45 1.258 . S
C46 C47 1.477 . S
C46 H66 0.931 . S
C47 C43 1.460 . S
C47 C46 1.477 . S
C47 H67 0.930 . S
C48 N44 1.362 . S
C48 C45 1.431 . S
C48 C58 1.476 . S
H49 C43 0.929 . S
C50 O41 1.250 . S
C50 O42 1.258 . S
O51 Mn36 2.162 1_545 S
O51 C39 1.281 1_545 S
O52 Mn36 2.297 . S
O52 C39 1.236 . S
N53 Mn37 2.282 . S
N53 C54 1.328 1_565 S
N53 C58 1.318 . S
C54 N53 1.328 1_545 S
C54 C55 1.457 . S
C54 H59 0.929 . S
C55 C54 1.457 . S
C55 C56 1.291 . S
C55 H68 0.931 . S
C56 C55 1.291 . S
C56 C57 1.373 1_545 S
C56 H69 0.929 1_554 S
C57 C56 1.373 1_565 S
C57 C58 1.396 . S
C57 C64 1.403 . S
C58 C48 1.476 . S
C58 N53 1.318 . S
C58 C57 1.396 . S
H59 C54 0.929 . S
O60 Mn36 2.385 1_545 S
O60 C38 1.234 1_545 S
O61 Mn36 2.209 . S
O61 Mn37 2.215 . S
O61 C38 1.283 . S
O62 Mn36 2.094 1_545 S
O62 C40 1.240 1_545 S
O63 Mn37 2.117 . S
O63 C40 1.264 . S
C64 C57 1.403 . S
C64 C65 1.399 . S
C64 H70 0.929 1_554 S
C65 C45 1.449 . S
C65 C64 1.399 . S
C65 H71 0.930 1_554 S
H66 C46 0.931 . S
H67 C47 0.930 . S
H68 C55 0.931 . S
H69 C56 0.929 1_556 S
H70 C64 0.929 1_556 S
H71 C65 0.930 1_556 S
Mn72 O77 2.095 . S
Mn72 O87 2.162 . S
Mn72 O88 2.297 . S
Mn72 O96 2.385 . S
Mn72 O97 2.209 . S
Mn72 O98 2.094 . S
Mn73 O78 2.121 . S
Mn73 N80 2.257 . S
Mn73 N89 2.282 . S
Mn73 O97 2.215 . S
Mn73 O99 2.117 . S
C74 O96 1.234 . S
C74 O97 1.283 . S
C75 O87 1.281 . S
C75 O88 1.236 . S
C76 O98 1.240 . S
C76 O99 1.264 . S
O77 Mn72 2.095 . S
O77 C86 1.250 . S
O78 Mn73 2.121 . S
O78 C86 1.258 . S
C79 N80 1.326 . S
C79 C83 1.460 . S
C79 H85 0.929 . S
N80 Mn73 2.257 . S
N80 C79 1.326 . S
N80 C84 1.362 . S
C81 C82 1.258 . S
C81 C84 1.431 . S
C81 C101 1.449 . S
C82 C81 1.258 . S
C82 C83 1.477 . S
C82 H102 0.931 . S
C83 C79 1.460 . S
C83 C82 1.477 . S
C83 H103 0.930 . S
C84 N80 1.362 . S
C84 C81 1.431 . S
C84 C94 1.476 . S
H85 C79 0.929 . S
C86 O77 1.250 . S
C86 O78 1.258 . S
O87 Mn72 2.162 . S
O87 C75 1.281 . S
O88 Mn72 2.297 . S
O88 C75 1.236 . S
N89 Mn73 2.282 . S
N89 C90 1.328 . S
N89 C94 1.318 . S
C90 N89 1.328 . S
C90 C91 1.457 . S
C90 H95 0.929 . S
C91 C90 1.457 . S
C91 C92 1.291 . S
C91 H104 0.931 . S
C92 C91 1.291 . S
C92 C93 1.373 . S
C92 H105 0.929 . S
C93 C92 1.373 . S
C93 C94 1.396 . S
C93 C100 1.403 . S
C94 C84 1.476 . S
C94 N89 1.318 . S
C94 C93 1.396 . S
H95 C90 0.929 . S
O96 Mn72 2.385 . S
O96 C74 1.234 . S
O97 Mn72 2.209 . S
O97 Mn73 2.215 . S
O97 C74 1.283 . S
O98 Mn72 2.094 . S
O98 C76 1.240 . S
O99 Mn73 2.117 . S
O99 C76 1.264 . S
C100 C93 1.403 . S
C100 C101 1.399 . S
C100 H106 0.929 . S
C101 C81 1.449 . S
C101 C100 1.399 . S
C101 H107 0.930 . S
H102 C82 0.931 . S
H103 C83 0.930 . S
H104 C91 0.931 . S
H105 C92 0.929 . S
H106 C100 0.929 . S
H107 C101 0.930 . S
Mn108 O113 2.095 . S
Mn108 O123 2.162 1_545 S
Mn108 O124 2.297 1_655 S
Mn108 O132 2.385 1_545 S
Mn108 O133 2.209 . S
Mn108 O134 2.094 1_545 S
Mn109 O114 2.121 . S
Mn109 N116 2.257 1_655 S
Mn109 N125 2.282 . S
Mn109 O133 2.215 . S
Mn109 O135 2.117 . S
C110 O132 1.234 1_445 S
C110 O133 1.283 1_455 S
C111 O123 1.281 1_545 S
C111 O124 1.236 1_655 S
C112 O134 1.240 1_545 S
C112 O135 1.264 . S
O113 Mn108 2.095 . S
O113 C122 1.250 . S
O114 Mn109 2.121 . S
O114 C122 1.258 . S
C115 N116 1.326 . S
C115 C119 1.460 . S
C115 H121 0.929 . S
N116 Mn109 2.257 1_455 S
N116 C115 1.326 . S
N116 C120 1.362 . S
C117 C118 1.258 . S
C117 C120 1.431 . S
C117 C137 1.449 . S
C118 C117 1.258 . S
C118 C119 1.477 . S
C118 H138 0.931 . S
C119 C115 1.460 . S
C119 C118 1.477 . S
C119 H139 0.930 . S
C120 N116 1.362 . S
C120 C117 1.431 . S
C120 C130 1.476 . S
H121 C115 0.929 . S
C122 O113 1.250 . S
C122 O114 1.258 . S
O123 Mn108 2.162 1_565 S
O123 C111 1.281 1_565 S
O124 Mn108 2.297 1_455 S
O124 C111 1.236 1_455 S
N125 Mn109 2.282 . S
N125 C126 1.328 1_545 S
N125 C130 1.318 1_655 S
C126 N125 1.328 1_565 S
C126 C127 1.457 . S
C126 H131 0.929 . S
C127 C126 1.457 . S
C127 C128 1.291 1_655 S
C127 H140 0.931 . S
C128 C127 1.291 1_455 S
C128 C129 1.373 1_565 S
C128 H141 0.929 . S
C129 C128 1.373 1_545 S
C129 C130 1.396 . S
C129 C136 1.403 . S
C130 C120 1.476 . S
C130 N125 1.318 1_455 S
C130 C129 1.396 . S
H131 C126 0.929 . S
O132 Mn108 2.385 1_565 S
O132 C110 1.234 1_665 S
O133 Mn108 2.209 . S
O133 Mn109 2.215 . S
O133 C110 1.283 1_655 S
O134 Mn108 2.094 1_565 S
O134 C112 1.240 1_565 S
O135 Mn109 2.117 . S
O135 C112 1.264 . S
C136 C129 1.403 . S
C136 C137 1.399 . S
C136 H142 0.929 . S
C137 C117 1.449 . S
C137 C136 1.399 . S
C137 H143 0.930 . S
H138 C118 0.931 . S
H139 C119 0.930 . S
H140 C127 0.931 . S
H141 C128 0.929 . S
H142 C136 0.929 . S
H143 C137 0.930 . S
Mn144 O149 2.095 . S
Mn144 O159 2.162 . S
Mn144 O160 2.297 1_655 S
Mn144 O168 2.385 . S
Mn144 O169 2.209 . S
Mn144 O170 2.094 . S
Mn145 O150 2.121 . S
Mn145 N152 2.257 1_655 S
Mn145 N161 2.282 . S
Mn145 O169 2.215 . S
Mn145 O171 2.117 . S
C146 O168 1.234 1_455 S
C146 O169 1.283 1_455 S
C147 O159 1.281 . S
C147 O160 1.236 1_655 S
C148 O170 1.240 . S
C148 O171 1.264 . S
O149 Mn144 2.095 . S
O149 C158 1.250 . S
O150 Mn145 2.121 . S
O150 C158 1.258 . S
C151 N152 1.326 . S
C151 C155 1.460 . S
C151 H157 0.929 . S
N152 Mn145 2.257 1_455 S
N152 C151 1.326 . S
N152 C156 1.362 . S
C153 C154 1.258 . S
C153 C156 1.431 . S
C153 C173 1.449 . S
C154 C153 1.258 . S
C154 C155 1.477 . S
C154 H174 0.931 . S
C155 C151 1.460 . S
C155 C154 1.477 . S
C155 H175 0.930 . S
C156 N152 1.362 . S
C156 C153 1.431 . S
C156 C166 1.476 . S
H157 C151 0.929 . S
C158 O149 1.250 . S
C158 O150 1.258 . S
O159 Mn144 2.162 . S
O159 C147 1.281 . S
O160 Mn144 2.297 1_455 S
O160 C147 1.236 1_455 S
N161 Mn145 2.282 . S
N161 C162 1.328 . S
N161 C166 1.318 1_655 S
C162 N161 1.328 . S
C162 C163 1.457 . S
C162 H167 0.929 . S
C163 C162 1.457 . S
C163 C164 1.291 1_655 S
C163 H176 0.931 . S
C164 C163 1.291 1_455 S
C164 C165 1.373 . S
C164 H177 0.929 1_556 S
C165 C164 1.373 . S
C165 C166 1.396 . S
C165 C172 1.403 . S
C166 C156 1.476 . S
C166 N161 1.318 1_455 S
C166 C165 1.396 . S
H167 C162 0.929 . S
O168 Mn144 2.385 . S
O168 C146 1.234 1_655 S
O169 Mn144 2.209 . S
O169 Mn145 2.215 . S
O169 C146 1.283 1_655 S
O170 Mn144 2.094 . S
O170 C148 1.240 . S
O171 Mn145 2.117 . S
O171 C148 1.264 . S
C172 C165 1.403 . S
C172 C173 1.399 . S
C172 H178 0.929 1_556 S
C173 C153 1.449 . S
C173 C172 1.399 . S
C173 H179 0.930 1_556 S
H174 C154 0.931 . S
H175 C155 0.930 . S
H176 C163 0.931 . S
H177 C164 0.929 1_554 S
H178 C172 0.929 1_554 S
H179 C173 0.930 1_554 S
Mn180 O185 2.095 . S
Mn180 O195 2.162 1_545 S
Mn180 O196 2.297 . S
Mn180 O204 2.385 1_545 S
Mn180 O205 2.209 . S
Mn180 O206 2.094 1_545 S
Mn181 O186 2.121 . S
Mn181 N188 2.257 . S
Mn181 N197 2.282 . S
Mn181 O205 2.215 . S
Mn181 O207 2.117 . S
C182 O204 1.234 1_545 S
C182 O205 1.283 . S
C183 O195 1.281 1_545 S
C183 O196 1.236 . S
C184 O206 1.240 1_545 S
C184 O207 1.264 . S
O185 Mn180 2.095 . S
O185 C194 1.250 . S
O186 Mn181 2.121 . S
O186 C194 1.258 . S
C187 N188 1.326 . S
C187 C191 1.460 . S
C187 H193 0.929 . S
N188 Mn181 2.257 . S
N188 C187 1.326 . S
N188 C192 1.362 . S
C189 C190 1.258 . S
C189 C192 1.431 . S
C189 C209 1.449 . S
C190 C189 1.258 . S
C190 C191 1.477 . S
C190 H210 0.931 . S
C191 C187 1.460 . S
C191 C190 1.477 . S
C191 H211 0.930 . S
C192 N188 1.362 . S
C192 C189 1.431 . S
C192 C202 1.476 . S
H193 C187 0.929 . S
C194 O185 1.250 . S
C194 O186 1.258 . S
O195 Mn180 2.162 1_565 S
O195 C183 1.281 1_565 S
O196 Mn180 2.297 . S
O196 C183 1.236 . S
N197 Mn181 2.282 . S
N197 C198 1.328 1_545 S
N197 C202 1.318 . S
C198 N197 1.328 1_565 S
C198 C199 1.457 . S
C198 H203 0.929 . S
C199 C198 1.457 . S
C199 C200 1.291 . S
C199 H212 0.931 . S
C200 C199 1.291 . S
C200 C201 1.373 1_565 S
C200 H213 0.929 1_556 S
C201 C200 1.373 1_545 S
C201 C202 1.396 . S
C201 C208 1.403 . S
C202 C192 1.476 . S
C202 N197 1.318 . S
C202 C201 1.396 . S
H203 C198 0.929 . S
O204 Mn180 2.385 1_565 S
O204 C182 1.234 1_565 S
O205 Mn180 2.209 . S
O205 Mn181 2.215 . S
O205 C182 1.283 . S
O206 Mn180 2.094 1_565 S
O206 C184 1.240 1_565 S
O207 Mn181 2.117 . S
O207 C184 1.264 . S
C208 C201 1.403 . S
C208 C209 1.399 . S
C208 H214 0.929 1_556 S
C209 C189 1.449 . S
C209 C208 1.399 . S
C209 H215 0.930 1_556 S
H210 C190 0.931 . S
H211 C191 0.930 . S
H212 C199 0.931 . S
H213 C200 0.929 1_554 S
H214 C208 0.929 1_554 S
H215 C209 0.930 1_554 S
Mn216 O221 2.095 . S
Mn216 O231 2.162 . S
Mn216 O232 2.297 . S
Mn216 O240 2.385 . S
Mn216 O241 2.209 . S
Mn216 O242 2.094 . S
Mn217 O222 2.121 . S
Mn217 N224 2.257 . S
Mn217 N233 2.282 . S
Mn217 O241 2.215 . S
Mn217 O243 2.117 . S
C218 O240 1.234 . S
C218 O241 1.283 . S
C219 O231 1.281 . S
C219 O232 1.236 . S
C220 O242 1.240 . S
C220 O243 1.264 . S
O221 Mn216 2.095 . S
O221 C230 1.250 . S
O222 Mn217 2.121 . S
O222 C230 1.258 . S
C223 N224 1.326 . S
C223 C227 1.460 . S
C223 H229 0.929 . S
N224 Mn217 2.257 . S
N224 C223 1.326 . S
N224 C228 1.362 . S
C225 C226 1.258 . S
C225 C228 1.431 . S
C225 C245 1.449 . S
C226 C225 1.258 . S
C226 C227 1.477 . S
C226 H246 0.931 . S
C227 C223 1.460 . S
C227 C226 1.477 . S
C227 H247 0.930 . S
C228 N224 1.362 . S
C228 C225 1.431 . S
C228 C238 1.476 . S
H229 C223 0.929 . S
C230 O221 1.250 . S
C230 O222 1.258 . S
O231 Mn216 2.162 . S
O231 C219 1.281 . S
O232 Mn216 2.297 . S
O232 C219 1.236 . S
N233 Mn217 2.282 . S
N233 C234 1.328 . S
N233 C238 1.318 . S
C234 N233 1.328 . S
C234 C235 1.457 . S
C234 H239 0.929 . S
C235 C234 1.457 . S
C235 C236 1.291 . S
C235 H248 0.931 . S
C236 C235 1.291 . S
C236 C237 1.373 . S
C236 H249 0.929 . S
C237 C236 1.373 . S
C237 C238 1.396 . S
C237 C244 1.403 . S
C238 C228 1.476 . S
C238 N233 1.318 . S
C238 C237 1.396 . S
H239 C234 0.929 . S
O240 Mn216 2.385 . S
O240 C218 1.234 . S
O241 Mn216 2.209 . S
O241 Mn217 2.215 . S
O241 C218 1.283 . S
O242 Mn216 2.094 . S
O242 C220 1.240 . S
O243 Mn217 2.117 . S
O243 C220 1.264 . S
C244 C237 1.403 . S
C244 C245 1.399 . S
C244 H250 0.929 . S
C245 C225 1.449 . S
C245 C244 1.399 . S
C245 H251 0.930 . S
H246 C226 0.931 . S
H247 C227 0.930 . S
H248 C235 0.931 . S
H249 C236 0.929 . S
H250 C244 0.929 . S
H251 C245 0.930 . S
Mn252 O257 2.095 . S
Mn252 O267 2.162 1_565 S
Mn252 O268 2.297 1_455 S
Mn252 O276 2.385 1_565 S
Mn252 O277 2.209 . S
Mn252 O278 2.094 1_565 S
Mn253 O258 2.121 . S
Mn253 N260 2.257 1_455 S
Mn253 N269 2.282 . S
Mn253 O277 2.215 . S
Mn253 O279 2.117 . S
C254 O276 1.234 1_665 S
C254 O277 1.283 1_655 S
C255 O267 1.281 1_565 S
C255 O268 1.236 1_455 S
C256 O278 1.240 1_565 S
C256 O279 1.264 . S
O257 Mn252 2.095 . S
O257 C266 1.250 . S
O258 Mn253 2.121 . S
O258 C266 1.258 . S
C259 N260 1.326 . S
C259 C263 1.460 . S
C259 H265 0.929 . S
N260 Mn253 2.257 1_655 S
N260 C259 1.326 . S
N260 C264 1.362 . S
C261 C262 1.258 . S
C261 C264 1.431 . S
C261 C281 1.449 . S
C262 C261 1.258 . S
C262 C263 1.477 . S
C262 H282 0.931 . S
C263 C259 1.460 . S
C263 C262 1.477 . S
C263 H283 0.930 . S
C264 N260 1.362 . S
C264 C261 1.431 . S
C264 C274 1.476 . S
H265 C259 0.929 . S
C266 O257 1.250 . S
C266 O258 1.258 . S
O267 Mn252 2.162 1_545 S
O267 C255 1.281 1_545 S
O268 Mn252 2.297 1_655 S
O268 C255 1.236 1_655 S
N269 Mn253 2.282 . S
N269 C270 1.328 1_565 S
N269 C274 1.318 1_455 S
C270 N269 1.328 1_545 S
C270 C271 1.457 . S
C270 H275 0.929 . S
C271 C270 1.457 . S
C271 C272 1.291 1_455 S
C271 H284 0.931 . S
C272 C271 1.291 1_655 S
C272 C273 1.373 1_545 S
C272 H285 0.929 . S
C273 C272 1.373 1_565 S
C273 C274 1.396 . S
C273 C280 1.403 . S
C274 C264 1.476 . S
C274 N269 1.318 1_655 S
C274 C273 1.396 . S
H275 C270 0.929 . S
O276 Mn252 2.385 1_545 S
O276 C254 1.234 1_445 S
O277 Mn252 2.209 . S
O277 Mn253 2.215 . S
O277 C254 1.283 1_455 S
O278 Mn252 2.094 1_545 S
O278 C256 1.240 1_545 S
O279 Mn253 2.117 . S
O279 C256 1.264 . S
C280 C273 1.403 . S
C280 C281 1.399 . S
C280 H286 0.929 . S
C281 C261 1.449 . S
C281 C280 1.399 . S
C281 H287 0.930 . S
H282 C262 0.931 . S
H283 C263 0.930 . S
H284 C271 0.931 . S
H285 C272 0.929 . S
H286 C280 0.929 . S
H287 C281 0.930 . S
C4 C74 1.353 . S
C110 C40 1.353 1_545 S
C76 C2 1.353 . S
C112 C38 1.353 1_545 S
C218 C148 1.353 . S
C184 C254 1.353 1_545 S
C220 C146 1.353 . S
C256 C182 1.353 1_565 S
C3 C147 1.621 1_455 S
C39 C183 1.621 1_565 S
C75 C219 1.621 1_554 S
C255 C111 1.621 1_466 S
C14 C50 1.262 . S
C122 C86 1.262 . S
C194 C158 1.262 . S
C230 C266 1.262 . S
