# Generated by pormake.
# Topology qtz-f, (3)-cn, num edge types: 1
# Building blocks:
#     Node 0, Type 0, BuildingBlock: WUSLED_clean_sbu_0, # of connection points: 3
#     Node 1, Type 0, BuildingBlock: WUSLED_clean_sbu_0, # of connection points: 3
#     Node 2, Type 0, BuildingBlock: WUSLED_clean_sbu_0, # of connection points: 3
#     Node 3, Type 0, BuildingBlock: WUSLED_clean_sbu_0, # of connection points: 3
#     Node 4, Type 0, BuildingBlock: WUSLED_clean_sbu_0, # of connection points: 3
#     Node 5, Type 0, BuildingBlock: WUSLED_clean_sbu_0, # of connection points: 3
#     Node 6, Type 0, BuildingBlock: WUSLED_clean_sbu_0, # of connection points: 3
#     Node 7, Type 0, BuildingBlock: WUSLED_clean_sbu_0, # of connection points: 3
#     Node 8, Type 0, BuildingBlock: WUSLED_clean_sbu_0, # of connection points: 3
#     Node 9, Type 0, BuildingBlock: WUSLED_clean_sbu_0, # of connection points: 3
#     Node 10, Type 0, BuildingBlock: WUSLED_clean_sbu_0, # of connection points: 3
#     Node 11, Type 0, BuildingBlock: WUSLED_clean_sbu_0, # of connection points: 3
#     Edge 12, Type (0, 0), BuildingBlock: UVAHIK_clean_linker_0, # of connection points: 2
#     Edge 13, Type (0, 0), BuildingBlock: UVAHIK_clean_linker_0, # of connection points: 2
#     Edge 14, Type (0, 0), BuildingBlock: UVAHIK_clean_linker_0, # of connection points: 2
#     Edge 15, Type (0, 0), BuildingBlock: UVAHIK_clean_linker_0, # of connection points: 2
#     Edge 16, Type (0, 0), BuildingBlock: UVAHIK_clean_linker_0, # of connection points: 2
#     Edge 17, Type (0, 0), BuildingBlock: UVAHIK_clean_linker_0, # of connection points: 2
#     Edge 18, Type (0, 0), BuildingBlock: UVAHIK_clean_linker_0, # of connection points: 2
#     Edge 19, Type (0, 0), BuildingBlock: UVAHIK_clean_linker_0, # of connection points: 2
#     Edge 20, Type (0, 0), BuildingBlock: UVAHIK_clean_linker_0, # of connection points: 2
#     Edge 21, Type (0, 0), BuildingBlock: UVAHIK_clean_linker_0, # of connection points: 2
#     Edge 22, Type (0, 0), BuildingBlock: UVAHIK_clean_linker_0, # of connection points: 2
#     Edge 23, Type (0, 0), BuildingBlock: UVAHIK_clean_linker_0, # of connection points: 2
#     Edge 24, Type (0, 0), BuildingBlock: UVAHIK_clean_linker_0, # of connection points: 2
#     Edge 25, Type (0, 0), BuildingBlock: UVAHIK_clean_linker_0, # of connection points: 2
#     Edge 26, Type (0, 0), BuildingBlock: UVAHIK_clean_linker_0, # of connection points: 2
#     Edge 27, Type (0, 0), BuildingBlock: UVAHIK_clean_linker_0, # of connection points: 2
#     Edge 28, Type (0, 0), BuildingBlock: UVAHIK_clean_linker_0, # of connection points: 2
#     Edge 29, Type (0, 0), BuildingBlock: UVAHIK_clean_linker_0, # of connection points: 2
# Relax obj value: 0.121
# Max RMSD: 0.087
# Mean RMSD: 0.087
data_MOF--net-qtz-f--node1-WUSLED_clean_sbu_0--edge1-UVAHIK_clean_linker_0
_symmetry_space_group_name_H-M    P1
_symmetry_Int_Tables_number       1
_symmetry_cell_setting            triclinic
loop_
_symmetry_equiv_pos_as_xyz
'x, y, z'
_cell_length_a     114.12998
_cell_length_b     114.18284
_cell_length_c     67.988493
_cell_angle_alpha  89.984014
_cell_angle_beta   90.024632
_cell_angle_gamma 120.00881
loop_
_atom_site_label
_atom_site_type_symbol
_atom_site_fract_x
_atom_site_fract_y
_atom_site_fract_z
_atom_type_partial_charge
C0 C 0.09727 0.41495 0.11944 0.0
C1 C 0.09031 0.42078 0.12829 0.0
C2 C 0.07092 0.39843 0.13443 0.0
C3 C 0.07725 0.41262 0.13565 0.0
C4 C 0.07802 0.39264 0.12568 0.0
C5 C 0.09109 0.40084 0.11823 0.0
U6 U 0.12737 0.44981 0.11412 0.0
O7 O 0.14929 0.45752 0.11425 0.0
O8 O 0.13971 0.4608 0.08843 0.0
C9 C 0.15084 0.46202 0.09608 0.0
C10 C 0.11089 0.42365 0.11136 0.0
C11 C 0.15888 0.45853 0.08295 0.0
C12 C 0.16516 0.44259 0.06995 0.0
C13 C 0.15719 0.44548 0.0825 0.0
C14 C 0.17639 0.4657 0.05808 0.0
C15 C 0.17483 0.45268 0.05758 0.0
C16 C 0.16849 0.46858 0.07065 0.0
C17 C 0.12507 0.47836 0.13998 0.0
C18 C 0.14081 0.50219 0.13413 0.0
C19 C 0.12311 0.49543 0.15854 0.0
C20 C 0.1186 0.48186 0.15438 0.0
C21 C 0.13417 0.50577 0.14832 0.0
C22 C 0.1363 0.48858 0.13002 0.0
C23 C 0.11963 0.46404 0.13508 0.0
O24 O 0.11165 0.43232 0.09798 0.0
O25 O 0.12064 0.42912 0.12449 0.0
O26 O 0.12615 0.45832 0.1426 0.0
O27 O 0.11628 0.46086 0.11655 0.0
H28 H 0.09493 0.43167 0.12933 0.0
H29 H 0.07204 0.41745 0.14197 0.0
H30 H 0.07352 0.38176 0.12472 0.0
H31 H 0.09636 0.39618 0.11151 0.0
H32 H 0.16365 0.43244 0.06978 0.0
H33 H 0.14974 0.43756 0.09183 0.0
H34 H 0.18387 0.47374 0.04896 0.0
H35 H 0.16994 0.47871 0.07084 0.0
H36 H 0.14944 0.50991 0.12615 0.0
H37 H 0.11764 0.49782 0.16934 0.0
H38 H 0.10989 0.47408 0.16216 0.0
H39 H 0.14145 0.48602 0.11888 0.0
C40 C 0.68507 0.09692 0.4542 0.0
C41 C 0.6716 0.08942 0.46055 0.0
C42 C 0.67482 0.07053 0.46929 0.0
C43 C 0.66651 0.07636 0.46794 0.0
C44 C 0.68833 0.07809 0.46283 0.0
C45 C 0.69342 0.09119 0.45535 0.0
U46 U 0.67961 0.12638 0.44816 0.0
O47 O 0.69308 0.14837 0.45093 0.0
O48 O 0.68241 0.13972 0.42313 0.0
C49 C 0.69139 0.15064 0.43247 0.0
C50 C 0.6903 0.11074 0.44675 0.0
C51 C 0.70379 0.15949 0.42144 0.0
C52 C 0.72446 0.16377 0.40497 0.0
C53 C 0.71289 0.1552 0.41593 0.0
C54 C 0.71792 0.18096 0.40512 0.0
C55 C 0.7271 0.17675 0.39941 0.0
C56 C 0.70639 0.17241 0.41603 0.0
C57 C 0.64616 0.12106 0.4698 0.0
C58 C 0.63798 0.13693 0.46626 0.0
C59 C 0.62448 0.11577 0.48359 0.0
C60 C 0.63445 0.11233 0.4803 0.0
C61 C 0.62603 0.12802 0.47641 0.0
C62 C 0.64797 0.13345 0.46292 0.0
C63 C 0.65608 0.11678 0.46569 0.0
O64 O 0.68329 0.11179 0.43219 0.0
O65 O 0.69338 0.11997 0.46043 0.0
O66 O 0.66768 0.1234 0.47503 0.0
O67 O 0.65741 0.11457 0.44708 0.0
H68 H 0.665 0.09368 0.45979 0.0
H69 H 0.656 0.07078 0.47242 0.0
H70 H 0.69504 0.07397 0.46384 0.0
H71 H 0.70386 0.09688 0.45059 0.0
H72 H 0.73137 0.16026 0.40097 0.0
H73 H 0.711 0.14524 0.42002 0.0
H74 H 0.71949 0.19077 0.40082 0.0
H75 H 0.69943 0.17584 0.42008 0.0
H76 H 0.63943 0.14639 0.46044 0.0
H77 H 0.61551 0.1088 0.49175 0.0
H78 H 0.63294 0.10275 0.48576 0.0
H79 H 0.65699 0.14029 0.45475 0.0
C80 C 0.58851 0.68272 0.78326 0.0
C81 C 0.58249 0.66921 0.78943 0.0
C82 C 0.60456 0.67231 0.79816 0.0
C83 C 0.59043 0.66404 0.79671 0.0
C84 C 0.61057 0.68585 0.79183 0.0
C85 C 0.60259 0.69101 0.78445 0.0
U86 U 0.55376 0.67814 0.77898 0.0
O87 O 0.5459 0.69212 0.78267 0.0
O88 O 0.54295 0.68135 0.75472 0.0
C89 C 0.54155 0.69053 0.76442 0.0
C90 C 0.57996 0.68814 0.77626 0.0
C91 C 0.54513 0.70301 0.75357 0.0
C92 C 0.56089 0.72248 0.73421 0.0
C93 C 0.55793 0.71084 0.74497 0.0
C94 C 0.53835 0.71858 0.74084 0.0
C95 C 0.55111 0.72646 0.732 0.0
C96 C 0.53541 0.70698 0.75151 0.0
C97 C 0.52548 0.64542 0.80204 0.0
C98 C 0.50197 0.63972 0.80468 0.0
C99 C 0.50863 0.62346 0.81446 0.0
C100 C 0.522 0.63265 0.80944 0.0
C101 C 0.49844 0.62688 0.81224 0.0
C102 C 0.51541 0.64893 0.79962 0.0
C103 C 0.53966 0.65483 0.79699 0.0
O104 O 0.57148 0.68112 0.7621 0.0
O105 O 0.57433 0.69158 0.79026 0.0
O106 O 0.54536 0.66651 0.80619 0.0
O107 O 0.54259 0.6559 0.77815 0.0
H108 H 0.57161 0.66265 0.78867 0.0
H109 H 0.58547 0.65352 0.80111 0.0
H110 H 0.6214 0.69254 0.79293 0.0
H111 H 0.60738 0.7015 0.77989 0.0
H112 H 0.57084 0.72839 0.72775 0.0
H113 H 0.56557 0.70792 0.74648 0.0
H114 H 0.53052 0.72122 0.73917 0.0
H115 H 0.52547 0.70101 0.758 0.0
H116 H 0.49439 0.6427 0.8029 0.0
H117 H 0.50624 0.61358 0.81984 0.0
H118 H 0.52965 0.62976 0.81128 0.0
H119 H 0.51795 0.65878 0.79388 0.0
C120 C 0.90779 0.58756 0.11908 0.0
C121 C 0.91496 0.58153 0.12661 0.0
C122 C 0.93409 0.60369 0.13456 0.0
C123 C 0.92798 0.5895 0.13418 0.0
C124 C 0.92681 0.60969 0.12705 0.0
C125 C 0.91377 0.60167 0.11936 0.0
U126 U 0.87737 0.55295 0.11382 0.0
O127 O 0.85549 0.5455 0.11436 0.0
O128 O 0.86475 0.54209 0.08827 0.0
C129 C 0.85375 0.54102 0.09616 0.0
C130 C 0.89409 0.57905 0.1111 0.0
C131 C 0.84571 0.54466 0.08327 0.0
C132 C 0.83952 0.5608 0.07076 0.0
C133 C 0.84748 0.55775 0.08309 0.0
C134 C 0.82812 0.53777 0.05856 0.0
C135 C 0.82977 0.55083 0.05832 0.0
C136 C 0.83601 0.53473 0.07092 0.0
C137 C 0.87959 0.5242 0.1394 0.0
C138 C 0.86386 0.50035 0.13363 0.0
C139 C 0.88154 0.50717 0.15813 0.0
C140 C 0.88604 0.52074 0.15389 0.0
C141 C 0.87049 0.49681 0.14791 0.0
C142 C 0.86837 0.51396 0.12944 0.0
C143 C 0.88505 0.53851 0.13444 0.0
O144 O 0.8931 0.57037 0.09758 0.0
O145 O 0.88442 0.57367 0.12433 0.0
O146 O 0.87869 0.54433 0.14217 0.0
O147 O 0.88823 0.54164 0.11585 0.0
H148 H 0.91049 0.57063 0.12654 0.0
H149 H 0.93333 0.58453 0.13951 0.0
H150 H 0.93113 0.62056 0.12732 0.0
H151 H 0.90834 0.60648 0.1137 0.0
H152 H 0.8411 0.57097 0.07079 0.0
H153 H 0.85499 0.56558 0.09247 0.0
H154 H 0.82057 0.52982 0.04939 0.0
H155 H 0.83449 0.52457 0.0709 0.0
H156 H 0.85525 0.49261 0.12565 0.0
H157 H 0.88699 0.50481 0.16899 0.0
H158 H 0.89474 0.52854 0.16167 0.0
H159 H 0.86324 0.51648 0.11824 0.0
C160 C 0.34233 0.90721 0.47143 0.0
C161 C 0.3536 0.91629 0.48246 0.0
C162 C 0.34576 0.93257 0.48231 0.0
C163 C 0.35532 0.92884 0.48783 0.0
C164 C 0.33441 0.92339 0.47122 0.0
C165 C 0.3327 0.91078 0.46583 0.0
U166 U 0.32483 0.87193 0.44668 0.0
O167 O 0.3031 0.86504 0.44912 0.0
O168 O 0.31403 0.87463 0.4219 0.0
C169 C 0.3022 0.86792 0.43066 0.0
C170 C 0.34113 0.89425 0.46577 0.0
C171 C 0.29161 0.85677 0.41912 0.0
C172 C 0.26968 0.84631 0.40299 0.0
C173 C 0.27975 0.85687 0.4141 0.0
C174 C 0.28325 0.83543 0.40184 0.0
C175 C 0.27132 0.83546 0.3967 0.0
C176 C 0.29329 0.84597 0.41297 0.0
C177 C 0.34404 0.85315 0.45058 0.0
C178 C 0.35793 0.84255 0.45105 0.0
C179 C 0.3654 0.86373 0.46822 0.0
C180 C 0.35367 0.8637 0.46228 0.0
C181 C 0.36774 0.85323 0.46252 0.0
C182 C 0.34617 0.84254 0.4451 0.0
C183 C 0.33205 0.85351 0.44361 0.0
O184 O 0.34231 0.89257 0.4469 0.0
O185 O 0.33144 0.88341 0.47437 0.0
O186 O 0.32397 0.85335 0.4575 0.0
O187 O 0.33449 0.86257 0.42992 0.0
H188 H 0.36118 0.91371 0.48679 0.0
H189 H 0.36431 0.93573 0.496 0.0
H190 H 0.32681 0.92592 0.46685 0.0
H191 H 0.32392 0.90385 0.45728 0.0
H192 H 0.26056 0.84657 0.39951 0.0
H193 H 0.27828 0.86511 0.4188 0.0
H194 H 0.28495 0.82736 0.39703 0.0
H195 H 0.30241 0.84575 0.41671 0.0
H196 H 0.35949 0.83439 0.44625 0.0
H197 H 0.37265 0.87199 0.47728 0.0
H198 H 0.35217 0.87198 0.46665 0.0
H199 H 0.33885 0.83435 0.436 0.0
C200 C 0.4156 0.32035 0.78795 0.0
C201 C 0.42155 0.33329 0.79637 0.0
C202 C 0.39929 0.33016 0.80378 0.0
C203 C 0.41349 0.33816 0.80414 0.0
C204 C 0.39337 0.31715 0.79539 0.0
C205 C 0.40148 0.31229 0.78753 0.0
U206 U 0.45038 0.32504 0.78184 0.0
O207 O 0.45807 0.31081 0.78184 0.0
O208 O 0.46108 0.32351 0.7559 0.0
C209 C 0.46229 0.31359 0.76352 0.0
C210 C 0.4242 0.31539 0.77962 0.0
C211 C 0.45854 0.30194 0.7505 0.0
C212 C 0.44279 0.27908 0.73945 0.0
C213 C 0.44588 0.29007 0.75181 0.0
C214 C 0.46485 0.29182 0.72417 0.0
C215 C 0.45226 0.27985 0.72549 0.0
C216 C 0.46795 0.30274 0.73657 0.0
C217 C 0.47917 0.356 0.80736 0.0
C218 C 0.50302 0.36426 0.80126 0.0
C219 C 0.49626 0.37495 0.82607 0.0
C220 C 0.48268 0.36585 0.82194 0.0
C221 C 0.5066 0.37436 0.81565 0.0
C222 C 0.4894 0.35513 0.79717 0.0
C223 C 0.46483 0.34708 0.80257 0.0
O224 O 0.43275 0.32325 0.76608 0.0
O225 O 0.42978 0.31113 0.7926 0.0
O226 O 0.45916 0.33487 0.81017 0.0
O227 O 0.46155 0.34719 0.78407 0.0
H228 H 0.43246 0.33966 0.79681 0.0
H229 H 0.41841 0.3483 0.81015 0.0
H230 H 0.38248 0.31066 0.79508 0.0
H231 H 0.39673 0.30226 0.78116 0.0
H232 H 0.43297 0.27003 0.7407 0.0
H233 H 0.43843 0.28929 0.7624 0.0
H234 H 0.47243 0.29268 0.71378 0.0
H235 H 0.47777 0.31181 0.73537 0.0
H236 H 0.51074 0.36346 0.79311 0.0
H237 H 0.49864 0.38271 0.83702 0.0
H238 H 0.47489 0.36667 0.8299 0.0
H239 H 0.48684 0.34752 0.7859 0.0
C240 C 0.58682 0.90654 0.55264 0.0
C241 C 0.58122 0.91446 0.54665 0.0
C242 C 0.6037 0.9333 0.53951 0.0
C243 C 0.58958 0.92773 0.54024 0.0
C244 C 0.60925 0.92523 0.54516 0.0
C245 C 0.60086 0.91196 0.55175 0.0
U246 U 0.55196 0.87594 0.55549 0.0
O247 O 0.54469 0.85412 0.55412 0.0
O248 O 0.54053 0.86275 0.58027 0.0
C249 C 0.53983 0.85198 0.57212 0.0
C250 C 0.57797 0.89265 0.55973 0.0
C251 C 0.54344 0.8439 0.58498 0.0
C252 C 0.55955 0.83764 0.5974 0.0
C253 C 0.55651 0.84561 0.5851 0.0
C254 C 0.53655 0.82634 0.60974 0.0
C255 C 0.54959 0.82792 0.60989 0.0
C256 C 0.53352 0.83424 0.59739 0.0
C257 C 0.52376 0.87845 0.52841 0.0
C258 C 0.49961 0.86408 0.53401 0.0
C259 C 0.50762 0.87898 0.50572 0.0
C260 C 0.52098 0.88352 0.51138 0.0
C261 C 0.49678 0.8693 0.51705 0.0
C262 C 0.51301 0.86859 0.53962 0.0
C263 C 0.53792 0.88386 0.5344 0.0
O264 O 0.56892 0.89134 0.57283 0.0
O265 O 0.57297 0.88332 0.54597 0.0
O266 O 0.5441 0.87783 0.52679 0.0
O267 O 0.54051 0.88664 0.5532 0.0
H268 H 0.57037 0.9104 0.54702 0.0
H269 H 0.58499 0.93362 0.5357 0.0
H270 H 0.62009 0.92927 0.54483 0.0
H271 H 0.60534 0.90596 0.55623 0.0
H272 H 0.56971 0.83917 0.59731 0.0
H273 H 0.56435 0.85309 0.5757 0.0
H274 H 0.5286 0.81883 0.61897 0.0
H275 H 0.52337 0.83277 0.59748 0.0
H276 H 0.49148 0.85652 0.54293 0.0
H277 H 0.50579 0.88333 0.49273 0.0
H278 H 0.52915 0.89115 0.50259 0.0
H279 H 0.51498 0.86449 0.55277 0.0
C280 C 0.68345 0.58756 0.88434 0.0
C281 C 0.66975 0.58167 0.87915 0.0
C282 C 0.67284 0.60384 0.87131 0.0
C283 C 0.66448 0.58973 0.87278 0.0
C284 C 0.68661 0.60969 0.87628 0.0
C285 C 0.69187 0.6016 0.88281 0.0
U286 U 0.6794 0.55289 0.88788 0.0
O287 O 0.69381 0.54552 0.88449 0.0
O288 O 0.68264 0.54212 0.91218 0.0
C289 C 0.69208 0.54102 0.90267 0.0
C290 C 0.68892 0.57899 0.89102 0.0
C291 C 0.70448 0.54474 0.91381 0.0
C292 C 0.72389 0.56076 0.93305 0.0
C293 C 0.71227 0.55764 0.92212 0.0
C294 C 0.72004 0.53816 0.92725 0.0
C295 C 0.7279 0.55103 0.93574 0.0
C296 C 0.70845 0.53506 0.91641 0.0
C297 C 0.64741 0.52405 0.86428 0.0
C298 C 0.63757 0.50008 0.87139 0.0
C299 C 0.63012 0.50734 0.84286 0.0
C300 C 0.63918 0.52082 0.84759 0.0
C301 C 0.62911 0.49682 0.85481 0.0
C302 C 0.6467 0.5136 0.87604 0.0
C303 C 0.65638 0.53835 0.86934 0.0
O304 O 0.6819 0.57032 0.90498 0.0
O305 O 0.69254 0.5736 0.87688 0.0
O306 O 0.66814 0.54439 0.86034 0.0
O307 O 0.65719 0.54139 0.88813 0.0
H308 H 0.66313 0.57081 0.88001 0.0
H309 H 0.65389 0.58489 0.86876 0.0
H310 H 0.69327 0.62054 0.8754 0.0
H311 H 0.70248 0.6063 0.88667 0.0
H312 H 0.72979 0.5708 0.93925 0.0
H313 H 0.70935 0.56525 0.92021 0.0
H314 H 0.72269 0.53036 0.92929 0.0
H315 H 0.70251 0.52504 0.91016 0.0
H316 H 0.63711 0.49219 0.88076 0.0
H317 H 0.62363 0.50518 0.83015 0.0
H318 H 0.63959 0.52876 0.83836 0.0
H319 H 0.65308 0.5159 0.88892 0.0
C320 C 0.09834 0.68238 0.21833 0.0
C321 C 0.09045 0.66867 0.21322 0.0
C322 C 0.07144 0.67188 0.20536 0.0
C323 C 0.07712 0.66346 0.20689 0.0
C324 C 0.07945 0.68567 0.21017 0.0
C325 C 0.0928 0.69086 0.21667 0.0
U326 U 0.12911 0.6785 0.22151 0.0
O327 O 0.15092 0.69312 0.2194 0.0
O328 O 0.14263 0.68088 0.24611 0.0
C329 C 0.15332 0.69071 0.23744 0.0
C330 C 0.11234 0.68776 0.2252 0.0
C331 C 0.16161 0.70265 0.24969 0.0
C332 C 0.16496 0.72251 0.26759 0.0
C333 C 0.15697 0.71143 0.25541 0.0
C334 C 0.18225 0.71611 0.26828 0.0
C335 C 0.17765 0.72491 0.27429 0.0
C336 C 0.17429 0.70509 0.25611 0.0
C337 C 0.12648 0.64721 0.19636 0.0
C338 C 0.14053 0.63729 0.20346 0.0
C339 C 0.12596 0.63004 0.17478 0.0
C340 C 0.12154 0.6391 0.17955 0.0
C341 C 0.13537 0.6289 0.18681 0.0
C342 C 0.13616 0.64642 0.20816 0.0
C343 C 0.12103 0.65605 0.20164 0.0
O344 O 0.1139 0.68043 0.23876 0.0
O345 O 0.12152 0.6918 0.21124 0.0
O346 O 0.12697 0.66806 0.19336 0.0
O347 O 0.11837 0.65632 0.22039 0.0
H348 H 0.09461 0.66199 0.21416 0.0
H349 H 0.07128 0.65286 0.203 0.0
H350 H 0.07532 0.69237 0.20921 0.0
H351 H 0.09877 0.70147 0.22047 0.0
H352 H 0.16109 0.72904 0.27208 0.0
H353 H 0.14715 0.70964 0.25062 0.0
H354 H 0.19205 0.71778 0.2729 0.0
H355 H 0.17803 0.69842 0.25177 0.0
H356 H 0.14789 0.63673 0.21289 0.0
H357 H 0.12166 0.62361 0.162 0.0
H358 H 0.11406 0.63958 0.1703 0.0
H359 H 0.14017 0.65269 0.22114 0.0
C360 C 0.41689 0.09827 0.54921 0.0
C361 C 0.42299 0.09059 0.54449 0.0
C362 C 0.40107 0.07143 0.53556 0.0
C363 C 0.41516 0.0773 0.53786 0.0
C364 C 0.39501 0.07921 0.54027 0.0
C365 C 0.40287 0.09253 0.54704 0.0
U366 U 0.45128 0.12926 0.55236 0.0
O367 O 0.45828 0.15096 0.54897 0.0
O368 O 0.46213 0.14337 0.57649 0.0
C369 C 0.46289 0.15379 0.56708 0.0
C370 C 0.42527 0.11234 0.55588 0.0
C371 C 0.45895 0.16223 0.57841 0.0
C372 C 0.44325 0.16487 0.59955 0.0
C373 C 0.44651 0.15661 0.58831 0.0
C374 C 0.46473 0.18441 0.59079 0.0
C375 C 0.45236 0.17887 0.60095 0.0
C376 C 0.46798 0.17616 0.57964 0.0
C377 C 0.48015 0.12637 0.52799 0.0
C378 C 0.50421 0.13949 0.53526 0.0
C379 C 0.4965 0.1262 0.50536 0.0
C380 C 0.48311 0.12199 0.51043 0.0
C381 C 0.50719 0.13486 0.51783 0.0
C382 C 0.49078 0.13533 0.54026 0.0
C383 C 0.46589 0.12103 0.53345 0.0
O384 O 0.43408 0.11418 0.56971 0.0
O385 O 0.43042 0.12136 0.54172 0.0
O386 O 0.45967 0.12663 0.52461 0.0
O387 O 0.46304 0.11882 0.55229 0.0
H388 H 0.43383 0.09487 0.54598 0.0
H389 H 0.42017 0.07158 0.53474 0.0
H390 H 0.38422 0.07509 0.53846 0.0
H391 H 0.39801 0.09836 0.55046 0.0
H392 H 0.43359 0.16032 0.60704 0.0
H393 H 0.43939 0.14585 0.58745 0.0
H394 H 0.47206 0.1951 0.59178 0.0
H395 H 0.47765 0.18065 0.57214 0.0
H396 H 0.51224 0.14626 0.54506 0.0
H397 H 0.49843 0.12231 0.49198 0.0
H398 H 0.47503 0.11507 0.5008 0.0
H399 H 0.48871 0.13892 0.55384 0.0
C400 C 0.32065 0.41569 0.88679 0.0
C401 C 0.33453 0.42121 0.88319 0.0
C402 C 0.33095 0.39893 0.87488 0.0
C403 C 0.33965 0.4129 0.87739 0.0
C404 C 0.31701 0.39344 0.87829 0.0
C405 C 0.31191 0.40177 0.88427 0.0
U406 U 0.32537 0.45067 0.88853 0.0
O407 O 0.31133 0.45836 0.88383 0.0
O408 O 0.3221 0.46199 0.91193 0.0
C409 C 0.31284 0.46306 0.90186 0.0
C410 C 0.31531 0.42455 0.89261 0.0
C411 C 0.30031 0.45942 0.91258 0.0
C412 C 0.2807 0.44346 0.93151 0.0
C413 C 0.29235 0.4465 0.92076 0.0
C414 C 0.28481 0.46616 0.92575 0.0
C415 C 0.27681 0.45328 0.93418 0.0
C416 C 0.29643 0.46918 0.91506 0.0
C417 C 0.35827 0.47855 0.86534 0.0
C418 C 0.36384 0.50191 0.86114 0.0
C419 C 0.38048 0.4953 0.85357 0.0
C420 C 0.37125 0.48201 0.8589 0.0
C421 C 0.37689 0.50542 0.85452 0.0
C422 C 0.35459 0.48856 0.86651 0.0
C423 C 0.34883 0.46445 0.87076 0.0
O424 O 0.32219 0.43333 0.90653 0.0
O425 O 0.31208 0.42988 0.87792 0.0
O426 O 0.3372 0.45859 0.86137 0.0
O427 O 0.34761 0.46182 0.8897 0.0
H428 H 0.34143 0.43198 0.88479 0.0
H429 H 0.35039 0.41746 0.87457 0.0
H430 H 0.31008 0.3827 0.87656 0.0
H431 H 0.30115 0.39736 0.88687 0.0
H432 H 0.2747 0.43342 0.93765 0.0
H433 H 0.29521 0.43883 0.91893 0.0
H434 H 0.28224 0.47402 0.92776 0.0
H435 H 0.30251 0.47922 0.90891 0.0
H436 H 0.36073 0.50944 0.86193 0.0
H437 H 0.39051 0.49768 0.84895 0.0
H438 H 0.37427 0.47441 0.85804 0.0
H439 H 0.34458 0.48603 0.87151 0.0
C440 C 0.90613 0.31952 0.21644 0.0
C441 C 0.91344 0.33272 0.20899 0.0
C442 C 0.93268 0.32965 0.20208 0.0
C443 C 0.92659 0.33776 0.20195 0.0
C444 C 0.92526 0.31638 0.20952 0.0
C445 C 0.91208 0.31136 0.21665 0.0
U446 U 0.87581 0.324 0.22089 0.0
O447 O 0.85394 0.30972 0.21864 0.0
O448 O 0.86241 0.32141 0.24575 0.0
C449 C 0.85162 0.31187 0.23685 0.0
C450 C 0.89228 0.31432 0.22379 0.0
C451 C 0.84313 0.29973 0.24861 0.0
C452 C 0.83944 0.27957 0.26603 0.0
C453 C 0.84776 0.29099 0.25463 0.0
C454 C 0.82186 0.28557 0.26538 0.0
C455 C 0.82637 0.27672 0.27151 0.0
C456 C 0.83016 0.29694 0.25404 0.0
C457 C 0.87876 0.35563 0.19638 0.0
C458 C 0.86483 0.36566 0.20368 0.0
C459 C 0.87929 0.37286 0.1749 0.0
C460 C 0.88367 0.36375 0.17958 0.0
C461 C 0.86994 0.37403 0.187 0.0
C462 C 0.86917 0.35649 0.20829 0.0
C463 C 0.88408 0.34665 0.20145 0.0
O464 O 0.89107 0.32173 0.23755 0.0
O465 O 0.88294 0.31046 0.21009 0.0
O466 O 0.87804 0.33471 0.19297 0.0
O467 O 0.88673 0.3462 0.22017 0.0
H468 H 0.90899 0.33916 0.2087 0.0
H469 H 0.93205 0.34808 0.19666 0.0
H470 H 0.92956 0.30981 0.20961 0.0
H471 H 0.90654 0.30112 0.22225 0.0
H472 H 0.84318 0.27291 0.27037 0.0
H473 H 0.85777 0.29301 0.25052 0.0
H474 H 0.81197 0.28383 0.26962 0.0
H475 H 0.82646 0.30363 0.24959 0.0
H476 H 0.85752 0.36625 0.21317 0.0
H477 H 0.88355 0.37927 0.1621 0.0
H478 H 0.89108 0.36322 0.17024 0.0
H479 H 0.86517 0.3502 0.22127 0.0
C480 C 0.25605 0.45511 0.94001 0.0
C481 C 0.26468 0.45031 0.94604 0.0
C482 C 0.24516 0.45313 0.95173 0.0
C483 C 0.2336 0.4471 0.00323 0.0
H484 H 0.19969 0.44046 0.98032 0.0
C485 C 0.18951 0.44243 0.05101 0.0
C486 C 0.18345 0.44981 0.04431 0.0
C487 C 0.19836 0.44059 0.03889 0.0
C488 C 0.20913 0.44237 0.98693 0.0
H489 H 0.26841 0.4394 0.96901 0.0
H490 H 0.24923 0.43573 0.98935 0.0
H491 H 0.21706 0.44056 0.9593 0.0
H492 H 0.1815 0.46053 0.01933 0.0
H493 H 0.19704 0.45746 0.99832 0.0
H494 H 0.22575 0.44914 0.03081 0.0
C495 C 0.25101 0.44118 0.97562 0.0
C496 C 0.21909 0.44244 0.97489 0.0
C497 C 0.26192 0.44315 0.96386 0.0
C498 C 0.18613 0.45494 0.02502 0.0
C499 C 0.19492 0.45305 0.0129 0.0
C500 C 0.22363 0.44701 0.01528 0.0
C501 C 0.24259 0.44628 0.9698 0.0
C502 C 0.23154 0.44503 0.98283 0.0
C503 C 0.20128 0.44599 0.01975 0.0
C504 C 0.21136 0.44487 0.00723 0.0
H505 H 0.25779 0.46052 0.92625 0.0
H506 H 0.23898 0.45732 0.94687 0.0
H507 H 0.24313 0.4493 0.00982 0.0
H508 H 0.18771 0.43842 0.06583 0.0
H509 H 0.203 0.43499 0.04454 0.0
C510 C 0.74315 0.18075 0.37146 0.0
C511 C 0.73917 0.18585 0.38736 0.0
C512 C 0.75388 0.18949 0.35928 0.0
C513 C 0.78319 0.22457 0.35602 0.0
H514 H 0.77771 0.21864 0.29982 0.0
C515 C 0.8227 0.26109 0.29995 0.0
C516 C 0.81747 0.26472 0.28381 0.0
C517 C 0.8141 0.25038 0.31227 0.0
C518 C 0.7794 0.22046 0.31547 0.0
H519 H 0.74377 0.20407 0.40341 0.0
H520 H 0.76219 0.2193 0.38197 0.0
H521 H 0.7611 0.20223 0.32249 0.0
H522 H 0.79916 0.2595 0.26749 0.0
H523 H 0.78418 0.2411 0.28915 0.0
H524 H 0.80117 0.24311 0.34898 0.0
C525 C 0.75714 0.20855 0.37896 0.0
C526 C 0.76994 0.21096 0.32849 0.0
C527 C 0.74644 0.19982 0.39113 0.0
C528 C 0.80351 0.25711 0.27995 0.0
C529 C 0.79493 0.24643 0.29225 0.0
C530 C 0.79263 0.2341 0.34299 0.0
C531 C 0.76089 0.20353 0.36272 0.0
C532 C 0.7716 0.213 0.34894 0.0
C533 C 0.80008 0.24302 0.30871 0.0
C534 C 0.79073 0.23228 0.32254 0.0
H535 H 0.73772 0.17005 0.36806 0.0
H536 H 0.75661 0.18526 0.34705 0.0
H537 H 0.78489 0.22638 0.37168 0.0
H538 H 0.83339 0.26679 0.30341 0.0
H539 H 0.81844 0.24793 0.32468 0.0
C540 C 0.55995 0.81329 0.61585 0.0
C541 C 0.55263 0.81931 0.62291 0.0
C542 C 0.56201 0.80448 0.62778 0.0
C543 C 0.56114 0.79394 0.67963 0.0
H544 H 0.5539 0.75987 0.65668 0.0
C545 C 0.54935 0.7473 0.72658 0.0
C546 C 0.55398 0.7386 0.72021 0.0
C547 C 0.55115 0.75815 0.71491 0.0
C548 C 0.5562 0.76942 0.66327 0.0
H549 H 0.54221 0.82124 0.64828 0.0
H550 H 0.54567 0.80581 0.66898 0.0
H551 H 0.55362 0.77712 0.63588 0.0
H552 H 0.56442 0.73472 0.6967 0.0
H553 H 0.56778 0.75383 0.67645 0.0
H554 H 0.56351 0.78617 0.70708 0.0
C555 C 0.54987 0.80791 0.65427 0.0
C556 C 0.55603 0.77931 0.65134 0.0
C557 C 0.54776 0.81664 0.64233 0.0
C558 C 0.56081 0.74126 0.70211 0.0
C559 C 0.5626 0.75213 0.69041 0.0
C560 C 0.56134 0.78406 0.69156 0.0
C561 C 0.55688 0.80159 0.64707 0.0
C562 C 0.55827 0.7916 0.65943 0.0
C563 C 0.55765 0.76061 0.69656 0.0
C564 C 0.55865 0.77159 0.6836 0.0
H565 H 0.56376 0.81508 0.60092 0.0
H566 H 0.56755 0.79987 0.62186 0.0
H567 H 0.56314 0.80338 0.68627 0.0
H568 H 0.54421 0.74564 0.74056 0.0
H569 H 0.54708 0.76437 0.72005 0.0
C570 C 0.74277 0.56117 0.96548 0.0
C571 C 0.74008 0.5541 0.94759 0.0
C572 C 0.7537 0.56317 0.97723 0.0
C573 C 0.78574 0.5621 0.97637 0.0
H574 H 0.779 0.55492 0.03219 0.0
C575 C 0.81846 0.5489 0.02587 0.0
C576 C 0.82118 0.55387 0.04524 0.0
C577 C 0.80971 0.55097 0.0139 0.0
C578 C 0.78114 0.55718 0.01669 0.0
H579 H 0.74712 0.54411 0.92764 0.0
H580 H 0.76595 0.54735 0.94824 0.0
H581 H 0.76165 0.55495 0.01131 0.0
H582 H 0.81703 0.56515 0.06709 0.0
H583 H 0.8018 0.56887 0.04606 0.0
H584 H 0.80511 0.564 0.9817 0.0
C585 C 0.75971 0.55145 0.95318 0.0
C586 C 0.77119 0.5572 0.00471 0.0
C587 C 0.7488 0.54944 0.94146 0.0
C588 C 0.8152 0.56126 0.0522 0.0
C589 C 0.80638 0.56328 0.04022 0.0
C590 C 0.79568 0.56205 0.98835 0.0
C591 C 0.76221 0.55819 0.97132 0.0
C592 C 0.77327 0.55943 0.98434 0.0
C593 C 0.80343 0.55804 0.02099 0.0
C594 C 0.7934 0.55936 0.00859 0.0
H595 H 0.73621 0.56482 0.97069 0.0
H596 H 0.75542 0.56853 0.99103 0.0
H597 H 0.78778 0.5641 0.96081 0.0
H598 H 0.82302 0.5433 0.02 0.0
H599 H 0.80757 0.54668 0.99924 0.0
C600 C 0.19292 0.73468 0.30357 0.0
C601 C 0.18608 0.73643 0.28764 0.0
C602 C 0.20121 0.74554 0.31581 0.0
C603 C 0.221 0.78275 0.31681 0.0
H604 H 0.22151 0.77751 0.37309 0.0
C605 C 0.25384 0.82691 0.36974 0.0
C606 C 0.26068 0.82425 0.38475 0.0
C607 C 0.24405 0.81638 0.35827 0.0
C608 C 0.22158 0.77912 0.35738 0.0
H609 H 0.18252 0.75097 0.27218 0.0
H610 H 0.19692 0.76995 0.29372 0.0
H611 H 0.20557 0.75883 0.35247 0.0
H612 H 0.26233 0.80834 0.39969 0.0
H613 H 0.24553 0.79007 0.37943 0.0
H614 H 0.23714 0.80297 0.32168 0.0
C615 C 0.19593 0.76017 0.29662 0.0
C616 C 0.21243 0.76841 0.34556 0.0
C617 C 0.18758 0.74927 0.2844 0.0
C618 C 0.25739 0.81079 0.38811 0.0
C619 C 0.24761 0.80028 0.37664 0.0
C620 C 0.23017 0.79346 0.32863 0.0
C621 C 0.20289 0.75844 0.31242 0.0
C622 C 0.21211 0.77005 0.32511 0.0
C623 C 0.24085 0.80294 0.36153 0.0
C624 C 0.23067 0.79174 0.34905 0.0
H625 H 0.19185 0.72489 0.30663 0.0
H626 H 0.20652 0.74388 0.32771 0.0
H627 H 0.22114 0.7843 0.30108 0.0
H628 H 0.2562 0.83716 0.36662 0.0
H629 H 0.23894 0.81878 0.34689 0.0
C630 C 0.45288 0.27027 0.69254 0.0
C631 C 0.44921 0.26818 0.71251 0.0
C632 C 0.45087 0.25947 0.68058 0.0
C633 C 0.44763 0.22586 0.68328 0.0
H634 H 0.43675 0.22344 0.62871 0.0
C635 C 0.44345 0.18351 0.63207 0.0
C636 C 0.44921 0.18771 0.61329 0.0
C637 C 0.44145 0.19226 0.64422 0.0
C638 C 0.43987 0.22401 0.64389 0.0
H639 H 0.44029 0.25305 0.73548 0.0
H640 H 0.43666 0.23413 0.71449 0.0
H641 H 0.4368 0.24069 0.64994 0.0
H642 H 0.45684 0.20417 0.59224 0.0
H643 H 0.4536 0.21947 0.61349 0.0
H644 H 0.45102 0.2094 0.67715 0.0
C645 C 0.4412 0.24416 0.70815 0.0
C646 C 0.43989 0.23389 0.65605 0.0
C647 C 0.44316 0.25497 0.72012 0.0
C648 C 0.45254 0.20069 0.60672 0.0
C649 C 0.45053 0.20941 0.61883 0.0
C650 C 0.44763 0.21599 0.6711 0.0
C651 C 0.44516 0.24632 0.68829 0.0
C652 C 0.44398 0.23507 0.67581 0.0
C653 C 0.44512 0.20537 0.63783 0.0
C654 C 0.44396 0.21508 0.65118 0.0
H655 H 0.45743 0.2803 0.68618 0.0
H656 H 0.45416 0.26152 0.6654 0.0
H657 H 0.451 0.22659 0.69836 0.0
H658 H 0.44085 0.17362 0.63763 0.0
H659 H 0.43712 0.18877 0.65868 0.0
C660 C 0.14165 0.61612 0.16302 0.0
C661 C 0.13919 0.6185 0.18246 0.0
C662 C 0.14393 0.60545 0.15871 0.0
C663 C 0.15176 0.58042 0.18123 0.0
H664 H 0.13191 0.55853 0.13633 0.0
C665 C 0.13835 0.52486 0.17099 0.0
C666 C 0.13826 0.52016 0.15184 0.0
C667 C 0.14087 0.53801 0.17412 0.0
C668 C 0.13773 0.56464 0.14871 0.0
H669 H 0.13756 0.61177 0.21267 0.0
H670 H 0.14142 0.59311 0.20515 0.0
H671 H 0.13205 0.57952 0.14288 0.0
H672 H 0.14118 0.52579 0.12101 0.0
H673 H 0.14578 0.54882 0.12649 0.0
H674 H 0.15711 0.56527 0.18731 0.0
C675 C 0.1418 0.5996 0.19326 0.0
C676 C 0.13781 0.5767 0.15247 0.0
C677 C 0.13957 0.6103 0.19758 0.0
C678 C 0.14126 0.52911 0.13595 0.0
C679 C 0.14375 0.54226 0.13908 0.0
C680 C 0.15165 0.56832 0.17747 0.0
C681 C 0.14375 0.59689 0.17372 0.0
C682 C 0.14468 0.58466 0.16892 0.0
C683 C 0.14332 0.54678 0.15816 0.0
C684 C 0.14448 0.5602 0.16131 0.0
H685 H 0.14164 0.62241 0.1511 0.0
H686 H 0.14566 0.60381 0.14355 0.0
H687 H 0.15732 0.58641 0.19385 0.0
H688 H 0.13625 0.51827 0.18357 0.0
H689 H 0.14036 0.54113 0.18899 0.0
C690 C 0.52963 0.13763 0.52768 0.0
C691 C 0.52127 0.13833 0.51309 0.0
C692 C 0.54227 0.13928 0.52279 0.0
C693 C 0.55977 0.13499 0.48048 0.0
H694 H 0.59077 0.15073 0.51547 0.0
C695 C 0.60147 0.12105 0.47617 0.0
C696 C 0.61499 0.13119 0.47905 0.0
C697 C 0.59096 0.12376 0.4791 0.0
C698 C 0.58227 0.14645 0.5054 0.0
H699 H 0.52 0.14222 0.48218 0.0
H700 H 0.54211 0.14523 0.47365 0.0
H701 H 0.5711 0.15306 0.52302 0.0
H702 H 0.62811 0.15219 0.48711 0.0
H703 H 0.60965 0.15697 0.49211 0.0
H704 H 0.57086 0.12833 0.46291 0.0
C705 C 0.53877 0.14309 0.4888 0.0
C706 C 0.57095 0.14766 0.50984 0.0
C707 C 0.52611 0.14139 0.49369 0.0
C708 C 0.61778 0.14418 0.48468 0.0
C709 C 0.60722 0.14689 0.48771 0.0
C710 C 0.57106 0.13378 0.47606 0.0
C711 C 0.54686 0.14172 0.5032 0.0
C712 C 0.55947 0.14174 0.4976 0.0
C713 C 0.59369 0.13668 0.48497 0.0
C714 C 0.58233 0.13925 0.48867 0.0
H715 H 0.52614 0.13515 0.54273 0.0
H716 H 0.54815 0.13801 0.53421 0.0
H717 H 0.55108 0.13018 0.47081 0.0
H718 H 0.59898 0.11098 0.47159 0.0
H719 H 0.58064 0.11561 0.47711 0.0
C720 C 0.47339 0.61504 0.80553 0.0
C721 C 0.48422 0.61693 0.81758 0.0
C722 C 0.46016 0.60483 0.80974 0.0
C723 C 0.43882 0.58037 0.84874 0.0
H724 H 0.41811 0.55846 0.80438 0.0
C725 C 0.38835 0.53058 0.86002 0.0
C726 C 0.38688 0.51956 0.84885 0.0
C727 C 0.39855 0.54377 0.85556 0.0
C728 C 0.42376 0.56446 0.81695 0.0
H729 H 0.48951 0.61008 0.84412 0.0
H730 H 0.46664 0.59209 0.85108 0.0
H731 H 0.43933 0.57931 0.79863 0.0
H732 H 0.39449 0.51386 0.82355 0.0
H733 H 0.41246 0.53666 0.81618 0.0
H734 H 0.42369 0.5651 0.86709 0.0
C735 C 0.46826 0.59854 0.8385 0.0
C736 C 0.43586 0.57653 0.81364 0.0
C737 C 0.48144 0.60874 0.83434 0.0
C738 C 0.39549 0.52209 0.83267 0.0
C739 C 0.40568 0.53522 0.82826 0.0
C740 C 0.42677 0.56825 0.85205 0.0
C741 C 0.45747 0.59628 0.82608 0.0
C742 C 0.44372 0.58447 0.82951 0.0
C743 C 0.4075 0.54622 0.83983 0.0
C744 C 0.41927 0.55996 0.83621 0.0
H745 H 0.47518 0.62113 0.79246 0.0
H746 H 0.45207 0.60349 0.8 0.0
H747 H 0.44449 0.58635 0.86131 0.0
H748 H 0.38193 0.529 0.87263 0.0
H749 H 0.39955 0.55201 0.86462 0.0
C750 C 0.86574 0.39264 0.19774 0.0
C751 C 0.86609 0.38441 0.18265 0.0
C752 C 0.86345 0.4033 0.19339 0.0
C753 C 0.86722 0.42606 0.15251 0.0
H754 H 0.84787 0.43744 0.18731 0.0
C755 C 0.86345 0.47345 0.13569 0.0
C756 C 0.86643 0.48243 0.15152 0.0
C757 C 0.86103 0.46033 0.1389 0.0
C758 C 0.85334 0.4344 0.17748 0.0
H759 H 0.86353 0.38042 0.15131 0.0
H760 H 0.85943 0.39895 0.14373 0.0
H761 H 0.84782 0.41639 0.19398 0.0
H762 H 0.86843 0.48439 0.18324 0.0
H763 H 0.86444 0.46159 0.18881 0.0
H764 H 0.87298 0.44416 0.13625 0.0
C765 C 0.86122 0.39736 0.15888 0.0
C766 C 0.85332 0.42235 0.18131 0.0
C767 C 0.86355 0.38674 0.16322 0.0
C768 C 0.86635 0.47778 0.17071 0.0
C769 C 0.86391 0.46466 0.17392 0.0
C770 C 0.86721 0.43807 0.14868 0.0
C771 C 0.86142 0.40595 0.17386 0.0
C772 C 0.86042 0.41813 0.16901 0.0
C773 C 0.8615 0.45587 0.15801 0.0
C774 C 0.86043 0.44249 0.16125 0.0
H775 H 0.8678 0.39121 0.21283 0.0
H776 H 0.86385 0.40981 0.20527 0.0
H777 H 0.87299 0.42326 0.14292 0.0
H778 H 0.86352 0.47672 0.12072 0.0
H779 H 0.85903 0.45375 0.12635 0.0
C780 C 0.47325 0.86406 0.52573 0.0
C781 C 0.48262 0.86508 0.51145 0.0
C782 C 0.46028 0.86125 0.52022 0.0
C783 C 0.44209 0.8643 0.47756 0.0
H784 H 0.41016 0.84232 0.50911 0.0
C785 C 0.39292 0.86591 0.46719 0.0
C786 C 0.38056 0.85366 0.46806 0.0
C787 C 0.40502 0.86642 0.47224 0.0
C788 C 0.41895 0.84839 0.50004 0.0
H789 H 0.48549 0.86324 0.48032 0.0
H790 H 0.46287 0.85826 0.47072 0.0
H791 H 0.4317 0.8441 0.51821 0.0
H792 H 0.37125 0.83233 0.47513 0.0
H793 H 0.39246 0.83318 0.48372 0.0
H794 H 0.42938 0.86852 0.45931 0.0
C795 C 0.46562 0.85992 0.48613 0.0
C796 C 0.43133 0.84952 0.50537 0.0
C797 C 0.47858 0.86276 0.49163 0.0
C798 C 0.38061 0.84191 0.47414 0.0
C799 C 0.39274 0.84242 0.47925 0.0
C800 C 0.42975 0.86319 0.47226 0.0
C801 C 0.4564 0.85938 0.50031 0.0
C802 C 0.44306 0.85757 0.49425 0.0
C803 C 0.40509 0.85468 0.47829 0.0
C804 C 0.41806 0.85533 0.48353 0.0
H805 H 0.47609 0.86593 0.54109 0.0
H806 H 0.45349 0.86105 0.5315 0.0
H807 H 0.45094 0.87072 0.46879 0.0
H808 H 0.39328 0.87513 0.46235 0.0
H809 H 0.41433 0.87606 0.47158 0.0
C810 C 0.61067 0.47388 0.86546 0.0
C811 C 0.61881 0.48257 0.85039 0.0
C812 C 0.60006 0.46091 0.86106 0.0
C813 C 0.57722 0.442 0.82021 0.0
H814 H 0.56614 0.41114 0.85465 0.0
C815 C 0.5299 0.3908 0.8033 0.0
C816 C 0.52099 0.3847 0.81918 0.0
C817 C 0.54302 0.40152 0.80646 0.0
C818 C 0.5691 0.41969 0.84492 0.0
H819 H 0.6227 0.48417 0.81902 0.0
H820 H 0.60427 0.4615 0.81134 0.0
H821 H 0.58716 0.4322 0.86135 0.0
H822 H 0.51916 0.38458 0.85094 0.0
H823 H 0.54197 0.40342 0.85644 0.0
H824 H 0.55908 0.42965 0.80402 0.0
C825 C 0.60589 0.46481 0.82652 0.0
C826 C 0.58112 0.43175 0.84877 0.0
C827 C 0.61646 0.47779 0.83091 0.0
C828 C 0.52571 0.38919 0.83836 0.0
C829 C 0.53884 0.39989 0.84153 0.0
C830 C 0.56523 0.42996 0.81636 0.0
C831 C 0.59738 0.45632 0.84149 0.0
C832 C 0.58523 0.44311 0.8366 0.0
C833 C 0.54755 0.40637 0.82559 0.0
C834 C 0.56092 0.41872 0.82881 0.0
H835 H 0.61213 0.47731 0.88059 0.0
H836 H 0.59362 0.45471 0.87293 0.0
H837 H 0.57994 0.45061 0.81073 0.0
H838 H 0.52656 0.38766 0.78833 0.0
H839 H 0.54955 0.40619 0.79388 0.0
C840 C 0.04746 0.37822 0.13167 0.0
C841 C 0.05689 0.38981 0.142 0.0
C842 C 0.03412 0.37052 0.1383 0.0
C843 C 0.01222 0.3644 0.18212 0.0
H844 H 0.98347 0.35107 0.14334 0.0
C845 C 0.9559 0.33223 0.20422 0.0
C846 C 0.94673 0.33513 0.19458 0.0
C847 C 0.96925 0.33783 0.19758 0.0
C848 C 0.99137 0.35478 0.15439 0.0
H849 H 0.0597 0.4021 0.16783 0.0
H850 H 0.0364 0.38899 0.17902 0.0
H851 H 0.00695 0.36302 0.13259 0.0
H852 H 0.94438 0.34588 0.16997 0.0
H853 H 0.96767 0.35596 0.15881 0.0
H854 H 0.99663 0.35666 0.20394 0.0
C855 C 0.03934 0.38571 0.16591 0.0
C856 C 0.00486 0.36149 0.1482 0.0
C857 C 0.05268 0.39336 0.15933 0.0
C858 C 0.9512 0.34358 0.17795 0.0
C859 C 0.96453 0.34922 0.17136 0.0
C860 C 0.99872 0.35775 0.18831 0.0
C861 C 0.02984 0.37425 0.15541 0.0
C862 C 0.01547 0.36649 0.16199 0.0
C863 C 0.97377 0.34649 0.18115 0.0
C864 C 0.98812 0.35296 0.17453 0.0
H865 H 0.0503 0.37524 0.11817 0.0
H866 H 0.02714 0.36166 0.12997 0.0
H867 H 0.02011 0.36795 0.19315 0.0
H868 H 0.95286 0.32585 0.21716 0.0
H869 H 0.97602 0.33537 0.20534 0.0
C870 C 0.67262 0.04743 0.46903 0.0
C871 C 0.66931 0.05665 0.47747 0.0
C872 C 0.66691 0.03422 0.47628 0.0
C873 C 0.64872 0.01288 0.51963 0.0
H874 H 0.63624 0.98331 0.48238 0.0
C875 C 0.61023 0.95777 0.5401 0.0
C876 C 0.61252 0.94751 0.53306 0.0
C877 C 0.61829 0.97112 0.5338 0.0
C878 C 0.63983 0.99146 0.49298 0.0
H879 H 0.65774 0.05929 0.50061 0.0
H880 H 0.64752 0.03625 0.51279 0.0
H881 H 0.64834 0.0066 0.47053 0.0
H882 H 0.62508 0.94322 0.51388 0.0
H883 H 0.63919 0.96662 0.50278 0.0
H884 H 0.63987 0.99771 0.54201 0.0
C885 C 0.65464 0.03922 0.50073 0.0
C886 C 0.64679 0.00482 0.4862 0.0
C887 C 0.66036 0.05241 0.49355 0.0
C888 C 0.62313 0.95093 0.51965 0.0
C889 C 0.63113 0.96429 0.51319 0.0
C890 C 0.64168 0.99954 0.52638 0.0
C891 C 0.65776 0.02991 0.49214 0.0
C892 C 0.65118 0.01571 0.49943 0.0
C893 C 0.62878 0.97452 0.52019 0.0
C894 C 0.63702 0.98868 0.51311 0.0
H895 H 0.67939 0.05032 0.45655 0.0
H896 H 0.66967 0.02737 0.46945 0.0
H897 H 0.65219 0.02099 0.53029 0.0
H898 H 0.60222 0.95548 0.55057 0.0
H899 H 0.61615 0.97875 0.53931 0.0
C900 C 0.6255 0.67015 0.79815 0.0
C901 C 0.6129 0.66678 0.80642 0.0
C902 C 0.63306 0.66456 0.80562 0.0
C903 C 0.63637 0.64693 0.84949 0.0
H904 H 0.654 0.6346 0.81297 0.0
C905 C 0.65454 0.60992 0.87182 0.0
C906 C 0.66711 0.61233 0.86463 0.0
C907 C 0.6489 0.6176 0.86518 0.0
C908 C 0.64928 0.63815 0.82337 0.0
H909 H 0.5986 0.65518 0.82946 0.0
H910 H 0.61154 0.64518 0.84206 0.0
H911 H 0.6424 0.64614 0.80051 0.0
H912 H 0.68362 0.62474 0.84484 0.0
H913 H 0.67375 0.6382 0.83322 0.0
H914 H 0.643 0.63865 0.87229 0.0
C915 C 0.61569 0.65225 0.82994 0.0
C916 C 0.64264 0.64479 0.81624 0.0
C917 C 0.60816 0.65786 0.82252 0.0
C918 C 0.67397 0.6227 0.85075 0.0
C919 C 0.66826 0.63032 0.84397 0.0
C920 C 0.64294 0.64023 0.85659 0.0
C921 C 0.62821 0.65548 0.82156 0.0
C922 C 0.63597 0.64913 0.8292 0.0
C923 C 0.65565 0.62783 0.85109 0.0
C924 C 0.64935 0.63564 0.8436 0.0
H925 H 0.62941 0.67691 0.78565 0.0
H926 H 0.64273 0.66739 0.79893 0.0
H927 H 0.63158 0.65037 0.85993 0.0
H928 H 0.64907 0.60209 0.88266 0.0
H929 H 0.63911 0.61533 0.8708 0.0
C930 C 0.95212 0.60775 0.15931 0.0
C931 C 0.94799 0.61211 0.14269 0.0
C932 C 0.96532 0.61529 0.16649 0.0
C933 C 0.99987 0.64137 0.15146 0.0
H934 H 0.00687 0.64301 0.2075 0.0
C935 C 0.05366 0.67292 0.18479 0.0
C936 C 0.05718 0.66619 0.19887 0.0
C937 C 0.04028 0.66724 0.17822 0.0
C938 C 0.00507 0.64259 0.1918 0.0
H939 H 0.95458 0.62797 0.12077 0.0
H940 H 0.9775 0.64134 0.13367 0.0
H941 H 0.9836 0.63165 0.19561 0.0
H942 H 0.04938 0.64844 0.21749 0.0
H943 H 0.02607 0.63854 0.20606 0.0
H944 H 0.0214 0.65236 0.14773 0.0
C945 C 0.97056 0.63195 0.14094 0.0
C946 C 0.99173 0.63605 0.18496 0.0
C947 C 0.95735 0.62436 0.13369 0.0
C948 C 0.04701 0.6538 0.20649 0.0
C949 C 0.03363 0.6482 0.20008 0.0
C950 C 0.01322 0.648 0.15832 0.0
C951 C 0.97475 0.62745 0.15735 0.0
C952 C 0.98895 0.63518 0.16468 0.0
C953 C 0.03013 0.6548 0.18578 0.0
C954 C 0.01597 0.64853 0.17855 0.0
H955 H 0.94514 0.59848 0.16682 0.0
H956 H 0.96818 0.6114 0.179 0.0
H957 H 0.99814 0.64075 0.13573 0.0
H958 H 0.06129 0.68244 0.17855 0.0
H959 H 0.03786 0.6726 0.16728 0.0
C960 C 0.38003 0.04844 0.53647 0.0
C961 C 0.39284 0.05724 0.52841 0.0
C962 C 0.3727 0.03491 0.53049 0.0
C963 C 0.37121 0.01106 0.49166 0.0
H964 H 0.3533 0.98412 0.5324 0.0
C965 C 0.34542 0.95395 0.47433 0.0
C966 C 0.34793 0.94614 0.48783 0.0
C967 C 0.34868 0.96719 0.479 0.0
C968 C 0.35828 0.99151 0.52084 0.0
H969 H 0.40768 0.05878 0.50708 0.0
H970 H 0.39522 0.03519 0.49727 0.0
H971 H 0.36354 0.00799 0.54055 0.0
H972 H 0.35516 0.94588 0.51726 0.0
H973 H 0.36122 0.96898 0.52514 0.0
H974 H 0.36662 0.99461 0.47221 0.0
C975 C 0.39069 0.03873 0.508 0.0
C976 C 0.36401 0.00522 0.52546 0.0
C977 C 0.39796 0.05225 0.51387 0.0
C978 C 0.35329 0.95169 0.50637 0.0
C979 C 0.3566 0.96491 0.511 0.0
C980 C 0.36557 0.99735 0.48708 0.0
C981 C 0.37802 0.02983 0.51637 0.0
C982 C 0.37078 0.0152 0.51101 0.0
C983 C 0.35454 0.97292 0.49727 0.0
C984 C 0.35925 0.9874 0.50169 0.0
H985 H 0.37579 0.05189 0.54778 0.0
H986 H 0.3629 0.0284 0.53707 0.0
H987 H 0.37612 0.01844 0.48007 0.0
H988 H 0.34136 0.95002 0.45988 0.0
H989 H 0.34677 0.97299 0.46816 0.0
C990 C 0.39475 0.34342 0.82916 0.0
C991 C 0.39077 0.3355 0.81198 0.0
C992 C 0.38715 0.34898 0.8364 0.0
C993 C 0.3619 0.35845 0.8209 0.0
H994 H 0.3586 0.36196 0.87707 0.0
C995 C 0.33012 0.38048 0.85368 0.0
C996 C 0.33649 0.3902 0.86856 0.0
C997 C 0.33575 0.37275 0.84713 0.0
C998 C 0.35949 0.36111 0.86134 0.0
H999 H 0.37548 0.32709 0.78911 0.0
H1000 H 0.36199 0.33646 0.80208 0.0
H1001 H 0.37004 0.35018 0.86503 0.0
H1002 H 0.35353 0.39913 0.88865 0.0
H1003 H 0.36336 0.38568 0.87721 0.0
H1004 H 0.35133 0.36942 0.81727 0.0
C1005 C 0.37115 0.33857 0.80977 0.0
C1006 C 0.36607 0.35438 0.85442 0.0
C1007 C 0.3788 0.33304 0.80247 0.0
C1008 C 0.34845 0.39181 0.87703 0.0
C1009 C 0.35401 0.38402 0.87061 0.0
C1010 C 0.35523 0.36511 0.82783 0.0
C1011 C 0.37529 0.34671 0.82674 0.0
C1012 C 0.36752 0.35312 0.83411 0.0
C1013 C 0.3478 0.37448 0.85547 0.0
C1014 C 0.3541 0.36666 0.84812 0.0
H1015 H 0.4038 0.34537 0.83705 0.0
H1016 H 0.39075 0.35532 0.84937 0.0
H1017 H 0.36298 0.35786 0.80517 0.0
H1018 H 0.32095 0.37908 0.84678 0.0
H1019 H 0.33068 0.36541 0.83554 0.0
loop_
_geom_bond_atom_site_label_1
_geom_bond_atom_site_label_2
_geom_bond_distance
_geom_bond_site_symmetry_2
_ccdc_geom_bond_type
C0 C1 1.264 . S
C0 C5 1.479 . S
C0 C10 1.465 . S
C1 C0 1.264 . S
C1 C3 1.339 . S
C1 H28 0.931 . S
C2 C3 1.395 . S
C2 C4 1.320 . S
C3 C1 1.339 . S
C3 C2 1.395 . S
C3 H29 0.929 . S
C4 C2 1.320 . S
C4 C5 1.405 . S
C4 H30 0.930 . S
C5 C0 1.479 . S
C5 C4 1.405 . S
C5 H31 0.931 . S
U6 O7 2.454 . S
U6 O8 2.458 . S
U6 C9 2.984 . S
U6 C10 2.847 . S
U6 C23 2.882 . S
U6 O24 2.441 . S
U6 O25 2.420 . S
U6 O26 2.455 . S
U6 O27 2.449 . S
O7 U6 2.454 . S
O7 C9 1.353 . S
O8 U6 2.458 . S
O8 C9 1.286 . S
C9 U6 2.984 . S
C9 O7 1.353 . S
C9 O8 1.286 . S
C9 C11 1.363 . S
C10 C0 1.465 . S
C10 U6 2.847 . S
C10 O24 1.249 . S
C10 O25 1.202 . S
C11 C9 1.363 . S
C11 C13 1.408 . S
C11 C16 1.342 . S
C12 C13 1.310 . S
C12 C15 1.461 . S
C12 H32 0.932 . S
C13 C11 1.408 . S
C13 C12 1.310 . S
C13 H33 0.930 . S
C14 C15 1.474 . S
C14 C16 1.285 . S
C14 H34 0.929 . S
C15 C12 1.461 . S
C15 C14 1.474 . S
C16 C11 1.342 . S
C16 C14 1.285 . S
C16 H35 0.930 . S
C17 C20 1.424 . S
C17 C22 1.245 . S
C17 C23 1.428 . S
C18 C21 1.260 . S
C18 C22 1.477 . S
C18 H36 0.932 . S
C19 C20 1.384 . S
C19 C21 1.479 . S
C19 H37 0.929 . S
C20 C17 1.424 . S
C20 C19 1.384 . S
C20 H38 0.928 . S
C21 C18 1.260 . S
C21 C19 1.479 . S
C22 C17 1.245 . S
C22 C18 1.477 . S
C22 H39 0.932 . S
C23 U6 2.882 . S
C23 C17 1.428 . S
C23 O26 1.301 . S
C23 O27 1.282 . S
O24 U6 2.441 . S
O24 C10 1.249 . S
O25 U6 2.420 . S
O25 C10 1.202 . S
O26 U6 2.455 . S
O26 C23 1.301 . S
O27 U6 2.449 . S
O27 C23 1.282 . S
H28 C1 0.931 . S
H29 C3 0.929 . S
H30 C4 0.930 . S
H31 C5 0.931 . S
H32 C12 0.932 . S
H33 C13 0.930 . S
H34 C14 0.929 . S
H35 C16 0.930 . S
H36 C18 0.932 . S
H37 C19 0.929 . S
H38 C20 0.928 . S
H39 C22 0.932 . S
C40 C41 1.264 . S
C40 C45 1.479 . S
C40 C50 1.465 . S
C41 C40 1.264 . S
C41 C43 1.339 . S
C41 H68 0.931 . S
C42 C43 1.395 . S
C42 C44 1.320 . S
C43 C41 1.339 . S
C43 C42 1.395 . S
C43 H69 0.929 . S
C44 C42 1.320 . S
C44 C45 1.405 . S
C44 H70 0.930 . S
C45 C40 1.479 . S
C45 C44 1.405 . S
C45 H71 0.931 . S
U46 O47 2.454 . S
U46 O48 2.458 . S
U46 C49 2.984 . S
U46 C50 2.847 . S
U46 C63 2.882 . S
U46 O64 2.441 . S
U46 O65 2.420 . S
U46 O66 2.455 . S
U46 O67 2.449 . S
O47 U46 2.454 . S
O47 C49 1.353 . S
O48 U46 2.458 . S
O48 C49 1.286 . S
C49 U46 2.984 . S
C49 O47 1.353 . S
C49 O48 1.286 . S
C49 C51 1.363 . S
C50 C40 1.465 . S
C50 U46 2.847 . S
C50 O64 1.249 . S
C50 O65 1.202 . S
C51 C49 1.363 . S
C51 C53 1.408 . S
C51 C56 1.342 . S
C52 C53 1.310 . S
C52 C55 1.461 . S
C52 H72 0.932 . S
C53 C51 1.408 . S
C53 C52 1.310 . S
C53 H73 0.930 . S
C54 C55 1.474 . S
C54 C56 1.285 . S
C54 H74 0.929 . S
C55 C52 1.461 . S
C55 C54 1.474 . S
C56 C51 1.342 . S
C56 C54 1.285 . S
C56 H75 0.930 . S
C57 C60 1.424 . S
C57 C62 1.245 . S
C57 C63 1.428 . S
C58 C61 1.260 . S
C58 C62 1.477 . S
C58 H76 0.932 . S
C59 C60 1.384 . S
C59 C61 1.479 . S
C59 H77 0.929 . S
C60 C57 1.424 . S
C60 C59 1.384 . S
C60 H78 0.928 . S
C61 C58 1.260 . S
C61 C59 1.479 . S
C62 C57 1.245 . S
C62 C58 1.477 . S
C62 H79 0.932 . S
C63 U46 2.882 . S
C63 C57 1.428 . S
C63 O66 1.301 . S
C63 O67 1.282 . S
O64 U46 2.441 . S
O64 C50 1.249 . S
O65 U46 2.420 . S
O65 C50 1.202 . S
O66 U46 2.455 . S
O66 C63 1.301 . S
O67 U46 2.449 . S
O67 C63 1.282 . S
H68 C41 0.931 . S
H69 C43 0.929 . S
H70 C44 0.930 . S
H71 C45 0.931 . S
H72 C52 0.932 . S
H73 C53 0.930 . S
H74 C54 0.929 . S
H75 C56 0.930 . S
H76 C58 0.932 . S
H77 C59 0.929 . S
H78 C60 0.928 . S
H79 C62 0.932 . S
C80 C81 1.264 . S
C80 C85 1.479 . S
C80 C90 1.465 . S
C81 C80 1.264 . S
C81 C83 1.339 . S
C81 H108 0.931 . S
C82 C83 1.395 . S
C82 C84 1.320 . S
C83 C81 1.339 . S
C83 C82 1.395 . S
C83 H109 0.929 . S
C84 C82 1.320 . S
C84 C85 1.405 . S
C84 H110 0.930 . S
C85 C80 1.479 . S
C85 C84 1.405 . S
C85 H111 0.931 . S
U86 O87 2.454 . S
U86 O88 2.458 . S
U86 C89 2.984 . S
U86 C90 2.847 . S
U86 C103 2.882 . S
U86 O104 2.441 . S
U86 O105 2.420 . S
U86 O106 2.455 . S
U86 O107 2.449 . S
O87 U86 2.454 . S
O87 C89 1.353 . S
O88 U86 2.458 . S
O88 C89 1.286 . S
C89 U86 2.984 . S
C89 O87 1.353 . S
C89 O88 1.286 . S
C89 C91 1.363 . S
C90 C80 1.465 . S
C90 U86 2.847 . S
C90 O104 1.249 . S
C90 O105 1.202 . S
C91 C89 1.363 . S
C91 C93 1.408 . S
C91 C96 1.342 . S
C92 C93 1.310 . S
C92 C95 1.461 . S
C92 H112 0.932 . S
C93 C91 1.408 . S
C93 C92 1.310 . S
C93 H113 0.930 . S
C94 C95 1.474 . S
C94 C96 1.285 . S
C94 H114 0.929 . S
C95 C92 1.461 . S
C95 C94 1.474 . S
C96 C91 1.342 . S
C96 C94 1.285 . S
C96 H115 0.930 . S
C97 C100 1.424 . S
C97 C102 1.245 . S
C97 C103 1.428 . S
C98 C101 1.260 . S
C98 C102 1.477 . S
C98 H116 0.932 . S
C99 C100 1.384 . S
C99 C101 1.479 . S
C99 H117 0.929 . S
C100 C97 1.424 . S
C100 C99 1.384 . S
C100 H118 0.928 . S
C101 C98 1.260 . S
C101 C99 1.479 . S
C102 C97 1.245 . S
C102 C98 1.477 . S
C102 H119 0.932 . S
C103 U86 2.882 . S
C103 C97 1.428 . S
C103 O106 1.301 . S
C103 O107 1.282 . S
O104 U86 2.441 . S
O104 C90 1.249 . S
O105 U86 2.420 . S
O105 C90 1.202 . S
O106 U86 2.455 . S
O106 C103 1.301 . S
O107 U86 2.449 . S
O107 C103 1.282 . S
H108 C81 0.931 . S
H109 C83 0.929 . S
H110 C84 0.930 . S
H111 C85 0.931 . S
H112 C92 0.932 . S
H113 C93 0.930 . S
H114 C94 0.929 . S
H115 C96 0.930 . S
H116 C98 0.932 . S
H117 C99 0.929 . S
H118 C100 0.928 . S
H119 C102 0.932 . S
C120 C121 1.264 . S
C120 C125 1.479 . S
C120 C130 1.465 . S
C121 C120 1.264 . S
C121 C123 1.339 . S
C121 H148 0.931 . S
C122 C123 1.395 . S
C122 C124 1.320 . S
C123 C121 1.339 . S
C123 C122 1.395 . S
C123 H149 0.929 . S
C124 C122 1.320 . S
C124 C125 1.405 . S
C124 H150 0.930 . S
C125 C120 1.479 . S
C125 C124 1.405 . S
C125 H151 0.931 . S
U126 O127 2.454 . S
U126 O128 2.458 . S
U126 C129 2.984 . S
U126 C130 2.847 . S
U126 C143 2.882 . S
U126 O144 2.441 . S
U126 O145 2.420 . S
U126 O146 2.455 . S
U126 O147 2.449 . S
O127 U126 2.454 . S
O127 C129 1.353 . S
O128 U126 2.458 . S
O128 C129 1.286 . S
C129 U126 2.984 . S
C129 O127 1.353 . S
C129 O128 1.286 . S
C129 C131 1.363 . S
C130 C120 1.465 . S
C130 U126 2.847 . S
C130 O144 1.249 . S
C130 O145 1.202 . S
C131 C129 1.363 . S
C131 C133 1.408 . S
C131 C136 1.342 . S
C132 C133 1.310 . S
C132 C135 1.461 . S
C132 H152 0.932 . S
C133 C131 1.408 . S
C133 C132 1.310 . S
C133 H153 0.930 . S
C134 C135 1.474 . S
C134 C136 1.285 . S
C134 H154 0.929 . S
C135 C132 1.461 . S
C135 C134 1.474 . S
C136 C131 1.342 . S
C136 C134 1.285 . S
C136 H155 0.930 . S
C137 C140 1.424 . S
C137 C142 1.245 . S
C137 C143 1.428 . S
C138 C141 1.260 . S
C138 C142 1.477 . S
C138 H156 0.932 . S
C139 C140 1.384 . S
C139 C141 1.479 . S
C139 H157 0.929 . S
C140 C137 1.424 . S
C140 C139 1.384 . S
C140 H158 0.928 . S
C141 C138 1.260 . S
C141 C139 1.479 . S
C142 C137 1.245 . S
C142 C138 1.477 . S
C142 H159 0.932 . S
C143 U126 2.882 . S
C143 C137 1.428 . S
C143 O146 1.301 . S
C143 O147 1.282 . S
O144 U126 2.441 . S
O144 C130 1.249 . S
O145 U126 2.420 . S
O145 C130 1.202 . S
O146 U126 2.455 . S
O146 C143 1.301 . S
O147 U126 2.449 . S
O147 C143 1.282 . S
H148 C121 0.931 . S
H149 C123 0.929 . S
H150 C124 0.930 . S
H151 C125 0.931 . S
H152 C132 0.932 . S
H153 C133 0.930 . S
H154 C134 0.929 . S
H155 C136 0.930 . S
H156 C138 0.932 . S
H157 C139 0.929 . S
H158 C140 0.928 . S
H159 C142 0.932 . S
C160 C161 1.264 . S
C160 C165 1.479 . S
C160 C170 1.465 . S
C161 C160 1.264 . S
C161 C163 1.339 . S
C161 H188 0.931 . S
C162 C163 1.395 . S
C162 C164 1.320 . S
C163 C161 1.339 . S
C163 C162 1.395 . S
C163 H189 0.929 . S
C164 C162 1.320 . S
C164 C165 1.405 . S
C164 H190 0.930 . S
C165 C160 1.479 . S
C165 C164 1.405 . S
C165 H191 0.931 . S
U166 O167 2.454 . S
U166 O168 2.458 . S
U166 C169 2.984 . S
U166 C170 2.847 . S
U166 C183 2.882 . S
U166 O184 2.441 . S
U166 O185 2.420 . S
U166 O186 2.455 . S
U166 O187 2.449 . S
O167 U166 2.454 . S
O167 C169 1.353 . S
O168 U166 2.458 . S
O168 C169 1.286 . S
C169 U166 2.984 . S
C169 O167 1.353 . S
C169 O168 1.286 . S
C169 C171 1.363 . S
C170 C160 1.465 . S
C170 U166 2.847 . S
C170 O184 1.249 . S
C170 O185 1.202 . S
C171 C169 1.363 . S
C171 C173 1.408 . S
C171 C176 1.342 . S
C172 C173 1.310 . S
C172 C175 1.461 . S
C172 H192 0.932 . S
C173 C171 1.408 . S
C173 C172 1.310 . S
C173 H193 0.930 . S
C174 C175 1.474 . S
C174 C176 1.285 . S
C174 H194 0.929 . S
C175 C172 1.461 . S
C175 C174 1.474 . S
C176 C171 1.342 . S
C176 C174 1.285 . S
C176 H195 0.930 . S
C177 C180 1.424 . S
C177 C182 1.245 . S
C177 C183 1.428 . S
C178 C181 1.260 . S
C178 C182 1.477 . S
C178 H196 0.932 . S
C179 C180 1.384 . S
C179 C181 1.479 . S
C179 H197 0.929 . S
C180 C177 1.424 . S
C180 C179 1.384 . S
C180 H198 0.928 . S
C181 C178 1.260 . S
C181 C179 1.479 . S
C182 C177 1.245 . S
C182 C178 1.477 . S
C182 H199 0.932 . S
C183 U166 2.882 . S
C183 C177 1.428 . S
C183 O186 1.301 . S
C183 O187 1.282 . S
O184 U166 2.441 . S
O184 C170 1.249 . S
O185 U166 2.420 . S
O185 C170 1.202 . S
O186 U166 2.455 . S
O186 C183 1.301 . S
O187 U166 2.449 . S
O187 C183 1.282 . S
H188 C161 0.931 . S
H189 C163 0.929 . S
H190 C164 0.930 . S
H191 C165 0.931 . S
H192 C172 0.932 . S
H193 C173 0.930 . S
H194 C174 0.929 . S
H195 C176 0.930 . S
H196 C178 0.932 . S
H197 C179 0.929 . S
H198 C180 0.928 . S
H199 C182 0.932 . S
C200 C201 1.264 . S
C200 C205 1.479 . S
C200 C210 1.465 . S
C201 C200 1.264 . S
C201 C203 1.339 . S
C201 H228 0.931 . S
C202 C203 1.395 . S
C202 C204 1.320 . S
C203 C201 1.339 . S
C203 C202 1.395 . S
C203 H229 0.929 . S
C204 C202 1.320 . S
C204 C205 1.405 . S
C204 H230 0.930 . S
C205 C200 1.479 . S
C205 C204 1.405 . S
C205 H231 0.931 . S
U206 O207 2.454 . S
U206 O208 2.458 . S
U206 C209 2.984 . S
U206 C210 2.847 . S
U206 C223 2.882 . S
U206 O224 2.441 . S
U206 O225 2.420 . S
U206 O226 2.455 . S
U206 O227 2.449 . S
O207 U206 2.454 . S
O207 C209 1.353 . S
O208 U206 2.458 . S
O208 C209 1.286 . S
C209 U206 2.984 . S
C209 O207 1.353 . S
C209 O208 1.286 . S
C209 C211 1.363 . S
C210 C200 1.465 . S
C210 U206 2.847 . S
C210 O224 1.249 . S
C210 O225 1.202 . S
C211 C209 1.363 . S
C211 C213 1.408 . S
C211 C216 1.342 . S
C212 C213 1.310 . S
C212 C215 1.461 . S
C212 H232 0.932 . S
C213 C211 1.408 . S
C213 C212 1.310 . S
C213 H233 0.930 . S
C214 C215 1.474 . S
C214 C216 1.285 . S
C214 H234 0.929 . S
C215 C212 1.461 . S
C215 C214 1.474 . S
C216 C211 1.342 . S
C216 C214 1.285 . S
C216 H235 0.930 . S
C217 C220 1.424 . S
C217 C222 1.245 . S
C217 C223 1.428 . S
C218 C221 1.260 . S
C218 C222 1.477 . S
C218 H236 0.932 . S
C219 C220 1.384 . S
C219 C221 1.479 . S
C219 H237 0.929 . S
C220 C217 1.424 . S
C220 C219 1.384 . S
C220 H238 0.928 . S
C221 C218 1.260 . S
C221 C219 1.479 . S
C222 C217 1.245 . S
C222 C218 1.477 . S
C222 H239 0.932 . S
C223 U206 2.882 . S
C223 C217 1.428 . S
C223 O226 1.301 . S
C223 O227 1.282 . S
O224 U206 2.441 . S
O224 C210 1.249 . S
O225 U206 2.420 . S
O225 C210 1.202 . S
O226 U206 2.455 . S
O226 C223 1.301 . S
O227 U206 2.449 . S
O227 C223 1.282 . S
H228 C201 0.931 . S
H229 C203 0.929 . S
H230 C204 0.930 . S
H231 C205 0.931 . S
H232 C212 0.932 . S
H233 C213 0.930 . S
H234 C214 0.929 . S
H235 C216 0.930 . S
H236 C218 0.932 . S
H237 C219 0.929 . S
H238 C220 0.928 . S
H239 C222 0.932 . S
C240 C241 1.264 . S
C240 C245 1.479 . S
C240 C250 1.465 . S
C241 C240 1.264 . S
C241 C243 1.339 . S
C241 H268 0.931 . S
C242 C243 1.395 . S
C242 C244 1.320 . S
C243 C241 1.339 . S
C243 C242 1.395 . S
C243 H269 0.929 . S
C244 C242 1.320 . S
C244 C245 1.405 . S
C244 H270 0.930 . S
C245 C240 1.479 . S
C245 C244 1.405 . S
C245 H271 0.931 . S
U246 O247 2.454 . S
U246 O248 2.458 . S
U246 C249 2.984 . S
U246 C250 2.847 . S
U246 C263 2.882 . S
U246 O264 2.441 . S
U246 O265 2.420 . S
U246 O266 2.455 . S
U246 O267 2.449 . S
O247 U246 2.454 . S
O247 C249 1.353 . S
O248 U246 2.458 . S
O248 C249 1.286 . S
C249 U246 2.984 . S
C249 O247 1.353 . S
C249 O248 1.286 . S
C249 C251 1.363 . S
C250 C240 1.465 . S
C250 U246 2.847 . S
C250 O264 1.249 . S
C250 O265 1.202 . S
C251 C249 1.363 . S
C251 C253 1.408 . S
C251 C256 1.342 . S
C252 C253 1.310 . S
C252 C255 1.461 . S
C252 H272 0.932 . S
C253 C251 1.408 . S
C253 C252 1.310 . S
C253 H273 0.930 . S
C254 C255 1.474 . S
C254 C256 1.285 . S
C254 H274 0.929 . S
C255 C252 1.461 . S
C255 C254 1.474 . S
C256 C251 1.342 . S
C256 C254 1.285 . S
C256 H275 0.930 . S
C257 C260 1.424 . S
C257 C262 1.245 . S
C257 C263 1.428 . S
C258 C261 1.260 . S
C258 C262 1.477 . S
C258 H276 0.932 . S
C259 C260 1.384 . S
C259 C261 1.479 . S
C259 H277 0.929 . S
C260 C257 1.424 . S
C260 C259 1.384 . S
C260 H278 0.928 . S
C261 C258 1.260 . S
C261 C259 1.479 . S
C262 C257 1.245 . S
C262 C258 1.477 . S
C262 H279 0.932 . S
C263 U246 2.882 . S
C263 C257 1.428 . S
C263 O266 1.301 . S
C263 O267 1.282 . S
O264 U246 2.441 . S
O264 C250 1.249 . S
O265 U246 2.420 . S
O265 C250 1.202 . S
O266 U246 2.455 . S
O266 C263 1.301 . S
O267 U246 2.449 . S
O267 C263 1.282 . S
H268 C241 0.931 . S
H269 C243 0.929 . S
H270 C244 0.930 . S
H271 C245 0.931 . S
H272 C252 0.932 . S
H273 C253 0.930 . S
H274 C254 0.929 . S
H275 C256 0.930 . S
H276 C258 0.932 . S
H277 C259 0.929 . S
H278 C260 0.928 . S
H279 C262 0.932 . S
C280 C281 1.264 . S
C280 C285 1.479 . S
C280 C290 1.465 . S
C281 C280 1.264 . S
C281 C283 1.339 . S
C281 H308 0.931 . S
C282 C283 1.395 . S
C282 C284 1.320 . S
C283 C281 1.339 . S
C283 C282 1.395 . S
C283 H309 0.929 . S
C284 C282 1.320 . S
C284 C285 1.405 . S
C284 H310 0.930 . S
C285 C280 1.479 . S
C285 C284 1.405 . S
C285 H311 0.931 . S
U286 O287 2.454 . S
U286 O288 2.458 . S
U286 C289 2.984 . S
U286 C290 2.847 . S
U286 C303 2.882 . S
U286 O304 2.441 . S
U286 O305 2.420 . S
U286 O306 2.455 . S
U286 O307 2.449 . S
O287 U286 2.454 . S
O287 C289 1.353 . S
O288 U286 2.458 . S
O288 C289 1.286 . S
C289 U286 2.984 . S
C289 O287 1.353 . S
C289 O288 1.286 . S
C289 C291 1.363 . S
C290 C280 1.465 . S
C290 U286 2.847 . S
C290 O304 1.249 . S
C290 O305 1.202 . S
C291 C289 1.363 . S
C291 C293 1.408 . S
C291 C296 1.342 . S
C292 C293 1.310 . S
C292 C295 1.461 . S
C292 H312 0.932 . S
C293 C291 1.408 . S
C293 C292 1.310 . S
C293 H313 0.930 . S
C294 C295 1.474 . S
C294 C296 1.285 . S
C294 H314 0.929 . S
C295 C292 1.461 . S
C295 C294 1.474 . S
C296 C291 1.342 . S
C296 C294 1.285 . S
C296 H315 0.930 . S
C297 C300 1.424 . S
C297 C302 1.245 . S
C297 C303 1.428 . S
C298 C301 1.260 . S
C298 C302 1.477 . S
C298 H316 0.932 . S
C299 C300 1.384 . S
C299 C301 1.479 . S
C299 H317 0.929 . S
C300 C297 1.424 . S
C300 C299 1.384 . S
C300 H318 0.928 . S
C301 C298 1.260 . S
C301 C299 1.479 . S
C302 C297 1.245 . S
C302 C298 1.477 . S
C302 H319 0.932 . S
C303 U286 2.882 . S
C303 C297 1.428 . S
C303 O306 1.301 . S
C303 O307 1.282 . S
O304 U286 2.441 . S
O304 C290 1.249 . S
O305 U286 2.420 . S
O305 C290 1.202 . S
O306 U286 2.455 . S
O306 C303 1.301 . S
O307 U286 2.449 . S
O307 C303 1.282 . S
H308 C281 0.931 . S
H309 C283 0.929 . S
H310 C284 0.930 . S
H311 C285 0.931 . S
H312 C292 0.932 . S
H313 C293 0.930 . S
H314 C294 0.929 . S
H315 C296 0.930 . S
H316 C298 0.932 . S
H317 C299 0.929 . S
H318 C300 0.928 . S
H319 C302 0.932 . S
C320 C321 1.264 . S
C320 C325 1.479 . S
C320 C330 1.465 . S
C321 C320 1.264 . S
C321 C323 1.339 . S
C321 H348 0.931 . S
C322 C323 1.395 . S
C322 C324 1.320 . S
C323 C321 1.339 . S
C323 C322 1.395 . S
C323 H349 0.929 . S
C324 C322 1.320 . S
C324 C325 1.405 . S
C324 H350 0.930 . S
C325 C320 1.479 . S
C325 C324 1.405 . S
C325 H351 0.931 . S
U326 O327 2.454 . S
U326 O328 2.458 . S
U326 C329 2.984 . S
U326 C330 2.847 . S
U326 C343 2.882 . S
U326 O344 2.441 . S
U326 O345 2.420 . S
U326 O346 2.455 . S
U326 O347 2.449 . S
O327 U326 2.454 . S
O327 C329 1.353 . S
O328 U326 2.458 . S
O328 C329 1.286 . S
C329 U326 2.984 . S
C329 O327 1.353 . S
C329 O328 1.286 . S
C329 C331 1.363 . S
C330 C320 1.465 . S
C330 U326 2.847 . S
C330 O344 1.249 . S
C330 O345 1.202 . S
C331 C329 1.363 . S
C331 C333 1.408 . S
C331 C336 1.342 . S
C332 C333 1.310 . S
C332 C335 1.461 . S
C332 H352 0.932 . S
C333 C331 1.408 . S
C333 C332 1.310 . S
C333 H353 0.930 . S
C334 C335 1.474 . S
C334 C336 1.285 . S
C334 H354 0.929 . S
C335 C332 1.461 . S
C335 C334 1.474 . S
C336 C331 1.342 . S
C336 C334 1.285 . S
C336 H355 0.930 . S
C337 C340 1.424 . S
C337 C342 1.245 . S
C337 C343 1.428 . S
C338 C341 1.260 . S
C338 C342 1.477 . S
C338 H356 0.932 . S
C339 C340 1.384 . S
C339 C341 1.479 . S
C339 H357 0.929 . S
C340 C337 1.424 . S
C340 C339 1.384 . S
C340 H358 0.928 . S
C341 C338 1.260 . S
C341 C339 1.479 . S
C342 C337 1.245 . S
C342 C338 1.477 . S
C342 H359 0.932 . S
C343 U326 2.882 . S
C343 C337 1.428 . S
C343 O346 1.301 . S
C343 O347 1.282 . S
O344 U326 2.441 . S
O344 C330 1.249 . S
O345 U326 2.420 . S
O345 C330 1.202 . S
O346 U326 2.455 . S
O346 C343 1.301 . S
O347 U326 2.449 . S
O347 C343 1.282 . S
H348 C321 0.931 . S
H349 C323 0.929 . S
H350 C324 0.930 . S
H351 C325 0.931 . S
H352 C332 0.932 . S
H353 C333 0.930 . S
H354 C334 0.929 . S
H355 C336 0.930 . S
H356 C338 0.932 . S
H357 C339 0.929 . S
H358 C340 0.928 . S
H359 C342 0.932 . S
C360 C361 1.264 . S
C360 C365 1.479 . S
C360 C370 1.465 . S
C361 C360 1.264 . S
C361 C363 1.339 . S
C361 H388 0.931 . S
C362 C363 1.395 . S
C362 C364 1.320 . S
C363 C361 1.339 . S
C363 C362 1.395 . S
C363 H389 0.929 . S
C364 C362 1.320 . S
C364 C365 1.405 . S
C364 H390 0.930 . S
C365 C360 1.479 . S
C365 C364 1.405 . S
C365 H391 0.931 . S
U366 O367 2.454 . S
U366 O368 2.458 . S
U366 C369 2.984 . S
U366 C370 2.847 . S
U366 C383 2.882 . S
U366 O384 2.441 . S
U366 O385 2.420 . S
U366 O386 2.455 . S
U366 O387 2.449 . S
O367 U366 2.454 . S
O367 C369 1.353 . S
O368 U366 2.458 . S
O368 C369 1.286 . S
C369 U366 2.984 . S
C369 O367 1.353 . S
C369 O368 1.286 . S
C369 C371 1.363 . S
C370 C360 1.465 . S
C370 U366 2.847 . S
C370 O384 1.249 . S
C370 O385 1.202 . S
C371 C369 1.363 . S
C371 C373 1.408 . S
C371 C376 1.342 . S
C372 C373 1.310 . S
C372 C375 1.461 . S
C372 H392 0.932 . S
C373 C371 1.408 . S
C373 C372 1.310 . S
C373 H393 0.930 . S
C374 C375 1.474 . S
C374 C376 1.285 . S
C374 H394 0.929 . S
C375 C372 1.461 . S
C375 C374 1.474 . S
C376 C371 1.342 . S
C376 C374 1.285 . S
C376 H395 0.930 . S
C377 C380 1.424 . S
C377 C382 1.245 . S
C377 C383 1.428 . S
C378 C381 1.260 . S
C378 C382 1.477 . S
C378 H396 0.932 . S
C379 C380 1.384 . S
C379 C381 1.479 . S
C379 H397 0.929 . S
C380 C377 1.424 . S
C380 C379 1.384 . S
C380 H398 0.928 . S
C381 C378 1.260 . S
C381 C379 1.479 . S
C382 C377 1.245 . S
C382 C378 1.477 . S
C382 H399 0.932 . S
C383 U366 2.882 . S
C383 C377 1.428 . S
C383 O386 1.301 . S
C383 O387 1.282 . S
O384 U366 2.441 . S
O384 C370 1.249 . S
O385 U366 2.420 . S
O385 C370 1.202 . S
O386 U366 2.455 . S
O386 C383 1.301 . S
O387 U366 2.449 . S
O387 C383 1.282 . S
H388 C361 0.931 . S
H389 C363 0.929 . S
H390 C364 0.930 . S
H391 C365 0.931 . S
H392 C372 0.932 . S
H393 C373 0.930 . S
H394 C374 0.929 . S
H395 C376 0.930 . S
H396 C378 0.932 . S
H397 C379 0.929 . S
H398 C380 0.928 . S
H399 C382 0.932 . S
C400 C401 1.264 . S
C400 C405 1.479 . S
C400 C410 1.465 . S
C401 C400 1.264 . S
C401 C403 1.339 . S
C401 H428 0.931 . S
C402 C403 1.395 . S
C402 C404 1.320 . S
C403 C401 1.339 . S
C403 C402 1.395 . S
C403 H429 0.929 . S
C404 C402 1.320 . S
C404 C405 1.405 . S
C404 H430 0.930 . S
C405 C400 1.479 . S
C405 C404 1.405 . S
C405 H431 0.931 . S
U406 O407 2.454 . S
U406 O408 2.458 . S
U406 C409 2.984 . S
U406 C410 2.847 . S
U406 C423 2.882 . S
U406 O424 2.441 . S
U406 O425 2.420 . S
U406 O426 2.455 . S
U406 O427 2.449 . S
O407 U406 2.454 . S
O407 C409 1.353 . S
O408 U406 2.458 . S
O408 C409 1.286 . S
C409 U406 2.984 . S
C409 O407 1.353 . S
C409 O408 1.286 . S
C409 C411 1.363 . S
C410 C400 1.465 . S
C410 U406 2.847 . S
C410 O424 1.249 . S
C410 O425 1.202 . S
C411 C409 1.363 . S
C411 C413 1.408 . S
C411 C416 1.342 . S
C412 C413 1.310 . S
C412 C415 1.461 . S
C412 H432 0.932 . S
C413 C411 1.408 . S
C413 C412 1.310 . S
C413 H433 0.930 . S
C414 C415 1.474 . S
C414 C416 1.285 . S
C414 H434 0.929 . S
C415 C412 1.461 . S
C415 C414 1.474 . S
C416 C411 1.342 . S
C416 C414 1.285 . S
C416 H435 0.930 . S
C417 C420 1.424 . S
C417 C422 1.245 . S
C417 C423 1.428 . S
C418 C421 1.260 . S
C418 C422 1.477 . S
C418 H436 0.932 . S
C419 C420 1.384 . S
C419 C421 1.479 . S
C419 H437 0.929 . S
C420 C417 1.424 . S
C420 C419 1.384 . S
C420 H438 0.928 . S
C421 C418 1.260 . S
C421 C419 1.479 . S
C422 C417 1.245 . S
C422 C418 1.477 . S
C422 H439 0.932 . S
C423 U406 2.882 . S
C423 C417 1.428 . S
C423 O426 1.301 . S
C423 O427 1.282 . S
O424 U406 2.441 . S
O424 C410 1.249 . S
O425 U406 2.420 . S
O425 C410 1.202 . S
O426 U406 2.455 . S
O426 C423 1.301 . S
O427 U406 2.449 . S
O427 C423 1.282 . S
H428 C401 0.931 . S
H429 C403 0.929 . S
H430 C404 0.930 . S
H431 C405 0.931 . S
H432 C412 0.932 . S
H433 C413 0.930 . S
H434 C414 0.929 . S
H435 C416 0.930 . S
H436 C418 0.932 . S
H437 C419 0.929 . S
H438 C420 0.928 . S
H439 C422 0.932 . S
C440 C441 1.264 . S
C440 C445 1.479 . S
C440 C450 1.465 . S
C441 C440 1.264 . S
C441 C443 1.339 . S
C441 H468 0.931 . S
C442 C443 1.395 . S
C442 C444 1.320 . S
C443 C441 1.339 . S
C443 C442 1.395 . S
C443 H469 0.929 . S
C444 C442 1.320 . S
C444 C445 1.405 . S
C444 H470 0.930 . S
C445 C440 1.479 . S
C445 C444 1.405 . S
C445 H471 0.931 . S
U446 O447 2.454 . S
U446 O448 2.458 . S
U446 C449 2.984 . S
U446 C450 2.847 . S
U446 C463 2.882 . S
U446 O464 2.441 . S
U446 O465 2.420 . S
U446 O466 2.455 . S
U446 O467 2.449 . S
O447 U446 2.454 . S
O447 C449 1.353 . S
O448 U446 2.458 . S
O448 C449 1.286 . S
C449 U446 2.984 . S
C449 O447 1.353 . S
C449 O448 1.286 . S
C449 C451 1.363 . S
C450 C440 1.465 . S
C450 U446 2.847 . S
C450 O464 1.249 . S
C450 O465 1.202 . S
C451 C449 1.363 . S
C451 C453 1.408 . S
C451 C456 1.342 . S
C452 C453 1.310 . S
C452 C455 1.461 . S
C452 H472 0.932 . S
C453 C451 1.408 . S
C453 C452 1.310 . S
C453 H473 0.930 . S
C454 C455 1.474 . S
C454 C456 1.285 . S
C454 H474 0.929 . S
C455 C452 1.461 . S
C455 C454 1.474 . S
C456 C451 1.342 . S
C456 C454 1.285 . S
C456 H475 0.930 . S
C457 C460 1.424 . S
C457 C462 1.245 . S
C457 C463 1.428 . S
C458 C461 1.260 . S
C458 C462 1.477 . S
C458 H476 0.932 . S
C459 C460 1.384 . S
C459 C461 1.479 . S
C459 H477 0.929 . S
C460 C457 1.424 . S
C460 C459 1.384 . S
C460 H478 0.928 . S
C461 C458 1.260 . S
C461 C459 1.479 . S
C462 C457 1.245 . S
C462 C458 1.477 . S
C462 H479 0.932 . S
C463 U446 2.882 . S
C463 C457 1.428 . S
C463 O466 1.301 . S
C463 O467 1.282 . S
O464 U446 2.441 . S
O464 C450 1.249 . S
O465 U446 2.420 . S
O465 C450 1.202 . S
O466 U446 2.455 . S
O466 C463 1.301 . S
O467 U446 2.449 . S
O467 C463 1.282 . S
H468 C441 0.931 . S
H469 C443 0.929 . S
H470 C444 0.930 . S
H471 C445 0.931 . S
H472 C452 0.932 . S
H473 C453 0.930 . S
H474 C454 0.929 . S
H475 C456 0.930 . S
H476 C458 0.932 . S
H477 C459 0.929 . S
H478 C460 0.928 . S
H479 C462 0.932 . S
C480 C481 1.349 . S
C480 C482 1.327 . S
C480 H505 0.950 . S
C481 C480 1.349 . S
C481 C497 1.349 . S
C482 C480 1.327 . S
C482 C501 1.429 . S
C482 H506 0.950 . S
C483 C500 1.574 1_556 S
C483 C502 1.368 . S
C483 H507 0.949 . S
H484 C488 0.949 . S
C485 C486 1.349 . S
C485 C487 1.327 . S
C485 H508 0.950 . S
C486 C485 1.349 . S
C486 C498 1.349 . S
C487 C485 1.327 . S
C487 C503 1.429 . S
C487 H509 0.950 . S
C488 H484 0.949 . S
C488 C496 1.574 1_554 S
C488 C504 1.368 . S
H489 C497 0.950 . S
H490 C495 0.950 . S
H491 C496 0.949 . S
H492 C498 0.950 . S
H493 C499 0.950 . S
H494 C500 0.949 . S
C495 H490 0.950 . S
C495 C497 1.327 . S
C495 C501 1.429 . S
C496 C488 1.574 1_556 S
C496 H491 0.949 . S
C496 C502 1.368 . S
C497 C481 1.349 . S
C497 H489 0.950 . S
C497 C495 1.327 . S
C498 C486 1.349 . S
C498 H492 0.950 . S
C498 C499 1.327 . S
C499 H493 0.950 . S
C499 C498 1.327 . S
C499 C503 1.429 . S
C500 C483 1.574 1_554 S
C500 H494 0.949 . S
C500 C504 1.368 . S
C501 C482 1.429 . S
C501 C495 1.429 . S
C501 C502 1.523 . S
C502 C483 1.368 . S
C502 C496 1.368 . S
C502 C501 1.523 . S
C503 C487 1.429 . S
C503 C499 1.429 . S
C503 C504 1.523 . S
C504 C488 1.368 . S
C504 C500 1.368 . S
C504 C503 1.523 . S
H505 C480 0.950 . S
H506 C482 0.950 . S
H507 C483 0.949 . S
H508 C485 0.950 . S
H509 C487 0.950 . S
C510 C511 1.349 . S
C510 C512 1.327 . S
C510 H535 0.950 . S
C511 C510 1.349 . S
C511 C527 1.349 . S
C512 C510 1.327 . S
C512 C531 1.429 . S
C512 H536 0.950 . S
C513 C530 1.574 . S
C513 C532 1.368 . S
C513 H537 0.949 . S
H514 C518 0.949 . S
C515 C516 1.349 . S
C515 C517 1.327 . S
C515 H538 0.950 . S
C516 C515 1.349 . S
C516 C528 1.349 . S
C517 C515 1.327 . S
C517 C533 1.429 . S
C517 H539 0.950 . S
C518 H514 0.949 . S
C518 C526 1.574 . S
C518 C534 1.368 . S
H519 C527 0.950 . S
H520 C525 0.950 . S
H521 C526 0.949 . S
H522 C528 0.950 . S
H523 C529 0.950 . S
H524 C530 0.949 . S
C525 H520 0.950 . S
C525 C527 1.327 . S
C525 C531 1.429 . S
C526 C518 1.574 . S
C526 H521 0.949 . S
C526 C532 1.368 . S
C527 C511 1.349 . S
C527 H519 0.950 . S
C527 C525 1.327 . S
C528 C516 1.349 . S
C528 H522 0.950 . S
C528 C529 1.327 . S
C529 H523 0.950 . S
C529 C528 1.327 . S
C529 C533 1.429 . S
C530 C513 1.574 . S
C530 H524 0.949 . S
C530 C534 1.368 . S
C531 C512 1.429 . S
C531 C525 1.429 . S
C531 C532 1.523 . S
C532 C513 1.368 . S
C532 C526 1.368 . S
C532 C531 1.523 . S
C533 C517 1.429 . S
C533 C529 1.429 . S
C533 C534 1.523 . S
C534 C518 1.368 . S
C534 C530 1.368 . S
C534 C533 1.523 . S
H535 C510 0.950 . S
H536 C512 0.950 . S
H537 C513 0.949 . S
H538 C515 0.950 . S
H539 C517 0.950 . S
C540 C541 1.349 . S
C540 C542 1.327 . S
C540 H565 0.950 . S
C541 C540 1.349 . S
C541 C557 1.349 . S
C542 C540 1.327 . S
C542 C561 1.429 . S
C542 H566 0.950 . S
C543 C560 1.574 . S
C543 C562 1.368 . S
C543 H567 0.949 . S
H544 C548 0.949 . S
C545 C546 1.349 . S
C545 C547 1.327 . S
C545 H568 0.950 . S
C546 C545 1.349 . S
C546 C558 1.349 . S
C547 C545 1.327 . S
C547 C563 1.429 . S
C547 H569 0.950 . S
C548 H544 0.949 . S
C548 C556 1.574 . S
C548 C564 1.368 . S
H549 C557 0.950 . S
H550 C555 0.950 . S
H551 C556 0.949 . S
H552 C558 0.950 . S
H553 C559 0.950 . S
H554 C560 0.949 . S
C555 H550 0.950 . S
C555 C557 1.327 . S
C555 C561 1.429 . S
C556 C548 1.574 . S
C556 H551 0.949 . S
C556 C562 1.368 . S
C557 C541 1.349 . S
C557 H549 0.950 . S
C557 C555 1.327 . S
C558 C546 1.349 . S
C558 H552 0.950 . S
C558 C559 1.327 . S
C559 H553 0.950 . S
C559 C558 1.327 . S
C559 C563 1.429 . S
C560 C543 1.574 . S
C560 H554 0.949 . S
C560 C564 1.368 . S
C561 C542 1.429 . S
C561 C555 1.429 . S
C561 C562 1.523 . S
C562 C543 1.368 . S
C562 C556 1.368 . S
C562 C561 1.523 . S
C563 C547 1.429 . S
C563 C559 1.429 . S
C563 C564 1.523 . S
C564 C548 1.368 . S
C564 C560 1.368 . S
C564 C563 1.523 . S
H565 C540 0.950 . S
H566 C542 0.950 . S
H567 C543 0.949 . S
H568 C545 0.950 . S
H569 C547 0.950 . S
C570 C571 1.349 . S
C570 C572 1.327 . S
C570 H595 0.950 . S
C571 C570 1.349 . S
C571 C587 1.349 . S
C572 C570 1.327 . S
C572 C591 1.429 . S
C572 H596 0.950 . S
C573 C590 1.574 1_556 S
C573 C592 1.368 . S
C573 H597 0.949 . S
H574 C578 0.949 . S
C575 C576 1.349 . S
C575 C577 1.327 . S
C575 H598 0.950 . S
C576 C575 1.349 . S
C576 C588 1.349 . S
C577 C575 1.327 . S
C577 C593 1.429 . S
C577 H599 0.950 . S
C578 H574 0.949 . S
C578 C586 1.574 1_554 S
C578 C594 1.368 . S
H579 C587 0.950 . S
H580 C585 0.950 . S
H581 C586 0.949 . S
H582 C588 0.950 . S
H583 C589 0.950 . S
H584 C590 0.949 . S
C585 H580 0.950 . S
C585 C587 1.327 . S
C585 C591 1.429 . S
C586 C578 1.574 1_556 S
C586 H581 0.949 . S
C586 C592 1.368 . S
C587 C571 1.349 . S
C587 H579 0.950 . S
C587 C585 1.327 . S
C588 C576 1.349 . S
C588 H582 0.950 . S
C588 C589 1.327 . S
C589 H583 0.950 . S
C589 C588 1.327 . S
C589 C593 1.429 . S
C590 C573 1.574 1_554 S
C590 H584 0.949 . S
C590 C594 1.368 . S
C591 C572 1.429 . S
C591 C585 1.429 . S
C591 C592 1.523 . S
C592 C573 1.368 . S
C592 C586 1.368 . S
C592 C591 1.523 . S
C593 C577 1.429 . S
C593 C589 1.429 . S
C593 C594 1.523 . S
C594 C578 1.368 . S
C594 C590 1.368 . S
C594 C593 1.523 . S
H595 C570 0.950 . S
H596 C572 0.950 . S
H597 C573 0.949 . S
H598 C575 0.950 . S
H599 C577 0.950 . S
C600 C601 1.349 . S
C600 C602 1.327 . S
C600 H625 0.950 . S
C601 C600 1.349 . S
C601 C617 1.349 . S
C602 C600 1.327 . S
C602 C621 1.429 . S
C602 H626 0.950 . S
C603 C620 1.574 . S
C603 C622 1.368 . S
C603 H627 0.949 . S
H604 C608 0.949 . S
C605 C606 1.349 . S
C605 C607 1.327 . S
C605 H628 0.950 . S
C606 C605 1.349 . S
C606 C618 1.349 . S
C607 C605 1.327 . S
C607 C623 1.429 . S
C607 H629 0.950 . S
C608 H604 0.949 . S
C608 C616 1.574 . S
C608 C624 1.368 . S
H609 C617 0.950 . S
H610 C615 0.950 . S
H611 C616 0.949 . S
H612 C618 0.950 . S
H613 C619 0.950 . S
H614 C620 0.949 . S
C615 H610 0.950 . S
C615 C617 1.327 . S
C615 C621 1.429 . S
C616 C608 1.574 . S
C616 H611 0.949 . S
C616 C622 1.368 . S
C617 C601 1.349 . S
C617 H609 0.950 . S
C617 C615 1.327 . S
C618 C606 1.349 . S
C618 H612 0.950 . S
C618 C619 1.327 . S
C619 H613 0.950 . S
C619 C618 1.327 . S
C619 C623 1.429 . S
C620 C603 1.574 . S
C620 H614 0.949 . S
C620 C624 1.368 . S
C621 C602 1.429 . S
C621 C615 1.429 . S
C621 C622 1.523 . S
C622 C603 1.368 . S
C622 C616 1.368 . S
C622 C621 1.523 . S
C623 C607 1.429 . S
C623 C619 1.429 . S
C623 C624 1.523 . S
C624 C608 1.368 . S
C624 C620 1.368 . S
C624 C623 1.523 . S
H625 C600 0.950 . S
H626 C602 0.950 . S
H627 C603 0.949 . S
H628 C605 0.950 . S
H629 C607 0.950 . S
C630 C631 1.349 . S
C630 C632 1.327 . S
C630 H655 0.950 . S
C631 C630 1.349 . S
C631 C647 1.349 . S
C632 C630 1.327 . S
C632 C651 1.429 . S
C632 H656 0.950 . S
C633 C650 1.574 . S
C633 C652 1.368 . S
C633 H657 0.949 . S
H634 C638 0.949 . S
C635 C636 1.349 . S
C635 C637 1.327 . S
C635 H658 0.950 . S
C636 C635 1.349 . S
C636 C648 1.349 . S
C637 C635 1.327 . S
C637 C653 1.429 . S
C637 H659 0.950 . S
C638 H634 0.949 . S
C638 C646 1.574 . S
C638 C654 1.368 . S
H639 C647 0.950 . S
H640 C645 0.950 . S
H641 C646 0.949 . S
H642 C648 0.950 . S
H643 C649 0.950 . S
H644 C650 0.949 . S
C645 H640 0.950 . S
C645 C647 1.327 . S
C645 C651 1.429 . S
C646 C638 1.574 . S
C646 H641 0.949 . S
C646 C652 1.368 . S
C647 C631 1.349 . S
C647 H639 0.950 . S
C647 C645 1.327 . S
C648 C636 1.349 . S
C648 H642 0.950 . S
C648 C649 1.327 . S
C649 H643 0.950 . S
C649 C648 1.327 . S
C649 C653 1.429 . S
C650 C633 1.574 . S
C650 H644 0.949 . S
C650 C654 1.368 . S
C651 C632 1.429 . S
C651 C645 1.429 . S
C651 C652 1.523 . S
C652 C633 1.368 . S
C652 C646 1.368 . S
C652 C651 1.523 . S
C653 C637 1.429 . S
C653 C649 1.429 . S
C653 C654 1.523 . S
C654 C638 1.368 . S
C654 C650 1.368 . S
C654 C653 1.523 . S
H655 C630 0.950 . S
H656 C632 0.950 . S
H657 C633 0.949 . S
H658 C635 0.950 . S
H659 C637 0.950 . S
C660 C661 1.349 . S
C660 C662 1.327 . S
C660 H685 0.950 . S
C661 C660 1.349 . S
C661 C677 1.349 . S
C662 C660 1.327 . S
C662 C681 1.429 . S
C662 H686 0.950 . S
C663 C680 1.574 . S
C663 C682 1.368 . S
C663 H687 0.949 . S
H664 C668 0.949 . S
C665 C666 1.349 . S
C665 C667 1.327 . S
C665 H688 0.950 . S
C666 C665 1.349 . S
C666 C678 1.349 . S
C667 C665 1.327 . S
C667 C683 1.429 . S
C667 H689 0.950 . S
C668 H664 0.949 . S
C668 C676 1.574 . S
C668 C684 1.368 . S
H669 C677 0.950 . S
H670 C675 0.950 . S
H671 C676 0.949 . S
H672 C678 0.950 . S
H673 C679 0.950 . S
H674 C680 0.949 . S
C675 H670 0.950 . S
C675 C677 1.327 . S
C675 C681 1.429 . S
C676 C668 1.574 . S
C676 H671 0.949 . S
C676 C682 1.368 . S
C677 C661 1.349 . S
C677 H669 0.950 . S
C677 C675 1.327 . S
C678 C666 1.349 . S
C678 H672 0.950 . S
C678 C679 1.327 . S
C679 H673 0.950 . S
C679 C678 1.327 . S
C679 C683 1.429 . S
C680 C663 1.574 . S
C680 H674 0.949 . S
C680 C684 1.368 . S
C681 C662 1.429 . S
C681 C675 1.429 . S
C681 C682 1.523 . S
C682 C663 1.368 . S
C682 C676 1.368 . S
C682 C681 1.523 . S
C683 C667 1.429 . S
C683 C679 1.429 . S
C683 C684 1.523 . S
C684 C668 1.368 . S
C684 C680 1.368 . S
C684 C683 1.523 . S
H685 C660 0.950 . S
H686 C662 0.950 . S
H687 C663 0.949 . S
H688 C665 0.950 . S
H689 C667 0.950 . S
C690 C691 1.349 . S
C690 C692 1.327 . S
C690 H715 0.950 . S
C691 C690 1.349 . S
C691 C707 1.349 . S
C692 C690 1.327 . S
C692 C711 1.429 . S
C692 H716 0.950 . S
C693 C710 1.574 . S
C693 C712 1.368 . S
C693 H717 0.949 . S
H694 C698 0.949 . S
C695 C696 1.349 . S
C695 C697 1.327 . S
C695 H718 0.950 . S
C696 C695 1.349 . S
C696 C708 1.349 . S
C697 C695 1.327 . S
C697 C713 1.429 . S
C697 H719 0.950 . S
C698 H694 0.949 . S
C698 C706 1.574 . S
C698 C714 1.368 . S
H699 C707 0.950 . S
H700 C705 0.950 . S
H701 C706 0.949 . S
H702 C708 0.950 . S
H703 C709 0.950 . S
H704 C710 0.949 . S
C705 H700 0.950 . S
C705 C707 1.327 . S
C705 C711 1.429 . S
C706 C698 1.574 . S
C706 H701 0.949 . S
C706 C712 1.368 . S
C707 C691 1.349 . S
C707 H699 0.950 . S
C707 C705 1.327 . S
C708 C696 1.349 . S
C708 H702 0.950 . S
C708 C709 1.327 . S
C709 H703 0.950 . S
C709 C708 1.327 . S
C709 C713 1.429 . S
C710 C693 1.574 . S
C710 H704 0.949 . S
C710 C714 1.368 . S
C711 C692 1.429 . S
C711 C705 1.429 . S
C711 C712 1.523 . S
C712 C693 1.368 . S
C712 C706 1.368 . S
C712 C711 1.523 . S
C713 C697 1.429 . S
C713 C709 1.429 . S
C713 C714 1.523 . S
C714 C698 1.368 . S
C714 C710 1.368 . S
C714 C713 1.523 . S
H715 C690 0.950 . S
H716 C692 0.950 . S
H717 C693 0.949 . S
H718 C695 0.950 . S
H719 C697 0.950 . S
C720 C721 1.349 . S
C720 C722 1.327 . S
C720 H745 0.950 . S
C721 C720 1.349 . S
C721 C737 1.349 . S
C722 C720 1.327 . S
C722 C741 1.429 . S
C722 H746 0.950 . S
C723 C740 1.574 . S
C723 C742 1.368 . S
C723 H747 0.949 . S
H724 C728 0.949 . S
C725 C726 1.349 . S
C725 C727 1.327 . S
C725 H748 0.950 . S
C726 C725 1.349 . S
C726 C738 1.349 . S
C727 C725 1.327 . S
C727 C743 1.429 . S
C727 H749 0.950 . S
C728 H724 0.949 . S
C728 C736 1.574 . S
C728 C744 1.368 . S
H729 C737 0.950 . S
H730 C735 0.950 . S
H731 C736 0.949 . S
H732 C738 0.950 . S
H733 C739 0.950 . S
H734 C740 0.949 . S
C735 H730 0.950 . S
C735 C737 1.327 . S
C735 C741 1.429 . S
C736 C728 1.574 . S
C736 H731 0.949 . S
C736 C742 1.368 . S
C737 C721 1.349 . S
C737 H729 0.950 . S
C737 C735 1.327 . S
C738 C726 1.349 . S
C738 H732 0.950 . S
C738 C739 1.327 . S
C739 H733 0.950 . S
C739 C738 1.327 . S
C739 C743 1.429 . S
C740 C723 1.574 . S
C740 H734 0.949 . S
C740 C744 1.368 . S
C741 C722 1.429 . S
C741 C735 1.429 . S
C741 C742 1.523 . S
C742 C723 1.368 . S
C742 C736 1.368 . S
C742 C741 1.523 . S
C743 C727 1.429 . S
C743 C739 1.429 . S
C743 C744 1.523 . S
C744 C728 1.368 . S
C744 C740 1.368 . S
C744 C743 1.523 . S
H745 C720 0.950 . S
H746 C722 0.950 . S
H747 C723 0.949 . S
H748 C725 0.950 . S
H749 C727 0.950 . S
C750 C751 1.349 . S
C750 C752 1.327 . S
C750 H775 0.950 . S
C751 C750 1.349 . S
C751 C767 1.349 . S
C752 C750 1.327 . S
C752 C771 1.429 . S
C752 H776 0.950 . S
C753 C770 1.574 . S
C753 C772 1.368 . S
C753 H777 0.949 . S
H754 C758 0.949 . S
C755 C756 1.349 . S
C755 C757 1.327 . S
C755 H778 0.950 . S
C756 C755 1.349 . S
C756 C768 1.349 . S
C757 C755 1.327 . S
C757 C773 1.429 . S
C757 H779 0.950 . S
C758 H754 0.949 . S
C758 C766 1.574 . S
C758 C774 1.368 . S
H759 C767 0.950 . S
H760 C765 0.950 . S
H761 C766 0.949 . S
H762 C768 0.950 . S
H763 C769 0.950 . S
H764 C770 0.949 . S
C765 H760 0.950 . S
C765 C767 1.327 . S
C765 C771 1.429 . S
C766 C758 1.574 . S
C766 H761 0.949 . S
C766 C772 1.368 . S
C767 C751 1.349 . S
C767 H759 0.950 . S
C767 C765 1.327 . S
C768 C756 1.349 . S
C768 H762 0.950 . S
C768 C769 1.327 . S
C769 H763 0.950 . S
C769 C768 1.327 . S
C769 C773 1.429 . S
C770 C753 1.574 . S
C770 H764 0.949 . S
C770 C774 1.368 . S
C771 C752 1.429 . S
C771 C765 1.429 . S
C771 C772 1.523 . S
C772 C753 1.368 . S
C772 C766 1.368 . S
C772 C771 1.523 . S
C773 C757 1.429 . S
C773 C769 1.429 . S
C773 C774 1.523 . S
C774 C758 1.368 . S
C774 C770 1.368 . S
C774 C773 1.523 . S
H775 C750 0.950 . S
H776 C752 0.950 . S
H777 C753 0.949 . S
H778 C755 0.950 . S
H779 C757 0.950 . S
C780 C781 1.349 . S
C780 C782 1.327 . S
C780 H805 0.950 . S
C781 C780 1.349 . S
C781 C797 1.349 . S
C782 C780 1.327 . S
C782 C801 1.429 . S
C782 H806 0.950 . S
C783 C800 1.574 . S
C783 C802 1.368 . S
C783 H807 0.949 . S
H784 C788 0.949 . S
C785 C786 1.349 . S
C785 C787 1.327 . S
C785 H808 0.950 . S
C786 C785 1.349 . S
C786 C798 1.349 . S
C787 C785 1.327 . S
C787 C803 1.429 . S
C787 H809 0.950 . S
C788 H784 0.949 . S
C788 C796 1.574 . S
C788 C804 1.368 . S
H789 C797 0.950 . S
H790 C795 0.950 . S
H791 C796 0.949 . S
H792 C798 0.950 . S
H793 C799 0.950 . S
H794 C800 0.949 . S
C795 H790 0.950 . S
C795 C797 1.327 . S
C795 C801 1.429 . S
C796 C788 1.574 . S
C796 H791 0.949 . S
C796 C802 1.368 . S
C797 C781 1.349 . S
C797 H789 0.950 . S
C797 C795 1.327 . S
C798 C786 1.349 . S
C798 H792 0.950 . S
C798 C799 1.327 . S
C799 H793 0.950 . S
C799 C798 1.327 . S
C799 C803 1.429 . S
C800 C783 1.574 . S
C800 H794 0.949 . S
C800 C804 1.368 . S
C801 C782 1.429 . S
C801 C795 1.429 . S
C801 C802 1.523 . S
C802 C783 1.368 . S
C802 C796 1.368 . S
C802 C801 1.523 . S
C803 C787 1.429 . S
C803 C799 1.429 . S
C803 C804 1.523 . S
C804 C788 1.368 . S
C804 C800 1.368 . S
C804 C803 1.523 . S
H805 C780 0.950 . S
H806 C782 0.950 . S
H807 C783 0.949 . S
H808 C785 0.950 . S
H809 C787 0.950 . S
C810 C811 1.349 . S
C810 C812 1.327 . S
C810 H835 0.950 . S
C811 C810 1.349 . S
C811 C827 1.349 . S
C812 C810 1.327 . S
C812 C831 1.429 . S
C812 H836 0.950 . S
C813 C830 1.574 . S
C813 C832 1.368 . S
C813 H837 0.949 . S
H814 C818 0.949 . S
C815 C816 1.349 . S
C815 C817 1.327 . S
C815 H838 0.950 . S
C816 C815 1.349 . S
C816 C828 1.349 . S
C817 C815 1.327 . S
C817 C833 1.429 . S
C817 H839 0.950 . S
C818 H814 0.949 . S
C818 C826 1.574 . S
C818 C834 1.368 . S
H819 C827 0.950 . S
H820 C825 0.950 . S
H821 C826 0.949 . S
H822 C828 0.950 . S
H823 C829 0.950 . S
H824 C830 0.949 . S
C825 H820 0.950 . S
C825 C827 1.327 . S
C825 C831 1.429 . S
C826 C818 1.574 . S
C826 H821 0.949 . S
C826 C832 1.368 . S
C827 C811 1.349 . S
C827 H819 0.950 . S
C827 C825 1.327 . S
C828 C816 1.349 . S
C828 H822 0.950 . S
C828 C829 1.327 . S
C829 H823 0.950 . S
C829 C828 1.327 . S
C829 C833 1.429 . S
C830 C813 1.574 . S
C830 H824 0.949 . S
C830 C834 1.368 . S
C831 C812 1.429 . S
C831 C825 1.429 . S
C831 C832 1.523 . S
C832 C813 1.368 . S
C832 C826 1.368 . S
C832 C831 1.523 . S
C833 C817 1.429 . S
C833 C829 1.429 . S
C833 C834 1.523 . S
C834 C818 1.368 . S
C834 C830 1.368 . S
C834 C833 1.523 . S
H835 C810 0.950 . S
H836 C812 0.950 . S
H837 C813 0.949 . S
H838 C815 0.950 . S
H839 C817 0.950 . S
C840 C841 1.349 . S
C840 C842 1.327 . S
C840 H865 0.950 . S
C841 C840 1.349 . S
C841 C857 1.349 . S
C842 C840 1.327 . S
C842 C861 1.429 . S
C842 H866 0.950 . S
C843 C860 1.574 1_455 S
C843 C862 1.368 . S
C843 H867 0.949 . S
H844 C848 0.949 . S
C845 C846 1.349 . S
C845 C847 1.327 . S
C845 H868 0.950 . S
C846 C845 1.349 . S
C846 C858 1.349 . S
C847 C845 1.327 . S
C847 C863 1.429 . S
C847 H869 0.950 . S
C848 H844 0.949 . S
C848 C856 1.574 1_655 S
C848 C864 1.368 . S
H849 C857 0.950 . S
H850 C855 0.950 . S
H851 C856 0.949 . S
H852 C858 0.950 . S
H853 C859 0.950 . S
H854 C860 0.949 . S
C855 H850 0.950 . S
C855 C857 1.327 . S
C855 C861 1.429 . S
C856 C848 1.574 1_455 S
C856 H851 0.949 . S
C856 C862 1.368 . S
C857 C841 1.349 . S
C857 H849 0.950 . S
C857 C855 1.327 . S
C858 C846 1.349 . S
C858 H852 0.950 . S
C858 C859 1.327 . S
C859 H853 0.950 . S
C859 C858 1.327 . S
C859 C863 1.429 . S
C860 C843 1.574 1_655 S
C860 H854 0.949 . S
C860 C864 1.368 . S
C861 C842 1.429 . S
C861 C855 1.429 . S
C861 C862 1.523 . S
C862 C843 1.368 . S
C862 C856 1.368 . S
C862 C861 1.523 . S
C863 C847 1.429 . S
C863 C859 1.429 . S
C863 C864 1.523 . S
C864 C848 1.368 . S
C864 C860 1.368 . S
C864 C863 1.523 . S
H865 C840 0.950 . S
H866 C842 0.950 . S
H867 C843 0.949 . S
H868 C845 0.950 . S
H869 C847 0.950 . S
C870 C871 1.349 . S
C870 C872 1.327 . S
C870 H895 0.950 . S
C871 C870 1.349 . S
C871 C887 1.349 . S
C872 C870 1.327 . S
C872 C891 1.429 . S
C872 H896 0.950 . S
C873 C890 1.574 1_545 S
C873 C892 1.368 . S
C873 H897 0.949 . S
H874 C878 0.949 . S
C875 C876 1.349 . S
C875 C877 1.327 . S
C875 H898 0.950 . S
C876 C875 1.349 . S
C876 C888 1.349 . S
C877 C875 1.327 . S
C877 C893 1.429 . S
C877 H899 0.950 . S
C878 H874 0.949 . S
C878 C886 1.574 1_565 S
C878 C894 1.368 . S
H879 C887 0.950 . S
H880 C885 0.950 . S
H881 C886 0.949 . S
H882 C888 0.950 . S
H883 C889 0.950 . S
H884 C890 0.949 . S
C885 H880 0.950 . S
C885 C887 1.327 . S
C885 C891 1.429 . S
C886 C878 1.574 1_545 S
C886 H881 0.949 . S
C886 C892 1.368 . S
C887 C871 1.349 . S
C887 H879 0.950 . S
C887 C885 1.327 . S
C888 C876 1.349 . S
C888 H882 0.950 . S
C888 C889 1.327 . S
C889 H883 0.950 . S
C889 C888 1.327 . S
C889 C893 1.429 . S
C890 C873 1.574 1_565 S
C890 H884 0.949 . S
C890 C894 1.368 . S
C891 C872 1.429 . S
C891 C885 1.429 . S
C891 C892 1.523 . S
C892 C873 1.368 . S
C892 C886 1.368 . S
C892 C891 1.523 . S
C893 C877 1.429 . S
C893 C889 1.429 . S
C893 C894 1.523 . S
C894 C878 1.368 . S
C894 C890 1.368 . S
C894 C893 1.523 . S
H895 C870 0.950 . S
H896 C872 0.950 . S
H897 C873 0.949 . S
H898 C875 0.950 . S
H899 C877 0.950 . S
C900 C901 1.349 . S
C900 C902 1.327 . S
C900 H925 0.950 . S
C901 C900 1.349 . S
C901 C917 1.349 . S
C902 C900 1.327 . S
C902 C921 1.429 . S
C902 H926 0.950 . S
C903 C920 1.574 . S
C903 C922 1.368 . S
C903 H927 0.949 . S
H904 C908 0.949 . S
C905 C906 1.349 . S
C905 C907 1.327 . S
C905 H928 0.950 . S
C906 C905 1.349 . S
C906 C918 1.349 . S
C907 C905 1.327 . S
C907 C923 1.429 . S
C907 H929 0.950 . S
C908 H904 0.949 . S
C908 C916 1.574 . S
C908 C924 1.368 . S
H909 C917 0.950 . S
H910 C915 0.950 . S
H911 C916 0.949 . S
H912 C918 0.950 . S
H913 C919 0.950 . S
H914 C920 0.949 . S
C915 H910 0.950 . S
C915 C917 1.327 . S
C915 C921 1.429 . S
C916 C908 1.574 . S
C916 H911 0.949 . S
C916 C922 1.368 . S
C917 C901 1.349 . S
C917 H909 0.950 . S
C917 C915 1.327 . S
C918 C906 1.349 . S
C918 H912 0.950 . S
C918 C919 1.327 . S
C919 H913 0.950 . S
C919 C918 1.327 . S
C919 C923 1.429 . S
C920 C903 1.574 . S
C920 H914 0.949 . S
C920 C924 1.368 . S
C921 C902 1.429 . S
C921 C915 1.429 . S
C921 C922 1.523 . S
C922 C903 1.368 . S
C922 C916 1.368 . S
C922 C921 1.523 . S
C923 C907 1.429 . S
C923 C919 1.429 . S
C923 C924 1.523 . S
C924 C908 1.368 . S
C924 C920 1.368 . S
C924 C923 1.523 . S
H925 C900 0.950 . S
H926 C902 0.950 . S
H927 C903 0.949 . S
H928 C905 0.950 . S
H929 C907 0.950 . S
C930 C931 1.349 . S
C930 C932 1.327 . S
C930 H955 0.950 . S
C931 C930 1.349 . S
C931 C947 1.349 . S
C932 C930 1.327 . S
C932 C951 1.429 . S
C932 H956 0.950 . S
C933 C950 1.574 1_655 S
C933 C952 1.368 . S
C933 H957 0.949 . S
H934 C938 0.949 . S
C935 C936 1.349 . S
C935 C937 1.327 . S
C935 H958 0.950 . S
C936 C935 1.349 . S
C936 C948 1.349 . S
C937 C935 1.327 . S
C937 C953 1.429 . S
C937 H959 0.950 . S
C938 H934 0.949 . S
C938 C946 1.574 1_455 S
C938 C954 1.368 . S
H939 C947 0.950 . S
H940 C945 0.950 . S
H941 C946 0.949 . S
H942 C948 0.950 . S
H943 C949 0.950 . S
H944 C950 0.949 . S
C945 H940 0.950 . S
C945 C947 1.327 . S
C945 C951 1.429 . S
C946 C938 1.574 1_655 S
C946 H941 0.949 . S
C946 C952 1.368 . S
C947 C931 1.349 . S
C947 H939 0.950 . S
C947 C945 1.327 . S
C948 C936 1.349 . S
C948 H942 0.950 . S
C948 C949 1.327 . S
C949 H943 0.950 . S
C949 C948 1.327 . S
C949 C953 1.429 . S
C950 C933 1.574 1_455 S
C950 H944 0.949 . S
C950 C954 1.368 . S
C951 C932 1.429 . S
C951 C945 1.429 . S
C951 C952 1.523 . S
C952 C933 1.368 . S
C952 C946 1.368 . S
C952 C951 1.523 . S
C953 C937 1.429 . S
C953 C949 1.429 . S
C953 C954 1.523 . S
C954 C938 1.368 . S
C954 C950 1.368 . S
C954 C953 1.523 . S
H955 C930 0.950 . S
H956 C932 0.950 . S
H957 C933 0.949 . S
H958 C935 0.950 . S
H959 C937 0.950 . S
C960 C961 1.349 . S
C960 C962 1.327 . S
C960 H985 0.950 . S
C961 C960 1.349 . S
C961 C977 1.349 . S
C962 C960 1.327 . S
C962 C981 1.429 . S
C962 H986 0.950 . S
C963 C980 1.574 1_545 S
C963 C982 1.368 . S
C963 H987 0.949 . S
H964 C968 0.949 . S
C965 C966 1.349 . S
C965 C967 1.327 . S
C965 H988 0.950 . S
C966 C965 1.349 . S
C966 C978 1.349 . S
C967 C965 1.327 . S
C967 C983 1.429 . S
C967 H989 0.950 . S
C968 H964 0.949 . S
C968 C976 1.574 1_565 S
C968 C984 1.368 . S
H969 C977 0.950 . S
H970 C975 0.950 . S
H971 C976 0.949 . S
H972 C978 0.950 . S
H973 C979 0.950 . S
H974 C980 0.949 . S
C975 H970 0.950 . S
C975 C977 1.327 . S
C975 C981 1.429 . S
C976 C968 1.574 1_545 S
C976 H971 0.949 . S
C976 C982 1.368 . S
C977 C961 1.349 . S
C977 H969 0.950 . S
C977 C975 1.327 . S
C978 C966 1.349 . S
C978 H972 0.950 . S
C978 C979 1.327 . S
C979 H973 0.950 . S
C979 C978 1.327 . S
C979 C983 1.429 . S
C980 C963 1.574 1_565 S
C980 H974 0.949 . S
C980 C984 1.368 . S
C981 C962 1.429 . S
C981 C975 1.429 . S
C981 C982 1.523 . S
C982 C963 1.368 . S
C982 C976 1.368 . S
C982 C981 1.523 . S
C983 C967 1.429 . S
C983 C979 1.429 . S
C983 C984 1.523 . S
C984 C968 1.368 . S
C984 C980 1.368 . S
C984 C983 1.523 . S
H985 C960 0.950 . S
H986 C962 0.950 . S
H987 C963 0.949 . S
H988 C965 0.950 . S
H989 C967 0.950 . S
C990 C991 1.349 . S
C990 C992 1.327 . S
C990 H1015 0.950 . S
C991 C990 1.349 . S
C991 C1007 1.349 . S
C992 C990 1.327 . S
C992 C1011 1.429 . S
C992 H1016 0.950 . S
C993 C1010 1.574 . S
C993 C1012 1.368 . S
C993 H1017 0.949 . S
H994 C998 0.949 . S
C995 C996 1.349 . S
C995 C997 1.327 . S
C995 H1018 0.950 . S
C996 C995 1.349 . S
C996 C1008 1.349 . S
C997 C995 1.327 . S
C997 C1013 1.429 . S
C997 H1019 0.950 . S
C998 H994 0.949 . S
C998 C1006 1.574 . S
C998 C1014 1.368 . S
H999 C1007 0.950 . S
H1000 C1005 0.950 . S
H1001 C1006 0.949 . S
H1002 C1008 0.950 . S
H1003 C1009 0.950 . S
H1004 C1010 0.949 . S
C1005 H1000 0.950 . S
C1005 C1007 1.327 . S
C1005 C1011 1.429 . S
C1006 C998 1.574 . S
C1006 H1001 0.949 . S
C1006 C1012 1.368 . S
C1007 C991 1.349 . S
C1007 H999 0.950 . S
C1007 C1005 1.327 . S
C1008 C996 1.349 . S
C1008 H1002 0.950 . S
C1008 C1009 1.327 . S
C1009 H1003 0.950 . S
C1009 C1008 1.327 . S
C1009 C1013 1.429 . S
C1010 C993 1.574 . S
C1010 H1004 0.949 . S
C1010 C1014 1.368 . S
C1011 C992 1.429 . S
C1011 C1005 1.429 . S
C1011 C1012 1.523 . S
C1012 C993 1.368 . S
C1012 C1006 1.368 . S
C1012 C1011 1.523 . S
C1013 C997 1.429 . S
C1013 C1009 1.429 . S
C1013 C1014 1.523 . S
C1014 C998 1.368 . S
C1014 C1010 1.368 . S
C1014 C1013 1.523 . S
H1015 C990 0.950 . S
H1016 C992 0.950 . S
H1017 C993 0.949 . S
H1018 C995 0.950 . S
H1019 C997 0.950 . S
C481 C415 2.255 . S
C486 C15 2.255 . S
C511 C55 2.255 . S
C516 C455 2.255 . S
C541 C255 2.255 . S
C546 C95 2.255 . S
C571 C295 2.255 . S
C576 C135 2.255 . S
C601 C335 2.255 . S
C606 C175 2.255 . S
C631 C215 2.255 . S
C636 C375 2.255 . S
C661 C341 2.331 . S
C666 C21 2.331 . S
C691 C381 2.331 . S
C696 C61 2.331 . S
C721 C101 2.331 . S
C726 C421 2.331 . S
C751 C461 2.331 . S
C756 C141 2.331 . S
C781 C261 2.331 . S
C786 C181 2.331 . S
C811 C301 2.331 . S
C816 C221 2.331 . S
C841 C2 2.138 . S
C846 C442 2.138 . S
C871 C42 2.138 . S
C876 C242 2.138 . S
C901 C82 2.138 . S
C906 C282 2.138 . S
C931 C122 2.138 . S
C936 C322 2.138 . S
C961 C362 2.138 . S
C966 C162 2.138 . S
C991 C202 2.138 . S
C996 C402 2.138 . S
