# Generated by pormake.
# Topology mon, (4)-cn, num edge types: 1
# Building blocks:
#     Node 0, Type 0, BuildingBlock: ICAMEG_clean_sbu_1, # of connection points: 4
#     Node 1, Type 0, BuildingBlock: ICAMEG_clean_sbu_1, # of connection points: 4
#     Node 2, Type 0, BuildingBlock: ICAMEG_clean_sbu_1, # of connection points: 4
#     Node 3, Type 0, BuildingBlock: ICAMEG_clean_sbu_1, # of connection points: 4
#     Node 4, Type 0, BuildingBlock: ICAMEG_clean_sbu_1, # of connection points: 4
#     Node 5, Type 0, BuildingBlock: ICAMEG_clean_sbu_1, # of connection points: 4
#     Node 6, Type 0, BuildingBlock: ICAMEG_clean_sbu_1, # of connection points: 4
#     Node 7, Type 0, BuildingBlock: ICAMEG_clean_sbu_1, # of connection points: 4
#     Node 8, Type 0, BuildingBlock: ICAMEG_clean_sbu_1, # of connection points: 4
#     Node 9, Type 0, BuildingBlock: ICAMEG_clean_sbu_1, # of connection points: 4
#     Node 10, Type 0, BuildingBlock: ICAMEG_clean_sbu_1, # of connection points: 4
#     Node 11, Type 0, BuildingBlock: ICAMEG_clean_sbu_1, # of connection points: 4
#     Node 12, Type 0, BuildingBlock: ICAMEG_clean_sbu_1, # of connection points: 4
#     Node 13, Type 0, BuildingBlock: ICAMEG_clean_sbu_1, # of connection points: 4
#     Node 14, Type 0, BuildingBlock: ICAMEG_clean_sbu_1, # of connection points: 4
#     Node 15, Type 0, BuildingBlock: ICAMEG_clean_sbu_1, # of connection points: 4
#     Edge 16, Type (0, 0), BuildingBlock: AJUNOK_clean_linker_0, # of connection points: 2
#     Edge 17, Type (0, 0), BuildingBlock: AJUNOK_clean_linker_0, # of connection points: 2
#     Edge 18, Type (0, 0), BuildingBlock: AJUNOK_clean_linker_0, # of connection points: 2
#     Edge 19, Type (0, 0), BuildingBlock: AJUNOK_clean_linker_0, # of connection points: 2
#     Edge 20, Type (0, 0), BuildingBlock: AJUNOK_clean_linker_0, # of connection points: 2
#     Edge 21, Type (0, 0), BuildingBlock: AJUNOK_clean_linker_0, # of connection points: 2
#     Edge 22, Type (0, 0), BuildingBlock: AJUNOK_clean_linker_0, # of connection points: 2
#     Edge 23, Type (0, 0), BuildingBlock: AJUNOK_clean_linker_0, # of connection points: 2
#     Edge 24, Type (0, 0), BuildingBlock: AJUNOK_clean_linker_0, # of connection points: 2
#     Edge 25, Type (0, 0), BuildingBlock: AJUNOK_clean_linker_0, # of connection points: 2
#     Edge 26, Type (0, 0), BuildingBlock: AJUNOK_clean_linker_0, # of connection points: 2
#     Edge 27, Type (0, 0), BuildingBlock: AJUNOK_clean_linker_0, # of connection points: 2
#     Edge 28, Type (0, 0), BuildingBlock: AJUNOK_clean_linker_0, # of connection points: 2
#     Edge 29, Type (0, 0), BuildingBlock: AJUNOK_clean_linker_0, # of connection points: 2
#     Edge 30, Type (0, 0), BuildingBlock: AJUNOK_clean_linker_0, # of connection points: 2
#     Edge 31, Type (0, 0), BuildingBlock: AJUNOK_clean_linker_0, # of connection points: 2
#     Edge 32, Type (0, 0), BuildingBlock: AJUNOK_clean_linker_0, # of connection points: 2
#     Edge 33, Type (0, 0), BuildingBlock: AJUNOK_clean_linker_0, # of connection points: 2
#     Edge 34, Type (0, 0), BuildingBlock: AJUNOK_clean_linker_0, # of connection points: 2
#     Edge 35, Type (0, 0), BuildingBlock: AJUNOK_clean_linker_0, # of connection points: 2
#     Edge 36, Type (0, 0), BuildingBlock: AJUNOK_clean_linker_0, # of connection points: 2
#     Edge 37, Type (0, 0), BuildingBlock: AJUNOK_clean_linker_0, # of connection points: 2
#     Edge 38, Type (0, 0), BuildingBlock: AJUNOK_clean_linker_0, # of connection points: 2
#     Edge 39, Type (0, 0), BuildingBlock: AJUNOK_clean_linker_0, # of connection points: 2
#     Edge 40, Type (0, 0), BuildingBlock: AJUNOK_clean_linker_0, # of connection points: 2
#     Edge 41, Type (0, 0), BuildingBlock: AJUNOK_clean_linker_0, # of connection points: 2
#     Edge 42, Type (0, 0), BuildingBlock: AJUNOK_clean_linker_0, # of connection points: 2
#     Edge 43, Type (0, 0), BuildingBlock: AJUNOK_clean_linker_0, # of connection points: 2
#     Edge 44, Type (0, 0), BuildingBlock: AJUNOK_clean_linker_0, # of connection points: 2
#     Edge 45, Type (0, 0), BuildingBlock: AJUNOK_clean_linker_0, # of connection points: 2
#     Edge 46, Type (0, 0), BuildingBlock: AJUNOK_clean_linker_0, # of connection points: 2
#     Edge 47, Type (0, 0), BuildingBlock: AJUNOK_clean_linker_0, # of connection points: 2
# Relax obj value: 0.223
# Max RMSD: 0.232
# Mean RMSD: 0.232
data_MOF--net-mon--node1-ICAMEG_clean_sbu_1--edge1-AJUNOK_clean_linker_0
_symmetry_space_group_name_H-M    P1
_symmetry_Int_Tables_number       1
_symmetry_cell_setting            triclinic
loop_
_symmetry_equiv_pos_as_xyz
'x, y, z'
_cell_length_a     25.872077
_cell_length_b     25.764458
_cell_length_c     70.661104
_cell_angle_alpha  89.872474
_cell_angle_beta   90.175565
_cell_angle_gamma 89.988579
loop_
_atom_site_label
_atom_site_type_symbol
_atom_site_fract_x
_atom_site_fract_y
_atom_site_fract_z
_atom_type_partial_charge
Co0 Co 1.00169 0.97385 0.58125 0.0
Co1 Co 0.02217 0.044 0.62133 0.0
O2 O 0.02211 0.03856 0.5936 0.0
C3 C 0.0809 0.96142 0.55077 0.0
O4 O 0.09035 0.91456 0.5573 0.0
C5 C 0.98927 0.14846 0.60595 0.0
O6 O 0.96761 0.12565 0.59138 0.0
O7 O 0.94693 0.02535 0.62169 0.0
O8 O 0.95147 0.95709 0.60214 0.0
H9 H 0.97835 0.98391 0.68711 0.0
H10 H 0.99635 0.07127 0.55883 0.0
O11 O 0.05011 0.99112 0.55978 0.0
H12 H 0.81953 1.00023 0.55747 0.0
H13 H 0.95202 0.85954 0.52611 0.0
H14 H 0.98703 0.86601 0.5947 0.0
H15 H 0.8888 0.95488 0.57487 0.0
H16 H 0.97474 0.94225 0.54151 0.0
O17 O 0.00717 0.12108 0.61955 0.0
H18 H 0.98189 0.97763 0.65237 0.0
H19 H 0.06147 0.12147 0.64936 0.0
H20 H 0.9638 0.78261 0.57992 0.0
H21 H 0.9286 0.11714 0.54081 0.0
H22 H 0.94661 0.77887 0.54535 0.0
H23 H 0.83931 0.08174 0.54011 0.0
O24 O 0.05817 0.93736 0.59545 0.0
H25 H 0.18116 0.13333 0.59652 0.0
H26 H 0.11416 0.00932 0.64367 0.0
H27 H 0.20735 0.02889 0.64299 0.0
H28 H 0.24143 0.0915 0.61934 0.0
H29 H 0.08836 0.11231 0.59757 0.0
H30 H 0.05801 0.12987 0.68407 0.0
H31 H 0.01634 0.06064 0.70322 0.0
O32 O 0.0401 0.96854 0.62428 0.0
C33 C 0.9286 0.98271 0.61519 0.0
C34 C 0.99641 0.01448 0.67893 0.0
C35 C 0.04096 0.09644 0.67722 0.0
N36 N 0.02101 0.04966 0.64876 0.0
C37 C 0.99854 0.01116 0.65922 0.0
C38 C 0.04234 0.09178 0.65754 0.0
C39 C 0.01769 0.05754 0.68795 0.0
C40 C 0.95782 0.05522 0.5584 0.0
N41 N 0.94676 0.01028 0.56786 0.0
C42 C 0.91949 0.08158 0.54827 0.0
C43 C 0.8694 0.06176 0.54792 0.0
C44 C 0.85826 0.01608 0.55768 0.0
C45 C 0.89762 0.99076 0.56764 0.0
C46 C 0.9596 0.86061 0.54118 0.0
C47 C 0.97942 0.8648 0.57967 0.0
C48 C 0.97253 0.90735 0.54999 0.0
N49 N 0.98257 0.90898 0.569 0.0
C50 C 0.96627 0.81743 0.57137 0.0
C51 C 0.95653 0.81538 0.55198 0.0
C52 C 0.06217 0.93588 0.61347 0.0
C53 C 0.16675 0.10619 0.60696 0.0
C54 C 0.1286 0.03666 0.63334 0.0
C55 C 0.18145 0.04761 0.63304 0.0
C56 C 0.20055 0.08269 0.61976 0.0
N57 N 0.09557 0.06011 0.62082 0.0
C58 C 0.11413 0.09426 0.60767 0.0
Co59 Co 0.30164 0.7404 0.83507 0.0
Co60 Co 0.21319 0.76895 0.86996 0.0
O61 O 0.23171 0.76045 0.84303 0.0
C62 C 0.26183 0.81458 0.80471 0.0
O63 O 0.22271 0.82765 0.8154 0.0
C64 C 0.1147 0.7358 0.84968 0.0
O65 O 0.14003 0.72465 0.83419 0.0
O66 O 0.23497 0.69521 0.87512 0.0
O67 O 0.30781 0.69264 0.85767 0.0
H68 H 0.24172 0.75881 0.94047 0.0
H69 H 0.21188 0.72622 0.80865 0.0
O70 O 0.29755 0.78537 0.81134 0.0
H71 H 0.29737 0.55568 0.81199 0.0
H72 H 0.44341 0.69462 0.78911 0.0
H73 H 0.39982 0.72565 0.85601 0.0
H74 H 0.33082 0.62945 0.83046 0.0
H75 H 0.3541 0.71602 0.79832 0.0
O76 O 0.13925 0.74755 0.86476 0.0
H77 H 0.26558 0.75034 0.90694 0.0
H78 H 0.11958 0.80889 0.89 0.0
H79 H 0.48942 0.70378 0.84743 0.0
H80 H 0.1776 0.65397 0.78982 0.0
H81 H 0.51174 0.68805 0.81375 0.0
H82 H 0.22035 0.56773 0.79137 0.0
O83 O 0.33097 0.79946 0.85007 0.0
H84 H 0.1273 0.91685 0.83475 0.0
H85 H 0.23705 0.86877 0.88913 0.0
H86 H 0.2157 0.96059 0.88365 0.0
H87 H 0.16014 0.98528 0.85635 0.0
H88 H 0.15045 0.82589 0.84045 0.0
H89 H 0.09376 0.81805 0.92329 0.0
H90 H 0.15497 0.79289 0.94886 0.0
O91 O 0.28487 0.79179 0.8766 0.0
C92 C 0.27799 0.67394 0.87041 0.0
C93 C 0.21439 0.76924 0.92947 0.0
C94 C 0.13141 0.80247 0.91984 0.0
N95 N 0.19367 0.77698 0.89642 0.0
C96 C 0.22767 0.76392 0.91043 0.0
C97 C 0.14614 0.79663 0.90096 0.0
C98 C 0.16578 0.78845 0.93417 0.0
C99 C 0.23103 0.6892 0.80941 0.0
N100 N 0.27356 0.68246 0.82067 0.0
C101 C 0.21125 0.6482 0.79871 0.0
C102 C 0.2352 0.59984 0.79961 0.0
C103 C 0.27837 0.59306 0.81117 0.0
C104 C 0.29701 0.63497 0.82167 0.0
C105 C 0.43412 0.70121 0.80383 0.0
C106 C 0.40906 0.71847 0.84135 0.0
C107 C 0.38364 0.71361 0.80914 0.0
N108 N 0.37159 0.72183 0.82773 0.0
C109 C 0.45992 0.70613 0.83657 0.0
C110 C 0.47242 0.69741 0.81767 0.0
C111 C 0.32408 0.80863 0.86766 0.0
C112 C 0.15134 0.90659 0.84675 0.0
C113 C 0.21315 0.87894 0.87711 0.0
C114 C 0.20103 0.93115 0.87414 0.0
C115 C 0.16984 0.94497 0.85885 0.0
N116 N 0.19479 0.84129 0.86522 0.0
C117 C 0.16433 0.85478 0.85016 0.0
Co118 Co 0.52876 0.04993 0.08654 0.0
Co119 Co 0.49446 0.95925 0.12016 0.0
O120 O 0.50543 0.97997 0.09354 0.0
C121 C 0.45017 0.01992 0.05653 0.0
O122 O 0.43002 0.98503 0.0678 0.0
C123 C 0.52986 0.86237 0.09943 0.0
O124 O 0.5442 0.88959 0.08467 0.0
O125 O 0.5677 0.97905 0.12652 0.0
O126 O 0.57353 0.05318 0.10972 0.0
H127 H 0.50246 0.98035 0.19096 0.0
H128 H 0.53972 0.96494 0.0583 0.0
O129 O 0.48619 0.04954 0.06245 0.0
H130 H 0.71536 0.03488 0.06724 0.0
H131 H 0.58635 0.19189 0.04214 0.0
H132 H 0.5444 0.14707 0.10822 0.0
H133 H 0.64182 0.0715 0.08484 0.0
H134 H 0.55998 0.10293 0.05061 0.0
O135 O 0.51495 0.88521 0.11446 0.0
H136 H 0.51469 1.00679 0.15777 0.0
H137 H 0.44938 0.86534 0.13877 0.0
H138 H 0.5711 0.23634 0.10038 0.0
H139 H 0.61186 0.9278 0.04018 0.0
H140 H 0.5922 0.25925 0.06708 0.0
H141 H 0.70057 0.96267 0.04462 0.0
O142 O 0.47001 0.08017 0.101 0.0
H143 H 0.34991 0.87744 0.08239 0.0
H144 H 0.39347 0.98391 0.13804 0.0
H145 H 0.30235 0.96403 0.13114 0.0
H146 H 0.27997 0.91007 0.10321 0.0
H147 H 0.44018 0.89938 0.08946 0.0
H148 H 0.4366 0.83692 0.1717 0.0
H149 H 0.46312 0.89461 0.19812 0.0
O150 O 0.47236 0.03121 0.1272 0.0
C151 C 0.5898 0.02232 0.12258 0.0
C152 C 0.49104 0.95468 0.17959 0.0
C153 C 0.45413 0.87422 0.16878 0.0
N154 N 0.48386 0.93759 0.14628 0.0
C155 C 0.49818 0.96951 0.16075 0.0
C156 C 0.46186 0.89044 0.15013 0.0
C157 C 0.46894 0.90661 0.18359 0.0
C158 C 0.57801 0.98061 0.06026 0.0
N159 N 0.5864 0.02032 0.07267 0.0
C160 C 0.61883 0.95927 0.04998 0.0
C161 C 0.66858 0.97881 0.05249 0.0
C162 C 0.67691 0.01927 0.06519 0.0
C163 C 0.63514 0.03964 0.07521 0.0
C164 C 0.57744 0.18231 0.05669 0.0
C165 C 0.55396 0.15659 0.09374 0.0
C166 C 0.56224 0.13204 0.06157 0.0
N167 N 0.5509 0.11967 0.07993 0.0
C168 C 0.56909 0.20722 0.08939 0.0
C169 C 0.58091 0.22005 0.07072 0.0
C170 C 0.45851 0.07207 0.11834 0.0
C171 C 0.35916 0.9007 0.09468 0.0
C172 C 0.38426 0.96077 0.12575 0.0
C173 C 0.33247 0.94944 0.12197 0.0
C174 C 0.31994 0.91913 0.10633 0.0
N175 N 0.4227 0.94245 0.1143 0.0
C176 C 0.41053 0.91286 0.09889 0.0
Co177 Co 0.2216 0.28536 0.33768 0.0
Co178 Co 0.3082 0.25011 0.37186 0.0
O179 O 0.2916 0.26265 0.34496 0.0
C180 C 0.26101 0.21689 0.30557 0.0
O181 O 0.29358 0.19292 0.31686 0.0
C182 C 0.40946 0.28865 0.3543 0.0
O183 O 0.38567 0.31137 0.34011 0.0
O184 O 0.29055 0.32408 0.37754 0.0
O185 O 0.21517 0.32721 0.36167 0.0
H186 H 0.29441 0.17554 0.43867 0.0
H187 H 0.31321 0.30672 0.31345 0.0
O188 O 0.22715 0.2479 0.31242 0.0
H189 H 0.22615 0.47549 0.32096 0.0
H190 H 0.07588 0.33927 0.29392 0.0
H191 H 0.12385 0.29209 0.35924 0.0
H192 H 0.19085 0.3969 0.33606 0.0
H193 H 0.1665 0.32231 0.30243 0.0
O194 O 0.38344 0.26688 0.36737 0.0
H195 H 0.26991 0.18322 0.40564 0.0
H196 H 0.37804 0.30523 0.39783 0.0
H197 H 0.03269 0.30886 0.35146 0.0
H198 H 0.34979 0.38419 0.29808 0.0
H199 H 0.00791 0.33188 0.3185 0.0
H200 H 0.30611 0.46943 0.30171 0.0
O201 O 0.19263 0.22257 0.35055 0.0
H202 H 0.40552 0.10822 0.33784 0.0
H203 H 0.26121 0.14179 0.3809 0.0
H204 H 0.28411 0.05318 0.37366 0.0
H205 H 0.35731 0.03481 0.35212 0.0
H206 H 0.3814 0.19689 0.34535 0.0
H207 H 0.40365 0.29874 0.43113 0.0
H208 H 0.36217 0.23321 0.45191 0.0
O209 O 0.23477 0.23185 0.37791 0.0
C210 C 0.2469 0.34544 0.3739 0.0
C211 C 0.31419 0.20299 0.42961 0.0
C212 C 0.37529 0.27211 0.42541 0.0
N213 N 0.32585 0.24112 0.39873 0.0
C214 C 0.3012 0.20676 0.41045 0.0
C215 C 0.36118 0.27483 0.40634 0.0
C216 C 0.35192 0.23554 0.43707 0.0
C217 C 0.29396 0.34354 0.31517 0.0
N218 N 0.24969 0.347 0.32557 0.0
C219 C 0.31488 0.38737 0.3064 0.0
C220 C 0.29036 0.43515 0.30844 0.0
C221 C 0.2455 0.43857 0.31922 0.0
C222 C 0.22572 0.39389 0.32776 0.0
C223 C 0.08609 0.32882 0.30829 0.0
C224 C 0.11375 0.30249 0.34489 0.0
C225 C 0.13753 0.31881 0.31314 0.0
N226 N 0.15093 0.30529 0.33119 0.0
C227 C 0.06188 0.31197 0.34058 0.0
C228 C 0.048 0.32489 0.3221 0.0
C229 C 0.19643 0.21504 0.36837 0.0
C230 C 0.37498 0.11552 0.34793 0.0
C231 C 0.29498 0.1361 0.37248 0.0
C232 C 0.307 0.08473 0.36798 0.0
C233 C 0.34779 0.07441 0.35582 0.0
N234 N 0.32374 0.17683 0.36568 0.0
C235 C 0.36183 0.16637 0.35276 0.0
Co236 Co 0.99974 0.0433 0.4432 0.0
Co237 Co 0.02053 0.96477 0.40489 0.0
O238 O 0.01957 0.97596 0.43254 0.0
C239 C 0.08185 1.00078 0.47011 0.0
O240 O 0.0949 0.96456 0.45803 0.0
C241 C 0.98505 0.86464 0.42283 0.0
O242 O 0.96287 0.89064 0.43649 0.0
O243 O 0.94556 0.98519 0.40303 0.0
O244 O 0.94884 0.05452 0.4221 0.0
H245 H 0.98639 0.01262 0.33694 0.0
H246 H 0.99402 0.94836 0.46747 0.0
O247 O 0.04858 0.03511 0.46545 0.0
H248 H 0.81954 0.02456 0.46931 0.0
H249 H 0.95515 0.17074 0.49473 0.0
H250 H 0.98122 0.14696 0.4262 0.0
H251 H 0.88828 0.06561 0.45049 0.0
H252 H 0.97813 0.08489 0.48194 0.0
O253 O 1.00346 0.88882 0.4086 0.0
H254 H 0.98626 0.02602 0.37142 0.0
H255 H 0.05713 0.87897 0.37982 0.0
H256 H 0.95732 0.23328 0.43837 0.0
H257 H 0.92702 0.90691 0.48688 0.0
H258 H 0.94407 0.24559 0.47286 0.0
H259 H 0.83881 0.94484 0.48787 0.0
O260 O 0.05514 0.07721 0.42788 0.0
H261 H 0.17614 0.87333 0.4321 0.0
H262 H 0.11465 0.996 0.38338 0.0
H263 H 0.20741 0.97542 0.38543 0.0
H264 H 0.23878 0.91346 0.40988 0.0
H265 H 0.0839 0.89573 0.42979 0.0
H266 H 0.05738 0.86373 0.34542 0.0
H267 H 0.02196 0.93089 0.32369 0.0
O268 O 0.04011 0.03888 0.40005 0.0
C269 C 0.92695 0.02828 0.40901 0.0
C270 C 1.00181 0.98298 0.34625 0.0
C271 C 0.04152 0.89939 0.35102 0.0
N272 N 0.02108 0.95311 0.37772 0.0
C273 C 1.00185 0.99034 0.36582 0.0
C274 C 0.04092 0.9081 0.37052 0.0
C275 C 0.02173 0.93711 0.33883 0.0
C276 C 0.95621 0.9658 0.46801 0.0
N277 N 0.94551 0.00983 0.4579 0.0
C278 C 0.91816 0.94179 0.47894 0.0
C279 C 0.86867 0.963 0.47945 0.0
C280 C 0.85782 1.00765 0.46902 0.0
C281 C 0.89688 0.03057 0.45825 0.0
C282 C 0.96069 0.16584 0.47966 0.0
C283 C 0.97532 0.15191 0.44122 0.0
C284 C 0.97402 0.11736 0.47234 0.0
N285 N 0.98093 0.11079 0.45331 0.0
C286 C 0.96183 0.20091 0.44803 0.0
C287 C 0.95442 0.20779 0.46738 0.0
C288 C 0.06029 0.07498 0.40991 0.0
C289 C 0.16296 0.90032 0.42137 0.0
C290 C 0.12789 0.96938 0.39419 0.0
C291 C 0.18053 0.95768 0.39521 0.0
C292 C 0.19809 0.9229 0.40891 0.0
N293 N 0.09358 0.94719 0.40647 0.0
C294 C 0.11061 0.91302 0.41993 0.0
Co295 Co 0.22132 0.73707 0.69204 0.0
Co296 Co 0.31263 0.77003 0.6577 0.0
O297 O 0.29126 0.76016 0.68437 0.0
C298 C 0.25491 0.81518 0.72215 0.0
O299 O 0.29566 0.82822 0.71229 0.0
C300 C 0.40922 0.73167 0.67803 0.0
O301 O 0.38373 0.72268 0.69369 0.0
O302 O 0.28762 0.69832 0.65107 0.0
O303 O 0.21909 0.68738 0.67026 0.0
H304 H 0.28473 0.7665 0.5872 0.0
H305 H 0.31079 0.73041 0.71922 0.0
O306 O 0.22111 0.78468 0.71504 0.0
H307 H 0.23496 0.55523 0.71771 0.0
H308 H 0.07849 0.69507 0.73814 0.0
H309 H 0.12677 0.70745 0.6709 0.0
H310 H 0.1983 0.62536 0.69812 0.0
H311 H 0.16782 0.71631 0.72902 0.0
O312 O 0.38484 0.74335 0.66289 0.0
H313 H 0.25987 0.75702 0.62063 0.0
H314 H 0.4092 0.80559 0.63813 0.0
H315 H 0.03697 0.68697 0.67935 0.0
H316 H 0.34792 0.66196 0.73928 0.0
H317 H 0.01205 0.68068 0.71323 0.0
H318 H 0.31011 0.57338 0.73863 0.0
O319 O 0.18813 0.79227 0.67569 0.0
H320 H 0.40107 0.90788 0.69704 0.0
H321 H 0.30511 0.87233 0.63824 0.0
H322 H 0.33225 0.96168 0.64528 0.0
H323 H 0.38105 0.98003 0.67483 0.0
H324 H 0.37173 0.81978 0.68973 0.0
H325 H 0.43595 0.81512 0.60492 0.0
H326 H 0.3735 0.79563 0.57913 0.0
O327 O 0.24312 0.79878 0.65122 0.0
C328 C 0.24731 0.6734 0.65639 0.0
C329 C 0.31248 0.77463 0.59829 0.0
C330 C 0.39733 0.80184 0.60824 0.0
N331 N 0.3333 0.77913 0.63141 0.0
C332 C 0.29864 0.769 0.61727 0.0
C333 C 0.38209 0.79575 0.62706 0.0
C334 C 0.36226 0.79101 0.59378 0.0
C335 C 0.29353 0.69246 0.71892 0.0
N336 N 0.25198 0.6824 0.70752 0.0
C337 C 0.31503 0.65357 0.73028 0.0
C338 C 0.29387 0.60388 0.7299 0.0
C339 C 0.25176 0.59368 0.71816 0.0
C340 C 0.2313 0.63358 0.70702 0.0
C341 C 0.08868 0.69806 0.72334 0.0
C342 C 0.11632 0.70524 0.68564 0.0
C343 C 0.1392 0.71046 0.71806 0.0
N344 N 0.1523 0.71481 0.69937 0.0
C345 C 0.06537 0.69321 0.69037 0.0
C346 C 0.05146 0.68984 0.70936 0.0
C347 C 0.19974 0.80804 0.65901 0.0
C348 C 0.37974 0.90047 0.68412 0.0
C349 C 0.3251 0.87996 0.65134 0.0
C350 C 0.34097 0.93068 0.65515 0.0
C351 C 0.36844 0.94093 0.67169 0.0
N352 N 0.33592 0.84031 0.66363 0.0
C353 C 0.36313 0.85026 0.67983 0.0
Co354 Co 0.52369 0.96727 0.9456 0.0
Co355 Co 0.5075 0.05076 0.90838 0.0
O356 O 0.50735 0.03674 0.93582 0.0
C357 C 0.44938 0.01359 0.97451 0.0
O358 O 0.44197 0.05526 0.96416 0.0
C359 C 0.5377 0.15174 0.92761 0.0
O360 O 0.54814 0.12708 0.9434 0.0
O361 O 0.58169 0.02741 0.90693 0.0
O362 O 0.57175 0.95454 0.92389 0.0
H363 H 0.55105 0.01201 0.84051 0.0
H364 H 0.53941 0.05907 0.97122 0.0
O365 O 0.47695 0.97632 0.96828 0.0
H366 H 0.70815 0.97117 0.96852 0.0
H367 H 0.56827 0.83595 0.99611 0.0
H368 H 0.52941 0.86206 0.92853 0.0
H369 H 0.63402 0.93723 0.95048 0.0
H370 H 0.54716 0.923 0.98385 0.0
O371 O 0.52746 0.12605 0.91261 0.0
H372 H 0.54849 0.99511 0.87479 0.0
H373 H 0.47022 0.13775 0.88381 0.0
H374 H 0.55354 0.77492 0.93987 0.0
H375 H 0.61199 0.09354 0.98972 0.0
H376 H 0.57262 0.76123 0.97399 0.0
H377 H 0.69736 0.04962 0.98849 0.0
O378 O 0.46512 0.93854 0.93006 0.0
H379 H 0.35226 0.14114 0.93615 0.0
H380 H 0.41388 0.02554 0.88552 0.0
H381 H 0.32154 0.04801 0.8871 0.0
H382 H 0.29012 0.1065 0.91248 0.0
H383 H 0.44394 0.117 0.93427 0.0
H384 H 0.47247 0.15655 0.84961 0.0
H385 H 0.51281 0.09328 0.82767 0.0
O386 O 0.48506 0.97782 0.90269 0.0
C387 C 0.59539 0.98106 0.91129 0.0
C388 C 0.5332 0.03983 0.84991 0.0
C389 C 0.48916 0.12094 0.85502 0.0
N390 N 0.50878 0.06503 0.88134 0.0
C391 C 0.53152 0.03037 0.86936 0.0
C392 C 0.48814 0.11012 0.8744 0.0
C393 C 0.51178 0.08543 0.84272 0.0
C394 C 0.57581 0.03904 0.97074 0.0
N395 N 0.58172 0.99552 0.95995 0.0
C396 C 0.61712 0.05909 0.98119 0.0
C397 C 0.66502 0.03452 0.98046 0.0
C398 C 0.67109 0.99056 0.96925 0.0
C399 C 0.6289 0.97163 0.959 0.0
C400 C 0.56048 0.84143 0.98118 0.0
C401 C 0.53928 0.85681 0.94319 0.0
C402 C 0.54825 0.89065 0.97414 0.0
N403 N 0.53872 0.89805 0.95526 0.0
C404 C 0.55223 0.8072 0.94963 0.0
C405 C 0.56294 0.79956 0.96877 0.0
C406 C 0.46181 0.94229 0.91198 0.0
C407 C 0.36552 0.11589 0.92494 0.0
C408 C 0.40068 0.05092 0.89667 0.0
C409 C 0.34825 0.06357 0.89745 0.0
C410 C 0.33066 0.09638 0.91169 0.0
N411 N 0.43486 0.07047 0.90965 0.0
C412 C 0.41767 0.10231 0.92373 0.0
Co413 Co 0.29665 0.28929 0.18823 0.0
Co414 Co 0.21235 0.24849 0.15416 0.0
O415 O 0.22787 0.26672 0.18044 0.0
C416 C 0.30948 0.22368 0.22419 0.0
O417 O 0.35158 0.20123 0.21787 0.0
C418 C 0.11055 0.28421 0.17134 0.0
O419 O 0.13388 0.3024 0.1864 0.0
O420 O 0.23263 0.32112 0.14629 0.0
O421 O 0.30644 0.32721 0.16345 0.0
H422 H 0.24027 0.24744 0.08367 0.0
H423 H 0.20355 0.31386 0.21098 0.0
O424 O 0.28402 0.25483 0.21358 0.0
H425 H 0.29082 0.48161 0.20108 0.0
H426 H 0.4322 0.35467 0.23396 0.0
H427 H 0.39787 0.29429 0.16897 0.0
H428 H 0.32732 0.40113 0.18785 0.0
H429 H 0.34417 0.32963 0.22419 0.0
O430 O 0.13702 0.26749 0.15742 0.0
H431 H 0.26067 0.26826 0.11688 0.0
H432 H 0.12678 0.18964 0.13545 0.0
H433 H 0.48625 0.32021 0.178 0.0
H434 H 0.16439 0.39366 0.22372 0.0
H435 H 0.50399 0.35025 0.21075 0.0
H436 H 0.20847 0.47831 0.21899 0.0
O437 O 0.327 0.22438 0.17708 0.0
H438 H 0.13608 0.11167 0.19698 0.0
H439 H 0.24011 0.14346 0.13981 0.0
H440 H 0.22318 0.05363 0.14997 0.0
H441 H 0.17037 0.03717 0.17865 0.0
H442 H 0.15473 0.20073 0.18659 0.0
H443 H 0.1038 0.16824 0.10253 0.0
H444 H 0.16087 0.197 0.07631 0.0
O445 O 0.28517 0.22707 0.14936 0.0
C446 C 0.27627 0.34297 0.15016 0.0
C447 C 0.21494 0.23477 0.09493 0.0
C448 C 0.1384 0.19041 0.10551 0.0
N449 N 0.1952 0.23086 0.12809 0.0
C450 C 0.22655 0.24664 0.11374 0.0
C451 C 0.15147 0.203 0.12414 0.0
C452 C 0.17043 0.2065 0.09082 0.0
C453 C 0.22219 0.35068 0.20841 0.0
N454 N 0.26739 0.35273 0.19852 0.0
C455 C 0.20012 0.39571 0.21583 0.0
C456 C 0.22492 0.44314 0.21321 0.0
C457 C 0.27112 0.445 0.20317 0.0
C458 C 0.29166 0.39924 0.19575 0.0
C459 C 0.425 0.34143 0.21966 0.0
C460 C 0.40514 0.30757 0.18323 0.0
C461 C 0.37524 0.32683 0.21409 0.0
N462 N 0.36579 0.31008 0.19606 0.0
C463 C 0.45531 0.32217 0.18826 0.0
C464 C 0.46524 0.33905 0.20663 0.0
C465 C 0.32303 0.21235 0.15958 0.0
C466 C 0.15857 0.11832 0.18432 0.0
C467 C 0.21695 0.1368 0.15229 0.0
C468 C 0.20753 0.08575 0.15797 0.0
C469 C 0.17794 0.07654 0.17406 0.0
N470 N 0.19702 0.17773 0.16221 0.0
C471 C 0.16884 0.16888 0.17822 0.0
Co472 Co 0.70821 0.24479 0.19484 0.0
Co473 Co 0.79041 0.24966 0.15735 0.0
O474 O 0.77796 0.2563 0.18477 0.0
C475 C 0.75945 0.3215 0.22169 0.0
O476 O 0.79857 0.32757 0.21016 0.0
C477 C 0.89272 0.2248 0.17655 0.0
O478 O 0.87079 0.22228 0.19324 0.0
O479 O 0.76697 0.17548 0.1587 0.0
O480 O 0.69428 0.19131 0.17479 0.0
H481 H 0.74852 0.18633 0.09178 0.0
H482 H 0.80138 0.22978 0.21982 0.0
O483 O 0.71964 0.29606 0.2163 0.0
H484 H 0.70139 0.06803 0.2254 0.0
H485 H 0.57145 0.22522 0.24513 0.0
H486 H 0.60566 0.23238 0.17658 0.0
H487 H 0.67151 0.13829 0.20441 0.0
H488 H 0.66035 0.23609 0.23333 0.0
O489 O 0.86502 0.22971 0.16169 0.0
H490 H 0.73296 0.1998 0.12576 0.0
H491 H 0.87436 0.28225 0.13083 0.0
H492 H 0.51641 0.22012 0.1878 0.0
H493 H 0.83193 0.16122 0.24121 0.0
H494 H 0.49871 0.21698 0.2223 0.0
H495 H 0.7818 0.07945 0.24423 0.0
O496 O 0.6817 0.30106 0.17761 0.0
H497 H 0.88264 0.41101 0.17978 0.0
H498 H 0.76638 0.33812 0.13137 0.0
H499 H 0.78939 0.43059 0.12995 0.0
H500 H 0.84829 0.46773 0.15421 0.0
H501 H 0.85773 0.31921 0.18089 0.0
H502 H 0.89153 0.2697 0.09686 0.0
H503 H 0.82829 0.22151 0.07705 0.0
O504 O 0.71784 0.27108 0.1512 0.0
C505 C 0.72147 0.16234 0.164 0.0
C506 C 0.77648 0.20728 0.10025 0.0
C507 C 0.85669 0.25407 0.1031 0.0
N508 N 0.80287 0.24141 0.13038 0.0
C509 C 0.76797 0.21487 0.11955 0.0
C510 C 0.84687 0.26083 0.12237 0.0
C511 C 0.8212 0.22704 0.092 0.0
C512 C 0.77873 0.19502 0.22113 0.0
N513 N 0.73385 0.1891 0.21112 0.0
C514 C 0.79655 0.15593 0.23323 0.0
C515 C 0.7685 0.11004 0.23488 0.0
C516 C 0.7234 0.10363 0.22433 0.0
C517 C 0.70672 0.14364 0.21242 0.0
C518 C 0.57864 0.22666 0.23006 0.0
C519 C 0.59845 0.23056 0.19162 0.0
C520 C 0.62891 0.2331 0.22328 0.0
N521 N 0.63834 0.23481 0.20425 0.0
C522 C 0.54776 0.22377 0.19789 0.0
C523 C 0.53786 0.22196 0.21725 0.0
C524 C 0.68466 0.29944 0.15953 0.0
C525 C 0.85712 0.39528 0.16907 0.0
C526 C 0.79161 0.3538 0.1421 0.0
C527 C 0.80473 0.4063 0.14116 0.0
C528 C 0.83778 0.4271 0.15475 0.0
N529 N 0.8108 0.32258 0.15615 0.0
C530 C 0.84303 0.34296 0.16957 0.0
Co531 Co 0.81457 0.7858 0.69297 0.0
Co532 Co 0.72828 0.75168 0.65749 0.0
O533 O 0.74628 0.7616 0.68442 0.0
C534 C 0.78383 0.70122 0.72059 0.0
O535 O 0.75179 0.68117 0.70824 0.0
C536 C 0.62925 0.78552 0.67707 0.0
O537 O 0.65461 0.79903 0.69236 0.0
O538 O 0.74901 0.8254 0.65164 0.0
O539 O 0.81852 0.83469 0.67075 0.0
H540 H 0.7582 0.75749 0.58707 0.0
H541 H 0.72541 0.78937 0.71955 0.0
O542 O 0.81269 0.73921 0.71599 0.0
H543 H 0.79362 0.96784 0.71752 0.0
H544 H 0.94846 0.83764 0.74135 0.0
H545 H 0.91312 0.81127 0.67341 0.0
H546 H 0.83406 0.89846 0.69867 0.0
H547 H 0.86222 0.81018 0.73054 0.0
O548 O 0.65385 0.77219 0.66222 0.0
H549 H 0.78125 0.76852 0.62064 0.0
H550 H 0.6358 0.70893 0.63735 0.0
H551 H 0.99948 0.84141 0.68374 0.0
H552 H 0.6845 0.85699 0.73898 0.0
H553 H 0.0178 0.85357 0.71782 0.0
H554 H 0.71846 0.94716 0.738 0.0
O555 O 0.84877 0.73014 0.67788 0.0
H556 H 0.64182 0.60514 0.69303 0.0
H557 H 0.75498 0.65095 0.63957 0.0
H558 H 0.73387 0.55927 0.6455 0.0
H559 H 0.67648 0.53576 0.67229 0.0
H560 H 0.66519 0.69589 0.68704 0.0
H561 H 0.61075 0.69729 0.60403 0.0
H562 H 0.6721 0.72169 0.57855 0.0
O563 O 0.8004 0.72983 0.6515 0.0
C564 C 0.7901 0.84954 0.6569 0.0
C565 C 0.73079 0.74741 0.59802 0.0
C566 C 0.64809 0.71365 0.60753 0.0
N567 N 0.70946 0.74163 0.63102 0.0
C568 C 0.7436 0.75415 0.61707 0.0
C569 C 0.66235 0.72094 0.62642 0.0
C570 C 0.68255 0.72723 0.59325 0.0
C571 C 0.74048 0.82838 0.71901 0.0
N572 N 0.78159 0.84009 0.70769 0.0
C573 C 0.71708 0.8666 0.73005 0.0
C574 C 0.73612 0.91716 0.72949 0.0
C575 C 0.7782 0.92881 0.71798 0.0
C576 C 0.8006 0.88953 0.70716 0.0
C577 C 0.94103 0.83205 0.72641 0.0
C578 C 0.92055 0.81736 0.6883 0.0
C579 C 0.89229 0.81613 0.72018 0.0
N580 N 0.88247 0.809 0.70132 0.0
C581 C 0.96961 0.83393 0.69403 0.0
C582 C 0.97989 0.841 0.71321 0.0
C583 C 0.84134 0.718 0.66056 0.0
C584 C 0.66649 0.6149 0.6812 0.0
C585 C 0.73032 0.64127 0.65138 0.0
C586 C 0.71832 0.58915 0.6546 0.0
C587 C 0.68608 0.57599 0.66961 0.0
N588 N 0.71079 0.67944 0.66275 0.0
C589 C 0.67939 0.6666 0.67756 0.0
Co590 Co 0.81728 0.23763 0.33286 0.0
Co591 Co 0.73089 0.26488 0.36864 0.0
O592 O 0.748 0.25826 0.34149 0.0
C593 C 0.77874 0.31649 0.30379 0.0
O594 O 0.73926 0.3283 0.31451 0.0
C595 C 0.62931 0.23703 0.34888 0.0
O596 O 0.6515 0.23293 0.33229 0.0
O597 O 0.75152 0.19043 0.3729 0.0
O598 O 0.82288 0.18665 0.35463 0.0
H599 H 0.76263 0.24924 0.43886 0.0
H600 H 0.72508 0.22877 0.30736 0.0
O601 O 0.81366 0.28564 0.30998 0.0
H602 H 0.80962 0.05767 0.30528 0.0
H603 H 0.95757 0.19756 0.28557 0.0
H604 H 0.91564 0.21828 0.35315 0.0
H605 H 0.84537 0.12771 0.32506 0.0
H606 H 0.86842 0.21694 0.29551 0.0
O607 O 0.65648 0.24469 0.36373 0.0
H608 H 0.7851 0.24336 0.40513 0.0
H609 H 0.63876 0.30428 0.38967 0.0
H610 H 1.00513 0.19794 0.34384 0.0
H611 H 0.68855 0.16044 0.28716 0.0
H612 H 0.02668 0.18786 0.30982 0.0
H613 H 0.73085 0.07397 0.28596 0.0
O614 O 0.84863 0.29419 0.34854 0.0
H615 H 0.64721 0.41833 0.33576 0.0
H616 H 0.75761 0.36216 0.38891 0.0
H617 H 0.73836 0.4549 0.38477 0.0
H618 H 0.68247 0.48369 0.35811 0.0
H619 H 0.6683 0.32645 0.34012 0.0
H620 H 0.61434 0.31072 0.42318 0.0
H621 H 0.67642 0.28303 0.44812 0.0
O622 O 0.80311 0.28575 0.37514 0.0
C623 C 0.79348 0.16812 0.36759 0.0
C624 C 0.73489 0.26068 0.42814 0.0
C625 C 0.65174 0.29519 0.41935 0.0
N626 N 0.71275 0.27107 0.3953 0.0
C627 C 0.74733 0.25682 0.40898 0.0
C628 C 0.66565 0.29084 0.40033 0.0
C629 C 0.6866 0.27975 0.43332 0.0
C630 C 0.74384 0.19152 0.30701 0.0
N631 N 0.78732 0.18245 0.31754 0.0
C632 C 0.72287 0.15279 0.29551 0.0
C633 C 0.74658 0.1043 0.29486 0.0
C634 C 0.79071 0.09513 0.30569 0.0
C635 C 0.81058 0.13485 0.317 0.0
C636 C 0.94867 0.20187 0.30044 0.0
C637 C 0.92452 0.21329 0.33833 0.0
C638 C 0.89826 0.21311 0.30616 0.0
N639 N 0.88669 0.21866 0.32492 0.0
C640 C 0.97533 0.20197 0.33314 0.0
C641 C 0.98741 0.19636 0.31405 0.0
C642 C 0.8424 0.30222 0.36621 0.0
C643 C 0.67136 0.40627 0.34751 0.0
C644 C 0.73347 0.37405 0.37717 0.0
C645 C 0.72258 0.42681 0.37496 0.0
C646 C 0.69122 0.44293 0.36002 0.0
N647 N 0.71374 0.33804 0.36489 0.0
C648 C 0.68317 0.35384 0.35016 0.0
Co649 Co 0.71545 0.77818 0.82956 0.0
Co650 Co 0.79552 0.76151 0.86761 0.0
O651 O 0.78392 0.76199 0.84002 0.0
C652 C 0.7631 0.70134 0.80193 0.0
O653 O 0.80216 0.69239 0.81334 0.0
C654 C 0.89602 0.79464 0.84949 0.0
O655 O 0.87164 0.80902 0.83406 0.0
O656 O 0.77243 0.83588 0.869 0.0
O657 O 0.70126 0.82666 0.85115 0.0
H658 H 0.74851 0.79961 0.93519 0.0
H659 H 0.80786 0.79295 0.80461 0.0
O660 O 0.72635 0.73111 0.80706 0.0
H661 H 0.72088 0.9629 0.80621 0.0
H662 H 0.58668 0.8178 0.77778 0.0
H663 H 0.60995 0.78373 0.84586 0.0
H664 H 0.68603 0.88903 0.8243 0.0
H665 H 0.67346 0.80124 0.79094 0.0
O666 O 0.87043 0.78164 0.86416 0.0
H667 H 0.73492 0.79798 0.9007 0.0
H668 H 0.88108 0.72597 0.89306 0.0
H669 H 0.52282 0.80171 0.83347 0.0
H670 H 0.84324 0.86527 0.78603 0.0
H671 H 0.51053 0.81854 0.79914 0.0
H672 H 0.79976 0.95119 0.78673 0.0
O673 O 0.68597 0.71939 0.84465 0.0
H674 H 0.88974 0.60702 0.84076 0.0
H675 H 0.76861 0.66675 0.8898 0.0
H676 H 0.79178 0.57421 0.88821 0.0
H677 H 0.85301 0.54373 0.86361 0.0
H678 H 0.86483 0.69888 0.84261 0.0
H679 H 0.89645 0.7273 0.92749 0.0
H680 H 0.82979 0.76412 0.94883 0.0
O681 O 0.72263 0.73898 0.87243 0.0
C682 C 0.72696 0.85023 0.86403 0.0
C683 C 0.77789 0.78351 0.92605 0.0
C684 C 0.86092 0.743 0.92172 0.0
N685 N 0.80721 0.76212 0.8948 0.0
C686 C 0.77042 0.7825 0.90647 0.0
C687 C 0.85211 0.74263 0.90221 0.0
C688 C 0.8235 0.76361 0.93369 0.0
C689 C 0.78812 0.82971 0.80485 0.0
N690 N 0.74441 0.83618 0.81539 0.0
C691 C 0.80864 0.87081 0.79437 0.0
C692 C 0.78432 0.91902 0.7948 0.0
C693 C 0.74011 0.92561 0.80573 0.0
C694 C 0.72069 0.88361 0.81602 0.0
C695 C 0.59151 0.81092 0.7928 0.0
C696 C 0.60525 0.7923 0.83105 0.0
C697 C 0.64059 0.80144 0.80035 0.0
N698 N 0.64707 0.79277 0.81932 0.0
C699 C 0.55567 0.80198 0.82404 0.0
C700 C 0.54882 0.81134 0.80477 0.0
C701 C 0.68825 0.71556 0.8627 0.0
C702 C 0.86318 0.61983 0.85159 0.0
C703 C 0.79504 0.65393 0.87896 0.0
C704 C 0.80815 0.6014 0.87818 0.0
C705 C 0.84251 0.58434 0.86439 0.0
N706 N 0.81553 0.68868 0.86637 0.0
C707 C 0.84909 0.67206 0.85278 0.0
Co708 Co 0.49847 0.45802 0.0771 0.0
Co709 Co 0.50613 0.53993 0.11483 0.0
O710 O 0.51231 0.52737 0.08734 0.0
C711 C 0.57936 0.50444 0.05061 0.0
O712 O 0.58503 0.54562 0.0613 0.0
C713 C 0.4793 0.64118 0.09519 0.0
O714 O 0.47159 0.61717 0.07909 0.0
O715 O 0.43192 0.51762 0.11378 0.0
O716 O 0.44492 0.44522 0.09706 0.0
H717 H 0.44949 0.49529 0.1809 0.0
H718 H 0.48868 0.55033 0.05134 0.0
O719 O 0.55036 0.4672 0.05599 0.0
H720 H 0.32202 0.45905 0.04671 0.0
H721 H 0.47378 0.3232 0.02623 0.0
H722 H 0.4852 0.35466 0.09493 0.0
H723 H 0.39041 0.42648 0.06792 0.0
H724 H 0.48629 0.4118 0.03848 0.0
O725 O 0.48734 0.61509 0.11029 0.0
H726 H 0.461 0.48028 0.14677 0.0
H727 H 0.53534 0.62644 0.14095 0.0
H728 H 0.47257 0.26561 0.08326 0.0
H729 H 0.42201 0.5834 0.02967 0.0
H730 H 0.46653 0.24926 0.04872 0.0
H731 H 0.33778 0.5377 0.02718 0.0
O732 O 0.55335 0.42984 0.09417 0.0
H733 H 0.66701 0.63088 0.09208 0.0
H734 H 0.59418 0.5146 0.14062 0.0
H735 H 0.68657 0.53711 0.14187 0.0
H736 H 0.72362 0.5959 0.11754 0.0
H737 H 0.57517 0.60669 0.09117 0.0
H738 H 0.52428 0.64318 0.17503 0.0
H739 H 0.4812 0.57728 0.19527 0.0
O740 O 0.52688 0.4667 0.121 0.0
C741 C 0.41751 0.47256 0.10829 0.0
C742 C 0.46833 0.52433 0.17223 0.0
C743 C 0.5102 0.60735 0.16892 0.0
N744 N 0.49863 0.55251 0.1418 0.0
C745 C 0.47499 0.51604 0.15287 0.0
C746 C 0.51611 0.59777 0.1496 0.0
C747 C 0.48608 0.57034 0.18028 0.0
C748 C 0.45271 0.52965 0.05026 0.0
N749 N 0.44422 0.48587 0.06075 0.0
C750 C 0.41476 0.54888 0.03801 0.0
C751 C 0.36749 0.52331 0.03665 0.0
C752 C 0.35863 0.47921 0.04761 0.0
C753 C 0.39753 0.46108 0.05968 0.0
C754 C 0.47606 0.32978 0.04134 0.0
C755 C 0.48239 0.34805 0.07987 0.0
C756 C 0.48332 0.37988 0.04837 0.0
N757 N 0.48626 0.38853 0.06744 0.0
C758 C 0.47511 0.29749 0.07334 0.0
C759 C 0.47192 0.28835 0.05395 0.0
C760 C 0.55345 0.43281 0.11223 0.0
C761 C 0.6513 0.6054 0.10282 0.0
C762 C 0.60988 0.54002 0.12991 0.0
C763 C 0.6623 0.55274 0.13073 0.0
C764 C 0.68305 0.58572 0.11709 0.0
N765 N 0.5788 0.55957 0.1159 0.0
C766 C 0.59906 0.59173 0.10243 0.0
Co767 Co 0.03293 0.55686 0.58224 0.0
Co768 Co 0.0198 0.47324 0.61964 0.0
O769 O 0.01649 0.48741 0.59214 0.0
C770 C 0.95082 0.51474 0.55516 0.0
O771 O 0.943 0.47373 0.56579 0.0
C772 C 0.04196 0.3696 0.60042 0.0
O773 O 0.04408 0.39157 0.58368 0.0
O774 O 0.09479 0.49424 0.61995 0.0
O775 O 0.08631 0.56663 0.60257 0.0
H776 H 0.07157 0.5111 0.6869 0.0
H777 H 0.03983 0.46426 0.5568 0.0
O778 O 0.98139 0.5505 0.56072 0.0
H779 H 0.20938 0.54999 0.55228 0.0
H780 H 0.06372 0.69329 0.53218 0.0
H781 H 0.05101 0.65857 0.60066 0.0
H782 H 0.14196 0.58507 0.57316 0.0
H783 H 0.04726 0.60467 0.54388 0.0
O784 O 0.03761 0.39754 0.61524 0.0
H785 H 0.0645 0.52862 0.65271 0.0
H786 H 0.98337 0.38713 0.64472 0.0
H787 H 0.06837 0.74763 0.58956 0.0
H788 H 0.10551 0.42865 0.53544 0.0
H789 H 0.07466 0.76551 0.55509 0.0
H790 H 0.19117 0.47154 0.53301 0.0
O791 O 0.97857 0.587 0.59903 0.0
H792 H 0.85786 0.38869 0.59411 0.0
H793 H 0.93018 0.50015 0.64415 0.0
H794 H 0.83711 0.48092 0.644 0.0
H795 H 0.80025 0.42446 0.61892 0.0
H796 H 0.95028 0.40978 0.59455 0.0
H797 H 0.98991 0.36779 0.6788 0.0
H798 H 0.03413 0.43012 0.70019 0.0
O799 O 1.00061 0.54663 0.62584 0.0
C800 C 0.11135 0.53873 0.61445 0.0
C801 C 0.05235 0.48353 0.67774 0.0
C802 C 0.00654 0.40314 0.67319 0.0
N803 N 0.024 0.45881 0.64664 0.0
C804 C 0.04834 0.49319 0.65833 0.0
C805 C 1.00323 0.41418 0.65386 0.0
C806 C 0.03132 0.43812 0.68518 0.0
C807 C 0.07652 0.48366 0.55577 0.0
N808 N 0.08638 0.52733 0.56611 0.0
C809 C 0.11385 0.46302 0.54368 0.0
C810 C 0.16192 0.48703 0.54235 0.0
C811 C 0.17215 0.53101 0.55316 0.0
C812 C 0.13381 0.55058 0.56506 0.0
C813 C 0.06114 0.68599 0.54724 0.0
C814 C 0.05407 0.6659 0.58565 0.0
C815 C 0.05157 0.63588 0.55396 0.0
N816 N 0.0482 0.62631 0.57297 0.0
C817 C 0.06384 0.71646 0.57944 0.0
C818 C 0.06732 0.72647 0.5601 0.0
C819 C 0.97721 0.58293 0.61706 0.0
C820 C 0.87348 0.41306 0.60519 0.0
C821 C 0.91467 0.47577 0.63311 0.0
C822 C 0.86181 0.46488 0.63314 0.0
C823 C 0.84116 0.43322 0.61908 0.0
N824 N 0.9464 0.45567 0.61949 0.0
C825 C 0.92616 0.4249 0.6056 0.0
Co826 Co 0.49683 0.55769 0.9428 0.0
Co827 Co 0.50842 0.47318 0.90569 0.0
O828 O 0.51371 0.48845 0.93305 0.0
C829 C 0.5812 0.5169 0.96899 0.0
O830 O 0.59111 0.47814 0.95758 0.0
C831 C 0.48309 0.3731 0.92642 0.0
O832 O 0.47252 0.39887 0.9419 0.0
O833 O 0.43326 0.49389 0.90576 0.0
O834 O 0.44248 0.56638 0.92284 0.0
H835 H 0.45369 0.50892 0.83857 0.0
H836 H 0.49349 0.46643 0.96914 0.0
O837 O 0.54947 0.55228 0.96397 0.0
H838 H 0.32195 0.54795 0.97393 0.0
H839 H 0.46154 0.69321 0.99256 0.0
H840 H 0.47442 0.65848 0.92413 0.0
H841 H 0.38732 0.58339 0.95223 0.0
H842 H 0.48471 0.60602 0.98109 0.0
O843 O 0.49178 0.39762 0.91104 0.0
H844 H 0.46241 0.52754 0.87261 0.0
H845 H 0.54186 0.38511 0.88107 0.0
H846 H 0.44946 0.74576 0.93502 0.0
H847 H 0.42998 0.43069 0.99136 0.0
H848 H 0.44278 0.76357 0.96945 0.0
H849 H 0.34329 0.47142 0.99392 0.0
O850 O 0.54975 0.58815 0.92541 0.0
H851 H 0.67071 0.38748 0.93023 0.0
H852 H 0.59693 0.50003 0.88056 0.0
H853 H 0.68996 0.48021 0.88022 0.0
H854 H 0.72751 0.42329 0.90512 0.0
H855 H 0.57822 0.40911 0.93028 0.0
H856 H 0.5337 0.36473 0.84714 0.0
H857 H 0.48953 0.42696 0.8256 0.0
O858 O 0.52724 0.54656 0.89888 0.0
C859 C 0.41696 0.53846 0.91119 0.0
C860 C 0.47303 0.48146 0.8478 0.0
C861 C 0.51787 0.40055 0.85261 0.0
N862 N 0.50255 0.45754 0.87887 0.0
C863 C 0.47807 0.4918 0.8671 0.0
C864 C 0.52217 0.41222 0.87185 0.0
C865 C 0.49312 0.43548 0.84053 0.0
C866 C 0.45639 0.48503 0.97025 0.0
N867 N 0.44479 0.52761 0.95947 0.0
C868 C 0.42027 0.46425 0.98281 0.0
C869 C 0.37163 0.48702 0.98421 0.0
C870 C 0.35963 0.52991 0.97299 0.0
C871 C 0.3968 0.54965 0.96061 0.0
C872 C 0.46414 0.68586 0.97751 0.0
C873 C 0.47139 0.66578 0.93914 0.0
C874 C 0.47768 0.63664 0.97092 0.0
N875 N 0.48061 0.62694 0.95192 0.0
C876 C 0.45724 0.71531 0.94522 0.0
C877 C 0.45351 0.72529 0.96454 0.0
C878 C 0.55084 0.58323 0.90739 0.0
C879 C 0.65479 0.41216 0.91925 0.0
C880 C 0.61283 0.47551 0.89155 0.0
C881 C 0.66562 0.46427 0.89122 0.0
C882 C 0.68665 0.43232 0.90518 0.0
N883 N 0.58167 0.45557 0.90538 0.0
C884 C 0.60218 0.42434 0.91914 0.0
Co885 Co 0.02968 0.45918 0.44829 0.0
Co886 Co 0.0219 0.54244 0.41036 0.0
O887 O 0.01473 0.52829 0.43774 0.0
C888 C 0.94525 0.50333 0.47347 0.0
O889 O 0.93802 0.54303 0.46213 0.0
C890 C 0.04243 0.64512 0.43027 0.0
O891 O 0.046 0.62199 0.44675 0.0
O892 O 0.09657 0.52081 0.41162 0.0
O893 O 0.0871 0.44902 0.42936 0.0
H894 H 0.08102 0.50353 0.34413 0.0
H895 H 0.03252 0.55467 0.47246 0.0
O896 O 0.97454 0.46603 0.46842 0.0
H897 H 0.19698 0.46533 0.4853 0.0
H898 H 0.05124 0.32325 0.49929 0.0
H899 H 0.0502 0.35732 0.4306 0.0
H900 H 0.1344 0.4289 0.46274 0.0
H901 H 0.03658 0.41174 0.4871 0.0
O902 O 0.0392 0.61811 0.41519 0.0
H903 H 0.06887 0.48598 0.3781 0.0
H904 H 0.9915 0.63005 0.38474 0.0
H905 H 0.06382 0.26822 0.44222 0.0
H906 H 0.09289 0.59174 0.49552 0.0
H907 H 0.06552 0.25073 0.47679 0.0
H908 H 0.17616 0.5472 0.50213 0.0
O909 O 0.97829 0.42854 0.43016 0.0
H910 H 0.85749 0.62879 0.43235 0.0
H911 H 0.93572 0.5163 0.38398 0.0
H912 H 0.84295 0.53653 0.38213 0.0
H913 H 0.80314 0.59347 0.40637 0.0
H914 H 0.94966 0.60672 0.43389 0.0
H915 H 1.00281 0.64927 0.35084 0.0
H916 H 0.04774 0.58572 0.33025 0.0
O917 O 1.0031 0.46916 0.40376 0.0
C918 C 0.11291 0.47662 0.41762 0.0
C919 C 0.06153 0.53165 0.35295 0.0
C920 C 0.01765 0.6134 0.35673 0.0
N921 N 0.02998 0.55701 0.3835 0.0
C922 C 0.05473 0.52199 0.37224 0.0
C923 C 0.01161 0.60238 0.37596 0.0
C924 C 0.04283 0.57773 0.34518 0.0
C925 C 0.06826 0.5347 0.47511 0.0
N926 N 0.07967 0.48953 0.4659 0.0
C927 C 0.10257 0.55612 0.48825 0.0
C928 C 0.14927 0.53118 0.49193 0.0
C929 C 0.161 0.48537 0.48246 0.0
C930 C 0.12562 0.46514 0.46945 0.0
C931 C 0.05117 0.33042 0.4842 0.0
C932 C 0.05069 0.35015 0.44568 0.0
C933 C 0.04274 0.38046 0.47719 0.0
N934 N 0.04307 0.38991 0.45812 0.0
C935 C 0.05866 0.29957 0.45217 0.0
C936 C 0.05926 0.28978 0.47157 0.0
C937 C 0.97859 0.43294 0.41212 0.0
C938 C 0.87441 0.60415 0.42164 0.0
C939 C 0.91888 0.54086 0.39467 0.0
C940 C 0.86621 0.55233 0.3935 0.0
C941 C 0.84392 0.58427 0.40709 0.0
N942 N 0.94877 0.56062 0.40895 0.0
C943 C 0.92694 0.59174 0.42237 0.0
C944 C 0.99924 0.23204 0.58772 0.0
C945 C 1.00134 0.20526 0.60513 0.0
C946 C 0.01437 0.28435 0.58618 0.0
C947 C 0.03219 0.3125 0.602 0.0
H948 H 0.98632 0.21233 0.57503 0.0
H949 H 0.01103 0.30309 0.5725 0.0
S950 S 0.04573 0.26075 0.65089 0.0
N951 N 0.02249 0.21157 0.63861 0.0
N952 N 0.05222 0.30884 0.63562 0.0
C953 C 0.03496 0.28609 0.61946 0.0
C954 C 0.01922 0.23292 0.62105 0.0
C955 C 0.97864 0.76971 0.8659 0.0
C956 C 0.95242 0.78218 0.84898 0.0
C957 C 0.03028 0.75305 0.86587 0.0
C958 C 0.05826 0.74772 0.84892 0.0
H959 H 0.95912 0.7727 0.87939 0.0
H960 H 0.04848 0.74449 0.87935 0.0
S961 S 0.00808 0.77542 0.80059 0.0
N962 N 0.9588 0.78785 0.81466 0.0
N963 N 0.05574 0.7568 0.81463 0.0
C964 C 0.0326 0.75986 0.83184 0.0
C965 C 0.97992 0.77717 0.83187 0.0
C966 C 0.49574 0.7236 0.11307 0.0
C967 C 0.48962 0.69821 0.09556 0.0
C968 C 0.51031 0.77594 0.11411 0.0
C969 C 0.51966 0.80557 0.0977 0.0
H970 H 0.48941 0.70288 0.12621 0.0
H971 H 0.51409 0.79333 0.12799 0.0
S972 S 0.50826 0.7584 0.04819 0.0
N973 N 0.49374 0.70732 0.06129 0.0
N974 N 0.52079 0.80567 0.06326 0.0
C975 C 0.51361 0.78088 0.08005 0.0
C976 C 0.49851 0.72741 0.07897 0.0
C977 C 0.54523 0.2672 0.33458 0.0
C978 C 0.57255 0.24632 0.35012 0.0
C979 C 0.49315 0.28246 0.33617 0.0
C980 C 0.46606 0.27721 0.35334 0.0
H981 H 0.56451 0.27304 0.32116 0.0
H982 H 0.47388 0.29788 0.32374 0.0
S983 S 0.51974 0.2235 0.39821 0.0
N984 N 0.56815 0.22013 0.38312 0.0
N985 N 0.47114 0.24904 0.38624 0.0
C986 C 0.49302 0.25602 0.36895 0.0
C987 C 0.54589 0.2405 0.36731 0.0
C988 C 0.01549 0.77943 0.40957 0.0
C989 C 0.99744 0.80825 0.42515 0.0
C990 C 0.03128 0.72749 0.4115 0.0
C991 C 0.03035 0.70186 0.42913 0.0
H992 H 0.01748 0.7971 0.39567 0.0
H993 H 0.0442 0.70722 0.39896 0.0
S994 S 0.98735 0.75984 0.4746 0.0
N995 N 0.98023 0.80708 0.45899 0.0
N996 N 0.0099 0.70983 0.46262 0.0
C997 C 0.01281 0.7303 0.44491 0.0
C998 C 0.99626 0.7832 0.44291 0.0
C999 C 0.49336 0.74764 0.66142 0.0
C1000 C 0.46615 0.74154 0.67853 0.0
C1001 C 0.54524 0.76344 0.66114 0.0
C1002 C 0.57273 0.7738 0.67795 0.0
H1003 H 0.47434 0.74056 0.64801 0.0
H1004 H 0.56392 0.76752 0.64753 0.0
S1005 S 0.5203 0.76233 0.72672 0.0
N1006 N 0.47125 0.74652 0.71289 0.0
N1007 N 0.56884 0.77544 0.71237 0.0
C1008 C 0.54628 0.76736 0.69523 0.0
C1009 C 0.49321 0.7512 0.69552 0.0
C1010 C 0.50142 0.28778 0.91046 0.0
C1011 C 0.49516 0.3163 0.9273 0.0
C1012 C 0.51659 0.23537 0.91071 0.0
C1013 C 0.52669 0.20886 0.92781 0.0
H1014 H 0.49452 0.30605 0.89687 0.0
H1015 H 0.52016 0.21546 0.8973 0.0
S1016 S 0.51762 0.26595 0.976 0.0
N1017 N 0.50142 0.31399 0.96167 0.0
N1018 N 0.52987 0.21593 0.96216 0.0
C1019 C 0.52115 0.23705 0.94479 0.0
C1020 C 0.50531 0.29043 0.94454 0.0
C1021 C 0.02838 0.27036 0.18964 0.0
C1022 C 0.05427 0.27154 0.17212 0.0
C1023 C 0.97699 0.25309 0.1911 0.0
C1024 C 0.94918 0.23597 0.1751 0.0
H1025 H 0.04809 0.28226 0.20246 0.0
H1026 H 0.95871 0.25413 0.20486 0.0
S1027 S 0.99898 0.23093 0.12586 0.0
N1028 N 0.04721 0.2553 0.13831 0.0
N1029 N 0.95238 0.21979 0.14122 0.0
C1030 C 0.97485 0.23632 0.15754 0.0
C1031 C 0.02675 0.25493 0.156 0.0
C1032 C 0.10454 0.94438 0.49802 0.0
C1033 C 0.094 0.99414 0.49064 0.0
C1034 C 0.10425 0.93482 0.51764 0.0
C1035 C 0.09348 0.97464 0.53071 0.0
H1036 H 0.10964 0.91171 0.48859 0.0
H1037 H 0.10919 0.89519 0.52246 0.0
S1038 S 0.07354 0.11377 0.51885 0.0
N1039 N 0.07997 0.0851 0.49812 0.0
N1040 N 0.07964 0.06731 0.53483 0.0
C1041 C 0.08743 0.02539 0.52355 0.0
C1042 C 0.08762 0.03508 0.5036 0.0
C1043 C 0.30427 0.82519 0.77291 0.0
C1044 C 0.25885 0.823 0.7838 0.0
C1045 C 0.3024 0.82621 0.75299 0.0
C1046 C 0.25505 0.82372 0.74306 0.0
H1047 H 0.3417 0.8248 0.77983 0.0
H1048 H 0.33861 0.82613 0.74534 0.0
S1049 S 0.12476 0.81864 0.76479 0.0
N1050 N 0.16479 0.82014 0.78303 0.0
N1051 N 0.16155 0.82078 0.74575 0.0
C1052 C 0.2093 0.82288 0.75378 0.0
C1053 C 0.21113 0.82288 0.77406 0.0
C1054 C 0.44252 0.06397 0.02495 0.0
C1055 C 0.43979 0.01821 0.03583 0.0
C1056 C 0.44132 0.06248 1.00505 0.0
C1057 C 0.43873 0.01501 0.99522 0.0
H1058 H 0.44738 0.10115 0.03187 0.0
H1059 H 0.44578 0.09861 0.99736 0.0
S1060 S 0.42927 0.88417 0.01705 0.0
N1061 N 0.43205 0.92418 0.03525 0.0
N1062 N 0.43114 0.92126 0.99797 0.0
C1063 C 0.43409 0.96912 1.00595 0.0
C1064 C 0.43427 0.97074 0.0262 0.0
C1065 C 0.30834 0.17692 0.25604 0.0
C1066 C 0.2952 0.2202 0.24473 0.0
C1067 C 0.29611 0.17514 0.27557 0.0
C1068 C 0.27014 0.21652 0.28457 0.0
H1069 H 0.32834 0.14427 0.24979 0.0
H1070 H 0.30741 0.14129 0.2837 0.0
S1071 S 0.23386 0.34176 0.26189 0.0
N1072 N 0.25901 0.30715 0.24467 0.0
N1073 N 0.23625 0.30371 0.2806 0.0
C1074 C 0.25782 0.2601 0.27338 0.0
C1075 C 0.27027 0.26197 0.25371 0.0
C1076 C 0.72299 0.33516 0.25427 0.0
C1077 C 0.76647 0.33061 0.24244 0.0
C1078 C 0.72777 0.33428 0.27411 0.0
C1079 C 0.77618 0.32772 0.28304 0.0
H1080 H 0.68461 0.33749 0.24814 0.0
H1081 H 0.69276 0.33574 0.28246 0.0
S1082 S 0.90267 0.31739 0.25871 0.0
N1083 N 0.86019 0.32251 0.24131 0.0
N1084 N 0.86887 0.32009 0.27846 0.0
C1085 C 0.82021 0.32547 0.27142 0.0
C1086 C 0.81546 0.32716 0.2512 0.0
C1087 C 0.82186 0.69068 0.75297 0.0
C1088 C 0.77823 0.68948 0.74104 0.0
C1089 C 0.8168 0.68996 0.77277 0.0
C1090 C 0.76778 0.68952 0.78141 0.0
H1091 H 0.86016 0.69434 0.74695 0.0
H1092 H 0.85146 0.69339 0.78131 0.0
S1093 S 0.64138 0.68429 0.7565 0.0
N1094 N 0.68448 0.68513 0.73931 0.0
N1095 N 0.67487 0.6852 0.77643 0.0
C1096 C 0.72394 0.68613 0.76962 0.0
C1097 C 0.72917 0.68574 0.74947 0.0
C1098 C 0.59389 0.55802 1.00083 0.0
C1099 C 0.59396 0.51297 0.98955 0.0
C1100 C 0.59395 0.55506 0.02071 0.0
C1101 C 0.59315 0.50686 0.03015 0.0
H1102 H 0.59108 0.59595 0.99425 0.0
H1103 H 0.5908 0.59084 0.02864 0.0
S1104 S 0.5982 0.37726 1.00737 0.0
N1105 N 0.59769 0.41858 0.98947 0.0
N1106 N 0.5973 0.41312 0.0267 0.0
C1107 C 0.59665 0.46161 0.01908 0.0
C1108 C 0.59722 0.46461 0.99883 0.0
C1109 C 0.9322 0.46557 0.52525 0.0
C1110 C 0.93659 0.5135 0.53468 0.0
C1111 C 0.93112 0.46281 0.50538 0.0
C1112 C 0.93348 0.50787 0.49406 0.0
H1113 H 0.93325 0.42957 0.53319 0.0
H1114 H 0.93112 0.42485 0.49881 0.0
S1115 S 0.93888 0.6434 0.51184 0.0
N1116 N 0.93838 0.60735 0.53118 0.0
N1117 N 0.9359 0.60232 0.49397 0.0
C1118 C 0.93385 0.55625 0.50335 0.0
C1119 C 0.93558 0.559 0.52359 0.0
C1120 C 0.18166 0.87946 0.63585 0.0
C1121 C 0.16247 0.83948 0.64756 0.0
C1122 C 0.14936 0.90789 0.62371 0.0
C1123 C 0.09626 0.89783 0.62282 0.0
H1124 H 0.22195 0.88979 0.63625 0.0
H1125 H 0.16582 0.93932 0.6155 0.0
S1126 S 0.02633 0.79384 0.64832 0.0
N1127 N 0.08658 0.78879 0.65595 0.0
N1128 N 0.02566 0.84338 0.63344 0.0
C1129 C 0.07624 0.85748 0.63397 0.0
C1130 C 0.10931 0.82811 0.64629 0.0
C1131 C 0.35613 0.84605 0.89847 0.0
C1132 C 0.36236 0.83996 0.8787 0.0
C1133 C 0.38945 0.87735 0.90927 0.0
C1134 C 0.43034 0.90451 0.9008 0.0
H1135 H 0.32464 0.82714 0.90579 0.0
H1136 H 0.38199 0.88157 0.92426 0.0
S1137 S 0.46702 0.89843 0.8499 0.0
N1138 N 0.41534 0.86119 0.85144 0.0
N1139 N 0.4775 0.92012 0.87151 0.0
C1140 C 0.43822 0.89734 0.88116 0.0
C1141 C 0.40449 0.86512 0.87019 0.0
C1142 C 0.41884 0.10459 0.14867 0.0
C1143 C 0.42781 0.11122 0.12904 0.0
C1144 C 0.38735 0.13903 0.15891 0.0
C1145 C 0.3634 0.18125 0.1499 0.0
H1146 H 0.43527 0.07184 0.15619 0.0
H1147 H 0.37991 0.13119 0.17372 0.0
S1148 S 0.37805 0.21954 0.09946 0.0
N1149 N 0.41261 0.16602 0.10151 0.0
N1150 N 0.35454 0.23056 0.12073 0.0
C1151 C 0.37415 0.18978 0.13059 0.0
C1152 C 0.40601 0.1549 0.12017 0.0
C1153 C 0.09463 0.11308 0.37959 0.0
C1154 C 0.09106 0.11499 0.39957 0.0
C1155 C 0.12677 0.14705 0.36945 0.0
C1156 C 0.15672 0.1845 0.37881 0.0
H1157 H 0.07347 0.08415 0.37163 0.0
H1158 H 0.12962 0.14252 0.35425 0.0
S1159 S 0.15685 0.21046 0.43058 0.0
N1160 N 0.11752 0.16059 0.42805 0.0
N1161 N 0.1762 0.22552 0.40903 0.0
C1162 C 0.1511 0.18903 0.39862 0.0
C1163 C 0.11879 0.1541 0.40897 0.0
C1164 C 0.8589 0.09754 0.40803 0.0
C1165 C 0.8822 0.05427 0.39927 0.0
C1166 C 0.82563 0.13099 0.39816 0.0
C1167 C 0.81473 0.12385 0.3789 0.0
H1168 H 0.8686 0.10783 0.42244 0.0
H1169 H 0.81162 0.16461 0.4055 0.0
S1170 S 0.85433 0.00988 0.35036 0.0
N1171 N 0.88295 1.00053 0.37102 0.0
N1172 N 0.82192 0.06485 0.35231 0.0
C1173 C 0.83344 0.07814 0.3704 0.0
C1174 C 0.86659 0.04302 0.38061 0.0
C1175 C 0.61185 0.07049 0.15174 0.0
C1176 C 0.62911 0.04441 0.13556 0.0
C1177 C 0.64373 0.10503 0.16157 0.0
C1178 C 0.69427 0.11671 0.15539 0.0
H1179 H 0.57197 0.06797 0.15602 0.0
H1180 H 0.62687 0.1253 0.17345 0.0
S1181 S 0.75966 0.05518 0.11444 0.0
N1182 N 0.7012 0.02938 0.1144 0.0
N1183 N 0.76163 0.09495 0.13274 0.0
C1184 C 0.71329 0.08849 0.1398 0.0
C1185 C 0.6805 0.05267 0.12984 0.0
C1186 C 0.71221 0.93492 0.88206 0.0
C1187 C 0.69619 0.88474 0.8766 0.0
C1188 C 0.67937 0.96754 0.89288 0.0
C1189 C 0.62983 0.95068 0.89852 0.0
H1190 H 0.74976 0.94918 0.87777 0.0
H1191 H 0.69303 1.00555 0.89708 0.0
S1192 S 0.57037 0.8227 0.88776 0.0
N1193 N 0.62863 0.81964 0.87852 0.0
N1194 N 0.56635 0.88137 0.89685 0.0
C1195 C 0.61381 0.90093 0.8928 0.0
C1196 C 0.64715 0.86785 0.88242 0.0
C1197 C 0.82818 0.87939 0.62633 0.0
C1198 C 0.81212 0.89142 0.64476 0.0
C1199 C 0.86301 0.9111 0.61648 0.0
C1200 C 0.88342 0.95684 0.62453 0.0
H1201 H 0.81721 0.84332 0.61987 0.0
H1202 H 0.87615 0.89774 0.6028 0.0
S1203 S 0.84476 0.01171 0.67095 0.0
N1204 N 0.81297 0.95625 0.66959 0.0
N1205 N 0.87778 0.0167 0.65106 0.0
C1206 C 0.86365 0.97209 0.64224 0.0
C1207 C 0.82843 0.93916 0.65236 0.0
C1208 C 0.61338 0.36552 0.15531 0.0
C1209 C 0.64844 0.3302 0.14729 0.0
C1210 C 0.58208 0.3974 0.14386 0.0
C1211 C 0.58453 0.39572 0.12388 0.0
H1212 H 0.61065 0.36933 0.17051 0.0
H1213 H 0.55628 0.42432 0.15088 0.0
S1214 S 0.66776 0.30812 0.09563 0.0
N1215 N 0.68102 0.29343 0.11782 0.0
N1216 N 0.62375 0.35427 0.09664 0.0
C1217 C 0.61825 0.35958 0.11567 0.0
C1218 C 0.64969 0.32672 0.12728 0.0
C1219 C 0.88062 0.33011 0.39732 0.0
C1220 C 0.88129 0.33225 0.37733 0.0
C1221 C 0.91339 0.3611 0.40842 0.0
C1222 C 0.94839 0.39593 0.40008 0.0
H1223 H 0.85388 0.30483 0.40461 0.0
H1224 H 0.91009 0.35866 0.42367 0.0
S1225 S 0.96799 0.41432 0.34825 0.0
N1226 N 0.9217 0.3705 0.34968 0.0
N1227 N 0.98387 0.42795 0.3703 0.0
C1228 C 0.95102 0.39681 0.38005 0.0
C1229 C 0.91746 0.36525 0.36876 0.0
C1230 C 0.91485 0.65746 0.61963 0.0
C1231 C 0.94712 0.62095 0.62857 0.0
C1232 C 0.88229 0.68988 0.63016 0.0
C1233 C 0.88066 0.68747 0.65011 0.0
H1234 H 0.91351 0.66017 0.60434 0.0
H1235 H 0.85751 0.71651 0.62251 0.0
S1236 S 0.95941 0.60111 0.68069 0.0
N1237 N 0.97741 0.58695 0.65893 0.0
N1238 N 0.91562 0.64725 0.67844 0.0
C1239 C 0.91419 0.65291 0.65931 0.0
C1240 C 0.94744 0.61983 0.64863 0.0
C1241 C 0.64973 0.68576 0.89345 0.0
C1242 C 0.64944 0.68446 0.87344 0.0
C1243 C 0.61662 0.6545 0.90425 0.0
C1244 C 0.58154 0.6203 0.89561 0.0
H1245 H 0.67649 0.71056 0.90101 0.0
H1246 H 0.6197 0.65624 0.91953 0.0
S1247 S 0.56151 0.60537 0.84365 0.0
N1248 N 0.60845 0.64841 0.84545 0.0
N1249 N 0.54574 0.59029 0.86558 0.0
C1250 C 0.57912 0.62034 0.87558 0.0
C1251 C 0.61306 0.65217 0.86457 0.0
C1252 C 0.35337 0.61155 0.91008 0.0
C1253 C 0.37087 0.56429 0.90226 0.0
C1254 C 0.31941 0.6444 0.90035 0.0
C1255 C 0.30037 0.63181 0.88236 0.0
H1256 H 0.36861 0.62552 0.9234 0.0
H1257 H 0.31174 0.68175 0.90646 0.0
S1258 S 0.32483 0.50856 0.85684 0.0
N1259 N 0.35965 0.50312 0.87639 0.0
N1260 N 0.29573 0.56555 0.85806 0.0
C1261 C 0.31365 0.58285 0.87496 0.0
C1262 C 0.34848 0.54884 0.88496 0.0
C1263 C 0.1758 0.61127 0.61587 0.0
C1264 C 0.15701 0.56437 0.62368 0.0
C1265 C 0.20955 0.64378 0.62587 0.0
C1266 C 0.22602 0.63142 0.64424 0.0
H1267 H 0.16189 0.62506 0.60231 0.0
H1268 H 0.21919 0.68081 0.61966 0.0
S1269 S 0.19827 0.50876 0.66984 0.0
N1270 N 0.16565 0.50321 0.6498 0.0
N1271 N 0.22752 0.5657 0.66888 0.0
C1272 C 0.21153 0.58279 0.65165 0.0
C1273 C 0.17773 0.54886 0.64128 0.0
C1274 C 0.17347 0.46495 0.38985 0.0
C1275 C 0.15865 0.45118 0.40838 0.0
C1276 C 0.20563 0.43245 0.37902 0.0
C1277 C 0.22647 0.38634 0.38659 0.0
H1278 H 0.15757 0.4992 0.38316 0.0
H1279 H 0.21258 0.44255 0.36439 0.0
S1280 S 0.2112 0.33913 0.43572 0.0
N1281 N 0.17486 0.39167 0.43458 0.0
N1282 N 0.23737 0.33311 0.41457 0.0
C1283 C 0.21735 0.37547 0.4057 0.0
C1284 C 0.18315 0.40733 0.41652 0.0
C1285 C 0.35913 0.39553 0.11083 0.0
C1286 C 0.37187 0.44599 0.11701 0.0
C1287 C 0.32417 0.36428 0.12069 0.0
C1288 C 0.2989 0.3819 0.13697 0.0
H1289 H 0.3787 0.37822 0.09888 0.0
H1290 H 0.32042 0.32476 0.11618 0.0
S1291 S 0.31067 0.51384 0.15745 0.0
N1292 N 0.35117 0.51442 0.13942 0.0
N1293 N 0.28402 0.45556 0.15759 0.0
C1294 C 0.3077 0.43366 0.14248 0.0
C1295 C 0.34414 0.46576 0.13254 0.0
loop_
_geom_bond_atom_site_label_1
_geom_bond_atom_site_label_2
_geom_bond_distance
_geom_bond_site_symmetry_2
_ccdc_geom_bond_type
Co0 O2 2.143 1_665 S
Co0 O8 2.074 . S
Co0 O11 2.093 1_655 S
Co0 O24 2.097 1_655 S
Co0 N41 2.151 . S
Co0 N49 2.214 . S
Co1 O2 2.160 . S
Co1 O7 2.058 1_455 S
Co1 O17 2.057 . S
Co1 O32 2.037 1_545 S
Co1 N36 2.145 . S
Co1 N57 2.257 . S
O2 Co0 2.143 1_445 S
O2 Co1 2.160 . S
C3 O4 1.278 . S
C3 O11 1.224 1_545 S
O4 C3 1.278 . S
C5 O6 1.245 . S
C5 O17 1.232 1_655 S
O6 C5 1.245 . S
O7 Co1 2.058 1_655 S
O7 C33 1.269 1_545 S
O8 Co0 2.074 . S
O8 C33 1.257 . S
H9 C34 0.930 . S
H10 C40 0.930 . S
O11 Co0 2.093 1_455 S
O11 C3 1.224 1_565 S
H12 C44 0.929 . S
H13 C46 0.930 . S
H14 C47 0.930 . S
H15 C45 0.929 . S
H16 C48 0.928 . S
O17 Co1 2.057 . S
O17 C5 1.232 1_455 S
H18 C37 0.929 1_565 S
H19 C38 0.929 . S
H20 C50 0.931 . S
H21 C42 0.929 . S
H22 C51 0.930 . S
H23 C43 0.931 . S
O24 Co0 2.097 1_455 S
O24 C52 1.214 . S
H25 C53 0.929 . S
H26 C54 0.929 . S
H27 C55 0.930 . S
H28 C56 0.929 . S
H29 C58 0.930 . S
H30 C35 0.930 . S
H31 C39 0.930 . S
O32 Co1 2.037 1_565 S
O32 C52 1.234 . S
C33 O7 1.269 1_565 S
C33 O8 1.257 . S
C34 H9 0.930 . S
C34 C37 1.388 . S
C34 C39 1.418 . S
C35 H30 0.930 . S
C35 C38 1.404 . S
C35 C39 1.353 . S
N36 Co1 2.145 . S
N36 C37 1.397 . S
N36 C38 1.334 . S
C37 H18 0.929 1_545 S
C37 C34 1.388 . S
C37 N36 1.397 . S
C38 H19 0.929 . S
C38 C35 1.404 . S
C38 N36 1.334 . S
C39 H31 0.930 . S
C39 C34 1.418 . S
C39 C35 1.353 . S
C40 H10 0.930 . S
C40 N41 1.330 1_545 S
C40 C42 1.446 . S
N41 Co0 2.151 . S
N41 C40 1.330 1_565 S
N41 C45 1.418 . S
C42 H21 0.929 . S
C42 C40 1.446 . S
C42 C43 1.332 1_545 S
C43 H23 0.931 . S
C43 C42 1.332 1_565 S
C43 C44 1.267 . S
C44 H12 0.929 . S
C44 C43 1.267 . S
C44 C45 1.251 . S
C45 H15 0.929 . S
C45 N41 1.418 . S
C45 C44 1.251 . S
C46 H13 0.930 . S
C46 C48 1.406 . S
C46 C51 1.261 . S
C47 H14 0.930 . S
C47 N49 1.325 . S
C47 C50 1.357 . S
C48 H16 0.928 . S
C48 C46 1.406 . S
C48 N49 1.261 . S
N49 Co0 2.214 . S
N49 C47 1.325 . S
N49 C48 1.261 . S
C50 H20 0.931 . S
C50 C47 1.357 . S
C50 C51 1.312 . S
C51 H22 0.930 . S
C51 C46 1.261 . S
C51 C50 1.312 . S
C52 O24 1.214 . S
C52 O32 1.234 . S
C53 H25 0.929 . S
C53 C56 1.391 . S
C53 C58 1.391 . S
C54 H26 0.929 . S
C54 C55 1.390 . S
C54 N57 1.391 . S
C55 H27 0.930 . S
C55 C54 1.390 . S
C55 C56 1.392 . S
C56 H28 0.929 . S
C56 C53 1.391 . S
C56 C55 1.392 . S
N57 Co1 2.257 . S
N57 C54 1.391 . S
N57 C58 1.388 . S
C58 H29 0.930 . S
C58 C53 1.391 . S
C58 N57 1.388 . S
Co59 O61 2.143 . S
Co59 O67 2.074 . S
Co59 O70 2.093 . S
Co59 O83 2.097 . S
Co59 N100 2.151 . S
Co59 N108 2.214 . S
Co60 O61 2.160 . S
Co60 O66 2.058 . S
Co60 O76 2.057 . S
Co60 O91 2.037 . S
Co60 N95 2.145 . S
Co60 N116 2.257 . S
O61 Co59 2.143 . S
O61 Co60 2.160 . S
C62 O63 1.278 . S
C62 O70 1.224 . S
O63 C62 1.278 . S
C64 O65 1.245 . S
C64 O76 1.232 . S
O65 C64 1.245 . S
O66 Co60 2.058 . S
O66 C92 1.269 . S
O67 Co59 2.074 . S
O67 C92 1.257 . S
H68 C93 0.930 . S
H69 C99 0.930 . S
O70 Co59 2.093 . S
O70 C62 1.224 . S
H71 C103 0.929 . S
H72 C105 0.930 . S
H73 C106 0.930 . S
H74 C104 0.929 . S
H75 C107 0.928 . S
O76 Co60 2.057 . S
O76 C64 1.232 . S
H77 C96 0.929 . S
H78 C97 0.929 . S
H79 C109 0.931 . S
H80 C101 0.929 . S
H81 C110 0.930 . S
H82 C102 0.931 . S
O83 Co59 2.097 . S
O83 C111 1.214 . S
H84 C112 0.929 . S
H85 C113 0.929 . S
H86 C114 0.930 . S
H87 C115 0.929 . S
H88 C117 0.930 . S
H89 C94 0.930 . S
H90 C98 0.930 . S
O91 Co60 2.037 . S
O91 C111 1.234 . S
C92 O66 1.269 . S
C92 O67 1.257 . S
C93 H68 0.930 . S
C93 C96 1.388 . S
C93 C98 1.418 . S
C94 H89 0.930 . S
C94 C97 1.404 . S
C94 C98 1.353 . S
N95 Co60 2.145 . S
N95 C96 1.397 . S
N95 C97 1.334 . S
C96 H77 0.929 . S
C96 C93 1.388 . S
C96 N95 1.397 . S
C97 H78 0.929 . S
C97 C94 1.404 . S
C97 N95 1.334 . S
C98 H90 0.930 . S
C98 C93 1.418 . S
C98 C94 1.353 . S
C99 H69 0.930 . S
C99 N100 1.330 . S
C99 C101 1.446 . S
N100 Co59 2.151 . S
N100 C99 1.330 . S
N100 C104 1.418 . S
C101 H80 0.929 . S
C101 C99 1.446 . S
C101 C102 1.332 . S
C102 H82 0.931 . S
C102 C101 1.332 . S
C102 C103 1.267 . S
C103 H71 0.929 . S
C103 C102 1.267 . S
C103 C104 1.251 . S
C104 H74 0.929 . S
C104 N100 1.418 . S
C104 C103 1.251 . S
C105 H72 0.930 . S
C105 C107 1.406 . S
C105 C110 1.261 . S
C106 H73 0.930 . S
C106 N108 1.325 . S
C106 C109 1.357 . S
C107 H75 0.928 . S
C107 C105 1.406 . S
C107 N108 1.261 . S
N108 Co59 2.214 . S
N108 C106 1.325 . S
N108 C107 1.261 . S
C109 H79 0.931 . S
C109 C106 1.357 . S
C109 C110 1.312 . S
C110 H81 0.930 . S
C110 C105 1.261 . S
C110 C109 1.312 . S
C111 O83 1.214 . S
C111 O91 1.234 . S
C112 H84 0.929 . S
C112 C115 1.391 . S
C112 C117 1.391 . S
C113 H85 0.929 . S
C113 C114 1.390 . S
C113 N116 1.391 . S
C114 H86 0.930 . S
C114 C113 1.390 . S
C114 C115 1.392 . S
C115 H87 0.929 . S
C115 C112 1.391 . S
C115 C114 1.392 . S
N116 Co60 2.257 . S
N116 C113 1.391 . S
N116 C117 1.388 . S
C117 H88 0.930 . S
C117 C112 1.391 . S
C117 N116 1.388 . S
Co118 O120 2.143 1_545 S
Co118 O126 2.074 . S
Co118 O129 2.093 . S
Co118 O142 2.097 . S
Co118 N159 2.151 . S
Co118 N167 2.214 . S
Co119 O120 2.160 . S
Co119 O125 2.058 . S
Co119 O135 2.057 . S
Co119 O150 2.037 1_565 S
Co119 N154 2.145 . S
Co119 N175 2.257 . S
O120 Co118 2.143 1_565 S
O120 Co119 2.160 . S
C121 O122 1.278 . S
C121 O129 1.224 1_565 S
O122 C121 1.278 . S
C123 O124 1.245 . S
C123 O135 1.232 . S
O124 C123 1.245 . S
O125 Co119 2.058 . S
O125 C151 1.269 1_565 S
O126 Co118 2.074 . S
O126 C151 1.257 . S
H127 C152 0.930 . S
H128 C158 0.930 . S
O129 Co118 2.093 . S
O129 C121 1.224 1_545 S
H130 C162 0.929 . S
H131 C164 0.930 . S
H132 C165 0.930 . S
H133 C163 0.929 . S
H134 C166 0.928 . S
O135 Co119 2.057 . S
O135 C123 1.232 . S
H136 C155 0.929 1_545 S
H137 C156 0.929 . S
H138 C168 0.931 . S
H139 C160 0.929 . S
H140 C169 0.930 . S
H141 C161 0.931 . S
O142 Co118 2.097 . S
O142 C170 1.214 . S
H143 C171 0.929 . S
H144 C172 0.929 . S
H145 C173 0.930 . S
H146 C174 0.929 . S
H147 C176 0.930 . S
H148 C153 0.930 . S
H149 C157 0.930 . S
O150 Co119 2.037 1_545 S
O150 C170 1.234 . S
C151 O125 1.269 1_545 S
C151 O126 1.257 . S
C152 H127 0.930 . S
C152 C155 1.388 . S
C152 C157 1.418 . S
C153 H148 0.930 . S
C153 C156 1.404 . S
C153 C157 1.353 . S
N154 Co119 2.145 . S
N154 C155 1.397 . S
N154 C156 1.334 . S
C155 H136 0.929 1_565 S
C155 C152 1.388 . S
C155 N154 1.397 . S
C156 H137 0.929 . S
C156 C153 1.404 . S
C156 N154 1.334 . S
C157 H149 0.930 . S
C157 C152 1.418 . S
C157 C153 1.353 . S
C158 H128 0.930 . S
C158 N159 1.330 1_565 S
C158 C160 1.446 . S
N159 Co118 2.151 . S
N159 C158 1.330 1_545 S
N159 C163 1.418 . S
C160 H139 0.929 . S
C160 C158 1.446 . S
C160 C161 1.332 1_565 S
C161 H141 0.931 . S
C161 C160 1.332 1_545 S
C161 C162 1.267 . S
C162 H130 0.929 . S
C162 C161 1.267 . S
C162 C163 1.251 . S
C163 H133 0.929 . S
C163 N159 1.418 . S
C163 C162 1.251 . S
C164 H131 0.930 . S
C164 C166 1.406 . S
C164 C169 1.261 . S
C165 H132 0.930 . S
C165 N167 1.325 . S
C165 C168 1.357 . S
C166 H134 0.928 . S
C166 C164 1.406 . S
C166 N167 1.261 . S
N167 Co118 2.214 . S
N167 C165 1.325 . S
N167 C166 1.261 . S
C168 H138 0.931 . S
C168 C165 1.357 . S
C168 C169 1.312 . S
C169 H140 0.930 . S
C169 C164 1.261 . S
C169 C168 1.312 . S
C170 O142 1.214 . S
C170 O150 1.234 . S
C171 H143 0.929 . S
C171 C174 1.391 . S
C171 C176 1.391 . S
C172 H144 0.929 . S
C172 C173 1.390 . S
C172 N175 1.391 . S
C173 H145 0.930 . S
C173 C172 1.390 . S
C173 C174 1.392 . S
C174 H146 0.929 . S
C174 C171 1.391 . S
C174 C173 1.392 . S
N175 Co119 2.257 . S
N175 C172 1.391 . S
N175 C176 1.388 . S
C176 H147 0.930 . S
C176 C171 1.391 . S
C176 N175 1.388 . S
Co177 O179 2.143 . S
Co177 O185 2.074 . S
Co177 O188 2.093 . S
Co177 O201 2.097 . S
Co177 N218 2.151 . S
Co177 N226 2.214 . S
Co178 O179 2.160 . S
Co178 O184 2.058 . S
Co178 O194 2.057 . S
Co178 O209 2.037 . S
Co178 N213 2.145 . S
Co178 N234 2.257 . S
O179 Co177 2.143 . S
O179 Co178 2.160 . S
C180 O181 1.278 . S
C180 O188 1.224 . S
O181 C180 1.278 . S
C182 O183 1.245 . S
C182 O194 1.232 . S
O183 C182 1.245 . S
O184 Co178 2.058 . S
O184 C210 1.269 . S
O185 Co177 2.074 . S
O185 C210 1.257 . S
H186 C211 0.930 . S
H187 C217 0.930 . S
O188 Co177 2.093 . S
O188 C180 1.224 . S
H189 C221 0.929 . S
H190 C223 0.930 . S
H191 C224 0.930 . S
H192 C222 0.929 . S
H193 C225 0.928 . S
O194 Co178 2.057 . S
O194 C182 1.232 . S
H195 C214 0.929 . S
H196 C215 0.929 . S
H197 C227 0.931 . S
H198 C219 0.929 . S
H199 C228 0.930 1_655 S
H200 C220 0.931 . S
O201 Co177 2.097 . S
O201 C229 1.214 . S
H202 C230 0.929 . S
H203 C231 0.929 . S
H204 C232 0.930 . S
H205 C233 0.929 . S
H206 C235 0.930 . S
H207 C212 0.930 . S
H208 C216 0.930 . S
O209 Co178 2.037 . S
O209 C229 1.234 . S
C210 O184 1.269 . S
C210 O185 1.257 . S
C211 H186 0.930 . S
C211 C214 1.388 . S
C211 C216 1.418 . S
C212 H207 0.930 . S
C212 C215 1.404 . S
C212 C216 1.353 . S
N213 Co178 2.145 . S
N213 C214 1.397 . S
N213 C215 1.334 . S
C214 H195 0.929 . S
C214 C211 1.388 . S
C214 N213 1.397 . S
C215 H196 0.929 . S
C215 C212 1.404 . S
C215 N213 1.334 . S
C216 H208 0.930 . S
C216 C211 1.418 . S
C216 C212 1.353 . S
C217 H187 0.930 . S
C217 N218 1.330 . S
C217 C219 1.446 . S
N218 Co177 2.151 . S
N218 C217 1.330 . S
N218 C222 1.418 . S
C219 H198 0.929 . S
C219 C217 1.446 . S
C219 C220 1.332 . S
C220 H200 0.931 . S
C220 C219 1.332 . S
C220 C221 1.267 . S
C221 H189 0.929 . S
C221 C220 1.267 . S
C221 C222 1.251 . S
C222 H192 0.929 . S
C222 N218 1.418 . S
C222 C221 1.251 . S
C223 H190 0.930 . S
C223 C225 1.406 . S
C223 C228 1.261 . S
C224 H191 0.930 . S
C224 N226 1.325 . S
C224 C227 1.357 . S
C225 H193 0.928 . S
C225 C223 1.406 . S
C225 N226 1.261 . S
N226 Co177 2.214 . S
N226 C224 1.325 . S
N226 C225 1.261 . S
C227 H197 0.931 . S
C227 C224 1.357 . S
C227 C228 1.312 . S
C228 H199 0.930 1_455 S
C228 C223 1.261 . S
C228 C227 1.312 . S
C229 O201 1.214 . S
C229 O209 1.234 . S
C230 H202 0.929 . S
C230 C233 1.391 . S
C230 C235 1.391 . S
C231 H203 0.929 . S
C231 C232 1.390 . S
C231 N234 1.391 . S
C232 H204 0.930 . S
C232 C231 1.390 . S
C232 C233 1.392 . S
C233 H205 0.929 . S
C233 C230 1.391 . S
C233 C232 1.392 . S
N234 Co178 2.257 . S
N234 C231 1.391 . S
N234 C235 1.388 . S
C235 H206 0.930 . S
C235 C230 1.391 . S
C235 N234 1.388 . S
Co236 O238 2.143 1_645 S
Co236 O244 2.074 . S
Co236 O247 2.093 1_655 S
Co236 O260 2.097 1_655 S
Co236 N277 2.151 . S
Co236 N285 2.214 . S
Co237 O238 2.160 . S
Co237 O243 2.058 1_455 S
Co237 O253 2.057 . S
Co237 O268 2.037 1_565 S
Co237 N272 2.145 . S
Co237 N293 2.257 . S
O238 Co236 2.143 1_465 S
O238 Co237 2.160 . S
C239 O240 1.278 . S
C239 O247 1.224 1_565 S
O240 C239 1.278 . S
C241 O242 1.245 . S
C241 O253 1.232 1_655 S
O242 C241 1.245 . S
O243 Co237 2.058 1_655 S
O243 C269 1.269 1_565 S
O244 Co236 2.074 . S
O244 C269 1.257 . S
H245 C270 0.930 . S
H246 C276 0.930 . S
O247 Co236 2.093 1_455 S
O247 C239 1.224 1_545 S
H248 C280 0.929 . S
H249 C282 0.930 . S
H250 C283 0.930 . S
H251 C281 0.929 . S
H252 C284 0.928 . S
O253 Co237 2.057 . S
O253 C241 1.232 1_455 S
H254 C273 0.929 1_545 S
H255 C274 0.929 . S
H256 C286 0.931 . S
H257 C278 0.929 . S
H258 C287 0.930 . S
H259 C279 0.931 . S
O260 Co236 2.097 1_455 S
O260 C288 1.214 . S
H261 C289 0.929 . S
H262 C290 0.929 . S
H263 C291 0.930 . S
H264 C292 0.929 . S
H265 C294 0.930 . S
H266 C271 0.930 . S
H267 C275 0.930 . S
O268 Co237 2.037 1_545 S
O268 C288 1.234 . S
C269 O243 1.269 1_545 S
C269 O244 1.257 . S
C270 H245 0.930 . S
C270 C273 1.388 . S
C270 C275 1.418 . S
C271 H266 0.930 . S
C271 C274 1.404 . S
C271 C275 1.353 . S
N272 Co237 2.145 . S
N272 C273 1.397 . S
N272 C274 1.334 . S
C273 H254 0.929 1_565 S
C273 C270 1.388 . S
C273 N272 1.397 . S
C274 H255 0.929 . S
C274 C271 1.404 . S
C274 N272 1.334 . S
C275 H267 0.930 . S
C275 C270 1.418 . S
C275 C271 1.353 . S
C276 H246 0.930 . S
C276 N277 1.330 1_565 S
C276 C278 1.446 . S
N277 Co236 2.151 . S
N277 C276 1.330 1_545 S
N277 C281 1.418 . S
C278 H257 0.929 . S
C278 C276 1.446 . S
C278 C279 1.332 1_565 S
C279 H259 0.931 . S
C279 C278 1.332 1_545 S
C279 C280 1.267 . S
C280 H248 0.929 . S
C280 C279 1.267 . S
C280 C281 1.251 . S
C281 H251 0.929 . S
C281 N277 1.418 . S
C281 C280 1.251 . S
C282 H249 0.930 . S
C282 C284 1.406 . S
C282 C287 1.261 . S
C283 H250 0.930 . S
C283 N285 1.325 . S
C283 C286 1.357 . S
C284 H252 0.928 . S
C284 C282 1.406 . S
C284 N285 1.261 . S
N285 Co236 2.214 . S
N285 C283 1.325 . S
N285 C284 1.261 . S
C286 H256 0.931 . S
C286 C283 1.357 . S
C286 C287 1.312 . S
C287 H258 0.930 . S
C287 C282 1.261 . S
C287 C286 1.312 . S
C288 O260 1.214 . S
C288 O268 1.234 . S
C289 H261 0.929 . S
C289 C292 1.391 . S
C289 C294 1.391 . S
C290 H262 0.929 . S
C290 C291 1.390 . S
C290 N293 1.391 . S
C291 H263 0.930 . S
C291 C290 1.390 . S
C291 C292 1.392 . S
C292 H264 0.929 . S
C292 C289 1.391 . S
C292 C291 1.392 . S
N293 Co237 2.257 . S
N293 C290 1.391 . S
N293 C294 1.388 . S
C294 H265 0.930 . S
C294 C289 1.391 . S
C294 N293 1.388 . S
Co295 O297 2.143 . S
Co295 O303 2.074 . S
Co295 O306 2.093 . S
Co295 O319 2.097 . S
Co295 N336 2.151 . S
Co295 N344 2.214 . S
Co296 O297 2.160 . S
Co296 O302 2.058 . S
Co296 O312 2.057 . S
Co296 O327 2.037 . S
Co296 N331 2.145 . S
Co296 N352 2.257 . S
O297 Co295 2.143 . S
O297 Co296 2.160 . S
C298 O299 1.278 . S
C298 O306 1.224 . S
O299 C298 1.278 . S
C300 O301 1.245 . S
C300 O312 1.232 . S
O301 C300 1.245 . S
O302 Co296 2.058 . S
O302 C328 1.269 . S
O303 Co295 2.074 . S
O303 C328 1.257 . S
H304 C329 0.930 . S
H305 C335 0.930 . S
O306 Co295 2.093 . S
O306 C298 1.224 . S
H307 C339 0.929 . S
H308 C341 0.930 . S
H309 C342 0.930 . S
H310 C340 0.929 . S
H311 C343 0.928 . S
O312 Co296 2.057 . S
O312 C300 1.232 . S
H313 C332 0.929 . S
H314 C333 0.929 . S
H315 C345 0.931 . S
H316 C337 0.929 . S
H317 C346 0.930 1_655 S
H318 C338 0.931 . S
O319 Co295 2.097 . S
O319 C347 1.214 . S
H320 C348 0.929 . S
H321 C349 0.929 . S
H322 C350 0.930 . S
H323 C351 0.929 . S
H324 C353 0.930 . S
H325 C330 0.930 . S
H326 C334 0.930 . S
O327 Co296 2.037 . S
O327 C347 1.234 . S
C328 O302 1.269 . S
C328 O303 1.257 . S
C329 H304 0.930 . S
C329 C332 1.388 . S
C329 C334 1.418 . S
C330 H325 0.930 . S
C330 C333 1.404 . S
C330 C334 1.353 . S
N331 Co296 2.145 . S
N331 C332 1.397 . S
N331 C333 1.334 . S
C332 H313 0.929 . S
C332 C329 1.388 . S
C332 N331 1.397 . S
C333 H314 0.929 . S
C333 C330 1.404 . S
C333 N331 1.334 . S
C334 H326 0.930 . S
C334 C329 1.418 . S
C334 C330 1.353 . S
C335 H305 0.930 . S
C335 N336 1.330 . S
C335 C337 1.446 . S
N336 Co295 2.151 . S
N336 C335 1.330 . S
N336 C340 1.418 . S
C337 H316 0.929 . S
C337 C335 1.446 . S
C337 C338 1.332 . S
C338 H318 0.931 . S
C338 C337 1.332 . S
C338 C339 1.267 . S
C339 H307 0.929 . S
C339 C338 1.267 . S
C339 C340 1.251 . S
C340 H310 0.929 . S
C340 N336 1.418 . S
C340 C339 1.251 . S
C341 H308 0.930 . S
C341 C343 1.406 . S
C341 C346 1.261 . S
C342 H309 0.930 . S
C342 N344 1.325 . S
C342 C345 1.357 . S
C343 H311 0.928 . S
C343 C341 1.406 . S
C343 N344 1.261 . S
N344 Co295 2.214 . S
N344 C342 1.325 . S
N344 C343 1.261 . S
C345 H315 0.931 . S
C345 C342 1.357 . S
C345 C346 1.312 . S
C346 H317 0.930 1_455 S
C346 C341 1.261 . S
C346 C345 1.312 . S
C347 O319 1.214 . S
C347 O327 1.234 . S
C348 H320 0.929 . S
C348 C351 1.391 . S
C348 C353 1.391 . S
C349 H321 0.929 . S
C349 C350 1.390 . S
C349 N352 1.391 . S
C350 H322 0.930 . S
C350 C349 1.390 . S
C350 C351 1.392 . S
C351 H323 0.929 . S
C351 C348 1.391 . S
C351 C350 1.392 . S
N352 Co296 2.257 . S
N352 C349 1.391 . S
N352 C353 1.388 . S
C353 H324 0.930 . S
C353 C348 1.391 . S
C353 N352 1.388 . S
Co354 O356 2.143 1_565 S
Co354 O362 2.074 . S
Co354 O365 2.093 . S
Co354 O378 2.097 . S
Co354 N395 2.151 . S
Co354 N403 2.214 . S
Co355 O356 2.160 . S
Co355 O361 2.058 . S
Co355 O371 2.057 . S
Co355 O386 2.037 1_545 S
Co355 N390 2.145 . S
Co355 N411 2.257 . S
O356 Co354 2.143 1_545 S
O356 Co355 2.160 . S
C357 O358 1.278 . S
C357 O365 1.224 1_545 S
O358 C357 1.278 . S
C359 O360 1.245 . S
C359 O371 1.232 . S
O360 C359 1.245 . S
O361 Co355 2.058 . S
O361 C387 1.269 1_545 S
O362 Co354 2.074 . S
O362 C387 1.257 . S
H363 C388 0.930 . S
H364 C394 0.930 . S
O365 Co354 2.093 . S
O365 C357 1.224 1_565 S
H366 C398 0.929 . S
H367 C400 0.930 . S
H368 C401 0.930 . S
H369 C399 0.929 . S
H370 C402 0.928 . S
O371 Co355 2.057 . S
O371 C359 1.232 . S
H372 C391 0.929 1_565 S
H373 C392 0.929 . S
H374 C404 0.931 . S
H375 C396 0.929 . S
H376 C405 0.930 . S
H377 C397 0.931 . S
O378 Co354 2.097 . S
O378 C406 1.214 . S
H379 C407 0.929 . S
H380 C408 0.929 . S
H381 C409 0.930 . S
H382 C410 0.929 . S
H383 C412 0.930 . S
H384 C389 0.930 . S
H385 C393 0.930 . S
O386 Co355 2.037 1_565 S
O386 C406 1.234 . S
C387 O361 1.269 1_565 S
C387 O362 1.257 . S
C388 H363 0.930 . S
C388 C391 1.388 . S
C388 C393 1.418 . S
C389 H384 0.930 . S
C389 C392 1.404 . S
C389 C393 1.353 . S
N390 Co355 2.145 . S
N390 C391 1.397 . S
N390 C392 1.334 . S
C391 H372 0.929 1_545 S
C391 C388 1.388 . S
C391 N390 1.397 . S
C392 H373 0.929 . S
C392 C389 1.404 . S
C392 N390 1.334 . S
C393 H385 0.930 . S
C393 C388 1.418 . S
C393 C389 1.353 . S
C394 H364 0.930 . S
C394 N395 1.330 1_545 S
C394 C396 1.446 . S
N395 Co354 2.151 . S
N395 C394 1.330 1_565 S
N395 C399 1.418 . S
C396 H375 0.929 . S
C396 C394 1.446 . S
C396 C397 1.332 1_545 S
C397 H377 0.931 . S
C397 C396 1.332 1_565 S
C397 C398 1.267 . S
C398 H366 0.929 . S
C398 C397 1.267 . S
C398 C399 1.251 . S
C399 H369 0.929 . S
C399 N395 1.418 . S
C399 C398 1.251 . S
C400 H367 0.930 . S
C400 C402 1.406 . S
C400 C405 1.261 . S
C401 H368 0.930 . S
C401 N403 1.325 . S
C401 C404 1.357 . S
C402 H370 0.928 . S
C402 C400 1.406 . S
C402 N403 1.261 . S
N403 Co354 2.214 . S
N403 C401 1.325 . S
N403 C402 1.261 . S
C404 H374 0.931 . S
C404 C401 1.357 . S
C404 C405 1.312 . S
C405 H376 0.930 . S
C405 C400 1.261 . S
C405 C404 1.312 . S
C406 O378 1.214 . S
C406 O386 1.234 . S
C407 H379 0.929 . S
C407 C410 1.391 . S
C407 C412 1.391 . S
C408 H380 0.929 . S
C408 C409 1.390 . S
C408 N411 1.391 . S
C409 H381 0.930 . S
C409 C408 1.390 . S
C409 C410 1.392 . S
C410 H382 0.929 . S
C410 C407 1.391 . S
C410 C409 1.392 . S
N411 Co355 2.257 . S
N411 C408 1.391 . S
N411 C412 1.388 . S
C412 H383 0.930 . S
C412 C407 1.391 . S
C412 N411 1.388 . S
Co413 O415 2.143 . S
Co413 O421 2.074 . S
Co413 O424 2.093 . S
Co413 O437 2.097 . S
Co413 N454 2.151 . S
Co413 N462 2.214 . S
Co414 O415 2.160 . S
Co414 O420 2.058 . S
Co414 O430 2.057 . S
Co414 O445 2.037 . S
Co414 N449 2.145 . S
Co414 N470 2.257 . S
O415 Co413 2.143 . S
O415 Co414 2.160 . S
C416 O417 1.278 . S
C416 O424 1.224 . S
O417 C416 1.278 . S
C418 O419 1.245 . S
C418 O430 1.232 . S
O419 C418 1.245 . S
O420 Co414 2.058 . S
O420 C446 1.269 . S
O421 Co413 2.074 . S
O421 C446 1.257 . S
H422 C447 0.930 . S
H423 C453 0.930 . S
O424 Co413 2.093 . S
O424 C416 1.224 . S
H425 C457 0.929 . S
H426 C459 0.930 . S
H427 C460 0.930 . S
H428 C458 0.929 . S
H429 C461 0.928 . S
O430 Co414 2.057 . S
O430 C418 1.232 . S
H431 C450 0.929 . S
H432 C451 0.929 . S
H433 C463 0.931 . S
H434 C455 0.929 . S
H435 C464 0.930 . S
H436 C456 0.931 . S
O437 Co413 2.097 . S
O437 C465 1.214 . S
H438 C466 0.929 . S
H439 C467 0.929 . S
H440 C468 0.930 . S
H441 C469 0.929 . S
H442 C471 0.930 . S
H443 C448 0.930 . S
H444 C452 0.930 . S
O445 Co414 2.037 . S
O445 C465 1.234 . S
C446 O420 1.269 . S
C446 O421 1.257 . S
C447 H422 0.930 . S
C447 C450 1.388 . S
C447 C452 1.418 . S
C448 H443 0.930 . S
C448 C451 1.404 . S
C448 C452 1.353 . S
N449 Co414 2.145 . S
N449 C450 1.397 . S
N449 C451 1.334 . S
C450 H431 0.929 . S
C450 C447 1.388 . S
C450 N449 1.397 . S
C451 H432 0.929 . S
C451 C448 1.404 . S
C451 N449 1.334 . S
C452 H444 0.930 . S
C452 C447 1.418 . S
C452 C448 1.353 . S
C453 H423 0.930 . S
C453 N454 1.330 . S
C453 C455 1.446 . S
N454 Co413 2.151 . S
N454 C453 1.330 . S
N454 C458 1.418 . S
C455 H434 0.929 . S
C455 C453 1.446 . S
C455 C456 1.332 . S
C456 H436 0.931 . S
C456 C455 1.332 . S
C456 C457 1.267 . S
C457 H425 0.929 . S
C457 C456 1.267 . S
C457 C458 1.251 . S
C458 H428 0.929 . S
C458 N454 1.418 . S
C458 C457 1.251 . S
C459 H426 0.930 . S
C459 C461 1.406 . S
C459 C464 1.261 . S
C460 H427 0.930 . S
C460 N462 1.325 . S
C460 C463 1.357 . S
C461 H429 0.928 . S
C461 C459 1.406 . S
C461 N462 1.261 . S
N462 Co413 2.214 . S
N462 C460 1.325 . S
N462 C461 1.261 . S
C463 H433 0.931 . S
C463 C460 1.357 . S
C463 C464 1.312 . S
C464 H435 0.930 . S
C464 C459 1.261 . S
C464 C463 1.312 . S
C465 O437 1.214 . S
C465 O445 1.234 . S
C466 H438 0.929 . S
C466 C469 1.391 . S
C466 C471 1.391 . S
C467 H439 0.929 . S
C467 C468 1.390 . S
C467 N470 1.391 . S
C468 H440 0.930 . S
C468 C467 1.390 . S
C468 C469 1.392 . S
C469 H441 0.929 . S
C469 C466 1.391 . S
C469 C468 1.392 . S
N470 Co414 2.257 . S
N470 C467 1.391 . S
N470 C471 1.388 . S
C471 H442 0.930 . S
C471 C466 1.391 . S
C471 N470 1.388 . S
Co472 O474 2.143 . S
Co472 O480 2.074 . S
Co472 O483 2.093 . S
Co472 O496 2.097 . S
Co472 N513 2.151 . S
Co472 N521 2.214 . S
Co473 O474 2.160 . S
Co473 O479 2.058 . S
Co473 O489 2.057 . S
Co473 O504 2.037 . S
Co473 N508 2.145 . S
Co473 N529 2.257 . S
O474 Co472 2.143 . S
O474 Co473 2.160 . S
C475 O476 1.278 . S
C475 O483 1.224 . S
O476 C475 1.278 . S
C477 O478 1.245 . S
C477 O489 1.232 . S
O478 C477 1.245 . S
O479 Co473 2.058 . S
O479 C505 1.269 . S
O480 Co472 2.074 . S
O480 C505 1.257 . S
H481 C506 0.930 . S
H482 C512 0.930 . S
O483 Co472 2.093 . S
O483 C475 1.224 . S
H484 C516 0.929 . S
H485 C518 0.930 . S
H486 C519 0.930 . S
H487 C517 0.929 . S
H488 C520 0.928 . S
O489 Co473 2.057 . S
O489 C477 1.232 . S
H490 C509 0.929 . S
H491 C510 0.929 . S
H492 C522 0.931 . S
H493 C514 0.929 . S
H494 C523 0.930 . S
H495 C515 0.931 . S
O496 Co472 2.097 . S
O496 C524 1.214 . S
H497 C525 0.929 . S
H498 C526 0.929 . S
H499 C527 0.930 . S
H500 C528 0.929 . S
H501 C530 0.930 . S
H502 C507 0.930 . S
H503 C511 0.930 . S
O504 Co473 2.037 . S
O504 C524 1.234 . S
C505 O479 1.269 . S
C505 O480 1.257 . S
C506 H481 0.930 . S
C506 C509 1.388 . S
C506 C511 1.418 . S
C507 H502 0.930 . S
C507 C510 1.404 . S
C507 C511 1.353 . S
N508 Co473 2.145 . S
N508 C509 1.397 . S
N508 C510 1.334 . S
C509 H490 0.929 . S
C509 C506 1.388 . S
C509 N508 1.397 . S
C510 H491 0.929 . S
C510 C507 1.404 . S
C510 N508 1.334 . S
C511 H503 0.930 . S
C511 C506 1.418 . S
C511 C507 1.353 . S
C512 H482 0.930 . S
C512 N513 1.330 . S
C512 C514 1.446 . S
N513 Co472 2.151 . S
N513 C512 1.330 . S
N513 C517 1.418 . S
C514 H493 0.929 . S
C514 C512 1.446 . S
C514 C515 1.332 . S
C515 H495 0.931 . S
C515 C514 1.332 . S
C515 C516 1.267 . S
C516 H484 0.929 . S
C516 C515 1.267 . S
C516 C517 1.251 . S
C517 H487 0.929 . S
C517 N513 1.418 . S
C517 C516 1.251 . S
C518 H485 0.930 . S
C518 C520 1.406 . S
C518 C523 1.261 . S
C519 H486 0.930 . S
C519 N521 1.325 . S
C519 C522 1.357 . S
C520 H488 0.928 . S
C520 C518 1.406 . S
C520 N521 1.261 . S
N521 Co472 2.214 . S
N521 C519 1.325 . S
N521 C520 1.261 . S
C522 H492 0.931 . S
C522 C519 1.357 . S
C522 C523 1.312 . S
C523 H494 0.930 . S
C523 C518 1.261 . S
C523 C522 1.312 . S
C524 O496 1.214 . S
C524 O504 1.234 . S
C525 H497 0.929 . S
C525 C528 1.391 . S
C525 C530 1.391 . S
C526 H498 0.929 . S
C526 C527 1.390 . S
C526 N529 1.391 . S
C527 H499 0.930 . S
C527 C526 1.390 . S
C527 C528 1.392 . S
C528 H500 0.929 . S
C528 C525 1.391 . S
C528 C527 1.392 . S
N529 Co473 2.257 . S
N529 C526 1.391 . S
N529 C530 1.388 . S
C530 H501 0.930 . S
C530 C525 1.391 . S
C530 N529 1.388 . S
Co531 O533 2.143 . S
Co531 O539 2.074 . S
Co531 O542 2.093 . S
Co531 O555 2.097 . S
Co531 N572 2.151 . S
Co531 N580 2.214 . S
Co532 O533 2.160 . S
Co532 O538 2.058 . S
Co532 O548 2.057 . S
Co532 O563 2.037 . S
Co532 N567 2.145 . S
Co532 N588 2.257 . S
O533 Co531 2.143 . S
O533 Co532 2.160 . S
C534 O535 1.278 . S
C534 O542 1.224 . S
O535 C534 1.278 . S
C536 O537 1.245 . S
C536 O548 1.232 . S
O537 C536 1.245 . S
O538 Co532 2.058 . S
O538 C564 1.269 . S
O539 Co531 2.074 . S
O539 C564 1.257 . S
H540 C565 0.930 . S
H541 C571 0.930 . S
O542 Co531 2.093 . S
O542 C534 1.224 . S
H543 C575 0.929 . S
H544 C577 0.930 . S
H545 C578 0.930 . S
H546 C576 0.929 . S
H547 C579 0.928 . S
O548 Co532 2.057 . S
O548 C536 1.232 . S
H549 C568 0.929 . S
H550 C569 0.929 . S
H551 C581 0.931 . S
H552 C573 0.929 . S
H553 C582 0.930 1_455 S
H554 C574 0.931 . S
O555 Co531 2.097 . S
O555 C583 1.214 . S
H556 C584 0.929 . S
H557 C585 0.929 . S
H558 C586 0.930 . S
H559 C587 0.929 . S
H560 C589 0.930 . S
H561 C566 0.930 . S
H562 C570 0.930 . S
O563 Co532 2.037 . S
O563 C583 1.234 . S
C564 O538 1.269 . S
C564 O539 1.257 . S
C565 H540 0.930 . S
C565 C568 1.388 . S
C565 C570 1.418 . S
C566 H561 0.930 . S
C566 C569 1.404 . S
C566 C570 1.353 . S
N567 Co532 2.145 . S
N567 C568 1.397 . S
N567 C569 1.334 . S
C568 H549 0.929 . S
C568 C565 1.388 . S
C568 N567 1.397 . S
C569 H550 0.929 . S
C569 C566 1.404 . S
C569 N567 1.334 . S
C570 H562 0.930 . S
C570 C565 1.418 . S
C570 C566 1.353 . S
C571 H541 0.930 . S
C571 N572 1.330 . S
C571 C573 1.446 . S
N572 Co531 2.151 . S
N572 C571 1.330 . S
N572 C576 1.418 . S
C573 H552 0.929 . S
C573 C571 1.446 . S
C573 C574 1.332 . S
C574 H554 0.931 . S
C574 C573 1.332 . S
C574 C575 1.267 . S
C575 H543 0.929 . S
C575 C574 1.267 . S
C575 C576 1.251 . S
C576 H546 0.929 . S
C576 N572 1.418 . S
C576 C575 1.251 . S
C577 H544 0.930 . S
C577 C579 1.406 . S
C577 C582 1.261 . S
C578 H545 0.930 . S
C578 N580 1.325 . S
C578 C581 1.357 . S
C579 H547 0.928 . S
C579 C577 1.406 . S
C579 N580 1.261 . S
N580 Co531 2.214 . S
N580 C578 1.325 . S
N580 C579 1.261 . S
C581 H551 0.931 . S
C581 C578 1.357 . S
C581 C582 1.312 . S
C582 H553 0.930 1_655 S
C582 C577 1.261 . S
C582 C581 1.312 . S
C583 O555 1.214 . S
C583 O563 1.234 . S
C584 H556 0.929 . S
C584 C587 1.391 . S
C584 C589 1.391 . S
C585 H557 0.929 . S
C585 C586 1.390 . S
C585 N588 1.391 . S
C586 H558 0.930 . S
C586 C585 1.390 . S
C586 C587 1.392 . S
C587 H559 0.929 . S
C587 C584 1.391 . S
C587 C586 1.392 . S
N588 Co532 2.257 . S
N588 C585 1.391 . S
N588 C589 1.388 . S
C589 H560 0.930 . S
C589 C584 1.391 . S
C589 N588 1.388 . S
Co590 O592 2.143 . S
Co590 O598 2.074 . S
Co590 O601 2.093 . S
Co590 O614 2.097 . S
Co590 N631 2.151 . S
Co590 N639 2.214 . S
Co591 O592 2.160 . S
Co591 O597 2.058 . S
Co591 O607 2.057 . S
Co591 O622 2.037 . S
Co591 N626 2.145 . S
Co591 N647 2.257 . S
O592 Co590 2.143 . S
O592 Co591 2.160 . S
C593 O594 1.278 . S
C593 O601 1.224 . S
O594 C593 1.278 . S
C595 O596 1.245 . S
C595 O607 1.232 . S
O596 C595 1.245 . S
O597 Co591 2.058 . S
O597 C623 1.269 . S
O598 Co590 2.074 . S
O598 C623 1.257 . S
H599 C624 0.930 . S
H600 C630 0.930 . S
O601 Co590 2.093 . S
O601 C593 1.224 . S
H602 C634 0.929 . S
H603 C636 0.930 . S
H604 C637 0.930 . S
H605 C635 0.929 . S
H606 C638 0.928 . S
O607 Co591 2.057 . S
O607 C595 1.232 . S
H608 C627 0.929 . S
H609 C628 0.929 . S
H610 C640 0.931 . S
H611 C632 0.929 . S
H612 C641 0.930 1_455 S
H613 C633 0.931 . S
O614 Co590 2.097 . S
O614 C642 1.214 . S
H615 C643 0.929 . S
H616 C644 0.929 . S
H617 C645 0.930 . S
H618 C646 0.929 . S
H619 C648 0.930 . S
H620 C625 0.930 . S
H621 C629 0.930 . S
O622 Co591 2.037 . S
O622 C642 1.234 . S
C623 O597 1.269 . S
C623 O598 1.257 . S
C624 H599 0.930 . S
C624 C627 1.388 . S
C624 C629 1.418 . S
C625 H620 0.930 . S
C625 C628 1.404 . S
C625 C629 1.353 . S
N626 Co591 2.145 . S
N626 C627 1.397 . S
N626 C628 1.334 . S
C627 H608 0.929 . S
C627 C624 1.388 . S
C627 N626 1.397 . S
C628 H609 0.929 . S
C628 C625 1.404 . S
C628 N626 1.334 . S
C629 H621 0.930 . S
C629 C624 1.418 . S
C629 C625 1.353 . S
C630 H600 0.930 . S
C630 N631 1.330 . S
C630 C632 1.446 . S
N631 Co590 2.151 . S
N631 C630 1.330 . S
N631 C635 1.418 . S
C632 H611 0.929 . S
C632 C630 1.446 . S
C632 C633 1.332 . S
C633 H613 0.931 . S
C633 C632 1.332 . S
C633 C634 1.267 . S
C634 H602 0.929 . S
C634 C633 1.267 . S
C634 C635 1.251 . S
C635 H605 0.929 . S
C635 N631 1.418 . S
C635 C634 1.251 . S
C636 H603 0.930 . S
C636 C638 1.406 . S
C636 C641 1.261 . S
C637 H604 0.930 . S
C637 N639 1.325 . S
C637 C640 1.357 . S
C638 H606 0.928 . S
C638 C636 1.406 . S
C638 N639 1.261 . S
N639 Co590 2.214 . S
N639 C637 1.325 . S
N639 C638 1.261 . S
C640 H610 0.931 . S
C640 C637 1.357 . S
C640 C641 1.312 . S
C641 H612 0.930 1_655 S
C641 C636 1.261 . S
C641 C640 1.312 . S
C642 O614 1.214 . S
C642 O622 1.234 . S
C643 H615 0.929 . S
C643 C646 1.391 . S
C643 C648 1.391 . S
C644 H616 0.929 . S
C644 C645 1.390 . S
C644 N647 1.391 . S
C645 H617 0.930 . S
C645 C644 1.390 . S
C645 C646 1.392 . S
C646 H618 0.929 . S
C646 C643 1.391 . S
C646 C645 1.392 . S
N647 Co591 2.257 . S
N647 C644 1.391 . S
N647 C648 1.388 . S
C648 H619 0.930 . S
C648 C643 1.391 . S
C648 N647 1.388 . S
Co649 O651 2.143 . S
Co649 O657 2.074 . S
Co649 O660 2.093 . S
Co649 O673 2.097 . S
Co649 N690 2.151 . S
Co649 N698 2.214 . S
Co650 O651 2.160 . S
Co650 O656 2.058 . S
Co650 O666 2.057 . S
Co650 O681 2.037 . S
Co650 N685 2.145 . S
Co650 N706 2.257 . S
O651 Co649 2.143 . S
O651 Co650 2.160 . S
C652 O653 1.278 . S
C652 O660 1.224 . S
O653 C652 1.278 . S
C654 O655 1.245 . S
C654 O666 1.232 . S
O655 C654 1.245 . S
O656 Co650 2.058 . S
O656 C682 1.269 . S
O657 Co649 2.074 . S
O657 C682 1.257 . S
H658 C683 0.930 . S
H659 C689 0.930 . S
O660 Co649 2.093 . S
O660 C652 1.224 . S
H661 C693 0.929 . S
H662 C695 0.930 . S
H663 C696 0.930 . S
H664 C694 0.929 . S
H665 C697 0.928 . S
O666 Co650 2.057 . S
O666 C654 1.232 . S
H667 C686 0.929 . S
H668 C687 0.929 . S
H669 C699 0.931 . S
H670 C691 0.929 . S
H671 C700 0.930 . S
H672 C692 0.931 . S
O673 Co649 2.097 . S
O673 C701 1.214 . S
H674 C702 0.929 . S
H675 C703 0.929 . S
H676 C704 0.930 . S
H677 C705 0.929 . S
H678 C707 0.930 . S
H679 C684 0.930 . S
H680 C688 0.930 . S
O681 Co650 2.037 . S
O681 C701 1.234 . S
C682 O656 1.269 . S
C682 O657 1.257 . S
C683 H658 0.930 . S
C683 C686 1.388 . S
C683 C688 1.418 . S
C684 H679 0.930 . S
C684 C687 1.404 . S
C684 C688 1.353 . S
N685 Co650 2.145 . S
N685 C686 1.397 . S
N685 C687 1.334 . S
C686 H667 0.929 . S
C686 C683 1.388 . S
C686 N685 1.397 . S
C687 H668 0.929 . S
C687 C684 1.404 . S
C687 N685 1.334 . S
C688 H680 0.930 . S
C688 C683 1.418 . S
C688 C684 1.353 . S
C689 H659 0.930 . S
C689 N690 1.330 . S
C689 C691 1.446 . S
N690 Co649 2.151 . S
N690 C689 1.330 . S
N690 C694 1.418 . S
C691 H670 0.929 . S
C691 C689 1.446 . S
C691 C692 1.332 . S
C692 H672 0.931 . S
C692 C691 1.332 . S
C692 C693 1.267 . S
C693 H661 0.929 . S
C693 C692 1.267 . S
C693 C694 1.251 . S
C694 H664 0.929 . S
C694 N690 1.418 . S
C694 C693 1.251 . S
C695 H662 0.930 . S
C695 C697 1.406 . S
C695 C700 1.261 . S
C696 H663 0.930 . S
C696 N698 1.325 . S
C696 C699 1.357 . S
C697 H665 0.928 . S
C697 C695 1.406 . S
C697 N698 1.261 . S
N698 Co649 2.214 . S
N698 C696 1.325 . S
N698 C697 1.261 . S
C699 H669 0.931 . S
C699 C696 1.357 . S
C699 C700 1.312 . S
C700 H671 0.930 . S
C700 C695 1.261 . S
C700 C699 1.312 . S
C701 O673 1.214 . S
C701 O681 1.234 . S
C702 H674 0.929 . S
C702 C705 1.391 . S
C702 C707 1.391 . S
C703 H675 0.929 . S
C703 C704 1.390 . S
C703 N706 1.391 . S
C704 H676 0.930 . S
C704 C703 1.390 . S
C704 C705 1.392 . S
C705 H677 0.929 . S
C705 C702 1.391 . S
C705 C704 1.392 . S
N706 Co650 2.257 . S
N706 C703 1.391 . S
N706 C707 1.388 . S
C707 H678 0.930 . S
C707 C702 1.391 . S
C707 N706 1.388 . S
Co708 O710 2.143 . S
Co708 O716 2.074 . S
Co708 O719 2.093 . S
Co708 O732 2.097 . S
Co708 N749 2.151 . S
Co708 N757 2.214 . S
Co709 O710 2.160 . S
Co709 O715 2.058 . S
Co709 O725 2.057 . S
Co709 O740 2.037 . S
Co709 N744 2.145 . S
Co709 N765 2.257 . S
O710 Co708 2.143 . S
O710 Co709 2.160 . S
C711 O712 1.278 . S
C711 O719 1.224 . S
O712 C711 1.278 . S
C713 O714 1.245 . S
C713 O725 1.232 . S
O714 C713 1.245 . S
O715 Co709 2.058 . S
O715 C741 1.269 . S
O716 Co708 2.074 . S
O716 C741 1.257 . S
H717 C742 0.930 . S
H718 C748 0.930 . S
O719 Co708 2.093 . S
O719 C711 1.224 . S
H720 C752 0.929 . S
H721 C754 0.930 . S
H722 C755 0.930 . S
H723 C753 0.929 . S
H724 C756 0.928 . S
O725 Co709 2.057 . S
O725 C713 1.232 . S
H726 C745 0.929 . S
H727 C746 0.929 . S
H728 C758 0.931 . S
H729 C750 0.929 . S
H730 C759 0.930 . S
H731 C751 0.931 . S
O732 Co708 2.097 . S
O732 C760 1.214 . S
H733 C761 0.929 . S
H734 C762 0.929 . S
H735 C763 0.930 . S
H736 C764 0.929 . S
H737 C766 0.930 . S
H738 C743 0.930 . S
H739 C747 0.930 . S
O740 Co709 2.037 . S
O740 C760 1.234 . S
C741 O715 1.269 . S
C741 O716 1.257 . S
C742 H717 0.930 . S
C742 C745 1.388 . S
C742 C747 1.418 . S
C743 H738 0.930 . S
C743 C746 1.404 . S
C743 C747 1.353 . S
N744 Co709 2.145 . S
N744 C745 1.397 . S
N744 C746 1.334 . S
C745 H726 0.929 . S
C745 C742 1.388 . S
C745 N744 1.397 . S
C746 H727 0.929 . S
C746 C743 1.404 . S
C746 N744 1.334 . S
C747 H739 0.930 . S
C747 C742 1.418 . S
C747 C743 1.353 . S
C748 H718 0.930 . S
C748 N749 1.330 . S
C748 C750 1.446 . S
N749 Co708 2.151 . S
N749 C748 1.330 . S
N749 C753 1.418 . S
C750 H729 0.929 . S
C750 C748 1.446 . S
C750 C751 1.332 . S
C751 H731 0.931 . S
C751 C750 1.332 . S
C751 C752 1.267 . S
C752 H720 0.929 . S
C752 C751 1.267 . S
C752 C753 1.251 . S
C753 H723 0.929 . S
C753 N749 1.418 . S
C753 C752 1.251 . S
C754 H721 0.930 . S
C754 C756 1.406 . S
C754 C759 1.261 . S
C755 H722 0.930 . S
C755 N757 1.325 . S
C755 C758 1.357 . S
C756 H724 0.928 . S
C756 C754 1.406 . S
C756 N757 1.261 . S
N757 Co708 2.214 . S
N757 C755 1.325 . S
N757 C756 1.261 . S
C758 H728 0.931 . S
C758 C755 1.357 . S
C758 C759 1.312 . S
C759 H730 0.930 . S
C759 C754 1.261 . S
C759 C758 1.312 . S
C760 O732 1.214 . S
C760 O740 1.234 . S
C761 H733 0.929 . S
C761 C764 1.391 . S
C761 C766 1.391 . S
C762 H734 0.929 . S
C762 C763 1.390 . S
C762 N765 1.391 . S
C763 H735 0.930 . S
C763 C762 1.390 . S
C763 C764 1.392 . S
C764 H736 0.929 . S
C764 C761 1.391 . S
C764 C763 1.392 . S
N765 Co709 2.257 . S
N765 C762 1.391 . S
N765 C766 1.388 . S
C766 H737 0.930 . S
C766 C761 1.391 . S
C766 N765 1.388 . S
Co767 O769 2.143 . S
Co767 O775 2.074 . S
Co767 O778 2.093 1_455 S
Co767 O791 2.097 1_455 S
Co767 N808 2.151 . S
Co767 N816 2.214 . S
Co768 O769 2.160 1_655 S
Co768 O774 2.058 1_655 S
Co768 O784 2.057 1_655 S
Co768 O799 2.037 . S
Co768 N803 2.145 . S
Co768 N824 2.257 . S
O769 Co767 2.143 . S
O769 Co768 2.160 1_455 S
C770 O771 1.278 . S
C770 O778 1.224 . S
O771 C770 1.278 . S
C772 O773 1.245 . S
C772 O784 1.232 . S
O773 C772 1.245 . S
O774 Co768 2.058 1_455 S
O774 C800 1.269 . S
O775 Co767 2.074 . S
O775 C800 1.257 . S
H776 C801 0.930 . S
H777 C807 0.930 . S
O778 Co767 2.093 1_655 S
O778 C770 1.224 . S
H779 C811 0.929 . S
H780 C813 0.930 . S
H781 C814 0.930 . S
H782 C812 0.929 . S
H783 C815 0.928 . S
O784 Co768 2.057 1_455 S
O784 C772 1.232 . S
H785 C804 0.929 . S
H786 C805 0.929 . S
H787 C817 0.931 . S
H788 C809 0.929 . S
H789 C818 0.930 . S
H790 C810 0.931 . S
O791 Co767 2.097 1_655 S
O791 C819 1.214 . S
H792 C820 0.929 . S
H793 C821 0.929 . S
H794 C822 0.930 . S
H795 C823 0.929 . S
H796 C825 0.930 . S
H797 C802 0.930 . S
H798 C806 0.930 . S
O799 Co768 2.037 . S
O799 C819 1.234 . S
C800 O774 1.269 . S
C800 O775 1.257 . S
C801 H776 0.930 . S
C801 C804 1.388 . S
C801 C806 1.418 . S
C802 H797 0.930 . S
C802 C805 1.404 . S
C802 C806 1.353 . S
N803 Co768 2.145 . S
N803 C804 1.397 . S
N803 C805 1.334 . S
C804 H785 0.929 . S
C804 C801 1.388 . S
C804 N803 1.397 . S
C805 H786 0.929 . S
C805 C802 1.404 . S
C805 N803 1.334 . S
C806 H798 0.930 . S
C806 C801 1.418 . S
C806 C802 1.353 . S
C807 H777 0.930 . S
C807 N808 1.330 . S
C807 C809 1.446 . S
N808 Co767 2.151 . S
N808 C807 1.330 . S
N808 C812 1.418 . S
C809 H788 0.929 . S
C809 C807 1.446 . S
C809 C810 1.332 . S
C810 H790 0.931 . S
C810 C809 1.332 . S
C810 C811 1.267 . S
C811 H779 0.929 . S
C811 C810 1.267 . S
C811 C812 1.251 . S
C812 H782 0.929 . S
C812 N808 1.418 . S
C812 C811 1.251 . S
C813 H780 0.930 . S
C813 C815 1.406 . S
C813 C818 1.261 . S
C814 H781 0.930 . S
C814 N816 1.325 . S
C814 C817 1.357 . S
C815 H783 0.928 . S
C815 C813 1.406 . S
C815 N816 1.261 . S
N816 Co767 2.214 . S
N816 C814 1.325 . S
N816 C815 1.261 . S
C817 H787 0.931 . S
C817 C814 1.357 . S
C817 C818 1.312 . S
C818 H789 0.930 . S
C818 C813 1.261 . S
C818 C817 1.312 . S
C819 O791 1.214 . S
C819 O799 1.234 . S
C820 H792 0.929 . S
C820 C823 1.391 . S
C820 C825 1.391 . S
C821 H793 0.929 . S
C821 C822 1.390 . S
C821 N824 1.391 . S
C822 H794 0.930 . S
C822 C821 1.390 . S
C822 C823 1.392 . S
C823 H795 0.929 . S
C823 C820 1.391 . S
C823 C822 1.392 . S
N824 Co768 2.257 . S
N824 C821 1.391 . S
N824 C825 1.388 . S
C825 H796 0.930 . S
C825 C820 1.391 . S
C825 N824 1.388 . S
Co826 O828 2.143 . S
Co826 O834 2.074 . S
Co826 O837 2.093 . S
Co826 O850 2.097 . S
Co826 N867 2.151 . S
Co826 N875 2.214 . S
Co827 O828 2.160 . S
Co827 O833 2.058 . S
Co827 O843 2.057 . S
Co827 O858 2.037 . S
Co827 N862 2.145 . S
Co827 N883 2.257 . S
O828 Co826 2.143 . S
O828 Co827 2.160 . S
C829 O830 1.278 . S
C829 O837 1.224 . S
O830 C829 1.278 . S
C831 O832 1.245 . S
C831 O843 1.232 . S
O832 C831 1.245 . S
O833 Co827 2.058 . S
O833 C859 1.269 . S
O834 Co826 2.074 . S
O834 C859 1.257 . S
H835 C860 0.930 . S
H836 C866 0.930 . S
O837 Co826 2.093 . S
O837 C829 1.224 . S
H838 C870 0.929 . S
H839 C872 0.930 . S
H840 C873 0.930 . S
H841 C871 0.929 . S
H842 C874 0.928 . S
O843 Co827 2.057 . S
O843 C831 1.232 . S
H844 C863 0.929 . S
H845 C864 0.929 . S
H846 C876 0.931 . S
H847 C868 0.929 . S
H848 C877 0.930 . S
H849 C869 0.931 . S
O850 Co826 2.097 . S
O850 C878 1.214 . S
H851 C879 0.929 . S
H852 C880 0.929 . S
H853 C881 0.930 . S
H854 C882 0.929 . S
H855 C884 0.930 . S
H856 C861 0.930 . S
H857 C865 0.930 . S
O858 Co827 2.037 . S
O858 C878 1.234 . S
C859 O833 1.269 . S
C859 O834 1.257 . S
C860 H835 0.930 . S
C860 C863 1.388 . S
C860 C865 1.418 . S
C861 H856 0.930 . S
C861 C864 1.404 . S
C861 C865 1.353 . S
N862 Co827 2.145 . S
N862 C863 1.397 . S
N862 C864 1.334 . S
C863 H844 0.929 . S
C863 C860 1.388 . S
C863 N862 1.397 . S
C864 H845 0.929 . S
C864 C861 1.404 . S
C864 N862 1.334 . S
C865 H857 0.930 . S
C865 C860 1.418 . S
C865 C861 1.353 . S
C866 H836 0.930 . S
C866 N867 1.330 . S
C866 C868 1.446 . S
N867 Co826 2.151 . S
N867 C866 1.330 . S
N867 C871 1.418 . S
C868 H847 0.929 . S
C868 C866 1.446 . S
C868 C869 1.332 . S
C869 H849 0.931 . S
C869 C868 1.332 . S
C869 C870 1.267 . S
C870 H838 0.929 . S
C870 C869 1.267 . S
C870 C871 1.251 . S
C871 H841 0.929 . S
C871 N867 1.418 . S
C871 C870 1.251 . S
C872 H839 0.930 . S
C872 C874 1.406 . S
C872 C877 1.261 . S
C873 H840 0.930 . S
C873 N875 1.325 . S
C873 C876 1.357 . S
C874 H842 0.928 . S
C874 C872 1.406 . S
C874 N875 1.261 . S
N875 Co826 2.214 . S
N875 C873 1.325 . S
N875 C874 1.261 . S
C876 H846 0.931 . S
C876 C873 1.357 . S
C876 C877 1.312 . S
C877 H848 0.930 . S
C877 C872 1.261 . S
C877 C876 1.312 . S
C878 O850 1.214 . S
C878 O858 1.234 . S
C879 H851 0.929 . S
C879 C882 1.391 . S
C879 C884 1.391 . S
C880 H852 0.929 . S
C880 C881 1.390 . S
C880 N883 1.391 . S
C881 H853 0.930 . S
C881 C880 1.390 . S
C881 C882 1.392 . S
C882 H854 0.929 . S
C882 C879 1.391 . S
C882 C881 1.392 . S
N883 Co827 2.257 . S
N883 C880 1.391 . S
N883 C884 1.388 . S
C884 H855 0.930 . S
C884 C879 1.391 . S
C884 N883 1.388 . S
Co885 O887 2.143 . S
Co885 O893 2.074 . S
Co885 O896 2.093 1_455 S
Co885 O909 2.097 1_455 S
Co885 N926 2.151 . S
Co885 N934 2.214 . S
Co886 O887 2.160 1_655 S
Co886 O892 2.058 1_655 S
Co886 O902 2.057 1_655 S
Co886 O917 2.037 . S
Co886 N921 2.145 . S
Co886 N942 2.257 . S
O887 Co885 2.143 . S
O887 Co886 2.160 1_455 S
C888 O889 1.278 . S
C888 O896 1.224 . S
O889 C888 1.278 . S
C890 O891 1.245 . S
C890 O902 1.232 . S
O891 C890 1.245 . S
O892 Co886 2.058 1_455 S
O892 C918 1.269 . S
O893 Co885 2.074 . S
O893 C918 1.257 . S
H894 C919 0.930 . S
H895 C925 0.930 . S
O896 Co885 2.093 1_655 S
O896 C888 1.224 . S
H897 C929 0.929 . S
H898 C931 0.930 . S
H899 C932 0.930 . S
H900 C930 0.929 . S
H901 C933 0.928 . S
O902 Co886 2.057 1_455 S
O902 C890 1.232 . S
H903 C922 0.929 . S
H904 C923 0.929 . S
H905 C935 0.931 . S
H906 C927 0.929 . S
H907 C936 0.930 . S
H908 C928 0.931 . S
O909 Co885 2.097 1_655 S
O909 C937 1.214 . S
H910 C938 0.929 . S
H911 C939 0.929 . S
H912 C940 0.930 . S
H913 C941 0.929 . S
H914 C943 0.930 . S
H915 C920 0.930 . S
H916 C924 0.930 . S
O917 Co886 2.037 . S
O917 C937 1.234 . S
C918 O892 1.269 . S
C918 O893 1.257 . S
C919 H894 0.930 . S
C919 C922 1.388 . S
C919 C924 1.418 . S
C920 H915 0.930 . S
C920 C923 1.404 . S
C920 C924 1.353 . S
N921 Co886 2.145 . S
N921 C922 1.397 . S
N921 C923 1.334 . S
C922 H903 0.929 . S
C922 C919 1.388 . S
C922 N921 1.397 . S
C923 H904 0.929 . S
C923 C920 1.404 . S
C923 N921 1.334 . S
C924 H916 0.930 . S
C924 C919 1.418 . S
C924 C920 1.353 . S
C925 H895 0.930 . S
C925 N926 1.330 . S
C925 C927 1.446 . S
N926 Co885 2.151 . S
N926 C925 1.330 . S
N926 C930 1.418 . S
C927 H906 0.929 . S
C927 C925 1.446 . S
C927 C928 1.332 . S
C928 H908 0.931 . S
C928 C927 1.332 . S
C928 C929 1.267 . S
C929 H897 0.929 . S
C929 C928 1.267 . S
C929 C930 1.251 . S
C930 H900 0.929 . S
C930 N926 1.418 . S
C930 C929 1.251 . S
C931 H898 0.930 . S
C931 C933 1.406 . S
C931 C936 1.261 . S
C932 H899 0.930 . S
C932 N934 1.325 . S
C932 C935 1.357 . S
C933 H901 0.928 . S
C933 C931 1.406 . S
C933 N934 1.261 . S
N934 Co885 2.214 . S
N934 C932 1.325 . S
N934 C933 1.261 . S
C935 H905 0.931 . S
C935 C932 1.357 . S
C935 C936 1.312 . S
C936 H907 0.930 . S
C936 C931 1.261 . S
C936 C935 1.312 . S
C937 O909 1.214 . S
C937 O917 1.234 . S
C938 H910 0.929 . S
C938 C941 1.391 . S
C938 C943 1.391 . S
C939 H911 0.929 . S
C939 C940 1.390 . S
C939 N942 1.391 . S
C940 H912 0.930 . S
C940 C939 1.390 . S
C940 C941 1.392 . S
C941 H913 0.929 . S
C941 C938 1.391 . S
C941 C940 1.392 . S
N942 Co886 2.257 . S
N942 C939 1.391 . S
N942 C943 1.388 . S
C943 H914 0.930 . S
C943 C938 1.391 . S
C943 N942 1.388 . S
C944 C945 1.369 . S
C944 C946 1.419 . S
C944 H948 0.930 . S
C945 C944 1.369 . S
C945 C954 1.429 1_655 S
C946 C944 1.419 . S
C946 C947 1.363 1_655 S
C946 H949 0.929 . S
C947 C946 1.363 1_455 S
C947 C953 1.428 . S
H948 C944 0.930 . S
H949 C946 0.929 . S
S950 N951 1.613 . S
S950 N952 1.610 . S
N951 S950 1.613 . S
N951 C954 1.350 . S
N952 S950 1.610 . S
N952 C953 1.351 . S
C953 C947 1.428 . S
C953 N952 1.351 . S
C953 C954 1.434 . S
C954 C945 1.429 1_455 S
C954 N951 1.350 . S
C954 C953 1.434 . S
C955 C956 1.369 . S
C955 C957 1.419 1_655 S
C955 H959 0.930 . S
C956 C955 1.369 . S
C956 C965 1.429 . S
C957 C955 1.419 1_455 S
C957 C958 1.363 . S
C957 H960 0.929 . S
C958 C957 1.363 . S
C958 C964 1.428 . S
H959 C955 0.930 . S
H960 C957 0.929 . S
S961 N962 1.613 1_455 S
S961 N963 1.610 . S
N962 S961 1.613 1_655 S
N962 C965 1.350 . S
N963 S961 1.610 . S
N963 C964 1.351 . S
C964 C958 1.428 . S
C964 N963 1.351 . S
C964 C965 1.434 1_455 S
C965 C956 1.429 . S
C965 N962 1.350 . S
C965 C964 1.434 1_655 S
C966 C967 1.369 . S
C966 C968 1.419 . S
C966 H970 0.930 . S
C967 C966 1.369 . S
C967 C976 1.429 . S
C968 C966 1.419 . S
C968 C969 1.363 . S
C968 H971 0.929 . S
C969 C968 1.363 . S
C969 C975 1.428 . S
H970 C966 0.930 . S
H971 C968 0.929 . S
S972 N973 1.613 . S
S972 N974 1.610 . S
N973 S972 1.613 . S
N973 C976 1.350 . S
N974 S972 1.610 . S
N974 C975 1.351 . S
C975 C969 1.428 . S
C975 N974 1.351 . S
C975 C976 1.434 . S
C976 C967 1.429 . S
C976 N973 1.350 . S
C976 C975 1.434 . S
C977 C978 1.369 . S
C977 C979 1.419 . S
C977 H981 0.930 . S
C978 C977 1.369 . S
C978 C987 1.429 . S
C979 C977 1.419 . S
C979 C980 1.363 . S
C979 H982 0.929 . S
C980 C979 1.363 . S
C980 C986 1.428 . S
H981 C977 0.930 . S
H982 C979 0.929 . S
S983 N984 1.613 . S
S983 N985 1.610 . S
N984 S983 1.613 . S
N984 C987 1.350 . S
N985 S983 1.610 . S
N985 C986 1.351 . S
C986 C980 1.428 . S
C986 N985 1.351 . S
C986 C987 1.434 . S
C987 C978 1.429 . S
C987 N984 1.350 . S
C987 C986 1.434 . S
C988 C989 1.369 1_455 S
C988 C990 1.419 . S
C988 H992 0.930 . S
C989 C988 1.369 1_655 S
C989 C998 1.429 . S
C990 C988 1.419 . S
C990 C991 1.363 . S
C990 H993 0.929 . S
C991 C990 1.363 . S
C991 C997 1.428 1_455 S
H992 C988 0.930 . S
H993 C990 0.929 . S
S994 N995 1.613 . S
S994 N996 1.610 . S
N995 S994 1.613 . S
N995 C998 1.350 . S
N996 S994 1.610 . S
N996 C997 1.351 . S
C997 C991 1.428 1_655 S
C997 N996 1.351 . S
C997 C998 1.434 . S
C998 C989 1.429 . S
C998 N995 1.350 . S
C998 C997 1.434 . S
C999 C1000 1.369 . S
C999 C1001 1.419 . S
C999 H1003 0.930 . S
C1000 C999 1.369 . S
C1000 C1009 1.429 . S
C1001 C999 1.419 . S
C1001 C1002 1.363 . S
C1001 H1004 0.929 . S
C1002 C1001 1.363 . S
C1002 C1008 1.428 . S
H1003 C999 0.930 . S
H1004 C1001 0.929 . S
S1005 N1006 1.613 . S
S1005 N1007 1.610 . S
N1006 S1005 1.613 . S
N1006 C1009 1.350 . S
N1007 S1005 1.610 . S
N1007 C1008 1.351 . S
C1008 C1002 1.428 . S
C1008 N1007 1.351 . S
C1008 C1009 1.434 . S
C1009 C1000 1.429 . S
C1009 N1006 1.350 . S
C1009 C1008 1.434 . S
C1010 C1011 1.369 . S
C1010 C1012 1.419 . S
C1010 H1014 0.930 . S
C1011 C1010 1.369 . S
C1011 C1020 1.429 . S
C1012 C1010 1.419 . S
C1012 C1013 1.363 . S
C1012 H1015 0.929 . S
C1013 C1012 1.363 . S
C1013 C1019 1.428 . S
H1014 C1010 0.930 . S
H1015 C1012 0.929 . S
S1016 N1017 1.613 . S
S1016 N1018 1.610 . S
N1017 S1016 1.613 . S
N1017 C1020 1.350 . S
N1018 S1016 1.610 . S
N1018 C1019 1.351 . S
C1019 C1013 1.428 . S
C1019 N1018 1.351 . S
C1019 C1020 1.434 . S
C1020 C1011 1.429 . S
C1020 N1017 1.350 . S
C1020 C1019 1.434 . S
C1021 C1022 1.369 . S
C1021 C1023 1.419 1_455 S
C1021 H1025 0.930 . S
C1022 C1021 1.369 . S
C1022 C1031 1.429 . S
C1023 C1021 1.419 1_655 S
C1023 C1024 1.363 . S
C1023 H1026 0.929 . S
C1024 C1023 1.363 . S
C1024 C1030 1.428 . S
H1025 C1021 0.930 . S
H1026 C1023 0.929 . S
S1027 N1028 1.613 1_655 S
S1027 N1029 1.610 . S
N1028 S1027 1.613 1_455 S
N1028 C1031 1.350 . S
N1029 S1027 1.610 . S
N1029 C1030 1.351 . S
C1030 C1024 1.428 . S
C1030 N1029 1.351 . S
C1030 C1031 1.434 1_655 S
C1031 C1022 1.429 . S
C1031 N1028 1.350 . S
C1031 C1030 1.434 1_455 S
C1032 C1033 1.369 . S
C1032 C1034 1.419 1_565 S
C1032 H1036 0.930 . S
C1033 C1032 1.369 . S
C1033 C1042 1.429 1_465 S
C1034 C1032 1.419 1_545 S
C1034 C1035 1.363 . S
C1034 H1037 0.929 . S
C1035 C1034 1.363 . S
C1035 C1041 1.428 1_455 S
H1036 C1032 0.930 . S
H1037 C1034 0.929 . S
S1038 N1039 1.613 . S
S1038 N1040 1.610 . S
N1039 S1038 1.613 . S
N1039 C1042 1.350 . S
N1040 S1038 1.610 . S
N1040 C1041 1.351 . S
C1041 C1035 1.428 1_655 S
C1041 N1040 1.351 . S
C1041 C1042 1.434 . S
C1042 C1033 1.429 1_645 S
C1042 N1039 1.350 . S
C1042 C1041 1.434 . S
C1043 C1044 1.369 . S
C1043 C1045 1.419 . S
C1043 H1047 0.930 . S
C1044 C1043 1.369 . S
C1044 C1053 1.429 . S
C1045 C1043 1.419 . S
C1045 C1046 1.363 . S
C1045 H1048 0.929 . S
C1046 C1045 1.363 . S
C1046 C1052 1.428 . S
H1047 C1043 0.930 . S
H1048 C1045 0.929 . S
S1049 N1050 1.613 . S
S1049 N1051 1.610 . S
N1050 S1049 1.613 . S
N1050 C1053 1.350 . S
N1051 S1049 1.610 . S
N1051 C1052 1.351 . S
C1052 C1046 1.428 . S
C1052 N1051 1.351 . S
C1052 C1053 1.434 . S
C1053 C1044 1.429 . S
C1053 N1050 1.350 . S
C1053 C1052 1.434 . S
C1054 C1055 1.369 1_545 S
C1054 C1056 1.419 1_554 S
C1054 H1058 0.930 . S
C1055 C1054 1.369 1_565 S
C1055 C1064 1.429 . S
C1056 C1054 1.419 1_556 S
C1056 C1057 1.363 . S
C1056 H1059 0.929 . S
C1057 C1056 1.363 . S
C1057 C1063 1.428 1_545 S
H1058 C1054 0.930 . S
H1059 C1056 0.929 . S
S1060 N1061 1.613 1_556 S
S1060 N1062 1.610 . S
N1061 S1060 1.613 1_554 S
N1061 C1064 1.350 . S
N1062 S1060 1.610 . S
N1062 C1063 1.351 . S
C1063 C1057 1.428 1_565 S
C1063 N1062 1.351 . S
C1063 C1064 1.434 1_556 S
C1064 C1055 1.429 . S
C1064 N1061 1.350 . S
C1064 C1063 1.434 1_554 S
C1065 C1066 1.369 . S
C1065 C1067 1.419 . S
C1065 H1069 0.930 . S
C1066 C1065 1.369 . S
C1066 C1075 1.429 . S
C1067 C1065 1.419 . S
C1067 C1068 1.363 . S
C1067 H1070 0.929 . S
C1068 C1067 1.363 . S
C1068 C1074 1.428 . S
H1069 C1065 0.930 . S
H1070 C1067 0.929 . S
S1071 N1072 1.613 . S
S1071 N1073 1.610 . S
N1072 S1071 1.613 . S
N1072 C1075 1.350 . S
N1073 S1071 1.610 . S
N1073 C1074 1.351 . S
C1074 C1068 1.428 . S
C1074 N1073 1.351 . S
C1074 C1075 1.434 . S
C1075 C1066 1.429 . S
C1075 N1072 1.350 . S
C1075 C1074 1.434 . S
C1076 C1077 1.369 . S
C1076 C1078 1.419 . S
C1076 H1080 0.930 . S
C1077 C1076 1.369 . S
C1077 C1086 1.429 . S
C1078 C1076 1.419 . S
C1078 C1079 1.363 . S
C1078 H1081 0.929 . S
C1079 C1078 1.363 . S
C1079 C1085 1.428 . S
H1080 C1076 0.930 . S
H1081 C1078 0.929 . S
S1082 N1083 1.613 . S
S1082 N1084 1.610 . S
N1083 S1082 1.613 . S
N1083 C1086 1.350 . S
N1084 S1082 1.610 . S
N1084 C1085 1.351 . S
C1085 C1079 1.428 . S
C1085 N1084 1.351 . S
C1085 C1086 1.434 . S
C1086 C1077 1.429 . S
C1086 N1083 1.350 . S
C1086 C1085 1.434 . S
C1087 C1088 1.369 . S
C1087 C1089 1.419 . S
C1087 H1091 0.930 . S
C1088 C1087 1.369 . S
C1088 C1097 1.429 . S
C1089 C1087 1.419 . S
C1089 C1090 1.363 . S
C1089 H1092 0.929 . S
C1090 C1089 1.363 . S
C1090 C1096 1.428 . S
H1091 C1087 0.930 . S
H1092 C1089 0.929 . S
S1093 N1094 1.613 . S
S1093 N1095 1.610 . S
N1094 S1093 1.613 . S
N1094 C1097 1.350 . S
N1095 S1093 1.610 . S
N1095 C1096 1.351 . S
C1096 C1090 1.428 . S
C1096 N1095 1.351 . S
C1096 C1097 1.434 . S
C1097 C1088 1.429 . S
C1097 N1094 1.350 . S
C1097 C1096 1.434 . S
C1098 C1099 1.369 . S
C1098 C1100 1.419 1_556 S
C1098 H1102 0.930 . S
C1099 C1098 1.369 . S
C1099 C1108 1.429 . S
C1100 C1098 1.419 1_554 S
C1100 C1101 1.363 . S
C1100 H1103 0.929 . S
C1101 C1100 1.363 . S
C1101 C1107 1.428 . S
H1102 C1098 0.930 . S
H1103 C1100 0.929 . S
S1104 N1105 1.613 1_554 S
S1104 N1106 1.610 . S
N1105 S1104 1.613 1_556 S
N1105 C1108 1.350 . S
N1106 S1104 1.610 . S
N1106 C1107 1.351 . S
C1107 C1101 1.428 . S
C1107 N1106 1.351 . S
C1107 C1108 1.434 1_554 S
C1108 C1099 1.429 . S
C1108 N1105 1.350 . S
C1108 C1107 1.434 1_556 S
C1109 C1110 1.369 . S
C1109 C1111 1.419 . S
C1109 H1113 0.930 . S
C1110 C1109 1.369 . S
C1110 C1119 1.429 . S
C1111 C1109 1.419 . S
C1111 C1112 1.363 . S
C1111 H1114 0.929 . S
C1112 C1111 1.363 . S
C1112 C1118 1.428 . S
H1113 C1109 0.930 . S
H1114 C1111 0.929 . S
S1115 N1116 1.613 . S
S1115 N1117 1.610 . S
N1116 S1115 1.613 . S
N1116 C1119 1.350 . S
N1117 S1115 1.610 . S
N1117 C1118 1.351 . S
C1118 C1112 1.428 . S
C1118 N1117 1.351 . S
C1118 C1119 1.434 . S
C1119 C1110 1.429 . S
C1119 N1116 1.350 . S
C1119 C1118 1.434 . S
C1120 C1121 1.369 . S
C1120 C1122 1.419 . S
C1120 H1124 0.930 . S
C1121 C1120 1.369 . S
C1121 C1130 1.429 . S
C1122 C1120 1.419 . S
C1122 C1123 1.363 . S
C1122 H1125 0.929 . S
C1123 C1122 1.363 . S
C1123 C1129 1.428 . S
H1124 C1120 0.930 . S
H1125 C1122 0.929 . S
S1126 N1127 1.613 . S
S1126 N1128 1.610 . S
N1127 S1126 1.613 . S
N1127 C1130 1.350 . S
N1128 S1126 1.610 . S
N1128 C1129 1.351 . S
C1129 C1123 1.428 . S
C1129 N1128 1.351 . S
C1129 C1130 1.434 . S
C1130 C1121 1.429 . S
C1130 N1127 1.350 . S
C1130 C1129 1.434 . S
C1131 C1132 1.369 . S
C1131 C1133 1.419 . S
C1131 H1135 0.930 . S
C1132 C1131 1.369 . S
C1132 C1141 1.429 . S
C1133 C1131 1.419 . S
C1133 C1134 1.363 . S
C1133 H1136 0.929 . S
C1134 C1133 1.363 . S
C1134 C1140 1.428 . S
H1135 C1131 0.930 . S
H1136 C1133 0.929 . S
S1137 N1138 1.613 . S
S1137 N1139 1.610 . S
N1138 S1137 1.613 . S
N1138 C1141 1.350 . S
N1139 S1137 1.610 . S
N1139 C1140 1.351 . S
C1140 C1134 1.428 . S
C1140 N1139 1.351 . S
C1140 C1141 1.434 . S
C1141 C1132 1.429 . S
C1141 N1138 1.350 . S
C1141 C1140 1.434 . S
C1142 C1143 1.369 . S
C1142 C1144 1.419 . S
C1142 H1146 0.930 . S
C1143 C1142 1.369 . S
C1143 C1152 1.429 . S
C1144 C1142 1.419 . S
C1144 C1145 1.363 . S
C1144 H1147 0.929 . S
C1145 C1144 1.363 . S
C1145 C1151 1.428 . S
H1146 C1142 0.930 . S
H1147 C1144 0.929 . S
S1148 N1149 1.613 . S
S1148 N1150 1.610 . S
N1149 S1148 1.613 . S
N1149 C1152 1.350 . S
N1150 S1148 1.610 . S
N1150 C1151 1.351 . S
C1151 C1145 1.428 . S
C1151 N1150 1.351 . S
C1151 C1152 1.434 . S
C1152 C1143 1.429 . S
C1152 N1149 1.350 . S
C1152 C1151 1.434 . S
C1153 C1154 1.369 . S
C1153 C1155 1.419 . S
C1153 H1157 0.930 . S
C1154 C1153 1.369 . S
C1154 C1163 1.429 . S
C1155 C1153 1.419 . S
C1155 C1156 1.363 . S
C1155 H1158 0.929 . S
C1156 C1155 1.363 . S
C1156 C1162 1.428 . S
H1157 C1153 0.930 . S
H1158 C1155 0.929 . S
S1159 N1160 1.613 . S
S1159 N1161 1.610 . S
N1160 S1159 1.613 . S
N1160 C1163 1.350 . S
N1161 S1159 1.610 . S
N1161 C1162 1.351 . S
C1162 C1156 1.428 . S
C1162 N1161 1.351 . S
C1162 C1163 1.434 . S
C1163 C1154 1.429 . S
C1163 N1160 1.350 . S
C1163 C1162 1.434 . S
C1164 C1165 1.369 . S
C1164 C1166 1.419 . S
C1164 H1168 0.930 . S
C1165 C1164 1.369 . S
C1165 C1174 1.429 . S
C1166 C1164 1.419 . S
C1166 C1167 1.363 . S
C1166 H1169 0.929 . S
C1167 C1166 1.363 . S
C1167 C1173 1.428 . S
H1168 C1164 0.930 . S
H1169 C1166 0.929 . S
S1170 N1171 1.613 . S
S1170 N1172 1.610 . S
N1171 S1170 1.613 . S
N1171 C1174 1.350 . S
N1172 S1170 1.610 . S
N1172 C1173 1.351 . S
C1173 C1167 1.428 . S
C1173 N1172 1.351 . S
C1173 C1174 1.434 . S
C1174 C1165 1.429 . S
C1174 N1171 1.350 . S
C1174 C1173 1.434 . S
C1175 C1176 1.369 . S
C1175 C1177 1.419 . S
C1175 H1179 0.930 . S
C1176 C1175 1.369 . S
C1176 C1185 1.429 . S
C1177 C1175 1.419 . S
C1177 C1178 1.363 . S
C1177 H1180 0.929 . S
C1178 C1177 1.363 . S
C1178 C1184 1.428 . S
H1179 C1175 0.930 . S
H1180 C1177 0.929 . S
S1181 N1182 1.613 . S
S1181 N1183 1.610 . S
N1182 S1181 1.613 . S
N1182 C1185 1.350 . S
N1183 S1181 1.610 . S
N1183 C1184 1.351 . S
C1184 C1178 1.428 . S
C1184 N1183 1.351 . S
C1184 C1185 1.434 . S
C1185 C1176 1.429 . S
C1185 N1182 1.350 . S
C1185 C1184 1.434 . S
C1186 C1187 1.369 . S
C1186 C1188 1.419 . S
C1186 H1190 0.930 . S
C1187 C1186 1.369 . S
C1187 C1196 1.429 . S
C1188 C1186 1.419 . S
C1188 C1189 1.363 . S
C1188 H1191 0.929 . S
C1189 C1188 1.363 . S
C1189 C1195 1.428 . S
H1190 C1186 0.930 . S
H1191 C1188 0.929 . S
S1192 N1193 1.613 . S
S1192 N1194 1.610 . S
N1193 S1192 1.613 . S
N1193 C1196 1.350 . S
N1194 S1192 1.610 . S
N1194 C1195 1.351 . S
C1195 C1189 1.428 . S
C1195 N1194 1.351 . S
C1195 C1196 1.434 . S
C1196 C1187 1.429 . S
C1196 N1193 1.350 . S
C1196 C1195 1.434 . S
C1197 C1198 1.369 . S
C1197 C1199 1.419 . S
C1197 H1201 0.930 . S
C1198 C1197 1.369 . S
C1198 C1207 1.429 . S
C1199 C1197 1.419 . S
C1199 C1200 1.363 . S
C1199 H1202 0.929 . S
C1200 C1199 1.363 . S
C1200 C1206 1.428 . S
H1201 C1197 0.930 . S
H1202 C1199 0.929 . S
S1203 N1204 1.613 . S
S1203 N1205 1.610 . S
N1204 S1203 1.613 . S
N1204 C1207 1.350 . S
N1205 S1203 1.610 . S
N1205 C1206 1.351 . S
C1206 C1200 1.428 . S
C1206 N1205 1.351 . S
C1206 C1207 1.434 . S
C1207 C1198 1.429 . S
C1207 N1204 1.350 . S
C1207 C1206 1.434 . S
C1208 C1209 1.369 . S
C1208 C1210 1.419 . S
C1208 H1212 0.930 . S
C1209 C1208 1.369 . S
C1209 C1218 1.429 . S
C1210 C1208 1.419 . S
C1210 C1211 1.363 . S
C1210 H1213 0.929 . S
C1211 C1210 1.363 . S
C1211 C1217 1.428 . S
H1212 C1208 0.930 . S
H1213 C1210 0.929 . S
S1214 N1215 1.613 . S
S1214 N1216 1.610 . S
N1215 S1214 1.613 . S
N1215 C1218 1.350 . S
N1216 S1214 1.610 . S
N1216 C1217 1.351 . S
C1217 C1211 1.428 . S
C1217 N1216 1.351 . S
C1217 C1218 1.434 . S
C1218 C1209 1.429 . S
C1218 N1215 1.350 . S
C1218 C1217 1.434 . S
C1219 C1220 1.369 . S
C1219 C1221 1.419 . S
C1219 H1223 0.930 . S
C1220 C1219 1.369 . S
C1220 C1229 1.429 . S
C1221 C1219 1.419 . S
C1221 C1222 1.363 . S
C1221 H1224 0.929 . S
C1222 C1221 1.363 . S
C1222 C1228 1.428 . S
H1223 C1219 0.930 . S
H1224 C1221 0.929 . S
S1225 N1226 1.613 . S
S1225 N1227 1.610 . S
N1226 S1225 1.613 . S
N1226 C1229 1.350 . S
N1227 S1225 1.610 . S
N1227 C1228 1.351 . S
C1228 C1222 1.428 . S
C1228 N1227 1.351 . S
C1228 C1229 1.434 . S
C1229 C1220 1.429 . S
C1229 N1226 1.350 . S
C1229 C1228 1.434 . S
C1230 C1231 1.369 . S
C1230 C1232 1.419 . S
C1230 H1234 0.930 . S
C1231 C1230 1.369 . S
C1231 C1240 1.429 . S
C1232 C1230 1.419 . S
C1232 C1233 1.363 . S
C1232 H1235 0.929 . S
C1233 C1232 1.363 . S
C1233 C1239 1.428 . S
H1234 C1230 0.930 . S
H1235 C1232 0.929 . S
S1236 N1237 1.613 . S
S1236 N1238 1.610 . S
N1237 S1236 1.613 . S
N1237 C1240 1.350 . S
N1238 S1236 1.610 . S
N1238 C1239 1.351 . S
C1239 C1233 1.428 . S
C1239 N1238 1.351 . S
C1239 C1240 1.434 . S
C1240 C1231 1.429 . S
C1240 N1237 1.350 . S
C1240 C1239 1.434 . S
C1241 C1242 1.369 . S
C1241 C1243 1.419 . S
C1241 H1245 0.930 . S
C1242 C1241 1.369 . S
C1242 C1251 1.429 . S
C1243 C1241 1.419 . S
C1243 C1244 1.363 . S
C1243 H1246 0.929 . S
C1244 C1243 1.363 . S
C1244 C1250 1.428 . S
H1245 C1241 0.930 . S
H1246 C1243 0.929 . S
S1247 N1248 1.613 . S
S1247 N1249 1.610 . S
N1248 S1247 1.613 . S
N1248 C1251 1.350 . S
N1249 S1247 1.610 . S
N1249 C1250 1.351 . S
C1250 C1244 1.428 . S
C1250 N1249 1.351 . S
C1250 C1251 1.434 . S
C1251 C1242 1.429 . S
C1251 N1248 1.350 . S
C1251 C1250 1.434 . S
C1252 C1253 1.369 . S
C1252 C1254 1.419 . S
C1252 H1256 0.930 . S
C1253 C1252 1.369 . S
C1253 C1262 1.429 . S
C1254 C1252 1.419 . S
C1254 C1255 1.363 . S
C1254 H1257 0.929 . S
C1255 C1254 1.363 . S
C1255 C1261 1.428 . S
H1256 C1252 0.930 . S
H1257 C1254 0.929 . S
S1258 N1259 1.613 . S
S1258 N1260 1.610 . S
N1259 S1258 1.613 . S
N1259 C1262 1.350 . S
N1260 S1258 1.610 . S
N1260 C1261 1.351 . S
C1261 C1255 1.428 . S
C1261 N1260 1.351 . S
C1261 C1262 1.434 . S
C1262 C1253 1.429 . S
C1262 N1259 1.350 . S
C1262 C1261 1.434 . S
C1263 C1264 1.369 . S
C1263 C1265 1.419 . S
C1263 H1267 0.930 . S
C1264 C1263 1.369 . S
C1264 C1273 1.429 . S
C1265 C1263 1.419 . S
C1265 C1266 1.363 . S
C1265 H1268 0.929 . S
C1266 C1265 1.363 . S
C1266 C1272 1.428 . S
H1267 C1263 0.930 . S
H1268 C1265 0.929 . S
S1269 N1270 1.613 . S
S1269 N1271 1.610 . S
N1270 S1269 1.613 . S
N1270 C1273 1.350 . S
N1271 S1269 1.610 . S
N1271 C1272 1.351 . S
C1272 C1266 1.428 . S
C1272 N1271 1.351 . S
C1272 C1273 1.434 . S
C1273 C1264 1.429 . S
C1273 N1270 1.350 . S
C1273 C1272 1.434 . S
C1274 C1275 1.369 . S
C1274 C1276 1.419 . S
C1274 H1278 0.930 . S
C1275 C1274 1.369 . S
C1275 C1284 1.429 . S
C1276 C1274 1.419 . S
C1276 C1277 1.363 . S
C1276 H1279 0.929 . S
C1277 C1276 1.363 . S
C1277 C1283 1.428 . S
H1278 C1274 0.930 . S
H1279 C1276 0.929 . S
S1280 N1281 1.613 . S
S1280 N1282 1.610 . S
N1281 S1280 1.613 . S
N1281 C1284 1.350 . S
N1282 S1280 1.610 . S
N1282 C1283 1.351 . S
C1283 C1277 1.428 . S
C1283 N1282 1.351 . S
C1283 C1284 1.434 . S
C1284 C1275 1.429 . S
C1284 N1281 1.350 . S
C1284 C1283 1.434 . S
C1285 C1286 1.369 . S
C1285 C1287 1.419 . S
C1285 H1289 0.930 . S
C1286 C1285 1.369 . S
C1286 C1295 1.429 . S
C1287 C1285 1.419 . S
C1287 C1288 1.363 . S
C1287 H1290 0.929 . S
C1288 C1287 1.363 . S
C1288 C1294 1.428 . S
H1289 C1285 0.930 . S
H1290 C1287 0.929 . S
S1291 N1292 1.613 . S
S1291 N1293 1.610 . S
N1292 S1291 1.613 . S
N1292 C1295 1.350 . S
N1293 S1291 1.610 . S
N1293 C1294 1.351 . S
C1294 C1288 1.428 . S
C1294 N1293 1.351 . S
C1294 C1295 1.434 . S
C1295 C1286 1.429 . S
C1295 N1292 1.350 . S
C1295 C1294 1.434 . S
C945 C5 1.427 . S
C947 C772 1.435 . S
C956 C654 1.433 . S
C958 C64 1.428 . S
C967 C713 1.430 . S
C969 C123 1.431 . S
C978 C595 1.435 . S
C980 C182 1.428 . S
C989 C241 1.432 . S
C991 C890 1.430 . S
C1000 C300 1.434 . S
C1002 C536 1.428 . S
C1011 C831 1.429 . S
C1013 C359 1.431 . S
C1022 C418 1.435 . S
C1024 C477 1.428 . S
C1033 C239 1.622 . S
C1035 C3 1.623 . S
C1044 C62 1.623 . S
C1046 C298 1.623 . S
C1055 C121 1.624 . S
C1057 C357 1.622 . S
C1066 C416 1.622 . S
C1068 C180 1.623 . S
C1077 C475 1.624 . S
C1079 C593 1.622 . S
C1088 C534 1.623 . S
C1090 C652 1.622 . S
C1099 C829 1.624 . S
C1101 C711 1.622 . S
C1110 C770 1.622 . S
C1112 C888 1.624 . S
C1121 C347 1.469 . S
C1123 C52 1.470 . S
C1132 C111 1.472 . S
C1134 C406 1.468 . S
C1143 C170 1.473 . S
C1145 C465 1.467 . S
C1154 C288 1.472 . S
C1156 C229 1.467 . S
C1165 C269 1.748 . S
C1167 C623 1.743 . S
C1176 C151 1.743 . S
C1178 C505 1.747 . S
C1187 C682 1.740 . S
C1189 C387 1.746 . S
C1198 C564 1.742 . S
C1200 C33 1.747 . S
C1209 C524 1.466 . S
C1211 C760 1.472 . S
C1220 C642 1.471 . S
C1222 C937 1.468 . S
C1231 C819 1.467 . S
C1233 C583 1.472 . S
C1242 C701 1.470 . S
C1244 C878 1.468 . S
C1253 C859 1.745 . S
C1255 C92 1.741 . S
C1264 C800 1.745 . S
C1266 C328 1.741 . S
C1275 C918 1.740 . S
C1277 C210 1.746 . S
C1286 C741 1.748 . S
C1288 C446 1.743 . S
