# Generated by pormake.
# Topology reo, (8)-cn, num edge types: 1
# Building blocks:
#     Node 0, Type 0, BuildingBlock: VETTIZ_charged_sbu_0, # of connection points: 8
#     Node 1, Type 0, BuildingBlock: VETTIZ_charged_sbu_0, # of connection points: 8
#     Node 2, Type 0, BuildingBlock: VETTIZ_charged_sbu_0, # of connection points: 8
#     Edge 3, Type (0, 0), BuildingBlock: UVAHIK_clean_linker_0, # of connection points: 2
#     Edge 4, Type (0, 0), BuildingBlock: UVAHIK_clean_linker_0, # of connection points: 2
#     Edge 5, Type (0, 0), BuildingBlock: UVAHIK_clean_linker_0, # of connection points: 2
#     Edge 6, Type (0, 0), BuildingBlock: UVAHIK_clean_linker_0, # of connection points: 2
#     Edge 7, Type (0, 0), BuildingBlock: UVAHIK_clean_linker_0, # of connection points: 2
#     Edge 8, Type (0, 0), BuildingBlock: UVAHIK_clean_linker_0, # of connection points: 2
#     Edge 9, Type (0, 0), BuildingBlock: UVAHIK_clean_linker_0, # of connection points: 2
#     Edge 10, Type (0, 0), BuildingBlock: UVAHIK_clean_linker_0, # of connection points: 2
#     Edge 11, Type (0, 0), BuildingBlock: UVAHIK_clean_linker_0, # of connection points: 2
#     Edge 12, Type (0, 0), BuildingBlock: UVAHIK_clean_linker_0, # of connection points: 2
#     Edge 13, Type (0, 0), BuildingBlock: UVAHIK_clean_linker_0, # of connection points: 2
#     Edge 14, Type (0, 0), BuildingBlock: UVAHIK_clean_linker_0, # of connection points: 2
# Relax obj value: 0.145
# Max RMSD: 0.165
# Mean RMSD: 0.165
data_MOF--net-reo--node1-VETTIZ_charged_sbu_0--edge1-UVAHIK_clean_linker_0
_symmetry_space_group_name_H-M    P1
_symmetry_Int_Tables_number       1
_symmetry_cell_setting            triclinic
loop_
_symmetry_equiv_pos_as_xyz
'x, y, z'
_cell_length_a     29.780887
_cell_length_b     29.731896
_cell_length_c     29.66706
_cell_angle_alpha  89.580307
_cell_angle_beta   89.706768
_cell_angle_gamma 89.646057
loop_
_atom_site_label
_atom_site_type_symbol
_atom_site_fract_x
_atom_site_fract_y
_atom_site_fract_z
_atom_type_partial_charge
Fe0 Fe 0.00552 0.00692 0.45016 0.0
O1 O 0.95699 0.01594 0.49592 0.0
Fe2 Fe 0.06816 0.91891 0.49733 0.0
Fe3 Fe 0.92563 0.0734 0.50468 0.0
O4 O 0.03896 0.97841 0.50133 0.0
O5 O 0.03807 0.97727 0.50554 0.0
O6 O 0.95617 0.01491 0.50007 0.0
Fe7 Fe 0.98952 0.98655 0.55123 0.0
C8 C 0.0134 0.1054 0.45902 0.0
O9 O 0.9627 0.03687 0.40219 0.0
O10 O 0.8993 0.05706 0.44277 0.0
O11 O 0.96086 0.92592 0.53686 0.0
O12 O 0.02212 0.88323 0.5353 0.0
O13 O 0.03537 0.90035 0.4393 0.0
O14 O 0.97709 0.94721 0.43285 0.0
O15 O 0.88323 0.03585 0.54525 0.0
O16 O 0.9331 -0.00112 0.59235 0.0
C17 C -0.00262 0.91104 0.42279 0.0
O18 O 0.0323 0.95657 0.59927 0.0
O19 O 0.09539 0.93567 0.55862 0.0
O20 O 0.0337 0.06799 0.46408 0.0
O21 O 0.97175 0.11009 0.46792 0.0
C22 C 0.9205 0.04875 0.40523 0.0
C23 C 0.89284 0.01183 0.58076 0.0
C24 C 0.99636 0.08214 0.57907 0.0
O25 O 0.95772 0.09163 0.56328 0.0
O26 O 0.01754 0.04652 0.56865 0.0
C27 C 0.98042 0.88846 0.54337 0.0
O28 O 0.11064 0.9546 0.45558 0.0
O29 O 0.0622 0.99415 0.40911 0.0
C30 C 0.07445 0.94454 0.59616 0.0
C31 C 0.10188 0.97849 0.41976 0.0
Fe32 Fe 0.44936 0.00392 0.01452 0.0
O33 O 0.49595 0.95538 0.01055 0.0
Fe34 Fe 0.48764 0.08303 0.93657 0.0
Fe35 Fe 0.51054 0.91496 0.06126 0.0
O36 O 0.49729 0.04289 0.98833 0.0
O37 O 0.50145 0.04254 0.98721 0.0
O38 O 0.50028 0.955 0.00934 0.0
Fe39 Fe 0.54836 0.99443 0.9838 0.0
C40 C 0.46699 0.99486 0.11166 0.0
O41 O 0.4049 0.95562 0.04106 0.0
O42 O 0.44769 0.89053 0.04689 0.0
O43 O 0.52929 0.97726 0.9199 0.0
O44 O 0.52243 0.0454 0.88969 0.0
O45 O 0.42834 0.05337 0.91741 0.0
O46 O 0.4264 0.98675 0.95203 0.0
O47 O 0.54778 0.88059 0.01358 0.0
O48 O 0.59099 0.93752 0.98262 0.0
C49 C 0.41272 0.01378 0.92168 0.0
O50 O 0.59302 0.04338 0.95829 0.0
O51 O 0.5495 0.10784 0.95317 0.0
O52 O 0.4697 0.02112 0.07787 0.0
O53 O 0.47695 0.95325 0.10871 0.0
C54 C 0.40965 0.91229 0.0468 0.0
C55 C 0.58142 0.89524 0.98961 0.0
C56 C 0.58506 0.98408 0.07611 0.0
O57 O 0.57049 0.94403 0.07915 0.0
O58 O 0.57028 0.01161 0.04676 0.0
C59 C 0.53215 0.0038 0.88631 0.0
O60 O 0.44963 0.11713 0.98333 0.0
O61 O 0.40692 0.06113 0.0162 0.0
C62 C 0.58794 0.08693 0.95461 0.0
C63 C 0.41613 0.10328 0.00785 0.0
Fe64 Fe 0.01073 0.45004 0.00211 0.0
O65 O 0.98229 0.49718 0.04068 0.0
Fe66 Fe 0.06707 0.5123 0.92062 0.0
Fe67 Fe 0.9266 0.48785 0.07506 0.0
O68 O 0.01255 0.49884 0.95557 0.0
O69 O 0.01147 0.50321 0.95527 0.0
O70 O 0.9813 0.50149 0.04043 0.0
Fe71 Fe 0.98371 0.55051 0.99418 0.0
C72 C 0.91638 0.41702 0.00067 0.0
O73 O 0.00618 0.40522 0.05747 0.0
O74 O 0.96842 0.44623 0.11172 0.0
O75 O 0.04501 0.57008 0.01823 0.0
O76 O 0.08562 0.56893 0.95495 0.0
O77 O 0.10896 0.47374 0.96113 0.0
O78 O 0.07229 0.46776 0.02604 0.0
O79 O 0.94286 0.54781 0.10455 0.0
O80 O 0.95504 0.59389 0.04264 0.0
C81 C 0.10788 0.46332 0.00286 0.0
O82 O 0.98861 0.59534 0.93914 0.0
O83 O 0.02514 0.55426 0.8841 0.0
O84 O 0.9502 0.42973 0.97795 0.0
O85 O 0.90811 0.43111 0.04029 0.0
C86 C 0.99414 0.41312 0.09908 0.0
C87 C 0.9475 0.58709 0.08559 0.0
C88 C 0.88591 0.53761 0.99328 0.0
O89 O 0.88492 0.5265 0.0348 0.0
O90 O 0.92162 0.53401 0.97006 0.0
C91 C 0.07887 0.58225 0.99507 0.0
O92 O 0.05071 0.45218 0.89144 0.0
O93 O 0.03985 0.40661 0.95393 0.0
C94 C 9e-05 0.5877 0.89734 0.0
C95 C 0.04669 0.41302 0.91082 0.0
C96 C 0.02846 0.33988 0.12694 0.0
C97 C 0.0102 0.38276 0.13563 0.0
C98 C 0.03955 0.31075 0.16279 0.0
C99 C 0.00323 0.28959 0.27842 0.0
H100 H 0.11146 0.21808 0.29366 0.0
C101 C 0.0218 0.18583 0.43746 0.0
C102 C 0.03447 0.14082 0.43122 0.0
C103 C 0.02972 0.21771 0.40365 0.0
C104 C 0.08098 0.23774 0.28973 0.0
H105 H 0.99301 0.42983 0.18892 0.0
H106 H 0.01204 0.37952 0.25031 0.0
H107 H 0.10356 0.26745 0.22727 0.0
H108 H 0.0688 0.09448 0.38658 0.0
H109 H 0.08146 0.1498 0.32681 0.0
H110 H 0.97962 0.25972 0.33938 0.0
C111 C 0.01684 0.36789 0.21608 0.0
C112 C 0.07647 0.26582 0.25172 0.0
C113 C 0.00583 0.3967 0.18068 0.0
C114 C 0.05898 0.12909 0.39238 0.0
C115 C 0.06612 0.16084 0.35803 0.0
C116 C 0.00754 0.26159 0.31593 0.0
C117 C 0.03253 0.32419 0.20767 0.0
C118 C 0.03768 0.2924 0.2461 0.0
C119 C 0.04937 0.20496 0.36235 0.0
C120 C 0.04663 0.23566 0.32253 0.0
H121 H 0.03273 0.3283 0.09265 0.0
H122 H 0.05173 0.27718 0.15543 0.0
H123 H 0.9725 0.3089 0.27448 0.0
H124 H 0.00314 0.19576 0.46727 0.0
H125 H 0.01781 0.25179 0.40876 0.0
C126 C 0.85065 0.07131 0.36423 0.0
C127 C 0.89398 0.05223 0.3632 0.0
C128 C 0.82359 0.07108 0.32606 0.0
C129 C 0.77653 0.08029 0.23648 0.0
H130 H 0.76975 0.96431 0.17818 0.0
C131 C 0.64431 0.03913 0.09946 0.0
C132 C 0.62303 0.99731 0.10512 0.0
C133 C 0.68185 0.04998 0.12534 0.0
C134 C 0.77132 0.99695 0.19406 0.0
H135 H 0.94364 0.02001 0.32023 0.0
H136 H 0.89608 0.01951 0.25335 0.0
H137 H 0.82872 0.97789 0.23286 0.0
H138 H 0.62416 0.93455 0.14305 0.0
H139 H 0.68887 0.95368 0.18819 0.0
H140 H 0.7176 0.09843 0.19929 0.0
C141 C 0.88306 0.03427 0.28406 0.0
C142 C 0.80548 0.00494 0.22496 0.0
C143 C 0.91034 0.03469 0.32234 0.0
C144 C 0.63975 0.96696 0.13756 0.0
C145 C 0.67718 0.97774 0.16322 0.0
C146 C 0.74232 0.07228 0.20552 0.0
C147 C 0.83907 0.05173 0.2858 0.0
C148 C 0.80768 0.04623 0.24753 0.0
C149 C 0.69892 0.01915 0.15717 0.0
C150 C 0.73856 0.03002 0.18507 0.0
H151 H 0.83698 0.08552 0.39493 0.0
H152 H 0.78972 0.08429 0.3288 0.0
H153 H 0.77773 0.11269 0.25288 0.0
H154 H 0.63243 0.06322 0.07461 0.0
H155 H 0.69797 0.08213 0.1199 0.0
C156 C 0.98685 0.8359 0.38789 0.0
C157 C 0.97817 0.88231 0.38768 0.0
C158 C 0.9718 0.8092 0.35267 0.0
C159 C 0.95654 0.80895 0.23496 0.0
H160 H 0.8876 0.70053 0.2558 0.0
C161 C 0.93747 0.67035 0.09895 0.0
C162 C 0.94324 0.62634 0.11578 0.0
C163 C 0.93242 0.70655 0.12865 0.0
C164 C 0.90694 0.73066 0.24936 0.0
H165 H 0.94662 0.93731 0.35095 0.0
H166 H 0.92171 0.89045 0.2882 0.0
H167 H 0.89556 0.75502 0.31627 0.0
H168 H 0.9494 0.58624 0.17706 0.0
H169 H 0.94179 0.64859 0.22791 0.0
H170 H 0.97096 0.78309 0.16923 0.0
C171 C 0.93941 0.87491 0.31613 0.0
C172 C 0.91114 0.76187 0.28387 0.0
C173 C 0.95349 0.9015 0.352 0.0
C174 C 0.94436 0.61948 0.16268 0.0
C175 C 0.93956 0.65535 0.19207 0.0
C176 C 0.953 0.77727 0.20054 0.0
C177 C 0.94872 0.82863 0.3162 0.0
C178 C 0.93712 0.80049 0.27736 0.0
C179 C 0.93314 0.69929 0.17559 0.0
C180 C 0.9296 0.73694 0.20805 0.0
H181 H 0.0057 0.82034 0.41505 0.0
H182 H 0.97956 0.77354 0.35311 0.0
H183 H 0.97691 0.83857 0.22943 0.0
H184 H 0.93638 0.67676 0.06299 0.0
H185 H 0.92758 0.74007 0.11492 0.0
C186 C 0.40619 0.04194 0.14606 0.0
C187 C 0.4403 0.00934 0.15116 0.0
C188 C 0.37239 0.04626 0.17868 0.0
C189 C 0.31778 0.97335 0.26273 0.0
H190 H 0.24904 0.08008 0.29366 0.0
C191 C 0.18275 0.96863 0.39907 0.0
C192 C 0.1405 0.98771 0.38924 0.0
C193 C 0.21947 0.97607 0.37092 0.0
C194 C 0.2678 0.05004 0.2849 0.0
H195 H 0.46884 0.95972 0.19669 0.0
H196 H 0.41118 0.96867 0.2545 0.0
H197 H 0.31656 0.08702 0.24638 0.0
H198 H 0.10439 0.03061 0.34208 0.0
H199 H 0.16935 0.04369 0.29253 0.0
H200 H 0.26948 0.93637 0.30108 0.0
C201 C 0.40932 0.98951 0.22446 0.0
C202 C 0.30648 0.05397 0.25801 0.0
C203 C 0.44267 0.9847 0.1916 0.0
C204 C 0.13632 0.01528 0.35067 0.0
C205 C 0.1735 0.02299 0.32243 0.0
C206 C 0.27955 0.96951 0.28962 0.0
C207 C 0.37244 0.01847 0.21723 0.0
C208 C 0.33214 0.01562 0.24696 0.0
C209 C 0.21525 0.00286 0.33208 0.0
C210 C 0.25434 0.00775 0.30134 0.0
H211 H 0.40333 0.06142 0.11519 0.0
H212 H 0.3446 0.06896 0.172 0.0
H213 H 0.33568 0.94288 0.25368 0.0
H214 H 0.18771 0.94745 0.4285 0.0
H215 H 0.25138 0.96066 0.37957 0.0
C216 C 0.925 0.86588 0.60294 0.0
C217 C 0.95765 0.85362 0.57075 0.0
C218 C 0.91228 0.83552 0.63687 0.0
C219 C 0.92077 0.71637 0.67456 0.0
H220 H 0.94513 0.76686 0.79209 0.0
C221 C 0.99594 0.6115 0.81645 0.0
C222 C 0.98307 0.61851 0.86156 0.0
C223 C 0.97978 0.63923 0.78211 0.0
C224 C 0.93712 0.7523 0.75977 0.0
H225 H -0.00086 0.79886 0.54617 0.0
H226 H 0.97639 0.74575 0.60463 0.0
H227 H 0.93667 0.81667 0.72694 0.0
H228 H 0.94239 0.6604 0.90561 0.0
H229 H 0.91431 0.70939 0.84509 0.0
H230 H 0.92312 0.65191 0.70697 0.0
C231 C 0.96085 0.77879 0.60405 0.0
C232 C 0.93221 0.78086 0.7224 0.0
C233 C 0.97404 0.80926 0.57061 0.0
C234 C 0.95331 0.65417 0.87133 0.0
C235 C 0.93715 0.68219 0.83669 0.0
C236 C 0.92547 0.68788 0.71189 0.0
C237 C 0.93135 0.79219 0.63866 0.0
C238 C 0.92584 0.76303 0.67912 0.0
C239 C 0.95019 0.67488 0.79166 0.0
C240 C 0.93568 0.70541 0.75453 0.0
H241 H 0.91184 0.89991 0.60404 0.0
H242 H 0.88919 0.84659 0.6629 0.0
H243 H 0.9152 0.70176 0.64173 0.0
H244 H 0.01882 0.58457 0.80734 0.0
H245 H 0.99139 0.63325 0.74799 0.0
C246 C 0.3528 0.95912 0.89944 0.0
C247 C 0.37484 0.00038 0.89265 0.0
C248 C 0.31516 0.94817 0.8738 0.0
C249 C 0.22668 0.00066 0.80359 0.0
H250 H 0.21769 0.88301 0.74904 0.0
C251 C 0.14427 0.92193 0.63709 0.0
C252 C 0.10123 0.94164 0.63803 0.0
C253 C 0.17176 0.92295 0.67492 0.0
C254 C 0.21962 0.91594 0.76425 0.0
H255 H 0.375 0.06201 0.85289 0.0
H256 H 0.31007 0.04265 0.80805 0.0
H257 H 0.27855 0.89809 0.80155 0.0
H258 H 0.05245 0.97577 0.68052 0.0
H259 H 0.1008 0.97769 0.74679 0.0
H260 H 0.1692 0.01931 0.76469 0.0
C261 C 0.32128 0.01914 0.83376 0.0
C262 C 0.25425 0.92445 0.79458 0.0
C263 C 0.35882 0.03004 0.85922 0.0
C264 C 0.08553 0.96057 0.6785 0.0
C265 C 0.11325 0.96181 0.71642 0.0
C266 C 0.19207 0.99216 0.77334 0.0
C267 C 0.29876 0.97833 0.84101 0.0
C268 C 0.2589 0.96733 0.81351 0.0
C269 C 0.157 0.94376 0.7147 0.0
C270 C 0.18893 0.95012 0.75234 0.0
H271 H 0.36413 0.93554 0.92503 0.0
H272 H 0.29842 0.91651 0.8802 0.0
H273 H 0.22894 0.0338 0.81831 0.0
H274 H 0.15741 0.90664 0.60669 0.0
H275 H 0.20543 0.90922 0.67222 0.0
C276 C 0.04932 0.37971 0.83404 0.0
C277 C 0.05082 0.37343 0.88101 0.0
C278 C 0.05372 0.34343 0.80506 0.0
C279 C 0.04037 0.2211 0.79855 0.0
H280 H 0.09635 0.24158 0.6818 0.0
C281 C 0.04047 0.09359 0.64951 0.0
C282 C 0.01528 0.1117 0.61365 0.0
C283 C 0.05429 0.12112 0.68481 0.0
C284 C 0.08117 0.23524 0.71449 0.0
H285 H 0.05801 0.32362 0.93434 0.0
H286 H 0.06622 0.25968 0.88316 0.0
H287 H 0.10441 0.29737 0.74105 0.0
H288 H 0.98654 0.1727 0.58535 0.0
H289 H 0.01223 0.2211 0.64621 0.0
H290 H 0.01684 0.15893 0.77119 0.0
C291 C 0.06132 0.29302 0.86903 0.0
C292 C 0.0854 0.26721 0.74831 0.0
C293 C 0.05664 0.32961 0.89831 0.0
C294 C 0.00578 0.15796 0.61267 0.0
C295 C 0.02057 0.18558 0.64729 0.0
C296 C 0.03681 0.18867 0.76483 0.0
C297 C 0.06014 0.29966 0.82201 0.0
C298 C 0.06331 0.26152 0.79002 0.0
C299 C 0.04421 0.16725 0.68395 0.0
C300 C 0.05574 0.19642 0.72207 0.0
H301 H 0.04425 0.41279 0.81931 0.0
H302 H 0.05117 0.34976 0.76916 0.0
H303 H 0.02283 0.21569 0.83017 0.0
H304 H 0.04796 0.05793 0.65112 0.0
H305 H 0.07245 0.10641 0.71289 0.0
C306 C 0.58082 0.94789 0.84537 0.0
C307 C 0.55696 0.98891 0.84558 0.0
C308 C 0.61245 0.93892 0.81146 0.0
C309 C 0.70082 0.94779 0.76066 0.0
H310 H 0.69231 0.00062 0.64129 0.0
C311 C 0.85792 0.99545 0.65618 0.0
C312 C 0.85463 0.99743 0.60907 0.0
C313 C 0.82015 0.98505 0.6825 0.0
C314 C 0.69539 0.98473 0.67407 0.0
H315 H 0.54492 0.05078 0.8082 0.0
H316 H 0.60015 0.0358 0.75026 0.0
H317 H 0.62584 0.99579 0.68809 0.0
H318 H 0.81071 0.98665 0.55225 0.0
H319 H 0.74578 0.9662 0.59761 0.0
H320 H 0.77024 0.93564 0.74609 0.0
C321 C 0.59451 0.01017 0.77573 0.0
C322 C 0.65713 0.98262 0.70131 0.0
C323 C 0.56283 0.01897 0.80931 0.0
C324 C 0.81382 0.98638 0.58863 0.0
C325 C 0.7765 0.97488 0.61474 0.0
C326 C 0.73903 0.94916 0.73305 0.0
C327 C 0.62088 0.97076 0.77715 0.0
C328 C 0.65959 0.96555 0.74553 0.0
C329 C 0.77864 0.97536 0.6621 0.0
C330 C 0.73715 0.96885 0.68981 0.0
H331 H 0.57704 0.92383 0.8727 0.0
H332 H 0.63143 0.90777 0.8131 0.0
H333 H 0.70423 0.93464 0.79461 0.0
H334 H 0.88912 0.00373 0.67271 0.0
H335 H 0.82322 0.98633 0.7188 0.0
C336 C 0.13468 0.40045 0.05243 0.0
C337 C 0.14438 0.43461 0.02084 0.0
C338 C 0.16579 0.36602 0.06086 0.0
C339 C 0.26051 0.31122 0.00159 0.0
H340 H 0.27311 0.24179 0.11213 0.0
C341 C 0.40034 0.18391 0.02414 0.0
C342 C 0.38565 0.13899 0.0249 0.0
C343 C 0.37057 0.21906 0.03262 0.0
C344 C 0.26946 0.26085 0.0811 0.0
H345 H 0.19581 0.46228 0.97712 0.0
H346 H 0.25107 0.40382 0.99366 0.0
H347 H 0.22462 0.30899 0.11101 0.0
H348 H 0.32884 0.09575 0.03925 0.0
H349 H 0.2763 0.15819 0.05444 0.0
H350 H 0.30618 0.26394 0.97213 0.0
C351 C 0.21867 0.40221 0.0103 0.0
C352 C 0.24184 0.29925 0.08034 0.0
C353 C 0.18726 0.43607 0.00118 0.0
C354 C 0.34111 0.12996 0.03808 0.0
C355 C 0.31113 0.16553 0.04687 0.0
C356 C 0.28834 0.27347 0.00257 0.0
C357 C 0.2075 0.3655 0.03841 0.0
C358 C 0.23737 0.32516 0.04057 0.0
C359 C 0.32549 0.21029 0.04259 0.0
C360 C 0.29326 0.24815 0.04227 0.0
H361 H 0.10182 0.39829 0.06807 0.0
H362 H 0.15589 0.33843 0.08268 0.0
H363 H 0.25684 0.32918 0.96993 0.0
H364 H 0.4346 0.19223 0.0151 0.0
H365 H 0.38234 0.25338 0.02948 0.0
C366 C 0.0975 0.64491 0.04808 0.0
C367 C 0.11062 0.61498 0.01388 0.0
C368 C 0.12686 0.67851 0.06236 0.0
C369 C 0.18618 0.7636 0.05709 0.0
H370 H 0.3126 0.73479 0.07004 0.0
C371 C 0.32932 0.89255 0.03232 0.0
C372 C 0.36938 0.88524 0.056 0.0
C373 C 0.29358 0.86248 0.03736 0.0
C374 C 0.27737 0.7436 0.06745 0.0
H375 H 0.16514 0.5956 0.96914 0.0
H376 H 0.21608 0.65359 0.99414 0.0
H377 H 0.25881 0.67458 0.062 0.0
H378 H 0.40226 0.84395 0.10663 0.0
H379 H 0.33968 0.79266 0.11666 0.0
H380 H 0.2051 0.83291 0.06188 0.0
C381 C 0.1833 0.65131 0.00996 0.0
C382 C 0.2466 0.70898 0.06236 0.0
C383 C 0.15398 0.61826 0.99541 0.0
C384 C 0.37201 0.84964 0.08719 0.0
C385 C 0.3362 0.82023 0.09284 0.0
C386 C 0.21712 0.79846 0.06224 0.0
C387 C 0.16996 0.6821 0.04317 0.0
C388 C 0.20091 0.71862 0.05587 0.0
C389 C 0.29726 0.82515 0.06669 0.0
C390 C 0.26322 0.78882 0.0665 0.0
H391 H 0.06415 0.64326 0.06276 0.0
H392 H 0.11587 0.70177 0.08815 0.0
H393 H 0.15112 0.77196 0.05195 0.0
H394 H 0.32655 0.91994 0.00818 0.0
H395 H 0.26415 0.86713 0.01651 0.0
C396 C 0.67089 0.09777 0.94037 0.0
C397 C 0.6282 0.11564 0.95059 0.0
C398 C 0.70776 0.12642 0.93446 0.0
C399 C 0.73362 0.24663 0.91198 0.0
H400 H 0.84445 0.22339 0.97629 0.0
C401 C 0.84174 0.38067 0.9935 0.0
C402 C 0.88741 0.38202 0.98185 0.0
C403 C 0.81485 0.34578 0.97831 0.0
C404 C 0.81402 0.22981 0.95739 0.0
H405 H 0.59135 0.17747 0.96431 0.0
H406 H 0.65486 0.22643 0.95483 0.0
H407 H 0.78802 0.164 0.97106 0.0
H408 H 0.94096 0.3483 0.94516 0.0
H409 H 0.89374 0.28597 0.91989 0.0
H410 H 0.7581 0.31349 0.90152 0.0
C411 C 0.65992 0.19069 0.94988 0.0
C412 C 0.78183 0.19589 0.95429 0.0
C413 C 0.62344 0.16238 0.9557 0.0
C414 C 0.90568 0.34813 0.95429 0.0
C415 C 0.87892 0.31252 0.94002 0.0
C416 C 0.7654 0.28055 0.91565 0.0
C417 C 0.70235 0.17327 0.93859 0.0
C418 C 0.74048 0.20471 0.93326 0.0
C419 C 0.83339 0.31115 0.95209 0.0
C420 C 0.80503 0.27285 0.93976 0.0
H421 H 0.67566 0.06189 0.93621 0.0
H422 H 0.74022 0.11207 0.92605 0.0
H423 H 0.70253 0.25402 0.89456 0.0
H424 H 0.82692 0.40644 0.01461 0.0
H425 H 0.77978 0.34505 0.98821 0.0
C426 C 0.85269 0.58972 0.93504 0.0
C427 C 0.84787 0.56435 0.97501 0.0
C428 C 0.82055 0.62223 0.92318 0.0
C429 C 0.7689 0.71078 0.92883 0.0
H430 H 0.6441 0.69976 0.96435 0.0
C431 C 0.6582 0.86427 0.97387 0.0
C432 C 0.61142 0.8606 0.97054 0.0
C433 C 0.68593 0.82779 0.96254 0.0
C434 C 0.67854 0.70358 0.95321 0.0
H435 H 0.80375 0.55096 0.03189 0.0
H436 H 0.7485 0.60751 0.01179 0.0
H437 H 0.69169 0.63359 0.96357 0.0
H438 H 0.55697 0.81805 0.94905 0.0
H439 H 0.60512 0.75554 0.92683 0.0
H440 H 0.75545 0.7808 0.91781 0.0
C441 C 0.77673 0.60238 0.98922 0.0
C442 C 0.70612 0.66548 0.95347 0.0
C443 C 0.80869 0.56996 0.00098 0.0
C444 C 0.593 0.82134 0.95258 0.0
C445 C 0.62065 0.78539 0.94022 0.0
C446 C 0.74107 0.74892 0.92795 0.0
C447 C 0.78285 0.62993 0.95094 0.0
C448 C 0.75201 0.66879 0.94282 0.0
C449 C 0.66737 0.78731 0.94678 0.0
C450 C 0.69579 0.7461 0.94144 0.0
H451 H 0.88241 0.58621 0.91412 0.0
H452 H 0.82598 0.64227 0.89303 0.0
H453 H 0.80412 0.71477 0.9206 0.0
H454 H 0.67312 0.89422 0.98781 0.0
H455 H 0.72162 0.83062 0.96851 0.0
loop_
_geom_bond_atom_site_label_1
_geom_bond_atom_site_label_2
_geom_bond_distance
_geom_bond_site_symmetry_2
_ccdc_geom_bond_type
Fe0 O1 1.906 . S
Fe0 O4 1.694 1_645 S
Fe0 O9 2.097 1_545 S
Fe0 O14 1.922 1_545 S
Fe0 O20 2.094 1_655 S
Fe0 O29 1.918 1_655 S
O1 Fe0 1.906 . S
O1 Fe3 1.715 . S
Fe2 O4 1.886 . S
Fe2 O5 1.715 . S
Fe2 O12 1.935 . S
Fe2 O13 2.077 . S
Fe2 O19 1.935 . S
Fe2 O28 2.077 . S
Fe3 O1 1.715 . S
Fe3 O6 1.886 . S
Fe3 O10 1.935 . S
Fe3 O15 2.077 . S
Fe3 O21 1.935 . S
Fe3 O25 2.077 . S
O4 Fe0 1.694 1_465 S
O4 Fe2 1.886 . S
O5 Fe2 1.715 . S
O5 Fe7 1.892 . S
O6 Fe3 1.886 . S
O6 Fe7 1.709 1_645 S
Fe7 O5 1.892 . S
Fe7 O6 1.709 1_465 S
Fe7 O11 2.089 1_455 S
Fe7 O16 1.937 1_455 S
Fe7 O18 2.077 1_565 S
Fe7 O26 1.923 1_565 S
C8 O20 1.381 1_655 S
C8 O21 1.421 . S
O9 Fe0 2.097 1_565 S
O9 C22 1.381 1_565 S
O10 Fe3 1.935 . S
O10 C22 1.421 . S
O11 Fe7 2.089 1_655 S
O11 C27 1.381 1_655 S
O12 Fe2 1.935 . S
O12 C27 1.421 . S
O13 Fe2 2.077 . S
O13 C17 1.381 . S
O14 Fe0 1.922 1_565 S
O14 C17 1.421 1_655 S
O15 Fe3 2.077 . S
O15 C23 1.381 . S
O16 Fe7 1.937 1_655 S
O16 C23 1.421 1_565 S
C17 O13 1.381 . S
C17 O14 1.421 1_455 S
O18 Fe7 2.077 1_545 S
O18 C30 1.381 1_545 S
O19 Fe2 1.935 . S
O19 C30 1.421 . S
O20 Fe0 2.094 1_455 S
O20 C8 1.381 1_455 S
O21 Fe3 1.935 . S
O21 C8 1.421 . S
C22 O9 1.381 1_545 S
C22 O10 1.421 . S
C23 O15 1.381 . S
C23 O16 1.421 1_545 S
C24 O25 1.381 . S
C24 O26 1.421 1_655 S
O25 Fe3 2.077 . S
O25 C24 1.381 . S
O26 Fe7 1.923 1_545 S
O26 C24 1.421 1_455 S
C27 O11 1.381 1_455 S
C27 O12 1.421 . S
O28 Fe2 2.077 . S
O28 C31 1.381 . S
O29 Fe0 1.918 1_455 S
O29 C31 1.421 1_545 S
C30 O18 1.381 1_565 S
C30 O19 1.421 . S
C31 O28 1.381 . S
C31 O29 1.421 1_565 S
Fe32 O33 1.906 . S
Fe32 O36 1.694 1_564 S
Fe32 O41 2.097 1_554 S
Fe32 O46 1.922 1_554 S
Fe32 O52 2.094 1_565 S
Fe32 O61 1.918 1_565 S
O33 Fe32 1.906 . S
O33 Fe35 1.715 . S
Fe34 O36 1.886 . S
Fe34 O37 1.715 . S
Fe34 O44 1.935 . S
Fe34 O45 2.077 . S
Fe34 O51 1.935 . S
Fe34 O60 2.077 . S
Fe35 O33 1.715 . S
Fe35 O38 1.886 . S
Fe35 O42 1.935 . S
Fe35 O47 2.077 . S
Fe35 O53 1.935 . S
Fe35 O57 2.077 . S
O36 Fe32 1.694 1_546 S
O36 Fe34 1.886 . S
O37 Fe34 1.715 . S
O37 Fe39 1.892 . S
O38 Fe35 1.886 . S
O38 Fe39 1.709 1_564 S
Fe39 O37 1.892 . S
Fe39 O38 1.709 1_546 S
Fe39 O43 2.089 1_545 S
Fe39 O48 1.937 1_545 S
Fe39 O50 2.077 1_556 S
Fe39 O58 1.923 1_556 S
C40 O52 1.381 1_565 S
C40 O53 1.421 . S
O41 Fe32 2.097 1_556 S
O41 C54 1.381 1_556 S
O42 Fe35 1.935 . S
O42 C54 1.421 . S
O43 Fe39 2.089 1_565 S
O43 C59 1.381 1_565 S
O44 Fe34 1.935 . S
O44 C59 1.421 . S
O45 Fe34 2.077 . S
O45 C49 1.381 . S
O46 Fe32 1.922 1_556 S
O46 C49 1.421 1_565 S
O47 Fe35 2.077 . S
O47 C55 1.381 . S
O48 Fe39 1.937 1_565 S
O48 C55 1.421 1_556 S
C49 O45 1.381 . S
C49 O46 1.421 1_545 S
O50 Fe39 2.077 1_554 S
O50 C62 1.381 1_554 S
O51 Fe34 1.935 . S
O51 C62 1.421 . S
O52 Fe32 2.094 1_545 S
O52 C40 1.381 1_545 S
O53 Fe35 1.935 . S
O53 C40 1.421 . S
C54 O41 1.381 1_554 S
C54 O42 1.421 . S
C55 O47 1.381 . S
C55 O48 1.421 1_554 S
C56 O57 1.381 . S
C56 O58 1.421 1_565 S
O57 Fe35 2.077 . S
O57 C56 1.381 . S
O58 Fe39 1.923 1_554 S
O58 C56 1.421 1_545 S
C59 O43 1.381 1_545 S
C59 O44 1.421 . S
O60 Fe34 2.077 . S
O60 C63 1.381 . S
O61 Fe32 1.918 1_545 S
O61 C63 1.421 1_554 S
C62 O50 1.381 1_556 S
C62 O51 1.421 . S
C63 O60 1.381 . S
C63 O61 1.421 1_556 S
Fe64 O65 1.906 . S
Fe64 O68 1.694 1_654 S
Fe64 O73 2.094 1_655 S
Fe64 O78 1.918 1_655 S
Fe64 O84 2.097 1_554 S
Fe64 O93 1.922 1_554 S
O65 Fe64 1.906 . S
O65 Fe67 1.715 . S
Fe66 O68 1.886 . S
Fe66 O69 1.715 . S
Fe66 O76 1.935 . S
Fe66 O77 2.077 . S
Fe66 O83 1.935 . S
Fe66 O92 2.077 . S
Fe67 O65 1.715 . S
Fe67 O70 1.886 . S
Fe67 O74 1.935 . S
Fe67 O79 2.077 . S
Fe67 O85 1.935 . S
Fe67 O89 2.077 . S
O68 Fe64 1.694 1_456 S
O68 Fe66 1.886 . S
O69 Fe66 1.715 . S
O69 Fe71 1.892 . S
O70 Fe67 1.886 . S
O70 Fe71 1.709 1_654 S
Fe71 O69 1.892 . S
Fe71 O70 1.709 1_456 S
Fe71 O75 2.077 1_556 S
Fe71 O80 1.923 1_556 S
Fe71 O82 2.089 1_455 S
Fe71 O90 1.937 1_455 S
C72 O84 1.381 1_554 S
C72 O85 1.421 . S
O73 Fe64 2.094 1_455 S
O73 C86 1.381 1_455 S
O74 Fe67 1.935 . S
O74 C86 1.421 . S
O75 Fe71 2.077 1_554 S
O75 C91 1.381 1_554 S
O76 Fe66 1.935 . S
O76 C91 1.421 . S
O77 Fe66 2.077 . S
O77 C81 1.381 . S
O78 Fe64 1.918 1_455 S
O78 C81 1.421 1_554 S
O79 Fe67 2.077 . S
O79 C87 1.381 . S
O80 Fe71 1.923 1_554 S
O80 C87 1.421 1_455 S
C81 O77 1.381 . S
C81 O78 1.421 1_556 S
O82 Fe71 2.089 1_655 S
O82 C94 1.381 1_655 S
O83 Fe66 1.935 . S
O83 C94 1.421 . S
O84 Fe64 2.097 1_556 S
O84 C72 1.381 1_556 S
O85 Fe67 1.935 . S
O85 C72 1.421 . S
C86 O73 1.381 1_655 S
C86 O74 1.421 . S
C87 O79 1.381 . S
C87 O80 1.421 1_655 S
C88 O89 1.381 . S
C88 O90 1.421 1_554 S
O89 Fe67 2.077 . S
O89 C88 1.381 . S
O90 Fe71 1.937 1_655 S
O90 C88 1.421 1_556 S
C91 O75 1.381 1_556 S
C91 O76 1.421 . S
O92 Fe66 2.077 . S
O92 C95 1.381 . S
O93 Fe64 1.922 1_556 S
O93 C95 1.421 1_655 S
C94 O82 1.381 1_455 S
C94 O83 1.421 . S
C95 O92 1.381 . S
C95 O93 1.421 1_455 S
C96 C97 1.349 1_455 S
C96 C98 1.327 . S
C96 H121 0.950 . S
C97 C96 1.349 1_655 S
C97 C113 1.349 . S
C98 C96 1.327 . S
C98 C117 1.429 1_455 S
C98 H122 0.950 . S
C99 C116 1.574 . S
C99 C118 1.368 . S
C99 H123 0.949 . S
H100 C104 0.949 . S
C101 C102 1.349 . S
C101 C103 1.327 . S
C101 H124 0.950 . S
C102 C101 1.349 . S
C102 C114 1.349 1_655 S
C103 C101 1.327 . S
C103 C119 1.429 . S
C103 H125 0.950 . S
C104 H100 0.949 . S
C104 C112 1.574 . S
C104 C120 1.368 1_455 S
H105 C113 0.950 . S
H106 C111 0.950 . S
H107 C112 0.949 . S
H108 C114 0.950 . S
H109 C115 0.950 . S
H110 C116 0.949 . S
C111 H106 0.950 . S
C111 C113 1.327 . S
C111 C117 1.429 . S
C112 C104 1.574 . S
C112 H107 0.949 . S
C112 C118 1.368 1_455 S
C113 C97 1.349 . S
C113 H105 0.950 . S
C113 C111 1.327 . S
C114 C102 1.349 1_455 S
C114 H108 0.950 . S
C114 C115 1.327 . S
C115 H109 0.950 . S
C115 C114 1.327 . S
C115 C119 1.429 1_455 S
C116 C99 1.574 . S
C116 H110 0.949 . S
C116 C120 1.368 . S
C117 C98 1.429 1_655 S
C117 C111 1.429 . S
C117 C118 1.523 . S
C118 C99 1.368 . S
C118 C112 1.368 1_655 S
C118 C117 1.523 . S
C119 C103 1.429 . S
C119 C115 1.429 1_655 S
C119 C120 1.523 . S
C120 C104 1.368 1_655 S
C120 C116 1.368 . S
C120 C119 1.523 . S
H121 C96 0.950 . S
H122 C98 0.950 . S
H123 C99 0.949 . S
H124 C101 0.950 . S
H125 C103 0.950 . S
C126 C127 1.332 1_565 S
C126 C128 1.327 . S
C126 H151 0.950 . S
C127 C126 1.332 1_545 S
C127 C143 1.366 . S
C128 C126 1.327 . S
C128 C147 1.420 1_565 S
C128 H152 0.950 . S
C129 C146 1.574 . S
C129 C148 1.373 . S
C129 H153 0.949 . S
H130 C134 0.949 . S
C131 C132 1.336 1_545 S
C131 C133 1.327 . S
C131 H154 0.950 . S
C132 C131 1.336 1_565 S
C132 C144 1.362 . S
C133 C131 1.327 . S
C133 C149 1.424 1_545 S
C133 H155 0.950 . S
C134 H130 0.949 . S
C134 C142 1.574 . S
C134 C150 1.368 . S
H135 C143 0.950 . S
H136 C141 0.950 . S
H137 C142 0.949 . S
H138 C144 0.950 . S
H139 C145 0.950 . S
H140 C146 0.949 . S
C141 H136 0.950 . S
C141 C143 1.327 . S
C141 C147 1.437 . S
C142 C134 1.574 . S
C142 H137 0.949 . S
C142 C148 1.364 1_565 S
C143 C127 1.366 . S
C143 H135 0.950 . S
C143 C141 1.327 . S
C144 C132 1.362 . S
C144 H138 0.950 . S
C144 C145 1.327 . S
C145 H139 0.950 . S
C145 C144 1.327 . S
C145 C149 1.433 . S
C146 C129 1.574 . S
C146 H140 0.949 . S
C146 C150 1.369 1_545 S
C147 C128 1.420 1_545 S
C147 C141 1.437 . S
C147 C148 1.523 . S
C148 C129 1.373 . S
C148 C142 1.364 1_545 S
C148 C147 1.523 . S
C149 C133 1.424 1_565 S
C149 C145 1.433 . S
C149 C150 1.523 . S
C150 C134 1.368 . S
C150 C146 1.369 1_565 S
C150 C149 1.523 . S
H151 C126 0.950 . S
H152 C128 0.950 . S
H153 C129 0.949 . S
H154 C131 0.950 . S
H155 C133 0.950 . S
C156 C157 1.339 1_655 S
C156 C158 1.327 . S
C156 H181 0.950 . S
C157 C156 1.339 1_455 S
C157 C173 1.359 . S
C158 C156 1.327 . S
C158 C177 1.424 1_655 S
C158 H182 0.950 . S
C159 C176 1.574 . S
C159 C178 1.371 . S
C159 H183 0.949 . S
H160 C164 0.949 . S
C161 C162 1.342 1_455 S
C161 C163 1.327 . S
C161 H184 0.950 . S
C162 C161 1.342 1_655 S
C162 C174 1.356 . S
C163 C161 1.327 . S
C163 C179 1.426 1_455 S
C163 H185 0.950 . S
C164 H160 0.949 . S
C164 C172 1.574 . S
C164 C180 1.368 . S
H165 C173 0.950 . S
H166 C171 0.950 . S
H167 C172 0.949 . S
H168 C174 0.950 . S
H169 C175 0.950 . S
H170 C176 0.949 . S
C171 H166 0.950 . S
C171 C173 1.327 . S
C171 C177 1.433 . S
C172 C164 1.574 . S
C172 H167 0.949 . S
C172 C178 1.366 1_655 S
C173 C157 1.359 . S
C173 H165 0.950 . S
C173 C171 1.327 . S
C174 C162 1.356 . S
C174 H168 0.950 . S
C174 C175 1.327 . S
C175 H169 0.950 . S
C175 C174 1.327 . S
C175 C179 1.431 . S
C176 C159 1.574 . S
C176 H170 0.949 . S
C176 C180 1.368 1_455 S
C177 C158 1.424 1_455 S
C177 C171 1.433 . S
C177 C178 1.523 . S
C178 C159 1.371 . S
C178 C172 1.366 1_455 S
C178 C177 1.523 . S
C179 C163 1.426 1_655 S
C179 C175 1.431 . S
C179 C180 1.523 . S
C180 C164 1.368 . S
C180 C176 1.368 1_655 S
C180 C179 1.523 . S
H181 C156 0.950 . S
H182 C158 0.950 . S
H183 C159 0.949 . S
H184 C161 0.950 . S
H185 C163 0.950 . S
C186 C187 1.349 1_545 S
C186 C188 1.327 . S
C186 H211 0.950 . S
C187 C186 1.349 1_565 S
C187 C203 1.349 . S
C188 C186 1.327 . S
C188 C207 1.429 1_545 S
C188 H212 0.950 . S
C189 C206 1.574 . S
C189 C208 1.368 . S
C189 H213 0.949 . S
H190 C194 0.949 . S
C191 C192 1.349 . S
C191 C193 1.327 . S
C191 H214 0.950 . S
C192 C191 1.349 . S
C192 C204 1.349 1_565 S
C193 C191 1.327 . S
C193 C209 1.429 . S
C193 H215 0.950 . S
C194 H190 0.949 . S
C194 C202 1.574 . S
C194 C210 1.368 1_545 S
H195 C203 0.950 . S
H196 C201 0.950 . S
H197 C202 0.949 . S
H198 C204 0.950 . S
H199 C205 0.950 . S
H200 C206 0.949 . S
C201 H196 0.950 . S
C201 C203 1.327 . S
C201 C207 1.429 . S
C202 C194 1.574 . S
C202 H197 0.949 . S
C202 C208 1.368 1_545 S
C203 C187 1.349 . S
C203 H195 0.950 . S
C203 C201 1.327 . S
C204 C192 1.349 1_545 S
C204 H198 0.950 . S
C204 C205 1.327 . S
C205 H199 0.950 . S
C205 C204 1.327 . S
C205 C209 1.429 1_545 S
C206 C189 1.574 . S
C206 H200 0.949 . S
C206 C210 1.368 . S
C207 C188 1.429 1_565 S
C207 C201 1.429 . S
C207 C208 1.523 . S
C208 C189 1.368 . S
C208 C202 1.368 1_565 S
C208 C207 1.523 . S
C209 C193 1.429 . S
C209 C205 1.429 1_565 S
C209 C210 1.523 . S
C210 C194 1.368 1_565 S
C210 C206 1.368 . S
C210 C209 1.523 . S
H211 C186 0.950 . S
H212 C188 0.950 . S
H213 C189 0.949 . S
H214 C191 0.950 . S
H215 C193 0.950 . S
C216 C217 1.349 . S
C216 C218 1.327 . S
C216 H241 0.950 . S
C217 C216 1.349 . S
C217 C233 1.349 1_455 S
C218 C216 1.327 . S
C218 C237 1.429 . S
C218 H242 0.950 . S
C219 C236 1.574 . S
C219 C238 1.368 1_655 S
C219 H243 0.949 . S
H220 C224 0.949 . S
C221 C222 1.349 1_655 S
C221 C223 1.327 . S
C221 H244 0.950 . S
C222 C221 1.349 1_455 S
C222 C234 1.349 . S
C223 C221 1.327 . S
C223 C239 1.429 1_655 S
C223 H245 0.950 . S
C224 H220 0.949 . S
C224 C232 1.574 . S
C224 C240 1.368 . S
H225 C233 0.950 . S
H226 C231 0.950 . S
H227 C232 0.949 . S
H228 C234 0.950 . S
H229 C235 0.950 . S
H230 C236 0.949 . S
C231 H226 0.950 . S
C231 C233 1.327 . S
C231 C237 1.429 1_655 S
C232 C224 1.574 . S
C232 H227 0.949 . S
C232 C238 1.368 . S
C233 C217 1.349 1_655 S
C233 H225 0.950 . S
C233 C231 1.327 . S
C234 C222 1.349 . S
C234 H228 0.950 . S
C234 C235 1.327 . S
C235 H229 0.950 . S
C235 C234 1.327 . S
C235 C239 1.429 . S
C236 C219 1.574 . S
C236 H230 0.949 . S
C236 C240 1.368 1_655 S
C237 C218 1.429 . S
C237 C231 1.429 1_455 S
C237 C238 1.523 . S
C238 C219 1.368 1_455 S
C238 C232 1.368 . S
C238 C237 1.523 . S
C239 C223 1.429 1_455 S
C239 C235 1.429 . S
C239 C240 1.523 . S
C240 C224 1.368 . S
C240 C236 1.368 1_455 S
C240 C239 1.523 . S
H241 C216 0.950 . S
H242 C218 0.950 . S
H243 C219 0.949 . S
H244 C221 0.950 . S
H245 C223 0.950 . S
C246 C247 1.332 1_565 S
C246 C248 1.327 . S
C246 H271 0.950 . S
C247 C246 1.332 1_545 S
C247 C263 1.366 . S
C248 C246 1.327 . S
C248 C267 1.420 1_565 S
C248 H272 0.950 . S
C249 C266 1.574 . S
C249 C268 1.373 . S
C249 H273 0.949 . S
H250 C254 0.949 . S
C251 C252 1.336 1_545 S
C251 C253 1.327 . S
C251 H274 0.950 . S
C252 C251 1.336 1_565 S
C252 C264 1.362 . S
C253 C251 1.327 . S
C253 C269 1.424 1_545 S
C253 H275 0.950 . S
C254 H250 0.949 . S
C254 C262 1.574 . S
C254 C270 1.368 . S
H255 C263 0.950 . S
H256 C261 0.950 . S
H257 C262 0.949 . S
H258 C264 0.950 . S
H259 C265 0.950 . S
H260 C266 0.949 . S
C261 H256 0.950 . S
C261 C263 1.327 . S
C261 C267 1.437 . S
C262 C254 1.574 . S
C262 H257 0.949 . S
C262 C268 1.364 1_565 S
C263 C247 1.366 . S
C263 H255 0.950 . S
C263 C261 1.327 . S
C264 C252 1.362 . S
C264 H258 0.950 . S
C264 C265 1.327 . S
C265 H259 0.950 . S
C265 C264 1.327 . S
C265 C269 1.433 . S
C266 C249 1.574 . S
C266 H260 0.949 . S
C266 C270 1.369 1_545 S
C267 C248 1.420 1_545 S
C267 C261 1.437 . S
C267 C268 1.523 . S
C268 C249 1.373 . S
C268 C262 1.364 1_545 S
C268 C267 1.523 . S
C269 C253 1.424 1_565 S
C269 C265 1.433 . S
C269 C270 1.523 . S
C270 C254 1.368 . S
C270 C266 1.369 1_565 S
C270 C269 1.523 . S
H271 C246 0.950 . S
H272 C248 0.950 . S
H273 C249 0.949 . S
H274 C251 0.950 . S
H275 C253 0.950 . S
C276 C277 1.365 . S
C276 C278 1.327 . S
C276 H301 0.950 . S
C277 C276 1.365 . S
C277 C293 1.333 1_455 S
C278 C276 1.327 . S
C278 C297 1.436 . S
C278 H302 0.950 . S
C279 C296 1.574 . S
C279 C298 1.364 1_655 S
C279 H303 0.949 . S
H280 C284 0.949 . S
C281 C282 1.361 . S
C281 C283 1.327 . S
C281 H304 0.950 . S
C282 C281 1.361 . S
C282 C294 1.337 1_655 S
C283 C281 1.327 . S
C283 C299 1.433 . S
C283 H305 0.950 . S
C284 H280 0.949 . S
C284 C292 1.574 . S
C284 C300 1.369 1_455 S
H285 C293 0.950 . S
H286 C291 0.950 . S
H287 C292 0.949 . S
H288 C294 0.950 . S
H289 C295 0.950 . S
H290 C296 0.949 . S
C291 H286 0.950 . S
C291 C293 1.327 . S
C291 C297 1.421 1_655 S
C292 C284 1.574 . S
C292 H287 0.949 . S
C292 C298 1.372 . S
C293 C277 1.333 1_655 S
C293 H285 0.950 . S
C293 C291 1.327 . S
C294 C282 1.337 1_455 S
C294 H288 0.950 . S
C294 C295 1.327 . S
C295 H289 0.950 . S
C295 C294 1.327 . S
C295 C299 1.425 1_455 S
C296 C279 1.574 . S
C296 H290 0.949 . S
C296 C300 1.368 . S
C297 C278 1.436 . S
C297 C291 1.421 1_455 S
C297 C298 1.523 . S
C298 C279 1.364 1_455 S
C298 C292 1.372 . S
C298 C297 1.523 . S
C299 C283 1.433 . S
C299 C295 1.425 1_655 S
C299 C300 1.523 . S
C300 C284 1.369 1_655 S
C300 C296 1.368 . S
C300 C299 1.523 . S
H301 C276 0.950 . S
H302 C278 0.950 . S
H303 C279 0.949 . S
H304 C281 0.950 . S
H305 C283 0.950 . S
C306 C307 1.349 1_565 S
C306 C308 1.327 . S
C306 H331 0.950 . S
C307 C306 1.349 1_545 S
C307 C323 1.349 . S
C308 C306 1.327 . S
C308 C327 1.429 1_565 S
C308 H332 0.950 . S
C309 C326 1.574 . S
C309 C328 1.368 . S
C309 H333 0.949 . S
H310 C314 0.949 . S
C311 C312 1.349 . S
C311 C313 1.327 . S
C311 H334 0.950 . S
C312 C311 1.349 . S
C312 C324 1.349 1_545 S
C313 C311 1.327 . S
C313 C329 1.429 . S
C313 H335 0.950 . S
C314 H310 0.949 . S
C314 C322 1.574 . S
C314 C330 1.368 1_565 S
H315 C323 0.950 . S
H316 C321 0.950 . S
H317 C322 0.949 . S
H318 C324 0.950 . S
H319 C325 0.950 . S
H320 C326 0.949 . S
C321 H316 0.950 . S
C321 C323 1.327 . S
C321 C327 1.429 . S
C322 C314 1.574 . S
C322 H317 0.949 . S
C322 C328 1.368 1_565 S
C323 C307 1.349 . S
C323 H315 0.950 . S
C323 C321 1.327 . S
C324 C312 1.349 1_565 S
C324 H318 0.950 . S
C324 C325 1.327 . S
C325 H319 0.950 . S
C325 C324 1.327 . S
C325 C329 1.429 1_565 S
C326 C309 1.574 . S
C326 H320 0.949 . S
C326 C330 1.368 . S
C327 C308 1.429 1_545 S
C327 C321 1.429 . S
C327 C328 1.523 . S
C328 C309 1.368 . S
C328 C322 1.368 1_545 S
C328 C327 1.523 . S
C329 C313 1.429 . S
C329 C325 1.429 1_545 S
C329 C330 1.523 . S
C330 C314 1.368 1_545 S
C330 C326 1.368 . S
C330 C329 1.523 . S
H331 C306 0.950 . S
H332 C308 0.950 . S
H333 C309 0.949 . S
H334 C311 0.950 . S
H335 C313 0.950 . S
C336 C337 1.349 1_554 S
C336 C338 1.327 . S
C336 H361 0.950 . S
C337 C336 1.349 1_556 S
C337 C353 1.349 . S
C338 C336 1.327 . S
C338 C357 1.429 1_554 S
C338 H362 0.950 . S
C339 C356 1.574 . S
C339 C358 1.368 . S
C339 H363 0.949 . S
H340 C344 0.949 . S
C341 C342 1.349 . S
C341 C343 1.327 . S
C341 H364 0.950 . S
C342 C341 1.349 . S
C342 C354 1.349 1_556 S
C343 C341 1.327 . S
C343 C359 1.429 . S
C343 H365 0.950 . S
C344 H340 0.949 . S
C344 C352 1.574 . S
C344 C360 1.368 1_554 S
H345 C353 0.950 . S
H346 C351 0.950 . S
H347 C352 0.949 . S
H348 C354 0.950 . S
H349 C355 0.950 . S
H350 C356 0.949 . S
C351 H346 0.950 . S
C351 C353 1.327 . S
C351 C357 1.429 . S
C352 C344 1.574 . S
C352 H347 0.949 . S
C352 C358 1.368 1_554 S
C353 C337 1.349 . S
C353 H345 0.950 . S
C353 C351 1.327 . S
C354 C342 1.349 1_554 S
C354 H348 0.950 . S
C354 C355 1.327 . S
C355 H349 0.950 . S
C355 C354 1.327 . S
C355 C359 1.429 1_554 S
C356 C339 1.574 . S
C356 H350 0.949 . S
C356 C360 1.368 . S
C357 C338 1.429 1_556 S
C357 C351 1.429 . S
C357 C358 1.523 . S
C358 C339 1.368 . S
C358 C352 1.368 1_556 S
C358 C357 1.523 . S
C359 C343 1.429 . S
C359 C355 1.429 1_556 S
C359 C360 1.523 . S
C360 C344 1.368 1_556 S
C360 C356 1.368 . S
C360 C359 1.523 . S
H361 C336 0.950 . S
H362 C338 0.950 . S
H363 C339 0.949 . S
H364 C341 0.950 . S
H365 C343 0.950 . S
C366 C367 1.336 1_554 S
C366 C368 1.327 . S
C366 H391 0.950 . S
C367 C366 1.336 1_556 S
C367 C383 1.362 . S
C368 C366 1.327 . S
C368 C387 1.424 1_554 S
C368 H392 0.950 . S
C369 C386 1.574 . S
C369 C388 1.368 . S
C369 H393 0.949 . S
H370 C374 0.949 . S
C371 C372 1.332 1_556 S
C371 C373 1.327 . S
C371 H394 0.950 . S
C372 C371 1.332 1_554 S
C372 C384 1.366 . S
C373 C371 1.327 . S
C373 C389 1.420 1_556 S
C373 H395 0.950 . S
C374 H370 0.949 . S
C374 C382 1.574 . S
C374 C390 1.373 . S
H375 C383 0.950 . S
H376 C381 0.950 . S
H377 C382 0.949 . S
H378 C384 0.950 . S
H379 C385 0.950 . S
H380 C386 0.949 . S
C381 H376 0.950 . S
C381 C383 1.327 . S
C381 C387 1.433 . S
C382 C374 1.574 . S
C382 H377 0.949 . S
C382 C388 1.369 1_554 S
C383 C367 1.362 . S
C383 H375 0.950 . S
C383 C381 1.327 . S
C384 C372 1.366 . S
C384 H378 0.950 . S
C384 C385 1.327 . S
C385 H379 0.950 . S
C385 C384 1.327 . S
C385 C389 1.437 . S
C386 C369 1.574 . S
C386 H380 0.949 . S
C386 C390 1.364 1_556 S
C387 C368 1.424 1_556 S
C387 C381 1.433 . S
C387 C388 1.523 . S
C388 C369 1.368 . S
C388 C382 1.369 1_556 S
C388 C387 1.523 . S
C389 C373 1.420 1_554 S
C389 C385 1.437 . S
C389 C390 1.523 . S
C390 C374 1.373 . S
C390 C386 1.364 1_554 S
C390 C389 1.523 . S
H391 C366 0.950 . S
H392 C368 0.950 . S
H393 C369 0.949 . S
H394 C371 0.950 . S
H395 C373 0.950 . S
C396 C397 1.336 1_554 S
C396 C398 1.327 . S
C396 H421 0.950 . S
C397 C396 1.336 1_556 S
C397 C413 1.362 . S
C398 C396 1.327 . S
C398 C417 1.424 1_554 S
C398 H422 0.950 . S
C399 C416 1.574 . S
C399 C418 1.368 . S
C399 H423 0.949 . S
H400 C404 0.949 . S
C401 C402 1.332 1_556 S
C401 C403 1.327 . S
C401 H424 0.950 . S
C402 C401 1.332 1_554 S
C402 C414 1.366 . S
C403 C401 1.327 . S
C403 C419 1.420 1_556 S
C403 H425 0.950 . S
C404 H400 0.949 . S
C404 C412 1.574 . S
C404 C420 1.373 . S
H405 C413 0.950 . S
H406 C411 0.950 . S
H407 C412 0.949 . S
H408 C414 0.950 . S
H409 C415 0.950 . S
H410 C416 0.949 . S
C411 H406 0.950 . S
C411 C413 1.327 . S
C411 C417 1.433 . S
C412 C404 1.574 . S
C412 H407 0.949 . S
C412 C418 1.369 1_554 S
C413 C397 1.362 . S
C413 H405 0.950 . S
C413 C411 1.327 . S
C414 C402 1.366 . S
C414 H408 0.950 . S
C414 C415 1.327 . S
C415 H409 0.950 . S
C415 C414 1.327 . S
C415 C419 1.437 . S
C416 C399 1.574 . S
C416 H410 0.949 . S
C416 C420 1.364 1_556 S
C417 C398 1.424 1_556 S
C417 C411 1.433 . S
C417 C418 1.523 . S
C418 C399 1.368 . S
C418 C412 1.369 1_556 S
C418 C417 1.523 . S
C419 C403 1.420 1_554 S
C419 C415 1.437 . S
C419 C420 1.523 . S
C420 C404 1.373 . S
C420 C416 1.364 1_554 S
C420 C419 1.523 . S
H421 C396 0.950 . S
H422 C398 0.950 . S
H423 C399 0.949 . S
H424 C401 0.950 . S
H425 C403 0.950 . S
C426 C427 1.349 1_556 S
C426 C428 1.327 . S
C426 H451 0.950 . S
C427 C426 1.349 1_554 S
C427 C443 1.349 . S
C428 C426 1.327 . S
C428 C447 1.429 1_556 S
C428 H452 0.950 . S
C429 C446 1.574 . S
C429 C448 1.368 . S
C429 H453 0.949 . S
H430 C434 0.949 . S
C431 C432 1.349 . S
C431 C433 1.327 . S
C431 H454 0.950 . S
C432 C431 1.349 . S
C432 C444 1.349 1_554 S
C433 C431 1.327 . S
C433 C449 1.429 . S
C433 H455 0.950 . S
C434 H430 0.949 . S
C434 C442 1.574 . S
C434 C450 1.368 1_556 S
H435 C443 0.950 . S
H436 C441 0.950 . S
H437 C442 0.949 . S
H438 C444 0.950 . S
H439 C445 0.950 . S
H440 C446 0.949 . S
C441 H436 0.950 . S
C441 C443 1.327 . S
C441 C447 1.429 . S
C442 C434 1.574 . S
C442 H437 0.949 . S
C442 C448 1.368 1_556 S
C443 C427 1.349 . S
C443 H435 0.950 . S
C443 C441 1.327 . S
C444 C432 1.349 1_556 S
C444 H438 0.950 . S
C444 C445 1.327 . S
C445 H439 0.950 . S
C445 C444 1.327 . S
C445 C449 1.429 1_556 S
C446 C429 1.574 . S
C446 H440 0.949 . S
C446 C450 1.368 . S
C447 C428 1.429 1_554 S
C447 C441 1.429 . S
C447 C448 1.523 . S
C448 C429 1.368 . S
C448 C442 1.368 1_554 S
C448 C447 1.523 . S
C449 C433 1.429 . S
C449 C445 1.429 1_554 S
C449 C450 1.523 . S
C450 C434 1.368 1_554 S
C450 C446 1.368 . S
C450 C449 1.523 . S
H451 C426 0.950 . S
H452 C428 0.950 . S
H453 C429 0.949 . S
H454 C431 0.950 . S
H455 C433 0.950 . S
C97 C86 1.095 . S
C102 C8 1.092 . S
C127 C22 1.053 . S
C132 C56 1.042 . S
C157 C17 1.045 . S
C162 C87 1.042 . S
C187 C40 1.095 . S
C192 C31 1.084 . S
C217 C27 1.095 . S
C222 C94 1.099 . S
C247 C49 1.045 . S
C252 C30 1.050 . S
C277 C95 1.045 . S
C282 C24 1.042 . S
C307 C59 1.095 . S
C312 C23 1.092 . S
C337 C81 1.088 . S
C342 C63 1.084 . S
C367 C91 1.051 . S
C372 C54 1.054 . S
C397 C62 1.051 . S
C402 C72 1.054 . S
C427 C88 1.088 . S
C432 C55 1.091 . S
