# Generated by pormake.
# Topology smc, (6)-cn, num edge types: 1
# Building blocks:
#     Node 0, Type 0, BuildingBlock: UKALOJ_clean_sbu_0, # of connection points: 6
#     Node 1, Type 0, BuildingBlock: UKALOJ_clean_sbu_0, # of connection points: 6
#     Node 2, Type 0, BuildingBlock: UKALOJ_clean_sbu_0, # of connection points: 6
#     Node 3, Type 0, BuildingBlock: UKALOJ_clean_sbu_0, # of connection points: 6
#     Node 4, Type 0, BuildingBlock: UKALOJ_clean_sbu_0, # of connection points: 6
#     Node 5, Type 0, BuildingBlock: UKALOJ_clean_sbu_0, # of connection points: 6
#     Node 6, Type 0, BuildingBlock: UKALOJ_clean_sbu_0, # of connection points: 6
#     Node 7, Type 0, BuildingBlock: UKALOJ_clean_sbu_0, # of connection points: 6
#     Node 8, Type 0, BuildingBlock: UKALOJ_clean_sbu_0, # of connection points: 6
#     Edge 9, Type (0, 0), BuildingBlock: MIFKUJ_clean_linker_0, # of connection points: 2
#     Edge 10, Type (0, 0), BuildingBlock: MIFKUJ_clean_linker_0, # of connection points: 2
#     Edge 11, Type (0, 0), BuildingBlock: MIFKUJ_clean_linker_0, # of connection points: 2
#     Edge 12, Type (0, 0), BuildingBlock: MIFKUJ_clean_linker_0, # of connection points: 2
#     Edge 13, Type (0, 0), BuildingBlock: MIFKUJ_clean_linker_0, # of connection points: 2
#     Edge 14, Type (0, 0), BuildingBlock: MIFKUJ_clean_linker_0, # of connection points: 2
#     Edge 15, Type (0, 0), BuildingBlock: MIFKUJ_clean_linker_0, # of connection points: 2
#     Edge 16, Type (0, 0), BuildingBlock: MIFKUJ_clean_linker_0, # of connection points: 2
#     Edge 17, Type (0, 0), BuildingBlock: MIFKUJ_clean_linker_0, # of connection points: 2
#     Edge 18, Type (0, 0), BuildingBlock: MIFKUJ_clean_linker_0, # of connection points: 2
#     Edge 19, Type (0, 0), BuildingBlock: MIFKUJ_clean_linker_0, # of connection points: 2
#     Edge 20, Type (0, 0), BuildingBlock: MIFKUJ_clean_linker_0, # of connection points: 2
#     Edge 21, Type (0, 0), BuildingBlock: MIFKUJ_clean_linker_0, # of connection points: 2
#     Edge 22, Type (0, 0), BuildingBlock: MIFKUJ_clean_linker_0, # of connection points: 2
#     Edge 23, Type (0, 0), BuildingBlock: MIFKUJ_clean_linker_0, # of connection points: 2
#     Edge 24, Type (0, 0), BuildingBlock: MIFKUJ_clean_linker_0, # of connection points: 2
#     Edge 25, Type (0, 0), BuildingBlock: MIFKUJ_clean_linker_0, # of connection points: 2
#     Edge 26, Type (0, 0), BuildingBlock: MIFKUJ_clean_linker_0, # of connection points: 2
#     Edge 27, Type (0, 0), BuildingBlock: MIFKUJ_clean_linker_0, # of connection points: 2
#     Edge 28, Type (0, 0), BuildingBlock: MIFKUJ_clean_linker_0, # of connection points: 2
#     Edge 29, Type (0, 0), BuildingBlock: MIFKUJ_clean_linker_0, # of connection points: 2
#     Edge 30, Type (0, 0), BuildingBlock: MIFKUJ_clean_linker_0, # of connection points: 2
#     Edge 31, Type (0, 0), BuildingBlock: MIFKUJ_clean_linker_0, # of connection points: 2
#     Edge 32, Type (0, 0), BuildingBlock: MIFKUJ_clean_linker_0, # of connection points: 2
#     Edge 33, Type (0, 0), BuildingBlock: MIFKUJ_clean_linker_0, # of connection points: 2
#     Edge 34, Type (0, 0), BuildingBlock: MIFKUJ_clean_linker_0, # of connection points: 2
#     Edge 35, Type (0, 0), BuildingBlock: MIFKUJ_clean_linker_0, # of connection points: 2
# Relax obj value: 0.121
# Max RMSD: 0.216
# Mean RMSD: 0.216
data_MOF--net-smc--node1-UKALOJ_clean_sbu_0--edge1-MIFKUJ_clean_linker_0
_symmetry_space_group_name_H-M    P1
_symmetry_Int_Tables_number       1
_symmetry_cell_setting            triclinic
loop_
_symmetry_equiv_pos_as_xyz
'x, y, z'
_cell_length_a     36.164212
_cell_length_b     36.195796
_cell_length_c     72.980009
_cell_angle_alpha  90.000456
_cell_angle_beta   90.0498
_cell_angle_gamma 120.04318
loop_
_atom_site_label
_atom_site_type_symbol
_atom_site_fract_x
_atom_site_fract_y
_atom_site_fract_z
_atom_type_partial_charge
Zn0 Zn 0.01526 0.42347 0.03982 0.0
O1 O 0.0671 0.48584 0.04176 0.0
C2 C 0.07394 0.39401 0.02791 0.0
Zn3 Zn 0.02081 0.42532 1.00925 0.0
C4 C 0.08599 0.5059 0.02729 0.0
O5 O 0.07335 0.48778 0.01179 0.0
C6 C 0.9487 0.34342 0.02207 0.0
O7 O 0.98043 0.45169 1.0065 0.0
O8 O 0.97394 0.44893 0.03649 0.0
N9 N 0.03072 0.42789 0.98139 0.0
C10 C 0.00513 0.41509 0.96644 0.0
C11 C 0.06887 0.43835 0.9572 0.0
N12 N 0.07025 0.4426 0.97552 0.0
N13 N 0.02841 0.42111 0.95101 0.0
C14 C 0.0306 0.42505 0.08222 0.0
C15 C 0.97014 0.41153 0.09271 0.0
N16 N 0.00565 0.42089 0.0677 0.0
N17 N 0.96816 0.41263 0.0743 0.0
N18 N 0.00895 0.41902 0.09806 0.0
H19 H 0.09139 0.45565 0.0683 0.0
H20 H 0.09463 0.45623 0.09305 0.0
H21 H 0.07869 0.40763 0.08065 0.0
C22 C 0.07662 0.43715 0.08094 0.0
C23 C 0.95754 0.39556 0.96714 0.0
H24 H 0.9452 0.38705 0.98126 0.0
H25 H 0.94883 0.41909 0.96209 0.0
H26 H 0.94194 0.36688 0.95823 0.0
O27 O 0.96787 0.36275 1.00751 0.0
O28 O 0.96276 0.36136 0.03749 0.0
C29 C 0.96545 0.45891 0.02096 0.0
O30 O 0.05764 0.39938 0.04239 0.0
O31 O 0.06243 0.40079 0.01241 0.0
Zn32 Zn 0.60627 0.60634 0.0391 0.0
O33 O 0.54079 0.58574 0.04056 0.0
C34 C 0.62271 0.69125 0.02705 0.0
Zn35 Zn 0.60641 0.61053 1.00849 0.0
C36 C 0.52001 0.57886 0.02569 0.0
O37 O 0.53973 0.58729 1.01047 0.0
C38 C 0.69152 0.63283 0.02214 0.0
O39 O 0.59266 0.54713 1.00586 0.0
O40 O 0.59016 0.54179 0.03586 0.0
N41 N 0.60306 0.61578 0.98052 0.0
C42 C 0.62424 0.61093 0.96634 0.0
C43 C 0.58044 0.62803 0.95513 0.0
N44 N 0.57585 0.62632 0.97347 0.0
N45 N 0.61077 0.6187 0.95025 0.0
C46 C 0.60199 0.6189 0.08154 0.0
C47 C 0.6231 0.57774 0.09214 0.0
N48 N 0.60945 0.60033 0.06706 0.0
N49 N 0.62241 0.57468 0.07373 0.0
N50 N 0.61061 0.60546 0.09743 0.0
H51 H 0.56503 0.64199 0.0675 0.0
H52 H 0.56395 0.64443 0.09227 0.0
H53 H 0.61098 0.68159 0.07993 0.0
C54 C 0.58416 0.64823 0.08018 0.0
C55 C 0.65619 0.59631 0.96818 0.0
H56 H 0.65005 0.57664 0.98065 0.0
H57 H 0.6553 0.57759 0.95598 0.0
H58 H 0.6886 0.62466 0.96924 0.0
O59 O 0.67255 0.63181 1.00731 0.0
O60 O 0.67139 0.62509 0.03721 0.0
C61 C 0.58613 0.52477 0.02019 0.0
O62 O 0.62105 0.67072 0.04148 0.0
O63 O 0.61867 0.6738 0.01149 0.0
Zn64 Zn 0.41346 0.01387 1.00549 0.0
O65 O 0.47799 0.06155 1.00431 0.0
C66 C 0.39125 0.07852 0.0172 0.0
Zn67 Zn 0.41426 0.01929 0.03606 0.0
C68 C 0.49863 0.07802 0.019 0.0
O69 O 0.47941 0.06697 0.03434 0.0
C70 C 0.33011 0.95206 0.02246 0.0
O71 O 0.43372 0.9736 0.03885 0.0
O72 O 0.43369 0.96862 1.00884 0.0
N73 N 0.41543 0.02765 0.06398 0.0
C74 C 0.40131 0.00075 0.07847 0.0
C75 C 0.42379 0.06357 0.08874 0.0
N76 N 0.42959 0.06661 0.07048 0.0
N77 N 0.40612 0.02261 0.09419 0.0
C78 C 0.41844 0.03179 0.96327 0.0
C79 C 0.3982 0.97011 0.95218 0.0
N80 N 0.4114 0.00533 0.97753 0.0
N81 N 0.39906 0.96708 0.97056 0.0
N82 N 0.41003 0.01038 0.94723 0.0
H83 H 0.4537 0.09151 0.97787 0.0
H84 H 0.45659 0.0959 0.95313 0.0
H85 H 0.40854 0.08497 0.9648 0.0
C86 C 0.4356 0.07884 0.96495 0.0
C87 C 0.38107 0.95317 0.07707 0.0
H88 H 0.37108 0.94179 0.06289 0.0
H89 H 0.40465 0.94375 0.08133 0.0
H90 H 0.35311 0.9373 0.08637 0.0
O91 O 0.34956 0.97088 0.03708 0.0
O92 O 0.34918 0.96467 1.00717 0.0
C93 C 0.4408 0.95812 0.02453 0.0
O94 O 0.39468 0.06046 1.00288 0.0
O95 O 0.39653 0.0663 0.03281 0.0
Zn96 Zn 0.68564 0.75436 0.37221 0.0
O97 O 0.73589 0.81725 0.37322 0.0
C98 C 0.74673 0.72864 0.3593 0.0
Zn99 Zn 0.68761 0.75312 0.34154 0.0
C100 C 0.7509 0.83708 0.35827 0.0
O101 O 0.7367 0.81766 0.34312 0.0
C102 C 0.61944 0.67127 0.35576 0.0
O103 O 0.643 0.77395 0.33953 0.0
O104 O 0.64299 0.77861 0.36957 0.0
N105 N 0.69469 0.75522 0.31349 0.0
C106 C 0.66724 0.73559 0.2995 0.0
C107 C 0.72895 0.77415 0.28783 0.0
N108 N 0.73295 0.77924 0.30615 0.0
N109 N 0.68803 0.74674 0.28327 0.0
C110 C 0.70568 0.75818 0.41433 0.0
C111 C 0.64526 0.74128 0.42598 0.0
N112 N 0.67889 0.7525 0.40032 0.0
N113 N 0.64144 0.74214 0.40764 0.0
N114 N 0.68522 0.751 0.43061 0.0
H115 H 0.76495 0.79192 0.39937 0.0
H116 H 0.77074 0.79247 0.424 0.0
H117 H 0.75642 0.74473 0.41115 0.0
C118 C 0.75222 0.77296 0.41207 0.0
C119 C 0.61997 0.70752 0.30168 0.0
H120 H 0.6086 0.71561 0.31432 0.0
H121 H 0.60289 0.71059 0.28966 0.0
H122 H 0.61238 0.67388 0.30258 0.0
O123 O 0.63761 0.68895 0.34077 0.0
O124 O 0.63391 0.6914 0.37073 0.0
C125 C 0.63065 0.78412 0.35399 0.0
O126 O 0.7298 0.73225 0.37396 0.0
O127 O 0.73363 0.73418 0.34394 0.0
Zn128 Zn 0.27824 0.93995 0.33962 0.0
O129 O 0.26572 0.87698 0.33902 0.0
C130 C 0.36556 0.96617 0.35173 0.0
Zn131 Zn 0.28247 0.94217 0.37021 0.0
C132 C 0.2611 0.85767 0.35411 0.0
O133 O 0.26658 0.87761 0.36912 0.0
C134 C 0.29562 0.02345 0.35568 0.0
O135 O 0.2172 0.92175 0.37295 0.0
O136 O 0.21145 0.9155 0.34295 0.0
N137 N 0.28981 0.94156 0.39813 0.0
C138 C 0.27802 0.95634 0.41271 0.0
C139 C 0.31574 0.93062 0.4228 0.0
N140 N 0.31295 0.92538 0.40452 0.0
N141 N 0.29414 0.94998 0.42842 0.0
C142 C 0.29209 0.93412 0.29745 0.0
C143 C 0.24792 0.95032 0.28595 0.0
N144 N 0.27162 0.94036 0.31155 0.0
N145 N 0.24409 0.95025 0.30432 0.0
N146 N 0.27802 0.94054 0.28122 0.0
H147 H 0.31845 0.90117 0.31243 0.0
H148 H 0.32248 0.89959 0.28778 0.0
H149 H 0.35651 0.9479 0.30018 0.0
C150 C 0.32402 0.91957 0.29961 0.0
C151 C 0.25217 0.97815 0.41138 0.0
H152 H 0.25039 0.98755 0.39715 0.0
H153 H 0.21904 0.95576 0.4159 0.0
H154 H 0.26581 0.00665 0.42041 0.0
O155 O 0.29725 0.00627 0.37062 0.0
O156 O 0.28917 0.00297 0.34075 0.0
C157 C 0.19414 0.91074 0.35861 0.0
O158 O 0.34462 0.96233 0.33716 0.0
O159 O 0.34727 0.96081 0.36714 0.0
Zn160 Zn 0.08476 0.34894 0.37268 0.0
O161 O 0.10326 0.30249 0.37432 0.0
C162 C -0.00044 0.28426 0.35973 0.0
Zn163 Zn 0.08278 0.34579 0.34208 0.0
C164 C 0.10873 0.28722 0.35956 0.0
O165 O 0.10114 0.29891 0.34425 0.0
C166 C 0.06267 0.41046 0.35549 0.0
O167 O 0.14768 0.39219 0.34006 0.0
O168 O 0.14995 0.39583 0.37011 0.0
N169 N 0.07796 0.33747 0.31414 0.0
C170 C 0.085 0.3642 0.29999 0.0
C171 C 0.06235 0.30218 0.28875 0.0
N172 N 0.06402 0.29901 0.30709 0.0
N173 N 0.07513 0.34274 0.2839 0.0
C174 C 0.07038 0.33125 0.41493 0.0
C175 C 0.113 0.39287 0.42585 0.0
N176 N 0.0899 0.35745 0.4006 0.0
N177 N 0.11643 0.39566 0.40746 0.0
N178 N 0.08417 0.3528 0.43091 0.0
H179 H 0.046 0.27128 0.40069 0.0
H180 H 0.0421 0.26714 0.42542 0.0
H181 H 0.0068 0.279 0.41263 0.0
C182 C 0.03974 0.28435 0.41329 0.0
C183 C 0.1036 0.41143 0.30188 0.0
H184 H 0.12305 0.4235 0.3145 0.0
H185 H 0.12365 0.42827 0.28981 0.0
H186 H 0.07721 0.41855 0.30263 0.0
O187 O 0.06575 0.39373 0.34066 0.0
O188 O 0.06779 0.39653 0.3707 0.0
C189 C 0.16882 0.40756 0.35473 0.0
O190 O 0.01975 0.30098 0.37449 0.0
O191 O 0.01826 0.29824 0.34445 0.0
Zn192 Zn 0.34511 0.08759 0.67319 0.0
O193 O 0.29232 0.09578 0.67004 0.0
C194 C 0.28775 -0.0004 0.68654 0.0
Zn195 Zn 0.33982 0.08573 0.70377 0.0
C196 C 0.27433 0.09912 0.68436 0.0
O197 O 0.28754 0.09554 0.70005 0.0
C198 C 0.41317 0.07761 0.69238 0.0
O199 O 0.38037 0.1526 0.70536 0.0
O200 O 0.38427 0.15531 0.67529 0.0
N201 N 0.32942 0.08151 0.73162 0.0
C202 C 0.35554 0.09099 0.74624 0.0
C203 C 0.29202 0.06341 0.75648 0.0
N204 N 0.29 0.06456 0.73807 0.0
N205 N 0.33282 0.07962 0.76198 0.0
C206 C 0.32914 0.07366 0.63066 0.0
C207 C 0.39303 0.10816 0.62073 0.0
N208 N 0.355 0.09134 0.64533 0.0
N209 N 0.39458 0.11298 0.63905 0.0
N210 N 0.35234 0.08369 0.61502 0.0
H211 H 0.27097 0.03465 0.64598 0.0
H212 H 0.26598 0.06326 0.62714 0.0
H213 H 0.27102 0.01706 0.62277 0.0
C214 C 0.28163 0.04526 0.63181 0.0
C215 C 0.40323 0.11325 0.74518 0.0
H216 H 0.41501 0.13287 0.7326 0.0
H217 H 0.41774 0.13387 0.75738 0.0
H218 H 0.41328 0.08896 0.74501 0.0
O219 O 0.39288 0.07697 0.7067 0.0
O220 O 0.39938 0.08075 0.67677 0.0
C221 C 0.39369 0.17437 0.69071 0.0
O222 O 0.30452 0.02018 0.67186 0.0
O223 O 0.29825 0.01928 0.70176 0.0
Zn224 Zn 0.94617 0.28483 0.67525 0.0
O225 O 0.9246 0.21905 0.6739 0.0
C226 C 0.02994 0.30028 0.68753 0.0
Zn227 Zn 0.94846 0.28335 0.70585 0.0
C228 C 0.91679 0.19765 0.68862 0.0
O229 O 0.92468 0.21676 0.70399 0.0
C230 C 0.97343 0.36947 0.69231 0.0
O231 O 0.88504 0.27036 0.7082 0.0
O232 O 0.88221 0.26975 0.67812 0.0
N233 N 0.95394 0.28028 0.73382 0.0
C234 C 0.94463 0.29739 0.74834 0.0
C235 C 0.97603 0.26518 0.75863 0.0
N236 N 0.9731 0.26003 0.74033 0.0
N237 N 0.95841 0.28849 0.76413 0.0
C238 C 0.95879 0.27891 0.63309 0.0
C239 C 0.92032 0.30274 0.62196 0.0
N240 N 0.94079 0.28788 0.64733 0.0
N241 N 0.91678 0.30252 0.64034 0.0
N242 N 0.94667 0.28825 0.61703 0.0
H243 H 0.97905 0.24017 0.64769 0.0
H244 H 0.98146 0.23792 0.62296 0.0
H245 H 0.02018 0.28447 0.63514 0.0
C246 C 0.98623 0.25892 0.63487 0.0
C247 C 0.92369 0.32405 0.74691 0.0
H248 H 0.92224 0.33316 0.7326 0.0
H249 H 0.89038 0.3053 0.75194 0.0
H250 H 0.94093 0.3531 0.75551 0.0
O251 O 0.97089 0.3495 0.707 0.0
O252 O 0.96598 0.35004 0.67706 0.0
C253 C 0.86398 0.26502 0.69353 0.0
O254 O 0.01001 0.29908 0.673 0.0
O255 O 0.01167 0.29516 0.70295 0.0
Zn256 Zn 0.75685 0.68449 0.7059 0.0
O257 O 0.77141 0.63548 0.70832 0.0
C258 C 0.67057 0.6217 0.69252 0.0
Zn259 Zn 0.75541 0.67947 0.67525 0.0
C260 C 0.77544 0.61801 0.69396 0.0
O261 O 0.76949 0.62972 0.67833 0.0
C262 C 0.74023 0.74867 0.68751 0.0
O263 O 0.82178 0.72316 0.67383 0.0
O264 O 0.82312 0.72843 0.70384 0.0
N265 N 0.75194 0.67061 0.6472 0.0
C266 C 0.75998 0.69699 0.63279 0.0
C267 C 0.73762 0.63467 0.62199 0.0
N268 N 0.73819 0.63195 0.64039 0.0
N269 N 0.75095 0.67514 0.61683 0.0
C270 C 0.74028 0.66706 0.74819 0.0
C271 C 0.78181 0.72883 0.7592 0.0
N272 N 0.76045 0.69324 0.73391 0.0
N273 N 0.7863 0.73155 0.74085 0.0
N274 N 0.75294 0.68872 0.76422 0.0
H275 H 0.71574 0.60726 0.73368 0.0
H276 H 0.71328 0.60288 0.75841 0.0
H277 H 0.67693 0.61427 0.74623 0.0
C278 C 0.71005 0.62007 0.74648 0.0
C279 C 0.77883 0.74429 0.63429 0.0
H280 H 0.79924 0.76057 0.62223 0.0
H281 H 0.75254 0.75162 0.63457 0.0
H282 H 0.798 0.75665 0.64698 0.0
O283 O 0.74237 0.73023 0.67304 0.0
O284 O 0.74377 0.73485 0.70304 0.0
C285 C 0.84277 0.73822 0.68859 0.0
O286 O 0.6909 0.63898 0.7072 0.0
O287 O 0.68953 0.63428 0.67719 0.0
H288 H 0.46537 0.54319 0.99689 0.0
H289 H 0.38762 0.50133 0.9978 0.0
H290 H 0.38999 0.5227 0.05607 0.0
H291 H 0.46812 0.56373 0.05536 0.0
H292 H 0.33471 0.44203 0.04844 0.0
H293 H 0.36195 0.57698 0.02564 0.0
H294 H 0.39373 0.64017 1.00551 0.0
H295 H 0.33286 0.56036 0.95879 0.0
H296 H 0.30113 0.49659 0.97862 0.0
H297 H 0.12216 0.40206 0.05816 0.0
H298 H 0.1967 0.42058 0.0579 0.0
H299 H 0.18876 0.39605 0.99977 0.0
H300 H 0.11425 0.37852 0.99986 0.0
H301 H 0.24683 0.47565 1.00706 0.0
H302 H 0.21482 0.33985 0.03087 0.0
H303 H 0.18267 0.27815 0.05181 0.0
H304 H 0.25156 0.3597 0.09703 0.0
H305 H 0.28369 0.42202 0.07642 0.0
C306 C 0.44939 0.53946 1.00987 0.0
C307 C 0.47289 0.55714 0.02603 0.0
C308 C 0.4049 0.51545 1.01038 0.0
C309 C 0.38295 0.50928 0.02697 0.0
C310 C 0.40629 0.52705 0.04312 0.0
C311 C 0.45089 0.55075 0.04266 0.0
C312 C 0.33564 0.48422 0.0274 0.0
C313 C 0.31545 0.44935 0.03941 0.0
C314 C 0.31051 0.49367 0.01556 0.0
C315 C 0.32952 0.53197 1.00359 0.0
C316 C 0.35561 0.57287 0.01105 0.0
C317 C 0.37357 0.6088 0.9997 0.0
C318 C 0.36542 0.60427 0.98088 0.0
C319 C 0.3392 0.56381 0.97337 0.0
C320 C 0.32119 0.52777 0.98466 0.0
C321 C 0.13566 0.39902 0.04544 0.0
C322 C 0.11251 0.3898 0.02897 0.0
C323 C 0.17845 0.40955 0.04532 0.0
C324 C 0.19851 0.41023 0.02876 0.0
C325 C 0.17401 0.39616 0.01267 0.0
C326 C 0.13134 0.38597 0.01276 0.0
C327 C 0.24577 0.43249 0.0277 0.0
C328 C 0.26603 0.46744 0.01573 0.0
C329 C 0.27082 0.42311 0.03963 0.0
C330 C 0.25139 0.3857 0.0521 0.0
C331 C 0.22283 0.34472 0.04531 0.0
C332 C 0.20467 0.3096 0.05711 0.0
C333 C 0.21499 0.31501 0.07574 0.0
C334 C 0.24357 0.35555 0.0826 0.0
C335 C 0.26181 0.39078 0.07085 0.0
H336 H 0.20091 0.28779 0.08486 0.0
H337 H 0.37935 0.63212 0.97211 0.0
H338 H 0.4677 0.92714 0.99661 0.0
H339 H 0.50638 0.8881 0.99903 0.0
H340 H 0.49934 0.89057 0.05798 0.0
H341 H 0.46076 0.92986 0.05572 0.0
H342 H 0.58392 0.91313 0.01566 0.0
H343 H 0.48837 0.79679 0.07394 0.0
H344 H 0.41507 0.75971 0.08639 0.0
H345 H 0.36504 0.76259 0.03336 0.0
H346 H 0.43796 0.79952 0.0206 0.0
H347 H 0.62007 0.73258 0.05805 0.0
H348 H 0.59943 0.78717 0.05989 0.0
H349 H 0.60076 0.79512 1.00092 0.0
H350 H 0.62115 0.74041 0.99894 0.0
H351 H 0.52328 0.77204 0.04605 0.0
H352 H 0.61786 0.89557 0.98852 0.0
H353 H 0.69014 0.93235 0.97515 0.0
H354 H 0.74167 0.91346 0.02499 0.0
H355 H 0.66987 0.87729 0.0388 0.0
C356 C 0.47404 0.9191 1.0101 0.0
C357 C 0.46104 0.93149 0.02598 0.0
C358 C 0.49638 0.89704 0.01144 0.0
C359 C 0.50569 0.88651 0.02866 0.0
C360 C 0.49223 0.89822 0.04455 0.0
C361 C 0.47018 0.92062 0.04323 0.0
C362 C 0.52973 0.86345 0.02993 0.0
C363 C 0.57063 0.88207 0.02213 0.0
C364 C 0.51268 0.8236 0.03885 0.0
C365 C 0.46867 0.80128 0.04638 0.0
C366 C 0.46171 0.78945 0.06494 0.0
C367 C 0.42023 0.7685 0.07205 0.0
C368 C 0.38544 0.75888 0.06068 0.0
C369 C 0.39204 0.77017 0.04217 0.0
C370 C 0.43344 0.79126 0.03501 0.0
C371 C 0.61701 0.7466 0.04548 0.0
C372 C 0.6215 0.73148 0.02836 0.0
C373 C 0.60514 0.77781 0.04657 0.0
C374 C 0.59824 0.79496 0.03055 0.0
C375 C 0.60617 0.78253 0.01347 0.0
C376 C 0.61778 0.75113 0.01237 0.0
C377 C 0.57753 0.82136 0.03154 0.0
C378 C 0.53702 0.80332 0.03975 0.0
C379 C 0.59486 0.86157 0.02282 0.0
C380 C 0.63827 0.88318 0.01462 0.0
C381 C 0.6446 0.89932 0.99665 0.0
C382 C 0.68552 0.92011 0.989 0.0
C383 C 0.72044 0.92508 0.99919 0.0
C384 C 0.71455 0.9094 0.01708 0.0
C385 C 0.67371 0.88867 0.02482 0.0
H386 H 0.7521 0.94118 0.99324 0.0
H387 H 0.35336 0.74266 0.0662 0.0
H388 H 0.28507 0.91086 0.05322 0.0
H389 H 0.23485 0.83442 0.05569 0.0
H390 H 0.23558 0.82221 0.99693 0.0
H391 H 0.28515 0.89864 0.99426 0.0
H392 H 0.15882 0.76164 0.01199 0.0
H393 H 0.3098 0.8157 0.02059 0.0
H394 H 0.37969 0.86294 0.0347 0.0
H395 H 0.32906 0.81062 0.08768 0.0
H396 H 0.25839 0.76314 0.07382 0.0
H397 H 0.13004 0.55896 0.99894 0.0
H398 H 0.1712 0.63679 0.99987 0.0
H399 H 0.15636 0.63404 0.05857 0.0
H400 H 0.11544 0.55611 0.05785 0.0
H401 H 0.23612 0.70131 0.04561 0.0
H402 H 0.08597 0.63485 0.03323 0.0
H403 H 0.02126 0.58543 0.0161 0.0
H404 H 0.07232 0.66131 0.96758 0.0
H405 H 0.13856 0.71004 0.98417 0.0
C406 C 0.27329 0.89228 0.04076 0.0
C407 C 0.28998 0.9106 0.02357 0.0
C408 C 0.24464 0.84854 0.04221 0.0
C409 C 0.23258 0.8226 0.02653 0.0
C410 C 0.24483 0.84167 1.00921 0.0
C411 C 0.27332 0.88542 1.00772 0.0
C412 C 0.21411 0.7759 0.02826 0.0
C413 C 0.17561 0.74837 0.01931 0.0
C414 C 0.23618 0.75872 0.03785 0.0
C415 C 0.27875 0.78633 0.04621 0.0
C416 C 0.31349 0.81447 0.03526 0.0
C417 C 0.35325 0.84136 0.04323 0.0
C418 C 0.35885 0.84012 0.06212 0.0
C419 C 0.32465 0.81172 0.07306 0.0
C420 C 0.28472 0.78476 0.06516 0.0
C421 C 0.13643 0.57481 0.01211 0.0
C422 C 0.11863 0.5515 0.02827 0.0
C423 C 0.16 0.61924 0.0126 0.0
C424 C 0.16579 0.64091 0.02923 0.0
C425 C 0.15184 0.61772 0.0456 0.0
C426 C 0.1283 0.57323 0.04513 0.0
C427 C 0.18101 0.68708 0.02924 0.0
C428 C 0.21891 0.71446 0.03852 0.0
C429 C 0.15857 0.70398 0.01972 0.0
C430 C 0.11773 0.67587 1.00993 0.0
C431 C 0.08387 0.64067 0.01882 0.0
C432 C 0.04691 0.61259 1.00917 0.0
C433 C 0.04274 0.62005 0.99072 0.0
C434 C 0.07564 0.65551 0.98187 0.0
C435 C 0.11302 0.68328 0.99138 0.0
H436 H 0.0139 0.59852 0.98332 0.0
H437 H 0.38973 0.86092 0.06825 0.0
H438 H 0.39092 0.12056 0.98604 0.0
H439 H 0.41428 0.1964 0.98393 0.0
H440 H 0.41323 0.2043 0.04284 0.0
H441 H 0.39068 0.12865 0.04512 0.0
H442 H 0.39198 0.26221 0.02299 0.0
H443 H 0.50103 0.22068 0.0272 0.0
H444 H 0.53341 0.17811 0.01748 0.0
H445 H 0.54788 0.22735 0.9628 0.0
H446 H 0.51529 0.27023 0.97226 0.0
H447 H 0.55489 0.46583 0.04765 0.0
H448 H 0.51453 0.38834 0.04438 0.0
H449 H 0.53616 0.40064 0.98604 0.0
H450 H 0.57665 0.47846 0.98913 0.0
H451 H 0.54285 0.3331 1.00196 0.0
H452 H 0.446 0.38603 0.9998 0.0
H453 H 0.41584 0.43004 1.0105 0.0
H454 H 0.37737 0.35963 0.06092 0.0
H455 H 0.40814 0.31573 0.0507 0.0
C456 C 0.39446 0.13802 0.99853 0.0
C457 C 0.39038 0.11886 0.01574 0.0
C458 C 0.40763 0.18136 0.99729 0.0
C459 C 0.41628 0.20594 0.01325 0.0
C460 C 0.40688 0.18579 0.03038 0.0
C461 C 0.39409 0.14251 0.03163 0.0
C462 C 0.44219 0.25296 0.01228 0.0
C463 C 0.42492 0.2778 0.01842 0.0
C464 C 0.48497 0.27313 1.00604 0.0
C465 C 0.5054 0.24825 1.00038 0.0
C466 C 0.51094 0.22224 0.01308 0.0
C467 C 0.52934 0.19807 1.00762 0.0
C468 C 0.54253 0.19979 0.98949 0.0
C469 C 0.53756 0.22596 0.97682 0.0
C470 C 0.51921 0.25029 0.98224 0.0
C471 C 0.55174 0.45213 0.03415 0.0
C472 C 0.56849 0.47827 0.01861 0.0
C473 C 0.52848 0.40786 0.0323 0.0
C474 C 0.52169 0.389 0.01493 0.0
C475 C 0.54078 0.41476 0.99953 0.0
C476 C 0.56384 0.45914 1.00134 0.0
C477 C 0.49286 0.34253 0.01285 0.0
C478 C 0.50967 0.31771 1.0062 0.0
C479 C 0.44965 0.32254 0.01856 0.0
C480 C 0.42976 0.34783 0.02455 0.0
C481 C 0.43134 0.38007 0.01322 0.0
C482 C 0.41415 0.40501 0.0192 0.0
C483 C 0.39487 0.39771 0.0364 0.0
C484 C 0.39242 0.36526 0.04761 0.0
C485 C 0.40972 0.34033 0.04173 0.0
H486 H 0.3819 0.41724 0.04105 0.0
H487 H 0.55672 0.181 0.98527 0.0
H488 H 0.55107 0.09668 0.98936 0.0
H489 H 0.62912 0.13692 0.98909 0.0
H490 H 0.6301 0.16253 0.04687 0.0
H491 H 0.55203 0.12233 0.0473 0.0
H492 H 0.68679 0.23298 0.02748 0.0
H493 H 0.6485 0.08659 0.03353 0.0
H494 H 0.61261 0.01018 0.02551 0.0
H495 H 0.67845 0.04088 0.97395 0.0
H496 H 0.71415 0.1176 0.9815 0.0
H497 H 0.8967 0.2988 0.05053 0.0
H498 H 0.82078 0.24644 0.04868 0.0
H499 H 0.82864 0.24672 0.98975 0.0
H500 H 0.90487 0.29974 0.99136 0.0
H501 H 0.76823 0.16225 1.00865 0.0
H502 H 0.80502 0.3106 1.00344 0.0
H503 H 0.84203 0.38594 0.01328 0.0
H504 H 0.77846 0.34917 0.06533 0.0
H505 H 0.7418 0.2735 0.05594 0.0
C506 C 0.56785 0.11119 1.00198 0.0
C507 C 0.54541 0.10615 0.01839 0.0
C508 C 0.61242 0.13392 1.00181 0.0
C509 C 0.63522 0.15203 0.01802 0.0
C510 C 0.61295 0.14851 0.03425 0.0
C511 C 0.5684 0.12556 0.03447 0.0
C512 C 0.68239 0.17447 0.01811 0.0
C513 C 0.70453 0.21738 0.02351 0.0
C514 C 0.70541 0.15411 0.01267 0.0
C515 C 0.68363 0.10796 1.00799 0.0
C516 C 0.65497 0.07713 0.02039 0.0
C517 C 0.63472 0.03373 0.01595 0.0
C518 C 0.64317 0.02069 0.99922 0.0
C519 C 0.67188 0.05104 0.98689 0.0
C520 C 0.69212 0.09449 0.99125 0.0
C521 C 0.88271 0.28691 0.03717 0.0
C522 C 0.90663 0.30403 0.02107 0.0
C523 C 0.83932 0.25694 0.03617 0.0
C524 C 0.81927 0.24339 0.01909 0.0
C525 C 0.84377 0.257 1.00304 0.0
C526 C 0.88725 0.28734 1.00401 0.0
C527 C 0.77225 0.22049 0.01805 0.0
C528 C 0.75026 0.1777 0.01248 0.0
C529 C 0.7492 0.24074 0.02347 0.0
C530 C 0.77101 0.28632 0.02906 0.0
C531 C 0.79928 0.31852 0.01706 0.0
C532 C 0.82015 0.3613 0.02254 0.0
C533 C 0.81263 0.3723 0.03993 0.0
C534 C 0.78427 0.34057 0.05187 0.0
C535 C 0.76346 0.29775 0.04648 0.0
H536 H 0.82862 0.40541 0.04413 0.0
H537 H 0.62756 0.98708 0.99583 0.0
H538 H 0.96276 0.50748 0.99281 0.0
H539 H 0.92477 0.54775 0.9921 0.0
H540 H 0.8747 0.50137 0.04609 0.0
H541 H 0.91331 0.46197 0.04711 0.0
H542 H 0.81256 0.4903 0.02013 0.0
H543 H 0.94437 0.60107 0.04472 0.0
H544 H 0.02034 0.65558 0.04841 0.0
H545 H 0.01925 0.70874 0.99595 0.0
H546 H 0.94315 0.65464 0.992 0.0
H547 H 0.73106 0.61768 0.0505 0.0
H548 H 0.78529 0.59685 0.04807 0.0
H549 H 0.79918 0.6266 0.99043 0.0
H550 H 0.74408 0.64701 0.99259 0.0
H551 H 0.88013 0.6478 0.0154 0.0
H552 H 0.74107 0.53677 0.99414 0.0
H553 H 0.66287 0.49172 0.99688 0.0
H554 H 0.67788 0.44137 0.04784 0.0
H555 H 0.7562 0.48692 0.04562 0.0
C556 C 0.94351 0.50575 1.0045 0.0
C557 C 0.94075 0.48132 0.01998 0.0
C558 C 0.92225 0.52913 1.00414 0.0
C559 C 0.89728 0.52778 0.01911 0.0
C560 C 0.89408 0.50304 0.03446 0.0
C561 C 0.91599 0.48041 0.03499 0.0
C562 C 0.8721 0.54978 0.01833 0.0
C563 C 0.82742 0.52475 0.01912 0.0
C564 C 0.89144 0.59467 0.01678 0.0
C565 C 0.93825 0.62348 0.01796 0.0
C566 C 0.96053 0.62389 0.03382 0.0
C567 C 0.00344 0.65509 0.03608 0.0
C568 C 0.02446 0.68587 0.02251 0.0
C569 C 0.00282 0.68509 1.00652 0.0
C570 C 0.95982 0.65418 1.00426 0.0
C571 C 0.74642 0.6211 0.03738 0.0
C572 C 0.73259 0.63322 0.02164 0.0
C573 C 0.77733 0.60902 0.03603 0.0
C574 C 0.79545 0.60952 0.01903 0.0
C575 C 0.78517 0.62581 1.00364 0.0
C576 C 0.7537 0.63741 1.00491 0.0
C577 C 0.82104 0.58832 0.01715 0.0
C578 C 0.86551 0.61333 0.01594 0.0
C579 C 0.80162 0.54346 0.01856 0.0
C580 C 0.75452 0.51562 0.0198 0.0
C581 C 0.7277 0.51647 1.00604 0.0
C582 C 0.68334 0.49078 1.00748 0.0
C583 C 0.66542 0.46374 0.02253 0.0
C584 C 0.69182 0.46236 0.03619 0.0
C585 C 0.7362 0.48811 0.03484 0.0
H586 H 0.63111 0.44371 0.0236 0.0
H587 H 0.05765 0.71005 0.0243 0.0
H588 H 0.7848 0.71552 0.38925 0.0
H589 H 0.86069 0.73762 0.39193 0.0
H590 H 0.87724 0.76544 0.33412 0.0
H591 H 0.80183 0.74306 0.33121 0.0
H592 H 0.92289 0.71898 0.3705 0.0
H593 H 0.95811 0.87581 0.33521 0.0
H594 H 0.92624 0.92173 0.33131 0.0
H595 H 0.85632 0.8733 0.38145 0.0
H596 H 0.88853 0.82791 0.38587 0.0
H597 H 0.13533 0.85438 0.33456 0.0
H598 H 0.05763 0.81339 0.3384 0.0
H599 H 0.06924 0.87558 0.39019 0.0
H600 H 0.14722 0.9159 0.38675 0.0
H601 H 0.00906 0.87593 0.36189 0.0
H602 H 0.04614 0.78667 0.39541 0.0
H603 H 0.07674 0.74095 0.40251 0.0
H604 H 0.00184 0.6544 0.35965 0.0
H605 H 0.97177 0.70033 0.35186 0.0
C606 C 0.80429 0.72506 0.37702 0.0
C607 C 0.78746 0.72841 0.36011 0.0
C608 C 0.84757 0.73758 0.37857 0.0
C609 C 0.87443 0.7539 0.36328 0.0
C610 C 0.8569 0.75328 0.34609 0.0
C611 C 0.81369 0.74028 0.34447 0.0
C612 C 0.92126 0.77665 0.36548 0.0
C613 C 0.94192 0.75325 0.36861 0.0
C614 C 0.94561 0.82148 0.36342 0.0
C615 C 0.92536 0.84804 0.36074 0.0
C616 C 0.93593 0.87496 0.3454 0.0
C617 C 0.91788 0.90097 0.34312 0.0
C618 C 0.88929 0.9004 0.35611 0.0
C619 C 0.87842 0.87363 0.37137 0.0
C620 C 0.89651 0.84769 0.37375 0.0
C621 C 0.12132 0.85952 0.34673 0.0
C622 C 0.14722 0.88858 0.3603 0.0
C623 C 0.07706 0.83573 0.34898 0.0
C624 C 0.05801 0.84113 0.36468 0.0
C625 C 0.08361 0.87071 0.37809 0.0
C626 C 0.12798 0.89383 0.37605 0.0
C627 C 0.01105 0.81818 0.36636 0.0
C628 C 0.99025 0.84164 0.36383 0.0
C629 C 0.98675 0.7735 0.36911 0.0
C630 C 0.00702 0.74733 0.37291 0.0
C631 C 0.03681 0.7584 0.38723 0.0
C632 C 0.05388 0.73227 0.39146 0.0
C633 C 0.04101 0.69465 0.38162 0.0
C634 C 0.0115 0.68337 0.36736 0.0
C635 C 0.99462 0.70958 0.36297 0.0
H636 H 0.05412 0.67437 0.38497 0.0
H637 H 0.87586 0.92099 0.35443 0.0
H638 H 0.12762 0.25231 0.33049 0.0
H639 H 0.16307 0.21006 0.33106 0.0
H640 H 0.16907 0.21741 0.39007 0.0
H641 H 0.13307 0.25948 0.38968 0.0
H642 H 0.2467 0.23742 0.37401 0.0
H643 H 0.10145 0.1257 0.37191 0.0
H644 H 0.02701 0.08664 0.36087 0.0
H645 H 0.07004 0.07314 0.3078 0.0
H646 H 0.14484 0.11234 0.3185 0.0
H647 H 0.29678 0.06961 0.38562 0.0
H648 H 0.27153 0.12078 0.38666 0.0
H649 H 0.26006 0.11586 0.32776 0.0
H650 H 0.28507 0.06459 0.32655 0.0
H651 H 0.18481 0.09453 0.3451 0.0
H652 H 0.33163 0.20654 0.34843 0.0
H653 H 0.40497 0.2439 0.36077 0.0
H654 H 0.35753 0.25532 0.41313 0.0
H655 H 0.2838 0.21751 0.40116 0.0
C656 C 0.13597 0.24455 0.34362 0.0
C657 C 0.12735 0.25908 0.36004 0.0
C658 C 0.15624 0.22041 0.34391 0.0
C659 C 0.16854 0.2106 0.36061 0.0
C660 C 0.15982 0.22478 0.37705 0.0
C661 C 0.13912 0.24862 0.37679 0.0
C662 C 0.19148 0.18641 0.36072 0.0
C663 C 0.23302 0.20589 0.36794 0.0
C664 C 0.17373 0.14567 0.35252 0.0
C665 C 0.1288 0.12225 0.34597 0.0
C666 C 0.09508 0.11466 0.35784 0.0
C667 C 0.05281 0.09234 0.35168 0.0
C668 C 0.04381 0.07741 0.33365 0.0
C669 C 0.07707 0.0847 0.32177 0.0
C670 C 0.11941 0.10686 0.32789 0.0
C671 C 0.29018 0.0804 0.37283 0.0
C672 C 0.29237 0.06256 0.35602 0.0
C673 C 0.27572 0.10965 0.37346 0.0
C674 C 0.26352 0.1217 0.35729 0.0
C675 C 0.26902 0.10665 0.34039 0.0
C676 C 0.28355 0.07751 0.33974 0.0
C677 C 0.24043 0.14578 0.35813 0.0
C678 C 0.19863 0.1261 0.35114 0.0
C679 C 0.25784 0.1861 0.36671 0.0
C680 C 0.30214 0.2088 0.37394 0.0
C681 C 0.33679 0.21667 0.36262 0.0
C682 C 0.37844 0.23801 0.36954 0.0
C683 C 0.3859 0.25188 0.38774 0.0
C684 C 0.35171 0.24452 0.39904 0.0
C685 C 0.30998 0.22318 0.39219 0.0
H686 H 0.41817 0.26841 0.39307 0.0
H687 H 0.01106 0.06025 0.32889 0.0
H688 H 0.95644 0.23649 0.38971 0.0
H689 H 0.90478 0.16013 0.38941 0.0
H690 H 0.8988 0.16279 0.33046 0.0
H691 H 0.95052 0.23897 0.33058 0.0
H692 H 0.82257 0.09844 0.37357 0.0
H693 H 0.92572 0.0902 0.31587 0.0
H694 H -0.00157 0.13291 0.30315 0.0
H695 H 0.04574 0.18784 0.35617 0.0
H696 H 0.97367 0.14548 0.36914 0.0
H697 H 0.78432 0.8902 0.32884 0.0
H698 H 0.82224 0.96813 0.32922 0.0
H699 H 0.82102 0.96704 0.38832 0.0
H700 H 0.78302 0.88909 0.38814 0.0
H701 H 0.89802 0.03046 0.34463 0.0
H702 H 0.79224 0.04581 0.40112 0.0
H703 H 0.72024 0.00207 0.41427 0.0
H704 H 0.67725 0.92959 0.36445 0.0
H705 H 0.74833 0.9735 0.35084 0.0
C706 C 0.94304 0.22125 0.37673 0.0
C707 C 0.9586 0.24352 0.36015 0.0
C708 C 0.91337 0.17758 0.37659 0.0
C709 C 0.89897 0.15588 0.35989 0.0
C710 C 0.91014 0.17906 0.34347 0.0
C711 C 0.93973 0.22263 0.34359 0.0
C712 C 0.87917 0.109 0.35938 0.0
C713 C 0.83902 0.08342 0.3674 0.0
C714 C 0.90067 0.08969 0.35109 0.0
C715 C 0.94425 0.11517 0.34339 0.0
C716 C 0.95172 0.1115 0.32477 0.0
C717 C 0.99282 0.13573 0.31751 0.0
C718 C 0.02669 0.16348 0.32878 0.0
C719 C 0.01955 0.16689 0.34736 0.0
C720 C 0.97856 0.14279 0.35468 0.0
C721 C 0.79275 0.90651 0.34193 0.0
C722 C 0.78022 0.88354 0.35846 0.0
C723 C 0.81442 0.95099 0.3421 0.0
C724 C 0.82354 0.97305 0.35879 0.0
C725 C 0.81353 0.95036 0.37532 0.0
C726 C 0.79198 0.90589 0.37517 0.0
C727 C 0.84132 0.01964 0.35884 0.0
C728 C 0.88126 0.04525 0.35074 0.0
C729 C 0.81948 0.03872 0.36709 0.0
C730 C 0.77599 0.01273 0.37503 0.0
C731 C 0.76736 0.02072 0.39293 0.0
C732 C 0.72662 0.99586 0.40047 0.0
C733 C 0.69419 0.9629 0.39025 0.0
C734 C 0.70239 0.95486 0.37244 0.0
C735 C 0.74292 0.97981 0.36479 0.0
H736 H 0.66269 0.94367 0.3961 0.0
H737 H 0.05848 0.18196 0.32314 0.0
H738 H 0.24134 0.80453 0.32463 0.0
H739 H 0.20166 0.72654 0.325 0.0
H740 H 0.20165 0.72778 0.3841 0.0
H741 H 0.24133 0.80569 0.38393 0.0
H742 H 0.21563 0.66496 0.36916 0.0
H743 H 0.12285 0.72196 0.36202 0.0
H744 H 0.09587 0.76521 0.34763 0.0
H745 H 0.06527 0.68951 0.29873 0.0
H746 H 0.09338 0.64644 0.31265 0.0
H747 H 0.06125 0.45675 0.38472 0.0
H748 H 0.08557 0.53287 0.38453 0.0
H749 H 0.08963 0.53343 0.32549 0.0
H750 H 0.06475 0.45708 0.3255 0.0
H751 H 0.07127 0.59559 0.34082 0.0
H752 H 0.17518 0.549 0.34533 0.0
H753 H 0.20494 0.5068 0.35839 0.0
H754 H 0.21476 0.56359 0.41114 0.0
H755 H 0.18474 0.60617 0.39833 0.0
C756 C 0.23352 0.78823 0.33772 0.0
C757 C 0.24399 0.81122 0.35426 0.0
C758 C 0.2108 0.74374 0.33788 0.0
C759 C 0.19818 0.72169 0.35457 0.0
C760 C 0.21096 0.74441 0.3711 0.0
C761 C 0.23356 0.78889 0.37096 0.0
C762 C 0.16938 0.67508 0.35485 0.0
C763 C 0.18388 0.64987 0.36318 0.0
C764 C 0.12823 0.6556 0.34672 0.0
C765 C 0.11075 0.68116 0.33835 0.0
C766 C 0.11096 0.71481 0.3481 0.0
C767 C 0.09548 0.73939 0.34001 0.0
C768 C 0.07896 0.73025 0.32224 0.0
C769 C 0.07807 0.69657 0.3125 0.0
C770 C 0.09387 0.67209 0.32049 0.0
C771 C 0.06574 0.4726 0.37165 0.0
C772 C 0.06242 0.45116 0.35512 0.0
C773 C 0.07966 0.51615 0.37158 0.0
C774 C 0.09046 0.53878 0.35502 0.0
C775 C 0.0818 0.51647 0.33842 0.0
C776 C 0.06775 0.47281 0.33846 0.0
C777 C 0.11763 0.5857 0.35515 0.0
C778 C 0.10292 0.61089 0.34687 0.0
C779 C 0.15878 0.60541 0.36321 0.0
C780 C 0.1772 0.58027 0.37094 0.0
C781 C 0.18333 0.55219 0.35975 0.0
C782 C 0.20022 0.52816 0.36712 0.0
C783 C 0.21135 0.5321 0.38565 0.0
C784 C 0.20587 0.56035 0.39682 0.0
C785 C 0.18901 0.58453 0.3895 0.0
H786 H 0.22462 0.51362 0.39132 0.0
H787 H 0.06676 0.74919 0.31605 0.0
H788 H 0.22343 0.44205 0.38362 0.0
H789 H 0.30119 0.48395 0.38273 0.0
H790 H 0.29813 0.47815 0.32367 0.0
H791 H 0.22001 0.43614 0.32439 0.0
H792 H 0.35553 0.45759 0.33846 0.0
H793 H 0.32346 0.57 0.34345 0.0
H794 H 0.28935 0.60892 0.35596 0.0
H795 H 0.34816 0.61843 0.4082 0.0
H796 H 0.38251 0.57937 0.39603 0.0
H797 H 0.57321 0.62456 0.32607 0.0
H798 H 0.4968 0.57315 0.32559 0.0
H799 H 0.49342 0.57725 0.38461 0.0
H800 H 0.56961 0.62918 0.3852 0.0
H801 H 0.43891 0.59856 0.36876 0.0
H802 H 0.47269 0.4865 0.36252 0.0
H803 H 0.50754 0.44951 0.34877 0.0
H804 H 0.44565 0.44089 0.29742 0.0
H805 H 0.41085 0.47835 0.31079 0.0
C806 C 0.23919 0.45006 0.37041 0.0
C807 C 0.21557 0.43585 0.35407 0.0
C808 C 0.28364 0.47404 0.36994 0.0
C809 C 0.30529 0.48419 0.35313 0.0
C810 C 0.28189 0.47051 0.33677 0.0
C811 C 0.23732 0.4467 0.33722 0.0
C812 C 0.35246 0.50802 0.3528 0.0
C813 C 0.3739 0.48871 0.34484 0.0
C814 C 0.37613 0.54818 0.36143 0.0
C815 C 0.35533 0.57147 0.36886 0.0
C816 C 0.32891 0.58014 0.35764 0.0
C817 C 0.30967 0.60237 0.36465 0.0
C818 C 0.3166 0.61614 0.38285 0.0
C819 C 0.34286 0.60777 0.39409 0.0
C820 C 0.36233 0.58569 0.38713 0.0
C821 C 0.55652 0.61373 0.33897 0.0
C822 C 0.57734 0.63172 0.35563 0.0
C823 C 0.51279 0.58419 0.33868 0.0
C824 C 0.48941 0.57183 0.35507 0.0
C825 C 0.51089 0.58675 0.37181 0.0
C826 C 0.55452 0.6163 0.3721 0.0
C827 C 0.44217 0.54789 0.35467 0.0
C828 C 0.42065 0.56737 0.36242 0.0
C829 C 0.41856 0.50812 0.34569 0.0
C830 C 0.43948 0.48561 0.33762 0.0
C831 C 0.4668 0.47706 0.34825 0.0
C832 C 0.48648 0.45593 0.34053 0.0
C833 C 0.4789 0.44295 0.32222 0.0
C834 C 0.45153 0.45099 0.3116 0.0
C835 C 0.43178 0.47213 0.31925 0.0
H836 H 0.49416 0.42659 0.31627 0.0
H837 H 0.30158 0.63325 0.38826 0.0
H838 H 0.41474 0.97553 0.32146 0.0
H839 H 0.46879 0.95375 0.31934 0.0
H840 H 0.46204 0.93418 0.37776 0.0
H841 H 0.40878 0.95629 0.38011 0.0
H842 H 0.55177 0.97568 0.34069 0.0
H843 H 0.43199 0.82393 0.37925 0.0
H844 H 0.3544 0.77848 0.38419 0.0
H845 H 0.32966 0.8196 0.33275 0.0
H846 H 0.40704 0.86451 0.32732 0.0
H847 H 0.62803 0.83983 0.37834 0.0
H848 H 0.59142 0.88095 0.37465 0.0
H849 H 0.54086 0.81958 0.32268 0.0
H850 H 0.57837 0.77919 0.32599 0.0
H851 H 0.48072 0.81971 0.3522 0.0
H852 H 0.60566 0.9062 0.31675 0.0
H853 H 0.68197 0.95079 0.30925 0.0
H854 H 0.69615 0.03986 0.35132 0.0
H855 H 0.62016 0.99505 0.35952 0.0
C856 C 0.42573 0.9679 0.33391 0.0
C857 C 0.40669 0.96669 0.35087 0.0
C858 C 0.45667 0.95558 0.33268 0.0
C859 C 0.46856 0.94164 0.34836 0.0
C860 C 0.45284 0.94451 0.3655 0.0
C861 C 0.42244 0.95729 0.36679 0.0
C862 C 0.4925 0.91866 0.34673 0.0
C863 C 0.53645 0.94162 0.3432 0.0
C864 C 0.47199 0.87412 0.34971 0.0
C865 C 0.42533 0.848 0.353 0.0
C866 C 0.40998 0.82329 0.36901 0.0
C867 C 0.36605 0.79755 0.37187 0.0
C868 C 0.33716 0.79617 0.3588 0.0
C869 C 0.35209 0.82078 0.34289 0.0
C870 C 0.396 0.84646 0.33993 0.0
C871 C 0.60889 0.83489 0.36618 0.0
C872 C 0.60573 0.8061 0.3525 0.0
C873 C 0.58847 0.85874 0.36401 0.0
C874 C 0.56414 0.85366 0.34827 0.0
C875 C 0.56006 0.82424 0.3348 0.0
C876 C 0.58123 0.80107 0.33676 0.0
C877 C 0.54037 0.87679 0.34658 0.0
C878 C 0.49626 0.85379 0.34964 0.0
C879 C 0.56084 0.92118 0.34306 0.0
C880 C 0.60719 0.94685 0.33892 0.0
C881 C 0.62516 0.93478 0.32468 0.0
C882 C 0.66835 0.96026 0.32022 0.0
C883 C 0.69383 -0.00176 0.32973 0.0
C884 C 0.67629 0.01058 0.34387 0.0
C885 C 0.63321 0.98501 0.3485 0.0
H886 H 0.72722 0.01801 0.32621 0.0
H887 H 0.30325 0.77574 0.36094 0.0
H888 H 0.80859 0.2392 0.66476 0.0
H889 H 0.73084 0.20324 0.666 0.0
H890 H 0.73617 0.21679 0.72482 0.0
H891 H 0.8143 0.25276 0.72376 0.0
H892 H 0.67803 0.12742 0.68401 0.0
H893 H 0.64884 0.23143 0.73648 0.0
H894 H 0.68372 0.30663 0.74646 0.0
H895 H 0.74689 0.3469 0.69444 0.0
H896 H 0.71121 0.27232 0.68391 0.0
H897 H 0.45877 0.08611 0.72358 0.0
H898 H 0.5352 0.1119 0.72559 0.0
H899 H 0.54176 0.10657 0.66673 0.0
H900 H 0.46539 0.08126 0.66456 0.0
H901 H 0.59399 0.18963 0.7094 0.0
H902 H 0.62505 0.08935 0.65636 0.0
H903 H 0.5903 0.01546 0.64474 0.0
H904 H 0.52352 0.96944 0.69572 0.0
H905 H 0.5583 0.04295 0.70774 0.0
C906 C 0.79336 0.2351 0.67796 0.0
C907 C 0.81758 0.24869 0.69419 0.0
C908 C 0.74893 0.21427 0.67864 0.0
C909 C 0.72794 0.20719 0.69549 0.0
C910 C 0.75195 0.22209 0.71168 0.0
C911 C 0.7965 0.24267 0.71104 0.0
C912 C 0.68083 0.18307 0.69611 0.0
C913 C 0.65956 0.14107 0.68942 0.0
C914 C 0.65708 0.20086 0.70347 0.0
C915 C 0.67784 0.2461 0.70953 0.0
C916 C 0.66995 0.25636 0.72713 0.0
C917 C 0.68977 0.29894 0.73286 0.0
C918 C 0.71754 0.33156 0.7211 0.0
C919 C 0.72534 0.32169 0.70354 0.0
C920 C 0.70531 0.27924 0.69769 0.0
C921 C 0.47615 0.08948 0.71109 0.0
C922 C 0.45608 0.08234 0.69391 0.0
C923 C 0.51989 0.10433 0.71227 0.0
C924 C 0.54405 0.11146 0.69631 0.0
C925 C 0.52355 0.10112 0.67921 0.0
C926 C 0.47988 0.08664 0.67801 0.0
C927 C 0.59114 0.13391 0.69731 0.0
C928 C 0.61246 0.17575 0.70422 0.0
C929 C 0.61491 0.11619 0.68992 0.0
C930 C 0.59401 0.07176 0.68288 0.0
C931 C 0.60307 0.06346 0.66512 0.0
C932 C 0.58334 0.02163 0.65846 0.0
C933 C 0.55462 0.98779 0.66946 0.0
C934 C 0.54564 0.9957 0.68718 0.0
C935 C 0.56529 0.03746 0.69391 0.0
H936 H 0.53939 0.95544 0.66428 0.0
H937 H 0.73298 0.36447 0.72559 0.0
H938 H 0.97194 0.41695 0.66361 0.0
H939 H 0.94631 0.46763 0.66501 0.0
H940 H 0.94927 0.4652 0.72404 0.0
H941 H 0.97468 0.41413 0.72285 0.0
H942 H 0.86556 0.43422 0.68282 0.0
H943 H 0.95589 0.56309 0.73781 0.0
H944 H 0.02913 0.60734 0.74974 0.0
H945 H 0.08043 0.60008 0.6977 0.0
H946 H 0.00755 0.55629 0.68539 0.0
H947 H 0.80152 0.59446 0.72475 0.0
H948 H 0.83924 0.55425 0.72614 0.0
H949 H 0.82608 0.53573 0.66758 0.0
H950 H 0.78797 0.57532 0.66607 0.0
H951 H 0.91481 0.57677 0.71024 0.0
H952 H 0.82101 0.44406 0.65618 0.0
H953 H 0.74672 0.39773 0.64582 0.0
H954 H 0.70045 0.40863 0.69851 0.0
H955 H 0.77441 0.45517 0.7092 0.0
C956 C 0.96874 0.42834 0.67692 0.0
C957 C 0.97424 0.41064 0.69314 0.0
C958 C 0.95396 0.45723 0.67766 0.0
C959 C 0.94524 0.4694 0.69461 0.0
C960 C 0.95578 0.45601 0.71083 0.0
C961 C 0.97035 0.42684 0.71011 0.0
C962 C 0.9184 0.48945 0.69528 0.0
C963 C 0.8765 0.4657 0.68855 0.0
C964 C 0.93221 0.52952 0.70355 0.0
C965 C 0.97622 0.55596 0.71076 0.0
C966 C 0.98281 0.57101 0.72891 0.0
C967 C 0.02426 0.59602 0.73573 0.0
C968 C 0.05941 0.60638 0.72451 0.0
C969 C 0.05318 0.59185 0.70641 0.0
C970 C 0.01179 0.56684 0.69952 0.0
C971 C 0.80594 0.58113 0.71221 0.0
C972 C 0.792 0.58826 0.69527 0.0
C973 C 0.82768 0.55838 0.71303 0.0
C974 C 0.83547 0.54212 0.69698 0.0
C975 C 0.82 0.54765 0.68017 0.0
C976 C 0.79832 0.57038 0.67932 0.0
C977 C 0.86215 0.52181 0.6975 0.0
C978 C 0.90384 0.54527 0.70453 0.0
C979 C 0.84798 0.48111 0.68976 0.0
C980 C 0.8033 0.45348 0.68341 0.0
C981 C 0.79498 0.43663 0.66555 0.0
C982 C 0.75292 0.41045 0.65961 0.0
C983 C 0.71889 0.40062 0.67145 0.0
C984 C 0.72684 0.41686 0.68928 0.0
C985 C 0.76883 0.44321 0.69527 0.0
H986 H 0.68636 0.3802 0.66686 0.0
H987 H 0.09147 0.62575 0.72981 0.0
H988 H 0.62983 0.57447 0.72281 0.0
H989 H 0.57404 0.49962 0.72316 0.0
H990 H 0.56092 0.50227 0.66456 0.0
H991 H 0.61762 0.57718 0.66397 0.0
H992 H 0.47996 0.44922 0.68791 0.0
H993 H 0.62233 0.47252 0.67447 0.0
H994 H 0.69943 0.50705 0.68121 0.0
H995 H 0.6718 0.44996 0.73467 0.0
H996 H 0.59445 0.41562 0.72835 0.0
H997 H 0.40476 0.23077 0.66343 0.0
H998 H 0.44226 0.30882 0.6653 0.0
H999 H 0.47444 0.30276 0.7217 0.0
H1000 H 0.43616 0.22466 0.72009 0.0
H1001 H 0.54428 0.3586 0.70045 0.0
H1002 H 0.40592 0.33259 0.7152 0.0
H1003 H 0.32931 0.30986 0.71423 0.0
H1004 H 0.34717 0.37513 0.66305 0.0
H1005 H 0.42388 0.39793 0.6636 0.0
C1006 C 0.61437 0.55969 0.71005 0.0
C1007 C 0.62883 0.58167 0.69334 0.0
C1008 C 0.58247 0.51682 0.71028 0.0
C1009 C 0.56401 0.49546 0.69385 0.0
C1010 C 0.57502 0.51834 0.67736 0.0
C1011 C 0.60742 0.56114 0.67707 0.0
C1012 C 0.53777 0.44843 0.69367 0.0
C1013 C 0.49388 0.42916 0.6903 0.0
C1014 C 0.55615 0.42278 0.69749 0.0
C1015 C 0.60262 0.44189 0.70101 0.0
C1016 C 0.63269 0.46756 0.68771 0.0
C1017 C 0.67643 0.48713 0.69145 0.0
C1018 C 0.69048 0.481 0.70841 0.0
C1019 C 0.66084 0.45489 0.72158 0.0
C1020 C 0.61705 0.4353 0.71791 0.0
C1021 C 0.41992 0.24606 0.67622 0.0
C1022 C 0.41777 0.22158 0.69158 0.0
C1023 C 0.44092 0.29062 0.67731 0.0
C1024 C 0.46081 0.31151 0.69368 0.0
C1025 C 0.45906 0.2872 0.70898 0.0
C1026 C 0.43732 0.24263 0.70801 0.0
C1027 C 0.48596 0.35877 0.69441 0.0
C1028 C 0.53001 0.37828 0.69787 0.0
C1029 C 0.46749 0.38456 0.69089 0.0
C1030 C 0.42064 0.36661 0.68935 0.0
C1031 C 0.39341 0.34141 0.70355 0.0
C1032 C 0.35004 0.32894 0.70319 0.0
C1033 C 0.33351 0.3415 0.68871 0.0
C1034 C 0.36012 0.36581 0.67436 0.0
C1035 C 0.40352 0.37842 0.67466 0.0
H1036 H 0.29996 0.33195 0.68849 0.0
H1037 H 0.72432 0.4961 0.71129 0.0
H1038 H 0.74017 0.79812 0.7158 0.0
H1039 H 0.76009 0.87313 0.71423 0.0
H1040 H 0.76417 0.86877 0.65525 0.0
H1041 H 0.74412 0.79365 0.65669 0.0
H1042 H 0.83965 0.92979 0.67014 0.0
H1043 H 0.69166 0.88694 0.67571 0.0
H1044 H 0.61952 0.849 0.68919 0.0
H1045 H 0.66892 0.9158 0.73997 0.0
H1046 H 0.7415 0.95374 0.72688 0.0
H1047 H 0.90014 0.14733 0.65833 0.0
H1048 H 0.86261 0.06945 0.65706 0.0
H1049 H 0.84837 0.06368 0.71585 0.0
H1050 H 0.88523 0.14157 0.71723 0.0
H1051 H 0.77484 0.00762 0.69938 0.0
H1052 H 0.92166 0.0418 0.69644 0.0
H1053 H 0.99567 0.0775 0.68483 0.0
H1054 H 0.94987 0.02705 0.63108 0.0
H1055 H 0.87561 0.9904 0.64244 0.0
C1056 C 0.74407 0.81269 0.70245 0.0
C1057 C 0.74127 0.79001 0.68635 0.0
C1058 C 0.7554 0.85563 0.70159 0.0
C1059 C 0.76391 0.87657 0.68462 0.0
C1060 C 0.75796 0.8532 0.66848 0.0
C1061 C 0.74642 0.8102 0.66933 0.0
C1062 C 0.78415 0.92363 0.68393 0.0
C1063 C 0.82505 0.94679 0.67618 0.0
C1064 C 0.76575 0.94573 0.69242 0.0
C1065 C 0.72212 0.92294 0.70035 0.0
C1066 C 0.68722 0.89329 0.6898 0.0
C1067 C 0.64623 0.87183 0.69737 0.0
C1068 C 0.63965 0.87992 0.71544 0.0
C1069 C 0.67406 0.90955 0.72598 0.0
C1070 C 0.71513 0.93108 0.71848 0.0
C1071 C 0.88914 0.12951 0.671 0.0
C1072 C 0.89589 0.15062 0.6879 0.0
C1073 C 0.86785 0.08501 0.67026 0.0
C1074 C 0.85302 0.06081 0.68638 0.0
C1075 C 0.85954 0.08177 0.70325 0.0
C1076 C 0.8808 0.12628 0.70401 0.0
C1077 C 0.83028 0.01359 0.68562 0.0
C1078 C 0.78912 0.9905 0.69316 0.0
C1079 C 0.84859 0.99142 0.67715 0.0
C1080 C 0.89311 0.01373 0.67023 0.0
C1081 C 0.92738 0.03854 0.68212 0.0
C1082 C 0.96935 0.05885 0.6756 0.0
C1083 C 0.97743 0.0549 0.6572 0.0
C1084 C 0.94356 0.03021 0.64531 0.0
C1085 C 0.90154 0.00947 0.6518 0.0
H1086 H 0.00995 0.07079 0.65218 0.0
H1087 H 0.60789 0.86328 0.72127 0.0
H1088 H 0.89564 0.76063 0.65875 0.0
H1089 H 0.97358 0.79488 0.65876 0.0
H1090 H 0.9746 0.80403 0.71773 0.0
H1091 H 0.89693 0.77055 0.71783 0.0
H1092 H 0.03448 0.87553 0.70381 0.0
H1093 H 0.9911 0.72909 0.69661 0.0
H1094 H 0.95202 0.65685 0.68327 0.0
H1095 H 0.01516 0.70565 0.63177 0.0
H1096 H 0.05427 0.77833 0.64474 0.0
H1097 H 0.24792 0.94547 0.71514 0.0
H1098 H 0.17395 0.88733 0.71543 0.0
H1099 H 0.16654 0.8981 0.65689 0.0
H1100 H 0.24081 0.95606 0.65639 0.0
H1101 H 0.11049 0.81169 0.67196 0.0
H1102 H 0.14624 0.95997 0.68009 0.0
H1103 H 0.18704 0.02997 0.69497 0.0
H1104 H 0.13734 0.97308 0.74742 0.0
H1105 H 0.0965 0.90222 0.73278 0.0
C1106 C 0.91248 0.7703 0.67171 0.0
C1107 C 0.89004 0.76287 0.68829 0.0
C1108 C 0.957 0.78945 0.67171 0.0
C1109 C 0.97987 0.80126 0.68828 0.0
C1110 C 0.95762 0.79494 0.70479 0.0
C1111 C 0.91318 0.77591 0.70481 0.0
C1112 C 0.02712 0.82146 0.6884 0.0
C1113 C 0.05089 0.86108 0.6971 0.0
C1114 C 0.04876 0.80289 0.67951 0.0
C1115 C 0.02533 0.75926 0.67161 0.0
C1116 C 0.9964 0.7245 0.6824 0.0
C1117 C 0.97429 0.68345 0.67491 0.0
C1118 C 0.98102 0.67669 0.65667 0.0
C1119 C 0.00995 0.71095 0.64589 0.0
C1120 C 0.03215 0.75208 0.65331 0.0
C1121 C 0.2312 0.9344 0.70221 0.0
C1122 C 0.24992 0.95614 0.6858 0.0
C1123 C 0.18888 0.90107 0.70241 0.0
C1124 C 0.16457 0.88915 0.68625 0.0
C1125 C 0.18475 0.90699 0.66952 0.0
C1126 C 0.22725 0.94026 0.66929 0.0
C1127 C 0.11729 0.86549 0.68732 0.0
C1128 C 0.09371 0.82558 0.6788 0.0
C1129 C 0.09553 0.88328 0.69663 0.0
C1130 C 0.1187 0.92587 0.70538 0.0
C1131 C 0.14414 0.96237 0.69481 0.0
C1132 C 0.16731 0.00223 0.70321 0.0
C1133 C 0.16499 0.00613 0.72216 0.0
C1134 C 0.13919 0.97005 0.73274 0.0
C1135 C 0.11599 0.93001 0.7244 0.0
H1136 H 0.18309 0.03708 0.72863 0.0
H1137 H 0.96388 0.64489 0.6509 0.0
H1138 H 0.24438 0.11727 0.65323 0.0
H1139 H 0.20285 0.15366 0.65154 0.0
H1140 H 0.19113 0.14863 0.71044 0.0
H1141 H 0.23254 0.11248 0.7123 0.0
H1142 H 0.11805 0.13664 0.69229 0.0
H1143 H 0.27088 0.2277 0.69076 0.0
H1144 H 0.34156 0.25064 0.67751 0.0
H1145 H 0.30501 0.28817 0.62801 0.0
H1146 H 0.23312 0.26347 0.64068 0.0
H1147 H 0.07556 0.29319 0.71575 0.0
H1148 H 0.12533 0.26661 0.71326 0.0
H1149 H 0.12419 0.27614 0.65441 0.0
H1150 H 0.07496 0.30365 0.65675 0.0
H1151 H 0.20359 0.28594 0.6699 0.0
H1152 H 0.05091 0.19017 0.66985 0.0
H1153 H 0.97807 0.16224 0.6816 0.0
H1154 H 0.01493 0.13303 0.73314 0.0
H1155 H 0.08854 0.16165 0.72172 0.0
C1156 C 0.23214 0.12306 0.66579 0.0
C1157 C 0.24235 0.11279 0.68293 0.0
C1158 C 0.20846 0.14379 0.66478 0.0
C1159 C 0.19482 0.15442 0.68089 0.0
C1160 C 0.20171 0.14084 0.69788 0.0
C1161 C 0.22553 0.12038 0.69891 0.0
C1162 C 0.1777 0.18371 0.68043 0.0
C1163 C 0.13681 0.1693 0.68748 0.0
C1164 C 0.20224 0.22613 0.67386 0.0
C1165 C 0.24619 0.24295 0.66656 0.0
C1166 C 0.27753 0.24011 0.67692 0.0
C1167 C 0.31784 0.25327 0.66948 0.0
C1168 C 0.32773 0.27054 0.65186 0.0
C1169 C 0.29725 0.27462 0.64164 0.0
C1170 C 0.25663 0.26086 0.64892 0.0
C1171 C 0.08711 0.29128 0.70229 0.0
C1172 C 0.07005 0.29895 0.68638 0.0
C1173 C 0.11565 0.27614 0.70091 0.0
C1174 C 0.12736 0.26839 0.68364 0.0
C1175 C 0.11513 0.28158 0.66785 0.0
C1176 C 0.08665 0.29693 0.66922 0.0
C1177 C 0.1442 0.23889 0.68205 0.0
C1178 C 0.18488 0.25321 0.6746 0.0
C1179 C 0.11954 0.19618 0.68817 0.0
C1180 C 0.07529 0.17854 0.69502 0.0
C1181 C 0.04361 0.17825 0.68376 0.0
C1182 C 0.00216 0.16232 0.69038 0.0
C1183 C 0.99185 0.14609 0.70818 0.0
C1184 C 0.02301 0.14573 0.71938 0.0
C1185 C 0.0646 0.16182 0.71284 0.0
H1186 H 0.95971 0.1335 0.71328 0.0
H1187 H 0.35911 0.28111 0.64619 0.0
H1188 H 0.10021 0.3202 0.25326 0.0
H1189 H 0.09405 0.33945 0.22165 0.0
H1190 H 0.04155 0.41593 0.24141 0.0
H1191 H 0.04637 0.39551 0.27289 0.0
H1192 H 0.99485 0.36551 0.21396 0.0
H1193 H 0.14379 0.46238 0.22424 0.0
H1194 H 0.21747 0.48335 0.23324 0.0
H1195 H 0.22249 0.4035 0.19095 0.0
H1196 H 0.14858 0.38156 0.18186 0.0
H1197 H 0.99459 0.45443 0.12761 0.0
H1198 H 0.01104 0.44779 0.15964 0.0
H1199 H 0.06608 0.37161 0.14255 0.0
H1200 H 0.04984 0.37853 0.11059 0.0
H1201 H 0.1136 0.42584 0.169 0.0
H1202 H 0.96435 0.32575 0.15989 0.0
H1203 H 0.89018 0.30296 0.15094 0.0
H1204 H 0.88544 0.38708 0.19116 0.0
H1205 H 0.95982 0.41081 0.20018 0.0
C1206 C 0.08787 0.34154 0.2508 0.0
C1207 C 0.07482 0.35724 0.26555 0.0
C1208 C 0.08455 0.3527 0.23278 0.0
C1209 C 0.06797 0.37973 0.22915 0.0
C1210 C 0.05488 0.39543 0.24388 0.0
C1211 C 0.05822 0.38426 0.2619 0.0
C1212 C 0.06211 0.38968 0.20996 0.0
C1213 C 0.021 0.37943 0.20422 0.0
C1214 C 0.09596 0.40674 0.19709 0.0
C1215 C 0.14049 0.42004 0.20247 0.0
C1216 C 0.16048 0.44903 0.21695 0.0
C1217 C 0.20231 0.46114 0.22205 0.0
C1218 C 0.22461 0.4447 0.2127 0.0
C1219 C 0.20516 0.41619 0.19819 0.0
C1220 C 0.16331 0.40394 0.19305 0.0
C1221 C 0.0106 0.43669 0.13076 0.0
C1222 C 0.02161 0.41763 0.11664 0.0
C1223 C 0.01985 0.43275 0.14902 0.0
C1224 C 0.03946 0.40884 0.15355 0.0
C1225 C 0.05121 0.39044 0.1394 0.0
C1226 C 0.0422 0.39465 0.12113 0.0
C1227 C 0.04634 0.40167 0.17303 0.0
C1228 C 0.08756 0.41227 0.17879 0.0
C1229 C 0.01256 0.38473 0.18593 0.0
C1230 C 0.96779 0.37038 0.18057 0.0
C1231 C 0.94759 0.33962 0.16673 0.0
C1232 C 0.9055 0.3265 0.16166 0.0
C1233 C 0.88315 0.34365 0.17044 0.0
C1234 C 0.90282 0.37388 0.18435 0.0
C1235 C 0.94492 0.38716 0.18946 0.0
H1236 H 0.85057 0.33344 0.1665 0.0
H1237 H 0.25699 0.45411 0.21667 0.0
H1238 H 0.7078 0.79453 0.25273 0.0
H1239 H 0.68722 0.76908 0.22116 0.0
H1240 H 0.61451 0.63965 0.2409 0.0
H1241 H 0.63568 0.66509 0.27239 0.0
H1242 H 0.66751 0.64751 0.21276 0.0
H1243 H 0.56374 0.68999 0.22485 0.0
H1244 H 0.53896 0.73919 0.23458 0.0
H1245 H 0.61308 0.82673 0.1919 0.0
H1246 H 0.63881 0.77832 0.18207 0.0
H1247 H 0.57956 0.55497 0.12706 0.0
H1248 H 0.58544 0.57767 0.1591 0.0
H1249 H 0.65014 0.70936 0.14182 0.0
H1250 H 0.64359 0.68649 0.10981 0.0
H1251 H 0.59765 0.69874 0.16917 0.0
H1252 H 0.70527 0.66098 0.1582 0.0
H1253 H 0.73351 0.61464 0.14842 0.0
H1254 H 0.65645 0.5218 0.18894 0.0
H1255 H 0.62731 0.56737 0.1988 0.0
C1256 C 0.68694 0.76075 0.25028 0.0
C1257 C 0.67257 0.73189 0.26501 0.0
C1258 C 0.67507 0.74623 0.23229 0.0
C1259 C 0.64887 0.70247 0.22867 0.0
C1260 C 0.6344 0.67358 0.24338 0.0
C1261 C 0.64606 0.68816 0.26139 0.0
C1262 C 0.6387 0.6867 0.20947 0.0
C1263 C 0.65152 0.65811 0.20332 0.0
C1264 C 0.61908 0.70158 0.19699 0.0
C1265 C 0.6035 0.73067 0.20282 0.0
C1266 C 0.57503 0.71988 0.21762 0.0
C1267 C 0.56076 0.74761 0.22314 0.0
C1268 C 0.57451 0.78611 0.21389 0.0
C1269 C 0.60248 0.79692 0.19906 0.0
C1270 C 0.61689 0.76932 0.1935 0.0
C1271 C 0.59448 0.58869 0.13017 0.0
C1272 C 0.61056 0.61894 0.11599 0.0
C1273 C 0.59805 0.60169 0.14844 0.0
C1274 C 0.61878 0.64531 0.15294 0.0
C1275 C 0.63386 0.67555 0.13873 0.0
C1276 C 0.62988 0.66248 0.12042 0.0
C1277 C 0.62638 0.65943 0.17245 0.0
C1278 C 0.6133 0.68785 0.17864 0.0
C1279 C 0.64622 0.64478 0.18496 0.0
C1280 C 0.66378 0.61738 0.1791 0.0
C1281 C 0.69411 0.63054 0.16493 0.0
C1282 C 0.71031 0.60444 0.15939 0.0
C1283 C 0.69669 0.56524 0.16802 0.0
C1284 C 0.66692 0.55213 0.18224 0.0
C1285 C 0.65057 0.57809 0.18782 0.0
H1286 H 0.70928 0.54508 0.16371 0.0
H1287 H 0.56342 0.80753 0.21818 0.0
H1288 H 0.36739 0.05035 0.11716 0.0
H1289 H 0.34799 0.02997 0.14915 0.0
H1290 H 0.39488 0.94165 0.1453 0.0
H1291 H 0.41463 0.96233 0.11317 0.0
H1292 H 0.32014 0.90768 0.16492 0.0
H1293 H 0.45544 0.0358 0.16562 0.0
H1294 H 0.50824 0.10992 0.15736 0.0
H1295 H 0.42907 0.15391 0.18161 0.0
H1296 H 0.37548 0.07995 0.18979 0.0
H1297 H 0.36 0.97338 0.26964 0.0
H1298 H 0.38452 0.97899 0.23803 0.0
H1299 H 0.25404 0.91877 0.21911 0.0
H1300 H 0.22941 0.91153 0.25086 0.0
H1301 H 0.37874 0.02332 0.21141 0.0
H1302 H 0.24281 0.86774 0.17868 0.0
H1303 H 0.19445 0.79266 0.18732 0.0
H1304 H 0.28375 0.80133 0.22829 0.0
H1305 H 0.33291 0.87624 0.21973 0.0
C1306 C 0.37332 0.0264 0.12312 0.0
C1307 C 0.39213 0.00766 0.1126 0.0
C1308 C 0.36229 0.01481 0.14139 0.0
C1309 C 0.37038 0.9846 0.14971 0.0
C1310 C 0.3882 0.96492 0.13915 0.0
C1311 C 0.39921 0.97653 0.12076 0.0
C1312 C 0.3614 0.97496 0.16958 0.0
C1313 C 0.33302 0.93289 0.17511 0.0
C1314 C 0.379 0.00768 0.18297 0.0
C1315 C 0.4113 0.05228 0.1782 0.0
C1316 C 0.44915 0.06125 0.16909 0.0
C1317 C 0.47924 0.10324 0.16443 0.0
C1318 C 0.47198 0.1366 0.16893 0.0
C1319 C 0.43465 0.12803 0.17813 0.0
C1320 C 0.40442 0.08609 0.1828 0.0
C1321 C 0.33645 0.95986 0.25883 0.0
C1322 C 0.29264 0.94087 0.26279 0.0
C1323 C 0.35054 0.96368 0.2407 0.0
C1324 C 0.32117 0.94883 0.22612 0.0
C1325 C 0.27736 0.92966 0.23008 0.0
C1326 C 0.26329 0.92575 0.24821 0.0
C1327 C 0.33643 0.95613 0.20677 0.0
C1328 C 0.36602 0.99791 0.2013 0.0
C1329 C 0.32052 0.92298 0.19355 0.0
C1330 C 0.29138 0.87775 0.19865 0.0
C1331 C 0.25222 0.85357 0.18947 0.0
C1332 C 0.22465 0.81105 0.19437 0.0
C1333 C 0.23597 0.79227 0.20838 0.0
C1334 C 0.27495 0.81595 0.21749 0.0
C1335 C 0.30265 0.85847 0.21263 0.0
H1336 H 0.21456 0.75936 0.21216 0.0
H1337 H 0.49531 0.16908 0.16531 0.0
H1338 H 0.44057 0.99359 0.91665 0.0
H1339 H 0.43259 0.01186 0.88502 0.0
H1340 H 0.36605 0.07496 0.90484 0.0
H1341 H 0.37347 0.05613 0.93632 0.0
H1342 H 0.32356 0.01931 0.87682 0.0
H1343 H 0.46614 0.13315 0.88892 0.0
H1344 H 0.54132 0.1644 0.89851 0.0
H1345 H 0.56297 0.0967 0.8554 0.0
H1346 H 0.48771 0.06453 0.84572 0.0
H1347 H 0.30857 0.10486 0.79207 0.0
H1348 H 0.32676 0.09951 0.82398 0.0
H1349 H 0.40409 0.0467 0.80564 0.0
H1350 H 0.38629 0.05264 0.77381 0.0
H1351 H 0.4427 0.09969 0.83324 0.0
H1352 H 0.30167 0.98295 0.82195 0.0
H1353 H 0.22626 0.94846 0.81227 0.0
H1354 H 0.20135 0.01735 0.85373 0.0
H1355 H 0.2768 0.05271 0.8635 0.0
C1356 C 0.42483 0.01189 0.91418 0.0
C1357 C 0.40858 0.02438 0.92891 0.0
C1358 C 0.42037 0.02241 0.89618 0.0
C1359 C 0.39914 0.04522 0.89258 0.0
C1360 C 0.38289 0.0577 0.90731 0.0
C1361 C 0.38763 0.04745 0.9253 0.0
C1362 C 0.39186 0.05408 0.87343 0.0
C1363 C 0.34964 0.03751 0.86738 0.0
C1364 C 0.42584 0.07666 0.86096 0.0
C1365 C 0.47116 0.09612 0.8667 0.0
C1366 C 0.48683 0.12465 0.88158 0.0
C1367 C 0.52948 0.14258 0.88701 0.0
C1368 C 0.55688 0.13246 0.8776 0.0
C1369 C 0.5417 0.10447 0.8627 0.0
C1370 C 0.49905 0.08641 0.85722 0.0
C1371 C 0.32987 0.09266 0.79493 0.0
C1372 C 0.34659 0.07985 0.78051 0.0
C1373 C 0.34011 0.08939 0.81312 0.0
C1374 C 0.36644 0.07221 0.81727 0.0
C1375 C 0.38394 0.06029 0.80282 0.0
C1376 C 0.37401 0.06395 0.78462 0.0
C1377 C 0.37434 0.06506 0.83663 0.0
C1378 C 0.41662 0.08174 0.84271 0.0
C1379 C 0.34039 0.04213 0.84912 0.0
C1380 C 0.29498 0.02081 0.84332 0.0
C1381 C 0.28018 0.99098 0.82891 0.0
C1382 C 0.23743 0.97124 0.82342 0.0
C1383 C 0.20906 0.9808 0.83235 0.0
C1384 C 0.22338 0.01004 0.84681 0.0
C1385 C 0.26612 0.02992 0.85234 0.0
H1386 H 0.17597 0.96548 0.82808 0.0
H1387 H 0.58989 0.14638 0.88183 0.0
H1388 H 0.96383 0.42229 0.93155 0.0
H1389 H 0.9445 0.40097 0.89954 0.0
H1390 H 0.04725 0.37365 0.89517 0.0
H1391 H 0.0653 0.39265 0.92732 0.0
H1392 H 0.04432 0.42786 0.86683 0.0
H1393 H 0.95281 0.29391 0.89838 0.0
H1394 H 0.89639 0.24859 0.92035 0.0
H1395 H 0.80708 0.27342 0.89192 0.0
H1396 H 0.86322 0.31944 0.86992 0.0
H1397 H 0.02348 0.31227 0.7877 0.0
H1398 H 0.02878 0.33754 0.81904 0.0
H1399 H 0.90465 0.32622 0.81399 0.0
H1400 H 0.89814 0.29824 0.78286 0.0
H1401 H 0.91157 0.29879 0.84643 0.0
H1402 H -0.00202 0.42543 0.81291 0.0
H1403 H 0.05294 0.47294 0.79087 0.0
H1404 H 0.14974 0.46684 0.82263 0.0
H1405 H 0.09528 0.41877 0.84473 0.0
C1406 C 0.98142 0.41041 0.92404 0.0
C1407 C 0.01549 0.40813 0.93225 0.0
C1408 C 0.97068 0.39881 0.90562 0.0
C1409 C 0.99437 0.38559 0.89502 0.0
C1410 C 0.02858 0.38379 0.9031 0.0
C1411 C 0.03886 0.3947 0.92148 0.0
C1412 C 0.98454 0.37433 0.87537 0.0
C1413 C 0.0154 0.39957 0.86234 0.0
C1414 C 0.94606 0.33838 0.86949 0.0
C1415 C 0.91233 0.31055 0.88265 0.0
C1416 C 0.92126 0.29005 0.89692 0.0
C1417 C 0.88931 0.26416 0.90936 0.0
C1418 C 0.84822 0.25825 0.90757 0.0
C1419 C 0.83895 0.2781 0.89331 0.0
C1420 C 0.87082 0.30408 0.88085 0.0
C1421 C 0.99728 0.31516 0.79323 0.0
C1422 C 0.96094 0.30439 0.78252 0.0
C1423 C 0.0005 0.33002 0.81113 0.0
C1424 C 0.96766 0.33503 0.81878 0.0
C1425 C 0.93075 0.32334 0.80831 0.0
C1426 C 0.92734 0.308 0.79036 0.0
C1427 C 0.97206 0.35164 0.83783 0.0
C1428 C 0.94022 0.32753 0.85078 0.0
C1429 C 0.00944 0.38913 0.84363 0.0
C1430 C 0.04245 0.41826 0.83043 0.0
C1431 C 0.03094 0.43399 0.81514 0.0
C1432 C 0.06202 0.46105 0.80264 0.0
C1433 C 0.10479 0.47285 0.80534 0.0
C1434 C 0.11659 0.45767 0.82056 0.0
C1435 C 0.08563 0.43056 0.8331 0.0
H1436 H 0.12881 0.4938 0.79564 0.0
H1437 H 0.82352 0.23819 0.91721 0.0
H1438 H 0.67135 0.63755 0.77582 0.0
H1439 H 0.64705 0.61899 0.80748 0.0
H1440 H 0.77716 0.69353 0.82642 0.0
H1441 H 0.80168 0.7108 0.7946 0.0
H1442 H 0.73398 0.62027 0.84602 0.0
H1443 H 0.71083 0.7344 0.82697 0.0
H1444 H 0.68291 0.76975 0.80696 0.0
H1445 H 0.55467 0.66868 0.81693 0.0
H1446 H 0.58189 0.63241 0.83682 0.0
H1447 H 0.69259 0.65449 0.93836 0.0
H1448 H 0.71653 0.66035 0.90657 0.0
H1449 H 0.58526 0.59163 0.88851 0.0
H1450 H 0.56147 0.58627 0.92034 0.0
H1451 H 0.62842 0.6593 0.86824 0.0
H1452 H 0.65137 0.54635 0.88848 0.0
H1453 H 0.67952 0.51153 0.90868 0.0
H1454 H 0.80783 0.61001 0.89677 0.0
H1455 H 0.78043 0.64577 0.87669 0.0
C1456 C 0.6949 0.6488 0.78666 0.0
C1457 C 0.73856 0.67489 0.7827 0.0
C1458 C 0.68092 0.63874 0.8048 0.0
C1459 C 0.71023 0.65516 0.81938 0.0
C1460 C 0.75394 0.6804 0.81543 0.0
C1461 C 0.76791 0.69039 0.79728 0.0
C1462 C 0.69519 0.64775 0.83872 0.0
C1463 C 0.7112 0.62915 0.85095 0.0
C1464 C 0.66487 0.6586 0.84509 0.0
C1465 C 0.64843 0.68049 0.83323 0.0
C1466 C 0.6767 0.71956 0.82479 0.0
C1467 C 0.661 0.73979 0.81349 0.0
C1468 C 0.61705 0.72142 0.81064 0.0
C1469 C 0.58871 0.68284 0.81913 0.0
C1470 C 0.60425 0.66245 0.83043 0.0
C1471 C 0.66894 0.63967 0.92765 0.0
C1472 C 0.62516 0.61912 0.93181 0.0
C1473 C 0.6826 0.64317 0.90945 0.0
C1474 C 0.65273 0.62592 0.89509 0.0
C1475 C 0.60897 0.60512 0.89931 0.0
C1476 C 0.59536 0.60193 0.91746 0.0
C1477 C 0.66695 0.63153 0.87562 0.0
C1478 C 0.65094 0.65004 0.86335 0.0
C1479 C 0.69724 0.62056 0.86925 0.0
C1480 C 0.71382 0.59895 0.88121 0.0
C1481 C 0.68558 0.56075 0.89027 0.0
C1482 C 0.70141 0.54082 0.90168 0.0
C1483 C 0.74543 0.5586 0.90404 0.0
C1484 C 0.77373 0.59629 0.89495 0.0
C1485 C 0.75807 0.61639 0.88353 0.0
H1486 H 0.75762 0.54313 0.91289 0.0
H1487 H 0.60495 0.73713 0.80188 0.0
H1488 H 0.73516 0.71874 0.44183 0.0
H1489 H 0.75397 0.71222 0.47337 0.0
H1490 H 0.68293 0.77088 0.49289 0.0
H1491 H 0.66553 0.77899 0.4612 0.0
H1492 H 0.75554 0.7989 0.51231 0.0
H1493 H 0.63962 0.66239 0.49299 0.0
H1494 H 0.60358 0.59933 0.47287 0.0
H1495 H 0.70344 0.57048 0.48288 0.0
H1496 H 0.74038 0.63372 0.50288 0.0
H1497 H 0.71901 0.72409 0.60452 0.0
H1498 H 0.71449 0.74242 0.57263 0.0
H1499 H 0.7785 0.67482 0.55523 0.0
H1500 H 0.78203 0.65575 0.58718 0.0
H1501 H 0.7133 0.6534 0.53435 0.0
H1502 H 0.82769 0.78815 0.55513 0.0
H1503 H 0.86315 0.85088 0.57545 0.0
H1504 H 0.76678 0.88327 0.56296 0.0
H1505 H 0.7304 0.82038 0.54276 0.0
C1506 C 0.72477 0.73156 0.45276 0.0
C1507 C 0.6996 0.75025 0.44899 0.0
C1508 C 0.73495 0.72717 0.47085 0.0
C1509 C 0.71953 0.74067 0.48557 0.0
C1510 C 0.69528 0.76028 0.4818 0.0
C1511 C 0.68522 0.76477 0.46371 0.0
C1512 C 0.72692 0.73261 0.50489 0.0
C1513 C 0.746 0.76704 0.51719 0.0
C1514 C 0.71526 0.69118 0.51121 0.0
C1515 C 0.69297 0.65302 0.49927 0.0
C1516 C 0.65404 0.64276 0.49079 0.0
C1517 C 0.63343 0.60697 0.47943 0.0
C1518 C 0.65127 0.58098 0.47655 0.0
C1519 C 0.6897 0.59067 0.48509 0.0
C1520 C 0.71047 0.62647 0.49645 0.0
C1521 C 0.73306 0.71415 0.59392 0.0
C1522 C 0.75171 0.68929 0.59831 0.0
C1523 C 0.73039 0.7245 0.57566 0.0
C1524 C 0.74679 0.71066 0.56144 0.0
C1525 C 0.76572 0.68606 0.56589 0.0
C1526 C 0.7679 0.67529 0.58412 0.0
C1527 C 0.74213 0.71973 0.54187 0.0
C1528 C 0.72332 0.68539 0.52951 0.0
C1529 C 0.75409 0.76126 0.53553 0.0
C1530 C 0.77613 0.79933 0.54754 0.0
C1531 C 0.81391 0.80849 0.55681 0.0
C1532 C 0.83419 0.8441 0.5683 0.0
C1533 C 0.81718 0.87099 0.57053 0.0
C1534 C 0.77991 0.8624 0.56123 0.0
C1535 C 0.75947 0.82679 0.54975 0.0
H1536 H 0.83292 0.89854 0.57943 0.0
H1537 H 0.63527 0.55328 0.46775 0.0
H1538 H 0.22889 0.95148 0.44698 0.0
H1539 H 0.23024 0.97324 0.4789 0.0
H1540 H 0.35912 0.99735 0.48452 0.0
H1541 H 0.35871 0.97763 0.45252 0.0
H1542 H 0.30185 0.94492 0.51245 0.0
H1543 H 0.34518 0.07859 0.48065 0.0
H1544 H 0.33484 0.12394 0.45842 0.0
H1545 H 0.2201 0.09951 0.48616 0.0
H1546 H 0.22945 0.05346 0.50841 0.0
H1547 H 0.39515 0.06149 0.59165 0.0
H1548 H 0.37601 0.03631 0.56022 0.0
H1549 H 0.26183 0.04529 0.56474 0.0
H1550 H 0.28231 0.07291 0.59602 0.0
H1551 H 0.29762 0.07386 0.53231 0.0
H1552 H 0.25678 0.94732 0.56607 0.0
H1553 H 0.26401 0.90011 0.58834 0.0
H1554 H 0.36785 0.90671 0.55721 0.0
H1555 H 0.36169 0.9545 0.53489 0.0
C1556 C 0.25797 0.96271 0.45478 0.0
C1557 C 0.29412 0.96379 0.447 0.0
C1558 C 0.25848 0.97461 0.47312 0.0
C1559 C 0.29485 0.98703 0.48404 0.0
C1560 C 0.33071 0.98782 0.47635 0.0
C1561 C 0.33041 0.97652 0.45805 0.0
C1562 C 0.29582 -0.00162 0.50364 0.0
C1563 C 0.30111 0.97319 0.51682 0.0
C1564 C 0.29315 0.03431 0.50936 0.0
C1565 C 0.28771 0.06216 0.49605 0.0
C1566 C 0.31753 0.08256 0.48191 0.0
C1567 C 0.3119 0.10846 0.46932 0.0
C1568 C 0.27676 0.11449 0.47083 0.0
C1569 C 0.24725 0.09473 0.48498 0.0
C1570 C 0.25271 0.06875 0.49758 0.0
C1571 C 0.36595 0.0581 0.58596 0.0
C1572 C 0.33967 0.06807 0.59655 0.0
C1573 C 0.35481 0.04334 0.56802 0.0
C1574 C 0.31683 0.03773 0.56021 0.0
C1575 C 0.29094 0.04869 0.57055 0.0
C1576 C 0.30232 0.06384 0.58856 0.0
C1577 C 0.3051 0.02112 0.54116 0.0
C1578 C 0.29766 0.04516 0.52806 0.0
C1579 C 0.30519 0.9837 0.53551 0.0
C1580 C 0.30892 0.95474 0.54885 0.0
C1581 C 0.28135 0.93894 0.56403 0.0
C1582 C 0.28523 0.91204 0.57666 0.0
C1583 C 0.31641 0.90047 0.57421 0.0
C1584 C 0.34371 0.91571 0.5591 0.0
C1585 C 0.34 0.94266 0.54643 0.0
H1586 H 0.31936 0.87964 0.584 0.0
H1587 H 0.27246 0.13456 0.46108 0.0
H1588 H 0.89742 0.26063 0.58685 0.0
H1589 H 0.92149 0.26536 0.55505 0.0
H1590 H 0.05169 0.32074 0.57386 0.0
H1591 H 0.02769 0.31677 0.60553 0.0
H1592 H 0.04356 0.36646 0.54623 0.0
H1593 H -0.00077 0.21953 0.55772 0.0
H1594 H 0.94937 0.1456 0.56737 0.0
H1595 H 0.86111 0.13405 0.52529 0.0
H1596 H 0.9102 0.20816 0.51556 0.0
H1597 H 0.13453 0.3702 0.46048 0.0
H1598 H 0.11169 0.35297 0.49248 0.0
H1599 H 0.97987 0.28925 0.47515 0.0
H1600 H 0.00286 0.30601 0.44317 0.0
H1601 H 0.98967 0.24579 0.50231 0.0
H1602 H 0.03 0.39198 0.49179 0.0
H1603 H 0.07738 0.4665 0.48214 0.0
H1604 H 0.17004 0.48018 0.52243 0.0
H1605 H 0.12342 0.40552 0.53215 0.0
C1606 C 0.93106 0.27319 0.58413 0.0
C1607 C 0.96057 0.28739 0.59864 0.0
C1608 C 0.94478 0.27576 0.56602 0.0
C1609 C 0.98836 0.29292 0.56209 0.0
C1610 C 0.01788 0.307 0.57659 0.0
C1611 C 0.00411 0.30421 0.5947 0.0
C1612 C 0.00342 0.29858 0.54281 0.0
C1613 C 0.03235 0.33996 0.53671 0.0
C1614 C 0.98774 0.26419 0.53024 0.0
C1615 C 0.95825 0.21955 0.53602 0.0
C1616 C 0.96904 0.20135 0.55062 0.0
C1617 C 0.94094 0.15939 0.55609 0.0
C1618 C 0.90205 0.13518 0.54698 0.0
C1619 C 0.89123 0.15285 0.53235 0.0
C1620 C 0.9192 0.19483 0.52684 0.0
C1621 C 0.10073 0.35202 0.46357 0.0
C1622 C 0.07047 0.33893 0.4494 0.0
C1623 C 0.08767 0.34235 0.48181 0.0
C1624 C 0.04401 0.32029 0.48627 0.0
C1625 C 0.01371 0.30613 0.47206 0.0
C1626 C 0.02682 0.31548 0.45379 0.0
C1627 C 0.03 0.31369 0.50575 0.0
C1628 C 0.00112 0.27223 0.51187 0.0
C1629 C 0.04539 0.34808 0.51834 0.0
C1630 C 0.07342 0.39303 0.51256 0.0
C1631 C 0.06062 0.41079 0.4985 0.0
C1632 C 0.08731 0.45306 0.49303 0.0
C1633 C 0.12675 0.47802 0.50163 0.0
C1634 C 0.13951 0.46079 0.51575 0.0
C1635 C 0.11296 0.4185 0.52126 0.0
H1636 H 0.14737 0.51075 0.49738 0.0
H1637 H 0.88034 0.10269 0.55123 0.0
loop_
_geom_bond_atom_site_label_1
_geom_bond_atom_site_label_2
_geom_bond_distance
_geom_bond_site_symmetry_2
_ccdc_geom_bond_type
Zn0 O1 2.055 . S
Zn0 O8 2.046 1_455 S
Zn0 N16 2.036 . S
Zn0 O28 2.053 1_455 S
Zn0 O30 2.066 . S
O1 Zn0 2.055 . S
O1 C4 1.259 . S
C2 O30 1.256 . S
C2 O31 1.208 1_554 S
Zn3 O5 2.046 . S
Zn3 O7 2.055 1_455 S
Zn3 N9 2.036 . S
Zn3 O27 2.066 1_455 S
Zn3 O31 2.065 . S
C4 O1 1.259 . S
C4 O5 1.254 1_554 S
O5 Zn3 2.046 . S
O5 C4 1.254 1_556 S
C6 O27 1.256 1_554 S
C6 O28 1.244 . S
O7 Zn3 2.055 1_655 S
O7 C29 1.259 1_556 S
O8 Zn0 2.046 1_655 S
O8 C29 1.254 . S
N9 Zn3 2.036 . S
N9 C10 1.298 1_455 S
N9 N12 1.398 . S
C10 N9 1.298 1_655 S
C10 N13 1.367 . S
C10 C23 1.481 . S
C11 N12 1.299 . S
C11 N13 1.379 1_455 S
N12 N9 1.398 . S
N12 C11 1.299 . S
N13 C10 1.367 . S
N13 C11 1.379 1_655 S
C14 N16 1.298 . S
C14 N18 1.367 . S
C14 C22 1.481 . S
C15 N17 1.299 . S
C15 N18 1.379 1_655 S
N16 Zn0 2.036 . S
N16 C14 1.298 . S
N16 N17 1.398 1_455 S
N17 C15 1.299 . S
N17 N16 1.398 1_655 S
N18 C14 1.367 . S
N18 C15 1.379 1_455 S
H19 C22 0.980 . S
H20 C22 0.981 . S
H21 C22 0.981 . S
C22 C14 1.481 . S
C22 H19 0.980 . S
C22 H20 0.981 . S
C22 H21 0.981 . S
C23 C10 1.481 . S
C23 H24 0.980 . S
C23 H25 0.981 . S
C23 H26 0.981 . S
H24 C23 0.980 . S
H25 C23 0.981 . S
H26 C23 0.981 . S
O27 Zn3 2.066 1_655 S
O27 C6 1.256 1_556 S
O28 Zn0 2.053 1_655 S
O28 C6 1.244 . S
C29 O7 1.259 1_554 S
C29 O8 1.254 . S
O30 Zn0 2.066 . S
O30 C2 1.256 . S
O31 C2 1.208 1_556 S
O31 Zn3 2.065 . S
Zn32 O33 2.055 . S
Zn32 O40 2.046 . S
Zn32 N48 2.036 . S
Zn32 O60 2.053 . S
Zn32 O62 2.066 . S
O33 Zn32 2.055 . S
O33 C36 1.259 . S
C34 O62 1.256 . S
C34 O63 1.208 1_554 S
Zn35 O37 2.046 . S
Zn35 O39 2.055 . S
Zn35 N41 2.036 . S
Zn35 O59 2.066 . S
Zn35 O63 2.065 . S
C36 O33 1.259 . S
C36 O37 1.254 1_554 S
O37 Zn35 2.046 . S
O37 C36 1.254 1_556 S
C38 O59 1.256 1_554 S
C38 O60 1.244 . S
O39 Zn35 2.055 . S
O39 C61 1.259 1_556 S
O40 Zn32 2.046 . S
O40 C61 1.254 . S
N41 Zn35 2.036 . S
N41 C42 1.298 . S
N41 N44 1.398 . S
C42 N41 1.298 . S
C42 N45 1.367 . S
C42 C55 1.481 . S
C43 N44 1.299 . S
C43 N45 1.379 . S
N44 N41 1.398 . S
N44 C43 1.299 . S
N45 C42 1.367 . S
N45 C43 1.379 . S
C46 N48 1.298 . S
C46 N50 1.367 . S
C46 C54 1.481 . S
C47 N49 1.299 . S
C47 N50 1.379 . S
N48 Zn32 2.036 . S
N48 C46 1.298 . S
N48 N49 1.398 . S
N49 C47 1.299 . S
N49 N48 1.398 . S
N50 C46 1.367 . S
N50 C47 1.379 . S
H51 C54 0.980 . S
H52 C54 0.981 . S
H53 C54 0.981 . S
C54 C46 1.481 . S
C54 H51 0.980 . S
C54 H52 0.981 . S
C54 H53 0.981 . S
C55 C42 1.481 . S
C55 H56 0.980 . S
C55 H57 0.981 . S
C55 H58 0.981 . S
H56 C55 0.980 . S
H57 C55 0.981 . S
H58 C55 0.981 . S
O59 Zn35 2.066 . S
O59 C38 1.256 1_556 S
O60 Zn32 2.053 . S
O60 C38 1.244 . S
C61 O39 1.259 1_554 S
C61 O40 1.254 . S
O62 Zn32 2.066 . S
O62 C34 1.256 . S
O63 C34 1.208 1_556 S
O63 Zn35 2.065 . S
Zn64 O65 2.055 . S
Zn64 O72 2.046 1_545 S
Zn64 N80 2.036 . S
Zn64 O92 2.065 1_545 S
Zn64 O94 2.066 . S
O65 Zn64 2.055 . S
O65 C68 1.259 1_556 S
C66 O94 1.256 1_554 S
C66 O95 1.244 . S
Zn67 O69 2.046 . S
Zn67 O71 2.055 1_545 S
Zn67 N73 2.036 . S
Zn67 O91 2.066 1_545 S
Zn67 O95 2.053 . S
C68 O65 1.259 1_554 S
C68 O69 1.254 . S
O69 Zn67 2.046 . S
O69 C68 1.254 . S
C70 O91 1.256 . S
C70 O92 1.208 1_554 S
O71 Zn67 2.055 1_565 S
O71 C93 1.259 . S
O72 Zn64 2.046 1_565 S
O72 C93 1.254 1_556 S
N73 Zn67 2.036 . S
N73 C74 1.298 1_545 S
N73 N76 1.398 . S
C74 N73 1.298 1_565 S
C74 N77 1.367 . S
C74 C87 1.481 . S
C75 N76 1.299 . S
C75 N77 1.379 1_545 S
N76 N73 1.398 . S
N76 C75 1.299 . S
N77 C74 1.367 . S
N77 C75 1.379 1_565 S
C78 N80 1.298 . S
C78 N82 1.367 . S
C78 C86 1.481 . S
C79 N81 1.299 . S
C79 N82 1.379 1_565 S
N80 Zn64 2.036 . S
N80 C78 1.298 . S
N80 N81 1.398 1_545 S
N81 C79 1.299 . S
N81 N80 1.398 1_565 S
N82 C78 1.367 . S
N82 C79 1.379 1_545 S
H83 C86 0.980 . S
H84 C86 0.981 . S
H85 C86 0.981 . S
C86 C78 1.481 . S
C86 H83 0.980 . S
C86 H84 0.981 . S
C86 H85 0.981 . S
C87 C74 1.481 . S
C87 H88 0.980 . S
C87 H89 0.981 . S
C87 H90 0.981 . S
H88 C87 0.980 . S
H89 C87 0.981 . S
H90 C87 0.981 . S
O91 Zn67 2.066 1_565 S
O91 C70 1.256 . S
O92 Zn64 2.065 1_565 S
O92 C70 1.208 1_556 S
C93 O71 1.259 . S
C93 O72 1.254 1_554 S
O94 Zn64 2.066 . S
O94 C66 1.256 1_556 S
O95 C66 1.244 . S
O95 Zn67 2.053 . S
Zn96 O97 2.055 . S
Zn96 O104 2.046 . S
Zn96 N112 2.036 . S
Zn96 O124 2.053 . S
Zn96 O126 2.066 . S
O97 Zn96 2.055 . S
O97 C100 1.259 . S
C98 O126 1.256 . S
C98 O127 1.244 . S
Zn99 O101 2.046 . S
Zn99 O103 2.055 . S
Zn99 N105 2.036 . S
Zn99 O123 2.066 . S
Zn99 O127 2.053 . S
C100 O97 1.259 . S
C100 O101 1.254 . S
O101 Zn99 2.046 . S
O101 C100 1.254 . S
C102 O123 1.256 . S
C102 O124 1.244 . S
O103 Zn99 2.055 . S
O103 C125 1.259 . S
O104 Zn96 2.046 . S
O104 C125 1.254 . S
N105 Zn99 2.036 . S
N105 C106 1.298 . S
N105 N108 1.398 . S
C106 N105 1.298 . S
C106 N109 1.367 . S
C106 C119 1.481 . S
C107 N108 1.299 . S
C107 N109 1.379 . S
N108 N105 1.398 . S
N108 C107 1.299 . S
N109 C106 1.367 . S
N109 C107 1.379 . S
C110 N112 1.298 . S
C110 N114 1.367 . S
C110 C118 1.481 . S
C111 N113 1.299 . S
C111 N114 1.379 . S
N112 Zn96 2.036 . S
N112 C110 1.298 . S
N112 N113 1.398 . S
N113 C111 1.299 . S
N113 N112 1.398 . S
N114 C110 1.367 . S
N114 C111 1.379 . S
H115 C118 0.980 . S
H116 C118 0.981 . S
H117 C118 0.981 . S
C118 C110 1.481 . S
C118 H115 0.980 . S
C118 H116 0.981 . S
C118 H117 0.981 . S
C119 C106 1.481 . S
C119 H120 0.980 . S
C119 H121 0.981 . S
C119 H122 0.981 . S
H120 C119 0.980 . S
H121 C119 0.981 . S
H122 C119 0.981 . S
O123 Zn99 2.066 . S
O123 C102 1.256 . S
O124 Zn96 2.053 . S
O124 C102 1.244 . S
C125 O103 1.259 . S
C125 O104 1.254 . S
O126 Zn96 2.066 . S
O126 C98 1.256 . S
O127 C98 1.244 . S
O127 Zn99 2.053 . S
Zn128 O129 2.055 . S
Zn128 O136 2.046 . S
Zn128 N144 2.036 . S
Zn128 O156 2.053 . S
Zn128 O158 2.066 . S
O129 Zn128 2.055 . S
O129 C132 1.259 . S
C130 O158 1.256 . S
C130 O159 1.244 . S
Zn131 O133 2.046 . S
Zn131 O135 2.055 . S
Zn131 N137 2.036 . S
Zn131 O155 2.066 . S
Zn131 O159 2.053 . S
C132 O129 1.259 . S
C132 O133 1.254 . S
O133 Zn131 2.046 . S
O133 C132 1.254 . S
C134 O155 1.256 . S
C134 O156 1.244 . S
O135 Zn131 2.055 . S
O135 C157 1.259 . S
O136 Zn128 2.046 . S
O136 C157 1.254 . S
N137 Zn131 2.036 . S
N137 C138 1.298 . S
N137 N140 1.398 . S
C138 N137 1.298 . S
C138 N141 1.367 . S
C138 C151 1.481 . S
C139 N140 1.299 . S
C139 N141 1.379 . S
N140 N137 1.398 . S
N140 C139 1.299 . S
N141 C138 1.367 . S
N141 C139 1.379 . S
C142 N144 1.298 . S
C142 N146 1.367 . S
C142 C150 1.481 . S
C143 N145 1.299 . S
C143 N146 1.379 . S
N144 Zn128 2.036 . S
N144 C142 1.298 . S
N144 N145 1.398 . S
N145 C143 1.299 . S
N145 N144 1.398 . S
N146 C142 1.367 . S
N146 C143 1.379 . S
H147 C150 0.980 . S
H148 C150 0.981 . S
H149 C150 0.981 . S
C150 C142 1.481 . S
C150 H147 0.980 . S
C150 H148 0.981 . S
C150 H149 0.981 . S
C151 C138 1.481 . S
C151 H152 0.980 . S
C151 H153 0.981 . S
C151 H154 0.981 . S
H152 C151 0.980 . S
H153 C151 0.981 . S
H154 C151 0.981 . S
O155 Zn131 2.066 . S
O155 C134 1.256 . S
O156 Zn128 2.053 . S
O156 C134 1.244 . S
C157 O135 1.259 . S
C157 O136 1.254 . S
O158 Zn128 2.066 . S
O158 C130 1.256 . S
O159 C130 1.244 . S
O159 Zn131 2.053 . S
Zn160 O161 2.055 . S
Zn160 O168 2.046 . S
Zn160 N176 2.036 . S
Zn160 O188 2.053 . S
Zn160 O190 2.066 . S
O161 Zn160 2.055 . S
O161 C164 1.259 . S
C162 O190 1.256 . S
C162 O191 1.244 . S
Zn163 O165 2.046 . S
Zn163 O167 2.055 . S
Zn163 N169 2.036 . S
Zn163 O187 2.066 . S
Zn163 O191 2.053 . S
C164 O161 1.259 . S
C164 O165 1.254 . S
O165 Zn163 2.046 . S
O165 C164 1.254 . S
C166 O187 1.256 . S
C166 O188 1.244 . S
O167 Zn163 2.055 . S
O167 C189 1.259 . S
O168 Zn160 2.046 . S
O168 C189 1.254 . S
N169 Zn163 2.036 . S
N169 C170 1.298 . S
N169 N172 1.398 . S
C170 N169 1.298 . S
C170 N173 1.367 . S
C170 C183 1.481 . S
C171 N172 1.299 . S
C171 N173 1.379 . S
N172 N169 1.398 . S
N172 C171 1.299 . S
N173 C170 1.367 . S
N173 C171 1.379 . S
C174 N176 1.298 . S
C174 N178 1.367 . S
C174 C182 1.481 . S
C175 N177 1.299 . S
C175 N178 1.379 . S
N176 Zn160 2.036 . S
N176 C174 1.298 . S
N176 N177 1.398 . S
N177 C175 1.299 . S
N177 N176 1.398 . S
N178 C174 1.367 . S
N178 C175 1.379 . S
H179 C182 0.980 . S
H180 C182 0.981 . S
H181 C182 0.981 . S
C182 C174 1.481 . S
C182 H179 0.980 . S
C182 H180 0.981 . S
C182 H181 0.981 . S
C183 C170 1.481 . S
C183 H184 0.980 . S
C183 H185 0.981 . S
C183 H186 0.981 . S
H184 C183 0.980 . S
H185 C183 0.981 . S
H186 C183 0.981 . S
O187 Zn163 2.066 . S
O187 C166 1.256 . S
O188 Zn160 2.053 . S
O188 C166 1.244 . S
C189 O167 1.259 . S
C189 O168 1.254 . S
O190 Zn160 2.066 . S
O190 C162 1.256 . S
O191 C162 1.244 . S
O191 Zn163 2.053 . S
Zn192 O193 2.055 . S
Zn192 O200 2.046 . S
Zn192 N208 2.036 . S
Zn192 O220 2.053 . S
Zn192 O222 2.066 . S
O193 Zn192 2.055 . S
O193 C196 1.259 . S
C194 O222 1.256 . S
C194 O223 1.244 . S
Zn195 O197 2.046 . S
Zn195 O199 2.055 . S
Zn195 N201 2.036 . S
Zn195 O219 2.066 . S
Zn195 O223 2.053 . S
C196 O193 1.259 . S
C196 O197 1.254 . S
O197 Zn195 2.046 . S
O197 C196 1.254 . S
C198 O219 1.256 . S
C198 O220 1.244 . S
O199 Zn195 2.055 . S
O199 C221 1.259 . S
O200 Zn192 2.046 . S
O200 C221 1.254 . S
N201 Zn195 2.036 . S
N201 C202 1.298 . S
N201 N204 1.398 . S
C202 N201 1.298 . S
C202 N205 1.367 . S
C202 C215 1.481 . S
C203 N204 1.299 . S
C203 N205 1.379 . S
N204 N201 1.398 . S
N204 C203 1.299 . S
N205 C202 1.367 . S
N205 C203 1.379 . S
C206 N208 1.298 . S
C206 N210 1.367 . S
C206 C214 1.481 . S
C207 N209 1.299 . S
C207 N210 1.379 . S
N208 Zn192 2.036 . S
N208 C206 1.298 . S
N208 N209 1.398 . S
N209 C207 1.299 . S
N209 N208 1.398 . S
N210 C206 1.367 . S
N210 C207 1.379 . S
H211 C214 0.980 . S
H212 C214 0.981 . S
H213 C214 0.981 . S
C214 C206 1.481 . S
C214 H211 0.980 . S
C214 H212 0.981 . S
C214 H213 0.981 . S
C215 C202 1.481 . S
C215 H216 0.980 . S
C215 H217 0.981 . S
C215 H218 0.981 . S
H216 C215 0.980 . S
H217 C215 0.981 . S
H218 C215 0.981 . S
O219 Zn195 2.066 . S
O219 C198 1.256 . S
O220 Zn192 2.053 . S
O220 C198 1.244 . S
C221 O199 1.259 . S
C221 O200 1.254 . S
O222 Zn192 2.066 . S
O222 C194 1.256 . S
O223 C194 1.244 . S
O223 Zn195 2.053 . S
Zn224 O225 2.055 . S
Zn224 O232 2.046 . S
Zn224 N240 2.036 . S
Zn224 O252 2.053 . S
Zn224 O254 2.066 . S
O225 Zn224 2.055 . S
O225 C228 1.259 . S
C226 O254 1.256 . S
C226 O255 1.244 . S
Zn227 O229 2.046 . S
Zn227 O231 2.055 . S
Zn227 N233 2.036 . S
Zn227 O251 2.066 . S
Zn227 O255 2.053 . S
C228 O225 1.259 . S
C228 O229 1.254 . S
O229 Zn227 2.046 . S
O229 C228 1.254 . S
C230 O251 1.256 . S
C230 O252 1.244 . S
O231 Zn227 2.055 . S
O231 C253 1.259 . S
O232 Zn224 2.046 . S
O232 C253 1.254 . S
N233 Zn227 2.036 . S
N233 C234 1.298 . S
N233 N236 1.398 . S
C234 N233 1.298 . S
C234 N237 1.367 . S
C234 C247 1.481 . S
C235 N236 1.299 . S
C235 N237 1.379 . S
N236 N233 1.398 . S
N236 C235 1.299 . S
N237 C234 1.367 . S
N237 C235 1.379 . S
C238 N240 1.298 . S
C238 N242 1.367 . S
C238 C246 1.481 . S
C239 N241 1.299 . S
C239 N242 1.379 . S
N240 Zn224 2.036 . S
N240 C238 1.298 . S
N240 N241 1.398 . S
N241 C239 1.299 . S
N241 N240 1.398 . S
N242 C238 1.367 . S
N242 C239 1.379 . S
H243 C246 0.980 . S
H244 C246 0.981 . S
H245 C246 0.981 . S
C246 C238 1.481 . S
C246 H243 0.980 . S
C246 H244 0.981 . S
C246 H245 0.981 . S
C247 C234 1.481 . S
C247 H248 0.980 . S
C247 H249 0.981 . S
C247 H250 0.981 . S
H248 C247 0.980 . S
H249 C247 0.981 . S
H250 C247 0.981 . S
O251 Zn227 2.066 . S
O251 C230 1.256 . S
O252 Zn224 2.053 . S
O252 C230 1.244 . S
C253 O231 1.259 . S
C253 O232 1.254 . S
O254 Zn224 2.066 . S
O254 C226 1.256 . S
O255 C226 1.244 . S
O255 Zn227 2.053 . S
Zn256 O257 2.055 . S
Zn256 O264 2.046 . S
Zn256 N272 2.036 . S
Zn256 O284 2.053 . S
Zn256 O286 2.066 . S
O257 Zn256 2.055 . S
O257 C260 1.259 . S
C258 O286 1.256 . S
C258 O287 1.244 . S
Zn259 O261 2.046 . S
Zn259 O263 2.055 . S
Zn259 N265 2.036 . S
Zn259 O283 2.066 . S
Zn259 O287 2.053 . S
C260 O257 1.259 . S
C260 O261 1.254 . S
O261 Zn259 2.046 . S
O261 C260 1.254 . S
C262 O283 1.256 . S
C262 O284 1.244 . S
O263 Zn259 2.055 . S
O263 C285 1.259 . S
O264 Zn256 2.046 . S
O264 C285 1.254 . S
N265 Zn259 2.036 . S
N265 C266 1.298 . S
N265 N268 1.398 . S
C266 N265 1.298 . S
C266 N269 1.367 . S
C266 C279 1.481 . S
C267 N268 1.299 . S
C267 N269 1.379 . S
N268 N265 1.398 . S
N268 C267 1.299 . S
N269 C266 1.367 . S
N269 C267 1.379 . S
C270 N272 1.298 . S
C270 N274 1.367 . S
C270 C278 1.481 . S
C271 N273 1.299 . S
C271 N274 1.379 . S
N272 Zn256 2.036 . S
N272 C270 1.298 . S
N272 N273 1.398 . S
N273 C271 1.299 . S
N273 N272 1.398 . S
N274 C270 1.367 . S
N274 C271 1.379 . S
H275 C278 0.980 . S
H276 C278 0.981 . S
H277 C278 0.981 . S
C278 C270 1.481 . S
C278 H275 0.980 . S
C278 H276 0.981 . S
C278 H277 0.981 . S
C279 C266 1.481 . S
C279 H280 0.980 . S
C279 H281 0.981 . S
C279 H282 0.981 . S
H280 C279 0.980 . S
H281 C279 0.981 . S
H282 C279 0.981 . S
O283 Zn259 2.066 . S
O283 C262 1.256 . S
O284 Zn256 2.053 . S
O284 C262 1.244 . S
C285 O263 1.259 . S
C285 O264 1.254 . S
O286 Zn256 2.066 . S
O286 C258 1.256 . S
O287 C258 1.244 . S
O287 Zn259 2.053 . S
H288 C306 0.973 . S
H289 C308 0.971 . S
H290 C310 0.950 . S
H291 C311 0.950 . S
H292 C313 0.950 . S
H293 C316 0.950 . S
H294 C317 0.950 . S
H295 C319 0.950 . S
H296 C320 0.950 . S
H297 C321 0.951 . S
H298 C323 0.951 . S
H299 C325 0.950 . S
H300 C326 0.950 . S
H301 C328 0.950 . S
H302 C331 0.950 . S
H303 C332 0.950 . S
H304 C334 0.950 . S
H305 C335 0.950 . S
C306 H288 0.973 . S
C306 C307 1.366 . S
C306 C308 1.388 . S
C307 C306 1.366 . S
C307 C311 1.385 . S
C308 H289 0.971 . S
C308 C306 1.388 . S
C308 C309 1.366 . S
C309 C308 1.366 . S
C309 C310 1.414 . S
C309 C312 1.499 . S
C310 H290 0.950 . S
C310 C309 1.414 . S
C310 C311 1.374 . S
C311 H291 0.950 . S
C311 C307 1.385 . S
C311 C310 1.374 . S
C312 C309 1.499 . S
C312 C313 1.373 . S
C312 C314 1.389 1_554 S
C313 H292 0.950 . S
C313 C312 1.373 . S
C313 C329 1.377 . S
C314 C312 1.389 1_556 S
C314 C315 1.524 . S
C314 C328 1.377 . S
C315 C314 1.524 . S
C315 C316 1.397 . S
C315 C320 1.363 . S
C316 H293 0.950 . S
C316 C315 1.397 . S
C316 C317 1.334 . S
C317 H294 0.950 . S
C317 C316 1.334 . S
C317 C318 1.287 . S
C318 C317 1.287 . S
C318 C319 1.524 . S
C318 H337 0.913 . S
C319 H295 0.950 . S
C319 C318 1.524 . S
C319 C320 1.415 . S
C320 H296 0.950 . S
C320 C315 1.363 . S
C320 C319 1.415 . S
C321 H297 0.951 . S
C321 C322 1.366 . S
C321 C323 1.388 . S
C322 C321 1.366 . S
C322 C326 1.385 . S
C323 H298 0.951 . S
C323 C321 1.388 . S
C323 C324 1.366 . S
C324 C323 1.366 . S
C324 C325 1.414 . S
C324 C327 1.499 . S
C325 H299 0.950 . S
C325 C324 1.414 . S
C325 C326 1.374 . S
C326 H300 0.950 . S
C326 C322 1.385 . S
C326 C325 1.374 . S
C327 C324 1.499 . S
C327 C328 1.373 1_554 S
C327 C329 1.389 . S
C328 H301 0.950 . S
C328 C314 1.377 . S
C328 C327 1.373 1_556 S
C329 C313 1.377 . S
C329 C327 1.389 . S
C329 C330 1.524 . S
C330 C329 1.524 . S
C330 C331 1.397 . S
C330 C335 1.363 . S
C331 H302 0.950 . S
C331 C330 1.397 . S
C331 C332 1.334 . S
C332 H303 0.950 . S
C332 C331 1.334 . S
C332 C333 1.287 . S
C333 C332 1.287 . S
C333 C334 1.524 . S
C333 H336 0.999 . S
C334 H304 0.950 . S
C334 C333 1.524 . S
C334 C335 1.415 . S
C335 H305 0.950 . S
C335 C330 1.363 . S
C335 C334 1.415 . S
H336 C333 0.999 . S
H337 C318 0.913 . S
H338 C356 0.951 . S
H339 C358 0.951 . S
H340 C360 0.950 . S
H341 C361 0.950 . S
H342 C363 0.950 1_556 S
H343 C366 0.950 . S
H344 C367 0.950 . S
H345 C369 0.950 . S
H346 C370 0.950 . S
H347 C371 0.951 . S
H348 C373 0.951 . S
H349 C375 0.950 . S
H350 C376 0.950 . S
H351 C378 0.950 . S
H352 C381 0.950 . S
H353 C382 0.950 . S
H354 C384 0.950 . S
H355 C385 0.941 1_554 S
C356 H338 0.951 . S
C356 C357 1.366 . S
C356 C358 1.388 . S
C357 C356 1.366 . S
C357 C361 1.385 . S
C358 H339 0.951 . S
C358 C356 1.388 . S
C358 C359 1.366 . S
C359 C358 1.366 . S
C359 C360 1.414 . S
C359 C362 1.499 . S
C360 H340 0.950 . S
C360 C359 1.414 . S
C360 C361 1.374 . S
C361 H341 0.950 . S
C361 C357 1.385 . S
C361 C360 1.374 . S
C362 C359 1.499 . S
C362 C363 1.373 . S
C362 C364 1.389 . S
C363 H342 0.950 1_554 S
C363 C362 1.373 . S
C363 C379 1.377 . S
C364 C362 1.389 . S
C364 C365 1.524 . S
C364 C378 1.377 . S
C365 C364 1.524 . S
C365 C366 1.397 . S
C365 C370 1.363 . S
C366 H343 0.950 . S
C366 C365 1.397 . S
C366 C367 1.334 . S
C367 H344 0.950 . S
C367 C366 1.334 . S
C367 C368 1.287 . S
C368 C367 1.287 . S
C368 C369 1.524 . S
C368 H387 0.913 . S
C369 H345 0.950 . S
C369 C368 1.524 . S
C369 C370 1.415 . S
C370 H346 0.950 . S
C370 C365 1.363 . S
C370 C369 1.415 . S
C371 H347 0.951 . S
C371 C372 1.366 . S
C371 C373 1.388 . S
C372 C371 1.366 . S
C372 C376 1.385 . S
C373 H348 0.951 . S
C373 C371 1.388 . S
C373 C374 1.366 . S
C374 C373 1.366 . S
C374 C375 1.414 . S
C374 C377 1.499 . S
C375 H349 0.950 . S
C375 C374 1.414 . S
C375 C376 1.374 . S
C376 H350 0.950 . S
C376 C372 1.385 . S
C376 C375 1.374 . S
C377 C374 1.499 . S
C377 C378 1.373 . S
C377 C379 1.389 . S
C378 H351 0.950 . S
C378 C364 1.377 . S
C378 C377 1.373 . S
C379 C363 1.377 . S
C379 C377 1.389 . S
C379 C380 1.524 1_554 S
C380 C379 1.524 1_556 S
C380 C381 1.397 . S
C380 C385 1.363 . S
C381 H352 0.950 . S
C381 C380 1.397 . S
C381 C382 1.334 . S
C382 H353 0.950 . S
C382 C381 1.334 . S
C382 C383 1.287 . S
C383 C382 1.287 . S
C383 C384 1.524 . S
C383 H386 0.999 . S
C384 H354 0.950 . S
C384 C383 1.524 . S
C384 C385 1.415 . S
C385 H355 0.941 1_556 S
C385 C380 1.363 . S
C385 C384 1.415 . S
H386 C383 0.999 . S
H387 C368 0.913 . S
H388 C406 0.951 . S
H389 C408 0.951 . S
H390 C410 0.950 . S
H391 C411 0.950 . S
H392 C413 0.977 . S
H393 C416 0.955 . S
H394 C417 0.950 . S
H395 C419 0.950 . S
H396 C420 0.950 . S
H397 C421 0.951 . S
H398 C423 0.951 . S
H399 C425 0.950 . S
H400 C426 0.950 . S
H401 C428 0.950 . S
H402 C431 0.950 . S
H403 C432 0.950 . S
H404 C434 0.950 . S
H405 C435 0.950 . S
C406 H388 0.951 . S
C406 C407 1.366 . S
C406 C408 1.388 . S
C407 C406 1.366 . S
C407 C411 1.385 1_554 S
C408 H389 0.951 . S
C408 C406 1.388 . S
C408 C409 1.366 . S
C409 C408 1.366 . S
C409 C410 1.414 1_554 S
C409 C412 1.499 . S
C410 H390 0.950 . S
C410 C409 1.414 1_556 S
C410 C411 1.374 . S
C411 H391 0.950 . S
C411 C407 1.385 1_556 S
C411 C410 1.374 . S
C412 C409 1.499 . S
C412 C413 1.373 . S
C412 C414 1.389 . S
C413 H392 0.977 . S
C413 C412 1.373 . S
C413 C429 1.377 . S
C414 C412 1.389 . S
C414 C415 1.524 . S
C414 C428 1.377 . S
C415 C414 1.524 . S
C415 C416 1.397 . S
C415 C420 1.363 . S
C416 H393 0.955 . S
C416 C415 1.397 . S
C416 C417 1.334 . S
C417 H394 0.950 . S
C417 C416 1.334 . S
C417 C418 1.287 . S
C418 C417 1.287 . S
C418 C419 1.524 . S
C418 H437 0.913 . S
C419 H395 0.950 . S
C419 C418 1.524 . S
C419 C420 1.415 . S
C420 H396 0.950 . S
C420 C415 1.363 . S
C420 C419 1.415 . S
C421 H397 0.951 . S
C421 C422 1.366 1_556 S
C421 C423 1.388 . S
C422 C421 1.366 1_554 S
C422 C426 1.385 . S
C423 H398 0.951 . S
C423 C421 1.388 . S
C423 C424 1.366 1_556 S
C424 C423 1.366 1_554 S
C424 C425 1.414 . S
C424 C427 1.499 . S
C425 H399 0.950 . S
C425 C424 1.414 . S
C425 C426 1.374 . S
C426 H400 0.950 . S
C426 C422 1.385 . S
C426 C425 1.374 . S
C427 C424 1.499 . S
C427 C428 1.373 . S
C427 C429 1.389 . S
C428 H401 0.950 . S
C428 C414 1.377 . S
C428 C427 1.373 . S
C429 C413 1.377 . S
C429 C427 1.389 . S
C429 C430 1.537 . S
C430 C429 1.537 . S
C430 C431 1.426 . S
C430 C435 1.326 1_554 S
C431 H402 0.950 . S
C431 C430 1.426 . S
C431 C432 1.334 . S
C432 H403 0.950 . S
C432 C431 1.334 . S
C432 C433 1.287 1_554 S
C433 C432 1.287 1_556 S
C433 C434 1.524 . S
C433 H436 0.999 . S
C434 H404 0.950 . S
C434 C433 1.524 . S
C434 C435 1.415 . S
C435 H405 0.950 . S
C435 C430 1.326 1_556 S
C435 C434 1.415 . S
H436 C433 0.999 . S
H437 C418 0.913 . S
H438 C456 0.951 . S
H439 C458 0.951 . S
H440 C460 0.950 . S
H441 C461 0.950 . S
H442 C463 0.937 1_556 S
H443 C466 0.950 . S
H444 C467 0.950 . S
H445 C469 0.950 . S
H446 C470 0.950 . S
H447 C471 0.951 . S
H448 C473 0.951 . S
H449 C475 0.950 . S
H450 C476 0.950 . S
H451 C478 0.950 . S
H452 C481 0.950 . S
H453 C482 0.950 . S
H454 C484 0.950 . S
H455 C485 0.950 1_554 S
C456 H438 0.951 . S
C456 C457 1.366 . S
C456 C458 1.388 . S
C457 C456 1.366 . S
C457 C461 1.385 . S
C458 H439 0.951 . S
C458 C456 1.388 . S
C458 C459 1.366 . S
C459 C458 1.366 . S
C459 C460 1.414 . S
C459 C462 1.499 . S
C460 H440 0.950 . S
C460 C459 1.414 . S
C460 C461 1.374 . S
C461 H441 0.950 . S
C461 C457 1.385 . S
C461 C460 1.374 . S
C462 C459 1.499 . S
C462 C463 1.373 . S
C462 C464 1.389 . S
C463 H442 0.937 1_554 S
C463 C462 1.373 . S
C463 C479 1.377 . S
C464 C462 1.389 . S
C464 C465 1.524 . S
C464 C478 1.377 . S
C465 C464 1.524 . S
C465 C466 1.397 . S
C465 C470 1.363 . S
C466 H443 0.950 . S
C466 C465 1.397 . S
C466 C467 1.334 . S
C467 H444 0.950 . S
C467 C466 1.334 . S
C467 C468 1.287 . S
C468 C467 1.287 . S
C468 C469 1.524 . S
C468 H487 0.913 . S
C469 H445 0.950 . S
C469 C468 1.524 . S
C469 C470 1.415 . S
C470 H446 0.950 . S
C470 C465 1.363 . S
C470 C469 1.415 . S
C471 H447 0.951 . S
C471 C472 1.366 . S
C471 C473 1.388 . S
C472 C471 1.366 . S
C472 C476 1.385 . S
C473 H448 0.951 . S
C473 C471 1.388 . S
C473 C474 1.366 . S
C474 C473 1.366 . S
C474 C475 1.414 . S
C474 C477 1.499 . S
C475 H449 0.950 . S
C475 C474 1.414 . S
C475 C476 1.374 . S
C476 H450 0.950 . S
C476 C472 1.385 . S
C476 C475 1.374 . S
C477 C474 1.499 . S
C477 C478 1.373 . S
C477 C479 1.389 . S
C478 H451 0.950 . S
C478 C464 1.377 . S
C478 C477 1.373 . S
C479 C463 1.377 . S
C479 C477 1.389 . S
C479 C480 1.524 1_554 S
C480 C479 1.524 1_556 S
C480 C481 1.397 . S
C480 C485 1.363 . S
C481 H452 0.950 . S
C481 C480 1.397 . S
C481 C482 1.334 . S
C482 H453 0.950 . S
C482 C481 1.334 . S
C482 C483 1.287 . S
C483 C482 1.287 . S
C483 C484 1.524 . S
C483 H486 0.999 . S
C484 H454 0.950 . S
C484 C483 1.524 . S
C484 C485 1.415 . S
C485 H455 0.950 1_556 S
C485 C480 1.363 . S
C485 C484 1.415 . S
H486 C483 0.999 . S
H487 C468 0.913 . S
H488 C506 0.952 1_556 S
H489 C508 0.970 . S
H490 C510 0.950 . S
H491 C511 0.950 . S
H492 C513 0.950 . S
H493 C516 0.950 . S
H494 C517 0.950 . S
H495 C519 0.950 . S
H496 C520 0.950 . S
H497 C521 0.951 . S
H498 C523 0.951 . S
H499 C525 0.950 . S
H500 C526 0.950 . S
H501 C528 0.950 . S
H502 C531 0.950 . S
H503 C532 0.950 . S
H504 C534 0.950 . S
H505 C535 0.950 . S
C506 H488 0.952 1_554 S
C506 C507 1.365 . S
C506 C508 1.387 1_554 S
C507 C506 1.365 . S
C507 C511 1.385 . S
C508 H489 0.970 . S
C508 C506 1.387 1_556 S
C508 C509 1.348 1_556 S
C509 C508 1.348 1_554 S
C509 C510 1.414 . S
C509 C512 1.499 . S
C510 H490 0.950 . S
C510 C509 1.414 . S
C510 C511 1.374 . S
C511 H491 0.950 . S
C511 C507 1.385 . S
C511 C510 1.374 . S
C512 C509 1.499 . S
C512 C513 1.373 . S
C512 C514 1.389 1_554 S
C513 H492 0.950 . S
C513 C512 1.373 . S
C513 C529 1.377 . S
C514 C512 1.389 1_556 S
C514 C515 1.524 . S
C514 C528 1.377 . S
C515 C514 1.524 . S
C515 C516 1.397 . S
C515 C520 1.363 . S
C516 H493 0.950 . S
C516 C515 1.397 . S
C516 C517 1.334 . S
C517 H494 0.950 . S
C517 C516 1.334 . S
C517 C518 1.287 . S
C518 C517 1.287 . S
C518 C519 1.524 . S
C518 H537 0.913 . S
C519 H495 0.950 . S
C519 C518 1.524 . S
C519 C520 1.415 . S
C520 H496 0.950 . S
C520 C515 1.363 . S
C520 C519 1.415 . S
C521 H497 0.951 . S
C521 C522 1.366 . S
C521 C523 1.388 . S
C522 C521 1.366 . S
C522 C526 1.385 1_554 S
C523 H498 0.951 . S
C523 C521 1.388 . S
C523 C524 1.366 . S
C524 C523 1.366 . S
C524 C525 1.414 1_554 S
C524 C527 1.499 . S
C525 H499 0.950 . S
C525 C524 1.414 1_556 S
C525 C526 1.374 . S
C526 H500 0.950 . S
C526 C522 1.385 1_556 S
C526 C525 1.374 . S
C527 C524 1.499 . S
C527 C528 1.373 1_554 S
C527 C529 1.389 . S
C528 H501 0.950 . S
C528 C514 1.377 . S
C528 C527 1.373 1_556 S
C529 C513 1.377 . S
C529 C527 1.389 . S
C529 C530 1.524 . S
C530 C529 1.524 . S
C530 C531 1.397 . S
C530 C535 1.363 . S
C531 H502 0.950 . S
C531 C530 1.397 . S
C531 C532 1.334 . S
C532 H503 0.950 . S
C532 C531 1.334 . S
C532 C533 1.287 . S
C533 C532 1.287 . S
C533 C534 1.524 . S
C533 H536 0.999 . S
C534 H504 0.950 . S
C534 C533 1.524 . S
C534 C535 1.415 . S
C535 H505 0.950 . S
C535 C530 1.363 . S
C535 C534 1.415 . S
H536 C533 0.999 . S
H537 C518 0.913 . S
H538 C556 0.951 1_556 S
H539 C558 0.951 1_556 S
H540 C560 0.950 . S
H541 C561 0.950 . S
H542 C563 0.950 . S
H543 C566 0.950 . S
H544 C567 0.950 . S
H545 C569 0.950 . S
H546 C570 0.950 1_556 S
H547 C571 0.951 . S
H548 C573 0.951 . S
H549 C575 0.981 . S
H550 C576 0.982 . S
H551 C578 0.950 . S
H552 C581 0.950 . S
H553 C582 0.950 . S
H554 C584 0.950 . S
H555 C585 0.950 . S
C556 H538 0.951 1_554 S
C556 C557 1.366 . S
C556 C558 1.388 . S
C557 C556 1.366 . S
C557 C561 1.385 . S
C558 H539 0.951 1_554 S
C558 C556 1.388 . S
C558 C559 1.366 . S
C559 C558 1.366 . S
C559 C560 1.414 . S
C559 C562 1.499 . S
C560 H540 0.950 . S
C560 C559 1.414 . S
C560 C561 1.374 . S
C561 H541 0.950 . S
C561 C557 1.385 . S
C561 C560 1.374 . S
C562 C559 1.499 . S
C562 C563 1.373 . S
C562 C564 1.389 . S
C563 H542 0.950 . S
C563 C562 1.373 . S
C563 C579 1.377 . S
C564 C562 1.389 . S
C564 C565 1.524 . S
C564 C578 1.377 . S
C565 C564 1.524 . S
C565 C566 1.397 . S
C565 C570 1.363 . S
C566 H543 0.950 . S
C566 C565 1.397 . S
C566 C567 1.334 . S
C567 H544 0.950 . S
C567 C566 1.334 . S
C567 C568 1.287 . S
C568 C567 1.287 . S
C568 C569 1.524 . S
C568 H587 0.913 . S
C569 H545 0.950 . S
C569 C568 1.524 . S
C569 C570 1.415 . S
C570 H546 0.950 1_554 S
C570 C565 1.363 . S
C570 C569 1.415 . S
C571 H547 0.951 . S
C571 C572 1.366 . S
C571 C573 1.388 . S
C572 C571 1.366 . S
C572 C576 1.354 1_554 S
C573 H548 0.951 . S
C573 C571 1.388 . S
C573 C574 1.366 . S
C574 C573 1.366 . S
C574 C575 1.385 1_554 S
C574 C577 1.499 . S
C575 H549 0.981 . S
C575 C574 1.385 1_556 S
C575 C576 1.374 . S
C576 H550 0.982 . S
C576 C572 1.354 1_556 S
C576 C575 1.374 . S
C577 C574 1.499 . S
C577 C578 1.373 . S
C577 C579 1.389 . S
C578 H551 0.950 . S
C578 C564 1.377 . S
C578 C577 1.373 . S
C579 C563 1.377 . S
C579 C577 1.389 . S
C579 C580 1.524 . S
C580 C579 1.524 . S
C580 C581 1.397 1_554 S
C580 C585 1.363 . S
C581 H552 0.950 . S
C581 C580 1.397 1_556 S
C581 C582 1.334 . S
C582 H553 0.950 . S
C582 C581 1.334 . S
C582 C583 1.287 . S
C583 C582 1.287 . S
C583 C584 1.524 1_556 S
C583 H586 0.999 . S
C584 H554 0.950 . S
C584 C583 1.524 1_554 S
C584 C585 1.415 . S
C585 H555 0.950 . S
C585 C580 1.363 . S
C585 C584 1.415 . S
H586 C583 0.999 . S
H587 C568 0.913 . S
H588 C606 0.951 . S
H589 C608 0.951 . S
H590 C610 0.950 . S
H591 C611 0.950 . S
H592 C613 0.950 . S
H593 C616 0.950 . S
H594 C617 0.950 . S
H595 C619 0.950 . S
H596 C620 0.950 . S
H597 C621 0.951 . S
H598 C623 0.951 . S
H599 C625 0.950 . S
H600 C626 0.950 . S
H601 C628 0.950 . S
H602 C631 0.950 1_455 S
H603 C632 0.950 . S
H604 C634 0.950 . S
H605 C635 0.950 . S
C606 H588 0.951 . S
C606 C607 1.366 . S
C606 C608 1.388 . S
C607 C606 1.366 . S
C607 C611 1.385 . S
C608 H589 0.951 . S
C608 C606 1.388 . S
C608 C609 1.366 . S
C609 C608 1.366 . S
C609 C610 1.414 . S
C609 C612 1.499 . S
C610 H590 0.950 . S
C610 C609 1.414 . S
C610 C611 1.374 . S
C611 H591 0.950 . S
C611 C607 1.385 . S
C611 C610 1.374 . S
C612 C609 1.499 . S
C612 C613 1.373 . S
C612 C614 1.389 . S
C613 H592 0.950 . S
C613 C612 1.373 . S
C613 C629 1.377 . S
C614 C612 1.389 . S
C614 C615 1.524 . S
C614 C628 1.377 . S
C615 C614 1.524 . S
C615 C616 1.397 . S
C615 C620 1.363 . S
C616 H593 0.950 . S
C616 C615 1.397 . S
C616 C617 1.334 . S
C617 H594 0.950 . S
C617 C616 1.334 . S
C617 C618 1.287 . S
C618 C617 1.287 . S
C618 C619 1.524 . S
C618 H637 0.913 . S
C619 H595 0.950 . S
C619 C618 1.524 . S
C619 C620 1.415 . S
C620 H596 0.950 . S
C620 C615 1.363 . S
C620 C619 1.415 . S
C621 H597 0.951 . S
C621 C622 1.366 . S
C621 C623 1.388 . S
C622 C621 1.366 . S
C622 C626 1.385 . S
C623 H598 0.951 . S
C623 C621 1.388 . S
C623 C624 1.366 . S
C624 C623 1.366 . S
C624 C625 1.414 . S
C624 C627 1.499 1_455 S
C625 H599 0.950 . S
C625 C624 1.414 . S
C625 C626 1.374 . S
C626 H600 0.950 . S
C626 C622 1.385 . S
C626 C625 1.374 . S
C627 C624 1.499 1_655 S
C627 C628 1.373 . S
C627 C629 1.389 . S
C628 H601 0.950 . S
C628 C614 1.377 . S
C628 C627 1.373 . S
C629 C613 1.377 . S
C629 C627 1.389 . S
C629 C630 1.524 . S
C630 C629 1.524 . S
C630 C631 1.397 . S
C630 C635 1.363 . S
C631 H602 0.950 1_655 S
C631 C630 1.397 . S
C631 C632 1.334 1_655 S
C632 H603 0.950 . S
C632 C631 1.334 1_455 S
C632 C633 1.287 1_455 S
C633 C632 1.287 1_655 S
C633 C634 1.524 . S
C633 H636 0.999 . S
C634 H604 0.950 . S
C634 C633 1.524 . S
C634 C635 1.415 . S
C635 H605 0.950 . S
C635 C630 1.363 . S
C635 C634 1.415 . S
H636 C633 0.999 . S
H637 C618 0.913 . S
H638 C656 0.951 . S
H639 C658 0.951 . S
H640 C660 0.950 . S
H641 C661 0.950 . S
H642 C663 0.950 . S
H643 C666 0.950 . S
H644 C667 0.950 . S
H645 C669 0.950 . S
H646 C670 0.950 . S
H647 C671 0.951 . S
H648 C673 0.951 . S
H649 C675 0.950 . S
H650 C676 0.950 . S
H651 C678 0.950 . S
H652 C681 0.950 . S
H653 C682 0.950 . S
H654 C684 0.950 . S
H655 C685 0.950 . S
C656 H638 0.951 . S
C656 C657 1.366 . S
C656 C658 1.388 . S
C657 C656 1.366 . S
C657 C661 1.385 . S
C658 H639 0.951 . S
C658 C656 1.388 . S
C658 C659 1.366 . S
C659 C658 1.366 . S
C659 C660 1.414 . S
C659 C662 1.499 . S
C660 H640 0.950 . S
C660 C659 1.414 . S
C660 C661 1.374 . S
C661 H641 0.950 . S
C661 C657 1.385 . S
C661 C660 1.374 . S
C662 C659 1.499 . S
C662 C663 1.373 . S
C662 C664 1.389 . S
C663 H642 0.950 . S
C663 C662 1.373 . S
C663 C679 1.377 . S
C664 C662 1.389 . S
C664 C665 1.524 . S
C664 C678 1.377 . S
C665 C664 1.524 . S
C665 C666 1.397 . S
C665 C670 1.363 . S
C666 H643 0.950 . S
C666 C665 1.397 . S
C666 C667 1.334 . S
C667 H644 0.950 . S
C667 C666 1.334 . S
C667 C668 1.287 . S
C668 C667 1.287 . S
C668 C669 1.524 . S
C668 H687 0.913 . S
C669 H645 0.950 . S
C669 C668 1.524 . S
C669 C670 1.415 . S
C670 H646 0.950 . S
C670 C665 1.363 . S
C670 C669 1.415 . S
C671 H647 0.951 . S
C671 C672 1.366 1_545 S
C671 C673 1.388 . S
C672 C671 1.366 1_565 S
C672 C676 1.385 . S
C673 H648 0.951 . S
C673 C671 1.388 . S
C673 C674 1.366 . S
C674 C673 1.366 . S
C674 C675 1.414 . S
C674 C677 1.499 . S
C675 H649 0.950 . S
C675 C674 1.414 . S
C675 C676 1.374 1_545 S
C676 H650 0.950 . S
C676 C672 1.385 . S
C676 C675 1.374 1_565 S
C677 C674 1.499 . S
C677 C678 1.373 . S
C677 C679 1.389 . S
C678 H651 0.950 . S
C678 C664 1.377 . S
C678 C677 1.373 . S
C679 C663 1.377 . S
C679 C677 1.389 . S
C679 C680 1.524 . S
C680 C679 1.524 . S
C680 C681 1.397 . S
C680 C685 1.363 . S
C681 H652 0.950 . S
C681 C680 1.397 . S
C681 C682 1.334 . S
C682 H653 0.950 . S
C682 C681 1.334 . S
C682 C683 1.287 . S
C683 C682 1.287 . S
C683 C684 1.524 . S
C683 H686 0.999 . S
C684 H654 0.950 . S
C684 C683 1.524 . S
C684 C685 1.415 . S
C685 H655 0.950 . S
C685 C680 1.363 . S
C685 C684 1.415 . S
H686 C683 0.999 . S
H687 C668 0.913 . S
H688 C706 0.951 . S
H689 C708 0.951 . S
H690 C710 0.950 . S
H691 C711 0.950 . S
H692 C713 0.950 . S
H693 C716 0.950 . S
H694 C717 0.950 . S
H695 C719 0.950 . S
H696 C720 0.950 . S
H697 C721 0.951 . S
H698 C723 0.951 1_545 S
H699 C725 0.950 . S
H700 C726 0.950 . S
H701 C728 0.950 . S
H702 C731 0.950 . S
H703 C732 0.950 1_565 S
H704 C734 0.950 . S
H705 C735 0.950 . S
C706 H688 0.951 . S
C706 C707 1.366 . S
C706 C708 1.388 . S
C707 C706 1.366 . S
C707 C711 1.384 1_455 S
C708 H689 0.951 . S
C708 C706 1.388 . S
C708 C709 1.366 1_455 S
C709 C708 1.366 1_655 S
C709 C710 1.414 . S
C709 C712 1.499 . S
C710 H690 0.950 . S
C710 C709 1.414 . S
C710 C711 1.374 . S
C711 H691 0.950 . S
C711 C707 1.384 1_655 S
C711 C710 1.374 . S
C712 C709 1.499 . S
C712 C713 1.373 . S
C712 C714 1.389 . S
C713 H692 0.950 . S
C713 C712 1.373 . S
C713 C729 1.377 . S
C714 C712 1.389 . S
C714 C715 1.524 . S
C714 C728 1.377 . S
C715 C714 1.524 . S
C715 C716 1.397 . S
C715 C720 1.363 . S
C716 H693 0.950 . S
C716 C715 1.397 . S
C716 C717 1.334 . S
C717 H694 0.950 . S
C717 C716 1.334 . S
C717 C718 1.287 1_655 S
C718 C717 1.287 1_455 S
C718 C719 1.524 . S
C718 H737 0.913 . S
C719 H695 0.950 . S
C719 C718 1.524 . S
C719 C720 1.415 1_455 S
C720 H696 0.950 . S
C720 C715 1.363 . S
C720 C719 1.415 1_655 S
C721 H697 0.951 . S
C721 C722 1.366 . S
C721 C723 1.388 . S
C722 C721 1.366 . S
C722 C726 1.385 . S
C723 H698 0.951 1_565 S
C723 C721 1.388 . S
C723 C724 1.366 1_565 S
C724 C723 1.366 1_545 S
C724 C725 1.414 1_545 S
C724 C727 1.499 . S
C725 H699 0.950 . S
C725 C724 1.414 1_565 S
C725 C726 1.374 . S
C726 H700 0.950 . S
C726 C722 1.385 . S
C726 C725 1.374 . S
C727 C724 1.499 . S
C727 C728 1.373 . S
C727 C729 1.389 . S
C728 H701 0.950 . S
C728 C714 1.377 . S
C728 C727 1.373 . S
C729 C713 1.377 . S
C729 C727 1.389 . S
C729 C730 1.524 . S
C730 C729 1.524 . S
C730 C731 1.397 . S
C730 C735 1.363 . S
C731 H702 0.950 . S
C731 C730 1.397 . S
C731 C732 1.334 . S
C732 H703 0.950 1_545 S
C732 C731 1.334 . S
C732 C733 1.287 . S
C733 C732 1.287 . S
C733 C734 1.524 . S
C733 H736 0.999 . S
C734 H704 0.950 . S
C734 C733 1.524 . S
C734 C735 1.415 . S
C735 H705 0.950 . S
C735 C730 1.363 . S
C735 C734 1.415 . S
H736 C733 0.999 . S
H737 C718 0.913 . S
H738 C756 0.951 . S
H739 C758 0.951 . S
H740 C760 0.950 . S
H741 C761 0.950 . S
H742 C763 0.950 . S
H743 C766 0.950 . S
H744 C767 0.950 . S
H745 C769 0.950 . S
H746 C770 0.950 . S
H747 C771 0.951 . S
H748 C773 0.951 . S
H749 C775 0.950 . S
H750 C776 0.950 . S
H751 C778 0.950 . S
H752 C781 0.950 . S
H753 C782 0.950 . S
H754 C784 0.950 . S
H755 C785 0.950 . S
C756 H738 0.951 . S
C756 C757 1.366 . S
C756 C758 1.388 . S
C757 C756 1.366 . S
C757 C761 1.385 . S
C758 H739 0.951 . S
C758 C756 1.388 . S
C758 C759 1.366 . S
C759 C758 1.366 . S
C759 C760 1.414 . S
C759 C762 1.499 . S
C760 H740 0.950 . S
C760 C759 1.414 . S
C760 C761 1.374 . S
C761 H741 0.950 . S
C761 C757 1.385 . S
C761 C760 1.374 . S
C762 C759 1.499 . S
C762 C763 1.373 . S
C762 C764 1.389 . S
C763 H742 0.950 . S
C763 C762 1.373 . S
C763 C779 1.377 . S
C764 C762 1.389 . S
C764 C765 1.524 . S
C764 C778 1.377 . S
C765 C764 1.524 . S
C765 C766 1.397 . S
C765 C770 1.363 . S
C766 H743 0.950 . S
C766 C765 1.397 . S
C766 C767 1.334 . S
C767 H744 0.950 . S
C767 C766 1.334 . S
C767 C768 1.287 . S
C768 C767 1.287 . S
C768 C769 1.524 . S
C768 H787 0.913 . S
C769 H745 0.950 . S
C769 C768 1.524 . S
C769 C770 1.415 . S
C770 H746 0.950 . S
C770 C765 1.363 . S
C770 C769 1.415 . S
C771 H747 0.951 . S
C771 C772 1.366 . S
C771 C773 1.388 . S
C772 C771 1.366 . S
C772 C776 1.385 . S
C773 H748 0.951 . S
C773 C771 1.388 . S
C773 C774 1.366 . S
C774 C773 1.366 . S
C774 C775 1.414 . S
C774 C777 1.499 . S
C775 H749 0.950 . S
C775 C774 1.414 . S
C775 C776 1.374 . S
C776 H750 0.950 . S
C776 C772 1.385 . S
C776 C775 1.374 . S
C777 C774 1.499 . S
C777 C778 1.373 . S
C777 C779 1.389 . S
C778 H751 0.950 . S
C778 C764 1.377 . S
C778 C777 1.373 . S
C779 C763 1.377 . S
C779 C777 1.389 . S
C779 C780 1.524 . S
C780 C779 1.524 . S
C780 C781 1.397 . S
C780 C785 1.363 . S
C781 H752 0.950 . S
C781 C780 1.397 . S
C781 C782 1.334 . S
C782 H753 0.950 . S
C782 C781 1.334 . S
C782 C783 1.287 . S
C783 C782 1.287 . S
C783 C784 1.524 . S
C783 H786 0.999 . S
C784 H754 0.950 . S
C784 C783 1.524 . S
C784 C785 1.415 . S
C785 H755 0.950 . S
C785 C780 1.363 . S
C785 C784 1.415 . S
H786 C783 0.999 . S
H787 C768 0.913 . S
H788 C806 0.951 . S
H789 C808 0.951 . S
H790 C810 0.950 . S
H791 C811 0.950 . S
H792 C813 0.950 . S
H793 C816 0.950 . S
H794 C817 0.950 . S
H795 C819 0.950 . S
H796 C820 0.950 . S
H797 C821 0.951 . S
H798 C823 0.951 . S
H799 C825 0.950 . S
H800 C826 0.950 . S
H801 C828 0.950 . S
H802 C831 0.950 . S
H803 C832 0.950 . S
H804 C834 0.950 . S
H805 C835 0.950 . S
C806 H788 0.951 . S
C806 C807 1.366 . S
C806 C808 1.388 . S
C807 C806 1.366 . S
C807 C811 1.385 . S
C808 H789 0.951 . S
C808 C806 1.388 . S
C808 C809 1.366 . S
C809 C808 1.366 . S
C809 C810 1.414 . S
C809 C812 1.499 . S
C810 H790 0.950 . S
C810 C809 1.414 . S
C810 C811 1.374 . S
C811 H791 0.950 . S
C811 C807 1.385 . S
C811 C810 1.374 . S
C812 C809 1.499 . S
C812 C813 1.373 . S
C812 C814 1.389 . S
C813 H792 0.950 . S
C813 C812 1.373 . S
C813 C829 1.377 . S
C814 C812 1.389 . S
C814 C815 1.524 . S
C814 C828 1.377 . S
C815 C814 1.524 . S
C815 C816 1.397 . S
C815 C820 1.363 . S
C816 H793 0.950 . S
C816 C815 1.397 . S
C816 C817 1.334 . S
C817 H794 0.950 . S
C817 C816 1.334 . S
C817 C818 1.287 . S
C818 C817 1.287 . S
C818 C819 1.524 . S
C818 H837 0.913 . S
C819 H795 0.950 . S
C819 C818 1.524 . S
C819 C820 1.415 . S
C820 H796 0.950 . S
C820 C815 1.363 . S
C820 C819 1.415 . S
C821 H797 0.951 . S
C821 C822 1.366 . S
C821 C823 1.388 . S
C822 C821 1.366 . S
C822 C826 1.385 . S
C823 H798 0.951 . S
C823 C821 1.388 . S
C823 C824 1.366 . S
C824 C823 1.366 . S
C824 C825 1.414 . S
C824 C827 1.499 . S
C825 H799 0.950 . S
C825 C824 1.414 . S
C825 C826 1.374 . S
C826 H800 0.950 . S
C826 C822 1.385 . S
C826 C825 1.374 . S
C827 C824 1.499 . S
C827 C828 1.373 . S
C827 C829 1.389 . S
C828 H801 0.950 . S
C828 C814 1.377 . S
C828 C827 1.373 . S
C829 C813 1.377 . S
C829 C827 1.389 . S
C829 C830 1.524 . S
C830 C829 1.524 . S
C830 C831 1.397 . S
C830 C835 1.363 . S
C831 H802 0.950 . S
C831 C830 1.397 . S
C831 C832 1.334 . S
C832 H803 0.950 . S
C832 C831 1.334 . S
C832 C833 1.287 . S
C833 C832 1.287 . S
C833 C834 1.524 . S
C833 H836 0.999 . S
C834 H804 0.950 . S
C834 C833 1.524 . S
C834 C835 1.415 . S
C835 H805 0.950 . S
C835 C830 1.363 . S
C835 C834 1.415 . S
H836 C833 0.999 . S
H837 C818 0.913 . S
H838 C856 0.951 . S
H839 C858 0.951 . S
H840 C860 0.950 . S
H841 C861 0.950 . S
H842 C863 0.950 . S
H843 C866 0.950 . S
H844 C867 0.950 . S
H845 C869 0.950 . S
H846 C870 0.950 . S
H847 C871 0.951 . S
H848 C873 0.951 . S
H849 C875 0.950 . S
H850 C876 0.950 . S
H851 C878 0.950 . S
H852 C881 0.950 . S
H853 C882 0.950 . S
H854 C884 0.950 1_545 S
H855 C885 0.950 . S
C856 H838 0.951 . S
C856 C857 1.366 . S
C856 C858 1.388 . S
C857 C856 1.366 . S
C857 C861 1.385 . S
C858 H839 0.951 . S
C858 C856 1.388 . S
C858 C859 1.366 . S
C859 C858 1.366 . S
C859 C860 1.414 . S
C859 C862 1.499 . S
C860 H840 0.950 . S
C860 C859 1.414 . S
C860 C861 1.374 . S
C861 H841 0.950 . S
C861 C857 1.385 . S
C861 C860 1.374 . S
C862 C859 1.499 . S
C862 C863 1.373 . S
C862 C864 1.389 . S
C863 H842 0.950 . S
C863 C862 1.373 . S
C863 C879 1.377 . S
C864 C862 1.389 . S
C864 C865 1.524 . S
C864 C878 1.377 . S
C865 C864 1.524 . S
C865 C866 1.397 . S
C865 C870 1.363 . S
C866 H843 0.950 . S
C866 C865 1.397 . S
C866 C867 1.334 . S
C867 H844 0.950 . S
C867 C866 1.334 . S
C867 C868 1.287 . S
C868 C867 1.287 . S
C868 C869 1.524 . S
C868 H887 0.913 . S
C869 H845 0.950 . S
C869 C868 1.524 . S
C869 C870 1.415 . S
C870 H846 0.950 . S
C870 C865 1.363 . S
C870 C869 1.415 . S
C871 H847 0.951 . S
C871 C872 1.366 . S
C871 C873 1.388 . S
C872 C871 1.366 . S
C872 C876 1.385 . S
C873 H848 0.951 . S
C873 C871 1.388 . S
C873 C874 1.366 . S
C874 C873 1.366 . S
C874 C875 1.414 . S
C874 C877 1.499 . S
C875 H849 0.950 . S
C875 C874 1.414 . S
C875 C876 1.374 . S
C876 H850 0.950 . S
C876 C872 1.385 . S
C876 C875 1.374 . S
C877 C874 1.499 . S
C877 C878 1.373 . S
C877 C879 1.389 . S
C878 H851 0.950 . S
C878 C864 1.377 . S
C878 C877 1.373 . S
C879 C863 1.377 . S
C879 C877 1.389 . S
C879 C880 1.524 . S
C880 C879 1.524 . S
C880 C881 1.397 . S
C880 C885 1.363 . S
C881 H852 0.950 . S
C881 C880 1.397 . S
C881 C882 1.334 . S
C882 H853 0.950 . S
C882 C881 1.334 . S
C882 C883 1.287 . S
C883 C882 1.287 . S
C883 C884 1.524 . S
C883 H886 0.999 . S
C884 H854 0.950 1_565 S
C884 C883 1.524 . S
C884 C885 1.415 . S
C885 H855 0.950 . S
C885 C880 1.363 . S
C885 C884 1.415 . S
H886 C883 0.999 . S
H887 C868 0.913 . S
H888 C906 0.951 . S
H889 C908 0.951 . S
H890 C910 0.950 . S
H891 C911 0.950 . S
H892 C913 0.950 . S
H893 C916 0.950 . S
H894 C917 0.950 . S
H895 C919 0.950 . S
H896 C920 0.950 . S
H897 C921 0.951 . S
H898 C923 0.951 . S
H899 C925 0.950 . S
H900 C926 0.950 . S
H901 C928 0.950 . S
H902 C931 0.950 . S
H903 C932 0.950 . S
H904 C934 0.950 1_565 S
H905 C935 0.950 . S
C906 H888 0.951 . S
C906 C907 1.366 . S
C906 C908 1.388 . S
C907 C906 1.366 . S
C907 C911 1.385 . S
C908 H889 0.951 . S
C908 C906 1.388 . S
C908 C909 1.366 . S
C909 C908 1.366 . S
C909 C910 1.414 . S
C909 C912 1.499 . S
C910 H890 0.950 . S
C910 C909 1.414 . S
C910 C911 1.374 . S
C911 H891 0.950 . S
C911 C907 1.385 . S
C911 C910 1.374 . S
C912 C909 1.499 . S
C912 C913 1.373 . S
C912 C914 1.389 . S
C913 H892 0.950 . S
C913 C912 1.373 . S
C913 C929 1.377 . S
C914 C912 1.389 . S
C914 C915 1.524 . S
C914 C928 1.377 . S
C915 C914 1.524 . S
C915 C916 1.397 . S
C915 C920 1.363 . S
C916 H893 0.950 . S
C916 C915 1.397 . S
C916 C917 1.334 . S
C917 H894 0.950 . S
C917 C916 1.334 . S
C917 C918 1.287 . S
C918 C917 1.287 . S
C918 C919 1.524 . S
C918 H937 0.913 . S
C919 H895 0.950 . S
C919 C918 1.524 . S
C919 C920 1.415 . S
C920 H896 0.950 . S
C920 C915 1.363 . S
C920 C919 1.415 . S
C921 H897 0.951 . S
C921 C922 1.366 . S
C921 C923 1.388 . S
C922 C921 1.366 . S
C922 C926 1.385 . S
C923 H898 0.951 . S
C923 C921 1.388 . S
C923 C924 1.366 . S
C924 C923 1.366 . S
C924 C925 1.414 . S
C924 C927 1.499 . S
C925 H899 0.950 . S
C925 C924 1.414 . S
C925 C926 1.374 . S
C926 H900 0.950 . S
C926 C922 1.385 . S
C926 C925 1.374 . S
C927 C924 1.499 . S
C927 C928 1.373 . S
C927 C929 1.389 . S
C928 H901 0.950 . S
C928 C914 1.377 . S
C928 C927 1.373 . S
C929 C913 1.377 . S
C929 C927 1.389 . S
C929 C930 1.524 . S
C930 C929 1.524 . S
C930 C931 1.397 . S
C930 C935 1.363 . S
C931 H902 0.950 . S
C931 C930 1.397 . S
C931 C932 1.334 . S
C932 H903 0.950 . S
C932 C931 1.334 . S
C932 C933 1.287 . S
C933 C932 1.287 . S
C933 C934 1.524 . S
C933 H936 0.999 1_545 S
C934 H904 0.950 1_545 S
C934 C933 1.524 . S
C934 C935 1.415 . S
C935 H905 0.950 . S
C935 C930 1.363 . S
C935 C934 1.415 . S
H936 C933 0.999 1_565 S
H937 C918 0.913 . S
H938 C956 0.951 . S
H939 C958 0.951 . S
H940 C960 0.950 . S
H941 C961 0.950 . S
H942 C963 0.950 . S
H943 C966 0.950 . S
H944 C967 0.950 . S
H945 C969 0.950 1_455 S
H946 C970 0.950 . S
H947 C971 0.951 . S
H948 C973 0.951 . S
H949 C975 0.950 . S
H950 C976 0.950 . S
H951 C978 0.950 . S
H952 C981 0.950 . S
H953 C982 0.950 . S
H954 C984 0.950 . S
H955 C985 0.950 . S
C956 H938 0.951 . S
C956 C957 1.366 . S
C956 C958 1.388 . S
C957 C956 1.366 . S
C957 C961 1.385 . S
C958 H939 0.951 . S
C958 C956 1.388 . S
C958 C959 1.366 . S
C959 C958 1.366 . S
C959 C960 1.414 . S
C959 C962 1.499 . S
C960 H940 0.950 . S
C960 C959 1.414 . S
C960 C961 1.374 . S
C961 H941 0.950 . S
C961 C957 1.385 . S
C961 C960 1.374 . S
C962 C959 1.499 . S
C962 C963 1.373 . S
C962 C964 1.389 . S
C963 H942 0.950 . S
C963 C962 1.373 . S
C963 C979 1.377 . S
C964 C962 1.389 . S
C964 C965 1.524 . S
C964 C978 1.377 . S
C965 C964 1.524 . S
C965 C966 1.397 . S
C965 C970 1.363 . S
C966 H943 0.950 . S
C966 C965 1.397 . S
C966 C967 1.334 . S
C967 H944 0.950 . S
C967 C966 1.334 . S
C967 C968 1.287 . S
C968 C967 1.287 . S
C968 C969 1.524 . S
C968 H987 0.913 . S
C969 H945 0.950 1_655 S
C969 C968 1.524 . S
C969 C970 1.415 . S
C970 H946 0.950 . S
C970 C965 1.363 . S
C970 C969 1.415 . S
C971 H947 0.951 . S
C971 C972 1.366 . S
C971 C973 1.388 . S
C972 C971 1.366 . S
C972 C976 1.385 . S
C973 H948 0.951 . S
C973 C971 1.388 . S
C973 C974 1.366 . S
C974 C973 1.366 . S
C974 C975 1.414 . S
C974 C977 1.499 . S
C975 H949 0.950 . S
C975 C974 1.414 . S
C975 C976 1.374 . S
C976 H950 0.950 . S
C976 C972 1.385 . S
C976 C975 1.374 . S
C977 C974 1.499 . S
C977 C978 1.373 . S
C977 C979 1.389 . S
C978 H951 0.950 . S
C978 C964 1.377 . S
C978 C977 1.373 . S
C979 C963 1.377 . S
C979 C977 1.389 . S
C979 C980 1.524 . S
C980 C979 1.524 . S
C980 C981 1.397 . S
C980 C985 1.363 . S
C981 H952 0.950 . S
C981 C980 1.397 . S
C981 C982 1.334 . S
C982 H953 0.950 . S
C982 C981 1.334 . S
C982 C983 1.287 . S
C983 C982 1.287 . S
C983 C984 1.524 . S
C983 H986 0.999 . S
C984 H954 0.950 . S
C984 C983 1.524 . S
C984 C985 1.415 . S
C985 H955 0.950 . S
C985 C980 1.363 . S
C985 C984 1.415 . S
H986 C983 0.999 . S
H987 C968 0.913 . S
H988 C1006 0.951 . S
H989 C1008 0.951 . S
H990 C1010 0.950 . S
H991 C1011 0.950 . S
H992 C1013 0.950 . S
H993 C1016 0.950 . S
H994 C1017 0.950 . S
H995 C1019 0.950 . S
H996 C1020 0.950 . S
H997 C1021 0.951 . S
H998 C1023 0.951 . S
H999 C1025 0.950 . S
H1000 C1026 0.950 . S
H1001 C1028 0.950 . S
H1002 C1031 0.950 . S
H1003 C1032 0.950 . S
H1004 C1034 0.950 . S
H1005 C1035 0.950 . S
C1006 H988 0.951 . S
C1006 C1007 1.366 . S
C1006 C1008 1.388 . S
C1007 C1006 1.366 . S
C1007 C1011 1.385 . S
C1008 H989 0.951 . S
C1008 C1006 1.388 . S
C1008 C1009 1.366 . S
C1009 C1008 1.366 . S
C1009 C1010 1.414 . S
C1009 C1012 1.499 . S
C1010 H990 0.950 . S
C1010 C1009 1.414 . S
C1010 C1011 1.374 . S
C1011 H991 0.950 . S
C1011 C1007 1.385 . S
C1011 C1010 1.374 . S
C1012 C1009 1.499 . S
C1012 C1013 1.373 . S
C1012 C1014 1.389 . S
C1013 H992 0.950 . S
C1013 C1012 1.373 . S
C1013 C1029 1.377 . S
C1014 C1012 1.389 . S
C1014 C1015 1.524 . S
C1014 C1028 1.377 . S
C1015 C1014 1.524 . S
C1015 C1016 1.397 . S
C1015 C1020 1.363 . S
C1016 H993 0.950 . S
C1016 C1015 1.397 . S
C1016 C1017 1.334 . S
C1017 H994 0.950 . S
C1017 C1016 1.334 . S
C1017 C1018 1.287 . S
C1018 C1017 1.287 . S
C1018 C1019 1.524 . S
C1018 H1037 0.913 . S
C1019 H995 0.950 . S
C1019 C1018 1.524 . S
C1019 C1020 1.415 . S
C1020 H996 0.950 . S
C1020 C1015 1.363 . S
C1020 C1019 1.415 . S
C1021 H997 0.951 . S
C1021 C1022 1.366 . S
C1021 C1023 1.388 . S
C1022 C1021 1.366 . S
C1022 C1026 1.385 . S
C1023 H998 0.951 . S
C1023 C1021 1.388 . S
C1023 C1024 1.366 . S
C1024 C1023 1.366 . S
C1024 C1025 1.414 . S
C1024 C1027 1.499 . S
C1025 H999 0.950 . S
C1025 C1024 1.414 . S
C1025 C1026 1.374 . S
C1026 H1000 0.950 . S
C1026 C1022 1.385 . S
C1026 C1025 1.374 . S
C1027 C1024 1.499 . S
C1027 C1028 1.373 . S
C1027 C1029 1.389 . S
C1028 H1001 0.950 . S
C1028 C1014 1.377 . S
C1028 C1027 1.373 . S
C1029 C1013 1.377 . S
C1029 C1027 1.389 . S
C1029 C1030 1.524 . S
C1030 C1029 1.524 . S
C1030 C1031 1.397 . S
C1030 C1035 1.363 . S
C1031 H1002 0.950 . S
C1031 C1030 1.397 . S
C1031 C1032 1.334 . S
C1032 H1003 0.950 . S
C1032 C1031 1.334 . S
C1032 C1033 1.287 . S
C1033 C1032 1.287 . S
C1033 C1034 1.524 . S
C1033 H1036 0.999 . S
C1034 H1004 0.950 . S
C1034 C1033 1.524 . S
C1034 C1035 1.415 . S
C1035 H1005 0.950 . S
C1035 C1030 1.363 . S
C1035 C1034 1.415 . S
H1036 C1033 0.999 . S
H1037 C1018 0.913 . S
H1038 C1056 0.951 . S
H1039 C1058 0.951 . S
H1040 C1060 0.950 . S
H1041 C1061 0.950 . S
H1042 C1063 0.950 . S
H1043 C1066 0.950 . S
H1044 C1067 0.950 . S
H1045 C1069 0.950 . S
H1046 C1070 0.950 . S
H1047 C1071 0.951 . S
H1048 C1073 0.951 . S
H1049 C1075 0.950 . S
H1050 C1076 0.950 . S
H1051 C1078 0.950 . S
H1052 C1081 0.950 . S
H1053 C1082 0.950 . S
H1054 C1084 0.950 . S
H1055 C1085 0.950 . S
C1056 H1038 0.951 . S
C1056 C1057 1.366 . S
C1056 C1058 1.388 . S
C1057 C1056 1.366 . S
C1057 C1061 1.385 . S
C1058 H1039 0.951 . S
C1058 C1056 1.388 . S
C1058 C1059 1.366 . S
C1059 C1058 1.366 . S
C1059 C1060 1.414 . S
C1059 C1062 1.499 . S
C1060 H1040 0.950 . S
C1060 C1059 1.414 . S
C1060 C1061 1.374 . S
C1061 H1041 0.950 . S
C1061 C1057 1.385 . S
C1061 C1060 1.374 . S
C1062 C1059 1.499 . S
C1062 C1063 1.373 . S
C1062 C1064 1.389 . S
C1063 H1042 0.950 . S
C1063 C1062 1.373 . S
C1063 C1079 1.377 . S
C1064 C1062 1.389 . S
C1064 C1065 1.524 . S
C1064 C1078 1.377 . S
C1065 C1064 1.524 . S
C1065 C1066 1.397 . S
C1065 C1070 1.363 . S
C1066 H1043 0.950 . S
C1066 C1065 1.397 . S
C1066 C1067 1.334 . S
C1067 H1044 0.950 . S
C1067 C1066 1.334 . S
C1067 C1068 1.287 . S
C1068 C1067 1.287 . S
C1068 C1069 1.524 . S
C1068 H1087 0.913 . S
C1069 H1045 0.950 . S
C1069 C1068 1.524 . S
C1069 C1070 1.415 . S
C1070 H1046 0.950 . S
C1070 C1065 1.363 . S
C1070 C1069 1.415 . S
C1071 H1047 0.951 . S
C1071 C1072 1.366 . S
C1071 C1073 1.388 . S
C1072 C1071 1.366 . S
C1072 C1076 1.385 . S
C1073 H1048 0.951 . S
C1073 C1071 1.388 . S
C1073 C1074 1.366 . S
C1074 C1073 1.366 . S
C1074 C1075 1.414 . S
C1074 C1077 1.499 1_545 S
C1075 H1049 0.950 . S
C1075 C1074 1.414 . S
C1075 C1076 1.374 . S
C1076 H1050 0.950 . S
C1076 C1072 1.385 . S
C1076 C1075 1.374 . S
C1077 C1074 1.499 1_565 S
C1077 C1078 1.373 . S
C1077 C1079 1.389 . S
C1078 H1051 0.950 . S
C1078 C1064 1.377 . S
C1078 C1077 1.373 . S
C1079 C1063 1.377 . S
C1079 C1077 1.389 . S
C1079 C1080 1.524 . S
C1080 C1079 1.524 . S
C1080 C1081 1.397 1_565 S
C1080 C1085 1.363 . S
C1081 H1052 0.950 . S
C1081 C1080 1.397 1_545 S
C1081 C1082 1.334 . S
C1082 H1053 0.950 . S
C1082 C1081 1.334 . S
C1082 C1083 1.287 . S
C1083 C1082 1.287 . S
C1083 C1084 1.524 1_545 S
C1083 H1086 0.999 . S
C1084 H1054 0.950 . S
C1084 C1083 1.524 1_565 S
C1084 C1085 1.415 . S
C1085 H1055 0.950 . S
C1085 C1080 1.363 . S
C1085 C1084 1.415 . S
H1086 C1083 0.999 . S
H1087 C1068 0.913 . S
H1088 C1106 0.951 . S
H1089 C1108 0.951 . S
H1090 C1110 0.950 1_455 S
H1091 C1111 0.950 . S
H1092 C1113 0.950 . S
H1093 C1116 0.950 . S
H1094 C1117 0.950 . S
H1095 C1119 0.950 . S
H1096 C1120 0.950 . S
H1097 C1121 0.951 . S
H1098 C1123 0.951 . S
H1099 C1125 0.950 . S
H1100 C1126 0.950 . S
H1101 C1128 0.950 . S
H1102 C1131 0.950 1_545 S
H1103 C1132 0.950 . S
H1104 C1134 0.950 . S
H1105 C1135 0.950 . S
C1106 H1088 0.951 . S
C1106 C1107 1.366 . S
C1106 C1108 1.388 . S
C1107 C1106 1.366 . S
C1107 C1111 1.385 . S
C1108 H1089 0.951 . S
C1108 C1106 1.388 . S
C1108 C1109 1.366 1_655 S
C1109 C1108 1.366 1_455 S
C1109 C1110 1.414 1_455 S
C1109 C1112 1.499 . S
C1110 H1090 0.950 1_655 S
C1110 C1109 1.414 1_655 S
C1110 C1111 1.374 . S
C1111 H1091 0.950 . S
C1111 C1107 1.385 . S
C1111 C1110 1.374 . S
C1112 C1109 1.499 . S
C1112 C1113 1.373 . S
C1112 C1114 1.389 . S
C1113 H1092 0.950 . S
C1113 C1112 1.373 . S
C1113 C1129 1.377 . S
C1114 C1112 1.389 . S
C1114 C1115 1.524 . S
C1114 C1128 1.377 . S
C1115 C1114 1.524 . S
C1115 C1116 1.397 . S
C1115 C1120 1.363 . S
C1116 H1093 0.950 . S
C1116 C1115 1.397 . S
C1116 C1117 1.334 . S
C1117 H1094 0.950 . S
C1117 C1116 1.334 . S
C1117 C1118 1.287 . S
C1118 C1117 1.287 . S
C1118 C1119 1.524 . S
C1118 H1137 0.913 . S
C1119 H1095 0.950 . S
C1119 C1118 1.524 . S
C1119 C1120 1.415 . S
C1120 H1096 0.950 . S
C1120 C1115 1.363 . S
C1120 C1119 1.415 . S
C1121 H1097 0.951 . S
C1121 C1122 1.366 . S
C1121 C1123 1.388 1_545 S
C1122 C1121 1.366 . S
C1122 C1126 1.385 . S
C1123 H1098 0.951 . S
C1123 C1121 1.388 1_565 S
C1123 C1124 1.366 . S
C1124 C1123 1.366 . S
C1124 C1125 1.414 1_565 S
C1124 C1127 1.499 . S
C1125 H1099 0.950 . S
C1125 C1124 1.414 1_545 S
C1125 C1126 1.374 . S
C1126 H1100 0.950 . S
C1126 C1122 1.385 . S
C1126 C1125 1.374 . S
C1127 C1124 1.499 . S
C1127 C1128 1.373 . S
C1127 C1129 1.389 . S
C1128 H1101 0.950 . S
C1128 C1114 1.377 . S
C1128 C1127 1.373 . S
C1129 C1113 1.377 . S
C1129 C1127 1.389 . S
C1129 C1130 1.524 . S
C1130 C1129 1.524 . S
C1130 C1131 1.397 . S
C1130 C1135 1.363 . S
C1131 H1102 0.950 1_565 S
C1131 C1130 1.397 . S
C1131 C1132 1.334 1_565 S
C1132 H1103 0.950 . S
C1132 C1131 1.334 1_545 S
C1132 C1133 1.287 1_545 S
C1133 C1132 1.287 1_565 S
C1133 C1134 1.524 . S
C1133 H1136 0.999 . S
C1134 H1104 0.950 . S
C1134 C1133 1.524 . S
C1134 C1135 1.415 . S
C1135 H1105 0.950 . S
C1135 C1130 1.363 . S
C1135 C1134 1.415 . S
H1136 C1133 0.999 . S
H1137 C1118 0.913 . S
H1138 C1156 0.951 . S
H1139 C1158 0.951 . S
H1140 C1160 0.950 . S
H1141 C1161 0.950 . S
H1142 C1163 0.950 . S
H1143 C1166 0.950 . S
H1144 C1167 0.950 . S
H1145 C1169 0.950 . S
H1146 C1170 0.950 . S
H1147 C1171 0.951 . S
H1148 C1173 0.951 . S
H1149 C1175 0.950 . S
H1150 C1176 0.950 1_655 S
H1151 C1178 0.950 . S
H1152 C1181 0.950 . S
H1153 C1182 0.950 . S
H1154 C1184 0.950 . S
H1155 C1185 0.950 . S
C1156 H1138 0.951 . S
C1156 C1157 1.366 . S
C1156 C1158 1.388 . S
C1157 C1156 1.366 . S
C1157 C1161 1.385 . S
C1158 H1139 0.951 . S
C1158 C1156 1.388 . S
C1158 C1159 1.366 . S
C1159 C1158 1.366 . S
C1159 C1160 1.414 . S
C1159 C1162 1.499 . S
C1160 H1140 0.950 . S
C1160 C1159 1.414 . S
C1160 C1161 1.374 . S
C1161 H1141 0.950 . S
C1161 C1157 1.385 . S
C1161 C1160 1.374 . S
C1162 C1159 1.499 . S
C1162 C1163 1.373 . S
C1162 C1164 1.389 . S
C1163 H1142 0.950 . S
C1163 C1162 1.373 . S
C1163 C1179 1.377 . S
C1164 C1162 1.389 . S
C1164 C1165 1.524 . S
C1164 C1178 1.377 . S
C1165 C1164 1.524 . S
C1165 C1166 1.397 . S
C1165 C1170 1.363 . S
C1166 H1143 0.950 . S
C1166 C1165 1.397 . S
C1166 C1167 1.334 . S
C1167 H1144 0.950 . S
C1167 C1166 1.334 . S
C1167 C1168 1.287 . S
C1168 C1167 1.287 . S
C1168 C1169 1.524 . S
C1168 H1187 0.913 . S
C1169 H1145 0.950 . S
C1169 C1168 1.524 . S
C1169 C1170 1.415 . S
C1170 H1146 0.950 . S
C1170 C1165 1.363 . S
C1170 C1169 1.415 . S
C1171 H1147 0.951 . S
C1171 C1172 1.366 1_455 S
C1171 C1173 1.388 . S
C1172 C1171 1.366 1_655 S
C1172 C1176 1.385 1_655 S
C1173 H1148 0.951 . S
C1173 C1171 1.388 . S
C1173 C1174 1.366 . S
C1174 C1173 1.366 . S
C1174 C1175 1.414 . S
C1174 C1177 1.499 . S
C1175 H1149 0.950 . S
C1175 C1174 1.414 . S
C1175 C1176 1.374 . S
C1176 H1150 0.950 1_455 S
C1176 C1172 1.385 1_455 S
C1176 C1175 1.374 . S
C1177 C1174 1.499 . S
C1177 C1178 1.373 . S
C1177 C1179 1.389 . S
C1178 H1151 0.950 . S
C1178 C1164 1.377 . S
C1178 C1177 1.373 . S
C1179 C1163 1.377 . S
C1179 C1177 1.389 . S
C1179 C1180 1.524 . S
C1180 C1179 1.524 . S
C1180 C1181 1.397 . S
C1180 C1185 1.363 . S
C1181 H1152 0.950 . S
C1181 C1180 1.397 . S
C1181 C1182 1.334 1_455 S
C1182 H1153 0.950 . S
C1182 C1181 1.334 1_655 S
C1182 C1183 1.286 . S
C1183 C1182 1.286 . S
C1183 C1184 1.525 1_655 S
C1183 H1186 0.999 . S
C1184 H1154 0.950 . S
C1184 C1183 1.525 1_455 S
C1184 C1185 1.415 . S
C1185 H1155 0.950 . S
C1185 C1180 1.363 . S
C1185 C1184 1.415 . S
H1186 C1183 0.999 . S
H1187 C1168 0.913 . S
H1188 C1206 0.951 . S
H1189 C1208 0.951 . S
H1190 C1210 0.950 . S
H1191 C1211 0.950 . S
H1192 C1213 0.950 . S
H1193 C1216 0.950 . S
H1194 C1217 0.950 . S
H1195 C1219 0.950 . S
H1196 C1220 0.950 . S
H1197 C1221 0.951 . S
H1198 C1223 0.951 . S
H1199 C1225 0.950 . S
H1200 C1226 0.950 . S
H1201 C1228 0.950 . S
H1202 C1231 0.950 1_655 S
H1203 C1232 0.950 . S
H1204 C1234 0.950 . S
H1205 C1235 0.950 . S
C1206 H1188 0.951 . S
C1206 C1207 1.366 . S
C1206 C1208 1.388 . S
C1207 C1206 1.366 . S
C1207 C1211 1.385 . S
C1208 H1189 0.951 . S
C1208 C1206 1.388 . S
C1208 C1209 1.366 . S
C1209 C1208 1.366 . S
C1209 C1210 1.414 . S
C1209 C1212 1.499 . S
C1210 H1190 0.950 . S
C1210 C1209 1.414 . S
C1210 C1211 1.374 . S
C1211 H1191 0.950 . S
C1211 C1207 1.385 . S
C1211 C1210 1.374 . S
C1212 C1209 1.499 . S
C1212 C1213 1.373 . S
C1212 C1214 1.389 . S
C1213 H1192 0.950 . S
C1213 C1212 1.373 . S
C1213 C1229 1.377 . S
C1214 C1212 1.389 . S
C1214 C1215 1.524 . S
C1214 C1228 1.377 . S
C1215 C1214 1.524 . S
C1215 C1216 1.397 . S
C1215 C1220 1.363 . S
C1216 H1193 0.950 . S
C1216 C1215 1.397 . S
C1216 C1217 1.334 . S
C1217 H1194 0.950 . S
C1217 C1216 1.334 . S
C1217 C1218 1.287 . S
C1218 C1217 1.287 . S
C1218 C1219 1.524 . S
C1218 H1237 0.913 . S
C1219 H1195 0.950 . S
C1219 C1218 1.524 . S
C1219 C1220 1.415 . S
C1220 H1196 0.950 . S
C1220 C1215 1.363 . S
C1220 C1219 1.415 . S
C1221 H1197 0.951 . S
C1221 C1222 1.366 . S
C1221 C1223 1.388 . S
C1222 C1221 1.366 . S
C1222 C1226 1.385 . S
C1223 H1198 0.951 . S
C1223 C1221 1.388 . S
C1223 C1224 1.366 . S
C1224 C1223 1.366 . S
C1224 C1225 1.414 . S
C1224 C1227 1.499 . S
C1225 H1199 0.950 . S
C1225 C1224 1.414 . S
C1225 C1226 1.374 . S
C1226 H1200 0.950 . S
C1226 C1222 1.385 . S
C1226 C1225 1.374 . S
C1227 C1224 1.499 . S
C1227 C1228 1.373 . S
C1227 C1229 1.389 . S
C1228 H1201 0.950 . S
C1228 C1214 1.377 . S
C1228 C1227 1.373 . S
C1229 C1213 1.377 . S
C1229 C1227 1.389 . S
C1229 C1230 1.524 . S
C1230 C1229 1.524 . S
C1230 C1231 1.397 . S
C1230 C1235 1.363 . S
C1231 H1202 0.950 1_455 S
C1231 C1230 1.397 . S
C1231 C1232 1.334 1_455 S
C1232 H1203 0.950 . S
C1232 C1231 1.334 1_655 S
C1232 C1233 1.287 . S
C1233 C1232 1.287 . S
C1233 C1234 1.524 1_655 S
C1233 H1236 0.999 . S
C1234 H1204 0.950 . S
C1234 C1233 1.524 1_455 S
C1234 C1235 1.415 . S
C1235 H1205 0.950 . S
C1235 C1230 1.363 . S
C1235 C1234 1.415 . S
H1236 C1233 0.999 . S
H1237 C1218 0.913 . S
H1238 C1256 0.951 . S
H1239 C1258 0.951 . S
H1240 C1260 0.950 . S
H1241 C1261 0.950 . S
H1242 C1263 0.950 . S
H1243 C1266 0.950 . S
H1244 C1267 0.950 . S
H1245 C1269 0.950 . S
H1246 C1270 0.950 . S
H1247 C1271 0.951 . S
H1248 C1273 0.951 . S
H1249 C1275 0.950 . S
H1250 C1276 0.950 . S
H1251 C1278 0.950 . S
H1252 C1281 0.950 . S
H1253 C1282 0.950 . S
H1254 C1284 0.950 . S
H1255 C1285 0.950 . S
C1256 H1238 0.951 . S
C1256 C1257 1.366 . S
C1256 C1258 1.388 . S
C1257 C1256 1.366 . S
C1257 C1261 1.385 . S
C1258 H1239 0.951 . S
C1258 C1256 1.388 . S
C1258 C1259 1.366 . S
C1259 C1258 1.366 . S
C1259 C1260 1.414 . S
C1259 C1262 1.499 . S
C1260 H1240 0.950 . S
C1260 C1259 1.414 . S
C1260 C1261 1.374 . S
C1261 H1241 0.950 . S
C1261 C1257 1.385 . S
C1261 C1260 1.374 . S
C1262 C1259 1.499 . S
C1262 C1263 1.373 . S
C1262 C1264 1.389 . S
C1263 H1242 0.950 . S
C1263 C1262 1.373 . S
C1263 C1279 1.377 . S
C1264 C1262 1.389 . S
C1264 C1265 1.524 . S
C1264 C1278 1.377 . S
C1265 C1264 1.524 . S
C1265 C1266 1.397 . S
C1265 C1270 1.363 . S
C1266 H1243 0.950 . S
C1266 C1265 1.397 . S
C1266 C1267 1.334 . S
C1267 H1244 0.950 . S
C1267 C1266 1.334 . S
C1267 C1268 1.287 . S
C1268 C1267 1.287 . S
C1268 C1269 1.524 . S
C1268 H1287 0.913 . S
C1269 H1245 0.950 . S
C1269 C1268 1.524 . S
C1269 C1270 1.415 . S
C1270 H1246 0.950 . S
C1270 C1265 1.363 . S
C1270 C1269 1.415 . S
C1271 H1247 0.951 . S
C1271 C1272 1.366 . S
C1271 C1273 1.388 . S
C1272 C1271 1.366 . S
C1272 C1276 1.385 . S
C1273 H1248 0.951 . S
C1273 C1271 1.388 . S
C1273 C1274 1.366 . S
C1274 C1273 1.366 . S
C1274 C1275 1.414 . S
C1274 C1277 1.499 . S
C1275 H1249 0.950 . S
C1275 C1274 1.414 . S
C1275 C1276 1.374 . S
C1276 H1250 0.950 . S
C1276 C1272 1.385 . S
C1276 C1275 1.374 . S
C1277 C1274 1.499 . S
C1277 C1278 1.373 . S
C1277 C1279 1.389 . S
C1278 H1251 0.950 . S
C1278 C1264 1.377 . S
C1278 C1277 1.373 . S
C1279 C1263 1.377 . S
C1279 C1277 1.389 . S
C1279 C1280 1.524 . S
C1280 C1279 1.524 . S
C1280 C1281 1.397 . S
C1280 C1285 1.363 . S
C1281 H1252 0.950 . S
C1281 C1280 1.397 . S
C1281 C1282 1.334 . S
C1282 H1253 0.950 . S
C1282 C1281 1.334 . S
C1282 C1283 1.287 . S
C1283 C1282 1.287 . S
C1283 C1284 1.524 . S
C1283 H1286 0.999 . S
C1284 H1254 0.950 . S
C1284 C1283 1.524 . S
C1284 C1285 1.415 . S
C1285 H1255 0.950 . S
C1285 C1280 1.363 . S
C1285 C1284 1.415 . S
H1286 C1283 0.999 . S
H1287 C1268 0.913 . S
H1288 C1306 0.951 1_545 S
H1289 C1308 0.951 . S
H1290 C1310 0.950 . S
H1291 C1311 0.950 . S
H1292 C1313 0.950 . S
H1293 C1316 0.950 . S
H1294 C1317 0.950 . S
H1295 C1319 0.950 . S
H1296 C1320 0.950 . S
H1297 C1321 0.951 . S
H1298 C1323 0.951 . S
H1299 C1325 0.950 . S
H1300 C1326 0.950 . S
H1301 C1328 0.950 . S
H1302 C1331 0.950 . S
H1303 C1332 0.950 . S
H1304 C1334 0.950 . S
H1305 C1335 0.950 . S
C1306 H1288 0.951 1_565 S
C1306 C1307 1.366 . S
C1306 C1308 1.388 . S
C1307 C1306 1.366 . S
C1307 C1311 1.385 . S
C1308 H1289 0.951 . S
C1308 C1306 1.388 . S
C1308 C1309 1.366 . S
C1309 C1308 1.366 . S
C1309 C1310 1.414 . S
C1309 C1312 1.499 . S
C1310 H1290 0.950 . S
C1310 C1309 1.414 . S
C1310 C1311 1.374 . S
C1311 H1291 0.950 . S
C1311 C1307 1.385 . S
C1311 C1310 1.374 . S
C1312 C1309 1.499 . S
C1312 C1313 1.373 . S
C1312 C1314 1.389 . S
C1313 H1292 0.950 . S
C1313 C1312 1.373 . S
C1313 C1329 1.377 . S
C1314 C1312 1.389 . S
C1314 C1315 1.524 1_565 S
C1314 C1328 1.377 . S
C1315 C1314 1.524 1_545 S
C1315 C1316 1.397 . S
C1315 C1320 1.363 . S
C1316 H1293 0.950 . S
C1316 C1315 1.397 . S
C1316 C1317 1.334 . S
C1317 H1294 0.950 . S
C1317 C1316 1.334 . S
C1317 C1318 1.287 . S
C1318 C1317 1.287 . S
C1318 C1319 1.524 . S
C1318 H1337 0.913 . S
C1319 H1295 0.950 . S
C1319 C1318 1.524 . S
C1319 C1320 1.415 . S
C1320 H1296 0.950 . S
C1320 C1315 1.363 . S
C1320 C1319 1.415 . S
C1321 H1297 0.951 . S
C1321 C1322 1.366 . S
C1321 C1323 1.388 . S
C1322 C1321 1.366 . S
C1322 C1326 1.385 . S
C1323 H1298 0.951 . S
C1323 C1321 1.388 . S
C1323 C1324 1.366 . S
C1324 C1323 1.366 . S
C1324 C1325 1.414 . S
C1324 C1327 1.499 . S
C1325 H1299 0.950 . S
C1325 C1324 1.414 . S
C1325 C1326 1.374 . S
C1326 H1300 0.950 . S
C1326 C1322 1.385 . S
C1326 C1325 1.374 . S
C1327 C1324 1.499 . S
C1327 C1328 1.373 . S
C1327 C1329 1.389 . S
C1328 H1301 0.950 . S
C1328 C1314 1.377 . S
C1328 C1327 1.373 . S
C1329 C1313 1.377 . S
C1329 C1327 1.389 . S
C1329 C1330 1.524 . S
C1330 C1329 1.524 . S
C1330 C1331 1.397 . S
C1330 C1335 1.363 . S
C1331 H1302 0.950 . S
C1331 C1330 1.397 . S
C1331 C1332 1.334 . S
C1332 H1303 0.950 . S
C1332 C1331 1.334 . S
C1332 C1333 1.287 . S
C1333 C1332 1.287 . S
C1333 C1334 1.524 . S
C1333 H1336 0.999 . S
C1334 H1304 0.950 . S
C1334 C1333 1.524 . S
C1334 C1335 1.415 . S
C1335 H1305 0.950 . S
C1335 C1330 1.363 . S
C1335 C1334 1.415 . S
H1336 C1333 0.999 . S
H1337 C1318 0.913 . S
H1338 C1356 0.951 . S
H1339 C1358 0.951 . S
H1340 C1360 0.950 . S
H1341 C1361 0.950 . S
H1342 C1363 0.950 . S
H1343 C1366 0.950 . S
H1344 C1367 0.950 . S
H1345 C1369 0.950 . S
H1346 C1370 0.950 . S
H1347 C1371 0.951 . S
H1348 C1373 0.951 . S
H1349 C1375 0.950 . S
H1350 C1376 0.950 . S
H1351 C1378 0.950 . S
H1352 C1381 0.950 . S
H1353 C1382 0.950 1_565 S
H1354 C1384 0.950 . S
H1355 C1385 0.950 . S
C1356 H1338 0.951 . S
C1356 C1357 1.366 . S
C1356 C1358 1.388 . S
C1357 C1356 1.366 . S
C1357 C1361 1.385 . S
C1358 H1339 0.951 . S
C1358 C1356 1.388 . S
C1358 C1359 1.366 . S
C1359 C1358 1.366 . S
C1359 C1360 1.414 . S
C1359 C1362 1.499 . S
C1360 H1340 0.950 . S
C1360 C1359 1.414 . S
C1360 C1361 1.374 . S
C1361 H1341 0.950 . S
C1361 C1357 1.385 . S
C1361 C1360 1.374 . S
C1362 C1359 1.499 . S
C1362 C1363 1.373 . S
C1362 C1364 1.389 . S
C1363 H1342 0.950 . S
C1363 C1362 1.373 . S
C1363 C1379 1.377 . S
C1364 C1362 1.389 . S
C1364 C1365 1.524 . S
C1364 C1378 1.377 . S
C1365 C1364 1.524 . S
C1365 C1366 1.397 . S
C1365 C1370 1.363 . S
C1366 H1343 0.950 . S
C1366 C1365 1.397 . S
C1366 C1367 1.334 . S
C1367 H1344 0.950 . S
C1367 C1366 1.334 . S
C1367 C1368 1.287 . S
C1368 C1367 1.287 . S
C1368 C1369 1.524 . S
C1368 H1387 0.913 . S
C1369 H1345 0.950 . S
C1369 C1368 1.524 . S
C1369 C1370 1.415 . S
C1370 H1346 0.950 . S
C1370 C1365 1.363 . S
C1370 C1369 1.415 . S
C1371 H1347 0.951 . S
C1371 C1372 1.366 . S
C1371 C1373 1.388 . S
C1372 C1371 1.366 . S
C1372 C1376 1.385 . S
C1373 H1348 0.951 . S
C1373 C1371 1.388 . S
C1373 C1374 1.366 . S
C1374 C1373 1.366 . S
C1374 C1375 1.414 . S
C1374 C1377 1.499 . S
C1375 H1349 0.950 . S
C1375 C1374 1.414 . S
C1375 C1376 1.374 . S
C1376 H1350 0.950 . S
C1376 C1372 1.385 . S
C1376 C1375 1.374 . S
C1377 C1374 1.499 . S
C1377 C1378 1.373 . S
C1377 C1379 1.389 . S
C1378 H1351 0.950 . S
C1378 C1364 1.377 . S
C1378 C1377 1.373 . S
C1379 C1363 1.377 . S
C1379 C1377 1.389 . S
C1379 C1380 1.524 . S
C1380 C1379 1.524 . S
C1380 C1381 1.397 . S
C1380 C1385 1.363 . S
C1381 H1352 0.950 . S
C1381 C1380 1.397 . S
C1381 C1382 1.334 . S
C1382 H1353 0.950 1_545 S
C1382 C1381 1.334 . S
C1382 C1383 1.287 . S
C1383 C1382 1.287 . S
C1383 C1384 1.524 . S
C1383 H1386 0.999 1_545 S
C1384 H1354 0.950 . S
C1384 C1383 1.524 . S
C1384 C1385 1.415 . S
C1385 H1355 0.950 . S
C1385 C1380 1.363 . S
C1385 C1384 1.415 . S
H1386 C1383 0.999 1_565 S
H1387 C1368 0.913 . S
H1388 C1406 0.951 . S
H1389 C1408 0.951 . S
H1390 C1410 0.950 1_455 S
H1391 C1411 0.950 . S
H1392 C1413 0.950 1_455 S
H1393 C1416 0.950 . S
H1394 C1417 0.950 . S
H1395 C1419 0.950 . S
H1396 C1420 0.950 . S
H1397 C1421 0.951 . S
H1398 C1423 0.951 . S
H1399 C1425 0.950 . S
H1400 C1426 0.950 . S
H1401 C1428 0.950 . S
H1402 C1431 0.950 . S
H1403 C1432 0.950 . S
H1404 C1434 0.950 . S
H1405 C1435 0.950 . S
C1406 H1388 0.951 . S
C1406 C1407 1.366 . S
C1406 C1408 1.388 . S
C1407 C1406 1.366 . S
C1407 C1411 1.385 1_655 S
C1408 H1389 0.951 . S
C1408 C1406 1.388 . S
C1408 C1409 1.366 . S
C1409 C1408 1.366 . S
C1409 C1410 1.414 . S
C1409 C1412 1.499 . S
C1410 H1390 0.950 1_655 S
C1410 C1409 1.414 . S
C1410 C1411 1.374 1_655 S
C1411 H1391 0.950 . S
C1411 C1407 1.385 1_455 S
C1411 C1410 1.374 1_455 S
C1412 C1409 1.499 . S
C1412 C1413 1.373 . S
C1412 C1414 1.389 . S
C1413 H1392 0.950 1_655 S
C1413 C1412 1.373 . S
C1413 C1429 1.377 . S
C1414 C1412 1.389 . S
C1414 C1415 1.524 . S
C1414 C1428 1.377 . S
C1415 C1414 1.524 . S
C1415 C1416 1.397 . S
C1415 C1420 1.363 . S
C1416 H1393 0.950 . S
C1416 C1415 1.397 . S
C1416 C1417 1.334 . S
C1417 H1394 0.950 . S
C1417 C1416 1.334 . S
C1417 C1418 1.287 . S
C1418 C1417 1.287 . S
C1418 C1419 1.524 . S
C1418 H1437 0.913 . S
C1419 H1395 0.950 . S
C1419 C1418 1.524 . S
C1419 C1420 1.415 . S
C1420 H1396 0.950 . S
C1420 C1415 1.363 . S
C1420 C1419 1.415 . S
C1421 H1397 0.951 . S
C1421 C1422 1.366 . S
C1421 C1423 1.388 . S
C1422 C1421 1.366 . S
C1422 C1426 1.385 . S
C1423 H1398 0.951 . S
C1423 C1421 1.388 . S
C1423 C1424 1.366 . S
C1424 C1423 1.366 . S
C1424 C1425 1.414 . S
C1424 C1427 1.499 . S
C1425 H1399 0.950 . S
C1425 C1424 1.414 . S
C1425 C1426 1.374 . S
C1426 H1400 0.950 . S
C1426 C1422 1.385 . S
C1426 C1425 1.374 . S
C1427 C1424 1.499 . S
C1427 C1428 1.373 . S
C1427 C1429 1.389 . S
C1428 H1401 0.950 . S
C1428 C1414 1.377 . S
C1428 C1427 1.373 . S
C1429 C1413 1.377 . S
C1429 C1427 1.389 . S
C1429 C1430 1.526 . S
C1430 C1429 1.526 . S
C1430 C1431 1.398 . S
C1430 C1435 1.360 1_655 S
C1431 H1402 0.950 . S
C1431 C1430 1.398 . S
C1431 C1432 1.334 1_655 S
C1432 H1403 0.950 . S
C1432 C1431 1.334 1_455 S
C1432 C1433 1.287 . S
C1433 C1432 1.287 . S
C1433 C1434 1.524 . S
C1433 H1436 0.999 . S
C1434 H1404 0.950 . S
C1434 C1433 1.524 . S
C1434 C1435 1.415 . S
C1435 H1405 0.950 . S
C1435 C1430 1.360 1_455 S
C1435 C1434 1.415 . S
H1436 C1433 0.999 . S
H1437 C1418 0.913 . S
H1438 C1456 0.951 . S
H1439 C1458 0.951 . S
H1440 C1460 0.950 . S
H1441 C1461 0.950 . S
H1442 C1463 0.950 . S
H1443 C1466 0.950 . S
H1444 C1467 0.950 . S
H1445 C1469 0.950 . S
H1446 C1470 0.950 . S
H1447 C1471 0.951 . S
H1448 C1473 0.951 . S
H1449 C1475 0.950 . S
H1450 C1476 0.950 . S
H1451 C1478 0.950 . S
H1452 C1481 0.950 . S
H1453 C1482 0.950 . S
H1454 C1484 0.950 . S
H1455 C1485 0.950 . S
C1456 H1438 0.951 . S
C1456 C1457 1.366 . S
C1456 C1458 1.388 . S
C1457 C1456 1.366 . S
C1457 C1461 1.385 . S
C1458 H1439 0.951 . S
C1458 C1456 1.388 . S
C1458 C1459 1.366 . S
C1459 C1458 1.366 . S
C1459 C1460 1.414 . S
C1459 C1462 1.499 . S
C1460 H1440 0.950 . S
C1460 C1459 1.414 . S
C1460 C1461 1.374 . S
C1461 H1441 0.950 . S
C1461 C1457 1.385 . S
C1461 C1460 1.374 . S
C1462 C1459 1.499 . S
C1462 C1463 1.373 . S
C1462 C1464 1.389 . S
C1463 H1442 0.950 . S
C1463 C1462 1.373 . S
C1463 C1479 1.377 . S
C1464 C1462 1.389 . S
C1464 C1465 1.524 . S
C1464 C1478 1.377 . S
C1465 C1464 1.524 . S
C1465 C1466 1.397 . S
C1465 C1470 1.363 . S
C1466 H1443 0.950 . S
C1466 C1465 1.397 . S
C1466 C1467 1.334 . S
C1467 H1444 0.950 . S
C1467 C1466 1.334 . S
C1467 C1468 1.287 . S
C1468 C1467 1.287 . S
C1468 C1469 1.524 . S
C1468 H1487 0.913 . S
C1469 H1445 0.950 . S
C1469 C1468 1.524 . S
C1469 C1470 1.415 . S
C1470 H1446 0.950 . S
C1470 C1465 1.363 . S
C1470 C1469 1.415 . S
C1471 H1447 0.951 . S
C1471 C1472 1.366 . S
C1471 C1473 1.388 . S
C1472 C1471 1.366 . S
C1472 C1476 1.385 . S
C1473 H1448 0.951 . S
C1473 C1471 1.388 . S
C1473 C1474 1.366 . S
C1474 C1473 1.366 . S
C1474 C1475 1.414 . S
C1474 C1477 1.499 . S
C1475 H1449 0.950 . S
C1475 C1474 1.414 . S
C1475 C1476 1.374 . S
C1476 H1450 0.950 . S
C1476 C1472 1.385 . S
C1476 C1475 1.374 . S
C1477 C1474 1.499 . S
C1477 C1478 1.373 . S
C1477 C1479 1.389 . S
C1478 H1451 0.950 . S
C1478 C1464 1.377 . S
C1478 C1477 1.373 . S
C1479 C1463 1.377 . S
C1479 C1477 1.389 . S
C1479 C1480 1.524 . S
C1480 C1479 1.524 . S
C1480 C1481 1.397 . S
C1480 C1485 1.363 . S
C1481 H1452 0.950 . S
C1481 C1480 1.397 . S
C1481 C1482 1.334 . S
C1482 H1453 0.950 . S
C1482 C1481 1.334 . S
C1482 C1483 1.287 . S
C1483 C1482 1.287 . S
C1483 C1484 1.524 . S
C1483 H1486 0.999 . S
C1484 H1454 0.950 . S
C1484 C1483 1.524 . S
C1484 C1485 1.415 . S
C1485 H1455 0.950 . S
C1485 C1480 1.363 . S
C1485 C1484 1.415 . S
H1486 C1483 0.999 . S
H1487 C1468 0.913 . S
H1488 C1506 0.951 . S
H1489 C1508 0.951 . S
H1490 C1510 0.950 . S
H1491 C1511 0.950 . S
H1492 C1513 0.950 . S
H1493 C1516 0.950 . S
H1494 C1517 0.950 . S
H1495 C1519 0.950 . S
H1496 C1520 0.950 . S
H1497 C1521 0.951 . S
H1498 C1523 0.951 . S
H1499 C1525 0.950 . S
H1500 C1526 0.950 . S
H1501 C1528 0.950 . S
H1502 C1531 0.950 . S
H1503 C1532 0.950 . S
H1504 C1534 0.950 . S
H1505 C1535 0.950 . S
C1506 H1488 0.951 . S
C1506 C1507 1.366 . S
C1506 C1508 1.388 . S
C1507 C1506 1.366 . S
C1507 C1511 1.385 . S
C1508 H1489 0.951 . S
C1508 C1506 1.388 . S
C1508 C1509 1.366 . S
C1509 C1508 1.366 . S
C1509 C1510 1.414 . S
C1509 C1512 1.499 . S
C1510 H1490 0.950 . S
C1510 C1509 1.414 . S
C1510 C1511 1.374 . S
C1511 H1491 0.950 . S
C1511 C1507 1.385 . S
C1511 C1510 1.374 . S
C1512 C1509 1.499 . S
C1512 C1513 1.373 . S
C1512 C1514 1.389 . S
C1513 H1492 0.950 . S
C1513 C1512 1.373 . S
C1513 C1529 1.377 . S
C1514 C1512 1.389 . S
C1514 C1515 1.524 . S
C1514 C1528 1.377 . S
C1515 C1514 1.524 . S
C1515 C1516 1.397 . S
C1515 C1520 1.363 . S
C1516 H1493 0.950 . S
C1516 C1515 1.397 . S
C1516 C1517 1.334 . S
C1517 H1494 0.950 . S
C1517 C1516 1.334 . S
C1517 C1518 1.287 . S
C1518 C1517 1.287 . S
C1518 C1519 1.524 . S
C1518 H1537 0.913 . S
C1519 H1495 0.950 . S
C1519 C1518 1.524 . S
C1519 C1520 1.415 . S
C1520 H1496 0.950 . S
C1520 C1515 1.363 . S
C1520 C1519 1.415 . S
C1521 H1497 0.951 . S
C1521 C1522 1.366 . S
C1521 C1523 1.388 . S
C1522 C1521 1.366 . S
C1522 C1526 1.385 . S
C1523 H1498 0.951 . S
C1523 C1521 1.388 . S
C1523 C1524 1.366 . S
C1524 C1523 1.366 . S
C1524 C1525 1.414 . S
C1524 C1527 1.499 . S
C1525 H1499 0.950 . S
C1525 C1524 1.414 . S
C1525 C1526 1.374 . S
C1526 H1500 0.950 . S
C1526 C1522 1.385 . S
C1526 C1525 1.374 . S
C1527 C1524 1.499 . S
C1527 C1528 1.373 . S
C1527 C1529 1.389 . S
C1528 H1501 0.950 . S
C1528 C1514 1.377 . S
C1528 C1527 1.373 . S
C1529 C1513 1.377 . S
C1529 C1527 1.389 . S
C1529 C1530 1.524 . S
C1530 C1529 1.524 . S
C1530 C1531 1.397 . S
C1530 C1535 1.363 . S
C1531 H1502 0.950 . S
C1531 C1530 1.397 . S
C1531 C1532 1.334 . S
C1532 H1503 0.950 . S
C1532 C1531 1.334 . S
C1532 C1533 1.287 . S
C1533 C1532 1.287 . S
C1533 C1534 1.524 . S
C1533 H1536 0.999 . S
C1534 H1504 0.950 . S
C1534 C1533 1.524 . S
C1534 C1535 1.415 . S
C1535 H1505 0.950 . S
C1535 C1530 1.363 . S
C1535 C1534 1.415 . S
H1536 C1533 0.999 . S
H1537 C1518 0.913 . S
H1538 C1556 0.951 . S
H1539 C1558 0.951 . S
H1540 C1560 0.950 . S
H1541 C1561 0.950 . S
H1542 C1563 0.950 . S
H1543 C1566 0.950 . S
H1544 C1567 0.950 . S
H1545 C1569 0.950 . S
H1546 C1570 0.950 . S
H1547 C1571 0.951 . S
H1548 C1573 0.951 . S
H1549 C1575 0.950 . S
H1550 C1576 0.950 . S
H1551 C1578 0.950 . S
H1552 C1581 0.950 . S
H1553 C1582 0.950 . S
H1554 C1584 0.950 . S
H1555 C1585 0.950 . S
C1556 H1538 0.951 . S
C1556 C1557 1.366 . S
C1556 C1558 1.388 . S
C1557 C1556 1.366 . S
C1557 C1561 1.385 . S
C1558 H1539 0.951 . S
C1558 C1556 1.388 . S
C1558 C1559 1.366 . S
C1559 C1558 1.366 . S
C1559 C1560 1.414 . S
C1559 C1562 1.498 1_565 S
C1560 H1540 0.950 . S
C1560 C1559 1.414 . S
C1560 C1561 1.374 . S
C1561 H1541 0.950 . S
C1561 C1557 1.385 . S
C1561 C1560 1.374 . S
C1562 C1559 1.498 1_545 S
C1562 C1563 1.372 1_545 S
C1562 C1564 1.391 . S
C1563 H1542 0.950 . S
C1563 C1562 1.372 1_565 S
C1563 C1579 1.377 . S
C1564 C1562 1.391 . S
C1564 C1565 1.524 . S
C1564 C1578 1.377 . S
C1565 C1564 1.524 . S
C1565 C1566 1.397 . S
C1565 C1570 1.363 . S
C1566 H1543 0.950 . S
C1566 C1565 1.397 . S
C1566 C1567 1.334 . S
C1567 H1544 0.950 . S
C1567 C1566 1.334 . S
C1567 C1568 1.287 . S
C1568 C1567 1.287 . S
C1568 C1569 1.524 . S
C1568 H1587 0.913 . S
C1569 H1545 0.950 . S
C1569 C1568 1.524 . S
C1569 C1570 1.415 . S
C1570 H1546 0.950 . S
C1570 C1565 1.363 . S
C1570 C1569 1.415 . S
C1571 H1547 0.951 . S
C1571 C1572 1.366 . S
C1571 C1573 1.388 . S
C1572 C1571 1.366 . S
C1572 C1576 1.385 . S
C1573 H1548 0.951 . S
C1573 C1571 1.388 . S
C1573 C1574 1.366 . S
C1574 C1573 1.366 . S
C1574 C1575 1.414 . S
C1574 C1577 1.499 . S
C1575 H1549 0.950 . S
C1575 C1574 1.414 . S
C1575 C1576 1.374 . S
C1576 H1550 0.950 . S
C1576 C1572 1.385 . S
C1576 C1575 1.374 . S
C1577 C1574 1.499 . S
C1577 C1578 1.373 . S
C1577 C1579 1.389 1_545 S
C1578 H1551 0.950 . S
C1578 C1564 1.377 . S
C1578 C1577 1.373 . S
C1579 C1563 1.377 . S
C1579 C1577 1.389 1_565 S
C1579 C1580 1.524 . S
C1580 C1579 1.524 . S
C1580 C1581 1.397 . S
C1580 C1585 1.363 . S
C1581 H1552 0.950 . S
C1581 C1580 1.397 . S
C1581 C1582 1.334 . S
C1582 H1553 0.950 . S
C1582 C1581 1.334 . S
C1582 C1583 1.287 . S
C1583 C1582 1.287 . S
C1583 C1584 1.524 . S
C1583 H1586 0.999 . S
C1584 H1554 0.950 . S
C1584 C1583 1.524 . S
C1584 C1585 1.415 . S
C1585 H1555 0.950 . S
C1585 C1580 1.363 . S
C1585 C1584 1.415 . S
H1586 C1583 0.999 . S
H1587 C1568 0.913 . S
H1588 C1606 0.951 . S
H1589 C1608 0.951 . S
H1590 C1610 0.970 . S
H1591 C1611 0.950 . S
H1592 C1613 0.950 . S
H1593 C1616 0.950 . S
H1594 C1617 0.950 . S
H1595 C1619 0.950 . S
H1596 C1620 0.950 . S
H1597 C1621 0.951 . S
H1598 C1623 0.951 . S
H1599 C1625 0.950 . S
H1600 C1626 0.950 . S
H1601 C1628 0.950 . S
H1602 C1631 0.950 . S
H1603 C1632 0.950 . S
H1604 C1634 0.950 . S
H1605 C1635 0.950 . S
C1606 H1588 0.951 . S
C1606 C1607 1.366 . S
C1606 C1608 1.388 . S
C1607 C1606 1.366 . S
C1607 C1611 1.385 . S
C1608 H1589 0.951 . S
C1608 C1606 1.388 . S
C1608 C1609 1.366 . S
C1609 C1608 1.366 . S
C1609 C1610 1.402 1_655 S
C1609 C1612 1.499 . S
C1610 H1590 0.970 . S
C1610 C1609 1.402 1_455 S
C1610 C1611 1.366 1_455 S
C1611 H1591 0.950 . S
C1611 C1607 1.385 . S
C1611 C1610 1.366 1_655 S
C1612 C1609 1.499 . S
C1612 C1613 1.373 1_655 S
C1612 C1614 1.389 . S
C1613 H1592 0.950 . S
C1613 C1612 1.373 1_455 S
C1613 C1629 1.377 . S
C1614 C1612 1.389 . S
C1614 C1615 1.524 . S
C1614 C1628 1.377 . S
C1615 C1614 1.524 . S
C1615 C1616 1.397 . S
C1615 C1620 1.363 . S
C1616 H1593 0.950 . S
C1616 C1615 1.397 . S
C1616 C1617 1.334 . S
C1617 H1594 0.950 . S
C1617 C1616 1.334 . S
C1617 C1618 1.287 . S
C1618 C1617 1.287 . S
C1618 C1619 1.524 . S
C1618 H1637 0.913 . S
C1619 H1595 0.950 . S
C1619 C1618 1.524 . S
C1619 C1620 1.415 . S
C1620 H1596 0.950 . S
C1620 C1615 1.363 . S
C1620 C1619 1.415 . S
C1621 H1597 0.951 . S
C1621 C1622 1.366 . S
C1621 C1623 1.388 . S
C1622 C1621 1.366 . S
C1622 C1626 1.385 . S
C1623 H1598 0.951 . S
C1623 C1621 1.388 . S
C1623 C1624 1.366 . S
C1624 C1623 1.366 . S
C1624 C1625 1.414 . S
C1624 C1627 1.499 . S
C1625 H1599 0.950 . S
C1625 C1624 1.414 . S
C1625 C1626 1.374 . S
C1626 H1600 0.950 . S
C1626 C1622 1.385 . S
C1626 C1625 1.374 . S
C1627 C1624 1.499 . S
C1627 C1628 1.373 1_455 S
C1627 C1629 1.389 . S
C1628 H1601 0.950 . S
C1628 C1614 1.377 . S
C1628 C1627 1.373 1_655 S
C1629 C1613 1.377 . S
C1629 C1627 1.389 . S
C1629 C1630 1.524 . S
C1630 C1629 1.524 . S
C1630 C1631 1.397 . S
C1630 C1635 1.363 . S
C1631 H1602 0.950 . S
C1631 C1630 1.397 . S
C1631 C1632 1.334 . S
C1632 H1603 0.950 . S
C1632 C1631 1.334 . S
C1632 C1633 1.287 . S
C1633 C1632 1.287 . S
C1633 C1634 1.524 . S
C1633 H1636 0.999 . S
C1634 H1604 0.950 . S
C1634 C1633 1.524 . S
C1634 C1635 1.415 . S
C1635 H1605 0.950 . S
C1635 C1630 1.363 . S
C1635 C1634 1.415 . S
H1636 C1633 0.999 . S
H1637 C1618 0.913 . S
C307 C36 0.960 . S
C322 C2 0.954 . S
C357 C93 0.960 . S
C372 C34 0.953 . S
C407 C70 0.954 . S
C422 C4 0.961 . S
C457 C66 0.954 . S
C472 C61 0.961 . S
C507 C68 0.961 . S
C522 C6 0.954 . S
C557 C29 0.960 . S
C572 C38 0.954 . S
C607 C98 0.954 . S
C622 C157 0.960 . S
C657 C164 0.960 . S
C672 C134 0.953 . S
C707 C162 0.953 . S
C722 C100 0.960 . S
C757 C132 0.960 . S
C772 C166 0.953 . S
C807 C189 0.961 . S
C822 C102 0.954 . S
C857 C130 0.954 . S
C872 C125 0.961 . S
C907 C253 0.960 . S
C922 C198 0.953 . S
C957 C230 0.953 . S
C972 C260 0.960 . S
C1007 C258 0.954 . S
C1022 C221 0.961 . S
C1057 C262 0.953 . S
C1072 C228 0.960 . S
C1107 C285 0.961 . S
C1122 C194 0.954 . S
C1157 C196 0.961 . S
C1172 C226 0.954 . S
C1207 N173 1.913 . S
C1222 N18 1.914 . S
C1257 N109 1.913 . S
C1272 N50 1.914 . S
C1307 N77 1.914 . S
C1322 N146 1.913 . S
C1357 N82 1.913 . S
C1372 N205 1.914 . S
C1407 N13 1.913 . S
C1422 N237 1.914 . S
C1457 N274 1.914 . S
C1472 N45 1.913 . S
C1507 N114 1.914 . S
C1522 N269 1.913 . S
C1557 N141 1.913 . S
C1572 N210 1.914 . S
C1607 N242 1.913 . S
C1622 N178 1.914 . S
