# Generated by pormake.
# Topology sxa, (6)-cn, num edge types: 1
# Building blocks:
#     Node 0, Type 0, BuildingBlock: VOLQOD_clean_sbu_1, # of connection points: 6
#     Node 1, Type 0, BuildingBlock: VOLQOD_clean_sbu_1, # of connection points: 6
#     Node 2, Type 0, BuildingBlock: VOLQOD_clean_sbu_1, # of connection points: 6
#     Node 3, Type 0, BuildingBlock: VOLQOD_clean_sbu_1, # of connection points: 6
#     Edge 4, Type (0, 0), BuildingBlock: FUNLAD_clean_linker_0, # of connection points: 2
#     Edge 5, Type (0, 0), BuildingBlock: FUNLAD_clean_linker_0, # of connection points: 2
#     Edge 6, Type (0, 0), BuildingBlock: FUNLAD_clean_linker_0, # of connection points: 2
#     Edge 7, Type (0, 0), BuildingBlock: FUNLAD_clean_linker_0, # of connection points: 2
#     Edge 8, Type (0, 0), BuildingBlock: FUNLAD_clean_linker_0, # of connection points: 2
#     Edge 9, Type (0, 0), BuildingBlock: FUNLAD_clean_linker_0, # of connection points: 2
#     Edge 10, Type (0, 0), BuildingBlock: FUNLAD_clean_linker_0, # of connection points: 2
#     Edge 11, Type (0, 0), BuildingBlock: FUNLAD_clean_linker_0, # of connection points: 2
#     Edge 12, Type (0, 0), BuildingBlock: FUNLAD_clean_linker_0, # of connection points: 2
#     Edge 13, Type (0, 0), BuildingBlock: FUNLAD_clean_linker_0, # of connection points: 2
#     Edge 14, Type (0, 0), BuildingBlock: FUNLAD_clean_linker_0, # of connection points: 2
#     Edge 15, Type (0, 0), BuildingBlock: FUNLAD_clean_linker_0, # of connection points: 2
# Relax obj value: 0.229
# Max RMSD: 0.203
# Mean RMSD: 0.203
data_MOF--net-sxa--node1-VOLQOD_clean_sbu_1--edge1-FUNLAD_clean_linker_0
_symmetry_space_group_name_H-M    P1
_symmetry_Int_Tables_number       1
_symmetry_cell_setting            triclinic
loop_
_symmetry_equiv_pos_as_xyz
'x, y, z'
_cell_length_a     28.620513
_cell_length_b     35.09033
_cell_length_c     20.830063
_cell_angle_alpha  89.010432
_cell_angle_beta   93.55579
_cell_angle_gamma 88.543238
loop_
_atom_site_label
_atom_site_type_symbol
_atom_site_fract_x
_atom_site_fract_y
_atom_site_fract_z
_atom_type_partial_charge
O0 O 0.91444 0.74502 0.32243 0.0
Zn1 Zn 0.97868 0.74168 0.28464 0.0
O2 O 0.98314 0.78453 0.22592 0.0
Zn3 Zn 0.00917 0.77011 0.14717 0.0
Zn4 Zn 0.92278 0.80594 0.20069 0.0
Zn5 Zn 0.022 0.82277 0.26406 0.0
O6 O 0.07655 0.78375 0.14402 0.0
O7 O 0.08662 0.81706 0.23294 0.0
O8 O 0.98807 0.69059 0.23697 0.0
O9 O 0.00869 0.71421 0.14363 0.0
O10 O 0.96851 0.78666 0.06908 0.0
O11 O 0.9016 0.78277 0.11667 0.0
O12 O 0.92933 0.8624 0.18323 0.0
O13 O 0.02862 0.74891 0.35763 0.0
O14 O -0.00273 0.87555 0.23495 0.0
O15 O 0.03342 0.81226 0.35918 0.0
C16 C 0.87869 0.76751 0.31257 0.0
C17 C 0.10302 0.80117 0.18448 0.0
C18 C 0.92458 0.78123 0.0662 0.0
C19 C 2e-05 0.68589 0.1793 0.0
C20 C 0.96092 0.88601 0.19961 0.0
C21 C 0.0434 0.77932 0.38437 0.0
O22 O 0.87731 0.79348 0.2686 0.0
O23 O 0.41021 0.24559 0.32339 0.0
Zn24 Zn 0.47444 0.24179 0.28622 0.0
O25 O 0.47965 0.28397 0.22644 0.0
Zn26 Zn 0.50694 0.26824 0.14885 0.0
Zn27 Zn 0.41936 0.30546 0.20065 0.0
Zn28 Zn 0.51766 0.32272 0.26492 0.0
O29 O 0.57315 0.28495 0.14403 0.0
O30 O 0.58202 0.31827 0.23316 0.0
O31 O 0.48422 0.1903 0.24076 0.0
O32 O 0.51092 0.212 0.14961 0.0
O33 O 0.46495 0.28058 0.06973 0.0
O34 O 0.398 0.28093 0.11811 0.0
O35 O 0.42595 0.36178 0.1813 0.0
O36 O 0.5241 0.24906 0.35928 0.0
O37 O 0.49247 0.37536 0.23613 0.0
O38 O 0.52982 0.31232 0.36003 0.0
C39 C 0.37473 0.2683 0.3132 0.0
C40 C 0.59888 0.30314 0.18435 0.0
C41 C 0.42075 0.27653 0.06792 0.0
C42 C 0.5005 0.18441 0.18581 0.0
C43 C 0.45693 0.3856 0.19908 0.0
C44 C 0.53936 0.27942 0.38561 0.0
O45 O 0.37371 0.29407 0.26894 0.0
O46 O 0.0403 0.25389 0.71443 0.0
Zn47 Zn -0.00711 0.24852 0.78484 0.0
O48 O 0.00833 0.28641 0.84945 0.0
Zn49 Zn 0.02876 0.2616 0.92936 0.0
Zn50 Zn 0.05878 0.31714 0.82532 0.0
Zn51 Zn 0.95695 0.32066 0.86221 0.0
O52 O 0.00365 0.28828 1.00555 0.0
O53 O 0.94133 0.31684 0.95394 0.0
O54 O 0.98974 0.19454 0.82812 0.0
O55 O 0.00156 0.21071 0.93044 0.0
O56 O 0.09856 0.25163 0.9331 0.0
O57 O 0.11959 0.29321 0.85958 0.0
O58 O 0.05139 0.37108 0.85879 0.0
O59 O 0.92707 0.26107 0.74456 0.0
O60 O 0.97379 0.37559 0.85429 0.0
O61 O 0.90163 0.30938 0.80207 0.0
C62 C 0.06132 0.28367 0.69587 0.0
C63 C 0.96484 0.30695 1.00576 0.0
C64 C 0.12982 0.26647 0.90039 0.0
C65 C 0.99003 0.18633 0.88838 0.0
C66 C 0.01358 0.39063 0.86347 0.0
C67 C 0.89504 0.28533 0.7574 0.0
O68 O 0.0631 0.31373 0.72969 0.0
O69 O 0.54309 0.75204 0.71274 0.0
Zn70 Zn 0.49586 0.74736 0.78354 0.0
O71 O 0.5122 0.78503 0.84814 0.0
Zn72 Zn 0.53569 0.76004 0.92663 0.0
Zn73 Zn 0.56048 0.81705 0.82007 0.0
Zn74 Zn 0.45998 0.81711 0.86619 0.0
O75 O 0.51102 0.78497 1.0049 0.0
O76 O 0.44398 0.80758 0.95656 0.0
O77 O 0.49184 0.69344 0.8266 0.0
O78 O 0.51001 0.70858 0.92807 0.0
O79 O 0.60575 0.75228 0.92678 0.0
O80 O 0.62281 0.79498 0.85251 0.0
O81 O 0.55255 0.87118 0.85249 0.0
O82 O 0.43032 0.76099 0.74385 0.0
O83 O 0.47679 0.87215 0.86934 0.0
O84 O 0.40505 0.8085 0.80333 0.0
C85 C 0.56275 0.78202 0.69229 0.0
C86 C 0.46983 0.79943 1.00719 0.0
C87 C 0.63532 0.76848 0.89285 0.0
C88 C 0.49547 0.68474 0.88675 0.0
C89 C 0.51575 0.88882 0.86903 0.0
C90 C 0.39853 0.78532 0.75728 0.0
O91 O 0.56308 0.81281 0.72426 0.0
C92 C 0.04982 0.43891 0.93727 0.0
C93 C 0.01473 0.42938 0.89042 0.0
C94 C 0.04587 0.47265 0.97191 0.0
C95 C 0.00706 0.49771 0.95955 0.0
C96 C 0.97338 0.48904 0.91047 0.0
C97 C 0.97679 0.45505 0.87691 0.0
C98 C 0.0014 0.5339 0.99463 0.0
C99 C 0.01671 0.53897 0.0565 0.0
C100 C 0.01143 0.57636 0.08867 0.0
C101 C 0.00738 0.57806 0.15566 0.0
C102 C 0.00288 0.61339 0.18606 0.0
C103 C 0.00319 0.6476 0.14994 0.0
H104 H 0.0166 0.61081 1.0019 0.0
C105 C 0.00768 0.64554 0.08309 0.0
C106 C 0.01194 0.61064 0.05307 0.0
H107 H 0.00816 0.67111 0.05324 0.0
H108 H 0.0792 0.41947 0.94927 0.0
H109 H 0.07313 0.47902 1.0082 0.0
H110 H 0.94351 0.50812 0.89928 0.0
H111 H 0.94911 0.44842 0.84131 0.0
H112 H 0.98153 0.55679 0.96887 0.0
H113 H 0.03225 0.51504 0.08474 0.0
H114 H 0.00741 0.55204 0.1844 0.0
H115 H -0.00024 0.61392 0.23758 0.0
C116 C 0.42671 0.43237 0.11236 0.0
C117 C 0.4553 0.42436 0.16877 0.0
C118 C 0.43007 0.46693 0.07836 0.0
C119 C 0.46191 0.49443 0.1003 0.0
C120 C 0.48893 0.48707 0.15806 0.0
C121 C 0.48602 0.4524 0.19158 0.0
C122 C 0.46705 0.53159 0.06597 0.0
C123 C 0.4571 0.53788 1.00222 0.0
C124 C 0.4637 0.57575 0.97054 0.0
C125 C 0.47402 0.5782 0.9053 0.0
C126 C 0.48293 0.61362 0.87626 0.0
C127 C 0.48159 0.64712 0.91219 0.0
H128 H 0.44961 0.60942 0.05407 0.0
C129 C 0.46882 0.64464 0.9763 0.0
C130 C 0.45972 0.60965 1.00486 0.0
H131 H 0.46615 0.66995 1.00507 0.0
H132 H 0.40272 0.41142 0.09319 0.0
H133 H 0.40763 0.47198 0.03514 0.0
H134 H 0.5133 0.50793 0.17667 0.0
H135 H 0.50856 0.4473 0.23474 0.0
H136 H 0.48231 0.55427 0.0945 0.0
H137 H 0.44627 0.51444 0.97189 0.0
H138 H 0.4765 0.55259 0.87729 0.0
H139 H 0.49235 0.61461 0.82671 0.0
C140 C 0.47941 0.9443 0.92383 0.0
C141 C 0.51912 0.92705 0.89853 0.0
C142 C 0.48335 0.97704 0.96089 0.0
C143 C 0.52718 0.99345 0.97374 0.0
C144 C 0.56643 0.9774 0.9458 0.0
C145 C 0.56256 0.94446 0.90894 0.0
C146 C 0.53295 0.02803 1.01381 0.0
C147 C 0.50344 0.0385 0.05909 0.0
C148 C 0.50717 0.07472 0.09561 0.0
C149 C 0.48237 0.07931 0.1515 0.0
C150 C 0.48171 0.11428 0.18342 0.0
C151 C 0.50557 0.14548 0.1596 0.0
H152 H 0.55079 0.10428 1.02982 0.0
C153 C 0.53157 0.14038 0.10502 0.0
C154 C 0.53217 0.10574 0.07331 0.0
H155 H 0.5505 0.16371 0.08513 0.0
H156 H 0.44525 0.93191 0.91663 0.0
H157 H 0.4519 0.98934 0.97921 0.0
H158 H 0.60052 0.98983 0.95386 0.0
H159 H 0.59389 0.93203 0.89036 0.0
H160 H 0.5637 0.04462 1.00659 0.0
H161 H 0.47526 1.01984 0.07031 0.0
H162 H 0.46254 0.05601 0.16971 0.0
H163 H 0.46112 0.11727 0.22503 0.0
C164 C 0.92933 0.9326 0.1136 0.0
C165 C 0.95874 0.92477 0.16932 0.0
C166 C 0.93183 0.9672 0.07951 0.0
C167 C 0.96355 0.99494 0.10072 0.0
C168 C 0.99148 0.98775 0.15777 0.0
C169 C 0.98949 0.95298 0.19132 0.0
C170 C 0.96735 0.03223 0.06636 0.0
C171 C 0.9575 0.0381 1.00252 0.0
C172 C 0.96229 0.07617 0.97078 0.0
C173 C 0.97426 0.07901 0.90627 0.0
C174 C 0.9817 0.1148 0.87751 0.0
C175 C 0.97703 0.14826 0.91294 0.0
H176 H 0.94357 0.10915 0.05304 0.0
C177 C 0.96241 0.14527 0.9761 0.0
C178 C 0.95494 0.10989 1.00445 0.0
H179 H 0.95727 0.17047 1.00443 0.0
H180 H 0.90532 0.91149 0.09502 0.0
H181 H 0.90878 0.97214 0.03685 0.0
H182 H 0.01578 1.00883 0.17576 0.0
H183 H 0.01266 0.94797 0.23391 0.0
H184 H 0.98135 0.05544 0.09486 0.0
H185 H 0.94809 1.01424 0.97226 0.0
H186 H 0.97934 0.05348 0.87878 0.0
H187 H -0.00732 0.11614 0.82872 0.0
C188 C 0.34315 0.76065 0.66969 0.0
C189 C 0.35279 0.78665 0.71915 0.0
C190 C 0.29996 0.76214 0.634 0.0
C191 C 0.26526 0.78964 0.64716 0.0
C192 C 0.27509 0.81567 0.69631 0.0
C193 C 0.31811 0.81412 0.73203 0.0
C194 C 0.21965 0.79365 0.60862 0.0
C195 C 0.2001 0.76538 0.57392 0.0
C196 C 0.15615 0.77018 0.53163 0.0
C197 C 0.13333 0.73748 0.50944 0.0
C198 C 0.09493 0.74044 0.46442 0.0
C199 C 0.07849 0.77628 0.44011 0.0
H200 H 0.1553 0.83218 0.52345 0.0
C201 C 0.10007 0.80911 0.4643 0.0
C202 C 0.1385 0.80615 0.50914 0.0
H203 H 0.08867 0.83722 0.44646 0.0
H204 H 0.36908 0.73924 0.65816 0.0
H205 H 0.29452 0.74226 0.59531 0.0
H206 H 0.24933 0.8374 0.70719 0.0
H207 H 0.32419 0.8347 0.76959 0.0
H208 H 0.20118 0.82094 0.61059 0.0
H209 H 0.21666 0.73718 0.57662 0.0
H210 H 0.14605 0.70937 0.52566 0.0
H211 H 0.07936 0.71449 0.44685 0.0
C212 C 0.10391 0.24814 0.61179 0.0
C213 C 0.08848 0.2828 0.63728 0.0
C214 C 0.13509 0.24787 0.5623 0.0
C215 C 0.15127 0.28232 0.53708 0.0
C216 C 0.13376 0.31682 0.56031 0.0
C217 C 0.10312 0.3171 0.60999 0.0
C218 C 0.18659 0.28389 0.4873 0.0
C219 C 0.21883 0.25593 0.47885 0.0
C220 C 0.25758 0.25933 0.43422 0.0
C221 C 0.29737 0.23517 0.44436 0.0
C222 C 0.33515 0.23792 0.40507 0.0
C223 C 0.3341 0.26486 0.35414 0.0
H224 H 0.22562 0.30413 0.37119 0.0
C225 C 0.29387 0.28854 0.34303 0.0
C226 C 0.25602 0.28574 0.38231 0.0
H227 H 0.2915 0.30933 0.30385 0.0
H228 H 0.09328 0.22121 0.63161 0.0
H229 H 0.14657 0.22066 0.54436 0.0
H230 H 0.14502 0.34381 0.5414 0.0
H231 H 0.09172 0.34435 0.62802 0.0
H232 H 0.18848 0.31066 0.46086 0.0
H233 H 0.21922 0.23048 0.50928 0.0
H234 H 0.29959 0.21433 0.48352 0.0
H235 H 0.36535 0.21905 0.41504 0.0
C236 C 0.83944 0.2597 0.67081 0.0
C237 C 0.84907 0.28596 0.71986 0.0
C238 C 0.79618 0.26097 0.63523 0.0
C239 C 0.76144 0.2885 0.64816 0.0
C240 C 0.7712 0.31465 0.69711 0.0
C241 C 0.81425 0.31333 0.73266 0.0
C242 C 0.71586 0.29256 0.60955 0.0
C243 C 0.69639 0.26446 0.57439 0.0
C244 C 0.65241 0.26955 0.53226 0.0
C245 C 0.62901 0.23703 0.5105 0.0
C246 C 0.59049 0.24027 0.46572 0.0
C247 C 0.57453 0.27621 0.44121 0.0
H248 H 0.6526 0.3315 0.52352 0.0
C249 C 0.59673 0.30887 0.46495 0.0
C250 C 0.63528 0.30563 0.50957 0.0
H251 H 0.58574 0.33703 0.44691 0.0
H252 H 0.86549 0.23835 0.65938 0.0
H253 H 0.79074 0.24095 0.59675 0.0
H254 H 0.7454 0.33637 0.70786 0.0
H255 H 0.82028 0.3341 0.76994 0.0
H256 H 0.69731 0.31979 0.61183 0.0
H257 H 0.71293 0.23625 0.57667 0.0
H258 H 0.64134 0.20886 0.52687 0.0
H259 H 0.57444 0.21445 0.44848 0.0
C260 C 0.79729 0.7866 0.34174 0.0
C261 C 0.8381 0.76367 0.35356 0.0
C262 C 0.75948 0.78355 0.38102 0.0
C263 C 0.76162 0.75767 0.43371 0.0
C264 C 0.80201 0.73424 0.44458 0.0
C265 C 0.83977 0.73722 0.40523 0.0
C266 C 0.72287 0.7541 0.47839 0.0
C267 C 0.68958 0.78146 0.48541 0.0
C268 C 0.65397 0.77987 0.53485 0.0
C269 C 0.6346 0.81436 0.55555 0.0
C270 C 0.60352 0.81481 0.6047 0.0
C271 C 0.59027 0.78067 0.63403 0.0
H272 H 0.65213 0.71822 0.54618 0.0
C273 C 0.60759 0.74591 0.61108 0.0
C274 C 0.63921 0.74548 0.5621 0.0
H275 H 0.5981 0.71909 0.63254 0.0
H276 H 0.79443 0.80699 0.30197 0.0
H277 H 0.72865 0.80134 0.36925 0.0
H278 H 0.80472 0.71382 0.48434 0.0
H279 H 0.87044 0.71894 0.41578 0.0
H280 H 0.72405 0.72908 0.50991 0.0
H281 H 0.69059 0.80786 0.45773 0.0
H282 H 0.64473 0.84128 0.53504 0.0
H283 H 0.59069 0.84212 0.62076 0.0
C284 C 0.44085 0.77326 0.10805 0.0
C285 C 0.4491 0.80495 0.06889 0.0
C286 C 0.40656 0.77572 0.15287 0.0
C287 C 0.38074 0.81001 0.15898 0.0
C288 C 0.39382 0.84285 0.12612 0.0
C289 C 0.42732 0.8402 0.0805 0.0
C290 C 0.33472 0.81065 0.18749 0.0
C291 C 0.3034 0.78399 0.17097 0.0
C292 C 0.25229 0.78938 0.17614 0.0
C293 C 0.22212 0.77106 0.13162 0.0
C294 C 0.17372 0.77608 0.13276 0.0
C295 C 0.15431 0.79921 0.17915 0.0
H296 H 0.25525 0.82678 0.25824 0.0
C297 C 0.18451 0.8176 0.22392 0.0
C298 C 0.23307 0.81275 0.22245 0.0
H299 H 0.17068 0.83524 0.26083 0.0
H300 H 0.45717 0.74578 0.09937 0.0
H301 H 0.3975 0.75014 0.17864 0.0
H302 H 0.37455 0.86958 0.13039 0.0
H303 H 0.43332 0.86493 0.05049 0.0
H304 H 0.3233 0.83694 0.20914 0.0
H305 H 0.31466 0.75974 0.14341 0.0
H306 H 0.23605 0.75297 0.09532 0.0
H307 H 0.15157 0.76118 0.09798 0.0
C308 C 0.17994 0.20727 0.90682 0.0
C309 C 0.17607 0.2471 0.89823 0.0
C310 C 0.21961 0.18724 0.88844 0.0
C311 C 0.25664 0.20677 0.86323 0.0
C312 C 0.25403 0.24672 0.85787 0.0
C313 C 0.21395 0.26671 0.87491 0.0
C314 C 0.29665 0.18499 0.83913 0.0
C315 C 0.34191 0.19182 0.85511 0.0
C316 C 0.35868 0.21729 0.9073 0.0
C317 C 0.33666 0.21894 0.9657 0.0
C318 C 0.35517 0.24058 1.01612 0.0
C319 C 0.39717 0.25985 1.01035 0.0
H320 H 0.41805 0.23588 0.85669 0.0
C321 C 0.41913 0.25842 0.95189 0.0
C322 C 0.39999 0.2373 0.90083 0.0
H323 H 0.4518 0.27266 0.94624 0.0
H324 H 0.15101 0.19128 0.92352 0.0
H325 H 0.22104 0.15641 0.89277 0.0
H326 H 0.2821 0.2623 0.83789 0.0
H327 H 0.21169 0.29732 0.86706 0.0
H328 H 0.28879 0.16279 0.8047 0.0
H329 H 0.36823 0.17659 0.82933 0.0
H330 H 0.30632 0.20219 0.97392 0.0
H331 H 0.33794 0.24028 0.06099 0.0
C332 C 0.67916 0.32341 0.22209 0.0
C333 C 0.65009 0.30302 0.17865 0.0
C334 C 0.72787 0.32025 0.22077 0.0
C335 C 0.74835 0.29658 0.17597 0.0
C336 C 0.71932 0.27631 0.13267 0.0
C337 C 0.67074 0.27968 0.13361 0.0
C338 C 0.79963 0.29277 0.1713 0.0
C339 C 0.8293 0.32103 0.18528 0.0
C340 C 0.87524 0.32102 0.15671 0.0
C341 C 0.88597 0.35278 0.11928 0.0
C342 C 0.91934 0.34932 0.07363 0.0
C343 C 0.94325 0.3144 0.06642 0.0
H344 H 0.89591 0.26285 0.18431 0.0
C345 C 0.93739 0.28433 0.11014 0.0
C346 C 0.90322 0.28753 0.15498 0.0
H347 H 0.95551 0.25714 0.10522 0.0
H348 H 0.66436 0.34132 0.25791 0.0
H349 H 0.74922 0.33578 0.25556 0.0
H350 H 0.73427 0.25796 0.09753 0.0
H351 H 0.64947 0.26327 0.09993 0.0
H352 H 0.8123 0.26806 0.14601 0.0
H353 H 0.81632 0.34762 0.20431 0.0
H354 H 0.86502 0.37891 0.12019 0.0
H355 H 0.92369 0.37292 0.04044 0.0
C356 C 0.92441 0.76799 0.94834 0.0
C357 C 0.90206 0.76623 1.0065 0.0
C358 C 0.90653 0.74853 0.89459 0.0
C359 C 0.86607 0.72704 0.89798 0.0
C360 C 0.84359 0.72554 0.95607 0.0
C361 C 0.86087 0.7455 1.00929 0.0
C362 C 0.85089 0.70327 0.84266 0.0
C363 C 0.80612 0.69567 0.82497 0.0
C364 C 0.76502 0.71507 0.85074 0.0
C365 C 0.76022 0.755 0.84866 0.0
C366 C 0.7191 0.77285 0.86714 0.0
C367 C 0.68249 0.75107 0.8889 0.0
H368 H 0.73231 0.66251 0.87599 0.0
C369 C 0.68853 0.71122 0.89422 0.0
C370 C 0.72918 0.69335 0.87422 0.0
H371 H 0.66056 0.69364 0.90959 0.0
H372 H 0.95648 0.78344 0.94491 0.0
H373 H 0.92494 0.74954 0.85071 0.0
H374 H 0.81393 0.70757 0.96177 0.0
H375 H 0.84341 0.74278 0.05375 0.0
H376 H 0.87807 0.69003 0.81571 0.0
H377 H 0.79953 0.67477 0.78785 0.0
H378 H 0.78739 0.77225 0.83009 0.0
H379 H 0.7151 0.80355 0.86178 0.0
loop_
_geom_bond_atom_site_label_1
_geom_bond_atom_site_label_2
_geom_bond_distance
_geom_bond_site_symmetry_2
_ccdc_geom_bond_type
O0 Zn1 1.953 1_655 S
O0 C16 1.225 . S
Zn1 O0 1.953 1_455 S
Zn1 O2 1.949 . S
Zn1 O8 1.919 . S
Zn1 O13 1.924 . S
O2 Zn1 1.949 . S
O2 Zn3 1.923 . S
O2 Zn4 1.950 1_455 S
O2 Zn5 1.945 . S
Zn3 O2 1.923 . S
Zn3 O6 1.933 . S
Zn3 O9 1.941 1_455 S
Zn3 O10 1.965 1_455 S
Zn4 O2 1.950 1_655 S
Zn4 O11 1.938 . S
Zn4 O12 1.906 . S
Zn4 O22 1.953 . S
Zn5 O2 1.945 . S
Zn5 O7 1.932 . S
Zn5 O14 1.977 . S
Zn5 O15 1.910 . S
O6 Zn3 1.933 . S
O6 C17 1.226 . S
O7 Zn5 1.932 . S
O7 C17 1.307 . S
O8 Zn1 1.919 . S
O8 C19 1.253 . S
O9 Zn3 1.941 1_655 S
O9 C19 1.283 1_655 S
O10 Zn3 1.965 1_655 S
O10 C18 1.303 . S
O11 Zn4 1.938 . S
O11 C18 1.247 . S
O12 Zn4 1.906 . S
O12 C20 1.304 1_655 S
O13 Zn1 1.924 . S
O13 C21 1.311 . S
O14 Zn5 1.977 . S
O14 C20 1.272 . S
O15 Zn5 1.910 . S
O15 C21 1.231 . S
C16 O0 1.225 . S
C16 O22 1.298 . S
C17 O6 1.226 . S
C17 O7 1.307 . S
C18 O10 1.303 . S
C18 O11 1.247 . S
C19 O8 1.253 . S
C19 O9 1.283 1_455 S
C20 O12 1.304 1_455 S
C20 O14 1.272 . S
C21 O13 1.311 . S
C21 O15 1.231 . S
O22 Zn4 1.953 . S
O22 C16 1.298 . S
O23 Zn24 1.953 . S
O23 C39 1.225 . S
Zn24 O23 1.953 . S
Zn24 O25 1.949 . S
Zn24 O31 1.919 . S
Zn24 O36 1.924 . S
O25 Zn24 1.949 . S
O25 Zn26 1.923 . S
O25 Zn27 1.950 . S
O25 Zn28 1.945 . S
Zn26 O25 1.923 . S
Zn26 O29 1.933 . S
Zn26 O32 1.941 . S
Zn26 O33 1.965 . S
Zn27 O25 1.950 . S
Zn27 O34 1.938 . S
Zn27 O35 1.906 . S
Zn27 O45 1.953 . S
Zn28 O25 1.945 . S
Zn28 O30 1.932 . S
Zn28 O37 1.977 . S
Zn28 O38 1.910 . S
O29 Zn26 1.933 . S
O29 C40 1.226 . S
O30 Zn28 1.932 . S
O30 C40 1.307 . S
O31 Zn24 1.919 . S
O31 C42 1.253 . S
O32 Zn26 1.941 . S
O32 C42 1.283 . S
O33 Zn26 1.965 . S
O33 C41 1.303 . S
O34 Zn27 1.938 . S
O34 C41 1.247 . S
O35 Zn27 1.906 . S
O35 C43 1.304 . S
O36 Zn24 1.924 . S
O36 C44 1.311 . S
O37 Zn28 1.977 . S
O37 C43 1.272 . S
O38 Zn28 1.910 . S
O38 C44 1.231 . S
C39 O23 1.225 . S
C39 O45 1.298 . S
C40 O29 1.226 . S
C40 O30 1.307 . S
C41 O33 1.303 . S
C41 O34 1.247 . S
C42 O31 1.253 . S
C42 O32 1.283 . S
C43 O35 1.304 . S
C43 O37 1.272 . S
C44 O36 1.311 . S
C44 O38 1.231 . S
O45 Zn27 1.953 . S
O45 C39 1.298 . S
O46 Zn47 1.953 . S
O46 C62 1.225 . S
Zn47 O46 1.953 . S
Zn47 O48 1.949 . S
Zn47 O54 1.919 . S
Zn47 O59 1.924 1_455 S
O48 Zn47 1.949 . S
O48 Zn49 1.923 . S
O48 Zn50 1.950 . S
O48 Zn51 1.945 1_455 S
Zn49 O48 1.923 . S
Zn49 O52 1.933 1_455 S
Zn49 O55 1.941 . S
Zn49 O56 1.965 . S
Zn50 O48 1.950 . S
Zn50 O57 1.938 . S
Zn50 O58 1.906 . S
Zn50 O68 1.953 . S
Zn51 O48 1.945 1_655 S
Zn51 O53 1.932 . S
Zn51 O60 1.977 . S
Zn51 O61 1.910 . S
O52 Zn49 1.933 1_655 S
O52 C63 1.226 . S
O53 Zn51 1.932 . S
O53 C63 1.307 . S
O54 Zn47 1.919 . S
O54 C65 1.253 . S
O55 Zn49 1.941 . S
O55 C65 1.283 . S
O56 Zn49 1.965 . S
O56 C64 1.303 . S
O57 Zn50 1.938 . S
O57 C64 1.247 . S
O58 Zn50 1.906 . S
O58 C66 1.304 1_455 S
O59 Zn47 1.924 1_655 S
O59 C67 1.311 . S
O60 Zn51 1.977 . S
O60 C66 1.272 . S
O61 Zn51 1.910 . S
O61 C67 1.231 . S
C62 O46 1.225 . S
C62 O68 1.298 . S
C63 O52 1.226 . S
C63 O53 1.307 . S
C64 O56 1.303 . S
C64 O57 1.247 . S
C65 O54 1.253 . S
C65 O55 1.283 . S
C66 O58 1.304 1_655 S
C66 O60 1.272 . S
C67 O59 1.311 . S
C67 O61 1.231 . S
O68 Zn50 1.953 . S
O68 C62 1.298 . S
O69 Zn70 1.953 . S
O69 C85 1.225 . S
Zn70 O69 1.953 . S
Zn70 O71 1.949 . S
Zn70 O77 1.919 . S
Zn70 O82 1.924 . S
O71 Zn70 1.949 . S
O71 Zn72 1.923 . S
O71 Zn73 1.950 . S
O71 Zn74 1.945 . S
Zn72 O71 1.923 . S
Zn72 O75 1.933 . S
Zn72 O78 1.941 . S
Zn72 O79 1.965 . S
Zn73 O71 1.950 . S
Zn73 O80 1.938 . S
Zn73 O81 1.906 . S
Zn73 O91 1.953 . S
Zn74 O71 1.945 . S
Zn74 O76 1.932 . S
Zn74 O83 1.977 . S
Zn74 O84 1.910 . S
O75 Zn72 1.933 . S
O75 C86 1.226 . S
O76 Zn74 1.932 . S
O76 C86 1.307 . S
O77 Zn70 1.919 . S
O77 C88 1.253 . S
O78 Zn72 1.941 . S
O78 C88 1.283 . S
O79 Zn72 1.965 . S
O79 C87 1.303 . S
O80 Zn73 1.938 . S
O80 C87 1.247 . S
O81 Zn73 1.906 . S
O81 C89 1.304 . S
O82 Zn70 1.924 . S
O82 C90 1.311 . S
O83 Zn74 1.977 . S
O83 C89 1.272 . S
O84 Zn74 1.910 . S
O84 C90 1.231 . S
C85 O69 1.225 . S
C85 O91 1.298 . S
C86 O75 1.226 . S
C86 O76 1.307 . S
C87 O79 1.303 . S
C87 O80 1.247 . S
C88 O77 1.253 . S
C88 O78 1.283 . S
C89 O81 1.304 . S
C89 O83 1.272 . S
C90 O82 1.311 . S
C90 O84 1.231 . S
O91 Zn73 1.953 . S
O91 C85 1.298 . S
C92 C93 1.386 1_455 S
C92 C94 1.383 . S
C92 H108 0.951 . S
C93 C92 1.386 1_655 S
C93 C97 1.383 . S
C94 C92 1.383 . S
C94 C95 1.402 1_455 S
C94 H109 0.951 . S
C95 C94 1.402 1_655 S
C95 C96 1.375 . S
C95 C98 1.481 . S
C96 C95 1.375 . S
C96 C97 1.367 . S
C96 H110 0.951 . S
C97 C93 1.383 . S
C97 C96 1.367 . S
C97 H111 0.950 . S
C98 C95 1.481 . S
C98 C99 1.297 1_655 S
C98 H112 0.950 . S
C99 C98 1.297 1_455 S
C99 C100 1.479 1_556 S
C99 H113 0.950 . S
C100 C99 1.479 1_554 S
C100 C101 1.375 . S
C100 C106 1.404 1_455 S
C101 C100 1.375 . S
C101 C102 1.369 . S
C101 H114 0.950 . S
C102 C101 1.369 . S
C102 C103 1.392 . S
C102 H115 0.951 . S
C103 C102 1.392 . S
C103 C105 1.384 1_455 S
H104 C106 0.949 . S
C105 C103 1.384 1_655 S
C105 C106 1.385 . S
C105 H107 0.950 . S
C106 C100 1.404 1_655 S
C106 H104 0.949 . S
C106 C105 1.385 . S
H107 C105 0.950 . S
H108 C92 0.951 . S
H109 C94 0.951 . S
H110 C96 0.951 . S
H111 C97 0.950 . S
H112 C98 0.950 . S
H113 C99 0.950 . S
H114 C101 0.950 . S
H115 C102 0.951 . S
C116 C117 1.386 . S
C116 C118 1.383 . S
C116 H132 0.951 . S
C117 C116 1.386 . S
C117 C121 1.383 . S
C118 C116 1.383 . S
C118 C119 1.402 . S
C118 H133 0.951 . S
C119 C118 1.402 . S
C119 C120 1.375 . S
C119 C122 1.481 . S
C120 C119 1.375 . S
C120 C121 1.367 . S
C120 H134 0.951 . S
C121 C117 1.383 . S
C121 C120 1.367 . S
C121 H135 0.950 . S
C122 C119 1.481 . S
C122 C123 1.297 . S
C122 H136 0.952 . S
C123 C122 1.297 . S
C123 C124 1.479 1_554 S
C123 H137 0.950 . S
C124 C123 1.479 1_556 S
C124 C125 1.375 . S
C124 C130 1.404 . S
C125 C124 1.375 . S
C125 C126 1.369 . S
C125 H138 0.950 . S
C126 C125 1.369 . S
C126 C127 1.392 . S
C126 H139 0.951 . S
C127 C126 1.392 . S
C127 C129 1.384 . S
H128 C130 0.949 . S
C129 C127 1.384 . S
C129 C130 1.385 . S
C129 H131 0.950 . S
C130 C124 1.404 . S
C130 H128 0.949 . S
C130 C129 1.385 . S
H131 C129 0.950 . S
H132 C116 0.951 . S
H133 C118 0.951 . S
H134 C120 0.951 . S
H135 C121 0.950 . S
H136 C122 0.952 . S
H137 C123 0.950 . S
H138 C125 0.950 . S
H139 C126 0.951 . S
C140 C141 1.386 . S
C140 C142 1.383 . S
C140 H156 0.951 . S
C141 C140 1.386 . S
C141 C145 1.383 . S
C142 C140 1.383 . S
C142 C143 1.402 . S
C142 H157 0.951 . S
C143 C142 1.402 . S
C143 C144 1.375 . S
C143 C146 1.481 . S
C144 C143 1.375 . S
C144 C145 1.367 . S
C144 H158 0.951 . S
C145 C141 1.383 . S
C145 C144 1.367 . S
C145 H159 0.950 . S
C146 C143 1.481 . S
C146 C147 1.297 1_566 S
C146 H160 0.950 1_565 S
C147 C146 1.297 1_544 S
C147 C148 1.479 . S
C147 H161 0.950 1_545 S
C148 C147 1.479 . S
C148 C149 1.375 . S
C148 C154 1.404 . S
C149 C148 1.375 . S
C149 C150 1.369 . S
C149 H162 0.950 . S
C150 C149 1.369 . S
C150 C151 1.392 . S
C150 H163 0.951 . S
C151 C150 1.392 . S
C151 C153 1.384 . S
H152 C154 0.949 . S
C153 C151 1.384 . S
C153 C154 1.385 . S
C153 H155 0.950 . S
C154 C148 1.404 . S
C154 H152 0.949 . S
C154 C153 1.385 . S
H155 C153 0.950 . S
H156 C140 0.951 . S
H157 C142 0.951 . S
H158 C144 0.951 . S
H159 C145 0.950 . S
H160 C146 0.950 1_545 S
H161 C147 0.950 1_565 S
H162 C149 0.950 . S
H163 C150 0.951 . S
C164 C165 1.386 1_655 S
C164 C166 1.383 . S
C164 H180 0.951 . S
C165 C164 1.386 1_455 S
C165 C169 1.383 . S
C166 C164 1.383 . S
C166 C167 1.402 1_655 S
C166 H181 0.951 . S
C167 C166 1.402 1_455 S
C167 C168 1.375 . S
C167 C170 1.481 1_565 S
C168 C167 1.375 . S
C168 C169 1.367 . S
C168 H182 0.951 . S
C169 C165 1.383 . S
C169 C168 1.367 . S
C169 H183 0.950 . S
C170 C167 1.481 1_545 S
C170 C171 1.297 1_454 S
C170 H184 0.950 . S
C171 C170 1.297 1_656 S
C171 C172 1.479 . S
C171 H185 0.950 1_545 S
C172 C171 1.479 . S
C172 C173 1.375 . S
C172 C178 1.404 1_655 S
C173 C172 1.375 . S
C173 C174 1.369 . S
C173 H186 0.950 . S
C174 C173 1.369 . S
C174 C175 1.392 . S
C174 H187 0.951 . S
C175 C174 1.392 . S
C175 C177 1.384 1_655 S
H176 C178 0.949 1_554 S
C177 C175 1.384 1_455 S
C177 C178 1.385 . S
C177 H179 0.950 . S
C178 C172 1.404 1_455 S
C178 H176 0.949 1_556 S
C178 C177 1.385 . S
H179 C177 0.950 . S
H180 C164 0.951 . S
H181 C166 0.951 . S
H182 C168 0.951 . S
H183 C169 0.950 . S
H184 C170 0.950 . S
H185 C171 0.950 1_565 S
H186 C173 0.950 . S
H187 C174 0.951 . S
C188 C189 1.386 . S
C188 C190 1.383 . S
C188 H204 0.951 . S
C189 C188 1.386 . S
C189 C193 1.383 . S
C190 C188 1.383 . S
C190 C191 1.402 . S
C190 H205 0.951 . S
C191 C190 1.402 . S
C191 C192 1.375 . S
C191 C194 1.481 . S
C192 C191 1.375 . S
C192 C193 1.367 . S
C192 H206 0.951 . S
C193 C189 1.383 . S
C193 C192 1.367 . S
C193 H207 0.950 . S
C194 C191 1.481 . S
C194 C195 1.297 . S
C194 H208 0.950 . S
C195 C194 1.297 . S
C195 C196 1.479 . S
C195 H209 0.950 . S
C196 C195 1.479 . S
C196 C197 1.375 . S
C196 C202 1.404 . S
C197 C196 1.375 . S
C197 C198 1.369 . S
C197 H210 0.950 . S
C198 C197 1.369 . S
C198 C199 1.392 . S
C198 H211 0.951 . S
C199 C198 1.392 . S
C199 C201 1.384 . S
H200 C202 0.949 . S
C201 C199 1.384 . S
C201 C202 1.385 . S
C201 H203 0.950 . S
C202 C196 1.404 . S
C202 H200 0.949 . S
C202 C201 1.385 . S
H203 C201 0.950 . S
H204 C188 0.951 . S
H205 C190 0.951 . S
H206 C192 0.951 . S
H207 C193 0.950 . S
H208 C194 0.950 . S
H209 C195 0.950 . S
H210 C197 0.950 . S
H211 C198 0.951 . S
C212 C213 1.386 . S
C212 C214 1.383 . S
C212 H228 0.951 . S
C213 C212 1.386 . S
C213 C217 1.383 . S
C214 C212 1.383 . S
C214 C215 1.402 . S
C214 H229 0.951 . S
C215 C214 1.402 . S
C215 C216 1.375 . S
C215 C218 1.481 . S
C216 C215 1.375 . S
C216 C217 1.367 . S
C216 H230 0.951 . S
C217 C213 1.383 . S
C217 C216 1.367 . S
C217 H231 0.950 . S
C218 C215 1.481 . S
C218 C219 1.297 . S
C218 H232 0.950 . S
C219 C218 1.297 . S
C219 C220 1.479 . S
C219 H233 0.950 . S
C220 C219 1.479 . S
C220 C221 1.375 . S
C220 C226 1.404 . S
C221 C220 1.375 . S
C221 C222 1.369 . S
C221 H234 0.950 . S
C222 C221 1.369 . S
C222 C223 1.392 . S
C222 H235 0.951 . S
C223 C222 1.392 . S
C223 C225 1.384 . S
H224 C226 0.949 . S
C225 C223 1.384 . S
C225 C226 1.385 . S
C225 H227 0.950 . S
C226 C220 1.404 . S
C226 H224 0.949 . S
C226 C225 1.385 . S
H227 C225 0.950 . S
H228 C212 0.951 . S
H229 C214 0.951 . S
H230 C216 0.951 . S
H231 C217 0.950 . S
H232 C218 0.950 . S
H233 C219 0.950 . S
H234 C221 0.950 . S
H235 C222 0.951 . S
C236 C237 1.386 . S
C236 C238 1.383 . S
C236 H252 0.951 . S
C237 C236 1.386 . S
C237 C241 1.383 . S
C238 C236 1.383 . S
C238 C239 1.402 . S
C238 H253 0.951 . S
C239 C238 1.402 . S
C239 C240 1.375 . S
C239 C242 1.481 . S
C240 C239 1.375 . S
C240 C241 1.367 . S
C240 H254 0.951 . S
C241 C237 1.383 . S
C241 C240 1.367 . S
C241 H255 0.950 . S
C242 C239 1.481 . S
C242 C243 1.297 . S
C242 H256 0.950 . S
C243 C242 1.297 . S
C243 C244 1.479 . S
C243 H257 0.950 . S
C244 C243 1.479 . S
C244 C245 1.375 . S
C244 C250 1.404 . S
C245 C244 1.375 . S
C245 C246 1.369 . S
C245 H258 0.950 . S
C246 C245 1.369 . S
C246 C247 1.392 . S
C246 H259 0.951 . S
C247 C246 1.392 . S
C247 C249 1.384 . S
H248 C250 0.949 . S
C249 C247 1.384 . S
C249 C250 1.385 . S
C249 H251 0.950 . S
C250 C244 1.404 . S
C250 H248 0.949 . S
C250 C249 1.385 . S
H251 C249 0.950 . S
H252 C236 0.951 . S
H253 C238 0.951 . S
H254 C240 0.951 . S
H255 C241 0.950 . S
H256 C242 0.950 . S
H257 C243 0.950 . S
H258 C245 0.950 . S
H259 C246 0.951 . S
C260 C261 1.386 . S
C260 C262 1.383 . S
C260 H276 0.951 . S
C261 C260 1.386 . S
C261 C265 1.383 . S
C262 C260 1.383 . S
C262 C263 1.402 . S
C262 H277 0.951 . S
C263 C262 1.402 . S
C263 C264 1.375 . S
C263 C266 1.481 . S
C264 C263 1.375 . S
C264 C265 1.367 . S
C264 H278 0.951 . S
C265 C261 1.383 . S
C265 C264 1.367 . S
C265 H279 0.950 . S
C266 C263 1.481 . S
C266 C267 1.297 . S
C266 H280 0.950 . S
C267 C266 1.297 . S
C267 C268 1.479 . S
C267 H281 0.950 . S
C268 C267 1.479 . S
C268 C269 1.375 . S
C268 C274 1.404 . S
C269 C268 1.375 . S
C269 C270 1.369 . S
C269 H282 0.950 . S
C270 C269 1.369 . S
C270 C271 1.392 . S
C270 H283 0.951 . S
C271 C270 1.392 . S
C271 C273 1.384 . S
H272 C274 0.949 . S
C273 C271 1.384 . S
C273 C274 1.385 . S
C273 H275 0.950 . S
C274 C268 1.404 . S
C274 H272 0.949 . S
C274 C273 1.385 . S
H275 C273 0.950 . S
H276 C260 0.951 . S
H277 C262 0.951 . S
H278 C264 0.951 . S
H279 C265 0.950 . S
H280 C266 0.950 . S
H281 C267 0.950 . S
H282 C269 0.950 . S
H283 C270 0.951 . S
C284 C285 1.386 . S
C284 C286 1.383 . S
C284 H300 0.951 . S
C285 C284 1.386 . S
C285 C289 1.383 . S
C286 C284 1.383 . S
C286 C287 1.402 . S
C286 H301 0.951 . S
C287 C286 1.402 . S
C287 C288 1.375 . S
C287 C290 1.481 1_556 S
C288 C287 1.375 . S
C288 C289 1.367 . S
C288 H302 0.951 . S
C289 C285 1.383 . S
C289 C288 1.367 . S
C289 H303 0.950 . S
C290 C287 1.481 1_554 S
C290 C291 1.297 . S
C290 H304 0.950 . S
C291 C290 1.297 . S
C291 C292 1.479 . S
C291 H305 0.950 . S
C292 C291 1.479 . S
C292 C293 1.375 . S
C292 C298 1.404 . S
C293 C292 1.375 . S
C293 C294 1.369 . S
C293 H306 0.950 . S
C294 C293 1.369 . S
C294 C295 1.392 . S
C294 H307 0.951 . S
C295 C294 1.392 . S
C295 C297 1.384 . S
H296 C298 0.949 . S
C297 C295 1.384 . S
C297 C298 1.385 . S
C297 H299 0.950 . S
C298 C292 1.404 . S
C298 H296 0.949 . S
C298 C297 1.385 . S
H299 C297 0.950 . S
H300 C284 0.951 . S
H301 C286 0.951 . S
H302 C288 0.951 . S
H303 C289 0.950 . S
H304 C290 0.950 . S
H305 C291 0.950 . S
H306 C293 0.950 . S
H307 C294 0.951 . S
C308 C309 1.386 . S
C308 C310 1.383 . S
C308 H324 0.951 . S
C309 C308 1.386 . S
C309 C313 1.383 . S
C310 C308 1.383 . S
C310 C311 1.402 . S
C310 H325 0.951 1_556 S
C311 C310 1.402 . S
C311 C312 1.375 . S
C311 C314 1.481 . S
C312 C311 1.375 . S
C312 C313 1.367 . S
C312 H326 0.951 . S
C313 C309 1.383 . S
C313 C312 1.367 . S
C313 H327 0.950 . S
C314 C311 1.481 . S
C314 C315 1.297 1_556 S
C314 H328 0.950 . S
C315 C314 1.297 1_554 S
C315 C316 1.479 . S
C315 H329 0.950 . S
C316 C315 1.479 . S
C316 C317 1.375 . S
C316 C322 1.404 . S
C317 C316 1.375 . S
C317 C318 1.369 . S
C317 H330 0.950 . S
C318 C317 1.369 . S
C318 C319 1.392 . S
C318 H331 0.951 . S
C319 C318 1.392 . S
C319 C321 1.384 . S
H320 C322 0.949 1_556 S
C321 C319 1.384 . S
C321 C322 1.385 . S
C321 H323 0.950 . S
C322 C316 1.404 . S
C322 H320 0.949 1_554 S
C322 C321 1.385 . S
H323 C321 0.950 . S
H324 C308 0.951 . S
H325 C310 0.951 1_554 S
H326 C312 0.951 . S
H327 C313 0.950 . S
H328 C314 0.950 . S
H329 C315 0.950 . S
H330 C317 0.950 . S
H331 C318 0.951 . S
C332 C333 1.386 . S
C332 C334 1.383 . S
C332 H348 0.951 . S
C333 C332 1.386 . S
C333 C337 1.383 . S
C334 C332 1.383 . S
C334 C335 1.402 . S
C334 H349 0.951 . S
C335 C334 1.402 . S
C335 C336 1.375 . S
C335 C338 1.481 . S
C336 C335 1.375 . S
C336 C337 1.367 . S
C336 H350 0.951 . S
C337 C333 1.383 . S
C337 C336 1.367 . S
C337 H351 0.950 . S
C338 C335 1.481 . S
C338 C339 1.297 . S
C338 H352 0.950 . S
C339 C338 1.297 . S
C339 C340 1.479 . S
C339 H353 0.950 . S
C340 C339 1.479 . S
C340 C341 1.374 1_554 S
C340 C346 1.404 1_554 S
C341 C340 1.374 1_556 S
C341 C342 1.372 . S
C341 H354 0.948 1_556 S
C342 C341 1.372 . S
C342 C343 1.392 . S
C342 H355 0.951 . S
C343 C342 1.392 . S
C343 C345 1.384 . S
H344 C346 0.949 1_554 S
C345 C343 1.384 . S
C345 C346 1.385 . S
C345 H347 0.950 . S
C346 C340 1.404 1_556 S
C346 H344 0.949 1_556 S
C346 C345 1.385 . S
H347 C345 0.950 . S
H348 C332 0.951 . S
H349 C334 0.951 . S
H350 C336 0.951 . S
H351 C337 0.950 . S
H352 C338 0.950 . S
H353 C339 0.950 . S
H354 C341 0.948 1_554 S
H355 C342 0.951 . S
C356 C357 1.386 . S
C356 C358 1.383 . S
C356 H372 0.951 . S
C357 C356 1.386 . S
C357 C361 1.383 . S
C358 C356 1.383 . S
C358 C359 1.402 . S
C358 H373 0.951 1_554 S
C359 C358 1.402 . S
C359 C360 1.375 . S
C359 C362 1.481 . S
C360 C359 1.375 . S
C360 C361 1.367 . S
C360 H374 0.951 . S
C361 C357 1.383 . S
C361 C360 1.367 . S
C361 H375 0.950 . S
C362 C359 1.481 . S
C362 C363 1.297 1_554 S
C362 H376 0.950 . S
C363 C362 1.297 1_556 S
C363 C364 1.479 . S
C363 H377 0.950 . S
C364 C363 1.479 . S
C364 C365 1.375 . S
C364 C370 1.404 . S
C365 C364 1.375 . S
C365 C366 1.369 . S
C365 H378 0.950 . S
C366 C365 1.369 . S
C366 C367 1.392 . S
C366 H379 0.951 . S
C367 C366 1.392 . S
C367 C369 1.384 . S
H368 C370 0.949 1_554 S
C369 C367 1.384 . S
C369 C370 1.385 . S
C369 H371 0.950 . S
C370 C364 1.404 . S
C370 H368 0.949 1_556 S
C370 C369 1.385 . S
H371 C369 0.950 . S
H372 C356 0.951 . S
H373 C358 0.951 1_556 S
H374 C360 0.951 . S
H375 C361 0.950 . S
H376 C362 0.950 . S
H377 C363 0.950 . S
H378 C365 0.950 . S
H379 C366 0.951 . S
C93 C66 2.202 . S
C103 C19 2.101 . S
C117 C43 2.201 . S
C127 C88 2.095 . S
C141 C89 2.186 . S
C151 C42 2.149 . S
C165 C20 2.200 . S
C175 C65 2.134 1_655 S
C189 C90 1.506 . S
C199 C21 1.549 . S
C213 C62 2.147 . S
C223 C39 2.134 . S
C237 C67 1.521 . S
C247 C44 1.560 . S
C261 C16 2.144 . S
C271 C85 2.137 . S
C285 C86 0.514 . S
C295 C17 0.318 . S
C309 C64 0.448 . S
C319 C41 0.527 . S
C333 C40 0.424 . S
C343 C63 0.603 . S
C357 C18 0.458 . S
C367 C87 0.513 . S
