# Generated by pormake.
# Topology sml, (6)-cn, num edge types: 1
# Building blocks:
#     Node 0, Type 0, BuildingBlock: CUKXOW_clean_sbu_0, # of connection points: 6
#     Node 1, Type 0, BuildingBlock: CUKXOW_clean_sbu_0, # of connection points: 6
#     Node 2, Type 0, BuildingBlock: CUKXOW_clean_sbu_0, # of connection points: 6
#     Node 3, Type 0, BuildingBlock: CUKXOW_clean_sbu_0, # of connection points: 6
#     Node 4, Type 0, BuildingBlock: CUKXOW_clean_sbu_0, # of connection points: 6
#     Node 5, Type 0, BuildingBlock: CUKXOW_clean_sbu_0, # of connection points: 6
#     Edge 6, Type (0, 0), BuildingBlock: ZUJKAS_clean_linker_0, # of connection points: 2
#     Edge 7, Type (0, 0), BuildingBlock: ZUJKAS_clean_linker_0, # of connection points: 2
#     Edge 8, Type (0, 0), BuildingBlock: ZUJKAS_clean_linker_0, # of connection points: 2
#     Edge 9, Type (0, 0), BuildingBlock: ZUJKAS_clean_linker_0, # of connection points: 2
#     Edge 10, Type (0, 0), BuildingBlock: ZUJKAS_clean_linker_0, # of connection points: 2
#     Edge 11, Type (0, 0), BuildingBlock: ZUJKAS_clean_linker_0, # of connection points: 2
#     Edge 12, Type (0, 0), BuildingBlock: ZUJKAS_clean_linker_0, # of connection points: 2
#     Edge 13, Type (0, 0), BuildingBlock: ZUJKAS_clean_linker_0, # of connection points: 2
#     Edge 14, Type (0, 0), BuildingBlock: ZUJKAS_clean_linker_0, # of connection points: 2
#     Edge 15, Type (0, 0), BuildingBlock: ZUJKAS_clean_linker_0, # of connection points: 2
#     Edge 16, Type (0, 0), BuildingBlock: ZUJKAS_clean_linker_0, # of connection points: 2
#     Edge 17, Type (0, 0), BuildingBlock: ZUJKAS_clean_linker_0, # of connection points: 2
#     Edge 18, Type (0, 0), BuildingBlock: ZUJKAS_clean_linker_0, # of connection points: 2
#     Edge 19, Type (0, 0), BuildingBlock: ZUJKAS_clean_linker_0, # of connection points: 2
#     Edge 20, Type (0, 0), BuildingBlock: ZUJKAS_clean_linker_0, # of connection points: 2
#     Edge 21, Type (0, 0), BuildingBlock: ZUJKAS_clean_linker_0, # of connection points: 2
#     Edge 22, Type (0, 0), BuildingBlock: ZUJKAS_clean_linker_0, # of connection points: 2
#     Edge 23, Type (0, 0), BuildingBlock: ZUJKAS_clean_linker_0, # of connection points: 2
# Relax obj value: 0.141
# Max RMSD: 0.191
# Mean RMSD: 0.191
data_MOF--net-sml--node1-CUKXOW_clean_sbu_0--edge1-ZUJKAS_clean_linker_0
_symmetry_space_group_name_H-M    P1
_symmetry_Int_Tables_number       1
_symmetry_cell_setting            triclinic
loop_
_symmetry_equiv_pos_as_xyz
'x, y, z'
_cell_length_a     54.268437
_cell_length_b     54.228085
_cell_length_c     18.749433
_cell_angle_alpha  90.137519
_cell_angle_beta   89.947524
_cell_angle_gamma 120.01858
loop_
_atom_site_label
_atom_site_type_symbol
_atom_site_fract_x
_atom_site_fract_y
_atom_site_fract_z
_atom_type_partial_charge
Tb0 Tb 0.20278 0.39053 1.03444 0.0
C1 C 0.13885 0.37241 0.07108 0.0
Tb2 Tb 0.18581 0.43835 0.07636 0.0
O3 O 0.20766 0.38017 0.14635 0.0
O4 O 0.19657 0.41 0.12351 0.0
O5 O 0.15632 0.3654 1.03808 0.0
C6 C 0.17733 0.47554 0.14977 0.0
O7 O 0.14702 0.39821 0.09775 0.0
C8 C 0.18703 0.43071 0.9362 0.0
C9 C 0.24929 0.45686 1.03549 0.0
O10 O 0.16034 0.45828 0.10115 0.0
O11 O 0.19892 0.47161 0.15745 0.0
O12 O 0.18043 0.44854 0.96479 0.0
O13 O 0.1922 0.41907 0.98718 0.0
O14 O 0.23191 0.46334 0.07037 0.0
O15 O 0.24131 0.43097 1.00975 0.0
C16 C 0.21678 0.35595 0.96746 0.0
O17 O 0.23146 0.37393 1.0175 0.0
O18 O 0.19399 0.35745 0.95438 0.0
C19 C 0.20136 0.39821 0.17473 0.0
Tb20 Tb 0.80663 0.20709 0.3644 0.0
C21 C 0.76002 0.14338 0.40005 0.0
Tb22 Tb 0.74214 0.1912 0.40545 0.0
O23 O 0.82168 0.21147 0.47635 0.0
O24 O 0.78105 0.20144 0.45317 0.0
O25 O 0.78468 0.16061 0.36763 0.0
C26 C 0.69656 0.18329 0.47811 0.0
O27 O 0.74261 0.15189 0.42635 0.0
C28 C 0.75102 0.19217 0.26547 0.0
C29 C 0.78793 0.25449 0.36491 0.0
O30 O 0.69664 0.16622 0.42941 0.0
O31 O 0.72222 0.20464 0.48635 0.0
O32 O 0.72669 0.18599 0.29378 0.0
O33 O 0.76775 0.19711 0.31659 0.0
O34 O 0.76372 0.23737 0.39868 0.0
O35 O 0.80566 0.24611 0.34028 0.0
C36 C 0.8552 0.22111 0.29768 0.0
O37 O 0.85185 0.23587 0.34741 0.0
O38 O 0.83096 0.19816 0.28485 0.0
C39 C 0.79749 0.20574 0.5045 0.0
Tb40 Tb 0.59426 0.81167 0.70129 0.0
C41 C 0.61136 0.76521 0.73792 0.0
Tb42 Tb 0.54573 0.74723 0.74258 0.0
O43 O 0.60525 0.8268 0.81322 0.0
O44 O 0.57432 0.78625 0.79028 0.0
O45 O 0.61879 0.78972 0.70473 0.0
C46 C 0.5084 0.70129 0.81452 0.0
O47 O 0.58551 0.74801 0.76462 0.0
C48 C 0.55325 0.75589 0.60238 0.0
C49 C 0.52825 0.79294 0.70306 0.0
O50 O 0.5263 0.70188 0.76749 0.0
O51 O 0.51175 0.72665 0.82148 0.0
O52 O 0.53502 0.73168 0.63098 0.0
O53 O 0.5654 0.77265 0.65338 0.0
O54 O 0.52147 0.76907 0.73805 0.0
O55 O 0.55412 0.8104 0.67685 0.0
C56 C 0.62872 0.86044 0.63523 0.0
O57 O 0.6108 0.857 0.68543 0.0
O58 O 0.62729 0.83618 0.62152 0.0
C59 C 0.58672 0.80271 0.84156 0.0
Tb60 Tb 0.78063 0.59775 1.01522 0.0
C61 C 0.84398 0.61167 1.03502 0.0
Tb62 Tb 0.79316 0.54826 0.05187 0.0
O63 O 0.79415 0.61556 0.12219 0.0
O64 O 0.77712 0.57205 0.10525 0.0
O65 O 0.82689 0.61999 1.00644 0.0
C66 C 0.79891 0.50801 0.11791 0.0
O67 O 0.83504 0.58597 0.06251 0.0
C68 C 0.79585 0.55818 0.91242 0.0
C69 C 0.7302 0.53372 1.02281 0.0
O70 O 0.81266 0.53492 0.13482 0.0
O71 O 0.7822 0.50405 0.06436 0.0
O72 O 0.80124 0.53959 0.94104 0.0
O73 O 0.79013 0.56957 0.96307 0.0
O74 O 0.74704 0.52665 0.0576 0.0
O75 O 0.73952 0.55941 0.9948 0.0
C76 C 0.76486 0.6328 0.95898 0.0
O77 O 0.75503 0.61852 1.01773 0.0
O78 O 0.78363 0.62732 0.93157 0.0
C79 C 0.78915 0.59171 0.15081 0.0
Tb80 Tb 0.17412 0.78225 0.36749 0.0
C81 C 0.21989 0.84629 0.40267 0.0
Tb82 Tb 0.23894 0.7993 0.40877 0.0
O83 O 0.15928 0.77836 0.47961 0.0
O84 O 0.20005 0.78903 0.45616 0.0
O85 O 0.19529 0.82871 0.37033 0.0
C86 C 0.28494 0.80865 0.4815 0.0
O87 O 0.23758 0.83821 0.42912 0.0
C88 C 0.22985 0.79714 0.26874 0.0
C89 C 0.1934 0.73534 0.37235 0.0
O90 O 0.28427 0.82554 0.43341 0.0
O91 O 0.25964 0.78665 0.48902 0.0
O92 O 0.25435 0.80406 0.29716 0.0
O93 O 0.21307 0.79215 0.31984 0.0
O94 O 0.21763 0.75309 0.40536 0.0
O95 O 0.17533 0.74307 0.34676 0.0
C96 C 0.12535 0.76724 0.30082 0.0
O97 O 0.12822 0.75533 0.35769 0.0
O98 O 0.15012 0.78789 0.28082 0.0
C99 C 0.18364 0.78465 0.50763 0.0
Tb100 Tb 0.38635 0.17886 0.69969 0.0
C101 C 0.36744 0.22416 0.73546 0.0
Tb102 Tb 0.43349 0.24388 0.74141 0.0
O103 O 0.37605 0.16353 0.8115 0.0
O104 O 0.40547 0.20466 0.78879 0.0
O105 O 0.36071 0.19964 0.70298 0.0
C106 C 0.46974 0.29015 0.81439 0.0
O107 O 0.39312 0.24208 0.76215 0.0
C108 C 0.4261 0.23488 0.60128 0.0
C109 C 0.45285 0.19952 0.70103 0.0
O110 O 0.45229 0.28925 0.76562 0.0
O111 O 0.46657 0.26491 0.82242 0.0
O112 O 0.44376 0.2594 0.62978 0.0
O113 O 0.41449 0.21808 0.65229 0.0
O114 O 0.45903 0.22333 0.73587 0.0
O115 O 0.42708 0.1814 0.67514 0.0
C116 C 0.35259 0.1302 0.63198 0.0
O117 O 0.37107 0.13389 0.68083 0.0
O118 O 0.35308 0.15413 0.62059 0.0
C119 C 0.39381 0.18797 0.83994 0.0
H120 H 0.30925 0.18993 0.72638 0.0
H121 H 0.2732 0.20408 0.746 0.0
H122 H 0.33972 0.29071 0.78231 0.0
H123 H 0.37559 0.27697 0.7633 0.0
H124 H 0.26842 0.23087 0.87565 0.0
H125 H 0.28555 0.29777 0.63765 0.0
H126 H 0.29636 0.2712 0.64143 0.0
H127 H 0.31814 0.30568 0.68136 0.0
C128 C 0.31614 0.21204 0.73777 0.0
C129 C 0.34529 0.2323 0.74352 0.0
C130 C 0.29555 0.22006 0.74892 0.0
C131 C 0.30385 0.24851 0.76446 0.0
C132 C 0.33288 0.26875 0.76905 0.0
H133 H 0.25945 0.34691 1.00705 0.0
H134 H 0.27392 0.3154 0.95159 0.0
C135 C 0.35336 0.26076 0.7588 0.0
C136 C 0.28267 0.2572 0.78181 0.0
H137 H 0.26514 0.30781 0.74074 0.0
C138 C 0.26706 0.24713 0.84522 0.0
C139 C 0.28069 0.27819 0.74165 0.0
C140 C 0.29587 0.28866 0.67132 0.0
C141 C 0.25145 0.25927 0.87255 0.0
C142 C 0.25165 0.28208 0.83566 0.0
C143 C 0.26524 0.29047 0.76925 0.0
C144 C 0.24146 0.29998 0.86977 0.0
C145 C 0.23597 0.24855 0.94244 0.0
C146 C 0.21867 0.3021 0.84127 0.0
C147 C 0.21023 0.32012 0.87324 0.0
C148 C 0.22485 0.33653 0.9332 0.0
C149 C 0.24776 0.33447 0.96097 0.0
C150 C 0.25594 0.31635 0.92965 0.0
H151 H 0.23079 0.2263 0.953 0.0
H152 H 0.24978 0.26217 0.98643 0.0
H153 H 0.21598 0.24948 0.94308 0.0
H154 H 0.20746 0.28984 0.79454 0.0
H155 H 0.19256 0.32146 0.85072 0.0
H156 H 0.09527 0.38055 0.11215 0.0
H157 H 0.04569 0.34477 0.1316 0.0
H158 H 0.06333 0.27853 0.06989 0.0
H159 H 0.11352 0.31443 0.05005 0.0
H160 H 0.00514 0.30078 1.02985 0.0
H161 H 0.02723 0.25841 0.27768 0.0
H162 H 0.05242 0.29317 0.24343 0.0
H163 H 0.04735 0.26182 0.19811 0.0
C164 C 0.08879 0.35842 0.10249 0.0
C165 C 0.10852 0.35038 0.08004 0.0
C166 C 0.06033 0.33801 0.11329 0.0
C167 C 0.05093 0.30907 0.1024 0.0
C168 C 0.07029 0.30081 0.07884 0.0
H169 H 0.86592 0.19555 0.18446 0.0
H170 H 0.91241 0.21102 0.12765 0.0
C171 C 0.09891 0.32135 0.06747 0.0
C172 C 0.02099 0.28796 0.11909 0.0
H173 H 0.97966 0.24468 0.25354 0.0
C174 C -0.0006 0.28784 0.07765 0.0
C175 C 0.01375 0.27133 0.18173 0.0
C176 C 0.03627 0.27106 0.22829 0.0
C177 C 0.97083 0.27278 0.09952 0.0
C178 C 0.96384 0.25755 0.16438 0.0
C179 C 0.98519 0.25628 0.2036 0.0
C180 C 0.93571 0.24704 0.1982 0.0
C181 C 0.94857 0.27487 0.05608 0.0
C182 C 0.93362 0.26209 0.25651 0.0
C183 C 0.90736 0.25349 0.2884 0.0
C184 C 0.88266 0.22949 0.26297 0.0
C185 C 0.8847 0.21413 0.20497 0.0
C186 C 0.91113 0.22292 0.17257 0.0
H187 H 0.95771 0.28845 1.00811 0.0
H188 H 0.93203 0.25327 1.03859 0.0
H189 H 0.93794 0.2838 0.08933 0.0
H190 H 0.95235 0.2808 0.27684 0.0
H191 H 0.90644 0.2657 0.33309 0.0
H192 H 0.79308 0.1182 0.3896 0.0
H193 H 0.77815 0.0679 0.41022 0.0
H194 H 0.69249 0.04977 0.45092 0.0
H195 H 0.70702 0.09956 0.43085 0.0
H196 H 0.75246 0.03744 0.54095 0.0
H197 H 0.68271 0.98706 0.307 0.0
H198 H 0.70966 0.02434 0.30939 0.0
H199 H 0.6758 0.0123 0.35179 0.0
C200 C 0.77101 0.10341 0.40218 0.0
C201 C 0.75127 0.11293 0.40879 0.0
C202 C 0.76254 0.07473 0.41391 0.0
C203 C 0.73414 0.05509 0.43099 0.0
C204 C 0.71439 0.06448 0.43648 0.0
H205 H 0.6377 0.91207 0.67627 0.0
H206 H 0.66837 0.95811 0.62045 0.0
C207 C 0.72284 0.09306 0.4256 0.0
C208 C 0.72512 0.02517 0.44884 0.0
H209 H 0.67396 0.95692 0.40962 0.0
C210 C 0.7358 0.01975 0.51132 0.0
C211 C 0.70362 0.00211 0.4097 0.0
C212 C 0.69245 0.00667 0.34031 0.0
C213 C 0.72391 0.99205 0.5387 0.0
C214 C 0.70073 0.96934 0.50278 0.0
C215 C 0.69159 0.97442 0.43734 0.0
C216 C 0.68336 0.94124 0.53706 0.0
C217 C 0.73536 0.98743 0.60755 0.0
C218 C 0.68132 0.9164 0.50792 0.0
C219 C 0.66381 0.8899 0.54013 0.0
C220 C 0.64782 0.888 0.601 0.0
C221 C 0.64983 0.91291 0.62949 0.0
C222 C 0.66746 0.93925 0.59792 0.0
H223 H 0.7576 0.00464 0.61735 0.0
H224 H 0.72204 0.98743 0.65251 0.0
H225 H 0.73466 0.9666 0.60719 0.0
H226 H 0.69325 0.91754 0.46047 0.0
H227 H 0.6625 0.87095 0.51704 0.0
H228 H 0.66961 0.79743 0.72345 0.0
H229 H 0.70453 0.78189 0.74372 0.0
H230 H 0.63644 0.69742 0.79342 0.0
H231 H 0.60168 0.71248 0.77351 0.0
H232 H 0.71125 0.7578 0.87434 0.0
H233 H 0.68538 0.68393 0.64614 0.0
H234 H 0.67573 0.71136 0.64854 0.0
H235 H 0.65435 0.67819 0.69437 0.0
C236 C 0.6621 0.77549 0.73802 0.0
C237 C 0.63284 0.75623 0.74699 0.0
C238 C 0.68206 0.76668 0.74959 0.0
C239 C 0.67299 0.73841 0.76898 0.0
C240 C 0.64384 0.71918 0.77719 0.0
H241 H 0.72785 0.64708 1.01669 0.0
H242 H 0.71109 0.67738 0.9651 0.0
C243 C 0.624 0.72795 0.76634 0.0
C244 C 0.69361 0.72892 0.78545 0.0
H245 H 0.70805 0.6759 0.74703 0.0
C246 C 0.71108 0.74032 0.84564 0.0
C247 C 0.69363 0.70639 0.74737 0.0
C248 C 0.67648 0.69443 0.68005 0.0
C249 C 0.72698 0.72834 0.87182 0.0
C250 C 0.72502 0.70418 0.83729 0.0
C251 C 0.70925 0.69419 0.774 0.0
C252 C 0.73676 0.68732 0.8696 0.0
C253 C 0.74508 0.74113 0.93741 0.0
C254 C 0.75633 0.68235 0.83233 0.0
C255 C 0.76587 0.66488 0.8617 0.0
C256 C 0.75569 0.65192 0.92832 0.0
C257 C 0.73613 0.65693 0.9654 0.0
C258 C 0.72672 0.67442 0.93625 0.0
H259 H 0.75167 0.764 0.94322 0.0
H260 H 0.73254 0.72981 0.98535 0.0
H261 H 0.76443 0.73905 0.93577 0.0
H262 H 0.76408 0.69186 0.78046 0.0
H263 H 0.78088 0.66124 0.83197 0.0
H264 H 0.0729 0.73754 0.35815 0.0
H265 H 0.02725 0.71594 0.29623 0.0
H266 H 0.07048 0.75118 0.09714 0.0
H267 H 0.11648 0.77409 0.16013 0.0
H268 H 0.02079 0.75205 0.10532 0.0
H269 H 0.00141 0.64524 0.17876 0.0
H270 H 0.00705 0.66663 0.25665 0.0
H271 H 0.03535 0.67698 0.19265 0.0
C272 C 0.07264 0.74097 0.30131 0.0
C273 C 0.0981 0.75717 0.26362 0.0
C274 C 0.04658 0.72847 0.2659 0.0
C275 C 0.04551 0.73118 0.19172 0.0
C276 C 0.07085 0.74858 0.15432 0.0
H277 H 0.88715 0.60271 0.9988 0.0
H278 H 0.93797 0.63437 1.02043 0.0
C279 C 0.09705 0.76164 0.1902 0.0
C280 C 0.01795 0.71474 0.15378 0.0
H281 H 0.96073 0.6478 0.14022 0.0
C282 C 0.00774 0.72919 0.112 0.0
C283 C 0.00127 0.68481 0.16079 0.0
C284 C 0.01199 0.6675 0.19896 0.0
C285 C 0.9807 0.71462 0.07983 0.0
C286 C 0.96309 0.68499 0.09183 0.0
C287 C 0.97392 0.67052 0.13129 0.0
C288 C 0.93309 0.66838 0.06659 0.0
C289 C 0.97155 0.73116 1.03293 0.0
C290 C 0.91335 0.67718 0.08301 0.0
C291 C 0.88438 0.65941 0.06833 0.0
C292 C 0.87462 0.63221 0.03936 0.0
C293 C 0.89429 0.62365 1.02125 0.0
C294 C 0.92328 0.64172 1.03378 0.0
H295 H 0.99022 0.74961 1.00793 0.0
H296 H 0.95688 0.7176 0.99008 0.0
H297 H 0.96051 0.73968 0.066 0.0
H298 H 0.92004 0.69713 0.11043 0.0
H299 H 0.86944 0.6662 0.08371 0.0
H300 H 0.34774 0.0794 0.66377 0.0
H301 H 0.31692 0.03333 0.60769 0.0
H302 H 0.28397 0.07228 0.46536 0.0
H303 H 0.31497 0.11889 0.52197 0.0
H304 H 0.25294 0.00519 0.59041 0.0
H305 H 0.31553 0.02784 0.33883 0.0
H306 H 0.3316 0.04759 0.41961 0.0
H307 H 0.30622 0.05331 0.37236 0.0
C308 C 0.33394 0.07822 0.62058 0.0
C309 C 0.33374 0.10267 0.59705 0.0
C310 C 0.31629 0.05188 0.5888 0.0
C311 C 0.29824 0.04948 0.53252 0.0
C312 C 0.29786 0.07381 0.5087 0.0
H313 H 0.18689 0.87138 0.38566 0.0
H314 H 0.20123 0.92158 0.40654 0.0
C315 C 0.3155 0.10031 0.54097 0.0
C316 C 0.28046 0.02127 0.499 0.0
H317 H 0.28097 0.98024 0.3614 0.0
C318 C 0.25844 -0.00023 0.5394 0.0
C319 C 0.28794 0.01442 0.43272 0.0
C320 C 0.31163 0.03686 0.38798 0.0
C321 C 0.2448 0.97122 0.51711 0.0
C322 C 0.25346 0.96414 0.45285 0.0
C323 C 0.27432 0.98586 0.41043 0.0
C324 C 0.24459 0.93424 0.43513 0.0
C325 C 0.2227 0.94854 0.56476 0.0
C326 C 0.26433 0.92499 0.44338 0.0
C327 C 0.25626 0.89654 0.432 0.0
C328 C 0.22825 0.87666 0.41159 0.0
C329 C 0.20861 0.88612 0.40144 0.0
C330 C 0.21672 0.91474 0.41342 0.0
H331 H 0.21963 0.95749 0.61516 0.0
H332 H 0.20203 0.93733 0.53622 0.0
H333 H 0.229 0.93251 0.57808 0.0
H334 H 0.28592 0.93975 0.46021 0.0
H335 H 0.27205 0.89015 0.43972 0.0
H336 H 0.16874 0.45111 0.82963 0.0
H337 H 0.17108 0.44507 0.70106 0.0
H338 H 0.21143 0.39501 0.73807 0.0
H339 H 0.20889 0.40091 0.86746 0.0
H340 H 0.21746 0.46161 0.61556 0.0
H341 H 0.14751 0.34423 0.60192 0.0
H342 H 0.14959 0.36465 0.68015 0.0
H343 H 0.17696 0.35602 0.66231 0.0
C344 C 0.17793 0.43862 0.81043 0.0
C345 C 0.18826 0.42611 0.85864 0.0
C346 C 0.17931 0.43523 0.73684 0.0
C347 C 0.19103 0.41923 0.70955 0.0
C348 C 0.20165 0.40688 0.75767 0.0
H349 H 0.21989 0.3781 0.2813 0.0
H350 H 0.21762 0.38422 0.40984 0.0
C351 C 0.2002 0.41024 0.83163 0.0
C352 C 0.19265 0.41624 0.63077 0.0
H353 H 0.17104 0.36746 0.4953 0.0
C354 C 0.20723 0.44101 0.58925 0.0
C355 C 0.17927 0.38939 0.59625 0.0
C356 C 0.16222 0.36204 0.63722 0.0
C357 C 0.20921 0.43968 0.51461 0.0
C358 C 0.19583 0.41283 0.4801 0.0
C359 C 0.18126 0.38805 0.52162 0.0
C360 C 0.19743 0.40983 0.40133 0.0
C361 C 0.22625 0.46702 0.47359 0.0
C362 C 0.18664 0.42202 0.35323 0.0
C363 C 0.18801 0.41859 0.27927 0.0
C364 C 0.20009 0.40284 0.25227 0.0
C365 C 0.21059 0.39049 0.30048 0.0
C366 C 0.20927 0.39393 0.37406 0.0
H367 H 0.24089 0.48486 0.50889 0.0
H368 H 0.23895 0.46442 0.43084 0.0
H369 H 0.21149 0.47296 0.44824 0.0
H370 H 0.17677 0.43381 0.37285 0.0
H371 H 0.17913 0.42772 0.24346 0.0
H372 H 0.71238 0.17447 0.15875 0.0
H373 H 0.72071 0.17663 1.03025 0.0
H374 H 0.81098 0.21542 0.0677 0.0
H375 H 0.80258 0.21306 0.19707 0.0
H376 H 0.7514 0.22304 0.94523 0.0
H377 H 0.79626 0.15091 0.93122 0.0
H378 H 0.77819 0.15342 1.00938 0.0
H379 H 0.81443 0.18028 0.99188 0.0
C380 C 0.73401 0.18328 0.13967 0.0
C381 C 0.75683 0.19324 0.18798 0.0
C382 C 0.73875 0.18455 0.06612 0.0
C383 C 0.76641 0.19579 0.039 0.0
C384 C 0.78936 0.20602 0.08721 0.0
H385 H 0.83606 0.22331 0.61124 0.0
H386 H 0.82772 0.22111 0.73971 0.0
C387 C 0.78459 0.20468 0.16113 0.0
C388 C 0.77098 0.19733 0.96027 0.0
H389 H 0.79704 0.17467 0.8247 0.0
C390 C 0.76131 0.21239 0.91886 0.0
C391 C 0.78385 0.1834 0.9257 0.0
C392 C 0.79357 0.16586 0.9666 0.0
C393 C 0.76459 0.21431 0.84423 0.0
C394 C 0.77744 0.20036 0.80966 0.0
C395 C 0.78712 0.18531 0.85108 0.0
C396 C 0.78201 0.20189 0.73094 0.0
C397 C 0.7549 0.23186 0.80331 0.0
C398 C 0.75906 0.19162 0.68272 0.0
C399 C 0.76384 0.19295 0.6088 0.0
C400 C 0.7916 0.20447 0.58197 0.0
C401 C 0.81441 0.21443 0.6303 0.0
C402 C 0.80968 0.21316 0.70384 0.0
H403 H 0.75217 0.24679 0.83869 0.0
H404 H 0.77032 0.24433 0.76063 0.0
H405 H 0.73406 0.21746 0.77788 0.0
H406 H 0.73744 0.18219 0.70224 0.0
H407 H 0.74584 0.1845 0.57287 0.0
H408 H 0.58525 0.80716 0.53335 0.0
H409 H 0.59084 0.81526 0.40372 0.0
H410 H 0.5359 0.72529 0.36727 0.0
H411 H 0.53035 0.71722 0.49584 0.0
H412 H 0.61162 0.79215 0.30001 0.0
H413 H 0.49921 0.7603 0.24442 0.0
H414 H 0.51401 0.76814 0.33329 0.0
H415 H 0.50333 0.73411 0.29304 0.0
C416 C 0.5746 0.78917 0.49757 0.0
C417 C 0.5575 0.76157 0.52472 0.0
C418 C 0.57766 0.79379 0.42355 0.0
C419 C 0.56341 0.77092 0.37556 0.0
C420 C 0.54661 0.74336 0.40294 0.0
H421 H 0.5546 0.75132 0.91018 0.0
H422 H 0.54895 0.74307 0.03978 0.0
C423 C 0.5436 0.73876 0.47657 0.0
C424 C 0.56639 0.77555 0.2969 0.0
H425 H 0.52831 0.76606 0.14378 0.0
C426 C 0.59344 0.78663 0.26592 0.0
C427 C 0.54263 0.76816 0.2522 0.0
C428 C 0.51319 0.75726 0.28235 0.0
C429 C 0.59731 0.79003 0.19159 0.0
C430 C 0.57355 0.78265 0.14689 0.0
C431 C 0.54649 0.77156 0.17786 0.0
C432 C 0.57655 0.78734 0.06825 0.0
C433 C 0.62675 0.80093 0.16147 0.0
C434 C 0.59345 0.81492 0.04105 0.0
C435 C 0.5965 0.8196 0.96747 0.0
C436 C 0.58251 0.79686 0.91915 0.0
C437 C 0.5653 0.76925 0.94609 0.0
C438 C 0.56222 0.76454 1.02009 0.0
H439 H 0.64067 0.79776 0.1993 0.0
H440 H 0.62594 0.79015 0.11037 0.0
H441 H 0.63667 0.82411 0.15113 0.0
H442 H 0.60422 0.83295 0.07684 0.0
H443 H 0.60983 0.84116 0.94836 0.0
H444 H 0.77277 0.58618 0.8412 0.0
H445 H 0.77212 0.5927 0.71147 0.0
H446 H 0.81839 0.54804 0.67985 0.0
H447 H 0.81934 0.54184 0.80876 0.0
H448 H 0.8397 0.5987 0.5995 0.0
H449 H 0.72289 0.52874 0.56658 0.0
H450 H 0.73381 0.5566 0.632 0.0
H451 H 0.74155 0.52842 0.64596 0.0
C452 C 0.78314 0.57818 0.80651 0.0
C453 C 0.79633 0.56376 0.83503 0.0
C454 C 0.78246 0.58158 0.7324 0.0
C455 C 0.79496 0.57058 0.6858 0.0
C456 C 0.80855 0.55664 0.7146 0.0
H457 H 0.7715 0.54191 0.22485 0.0
H458 H 0.77366 0.53648 0.3546 0.0
C459 C 0.80907 0.55311 0.78831 0.0
C460 C 0.79409 0.57348 0.60699 0.0
H461 H 0.74907 0.55294 0.46371 0.0
C462 C 0.81988 0.58875 0.56982 0.0
C463 C 0.76826 0.56006 0.56813 0.0
C464 C 0.74001 0.54231 0.60486 0.0
C465 C 0.82055 0.59129 0.4951 0.0
C466 C 0.79468 0.57848 0.45632 0.0
C467 C 0.76888 0.56286 0.49339 0.0
C468 C 0.79395 0.58161 0.37752 0.0
C469 C 0.84902 0.60731 0.45825 0.0
C470 C 0.80454 0.60871 0.34725 0.0
C471 C 0.80342 0.61182 0.27351 0.0
C472 C 0.79149 0.5879 0.22828 0.0
C473 C 0.78094 0.56073 0.25837 0.0
C474 C 0.78206 0.55761 0.33244 0.0
H475 H 0.86649 0.60885 0.49228 0.0
H476 H 0.84893 0.59691 0.40708 0.0
H477 H 0.85369 0.62928 0.44651 0.0
H478 H 0.81331 0.62749 0.38084 0.0
H479 H 0.81159 0.63303 0.25198 0.0
H480 H 0.14518 0.76674 0.61466 0.0
H481 H 0.15373 0.76922 0.74311 0.0
H482 H 0.24394 0.80808 0.70494 0.0
H483 H 0.23541 0.80616 0.57564 0.0
H484 H 0.17912 0.74496 0.82387 0.0
H485 H 0.23893 0.86289 0.84761 0.0
H486 H 0.21857 0.84474 0.76919 0.0
H487 H 0.253 0.84845 0.78361 0.0
C488 C 0.16687 0.77586 0.63357 0.0
C489 C 0.18964 0.78609 0.58508 0.0
C490 C 0.17171 0.7772 0.70707 0.0
C491 C 0.19947 0.78906 0.73397 0.0
C492 C 0.22234 0.79918 0.68559 0.0
H493 H 0.26878 0.81734 0.16261 0.0
H494 H 0.26061 0.81466 1.03398 0.0
C495 C 0.21747 0.79778 0.61171 0.0
C496 C 0.20412 0.79049 0.81261 0.0
H497 H 0.23521 0.83675 0.95177 0.0
C498 C 0.19136 0.76503 0.85188 0.0
C499 C 0.22 0.81668 0.84925 0.0
C500 C 0.23324 0.8448 0.81054 0.0
C501 C 0.19446 0.76499 0.92642 0.0
C502 C 0.21026 0.79119 0.96316 0.0
C503 C 0.22303 0.81665 0.92381 0.0
C504 C 0.2147 0.79269 0.04197 0.0
C505 C 0.18138 0.7368 0.96481 0.0
C506 C 0.19162 0.78145 0.08988 0.0
C507 C 0.19629 0.78285 0.16384 0.0
C508 C 0.2241 0.79585 0.19115 0.0
C509 C 0.24708 0.80726 0.14319 0.0
C510 C 0.24245 0.8058 0.06956 0.0
H511 H 0.17665 0.71895 0.92775 0.0
H512 H 0.19566 0.73712 1.00761 0.0
H513 H 0.16104 0.73249 0.98968 0.0
H514 H 0.16999 0.77162 0.07015 0.0
H515 H 0.17821 0.77335 0.19939 0.0
H516 H 0.44647 0.2735 0.49454 0.0
H517 H 0.44045 0.26499 0.36603 0.0
H518 H 0.39063 0.17454 0.40347 0.0
H519 H 0.39648 0.18312 0.53282 0.0
H520 H 0.45708 0.23528 0.28048 0.0
H521 H 0.33972 0.1873 0.26765 0.0
H522 H 0.36008 0.20568 0.34582 0.0
H523 H 0.35163 0.16971 0.3278 0.0
C524 C 0.43405 0.25178 0.47545 0.0
C525 C 0.42159 0.22897 0.52375 0.0
C526 C 0.43067 0.24695 0.40189 0.0
C527 C 0.41473 0.21917 0.37475 0.0
C528 C 0.40245 0.19623 0.42297 0.0
H529 H 0.37396 0.14921 0.94629 0.0
H530 H 0.38003 0.15753 0.07486 0.0
C531 C 0.40579 0.2011 0.49689 0.0
C532 C 0.41173 0.21451 0.296 0.0
H533 H 0.36297 0.18713 0.16083 0.0
C534 C 0.43649 0.22482 0.25431 0.0
C535 C 0.38489 0.20091 0.26165 0.0
C536 C 0.35755 0.19047 0.30281 0.0
C537 C 0.43515 0.22152 0.17966 0.0
C538 C 0.40832 0.20794 0.14533 0.0
C539 C 0.38356 0.19759 0.18701 0.0
C540 C 0.40533 0.20339 0.06656 0.0
C541 C 0.46248 0.23197 0.13843 0.0
C542 C 0.41735 0.22642 1.01859 0.0
C543 C 0.41394 0.22167 0.94462 0.0
C544 C 0.39838 0.19383 0.91749 0.0
C545 C 0.3862 0.17092 0.96558 0.0
C546 C 0.38961 0.17564 0.03917 0.0
H547 H 0.48036 0.23527 0.17357 0.0
H548 H 0.45995 0.21669 0.09561 0.0
H549 H 0.4683 0.25266 0.11315 0.0
H550 H 0.42899 0.24809 1.03833 0.0
H551 H 0.42295 0.23972 0.90892 0.0
H552 H 0.13694 0.49037 0.12489 0.0
H553 H 0.13607 0.53228 0.17121 0.0
H554 H 0.21044 0.55415 0.29847 0.0
H555 H 0.21167 0.51259 0.25157 0.0
H556 H 0.13402 0.55166 0.31121 0.0
H557 H 0.23501 0.62442 0.17171 0.0
H558 H 0.21469 0.58679 0.15247 0.0
H559 H 0.23725 0.59936 0.22987 0.0
C560 C 0.15289 0.50397 0.16338 0.0
C561 C 0.17456 0.4985 0.18415 0.0
C562 C 0.15235 0.52785 0.18978 0.0
C563 C 0.1735 0.54657 0.23717 0.0
C564 C 0.19426 0.54026 0.26083 0.0
H565 H 0.22356 0.7107 0.42058 0.0
H566 H 0.21619 0.66367 0.39139 0.0
C567 C 0.19486 0.51647 0.23429 0.0
C568 C 0.17479 0.57346 0.259 0.0
H569 H 0.21703 0.64572 0.25082 0.0
C570 C 0.15209 0.57226 0.29791 0.0
C571 C 0.19831 0.60026 0.24093 0.0
C572 C 0.22259 0.60292 0.19588 0.0
C573 C 0.1527 0.59725 0.321 0.0
C574 C 0.17645 0.624 0.30386 0.0
C575 C 0.19894 0.62514 0.26427 0.0
C576 C 0.17879 0.65125 0.32675 0.0
C577 C 0.12829 0.59488 0.36484 0.0
C578 C 0.16001 0.65979 0.30049 0.0
C579 C 0.16415 0.6868 0.31699 0.0
C580 C 0.18729 0.70579 0.35971 0.0
C581 C 0.20558 0.69677 0.38732 0.0
C582 C 0.20141 0.66984 0.3708 0.0
H583 H 0.11485 0.57309 0.3866 0.0
H584 H 0.13626 0.61032 0.40981 0.0
H585 H 0.11469 0.59992 0.33076 0.0
H586 H 0.1427 0.64594 0.26537 0.0
H587 H 0.1497 0.69304 0.29459 0.0
H588 H 0.64124 0.1432 0.45268 0.0
H589 H 0.59863 0.14274 0.49827 0.0
H590 H 0.65147 0.21726 0.62536 0.0
H591 H 0.69411 0.21808 0.57919 0.0
H592 H 0.5773 0.14088 0.63784 0.0
H593 H 0.60596 0.24204 0.49876 0.0
H594 H 0.62314 0.22162 0.47957 0.0
H595 H 0.63317 0.24417 0.55712 0.0
C596 C 0.64371 0.15928 0.49095 0.0
C597 C 0.67091 0.18086 0.51193 0.0
C598 C 0.61939 0.15898 0.51693 0.0
C599 C 0.62195 0.18028 0.56409 0.0
C600 C 0.64908 0.20098 0.58787 0.0
H601 H 0.50793 0.23039 0.74739 0.0
H602 H 0.54771 0.22339 0.71733 0.0
C603 C 0.67338 0.20134 0.56177 0.0
C604 C 0.59642 0.18168 0.5858 0.0
H605 H 0.56662 0.22409 0.57744 0.0
C606 C 0.57486 0.159 0.62452 0.0
C607 C 0.59324 0.20526 0.56776 0.0
C608 C 0.61495 0.22955 0.52295 0.0
C609 C 0.55052 0.15966 0.64742 0.0
C610 C 0.5476 0.18346 0.63024 0.0
C611 C 0.56902 0.20595 0.59089 0.0
C612 C 0.5227 0.18582 0.65292 0.0
C613 C 0.52844 0.13527 0.69114 0.0
C614 C 0.49534 0.16688 0.62691 0.0
C615 C 0.47241 0.17081 0.64393 0.0
C616 C 0.47651 0.19389 0.68693 0.0
C617 C 0.5039 0.21243 0.71398 0.0
C618 C 0.52673 0.20848 0.69694 0.0
H619 H 0.5368 0.12189 0.71325 0.0
H620 H 0.52089 0.14325 0.73585 0.0
H621 H 0.50987 0.12157 0.65683 0.0
H622 H 0.49187 0.14954 0.5918 0.0
H623 H 0.45166 0.15617 0.62196 0.0
H624 H 0.27437 0.51169 0.08438 0.0
H625 H 0.3209 0.55147 0.05271 0.0
H626 H 0.3374 0.49582 0.92203 0.0
H627 H 0.29069 0.45553 0.95358 0.0
H628 H 0.38496 0.53668 1.01235 0.0
H629 H 0.33631 0.58648 0.84876 0.0
H630 H 0.32261 0.57728 0.93795 0.0
H631 H 0.31688 0.54962 0.87582 0.0
C632 C 0.28785 0.50771 0.04919 0.0
C633 C 0.27857 0.48037 1.02091 0.0
C634 C 0.31446 0.53055 1.03112 0.0
C635 C 0.33234 0.52662 0.98425 0.0
C636 C 0.32378 0.49924 0.95808 0.0
H637 H 0.49559 0.64641 0.79266 0.0
H638 H 0.45416 0.60315 0.83791 0.0
C639 C 0.29707 0.47628 0.97614 0.0
C640 C 0.35939 0.55146 0.96054 0.0
H641 H 0.38584 0.61417 0.87015 0.0
C642 C 0.38526 0.55359 0.98092 0.0
C643 C 0.35958 0.57338 0.91944 0.0
C644 C 0.33239 0.57159 0.89356 0.0
C645 C 0.41143 0.57761 0.96293 0.0
C646 C 0.41158 0.59972 0.92267 0.0
C647 C 0.38566 0.5973 0.90153 0.0
C648 C 0.43825 0.62562 0.90126 0.0
C649 C 0.43864 0.57948 0.98871 0.0
C650 C 0.44302 0.65259 0.92173 0.0
C651 C 0.4665 0.67727 0.89557 0.0
C652 C 0.48555 0.67537 0.84823 0.0
C653 C 0.48128 0.64842 0.82943 0.0
C654 C 0.45773 0.62371 0.85552 0.0
H655 H 0.43475 0.56457 1.03346 0.0
H656 H 0.44842 0.57382 0.94428 0.0
H657 H 0.45412 0.60145 1.00645 0.0
H658 H 0.42817 0.65452 0.95674 0.0
H659 H 0.46931 0.6978 0.91083 0.0
H660 H 0.75367 0.27742 0.38662 0.0
H661 H 0.76287 0.32469 0.35349 0.0
H662 H 0.84648 0.34635 0.2787 0.0
H663 H 0.83721 0.29866 0.30999 0.0
H664 H 0.80304 0.37874 0.39218 0.0
H665 H 0.8118 0.36058 0.1035 0.0
H666 H 0.79921 0.33229 0.16818 0.0
H667 H 0.83665 0.35723 0.16001 0.0
C668 C 0.77412 0.2922 0.36348 0.0
C669 C 0.79457 0.28404 0.35017 0.0
C670 C 0.77936 0.3193 0.34475 0.0
C671 C 0.80516 0.33889 0.31253 0.0
C672 C 0.82616 0.33134 0.30203 0.0
H673 H 0.83751 0.51284 0.21946 0.0
H674 H 0.84277 0.47399 0.27073 0.0
C675 C 0.82085 0.30409 0.32022 0.0
C676 C 0.80921 0.36659 0.28719 0.0
H677 H 0.8169 0.40473 0.136 0.0
C678 C 0.80633 0.38461 0.33627 0.0
C679 C 0.81327 0.37403 0.21409 0.0
C680 C 0.81518 0.35496 0.15817 0.0
C681 C 0.80653 0.40943 0.31395 0.0
C682 C 0.81029 0.41667 0.24076 0.0
C683 C 0.81415 0.39917 0.19213 0.0
C684 C 0.80742 0.44058 0.21199 0.0
C685 C 0.80135 0.42691 0.3683 0.0
C686 C 0.78614 0.43475 0.16143 0.0
C687 C 0.78338 0.45677 0.13173 0.0
C688 C 0.80178 0.48513 0.1521 0.0
C689 C 0.82297 0.4911 0.20323 0.0
C690 C 0.82588 0.46895 0.23272 0.0
H691 H 0.79308 0.41529 0.41938 0.0
H692 H 0.82167 0.44675 0.3796 0.0
H693 H 0.78595 0.43298 0.34765 0.0
H694 H 0.77162 0.41305 0.14475 0.0
H695 H 0.76682 0.45155 0.0925 0.0
H696 H 0.28858 0.77382 0.57966 0.0
H697 H 0.3319 0.7762 0.62593 0.0
H698 H 0.38304 0.85272 0.50457 0.0
H699 H 0.33973 0.85063 0.45886 0.0
H700 H 0.3718 0.77356 0.53824 0.0
H701 H 0.42224 0.87282 0.70013 0.0
H702 H 0.38523 0.85518 0.6741 0.0
H703 H 0.41251 0.87674 0.61106 0.0
C704 C 0.30907 0.79143 0.56393 0.0
C705 C 0.31089 0.81202 0.51567 0.0
C706 C 0.33377 0.79276 0.59032 0.0
C707 C 0.36067 0.81477 0.56916 0.0
C708 C 0.36251 0.83588 0.52266 0.0
H709 H 0.53007 0.83563 0.62028 0.0
H710 H 0.49017 0.84266 0.58884 0.0
C711 C 0.33778 0.83458 0.49631 0.0
C712 C 0.38654 0.81397 0.59042 0.0
H713 H 0.4497 0.85041 0.67981 0.0
C714 C 0.38877 0.79031 0.56945 0.0
C715 C 0.40877 0.83602 0.63043 0.0
C716 C 0.40709 0.86155 0.65585 0.0
C717 C 0.41261 0.78805 0.58741 0.0
C718 C 0.43463 0.80983 0.62837 0.0
C719 C 0.4327 0.83375 0.6485 0.0
C720 C 0.45931 0.80744 0.65232 0.0
C721 C 0.4142 0.76246 0.56184 0.0
C722 C 0.45522 0.78582 0.69986 0.0
C723 C 0.47783 0.7817 0.71786 0.0
C724 C 0.50508 0.79921 0.6888 0.0
C725 C 0.50937 0.82168 0.64344 0.0
C726 C 0.48663 0.82578 0.62545 0.0
H727 H 0.39917 0.75133 0.51726 0.0
H728 H 0.43608 0.76876 0.5439 0.0
H729 H 0.40859 0.74715 0.60645 0.0
H730 H 0.43433 0.77172 0.72191 0.0
H731 H 0.47372 0.76437 0.75351 0.0
H732 H 0.70236 0.48131 0.08518 0.0
H733 H 0.65485 0.44215 0.058 0.0
H734 H 0.64205 0.49543 0.91007 0.0
H735 H 0.68983 0.53512 0.93704 0.0
H736 H 0.59272 0.45713 1.0054 0.0
H737 H 0.64085 0.40278 0.85693 0.0
H738 H 0.65437 0.41433 0.94557 0.0
H739 H 0.66045 0.44029 0.87826 0.0
C740 C 0.68944 0.48494 0.04736 0.0
C741 C 0.70009 0.51131 1.01258 0.0
C742 C 0.66226 0.46248 1.03197 0.0
C743 C 0.6452 0.46584 0.98139 0.0
C744 C 0.65503 0.49248 0.94917 0.0
H745 H 0.48284 0.34483 0.78886 0.0
H746 H 0.52389 0.3884 0.83444 0.0
C747 C 0.68232 0.51509 0.96462 0.0
C748 C 0.61802 0.44087 0.9589 0.0
H749 H 0.59118 0.37646 0.87586 0.0
C750 C 0.59226 0.43951 0.97676 0.0
C751 C 0.61765 0.41802 0.92153 0.0
C752 C 0.64477 0.41888 0.8988 0.0
C753 C 0.56599 0.41538 0.95975 0.0
C754 C 0.56566 0.39238 0.92305 0.0
C755 C 0.59149 0.39402 0.90453 0.0
C756 C 0.53892 0.36639 0.90222 0.0
C757 C 0.53887 0.41439 0.98275 0.0
C758 C 0.53374 0.33958 0.92517 0.0
C759 C 0.51049 0.31472 0.89873 0.0
C760 C 0.4921 0.31627 0.8487 0.0
C761 C 0.49666 0.34309 0.82769 0.0
C762 C 0.51999 0.36798 0.854 0.0
H763 H 0.54275 0.42998 1.02597 0.0
H764 H 0.52963 0.41972 0.93658 0.0
H765 H 0.52296 0.39277 1.00157 0.0
H766 H 0.54816 0.33789 0.96213 0.0
H767 H 0.50742 0.2943 0.9158 0.0
loop_
_geom_bond_atom_site_label_1
_geom_bond_atom_site_label_2
_geom_bond_distance
_geom_bond_site_symmetry_2
_ccdc_geom_bond_type
Tb0 O3 2.453 . S
Tb0 O4 2.596 . S
Tb0 O5 2.374 . S
Tb0 O13 2.343 1_554 S
Tb0 O15 2.353 . S
Tb0 O17 2.427 1_554 S
Tb0 O18 2.513 1_554 S
C1 O5 1.251 . S
C1 O7 1.263 . S
Tb2 O4 2.343 1_556 S
Tb2 O7 2.353 1_556 S
Tb2 O10 2.427 1_556 S
Tb2 O11 2.513 1_556 S
Tb2 O12 2.453 . S
Tb2 O13 2.596 . S
Tb2 O14 2.374 . S
O3 Tb0 2.453 . S
O3 C19 1.245 . S
O4 Tb0 2.596 . S
O4 Tb2 2.343 1_554 S
O4 C19 1.259 . S
O5 Tb0 2.374 . S
O5 C1 1.251 . S
C6 O10 1.275 . S
C6 O11 1.246 . S
O7 C1 1.263 . S
O7 Tb2 2.353 1_554 S
C8 O12 1.245 . S
C8 O13 1.259 . S
C9 O14 1.250 . S
C9 O15 1.263 1_556 S
O10 Tb2 2.427 1_554 S
O10 C6 1.275 . S
O11 Tb2 2.513 1_554 S
O11 C6 1.246 . S
O12 Tb2 2.453 . S
O12 C8 1.245 . S
O13 Tb0 2.343 1_556 S
O13 Tb2 2.596 . S
O13 C8 1.259 . S
O14 Tb2 2.374 . S
O14 C9 1.250 . S
O15 Tb0 2.353 . S
O15 C9 1.263 1_554 S
C16 O17 1.275 . S
C16 O18 1.246 . S
O17 Tb0 2.427 1_556 S
O17 C16 1.275 . S
O18 Tb0 2.513 1_556 S
O18 C16 1.246 . S
C19 O3 1.245 . S
C19 O4 1.259 . S
Tb20 O23 2.453 . S
Tb20 O24 2.596 . S
Tb20 O25 2.374 . S
Tb20 O33 2.343 . S
Tb20 O35 2.353 . S
Tb20 O37 2.427 . S
Tb20 O38 2.513 . S
C21 O25 1.251 . S
C21 O27 1.263 . S
Tb22 O24 2.343 . S
Tb22 O27 2.353 . S
Tb22 O30 2.427 . S
Tb22 O31 2.513 . S
Tb22 O32 2.453 . S
Tb22 O33 2.596 . S
Tb22 O34 2.374 . S
O23 Tb20 2.453 . S
O23 C39 1.245 . S
O24 Tb20 2.596 . S
O24 Tb22 2.343 . S
O24 C39 1.259 . S
O25 Tb20 2.374 . S
O25 C21 1.251 . S
C26 O30 1.275 . S
C26 O31 1.246 . S
O27 C21 1.263 . S
O27 Tb22 2.353 . S
C28 O32 1.245 . S
C28 O33 1.259 . S
C29 O34 1.250 . S
C29 O35 1.263 . S
O30 Tb22 2.427 . S
O30 C26 1.275 . S
O31 Tb22 2.513 . S
O31 C26 1.246 . S
O32 Tb22 2.453 . S
O32 C28 1.245 . S
O33 Tb20 2.343 . S
O33 Tb22 2.596 . S
O33 C28 1.259 . S
O34 Tb22 2.374 . S
O34 C29 1.250 . S
O35 Tb20 2.353 . S
O35 C29 1.263 . S
C36 O37 1.275 . S
C36 O38 1.246 . S
O37 Tb20 2.427 . S
O37 C36 1.275 . S
O38 Tb20 2.513 . S
O38 C36 1.246 . S
C39 O23 1.245 . S
C39 O24 1.259 . S
Tb40 O43 2.453 . S
Tb40 O44 2.596 . S
Tb40 O45 2.374 . S
Tb40 O53 2.343 . S
Tb40 O55 2.353 . S
Tb40 O57 2.427 . S
Tb40 O58 2.513 . S
C41 O45 1.251 . S
C41 O47 1.263 . S
Tb42 O44 2.343 . S
Tb42 O47 2.353 . S
Tb42 O50 2.427 . S
Tb42 O51 2.513 . S
Tb42 O52 2.453 . S
Tb42 O53 2.596 . S
Tb42 O54 2.374 . S
O43 Tb40 2.453 . S
O43 C59 1.245 . S
O44 Tb40 2.596 . S
O44 Tb42 2.343 . S
O44 C59 1.259 . S
O45 Tb40 2.374 . S
O45 C41 1.251 . S
C46 O50 1.275 . S
C46 O51 1.246 . S
O47 C41 1.263 . S
O47 Tb42 2.353 . S
C48 O52 1.245 . S
C48 O53 1.259 . S
C49 O54 1.250 . S
C49 O55 1.263 . S
O50 Tb42 2.427 . S
O50 C46 1.275 . S
O51 Tb42 2.513 . S
O51 C46 1.246 . S
O52 Tb42 2.453 . S
O52 C48 1.245 . S
O53 Tb40 2.343 . S
O53 Tb42 2.596 . S
O53 C48 1.259 . S
O54 Tb42 2.374 . S
O54 C49 1.250 . S
O55 Tb40 2.353 . S
O55 C49 1.263 . S
C56 O57 1.275 . S
C56 O58 1.246 . S
O57 Tb40 2.427 . S
O57 C56 1.275 . S
O58 Tb40 2.513 . S
O58 C56 1.246 . S
C59 O43 1.245 . S
C59 O44 1.259 . S
Tb60 O63 2.453 . S
Tb60 O64 2.596 . S
Tb60 O65 2.374 . S
Tb60 O73 2.343 1_554 S
Tb60 O75 2.353 . S
Tb60 O77 2.427 1_554 S
Tb60 O78 2.513 1_554 S
C61 O65 1.251 . S
C61 O67 1.263 . S
Tb62 O64 2.343 1_556 S
Tb62 O67 2.353 1_556 S
Tb62 O70 2.427 1_556 S
Tb62 O71 2.513 1_556 S
Tb62 O72 2.453 . S
Tb62 O73 2.596 . S
Tb62 O74 2.374 . S
O63 Tb60 2.453 . S
O63 C79 1.245 . S
O64 Tb60 2.596 . S
O64 Tb62 2.343 1_554 S
O64 C79 1.259 . S
O65 Tb60 2.374 . S
O65 C61 1.251 . S
C66 O70 1.275 . S
C66 O71 1.246 . S
O67 C61 1.263 . S
O67 Tb62 2.353 1_554 S
C68 O72 1.245 . S
C68 O73 1.259 . S
C69 O74 1.250 . S
C69 O75 1.263 1_556 S
O70 Tb62 2.427 1_554 S
O70 C66 1.275 . S
O71 Tb62 2.513 1_554 S
O71 C66 1.246 . S
O72 Tb62 2.453 . S
O72 C68 1.245 . S
O73 Tb60 2.343 1_556 S
O73 Tb62 2.596 . S
O73 C68 1.259 . S
O74 Tb62 2.374 . S
O74 C69 1.250 . S
O75 Tb60 2.353 . S
O75 C69 1.263 1_554 S
C76 O77 1.275 . S
C76 O78 1.246 . S
O77 Tb60 2.427 1_556 S
O77 C76 1.275 . S
O78 Tb60 2.513 1_556 S
O78 C76 1.246 . S
C79 O63 1.245 . S
C79 O64 1.259 . S
Tb80 O83 2.453 . S
Tb80 O84 2.596 . S
Tb80 O85 2.374 . S
Tb80 O93 2.343 . S
Tb80 O95 2.353 . S
Tb80 O97 2.427 . S
Tb80 O98 2.513 . S
C81 O85 1.251 . S
C81 O87 1.263 . S
Tb82 O84 2.343 . S
Tb82 O87 2.353 . S
Tb82 O90 2.427 . S
Tb82 O91 2.513 . S
Tb82 O92 2.453 . S
Tb82 O93 2.596 . S
Tb82 O94 2.374 . S
O83 Tb80 2.453 . S
O83 C99 1.245 . S
O84 Tb80 2.596 . S
O84 Tb82 2.343 . S
O84 C99 1.259 . S
O85 Tb80 2.374 . S
O85 C81 1.251 . S
C86 O90 1.275 . S
C86 O91 1.246 . S
O87 C81 1.263 . S
O87 Tb82 2.353 . S
C88 O92 1.245 . S
C88 O93 1.259 . S
C89 O94 1.250 . S
C89 O95 1.263 . S
O90 Tb82 2.427 . S
O90 C86 1.275 . S
O91 Tb82 2.513 . S
O91 C86 1.246 . S
O92 Tb82 2.453 . S
O92 C88 1.245 . S
O93 Tb80 2.343 . S
O93 Tb82 2.596 . S
O93 C88 1.259 . S
O94 Tb82 2.374 . S
O94 C89 1.250 . S
O95 Tb80 2.353 . S
O95 C89 1.263 . S
C96 O97 1.275 . S
C96 O98 1.246 . S
O97 Tb80 2.427 . S
O97 C96 1.275 . S
O98 Tb80 2.513 . S
O98 C96 1.246 . S
C99 O83 1.245 . S
C99 O84 1.259 . S
Tb100 O103 2.453 . S
Tb100 O104 2.596 . S
Tb100 O105 2.374 . S
Tb100 O113 2.343 . S
Tb100 O115 2.353 . S
Tb100 O117 2.427 . S
Tb100 O118 2.513 . S
C101 O105 1.251 . S
C101 O107 1.263 . S
Tb102 O104 2.343 . S
Tb102 O107 2.353 . S
Tb102 O110 2.427 . S
Tb102 O111 2.513 . S
Tb102 O112 2.453 . S
Tb102 O113 2.596 . S
Tb102 O114 2.374 . S
O103 Tb100 2.453 . S
O103 C119 1.245 . S
O104 Tb100 2.596 . S
O104 Tb102 2.343 . S
O104 C119 1.259 . S
O105 Tb100 2.374 . S
O105 C101 1.251 . S
C106 O110 1.275 . S
C106 O111 1.246 . S
O107 C101 1.263 . S
O107 Tb102 2.353 . S
C108 O112 1.245 . S
C108 O113 1.259 . S
C109 O114 1.250 . S
C109 O115 1.263 . S
O110 Tb102 2.427 . S
O110 C106 1.275 . S
O111 Tb102 2.513 . S
O111 C106 1.246 . S
O112 Tb102 2.453 . S
O112 C108 1.245 . S
O113 Tb100 2.343 . S
O113 Tb102 2.596 . S
O113 C108 1.259 . S
O114 Tb102 2.374 . S
O114 C109 1.250 . S
O115 Tb100 2.353 . S
O115 C109 1.263 . S
C116 O117 1.275 . S
C116 O118 1.246 . S
O117 Tb100 2.427 . S
O117 C116 1.275 . S
O118 Tb100 2.513 . S
O118 C116 1.246 . S
C119 O103 1.245 . S
C119 O104 1.259 . S
H120 C128 0.929 . S
H121 C130 0.930 . S
H122 C132 0.930 . S
H123 C135 0.929 . S
H124 C138 0.930 . S
H125 C140 0.960 . S
H126 C140 0.960 . S
H127 C140 0.960 . S
C128 H120 0.929 . S
C128 C129 1.377 . S
C128 C130 1.384 . S
C129 C128 1.377 . S
C129 C135 1.390 . S
C130 H121 0.930 . S
C130 C128 1.384 . S
C130 C131 1.372 . S
C131 C130 1.372 . S
C131 C132 1.400 . S
C131 C136 1.490 . S
C132 H122 0.930 . S
C132 C131 1.400 . S
C132 C135 1.386 . S
H133 C149 0.930 . S
H134 C150 0.931 . S
C135 H123 0.929 . S
C135 C129 1.390 . S
C135 C132 1.386 . S
C136 C131 1.490 . S
C136 C138 1.395 . S
C136 C139 1.403 . S
H137 C143 0.930 . S
C138 H124 0.930 . S
C138 C136 1.395 . S
C138 C141 1.403 . S
C139 C136 1.403 . S
C139 C140 1.524 . S
C139 C143 1.400 . S
C140 H125 0.960 . S
C140 H126 0.960 . S
C140 H127 0.960 . S
C140 C139 1.524 . S
C141 C138 1.403 . S
C141 C142 1.392 . S
C141 C145 1.495 . S
C142 C141 1.392 . S
C142 C143 1.385 . S
C142 C144 1.478 . S
C143 H137 0.930 . S
C143 C139 1.400 . S
C143 C142 1.385 . S
C144 C142 1.478 . S
C144 C146 1.381 . S
C144 C150 1.383 . S
C145 C141 1.495 . S
C145 H151 0.959 . S
C145 H152 0.961 . S
C145 H153 0.960 . S
C146 C144 1.381 . S
C146 C147 1.394 . S
C146 H154 0.930 . S
C147 C146 1.394 . S
C147 C148 1.383 . S
C147 H155 0.929 . S
C148 C147 1.383 . S
C148 C149 1.377 . S
C149 H133 0.930 . S
C149 C148 1.377 . S
C149 C150 1.379 . S
C150 H134 0.931 . S
C150 C144 1.383 . S
C150 C149 1.379 . S
H151 C145 0.959 . S
H152 C145 0.961 . S
H153 C145 0.960 . S
H154 C146 0.930 . S
H155 C147 0.929 . S
H156 C164 0.929 . S
H157 C166 0.930 . S
H158 C168 0.930 . S
H159 C171 0.929 . S
H160 C174 0.930 . S
H161 C176 0.960 . S
H162 C176 0.960 . S
H163 C176 0.960 . S
C164 H156 0.929 . S
C164 C165 1.377 . S
C164 C166 1.384 . S
C165 C164 1.377 . S
C165 C171 1.390 . S
C166 H157 0.930 . S
C166 C164 1.384 . S
C166 C167 1.372 . S
C167 C166 1.372 . S
C167 C168 1.400 . S
C167 C172 1.490 . S
C168 H158 0.930 . S
C168 C167 1.400 . S
C168 C171 1.386 . S
H169 C185 0.930 . S
H170 C186 0.931 . S
C171 H159 0.929 . S
C171 C165 1.390 . S
C171 C168 1.386 . S
C172 C167 1.490 . S
C172 C174 1.395 . S
C172 C175 1.403 . S
H173 C179 0.930 . S
C174 H160 0.930 . S
C174 C172 1.395 . S
C174 C177 1.403 1_455 S
C175 C172 1.403 . S
C175 C176 1.524 . S
C175 C179 1.400 1_455 S
C176 H161 0.960 . S
C176 H162 0.960 . S
C176 H163 0.960 . S
C176 C175 1.524 . S
C177 C174 1.403 1_655 S
C177 C178 1.392 . S
C177 C181 1.495 . S
C178 C177 1.392 . S
C178 C179 1.385 . S
C178 C180 1.478 . S
C179 H173 0.930 . S
C179 C175 1.400 1_655 S
C179 C178 1.385 . S
C180 C178 1.478 . S
C180 C182 1.381 . S
C180 C186 1.383 . S
C181 C177 1.495 . S
C181 H187 0.959 . S
C181 H188 0.961 . S
C181 H189 0.960 . S
C182 C180 1.381 . S
C182 C183 1.394 . S
C182 H190 0.930 . S
C183 C182 1.394 . S
C183 C184 1.383 . S
C183 H191 0.929 . S
C184 C183 1.383 . S
C184 C185 1.377 . S
C185 H169 0.930 . S
C185 C184 1.377 . S
C185 C186 1.379 . S
C186 H170 0.931 . S
C186 C180 1.383 . S
C186 C185 1.379 . S
H187 C181 0.959 . S
H188 C181 0.961 . S
H189 C181 0.960 . S
H190 C182 0.930 . S
H191 C183 0.929 . S
H192 C200 0.929 . S
H193 C202 0.930 . S
H194 C204 0.930 . S
H195 C207 0.929 . S
H196 C210 0.930 . S
H197 C212 0.960 . S
H198 C212 0.960 . S
H199 C212 0.960 . S
C200 H192 0.929 . S
C200 C201 1.377 . S
C200 C202 1.384 . S
C201 C200 1.377 . S
C201 C207 1.390 . S
C202 H193 0.930 . S
C202 C200 1.384 . S
C202 C203 1.372 . S
C203 C202 1.372 . S
C203 C204 1.400 . S
C203 C208 1.490 . S
C204 H194 0.930 . S
C204 C203 1.400 . S
C204 C207 1.386 . S
H205 C221 0.930 . S
H206 C222 0.931 . S
C207 H195 0.929 . S
C207 C201 1.390 . S
C207 C204 1.386 . S
C208 C203 1.490 . S
C208 C210 1.395 . S
C208 C211 1.403 . S
H209 C215 0.930 . S
C210 H196 0.930 . S
C210 C208 1.395 . S
C210 C213 1.403 . S
C211 C208 1.403 . S
C211 C212 1.524 . S
C211 C215 1.400 1_545 S
C212 H197 0.960 . S
C212 H198 0.960 . S
C212 H199 0.960 . S
C212 C211 1.524 . S
C213 C210 1.403 . S
C213 C214 1.392 1_545 S
C213 C217 1.496 . S
C214 C213 1.392 1_565 S
C214 C215 1.385 . S
C214 C216 1.478 . S
C215 H209 0.930 . S
C215 C211 1.400 1_565 S
C215 C214 1.385 . S
C216 C214 1.478 . S
C216 C218 1.381 . S
C216 C222 1.383 . S
C217 C213 1.496 . S
C217 H223 0.964 . S
C217 H224 0.961 1_545 S
C217 H225 0.955 1_545 S
C218 C216 1.381 . S
C218 C219 1.394 . S
C218 H226 0.930 . S
C219 C218 1.394 . S
C219 C220 1.383 . S
C219 H227 0.929 . S
C220 C219 1.383 . S
C220 C221 1.377 . S
C221 H205 0.930 . S
C221 C220 1.377 . S
C221 C222 1.379 . S
C222 H206 0.931 . S
C222 C216 1.383 . S
C222 C221 1.379 . S
H223 C217 0.964 . S
H224 C217 0.961 1_565 S
H225 C217 0.955 1_565 S
H226 C218 0.930 . S
H227 C219 0.929 . S
H228 C236 0.929 . S
H229 C238 0.930 . S
H230 C240 0.930 . S
H231 C243 0.929 . S
H232 C246 0.930 . S
H233 C248 0.960 . S
H234 C248 0.960 . S
H235 C248 0.960 . S
C236 H228 0.929 . S
C236 C237 1.377 . S
C236 C238 1.384 . S
C237 C236 1.377 . S
C237 C243 1.390 . S
C238 H229 0.930 . S
C238 C236 1.384 . S
C238 C239 1.372 . S
C239 C238 1.372 . S
C239 C240 1.400 . S
C239 C244 1.490 . S
C240 H230 0.930 . S
C240 C239 1.400 . S
C240 C243 1.386 . S
H241 C257 0.930 . S
H242 C258 0.931 . S
C243 H231 0.929 . S
C243 C237 1.390 . S
C243 C240 1.386 . S
C244 C239 1.490 . S
C244 C246 1.395 . S
C244 C247 1.403 . S
H245 C251 0.930 . S
C246 H232 0.930 . S
C246 C244 1.395 . S
C246 C249 1.403 . S
C247 C244 1.403 . S
C247 C248 1.524 . S
C247 C251 1.400 . S
C248 H233 0.960 . S
C248 H234 0.960 . S
C248 H235 0.960 . S
C248 C247 1.524 . S
C249 C246 1.403 . S
C249 C250 1.392 . S
C249 C253 1.495 . S
C250 C249 1.392 . S
C250 C251 1.385 . S
C250 C252 1.478 . S
C251 H245 0.930 . S
C251 C247 1.400 . S
C251 C250 1.385 . S
C252 C250 1.478 . S
C252 C254 1.381 . S
C252 C258 1.383 . S
C253 C249 1.495 . S
C253 H259 0.959 . S
C253 H260 0.961 . S
C253 H261 0.960 . S
C254 C252 1.381 . S
C254 C255 1.394 . S
C254 H262 0.930 . S
C255 C254 1.394 . S
C255 C256 1.383 . S
C255 H263 0.929 . S
C256 C255 1.383 . S
C256 C257 1.377 . S
C257 H241 0.930 . S
C257 C256 1.377 . S
C257 C258 1.379 . S
C258 H242 0.931 . S
C258 C252 1.383 . S
C258 C257 1.379 . S
H259 C253 0.959 . S
H260 C253 0.961 . S
H261 C253 0.960 . S
H262 C254 0.930 . S
H263 C255 0.929 . S
H264 C272 0.929 . S
H265 C274 0.930 . S
H266 C276 0.930 . S
H267 C279 0.929 . S
H268 C282 0.930 . S
H269 C284 0.954 1_655 S
H270 C284 0.960 . S
H271 C284 0.960 . S
C272 H264 0.929 . S
C272 C273 1.377 . S
C272 C274 1.384 . S
C273 C272 1.377 . S
C273 C279 1.390 . S
C274 H265 0.930 . S
C274 C272 1.384 . S
C274 C275 1.372 . S
C275 C274 1.372 . S
C275 C276 1.400 . S
C275 C280 1.490 . S
C276 H266 0.930 . S
C276 C275 1.400 . S
C276 C279 1.386 . S
H277 C293 0.930 1_556 S
H278 C294 0.931 . S
C279 H267 0.929 . S
C279 C273 1.390 . S
C279 C276 1.386 . S
C280 C275 1.490 . S
C280 C282 1.395 . S
C280 C283 1.403 . S
H281 C287 0.930 . S
C282 H268 0.930 . S
C282 C280 1.395 . S
C282 C285 1.403 1_455 S
C283 C280 1.403 . S
C283 C284 1.524 . S
C283 C287 1.400 1_455 S
C284 H269 0.954 1_455 S
C284 H270 0.960 . S
C284 H271 0.960 . S
C284 C283 1.524 . S
C285 C282 1.403 1_655 S
C285 C286 1.392 . S
C285 C289 1.495 . S
C286 C285 1.392 . S
C286 C287 1.385 . S
C286 C288 1.478 . S
C287 H281 0.930 . S
C287 C283 1.400 1_655 S
C287 C286 1.385 . S
C288 C286 1.478 . S
C288 C290 1.381 . S
C288 C294 1.383 . S
C289 C285 1.495 . S
C289 H295 0.959 . S
C289 H296 0.961 . S
C289 H297 0.960 . S
C290 C288 1.381 . S
C290 C291 1.394 . S
C290 H298 0.930 . S
C291 C290 1.394 . S
C291 C292 1.383 . S
C291 H299 0.929 . S
C292 C291 1.383 . S
C292 C293 1.377 . S
C293 H277 0.930 1_554 S
C293 C292 1.377 . S
C293 C294 1.379 . S
C294 H278 0.931 . S
C294 C288 1.383 . S
C294 C293 1.379 . S
H295 C289 0.959 . S
H296 C289 0.961 . S
H297 C289 0.960 . S
H298 C290 0.930 . S
H299 C291 0.929 . S
H300 C308 0.929 . S
H301 C310 0.930 . S
H302 C312 0.930 . S
H303 C315 0.929 . S
H304 C318 0.930 1_545 S
H305 C320 0.960 . S
H306 C320 0.960 . S
H307 C320 0.960 . S
C308 H300 0.929 . S
C308 C309 1.377 . S
C308 C310 1.384 . S
C309 C308 1.377 . S
C309 C315 1.390 . S
C310 H301 0.930 . S
C310 C308 1.384 . S
C310 C311 1.372 . S
C311 C310 1.372 . S
C311 C312 1.400 . S
C311 C316 1.490 . S
C312 H302 0.930 . S
C312 C311 1.400 . S
C312 C315 1.386 . S
H313 C329 0.930 . S
H314 C330 0.931 . S
C315 H303 0.929 . S
C315 C309 1.390 . S
C315 C312 1.386 . S
C316 C311 1.490 . S
C316 C318 1.395 1_545 S
C316 C319 1.403 . S
H317 C323 0.930 . S
C318 H304 0.930 1_565 S
C318 C316 1.395 1_565 S
C318 C321 1.403 . S
C319 C316 1.403 . S
C319 C320 1.524 . S
C319 C323 1.400 1_545 S
C320 H305 0.960 . S
C320 H306 0.960 . S
C320 H307 0.960 . S
C320 C319 1.524 . S
C321 C318 1.403 . S
C321 C322 1.392 . S
C321 C325 1.495 . S
C322 C321 1.392 . S
C322 C323 1.385 . S
C322 C324 1.478 . S
C323 H317 0.930 . S
C323 C319 1.400 1_565 S
C323 C322 1.385 . S
C324 C322 1.478 . S
C324 C326 1.381 . S
C324 C330 1.383 . S
C325 C321 1.495 . S
C325 H331 0.959 . S
C325 H332 0.961 . S
C325 H333 0.960 . S
C326 C324 1.381 . S
C326 C327 1.394 . S
C326 H334 0.930 . S
C327 C326 1.394 . S
C327 C328 1.383 . S
C327 H335 0.929 . S
C328 C327 1.383 . S
C328 C329 1.377 . S
C329 H313 0.930 . S
C329 C328 1.377 . S
C329 C330 1.379 . S
C330 H314 0.931 . S
C330 C324 1.383 . S
C330 C329 1.379 . S
H331 C325 0.959 . S
H332 C325 0.961 . S
H333 C325 0.960 . S
H334 C326 0.930 . S
H335 C327 0.929 . S
H336 C344 0.929 . S
H337 C346 0.930 . S
H338 C348 0.930 . S
H339 C351 0.929 . S
H340 C354 0.930 . S
H341 C356 0.960 . S
H342 C356 0.960 . S
H343 C356 0.960 . S
C344 H336 0.929 . S
C344 C345 1.377 . S
C344 C346 1.384 . S
C345 C344 1.377 . S
C345 C351 1.390 . S
C346 H337 0.930 . S
C346 C344 1.384 . S
C346 C347 1.372 . S
C347 C346 1.372 . S
C347 C348 1.400 . S
C347 C352 1.490 . S
C348 H338 0.930 . S
C348 C347 1.400 . S
C348 C351 1.386 . S
H349 C365 0.930 . S
H350 C366 0.931 . S
C351 H339 0.929 . S
C351 C345 1.390 . S
C351 C348 1.386 . S
C352 C347 1.490 . S
C352 C354 1.395 . S
C352 C355 1.403 . S
H353 C359 0.930 . S
C354 H340 0.930 . S
C354 C352 1.395 . S
C354 C357 1.403 . S
C355 C352 1.403 . S
C355 C356 1.524 . S
C355 C359 1.400 . S
C356 H341 0.960 . S
C356 H342 0.960 . S
C356 H343 0.960 . S
C356 C355 1.524 . S
C357 C354 1.403 . S
C357 C358 1.392 . S
C357 C361 1.495 . S
C358 C357 1.392 . S
C358 C359 1.385 . S
C358 C360 1.478 . S
C359 H353 0.930 . S
C359 C355 1.400 . S
C359 C358 1.385 . S
C360 C358 1.478 . S
C360 C362 1.381 . S
C360 C366 1.383 . S
C361 C357 1.495 . S
C361 H367 0.959 . S
C361 H368 0.961 . S
C361 H369 0.960 . S
C362 C360 1.381 . S
C362 C363 1.394 . S
C362 H370 0.930 . S
C363 C362 1.394 . S
C363 C364 1.383 . S
C363 H371 0.929 . S
C364 C363 1.383 . S
C364 C365 1.377 . S
C365 H349 0.930 . S
C365 C364 1.377 . S
C365 C366 1.379 . S
C366 H350 0.931 . S
C366 C360 1.383 . S
C366 C365 1.379 . S
H367 C361 0.959 . S
H368 C361 0.961 . S
H369 C361 0.960 . S
H370 C362 0.930 . S
H371 C363 0.929 . S
H372 C380 0.929 . S
H373 C382 0.930 . S
H374 C384 0.930 1_556 S
H375 C387 0.929 . S
H376 C390 0.930 . S
H377 C392 0.960 . S
H378 C392 0.960 . S
H379 C392 0.960 . S
C380 H372 0.929 . S
C380 C381 1.377 . S
C380 C382 1.384 . S
C381 C380 1.377 . S
C381 C387 1.390 . S
C382 H373 0.930 . S
C382 C380 1.384 . S
C382 C383 1.372 1_554 S
C383 C382 1.372 1_556 S
C383 C384 1.400 1_556 S
C383 C388 1.490 . S
C384 H374 0.930 1_554 S
C384 C383 1.400 1_554 S
C384 C387 1.386 . S
H385 C401 0.930 . S
H386 C402 0.931 . S
C387 H375 0.929 . S
C387 C381 1.390 . S
C387 C384 1.386 . S
C388 C383 1.490 . S
C388 C390 1.395 . S
C388 C391 1.403 . S
H389 C395 0.930 . S
C390 H376 0.930 . S
C390 C388 1.395 . S
C390 C393 1.403 . S
C391 C388 1.403 . S
C391 C392 1.524 . S
C391 C395 1.400 . S
C392 H377 0.960 . S
C392 H378 0.960 . S
C392 H379 0.960 . S
C392 C391 1.524 . S
C393 C390 1.403 . S
C393 C394 1.392 . S
C393 C397 1.495 . S
C394 C393 1.392 . S
C394 C395 1.385 . S
C394 C396 1.478 . S
C395 H389 0.930 . S
C395 C391 1.400 . S
C395 C394 1.385 . S
C396 C394 1.478 . S
C396 C398 1.381 . S
C396 C402 1.383 . S
C397 C393 1.495 . S
C397 H403 0.959 . S
C397 H404 0.961 . S
C397 H405 0.960 . S
C398 C396 1.381 . S
C398 C399 1.394 . S
C398 H406 0.930 . S
C399 C398 1.394 . S
C399 C400 1.383 . S
C399 H407 0.929 . S
C400 C399 1.383 . S
C400 C401 1.377 . S
C401 H385 0.930 . S
C401 C400 1.377 . S
C401 C402 1.379 . S
C402 H386 0.931 . S
C402 C396 1.383 . S
C402 C401 1.379 . S
H403 C397 0.959 . S
H404 C397 0.961 . S
H405 C397 0.960 . S
H406 C398 0.930 . S
H407 C399 0.929 . S
H408 C416 0.929 . S
H409 C418 0.930 . S
H410 C420 0.930 . S
H411 C423 0.929 . S
H412 C426 0.930 . S
H413 C428 0.960 . S
H414 C428 0.960 . S
H415 C428 0.960 . S
C416 H408 0.929 . S
C416 C417 1.377 . S
C416 C418 1.384 . S
C417 C416 1.377 . S
C417 C423 1.390 . S
C418 H409 0.930 . S
C418 C416 1.384 . S
C418 C419 1.372 . S
C419 C418 1.372 . S
C419 C420 1.400 . S
C419 C424 1.490 . S
C420 H410 0.930 . S
C420 C419 1.400 . S
C420 C423 1.386 . S
H421 C437 0.930 . S
H422 C438 0.931 . S
C423 H411 0.929 . S
C423 C417 1.390 . S
C423 C420 1.386 . S
C424 C419 1.490 . S
C424 C426 1.395 . S
C424 C427 1.403 . S
H425 C431 0.930 . S
C426 H412 0.930 . S
C426 C424 1.395 . S
C426 C429 1.403 . S
C427 C424 1.403 . S
C427 C428 1.524 . S
C427 C431 1.400 . S
C428 H413 0.960 . S
C428 H414 0.960 . S
C428 H415 0.960 . S
C428 C427 1.524 . S
C429 C426 1.403 . S
C429 C430 1.392 . S
C429 C433 1.495 . S
C430 C429 1.392 . S
C430 C431 1.385 . S
C430 C432 1.478 . S
C431 H425 0.930 . S
C431 C427 1.400 . S
C431 C430 1.385 . S
C432 C430 1.478 . S
C432 C434 1.381 1_554 S
C432 C438 1.383 . S
C433 C429 1.495 . S
C433 H439 0.959 . S
C433 H440 0.961 . S
C433 H441 0.960 . S
C434 C432 1.381 1_556 S
C434 C435 1.394 . S
C434 H442 0.930 1_556 S
C435 C434 1.394 . S
C435 C436 1.383 . S
C435 H443 0.929 . S
C436 C435 1.383 . S
C436 C437 1.377 . S
C437 H421 0.930 . S
C437 C436 1.377 . S
C437 C438 1.379 1_556 S
C438 H422 0.931 . S
C438 C432 1.383 . S
C438 C437 1.379 1_554 S
H439 C433 0.959 . S
H440 C433 0.961 . S
H441 C433 0.960 . S
H442 C434 0.930 1_554 S
H443 C435 0.929 . S
H444 C452 0.929 . S
H445 C454 0.930 . S
H446 C456 0.930 . S
H447 C459 0.929 . S
H448 C462 0.930 . S
H449 C464 0.960 . S
H450 C464 0.960 . S
H451 C464 0.960 . S
C452 H444 0.929 . S
C452 C453 1.377 . S
C452 C454 1.384 . S
C453 C452 1.377 . S
C453 C459 1.390 . S
C454 H445 0.930 . S
C454 C452 1.384 . S
C454 C455 1.372 . S
C455 C454 1.372 . S
C455 C456 1.400 . S
C455 C460 1.490 . S
C456 H446 0.930 . S
C456 C455 1.400 . S
C456 C459 1.386 . S
H457 C473 0.930 . S
H458 C474 0.931 . S
C459 H447 0.929 . S
C459 C453 1.390 . S
C459 C456 1.386 . S
C460 C455 1.490 . S
C460 C462 1.395 . S
C460 C463 1.403 . S
H461 C467 0.930 . S
C462 H448 0.930 . S
C462 C460 1.395 . S
C462 C465 1.403 . S
C463 C460 1.403 . S
C463 C464 1.524 . S
C463 C467 1.400 . S
C464 H449 0.960 . S
C464 H450 0.960 . S
C464 H451 0.960 . S
C464 C463 1.524 . S
C465 C462 1.403 . S
C465 C466 1.392 . S
C465 C469 1.495 . S
C466 C465 1.392 . S
C466 C467 1.385 . S
C466 C468 1.478 . S
C467 H461 0.930 . S
C467 C463 1.400 . S
C467 C466 1.385 . S
C468 C466 1.478 . S
C468 C470 1.381 . S
C468 C474 1.383 . S
C469 C465 1.495 . S
C469 H475 0.959 . S
C469 H476 0.961 . S
C469 H477 0.960 . S
C470 C468 1.381 . S
C470 C471 1.394 . S
C470 H478 0.930 . S
C471 C470 1.394 . S
C471 C472 1.383 . S
C471 H479 0.929 . S
C472 C471 1.383 . S
C472 C473 1.377 . S
C473 H457 0.930 . S
C473 C472 1.377 . S
C473 C474 1.379 . S
C474 H458 0.931 . S
C474 C468 1.383 . S
C474 C473 1.379 . S
H475 C469 0.959 . S
H476 C469 0.961 . S
H477 C469 0.960 . S
H478 C470 0.930 . S
H479 C471 0.929 . S
H480 C488 0.929 . S
H481 C490 0.930 . S
H482 C492 0.930 . S
H483 C495 0.929 . S
H484 C498 0.930 . S
H485 C500 0.960 . S
H486 C500 0.960 . S
H487 C500 0.960 . S
C488 H480 0.929 . S
C488 C489 1.377 . S
C488 C490 1.384 . S
C489 C488 1.377 . S
C489 C495 1.390 . S
C490 H481 0.930 . S
C490 C488 1.384 . S
C490 C491 1.372 . S
C491 C490 1.372 . S
C491 C492 1.400 . S
C491 C496 1.490 . S
C492 H482 0.930 . S
C492 C491 1.400 . S
C492 C495 1.386 . S
H493 C509 0.930 . S
H494 C510 0.931 1_556 S
C495 H483 0.929 . S
C495 C489 1.390 . S
C495 C492 1.386 . S
C496 C491 1.490 . S
C496 C498 1.395 . S
C496 C499 1.403 . S
H497 C503 0.930 . S
C498 H484 0.930 . S
C498 C496 1.395 . S
C498 C501 1.403 . S
C499 C496 1.403 . S
C499 C500 1.524 . S
C499 C503 1.400 . S
C500 H485 0.960 . S
C500 H486 0.960 . S
C500 H487 0.960 . S
C500 C499 1.524 . S
C501 C498 1.403 . S
C501 C502 1.392 . S
C501 C505 1.495 . S
C502 C501 1.392 . S
C502 C503 1.385 . S
C502 C504 1.478 . S
C503 H497 0.930 . S
C503 C499 1.400 . S
C503 C502 1.385 . S
C504 C502 1.478 . S
C504 C506 1.381 1_556 S
C504 C510 1.383 1_556 S
C505 C501 1.495 . S
C505 H511 0.959 . S
C505 H512 0.961 . S
C505 H513 0.960 . S
C506 C504 1.381 1_554 S
C506 C507 1.394 . S
C506 H514 0.930 1_554 S
C507 C506 1.394 . S
C507 C508 1.383 . S
C507 H515 0.929 . S
C508 C507 1.383 . S
C508 C509 1.377 . S
C509 H493 0.930 . S
C509 C508 1.377 . S
C509 C510 1.379 . S
C510 H494 0.931 1_554 S
C510 C504 1.383 1_554 S
C510 C509 1.379 . S
H511 C505 0.959 . S
H512 C505 0.961 . S
H513 C505 0.960 . S
H514 C506 0.930 1_556 S
H515 C507 0.929 . S
H516 C524 0.929 . S
H517 C526 0.930 . S
H518 C528 0.930 . S
H519 C531 0.929 . S
H520 C534 0.930 . S
H521 C536 0.960 . S
H522 C536 0.960 . S
H523 C536 0.960 . S
C524 H516 0.929 . S
C524 C525 1.377 . S
C524 C526 1.384 . S
C525 C524 1.377 . S
C525 C531 1.390 . S
C526 H517 0.930 . S
C526 C524 1.384 . S
C526 C527 1.372 . S
C527 C526 1.372 . S
C527 C528 1.400 . S
C527 C532 1.490 . S
C528 H518 0.930 . S
C528 C527 1.400 . S
C528 C531 1.386 . S
H529 C545 0.930 . S
H530 C546 0.931 1_554 S
C531 H519 0.929 . S
C531 C525 1.390 . S
C531 C528 1.386 . S
C532 C527 1.490 . S
C532 C534 1.395 . S
C532 C535 1.403 . S
H533 C539 0.930 . S
C534 H520 0.930 . S
C534 C532 1.395 . S
C534 C537 1.403 . S
C535 C532 1.403 . S
C535 C536 1.524 . S
C535 C539 1.400 . S
C536 H521 0.960 . S
C536 H522 0.960 . S
C536 H523 0.960 . S
C536 C535 1.524 . S
C537 C534 1.403 . S
C537 C538 1.392 . S
C537 C541 1.495 . S
C538 C537 1.392 . S
C538 C539 1.385 . S
C538 C540 1.478 . S
C539 H533 0.930 . S
C539 C535 1.400 . S
C539 C538 1.385 . S
C540 C538 1.478 . S
C540 C542 1.381 1_554 S
C540 C546 1.383 1_554 S
C541 C537 1.495 . S
C541 H547 0.959 . S
C541 H548 0.961 . S
C541 H549 0.960 . S
C542 C540 1.381 1_556 S
C542 C543 1.394 . S
C542 H550 0.930 1_556 S
C543 C542 1.394 . S
C543 C544 1.383 . S
C543 H551 0.929 . S
C544 C543 1.383 . S
C544 C545 1.377 . S
C545 H529 0.930 . S
C545 C544 1.377 . S
C545 C546 1.379 . S
C546 H530 0.931 1_556 S
C546 C540 1.383 1_556 S
C546 C545 1.379 . S
H547 C541 0.959 . S
H548 C541 0.961 . S
H549 C541 0.960 . S
H550 C542 0.930 1_554 S
H551 C543 0.929 . S
H552 C560 0.929 . S
H553 C562 0.930 . S
H554 C564 0.930 . S
H555 C567 0.929 . S
H556 C570 0.930 . S
H557 C572 0.960 . S
H558 C572 0.960 . S
H559 C572 0.960 . S
C560 H552 0.929 . S
C560 C561 1.377 . S
C560 C562 1.384 . S
C561 C560 1.377 . S
C561 C567 1.390 . S
C562 H553 0.930 . S
C562 C560 1.384 . S
C562 C563 1.372 . S
C563 C562 1.372 . S
C563 C564 1.400 . S
C563 C568 1.490 . S
C564 H554 0.930 . S
C564 C563 1.400 . S
C564 C567 1.386 . S
H565 C581 0.930 . S
H566 C582 0.931 . S
C567 H555 0.929 . S
C567 C561 1.390 . S
C567 C564 1.386 . S
C568 C563 1.490 . S
C568 C570 1.395 . S
C568 C571 1.403 . S
H569 C575 0.930 . S
C570 H556 0.930 . S
C570 C568 1.395 . S
C570 C573 1.403 . S
C571 C568 1.403 . S
C571 C572 1.524 . S
C571 C575 1.400 . S
C572 H557 0.960 . S
C572 H558 0.960 . S
C572 H559 0.960 . S
C572 C571 1.524 . S
C573 C570 1.403 . S
C573 C574 1.392 . S
C573 C577 1.495 . S
C574 C573 1.392 . S
C574 C575 1.385 . S
C574 C576 1.478 . S
C575 H569 0.930 . S
C575 C571 1.400 . S
C575 C574 1.385 . S
C576 C574 1.478 . S
C576 C578 1.381 . S
C576 C582 1.383 . S
C577 C573 1.495 . S
C577 H583 0.959 . S
C577 H584 0.961 . S
C577 H585 0.960 . S
C578 C576 1.381 . S
C578 C579 1.394 . S
C578 H586 0.930 . S
C579 C578 1.394 . S
C579 C580 1.383 . S
C579 H587 0.929 . S
C580 C579 1.383 . S
C580 C581 1.377 . S
C581 H565 0.930 . S
C581 C580 1.377 . S
C581 C582 1.379 . S
C582 H566 0.931 . S
C582 C576 1.383 . S
C582 C581 1.379 . S
H583 C577 0.959 . S
H584 C577 0.961 . S
H585 C577 0.960 . S
H586 C578 0.930 . S
H587 C579 0.929 . S
H588 C596 0.929 . S
H589 C598 0.930 . S
H590 C600 0.930 . S
H591 C603 0.929 . S
H592 C606 0.930 . S
H593 C608 0.960 . S
H594 C608 0.960 . S
H595 C608 0.960 . S
C596 H588 0.929 . S
C596 C597 1.377 . S
C596 C598 1.384 . S
C597 C596 1.377 . S
C597 C603 1.390 . S
C598 H589 0.930 . S
C598 C596 1.384 . S
C598 C599 1.372 . S
C599 C598 1.372 . S
C599 C600 1.400 . S
C599 C604 1.490 . S
C600 H590 0.930 . S
C600 C599 1.400 . S
C600 C603 1.386 . S
H601 C617 0.930 . S
H602 C618 0.931 . S
C603 H591 0.929 . S
C603 C597 1.390 . S
C603 C600 1.386 . S
C604 C599 1.490 . S
C604 C606 1.395 . S
C604 C607 1.403 . S
H605 C611 0.930 . S
C606 H592 0.930 . S
C606 C604 1.395 . S
C606 C609 1.403 . S
C607 C604 1.403 . S
C607 C608 1.524 . S
C607 C611 1.400 . S
C608 H593 0.960 . S
C608 H594 0.960 . S
C608 H595 0.960 . S
C608 C607 1.524 . S
C609 C606 1.403 . S
C609 C610 1.392 . S
C609 C613 1.495 . S
C610 C609 1.392 . S
C610 C611 1.385 . S
C610 C612 1.478 . S
C611 H605 0.930 . S
C611 C607 1.400 . S
C611 C610 1.385 . S
C612 C610 1.478 . S
C612 C614 1.381 . S
C612 C618 1.383 . S
C613 C609 1.495 . S
C613 H619 0.959 . S
C613 H620 0.961 . S
C613 H621 0.960 . S
C614 C612 1.381 . S
C614 C615 1.394 . S
C614 H622 0.930 . S
C615 C614 1.394 . S
C615 C616 1.383 . S
C615 H623 0.929 . S
C616 C615 1.383 . S
C616 C617 1.377 . S
C617 H601 0.930 . S
C617 C616 1.377 . S
C617 C618 1.379 . S
C618 H602 0.931 . S
C618 C612 1.383 . S
C618 C617 1.379 . S
H619 C613 0.959 . S
H620 C613 0.961 . S
H621 C613 0.960 . S
H622 C614 0.930 . S
H623 C615 0.929 . S
H624 C632 0.929 1_554 S
H625 C634 0.930 1_554 S
H626 C636 0.930 . S
H627 C639 0.929 . S
H628 C642 0.930 . S
H629 C644 0.960 . S
H630 C644 0.960 . S
H631 C644 0.960 . S
C632 H624 0.929 1_556 S
C632 C633 1.377 . S
C632 C634 1.384 . S
C633 C632 1.377 . S
C633 C639 1.390 . S
C634 H625 0.930 1_556 S
C634 C632 1.384 . S
C634 C635 1.372 . S
C635 C634 1.372 . S
C635 C636 1.400 . S
C635 C640 1.490 . S
C636 H626 0.930 . S
C636 C635 1.400 . S
C636 C639 1.386 . S
H637 C653 0.930 . S
H638 C654 0.931 . S
C639 H627 0.929 . S
C639 C633 1.390 . S
C639 C636 1.386 . S
C640 C635 1.490 . S
C640 C642 1.395 . S
C640 C643 1.403 . S
H641 C647 0.930 . S
C642 H628 0.930 . S
C642 C640 1.395 . S
C642 C645 1.403 . S
C643 C640 1.403 . S
C643 C644 1.524 . S
C643 C647 1.400 . S
C644 H629 0.960 . S
C644 H630 0.960 . S
C644 H631 0.960 . S
C644 C643 1.524 . S
C645 C642 1.403 . S
C645 C646 1.392 . S
C645 C649 1.495 . S
C646 C645 1.392 . S
C646 C647 1.385 . S
C646 C648 1.478 . S
C647 H641 0.930 . S
C647 C643 1.400 . S
C647 C646 1.385 . S
C648 C646 1.478 . S
C648 C650 1.381 . S
C648 C654 1.383 . S
C649 C645 1.495 . S
C649 H655 0.959 . S
C649 H656 0.961 . S
C649 H657 0.960 . S
C650 C648 1.381 . S
C650 C651 1.394 . S
C650 H658 0.930 . S
C651 C650 1.394 . S
C651 C652 1.383 . S
C651 H659 0.929 . S
C652 C651 1.383 . S
C652 C653 1.377 . S
C653 H637 0.930 . S
C653 C652 1.377 . S
C653 C654 1.379 . S
C654 H638 0.931 . S
C654 C648 1.383 . S
C654 C653 1.379 . S
H655 C649 0.959 . S
H656 C649 0.961 . S
H657 C649 0.960 . S
H658 C650 0.930 . S
H659 C651 0.929 . S
H660 C668 0.929 . S
H661 C670 0.930 . S
H662 C672 0.930 . S
H663 C675 0.929 . S
H664 C678 0.930 . S
H665 C680 0.960 . S
H666 C680 0.960 . S
H667 C680 0.960 . S
C668 H660 0.929 . S
C668 C669 1.377 . S
C668 C670 1.384 . S
C669 C668 1.377 . S
C669 C675 1.390 . S
C670 H661 0.930 . S
C670 C668 1.384 . S
C670 C671 1.372 . S
C671 C670 1.372 . S
C671 C672 1.400 . S
C671 C676 1.490 . S
C672 H662 0.930 . S
C672 C671 1.400 . S
C672 C675 1.386 . S
H673 C689 0.930 . S
H674 C690 0.931 . S
C675 H663 0.929 . S
C675 C669 1.390 . S
C675 C672 1.386 . S
C676 C671 1.490 . S
C676 C678 1.395 . S
C676 C679 1.403 . S
H677 C683 0.930 . S
C678 H664 0.930 . S
C678 C676 1.395 . S
C678 C681 1.403 . S
C679 C676 1.403 . S
C679 C680 1.524 . S
C679 C683 1.400 . S
C680 H665 0.960 . S
C680 H666 0.960 . S
C680 H667 0.960 . S
C680 C679 1.524 . S
C681 C678 1.403 . S
C681 C682 1.392 . S
C681 C685 1.495 . S
C682 C681 1.392 . S
C682 C683 1.385 . S
C682 C684 1.478 . S
C683 H677 0.930 . S
C683 C679 1.400 . S
C683 C682 1.385 . S
C684 C682 1.478 . S
C684 C686 1.381 . S
C684 C690 1.383 . S
C685 C681 1.495 . S
C685 H691 0.959 . S
C685 H692 0.961 . S
C685 H693 0.960 . S
C686 C684 1.381 . S
C686 C687 1.394 . S
C686 H694 0.930 . S
C687 C686 1.394 . S
C687 C688 1.383 . S
C687 H695 0.929 . S
C688 C687 1.383 . S
C688 C689 1.377 . S
C689 H673 0.930 . S
C689 C688 1.377 . S
C689 C690 1.379 . S
C690 H674 0.931 . S
C690 C684 1.383 . S
C690 C689 1.379 . S
H691 C685 0.959 . S
H692 C685 0.961 . S
H693 C685 0.960 . S
H694 C686 0.930 . S
H695 C687 0.929 . S
H696 C704 0.929 . S
H697 C706 0.930 . S
H698 C708 0.930 . S
H699 C711 0.929 . S
H700 C714 0.930 . S
H701 C716 0.960 . S
H702 C716 0.960 . S
H703 C716 0.960 . S
C704 H696 0.929 . S
C704 C705 1.377 . S
C704 C706 1.384 . S
C705 C704 1.377 . S
C705 C711 1.390 . S
C706 H697 0.930 . S
C706 C704 1.384 . S
C706 C707 1.372 . S
C707 C706 1.372 . S
C707 C708 1.400 . S
C707 C712 1.490 . S
C708 H698 0.930 . S
C708 C707 1.400 . S
C708 C711 1.386 . S
H709 C725 0.930 . S
H710 C726 0.931 . S
C711 H699 0.929 . S
C711 C705 1.390 . S
C711 C708 1.386 . S
C712 C707 1.490 . S
C712 C714 1.395 . S
C712 C715 1.403 . S
H713 C719 0.930 . S
C714 H700 0.930 . S
C714 C712 1.395 . S
C714 C717 1.403 . S
C715 C712 1.403 . S
C715 C716 1.524 . S
C715 C719 1.400 . S
C716 H701 0.960 . S
C716 H702 0.960 . S
C716 H703 0.960 . S
C716 C715 1.524 . S
C717 C714 1.403 . S
C717 C718 1.392 . S
C717 C721 1.495 . S
C718 C717 1.392 . S
C718 C719 1.385 . S
C718 C720 1.478 . S
C719 H713 0.930 . S
C719 C715 1.400 . S
C719 C718 1.385 . S
C720 C718 1.478 . S
C720 C722 1.381 . S
C720 C726 1.383 . S
C721 C717 1.495 . S
C721 H727 0.959 . S
C721 H728 0.961 . S
C721 H729 0.960 . S
C722 C720 1.381 . S
C722 C723 1.394 . S
C722 H730 0.930 . S
C723 C722 1.394 . S
C723 C724 1.383 . S
C723 H731 0.929 . S
C724 C723 1.383 . S
C724 C725 1.377 . S
C725 H709 0.930 . S
C725 C724 1.377 . S
C725 C726 1.379 . S
C726 H710 0.931 . S
C726 C720 1.383 . S
C726 C725 1.379 . S
H727 C721 0.959 . S
H728 C721 0.961 . S
H729 C721 0.960 . S
H730 C722 0.930 . S
H731 C723 0.929 . S
H732 C740 0.929 1_554 S
H733 C742 0.930 1_554 S
H734 C744 0.930 . S
H735 C747 0.929 . S
H736 C750 0.930 . S
H737 C752 0.960 . S
H738 C752 0.960 . S
H739 C752 0.960 . S
C740 H732 0.929 1_556 S
C740 C741 1.377 . S
C740 C742 1.384 . S
C741 C740 1.377 . S
C741 C747 1.390 . S
C742 H733 0.930 1_556 S
C742 C740 1.384 . S
C742 C743 1.372 . S
C743 C742 1.372 . S
C743 C744 1.400 . S
C743 C748 1.490 . S
C744 H734 0.930 . S
C744 C743 1.400 . S
C744 C747 1.386 . S
H745 C761 0.930 . S
H746 C762 0.931 . S
C747 H735 0.929 . S
C747 C741 1.390 . S
C747 C744 1.386 . S
C748 C743 1.490 . S
C748 C750 1.395 . S
C748 C751 1.403 . S
H749 C755 0.930 . S
C750 H736 0.930 . S
C750 C748 1.395 . S
C750 C753 1.403 . S
C751 C748 1.403 . S
C751 C752 1.524 . S
C751 C755 1.400 . S
C752 H737 0.960 . S
C752 H738 0.960 . S
C752 H739 0.960 . S
C752 C751 1.524 . S
C753 C750 1.403 . S
C753 C754 1.392 . S
C753 C757 1.495 . S
C754 C753 1.392 . S
C754 C755 1.385 . S
C754 C756 1.478 . S
C755 H749 0.930 . S
C755 C751 1.400 . S
C755 C754 1.385 . S
C756 C754 1.478 . S
C756 C758 1.381 . S
C756 C762 1.383 . S
C757 C753 1.495 . S
C757 H763 0.959 . S
C757 H764 0.961 . S
C757 H765 0.960 . S
C758 C756 1.381 . S
C758 C759 1.394 . S
C758 H766 0.930 . S
C759 C758 1.394 . S
C759 C760 1.383 . S
C759 H767 0.929 . S
C760 C759 1.383 . S
C760 C761 1.377 . S
C761 H745 0.930 . S
C761 C760 1.377 . S
C761 C762 1.379 . S
C762 H746 0.931 . S
C762 C756 1.383 . S
C762 C761 1.379 . S
H763 C757 0.959 . S
H764 C757 0.961 . S
H765 C757 0.960 . S
H766 C758 0.930 . S
H767 C759 0.929 . S
C129 C101 1.450 . S
C148 C16 1.364 . S
C165 C1 1.451 . S
C184 C36 1.398 . S
C201 C21 1.449 . S
C220 C56 1.364 . S
C237 C41 1.445 . S
C256 C76 1.408 . S
C273 C96 1.392 . S
C292 C61 1.450 . S
C309 C116 1.397 . S
C328 C81 1.462 . S
C345 C8 1.922 . S
C364 C19 1.940 . S
C381 C28 1.917 . S
C400 C39 1.900 . S
C417 C48 1.927 . S
C436 C59 1.927 . S
C453 C68 1.925 . S
C472 C79 1.908 . S
C489 C99 1.921 . S
C508 C88 1.938 . S
C525 C108 1.918 . S
C544 C119 1.923 . S
C561 C6 1.359 . S
C580 C89 1.407 . S
C597 C26 1.359 . S
C616 C109 1.412 . S
C633 C9 1.394 . S
C652 C46 1.382 . S
C669 C29 1.402 . S
C688 C66 1.365 . S
C705 C86 1.371 . S
C724 C49 1.391 . S
C741 C69 1.394 . S
C760 C106 1.375 . S
