# Generated by pormake.
# Topology rkf, (6)-cn, num edge types: 1
# Building blocks:
#     Node 0, Type 0, BuildingBlock: BETDEL_clean_sbu_0, # of connection points: 6
#     Node 1, Type 0, BuildingBlock: BETDEL_clean_sbu_0, # of connection points: 6
#     Node 2, Type 0, BuildingBlock: BETDEL_clean_sbu_0, # of connection points: 6
#     Node 3, Type 0, BuildingBlock: BETDEL_clean_sbu_0, # of connection points: 6
#     Node 4, Type 0, BuildingBlock: BETDEL_clean_sbu_0, # of connection points: 6
#     Node 5, Type 0, BuildingBlock: BETDEL_clean_sbu_0, # of connection points: 6
#     Edge 6, Type (0, 0), BuildingBlock: AJUNOK_clean_linker_0, # of connection points: 2
#     Edge 7, Type (0, 0), BuildingBlock: AJUNOK_clean_linker_0, # of connection points: 2
#     Edge 8, Type (0, 0), BuildingBlock: AJUNOK_clean_linker_0, # of connection points: 2
#     Edge 9, Type (0, 0), BuildingBlock: AJUNOK_clean_linker_0, # of connection points: 2
#     Edge 10, Type (0, 0), BuildingBlock: AJUNOK_clean_linker_0, # of connection points: 2
#     Edge 11, Type (0, 0), BuildingBlock: AJUNOK_clean_linker_0, # of connection points: 2
#     Edge 12, Type (0, 0), BuildingBlock: AJUNOK_clean_linker_0, # of connection points: 2
#     Edge 13, Type (0, 0), BuildingBlock: AJUNOK_clean_linker_0, # of connection points: 2
#     Edge 14, Type (0, 0), BuildingBlock: AJUNOK_clean_linker_0, # of connection points: 2
#     Edge 15, Type (0, 0), BuildingBlock: AJUNOK_clean_linker_0, # of connection points: 2
#     Edge 16, Type (0, 0), BuildingBlock: AJUNOK_clean_linker_0, # of connection points: 2
#     Edge 17, Type (0, 0), BuildingBlock: AJUNOK_clean_linker_0, # of connection points: 2
#     Edge 18, Type (0, 0), BuildingBlock: AJUNOK_clean_linker_0, # of connection points: 2
#     Edge 19, Type (0, 0), BuildingBlock: AJUNOK_clean_linker_0, # of connection points: 2
#     Edge 20, Type (0, 0), BuildingBlock: AJUNOK_clean_linker_0, # of connection points: 2
#     Edge 21, Type (0, 0), BuildingBlock: AJUNOK_clean_linker_0, # of connection points: 2
#     Edge 22, Type (0, 0), BuildingBlock: AJUNOK_clean_linker_0, # of connection points: 2
#     Edge 23, Type (0, 0), BuildingBlock: AJUNOK_clean_linker_0, # of connection points: 2
# Relax obj value: 0.410
# Max RMSD: 0.270
# Mean RMSD: 0.270
data_MOF--net-rkf--node1-BETDEL_clean_sbu_0--edge1-AJUNOK_clean_linker_0
_symmetry_space_group_name_H-M    P1
_symmetry_Int_Tables_number       1
_symmetry_cell_setting            triclinic
loop_
_symmetry_equiv_pos_as_xyz
'x, y, z'
_cell_length_a     19.536173
_cell_length_b     19.545176
_cell_length_c     28.995005
_cell_angle_alpha  88.675166
_cell_angle_beta   90.257258
_cell_angle_gamma 119.08963
loop_
_atom_site_label
_atom_site_type_symbol
_atom_site_fract_x
_atom_site_fract_y
_atom_site_fract_z
_atom_type_partial_charge
Dy0 Dy 0.17077 0.92687 0.12966 0.0
C1 C 0.24537 0.20765 1.01954 0.0
C2 C 0.11023 0.80191 0.19152 0.0
Dy3 Dy 0.24328 0.09169 1.07625 0.0
O4 O 0.08506 0.80213 0.15006 0.0
O5 O 0.17413 0.86805 0.19708 0.0
O6 O 0.05132 0.90773 0.11349 0.0
O7 O 0.14403 0.02136 0.12083 0.0
C8 C 0.07418 -0.01858 0.10904 0.0
C9 C 0.34181 0.03781 0.09607 0.0
O10 O 0.26916 0.13407 0.14779 0.0
O11 O 0.24389 0.01494 0.18288 0.0
O12 O 0.28786 0.17375 1.01375 0.0
O13 O 0.20498 0.18042 1.05741 0.0
O14 O 0.36497 0.11238 1.08982 0.0
O15 O 0.27107 -0.00276 1.08528 0.0
O16 O 0.16975 0.88957 1.05693 0.0
O17 O 0.17306 0.00146 1.02461 0.0
C18 C 0.27157 0.09205 0.18379 0.0
C19 C 0.16143 0.92911 1.02135 0.0
Dy20 Dy 0.25796 0.19618 0.46912 0.0
C21 C 0.04919 0.23625 0.34574 0.0
C22 C 0.31017 0.13289 0.53727 0.0
Dy23 Dy 0.16464 0.26278 0.40911 0.0
O24 O 0.29544 0.1102 0.49496 0.0
O25 O 0.30488 0.1965 0.54056 0.0
O26 O 0.16983 0.07679 0.44695 0.0
O27 O 0.13735 0.16319 0.45414 0.0
C28 C 0.11551 0.09529 0.44098 0.0
C29 C 0.3069 0.36814 0.43555 0.0
O30 O 0.12613 0.27073 0.48017 0.0
O31 O 0.22682 0.26291 0.51942 0.0
O32 O 0.07211 0.18722 0.35958 0.0
O33 O 0.09071 0.30276 0.36641 0.0
O34 O 0.25416 0.38769 0.42281 0.0
O35 O 0.28454 0.29818 0.42593 0.0
O36 O 0.31685 0.2074 0.40091 0.0
O37 O 0.22544 0.22605 0.35745 0.0
C38 C 0.16836 0.2795 0.51791 0.0
C39 C 0.28454 0.21051 0.36089 0.0
Dy40 Dy 0.02103 0.27174 0.79978 0.0
C41 C 0.78914 0.08224 0.66855 0.0
C42 C 0.12991 0.32202 0.86955 0.0
Dy43 Dy 0.86839 0.18772 0.73632 0.0
O44 O 0.14221 0.31033 0.82724 0.0
O45 O 0.05958 0.31316 0.8724 0.0
O46 O 0.04878 0.17771 0.7809 0.0
O47 O -0.06732 0.15403 0.78354 0.0
C48 C -0.02303 0.12811 0.77215 0.0
C49 C -0.09194 0.33133 0.76162 0.0
O50 O 0.81553 0.148 0.80643 0.0
O51 O -0.0808 0.24604 0.84681 0.0
O52 O 0.75699 0.11175 0.69546 0.0
O53 O 0.8622 0.11028 0.67926 0.0
O54 O 0.83759 0.28312 0.74694 0.0
O55 O -0.04613 0.3051 0.75391 0.0
O56 O 0.07615 0.32841 0.73142 0.0
O57 O -0.03027 0.24303 0.68668 0.0
C58 C 0.84479 0.18991 0.84408 0.0
C59 C 0.04396 0.29809 0.69106 0.0
Dy60 Dy 0.73648 0.05876 0.12118 0.0
C61 C 0.68436 0.79547 1.00329 0.0
C62 C 0.82254 0.13157 0.19688 0.0
Dy63 Dy 0.67495 0.90062 1.06088 0.0
O64 O 0.82076 0.07256 0.17622 0.0
O65 O 0.77581 0.15315 0.17585 0.0
O66 O 0.83867 0.1135 1.07388 0.0
O67 O 0.7853 -0.00724 1.08812 0.0
C68 C 0.83933 0.04907 1.06536 0.0
C69 C 0.5586 0.92221 1.09179 0.0
O70 O 0.66528 0.85203 0.13258 0.0
O71 O 0.66649 -0.04278 0.17015 0.0
O72 O 0.64262 0.83004 0.99599 0.0
O73 O 0.72011 0.81768 1.0426 0.0
O74 O 0.54494 0.86092 1.06798 0.0
O75 O 0.63084 -0.03769 0.09732 0.0
O76 O 0.705 0.10174 1.05672 0.0
O77 O 0.70114 0.00073 1.01141 0.0
C78 C 0.65569 0.88451 0.17013 0.0
C79 C 0.70145 0.06876 1.01617 0.0
Dy80 Dy 0.68758 0.76371 0.45181 0.0
C81 C 0.8784 0.68366 0.33672 0.0
C82 C 0.69198 0.8579 0.52132 0.0
Dy83 Dy 0.76845 0.68706 0.39424 0.0
O84 O 0.75068 0.8539 0.50366 0.0
O85 O 0.62649 0.80723 0.50141 0.0
O86 O 0.75061 0.86801 0.40614 0.0
O87 O 0.80377 0.80028 0.42374 0.0
C88 C 0.81202 0.85994 0.40108 0.0
C89 C 0.63193 0.58566 0.43271 0.0
O90 O 0.80782 0.67848 0.46524 0.0
O91 O 0.71017 0.69021 0.50377 0.0
O92 O 0.89209 0.7175 0.37625 0.0
O93 O 0.80328 0.64912 0.32904 0.0
O94 O 0.68361 0.5652 0.42021 0.0
O95 O 0.65253 0.65383 0.41799 0.0
O96 O 0.62303 0.75174 0.38593 0.0
O97 O 0.71097 0.72945 0.34195 0.0
C98 C 0.7679 0.67286 0.50326 0.0
C99 C 0.65174 0.7449 0.34556 0.0
Dy100 Dy 0.87786 0.69776 0.78604 0.0
C101 C 0.16177 0.89601 0.67994 0.0
C102 C 0.76772 0.6541 0.8555 0.0
Dy103 Dy 0.04221 0.78779 0.73531 0.0
O104 O 0.76218 0.67818 0.81424 0.0
O105 O 0.82944 0.6451 0.8566 0.0
O106 O 0.83629 0.76523 0.74344 0.0
O107 O -0.04514 0.81671 0.76098 0.0
C108 C 0.90498 0.82505 0.73715 0.0
C109 C 0.0103 0.6531 0.7785 0.0
O110 O 0.07989 0.83673 0.80459 0.0
O111 O -0.03546 0.7511 0.8432 0.0
O112 O 0.12404 0.82077 0.67345 0.0
O113 O 0.13487 0.91089 0.71693 0.0
O114 O 0.08182 0.70779 0.76911 0.0
O115 O -0.03667 0.66979 0.75846 0.0
O116 O 0.84596 0.63032 0.72096 0.0
O117 O -0.04794 0.73096 0.6801 0.0
C118 C 0.03871 0.80669 0.84284 0.0
C119 C 0.88337 0.66504 0.68165 0.0
C120 C -0.08798 -0.01666 1.04254 0.0
C121 C -0.08634 0.05076 1.05909 0.0
C122 C -0.03104 -0.03592 1.05617 0.0
C123 C 0.02819 0.012 1.0866 0.0
H124 H 0.86241 -0.05846 1.02303 0.0
H125 H -0.03678 0.90867 1.04564 0.0
S126 S 0.06554 0.20191 0.13251 0.0
N127 N -0.01346 0.17259 0.1005 0.0
N128 N 0.09145 0.13354 0.12822 0.0
C129 C 0.03576 0.08398 0.09889 0.0
C130 C -0.02108 0.10455 1.08416 0.0
C131 C -0.04665 0.91827 0.38799 0.0
C132 C 0.88873 0.9289 0.39647 0.0
C133 C 0.02813 -0.02485 0.40027 0.0
C134 C 0.03957 0.04365 0.4215 0.0
H135 H -0.05454 0.86361 0.37492 0.0
H136 H 0.07641 -0.03659 0.39542 0.0
S137 S 0.89115 0.10572 0.44265 0.0
N138 N 0.84215 0.01854 0.41973 0.0
N139 N -0.01712 0.1241 0.44512 0.0
C140 C -0.0234 0.05834 0.42611 0.0
C141 C 0.9008 0.00128 0.41255 0.0
C142 C -0.00983 -0.03617 0.71911 0.0
C143 C -0.0857 0.90208 0.72679 0.0
C144 C 0.0092 0.03945 0.73079 0.0
C145 C -0.04788 0.05437 0.74981 0.0
H146 H 0.0364 -0.04744 0.70832 0.0
H147 H 0.06987 0.08499 0.72809 0.0
S148 S 0.7395 0.9164 0.76192 0.0
N149 N 0.77754 0.8632 0.74275 0.0
N150 N 0.81375 0.00599 0.76604 0.0
C151 C 0.87356 -0.00455 0.7507 0.0
C152 C 0.85418 0.91863 0.73825 0.0
C153 C 0.16853 0.27165 0.99059 0.0
C154 C 0.22958 0.25399 0.98368 0.0
C155 C 0.14099 0.30059 0.95429 0.0
C156 C 0.17344 0.31319 0.90959 0.0
H157 H 0.13852 0.2587 1.02361 0.0
H158 H 0.09059 0.30829 0.96069 0.0
S159 S 0.34184 0.28682 0.87496 0.0
N160 N 0.32711 0.25925 0.92993 0.0
N161 N 0.27598 0.31392 0.86193 0.0
C162 C 0.23863 0.30171 0.90321 0.0
C163 C 0.26646 0.27197 0.94015 0.0
C164 C -0.06129 0.13482 0.3017 0.0
C165 C -0.01533 0.21461 0.31167 0.0
C166 C 0.88315 0.10965 0.26655 0.0
C167 C 0.87019 0.1627 0.2393 0.0
H168 H -0.05279 0.09087 0.32033 0.0
H169 H 0.85176 0.04757 0.25961 0.0
S170 S -0.03002 0.37785 0.25319 0.0
N171 N 0.0097 0.34687 0.29329 0.0
N172 N 0.90466 0.29901 0.22648 0.0
C173 C -0.08766 0.24251 0.25022 0.0
C174 C -0.03028 0.26856 0.28653 0.0
C175 C 0.80493 0.03747 0.5925 0.0
C176 C 0.7542 0.02948 0.62887 0.0
C177 C 0.78128 -0.01641 0.55713 0.0
C178 C 0.70563 0.9182 0.55615 0.0
H179 H 0.86486 0.08498 0.59193 0.0
H180 H 0.82432 -0.00779 0.53093 0.0
S181 S 0.54794 0.87187 0.64192 0.0
N182 N 0.62279 -0.04685 0.66086 0.0
N183 N 0.57805 0.8505 0.59382 0.0
C184 C 0.65239 0.91098 0.59102 0.0
C185 C 0.67677 -0.0331 0.62751 0.0
C186 C 0.65859 0.7318 0.92623 0.0
C187 C 0.6966 0.74641 0.96915 0.0
C188 C 0.67708 0.69537 0.89081 0.0
C189 C 0.73418 0.67171 0.8968 0.0
H190 H 0.61664 0.7518 0.91912 0.0
H191 H 0.64941 0.68966 0.85759 0.0
S192 S 0.84586 0.69016 1.00413 0.0
N193 N 0.79011 0.72922 1.01674 0.0
N194 N 0.82447 0.66054 0.95052 0.0
C195 C 0.76903 0.68149 0.94057 0.0
C196 C 0.75047 0.719 0.9766 0.0
C197 C -0.08002 0.67557 0.25608 0.0
C198 C -0.05973 0.698 0.30203 0.0
C199 C -0.0229 0.70315 0.22082 0.0
C200 C 0.05673 0.75456 0.23009 0.0
H201 H 0.85903 0.64044 0.24673 0.0
H202 H -0.0423 0.68853 0.18559 0.0
S203 S 0.14196 0.81949 0.34597 0.0
N204 N 0.04695 0.76578 0.35582 0.0
N205 N 0.1538 0.8179 0.28971 0.0
C206 C 0.07853 0.77151 0.27648 0.0
C207 C 0.02041 0.74329 0.31238 0.0
C208 C 0.24073 0.03678 0.65498 0.0
C209 C 0.21596 -0.0426 0.64659 0.0
C210 C 0.27909 0.09525 0.62073 0.0
C211 C 0.29434 0.07675 0.57667 0.0
H212 H 0.22626 0.05349 0.68735 0.0
H213 H 0.2917 0.15441 0.62784 0.0
S214 S 0.25345 0.87971 0.5398 0.0
N215 N 0.21835 0.86493 0.59299 0.0
N216 N 0.29083 -0.02548 0.52874 0.0
C217 C 0.27629 -0.00133 0.56931 0.0
C218 C 0.23685 -0.06096 0.60419 0.0
C219 C 0.47437 0.05543 0.11081 0.0
C220 C 0.3941 0.00488 0.1045 0.0
C221 C 0.5273 0.02672 0.11066 0.0
C222 C 0.50147 -0.05283 0.10309 0.0
H223 H 0.49686 0.11787 0.11375 0.0
H224 H 0.58913 0.068 0.11367 0.0
S225 S 0.29601 0.78851 0.09568 0.0
N226 N 0.28994 0.86949 0.09964 0.0
N227 N 0.39048 0.81646 0.09692 0.0
C228 C 0.42101 0.89505 0.10105 0.0
C229 C 0.36692 0.92389 0.10235 0.0
C230 C 0.44419 0.39694 0.44521 0.0
C231 C 0.38869 0.42319 0.44605 0.0
C232 C 0.52424 0.45004 0.44484 0.0
C233 C 0.55081 0.53068 0.44583 0.0
H234 H 0.42604 0.33543 0.44182 0.0
H235 H 0.56507 0.428 0.44062 0.0
S236 S 0.42932 0.62704 0.46125 0.0
N237 N 0.36539 0.5331 0.45679 0.0
N238 N 0.51656 0.63343 0.45749 0.0
C239 C 0.49613 0.55689 0.45256 0.0
C240 C 0.41456 0.50283 0.4523 0.0
C241 C 0.0153 0.46504 0.77664 0.0
C242 C -0.06532 0.4107 0.77725 0.0
C243 C 0.04153 0.54467 0.78248 0.0
C244 C -0.01238 0.57139 0.78932 0.0
H245 H 0.05808 0.44701 0.76837 0.0
H246 H 0.10329 0.58569 0.77762 0.0
S247 S 0.7728 0.44959 0.80617 0.0
N248 N 0.80307 0.38646 0.79414 0.0
N249 N 0.85226 0.53633 0.80566 0.0
C250 C -0.09196 0.51631 0.79586 0.0
C251 C 0.88139 0.43558 0.78951 0.0
C252 C 0.30432 0.20544 0.23381 0.0
C253 C 0.29854 0.13149 0.22841 0.0
C254 C 0.31005 0.23595 0.27756 0.0
C255 C 0.31098 0.19409 0.31736 0.0
H256 H 0.29797 0.23741 0.2046 0.0
H257 H 0.30698 0.2896 0.28048 0.0
S258 S 0.31855 0.00858 0.32144 0.0
N259 N 0.31022 0.02474 0.26606 0.0
N260 N 0.32035 0.08277 0.34862 0.0
C261 C 0.31558 0.12537 0.31229 0.0
C262 C 0.30927 0.09371 0.26761 0.0
C263 C 0.18514 0.30369 0.60285 0.0
C264 C 0.14667 0.30322 0.56137 0.0
C265 C 0.15735 0.3124 0.64562 0.0
C266 C 0.09034 0.32099 0.64823 0.0
H267 H 0.2342 0.2924 0.6028 0.0
H268 H 0.18408 0.30514 0.67685 0.0
S269 S -0.02266 0.33937 0.5503 0.0
N270 N 0.04499 0.32447 0.52587 0.0
N271 N -0.0071 0.34004 0.60632 0.0
C272 C 0.05617 0.32852 0.60707 0.0
C273 C 0.08423 0.31974 0.56358 0.0
C274 C 0.82669 0.21298 0.9267 0.0
C275 C 0.79525 0.17005 0.88627 0.0
C276 C 0.78859 0.18601 0.96945 0.0
C277 C 0.71802 0.11522 0.97311 0.0
H278 H 0.88385 0.26481 0.92614 0.0
H279 H 0.81895 0.21607 1.00024 0.0
S280 S 0.60168 -0.00922 0.87708 0.0
N281 N 0.6815 0.06091 0.85197 0.0
N282 N 0.61104 0.01028 0.93257 0.0
C283 C 0.6812 0.07729 0.93247 0.0
C284 C 0.71968 0.10455 0.88892 0.0
C285 C 0.63776 0.76907 0.218 0.0
C286 C 0.63468 0.83937 0.21449 0.0
C287 C 0.6345 0.73367 0.26098 0.0
C288 C 0.62754 0.76686 0.30203 0.0
H289 H 0.64798 0.7437 0.18775 0.0
H290 H 0.64303 0.68285 0.26226 0.0
S291 S 0.60201 -0.0582 0.31151 0.0
N292 N 0.61208 -0.06573 0.25565 0.0
N293 N 0.60691 0.86752 0.33641 0.0
C294 C 0.61616 0.8323 0.29888 0.0
C295 C 0.61973 0.86878 0.25507 0.0
C296 C 0.74243 0.63505 0.587 0.0
C297 C 0.79017 0.65002 0.54756 0.0
C298 C 0.76914 0.62942 0.63111 0.0
C299 C 0.84451 0.63899 0.63709 0.0
H300 H 0.68589 0.63244 0.58425 0.0
H301 H 0.73365 0.62513 0.6608 0.0
S302 S -0.01353 0.66349 0.54526 0.0
N303 N -0.08814 0.66188 0.51736 0.0
N304 N -0.03819 0.65207 0.6004 0.0
C305 C 0.88936 0.64559 0.59787 0.0
C306 C 0.86227 0.65095 0.55297 0.0
C307 C 0.04828 0.78826 0.92768 0.0
C308 C 0.07632 0.83631 0.88758 0.0
C309 C 0.07966 0.81675 0.97111 0.0
C310 C 0.13915 0.89441 0.97567 0.0
H311 H 0.00087 0.7286 0.92564 0.0
H312 H 0.05458 0.77917 1.00138 0.0
S313 S 0.2357 0.04274 0.88144 0.0
N314 N 0.16947 -0.03586 0.85524 0.0
N315 N 0.22823 0.01766 0.93668 0.0
C316 C 0.16967 -0.05795 0.93572 0.0
C317 C 0.1383 0.913 0.89165 0.0
loop_
_geom_bond_atom_site_label_1
_geom_bond_atom_site_label_2
_geom_bond_distance
_geom_bond_site_symmetry_2
_ccdc_geom_bond_type
Dy0 O4 2.398 . S
Dy0 O5 2.491 . S
Dy0 O6 2.403 1_565 S
Dy0 O7 2.664 1_564 S
Dy0 O11 2.326 1_565 S
Dy0 O15 2.310 1_565 S
Dy0 O16 2.351 1_554 S
C1 O12 1.185 . S
C1 O13 1.355 . S
C2 O4 1.185 . S
C2 O5 1.355 . S
Dy3 O7 2.310 . S
Dy3 O10 2.351 1_556 S
Dy3 O12 2.398 . S
Dy3 O13 2.491 . S
Dy3 O14 2.403 . S
Dy3 O15 2.664 1_556 S
Dy3 O17 2.326 . S
O4 Dy0 2.398 . S
O4 C2 1.185 . S
O5 Dy0 2.491 . S
O5 C2 1.355 . S
O6 Dy0 2.403 1_545 S
O6 C8 1.254 . S
O7 Dy0 2.664 1_546 S
O7 Dy3 2.310 . S
O7 C8 1.268 1_556 S
C8 O6 1.254 . S
C8 O7 1.268 1_554 S
C9 O14 1.254 1_554 S
C9 O15 1.268 . S
O10 Dy3 2.351 1_554 S
O10 C18 1.249 . S
O11 Dy0 2.326 1_545 S
O11 C18 1.267 . S
O12 C1 1.185 . S
O12 Dy3 2.398 . S
O13 C1 1.355 . S
O13 Dy3 2.491 . S
O14 Dy3 2.403 . S
O14 C9 1.254 1_556 S
O15 Dy0 2.310 1_545 S
O15 Dy3 2.664 1_554 S
O15 C9 1.268 . S
O16 Dy0 2.351 1_556 S
O16 C19 1.249 1_565 S
O17 Dy3 2.326 . S
O17 C19 1.267 . S
C18 O10 1.249 . S
C18 O11 1.267 . S
C19 O16 1.249 1_545 S
C19 O17 1.267 . S
Dy20 O24 2.398 . S
Dy20 O25 2.491 . S
Dy20 O26 2.403 . S
Dy20 O27 2.664 . S
Dy20 O31 2.326 . S
Dy20 O35 2.310 . S
Dy20 O36 2.351 . S
C21 O32 1.185 . S
C21 O33 1.355 . S
C22 O24 1.185 . S
C22 O25 1.355 . S
Dy23 O27 2.310 . S
Dy23 O30 2.351 . S
Dy23 O32 2.398 . S
Dy23 O33 2.491 . S
Dy23 O34 2.403 . S
Dy23 O35 2.664 . S
Dy23 O37 2.326 . S
O24 Dy20 2.398 . S
O24 C22 1.185 . S
O25 Dy20 2.491 . S
O25 C22 1.355 . S
O26 Dy20 2.403 . S
O26 C28 1.254 . S
O27 Dy20 2.664 . S
O27 Dy23 2.310 . S
O27 C28 1.268 . S
C28 O26 1.254 . S
C28 O27 1.268 . S
C29 O34 1.254 . S
C29 O35 1.268 . S
O30 Dy23 2.351 . S
O30 C38 1.249 . S
O31 Dy20 2.326 . S
O31 C38 1.267 . S
O32 C21 1.185 . S
O32 Dy23 2.398 . S
O33 C21 1.355 . S
O33 Dy23 2.491 . S
O34 Dy23 2.403 . S
O34 C29 1.254 . S
O35 Dy20 2.310 . S
O35 Dy23 2.664 . S
O35 C29 1.268 . S
O36 Dy20 2.351 . S
O36 C39 1.249 . S
O37 Dy23 2.326 . S
O37 C39 1.267 . S
C38 O30 1.249 . S
C38 O31 1.267 . S
C39 O36 1.249 . S
C39 O37 1.267 . S
Dy40 O44 2.398 . S
Dy40 O45 2.491 . S
Dy40 O46 2.403 . S
Dy40 O47 2.664 1_455 S
Dy40 O51 2.326 1_455 S
Dy40 O55 2.310 . S
Dy40 O56 2.351 . S
C41 O52 1.185 . S
C41 O53 1.355 . S
C42 O44 1.185 . S
C42 O45 1.355 . S
Dy43 O47 2.310 . S
Dy43 O50 2.351 . S
Dy43 O52 2.398 . S
Dy43 O53 2.491 . S
Dy43 O54 2.403 . S
Dy43 O55 2.664 1_655 S
Dy43 O57 2.326 1_655 S
O44 Dy40 2.398 . S
O44 C42 1.185 . S
O45 Dy40 2.491 . S
O45 C42 1.355 . S
O46 Dy40 2.403 . S
O46 C48 1.254 . S
O47 Dy40 2.664 1_655 S
O47 Dy43 2.310 . S
O47 C48 1.268 1_655 S
C48 O46 1.254 . S
C48 O47 1.268 1_455 S
C49 O54 1.254 . S
C49 O55 1.268 1_655 S
O50 Dy43 2.351 . S
O50 C58 1.249 . S
O51 Dy40 2.326 1_655 S
O51 C58 1.267 . S
O52 C41 1.185 . S
O52 Dy43 2.398 . S
O53 C41 1.355 . S
O53 Dy43 2.491 . S
O54 Dy43 2.403 . S
O54 C49 1.254 . S
O55 Dy40 2.310 . S
O55 Dy43 2.664 1_455 S
O55 C49 1.268 1_455 S
O56 Dy40 2.351 . S
O56 C59 1.249 . S
O57 Dy43 2.326 1_455 S
O57 C59 1.267 . S
C58 O50 1.249 . S
C58 O51 1.267 . S
C59 O56 1.249 . S
C59 O57 1.267 . S
Dy60 O64 2.398 . S
Dy60 O65 2.491 . S
Dy60 O66 2.403 1_655 S
Dy60 O67 2.664 1_544 S
Dy60 O71 2.326 1_545 S
Dy60 O75 2.310 . S
Dy60 O76 2.351 1_554 S
C61 O72 1.185 . S
C61 O73 1.355 . S
C62 O64 1.185 . S
C62 O65 1.355 . S
Dy63 O67 2.310 . S
Dy63 O70 2.351 1_556 S
Dy63 O72 2.398 . S
Dy63 O73 2.491 . S
Dy63 O74 2.403 . S
Dy63 O75 2.664 1_566 S
Dy63 O77 2.326 1_565 S
O64 Dy60 2.398 . S
O64 C62 1.185 . S
O65 Dy60 2.491 . S
O65 C62 1.355 . S
O66 Dy60 2.403 1_455 S
O66 C68 1.254 1_455 S
O67 Dy60 2.664 1_566 S
O67 Dy63 2.310 . S
O67 C68 1.268 1_566 S
C68 O66 1.254 1_655 S
C68 O67 1.268 1_544 S
C69 O74 1.254 1_554 S
C69 O75 1.268 1_565 S
O70 Dy63 2.351 1_554 S
O70 C78 1.249 . S
O71 Dy60 2.326 1_565 S
O71 C78 1.267 . S
O72 C61 1.185 . S
O72 Dy63 2.398 . S
O73 C61 1.355 . S
O73 Dy63 2.491 . S
O74 Dy63 2.403 . S
O74 C69 1.254 1_556 S
O75 Dy60 2.310 . S
O75 Dy63 2.664 1_544 S
O75 C69 1.268 1_545 S
O76 Dy60 2.351 1_556 S
O76 C79 1.249 . S
O77 Dy63 2.326 1_545 S
O77 C79 1.267 . S
C78 O70 1.249 . S
C78 O71 1.267 . S
C79 O76 1.249 . S
C79 O77 1.267 . S
Dy80 O84 2.398 . S
Dy80 O85 2.491 . S
Dy80 O86 2.403 1_565 S
Dy80 O87 2.664 . S
Dy80 O91 2.326 . S
Dy80 O95 2.310 . S
Dy80 O96 2.351 . S
C81 O92 1.185 . S
C81 O93 1.355 1_655 S
C82 O84 1.185 . S
C82 O85 1.355 . S
Dy83 O87 2.310 . S
Dy83 O90 2.351 . S
Dy83 O92 2.398 . S
Dy83 O93 2.491 1_655 S
Dy83 O94 2.403 . S
Dy83 O95 2.664 . S
Dy83 O97 2.326 . S
O84 Dy80 2.398 . S
O84 C82 1.185 . S
O85 Dy80 2.491 . S
O85 C82 1.355 . S
O86 Dy80 2.403 1_545 S
O86 C88 1.254 1_645 S
O87 Dy80 2.664 . S
O87 Dy83 2.310 . S
O87 C88 1.268 1_655 S
C88 O86 1.254 1_465 S
C88 O87 1.268 1_455 S
C89 O94 1.254 . S
C89 O95 1.268 . S
O90 Dy83 2.351 . S
O90 C98 1.249 . S
O91 Dy80 2.326 . S
O91 C98 1.267 . S
O92 C81 1.185 . S
O92 Dy83 2.398 . S
O93 C81 1.355 1_455 S
O93 Dy83 2.491 1_455 S
O94 Dy83 2.403 . S
O94 C89 1.254 . S
O95 Dy80 2.310 . S
O95 Dy83 2.664 . S
O95 C89 1.268 . S
O96 Dy80 2.351 . S
O96 C99 1.249 . S
O97 Dy83 2.326 . S
O97 C99 1.267 . S
C98 O90 1.249 . S
C98 O91 1.267 . S
C99 O96 1.249 . S
C99 O97 1.267 . S
Dy100 O104 2.398 . S
Dy100 O105 2.491 . S
Dy100 O106 2.403 1_655 S
Dy100 O107 2.664 1_655 S
Dy100 O111 2.326 1_655 S
Dy100 O115 2.310 1_655 S
Dy100 O116 2.351 . S
C101 O112 1.185 . S
C101 O113 1.355 1_565 S
C102 O104 1.185 . S
C102 O105 1.355 . S
Dy103 O107 2.310 . S
Dy103 O110 2.351 . S
Dy103 O112 2.398 . S
Dy103 O113 2.491 1_565 S
Dy103 O114 2.403 . S
Dy103 O115 2.664 . S
Dy103 O117 2.326 . S
O104 Dy100 2.398 . S
O104 C102 1.185 . S
O105 Dy100 2.491 . S
O105 C102 1.355 . S
O106 Dy100 2.403 1_455 S
O106 C108 1.254 1_565 S
O107 Dy100 2.664 1_455 S
O107 Dy103 2.310 . S
O107 C108 1.268 1_565 S
C108 O106 1.254 1_545 S
C108 O107 1.268 1_545 S
C109 O114 1.254 . S
C109 O115 1.268 . S
O110 Dy103 2.351 . S
O110 C118 1.249 . S
O111 Dy100 2.326 1_455 S
O111 C118 1.267 . S
O112 C101 1.185 . S
O112 Dy103 2.398 . S
O113 C101 1.355 1_545 S
O113 Dy103 2.491 1_545 S
O114 Dy103 2.403 . S
O114 C109 1.254 . S
O115 Dy100 2.310 1_455 S
O115 Dy103 2.664 . S
O115 C109 1.268 . S
O116 Dy100 2.351 . S
O116 C119 1.249 1_655 S
O117 Dy103 2.326 . S
O117 C119 1.267 . S
C118 O110 1.249 . S
C118 O111 1.267 . S
C119 O116 1.249 1_455 S
C119 O117 1.267 . S
C120 C121 1.371 1_455 S
C120 C122 1.419 1_565 S
C120 H124 0.930 . S
C121 C120 1.371 1_655 S
C121 C130 1.427 1_566 S
C122 C120 1.419 1_545 S
C122 C123 1.365 . S
C122 H125 0.929 . S
C123 C122 1.365 . S
C123 C129 1.427 1_556 S
H124 C120 0.930 . S
H125 C122 0.929 . S
S126 N127 1.613 . S
S126 N128 1.610 1_655 S
N127 S126 1.613 . S
N127 C130 1.350 . S
N128 S126 1.610 1_455 S
N128 C129 1.351 . S
C129 C123 1.427 1_554 S
C129 N128 1.351 . S
C129 C130 1.434 1_455 S
C130 C121 1.427 1_544 S
C130 N127 1.350 . S
C130 C129 1.434 1_655 S
C131 C132 1.369 1_545 S
C131 C133 1.419 . S
C131 H135 0.930 . S
C132 C131 1.369 1_565 S
C132 C141 1.429 1_455 S
C133 C131 1.419 . S
C133 C134 1.363 . S
C133 H136 0.929 . S
C134 C133 1.363 . S
C134 C140 1.428 1_455 S
H135 C131 0.930 . S
H136 C133 0.929 . S
S137 N138 1.613 . S
S137 N139 1.610 1_565 S
N138 S137 1.613 . S
N138 C141 1.350 . S
N139 S137 1.610 1_545 S
N139 C140 1.351 . S
C140 C134 1.428 1_655 S
C140 N139 1.351 . S
C140 C141 1.434 1_545 S
C141 C132 1.429 1_655 S
C141 N138 1.350 . S
C141 C140 1.434 1_565 S
C142 C143 1.369 . S
C142 C144 1.419 . S
C142 H146 0.930 . S
C143 C142 1.369 . S
C143 C152 1.429 . S
C144 C142 1.419 . S
C144 C145 1.363 1_455 S
C144 H147 0.929 1_455 S
C145 C144 1.363 1_655 S
C145 C151 1.428 1_655 S
H146 C142 0.930 . S
H147 C144 0.929 1_655 S
S148 N149 1.613 . S
S148 N150 1.610 . S
N149 S148 1.613 . S
N149 C152 1.350 . S
N150 S148 1.610 . S
N150 C151 1.351 . S
C151 C145 1.428 1_455 S
C151 N150 1.351 . S
C151 C152 1.434 . S
C152 C143 1.429 . S
C152 N149 1.350 . S
C152 C151 1.434 . S
C153 C154 1.369 . S
C153 C155 1.419 . S
C153 H157 0.930 . S
C154 C153 1.369 . S
C154 C163 1.429 . S
C155 C153 1.419 . S
C155 C156 1.363 . S
C155 H158 0.929 . S
C156 C155 1.363 . S
C156 C162 1.428 . S
H157 C153 0.930 . S
H158 C155 0.929 . S
S159 N160 1.613 . S
S159 N161 1.610 . S
N160 S159 1.613 . S
N160 C163 1.350 . S
N161 S159 1.610 . S
N161 C162 1.351 . S
C162 C156 1.428 . S
C162 N161 1.351 . S
C162 C163 1.434 . S
C163 C154 1.429 . S
C163 N160 1.350 . S
C163 C162 1.434 . S
C164 C165 1.369 . S
C164 C166 1.419 1_455 S
C164 H168 0.930 . S
C165 C164 1.369 . S
C165 C174 1.429 . S
C166 C164 1.419 1_655 S
C166 C167 1.363 . S
C166 H169 0.929 . S
C167 C166 1.363 . S
C167 C173 1.428 . S
H168 C164 0.930 . S
H169 C166 0.929 . S
S170 N171 1.613 . S
S170 N172 1.610 1_455 S
N171 S170 1.613 . S
N171 C174 1.350 . S
N172 S170 1.610 1_655 S
N172 C173 1.351 . S
C173 C167 1.428 . S
C173 N172 1.351 . S
C173 C174 1.434 1_655 S
C174 C165 1.429 . S
C174 N171 1.350 . S
C174 C173 1.434 1_455 S
C175 C176 1.369 . S
C175 C177 1.419 . S
C175 H179 0.930 . S
C176 C175 1.369 . S
C176 C185 1.429 . S
C177 C175 1.419 . S
C177 C178 1.363 1_545 S
C177 H180 0.933 . S
C178 C177 1.363 1_565 S
C178 C184 1.428 . S
H179 C175 0.930 . S
H180 C177 0.933 . S
S181 N182 1.613 1_565 S
S181 N183 1.610 . S
N182 S181 1.613 1_545 S
N182 C185 1.350 . S
N183 S181 1.610 . S
N183 C184 1.351 . S
C184 C178 1.428 . S
C184 N183 1.351 . S
C184 C185 1.434 1_565 S
C185 C176 1.429 . S
C185 N182 1.350 . S
C185 C184 1.434 1_545 S
C186 C187 1.369 . S
C186 C188 1.419 . S
C186 H190 0.930 . S
C187 C186 1.369 . S
C187 C196 1.429 . S
C188 C186 1.419 . S
C188 C189 1.363 . S
C188 H191 0.929 . S
C189 C188 1.363 . S
C189 C195 1.428 . S
H190 C186 0.930 . S
H191 C188 0.929 . S
S192 N193 1.613 . S
S192 N194 1.610 . S
N193 S192 1.613 . S
N193 C196 1.350 . S
N194 S192 1.610 . S
N194 C195 1.351 . S
C195 C189 1.428 . S
C195 N194 1.351 . S
C195 C196 1.434 . S
C196 C187 1.429 . S
C196 N193 1.350 . S
C196 C195 1.434 . S
C197 C198 1.369 . S
C197 C199 1.419 . S
C197 H201 0.930 1_455 S
C198 C197 1.369 . S
C198 C207 1.429 . S
C199 C197 1.419 . S
C199 C200 1.363 . S
C199 H202 0.929 . S
C200 C199 1.363 . S
C200 C206 1.428 . S
H201 C197 0.930 1_655 S
H202 C199 0.929 . S
S203 N204 1.613 . S
S203 N205 1.610 . S
N204 S203 1.613 . S
N204 C207 1.350 . S
N205 S203 1.610 . S
N205 C206 1.351 . S
C206 C200 1.428 . S
C206 N205 1.351 . S
C206 C207 1.434 . S
C207 C198 1.429 . S
C207 N204 1.350 . S
C207 C206 1.434 . S
C208 C209 1.369 . S
C208 C210 1.419 . S
C208 H212 0.930 . S
C209 C208 1.369 . S
C209 C218 1.429 . S
C210 C208 1.419 . S
C210 C211 1.363 . S
C210 H213 0.929 . S
C211 C210 1.363 . S
C211 C217 1.428 . S
H212 C208 0.930 . S
H213 C210 0.929 . S
S214 N215 1.613 . S
S214 N216 1.610 1_565 S
N215 S214 1.613 . S
N215 C218 1.350 1_565 S
N216 S214 1.610 1_545 S
N216 C217 1.351 . S
C217 C211 1.428 . S
C217 N216 1.351 . S
C217 C218 1.434 . S
C218 C209 1.429 . S
C218 N215 1.350 1_545 S
C218 C217 1.434 . S
C219 C220 1.369 1_556 S
C219 C221 1.419 . S
C219 H223 0.930 . S
C220 C219 1.369 1_554 S
C220 C229 1.429 . S
C221 C219 1.419 . S
C221 C222 1.363 1_556 S
C221 H224 0.929 . S
C222 C221 1.363 1_554 S
C222 C228 1.428 1_545 S
H223 C219 0.930 . S
H224 C221 0.929 . S
S225 N226 1.613 . S
S225 N227 1.610 . S
N226 S225 1.613 . S
N226 C229 1.350 1_565 S
N227 S225 1.610 . S
N227 C228 1.351 . S
C228 C222 1.428 1_565 S
C228 N227 1.351 . S
C228 C229 1.434 1_565 S
C229 C220 1.429 . S
C229 N226 1.350 1_545 S
C229 C228 1.434 1_545 S
C230 C231 1.369 . S
C230 C232 1.419 . S
C230 H234 0.930 . S
C231 C230 1.369 . S
C231 C240 1.429 . S
C232 C230 1.419 . S
C232 C233 1.363 . S
C232 H235 0.929 . S
C233 C232 1.363 . S
C233 C239 1.428 . S
H234 C230 0.930 . S
H235 C232 0.929 . S
S236 N237 1.613 . S
S236 N238 1.610 . S
N237 S236 1.613 . S
N237 C240 1.350 . S
N238 S236 1.610 . S
N238 C239 1.351 . S
C239 C233 1.428 . S
C239 N238 1.351 . S
C239 C240 1.434 . S
C240 C231 1.429 . S
C240 N237 1.350 . S
C240 C239 1.434 . S
C241 C242 1.369 . S
C241 C243 1.419 . S
C241 H245 0.930 . S
C242 C241 1.369 . S
C242 C251 1.429 . S
C243 C241 1.419 . S
C243 C244 1.363 . S
C243 H246 0.929 . S
C244 C243 1.363 . S
C244 C250 1.428 . S
H245 C241 0.930 . S
H246 C243 0.929 . S
S247 N248 1.613 1_455 S
S247 N249 1.610 . S
N248 S247 1.613 1_655 S
N248 C251 1.350 1_655 S
N249 S247 1.610 . S
N249 C250 1.351 . S
C250 C244 1.428 . S
C250 N249 1.351 . S
C250 C251 1.434 . S
C251 C242 1.429 . S
C251 N248 1.350 1_455 S
C251 C250 1.434 . S
C252 C253 1.369 . S
C252 C254 1.419 . S
C252 H256 0.930 . S
C253 C252 1.369 . S
C253 C262 1.429 . S
C254 C252 1.419 . S
C254 C255 1.363 . S
C254 H257 0.929 . S
C255 C254 1.363 . S
C255 C261 1.428 . S
H256 C252 0.930 . S
H257 C254 0.929 . S
S258 N259 1.613 . S
S258 N260 1.610 . S
N259 S258 1.613 . S
N259 C262 1.350 . S
N260 S258 1.610 . S
N260 C261 1.351 . S
C261 C255 1.428 . S
C261 N260 1.351 . S
C261 C262 1.434 . S
C262 C253 1.429 . S
C262 N259 1.350 . S
C262 C261 1.434 . S
C263 C264 1.369 . S
C263 C265 1.419 . S
C263 H267 0.930 . S
C264 C263 1.369 . S
C264 C273 1.429 . S
C265 C263 1.419 . S
C265 C266 1.363 . S
C265 H268 0.929 . S
C266 C265 1.363 . S
C266 C272 1.428 . S
H267 C263 0.930 . S
H268 C265 0.929 . S
S269 N270 1.613 . S
S269 N271 1.610 . S
N270 S269 1.613 . S
N270 C273 1.350 . S
N271 S269 1.610 . S
N271 C272 1.351 . S
C272 C266 1.428 . S
C272 N271 1.351 . S
C272 C273 1.434 . S
C273 C264 1.429 . S
C273 N270 1.350 . S
C273 C272 1.434 . S
C274 C275 1.369 . S
C274 C276 1.419 . S
C274 H278 0.930 . S
C275 C274 1.369 . S
C275 C284 1.429 . S
C276 C274 1.419 . S
C276 C277 1.363 . S
C276 H279 0.929 . S
C277 C276 1.363 . S
C277 C283 1.428 . S
H278 C274 0.930 . S
H279 C276 0.929 . S
S280 N281 1.613 . S
S280 N282 1.610 . S
N281 S280 1.613 . S
N281 C284 1.350 1_565 S
N282 S280 1.610 . S
N282 C283 1.351 1_565 S
C283 C277 1.428 . S
C283 N282 1.351 1_545 S
C283 C284 1.434 . S
C284 C275 1.429 . S
C284 N281 1.350 1_545 S
C284 C283 1.434 . S
C285 C286 1.369 . S
C285 C287 1.419 . S
C285 H289 0.930 . S
C286 C285 1.369 . S
C286 C295 1.429 . S
C287 C285 1.419 . S
C287 C288 1.363 . S
C287 H290 0.929 . S
C288 C287 1.363 . S
C288 C294 1.428 . S
H289 C285 0.930 . S
H290 C287 0.929 . S
S291 N292 1.613 . S
S291 N293 1.610 . S
N292 S291 1.613 . S
N292 C295 1.350 1_545 S
N293 S291 1.610 . S
N293 C294 1.351 1_545 S
C294 C288 1.428 . S
C294 N293 1.351 1_565 S
C294 C295 1.434 . S
C295 C286 1.429 . S
C295 N292 1.350 1_565 S
C295 C294 1.434 . S
C296 C297 1.369 . S
C296 C298 1.419 . S
C296 H300 0.930 . S
C297 C296 1.369 . S
C297 C306 1.429 . S
C298 C296 1.419 . S
C298 C299 1.363 . S
C298 H301 0.929 . S
C299 C298 1.363 . S
C299 C305 1.428 . S
H300 C296 0.930 . S
H301 C298 0.929 . S
S302 N303 1.613 . S
S302 N304 1.610 . S
N303 S302 1.613 . S
N303 C306 1.350 . S
N304 S302 1.610 . S
N304 C305 1.351 . S
C305 C299 1.428 . S
C305 N304 1.351 . S
C305 C306 1.434 . S
C306 C297 1.429 . S
C306 N303 1.350 . S
C306 C305 1.434 . S
C307 C308 1.369 . S
C307 C309 1.419 . S
C307 H311 0.930 . S
C308 C307 1.369 . S
C308 C317 1.429 . S
C309 C307 1.419 . S
C309 C310 1.363 . S
C309 H312 0.929 1_565 S
C310 C309 1.363 . S
C310 C316 1.428 . S
H311 C307 0.930 . S
H312 C309 0.929 1_545 S
S313 N314 1.613 . S
S313 N315 1.610 . S
N314 S313 1.613 . S
N314 C317 1.350 . S
N315 S313 1.610 . S
N315 C316 1.351 . S
C316 C310 1.428 . S
C316 N315 1.351 . S
C316 C317 1.434 . S
C317 C308 1.429 . S
C317 N314 1.350 . S
C317 C316 1.434 . S
C121 C68 0.870 1_566 S
C123 C8 0.894 1_556 S
C132 C88 0.871 . S
C134 C28 0.895 . S
C143 C108 0.880 . S
C145 C48 0.882 1_655 S
C154 C1 1.461 . S
C156 C42 1.410 . S
C165 C21 1.457 . S
C167 C62 1.416 . S
C176 C41 1.451 . S
C178 C82 1.421 . S
C187 C61 1.454 . S
C189 C102 1.418 . S
C198 C81 1.448 1_455 S
C200 C2 1.421 . S
C209 C101 1.461 1_545 S
C211 C22 1.412 . S
C220 C9 1.311 . S
C222 C69 1.312 1_545 S
C231 C29 1.313 . S
C233 C89 1.311 . S
C242 C49 1.314 1_455 S
C244 C109 1.312 . S
C253 C18 2.036 . S
C255 C39 2.075 . S
C264 C38 2.039 . S
C266 C59 2.073 . S
C275 C58 2.036 . S
C277 C79 2.072 . S
C286 C78 2.033 . S
C288 C99 2.075 . S
C297 C98 2.032 . S
C299 C119 2.075 1_655 S
C308 C118 2.033 . S
C310 C19 2.075 1_565 S
