# Generated by pormake.
# Topology rho, (4)-cn, num edge types: 1
# Building blocks:
#     Node 0, Type 0, BuildingBlock: TATPOV_clean_sbu_0, # of connection points: 4
#     Node 1, Type 0, BuildingBlock: TATPOV_clean_sbu_0, # of connection points: 4
#     Node 2, Type 0, BuildingBlock: TATPOV_clean_sbu_0, # of connection points: 4
#     Node 3, Type 0, BuildingBlock: TATPOV_clean_sbu_0, # of connection points: 4
#     Node 4, Type 0, BuildingBlock: TATPOV_clean_sbu_0, # of connection points: 4
#     Node 5, Type 0, BuildingBlock: TATPOV_clean_sbu_0, # of connection points: 4
#     Node 6, Type 0, BuildingBlock: TATPOV_clean_sbu_0, # of connection points: 4
#     Node 7, Type 0, BuildingBlock: TATPOV_clean_sbu_0, # of connection points: 4
#     Node 8, Type 0, BuildingBlock: TATPOV_clean_sbu_0, # of connection points: 4
#     Node 9, Type 0, BuildingBlock: TATPOV_clean_sbu_0, # of connection points: 4
#     Node 10, Type 0, BuildingBlock: TATPOV_clean_sbu_0, # of connection points: 4
#     Node 11, Type 0, BuildingBlock: TATPOV_clean_sbu_0, # of connection points: 4
#     Node 12, Type 0, BuildingBlock: TATPOV_clean_sbu_0, # of connection points: 4
#     Node 13, Type 0, BuildingBlock: TATPOV_clean_sbu_0, # of connection points: 4
#     Node 14, Type 0, BuildingBlock: TATPOV_clean_sbu_0, # of connection points: 4
#     Node 15, Type 0, BuildingBlock: TATPOV_clean_sbu_0, # of connection points: 4
#     Node 16, Type 0, BuildingBlock: TATPOV_clean_sbu_0, # of connection points: 4
#     Node 17, Type 0, BuildingBlock: TATPOV_clean_sbu_0, # of connection points: 4
#     Node 18, Type 0, BuildingBlock: TATPOV_clean_sbu_0, # of connection points: 4
#     Node 19, Type 0, BuildingBlock: TATPOV_clean_sbu_0, # of connection points: 4
#     Node 20, Type 0, BuildingBlock: TATPOV_clean_sbu_0, # of connection points: 4
#     Node 21, Type 0, BuildingBlock: TATPOV_clean_sbu_0, # of connection points: 4
#     Node 22, Type 0, BuildingBlock: TATPOV_clean_sbu_0, # of connection points: 4
#     Node 23, Type 0, BuildingBlock: TATPOV_clean_sbu_0, # of connection points: 4
#     Node 24, Type 0, BuildingBlock: TATPOV_clean_sbu_0, # of connection points: 4
#     Node 25, Type 0, BuildingBlock: TATPOV_clean_sbu_0, # of connection points: 4
#     Node 26, Type 0, BuildingBlock: TATPOV_clean_sbu_0, # of connection points: 4
#     Node 27, Type 0, BuildingBlock: TATPOV_clean_sbu_0, # of connection points: 4
#     Node 28, Type 0, BuildingBlock: TATPOV_clean_sbu_0, # of connection points: 4
#     Node 29, Type 0, BuildingBlock: TATPOV_clean_sbu_0, # of connection points: 4
#     Node 30, Type 0, BuildingBlock: TATPOV_clean_sbu_0, # of connection points: 4
#     Node 31, Type 0, BuildingBlock: TATPOV_clean_sbu_0, # of connection points: 4
#     Node 32, Type 0, BuildingBlock: TATPOV_clean_sbu_0, # of connection points: 4
#     Node 33, Type 0, BuildingBlock: TATPOV_clean_sbu_0, # of connection points: 4
#     Node 34, Type 0, BuildingBlock: TATPOV_clean_sbu_0, # of connection points: 4
#     Node 35, Type 0, BuildingBlock: TATPOV_clean_sbu_0, # of connection points: 4
#     Node 36, Type 0, BuildingBlock: TATPOV_clean_sbu_0, # of connection points: 4
#     Node 37, Type 0, BuildingBlock: TATPOV_clean_sbu_0, # of connection points: 4
#     Node 38, Type 0, BuildingBlock: TATPOV_clean_sbu_0, # of connection points: 4
#     Node 39, Type 0, BuildingBlock: TATPOV_clean_sbu_0, # of connection points: 4
#     Node 40, Type 0, BuildingBlock: TATPOV_clean_sbu_0, # of connection points: 4
#     Node 41, Type 0, BuildingBlock: TATPOV_clean_sbu_0, # of connection points: 4
#     Node 42, Type 0, BuildingBlock: TATPOV_clean_sbu_0, # of connection points: 4
#     Node 43, Type 0, BuildingBlock: TATPOV_clean_sbu_0, # of connection points: 4
#     Node 44, Type 0, BuildingBlock: TATPOV_clean_sbu_0, # of connection points: 4
#     Node 45, Type 0, BuildingBlock: TATPOV_clean_sbu_0, # of connection points: 4
#     Node 46, Type 0, BuildingBlock: TATPOV_clean_sbu_0, # of connection points: 4
#     Node 47, Type 0, BuildingBlock: TATPOV_clean_sbu_0, # of connection points: 4
#     Edge 48, Type (0, 0), BuildingBlock: UVAHIK_clean_linker_0, # of connection points: 2
#     Edge 49, Type (0, 0), BuildingBlock: UVAHIK_clean_linker_0, # of connection points: 2
#     Edge 50, Type (0, 0), BuildingBlock: UVAHIK_clean_linker_0, # of connection points: 2
#     Edge 51, Type (0, 0), BuildingBlock: UVAHIK_clean_linker_0, # of connection points: 2
#     Edge 52, Type (0, 0), BuildingBlock: UVAHIK_clean_linker_0, # of connection points: 2
#     Edge 53, Type (0, 0), BuildingBlock: UVAHIK_clean_linker_0, # of connection points: 2
#     Edge 54, Type (0, 0), BuildingBlock: UVAHIK_clean_linker_0, # of connection points: 2
#     Edge 55, Type (0, 0), BuildingBlock: UVAHIK_clean_linker_0, # of connection points: 2
#     Edge 56, Type (0, 0), BuildingBlock: UVAHIK_clean_linker_0, # of connection points: 2
#     Edge 57, Type (0, 0), BuildingBlock: UVAHIK_clean_linker_0, # of connection points: 2
#     Edge 58, Type (0, 0), BuildingBlock: UVAHIK_clean_linker_0, # of connection points: 2
#     Edge 59, Type (0, 0), BuildingBlock: UVAHIK_clean_linker_0, # of connection points: 2
#     Edge 60, Type (0, 0), BuildingBlock: UVAHIK_clean_linker_0, # of connection points: 2
#     Edge 61, Type (0, 0), BuildingBlock: UVAHIK_clean_linker_0, # of connection points: 2
#     Edge 62, Type (0, 0), BuildingBlock: UVAHIK_clean_linker_0, # of connection points: 2
#     Edge 63, Type (0, 0), BuildingBlock: UVAHIK_clean_linker_0, # of connection points: 2
#     Edge 64, Type (0, 0), BuildingBlock: UVAHIK_clean_linker_0, # of connection points: 2
#     Edge 65, Type (0, 0), BuildingBlock: UVAHIK_clean_linker_0, # of connection points: 2
#     Edge 66, Type (0, 0), BuildingBlock: UVAHIK_clean_linker_0, # of connection points: 2
#     Edge 67, Type (0, 0), BuildingBlock: UVAHIK_clean_linker_0, # of connection points: 2
#     Edge 68, Type (0, 0), BuildingBlock: UVAHIK_clean_linker_0, # of connection points: 2
#     Edge 69, Type (0, 0), BuildingBlock: UVAHIK_clean_linker_0, # of connection points: 2
#     Edge 70, Type (0, 0), BuildingBlock: UVAHIK_clean_linker_0, # of connection points: 2
#     Edge 71, Type (0, 0), BuildingBlock: UVAHIK_clean_linker_0, # of connection points: 2
#     Edge 72, Type (0, 0), BuildingBlock: UVAHIK_clean_linker_0, # of connection points: 2
#     Edge 73, Type (0, 0), BuildingBlock: UVAHIK_clean_linker_0, # of connection points: 2
#     Edge 74, Type (0, 0), BuildingBlock: UVAHIK_clean_linker_0, # of connection points: 2
#     Edge 75, Type (0, 0), BuildingBlock: UVAHIK_clean_linker_0, # of connection points: 2
#     Edge 76, Type (0, 0), BuildingBlock: UVAHIK_clean_linker_0, # of connection points: 2
#     Edge 77, Type (0, 0), BuildingBlock: UVAHIK_clean_linker_0, # of connection points: 2
#     Edge 78, Type (0, 0), BuildingBlock: UVAHIK_clean_linker_0, # of connection points: 2
#     Edge 79, Type (0, 0), BuildingBlock: UVAHIK_clean_linker_0, # of connection points: 2
#     Edge 80, Type (0, 0), BuildingBlock: UVAHIK_clean_linker_0, # of connection points: 2
#     Edge 81, Type (0, 0), BuildingBlock: UVAHIK_clean_linker_0, # of connection points: 2
#     Edge 82, Type (0, 0), BuildingBlock: UVAHIK_clean_linker_0, # of connection points: 2
#     Edge 83, Type (0, 0), BuildingBlock: UVAHIK_clean_linker_0, # of connection points: 2
#     Edge 84, Type (0, 0), BuildingBlock: UVAHIK_clean_linker_0, # of connection points: 2
#     Edge 85, Type (0, 0), BuildingBlock: UVAHIK_clean_linker_0, # of connection points: 2
#     Edge 86, Type (0, 0), BuildingBlock: UVAHIK_clean_linker_0, # of connection points: 2
#     Edge 87, Type (0, 0), BuildingBlock: UVAHIK_clean_linker_0, # of connection points: 2
#     Edge 88, Type (0, 0), BuildingBlock: UVAHIK_clean_linker_0, # of connection points: 2
#     Edge 89, Type (0, 0), BuildingBlock: UVAHIK_clean_linker_0, # of connection points: 2
#     Edge 90, Type (0, 0), BuildingBlock: UVAHIK_clean_linker_0, # of connection points: 2
#     Edge 91, Type (0, 0), BuildingBlock: UVAHIK_clean_linker_0, # of connection points: 2
#     Edge 92, Type (0, 0), BuildingBlock: UVAHIK_clean_linker_0, # of connection points: 2
#     Edge 93, Type (0, 0), BuildingBlock: UVAHIK_clean_linker_0, # of connection points: 2
#     Edge 94, Type (0, 0), BuildingBlock: UVAHIK_clean_linker_0, # of connection points: 2
#     Edge 95, Type (0, 0), BuildingBlock: UVAHIK_clean_linker_0, # of connection points: 2
#     Edge 96, Type (0, 0), BuildingBlock: UVAHIK_clean_linker_0, # of connection points: 2
#     Edge 97, Type (0, 0), BuildingBlock: UVAHIK_clean_linker_0, # of connection points: 2
#     Edge 98, Type (0, 0), BuildingBlock: UVAHIK_clean_linker_0, # of connection points: 2
#     Edge 99, Type (0, 0), BuildingBlock: UVAHIK_clean_linker_0, # of connection points: 2
#     Edge 100, Type (0, 0), BuildingBlock: UVAHIK_clean_linker_0, # of connection points: 2
#     Edge 101, Type (0, 0), BuildingBlock: UVAHIK_clean_linker_0, # of connection points: 2
#     Edge 102, Type (0, 0), BuildingBlock: UVAHIK_clean_linker_0, # of connection points: 2
#     Edge 103, Type (0, 0), BuildingBlock: UVAHIK_clean_linker_0, # of connection points: 2
#     Edge 104, Type (0, 0), BuildingBlock: UVAHIK_clean_linker_0, # of connection points: 2
#     Edge 105, Type (0, 0), BuildingBlock: UVAHIK_clean_linker_0, # of connection points: 2
#     Edge 106, Type (0, 0), BuildingBlock: UVAHIK_clean_linker_0, # of connection points: 2
#     Edge 107, Type (0, 0), BuildingBlock: UVAHIK_clean_linker_0, # of connection points: 2
#     Edge 108, Type (0, 0), BuildingBlock: UVAHIK_clean_linker_0, # of connection points: 2
#     Edge 109, Type (0, 0), BuildingBlock: UVAHIK_clean_linker_0, # of connection points: 2
#     Edge 110, Type (0, 0), BuildingBlock: UVAHIK_clean_linker_0, # of connection points: 2
#     Edge 111, Type (0, 0), BuildingBlock: UVAHIK_clean_linker_0, # of connection points: 2
#     Edge 112, Type (0, 0), BuildingBlock: UVAHIK_clean_linker_0, # of connection points: 2
#     Edge 113, Type (0, 0), BuildingBlock: UVAHIK_clean_linker_0, # of connection points: 2
#     Edge 114, Type (0, 0), BuildingBlock: UVAHIK_clean_linker_0, # of connection points: 2
#     Edge 115, Type (0, 0), BuildingBlock: UVAHIK_clean_linker_0, # of connection points: 2
#     Edge 116, Type (0, 0), BuildingBlock: UVAHIK_clean_linker_0, # of connection points: 2
#     Edge 117, Type (0, 0), BuildingBlock: UVAHIK_clean_linker_0, # of connection points: 2
#     Edge 118, Type (0, 0), BuildingBlock: UVAHIK_clean_linker_0, # of connection points: 2
#     Edge 119, Type (0, 0), BuildingBlock: UVAHIK_clean_linker_0, # of connection points: 2
#     Edge 120, Type (0, 0), BuildingBlock: UVAHIK_clean_linker_0, # of connection points: 2
#     Edge 121, Type (0, 0), BuildingBlock: UVAHIK_clean_linker_0, # of connection points: 2
#     Edge 122, Type (0, 0), BuildingBlock: UVAHIK_clean_linker_0, # of connection points: 2
#     Edge 123, Type (0, 0), BuildingBlock: UVAHIK_clean_linker_0, # of connection points: 2
#     Edge 124, Type (0, 0), BuildingBlock: UVAHIK_clean_linker_0, # of connection points: 2
#     Edge 125, Type (0, 0), BuildingBlock: UVAHIK_clean_linker_0, # of connection points: 2
#     Edge 126, Type (0, 0), BuildingBlock: UVAHIK_clean_linker_0, # of connection points: 2
#     Edge 127, Type (0, 0), BuildingBlock: UVAHIK_clean_linker_0, # of connection points: 2
#     Edge 128, Type (0, 0), BuildingBlock: UVAHIK_clean_linker_0, # of connection points: 2
#     Edge 129, Type (0, 0), BuildingBlock: UVAHIK_clean_linker_0, # of connection points: 2
#     Edge 130, Type (0, 0), BuildingBlock: UVAHIK_clean_linker_0, # of connection points: 2
#     Edge 131, Type (0, 0), BuildingBlock: UVAHIK_clean_linker_0, # of connection points: 2
#     Edge 132, Type (0, 0), BuildingBlock: UVAHIK_clean_linker_0, # of connection points: 2
#     Edge 133, Type (0, 0), BuildingBlock: UVAHIK_clean_linker_0, # of connection points: 2
#     Edge 134, Type (0, 0), BuildingBlock: UVAHIK_clean_linker_0, # of connection points: 2
#     Edge 135, Type (0, 0), BuildingBlock: UVAHIK_clean_linker_0, # of connection points: 2
#     Edge 136, Type (0, 0), BuildingBlock: UVAHIK_clean_linker_0, # of connection points: 2
#     Edge 137, Type (0, 0), BuildingBlock: UVAHIK_clean_linker_0, # of connection points: 2
#     Edge 138, Type (0, 0), BuildingBlock: UVAHIK_clean_linker_0, # of connection points: 2
#     Edge 139, Type (0, 0), BuildingBlock: UVAHIK_clean_linker_0, # of connection points: 2
#     Edge 140, Type (0, 0), BuildingBlock: UVAHIK_clean_linker_0, # of connection points: 2
#     Edge 141, Type (0, 0), BuildingBlock: UVAHIK_clean_linker_0, # of connection points: 2
#     Edge 142, Type (0, 0), BuildingBlock: UVAHIK_clean_linker_0, # of connection points: 2
#     Edge 143, Type (0, 0), BuildingBlock: UVAHIK_clean_linker_0, # of connection points: 2
# Relax obj value: 0.158
# Max RMSD: 0.202
# Mean RMSD: 0.192
data_MOF--net-rho--node1-TATPOV_clean_sbu_0--edge1-UVAHIK_clean_linker_0
_symmetry_space_group_name_H-M    P1
_symmetry_Int_Tables_number       1
_symmetry_cell_setting            triclinic
loop_
_symmetry_equiv_pos_as_xyz
'x, y, z'
_cell_length_a     92.443267
_cell_length_b     92.111308
_cell_length_c     92.180248
_cell_angle_alpha  89.903425
_cell_angle_beta   90.927737
_cell_angle_gamma 91.995684
loop_
_atom_site_label
_atom_site_type_symbol
_atom_site_fract_x
_atom_site_fract_y
_atom_site_fract_z
_atom_type_partial_charge
Zn0 Zn 0.07089 0.26378 0.3885 0.0
Zn1 Zn 0.09466 0.24382 0.38588 0.0
O2 O 0.10372 0.25373 0.3698 0.0
O3 O 0.08293 0.2648 0.36939 0.0
O4 O 0.10497 0.22619 0.38832 0.0
O5 O 0.07604 0.25762 0.40932 0.0
O6 O 0.09877 0.25402 0.40447 0.0
C7 C 0.09458 0.2613 0.36329 0.0
C8 C 0.0636 0.23549 0.38731 0.0
O9 O 0.07467 0.23609 0.37945 0.0
O10 O 0.06287 0.24468 0.39737 0.0
C11 C 0.10415 0.21759 0.37765 0.0
O12 O 0.09668 0.22118 0.36601 0.0
C13 C 0.08898 0.25609 0.41351 0.0
Zn14 Zn 0.76827 0.08265 0.39993 0.0
Zn15 Zn 0.7437 0.08312 0.38603 0.0
O16 O 0.75259 0.10289 0.3831 0.0
O17 O 0.77431 0.09437 0.38192 0.0
O18 O 0.72561 0.08301 0.37423 0.0
O19 O 0.76365 0.06087 0.39824 0.0
O20 O 0.75565 0.06792 0.37717 0.0
C21 C 0.76559 0.10436 0.37914 0.0
C22 C 0.74264 0.08919 0.41576 0.0
O23 O 0.73682 0.08047 0.40659 0.0
O24 O 0.75571 0.09352 0.41419 0.0
C25 C 0.71817 0.09428 0.37507 0.0
O26 O 0.72245 0.10489 0.3838 0.0
C27 C 0.75907 0.05778 0.38557 0.0
Zn28 Zn 0.90319 0.71757 0.39486 0.0
Zn29 Zn 0.87977 0.73825 0.39064 0.0
O30 O 0.87264 0.72725 0.37401 0.0
O31 O 0.89345 0.71622 0.37401 0.0
O32 O 0.86825 0.75501 0.39071 0.0
O33 O 0.89399 0.71656 0.41472 0.0
O34 O 0.87502 0.72945 0.40937 0.0
C35 C 0.88179 0.71983 0.36762 0.0
C36 C 0.91059 0.74592 0.39495 0.0
O37 O 0.89957 0.74667 0.38679 0.0
O38 O 0.9106 0.73624 0.40455 0.0
C39 C 0.86921 0.76316 0.37972 0.0
O40 O 0.87823 0.76018 0.36936 0.0
C41 C 0.88227 0.72221 0.41833 0.0
Zn42 Zn 0.20604 0.89801 0.40608 0.0
Zn43 Zn 0.23531 0.89595 0.3857 0.0
O44 O 0.22738 0.87755 0.37587 0.0
O45 O 0.21174 0.88425 0.3913 0.0
O46 O 0.25367 0.8997 0.37546 0.0
O47 O 0.21097 0.9189 0.40147 0.0
O48 O 0.22309 0.91315 0.38174 0.0
C49 C 0.21537 0.87542 0.38184 0.0
C50 C 0.23412 0.89186 0.41955 0.0
O51 O 0.24019 0.89323 0.40726 0.0
O52 O 0.22055 0.89287 0.42123 0.0
C53 C 0.26181 0.88891 0.3762 0.0
O54 O 0.25869 0.87846 0.38546 0.0
C55 C 0.21859 0.92244 0.39061 0.0
Zn56 Zn 0.08571 0.77007 0.5766 0.0
Zn57 Zn 0.08889 0.74564 0.59776 0.0
O58 O 0.10416 0.75729 0.60818 0.0
O59 O 0.10528 0.77022 0.58807 0.0
O60 O 0.08904 0.72654 0.60686 0.0
O61 O 0.06503 0.76225 0.58004 0.0
O62 O 0.06864 0.75115 0.60087 0.0
C63 C 0.11101 0.76584 0.59983 0.0
C64 C 0.08753 0.74226 0.56577 0.0
O65 O 0.09488 0.74061 0.57734 0.0
O66 O 0.07886 0.75252 0.56479 0.0
C67 C 0.10079 0.71993 0.60646 0.0
O68 O 0.11215 0.72625 0.60041 0.0
C69 C 0.06018 0.75592 0.59122 0.0
Zn70 Zn 0.27073 0.079 0.59116 0.0
Zn71 Zn 0.23892 0.09875 0.59566 0.0
O72 O 0.24987 0.10883 0.61293 0.0
O73 O 0.2621 0.09364 0.60179 0.0
O74 O 0.21982 0.10746 0.59486 0.0
O75 O 0.26945 0.08904 0.57191 0.0
O76 O 0.24865 0.10024 0.57579 0.0
C77 C 0.2614 0.10206 0.61224 0.0
C78 C 0.24048 0.06516 0.59662 0.0
O79 O 0.23429 0.07716 0.59863 0.0
O80 O 0.25382 0.06432 0.59341 0.0
C81 C 0.21302 0.1071 0.60672 0.0
O82 O 0.21885 0.10098 0.61818 0.0
C83 C 0.25908 0.09688 0.56761 0.0
Zn84 Zn 0.89967 0.21298 0.58273 0.0
Zn85 Zn 0.89878 0.23642 0.59549 0.0
O86 O 0.8795 0.22717 0.59915 0.0
O87 O 0.88922 0.20604 0.60108 0.0
O88 O 0.89854 0.25382 0.60723 0.0
O89 O 0.92154 0.21746 0.5839 0.0
O90 O 0.91526 0.22612 0.60474 0.0
C91 C 0.8788 0.21419 0.60358 0.0
C92 C 0.89133 0.23751 0.56601 0.0
O93 O 0.9002 0.24359 0.57492 0.0
O94 O 0.88742 0.22433 0.568 0.0
C95 C 0.88782 0.26199 0.60671 0.0
O96 O 0.87765 0.25984 0.59675 0.0
C97 C 0.92494 0.22157 0.59663 0.0
Zn98 Zn 0.72276 0.90223 0.5879 0.0
Zn99 Zn 0.74016 0.88451 0.59339 0.0
O100 O 0.72431 0.8757 0.60546 0.0
O101 O 0.7189 0.89826 0.60903 0.0
O102 O 0.75608 0.87168 0.59575 0.0
O103 O 0.71382 0.88994 0.57159 0.0
O104 O 0.73615 0.88293 0.57202 0.0
C105 C 0.71793 0.88507 0.61275 0.0
C106 C 0.74799 0.91592 0.59383 0.0
O107 O 0.74856 0.90414 0.60094 0.0
O108 O 0.73869 0.91703 0.58372 0.0
C109 C 0.76446 0.87231 0.60671 0.0
O110 O 0.76196 0.88138 0.6173 0.0
C111 C 0.72415 0.88398 0.56535 0.0
Zn112 Zn 0.39752 0.0833 0.22031 0.0
Zn113 Zn 0.37967 0.08917 0.24042 0.0
O114 O 0.37079 0.10198 0.22601 0.0
O115 O 0.39306 0.10446 0.21819 0.0
O116 O 0.36923 0.09046 0.2584 0.0
O117 O 0.38466 0.06757 0.21145 0.0
O118 O 0.37736 0.06897 0.23395 0.0
C119 C 0.38006 0.10831 0.21808 0.0
C120 C 0.41028 0.08732 0.24638 0.0
O121 O 0.39969 0.09561 0.24679 0.0
O122 O 0.41003 0.07714 0.23723 0.0
C123 C 0.3708 0.10242 0.26508 0.0
O124 O 0.3779 0.11339 0.25903 0.0
C125 C 0.3785 0.06181 0.2223 0.0
Zn126 Zn 0.90004 0.40134 0.22445 0.0
Zn127 Zn 0.89244 0.38376 0.24177 0.0
O128 O 0.87797 0.37794 0.22591 0.0
O129 O 0.8786 0.40067 0.21884 0.0
O130 O 0.88885 0.3713 0.2584 0.0
O131 O 0.91306 0.38826 0.21387 0.0
O132 O 0.9135 0.3804 0.23629 0.0
C133 C 0.87265 0.38805 0.21834 0.0
C134 C 0.89749 0.41392 0.24953 0.0
O135 O 0.88788 0.4038 0.24963 0.0
O136 O 0.90872 0.41169 0.24243 0.0
C137 C 0.87655 0.37081 0.26426 0.0
O138 O 0.86573 0.37777 0.25844 0.0
C139 C 0.91952 0.38173 0.224 0.0
Zn140 Zn 0.58155 0.90887 0.25698 0.0
Zn141 Zn 0.58827 0.89203 0.23873 0.0
O142 O 0.60039 0.88439 0.25459 0.0
O143 O 0.60325 0.9068 0.26219 0.0
O144 O 0.59088 0.87881 0.22327 0.0
O145 O 0.56623 0.89474 0.26517 0.0
O146 O 0.56715 0.88949 0.24205 0.0
C147 C 0.60774 0.89398 0.26146 0.0
C148 C 0.5869 0.92158 0.23127 0.0
O149 O 0.59584 0.91152 0.23136 0.0
O150 O 0.5754 0.91938 0.23825 0.0
C151 C 0.60282 0.87734 0.21712 0.0
O152 O 0.61419 0.88552 0.22092 0.0
C153 C 0.56034 0.88923 0.25388 0.0
Zn154 Zn 0.08114 0.59732 0.26474 0.0
Zn155 Zn 0.102 0.59672 0.24171 0.0
O156 O 0.11065 0.61127 0.25536 0.0
O157 O 0.0884 0.61759 0.25691 0.0
O158 O 0.11237 0.59885 0.22385 0.0
O159 O 0.08581 0.57548 0.26152 0.0
O160 O 0.10558 0.57725 0.24855 0.0
C161 C 0.10174 0.62075 0.2585 0.0
C162 C 0.06995 0.59204 0.23791 0.0
O163 O 0.08122 0.59943 0.23449 0.0
O164 O 0.07008 0.58489 0.24966 0.0
C165 C 0.11033 0.61022 0.21647 0.0
O166 O 0.10265 0.62069 0.22168 0.0
C167 C 0.09649 0.56967 0.25561 0.0
Zn168 Zn 0.39827 0.90711 0.7252 0.0
Zn169 Zn 0.39136 0.8879 0.74194 0.0
O170 O 0.37799 0.88137 0.72583 0.0
O171 O 0.37736 0.90396 0.71841 0.0
O172 O 0.38787 0.87334 0.75694 0.0
O173 O 0.41368 0.89604 0.71556 0.0
O174 O 0.41245 0.88604 0.73714 0.0
C175 C 0.37216 0.89104 0.71819 0.0
C176 C 0.39331 0.9186 0.7512 0.0
O177 O 0.38521 0.90721 0.75073 0.0
O178 O 0.40411 0.91924 0.74301 0.0
C179 C 0.37611 0.87328 0.76378 0.0
O180 O 0.36661 0.88325 0.76105 0.0
C181 C 0.41927 0.8885 0.72549 0.0
Zn182 Zn 0.07697 0.40277 0.76325 0.0
Zn183 Zn 0.08248 0.38617 0.74361 0.0
O184 O 0.09502 0.37714 0.75858 0.0
O185 O 0.09833 0.39898 0.7676 0.0
O186 O 0.086 0.3745 0.72668 0.0
O187 O 0.06054 0.3893 0.76991 0.0
O188 O 0.06123 0.38331 0.74697 0.0
C189 C 0.10272 0.38627 0.76571 0.0
C190 C 0.08237 0.4176 0.73843 0.0
O191 O 0.08977 0.40635 0.7373 0.0
O192 O 0.0724 0.4177 0.74762 0.0
C193 C 0.09801 0.37574 0.72031 0.0
O194 O 0.10814 0.38503 0.72496 0.0
C195 C 0.05446 0.38362 0.7588 0.0
Zn196 Zn 0.57951 0.08774 0.77306 0.0
Zn197 Zn 0.60248 0.09018 0.74609 0.0
O198 O 0.61084 0.10957 0.75293 0.0
O199 O 0.59485 0.10264 0.76874 0.0
O200 O 0.61414 0.08607 0.72885 0.0
O201 O 0.58457 0.06707 0.7697 0.0
O202 O 0.60571 0.07524 0.76184 0.0
C203 C 0.60474 0.11145 0.76486 0.0
C204 C 0.56863 0.0924 0.74369 0.0
O205 O 0.5815 0.09157 0.7391 0.0
O206 O 0.56552 0.09182 0.75708 0.0
C207 C 0.61271 0.09592 0.71933 0.0
O208 O 0.60283 0.10565 0.72115 0.0
C209 C 0.5968 0.06479 0.76432 0.0
Zn210 Zn 0.90189 0.58478 0.7251 0.0
Zn211 Zn 0.88556 0.59208 0.74436 0.0
O212 O 0.87904 0.60684 0.73063 0.0
O213 O 0.90123 0.60666 0.72269 0.0
O214 O 0.87366 0.59354 0.76086 0.0
O215 O 0.88754 0.57152 0.71435 0.0
O216 O 0.88064 0.57222 0.73695 0.0
C217 C 0.889 0.61245 0.72305 0.0
C218 C 0.91525 0.58672 0.75063 0.0
O219 O 0.90585 0.59627 0.75179 0.0
O220 O 0.91218 0.57596 0.74256 0.0
C221 C 0.87259 0.60508 0.76807 0.0
O222 O 0.88033 0.61678 0.76462 0.0
C223 C 0.8807 0.56576 0.72478 0.0
Zn224 Zn 0.20505 0.4006 0.08365 0.0
Zn225 Zn 0.23404 0.37869 0.08829 0.0
O226 O 0.22458 0.36953 0.10658 0.0
O227 O 0.21185 0.38558 0.09646 0.0
O228 O 0.25305 0.36935 0.08583 0.0
O229 O 0.21197 0.3959 0.06339 0.0
O230 O 0.22146 0.37501 0.07017 0.0
C231 C 0.21363 0.37731 0.10705 0.0
C232 C 0.2334 0.41266 0.09472 0.0
O233 O 0.23911 0.40044 0.09233 0.0
O234 O 0.21991 0.41469 0.09281 0.0
C235 C 0.26102 0.37065 0.09713 0.0
O236 O 0.25624 0.37784 0.10826 0.0
C237 C 0.21845 0.38431 0.06044 0.0
Zn238 Zn 0.26976 0.58645 0.90668 0.0
Zn239 Zn 0.24023 0.5893 0.88594 0.0
O240 O 0.24724 0.60843 0.87784 0.0
O241 O 0.26384 0.60189 0.89324 0.0
O242 O 0.22082 0.58602 0.87656 0.0
O243 O 0.26455 0.56605 0.90044 0.0
O244 O 0.25415 0.5739 0.88027 0.0
C245 C 0.25909 0.61102 0.88442 0.0
C246 C 0.2424 0.59174 0.92022 0.0
O247 O 0.23641 0.59096 0.90767 0.0
O248 O 0.25596 0.59067 0.92229 0.0
C249 C 0.21301 0.59686 0.87876 0.0
O250 O 0.21809 0.60744 0.88713 0.0
C251 C 0.25787 0.5636 0.88852 0.0
Zn252 Zn 0.39842 0.20495 0.90032 0.0
Zn253 Zn 0.37542 0.23294 0.8959 0.0
O254 O 0.36743 0.22443 0.8771 0.0
O255 O 0.38412 0.21097 0.88565 0.0
O256 O 0.36447 0.25081 0.8988 0.0
O257 O 0.39381 0.21185 0.9206 0.0
O258 O 0.37252 0.2183 0.91211 0.0
C259 C 0.37551 0.21382 0.87548 0.0
C260 C 0.40821 0.23411 0.88868 0.0
O261 O 0.39637 0.23966 0.89238 0.0
O262 O 0.41054 0.22058 0.88992 0.0
C263 C 0.36598 0.26001 0.88856 0.0
O264 O 0.37527 0.2575 0.8783 0.0
C265 C 0.38159 0.21739 0.9225 0.0
Zn266 Zn 0.71914 0.39753 0.90687 0.0
Zn267 Zn 0.73764 0.39247 0.88956 0.0
O268 O 0.72253 0.37972 0.88021 0.0
O269 O 0.7146 0.37594 0.90215 0.0
O270 O 0.75396 0.39019 0.87724 0.0
O271 O 0.71173 0.41424 0.89474 0.0
O272 O 0.73434 0.41374 0.88809 0.0
C273 C 0.71595 0.37166 0.8892 0.0
C274 C 0.74498 0.39263 0.92011 0.0
O275 O 0.74505 0.38479 0.90885 0.0
O276 O 0.736 0.40261 0.92073 0.0
C277 C 0.76077 0.37853 0.87664 0.0
O278 O 0.7569 0.36741 0.88484 0.0
C279 C 0.72271 0.4205 0.88914 0.0
Zn280 Zn 0.57674 0.76919 0.89138 0.0
Zn281 Zn 0.59862 0.74501 0.89083 0.0
O282 O 0.60335 0.75651 0.87361 0.0
O283 O 0.5804 0.76065 0.87104 0.0
O284 O 0.6105 0.72811 0.89013 0.0
O285 O 0.58389 0.76383 0.91245 0.0
O286 O 0.60558 0.75592 0.90832 0.0
C287 C 0.5931 0.7614 0.86611 0.0
C288 C 0.56744 0.74193 0.89793 0.0
O289 O 0.5777 0.73717 0.89051 0.0
O290 O 0.56995 0.75325 0.90554 0.0
C291 C 0.60942 0.71916 0.87972 0.0
O292 O 0.60013 0.72136 0.86906 0.0
C293 C 0.59652 0.76079 0.91697 0.0
Zn294 Zn 0.77584 0.58088 0.08811 0.0
Zn295 Zn 0.74675 0.60223 0.08975 0.0
O296 O 0.75336 0.60992 0.10948 0.0
O297 O 0.76908 0.59458 0.10271 0.0
O298 O 0.72884 0.61306 0.08539 0.0
O299 O 0.77203 0.58631 0.06727 0.0
O300 O 0.76228 0.60643 0.07478 0.0
C301 C 0.7648 0.60328 0.11202 0.0
C302 C 0.74636 0.56807 0.09157 0.0
O303 O 0.74098 0.58063 0.09073 0.0
O304 O 0.75992 0.566 0.09135 0.0
C305 C 0.71952 0.61165 0.09534 0.0
O306 O 0.72191 0.60242 0.10593 0.0
C307 C 0.76511 0.59769 0.06463 0.0
Zn308 Zn 0.40147 0.7267 0.07677 0.0
Zn309 Zn 0.39266 0.74383 0.09451 0.0
O310 O 0.3799 0.72665 0.09888 0.0
O311 O 0.38062 0.71899 0.0764 0.0
O312 O 0.38754 0.75768 0.10901 0.0
O313 O 0.41501 0.71802 0.09152 0.0
O314 O 0.41394 0.74073 0.09821 0.0
C315 C 0.37485 0.71859 0.08877 0.0
C316 C 0.3965 0.75272 0.06499 0.0
O317 O 0.3873 0.7525 0.075 0.0
O318 O 0.40796 0.74595 0.06722 0.0
C319 C 0.37563 0.76401 0.10904 0.0
O320 O 0.36613 0.76192 0.09842 0.0
C321 C 0.42078 0.72899 0.09778 0.0
Zn322 Zn 0.58459 0.25798 0.07302 0.0
Zn323 Zn 0.59073 0.23917 0.08949 0.0
O324 O 0.60456 0.25354 0.09839 0.0
O325 O 0.6066 0.26226 0.07641 0.0
O326 O 0.59243 0.22247 0.10139 0.0
O327 O 0.56939 0.26678 0.08576 0.0
O328 O 0.5699 0.24386 0.09199 0.0
C329 C 0.61181 0.26061 0.0891 0.0
C330 C 0.58825 0.23253 0.05984 0.0
O331 O 0.59751 0.23235 0.07002 0.0
O332 O 0.57715 0.23979 0.06187 0.0
C333 C 0.60448 0.21667 0.10336 0.0
O334 O 0.61598 0.22168 0.09651 0.0
C335 C 0.5633 0.25571 0.09152 0.0
Zn336 Zn 0.90662 0.71877 0.59709 0.0
Zn337 Zn 0.88443 0.74102 0.59525 0.0
O338 O 0.87819 0.72959 0.61211 0.0
O339 O 0.90121 0.72883 0.61636 0.0
O340 O 0.87254 0.75764 0.59516 0.0
O341 O 0.90096 0.72174 0.57507 0.0
O342 O 0.87928 0.73046 0.57735 0.0
C343 C 0.88842 0.72636 0.62054 0.0
C344 C 0.91619 0.74589 0.58994 0.0
O345 O 0.90505 0.74978 0.59658 0.0
O346 O 0.91561 0.73382 0.58327 0.0
C347 C 0.87433 0.76649 0.60556 0.0
O348 O 0.88367 0.76375 0.61604 0.0
C349 C 0.88882 0.7251 0.56954 0.0
Zn350 Zn 0.2067 0.90096 0.5801 0.0
Zn351 Zn 0.23667 0.89827 0.60031 0.0
O352 O 0.22971 0.87912 0.60869 0.0
O353 O 0.21275 0.88571 0.59378 0.0
O354 O 0.25623 0.90175 0.60935 0.0
O355 O 0.21206 0.92147 0.58581 0.0
O356 O 0.22278 0.91375 0.60582 0.0
C357 C 0.21752 0.87669 0.60271 0.0
C358 C 0.23396 0.8957 0.5661 0.0
O359 O 0.24013 0.8965 0.57857 0.0
O360 O 0.22036 0.89675 0.56423 0.0
C361 C 0.26414 0.89106 0.60684 0.0
O362 O 0.25908 0.88064 0.59826 0.0
C363 C 0.21928 0.924 0.5974 0.0
Zn364 Zn 0.08475 0.2619 0.58557 0.0
Zn365 Zn 0.10041 0.24252 0.59324 0.0
O366 O 0.10881 0.25652 0.60771 0.0
O367 O 0.08746 0.26616 0.60723 0.0
O368 O 0.1103 0.22465 0.59607 0.0
O369 O 0.09788 0.27098 0.57063 0.0
O370 O 0.10383 0.24822 0.57246 0.0
C371 C 0.09957 0.26436 0.61351 0.0
C372 C 0.06973 0.23684 0.58894 0.0
O373 O 0.07995 0.23617 0.59817 0.0
O374 O 0.07144 0.24528 0.57827 0.0
C375 C 0.10935 0.2181 0.60812 0.0
O376 O 0.1027 0.22401 0.61901 0.0
C377 C 0.10327 0.25988 0.56508 0.0
Zn378 Zn 0.76372 0.08229 0.5792 0.0
Zn379 Zn 0.74488 0.08774 0.59633 0.0
O380 O 0.75994 0.10024 0.60605 0.0
O381 O 0.76813 0.10375 0.58415 0.0
O382 O 0.72832 0.09025 0.60836 0.0
O383 O 0.77075 0.06582 0.59179 0.0
O384 O 0.74801 0.06651 0.59793 0.0
C385 C 0.76662 0.10815 0.59704 0.0
C386 C 0.738 0.08749 0.56565 0.0
O387 O 0.73795 0.09543 0.57683 0.0
O388 O 0.74687 0.07738 0.56517 0.0
C389 C 0.7214 0.10187 0.60868 0.0
O390 O 0.72516 0.11285 0.60024 0.0
C391 C 0.75964 0.0597 0.59726 0.0
Zn392 Zn 0.89336 0.21351 0.40557 0.0
Zn393 Zn 0.89026 0.23777 0.38468 0.0
O394 O 0.87521 0.22592 0.37416 0.0
O395 O 0.87352 0.21369 0.39464 0.0
O396 O 0.88929 0.25674 0.37576 0.0
O397 O 0.91415 0.2184 0.40014 0.0
O398 O 0.9108 0.23321 0.38171 0.0
C399 C 0.86797 0.21801 0.38277 0.0
C400 C 0.89199 0.24112 0.41654 0.0
O401 O 0.88448 0.24278 0.40509 0.0
O402 O 0.90038 0.23067 0.41754 0.0
C403 C 0.8774 0.26312 0.37611 0.0
O404 O 0.86602 0.25658 0.38189 0.0
C405 C 0.91914 0.2263 0.39002 0.0
Zn406 Zn 0.70744 0.90349 0.38915 0.0
Zn407 Zn 0.73975 0.88505 0.38655 0.0
O408 O 0.73106 0.87494 0.36815 0.0
O409 O 0.71707 0.88966 0.37797 0.0
O410 O 0.75775 0.87515 0.38997 0.0
O411 O 0.7074 0.89489 0.40926 0.0
O412 O 0.72854 0.88466 0.40546 0.0
C413 C 0.71938 0.88146 0.36766 0.0
C414 C 0.73796 0.91805 0.38485 0.0
O415 O 0.74476 0.90634 0.38327 0.0
O416 O 0.7244 0.91835 0.3874 0.0
C417 C 0.7657 0.87546 0.37891 0.0
O418 O 0.76251 0.88403 0.368 0.0
C419 C 0.71806 0.88755 0.4137 0.0
Zn420 Zn 0.0791 0.77024 0.39882 0.0
Zn421 Zn 0.08123 0.74641 0.38607 0.0
O422 O 0.10024 0.75649 0.38257 0.0
O423 O 0.09067 0.77779 0.38134 0.0
O424 O 0.0824 0.72885 0.37469 0.0
O425 O 0.05755 0.7647 0.39673 0.0
O426 O 0.06422 0.75516 0.37637 0.0
C427 C 0.10111 0.76968 0.37876 0.0
C428 C 0.08761 0.74625 0.41617 0.0
O429 O 0.07971 0.73954 0.4068 0.0
O430 O 0.0908 0.75962 0.41434 0.0
C431 C 0.09266 0.72035 0.37684 0.0
O432 O 0.10193 0.72277 0.38758 0.0
C433 C 0.05437 0.75961 0.38432 0.0
Zn434 Zn 0.25461 0.08053 0.39805 0.0
Zn435 Zn 0.23719 0.0978 0.38985 0.0
O436 O 0.25308 0.10244 0.37611 0.0
O437 O 0.25939 0.07972 0.3768 0.0
O438 O 0.22236 0.1114 0.38553 0.0
O439 O 0.26505 0.0959 0.41019 0.0
O440 O 0.24255 0.1022 0.41069 0.0
C441 C 0.25998 0.09211 0.37082 0.0
C442 C 0.22872 0.06764 0.39502 0.0
O443 O 0.22816 0.07775 0.38572 0.0
O444 O 0.23676 0.06979 0.40606 0.0
C445 C 0.21432 0.11123 0.37429 0.0
O446 O 0.21604 0.10143 0.36418 0.0
C447 C 0.25504 0.10217 0.4166 0.0
Zn448 Zn 0.57934 0.90025 0.7735 0.0
Zn449 Zn 0.60219 0.8972 0.74561 0.0
O450 O 0.61145 0.87926 0.7548 0.0
O451 O 0.59498 0.88831 0.76754 0.0
O452 O 0.61101 0.89971 0.72657 0.0
O453 O 0.5853 0.92069 0.76774 0.0
O454 O 0.60633 0.9149 0.75812 0.0
C455 C 0.60414 0.87878 0.76621 0.0
C456 C 0.56786 0.89194 0.74504 0.0
O457 O 0.5807 0.89361 0.74035 0.0
O458 O 0.56481 0.89327 0.7584 0.0
C459 C 0.60832 0.88834 0.71911 0.0
O460 O 0.60063 0.87757 0.72479 0.0
C461 C 0.59736 0.92422 0.76204 0.0
Zn462 Zn 0.08216 0.58052 0.77536 0.0
Zn463 Zn 0.08636 0.60126 0.74398 0.0
O464 O 0.10553 0.61024 0.75284 0.0
O465 O 0.09461 0.59511 0.76657 0.0
O466 O 0.08313 0.61084 0.72479 0.0
O467 O 0.06181 0.58544 0.76909 0.0
O468 O 0.06915 0.60521 0.75672 0.0
C469 C 0.10555 0.60314 0.76455 0.0
C470 C 0.09131 0.56776 0.74693 0.0
O471 O 0.08906 0.57955 0.74002 0.0
O472 O 0.09006 0.56656 0.76066 0.0
C473 C 0.09399 0.60987 0.71668 0.0
O474 O 0.10497 0.60233 0.72126 0.0
C475 C 0.05923 0.59657 0.76137 0.0
Zn476 Zn 0.4003 0.0746 0.72461 0.0
Zn477 Zn 0.39315 0.09347 0.7417 0.0
O478 O 0.38054 0.10049 0.72585 0.0
O479 O 0.38007 0.07832 0.71692 0.0
O480 O 0.39063 0.1058 0.75846 0.0
O481 O 0.4166 0.08627 0.71607 0.0
O482 O 0.41429 0.0963 0.73744 0.0
C483 C 0.37507 0.09097 0.71732 0.0
C484 C 0.39306 0.06306 0.75042 0.0
O485 O 0.38528 0.07402 0.7491 0.0
O486 O 0.40437 0.06274 0.743 0.0
C487 C 0.37845 0.10535 0.76456 0.0
O488 O 0.36749 0.09799 0.75858 0.0
C489 C 0.42165 0.09427 0.72618 0.0
Zn490 Zn 0.90212 0.38998 0.71672 0.0
Zn491 Zn 0.87989 0.38582 0.73918 0.0
O492 O 0.86884 0.37045 0.72908 0.0
O493 O 0.88704 0.37271 0.71399 0.0
O494 O 0.87024 0.38794 0.75737 0.0
O495 O 0.89894 0.4106 0.72308 0.0
O496 O 0.87697 0.40537 0.73073 0.0
C497 C 0.87541 0.36626 0.71808 0.0
C498 C 0.91072 0.38733 0.74587 0.0
O499 O 0.89953 0.37905 0.74581 0.0
O500 O 0.91233 0.39647 0.73576 0.0
C501 C 0.86997 0.37729 0.76602 0.0
O502 O 0.8768 0.3655 0.76269 0.0
C503 C 0.88671 0.41455 0.72715 0.0
Zn504 Zn 0.58153 0.07614 0.25626 0.0
Zn505 Zn 0.58927 0.09438 0.23921 0.0
O506 O 0.60358 0.10009 0.25485 0.0
O507 O 0.60305 0.07742 0.26206 0.0
O508 O 0.59222 0.10847 0.22415 0.0
O509 O 0.56783 0.08873 0.2668 0.0
O510 O 0.56847 0.09725 0.24463 0.0
C511 C 0.60902 0.09004 0.26231 0.0
C512 C 0.58459 0.06492 0.23005 0.0
O513 O 0.59418 0.07504 0.23019 0.0
O514 O 0.57343 0.06691 0.23736 0.0
C515 C 0.60404 0.10954 0.2175 0.0
O516 O 0.61456 0.10082 0.2208 0.0
C517 C 0.56197 0.09573 0.25661 0.0
Zn518 Zn 0.90253 0.57818 0.22159 0.0
Zn519 Zn 0.89685 0.59501 0.24035 0.0
O520 O 0.88345 0.60297 0.22557 0.0
O521 O 0.88064 0.58082 0.21724 0.0
O522 O 0.89524 0.60785 0.25656 0.0
O523 O 0.91835 0.59114 0.21265 0.0
O524 O 0.9179 0.59764 0.23546 0.0
C525 C 0.87592 0.59349 0.21868 0.0
C526 C 0.89808 0.565 0.24706 0.0
O527 O 0.88938 0.57526 0.24762 0.0
O528 O 0.90933 0.56717 0.23971 0.0
C529 C 0.88324 0.60896 0.26273 0.0
O530 O 0.87194 0.60097 0.25837 0.0
C531 C 0.92459 0.59709 0.22356 0.0
Zn532 Zn 0.39532 0.89733 0.21636 0.0
Zn533 Zn 0.37777 0.89076 0.23809 0.0
O534 O 0.36733 0.87543 0.22708 0.0
O535 O 0.38629 0.87658 0.21282 0.0
O536 O 0.36797 0.89171 0.25626 0.0
O537 O 0.38544 0.91454 0.20838 0.0
O538 O 0.37584 0.91057 0.22975 0.0
C539 C 0.37474 0.87014 0.21716 0.0
C540 C 0.40763 0.89385 0.24341 0.0
O541 O 0.3974 0.88449 0.24389 0.0
O542 O 0.40645 0.90424 0.23467 0.0
C543 C 0.36798 0.88065 0.26441 0.0
O544 O 0.37566 0.86946 0.26097 0.0
C545 C 0.37812 0.91885 0.21894 0.0
Zn546 Zn 0.07608 0.39249 0.26496 0.0
Zn547 Zn 0.09713 0.38887 0.24155 0.0
O548 O 0.10731 0.3735 0.25134 0.0
O549 O 0.088 0.37379 0.26507 0.0
O550 O 0.10551 0.39021 0.22252 0.0
O551 O 0.08005 0.41279 0.25693 0.0
O552 O 0.10197 0.40822 0.24975 0.0
C553 C 0.09903 0.36749 0.26041 0.0
C554 C 0.06541 0.38962 0.23702 0.0
O555 O 0.07658 0.38214 0.23618 0.0
O556 O 0.06461 0.39882 0.24708 0.0
C557 C 0.10468 0.37852 0.21534 0.0
O558 O 0.09858 0.36684 0.22115 0.0
C559 C 0.09248 0.41711 0.25293 0.0
Zn560 Zn 0.76843 0.58599 0.89633 0.0
Zn561 Zn 0.74523 0.60018 0.89661 0.0
O562 O 0.75313 0.60417 0.87709 0.0
O563 O 0.77521 0.6047 0.88584 0.0
O564 O 0.72817 0.61236 0.89716 0.0
O565 O 0.76471 0.58617 0.91828 0.0
O566 O 0.75797 0.60789 0.91285 0.0
C567 C 0.76628 0.60808 0.87592 0.0
C568 C 0.74191 0.57074 0.88846 0.0
O569 O 0.7372 0.5796 0.89765 0.0
O570 O 0.75488 0.57227 0.88424 0.0
C571 C 0.71915 0.61112 0.88668 0.0
O572 O 0.72103 0.60117 0.87675 0.0
C573 C 0.76106 0.59861 0.92237 0.0
Zn574 Zn 0.71407 0.39724 0.07881 0.0
Zn575 Zn 0.73877 0.39651 0.09273 0.0
O576 O 0.72974 0.37673 0.09535 0.0
O577 O 0.70805 0.38536 0.09665 0.0
O578 O 0.75687 0.39646 0.10463 0.0
O579 O 0.71866 0.41897 0.08074 0.0
O580 O 0.72696 0.41182 0.10168 0.0
C581 C 0.71673 0.3753 0.09927 0.0
C582 C 0.73972 0.39059 0.06303 0.0
O583 O 0.74566 0.39923 0.07221 0.0
O584 O 0.7266 0.38643 0.06456 0.0
C585 C 0.76421 0.3851 0.10411 0.0
O586 O 0.75987 0.37433 0.09559 0.0
C587 C 0.72336 0.422 0.09338 0.0
Zn588 Zn 0.57992 0.77231 0.08413 0.0
Zn589 Zn 0.60408 0.74974 0.0871 0.0
O590 O 0.61142 0.7591 0.10453 0.0
O591 O 0.59197 0.77246 0.10356 0.0
O592 O 0.61555 0.73237 0.08488 0.0
O593 O 0.58475 0.76315 0.06434 0.0
O594 O 0.6077 0.76306 0.07034 0.0
C595 C 0.60306 0.76786 0.11028 0.0
C596 C 0.57246 0.74317 0.08395 0.0
O597 O 0.58395 0.74173 0.09133 0.0
O598 O 0.57215 0.75325 0.07461 0.0
C599 C 0.61444 0.72363 0.09551 0.0
O600 O 0.60593 0.7268 0.10626 0.0
C601 C 0.59788 0.76239 0.06072 0.0
Zn602 Zn 0.27168 0.58834 0.07556 0.0
Zn603 Zn 0.2392 0.59213 0.09451 0.0
O604 O 0.25014 0.60916 0.10562 0.0
O605 O 0.2629 0.59838 0.09065 0.0
O606 O 0.21961 0.59139 0.10284 0.0
O607 O 0.26856 0.56816 0.08341 0.0
O608 O 0.248 0.57172 0.09545 0.0
C609 C 0.26187 0.60889 0.09895 0.0
C610 C 0.24266 0.59542 0.06103 0.0
O611 O 0.23581 0.59629 0.07292 0.0
O612 O 0.25599 0.59227 0.06041 0.0
C613 C 0.21351 0.60353 0.10301 0.0
O614 O 0.22003 0.61493 0.09712 0.0
C615 C 0.25807 0.56355 0.09122 0.0
Zn616 Zn 0.4035 0.2143 0.09048 0.0
Zn617 Zn 0.37992 0.23813 0.09013 0.0
O618 O 0.37301 0.22555 0.10588 0.0
O619 O 0.3961 0.22221 0.10941 0.0
O620 O 0.36885 0.25584 0.08999 0.0
O621 O 0.39783 0.2197 0.06934 0.0
O622 O 0.37567 0.22739 0.07214 0.0
C623 C 0.3831 0.2196 0.11275 0.0
C624 C 0.41194 0.24265 0.08608 0.0
O625 O 0.40063 0.24587 0.09281 0.0
O626 O 0.41174 0.2312 0.07841 0.0
C627 C 0.37067 0.26327 0.10147 0.0
O628 O 0.37848 0.25817 0.11225 0.0
C629 C 0.38546 0.22274 0.06418 0.0
Zn630 Zn 0.20342 0.4019 0.89459 0.0
Zn631 Zn 0.23282 0.38192 0.89255 0.0
O632 O 0.22617 0.37363 0.87329 0.0
O633 O 0.20935 0.38806 0.87967 0.0
O634 O 0.25119 0.37187 0.89651 0.0
O635 O 0.20768 0.39684 0.91533 0.0
O636 O 0.21799 0.37695 0.90796 0.0
C637 C 0.21408 0.37909 0.87086 0.0
C638 C 0.23205 0.41597 0.89057 0.0
O639 O 0.23784 0.40361 0.89132 0.0
O640 O 0.21844 0.41757 0.89107 0.0
C641 C 0.26031 0.37299 0.88634 0.0
O642 O 0.25775 0.38193 0.87554 0.0
C643 C 0.21478 0.38561 0.91804 0.0
Zn644 Zn 0.57852 0.25761 0.90496 0.0
Zn645 Zn 0.58414 0.24009 0.88682 0.0
O646 O 0.59756 0.25655 0.88148 0.0
O647 O 0.6006 0.26171 0.90446 0.0
O648 O 0.5887 0.22573 0.87269 0.0
O649 O 0.56474 0.26698 0.89069 0.0
O650 O 0.56318 0.24432 0.8836 0.0
C651 C 0.60525 0.26215 0.89162 0.0
C652 C 0.58131 0.23215 0.91704 0.0
O653 O 0.58976 0.23148 0.90643 0.0
O654 O 0.57029 0.23973 0.91543 0.0
C655 C 0.60112 0.22037 0.87316 0.0
O656 O 0.61028 0.22367 0.88379 0.0
C657 C 0.55761 0.25668 0.88452 0.0
Zn658 Zn 0.39428 0.72687 0.90958 0.0
Zn659 Zn 0.38814 0.7451 0.89166 0.0
O660 O 0.37493 0.72948 0.88422 0.0
O661 O 0.37227 0.72232 0.90668 0.0
O662 O 0.38543 0.76042 0.87773 0.0
O663 O 0.40916 0.71748 0.89681 0.0
O664 O 0.40901 0.7403 0.88991 0.0
C665 C 0.36748 0.72297 0.89373 0.0
C666 C 0.39054 0.75278 0.92134 0.0
O667 O 0.38139 0.75287 0.91102 0.0
O668 O 0.40184 0.74584 0.91932 0.0
C669 C 0.37338 0.76645 0.87675 0.0
O670 O 0.36298 0.76301 0.88582 0.0
C671 C 0.41538 0.72832 0.89079 0.0
C672 C 0.11276 0.35402 0.27801 0.0
C673 C 0.10231 0.35377 0.26699 0.0
C674 C 0.11019 0.34611 0.29062 0.0
C675 C 0.08085 0.32158 0.30759 0.0
H676 H 0.11095 0.32026 0.33682 0.0
C677 C 0.08685 0.26918 0.33939 0.0
C678 C 0.09799 0.26836 0.3497 0.0
C679 C 0.08548 0.28176 0.33129 0.0
C680 C 0.1027 0.3199 0.32842 0.0
H681 H 0.08306 0.34278 0.25836 0.0
H682 H 0.07907 0.32802 0.27941 0.0
H683 H 0.11177 0.33907 0.31931 0.0
H684 H 0.11845 0.27775 0.35726 0.0
H685 H 0.11693 0.29916 0.34255 0.0
H686 H 0.07101 0.30323 0.31762 0.0
C687 C 0.08843 0.33534 0.27964 0.0
C688 C 0.10313 0.33097 0.31819 0.0
C689 C 0.09103 0.34331 0.26712 0.0
C690 C 0.10946 0.27856 0.34963 0.0
C691 C 0.10815 0.29121 0.34155 0.0
C692 C 0.08046 0.31043 0.31776 0.0
C693 C 0.09723 0.33764 0.29216 0.0
C694 C 0.09347 0.33045 0.30623 0.0
C695 C 0.09533 0.29367 0.33343 0.0
C696 C 0.09263 0.30817 0.32677 0.0
H697 H 0.12178 0.36186 0.27782 0.0
H698 H 0.11815 0.34752 0.29921 0.0
H699 H 0.07167 0.32231 0.30028 0.0
H700 H 0.07817 0.26094 0.33898 0.0
H701 H 0.07616 0.28216 0.32415 0.0
C702 C 0.69482 0.08609 0.36369 0.0
C703 C 0.7063 0.09631 0.36464 0.0
C704 C 0.68431 0.08716 0.35271 0.0
C705 C 0.67269 0.11078 0.32065 0.0
H706 H 0.64999 0.07566 0.31223 0.0
C707 C 0.63162 0.10351 0.2713 0.0
C708 C 0.62008 0.09345 0.2735 0.0
C709 C 0.64226 0.10578 0.28223 0.0
C710 C 0.65598 0.08573 0.31454 0.0
H711 H 0.71597 0.11573 0.35524 0.0
H712 H 0.69854 0.11705 0.33535 0.0
H713 H 0.66814 0.07533 0.33086 0.0
H714 H 0.6094 0.07951 0.28924 0.0
H715 H 0.62711 0.08407 0.30834 0.0
H716 H 0.66061 0.12078 0.30342 0.0
C717 C 0.69693 0.1085 0.34325 0.0
C718 C 0.66652 0.08559 0.3255 0.0
C719 C 0.70707 0.10777 0.35467 0.0
C720 C 0.61858 0.08678 0.28705 0.0
C721 C 0.6288 0.08939 0.298 0.0
C722 C 0.66215 0.11084 0.30945 0.0
C723 C 0.68543 0.09804 0.34185 0.0
C724 C 0.67481 0.09821 0.32921 0.0
C725 C 0.64124 0.09824 0.29555 0.0
C726 C 0.6533 0.09842 0.3066 0.0
H727 H 0.69398 0.07724 0.37143 0.0
H728 H 0.67541 0.07926 0.35285 0.0
H729 H 0.67875 0.12081 0.32277 0.0
H730 H 0.63271 0.10911 0.26101 0.0
H731 H 0.65153 0.1129 0.28001 0.0
C732 C 0.88702 0.71242 0.34267 0.0
C733 C 0.87763 0.71214 0.35442 0.0
C734 C 0.88684 0.70073 0.33307 0.0
C735 C 0.86724 0.66548 0.32432 0.0
H736 H 0.90491 0.6559 0.31011 0.0
C737 C 0.87221 0.61737 0.28559 0.0
C738 C 0.88239 0.6193 0.27464 0.0
C739 C 0.87248 0.62681 0.29745 0.0
C740 C 0.89426 0.65845 0.31386 0.0
H741 H 0.85961 0.70087 0.36461 0.0
H742 H 0.85978 0.68015 0.34866 0.0
H743 H 0.90261 0.6773 0.32502 0.0
H744 H 0.90046 0.63273 0.26701 0.0
H745 H 0.90025 0.64969 0.28681 0.0
H746 H 0.85876 0.64694 0.31308 0.0
C747 C 0.86711 0.68924 0.34635 0.0
C748 C 0.89293 0.67082 0.32239 0.0
C749 C 0.86691 0.70118 0.35551 0.0
C750 C 0.89257 0.63092 0.27545 0.0
C751 C 0.8926 0.64054 0.28701 0.0
C752 C 0.86855 0.65317 0.3158 0.0
C753 C 0.87758 0.68851 0.33547 0.0
C754 C 0.87927 0.67481 0.32725 0.0
C755 C 0.8826 0.63864 0.29826 0.0
C756 C 0.88193 0.64983 0.30986 0.0
H757 H 0.89526 0.72101 0.34166 0.0
H758 H 0.89456 0.70091 0.32436 0.0
H759 H 0.85653 0.66804 0.32787 0.0
H760 H 0.86435 0.60838 0.28521 0.0
H761 H 0.86474 0.62476 0.30596 0.0
C762 C 0.34468 0.88763 0.27423 0.0
C763 C 0.35715 0.87954 0.27576 0.0
C764 C 0.3341 0.88694 0.2847 0.0
C765 C 0.32247 0.86761 0.31875 0.0
H766 H 0.30096 0.90267 0.32245 0.0
C767 C 0.28291 0.87609 0.36631 0.0
C768 C 0.27238 0.8866 0.36473 0.0
C769 C 0.2928 0.87386 0.35525 0.0
C770 C 0.30646 0.89255 0.32147 0.0
H771 H 0.36825 0.86391 0.28904 0.0
H772 H 0.35022 0.86352 0.30817 0.0
H773 H 0.31898 0.90144 0.30435 0.0
H774 H 0.26283 0.90185 0.34977 0.0
H775 H 0.27909 0.89729 0.33025 0.0
H776 H 0.31004 0.8589 0.33623 0.0
C777 C 0.34832 0.87011 0.29865 0.0
C778 C 0.317 0.89185 0.31092 0.0
C779 C 0.35877 0.87042 0.2878 0.0
C780 C 0.27124 0.89411 0.35156 0.0
C781 C 0.28074 0.89153 0.34034 0.0
C782 C 0.31185 0.86831 0.3294 0.0
C783 C 0.33593 0.87862 0.29738 0.0
C784 C 0.32504 0.87929 0.30917 0.0
C785 C 0.29212 0.88184 0.34218 0.0
C786 C 0.3035 0.88076 0.33082 0.0
H787 H 0.34292 0.89441 0.26479 0.0
H788 H 0.32447 0.89304 0.28274 0.0
H789 H 0.32833 0.8577 0.31785 0.0
H790 H 0.28375 0.86983 0.37623 0.0
H791 H 0.30121 0.86621 0.35726 0.0
C792 C 0.08457 0.62251 0.69468 0.0
C793 C 0.09588 0.62009 0.70458 0.0
C794 C 0.08586 0.63372 0.68447 0.0
C795 C 0.11284 0.6607 0.66862 0.0
H796 H 0.07773 0.67727 0.65356 0.0
C797 C 0.11437 0.70595 0.62472 0.0
C798 C 0.10224 0.70707 0.61559 0.0
C799 C 0.11412 0.6961 0.63626 0.0
C800 C 0.08768 0.67263 0.65741 0.0
H801 H 0.11742 0.62714 0.71159 0.0
H802 H 0.11937 0.64723 0.69464 0.0
H803 H 0.07623 0.65921 0.67256 0.0
H804 H 0.08099 0.69795 0.61008 0.0
H805 H 0.08097 0.67982 0.62928 0.0
H806 H 0.1243 0.6741 0.65352 0.0
C807 C 0.1097 0.64029 0.69411 0.0
C808 C 0.08681 0.66217 0.66842 0.0
C809 C 0.1086 0.62875 0.70392 0.0
C810 C 0.09041 0.69733 0.61718 0.0
C811 C 0.09032 0.68716 0.62841 0.0
C812 C 0.1137 0.67116 0.65763 0.0
C813 C 0.09827 0.64311 0.6843 0.0
C814 C 0.09934 0.65558 0.67381 0.0
C815 C 0.10189 0.68682 0.63856 0.0
C816 C 0.10111 0.67687 0.65142 0.0
H817 H 0.07469 0.61583 0.69495 0.0
H818 H 0.07702 0.63502 0.6768 0.0
H819 H 0.12283 0.65611 0.6724 0.0
H820 H 0.12358 0.71346 0.6237 0.0
H821 H 0.12326 0.69634 0.64374 0.0
C822 C 0.27144 0.11089 0.63592 0.0
C823 C 0.27252 0.10214 0.62366 0.0
C824 C 0.28136 0.10968 0.64738 0.0
C825 C 0.31093 0.08567 0.66089 0.0
H826 H 0.32041 0.11919 0.68503 0.0
C827 C 0.36328 0.08848 0.69344 0.0
C828 C 0.36337 0.09448 0.70735 0.0
C829 C 0.35138 0.08995 0.68429 0.0
C830 C 0.31777 0.10966 0.67853 0.0
H831 H 0.28514 0.08573 0.61328 0.0
H832 H 0.30289 0.08438 0.63253 0.0
H833 H 0.30127 0.12055 0.66706 0.0
H834 H 0.35187 0.10761 0.7225 0.0
H835 H 0.33051 0.10974 0.70663 0.0
H836 H 0.3279 0.07505 0.67214 0.0
C837 C 0.29405 0.09162 0.63394 0.0
C838 C 0.30668 0.11037 0.66816 0.0
C839 C 0.28398 0.0926 0.62268 0.0
C840 C 0.35183 0.10279 0.71178 0.0
C841 C 0.33968 0.10399 0.70271 0.0
C842 C 0.32214 0.08505 0.67111 0.0
C843 C 0.29275 0.09992 0.64664 0.0
C844 C 0.30342 0.09858 0.65882 0.0
C845 C 0.33917 0.09713 0.68904 0.0
C846 C 0.32604 0.09723 0.67966 0.0
H847 H 0.2627 0.11836 0.63686 0.0
H848 H 0.27975 0.11618 0.65693 0.0
H849 H 0.30835 0.07604 0.65454 0.0
H850 H 0.37233 0.08237 0.68972 0.0
H851 H 0.35165 0.08516 0.67358 0.0
C852 C 0.87779 0.28466 0.61695 0.0
C853 C 0.8862 0.27241 0.61854 0.0
C854 C 0.87737 0.29485 0.6282 0.0
C855 C 0.88986 0.30065 0.66746 0.0
H856 H 0.87533 0.33874 0.65958 0.0
C857 C 0.88075 0.34122 0.71385 0.0
C858 C 0.87148 0.3526 0.7111 0.0
C859 C 0.8839 0.33165 0.7028 0.0
C860 C 0.87911 0.32803 0.6621 0.0
H861 H 0.8997 0.26042 0.63343 0.0
H862 H 0.89987 0.27805 0.65224 0.0
H863 H 0.87872 0.32232 0.63975 0.0
H864 H 0.85612 0.36157 0.69599 0.0
H865 H 0.85988 0.34357 0.67727 0.0
H866 H 0.89042 0.30631 0.68969 0.0
C867 C 0.89336 0.28028 0.64275 0.0
C868 C 0.88107 0.31847 0.65059 0.0
C869 C 0.8935 0.27007 0.63171 0.0
C870 C 0.86337 0.35282 0.69821 0.0
C871 C 0.86603 0.34282 0.6873 0.0
C872 C 0.8879 0.31018 0.67891 0.0
C873 C 0.88555 0.29309 0.64119 0.0
C874 C 0.88565 0.30423 0.65314 0.0
C875 C 0.87714 0.33278 0.68902 0.0
C876 C 0.88161 0.32366 0.67656 0.0
H877 H 0.87178 0.28651 0.60697 0.0
H878 H 0.87058 0.30403 0.62655 0.0
H879 H 0.89379 0.29014 0.67035 0.0
H880 H 0.88712 0.341 0.72383 0.0
H881 H 0.89245 0.32419 0.70489 0.0
C882 C 0.69342 0.88804 0.62064 0.0
C883 C 0.70644 0.88103 0.62264 0.0
C884 C 0.68313 0.88752 0.63129 0.0
C885 C 0.67378 0.87186 0.66766 0.0
H886 H 0.64901 0.90474 0.66557 0.0
C887 C 0.625 0.87337 0.70566 0.0
C888 C 0.61691 0.88584 0.70634 0.0
C889 C 0.63612 0.87253 0.69572 0.0
C890 C 0.65548 0.8953 0.66661 0.0
H891 H 0.71849 0.86644 0.63625 0.0
H892 H 0.7006 0.86593 0.65558 0.0
H893 H 0.66861 0.9036 0.64972 0.0
H894 H 0.61243 0.9064 0.69631 0.0
H895 H 0.6311 0.90507 0.67875 0.0
H896 H 0.66221 0.86464 0.68596 0.0
C897 C 0.69826 0.87197 0.64582 0.0
C898 C 0.66689 0.89454 0.65705 0.0
C899 C 0.70854 0.87219 0.63479 0.0
C900 C 0.61892 0.89682 0.69609 0.0
C901 C 0.62996 0.896 0.68605 0.0
C902 C 0.66275 0.87296 0.67775 0.0
C903 C 0.68578 0.8804 0.64452 0.0
C904 C 0.67552 0.88226 0.65666 0.0
C905 C 0.63946 0.88422 0.68623 0.0
C906 C 0.65264 0.88414 0.67677 0.0
H907 H 0.69142 0.89451 0.61102 0.0
H908 H 0.67325 0.89316 0.62914 0.0
H909 H 0.6805 0.8625 0.66829 0.0
H910 H 0.62343 0.86467 0.71347 0.0
H911 H 0.64213 0.86273 0.69601 0.0
C912 C 0.35225 0.11552 0.27792 0.0
C913 C 0.36214 0.10447 0.27786 0.0
C914 C 0.34049 0.11462 0.28717 0.0
C915 C 0.32271 0.08847 0.31447 0.0
H916 H 0.29733 0.12073 0.31826 0.0
C917 C 0.28409 0.08831 0.36127 0.0
C918 C 0.27083 0.09502 0.35984 0.0
C919 C 0.29469 0.09065 0.351 0.0
C920 C 0.30419 0.11151 0.31734 0.0
H921 H 0.36914 0.08497 0.28848 0.0
H922 H 0.34991 0.08407 0.30568 0.0
H923 H 0.31597 0.12206 0.30082 0.0
H924 H 0.2584 0.11033 0.34743 0.0
H925 H 0.27644 0.11345 0.3285 0.0
H926 H 0.31016 0.07771 0.33058 0.0
C927 C 0.34988 0.09281 0.2979 0.0
C928 C 0.31525 0.11227 0.30721 0.0
C929 C 0.36134 0.09348 0.28828 0.0
C930 C 0.26848 0.10472 0.3484 0.0
C931 C 0.27893 0.10661 0.33769 0.0
C932 C 0.3116 0.08769 0.32448 0.0
C933 C 0.33865 0.10286 0.29696 0.0
C934 C 0.32537 0.10116 0.30619 0.0
C935 C 0.29199 0.09911 0.33859 0.0
C936 C 0.30266 0.09951 0.32663 0.0
H937 H 0.3528 0.12412 0.26987 0.0
H938 H 0.33269 0.12296 0.28589 0.0
H939 H 0.32908 0.07895 0.31348 0.0
H940 H 0.28636 0.08132 0.37044 0.0
H941 H 0.30493 0.08552 0.35275 0.0
C942 C 0.88792 0.28589 0.36642 0.0
C943 C 0.87606 0.27612 0.36725 0.0
C944 C 0.88908 0.29554 0.35484 0.0
C945 C 0.87127 0.30342 0.31826 0.0
H946 H 0.89673 0.33731 0.32158 0.0
C947 C 0.86441 0.35055 0.27754 0.0
C948 C 0.87481 0.36187 0.27719 0.0
C949 C 0.86566 0.33942 0.2878 0.0
C950 C 0.88938 0.3281 0.32009 0.0
H951 H 0.85534 0.26957 0.35776 0.0
H952 H 0.85653 0.28722 0.33825 0.0
H953 H 0.89659 0.32017 0.34031 0.0
H954 H 0.89375 0.37156 0.28777 0.0
H955 H 0.89628 0.35272 0.30521 0.0
H956 H 0.86416 0.31145 0.29789 0.0
C957 C 0.86558 0.28696 0.34579 0.0
C958 C 0.88943 0.31784 0.33119 0.0
C959 C 0.8646 0.27709 0.35728 0.0
C960 C 0.88569 0.36272 0.28784 0.0
C961 C 0.8871 0.35162 0.29792 0.0
C962 C 0.8711 0.31381 0.30717 0.0
C963 C 0.87817 0.29593 0.34395 0.0
C964 C 0.87974 0.30572 0.33096 0.0
C965 C 0.87746 0.33934 0.29783 0.0
C966 C 0.87945 0.32691 0.30832 0.0
H967 H 0.89685 0.28532 0.37416 0.0
H968 H 0.89901 0.30201 0.35424 0.0
H969 H 0.86448 0.29371 0.31684 0.0
H970 H 0.85589 0.34977 0.26934 0.0
H971 H 0.85741 0.33085 0.28747 0.0
C972 C 0.70976 0.89137 0.34499 0.0
C973 C 0.70908 0.88067 0.35576 0.0
C974 C 0.69775 0.89362 0.33601 0.0
C975 C 0.66282 0.87468 0.32489 0.0
H976 H 0.65958 0.90929 0.30148 0.0
C977 C 0.619 0.87863 0.27999 0.0
C978 C 0.62034 0.88996 0.26997 0.0
C979 C 0.62959 0.87706 0.29072 0.0
C980 C 0.6605 0.89934 0.30761 0.0
H981 H 0.69545 0.8648 0.36667 0.0
H982 H 0.67431 0.86899 0.35173 0.0
H983 H 0.67689 0.90916 0.32128 0.0
H984 H 0.63455 0.90677 0.2612 0.0
H985 H 0.65393 0.90302 0.27883 0.0
H986 H 0.64675 0.86471 0.31134 0.0
C987 C 0.68417 0.87506 0.34923 0.0
C988 C 0.67046 0.89933 0.31917 0.0
C989 C 0.69632 0.87252 0.35781 0.0
C990 C 0.6332 0.89833 0.26932 0.0
C991 C 0.64414 0.89631 0.27962 0.0
C992 C 0.65297 0.87466 0.31333 0.0
C993 C 0.68471 0.88544 0.33797 0.0
C994 C 0.67226 0.88673 0.32758 0.0
C995 C 0.64198 0.88648 0.29121 0.0
C996 C 0.65202 0.88676 0.30411 0.0
H997 H 0.71939 0.89832 0.34387 0.0
H998 H 0.69885 0.90167 0.32752 0.0
H999 H 0.6636 0.86469 0.33095 0.0
H1000 H 0.60918 0.87187 0.28036 0.0
H1001 H 0.62734 0.86914 0.2991 0.0
C1002 C 0.10381 0.64603 0.26689 0.0
C1003 C 0.10546 0.63132 0.26966 0.0
C1004 C 0.10178 0.65557 0.27835 0.0
C1005 C 0.09551 0.65514 0.31952 0.0
H1006 H 0.09315 0.69608 0.31197 0.0
C1007 C 0.096 0.69519 0.36812 0.0
C1008 C 0.09557 0.71005 0.36538 0.0
C1009 C 0.09595 0.68538 0.35653 0.0
C1010 C 0.09425 0.68482 0.31476 0.0
H1011 H 0.10747 0.61488 0.2862 0.0
H1012 H 0.10475 0.63112 0.30613 0.0
H1013 H 0.09587 0.68038 0.29252 0.0
H1014 H 0.09614 0.7267 0.34887 0.0
H1015 H 0.0969 0.71034 0.329 0.0
H1016 H 0.09343 0.65967 0.34181 0.0
C1017 C 0.10424 0.63579 0.29541 0.0
C1018 C 0.09571 0.67541 0.3031 0.0
C1019 C 0.10634 0.62634 0.28394 0.0
C1020 C 0.09618 0.71514 0.35113 0.0
C1021 C 0.09636 0.70547 0.3396 0.0
C1022 C 0.09433 0.66461 0.33125 0.0
C1023 C 0.10111 0.65052 0.29289 0.0
C1024 C 0.09737 0.66042 0.30525 0.0
C1025 C 0.09555 0.69027 0.34191 0.0
C1026 C 0.09465 0.6798 0.32924 0.0
H1027 H 0.10306 0.64997 0.25582 0.0
H1028 H 0.10009 0.66668 0.27535 0.0
H1029 H 0.09518 0.6437 0.32203 0.0
H1030 H 0.09564 0.69113 0.37915 0.0
H1031 H 0.09595 0.67404 0.35938 0.0
C1032 C 0.3492 0.8775 0.71061 0.0
C1033 C 0.36079 0.88723 0.70753 0.0
C1034 C 0.33755 0.8759 0.70069 0.0
C1035 C 0.32141 0.8974 0.67091 0.0
H1036 H 0.30158 0.86168 0.65881 0.0
C1037 C 0.28788 0.89764 0.61859 0.0
C1038 C 0.27595 0.88802 0.61702 0.0
C1039 C 0.29763 0.896 0.63017 0.0
C1040 C 0.30682 0.87185 0.6621 0.0
H1041 H 0.37049 0.90122 0.69123 0.0
H1042 H 0.35078 0.89803 0.67388 0.0
H1043 H 0.31901 0.86131 0.6789 0.0
H1044 H 0.26511 0.86871 0.62548 0.0
H1045 H 0.28134 0.86641 0.64627 0.0
H1046 H 0.30925 0.90814 0.65466 0.0
C1047 C 0.35002 0.89234 0.68415 0.0
C1048 C 0.31686 0.87157 0.67369 0.0
C1049 C 0.36136 0.89412 0.69404 0.0
C1050 C 0.2743 0.87628 0.6266 0.0
C1051 C 0.28368 0.87497 0.63853 0.0
C1052 C 0.31136 0.89772 0.65953 0.0
C1053 C 0.33762 0.88388 0.68762 0.0
C1054 C 0.32486 0.88423 0.67762 0.0
C1055 C 0.29523 0.88514 0.64083 0.0
C1056 C 0.30449 0.88483 0.65434 0.0
H1057 H 0.34878 0.87182 0.72091 0.0
H1058 H 0.32827 0.86903 0.70352 0.0
H1059 H 0.32686 0.90751 0.67418 0.0
H1060 H 0.28945 0.90661 0.61109 0.0
H1061 H 0.30682 0.90357 0.63092 0.0
C1062 C 0.10036 0.36899 0.69461 0.0
C1063 C 0.10085 0.36512 0.70922 0.0
C1064 C 0.09845 0.35824 0.68401 0.0
C1065 C 0.09268 0.3168 0.68054 0.0
H1066 H 0.09832 0.32693 0.6405 0.0
C1067 C 0.10314 0.27112 0.6394 0.0
C1068 C 0.1038 0.27472 0.62472 0.0
C1069 C 0.10203 0.28216 0.64971 0.0
C1070 C 0.09717 0.32345 0.65158 0.0
H1071 H 0.1008 0.34741 0.72454 0.0
H1072 H 0.09881 0.32871 0.70658 0.0
H1073 H 0.09677 0.34547 0.65748 0.0
H1074 H 0.10566 0.29209 0.6091 0.0
H1075 H 0.10393 0.311 0.62628 0.0
H1076 H 0.09247 0.29469 0.6744 0.0
C1077 C 0.09888 0.33975 0.70269 0.0
C1078 C 0.09607 0.33455 0.66168 0.0
C1079 C 0.10049 0.35051 0.71319 0.0
C1080 C 0.10494 0.28921 0.6205 0.0
C1081 C 0.10359 0.30015 0.6306 0.0
C1082 C 0.09399 0.30565 0.67044 0.0
C1083 C 0.09721 0.34331 0.68785 0.0
C1084 C 0.09504 0.33151 0.67659 0.0
C1085 C 0.10107 0.2969 0.64536 0.0
C1086 C 0.09743 0.30874 0.65589 0.0
H1087 H 0.10044 0.38033 0.69144 0.0
H1088 H 0.09751 0.36199 0.67298 0.0
H1089 H 0.09014 0.31355 0.69148 0.0
H1090 H 0.10245 0.25985 0.6428 0.0
H1091 H 0.10131 0.27881 0.66089 0.0
C1092 C 0.69865 0.11266 0.61775 0.0
C1093 C 0.70986 0.10291 0.61931 0.0
C1094 C 0.68733 0.11249 0.62775 0.0
C1095 C 0.67358 0.09039 0.66014 0.0
H1096 H 0.64946 0.12343 0.66513 0.0
C1097 C 0.6368 0.09128 0.70902 0.0
C1098 C 0.62345 0.09794 0.7078 0.0
C1099 C 0.64726 0.09351 0.69846 0.0
C1100 C 0.65604 0.11404 0.66392 0.0
H1101 H 0.71864 0.08602 0.6329 0.0
H1102 H 0.70029 0.08653 0.65059 0.0
H1103 H 0.66688 0.12369 0.64589 0.0
H1104 H 0.61084 0.11286 0.69503 0.0
H1105 H 0.62858 0.11582 0.6759 0.0
H1106 H 0.66276 0.08069 0.67799 0.0
C1107 C 0.69907 0.09363 0.64136 0.0
C1108 C 0.66615 0.11414 0.65269 0.0
C1109 C 0.70995 0.09348 0.63122 0.0
C1110 C 0.62093 0.10727 0.69603 0.0
C1111 C 0.63125 0.10914 0.68516 0.0
C1112 C 0.66369 0.09037 0.67137 0.0
C1113 C 0.68728 0.10286 0.63976 0.0
C1114 C 0.67544 0.10246 0.65083 0.0
C1115 C 0.64445 0.10192 0.68599 0.0
C1116 C 0.65492 0.10228 0.67369 0.0
H1117 H 0.69838 0.12008 0.60862 0.0
H1118 H 0.67861 0.11979 0.62581 0.0
H1119 H 0.67956 0.08063 0.65883 0.0
H1120 H 0.63929 0.08447 0.71826 0.0
H1121 H 0.65753 0.08842 0.7001 0.0
C1122 C 0.87643 0.71393 0.6412 0.0
C1123 C 0.88597 0.71377 0.62963 0.0
C1124 C 0.87497 0.70172 0.65005 0.0
C1125 C 0.88586 0.66308 0.65372 0.0
H1126 H 0.88032 0.67175 0.69431 0.0
C1127 C 0.89188 0.62027 0.69809 0.0
C1128 C 0.88554 0.62248 0.71153 0.0
C1129 C 0.89044 0.63031 0.68713 0.0
C1130 C 0.8815 0.66901 0.68299 0.0
H1131 H 0.9 0.70066 0.61684 0.0
H1132 H 0.89828 0.67982 0.63259 0.0
H1133 H 0.88085 0.69123 0.67691 0.0
H1134 H 0.87068 0.63531 0.72358 0.0
H1135 H 0.86732 0.65282 0.70389 0.0
H1136 H 0.88666 0.64091 0.65972 0.0
C1137 C 0.89186 0.68905 0.6351 0.0
C1138 C 0.88183 0.68026 0.67295 0.0
C1139 C 0.8931 0.70111 0.62621 0.0
C1140 C 0.87615 0.63387 0.7134 0.0
C1141 C 0.8744 0.64389 0.70219 0.0
C1142 C 0.88548 0.65181 0.66375 0.0
C1143 C 0.88325 0.6894 0.6475 0.0
C1144 C 0.88356 0.6774 0.65814 0.0
C1145 C 0.88226 0.64265 0.68924 0.0
C1146 C 0.88287 0.65458 0.67848 0.0
H1147 H 0.87046 0.72354 0.64357 0.0
H1148 H 0.86763 0.70207 0.65905 0.0
H1149 H 0.88734 0.66036 0.64244 0.0
H1150 H 0.89853 0.61101 0.6962 0.0
H1151 H 0.89656 0.6287 0.67741 0.0
C1152 C 0.27556 0.35358 0.11157 0.0
C1153 C 0.27378 0.36169 0.09887 0.0
C1154 C 0.28609 0.34307 0.11248 0.0
C1155 C 0.3135 0.32429 0.08886 0.0
H1156 H 0.32383 0.30746 0.12584 0.0
C1157 C 0.36144 0.28626 0.09178 0.0
C1158 C 0.36248 0.2764 0.10324 0.0
C1159 C 0.35125 0.29707 0.0921 0.0
C1160 C 0.3212 0.31179 0.11528 0.0
H1161 H 0.28246 0.36652 0.07774 0.0
H1162 H 0.30183 0.34958 0.07974 0.0
H1163 H 0.30537 0.32465 0.12476 0.0
H1164 H 0.35483 0.27055 0.12453 0.0
H1165 H 0.33638 0.28842 0.12484 0.0
H1166 H 0.32906 0.31103 0.07936 0.0
C1167 C 0.29445 0.35004 0.08867 0.0
C1168 C 0.31029 0.32196 0.11462 0.0
C1169 C 0.28347 0.36009 0.08754 0.0
C1170 C 0.35404 0.27806 0.11551 0.0
C1171 C 0.34339 0.28846 0.1156 0.0
C1172 C 0.32438 0.31412 0.08952 0.0
C1173 C 0.29561 0.34078 0.10089 0.0
C1174 C 0.30655 0.3289 0.10148 0.0
C1175 C 0.34134 0.29783 0.1036 0.0
C1176 C 0.32889 0.30803 0.10283 0.0
H1177 H 0.2682 0.35468 0.1205 0.0
H1178 H 0.28618 0.33651 0.12217 0.0
H1179 H 0.31059 0.32834 0.07825 0.0
H1180 H 0.3682 0.28533 0.08235 0.0
H1181 H 0.35102 0.30451 0.08304 0.0
C1182 C 0.34219 0.71461 0.89793 0.0
C1183 C 0.35458 0.71445 0.88947 0.0
C1184 C 0.33134 0.70387 0.89604 0.0
C1185 C 0.32334 0.66845 0.87587 0.0
H1186 H 0.30048 0.66151 0.91003 0.0
C1187 C 0.27811 0.62486 0.87259 0.0
C1188 C 0.26745 0.62436 0.88303 0.0
C1189 C 0.29029 0.63394 0.87448 0.0
C1190 C 0.30644 0.66319 0.90017 0.0
H1191 H 0.36468 0.70468 0.8711 0.0
H1192 H 0.3468 0.68535 0.86849 0.0
H1193 H 0.31682 0.68198 0.90936 0.0
H1194 H 0.26078 0.63256 0.90372 0.0
H1195 H 0.28094 0.64952 0.90653 0.0
H1196 H 0.31438 0.64917 0.86716 0.0
C1197 C 0.34485 0.69348 0.87656 0.0
C1198 C 0.31592 0.6753 0.89974 0.0
C1199 C 0.3553 0.70464 0.87801 0.0
C1200 C 0.26869 0.6334 0.89517 0.0
C1201 C 0.28071 0.6428 0.89696 0.0
C1202 C 0.3142 0.65618 0.87647 0.0
C1203 C 0.33321 0.69228 0.8863 0.0
C1204 C 0.32388 0.67868 0.88718 0.0
C1205 C 0.29196 0.64318 0.88672 0.0
C1206 C 0.30458 0.65393 0.88804 0.0
H1207 H 0.34123 0.72261 0.90644 0.0
H1208 H 0.32197 0.7043 0.90286 0.0
H1209 H 0.32945 0.66996 0.86608 0.0
H1210 H 0.27762 0.61732 0.86355 0.0
H1211 H 0.29836 0.63313 0.86627 0.0
C1212 C 0.28079 0.36184 0.87304 0.0
C1213 C 0.27194 0.36241 0.88529 0.0
C1214 C 0.29053 0.35057 0.87143 0.0
C1215 C 0.30016 0.31471 0.88938 0.0
H1216 H 0.33335 0.31793 0.86456 0.0
C1217 C 0.34434 0.27287 0.89655 0.0
C1218 C 0.35584 0.272 0.887 0.0
C1219 C 0.33398 0.28335 0.89471 0.0
C1220 C 0.32424 0.31664 0.87167 0.0
H1221 H 0.26687 0.35198 0.90572 0.0
H1222 H 0.28418 0.3335 0.90372 0.0
H1223 H 0.31603 0.33684 0.86428 0.0
H1224 H 0.36562 0.28162 0.86791 0.0
H1225 H 0.34749 0.29973 0.86434 0.0
H1226 H 0.30767 0.29469 0.89659 0.0
C1227 C 0.2833 0.34089 0.89468 0.0
C1228 C 0.31406 0.32771 0.87145 0.0
C1229 C 0.27344 0.35187 0.8961 0.0
C1230 C 0.35684 0.28202 0.87551 0.0
C1231 C 0.34629 0.29253 0.87351 0.0
C1232 C 0.31027 0.30384 0.88971 0.0
C1233 C 0.29186 0.33968 0.88218 0.0
C1234 C 0.3021 0.32727 0.88081 0.0
C1235 C 0.33446 0.29339 0.88305 0.0
C1236 C 0.32292 0.3047 0.88133 0.0
H1237 H 0.2799 0.36984 0.86447 0.0
H1238 H 0.29671 0.35033 0.86159 0.0
H1239 H 0.2907 0.31295 0.89596 0.0
H1240 H 0.34319 0.26532 0.90552 0.0
H1241 H 0.32579 0.28342 0.90287 0.0
C1242 C 0.63039 0.27113 0.89682 0.0
C1243 C 0.61776 0.27154 0.88829 0.0
C1244 C 0.6411 0.28209 0.89547 0.0
C1245 C 0.65205 0.31449 0.87296 0.0
H1246 H 0.67547 0.3231 0.90725 0.0
C1247 C 0.69758 0.35935 0.87364 0.0
C1248 C 0.70817 0.35848 0.88454 0.0
C1249 C 0.68624 0.34898 0.87304 0.0
C1250 C 0.66927 0.32067 0.89745 0.0
H1251 H 0.6066 0.28273 0.87105 0.0
H1252 H 0.62454 0.30241 0.8694 0.0
H1253 H 0.65597 0.30503 0.90854 0.0
H1254 H 0.71734 0.34505 0.90134 0.0
H1255 H 0.69851 0.32601 0.89929 0.0
H1256 H 0.66525 0.33006 0.86184 0.0
C1257 C 0.62668 0.29362 0.87683 0.0
C1258 C 0.65798 0.31026 0.89821 0.0
C1259 C 0.61631 0.28235 0.87777 0.0
C1260 C 0.70888 0.34601 0.89315 0.0
C1261 C 0.69789 0.33533 0.89218 0.0
C1262 C 0.66335 0.32488 0.8722 0.0
C1263 C 0.63903 0.29393 0.886 0.0
C1264 C 0.64969 0.30647 0.88576 0.0
C1265 C 0.68579 0.33729 0.88296 0.0
C1266 C 0.67262 0.32756 0.8842 0.0
H1267 H 0.63178 0.26261 0.90478 0.0
H1268 H 0.65078 0.28144 0.90216 0.0
H1269 H 0.64585 0.31219 0.86314 0.0
H1270 H 0.69709 0.36887 0.86675 0.0
H1271 H 0.67738 0.35089 0.86558 0.0
C1272 C 0.70612 0.63255 0.89549 0.0
C1273 C 0.70759 0.6217 0.88504 0.0
C1274 C 0.69554 0.6429 0.89389 0.0
C1275 C 0.66237 0.6519 0.87111 0.0
H1276 H 0.66682 0.68746 0.8932 0.0
C1277 C 0.62008 0.69766 0.86758 0.0
C1278 C 0.61922 0.70691 0.87959 0.0
C1279 C 0.63058 0.68701 0.86733 0.0
C1280 C 0.66509 0.67748 0.88716 0.0
H1281 H 0.69928 0.61331 0.86449 0.0
H1282 H 0.68141 0.63172 0.86118 0.0
H1283 H 0.68563 0.67037 0.89409 0.0
H1284 H 0.62781 0.71151 0.90122 0.0
H1285 H 0.64513 0.69275 0.90121 0.0
H1286 H 0.64181 0.65941 0.86396 0.0
C1287 C 0.68793 0.63209 0.87101 0.0
C1288 C 0.67608 0.66747 0.88768 0.0
C1289 C 0.69834 0.6215 0.87282 0.0
C1290 C 0.62836 0.70478 0.89163 0.0
C1291 C 0.63855 0.69405 0.89151 0.0
C1292 C 0.65134 0.662 0.87054 0.0
C1293 C 0.68626 0.64301 0.88155 0.0
C1294 C 0.67484 0.65426 0.87998 0.0
C1295 C 0.64027 0.68531 0.87919 0.0
C1296 C 0.65233 0.6748 0.87887 0.0
H1297 H 0.71309 0.63305 0.90505 0.0
H1298 H 0.69461 0.6506 0.90261 0.0
H1299 H 0.66069 0.64201 0.86494 0.0
H1300 H 0.61301 0.69894 0.85821 0.0
H1301 H 0.63137 0.68053 0.85763 0.0
C1302 C 0.6337 0.70855 0.08555 0.0
C1303 C 0.62387 0.7111 0.09657 0.0
C1304 C 0.64376 0.69772 0.08708 0.0
C1305 C 0.65415 0.66561 0.1099 0.0
H1306 H 0.68965 0.67191 0.08873 0.0
C1307 C 0.69926 0.62255 0.10899 0.0
C1308 C 0.70765 0.62197 0.09642 0.0
C1309 C 0.68936 0.6336 0.11079 0.0
C1310 C 0.67972 0.66972 0.09452 0.0
H1311 H 0.61626 0.70376 0.11755 0.0
H1312 H 0.63419 0.68518 0.12055 0.0
H1313 H 0.672 0.69044 0.08869 0.0
H1314 H 0.71161 0.63199 0.07554 0.0
H1315 H 0.69397 0.65052 0.07816 0.0
H1316 H 0.66213 0.64486 0.11589 0.0
C1317 C 0.63414 0.69141 0.1106 0.0
C1318 C 0.66945 0.68047 0.09448 0.0
C1319 C 0.62386 0.70215 0.10893 0.0
C1320 C 0.70544 0.6322 0.08542 0.0
C1321 C 0.69542 0.64305 0.08709 0.0
C1322 C 0.66451 0.65479 0.10997 0.0
C1323 C 0.64453 0.68926 0.09982 0.0
C1324 C 0.65618 0.67837 0.10161 0.0
C1325 C 0.68745 0.64422 0.09995 0.0
C1326 C 0.67719 0.6564 0.10172 0.0
H1327 H 0.63384 0.71509 0.07577 0.0
H1328 H 0.65097 0.69608 0.07815 0.0
H1329 H 0.64426 0.66353 0.11577 0.0
H1330 H 0.70068 0.61479 0.11769 0.0
H1331 H 0.68356 0.63399 0.12087 0.0
C1332 C 0.35269 0.71018 0.10187 0.0
C1333 C 0.36356 0.7076 0.09185 0.0
C1334 C 0.3416 0.69973 0.10404 0.0
C1335 C 0.32443 0.66862 0.08402 0.0
H1336 H 0.30336 0.66204 0.1195 0.0
C1337 C 0.2838 0.62072 0.08856 0.0
C1338 C 0.27257 0.62102 0.09861 0.0
C1339 C 0.29413 0.63201 0.08793 0.0
C1340 C 0.30889 0.66388 0.10938 0.0
H1341 H 0.3726 0.6917 0.07765 0.0
H1342 H 0.35386 0.67321 0.082 0.0
H1343 H 0.32351 0.67961 0.11927 0.0
H1344 H 0.26294 0.63358 0.1155 0.0
H1345 H 0.28063 0.65376 0.11404 0.0
H1346 H 0.30976 0.65337 0.07393 0.0
C1347 C 0.35319 0.68355 0.08746 0.0
C1348 C 0.32059 0.67395 0.10931 0.0
C1349 C 0.36395 0.69411 0.08497 0.0
C1350 C 0.2716 0.63304 0.10776 0.0
C1351 C 0.28185 0.64454 0.10697 0.0
C1352 C 0.31271 0.65872 0.08404 0.0
C1353 C 0.34146 0.68648 0.09641 0.0
C1354 C 0.32872 0.67617 0.0967 0.0
C1355 C 0.29339 0.64413 0.09715 0.0
C1356 C 0.30495 0.65588 0.09681 0.0
H1357 H 0.35244 0.72047 0.10754 0.0
H1358 H 0.33284 0.70232 0.11114 0.0
H1359 H 0.33001 0.67046 0.07391 0.0
H1360 H 0.28476 0.61166 0.08121 0.0
H1361 H 0.30289 0.63092 0.08042 0.0
C1362 C 0.70015 0.35903 0.11267 0.0
C1363 C 0.7105 0.36089 0.10197 0.0
C1364 C 0.68981 0.34775 0.11152 0.0
C1365 C 0.67576 0.31885 0.08436 0.0
H1366 H 0.64543 0.31696 0.11254 0.0
C1367 C 0.63683 0.26906 0.08422 0.0
C1368 C 0.62493 0.26879 0.09333 0.0
C1369 C 0.64727 0.28028 0.08537 0.0
C1370 C 0.65393 0.31674 0.1047 0.0
H1371 H 0.72006 0.35141 0.08312 0.0
H1372 H 0.70239 0.33183 0.08095 0.0
H1373 H 0.66279 0.33609 0.11374 0.0
H1374 H 0.61563 0.27807 0.11239 0.0
H1375 H 0.63337 0.29755 0.11455 0.0
H1376 H 0.66554 0.30072 0.07404 0.0
C1377 C 0.70126 0.33919 0.0899 0.0
C1378 C 0.66432 0.32803 0.1055 0.0
C1379 C 0.71183 0.35026 0.09133 0.0
C1380 C 0.62456 0.27849 0.10491 0.0
C1381 C 0.63475 0.28996 0.10585 0.0
C1382 C 0.66519 0.3077 0.08339 0.0
C1383 C 0.68925 0.33849 0.09925 0.0
C1384 C 0.67638 0.32837 0.09633 0.0
C1385 C 0.64561 0.29181 0.09527 0.0
C1386 C 0.655 0.30549 0.09449 0.0
H1387 H 0.69935 0.36696 0.12126 0.0
H1388 H 0.68196 0.34707 0.12002 0.0
H1389 H 0.68352 0.31946 0.07576 0.0
H1390 H 0.63757 0.26113 0.07561 0.0
H1391 H 0.65611 0.28 0.07792 0.0
C1392 C 0.59701 0.86876 0.78959 0.0
C1393 C 0.60376 0.86665 0.77632 0.0
C1394 C 0.59382 0.85714 0.7986 0.0
C1395 C 0.59757 0.81658 0.80196 0.0
H1396 H 0.59802 0.8271 0.84258 0.0
C1397 C 0.604 0.77189 0.84386 0.0
C1398 C 0.59668 0.7736 0.85682 0.0
C1399 C 0.60623 0.78386 0.83478 0.0
C1400 C 0.59769 0.82369 0.83137 0.0
H1401 H 0.61273 0.85088 0.76196 0.0
H1402 H 0.60903 0.83061 0.7786 0.0
H1403 H 0.59589 0.84548 0.82492 0.0
H1404 H 0.58811 0.78894 0.8719 0.0
H1405 H 0.59095 0.80943 0.85607 0.0
H1406 H 0.59923 0.79466 0.80863 0.0
C1407 C 0.60523 0.84108 0.78177 0.0
C1408 C 0.59634 0.83448 0.82096 0.0
C1409 C 0.60781 0.85276 0.77235 0.0
C1410 C 0.59305 0.78741 0.86145 0.0
C1411 C 0.595 0.79926 0.85236 0.0
C1412 C 0.59886 0.80574 0.81241 0.0
C1413 C 0.59826 0.84313 0.79514 0.0
C1414 C 0.5969 0.83122 0.80605 0.0
C1415 C 0.60069 0.79748 0.83841 0.0
C1416 C 0.59941 0.80916 0.8273 0.0
H1417 H 0.59362 0.87941 0.79284 0.0
H1418 H 0.58782 0.85934 0.80826 0.0
H1419 H 0.59724 0.81336 0.79068 0.0
H1420 H 0.60752 0.76131 0.84057 0.0
H1421 H 0.61174 0.78221 0.82469 0.0
C1422 C 0.20203 0.61109 0.85901 0.0
C1423 C 0.20088 0.59953 0.86883 0.0
C1424 C 0.19218 0.61209 0.84742 0.0
C1425 C 0.16314 0.58888 0.82809 0.0
H1426 H 0.15924 0.62377 0.80512 0.0
C1427 C 0.11711 0.59266 0.78629 0.0
C1428 C 0.1179 0.60261 0.77476 0.0
C1429 C 0.12809 0.59224 0.79671 0.0
C1430 C 0.16029 0.6138 0.81121 0.0
H1431 H 0.18777 0.581 0.87562 0.0
H1432 H 0.16956 0.58355 0.85657 0.0
H1433 H 0.17532 0.62414 0.82587 0.0
H1434 H 0.13113 0.61943 0.76461 0.0
H1435 H 0.15091 0.61826 0.78249 0.0
H1436 H 0.14821 0.57853 0.81331 0.0
C1437 C 0.17871 0.59118 0.8567 0.0
C1438 C 0.16963 0.614 0.82335 0.0
C1439 C 0.18897 0.58981 0.86789 0.0
C1440 C 0.13023 0.61175 0.77349 0.0
C1441 C 0.14148 0.61113 0.78386 0.0
C1442 C 0.15383 0.58869 0.816 0.0
C1443 C 0.18058 0.6018 0.84569 0.0
C1444 C 0.17095 0.60164 0.83231 0.0
C1445 C 0.1405 0.60146 0.79577 0.0
C1446 C 0.15187 0.60127 0.80759 0.0
H1447 H 0.21117 0.61877 0.85966 0.0
H1448 H 0.19427 0.62053 0.83951 0.0
H1449 H 0.16424 0.57878 0.83392 0.0
H1450 H 0.1078 0.58532 0.78754 0.0
H1451 H 0.12649 0.58489 0.80575 0.0
C1452 C 0.36387 0.12021 0.78096 0.0
C1453 C 0.37683 0.11364 0.7779 0.0
C1454 C 0.36347 0.13062 0.79194 0.0
C1455 C 0.38919 0.15214 0.81796 0.0
H1456 H 0.35536 0.17526 0.82011 0.0
C1457 C 0.38942 0.19943 0.85859 0.0
C1458 C 0.37638 0.20579 0.86195 0.0
C1459 C 0.39006 0.18966 0.84718 0.0
C1460 C 0.36506 0.16913 0.82004 0.0
H1461 H 0.3989 0.11077 0.78514 0.0
H1462 H 0.39844 0.12823 0.80413 0.0
H1463 H 0.35458 0.15474 0.80533 0.0
H1464 H 0.35416 0.20843 0.85533 0.0
H1465 H 0.35479 0.19144 0.83572 0.0
H1466 H 0.3997 0.16655 0.83265 0.0
C1467 C 0.38855 0.12655 0.79795 0.0
C1468 C 0.36458 0.15682 0.81122 0.0
C1469 C 0.3889 0.11624 0.78696 0.0
C1470 C 0.36426 0.20334 0.85303 0.0
C1471 C 0.36477 0.19334 0.8417 0.0
C1472 C 0.38965 0.16441 0.82686 0.0
C1473 C 0.3761 0.13475 0.8001 0.0
C1474 C 0.37655 0.14785 0.81004 0.0
C1475 C 0.37752 0.18569 0.83891 0.0
C1476 C 0.37751 0.17316 0.82832 0.0
H1477 H 0.35427 0.11802 0.7743 0.0
H1478 H 0.35322 0.13557 0.7934 0.0
H1479 H 0.39901 0.14622 0.81763 0.0
H1480 H 0.39913 0.20164 0.86509 0.0
H1481 H 0.40045 0.18511 0.84542 0.0
C1482 C 0.84996 0.38835 0.77899 0.0
C1483 C 0.86018 0.37753 0.77834 0.0
C1484 C 0.83998 0.38842 0.79007 0.0
C1485 C 0.82944 0.36862 0.82505 0.0
H1486 H 0.7965 0.39273 0.81971 0.0
C1487 C 0.7826 0.36673 0.86672 0.0
C1488 C 0.77254 0.37775 0.86623 0.0
C1489 C 0.79376 0.36658 0.85659 0.0
C1490 C 0.80569 0.38614 0.82195 0.0
H1491 H 0.86816 0.3583 0.78878 0.0
H1492 H 0.85043 0.35779 0.80774 0.0
H1493 H 0.81408 0.3927 0.80186 0.0
H1494 H 0.76631 0.39734 0.85502 0.0
H1495 H 0.78581 0.39796 0.83874 0.0
H1496 H 0.82062 0.36194 0.84523 0.0
C1497 C 0.8501 0.36664 0.80008 0.0
C1498 C 0.81616 0.3861 0.81128 0.0
C1499 C 0.86032 0.36677 0.78905 0.0
C1500 C 0.77389 0.38864 0.85571 0.0
C1501 C 0.78515 0.38877 0.84598 0.0
C1502 C 0.81891 0.36869 0.83582 0.0
C1503 C 0.83961 0.37746 0.80082 0.0
C1504 C 0.82835 0.37739 0.81252 0.0
C1505 C 0.79521 0.3776 0.84589 0.0
C1506 C 0.80678 0.3775 0.83453 0.0
H1507 H 0.84951 0.39682 0.77083 0.0
H1508 H 0.83278 0.39737 0.79002 0.0
H1509 H 0.83854 0.36181 0.82695 0.0
H1510 H 0.78186 0.35825 0.87486 0.0
H1511 H 0.80098 0.35764 0.85716 0.0
C1512 C 0.59417 0.20391 0.12439 0.0
C1513 C 0.60533 0.20532 0.11437 0.0
C1514 C 0.5943 0.19316 0.13487 0.0
C1515 C 0.61712 0.16242 0.14932 0.0
H1516 H 0.58258 0.15594 0.17174 0.0
C1517 C 0.61579 0.1192 0.1951 0.0
C1518 C 0.60527 0.12017 0.20574 0.0
C1519 C 0.61565 0.12859 0.18317 0.0
C1520 C 0.5926 0.15773 0.16603 0.0
H1521 H 0.6256 0.19687 0.10747 0.0
H1522 H 0.62565 0.17748 0.12507 0.0
H1523 H 0.58264 0.17359 0.15335 0.0
H1524 H 0.58691 0.13216 0.2129 0.0
H1525 H 0.58738 0.14907 0.19333 0.0
H1526 H 0.62695 0.14631 0.16215 0.0
C1527 C 0.61677 0.18473 0.1254 0.0
C1528 C 0.59266 0.16817 0.15511 0.0
C1529 C 0.61681 0.19589 0.11508 0.0
C1530 C 0.59507 0.13102 0.2047 0.0
C1531 C 0.59519 0.14064 0.19313 0.0
C1532 C 0.61709 0.15204 0.16038 0.0
C1533 C 0.6054 0.18303 0.13549 0.0
C1534 C 0.60507 0.17107 0.14669 0.0
C1535 C 0.60526 0.13947 0.1819 0.0
C1536 C 0.60497 0.14975 0.16924 0.0
H1537 H 0.58527 0.21127 0.12432 0.0
H1538 H 0.58559 0.19323 0.14249 0.0
H1539 H 0.62699 0.16376 0.14333 0.0
H1540 H 0.62378 0.11088 0.19569 0.0
H1541 H 0.62355 0.12693 0.1749 0.0
C1542 C 0.86465 0.60864 0.20001 0.0
C1543 C 0.8632 0.5976 0.21033 0.0
C1544 C 0.85435 0.60975 0.18892 0.0
C1545 C 0.82402 0.58706 0.1716 0.0
H1546 H 0.81972 0.62225 0.14937 0.0
C1547 C 0.77382 0.59415 0.1352 0.0
C1548 C 0.77372 0.60533 0.1249 0.0
C1549 C 0.78602 0.5923 0.14404 0.0
C1550 C 0.82078 0.61209 0.15506 0.0
H1551 H 0.84899 0.58074 0.21905 0.0
H1552 H 0.83004 0.58372 0.20068 0.0
H1553 H 0.83688 0.62206 0.1686 0.0
H1554 H 0.78602 0.62303 0.11526 0.0
H1555 H 0.80749 0.61948 0.12967 0.0
H1556 H 0.80767 0.57719 0.15793 0.0
C1557 C 0.83974 0.5906 0.20009 0.0
C1558 C 0.83085 0.61203 0.16641 0.0
C1559 C 0.85041 0.58905 0.21081 0.0
C1560 C 0.78571 0.6148 0.12369 0.0
C1561 C 0.79812 0.61259 0.13198 0.0
C1562 C 0.81385 0.58713 0.16019 0.0
C1563 C 0.84207 0.6002 0.18835 0.0
C1564 C 0.83217 0.59977 0.17534 0.0
C1565 C 0.79855 0.60136 0.14241 0.0
C1566 C 0.81146 0.59996 0.15228 0.0
H1567 H 0.87444 0.61545 0.19965 0.0
H1568 H 0.85672 0.61743 0.18035 0.0
H1569 H 0.8253 0.57703 0.17752 0.0
H1570 H 0.76481 0.58633 0.1358 0.0
H1571 H 0.78554 0.58367 0.15199 0.0
C1572 C 0.37002 0.78906 0.11625 0.0
C1573 C 0.37399 0.77508 0.12008 0.0
C1574 C 0.37309 0.80064 0.12574 0.0
C1575 C 0.39022 0.80814 0.16335 0.0
H1576 H 0.37188 0.84448 0.15689 0.0
C1577 C 0.37738 0.84446 0.21219 0.0
C1578 C 0.36988 0.85709 0.20953 0.0
C1579 C 0.38009 0.83509 0.20078 0.0
C1580 C 0.37643 0.83411 0.1593 0.0
H1581 H 0.38276 0.76164 0.13707 0.0
H1582 H 0.38702 0.78098 0.15389 0.0
H1583 H 0.37341 0.82799 0.13737 0.0
H1584 H 0.35662 0.86853 0.19416 0.0
H1585 H 0.35991 0.85174 0.17467 0.0
H1586 H 0.39331 0.81425 0.18524 0.0
C1587 C 0.38262 0.78388 0.14343 0.0
C1588 C 0.37761 0.82452 0.14773 0.0
C1589 C 0.37976 0.77248 0.13389 0.0
C1590 C 0.36273 0.85889 0.19626 0.0
C1591 C 0.36526 0.84947 0.18486 0.0
C1592 C 0.38852 0.81746 0.17505 0.0
C1593 C 0.37994 0.79837 0.13941 0.0
C1594 C 0.38304 0.81059 0.14999 0.0
C1595 C 0.37519 0.83821 0.18651 0.0
C1596 C 0.38016 0.8299 0.17356 0.0
H1597 H 0.36559 0.79124 0.10555 0.0
H1598 H 0.37034 0.81127 0.12193 0.0
H1599 H 0.39651 0.79867 0.16531 0.0
H1600 H 0.38271 0.84281 0.2226 0.0
H1601 H 0.38687 0.82612 0.20327 0.0
C1602 C 0.19603 0.39101 0.12099 0.0
C1603 C 0.20474 0.37889 0.11997 0.0
C1604 C 0.18657 0.39235 0.13244 0.0
C1605 C 0.17318 0.37287 0.16638 0.0
H1606 H 0.13929 0.39484 0.15718 0.0
C1607 C 0.12178 0.36537 0.20031 0.0
C1608 C 0.11344 0.37753 0.20241 0.0
C1609 C 0.13288 0.36587 0.19022 0.0
C1610 C 0.1487 0.38877 0.16017 0.0
H1611 H 0.21142 0.35932 0.13071 0.0
H1612 H 0.19417 0.36084 0.15013 0.0
H1613 H 0.15941 0.39617 0.14134 0.0
H1614 H 0.1091 0.3993 0.19512 0.0
H1615 H 0.12853 0.40047 0.17781 0.0
H1616 H 0.16207 0.36531 0.18518 0.0
C1617 C 0.19464 0.36964 0.14238 0.0
C1618 C 0.16053 0.38959 0.15096 0.0
C1619 C 0.20452 0.36858 0.1311 0.0
C1620 C 0.11553 0.38981 0.19364 0.0
C1621 C 0.12669 0.3904 0.18366 0.0
C1622 C 0.16127 0.37199 0.17555 0.0
C1623 C 0.18508 0.38131 0.14298 0.0
C1624 C 0.17298 0.38147 0.15372 0.0
C1625 C 0.13588 0.37861 0.18212 0.0
C1626 C 0.14873 0.37976 0.17248 0.0
H1627 H 0.19636 0.39948 0.11282 0.0
H1628 H 0.18031 0.40202 0.13272 0.0
H1629 H 0.18253 0.36677 0.16943 0.0
H1630 H 0.12036 0.3558 0.20707 0.0
H1631 H 0.1393 0.35636 0.18907 0.0
C1632 C 0.78195 0.62223 0.8594 0.0
C1633 C 0.772 0.61074 0.86158 0.0
C1634 C 0.79204 0.62133 0.84842 0.0
C1635 C 0.80536 0.59598 0.81972 0.0
H1636 H 0.84128 0.61706 0.82903 0.0
C1637 C 0.85237 0.593 0.78085 0.0
C1638 C 0.86211 0.60494 0.77978 0.0
C1639 C 0.84274 0.59192 0.79215 0.0
C1640 C 0.83132 0.61124 0.82602 0.0
H1641 H 0.76312 0.59036 0.85319 0.0
H1642 H 0.78121 0.58804 0.83497 0.0
H1643 H 0.82075 0.61958 0.84436 0.0
H1644 H 0.86926 0.62539 0.78946 0.0
H1645 H 0.85143 0.62434 0.80858 0.0
H1646 H 0.8157 0.58749 0.80157 0.0
C1647 C 0.78144 0.59799 0.84117 0.0
C1648 C 0.81936 0.61277 0.83486 0.0
C1649 C 0.7709 0.5993 0.85164 0.0
C1650 C 0.86181 0.61607 0.79006 0.0
C1651 C 0.85172 0.61525 0.80121 0.0
C1652 C 0.81729 0.59443 0.81093 0.0
C1653 C 0.79283 0.60852 0.84012 0.0
C1654 C 0.80594 0.60578 0.8314 0.0
C1655 C 0.84195 0.60312 0.80241 0.0
C1656 C 0.83025 0.60264 0.81344 0.0
H1657 H 0.78269 0.63129 0.8669 0.0
H1658 H 0.79984 0.63026 0.84723 0.0
H1659 H 0.79549 0.59007 0.81665 0.0
H1660 H 0.85223 0.58423 0.77301 0.0
H1661 H 0.83601 0.58212 0.79269 0.0
C1662 C 0.37973 0.84899 0.77423 0.0
C1663 C 0.37407 0.8628 0.77555 0.0
C1664 C 0.38018 0.83968 0.78612 0.0
C1665 C 0.36729 0.8354 0.82454 0.0
H1666 H 0.39467 0.80462 0.82402 0.0
C1667 C 0.36593 0.7909 0.86897 0.0
C1668 C 0.3717 0.77753 0.86564 0.0
C1669 C 0.36752 0.80252 0.85929 0.0
C1670 C 0.38668 0.81291 0.82431 0.0
H1671 H 0.3639 0.8777 0.78996 0.0
H1672 H 0.36546 0.86203 0.81104 0.0
H1673 H 0.395 0.82245 0.80499 0.0
H1674 H 0.3824 0.7651 0.84936 0.0
H1675 H 0.38389 0.78461 0.83191 0.0
H1676 H 0.35896 0.82601 0.84379 0.0
C1677 C 0.36918 0.85791 0.80084 0.0
C1678 C 0.38688 0.82328 0.81323 0.0
C1679 C 0.36827 0.86701 0.78874 0.0
C1680 C 0.37802 0.77548 0.85215 0.0
C1681 C 0.37917 0.78687 0.84228 0.0
C1682 C 0.36708 0.82503 0.83559 0.0
C1683 C 0.37543 0.84415 0.79983 0.0
C1684 C 0.37669 0.83432 0.81276 0.0
C1685 C 0.37442 0.8008 0.84583 0.0
C1686 C 0.37625 0.81316 0.83531 0.0
H1687 H 0.38408 0.84547 0.76401 0.0
H1688 H 0.3844 0.82902 0.78446 0.0
H1689 H 0.35933 0.84369 0.82494 0.0
H1690 H 0.3611 0.79266 0.87944 0.0
H1691 H 0.36378 0.81292 0.86275 0.0
C1692 C 0.20614 0.38903 0.84796 0.0
C1693 C 0.20594 0.37725 0.85752 0.0
C1694 C 0.19402 0.39182 0.83939 0.0
C1695 C 0.15587 0.37615 0.83098 0.0
H1696 H 0.16072 0.40256 0.79889 0.0
C1697 C 0.11642 0.3708 0.78249 0.0
C1698 C 0.11625 0.38222 0.77255 0.0
C1699 C 0.12753 0.37038 0.79288 0.0
C1700 C 0.15912 0.39463 0.80736 0.0
H1701 H 0.19342 0.35888 0.86554 0.0
H1702 H 0.17302 0.36242 0.84978 0.0
H1703 H 0.17766 0.40354 0.81799 0.0
H1704 H 0.12863 0.40002 0.76309 0.0
H1705 H 0.14824 0.399 0.78025 0.0
H1706 H 0.13679 0.36788 0.82068 0.0
C1707 C 0.1819 0.37026 0.84901 0.0
C1708 C 0.16912 0.39533 0.81881 0.0
C1709 C 0.19395 0.3677 0.85775 0.0
C1710 C 0.12835 0.39157 0.7713 0.0
C1711 C 0.13951 0.39109 0.78153 0.0
C1712 C 0.14594 0.37532 0.81944 0.0
C1713 C 0.18144 0.38263 0.8399 0.0
C1714 C 0.16853 0.38507 0.83014 0.0
C1715 C 0.13847 0.38154 0.79353 0.0
C1716 C 0.14808 0.38368 0.80677 0.0
H1717 H 0.21515 0.3969 0.84816 0.0
H1718 H 0.19469 0.40151 0.83286 0.0
H1719 H 0.15362 0.36929 0.84022 0.0
H1720 H 0.10733 0.36309 0.78314 0.0
H1721 H 0.12683 0.36172 0.80075 0.0
C1722 C 0.6101 0.11932 0.78919 0.0
C1723 C 0.60821 0.12331 0.77472 0.0
C1724 C 0.60684 0.12878 0.80021 0.0
C1725 C 0.59211 0.16641 0.80664 0.0
H1726 H 0.60584 0.15717 0.84519 0.0
C1727 C 0.60061 0.21254 0.84788 0.0
C1728 C 0.60421 0.20959 0.86231 0.0
C1729 C 0.59883 0.20131 0.8379 0.0
C1730 C 0.60193 0.16035 0.83463 0.0
H1731 H 0.6026 0.1406 0.76005 0.0
H1732 H 0.59899 0.15816 0.7792 0.0
H1733 H 0.60705 0.1398 0.82711 0.0
H1734 H 0.60985 0.19304 0.87776 0.0
H1735 H 0.6066 0.17336 0.86091 0.0
H1736 H 0.58654 0.18697 0.81468 0.0
C1737 C 0.60181 0.14733 0.78238 0.0
C1738 C 0.60257 0.14994 0.8238 0.0
C1739 C 0.60447 0.13748 0.77125 0.0
C1740 C 0.60716 0.19546 0.86654 0.0
C1741 C 0.60502 0.18409 0.85668 0.0
C1742 C 0.59151 0.17691 0.81754 0.0
C1743 C 0.60231 0.14295 0.79715 0.0
C1744 C 0.59875 0.1531 0.80929 0.0
C1745 C 0.60028 0.18669 0.8422 0.0
C1746 C 0.59761 0.17451 0.83148 0.0
H1747 H 0.61264 0.10825 0.79202 0.0
H1748 H 0.60734 0.12432 0.81099 0.0
H1749 H 0.58765 0.16907 0.79611 0.0
H1750 H 0.59839 0.22353 0.84447 0.0
H1751 H 0.59607 0.20436 0.82693 0.0
C1752 C 0.85025 0.37477 0.20843 0.0
C1753 C 0.86185 0.38487 0.20678 0.0
C1754 C 0.83977 0.37291 0.19726 0.0
C1755 C 0.82665 0.39355 0.16481 0.0
H1756 H 0.80365 0.35866 0.15645 0.0
C1757 C 0.78742 0.39356 0.1157 0.0
C1758 C 0.77606 0.38321 0.11463 0.0
C1759 C 0.79796 0.39252 0.12668 0.0
C1760 C 0.80975 0.36866 0.15858 0.0
H1761 H 0.87269 0.39945 0.1917 0.0
H1762 H 0.85529 0.39561 0.1722 0.0
H1763 H 0.82161 0.35852 0.17585 0.0
H1764 H 0.76663 0.36359 0.12388 0.0
H1765 H 0.78407 0.3623 0.14373 0.0
H1766 H 0.81471 0.40405 0.14837 0.0
C1767 C 0.85342 0.3899 0.1823 0.0
C1768 C 0.82022 0.3685 0.16985 0.0
C1769 C 0.8635 0.39207 0.1935 0.0
C1770 C 0.77543 0.37166 0.12452 0.0
C1771 C 0.78559 0.37095 0.13592 0.0
C1772 C 0.81617 0.39378 0.15376 0.0
C1773 C 0.84097 0.38091 0.1842 0.0
C1774 C 0.82913 0.38086 0.17285 0.0
C1775 C 0.79701 0.3815 0.13742 0.0
C1776 C 0.80773 0.38125 0.15003 0.0
H1777 H 0.84898 0.3688 0.21849 0.0
H1778 H 0.8305 0.36569 0.19911 0.0
H1779 H 0.83269 0.40358 0.16716 0.0
H1780 H 0.78816 0.40247 0.10803 0.0
H1781 H 0.80676 0.40053 0.1266 0.0
C1782 C 0.61313 0.86802 0.19426 0.0
C1783 C 0.60322 0.86668 0.20547 0.0
C1784 C 0.61195 0.85864 0.18238 0.0
C1785 C 0.58953 0.8252 0.16902 0.0
H1786 H 0.62109 0.82493 0.14233 0.0
C1787 C 0.59716 0.77406 0.13515 0.0
C1788 C 0.60704 0.77476 0.1239 0.0
C1789 C 0.59681 0.78541 0.14505 0.0
C1790 C 0.61236 0.82427 0.14992 0.0
H1791 H 0.58482 0.85418 0.21367 0.0
H1792 H 0.58289 0.83793 0.19394 0.0
H1793 H 0.6186 0.84524 0.15719 0.0
H1794 H 0.62593 0.78593 0.11534 0.0
H1795 H 0.62579 0.80544 0.13242 0.0
H1796 H 0.58262 0.80473 0.16091 0.0
C1797 C 0.59134 0.84623 0.19328 0.0
C1798 C 0.61084 0.8364 0.15869 0.0
C1799 C 0.59251 0.8556 0.20498 0.0
C1800 C 0.61802 0.78549 0.12389 0.0
C1801 C 0.61753 0.79701 0.13359 0.0
C1802 C 0.59108 0.81304 0.1603 0.0
C1803 C 0.60091 0.84753 0.18154 0.0
C1804 C 0.60019 0.83655 0.16942 0.0
C1805 C 0.60601 0.79791 0.14345 0.0
C1806 C 0.60325 0.81177 0.15143 0.0
H1807 H 0.62149 0.87657 0.19445 0.0
H1808 H 0.61986 0.86036 0.17405 0.0
H1809 H 0.58001 0.82515 0.17561 0.0
H1810 H 0.58884 0.76548 0.13545 0.0
H1811 H 0.58864 0.78449 0.15323 0.0
C1812 C 0.11701 0.59952 0.19348 0.0
C1813 C 0.11754 0.61157 0.20264 0.0
C1814 C 0.12777 0.59775 0.18337 0.0
C1815 C 0.16455 0.61424 0.17265 0.0
H1816 H 0.15872 0.58595 0.14217 0.0
C1817 C 0.20184 0.61676 0.12286 0.0
C1818 C 0.20145 0.6053 0.11288 0.0
C1819 C 0.19256 0.61643 0.13471 0.0
C1820 C 0.16094 0.59401 0.15041 0.0
H1821 H 0.1282 0.63227 0.20738 0.0
H1822 H 0.14626 0.63012 0.18874 0.0
H1823 H 0.14116 0.58773 0.15981 0.0
H1824 H 0.19046 0.58525 0.1065 0.0
H1825 H 0.17463 0.58427 0.12669 0.0
H1826 H 0.18461 0.62033 0.16304 0.0
C1827 C 0.1384 0.62126 0.18995 0.0
C1828 C 0.15047 0.59501 0.161 0.0
C1829 C 0.12774 0.62283 0.20036 0.0
C1830 C 0.191 0.59413 0.11422 0.0
C1831 C 0.18183 0.59367 0.12606 0.0
C1832 C 0.17505 0.61332 0.16191 0.0
C1833 C 0.13915 0.60827 0.18183 0.0
C1834 C 0.15155 0.60577 0.17183 0.0
C1835 C 0.18267 0.60457 0.13691 0.0
C1836 C 0.17297 0.60383 0.14996 0.0
H1837 H 0.10902 0.59079 0.19508 0.0
H1838 H 0.12737 0.58759 0.17759 0.0
H1839 H 0.16669 0.62185 0.1814 0.0
H1840 H 0.20989 0.62554 0.122 0.0
H1841 H 0.19345 0.62548 0.14212 0.0
C1842 C 0.37146 0.2092 0.13412 0.0
C1843 C 0.38001 0.2074 0.12209 0.0
C1844 C 0.37162 0.19892 0.14509 0.0
C1845 C 0.39095 0.16505 0.15671 0.0
H1846 H 0.3591 0.16394 0.18339 0.0
C1847 C 0.38247 0.11591 0.19308 0.0
C1848 C 0.37579 0.11771 0.20642 0.0
C1849 C 0.38247 0.12695 0.18296 0.0
C1850 C 0.36834 0.164 0.17638 0.0
H1851 H 0.39372 0.19296 0.11046 0.0
H1852 H 0.39253 0.17398 0.12865 0.0
H1853 H 0.36058 0.18257 0.16629 0.0
H1854 H 0.36183 0.13086 0.21906 0.0
H1855 H 0.36219 0.15063 0.2019 0.0
H1856 H 0.39856 0.14617 0.1672 0.0
C1857 C 0.38689 0.18384 0.13068 0.0
C1858 C 0.36925 0.17504 0.16626 0.0
C1859 C 0.38732 0.19453 0.12005 0.0
C1860 C 0.36735 0.12962 0.20888 0.0
C1861 C 0.36765 0.14095 0.19889 0.0
C1862 C 0.39003 0.15391 0.16694 0.0
C1863 C 0.37963 0.18619 0.14375 0.0
C1864 C 0.38011 0.17542 0.15577 0.0
C1865 C 0.37601 0.14012 0.18617 0.0
C1866 C 0.37823 0.15284 0.17646 0.0
H1867 H 0.36571 0.21913 0.13565 0.0
H1868 H 0.36601 0.20161 0.15483 0.0
H1869 H 0.40009 0.16533 0.14953 0.0
H1870 H 0.38854 0.10631 0.19085 0.0
H1871 H 0.38807 0.12525 0.17292 0.0
C1872 C 0.86502 0.78823 0.61816 0.0
C1873 C 0.86548 0.77935 0.60585 0.0
C1874 C 0.85519 0.79943 0.61864 0.0
C1875 C 0.82113 0.81017 0.59979 0.0
H1876 H 0.82708 0.84569 0.62179 0.0
C1877 C 0.77931 0.85385 0.59524 0.0
C1878 C 0.77705 0.86304 0.60703 0.0
C1879 C 0.79099 0.8448 0.59524 0.0
C1880 C 0.82509 0.83577 0.61572 0.0
H1881 H 0.85714 0.77596 0.58391 0.0
H1882 H 0.84084 0.7957 0.58441 0.0
H1883 H 0.84589 0.82798 0.62169 0.0
H1884 H 0.78553 0.87043 0.62788 0.0
H1885 H 0.80548 0.85384 0.62845 0.0
H1886 H 0.80032 0.81747 0.5941 0.0
C1887 C 0.84727 0.79369 0.59407 0.0
C1888 C 0.83597 0.82557 0.61565 0.0
C1889 C 0.85679 0.78242 0.59371 0.0
C1890 C 0.7869 0.86325 0.61875 0.0
C1891 C 0.79847 0.85384 0.61894 0.0
C1892 C 0.81029 0.82025 0.59992 0.0
C1893 C 0.84586 0.80199 0.60672 0.0
C1894 C 0.83424 0.81275 0.60744 0.0
C1895 C 0.80052 0.84424 0.60728 0.0
C1896 C 0.81214 0.83336 0.60766 0.0
H1897 H 0.8718 0.78619 0.62759 0.0
H1898 H 0.85453 0.80562 0.62856 0.0
H1899 H 0.81901 0.80018 0.59384 0.0
H1900 H 0.77206 0.8536 0.58588 0.0
H1901 H 0.79243 0.83823 0.58569 0.0
C1902 C 0.85235 0.20175 0.36802 0.0
C1903 C 0.85361 0.21211 0.37901 0.0
C1904 C 0.84302 0.18967 0.36978 0.0
C1905 C 0.8157 0.1729 0.3959 0.0
H1906 H 0.82124 0.14065 0.37019 0.0
C1907 C 0.77026 0.12907 0.38782 0.0
C1908 C 0.77179 0.11886 0.37682 0.0
C1909 C 0.78098 0.13981 0.39012 0.0
C1910 C 0.81907 0.14977 0.37709 0.0
H1911 H 0.844 0.22029 0.39841 0.0
H1912 H 0.82806 0.19963 0.4018 0.0
H1913 H 0.83889 0.16027 0.37103 0.0
H1914 H 0.7835 0.11343 0.35763 0.0
H1915 H 0.80109 0.13335 0.3602 0.0
H1916 H 0.79653 0.16221 0.40275 0.0
C1917 C 0.83443 0.19979 0.39211 0.0
C1918 C 0.82938 0.16117 0.3776 0.0
C1919 C 0.84342 0.212 0.39006 0.0
C1920 C 0.78249 0.12104 0.36648 0.0
C1921 C 0.79291 0.1322 0.36838 0.0
C1922 C 0.8054 0.16153 0.39538 0.0
C1923 C 0.83495 0.18782 0.38262 0.0
C1924 C 0.82684 0.17378 0.38566 0.0
C1925 C 0.79319 0.14081 0.38108 0.0
C1926 C 0.80602 0.15068 0.38468 0.0
H1927 H 0.85987 0.20195 0.35911 0.0
H1928 H 0.84286 0.18153 0.36135 0.0
H1929 H 0.81389 0.18143 0.40358 0.0
H1930 H 0.76182 0.12765 0.39579 0.0
H1931 H 0.7799 0.14646 0.39961 0.0
C1932 C 0.78833 0.8664 0.36835 0.0
C1933 C 0.77628 0.86419 0.37718 0.0
C1934 C 0.79874 0.85579 0.3676 0.0
C1935 C 0.80998 0.82262 0.38809 0.0
H1936 H 0.83599 0.819 0.35593 0.0
C1937 C 0.84633 0.77417 0.38604 0.0
C1938 C 0.8592 0.77495 0.37826 0.0
C1939 C 0.83671 0.78534 0.38519 0.0
C1940 C 0.82903 0.8199 0.36517 0.0
H1941 H 0.76441 0.84858 0.39046 0.0
H1942 H 0.78174 0.82976 0.38829 0.0
H1943 H 0.8181 0.83735 0.35514 0.0
H1944 H 0.87216 0.78769 0.36325 0.0
H1945 H 0.85593 0.80792 0.36257 0.0
H1946 H 0.82102 0.80553 0.39833 0.0
C1947 C 0.78408 0.84003 0.38295 0.0
C1948 C 0.81861 0.83054 0.36469 0.0
C1949 C 0.77402 0.85079 0.38412 0.0
C1950 C 0.86228 0.78697 0.36942 0.0
C1951 C 0.85285 0.7985 0.36897 0.0
C1952 C 0.82039 0.81208 0.38861 0.0
C1953 C 0.79698 0.8426 0.3753 0.0
C1954 C 0.80864 0.83179 0.37595 0.0
C1955 C 0.83996 0.79793 0.37702 0.0
C1956 C 0.8298 0.8102 0.37695 0.0
H1957 H 0.79003 0.87654 0.36255 0.0
H1958 H 0.80838 0.85827 0.36145 0.0
H1959 H 0.80314 0.82362 0.39742 0.0
H1960 H 0.84354 0.7648 0.39269 0.0
H1961 H 0.82666 0.7839 0.39095 0.0
C1962 C 0.12554 0.77536 0.3881 0.0
C1963 C 0.11534 0.77659 0.37683 0.0
C1964 C 0.13662 0.78587 0.3898 0.0
C1965 C 0.14641 0.82366 0.37584 0.0
H1966 H 0.17982 0.81851 0.40082 0.0
C1967 C 0.19645 0.86078 0.36936 0.0
C1968 C 0.20676 0.86209 0.38051 0.0
C1969 C 0.18446 0.85133 0.37091 0.0
C1970 C 0.17051 0.82042 0.39393 0.0
H1971 H 0.1099 0.78783 0.35704 0.0
H1972 H 0.13043 0.805 0.35868 0.0
H1973 H 0.162 0.79941 0.39873 0.0
H1974 H 0.21307 0.85486 0.40194 0.0
H1975 H 0.19214 0.83879 0.40502 0.0
H1976 H 0.15513 0.84484 0.37118 0.0
C1977 C 0.12912 0.79709 0.36726 0.0
C1978 C 0.16008 0.80918 0.39264 0.0
C1979 C 0.11756 0.78698 0.36599 0.0
C1980 C 0.20537 0.85353 0.393 0.0
C1981 C 0.19322 0.84441 0.39478 0.0
C1982 C 0.15689 0.83489 0.3771 0.0
C1983 C 0.13807 0.79749 0.37986 0.0
C1984 C 0.14831 0.8102 0.38282 0.0
C1985 C 0.18242 0.84325 0.38383 0.0
C1986 C 0.16963 0.83301 0.38534 0.0
H1987 H 0.12399 0.76728 0.39655 0.0
H1988 H 0.1432 0.78527 0.39954 0.0
H1989 H 0.13697 0.82561 0.36914 0.0
H1990 H 0.19717 0.86772 0.35987 0.0
H1991 H 0.17677 0.85055 0.36197 0.0
C1992 C 0.20142 0.13153 0.38492 0.0
C1993 C 0.20245 0.12142 0.37368 0.0
C1994 C 0.18979 0.14057 0.38554 0.0
C1995 C 0.15422 0.14911 0.36669 0.0
H1996 H 0.15965 0.18334 0.39068 0.0
C1997 C 0.11343 0.19564 0.36565 0.0
C1998 C 0.11303 0.20475 0.37777 0.0
C1999 C 0.12345 0.18465 0.36516 0.0
C2000 C 0.15762 0.17371 0.38416 0.0
H2001 H 0.19219 0.11298 0.35404 0.0
H2002 H 0.17249 0.12975 0.35418 0.0
H2003 H 0.17837 0.16653 0.38963 0.0
H2004 H 0.12183 0.20884 0.39942 0.0
H2005 H 0.13839 0.18931 0.39905 0.0
H2006 H 0.13343 0.15693 0.36094 0.0
C2007 C 0.18024 0.13034 0.36307 0.0
C2008 C 0.16859 0.16378 0.38356 0.0
C2009 C 0.19173 0.12079 0.36277 0.0
C2010 C 0.12204 0.20212 0.38979 0.0
C2011 C 0.13178 0.19099 0.38945 0.0
C2012 C 0.14322 0.15916 0.36725 0.0
C2013 C 0.17909 0.1405 0.37448 0.0
C2014 C 0.16712 0.15116 0.37492 0.0
C2015 C 0.13305 0.18239 0.37694 0.0
C2016 C 0.14469 0.17156 0.37613 0.0
H2017 H 0.20944 0.13228 0.39362 0.0
H2018 H 0.18932 0.14741 0.395 0.0
H2019 H 0.15229 0.13962 0.35997 0.0
H2020 H 0.10644 0.19735 0.3563 0.0
H2021 H 0.12398 0.17839 0.35529 0.0
C2022 C 0.19073 0.1171 0.59657 0.0
C2023 C 0.20062 0.11636 0.60811 0.0
C2024 C 0.18175 0.12885 0.59529 0.0
C2025 C 0.17535 0.16585 0.61228 0.0
H2026 H 0.14117 0.1616 0.58788 0.0
C2027 C 0.12796 0.20386 0.62065 0.0
C2028 C 0.11732 0.20487 0.60981 0.0
C2029 C 0.13903 0.19403 0.61913 0.0
C2030 C 0.1506 0.16343 0.59474 0.0
H2031 H 0.20798 0.12622 0.6283 0.0
H2032 H 0.1915 0.14612 0.62692 0.0
H2033 H 0.15811 0.14346 0.58764 0.0
H2034 H 0.10868 0.19578 0.58979 0.0
H2035 H 0.12778 0.17941 0.58657 0.0
H2036 H 0.16753 0.18617 0.61916 0.0
C2037 C 0.19117 0.13835 0.61815 0.0
C2038 C 0.1607 0.15262 0.59459 0.0
C2039 C 0.20038 0.12664 0.61925 0.0
C2040 C 0.11695 0.19514 0.59823 0.0
C2041 C 0.12812 0.18566 0.59645 0.0
C2042 C 0.16515 0.17676 0.61243 0.0
C2043 C 0.1821 0.14005 0.60579 0.0
C2044 C 0.1728 0.15306 0.60407 0.0
C2045 C 0.13972 0.1852 0.60661 0.0
C2046 C 0.15206 0.17523 0.60441 0.0
H2047 H 0.19071 0.10913 0.58793 0.0
H2048 H 0.17521 0.12927 0.58552 0.0
H2049 H 0.18503 0.16743 0.6189 0.0
H2050 H 0.12837 0.21139 0.62969 0.0
H2051 H 0.14715 0.19373 0.62767 0.0
C2052 C 0.77258 0.13357 0.5916 0.0
C2053 C 0.77332 0.12199 0.6013 0.0
C2054 C 0.78344 0.14434 0.59173 0.0
C2055 C 0.82158 0.14998 0.60768 0.0
H2056 H 0.82104 0.18196 0.58069 0.0
C2057 C 0.86307 0.19637 0.61618 0.0
C2058 C 0.86471 0.2072 0.60572 0.0
C2059 C 0.85208 0.18575 0.61458 0.0
C2060 C 0.82158 0.17337 0.5886 0.0
H2061 H 0.78324 0.11416 0.62107 0.0
H2062 H 0.80173 0.13339 0.62207 0.0
H2063 H 0.80161 0.165 0.58058 0.0
H2064 H 0.85547 0.21684 0.58644 0.0
H2065 H 0.83697 0.19842 0.58309 0.0
H2066 H 0.84245 0.15764 0.61447 0.0
C2067 C 0.79396 0.13358 0.61321 0.0
C2068 C 0.80998 0.16335 0.58861 0.0
C2069 C 0.78305 0.12275 0.61302 0.0
C2070 C 0.85438 0.20839 0.5946 0.0
C2071 C 0.8438 0.19746 0.59259 0.0
C2072 C 0.83327 0.15993 0.60756 0.0
C2073 C 0.7953 0.14352 0.60152 0.0
C2074 C 0.80901 0.15242 0.59931 0.0
C2075 C 0.84302 0.18537 0.60204 0.0
C2076 C 0.83267 0.17273 0.59921 0.0
H2077 H 0.76447 0.13348 0.58297 0.0
H2078 H 0.78277 0.15242 0.58332 0.0
H2079 H 0.82251 0.14066 0.61469 0.0
H2080 H 0.87085 0.19555 0.62504 0.0
H2081 H 0.85128 0.17761 0.62299 0.0
C2082 C 0.19839 0.86191 0.61364 0.0
C2083 C 0.2095 0.86303 0.60365 0.0
C2084 C 0.18643 0.85262 0.61094 0.0
C2085 C 0.17324 0.82251 0.58553 0.0
H2086 H 0.14166 0.82303 0.61235 0.0
C2087 C 0.13575 0.77167 0.59278 0.0
C2088 C 0.12534 0.77189 0.60359 0.0
C2089 C 0.14548 0.78339 0.59119 0.0
C2090 C 0.15066 0.82231 0.6051 0.0
H2091 H 0.21715 0.85571 0.58299 0.0
H2092 H 0.19656 0.83984 0.57793 0.0
H2093 H 0.15778 0.8438 0.6106 0.0
H2094 H 0.11899 0.78225 0.62335 0.0
H2095 H 0.13698 0.80193 0.62175 0.0
H2096 H 0.16587 0.80157 0.57929 0.0
C2097 C 0.19678 0.84545 0.58819 0.0
C2098 C 0.16004 0.83447 0.60404 0.0
C2099 C 0.20888 0.85443 0.59115 0.0
C2100 C 0.12673 0.78218 0.61465 0.0
C2101 C 0.13672 0.79382 0.61329 0.0
C2102 C 0.16386 0.81041 0.58653 0.0
C2103 C 0.18514 0.84447 0.59795 0.0
C2104 C 0.17245 0.8341 0.59539 0.0
C2105 C 0.1452 0.79541 0.60068 0.0
C2106 C 0.15331 0.80947 0.59739 0.0
H2107 H 0.19845 0.86896 0.62305 0.0
H2108 H 0.17825 0.85209 0.61916 0.0
H2109 H 0.18177 0.82188 0.57774 0.0
H2110 H 0.13504 0.76346 0.58435 0.0
H2111 H 0.15218 0.78323 0.58175 0.0
C2112 C 0.09711 0.24094 0.43401 0.0
C2113 C 0.09217 0.25426 0.42885 0.0
C2114 C 0.09779 0.23828 0.44892 0.0
C2115 C 0.08143 0.25148 0.48241 0.0
H2116 H 0.11512 0.2367 0.50219 0.0
C2117 C 0.09757 0.26865 0.54003 0.0
C2118 C 0.10406 0.25851 0.54925 0.0
C2119 C 0.09433 0.26501 0.5256 0.0
C2120 C 0.10546 0.24056 0.49688 0.0
H2121 H 0.08532 0.27563 0.43461 0.0
H2122 H 0.0872 0.27136 0.46069 0.0
H2123 H 0.11349 0.23561 0.47589 0.0
H2124 H 0.11304 0.23704 0.55035 0.0
H2125 H 0.10699 0.23063 0.52556 0.0
H2126 H 0.0737 0.25704 0.50335 0.0
C2127 C 0.08984 0.2627 0.45336 0.0
C2128 C 0.10456 0.23992 0.48178 0.0
C2129 C 0.08892 0.26524 0.43853 0.0
C2130 C 0.10803 0.24512 0.54355 0.0
C2131 C 0.10447 0.24136 0.52934 0.0
C2132 C 0.08235 0.25217 0.49749 0.0
C2133 C 0.09361 0.249 0.45868 0.0
C2134 C 0.09297 0.24622 0.47442 0.0
C2135 C 0.09751 0.25119 0.52021 0.0
C2136 C 0.09479 0.2475 0.50478 0.0
H2137 H 0.09968 0.23238 0.42653 0.0
H2138 H 0.10094 0.22772 0.45277 0.0
H2139 H 0.07208 0.25587 0.47694 0.0
H2140 H 0.0943 0.27903 0.54413 0.0
H2141 H 0.0893 0.27298 0.51869 0.0
C2142 C 0.72222 0.08431 0.54383 0.0
C2143 C 0.73227 0.09278 0.55188 0.0
C2144 C 0.72068 0.08662 0.52891 0.0
C2145 C 0.73489 0.10969 0.49782 0.0
H2146 H 0.7234 0.07486 0.47667 0.0
C2147 C 0.73942 0.10669 0.43558 0.0
C2148 C 0.73493 0.09374 0.42871 0.0
C2149 C 0.73646 0.10885 0.45014 0.0
C2150 C 0.72618 0.08494 0.48218 0.0
H2151 H 0.74753 0.11105 0.55142 0.0
H2152 H 0.74582 0.11445 0.52546 0.0
H2153 H 0.72414 0.07431 0.50257 0.0
H2154 H 0.72046 0.07482 0.43012 0.0
H2155 H 0.71425 0.07902 0.45526 0.0
H2156 H 0.73754 0.12024 0.47761 0.0
C2157 C 0.73871 0.10629 0.53027 0.0
C2158 C 0.72666 0.08459 0.49732 0.0
C2159 C 0.73971 0.10441 0.54526 0.0
C2160 C 0.7248 0.08449 0.43554 0.0
C2161 C 0.72157 0.08678 0.45013 0.0
C2162 C 0.73443 0.11006 0.48265 0.0
C2163 C 0.72975 0.09688 0.52171 0.0
C2164 C 0.7304 0.09712 0.50545 0.0
C2165 C 0.72874 0.09811 0.45811 0.0
C2166 C 0.72947 0.09785 0.47447 0.0
H2167 H 0.71624 0.07538 0.54888 0.0
H2168 H 0.7129 0.07977 0.52299 0.0
H2169 H 0.7382 0.11958 0.50343 0.0
H2170 H 0.74646 0.11452 0.4301 0.0
H2171 H 0.7415 0.11835 0.45516 0.0
C2172 C 0.87503 0.73816 0.43826 0.0
C2173 C 0.87949 0.72444 0.43369 0.0
C2174 C 0.87604 0.74205 0.45285 0.0
C2175 C 0.89738 0.73239 0.48489 0.0
H2176 H 0.86654 0.74722 0.508 0.0
C2177 C 0.89231 0.71718 0.544 0.0
C2178 C 0.8875 0.72736 0.5539 0.0
C2179 C 0.89218 0.72042 0.5292 0.0
C2180 C 0.87538 0.74336 0.50166 0.0
H2181 H 0.88725 0.70366 0.44066 0.0
H2182 H 0.88827 0.71011 0.46634 0.0
H2183 H 0.86388 0.74656 0.48155 0.0
H2184 H 0.87897 0.74885 0.5564 0.0
H2185 H 0.87908 0.7546 0.53061 0.0
H2186 H 0.90865 0.72863 0.50485 0.0
C2187 C 0.88458 0.71807 0.45856 0.0
C2188 C 0.87383 0.74298 0.48654 0.0
C2189 C 0.88382 0.71427 0.44397 0.0
C2190 C 0.8825 0.74072 0.54887 0.0
C2191 C 0.88262 0.74406 0.53415 0.0
C2192 C 0.89891 0.73276 0.4999 0.0
C2193 C 0.88142 0.7322 0.46302 0.0
C2194 C 0.8844 0.7365 0.4782 0.0
C2195 C 0.88758 0.734 0.52416 0.0
C2196 C 0.8875 0.73728 0.50846 0.0
H2197 H 0.87181 0.7463 0.43045 0.0
H2198 H 0.87342 0.75295 0.45605 0.0
H2199 H 0.90595 0.72795 0.47856 0.0
H2200 H 0.89617 0.70682 0.5477 0.0
H2201 H 0.89567 0.71228 0.52168 0.0
C2202 C 0.24779 0.87799 0.43792 0.0
C2203 C 0.24295 0.89129 0.43268 0.0
C2204 C 0.25088 0.87639 0.45275 0.0
C2205 C 0.23659 0.89192 0.48548 0.0
H2206 H 0.26795 0.87475 0.50724 0.0
C2207 C 0.24301 0.90622 0.54356 0.0
C2208 C 0.24271 0.89454 0.55324 0.0
C2209 C 0.24645 0.90397 0.52916 0.0
C2210 C 0.25908 0.87944 0.50125 0.0
H2211 H 0.23936 0.91375 0.4378 0.0
H2212 H 0.24503 0.91113 0.46351 0.0
H2213 H 0.26772 0.8739 0.48052 0.0
H2214 H 0.24767 0.87197 0.55647 0.0
H2215 H 0.25366 0.86791 0.5309 0.0
H2216 H 0.22797 0.89765 0.50591 0.0
C2217 C 0.24608 0.90183 0.45647 0.0
C2218 C 0.25894 0.87894 0.48603 0.0
C2219 C 0.24302 0.9034 0.44178 0.0
C2220 C 0.24775 0.88104 0.54897 0.0
C2221 C 0.25111 0.87873 0.53441 0.0
C2222 C 0.23673 0.89242 0.50053 0.0
C2223 C 0.24899 0.88809 0.46224 0.0
C2224 C 0.24812 0.88594 0.47808 0.0
C2225 C 0.24939 0.88995 0.52425 0.0
C2226 C 0.2484 0.88695 0.50852 0.0
H2227 H 0.24779 0.86857 0.43091 0.0
H2228 H 0.2534 0.86577 0.45694 0.0
H2229 H 0.22774 0.89679 0.47961 0.0
H2230 H 0.23932 0.91675 0.54683 0.0
H2231 H 0.24556 0.91292 0.52159 0.0
C2232 C 0.10331 0.74453 0.5448 0.0
C2233 C 0.09269 0.73649 0.55221 0.0
C2234 C 0.10545 0.74203 0.5301 0.0
C2235 C 0.09061 0.71955 0.49801 0.0
H2236 H 0.10619 0.75306 0.4775 0.0
C2237 C 0.0839 0.72783 0.43579 0.0
C2238 C 0.09238 0.73901 0.42955 0.0
C2239 C 0.08609 0.72416 0.45038 0.0
C2240 C 0.10218 0.74334 0.48292 0.0
H2241 H 0.0771 0.71856 0.55103 0.0
H2242 H 0.08038 0.71422 0.52542 0.0
H2243 H 0.10579 0.75343 0.50328 0.0
H2244 H 0.11191 0.7525 0.43213 0.0
H2245 H 0.11648 0.74532 0.45707 0.0
H2246 H 0.08633 0.70988 0.47728 0.0
C2247 C 0.08718 0.72258 0.53048 0.0
C2248 C 0.10196 0.74352 0.49803 0.0
C2249 C 0.08522 0.72498 0.54529 0.0
C2250 C 0.1047 0.74445 0.43706 0.0
C2251 C 0.10718 0.74044 0.45143 0.0
C2252 C 0.09075 0.71942 0.48281 0.0
C2253 C 0.09662 0.73177 0.52236 0.0
C2254 C 0.09656 0.73147 0.50599 0.0
C2255 C 0.09705 0.7314 0.45874 0.0
C2256 C 0.09692 0.73116 0.475 0.0
H2257 H 0.10931 0.75338 0.55014 0.0
H2258 H 0.11367 0.74869 0.52484 0.0
H2259 H 0.0861 0.71002 0.50332 0.0
H2260 H 0.0747 0.723 0.42993 0.0
H2261 H 0.07833 0.71668 0.45529 0.0
C2262 C 0.25812 0.08913 0.43921 0.0
C2263 C 0.25543 0.10233 0.43233 0.0
C2264 C 0.25404 0.08687 0.45343 0.0
C2265 C 0.23421 0.10215 0.4845 0.0
H2266 H 0.26412 0.08218 0.50567 0.0
C2267 C 0.24939 0.10882 0.54538 0.0
C2268 C 0.25592 0.09701 0.55211 0.0
C2269 C 0.24435 0.1076 0.53102 0.0
C2270 C 0.25536 0.08741 0.5 0.0
H2271 H 0.24669 0.12366 0.43471 0.0
H2272 H 0.24124 0.12041 0.46056 0.0
H2273 H 0.26543 0.084 0.47996 0.0
H2274 H 0.26068 0.0742 0.55005 0.0
H2275 H 0.25142 0.07191 0.52547 0.0
H2276 H 0.22478 0.10627 0.50524 0.0
C2277 C 0.2457 0.11151 0.45464 0.0
C2278 C 0.25613 0.08848 0.48511 0.0
C2279 C 0.24922 0.11356 0.44006 0.0
C2280 C 0.25644 0.08373 0.54479 0.0
C2281 C 0.25085 0.08233 0.53083 0.0
C2282 C 0.23348 0.10116 0.49967 0.0
C2283 C 0.24801 0.09808 0.46143 0.0
C2284 C 0.24577 0.09603 0.47715 0.0
C2285 C 0.24549 0.09443 0.5235 0.0
C2286 C 0.24426 0.09395 0.50752 0.0
H2287 H 0.2623 0.08009 0.43325 0.0
H2288 H 0.25557 0.07625 0.45815 0.0
H2289 H 0.22596 0.10791 0.47859 0.0
H2290 H 0.24832 0.11895 0.55116 0.0
H2291 H 0.24021 0.1171 0.52564 0.0
C2292 C 0.8955 0.25586 0.54645 0.0
C2293 C 0.88664 0.245 0.55274 0.0
C2294 C 0.89354 0.25944 0.53182 0.0
C2295 C 0.87769 0.2402 0.49945 0.0
H2296 H 0.89345 0.27356 0.47884 0.0
C2297 C 0.8765 0.23879 0.43761 0.0
C2298 C 0.88702 0.24687 0.43013 0.0
C2299 C 0.87447 0.24125 0.45231 0.0
C2300 C 0.88907 0.264 0.48422 0.0
H2301 H 0.86667 0.23218 0.55017 0.0
H2302 H 0.86261 0.23914 0.52504 0.0
H2303 H 0.89307 0.27389 0.50492 0.0
H2304 H 0.90274 0.26471 0.43123 0.0
H2305 H 0.89964 0.26901 0.45689 0.0
H2306 H 0.87441 0.22987 0.47914 0.0
C2307 C 0.87195 0.24384 0.53077 0.0
C2308 C 0.88882 0.26426 0.49941 0.0
C2309 C 0.87416 0.23995 0.54523 0.0
C2310 C 0.89463 0.25832 0.43702 0.0
C2311 C 0.89278 0.26069 0.45184 0.0
C2312 C 0.87805 0.23987 0.48434 0.0
C2313 C 0.88243 0.25247 0.52348 0.0
C2314 C 0.88274 0.25252 0.50725 0.0
C2315 C 0.88333 0.25154 0.45999 0.0
C2316 C 0.88334 0.25194 0.47633 0.0
H2317 H 0.90485 0.26041 0.5523 0.0
H2318 H 0.90159 0.26657 0.52686 0.0
H2319 H 0.87371 0.23051 0.50498 0.0
H2320 H 0.87048 0.22992 0.4323 0.0
H2321 H 0.8663 0.23459 0.45762 0.0
C2322 C 0.72038 0.90021 0.43699 0.0
C2323 C 0.72136 0.88724 0.42923 0.0
C2324 C 0.72614 0.90141 0.45094 0.0
C2325 C 0.74505 0.88282 0.48148 0.0
H2326 H 0.71292 0.89862 0.50205 0.0
C2327 C 0.73086 0.87217 0.54232 0.0
C2328 C 0.72445 0.88362 0.54959 0.0
C2329 C 0.73446 0.87366 0.52768 0.0
C2330 C 0.72225 0.8945 0.49663 0.0
H2331 H 0.73018 0.86577 0.42937 0.0
H2332 H 0.73866 0.86718 0.45479 0.0
H2333 H 0.71314 0.89986 0.47626 0.0
H2334 H 0.71759 0.90579 0.54786 0.0
H2335 H 0.72437 0.90867 0.52274 0.0
H2336 H 0.75368 0.87696 0.50248 0.0
C2337 C 0.73391 0.87659 0.44982 0.0
C2338 C 0.72239 0.89524 0.4817 0.0
C2339 C 0.72866 0.87561 0.43551 0.0
C2340 C 0.7219 0.89659 0.54225 0.0
C2341 C 0.72603 0.89829 0.52795 0.0
C2342 C 0.74493 0.88212 0.49673 0.0
C2343 C 0.73221 0.88937 0.45784 0.0
C2344 C 0.73367 0.88941 0.47386 0.0
C2345 C 0.73197 0.88675 0.52034 0.0
C2346 C 0.7334 0.88795 0.5044 0.0
H2347 H 0.71562 0.90966 0.43207 0.0
H2348 H 0.72517 0.91159 0.45666 0.0
H2349 H 0.75385 0.87814 0.47568 0.0
H2350 H 0.73332 0.86225 0.54803 0.0
H2351 H 0.73893 0.86455 0.52209 0.0
C2352 C 0.43227 0.08702 0.26195 0.0
C2353 C 0.42441 0.09316 0.25059 0.0
C2354 C 0.44724 0.08942 0.2627 0.0
C2355 C 0.47846 0.1083 0.24444 0.0
H2356 H 0.49713 0.07272 0.25511 0.0
C2357 C 0.54026 0.10626 0.24548 0.0
C2358 C 0.54639 0.09808 0.2567 0.0
C2359 C 0.52552 0.10484 0.24231 0.0
C2360 C 0.49213 0.08279 0.25218 0.0
H2361 H 0.42509 0.10751 0.23202 0.0
H2362 H 0.45114 0.11107 0.23273 0.0
H2363 H 0.47103 0.07389 0.25656 0.0
H2364 H 0.54183 0.08296 0.27423 0.0
H2365 H 0.51593 0.08154 0.26964 0.0
H2366 H 0.4994 0.11731 0.24016 0.0
C2367 C 0.44611 0.10479 0.24133 0.0
C2368 C 0.47714 0.08351 0.25314 0.0
C2369 C 0.43118 0.10277 0.24088 0.0
C2370 C 0.53737 0.08946 0.26554 0.0
C2371 C 0.52255 0.08829 0.26258 0.0
C2372 C 0.49343 0.1076 0.2435 0.0
C2373 C 0.45438 0.09738 0.25169 0.0
C2374 C 0.47022 0.09651 0.24993 0.0
C2375 C 0.51645 0.09574 0.25073 0.0
C2376 C 0.50053 0.09513 0.24819 0.0
H2377 H 0.42703 0.07964 0.26956 0.0
H2378 H 0.4533 0.08415 0.27125 0.0
H2379 H 0.47349 0.1184 0.24156 0.0
H2380 H 0.54701 0.11301 0.23851 0.0
H2381 H 0.52135 0.11067 0.23303 0.0
C2382 C 0.88564 0.54371 0.25955 0.0
C2383 C 0.89218 0.55007 0.24735 0.0
C2384 C 0.88136 0.5289 0.25925 0.0
C2385 C 0.89381 0.49697 0.24037 0.0
H2386 H 0.86286 0.47508 0.25925 0.0
C2387 C 0.8936 0.43653 0.23635 0.0
C2388 C 0.89251 0.42883 0.24943 0.0
C2389 C 0.88902 0.45065 0.23534 0.0
C2390 C 0.87154 0.48111 0.25394 0.0
H2391 H 0.89742 0.5469 0.22475 0.0
H2392 H 0.88968 0.52164 0.22409 0.0
H2393 H 0.8628 0.50187 0.25897 0.0
H2394 H 0.88447 0.42916 0.27134 0.0
H2395 H 0.87734 0.45473 0.26996 0.0
H2396 H 0.9029 0.47673 0.23565 0.0
C2397 C 0.88848 0.52757 0.23411 0.0
C2398 C 0.87151 0.49639 0.2538 0.0
C2399 C 0.893 0.54204 0.23452 0.0
C2400 C 0.88585 0.43516 0.26131 0.0
C2401 C 0.88157 0.44964 0.26041 0.0
C2402 C 0.89383 0.48193 0.2405 0.0
C2403 C 0.88344 0.52057 0.24667 0.0
C2404 C 0.88266 0.50444 0.24692 0.0
C2405 C 0.88371 0.45769 0.24755 0.0
C2406 C 0.88272 0.47375 0.24721 0.0
H2407 H 0.88451 0.54992 0.26941 0.0
H2408 H 0.8773 0.52382 0.26904 0.0
H2409 H 0.90286 0.50276 0.23541 0.0
H2410 H 0.89807 0.43162 0.22681 0.0
H2411 H 0.89028 0.45632 0.22511 0.0
C2412 C 0.53723 0.87933 0.26441 0.0
C2413 C 0.54477 0.88617 0.25315 0.0
C2414 C 0.52217 0.87739 0.26336 0.0
C2415 C 0.49056 0.88459 0.23755 0.0
H2416 H 0.46908 0.87631 0.27242 0.0
C2417 C 0.42971 0.88474 0.23379 0.0
C2418 C 0.42209 0.88899 0.24591 0.0
C2419 C 0.44397 0.88092 0.23526 0.0
C2420 C 0.47478 0.87893 0.26256 0.0
H2421 H 0.54285 0.89636 0.23205 0.0
H2422 H 0.51721 0.8946 0.23081 0.0
H2423 H 0.4949 0.87835 0.27381 0.0
H2424 H 0.42244 0.89165 0.26917 0.0
H2425 H 0.44798 0.88634 0.27183 0.0
H2426 H 0.4706 0.88769 0.22682 0.0
C2427 C 0.52228 0.88969 0.24012 0.0
C2428 C 0.48988 0.8797 0.26326 0.0
C2429 C 0.53723 0.89093 0.24087 0.0
C2430 C 0.42847 0.88869 0.25971 0.0
C2431 C 0.44307 0.88544 0.26114 0.0
C2432 C 0.47556 0.88481 0.23707 0.0
C2433 C 0.51434 0.88298 0.25138 0.0
C2434 C 0.49811 0.88228 0.25071 0.0
C2435 C 0.45124 0.88221 0.24876 0.0
C2436 C 0.46734 0.88165 0.24948 0.0
H2437 H 0.54296 0.8754 0.27391 0.0
H2438 H 0.51685 0.87158 0.27207 0.0
H2439 H 0.49598 0.88629 0.22738 0.0
H2440 H 0.42463 0.88453 0.2231 0.0
H2441 H 0.44932 0.87742 0.22559 0.0
C2442 C 0.09135 0.54435 0.2643 0.0
C2443 C 0.09647 0.55396 0.25363 0.0
C2444 C 0.09077 0.52944 0.26155 0.0
C2445 C 0.10667 0.50177 0.23899 0.0
H2446 H 0.0746 0.47816 0.25362 0.0
C2447 C 0.10073 0.43811 0.23812 0.0
C2448 C 0.09563 0.43251 0.25132 0.0
C2449 C 0.10169 0.45312 0.23599 0.0
C2450 C 0.08363 0.48465 0.24947 0.0
H2451 H 0.10437 0.55586 0.23161 0.0
H2452 H 0.10309 0.52995 0.22679 0.0
H2453 H 0.07344 0.50448 0.25421 0.0
H2454 H 0.08884 0.43751 0.27301 0.0
H2455 H 0.09113 0.46371 0.26961 0.0
H2456 H 0.11702 0.48175 0.23469 0.0
C2457 C 0.09996 0.53378 0.23736 0.0
C2458 C 0.08295 0.49966 0.24983 0.0
C2459 C 0.10075 0.54858 0.24017 0.0
C2460 C 0.09255 0.44178 0.2627 0.0
C2461 C 0.09381 0.45667 0.26071 0.0
C2462 C 0.10737 0.48665 0.23868 0.0
C2463 C 0.09503 0.52408 0.24801 0.0
C2464 C 0.09475 0.50834 0.24524 0.0
C2465 C 0.09765 0.46244 0.24713 0.0
C2466 C 0.09613 0.47807 0.24462 0.0
H2467 H 0.08793 0.54834 0.2747 0.0
H2468 H 0.08714 0.52211 0.27004 0.0
H2469 H 0.11585 0.50828 0.23521 0.0
H2470 H 0.10316 0.43092 0.22926 0.0
H2471 H 0.1048 0.45738 0.22549 0.0
C2472 C 0.44328 0.90014 0.72679 0.0
C2473 C 0.43484 0.88729 0.72616 0.0
C2474 C 0.45765 0.89995 0.73144 0.0
C2475 C 0.48728 0.87296 0.73658 0.0
H2476 H 0.51009 0.90887 0.73613 0.0
C2477 C 0.54916 0.87465 0.73621 0.0
C2478 C 0.55602 0.88831 0.73495 0.0
C2479 C 0.53435 0.87307 0.73348 0.0
C2480 C 0.50389 0.8987 0.73566 0.0
H2481 H 0.43421 0.86424 0.73029 0.0
H2482 H 0.45906 0.86351 0.73826 0.0
H2483 H 0.48472 0.90952 0.74054 0.0
H2484 H 0.55421 0.91008 0.72647 0.0
H2485 H 0.52847 0.90712 0.72055 0.0
H2486 H 0.5064 0.86211 0.73179 0.0
C2487 C 0.45523 0.87392 0.73489 0.0
C2488 C 0.48908 0.89904 0.73835 0.0
C2489 C 0.44083 0.87419 0.73019 0.0
C2490 C 0.54886 0.89953 0.72793 0.0
C2491 C 0.53403 0.8979 0.72492 0.0
C2492 C 0.50199 0.87263 0.73368 0.0
C2493 C 0.46411 0.88678 0.73533 0.0
C2494 C 0.48025 0.88624 0.73761 0.0
C2495 C 0.52632 0.88523 0.72946 0.0
C2496 C 0.51046 0.88553 0.73245 0.0
H2497 H 0.43856 0.9105 0.72436 0.0
H2498 H 0.46353 0.91026 0.73154 0.0
H2499 H 0.48155 0.86259 0.73678 0.0
H2500 H 0.55476 0.86575 0.74123 0.0
H2501 H 0.52924 0.86281 0.73646 0.0
C2502 C 0.09898 0.43877 0.74134 0.0
C2503 C 0.08808 0.43158 0.73317 0.0
C2504 C 0.10175 0.45363 0.73945 0.0
C2505 C 0.08942 0.4865 0.71793 0.0
H2506 H 0.10382 0.50596 0.75269 0.0
C2507 C 0.08551 0.54868 0.72854 0.0
C2508 C 0.09509 0.55475 0.73897 0.0
C2509 C 0.08635 0.53399 0.72484 0.0
C2510 C 0.10009 0.50079 0.74271 0.0
H2511 H 0.07261 0.43348 0.71556 0.0
H2512 H 0.07707 0.45939 0.71225 0.0
H2513 H 0.10215 0.47997 0.75217 0.0
H2514 H 0.11451 0.55147 0.75175 0.0
H2515 H 0.11672 0.52626 0.74453 0.0
H2516 H 0.08665 0.50769 0.70891 0.0
C2517 C 0.08359 0.45395 0.72026 0.0
C2518 C 0.09916 0.48564 0.74235 0.0
C2519 C 0.08095 0.439 0.72209 0.0
C2520 C 0.10679 0.54678 0.74396 0.0
C2521 C 0.10787 0.53228 0.73999 0.0
C2522 C 0.09019 0.50174 0.71838 0.0
C2523 C 0.09339 0.46173 0.72957 0.0
C2524 C 0.09417 0.47812 0.72982 0.0
C2525 C 0.09698 0.52535 0.73135 0.0
C2526 C 0.0959 0.50911 0.73064 0.0
H2527 H 0.10468 0.43311 0.74989 0.0
H2528 H 0.11008 0.45875 0.74625 0.0
H2529 H 0.0854 0.48145 0.70803 0.0
H2530 H 0.07652 0.5548 0.72443 0.0
H2531 H 0.07792 0.5292 0.71791 0.0
C2532 C 0.44325 0.11009 0.73099 0.0
C2533 C 0.43713 0.09638 0.72773 0.0
C2534 C 0.45765 0.1114 0.73571 0.0
C2535 C 0.49018 0.08883 0.74372 0.0
H2536 H 0.50908 0.11951 0.72141 0.0
C2537 C 0.54819 0.08253 0.72919 0.0
C2538 C 0.5568 0.0946 0.7335 0.0
C2539 C 0.53343 0.08411 0.72661 0.0
C2540 C 0.50402 0.11088 0.72772 0.0
H2541 H 0.44032 0.07324 0.72787 0.0
H2542 H 0.46547 0.07536 0.73522 0.0
H2543 H 0.4837 0.12085 0.7265 0.0
H2544 H 0.55791 0.11793 0.73589 0.0
H2545 H 0.53225 0.1208 0.73157 0.0
H2546 H 0.51062 0.07875 0.74459 0.0
C2547 C 0.45949 0.08522 0.73438 0.0
C2548 C 0.48941 0.11174 0.7309 0.0
C2549 C 0.44521 0.08398 0.72963 0.0
C2550 C 0.55128 0.10851 0.73266 0.0
C2551 C 0.53652 0.1101 0.73025 0.0
C2552 C 0.50479 0.08792 0.74046 0.0
C2553 C 0.46609 0.09898 0.73702 0.0
C2554 C 0.4821 0.10032 0.73818 0.0
C2555 C 0.5273 0.09772 0.72866 0.0
C2556 C 0.51173 0.09868 0.73191 0.0
H2557 H 0.43684 0.1197 0.73016 0.0
H2558 H 0.46221 0.12213 0.73807 0.0
H2559 H 0.48508 0.08015 0.74995 0.0
H2560 H 0.55243 0.07171 0.72966 0.0
H2561 H 0.52663 0.07448 0.72465 0.0
C2562 C 0.88357 0.54091 0.71488 0.0
C2563 C 0.87736 0.55011 0.72498 0.0
C2564 C 0.88555 0.52636 0.71843 0.0
C2565 C 0.87293 0.49745 0.74325 0.0
H2566 H 0.90628 0.47851 0.72819 0.0
C2567 C 0.87951 0.4348 0.74275 0.0
C2568 C 0.88439 0.42988 0.72934 0.0
C2569 C 0.87944 0.44967 0.7456 0.0
C2570 C 0.89695 0.48371 0.73253 0.0
H2571 H 0.86665 0.55097 0.74576 0.0
H2572 H 0.87089 0.52613 0.75221 0.0
H2573 H 0.90515 0.50486 0.72673 0.0
H2574 H 0.89187 0.43606 0.70806 0.0
H2575 H 0.89101 0.46205 0.71265 0.0
H2576 H 0.86449 0.47622 0.74851 0.0
C2577 C 0.87422 0.52993 0.74162 0.0
C2578 C 0.89629 0.49875 0.73165 0.0
C2579 C 0.87172 0.54419 0.73784 0.0
C2580 C 0.88831 0.43978 0.71852 0.0
C2581 C 0.88797 0.45456 0.72124 0.0
C2582 C 0.8736 0.48239 0.74412 0.0
C2583 C 0.88144 0.52092 0.73212 0.0
C2584 C 0.88382 0.50565 0.73612 0.0
C2585 C 0.88416 0.45964 0.73499 0.0
C2586 C 0.88516 0.47538 0.73786 0.0
H2587 H 0.88788 0.54515 0.7048 0.0
H2588 H 0.89063 0.51949 0.71062 0.0
H2589 H 0.86327 0.50245 0.74704 0.0
H2590 H 0.87648 0.42716 0.75122 0.0
H2591 H 0.87625 0.45334 0.7562 0.0
C2592 C 0.24894 0.54127 0.10413 0.0
C2593 C 0.25534 0.54781 0.09198 0.0
C2594 C 0.24548 0.52636 0.10408 0.0
C2595 C 0.25787 0.49362 0.08542 0.0
H2596 H 0.23098 0.47398 0.11112 0.0
C2597 C 0.25197 0.43131 0.08813 0.0
C2598 C 0.24265 0.42536 0.09854 0.0
C2599 C 0.25574 0.44614 0.08852 0.0
C2600 C 0.23892 0.47922 0.10419 0.0
H2601 H 0.2615 0.54451 0.06967 0.0
H2602 H 0.25482 0.51885 0.06927 0.0
H2603 H 0.22938 0.49982 0.10726 0.0
H2604 H 0.23269 0.42892 0.11921 0.0
H2605 H 0.24058 0.45436 0.12085 0.0
H2606 H 0.26775 0.47339 0.08257 0.0
C2607 C 0.25333 0.52482 0.07921 0.0
C2608 C 0.2378 0.49415 0.1018 0.0
C2609 C 0.25727 0.53953 0.07946 0.0
C2610 C 0.2395 0.43354 0.1108 0.0
C2611 C 0.24376 0.44822 0.11151 0.0
C2612 C 0.25913 0.47877 0.08794 0.0
C2613 C 0.2481 0.51783 0.09175 0.0
C2614 C 0.24748 0.50163 0.09261 0.0
C2615 C 0.25045 0.4551 0.09955 0.0
C2616 C 0.24981 0.47127 0.09753 0.0
H2617 H 0.24692 0.54761 0.11373 0.0
H2618 H 0.24139 0.52147 0.11395 0.0
H2619 H 0.26571 0.49889 0.07839 0.0
H2620 H 0.25478 0.42501 0.07873 0.0
H2621 H 0.26141 0.4506 0.07929 0.0
C2622 C 0.24382 0.54202 0.8969 0.0
C2623 C 0.25143 0.54923 0.88585 0.0
C2624 C 0.2388 0.52774 0.8949 0.0
C2625 C 0.25332 0.49739 0.87535 0.0
H2626 H 0.22609 0.47507 0.89865 0.0
C2627 C 0.24664 0.43476 0.87776 0.0
C2628 C 0.24121 0.42909 0.89074 0.0
C2629 C 0.25001 0.44963 0.87672 0.0
C2630 C 0.2339 0.48122 0.89227 0.0
H2631 H 0.25772 0.54852 0.8634 0.0
H2632 H 0.24912 0.52336 0.85982 0.0
H2633 H 0.22254 0.50087 0.89481 0.0
H2634 H 0.23725 0.43334 0.91336 0.0
H2635 H 0.2434 0.45926 0.91169 0.0
H2636 H 0.26466 0.4777 0.87284 0.0
C2637 C 0.24741 0.52848 0.87019 0.0
C2638 C 0.23175 0.49597 0.88992 0.0
C2639 C 0.25239 0.5428 0.87221 0.0
C2640 C 0.24126 0.43772 0.90321 0.0
C2641 C 0.24465 0.45251 0.9022 0.0
C2642 C 0.2554 0.48263 0.87761 0.0
C2643 C 0.2416 0.52045 0.88188 0.0
C2644 C 0.24168 0.50434 0.88175 0.0
C2645 C 0.24777 0.45876 0.88865 0.0
C2646 C 0.24593 0.47449 0.88639 0.0
H2647 H 0.24231 0.54723 0.90728 0.0
H2648 H 0.23404 0.52208 0.90405 0.0
H2649 H 0.26138 0.50346 0.86922 0.0
H2650 H 0.24674 0.42811 0.86808 0.0
H2651 H 0.2527 0.45413 0.86621 0.0
C2652 C 0.42808 0.24015 0.87194 0.0
C2653 C 0.42029 0.24363 0.88427 0.0
C2654 C 0.44264 0.24448 0.87104 0.0
C2655 C 0.4735 0.26036 0.89423 0.0
H2656 H 0.4935 0.22926 0.87574 0.0
C2657 C 0.53497 0.26087 0.89698 0.0
C2658 C 0.54185 0.25691 0.88423 0.0
C2659 C 0.52041 0.25721 0.89896 0.0
C2660 C 0.48813 0.23808 0.88094 0.0
H2661 H 0.42015 0.2568 0.90362 0.0
H2662 H 0.44556 0.26358 0.90275 0.0
H2663 H 0.46757 0.23055 0.87281 0.0
H2664 H 0.53915 0.24615 0.8635 0.0
H2665 H 0.51321 0.24136 0.86603 0.0
H2666 H 0.49394 0.26773 0.90261 0.0
C2667 C 0.44095 0.25748 0.8937 0.0
C2668 C 0.47317 0.23899 0.87907 0.0
C2669 C 0.42624 0.25364 0.89426 0.0
C2670 C 0.53388 0.24966 0.87324 0.0
C2671 C 0.51912 0.24651 0.87496 0.0
C2672 C 0.48841 0.25935 0.89622 0.0
C2673 C 0.44965 0.25156 0.8829 0.0
C2674 C 0.46567 0.25057 0.88513 0.0
C2675 C 0.51214 0.25026 0.88786 0.0
C2676 C 0.49607 0.24874 0.8889 0.0
H2677 H 0.42336 0.23291 0.86377 0.0
H2678 H 0.44864 0.2409 0.86181 0.0
H2679 H 0.46836 0.26932 0.89938 0.0
H2680 H 0.54108 0.2659 0.90588 0.0
H2681 H 0.51568 0.25983 0.90925 0.0
C2682 C 0.73694 0.54988 0.87183 0.0
C2683 C 0.7333 0.55768 0.88421 0.0
C2684 C 0.73316 0.53513 0.8708 0.0
C2685 C 0.72045 0.5044 0.89577 0.0
H2686 H 0.75029 0.48469 0.87528 0.0
C2687 C 0.72189 0.44384 0.90157 0.0
C2688 C 0.72395 0.43627 0.88869 0.0
C2689 C 0.72635 0.45837 0.90276 0.0
C2690 C 0.74186 0.48998 0.88108 0.0
H2691 H 0.71936 0.55767 0.90284 0.0
H2692 H 0.71324 0.5322 0.90158 0.0
H2693 H 0.74699 0.51015 0.87094 0.0
H2694 H 0.7329 0.43742 0.86718 0.0
H2695 H 0.73883 0.46339 0.86836 0.0
H2696 H 0.71556 0.48442 0.90617 0.0
C2697 C 0.71969 0.53671 0.89292 0.0
C2698 C 0.73971 0.50471 0.8784 0.0
C2699 C 0.72314 0.55155 0.89371 0.0
C2700 C 0.73063 0.44334 0.87699 0.0
C2701 C 0.73447 0.45811 0.87791 0.0
C2702 C 0.72274 0.48982 0.89858 0.0
C2703 C 0.72635 0.52797 0.88253 0.0
C2704 C 0.7285 0.51208 0.88523 0.0
C2705 C 0.73203 0.46595 0.89072 0.0
C2706 C 0.73287 0.48215 0.89068 0.0
H2707 H 0.74388 0.55479 0.86368 0.0
H2708 H 0.73694 0.52922 0.86156 0.0
H2709 H 0.71186 0.50925 0.90163 0.0
H2710 H 0.71753 0.43832 0.91102 0.0
H2711 H 0.72502 0.4637 0.91308 0.0
C2712 C 0.43893 0.74084 0.89322 0.0
C2713 C 0.43096 0.72865 0.88829 0.0
C2714 C 0.45357 0.74245 0.89055 0.0
C2715 C 0.48522 0.72394 0.87272 0.0
H2716 H 0.50577 0.7532 0.89586 0.0
C2717 C 0.54696 0.72623 0.88759 0.0
C2718 C 0.5528 0.73994 0.89163 0.0
C2719 C 0.53263 0.72486 0.88232 0.0
C2720 C 0.50029 0.74518 0.88895 0.0
H2721 H 0.43184 0.70837 0.87665 0.0
H2722 H 0.45787 0.71046 0.87271 0.0
H2723 H 0.48057 0.75058 0.89779 0.0
H2724 H 0.54939 0.76312 0.89081 0.0
H2725 H 0.52501 0.76082 0.88107 0.0
H2726 H 0.50611 0.71796 0.86512 0.0
C2727 C 0.4529 0.7192 0.87834 0.0
C2728 C 0.48538 0.74363 0.88997 0.0
C2729 C 0.43793 0.7178 0.88075 0.0
C2730 C 0.54488 0.75233 0.88859 0.0
C2731 C 0.53093 0.75101 0.88287 0.0
C2732 C 0.50041 0.72529 0.87199 0.0
C2733 C 0.46112 0.73154 0.88341 0.0
C2734 C 0.47735 0.73307 0.88183 0.0
C2735 C 0.52419 0.73724 0.88079 0.0
C2736 C 0.50809 0.73603 0.88008 0.0
H2737 H 0.43376 0.74938 0.89909 0.0
H2738 H 0.45862 0.75258 0.89406 0.0
H2739 H 0.47985 0.71567 0.8661 0.0
H2740 H 0.55317 0.71659 0.8892 0.0
H2741 H 0.52788 0.71409 0.88049 0.0
C2742 C 0.73619 0.54667 0.07902 0.0
C2743 C 0.7368 0.55524 0.09155 0.0
C2744 C 0.73287 0.53186 0.0801 0.0
C2745 C 0.72431 0.50165 0.10548 0.0
H2746 H 0.7579 0.48504 0.08805 0.0
C2747 C 0.72847 0.44238 0.11044 0.0
C2748 C 0.72952 0.43639 0.09658 0.0
C2749 C 0.73394 0.45644 0.1131 0.0
C2750 C 0.74847 0.48945 0.093 0.0
H2751 H 0.73229 0.5561 0.11445 0.0
H2752 H 0.72639 0.53013 0.11643 0.0
H2753 H 0.75243 0.51021 0.08321 0.0
H2754 H 0.73983 0.43858 0.07573 0.0
H2755 H 0.74864 0.46328 0.0799 0.0
H2756 H 0.71991 0.48096 0.11486 0.0
C2757 C 0.72856 0.53467 0.10581 0.0
C2758 C 0.74521 0.50384 0.09006 0.0
C2759 C 0.7319 0.54951 0.10471 0.0
C2760 C 0.73794 0.44359 0.08613 0.0
C2761 C 0.74337 0.45761 0.08875 0.0
C2762 C 0.72743 0.48722 0.10827 0.0
C2763 C 0.73037 0.52558 0.09377 0.0
C2764 C 0.73295 0.51 0.09609 0.0
C2765 C 0.74012 0.4647 0.10175 0.0
C2766 C 0.73933 0.48078 0.10177 0.0
H2767 H 0.73986 0.55107 0.06875 0.0
H2768 H 0.73384 0.52513 0.07056 0.0
H2769 H 0.71492 0.50619 0.11041 0.0
H2770 H 0.72279 0.4365 0.11895 0.0
H2771 H 0.73212 0.46127 0.12358 0.0
C2772 C 0.55311 0.72533 0.09169 0.0
C2773 C 0.55892 0.7395 0.09118 0.0
C2774 C 0.5389 0.72287 0.09638 0.0
C2775 C 0.50564 0.74592 0.10162 0.0
H2776 H 0.48613 0.70896 0.0936 0.0
C2777 C 0.44397 0.74258 0.09573 0.0
C2778 C 0.43652 0.72972 0.09967 0.0
C2779 C 0.45893 0.74302 0.09467 0.0
C2780 C 0.49133 0.71936 0.09619 0.0
H2781 H 0.5564 0.7616 0.09826 0.0
H2782 H 0.53253 0.75742 0.10733 0.0
H2783 H 0.51187 0.71008 0.09609 0.0
H2784 H 0.43872 0.70722 0.10585 0.0
H2785 H 0.46512 0.70834 0.10569 0.0
H2786 H 0.48492 0.75495 0.10251 0.0
C2787 C 0.53761 0.74825 0.1026 0.0
C2788 C 0.50642 0.72011 0.09753 0.0
C2789 C 0.55156 0.75072 0.09761 0.0
C2790 C 0.44431 0.71734 0.103 0.0
C2791 C 0.45943 0.71794 0.10255 0.0
C2792 C 0.4906 0.74506 0.10076 0.0
C2793 C 0.53034 0.73466 0.10042 0.0
C2794 C 0.514 0.73342 0.1004 0.0
C2795 C 0.46699 0.7308 0.09827 0.0
C2796 C 0.48315 0.73175 0.09819 0.0
H2797 H 0.55914 0.71636 0.08763 0.0
H2798 H 0.53464 0.71185 0.09582 0.0
H2799 H 0.51036 0.75667 0.10317 0.0
H2800 H 0.43818 0.75218 0.09264 0.0
H2801 H 0.46406 0.75297 0.09075 0.0
C2802 C 0.53915 0.26722 0.09201 0.0
C2803 C 0.54779 0.25531 0.0949 0.0
C2804 C 0.52408 0.26554 0.09239 0.0
C2805 C 0.49459 0.24205 0.10698 0.0
H2806 H 0.47166 0.26379 0.07962 0.0
C2807 C 0.43269 0.2364 0.10143 0.0
C2808 C 0.42573 0.24682 0.09303 0.0
C2809 C 0.44724 0.2384 0.1052 0.0
C2810 C 0.47785 0.25799 0.08768 0.0
H2811 H 0.54749 0.2326 0.10142 0.0
H2812 H 0.52141 0.22964 0.10159 0.0
H2813 H 0.49761 0.26362 0.07704 0.0
H2814 H 0.42708 0.26875 0.08469 0.0
H2815 H 0.45254 0.27272 0.09191 0.0
H2816 H 0.4749 0.23648 0.11774 0.0
C2817 C 0.52614 0.24025 0.0991 0.0
C2818 C 0.49278 0.25774 0.08603 0.0
C2819 C 0.54114 0.242 0.099 0.0
C2820 C 0.43259 0.26033 0.09059 0.0
C2821 C 0.44715 0.26248 0.09463 0.0
C2822 C 0.47962 0.24242 0.10874 0.0
C2823 C 0.51741 0.25194 0.09561 0.0
C2824 C 0.50139 0.25024 0.09599 0.0
C2825 C 0.45499 0.25091 0.10057 0.0
C2826 C 0.47106 0.25078 0.09935 0.0
H2827 H 0.54397 0.27764 0.08894 0.0
H2828 H 0.51765 0.2749 0.09009 0.0
H2829 H 0.50088 0.23597 0.11476 0.0
H2830 H 0.42721 0.22615 0.10402 0.0
H2831 H 0.45257 0.22941 0.1103 0.0
C2832 C 0.6132 0.76252 0.03899 0.0
C2833 C 0.60137 0.7567 0.04655 0.0
C2834 C 0.61508 0.75858 0.02459 0.0
C2835 C 0.60068 0.73617 -0.00632 0.0
H2836 H 0.60457 0.77413 0.98099 0.0
C2837 C 0.58958 0.74729 0.93891 0.0
C2838 C 0.59868 0.75775 0.93231 0.0
C2839 C 0.59106 0.74434 0.95366 0.0
C2840 C 0.60379 0.76358 0.98619 0.0
H2841 H 0.584 0.7403 0.04649 0.0
H2842 H 0.58698 0.73368 0.02109 0.0
H2843 H 0.60619 0.7724 0.00036 0.0
H2844 H 0.61736 0.7723 0.93518 0.0
H2845 H 0.61997 0.76733 0.9612 0.0
H2846 H 0.59788 0.72749 0.97919 0.0
C2847 C 0.59459 0.74147 0.02601 0.0
C2848 C 0.60468 0.7623 -0.00556 0.0
C2849 C 0.59271 0.74545 0.04041 0.0
C2850 C 0.60998 0.76453 0.94028 0.0
C2851 C 0.61142 0.76166 0.95508 0.0
C2852 C 0.59981 0.73746 0.98524 0.0
C2853 C 0.60507 0.74888 0.01769 0.0
C2854 C 0.60376 0.74891 0.00171 0.0
C2855 C 0.60163 0.75194 0.96201 0.0
C2856 C 0.60175 0.75085 0.97801 0.0
H2857 H 0.62033 0.77082 0.04383 0.0
H2858 H 0.62362 0.76401 0.01851 0.0
H2859 H 0.59948 0.72575 -0.00094 0.0
H2860 H 0.58116 0.74154 0.93266 0.0
H2861 H 0.58349 0.73667 0.95864 0.0
C2862 C 0.23322 0.58111 0.94259 0.0
C2863 C 0.23352 0.59285 0.93299 0.0
C2864 C 0.23007 0.58331 0.95708 0.0
C2865 C 0.2181 0.60781 0.98534 0.0
H2866 H 0.24949 0.58972 -0.00032 0.0
C2867 C 0.22908 0.60885 0.04192 0.0
C2868 C 0.23469 0.5959 0.04725 0.0
C2869 C 0.22609 0.61025 0.02701 0.0
C2870 C 0.24053 0.59458 -0.00602 0.0
H2871 H 0.22886 0.61552 0.93001 0.0
H2872 H 0.22324 0.61947 0.95568 0.0
H2873 H 0.24896 0.58937 0.98013 0.0
H2874 H 0.23932 0.57363 0.04223 0.0
H2875 H 0.23369 0.57584 0.01651 0.0
H2876 H 0.2096 0.61279 -0.00053 0.0
C2877 C 0.2256 0.60864 0.95206 0.0
C2878 C 0.24033 0.59466 0.98567 0.0
C2879 C 0.22872 0.60638 0.93743 0.0
C2880 C 0.23533 0.58382 0.03816 0.0
C2881 C 0.23225 0.58515 0.02345 0.0
C2882 C 0.21826 0.60769 -0.00617 0.0
C2883 C 0.22735 0.59733 0.96213 0.0
C2884 C 0.22859 0.60024 0.97788 0.0
C2885 C 0.22866 0.59866 0.01756 0.0
C2886 C 0.22919 0.60066 0.00162 0.0
H2887 H 0.23679 0.57056 0.93921 0.0
H2888 H 0.23101 0.57431 0.96458 0.0
H2889 H 0.20917 0.61256 0.9795 0.0
H2890 H 0.22833 0.6182 0.04893 0.0
H2891 H 0.22296 0.62068 0.02278 0.0
C2892 C 0.37136 0.22023 0.04143 0.0
C2893 C 0.38379 0.22541 0.04881 0.0
C2894 C 0.36923 0.22391 0.02696 0.0
C2895 C 0.38187 0.24698 -0.00366 0.0
H2896 H 0.3717 0.2124 0.98185 0.0
C2897 C 0.38894 0.23486 0.94181 0.0
C2898 C 0.37874 0.22473 0.93604 0.0
C2899 C 0.3873 0.2402 0.95581 0.0
C2900 C 0.37427 0.22244 0.98759 0.0
H2901 H 0.40285 0.23971 0.04791 0.0
H2902 H 0.39944 0.24577 0.02224 0.0
H2903 H 0.37352 0.2109 0.00114 0.0
H2904 H 0.35781 0.214 0.93889 0.0
H2905 H 0.35501 0.22305 0.96354 0.0
H2906 H 0.38327 0.25825 0.98228 0.0
C2907 C 0.39145 0.23877 0.0275 0.0
C2908 C 0.37524 0.22129 -0.0042 0.0
C2909 C 0.39359 0.23503 0.042 0.0
C2910 C 0.36599 0.22145 0.94345 0.0
C2911 C 0.36437 0.22671 0.95745 0.0
C2912 C 0.38097 0.24811 0.98789 0.0
C2913 C 0.37955 0.23275 0.01971 0.0
C2914 C 0.37877 0.23389 0.00376 0.0
C2915 C 0.37556 0.23519 0.96412 0.0
C2916 C 0.37663 0.23554 0.9801 0.0
H2917 H 0.36342 0.21326 0.04681 0.0
H2918 H 0.35972 0.21948 0.02128 0.0
H2919 H 0.38493 0.25679 0.00225 0.0
H2920 H 0.39854 0.23799 0.9358 0.0
H2921 H 0.39591 0.24698 0.9606 0.0
C2922 C 0.74275 0.37295 0.04333 0.0
C2923 C 0.74739 0.38589 0.05013 0.0
C2924 C 0.74561 0.37072 0.02875 0.0
C2925 C 0.75575 0.39455 -0.00328 0.0
H2926 H 0.74435 0.36044 0.98221 0.0
C2927 C 0.76068 0.39559 0.94195 0.0
C2928 C 0.75065 0.38719 0.93381 0.0
C2929 C 0.762 0.39332 0.95689 0.0
C2930 C 0.74755 0.37035 0.98783 0.0
H2931 H 0.76201 0.40468 0.04862 0.0
H2932 H 0.7681 0.40032 0.02347 0.0
H2933 H 0.74481 0.35913 0.00133 0.0
H2934 H 0.73515 0.36911 0.93415 0.0
H2935 H 0.73652 0.36576 0.96015 0.0
H2936 H 0.75796 0.40582 0.98306 0.0
C2937 C 0.76074 0.39264 0.02866 0.0
C2938 C 0.74778 0.36934 -0.00374 0.0
C2939 C 0.75758 0.39502 0.04325 0.0
C2940 C 0.74299 0.37566 0.94038 0.0
C2941 C 0.74378 0.37382 0.95538 0.0
C2942 C 0.75553 0.39554 0.98833 0.0
C2943 C 0.75342 0.38136 0.02075 0.0
C2944 C 0.75262 0.3816 0.00442 0.0
C2945 C 0.75274 0.38316 0.964 0.0
C2946 C 0.75194 0.38295 0.98022 0.0
H2947 H 0.73564 0.36521 0.04884 0.0
H2948 H 0.74041 0.3613 0.02375 0.0
H2949 H 0.75842 0.40465 0.00223 0.0
H2950 H 0.76678 0.40447 0.93696 0.0
H2951 H 0.76975 0.40012 0.9629 0.0
C2952 C 0.58829 0.24533 0.93924 0.0
C2953 C 0.58796 0.2322 0.93155 0.0
C2954 C 0.59411 0.2461 0.95315 0.0
C2955 C 0.61201 0.22658 0.98339 0.0
H2956 H 0.58153 0.24415 -0.00196 0.0
C2957 C 0.59939 0.21983 0.03885 0.0
C2958 C 0.59347 0.23215 0.04504 0.0
C2959 C 0.60328 0.22013 0.02418 0.0
C2960 C 0.59028 0.23927 -0.00769 0.0
H2961 H 0.59507 0.21008 0.93146 0.0
H2962 H 0.60436 0.21104 0.95672 0.0
H2963 H 0.58086 0.24504 0.97877 0.0
H2964 H 0.58905 0.25491 0.0419 0.0
H2965 H 0.59617 0.25558 0.01685 0.0
H2966 H 0.6211 0.22052 -0.00252 0.0
C2967 C 0.60023 0.22077 0.9518 0.0
C2968 C 0.59001 0.24007 0.98405 0.0
C2969 C 0.5947 0.22012 0.93752 0.0
C2970 C 0.59295 0.24507 0.03709 0.0
C2971 C 0.59714 0.24549 0.02279 0.0
C2972 C 0.61231 0.22581 -0.00809 0.0
C2973 C 0.59923 0.2336 0.95997 0.0
C2974 C 0.60076 0.23354 0.97599 0.0
C2975 C 0.60147 0.23283 0.01588 0.0
C2976 C 0.6016 0.23264 -0.00016 0.0
H2977 H 0.58383 0.25504 0.93455 0.0
H2978 H 0.59373 0.2563 0.95896 0.0
H2979 H 0.62036 0.22133 0.97742 0.0
H2980 H 0.60033 0.20991 0.04507 0.0
H2981 H 0.60682 0.21028 0.01915 0.0
C2982 C 0.75127 0.58744 0.04345 0.0
C2983 C 0.75821 0.5994 0.05039 0.0
C2984 C 0.74606 0.58871 0.02918 0.0
C2985 C 0.75592 0.61137 -0.00234 0.0
H2986 H 0.72635 0.5894 0.98379 0.0
C2987 C 0.75725 0.61428 0.94378 0.0
C2988 C 0.75558 0.60075 0.93697 0.0
C2989 C 0.75203 0.61616 0.95775 0.0
C2990 C 0.73474 0.59583 0.98935 0.0
H2991 H 0.76342 0.62238 0.04898 0.0
H2992 H 0.75425 0.62477 0.02421 0.0
H2993 H 0.72761 0.58757 0.00355 0.0
H2994 H 0.74475 0.57957 0.93792 0.0
H2995 H 0.73647 0.58237 0.96262 0.0
H2996 H 0.76376 0.61902 0.98397 0.0
C2997 C 0.75332 0.61423 0.02939 0.0
C2998 C 0.73534 0.59449 -0.00215 0.0
C2999 C 0.75851 0.61295 0.04359 0.0
C3000 C 0.74711 0.58973 0.94352 0.0
C3001 C 0.74203 0.59152 0.95755 0.0
C3002 C 0.75537 0.61267 0.98937 0.0
C3003 C 0.74785 0.60195 0.02167 0.0
C3004 C 0.74604 0.60272 0.00557 0.0
C3005 C 0.74543 0.60438 0.9653 0.0
C3006 C 0.74468 0.60466 0.9815 0.0
H3007 H 0.75034 0.57701 0.04888 0.0
H3008 H 0.7416 0.57909 0.02377 0.0
H3009 H 0.76478 0.61733 0.00303 0.0
H3010 H 0.76298 0.62324 0.9385 0.0
H3011 H 0.75395 0.62661 0.96291 0.0
C3012 C 0.37886 0.7644 0.94273 0.0
C3013 C 0.38507 0.75246 0.93613 0.0
C3014 C 0.37512 0.76358 0.95744 0.0
C3015 C 0.38883 0.74414 0.98892 0.0
H3016 H 0.35853 0.76137 0.00412 0.0
C3017 C 0.39148 0.73929 0.04253 0.0
C3018 C 0.39078 0.75241 0.05012 0.0
C3019 C 0.38609 0.73809 0.02846 0.0
C3020 C 0.36696 0.75633 -0.00193 0.0
H3021 H 0.39028 0.72981 0.9387 0.0
H3022 H 0.38352 0.72829 0.96384 0.0
H3023 H 0.3575 0.76212 0.98411 0.0
H3024 H 0.38264 0.77414 0.04969 0.0
H3025 H 0.37409 0.77247 0.02422 0.0
H3026 H 0.39863 0.73871 0.00239 0.0
C3027 C 0.38212 0.73847 0.95816 0.0
C3028 C 0.36648 0.75705 0.98956 0.0
C3029 C 0.38608 0.73937 0.94378 0.0
C3030 C 0.38373 0.76411 0.04376 0.0
C3031 C 0.37863 0.76303 0.02935 0.0
C3032 C 0.38929 0.74341 -0.0028 0.0
C3033 C 0.37743 0.75077 0.96543 0.0
C3034 C 0.37732 0.75058 0.98151 0.0
C3035 C 0.38035 0.75016 0.0214 0.0
C3036 C 0.37853 0.74979 0.00538 0.0
H3037 H 0.37761 0.77445 0.93681 0.0
H3038 H 0.37133 0.77318 0.96275 0.0
H3039 H 0.39764 0.73948 0.98311 0.0
H3040 H 0.39626 0.72987 0.04748 0.0
H3041 H 0.38708 0.72786 0.02285 0.0
C3042 C 0.23166 0.39429 0.03926 0.0
C3043 C 0.22447 0.38251 0.04602 0.0
C3044 C 0.23648 0.39301 0.02505 0.0
C3045 C 0.2244 0.37119 -0.0066 0.0
H3046 H 0.25177 0.39665 0.97912 0.0
C3047 C 0.22131 0.37051 0.93918 0.0
C3048 C 0.22152 0.38403 0.93235 0.0
C3049 C 0.22657 0.36929 0.95336 0.0
C3050 C 0.24415 0.38963 0.98483 0.0
H3051 H 0.21878 0.3596 0.04449 0.0
H3052 H 0.22731 0.35718 0.01976 0.0
H3053 H 0.25268 0.39537 -0.00107 0.0
H3054 H 0.22925 0.40647 0.93374 0.0
H3055 H 0.23803 0.40454 0.95882 0.0
H3056 H 0.21536 0.36592 0.97974 0.0
C3057 C 0.22859 0.36766 0.025 0.0
C3058 C 0.24457 0.38861 -0.00665 0.0
C3059 C 0.22372 0.36898 0.03917 0.0
C3060 C 0.22839 0.39606 0.93922 0.0
C3061 C 0.23364 0.39487 0.95347 0.0
C3062 C 0.224 0.3722 0.98509 0.0
C3063 C 0.23406 0.37993 0.01738 0.0
C3064 C 0.2348 0.37963 0.00121 0.0
C3065 C 0.23196 0.38164 0.96102 0.0
C3066 C 0.23374 0.381 0.97714 0.0
H3067 H 0.2331 0.40462 0.04479 0.0
H3068 H 0.24103 0.4026 0.01981 0.0
H3069 H 0.21618 0.36468 -0.00113 0.0
H3070 H 0.21648 0.36102 0.93381 0.0
H3071 H 0.22574 0.35876 0.95856 0.0
C3072 C 0.03755 0.59198 0.74605 0.0
C3073 C 0.04446 0.59966 0.75739 0.0
C3074 C 0.02318 0.59463 0.74245 0.0
C3075 C -0.00877 0.61295 0.75953 0.0
H3076 H 0.97781 0.59015 0.73006 0.0
C3077 C 0.93741 0.59683 0.76341 0.0
C3078 C 0.93028 0.59194 0.75077 0.0
C3079 C 0.95194 0.60161 0.7628 0.0
C3080 C 0.98316 0.59704 0.73814 0.0
H3081 H 0.04325 0.61759 0.77223 0.0
H3082 H 0.01867 0.62296 0.76566 0.0
H3083 H -0.00346 0.59256 0.72931 0.0
H3084 H 0.93149 0.59024 0.72739 0.0
H3085 H 0.95617 0.59946 0.7261 0.0
H3086 H 0.97743 0.61825 0.76757 0.0
C3087 C 0.02338 0.61394 0.76025 0.0
C3088 C -0.00865 0.59811 0.73798 0.0
C3089 C 0.03763 0.61105 0.764 0.0
C3090 C 0.93715 0.59323 0.7374 0.0
C3091 C 0.95133 0.5985 0.73669 0.0
C3092 C 0.983 0.61242 0.75927 0.0
C3093 C 0.01547 0.60508 0.75017 0.0
C3094 C -0.00076 0.60576 0.74892 0.0
C3095 C 0.95926 0.6019 0.74944 0.0
C3096 C 0.97529 0.60415 0.7488 0.0
H3097 H 0.04315 0.58368 0.74025 0.0
H3098 H 0.01822 0.58782 0.73414 0.0
H3099 H -0.00366 0.61871 0.76852 0.0
H3100 H 0.93197 0.59646 0.77373 0.0
H3101 H 0.95751 0.60436 0.77288 0.0
C3102 C 0.39031 0.94025 0.76708 0.0
C3103 C 0.38688 0.93249 0.75441 0.0
C3104 C 0.38723 0.95502 0.76789 0.0
C3105 C 0.3721 0.98638 0.74591 0.0
H3106 H 0.39802 0.0005 0.77061 0.0
C3107 C 0.37831 0.0419 0.74279 0.0
C3108 C 0.38614 0.04906 0.75391 0.0
C3109 C 0.37557 0.02694 0.74347 0.0
C3110 C 0.38991 -0.00512 0.76392 0.0
H3111 H 0.37672 0.93334 0.73317 0.0
H3112 H 0.37235 0.959 0.73399 0.0
H3113 H 0.3993 0.98194 0.7707 0.0
H3114 H 0.39549 0.04704 0.7754 0.0
H3115 H 0.38918 0.02121 0.77757 0.0
H3116 H 0.36307 -0.00051 0.73875 0.0
C3117 C 0.37693 0.95408 0.74359 0.0
C3118 C 0.39126 0.98706 0.76397 0.0
C3119 C 0.37946 0.93926 0.74306 0.0
C3120 C 0.3896 0.04158 0.76661 0.0
C3121 C 0.38628 0.02667 0.7676 0.0
C3122 C 0.37074 -0.00569 0.74587 0.0
C3123 C 0.38147 0.96244 0.75573 0.0
C3124 C 0.38139 0.97879 0.7553 0.0
C3125 C 0.38027 0.01887 0.75557 0.0
C3126 C 0.38009 0.00252 0.75522 0.0
H3127 H 0.39594 0.93514 0.77601 0.0
H3128 H 0.39005 0.9607 0.77785 0.0
H3129 H 0.3644 0.98069 0.73882 0.0
H3130 H 0.3755 0.04764 0.73291 0.0
H3131 H 0.37076 0.02175 0.73398 0.0
C3132 C 0.03117 0.37071 0.75276 0.0
C3133 C 0.03878 0.38317 0.75765 0.0
C3134 C 0.01653 0.37141 0.74887 0.0
C3135 C 0.99258 0.39642 0.75443 0.0
H3136 H 0.97148 0.36207 0.74096 0.0
C3137 C 0.93175 0.39334 0.76183 0.0
C3138 C 0.92376 0.38308 0.75361 0.0
C3139 C 0.94661 0.39186 0.7638 0.0
C3140 C 0.97695 0.37174 0.74512 0.0
H3141 H 0.03798 0.40636 0.76076 0.0
H3142 H 0.01324 0.40803 0.75279 0.0
H3143 H -0.01023 0.36485 0.73613 0.0
H3144 H 0.92395 0.36191 0.74364 0.0
H3145 H 0.9496 0.35935 0.74663 0.0
H3146 H 0.97305 0.40423 0.76198 0.0
C3147 C 0.01765 0.39734 0.75318 0.0
C3148 C 0.99174 0.37331 0.74228 0.0
C3149 C 0.03196 0.39645 0.75783 0.0
C3150 C 0.93016 0.37022 0.74957 0.0
C3151 C 0.9451 0.369 0.75103 0.0
C3152 C 0.9778 0.39507 0.75687 0.0
C3153 C 0.00937 0.38474 0.7493 0.0
C3154 C -0.00681 0.38514 0.74795 0.0
C3155 C 0.95382 0.38071 0.75656 0.0
C3156 C 0.96975 0.38227 0.75321 0.0
H3157 H 0.03654 0.36048 0.75192 0.0
H3158 H 0.01093 0.36133 0.74596 0.0
H3159 H -0.00884 0.4061 0.75862 0.0
H3160 H 0.92677 0.40308 0.76564 0.0
H3161 H 0.9523 0.40027 0.76996 0.0
C3162 C 0.58944 0.94462 0.74697 0.0
C3163 C 0.59962 0.93885 0.75662 0.0
C3164 C 0.59127 0.95888 0.74205 0.0
C3165 C 0.60585 0.99104 0.75921 0.0
H3166 H 0.5952 0.0048 0.724 0.0
C3167 C 0.61183 0.04355 0.76096 0.0
C3168 C 0.5992 0.05081 0.75771 0.0
C3169 C 0.61335 0.02949 0.7559 0.0
C3170 C 0.59785 -0.00103 0.73385 0.0
H3171 H 0.62061 0.94204 0.76701 0.0
H3172 H 0.62378 0.96714 0.75871 0.0
H3173 H 0.59649 0.98528 0.7237 0.0
H3174 H 0.57929 0.05051 0.74495 0.0
H3175 H 0.58178 0.02555 0.7363 0.0
H3176 H 0.60671 0.00421 0.76961 0.0
C3177 C 0.61424 0.96088 0.75517 0.0
C3178 C 0.59919 0.99102 0.73367 0.0
C3179 C 0.6124 0.94667 0.76005 0.0
C3180 C 0.58883 0.04465 0.74804 0.0
C3181 C 0.59038 0.03056 0.74289 0.0
C3182 C 0.60451 -0.00128 0.75938 0.0
C3183 C 0.60325 0.96739 0.74693 0.0
C3184 C 0.60295 0.98336 0.74633 0.0
C3185 C 0.60221 0.02255 0.7476 0.0
C3186 C 0.60167 0.00655 0.74667 0.0
H3187 H 0.57988 0.93826 0.74361 0.0
H3188 H 0.58281 0.96355 0.73546 0.0
H3189 H 0.60799 0.98542 0.76932 0.0
H3190 H 0.62009 0.0484 0.76808 0.0
H3191 H 0.62277 0.02363 0.75936 0.0
C3192 C 0.94323 0.39305 0.21837 0.0
C3193 C 0.93528 0.38098 0.22354 0.0
C3194 C 0.95798 0.39475 0.22149 0.0
C3195 C 0.98918 0.37469 0.23952 0.0
H3196 H 0.00406 0.4028 0.21695 0.0
C3197 C 0.04446 0.37267 0.23747 0.0
C3198 C 0.05182 0.38416 0.23059 0.0
C3199 C 0.02948 0.37099 0.23586 0.0
C3200 C -0.00161 0.39432 0.22287 0.0
H3201 H 0.93639 0.36086 0.23542 0.0
H3202 H 0.96217 0.36263 0.23944 0.0
H3203 H 0.98572 0.40439 0.2179 0.0
H3204 H 0.05041 0.40084 0.21422 0.0
H3205 H 0.02468 0.39696 0.20996 0.0
H3206 H 0.00189 0.3645 0.24431 0.0
C3207 C 0.95732 0.37154 0.23381 0.0
C3208 C 0.9903 0.39548 0.22376 0.0
C3209 C 0.94241 0.37018 0.23117 0.0
C3210 C 0.04467 0.39226 0.22008 0.0
C3211 C 0.02974 0.39027 0.21806 0.0
C3212 C -0.00277 0.37321 0.23822 0.0
C3213 C 0.96549 0.38399 0.22923 0.0
C3214 C 0.98175 0.38503 0.23125 0.0
C3215 C 0.02163 0.38089 0.22733 0.0
C3216 C 0.00555 0.38253 0.22917 0.0
H3217 H 0.93786 0.40178 0.21279 0.0
H3218 H 0.96315 0.40474 0.21788 0.0
H3219 H 0.98363 0.36723 0.24674 0.0
H3220 H 0.05003 0.36598 0.24532 0.0
H3221 H 0.0243 0.36264 0.24234 0.0
C3222 C 0.59612 0.04389 0.21786 0.0
C3223 C 0.58967 0.05008 0.22993 0.0
C3224 C 0.60057 0.02947 0.21859 0.0
C3225 C 0.58891 -0.00297 0.23837 0.0
H3226 H 0.62157 0.98493 0.2197 0.0
C3227 C 0.59199 0.94436 0.24401 0.0
C3228 C 0.59266 0.93651 0.23106 0.0
C3229 C 0.59642 0.95883 0.24451 0.0
C3230 C 0.61281 0.99027 0.22493 0.0
H3231 H 0.58456 0.0471 0.25266 0.0
H3232 H 0.5926 0.02249 0.25403 0.0
H3233 H 0.61977 0.00439 0.21957 0.0
H3234 H 0.59996 0.93692 0.20887 0.0
H3235 H 0.607 0.96305 0.20942 0.0
H3236 H 0.58158 0.98338 0.24339 0.0
C3237 C 0.59363 0.02824 0.24382 0.0
C3238 C 0.61118 -0.00179 0.22487 0.0
C3239 C 0.58889 0.0423 0.24299 0.0
C3240 C 0.59896 0.94302 0.21882 0.0
C3241 C 0.60314 0.95783 0.21923 0.0
C3242 C 0.59053 0.98933 0.23843 0.0
C3243 C 0.59877 0.02136 0.23146 0.0
C3244 C 0.59991 0.00536 0.23167 0.0
C3245 C 0.60121 0.96598 0.23194 0.0
C3246 C 0.60178 0.98207 0.23181 0.0
H3247 H 0.59724 0.04996 0.20785 0.0
H3248 H 0.60465 0.02446 0.20893 0.0
H3249 H 0.5798 0.00211 0.24329 0.0
H3250 H 0.58773 0.93934 0.25377 0.0
H3251 H 0.59531 0.96467 0.25461 0.0
C3252 C 0.04891 0.60629 0.24319 0.0
C3253 C 0.05597 0.59752 0.23337 0.0
C3254 C 0.03431 0.60897 0.24128 0.0
C3255 C 0.00269 0.59017 0.22347 0.0
H3256 H 0.98842 0.62077 0.24142 0.0
C3257 C 0.94905 0.59639 0.21232 0.0
C3258 C 0.94028 0.60049 0.22379 0.0
C3259 C 0.96409 0.59647 0.2142 0.0
C3260 C -0.01272 0.61204 0.23651 0.0
H3261 H 0.0544 0.58669 0.21258 0.0
H3262 H 0.02879 0.59203 0.20866 0.0
H3263 H 0.00777 0.62246 0.24124 0.0
H3264 H 0.94042 0.60903 0.24576 0.0
H3265 H 0.96646 0.60884 0.24907 0.0
H3266 H 0.98896 0.57994 0.21854 0.0
C3267 C 0.03425 0.59604 0.21841 0.0
C3268 C 0.00241 0.61302 0.23635 0.0
C3269 C 0.04891 0.5931 0.2205 0.0
C3270 C 0.94687 0.60564 0.23674 0.0
C3271 C 0.96183 0.60551 0.23868 0.0
C3272 C -0.0124 0.5893 0.22348 0.0
C3273 C 0.0265 0.60298 0.22938 0.0
C3274 C 0.01034 0.60229 0.22944 0.0
C3275 C 0.97061 0.60065 0.22754 0.0
C3276 C 0.98658 0.60048 0.22952 0.0
H3277 H 0.05444 0.61015 0.25298 0.0
H3278 H 0.029 0.61461 0.24987 0.0
H3279 H 0.00833 0.58125 0.21878 0.0
H3280 H 0.9443 0.5925 0.20217 0.0
H3281 H 0.9706 0.5931 0.20523 0.0
C3282 C 0.37188 0.04044 0.23688 0.0
C3283 C 0.37674 0.04607 0.22356 0.0
C3284 C 0.37411 0.02616 0.24059 0.0
C3285 C 0.39389 -0.00608 0.23014 0.0
H3286 H 0.36088 0.98047 0.24378 0.0
C3287 C 0.38134 0.94465 0.21127 0.0
C3288 C 0.37576 0.93433 0.22105 0.0
C3289 C 0.38311 0.9591 0.21552 0.0
C3290 C 0.37073 0.98609 0.24036 0.0
H3291 H 0.38671 0.04086 0.20315 0.0
H3292 H 0.38923 0.01515 0.2091 0.0
H3293 H 0.36051 -0.00054 0.24406 0.0
H3294 H 0.3663 0.93123 0.24239 0.0
H3295 H 0.36963 0.95636 0.24973 0.0
H3296 H 0.40373 0.98043 0.22572 0.0
C3297 C 0.38461 0.02223 0.21704 0.0
C3298 C 0.36993 -0.00613 0.2405 0.0
C3299 C 0.3828 0.03679 0.21345 0.0
C3300 C 0.37079 0.93891 0.23461 0.0
C3301 C 0.37279 0.95328 0.23893 0.0
C3302 C 0.39469 0.98613 0.23003 0.0
C3303 C 0.38056 0.01694 0.23079 0.0
C3304 C 0.38177 0.00149 0.23439 0.0
C3305 C 0.37944 0.96337 0.2296 0.0
C3306 C 0.38194 0.97855 0.23407 0.0
H3307 H 0.36713 0.0473 0.24493 0.0
H3308 H 0.37091 0.02238 0.25124 0.0
H3309 H 0.40338 -0.00036 0.22595 0.0
H3310 H 0.38513 0.94146 0.20073 0.0
H3311 H 0.38768 0.96689 0.20789 0.0
C3312 C 0.75164 0.03682 0.60924 0.0
C3313 C 0.75822 0.04398 0.59754 0.0
C3314 C 0.74758 0.02211 0.60813 0.0
C3315 C 0.75889 -0.00899 0.58644 0.0
H3316 H 0.73728 0.97689 0.61431 0.0
C3317 C 0.76457 0.93689 0.58999 0.0
C3318 C 0.75523 0.92923 0.59916 0.0
C3319 C 0.76617 0.95191 0.59119 0.0
C3320 C 0.74418 0.98259 0.6067 0.0
H3321 H 0.76405 0.0423 0.575 0.0
H3322 H 0.75597 0.01718 0.57255 0.0
H3323 H 0.73213 -0.00488 0.61083 0.0
H3324 H 0.74252 0.93037 0.61857 0.0
H3325 H 0.74569 0.95647 0.6212 0.0
H3326 H 0.77124 0.9794 0.58225 0.0
C3327 C 0.75504 0.02227 0.58305 0.0
C3328 C 0.74038 -0.00992 0.60455 0.0
C3329 C 0.75983 0.03665 0.58444 0.0
C3330 C 0.74951 0.93627 0.61111 0.0
C3331 C 0.75101 0.95139 0.61229 0.0
C3332 C 0.7628 0.98374 0.58867 0.0
C3333 C 0.74964 0.01449 0.5951 0.0
C3334 C 0.74893 -0.0017 0.59485 0.0
C3335 C 0.75797 0.95961 0.6013 0.0
C3336 C 0.75522 0.97555 0.5992 0.0
H3337 H 0.74966 0.0426 0.6192 0.0
H3338 H 0.74338 0.01668 0.61766 0.0
H3339 H 0.76583 -0.00331 0.57882 0.0
H3340 H 0.76941 0.93148 0.58093 0.0
H3341 H 0.77277 0.95714 0.58308 0.0
C3342 C 0.75385 0.03742 0.36857 0.0
C3343 C 0.75275 0.04345 0.38241 0.0
C3344 C 0.74821 0.02344 0.3659 0.0
C3345 C 0.73316 -0.00942 0.38565 0.0
H3346 H 0.76894 0.9813 0.36976 0.0
C3347 C 0.7451 0.94002 0.39839 0.0
C3348 C 0.74614 0.9318 0.38572 0.0
C3349 C 0.74843 0.95484 0.39813 0.0
C3350 C 0.75928 0.98575 0.37423 0.0
H3351 H 0.74217 0.04149 0.40315 0.0
H3352 H 0.73307 0.01684 0.39894 0.0
H3353 H 0.76275 -0.00078 0.36526 0.0
H3354 H 0.75371 0.93157 0.36366 0.0
H3355 H 0.75919 0.95771 0.36295 0.0
H3356 H 0.72999 0.97703 0.39492 0.0
C3357 C 0.73851 0.02246 0.39015 0.0
C3358 C 0.7549 -0.00711 0.37142 0.0
C3359 C 0.74411 0.03642 0.39279 0.0
C3360 C 0.7526 0.93793 0.37343 0.0
C3361 C 0.75577 0.95286 0.3731 0.0
C3362 C 0.7376 0.98343 0.38853 0.0
C3363 C 0.74184 0.0153 0.37722 0.0
C3364 C 0.74268 -0.00074 0.37733 0.0
C3365 C 0.75243 0.96158 0.38506 0.0
C3366 C 0.75009 0.97726 0.38298 0.0
H3367 H 0.7597 0.04319 0.36011 0.0
H3368 H 0.75012 0.01852 0.35547 0.0
H3369 H 0.72356 -0.00498 0.39025 0.0
H3370 H 0.74049 0.93523 0.4081 0.0
H3371 H 0.74641 0.96122 0.40771 0.0
C3372 C 0.93143 0.76246 0.38912 0.0
C3373 C 0.92436 0.7489 0.38816 0.0
C3374 C 0.94586 0.76395 0.38498 0.0
C3375 C 0.97692 0.7386 0.3798 0.0
H3376 H -0.00812 0.77505 0.38133 0.0
C3377 C 0.03289 0.74309 0.38509 0.0
C3378 C 0.03942 0.75617 0.38037 0.0
C3379 C 0.01787 0.74103 0.38407 0.0
C3380 C 0.99289 0.76471 0.38039 0.0
H3381 H 0.92521 0.72702 0.37981 0.0
H3382 H 0.94972 0.72979 0.37147 0.0
H3383 H 0.97303 0.77533 0.37991 0.0
H3384 H 0.0364 0.77629 0.36891 0.0
H3385 H 0.01038 0.77242 0.36605 0.0
H3386 H -0.00971 0.72816 0.37903 0.0
C3387 C 0.9451 0.739 0.37669 0.0
C3388 C 0.97786 0.76484 0.37996 0.0
C3389 C 0.9309 0.73743 0.38121 0.0
C3390 C 0.03132 0.76636 0.373 0.0
C3391 C 0.01641 0.76418 0.37163 0.0
C3392 C 0.99202 0.73852 0.37945 0.0
C3393 C 0.9533 0.75181 0.37986 0.0
C3394 C 0.9695 0.75179 0.37947 0.0
C3395 C 0.00937 0.75203 0.37809 0.0
C3396 C -0.00667 0.75163 0.37935 0.0
H3397 H 0.92616 0.77157 0.39393 0.0
H3398 H 0.95123 0.77436 0.38699 0.0
H3399 H 0.97127 0.72817 0.38044 0.0
H3400 H 0.03927 0.73492 0.39041 0.0
H3401 H 0.01299 0.73135 0.38883 0.0
C3402 C 0.24096 0.04581 0.38755 0.0
C3403 C 0.22793 0.05278 0.38945 0.0
C3404 C 0.24102 0.03151 0.38277 0.0
C3405 C 0.21491 -0.001 0.37634 0.0
H3406 H 0.25155 0.98561 0.38298 0.0
C3407 C 0.2123 0.94486 0.37813 0.0
C3408 C 0.22153 0.93763 0.38748 0.0
C3409 C 0.21521 0.95935 0.37474 0.0
C3410 C 0.24153 0.99115 0.38128 0.0
H3411 H 0.20479 0.05121 0.38611 0.0
H3412 H 0.20444 0.02618 0.37852 0.0
H3413 H 0.25109 0.00423 0.38305 0.0
H3414 H 0.24164 0.93892 0.39984 0.0
H3415 H 0.24623 0.96476 0.39501 0.0
H3416 H 0.20515 0.98593 0.37641 0.0
C3417 C 0.2149 0.03118 0.38089 0.0
C3418 C 0.24063 -0.00094 0.38102 0.0
C3419 C 0.21493 0.04572 0.38535 0.0
C3420 C 0.23413 0.94469 0.39297 0.0
C3421 C 0.23685 0.95941 0.38995 0.0
C3422 C 0.21574 0.99123 0.37722 0.0
C3423 C 0.22796 0.02345 0.38033 0.0
C3424 C 0.22794 0.00707 0.37872 0.0
C3425 C 0.22708 0.96713 0.38118 0.0
C3426 C 0.22828 0.98331 0.37965 0.0
H3427 H 0.25122 0.05143 0.3899 0.0
H3428 H 0.25149 0.02694 0.3815 0.0
H3429 H 0.20475 0.00403 0.37421 0.0
H3430 H 0.20284 0.93928 0.37343 0.0
H3431 H 0.2079 0.96444 0.36718 0.0
C3432 C 0.04287 0.2402 0.37141 0.0
C3433 C 0.04987 0.23057 0.38071 0.0
C3434 C 0.02791 0.23898 0.36934 0.0
C3435 C -0.00209 0.22459 0.39184 0.0
H3436 H 0.98049 0.24327 0.36325 0.0
C3437 C 0.9438 0.21707 0.39318 0.0
C3438 C 0.93484 0.2281 0.38846 0.0
C3439 C 0.95872 0.21863 0.3918 0.0
C3440 C 0.98718 0.23821 0.37143 0.0
H3441 H 0.04768 0.21061 0.39293 0.0
H3442 H 0.02165 0.20753 0.38817 0.0
H3443 H -0.00072 0.24076 0.35855 0.0
H3444 H 0.93431 0.24979 0.37932 0.0
H3445 H 0.96066 0.25272 0.37723 0.0
H3446 H 0.9859 0.22206 0.40469 0.0
C3447 C 0.0274 0.21676 0.38342 0.0
C3448 C -0.00495 0.23665 0.3687 0.0
C3449 C 0.04232 0.21831 0.38596 0.0
C3450 C 0.94105 0.24099 0.38274 0.0
C3451 C 0.9561 0.24267 0.38157 0.0
C3452 C 0.99015 0.22611 0.39452 0.0
C3453 C 0.01983 0.22792 0.3764 0.0
C3454 C 0.00399 0.2294 0.3787 0.0
C3455 C 0.9651 0.23142 0.38601 0.0
C3456 C 0.98104 0.23242 0.38414 0.0
H3457 H 0.04869 0.24964 0.3671 0.0
H3458 H 0.02268 0.24763 0.36355 0.0
H3459 H 0.00444 0.21975 0.40027 0.0
H3460 H 0.93925 0.20705 0.39765 0.0
H3461 H 0.96524 0.20959 0.395 0.0
C3462 C 0.23144 0.04329 0.58395 0.0
C3463 C 0.23189 0.0516 0.59666 0.0
C3464 C 0.22902 0.02831 0.58471 0.0
C3465 C 0.22174 -0.00274 0.60972 0.0
H3466 H 0.25319 0.9871 0.58732 0.0
C3467 C 0.22709 0.94451 0.6133 0.0
C3468 C 0.22626 0.93826 0.59951 0.0
C3469 C 0.23236 0.95878 0.61493 0.0
C3470 C 0.24477 0.99178 0.59367 0.0
H3471 H 0.22776 0.05164 0.61966 0.0
H3472 H 0.22363 0.02535 0.62116 0.0
H3473 H 0.24746 0.00557 0.58466 0.0
H3474 H 0.23269 0.94053 0.5771 0.0
H3475 H 0.24132 0.96563 0.5797 0.0
H3476 H 0.21875 0.98359 0.61851 0.0
C3477 C 0.22532 0.03021 0.6106 0.0
C3478 C 0.24075 -0.00076 0.59202 0.0
C3479 C 0.22763 0.04527 0.60979 0.0
C3480 C 0.23249 0.94559 0.5877 0.0
C3481 C 0.23775 0.95987 0.58931 0.0
C3482 C 0.22573 0.98984 0.61135 0.0
C3483 C 0.22726 0.02152 0.59826 0.0
C3484 C 0.22969 0.00574 0.59981 0.0
C3485 C 0.23657 0.96701 0.6027 0.0
C3486 C 0.23633 0.98314 0.60311 0.0
H3487 H 0.23443 0.04816 0.57366 0.0
H3488 H 0.22987 0.02196 0.5749 0.0
H3489 H 0.2132 0.0019 0.61592 0.0
H3490 H 0.22288 0.93869 0.62264 0.0
H3491 H 0.23202 0.96373 0.62556 0.0
C3492 C 0.94643 0.23776 0.59437 0.0
C3493 C 0.93989 0.22532 0.60045 0.0
C3494 C 0.96116 0.24078 0.59666 0.0
C3495 C -0.01327 0.21951 0.60732 0.0
H3496 H 0.00681 0.25491 0.59555 0.0
C3497 C 0.048 0.22113 0.5948 0.0
C3498 C 0.05505 0.23476 0.59407 0.0
C3499 C 0.0333 0.22017 0.59828 0.0
C3500 C 0.00158 0.24499 0.5994 0.0
H3501 H 0.94232 0.20785 0.61584 0.0
H3502 H 0.96788 0.21343 0.62064 0.0
H3503 H 0.98803 0.2549 0.59862 0.0
H3504 H 0.05347 0.25773 0.59817 0.0
H3505 H 0.02853 0.2561 0.60539 0.0
H3506 H 0.00726 0.20995 0.60934 0.0
C3507 C 0.96221 0.22021 0.61301 0.0
C3508 C -0.01343 0.24488 0.60077 0.0
C3509 C 0.94753 0.21704 0.61044 0.0
C3510 C 0.04791 0.24716 0.59819 0.0
C3511 C 0.03351 0.2462 0.60212 0.0
C3512 C 0.0018 0.21982 0.60669 0.0
C3513 C 0.96952 0.23139 0.60522 0.0
C3514 C 0.98571 0.23211 0.60477 0.0
C3515 C 0.02565 0.23286 0.60133 0.0
C3516 C 0.00953 0.23255 0.60269 0.0
H3517 H 0.94028 0.24475 0.58729 0.0
H3518 H 0.96597 0.24985 0.59081 0.0
H3519 H 0.98826 0.20916 0.60964 0.0
H3520 H 0.0536 0.2114 0.59202 0.0
H3521 H 0.02791 0.20958 0.59777 0.0
C3522 C 0.03801 0.7417 0.59847 0.0
C3523 C 0.04457 0.75462 0.59325 0.0
C3524 C 0.023 0.74073 0.60039 0.0
C3525 C -0.0102 0.75966 0.58924 0.0
H3526 H 0.97936 0.74178 0.62313 0.0
C3527 C 0.93695 0.76379 0.59407 0.0
C3528 C 0.9302 0.7502 0.59652 0.0
C3529 C 0.95141 0.76621 0.59846 0.0
C3530 C 0.98402 0.74689 0.61363 0.0
H3531 H 0.04107 0.77662 0.58623 0.0
H3532 H 0.01522 0.77533 0.59026 0.0
H3533 H -0.00155 0.73979 0.61915 0.0
H3534 H 0.93186 0.72967 0.60777 0.0
H3535 H 0.95704 0.73347 0.61468 0.0
H3536 H 0.97572 0.76648 0.58334 0.0
C3537 C 0.02132 0.7657 0.59232 0.0
C3538 C -0.00798 0.74561 0.61128 0.0
C3539 C 0.03614 0.76652 0.59009 0.0
C3540 C 0.93722 0.73997 0.60514 0.0
C3541 C 0.95163 0.74229 0.60935 0.0
C3542 C 0.98197 0.76097 0.59157 0.0
C3543 C 0.01449 0.75278 0.59731 0.0
C3544 C -0.00145 0.75231 0.5992 0.0
C3545 C 0.95929 0.7549 0.60488 0.0
C3546 C 0.97538 0.75478 0.60384 0.0
H3547 H 0.04444 0.73235 0.60086 0.0
H3548 H 0.01807 0.7306 0.60413 0.0
H3549 H -0.00566 0.76449 0.57952 0.0
H3550 H 0.93142 0.77208 0.588 0.0
H3551 H 0.95677 0.77646 0.59566 0.0
loop_
_geom_bond_atom_site_label_1
_geom_bond_atom_site_label_2
_geom_bond_distance
_geom_bond_site_symmetry_2
_ccdc_geom_bond_type
Zn0 O3 2.031 . S
Zn0 O5 2.049 . S
Zn0 O10 2.067 . S
Zn1 O2 1.962 . S
Zn1 O4 1.986 . S
Zn1 O6 1.996 . S
Zn1 O9 1.943 . S
O2 Zn1 1.962 . S
O2 C7 1.254 . S
O3 Zn0 2.031 . S
O3 C7 1.269 . S
O4 Zn1 1.986 . S
O4 C11 1.262 . S
O5 Zn0 2.049 . S
O5 C13 1.260 . S
O6 Zn1 1.996 . S
O6 C13 1.257 . S
C7 O2 1.254 . S
C7 O3 1.269 . S
C8 O9 1.249 . S
C8 O10 1.270 . S
O9 Zn1 1.943 . S
O9 C8 1.249 . S
O10 Zn0 2.067 . S
O10 C8 1.270 . S
C11 O4 1.262 . S
C11 O12 1.232 . S
O12 C11 1.232 . S
C13 O5 1.260 . S
C13 O6 1.257 . S
Zn14 O17 2.031 . S
Zn14 O19 2.049 . S
Zn14 O24 2.067 . S
Zn15 O16 1.962 . S
Zn15 O18 1.986 . S
Zn15 O20 1.996 . S
Zn15 O23 1.943 . S
O16 Zn15 1.962 . S
O16 C21 1.254 . S
O17 Zn14 2.031 . S
O17 C21 1.269 . S
O18 Zn15 1.986 . S
O18 C25 1.262 . S
O19 Zn14 2.049 . S
O19 C27 1.260 . S
O20 Zn15 1.996 . S
O20 C27 1.257 . S
C21 O16 1.254 . S
C21 O17 1.269 . S
C22 O23 1.249 . S
C22 O24 1.270 . S
O23 Zn15 1.943 . S
O23 C22 1.249 . S
O24 Zn14 2.067 . S
O24 C22 1.270 . S
C25 O18 1.262 . S
C25 O26 1.232 . S
O26 C25 1.232 . S
C27 O19 1.260 . S
C27 O20 1.257 . S
Zn28 O31 2.031 . S
Zn28 O33 2.049 . S
Zn28 O38 2.067 . S
Zn29 O30 1.962 . S
Zn29 O32 1.986 . S
Zn29 O34 1.996 . S
Zn29 O37 1.943 . S
O30 Zn29 1.962 . S
O30 C35 1.254 . S
O31 Zn28 2.031 . S
O31 C35 1.269 . S
O32 Zn29 1.986 . S
O32 C39 1.262 . S
O33 Zn28 2.049 . S
O33 C41 1.260 . S
O34 Zn29 1.996 . S
O34 C41 1.257 . S
C35 O30 1.254 . S
C35 O31 1.269 . S
C36 O37 1.249 . S
C36 O38 1.270 . S
O37 Zn29 1.943 . S
O37 C36 1.249 . S
O38 Zn28 2.067 . S
O38 C36 1.270 . S
C39 O32 1.262 . S
C39 O40 1.232 . S
O40 C39 1.232 . S
C41 O33 1.260 . S
C41 O34 1.257 . S
Zn42 O45 2.031 . S
Zn42 O47 2.049 . S
Zn42 O52 2.067 . S
Zn43 O44 1.962 . S
Zn43 O46 1.986 . S
Zn43 O48 1.996 . S
Zn43 O51 1.943 . S
O44 Zn43 1.962 . S
O44 C49 1.254 . S
O45 Zn42 2.031 . S
O45 C49 1.269 . S
O46 Zn43 1.986 . S
O46 C53 1.262 . S
O47 Zn42 2.049 . S
O47 C55 1.260 . S
O48 Zn43 1.996 . S
O48 C55 1.257 . S
C49 O44 1.254 . S
C49 O45 1.269 . S
C50 O51 1.249 . S
C50 O52 1.270 . S
O51 Zn43 1.943 . S
O51 C50 1.249 . S
O52 Zn42 2.067 . S
O52 C50 1.270 . S
C53 O46 1.262 . S
C53 O54 1.232 . S
O54 C53 1.232 . S
C55 O47 1.260 . S
C55 O48 1.257 . S
Zn56 O59 2.031 . S
Zn56 O61 2.049 . S
Zn56 O66 2.067 . S
Zn57 O58 1.962 . S
Zn57 O60 1.986 . S
Zn57 O62 1.996 . S
Zn57 O65 1.943 . S
O58 Zn57 1.962 . S
O58 C63 1.254 . S
O59 Zn56 2.031 . S
O59 C63 1.269 . S
O60 Zn57 1.986 . S
O60 C67 1.262 . S
O61 Zn56 2.049 . S
O61 C69 1.260 . S
O62 Zn57 1.996 . S
O62 C69 1.257 . S
C63 O58 1.254 . S
C63 O59 1.269 . S
C64 O65 1.249 . S
C64 O66 1.270 . S
O65 Zn57 1.943 . S
O65 C64 1.249 . S
O66 Zn56 2.067 . S
O66 C64 1.270 . S
C67 O60 1.262 . S
C67 O68 1.232 . S
O68 C67 1.232 . S
C69 O61 1.260 . S
C69 O62 1.257 . S
Zn70 O73 2.031 . S
Zn70 O75 2.049 . S
Zn70 O80 2.067 . S
Zn71 O72 1.962 . S
Zn71 O74 1.986 . S
Zn71 O76 1.996 . S
Zn71 O79 1.943 . S
O72 Zn71 1.962 . S
O72 C77 1.254 . S
O73 Zn70 2.031 . S
O73 C77 1.269 . S
O74 Zn71 1.986 . S
O74 C81 1.262 . S
O75 Zn70 2.049 . S
O75 C83 1.260 . S
O76 Zn71 1.996 . S
O76 C83 1.257 . S
C77 O72 1.254 . S
C77 O73 1.269 . S
C78 O79 1.249 . S
C78 O80 1.270 . S
O79 Zn71 1.943 . S
O79 C78 1.249 . S
O80 Zn70 2.067 . S
O80 C78 1.270 . S
C81 O74 1.262 . S
C81 O82 1.232 . S
O82 C81 1.232 . S
C83 O75 1.260 . S
C83 O76 1.257 . S
Zn84 O87 2.031 . S
Zn84 O89 2.049 . S
Zn84 O94 2.067 . S
Zn85 O86 1.962 . S
Zn85 O88 1.986 . S
Zn85 O90 1.996 . S
Zn85 O93 1.943 . S
O86 Zn85 1.962 . S
O86 C91 1.254 . S
O87 Zn84 2.031 . S
O87 C91 1.269 . S
O88 Zn85 1.986 . S
O88 C95 1.262 . S
O89 Zn84 2.049 . S
O89 C97 1.260 . S
O90 Zn85 1.996 . S
O90 C97 1.257 . S
C91 O86 1.254 . S
C91 O87 1.269 . S
C92 O93 1.249 . S
C92 O94 1.270 . S
O93 Zn85 1.943 . S
O93 C92 1.249 . S
O94 Zn84 2.067 . S
O94 C92 1.270 . S
C95 O88 1.262 . S
C95 O96 1.232 . S
O96 C95 1.232 . S
C97 O89 1.260 . S
C97 O90 1.257 . S
Zn98 O101 2.031 . S
Zn98 O103 2.049 . S
Zn98 O108 2.067 . S
Zn99 O100 1.962 . S
Zn99 O102 1.986 . S
Zn99 O104 1.996 . S
Zn99 O107 1.943 . S
O100 Zn99 1.962 . S
O100 C105 1.254 . S
O101 Zn98 2.031 . S
O101 C105 1.269 . S
O102 Zn99 1.986 . S
O102 C109 1.262 . S
O103 Zn98 2.049 . S
O103 C111 1.260 . S
O104 Zn99 1.996 . S
O104 C111 1.257 . S
C105 O100 1.254 . S
C105 O101 1.269 . S
C106 O107 1.249 . S
C106 O108 1.270 . S
O107 Zn99 1.943 . S
O107 C106 1.249 . S
O108 Zn98 2.067 . S
O108 C106 1.270 . S
C109 O102 1.262 . S
C109 O110 1.232 . S
O110 C109 1.232 . S
C111 O103 1.260 . S
C111 O104 1.257 . S
Zn112 O115 2.031 . S
Zn112 O117 2.049 . S
Zn112 O122 2.067 . S
Zn113 O114 1.962 . S
Zn113 O116 1.986 . S
Zn113 O118 1.996 . S
Zn113 O121 1.943 . S
O114 Zn113 1.962 . S
O114 C119 1.254 . S
O115 Zn112 2.031 . S
O115 C119 1.269 . S
O116 Zn113 1.986 . S
O116 C123 1.262 . S
O117 Zn112 2.049 . S
O117 C125 1.260 . S
O118 Zn113 1.996 . S
O118 C125 1.257 . S
C119 O114 1.254 . S
C119 O115 1.269 . S
C120 O121 1.249 . S
C120 O122 1.270 . S
O121 Zn113 1.943 . S
O121 C120 1.249 . S
O122 Zn112 2.067 . S
O122 C120 1.270 . S
C123 O116 1.262 . S
C123 O124 1.232 . S
O124 C123 1.232 . S
C125 O117 1.260 . S
C125 O118 1.257 . S
Zn126 O129 2.031 . S
Zn126 O131 2.049 . S
Zn126 O136 2.067 . S
Zn127 O128 1.962 . S
Zn127 O130 1.986 . S
Zn127 O132 1.996 . S
Zn127 O135 1.943 . S
O128 Zn127 1.962 . S
O128 C133 1.254 . S
O129 Zn126 2.031 . S
O129 C133 1.269 . S
O130 Zn127 1.986 . S
O130 C137 1.262 . S
O131 Zn126 2.049 . S
O131 C139 1.260 . S
O132 Zn127 1.996 . S
O132 C139 1.257 . S
C133 O128 1.254 . S
C133 O129 1.269 . S
C134 O135 1.249 . S
C134 O136 1.270 . S
O135 Zn127 1.943 . S
O135 C134 1.249 . S
O136 Zn126 2.067 . S
O136 C134 1.270 . S
C137 O130 1.262 . S
C137 O138 1.232 . S
O138 C137 1.232 . S
C139 O131 1.260 . S
C139 O132 1.257 . S
Zn140 O143 2.031 . S
Zn140 O145 2.049 . S
Zn140 O150 2.067 . S
Zn141 O142 1.962 . S
Zn141 O144 1.986 . S
Zn141 O146 1.996 . S
Zn141 O149 1.943 . S
O142 Zn141 1.962 . S
O142 C147 1.254 . S
O143 Zn140 2.031 . S
O143 C147 1.269 . S
O144 Zn141 1.986 . S
O144 C151 1.262 . S
O145 Zn140 2.049 . S
O145 C153 1.260 . S
O146 Zn141 1.996 . S
O146 C153 1.257 . S
C147 O142 1.254 . S
C147 O143 1.269 . S
C148 O149 1.249 . S
C148 O150 1.270 . S
O149 Zn141 1.943 . S
O149 C148 1.249 . S
O150 Zn140 2.067 . S
O150 C148 1.270 . S
C151 O144 1.262 . S
C151 O152 1.232 . S
O152 C151 1.232 . S
C153 O145 1.260 . S
C153 O146 1.257 . S
Zn154 O157 2.031 . S
Zn154 O159 2.049 . S
Zn154 O164 2.067 . S
Zn155 O156 1.962 . S
Zn155 O158 1.986 . S
Zn155 O160 1.996 . S
Zn155 O163 1.943 . S
O156 Zn155 1.962 . S
O156 C161 1.254 . S
O157 Zn154 2.031 . S
O157 C161 1.269 . S
O158 Zn155 1.986 . S
O158 C165 1.262 . S
O159 Zn154 2.049 . S
O159 C167 1.260 . S
O160 Zn155 1.996 . S
O160 C167 1.257 . S
C161 O156 1.254 . S
C161 O157 1.269 . S
C162 O163 1.249 . S
C162 O164 1.270 . S
O163 Zn155 1.943 . S
O163 C162 1.249 . S
O164 Zn154 2.067 . S
O164 C162 1.270 . S
C165 O158 1.262 . S
C165 O166 1.232 . S
O166 C165 1.232 . S
C167 O159 1.260 . S
C167 O160 1.257 . S
Zn168 O171 2.031 . S
Zn168 O173 2.049 . S
Zn168 O178 2.067 . S
Zn169 O170 1.962 . S
Zn169 O172 1.986 . S
Zn169 O174 1.996 . S
Zn169 O177 1.943 . S
O170 Zn169 1.962 . S
O170 C175 1.254 . S
O171 Zn168 2.031 . S
O171 C175 1.269 . S
O172 Zn169 1.986 . S
O172 C179 1.262 . S
O173 Zn168 2.049 . S
O173 C181 1.260 . S
O174 Zn169 1.996 . S
O174 C181 1.257 . S
C175 O170 1.254 . S
C175 O171 1.269 . S
C176 O177 1.249 . S
C176 O178 1.270 . S
O177 Zn169 1.943 . S
O177 C176 1.249 . S
O178 Zn168 2.067 . S
O178 C176 1.270 . S
C179 O172 1.262 . S
C179 O180 1.232 . S
O180 C179 1.232 . S
C181 O173 1.260 . S
C181 O174 1.257 . S
Zn182 O185 2.031 . S
Zn182 O187 2.049 . S
Zn182 O192 2.067 . S
Zn183 O184 1.962 . S
Zn183 O186 1.986 . S
Zn183 O188 1.996 . S
Zn183 O191 1.943 . S
O184 Zn183 1.962 . S
O184 C189 1.254 . S
O185 Zn182 2.031 . S
O185 C189 1.269 . S
O186 Zn183 1.986 . S
O186 C193 1.262 . S
O187 Zn182 2.049 . S
O187 C195 1.260 . S
O188 Zn183 1.996 . S
O188 C195 1.257 . S
C189 O184 1.254 . S
C189 O185 1.269 . S
C190 O191 1.249 . S
C190 O192 1.270 . S
O191 Zn183 1.943 . S
O191 C190 1.249 . S
O192 Zn182 2.067 . S
O192 C190 1.270 . S
C193 O186 1.262 . S
C193 O194 1.232 . S
O194 C193 1.232 . S
C195 O187 1.260 . S
C195 O188 1.257 . S
Zn196 O199 2.031 . S
Zn196 O201 2.049 . S
Zn196 O206 2.067 . S
Zn197 O198 1.962 . S
Zn197 O200 1.986 . S
Zn197 O202 1.996 . S
Zn197 O205 1.943 . S
O198 Zn197 1.962 . S
O198 C203 1.254 . S
O199 Zn196 2.031 . S
O199 C203 1.269 . S
O200 Zn197 1.986 . S
O200 C207 1.262 . S
O201 Zn196 2.049 . S
O201 C209 1.260 . S
O202 Zn197 1.996 . S
O202 C209 1.257 . S
C203 O198 1.254 . S
C203 O199 1.269 . S
C204 O205 1.249 . S
C204 O206 1.270 . S
O205 Zn197 1.943 . S
O205 C204 1.249 . S
O206 Zn196 2.067 . S
O206 C204 1.270 . S
C207 O200 1.262 . S
C207 O208 1.232 . S
O208 C207 1.232 . S
C209 O201 1.260 . S
C209 O202 1.257 . S
Zn210 O213 2.031 . S
Zn210 O215 2.049 . S
Zn210 O220 2.067 . S
Zn211 O212 1.962 . S
Zn211 O214 1.986 . S
Zn211 O216 1.996 . S
Zn211 O219 1.943 . S
O212 Zn211 1.962 . S
O212 C217 1.254 . S
O213 Zn210 2.031 . S
O213 C217 1.269 . S
O214 Zn211 1.986 . S
O214 C221 1.262 . S
O215 Zn210 2.049 . S
O215 C223 1.260 . S
O216 Zn211 1.996 . S
O216 C223 1.257 . S
C217 O212 1.254 . S
C217 O213 1.269 . S
C218 O219 1.249 . S
C218 O220 1.270 . S
O219 Zn211 1.943 . S
O219 C218 1.249 . S
O220 Zn210 2.067 . S
O220 C218 1.270 . S
C221 O214 1.262 . S
C221 O222 1.232 . S
O222 C221 1.232 . S
C223 O215 1.260 . S
C223 O216 1.257 . S
Zn224 O227 2.031 . S
Zn224 O229 2.049 . S
Zn224 O234 2.067 . S
Zn225 O226 1.962 . S
Zn225 O228 1.986 . S
Zn225 O230 1.996 . S
Zn225 O233 1.943 . S
O226 Zn225 1.962 . S
O226 C231 1.254 . S
O227 Zn224 2.031 . S
O227 C231 1.269 . S
O228 Zn225 1.986 . S
O228 C235 1.262 . S
O229 Zn224 2.049 . S
O229 C237 1.260 . S
O230 Zn225 1.996 . S
O230 C237 1.257 . S
C231 O226 1.254 . S
C231 O227 1.269 . S
C232 O233 1.249 . S
C232 O234 1.270 . S
O233 Zn225 1.943 . S
O233 C232 1.249 . S
O234 Zn224 2.067 . S
O234 C232 1.270 . S
C235 O228 1.262 . S
C235 O236 1.232 . S
O236 C235 1.232 . S
C237 O229 1.260 . S
C237 O230 1.257 . S
Zn238 O241 2.031 . S
Zn238 O243 2.049 . S
Zn238 O248 2.067 . S
Zn239 O240 1.962 . S
Zn239 O242 1.986 . S
Zn239 O244 1.996 . S
Zn239 O247 1.943 . S
O240 Zn239 1.962 . S
O240 C245 1.254 . S
O241 Zn238 2.031 . S
O241 C245 1.269 . S
O242 Zn239 1.986 . S
O242 C249 1.262 . S
O243 Zn238 2.049 . S
O243 C251 1.260 . S
O244 Zn239 1.996 . S
O244 C251 1.257 . S
C245 O240 1.254 . S
C245 O241 1.269 . S
C246 O247 1.249 . S
C246 O248 1.270 . S
O247 Zn239 1.943 . S
O247 C246 1.249 . S
O248 Zn238 2.067 . S
O248 C246 1.270 . S
C249 O242 1.262 . S
C249 O250 1.232 . S
O250 C249 1.232 . S
C251 O243 1.260 . S
C251 O244 1.257 . S
Zn252 O255 2.031 . S
Zn252 O257 2.049 . S
Zn252 O262 2.067 . S
Zn253 O254 1.962 . S
Zn253 O256 1.986 . S
Zn253 O258 1.996 . S
Zn253 O261 1.943 . S
O254 Zn253 1.962 . S
O254 C259 1.254 . S
O255 Zn252 2.031 . S
O255 C259 1.269 . S
O256 Zn253 1.986 . S
O256 C263 1.262 . S
O257 Zn252 2.049 . S
O257 C265 1.260 . S
O258 Zn253 1.996 . S
O258 C265 1.257 . S
C259 O254 1.254 . S
C259 O255 1.269 . S
C260 O261 1.249 . S
C260 O262 1.270 . S
O261 Zn253 1.943 . S
O261 C260 1.249 . S
O262 Zn252 2.067 . S
O262 C260 1.270 . S
C263 O256 1.262 . S
C263 O264 1.232 . S
O264 C263 1.232 . S
C265 O257 1.260 . S
C265 O258 1.257 . S
Zn266 O269 2.031 . S
Zn266 O271 2.049 . S
Zn266 O276 2.067 . S
Zn267 O268 1.962 . S
Zn267 O270 1.986 . S
Zn267 O272 1.996 . S
Zn267 O275 1.943 . S
O268 Zn267 1.962 . S
O268 C273 1.254 . S
O269 Zn266 2.031 . S
O269 C273 1.269 . S
O270 Zn267 1.986 . S
O270 C277 1.262 . S
O271 Zn266 2.049 . S
O271 C279 1.260 . S
O272 Zn267 1.996 . S
O272 C279 1.257 . S
C273 O268 1.254 . S
C273 O269 1.269 . S
C274 O275 1.249 . S
C274 O276 1.270 . S
O275 Zn267 1.943 . S
O275 C274 1.249 . S
O276 Zn266 2.067 . S
O276 C274 1.270 . S
C277 O270 1.262 . S
C277 O278 1.232 . S
O278 C277 1.232 . S
C279 O271 1.260 . S
C279 O272 1.257 . S
Zn280 O283 2.031 . S
Zn280 O285 2.049 . S
Zn280 O290 2.067 . S
Zn281 O282 1.962 . S
Zn281 O284 1.986 . S
Zn281 O286 1.996 . S
Zn281 O289 1.943 . S
O282 Zn281 1.962 . S
O282 C287 1.254 . S
O283 Zn280 2.031 . S
O283 C287 1.269 . S
O284 Zn281 1.986 . S
O284 C291 1.262 . S
O285 Zn280 2.049 . S
O285 C293 1.260 . S
O286 Zn281 1.996 . S
O286 C293 1.257 . S
C287 O282 1.254 . S
C287 O283 1.269 . S
C288 O289 1.249 . S
C288 O290 1.270 . S
O289 Zn281 1.943 . S
O289 C288 1.249 . S
O290 Zn280 2.067 . S
O290 C288 1.270 . S
C291 O284 1.262 . S
C291 O292 1.232 . S
O292 C291 1.232 . S
C293 O285 1.260 . S
C293 O286 1.257 . S
Zn294 O297 2.031 . S
Zn294 O299 2.049 . S
Zn294 O304 2.067 . S
Zn295 O296 1.962 . S
Zn295 O298 1.986 . S
Zn295 O300 1.996 . S
Zn295 O303 1.943 . S
O296 Zn295 1.962 . S
O296 C301 1.254 . S
O297 Zn294 2.031 . S
O297 C301 1.269 . S
O298 Zn295 1.986 . S
O298 C305 1.262 . S
O299 Zn294 2.049 . S
O299 C307 1.260 . S
O300 Zn295 1.996 . S
O300 C307 1.257 . S
C301 O296 1.254 . S
C301 O297 1.269 . S
C302 O303 1.249 . S
C302 O304 1.270 . S
O303 Zn295 1.943 . S
O303 C302 1.249 . S
O304 Zn294 2.067 . S
O304 C302 1.270 . S
C305 O298 1.262 . S
C305 O306 1.232 . S
O306 C305 1.232 . S
C307 O299 1.260 . S
C307 O300 1.257 . S
Zn308 O311 2.031 . S
Zn308 O313 2.049 . S
Zn308 O318 2.067 . S
Zn309 O310 1.962 . S
Zn309 O312 1.986 . S
Zn309 O314 1.996 . S
Zn309 O317 1.943 . S
O310 Zn309 1.962 . S
O310 C315 1.254 . S
O311 Zn308 2.031 . S
O311 C315 1.269 . S
O312 Zn309 1.986 . S
O312 C319 1.262 . S
O313 Zn308 2.049 . S
O313 C321 1.260 . S
O314 Zn309 1.996 . S
O314 C321 1.257 . S
C315 O310 1.254 . S
C315 O311 1.269 . S
C316 O317 1.249 . S
C316 O318 1.270 . S
O317 Zn309 1.943 . S
O317 C316 1.249 . S
O318 Zn308 2.067 . S
O318 C316 1.270 . S
C319 O312 1.262 . S
C319 O320 1.232 . S
O320 C319 1.232 . S
C321 O313 1.260 . S
C321 O314 1.257 . S
Zn322 O325 2.031 . S
Zn322 O327 2.049 . S
Zn322 O332 2.067 . S
Zn323 O324 1.962 . S
Zn323 O326 1.986 . S
Zn323 O328 1.996 . S
Zn323 O331 1.943 . S
O324 Zn323 1.962 . S
O324 C329 1.254 . S
O325 Zn322 2.031 . S
O325 C329 1.269 . S
O326 Zn323 1.986 . S
O326 C333 1.262 . S
O327 Zn322 2.049 . S
O327 C335 1.260 . S
O328 Zn323 1.996 . S
O328 C335 1.257 . S
C329 O324 1.254 . S
C329 O325 1.269 . S
C330 O331 1.249 . S
C330 O332 1.270 . S
O331 Zn323 1.943 . S
O331 C330 1.249 . S
O332 Zn322 2.067 . S
O332 C330 1.270 . S
C333 O326 1.262 . S
C333 O334 1.232 . S
O334 C333 1.232 . S
C335 O327 1.260 . S
C335 O328 1.257 . S
Zn336 O339 2.031 . S
Zn336 O341 2.049 . S
Zn336 O346 2.067 . S
Zn337 O338 1.962 . S
Zn337 O340 1.986 . S
Zn337 O342 1.996 . S
Zn337 O345 1.943 . S
O338 Zn337 1.962 . S
O338 C343 1.254 . S
O339 Zn336 2.031 . S
O339 C343 1.269 . S
O340 Zn337 1.986 . S
O340 C347 1.262 . S
O341 Zn336 2.049 . S
O341 C349 1.260 . S
O342 Zn337 1.996 . S
O342 C349 1.257 . S
C343 O338 1.254 . S
C343 O339 1.269 . S
C344 O345 1.249 . S
C344 O346 1.270 . S
O345 Zn337 1.943 . S
O345 C344 1.249 . S
O346 Zn336 2.067 . S
O346 C344 1.270 . S
C347 O340 1.262 . S
C347 O348 1.232 . S
O348 C347 1.232 . S
C349 O341 1.260 . S
C349 O342 1.257 . S
Zn350 O353 2.031 . S
Zn350 O355 2.049 . S
Zn350 O360 2.067 . S
Zn351 O352 1.962 . S
Zn351 O354 1.986 . S
Zn351 O356 1.996 . S
Zn351 O359 1.943 . S
O352 Zn351 1.962 . S
O352 C357 1.254 . S
O353 Zn350 2.031 . S
O353 C357 1.269 . S
O354 Zn351 1.986 . S
O354 C361 1.262 . S
O355 Zn350 2.049 . S
O355 C363 1.260 . S
O356 Zn351 1.996 . S
O356 C363 1.257 . S
C357 O352 1.254 . S
C357 O353 1.269 . S
C358 O359 1.249 . S
C358 O360 1.270 . S
O359 Zn351 1.943 . S
O359 C358 1.249 . S
O360 Zn350 2.067 . S
O360 C358 1.270 . S
C361 O354 1.262 . S
C361 O362 1.232 . S
O362 C361 1.232 . S
C363 O355 1.260 . S
C363 O356 1.257 . S
Zn364 O367 2.031 . S
Zn364 O369 2.049 . S
Zn364 O374 2.067 . S
Zn365 O366 1.962 . S
Zn365 O368 1.986 . S
Zn365 O370 1.996 . S
Zn365 O373 1.943 . S
O366 Zn365 1.962 . S
O366 C371 1.254 . S
O367 Zn364 2.031 . S
O367 C371 1.269 . S
O368 Zn365 1.986 . S
O368 C375 1.262 . S
O369 Zn364 2.049 . S
O369 C377 1.260 . S
O370 Zn365 1.996 . S
O370 C377 1.257 . S
C371 O366 1.254 . S
C371 O367 1.269 . S
C372 O373 1.249 . S
C372 O374 1.270 . S
O373 Zn365 1.943 . S
O373 C372 1.249 . S
O374 Zn364 2.067 . S
O374 C372 1.270 . S
C375 O368 1.262 . S
C375 O376 1.232 . S
O376 C375 1.232 . S
C377 O369 1.260 . S
C377 O370 1.257 . S
Zn378 O381 2.031 . S
Zn378 O383 2.049 . S
Zn378 O388 2.067 . S
Zn379 O380 1.962 . S
Zn379 O382 1.986 . S
Zn379 O384 1.996 . S
Zn379 O387 1.943 . S
O380 Zn379 1.962 . S
O380 C385 1.254 . S
O381 Zn378 2.031 . S
O381 C385 1.269 . S
O382 Zn379 1.986 . S
O382 C389 1.262 . S
O383 Zn378 2.049 . S
O383 C391 1.260 . S
O384 Zn379 1.996 . S
O384 C391 1.257 . S
C385 O380 1.254 . S
C385 O381 1.269 . S
C386 O387 1.249 . S
C386 O388 1.270 . S
O387 Zn379 1.943 . S
O387 C386 1.249 . S
O388 Zn378 2.067 . S
O388 C386 1.270 . S
C389 O382 1.262 . S
C389 O390 1.232 . S
O390 C389 1.232 . S
C391 O383 1.260 . S
C391 O384 1.257 . S
Zn392 O395 2.031 . S
Zn392 O397 2.049 . S
Zn392 O402 2.067 . S
Zn393 O394 1.962 . S
Zn393 O396 1.986 . S
Zn393 O398 1.996 . S
Zn393 O401 1.943 . S
O394 Zn393 1.962 . S
O394 C399 1.254 . S
O395 Zn392 2.031 . S
O395 C399 1.269 . S
O396 Zn393 1.986 . S
O396 C403 1.262 . S
O397 Zn392 2.049 . S
O397 C405 1.260 . S
O398 Zn393 1.996 . S
O398 C405 1.257 . S
C399 O394 1.254 . S
C399 O395 1.269 . S
C400 O401 1.249 . S
C400 O402 1.270 . S
O401 Zn393 1.943 . S
O401 C400 1.249 . S
O402 Zn392 2.067 . S
O402 C400 1.270 . S
C403 O396 1.262 . S
C403 O404 1.232 . S
O404 C403 1.232 . S
C405 O397 1.260 . S
C405 O398 1.257 . S
Zn406 O409 2.031 . S
Zn406 O411 2.049 . S
Zn406 O416 2.067 . S
Zn407 O408 1.962 . S
Zn407 O410 1.986 . S
Zn407 O412 1.996 . S
Zn407 O415 1.943 . S
O408 Zn407 1.962 . S
O408 C413 1.254 . S
O409 Zn406 2.031 . S
O409 C413 1.269 . S
O410 Zn407 1.986 . S
O410 C417 1.262 . S
O411 Zn406 2.049 . S
O411 C419 1.260 . S
O412 Zn407 1.996 . S
O412 C419 1.257 . S
C413 O408 1.254 . S
C413 O409 1.269 . S
C414 O415 1.249 . S
C414 O416 1.270 . S
O415 Zn407 1.943 . S
O415 C414 1.249 . S
O416 Zn406 2.067 . S
O416 C414 1.270 . S
C417 O410 1.262 . S
C417 O418 1.232 . S
O418 C417 1.232 . S
C419 O411 1.260 . S
C419 O412 1.257 . S
Zn420 O423 2.031 . S
Zn420 O425 2.049 . S
Zn420 O430 2.067 . S
Zn421 O422 1.962 . S
Zn421 O424 1.986 . S
Zn421 O426 1.996 . S
Zn421 O429 1.943 . S
O422 Zn421 1.962 . S
O422 C427 1.254 . S
O423 Zn420 2.031 . S
O423 C427 1.269 . S
O424 Zn421 1.986 . S
O424 C431 1.262 . S
O425 Zn420 2.049 . S
O425 C433 1.260 . S
O426 Zn421 1.996 . S
O426 C433 1.257 . S
C427 O422 1.254 . S
C427 O423 1.269 . S
C428 O429 1.249 . S
C428 O430 1.270 . S
O429 Zn421 1.943 . S
O429 C428 1.249 . S
O430 Zn420 2.067 . S
O430 C428 1.270 . S
C431 O424 1.262 . S
C431 O432 1.232 . S
O432 C431 1.232 . S
C433 O425 1.260 . S
C433 O426 1.257 . S
Zn434 O437 2.031 . S
Zn434 O439 2.049 . S
Zn434 O444 2.067 . S
Zn435 O436 1.962 . S
Zn435 O438 1.986 . S
Zn435 O440 1.996 . S
Zn435 O443 1.943 . S
O436 Zn435 1.962 . S
O436 C441 1.254 . S
O437 Zn434 2.031 . S
O437 C441 1.269 . S
O438 Zn435 1.986 . S
O438 C445 1.262 . S
O439 Zn434 2.049 . S
O439 C447 1.260 . S
O440 Zn435 1.996 . S
O440 C447 1.257 . S
C441 O436 1.254 . S
C441 O437 1.269 . S
C442 O443 1.249 . S
C442 O444 1.270 . S
O443 Zn435 1.943 . S
O443 C442 1.249 . S
O444 Zn434 2.067 . S
O444 C442 1.270 . S
C445 O438 1.262 . S
C445 O446 1.232 . S
O446 C445 1.232 . S
C447 O439 1.260 . S
C447 O440 1.257 . S
Zn448 O451 2.031 . S
Zn448 O453 2.049 . S
Zn448 O458 2.067 . S
Zn449 O450 1.962 . S
Zn449 O452 1.986 . S
Zn449 O454 1.996 . S
Zn449 O457 1.943 . S
O450 Zn449 1.962 . S
O450 C455 1.254 . S
O451 Zn448 2.031 . S
O451 C455 1.269 . S
O452 Zn449 1.986 . S
O452 C459 1.262 . S
O453 Zn448 2.049 . S
O453 C461 1.260 . S
O454 Zn449 1.996 . S
O454 C461 1.257 . S
C455 O450 1.254 . S
C455 O451 1.269 . S
C456 O457 1.249 . S
C456 O458 1.270 . S
O457 Zn449 1.943 . S
O457 C456 1.249 . S
O458 Zn448 2.067 . S
O458 C456 1.270 . S
C459 O452 1.262 . S
C459 O460 1.232 . S
O460 C459 1.232 . S
C461 O453 1.260 . S
C461 O454 1.257 . S
Zn462 O465 2.031 . S
Zn462 O467 2.049 . S
Zn462 O472 2.067 . S
Zn463 O464 1.962 . S
Zn463 O466 1.986 . S
Zn463 O468 1.996 . S
Zn463 O471 1.943 . S
O464 Zn463 1.962 . S
O464 C469 1.254 . S
O465 Zn462 2.031 . S
O465 C469 1.269 . S
O466 Zn463 1.986 . S
O466 C473 1.262 . S
O467 Zn462 2.049 . S
O467 C475 1.260 . S
O468 Zn463 1.996 . S
O468 C475 1.257 . S
C469 O464 1.254 . S
C469 O465 1.269 . S
C470 O471 1.249 . S
C470 O472 1.270 . S
O471 Zn463 1.943 . S
O471 C470 1.249 . S
O472 Zn462 2.067 . S
O472 C470 1.270 . S
C473 O466 1.262 . S
C473 O474 1.232 . S
O474 C473 1.232 . S
C475 O467 1.260 . S
C475 O468 1.257 . S
Zn476 O479 2.031 . S
Zn476 O481 2.049 . S
Zn476 O486 2.067 . S
Zn477 O478 1.962 . S
Zn477 O480 1.986 . S
Zn477 O482 1.996 . S
Zn477 O485 1.943 . S
O478 Zn477 1.962 . S
O478 C483 1.254 . S
O479 Zn476 2.031 . S
O479 C483 1.269 . S
O480 Zn477 1.986 . S
O480 C487 1.262 . S
O481 Zn476 2.049 . S
O481 C489 1.260 . S
O482 Zn477 1.996 . S
O482 C489 1.257 . S
C483 O478 1.254 . S
C483 O479 1.269 . S
C484 O485 1.249 . S
C484 O486 1.270 . S
O485 Zn477 1.943 . S
O485 C484 1.249 . S
O486 Zn476 2.067 . S
O486 C484 1.270 . S
C487 O480 1.262 . S
C487 O488 1.232 . S
O488 C487 1.232 . S
C489 O481 1.260 . S
C489 O482 1.257 . S
Zn490 O493 2.031 . S
Zn490 O495 2.049 . S
Zn490 O500 2.067 . S
Zn491 O492 1.962 . S
Zn491 O494 1.986 . S
Zn491 O496 1.996 . S
Zn491 O499 1.943 . S
O492 Zn491 1.962 . S
O492 C497 1.254 . S
O493 Zn490 2.031 . S
O493 C497 1.269 . S
O494 Zn491 1.986 . S
O494 C501 1.262 . S
O495 Zn490 2.049 . S
O495 C503 1.260 . S
O496 Zn491 1.996 . S
O496 C503 1.257 . S
C497 O492 1.254 . S
C497 O493 1.269 . S
C498 O499 1.249 . S
C498 O500 1.270 . S
O499 Zn491 1.943 . S
O499 C498 1.249 . S
O500 Zn490 2.067 . S
O500 C498 1.270 . S
C501 O494 1.262 . S
C501 O502 1.232 . S
O502 C501 1.232 . S
C503 O495 1.260 . S
C503 O496 1.257 . S
Zn504 O507 2.031 . S
Zn504 O509 2.049 . S
Zn504 O514 2.067 . S
Zn505 O506 1.962 . S
Zn505 O508 1.986 . S
Zn505 O510 1.996 . S
Zn505 O513 1.943 . S
O506 Zn505 1.962 . S
O506 C511 1.254 . S
O507 Zn504 2.031 . S
O507 C511 1.269 . S
O508 Zn505 1.986 . S
O508 C515 1.262 . S
O509 Zn504 2.049 . S
O509 C517 1.260 . S
O510 Zn505 1.996 . S
O510 C517 1.257 . S
C511 O506 1.254 . S
C511 O507 1.269 . S
C512 O513 1.249 . S
C512 O514 1.270 . S
O513 Zn505 1.943 . S
O513 C512 1.249 . S
O514 Zn504 2.067 . S
O514 C512 1.270 . S
C515 O508 1.262 . S
C515 O516 1.232 . S
O516 C515 1.232 . S
C517 O509 1.260 . S
C517 O510 1.257 . S
Zn518 O521 2.031 . S
Zn518 O523 2.049 . S
Zn518 O528 2.067 . S
Zn519 O520 1.962 . S
Zn519 O522 1.986 . S
Zn519 O524 1.996 . S
Zn519 O527 1.943 . S
O520 Zn519 1.962 . S
O520 C525 1.254 . S
O521 Zn518 2.031 . S
O521 C525 1.269 . S
O522 Zn519 1.986 . S
O522 C529 1.262 . S
O523 Zn518 2.049 . S
O523 C531 1.260 . S
O524 Zn519 1.996 . S
O524 C531 1.257 . S
C525 O520 1.254 . S
C525 O521 1.269 . S
C526 O527 1.249 . S
C526 O528 1.270 . S
O527 Zn519 1.943 . S
O527 C526 1.249 . S
O528 Zn518 2.067 . S
O528 C526 1.270 . S
C529 O522 1.262 . S
C529 O530 1.232 . S
O530 C529 1.232 . S
C531 O523 1.260 . S
C531 O524 1.257 . S
Zn532 O535 2.031 . S
Zn532 O537 2.049 . S
Zn532 O542 2.067 . S
Zn533 O534 1.962 . S
Zn533 O536 1.986 . S
Zn533 O538 1.996 . S
Zn533 O541 1.943 . S
O534 Zn533 1.962 . S
O534 C539 1.254 . S
O535 Zn532 2.031 . S
O535 C539 1.269 . S
O536 Zn533 1.986 . S
O536 C543 1.262 . S
O537 Zn532 2.049 . S
O537 C545 1.260 . S
O538 Zn533 1.996 . S
O538 C545 1.257 . S
C539 O534 1.254 . S
C539 O535 1.269 . S
C540 O541 1.249 . S
C540 O542 1.270 . S
O541 Zn533 1.943 . S
O541 C540 1.249 . S
O542 Zn532 2.067 . S
O542 C540 1.270 . S
C543 O536 1.262 . S
C543 O544 1.232 . S
O544 C543 1.232 . S
C545 O537 1.260 . S
C545 O538 1.257 . S
Zn546 O549 2.031 . S
Zn546 O551 2.049 . S
Zn546 O556 2.067 . S
Zn547 O548 1.962 . S
Zn547 O550 1.986 . S
Zn547 O552 1.996 . S
Zn547 O555 1.943 . S
O548 Zn547 1.962 . S
O548 C553 1.254 . S
O549 Zn546 2.031 . S
O549 C553 1.269 . S
O550 Zn547 1.986 . S
O550 C557 1.262 . S
O551 Zn546 2.049 . S
O551 C559 1.260 . S
O552 Zn547 1.996 . S
O552 C559 1.257 . S
C553 O548 1.254 . S
C553 O549 1.269 . S
C554 O555 1.249 . S
C554 O556 1.270 . S
O555 Zn547 1.943 . S
O555 C554 1.249 . S
O556 Zn546 2.067 . S
O556 C554 1.270 . S
C557 O550 1.262 . S
C557 O558 1.232 . S
O558 C557 1.232 . S
C559 O551 1.260 . S
C559 O552 1.257 . S
Zn560 O563 2.031 . S
Zn560 O565 2.049 . S
Zn560 O570 2.067 . S
Zn561 O562 1.962 . S
Zn561 O564 1.986 . S
Zn561 O566 1.996 . S
Zn561 O569 1.943 . S
O562 Zn561 1.962 . S
O562 C567 1.254 . S
O563 Zn560 2.031 . S
O563 C567 1.269 . S
O564 Zn561 1.986 . S
O564 C571 1.262 . S
O565 Zn560 2.049 . S
O565 C573 1.260 . S
O566 Zn561 1.996 . S
O566 C573 1.257 . S
C567 O562 1.254 . S
C567 O563 1.269 . S
C568 O569 1.249 . S
C568 O570 1.270 . S
O569 Zn561 1.943 . S
O569 C568 1.249 . S
O570 Zn560 2.067 . S
O570 C568 1.270 . S
C571 O564 1.262 . S
C571 O572 1.232 . S
O572 C571 1.232 . S
C573 O565 1.260 . S
C573 O566 1.257 . S
Zn574 O577 2.031 . S
Zn574 O579 2.049 . S
Zn574 O584 2.067 . S
Zn575 O576 1.962 . S
Zn575 O578 1.986 . S
Zn575 O580 1.996 . S
Zn575 O583 1.943 . S
O576 Zn575 1.962 . S
O576 C581 1.254 . S
O577 Zn574 2.031 . S
O577 C581 1.269 . S
O578 Zn575 1.986 . S
O578 C585 1.262 . S
O579 Zn574 2.049 . S
O579 C587 1.260 . S
O580 Zn575 1.996 . S
O580 C587 1.257 . S
C581 O576 1.254 . S
C581 O577 1.269 . S
C582 O583 1.249 . S
C582 O584 1.270 . S
O583 Zn575 1.943 . S
O583 C582 1.249 . S
O584 Zn574 2.067 . S
O584 C582 1.270 . S
C585 O578 1.262 . S
C585 O586 1.232 . S
O586 C585 1.232 . S
C587 O579 1.260 . S
C587 O580 1.257 . S
Zn588 O591 2.031 . S
Zn588 O593 2.049 . S
Zn588 O598 2.067 . S
Zn589 O590 1.962 . S
Zn589 O592 1.986 . S
Zn589 O594 1.996 . S
Zn589 O597 1.943 . S
O590 Zn589 1.962 . S
O590 C595 1.254 . S
O591 Zn588 2.031 . S
O591 C595 1.269 . S
O592 Zn589 1.986 . S
O592 C599 1.262 . S
O593 Zn588 2.049 . S
O593 C601 1.260 . S
O594 Zn589 1.996 . S
O594 C601 1.257 . S
C595 O590 1.254 . S
C595 O591 1.269 . S
C596 O597 1.249 . S
C596 O598 1.270 . S
O597 Zn589 1.943 . S
O597 C596 1.249 . S
O598 Zn588 2.067 . S
O598 C596 1.270 . S
C599 O592 1.262 . S
C599 O600 1.232 . S
O600 C599 1.232 . S
C601 O593 1.260 . S
C601 O594 1.257 . S
Zn602 O605 2.031 . S
Zn602 O607 2.049 . S
Zn602 O612 2.067 . S
Zn603 O604 1.962 . S
Zn603 O606 1.986 . S
Zn603 O608 1.996 . S
Zn603 O611 1.943 . S
O604 Zn603 1.962 . S
O604 C609 1.254 . S
O605 Zn602 2.031 . S
O605 C609 1.269 . S
O606 Zn603 1.986 . S
O606 C613 1.262 . S
O607 Zn602 2.049 . S
O607 C615 1.260 . S
O608 Zn603 1.996 . S
O608 C615 1.257 . S
C609 O604 1.254 . S
C609 O605 1.269 . S
C610 O611 1.249 . S
C610 O612 1.270 . S
O611 Zn603 1.943 . S
O611 C610 1.249 . S
O612 Zn602 2.067 . S
O612 C610 1.270 . S
C613 O606 1.262 . S
C613 O614 1.232 . S
O614 C613 1.232 . S
C615 O607 1.260 . S
C615 O608 1.257 . S
Zn616 O619 2.031 . S
Zn616 O621 2.049 . S
Zn616 O626 2.067 . S
Zn617 O618 1.962 . S
Zn617 O620 1.986 . S
Zn617 O622 1.996 . S
Zn617 O625 1.943 . S
O618 Zn617 1.962 . S
O618 C623 1.254 . S
O619 Zn616 2.031 . S
O619 C623 1.269 . S
O620 Zn617 1.986 . S
O620 C627 1.262 . S
O621 Zn616 2.049 . S
O621 C629 1.260 . S
O622 Zn617 1.996 . S
O622 C629 1.257 . S
C623 O618 1.254 . S
C623 O619 1.269 . S
C624 O625 1.249 . S
C624 O626 1.270 . S
O625 Zn617 1.943 . S
O625 C624 1.249 . S
O626 Zn616 2.067 . S
O626 C624 1.270 . S
C627 O620 1.262 . S
C627 O628 1.232 . S
O628 C627 1.232 . S
C629 O621 1.260 . S
C629 O622 1.257 . S
Zn630 O633 2.031 . S
Zn630 O635 2.049 . S
Zn630 O640 2.067 . S
Zn631 O632 1.962 . S
Zn631 O634 1.986 . S
Zn631 O636 1.996 . S
Zn631 O639 1.943 . S
O632 Zn631 1.962 . S
O632 C637 1.254 . S
O633 Zn630 2.031 . S
O633 C637 1.269 . S
O634 Zn631 1.986 . S
O634 C641 1.262 . S
O635 Zn630 2.049 . S
O635 C643 1.260 . S
O636 Zn631 1.996 . S
O636 C643 1.257 . S
C637 O632 1.254 . S
C637 O633 1.269 . S
C638 O639 1.249 . S
C638 O640 1.270 . S
O639 Zn631 1.943 . S
O639 C638 1.249 . S
O640 Zn630 2.067 . S
O640 C638 1.270 . S
C641 O634 1.262 . S
C641 O642 1.232 . S
O642 C641 1.232 . S
C643 O635 1.260 . S
C643 O636 1.257 . S
Zn644 O647 2.031 . S
Zn644 O649 2.049 . S
Zn644 O654 2.067 . S
Zn645 O646 1.962 . S
Zn645 O648 1.986 . S
Zn645 O650 1.996 . S
Zn645 O653 1.943 . S
O646 Zn645 1.962 . S
O646 C651 1.254 . S
O647 Zn644 2.031 . S
O647 C651 1.269 . S
O648 Zn645 1.986 . S
O648 C655 1.262 . S
O649 Zn644 2.049 . S
O649 C657 1.260 . S
O650 Zn645 1.996 . S
O650 C657 1.257 . S
C651 O646 1.254 . S
C651 O647 1.269 . S
C652 O653 1.249 . S
C652 O654 1.270 . S
O653 Zn645 1.943 . S
O653 C652 1.249 . S
O654 Zn644 2.067 . S
O654 C652 1.270 . S
C655 O648 1.262 . S
C655 O656 1.232 . S
O656 C655 1.232 . S
C657 O649 1.260 . S
C657 O650 1.257 . S
Zn658 O661 2.031 . S
Zn658 O663 2.049 . S
Zn658 O668 2.067 . S
Zn659 O660 1.962 . S
Zn659 O662 1.986 . S
Zn659 O664 1.996 . S
Zn659 O667 1.943 . S
O660 Zn659 1.962 . S
O660 C665 1.254 . S
O661 Zn658 2.031 . S
O661 C665 1.269 . S
O662 Zn659 1.986 . S
O662 C669 1.262 . S
O663 Zn658 2.049 . S
O663 C671 1.260 . S
O664 Zn659 1.996 . S
O664 C671 1.257 . S
C665 O660 1.254 . S
C665 O661 1.269 . S
C666 O667 1.249 . S
C666 O668 1.270 . S
O667 Zn659 1.943 . S
O667 C666 1.249 . S
O668 Zn658 2.067 . S
O668 C666 1.270 . S
C669 O662 1.262 . S
C669 O670 1.232 . S
O670 C669 1.232 . S
C671 O663 1.260 . S
C671 O664 1.257 . S
C672 C673 1.349 . S
C672 C674 1.327 . S
C672 H697 0.950 . S
C673 C672 1.349 . S
C673 C689 1.349 . S
C674 C672 1.327 . S
C674 C693 1.429 . S
C674 H698 0.950 . S
C675 C692 1.574 . S
C675 C694 1.368 . S
C675 H699 0.949 . S
H676 C680 0.949 . S
C677 C678 1.349 . S
C677 C679 1.327 . S
C677 H700 0.950 . S
C678 C677 1.349 . S
C678 C690 1.349 . S
C679 C677 1.327 . S
C679 C695 1.429 . S
C679 H701 0.950 . S
C680 H676 0.949 . S
C680 C688 1.574 . S
C680 C696 1.368 . S
H681 C689 0.950 . S
H682 C687 0.950 . S
H683 C688 0.949 . S
H684 C690 0.950 . S
H685 C691 0.950 . S
H686 C692 0.949 . S
C687 H682 0.950 . S
C687 C689 1.327 . S
C687 C693 1.429 . S
C688 C680 1.574 . S
C688 H683 0.949 . S
C688 C694 1.368 . S
C689 C673 1.349 . S
C689 H681 0.950 . S
C689 C687 1.327 . S
C690 C678 1.349 . S
C690 H684 0.950 . S
C690 C691 1.327 . S
C691 H685 0.950 . S
C691 C690 1.327 . S
C691 C695 1.429 . S
C692 C675 1.574 . S
C692 H686 0.949 . S
C692 C696 1.368 . S
C693 C674 1.429 . S
C693 C687 1.429 . S
C693 C694 1.523 . S
C694 C675 1.368 . S
C694 C688 1.368 . S
C694 C693 1.523 . S
C695 C679 1.429 . S
C695 C691 1.429 . S
C695 C696 1.523 . S
C696 C680 1.368 . S
C696 C692 1.368 . S
C696 C695 1.523 . S
H697 C672 0.950 . S
H698 C674 0.950 . S
H699 C675 0.949 . S
H700 C677 0.950 . S
H701 C679 0.950 . S
C702 C703 1.349 . S
C702 C704 1.327 . S
C702 H727 0.950 . S
C703 C702 1.349 . S
C703 C719 1.349 . S
C704 C702 1.327 . S
C704 C723 1.429 . S
C704 H728 0.950 . S
C705 C722 1.574 . S
C705 C724 1.368 . S
C705 H729 0.949 . S
H706 C710 0.949 . S
C707 C708 1.349 . S
C707 C709 1.327 . S
C707 H730 0.950 . S
C708 C707 1.349 . S
C708 C720 1.349 . S
C709 C707 1.327 . S
C709 C725 1.429 . S
C709 H731 0.950 . S
C710 H706 0.949 . S
C710 C718 1.574 . S
C710 C726 1.368 . S
H711 C719 0.950 . S
H712 C717 0.950 . S
H713 C718 0.949 . S
H714 C720 0.950 . S
H715 C721 0.950 . S
H716 C722 0.949 . S
C717 H712 0.950 . S
C717 C719 1.327 . S
C717 C723 1.429 . S
C718 C710 1.574 . S
C718 H713 0.949 . S
C718 C724 1.368 . S
C719 C703 1.349 . S
C719 H711 0.950 . S
C719 C717 1.327 . S
C720 C708 1.349 . S
C720 H714 0.950 . S
C720 C721 1.327 . S
C721 H715 0.950 . S
C721 C720 1.327 . S
C721 C725 1.429 . S
C722 C705 1.574 . S
C722 H716 0.949 . S
C722 C726 1.368 . S
C723 C704 1.429 . S
C723 C717 1.429 . S
C723 C724 1.523 . S
C724 C705 1.368 . S
C724 C718 1.368 . S
C724 C723 1.523 . S
C725 C709 1.429 . S
C725 C721 1.429 . S
C725 C726 1.523 . S
C726 C710 1.368 . S
C726 C722 1.368 . S
C726 C725 1.523 . S
H727 C702 0.950 . S
H728 C704 0.950 . S
H729 C705 0.949 . S
H730 C707 0.950 . S
H731 C709 0.950 . S
C732 C733 1.349 . S
C732 C734 1.327 . S
C732 H757 0.950 . S
C733 C732 1.349 . S
C733 C749 1.349 . S
C734 C732 1.327 . S
C734 C753 1.429 . S
C734 H758 0.950 . S
C735 C752 1.574 . S
C735 C754 1.368 . S
C735 H759 0.949 . S
H736 C740 0.949 . S
C737 C738 1.349 . S
C737 C739 1.327 . S
C737 H760 0.950 . S
C738 C737 1.349 . S
C738 C750 1.349 . S
C739 C737 1.327 . S
C739 C755 1.429 . S
C739 H761 0.950 . S
C740 H736 0.949 . S
C740 C748 1.574 . S
C740 C756 1.368 . S
H741 C749 0.950 . S
H742 C747 0.950 . S
H743 C748 0.949 . S
H744 C750 0.950 . S
H745 C751 0.950 . S
H746 C752 0.949 . S
C747 H742 0.950 . S
C747 C749 1.327 . S
C747 C753 1.429 . S
C748 C740 1.574 . S
C748 H743 0.949 . S
C748 C754 1.368 . S
C749 C733 1.349 . S
C749 H741 0.950 . S
C749 C747 1.327 . S
C750 C738 1.349 . S
C750 H744 0.950 . S
C750 C751 1.327 . S
C751 H745 0.950 . S
C751 C750 1.327 . S
C751 C755 1.429 . S
C752 C735 1.574 . S
C752 H746 0.949 . S
C752 C756 1.368 . S
C753 C734 1.429 . S
C753 C747 1.429 . S
C753 C754 1.523 . S
C754 C735 1.368 . S
C754 C748 1.368 . S
C754 C753 1.523 . S
C755 C739 1.429 . S
C755 C751 1.429 . S
C755 C756 1.523 . S
C756 C740 1.368 . S
C756 C752 1.368 . S
C756 C755 1.523 . S
H757 C732 0.950 . S
H758 C734 0.950 . S
H759 C735 0.949 . S
H760 C737 0.950 . S
H761 C739 0.950 . S
C762 C763 1.349 . S
C762 C764 1.327 . S
C762 H787 0.950 . S
C763 C762 1.349 . S
C763 C779 1.349 . S
C764 C762 1.327 . S
C764 C783 1.429 . S
C764 H788 0.950 . S
C765 C782 1.574 . S
C765 C784 1.368 . S
C765 H789 0.949 . S
H766 C770 0.949 . S
C767 C768 1.349 . S
C767 C769 1.327 . S
C767 H790 0.950 . S
C768 C767 1.349 . S
C768 C780 1.349 . S
C769 C767 1.327 . S
C769 C785 1.429 . S
C769 H791 0.950 . S
C770 H766 0.949 . S
C770 C778 1.574 . S
C770 C786 1.368 . S
H771 C779 0.950 . S
H772 C777 0.950 . S
H773 C778 0.949 . S
H774 C780 0.950 . S
H775 C781 0.950 . S
H776 C782 0.949 . S
C777 H772 0.950 . S
C777 C779 1.327 . S
C777 C783 1.429 . S
C778 C770 1.574 . S
C778 H773 0.949 . S
C778 C784 1.368 . S
C779 C763 1.349 . S
C779 H771 0.950 . S
C779 C777 1.327 . S
C780 C768 1.349 . S
C780 H774 0.950 . S
C780 C781 1.327 . S
C781 H775 0.950 . S
C781 C780 1.327 . S
C781 C785 1.429 . S
C782 C765 1.574 . S
C782 H776 0.949 . S
C782 C786 1.368 . S
C783 C764 1.429 . S
C783 C777 1.429 . S
C783 C784 1.523 . S
C784 C765 1.368 . S
C784 C778 1.368 . S
C784 C783 1.523 . S
C785 C769 1.429 . S
C785 C781 1.429 . S
C785 C786 1.523 . S
C786 C770 1.368 . S
C786 C782 1.368 . S
C786 C785 1.523 . S
H787 C762 0.950 . S
H788 C764 0.950 . S
H789 C765 0.949 . S
H790 C767 0.950 . S
H791 C769 0.950 . S
C792 C793 1.349 . S
C792 C794 1.327 . S
C792 H817 0.950 . S
C793 C792 1.349 . S
C793 C809 1.349 . S
C794 C792 1.327 . S
C794 C813 1.429 . S
C794 H818 0.950 . S
C795 C812 1.574 . S
C795 C814 1.368 . S
C795 H819 0.949 . S
H796 C800 0.949 . S
C797 C798 1.349 . S
C797 C799 1.327 . S
C797 H820 0.950 . S
C798 C797 1.349 . S
C798 C810 1.349 . S
C799 C797 1.327 . S
C799 C815 1.429 . S
C799 H821 0.950 . S
C800 H796 0.949 . S
C800 C808 1.574 . S
C800 C816 1.368 . S
H801 C809 0.950 . S
H802 C807 0.950 . S
H803 C808 0.949 . S
H804 C810 0.950 . S
H805 C811 0.950 . S
H806 C812 0.949 . S
C807 H802 0.950 . S
C807 C809 1.327 . S
C807 C813 1.429 . S
C808 C800 1.574 . S
C808 H803 0.949 . S
C808 C814 1.368 . S
C809 C793 1.349 . S
C809 H801 0.950 . S
C809 C807 1.327 . S
C810 C798 1.349 . S
C810 H804 0.950 . S
C810 C811 1.327 . S
C811 H805 0.950 . S
C811 C810 1.327 . S
C811 C815 1.429 . S
C812 C795 1.574 . S
C812 H806 0.949 . S
C812 C816 1.368 . S
C813 C794 1.429 . S
C813 C807 1.429 . S
C813 C814 1.523 . S
C814 C795 1.368 . S
C814 C808 1.368 . S
C814 C813 1.523 . S
C815 C799 1.429 . S
C815 C811 1.429 . S
C815 C816 1.523 . S
C816 C800 1.368 . S
C816 C812 1.368 . S
C816 C815 1.523 . S
H817 C792 0.950 . S
H818 C794 0.950 . S
H819 C795 0.949 . S
H820 C797 0.950 . S
H821 C799 0.950 . S
C822 C823 1.349 . S
C822 C824 1.327 . S
C822 H847 0.950 . S
C823 C822 1.349 . S
C823 C839 1.349 . S
C824 C822 1.327 . S
C824 C843 1.429 . S
C824 H848 0.950 . S
C825 C842 1.574 . S
C825 C844 1.368 . S
C825 H849 0.949 . S
H826 C830 0.949 . S
C827 C828 1.349 . S
C827 C829 1.327 . S
C827 H850 0.950 . S
C828 C827 1.349 . S
C828 C840 1.349 . S
C829 C827 1.327 . S
C829 C845 1.429 . S
C829 H851 0.950 . S
C830 H826 0.949 . S
C830 C838 1.574 . S
C830 C846 1.368 . S
H831 C839 0.950 . S
H832 C837 0.950 . S
H833 C838 0.949 . S
H834 C840 0.950 . S
H835 C841 0.950 . S
H836 C842 0.949 . S
C837 H832 0.950 . S
C837 C839 1.327 . S
C837 C843 1.429 . S
C838 C830 1.574 . S
C838 H833 0.949 . S
C838 C844 1.368 . S
C839 C823 1.349 . S
C839 H831 0.950 . S
C839 C837 1.327 . S
C840 C828 1.349 . S
C840 H834 0.950 . S
C840 C841 1.327 . S
C841 H835 0.950 . S
C841 C840 1.327 . S
C841 C845 1.429 . S
C842 C825 1.574 . S
C842 H836 0.949 . S
C842 C846 1.368 . S
C843 C824 1.429 . S
C843 C837 1.429 . S
C843 C844 1.523 . S
C844 C825 1.368 . S
C844 C838 1.368 . S
C844 C843 1.523 . S
C845 C829 1.429 . S
C845 C841 1.429 . S
C845 C846 1.523 . S
C846 C830 1.368 . S
C846 C842 1.368 . S
C846 C845 1.523 . S
H847 C822 0.950 . S
H848 C824 0.950 . S
H849 C825 0.949 . S
H850 C827 0.950 . S
H851 C829 0.950 . S
C852 C853 1.349 . S
C852 C854 1.327 . S
C852 H877 0.950 . S
C853 C852 1.349 . S
C853 C869 1.349 . S
C854 C852 1.327 . S
C854 C873 1.429 . S
C854 H878 0.950 . S
C855 C872 1.574 . S
C855 C874 1.368 . S
C855 H879 0.949 . S
H856 C860 0.949 . S
C857 C858 1.349 . S
C857 C859 1.327 . S
C857 H880 0.950 . S
C858 C857 1.349 . S
C858 C870 1.349 . S
C859 C857 1.327 . S
C859 C875 1.429 . S
C859 H881 0.950 . S
C860 H856 0.949 . S
C860 C868 1.574 . S
C860 C876 1.368 . S
H861 C869 0.950 . S
H862 C867 0.950 . S
H863 C868 0.949 . S
H864 C870 0.950 . S
H865 C871 0.950 . S
H866 C872 0.949 . S
C867 H862 0.950 . S
C867 C869 1.327 . S
C867 C873 1.429 . S
C868 C860 1.574 . S
C868 H863 0.949 . S
C868 C874 1.368 . S
C869 C853 1.349 . S
C869 H861 0.950 . S
C869 C867 1.327 . S
C870 C858 1.349 . S
C870 H864 0.950 . S
C870 C871 1.327 . S
C871 H865 0.950 . S
C871 C870 1.327 . S
C871 C875 1.429 . S
C872 C855 1.574 . S
C872 H866 0.949 . S
C872 C876 1.368 . S
C873 C854 1.429 . S
C873 C867 1.429 . S
C873 C874 1.523 . S
C874 C855 1.368 . S
C874 C868 1.368 . S
C874 C873 1.523 . S
C875 C859 1.429 . S
C875 C871 1.429 . S
C875 C876 1.523 . S
C876 C860 1.368 . S
C876 C872 1.368 . S
C876 C875 1.523 . S
H877 C852 0.950 . S
H878 C854 0.950 . S
H879 C855 0.949 . S
H880 C857 0.950 . S
H881 C859 0.950 . S
C882 C883 1.349 . S
C882 C884 1.327 . S
C882 H907 0.950 . S
C883 C882 1.349 . S
C883 C899 1.349 . S
C884 C882 1.327 . S
C884 C903 1.429 . S
C884 H908 0.950 . S
C885 C902 1.574 . S
C885 C904 1.368 . S
C885 H909 0.949 . S
H886 C890 0.949 . S
C887 C888 1.349 . S
C887 C889 1.327 . S
C887 H910 0.950 . S
C888 C887 1.349 . S
C888 C900 1.349 . S
C889 C887 1.327 . S
C889 C905 1.429 . S
C889 H911 0.950 . S
C890 H886 0.949 . S
C890 C898 1.574 . S
C890 C906 1.368 . S
H891 C899 0.950 . S
H892 C897 0.950 . S
H893 C898 0.949 . S
H894 C900 0.950 . S
H895 C901 0.950 . S
H896 C902 0.949 . S
C897 H892 0.950 . S
C897 C899 1.327 . S
C897 C903 1.429 . S
C898 C890 1.574 . S
C898 H893 0.949 . S
C898 C904 1.368 . S
C899 C883 1.349 . S
C899 H891 0.950 . S
C899 C897 1.327 . S
C900 C888 1.349 . S
C900 H894 0.950 . S
C900 C901 1.327 . S
C901 H895 0.950 . S
C901 C900 1.327 . S
C901 C905 1.429 . S
C902 C885 1.574 . S
C902 H896 0.949 . S
C902 C906 1.368 . S
C903 C884 1.429 . S
C903 C897 1.429 . S
C903 C904 1.523 . S
C904 C885 1.368 . S
C904 C898 1.368 . S
C904 C903 1.523 . S
C905 C889 1.429 . S
C905 C901 1.429 . S
C905 C906 1.523 . S
C906 C890 1.368 . S
C906 C902 1.368 . S
C906 C905 1.523 . S
H907 C882 0.950 . S
H908 C884 0.950 . S
H909 C885 0.949 . S
H910 C887 0.950 . S
H911 C889 0.950 . S
C912 C913 1.349 . S
C912 C914 1.327 . S
C912 H937 0.950 . S
C913 C912 1.349 . S
C913 C929 1.349 . S
C914 C912 1.327 . S
C914 C933 1.429 . S
C914 H938 0.950 . S
C915 C932 1.574 . S
C915 C934 1.368 . S
C915 H939 0.949 . S
H916 C920 0.949 . S
C917 C918 1.349 . S
C917 C919 1.327 . S
C917 H940 0.950 . S
C918 C917 1.349 . S
C918 C930 1.349 . S
C919 C917 1.327 . S
C919 C935 1.429 . S
C919 H941 0.950 . S
C920 H916 0.949 . S
C920 C928 1.574 . S
C920 C936 1.368 . S
H921 C929 0.950 . S
H922 C927 0.950 . S
H923 C928 0.949 . S
H924 C930 0.950 . S
H925 C931 0.950 . S
H926 C932 0.949 . S
C927 H922 0.950 . S
C927 C929 1.327 . S
C927 C933 1.429 . S
C928 C920 1.574 . S
C928 H923 0.949 . S
C928 C934 1.368 . S
C929 C913 1.349 . S
C929 H921 0.950 . S
C929 C927 1.327 . S
C930 C918 1.349 . S
C930 H924 0.950 . S
C930 C931 1.327 . S
C931 H925 0.950 . S
C931 C930 1.327 . S
C931 C935 1.429 . S
C932 C915 1.574 . S
C932 H926 0.949 . S
C932 C936 1.368 . S
C933 C914 1.429 . S
C933 C927 1.429 . S
C933 C934 1.523 . S
C934 C915 1.368 . S
C934 C928 1.368 . S
C934 C933 1.523 . S
C935 C919 1.429 . S
C935 C931 1.429 . S
C935 C936 1.523 . S
C936 C920 1.368 . S
C936 C932 1.368 . S
C936 C935 1.523 . S
H937 C912 0.950 . S
H938 C914 0.950 . S
H939 C915 0.949 . S
H940 C917 0.950 . S
H941 C919 0.950 . S
C942 C943 1.349 . S
C942 C944 1.327 . S
C942 H967 0.950 . S
C943 C942 1.349 . S
C943 C959 1.349 . S
C944 C942 1.327 . S
C944 C963 1.429 . S
C944 H968 0.950 . S
C945 C962 1.574 . S
C945 C964 1.368 . S
C945 H969 0.949 . S
H946 C950 0.949 . S
C947 C948 1.349 . S
C947 C949 1.327 . S
C947 H970 0.950 . S
C948 C947 1.349 . S
C948 C960 1.349 . S
C949 C947 1.327 . S
C949 C965 1.429 . S
C949 H971 0.950 . S
C950 H946 0.949 . S
C950 C958 1.574 . S
C950 C966 1.368 . S
H951 C959 0.950 . S
H952 C957 0.950 . S
H953 C958 0.949 . S
H954 C960 0.950 . S
H955 C961 0.950 . S
H956 C962 0.949 . S
C957 H952 0.950 . S
C957 C959 1.327 . S
C957 C963 1.429 . S
C958 C950 1.574 . S
C958 H953 0.949 . S
C958 C964 1.368 . S
C959 C943 1.349 . S
C959 H951 0.950 . S
C959 C957 1.327 . S
C960 C948 1.349 . S
C960 H954 0.950 . S
C960 C961 1.327 . S
C961 H955 0.950 . S
C961 C960 1.327 . S
C961 C965 1.429 . S
C962 C945 1.574 . S
C962 H956 0.949 . S
C962 C966 1.368 . S
C963 C944 1.429 . S
C963 C957 1.429 . S
C963 C964 1.523 . S
C964 C945 1.368 . S
C964 C958 1.368 . S
C964 C963 1.523 . S
C965 C949 1.429 . S
C965 C961 1.429 . S
C965 C966 1.523 . S
C966 C950 1.368 . S
C966 C962 1.368 . S
C966 C965 1.523 . S
H967 C942 0.950 . S
H968 C944 0.950 . S
H969 C945 0.949 . S
H970 C947 0.950 . S
H971 C949 0.950 . S
C972 C973 1.349 . S
C972 C974 1.327 . S
C972 H997 0.950 . S
C973 C972 1.349 . S
C973 C989 1.349 . S
C974 C972 1.327 . S
C974 C993 1.429 . S
C974 H998 0.950 . S
C975 C992 1.574 . S
C975 C994 1.368 . S
C975 H999 0.949 . S
H976 C980 0.949 . S
C977 C978 1.349 . S
C977 C979 1.327 . S
C977 H1000 0.950 . S
C978 C977 1.349 . S
C978 C990 1.349 . S
C979 C977 1.327 . S
C979 C995 1.429 . S
C979 H1001 0.950 . S
C980 H976 0.949 . S
C980 C988 1.574 . S
C980 C996 1.368 . S
H981 C989 0.950 . S
H982 C987 0.950 . S
H983 C988 0.949 . S
H984 C990 0.950 . S
H985 C991 0.950 . S
H986 C992 0.949 . S
C987 H982 0.950 . S
C987 C989 1.327 . S
C987 C993 1.429 . S
C988 C980 1.574 . S
C988 H983 0.949 . S
C988 C994 1.368 . S
C989 C973 1.349 . S
C989 H981 0.950 . S
C989 C987 1.327 . S
C990 C978 1.349 . S
C990 H984 0.950 . S
C990 C991 1.327 . S
C991 H985 0.950 . S
C991 C990 1.327 . S
C991 C995 1.429 . S
C992 C975 1.574 . S
C992 H986 0.949 . S
C992 C996 1.368 . S
C993 C974 1.429 . S
C993 C987 1.429 . S
C993 C994 1.523 . S
C994 C975 1.368 . S
C994 C988 1.368 . S
C994 C993 1.523 . S
C995 C979 1.429 . S
C995 C991 1.429 . S
C995 C996 1.523 . S
C996 C980 1.368 . S
C996 C992 1.368 . S
C996 C995 1.523 . S
H997 C972 0.950 . S
H998 C974 0.950 . S
H999 C975 0.949 . S
H1000 C977 0.950 . S
H1001 C979 0.950 . S
C1002 C1003 1.349 . S
C1002 C1004 1.327 . S
C1002 H1027 0.950 . S
C1003 C1002 1.349 . S
C1003 C1019 1.349 . S
C1004 C1002 1.327 . S
C1004 C1023 1.429 . S
C1004 H1028 0.950 . S
C1005 C1022 1.574 . S
C1005 C1024 1.368 . S
C1005 H1029 0.949 . S
H1006 C1010 0.949 . S
C1007 C1008 1.349 . S
C1007 C1009 1.327 . S
C1007 H1030 0.950 . S
C1008 C1007 1.349 . S
C1008 C1020 1.349 . S
C1009 C1007 1.327 . S
C1009 C1025 1.429 . S
C1009 H1031 0.950 . S
C1010 H1006 0.949 . S
C1010 C1018 1.574 . S
C1010 C1026 1.368 . S
H1011 C1019 0.950 . S
H1012 C1017 0.950 . S
H1013 C1018 0.949 . S
H1014 C1020 0.950 . S
H1015 C1021 0.950 . S
H1016 C1022 0.949 . S
C1017 H1012 0.950 . S
C1017 C1019 1.327 . S
C1017 C1023 1.429 . S
C1018 C1010 1.574 . S
C1018 H1013 0.949 . S
C1018 C1024 1.368 . S
C1019 C1003 1.349 . S
C1019 H1011 0.950 . S
C1019 C1017 1.327 . S
C1020 C1008 1.349 . S
C1020 H1014 0.950 . S
C1020 C1021 1.327 . S
C1021 H1015 0.950 . S
C1021 C1020 1.327 . S
C1021 C1025 1.429 . S
C1022 C1005 1.574 . S
C1022 H1016 0.949 . S
C1022 C1026 1.368 . S
C1023 C1004 1.429 . S
C1023 C1017 1.429 . S
C1023 C1024 1.523 . S
C1024 C1005 1.368 . S
C1024 C1018 1.368 . S
C1024 C1023 1.523 . S
C1025 C1009 1.429 . S
C1025 C1021 1.429 . S
C1025 C1026 1.523 . S
C1026 C1010 1.368 . S
C1026 C1022 1.368 . S
C1026 C1025 1.523 . S
H1027 C1002 0.950 . S
H1028 C1004 0.950 . S
H1029 C1005 0.949 . S
H1030 C1007 0.950 . S
H1031 C1009 0.950 . S
C1032 C1033 1.349 . S
C1032 C1034 1.327 . S
C1032 H1057 0.950 . S
C1033 C1032 1.349 . S
C1033 C1049 1.349 . S
C1034 C1032 1.327 . S
C1034 C1053 1.429 . S
C1034 H1058 0.950 . S
C1035 C1052 1.574 . S
C1035 C1054 1.368 . S
C1035 H1059 0.949 . S
H1036 C1040 0.949 . S
C1037 C1038 1.349 . S
C1037 C1039 1.327 . S
C1037 H1060 0.950 . S
C1038 C1037 1.349 . S
C1038 C1050 1.349 . S
C1039 C1037 1.327 . S
C1039 C1055 1.429 . S
C1039 H1061 0.950 . S
C1040 H1036 0.949 . S
C1040 C1048 1.574 . S
C1040 C1056 1.368 . S
H1041 C1049 0.950 . S
H1042 C1047 0.950 . S
H1043 C1048 0.949 . S
H1044 C1050 0.950 . S
H1045 C1051 0.950 . S
H1046 C1052 0.949 . S
C1047 H1042 0.950 . S
C1047 C1049 1.327 . S
C1047 C1053 1.429 . S
C1048 C1040 1.574 . S
C1048 H1043 0.949 . S
C1048 C1054 1.368 . S
C1049 C1033 1.349 . S
C1049 H1041 0.950 . S
C1049 C1047 1.327 . S
C1050 C1038 1.349 . S
C1050 H1044 0.950 . S
C1050 C1051 1.327 . S
C1051 H1045 0.950 . S
C1051 C1050 1.327 . S
C1051 C1055 1.429 . S
C1052 C1035 1.574 . S
C1052 H1046 0.949 . S
C1052 C1056 1.368 . S
C1053 C1034 1.429 . S
C1053 C1047 1.429 . S
C1053 C1054 1.523 . S
C1054 C1035 1.368 . S
C1054 C1048 1.368 . S
C1054 C1053 1.523 . S
C1055 C1039 1.429 . S
C1055 C1051 1.429 . S
C1055 C1056 1.523 . S
C1056 C1040 1.368 . S
C1056 C1052 1.368 . S
C1056 C1055 1.523 . S
H1057 C1032 0.950 . S
H1058 C1034 0.950 . S
H1059 C1035 0.949 . S
H1060 C1037 0.950 . S
H1061 C1039 0.950 . S
C1062 C1063 1.349 . S
C1062 C1064 1.327 . S
C1062 H1087 0.950 . S
C1063 C1062 1.349 . S
C1063 C1079 1.349 . S
C1064 C1062 1.327 . S
C1064 C1083 1.429 . S
C1064 H1088 0.950 . S
C1065 C1082 1.574 . S
C1065 C1084 1.368 . S
C1065 H1089 0.949 . S
H1066 C1070 0.949 . S
C1067 C1068 1.349 . S
C1067 C1069 1.327 . S
C1067 H1090 0.950 . S
C1068 C1067 1.349 . S
C1068 C1080 1.349 . S
C1069 C1067 1.327 . S
C1069 C1085 1.429 . S
C1069 H1091 0.950 . S
C1070 H1066 0.949 . S
C1070 C1078 1.574 . S
C1070 C1086 1.368 . S
H1071 C1079 0.950 . S
H1072 C1077 0.950 . S
H1073 C1078 0.949 . S
H1074 C1080 0.950 . S
H1075 C1081 0.950 . S
H1076 C1082 0.949 . S
C1077 H1072 0.950 . S
C1077 C1079 1.327 . S
C1077 C1083 1.429 . S
C1078 C1070 1.574 . S
C1078 H1073 0.949 . S
C1078 C1084 1.368 . S
C1079 C1063 1.349 . S
C1079 H1071 0.950 . S
C1079 C1077 1.327 . S
C1080 C1068 1.349 . S
C1080 H1074 0.950 . S
C1080 C1081 1.327 . S
C1081 H1075 0.950 . S
C1081 C1080 1.327 . S
C1081 C1085 1.429 . S
C1082 C1065 1.574 . S
C1082 H1076 0.949 . S
C1082 C1086 1.368 . S
C1083 C1064 1.429 . S
C1083 C1077 1.429 . S
C1083 C1084 1.523 . S
C1084 C1065 1.368 . S
C1084 C1078 1.368 . S
C1084 C1083 1.523 . S
C1085 C1069 1.429 . S
C1085 C1081 1.429 . S
C1085 C1086 1.523 . S
C1086 C1070 1.368 . S
C1086 C1082 1.368 . S
C1086 C1085 1.523 . S
H1087 C1062 0.950 . S
H1088 C1064 0.950 . S
H1089 C1065 0.949 . S
H1090 C1067 0.950 . S
H1091 C1069 0.950 . S
C1092 C1093 1.349 . S
C1092 C1094 1.327 . S
C1092 H1117 0.950 . S
C1093 C1092 1.349 . S
C1093 C1109 1.349 . S
C1094 C1092 1.327 . S
C1094 C1113 1.429 . S
C1094 H1118 0.950 . S
C1095 C1112 1.574 . S
C1095 C1114 1.368 . S
C1095 H1119 0.949 . S
H1096 C1100 0.949 . S
C1097 C1098 1.349 . S
C1097 C1099 1.327 . S
C1097 H1120 0.950 . S
C1098 C1097 1.349 . S
C1098 C1110 1.349 . S
C1099 C1097 1.327 . S
C1099 C1115 1.429 . S
C1099 H1121 0.950 . S
C1100 H1096 0.949 . S
C1100 C1108 1.574 . S
C1100 C1116 1.368 . S
H1101 C1109 0.950 . S
H1102 C1107 0.950 . S
H1103 C1108 0.949 . S
H1104 C1110 0.950 . S
H1105 C1111 0.950 . S
H1106 C1112 0.949 . S
C1107 H1102 0.950 . S
C1107 C1109 1.327 . S
C1107 C1113 1.429 . S
C1108 C1100 1.574 . S
C1108 H1103 0.949 . S
C1108 C1114 1.368 . S
C1109 C1093 1.349 . S
C1109 H1101 0.950 . S
C1109 C1107 1.327 . S
C1110 C1098 1.349 . S
C1110 H1104 0.950 . S
C1110 C1111 1.327 . S
C1111 H1105 0.950 . S
C1111 C1110 1.327 . S
C1111 C1115 1.429 . S
C1112 C1095 1.574 . S
C1112 H1106 0.949 . S
C1112 C1116 1.368 . S
C1113 C1094 1.429 . S
C1113 C1107 1.429 . S
C1113 C1114 1.523 . S
C1114 C1095 1.368 . S
C1114 C1108 1.368 . S
C1114 C1113 1.523 . S
C1115 C1099 1.429 . S
C1115 C1111 1.429 . S
C1115 C1116 1.523 . S
C1116 C1100 1.368 . S
C1116 C1112 1.368 . S
C1116 C1115 1.523 . S
H1117 C1092 0.950 . S
H1118 C1094 0.950 . S
H1119 C1095 0.949 . S
H1120 C1097 0.950 . S
H1121 C1099 0.950 . S
C1122 C1123 1.349 . S
C1122 C1124 1.327 . S
C1122 H1147 0.950 . S
C1123 C1122 1.349 . S
C1123 C1139 1.349 . S
C1124 C1122 1.327 . S
C1124 C1143 1.429 . S
C1124 H1148 0.950 . S
C1125 C1142 1.574 . S
C1125 C1144 1.368 . S
C1125 H1149 0.949 . S
H1126 C1130 0.949 . S
C1127 C1128 1.349 . S
C1127 C1129 1.327 . S
C1127 H1150 0.950 . S
C1128 C1127 1.349 . S
C1128 C1140 1.349 . S
C1129 C1127 1.327 . S
C1129 C1145 1.429 . S
C1129 H1151 0.950 . S
C1130 H1126 0.949 . S
C1130 C1138 1.574 . S
C1130 C1146 1.368 . S
H1131 C1139 0.950 . S
H1132 C1137 0.950 . S
H1133 C1138 0.949 . S
H1134 C1140 0.950 . S
H1135 C1141 0.950 . S
H1136 C1142 0.949 . S
C1137 H1132 0.950 . S
C1137 C1139 1.327 . S
C1137 C1143 1.429 . S
C1138 C1130 1.574 . S
C1138 H1133 0.949 . S
C1138 C1144 1.368 . S
C1139 C1123 1.349 . S
C1139 H1131 0.950 . S
C1139 C1137 1.327 . S
C1140 C1128 1.349 . S
C1140 H1134 0.950 . S
C1140 C1141 1.327 . S
C1141 H1135 0.950 . S
C1141 C1140 1.327 . S
C1141 C1145 1.429 . S
C1142 C1125 1.574 . S
C1142 H1136 0.949 . S
C1142 C1146 1.368 . S
C1143 C1124 1.429 . S
C1143 C1137 1.429 . S
C1143 C1144 1.523 . S
C1144 C1125 1.368 . S
C1144 C1138 1.368 . S
C1144 C1143 1.523 . S
C1145 C1129 1.429 . S
C1145 C1141 1.429 . S
C1145 C1146 1.523 . S
C1146 C1130 1.368 . S
C1146 C1142 1.368 . S
C1146 C1145 1.523 . S
H1147 C1122 0.950 . S
H1148 C1124 0.950 . S
H1149 C1125 0.949 . S
H1150 C1127 0.950 . S
H1151 C1129 0.950 . S
C1152 C1153 1.349 . S
C1152 C1154 1.327 . S
C1152 H1177 0.950 . S
C1153 C1152 1.349 . S
C1153 C1169 1.349 . S
C1154 C1152 1.327 . S
C1154 C1173 1.429 . S
C1154 H1178 0.950 . S
C1155 C1172 1.574 . S
C1155 C1174 1.368 . S
C1155 H1179 0.949 . S
H1156 C1160 0.949 . S
C1157 C1158 1.349 . S
C1157 C1159 1.327 . S
C1157 H1180 0.950 . S
C1158 C1157 1.349 . S
C1158 C1170 1.349 . S
C1159 C1157 1.327 . S
C1159 C1175 1.429 . S
C1159 H1181 0.950 . S
C1160 H1156 0.949 . S
C1160 C1168 1.574 . S
C1160 C1176 1.368 . S
H1161 C1169 0.950 . S
H1162 C1167 0.950 . S
H1163 C1168 0.949 . S
H1164 C1170 0.950 . S
H1165 C1171 0.950 . S
H1166 C1172 0.949 . S
C1167 H1162 0.950 . S
C1167 C1169 1.327 . S
C1167 C1173 1.429 . S
C1168 C1160 1.574 . S
C1168 H1163 0.949 . S
C1168 C1174 1.368 . S
C1169 C1153 1.349 . S
C1169 H1161 0.950 . S
C1169 C1167 1.327 . S
C1170 C1158 1.349 . S
C1170 H1164 0.950 . S
C1170 C1171 1.327 . S
C1171 H1165 0.950 . S
C1171 C1170 1.327 . S
C1171 C1175 1.429 . S
C1172 C1155 1.574 . S
C1172 H1166 0.949 . S
C1172 C1176 1.368 . S
C1173 C1154 1.429 . S
C1173 C1167 1.429 . S
C1173 C1174 1.523 . S
C1174 C1155 1.368 . S
C1174 C1168 1.368 . S
C1174 C1173 1.523 . S
C1175 C1159 1.429 . S
C1175 C1171 1.429 . S
C1175 C1176 1.523 . S
C1176 C1160 1.368 . S
C1176 C1172 1.368 . S
C1176 C1175 1.523 . S
H1177 C1152 0.950 . S
H1178 C1154 0.950 . S
H1179 C1155 0.949 . S
H1180 C1157 0.950 . S
H1181 C1159 0.950 . S
C1182 C1183 1.349 . S
C1182 C1184 1.327 . S
C1182 H1207 0.950 . S
C1183 C1182 1.349 . S
C1183 C1199 1.349 . S
C1184 C1182 1.327 . S
C1184 C1203 1.429 . S
C1184 H1208 0.950 . S
C1185 C1202 1.574 . S
C1185 C1204 1.368 . S
C1185 H1209 0.949 . S
H1186 C1190 0.949 . S
C1187 C1188 1.349 . S
C1187 C1189 1.327 . S
C1187 H1210 0.950 . S
C1188 C1187 1.349 . S
C1188 C1200 1.349 . S
C1189 C1187 1.327 . S
C1189 C1205 1.429 . S
C1189 H1211 0.950 . S
C1190 H1186 0.949 . S
C1190 C1198 1.574 . S
C1190 C1206 1.368 . S
H1191 C1199 0.950 . S
H1192 C1197 0.950 . S
H1193 C1198 0.949 . S
H1194 C1200 0.950 . S
H1195 C1201 0.950 . S
H1196 C1202 0.949 . S
C1197 H1192 0.950 . S
C1197 C1199 1.327 . S
C1197 C1203 1.429 . S
C1198 C1190 1.574 . S
C1198 H1193 0.949 . S
C1198 C1204 1.368 . S
C1199 C1183 1.349 . S
C1199 H1191 0.950 . S
C1199 C1197 1.327 . S
C1200 C1188 1.349 . S
C1200 H1194 0.950 . S
C1200 C1201 1.327 . S
C1201 H1195 0.950 . S
C1201 C1200 1.327 . S
C1201 C1205 1.429 . S
C1202 C1185 1.574 . S
C1202 H1196 0.949 . S
C1202 C1206 1.368 . S
C1203 C1184 1.429 . S
C1203 C1197 1.429 . S
C1203 C1204 1.523 . S
C1204 C1185 1.368 . S
C1204 C1198 1.368 . S
C1204 C1203 1.523 . S
C1205 C1189 1.429 . S
C1205 C1201 1.429 . S
C1205 C1206 1.523 . S
C1206 C1190 1.368 . S
C1206 C1202 1.368 . S
C1206 C1205 1.523 . S
H1207 C1182 0.950 . S
H1208 C1184 0.950 . S
H1209 C1185 0.949 . S
H1210 C1187 0.950 . S
H1211 C1189 0.950 . S
C1212 C1213 1.349 . S
C1212 C1214 1.327 . S
C1212 H1237 0.950 . S
C1213 C1212 1.349 . S
C1213 C1229 1.349 . S
C1214 C1212 1.327 . S
C1214 C1233 1.429 . S
C1214 H1238 0.950 . S
C1215 C1232 1.574 . S
C1215 C1234 1.368 . S
C1215 H1239 0.949 . S
H1216 C1220 0.949 . S
C1217 C1218 1.349 . S
C1217 C1219 1.327 . S
C1217 H1240 0.950 . S
C1218 C1217 1.349 . S
C1218 C1230 1.349 . S
C1219 C1217 1.327 . S
C1219 C1235 1.429 . S
C1219 H1241 0.950 . S
C1220 H1216 0.949 . S
C1220 C1228 1.574 . S
C1220 C1236 1.368 . S
H1221 C1229 0.950 . S
H1222 C1227 0.950 . S
H1223 C1228 0.949 . S
H1224 C1230 0.950 . S
H1225 C1231 0.950 . S
H1226 C1232 0.949 . S
C1227 H1222 0.950 . S
C1227 C1229 1.327 . S
C1227 C1233 1.429 . S
C1228 C1220 1.574 . S
C1228 H1223 0.949 . S
C1228 C1234 1.368 . S
C1229 C1213 1.349 . S
C1229 H1221 0.950 . S
C1229 C1227 1.327 . S
C1230 C1218 1.349 . S
C1230 H1224 0.950 . S
C1230 C1231 1.327 . S
C1231 H1225 0.950 . S
C1231 C1230 1.327 . S
C1231 C1235 1.429 . S
C1232 C1215 1.574 . S
C1232 H1226 0.949 . S
C1232 C1236 1.368 . S
C1233 C1214 1.429 . S
C1233 C1227 1.429 . S
C1233 C1234 1.523 . S
C1234 C1215 1.368 . S
C1234 C1228 1.368 . S
C1234 C1233 1.523 . S
C1235 C1219 1.429 . S
C1235 C1231 1.429 . S
C1235 C1236 1.523 . S
C1236 C1220 1.368 . S
C1236 C1232 1.368 . S
C1236 C1235 1.523 . S
H1237 C1212 0.950 . S
H1238 C1214 0.950 . S
H1239 C1215 0.949 . S
H1240 C1217 0.950 . S
H1241 C1219 0.950 . S
C1242 C1243 1.349 . S
C1242 C1244 1.327 . S
C1242 H1267 0.950 . S
C1243 C1242 1.349 . S
C1243 C1259 1.349 . S
C1244 C1242 1.327 . S
C1244 C1263 1.429 . S
C1244 H1268 0.950 . S
C1245 C1262 1.574 . S
C1245 C1264 1.368 . S
C1245 H1269 0.949 . S
H1246 C1250 0.949 . S
C1247 C1248 1.349 . S
C1247 C1249 1.327 . S
C1247 H1270 0.950 . S
C1248 C1247 1.349 . S
C1248 C1260 1.349 . S
C1249 C1247 1.327 . S
C1249 C1265 1.429 . S
C1249 H1271 0.950 . S
C1250 H1246 0.949 . S
C1250 C1258 1.574 . S
C1250 C1266 1.368 . S
H1251 C1259 0.950 . S
H1252 C1257 0.950 . S
H1253 C1258 0.949 . S
H1254 C1260 0.950 . S
H1255 C1261 0.950 . S
H1256 C1262 0.949 . S
C1257 H1252 0.950 . S
C1257 C1259 1.327 . S
C1257 C1263 1.429 . S
C1258 C1250 1.574 . S
C1258 H1253 0.949 . S
C1258 C1264 1.368 . S
C1259 C1243 1.349 . S
C1259 H1251 0.950 . S
C1259 C1257 1.327 . S
C1260 C1248 1.349 . S
C1260 H1254 0.950 . S
C1260 C1261 1.327 . S
C1261 H1255 0.950 . S
C1261 C1260 1.327 . S
C1261 C1265 1.429 . S
C1262 C1245 1.574 . S
C1262 H1256 0.949 . S
C1262 C1266 1.368 . S
C1263 C1244 1.429 . S
C1263 C1257 1.429 . S
C1263 C1264 1.523 . S
C1264 C1245 1.368 . S
C1264 C1258 1.368 . S
C1264 C1263 1.523 . S
C1265 C1249 1.429 . S
C1265 C1261 1.429 . S
C1265 C1266 1.523 . S
C1266 C1250 1.368 . S
C1266 C1262 1.368 . S
C1266 C1265 1.523 . S
H1267 C1242 0.950 . S
H1268 C1244 0.950 . S
H1269 C1245 0.949 . S
H1270 C1247 0.950 . S
H1271 C1249 0.950 . S
C1272 C1273 1.349 . S
C1272 C1274 1.327 . S
C1272 H1297 0.950 . S
C1273 C1272 1.349 . S
C1273 C1289 1.349 . S
C1274 C1272 1.327 . S
C1274 C1293 1.429 . S
C1274 H1298 0.950 . S
C1275 C1292 1.574 . S
C1275 C1294 1.368 . S
C1275 H1299 0.949 . S
H1276 C1280 0.949 . S
C1277 C1278 1.349 . S
C1277 C1279 1.327 . S
C1277 H1300 0.950 . S
C1278 C1277 1.349 . S
C1278 C1290 1.349 . S
C1279 C1277 1.327 . S
C1279 C1295 1.429 . S
C1279 H1301 0.950 . S
C1280 H1276 0.949 . S
C1280 C1288 1.574 . S
C1280 C1296 1.368 . S
H1281 C1289 0.950 . S
H1282 C1287 0.950 . S
H1283 C1288 0.949 . S
H1284 C1290 0.950 . S
H1285 C1291 0.950 . S
H1286 C1292 0.949 . S
C1287 H1282 0.950 . S
C1287 C1289 1.327 . S
C1287 C1293 1.429 . S
C1288 C1280 1.574 . S
C1288 H1283 0.949 . S
C1288 C1294 1.368 . S
C1289 C1273 1.349 . S
C1289 H1281 0.950 . S
C1289 C1287 1.327 . S
C1290 C1278 1.349 . S
C1290 H1284 0.950 . S
C1290 C1291 1.327 . S
C1291 H1285 0.950 . S
C1291 C1290 1.327 . S
C1291 C1295 1.429 . S
C1292 C1275 1.574 . S
C1292 H1286 0.949 . S
C1292 C1296 1.368 . S
C1293 C1274 1.429 . S
C1293 C1287 1.429 . S
C1293 C1294 1.523 . S
C1294 C1275 1.368 . S
C1294 C1288 1.368 . S
C1294 C1293 1.523 . S
C1295 C1279 1.429 . S
C1295 C1291 1.429 . S
C1295 C1296 1.523 . S
C1296 C1280 1.368 . S
C1296 C1292 1.368 . S
C1296 C1295 1.523 . S
H1297 C1272 0.950 . S
H1298 C1274 0.950 . S
H1299 C1275 0.949 . S
H1300 C1277 0.950 . S
H1301 C1279 0.950 . S
C1302 C1303 1.349 . S
C1302 C1304 1.327 . S
C1302 H1327 0.950 . S
C1303 C1302 1.349 . S
C1303 C1319 1.349 . S
C1304 C1302 1.327 . S
C1304 C1323 1.429 . S
C1304 H1328 0.950 . S
C1305 C1322 1.574 . S
C1305 C1324 1.368 . S
C1305 H1329 0.949 . S
H1306 C1310 0.949 . S
C1307 C1308 1.349 . S
C1307 C1309 1.327 . S
C1307 H1330 0.950 . S
C1308 C1307 1.349 . S
C1308 C1320 1.349 . S
C1309 C1307 1.327 . S
C1309 C1325 1.429 . S
C1309 H1331 0.950 . S
C1310 H1306 0.949 . S
C1310 C1318 1.574 . S
C1310 C1326 1.368 . S
H1311 C1319 0.950 . S
H1312 C1317 0.950 . S
H1313 C1318 0.949 . S
H1314 C1320 0.950 . S
H1315 C1321 0.950 . S
H1316 C1322 0.949 . S
C1317 H1312 0.950 . S
C1317 C1319 1.327 . S
C1317 C1323 1.429 . S
C1318 C1310 1.574 . S
C1318 H1313 0.949 . S
C1318 C1324 1.368 . S
C1319 C1303 1.349 . S
C1319 H1311 0.950 . S
C1319 C1317 1.327 . S
C1320 C1308 1.349 . S
C1320 H1314 0.950 . S
C1320 C1321 1.327 . S
C1321 H1315 0.950 . S
C1321 C1320 1.327 . S
C1321 C1325 1.429 . S
C1322 C1305 1.574 . S
C1322 H1316 0.949 . S
C1322 C1326 1.368 . S
C1323 C1304 1.429 . S
C1323 C1317 1.429 . S
C1323 C1324 1.523 . S
C1324 C1305 1.368 . S
C1324 C1318 1.368 . S
C1324 C1323 1.523 . S
C1325 C1309 1.429 . S
C1325 C1321 1.429 . S
C1325 C1326 1.523 . S
C1326 C1310 1.368 . S
C1326 C1322 1.368 . S
C1326 C1325 1.523 . S
H1327 C1302 0.950 . S
H1328 C1304 0.950 . S
H1329 C1305 0.949 . S
H1330 C1307 0.950 . S
H1331 C1309 0.950 . S
C1332 C1333 1.349 . S
C1332 C1334 1.327 . S
C1332 H1357 0.950 . S
C1333 C1332 1.349 . S
C1333 C1349 1.349 . S
C1334 C1332 1.327 . S
C1334 C1353 1.429 . S
C1334 H1358 0.950 . S
C1335 C1352 1.574 . S
C1335 C1354 1.368 . S
C1335 H1359 0.949 . S
H1336 C1340 0.949 . S
C1337 C1338 1.349 . S
C1337 C1339 1.327 . S
C1337 H1360 0.950 . S
C1338 C1337 1.349 . S
C1338 C1350 1.349 . S
C1339 C1337 1.327 . S
C1339 C1355 1.429 . S
C1339 H1361 0.950 . S
C1340 H1336 0.949 . S
C1340 C1348 1.574 . S
C1340 C1356 1.368 . S
H1341 C1349 0.950 . S
H1342 C1347 0.950 . S
H1343 C1348 0.949 . S
H1344 C1350 0.950 . S
H1345 C1351 0.950 . S
H1346 C1352 0.949 . S
C1347 H1342 0.950 . S
C1347 C1349 1.327 . S
C1347 C1353 1.429 . S
C1348 C1340 1.574 . S
C1348 H1343 0.949 . S
C1348 C1354 1.368 . S
C1349 C1333 1.349 . S
C1349 H1341 0.950 . S
C1349 C1347 1.327 . S
C1350 C1338 1.349 . S
C1350 H1344 0.950 . S
C1350 C1351 1.327 . S
C1351 H1345 0.950 . S
C1351 C1350 1.327 . S
C1351 C1355 1.429 . S
C1352 C1335 1.574 . S
C1352 H1346 0.949 . S
C1352 C1356 1.368 . S
C1353 C1334 1.429 . S
C1353 C1347 1.429 . S
C1353 C1354 1.523 . S
C1354 C1335 1.368 . S
C1354 C1348 1.368 . S
C1354 C1353 1.523 . S
C1355 C1339 1.429 . S
C1355 C1351 1.429 . S
C1355 C1356 1.523 . S
C1356 C1340 1.368 . S
C1356 C1352 1.368 . S
C1356 C1355 1.523 . S
H1357 C1332 0.950 . S
H1358 C1334 0.950 . S
H1359 C1335 0.949 . S
H1360 C1337 0.950 . S
H1361 C1339 0.950 . S
C1362 C1363 1.349 . S
C1362 C1364 1.327 . S
C1362 H1387 0.950 . S
C1363 C1362 1.349 . S
C1363 C1379 1.349 . S
C1364 C1362 1.327 . S
C1364 C1383 1.429 . S
C1364 H1388 0.950 . S
C1365 C1382 1.574 . S
C1365 C1384 1.368 . S
C1365 H1389 0.949 . S
H1366 C1370 0.949 . S
C1367 C1368 1.349 . S
C1367 C1369 1.327 . S
C1367 H1390 0.950 . S
C1368 C1367 1.349 . S
C1368 C1380 1.349 . S
C1369 C1367 1.327 . S
C1369 C1385 1.429 . S
C1369 H1391 0.950 . S
C1370 H1366 0.949 . S
C1370 C1378 1.574 . S
C1370 C1386 1.368 . S
H1371 C1379 0.950 . S
H1372 C1377 0.950 . S
H1373 C1378 0.949 . S
H1374 C1380 0.950 . S
H1375 C1381 0.950 . S
H1376 C1382 0.949 . S
C1377 H1372 0.950 . S
C1377 C1379 1.327 . S
C1377 C1383 1.429 . S
C1378 C1370 1.574 . S
C1378 H1373 0.949 . S
C1378 C1384 1.368 . S
C1379 C1363 1.349 . S
C1379 H1371 0.950 . S
C1379 C1377 1.327 . S
C1380 C1368 1.349 . S
C1380 H1374 0.950 . S
C1380 C1381 1.327 . S
C1381 H1375 0.950 . S
C1381 C1380 1.327 . S
C1381 C1385 1.429 . S
C1382 C1365 1.574 . S
C1382 H1376 0.949 . S
C1382 C1386 1.368 . S
C1383 C1364 1.429 . S
C1383 C1377 1.429 . S
C1383 C1384 1.523 . S
C1384 C1365 1.368 . S
C1384 C1378 1.368 . S
C1384 C1383 1.523 . S
C1385 C1369 1.429 . S
C1385 C1381 1.429 . S
C1385 C1386 1.523 . S
C1386 C1370 1.368 . S
C1386 C1382 1.368 . S
C1386 C1385 1.523 . S
H1387 C1362 0.950 . S
H1388 C1364 0.950 . S
H1389 C1365 0.949 . S
H1390 C1367 0.950 . S
H1391 C1369 0.950 . S
C1392 C1393 1.349 . S
C1392 C1394 1.327 . S
C1392 H1417 0.950 . S
C1393 C1392 1.349 . S
C1393 C1409 1.349 . S
C1394 C1392 1.327 . S
C1394 C1413 1.429 . S
C1394 H1418 0.950 . S
C1395 C1412 1.574 . S
C1395 C1414 1.368 . S
C1395 H1419 0.949 . S
H1396 C1400 0.949 . S
C1397 C1398 1.349 . S
C1397 C1399 1.327 . S
C1397 H1420 0.950 . S
C1398 C1397 1.349 . S
C1398 C1410 1.349 . S
C1399 C1397 1.327 . S
C1399 C1415 1.429 . S
C1399 H1421 0.950 . S
C1400 H1396 0.949 . S
C1400 C1408 1.574 . S
C1400 C1416 1.368 . S
H1401 C1409 0.950 . S
H1402 C1407 0.950 . S
H1403 C1408 0.949 . S
H1404 C1410 0.950 . S
H1405 C1411 0.950 . S
H1406 C1412 0.949 . S
C1407 H1402 0.950 . S
C1407 C1409 1.327 . S
C1407 C1413 1.429 . S
C1408 C1400 1.574 . S
C1408 H1403 0.949 . S
C1408 C1414 1.368 . S
C1409 C1393 1.349 . S
C1409 H1401 0.950 . S
C1409 C1407 1.327 . S
C1410 C1398 1.349 . S
C1410 H1404 0.950 . S
C1410 C1411 1.327 . S
C1411 H1405 0.950 . S
C1411 C1410 1.327 . S
C1411 C1415 1.429 . S
C1412 C1395 1.574 . S
C1412 H1406 0.949 . S
C1412 C1416 1.368 . S
C1413 C1394 1.429 . S
C1413 C1407 1.429 . S
C1413 C1414 1.523 . S
C1414 C1395 1.368 . S
C1414 C1408 1.368 . S
C1414 C1413 1.523 . S
C1415 C1399 1.429 . S
C1415 C1411 1.429 . S
C1415 C1416 1.523 . S
C1416 C1400 1.368 . S
C1416 C1412 1.368 . S
C1416 C1415 1.523 . S
H1417 C1392 0.950 . S
H1418 C1394 0.950 . S
H1419 C1395 0.949 . S
H1420 C1397 0.950 . S
H1421 C1399 0.950 . S
C1422 C1423 1.349 . S
C1422 C1424 1.327 . S
C1422 H1447 0.950 . S
C1423 C1422 1.349 . S
C1423 C1439 1.349 . S
C1424 C1422 1.327 . S
C1424 C1443 1.429 . S
C1424 H1448 0.950 . S
C1425 C1442 1.574 . S
C1425 C1444 1.368 . S
C1425 H1449 0.949 . S
H1426 C1430 0.949 . S
C1427 C1428 1.349 . S
C1427 C1429 1.327 . S
C1427 H1450 0.950 . S
C1428 C1427 1.349 . S
C1428 C1440 1.349 . S
C1429 C1427 1.327 . S
C1429 C1445 1.429 . S
C1429 H1451 0.950 . S
C1430 H1426 0.949 . S
C1430 C1438 1.574 . S
C1430 C1446 1.368 . S
H1431 C1439 0.950 . S
H1432 C1437 0.950 . S
H1433 C1438 0.949 . S
H1434 C1440 0.950 . S
H1435 C1441 0.950 . S
H1436 C1442 0.949 . S
C1437 H1432 0.950 . S
C1437 C1439 1.327 . S
C1437 C1443 1.429 . S
C1438 C1430 1.574 . S
C1438 H1433 0.949 . S
C1438 C1444 1.368 . S
C1439 C1423 1.349 . S
C1439 H1431 0.950 . S
C1439 C1437 1.327 . S
C1440 C1428 1.349 . S
C1440 H1434 0.950 . S
C1440 C1441 1.327 . S
C1441 H1435 0.950 . S
C1441 C1440 1.327 . S
C1441 C1445 1.429 . S
C1442 C1425 1.574 . S
C1442 H1436 0.949 . S
C1442 C1446 1.368 . S
C1443 C1424 1.429 . S
C1443 C1437 1.429 . S
C1443 C1444 1.523 . S
C1444 C1425 1.368 . S
C1444 C1438 1.368 . S
C1444 C1443 1.523 . S
C1445 C1429 1.429 . S
C1445 C1441 1.429 . S
C1445 C1446 1.523 . S
C1446 C1430 1.368 . S
C1446 C1442 1.368 . S
C1446 C1445 1.523 . S
H1447 C1422 0.950 . S
H1448 C1424 0.950 . S
H1449 C1425 0.949 . S
H1450 C1427 0.950 . S
H1451 C1429 0.950 . S
C1452 C1453 1.349 . S
C1452 C1454 1.327 . S
C1452 H1477 0.950 . S
C1453 C1452 1.349 . S
C1453 C1469 1.349 . S
C1454 C1452 1.327 . S
C1454 C1473 1.429 . S
C1454 H1478 0.950 . S
C1455 C1472 1.574 . S
C1455 C1474 1.368 . S
C1455 H1479 0.949 . S
H1456 C1460 0.949 . S
C1457 C1458 1.349 . S
C1457 C1459 1.327 . S
C1457 H1480 0.950 . S
C1458 C1457 1.349 . S
C1458 C1470 1.349 . S
C1459 C1457 1.327 . S
C1459 C1475 1.429 . S
C1459 H1481 0.950 . S
C1460 H1456 0.949 . S
C1460 C1468 1.574 . S
C1460 C1476 1.368 . S
H1461 C1469 0.950 . S
H1462 C1467 0.950 . S
H1463 C1468 0.949 . S
H1464 C1470 0.950 . S
H1465 C1471 0.950 . S
H1466 C1472 0.949 . S
C1467 H1462 0.950 . S
C1467 C1469 1.327 . S
C1467 C1473 1.429 . S
C1468 C1460 1.574 . S
C1468 H1463 0.949 . S
C1468 C1474 1.368 . S
C1469 C1453 1.349 . S
C1469 H1461 0.950 . S
C1469 C1467 1.327 . S
C1470 C1458 1.349 . S
C1470 H1464 0.950 . S
C1470 C1471 1.327 . S
C1471 H1465 0.950 . S
C1471 C1470 1.327 . S
C1471 C1475 1.429 . S
C1472 C1455 1.574 . S
C1472 H1466 0.949 . S
C1472 C1476 1.368 . S
C1473 C1454 1.429 . S
C1473 C1467 1.429 . S
C1473 C1474 1.523 . S
C1474 C1455 1.368 . S
C1474 C1468 1.368 . S
C1474 C1473 1.523 . S
C1475 C1459 1.429 . S
C1475 C1471 1.429 . S
C1475 C1476 1.523 . S
C1476 C1460 1.368 . S
C1476 C1472 1.368 . S
C1476 C1475 1.523 . S
H1477 C1452 0.950 . S
H1478 C1454 0.950 . S
H1479 C1455 0.949 . S
H1480 C1457 0.950 . S
H1481 C1459 0.950 . S
C1482 C1483 1.349 . S
C1482 C1484 1.327 . S
C1482 H1507 0.950 . S
C1483 C1482 1.349 . S
C1483 C1499 1.349 . S
C1484 C1482 1.327 . S
C1484 C1503 1.429 . S
C1484 H1508 0.950 . S
C1485 C1502 1.574 . S
C1485 C1504 1.368 . S
C1485 H1509 0.949 . S
H1486 C1490 0.949 . S
C1487 C1488 1.349 . S
C1487 C1489 1.327 . S
C1487 H1510 0.950 . S
C1488 C1487 1.349 . S
C1488 C1500 1.349 . S
C1489 C1487 1.327 . S
C1489 C1505 1.429 . S
C1489 H1511 0.950 . S
C1490 H1486 0.949 . S
C1490 C1498 1.574 . S
C1490 C1506 1.368 . S
H1491 C1499 0.950 . S
H1492 C1497 0.950 . S
H1493 C1498 0.949 . S
H1494 C1500 0.950 . S
H1495 C1501 0.950 . S
H1496 C1502 0.949 . S
C1497 H1492 0.950 . S
C1497 C1499 1.327 . S
C1497 C1503 1.429 . S
C1498 C1490 1.574 . S
C1498 H1493 0.949 . S
C1498 C1504 1.368 . S
C1499 C1483 1.349 . S
C1499 H1491 0.950 . S
C1499 C1497 1.327 . S
C1500 C1488 1.349 . S
C1500 H1494 0.950 . S
C1500 C1501 1.327 . S
C1501 H1495 0.950 . S
C1501 C1500 1.327 . S
C1501 C1505 1.429 . S
C1502 C1485 1.574 . S
C1502 H1496 0.949 . S
C1502 C1506 1.368 . S
C1503 C1484 1.429 . S
C1503 C1497 1.429 . S
C1503 C1504 1.523 . S
C1504 C1485 1.368 . S
C1504 C1498 1.368 . S
C1504 C1503 1.523 . S
C1505 C1489 1.429 . S
C1505 C1501 1.429 . S
C1505 C1506 1.523 . S
C1506 C1490 1.368 . S
C1506 C1502 1.368 . S
C1506 C1505 1.523 . S
H1507 C1482 0.950 . S
H1508 C1484 0.950 . S
H1509 C1485 0.949 . S
H1510 C1487 0.950 . S
H1511 C1489 0.950 . S
C1512 C1513 1.349 . S
C1512 C1514 1.327 . S
C1512 H1537 0.950 . S
C1513 C1512 1.349 . S
C1513 C1529 1.349 . S
C1514 C1512 1.327 . S
C1514 C1533 1.429 . S
C1514 H1538 0.950 . S
C1515 C1532 1.574 . S
C1515 C1534 1.368 . S
C1515 H1539 0.949 . S
H1516 C1520 0.949 . S
C1517 C1518 1.349 . S
C1517 C1519 1.327 . S
C1517 H1540 0.950 . S
C1518 C1517 1.349 . S
C1518 C1530 1.349 . S
C1519 C1517 1.327 . S
C1519 C1535 1.429 . S
C1519 H1541 0.950 . S
C1520 H1516 0.949 . S
C1520 C1528 1.574 . S
C1520 C1536 1.368 . S
H1521 C1529 0.950 . S
H1522 C1527 0.950 . S
H1523 C1528 0.949 . S
H1524 C1530 0.950 . S
H1525 C1531 0.950 . S
H1526 C1532 0.949 . S
C1527 H1522 0.950 . S
C1527 C1529 1.327 . S
C1527 C1533 1.429 . S
C1528 C1520 1.574 . S
C1528 H1523 0.949 . S
C1528 C1534 1.368 . S
C1529 C1513 1.349 . S
C1529 H1521 0.950 . S
C1529 C1527 1.327 . S
C1530 C1518 1.349 . S
C1530 H1524 0.950 . S
C1530 C1531 1.327 . S
C1531 H1525 0.950 . S
C1531 C1530 1.327 . S
C1531 C1535 1.429 . S
C1532 C1515 1.574 . S
C1532 H1526 0.949 . S
C1532 C1536 1.368 . S
C1533 C1514 1.429 . S
C1533 C1527 1.429 . S
C1533 C1534 1.523 . S
C1534 C1515 1.368 . S
C1534 C1528 1.368 . S
C1534 C1533 1.523 . S
C1535 C1519 1.429 . S
C1535 C1531 1.429 . S
C1535 C1536 1.523 . S
C1536 C1520 1.368 . S
C1536 C1532 1.368 . S
C1536 C1535 1.523 . S
H1537 C1512 0.950 . S
H1538 C1514 0.950 . S
H1539 C1515 0.949 . S
H1540 C1517 0.950 . S
H1541 C1519 0.950 . S
C1542 C1543 1.349 . S
C1542 C1544 1.327 . S
C1542 H1567 0.950 . S
C1543 C1542 1.349 . S
C1543 C1559 1.349 . S
C1544 C1542 1.327 . S
C1544 C1563 1.429 . S
C1544 H1568 0.950 . S
C1545 C1562 1.574 . S
C1545 C1564 1.368 . S
C1545 H1569 0.949 . S
H1546 C1550 0.949 . S
C1547 C1548 1.349 . S
C1547 C1549 1.327 . S
C1547 H1570 0.950 . S
C1548 C1547 1.349 . S
C1548 C1560 1.349 . S
C1549 C1547 1.327 . S
C1549 C1565 1.429 . S
C1549 H1571 0.950 . S
C1550 H1546 0.949 . S
C1550 C1558 1.574 . S
C1550 C1566 1.368 . S
H1551 C1559 0.950 . S
H1552 C1557 0.950 . S
H1553 C1558 0.949 . S
H1554 C1560 0.950 . S
H1555 C1561 0.950 . S
H1556 C1562 0.949 . S
C1557 H1552 0.950 . S
C1557 C1559 1.327 . S
C1557 C1563 1.429 . S
C1558 C1550 1.574 . S
C1558 H1553 0.949 . S
C1558 C1564 1.368 . S
C1559 C1543 1.349 . S
C1559 H1551 0.950 . S
C1559 C1557 1.327 . S
C1560 C1548 1.349 . S
C1560 H1554 0.950 . S
C1560 C1561 1.327 . S
C1561 H1555 0.950 . S
C1561 C1560 1.327 . S
C1561 C1565 1.429 . S
C1562 C1545 1.574 . S
C1562 H1556 0.949 . S
C1562 C1566 1.368 . S
C1563 C1544 1.429 . S
C1563 C1557 1.429 . S
C1563 C1564 1.523 . S
C1564 C1545 1.368 . S
C1564 C1558 1.368 . S
C1564 C1563 1.523 . S
C1565 C1549 1.429 . S
C1565 C1561 1.429 . S
C1565 C1566 1.523 . S
C1566 C1550 1.368 . S
C1566 C1562 1.368 . S
C1566 C1565 1.523 . S
H1567 C1542 0.950 . S
H1568 C1544 0.950 . S
H1569 C1545 0.949 . S
H1570 C1547 0.950 . S
H1571 C1549 0.950 . S
C1572 C1573 1.349 . S
C1572 C1574 1.327 . S
C1572 H1597 0.950 . S
C1573 C1572 1.349 . S
C1573 C1589 1.349 . S
C1574 C1572 1.327 . S
C1574 C1593 1.429 . S
C1574 H1598 0.950 . S
C1575 C1592 1.574 . S
C1575 C1594 1.368 . S
C1575 H1599 0.949 . S
H1576 C1580 0.949 . S
C1577 C1578 1.349 . S
C1577 C1579 1.327 . S
C1577 H1600 0.950 . S
C1578 C1577 1.349 . S
C1578 C1590 1.349 . S
C1579 C1577 1.327 . S
C1579 C1595 1.429 . S
C1579 H1601 0.950 . S
C1580 H1576 0.949 . S
C1580 C1588 1.574 . S
C1580 C1596 1.368 . S
H1581 C1589 0.950 . S
H1582 C1587 0.950 . S
H1583 C1588 0.949 . S
H1584 C1590 0.950 . S
H1585 C1591 0.950 . S
H1586 C1592 0.949 . S
C1587 H1582 0.950 . S
C1587 C1589 1.327 . S
C1587 C1593 1.429 . S
C1588 C1580 1.574 . S
C1588 H1583 0.949 . S
C1588 C1594 1.368 . S
C1589 C1573 1.349 . S
C1589 H1581 0.950 . S
C1589 C1587 1.327 . S
C1590 C1578 1.349 . S
C1590 H1584 0.950 . S
C1590 C1591 1.327 . S
C1591 H1585 0.950 . S
C1591 C1590 1.327 . S
C1591 C1595 1.429 . S
C1592 C1575 1.574 . S
C1592 H1586 0.949 . S
C1592 C1596 1.368 . S
C1593 C1574 1.429 . S
C1593 C1587 1.429 . S
C1593 C1594 1.523 . S
C1594 C1575 1.368 . S
C1594 C1588 1.368 . S
C1594 C1593 1.523 . S
C1595 C1579 1.429 . S
C1595 C1591 1.429 . S
C1595 C1596 1.523 . S
C1596 C1580 1.368 . S
C1596 C1592 1.368 . S
C1596 C1595 1.523 . S
H1597 C1572 0.950 . S
H1598 C1574 0.950 . S
H1599 C1575 0.949 . S
H1600 C1577 0.950 . S
H1601 C1579 0.950 . S
C1602 C1603 1.349 . S
C1602 C1604 1.327 . S
C1602 H1627 0.950 . S
C1603 C1602 1.349 . S
C1603 C1619 1.349 . S
C1604 C1602 1.327 . S
C1604 C1623 1.429 . S
C1604 H1628 0.950 . S
C1605 C1622 1.574 . S
C1605 C1624 1.368 . S
C1605 H1629 0.949 . S
H1606 C1610 0.949 . S
C1607 C1608 1.349 . S
C1607 C1609 1.327 . S
C1607 H1630 0.950 . S
C1608 C1607 1.349 . S
C1608 C1620 1.349 . S
C1609 C1607 1.327 . S
C1609 C1625 1.429 . S
C1609 H1631 0.950 . S
C1610 H1606 0.949 . S
C1610 C1618 1.574 . S
C1610 C1626 1.368 . S
H1611 C1619 0.950 . S
H1612 C1617 0.950 . S
H1613 C1618 0.949 . S
H1614 C1620 0.950 . S
H1615 C1621 0.950 . S
H1616 C1622 0.949 . S
C1617 H1612 0.950 . S
C1617 C1619 1.327 . S
C1617 C1623 1.429 . S
C1618 C1610 1.574 . S
C1618 H1613 0.949 . S
C1618 C1624 1.368 . S
C1619 C1603 1.349 . S
C1619 H1611 0.950 . S
C1619 C1617 1.327 . S
C1620 C1608 1.349 . S
C1620 H1614 0.950 . S
C1620 C1621 1.327 . S
C1621 H1615 0.950 . S
C1621 C1620 1.327 . S
C1621 C1625 1.429 . S
C1622 C1605 1.574 . S
C1622 H1616 0.949 . S
C1622 C1626 1.368 . S
C1623 C1604 1.429 . S
C1623 C1617 1.429 . S
C1623 C1624 1.523 . S
C1624 C1605 1.368 . S
C1624 C1618 1.368 . S
C1624 C1623 1.523 . S
C1625 C1609 1.429 . S
C1625 C1621 1.429 . S
C1625 C1626 1.523 . S
C1626 C1610 1.368 . S
C1626 C1622 1.368 . S
C1626 C1625 1.523 . S
H1627 C1602 0.950 . S
H1628 C1604 0.950 . S
H1629 C1605 0.949 . S
H1630 C1607 0.950 . S
H1631 C1609 0.950 . S
C1632 C1633 1.349 . S
C1632 C1634 1.327 . S
C1632 H1657 0.950 . S
C1633 C1632 1.349 . S
C1633 C1649 1.349 . S
C1634 C1632 1.327 . S
C1634 C1653 1.429 . S
C1634 H1658 0.950 . S
C1635 C1652 1.574 . S
C1635 C1654 1.368 . S
C1635 H1659 0.949 . S
H1636 C1640 0.949 . S
C1637 C1638 1.349 . S
C1637 C1639 1.327 . S
C1637 H1660 0.950 . S
C1638 C1637 1.349 . S
C1638 C1650 1.349 . S
C1639 C1637 1.327 . S
C1639 C1655 1.429 . S
C1639 H1661 0.950 . S
C1640 H1636 0.949 . S
C1640 C1648 1.574 . S
C1640 C1656 1.368 . S
H1641 C1649 0.950 . S
H1642 C1647 0.950 . S
H1643 C1648 0.949 . S
H1644 C1650 0.950 . S
H1645 C1651 0.950 . S
H1646 C1652 0.949 . S
C1647 H1642 0.950 . S
C1647 C1649 1.327 . S
C1647 C1653 1.429 . S
C1648 C1640 1.574 . S
C1648 H1643 0.949 . S
C1648 C1654 1.368 . S
C1649 C1633 1.349 . S
C1649 H1641 0.950 . S
C1649 C1647 1.327 . S
C1650 C1638 1.349 . S
C1650 H1644 0.950 . S
C1650 C1651 1.327 . S
C1651 H1645 0.950 . S
C1651 C1650 1.327 . S
C1651 C1655 1.429 . S
C1652 C1635 1.574 . S
C1652 H1646 0.949 . S
C1652 C1656 1.368 . S
C1653 C1634 1.429 . S
C1653 C1647 1.429 . S
C1653 C1654 1.523 . S
C1654 C1635 1.368 . S
C1654 C1648 1.368 . S
C1654 C1653 1.523 . S
C1655 C1639 1.429 . S
C1655 C1651 1.429 . S
C1655 C1656 1.523 . S
C1656 C1640 1.368 . S
C1656 C1652 1.368 . S
C1656 C1655 1.523 . S
H1657 C1632 0.950 . S
H1658 C1634 0.950 . S
H1659 C1635 0.949 . S
H1660 C1637 0.950 . S
H1661 C1639 0.950 . S
C1662 C1663 1.349 . S
C1662 C1664 1.327 . S
C1662 H1687 0.950 . S
C1663 C1662 1.349 . S
C1663 C1679 1.349 . S
C1664 C1662 1.327 . S
C1664 C1683 1.429 . S
C1664 H1688 0.950 . S
C1665 C1682 1.574 . S
C1665 C1684 1.368 . S
C1665 H1689 0.949 . S
H1666 C1670 0.949 . S
C1667 C1668 1.349 . S
C1667 C1669 1.327 . S
C1667 H1690 0.950 . S
C1668 C1667 1.349 . S
C1668 C1680 1.349 . S
C1669 C1667 1.327 . S
C1669 C1685 1.429 . S
C1669 H1691 0.950 . S
C1670 H1666 0.949 . S
C1670 C1678 1.574 . S
C1670 C1686 1.368 . S
H1671 C1679 0.950 . S
H1672 C1677 0.950 . S
H1673 C1678 0.949 . S
H1674 C1680 0.950 . S
H1675 C1681 0.950 . S
H1676 C1682 0.949 . S
C1677 H1672 0.950 . S
C1677 C1679 1.327 . S
C1677 C1683 1.429 . S
C1678 C1670 1.574 . S
C1678 H1673 0.949 . S
C1678 C1684 1.368 . S
C1679 C1663 1.349 . S
C1679 H1671 0.950 . S
C1679 C1677 1.327 . S
C1680 C1668 1.349 . S
C1680 H1674 0.950 . S
C1680 C1681 1.327 . S
C1681 H1675 0.950 . S
C1681 C1680 1.327 . S
C1681 C1685 1.429 . S
C1682 C1665 1.574 . S
C1682 H1676 0.949 . S
C1682 C1686 1.368 . S
C1683 C1664 1.429 . S
C1683 C1677 1.429 . S
C1683 C1684 1.523 . S
C1684 C1665 1.368 . S
C1684 C1678 1.368 . S
C1684 C1683 1.523 . S
C1685 C1669 1.429 . S
C1685 C1681 1.429 . S
C1685 C1686 1.523 . S
C1686 C1670 1.368 . S
C1686 C1682 1.368 . S
C1686 C1685 1.523 . S
H1687 C1662 0.950 . S
H1688 C1664 0.950 . S
H1689 C1665 0.949 . S
H1690 C1667 0.950 . S
H1691 C1669 0.950 . S
C1692 C1693 1.349 . S
C1692 C1694 1.327 . S
C1692 H1717 0.950 . S
C1693 C1692 1.349 . S
C1693 C1709 1.349 . S
C1694 C1692 1.327 . S
C1694 C1713 1.429 . S
C1694 H1718 0.950 . S
C1695 C1712 1.574 . S
C1695 C1714 1.368 . S
C1695 H1719 0.949 . S
H1696 C1700 0.949 . S
C1697 C1698 1.349 . S
C1697 C1699 1.327 . S
C1697 H1720 0.950 . S
C1698 C1697 1.349 . S
C1698 C1710 1.349 . S
C1699 C1697 1.327 . S
C1699 C1715 1.429 . S
C1699 H1721 0.950 . S
C1700 H1696 0.949 . S
C1700 C1708 1.574 . S
C1700 C1716 1.368 . S
H1701 C1709 0.950 . S
H1702 C1707 0.950 . S
H1703 C1708 0.949 . S
H1704 C1710 0.950 . S
H1705 C1711 0.950 . S
H1706 C1712 0.949 . S
C1707 H1702 0.950 . S
C1707 C1709 1.327 . S
C1707 C1713 1.429 . S
C1708 C1700 1.574 . S
C1708 H1703 0.949 . S
C1708 C1714 1.368 . S
C1709 C1693 1.349 . S
C1709 H1701 0.950 . S
C1709 C1707 1.327 . S
C1710 C1698 1.349 . S
C1710 H1704 0.950 . S
C1710 C1711 1.327 . S
C1711 H1705 0.950 . S
C1711 C1710 1.327 . S
C1711 C1715 1.429 . S
C1712 C1695 1.574 . S
C1712 H1706 0.949 . S
C1712 C1716 1.368 . S
C1713 C1694 1.429 . S
C1713 C1707 1.429 . S
C1713 C1714 1.523 . S
C1714 C1695 1.368 . S
C1714 C1708 1.368 . S
C1714 C1713 1.523 . S
C1715 C1699 1.429 . S
C1715 C1711 1.429 . S
C1715 C1716 1.523 . S
C1716 C1700 1.368 . S
C1716 C1712 1.368 . S
C1716 C1715 1.523 . S
H1717 C1692 0.950 . S
H1718 C1694 0.950 . S
H1719 C1695 0.949 . S
H1720 C1697 0.950 . S
H1721 C1699 0.950 . S
C1722 C1723 1.349 . S
C1722 C1724 1.327 . S
C1722 H1747 0.950 . S
C1723 C1722 1.349 . S
C1723 C1739 1.349 . S
C1724 C1722 1.327 . S
C1724 C1743 1.429 . S
C1724 H1748 0.950 . S
C1725 C1742 1.574 . S
C1725 C1744 1.368 . S
C1725 H1749 0.949 . S
H1726 C1730 0.949 . S
C1727 C1728 1.349 . S
C1727 C1729 1.327 . S
C1727 H1750 0.950 . S
C1728 C1727 1.349 . S
C1728 C1740 1.349 . S
C1729 C1727 1.327 . S
C1729 C1745 1.429 . S
C1729 H1751 0.950 . S
C1730 H1726 0.949 . S
C1730 C1738 1.574 . S
C1730 C1746 1.368 . S
H1731 C1739 0.950 . S
H1732 C1737 0.950 . S
H1733 C1738 0.949 . S
H1734 C1740 0.950 . S
H1735 C1741 0.950 . S
H1736 C1742 0.949 . S
C1737 H1732 0.950 . S
C1737 C1739 1.327 . S
C1737 C1743 1.429 . S
C1738 C1730 1.574 . S
C1738 H1733 0.949 . S
C1738 C1744 1.368 . S
C1739 C1723 1.349 . S
C1739 H1731 0.950 . S
C1739 C1737 1.327 . S
C1740 C1728 1.349 . S
C1740 H1734 0.950 . S
C1740 C1741 1.327 . S
C1741 H1735 0.950 . S
C1741 C1740 1.327 . S
C1741 C1745 1.429 . S
C1742 C1725 1.574 . S
C1742 H1736 0.949 . S
C1742 C1746 1.368 . S
C1743 C1724 1.429 . S
C1743 C1737 1.429 . S
C1743 C1744 1.523 . S
C1744 C1725 1.368 . S
C1744 C1738 1.368 . S
C1744 C1743 1.523 . S
C1745 C1729 1.429 . S
C1745 C1741 1.429 . S
C1745 C1746 1.523 . S
C1746 C1730 1.368 . S
C1746 C1742 1.368 . S
C1746 C1745 1.523 . S
H1747 C1722 0.950 . S
H1748 C1724 0.950 . S
H1749 C1725 0.949 . S
H1750 C1727 0.950 . S
H1751 C1729 0.950 . S
C1752 C1753 1.349 . S
C1752 C1754 1.327 . S
C1752 H1777 0.950 . S
C1753 C1752 1.349 . S
C1753 C1769 1.349 . S
C1754 C1752 1.327 . S
C1754 C1773 1.429 . S
C1754 H1778 0.950 . S
C1755 C1772 1.574 . S
C1755 C1774 1.368 . S
C1755 H1779 0.949 . S
H1756 C1760 0.949 . S
C1757 C1758 1.349 . S
C1757 C1759 1.327 . S
C1757 H1780 0.950 . S
C1758 C1757 1.349 . S
C1758 C1770 1.349 . S
C1759 C1757 1.327 . S
C1759 C1775 1.429 . S
C1759 H1781 0.950 . S
C1760 H1756 0.949 . S
C1760 C1768 1.574 . S
C1760 C1776 1.368 . S
H1761 C1769 0.950 . S
H1762 C1767 0.950 . S
H1763 C1768 0.949 . S
H1764 C1770 0.950 . S
H1765 C1771 0.950 . S
H1766 C1772 0.949 . S
C1767 H1762 0.950 . S
C1767 C1769 1.327 . S
C1767 C1773 1.429 . S
C1768 C1760 1.574 . S
C1768 H1763 0.949 . S
C1768 C1774 1.368 . S
C1769 C1753 1.349 . S
C1769 H1761 0.950 . S
C1769 C1767 1.327 . S
C1770 C1758 1.349 . S
C1770 H1764 0.950 . S
C1770 C1771 1.327 . S
C1771 H1765 0.950 . S
C1771 C1770 1.327 . S
C1771 C1775 1.429 . S
C1772 C1755 1.574 . S
C1772 H1766 0.949 . S
C1772 C1776 1.368 . S
C1773 C1754 1.429 . S
C1773 C1767 1.429 . S
C1773 C1774 1.523 . S
C1774 C1755 1.368 . S
C1774 C1768 1.368 . S
C1774 C1773 1.523 . S
C1775 C1759 1.429 . S
C1775 C1771 1.429 . S
C1775 C1776 1.523 . S
C1776 C1760 1.368 . S
C1776 C1772 1.368 . S
C1776 C1775 1.523 . S
H1777 C1752 0.950 . S
H1778 C1754 0.950 . S
H1779 C1755 0.949 . S
H1780 C1757 0.950 . S
H1781 C1759 0.950 . S
C1782 C1783 1.349 . S
C1782 C1784 1.327 . S
C1782 H1807 0.950 . S
C1783 C1782 1.349 . S
C1783 C1799 1.349 . S
C1784 C1782 1.327 . S
C1784 C1803 1.429 . S
C1784 H1808 0.950 . S
C1785 C1802 1.574 . S
C1785 C1804 1.368 . S
C1785 H1809 0.949 . S
H1786 C1790 0.949 . S
C1787 C1788 1.349 . S
C1787 C1789 1.327 . S
C1787 H1810 0.950 . S
C1788 C1787 1.349 . S
C1788 C1800 1.349 . S
C1789 C1787 1.327 . S
C1789 C1805 1.429 . S
C1789 H1811 0.950 . S
C1790 H1786 0.949 . S
C1790 C1798 1.574 . S
C1790 C1806 1.368 . S
H1791 C1799 0.950 . S
H1792 C1797 0.950 . S
H1793 C1798 0.949 . S
H1794 C1800 0.950 . S
H1795 C1801 0.950 . S
H1796 C1802 0.949 . S
C1797 H1792 0.950 . S
C1797 C1799 1.327 . S
C1797 C1803 1.429 . S
C1798 C1790 1.574 . S
C1798 H1793 0.949 . S
C1798 C1804 1.368 . S
C1799 C1783 1.349 . S
C1799 H1791 0.950 . S
C1799 C1797 1.327 . S
C1800 C1788 1.349 . S
C1800 H1794 0.950 . S
C1800 C1801 1.327 . S
C1801 H1795 0.950 . S
C1801 C1800 1.327 . S
C1801 C1805 1.429 . S
C1802 C1785 1.574 . S
C1802 H1796 0.949 . S
C1802 C1806 1.368 . S
C1803 C1784 1.429 . S
C1803 C1797 1.429 . S
C1803 C1804 1.523 . S
C1804 C1785 1.368 . S
C1804 C1798 1.368 . S
C1804 C1803 1.523 . S
C1805 C1789 1.429 . S
C1805 C1801 1.429 . S
C1805 C1806 1.523 . S
C1806 C1790 1.368 . S
C1806 C1802 1.368 . S
C1806 C1805 1.523 . S
H1807 C1782 0.950 . S
H1808 C1784 0.950 . S
H1809 C1785 0.949 . S
H1810 C1787 0.950 . S
H1811 C1789 0.950 . S
C1812 C1813 1.349 . S
C1812 C1814 1.327 . S
C1812 H1837 0.950 . S
C1813 C1812 1.349 . S
C1813 C1829 1.349 . S
C1814 C1812 1.327 . S
C1814 C1833 1.429 . S
C1814 H1838 0.950 . S
C1815 C1832 1.574 . S
C1815 C1834 1.368 . S
C1815 H1839 0.949 . S
H1816 C1820 0.949 . S
C1817 C1818 1.349 . S
C1817 C1819 1.327 . S
C1817 H1840 0.950 . S
C1818 C1817 1.349 . S
C1818 C1830 1.349 . S
C1819 C1817 1.327 . S
C1819 C1835 1.429 . S
C1819 H1841 0.950 . S
C1820 H1816 0.949 . S
C1820 C1828 1.574 . S
C1820 C1836 1.368 . S
H1821 C1829 0.950 . S
H1822 C1827 0.950 . S
H1823 C1828 0.949 . S
H1824 C1830 0.950 . S
H1825 C1831 0.950 . S
H1826 C1832 0.949 . S
C1827 H1822 0.950 . S
C1827 C1829 1.327 . S
C1827 C1833 1.429 . S
C1828 C1820 1.574 . S
C1828 H1823 0.949 . S
C1828 C1834 1.368 . S
C1829 C1813 1.349 . S
C1829 H1821 0.950 . S
C1829 C1827 1.327 . S
C1830 C1818 1.349 . S
C1830 H1824 0.950 . S
C1830 C1831 1.327 . S
C1831 H1825 0.950 . S
C1831 C1830 1.327 . S
C1831 C1835 1.429 . S
C1832 C1815 1.574 . S
C1832 H1826 0.949 . S
C1832 C1836 1.368 . S
C1833 C1814 1.429 . S
C1833 C1827 1.429 . S
C1833 C1834 1.523 . S
C1834 C1815 1.368 . S
C1834 C1828 1.368 . S
C1834 C1833 1.523 . S
C1835 C1819 1.429 . S
C1835 C1831 1.429 . S
C1835 C1836 1.523 . S
C1836 C1820 1.368 . S
C1836 C1832 1.368 . S
C1836 C1835 1.523 . S
H1837 C1812 0.950 . S
H1838 C1814 0.950 . S
H1839 C1815 0.949 . S
H1840 C1817 0.950 . S
H1841 C1819 0.950 . S
C1842 C1843 1.349 . S
C1842 C1844 1.327 . S
C1842 H1867 0.950 . S
C1843 C1842 1.349 . S
C1843 C1859 1.349 . S
C1844 C1842 1.327 . S
C1844 C1863 1.429 . S
C1844 H1868 0.950 . S
C1845 C1862 1.574 . S
C1845 C1864 1.368 . S
C1845 H1869 0.949 . S
H1846 C1850 0.949 . S
C1847 C1848 1.349 . S
C1847 C1849 1.327 . S
C1847 H1870 0.950 . S
C1848 C1847 1.349 . S
C1848 C1860 1.349 . S
C1849 C1847 1.327 . S
C1849 C1865 1.429 . S
C1849 H1871 0.950 . S
C1850 H1846 0.949 . S
C1850 C1858 1.574 . S
C1850 C1866 1.368 . S
H1851 C1859 0.950 . S
H1852 C1857 0.950 . S
H1853 C1858 0.949 . S
H1854 C1860 0.950 . S
H1855 C1861 0.950 . S
H1856 C1862 0.949 . S
C1857 H1852 0.950 . S
C1857 C1859 1.327 . S
C1857 C1863 1.429 . S
C1858 C1850 1.574 . S
C1858 H1853 0.949 . S
C1858 C1864 1.368 . S
C1859 C1843 1.349 . S
C1859 H1851 0.950 . S
C1859 C1857 1.327 . S
C1860 C1848 1.349 . S
C1860 H1854 0.950 . S
C1860 C1861 1.327 . S
C1861 H1855 0.950 . S
C1861 C1860 1.327 . S
C1861 C1865 1.429 . S
C1862 C1845 1.574 . S
C1862 H1856 0.949 . S
C1862 C1866 1.368 . S
C1863 C1844 1.429 . S
C1863 C1857 1.429 . S
C1863 C1864 1.523 . S
C1864 C1845 1.368 . S
C1864 C1858 1.368 . S
C1864 C1863 1.523 . S
C1865 C1849 1.429 . S
C1865 C1861 1.429 . S
C1865 C1866 1.523 . S
C1866 C1850 1.368 . S
C1866 C1862 1.368 . S
C1866 C1865 1.523 . S
H1867 C1842 0.950 . S
H1868 C1844 0.950 . S
H1869 C1845 0.949 . S
H1870 C1847 0.950 . S
H1871 C1849 0.950 . S
C1872 C1873 1.349 . S
C1872 C1874 1.327 . S
C1872 H1897 0.950 . S
C1873 C1872 1.349 . S
C1873 C1889 1.349 . S
C1874 C1872 1.327 . S
C1874 C1893 1.429 . S
C1874 H1898 0.950 . S
C1875 C1892 1.574 . S
C1875 C1894 1.368 . S
C1875 H1899 0.949 . S
H1876 C1880 0.949 . S
C1877 C1878 1.349 . S
C1877 C1879 1.327 . S
C1877 H1900 0.950 . S
C1878 C1877 1.349 . S
C1878 C1890 1.349 . S
C1879 C1877 1.327 . S
C1879 C1895 1.429 . S
C1879 H1901 0.950 . S
C1880 H1876 0.949 . S
C1880 C1888 1.574 . S
C1880 C1896 1.368 . S
H1881 C1889 0.950 . S
H1882 C1887 0.950 . S
H1883 C1888 0.949 . S
H1884 C1890 0.950 . S
H1885 C1891 0.950 . S
H1886 C1892 0.949 . S
C1887 H1882 0.950 . S
C1887 C1889 1.327 . S
C1887 C1893 1.429 . S
C1888 C1880 1.574 . S
C1888 H1883 0.949 . S
C1888 C1894 1.368 . S
C1889 C1873 1.349 . S
C1889 H1881 0.950 . S
C1889 C1887 1.327 . S
C1890 C1878 1.349 . S
C1890 H1884 0.950 . S
C1890 C1891 1.327 . S
C1891 H1885 0.950 . S
C1891 C1890 1.327 . S
C1891 C1895 1.429 . S
C1892 C1875 1.574 . S
C1892 H1886 0.949 . S
C1892 C1896 1.368 . S
C1893 C1874 1.429 . S
C1893 C1887 1.429 . S
C1893 C1894 1.523 . S
C1894 C1875 1.368 . S
C1894 C1888 1.368 . S
C1894 C1893 1.523 . S
C1895 C1879 1.429 . S
C1895 C1891 1.429 . S
C1895 C1896 1.523 . S
C1896 C1880 1.368 . S
C1896 C1892 1.368 . S
C1896 C1895 1.523 . S
H1897 C1872 0.950 . S
H1898 C1874 0.950 . S
H1899 C1875 0.949 . S
H1900 C1877 0.950 . S
H1901 C1879 0.950 . S
C1902 C1903 1.349 . S
C1902 C1904 1.327 . S
C1902 H1927 0.950 . S
C1903 C1902 1.349 . S
C1903 C1919 1.349 . S
C1904 C1902 1.327 . S
C1904 C1923 1.429 . S
C1904 H1928 0.950 . S
C1905 C1922 1.574 . S
C1905 C1924 1.368 . S
C1905 H1929 0.949 . S
H1906 C1910 0.949 . S
C1907 C1908 1.349 . S
C1907 C1909 1.327 . S
C1907 H1930 0.950 . S
C1908 C1907 1.349 . S
C1908 C1920 1.349 . S
C1909 C1907 1.327 . S
C1909 C1925 1.429 . S
C1909 H1931 0.950 . S
C1910 H1906 0.949 . S
C1910 C1918 1.574 . S
C1910 C1926 1.368 . S
H1911 C1919 0.950 . S
H1912 C1917 0.950 . S
H1913 C1918 0.949 . S
H1914 C1920 0.950 . S
H1915 C1921 0.950 . S
H1916 C1922 0.949 . S
C1917 H1912 0.950 . S
C1917 C1919 1.327 . S
C1917 C1923 1.429 . S
C1918 C1910 1.574 . S
C1918 H1913 0.949 . S
C1918 C1924 1.368 . S
C1919 C1903 1.349 . S
C1919 H1911 0.950 . S
C1919 C1917 1.327 . S
C1920 C1908 1.349 . S
C1920 H1914 0.950 . S
C1920 C1921 1.327 . S
C1921 H1915 0.950 . S
C1921 C1920 1.327 . S
C1921 C1925 1.429 . S
C1922 C1905 1.574 . S
C1922 H1916 0.949 . S
C1922 C1926 1.368 . S
C1923 C1904 1.429 . S
C1923 C1917 1.429 . S
C1923 C1924 1.523 . S
C1924 C1905 1.368 . S
C1924 C1918 1.368 . S
C1924 C1923 1.523 . S
C1925 C1909 1.429 . S
C1925 C1921 1.429 . S
C1925 C1926 1.523 . S
C1926 C1910 1.368 . S
C1926 C1922 1.368 . S
C1926 C1925 1.523 . S
H1927 C1902 0.950 . S
H1928 C1904 0.950 . S
H1929 C1905 0.949 . S
H1930 C1907 0.950 . S
H1931 C1909 0.950 . S
C1932 C1933 1.349 . S
C1932 C1934 1.327 . S
C1932 H1957 0.950 . S
C1933 C1932 1.349 . S
C1933 C1949 1.349 . S
C1934 C1932 1.327 . S
C1934 C1953 1.429 . S
C1934 H1958 0.950 . S
C1935 C1952 1.574 . S
C1935 C1954 1.368 . S
C1935 H1959 0.949 . S
H1936 C1940 0.949 . S
C1937 C1938 1.349 . S
C1937 C1939 1.327 . S
C1937 H1960 0.950 . S
C1938 C1937 1.349 . S
C1938 C1950 1.349 . S
C1939 C1937 1.327 . S
C1939 C1955 1.429 . S
C1939 H1961 0.950 . S
C1940 H1936 0.949 . S
C1940 C1948 1.574 . S
C1940 C1956 1.368 . S
H1941 C1949 0.950 . S
H1942 C1947 0.950 . S
H1943 C1948 0.949 . S
H1944 C1950 0.950 . S
H1945 C1951 0.950 . S
H1946 C1952 0.949 . S
C1947 H1942 0.950 . S
C1947 C1949 1.327 . S
C1947 C1953 1.429 . S
C1948 C1940 1.574 . S
C1948 H1943 0.949 . S
C1948 C1954 1.368 . S
C1949 C1933 1.349 . S
C1949 H1941 0.950 . S
C1949 C1947 1.327 . S
C1950 C1938 1.349 . S
C1950 H1944 0.950 . S
C1950 C1951 1.327 . S
C1951 H1945 0.950 . S
C1951 C1950 1.327 . S
C1951 C1955 1.429 . S
C1952 C1935 1.574 . S
C1952 H1946 0.949 . S
C1952 C1956 1.368 . S
C1953 C1934 1.429 . S
C1953 C1947 1.429 . S
C1953 C1954 1.523 . S
C1954 C1935 1.368 . S
C1954 C1948 1.368 . S
C1954 C1953 1.523 . S
C1955 C1939 1.429 . S
C1955 C1951 1.429 . S
C1955 C1956 1.523 . S
C1956 C1940 1.368 . S
C1956 C1952 1.368 . S
C1956 C1955 1.523 . S
H1957 C1932 0.950 . S
H1958 C1934 0.950 . S
H1959 C1935 0.949 . S
H1960 C1937 0.950 . S
H1961 C1939 0.950 . S
C1962 C1963 1.349 . S
C1962 C1964 1.327 . S
C1962 H1987 0.950 . S
C1963 C1962 1.349 . S
C1963 C1979 1.349 . S
C1964 C1962 1.327 . S
C1964 C1983 1.429 . S
C1964 H1988 0.950 . S
C1965 C1982 1.574 . S
C1965 C1984 1.368 . S
C1965 H1989 0.949 . S
H1966 C1970 0.949 . S
C1967 C1968 1.349 . S
C1967 C1969 1.327 . S
C1967 H1990 0.950 . S
C1968 C1967 1.349 . S
C1968 C1980 1.349 . S
C1969 C1967 1.327 . S
C1969 C1985 1.429 . S
C1969 H1991 0.950 . S
C1970 H1966 0.949 . S
C1970 C1978 1.574 . S
C1970 C1986 1.368 . S
H1971 C1979 0.950 . S
H1972 C1977 0.950 . S
H1973 C1978 0.949 . S
H1974 C1980 0.950 . S
H1975 C1981 0.950 . S
H1976 C1982 0.949 . S
C1977 H1972 0.950 . S
C1977 C1979 1.327 . S
C1977 C1983 1.429 . S
C1978 C1970 1.574 . S
C1978 H1973 0.949 . S
C1978 C1984 1.368 . S
C1979 C1963 1.349 . S
C1979 H1971 0.950 . S
C1979 C1977 1.327 . S
C1980 C1968 1.349 . S
C1980 H1974 0.950 . S
C1980 C1981 1.327 . S
C1981 H1975 0.950 . S
C1981 C1980 1.327 . S
C1981 C1985 1.429 . S
C1982 C1965 1.574 . S
C1982 H1976 0.949 . S
C1982 C1986 1.368 . S
C1983 C1964 1.429 . S
C1983 C1977 1.429 . S
C1983 C1984 1.523 . S
C1984 C1965 1.368 . S
C1984 C1978 1.368 . S
C1984 C1983 1.523 . S
C1985 C1969 1.429 . S
C1985 C1981 1.429 . S
C1985 C1986 1.523 . S
C1986 C1970 1.368 . S
C1986 C1982 1.368 . S
C1986 C1985 1.523 . S
H1987 C1962 0.950 . S
H1988 C1964 0.950 . S
H1989 C1965 0.949 . S
H1990 C1967 0.950 . S
H1991 C1969 0.950 . S
C1992 C1993 1.349 . S
C1992 C1994 1.327 . S
C1992 H2017 0.950 . S
C1993 C1992 1.349 . S
C1993 C2009 1.349 . S
C1994 C1992 1.327 . S
C1994 C2013 1.429 . S
C1994 H2018 0.950 . S
C1995 C2012 1.574 . S
C1995 C2014 1.368 . S
C1995 H2019 0.949 . S
H1996 C2000 0.949 . S
C1997 C1998 1.349 . S
C1997 C1999 1.327 . S
C1997 H2020 0.950 . S
C1998 C1997 1.349 . S
C1998 C2010 1.349 . S
C1999 C1997 1.327 . S
C1999 C2015 1.429 . S
C1999 H2021 0.950 . S
C2000 H1996 0.949 . S
C2000 C2008 1.574 . S
C2000 C2016 1.368 . S
H2001 C2009 0.950 . S
H2002 C2007 0.950 . S
H2003 C2008 0.949 . S
H2004 C2010 0.950 . S
H2005 C2011 0.950 . S
H2006 C2012 0.949 . S
C2007 H2002 0.950 . S
C2007 C2009 1.327 . S
C2007 C2013 1.429 . S
C2008 C2000 1.574 . S
C2008 H2003 0.949 . S
C2008 C2014 1.368 . S
C2009 C1993 1.349 . S
C2009 H2001 0.950 . S
C2009 C2007 1.327 . S
C2010 C1998 1.349 . S
C2010 H2004 0.950 . S
C2010 C2011 1.327 . S
C2011 H2005 0.950 . S
C2011 C2010 1.327 . S
C2011 C2015 1.429 . S
C2012 C1995 1.574 . S
C2012 H2006 0.949 . S
C2012 C2016 1.368 . S
C2013 C1994 1.429 . S
C2013 C2007 1.429 . S
C2013 C2014 1.523 . S
C2014 C1995 1.368 . S
C2014 C2008 1.368 . S
C2014 C2013 1.523 . S
C2015 C1999 1.429 . S
C2015 C2011 1.429 . S
C2015 C2016 1.523 . S
C2016 C2000 1.368 . S
C2016 C2012 1.368 . S
C2016 C2015 1.523 . S
H2017 C1992 0.950 . S
H2018 C1994 0.950 . S
H2019 C1995 0.949 . S
H2020 C1997 0.950 . S
H2021 C1999 0.950 . S
C2022 C2023 1.349 . S
C2022 C2024 1.327 . S
C2022 H2047 0.950 . S
C2023 C2022 1.349 . S
C2023 C2039 1.349 . S
C2024 C2022 1.327 . S
C2024 C2043 1.429 . S
C2024 H2048 0.950 . S
C2025 C2042 1.574 . S
C2025 C2044 1.368 . S
C2025 H2049 0.949 . S
H2026 C2030 0.949 . S
C2027 C2028 1.349 . S
C2027 C2029 1.327 . S
C2027 H2050 0.950 . S
C2028 C2027 1.349 . S
C2028 C2040 1.349 . S
C2029 C2027 1.327 . S
C2029 C2045 1.429 . S
C2029 H2051 0.950 . S
C2030 H2026 0.949 . S
C2030 C2038 1.574 . S
C2030 C2046 1.368 . S
H2031 C2039 0.950 . S
H2032 C2037 0.950 . S
H2033 C2038 0.949 . S
H2034 C2040 0.950 . S
H2035 C2041 0.950 . S
H2036 C2042 0.949 . S
C2037 H2032 0.950 . S
C2037 C2039 1.327 . S
C2037 C2043 1.429 . S
C2038 C2030 1.574 . S
C2038 H2033 0.949 . S
C2038 C2044 1.368 . S
C2039 C2023 1.349 . S
C2039 H2031 0.950 . S
C2039 C2037 1.327 . S
C2040 C2028 1.349 . S
C2040 H2034 0.950 . S
C2040 C2041 1.327 . S
C2041 H2035 0.950 . S
C2041 C2040 1.327 . S
C2041 C2045 1.429 . S
C2042 C2025 1.574 . S
C2042 H2036 0.949 . S
C2042 C2046 1.368 . S
C2043 C2024 1.429 . S
C2043 C2037 1.429 . S
C2043 C2044 1.523 . S
C2044 C2025 1.368 . S
C2044 C2038 1.368 . S
C2044 C2043 1.523 . S
C2045 C2029 1.429 . S
C2045 C2041 1.429 . S
C2045 C2046 1.523 . S
C2046 C2030 1.368 . S
C2046 C2042 1.368 . S
C2046 C2045 1.523 . S
H2047 C2022 0.950 . S
H2048 C2024 0.950 . S
H2049 C2025 0.949 . S
H2050 C2027 0.950 . S
H2051 C2029 0.950 . S
C2052 C2053 1.349 . S
C2052 C2054 1.327 . S
C2052 H2077 0.950 . S
C2053 C2052 1.349 . S
C2053 C2069 1.349 . S
C2054 C2052 1.327 . S
C2054 C2073 1.429 . S
C2054 H2078 0.950 . S
C2055 C2072 1.574 . S
C2055 C2074 1.368 . S
C2055 H2079 0.949 . S
H2056 C2060 0.949 . S
C2057 C2058 1.349 . S
C2057 C2059 1.327 . S
C2057 H2080 0.950 . S
C2058 C2057 1.349 . S
C2058 C2070 1.349 . S
C2059 C2057 1.327 . S
C2059 C2075 1.429 . S
C2059 H2081 0.950 . S
C2060 H2056 0.949 . S
C2060 C2068 1.574 . S
C2060 C2076 1.368 . S
H2061 C2069 0.950 . S
H2062 C2067 0.950 . S
H2063 C2068 0.949 . S
H2064 C2070 0.950 . S
H2065 C2071 0.950 . S
H2066 C2072 0.949 . S
C2067 H2062 0.950 . S
C2067 C2069 1.327 . S
C2067 C2073 1.429 . S
C2068 C2060 1.574 . S
C2068 H2063 0.949 . S
C2068 C2074 1.368 . S
C2069 C2053 1.349 . S
C2069 H2061 0.950 . S
C2069 C2067 1.327 . S
C2070 C2058 1.349 . S
C2070 H2064 0.950 . S
C2070 C2071 1.327 . S
C2071 H2065 0.950 . S
C2071 C2070 1.327 . S
C2071 C2075 1.429 . S
C2072 C2055 1.574 . S
C2072 H2066 0.949 . S
C2072 C2076 1.368 . S
C2073 C2054 1.429 . S
C2073 C2067 1.429 . S
C2073 C2074 1.523 . S
C2074 C2055 1.368 . S
C2074 C2068 1.368 . S
C2074 C2073 1.523 . S
C2075 C2059 1.429 . S
C2075 C2071 1.429 . S
C2075 C2076 1.523 . S
C2076 C2060 1.368 . S
C2076 C2072 1.368 . S
C2076 C2075 1.523 . S
H2077 C2052 0.950 . S
H2078 C2054 0.950 . S
H2079 C2055 0.949 . S
H2080 C2057 0.950 . S
H2081 C2059 0.950 . S
C2082 C2083 1.349 . S
C2082 C2084 1.327 . S
C2082 H2107 0.950 . S
C2083 C2082 1.349 . S
C2083 C2099 1.349 . S
C2084 C2082 1.327 . S
C2084 C2103 1.429 . S
C2084 H2108 0.950 . S
C2085 C2102 1.574 . S
C2085 C2104 1.368 . S
C2085 H2109 0.949 . S
H2086 C2090 0.949 . S
C2087 C2088 1.349 . S
C2087 C2089 1.327 . S
C2087 H2110 0.950 . S
C2088 C2087 1.349 . S
C2088 C2100 1.349 . S
C2089 C2087 1.327 . S
C2089 C2105 1.429 . S
C2089 H2111 0.950 . S
C2090 H2086 0.949 . S
C2090 C2098 1.574 . S
C2090 C2106 1.368 . S
H2091 C2099 0.950 . S
H2092 C2097 0.950 . S
H2093 C2098 0.949 . S
H2094 C2100 0.950 . S
H2095 C2101 0.950 . S
H2096 C2102 0.949 . S
C2097 H2092 0.950 . S
C2097 C2099 1.327 . S
C2097 C2103 1.429 . S
C2098 C2090 1.574 . S
C2098 H2093 0.949 . S
C2098 C2104 1.368 . S
C2099 C2083 1.349 . S
C2099 H2091 0.950 . S
C2099 C2097 1.327 . S
C2100 C2088 1.349 . S
C2100 H2094 0.950 . S
C2100 C2101 1.327 . S
C2101 H2095 0.950 . S
C2101 C2100 1.327 . S
C2101 C2105 1.429 . S
C2102 C2085 1.574 . S
C2102 H2096 0.949 . S
C2102 C2106 1.368 . S
C2103 C2084 1.429 . S
C2103 C2097 1.429 . S
C2103 C2104 1.523 . S
C2104 C2085 1.368 . S
C2104 C2098 1.368 . S
C2104 C2103 1.523 . S
C2105 C2089 1.429 . S
C2105 C2101 1.429 . S
C2105 C2106 1.523 . S
C2106 C2090 1.368 . S
C2106 C2102 1.368 . S
C2106 C2105 1.523 . S
H2107 C2082 0.950 . S
H2108 C2084 0.950 . S
H2109 C2085 0.949 . S
H2110 C2087 0.950 . S
H2111 C2089 0.950 . S
C2112 C2113 1.349 . S
C2112 C2114 1.327 . S
C2112 H2137 0.950 . S
C2113 C2112 1.349 . S
C2113 C2129 1.349 . S
C2114 C2112 1.327 . S
C2114 C2133 1.429 . S
C2114 H2138 0.950 . S
C2115 C2132 1.574 . S
C2115 C2134 1.368 . S
C2115 H2139 0.949 . S
H2116 C2120 0.949 . S
C2117 C2118 1.349 . S
C2117 C2119 1.327 . S
C2117 H2140 0.950 . S
C2118 C2117 1.349 . S
C2118 C2130 1.349 . S
C2119 C2117 1.327 . S
C2119 C2135 1.429 . S
C2119 H2141 0.950 . S
C2120 H2116 0.949 . S
C2120 C2128 1.574 . S
C2120 C2136 1.368 . S
H2121 C2129 0.950 . S
H2122 C2127 0.950 . S
H2123 C2128 0.949 . S
H2124 C2130 0.950 . S
H2125 C2131 0.950 . S
H2126 C2132 0.949 . S
C2127 H2122 0.950 . S
C2127 C2129 1.327 . S
C2127 C2133 1.429 . S
C2128 C2120 1.574 . S
C2128 H2123 0.949 . S
C2128 C2134 1.368 . S
C2129 C2113 1.349 . S
C2129 H2121 0.950 . S
C2129 C2127 1.327 . S
C2130 C2118 1.349 . S
C2130 H2124 0.950 . S
C2130 C2131 1.327 . S
C2131 H2125 0.950 . S
C2131 C2130 1.327 . S
C2131 C2135 1.429 . S
C2132 C2115 1.574 . S
C2132 H2126 0.949 . S
C2132 C2136 1.368 . S
C2133 C2114 1.429 . S
C2133 C2127 1.429 . S
C2133 C2134 1.523 . S
C2134 C2115 1.368 . S
C2134 C2128 1.368 . S
C2134 C2133 1.523 . S
C2135 C2119 1.429 . S
C2135 C2131 1.429 . S
C2135 C2136 1.523 . S
C2136 C2120 1.368 . S
C2136 C2132 1.368 . S
C2136 C2135 1.523 . S
H2137 C2112 0.950 . S
H2138 C2114 0.950 . S
H2139 C2115 0.949 . S
H2140 C2117 0.950 . S
H2141 C2119 0.950 . S
C2142 C2143 1.349 . S
C2142 C2144 1.327 . S
C2142 H2167 0.950 . S
C2143 C2142 1.349 . S
C2143 C2159 1.349 . S
C2144 C2142 1.327 . S
C2144 C2163 1.429 . S
C2144 H2168 0.950 . S
C2145 C2162 1.574 . S
C2145 C2164 1.368 . S
C2145 H2169 0.949 . S
H2146 C2150 0.949 . S
C2147 C2148 1.349 . S
C2147 C2149 1.327 . S
C2147 H2170 0.950 . S
C2148 C2147 1.349 . S
C2148 C2160 1.349 . S
C2149 C2147 1.327 . S
C2149 C2165 1.429 . S
C2149 H2171 0.950 . S
C2150 H2146 0.949 . S
C2150 C2158 1.574 . S
C2150 C2166 1.368 . S
H2151 C2159 0.950 . S
H2152 C2157 0.950 . S
H2153 C2158 0.949 . S
H2154 C2160 0.950 . S
H2155 C2161 0.950 . S
H2156 C2162 0.949 . S
C2157 H2152 0.950 . S
C2157 C2159 1.327 . S
C2157 C2163 1.429 . S
C2158 C2150 1.574 . S
C2158 H2153 0.949 . S
C2158 C2164 1.368 . S
C2159 C2143 1.349 . S
C2159 H2151 0.950 . S
C2159 C2157 1.327 . S
C2160 C2148 1.349 . S
C2160 H2154 0.950 . S
C2160 C2161 1.327 . S
C2161 H2155 0.950 . S
C2161 C2160 1.327 . S
C2161 C2165 1.429 . S
C2162 C2145 1.574 . S
C2162 H2156 0.949 . S
C2162 C2166 1.368 . S
C2163 C2144 1.429 . S
C2163 C2157 1.429 . S
C2163 C2164 1.523 . S
C2164 C2145 1.368 . S
C2164 C2158 1.368 . S
C2164 C2163 1.523 . S
C2165 C2149 1.429 . S
C2165 C2161 1.429 . S
C2165 C2166 1.523 . S
C2166 C2150 1.368 . S
C2166 C2162 1.368 . S
C2166 C2165 1.523 . S
H2167 C2142 0.950 . S
H2168 C2144 0.950 . S
H2169 C2145 0.949 . S
H2170 C2147 0.950 . S
H2171 C2149 0.950 . S
C2172 C2173 1.349 . S
C2172 C2174 1.327 . S
C2172 H2197 0.950 . S
C2173 C2172 1.349 . S
C2173 C2189 1.349 . S
C2174 C2172 1.327 . S
C2174 C2193 1.429 . S
C2174 H2198 0.950 . S
C2175 C2192 1.574 . S
C2175 C2194 1.368 . S
C2175 H2199 0.949 . S
H2176 C2180 0.949 . S
C2177 C2178 1.349 . S
C2177 C2179 1.327 . S
C2177 H2200 0.950 . S
C2178 C2177 1.349 . S
C2178 C2190 1.349 . S
C2179 C2177 1.327 . S
C2179 C2195 1.429 . S
C2179 H2201 0.950 . S
C2180 H2176 0.949 . S
C2180 C2188 1.574 . S
C2180 C2196 1.368 . S
H2181 C2189 0.950 . S
H2182 C2187 0.950 . S
H2183 C2188 0.949 . S
H2184 C2190 0.950 . S
H2185 C2191 0.950 . S
H2186 C2192 0.949 . S
C2187 H2182 0.950 . S
C2187 C2189 1.327 . S
C2187 C2193 1.429 . S
C2188 C2180 1.574 . S
C2188 H2183 0.949 . S
C2188 C2194 1.368 . S
C2189 C2173 1.349 . S
C2189 H2181 0.950 . S
C2189 C2187 1.327 . S
C2190 C2178 1.349 . S
C2190 H2184 0.950 . S
C2190 C2191 1.327 . S
C2191 H2185 0.950 . S
C2191 C2190 1.327 . S
C2191 C2195 1.429 . S
C2192 C2175 1.574 . S
C2192 H2186 0.949 . S
C2192 C2196 1.368 . S
C2193 C2174 1.429 . S
C2193 C2187 1.429 . S
C2193 C2194 1.523 . S
C2194 C2175 1.368 . S
C2194 C2188 1.368 . S
C2194 C2193 1.523 . S
C2195 C2179 1.429 . S
C2195 C2191 1.429 . S
C2195 C2196 1.523 . S
C2196 C2180 1.368 . S
C2196 C2192 1.368 . S
C2196 C2195 1.523 . S
H2197 C2172 0.950 . S
H2198 C2174 0.950 . S
H2199 C2175 0.949 . S
H2200 C2177 0.950 . S
H2201 C2179 0.950 . S
C2202 C2203 1.349 . S
C2202 C2204 1.327 . S
C2202 H2227 0.950 . S
C2203 C2202 1.349 . S
C2203 C2219 1.349 . S
C2204 C2202 1.327 . S
C2204 C2223 1.429 . S
C2204 H2228 0.950 . S
C2205 C2222 1.574 . S
C2205 C2224 1.368 . S
C2205 H2229 0.949 . S
H2206 C2210 0.949 . S
C2207 C2208 1.349 . S
C2207 C2209 1.327 . S
C2207 H2230 0.950 . S
C2208 C2207 1.349 . S
C2208 C2220 1.349 . S
C2209 C2207 1.327 . S
C2209 C2225 1.429 . S
C2209 H2231 0.950 . S
C2210 H2206 0.949 . S
C2210 C2218 1.574 . S
C2210 C2226 1.368 . S
H2211 C2219 0.950 . S
H2212 C2217 0.950 . S
H2213 C2218 0.949 . S
H2214 C2220 0.950 . S
H2215 C2221 0.950 . S
H2216 C2222 0.949 . S
C2217 H2212 0.950 . S
C2217 C2219 1.327 . S
C2217 C2223 1.429 . S
C2218 C2210 1.574 . S
C2218 H2213 0.949 . S
C2218 C2224 1.368 . S
C2219 C2203 1.349 . S
C2219 H2211 0.950 . S
C2219 C2217 1.327 . S
C2220 C2208 1.349 . S
C2220 H2214 0.950 . S
C2220 C2221 1.327 . S
C2221 H2215 0.950 . S
C2221 C2220 1.327 . S
C2221 C2225 1.429 . S
C2222 C2205 1.574 . S
C2222 H2216 0.949 . S
C2222 C2226 1.368 . S
C2223 C2204 1.429 . S
C2223 C2217 1.429 . S
C2223 C2224 1.523 . S
C2224 C2205 1.368 . S
C2224 C2218 1.368 . S
C2224 C2223 1.523 . S
C2225 C2209 1.429 . S
C2225 C2221 1.429 . S
C2225 C2226 1.523 . S
C2226 C2210 1.368 . S
C2226 C2222 1.368 . S
C2226 C2225 1.523 . S
H2227 C2202 0.950 . S
H2228 C2204 0.950 . S
H2229 C2205 0.949 . S
H2230 C2207 0.950 . S
H2231 C2209 0.950 . S
C2232 C2233 1.349 . S
C2232 C2234 1.327 . S
C2232 H2257 0.950 . S
C2233 C2232 1.349 . S
C2233 C2249 1.349 . S
C2234 C2232 1.327 . S
C2234 C2253 1.429 . S
C2234 H2258 0.950 . S
C2235 C2252 1.574 . S
C2235 C2254 1.368 . S
C2235 H2259 0.949 . S
H2236 C2240 0.949 . S
C2237 C2238 1.349 . S
C2237 C2239 1.327 . S
C2237 H2260 0.950 . S
C2238 C2237 1.349 . S
C2238 C2250 1.349 . S
C2239 C2237 1.327 . S
C2239 C2255 1.429 . S
C2239 H2261 0.950 . S
C2240 H2236 0.949 . S
C2240 C2248 1.574 . S
C2240 C2256 1.368 . S
H2241 C2249 0.950 . S
H2242 C2247 0.950 . S
H2243 C2248 0.949 . S
H2244 C2250 0.950 . S
H2245 C2251 0.950 . S
H2246 C2252 0.949 . S
C2247 H2242 0.950 . S
C2247 C2249 1.327 . S
C2247 C2253 1.429 . S
C2248 C2240 1.574 . S
C2248 H2243 0.949 . S
C2248 C2254 1.368 . S
C2249 C2233 1.349 . S
C2249 H2241 0.950 . S
C2249 C2247 1.327 . S
C2250 C2238 1.349 . S
C2250 H2244 0.950 . S
C2250 C2251 1.327 . S
C2251 H2245 0.950 . S
C2251 C2250 1.327 . S
C2251 C2255 1.429 . S
C2252 C2235 1.574 . S
C2252 H2246 0.949 . S
C2252 C2256 1.368 . S
C2253 C2234 1.429 . S
C2253 C2247 1.429 . S
C2253 C2254 1.523 . S
C2254 C2235 1.368 . S
C2254 C2248 1.368 . S
C2254 C2253 1.523 . S
C2255 C2239 1.429 . S
C2255 C2251 1.429 . S
C2255 C2256 1.523 . S
C2256 C2240 1.368 . S
C2256 C2252 1.368 . S
C2256 C2255 1.523 . S
H2257 C2232 0.950 . S
H2258 C2234 0.950 . S
H2259 C2235 0.949 . S
H2260 C2237 0.950 . S
H2261 C2239 0.950 . S
C2262 C2263 1.349 . S
C2262 C2264 1.327 . S
C2262 H2287 0.950 . S
C2263 C2262 1.349 . S
C2263 C2279 1.349 . S
C2264 C2262 1.327 . S
C2264 C2283 1.429 . S
C2264 H2288 0.950 . S
C2265 C2282 1.574 . S
C2265 C2284 1.368 . S
C2265 H2289 0.949 . S
H2266 C2270 0.949 . S
C2267 C2268 1.349 . S
C2267 C2269 1.327 . S
C2267 H2290 0.950 . S
C2268 C2267 1.349 . S
C2268 C2280 1.349 . S
C2269 C2267 1.327 . S
C2269 C2285 1.429 . S
C2269 H2291 0.950 . S
C2270 H2266 0.949 . S
C2270 C2278 1.574 . S
C2270 C2286 1.368 . S
H2271 C2279 0.950 . S
H2272 C2277 0.950 . S
H2273 C2278 0.949 . S
H2274 C2280 0.950 . S
H2275 C2281 0.950 . S
H2276 C2282 0.949 . S
C2277 H2272 0.950 . S
C2277 C2279 1.327 . S
C2277 C2283 1.429 . S
C2278 C2270 1.574 . S
C2278 H2273 0.949 . S
C2278 C2284 1.368 . S
C2279 C2263 1.349 . S
C2279 H2271 0.950 . S
C2279 C2277 1.327 . S
C2280 C2268 1.349 . S
C2280 H2274 0.950 . S
C2280 C2281 1.327 . S
C2281 H2275 0.950 . S
C2281 C2280 1.327 . S
C2281 C2285 1.429 . S
C2282 C2265 1.574 . S
C2282 H2276 0.949 . S
C2282 C2286 1.368 . S
C2283 C2264 1.429 . S
C2283 C2277 1.429 . S
C2283 C2284 1.523 . S
C2284 C2265 1.368 . S
C2284 C2278 1.368 . S
C2284 C2283 1.523 . S
C2285 C2269 1.429 . S
C2285 C2281 1.429 . S
C2285 C2286 1.523 . S
C2286 C2270 1.368 . S
C2286 C2282 1.368 . S
C2286 C2285 1.523 . S
H2287 C2262 0.950 . S
H2288 C2264 0.950 . S
H2289 C2265 0.949 . S
H2290 C2267 0.950 . S
H2291 C2269 0.950 . S
C2292 C2293 1.349 . S
C2292 C2294 1.327 . S
C2292 H2317 0.950 . S
C2293 C2292 1.349 . S
C2293 C2309 1.349 . S
C2294 C2292 1.327 . S
C2294 C2313 1.429 . S
C2294 H2318 0.950 . S
C2295 C2312 1.574 . S
C2295 C2314 1.368 . S
C2295 H2319 0.949 . S
H2296 C2300 0.949 . S
C2297 C2298 1.349 . S
C2297 C2299 1.327 . S
C2297 H2320 0.950 . S
C2298 C2297 1.349 . S
C2298 C2310 1.349 . S
C2299 C2297 1.327 . S
C2299 C2315 1.429 . S
C2299 H2321 0.950 . S
C2300 H2296 0.949 . S
C2300 C2308 1.574 . S
C2300 C2316 1.368 . S
H2301 C2309 0.950 . S
H2302 C2307 0.950 . S
H2303 C2308 0.949 . S
H2304 C2310 0.950 . S
H2305 C2311 0.950 . S
H2306 C2312 0.949 . S
C2307 H2302 0.950 . S
C2307 C2309 1.327 . S
C2307 C2313 1.429 . S
C2308 C2300 1.574 . S
C2308 H2303 0.949 . S
C2308 C2314 1.368 . S
C2309 C2293 1.349 . S
C2309 H2301 0.950 . S
C2309 C2307 1.327 . S
C2310 C2298 1.349 . S
C2310 H2304 0.950 . S
C2310 C2311 1.327 . S
C2311 H2305 0.950 . S
C2311 C2310 1.327 . S
C2311 C2315 1.429 . S
C2312 C2295 1.574 . S
C2312 H2306 0.949 . S
C2312 C2316 1.368 . S
C2313 C2294 1.429 . S
C2313 C2307 1.429 . S
C2313 C2314 1.523 . S
C2314 C2295 1.368 . S
C2314 C2308 1.368 . S
C2314 C2313 1.523 . S
C2315 C2299 1.429 . S
C2315 C2311 1.429 . S
C2315 C2316 1.523 . S
C2316 C2300 1.368 . S
C2316 C2312 1.368 . S
C2316 C2315 1.523 . S
H2317 C2292 0.950 . S
H2318 C2294 0.950 . S
H2319 C2295 0.949 . S
H2320 C2297 0.950 . S
H2321 C2299 0.950 . S
C2322 C2323 1.349 . S
C2322 C2324 1.327 . S
C2322 H2347 0.950 . S
C2323 C2322 1.349 . S
C2323 C2339 1.349 . S
C2324 C2322 1.327 . S
C2324 C2343 1.429 . S
C2324 H2348 0.950 . S
C2325 C2342 1.574 . S
C2325 C2344 1.368 . S
C2325 H2349 0.949 . S
H2326 C2330 0.949 . S
C2327 C2328 1.349 . S
C2327 C2329 1.327 . S
C2327 H2350 0.950 . S
C2328 C2327 1.349 . S
C2328 C2340 1.349 . S
C2329 C2327 1.327 . S
C2329 C2345 1.429 . S
C2329 H2351 0.950 . S
C2330 H2326 0.949 . S
C2330 C2338 1.574 . S
C2330 C2346 1.368 . S
H2331 C2339 0.950 . S
H2332 C2337 0.950 . S
H2333 C2338 0.949 . S
H2334 C2340 0.950 . S
H2335 C2341 0.950 . S
H2336 C2342 0.949 . S
C2337 H2332 0.950 . S
C2337 C2339 1.327 . S
C2337 C2343 1.429 . S
C2338 C2330 1.574 . S
C2338 H2333 0.949 . S
C2338 C2344 1.368 . S
C2339 C2323 1.349 . S
C2339 H2331 0.950 . S
C2339 C2337 1.327 . S
C2340 C2328 1.349 . S
C2340 H2334 0.950 . S
C2340 C2341 1.327 . S
C2341 H2335 0.950 . S
C2341 C2340 1.327 . S
C2341 C2345 1.429 . S
C2342 C2325 1.574 . S
C2342 H2336 0.949 . S
C2342 C2346 1.368 . S
C2343 C2324 1.429 . S
C2343 C2337 1.429 . S
C2343 C2344 1.523 . S
C2344 C2325 1.368 . S
C2344 C2338 1.368 . S
C2344 C2343 1.523 . S
C2345 C2329 1.429 . S
C2345 C2341 1.429 . S
C2345 C2346 1.523 . S
C2346 C2330 1.368 . S
C2346 C2342 1.368 . S
C2346 C2345 1.523 . S
H2347 C2322 0.950 . S
H2348 C2324 0.950 . S
H2349 C2325 0.949 . S
H2350 C2327 0.950 . S
H2351 C2329 0.950 . S
C2352 C2353 1.349 . S
C2352 C2354 1.327 . S
C2352 H2377 0.950 . S
C2353 C2352 1.349 . S
C2353 C2369 1.349 . S
C2354 C2352 1.327 . S
C2354 C2373 1.429 . S
C2354 H2378 0.950 . S
C2355 C2372 1.574 . S
C2355 C2374 1.368 . S
C2355 H2379 0.949 . S
H2356 C2360 0.949 . S
C2357 C2358 1.349 . S
C2357 C2359 1.327 . S
C2357 H2380 0.950 . S
C2358 C2357 1.349 . S
C2358 C2370 1.349 . S
C2359 C2357 1.327 . S
C2359 C2375 1.429 . S
C2359 H2381 0.950 . S
C2360 H2356 0.949 . S
C2360 C2368 1.574 . S
C2360 C2376 1.368 . S
H2361 C2369 0.950 . S
H2362 C2367 0.950 . S
H2363 C2368 0.949 . S
H2364 C2370 0.950 . S
H2365 C2371 0.950 . S
H2366 C2372 0.949 . S
C2367 H2362 0.950 . S
C2367 C2369 1.327 . S
C2367 C2373 1.429 . S
C2368 C2360 1.574 . S
C2368 H2363 0.949 . S
C2368 C2374 1.368 . S
C2369 C2353 1.349 . S
C2369 H2361 0.950 . S
C2369 C2367 1.327 . S
C2370 C2358 1.349 . S
C2370 H2364 0.950 . S
C2370 C2371 1.327 . S
C2371 H2365 0.950 . S
C2371 C2370 1.327 . S
C2371 C2375 1.429 . S
C2372 C2355 1.574 . S
C2372 H2366 0.949 . S
C2372 C2376 1.368 . S
C2373 C2354 1.429 . S
C2373 C2367 1.429 . S
C2373 C2374 1.523 . S
C2374 C2355 1.368 . S
C2374 C2368 1.368 . S
C2374 C2373 1.523 . S
C2375 C2359 1.429 . S
C2375 C2371 1.429 . S
C2375 C2376 1.523 . S
C2376 C2360 1.368 . S
C2376 C2372 1.368 . S
C2376 C2375 1.523 . S
H2377 C2352 0.950 . S
H2378 C2354 0.950 . S
H2379 C2355 0.949 . S
H2380 C2357 0.950 . S
H2381 C2359 0.950 . S
C2382 C2383 1.349 . S
C2382 C2384 1.327 . S
C2382 H2407 0.950 . S
C2383 C2382 1.349 . S
C2383 C2399 1.349 . S
C2384 C2382 1.327 . S
C2384 C2403 1.429 . S
C2384 H2408 0.950 . S
C2385 C2402 1.574 . S
C2385 C2404 1.368 . S
C2385 H2409 0.949 . S
H2386 C2390 0.949 . S
C2387 C2388 1.349 . S
C2387 C2389 1.327 . S
C2387 H2410 0.950 . S
C2388 C2387 1.349 . S
C2388 C2400 1.349 . S
C2389 C2387 1.327 . S
C2389 C2405 1.429 . S
C2389 H2411 0.950 . S
C2390 H2386 0.949 . S
C2390 C2398 1.574 . S
C2390 C2406 1.368 . S
H2391 C2399 0.950 . S
H2392 C2397 0.950 . S
H2393 C2398 0.949 . S
H2394 C2400 0.950 . S
H2395 C2401 0.950 . S
H2396 C2402 0.949 . S
C2397 H2392 0.950 . S
C2397 C2399 1.327 . S
C2397 C2403 1.429 . S
C2398 C2390 1.574 . S
C2398 H2393 0.949 . S
C2398 C2404 1.368 . S
C2399 C2383 1.349 . S
C2399 H2391 0.950 . S
C2399 C2397 1.327 . S
C2400 C2388 1.349 . S
C2400 H2394 0.950 . S
C2400 C2401 1.327 . S
C2401 H2395 0.950 . S
C2401 C2400 1.327 . S
C2401 C2405 1.429 . S
C2402 C2385 1.574 . S
C2402 H2396 0.949 . S
C2402 C2406 1.368 . S
C2403 C2384 1.429 . S
C2403 C2397 1.429 . S
C2403 C2404 1.523 . S
C2404 C2385 1.368 . S
C2404 C2398 1.368 . S
C2404 C2403 1.523 . S
C2405 C2389 1.429 . S
C2405 C2401 1.429 . S
C2405 C2406 1.523 . S
C2406 C2390 1.368 . S
C2406 C2402 1.368 . S
C2406 C2405 1.523 . S
H2407 C2382 0.950 . S
H2408 C2384 0.950 . S
H2409 C2385 0.949 . S
H2410 C2387 0.950 . S
H2411 C2389 0.950 . S
C2412 C2413 1.349 . S
C2412 C2414 1.327 . S
C2412 H2437 0.950 . S
C2413 C2412 1.349 . S
C2413 C2429 1.349 . S
C2414 C2412 1.327 . S
C2414 C2433 1.429 . S
C2414 H2438 0.950 . S
C2415 C2432 1.574 . S
C2415 C2434 1.368 . S
C2415 H2439 0.949 . S
H2416 C2420 0.949 . S
C2417 C2418 1.349 . S
C2417 C2419 1.327 . S
C2417 H2440 0.950 . S
C2418 C2417 1.349 . S
C2418 C2430 1.349 . S
C2419 C2417 1.327 . S
C2419 C2435 1.429 . S
C2419 H2441 0.950 . S
C2420 H2416 0.949 . S
C2420 C2428 1.574 . S
C2420 C2436 1.368 . S
H2421 C2429 0.950 . S
H2422 C2427 0.950 . S
H2423 C2428 0.949 . S
H2424 C2430 0.950 . S
H2425 C2431 0.950 . S
H2426 C2432 0.949 . S
C2427 H2422 0.950 . S
C2427 C2429 1.327 . S
C2427 C2433 1.429 . S
C2428 C2420 1.574 . S
C2428 H2423 0.949 . S
C2428 C2434 1.368 . S
C2429 C2413 1.349 . S
C2429 H2421 0.950 . S
C2429 C2427 1.327 . S
C2430 C2418 1.349 . S
C2430 H2424 0.950 . S
C2430 C2431 1.327 . S
C2431 H2425 0.950 . S
C2431 C2430 1.327 . S
C2431 C2435 1.429 . S
C2432 C2415 1.574 . S
C2432 H2426 0.949 . S
C2432 C2436 1.368 . S
C2433 C2414 1.429 . S
C2433 C2427 1.429 . S
C2433 C2434 1.523 . S
C2434 C2415 1.368 . S
C2434 C2428 1.368 . S
C2434 C2433 1.523 . S
C2435 C2419 1.429 . S
C2435 C2431 1.429 . S
C2435 C2436 1.523 . S
C2436 C2420 1.368 . S
C2436 C2432 1.368 . S
C2436 C2435 1.523 . S
H2437 C2412 0.950 . S
H2438 C2414 0.950 . S
H2439 C2415 0.949 . S
H2440 C2417 0.950 . S
H2441 C2419 0.950 . S
C2442 C2443 1.349 . S
C2442 C2444 1.327 . S
C2442 H2467 0.950 . S
C2443 C2442 1.349 . S
C2443 C2459 1.349 . S
C2444 C2442 1.327 . S
C2444 C2463 1.429 . S
C2444 H2468 0.950 . S
C2445 C2462 1.574 . S
C2445 C2464 1.368 . S
C2445 H2469 0.949 . S
H2446 C2450 0.949 . S
C2447 C2448 1.349 . S
C2447 C2449 1.327 . S
C2447 H2470 0.950 . S
C2448 C2447 1.349 . S
C2448 C2460 1.349 . S
C2449 C2447 1.327 . S
C2449 C2465 1.429 . S
C2449 H2471 0.950 . S
C2450 H2446 0.949 . S
C2450 C2458 1.574 . S
C2450 C2466 1.368 . S
H2451 C2459 0.950 . S
H2452 C2457 0.950 . S
H2453 C2458 0.949 . S
H2454 C2460 0.950 . S
H2455 C2461 0.950 . S
H2456 C2462 0.949 . S
C2457 H2452 0.950 . S
C2457 C2459 1.327 . S
C2457 C2463 1.429 . S
C2458 C2450 1.574 . S
C2458 H2453 0.949 . S
C2458 C2464 1.368 . S
C2459 C2443 1.349 . S
C2459 H2451 0.950 . S
C2459 C2457 1.327 . S
C2460 C2448 1.349 . S
C2460 H2454 0.950 . S
C2460 C2461 1.327 . S
C2461 H2455 0.950 . S
C2461 C2460 1.327 . S
C2461 C2465 1.429 . S
C2462 C2445 1.574 . S
C2462 H2456 0.949 . S
C2462 C2466 1.368 . S
C2463 C2444 1.429 . S
C2463 C2457 1.429 . S
C2463 C2464 1.523 . S
C2464 C2445 1.368 . S
C2464 C2458 1.368 . S
C2464 C2463 1.523 . S
C2465 C2449 1.429 . S
C2465 C2461 1.429 . S
C2465 C2466 1.523 . S
C2466 C2450 1.368 . S
C2466 C2462 1.368 . S
C2466 C2465 1.523 . S
H2467 C2442 0.950 . S
H2468 C2444 0.950 . S
H2469 C2445 0.949 . S
H2470 C2447 0.950 . S
H2471 C2449 0.950 . S
C2472 C2473 1.349 . S
C2472 C2474 1.327 . S
C2472 H2497 0.950 . S
C2473 C2472 1.349 . S
C2473 C2489 1.349 . S
C2474 C2472 1.327 . S
C2474 C2493 1.429 . S
C2474 H2498 0.950 . S
C2475 C2492 1.574 . S
C2475 C2494 1.368 . S
C2475 H2499 0.949 . S
H2476 C2480 0.949 . S
C2477 C2478 1.349 . S
C2477 C2479 1.327 . S
C2477 H2500 0.950 . S
C2478 C2477 1.349 . S
C2478 C2490 1.349 . S
C2479 C2477 1.327 . S
C2479 C2495 1.429 . S
C2479 H2501 0.950 . S
C2480 H2476 0.949 . S
C2480 C2488 1.574 . S
C2480 C2496 1.368 . S
H2481 C2489 0.950 . S
H2482 C2487 0.950 . S
H2483 C2488 0.949 . S
H2484 C2490 0.950 . S
H2485 C2491 0.950 . S
H2486 C2492 0.949 . S
C2487 H2482 0.950 . S
C2487 C2489 1.327 . S
C2487 C2493 1.429 . S
C2488 C2480 1.574 . S
C2488 H2483 0.949 . S
C2488 C2494 1.368 . S
C2489 C2473 1.349 . S
C2489 H2481 0.950 . S
C2489 C2487 1.327 . S
C2490 C2478 1.349 . S
C2490 H2484 0.950 . S
C2490 C2491 1.327 . S
C2491 H2485 0.950 . S
C2491 C2490 1.327 . S
C2491 C2495 1.429 . S
C2492 C2475 1.574 . S
C2492 H2486 0.949 . S
C2492 C2496 1.368 . S
C2493 C2474 1.429 . S
C2493 C2487 1.429 . S
C2493 C2494 1.523 . S
C2494 C2475 1.368 . S
C2494 C2488 1.368 . S
C2494 C2493 1.523 . S
C2495 C2479 1.429 . S
C2495 C2491 1.429 . S
C2495 C2496 1.523 . S
C2496 C2480 1.368 . S
C2496 C2492 1.368 . S
C2496 C2495 1.523 . S
H2497 C2472 0.950 . S
H2498 C2474 0.950 . S
H2499 C2475 0.949 . S
H2500 C2477 0.950 . S
H2501 C2479 0.950 . S
C2502 C2503 1.349 . S
C2502 C2504 1.327 . S
C2502 H2527 0.950 . S
C2503 C2502 1.349 . S
C2503 C2519 1.349 . S
C2504 C2502 1.327 . S
C2504 C2523 1.429 . S
C2504 H2528 0.950 . S
C2505 C2522 1.574 . S
C2505 C2524 1.368 . S
C2505 H2529 0.949 . S
H2506 C2510 0.949 . S
C2507 C2508 1.349 . S
C2507 C2509 1.327 . S
C2507 H2530 0.950 . S
C2508 C2507 1.349 . S
C2508 C2520 1.349 . S
C2509 C2507 1.327 . S
C2509 C2525 1.429 . S
C2509 H2531 0.950 . S
C2510 H2506 0.949 . S
C2510 C2518 1.574 . S
C2510 C2526 1.368 . S
H2511 C2519 0.950 . S
H2512 C2517 0.950 . S
H2513 C2518 0.949 . S
H2514 C2520 0.950 . S
H2515 C2521 0.950 . S
H2516 C2522 0.949 . S
C2517 H2512 0.950 . S
C2517 C2519 1.327 . S
C2517 C2523 1.429 . S
C2518 C2510 1.574 . S
C2518 H2513 0.949 . S
C2518 C2524 1.368 . S
C2519 C2503 1.349 . S
C2519 H2511 0.950 . S
C2519 C2517 1.327 . S
C2520 C2508 1.349 . S
C2520 H2514 0.950 . S
C2520 C2521 1.327 . S
C2521 H2515 0.950 . S
C2521 C2520 1.327 . S
C2521 C2525 1.429 . S
C2522 C2505 1.574 . S
C2522 H2516 0.949 . S
C2522 C2526 1.368 . S
C2523 C2504 1.429 . S
C2523 C2517 1.429 . S
C2523 C2524 1.523 . S
C2524 C2505 1.368 . S
C2524 C2518 1.368 . S
C2524 C2523 1.523 . S
C2525 C2509 1.429 . S
C2525 C2521 1.429 . S
C2525 C2526 1.523 . S
C2526 C2510 1.368 . S
C2526 C2522 1.368 . S
C2526 C2525 1.523 . S
H2527 C2502 0.950 . S
H2528 C2504 0.950 . S
H2529 C2505 0.949 . S
H2530 C2507 0.950 . S
H2531 C2509 0.950 . S
C2532 C2533 1.349 . S
C2532 C2534 1.327 . S
C2532 H2557 0.950 . S
C2533 C2532 1.349 . S
C2533 C2549 1.349 . S
C2534 C2532 1.327 . S
C2534 C2553 1.429 . S
C2534 H2558 0.950 . S
C2535 C2552 1.574 . S
C2535 C2554 1.368 . S
C2535 H2559 0.949 . S
H2536 C2540 0.949 . S
C2537 C2538 1.349 . S
C2537 C2539 1.327 . S
C2537 H2560 0.950 . S
C2538 C2537 1.349 . S
C2538 C2550 1.349 . S
C2539 C2537 1.327 . S
C2539 C2555 1.429 . S
C2539 H2561 0.950 . S
C2540 H2536 0.949 . S
C2540 C2548 1.574 . S
C2540 C2556 1.368 . S
H2541 C2549 0.950 . S
H2542 C2547 0.950 . S
H2543 C2548 0.949 . S
H2544 C2550 0.950 . S
H2545 C2551 0.950 . S
H2546 C2552 0.949 . S
C2547 H2542 0.950 . S
C2547 C2549 1.327 . S
C2547 C2553 1.429 . S
C2548 C2540 1.574 . S
C2548 H2543 0.949 . S
C2548 C2554 1.368 . S
C2549 C2533 1.349 . S
C2549 H2541 0.950 . S
C2549 C2547 1.327 . S
C2550 C2538 1.349 . S
C2550 H2544 0.950 . S
C2550 C2551 1.327 . S
C2551 H2545 0.950 . S
C2551 C2550 1.327 . S
C2551 C2555 1.429 . S
C2552 C2535 1.574 . S
C2552 H2546 0.949 . S
C2552 C2556 1.368 . S
C2553 C2534 1.429 . S
C2553 C2547 1.429 . S
C2553 C2554 1.523 . S
C2554 C2535 1.368 . S
C2554 C2548 1.368 . S
C2554 C2553 1.523 . S
C2555 C2539 1.429 . S
C2555 C2551 1.429 . S
C2555 C2556 1.523 . S
C2556 C2540 1.368 . S
C2556 C2552 1.368 . S
C2556 C2555 1.523 . S
H2557 C2532 0.950 . S
H2558 C2534 0.950 . S
H2559 C2535 0.949 . S
H2560 C2537 0.950 . S
H2561 C2539 0.950 . S
C2562 C2563 1.349 . S
C2562 C2564 1.327 . S
C2562 H2587 0.950 . S
C2563 C2562 1.349 . S
C2563 C2579 1.349 . S
C2564 C2562 1.327 . S
C2564 C2583 1.429 . S
C2564 H2588 0.950 . S
C2565 C2582 1.574 . S
C2565 C2584 1.368 . S
C2565 H2589 0.949 . S
H2566 C2570 0.949 . S
C2567 C2568 1.349 . S
C2567 C2569 1.327 . S
C2567 H2590 0.950 . S
C2568 C2567 1.349 . S
C2568 C2580 1.349 . S
C2569 C2567 1.327 . S
C2569 C2585 1.429 . S
C2569 H2591 0.950 . S
C2570 H2566 0.949 . S
C2570 C2578 1.574 . S
C2570 C2586 1.368 . S
H2571 C2579 0.950 . S
H2572 C2577 0.950 . S
H2573 C2578 0.949 . S
H2574 C2580 0.950 . S
H2575 C2581 0.950 . S
H2576 C2582 0.949 . S
C2577 H2572 0.950 . S
C2577 C2579 1.327 . S
C2577 C2583 1.429 . S
C2578 C2570 1.574 . S
C2578 H2573 0.949 . S
C2578 C2584 1.368 . S
C2579 C2563 1.349 . S
C2579 H2571 0.950 . S
C2579 C2577 1.327 . S
C2580 C2568 1.349 . S
C2580 H2574 0.950 . S
C2580 C2581 1.327 . S
C2581 H2575 0.950 . S
C2581 C2580 1.327 . S
C2581 C2585 1.429 . S
C2582 C2565 1.574 . S
C2582 H2576 0.949 . S
C2582 C2586 1.368 . S
C2583 C2564 1.429 . S
C2583 C2577 1.429 . S
C2583 C2584 1.523 . S
C2584 C2565 1.368 . S
C2584 C2578 1.368 . S
C2584 C2583 1.523 . S
C2585 C2569 1.429 . S
C2585 C2581 1.429 . S
C2585 C2586 1.523 . S
C2586 C2570 1.368 . S
C2586 C2582 1.368 . S
C2586 C2585 1.523 . S
H2587 C2562 0.950 . S
H2588 C2564 0.950 . S
H2589 C2565 0.949 . S
H2590 C2567 0.950 . S
H2591 C2569 0.950 . S
C2592 C2593 1.349 . S
C2592 C2594 1.327 . S
C2592 H2617 0.950 . S
C2593 C2592 1.349 . S
C2593 C2609 1.349 . S
C2594 C2592 1.327 . S
C2594 C2613 1.429 . S
C2594 H2618 0.950 . S
C2595 C2612 1.574 . S
C2595 C2614 1.368 . S
C2595 H2619 0.949 . S
H2596 C2600 0.949 . S
C2597 C2598 1.349 . S
C2597 C2599 1.327 . S
C2597 H2620 0.950 . S
C2598 C2597 1.349 . S
C2598 C2610 1.349 . S
C2599 C2597 1.327 . S
C2599 C2615 1.429 . S
C2599 H2621 0.950 . S
C2600 H2596 0.949 . S
C2600 C2608 1.574 . S
C2600 C2616 1.368 . S
H2601 C2609 0.950 . S
H2602 C2607 0.950 . S
H2603 C2608 0.949 . S
H2604 C2610 0.950 . S
H2605 C2611 0.950 . S
H2606 C2612 0.949 . S
C2607 H2602 0.950 . S
C2607 C2609 1.327 . S
C2607 C2613 1.429 . S
C2608 C2600 1.574 . S
C2608 H2603 0.949 . S
C2608 C2614 1.368 . S
C2609 C2593 1.349 . S
C2609 H2601 0.950 . S
C2609 C2607 1.327 . S
C2610 C2598 1.349 . S
C2610 H2604 0.950 . S
C2610 C2611 1.327 . S
C2611 H2605 0.950 . S
C2611 C2610 1.327 . S
C2611 C2615 1.429 . S
C2612 C2595 1.574 . S
C2612 H2606 0.949 . S
C2612 C2616 1.368 . S
C2613 C2594 1.429 . S
C2613 C2607 1.429 . S
C2613 C2614 1.523 . S
C2614 C2595 1.368 . S
C2614 C2608 1.368 . S
C2614 C2613 1.523 . S
C2615 C2599 1.429 . S
C2615 C2611 1.429 . S
C2615 C2616 1.523 . S
C2616 C2600 1.368 . S
C2616 C2612 1.368 . S
C2616 C2615 1.523 . S
H2617 C2592 0.950 . S
H2618 C2594 0.950 . S
H2619 C2595 0.949 . S
H2620 C2597 0.950 . S
H2621 C2599 0.950 . S
C2622 C2623 1.349 . S
C2622 C2624 1.327 . S
C2622 H2647 0.950 . S
C2623 C2622 1.349 . S
C2623 C2639 1.349 . S
C2624 C2622 1.327 . S
C2624 C2643 1.429 . S
C2624 H2648 0.950 . S
C2625 C2642 1.574 . S
C2625 C2644 1.368 . S
C2625 H2649 0.949 . S
H2626 C2630 0.949 . S
C2627 C2628 1.349 . S
C2627 C2629 1.327 . S
C2627 H2650 0.950 . S
C2628 C2627 1.349 . S
C2628 C2640 1.349 . S
C2629 C2627 1.327 . S
C2629 C2645 1.429 . S
C2629 H2651 0.950 . S
C2630 H2626 0.949 . S
C2630 C2638 1.574 . S
C2630 C2646 1.368 . S
H2631 C2639 0.950 . S
H2632 C2637 0.950 . S
H2633 C2638 0.949 . S
H2634 C2640 0.950 . S
H2635 C2641 0.950 . S
H2636 C2642 0.949 . S
C2637 H2632 0.950 . S
C2637 C2639 1.327 . S
C2637 C2643 1.429 . S
C2638 C2630 1.574 . S
C2638 H2633 0.949 . S
C2638 C2644 1.368 . S
C2639 C2623 1.349 . S
C2639 H2631 0.950 . S
C2639 C2637 1.327 . S
C2640 C2628 1.349 . S
C2640 H2634 0.950 . S
C2640 C2641 1.327 . S
C2641 H2635 0.950 . S
C2641 C2640 1.327 . S
C2641 C2645 1.429 . S
C2642 C2625 1.574 . S
C2642 H2636 0.949 . S
C2642 C2646 1.368 . S
C2643 C2624 1.429 . S
C2643 C2637 1.429 . S
C2643 C2644 1.523 . S
C2644 C2625 1.368 . S
C2644 C2638 1.368 . S
C2644 C2643 1.523 . S
C2645 C2629 1.429 . S
C2645 C2641 1.429 . S
C2645 C2646 1.523 . S
C2646 C2630 1.368 . S
C2646 C2642 1.368 . S
C2646 C2645 1.523 . S
H2647 C2622 0.950 . S
H2648 C2624 0.950 . S
H2649 C2625 0.949 . S
H2650 C2627 0.950 . S
H2651 C2629 0.950 . S
C2652 C2653 1.349 . S
C2652 C2654 1.327 . S
C2652 H2677 0.950 . S
C2653 C2652 1.349 . S
C2653 C2669 1.349 . S
C2654 C2652 1.327 . S
C2654 C2673 1.429 . S
C2654 H2678 0.950 . S
C2655 C2672 1.574 . S
C2655 C2674 1.368 . S
C2655 H2679 0.949 . S
H2656 C2660 0.949 . S
C2657 C2658 1.349 . S
C2657 C2659 1.327 . S
C2657 H2680 0.950 . S
C2658 C2657 1.349 . S
C2658 C2670 1.349 . S
C2659 C2657 1.327 . S
C2659 C2675 1.429 . S
C2659 H2681 0.950 . S
C2660 H2656 0.949 . S
C2660 C2668 1.574 . S
C2660 C2676 1.368 . S
H2661 C2669 0.950 . S
H2662 C2667 0.950 . S
H2663 C2668 0.949 . S
H2664 C2670 0.950 . S
H2665 C2671 0.950 . S
H2666 C2672 0.949 . S
C2667 H2662 0.950 . S
C2667 C2669 1.327 . S
C2667 C2673 1.429 . S
C2668 C2660 1.574 . S
C2668 H2663 0.949 . S
C2668 C2674 1.368 . S
C2669 C2653 1.349 . S
C2669 H2661 0.950 . S
C2669 C2667 1.327 . S
C2670 C2658 1.349 . S
C2670 H2664 0.950 . S
C2670 C2671 1.327 . S
C2671 H2665 0.950 . S
C2671 C2670 1.327 . S
C2671 C2675 1.429 . S
C2672 C2655 1.574 . S
C2672 H2666 0.949 . S
C2672 C2676 1.368 . S
C2673 C2654 1.429 . S
C2673 C2667 1.429 . S
C2673 C2674 1.523 . S
C2674 C2655 1.368 . S
C2674 C2668 1.368 . S
C2674 C2673 1.523 . S
C2675 C2659 1.429 . S
C2675 C2671 1.429 . S
C2675 C2676 1.523 . S
C2676 C2660 1.368 . S
C2676 C2672 1.368 . S
C2676 C2675 1.523 . S
H2677 C2652 0.950 . S
H2678 C2654 0.950 . S
H2679 C2655 0.949 . S
H2680 C2657 0.950 . S
H2681 C2659 0.950 . S
C2682 C2683 1.349 . S
C2682 C2684 1.327 . S
C2682 H2707 0.950 . S
C2683 C2682 1.349 . S
C2683 C2699 1.349 . S
C2684 C2682 1.327 . S
C2684 C2703 1.429 . S
C2684 H2708 0.950 . S
C2685 C2702 1.574 . S
C2685 C2704 1.368 . S
C2685 H2709 0.949 . S
H2686 C2690 0.949 . S
C2687 C2688 1.349 . S
C2687 C2689 1.327 . S
C2687 H2710 0.950 . S
C2688 C2687 1.349 . S
C2688 C2700 1.349 . S
C2689 C2687 1.327 . S
C2689 C2705 1.429 . S
C2689 H2711 0.950 . S
C2690 H2686 0.949 . S
C2690 C2698 1.574 . S
C2690 C2706 1.368 . S
H2691 C2699 0.950 . S
H2692 C2697 0.950 . S
H2693 C2698 0.949 . S
H2694 C2700 0.950 . S
H2695 C2701 0.950 . S
H2696 C2702 0.949 . S
C2697 H2692 0.950 . S
C2697 C2699 1.327 . S
C2697 C2703 1.429 . S
C2698 C2690 1.574 . S
C2698 H2693 0.949 . S
C2698 C2704 1.368 . S
C2699 C2683 1.349 . S
C2699 H2691 0.950 . S
C2699 C2697 1.327 . S
C2700 C2688 1.349 . S
C2700 H2694 0.950 . S
C2700 C2701 1.327 . S
C2701 H2695 0.950 . S
C2701 C2700 1.327 . S
C2701 C2705 1.429 . S
C2702 C2685 1.574 . S
C2702 H2696 0.949 . S
C2702 C2706 1.368 . S
C2703 C2684 1.429 . S
C2703 C2697 1.429 . S
C2703 C2704 1.523 . S
C2704 C2685 1.368 . S
C2704 C2698 1.368 . S
C2704 C2703 1.523 . S
C2705 C2689 1.429 . S
C2705 C2701 1.429 . S
C2705 C2706 1.523 . S
C2706 C2690 1.368 . S
C2706 C2702 1.368 . S
C2706 C2705 1.523 . S
H2707 C2682 0.950 . S
H2708 C2684 0.950 . S
H2709 C2685 0.949 . S
H2710 C2687 0.950 . S
H2711 C2689 0.950 . S
C2712 C2713 1.349 . S
C2712 C2714 1.327 . S
C2712 H2737 0.950 . S
C2713 C2712 1.349 . S
C2713 C2729 1.349 . S
C2714 C2712 1.327 . S
C2714 C2733 1.429 . S
C2714 H2738 0.950 . S
C2715 C2732 1.574 . S
C2715 C2734 1.368 . S
C2715 H2739 0.949 . S
H2716 C2720 0.949 . S
C2717 C2718 1.349 . S
C2717 C2719 1.327 . S
C2717 H2740 0.950 . S
C2718 C2717 1.349 . S
C2718 C2730 1.349 . S
C2719 C2717 1.327 . S
C2719 C2735 1.429 . S
C2719 H2741 0.950 . S
C2720 H2716 0.949 . S
C2720 C2728 1.574 . S
C2720 C2736 1.368 . S
H2721 C2729 0.950 . S
H2722 C2727 0.950 . S
H2723 C2728 0.949 . S
H2724 C2730 0.950 . S
H2725 C2731 0.950 . S
H2726 C2732 0.949 . S
C2727 H2722 0.950 . S
C2727 C2729 1.327 . S
C2727 C2733 1.429 . S
C2728 C2720 1.574 . S
C2728 H2723 0.949 . S
C2728 C2734 1.368 . S
C2729 C2713 1.349 . S
C2729 H2721 0.950 . S
C2729 C2727 1.327 . S
C2730 C2718 1.349 . S
C2730 H2724 0.950 . S
C2730 C2731 1.327 . S
C2731 H2725 0.950 . S
C2731 C2730 1.327 . S
C2731 C2735 1.429 . S
C2732 C2715 1.574 . S
C2732 H2726 0.949 . S
C2732 C2736 1.368 . S
C2733 C2714 1.429 . S
C2733 C2727 1.429 . S
C2733 C2734 1.523 . S
C2734 C2715 1.368 . S
C2734 C2728 1.368 . S
C2734 C2733 1.523 . S
C2735 C2719 1.429 . S
C2735 C2731 1.429 . S
C2735 C2736 1.523 . S
C2736 C2720 1.368 . S
C2736 C2732 1.368 . S
C2736 C2735 1.523 . S
H2737 C2712 0.950 . S
H2738 C2714 0.950 . S
H2739 C2715 0.949 . S
H2740 C2717 0.950 . S
H2741 C2719 0.950 . S
C2742 C2743 1.349 . S
C2742 C2744 1.327 . S
C2742 H2767 0.950 . S
C2743 C2742 1.349 . S
C2743 C2759 1.349 . S
C2744 C2742 1.327 . S
C2744 C2763 1.429 . S
C2744 H2768 0.950 . S
C2745 C2762 1.574 . S
C2745 C2764 1.368 . S
C2745 H2769 0.949 . S
H2746 C2750 0.949 . S
C2747 C2748 1.349 . S
C2747 C2749 1.327 . S
C2747 H2770 0.950 . S
C2748 C2747 1.349 . S
C2748 C2760 1.349 . S
C2749 C2747 1.327 . S
C2749 C2765 1.429 . S
C2749 H2771 0.950 . S
C2750 H2746 0.949 . S
C2750 C2758 1.574 . S
C2750 C2766 1.368 . S
H2751 C2759 0.950 . S
H2752 C2757 0.950 . S
H2753 C2758 0.949 . S
H2754 C2760 0.950 . S
H2755 C2761 0.950 . S
H2756 C2762 0.949 . S
C2757 H2752 0.950 . S
C2757 C2759 1.327 . S
C2757 C2763 1.429 . S
C2758 C2750 1.574 . S
C2758 H2753 0.949 . S
C2758 C2764 1.368 . S
C2759 C2743 1.349 . S
C2759 H2751 0.950 . S
C2759 C2757 1.327 . S
C2760 C2748 1.349 . S
C2760 H2754 0.950 . S
C2760 C2761 1.327 . S
C2761 H2755 0.950 . S
C2761 C2760 1.327 . S
C2761 C2765 1.429 . S
C2762 C2745 1.574 . S
C2762 H2756 0.949 . S
C2762 C2766 1.368 . S
C2763 C2744 1.429 . S
C2763 C2757 1.429 . S
C2763 C2764 1.523 . S
C2764 C2745 1.368 . S
C2764 C2758 1.368 . S
C2764 C2763 1.523 . S
C2765 C2749 1.429 . S
C2765 C2761 1.429 . S
C2765 C2766 1.523 . S
C2766 C2750 1.368 . S
C2766 C2762 1.368 . S
C2766 C2765 1.523 . S
H2767 C2742 0.950 . S
H2768 C2744 0.950 . S
H2769 C2745 0.949 . S
H2770 C2747 0.950 . S
H2771 C2749 0.950 . S
C2772 C2773 1.349 . S
C2772 C2774 1.327 . S
C2772 H2797 0.950 . S
C2773 C2772 1.349 . S
C2773 C2789 1.349 . S
C2774 C2772 1.327 . S
C2774 C2793 1.429 . S
C2774 H2798 0.950 . S
C2775 C2792 1.574 . S
C2775 C2794 1.368 . S
C2775 H2799 0.949 . S
H2776 C2780 0.949 . S
C2777 C2778 1.349 . S
C2777 C2779 1.327 . S
C2777 H2800 0.950 . S
C2778 C2777 1.349 . S
C2778 C2790 1.349 . S
C2779 C2777 1.327 . S
C2779 C2795 1.429 . S
C2779 H2801 0.950 . S
C2780 H2776 0.949 . S
C2780 C2788 1.574 . S
C2780 C2796 1.368 . S
H2781 C2789 0.950 . S
H2782 C2787 0.950 . S
H2783 C2788 0.949 . S
H2784 C2790 0.950 . S
H2785 C2791 0.950 . S
H2786 C2792 0.949 . S
C2787 H2782 0.950 . S
C2787 C2789 1.327 . S
C2787 C2793 1.429 . S
C2788 C2780 1.574 . S
C2788 H2783 0.949 . S
C2788 C2794 1.368 . S
C2789 C2773 1.349 . S
C2789 H2781 0.950 . S
C2789 C2787 1.327 . S
C2790 C2778 1.349 . S
C2790 H2784 0.950 . S
C2790 C2791 1.327 . S
C2791 H2785 0.950 . S
C2791 C2790 1.327 . S
C2791 C2795 1.429 . S
C2792 C2775 1.574 . S
C2792 H2786 0.949 . S
C2792 C2796 1.368 . S
C2793 C2774 1.429 . S
C2793 C2787 1.429 . S
C2793 C2794 1.523 . S
C2794 C2775 1.368 . S
C2794 C2788 1.368 . S
C2794 C2793 1.523 . S
C2795 C2779 1.429 . S
C2795 C2791 1.429 . S
C2795 C2796 1.523 . S
C2796 C2780 1.368 . S
C2796 C2792 1.368 . S
C2796 C2795 1.523 . S
H2797 C2772 0.950 . S
H2798 C2774 0.950 . S
H2799 C2775 0.949 . S
H2800 C2777 0.950 . S
H2801 C2779 0.950 . S
C2802 C2803 1.349 . S
C2802 C2804 1.327 . S
C2802 H2827 0.950 . S
C2803 C2802 1.349 . S
C2803 C2819 1.349 . S
C2804 C2802 1.327 . S
C2804 C2823 1.429 . S
C2804 H2828 0.950 . S
C2805 C2822 1.574 . S
C2805 C2824 1.368 . S
C2805 H2829 0.949 . S
H2806 C2810 0.949 . S
C2807 C2808 1.349 . S
C2807 C2809 1.327 . S
C2807 H2830 0.950 . S
C2808 C2807 1.349 . S
C2808 C2820 1.349 . S
C2809 C2807 1.327 . S
C2809 C2825 1.429 . S
C2809 H2831 0.950 . S
C2810 H2806 0.949 . S
C2810 C2818 1.574 . S
C2810 C2826 1.368 . S
H2811 C2819 0.950 . S
H2812 C2817 0.950 . S
H2813 C2818 0.949 . S
H2814 C2820 0.950 . S
H2815 C2821 0.950 . S
H2816 C2822 0.949 . S
C2817 H2812 0.950 . S
C2817 C2819 1.327 . S
C2817 C2823 1.429 . S
C2818 C2810 1.574 . S
C2818 H2813 0.949 . S
C2818 C2824 1.368 . S
C2819 C2803 1.349 . S
C2819 H2811 0.950 . S
C2819 C2817 1.327 . S
C2820 C2808 1.349 . S
C2820 H2814 0.950 . S
C2820 C2821 1.327 . S
C2821 H2815 0.950 . S
C2821 C2820 1.327 . S
C2821 C2825 1.429 . S
C2822 C2805 1.574 . S
C2822 H2816 0.949 . S
C2822 C2826 1.368 . S
C2823 C2804 1.429 . S
C2823 C2817 1.429 . S
C2823 C2824 1.523 . S
C2824 C2805 1.368 . S
C2824 C2818 1.368 . S
C2824 C2823 1.523 . S
C2825 C2809 1.429 . S
C2825 C2821 1.429 . S
C2825 C2826 1.523 . S
C2826 C2810 1.368 . S
C2826 C2822 1.368 . S
C2826 C2825 1.523 . S
H2827 C2802 0.950 . S
H2828 C2804 0.950 . S
H2829 C2805 0.949 . S
H2830 C2807 0.950 . S
H2831 C2809 0.950 . S
C2832 C2833 1.349 . S
C2832 C2834 1.327 . S
C2832 H2857 0.950 . S
C2833 C2832 1.349 . S
C2833 C2849 1.349 . S
C2834 C2832 1.327 . S
C2834 C2853 1.429 . S
C2834 H2858 0.950 . S
C2835 C2852 1.574 1_554 S
C2835 C2854 1.368 . S
C2835 H2859 0.949 . S
H2836 C2840 0.949 . S
C2837 C2838 1.349 . S
C2837 C2839 1.327 . S
C2837 H2860 0.950 . S
C2838 C2837 1.349 . S
C2838 C2850 1.349 . S
C2839 C2837 1.327 . S
C2839 C2855 1.429 . S
C2839 H2861 0.950 . S
C2840 H2836 0.949 . S
C2840 C2848 1.574 1_556 S
C2840 C2856 1.368 . S
H2841 C2849 0.950 . S
H2842 C2847 0.950 . S
H2843 C2848 0.949 . S
H2844 C2850 0.950 . S
H2845 C2851 0.950 . S
H2846 C2852 0.949 . S
C2847 H2842 0.950 . S
C2847 C2849 1.327 . S
C2847 C2853 1.429 . S
C2848 C2840 1.574 1_554 S
C2848 H2843 0.949 . S
C2848 C2854 1.368 . S
C2849 C2833 1.349 . S
C2849 H2841 0.950 . S
C2849 C2847 1.327 . S
C2850 C2838 1.349 . S
C2850 H2844 0.950 . S
C2850 C2851 1.327 . S
C2851 H2845 0.950 . S
C2851 C2850 1.327 . S
C2851 C2855 1.429 . S
C2852 C2835 1.574 1_556 S
C2852 H2846 0.949 . S
C2852 C2856 1.368 . S
C2853 C2834 1.429 . S
C2853 C2847 1.429 . S
C2853 C2854 1.523 . S
C2854 C2835 1.368 . S
C2854 C2848 1.368 . S
C2854 C2853 1.523 . S
C2855 C2839 1.429 . S
C2855 C2851 1.429 . S
C2855 C2856 1.523 . S
C2856 C2840 1.368 . S
C2856 C2852 1.368 . S
C2856 C2855 1.523 . S
H2857 C2832 0.950 . S
H2858 C2834 0.950 . S
H2859 C2835 0.949 . S
H2860 C2837 0.950 . S
H2861 C2839 0.950 . S
C2862 C2863 1.349 . S
C2862 C2864 1.327 . S
C2862 H2887 0.950 . S
C2863 C2862 1.349 . S
C2863 C2879 1.349 . S
C2864 C2862 1.327 . S
C2864 C2883 1.429 . S
C2864 H2888 0.950 . S
C2865 C2882 1.574 1_556 S
C2865 C2884 1.368 . S
C2865 H2889 0.949 . S
H2866 C2870 0.949 . S
C2867 C2868 1.349 . S
C2867 C2869 1.327 . S
C2867 H2890 0.950 . S
C2868 C2867 1.349 . S
C2868 C2880 1.349 . S
C2869 C2867 1.327 . S
C2869 C2885 1.429 . S
C2869 H2891 0.950 . S
C2870 H2866 0.949 . S
C2870 C2878 1.574 1_554 S
C2870 C2886 1.368 . S
H2871 C2879 0.950 . S
H2872 C2877 0.950 . S
H2873 C2878 0.949 . S
H2874 C2880 0.950 . S
H2875 C2881 0.950 . S
H2876 C2882 0.949 . S
C2877 H2872 0.950 . S
C2877 C2879 1.327 . S
C2877 C2883 1.429 . S
C2878 C2870 1.574 1_556 S
C2878 H2873 0.949 . S
C2878 C2884 1.368 . S
C2879 C2863 1.349 . S
C2879 H2871 0.950 . S
C2879 C2877 1.327 . S
C2880 C2868 1.349 . S
C2880 H2874 0.950 . S
C2880 C2881 1.327 . S
C2881 H2875 0.950 . S
C2881 C2880 1.327 . S
C2881 C2885 1.429 . S
C2882 C2865 1.574 1_554 S
C2882 H2876 0.949 . S
C2882 C2886 1.368 . S
C2883 C2864 1.429 . S
C2883 C2877 1.429 . S
C2883 C2884 1.523 . S
C2884 C2865 1.368 . S
C2884 C2878 1.368 . S
C2884 C2883 1.523 . S
C2885 C2869 1.429 . S
C2885 C2881 1.429 . S
C2885 C2886 1.523 . S
C2886 C2870 1.368 . S
C2886 C2882 1.368 . S
C2886 C2885 1.523 . S
H2887 C2862 0.950 . S
H2888 C2864 0.950 . S
H2889 C2865 0.949 . S
H2890 C2867 0.950 . S
H2891 C2869 0.950 . S
C2892 C2893 1.349 . S
C2892 C2894 1.327 . S
C2892 H2917 0.950 . S
C2893 C2892 1.349 . S
C2893 C2909 1.349 . S
C2894 C2892 1.327 . S
C2894 C2913 1.429 . S
C2894 H2918 0.950 . S
C2895 C2912 1.574 1_554 S
C2895 C2914 1.368 . S
C2895 H2919 0.949 . S
H2896 C2900 0.949 . S
C2897 C2898 1.349 . S
C2897 C2899 1.327 . S
C2897 H2920 0.950 . S
C2898 C2897 1.349 . S
C2898 C2910 1.349 . S
C2899 C2897 1.327 . S
C2899 C2915 1.429 . S
C2899 H2921 0.950 . S
C2900 H2896 0.949 . S
C2900 C2908 1.574 1_556 S
C2900 C2916 1.368 . S
H2901 C2909 0.950 . S
H2902 C2907 0.950 . S
H2903 C2908 0.949 . S
H2904 C2910 0.950 . S
H2905 C2911 0.950 . S
H2906 C2912 0.949 . S
C2907 H2902 0.950 . S
C2907 C2909 1.327 . S
C2907 C2913 1.429 . S
C2908 C2900 1.574 1_554 S
C2908 H2903 0.949 . S
C2908 C2914 1.368 . S
C2909 C2893 1.349 . S
C2909 H2901 0.950 . S
C2909 C2907 1.327 . S
C2910 C2898 1.349 . S
C2910 H2904 0.950 . S
C2910 C2911 1.327 . S
C2911 H2905 0.950 . S
C2911 C2910 1.327 . S
C2911 C2915 1.429 . S
C2912 C2895 1.574 1_556 S
C2912 H2906 0.949 . S
C2912 C2916 1.368 . S
C2913 C2894 1.429 . S
C2913 C2907 1.429 . S
C2913 C2914 1.523 . S
C2914 C2895 1.368 . S
C2914 C2908 1.368 . S
C2914 C2913 1.523 . S
C2915 C2899 1.429 . S
C2915 C2911 1.429 . S
C2915 C2916 1.523 . S
C2916 C2900 1.368 . S
C2916 C2912 1.368 . S
C2916 C2915 1.523 . S
H2917 C2892 0.950 . S
H2918 C2894 0.950 . S
H2919 C2895 0.949 . S
H2920 C2897 0.950 . S
H2921 C2899 0.950 . S
C2922 C2923 1.349 . S
C2922 C2924 1.327 . S
C2922 H2947 0.950 . S
C2923 C2922 1.349 . S
C2923 C2939 1.349 . S
C2924 C2922 1.327 . S
C2924 C2943 1.429 . S
C2924 H2948 0.950 . S
C2925 C2942 1.574 1_554 S
C2925 C2944 1.368 . S
C2925 H2949 0.949 . S
H2926 C2930 0.949 . S
C2927 C2928 1.349 . S
C2927 C2929 1.327 . S
C2927 H2950 0.950 . S
C2928 C2927 1.349 . S
C2928 C2940 1.349 . S
C2929 C2927 1.327 . S
C2929 C2945 1.429 . S
C2929 H2951 0.950 . S
C2930 H2926 0.949 . S
C2930 C2938 1.574 1_556 S
C2930 C2946 1.368 . S
H2931 C2939 0.950 . S
H2932 C2937 0.950 . S
H2933 C2938 0.949 . S
H2934 C2940 0.950 . S
H2935 C2941 0.950 . S
H2936 C2942 0.949 . S
C2937 H2932 0.950 . S
C2937 C2939 1.327 . S
C2937 C2943 1.429 . S
C2938 C2930 1.574 1_554 S
C2938 H2933 0.949 . S
C2938 C2944 1.368 . S
C2939 C2923 1.349 . S
C2939 H2931 0.950 . S
C2939 C2937 1.327 . S
C2940 C2928 1.349 . S
C2940 H2934 0.950 . S
C2940 C2941 1.327 . S
C2941 H2935 0.950 . S
C2941 C2940 1.327 . S
C2941 C2945 1.429 . S
C2942 C2925 1.574 1_556 S
C2942 H2936 0.949 . S
C2942 C2946 1.368 . S
C2943 C2924 1.429 . S
C2943 C2937 1.429 . S
C2943 C2944 1.523 . S
C2944 C2925 1.368 . S
C2944 C2938 1.368 . S
C2944 C2943 1.523 . S
C2945 C2929 1.429 . S
C2945 C2941 1.429 . S
C2945 C2946 1.523 . S
C2946 C2930 1.368 . S
C2946 C2942 1.368 . S
C2946 C2945 1.523 . S
H2947 C2922 0.950 . S
H2948 C2924 0.950 . S
H2949 C2925 0.949 . S
H2950 C2927 0.950 . S
H2951 C2929 0.950 . S
C2952 C2953 1.349 . S
C2952 C2954 1.327 . S
C2952 H2977 0.950 . S
C2953 C2952 1.349 . S
C2953 C2969 1.349 . S
C2954 C2952 1.327 . S
C2954 C2973 1.429 . S
C2954 H2978 0.950 . S
C2955 C2972 1.574 1_556 S
C2955 C2974 1.368 . S
C2955 H2979 0.949 . S
H2956 C2960 0.949 . S
C2957 C2958 1.349 . S
C2957 C2959 1.327 . S
C2957 H2980 0.950 . S
C2958 C2957 1.349 . S
C2958 C2970 1.349 . S
C2959 C2957 1.327 . S
C2959 C2975 1.429 . S
C2959 H2981 0.950 . S
C2960 H2956 0.949 . S
C2960 C2968 1.574 1_554 S
C2960 C2976 1.368 . S
H2961 C2969 0.950 . S
H2962 C2967 0.950 . S
H2963 C2968 0.949 . S
H2964 C2970 0.950 . S
H2965 C2971 0.950 . S
H2966 C2972 0.949 . S
C2967 H2962 0.950 . S
C2967 C2969 1.327 . S
C2967 C2973 1.429 . S
C2968 C2960 1.574 1_556 S
C2968 H2963 0.949 . S
C2968 C2974 1.368 . S
C2969 C2953 1.349 . S
C2969 H2961 0.950 . S
C2969 C2967 1.327 . S
C2970 C2958 1.349 . S
C2970 H2964 0.950 . S
C2970 C2971 1.327 . S
C2971 H2965 0.950 . S
C2971 C2970 1.327 . S
C2971 C2975 1.429 . S
C2972 C2955 1.574 1_554 S
C2972 H2966 0.949 . S
C2972 C2976 1.368 . S
C2973 C2954 1.429 . S
C2973 C2967 1.429 . S
C2973 C2974 1.523 . S
C2974 C2955 1.368 . S
C2974 C2968 1.368 . S
C2974 C2973 1.523 . S
C2975 C2959 1.429 . S
C2975 C2971 1.429 . S
C2975 C2976 1.523 . S
C2976 C2960 1.368 . S
C2976 C2972 1.368 . S
C2976 C2975 1.523 . S
H2977 C2952 0.950 . S
H2978 C2954 0.950 . S
H2979 C2955 0.949 . S
H2980 C2957 0.950 . S
H2981 C2959 0.950 . S
C2982 C2983 1.349 . S
C2982 C2984 1.327 . S
C2982 H3007 0.950 . S
C2983 C2982 1.349 . S
C2983 C2999 1.349 . S
C2984 C2982 1.327 . S
C2984 C3003 1.429 . S
C2984 H3008 0.950 . S
C2985 C3002 1.574 1_554 S
C2985 C3004 1.368 . S
C2985 H3009 0.949 . S
H2986 C2990 0.949 . S
C2987 C2988 1.349 . S
C2987 C2989 1.327 . S
C2987 H3010 0.950 . S
C2988 C2987 1.349 . S
C2988 C3000 1.349 . S
C2989 C2987 1.327 . S
C2989 C3005 1.429 . S
C2989 H3011 0.950 . S
C2990 H2986 0.949 . S
C2990 C2998 1.574 1_556 S
C2990 C3006 1.368 . S
H2991 C2999 0.950 . S
H2992 C2997 0.950 . S
H2993 C2998 0.949 . S
H2994 C3000 0.950 . S
H2995 C3001 0.950 . S
H2996 C3002 0.949 . S
C2997 H2992 0.950 . S
C2997 C2999 1.327 . S
C2997 C3003 1.429 . S
C2998 C2990 1.574 1_554 S
C2998 H2993 0.949 . S
C2998 C3004 1.368 . S
C2999 C2983 1.349 . S
C2999 H2991 0.950 . S
C2999 C2997 1.327 . S
C3000 C2988 1.349 . S
C3000 H2994 0.950 . S
C3000 C3001 1.327 . S
C3001 H2995 0.950 . S
C3001 C3000 1.327 . S
C3001 C3005 1.429 . S
C3002 C2985 1.574 1_556 S
C3002 H2996 0.949 . S
C3002 C3006 1.368 . S
C3003 C2984 1.429 . S
C3003 C2997 1.429 . S
C3003 C3004 1.523 . S
C3004 C2985 1.368 . S
C3004 C2998 1.368 . S
C3004 C3003 1.523 . S
C3005 C2989 1.429 . S
C3005 C3001 1.429 . S
C3005 C3006 1.523 . S
C3006 C2990 1.368 . S
C3006 C3002 1.368 . S
C3006 C3005 1.523 . S
H3007 C2982 0.950 . S
H3008 C2984 0.950 . S
H3009 C2985 0.949 . S
H3010 C2987 0.950 . S
H3011 C2989 0.950 . S
C3012 C3013 1.349 . S
C3012 C3014 1.327 . S
C3012 H3037 0.950 . S
C3013 C3012 1.349 . S
C3013 C3029 1.349 . S
C3014 C3012 1.327 . S
C3014 C3033 1.429 . S
C3014 H3038 0.950 . S
C3015 C3032 1.574 1_556 S
C3015 C3034 1.368 . S
C3015 H3039 0.949 . S
H3016 C3020 0.949 . S
C3017 C3018 1.349 . S
C3017 C3019 1.327 . S
C3017 H3040 0.950 . S
C3018 C3017 1.349 . S
C3018 C3030 1.349 . S
C3019 C3017 1.327 . S
C3019 C3035 1.429 . S
C3019 H3041 0.950 . S
C3020 H3016 0.949 . S
C3020 C3028 1.574 1_554 S
C3020 C3036 1.368 . S
H3021 C3029 0.950 . S
H3022 C3027 0.950 . S
H3023 C3028 0.949 . S
H3024 C3030 0.950 . S
H3025 C3031 0.950 . S
H3026 C3032 0.949 . S
C3027 H3022 0.950 . S
C3027 C3029 1.327 . S
C3027 C3033 1.429 . S
C3028 C3020 1.574 1_556 S
C3028 H3023 0.949 . S
C3028 C3034 1.368 . S
C3029 C3013 1.349 . S
C3029 H3021 0.950 . S
C3029 C3027 1.327 . S
C3030 C3018 1.349 . S
C3030 H3024 0.950 . S
C3030 C3031 1.327 . S
C3031 H3025 0.950 . S
C3031 C3030 1.327 . S
C3031 C3035 1.429 . S
C3032 C3015 1.574 1_554 S
C3032 H3026 0.949 . S
C3032 C3036 1.368 . S
C3033 C3014 1.429 . S
C3033 C3027 1.429 . S
C3033 C3034 1.523 . S
C3034 C3015 1.368 . S
C3034 C3028 1.368 . S
C3034 C3033 1.523 . S
C3035 C3019 1.429 . S
C3035 C3031 1.429 . S
C3035 C3036 1.523 . S
C3036 C3020 1.368 . S
C3036 C3032 1.368 . S
C3036 C3035 1.523 . S
H3037 C3012 0.950 . S
H3038 C3014 0.950 . S
H3039 C3015 0.949 . S
H3040 C3017 0.950 . S
H3041 C3019 0.950 . S
C3042 C3043 1.349 . S
C3042 C3044 1.327 . S
C3042 H3067 0.950 . S
C3043 C3042 1.349 . S
C3043 C3059 1.349 . S
C3044 C3042 1.327 . S
C3044 C3063 1.429 . S
C3044 H3068 0.950 . S
C3045 C3062 1.574 1_554 S
C3045 C3064 1.368 . S
C3045 H3069 0.949 . S
H3046 C3050 0.949 . S
C3047 C3048 1.349 . S
C3047 C3049 1.327 . S
C3047 H3070 0.950 . S
C3048 C3047 1.349 . S
C3048 C3060 1.349 . S
C3049 C3047 1.327 . S
C3049 C3065 1.429 . S
C3049 H3071 0.950 . S
C3050 H3046 0.949 . S
C3050 C3058 1.574 1_556 S
C3050 C3066 1.368 . S
H3051 C3059 0.950 . S
H3052 C3057 0.950 . S
H3053 C3058 0.949 . S
H3054 C3060 0.950 . S
H3055 C3061 0.950 . S
H3056 C3062 0.949 . S
C3057 H3052 0.950 . S
C3057 C3059 1.327 . S
C3057 C3063 1.429 . S
C3058 C3050 1.574 1_554 S
C3058 H3053 0.949 . S
C3058 C3064 1.368 . S
C3059 C3043 1.349 . S
C3059 H3051 0.950 . S
C3059 C3057 1.327 . S
C3060 C3048 1.349 . S
C3060 H3054 0.950 . S
C3060 C3061 1.327 . S
C3061 H3055 0.950 . S
C3061 C3060 1.327 . S
C3061 C3065 1.429 . S
C3062 C3045 1.574 1_556 S
C3062 H3056 0.949 . S
C3062 C3066 1.368 . S
C3063 C3044 1.429 . S
C3063 C3057 1.429 . S
C3063 C3064 1.523 . S
C3064 C3045 1.368 . S
C3064 C3058 1.368 . S
C3064 C3063 1.523 . S
C3065 C3049 1.429 . S
C3065 C3061 1.429 . S
C3065 C3066 1.523 . S
C3066 C3050 1.368 . S
C3066 C3062 1.368 . S
C3066 C3065 1.523 . S
H3067 C3042 0.950 . S
H3068 C3044 0.950 . S
H3069 C3045 0.949 . S
H3070 C3047 0.950 . S
H3071 C3049 0.950 . S
C3072 C3073 1.349 . S
C3072 C3074 1.327 . S
C3072 H3097 0.950 . S
C3073 C3072 1.349 . S
C3073 C3089 1.349 . S
C3074 C3072 1.327 . S
C3074 C3093 1.429 . S
C3074 H3098 0.950 . S
C3075 C3092 1.574 1_455 S
C3075 C3094 1.368 . S
C3075 H3099 0.949 . S
H3076 C3080 0.949 . S
C3077 C3078 1.349 . S
C3077 C3079 1.327 . S
C3077 H3100 0.950 . S
C3078 C3077 1.349 . S
C3078 C3090 1.349 . S
C3079 C3077 1.327 . S
C3079 C3095 1.429 . S
C3079 H3101 0.950 . S
C3080 H3076 0.949 . S
C3080 C3088 1.574 1_655 S
C3080 C3096 1.368 . S
H3081 C3089 0.950 . S
H3082 C3087 0.950 . S
H3083 C3088 0.949 . S
H3084 C3090 0.950 . S
H3085 C3091 0.950 . S
H3086 C3092 0.949 . S
C3087 H3082 0.950 . S
C3087 C3089 1.327 . S
C3087 C3093 1.429 . S
C3088 C3080 1.574 1_455 S
C3088 H3083 0.949 . S
C3088 C3094 1.368 . S
C3089 C3073 1.349 . S
C3089 H3081 0.950 . S
C3089 C3087 1.327 . S
C3090 C3078 1.349 . S
C3090 H3084 0.950 . S
C3090 C3091 1.327 . S
C3091 H3085 0.950 . S
C3091 C3090 1.327 . S
C3091 C3095 1.429 . S
C3092 C3075 1.574 1_655 S
C3092 H3086 0.949 . S
C3092 C3096 1.368 . S
C3093 C3074 1.429 . S
C3093 C3087 1.429 . S
C3093 C3094 1.523 . S
C3094 C3075 1.368 . S
C3094 C3088 1.368 . S
C3094 C3093 1.523 . S
C3095 C3079 1.429 . S
C3095 C3091 1.429 . S
C3095 C3096 1.523 . S
C3096 C3080 1.368 . S
C3096 C3092 1.368 . S
C3096 C3095 1.523 . S
H3097 C3072 0.950 . S
H3098 C3074 0.950 . S
H3099 C3075 0.949 . S
H3100 C3077 0.950 . S
H3101 C3079 0.950 . S
C3102 C3103 1.349 . S
C3102 C3104 1.327 . S
C3102 H3127 0.950 . S
C3103 C3102 1.349 . S
C3103 C3119 1.349 . S
C3104 C3102 1.327 . S
C3104 C3123 1.429 . S
C3104 H3128 0.950 . S
C3105 C3122 1.574 1_565 S
C3105 C3124 1.368 . S
C3105 H3129 0.949 . S
H3106 C3110 0.949 . S
C3107 C3108 1.349 . S
C3107 C3109 1.327 . S
C3107 H3130 0.950 . S
C3108 C3107 1.349 . S
C3108 C3120 1.349 . S
C3109 C3107 1.327 . S
C3109 C3125 1.429 . S
C3109 H3131 0.950 . S
C3110 H3106 0.949 . S
C3110 C3118 1.574 1_545 S
C3110 C3126 1.368 . S
H3111 C3119 0.950 . S
H3112 C3117 0.950 . S
H3113 C3118 0.949 . S
H3114 C3120 0.950 . S
H3115 C3121 0.950 . S
H3116 C3122 0.949 . S
C3117 H3112 0.950 . S
C3117 C3119 1.327 . S
C3117 C3123 1.429 . S
C3118 C3110 1.574 1_565 S
C3118 H3113 0.949 . S
C3118 C3124 1.368 . S
C3119 C3103 1.349 . S
C3119 H3111 0.950 . S
C3119 C3117 1.327 . S
C3120 C3108 1.349 . S
C3120 H3114 0.950 . S
C3120 C3121 1.327 . S
C3121 H3115 0.950 . S
C3121 C3120 1.327 . S
C3121 C3125 1.429 . S
C3122 C3105 1.574 1_545 S
C3122 H3116 0.949 . S
C3122 C3126 1.368 . S
C3123 C3104 1.429 . S
C3123 C3117 1.429 . S
C3123 C3124 1.523 . S
C3124 C3105 1.368 . S
C3124 C3118 1.368 . S
C3124 C3123 1.523 . S
C3125 C3109 1.429 . S
C3125 C3121 1.429 . S
C3125 C3126 1.523 . S
C3126 C3110 1.368 . S
C3126 C3122 1.368 . S
C3126 C3125 1.523 . S
H3127 C3102 0.950 . S
H3128 C3104 0.950 . S
H3129 C3105 0.949 . S
H3130 C3107 0.950 . S
H3131 C3109 0.950 . S
C3132 C3133 1.349 . S
C3132 C3134 1.327 . S
C3132 H3157 0.950 . S
C3133 C3132 1.349 . S
C3133 C3149 1.349 . S
C3134 C3132 1.327 . S
C3134 C3153 1.429 . S
C3134 H3158 0.950 . S
C3135 C3152 1.574 1_455 S
C3135 C3154 1.368 . S
C3135 H3159 0.949 . S
H3136 C3140 0.949 . S
C3137 C3138 1.349 . S
C3137 C3139 1.327 . S
C3137 H3160 0.950 . S
C3138 C3137 1.349 . S
C3138 C3150 1.349 . S
C3139 C3137 1.327 . S
C3139 C3155 1.429 . S
C3139 H3161 0.950 . S
C3140 H3136 0.949 . S
C3140 C3148 1.574 1_655 S
C3140 C3156 1.368 . S
H3141 C3149 0.950 . S
H3142 C3147 0.950 . S
H3143 C3148 0.949 . S
H3144 C3150 0.950 . S
H3145 C3151 0.950 . S
H3146 C3152 0.949 . S
C3147 H3142 0.950 . S
C3147 C3149 1.327 . S
C3147 C3153 1.429 . S
C3148 C3140 1.574 1_455 S
C3148 H3143 0.949 . S
C3148 C3154 1.368 . S
C3149 C3133 1.349 . S
C3149 H3141 0.950 . S
C3149 C3147 1.327 . S
C3150 C3138 1.349 . S
C3150 H3144 0.950 . S
C3150 C3151 1.327 . S
C3151 H3145 0.950 . S
C3151 C3150 1.327 . S
C3151 C3155 1.429 . S
C3152 C3135 1.574 1_655 S
C3152 H3146 0.949 . S
C3152 C3156 1.368 . S
C3153 C3134 1.429 . S
C3153 C3147 1.429 . S
C3153 C3154 1.523 . S
C3154 C3135 1.368 . S
C3154 C3148 1.368 . S
C3154 C3153 1.523 . S
C3155 C3139 1.429 . S
C3155 C3151 1.429 . S
C3155 C3156 1.523 . S
C3156 C3140 1.368 . S
C3156 C3152 1.368 . S
C3156 C3155 1.523 . S
H3157 C3132 0.950 . S
H3158 C3134 0.950 . S
H3159 C3135 0.949 . S
H3160 C3137 0.950 . S
H3161 C3139 0.950 . S
C3162 C3163 1.349 . S
C3162 C3164 1.327 . S
C3162 H3187 0.950 . S
C3163 C3162 1.349 . S
C3163 C3179 1.349 . S
C3164 C3162 1.327 . S
C3164 C3183 1.429 . S
C3164 H3188 0.950 . S
C3165 C3182 1.574 1_565 S
C3165 C3184 1.368 . S
C3165 H3189 0.949 . S
H3166 C3170 0.949 . S
C3167 C3168 1.349 . S
C3167 C3169 1.327 . S
C3167 H3190 0.950 . S
C3168 C3167 1.349 . S
C3168 C3180 1.349 . S
C3169 C3167 1.327 . S
C3169 C3185 1.429 . S
C3169 H3191 0.950 . S
C3170 H3166 0.949 . S
C3170 C3178 1.574 1_545 S
C3170 C3186 1.368 . S
H3171 C3179 0.950 . S
H3172 C3177 0.950 . S
H3173 C3178 0.949 . S
H3174 C3180 0.950 . S
H3175 C3181 0.950 . S
H3176 C3182 0.949 . S
C3177 H3172 0.950 . S
C3177 C3179 1.327 . S
C3177 C3183 1.429 . S
C3178 C3170 1.574 1_565 S
C3178 H3173 0.949 . S
C3178 C3184 1.368 . S
C3179 C3163 1.349 . S
C3179 H3171 0.950 . S
C3179 C3177 1.327 . S
C3180 C3168 1.349 . S
C3180 H3174 0.950 . S
C3180 C3181 1.327 . S
C3181 H3175 0.950 . S
C3181 C3180 1.327 . S
C3181 C3185 1.429 . S
C3182 C3165 1.574 1_545 S
C3182 H3176 0.949 . S
C3182 C3186 1.368 . S
C3183 C3164 1.429 . S
C3183 C3177 1.429 . S
C3183 C3184 1.523 . S
C3184 C3165 1.368 . S
C3184 C3178 1.368 . S
C3184 C3183 1.523 . S
C3185 C3169 1.429 . S
C3185 C3181 1.429 . S
C3185 C3186 1.523 . S
C3186 C3170 1.368 . S
C3186 C3182 1.368 . S
C3186 C3185 1.523 . S
H3187 C3162 0.950 . S
H3188 C3164 0.950 . S
H3189 C3165 0.949 . S
H3190 C3167 0.950 . S
H3191 C3169 0.950 . S
C3192 C3193 1.349 . S
C3192 C3194 1.327 . S
C3192 H3217 0.950 . S
C3193 C3192 1.349 . S
C3193 C3209 1.349 . S
C3194 C3192 1.327 . S
C3194 C3213 1.429 . S
C3194 H3218 0.950 . S
C3195 C3212 1.574 1_655 S
C3195 C3214 1.368 . S
C3195 H3219 0.949 . S
H3196 C3200 0.949 . S
C3197 C3198 1.349 . S
C3197 C3199 1.327 . S
C3197 H3220 0.950 . S
C3198 C3197 1.349 . S
C3198 C3210 1.349 . S
C3199 C3197 1.327 . S
C3199 C3215 1.429 . S
C3199 H3221 0.950 . S
C3200 H3196 0.949 . S
C3200 C3208 1.574 1_455 S
C3200 C3216 1.368 . S
H3201 C3209 0.950 . S
H3202 C3207 0.950 . S
H3203 C3208 0.949 . S
H3204 C3210 0.950 . S
H3205 C3211 0.950 . S
H3206 C3212 0.949 . S
C3207 H3202 0.950 . S
C3207 C3209 1.327 . S
C3207 C3213 1.429 . S
C3208 C3200 1.574 1_655 S
C3208 H3203 0.949 . S
C3208 C3214 1.368 . S
C3209 C3193 1.349 . S
C3209 H3201 0.950 . S
C3209 C3207 1.327 . S
C3210 C3198 1.349 . S
C3210 H3204 0.950 . S
C3210 C3211 1.327 . S
C3211 H3205 0.950 . S
C3211 C3210 1.327 . S
C3211 C3215 1.429 . S
C3212 C3195 1.574 1_455 S
C3212 H3206 0.949 . S
C3212 C3216 1.368 . S
C3213 C3194 1.429 . S
C3213 C3207 1.429 . S
C3213 C3214 1.523 . S
C3214 C3195 1.368 . S
C3214 C3208 1.368 . S
C3214 C3213 1.523 . S
C3215 C3199 1.429 . S
C3215 C3211 1.429 . S
C3215 C3216 1.523 . S
C3216 C3200 1.368 . S
C3216 C3212 1.368 . S
C3216 C3215 1.523 . S
H3217 C3192 0.950 . S
H3218 C3194 0.950 . S
H3219 C3195 0.949 . S
H3220 C3197 0.950 . S
H3221 C3199 0.950 . S
C3222 C3223 1.349 . S
C3222 C3224 1.327 . S
C3222 H3247 0.950 . S
C3223 C3222 1.349 . S
C3223 C3239 1.349 . S
C3224 C3222 1.327 . S
C3224 C3243 1.429 . S
C3224 H3248 0.950 . S
C3225 C3242 1.574 1_545 S
C3225 C3244 1.368 . S
C3225 H3249 0.949 . S
H3226 C3230 0.949 . S
C3227 C3228 1.349 . S
C3227 C3229 1.327 . S
C3227 H3250 0.950 . S
C3228 C3227 1.349 . S
C3228 C3240 1.349 . S
C3229 C3227 1.327 . S
C3229 C3245 1.429 . S
C3229 H3251 0.950 . S
C3230 H3226 0.949 . S
C3230 C3238 1.574 1_565 S
C3230 C3246 1.368 . S
H3231 C3239 0.950 . S
H3232 C3237 0.950 . S
H3233 C3238 0.949 . S
H3234 C3240 0.950 . S
H3235 C3241 0.950 . S
H3236 C3242 0.949 . S
C3237 H3232 0.950 . S
C3237 C3239 1.327 . S
C3237 C3243 1.429 . S
C3238 C3230 1.574 1_545 S
C3238 H3233 0.949 . S
C3238 C3244 1.368 . S
C3239 C3223 1.349 . S
C3239 H3231 0.950 . S
C3239 C3237 1.327 . S
C3240 C3228 1.349 . S
C3240 H3234 0.950 . S
C3240 C3241 1.327 . S
C3241 H3235 0.950 . S
C3241 C3240 1.327 . S
C3241 C3245 1.429 . S
C3242 C3225 1.574 1_565 S
C3242 H3236 0.949 . S
C3242 C3246 1.368 . S
C3243 C3224 1.429 . S
C3243 C3237 1.429 . S
C3243 C3244 1.523 . S
C3244 C3225 1.368 . S
C3244 C3238 1.368 . S
C3244 C3243 1.523 . S
C3245 C3229 1.429 . S
C3245 C3241 1.429 . S
C3245 C3246 1.523 . S
C3246 C3230 1.368 . S
C3246 C3242 1.368 . S
C3246 C3245 1.523 . S
H3247 C3222 0.950 . S
H3248 C3224 0.950 . S
H3249 C3225 0.949 . S
H3250 C3227 0.950 . S
H3251 C3229 0.950 . S
C3252 C3253 1.349 . S
C3252 C3254 1.327 . S
C3252 H3277 0.950 . S
C3253 C3252 1.349 . S
C3253 C3269 1.349 . S
C3254 C3252 1.327 . S
C3254 C3273 1.429 . S
C3254 H3278 0.950 . S
C3255 C3272 1.574 1_455 S
C3255 C3274 1.368 . S
C3255 H3279 0.949 . S
H3256 C3260 0.949 . S
C3257 C3258 1.349 . S
C3257 C3259 1.327 . S
C3257 H3280 0.950 . S
C3258 C3257 1.349 . S
C3258 C3270 1.349 . S
C3259 C3257 1.327 . S
C3259 C3275 1.429 . S
C3259 H3281 0.950 . S
C3260 H3256 0.949 . S
C3260 C3268 1.574 1_655 S
C3260 C3276 1.368 . S
H3261 C3269 0.950 . S
H3262 C3267 0.950 . S
H3263 C3268 0.949 . S
H3264 C3270 0.950 . S
H3265 C3271 0.950 . S
H3266 C3272 0.949 . S
C3267 H3262 0.950 . S
C3267 C3269 1.327 . S
C3267 C3273 1.429 . S
C3268 C3260 1.574 1_455 S
C3268 H3263 0.949 . S
C3268 C3274 1.368 . S
C3269 C3253 1.349 . S
C3269 H3261 0.950 . S
C3269 C3267 1.327 . S
C3270 C3258 1.349 . S
C3270 H3264 0.950 . S
C3270 C3271 1.327 . S
C3271 H3265 0.950 . S
C3271 C3270 1.327 . S
C3271 C3275 1.429 . S
C3272 C3255 1.574 1_655 S
C3272 H3266 0.949 . S
C3272 C3276 1.368 . S
C3273 C3254 1.429 . S
C3273 C3267 1.429 . S
C3273 C3274 1.523 . S
C3274 C3255 1.368 . S
C3274 C3268 1.368 . S
C3274 C3273 1.523 . S
C3275 C3259 1.429 . S
C3275 C3271 1.429 . S
C3275 C3276 1.523 . S
C3276 C3260 1.368 . S
C3276 C3272 1.368 . S
C3276 C3275 1.523 . S
H3277 C3252 0.950 . S
H3278 C3254 0.950 . S
H3279 C3255 0.949 . S
H3280 C3257 0.950 . S
H3281 C3259 0.950 . S
C3282 C3283 1.349 . S
C3282 C3284 1.327 . S
C3282 H3307 0.950 . S
C3283 C3282 1.349 . S
C3283 C3299 1.349 . S
C3284 C3282 1.327 . S
C3284 C3303 1.429 . S
C3284 H3308 0.950 . S
C3285 C3302 1.574 1_545 S
C3285 C3304 1.368 . S
C3285 H3309 0.949 . S
H3286 C3290 0.949 . S
C3287 C3288 1.349 . S
C3287 C3289 1.327 . S
C3287 H3310 0.950 . S
C3288 C3287 1.349 . S
C3288 C3300 1.349 . S
C3289 C3287 1.327 . S
C3289 C3305 1.429 . S
C3289 H3311 0.950 . S
C3290 H3286 0.949 . S
C3290 C3298 1.574 1_565 S
C3290 C3306 1.368 . S
H3291 C3299 0.950 . S
H3292 C3297 0.950 . S
H3293 C3298 0.949 . S
H3294 C3300 0.950 . S
H3295 C3301 0.950 . S
H3296 C3302 0.949 . S
C3297 H3292 0.950 . S
C3297 C3299 1.327 . S
C3297 C3303 1.429 . S
C3298 C3290 1.574 1_545 S
C3298 H3293 0.949 . S
C3298 C3304 1.368 . S
C3299 C3283 1.349 . S
C3299 H3291 0.950 . S
C3299 C3297 1.327 . S
C3300 C3288 1.349 . S
C3300 H3294 0.950 . S
C3300 C3301 1.327 . S
C3301 H3295 0.950 . S
C3301 C3300 1.327 . S
C3301 C3305 1.429 . S
C3302 C3285 1.574 1_565 S
C3302 H3296 0.949 . S
C3302 C3306 1.368 . S
C3303 C3284 1.429 . S
C3303 C3297 1.429 . S
C3303 C3304 1.523 . S
C3304 C3285 1.368 . S
C3304 C3298 1.368 . S
C3304 C3303 1.523 . S
C3305 C3289 1.429 . S
C3305 C3301 1.429 . S
C3305 C3306 1.523 . S
C3306 C3290 1.368 . S
C3306 C3302 1.368 . S
C3306 C3305 1.523 . S
H3307 C3282 0.950 . S
H3308 C3284 0.950 . S
H3309 C3285 0.949 . S
H3310 C3287 0.950 . S
H3311 C3289 0.950 . S
C3312 C3313 1.349 . S
C3312 C3314 1.327 . S
C3312 H3337 0.950 . S
C3313 C3312 1.349 . S
C3313 C3329 1.349 . S
C3314 C3312 1.327 . S
C3314 C3333 1.429 . S
C3314 H3338 0.950 . S
C3315 C3332 1.574 1_545 S
C3315 C3334 1.368 . S
C3315 H3339 0.949 . S
H3316 C3320 0.949 . S
C3317 C3318 1.349 . S
C3317 C3319 1.327 . S
C3317 H3340 0.950 . S
C3318 C3317 1.349 . S
C3318 C3330 1.349 . S
C3319 C3317 1.327 . S
C3319 C3335 1.429 . S
C3319 H3341 0.950 . S
C3320 H3316 0.949 . S
C3320 C3328 1.574 1_565 S
C3320 C3336 1.368 . S
H3321 C3329 0.950 . S
H3322 C3327 0.950 . S
H3323 C3328 0.949 . S
H3324 C3330 0.950 . S
H3325 C3331 0.950 . S
H3326 C3332 0.949 . S
C3327 H3322 0.950 . S
C3327 C3329 1.327 . S
C3327 C3333 1.429 . S
C3328 C3320 1.574 1_545 S
C3328 H3323 0.949 . S
C3328 C3334 1.368 . S
C3329 C3313 1.349 . S
C3329 H3321 0.950 . S
C3329 C3327 1.327 . S
C3330 C3318 1.349 . S
C3330 H3324 0.950 . S
C3330 C3331 1.327 . S
C3331 H3325 0.950 . S
C3331 C3330 1.327 . S
C3331 C3335 1.429 . S
C3332 C3315 1.574 1_565 S
C3332 H3326 0.949 . S
C3332 C3336 1.368 . S
C3333 C3314 1.429 . S
C3333 C3327 1.429 . S
C3333 C3334 1.523 . S
C3334 C3315 1.368 . S
C3334 C3328 1.368 . S
C3334 C3333 1.523 . S
C3335 C3319 1.429 . S
C3335 C3331 1.429 . S
C3335 C3336 1.523 . S
C3336 C3320 1.368 . S
C3336 C3332 1.368 . S
C3336 C3335 1.523 . S
H3337 C3312 0.950 . S
H3338 C3314 0.950 . S
H3339 C3315 0.949 . S
H3340 C3317 0.950 . S
H3341 C3319 0.950 . S
C3342 C3343 1.349 . S
C3342 C3344 1.327 . S
C3342 H3367 0.950 . S
C3343 C3342 1.349 . S
C3343 C3359 1.349 . S
C3344 C3342 1.327 . S
C3344 C3363 1.429 . S
C3344 H3368 0.950 . S
C3345 C3362 1.574 1_545 S
C3345 C3364 1.368 . S
C3345 H3369 0.949 . S
H3346 C3350 0.949 . S
C3347 C3348 1.349 . S
C3347 C3349 1.327 . S
C3347 H3370 0.950 . S
C3348 C3347 1.349 . S
C3348 C3360 1.349 . S
C3349 C3347 1.327 . S
C3349 C3365 1.429 . S
C3349 H3371 0.950 . S
C3350 H3346 0.949 . S
C3350 C3358 1.574 1_565 S
C3350 C3366 1.368 . S
H3351 C3359 0.950 . S
H3352 C3357 0.950 . S
H3353 C3358 0.949 . S
H3354 C3360 0.950 . S
H3355 C3361 0.950 . S
H3356 C3362 0.949 . S
C3357 H3352 0.950 . S
C3357 C3359 1.327 . S
C3357 C3363 1.429 . S
C3358 C3350 1.574 1_545 S
C3358 H3353 0.949 . S
C3358 C3364 1.368 . S
C3359 C3343 1.349 . S
C3359 H3351 0.950 . S
C3359 C3357 1.327 . S
C3360 C3348 1.349 . S
C3360 H3354 0.950 . S
C3360 C3361 1.327 . S
C3361 H3355 0.950 . S
C3361 C3360 1.327 . S
C3361 C3365 1.429 . S
C3362 C3345 1.574 1_565 S
C3362 H3356 0.949 . S
C3362 C3366 1.368 . S
C3363 C3344 1.429 . S
C3363 C3357 1.429 . S
C3363 C3364 1.523 . S
C3364 C3345 1.368 . S
C3364 C3358 1.368 . S
C3364 C3363 1.523 . S
C3365 C3349 1.429 . S
C3365 C3361 1.429 . S
C3365 C3366 1.523 . S
C3366 C3350 1.368 . S
C3366 C3362 1.368 . S
C3366 C3365 1.523 . S
H3367 C3342 0.950 . S
H3368 C3344 0.950 . S
H3369 C3345 0.949 . S
H3370 C3347 0.950 . S
H3371 C3349 0.950 . S
C3372 C3373 1.349 . S
C3372 C3374 1.327 . S
C3372 H3397 0.950 . S
C3373 C3372 1.349 . S
C3373 C3389 1.349 . S
C3374 C3372 1.327 . S
C3374 C3393 1.429 . S
C3374 H3398 0.950 . S
C3375 C3392 1.574 1_655 S
C3375 C3394 1.368 . S
C3375 H3399 0.949 . S
H3376 C3380 0.949 . S
C3377 C3378 1.349 . S
C3377 C3379 1.327 . S
C3377 H3400 0.950 . S
C3378 C3377 1.349 . S
C3378 C3390 1.349 . S
C3379 C3377 1.327 . S
C3379 C3395 1.429 . S
C3379 H3401 0.950 . S
C3380 H3376 0.949 . S
C3380 C3388 1.574 1_455 S
C3380 C3396 1.368 . S
H3381 C3389 0.950 . S
H3382 C3387 0.950 . S
H3383 C3388 0.949 . S
H3384 C3390 0.950 . S
H3385 C3391 0.950 . S
H3386 C3392 0.949 . S
C3387 H3382 0.950 . S
C3387 C3389 1.327 . S
C3387 C3393 1.429 . S
C3388 C3380 1.574 1_655 S
C3388 H3383 0.949 . S
C3388 C3394 1.368 . S
C3389 C3373 1.349 . S
C3389 H3381 0.950 . S
C3389 C3387 1.327 . S
C3390 C3378 1.349 . S
C3390 H3384 0.950 . S
C3390 C3391 1.327 . S
C3391 H3385 0.950 . S
C3391 C3390 1.327 . S
C3391 C3395 1.429 . S
C3392 C3375 1.574 1_455 S
C3392 H3386 0.949 . S
C3392 C3396 1.368 . S
C3393 C3374 1.429 . S
C3393 C3387 1.429 . S
C3393 C3394 1.523 . S
C3394 C3375 1.368 . S
C3394 C3388 1.368 . S
C3394 C3393 1.523 . S
C3395 C3379 1.429 . S
C3395 C3391 1.429 . S
C3395 C3396 1.523 . S
C3396 C3380 1.368 . S
C3396 C3392 1.368 . S
C3396 C3395 1.523 . S
H3397 C3372 0.950 . S
H3398 C3374 0.950 . S
H3399 C3375 0.949 . S
H3400 C3377 0.950 . S
H3401 C3379 0.950 . S
C3402 C3403 1.349 . S
C3402 C3404 1.327 . S
C3402 H3427 0.950 . S
C3403 C3402 1.349 . S
C3403 C3419 1.349 . S
C3404 C3402 1.327 . S
C3404 C3423 1.429 . S
C3404 H3428 0.950 . S
C3405 C3422 1.574 1_545 S
C3405 C3424 1.368 . S
C3405 H3429 0.949 . S
H3406 C3410 0.949 . S
C3407 C3408 1.349 . S
C3407 C3409 1.327 . S
C3407 H3430 0.950 . S
C3408 C3407 1.349 . S
C3408 C3420 1.349 . S
C3409 C3407 1.327 . S
C3409 C3425 1.429 . S
C3409 H3431 0.950 . S
C3410 H3406 0.949 . S
C3410 C3418 1.574 1_565 S
C3410 C3426 1.368 . S
H3411 C3419 0.950 . S
H3412 C3417 0.950 . S
H3413 C3418 0.949 . S
H3414 C3420 0.950 . S
H3415 C3421 0.950 . S
H3416 C3422 0.949 . S
C3417 H3412 0.950 . S
C3417 C3419 1.327 . S
C3417 C3423 1.429 . S
C3418 C3410 1.574 1_545 S
C3418 H3413 0.949 . S
C3418 C3424 1.368 . S
C3419 C3403 1.349 . S
C3419 H3411 0.950 . S
C3419 C3417 1.327 . S
C3420 C3408 1.349 . S
C3420 H3414 0.950 . S
C3420 C3421 1.327 . S
C3421 H3415 0.950 . S
C3421 C3420 1.327 . S
C3421 C3425 1.429 . S
C3422 C3405 1.574 1_565 S
C3422 H3416 0.949 . S
C3422 C3426 1.368 . S
C3423 C3404 1.429 . S
C3423 C3417 1.429 . S
C3423 C3424 1.523 . S
C3424 C3405 1.368 . S
C3424 C3418 1.368 . S
C3424 C3423 1.523 . S
C3425 C3409 1.429 . S
C3425 C3421 1.429 . S
C3425 C3426 1.523 . S
C3426 C3410 1.368 . S
C3426 C3422 1.368 . S
C3426 C3425 1.523 . S
H3427 C3402 0.950 . S
H3428 C3404 0.950 . S
H3429 C3405 0.949 . S
H3430 C3407 0.950 . S
H3431 C3409 0.950 . S
C3432 C3433 1.349 . S
C3432 C3434 1.327 . S
C3432 H3457 0.950 . S
C3433 C3432 1.349 . S
C3433 C3449 1.349 . S
C3434 C3432 1.327 . S
C3434 C3453 1.429 . S
C3434 H3458 0.950 . S
C3435 C3452 1.574 1_455 S
C3435 C3454 1.368 . S
C3435 H3459 0.949 . S
H3436 C3440 0.949 . S
C3437 C3438 1.349 . S
C3437 C3439 1.327 . S
C3437 H3460 0.950 . S
C3438 C3437 1.349 . S
C3438 C3450 1.349 . S
C3439 C3437 1.327 . S
C3439 C3455 1.429 . S
C3439 H3461 0.950 . S
C3440 H3436 0.949 . S
C3440 C3448 1.574 1_655 S
C3440 C3456 1.368 . S
H3441 C3449 0.950 . S
H3442 C3447 0.950 . S
H3443 C3448 0.949 . S
H3444 C3450 0.950 . S
H3445 C3451 0.950 . S
H3446 C3452 0.949 . S
C3447 H3442 0.950 . S
C3447 C3449 1.327 . S
C3447 C3453 1.429 . S
C3448 C3440 1.574 1_455 S
C3448 H3443 0.949 . S
C3448 C3454 1.368 . S
C3449 C3433 1.349 . S
C3449 H3441 0.950 . S
C3449 C3447 1.327 . S
C3450 C3438 1.349 . S
C3450 H3444 0.950 . S
C3450 C3451 1.327 . S
C3451 H3445 0.950 . S
C3451 C3450 1.327 . S
C3451 C3455 1.429 . S
C3452 C3435 1.574 1_655 S
C3452 H3446 0.949 . S
C3452 C3456 1.368 . S
C3453 C3434 1.429 . S
C3453 C3447 1.429 . S
C3453 C3454 1.523 . S
C3454 C3435 1.368 . S
C3454 C3448 1.368 . S
C3454 C3453 1.523 . S
C3455 C3439 1.429 . S
C3455 C3451 1.429 . S
C3455 C3456 1.523 . S
C3456 C3440 1.368 . S
C3456 C3452 1.368 . S
C3456 C3455 1.523 . S
H3457 C3432 0.950 . S
H3458 C3434 0.950 . S
H3459 C3435 0.949 . S
H3460 C3437 0.950 . S
H3461 C3439 0.950 . S
C3462 C3463 1.349 . S
C3462 C3464 1.327 . S
C3462 H3487 0.950 . S
C3463 C3462 1.349 . S
C3463 C3479 1.349 . S
C3464 C3462 1.327 . S
C3464 C3483 1.429 . S
C3464 H3488 0.950 . S
C3465 C3482 1.574 1_545 S
C3465 C3484 1.368 . S
C3465 H3489 0.949 . S
H3466 C3470 0.949 . S
C3467 C3468 1.349 . S
C3467 C3469 1.327 . S
C3467 H3490 0.950 . S
C3468 C3467 1.349 . S
C3468 C3480 1.349 . S
C3469 C3467 1.327 . S
C3469 C3485 1.429 . S
C3469 H3491 0.950 . S
C3470 H3466 0.949 . S
C3470 C3478 1.574 1_565 S
C3470 C3486 1.368 . S
H3471 C3479 0.950 . S
H3472 C3477 0.950 . S
H3473 C3478 0.949 . S
H3474 C3480 0.950 . S
H3475 C3481 0.950 . S
H3476 C3482 0.949 . S
C3477 H3472 0.950 . S
C3477 C3479 1.327 . S
C3477 C3483 1.429 . S
C3478 C3470 1.574 1_545 S
C3478 H3473 0.949 . S
C3478 C3484 1.368 . S
C3479 C3463 1.349 . S
C3479 H3471 0.950 . S
C3479 C3477 1.327 . S
C3480 C3468 1.349 . S
C3480 H3474 0.950 . S
C3480 C3481 1.327 . S
C3481 H3475 0.950 . S
C3481 C3480 1.327 . S
C3481 C3485 1.429 . S
C3482 C3465 1.574 1_565 S
C3482 H3476 0.949 . S
C3482 C3486 1.368 . S
C3483 C3464 1.429 . S
C3483 C3477 1.429 . S
C3483 C3484 1.523 . S
C3484 C3465 1.368 . S
C3484 C3478 1.368 . S
C3484 C3483 1.523 . S
C3485 C3469 1.429 . S
C3485 C3481 1.429 . S
C3485 C3486 1.523 . S
C3486 C3470 1.368 . S
C3486 C3482 1.368 . S
C3486 C3485 1.523 . S
H3487 C3462 0.950 . S
H3488 C3464 0.950 . S
H3489 C3465 0.949 . S
H3490 C3467 0.950 . S
H3491 C3469 0.950 . S
C3492 C3493 1.349 . S
C3492 C3494 1.327 . S
C3492 H3517 0.950 . S
C3493 C3492 1.349 . S
C3493 C3509 1.349 . S
C3494 C3492 1.327 . S
C3494 C3513 1.429 . S
C3494 H3518 0.950 . S
C3495 C3512 1.574 1_655 S
C3495 C3514 1.368 . S
C3495 H3519 0.949 . S
H3496 C3500 0.949 . S
C3497 C3498 1.349 . S
C3497 C3499 1.327 . S
C3497 H3520 0.950 . S
C3498 C3497 1.349 . S
C3498 C3510 1.349 . S
C3499 C3497 1.327 . S
C3499 C3515 1.429 . S
C3499 H3521 0.950 . S
C3500 H3496 0.949 . S
C3500 C3508 1.574 1_455 S
C3500 C3516 1.368 . S
H3501 C3509 0.950 . S
H3502 C3507 0.950 . S
H3503 C3508 0.949 . S
H3504 C3510 0.950 . S
H3505 C3511 0.950 . S
H3506 C3512 0.949 . S
C3507 H3502 0.950 . S
C3507 C3509 1.327 . S
C3507 C3513 1.429 . S
C3508 C3500 1.574 1_655 S
C3508 H3503 0.949 . S
C3508 C3514 1.368 . S
C3509 C3493 1.349 . S
C3509 H3501 0.950 . S
C3509 C3507 1.327 . S
C3510 C3498 1.349 . S
C3510 H3504 0.950 . S
C3510 C3511 1.327 . S
C3511 H3505 0.950 . S
C3511 C3510 1.327 . S
C3511 C3515 1.429 . S
C3512 C3495 1.574 1_455 S
C3512 H3506 0.949 . S
C3512 C3516 1.368 . S
C3513 C3494 1.429 . S
C3513 C3507 1.429 . S
C3513 C3514 1.523 . S
C3514 C3495 1.368 . S
C3514 C3508 1.368 . S
C3514 C3513 1.523 . S
C3515 C3499 1.429 . S
C3515 C3511 1.429 . S
C3515 C3516 1.523 . S
C3516 C3500 1.368 . S
C3516 C3512 1.368 . S
C3516 C3515 1.523 . S
H3517 C3492 0.950 . S
H3518 C3494 0.950 . S
H3519 C3495 0.949 . S
H3520 C3497 0.950 . S
H3521 C3499 0.950 . S
C3522 C3523 1.349 . S
C3522 C3524 1.327 . S
C3522 H3547 0.950 . S
C3523 C3522 1.349 . S
C3523 C3539 1.349 . S
C3524 C3522 1.327 . S
C3524 C3543 1.429 . S
C3524 H3548 0.950 . S
C3525 C3542 1.574 1_455 S
C3525 C3544 1.368 . S
C3525 H3549 0.949 . S
H3526 C3530 0.949 . S
C3527 C3528 1.349 . S
C3527 C3529 1.327 . S
C3527 H3550 0.950 . S
C3528 C3527 1.349 . S
C3528 C3540 1.349 . S
C3529 C3527 1.327 . S
C3529 C3545 1.429 . S
C3529 H3551 0.950 . S
C3530 H3526 0.949 . S
C3530 C3538 1.574 1_655 S
C3530 C3546 1.368 . S
H3531 C3539 0.950 . S
H3532 C3537 0.950 . S
H3533 C3538 0.949 . S
H3534 C3540 0.950 . S
H3535 C3541 0.950 . S
H3536 C3542 0.949 . S
C3537 H3532 0.950 . S
C3537 C3539 1.327 . S
C3537 C3543 1.429 . S
C3538 C3530 1.574 1_455 S
C3538 H3533 0.949 . S
C3538 C3544 1.368 . S
C3539 C3523 1.349 . S
C3539 H3531 0.950 . S
C3539 C3537 1.327 . S
C3540 C3528 1.349 . S
C3540 H3534 0.950 . S
C3540 C3541 1.327 . S
C3541 H3535 0.950 . S
C3541 C3540 1.327 . S
C3541 C3545 1.429 . S
C3542 C3525 1.574 1_655 S
C3542 H3536 0.949 . S
C3542 C3546 1.368 . S
C3543 C3524 1.429 . S
C3543 C3537 1.429 . S
C3543 C3544 1.523 . S
C3544 C3525 1.368 . S
C3544 C3538 1.368 . S
C3544 C3543 1.523 . S
C3545 C3529 1.429 . S
C3545 C3541 1.429 . S
C3545 C3546 1.523 . S
C3546 C3530 1.368 . S
C3546 C3542 1.368 . S
C3546 C3545 1.523 . S
H3547 C3522 0.950 . S
H3548 C3524 0.950 . S
H3549 C3525 0.949 . S
H3550 C3527 0.950 . S
H3551 C3529 0.950 . S
C673 C553 1.238 . S
C678 C7 1.237 . S
C703 C25 1.055 . S
C708 C511 1.055 . S
C733 C35 1.105 . S
C738 C529 1.108 . S
C763 C543 1.048 . S
C768 C53 1.048 . S
C793 C473 0.993 . S
C798 C67 0.992 . S
C823 C77 1.176 . S
C828 C483 1.180 . S
C853 C95 1.110 . S
C858 C497 1.106 . S
C883 C105 1.167 . S
C888 C459 1.168 . S
C913 C123 1.168 . S
C918 C441 1.167 . S
C943 C403 0.992 . S
C948 C137 0.993 . S
C973 C413 1.176 . S
C978 C147 1.180 . S
C1003 C161 1.106 . S
C1008 C431 1.110 . S
C1033 C175 1.055 . S
C1038 C361 1.055 . S
C1063 C193 1.108 . S
C1068 C371 1.105 . S
C1093 C389 1.048 . S
C1098 C207 1.048 . S
C1123 C343 1.237 . S
C1128 C217 1.238 . S
C1153 C235 1.107 . S
C1158 C627 1.105 . S
C1183 C665 1.125 . S
C1188 C245 1.125 . S
C1213 C641 1.105 . S
C1218 C263 1.108 . S
C1243 C651 1.122 . S
C1248 C273 1.121 . S
C1273 C571 1.107 . S
C1278 C291 1.105 . S
C1303 C599 1.108 . S
C1308 C305 1.105 . S
C1333 C315 1.122 . S
C1338 C609 1.121 . S
C1363 C581 1.125 . S
C1368 C329 1.125 . S
C1393 C455 1.238 . S
C1398 C287 1.237 . S
C1423 C249 1.055 . S
C1428 C469 1.055 . S
C1453 C487 1.108 . S
C1458 C259 1.105 . S
C1483 C501 1.048 . S
C1488 C277 1.048 . S
C1513 C333 0.992 . S
C1518 C515 0.993 . S
C1543 C525 1.180 . S
C1548 C301 1.176 . S
C1573 C319 1.110 . S
C1578 C539 1.106 . S
C1603 C231 1.167 . S
C1608 C557 1.168 . S
C1633 C567 1.167 . S
C1638 C221 1.168 . S
C1663 C179 0.993 . S
C1668 C669 0.992 . S
C1693 C637 1.176 . S
C1698 C189 1.180 . S
C1723 C203 1.106 . S
C1728 C655 1.110 . S
C1753 C133 1.055 . S
C1758 C585 1.055 . S
C1783 C151 1.108 . S
C1788 C595 1.105 . S
C1813 C165 1.048 . S
C1818 C613 1.048 . S
C1843 C623 1.237 . S
C1848 C119 1.238 . S
C1873 C347 1.105 . S
C1878 C109 1.107 . S
C1903 C399 1.125 . S
C1908 C21 1.125 . S
C1933 C417 1.105 . S
C1938 C39 1.108 . S
C1963 C427 1.122 . S
C1968 C49 1.121 . S
C1993 C445 1.107 . S
C1998 C11 1.105 . S
C2023 C81 1.105 . S
C2028 C375 1.108 . S
C2053 C385 1.121 . S
C2058 C91 1.122 . S
C2083 C357 1.125 . S
C2088 C63 1.125 . S
C2113 C13 1.055 . S
C2118 C377 1.054 . S
C2143 C386 1.243 . S
C2148 C22 1.247 . S
C2173 C41 1.054 . S
C2178 C349 1.055 . S
C2203 C50 1.243 . S
C2208 C358 1.247 . S
C2233 C64 1.243 . S
C2238 C428 1.249 . S
C2263 C447 1.052 . S
C2268 C83 1.055 . S
C2293 C92 1.249 . S
C2298 C400 1.243 . S
C2323 C419 1.055 . S
C2328 C111 1.052 . S
C2353 C120 1.142 . S
C2358 C517 1.156 . S
C2383 C526 1.311 . S
C2388 C134 1.313 . S
C2413 C153 1.151 . S
C2418 C540 1.142 . S
C2443 C167 0.992 . S
C2448 C559 0.989 . S
C2473 C181 1.156 . S
C2478 C456 1.142 . S
C2503 C190 1.311 . S
C2508 C470 1.313 . S
C2533 C489 1.151 . S
C2538 C204 1.142 . S
C2563 C223 0.989 . S
C2568 C503 0.992 . S
C2593 C615 1.222 . S
C2598 C232 1.207 . S
C2623 C251 1.093 . S
C2628 C638 1.079 . S
C2653 C260 1.146 . S
C2658 C657 1.154 . S
C2683 C568 1.207 . S
C2688 C279 1.222 . S
C2713 C671 1.162 . S
C2718 C288 1.140 . S
C2743 C302 1.079 . S
C2748 C587 1.093 . S
C2773 C596 1.146 . S
C2778 C321 1.154 . S
C2803 C335 1.162 . S
C2808 C624 1.140 . S
C2833 C601 1.054 . S
C2838 C293 1.055 . S
C2863 C246 1.247 . S
C2868 C610 1.243 . S
C2893 C629 1.055 . S
C2898 C265 1.054 . S
C2923 C582 1.247 . S
C2928 C274 1.243 . S
C2953 C652 1.249 . S
C2958 C330 1.243 . S
C2983 C307 1.055 . S
C2988 C573 1.052 . S
C3013 C666 1.243 . S
C3018 C316 1.249 . S
C3043 C237 1.052 . S
C3048 C643 1.055 . S
C3073 C475 1.156 . S
C3078 C218 1.142 . S
C3103 C176 1.313 . S
C3108 C484 1.311 . S
C3133 C195 1.151 . S
C3138 C498 1.142 . S
C3163 C461 0.989 . S
C3168 C209 0.992 . S
C3193 C139 1.156 . S
C3198 C554 1.142 . S
C3223 C512 1.313 . S
C3228 C148 1.311 . S
C3253 C162 1.142 . S
C3258 C531 1.151 . S
C3283 C125 0.989 . S
C3288 C545 0.992 . S
C3313 C391 1.222 . S
C3318 C106 1.207 . S
C3343 C27 1.093 . S
C3348 C414 1.079 . S
C3373 C36 1.146 . S
C3378 C433 1.154 . S
C3403 C442 1.207 . S
C3408 C55 1.222 . S
C3433 C8 1.140 . S
C3438 C405 1.162 . S
C3463 C78 1.079 . S
C3468 C363 1.093 . S
C3493 C97 1.154 . S
C3498 C372 1.146 . S
C3523 C69 1.162 . S
C3528 C344 1.140 . S
