# Generated by pormake.
# Topology wka, (5)-cn, num edge types: 1
# Building blocks:
#     Node 0, Type 0, BuildingBlock: BEQFEK_clean_sbu_0, # of connection points: 5
#     Node 1, Type 0, BuildingBlock: BEQFEK_clean_sbu_0, # of connection points: 5
#     Node 2, Type 0, BuildingBlock: BEQFEK_clean_sbu_0, # of connection points: 5
#     Node 3, Type 0, BuildingBlock: BEQFEK_clean_sbu_0, # of connection points: 5
#     Node 4, Type 0, BuildingBlock: BEQFEK_clean_sbu_0, # of connection points: 5
#     Node 5, Type 0, BuildingBlock: BEQFEK_clean_sbu_0, # of connection points: 5
#     Node 6, Type 0, BuildingBlock: BEQFEK_clean_sbu_0, # of connection points: 5
#     Node 7, Type 0, BuildingBlock: BEQFEK_clean_sbu_0, # of connection points: 5
#     Node 8, Type 0, BuildingBlock: BEQFEK_clean_sbu_0, # of connection points: 5
#     Node 9, Type 0, BuildingBlock: BEQFEK_clean_sbu_0, # of connection points: 5
#     Node 10, Type 0, BuildingBlock: BEQFEK_clean_sbu_0, # of connection points: 5
#     Node 11, Type 0, BuildingBlock: BEQFEK_clean_sbu_0, # of connection points: 5
#     Edge 12, Type (0, 0), BuildingBlock: ZUJKAS_clean_linker_0, # of connection points: 2
#     Edge 13, Type (0, 0), BuildingBlock: ZUJKAS_clean_linker_0, # of connection points: 2
#     Edge 14, Type (0, 0), BuildingBlock: ZUJKAS_clean_linker_0, # of connection points: 2
#     Edge 15, Type (0, 0), BuildingBlock: ZUJKAS_clean_linker_0, # of connection points: 2
#     Edge 16, Type (0, 0), BuildingBlock: ZUJKAS_clean_linker_0, # of connection points: 2
#     Edge 17, Type (0, 0), BuildingBlock: ZUJKAS_clean_linker_0, # of connection points: 2
#     Edge 18, Type (0, 0), BuildingBlock: ZUJKAS_clean_linker_0, # of connection points: 2
#     Edge 19, Type (0, 0), BuildingBlock: ZUJKAS_clean_linker_0, # of connection points: 2
#     Edge 20, Type (0, 0), BuildingBlock: ZUJKAS_clean_linker_0, # of connection points: 2
#     Edge 21, Type (0, 0), BuildingBlock: ZUJKAS_clean_linker_0, # of connection points: 2
#     Edge 22, Type (0, 0), BuildingBlock: ZUJKAS_clean_linker_0, # of connection points: 2
#     Edge 23, Type (0, 0), BuildingBlock: ZUJKAS_clean_linker_0, # of connection points: 2
#     Edge 24, Type (0, 0), BuildingBlock: ZUJKAS_clean_linker_0, # of connection points: 2
#     Edge 25, Type (0, 0), BuildingBlock: ZUJKAS_clean_linker_0, # of connection points: 2
#     Edge 26, Type (0, 0), BuildingBlock: ZUJKAS_clean_linker_0, # of connection points: 2
#     Edge 27, Type (0, 0), BuildingBlock: ZUJKAS_clean_linker_0, # of connection points: 2
#     Edge 28, Type (0, 0), BuildingBlock: ZUJKAS_clean_linker_0, # of connection points: 2
#     Edge 29, Type (0, 0), BuildingBlock: ZUJKAS_clean_linker_0, # of connection points: 2
#     Edge 30, Type (0, 0), BuildingBlock: ZUJKAS_clean_linker_0, # of connection points: 2
#     Edge 31, Type (0, 0), BuildingBlock: ZUJKAS_clean_linker_0, # of connection points: 2
#     Edge 32, Type (0, 0), BuildingBlock: ZUJKAS_clean_linker_0, # of connection points: 2
#     Edge 33, Type (0, 0), BuildingBlock: ZUJKAS_clean_linker_0, # of connection points: 2
#     Edge 34, Type (0, 0), BuildingBlock: ZUJKAS_clean_linker_0, # of connection points: 2
#     Edge 35, Type (0, 0), BuildingBlock: ZUJKAS_clean_linker_0, # of connection points: 2
#     Edge 36, Type (0, 0), BuildingBlock: ZUJKAS_clean_linker_0, # of connection points: 2
#     Edge 37, Type (0, 0), BuildingBlock: ZUJKAS_clean_linker_0, # of connection points: 2
#     Edge 38, Type (0, 0), BuildingBlock: ZUJKAS_clean_linker_0, # of connection points: 2
#     Edge 39, Type (0, 0), BuildingBlock: ZUJKAS_clean_linker_0, # of connection points: 2
#     Edge 40, Type (0, 0), BuildingBlock: ZUJKAS_clean_linker_0, # of connection points: 2
#     Edge 41, Type (0, 0), BuildingBlock: ZUJKAS_clean_linker_0, # of connection points: 2
# Relax obj value: 0.360
# Max RMSD: 0.223
# Mean RMSD: 0.223
data_MOF--net-wka--node1-BEQFEK_clean_sbu_0--edge1-ZUJKAS_clean_linker_0
_symmetry_space_group_name_H-M    P1
_symmetry_Int_Tables_number       1
_symmetry_cell_setting            triclinic
loop_
_symmetry_equiv_pos_as_xyz
'x, y, z'
_cell_length_a     88.112521
_cell_length_b     88.115986
_cell_length_c     21.818503
_cell_angle_alpha  90.017505
_cell_angle_beta   89.982908
_cell_angle_gamma 119.99867
loop_
_atom_site_label
_atom_site_type_symbol
_atom_site_fract_x
_atom_site_fract_y
_atom_site_fract_z
_atom_type_partial_charge
Co0 Co 0.11688 0.44806 0.99534 0.0
Co1 Co 0.09746 0.43841 0.12047 0.0
C2 C 0.07853 0.42006 0.00979 0.0
O3 O 0.09225 0.4301 0.97964 0.0
O4 O 0.07838 0.42097 0.06784 0.0
C5 C 0.12406 0.43197 0.90387 0.0
O6 O 0.1168 0.41977 0.94612 0.0
C7 C 0.08237 0.4196 0.23505 0.0
C8 C 0.0847 0.4409 0.29456 0.0
C9 C 0.07967 0.42328 0.29447 0.0
N10 N 0.08893 0.43441 0.20197 0.0
N11 N 0.08988 0.447 0.23743 0.0
C12 C 0.07835 0.40221 0.20954 0.0
H13 H 0.08548 0.40392 0.16583 0.0
H14 H 0.0816 0.39478 0.24295 0.0
H15 H 0.06408 0.39437 0.20019 0.0
C16 C 0.14237 0.44269 0.06561 0.0
N17 N 0.12682 0.44202 0.06092 0.0
N18 N 0.11874 0.43762 0.1142 0.0
C19 C 0.12906 0.43537 0.15474 0.0
C20 C 0.14429 0.43837 0.12499 0.0
C21 C 0.15592 0.4492 0.01597 0.0
H22 H 0.15494 0.4591 0.9875 0.0
H23 H 0.15365 0.43804 0.98626 0.0
H24 H 0.16932 0.45508 0.03543 0.0
O25 O 0.11803 0.4707 0.01233 0.0
O26 O 0.10268 0.46251 0.09896 0.0
H27 H 0.12 0.43895 0.2418 0.0
H28 H 0.13546 0.43121 0.24732 0.0
C29 C 0.12443 0.43042 0.22049 0.0
H30 H 0.11366 0.41667 0.22252 0.0
H31 H 0.0948 0.45994 0.22336 0.0
O32 O 0.12772 0.44751 0.91707 0.0
C33 C 0.11093 0.47396 0.05759 0.0
Co34 Co 0.66913 0.11682 0.15689 0.0
Co35 Co 0.65936 0.09834 0.28419 0.0
C36 C 0.65875 0.07865 0.17494 0.0
O37 O 0.66272 0.09226 0.14368 0.0
O38 O 0.65728 0.07872 0.23286 0.0
C39 C 0.69193 0.12384 0.06237 0.0
O40 O 0.69729 0.11666 0.10348 0.0
C41 C 0.66422 0.08483 0.40049 0.0
C42 C 0.64623 0.08856 0.46089 0.0
C43 C 0.65891 0.08363 0.4611 0.0
N44 N 0.65544 0.09068 0.36678 0.0
N45 N 0.6444 0.09247 0.40285 0.0
C46 C 0.67696 0.08005 0.37406 0.0
H47 H 0.67047 0.07047 0.33642 0.0
H48 H 0.68822 0.09174 0.35339 0.0
H49 H 0.68162 0.07418 0.40902 0.0
C50 C 0.70036 0.14262 0.22579 0.0
N51 N 0.68536 0.12712 0.22186 0.0
N52 N 0.68147 0.11949 0.27604 0.0
C53 C 0.69392 0.13013 0.3164 0.0
C54 C 0.70637 0.14489 0.28558 0.0
C55 C 0.7084 0.1552 0.17359 0.0
H56 H 0.69799 0.1553 0.14534 0.0
H57 H 0.71583 0.15088 0.14435 0.0
H58 H 0.71763 0.16866 0.18967 0.0
O59 O 0.64759 0.11804 0.17415 0.0
O60 O 0.64065 0.10367 0.26281 0.0
H61 H 0.67901 0.1222 0.39998 0.0
H62 H 0.70088 0.14046 0.40846 0.0
C63 C 0.69275 0.12779 0.38456 0.0
H64 H 0.69766 0.11891 0.39781 0.0
H65 H 0.63623 0.09719 0.38842 0.0
O66 O 0.67993 0.12719 0.07718 0.0
C67 C 0.63743 0.11159 0.22032 0.0
Co68 Co 0.55145 0.66932 0.32164 0.0
Co69 Co 0.56117 0.65916 0.44593 0.0
C70 C 0.5794 0.65895 0.33398 0.0
O71 O 0.56926 0.66263 0.30455 0.0
O72 O 0.5786 0.65779 0.39203 0.0
C73 C 0.56743 0.69241 0.22994 0.0
O74 O 0.57964 0.69741 0.27215 0.0
C75 C 0.58029 0.6636 0.56015 0.0
C76 C 0.5599 0.64299 0.6182 0.0
C77 C 0.57705 0.65671 0.61893 0.0
N78 N 0.56565 0.65454 0.52673 0.0
N79 N 0.55363 0.64196 0.56126 0.0
C80 C 0.59713 0.67819 0.53531 0.0
H81 H 0.5947 0.68375 0.49326 0.0
H82 H 0.6041 0.6886 0.57003 0.0
H83 H 0.60578 0.67286 0.52306 0.0
C84 C 0.55737 0.70027 0.3929 0.0
N85 N 0.55784 0.68529 0.38754 0.0
N86 N 0.56171 0.68115 0.44101 0.0
C87 C 0.56344 0.69333 0.48249 0.0
C88 C 0.56106 0.70593 0.45297 0.0
C89 C 0.5516 0.70797 0.34319 0.0
H90 H 0.54137 0.6974 0.3146 0.0
H91 H 0.563 0.7164 0.31361 0.0
H92 H 0.54642 0.71614 0.36248 0.0
O93 O 0.52878 0.6478 0.33924 0.0
O94 O 0.53707 0.64033 0.42498 0.0
H95 H 0.559 0.67901 0.56647 0.0
H96 H 0.56301 0.70102 0.57661 0.0
C97 C 0.56659 0.69265 0.5495 0.0
H98 H 0.58074 0.69765 0.55668 0.0
H99 H 0.54092 0.63315 0.54675 0.0
O100 O 0.55185 0.68071 0.24355 0.0
C101 C 0.52555 0.63731 0.38409 0.0
Co102 Co 0.88173 0.5504 0.48717 0.0
Co103 Co 0.90108 0.56001 0.61238 0.0
C104 C 0.91993 0.57835 0.50106 0.0
O105 O 0.90625 0.56823 0.47102 0.0
O106 O 0.92004 0.5775 0.55912 0.0
C107 C 0.87528 0.56639 0.39394 0.0
O108 O 0.88213 0.57855 0.43651 0.0
C109 C 0.91489 0.5794 0.72637 0.0
C110 C 0.91729 0.56013 0.78401 0.0
C111 C 0.91941 0.5768 0.78457 0.0
N112 N 0.91015 0.56488 0.69315 0.0
N113 N 0.91198 0.55354 0.72742 0.0
C114 C 0.91538 0.59553 0.70218 0.0
H115 H 0.90799 0.59269 0.65851 0.0
H116 H 0.91008 0.60101 0.73628 0.0
H117 H 0.92923 0.60564 0.69348 0.0
C118 C 0.85612 0.55576 0.5573 0.0
N119 N 0.87175 0.55656 0.55255 0.0
N120 N 0.87955 0.56037 0.60638 0.0
C121 C 0.86887 0.56184 0.64745 0.0
C122 C 0.85386 0.55925 0.61753 0.0
C123 C 0.84358 0.55141 0.50501 0.0
H124 H 0.84288 0.54041 0.47804 0.0
H125 H 0.84845 0.56297 0.47451 0.0
H126 H 0.83029 0.54803 0.52042 0.0
O127 O 0.88072 0.52781 0.50526 0.0
O128 O 0.89611 0.53599 0.59188 0.0
H129 H 0.8588 0.5571 0.73994 0.0
H130 H 0.87899 0.57714 0.72849 0.0
C131 C 0.87153 0.56313 0.71538 0.0
H132 H 0.87876 0.55647 0.72987 0.0
H133 H 0.90899 0.54107 0.7129 0.0
O134 O 0.87116 0.55077 0.40805 0.0
C135 C 0.88783 0.52455 0.55051 0.0
Co136 Co 0.33082 0.88302 0.65551 0.0
Co137 Co 0.34085 0.90188 0.78203 0.0
C138 C 0.34093 0.92133 0.67407 0.0
O139 O 0.33708 0.90766 0.64318 0.0
O140 O 0.34249 0.92145 0.73202 0.0
C141 C 0.3076 0.87564 0.56166 0.0
O142 O 0.30187 0.88234 0.60334 0.0
C143 C 0.33825 0.91649 0.89978 0.0
C144 C 0.35346 0.90872 0.95945 0.0
C145 C 0.34299 0.91634 0.96039 0.0
N146 N 0.34522 0.90888 0.86529 0.0
N147 N 0.35465 0.90467 0.90097 0.0
C148 C 0.32785 0.92423 0.8741 0.0
H149 H 0.31837 0.91531 0.83948 0.0
H150 H 0.32106 0.92739 0.91039 0.0
H151 H 0.33696 0.93655 0.84983 0.0
C152 C 0.30001 0.85719 0.72537 0.0
N153 N 0.31491 0.87272 0.72084 0.0
N154 N 0.31868 0.88068 0.77434 0.0
C155 C 0.30607 0.87038 0.81478 0.0
C156 C 0.29382 0.85518 0.78493 0.0
C157 C 0.29293 0.84376 0.67535 0.0
H158 H 0.30373 0.84504 0.64574 0.0
H159 H 0.28373 0.84589 0.64685 0.0
H160 H 0.28572 0.8303 0.69451 0.0
O161 O 0.35227 0.88174 0.67139 0.0
O162 O 0.35987 0.89713 0.75792 0.0
H163 H 0.31769 0.87677 0.9041 0.0
H164 H 0.29398 0.86493 0.90509 0.0
C165 C 0.30574 0.87498 0.88063 0.0
H166 H 0.30557 0.88741 0.8831 0.0
H167 H 0.36119 0.89823 0.88586 0.0
O168 O 0.31986 0.87265 0.57606 0.0
C169 C 0.36288 0.88893 0.71586 0.0
Co170 Co 0.45024 0.33251 0.82675 0.0
Co171 Co 0.4397 0.34106 0.95235 0.0
C172 C 0.42228 0.34277 0.84038 0.0
O173 O 0.43261 0.33949 0.8104 0.0
O174 O 0.42268 0.34313 0.89852 0.0
C175 C 0.43455 0.31046 0.73264 0.0
O176 O 0.42237 0.3051 0.77516 0.0
C177 C 0.4196 0.33462 0.06525 0.0
C178 C 0.43843 0.35607 0.12461 0.0
C179 C 0.42182 0.34144 0.1238 0.0
N180 N 0.43428 0.34465 0.03311 0.0
N181 N 0.44535 0.35769 0.06841 0.0
C182 C 0.40366 0.31902 0.03979 0.0
H183 H 0.40674 0.3148 0.99584 0.0
H184 H 0.39818 0.30806 0.07314 0.0
H185 H 0.39346 0.32264 0.03127 0.0
C186 C 0.44434 0.3009 0.89383 0.0
N187 N 0.44354 0.31575 0.89042 0.0
N188 N 0.43926 0.31919 0.94438 0.0
C189 C 0.43748 0.30666 0.98422 0.0
C190 C 0.44034 0.29455 0.95325 0.0
C191 C 0.44925 0.29328 0.84119 0.0
H192 H 0.46025 0.3039 0.8152 0.0
H193 H 0.43786 0.28652 0.80997 0.0
H194 H 0.45289 0.28352 0.85612 0.0
O195 O 0.47281 0.35382 0.84783 0.0
O196 O 0.46396 0.36011 0.93491 0.0
H197 H 0.44223 0.32118 0.06818 0.0
H198 H 0.44179 0.30063 0.07626 0.0
C199 C 0.43578 0.30743 0.05222 0.0
H200 H 0.4217 0.30065 0.06445 0.0
H201 H 0.45786 0.36733 0.05485 0.0
O202 O 0.45014 0.32204 0.7468 0.0
C203 C 0.47575 0.36366 0.89455 0.0
Co204 Co 0.55119 0.88252 0.84682 0.0
Co205 Co 0.55938 0.90121 0.72024 0.0
C206 C 0.57887 0.92072 0.829 0.0
O207 O 0.56916 0.90719 0.86053 0.0
O208 O 0.57738 0.92051 0.77105 0.0
C209 C 0.56714 0.87573 0.94133 0.0
O210 O 0.57981 0.88344 0.90089 0.0
C211 C 0.57747 0.91434 0.6036 0.0
C212 C 0.55595 0.91163 0.54428 0.0
C213 C 0.57334 0.91577 0.54324 0.0
N214 N 0.56303 0.90907 0.63792 0.0
N215 N 0.55034 0.90791 0.60254 0.0
C216 C 0.59484 0.91824 0.62911 0.0
H217 H 0.59774 0.92641 0.67089 0.0
H218 H 0.59433 0.90591 0.64315 0.0
H219 H 0.60553 0.92526 0.59529 0.0
C220 C 0.55657 0.85689 0.77631 0.0
N221 N 0.55696 0.87233 0.78101 0.0
N222 N 0.55988 0.87976 0.72664 0.0
C223 C 0.56104 0.86897 0.68521 0.0
C224 C 0.55931 0.85435 0.71548 0.0
C225 C 0.55337 0.84482 0.82922 0.0
H226 H 0.54241 0.84371 0.85758 0.0
H227 H 0.56529 0.85037 0.85814 0.0
H228 H 0.55045 0.83162 0.81439 0.0
O229 O 0.52832 0.88117 0.83055 0.0
O230 O 0.53577 0.89668 0.74415 0.0
H231 H 0.55309 0.87718 0.60444 0.0
H232 H 0.55514 0.85805 0.5938 0.0
C233 C 0.56088 0.87096 0.61706 0.0
H234 H 0.57447 0.87909 0.60025 0.0
H235 H 0.5376 0.90371 0.61759 0.0
O236 O 0.55171 0.872 0.92602 0.0
C237 C 0.52472 0.8884 0.78657 0.0
Co238 Co 0.66942 0.55519 0.00173 0.0
Co239 Co 0.65725 0.5609 0.87424 0.0
C240 C 0.6588 0.58258 0.97859 0.0
O241 O 0.66318 0.57353 0.01136 0.0
O242 O 0.6564 0.57986 0.92125 0.0
C243 C 0.69341 0.57301 0.09177 0.0
O244 O 0.69809 0.58495 0.0487 0.0
C245 C 0.66017 0.57539 0.7513 0.0
C246 C 0.64044 0.55194 0.70159 0.0
C247 C 0.65378 0.56909 0.69301 0.0
N248 N 0.65144 0.56232 0.79162 0.0
N249 N 0.63925 0.54855 0.76191 0.0
C250 C 0.67546 0.59282 0.76824 0.0
H251 H 0.68024 0.59237 0.81489 0.0
H252 H 0.68623 0.59701 0.73446 0.0
H253 H 0.67121 0.60274 0.76791 0.0
C254 C 0.69955 0.55936 0.92947 0.0
N255 N 0.68447 0.55967 0.93423 0.0
N256 N 0.67934 0.56148 0.87935 0.0
C257 C 0.69084 0.56175 0.8376 0.0
C258 C 0.70415 0.56082 0.86832 0.0
C259 C 0.70837 0.55583 0.98164 0.0
H260 H 0.69844 0.54619 0.01356 0.0
H261 H 0.71661 0.5682 0.00696 0.0
H262 H 0.71692 0.55076 0.96507 0.0
O263 O 0.64762 0.53206 0.9922 0.0
O264 O 0.63878 0.53777 0.90424 0.0
H265 H 0.69612 0.55632 0.74552 0.0
H266 H 0.69366 0.57509 0.75308 0.0
C267 C 0.68861 0.56153 0.76951 0.0
H268 H 0.67461 0.5534 0.75714 0.0
H269 H 0.63095 0.53645 0.7822 0.0
O270 O 0.68154 0.55736 0.07986 0.0
C271 C 0.6364 0.52754 0.94904 0.0
Co272 Co 0.11462 0.66781 0.16647 0.0
Co273 Co 0.09618 0.65755 0.03923 0.0
C274 C 0.07634 0.65745 0.14641 0.0
O275 O 0.08997 0.66153 0.17783 0.0
O276 O 0.07637 0.6557 0.08857 0.0
C277 C 0.12168 0.6911 0.25989 0.0
O278 O 0.11499 0.69672 0.21784 0.0
C279 C 0.08138 0.65964 0.92124 0.0
C280 C 0.08999 0.64509 0.86166 0.0
C281 C 0.0818 0.65502 0.86065 0.0
N282 N 0.08939 0.6531 0.95582 0.0
N283 N 0.09411 0.64406 0.92019 0.0
C284 C 0.0731 0.66955 0.94677 0.0
H285 H 0.0614 0.66036 0.9738 0.0
H286 H 0.0822 0.67982 0.979 0.0
H287 H 0.06887 0.67536 0.9102 0.0
C288 C 0.14056 0.6986 0.09641 0.0
N289 N 0.12506 0.68365 0.10091 0.0
N290 N 0.11718 0.67981 0.04727 0.0
C291 C 0.12748 0.69239 0.00679 0.0
C292 C 0.14262 0.70471 0.03671 0.0
C293 C 0.15389 0.70582 0.14668 0.0
H294 H 0.15261 0.69509 0.17669 0.0
H295 H 0.15166 0.71503 0.17473 0.0
H296 H 0.16739 0.71305 0.12777 0.0
O297 O 0.11581 0.64625 0.15192 0.0
O298 O 0.10128 0.63882 0.0637 0.0
H299 H 0.12174 0.68088 0.91728 0.0
H300 H 0.13277 0.70458 0.91669 0.0
C301 C 0.12295 0.69259 0.94078 0.0
H302 H 0.11024 0.69219 0.93782 0.0
H303 H 0.10092 0.63792 0.93537 0.0
O304 O 0.12481 0.67891 0.24591 0.0
C305 C 0.10916 0.63576 0.10677 0.0
Co306 Co 0.44797 0.11618 0.33884 0.0
Co307 Co 0.43949 0.09729 0.2128 0.0
C308 C 0.42026 0.07799 0.32249 0.0
O309 O 0.42995 0.09165 0.35348 0.0
O310 O 0.42175 0.078 0.26458 0.0
C311 C 0.43226 0.12332 0.43312 0.0
O312 O 0.41958 0.11588 0.39256 0.0
C313 C 0.42122 0.08357 0.09663 0.0
C314 C 0.4429 0.0867 0.03724 0.0
C315 C 0.42538 0.08213 0.03631 0.0
N316 N 0.43575 0.08926 0.13077 0.0
N317 N 0.44855 0.09067 0.09535 0.0
C318 C 0.40374 0.07923 0.12231 0.0
H319 H 0.40138 0.07181 0.16566 0.0
H320 H 0.40363 0.09144 0.13354 0.0
H321 H 0.39301 0.07132 0.08953 0.0
C322 C 0.44265 0.14177 0.26811 0.0
N323 N 0.44208 0.12625 0.27304 0.0
N324 N 0.43881 0.11863 0.21893 0.0
C325 C 0.43753 0.12933 0.17743 0.0
C326 C 0.43963 0.14415 0.20745 0.0
C327 C 0.44638 0.15412 0.32061 0.0
H328 H 0.45733 0.15504 0.34849 0.0
H329 H 0.4346 0.14894 0.35015 0.0
H330 H 0.44956 0.16736 0.30539 0.0
O331 O 0.47077 0.11741 0.32239 0.0
O332 O 0.46335 0.10228 0.23528 0.0
H333 H 0.44524 0.12106 0.09625 0.0
H334 H 0.44255 0.13981 0.08529 0.0
C335 C 0.43727 0.12705 0.10931 0.0
H336 H 0.42361 0.11853 0.0937 0.0
H337 H 0.46136 0.0952 0.11023 0.0
O338 O 0.44762 0.12685 0.41777 0.0
C339 C 0.47446 0.11049 0.27757 0.0
Co340 Co 0.33223 0.44721 0.50092 0.0
Co341 Co 0.34262 0.43861 0.37481 0.0
C342 C 0.34291 0.41943 0.48313 0.0
O343 O 0.33875 0.42906 0.5137 0.0
O344 O 0.34462 0.42092 0.42521 0.0
C345 C 0.30897 0.43116 0.5945 0.0
O346 O 0.3032 0.41878 0.55267 0.0
C347 C 0.34141 0.42185 0.2569 0.0
C348 C 0.35537 0.44521 0.19781 0.0
C349 C 0.34608 0.42706 0.19646 0.0
N350 N 0.34728 0.43631 0.29166 0.0
N351 N 0.35598 0.4502 0.2563 0.0
C352 C 0.33214 0.40359 0.28207 0.0
H353 H 0.34101 0.40215 0.31467 0.0
H354 H 0.32045 0.40127 0.30862 0.0
H355 H 0.32838 0.39361 0.24543 0.0
C356 C 0.30134 0.44177 0.43019 0.0
N357 N 0.31637 0.44139 0.43523 0.0
N358 N 0.32026 0.43715 0.38204 0.0
C359 C 0.30763 0.43456 0.3413 0.0
C360 C 0.29521 0.43737 0.3706 0.0
C361 C 0.29408 0.44808 0.47972 0.0
H362 H 0.30479 0.45764 0.50958 0.0
H363 H 0.28483 0.43675 0.5081 0.0
H364 H 0.28689 0.45428 0.46004 0.0
O365 O 0.35364 0.47006 0.48584 0.0
O366 O 0.36117 0.46258 0.39864 0.0
H367 H 0.31891 0.4404 0.25146 0.0
H368 H 0.29528 0.42677 0.25171 0.0
C369 C 0.30753 0.42964 0.27554 0.0
H370 H 0.30867 0.41774 0.27306 0.0
H371 H 0.3616 0.46312 0.27164 0.0
O372 O 0.32112 0.44646 0.58004 0.0
C373 C 0.36414 0.47373 0.44085 0.0
Co374 Co 0.88413 0.33115 0.67116 0.0
Co375 Co 0.90306 0.34123 0.54492 0.0
C376 C 0.92248 0.34152 0.65346 0.0
O377 O 0.90874 0.33753 0.68406 0.0
O378 O 0.92268 0.34312 0.59551 0.0
C379 C 0.87677 0.30793 0.76489 0.0
O380 O 0.88335 0.30211 0.72311 0.0
C381 C 0.91837 0.33945 0.4273 0.0
C382 C 0.90964 0.35391 0.36786 0.0
C383 C 0.91805 0.34418 0.36679 0.0
N384 N 0.9101 0.34572 0.46182 0.0
N385 N 0.9053 0.3547 0.42626 0.0
C386 C 0.9269 0.32976 0.4528 0.0
H387 H 0.93736 0.3385 0.48515 0.0
H388 H 0.9173 0.31827 0.47972 0.0
H389 H 0.93283 0.32562 0.41632 0.0
C390 C 0.85859 0.30015 0.60098 0.0
N391 N 0.87401 0.31517 0.60574 0.0
N392 N 0.88206 0.31899 0.55239 0.0
C393 C 0.87191 0.30637 0.51177 0.0
C394 C 0.85675 0.294 0.54143 0.0
C395 C 0.8451 0.29287 0.65074 0.0
H396 H 0.84618 0.30358 0.68047 0.0
H397 H 0.84731 0.28372 0.67919 0.0
H398 H 0.83167 0.28554 0.6313 0.0
O399 O 0.8828 0.35261 0.65544 0.0
O400 O 0.89777 0.35988 0.56816 0.0
H401 H 0.87769 0.31804 0.42255 0.0
H402 H 0.86666 0.29436 0.4214 0.0
C403 C 0.87648 0.30629 0.44571 0.0
H404 H 0.88921 0.30674 0.44252 0.0
H405 H 0.8983 0.36066 0.44139 0.0
O406 O 0.87375 0.32016 0.75041 0.0
C407 C 0.88965 0.363 0.61017 0.0
H408 H 0.09737 0.61141 0.01514 0.0
H409 H 0.09915 0.58474 0.009 0.0
H410 H 0.12577 0.59674 0.18317 0.0
H411 H 0.12424 0.62374 0.18971 0.0
H412 H 0.14087 0.58533 0.08993 0.0
H413 H 0.06915 0.54075 0.11376 0.0
H414 H 0.07518 0.55683 0.05419 0.0
H415 H 0.07972 0.56375 0.13284 0.0
C416 C 0.10361 0.60845 0.05235 0.0
C417 C 0.11054 0.61969 0.10326 0.0
C418 C 0.10456 0.59314 0.04873 0.0
C419 C 0.11235 0.58866 0.09602 0.0
C420 C 0.11963 0.59997 0.14634 0.0
H421 H 0.09897 0.48564 0.15145 0.0
H422 H 0.10061 0.51394 0.16135 0.0
C423 C 0.1187 0.61535 0.15006 0.0
C424 C 0.11268 0.57205 0.09279 0.0
H425 H 0.08599 0.52772 0.08453 0.0
C426 C 0.1289 0.5727 0.08905 0.0
C427 C 0.09703 0.55564 0.09224 0.0
C428 C 0.07927 0.55411 0.09904 0.0
C429 C 0.12986 0.55731 0.0836 0.0
C430 C 0.11418 0.54093 0.08105 0.0
C431 C 0.09799 0.54031 0.08585 0.0
C432 C 0.11414 0.52415 0.07538 0.0
C433 C 0.14762 0.55869 0.08156 0.0
C434 C 0.12119 0.52046 0.02351 0.0
C435 C 0.12032 0.50422 0.01764 0.0
C436 C 0.11225 0.49135 0.06336 0.0
C437 C 0.10526 0.49518 0.11523 0.0
C438 C 0.10618 0.51138 0.12108 0.0
H439 H 0.15809 0.57155 0.09899 0.0
H440 H 0.14768 0.54811 0.109 0.0
H441 H 0.15081 0.5573 0.03342 0.0
H442 H 0.12708 0.53002 0.98711 0.0
H443 H 0.12577 0.50168 0.97703 0.0
H444 H 0.48575 0.09611 0.1908 0.0
H445 H 0.51428 0.09816 0.18305 0.0
H446 H 0.53156 0.13021 0.34568 0.0
H447 H 0.50288 0.12834 0.35395 0.0
H448 H 0.55621 0.14235 0.2417 0.0
H449 H 0.53095 0.07255 0.3024 0.0
H450 H 0.51907 0.07605 0.24236 0.0
H451 H 0.51895 0.08375 0.31851 0.0
C452 C 0.49556 0.10362 0.22511 0.0
C453 C 0.49194 0.11197 0.27334 0.0
C454 C 0.51186 0.10474 0.22056 0.0
C455 C 0.52492 0.11416 0.26412 0.0
C456 C 0.52158 0.12281 0.31173 0.0
H457 H 0.6162 0.10384 0.32005 0.0
H458 H 0.58986 0.10599 0.33052 0.0
C459 C 0.50518 0.12167 0.31649 0.0
C460 C 0.5419 0.11464 0.26004 0.0
H461 H 0.55998 0.08829 0.26411 0.0
C462 C 0.55711 0.13058 0.24692 0.0
C463 C 0.54299 0.09927 0.26732 0.0
C464 C 0.52717 0.08194 0.28396 0.0
C465 C 0.57341 0.13149 0.23983 0.0
C466 C 0.57438 0.116 0.24529 0.0
C467 C 0.55918 0.10013 0.25937 0.0
C468 C 0.59108 0.11589 0.23888 0.0
C469 C 0.58945 0.14903 0.22749 0.0
C470 C 0.60058 0.12078 0.18371 0.0
C471 C 0.61581 0.11964 0.17752 0.0
C472 C 0.62164 0.11339 0.22621 0.0
C473 C 0.61209 0.10862 0.2814 0.0
C474 C 0.597 0.10986 0.28761 0.0
H475 H 0.5873 0.16006 0.23976 0.0
H476 H 0.60092 0.15045 0.25353 0.0
H477 H 0.59265 0.15009 0.17793 0.0
H478 H 0.59603 0.12513 0.14506 0.0
H479 H 0.62282 0.12335 0.13436 0.0
H480 H 0.38844 0.48589 0.3491 0.0
H481 H 0.41492 0.51443 0.34119 0.0
H482 H 0.40278 0.53 0.51325 0.0
H483 H 0.37595 0.50137 0.52157 0.0
H484 H 0.41406 0.55592 0.4173 0.0
H485 H 0.45893 0.52933 0.44721 0.0
H486 H 0.44285 0.51876 0.38796 0.0
H487 H 0.43594 0.51696 0.46646 0.0
C488 C 0.39133 0.49532 0.38548 0.0
C489 C 0.3801 0.49125 0.43633 0.0
C490 C 0.40652 0.51163 0.38083 0.0
C491 C 0.41091 0.5242 0.42702 0.0
C492 C 0.39962 0.52041 0.47726 0.0
H493 H 0.51366 0.61419 0.47932 0.0
H494 H 0.48534 0.58763 0.48992 0.0
C495 C 0.38434 0.50403 0.48201 0.0
C496 C 0.42746 0.54117 0.42284 0.0
H497 H 0.47182 0.55896 0.41529 0.0
C498 C 0.42672 0.55665 0.41715 0.0
C499 C 0.44392 0.54203 0.42323 0.0
C500 C 0.44555 0.52592 0.4321 0.0
C501 C 0.44206 0.573 0.41073 0.0
C502 C 0.45849 0.57378 0.40919 0.0
C503 C 0.4592 0.55831 0.41585 0.0
C504 C 0.47524 0.59053 0.40304 0.0
C505 C 0.44059 0.58931 0.40667 0.0
C506 C 0.47901 0.60102 0.35047 0.0
C507 C 0.49529 0.61635 0.3442 0.0
C508 C 0.5081 0.62134 0.3902 0.0
C509 C 0.50418 0.61077 0.4428 0.0
C510 C 0.48795 0.59556 0.44907 0.0
H511 H 0.42768 0.58696 0.42343 0.0
H512 H 0.4511 0.60016 0.43362 0.0
H513 H 0.44201 0.59355 0.35811 0.0
H514 H 0.4695 0.59718 0.31382 0.0
H515 H 0.4979 0.62415 0.30305 0.0
H516 H 0.87465 0.37561 0.69136 0.0
H517 H 0.87265 0.40228 0.681 0.0
H518 H 0.89878 0.4128 0.50603 0.0
H519 H 0.90109 0.38654 0.51617 0.0
H520 H 0.91299 0.44138 0.58222 0.0
H521 H 0.84065 0.41146 0.56898 0.0
H522 H 0.84843 0.40501 0.63454 0.0
H523 H 0.85155 0.39888 0.55905 0.0
C524 C 0.8799 0.38357 0.65059 0.0
C525 C 0.88805 0.37892 0.60469 0.0
C526 C 0.87863 0.39873 0.64454 0.0
C527 C 0.88536 0.40938 0.59235 0.0
C528 C 0.89344 0.40473 0.54656 0.0
H529 H 0.87282 0.49674 0.47026 0.0
H530 H 0.87177 0.46848 0.47996 0.0
C531 C 0.89476 0.38969 0.55256 0.0
C532 C 0.88485 0.42586 0.5862 0.0
H533 H 0.85729 0.44252 0.57533 0.0
C534 C 0.90081 0.44162 0.58065 0.0
C535 C 0.86893 0.4261 0.58332 0.0
C536 C 0.85139 0.40946 0.58622 0.0
C537 C 0.90132 0.45766 0.57298 0.0
C538 C 0.88543 0.45798 0.5719 0.0
C539 C 0.86944 0.44221 0.57658 0.0
C540 C 0.88531 0.47467 0.56703 0.0
C541 C 0.91887 0.47411 0.56527 0.0
C542 C 0.89297 0.48731 0.61328 0.0
C543 C 0.89367 0.5034 0.60783 0.0
C544 C 0.88658 0.50719 0.55613 0.0
C545 C 0.87848 0.49429 0.51048 0.0
C546 C 0.87782 0.47814 0.516 0.0
H547 H 0.92921 0.47112 0.55113 0.0
H548 H 0.91813 0.48296 0.53064 0.0
H549 H 0.92288 0.48122 0.60961 0.0
H550 H 0.89854 0.48475 0.65353 0.0
H551 H 0.89985 0.51291 0.64423 0.0
H552 H 0.39238 0.91 0.78102 0.0
H553 H 0.41863 0.90758 0.79167 0.0
H554 H 0.39566 0.86191 0.67502 0.0
H555 H 0.36955 0.86472 0.66201 0.0
H556 H 0.42296 0.88273 0.84024 0.0
H557 H 0.44248 0.89002 0.59545 0.0
H558 H 0.42554 0.8941 0.62274 0.0
H559 H 0.42088 0.87201 0.60958 0.0
C560 C 0.39296 0.89951 0.75713 0.0
C561 C 0.37894 0.88761 0.72029 0.0
C562 C 0.40796 0.89812 0.76343 0.0
C563 C 0.40925 0.88469 0.73359 0.0
C564 C 0.39519 0.87265 0.69723 0.0
H565 H 0.49379 0.86387 0.83953 0.0
H566 H 0.4649 0.86125 0.82758 0.0
C567 C 0.38024 0.87422 0.69002 0.0
C568 C 0.42526 0.88332 0.74186 0.0
H569 H 0.45895 0.88334 0.66459 0.0
C570 C 0.43084 0.88286 0.80182 0.0
C571 C 0.43559 0.88361 0.69173 0.0
C572 C 0.43094 0.88513 0.62629 0.0
C573 C 0.44663 0.88309 0.81314 0.0
C574 C 0.45686 0.88316 0.763 0.0
C575 C 0.45106 0.88319 0.70302 0.0
C576 C 0.47422 0.88448 0.77125 0.0
C577 C 0.45253 0.88403 0.87868 0.0
C578 C 0.48898 0.89812 0.74246 0.0
C579 C 0.50534 0.89941 0.74812 0.0
C580 C 0.50738 0.88718 0.78328 0.0
C581 C 0.49265 0.8736 0.81277 0.0
C582 C 0.47616 0.87214 0.80618 0.0
H583 H 0.44574 0.88863 0.9101 0.0
H584 H 0.44942 0.87076 0.89389 0.0
H585 H 0.46688 0.89296 0.88314 0.0
H586 H 0.48785 0.90782 0.7154 0.0
H587 H 0.51644 0.91006 0.72496 0.0
H588 H 0.60982 0.51475 0.86573 0.0
H589 H 0.58349 0.48609 0.86372 0.0
H590 H 0.59978 0.47168 0.02949 0.0
H591 H 0.62657 0.50056 0.03181 0.0
H592 H 0.58709 0.44553 0.93288 0.0
H593 H 0.54154 0.47031 0.98141 0.0
H594 H 0.55641 0.48145 0.91939 0.0
H595 H 0.56481 0.48315 0.99571 0.0
C596 C 0.6079 0.50558 0.90203 0.0
C597 C 0.62032 0.51005 0.94922 0.0
C598 C 0.59276 0.48919 0.90081 0.0
C599 C 0.58959 0.47688 0.94684 0.0
C600 C 0.60199 0.48109 0.9937 0.0
H601 H 0.48729 0.38485 0.99509 0.0
H602 H 0.51549 0.41126 0.01028 0.0
C603 C 0.61723 0.49759 0.99505 0.0
C604 C 0.57325 0.45968 0.94526 0.0
H605 H 0.52876 0.4411 0.9436 0.0
C606 C 0.57431 0.44448 0.93583 0.0
C607 C 0.55664 0.45838 0.94964 0.0
C608 C 0.55471 0.47416 0.96268 0.0
C609 C 0.55911 0.42803 0.92883 0.0
C610 C 0.54251 0.42688 0.93045 0.0
C611 C 0.5415 0.44203 0.94165 0.0
C612 C 0.52592 0.4101 0.92175 0.0
C613 C 0.56095 0.41204 0.92023 0.0
C614 C 0.52237 0.40061 0.86674 0.0
C615 C 0.50616 0.38537 0.8578 0.0
C616 C 0.49318 0.37948 0.90353 0.0
C617 C 0.4969 0.389 0.95865 0.0
C618 C 0.51306 0.40412 0.96758 0.0
H619 H 0.57392 0.41437 0.93624 0.0
H620 H 0.55051 0.40061 0.94529 0.0
H621 H 0.55974 0.40868 0.87078 0.0
H622 H 0.53197 0.4052 0.83021 0.0
H623 H 0.50371 0.37839 0.81478 0.0
H624 H 0.07485 0.41506 0.88605 0.0
H625 H 0.04788 0.39781 0.82836 0.0
H626 H 0.01876 0.37984 -0.00277 0.0
H627 H 0.04573 0.39753 0.05579 0.0
H628 H 0.0229 0.36288 0.82377 0.0
H629 H 0.99459 0.40276 0.91028 0.0
H630 H 0.01724 0.40904 0.92196 0.0
H631 H 0.00043 0.39238 0.96913 0.0
C632 C 0.06274 0.4074 0.91119 0.0
C633 C 0.06241 0.40794 0.97567 0.0
C634 C 0.04734 0.39747 0.87799 0.0
C635 C 0.03127 0.38784 0.90843 0.0
C636 C 0.03098 0.38753 0.97283 0.0
H637 H 0.92474 0.33433 0.77337 0.0
H638 H 0.95114 0.34348 0.83384 0.0
C639 C 0.04641 0.39756 0.00622 0.0
C640 C 0.01483 0.37896 0.87235 0.0
H641 H 0.97677 0.37912 0.84525 0.0
C642 C 0.01277 0.36637 0.82855 0.0
C643 C 0.00173 0.38368 0.87829 0.0
C644 C 0.00361 0.39781 0.922 0.0
C645 C 0.99785 0.35826 0.79084 0.0
C646 C 0.98481 0.36302 0.79687 0.0
C647 C 0.9868 0.37547 0.84099 0.0
C648 C 0.96896 0.35546 0.75778 0.0
C649 C 0.99607 0.3446 0.74527 0.0
C650 C 0.97023 0.3589 0.69454 0.0
C651 C 0.95509 0.35369 0.65952 0.0
C652 C 0.93849 0.34512 0.68748 0.0
C653 C 0.93731 0.34107 0.75037 0.0
C654 C 0.95239 0.34624 0.78511 0.0
H655 H 0.00509 0.33957 0.75586 0.0
H656 H 0.98242 0.33341 0.74435 0.0
H657 H 0.99928 0.35049 0.69879 0.0
H658 H 0.98294 0.36624 0.6728 0.0
H659 H 0.95643 0.35702 0.61128 0.0
H660 H 0.58439 0.9253 0.95225 0.0
H661 H 0.60195 0.95263 0.00754 0.0
H662 H 0.6194 0.98052 0.83621 0.0
H663 H 0.60136 0.95316 0.77999 0.0
H664 H 0.63675 0.97736 0.01053 0.0
H665 H 0.59718 0.00564 0.92075 0.0
H666 H 0.59072 0.98289 0.91066 0.0
H667 H 0.60743 0.99938 0.86269 0.0
C668 C 0.592 0.9372 0.92603 0.0
C669 C 0.59121 0.93708 0.86155 0.0
C670 C 0.60211 0.95282 0.95787 0.0
C671 C 0.61169 0.96865 0.92607 0.0
C672 C 0.61175 0.96848 0.86166 0.0
H673 H 0.66573 0.07583 0.0553 0.0
H674 H 0.65642 0.04915 0.99626 0.0
C675 C 0.60152 0.95283 0.8296 0.0
C676 C 0.62076 0.98532 0.96087 0.0
H677 H 0.62084 0.02361 0.98539 0.0
C678 C 0.63334 0.98752 0.00491 0.0
C679 C 0.61614 0.99847 0.95388 0.0
C680 C 0.60202 0.99648 0.9099 0.0
C681 C 0.6415 0.00258 0.04188 0.0
C682 C 0.63683 0.01566 0.03485 0.0
C683 C 0.62442 0.01355 0.99044 0.0
C684 C 0.64446 0.03167 0.07315 0.0
C685 C 0.65513 0.00447 0.08781 0.0
C686 C 0.64109 0.03069 0.1364 0.0
C687 C 0.6464 0.04599 0.1706 0.0
C688 C 0.65501 0.06247 0.1418 0.0
C689 C 0.65897 0.06336 0.07892 0.0
C690 C 0.65371 0.04812 0.045 0.0
H691 H 0.66013 0.99539 0.07786 0.0
H692 H 0.66634 0.01811 0.08839 0.0
H693 H 0.6492 0.00141 0.13426 0.0
H694 H 0.63371 0.01808 0.15877 0.0
H695 H 0.64312 0.04488 0.21886 0.0
H696 H 0.60238 0.64899 0.3779 0.0
H697 H 0.62061 0.64072 0.31759 0.0
H698 H 0.60169 0.65177 0.15074 0.0
H699 H 0.58397 0.66049 0.21007 0.0
H700 H 0.60853 0.61392 0.23853 0.0
H701 H 0.65304 0.67481 0.11329 0.0
H702 H 0.64021 0.67457 0.17822 0.0
H703 H 0.63049 0.66866 0.10312 0.0
C704 C 0.60236 0.64995 0.32841 0.0
C705 C 0.59165 0.65533 0.29891 0.0
C706 C 0.61278 0.64523 0.29401 0.0
C707 C 0.61273 0.64588 0.22962 0.0
C708 C 0.60234 0.6516 0.20028 0.0
H709 H 0.63994 0.59767 0.93673 0.0
H710 H 0.63045 0.61495 -0.00266 0.0
C711 C 0.59203 0.65641 0.23447 0.0
C712 C 0.62206 0.6389 0.19285 0.0
H713 H 0.65024 0.64813 0.07253 0.0
C714 C 0.61783 0.62149 0.20285 0.0
C715 C 0.63411 0.64876 0.14591 0.0
C716 C 0.63986 0.66779 0.13489 0.0
C717 C 0.62493 0.61351 0.16622 0.0
C718 C 0.6367 0.62325 0.11863 0.0
C719 C 0.64112 0.64071 0.10887 0.0
C720 C 0.64451 0.61531 0.07912 0.0
C721 C 0.61945 0.59455 0.17772 0.0
C722 C 0.65607 0.61048 0.10446 0.0
C723 C 0.66144 0.60063 0.07028 0.0
C724 C 0.6554 0.59549 0.00989 0.0
C725 C 0.64478 0.6014 0.9831 0.0
C726 C 0.63934 0.61124 0.01763 0.0
H727 H 0.60764 0.58793 0.20738 0.0
H728 H 0.61667 0.58724 0.13384 0.0
H729 H 0.63028 0.59385 0.20097 0.0
H730 H 0.66038 0.61372 0.15157 0.0
H731 H 0.66984 0.59652 0.09206 0.0
H732 H 0.92353 0.58304 0.37723 0.0
H733 H 0.95042 0.60027 0.31918 0.0
H734 H 0.97963 0.61884 0.48765 0.0
H735 H 0.95273 0.60115 0.54664 0.0
H736 H 0.9751 0.63508 0.313 0.0
H737 H 0.00417 0.59617 0.40209 0.0
H738 H 0.98149 0.58973 0.41401 0.0
H739 H 0.99829 0.60666 0.46042 0.0
C740 C 0.93564 0.59082 0.40223 0.0
C741 C 0.93602 0.59045 0.46674 0.0
C742 C 0.951 0.60074 0.3688 0.0
C743 C 0.96707 0.61053 0.39902 0.0
C744 C 0.9674 0.61102 0.46342 0.0
H745 H 0.07361 0.66509 0.26533 0.0
H746 H 0.04697 0.6557 0.32469 0.0
C747 C 0.95201 0.60098 0.49706 0.0
C748 C 0.98348 0.61943 0.36273 0.0
H749 H 0.02184 0.61977 0.33657 0.0
C750 C 0.98536 0.63179 0.31822 0.0
C751 C 0.99675 0.61495 0.36917 0.0
C752 C 0.99507 0.60104 0.41355 0.0
C753 C 0.00025 0.63992 0.28042 0.0
C754 C 0.01349 0.63545 0.28713 0.0
C755 C 0.01166 0.6232 0.33182 0.0
C756 C 0.02942 0.64317 0.24841 0.0
C757 C 0.00183 0.65332 0.23407 0.0
C758 C 0.02837 0.63952 0.18537 0.0
C759 C 0.04365 0.64487 0.15097 0.0
C760 C 0.06017 0.6538 0.17941 0.0
C761 C 0.06111 0.65808 0.242 0.0
C762 C 0.0459 0.65277 0.27611 0.0
H763 H 0.99254 0.65808 0.24369 0.0
H764 H 0.01538 0.6647 0.23334 0.0
H765 H 0.99889 0.6473 0.18777 0.0
H766 H 0.01574 0.63189 0.16336 0.0
H767 H 0.0425 0.64136 0.10294 0.0
H768 H 0.39869 0.04506 0.27549 0.0
H769 H 0.3804 0.01808 0.33336 0.0
H770 H 0.39601 0.04741 0.50235 0.0
H771 H 0.41381 0.07429 0.44539 0.0
H772 H 0.39267 0.00412 0.41578 0.0
H773 H 0.34429 0.01703 0.53096 0.0
H774 H 0.35764 0.03019 0.46786 0.0
H775 H 0.36638 0.03413 0.54451 0.0
C776 C 0.39795 0.04579 0.32487 0.0
C777 C 0.4078 0.06183 0.35572 0.0
C778 C 0.3875 0.03038 0.35787 0.0
C779 C 0.38664 0.03075 0.42216 0.0
C780 C 0.39609 0.04682 0.45278 0.0
H781 H 0.35746 0.95534 0.71583 0.0
H782 H 0.36693 0.98189 0.6541 0.0
C783 C 0.40644 0.06219 0.41997 0.0
C784 C 0.37743 0.01424 0.45782 0.0
H785 H 0.34784 0.99376 0.57326 0.0
C786 C 0.38268 0.00175 0.44955 0.0
C787 C 0.36452 0.01125 0.50236 0.0
C788 C 0.35776 0.0238 0.51157 0.0
C789 C 0.37577 0.98659 0.48568 0.0
C790 C 0.36307 0.98372 0.53079 0.0
C791 C 0.35763 0.99607 0.53876 0.0
C792 C 0.35541 0.96788 0.56984 0.0
C793 C 0.38248 0.97398 0.47651 0.0
C794 C 0.34528 0.95131 0.54325 0.0
C795 C 0.33995 0.93621 0.57808 0.0
C796 C 0.34456 0.93738 0.6404 0.0
C797 C 0.35377 0.95401 0.66794 0.0
C798 C 0.35918 0.96917 0.63279 0.0
H799 H 0.3949 0.97998 0.44992 0.0
H800 H 0.38472 0.96943 0.52126 0.0
H801 H 0.37257 0.96235 0.45088 0.0
H802 H 0.34199 0.95006 0.49497 0.0
H803 H 0.33263 0.92361 0.55558 0.0
H804 H 0.41832 0.34268 0.71636 0.0
H805 H 0.40102 0.35232 0.65867 0.0
H806 H 0.38135 0.36145 0.82747 0.0
H807 H 0.39908 0.35222 0.88614 0.0
H808 H 0.3659 0.34135 0.65202 0.0
H809 H 0.40343 0.40909 0.74453 0.0
H810 H 0.41036 0.39318 0.7555 0.0
H811 H 0.39308 0.39236 0.80179 0.0
C812 C 0.41029 0.34668 0.7415 0.0
C813 C 0.41032 0.34697 0.80605 0.0
C814 C 0.40034 0.35212 0.70828 0.0
C815 C 0.39017 0.35793 0.73874 0.0
C816 C 0.38944 0.35739 0.80309 0.0
H817 H 0.33531 0.40958 0.60258 0.0
H818 H 0.34467 0.39253 0.6633 0.0
C819 C 0.3995 0.35203 0.83654 0.0
C820 C 0.38109 0.36529 0.70274 0.0
H821 H 0.38009 0.40301 0.67765 0.0
C822 C 0.36893 0.35481 0.65773 0.0
C823 C 0.3852 0.3829 0.70992 0.0
C824 C 0.39884 0.39512 0.75511 0.0
C825 C 0.3607 0.36146 0.61994 0.0
C826 C 0.36489 0.37907 0.6271 0.0
C827 C 0.37688 0.38947 0.67249 0.0
C828 C 0.35724 0.38724 0.58777 0.0
C829 C 0.34751 0.3496 0.57309 0.0
C830 C 0.36094 0.38964 0.52471 0.0
C831 C 0.35559 0.39944 0.48954 0.0
C832 C 0.34663 0.40711 0.51717 0.0
C833 C 0.34234 0.40401 0.57984 0.0
C834 C 0.34764 0.39423 0.61473 0.0
H835 H 0.34265 0.33555 0.58326 0.0
H836 H 0.33616 0.3518 0.571 0.0
H837 H 0.35379 0.35254 0.52721 0.0
H838 H 0.36859 0.38459 0.50324 0.0
H839 H 0.35912 0.40162 0.44148 0.0
H840 H 0.16353 0.45555 0.22607 0.0
H841 H 0.18896 0.45483 0.26768 0.0
H842 H 0.18606 0.42108 0.11926 0.0
H843 H 0.15992 0.42089 0.07994 0.0
H844 H 0.19194 0.4099 0.22403 0.0
H845 H 0.23808 0.48119 0.2047 0.0
H846 H 0.21943 0.47645 0.25115 0.0
H847 H 0.21651 0.4708 0.17099 0.0
C848 C 0.16815 0.44772 0.20312 0.0
C849 C 0.15964 0.43802 0.15051 0.0
C850 C 0.18286 0.44757 0.22622 0.0
C851 C 0.18962 0.43815 0.19598 0.0
C852 C 0.18112 0.42848 0.14326 0.0
H853 H 0.29346 0.45337 0.26591 0.0
H854 H 0.26757 0.45257 0.22148 0.0
C855 C 0.16626 0.42843 0.12071 0.0
C856 C 0.20536 0.43809 0.21982 0.0
H857 H 0.24786 0.46484 0.26314 0.0
C858 C 0.2042 0.42191 0.23224 0.0
C859 C 0.22146 0.45375 0.2295 0.0
C860 C 0.22403 0.47151 0.21277 0.0
C861 C 0.2186 0.42096 0.25496 0.0
C862 C 0.23443 0.43665 0.26755 0.0
C863 C 0.23567 0.45282 0.25422 0.0
C864 C 0.24995 0.43664 0.29382 0.0
C865 C 0.21678 0.40313 0.26385 0.0
C866 C 0.24873 0.42811 0.34952 0.0
C867 C 0.26342 0.4282 0.37407 0.0
C868 C 0.27964 0.43707 0.3439 0.0
C869 C 0.28098 0.44602 0.28913 0.0
C870 C 0.26625 0.44571 0.26411 0.0
H871 H 0.20621 0.39308 0.23458 0.0
H872 H 0.2292 0.40334 0.25308 0.0
H873 H 0.21329 0.39904 0.3123 0.0
H874 H 0.23645 0.42148 0.37429 0.0
H875 H 0.2621 0.42132 0.41663 0.0
H876 H 0.73398 0.14507 0.3405 0.0
H877 H 0.75983 0.17026 0.38615 0.0
H878 H 0.739 0.20375 0.3378 0.0
H879 H 0.71319 0.17858 0.29206 0.0
H880 H 0.78347 0.20497 0.31866 0.0
H881 H 0.75079 0.20956 0.53077 0.0
H882 H 0.74256 0.18947 0.48746 0.0
H883 H 0.73958 0.2069 0.45908 0.0
C884 C 0.73503 0.15785 0.3396 0.0
C885 C 0.72188 0.16009 0.31223 0.0
C886 C 0.74971 0.17216 0.36553 0.0
C887 C 0.75122 0.18877 0.36527 0.0
C888 C 0.73799 0.19098 0.33843 0.0
H889 H 0.8381 0.29238 0.43948 0.0
H890 H 0.81273 0.26639 0.39605 0.0
C891 C 0.72338 0.1767 0.31207 0.0
C892 C 0.76675 0.20388 0.39248 0.0
H893 H 0.78014 0.23187 0.51446 0.0
C894 C 0.7828 0.21087 0.36148 0.0
C895 C 0.76574 0.21136 0.44851 0.0
C896 C 0.7488 0.20394 0.48389 0.0
C897 C 0.7979 0.22544 0.38474 0.0
C898 C 0.79682 0.23313 0.44019 0.0
C899 C 0.78083 0.22594 0.47176 0.0
C900 C 0.81218 0.24872 0.466 0.0
C901 C 0.81495 0.23248 0.35023 0.0
C902 C 0.82004 0.24734 0.51996 0.0
C903 C 0.83462 0.26208 0.54428 0.0
C904 C 0.84145 0.27841 0.51514 0.0
C905 C 0.83333 0.27983 0.46181 0.0
C906 C 0.81884 0.26506 0.43722 0.0
H907 H 0.81429 0.22327 0.31414 0.0
H908 H 0.8181 0.24505 0.32797 0.0
H909 H 0.82582 0.23515 0.38216 0.0
H910 H 0.81498 0.23482 0.54287 0.0
H911 H 0.84065 0.26072 0.5856 0.0
H912 H 0.53403 0.81985 0.72215 0.0
H913 H 0.53489 0.79475 0.67743 0.0
H914 H 0.58522 0.82988 0.5967 0.0
H915 H 0.58468 0.85491 0.64364 0.0
H916 H 0.53676 0.78694 0.55795 0.0
H917 H 0.59506 0.79517 0.68431 0.0
H918 H 0.58371 0.80667 0.70546 0.0
H919 H 0.59895 0.81433 0.64255 0.0
C920 C 0.54541 0.82212 0.69593 0.0
C921 C 0.55953 0.83917 0.68771 0.0
C922 C 0.54583 0.80784 0.66994 0.0
C923 C 0.56031 0.81042 0.63495 0.0
C924 C 0.57415 0.82755 0.62499 0.0
H925 H 0.58278 0.74008 0.42494 0.0
H926 H 0.58253 0.76573 0.46828 0.0
C927 C 0.57379 0.84181 0.65134 0.0
C928 C 0.56072 0.79521 0.60792 0.0
H929 H 0.58437 0.77412 0.60401 0.0
C930 C 0.54712 0.78409 0.56823 0.0
C931 C 0.57426 0.79152 0.6215 0.0
C932 C 0.58874 0.80244 0.66623 0.0
C933 C 0.54681 0.76949 0.54118 0.0
C934 C 0.56039 0.76591 0.55448 0.0
C935 C 0.57403 0.77701 0.59388 0.0
C936 C 0.56053 0.75051 0.52847 0.0
C937 C 0.5321 0.75808 0.49801 0.0
C938 C 0.54831 0.73358 0.54844 0.0
C939 C 0.54854 0.71902 0.52415 0.0
C940 C 0.56101 0.72125 0.47979 0.0
C941 C 0.57315 0.73817 0.45952 0.0
C942 C 0.57301 0.75274 0.48413 0.0
H943 H 0.52434 0.76431 0.48424 0.0
H944 H 0.53735 0.75514 0.45616 0.0
H945 H 0.52317 0.74545 0.52089 0.0
H946 H 0.53865 0.73166 0.58287 0.0
H947 H 0.5389 0.70603 0.53958 0.0
H948 H 0.7383 0.58476 0.88629 0.0
H949 H 0.76399 0.58458 0.84346 0.0
H950 H 0.72992 0.53564 0.7522 0.0
H951 H 0.70427 0.53598 0.79438 0.0
H952 H 0.77473 0.5605 0.8577 0.0
H953 H 0.76101 0.56556 0.61267 0.0
H954 H 0.7498 0.56962 0.67415 0.0
H955 H 0.7432 0.54753 0.65171 0.0
C956 C 0.73639 0.57408 0.85664 0.0
C957 C 0.71945 0.56059 0.84223 0.0
C958 C 0.751 0.57395 0.83237 0.0
C959 C 0.74885 0.56029 0.7936 0.0
C960 C 0.73187 0.54656 0.78055 0.0
H961 H 0.81979 0.53286 0.61588 0.0
H962 H 0.79436 0.5332 0.66026 0.0
C963 C 0.71726 0.54674 0.80461 0.0
C964 C 0.76438 0.56022 0.76801 0.0
H965 H 0.78381 0.55931 0.6337 0.0
C966 C 0.77678 0.56034 0.80873 0.0
C967 C 0.76702 0.56005 0.70408 0.0
C968 C 0.75465 0.56085 0.65806 0.0
C969 C 0.79159 0.55996 0.78721 0.0
C970 C 0.7941 0.55959 0.72339 0.0
C971 C 0.78175 0.55951 0.68265 0.0
C972 C 0.8095 0.55933 0.69784 0.0
C973 C 0.80431 0.55965 0.83276 0.0
C974 C 0.82634 0.57393 0.70428 0.0
C975 C 0.84079 0.57383 0.67833 0.0
C976 C 0.83855 0.55918 0.64525 0.0
C977 C 0.82173 0.54447 0.63978 0.0
C978 C 0.80727 0.54461 0.66542 0.0
H979 H 0.79872 0.55641 0.87975 0.0
H980 H 0.80822 0.54995 0.81885 0.0
H981 H 0.81632 0.57275 0.83414 0.0
H982 H 0.82827 0.58547 0.72867 0.0
H983 H 0.85369 0.58527 0.68332 0.0
H984 H 0.29211 0.83686 0.88808 0.0
H985 H 0.26625 0.81143 0.93115 0.0
H986 H 0.23504 0.81238 0.78034 0.0
H987 H 0.26069 0.83851 0.73936 0.0
H988 H 0.21802 0.80723 0.88518 0.0
H989 H 0.2442 0.76179 0.87348 0.0
H990 H 0.25791 0.78095 0.91803 0.0
H991 H 0.25504 0.78304 0.83735 0.0
C992 C 0.27965 0.83177 0.86475 0.0
C993 C 0.27829 0.83972 0.8109 0.0
C994 C 0.26496 0.81708 0.88877 0.0
C995 C 0.24876 0.80979 0.85839 0.0
C996 C 0.24742 0.81773 0.80444 0.0
H997 H 0.16089 0.70609 0.93393 0.0
H998 H 0.18607 0.73185 0.88927 0.0
C999 C 0.26206 0.83257 0.78091 0.0
C1000 C 0.23313 0.79413 0.88345 0.0
H1001 H 0.21798 0.7521 0.93138 0.0
C1002 C 0.21797 0.79513 0.89496 0.0
C1003 C 0.23298 0.77826 0.89527 0.0
C1004 C 0.24834 0.77585 0.87978 0.0
C1005 C 0.20275 0.78079 0.91871 0.0
C1006 C 0.20288 0.7652 0.93325 0.0
C1007 C 0.21796 0.76413 0.92096 0.0
C1008 C 0.18743 0.74972 0.96011 0.0
C1009 C 0.18659 0.7824 0.92655 0.0
C1010 C 0.17995 0.75112 0.01516 0.0
C1011 C 0.16532 0.73649 0.03985 0.0
C1012 C 0.15809 0.72018 0.0104 0.0
C1013 C 0.16592 0.71865 0.9565 0.0
C1014 C 0.1804 0.73331 0.93135 0.0
H1015 H 0.18697 0.79275 0.89637 0.0
H1016 H 0.17449 0.76984 0.91622 0.0
H1017 H 0.18587 0.78608 0.97465 0.0
H1018 H 0.18547 0.76351 0.03921 0.0
H1019 H 0.15959 0.73795 0.08179 0.0
H1020 H 0.4142 0.1444 0.13821 0.0
H1021 H 0.41424 0.16993 0.09268 0.0
H1022 H 0.4657 0.20379 0.16757 0.0
H1023 H 0.46583 0.17827 0.21202 0.0
H1024 H 0.43876 0.21383 0.19056 0.0
H1025 H 0.44561 0.20059 0.9456 0.0
H1026 H 0.42893 0.18262 0.98905 0.0
H1027 H 0.45158 0.19109 0.00785 0.0
C1028 C 0.42551 0.15731 0.14462 0.0
C1029 C 0.43986 0.15952 0.1795 0.0
C1030 C 0.42554 0.17182 0.11861 0.0
C1031 C 0.43998 0.18868 0.1269 0.0
C1032 C 0.45441 0.19087 0.16107 0.0
H1033 H 0.46698 0.28724 0.95312 0.0
H1034 H 0.46657 0.26128 0.99588 0.0
C1035 C 0.45442 0.17635 0.18671 0.0
C1036 C 0.4399 0.20414 0.1011 0.0
H1037 H 0.44123 0.22448 0.96648 0.0
C1038 C 0.43929 0.21619 0.1416 0.0
C1039 C 0.44071 0.20715 0.03727 0.0
C1040 C 0.44187 0.19479 0.99217 0.0
C1041 C 0.43932 0.23118 0.11979 0.0
C1042 C 0.43991 0.23408 0.05592 0.0
C1043 C 0.44068 0.22211 0.01543 0.0
C1044 C 0.44004 0.24966 0.03025 0.0
C1045 C 0.43898 0.24395 0.16509 0.0
C1046 C 0.42524 0.25162 0.03542 0.0
C1047 C 0.42539 0.26629 0.01042 0.0
C1048 C 0.4403 0.2791 0.97958 0.0
C1049 C 0.45518 0.27725 0.97522 0.0
C1050 C 0.455 0.26254 -9e-05 0.0
H1051 H 0.44196 0.24158 0.21244 0.0
H1052 H 0.44857 0.25764 0.15188 0.0
H1053 H 0.42575 0.24257 0.16512 0.0
H1054 H 0.41354 0.24173 0.05833 0.0
H1055 H 0.41382 0.26756 0.01456 0.0
H1056 H 0.0574 0.41533 0.3907 0.0
H1057 H 0.06314 0.40937 0.49541 0.0
H1058 H 0.10797 0.40664 0.43052 0.0
H1059 H 0.10174 0.41164 0.32626 0.0
H1060 H 0.09451 0.38674 0.53132 0.0
H1061 H 0.10337 0.45307 0.56718 0.0
H1062 H 0.08136 0.43704 0.54683 0.0
H1063 H 0.09891 0.44283 0.49291 0.0
C1064 C 0.06793 0.41257 0.39866 0.0
C1065 C 0.0791 0.41387 0.35069 0.0
C1066 C 0.07132 0.40937 0.45836 0.0
C1067 C 0.08634 0.4082 0.47081 0.0
C1068 C 0.09637 0.40761 0.42198 0.0
H1069 H 0.14287 0.45239 0.80704 0.0
H1070 H 0.13646 0.4451 0.69835 0.0
C1071 C 0.09274 0.41038 0.36221 0.0
C1072 C 0.09332 0.41057 0.53388 0.0
H1073 H 0.10743 0.43941 0.65301 0.0
C1074 C 0.09734 0.39824 0.55812 0.0
C1075 C 0.09763 0.42592 0.56771 0.0
C1076 C 0.09528 0.44056 0.54216 0.0
C1077 C 0.10526 0.4007 0.61593 0.0
C1078 C 0.10873 0.41563 0.65093 0.0
C1079 C 0.10483 0.42798 0.62623 0.0
C1080 C 0.11549 0.41851 0.71454 0.0
C1081 C 0.11017 0.3875 0.63802 0.0
C1082 C 0.10642 0.40576 0.75952 0.0
C1083 C 0.11041 0.40977 0.82131 0.0
C1084 C 0.12315 0.42677 0.83929 0.0
C1085 C 0.13296 0.43922 0.7943 0.0
C1086 C 0.12926 0.43506 0.73232 0.0
H1087 H 0.11287 0.38112 0.59889 0.0
H1088 H 0.12189 0.39365 0.66813 0.0
H1089 H 0.09905 0.37708 0.66424 0.0
H1090 H 0.09544 0.3931 0.74737 0.0
H1091 H 0.10249 0.39994 0.85502 0.0
H1092 H 0.7153 0.11511 0.01599 0.0
H1093 H 0.71891 0.10973 0.90863 0.0
H1094 H 0.68326 0.1275 0.85512 0.0
H1095 H 0.67966 0.13306 0.9622 0.0
H1096 H 0.69115 0.08533 0.84198 0.0
H1097 H 0.72104 0.14932 0.7241 0.0
H1098 H 0.72213 0.14741 0.80625 0.0
H1099 H 0.70297 0.14604 0.77126 0.0
C1100 C 0.70859 0.11835 0.98126 0.0
C1101 C 0.69704 0.12435 -0.00238 0.0
C1102 C 0.71068 0.11524 0.91995 0.0
C1103 C 0.70143 0.11829 0.87397 0.0
C1104 C 0.69078 0.12537 0.88981 0.0
H1105 H 0.6437 0.06863 0.56898 0.0
H1106 H 0.65806 0.07489 0.66874 0.0
C1107 C 0.68867 0.12846 0.95112 0.0
C1108 C 0.70083 0.11185 0.81094 0.0
H1109 H 0.7026 0.12379 0.6616 0.0
C1110 C 0.69407 0.0938 0.80238 0.0
C1111 C 0.70495 0.12291 0.7594 0.0
C1112 C 0.71336 0.14253 0.7657 0.0
C1113 C 0.68992 0.08633 0.7437 0.0
C1114 C 0.69237 0.09718 0.69268 0.0
C1115 C 0.70054 0.11542 0.70083 0.0
C1116 C 0.68438 0.08992 0.63233 0.0
C1117 C 0.68235 0.06681 0.73722 0.0
C1118 C 0.69441 0.09595 0.57859 0.0
C1119 C 0.68618 0.09245 0.52146 0.0
C1120 C 0.66779 0.08289 0.51735 0.0
C1121 C 0.65789 0.07583 0.57086 0.0
C1122 C 0.66611 0.07933 0.62788 0.0
H1123 H 0.68736 0.06167 0.77373 0.0
H1124 H 0.66789 0.06018 0.74211 0.0
H1125 H 0.68548 0.06336 0.69184 0.0
H1126 H 0.7085 0.10432 0.58111 0.0
H1127 H 0.69417 0.09851 0.4814 0.0
H1128 H 0.58593 0.64272 0.71382 0.0
H1129 H 0.59168 0.65396 0.81919 0.0
H1130 H 0.59182 0.70064 0.75852 0.0
H1131 H 0.58688 0.68984 0.65382 0.0
H1132 H 0.61264 0.70761 0.85711 0.0
H1133 H 0.54766 0.6484 0.89622 0.0
H1134 H 0.56432 0.6435 0.87366 0.0
H1135 H 0.55736 0.6546 0.82121 0.0
C1136 C 0.58803 0.65573 0.72284 0.0
C1137 C 0.58608 0.66548 0.67585 0.0
C1138 C 0.59112 0.66206 0.78292 0.0
C1139 C 0.5916 0.67787 0.79677 0.0
C1140 C 0.59143 0.68838 0.7489 0.0
H1141 H 0.54688 0.68968 0.13196 0.0
H1142 H 0.5543 0.68994 0.02369 0.0
C1143 C 0.58871 0.68223 0.68881 0.0
C1144 C 0.58938 0.68216 0.86047 0.0
H1145 H 0.56098 0.66671 0.98087 0.0
C1146 C 0.60139 0.69869 0.8844 0.0
C1147 C 0.57435 0.67071 0.89504 0.0
C1148 C 0.56009 0.6534 0.87011 0.0
C1149 C 0.59884 0.70401 0.94233 0.0
C1150 C 0.58415 0.69226 0.97774 0.0
C1151 C 0.5722 0.67576 0.95365 0.0
C1152 C 0.58104 0.69621 0.04094 0.0
C1153 C 0.61163 0.7223 0.96406 0.0
C1154 C 0.59381 0.70042 0.08626 0.0
C1155 C 0.58972 0.70073 0.14777 0.0
C1156 C 0.57263 0.69631 0.16519 0.0
C1157 C 0.56013 0.69309 0.11971 0.0
C1158 C 0.56436 0.6932 0.05798 0.0
H1159 H 0.61794 0.73134 0.9248 0.0
H1160 H 0.60514 0.72767 0.99346 0.0
H1161 H 0.62215 0.722 0.99102 0.0
H1162 H 0.6066 0.70231 0.07466 0.0
H1163 H 0.59961 0.70308 0.18184 0.0
H1164 H 0.89405 0.58272 0.82613 0.0
H1165 H 0.8903 0.58954 0.93073 0.0
H1166 H 0.9415 0.59767 0.97699 0.0
H1167 H 0.94478 0.58981 0.87194 0.0
H1168 H 0.91927 0.57469 0.04666 0.0
H1169 H 0.90375 0.6278 0.04881 0.0
H1170 H 0.88975 0.61178 0.99405 0.0
H1171 H 0.91318 0.62345 0.98234 0.0
C1172 C 0.90485 0.58679 0.85779 0.0
C1173 C 0.91981 0.58602 0.84106 0.0
C1174 C 0.90273 0.59078 0.91781 0.0
C1175 C 0.9157 0.59438 0.96191 0.0
C1176 C 0.93134 0.59502 0.94374 0.0
H1177 H 0.89308 0.59959 0.34846 0.0
H1178 H 0.90297 0.60796 0.24321 0.0
C1179 C 0.93327 0.59061 0.88385 0.0
C1180 C 0.91134 0.59378 0.02781 0.0
H1181 H 0.88964 0.60556 0.12975 0.0
C1182 C 0.91317 0.5818 0.06502 0.0
C1183 C 0.90352 0.60311 0.05249 0.0
C1184 C 0.90265 0.61739 0.01729 0.0
C1185 C 0.90658 0.57818 0.12478 0.0
C1186 C 0.89719 0.58617 0.14709 0.0
C1187 C 0.89628 0.59897 0.1116 0.0
C1188 C 0.88861 0.58152 0.20778 0.0
C1189 C 0.90975 0.56578 0.16327 0.0
C1190 C 0.87641 0.564 0.22189 0.0
C1191 C 0.8709 0.5591 0.28227 0.0
C1192 C 0.87728 0.57172 0.32905 0.0
C1193 C 0.88802 0.5895 0.31354 0.0
C1194 C 0.89373 0.59435 0.25336 0.0
H1195 H 0.92137 0.56516 0.14699 0.0
H1196 H 0.91177 0.56978 0.21221 0.0
H1197 H 0.89821 0.55239 0.15993 0.0
H1198 H 0.8719 0.55399 0.18675 0.0
H1199 H 0.86244 0.54534 0.29274 0.0
H1200 H 0.28558 0.88608 0.51463 0.0
H1201 H 0.283 0.89236 0.40734 0.0
H1202 H 0.31694 0.87242 0.35466 0.0
H1203 H 0.31954 0.866 0.46164 0.0
H1204 H 0.31202 0.91622 0.34227 0.0
H1205 H 0.27928 0.8525 0.22202 0.0
H1206 H 0.27795 0.85434 0.3041 0.0
H1207 H 0.29673 0.85462 0.27025 0.0
C1208 C 0.29211 0.88256 0.48007 0.0
C1209 C 0.30291 0.87568 0.49669 0.0
C1210 C 0.29062 0.8862 0.4188 0.0
C1211 C 0.29971 0.8828 0.37312 0.0
C1212 C 0.30957 0.87487 0.38912 0.0
H1213 H 0.35897 0.93074 0.0679 0.0
H1214 H 0.34486 0.92518 0.1681 0.0
C1215 C 0.31111 0.87128 0.45038 0.0
C1216 C 0.30093 0.8896 0.31031 0.0
H1217 H 0.29867 0.8778 0.16056 0.0
C1218 C 0.3087 0.9078 0.30237 0.0
C1219 C 0.29634 0.8786 0.2584 0.0
C1220 C 0.28694 0.85891 0.26407 0.0
C1221 C 0.31331 0.91539 0.24394 0.0
C1222 C 0.31026 0.90448 0.19251 0.0
C1223 C 0.30117 0.8862 0.20008 0.0
C1224 C 0.31839 0.91159 0.13219 0.0
C1225 C 0.32197 0.93503 0.2381 0.0
C1226 C 0.30823 0.90618 0.07862 0.0
C1227 C 0.31632 0.9093 0.02129 0.0
C1228 C 0.33468 0.9179 0.0168 0.0
C1229 C 0.34481 0.92437 0.07015 0.0
C1230 C 0.33673 0.92125 0.1274 0.0
H1231 H 0.31758 0.94062 0.27512 0.0
H1232 H 0.33637 0.94085 0.24254 0.0
H1233 H 0.31912 0.93892 0.19305 0.0
H1234 H 0.29407 0.8985 0.0814 0.0
H1235 H 0.30815 0.90361 0.98128 0.0
H1236 H 0.45564 0.31915 0.63131 0.0
H1237 H 0.44666 0.31904 0.5251 0.0
H1238 H 0.39258 0.29432 0.58198 0.0
H1239 H 0.40131 0.29369 0.68741 0.0
H1240 H 0.39541 0.28336 0.46922 0.0
H1241 H 0.43339 0.35571 0.48341 0.0
H1242 H 0.44693 0.34618 0.49665 0.0
H1243 H 0.42944 0.34185 0.54921 0.0
C1244 C 0.44181 0.31327 0.62091 0.0
C1245 C 0.42923 0.30677 0.66782 0.0
C1246 C 0.43671 0.31334 0.56039 0.0
C1247 C 0.41902 0.30723 0.54628 0.0
C1248 C 0.40631 0.29928 0.59209 0.0
H1249 H 0.40771 0.35283 0.21056 0.0
H1250 H 0.40011 0.34155 0.31548 0.0
C1251 C 0.41136 0.29896 0.65239 0.0
C1252 C 0.41401 0.31062 0.48539 0.0
H1253 H 0.42383 0.34354 0.38385 0.0
C1254 C 0.40147 0.29652 0.45055 0.0
C1255 C 0.42129 0.32787 0.46241 0.0
C1256 C 0.43334 0.34378 0.50017 0.0
C1257 C 0.39688 0.29914 0.39149 0.0
C1258 C 0.4055 0.31622 0.36618 0.0
C1259 C 0.41725 0.33039 0.4027 0.0
C1260 C 0.40444 0.31969 0.30029 0.0
C1261 C 0.38289 0.28357 0.35707 0.0
C1262 C 0.40842 0.31062 0.25607 0.0
C1263 C 0.41222 0.31676 0.19605 0.0
C1264 C 0.41245 0.33225 0.17955 0.0
C1265 C 0.40735 0.3407 0.22234 0.0
C1266 C 0.4031 0.3343 0.28217 0.0
H1267 H 0.37279 0.27409 0.38911 0.0
H1268 H 0.37635 0.28751 0.32221 0.0
H1269 H 0.38891 0.27666 0.33381 0.0
H1270 H 0.41017 0.29973 0.26892 0.0
H1271 H 0.41665 0.31036 0.16429 0.0
H1272 H 0.59914 0.88444 0.98846 0.0
H1273 H 0.60782 0.88955 0.09614 0.0
H1274 H 0.55417 0.87126 0.14809 0.0
H1275 H 0.54534 0.86595 0.04073 0.0
H1276 H 0.60412 0.91368 0.16248 0.0
H1277 H 0.56997 0.84963 0.27984 0.0
H1278 H 0.5731 0.85158 0.19774 0.0
H1279 H 0.55519 0.85282 0.23235 0.0
C1280 C 0.58909 0.88103 0.02291 0.0
C1281 C 0.57156 0.87497 0.00607 0.0
C1282 C 0.5941 0.88397 0.0844 0.0
C1283 C 0.58164 0.88072 0.13004 0.0
C1284 C 0.56395 0.87354 0.11368 0.0
H1285 H 0.57284 0.93035 0.43467 0.0
H1286 H 0.58086 0.92392 0.33501 0.0
C1287 C 0.55892 0.8706 0.0522 0.0
C1288 C 0.58728 0.88712 0.19321 0.0
H1289 H 0.57667 0.8751 0.34228 0.0
C1290 C 0.59849 0.90519 0.20196 0.0
C1291 C 0.58021 0.87603 0.24461 0.0
C1292 C 0.5691 0.85641 0.23817 0.0
C1293 C 0.60159 0.91263 0.26064 0.0
C1294 C 0.59306 0.90173 0.31146 0.0
C1295 C 0.58308 0.8835 0.30318 0.0
C1296 C 0.59218 0.90895 0.37171 0.0
C1297 C 0.61345 0.93215 0.26733 0.0
C1298 C 0.59618 0.90297 0.42553 0.0
C1299 C 0.59148 0.90654 0.48257 0.0
C1300 C 0.58268 0.91614 0.48658 0.0
C1301 C 0.57978 0.9231 0.43292 0.0
C1302 C 0.58447 0.91952 0.37596 0.0
H1303 H 0.62368 0.93736 0.23105 0.0
H1304 H 0.60558 0.93873 0.26227 0.0
H1305 H 0.61995 0.93559 0.31286 0.0
H1306 H 0.60193 0.89462 0.42314 0.0
H1307 H 0.59347 0.90055 0.52267 0.0
H1308 H 0.68606 0.5521 0.19255 0.0
H1309 H 0.68902 0.56135 0.29952 0.0
H1310 H 0.71522 0.61548 0.24319 0.0
H1311 H 0.71237 0.60641 0.13588 0.0
H1312 H 0.71936 0.58755 0.37708 0.0
H1313 H 0.66737 0.60443 0.32722 0.0
H1314 H 0.67127 0.59061 0.27617 0.0
H1315 H 0.6868 0.6136 0.28041 0.0
C1316 C 0.69285 0.56598 0.2029 0.0
C1317 C 0.69873 0.5785 0.15578 0.0
C1318 C 0.69456 0.57124 0.26399 0.0
C1319 C 0.70211 0.58906 0.27881 0.0
C1320 C 0.70923 0.60167 0.23234 0.0
H1321 H 0.66929 0.60289 0.64805 0.0
H1322 H 0.68576 0.6136 0.5513 0.0
C1323 C 0.70762 0.59643 0.17115 0.0
C1324 C 0.70041 0.59394 0.34198 0.0
H1325 H 0.67243 0.60082 0.43007 0.0
C1326 C 0.70949 0.59098 0.38883 0.0
C1327 C 0.68765 0.59862 0.35689 0.0
C1328 C 0.67762 0.60199 0.30781 0.0
C1329 C 0.70508 0.59113 0.45041 0.0
C1330 C 0.69102 0.59392 0.46492 0.0
C1331 C 0.68316 0.59862 0.41855 0.0
C1332 C 0.68193 0.58828 0.52442 0.0
C1333 C 0.71471 0.58716 0.49922 0.0
C1334 C 0.67397 0.57051 0.5399 0.0
C1335 C 0.66457 0.56442 0.59407 0.0
C1336 C 0.6629 0.57597 0.63413 0.0
C1337 C 0.6706 0.59378 0.61828 0.0
C1338 C 0.67999 0.59989 0.56333 0.0
H1339 H 0.72839 0.59154 0.48486 0.0
H1340 H 0.71495 0.59358 0.54332 0.0
H1341 H 0.70799 0.57279 0.50674 0.0
H1342 H 0.67492 0.56126 0.50963 0.0
H1343 H 0.65887 0.55064 0.60507 0.0
H1344 H 0.11013 0.71229 0.30638 0.0
H1345 H 0.10359 0.71469 0.41356 0.0
H1346 H 0.12533 0.68238 0.4671 0.0
H1347 H 0.13199 0.67994 0.36022 0.0
H1348 H 0.08043 0.6852 0.47894 0.0
H1349 H 0.14405 0.72036 0.59915 0.0
H1350 H 0.14208 0.72155 0.51706 0.0
H1351 H 0.14273 0.70325 0.55094 0.0
C1352 C 0.11399 0.7061 0.34109 0.0
C1353 C 0.12144 0.69578 0.32476 0.0
C1354 C 0.1102 0.70747 0.4023 0.0
C1355 C 0.11404 0.69878 0.44818 0.0
C1356 C 0.12253 0.68944 0.43246 0.0
H1357 H 0.06798 0.6388 0.75295 0.0
H1358 H 0.07297 0.65287 0.65288 0.0
C1359 C 0.12626 0.68799 0.37127 0.0
C1360 C 0.10713 0.69737 0.51093 0.0
H1361 H 0.1191 0.70029 0.6607 0.0
C1362 C 0.08888 0.68889 0.51885 0.0
C1363 C 0.11816 0.70245 0.56283 0.0
C1364 C 0.13786 0.71258 0.55712 0.0
C1365 C 0.08133 0.68406 0.57729 0.0
C1366 C 0.09235 0.68762 0.62873 0.0
C1367 C 0.11062 0.6974 0.62117 0.0
C1368 C 0.08548 0.67931 0.68901 0.0
C1369 C 0.06165 0.67462 0.58312 0.0
C1370 C 0.09048 0.68944 0.74266 0.0
C1371 C 0.08768 0.68139 0.79992 0.0
C1372 C 0.07984 0.66307 0.80424 0.0
C1373 C 0.07377 0.65291 0.75082 0.0
C1374 C 0.07655 0.66096 0.69365 0.0
H1375 H 0.0557 0.67861 0.54612 0.0
H1376 H 0.05643 0.6603 0.57862 0.0
H1377 H 0.05751 0.67718 0.62818 0.0
H1378 H 0.0976 0.70362 0.73999 0.0
H1379 H 0.09306 0.6896 0.84003 0.0
H1380 H 0.45368 0.13101 0.53269 0.0
H1381 H 0.44445 0.12455 0.63948 0.0
H1382 H 0.39156 0.10972 0.58788 0.0
H1383 H 0.40061 0.11588 0.48056 0.0
H1384 H 0.42729 0.13486 0.724 0.0
H1385 H 0.387 0.06443 0.65942 0.0
H1386 H 0.40271 0.08063 0.60769 0.0
H1387 H 0.38211 0.07956 0.6213 0.0
C1388 C 0.44018 0.12677 0.54411 0.0
C1389 C 0.4278 0.12363 0.4981 0.0
C1390 C 0.43491 0.12307 0.60517 0.0
C1391 C 0.41725 0.11626 0.62112 0.0
C1392 C 0.40517 0.1146 0.57613 0.0
H1393 H 0.40351 0.09548 0.01559 0.0
H1394 H 0.39511 0.10129 0.91579 0.0
C1395 C 0.41041 0.11823 0.51495 0.0
C1396 C 0.41146 0.10942 0.68371 0.0
H1397 H 0.39053 0.07111 0.76409 0.0
C1398 C 0.41895 0.12098 0.73309 0.0
C1399 C 0.40066 0.09125 0.69486 0.0
C1400 C 0.39271 0.07817 0.64321 0.0
C1401 C 0.41686 0.11478 0.79339 0.0
C1402 C 0.40661 0.09652 0.80444 0.0
C1403 C 0.39822 0.08507 0.75533 0.0
C1404 C 0.40705 0.08898 0.86447 0.0
C1405 C 0.42675 0.1277 0.844 0.0
C1406 C 0.41522 0.07884 0.86866 0.0
C1407 C 0.41963 0.07507 0.92572 0.0
C1408 C 0.41593 0.08136 0.97949 0.0
C1409 C 0.40626 0.09009 0.97539 0.0
C1410 C 0.40169 0.09371 0.91817 0.0
H1411 H 0.4363 0.14088 0.82596 0.0
H1412 H 0.41734 0.12912 0.87385 0.0
H1413 H 0.43395 0.12298 0.87272 0.0
H1414 H 0.4194 0.07499 0.82769 0.0
H1415 H 0.42707 0.06832 0.92755 0.0
H1416 H 0.32185 0.45255 0.69462 0.0
H1417 H 0.32045 0.44328 0.80087 0.0
H1418 H 0.28561 0.38957 0.74855 0.0
H1419 H 0.28704 0.39866 0.64182 0.0
H1420 H 0.29305 0.42355 0.88617 0.0
H1421 H 0.32967 0.38986 0.8168 0.0
H1422 H 0.32749 0.40498 0.76684 0.0
H1423 H 0.30922 0.38336 0.77864 0.0
C1424 C 0.31356 0.43881 0.7058 0.0
C1425 C 0.30481 0.42631 0.65964 0.0
C1426 C 0.31278 0.43354 0.76654 0.0
C1427 C 0.30325 0.41571 0.78207 0.0
C1428 C 0.29331 0.40335 0.73709 0.0
H1429 H 0.31216 0.40146 0.17519 0.0
H1430 H 0.29839 0.39215 0.07459 0.0
C1431 C 0.29407 0.40861 0.67624 0.0
C1432 C 0.30516 0.4102 0.84414 0.0
H1433 H 0.32618 0.39246 0.92201 0.0
C1434 C 0.29994 0.41641 0.89432 0.0
C1435 C 0.31428 0.40099 0.85406 0.0
C1436 C 0.32063 0.39447 0.80144 0.0
C1437 C 0.3045 0.41459 0.9543 0.0
C1438 C 0.31423 0.40598 0.96416 0.0
C1439 C 0.31856 0.39887 0.91417 0.0
C1440 C 0.32256 0.40704 0.02405 0.0
C1441 C 0.29999 0.42307 0.00598 0.0
C1442 C 0.34085 0.41729 0.02876 0.0
C1443 C 0.3488 0.42228 0.08611 0.0
C1444 C 0.33859 0.41705 0.13958 0.0
C1445 C 0.32046 0.40537 0.13495 0.0
C1446 C 0.31251 0.40027 0.07741 0.0
H1447 H 0.29483 0.4315 0.98903 0.0
H1448 H 0.28983 0.41275 0.03552 0.0
H1449 H 0.31171 0.4312 0.03474 0.0
H1450 H 0.34886 0.42261 0.98808 0.0
H1451 H 0.36278 0.43136 0.08852 0.0
H1452 H 0.93086 0.3607 0.25888 0.0
H1453 H 0.9254 0.34669 0.15853 0.0
H1454 H 0.90408 0.29611 0.24529 0.0
H1455 H 0.90882 0.30999 0.34579 0.0
H1456 H 0.93209 0.32348 0.09277 0.0
H1457 H 0.86179 0.29368 0.1592 0.0
H1458 H 0.87916 0.31029 0.20508 0.0
H1459 H 0.87517 0.2882 0.20576 0.0
C1460 C 0.9256 0.34666 0.25656 0.0
C1461 C 0.92034 0.33647 0.31006 0.0
C1462 C 0.92249 0.33866 0.19925 0.0
C1463 C 0.914 0.32034 0.19462 0.0
C1464 C 0.91042 0.31025 0.24804 0.0
H1465 H 0.88656 0.28538 0.81201 0.0
H1466 H 0.89396 0.28359 0.91876 0.0
C1467 C 0.91343 0.31826 0.30553 0.0
C1468 C 0.90663 0.31208 0.13471 0.0
H1469 H 0.8679 0.29176 0.05638 0.0
C1470 C 0.91806 0.31617 0.08481 0.0
C1471 C 0.88828 0.30274 0.12469 0.0
C1472 C 0.87533 0.29853 0.17626 0.0
C1473 C 0.91167 0.31204 0.02464 0.0
C1474 C 0.89335 0.30333 0.01456 0.0
C1475 C 0.88191 0.29834 0.06464 0.0
C1476 C 0.88603 0.30166 0.95243 0.0
C1477 C 0.92457 0.31815 0.97214 0.0
C1478 C 0.87814 0.31157 0.93697 0.0
C1479 C 0.87378 0.31256 0.87621 0.0
C1480 C 0.87729 0.30364 0.82998 0.0
C1481 C 0.88385 0.29255 0.84649 0.0
C1482 C 0.88819 0.29157 0.90736 0.0
H1483 H 0.93826 0.32692 0.98764 0.0
H1484 H 0.92397 0.30661 0.94928 0.0
H1485 H 0.9212 0.32524 0.93756 0.0
H1486 H 0.87627 0.31936 0.97138 0.0
H1487 H 0.86866 0.32112 0.8651 0.0
loop_
_geom_bond_atom_site_label_1
_geom_bond_atom_site_label_2
_geom_bond_distance
_geom_bond_site_symmetry_2
_ccdc_geom_bond_type
Co0 O3 1.970 . S
Co0 N17 1.989 . S
Co0 O25 1.967 . S
Co0 O32 1.920 1_554 S
Co1 O4 1.966 . S
Co1 N10 2.022 . S
Co1 N18 1.993 . S
Co1 O26 1.941 . S
C2 O3 1.258 . S
C2 O4 1.263 . S
O3 Co0 1.970 . S
O3 C2 1.258 . S
O4 Co1 1.966 . S
O4 C2 1.263 . S
C5 O6 1.235 . S
C5 O32 1.289 . S
O6 C5 1.235 . S
C7 C9 1.400 . S
C7 N10 1.351 . S
C7 C12 1.501 . S
C8 C9 1.387 . S
C8 N11 1.341 . S
C9 C7 1.400 . S
C9 C8 1.387 . S
N10 Co1 2.022 . S
N10 C7 1.351 . S
N10 N11 1.365 . S
N11 C8 1.341 . S
N11 N10 1.365 . S
N11 H31 0.862 . S
C12 C7 1.501 . S
C12 H13 0.961 . S
C12 H14 0.961 . S
C12 H15 0.960 . S
H13 C12 0.961 . S
H14 C12 0.961 . S
H15 C12 0.960 . S
C16 N17 1.342 . S
C16 C20 1.401 . S
C16 C21 1.499 1_554 S
N17 Co0 1.989 . S
N17 C16 1.342 . S
N17 N18 1.388 . S
N18 Co1 1.993 . S
N18 N17 1.388 . S
N18 C19 1.346 . S
C19 N18 1.346 . S
C19 C20 1.396 . S
C19 C29 1.510 . S
C20 C16 1.401 . S
C20 C19 1.396 . S
C21 C16 1.499 1_556 S
C21 H22 0.959 . S
C21 H23 0.960 . S
C21 H24 0.962 . S
H22 C21 0.959 . S
H23 C21 0.960 . S
H24 C21 0.962 . S
O25 Co0 1.967 . S
O25 C33 1.258 . S
O26 Co1 1.941 . S
O26 C33 1.266 . S
H27 C29 0.959 . S
H28 C29 0.961 . S
C29 C19 1.510 . S
C29 H27 0.959 . S
C29 H28 0.961 . S
C29 H30 0.960 . S
H30 C29 0.960 . S
H31 N11 0.862 . S
O32 Co0 1.920 1_556 S
O32 C5 1.289 . S
C33 O25 1.258 . S
C33 O26 1.266 . S
Co34 O37 1.970 . S
Co34 N51 1.989 . S
Co34 O59 1.967 . S
Co34 O66 1.920 . S
Co35 O38 1.966 . S
Co35 N44 2.022 . S
Co35 N52 1.993 . S
Co35 O60 1.941 . S
C36 O37 1.258 . S
C36 O38 1.263 . S
O37 Co34 1.970 . S
O37 C36 1.258 . S
O38 Co35 1.966 . S
O38 C36 1.263 . S
C39 O40 1.235 . S
C39 O66 1.289 . S
O40 C39 1.235 . S
C41 C43 1.400 . S
C41 N44 1.351 . S
C41 C46 1.501 . S
C42 C43 1.387 . S
C42 N45 1.341 . S
C43 C41 1.400 . S
C43 C42 1.387 . S
N44 Co35 2.022 . S
N44 C41 1.351 . S
N44 N45 1.365 . S
N45 C42 1.341 . S
N45 N44 1.365 . S
N45 H65 0.862 . S
C46 C41 1.501 . S
C46 H47 0.961 . S
C46 H48 0.961 . S
C46 H49 0.960 . S
H47 C46 0.961 . S
H48 C46 0.961 . S
H49 C46 0.960 . S
C50 N51 1.342 . S
C50 C54 1.401 . S
C50 C55 1.499 . S
N51 Co34 1.989 . S
N51 C50 1.342 . S
N51 N52 1.388 . S
N52 Co35 1.993 . S
N52 N51 1.388 . S
N52 C53 1.346 . S
C53 N52 1.346 . S
C53 C54 1.396 . S
C53 C63 1.510 . S
C54 C50 1.401 . S
C54 C53 1.396 . S
C55 C50 1.499 . S
C55 H56 0.959 . S
C55 H57 0.960 . S
C55 H58 0.961 . S
H56 C55 0.959 . S
H57 C55 0.960 . S
H58 C55 0.961 . S
O59 Co34 1.967 . S
O59 C67 1.258 . S
O60 Co35 1.941 . S
O60 C67 1.266 . S
H61 C63 0.959 . S
H62 C63 0.961 . S
C63 C53 1.510 . S
C63 H61 0.959 . S
C63 H62 0.961 . S
C63 H64 0.960 . S
H64 C63 0.960 . S
H65 N45 0.862 . S
O66 Co34 1.920 . S
O66 C39 1.289 . S
C67 O59 1.258 . S
C67 O60 1.266 . S
Co68 O71 1.970 . S
Co68 N85 1.989 . S
Co68 O93 1.967 . S
Co68 O100 1.920 . S
Co69 O72 1.966 . S
Co69 N78 2.022 . S
Co69 N86 1.993 . S
Co69 O94 1.941 . S
C70 O71 1.258 . S
C70 O72 1.263 . S
O71 Co68 1.970 . S
O71 C70 1.258 . S
O72 Co69 1.966 . S
O72 C70 1.263 . S
C73 O74 1.235 . S
C73 O100 1.289 . S
O74 C73 1.235 . S
C75 C77 1.400 . S
C75 N78 1.351 . S
C75 C80 1.501 . S
C76 C77 1.387 . S
C76 N79 1.341 . S
C77 C75 1.400 . S
C77 C76 1.387 . S
N78 Co69 2.022 . S
N78 C75 1.351 . S
N78 N79 1.365 . S
N79 C76 1.341 . S
N79 N78 1.365 . S
N79 H99 0.862 . S
C80 C75 1.501 . S
C80 H81 0.961 . S
C80 H82 0.961 . S
C80 H83 0.960 . S
H81 C80 0.961 . S
H82 C80 0.961 . S
H83 C80 0.960 . S
C84 N85 1.342 . S
C84 C88 1.401 . S
C84 C89 1.499 . S
N85 Co68 1.989 . S
N85 C84 1.342 . S
N85 N86 1.388 . S
N86 Co69 1.993 . S
N86 N85 1.388 . S
N86 C87 1.346 . S
C87 N86 1.346 . S
C87 C88 1.396 . S
C87 C97 1.510 . S
C88 C84 1.401 . S
C88 C87 1.396 . S
C89 C84 1.499 . S
C89 H90 0.959 . S
C89 H91 0.960 . S
C89 H92 0.961 . S
H90 C89 0.959 . S
H91 C89 0.960 . S
H92 C89 0.961 . S
O93 Co68 1.967 . S
O93 C101 1.258 . S
O94 Co69 1.941 . S
O94 C101 1.266 . S
H95 C97 0.959 . S
H96 C97 0.961 . S
C97 C87 1.510 . S
C97 H95 0.959 . S
C97 H96 0.961 . S
C97 H98 0.960 . S
H98 C97 0.960 . S
H99 N79 0.862 . S
O100 Co68 1.920 . S
O100 C73 1.289 . S
C101 O93 1.258 . S
C101 O94 1.266 . S
Co102 O105 1.970 . S
Co102 N119 1.989 . S
Co102 O127 1.967 . S
Co102 O134 1.920 . S
Co103 O106 1.966 . S
Co103 N112 2.022 . S
Co103 N120 1.993 . S
Co103 O128 1.941 . S
C104 O105 1.258 . S
C104 O106 1.263 . S
O105 Co102 1.970 . S
O105 C104 1.258 . S
O106 Co103 1.966 . S
O106 C104 1.263 . S
C107 O108 1.235 . S
C107 O134 1.289 . S
O108 C107 1.235 . S
C109 C111 1.400 . S
C109 N112 1.351 . S
C109 C114 1.501 . S
C110 C111 1.387 . S
C110 N113 1.341 . S
C111 C109 1.400 . S
C111 C110 1.387 . S
N112 Co103 2.022 . S
N112 C109 1.351 . S
N112 N113 1.365 . S
N113 C110 1.341 . S
N113 N112 1.365 . S
N113 H133 0.862 . S
C114 C109 1.501 . S
C114 H115 0.961 . S
C114 H116 0.961 . S
C114 H117 0.960 . S
H115 C114 0.961 . S
H116 C114 0.961 . S
H117 C114 0.960 . S
C118 N119 1.342 . S
C118 C122 1.401 . S
C118 C123 1.499 . S
N119 Co102 1.989 . S
N119 C118 1.342 . S
N119 N120 1.388 . S
N120 Co103 1.993 . S
N120 N119 1.388 . S
N120 C121 1.346 . S
C121 N120 1.346 . S
C121 C122 1.396 . S
C121 C131 1.510 . S
C122 C118 1.401 . S
C122 C121 1.396 . S
C123 C118 1.499 . S
C123 H124 0.959 . S
C123 H125 0.960 . S
C123 H126 0.961 . S
H124 C123 0.959 . S
H125 C123 0.960 . S
H126 C123 0.961 . S
O127 Co102 1.967 . S
O127 C135 1.258 . S
O128 Co103 1.941 . S
O128 C135 1.266 . S
H129 C131 0.959 . S
H130 C131 0.961 . S
C131 C121 1.510 . S
C131 H129 0.959 . S
C131 H130 0.961 . S
C131 H132 0.960 . S
H132 C131 0.960 . S
H133 N113 0.862 . S
O134 Co102 1.920 . S
O134 C107 1.289 . S
C135 O127 1.258 . S
C135 O128 1.266 . S
Co136 O139 1.970 . S
Co136 N153 1.989 . S
Co136 O161 1.967 . S
Co136 O168 1.920 . S
Co137 O140 1.966 . S
Co137 N146 2.022 . S
Co137 N154 1.993 . S
Co137 O162 1.941 . S
C138 O139 1.258 . S
C138 O140 1.263 . S
O139 Co136 1.970 . S
O139 C138 1.258 . S
O140 Co137 1.966 . S
O140 C138 1.263 . S
C141 O142 1.235 . S
C141 O168 1.289 . S
O142 C141 1.235 . S
C143 C145 1.403 . S
C143 N146 1.351 . S
C143 C148 1.501 . S
C144 C145 1.387 1_554 S
C144 N147 1.341 1_554 S
C145 C143 1.403 . S
C145 C144 1.387 1_556 S
N146 Co137 2.022 . S
N146 C143 1.351 . S
N146 N147 1.365 . S
N147 C144 1.341 1_556 S
N147 N146 1.365 . S
N147 H167 0.862 . S
C148 C143 1.501 . S
C148 H149 0.961 . S
C148 H150 0.961 . S
C148 H151 0.960 . S
H149 C148 0.961 . S
H150 C148 0.961 . S
H151 C148 0.960 . S
C152 N153 1.342 . S
C152 C156 1.401 . S
C152 C157 1.499 . S
N153 Co136 1.989 . S
N153 C152 1.342 . S
N153 N154 1.388 . S
N154 Co137 1.993 . S
N154 N153 1.388 . S
N154 C155 1.346 . S
C155 N154 1.346 . S
C155 C156 1.396 . S
C155 C165 1.510 . S
C156 C152 1.401 . S
C156 C155 1.396 . S
C157 C152 1.499 . S
C157 H158 0.959 . S
C157 H159 0.960 . S
C157 H160 0.961 . S
H158 C157 0.959 . S
H159 C157 0.960 . S
H160 C157 0.961 . S
O161 Co136 1.967 . S
O161 C169 1.258 . S
O162 Co137 1.941 . S
O162 C169 1.266 . S
H163 C165 0.959 . S
H164 C165 0.961 . S
C165 C155 1.510 . S
C165 H163 0.959 . S
C165 H164 0.961 . S
C165 H166 0.960 . S
H166 C165 0.960 . S
H167 N147 0.862 . S
O168 Co136 1.920 . S
O168 C141 1.289 . S
C169 O161 1.258 . S
C169 O162 1.266 . S
Co170 O173 1.970 . S
Co170 N187 1.989 . S
Co170 O195 1.967 . S
Co170 O202 1.920 . S
Co171 O174 1.966 . S
Co171 N180 2.022 1_556 S
Co171 N188 1.993 . S
Co171 O196 1.941 . S
C172 O173 1.258 . S
C172 O174 1.263 . S
O173 Co170 1.970 . S
O173 C172 1.258 . S
O174 Co171 1.966 . S
O174 C172 1.263 . S
C175 O176 1.235 . S
C175 O202 1.289 . S
O176 C175 1.235 . S
C177 C179 1.400 . S
C177 N180 1.351 . S
C177 C182 1.501 . S
C178 C179 1.387 . S
C178 N181 1.341 . S
C179 C177 1.400 . S
C179 C178 1.387 . S
N180 Co171 2.022 1_554 S
N180 C177 1.351 . S
N180 N181 1.365 . S
N181 C178 1.341 . S
N181 N180 1.365 . S
N181 H201 0.862 . S
C182 C177 1.501 . S
C182 H183 0.961 . S
C182 H184 0.961 . S
C182 H185 0.960 . S
H183 C182 0.961 . S
H184 C182 0.961 . S
H185 C182 0.960 . S
C186 N187 1.342 . S
C186 C190 1.401 . S
C186 C191 1.499 . S
N187 Co170 1.989 . S
N187 C186 1.342 . S
N187 N188 1.388 . S
N188 Co171 1.993 . S
N188 N187 1.388 . S
N188 C189 1.346 . S
C189 N188 1.346 . S
C189 C190 1.396 . S
C189 C199 1.510 1_556 S
C190 C186 1.401 . S
C190 C189 1.396 . S
C191 C186 1.499 . S
C191 H192 0.959 . S
C191 H193 0.960 . S
C191 H194 0.961 . S
H192 C191 0.959 . S
H193 C191 0.960 . S
H194 C191 0.961 . S
O195 Co170 1.967 . S
O195 C203 1.258 . S
O196 Co171 1.941 . S
O196 C203 1.266 . S
H197 C199 0.959 . S
H198 C199 0.961 . S
C199 C189 1.510 1_554 S
C199 H197 0.959 . S
C199 H198 0.961 . S
C199 H200 0.960 . S
H200 C199 0.960 . S
H201 N181 0.862 . S
O202 Co170 1.920 . S
O202 C175 1.289 . S
C203 O195 1.258 . S
C203 O196 1.266 . S
Co204 O207 1.970 . S
Co204 N221 1.989 . S
Co204 O229 1.967 . S
Co204 O236 1.920 . S
Co205 O208 1.966 . S
Co205 N214 2.022 . S
Co205 N222 1.993 . S
Co205 O230 1.941 . S
C206 O207 1.258 . S
C206 O208 1.263 . S
O207 Co204 1.970 . S
O207 C206 1.258 . S
O208 Co205 1.966 . S
O208 C206 1.263 . S
C209 O210 1.235 . S
C209 O236 1.289 . S
O210 C209 1.235 . S
C211 C213 1.400 . S
C211 N214 1.351 . S
C211 C216 1.501 . S
C212 C213 1.387 . S
C212 N215 1.341 . S
C213 C211 1.400 . S
C213 C212 1.387 . S
N214 Co205 2.022 . S
N214 C211 1.351 . S
N214 N215 1.365 . S
N215 C212 1.341 . S
N215 N214 1.365 . S
N215 H235 0.862 . S
C216 C211 1.501 . S
C216 H217 0.961 . S
C216 H218 0.961 . S
C216 H219 0.960 . S
H217 C216 0.961 . S
H218 C216 0.961 . S
H219 C216 0.960 . S
C220 N221 1.342 . S
C220 C224 1.401 . S
C220 C225 1.499 . S
N221 Co204 1.989 . S
N221 C220 1.342 . S
N221 N222 1.388 . S
N222 Co205 1.993 . S
N222 N221 1.388 . S
N222 C223 1.346 . S
C223 N222 1.346 . S
C223 C224 1.396 . S
C223 C233 1.510 . S
C224 C220 1.401 . S
C224 C223 1.396 . S
C225 C220 1.499 . S
C225 H226 0.959 . S
C225 H227 0.960 . S
C225 H228 0.961 . S
H226 C225 0.959 . S
H227 C225 0.960 . S
H228 C225 0.961 . S
O229 Co204 1.967 . S
O229 C237 1.258 . S
O230 Co205 1.941 . S
O230 C237 1.266 . S
H231 C233 0.959 . S
H232 C233 0.961 . S
C233 C223 1.510 . S
C233 H231 0.959 . S
C233 H232 0.961 . S
C233 H234 0.960 . S
H234 C233 0.960 . S
H235 N215 0.862 . S
O236 Co204 1.920 . S
O236 C209 1.289 . S
C237 O229 1.258 . S
C237 O230 1.266 . S
Co238 O241 1.970 . S
Co238 N255 1.989 . S
Co238 O263 1.967 . S
Co238 O270 1.920 1_556 S
Co239 O242 1.966 . S
Co239 N248 2.022 . S
Co239 N256 1.993 . S
Co239 O264 1.941 . S
C240 O241 1.258 . S
C240 O242 1.263 . S
O241 Co238 1.970 . S
O241 C240 1.258 . S
O242 Co239 1.966 . S
O242 C240 1.263 . S
C243 O244 1.235 . S
C243 O270 1.289 . S
O244 C243 1.235 . S
C245 C247 1.400 . S
C245 N248 1.351 . S
C245 C250 1.501 . S
C246 C247 1.387 . S
C246 N249 1.341 . S
C247 C245 1.400 . S
C247 C246 1.387 . S
N248 Co239 2.022 . S
N248 C245 1.351 . S
N248 N249 1.365 . S
N249 C246 1.341 . S
N249 N248 1.365 . S
N249 H269 0.862 . S
C250 C245 1.501 . S
C250 H251 0.961 . S
C250 H252 0.961 . S
C250 H253 0.960 . S
H251 C250 0.961 . S
H252 C250 0.961 . S
H253 C250 0.960 . S
C254 N255 1.342 . S
C254 C258 1.401 . S
C254 C259 1.499 1_556 S
N255 Co238 1.989 . S
N255 C254 1.342 . S
N255 N256 1.388 . S
N256 Co239 1.993 . S
N256 N255 1.388 . S
N256 C257 1.346 . S
C257 N256 1.346 . S
C257 C258 1.396 . S
C257 C267 1.510 . S
C258 C254 1.401 . S
C258 C257 1.396 . S
C259 C254 1.499 1_554 S
C259 H260 0.959 . S
C259 H261 0.960 . S
C259 H262 0.961 . S
H260 C259 0.959 . S
H261 C259 0.960 . S
H262 C259 0.961 . S
O263 Co238 1.967 . S
O263 C271 1.258 . S
O264 Co239 1.941 . S
O264 C271 1.266 . S
H265 C267 0.959 . S
H266 C267 0.961 . S
C267 C257 1.510 . S
C267 H265 0.959 . S
C267 H266 0.961 . S
C267 H268 0.960 . S
H268 C267 0.960 . S
H269 N249 0.862 . S
O270 Co238 1.920 1_554 S
O270 C243 1.289 . S
C271 O263 1.258 . S
C271 O264 1.266 . S
Co272 O275 1.970 . S
Co272 N289 1.989 . S
Co272 O297 1.967 . S
Co272 O304 1.920 . S
Co273 O276 1.966 . S
Co273 N282 2.022 1_554 S
Co273 N290 1.993 . S
Co273 O298 1.941 . S
C274 O275 1.258 . S
C274 O276 1.263 . S
O275 Co272 1.970 . S
O275 C274 1.258 . S
O276 Co273 1.966 . S
O276 C274 1.263 . S
C277 O278 1.235 . S
C277 O304 1.289 . S
O278 C277 1.235 . S
C279 C281 1.400 . S
C279 N282 1.351 . S
C279 C284 1.501 . S
C280 C281 1.387 . S
C280 N283 1.341 . S
C281 C279 1.400 . S
C281 C280 1.387 . S
N282 Co273 2.022 1_556 S
N282 C279 1.351 . S
N282 N283 1.365 . S
N283 C280 1.341 . S
N283 N282 1.365 . S
N283 H303 0.862 . S
C284 C279 1.501 . S
C284 H285 0.961 . S
C284 H286 0.961 . S
C284 H287 0.960 . S
H285 C284 0.961 . S
H286 C284 0.961 . S
H287 C284 0.960 . S
C288 N289 1.342 . S
C288 C292 1.401 . S
C288 C293 1.499 . S
N289 Co272 1.989 . S
N289 C288 1.342 . S
N289 N290 1.388 . S
N290 Co273 1.993 . S
N290 N289 1.388 . S
N290 C291 1.346 . S
C291 N290 1.346 . S
C291 C292 1.396 . S
C291 C301 1.510 1_554 S
C292 C288 1.401 . S
C292 C291 1.396 . S
C293 C288 1.499 . S
C293 H294 0.959 . S
C293 H295 0.960 . S
C293 H296 0.961 . S
H294 C293 0.959 . S
H295 C293 0.960 . S
H296 C293 0.961 . S
O297 Co272 1.967 . S
O297 C305 1.258 . S
O298 Co273 1.941 . S
O298 C305 1.266 . S
H299 C301 0.959 . S
H300 C301 0.961 . S
C301 C291 1.510 1_556 S
C301 H299 0.959 . S
C301 H300 0.961 . S
C301 H302 0.960 . S
H302 C301 0.960 . S
H303 N283 0.862 . S
O304 Co272 1.920 . S
O304 C277 1.289 . S
C305 O297 1.258 . S
C305 O298 1.266 . S
Co306 O309 1.970 . S
Co306 N323 1.989 . S
Co306 O331 1.967 . S
Co306 O338 1.920 . S
Co307 O310 1.966 . S
Co307 N316 2.022 . S
Co307 N324 1.993 . S
Co307 O332 1.941 . S
C308 O309 1.258 . S
C308 O310 1.263 . S
O309 Co306 1.970 . S
O309 C308 1.258 . S
O310 Co307 1.966 . S
O310 C308 1.263 . S
C311 O312 1.235 . S
C311 O338 1.289 . S
O312 C311 1.235 . S
C313 C315 1.417 . S
C313 N316 1.351 . S
C313 C318 1.501 . S
C314 C315 1.386 1_556 S
C314 N317 1.341 1_556 S
C315 C313 1.417 . S
C315 C314 1.386 1_554 S
N316 Co307 2.022 . S
N316 C313 1.351 . S
N316 N317 1.365 . S
N317 C314 1.341 1_554 S
N317 N316 1.365 . S
N317 H337 0.862 . S
C318 C313 1.501 . S
C318 H319 0.961 . S
C318 H320 0.961 . S
C318 H321 0.960 . S
H319 C318 0.961 . S
H320 C318 0.961 . S
H321 C318 0.960 . S
C322 N323 1.342 . S
C322 C326 1.401 . S
C322 C327 1.499 . S
N323 Co306 1.989 . S
N323 C322 1.342 . S
N323 N324 1.388 . S
N324 Co307 1.993 . S
N324 N323 1.388 . S
N324 C325 1.346 . S
C325 N324 1.346 . S
C325 C326 1.396 . S
C325 C335 1.510 . S
C326 C322 1.401 . S
C326 C325 1.396 . S
C327 C322 1.499 . S
C327 H328 0.959 . S
C327 H329 0.960 . S
C327 H330 0.961 . S
H328 C327 0.959 . S
H329 C327 0.960 . S
H330 C327 0.961 . S
O331 Co306 1.967 . S
O331 C339 1.258 . S
O332 Co307 1.941 . S
O332 C339 1.266 . S
H333 C335 0.959 . S
H334 C335 0.961 . S
C335 C325 1.510 . S
C335 H333 0.959 . S
C335 H334 0.961 . S
C335 H336 0.960 . S
H336 C335 0.960 . S
H337 N317 0.862 . S
O338 Co306 1.920 . S
O338 C311 1.289 . S
C339 O331 1.258 . S
C339 O332 1.266 . S
Co340 O343 1.970 . S
Co340 N357 1.989 . S
Co340 O365 1.967 . S
Co340 O372 1.920 . S
Co341 O344 1.966 . S
Co341 N350 2.022 . S
Co341 N358 1.993 . S
Co341 O366 1.941 . S
C342 O343 1.258 . S
C342 O344 1.263 . S
O343 Co340 1.970 . S
O343 C342 1.258 . S
O344 Co341 1.966 . S
O344 C342 1.263 . S
C345 O346 1.235 . S
C345 O372 1.289 . S
O346 C345 1.235 . S
C347 C349 1.400 . S
C347 N350 1.351 . S
C347 C352 1.501 . S
C348 C349 1.387 . S
C348 N351 1.341 . S
C349 C347 1.400 . S
C349 C348 1.387 . S
N350 Co341 2.022 . S
N350 C347 1.351 . S
N350 N351 1.365 . S
N351 C348 1.341 . S
N351 N350 1.365 . S
N351 H371 0.862 . S
C352 C347 1.501 . S
C352 H353 0.961 . S
C352 H354 0.961 . S
C352 H355 0.960 . S
H353 C352 0.961 . S
H354 C352 0.961 . S
H355 C352 0.960 . S
C356 N357 1.342 . S
C356 C360 1.401 . S
C356 C361 1.499 . S
N357 Co340 1.989 . S
N357 C356 1.342 . S
N357 N358 1.388 . S
N358 Co341 1.993 . S
N358 N357 1.388 . S
N358 C359 1.346 . S
C359 N358 1.346 . S
C359 C360 1.396 . S
C359 C369 1.510 . S
C360 C356 1.401 . S
C360 C359 1.396 . S
C361 C356 1.499 . S
C361 H362 0.959 . S
C361 H363 0.960 . S
C361 H364 0.961 . S
H362 C361 0.959 . S
H363 C361 0.960 . S
H364 C361 0.961 . S
O365 Co340 1.967 . S
O365 C373 1.258 . S
O366 Co341 1.941 . S
O366 C373 1.266 . S
H367 C369 0.959 . S
H368 C369 0.961 . S
C369 C359 1.510 . S
C369 H367 0.959 . S
C369 H368 0.961 . S
C369 H370 0.960 . S
H370 C369 0.960 . S
H371 N351 0.862 . S
O372 Co340 1.920 . S
O372 C345 1.289 . S
C373 O365 1.258 . S
C373 O366 1.266 . S
Co374 O377 1.970 . S
Co374 N391 1.989 . S
Co374 O399 1.967 . S
Co374 O406 1.920 . S
Co375 O378 1.966 . S
Co375 N384 2.022 . S
Co375 N392 1.993 . S
Co375 O400 1.941 . S
C376 O377 1.258 . S
C376 O378 1.263 . S
O377 Co374 1.970 . S
O377 C376 1.258 . S
O378 Co375 1.966 . S
O378 C376 1.263 . S
C379 O380 1.235 . S
C379 O406 1.289 . S
O380 C379 1.235 . S
C381 C383 1.400 . S
C381 N384 1.351 . S
C381 C386 1.501 . S
C382 C383 1.387 . S
C382 N385 1.341 . S
C383 C381 1.400 . S
C383 C382 1.387 . S
N384 Co375 2.022 . S
N384 C381 1.351 . S
N384 N385 1.365 . S
N385 C382 1.341 . S
N385 N384 1.365 . S
N385 H405 0.862 . S
C386 C381 1.501 . S
C386 H387 0.961 . S
C386 H388 0.961 . S
C386 H389 0.960 . S
H387 C386 0.961 . S
H388 C386 0.961 . S
H389 C386 0.960 . S
C390 N391 1.342 . S
C390 C394 1.401 . S
C390 C395 1.499 . S
N391 Co374 1.989 . S
N391 C390 1.342 . S
N391 N392 1.388 . S
N392 Co375 1.993 . S
N392 N391 1.388 . S
N392 C393 1.346 . S
C393 N392 1.346 . S
C393 C394 1.396 . S
C393 C403 1.510 . S
C394 C390 1.401 . S
C394 C393 1.396 . S
C395 C390 1.499 . S
C395 H396 0.959 . S
C395 H397 0.960 . S
C395 H398 0.961 . S
H396 C395 0.959 . S
H397 C395 0.960 . S
H398 C395 0.961 . S
O399 Co374 1.967 . S
O399 C407 1.258 . S
O400 Co375 1.941 . S
O400 C407 1.266 . S
H401 C403 0.959 . S
H402 C403 0.961 . S
C403 C393 1.510 . S
C403 H401 0.959 . S
C403 H402 0.961 . S
C403 H404 0.960 . S
H404 C403 0.960 . S
H405 N385 0.862 . S
O406 Co374 1.920 . S
O406 C379 1.289 . S
C407 O399 1.258 . S
C407 O400 1.266 . S
H408 C416 0.929 . S
H409 C418 0.930 . S
H410 C420 0.930 . S
H411 C423 0.929 . S
H412 C426 0.930 . S
H413 C428 0.960 . S
H414 C428 0.960 . S
H415 C428 0.960 . S
C416 H408 0.929 . S
C416 C417 1.377 . S
C416 C418 1.384 . S
C417 C416 1.377 . S
C417 C423 1.390 . S
C418 H409 0.930 . S
C418 C416 1.384 . S
C418 C419 1.372 . S
C419 C418 1.372 . S
C419 C420 1.400 . S
C419 C424 1.490 . S
C420 H410 0.930 . S
C420 C419 1.400 . S
C420 C423 1.386 . S
H421 C437 0.930 . S
H422 C438 0.931 . S
C423 H411 0.929 . S
C423 C417 1.390 . S
C423 C420 1.386 . S
C424 C419 1.490 . S
C424 C426 1.395 . S
C424 C427 1.403 . S
H425 C431 0.930 . S
C426 H412 0.930 . S
C426 C424 1.395 . S
C426 C429 1.403 . S
C427 C424 1.403 . S
C427 C428 1.524 . S
C427 C431 1.400 . S
C428 H413 0.960 . S
C428 H414 0.960 . S
C428 H415 0.960 . S
C428 C427 1.524 . S
C429 C426 1.403 . S
C429 C430 1.392 . S
C429 C433 1.495 . S
C430 C429 1.392 . S
C430 C431 1.385 . S
C430 C432 1.478 . S
C431 H425 0.930 . S
C431 C427 1.400 . S
C431 C430 1.385 . S
C432 C430 1.478 . S
C432 C434 1.381 . S
C432 C438 1.383 . S
C433 C429 1.495 . S
C433 H439 0.959 . S
C433 H440 0.961 . S
C433 H441 0.960 . S
C434 C432 1.381 . S
C434 C435 1.394 . S
C434 H442 0.930 1_554 S
C435 C434 1.394 . S
C435 C436 1.383 . S
C435 H443 0.929 1_554 S
C436 C435 1.383 . S
C436 C437 1.377 . S
C437 H421 0.930 . S
C437 C436 1.377 . S
C437 C438 1.379 . S
C438 H422 0.931 . S
C438 C432 1.383 . S
C438 C437 1.379 . S
H439 C433 0.959 . S
H440 C433 0.961 . S
H441 C433 0.960 . S
H442 C434 0.930 1_556 S
H443 C435 0.929 1_556 S
H444 C452 0.929 . S
H445 C454 0.930 . S
H446 C456 0.930 . S
H447 C459 0.929 . S
H448 C462 0.930 . S
H449 C464 0.960 . S
H450 C464 0.960 . S
H451 C464 0.960 . S
C452 H444 0.929 . S
C452 C453 1.377 . S
C452 C454 1.384 . S
C453 C452 1.377 . S
C453 C459 1.390 . S
C454 H445 0.930 . S
C454 C452 1.384 . S
C454 C455 1.372 . S
C455 C454 1.372 . S
C455 C456 1.400 . S
C455 C460 1.490 . S
C456 H446 0.930 . S
C456 C455 1.400 . S
C456 C459 1.386 . S
H457 C473 0.930 . S
H458 C474 0.931 . S
C459 H447 0.929 . S
C459 C453 1.390 . S
C459 C456 1.386 . S
C460 C455 1.490 . S
C460 C462 1.395 . S
C460 C463 1.403 . S
H461 C467 0.930 . S
C462 H448 0.930 . S
C462 C460 1.395 . S
C462 C465 1.403 . S
C463 C460 1.403 . S
C463 C464 1.524 . S
C463 C467 1.400 . S
C464 H449 0.960 . S
C464 H450 0.960 . S
C464 H451 0.960 . S
C464 C463 1.524 . S
C465 C462 1.403 . S
C465 C466 1.392 . S
C465 C469 1.495 . S
C466 C465 1.392 . S
C466 C467 1.385 . S
C466 C468 1.478 . S
C467 H461 0.930 . S
C467 C463 1.400 . S
C467 C466 1.385 . S
C468 C466 1.478 . S
C468 C470 1.381 . S
C468 C474 1.383 . S
C469 C465 1.495 . S
C469 H475 0.959 . S
C469 H476 0.961 . S
C469 H477 0.960 . S
C470 C468 1.381 . S
C470 C471 1.394 . S
C470 H478 0.930 . S
C471 C470 1.394 . S
C471 C472 1.383 . S
C471 H479 0.929 . S
C472 C471 1.383 . S
C472 C473 1.377 . S
C473 H457 0.930 . S
C473 C472 1.377 . S
C473 C474 1.379 . S
C474 H458 0.931 . S
C474 C468 1.383 . S
C474 C473 1.379 . S
H475 C469 0.959 . S
H476 C469 0.961 . S
H477 C469 0.960 . S
H478 C470 0.930 . S
H479 C471 0.929 . S
H480 C488 0.929 . S
H481 C490 0.930 . S
H482 C492 0.930 . S
H483 C495 0.929 . S
H484 C498 0.930 . S
H485 C500 0.960 . S
H486 C500 0.960 . S
H487 C500 0.960 . S
C488 H480 0.929 . S
C488 C489 1.377 . S
C488 C490 1.384 . S
C489 C488 1.377 . S
C489 C495 1.390 . S
C490 H481 0.930 . S
C490 C488 1.384 . S
C490 C491 1.372 . S
C491 C490 1.372 . S
C491 C492 1.400 . S
C491 C496 1.490 . S
C492 H482 0.930 . S
C492 C491 1.400 . S
C492 C495 1.386 . S
H493 C509 0.930 . S
H494 C510 0.931 . S
C495 H483 0.929 . S
C495 C489 1.390 . S
C495 C492 1.386 . S
C496 C491 1.490 . S
C496 C498 1.395 . S
C496 C499 1.403 . S
H497 C503 0.930 . S
C498 H484 0.930 . S
C498 C496 1.395 . S
C498 C501 1.403 . S
C499 C496 1.403 . S
C499 C500 1.524 . S
C499 C503 1.400 . S
C500 H485 0.960 . S
C500 H486 0.960 . S
C500 H487 0.960 . S
C500 C499 1.524 . S
C501 C498 1.403 . S
C501 C502 1.392 . S
C501 C505 1.495 . S
C502 C501 1.392 . S
C502 C503 1.385 . S
C502 C504 1.478 . S
C503 H497 0.930 . S
C503 C499 1.400 . S
C503 C502 1.385 . S
C504 C502 1.478 . S
C504 C506 1.381 . S
C504 C510 1.383 . S
C505 C501 1.495 . S
C505 H511 0.959 . S
C505 H512 0.961 . S
C505 H513 0.960 . S
C506 C504 1.381 . S
C506 C507 1.394 . S
C506 H514 0.930 . S
C507 C506 1.394 . S
C507 C508 1.383 . S
C507 H515 0.929 . S
C508 C507 1.383 . S
C508 C509 1.377 . S
C509 H493 0.930 . S
C509 C508 1.377 . S
C509 C510 1.379 . S
C510 H494 0.931 . S
C510 C504 1.383 . S
C510 C509 1.379 . S
H511 C505 0.959 . S
H512 C505 0.961 . S
H513 C505 0.960 . S
H514 C506 0.930 . S
H515 C507 0.929 . S
H516 C524 0.929 . S
H517 C526 0.930 . S
H518 C528 0.930 . S
H519 C531 0.929 . S
H520 C534 0.930 . S
H521 C536 0.960 . S
H522 C536 0.960 . S
H523 C536 0.960 . S
C524 H516 0.929 . S
C524 C525 1.377 . S
C524 C526 1.384 . S
C525 C524 1.377 . S
C525 C531 1.390 . S
C526 H517 0.930 . S
C526 C524 1.384 . S
C526 C527 1.372 . S
C527 C526 1.372 . S
C527 C528 1.400 . S
C527 C532 1.490 . S
C528 H518 0.930 . S
C528 C527 1.400 . S
C528 C531 1.386 . S
H529 C545 0.930 . S
H530 C546 0.931 . S
C531 H519 0.929 . S
C531 C525 1.390 . S
C531 C528 1.386 . S
C532 C527 1.490 . S
C532 C534 1.395 . S
C532 C535 1.403 . S
H533 C539 0.930 . S
C534 H520 0.930 . S
C534 C532 1.395 . S
C534 C537 1.403 . S
C535 C532 1.403 . S
C535 C536 1.524 . S
C535 C539 1.400 . S
C536 H521 0.960 . S
C536 H522 0.960 . S
C536 H523 0.960 . S
C536 C535 1.524 . S
C537 C534 1.403 . S
C537 C538 1.392 . S
C537 C541 1.495 . S
C538 C537 1.392 . S
C538 C539 1.385 . S
C538 C540 1.478 . S
C539 H533 0.930 . S
C539 C535 1.400 . S
C539 C538 1.385 . S
C540 C538 1.478 . S
C540 C542 1.381 . S
C540 C546 1.383 . S
C541 C537 1.495 . S
C541 H547 0.959 . S
C541 H548 0.961 . S
C541 H549 0.960 . S
C542 C540 1.381 . S
C542 C543 1.394 . S
C542 H550 0.930 . S
C543 C542 1.394 . S
C543 C544 1.383 . S
C543 H551 0.929 . S
C544 C543 1.383 . S
C544 C545 1.377 . S
C545 H529 0.930 . S
C545 C544 1.377 . S
C545 C546 1.379 . S
C546 H530 0.931 . S
C546 C540 1.383 . S
C546 C545 1.379 . S
H547 C541 0.959 . S
H548 C541 0.961 . S
H549 C541 0.960 . S
H550 C542 0.930 . S
H551 C543 0.929 . S
H552 C560 0.929 . S
H553 C562 0.930 . S
H554 C564 0.930 . S
H555 C567 0.929 . S
H556 C570 0.930 . S
H557 C572 0.960 . S
H558 C572 0.960 . S
H559 C572 0.960 . S
C560 H552 0.929 . S
C560 C561 1.377 . S
C560 C562 1.384 . S
C561 C560 1.377 . S
C561 C567 1.390 . S
C562 H553 0.930 . S
C562 C560 1.384 . S
C562 C563 1.372 . S
C563 C562 1.372 . S
C563 C564 1.400 . S
C563 C568 1.490 . S
C564 H554 0.930 . S
C564 C563 1.400 . S
C564 C567 1.386 . S
H565 C581 0.930 . S
H566 C582 0.931 . S
C567 H555 0.929 . S
C567 C561 1.390 . S
C567 C564 1.386 . S
C568 C563 1.490 . S
C568 C570 1.395 . S
C568 C571 1.403 . S
H569 C575 0.930 . S
C570 H556 0.930 . S
C570 C568 1.395 . S
C570 C573 1.403 . S
C571 C568 1.403 . S
C571 C572 1.524 . S
C571 C575 1.400 . S
C572 H557 0.960 . S
C572 H558 0.960 . S
C572 H559 0.960 . S
C572 C571 1.524 . S
C573 C570 1.403 . S
C573 C574 1.392 . S
C573 C577 1.495 . S
C574 C573 1.392 . S
C574 C575 1.385 . S
C574 C576 1.478 . S
C575 H569 0.930 . S
C575 C571 1.400 . S
C575 C574 1.385 . S
C576 C574 1.478 . S
C576 C578 1.381 . S
C576 C582 1.383 . S
C577 C573 1.495 . S
C577 H583 0.959 . S
C577 H584 0.961 . S
C577 H585 0.960 . S
C578 C576 1.381 . S
C578 C579 1.394 . S
C578 H586 0.930 . S
C579 C578 1.394 . S
C579 C580 1.383 . S
C579 H587 0.929 . S
C580 C579 1.383 . S
C580 C581 1.377 . S
C581 H565 0.930 . S
C581 C580 1.377 . S
C581 C582 1.379 . S
C582 H566 0.931 . S
C582 C576 1.383 . S
C582 C581 1.379 . S
H583 C577 0.959 . S
H584 C577 0.961 . S
H585 C577 0.960 . S
H586 C578 0.930 . S
H587 C579 0.929 . S
H588 C596 0.929 . S
H589 C598 0.930 . S
H590 C600 0.930 . S
H591 C603 0.929 1_554 S
H592 C606 0.930 . S
H593 C608 0.960 . S
H594 C608 0.960 . S
H595 C608 0.960 . S
C596 H588 0.929 . S
C596 C597 1.377 . S
C596 C598 1.384 . S
C597 C596 1.377 . S
C597 C603 1.390 . S
C598 H589 0.930 . S
C598 C596 1.384 . S
C598 C599 1.372 . S
C599 C598 1.372 . S
C599 C600 1.400 . S
C599 C604 1.490 . S
C600 H590 0.930 . S
C600 C599 1.400 . S
C600 C603 1.386 . S
H601 C617 0.930 . S
H602 C618 0.931 . S
C603 H591 0.929 1_556 S
C603 C597 1.390 . S
C603 C600 1.386 . S
C604 C599 1.490 . S
C604 C606 1.395 . S
C604 C607 1.403 . S
H605 C611 0.930 . S
C606 H592 0.930 . S
C606 C604 1.395 . S
C606 C609 1.403 . S
C607 C604 1.403 . S
C607 C608 1.524 . S
C607 C611 1.400 . S
C608 H593 0.960 . S
C608 H594 0.960 . S
C608 H595 0.960 . S
C608 C607 1.524 . S
C609 C606 1.403 . S
C609 C610 1.392 . S
C609 C613 1.495 . S
C610 C609 1.392 . S
C610 C611 1.385 . S
C610 C612 1.478 . S
C611 H605 0.930 . S
C611 C607 1.400 . S
C611 C610 1.385 . S
C612 C610 1.478 . S
C612 C614 1.381 . S
C612 C618 1.383 . S
C613 C609 1.495 . S
C613 H619 0.959 . S
C613 H620 0.961 . S
C613 H621 0.960 . S
C614 C612 1.381 . S
C614 C615 1.394 . S
C614 H622 0.930 . S
C615 C614 1.394 . S
C615 C616 1.383 . S
C615 H623 0.929 . S
C616 C615 1.383 . S
C616 C617 1.377 . S
C617 H601 0.930 . S
C617 C616 1.377 . S
C617 C618 1.379 . S
C618 H602 0.931 . S
C618 C612 1.383 . S
C618 C617 1.379 . S
H619 C613 0.959 . S
H620 C613 0.961 . S
H621 C613 0.960 . S
H622 C614 0.930 . S
H623 C615 0.929 . S
H624 C632 0.929 . S
H625 C634 0.930 . S
H626 C636 0.930 . S
H627 C639 0.929 . S
H628 C642 0.930 . S
H629 C644 0.934 1_655 S
H630 C644 0.960 . S
H631 C644 0.960 . S
C632 H624 0.929 . S
C632 C633 1.377 1_556 S
C632 C634 1.384 . S
C633 C632 1.377 1_554 S
C633 C639 1.390 . S
C634 H625 0.930 . S
C634 C632 1.384 . S
C634 C635 1.372 . S
C635 C634 1.372 . S
C635 C636 1.400 . S
C635 C640 1.490 . S
C636 H626 0.930 . S
C636 C635 1.400 . S
C636 C639 1.386 1_556 S
H637 C653 0.930 . S
H638 C654 0.931 . S
C639 H627 0.929 . S
C639 C633 1.390 . S
C639 C636 1.386 1_554 S
C640 C635 1.490 . S
C640 C642 1.395 . S
C640 C643 1.403 . S
H641 C647 0.930 . S
C642 H628 0.930 . S
C642 C640 1.395 . S
C642 C645 1.403 1_455 S
C643 C640 1.403 . S
C643 C644 1.524 . S
C643 C647 1.400 1_455 S
C644 H629 0.934 1_455 S
C644 H630 0.960 . S
C644 H631 0.960 . S
C644 C643 1.524 . S
C645 C642 1.403 1_655 S
C645 C646 1.392 . S
C645 C649 1.495 . S
C646 C645 1.392 . S
C646 C647 1.385 . S
C646 C648 1.478 . S
C647 H641 0.930 . S
C647 C643 1.400 1_655 S
C647 C646 1.385 . S
C648 C646 1.478 . S
C648 C650 1.381 . S
C648 C654 1.383 . S
C649 C645 1.495 . S
C649 H655 0.959 1_655 S
C649 H656 0.961 . S
C649 H657 0.960 . S
C650 C648 1.381 . S
C650 C651 1.394 . S
C650 H658 0.930 . S
C651 C650 1.394 . S
C651 C652 1.383 . S
C651 H659 0.929 . S
C652 C651 1.383 . S
C652 C653 1.377 . S
C653 H637 0.930 . S
C653 C652 1.377 . S
C653 C654 1.379 . S
C654 H638 0.931 . S
C654 C648 1.383 . S
C654 C653 1.379 . S
H655 C649 0.959 1_455 S
H656 C649 0.961 . S
H657 C649 0.960 . S
H658 C650 0.930 . S
H659 C651 0.929 . S
H660 C668 0.929 . S
H661 C670 0.930 . S
H662 C672 0.930 . S
H663 C675 0.929 . S
H664 C678 0.930 . S
H665 C680 0.960 . S
H666 C680 0.960 . S
H667 C680 0.960 . S
C668 H660 0.929 . S
C668 C669 1.377 . S
C668 C670 1.384 . S
C669 C668 1.377 . S
C669 C675 1.390 . S
C670 H661 0.930 . S
C670 C668 1.384 . S
C670 C671 1.372 . S
C671 C670 1.372 . S
C671 C672 1.400 . S
C671 C676 1.490 . S
C672 H662 0.930 . S
C672 C671 1.400 . S
C672 C675 1.386 . S
H673 C689 0.930 . S
H674 C690 0.931 . S
C675 H663 0.929 . S
C675 C669 1.390 . S
C675 C672 1.386 . S
C676 C671 1.490 . S
C676 C678 1.395 1_556 S
C676 C679 1.403 1_565 S
H677 C683 0.930 . S
C678 H664 0.930 . S
C678 C676 1.395 1_554 S
C678 C681 1.403 . S
C679 C676 1.403 1_545 S
C679 C680 1.524 . S
C679 C683 1.400 . S
C680 H665 0.960 . S
C680 H666 0.960 . S
C680 H667 0.960 . S
C680 C679 1.524 . S
C681 C678 1.403 . S
C681 C682 1.392 1_565 S
C681 C685 1.495 . S
C682 C681 1.392 1_545 S
C682 C683 1.385 1_554 S
C682 C684 1.478 . S
C683 H677 0.930 . S
C683 C679 1.400 . S
C683 C682 1.385 1_556 S
C684 C682 1.478 . S
C684 C686 1.381 . S
C684 C690 1.383 . S
C685 C681 1.495 . S
C685 H691 0.959 . S
C685 H692 0.961 . S
C685 H693 0.960 . S
C686 C684 1.381 . S
C686 C687 1.394 . S
C686 H694 0.930 . S
C687 C686 1.394 . S
C687 C688 1.383 . S
C687 H695 0.929 . S
C688 C687 1.383 . S
C688 C689 1.377 . S
C689 H673 0.930 . S
C689 C688 1.377 . S
C689 C690 1.379 . S
C690 H674 0.931 . S
C690 C684 1.383 . S
C690 C689 1.379 . S
H691 C685 0.959 . S
H692 C685 0.961 . S
H693 C685 0.960 . S
H694 C686 0.930 . S
H695 C687 0.929 . S
H696 C704 0.929 . S
H697 C706 0.930 . S
H698 C708 0.930 . S
H699 C711 0.929 . S
H700 C714 0.930 . S
H701 C716 0.960 . S
H702 C716 0.960 . S
H703 C716 0.960 . S
C704 H696 0.929 . S
C704 C705 1.377 . S
C704 C706 1.384 . S
C705 C704 1.377 . S
C705 C711 1.390 . S
C706 H697 0.930 . S
C706 C704 1.384 . S
C706 C707 1.372 . S
C707 C706 1.372 . S
C707 C708 1.400 . S
C707 C712 1.490 . S
C708 H698 0.930 . S
C708 C707 1.400 . S
C708 C711 1.386 . S
H709 C725 0.930 1_556 S
H710 C726 0.931 . S
C711 H699 0.929 . S
C711 C705 1.390 . S
C711 C708 1.386 . S
C712 C707 1.490 . S
C712 C714 1.395 . S
C712 C715 1.403 . S
H713 C719 0.930 . S
C714 H700 0.930 . S
C714 C712 1.395 . S
C714 C717 1.403 . S
C715 C712 1.403 . S
C715 C716 1.524 . S
C715 C719 1.400 . S
C716 H701 0.960 . S
C716 H702 0.960 . S
C716 H703 0.960 . S
C716 C715 1.524 . S
C717 C714 1.403 . S
C717 C718 1.392 . S
C717 C721 1.495 . S
C718 C717 1.392 . S
C718 C719 1.385 . S
C718 C720 1.478 . S
C719 H713 0.930 . S
C719 C715 1.400 . S
C719 C718 1.385 . S
C720 C718 1.478 . S
C720 C722 1.381 . S
C720 C726 1.383 . S
C721 C717 1.495 . S
C721 H727 0.959 . S
C721 H728 0.961 . S
C721 H729 0.960 . S
C722 C720 1.381 . S
C722 C723 1.394 . S
C722 H730 0.930 . S
C723 C722 1.394 . S
C723 C724 1.383 1_554 S
C723 H731 0.929 1_554 S
C724 C723 1.383 1_556 S
C724 C725 1.377 1_556 S
C725 H709 0.930 1_554 S
C725 C724 1.377 1_554 S
C725 C726 1.379 . S
C726 H710 0.931 . S
C726 C720 1.383 . S
C726 C725 1.379 . S
H727 C721 0.959 . S
H728 C721 0.961 . S
H729 C721 0.960 . S
H730 C722 0.930 . S
H731 C723 0.929 1_556 S
H732 C740 0.929 . S
H733 C742 0.930 . S
H734 C744 0.930 . S
H735 C747 0.929 . S
H736 C750 0.930 . S
H737 C752 0.960 . S
H738 C752 0.960 . S
H739 C752 0.960 . S
C740 H732 0.929 . S
C740 C741 1.377 . S
C740 C742 1.384 . S
C741 C740 1.377 . S
C741 C747 1.390 . S
C742 H733 0.930 . S
C742 C740 1.384 . S
C742 C743 1.372 . S
C743 C742 1.372 . S
C743 C744 1.400 . S
C743 C748 1.490 . S
C744 H734 0.930 . S
C744 C743 1.400 . S
C744 C747 1.386 . S
H745 C761 0.930 . S
H746 C762 0.931 . S
C747 H735 0.929 . S
C747 C741 1.390 . S
C747 C744 1.386 . S
C748 C743 1.490 . S
C748 C750 1.395 . S
C748 C751 1.403 1_655 S
H749 C755 0.930 . S
C750 H736 0.930 . S
C750 C748 1.395 . S
C750 C753 1.403 . S
C751 C748 1.403 1_455 S
C751 C752 1.524 . S
C751 C755 1.400 . S
C752 H737 0.960 . S
C752 H738 0.960 . S
C752 H739 0.960 . S
C752 C751 1.524 . S
C753 C750 1.403 . S
C753 C754 1.392 1_655 S
C753 C757 1.495 . S
C754 C753 1.392 1_455 S
C754 C755 1.385 . S
C754 C756 1.478 . S
C755 H749 0.930 . S
C755 C751 1.400 . S
C755 C754 1.385 . S
C756 C754 1.478 . S
C756 C758 1.381 . S
C756 C762 1.383 . S
C757 C753 1.495 . S
C757 H763 0.959 . S
C757 H764 0.961 . S
C757 H765 0.960 . S
C758 C756 1.381 . S
C758 C759 1.394 . S
C758 H766 0.930 . S
C759 C758 1.394 . S
C759 C760 1.383 . S
C759 H767 0.929 . S
C760 C759 1.383 . S
C760 C761 1.377 . S
C761 H745 0.930 . S
C761 C760 1.377 . S
C761 C762 1.379 . S
C762 H746 0.931 . S
C762 C756 1.383 . S
C762 C761 1.379 . S
H763 C757 0.959 . S
H764 C757 0.961 . S
H765 C757 0.960 . S
H766 C758 0.930 . S
H767 C759 0.929 . S
H768 C776 0.929 . S
H769 C778 0.930 . S
H770 C780 0.930 . S
H771 C783 0.929 . S
H772 C786 0.930 . S
H773 C788 0.960 . S
H774 C788 0.960 . S
H775 C788 0.960 . S
C776 H768 0.929 . S
C776 C777 1.377 . S
C776 C778 1.384 . S
C777 C776 1.377 . S
C777 C783 1.390 . S
C778 H769 0.930 . S
C778 C776 1.384 . S
C778 C779 1.372 . S
C779 C778 1.372 . S
C779 C780 1.400 . S
C779 C784 1.490 . S
C780 H770 0.930 . S
C780 C779 1.400 . S
C780 C783 1.386 . S
H781 C797 0.930 . S
H782 C798 0.931 . S
C783 H771 0.929 . S
C783 C777 1.390 . S
C783 C780 1.386 . S
C784 C779 1.490 . S
C784 C786 1.395 1_545 S
C784 C787 1.403 . S
H785 C791 0.916 . S
C786 H772 0.930 . S
C786 C784 1.395 1_565 S
C786 C789 1.403 . S
C787 C784 1.403 . S
C787 C788 1.524 . S
C787 C791 1.358 1_545 S
C788 H773 0.960 . S
C788 H774 0.960 . S
C788 H775 0.960 . S
C788 C787 1.524 . S
C789 C786 1.403 . S
C789 C790 1.392 . S
C789 C793 1.495 . S
C790 C789 1.392 . S
C790 C791 1.444 . S
C790 C792 1.478 . S
C791 H785 0.916 . S
C791 C787 1.358 1_565 S
C791 C790 1.444 . S
C792 C790 1.478 . S
C792 C794 1.381 . S
C792 C798 1.383 . S
C793 C789 1.495 . S
C793 H799 0.959 . S
C793 H800 0.961 . S
C793 H801 0.960 . S
C794 C792 1.381 . S
C794 C795 1.394 . S
C794 H802 0.930 . S
C795 C794 1.394 . S
C795 C796 1.383 . S
C795 H803 0.929 . S
C796 C795 1.383 . S
C796 C797 1.377 . S
C797 H781 0.930 . S
C797 C796 1.377 . S
C797 C798 1.379 . S
C798 H782 0.931 . S
C798 C792 1.383 . S
C798 C797 1.379 . S
H799 C793 0.959 . S
H800 C793 0.961 . S
H801 C793 0.960 . S
H802 C794 0.930 . S
H803 C795 0.929 . S
H804 C812 0.929 . S
H805 C814 0.930 . S
H806 C816 0.930 . S
H807 C819 0.929 . S
H808 C822 0.930 . S
H809 C824 0.960 . S
H810 C824 0.960 . S
H811 C824 0.960 . S
C812 H804 0.929 . S
C812 C813 1.377 . S
C812 C814 1.384 . S
C813 C812 1.377 . S
C813 C819 1.390 . S
C814 H805 0.930 . S
C814 C812 1.384 . S
C814 C815 1.372 . S
C815 C814 1.372 . S
C815 C816 1.400 . S
C815 C820 1.490 . S
C816 H806 0.930 . S
C816 C815 1.400 . S
C816 C819 1.386 . S
H817 C833 0.930 . S
H818 C834 0.931 . S
C819 H807 0.929 . S
C819 C813 1.390 . S
C819 C816 1.386 . S
C820 C815 1.490 . S
C820 C822 1.395 . S
C820 C823 1.403 . S
H821 C827 0.930 . S
C822 H808 0.930 . S
C822 C820 1.395 . S
C822 C825 1.403 . S
C823 C820 1.403 . S
C823 C824 1.524 . S
C823 C827 1.400 . S
C824 H809 0.960 . S
C824 H810 0.960 . S
C824 H811 0.960 . S
C824 C823 1.524 . S
C825 C822 1.403 . S
C825 C826 1.392 . S
C825 C829 1.495 . S
C826 C825 1.392 . S
C826 C827 1.385 . S
C826 C828 1.478 . S
C827 H821 0.930 . S
C827 C823 1.400 . S
C827 C826 1.385 . S
C828 C826 1.478 . S
C828 C830 1.381 . S
C828 C834 1.383 . S
C829 C825 1.495 . S
C829 H835 0.959 . S
C829 H836 0.961 . S
C829 H837 0.960 . S
C830 C828 1.381 . S
C830 C831 1.394 . S
C830 H838 0.930 . S
C831 C830 1.394 . S
C831 C832 1.383 . S
C831 H839 0.929 . S
C832 C831 1.383 . S
C832 C833 1.377 . S
C833 H817 0.930 . S
C833 C832 1.377 . S
C833 C834 1.379 . S
C834 H818 0.931 . S
C834 C828 1.383 . S
C834 C833 1.379 . S
H835 C829 0.959 . S
H836 C829 0.961 . S
H837 C829 0.960 . S
H838 C830 0.930 . S
H839 C831 0.929 . S
H840 C848 0.929 . S
H841 C850 0.930 . S
H842 C852 0.930 . S
H843 C855 0.929 . S
H844 C858 0.930 . S
H845 C860 0.960 . S
H846 C860 0.960 . S
H847 C860 0.960 . S
C848 H840 0.929 . S
C848 C849 1.377 . S
C848 C850 1.384 . S
C849 C848 1.377 . S
C849 C855 1.390 . S
C850 H841 0.930 . S
C850 C848 1.384 . S
C850 C851 1.372 . S
C851 C850 1.372 . S
C851 C852 1.400 . S
C851 C856 1.490 . S
C852 H842 0.930 . S
C852 C851 1.400 . S
C852 C855 1.386 . S
H853 C869 0.930 . S
H854 C870 0.931 . S
C855 H843 0.929 . S
C855 C849 1.390 . S
C855 C852 1.386 . S
C856 C851 1.490 . S
C856 C858 1.395 . S
C856 C859 1.403 . S
H857 C863 0.930 . S
C858 H844 0.930 . S
C858 C856 1.395 . S
C858 C861 1.403 . S
C859 C856 1.403 . S
C859 C860 1.524 . S
C859 C863 1.400 . S
C860 H845 0.960 . S
C860 H846 0.960 . S
C860 H847 0.960 . S
C860 C859 1.524 . S
C861 C858 1.403 . S
C861 C862 1.392 . S
C861 C865 1.495 . S
C862 C861 1.392 . S
C862 C863 1.385 . S
C862 C864 1.478 . S
C863 H857 0.930 . S
C863 C859 1.400 . S
C863 C862 1.385 . S
C864 C862 1.478 . S
C864 C866 1.381 . S
C864 C870 1.383 . S
C865 C861 1.495 . S
C865 H871 0.959 . S
C865 H872 0.961 . S
C865 H873 0.960 . S
C866 C864 1.381 . S
C866 C867 1.394 . S
C866 H874 0.930 . S
C867 C866 1.394 . S
C867 C868 1.383 . S
C867 H875 0.929 . S
C868 C867 1.383 . S
C868 C869 1.377 . S
C869 H853 0.930 . S
C869 C868 1.377 . S
C869 C870 1.379 . S
C870 H854 0.931 . S
C870 C864 1.383 . S
C870 C869 1.379 . S
H871 C865 0.959 . S
H872 C865 0.961 . S
H873 C865 0.960 . S
H874 C866 0.930 . S
H875 C867 0.929 . S
H876 C884 0.929 . S
H877 C886 0.930 . S
H878 C888 0.930 . S
H879 C891 0.929 . S
H880 C894 0.930 . S
H881 C896 0.960 . S
H882 C896 0.960 . S
H883 C896 0.960 . S
C884 H876 0.929 . S
C884 C885 1.377 . S
C884 C886 1.384 . S
C885 C884 1.377 . S
C885 C891 1.390 . S
C886 H877 0.930 . S
C886 C884 1.384 . S
C886 C887 1.372 . S
C887 C886 1.372 . S
C887 C888 1.400 . S
C887 C892 1.490 . S
C888 H878 0.930 . S
C888 C887 1.400 . S
C888 C891 1.386 . S
H889 C905 0.930 . S
H890 C906 0.931 . S
C891 H879 0.929 . S
C891 C885 1.390 . S
C891 C888 1.386 . S
C892 C887 1.490 . S
C892 C894 1.395 . S
C892 C895 1.403 . S
H893 C899 0.930 . S
C894 H880 0.930 . S
C894 C892 1.395 . S
C894 C897 1.403 . S
C895 C892 1.403 . S
C895 C896 1.524 . S
C895 C899 1.400 . S
C896 H881 0.960 . S
C896 H882 0.960 . S
C896 H883 0.960 . S
C896 C895 1.524 . S
C897 C894 1.403 . S
C897 C898 1.392 . S
C897 C901 1.495 . S
C898 C897 1.392 . S
C898 C899 1.385 . S
C898 C900 1.478 . S
C899 H893 0.930 . S
C899 C895 1.400 . S
C899 C898 1.385 . S
C900 C898 1.478 . S
C900 C902 1.381 . S
C900 C906 1.383 . S
C901 C897 1.495 . S
C901 H907 0.959 . S
C901 H908 0.961 . S
C901 H909 0.960 . S
C902 C900 1.381 . S
C902 C903 1.394 . S
C902 H910 0.930 . S
C903 C902 1.394 . S
C903 C904 1.383 . S
C903 H911 0.929 . S
C904 C903 1.383 . S
C904 C905 1.377 . S
C905 H889 0.930 . S
C905 C904 1.377 . S
C905 C906 1.379 . S
C906 H890 0.931 . S
C906 C900 1.383 . S
C906 C905 1.379 . S
H907 C901 0.959 . S
H908 C901 0.961 . S
H909 C901 0.960 . S
H910 C902 0.930 . S
H911 C903 0.929 . S
H912 C920 0.929 . S
H913 C922 0.930 . S
H914 C924 0.930 . S
H915 C927 0.929 . S
H916 C930 0.930 . S
H917 C932 0.960 . S
H918 C932 0.960 . S
H919 C932 0.960 . S
C920 H912 0.929 . S
C920 C921 1.377 . S
C920 C922 1.384 . S
C921 C920 1.377 . S
C921 C927 1.390 . S
C922 H913 0.930 . S
C922 C920 1.384 . S
C922 C923 1.372 . S
C923 C922 1.372 . S
C923 C924 1.400 . S
C923 C928 1.490 . S
C924 H914 0.930 . S
C924 C923 1.400 . S
C924 C927 1.386 . S
H925 C941 0.930 . S
H926 C942 0.931 . S
C927 H915 0.929 . S
C927 C921 1.390 . S
C927 C924 1.386 . S
C928 C923 1.490 . S
C928 C930 1.395 . S
C928 C931 1.403 . S
H929 C935 0.930 . S
C930 H916 0.930 . S
C930 C928 1.395 . S
C930 C933 1.403 . S
C931 C928 1.403 . S
C931 C932 1.524 . S
C931 C935 1.400 . S
C932 H917 0.960 . S
C932 H918 0.960 . S
C932 H919 0.960 . S
C932 C931 1.524 . S
C933 C930 1.403 . S
C933 C934 1.392 . S
C933 C937 1.495 . S
C934 C933 1.392 . S
C934 C935 1.385 . S
C934 C936 1.478 . S
C935 H929 0.930 . S
C935 C931 1.400 . S
C935 C934 1.385 . S
C936 C934 1.478 . S
C936 C938 1.381 . S
C936 C942 1.383 . S
C937 C933 1.495 . S
C937 H943 0.959 . S
C937 H944 0.961 . S
C937 H945 0.960 . S
C938 C936 1.381 . S
C938 C939 1.394 . S
C938 H946 0.930 . S
C939 C938 1.394 . S
C939 C940 1.383 . S
C939 H947 0.929 . S
C940 C939 1.383 . S
C940 C941 1.377 . S
C941 H925 0.930 . S
C941 C940 1.377 . S
C941 C942 1.379 . S
C942 H926 0.931 . S
C942 C936 1.383 . S
C942 C941 1.379 . S
H943 C937 0.959 . S
H944 C937 0.961 . S
H945 C937 0.960 . S
H946 C938 0.930 . S
H947 C939 0.929 . S
H948 C956 0.929 . S
H949 C958 0.930 . S
H950 C960 0.930 . S
H951 C963 0.929 . S
H952 C966 0.930 . S
H953 C968 0.960 . S
H954 C968 0.960 . S
H955 C968 0.960 . S
C956 H948 0.929 . S
C956 C957 1.377 . S
C956 C958 1.384 . S
C957 C956 1.377 . S
C957 C963 1.390 . S
C958 H949 0.930 . S
C958 C956 1.384 . S
C958 C959 1.372 . S
C959 C958 1.372 . S
C959 C960 1.400 . S
C959 C964 1.490 . S
C960 H950 0.930 . S
C960 C959 1.400 . S
C960 C963 1.386 . S
H961 C977 0.930 . S
H962 C978 0.931 . S
C963 H951 0.929 . S
C963 C957 1.390 . S
C963 C960 1.386 . S
C964 C959 1.490 . S
C964 C966 1.395 . S
C964 C967 1.403 . S
H965 C971 0.930 . S
C966 H952 0.930 . S
C966 C964 1.395 . S
C966 C969 1.403 . S
C967 C964 1.403 . S
C967 C968 1.524 . S
C967 C971 1.400 . S
C968 H953 0.960 . S
C968 H954 0.960 . S
C968 H955 0.960 . S
C968 C967 1.524 . S
C969 C966 1.403 . S
C969 C970 1.392 . S
C969 C973 1.495 . S
C970 C969 1.392 . S
C970 C971 1.385 . S
C970 C972 1.478 . S
C971 H965 0.930 . S
C971 C967 1.400 . S
C971 C970 1.385 . S
C972 C970 1.478 . S
C972 C974 1.381 . S
C972 C978 1.383 . S
C973 C969 1.495 . S
C973 H979 0.959 . S
C973 H980 0.961 . S
C973 H981 0.960 . S
C974 C972 1.381 . S
C974 C975 1.394 . S
C974 H982 0.930 . S
C975 C974 1.394 . S
C975 C976 1.383 . S
C975 H983 0.929 . S
C976 C975 1.383 . S
C976 C977 1.377 . S
C977 H961 0.930 . S
C977 C976 1.377 . S
C977 C978 1.379 . S
C978 H962 0.931 . S
C978 C972 1.383 . S
C978 C977 1.379 . S
H979 C973 0.959 . S
H980 C973 0.961 . S
H981 C973 0.960 . S
H982 C974 0.930 . S
H983 C975 0.929 . S
H984 C992 0.929 . S
H985 C994 0.930 . S
H986 C996 0.930 . S
H987 C999 0.929 . S
H988 C1002 0.930 . S
H989 C1004 0.960 . S
H990 C1004 0.960 . S
H991 C1004 0.960 . S
C992 H984 0.929 . S
C992 C993 1.377 . S
C992 C994 1.384 . S
C993 C992 1.377 . S
C993 C999 1.390 . S
C994 H985 0.930 . S
C994 C992 1.384 . S
C994 C995 1.372 . S
C995 C994 1.372 . S
C995 C996 1.400 . S
C995 C1000 1.490 . S
C996 H986 0.930 . S
C996 C995 1.400 . S
C996 C999 1.386 . S
H997 C1013 0.930 . S
H998 C1014 0.931 . S
C999 H987 0.929 . S
C999 C993 1.390 . S
C999 C996 1.386 . S
C1000 C995 1.490 . S
C1000 C1002 1.395 . S
C1000 C1003 1.403 . S
H1001 C1007 0.930 . S
C1002 H988 0.930 . S
C1002 C1000 1.395 . S
C1002 C1005 1.403 . S
C1003 C1000 1.403 . S
C1003 C1004 1.524 . S
C1003 C1007 1.400 . S
C1004 H989 0.960 . S
C1004 H990 0.960 . S
C1004 H991 0.960 . S
C1004 C1003 1.524 . S
C1005 C1002 1.403 . S
C1005 C1006 1.392 . S
C1005 C1009 1.495 . S
C1006 C1005 1.392 . S
C1006 C1007 1.385 . S
C1006 C1008 1.478 . S
C1007 H1001 0.930 . S
C1007 C1003 1.400 . S
C1007 C1006 1.385 . S
C1008 C1006 1.478 . S
C1008 C1010 1.381 1_556 S
C1008 C1014 1.383 . S
C1009 C1005 1.495 . S
C1009 H1015 0.959 . S
C1009 H1016 0.961 . S
C1009 H1017 0.960 1_556 S
C1010 C1008 1.381 1_554 S
C1010 C1011 1.394 . S
C1010 H1018 0.930 . S
C1011 C1010 1.394 . S
C1011 C1012 1.383 . S
C1011 H1019 0.929 . S
C1012 C1011 1.383 . S
C1012 C1013 1.377 1_554 S
C1013 H997 0.930 . S
C1013 C1012 1.377 1_556 S
C1013 C1014 1.379 . S
C1014 H998 0.931 . S
C1014 C1008 1.383 . S
C1014 C1013 1.379 . S
H1015 C1009 0.959 . S
H1016 C1009 0.961 . S
H1017 C1009 0.960 1_554 S
H1018 C1010 0.930 . S
H1019 C1011 0.929 . S
H1020 C1028 0.929 . S
H1021 C1030 0.930 . S
H1022 C1032 0.930 . S
H1023 C1035 0.929 . S
H1024 C1038 0.930 . S
H1025 C1040 0.960 1_556 S
H1026 C1040 0.960 . S
H1027 C1040 0.960 . S
C1028 H1020 0.929 . S
C1028 C1029 1.377 . S
C1028 C1030 1.384 . S
C1029 C1028 1.377 . S
C1029 C1035 1.390 . S
C1030 H1021 0.930 . S
C1030 C1028 1.384 . S
C1030 C1031 1.372 . S
C1031 C1030 1.372 . S
C1031 C1032 1.400 . S
C1031 C1036 1.490 . S
C1032 H1022 0.930 . S
C1032 C1031 1.400 . S
C1032 C1035 1.386 . S
H1033 C1049 0.930 . S
H1034 C1050 0.931 . S
C1035 H1023 0.929 . S
C1035 C1029 1.390 . S
C1035 C1032 1.386 . S
C1036 C1031 1.490 . S
C1036 C1038 1.395 . S
C1036 C1039 1.403 . S
H1037 C1043 0.930 1_556 S
C1038 H1024 0.930 . S
C1038 C1036 1.395 . S
C1038 C1041 1.403 . S
C1039 C1036 1.403 . S
C1039 C1040 1.524 . S
C1039 C1043 1.400 . S
C1040 H1025 0.960 1_554 S
C1040 H1026 0.960 . S
C1040 H1027 0.960 . S
C1040 C1039 1.524 . S
C1041 C1038 1.403 . S
C1041 C1042 1.392 . S
C1041 C1045 1.495 . S
C1042 C1041 1.392 . S
C1042 C1043 1.385 . S
C1042 C1044 1.478 . S
C1043 H1037 0.930 1_554 S
C1043 C1039 1.400 . S
C1043 C1042 1.385 . S
C1044 C1042 1.478 . S
C1044 C1046 1.381 . S
C1044 C1050 1.383 . S
C1045 C1041 1.495 . S
C1045 H1051 0.959 . S
C1045 H1052 0.961 . S
C1045 H1053 0.960 . S
C1046 C1044 1.381 . S
C1046 C1047 1.394 1_554 S
C1046 H1054 0.930 . S
C1047 C1046 1.394 1_556 S
C1047 C1048 1.383 . S
C1047 H1055 0.929 . S
C1048 C1047 1.383 . S
C1048 C1049 1.377 . S
C1049 H1033 0.930 . S
C1049 C1048 1.377 . S
C1049 C1050 1.379 1_556 S
C1050 H1034 0.931 . S
C1050 C1044 1.383 . S
C1050 C1049 1.379 1_554 S
H1051 C1045 0.959 . S
H1052 C1045 0.961 . S
H1053 C1045 0.960 . S
H1054 C1046 0.930 . S
H1055 C1047 0.929 . S
H1056 C1064 0.929 . S
H1057 C1066 0.930 . S
H1058 C1068 0.930 . S
H1059 C1071 0.929 . S
H1060 C1074 0.930 . S
H1061 C1076 0.960 . S
H1062 C1076 0.960 . S
H1063 C1076 0.960 . S
C1064 H1056 0.929 . S
C1064 C1065 1.377 . S
C1064 C1066 1.384 . S
C1065 C1064 1.377 . S
C1065 C1071 1.390 . S
C1066 H1057 0.930 . S
C1066 C1064 1.384 . S
C1066 C1067 1.372 . S
C1067 C1066 1.372 . S
C1067 C1068 1.400 . S
C1067 C1072 1.490 . S
C1068 H1058 0.930 . S
C1068 C1067 1.400 . S
C1068 C1071 1.386 . S
H1069 C1085 0.930 . S
H1070 C1086 0.931 . S
C1071 H1059 0.929 . S
C1071 C1065 1.390 . S
C1071 C1068 1.386 . S
C1072 C1067 1.490 . S
C1072 C1074 1.395 . S
C1072 C1075 1.403 . S
H1073 C1079 0.930 . S
C1074 H1060 0.930 . S
C1074 C1072 1.395 . S
C1074 C1077 1.403 . S
C1075 C1072 1.403 . S
C1075 C1076 1.524 . S
C1075 C1079 1.400 . S
C1076 H1061 0.960 . S
C1076 H1062 0.960 . S
C1076 H1063 0.960 . S
C1076 C1075 1.524 . S
C1077 C1074 1.403 . S
C1077 C1078 1.392 . S
C1077 C1081 1.495 . S
C1078 C1077 1.392 . S
C1078 C1079 1.385 . S
C1078 C1080 1.478 . S
C1079 H1073 0.930 . S
C1079 C1075 1.400 . S
C1079 C1078 1.385 . S
C1080 C1078 1.478 . S
C1080 C1082 1.381 . S
C1080 C1086 1.383 . S
C1081 C1077 1.495 . S
C1081 H1087 0.959 . S
C1081 H1088 0.961 . S
C1081 H1089 0.960 . S
C1082 C1080 1.381 . S
C1082 C1083 1.394 . S
C1082 H1090 0.930 . S
C1083 C1082 1.394 . S
C1083 C1084 1.383 . S
C1083 H1091 0.929 . S
C1084 C1083 1.383 . S
C1084 C1085 1.377 . S
C1085 H1069 0.930 . S
C1085 C1084 1.377 . S
C1085 C1086 1.379 . S
C1086 H1070 0.931 . S
C1086 C1080 1.383 . S
C1086 C1085 1.379 . S
H1087 C1081 0.959 . S
H1088 C1081 0.961 . S
H1089 C1081 0.960 . S
H1090 C1082 0.930 . S
H1091 C1083 0.929 . S
H1092 C1100 0.930 1_554 S
H1093 C1102 0.930 . S
H1094 C1104 0.930 . S
H1095 C1107 0.929 1_554 S
H1096 C1110 0.930 . S
H1097 C1112 0.960 . S
H1098 C1112 0.960 . S
H1099 C1112 0.960 . S
C1100 H1092 0.930 1_556 S
C1100 C1101 1.378 1_556 S
C1100 C1102 1.383 . S
C1101 C1100 1.378 1_554 S
C1101 C1107 1.390 1_554 S
C1102 H1093 0.930 . S
C1102 C1100 1.383 . S
C1102 C1103 1.372 . S
C1103 C1102 1.372 . S
C1103 C1104 1.400 . S
C1103 C1108 1.490 . S
C1104 H1094 0.930 . S
C1104 C1103 1.400 . S
C1104 C1107 1.386 . S
H1105 C1121 0.930 . S
H1106 C1122 0.931 . S
C1107 H1095 0.929 1_556 S
C1107 C1101 1.390 1_556 S
C1107 C1104 1.386 . S
C1108 C1103 1.490 . S
C1108 C1110 1.395 . S
C1108 C1111 1.403 . S
H1109 C1115 0.930 . S
C1110 H1096 0.930 . S
C1110 C1108 1.395 . S
C1110 C1113 1.403 . S
C1111 C1108 1.403 . S
C1111 C1112 1.524 . S
C1111 C1115 1.400 . S
C1112 H1097 0.960 . S
C1112 H1098 0.960 . S
C1112 H1099 0.960 . S
C1112 C1111 1.524 . S
C1113 C1110 1.403 . S
C1113 C1114 1.392 . S
C1113 C1117 1.495 . S
C1114 C1113 1.392 . S
C1114 C1115 1.385 . S
C1114 C1116 1.478 . S
C1115 H1109 0.930 . S
C1115 C1111 1.400 . S
C1115 C1114 1.385 . S
C1116 C1114 1.478 . S
C1116 C1118 1.381 . S
C1116 C1122 1.383 . S
C1117 C1113 1.495 . S
C1117 H1123 0.959 . S
C1117 H1124 0.961 . S
C1117 H1125 0.960 . S
C1118 C1116 1.381 . S
C1118 C1119 1.394 . S
C1118 H1126 0.930 . S
C1119 C1118 1.394 . S
C1119 C1120 1.383 . S
C1119 H1127 0.929 . S
C1120 C1119 1.383 . S
C1120 C1121 1.377 . S
C1121 H1105 0.930 . S
C1121 C1120 1.377 . S
C1121 C1122 1.379 . S
C1122 H1106 0.931 . S
C1122 C1116 1.383 . S
C1122 C1121 1.379 . S
H1123 C1117 0.959 . S
H1124 C1117 0.961 . S
H1125 C1117 0.960 . S
H1126 C1118 0.930 . S
H1127 C1119 0.929 . S
H1128 C1136 0.929 . S
H1129 C1138 0.930 . S
H1130 C1140 0.930 . S
H1131 C1143 0.929 . S
H1132 C1146 0.930 . S
H1133 C1148 0.960 . S
H1134 C1148 0.960 . S
H1135 C1148 0.960 . S
C1136 H1128 0.929 . S
C1136 C1137 1.377 . S
C1136 C1138 1.384 . S
C1137 C1136 1.377 . S
C1137 C1143 1.390 . S
C1138 H1129 0.930 . S
C1138 C1136 1.384 . S
C1138 C1139 1.372 . S
C1139 C1138 1.372 . S
C1139 C1140 1.400 . S
C1139 C1144 1.490 . S
C1140 H1130 0.930 . S
C1140 C1139 1.400 . S
C1140 C1143 1.386 . S
H1141 C1157 0.930 . S
H1142 C1158 0.931 . S
C1143 H1131 0.929 . S
C1143 C1137 1.390 . S
C1143 C1140 1.386 . S
C1144 C1139 1.490 . S
C1144 C1146 1.395 . S
C1144 C1147 1.403 . S
H1145 C1151 0.930 . S
C1146 H1132 0.930 . S
C1146 C1144 1.395 . S
C1146 C1149 1.403 . S
C1147 C1144 1.403 . S
C1147 C1148 1.524 . S
C1147 C1151 1.400 . S
C1148 H1133 0.960 . S
C1148 H1134 0.960 . S
C1148 H1135 0.960 . S
C1148 C1147 1.524 . S
C1149 C1146 1.403 . S
C1149 C1150 1.392 1_556 S
C1149 C1153 1.495 1_556 S
C1150 C1149 1.392 1_554 S
C1150 C1151 1.385 1_554 S
C1150 C1152 1.478 . S
C1151 H1145 0.930 . S
C1151 C1147 1.400 . S
C1151 C1150 1.385 1_556 S
C1152 C1150 1.478 . S
C1152 C1154 1.381 . S
C1152 C1158 1.383 . S
C1153 C1149 1.495 1_554 S
C1153 H1159 0.959 1_554 S
C1153 H1160 0.961 . S
C1153 H1161 0.960 . S
C1154 C1152 1.381 . S
C1154 C1155 1.394 . S
C1154 H1162 0.930 . S
C1155 C1154 1.394 . S
C1155 C1156 1.383 . S
C1155 H1163 0.929 . S
C1156 C1155 1.383 . S
C1156 C1157 1.377 . S
C1157 H1141 0.930 . S
C1157 C1156 1.377 . S
C1157 C1158 1.379 . S
C1158 H1142 0.931 . S
C1158 C1152 1.383 . S
C1158 C1157 1.379 . S
H1159 C1153 0.959 1_556 S
H1160 C1153 0.961 . S
H1161 C1153 0.960 . S
H1162 C1154 0.930 . S
H1163 C1155 0.929 . S
H1164 C1172 0.929 . S
H1165 C1174 0.930 . S
H1166 C1176 0.930 . S
H1167 C1179 0.929 . S
H1168 C1182 0.930 . S
H1169 C1184 0.960 . S
H1170 C1184 0.960 . S
H1171 C1184 0.960 . S
C1172 H1164 0.929 . S
C1172 C1173 1.377 . S
C1172 C1174 1.384 . S
C1173 C1172 1.377 . S
C1173 C1179 1.390 . S
C1174 H1165 0.930 . S
C1174 C1172 1.384 . S
C1174 C1175 1.372 . S
C1175 C1174 1.372 . S
C1175 C1176 1.400 . S
C1175 C1180 1.490 1_556 S
C1176 H1166 0.930 . S
C1176 C1175 1.400 . S
C1176 C1179 1.386 . S
H1177 C1193 0.930 . S
H1178 C1194 0.931 . S
C1179 H1167 0.929 . S
C1179 C1173 1.390 . S
C1179 C1176 1.386 . S
C1180 C1175 1.490 1_554 S
C1180 C1182 1.395 . S
C1180 C1183 1.403 . S
H1181 C1187 0.930 . S
C1182 H1168 0.930 . S
C1182 C1180 1.395 . S
C1182 C1185 1.403 . S
C1183 C1180 1.403 . S
C1183 C1184 1.524 . S
C1183 C1187 1.400 . S
C1184 H1169 0.960 . S
C1184 H1170 0.960 . S
C1184 H1171 0.960 . S
C1184 C1183 1.524 . S
C1185 C1182 1.403 . S
C1185 C1186 1.392 . S
C1185 C1189 1.495 . S
C1186 C1185 1.392 . S
C1186 C1187 1.385 . S
C1186 C1188 1.478 . S
C1187 H1181 0.930 . S
C1187 C1183 1.400 . S
C1187 C1186 1.385 . S
C1188 C1186 1.478 . S
C1188 C1190 1.381 . S
C1188 C1194 1.383 . S
C1189 C1185 1.495 . S
C1189 H1195 0.959 . S
C1189 H1196 0.961 . S
C1189 H1197 0.960 . S
C1190 C1188 1.381 . S
C1190 C1191 1.394 . S
C1190 H1198 0.930 . S
C1191 C1190 1.394 . S
C1191 C1192 1.383 . S
C1191 H1199 0.929 . S
C1192 C1191 1.383 . S
C1192 C1193 1.377 . S
C1193 H1177 0.930 . S
C1193 C1192 1.377 . S
C1193 C1194 1.379 . S
C1194 H1178 0.931 . S
C1194 C1188 1.383 . S
C1194 C1193 1.379 . S
H1195 C1189 0.959 . S
H1196 C1189 0.961 . S
H1197 C1189 0.960 . S
H1198 C1190 0.930 . S
H1199 C1191 0.929 . S
H1200 C1208 0.929 . S
H1201 C1210 0.930 . S
H1202 C1212 0.930 . S
H1203 C1215 0.929 . S
H1204 C1218 0.930 . S
H1205 C1220 0.960 . S
H1206 C1220 0.960 . S
H1207 C1220 0.960 . S
C1208 H1200 0.929 . S
C1208 C1209 1.377 . S
C1208 C1210 1.384 . S
C1209 C1208 1.377 . S
C1209 C1215 1.390 . S
C1210 H1201 0.930 . S
C1210 C1208 1.384 . S
C1210 C1211 1.372 . S
C1211 C1210 1.372 . S
C1211 C1212 1.400 . S
C1211 C1216 1.490 . S
C1212 H1202 0.930 . S
C1212 C1211 1.400 . S
C1212 C1215 1.386 . S
H1213 C1229 0.930 . S
H1214 C1230 0.931 . S
C1215 H1203 0.929 . S
C1215 C1209 1.390 . S
C1215 C1212 1.386 . S
C1216 C1211 1.490 . S
C1216 C1218 1.395 . S
C1216 C1219 1.403 . S
H1217 C1223 0.930 . S
C1218 H1204 0.930 . S
C1218 C1216 1.395 . S
C1218 C1221 1.403 . S
C1219 C1216 1.403 . S
C1219 C1220 1.524 . S
C1219 C1223 1.400 . S
C1220 H1205 0.960 . S
C1220 H1206 0.960 . S
C1220 H1207 0.960 . S
C1220 C1219 1.524 . S
C1221 C1218 1.403 . S
C1221 C1222 1.392 . S
C1221 C1225 1.495 . S
C1222 C1221 1.392 . S
C1222 C1223 1.385 . S
C1222 C1224 1.478 . S
C1223 H1217 0.930 . S
C1223 C1219 1.400 . S
C1223 C1222 1.385 . S
C1224 C1222 1.478 . S
C1224 C1226 1.381 . S
C1224 C1230 1.383 . S
C1225 C1221 1.495 . S
C1225 H1231 0.959 . S
C1225 H1232 0.961 . S
C1225 H1233 0.960 . S
C1226 C1224 1.381 . S
C1226 C1227 1.394 . S
C1226 H1234 0.930 . S
C1227 C1226 1.394 . S
C1227 C1228 1.383 . S
C1227 H1235 0.929 . S
C1228 C1227 1.383 . S
C1228 C1229 1.377 . S
C1229 H1213 0.930 . S
C1229 C1228 1.377 . S
C1229 C1230 1.379 . S
C1230 H1214 0.931 . S
C1230 C1224 1.383 . S
C1230 C1229 1.379 . S
H1231 C1225 0.959 . S
H1232 C1225 0.961 . S
H1233 C1225 0.960 . S
H1234 C1226 0.930 . S
H1235 C1227 0.929 . S
H1236 C1244 0.929 . S
H1237 C1246 0.930 . S
H1238 C1248 0.930 . S
H1239 C1251 0.929 . S
H1240 C1254 0.930 . S
H1241 C1256 0.960 . S
H1242 C1256 0.960 . S
H1243 C1256 0.960 . S
C1244 H1236 0.929 . S
C1244 C1245 1.377 . S
C1244 C1246 1.384 . S
C1245 C1244 1.377 . S
C1245 C1251 1.390 . S
C1246 H1237 0.930 . S
C1246 C1244 1.384 . S
C1246 C1247 1.372 . S
C1247 C1246 1.372 . S
C1247 C1248 1.400 . S
C1247 C1252 1.490 . S
C1248 H1238 0.930 . S
C1248 C1247 1.400 . S
C1248 C1251 1.386 . S
H1249 C1265 0.930 . S
H1250 C1266 0.931 . S
C1251 H1239 0.929 . S
C1251 C1245 1.390 . S
C1251 C1248 1.386 . S
C1252 C1247 1.490 . S
C1252 C1254 1.395 . S
C1252 C1255 1.403 . S
H1253 C1259 0.930 . S
C1254 H1240 0.930 . S
C1254 C1252 1.395 . S
C1254 C1257 1.403 . S
C1255 C1252 1.403 . S
C1255 C1256 1.524 . S
C1255 C1259 1.400 . S
C1256 H1241 0.960 . S
C1256 H1242 0.960 . S
C1256 H1243 0.960 . S
C1256 C1255 1.524 . S
C1257 C1254 1.403 . S
C1257 C1258 1.392 . S
C1257 C1261 1.495 . S
C1258 C1257 1.392 . S
C1258 C1259 1.385 . S
C1258 C1260 1.478 . S
C1259 H1253 0.930 . S
C1259 C1255 1.400 . S
C1259 C1258 1.385 . S
C1260 C1258 1.478 . S
C1260 C1262 1.381 . S
C1260 C1266 1.383 . S
C1261 C1257 1.495 . S
C1261 H1267 0.959 . S
C1261 H1268 0.961 . S
C1261 H1269 0.960 . S
C1262 C1260 1.381 . S
C1262 C1263 1.394 . S
C1262 H1270 0.930 . S
C1263 C1262 1.394 . S
C1263 C1264 1.383 . S
C1263 H1271 0.929 . S
C1264 C1263 1.383 . S
C1264 C1265 1.377 . S
C1265 H1249 0.930 . S
C1265 C1264 1.377 . S
C1265 C1266 1.379 . S
C1266 H1250 0.931 . S
C1266 C1260 1.383 . S
C1266 C1265 1.379 . S
H1267 C1261 0.959 . S
H1268 C1261 0.961 . S
H1269 C1261 0.960 . S
H1270 C1262 0.930 . S
H1271 C1263 0.929 . S
H1272 C1280 0.937 . S
H1273 C1282 0.930 . S
H1274 C1284 0.930 . S
H1275 C1287 0.929 1_556 S
H1276 C1290 0.930 . S
H1277 C1292 0.960 . S
H1278 C1292 0.960 . S
H1279 C1292 0.960 . S
C1280 H1272 0.937 . S
C1280 C1281 1.383 . S
C1280 C1282 1.370 1_556 S
C1281 C1280 1.383 . S
C1281 C1287 1.390 1_556 S
C1282 H1273 0.930 . S
C1282 C1280 1.370 1_554 S
C1282 C1283 1.372 . S
C1283 C1282 1.372 . S
C1283 C1284 1.400 . S
C1283 C1288 1.490 . S
C1284 H1274 0.930 . S
C1284 C1283 1.400 . S
C1284 C1287 1.386 . S
H1285 C1301 0.930 . S
H1286 C1302 0.931 . S
C1287 H1275 0.929 1_554 S
C1287 C1281 1.390 1_554 S
C1287 C1284 1.386 . S
C1288 C1283 1.490 . S
C1288 C1290 1.395 . S
C1288 C1291 1.403 . S
H1289 C1295 0.930 . S
C1290 H1276 0.930 . S
C1290 C1288 1.395 . S
C1290 C1293 1.403 . S
C1291 C1288 1.403 . S
C1291 C1292 1.524 . S
C1291 C1295 1.400 . S
C1292 H1277 0.960 . S
C1292 H1278 0.960 . S
C1292 H1279 0.960 . S
C1292 C1291 1.524 . S
C1293 C1290 1.403 . S
C1293 C1294 1.392 . S
C1293 C1297 1.495 . S
C1294 C1293 1.392 . S
C1294 C1295 1.385 . S
C1294 C1296 1.478 . S
C1295 H1289 0.930 . S
C1295 C1291 1.400 . S
C1295 C1294 1.385 . S
C1296 C1294 1.478 . S
C1296 C1298 1.381 . S
C1296 C1302 1.383 . S
C1297 C1293 1.495 . S
C1297 H1303 0.959 . S
C1297 H1304 0.961 . S
C1297 H1305 0.960 . S
C1298 C1296 1.381 . S
C1298 C1299 1.394 . S
C1298 H1306 0.930 . S
C1299 C1298 1.394 . S
C1299 C1300 1.383 . S
C1299 H1307 0.929 . S
C1300 C1299 1.383 . S
C1300 C1301 1.377 . S
C1301 H1285 0.930 . S
C1301 C1300 1.377 . S
C1301 C1302 1.379 . S
C1302 H1286 0.931 . S
C1302 C1296 1.383 . S
C1302 C1301 1.379 . S
H1303 C1297 0.959 . S
H1304 C1297 0.961 . S
H1305 C1297 0.960 . S
H1306 C1298 0.930 . S
H1307 C1299 0.929 . S
H1308 C1316 0.929 . S
H1309 C1318 0.930 . S
H1310 C1320 0.930 . S
H1311 C1323 0.929 . S
H1312 C1326 0.930 . S
H1313 C1328 0.960 . S
H1314 C1328 0.960 . S
H1315 C1328 0.960 . S
C1316 H1308 0.929 . S
C1316 C1317 1.377 . S
C1316 C1318 1.384 . S
C1317 C1316 1.377 . S
C1317 C1323 1.390 . S
C1318 H1309 0.930 . S
C1318 C1316 1.384 . S
C1318 C1319 1.372 . S
C1319 C1318 1.372 . S
C1319 C1320 1.400 . S
C1319 C1324 1.490 . S
C1320 H1310 0.930 . S
C1320 C1319 1.400 . S
C1320 C1323 1.386 . S
H1321 C1337 0.930 . S
H1322 C1338 0.931 . S
C1323 H1311 0.929 . S
C1323 C1317 1.390 . S
C1323 C1320 1.386 . S
C1324 C1319 1.490 . S
C1324 C1326 1.395 . S
C1324 C1327 1.403 . S
H1325 C1331 0.930 . S
C1326 H1312 0.930 . S
C1326 C1324 1.395 . S
C1326 C1329 1.403 . S
C1327 C1324 1.403 . S
C1327 C1328 1.524 . S
C1327 C1331 1.400 . S
C1328 H1313 0.960 . S
C1328 H1314 0.960 . S
C1328 H1315 0.960 . S
C1328 C1327 1.524 . S
C1329 C1326 1.403 . S
C1329 C1330 1.392 . S
C1329 C1333 1.495 . S
C1330 C1329 1.392 . S
C1330 C1331 1.385 . S
C1330 C1332 1.478 . S
C1331 H1325 0.930 . S
C1331 C1327 1.400 . S
C1331 C1330 1.385 . S
C1332 C1330 1.478 . S
C1332 C1334 1.381 . S
C1332 C1338 1.383 . S
C1333 C1329 1.495 . S
C1333 H1339 0.959 . S
C1333 H1340 0.961 . S
C1333 H1341 0.960 . S
C1334 C1332 1.381 . S
C1334 C1335 1.394 . S
C1334 H1342 0.930 . S
C1335 C1334 1.394 . S
C1335 C1336 1.383 . S
C1335 H1343 0.929 . S
C1336 C1335 1.383 . S
C1336 C1337 1.377 . S
C1337 H1321 0.930 . S
C1337 C1336 1.377 . S
C1337 C1338 1.379 . S
C1338 H1322 0.931 . S
C1338 C1332 1.383 . S
C1338 C1337 1.379 . S
H1339 C1333 0.959 . S
H1340 C1333 0.961 . S
H1341 C1333 0.960 . S
H1342 C1334 0.930 . S
H1343 C1335 0.929 . S
H1344 C1352 0.929 . S
H1345 C1354 0.930 . S
H1346 C1356 0.930 . S
H1347 C1359 0.929 . S
H1348 C1362 0.930 . S
H1349 C1364 0.960 . S
H1350 C1364 0.960 . S
H1351 C1364 0.960 . S
C1352 H1344 0.929 . S
C1352 C1353 1.377 . S
C1352 C1354 1.384 . S
C1353 C1352 1.377 . S
C1353 C1359 1.390 . S
C1354 H1345 0.930 . S
C1354 C1352 1.384 . S
C1354 C1355 1.372 . S
C1355 C1354 1.372 . S
C1355 C1356 1.400 . S
C1355 C1360 1.490 . S
C1356 H1346 0.930 . S
C1356 C1355 1.400 . S
C1356 C1359 1.386 . S
H1357 C1373 0.930 . S
H1358 C1374 0.931 . S
C1359 H1347 0.929 . S
C1359 C1353 1.390 . S
C1359 C1356 1.386 . S
C1360 C1355 1.490 . S
C1360 C1362 1.395 . S
C1360 C1363 1.403 . S
H1361 C1367 0.930 . S
C1362 H1348 0.930 . S
C1362 C1360 1.395 . S
C1362 C1365 1.403 . S
C1363 C1360 1.403 . S
C1363 C1364 1.524 . S
C1363 C1367 1.400 . S
C1364 H1349 0.960 . S
C1364 H1350 0.960 . S
C1364 H1351 0.960 . S
C1364 C1363 1.524 . S
C1365 C1362 1.403 . S
C1365 C1366 1.392 . S
C1365 C1369 1.495 . S
C1366 C1365 1.392 . S
C1366 C1367 1.385 . S
C1366 C1368 1.478 . S
C1367 H1361 0.930 . S
C1367 C1363 1.400 . S
C1367 C1366 1.385 . S
C1368 C1366 1.478 . S
C1368 C1370 1.381 . S
C1368 C1374 1.383 . S
C1369 C1365 1.495 . S
C1369 H1375 0.959 . S
C1369 H1376 0.961 . S
C1369 H1377 0.960 . S
C1370 C1368 1.381 . S
C1370 C1371 1.394 . S
C1370 H1378 0.930 . S
C1371 C1370 1.394 . S
C1371 C1372 1.383 . S
C1371 H1379 0.929 . S
C1372 C1371 1.383 . S
C1372 C1373 1.377 . S
C1373 H1357 0.930 . S
C1373 C1372 1.377 . S
C1373 C1374 1.379 . S
C1374 H1358 0.931 . S
C1374 C1368 1.383 . S
C1374 C1373 1.379 . S
H1375 C1369 0.959 . S
H1376 C1369 0.961 . S
H1377 C1369 0.960 . S
H1378 C1370 0.930 . S
H1379 C1371 0.929 . S
H1380 C1388 0.929 . S
H1381 C1390 0.930 . S
H1382 C1392 0.930 . S
H1383 C1395 0.929 . S
H1384 C1398 0.930 . S
H1385 C1400 0.960 . S
H1386 C1400 0.960 . S
H1387 C1400 0.960 . S
C1388 H1380 0.929 . S
C1388 C1389 1.377 . S
C1388 C1390 1.384 . S
C1389 C1388 1.377 . S
C1389 C1395 1.390 . S
C1390 H1381 0.930 . S
C1390 C1388 1.384 . S
C1390 C1391 1.372 . S
C1391 C1390 1.372 . S
C1391 C1392 1.400 . S
C1391 C1396 1.490 . S
C1392 H1382 0.930 . S
C1392 C1391 1.400 . S
C1392 C1395 1.386 . S
H1393 C1409 0.930 . S
H1394 C1410 0.931 . S
C1395 H1383 0.929 . S
C1395 C1389 1.390 . S
C1395 C1392 1.386 . S
C1396 C1391 1.490 . S
C1396 C1398 1.395 . S
C1396 C1399 1.403 . S
H1397 C1403 0.930 . S
C1398 H1384 0.930 . S
C1398 C1396 1.395 . S
C1398 C1401 1.403 . S
C1399 C1396 1.403 . S
C1399 C1400 1.524 . S
C1399 C1403 1.400 . S
C1400 H1385 0.960 . S
C1400 H1386 0.960 . S
C1400 H1387 0.960 . S
C1400 C1399 1.524 . S
C1401 C1398 1.403 . S
C1401 C1402 1.392 . S
C1401 C1405 1.495 . S
C1402 C1401 1.392 . S
C1402 C1403 1.385 . S
C1402 C1404 1.478 . S
C1403 H1397 0.930 . S
C1403 C1399 1.400 . S
C1403 C1402 1.385 . S
C1404 C1402 1.478 . S
C1404 C1406 1.381 . S
C1404 C1410 1.383 . S
C1405 C1401 1.495 . S
C1405 H1411 0.959 . S
C1405 H1412 0.961 . S
C1405 H1413 0.960 . S
C1406 C1404 1.381 . S
C1406 C1407 1.394 . S
C1406 H1414 0.930 . S
C1407 C1406 1.394 . S
C1407 C1408 1.383 . S
C1407 H1415 0.929 . S
C1408 C1407 1.383 . S
C1408 C1409 1.377 . S
C1409 H1393 0.930 . S
C1409 C1408 1.377 . S
C1409 C1410 1.379 . S
C1410 H1394 0.931 . S
C1410 C1404 1.383 . S
C1410 C1409 1.379 . S
H1411 C1405 0.959 . S
H1412 C1405 0.961 . S
H1413 C1405 0.960 . S
H1414 C1406 0.930 . S
H1415 C1407 0.929 . S
H1416 C1424 0.929 . S
H1417 C1426 0.930 . S
H1418 C1428 0.930 . S
H1419 C1431 0.929 . S
H1420 C1434 0.930 . S
H1421 C1436 0.960 . S
H1422 C1436 0.960 . S
H1423 C1436 0.960 . S
C1424 H1416 0.929 . S
C1424 C1425 1.377 . S
C1424 C1426 1.384 . S
C1425 C1424 1.377 . S
C1425 C1431 1.390 . S
C1426 H1417 0.930 . S
C1426 C1424 1.384 . S
C1426 C1427 1.372 . S
C1427 C1426 1.372 . S
C1427 C1428 1.400 . S
C1427 C1432 1.490 . S
C1428 H1418 0.930 . S
C1428 C1427 1.400 . S
C1428 C1431 1.386 . S
H1429 C1445 0.930 . S
H1430 C1446 0.931 . S
C1431 H1419 0.929 . S
C1431 C1425 1.390 . S
C1431 C1428 1.386 . S
C1432 C1427 1.490 . S
C1432 C1434 1.395 . S
C1432 C1435 1.403 . S
H1433 C1439 0.930 . S
C1434 H1420 0.930 . S
C1434 C1432 1.395 . S
C1434 C1437 1.403 . S
C1435 C1432 1.403 . S
C1435 C1436 1.524 . S
C1435 C1439 1.400 . S
C1436 H1421 0.960 . S
C1436 H1422 0.960 . S
C1436 H1423 0.960 . S
C1436 C1435 1.524 . S
C1437 C1434 1.403 . S
C1437 C1438 1.392 . S
C1437 C1441 1.495 . S
C1438 C1437 1.392 . S
C1438 C1439 1.385 . S
C1438 C1440 1.478 1_556 S
C1439 H1433 0.930 . S
C1439 C1435 1.400 . S
C1439 C1438 1.385 . S
C1440 C1438 1.478 1_554 S
C1440 C1442 1.381 . S
C1440 C1446 1.383 . S
C1441 C1437 1.495 . S
C1441 H1447 0.959 . S
C1441 H1448 0.961 . S
C1441 H1449 0.960 1_556 S
C1442 C1440 1.381 . S
C1442 C1443 1.394 . S
C1442 H1450 0.930 . S
C1443 C1442 1.394 . S
C1443 C1444 1.383 . S
C1443 H1451 0.929 . S
C1444 C1443 1.383 . S
C1444 C1445 1.377 . S
C1445 H1429 0.930 . S
C1445 C1444 1.377 . S
C1445 C1446 1.379 . S
C1446 H1430 0.931 . S
C1446 C1440 1.383 . S
C1446 C1445 1.379 . S
H1447 C1441 0.959 . S
H1448 C1441 0.961 . S
H1449 C1441 0.960 1_554 S
H1450 C1442 0.930 . S
H1451 C1443 0.929 . S
H1452 C1460 0.929 . S
H1453 C1462 0.930 . S
H1454 C1464 0.930 . S
H1455 C1467 0.929 . S
H1456 C1470 0.930 . S
H1457 C1472 0.960 . S
H1458 C1472 0.960 . S
H1459 C1472 0.960 . S
C1460 H1452 0.929 . S
C1460 C1461 1.377 . S
C1460 C1462 1.384 . S
C1461 C1460 1.377 . S
C1461 C1467 1.390 . S
C1462 H1453 0.930 . S
C1462 C1460 1.384 . S
C1462 C1463 1.372 . S
C1463 C1462 1.372 . S
C1463 C1464 1.400 . S
C1463 C1468 1.490 . S
C1464 H1454 0.930 . S
C1464 C1463 1.400 . S
C1464 C1467 1.386 . S
H1465 C1481 0.930 . S
H1466 C1482 0.931 . S
C1467 H1455 0.929 . S
C1467 C1461 1.390 . S
C1467 C1464 1.386 . S
C1468 C1463 1.490 . S
C1468 C1470 1.395 . S
C1468 C1471 1.403 . S
H1469 C1475 0.930 . S
C1470 H1456 0.930 . S
C1470 C1468 1.395 . S
C1470 C1473 1.403 . S
C1471 C1468 1.403 . S
C1471 C1472 1.524 . S
C1471 C1475 1.400 . S
C1472 H1457 0.960 . S
C1472 H1458 0.960 . S
C1472 H1459 0.960 . S
C1472 C1471 1.524 . S
C1473 C1470 1.403 . S
C1473 C1474 1.392 1_554 S
C1473 C1477 1.495 1_554 S
C1474 C1473 1.392 1_556 S
C1474 C1475 1.385 1_556 S
C1474 C1476 1.478 . S
C1475 H1469 0.930 . S
C1475 C1471 1.400 . S
C1475 C1474 1.385 1_554 S
C1476 C1474 1.478 . S
C1476 C1478 1.381 . S
C1476 C1482 1.383 . S
C1477 C1473 1.495 1_556 S
C1477 H1483 0.959 1_556 S
C1477 H1484 0.961 . S
C1477 H1485 0.960 . S
C1478 C1476 1.381 . S
C1478 C1479 1.394 . S
C1478 H1486 0.930 . S
C1479 C1478 1.394 . S
C1479 C1480 1.383 . S
C1479 H1487 0.929 . S
C1480 C1479 1.383 . S
C1480 C1481 1.377 . S
C1481 H1465 0.930 . S
C1481 C1480 1.377 . S
C1481 C1482 1.379 . S
C1482 H1466 0.931 . S
C1482 C1476 1.383 . S
C1482 C1481 1.379 . S
H1483 C1477 0.959 1_554 S
H1484 C1477 0.961 . S
H1485 C1477 0.960 . S
H1486 C1478 0.930 . S
H1487 C1479 0.929 . S
C417 C305 1.527 . S
C436 C33 1.531 . S
C453 C339 1.529 . S
C472 C67 1.535 . S
C489 C373 1.528 . S
C508 C101 1.534 . S
C525 C407 1.531 . S
C544 C135 1.519 . S
C561 C169 1.529 . S
C580 C237 1.535 . S
C597 C271 1.528 . S
C616 C203 1.530 . S
C633 C2 1.651 . S
C652 C376 1.661 . S
C669 C206 1.656 . S
C688 C36 1.678 . S
C705 C70 1.653 . S
C724 C240 1.628 . S
C741 C104 1.657 . S
C760 C274 1.678 . S
C777 C308 1.658 . S
C796 C138 1.630 . S
C813 C172 1.655 . S
C832 C342 1.678 . S
C849 C20 1.571 . S
C868 C360 1.568 . S
C885 C54 1.569 . S
C904 C394 1.560 . S
C921 C224 1.573 . S
C940 C88 1.574 . S
C957 C258 1.570 . S
C976 C122 1.560 . S
C993 C156 1.570 . S
C1012 C292 1.566 . S
C1029 C326 1.570 . S
C1048 C190 1.559 . S
C1065 C9 0.691 . S
C1084 C5 0.617 . S
C1101 C39 0.647 . S
C1120 C43 0.765 . S
C1137 C77 0.684 . S
C1156 C73 0.599 . S
C1173 C111 0.687 . S
C1192 C107 0.680 . S
C1209 C141 0.653 . S
C1228 C145 0.776 1_554 S
C1245 C175 0.654 . S
C1264 C179 0.750 . S
C1281 C209 0.645 . S
C1300 C213 0.759 . S
C1317 C243 0.648 . S
C1336 C247 0.680 . S
C1353 C277 0.637 . S
C1372 C281 0.717 . S
C1389 C311 0.640 . S
C1408 C315 0.617 1_556 S
C1425 C345 0.645 . S
C1444 C349 0.661 . S
C1461 C383 0.670 . S
C1480 C379 0.618 . S
