# Generated by pormake.
# Topology yfw, (5)-cn, num edge types: 1
# Building blocks:
#     Node 0, Type 0, BuildingBlock: XOMCOT_clean_sbu_0, # of connection points: 5
#     Node 1, Type 0, BuildingBlock: XOMCOT_clean_sbu_0, # of connection points: 5
#     Node 2, Type 0, BuildingBlock: XOMCOT_clean_sbu_0, # of connection points: 5
#     Node 3, Type 0, BuildingBlock: XOMCOT_clean_sbu_0, # of connection points: 5
#     Node 4, Type 0, BuildingBlock: XOMCOT_clean_sbu_0, # of connection points: 5
#     Node 5, Type 0, BuildingBlock: XOMCOT_clean_sbu_0, # of connection points: 5
#     Node 6, Type 0, BuildingBlock: XOMCOT_clean_sbu_0, # of connection points: 5
#     Node 7, Type 0, BuildingBlock: XOMCOT_clean_sbu_0, # of connection points: 5
#     Node 8, Type 0, BuildingBlock: XOMCOT_clean_sbu_0, # of connection points: 5
#     Node 9, Type 0, BuildingBlock: XOMCOT_clean_sbu_0, # of connection points: 5
#     Node 10, Type 0, BuildingBlock: XOMCOT_clean_sbu_0, # of connection points: 5
#     Node 11, Type 0, BuildingBlock: XOMCOT_clean_sbu_0, # of connection points: 5
#     Node 12, Type 0, BuildingBlock: XOMCOT_clean_sbu_0, # of connection points: 5
#     Node 13, Type 0, BuildingBlock: XOMCOT_clean_sbu_0, # of connection points: 5
#     Node 14, Type 0, BuildingBlock: XOMCOT_clean_sbu_0, # of connection points: 5
#     Node 15, Type 0, BuildingBlock: XOMCOT_clean_sbu_0, # of connection points: 5
#     Edge 16, Type (0, 0), BuildingBlock: XIVTED_clean_linker_0, # of connection points: 2
#     Edge 17, Type (0, 0), BuildingBlock: XIVTED_clean_linker_0, # of connection points: 2
#     Edge 18, Type (0, 0), BuildingBlock: XIVTED_clean_linker_0, # of connection points: 2
#     Edge 19, Type (0, 0), BuildingBlock: XIVTED_clean_linker_0, # of connection points: 2
#     Edge 20, Type (0, 0), BuildingBlock: XIVTED_clean_linker_0, # of connection points: 2
#     Edge 21, Type (0, 0), BuildingBlock: XIVTED_clean_linker_0, # of connection points: 2
#     Edge 22, Type (0, 0), BuildingBlock: XIVTED_clean_linker_0, # of connection points: 2
#     Edge 23, Type (0, 0), BuildingBlock: XIVTED_clean_linker_0, # of connection points: 2
#     Edge 24, Type (0, 0), BuildingBlock: XIVTED_clean_linker_0, # of connection points: 2
#     Edge 25, Type (0, 0), BuildingBlock: XIVTED_clean_linker_0, # of connection points: 2
#     Edge 26, Type (0, 0), BuildingBlock: XIVTED_clean_linker_0, # of connection points: 2
#     Edge 27, Type (0, 0), BuildingBlock: XIVTED_clean_linker_0, # of connection points: 2
#     Edge 28, Type (0, 0), BuildingBlock: XIVTED_clean_linker_0, # of connection points: 2
#     Edge 29, Type (0, 0), BuildingBlock: XIVTED_clean_linker_0, # of connection points: 2
#     Edge 30, Type (0, 0), BuildingBlock: XIVTED_clean_linker_0, # of connection points: 2
#     Edge 31, Type (0, 0), BuildingBlock: XIVTED_clean_linker_0, # of connection points: 2
#     Edge 32, Type (0, 0), BuildingBlock: XIVTED_clean_linker_0, # of connection points: 2
#     Edge 33, Type (0, 0), BuildingBlock: XIVTED_clean_linker_0, # of connection points: 2
#     Edge 34, Type (0, 0), BuildingBlock: XIVTED_clean_linker_0, # of connection points: 2
#     Edge 35, Type (0, 0), BuildingBlock: XIVTED_clean_linker_0, # of connection points: 2
#     Edge 36, Type (0, 0), BuildingBlock: XIVTED_clean_linker_0, # of connection points: 2
#     Edge 37, Type (0, 0), BuildingBlock: XIVTED_clean_linker_0, # of connection points: 2
#     Edge 38, Type (0, 0), BuildingBlock: XIVTED_clean_linker_0, # of connection points: 2
#     Edge 39, Type (0, 0), BuildingBlock: XIVTED_clean_linker_0, # of connection points: 2
#     Edge 40, Type (0, 0), BuildingBlock: XIVTED_clean_linker_0, # of connection points: 2
#     Edge 41, Type (0, 0), BuildingBlock: XIVTED_clean_linker_0, # of connection points: 2
#     Edge 42, Type (0, 0), BuildingBlock: XIVTED_clean_linker_0, # of connection points: 2
#     Edge 43, Type (0, 0), BuildingBlock: XIVTED_clean_linker_0, # of connection points: 2
#     Edge 44, Type (0, 0), BuildingBlock: XIVTED_clean_linker_0, # of connection points: 2
#     Edge 45, Type (0, 0), BuildingBlock: XIVTED_clean_linker_0, # of connection points: 2
#     Edge 46, Type (0, 0), BuildingBlock: XIVTED_clean_linker_0, # of connection points: 2
#     Edge 47, Type (0, 0), BuildingBlock: XIVTED_clean_linker_0, # of connection points: 2
#     Edge 48, Type (0, 0), BuildingBlock: XIVTED_clean_linker_0, # of connection points: 2
#     Edge 49, Type (0, 0), BuildingBlock: XIVTED_clean_linker_0, # of connection points: 2
#     Edge 50, Type (0, 0), BuildingBlock: XIVTED_clean_linker_0, # of connection points: 2
#     Edge 51, Type (0, 0), BuildingBlock: XIVTED_clean_linker_0, # of connection points: 2
#     Edge 52, Type (0, 0), BuildingBlock: XIVTED_clean_linker_0, # of connection points: 2
#     Edge 53, Type (0, 0), BuildingBlock: XIVTED_clean_linker_0, # of connection points: 2
#     Edge 54, Type (0, 0), BuildingBlock: XIVTED_clean_linker_0, # of connection points: 2
#     Edge 55, Type (0, 0), BuildingBlock: XIVTED_clean_linker_0, # of connection points: 2
# Relax obj value: 0.110
# Max RMSD: 0.162
# Mean RMSD: 0.162
data_MOF--net-yfw--node1-XOMCOT_clean_sbu_0--edge1-XIVTED_clean_linker_0
_symmetry_space_group_name_H-M    P1
_symmetry_Int_Tables_number       1
_symmetry_cell_setting            triclinic
loop_
_symmetry_equiv_pos_as_xyz
'x, y, z'
_cell_length_a     57.958243
_cell_length_b     58.012111
_cell_length_c     24.730776
_cell_angle_alpha  90.017137
_cell_angle_beta   89.951181
_cell_angle_gamma 90.010808
loop_
_atom_site_label
_atom_site_type_symbol
_atom_site_fract_x
_atom_site_fract_y
_atom_site_fract_z
_atom_type_partial_charge
Co0 Co 0.13884 0.07324 0.97477 0.0
C1 C 0.18567 0.08645 0.94008 0.0
C2 C 0.18608 0.05683 0.99216 0.0
C3 C 0.20807 0.06045 0.97287 0.0
N4 N 0.17208 0.0731 0.97149 0.0
N5 N 0.20775 0.07898 0.93988 0.0
H6 H 0.17924 0.10039 0.91523 0.0
H7 H 0.18052 0.0426 0.01722 0.0
C8 C 0.12649 0.05928 0.08853 0.0
O9 O 0.10901 0.07367 0.08734 0.0
N10 N 0.10524 0.0726 0.97674 0.0
C11 C 0.08996 0.08891 0.96162 0.0
C12 C 0.06804 0.07995 0.96473 0.0
C13 C 0.09226 0.05373 0.98722 0.0
N14 N 0.06943 0.0578 0.981 0.0
C15 C 0.13373 0.12266 0.97599 0.0
C16 C 0.14712 0.12934 0.08191 0.0
C17 C 0.13789 0.14806 0.05324 0.0
C18 C 0.13202 0.14466 -0.00121 0.0
C19 C 0.14849 0.10765 0.05746 0.0
N20 N 0.14004 0.10411 0.00655 0.0
H21 H 0.12929 0.12046 0.93394 0.0
H22 H 0.15635 0.0938 0.0799 0.0
H23 H 0.09404 0.10588 0.94698 0.0
H24 H 0.09957 0.03735 -0.00087 0.0
O25 O 0.13776 0.0812 0.89839 0.0
O26 O 0.13808 0.04566 0.93129 0.0
O27 O 0.14027 0.05769 0.04824 0.0
C28 C 0.13751 0.05911 0.88926 0.0
H29 H 0.22301 0.04984 0.98125 0.0
H30 H 0.05237 0.08891 0.9537 0.0
H31 H 0.15314 0.13137 0.12308 0.0
H32 H 0.12537 0.15864 0.97436 0.0
Co33 Co 0.93738 0.63813 0.22112 0.0
C34 C 0.92177 0.68623 0.19597 0.0
C35 C 0.95351 0.68513 0.24018 0.0
C36 C 0.94942 0.70755 0.22522 0.0
N37 N 0.93602 0.67167 0.22277 0.0
N38 N 0.92948 0.70821 0.1974 0.0
H39 H 0.90726 0.68089 0.17182 0.0
H40 H 0.96902 0.67886 0.25951 0.0
C41 C 0.94826 0.64985 0.33616 0.0
O42 O 0.93059 0.66405 0.33721 0.0
N43 N 0.93947 0.60497 0.21836 0.0
C44 C 0.92374 0.59051 0.19712 0.0
C45 C 0.93212 0.56837 0.20051 0.0
C46 C 0.95727 0.5916 0.23394 0.0
N47 N 0.95323 0.56905 0.2236 0.0
C48 C 0.8874 0.64134 0.22286 0.0
C49 C 0.88196 0.61826 0.31977 0.0
C50 C 0.86222 0.6254 0.29183 0.0
C51 C 0.86511 0.63721 0.24279 0.0
C52 C 0.90376 0.62274 0.29857 0.0
N53 N 0.90645 0.63487 0.25161 0.0
H54 H 0.88922 0.6486 0.18304 0.0
H55 H 0.91845 0.61549 0.31915 0.0
H56 H 0.9075 0.59576 0.1795 0.0
H57 H 0.97288 0.59831 0.25203 0.0
O58 O 0.93056 0.63832 0.14408 0.0
O59 O 0.96545 0.64054 0.1813 0.0
O60 O 0.95238 0.63777 0.29422 0.0
C61 C 0.95289 0.63993 0.13803 0.0
H62 H 0.9607 0.72211 0.23235 0.0
H63 H 0.92361 0.55307 0.18541 0.0
H64 H 0.88064 0.60883 0.35744 0.0
H65 H 0.85031 0.64227 0.21887 0.0
Co66 Co 0.37182 0.43591 0.48708 0.0
C67 C 0.3224 0.42227 0.47113 0.0
C68 C 0.32631 0.45295 0.51824 0.0
C69 C 0.30329 0.44973 0.50816 0.0
N70 N 0.33842 0.43548 0.49625 0.0
N71 N 0.30067 0.43041 0.47833 0.0
H72 H 0.32657 0.40802 0.44511 0.0
H73 H 0.33382 0.46798 0.53723 0.0
C74 C 0.36453 0.44532 0.60464 0.0
O75 O 0.34997 0.42796 0.60679 0.0
N76 N 0.40476 0.43715 0.4768 0.0
C77 C 0.41809 0.42099 0.45349 0.0
C78 C 0.44047 0.4289 0.45237 0.0
C79 C 0.41901 0.45473 0.48904 0.0
N80 N 0.4411 0.45021 0.47457 0.0
C81 C 0.36672 0.38598 0.48539 0.0
C82 C 0.39134 0.37855 0.57945 0.0
C83 C 0.38118 0.35963 0.55368 0.0
C84 C 0.36924 0.36342 0.50512 0.0
C85 C 0.38855 0.40059 0.55824 0.0
N86 N 0.37521 0.40437 0.51359 0.0
H87 H 0.35848 0.38853 0.44682 0.0
H88 H 0.39759 0.4146 0.57756 0.0
H89 H 0.41194 0.40467 0.43803 0.0
H90 H 0.41304 0.47065 0.50699 0.0
O91 O 0.3679 0.431 0.40951 0.0
O92 O 0.36865 0.46482 0.45179 0.0
O93 O 0.37568 0.44946 0.56127 0.0
C94 C 0.36642 0.45347 0.40703 0.0
H95 H 0.28979 0.4617 0.51916 0.0
H96 H 0.45502 0.41953 0.43612 0.0
H97 H 0.40177 0.37633 0.61541 0.0
H98 H 0.36181 0.34917 0.48283 0.0
Co99 Co 0.57175 0.87004 0.7336 0.0
C100 C 0.58825 0.82197 0.71423 0.0
C101 C 0.55986 0.82333 0.7695 0.0
C102 C 0.5648 0.80062 0.75906 0.0
N103 N 0.575 0.83686 0.74281 0.0
N104 N 0.58263 0.79973 0.72414 0.0
H105 H 0.60071 0.82711 0.68425 0.0
H106 H 0.54516 0.8295 0.79223 0.0
C107 C 0.56489 0.86332 0.85293 0.0
O108 O 0.58333 0.85017 0.85518 0.0
N109 N 0.56778 0.90271 0.72315 0.0
C110 C 0.58204 0.91679 0.69569 0.0
C111 C 0.57244 0.93847 0.69447 0.0
C112 C 0.54962 0.91581 0.73781 0.0
N113 N 0.55204 0.93785 0.72087 0.0
C114 C 0.62197 0.8683 0.72773 0.0
C115 C 0.62919 0.89574 0.81752 0.0
C116 C 0.64844 0.88712 0.78985 0.0
C117 C 0.64464 0.87324 0.74421 0.0
C118 C 0.60702 0.8903 0.79997 0.0
N119 N 0.60347 0.87597 0.75688 0.0
H120 H 0.61942 0.85912 0.69041 0.0
H121 H 0.59265 0.89825 0.82053 0.0
H122 H 0.59806 0.91153 0.67696 0.0
H123 H 0.53492 0.90926 0.76 0.0
O124 O 0.57544 0.86653 0.65555 0.0
O125 O 0.54249 0.86458 0.70136 0.0
O126 O 0.55929 0.87322 0.8089 0.0
C127 C 0.55306 0.86362 0.6553 0.0
H128 H 0.55499 0.78595 0.77332 0.0
H129 H 0.57964 0.95335 0.67417 0.0
H130 H 0.63118 0.90676 0.85256 0.0
H131 H 0.659 0.86693 0.7204 0.0
Co132 Co 0.86814 0.07477 0.49917 0.0
C133 C 0.82075 0.088 0.46673 0.0
C134 C 0.82156 0.05687 0.51383 0.0
C135 C 0.79917 0.06094 0.49827 0.0
N136 N 0.83503 0.07378 0.49398 0.0
N137 N 0.7987 0.08048 0.46875 0.0
H138 H 0.82646 0.10296 0.44424 0.0
H139 H 0.82772 0.04225 0.53678 0.0
C140 C 0.87922 0.06753 0.61628 0.0
O141 O 0.89637 0.0823 0.61366 0.0
N142 N 0.9017 0.07487 0.5044 0.0
C143 C 0.91718 0.09162 0.49317 0.0
C144 C 0.93909 0.08275 0.49794 0.0
C145 C 0.9146 0.05605 0.51545 0.0
N146 N 0.93744 0.06034 0.51167 0.0
C147 C 0.87254 0.12335 0.47836 0.0
C148 C 0.86046 0.13806 0.58082 0.0
C149 C 0.87009 0.15397 0.54465 0.0
C150 C 0.87518 0.14659 0.49198 0.0
C151 C 0.8584 0.11494 0.56565 0.0
N152 N 0.86631 0.10754 0.51653 0.0
H153 H 0.87722 0.11778 0.43813 0.0
H154 H 0.85095 0.10304 0.59418 0.0
H155 H 0.91341 0.10892 0.48052 0.0
H156 H 0.90731 0.03942 0.52544 0.0
O157 O 0.87053 0.07573 0.42051 0.0
O158 O 0.86968 0.04415 0.47099 0.0
O159 O 0.86561 0.06483 0.57639 0.0
C160 C 0.87135 0.05327 0.42339 0.0
H161 H 0.78438 0.05023 0.50743 0.0
H162 H 0.95497 0.09186 0.48934 0.0
H163 H 0.85567 0.14313 0.62146 0.0
H164 H 0.88192 0.1585 0.46217 0.0
Co165 Co 0.93524 0.36667 0.74804 0.0
C166 C 0.92032 0.31969 0.71874 0.0
C167 C 0.94955 0.31936 0.77216 0.0
C168 C 0.94493 0.29707 0.75642 0.0
N169 N 0.93415 0.33347 0.74842 0.0
N170 N 0.9266 0.29734 0.72286 0.0
H171 H 0.90684 0.32599 0.69234 0.0
H172 H 0.96377 0.32499 0.79719 0.0
C173 C 0.9482 0.38161 0.86105 0.0
O174 O 0.94001 0.40242 0.85346 0.0
N175 N 0.93654 0.40037 0.74644 0.0
C176 C 0.91906 0.41572 0.75058 0.0
C177 C 0.92782 0.43768 0.74728 0.0
C178 C 0.95572 0.4135 0.74087 0.0
N179 N 0.95086 0.43629 0.74122 0.0
C180 C 0.88694 0.37236 0.7259 0.0
C181 C 0.87168 0.36503 0.83048 0.0
C182 C 0.85588 0.37263 0.79152 0.0
C183 C 0.86361 0.37561 0.73822 0.0
C184 C 0.89487 0.36227 0.81664 0.0
N185 N 0.90247 0.36721 0.76563 0.0
H186 H 0.89279 0.37551 0.68509 0.0
H187 H 0.9066 0.35651 0.84756 0.0
H188 H 0.90118 0.41178 0.75787 0.0
H189 H 0.97295 0.40656 0.737 0.0
O190 O 0.93422 0.36646 0.66919 0.0
O191 O 0.96582 0.36503 0.71946 0.0
O192 O 0.94523 0.36575 0.82599 0.0
C193 C 0.95668 0.3651 0.67169 0.0
H194 H 0.95466 0.28188 0.76768 0.0
H195 H 0.91799 0.45347 0.75098 0.0
H196 H 0.8664 0.36222 0.87198 0.0
H197 H 0.85186 0.38101 0.70664 0.0
Co198 Co 0.63983 0.43608 0.98583 0.0
C199 C 0.68789 0.42157 0.95669 0.0
C200 C 0.68659 0.45415 0.99733 0.0
C201 C 0.70885 0.45044 0.98033 0.0
N202 N 0.6734 0.43591 0.98342 0.0
N203 N 0.70962 0.42997 0.95475 0.0
H204 H 0.6826 0.40636 0.93505 0.0
H205 H 0.68018 0.46978 0.01588 0.0
C206 C 0.65416 0.44806 0.09831 0.0
O207 O 0.66896 0.4309 0.09723 0.0
N208 N 0.60663 0.43707 0.98701 0.0
C209 C 0.59212 0.4206 0.96932 0.0
C210 C 0.56992 0.42888 0.97253 0.0
C211 C 0.59323 0.45517 0.00027 0.0
N212 N 0.57063 0.45065 0.99181 0.0
C213 C 0.64459 0.38641 0.98754 0.0
C214 C 0.62524 0.3804 0.08867 0.0
C215 C 0.63288 0.3609 0.06036 0.0
C216 C 0.64244 0.36411 0.00873 0.0
C217 C 0.6278 0.40225 0.06614 0.0
N218 N 0.63835 0.40525 0.01721 0.0
H219 H 0.65039 0.38835 0.94641 0.0
H220 H 0.6204 0.41669 0.08747 0.0
H221 H 0.59739 0.40401 0.95359 0.0
H222 H 0.60001 0.47142 0.01472 0.0
O223 O 0.63869 0.42881 0.9091 0.0
O224 O 0.64043 0.46396 0.94507 0.0
O225 O 0.64058 0.45145 0.05858 0.0
C226 C 0.63948 0.45111 0.90229 0.0
H227 H 0.72318 0.46226 0.98473 0.0
H228 H 0.55456 0.41989 0.95936 0.0
H229 H 0.61656 0.3788 0.12729 0.0
H230 H 0.648 0.34957 0.98457 0.0
Co231 Co 0.57522 0.14208 0.2427 0.0
C232 C 0.58854 0.18956 0.21361 0.0
C233 C 0.56167 0.18911 0.27351 0.0
C234 C 0.56716 0.21169 0.26224 0.0
N235 N 0.57519 0.1753 0.24328 0.0
N236 N 0.58399 0.21191 0.22453 0.0
H237 H 0.60143 0.1837 0.18504 0.0
H238 H 0.54856 0.18327 0.30145 0.0
C239 C 0.56449 0.12817 0.35788 0.0
O240 O 0.5798 0.11153 0.35487 0.0
N241 N 0.57468 0.10855 0.24177 0.0
C242 C 0.59118 0.09351 0.22622 0.0
C243 C 0.58232 0.07155 0.22801 0.0
C244 C 0.55589 0.09541 0.25168 0.0
N245 N 0.56012 0.07274 0.24393 0.0
C246 C 0.62423 0.13762 0.23276 0.0
C247 C 0.63531 0.14668 0.33922 0.0
C248 C 0.65246 0.13814 0.30456 0.0
C249 C 0.64691 0.13469 0.25009 0.0
C250 C 0.61271 0.14928 0.32003 0.0
N251 N 0.60705 0.1427 0.26861 0.0
H252 H 0.62033 0.13448 0.19076 0.0
H253 H 0.59986 0.1562 0.34704 0.0
H254 H 0.60822 0.09774 0.21223 0.0
H255 H 0.53938 0.10243 0.26385 0.0
O256 O 0.58079 0.14229 0.16516 0.0
O257 O 0.54634 0.14208 0.20393 0.0
O258 O 0.56164 0.14199 0.31815 0.0
C259 C 0.55849 0.14197 0.1597 0.0
H260 H 0.55905 0.22679 0.27955 0.0
H261 H 0.5913 0.056 0.21606 0.0
H262 H 0.63904 0.15037 0.38124 0.0
H263 H 0.65987 0.12909 0.22135 0.0
Co264 Co 0.64399 0.57552 0.49002 0.0
C265 C 0.69226 0.58793 0.46333 0.0
C266 C 0.69031 0.56366 0.52875 0.0
C267 C 0.71311 0.56701 0.51581 0.0
N268 N 0.67723 0.57677 0.49593 0.0
N269 N 0.71435 0.58209 0.47437 0.0
H270 H 0.68707 0.59898 0.43027 0.0
H271 H 0.68382 0.55158 0.55828 0.0
C272 C 0.62619 0.56257 0.60054 0.0
O273 O 0.60722 0.57457 0.59361 0.0
N274 N 0.61052 0.57351 0.48337 0.0
C275 C 0.59481 0.59013 0.47287 0.0
C276 C 0.57316 0.58049 0.47215 0.0
C277 C 0.59803 0.55388 0.4876 0.0
N278 N 0.57519 0.55772 0.48151 0.0
C279 C 0.63756 0.62492 0.48058 0.0
C280 C 0.64505 0.63437 0.5886 0.0
C281 C 0.63644 0.65197 0.55549 0.0
C282 C 0.63373 0.64732 0.50008 0.0
C283 C 0.64835 0.61234 0.56761 0.0
N284 N 0.64269 0.60736 0.51531 0.0
H285 H 0.63493 0.62136 0.43812 0.0
H286 H 0.65537 0.59936 0.59403 0.0
H287 H 0.59824 0.60806 0.46578 0.0
H288 H 0.60549 0.53721 0.49651 0.0
O289 O 0.64624 0.57961 0.41182 0.0
O290 O 0.64673 0.54625 0.45575 0.0
O291 O 0.64226 0.56274 0.56531 0.0
C292 C 0.64788 0.55715 0.41017 0.0
H293 H 0.72763 0.55842 0.53451 0.0
H294 H 0.55715 0.58951 0.46445 0.0
H295 H 0.64888 0.63746 0.63085 0.0
H296 H 0.62772 0.6605 0.4725 0.0
Co297 Co 0.43065 0.14072 0.75084 0.0
C298 C 0.42156 0.18831 0.71398 0.0
C299 C 0.43826 0.18748 0.79152 0.0
C300 C 0.43368 0.21006 0.7784 0.0
N301 N 0.43067 0.17392 0.75116 0.0
N302 N 0.42313 0.21058 0.72974 0.0
H303 H 0.41324 0.18254 0.67724 0.0
H304 H 0.44611 0.18139 0.82846 0.0
C305 C 0.46194 0.13493 0.83176 0.0
O306 O 0.44131 0.13178 0.85263 0.0
N307 N 0.43062 0.10723 0.75202 0.0
C308 C 0.41608 0.09391 0.78093 0.0
C309 C 0.42397 0.07151 0.7801 0.0
C310 C 0.44726 0.09273 0.73447 0.0
N311 N 0.44371 0.07086 0.75126 0.0
C312 C 0.38603 0.12857 0.70661 0.0
C313 C 0.3624 0.14714 0.79391 0.0
C314 C 0.35036 0.13324 0.75714 0.0
C315 C 0.3623 0.12439 0.71214 0.0
C316 C 0.38602 0.1505 0.78743 0.0
N317 N 0.39753 0.14082 0.74517 0.0
H318 H 0.39547 0.12063 0.67378 0.0
H319 H 0.39553 0.15966 0.81831 0.0
H320 H 0.40147 0.10025 0.80375 0.0
H321 H 0.46225 0.09812 0.71186 0.0
O322 O 0.43716 0.14091 0.67168 0.0
O323 O 0.46445 0.14137 0.72918 0.0
O324 O 0.46329 0.13999 0.78103 0.0
C325 C 0.45881 0.14165 0.67871 0.0
H326 H 0.43776 0.22495 0.80297 0.0
H327 H 0.41654 0.05715 0.80198 0.0
H328 H 0.35405 0.15397 0.82968 0.0
H329 H 0.35362 0.11356 0.68285 0.0
Co330 Co 0.86655 0.93448 -0.00081 0.0
C331 C 0.81893 0.9244 0.96163 0.0
C332 C 0.81962 0.94901 0.02656 0.0
C333 C 0.79723 0.9466 0.00928 0.0
N334 N 0.83322 0.93512 0.99681 0.0
N335 N 0.79677 0.93126 0.96826 0.0
H336 H 0.82476 0.91273 0.93032 0.0
H337 H 0.8256 0.96077 0.05741 0.0
C338 C 0.88002 0.94192 0.11521 0.0
O339 O 0.89743 0.92755 0.11077 0.0
N340 N 0.90024 0.9346 0.00097 0.0
C341 C 0.91531 0.91794 0.98659 0.0
C342 C 0.93733 0.92675 0.9881 0.0
C343 C 0.91351 0.95336 0.01057 0.0
N344 N 0.93623 0.94908 0.00296 0.0
C345 C 0.87023 0.88601 0.97594 0.0
C346 C 0.86106 0.87061 0.07947 0.0
C347 C 0.86929 0.85483 0.0411 0.0
C348 C 0.87297 0.86262 0.9881 0.0
C349 C 0.85885 0.89387 0.06569 0.0
N350 N 0.86523 0.90158 0.01564 0.0
H351 H 0.87377 0.89183 0.93529 0.0
H352 H 0.85241 0.90558 0.09595 0.0
H353 H 0.9111 0.90077 0.97367 0.0
H354 H 0.90652 0.96993 0.02212 0.0
O355 O 0.86772 0.93399 0.92041 0.0
O356 O 0.86733 0.96525 0.97214 0.0
O357 O 0.86543 0.94407 0.07703 0.0
C358 C 0.86841 0.95644 0.92412 0.0
H359 H 0.78245 0.95579 0.02514 0.0
H360 H 0.95282 0.9176 0.97651 0.0
H361 H 0.8574 0.86527 0.12056 0.0
H362 H 0.87859 0.85087 0.95671 0.0
Co363 Co 0.076 0.36496 0.24188 0.0
C364 C 0.09282 0.31681 0.22206 0.0
C365 C 0.06249 0.31793 0.27146 0.0
C366 C 0.06784 0.29527 0.26165 0.0
N367 N 0.07852 0.33157 0.24818 0.0
N368 N 0.08689 0.29453 0.23048 0.0
H369 H 0.1065 0.32206 0.19524 0.0
H370 H 0.04714 0.32402 0.29184 0.0
C371 C 0.06641 0.35631 0.35919 0.0
O372 O 0.08485 0.34318 0.36172 0.0
N373 N 0.07288 0.39791 0.23438 0.0
C374 C 0.08828 0.41207 0.21075 0.0
C375 C 0.0795 0.43407 0.21094 0.0
C376 C 0.05482 0.41135 0.24814 0.0
N377 N 0.05846 0.43364 0.23441 0.0
C378 C 0.12614 0.36321 0.24316 0.0
C379 C 0.13107 0.38879 0.33672 0.0
C380 C 0.15104 0.38136 0.30989 0.0
C381 C 0.14835 0.36839 0.2623 0.0
C382 C 0.1094 0.38352 0.31592 0.0
N383 N 0.10695 0.37003 0.27099 0.0
H384 H 0.12447 0.35472 0.20465 0.0
H385 H 0.09455 0.39105 0.33542 0.0
H386 H 0.1046 0.40666 0.1937 0.0
H387 H 0.03935 0.40488 0.26741 0.0
O388 O 0.08248 0.36308 0.16479 0.0
O389 O 0.04785 0.36058 0.20323 0.0
O390 O 0.0613 0.36675 0.31544 0.0
C391 C 0.06019 0.36066 0.1595 0.0
H392 H 0.05767 0.2805 0.27385 0.0
H393 H 0.08771 0.44909 0.19347 0.0
H394 H 0.13202 0.39891 0.37343 0.0
H395 H 0.1632 0.36301 0.23892 0.0
Co396 Co 0.36921 0.57572 0.98703 0.0
C397 C 0.32114 0.59032 0.96183 0.0
C398 C 0.32228 0.56052 0.01275 0.0
C399 C 0.29985 0.56386 0.99657 0.0
N400 N 0.33571 0.57736 0.99192 0.0
N401 N 0.2992 0.58258 0.96448 0.0
H402 H 0.32657 0.60346 0.93376 0.0
H403 H 0.32858 0.54564 0.03449 0.0
C404 C 0.35949 0.56607 0.10366 0.0
O405 O 0.34554 0.58392 0.10525 0.0
N406 N 0.40223 0.57339 0.9807 0.0
C407 C 0.41637 0.58873 0.95687 0.0
C408 C 0.43851 0.58023 0.95846 0.0
C409 C 0.41577 0.5557 0.99606 0.0
N410 N 0.43812 0.55944 0.98304 0.0
C411 C 0.36514 0.62578 0.98838 0.0
C412 C 0.38981 0.63165 0.08299 0.0
C413 C 0.38027 0.65113 0.05815 0.0
C414 C 0.36818 0.64805 0.00946 0.0
C415 C 0.38637 0.60988 0.06069 0.0
N416 N 0.37316 0.60691 0.01546 0.0
H417 H 0.35692 0.62388 0.94966 0.0
H418 H 0.3948 0.59539 0.07956 0.0
H419 H 0.41086 0.60479 0.93879 0.0
H420 H 0.4093 0.54039 0.01596 0.0
O421 O 0.36736 0.58134 0.90931 0.0
O422 O 0.36581 0.5472 0.95007 0.0
O423 O 0.37094 0.5616 0.06094 0.0
C424 C 0.36516 0.55897 0.90563 0.0
H425 H 0.28538 0.55266 0.00525 0.0
H426 H 0.45359 0.58842 0.94123 0.0
H427 H 0.40034 0.63319 0.11899 0.0
H428 H 0.36106 0.66264 0.98788 0.0
Co429 Co 0.43303 0.8722 0.23489 0.0
C430 C 0.41844 0.82369 0.21459 0.0
C431 C 0.44302 0.82583 0.27883 0.0
C432 C 0.43838 0.80295 0.26907 0.0
N433 N 0.42983 0.83902 0.24615 0.0
N434 N 0.42297 0.80164 0.22851 0.0
H435 H 0.40821 0.82835 0.17987 0.0
H436 H 0.45636 0.83214 0.30545 0.0
C437 C 0.4384 0.86829 0.35548 0.0
O438 O 0.41938 0.856 0.35865 0.0
N439 N 0.43683 0.90477 0.2222 0.0
C440 C 0.423 0.91821 0.19197 0.0
C441 C 0.4318 0.94024 0.1919 0.0
C442 C 0.45395 0.9186 0.2397 0.0
N443 N 0.45126 0.94048 0.2219 0.0
C444 C 0.38295 0.86785 0.23201 0.0
C445 C 0.3749 0.89928 0.314 0.0
C446 C 0.35613 0.88764 0.29127 0.0
C447 C 0.36029 0.87188 0.24942 0.0
C448 C 0.39723 0.89436 0.29629 0.0
N449 N 0.4012 0.87817 0.25715 0.0
H450 H 0.38564 0.85684 0.19768 0.0
H451 H 0.4114 0.90377 0.31408 0.0
H452 H 0.4077 0.91232 0.17113 0.0
H453 H 0.46802 0.91272 0.26491 0.0
O454 O 0.42966 0.86771 0.15713 0.0
O455 O 0.46246 0.86649 0.2036 0.0
O456 O 0.44495 0.87652 0.31028 0.0
C457 C 0.45205 0.86486 0.15745 0.0
H458 H 0.44685 0.7884 0.28793 0.0
H459 H 0.42469 0.9548 0.17024 0.0
H460 H 0.3724 0.91182 0.34595 0.0
H461 H 0.34612 0.8631 0.22965 0.0
Co462 Co 0.13609 0.93026 0.4864 0.0
C463 C 0.18551 0.92471 0.45631 0.0
C464 C 0.17854 0.91549 0.5388 0.0
C465 C 0.20111 0.90997 0.52721 0.0
N466 N 0.16876 0.92469 0.49442 0.0
N467 N 0.20542 0.91576 0.47539 0.0
H468 H 0.18294 0.92976 0.41467 0.0
H469 H 0.16952 0.91184 0.57611 0.0
C470 C 0.13983 0.96436 0.56215 0.0
O471 O 0.13736 0.94479 0.58819 0.0
N472 N 0.1033 0.93526 0.47766 0.0
C473 C 0.08957 0.92318 0.44407 0.0
C474 C 0.06764 0.93211 0.44649 0.0
C475 C 0.08959 0.95155 0.49968 0.0
N476 N 0.06767 0.94997 0.48141 0.0
C477 C 0.13942 0.88186 0.45438 0.0
C478 C 0.11294 0.86783 0.5419 0.0
C479 C 0.12154 0.85113 0.50638 0.0
C480 C 0.1352 0.85821 0.46238 0.0
C481 C 0.11788 0.89092 0.53309 0.0
N482 N 0.13057 0.89764 0.48964 0.0
H483 H 0.14989 0.88749 0.42065 0.0
H484 H 0.11152 0.90373 0.56117 0.0
H485 H 0.09525 0.9091 0.41867 0.0
H486 H 0.09546 0.96446 0.52778 0.0
O487 O 0.13892 0.93333 0.40632 0.0
O488 O 0.14216 0.96246 0.45835 0.0
O489 O 0.14059 0.96362 0.50997 0.0
C490 C 0.1417 0.95502 0.40921 0.0
H491 H 0.21323 0.90172 0.55428 0.0
H492 H 0.05301 0.92638 0.42287 0.0
H493 H 0.10274 0.86304 0.57688 0.0
H494 H 0.14228 0.84568 0.43444 0.0
Co495 Co 0.07749 0.63707 0.72687 0.0
C496 C 0.08893 0.68413 0.69044 0.0
C497 C 0.06412 0.68431 0.75505 0.0
C498 C 0.06671 0.70647 0.73629 0.0
N499 N 0.07801 0.67033 0.72624 0.0
N500 N 0.08217 0.70631 0.69545 0.0
H501 H 0.10033 0.67785 0.65904 0.0
H502 H 0.05195 0.67868 0.78544 0.0
C503 C 0.06635 0.62259 0.84107 0.0
O504 O 0.07749 0.60305 0.83547 0.0
N505 N 0.07644 0.60343 0.72647 0.0
C506 C 0.09384 0.58803 0.72221 0.0
C507 C 0.08489 0.56611 0.72337 0.0
C508 C 0.0571 0.59041 0.72974 0.0
N509 N 0.0618 0.5676 0.7282 0.0
C510 C 0.12641 0.63219 0.70875 0.0
C511 C 0.1397 0.6422 0.8135 0.0
C512 C 0.15631 0.63414 0.77702 0.0
C513 C 0.14961 0.62977 0.72351 0.0
C514 C 0.11671 0.64391 0.79738 0.0
N515 N 0.11005 0.63737 0.74663 0.0
H516 H 0.12134 0.62829 0.66772 0.0
H517 H 0.1044 0.65034 0.8263 0.0
H518 H 0.11193 0.59183 0.71902 0.0
H519 H 0.03998 0.59752 0.73466 0.0
O520 O 0.07928 0.63684 0.64804 0.0
O521 O 0.04721 0.63798 0.69689 0.0
O522 O 0.06677 0.6379 0.80409 0.0
C523 C 0.05678 0.63796 0.64957 0.0
H524 H 0.05728 0.72144 0.7503 0.0
H525 H 0.09471 0.5503 0.72032 0.0
H526 H 0.14422 0.64626 0.85492 0.0
H527 H 0.16207 0.62404 0.69374 0.0
H528 H 0.93424 0.99599 0.99542 0.0
H529 H 0.07124 0.01074 0.98348 0.0
H530 H 0.98191 0.93939 0.01485 0.0
H531 H 0.02392 0.06805 0.99513 0.0
H532 H 0.03879 0.98431 0.99334 0.0
H533 H 0.96681 0.02262 0.99399 0.0
C534 C 0.95147 0.9891 -3e-05 0.0
C535 C 0.9552 0.96526 0.00504 0.0
C536 C 0.03554 1.00269 0.99389 0.0
C537 C 0.99275 0.99581 0.00245 0.0
C538 C 0.05413 0.01787 0.98845 0.0
C539 C 0.05048 0.04182 0.98811 0.0
C540 C 0.01303 0.01144 -0.00124 0.0
C541 C 0.0277 0.04982 0.9941 0.0
C542 C 0.97012 0.00437 -0.00118 0.0
C543 C 0.9781 0.9575 0.00991 0.0
N544 N 0.0099 0.03469 -0.00107 0.0
N545 N 0.99595 0.97269 0.00822 0.0
H546 H 1.00009 0.56999 0.23146 0.0
H547 H 0.01155 0.4325 0.24065 0.0
H548 H 0.94165 0.52387 0.23491 0.0
H549 H 0.06968 0.47898 0.24129 0.0
H550 H 0.98559 0.46568 0.24423 0.0
H551 H 0.02575 0.5369 0.24063 0.0
C552 C 0.99259 0.55297 0.23468 0.0
C553 C 0.9686 0.54979 0.23199 0.0
C554 C 1.00404 0.46861 0.24384 0.0
C555 C 0.99802 0.51166 0.24186 0.0
C556 C 0.01889 0.44963 0.24211 0.0
C557 C 0.04288 0.4529 0.24017 0.0
C558 C 0.01322 0.49104 0.24366 0.0
C559 C 0.05134 0.4756 0.24163 0.0
C560 C 0.0073 0.53402 0.23961 0.0
C561 C 0.96 0.52718 0.23577 0.0
N562 N 0.03655 0.49375 0.24303 0.0
N563 N 0.97468 0.50901 0.24027 0.0
H564 H 0.57657 0.51246 0.45368 0.0
H565 H 0.44427 0.49074 0.53089 0.0
H566 H 0.53153 0.56529 0.51627 0.0
H567 H 0.48405 0.44443 0.43031 0.0
H568 H 0.47743 0.51632 0.53573 0.0
H569 H 0.54422 0.48522 0.45553 0.0
C570 C 0.55993 0.51826 0.46821 0.0
C571 C 0.55668 0.5412 0.48447 0.0
C572 C 0.47884 0.50051 0.51267 0.0
C573 C 0.51965 0.51024 0.48665 0.0
C574 C 0.4598 0.48583 0.50963 0.0
C575 C 0.46097 0.46524 0.47965 0.0
C576 C 0.49939 0.4946 0.48601 0.0
C577 C 0.48204 0.45991 0.45408 0.0
C578 C 0.54145 0.50278 0.46894 0.0
C579 C 0.5347 0.54787 0.50255 0.0
N580 N 0.50033 0.47447 0.45783 0.0
N581 N 0.51704 0.53248 0.50318 0.0
H582 H 0.50551 0.93526 0.73582 0.0
H583 H 0.49024 0.07243 0.73712 0.0
H584 H 0.56173 0.98361 0.72054 0.0
H585 H 0.43316 0.02518 0.75418 0.0
H586 H 0.51644 0.03985 0.73023 0.0
H587 H 0.47865 0.96762 0.74366 0.0
C588 C 0.51226 0.95263 0.73449 0.0
C589 C 0.53597 0.95666 0.72728 0.0
C590 C 0.49818 0.03655 0.73536 0.0
C591 C 0.50525 0.99381 0.73562 0.0
C592 C 0.48312 0.05522 0.73883 0.0
C593 C 0.45934 0.05162 0.74588 0.0
C594 C 0.48952 0.01399 0.73897 0.0
C595 C 0.45134 0.02879 0.74915 0.0
C596 C 0.49688 0.97112 0.73862 0.0
C597 C 0.54362 0.97962 0.72516 0.0
N598 N 0.46639 0.01084 0.74562 0.0
N599 N 0.52833 0.99727 0.72925 0.0
H600 H 0.02208 0.93965 0.4765 0.0
H601 H 0.98215 0.06908 0.53731 0.0
H602 H 0.06945 0.9948 0.51384 0.0
H603 H 0.9355 0.01412 0.49399 0.0
H604 H 0.01407 0.04157 0.53626 0.0
H605 H 0.9899 0.96608 0.49019 0.0
C606 C 0.02574 0.95732 0.48756 0.0
C607 C 0.04856 0.96504 0.49341 0.0
C608 C 0.99682 0.03551 0.52735 0.0
C609 C 0.01169 0.99545 0.5096 0.0
C610 C 0.97859 0.05124 0.52771 0.0
C611 C 0.95609 0.04397 0.51541 0.0
C612 C 0.99256 0.01232 0.51441 0.0
C613 C 0.95246 0.02052 0.50422 0.0
C614 C 0.00733 0.9724 0.49566 0.0
C615 C 0.05219 0.98803 0.50907 0.0
N616 N 0.97052 0.00559 0.50364 0.0
N617 N 0.03395 1.00246 0.51622 0.0
H618 H 0.94214 0.47962 0.70515 0.0
H619 H 0.07035 0.52419 0.76402 0.0
H620 H 0.99615 0.43661 0.77016 0.0
H621 H 0.01646 0.56753 0.69967 0.0
H622 H 0.0434 0.49196 0.7663 0.0
H623 H 0.96901 0.512 0.70282 0.0
C624 C 0.95962 0.47698 0.71913 0.0
C625 C 0.96684 0.45531 0.73802 0.0
C626 C 0.03744 0.50851 0.75168 0.0
C627 C 0.99782 0.49237 0.73503 0.0
C628 C 0.05288 0.52694 0.75009 0.0
C629 C 0.04574 0.54864 0.73132 0.0
C630 C 0.01461 0.51171 0.73435 0.0
C631 C 0.02269 0.55121 0.71488 0.0
C632 C 0.975 0.49548 0.71755 0.0
C633 C 0.98986 0.45287 0.7547 0.0
N634 N 0.00798 0.53295 0.71663 0.0
N635 N 1.00449 0.47118 0.75293 0.0
H636 H 0.52549 0.43966 0.00659 0.0
H637 H 0.48348 0.57086 0.98982 0.0
H638 H 0.5717 0.49756 0.98927 0.0
H639 H 0.43699 0.51274 0.99367 0.0
H640 H 0.51604 0.54442 0.99707 0.0
H641 H 0.49293 0.46631 0.00944 0.0
C642 C 0.52883 0.45796 0.00338 0.0
C643 C 0.55143 0.46631 0.99726 0.0
C644 C 0.49871 0.53745 0.99654 0.0
C645 C 0.51416 0.497 0.00097 0.0
C646 C 0.48008 0.55255 0.99211 0.0
C647 C 0.4574 0.54405 0.99064 0.0
C648 C 0.4947 0.51361 -0.0005 0.0
C649 C 0.4541 0.52013 0.99499 0.0
C650 C 0.51021 0.47319 0.00526 0.0
C651 C 0.55468 0.49028 0.99444 0.0
N652 N 0.47255 0.50576 -0.00108 0.0
N653 N 0.53625 0.50475 0.99602 0.0
H654 H 0.43997 0.98592 0.21888 0.0
H655 H 0.57004 0.02789 0.26427 0.0
H656 H 0.4971 0.93961 0.24565 0.0
H657 H 0.51347 0.07416 0.23164 0.0
H658 H 0.54312 0.99555 0.26366 0.0
H659 H 0.46613 0.01858 0.22922 0.0
C660 C 0.45801 0.98258 0.22683 0.0
C661 C 0.46633 0.9599 0.23091 0.0
C662 C 0.53655 0.01279 0.25688 0.0
C663 C 0.49642 0.99734 0.24336 0.0
C664 C 0.55195 0.03127 0.25697 0.0
C665 C 0.54407 0.0538 0.24754 0.0
C666 C 0.51303 0.01678 0.24714 0.0
C667 C 0.52033 0.05715 0.23944 0.0
C668 C 0.47293 1.00127 0.23305 0.0
C669 C 0.48984 0.95672 0.24248 0.0
N670 N 0.50568 0.03883 0.23908 0.0
N671 N 0.50406 0.97522 0.24799 0.0
H672 H 0.1195 0.9472 0.31454 0.0
H673 H 0.16724 0.04755 0.13745 0.0
H674 H 0.1624 0.99727 0.39512 0.0
H675 H 0.09368 0.03746 0.14823 0.0
H676 H 0.17224 0.02255 0.21742 0.0
H677 H 0.1163 0.9733 0.2368 0.0
C678 C 0.12852 0.96355 0.3155 0.0
C679 C 0.14127 0.97014 0.36116 0.0
C680 C 0.15507 0.02595 0.20212 0.0
C681 C 0.138 0.99968 0.27224 0.0
C682 C 0.1522 0.04003 0.15661 0.0
C683 C 0.13001 0.04457 0.13659 0.0
C684 C 0.13567 0.01575 0.2262 0.0
C685 C 0.11105 0.03449 0.16278 0.0
C686 C 0.12655 0.97842 0.2714 0.0
C687 C 0.15239 0.99164 0.36061 0.0
N688 N 0.11432 0.02025 0.20577 0.0
N689 N 0.15071 0.00563 0.31646 0.0
H690 H 0.06797 0.62992 0.5426 0.0
H691 H 0.94321 0.66862 0.43714 0.0
H692 H 0.01218 0.65141 0.64681 0.0
H693 H 0.99013 0.62821 0.33996 0.0
H694 H 0.97059 0.66661 0.51208 0.0
H695 H 0.0418 0.63332 0.46452 0.0
C696 C 0.05032 0.6354 0.54896 0.0
C697 C 0.04217 0.64022 0.60112 0.0
C698 C 0.97486 0.65815 0.47434 0.0
C699 C 0.01243 0.64434 0.51282 0.0
C700 C 0.95923 0.65931 0.43158 0.0
C701 C 0.96431 0.64847 0.38237 0.0
C702 C 0.99581 0.64626 0.46767 0.0
C703 C 0.98542 0.6367 0.37737 0.0
C704 C 0.0354 0.63727 0.50462 0.0
C705 C 0.01915 0.64729 0.60734 0.0
N706 N 1.00044 0.63595 0.41947 0.0
N707 N 0.00515 0.64917 0.5638 0.0
H708 H 0.39179 0.4838 0.61183 0.0
H709 H 0.33455 0.52511 0.88918 0.0
H710 H 0.3385 0.44648 0.69701 0.0
H711 H 0.38801 0.56372 0.80869 0.0
H712 H 0.33367 0.4981 0.81396 0.0
H713 H 0.38982 0.51414 0.68023 0.0
C714 C 0.3798 0.48187 0.64515 0.0
C715 C 0.36529 0.46249 0.64875 0.0
C716 C 0.34544 0.51258 0.81211 0.0
C717 C 0.36278 0.49737 0.72665 0.0
C718 C 0.34581 0.52809 0.85485 0.0
C719 C 0.36137 0.54656 0.8548 0.0
C720 C 0.36103 0.51531 0.76918 0.0
C721 C 0.37563 0.54975 0.80971 0.0
C722 C 0.3786 0.4993 0.68395 0.0
C723 C 0.35008 0.46101 0.69266 0.0
N724 N 0.37536 0.53401 0.76877 0.0
N725 N 0.3492 0.47823 0.72977 0.0
H726 H 0.49154 0.84054 0.15158 0.0
H727 H 0.52441 0.88738 0.85864 0.0
H728 H 0.44468 0.88041 0.05378 0.0
H729 H 0.56694 0.84018 0.94966 0.0
H730 H 0.49515 0.88529 0.92929 0.0
H731 H 0.51873 0.83932 0.07661 0.0
C732 C 0.48686 0.84877 0.11381 0.0
C733 C 0.46594 0.86069 0.10871 0.0
C734 C 0.51087 0.8754 0.93383 0.0
C735 C 0.49722 0.85978 0.02298 0.0
C736 C 0.52771 0.87669 0.89369 0.0
C737 C 0.54825 0.86393 0.89824 0.0
C738 C 0.51457 0.86134 0.97907 0.0
C739 C 0.55146 0.85038 0.94452 0.0
C740 C 0.50244 0.84814 0.07109 0.0
C741 C 0.46062 0.87095 0.05904 0.0
N742 N 0.53479 0.84944 0.98312 0.0
N743 N 0.47636 0.87053 0.01811 0.0
H744 H 0.85133 0.02979 0.62431 0.0
H745 H 0.88745 0.99887 0.925 0.0
H746 H 0.90234 0.06864 0.71323 0.0
H747 H 0.85639 0.94907 0.81777 0.0
H748 H 0.89046 0.02598 0.8502 0.0
H749 H 0.84985 1.0018 0.69762 0.0
C750 C 0.86209 0.03259 0.65948 0.0
C751 C 0.87696 0.0517 0.66272 0.0
C752 C 0.8831 0.00911 0.84283 0.0
C753 C 0.87536 0.01951 0.7466 0.0
C754 C 0.88127 0.99364 0.8855 0.0
C755 C 0.87148 0.97179 0.87743 0.0
C756 C 0.87476 1.00285 0.79178 0.0
C757 C 0.86405 0.96578 0.82546 0.0
C758 C 0.86136 0.01645 0.70107 0.0
C759 C 0.8906 0.05423 0.7091 0.0
N760 N 0.86561 0.98138 0.7845 0.0
N761 N 0.88941 0.03833 0.74938 0.0
H762 H 0.95861 0.34038 0.9085 0.0
H763 H 0.0659 0.38978 0.07409 0.0
H764 H 0.97559 0.41279 0.913 0.0
H765 H 0.02668 0.33113 0.12881 0.0
H766 H 0.03889 0.39423 0.99796 0.0
H767 H 0.98886 0.33306 0.97567 0.0
C768 C 0.96857 0.35474 0.92401 0.0
C769 C 0.96442 0.37726 0.9058 0.0
C770 C 0.03653 0.38013 0.02613 0.0
C771 C 0.99943 0.3689 0.98077 0.0
C772 C 0.05208 0.3774 0.06886 0.0
C773 C 0.04846 0.35998 0.10709 0.0
C774 C 0.01762 0.36508 0.02156 0.0
C775 C 0.03 0.34469 0.09973 0.0
C776 C 0.98585 0.35054 0.96198 0.0
C777 C 0.97797 0.39523 0.92669 0.0
N778 N 0.0152 0.3476 0.05779 0.0
N779 N 0.99502 0.39064 0.96281 0.0
H780 H 0.63437 0.56758 0.30593 0.0
H781 H 0.67871 0.44574 0.19265 0.0
H782 H 0.66935 0.51621 0.40167 0.0
H783 H 0.6301 0.48853 0.1065 0.0
H784 H 0.67946 0.47415 0.26544 0.0
H785 H 0.63707 0.54169 0.22703 0.0
C786 C 0.64288 0.55105 0.31004 0.0
C787 C 0.65146 0.54386 0.36021 0.0
C788 C 0.66861 0.47732 0.2306 0.0
C789 C 0.65459 0.51441 0.27119 0.0
C790 C 0.66815 0.46107 0.18909 0.0
C791 C 0.65421 0.46466 0.14362 0.0
C792 C 0.65514 0.49741 0.22653 0.0
C793 C 0.64098 0.48496 0.14106 0.0
C794 C 0.64428 0.53625 0.26533 0.0
C795 C 0.66225 0.52228 0.36376 0.0
N796 N 0.64177 0.50059 0.18196 0.0
N797 N 0.66345 0.50832 0.31999 0.0
H798 H 0.57086 0.10865 0.45827 0.0
H799 H 0.45028 0.15253 0.57389 0.0
H800 H 0.52565 0.15437 0.37052 0.0
H801 H 0.50478 0.1297 0.67964 0.0
H802 H 0.47681 0.15025 0.4973 0.0
H803 H 0.54617 0.11311 0.53839 0.0
C804 C 0.5558 0.11965 0.45583 0.0
C805 C 0.55033 0.13114 0.40749 0.0
C806 C 0.48306 0.14586 0.53725 0.0
C807 C 0.52195 0.13611 0.49879 0.0
C808 C 0.4679 0.14711 0.58098 0.0
C809 C 0.47538 0.14134 0.63316 0.0
C810 C 0.50584 0.1384 0.54539 0.0
C811 C 0.4984 0.13443 0.64004 0.0
C812 C 0.54179 0.12225 0.50163 0.0
C813 C 0.53062 0.14522 0.40683 0.0
N814 N 0.51281 0.13294 0.59651 0.0
N815 N 0.51709 0.14715 0.45153 0.0
H816 H 0.6051 0.45081 0.82726 0.0
H817 H 0.66572 0.54868 0.64942 0.0
H818 H 0.6727 0.47808 0.86091 0.0
H819 H 0.5919 0.5393 0.6537 0.0
H820 H 0.66993 0.51836 0.71705 0.0
H821 H 0.60161 0.4779 0.75095 0.0
C822 C 0.61947 0.46197 0.81722 0.0
C823 C 0.63935 0.46217 0.8493 0.0
C824 C 0.65279 0.52299 0.70342 0.0
C825 C 0.63535 0.49328 0.76413 0.0
C826 C 0.65038 0.54031 0.66498 0.0
C827 C 0.62843 0.54653 0.64629 0.0
C828 C 0.63313 0.51156 0.72285 0.0
C829 C 0.6091 0.53519 0.66773 0.0
C830 C 0.61735 0.47762 0.7745 0.0
C831 C 0.65726 0.47735 0.83632 0.0
N832 N 0.6119 0.51807 0.70475 0.0
N833 N 0.65483 0.49235 0.79472 0.0
H834 H 0.57538 0.15524 0.06027 0.0
H835 H 0.46714 0.10187 0.90631 0.0
H836 H 0.5163 0.12425 0.13763 0.0
H837 H 0.50148 0.1615 0.84038 0.0
H838 H 0.49385 0.10203 0.98223 0.0
H839 H 0.55571 0.15137 0.97211 0.0
C840 C 0.55835 0.14758 0.05864 0.0
C841 C 0.54733 0.14016 0.10621 0.0
C842 C 0.49584 0.11489 0.95081 0.0
C843 C 0.52528 0.13519 0.00628 0.0
C844 C 0.48073 0.11471 0.90728 0.0
C845 C 0.48203 0.13184 0.86748 0.0
C846 C 0.51238 0.13241 0.95498 0.0
C847 C 0.50002 0.14798 0.87037 0.0
C848 C 0.5472 0.14542 0.00853 0.0
C849 C 0.52531 0.13039 0.10207 0.0
N850 N 0.51441 0.14812 0.91412 0.0
N851 N 0.51512 0.12805 0.05304 0.0
H852 H 0.89121 0.01119 0.42314 0.0
H853 H 0.85283 0.98014 0.12402 0.0
H854 H 0.85929 0.06085 0.31715 0.0
H855 H 0.90426 0.94102 0.21077 0.0
H856 H 0.85234 0.00833 0.19697 0.0
H857 H 0.89414 0.98419 0.34794 0.0
C858 C 0.88488 0.01643 0.3838 0.0
C859 C 0.87482 0.03819 0.37624 0.0
C860 C 0.86372 0.99359 0.20005 0.0
C861 C 0.87793 0.00725 0.29015 0.0
C862 C 0.86388 0.9773 0.15868 0.0
C863 C 0.87852 0.95802 0.16144 0.0
C864 C 0.87811 0.99052 0.24494 0.0
C865 C 0.89264 0.95554 0.20706 0.0
C866 C 0.88664 1.00103 0.3409 0.0
C867 C 0.86717 0.04423 0.32447 0.0
N868 N 0.89201 0.97157 0.2472 0.0
N869 N 0.86863 0.02867 0.28334 0.0
H870 H 0.07277 0.33999 0.46199 0.0
H871 H 0.94582 0.37285 0.56459 0.0
H872 H 0.02351 0.37597 0.36191 0.0
H873 H 1.00185 0.3534 0.67001 0.0
H874 H 0.9725 0.37075 0.48722 0.0
H875 H 0.04539 0.34159 0.53701 0.0
C876 C 0.05624 0.34828 0.45583 0.0
C877 C 0.05047 0.35791 0.40569 0.0
C878 C 0.97886 0.36696 0.5274 0.0
C879 C 0.01894 0.35963 0.49118 0.0
C880 C 0.96365 0.36807 0.57137 0.0
C881 C 0.97167 0.36339 0.62367 0.0
C882 C 1.00207 0.36087 0.53608 0.0
C883 C 0.99494 0.3573 0.6304 0.0
C884 C 0.0406 0.34919 0.49865 0.0
C885 C 0.02873 0.36841 0.4 0.0
N886 N 0.00926 0.35618 0.58719 0.0
N887 N 0.01371 0.36891 0.44218 0.0
H888 H 0.33544 0.56746 0.19904 0.0
H889 H 0.38181 0.44491 0.30339 0.0
H890 H 0.38392 0.52578 0.10926 0.0
H891 H 0.34102 0.49196 0.39877 0.0
H892 H 0.37897 0.47178 0.22645 0.0
H893 H 0.33437 0.53786 0.2691 0.0
C894 C 0.34597 0.55217 0.1942 0.0
C895 C 0.35986 0.54918 0.14836 0.0
C896 C 0.37044 0.47603 0.26412 0.0
C897 C 0.35852 0.51503 0.22805 0.0
C898 C 0.37188 0.46062 0.30763 0.0
C899 C 0.36179 0.46643 0.35723 0.0
C900 C 0.35869 0.49712 0.27071 0.0
C901 C 0.34927 0.48704 0.36119 0.0
C902 C 0.34527 0.53519 0.23407 0.0
C903 C 0.37302 0.52888 0.14407 0.0
N904 N 0.34819 0.50167 0.31868 0.0
N905 N 0.37202 0.51257 0.1834 0.0
H906 H 0.47889 0.89233 0.3617 0.0
H907 H 0.51451 0.83812 0.64613 0.0
H908 H 0.43631 0.84473 0.45162 0.0
H909 H 0.55946 0.88262 0.55446 0.0
H910 H 0.48663 0.83895 0.57264 0.0
H911 H 0.50866 0.88897 0.43086 0.0
C912 C 0.47567 0.88132 0.39626 0.0
C913 C 0.45501 0.86874 0.4008 0.0
C914 C 0.50266 0.84835 0.56806 0.0
C915 C 0.48928 0.86465 0.47982 0.0
C916 C 0.51865 0.84776 0.60986 0.0
C917 C 0.53923 0.86036 0.60616 0.0
C918 C 0.50711 0.8619 0.5223 0.0
C919 C 0.54383 0.87254 0.5585 0.0
C920 C 0.49279 0.87931 0.43554 0.0
C921 C 0.45188 0.8548 0.44649 0.0
N922 N 0.5277 0.87326 0.51849 0.0
N923 N 0.46887 0.85308 0.48412 0.0
H924 H 0.10213 0.97449 0.62007 0.0
H925 H 0.15605 0.07638 0.79508 0.0
H926 H 0.16933 1.00106 0.57906 0.0
H927 H 0.11605 0.01984 0.85857 0.0
H928 H 0.15479 0.05811 0.70471 0.0
H929 H 0.09962 1.00203 0.69403 0.0
C930 C 0.11601 0.9868 0.62535 0.0
C931 C 0.13588 0.98569 0.59312 0.0
C932 C 0.14619 0.04992 0.73852 0.0
C933 C 0.13349 0.01667 0.67938 0.0
C934 C 0.14681 0.0603 0.7898 0.0
C935 C 0.1362 0.04947 0.83414 0.0
C936 C 0.13425 0.02906 0.73174 0.0
C937 C 0.12459 0.02864 0.82552 0.0
C938 C 0.11468 1.00229 0.66808 0.0
C939 C 0.15361 1.00165 0.60266 0.0
N940 N 0.12381 0.01921 0.77535 0.0
N941 N 0.15218 0.01637 0.6457 0.0
H942 H 0.95111 0.60693 0.05988 0.0
H943 H 0.05266 0.66319 0.88594 0.0
H944 H 0.98224 0.6721 0.10044 0.0
H945 H 0.04244 0.58967 0.89681 0.0
H946 H 0.02195 0.66883 0.95262 0.0
H947 H 0.97879 0.60278 0.98482 0.0
C948 C 0.96324 0.6207 0.05159 0.0
C949 C 0.96438 0.64002 0.08539 0.0
C950 C 0.02652 0.65147 0.94059 0.0
C951 C 0.99609 0.63525 0.00146 0.0
C952 C 0.04408 0.64824 0.90284 0.0
C953 C 0.0502 0.62593 0.88639 0.0
C954 C 0.01469 0.63228 0.96118 0.0
C955 C 0.03846 0.60713 0.90915 0.0
C956 C 0.97921 0.61818 0.00958 0.0
C957 C 0.98079 0.65711 0.07455 0.0
N958 N 0.02109 0.61073 0.94517 0.0
N959 N 0.99606 0.65433 0.03348 0.0
H960 H 0.08763 0.25185 0.27434 0.0
H961 H 0.1431 0.19216 0.01264 0.0
H962 H 0.10941 0.29027 0.13402 0.0
H963 H 0.12216 0.15537 0.15625 0.0
H964 H 0.13279 0.22847 0.05708 0.0
H965 H 0.10223 0.21665 0.23275 0.0
C966 C 0.09551 0.25288 0.23472 0.0
C967 C 0.09711 0.27405 0.20751 0.0
C968 C 0.13062 0.21245 0.07894 0.0
C969 C 0.11401 0.23365 0.15937 0.0
C970 C 0.1364 0.19167 0.0535 0.0
C971 C 0.13347 0.17056 0.08059 0.0
C972 C 0.12174 0.21216 0.13183 0.0
C973 C 0.12503 0.17114 0.13386 0.0
C974 C 0.10395 0.23276 0.21101 0.0
C975 C 0.10791 0.27438 0.15662 0.0
N976 N 0.11937 0.19152 0.15748 0.0
N977 N 0.11579 0.25445 0.13399 0.0
H978 H 0.82292 0.65219 0.29649 0.0
H979 H 0.75269 0.5561 0.4608 0.0
H980 H 0.84849 0.58425 0.33443 0.0
H981 H 0.72279 0.62175 0.41856 0.0
H982 H 0.78758 0.56658 0.41245 0.0
H983 H 0.78565 0.64172 0.33735 0.0
C984 C 0.82065 0.63505 0.313 0.0
C985 C 0.83897 0.61919 0.31276 0.0
C986 C 0.77345 0.57878 0.41356 0.0
C987 C 0.79657 0.60717 0.35965 0.0
C988 C 0.75351 0.57285 0.44167 0.0
C989 C 0.73484 0.58819 0.44443 0.0
C990 C 0.77497 0.60032 0.38788 0.0
C991 C 0.73677 0.60941 0.41739 0.0
C992 C 0.79943 0.62913 0.3365 0.0
C993 C 0.83508 0.59724 0.3348 0.0
N994 N 0.75656 0.61494 0.39048 0.0
N995 N 0.81443 0.59197 0.35746 0.0
H996 H 0.37629 0.34758 0.65949 0.0
H997 H 0.41829 0.21695 0.62118 0.0
H998 H 0.39176 0.31852 0.50304 0.0
H999 H 0.4082 0.25034 0.77523 0.0
H1000 H 0.40516 0.25226 0.57577 0.0
H1001 H 0.38422 0.3104 0.70103 0.0
C1002 C 0.38133 0.33331 0.63381 0.0
C1003 C 0.38366 0.33627 0.57776 0.0
C1004 C 0.40577 0.25178 0.61951 0.0
C1005 C 0.39281 0.29338 0.62524 0.0
C1006 C 0.41316 0.23162 0.64543 0.0
C1007 C 0.41457 0.23075 0.70212 0.0
C1008 C 0.39959 0.27112 0.65057 0.0
C1009 C 0.40784 0.25033 0.73151 0.0
C1010 C 0.38582 0.31202 0.65757 0.0
C1011 C 0.38974 0.31699 0.5464 0.0
N1012 N 0.40072 0.26963 0.70545 0.0
N1013 N 0.39432 0.29638 0.57063 0.0
H1014 H 0.68704 0.85948 0.79861 0.0
H1015 H 0.7603 0.95853 0.94504 0.0
H1016 H 0.66385 0.9294 0.82245 0.0
H1017 H 0.78771 0.89044 0.91761 0.0
H1018 H 0.72561 0.94793 0.89594 0.0
H1019 H 0.72476 0.8702 0.83664 0.0
C1020 C 0.68994 0.87711 0.81128 0.0
C1021 C 0.67212 0.89348 0.80802 0.0
C1022 C 0.73915 0.93522 0.90036 0.0
C1023 C 0.71509 0.90581 0.85177 0.0
C1024 C 0.75898 0.94126 0.92881 0.0
C1025 C 0.77684 0.92526 0.93617 0.0
C1026 C 0.7369 0.91289 0.87907 0.0
C1027 C 0.77434 0.90329 0.91287 0.0
C1028 C 0.71143 0.88319 0.83321 0.0
C1029 C 0.67685 0.91606 0.82524 0.0
N1030 N 0.75463 0.89766 0.88574 0.0
N1031 N 0.69773 0.92147 0.84652 0.0
H1032 H 0.88172 0.28896 0.6988 0.0
H1033 H 0.91095 0.17594 0.52725 0.0
H1034 H 0.95047 0.26194 0.67926 0.0
H1035 H 0.84512 0.1848 0.60612 0.0
H1036 H 0.924 0.2123 0.56664 0.0
H1037 H 0.86646 0.25519 0.65002 0.0
C1038 C 0.89355 0.27597 0.68394 0.0
C1039 C 0.91734 0.27806 0.69336 0.0
C1040 C 0.90663 0.20639 0.57495 0.0
C1041 C 0.90019 0.23984 0.63723 0.0
C1042 C 0.89908 0.18575 0.55208 0.0
C1043 C 0.87691 0.17732 0.56344 0.0
C1044 C 0.89184 0.21889 0.60904 0.0
C1045 C 0.86241 0.19062 0.59667 0.0
C1046 C 0.88487 0.25674 0.65642 0.0
C1047 C 0.93201 0.26079 0.67351 0.0
N1048 N 0.87012 0.21078 0.61835 0.0
N1049 N 0.92322 0.24248 0.64619 0.0
H1050 H 0.83226 0.41149 0.76343 0.0
H1051 H 0.72112 0.38486 0.94539 0.0
H1052 H 0.82563 0.34919 0.85739 0.0
H1053 H 0.74235 0.45326 0.89905 0.0
H1054 H 0.75543 0.36915 0.89967 0.0
H1055 H 0.79499 0.42449 0.79829 0.0
C1056 C 0.82277 0.40036 0.79068 0.0
C1057 C 0.83209 0.37925 0.80765 0.0
C1058 C 0.75248 0.38759 0.89945 0.0
C1059 C 0.78951 0.39414 0.84812 0.0
C1060 C 0.73293 0.3965 0.92525 0.0
C1061 C 0.72908 0.42037 0.92638 0.0
C1062 C 0.76801 0.40266 0.87382 0.0
C1063 C 0.74489 0.43479 0.89987 0.0
C1064 C 0.8016 0.40789 0.81094 0.0
C1065 C 0.81916 0.36569 0.84369 0.0
N1066 N 0.76362 0.42572 0.87461 0.0
N1067 N 0.79852 0.37338 0.86282 0.0
H1068 H 0.59843 0.21694 0.12076 0.0
H1069 H 0.6376 0.34776 0.16622 0.0
H1070 H 0.59286 0.25267 0.27303 0.0
H1071 H 0.62067 0.32052 0.00863 0.0
H1072 H 0.62825 0.31047 0.20607 0.0
H1073 H 0.61356 0.25236 0.07928 0.0
C1074 C 0.60065 0.23217 0.14552 0.0
C1075 C 0.59427 0.23199 0.20028 0.0
C1076 C 0.6267 0.31263 0.16272 0.0
C1077 C 0.61155 0.27235 0.15342 0.0
C1078 C 0.63195 0.33396 0.13989 0.0
C1079 C 0.6296 0.3375 0.08396 0.0
C1080 C 0.61921 0.29451 0.12951 0.0
C1081 C 0.62284 0.31865 0.05186 0.0
C1082 C 0.60913 0.25236 0.12183 0.0
C1083 C 0.59729 0.25221 0.23054 0.0
N1084 N 0.61775 0.298 0.07513 0.0
N1085 N 0.60572 0.27155 0.20675 0.0
H1086 H 0.67527 0.0983 0.2829 0.0
H1087 H 0.78803 0.12575 0.4564 0.0
H1088 H 0.68155 0.16136 0.37425 0.0
H1089 H 0.76423 0.05705 0.42055 0.0
H1090 H 0.75287 0.14138 0.41388 0.0
H1091 H 0.712 0.08529 0.31985 0.0
C1092 C 0.68454 0.10955 0.31029 0.0
C1093 C 0.67537 0.13099 0.32541 0.0
C1094 C 0.75544 0.1229 0.41538 0.0
C1095 C 0.71744 0.11606 0.36824 0.0
C1096 C 0.77547 0.11403 0.43922 0.0
C1097 C 0.77886 0.09011 0.44217 0.0
C1098 C 0.73906 0.10769 0.39344 0.0
C1099 C 0.7621 0.07558 0.41968 0.0
C1100 C 0.70542 0.10202 0.33169 0.0
C1101 C 0.68798 0.14466 0.36182 0.0
N1102 N 0.743 0.08459 0.3961 0.0
N1103 N 0.70847 0.137 0.38196 0.0
H1104 H 0.60367 0.7958 0.62551 0.0
H1105 H 0.61481 0.65877 0.65218 0.0
H1106 H 0.58296 0.75656 0.76561 0.0
H1107 H 0.64103 0.6962 0.51433 0.0
H1108 H 0.60309 0.69491 0.69316 0.0
H1109 H 0.61775 0.76021 0.5835 0.0
C1110 C 0.60224 0.7798 0.6477 0.0
C1111 C 0.59197 0.77922 0.69923 0.0
C1112 C 0.61148 0.69534 0.65404 0.0
C1113 C 0.60782 0.73839 0.651 0.0
C1114 C 0.61836 0.67463 0.63065 0.0
C1115 C 0.62925 0.67435 0.57988 0.0
C1116 C 0.6153 0.71616 0.6266 0.0
C1117 C 0.63265 0.69553 0.55342 0.0
C1118 C 0.61016 0.75945 0.62349 0.0
C1119 C 0.59036 0.75785 0.72558 0.0
N1120 N 0.62573 0.71561 0.57713 0.0
N1121 N 0.59813 0.73838 0.70118 0.0
H1122 H 0.33232 0.08974 0.75206 0.0
H1123 H 0.21535 0.12298 0.90681 0.0
H1124 H 0.3143 0.1596 0.79447 0.0
H1125 H 0.24279 0.05402 0.89683 0.0
H1126 H 0.24798 0.13682 0.85234 0.0
H1127 H 0.2956 0.0766 0.78975 0.0
C1128 C 0.3204 0.1024 0.76813 0.0
C1129 C 0.32645 0.1258 0.77036 0.0
C1130 C 0.24678 0.11865 0.86197 0.0
C1131 C 0.28455 0.11081 0.81463 0.0
C1132 C 0.22816 0.11075 0.8929 0.0
C1133 C 0.2265 0.08737 0.90692 0.0
C1134 C 0.2637 0.10298 0.8444 0.0
C1135 C 0.24361 0.07226 0.88794 0.0
C1136 C 0.29955 0.09485 0.79024 0.0
C1137 C 0.31043 0.14136 0.79248 0.0
N1138 N 0.26146 0.08031 0.85774 0.0
N1139 N 0.2903 0.13358 0.81411 0.0
H1140 H 0.84538 0.82434 0.1057 0.0
H1141 H 0.95322 0.74174 0.1458 0.0
H1142 H 0.90862 0.83152 0.01516 0.0
H1143 H 0.88433 0.71956 0.18579 0.0
H1144 H 0.93726 0.77605 0.10246 0.0
H1145 H 0.85908 0.78699 0.13971 0.0
C1146 C 0.86203 0.81796 0.09262 0.0
C1147 C 0.87588 0.83106 0.05751 0.0
C1148 C 0.92558 0.76365 0.12041 0.0
C1149 C 0.89173 0.7886 0.09675 0.0
C1150 C 0.9347 0.74416 0.14548 0.0
C1151 C 0.92005 0.72791 0.16969 0.0
C1152 C 0.90161 0.76721 0.12027 0.0
C1153 C 0.89615 0.73169 0.1674 0.0
C1154 C 0.86979 0.79664 0.11187 0.0
C1155 C 0.89727 0.82192 0.04167 0.0
N1156 N 0.88764 0.75112 0.14367 0.0
N1157 N 0.90464 0.80143 0.06188 0.0
H1158 H 0.25677 0.44374 0.5032 0.0
H1159 H 0.19172 0.35631 0.30874 0.0
H1160 H 0.29497 0.39733 0.39958 0.0
H1161 H 0.16371 0.42201 0.35832 0.0
H1162 H 0.22891 0.36741 0.34873 0.0
H1163 H 0.22141 0.43162 0.45971 0.0
C1164 C 0.25796 0.43115 0.47114 0.0
C1165 C 0.27934 0.42204 0.45469 0.0
C1166 C 0.21454 0.37931 0.35064 0.0
C1167 C 0.23821 0.40758 0.40516 0.0
C1168 C 0.19333 0.37307 0.32763 0.0
C1169 C 0.17428 0.38804 0.33083 0.0
C1170 C 0.2166 0.40054 0.37751 0.0
C1171 C 0.17752 0.4095 0.3562 0.0
C1172 C 0.23757 0.42416 0.44636 0.0
C1173 C 0.27916 0.40506 0.41385 0.0
N1174 N 0.19811 0.41496 0.37888 0.0
N1175 N 0.25892 0.39838 0.3905 0.0
H1176 H 0.41141 0.79558 0.12264 0.0
H1177 H 0.37907 0.6626 0.16545 0.0
H1178 H 0.41583 0.76019 0.27559 0.0
H1179 H 0.38908 0.69268 0.00752 0.0
H1180 H 0.38786 0.69974 0.2065 0.0
H1181 H 0.39866 0.75959 0.08004 0.0
C1182 C 0.40949 0.78031 0.14736 0.0
C1183 C 0.41475 0.78087 0.20281 0.0
C1184 C 0.38809 0.69828 0.16285 0.0
C1185 C 0.40025 0.73966 0.1543 0.0
C1186 C 0.38315 0.67701 0.1393 0.0
C1187 C 0.38364 0.67434 0.08284 0.0
C1188 C 0.39349 0.71722 0.1299 0.0
C1189 C 0.38842 0.69389 0.05116 0.0
C1190 C 0.40236 0.75974 0.12295 0.0
C1191 C 0.41224 0.76047 0.23267 0.0
N1192 N 0.39328 0.71448 0.07513 0.0
N1193 N 0.40516 0.74075 0.20811 0.0
H1194 H 0.23272 0.87813 0.4832 0.0
H1195 H 0.33433 0.92904 0.30534 0.0
H1196 H 0.2254 0.94276 0.39917 0.0
H1197 H 0.32446 0.85587 0.32511 0.0
H1198 H 0.29635 0.93575 0.34653 0.0
H1199 H 0.26854 0.87081 0.43332 0.0
C1200 C 0.23875 0.8908 0.45432 0.0
C1201 C 0.22622 0.91114 0.4454 0.0
C1202 C 0.30242 0.91823 0.34137 0.0
C1203 C 0.26716 0.90296 0.38848 0.0
C1204 C 0.32407 0.91441 0.3181 0.0
C1205 C 0.33247 0.89187 0.3119 0.0
C1206 C 0.28935 0.89942 0.3597 0.0
C1207 C 0.31851 0.87349 0.3289 0.0
C1208 C 0.25905 0.88655 0.42561 0.0
C1209 C 0.23457 0.92687 0.40699 0.0
N1210 N 0.29775 0.87767 0.35267 0.0
N1211 N 0.25469 0.92259 0.38033 0.0
H1212 H 0.15149 0.81482 0.51978 0.0
H1213 H 0.05363 0.74067 0.66475 0.0
H1214 H 0.0792 0.83221 0.52055 0.0
H1215 H 0.1229 0.71502 0.64456 0.0
H1216 H 0.06304 0.77344 0.60759 0.0
H1217 H 0.14187 0.77691 0.55856 0.0
C1218 C 0.13357 0.81038 0.52675 0.0
C1219 C 0.1161 0.82663 0.51743 0.0
C1220 C 0.07625 0.76066 0.61527 0.0
C1221 C 0.10504 0.78379 0.56253 0.0
C1222 C 0.0709 0.74202 0.64841 0.0
C1223 C 0.0876 0.72528 0.66006 0.0
C1224 C 0.0986 0.76287 0.59384 0.0
C1225 C 0.10956 0.72762 0.63659 0.0
C1226 C 0.1281 0.78887 0.54926 0.0
C1227 C 0.09319 0.82022 0.52766 0.0
N1228 N 0.11454 0.74624 0.60503 0.0
N1229 N 0.08837 0.79946 0.55019 0.0
H1230 H 0.26655 0.55628 0.91649 0.0
H1231 H 0.18516 0.66083 0.83891 0.0
H1232 H 0.28802 0.62669 0.94005 0.0
H1233 H 0.18065 0.59453 0.76074 0.0
H1234 H 0.2217 0.64894 0.8805 0.0
H1235 H 0.23337 0.56988 0.86442 0.0
C1236 C 0.26418 0.57463 0.91083 0.0
C1237 C 0.27988 0.59043 0.93291 0.0
C1238 C 0.21286 0.63713 0.85365 0.0
C1239 C 0.242 0.60614 0.87338 0.0
C1240 C 0.19203 0.64389 0.83002 0.0
C1241 C 0.1799 0.62863 0.79635 0.0
C1242 C 0.22134 0.6148 0.84445 0.0
C1243 C 0.18956 0.60688 0.78606 0.0
C1244 C 0.24538 0.58238 0.88072 0.0
C1245 C 0.27626 0.61401 0.92357 0.0
N1246 N 0.20953 0.6005 0.81061 0.0
N1247 N 0.25753 0.6212 0.89499 0.0
loop_
_geom_bond_atom_site_label_1
_geom_bond_atom_site_label_2
_geom_bond_distance
_geom_bond_site_symmetry_2
_ccdc_geom_bond_type
Co0 N4 2.148 . S
Co0 N10 2.128 . S
Co0 N20 2.194 1_556 S
Co0 O25 2.351 . S
Co0 O26 2.155 . S
Co0 O27 2.096 1_556 S
C1 N4 1.301 . S
C1 N5 1.328 . S
C1 H6 0.930 . S
C2 C3 1.333 . S
C2 N4 1.317 1_554 S
C2 H7 0.930 . S
C3 C2 1.333 . S
C3 N5 1.350 1_554 S
C3 H29 0.931 . S
N4 Co0 2.148 . S
N4 C1 1.301 . S
N4 C2 1.317 1_556 S
N5 C1 1.328 . S
N5 C3 1.350 1_556 S
H6 C1 0.930 . S
H7 C2 0.930 . S
C8 O9 1.224 . S
C8 O27 1.247 . S
O9 C8 1.224 . S
N10 Co0 2.128 . S
N10 C11 1.355 . S
N10 C13 1.311 1_556 S
C11 N10 1.355 . S
C11 C12 1.363 . S
C11 H23 0.929 . S
C12 C11 1.363 . S
C12 N14 1.375 1_556 S
C12 H30 0.931 . S
C13 N10 1.311 1_554 S
C13 N14 1.347 . S
C13 H24 0.929 . S
N14 C12 1.375 1_554 S
N14 C13 1.347 . S
C15 C18 1.365 . S
C15 N20 1.328 1_556 S
C15 H21 0.929 . S
C16 C17 1.362 . S
C16 C19 1.378 . S
C16 H31 0.929 . S
C17 C16 1.362 . S
C17 C18 1.366 1_554 S
C18 C15 1.365 . S
C18 C17 1.366 1_556 S
C18 H32 0.930 . S
C19 C16 1.378 . S
C19 N20 1.315 . S
C19 H22 0.930 . S
N20 Co0 2.194 1_554 S
N20 C15 1.328 1_554 S
N20 C19 1.315 . S
H21 C15 0.929 . S
H22 C19 0.930 . S
H23 C11 0.929 . S
H24 C13 0.929 . S
O25 Co0 2.351 . S
O25 C28 1.244 . S
O26 Co0 2.155 . S
O26 C28 1.240 . S
O27 Co0 2.096 1_554 S
O27 C8 1.247 . S
C28 O25 1.244 . S
C28 O26 1.240 . S
H29 C3 0.931 . S
H30 C12 0.931 . S
H31 C16 0.929 . S
H32 C18 0.930 . S
Co33 N37 2.148 . S
Co33 N43 2.128 . S
Co33 N53 2.194 . S
Co33 O58 2.351 . S
Co33 O59 2.155 . S
Co33 O60 2.096 . S
C34 N37 1.301 . S
C34 N38 1.328 . S
C34 H39 0.930 . S
C35 C36 1.333 . S
C35 N37 1.317 . S
C35 H40 0.930 . S
C36 C35 1.333 . S
C36 N38 1.350 . S
C36 H62 0.931 . S
N37 Co33 2.148 . S
N37 C34 1.301 . S
N37 C35 1.317 . S
N38 C34 1.328 . S
N38 C36 1.350 . S
H39 C34 0.930 . S
H40 C35 0.930 . S
C41 O42 1.224 . S
C41 O60 1.247 . S
O42 C41 1.224 . S
N43 Co33 2.128 . S
N43 C44 1.355 . S
N43 C46 1.311 . S
C44 N43 1.355 . S
C44 C45 1.363 . S
C44 H56 0.929 . S
C45 C44 1.363 . S
C45 N47 1.375 . S
C45 H63 0.931 . S
C46 N43 1.311 . S
C46 N47 1.347 . S
C46 H57 0.929 . S
N47 C45 1.375 . S
N47 C46 1.347 . S
C48 C51 1.365 . S
C48 N53 1.328 . S
C48 H54 0.929 . S
C49 C50 1.362 . S
C49 C52 1.378 . S
C49 H64 0.929 . S
C50 C49 1.362 . S
C50 C51 1.366 . S
C51 C48 1.365 . S
C51 C50 1.366 . S
C51 H65 0.930 . S
C52 C49 1.378 . S
C52 N53 1.315 . S
C52 H55 0.930 . S
N53 Co33 2.194 . S
N53 C48 1.328 . S
N53 C52 1.315 . S
H54 C48 0.929 . S
H55 C52 0.930 . S
H56 C44 0.929 . S
H57 C46 0.929 . S
O58 Co33 2.351 . S
O58 C61 1.244 . S
O59 Co33 2.155 . S
O59 C61 1.240 . S
O60 Co33 2.096 . S
O60 C41 1.247 . S
C61 O58 1.244 . S
C61 O59 1.240 . S
H62 C36 0.931 . S
H63 C45 0.931 . S
H64 C49 0.929 . S
H65 C51 0.930 . S
Co66 N70 2.148 . S
Co66 N76 2.128 . S
Co66 N86 2.194 . S
Co66 O91 2.351 . S
Co66 O92 2.155 . S
Co66 O93 2.096 . S
C67 N70 1.301 . S
C67 N71 1.328 . S
C67 H72 0.930 . S
C68 C69 1.333 . S
C68 N70 1.317 . S
C68 H73 0.930 . S
C69 C68 1.333 . S
C69 N71 1.350 . S
C69 H95 0.931 . S
N70 Co66 2.148 . S
N70 C67 1.301 . S
N70 C68 1.317 . S
N71 C67 1.328 . S
N71 C69 1.350 . S
H72 C67 0.930 . S
H73 C68 0.930 . S
C74 O75 1.224 . S
C74 O93 1.247 . S
O75 C74 1.224 . S
N76 Co66 2.128 . S
N76 C77 1.355 . S
N76 C79 1.311 . S
C77 N76 1.355 . S
C77 C78 1.363 . S
C77 H89 0.929 . S
C78 C77 1.363 . S
C78 N80 1.375 . S
C78 H96 0.931 . S
C79 N76 1.311 . S
C79 N80 1.347 . S
C79 H90 0.929 . S
N80 C78 1.375 . S
N80 C79 1.347 . S
C81 C84 1.365 . S
C81 N86 1.328 . S
C81 H87 0.929 . S
C82 C83 1.362 . S
C82 C85 1.378 . S
C82 H97 0.929 . S
C83 C82 1.362 . S
C83 C84 1.366 . S
C84 C81 1.365 . S
C84 C83 1.366 . S
C84 H98 0.930 . S
C85 C82 1.378 . S
C85 N86 1.315 . S
C85 H88 0.930 . S
N86 Co66 2.194 . S
N86 C81 1.328 . S
N86 C85 1.315 . S
H87 C81 0.929 . S
H88 C85 0.930 . S
H89 C77 0.929 . S
H90 C79 0.929 . S
O91 Co66 2.351 . S
O91 C94 1.244 . S
O92 Co66 2.155 . S
O92 C94 1.240 . S
O93 Co66 2.096 . S
O93 C74 1.247 . S
C94 O91 1.244 . S
C94 O92 1.240 . S
H95 C69 0.931 . S
H96 C78 0.931 . S
H97 C82 0.929 . S
H98 C84 0.930 . S
Co99 N103 2.148 . S
Co99 N109 2.128 . S
Co99 N119 2.194 . S
Co99 O124 2.351 . S
Co99 O125 2.155 . S
Co99 O126 2.096 . S
C100 N103 1.301 . S
C100 N104 1.328 . S
C100 H105 0.930 . S
C101 C102 1.333 . S
C101 N103 1.317 . S
C101 H106 0.930 . S
C102 C101 1.333 . S
C102 N104 1.350 . S
C102 H128 0.931 . S
N103 Co99 2.148 . S
N103 C100 1.301 . S
N103 C101 1.317 . S
N104 C100 1.328 . S
N104 C102 1.350 . S
H105 C100 0.930 . S
H106 C101 0.930 . S
C107 O108 1.224 . S
C107 O126 1.247 . S
O108 C107 1.224 . S
N109 Co99 2.128 . S
N109 C110 1.355 . S
N109 C112 1.311 . S
C110 N109 1.355 . S
C110 C111 1.363 . S
C110 H122 0.929 . S
C111 C110 1.363 . S
C111 N113 1.375 . S
C111 H129 0.931 . S
C112 N109 1.311 . S
C112 N113 1.347 . S
C112 H123 0.929 . S
N113 C111 1.375 . S
N113 C112 1.347 . S
C114 C117 1.365 . S
C114 N119 1.328 . S
C114 H120 0.929 . S
C115 C116 1.362 . S
C115 C118 1.378 . S
C115 H130 0.929 . S
C116 C115 1.362 . S
C116 C117 1.366 . S
C117 C114 1.365 . S
C117 C116 1.366 . S
C117 H131 0.930 . S
C118 C115 1.378 . S
C118 N119 1.315 . S
C118 H121 0.930 . S
N119 Co99 2.194 . S
N119 C114 1.328 . S
N119 C118 1.315 . S
H120 C114 0.929 . S
H121 C118 0.930 . S
H122 C110 0.929 . S
H123 C112 0.929 . S
O124 Co99 2.351 . S
O124 C127 1.244 . S
O125 Co99 2.155 . S
O125 C127 1.240 . S
O126 Co99 2.096 . S
O126 C107 1.247 . S
C127 O124 1.244 . S
C127 O125 1.240 . S
H128 C102 0.931 . S
H129 C111 0.931 . S
H130 C115 0.929 . S
H131 C117 0.930 . S
Co132 N136 2.148 . S
Co132 N142 2.128 . S
Co132 N152 2.194 . S
Co132 O157 2.351 . S
Co132 O158 2.155 . S
Co132 O159 2.096 . S
C133 N136 1.301 . S
C133 N137 1.328 . S
C133 H138 0.930 . S
C134 C135 1.333 . S
C134 N136 1.317 . S
C134 H139 0.930 . S
C135 C134 1.333 . S
C135 N137 1.350 . S
C135 H161 0.931 . S
N136 Co132 2.148 . S
N136 C133 1.301 . S
N136 C134 1.317 . S
N137 C133 1.328 . S
N137 C135 1.350 . S
H138 C133 0.930 . S
H139 C134 0.930 . S
C140 O141 1.224 . S
C140 O159 1.247 . S
O141 C140 1.224 . S
N142 Co132 2.128 . S
N142 C143 1.355 . S
N142 C145 1.311 . S
C143 N142 1.355 . S
C143 C144 1.363 . S
C143 H155 0.929 . S
C144 C143 1.363 . S
C144 N146 1.375 . S
C144 H162 0.931 . S
C145 N142 1.311 . S
C145 N146 1.347 . S
C145 H156 0.929 . S
N146 C144 1.375 . S
N146 C145 1.347 . S
C147 C150 1.365 . S
C147 N152 1.328 . S
C147 H153 0.929 . S
C148 C149 1.362 . S
C148 C151 1.378 . S
C148 H163 0.929 . S
C149 C148 1.362 . S
C149 C150 1.366 . S
C150 C147 1.365 . S
C150 C149 1.366 . S
C150 H164 0.930 . S
C151 C148 1.378 . S
C151 N152 1.315 . S
C151 H154 0.930 . S
N152 Co132 2.194 . S
N152 C147 1.328 . S
N152 C151 1.315 . S
H153 C147 0.929 . S
H154 C151 0.930 . S
H155 C143 0.929 . S
H156 C145 0.929 . S
O157 Co132 2.351 . S
O157 C160 1.244 . S
O158 Co132 2.155 . S
O158 C160 1.240 . S
O159 Co132 2.096 . S
O159 C140 1.247 . S
C160 O157 1.244 . S
C160 O158 1.240 . S
H161 C135 0.931 . S
H162 C144 0.931 . S
H163 C148 0.929 . S
H164 C150 0.930 . S
Co165 N169 2.148 . S
Co165 N175 2.128 . S
Co165 N185 2.194 . S
Co165 O190 2.351 . S
Co165 O191 2.155 . S
Co165 O192 2.096 . S
C166 N169 1.301 . S
C166 N170 1.328 . S
C166 H171 0.930 . S
C167 C168 1.333 . S
C167 N169 1.317 . S
C167 H172 0.930 . S
C168 C167 1.333 . S
C168 N170 1.350 . S
C168 H194 0.931 . S
N169 Co165 2.148 . S
N169 C166 1.301 . S
N169 C167 1.317 . S
N170 C166 1.328 . S
N170 C168 1.350 . S
H171 C166 0.930 . S
H172 C167 0.930 . S
C173 O174 1.224 . S
C173 O192 1.247 . S
O174 C173 1.224 . S
N175 Co165 2.128 . S
N175 C176 1.355 . S
N175 C178 1.311 . S
C176 N175 1.355 . S
C176 C177 1.363 . S
C176 H188 0.929 . S
C177 C176 1.363 . S
C177 N179 1.375 . S
C177 H195 0.931 . S
C178 N175 1.311 . S
C178 N179 1.347 . S
C178 H189 0.929 . S
N179 C177 1.375 . S
N179 C178 1.347 . S
C180 C183 1.365 . S
C180 N185 1.328 . S
C180 H186 0.929 . S
C181 C182 1.362 . S
C181 C184 1.378 . S
C181 H196 0.929 . S
C182 C181 1.362 . S
C182 C183 1.366 . S
C183 C180 1.365 . S
C183 C182 1.366 . S
C183 H197 0.930 . S
C184 C181 1.378 . S
C184 N185 1.315 . S
C184 H187 0.930 . S
N185 Co165 2.194 . S
N185 C180 1.328 . S
N185 C184 1.315 . S
H186 C180 0.929 . S
H187 C184 0.930 . S
H188 C176 0.929 . S
H189 C178 0.929 . S
O190 Co165 2.351 . S
O190 C193 1.244 . S
O191 Co165 2.155 . S
O191 C193 1.240 . S
O192 Co165 2.096 . S
O192 C173 1.247 . S
C193 O190 1.244 . S
C193 O191 1.240 . S
H194 C168 0.931 . S
H195 C177 0.931 . S
H196 C181 0.929 . S
H197 C183 0.930 . S
Co198 N202 2.148 . S
Co198 N208 2.128 . S
Co198 N218 2.194 1_556 S
Co198 O223 2.351 . S
Co198 O224 2.155 . S
Co198 O225 2.096 1_556 S
C199 N202 1.301 . S
C199 N203 1.328 . S
C199 H204 0.930 . S
C200 C201 1.333 . S
C200 N202 1.317 1_554 S
C200 H205 0.930 . S
C201 C200 1.333 . S
C201 N203 1.350 1_554 S
C201 H227 0.931 . S
N202 Co198 2.148 . S
N202 C199 1.301 . S
N202 C200 1.317 1_556 S
N203 C199 1.328 . S
N203 C201 1.350 1_556 S
H204 C199 0.930 . S
H205 C200 0.930 . S
C206 O207 1.224 . S
C206 O225 1.247 . S
O207 C206 1.224 . S
N208 Co198 2.128 . S
N208 C209 1.355 . S
N208 C211 1.311 1_556 S
C209 N208 1.355 . S
C209 C210 1.363 . S
C209 H221 0.929 . S
C210 C209 1.363 . S
C210 N212 1.375 1_556 S
C210 H228 0.931 . S
C211 N208 1.311 1_554 S
C211 N212 1.347 . S
C211 H222 0.929 . S
N212 C210 1.375 1_554 S
N212 C211 1.347 . S
C213 C216 1.365 . S
C213 N218 1.328 1_556 S
C213 H219 0.929 . S
C214 C215 1.362 . S
C214 C217 1.378 . S
C214 H229 0.929 . S
C215 C214 1.362 . S
C215 C216 1.366 1_554 S
C216 C213 1.365 . S
C216 C215 1.366 1_556 S
C216 H230 0.930 . S
C217 C214 1.378 . S
C217 N218 1.315 . S
C217 H220 0.930 . S
N218 Co198 2.194 1_554 S
N218 C213 1.328 1_554 S
N218 C217 1.315 . S
H219 C213 0.929 . S
H220 C217 0.930 . S
H221 C209 0.929 . S
H222 C211 0.929 . S
O223 Co198 2.351 . S
O223 C226 1.244 . S
O224 Co198 2.155 . S
O224 C226 1.240 . S
O225 Co198 2.096 1_554 S
O225 C206 1.247 . S
C226 O223 1.244 . S
C226 O224 1.240 . S
H227 C201 0.931 . S
H228 C210 0.931 . S
H229 C214 0.929 . S
H230 C216 0.930 . S
Co231 N235 2.148 . S
Co231 N241 2.128 . S
Co231 N251 2.194 . S
Co231 O256 2.351 . S
Co231 O257 2.155 . S
Co231 O258 2.096 . S
C232 N235 1.301 . S
C232 N236 1.328 . S
C232 H237 0.930 . S
C233 C234 1.333 . S
C233 N235 1.317 . S
C233 H238 0.930 . S
C234 C233 1.333 . S
C234 N236 1.350 . S
C234 H260 0.931 . S
N235 Co231 2.148 . S
N235 C232 1.301 . S
N235 C233 1.317 . S
N236 C232 1.328 . S
N236 C234 1.350 . S
H237 C232 0.930 . S
H238 C233 0.930 . S
C239 O240 1.224 . S
C239 O258 1.247 . S
O240 C239 1.224 . S
N241 Co231 2.128 . S
N241 C242 1.355 . S
N241 C244 1.311 . S
C242 N241 1.355 . S
C242 C243 1.363 . S
C242 H254 0.929 . S
C243 C242 1.363 . S
C243 N245 1.375 . S
C243 H261 0.931 . S
C244 N241 1.311 . S
C244 N245 1.347 . S
C244 H255 0.929 . S
N245 C243 1.375 . S
N245 C244 1.347 . S
C246 C249 1.365 . S
C246 N251 1.328 . S
C246 H252 0.929 . S
C247 C248 1.362 . S
C247 C250 1.378 . S
C247 H262 0.929 . S
C248 C247 1.362 . S
C248 C249 1.366 . S
C249 C246 1.365 . S
C249 C248 1.366 . S
C249 H263 0.930 . S
C250 C247 1.378 . S
C250 N251 1.315 . S
C250 H253 0.930 . S
N251 Co231 2.194 . S
N251 C246 1.328 . S
N251 C250 1.315 . S
H252 C246 0.929 . S
H253 C250 0.930 . S
H254 C242 0.929 . S
H255 C244 0.929 . S
O256 Co231 2.351 . S
O256 C259 1.244 . S
O257 Co231 2.155 . S
O257 C259 1.240 . S
O258 Co231 2.096 . S
O258 C239 1.247 . S
C259 O256 1.244 . S
C259 O257 1.240 . S
H260 C234 0.931 . S
H261 C243 0.931 . S
H262 C247 0.929 . S
H263 C249 0.930 . S
Co264 N268 2.148 . S
Co264 N274 2.128 . S
Co264 N284 2.194 . S
Co264 O289 2.351 . S
Co264 O290 2.155 . S
Co264 O291 2.096 . S
C265 N268 1.301 . S
C265 N269 1.328 . S
C265 H270 0.930 . S
C266 C267 1.333 . S
C266 N268 1.317 . S
C266 H271 0.930 . S
C267 C266 1.333 . S
C267 N269 1.350 . S
C267 H293 0.931 . S
N268 Co264 2.148 . S
N268 C265 1.301 . S
N268 C266 1.317 . S
N269 C265 1.328 . S
N269 C267 1.350 . S
H270 C265 0.930 . S
H271 C266 0.930 . S
C272 O273 1.224 . S
C272 O291 1.247 . S
O273 C272 1.224 . S
N274 Co264 2.128 . S
N274 C275 1.355 . S
N274 C277 1.311 . S
C275 N274 1.355 . S
C275 C276 1.363 . S
C275 H287 0.929 . S
C276 C275 1.363 . S
C276 N278 1.375 . S
C276 H294 0.931 . S
C277 N274 1.311 . S
C277 N278 1.347 . S
C277 H288 0.929 . S
N278 C276 1.375 . S
N278 C277 1.347 . S
C279 C282 1.365 . S
C279 N284 1.328 . S
C279 H285 0.929 . S
C280 C281 1.362 . S
C280 C283 1.378 . S
C280 H295 0.929 . S
C281 C280 1.362 . S
C281 C282 1.366 . S
C282 C279 1.365 . S
C282 C281 1.366 . S
C282 H296 0.930 . S
C283 C280 1.378 . S
C283 N284 1.315 . S
C283 H286 0.930 . S
N284 Co264 2.194 . S
N284 C279 1.328 . S
N284 C283 1.315 . S
H285 C279 0.929 . S
H286 C283 0.930 . S
H287 C275 0.929 . S
H288 C277 0.929 . S
O289 Co264 2.351 . S
O289 C292 1.244 . S
O290 Co264 2.155 . S
O290 C292 1.240 . S
O291 Co264 2.096 . S
O291 C272 1.247 . S
C292 O289 1.244 . S
C292 O290 1.240 . S
H293 C267 0.931 . S
H294 C276 0.931 . S
H295 C280 0.929 . S
H296 C282 0.930 . S
Co297 N301 2.148 . S
Co297 N307 2.128 . S
Co297 N317 2.194 . S
Co297 O322 2.351 . S
Co297 O323 2.155 . S
Co297 O324 2.096 . S
C298 N301 1.301 . S
C298 N302 1.328 . S
C298 H303 0.930 . S
C299 C300 1.333 . S
C299 N301 1.317 . S
C299 H304 0.930 . S
C300 C299 1.333 . S
C300 N302 1.350 . S
C300 H326 0.931 . S
N301 Co297 2.148 . S
N301 C298 1.301 . S
N301 C299 1.317 . S
N302 C298 1.328 . S
N302 C300 1.350 . S
H303 C298 0.930 . S
H304 C299 0.930 . S
C305 O306 1.224 . S
C305 O324 1.247 . S
O306 C305 1.224 . S
N307 Co297 2.128 . S
N307 C308 1.355 . S
N307 C310 1.311 . S
C308 N307 1.355 . S
C308 C309 1.363 . S
C308 H320 0.929 . S
C309 C308 1.363 . S
C309 N311 1.375 . S
C309 H327 0.931 . S
C310 N307 1.311 . S
C310 N311 1.347 . S
C310 H321 0.929 . S
N311 C309 1.375 . S
N311 C310 1.347 . S
C312 C315 1.365 . S
C312 N317 1.328 . S
C312 H318 0.929 . S
C313 C314 1.362 . S
C313 C316 1.378 . S
C313 H328 0.929 . S
C314 C313 1.362 . S
C314 C315 1.366 . S
C315 C312 1.365 . S
C315 C314 1.366 . S
C315 H329 0.930 . S
C316 C313 1.378 . S
C316 N317 1.315 . S
C316 H319 0.930 . S
N317 Co297 2.194 . S
N317 C312 1.328 . S
N317 C316 1.315 . S
H318 C312 0.929 . S
H319 C316 0.930 . S
H320 C308 0.929 . S
H321 C310 0.929 . S
O322 Co297 2.351 . S
O322 C325 1.244 . S
O323 Co297 2.155 . S
O323 C325 1.240 . S
O324 Co297 2.096 . S
O324 C305 1.247 . S
C325 O322 1.244 . S
C325 O323 1.240 . S
H326 C300 0.931 . S
H327 C309 0.931 . S
H328 C313 0.929 . S
H329 C315 0.930 . S
Co330 N334 2.148 . S
Co330 N340 2.128 . S
Co330 N350 2.194 1_556 S
Co330 O355 2.351 . S
Co330 O356 2.155 . S
Co330 O357 2.096 1_556 S
C331 N334 1.301 . S
C331 N335 1.328 . S
C331 H336 0.930 . S
C332 C333 1.333 . S
C332 N334 1.317 1_554 S
C332 H337 0.930 . S
C333 C332 1.333 . S
C333 N335 1.350 1_554 S
C333 H359 0.931 . S
N334 Co330 2.148 . S
N334 C331 1.301 . S
N334 C332 1.317 1_556 S
N335 C331 1.328 . S
N335 C333 1.350 1_556 S
H336 C331 0.930 . S
H337 C332 0.930 . S
C338 O339 1.224 . S
C338 O357 1.247 . S
O339 C338 1.224 . S
N340 Co330 2.128 . S
N340 C341 1.355 . S
N340 C343 1.311 1_556 S
C341 N340 1.355 . S
C341 C342 1.363 . S
C341 H353 0.929 . S
C342 C341 1.363 . S
C342 N344 1.375 1_556 S
C342 H360 0.931 . S
C343 N340 1.311 1_554 S
C343 N344 1.347 . S
C343 H354 0.929 . S
N344 C342 1.375 1_554 S
N344 C343 1.347 . S
C345 C348 1.365 . S
C345 N350 1.328 1_556 S
C345 H351 0.929 . S
C346 C347 1.362 . S
C346 C349 1.378 . S
C346 H361 0.929 . S
C347 C346 1.362 . S
C347 C348 1.366 1_554 S
C348 C345 1.365 . S
C348 C347 1.366 1_556 S
C348 H362 0.930 . S
C349 C346 1.378 . S
C349 N350 1.315 . S
C349 H352 0.930 . S
N350 Co330 2.194 1_554 S
N350 C345 1.328 1_554 S
N350 C349 1.315 . S
H351 C345 0.929 . S
H352 C349 0.930 . S
H353 C341 0.929 . S
H354 C343 0.929 . S
O355 Co330 2.351 . S
O355 C358 1.244 . S
O356 Co330 2.155 . S
O356 C358 1.240 . S
O357 Co330 2.096 1_554 S
O357 C338 1.247 . S
C358 O355 1.244 . S
C358 O356 1.240 . S
H359 C333 0.931 . S
H360 C342 0.931 . S
H361 C346 0.929 . S
H362 C348 0.930 . S
Co363 N367 2.148 . S
Co363 N373 2.128 . S
Co363 N383 2.194 . S
Co363 O388 2.351 . S
Co363 O389 2.155 . S
Co363 O390 2.096 . S
C364 N367 1.301 . S
C364 N368 1.328 . S
C364 H369 0.930 . S
C365 C366 1.333 . S
C365 N367 1.317 . S
C365 H370 0.930 . S
C366 C365 1.333 . S
C366 N368 1.350 . S
C366 H392 0.931 . S
N367 Co363 2.148 . S
N367 C364 1.301 . S
N367 C365 1.317 . S
N368 C364 1.328 . S
N368 C366 1.350 . S
H369 C364 0.930 . S
H370 C365 0.930 . S
C371 O372 1.224 . S
C371 O390 1.247 . S
O372 C371 1.224 . S
N373 Co363 2.128 . S
N373 C374 1.355 . S
N373 C376 1.311 . S
C374 N373 1.355 . S
C374 C375 1.363 . S
C374 H386 0.929 . S
C375 C374 1.363 . S
C375 N377 1.375 . S
C375 H393 0.931 . S
C376 N373 1.311 . S
C376 N377 1.347 . S
C376 H387 0.929 . S
N377 C375 1.375 . S
N377 C376 1.347 . S
C378 C381 1.365 . S
C378 N383 1.328 . S
C378 H384 0.929 . S
C379 C380 1.362 . S
C379 C382 1.378 . S
C379 H394 0.929 . S
C380 C379 1.362 . S
C380 C381 1.366 . S
C381 C378 1.365 . S
C381 C380 1.366 . S
C381 H395 0.930 . S
C382 C379 1.378 . S
C382 N383 1.315 . S
C382 H385 0.930 . S
N383 Co363 2.194 . S
N383 C378 1.328 . S
N383 C382 1.315 . S
H384 C378 0.929 . S
H385 C382 0.930 . S
H386 C374 0.929 . S
H387 C376 0.929 . S
O388 Co363 2.351 . S
O388 C391 1.244 . S
O389 Co363 2.155 . S
O389 C391 1.240 . S
O390 Co363 2.096 . S
O390 C371 1.247 . S
C391 O388 1.244 . S
C391 O389 1.240 . S
H392 C366 0.931 . S
H393 C375 0.931 . S
H394 C379 0.929 . S
H395 C381 0.930 . S
Co396 N400 2.148 . S
Co396 N406 2.128 . S
Co396 N416 2.194 1_556 S
Co396 O421 2.351 . S
Co396 O422 2.155 . S
Co396 O423 2.096 1_556 S
C397 N400 1.301 . S
C397 N401 1.328 . S
C397 H402 0.930 . S
C398 C399 1.333 . S
C398 N400 1.317 1_554 S
C398 H403 0.930 . S
C399 C398 1.333 . S
C399 N401 1.350 1_554 S
C399 H425 0.931 . S
N400 Co396 2.148 . S
N400 C397 1.301 . S
N400 C398 1.317 1_556 S
N401 C397 1.328 . S
N401 C399 1.350 1_556 S
H402 C397 0.930 . S
H403 C398 0.930 . S
C404 O405 1.224 . S
C404 O423 1.247 . S
O405 C404 1.224 . S
N406 Co396 2.128 . S
N406 C407 1.355 . S
N406 C409 1.311 1_556 S
C407 N406 1.355 . S
C407 C408 1.363 . S
C407 H419 0.929 . S
C408 C407 1.363 . S
C408 N410 1.375 1_556 S
C408 H426 0.931 . S
C409 N406 1.311 1_554 S
C409 N410 1.347 . S
C409 H420 0.929 . S
N410 C408 1.375 1_554 S
N410 C409 1.347 . S
C411 C414 1.365 . S
C411 N416 1.328 1_556 S
C411 H417 0.929 . S
C412 C413 1.362 . S
C412 C415 1.378 . S
C412 H427 0.929 . S
C413 C412 1.362 . S
C413 C414 1.366 1_554 S
C414 C411 1.365 . S
C414 C413 1.366 1_556 S
C414 H428 0.930 . S
C415 C412 1.378 . S
C415 N416 1.315 . S
C415 H418 0.930 . S
N416 Co396 2.194 1_554 S
N416 C411 1.328 1_554 S
N416 C415 1.315 . S
H417 C411 0.929 . S
H418 C415 0.930 . S
H419 C407 0.929 . S
H420 C409 0.929 . S
O421 Co396 2.351 . S
O421 C424 1.244 . S
O422 Co396 2.155 . S
O422 C424 1.240 . S
O423 Co396 2.096 1_554 S
O423 C404 1.247 . S
C424 O421 1.244 . S
C424 O422 1.240 . S
H425 C399 0.931 . S
H426 C408 0.931 . S
H427 C412 0.929 . S
H428 C414 0.930 . S
Co429 N433 2.148 . S
Co429 N439 2.128 . S
Co429 N449 2.194 . S
Co429 O454 2.351 . S
Co429 O455 2.155 . S
Co429 O456 2.096 . S
C430 N433 1.301 . S
C430 N434 1.328 . S
C430 H435 0.930 . S
C431 C432 1.333 . S
C431 N433 1.317 . S
C431 H436 0.930 . S
C432 C431 1.333 . S
C432 N434 1.350 . S
C432 H458 0.931 . S
N433 Co429 2.148 . S
N433 C430 1.301 . S
N433 C431 1.317 . S
N434 C430 1.328 . S
N434 C432 1.350 . S
H435 C430 0.930 . S
H436 C431 0.930 . S
C437 O438 1.224 . S
C437 O456 1.247 . S
O438 C437 1.224 . S
N439 Co429 2.128 . S
N439 C440 1.355 . S
N439 C442 1.311 . S
C440 N439 1.355 . S
C440 C441 1.363 . S
C440 H452 0.929 . S
C441 C440 1.363 . S
C441 N443 1.375 . S
C441 H459 0.931 . S
C442 N439 1.311 . S
C442 N443 1.347 . S
C442 H453 0.929 . S
N443 C441 1.375 . S
N443 C442 1.347 . S
C444 C447 1.365 . S
C444 N449 1.328 . S
C444 H450 0.929 . S
C445 C446 1.362 . S
C445 C448 1.378 . S
C445 H460 0.929 . S
C446 C445 1.362 . S
C446 C447 1.366 . S
C447 C444 1.365 . S
C447 C446 1.366 . S
C447 H461 0.930 . S
C448 C445 1.378 . S
C448 N449 1.315 . S
C448 H451 0.930 . S
N449 Co429 2.194 . S
N449 C444 1.328 . S
N449 C448 1.315 . S
H450 C444 0.929 . S
H451 C448 0.930 . S
H452 C440 0.929 . S
H453 C442 0.929 . S
O454 Co429 2.351 . S
O454 C457 1.244 . S
O455 Co429 2.155 . S
O455 C457 1.240 . S
O456 Co429 2.096 . S
O456 C437 1.247 . S
C457 O454 1.244 . S
C457 O455 1.240 . S
H458 C432 0.931 . S
H459 C441 0.931 . S
H460 C445 0.929 . S
H461 C447 0.930 . S
Co462 N466 2.148 . S
Co462 N472 2.128 . S
Co462 N482 2.194 . S
Co462 O487 2.351 . S
Co462 O488 2.155 . S
Co462 O489 2.096 . S
C463 N466 1.301 . S
C463 N467 1.328 . S
C463 H468 0.930 . S
C464 C465 1.333 . S
C464 N466 1.317 . S
C464 H469 0.930 . S
C465 C464 1.333 . S
C465 N467 1.350 . S
C465 H491 0.931 . S
N466 Co462 2.148 . S
N466 C463 1.301 . S
N466 C464 1.317 . S
N467 C463 1.328 . S
N467 C465 1.350 . S
H468 C463 0.930 . S
H469 C464 0.930 . S
C470 O471 1.224 . S
C470 O489 1.247 . S
O471 C470 1.224 . S
N472 Co462 2.128 . S
N472 C473 1.355 . S
N472 C475 1.311 . S
C473 N472 1.355 . S
C473 C474 1.363 . S
C473 H485 0.929 . S
C474 C473 1.363 . S
C474 N476 1.375 . S
C474 H492 0.931 . S
C475 N472 1.311 . S
C475 N476 1.347 . S
C475 H486 0.929 . S
N476 C474 1.375 . S
N476 C475 1.347 . S
C477 C480 1.365 . S
C477 N482 1.328 . S
C477 H483 0.929 . S
C478 C479 1.362 . S
C478 C481 1.378 . S
C478 H493 0.929 . S
C479 C478 1.362 . S
C479 C480 1.366 . S
C480 C477 1.365 . S
C480 C479 1.366 . S
C480 H494 0.930 . S
C481 C478 1.378 . S
C481 N482 1.315 . S
C481 H484 0.930 . S
N482 Co462 2.194 . S
N482 C477 1.328 . S
N482 C481 1.315 . S
H483 C477 0.929 . S
H484 C481 0.930 . S
H485 C473 0.929 . S
H486 C475 0.929 . S
O487 Co462 2.351 . S
O487 C490 1.244 . S
O488 Co462 2.155 . S
O488 C490 1.240 . S
O489 Co462 2.096 . S
O489 C470 1.247 . S
C490 O487 1.244 . S
C490 O488 1.240 . S
H491 C465 0.931 . S
H492 C474 0.931 . S
H493 C478 0.929 . S
H494 C480 0.930 . S
Co495 N499 2.148 . S
Co495 N505 2.128 . S
Co495 N515 2.194 . S
Co495 O520 2.351 . S
Co495 O521 2.155 . S
Co495 O522 2.096 . S
C496 N499 1.301 . S
C496 N500 1.328 . S
C496 H501 0.930 . S
C497 C498 1.333 . S
C497 N499 1.317 . S
C497 H502 0.930 . S
C498 C497 1.333 . S
C498 N500 1.350 . S
C498 H524 0.931 . S
N499 Co495 2.148 . S
N499 C496 1.301 . S
N499 C497 1.317 . S
N500 C496 1.328 . S
N500 C498 1.350 . S
H501 C496 0.930 . S
H502 C497 0.930 . S
C503 O504 1.224 . S
C503 O522 1.247 . S
O504 C503 1.224 . S
N505 Co495 2.128 . S
N505 C506 1.355 . S
N505 C508 1.311 . S
C506 N505 1.355 . S
C506 C507 1.363 . S
C506 H518 0.929 . S
C507 C506 1.363 . S
C507 N509 1.375 . S
C507 H525 0.931 . S
C508 N505 1.311 . S
C508 N509 1.347 . S
C508 H519 0.929 . S
N509 C507 1.375 . S
N509 C508 1.347 . S
C510 C513 1.365 . S
C510 N515 1.328 . S
C510 H516 0.929 . S
C511 C512 1.362 . S
C511 C514 1.378 . S
C511 H526 0.929 . S
C512 C511 1.362 . S
C512 C513 1.366 . S
C513 C510 1.365 . S
C513 C512 1.366 . S
C513 H527 0.930 . S
C514 C511 1.378 . S
C514 N515 1.315 . S
C514 H517 0.930 . S
N515 Co495 2.194 . S
N515 C510 1.328 . S
N515 C514 1.315 . S
H516 C510 0.929 . S
H517 C514 0.930 . S
H518 C506 0.929 . S
H519 C508 0.929 . S
O520 Co495 2.351 . S
O520 C523 1.244 . S
O521 Co495 2.155 . S
O521 C523 1.240 . S
O522 Co495 2.096 . S
O522 C503 1.247 . S
C523 O520 1.244 . S
C523 O521 1.240 . S
H524 C498 0.931 . S
H525 C507 0.931 . S
H526 C511 0.929 . S
H527 C513 0.930 . S
H528 C534 0.913 1_546 S
H529 C538 0.913 1_565 S
H530 C543 0.929 . S
H531 C541 0.929 1_556 S
H532 C536 0.929 . S
H533 C542 0.929 1_556 S
C534 H528 0.913 1_564 S
C534 C535 1.367 . S
C534 C542 1.378 1_565 S
C535 C534 1.367 . S
C535 C543 1.433 . S
C536 H532 0.929 . S
C536 C538 1.378 1_565 S
C536 C540 1.350 1_565 S
C537 C540 1.463 1_665 S
C537 C542 1.350 1_565 S
C537 N545 1.427 . S
C538 H529 0.913 1_545 S
C538 C536 1.378 1_545 S
C538 C539 1.367 . S
C539 C538 1.367 . S
C539 C541 1.433 . S
C540 C536 1.350 1_545 S
C540 C537 1.463 1_445 S
C540 N544 1.427 . S
C541 H531 0.929 1_554 S
C541 C539 1.433 . S
C541 N544 1.384 . S
C542 H533 0.929 1_554 S
C542 C534 1.378 1_545 S
C542 C537 1.350 1_545 S
C543 H530 0.929 . S
C543 C535 1.433 . S
C543 N545 1.384 . S
N544 C540 1.427 . S
N544 C541 1.384 . S
N545 C537 1.427 . S
N545 C543 1.384 . S
H546 C552 0.930 1_455 S
H547 C556 0.930 1_655 S
H548 C561 0.929 . S
H549 C559 0.929 . S
H550 C554 0.929 . S
H551 C560 0.929 . S
C552 H546 0.930 1_655 S
C552 C553 1.367 . S
C552 C560 1.378 1_655 S
C553 C552 1.367 . S
C553 C561 1.433 . S
C554 H550 0.929 . S
C554 C556 1.378 1_655 S
C554 C558 1.350 1_655 S
C555 C558 1.463 1_655 S
C555 C560 1.350 1_655 S
C555 N563 1.427 . S
C556 H547 0.930 1_455 S
C556 C554 1.378 1_455 S
C556 C557 1.367 . S
C557 C556 1.367 . S
C557 C559 1.433 . S
C558 C554 1.350 1_455 S
C558 C555 1.463 1_455 S
C558 N562 1.427 . S
C559 H549 0.929 . S
C559 C557 1.433 . S
C559 N562 1.384 . S
C560 H551 0.929 . S
C560 C552 1.378 1_455 S
C560 C555 1.350 1_455 S
C561 H548 0.929 . S
C561 C553 1.433 . S
C561 N563 1.384 . S
N562 C558 1.427 . S
N562 C559 1.384 . S
N563 C555 1.427 . S
N563 C561 1.384 . S
H564 C570 0.930 . S
H565 C574 0.930 . S
H566 C579 0.929 . S
H567 C577 0.929 . S
H568 C572 0.929 . S
H569 C578 0.929 . S
C570 H564 0.930 . S
C570 C571 1.367 . S
C570 C578 1.378 . S
C571 C570 1.367 . S
C571 C579 1.433 . S
C572 H568 0.929 . S
C572 C574 1.378 . S
C572 C576 1.350 . S
C573 C576 1.463 . S
C573 C578 1.350 . S
C573 N581 1.427 . S
C574 H565 0.930 . S
C574 C572 1.378 . S
C574 C575 1.367 . S
C575 C574 1.367 . S
C575 C577 1.433 . S
C576 C572 1.350 . S
C576 C573 1.463 . S
C576 N580 1.427 . S
C577 H567 0.929 . S
C577 C575 1.433 . S
C577 N580 1.384 . S
C578 H569 0.929 . S
C578 C570 1.378 . S
C578 C573 1.350 . S
C579 H566 0.929 . S
C579 C571 1.433 . S
C579 N581 1.384 . S
N580 C576 1.427 . S
N580 C577 1.384 . S
N581 C573 1.427 . S
N581 C579 1.384 . S
H582 C588 0.930 . S
H583 C592 0.930 . S
H584 C597 0.929 . S
H585 C595 0.929 . S
H586 C590 0.929 . S
H587 C596 0.929 . S
C588 H582 0.930 . S
C588 C589 1.367 . S
C588 C596 1.378 . S
C589 C588 1.367 . S
C589 C597 1.433 . S
C590 H586 0.929 . S
C590 C592 1.378 . S
C590 C594 1.350 . S
C591 C594 1.463 1_565 S
C591 C596 1.350 . S
C591 N599 1.427 . S
C592 H583 0.930 . S
C592 C590 1.378 . S
C592 C593 1.367 . S
C593 C592 1.367 . S
C593 C595 1.433 . S
C594 C590 1.350 . S
C594 C591 1.463 1_545 S
C594 N598 1.427 . S
C595 H585 0.929 . S
C595 C593 1.433 . S
C595 N598 1.384 . S
C596 H587 0.929 . S
C596 C588 1.378 . S
C596 C591 1.350 . S
C597 H584 0.929 . S
C597 C589 1.433 . S
C597 N599 1.384 . S
N598 C594 1.427 . S
N598 C595 1.384 . S
N599 C591 1.427 . S
N599 C597 1.384 . S
H600 C606 0.930 . S
H601 C610 0.930 . S
H602 C615 0.929 1_545 S
H603 C613 0.929 1_565 S
H604 C608 0.904 1_455 S
H605 C614 0.904 1_655 S
C606 H600 0.930 . S
C606 C607 1.367 . S
C606 C614 1.378 . S
C607 C606 1.367 . S
C607 C615 1.433 . S
C608 H604 0.904 1_655 S
C608 C610 1.378 . S
C608 C612 1.350 . S
C609 C612 1.463 1_465 S
C609 C614 1.350 . S
C609 N617 1.427 1_565 S
C610 H601 0.930 . S
C610 C608 1.378 . S
C610 C611 1.367 . S
C611 C610 1.367 . S
C611 C613 1.433 . S
C612 C608 1.350 . S
C612 C609 1.463 1_645 S
C612 N616 1.427 1_545 S
C613 H603 0.929 1_545 S
C613 C611 1.433 . S
C613 N616 1.384 1_545 S
C614 H605 0.904 1_455 S
C614 C606 1.378 . S
C614 C609 1.350 . S
C615 H602 0.929 1_565 S
C615 C607 1.433 . S
C615 N617 1.384 1_565 S
N616 C612 1.427 1_565 S
N616 C613 1.384 1_565 S
N617 C609 1.427 1_545 S
N617 C615 1.384 1_545 S
H618 C624 0.930 . S
H619 C628 0.930 . S
H620 C633 0.929 . S
H621 C631 0.929 . S
H622 C626 0.929 . S
H623 C632 0.929 . S
C624 H618 0.930 . S
C624 C625 1.367 . S
C624 C632 1.378 . S
C625 C624 1.367 . S
C625 C633 1.433 . S
C626 H622 0.929 . S
C626 C628 1.378 . S
C626 C630 1.350 . S
C627 C630 1.463 1_655 S
C627 C632 1.350 . S
C627 N635 1.427 . S
C628 H619 0.930 . S
C628 C626 1.378 . S
C628 C629 1.367 . S
C629 C628 1.367 . S
C629 C631 1.433 . S
C630 C626 1.350 . S
C630 C627 1.463 1_455 S
C630 N634 1.427 . S
C631 H621 0.929 . S
C631 C629 1.433 . S
C631 N634 1.384 . S
C632 H623 0.929 . S
C632 C624 1.378 . S
C632 C627 1.350 . S
C633 H620 0.929 . S
C633 C625 1.433 . S
C633 N635 1.384 . S
N634 C630 1.427 . S
N634 C631 1.384 . S
N635 C627 1.427 . S
N635 C633 1.384 . S
H636 C642 0.930 . S
H637 C646 0.930 . S
H638 C651 0.929 . S
H639 C649 0.929 . S
H640 C644 0.929 . S
H641 C650 0.929 . S
C642 H636 0.930 . S
C642 C643 1.367 1_556 S
C642 C650 1.378 . S
C643 C642 1.367 1_554 S
C643 C651 1.433 . S
C644 H640 0.929 . S
C644 C646 1.378 . S
C644 C648 1.350 . S
C645 C648 1.463 . S
C645 C650 1.350 1_554 S
C645 N653 1.427 . S
C646 H637 0.930 . S
C646 C644 1.378 . S
C646 C647 1.367 . S
C647 C646 1.367 . S
C647 C649 1.433 1_554 S
C648 C644 1.350 . S
C648 C645 1.463 . S
C648 N652 1.427 1_554 S
C649 H639 0.929 . S
C649 C647 1.433 1_556 S
C649 N652 1.384 . S
C650 H641 0.929 . S
C650 C642 1.378 . S
C650 C645 1.350 1_556 S
C651 H638 0.929 . S
C651 C643 1.433 . S
C651 N653 1.384 . S
N652 C648 1.427 1_556 S
N652 C649 1.384 . S
N653 C645 1.427 . S
N653 C651 1.384 . S
H654 C660 0.930 . S
H655 C664 0.930 . S
H656 C669 0.929 . S
H657 C667 0.929 . S
H658 C662 0.929 . S
H659 C668 0.929 . S
C660 H654 0.930 . S
C660 C661 1.367 . S
C660 C668 1.378 . S
C661 C660 1.367 . S
C661 C669 1.433 . S
C662 H658 0.929 . S
C662 C664 1.378 . S
C662 C666 1.350 . S
C663 C666 1.463 1_565 S
C663 C668 1.350 . S
C663 N671 1.427 . S
C664 H655 0.930 . S
C664 C662 1.378 . S
C664 C665 1.367 . S
C665 C664 1.367 . S
C665 C667 1.433 . S
C666 C662 1.350 . S
C666 C663 1.463 1_545 S
C666 N670 1.427 . S
C667 H657 0.929 . S
C667 C665 1.433 . S
C667 N670 1.384 . S
C668 H659 0.929 . S
C668 C660 1.378 . S
C668 C663 1.350 . S
C669 H656 0.929 . S
C669 C661 1.433 . S
C669 N671 1.384 . S
N670 C666 1.427 . S
N670 C667 1.384 . S
N671 C663 1.427 . S
N671 C669 1.384 . S
H672 C678 0.930 . S
H673 C682 0.930 . S
H674 C687 0.929 . S
H675 C685 0.929 . S
H676 C680 0.929 . S
H677 C686 0.929 . S
C678 H672 0.930 . S
C678 C679 1.367 . S
C678 C686 1.378 . S
C679 C678 1.367 . S
C679 C687 1.433 . S
C680 H676 0.929 . S
C680 C682 1.378 . S
C680 C684 1.371 . S
C681 C684 1.444 1_565 S
C681 C686 1.350 . S
C681 N689 1.427 . S
C682 H673 0.930 . S
C682 C680 1.378 . S
C682 C683 1.367 . S
C683 C682 1.367 . S
C683 C685 1.433 . S
C684 C680 1.371 . S
C684 C681 1.444 1_545 S
C684 N688 1.423 1_545 S
C685 H675 0.929 . S
C685 C683 1.433 . S
C685 N688 1.384 1_545 S
C686 H677 0.929 . S
C686 C678 1.378 . S
C686 C681 1.350 . S
C687 H674 0.929 . S
C687 C679 1.433 . S
C687 N689 1.384 . S
N688 C684 1.423 1_565 S
N688 C685 1.384 1_565 S
N689 C681 1.427 . S
N689 C687 1.384 . S
H690 C696 0.930 . S
H691 C700 0.930 . S
H692 C705 0.929 . S
H693 C703 0.929 . S
H694 C698 0.929 . S
H695 C704 0.929 1_655 S
C696 H690 0.930 . S
C696 C697 1.367 . S
C696 C704 1.378 . S
C697 C696 1.367 . S
C697 C705 1.433 . S
C698 H694 0.929 . S
C698 C700 1.378 1_455 S
C698 C702 1.350 . S
C699 C702 1.462 . S
C699 C704 1.350 . S
C699 N707 1.427 . S
C700 H691 0.930 . S
C700 C698 1.378 1_655 S
C700 C701 1.367 . S
C701 C700 1.367 . S
C701 C703 1.433 . S
C702 C698 1.350 . S
C702 C699 1.462 . S
C702 N706 1.428 1_455 S
C703 H693 0.929 . S
C703 C701 1.433 . S
C703 N706 1.384 . S
C704 H695 0.929 1_455 S
C704 C696 1.378 . S
C704 C699 1.350 . S
C705 H692 0.929 . S
C705 C697 1.433 . S
C705 N707 1.384 . S
N706 C702 1.428 1_655 S
N706 C703 1.384 . S
N707 C699 1.427 . S
N707 C705 1.384 . S
H708 C714 0.930 . S
H709 C718 0.930 . S
H710 C723 0.929 . S
H711 C721 0.929 . S
H712 C716 0.929 . S
H713 C722 0.929 . S
C714 H708 0.930 . S
C714 C715 1.367 . S
C714 C722 1.378 . S
C715 C714 1.367 . S
C715 C723 1.433 . S
C716 H712 0.929 . S
C716 C718 1.378 . S
C716 C720 1.350 . S
C717 C720 1.463 . S
C717 C722 1.350 . S
C717 N725 1.427 . S
C718 H709 0.930 . S
C718 C716 1.378 . S
C718 C719 1.367 . S
C719 C718 1.367 . S
C719 C721 1.433 . S
C720 C716 1.350 . S
C720 C717 1.463 . S
C720 N724 1.427 . S
C721 H711 0.929 . S
C721 C719 1.433 . S
C721 N724 1.384 . S
C722 H713 0.929 . S
C722 C714 1.378 . S
C722 C717 1.350 . S
C723 H710 0.929 . S
C723 C715 1.433 . S
C723 N725 1.384 . S
N724 C720 1.427 . S
N724 C721 1.384 . S
N725 C717 1.427 . S
N725 C723 1.384 . S
H726 C732 0.930 . S
H727 C736 0.930 . S
H728 C741 0.929 . S
H729 C739 0.929 . S
H730 C734 0.929 . S
H731 C740 0.929 1_556 S
C732 H726 0.930 . S
C732 C733 1.367 . S
C732 C740 1.378 . S
C733 C732 1.367 . S
C733 C741 1.433 . S
C734 H730 0.929 . S
C734 C736 1.378 . S
C734 C738 1.350 . S
C735 C738 1.463 1_554 S
C735 C740 1.350 . S
C735 N743 1.427 . S
C736 H727 0.930 . S
C736 C734 1.378 . S
C736 C737 1.367 . S
C737 C736 1.367 . S
C737 C739 1.433 . S
C738 C734 1.350 . S
C738 C735 1.463 1_556 S
C738 N742 1.427 . S
C739 H729 0.929 . S
C739 C737 1.433 . S
C739 N742 1.384 . S
C740 H731 0.929 1_554 S
C740 C732 1.378 . S
C740 C735 1.350 . S
C741 H728 0.929 . S
C741 C733 1.433 . S
C741 N743 1.384 . S
N742 C738 1.427 . S
N742 C739 1.384 . S
N743 C735 1.427 . S
N743 C741 1.384 . S
H744 C750 0.930 1_565 S
H745 C754 0.930 . S
H746 C759 0.929 . S
H747 C757 0.929 . S
H748 C752 0.929 1_545 S
H749 C758 0.929 . S
C750 H744 0.930 1_545 S
C750 C751 1.367 . S
C750 C758 1.378 1_545 S
C751 C750 1.367 . S
C751 C759 1.433 . S
C752 H748 0.929 1_565 S
C752 C754 1.378 . S
C752 C756 1.350 . S
C753 C756 1.467 . S
C753 C758 1.353 . S
C753 N761 1.419 1_565 S
C754 H745 0.930 . S
C754 C752 1.378 . S
C754 C755 1.367 . S
C755 C754 1.367 . S
C755 C757 1.433 . S
C756 C752 1.350 . S
C756 C753 1.467 . S
C756 N760 1.427 . S
C757 H747 0.929 . S
C757 C755 1.433 . S
C757 N760 1.384 . S
C758 H749 0.929 . S
C758 C750 1.378 1_565 S
C758 C753 1.353 . S
C759 H746 0.929 . S
C759 C751 1.433 . S
C759 N761 1.384 . S
N760 C756 1.427 . S
N760 C757 1.384 . S
N761 C753 1.419 1_545 S
N761 C759 1.384 . S
H762 C768 0.930 . S
H763 C772 0.930 . S
H764 C777 0.929 . S
H765 C775 0.929 . S
H766 C770 0.929 1_556 S
H767 C776 0.929 . S
C768 H762 0.930 . S
C768 C769 1.367 . S
C768 C776 1.378 . S
C769 C768 1.367 . S
C769 C777 1.433 . S
C770 H766 0.929 1_554 S
C770 C772 1.378 . S
C770 C774 1.350 . S
C771 C774 1.443 1_656 S
C771 C776 1.375 . S
C771 N779 1.421 1_655 S
C772 H763 0.930 . S
C772 C770 1.378 . S
C772 C773 1.367 . S
C773 C772 1.367 . S
C773 C775 1.433 . S
C774 C770 1.350 . S
C774 C771 1.443 1_454 S
C774 N778 1.427 . S
C775 H765 0.929 . S
C775 C773 1.433 . S
C775 N778 1.384 . S
C776 H767 0.929 . S
C776 C768 1.378 . S
C776 C771 1.375 . S
C777 H764 0.929 . S
C777 C769 1.433 . S
C777 N779 1.384 1_655 S
N778 C774 1.427 . S
N778 C775 1.384 . S
N779 C771 1.421 1_455 S
N779 C777 1.384 1_455 S
H780 C786 0.930 . S
H781 C790 0.930 . S
H782 C795 0.929 . S
H783 C793 0.929 . S
H784 C788 0.929 . S
H785 C794 0.929 . S
C786 H780 0.930 . S
C786 C787 1.367 . S
C786 C794 1.378 . S
C787 C786 1.367 . S
C787 C795 1.433 . S
C788 H784 0.929 . S
C788 C790 1.378 . S
C788 C792 1.350 . S
C789 C792 1.463 . S
C789 C794 1.350 . S
C789 N797 1.427 . S
C790 H781 0.930 . S
C790 C788 1.378 . S
C790 C791 1.367 . S
C791 C790 1.367 . S
C791 C793 1.433 . S
C792 C788 1.350 . S
C792 C789 1.463 . S
C792 N796 1.427 . S
C793 H783 0.929 . S
C793 C791 1.433 . S
C793 N796 1.384 . S
C794 H785 0.929 . S
C794 C786 1.378 . S
C794 C789 1.350 . S
C795 H782 0.929 . S
C795 C787 1.433 . S
C795 N797 1.384 . S
N796 C792 1.427 . S
N796 C793 1.384 . S
N797 C789 1.427 . S
N797 C795 1.384 . S
H798 C804 0.930 . S
H799 C808 0.930 . S
H800 C813 0.929 . S
H801 C811 0.929 . S
H802 C806 0.929 . S
H803 C812 0.929 . S
C804 H798 0.930 . S
C804 C805 1.367 . S
C804 C812 1.378 . S
C805 C804 1.367 . S
C805 C813 1.433 . S
C806 H802 0.929 . S
C806 C808 1.378 . S
C806 C810 1.350 . S
C807 C810 1.463 . S
C807 C812 1.350 . S
C807 N815 1.427 . S
C808 H799 0.930 . S
C808 C806 1.378 . S
C808 C809 1.367 . S
C809 C808 1.367 . S
C809 C811 1.433 . S
C810 C806 1.350 . S
C810 C807 1.463 . S
C810 N814 1.427 . S
C811 H801 0.929 . S
C811 C809 1.433 . S
C811 N814 1.384 . S
C812 H803 0.929 . S
C812 C804 1.378 . S
C812 C807 1.350 . S
C813 H800 0.929 . S
C813 C805 1.433 . S
C813 N815 1.384 . S
N814 C810 1.427 . S
N814 C811 1.384 . S
N815 C807 1.427 . S
N815 C813 1.384 . S
H816 C822 0.930 . S
H817 C826 0.930 . S
H818 C831 0.929 . S
H819 C829 0.929 . S
H820 C824 0.929 . S
H821 C830 0.929 . S
C822 H816 0.930 . S
C822 C823 1.367 . S
C822 C830 1.378 . S
C823 C822 1.367 . S
C823 C831 1.433 . S
C824 H820 0.929 . S
C824 C826 1.378 . S
C824 C828 1.350 . S
C825 C828 1.463 . S
C825 C830 1.350 . S
C825 N833 1.427 . S
C826 H817 0.930 . S
C826 C824 1.378 . S
C826 C827 1.367 . S
C827 C826 1.367 . S
C827 C829 1.433 . S
C828 C824 1.350 . S
C828 C825 1.463 . S
C828 N832 1.427 . S
C829 H819 0.929 . S
C829 C827 1.433 . S
C829 N832 1.384 . S
C830 H821 0.929 . S
C830 C822 1.378 . S
C830 C825 1.350 . S
C831 H818 0.929 . S
C831 C823 1.433 . S
C831 N833 1.384 . S
N832 C828 1.427 . S
N832 C829 1.384 . S
N833 C825 1.427 . S
N833 C831 1.384 . S
H834 C840 0.930 . S
H835 C844 0.930 . S
H836 C849 0.929 . S
H837 C847 0.929 . S
H838 C842 0.929 . S
H839 C848 0.929 1_556 S
C840 H834 0.930 . S
C840 C841 1.367 . S
C840 C848 1.378 . S
C841 C840 1.367 . S
C841 C849 1.433 . S
C842 H838 0.929 . S
C842 C844 1.378 . S
C842 C846 1.350 . S
C843 C846 1.463 1_554 S
C843 C848 1.350 . S
C843 N851 1.427 . S
C844 H835 0.930 . S
C844 C842 1.378 . S
C844 C845 1.367 . S
C845 C844 1.367 . S
C845 C847 1.433 . S
C846 C842 1.350 . S
C846 C843 1.463 1_556 S
C846 N850 1.427 . S
C847 H837 0.929 . S
C847 C845 1.433 . S
C847 N850 1.384 . S
C848 H839 0.929 1_554 S
C848 C840 1.378 . S
C848 C843 1.350 . S
C849 H836 0.929 . S
C849 C841 1.433 . S
C849 N851 1.384 . S
N850 C846 1.427 . S
N850 C847 1.384 . S
N851 C843 1.427 . S
N851 C849 1.384 . S
H852 C858 0.930 . S
H853 C862 0.930 1_545 S
H854 C867 0.929 . S
H855 C865 0.929 . S
H856 C860 0.929 . S
H857 C866 0.929 1_565 S
C858 H852 0.930 . S
C858 C859 1.367 . S
C858 C866 1.378 . S
C859 C858 1.367 . S
C859 C867 1.433 . S
C860 H856 0.929 . S
C860 C862 1.378 1_545 S
C860 C864 1.353 . S
C861 C864 1.467 . S
C861 C866 1.350 . S
C861 N869 1.427 . S
C862 H853 0.930 1_565 S
C862 C860 1.378 1_565 S
C862 C863 1.367 . S
C863 C862 1.367 . S
C863 C865 1.433 . S
C864 C860 1.353 . S
C864 C861 1.467 . S
C864 N868 1.420 1_545 S
C865 H855 0.929 . S
C865 C863 1.433 . S
C865 N868 1.384 . S
C866 H857 0.929 1_545 S
C866 C858 1.378 . S
C866 C861 1.350 . S
C867 H854 0.929 . S
C867 C859 1.433 . S
C867 N869 1.384 . S
N868 C864 1.420 1_565 S
N868 C865 1.384 . S
N869 C861 1.427 . S
N869 C867 1.384 . S
H870 C876 0.930 . S
H871 C880 0.930 . S
H872 C885 0.929 . S
H873 C883 0.929 . S
H874 C878 0.929 . S
H875 C884 0.929 1_655 S
C876 H870 0.930 . S
C876 C877 1.367 . S
C876 C884 1.378 . S
C877 C876 1.367 . S
C877 C885 1.433 . S
C878 H874 0.929 . S
C878 C880 1.378 . S
C878 C882 1.350 . S
C879 C882 1.461 1_455 S
C879 C884 1.350 . S
C879 N887 1.429 . S
C880 H871 0.930 . S
C880 C878 1.378 . S
C880 C881 1.367 . S
C881 C880 1.367 . S
C881 C883 1.433 . S
C882 C878 1.350 . S
C882 C879 1.461 1_655 S
C882 N886 1.427 . S
C883 H873 0.929 . S
C883 C881 1.433 . S
C883 N886 1.384 . S
C884 H875 0.929 1_455 S
C884 C876 1.378 . S
C884 C879 1.350 . S
C885 H872 0.929 . S
C885 C877 1.433 . S
C885 N887 1.384 . S
N886 C882 1.427 . S
N886 C883 1.384 . S
N887 C879 1.429 . S
N887 C885 1.384 . S
H888 C894 0.930 . S
H889 C898 0.930 . S
H890 C903 0.929 . S
H891 C901 0.929 . S
H892 C896 0.929 . S
H893 C902 0.929 . S
C894 H888 0.930 . S
C894 C895 1.367 . S
C894 C902 1.378 . S
C895 C894 1.367 . S
C895 C903 1.433 . S
C896 H892 0.929 . S
C896 C898 1.378 . S
C896 C900 1.350 . S
C897 C900 1.463 . S
C897 C902 1.350 . S
C897 N905 1.427 . S
C898 H889 0.930 . S
C898 C896 1.378 . S
C898 C899 1.367 . S
C899 C898 1.367 . S
C899 C901 1.433 . S
C900 C896 1.350 . S
C900 C897 1.463 . S
C900 N904 1.427 . S
C901 H891 0.929 . S
C901 C899 1.433 . S
C901 N904 1.384 . S
C902 H893 0.929 . S
C902 C894 1.378 . S
C902 C897 1.350 . S
C903 H890 0.929 . S
C903 C895 1.433 . S
C903 N905 1.384 . S
N904 C900 1.427 . S
N904 C901 1.384 . S
N905 C897 1.427 . S
N905 C903 1.384 . S
H906 C912 0.930 . S
H907 C916 0.930 . S
H908 C921 0.929 . S
H909 C919 0.929 . S
H910 C914 0.929 . S
H911 C920 0.929 . S
C912 H906 0.930 . S
C912 C913 1.367 . S
C912 C920 1.378 . S
C913 C912 1.367 . S
C913 C921 1.433 . S
C914 H910 0.929 . S
C914 C916 1.378 . S
C914 C918 1.350 . S
C915 C918 1.463 . S
C915 C920 1.350 . S
C915 N923 1.427 . S
C916 H907 0.930 . S
C916 C914 1.378 . S
C916 C917 1.367 . S
C917 C916 1.367 . S
C917 C919 1.433 . S
C918 C914 1.350 . S
C918 C915 1.463 . S
C918 N922 1.427 . S
C919 H909 0.929 . S
C919 C917 1.433 . S
C919 N922 1.384 . S
C920 H911 0.929 . S
C920 C912 1.378 . S
C920 C915 1.350 . S
C921 H908 0.929 . S
C921 C913 1.433 . S
C921 N923 1.384 . S
N922 C918 1.427 . S
N922 C919 1.384 . S
N923 C915 1.427 . S
N923 C921 1.384 . S
H924 C930 0.930 . S
H925 C934 0.930 . S
H926 C939 0.929 1_545 S
H927 C937 0.929 . S
H928 C932 0.929 . S
H929 C938 0.929 . S
C930 H924 0.930 . S
C930 C931 1.367 . S
C930 C938 1.378 . S
C931 C930 1.367 . S
C931 C939 1.433 . S
C932 H928 0.929 . S
C932 C934 1.378 . S
C932 C936 1.350 . S
C933 C936 1.436 1_565 S
C933 C938 1.391 . S
C933 N941 1.410 1_565 S
C934 H925 0.930 . S
C934 C932 1.378 . S
C934 C935 1.367 . S
C935 C934 1.367 . S
C935 C937 1.433 . S
C936 C932 1.350 . S
C936 C933 1.436 1_545 S
C936 N940 1.427 . S
C937 H927 0.929 . S
C937 C935 1.433 . S
C937 N940 1.384 . S
C938 H929 0.929 . S
C938 C930 1.378 . S
C938 C933 1.391 . S
C939 H926 0.929 1_565 S
C939 C931 1.433 . S
C939 N941 1.384 1_565 S
N940 C936 1.427 . S
N940 C937 1.384 . S
N941 C933 1.410 1_545 S
N941 C939 1.384 1_545 S
H942 C948 0.930 . S
H943 C952 0.930 . S
H944 C957 0.929 . S
H945 C955 0.929 . S
H946 C950 0.929 . S
H947 C956 0.929 1_556 S
C948 H942 0.930 . S
C948 C949 1.367 . S
C948 C956 1.378 . S
C949 C948 1.367 . S
C949 C957 1.433 . S
C950 H946 0.929 . S
C950 C952 1.378 . S
C950 C954 1.369 . S
C951 C954 1.445 1_654 S
C951 C956 1.350 . S
C951 N959 1.427 . S
C952 H943 0.930 . S
C952 C950 1.378 . S
C952 C953 1.367 . S
C953 C952 1.367 . S
C953 C955 1.433 . S
C954 C950 1.369 . S
C954 C951 1.445 1_456 S
C954 N958 1.425 1_455 S
C955 H945 0.929 . S
C955 C953 1.433 . S
C955 N958 1.384 1_455 S
C956 H947 0.929 1_554 S
C956 C948 1.378 . S
C956 C951 1.350 . S
C957 H944 0.929 . S
C957 C949 1.433 . S
C957 N959 1.384 . S
N958 C954 1.425 1_655 S
N958 C955 1.384 1_655 S
N959 C951 1.427 . S
N959 C957 1.384 . S
H960 C966 0.930 . S
H961 C970 0.930 . S
H962 C975 0.929 . S
H963 C973 0.929 . S
H964 C968 0.929 . S
H965 C974 0.929 . S
C966 H960 0.930 . S
C966 C967 1.367 . S
C966 C974 1.378 . S
C967 C966 1.367 . S
C967 C975 1.433 . S
C968 H964 0.929 . S
C968 C970 1.378 . S
C968 C972 1.350 . S
C969 C972 1.463 . S
C969 C974 1.350 . S
C969 N977 1.427 . S
C970 H961 0.930 . S
C970 C968 1.378 . S
C970 C971 1.367 . S
C971 C970 1.367 . S
C971 C973 1.433 . S
C972 C968 1.350 . S
C972 C969 1.463 . S
C972 N976 1.427 . S
C973 H963 0.929 . S
C973 C971 1.433 . S
C973 N976 1.384 . S
C974 H965 0.929 . S
C974 C966 1.378 . S
C974 C969 1.350 . S
C975 H962 0.929 . S
C975 C967 1.433 . S
C975 N977 1.384 . S
N976 C972 1.427 . S
N976 C973 1.384 . S
N977 C969 1.427 . S
N977 C975 1.384 . S
H978 C984 0.930 . S
H979 C988 0.930 . S
H980 C993 0.929 . S
H981 C991 0.929 . S
H982 C986 0.929 . S
H983 C992 0.929 . S
C984 H978 0.930 . S
C984 C985 1.367 . S
C984 C992 1.378 . S
C985 C984 1.367 . S
C985 C993 1.433 . S
C986 H982 0.929 . S
C986 C988 1.378 . S
C986 C990 1.350 . S
C987 C990 1.463 . S
C987 C992 1.350 . S
C987 N995 1.427 . S
C988 H979 0.930 . S
C988 C986 1.378 . S
C988 C989 1.367 . S
C989 C988 1.367 . S
C989 C991 1.433 . S
C990 C986 1.350 . S
C990 C987 1.463 . S
C990 N994 1.427 . S
C991 H981 0.929 . S
C991 C989 1.433 . S
C991 N994 1.384 . S
C992 H983 0.929 . S
C992 C984 1.378 . S
C992 C987 1.350 . S
C993 H980 0.929 . S
C993 C985 1.433 . S
C993 N995 1.384 . S
N994 C990 1.427 . S
N994 C991 1.384 . S
N995 C987 1.427 . S
N995 C993 1.384 . S
H996 C1002 0.930 . S
H997 C1006 0.930 . S
H998 C1011 0.929 . S
H999 C1009 0.929 . S
H1000 C1004 0.929 . S
H1001 C1010 0.929 . S
C1002 H996 0.930 . S
C1002 C1003 1.367 . S
C1002 C1010 1.378 . S
C1003 C1002 1.367 . S
C1003 C1011 1.433 . S
C1004 H1000 0.929 . S
C1004 C1006 1.378 . S
C1004 C1008 1.350 . S
C1005 C1008 1.463 . S
C1005 C1010 1.350 . S
C1005 N1013 1.427 . S
C1006 H997 0.930 . S
C1006 C1004 1.378 . S
C1006 C1007 1.367 . S
C1007 C1006 1.367 . S
C1007 C1009 1.433 . S
C1008 C1004 1.350 . S
C1008 C1005 1.463 . S
C1008 N1012 1.427 . S
C1009 H999 0.929 . S
C1009 C1007 1.433 . S
C1009 N1012 1.384 . S
C1010 H1001 0.929 . S
C1010 C1002 1.378 . S
C1010 C1005 1.350 . S
C1011 H998 0.929 . S
C1011 C1003 1.433 . S
C1011 N1013 1.384 . S
N1012 C1008 1.427 . S
N1012 C1009 1.384 . S
N1013 C1005 1.427 . S
N1013 C1011 1.384 . S
H1014 C1020 0.930 . S
H1015 C1024 0.930 . S
H1016 C1029 0.929 . S
H1017 C1027 0.929 . S
H1018 C1022 0.929 . S
H1019 C1028 0.929 . S
C1020 H1014 0.930 . S
C1020 C1021 1.367 . S
C1020 C1028 1.378 . S
C1021 C1020 1.367 . S
C1021 C1029 1.433 . S
C1022 H1018 0.929 . S
C1022 C1024 1.378 . S
C1022 C1026 1.350 . S
C1023 C1026 1.463 . S
C1023 C1028 1.350 . S
C1023 N1031 1.427 . S
C1024 H1015 0.930 . S
C1024 C1022 1.378 . S
C1024 C1025 1.367 . S
C1025 C1024 1.367 . S
C1025 C1027 1.433 . S
C1026 C1022 1.350 . S
C1026 C1023 1.463 . S
C1026 N1030 1.427 . S
C1027 H1017 0.929 . S
C1027 C1025 1.433 . S
C1027 N1030 1.384 . S
C1028 H1019 0.929 . S
C1028 C1020 1.378 . S
C1028 C1023 1.350 . S
C1029 H1016 0.929 . S
C1029 C1021 1.433 . S
C1029 N1031 1.384 . S
N1030 C1026 1.427 . S
N1030 C1027 1.384 . S
N1031 C1023 1.427 . S
N1031 C1029 1.384 . S
H1032 C1038 0.930 . S
H1033 C1042 0.930 . S
H1034 C1047 0.929 . S
H1035 C1045 0.929 . S
H1036 C1040 0.929 . S
H1037 C1046 0.929 . S
C1038 H1032 0.930 . S
C1038 C1039 1.367 . S
C1038 C1046 1.378 . S
C1039 C1038 1.367 . S
C1039 C1047 1.433 . S
C1040 H1036 0.929 . S
C1040 C1042 1.378 . S
C1040 C1044 1.350 . S
C1041 C1044 1.463 . S
C1041 C1046 1.350 . S
C1041 N1049 1.427 . S
C1042 H1033 0.930 . S
C1042 C1040 1.378 . S
C1042 C1043 1.367 . S
C1043 C1042 1.367 . S
C1043 C1045 1.433 . S
C1044 C1040 1.350 . S
C1044 C1041 1.463 . S
C1044 N1048 1.427 . S
C1045 H1035 0.929 . S
C1045 C1043 1.433 . S
C1045 N1048 1.384 . S
C1046 H1037 0.929 . S
C1046 C1038 1.378 . S
C1046 C1041 1.350 . S
C1047 H1034 0.929 . S
C1047 C1039 1.433 . S
C1047 N1049 1.384 . S
N1048 C1044 1.427 . S
N1048 C1045 1.384 . S
N1049 C1041 1.427 . S
N1049 C1047 1.384 . S
H1050 C1056 0.930 . S
H1051 C1060 0.930 . S
H1052 C1065 0.929 . S
H1053 C1063 0.929 . S
H1054 C1058 0.929 . S
H1055 C1064 0.929 . S
C1056 H1050 0.930 . S
C1056 C1057 1.367 . S
C1056 C1064 1.378 . S
C1057 C1056 1.367 . S
C1057 C1065 1.433 . S
C1058 H1054 0.929 . S
C1058 C1060 1.378 . S
C1058 C1062 1.350 . S
C1059 C1062 1.463 . S
C1059 C1064 1.350 . S
C1059 N1067 1.427 . S
C1060 H1051 0.930 . S
C1060 C1058 1.378 . S
C1060 C1061 1.367 . S
C1061 C1060 1.367 . S
C1061 C1063 1.433 . S
C1062 C1058 1.350 . S
C1062 C1059 1.463 . S
C1062 N1066 1.427 . S
C1063 H1053 0.929 . S
C1063 C1061 1.433 . S
C1063 N1066 1.384 . S
C1064 H1055 0.929 . S
C1064 C1056 1.378 . S
C1064 C1059 1.350 . S
C1065 H1052 0.929 . S
C1065 C1057 1.433 . S
C1065 N1067 1.384 . S
N1066 C1062 1.427 . S
N1066 C1063 1.384 . S
N1067 C1059 1.427 . S
N1067 C1065 1.384 . S
H1068 C1074 0.930 . S
H1069 C1078 0.930 . S
H1070 C1083 0.929 . S
H1071 C1081 0.929 . S
H1072 C1076 0.929 . S
H1073 C1082 0.929 . S
C1074 H1068 0.930 . S
C1074 C1075 1.367 . S
C1074 C1082 1.378 . S
C1075 C1074 1.367 . S
C1075 C1083 1.433 . S
C1076 H1072 0.929 . S
C1076 C1078 1.378 . S
C1076 C1080 1.350 . S
C1077 C1080 1.463 . S
C1077 C1082 1.350 . S
C1077 N1085 1.427 . S
C1078 H1069 0.930 . S
C1078 C1076 1.378 . S
C1078 C1079 1.367 . S
C1079 C1078 1.367 . S
C1079 C1081 1.433 . S
C1080 C1076 1.350 . S
C1080 C1077 1.463 . S
C1080 N1084 1.427 . S
C1081 H1071 0.929 . S
C1081 C1079 1.433 . S
C1081 N1084 1.384 . S
C1082 H1073 0.929 . S
C1082 C1074 1.378 . S
C1082 C1077 1.350 . S
C1083 H1070 0.929 . S
C1083 C1075 1.433 . S
C1083 N1085 1.384 . S
N1084 C1080 1.427 . S
N1084 C1081 1.384 . S
N1085 C1077 1.427 . S
N1085 C1083 1.384 . S
H1086 C1092 0.930 . S
H1087 C1096 0.930 . S
H1088 C1101 0.929 . S
H1089 C1099 0.929 . S
H1090 C1094 0.929 . S
H1091 C1100 0.929 . S
C1092 H1086 0.930 . S
C1092 C1093 1.367 . S
C1092 C1100 1.378 . S
C1093 C1092 1.367 . S
C1093 C1101 1.433 . S
C1094 H1090 0.929 . S
C1094 C1096 1.378 . S
C1094 C1098 1.350 . S
C1095 C1098 1.463 . S
C1095 C1100 1.350 . S
C1095 N1103 1.427 . S
C1096 H1087 0.930 . S
C1096 C1094 1.378 . S
C1096 C1097 1.367 . S
C1097 C1096 1.367 . S
C1097 C1099 1.433 . S
C1098 C1094 1.350 . S
C1098 C1095 1.463 . S
C1098 N1102 1.427 . S
C1099 H1089 0.929 . S
C1099 C1097 1.433 . S
C1099 N1102 1.384 . S
C1100 H1091 0.929 . S
C1100 C1092 1.378 . S
C1100 C1095 1.350 . S
C1101 H1088 0.929 . S
C1101 C1093 1.433 . S
C1101 N1103 1.384 . S
N1102 C1098 1.427 . S
N1102 C1099 1.384 . S
N1103 C1095 1.427 . S
N1103 C1101 1.384 . S
H1104 C1110 0.930 . S
H1105 C1114 0.930 . S
H1106 C1119 0.929 . S
H1107 C1117 0.929 . S
H1108 C1112 0.929 . S
H1109 C1118 0.929 . S
C1110 H1104 0.930 . S
C1110 C1111 1.367 . S
C1110 C1118 1.378 . S
C1111 C1110 1.367 . S
C1111 C1119 1.433 . S
C1112 H1108 0.929 . S
C1112 C1114 1.378 . S
C1112 C1116 1.350 . S
C1113 C1116 1.463 . S
C1113 C1118 1.350 . S
C1113 N1121 1.427 . S
C1114 H1105 0.930 . S
C1114 C1112 1.378 . S
C1114 C1115 1.367 . S
C1115 C1114 1.367 . S
C1115 C1117 1.433 . S
C1116 C1112 1.350 . S
C1116 C1113 1.463 . S
C1116 N1120 1.427 . S
C1117 H1107 0.929 . S
C1117 C1115 1.433 . S
C1117 N1120 1.384 . S
C1118 H1109 0.929 . S
C1118 C1110 1.378 . S
C1118 C1113 1.350 . S
C1119 H1106 0.929 . S
C1119 C1111 1.433 . S
C1119 N1121 1.384 . S
N1120 C1116 1.427 . S
N1120 C1117 1.384 . S
N1121 C1113 1.427 . S
N1121 C1119 1.384 . S
H1122 C1128 0.930 . S
H1123 C1132 0.930 . S
H1124 C1137 0.929 . S
H1125 C1135 0.929 . S
H1126 C1130 0.929 . S
H1127 C1136 0.929 . S
C1128 H1122 0.930 . S
C1128 C1129 1.367 . S
C1128 C1136 1.378 . S
C1129 C1128 1.367 . S
C1129 C1137 1.433 . S
C1130 H1126 0.929 . S
C1130 C1132 1.378 . S
C1130 C1134 1.350 . S
C1131 C1134 1.463 . S
C1131 C1136 1.350 . S
C1131 N1139 1.427 . S
C1132 H1123 0.930 . S
C1132 C1130 1.378 . S
C1132 C1133 1.367 . S
C1133 C1132 1.367 . S
C1133 C1135 1.433 . S
C1134 C1130 1.350 . S
C1134 C1131 1.463 . S
C1134 N1138 1.427 . S
C1135 H1125 0.929 . S
C1135 C1133 1.433 . S
C1135 N1138 1.384 . S
C1136 H1127 0.929 . S
C1136 C1128 1.378 . S
C1136 C1131 1.350 . S
C1137 H1124 0.929 . S
C1137 C1129 1.433 . S
C1137 N1139 1.384 . S
N1138 C1134 1.427 . S
N1138 C1135 1.384 . S
N1139 C1131 1.427 . S
N1139 C1137 1.384 . S
H1140 C1146 0.930 . S
H1141 C1150 0.930 . S
H1142 C1155 0.929 1_556 S
H1143 C1153 0.929 . S
H1144 C1148 0.929 . S
H1145 C1154 0.929 . S
C1146 H1140 0.930 . S
C1146 C1147 1.367 . S
C1146 C1154 1.378 . S
C1147 C1146 1.367 . S
C1147 C1155 1.433 . S
C1148 H1144 0.929 . S
C1148 C1150 1.378 . S
C1148 C1152 1.350 . S
C1149 C1152 1.463 . S
C1149 C1154 1.350 . S
C1149 N1157 1.427 . S
C1150 H1141 0.930 . S
C1150 C1148 1.378 . S
C1150 C1151 1.367 . S
C1151 C1150 1.367 . S
C1151 C1153 1.433 . S
C1152 C1148 1.350 . S
C1152 C1149 1.463 . S
C1152 N1156 1.427 . S
C1153 H1143 0.929 . S
C1153 C1151 1.433 . S
C1153 N1156 1.384 . S
C1154 H1145 0.929 . S
C1154 C1146 1.378 . S
C1154 C1149 1.350 . S
C1155 H1142 0.929 1_554 S
C1155 C1147 1.433 . S
C1155 N1157 1.384 . S
N1156 C1152 1.427 . S
N1156 C1153 1.384 . S
N1157 C1149 1.427 . S
N1157 C1155 1.384 . S
H1158 C1164 0.930 . S
H1159 C1168 0.930 . S
H1160 C1173 0.929 . S
H1161 C1171 0.929 . S
H1162 C1166 0.929 . S
H1163 C1172 0.929 . S
C1164 H1158 0.930 . S
C1164 C1165 1.367 . S
C1164 C1172 1.378 . S
C1165 C1164 1.367 . S
C1165 C1173 1.433 . S
C1166 H1162 0.929 . S
C1166 C1168 1.378 . S
C1166 C1170 1.350 . S
C1167 C1170 1.463 . S
C1167 C1172 1.350 . S
C1167 N1175 1.427 . S
C1168 H1159 0.930 . S
C1168 C1166 1.378 . S
C1168 C1169 1.367 . S
C1169 C1168 1.367 . S
C1169 C1171 1.433 . S
C1170 C1166 1.350 . S
C1170 C1167 1.463 . S
C1170 N1174 1.427 . S
C1171 H1161 0.929 . S
C1171 C1169 1.433 . S
C1171 N1174 1.384 . S
C1172 H1163 0.929 . S
C1172 C1164 1.378 . S
C1172 C1167 1.350 . S
C1173 H1160 0.929 . S
C1173 C1165 1.433 . S
C1173 N1175 1.384 . S
N1174 C1170 1.427 . S
N1174 C1171 1.384 . S
N1175 C1167 1.427 . S
N1175 C1173 1.384 . S
H1176 C1182 0.930 . S
H1177 C1186 0.930 . S
H1178 C1191 0.929 . S
H1179 C1189 0.929 1_556 S
H1180 C1184 0.929 . S
H1181 C1190 0.929 . S
C1182 H1176 0.930 . S
C1182 C1183 1.367 . S
C1182 C1190 1.378 . S
C1183 C1182 1.367 . S
C1183 C1191 1.433 . S
C1184 H1180 0.929 . S
C1184 C1186 1.378 . S
C1184 C1188 1.350 . S
C1185 C1188 1.463 . S
C1185 C1190 1.350 . S
C1185 N1193 1.427 . S
C1186 H1177 0.930 . S
C1186 C1184 1.378 . S
C1186 C1187 1.367 . S
C1187 C1186 1.367 . S
C1187 C1189 1.433 . S
C1188 C1184 1.350 . S
C1188 C1185 1.463 . S
C1188 N1192 1.427 . S
C1189 H1179 0.929 1_554 S
C1189 C1187 1.433 . S
C1189 N1192 1.384 . S
C1190 H1181 0.929 . S
C1190 C1182 1.378 . S
C1190 C1185 1.350 . S
C1191 H1178 0.929 . S
C1191 C1183 1.433 . S
C1191 N1193 1.384 . S
N1192 C1188 1.427 . S
N1192 C1189 1.384 . S
N1193 C1185 1.427 . S
N1193 C1191 1.384 . S
H1194 C1200 0.930 . S
H1195 C1204 0.930 . S
H1196 C1209 0.929 . S
H1197 C1207 0.929 . S
H1198 C1202 0.929 . S
H1199 C1208 0.929 . S
C1200 H1194 0.930 . S
C1200 C1201 1.367 . S
C1200 C1208 1.378 . S
C1201 C1200 1.367 . S
C1201 C1209 1.433 . S
C1202 H1198 0.929 . S
C1202 C1204 1.378 . S
C1202 C1206 1.350 . S
C1203 C1206 1.463 . S
C1203 C1208 1.350 . S
C1203 N1211 1.427 . S
C1204 H1195 0.930 . S
C1204 C1202 1.378 . S
C1204 C1205 1.367 . S
C1205 C1204 1.367 . S
C1205 C1207 1.433 . S
C1206 C1202 1.350 . S
C1206 C1203 1.463 . S
C1206 N1210 1.427 . S
C1207 H1197 0.929 . S
C1207 C1205 1.433 . S
C1207 N1210 1.384 . S
C1208 H1199 0.929 . S
C1208 C1200 1.378 . S
C1208 C1203 1.350 . S
C1209 H1196 0.929 . S
C1209 C1201 1.433 . S
C1209 N1211 1.384 . S
N1210 C1206 1.427 . S
N1210 C1207 1.384 . S
N1211 C1203 1.427 . S
N1211 C1209 1.384 . S
H1212 C1218 0.930 . S
H1213 C1222 0.930 . S
H1214 C1227 0.929 . S
H1215 C1225 0.929 . S
H1216 C1220 0.929 . S
H1217 C1226 0.929 . S
C1218 H1212 0.930 . S
C1218 C1219 1.367 . S
C1218 C1226 1.378 . S
C1219 C1218 1.367 . S
C1219 C1227 1.433 . S
C1220 H1216 0.929 . S
C1220 C1222 1.378 . S
C1220 C1224 1.350 . S
C1221 C1224 1.463 . S
C1221 C1226 1.350 . S
C1221 N1229 1.427 . S
C1222 H1213 0.930 . S
C1222 C1220 1.378 . S
C1222 C1223 1.367 . S
C1223 C1222 1.367 . S
C1223 C1225 1.433 . S
C1224 C1220 1.350 . S
C1224 C1221 1.463 . S
C1224 N1228 1.427 . S
C1225 H1215 0.929 . S
C1225 C1223 1.433 . S
C1225 N1228 1.384 . S
C1226 H1217 0.929 . S
C1226 C1218 1.378 . S
C1226 C1221 1.350 . S
C1227 H1214 0.929 . S
C1227 C1219 1.433 . S
C1227 N1229 1.384 . S
N1228 C1224 1.427 . S
N1228 C1225 1.384 . S
N1229 C1221 1.427 . S
N1229 C1227 1.384 . S
H1230 C1236 0.930 . S
H1231 C1240 0.930 . S
H1232 C1245 0.929 . S
H1233 C1243 0.929 . S
H1234 C1238 0.929 . S
H1235 C1244 0.929 . S
C1236 H1230 0.930 . S
C1236 C1237 1.367 . S
C1236 C1244 1.378 . S
C1237 C1236 1.367 . S
C1237 C1245 1.433 . S
C1238 H1234 0.929 . S
C1238 C1240 1.378 . S
C1238 C1242 1.350 . S
C1239 C1242 1.463 . S
C1239 C1244 1.350 . S
C1239 N1247 1.427 . S
C1240 H1231 0.930 . S
C1240 C1238 1.378 . S
C1240 C1241 1.367 . S
C1241 C1240 1.367 . S
C1241 C1243 1.433 . S
C1242 C1238 1.350 . S
C1242 C1239 1.463 . S
C1242 N1246 1.427 . S
C1243 H1233 0.929 . S
C1243 C1241 1.433 . S
C1243 N1246 1.384 . S
C1244 H1235 0.929 . S
C1244 C1236 1.378 . S
C1244 C1239 1.350 . S
C1245 H1232 0.929 . S
C1245 C1237 1.433 . S
C1245 N1247 1.384 . S
N1246 C1242 1.427 . S
N1246 C1243 1.384 . S
N1247 C1239 1.427 . S
N1247 C1245 1.384 . S
C535 N344 1.548 . S
C539 N14 1.554 . S
C553 N47 1.551 . S
C557 N377 1.551 . S
C571 N278 1.546 . S
C575 N80 1.556 . S
C589 N113 1.555 . S
C593 N311 1.548 . S
C607 N476 1.546 . S
C611 N146 1.551 . S
C625 N179 1.543 . S
C629 N509 1.556 . S
C643 N212 1.544 . S
C647 N410 1.554 . S
C661 N443 1.544 . S
C665 N245 1.554 . S
C679 C490 0.930 . S
C683 C8 0.937 . S
C697 C523 0.922 . S
C701 C41 0.938 . S
C715 C74 0.931 . S
C719 C424 0.936 . S
C733 C457 0.936 . S
C737 C107 0.931 . S
C751 C140 0.936 . S
C755 C358 0.924 . S
C769 C173 0.936 . S
C773 C391 0.931 . S
C787 C292 0.923 . S
C791 C206 0.939 . S
C805 C239 0.933 . S
C809 C325 0.936 . S
C823 C226 0.928 . S
C827 C272 0.937 . S
C841 C259 0.936 . S
C845 C305 0.931 . S
C859 C160 0.924 . S
C863 C338 0.936 . S
C877 C371 0.938 . S
C881 C193 0.924 . S
C895 C404 0.938 . S
C899 C94 0.925 . S
C913 C437 0.938 . S
C917 C127 0.922 . S
C931 C470 0.931 . S
C935 C28 0.936 . S
C949 C61 0.930 . S
C953 C503 0.937 . S
C967 N368 1.729 . S
C971 C17 1.714 . S
C985 C50 1.715 . S
C989 N269 1.729 . S
C1003 C83 1.708 . S
C1007 N302 1.730 . S
C1021 C116 1.711 . S
C1025 N335 1.728 . S
C1039 N170 1.733 . S
C1043 C149 1.715 . S
C1057 C182 1.715 . S
C1061 N203 1.733 . S
C1075 N236 1.729 . S
C1079 C215 1.709 . S
C1093 C248 1.713 . S
C1097 N137 1.733 . S
C1111 N104 1.731 . S
C1115 C281 1.708 . S
C1129 C314 1.710 . S
C1133 N5 1.732 . S
C1147 C347 1.708 . S
C1151 N38 1.729 . S
C1165 N71 1.730 . S
C1169 C380 1.716 . S
C1183 N434 1.730 . S
C1187 C413 1.708 . S
C1201 N467 1.733 . S
C1205 C446 1.715 . S
C1219 C479 1.713 . S
C1223 N500 1.728 . S
C1237 N401 1.729 . S
C1241 C512 1.708 . S
