# Generated by pormake.
# Topology crb, (4)-cn, num edge types: 1
# Building blocks:
#     Node 0, Type 0, BuildingBlock: ICAMEG_clean_sbu_1, # of connection points: 4
#     Node 1, Type 0, BuildingBlock: ICAMEG_clean_sbu_1, # of connection points: 4
#     Node 2, Type 0, BuildingBlock: ICAMEG_clean_sbu_1, # of connection points: 4
#     Node 3, Type 0, BuildingBlock: ICAMEG_clean_sbu_1, # of connection points: 4
#     Node 4, Type 0, BuildingBlock: ICAMEG_clean_sbu_1, # of connection points: 4
#     Node 5, Type 0, BuildingBlock: ICAMEG_clean_sbu_1, # of connection points: 4
#     Node 6, Type 0, BuildingBlock: ICAMEG_clean_sbu_1, # of connection points: 4
#     Node 7, Type 0, BuildingBlock: ICAMEG_clean_sbu_1, # of connection points: 4
#     Edge 8, Type (0, 0), BuildingBlock: AJUNOK_clean_linker_0, # of connection points: 2
#     Edge 9, Type (0, 0), BuildingBlock: AJUNOK_clean_linker_0, # of connection points: 2
#     Edge 10, Type (0, 0), BuildingBlock: AJUNOK_clean_linker_0, # of connection points: 2
#     Edge 11, Type (0, 0), BuildingBlock: AJUNOK_clean_linker_0, # of connection points: 2
#     Edge 12, Type (0, 0), BuildingBlock: AJUNOK_clean_linker_0, # of connection points: 2
#     Edge 13, Type (0, 0), BuildingBlock: AJUNOK_clean_linker_0, # of connection points: 2
#     Edge 14, Type (0, 0), BuildingBlock: AJUNOK_clean_linker_0, # of connection points: 2
#     Edge 15, Type (0, 0), BuildingBlock: AJUNOK_clean_linker_0, # of connection points: 2
#     Edge 16, Type (0, 0), BuildingBlock: AJUNOK_clean_linker_0, # of connection points: 2
#     Edge 17, Type (0, 0), BuildingBlock: AJUNOK_clean_linker_0, # of connection points: 2
#     Edge 18, Type (0, 0), BuildingBlock: AJUNOK_clean_linker_0, # of connection points: 2
#     Edge 19, Type (0, 0), BuildingBlock: AJUNOK_clean_linker_0, # of connection points: 2
#     Edge 20, Type (0, 0), BuildingBlock: AJUNOK_clean_linker_0, # of connection points: 2
#     Edge 21, Type (0, 0), BuildingBlock: AJUNOK_clean_linker_0, # of connection points: 2
#     Edge 22, Type (0, 0), BuildingBlock: AJUNOK_clean_linker_0, # of connection points: 2
#     Edge 23, Type (0, 0), BuildingBlock: AJUNOK_clean_linker_0, # of connection points: 2
# Relax obj value: 0.183
# Max RMSD: 0.233
# Mean RMSD: 0.233
data_MOF--net-crb--node1-ICAMEG_clean_sbu_1--edge1-AJUNOK_clean_linker_0
_symmetry_space_group_name_H-M    P1
_symmetry_Int_Tables_number       1
_symmetry_cell_setting            triclinic
loop_
_symmetry_equiv_pos_as_xyz
'x, y, z'
_cell_length_a     33.177814
_cell_length_b     33.195457
_cell_length_c     19.177343
_cell_angle_alpha  90.275627
_cell_angle_beta   89.497365
_cell_angle_gamma 89.89591
loop_
_atom_site_label
_atom_site_type_symbol
_atom_site_fract_x
_atom_site_fract_y
_atom_site_fract_z
_atom_type_partial_charge
Co0 Co 0.34989 0.36472 0.94436 0.0
Co1 Co 0.34848 0.36431 0.12355 0.0
O2 O 0.32835 0.3431 0.03347 0.0
C3 C 0.2627 0.34274 0.90643 0.0
O4 O 0.25261 0.33337 0.97066 0.0
C5 C 0.32751 0.27634 0.15944 0.0
O6 O 0.3182 0.26689 0.09503 0.0
O7 O 0.40499 0.34946 0.09489 0.0
O8 O 0.40424 0.37333 0.98624 0.0
H9 H 0.446 0.44177 0.27168 0.0
H10 H 0.31186 0.28356 0.95281 0.0
O11 O 0.29757 0.35689 0.89324 0.0
H12 H 0.44572 0.25969 0.84752 0.0
H13 H 0.37173 0.36941 0.68375 0.0
H14 H 0.39837 0.43682 0.90824 0.0
H15 H 0.42404 0.32824 0.87937 0.0
H16 H 0.34622 0.34055 0.79368 0.0
O17 O 0.34173 0.31109 0.17332 0.0
H18 H 0.41817 0.41538 0.1619 0.0
H19 H 0.32367 0.35765 0.27381 0.0
H20 H 0.42444 0.46665 0.79952 0.0
H21 H 0.33184 0.21464 0.92044 0.0
H22 H 0.41131 0.43284 0.68618 0.0
H23 H 0.39931 0.20217 0.86743 0.0
O24 O 0.33307 0.42033 0.97363 0.0
H25 H 0.1986 0.34189 0.14315 0.0
H26 H 0.30932 0.43624 0.191 0.0
H27 H 0.23993 0.45545 0.22257 0.0
H28 H 0.18385 0.40792 0.19927 0.0
H29 H 0.26827 0.32443 0.11116 0.0
H30 H 0.35068 0.3832 0.38478 0.0
H31 H 0.41215 0.4258 0.3842 0.0
O32 O 0.35565 0.41946 0.08302 0.0
C33 C 0.42325 0.36066 0.03918 0.0
C34 C 0.41916 0.42329 0.27262 0.0
C35 C 0.36567 0.39043 0.33608 0.0
N36 N 0.36917 0.38516 0.21117 0.0
C37 C 0.40324 0.40824 0.21058 0.0
C38 C 0.3506 0.37593 0.27302 0.0
C39 C 0.40016 0.41432 0.33573 0.0
C40 C 0.34099 0.27875 0.929 0.0
N41 N 0.36648 0.31037 0.91744 0.0
C42 C 0.35228 0.23946 0.91112 0.0
C43 C 0.39015 0.23247 0.88154 0.0
C44 C 0.41619 0.2647 0.87042 0.0
C45 C 0.40382 0.30356 0.88897 0.0
C46 C 0.37773 0.3844 0.73281 0.0
C47 C 0.39238 0.42192 0.8592 0.0
C48 C 0.36329 0.36824 0.7953 0.0
N49 N 0.37096 0.3868 0.85762 0.0
C50 C 0.40729 0.43897 0.79776 0.0
C51 C 0.39992 0.41998 0.7342 0.0
C52 C 0.34335 0.43849 0.02971 0.0
C53 C 0.22278 0.36279 0.154 0.0
C54 C 0.28529 0.41556 0.17993 0.0
C55 C 0.24593 0.42652 0.19832 0.0
C56 C 0.21451 0.39986 0.18531 0.0
N57 N 0.29338 0.37897 0.14985 0.0
C58 C 0.26253 0.35291 0.13636 0.0
Co59 Co 0.67426 0.34247 0.11398 0.0
Co60 Co 0.67605 0.35132 0.9336 0.0
O61 O 0.6929 0.32508 1.02053 0.0
C62 C 0.75176 0.34958 0.19332 0.0
O63 O 0.74384 0.38756 0.20728 0.0
C64 C 0.67906 0.26183 0.89764 0.0
O65 O 0.68185 0.25174 0.9634 0.0
O66 O 0.61789 0.34621 0.96211 0.0
O67 O 0.61871 0.35325 0.07876 0.0
H68 H 0.59877 0.45378 0.796 0.0
H69 H 0.71453 0.2632 0.09562 0.0
O70 O 0.72925 0.32975 0.15188 0.0
H71 H 0.58168 0.23235 0.19908 0.0
H72 H 0.66015 0.33342 0.37622 0.0
H73 H 0.62359 0.40967 0.16612 0.0
H74 H 0.60157 0.30251 0.17599 0.0
H75 H 0.68284 0.31077 0.25995 0.0
O76 O 0.67346 0.29853 0.88108 0.0
H77 H 0.62121 0.41944 0.90248 0.0
H78 H 0.69472 0.34039 0.78126 0.0
H79 H 0.59979 0.43334 0.2813 0.0
H80 H 0.69643 0.19263 0.11943 0.0
H81 H 0.61825 0.39524 0.38755 0.0
H82 H 0.62945 0.17674 0.17115 0.0
O83 O 0.69021 0.39978 0.09401 0.0
H84 H 0.81889 0.30206 0.90328 0.0
H85 H 0.72626 0.41625 0.86906 0.0
H86 H 0.79729 0.42262 0.83282 0.0
H87 H 0.84412 0.36502 0.84898 0.0
H88 H 0.74795 0.29739 0.94038 0.0
H89 H 0.6725 0.37345 0.6735 0.0
H90 H 0.62432 0.43073 0.68038 0.0
O91 O 0.67921 0.40526 0.97924 0.0
C92 C 0.59997 0.35086 1.0211 0.0
C93 C 0.61973 0.42882 0.79229 0.0
C94 C 0.66101 0.38367 0.72355 0.0
N95 N 0.65901 0.37767 0.84835 0.0
C96 C 0.63261 0.40927 0.85246 0.0
C97 C 0.67323 0.36483 0.78483 0.0
C98 C 0.63404 0.41584 0.72745 0.0
C99 C 0.68534 0.25664 0.11826 0.0
N100 N 0.65877 0.28707 0.13309 0.0
C101 C 0.67525 0.21655 0.13156 0.0
C102 C 0.63767 0.20766 0.16048 0.0
C103 C 0.61082 0.23882 0.17595 0.0
C104 C 0.62199 0.27853 0.16192 0.0
C105 C 0.65228 0.35057 0.33043 0.0
C106 C 0.63207 0.3931 0.21207 0.0
C107 C 0.66544 0.33805 0.26443 0.0
N108 N 0.65577 0.35952 0.20625 0.0
C109 C 0.61834 0.40657 0.27718 0.0
C110 C 0.6287 0.38519 0.33674 0.0
C111 C 0.68719 0.42071 0.03839 0.0
C112 C 0.79875 0.32732 0.89567 0.0
C113 C 0.74644 0.3913 0.87739 0.0
C114 C 0.78666 0.39498 0.85629 0.0
C115 C 0.81291 0.36266 0.86532 0.0
N116 N 0.73253 0.35636 0.90633 0.0
C117 C 0.75834 0.32479 0.91629 0.0
Co118 Co 0.68043 0.67409 0.11868 0.0
Co119 Co 0.67681 0.66686 0.94146 0.0
O120 O 0.69838 0.69332 0.02605 0.0
C121 C 0.69574 0.76412 0.14245 0.0
O122 O 0.69938 0.77126 0.07545 0.0
C123 C 0.76166 0.69323 0.89855 0.0
O124 O 0.77171 0.70101 0.96322 0.0
O125 O 0.69946 0.61453 0.97385 0.0
O126 O 0.67489 0.61717 0.08258 0.0
H127 H 0.60682 0.55478 0.81368 0.0
H128 H 0.7582 0.71738 0.10109 0.0
O129 O 0.68627 0.72898 0.16334 0.0
H130 H 0.7936 0.59022 0.2169 0.0
H131 H 0.68179 0.66233 0.38091 0.0
H132 H 0.61316 0.62185 0.16467 0.0
H133 H 0.7232 0.60533 0.18754 0.0
H134 H 0.70662 0.6858 0.26667 0.0
O135 O 0.72718 0.67835 0.88527 0.0
H136 H 0.63323 0.59017 0.91672 0.0
H137 H 0.67619 0.68524 0.78873 0.0
H138 H 0.58757 0.59732 0.2778 0.0
H139 H 0.82887 0.70405 0.13083 0.0
H140 H 0.62198 0.61754 0.38699 0.0
H141 H 0.84712 0.64 0.18914 0.0
O142 O 0.62349 0.68706 0.09198 0.0
H143 H 0.67899 0.8164 0.89935 0.0
H144 H 0.59707 0.69292 0.88565 0.0
H145 H 0.56743 0.75775 0.85076 0.0
H146 H 0.60853 0.82011 0.85712 0.0
H147 H 0.70721 0.75109 0.9348 0.0
H148 H 0.65052 0.65067 0.68417 0.0
H149 H 0.61535 0.58505 0.69627 0.0
O150 O 0.62459 0.6545 0.99006 0.0
C151 C 0.68962 0.59736 0.03107 0.0
C152 C 0.622 0.58342 0.80771 0.0
C153 C 0.64656 0.6372 0.73505 0.0
N154 N 0.65605 0.6399 0.85903 0.0
C155 C 0.63698 0.60366 0.86595 0.0
C156 C 0.66116 0.65658 0.79449 0.0
C157 C 0.62682 0.60039 0.74187 0.0
C158 C 0.7656 0.6896 0.12688 0.0
N159 N 0.73621 0.66222 0.14258 0.0
C160 C 0.80584 0.68213 0.14338 0.0
C161 C 0.81607 0.64618 0.17596 0.0
C162 C 0.78608 0.61824 0.19144 0.0
C163 C 0.74618 0.6268 0.17416 0.0
C164 C 0.66651 0.65333 0.33371 0.0
C165 C 0.6283 0.63082 0.21191 0.0
C166 C 0.68031 0.6667 0.26884 0.0
N167 N 0.66139 0.65521 0.2089 0.0
C168 C 0.61366 0.61682 0.27585 0.0
C169 C 0.63297 0.62818 0.33708 0.0
C170 C 0.60546 0.67239 0.03899 0.0
C171 C 0.66083 0.78941 0.896 0.0
C172 C 0.61519 0.71988 0.88885 0.0
C173 C 0.59822 0.75653 0.86884 0.0
C174 C 0.62129 0.79149 0.87242 0.0
N175 N 0.65409 0.718 0.91173 0.0
C176 C 0.67676 0.75223 0.91568 0.0
Co177 Co 0.35277 0.68573 0.93159 0.0
Co178 Co 0.36104 0.69333 0.11232 0.0
O179 O 0.33829 0.71114 0.02233 0.0
C180 C 0.34436 0.77526 0.89573 0.0
O181 O 0.33727 0.78598 0.96066 0.0
C182 C 0.27145 0.69977 0.14743 0.0
O183 O 0.26065 0.68965 0.08406 0.0
O184 O 0.34661 0.63585 0.09153 0.0
O185 O 0.35221 0.63136 0.97515 0.0
H186 H 0.44664 0.60451 0.26258 0.0
H187 H 0.27936 0.73772 0.95038 0.0
O188 O 0.35319 0.73884 0.88078 0.0
H189 H 0.23014 0.61134 0.8466 0.0
H190 H 0.34721 0.66694 0.67054 0.0
H191 H 0.40701 0.6187 0.88914 0.0
H192 H 0.30208 0.61981 0.8729 0.0
H193 H 0.32795 0.69771 0.78305 0.0
O194 O 0.30854 0.70151 0.16323 0.0
H195 H 0.41761 0.62841 0.15235 0.0
H196 H 0.35407 0.72086 0.26105 0.0
H197 H 0.42694 0.58677 0.77779 0.0
H198 H 0.20752 0.73093 0.92349 0.0
H199 H 0.39702 0.61098 0.66729 0.0
H200 H 0.18228 0.66737 0.87106 0.0
O201 O 0.41207 0.69139 0.9516 0.0
H202 H 0.33374 0.84196 0.13038 0.0
H203 H 0.43461 0.73485 0.16518 0.0
H204 H 0.45262 0.80541 0.19057 0.0
H205 H 0.4019 0.85955 0.17351 0.0
H206 H 0.31729 0.77103 0.10455 0.0
H207 H 0.38209 0.69769 0.37248 0.0
H208 H 0.42881 0.63915 0.37377 0.0
O209 O 0.41491 0.68594 0.06824 0.0
C210 C 0.34749 0.61537 0.03483 0.0
C211 C 0.42627 0.63001 0.26275 0.0
C212 C 0.38996 0.68223 0.32443 0.0
N213 N 0.38383 0.67575 0.20016 0.0
C214 C 0.40974 0.64371 0.20045 0.0
C215 C 0.37397 0.69505 0.26114 0.0
C216 C 0.41622 0.64943 0.3251 0.0
C217 C 0.26913 0.71026 0.92644 0.0
N218 N 0.2955 0.67959 0.91192 0.0
C219 C 0.22813 0.70643 0.91188 0.0
C220 C 0.21396 0.67074 0.8827 0.0
C221 C 0.24078 0.63931 0.86902 0.0
C222 C 0.28157 0.64424 0.88432 0.0
C223 C 0.36067 0.65628 0.71826 0.0
C224 C 0.39411 0.62957 0.84139 0.0
C225 C 0.35012 0.67381 0.78221 0.0
N226 N 0.36696 0.66054 0.84283 0.0
C227 C 0.40538 0.61129 0.77843 0.0
C228 C 0.38857 0.62487 0.71648 0.0
C229 C 0.43163 0.68833 1.0086 0.0
C230 C 0.35613 0.81866 0.13792 0.0
C231 C 0.41259 0.75829 0.15663 0.0
C232 C 0.42286 0.79817 0.17156 0.0
C233 C 0.39438 0.82851 0.16207 0.0
N234 N 0.37505 0.74887 0.13278 0.0
C235 C 0.34696 0.77844 0.12347 0.0
Co236 Co 0.85205 0.84499 0.43385 0.0
Co237 Co 0.8601 0.85565 0.61033 0.0
O238 O 0.83306 0.83169 0.52884 0.0
C239 C 0.77859 0.86046 0.35145 0.0
O240 O 0.79352 0.89636 0.33903 0.0
C241 C 0.83682 0.77125 0.65897 0.0
O242 O 0.83011 0.75896 0.59499 0.0
O243 O 0.91215 0.83199 0.5776 0.0
O244 O 0.90954 0.85114 0.4661 0.0
H245 H 0.97285 0.92981 0.72813 0.0
H246 H 0.80406 0.7709 0.45395 0.0
O247 O 0.79547 0.83802 0.39683 0.0
H248 H 0.93365 0.72434 0.35465 0.0
H249 H 0.8638 0.82771 0.17249 0.0
H250 H 0.90408 0.90921 0.37584 0.0
H251 H 0.92135 0.79652 0.37607 0.0
H252 H 0.84041 0.80983 0.29057 0.0
O253 O 0.84905 0.80702 0.67031 0.0
H254 H 0.93674 0.90035 0.62855 0.0
H255 H 0.8426 0.8612 0.76347 0.0
H256 H 0.92829 0.92803 0.25857 0.0
H257 H 0.81475 0.69842 0.43205 0.0
H258 H 0.9081 0.88719 0.15583 0.0
H259 H 0.87997 0.67467 0.38215 0.0
O260 O 0.84123 0.9034 0.45448 0.0
H261 H 0.71107 0.85421 0.66049 0.0
H262 H 0.83411 0.93729 0.65971 0.0
H263 H 0.76939 0.96775 0.69571 0.0
H264 H 0.70729 0.92607 0.69673 0.0
H265 H 0.7763 0.82513 0.62367 0.0
H266 H 0.87793 0.8899 0.86469 0.0
H267 H 0.94349 0.92465 0.84736 0.0
O268 O 0.87218 0.90599 0.55747 0.0
C269 C 0.92936 0.83945 0.51917 0.0
C270 C 0.94428 0.91479 0.73638 0.0
C271 C 0.89104 0.89237 0.813 0.0
N272 N 0.88754 0.87907 0.68996 0.0
C273 C 0.92363 0.89808 0.68011 0.0
C274 C 0.87124 0.87604 0.75546 0.0
C275 C 0.9278 0.91186 0.80325 0.0
C276 C 0.83246 0.76087 0.43187 0.0
N277 N 0.86207 0.78806 0.41646 0.0
C278 C 0.83837 0.71975 0.41978 0.0
C279 C 0.87498 0.70645 0.39188 0.0
C280 C 0.90512 0.73428 0.37655 0.0
C281 C 0.89811 0.77517 0.38932 0.0
C282 C 0.87287 0.84571 0.21684 0.0
C283 C 0.89511 0.89129 0.33144 0.0
C284 C 0.85975 0.83572 0.28393 0.0
N285 N 0.87079 0.8585 0.34028 0.0
C286 C 0.90896 0.90207 0.26514 0.0
C287 C 0.89766 0.87912 0.20753 0.0
C288 C 0.85619 0.92314 0.50535 0.0
C289 C 0.73796 0.87263 0.66064 0.0
C290 C 0.80723 0.91893 0.65974 0.0
C291 C 0.77066 0.93636 0.68033 0.0
C292 C 0.73584 0.91296 0.68088 0.0
N293 N 0.80915 0.87924 0.64041 0.0
C294 C 0.77505 0.85624 0.64019 0.0
Co295 Co 0.1867 0.85417 0.44267 0.0
Co296 Co 0.17399 0.85146 0.62319 0.0
O297 O 0.20102 0.83396 0.53614 0.0
C298 C 0.17238 0.78146 0.35563 0.0
O299 O 0.13664 0.79644 0.34208 0.0
C300 C 0.26303 0.8477 0.66223 0.0
O301 O 0.27453 0.84382 0.59694 0.0
O302 O 0.18057 0.90962 0.59695 0.0
O303 O 0.18004 0.91019 0.47977 0.0
H304 H 0.07065 0.93019 0.76066 0.0
H305 H 0.26134 0.80613 0.45922 0.0
O306 O 0.19418 0.79833 0.40205 0.0
H307 H 0.3067 0.93737 0.36878 0.0
H308 H 0.20352 0.86873 0.18188 0.0
H309 H 0.12371 0.90885 0.38903 0.0
H310 H 0.23451 0.92419 0.38926 0.0
H311 H 0.22152 0.84384 0.29837 0.0
O312 O 0.22594 0.85325 0.6772 0.0
H313 H 0.10647 0.90758 0.65437 0.0
H314 H 0.18199 0.83207 0.77511 0.0
H315 H 0.10471 0.93451 0.27343 0.0
H316 H 0.33377 0.81762 0.43798 0.0
H317 H 0.14465 0.91434 0.16877 0.0
H318 H 0.35692 0.88371 0.39269 0.0
O319 O 0.12777 0.84327 0.46022 0.0
H320 H 0.22063 0.70812 0.6523 0.0
H321 H 0.10671 0.80215 0.6827 0.0
H322 H 0.09855 0.73122 0.71689 0.0
H323 H 0.15598 0.6837 0.70265 0.0
H324 H 0.22713 0.779 0.61737 0.0
H325 H 0.14743 0.85444 0.88272 0.0
H326 H 0.09117 0.9037 0.87596 0.0
O327 O 0.12094 0.84941 0.57614 0.0
C328 C 0.17994 0.92825 0.5386 0.0
C329 C 0.09516 0.90876 0.76432 0.0
C330 C 0.13832 0.86634 0.83282 0.0
N331 N 0.14657 0.86877 0.70831 0.0
C332 C 0.11555 0.89578 0.70426 0.0
C333 C 0.15801 0.85402 0.77164 0.0
C334 C 0.10671 0.89392 0.82899 0.0
C335 C 0.27109 0.8349 0.43908 0.0
N336 N 0.24362 0.8646 0.42605 0.0
C337 C 0.31219 0.84127 0.42738 0.0
C338 C 0.32517 0.87837 0.4021 0.0
C339 C 0.29702 0.90851 0.38885 0.0
C340 C 0.25616 0.90105 0.40122 0.0
C341 C 0.18582 0.87769 0.22705 0.0
C342 C 0.14124 0.8999 0.34376 0.0
C343 C 0.19585 0.86367 0.29322 0.0
N344 N 0.1734 0.87451 0.35055 0.0
C345 C 0.13036 0.91457 0.27843 0.0
C346 C 0.15279 0.90326 0.21974 0.0
C347 C 0.10613 0.84461 0.51573 0.0
C348 C 0.19543 0.72857 0.65912 0.0
C349 C 0.13164 0.78166 0.67533 0.0
C350 C 0.12692 0.74151 0.6952 0.0
C351 C 0.15915 0.71487 0.68724 0.0
N352 N 0.1675 0.79511 0.64867 0.0
C353 C 0.199 0.76892 0.63973 0.0
Co354 Co 0.1693 0.1785 0.62461 0.0
Co355 Co 0.16517 0.1792 0.44671 0.0
O356 O 0.189 0.2002 0.53429 0.0
C357 C 0.19104 0.26596 0.66409 0.0
O358 O 0.20005 0.27665 0.59999 0.0
C359 C 0.2518 0.20094 0.40155 0.0
O360 O 0.26292 0.21011 0.46522 0.0
O361 O 0.18299 0.12352 0.47229 0.0
O362 O 0.15901 0.12422 0.58133 0.0
H363 H 0.08451 0.07985 0.30703 0.0
H364 H 0.25044 0.21584 0.61274 0.0
O365 O 0.17872 0.23044 0.67677 0.0
H366 H 0.27478 0.07991 0.70551 0.0
H367 H 0.17031 0.15489 0.88435 0.0
H368 H 0.09721 0.13112 0.66531 0.0
H369 H 0.20585 0.10288 0.68102 0.0
H370 H 0.19694 0.1809 0.77301 0.0
O371 O 0.21638 0.18769 0.39046 0.0
H372 H 0.11458 0.10811 0.41356 0.0
H373 H 0.16565 0.20402 0.29677 0.0
H374 H 0.06949 0.10472 0.77552 0.0
H375 H 0.31986 0.19447 0.63775 0.0
H376 H 0.10618 0.1164 0.88611 0.0
H377 H 0.33249 0.12596 0.68436 0.0
O378 O 0.11362 0.19687 0.60119 0.0
H379 H 0.18116 0.32932 0.42236 0.0
H380 H 0.08805 0.21481 0.39595 0.0
H381 H 0.06472 0.28328 0.36804 0.0
H382 H 0.11151 0.34114 0.38063 0.0
H383 H 0.20301 0.26055 0.45078 0.0
H384 H 0.13656 0.17649 0.18884 0.0
H385 H 0.09547 0.11406 0.19353 0.0
O386 O 0.11204 0.16995 0.49433 0.0
C387 C 0.17226 0.10517 0.52794 0.0
C388 C 0.1023 0.10711 0.3043 0.0
C389 C 0.13152 0.16132 0.23797 0.0
N390 N 0.14175 0.15778 0.36167 0.0
C391 C 0.11935 0.12331 0.36454 0.0
C392 C 0.14804 0.17669 0.2993 0.0
C393 C 0.10848 0.1263 0.24064 0.0
C394 C 0.25547 0.18623 0.63379 0.0
N395 N 0.22382 0.16088 0.64596 0.0
C396 C 0.29496 0.17417 0.64751 0.0
C397 C 0.30204 0.13572 0.67353 0.0
C398 C 0.2697 0.10988 0.68536 0.0
C399 C 0.23065 0.12301 0.67107 0.0
C400 C 0.15411 0.14947 0.83648 0.0
C401 C 0.11336 0.13647 0.71315 0.0
C402 C 0.16905 0.16412 0.7732 0.0
N403 N 0.14887 0.15726 0.71239 0.0
C404 C 0.09751 0.12138 0.77544 0.0
C405 C 0.11811 0.12792 0.83745 0.0
C406 C 0.09442 0.18514 0.54753 0.0
C407 C 0.16059 0.30432 0.41606 0.0
C408 C 0.10866 0.23976 0.40169 0.0
C409 C 0.09524 0.27851 0.38572 0.0
C410 C 0.12149 0.31095 0.3928 0.0
N411 N 0.14727 0.23337 0.42365 0.0
C412 C 0.17294 0.26516 0.43161 0.0
Co413 Co 0.84909 0.16768 0.63522 0.0
Co414 Co 0.84491 0.17349 0.45711 0.0
O415 O 0.82461 0.18911 0.5501 0.0
C416 C 0.75988 0.17834 0.67122 0.0
O417 O 0.75061 0.18482 0.60588 0.0
C418 C 0.8481 0.25331 0.384 0.0
O419 O 0.88706 0.2489 0.37396 0.0
O420 O 0.89973 0.19348 0.48319 0.0
O421 O 0.90367 0.16597 0.58958 0.0
H422 H 0.94689 0.11486 0.28972 0.0
H423 H 0.80255 0.24475 0.63908 0.0
O424 O 0.79593 0.16922 0.6875 0.0
H425 H 0.93535 0.27769 0.73689 0.0
H426 H 0.86963 0.15663 0.8947 0.0
H427 H 0.90941 0.10408 0.66354 0.0
H428 H 0.9207 0.20888 0.69584 0.0
H429 H 0.8405 0.18512 0.78798 0.0
O430 O 0.82863 0.22805 0.42123 0.0
H431 H 0.9188 0.1332 0.40491 0.0
H432 H 0.81441 0.18109 0.31053 0.0
H433 H 0.93969 0.07477 0.76875 0.0
H434 H 0.8156 0.3136 0.68111 0.0
H435 H 0.91973 0.10109 0.88557 0.0
H436 H 0.88241 0.33053 0.73053 0.0
O437 O 0.83799 0.11168 0.60113 0.0
H438 H 0.69401 0.18277 0.44014 0.0
H439 H 0.81322 0.09777 0.39265 0.0
H440 H 0.74572 0.07246 0.36291 0.0
H441 H 0.6855 0.11514 0.38634 0.0
H442 H 0.76202 0.20671 0.46993 0.0
H443 H 0.84115 0.16377 0.1941 0.0
H444 H 0.90795 0.1303 0.18301 0.0
O445 O 0.85955 0.11792 0.49006 0.0
C446 C 0.91977 0.18265 0.53658 0.0
C447 C 0.91785 0.12964 0.29373 0.0
C448 C 0.85857 0.15711 0.24011 0.0
N449 N 0.86535 0.15889 0.36478 0.0
C450 C 0.90189 0.14017 0.35896 0.0
C451 C 0.84364 0.16715 0.30628 0.0
C452 C 0.896 0.1383 0.23393 0.0
C453 C 0.83145 0.25151 0.66147 0.0
N454 N 0.86039 0.22235 0.66649 0.0
C455 C 0.83879 0.29075 0.68473 0.0
C456 C 0.87631 0.30025 0.71234 0.0
C457 C 0.906 0.27062 0.71596 0.0
C458 C 0.89751 0.23168 0.69249 0.0
C459 C 0.87847 0.14478 0.84415 0.0
C460 C 0.90051 0.11546 0.71399 0.0
C461 C 0.86187 0.16062 0.78345 0.0
N462 N 0.87289 0.14586 0.71933 0.0
C463 C 0.91779 0.09887 0.77349 0.0
C464 C 0.90659 0.11365 0.83899 0.0
C465 C 0.8486 0.09661 0.54217 0.0
C466 C 0.72 0.16386 0.42972 0.0
C467 C 0.78716 0.11637 0.40385 0.0
C468 C 0.74901 0.10195 0.38647 0.0
C469 C 0.71525 0.12592 0.39958 0.0
N470 N 0.79162 0.15362 0.43349 0.0
C471 C 0.75863 0.17727 0.44643 0.0
C472 C 0.33472 0.50644 0.97339 0.0
C473 C 0.34322 0.48363 0.03309 0.0
C474 C 0.33565 0.54875 0.97495 0.0
C475 C 0.34421 0.57047 0.03662 0.0
H476 H 0.32798 0.49159 0.92445 0.0
H477 H 0.32989 0.56442 0.9268 0.0
S478 S 0.36935 0.52568 0.20769 0.0
N479 N 0.36219 0.48668 0.15575 0.0
N480 N 0.36123 0.56565 0.15909 0.0
C481 C 0.3521 0.54816 0.097 0.0
C482 C 0.35234 0.50504 0.0951 0.0
C483 C 0.49163 0.3475 0.09141 0.0
C484 C 0.4684 0.35966 0.03428 0.0
C485 C 0.5339 0.34527 0.0868 0.0
C486 C 0.555 0.35377 0.02424 0.0
H487 H 0.47717 0.33979 0.1404 0.0
H488 H 0.54997 0.33655 0.13297 0.0
S489 S 0.50929 0.39101 0.86093 0.0
N490 N 0.47082 0.38469 0.91471 0.0
N491 N 0.54931 0.37706 0.90509 0.0
C492 C 0.53228 0.36648 0.96703 0.0
C493 C 0.48938 0.37029 0.97231 0.0
C494 C 0.69948 0.48681 0.97846 0.0
C495 C 0.6915 0.46555 0.04068 0.0
C496 C 0.69998 0.52904 0.97637 0.0
C497 C 0.69145 0.55235 0.0361 0.0
H498 H 0.70483 0.47082 0.93011 0.0
H499 H 0.70602 0.5434 0.92678 0.0
S500 S 0.66811 0.51181 0.2128 0.0
N501 N 0.67625 0.4714 0.1643 0.0
N502 N 0.67401 0.55042 0.15992 0.0
C503 C 0.68343 0.53152 0.09897 0.0
C504 C 0.68432 0.48836 0.10142 0.0
C505 C 0.49834 0.71388 0.04888 0.0
C506 C 0.47624 0.68627 1.00834 0.0
C507 C 0.53985 0.70875 0.0604 0.0
C508 C 0.56088 0.67565 0.03196 0.0
H509 H 0.48334 0.73962 0.07228 0.0
H510 H 0.55564 0.73117 0.09093 0.0
S511 S 0.51629 0.59331 0.92555 0.0
N512 N 0.47813 0.62395 0.94221 0.0
N513 N 0.55577 0.61396 0.96327 0.0
C514 C 0.53896 0.64774 0.99146 0.0
C515 C 0.49681 0.65315 0.9797 0.0
C516 C 0.82047 0.98938 0.49188 0.0
C517 C 0.85584 0.96774 0.50663 0.0
C518 C 0.8179 0.03107 0.50535 0.0
C519 C 0.85068 0.05241 0.53341 0.0
H520 H 0.79417 0.97376 0.47251 0.0
H521 H 0.79 0.04664 0.49427 0.0
S522 S 0.9506 1.01004 0.57735 0.0
N523 N 0.92466 0.97108 0.54863 0.0
N524 N 0.91998 0.04915 0.57204 0.0
C525 C 0.88642 0.0313 0.54641 0.0
C526 C 0.88895 0.98903 0.53348 0.0
C527 C 0.03911 0.83401 0.57441 0.0
C528 C 0.06124 0.84086 0.51237 0.0
C529 C 0.99695 0.83245 0.57542 0.0
C530 C 0.97442 0.83841 0.51461 0.0
H531 H 0.05428 0.83031 0.62357 0.0
H532 H 0.982 0.82746 0.62506 0.0
S533 S 0.01721 0.85768 0.33767 0.0
N534 N 0.0571 0.85298 0.38781 0.0
N535 N 0.9778 0.85155 0.38963 0.0
C536 C 0.99602 0.8451 0.45175 0.0
C537 C 0.03928 0.84594 0.45062 0.0
C538 C 0.18748 0.03707 0.47421 0.0
C539 C 0.17337 0.06002 0.53127 0.0
C540 C 0.18945 0.99477 0.47714 0.0
C541 C 0.17829 0.97332 0.53778 0.0
H542 H 0.19701 0.0518 0.42657 0.0
H543 H 0.19999 0.97889 0.43118 0.0
S544 S 0.1364 0.01838 0.70041 0.0
N545 N 0.14499 0.05715 0.64903 0.0
N546 N 0.15109 0.97851 0.65534 0.0
C547 C 0.1639 0.9958 0.59504 0.0
C548 C 0.16081 0.03877 0.59155 0.0
C549 C 0.98468 0.21861 0.5596 0.0
C550 C 0.96418 0.18432 0.53512 0.0
C551 C 0.02698 0.21858 0.56617 0.0
C552 C 0.04986 0.18429 0.54807 0.0
H553 H 0.96787 0.24534 0.57458 0.0
H554 H 0.04189 0.24568 0.58405 0.0
S555 S 1.01012 0.08621 0.48639 0.0
N556 N 0.96966 0.11462 0.49759 0.0
N557 N 0.04873 0.1149 0.50749 0.0
C558 C 0.02948 0.14982 0.52454 0.0
C559 C 0.98671 0.1497 0.51885 0.0
C560 C 0.30603 0.24402 0.34711 0.0
C561 C 0.27672 0.21373 0.3399 0.0
C562 C 0.32423 0.26204 0.28849 0.0
C563 C 0.31394 0.25081 0.2197 0.0
H564 H 0.31355 0.2555 0.39832 0.0
H565 H 0.3454 0.28625 0.29748 0.0
S566 S 0.24415 0.16789 0.17235 0.0
N567 N 0.24255 0.16928 0.25838 0.0
N568 N 0.27592 0.20364 0.1487 0.0
C569 C 0.287 0.21837 0.21191 0.0
C570 C 0.2686 0.19985 0.27171 0.0
C571 C 0.76655 0.28751 0.26082 0.0
C572 C 0.77868 0.32624 0.23992 0.0
C573 C 0.78812 0.26567 0.3101 0.0
C574 C 0.82458 0.28006 0.33743 0.0
H575 H 0.73948 0.27398 0.24029 0.0
H576 H 0.77621 0.23676 0.3257 0.0
S577 S 0.87105 0.37896 0.29787 0.0
N578 N 0.82934 0.37858 0.25131 0.0
N579 N 0.87249 0.33534 0.33907 0.0
C580 C 0.83796 0.31826 0.31572 0.0
C581 C 0.81452 0.34175 0.26808 0.0
C582 C 0.72936 0.80654 0.31776 0.0
C583 C 0.7511 0.84131 0.29968 0.0
C584 C 0.70917 0.7836 0.2672 0.0
C585 C 0.71055 0.79371 0.19571 0.0
H586 H 0.72903 0.79612 0.37122 0.0
H587 H 0.69374 0.75669 0.28435 0.0
S588 S 0.76084 0.88385 0.12128 0.0
N589 N 0.77025 0.88657 0.20554 0.0
N590 N 0.73326 0.84299 0.11065 0.0
C591 C 0.73038 0.82967 0.17741 0.0
C592 C 0.75044 0.85348 0.22921 0.0
C593 C 0.22944 0.73566 0.32194 0.0
C594 C 0.19238 0.75351 0.30473 0.0
C595 C 0.25336 0.71621 0.27139 0.0
C596 C 0.2416 0.71385 0.20096 0.0
H597 H 0.24099 0.73819 0.37444 0.0
H598 H 0.28216 0.7042 0.28746 0.0
S599 S 0.14554 0.7523 0.12921 0.0
N600 N 0.14347 0.76464 0.21268 0.0
N601 N 0.18877 0.72835 0.11781 0.0
C602 C 0.20346 0.72924 0.1837 0.0
C603 C 0.17884 0.74899 0.23546 0.0
C604 C 0.27918 0.84591 0.78999 0.0
C605 C 0.29056 0.83681 0.72054 0.0
C606 C 0.29916 0.82874 0.84703 0.0
C607 C 0.33124 0.80149 0.83712 0.0
H608 H 0.25321 0.86487 0.80053 0.0
H609 H 0.28742 0.8347 0.89895 0.0
S610 S 0.3771 0.77233 0.66683 0.0
N611 N 0.33936 0.8023 0.64592 0.0
N612 N 0.37683 0.77026 0.75283 0.0
C613 C 0.34509 0.79475 0.76831 0.0
C614 C 0.32485 0.81237 0.71017 0.0
C615 C 0.2503 0.33915 0.77706 0.0
C616 C 0.23791 0.32925 0.84562 0.0
C617 C 0.23317 0.32071 0.71816 0.0
C618 C 0.20263 0.29165 0.725 0.0
H619 H 0.27479 0.36009 0.76854 0.0
H620 H 0.24558 0.3277 0.66722 0.0
S621 S 0.15355 0.26067 0.89133 0.0
N622 N 0.18921 0.29223 0.91568 0.0
N623 N 0.15638 0.25849 0.80541 0.0
C624 C 0.18743 0.28416 0.79275 0.0
C625 C 0.2051 0.30274 0.85282 0.0
C626 C 0.68449 0.24314 0.77091 0.0
C627 C 0.69217 0.23347 0.84112 0.0
C628 C 0.70394 0.22277 0.71568 0.0
C629 C 0.73216 0.19201 0.72826 0.0
H630 H 0.66485 0.26813 0.7584 0.0
H631 H 0.69881 0.23318 0.66305 0.0
S632 S 0.75836 0.15055 0.90159 0.0
N633 N 0.72646 0.1875 0.91941 0.0
N634 N 0.76276 0.14926 0.8158 0.0
C635 C 0.73758 0.17976 0.79782 0.0
C636 C 0.71762 0.20038 0.85414 0.0
C637 C 0.77555 0.69826 0.76965 0.0
C638 C 0.78652 0.70828 0.83861 0.0
C639 C 0.79363 0.71692 0.71165 0.0
C640 C 0.82347 0.74657 0.71987 0.0
H641 H 0.75165 0.67681 0.76013 0.0
H642 H 0.78262 0.70942 0.66021 0.0
S643 S 0.86761 0.77963 0.88814 0.0
N644 N 0.83245 0.74698 0.91084 0.0
N645 N 0.86665 0.78154 0.80217 0.0
C646 C 0.83674 0.75487 0.78816 0.0
C647 C 0.81831 0.73585 0.84731 0.0
loop_
_geom_bond_atom_site_label_1
_geom_bond_atom_site_label_2
_geom_bond_distance
_geom_bond_site_symmetry_2
_ccdc_geom_bond_type
Co0 O2 2.143 1_556 S
Co0 O8 2.074 . S
Co0 O11 2.093 . S
Co0 O24 2.097 . S
Co0 N41 2.151 . S
Co0 N49 2.214 . S
Co1 O2 2.160 . S
Co1 O7 2.058 . S
Co1 O17 2.057 . S
Co1 O32 2.037 . S
Co1 N36 2.145 . S
Co1 N57 2.257 . S
O2 Co0 2.143 1_554 S
O2 Co1 2.160 . S
C3 O4 1.278 . S
C3 O11 1.224 . S
O4 C3 1.278 . S
C5 O6 1.245 . S
C5 O17 1.232 . S
O6 C5 1.245 . S
O7 Co1 2.058 . S
O7 C33 1.269 . S
O8 Co0 2.074 . S
O8 C33 1.257 1_556 S
H9 C34 0.930 . S
H10 C40 0.930 . S
O11 Co0 2.093 . S
O11 C3 1.224 . S
H12 C44 0.929 . S
H13 C46 0.930 . S
H14 C47 0.930 . S
H15 C45 0.929 . S
H16 C48 0.928 . S
O17 Co1 2.057 . S
O17 C5 1.232 . S
H18 C37 0.929 . S
H19 C38 0.929 . S
H20 C50 0.931 . S
H21 C42 0.929 . S
H22 C51 0.930 . S
H23 C43 0.931 . S
O24 Co0 2.097 . S
O24 C52 1.214 . S
H25 C53 0.929 . S
H26 C54 0.929 . S
H27 C55 0.930 . S
H28 C56 0.929 . S
H29 C58 0.930 . S
H30 C35 0.930 . S
H31 C39 0.930 . S
O32 Co1 2.037 . S
O32 C52 1.234 1_554 S
C33 O7 1.269 . S
C33 O8 1.257 1_554 S
C34 H9 0.930 . S
C34 C37 1.388 . S
C34 C39 1.418 . S
C35 H30 0.930 . S
C35 C38 1.404 . S
C35 C39 1.353 . S
N36 Co1 2.145 . S
N36 C37 1.397 . S
N36 C38 1.334 . S
C37 H18 0.929 . S
C37 C34 1.388 . S
C37 N36 1.397 . S
C38 H19 0.929 . S
C38 C35 1.404 . S
C38 N36 1.334 . S
C39 H31 0.930 . S
C39 C34 1.418 . S
C39 C35 1.353 . S
C40 H10 0.930 . S
C40 N41 1.330 . S
C40 C42 1.446 . S
N41 Co0 2.151 . S
N41 C40 1.330 . S
N41 C45 1.418 . S
C42 H21 0.929 . S
C42 C40 1.446 . S
C42 C43 1.332 . S
C43 H23 0.931 . S
C43 C42 1.332 . S
C43 C44 1.267 . S
C44 H12 0.929 . S
C44 C43 1.267 . S
C44 C45 1.251 . S
C45 H15 0.929 . S
C45 N41 1.418 . S
C45 C44 1.251 . S
C46 H13 0.930 . S
C46 C48 1.406 . S
C46 C51 1.261 . S
C47 H14 0.930 . S
C47 N49 1.325 . S
C47 C50 1.357 . S
C48 H16 0.928 . S
C48 C46 1.406 . S
C48 N49 1.261 . S
N49 Co0 2.214 . S
N49 C47 1.325 . S
N49 C48 1.261 . S
C50 H20 0.931 . S
C50 C47 1.357 . S
C50 C51 1.312 . S
C51 H22 0.930 . S
C51 C46 1.261 . S
C51 C50 1.312 . S
C52 O24 1.214 . S
C52 O32 1.234 1_556 S
C53 H25 0.929 . S
C53 C56 1.391 . S
C53 C58 1.391 . S
C54 H26 0.929 . S
C54 C55 1.390 . S
C54 N57 1.391 . S
C55 H27 0.930 . S
C55 C54 1.390 . S
C55 C56 1.392 . S
C56 H28 0.929 . S
C56 C53 1.391 . S
C56 C55 1.392 . S
N57 Co1 2.257 . S
N57 C54 1.391 . S
N57 C58 1.388 . S
C58 H29 0.930 . S
C58 C53 1.391 . S
C58 N57 1.388 . S
Co59 O61 2.143 . S
Co59 O67 2.074 . S
Co59 O70 2.093 . S
Co59 O83 2.097 . S
Co59 N100 2.151 . S
Co59 N108 2.214 . S
Co60 O61 2.160 1_556 S
Co60 O66 2.058 . S
Co60 O76 2.057 . S
Co60 O91 2.037 . S
Co60 N95 2.145 . S
Co60 N116 2.257 . S
O61 Co59 2.143 . S
O61 Co60 2.160 1_554 S
C62 O63 1.278 . S
C62 O70 1.224 . S
O63 C62 1.278 . S
C64 O65 1.245 . S
C64 O76 1.232 . S
O65 C64 1.245 . S
O66 Co60 2.058 . S
O66 C92 1.269 . S
O67 Co59 2.074 . S
O67 C92 1.257 1_554 S
H68 C93 0.930 . S
H69 C99 0.930 . S
O70 Co59 2.093 . S
O70 C62 1.224 . S
H71 C103 0.929 . S
H72 C105 0.930 . S
H73 C106 0.930 . S
H74 C104 0.929 . S
H75 C107 0.928 . S
O76 Co60 2.057 . S
O76 C64 1.232 . S
H77 C96 0.929 . S
H78 C97 0.929 . S
H79 C109 0.931 . S
H80 C101 0.929 . S
H81 C110 0.930 . S
H82 C102 0.931 . S
O83 Co59 2.097 . S
O83 C111 1.214 . S
H84 C112 0.929 . S
H85 C113 0.929 . S
H86 C114 0.930 . S
H87 C115 0.929 . S
H88 C117 0.930 . S
H89 C94 0.930 . S
H90 C98 0.930 . S
O91 Co60 2.037 . S
O91 C111 1.234 1_556 S
C92 O66 1.269 . S
C92 O67 1.257 1_556 S
C93 H68 0.930 . S
C93 C96 1.388 . S
C93 C98 1.418 . S
C94 H89 0.930 . S
C94 C97 1.404 . S
C94 C98 1.353 . S
N95 Co60 2.145 . S
N95 C96 1.397 . S
N95 C97 1.334 . S
C96 H77 0.929 . S
C96 C93 1.388 . S
C96 N95 1.397 . S
C97 H78 0.929 . S
C97 C94 1.404 . S
C97 N95 1.334 . S
C98 H90 0.930 . S
C98 C93 1.418 . S
C98 C94 1.353 . S
C99 H69 0.930 . S
C99 N100 1.330 . S
C99 C101 1.446 . S
N100 Co59 2.151 . S
N100 C99 1.330 . S
N100 C104 1.418 . S
C101 H80 0.929 . S
C101 C99 1.446 . S
C101 C102 1.332 . S
C102 H82 0.931 . S
C102 C101 1.332 . S
C102 C103 1.267 . S
C103 H71 0.929 . S
C103 C102 1.267 . S
C103 C104 1.251 . S
C104 H74 0.929 . S
C104 N100 1.418 . S
C104 C103 1.251 . S
C105 H72 0.930 . S
C105 C107 1.406 . S
C105 C110 1.261 . S
C106 H73 0.930 . S
C106 N108 1.325 . S
C106 C109 1.357 . S
C107 H75 0.928 . S
C107 C105 1.406 . S
C107 N108 1.261 . S
N108 Co59 2.214 . S
N108 C106 1.325 . S
N108 C107 1.261 . S
C109 H79 0.931 . S
C109 C106 1.357 . S
C109 C110 1.312 . S
C110 H81 0.930 . S
C110 C105 1.261 . S
C110 C109 1.312 . S
C111 O83 1.214 . S
C111 O91 1.234 1_554 S
C112 H84 0.929 . S
C112 C115 1.391 . S
C112 C117 1.391 . S
C113 H85 0.929 . S
C113 C114 1.390 . S
C113 N116 1.391 . S
C114 H86 0.930 . S
C114 C113 1.390 . S
C114 C115 1.392 . S
C115 H87 0.929 . S
C115 C112 1.391 . S
C115 C114 1.392 . S
N116 Co60 2.257 . S
N116 C113 1.391 . S
N116 C117 1.388 . S
C117 H88 0.930 . S
C117 C112 1.391 . S
C117 N116 1.388 . S
Co118 O120 2.143 . S
Co118 O126 2.074 . S
Co118 O129 2.093 . S
Co118 O142 2.097 . S
Co118 N159 2.151 . S
Co118 N167 2.214 . S
Co119 O120 2.160 1_556 S
Co119 O125 2.058 . S
Co119 O135 2.057 . S
Co119 O150 2.037 . S
Co119 N154 2.145 . S
Co119 N175 2.257 . S
O120 Co118 2.143 . S
O120 Co119 2.160 1_554 S
C121 O122 1.278 . S
C121 O129 1.224 . S
O122 C121 1.278 . S
C123 O124 1.245 . S
C123 O135 1.232 . S
O124 C123 1.245 . S
O125 Co119 2.058 . S
O125 C151 1.269 . S
O126 Co118 2.074 . S
O126 C151 1.257 1_554 S
H127 C152 0.930 . S
H128 C158 0.930 . S
O129 Co118 2.093 . S
O129 C121 1.224 . S
H130 C162 0.929 . S
H131 C164 0.930 . S
H132 C165 0.930 . S
H133 C163 0.929 . S
H134 C166 0.928 . S
O135 Co119 2.057 . S
O135 C123 1.232 . S
H136 C155 0.929 . S
H137 C156 0.929 . S
H138 C168 0.931 . S
H139 C160 0.929 . S
H140 C169 0.930 . S
H141 C161 0.931 . S
O142 Co118 2.097 . S
O142 C170 1.214 . S
H143 C171 0.929 . S
H144 C172 0.929 . S
H145 C173 0.930 . S
H146 C174 0.929 . S
H147 C176 0.930 . S
H148 C153 0.930 . S
H149 C157 0.930 . S
O150 Co119 2.037 . S
O150 C170 1.234 1_556 S
C151 O125 1.269 . S
C151 O126 1.257 1_556 S
C152 H127 0.930 . S
C152 C155 1.388 . S
C152 C157 1.418 . S
C153 H148 0.930 . S
C153 C156 1.404 . S
C153 C157 1.353 . S
N154 Co119 2.145 . S
N154 C155 1.397 . S
N154 C156 1.334 . S
C155 H136 0.929 . S
C155 C152 1.388 . S
C155 N154 1.397 . S
C156 H137 0.929 . S
C156 C153 1.404 . S
C156 N154 1.334 . S
C157 H149 0.930 . S
C157 C152 1.418 . S
C157 C153 1.353 . S
C158 H128 0.930 . S
C158 N159 1.330 . S
C158 C160 1.446 . S
N159 Co118 2.151 . S
N159 C158 1.330 . S
N159 C163 1.418 . S
C160 H139 0.929 . S
C160 C158 1.446 . S
C160 C161 1.332 . S
C161 H141 0.931 . S
C161 C160 1.332 . S
C161 C162 1.267 . S
C162 H130 0.929 . S
C162 C161 1.267 . S
C162 C163 1.251 . S
C163 H133 0.929 . S
C163 N159 1.418 . S
C163 C162 1.251 . S
C164 H131 0.930 . S
C164 C166 1.406 . S
C164 C169 1.261 . S
C165 H132 0.930 . S
C165 N167 1.325 . S
C165 C168 1.357 . S
C166 H134 0.928 . S
C166 C164 1.406 . S
C166 N167 1.261 . S
N167 Co118 2.214 . S
N167 C165 1.325 . S
N167 C166 1.261 . S
C168 H138 0.931 . S
C168 C165 1.357 . S
C168 C169 1.312 . S
C169 H140 0.930 . S
C169 C164 1.261 . S
C169 C168 1.312 . S
C170 O142 1.214 . S
C170 O150 1.234 1_554 S
C171 H143 0.929 . S
C171 C174 1.391 . S
C171 C176 1.391 . S
C172 H144 0.929 . S
C172 C173 1.390 . S
C172 N175 1.391 . S
C173 H145 0.930 . S
C173 C172 1.390 . S
C173 C174 1.392 . S
C174 H146 0.929 . S
C174 C171 1.391 . S
C174 C173 1.392 . S
N175 Co119 2.257 . S
N175 C172 1.391 . S
N175 C176 1.388 . S
C176 H147 0.930 . S
C176 C171 1.391 . S
C176 N175 1.388 . S
Co177 O179 2.143 1_556 S
Co177 O185 2.074 . S
Co177 O188 2.093 . S
Co177 O201 2.097 . S
Co177 N218 2.151 . S
Co177 N226 2.214 . S
Co178 O179 2.160 . S
Co178 O184 2.058 . S
Co178 O194 2.057 . S
Co178 O209 2.037 . S
Co178 N213 2.145 . S
Co178 N234 2.257 . S
O179 Co177 2.143 1_554 S
O179 Co178 2.160 . S
C180 O181 1.278 . S
C180 O188 1.224 . S
O181 C180 1.278 . S
C182 O183 1.245 . S
C182 O194 1.232 . S
O183 C182 1.245 . S
O184 Co178 2.058 . S
O184 C210 1.269 . S
O185 Co177 2.074 . S
O185 C210 1.257 1_556 S
H186 C211 0.930 . S
H187 C217 0.930 . S
O188 Co177 2.093 . S
O188 C180 1.224 . S
H189 C221 0.929 . S
H190 C223 0.930 . S
H191 C224 0.930 . S
H192 C222 0.929 . S
H193 C225 0.928 . S
O194 Co178 2.057 . S
O194 C182 1.232 . S
H195 C214 0.929 . S
H196 C215 0.929 . S
H197 C227 0.931 . S
H198 C219 0.929 . S
H199 C228 0.930 . S
H200 C220 0.931 . S
O201 Co177 2.097 . S
O201 C229 1.214 . S
H202 C230 0.929 . S
H203 C231 0.929 . S
H204 C232 0.930 . S
H205 C233 0.929 . S
H206 C235 0.930 . S
H207 C212 0.930 . S
H208 C216 0.930 . S
O209 Co178 2.037 . S
O209 C229 1.234 1_554 S
C210 O184 1.269 . S
C210 O185 1.257 1_554 S
C211 H186 0.930 . S
C211 C214 1.388 . S
C211 C216 1.418 . S
C212 H207 0.930 . S
C212 C215 1.404 . S
C212 C216 1.353 . S
N213 Co178 2.145 . S
N213 C214 1.397 . S
N213 C215 1.334 . S
C214 H195 0.929 . S
C214 C211 1.388 . S
C214 N213 1.397 . S
C215 H196 0.929 . S
C215 C212 1.404 . S
C215 N213 1.334 . S
C216 H208 0.930 . S
C216 C211 1.418 . S
C216 C212 1.353 . S
C217 H187 0.930 . S
C217 N218 1.330 . S
C217 C219 1.446 . S
N218 Co177 2.151 . S
N218 C217 1.330 . S
N218 C222 1.418 . S
C219 H198 0.929 . S
C219 C217 1.446 . S
C219 C220 1.332 . S
C220 H200 0.931 . S
C220 C219 1.332 . S
C220 C221 1.267 . S
C221 H189 0.929 . S
C221 C220 1.267 . S
C221 C222 1.251 . S
C222 H192 0.929 . S
C222 N218 1.418 . S
C222 C221 1.251 . S
C223 H190 0.930 . S
C223 C225 1.406 . S
C223 C228 1.261 . S
C224 H191 0.930 . S
C224 N226 1.325 . S
C224 C227 1.357 . S
C225 H193 0.928 . S
C225 C223 1.406 . S
C225 N226 1.261 . S
N226 Co177 2.214 . S
N226 C224 1.325 . S
N226 C225 1.261 . S
C227 H197 0.931 . S
C227 C224 1.357 . S
C227 C228 1.312 . S
C228 H199 0.930 . S
C228 C223 1.261 . S
C228 C227 1.312 . S
C229 O201 1.214 . S
C229 O209 1.234 1_556 S
C230 H202 0.929 . S
C230 C233 1.391 . S
C230 C235 1.391 . S
C231 H203 0.929 . S
C231 C232 1.390 . S
C231 N234 1.391 . S
C232 H204 0.930 . S
C232 C231 1.390 . S
C232 C233 1.392 . S
C233 H205 0.929 . S
C233 C230 1.391 . S
C233 C232 1.392 . S
N234 Co178 2.257 . S
N234 C231 1.391 . S
N234 C235 1.388 . S
C235 H206 0.930 . S
C235 C230 1.391 . S
C235 N234 1.388 . S
Co236 O238 2.143 . S
Co236 O244 2.074 . S
Co236 O247 2.093 . S
Co236 O260 2.097 . S
Co236 N277 2.151 . S
Co236 N285 2.214 . S
Co237 O238 2.160 . S
Co237 O243 2.058 . S
Co237 O253 2.057 . S
Co237 O268 2.037 . S
Co237 N272 2.145 . S
Co237 N293 2.257 . S
O238 Co236 2.143 . S
O238 Co237 2.160 . S
C239 O240 1.278 . S
C239 O247 1.224 . S
O240 C239 1.278 . S
C241 O242 1.245 . S
C241 O253 1.232 . S
O242 C241 1.245 . S
O243 Co237 2.058 . S
O243 C269 1.269 . S
O244 Co236 2.074 . S
O244 C269 1.257 . S
H245 C270 0.930 . S
H246 C276 0.930 . S
O247 Co236 2.093 . S
O247 C239 1.224 . S
H248 C280 0.929 . S
H249 C282 0.930 . S
H250 C283 0.930 . S
H251 C281 0.929 . S
H252 C284 0.928 . S
O253 Co237 2.057 . S
O253 C241 1.232 . S
H254 C273 0.929 . S
H255 C274 0.929 . S
H256 C286 0.931 . S
H257 C278 0.929 . S
H258 C287 0.930 . S
H259 C279 0.931 . S
O260 Co236 2.097 . S
O260 C288 1.214 . S
H261 C289 0.929 . S
H262 C290 0.929 . S
H263 C291 0.930 . S
H264 C292 0.929 . S
H265 C294 0.930 . S
H266 C271 0.930 . S
H267 C275 0.930 . S
O268 Co237 2.037 . S
O268 C288 1.234 . S
C269 O243 1.269 . S
C269 O244 1.257 . S
C270 H245 0.930 . S
C270 C273 1.388 . S
C270 C275 1.418 . S
C271 H266 0.930 . S
C271 C274 1.404 . S
C271 C275 1.353 . S
N272 Co237 2.145 . S
N272 C273 1.397 . S
N272 C274 1.334 . S
C273 H254 0.929 . S
C273 C270 1.388 . S
C273 N272 1.397 . S
C274 H255 0.929 . S
C274 C271 1.404 . S
C274 N272 1.334 . S
C275 H267 0.930 . S
C275 C270 1.418 . S
C275 C271 1.353 . S
C276 H246 0.930 . S
C276 N277 1.330 . S
C276 C278 1.446 . S
N277 Co236 2.151 . S
N277 C276 1.330 . S
N277 C281 1.418 . S
C278 H257 0.929 . S
C278 C276 1.446 . S
C278 C279 1.332 . S
C279 H259 0.931 . S
C279 C278 1.332 . S
C279 C280 1.267 . S
C280 H248 0.929 . S
C280 C279 1.267 . S
C280 C281 1.251 . S
C281 H251 0.929 . S
C281 N277 1.418 . S
C281 C280 1.251 . S
C282 H249 0.930 . S
C282 C284 1.406 . S
C282 C287 1.261 . S
C283 H250 0.930 . S
C283 N285 1.325 . S
C283 C286 1.357 . S
C284 H252 0.928 . S
C284 C282 1.406 . S
C284 N285 1.261 . S
N285 Co236 2.214 . S
N285 C283 1.325 . S
N285 C284 1.261 . S
C286 H256 0.931 . S
C286 C283 1.357 . S
C286 C287 1.312 . S
C287 H258 0.930 . S
C287 C282 1.261 . S
C287 C286 1.312 . S
C288 O260 1.214 . S
C288 O268 1.234 . S
C289 H261 0.929 . S
C289 C292 1.391 . S
C289 C294 1.391 . S
C290 H262 0.929 . S
C290 C291 1.390 . S
C290 N293 1.391 . S
C291 H263 0.930 . S
C291 C290 1.390 . S
C291 C292 1.392 . S
C292 H264 0.929 . S
C292 C289 1.391 . S
C292 C291 1.392 . S
N293 Co237 2.257 . S
N293 C290 1.391 . S
N293 C294 1.388 . S
C294 H265 0.930 . S
C294 C289 1.391 . S
C294 N293 1.388 . S
Co295 O297 2.143 . S
Co295 O303 2.074 . S
Co295 O306 2.093 . S
Co295 O319 2.097 . S
Co295 N336 2.151 . S
Co295 N344 2.214 . S
Co296 O297 2.160 . S
Co296 O302 2.058 . S
Co296 O312 2.057 . S
Co296 O327 2.037 . S
Co296 N331 2.145 . S
Co296 N352 2.257 . S
O297 Co295 2.143 . S
O297 Co296 2.160 . S
C298 O299 1.278 . S
C298 O306 1.224 . S
O299 C298 1.278 . S
C300 O301 1.245 . S
C300 O312 1.232 . S
O301 C300 1.245 . S
O302 Co296 2.058 . S
O302 C328 1.269 . S
O303 Co295 2.074 . S
O303 C328 1.257 . S
H304 C329 0.930 . S
H305 C335 0.930 . S
O306 Co295 2.093 . S
O306 C298 1.224 . S
H307 C339 0.929 . S
H308 C341 0.930 . S
H309 C342 0.930 . S
H310 C340 0.929 . S
H311 C343 0.928 . S
O312 Co296 2.057 . S
O312 C300 1.232 . S
H313 C332 0.929 . S
H314 C333 0.929 . S
H315 C345 0.931 . S
H316 C337 0.929 . S
H317 C346 0.930 . S
H318 C338 0.931 . S
O319 Co295 2.097 . S
O319 C347 1.214 . S
H320 C348 0.929 . S
H321 C349 0.929 . S
H322 C350 0.930 . S
H323 C351 0.929 . S
H324 C353 0.930 . S
H325 C330 0.930 . S
H326 C334 0.930 . S
O327 Co296 2.037 . S
O327 C347 1.234 . S
C328 O302 1.269 . S
C328 O303 1.257 . S
C329 H304 0.930 . S
C329 C332 1.388 . S
C329 C334 1.418 . S
C330 H325 0.930 . S
C330 C333 1.404 . S
C330 C334 1.353 . S
N331 Co296 2.145 . S
N331 C332 1.397 . S
N331 C333 1.334 . S
C332 H313 0.929 . S
C332 C329 1.388 . S
C332 N331 1.397 . S
C333 H314 0.929 . S
C333 C330 1.404 . S
C333 N331 1.334 . S
C334 H326 0.930 . S
C334 C329 1.418 . S
C334 C330 1.353 . S
C335 H305 0.930 . S
C335 N336 1.330 . S
C335 C337 1.446 . S
N336 Co295 2.151 . S
N336 C335 1.330 . S
N336 C340 1.418 . S
C337 H316 0.929 . S
C337 C335 1.446 . S
C337 C338 1.332 . S
C338 H318 0.931 . S
C338 C337 1.332 . S
C338 C339 1.267 . S
C339 H307 0.929 . S
C339 C338 1.267 . S
C339 C340 1.251 . S
C340 H310 0.929 . S
C340 N336 1.418 . S
C340 C339 1.251 . S
C341 H308 0.930 . S
C341 C343 1.406 . S
C341 C346 1.261 . S
C342 H309 0.930 . S
C342 N344 1.325 . S
C342 C345 1.357 . S
C343 H311 0.928 . S
C343 C341 1.406 . S
C343 N344 1.261 . S
N344 Co295 2.214 . S
N344 C342 1.325 . S
N344 C343 1.261 . S
C345 H315 0.931 . S
C345 C342 1.357 . S
C345 C346 1.312 . S
C346 H317 0.930 . S
C346 C341 1.261 . S
C346 C345 1.312 . S
C347 O319 1.214 . S
C347 O327 1.234 . S
C348 H320 0.929 . S
C348 C351 1.391 . S
C348 C353 1.391 . S
C349 H321 0.929 . S
C349 C350 1.390 . S
C349 N352 1.391 . S
C350 H322 0.930 . S
C350 C349 1.390 . S
C350 C351 1.392 . S
C351 H323 0.929 . S
C351 C348 1.391 . S
C351 C350 1.392 . S
N352 Co296 2.257 . S
N352 C349 1.391 . S
N352 C353 1.388 . S
C353 H324 0.930 . S
C353 C348 1.391 . S
C353 N352 1.388 . S
Co354 O356 2.143 . S
Co354 O362 2.074 . S
Co354 O365 2.093 . S
Co354 O378 2.097 . S
Co354 N395 2.151 . S
Co354 N403 2.214 . S
Co355 O356 2.160 . S
Co355 O361 2.058 . S
Co355 O371 2.057 . S
Co355 O386 2.037 . S
Co355 N390 2.145 . S
Co355 N411 2.257 . S
O356 Co354 2.143 . S
O356 Co355 2.160 . S
C357 O358 1.278 . S
C357 O365 1.224 . S
O358 C357 1.278 . S
C359 O360 1.245 . S
C359 O371 1.232 . S
O360 C359 1.245 . S
O361 Co355 2.058 . S
O361 C387 1.269 . S
O362 Co354 2.074 . S
O362 C387 1.257 . S
H363 C388 0.930 . S
H364 C394 0.930 . S
O365 Co354 2.093 . S
O365 C357 1.224 . S
H366 C398 0.929 . S
H367 C400 0.930 . S
H368 C401 0.930 . S
H369 C399 0.929 . S
H370 C402 0.928 . S
O371 Co355 2.057 . S
O371 C359 1.232 . S
H372 C391 0.929 . S
H373 C392 0.929 . S
H374 C404 0.931 . S
H375 C396 0.929 . S
H376 C405 0.930 . S
H377 C397 0.931 . S
O378 Co354 2.097 . S
O378 C406 1.214 . S
H379 C407 0.929 . S
H380 C408 0.929 . S
H381 C409 0.930 . S
H382 C410 0.929 . S
H383 C412 0.930 . S
H384 C389 0.930 . S
H385 C393 0.930 . S
O386 Co355 2.037 . S
O386 C406 1.234 . S
C387 O361 1.269 . S
C387 O362 1.257 . S
C388 H363 0.930 . S
C388 C391 1.388 . S
C388 C393 1.418 . S
C389 H384 0.930 . S
C389 C392 1.404 . S
C389 C393 1.353 . S
N390 Co355 2.145 . S
N390 C391 1.397 . S
N390 C392 1.334 . S
C391 H372 0.929 . S
C391 C388 1.388 . S
C391 N390 1.397 . S
C392 H373 0.929 . S
C392 C389 1.404 . S
C392 N390 1.334 . S
C393 H385 0.930 . S
C393 C388 1.418 . S
C393 C389 1.353 . S
C394 H364 0.930 . S
C394 N395 1.330 . S
C394 C396 1.446 . S
N395 Co354 2.151 . S
N395 C394 1.330 . S
N395 C399 1.418 . S
C396 H375 0.929 . S
C396 C394 1.446 . S
C396 C397 1.332 . S
C397 H377 0.931 . S
C397 C396 1.332 . S
C397 C398 1.267 . S
C398 H366 0.929 . S
C398 C397 1.267 . S
C398 C399 1.251 . S
C399 H369 0.929 . S
C399 N395 1.418 . S
C399 C398 1.251 . S
C400 H367 0.930 . S
C400 C402 1.406 . S
C400 C405 1.261 . S
C401 H368 0.930 . S
C401 N403 1.325 . S
C401 C404 1.357 . S
C402 H370 0.928 . S
C402 C400 1.406 . S
C402 N403 1.261 . S
N403 Co354 2.214 . S
N403 C401 1.325 . S
N403 C402 1.261 . S
C404 H374 0.931 . S
C404 C401 1.357 . S
C404 C405 1.312 . S
C405 H376 0.930 . S
C405 C400 1.261 . S
C405 C404 1.312 . S
C406 O378 1.214 . S
C406 O386 1.234 . S
C407 H379 0.929 . S
C407 C410 1.391 . S
C407 C412 1.391 . S
C408 H380 0.929 . S
C408 C409 1.390 . S
C408 N411 1.391 . S
C409 H381 0.930 . S
C409 C408 1.390 . S
C409 C410 1.392 . S
C410 H382 0.929 . S
C410 C407 1.391 . S
C410 C409 1.392 . S
N411 Co355 2.257 . S
N411 C408 1.391 . S
N411 C412 1.388 . S
C412 H383 0.930 . S
C412 C407 1.391 . S
C412 N411 1.388 . S
Co413 O415 2.143 . S
Co413 O421 2.074 . S
Co413 O424 2.093 . S
Co413 O437 2.097 . S
Co413 N454 2.151 . S
Co413 N462 2.214 . S
Co414 O415 2.160 . S
Co414 O420 2.058 . S
Co414 O430 2.057 . S
Co414 O445 2.037 . S
Co414 N449 2.145 . S
Co414 N470 2.257 . S
O415 Co413 2.143 . S
O415 Co414 2.160 . S
C416 O417 1.278 . S
C416 O424 1.224 . S
O417 C416 1.278 . S
C418 O419 1.245 . S
C418 O430 1.232 . S
O419 C418 1.245 . S
O420 Co414 2.058 . S
O420 C446 1.269 . S
O421 Co413 2.074 . S
O421 C446 1.257 . S
H422 C447 0.930 . S
H423 C453 0.930 . S
O424 Co413 2.093 . S
O424 C416 1.224 . S
H425 C457 0.929 . S
H426 C459 0.930 . S
H427 C460 0.930 . S
H428 C458 0.929 . S
H429 C461 0.928 . S
O430 Co414 2.057 . S
O430 C418 1.232 . S
H431 C450 0.929 . S
H432 C451 0.929 . S
H433 C463 0.931 . S
H434 C455 0.929 . S
H435 C464 0.930 . S
H436 C456 0.931 . S
O437 Co413 2.097 . S
O437 C465 1.214 . S
H438 C466 0.929 . S
H439 C467 0.929 . S
H440 C468 0.930 . S
H441 C469 0.929 . S
H442 C471 0.930 . S
H443 C448 0.930 . S
H444 C452 0.930 . S
O445 Co414 2.037 . S
O445 C465 1.234 . S
C446 O420 1.269 . S
C446 O421 1.257 . S
C447 H422 0.930 . S
C447 C450 1.388 . S
C447 C452 1.418 . S
C448 H443 0.930 . S
C448 C451 1.404 . S
C448 C452 1.353 . S
N449 Co414 2.145 . S
N449 C450 1.397 . S
N449 C451 1.334 . S
C450 H431 0.929 . S
C450 C447 1.388 . S
C450 N449 1.397 . S
C451 H432 0.929 . S
C451 C448 1.404 . S
C451 N449 1.334 . S
C452 H444 0.930 . S
C452 C447 1.418 . S
C452 C448 1.353 . S
C453 H423 0.930 . S
C453 N454 1.330 . S
C453 C455 1.446 . S
N454 Co413 2.151 . S
N454 C453 1.330 . S
N454 C458 1.418 . S
C455 H434 0.929 . S
C455 C453 1.446 . S
C455 C456 1.332 . S
C456 H436 0.931 . S
C456 C455 1.332 . S
C456 C457 1.267 . S
C457 H425 0.929 . S
C457 C456 1.267 . S
C457 C458 1.251 . S
C458 H428 0.929 . S
C458 N454 1.418 . S
C458 C457 1.251 . S
C459 H426 0.930 . S
C459 C461 1.406 . S
C459 C464 1.261 . S
C460 H427 0.930 . S
C460 N462 1.325 . S
C460 C463 1.357 . S
C461 H429 0.928 . S
C461 C459 1.406 . S
C461 N462 1.261 . S
N462 Co413 2.214 . S
N462 C460 1.325 . S
N462 C461 1.261 . S
C463 H433 0.931 . S
C463 C460 1.357 . S
C463 C464 1.312 . S
C464 H435 0.930 . S
C464 C459 1.261 . S
C464 C463 1.312 . S
C465 O437 1.214 . S
C465 O445 1.234 . S
C466 H438 0.929 . S
C466 C469 1.391 . S
C466 C471 1.391 . S
C467 H439 0.929 . S
C467 C468 1.390 . S
C467 N470 1.391 . S
C468 H440 0.930 . S
C468 C467 1.390 . S
C468 C469 1.392 . S
C469 H441 0.929 . S
C469 C466 1.391 . S
C469 C468 1.392 . S
N470 Co414 2.257 . S
N470 C467 1.391 . S
N470 C471 1.388 . S
C471 H442 0.930 . S
C471 C466 1.391 . S
C471 N470 1.388 . S
C472 C473 1.369 . S
C472 C474 1.419 . S
C472 H476 0.930 . S
C473 C472 1.369 . S
C473 C482 1.429 1_556 S
C474 C472 1.419 . S
C474 C475 1.363 1_556 S
C474 H477 0.929 . S
C475 C474 1.363 1_554 S
C475 C481 1.428 . S
H476 C472 0.930 . S
H477 C474 0.929 . S
S478 N479 1.613 . S
S478 N480 1.610 . S
N479 S478 1.613 . S
N479 C482 1.350 . S
N480 S478 1.610 . S
N480 C481 1.351 . S
C481 C475 1.428 . S
C481 N480 1.351 . S
C481 C482 1.434 . S
C482 C473 1.429 1_554 S
C482 N479 1.350 . S
C482 C481 1.434 . S
C483 C484 1.369 . S
C483 C485 1.419 . S
C483 H487 0.930 . S
C484 C483 1.369 . S
C484 C493 1.429 1_554 S
C485 C483 1.419 . S
C485 C486 1.363 1_554 S
C485 H488 0.929 . S
C486 C485 1.363 1_556 S
C486 C492 1.428 . S
H487 C483 0.930 . S
H488 C485 0.929 . S
S489 N490 1.613 . S
S489 N491 1.610 . S
N490 S489 1.613 . S
N490 C493 1.350 . S
N491 S489 1.610 . S
N491 C492 1.351 . S
C492 C486 1.428 . S
C492 N491 1.351 . S
C492 C493 1.434 . S
C493 C484 1.429 1_556 S
C493 N490 1.350 . S
C493 C492 1.434 . S
C494 C495 1.369 1_556 S
C494 C496 1.419 . S
C494 H498 0.930 . S
C495 C494 1.369 1_554 S
C495 C504 1.429 . S
C496 C494 1.419 . S
C496 C497 1.363 . S
C496 H499 0.929 . S
C497 C496 1.363 . S
C497 C503 1.428 1_556 S
H498 C494 0.930 . S
H499 C496 0.929 . S
S500 N501 1.613 . S
S500 N502 1.610 . S
N501 S500 1.613 . S
N501 C504 1.350 . S
N502 S500 1.610 . S
N502 C503 1.351 . S
C503 C497 1.428 1_554 S
C503 N502 1.351 . S
C503 C504 1.434 . S
C504 C495 1.429 . S
C504 N501 1.350 . S
C504 C503 1.434 . S
C505 C506 1.369 1_554 S
C505 C507 1.419 . S
C505 H509 0.930 . S
C506 C505 1.369 1_556 S
C506 C515 1.429 . S
C507 C505 1.419 . S
C507 C508 1.363 . S
C507 H510 0.929 . S
C508 C507 1.363 . S
C508 C514 1.428 1_554 S
H509 C505 0.930 . S
H510 C507 0.929 . S
S511 N512 1.613 . S
S511 N513 1.610 . S
N512 S511 1.613 . S
N512 C515 1.350 . S
N513 S511 1.610 . S
N513 C514 1.351 . S
C514 C508 1.428 1_556 S
C514 N513 1.351 . S
C514 C515 1.434 . S
C515 C506 1.429 . S
C515 N512 1.350 . S
C515 C514 1.434 . S
C516 C517 1.369 . S
C516 C518 1.419 1_565 S
C516 H520 0.930 . S
C517 C516 1.369 . S
C517 C526 1.429 . S
C518 C516 1.419 1_545 S
C518 C519 1.363 . S
C518 H521 0.929 . S
C519 C518 1.363 . S
C519 C525 1.428 . S
H520 C516 0.930 . S
H521 C518 0.929 . S
S522 N523 1.613 . S
S522 N524 1.610 1_565 S
N523 S522 1.613 . S
N523 C526 1.350 . S
N524 S522 1.610 1_545 S
N524 C525 1.351 . S
C525 C519 1.428 . S
C525 N524 1.351 . S
C525 C526 1.434 1_545 S
C526 C517 1.429 . S
C526 N523 1.350 . S
C526 C525 1.434 1_565 S
C527 C528 1.369 . S
C527 C529 1.419 1_455 S
C527 H531 0.930 . S
C528 C527 1.369 . S
C528 C537 1.429 . S
C529 C527 1.419 1_655 S
C529 C530 1.363 . S
C529 H532 0.929 . S
C530 C529 1.363 . S
C530 C536 1.428 . S
H531 C527 0.930 . S
H532 C529 0.929 . S
S533 N534 1.613 1_655 S
S533 N535 1.610 . S
N534 S533 1.613 1_455 S
N534 C537 1.350 . S
N535 S533 1.610 . S
N535 C536 1.351 . S
C536 C530 1.428 . S
C536 N535 1.351 . S
C536 C537 1.434 1_655 S
C537 C528 1.429 . S
C537 N534 1.350 . S
C537 C536 1.434 1_455 S
C538 C539 1.369 . S
C538 C540 1.419 1_545 S
C538 H542 0.930 . S
C539 C538 1.369 . S
C539 C548 1.429 . S
C540 C538 1.419 1_565 S
C540 C541 1.363 . S
C540 H543 0.929 . S
C541 C540 1.363 . S
C541 C547 1.428 . S
H542 C538 0.930 . S
H543 C540 0.929 . S
S544 N545 1.613 1_565 S
S544 N546 1.610 . S
N545 S544 1.613 1_545 S
N545 C548 1.350 . S
N546 S544 1.610 . S
N546 C547 1.351 . S
C547 C541 1.428 . S
C547 N546 1.351 . S
C547 C548 1.434 1_565 S
C548 C539 1.429 . S
C548 N545 1.350 . S
C548 C547 1.434 1_545 S
C549 C550 1.369 . S
C549 C551 1.419 1_655 S
C549 H553 0.930 . S
C550 C549 1.369 . S
C550 C559 1.429 . S
C551 C549 1.419 1_455 S
C551 C552 1.363 . S
C551 H554 0.929 . S
C552 C551 1.363 . S
C552 C558 1.428 . S
H553 C549 0.930 . S
H554 C551 0.929 . S
S555 N556 1.613 1_455 S
S555 N557 1.610 . S
N556 S555 1.613 1_655 S
N556 C559 1.350 . S
N557 S555 1.610 . S
N557 C558 1.351 . S
C558 C552 1.428 . S
C558 N557 1.351 . S
C558 C559 1.434 1_455 S
C559 C550 1.429 . S
C559 N556 1.350 . S
C559 C558 1.434 1_655 S
C560 C561 1.369 . S
C560 C562 1.419 . S
C560 H564 0.930 . S
C561 C560 1.369 . S
C561 C570 1.429 . S
C562 C560 1.419 . S
C562 C563 1.363 . S
C562 H565 0.929 . S
C563 C562 1.363 . S
C563 C569 1.428 . S
H564 C560 0.930 . S
H565 C562 0.929 . S
S566 N567 1.613 . S
S566 N568 1.610 . S
N567 S566 1.613 . S
N567 C570 1.350 . S
N568 S566 1.610 . S
N568 C569 1.351 . S
C569 C563 1.428 . S
C569 N568 1.351 . S
C569 C570 1.434 . S
C570 C561 1.429 . S
C570 N567 1.350 . S
C570 C569 1.434 . S
C571 C572 1.369 . S
C571 C573 1.419 . S
C571 H575 0.930 . S
C572 C571 1.369 . S
C572 C581 1.429 . S
C573 C571 1.419 . S
C573 C574 1.363 . S
C573 H576 0.929 . S
C574 C573 1.363 . S
C574 C580 1.428 . S
H575 C571 0.930 . S
H576 C573 0.929 . S
S577 N578 1.613 . S
S577 N579 1.610 . S
N578 S577 1.613 . S
N578 C581 1.350 . S
N579 S577 1.610 . S
N579 C580 1.351 . S
C580 C574 1.428 . S
C580 N579 1.351 . S
C580 C581 1.434 . S
C581 C572 1.429 . S
C581 N578 1.350 . S
C581 C580 1.434 . S
C582 C583 1.369 . S
C582 C584 1.419 . S
C582 H586 0.930 . S
C583 C582 1.369 . S
C583 C592 1.429 . S
C584 C582 1.419 . S
C584 C585 1.363 . S
C584 H587 0.929 . S
C585 C584 1.363 . S
C585 C591 1.428 . S
H586 C582 0.930 . S
H587 C584 0.929 . S
S588 N589 1.613 . S
S588 N590 1.610 . S
N589 S588 1.613 . S
N589 C592 1.350 . S
N590 S588 1.610 . S
N590 C591 1.351 . S
C591 C585 1.428 . S
C591 N590 1.351 . S
C591 C592 1.434 . S
C592 C583 1.429 . S
C592 N589 1.350 . S
C592 C591 1.434 . S
C593 C594 1.369 . S
C593 C595 1.419 . S
C593 H597 0.930 . S
C594 C593 1.369 . S
C594 C603 1.429 . S
C595 C593 1.419 . S
C595 C596 1.363 . S
C595 H598 0.929 . S
C596 C595 1.363 . S
C596 C602 1.428 . S
H597 C593 0.930 . S
H598 C595 0.929 . S
S599 N600 1.613 . S
S599 N601 1.610 . S
N600 S599 1.613 . S
N600 C603 1.350 . S
N601 S599 1.610 . S
N601 C602 1.351 . S
C602 C596 1.428 . S
C602 N601 1.351 . S
C602 C603 1.434 . S
C603 C594 1.429 . S
C603 N600 1.350 . S
C603 C602 1.434 . S
C604 C605 1.369 . S
C604 C606 1.419 . S
C604 H608 0.930 . S
C605 C604 1.369 . S
C605 C614 1.429 . S
C606 C604 1.419 . S
C606 C607 1.363 . S
C606 H609 0.929 . S
C607 C606 1.363 . S
C607 C613 1.428 . S
H608 C604 0.930 . S
H609 C606 0.929 . S
S610 N611 1.613 . S
S610 N612 1.610 . S
N611 S610 1.613 . S
N611 C614 1.350 . S
N612 S610 1.610 . S
N612 C613 1.351 . S
C613 C607 1.428 . S
C613 N612 1.351 . S
C613 C614 1.434 . S
C614 C605 1.429 . S
C614 N611 1.350 . S
C614 C613 1.434 . S
C615 C616 1.369 . S
C615 C617 1.419 . S
C615 H619 0.930 . S
C616 C615 1.369 . S
C616 C625 1.429 . S
C617 C615 1.419 . S
C617 C618 1.363 . S
C617 H620 0.929 . S
C618 C617 1.363 . S
C618 C624 1.428 . S
H619 C615 0.930 . S
H620 C617 0.929 . S
S621 N622 1.613 . S
S621 N623 1.610 . S
N622 S621 1.613 . S
N622 C625 1.350 . S
N623 S621 1.610 . S
N623 C624 1.351 . S
C624 C618 1.428 . S
C624 N623 1.351 . S
C624 C625 1.434 . S
C625 C616 1.429 . S
C625 N622 1.350 . S
C625 C624 1.434 . S
C626 C627 1.369 . S
C626 C628 1.419 . S
C626 H630 0.930 . S
C627 C626 1.369 . S
C627 C636 1.429 . S
C628 C626 1.419 . S
C628 C629 1.363 . S
C628 H631 0.929 . S
C629 C628 1.363 . S
C629 C635 1.428 . S
H630 C626 0.930 . S
H631 C628 0.929 . S
S632 N633 1.613 . S
S632 N634 1.610 . S
N633 S632 1.613 . S
N633 C636 1.350 . S
N634 S632 1.610 . S
N634 C635 1.351 . S
C635 C629 1.428 . S
C635 N634 1.351 . S
C635 C636 1.434 . S
C636 C627 1.429 . S
C636 N633 1.350 . S
C636 C635 1.434 . S
C637 C638 1.369 . S
C637 C639 1.419 . S
C637 H641 0.930 . S
C638 C637 1.369 . S
C638 C647 1.429 . S
C639 C637 1.419 . S
C639 C640 1.363 . S
C639 H642 0.929 . S
C640 C639 1.363 . S
C640 C646 1.428 . S
H641 C637 0.930 . S
H642 C639 0.929 . S
S643 N644 1.613 . S
S643 N645 1.610 . S
N644 S643 1.613 . S
N644 C647 1.350 . S
N645 S643 1.610 . S
N645 C646 1.351 . S
C646 C640 1.428 . S
C646 N645 1.351 . S
C646 C647 1.434 . S
C647 C638 1.429 . S
C647 N644 1.350 . S
C647 C646 1.434 . S
C473 C52 1.699 . S
C475 C210 1.707 . S
C484 C33 1.701 . S
C486 C92 1.706 . S
C495 C111 1.706 . S
C497 C151 1.701 . S
C506 C229 1.704 . S
C508 C170 1.701 . S
C517 C288 1.698 . S
C519 C465 1.705 . S
C528 C347 1.706 . S
C530 C269 1.701 . S
C539 C387 1.703 . S
C541 C328 1.705 . S
C550 C446 1.706 . S
C552 C406 1.701 . S
C561 C359 1.610 . S
C563 C5 1.611 . S
C572 C62 1.605 . S
C574 C418 1.610 . S
C583 C239 1.604 . S
C585 C121 1.603 . S
C594 C298 1.604 . S
C596 C182 1.610 . S
C605 C300 1.611 . S
C607 C180 1.603 . S
C616 C3 1.605 . S
C618 C357 1.602 . S
C627 C64 1.609 . S
C629 C416 1.602 . S
C638 C123 1.608 . S
C640 C241 1.608 . S
