# Generated by pormake.
# Topology fno, (5)-cn, num edge types: 1
# Building blocks:
#     Node 0, Type 0, BuildingBlock: BEQFEK_clean_sbu_0, # of connection points: 5
#     Node 1, Type 0, BuildingBlock: BEQFEK_clean_sbu_0, # of connection points: 5
#     Node 2, Type 0, BuildingBlock: BEQFEK_clean_sbu_0, # of connection points: 5
#     Node 3, Type 0, BuildingBlock: BEQFEK_clean_sbu_0, # of connection points: 5
#     Node 4, Type 0, BuildingBlock: BEQFEK_clean_sbu_0, # of connection points: 5
#     Node 5, Type 0, BuildingBlock: BEQFEK_clean_sbu_0, # of connection points: 5
#     Node 6, Type 0, BuildingBlock: BEQFEK_clean_sbu_0, # of connection points: 5
#     Node 7, Type 0, BuildingBlock: BEQFEK_clean_sbu_0, # of connection points: 5
#     Node 8, Type 0, BuildingBlock: BEQFEK_clean_sbu_0, # of connection points: 5
#     Node 9, Type 0, BuildingBlock: BEQFEK_clean_sbu_0, # of connection points: 5
#     Node 10, Type 0, BuildingBlock: BEQFEK_clean_sbu_0, # of connection points: 5
#     Node 11, Type 0, BuildingBlock: BEQFEK_clean_sbu_0, # of connection points: 5
#     Node 12, Type 0, BuildingBlock: BEQFEK_clean_sbu_0, # of connection points: 5
#     Node 13, Type 0, BuildingBlock: BEQFEK_clean_sbu_0, # of connection points: 5
#     Node 14, Type 0, BuildingBlock: BEQFEK_clean_sbu_0, # of connection points: 5
#     Node 15, Type 0, BuildingBlock: BEQFEK_clean_sbu_0, # of connection points: 5
#     Node 16, Type 0, BuildingBlock: BEQFEK_clean_sbu_0, # of connection points: 5
#     Node 17, Type 0, BuildingBlock: BEQFEK_clean_sbu_0, # of connection points: 5
#     Node 18, Type 0, BuildingBlock: BEQFEK_clean_sbu_0, # of connection points: 5
#     Node 19, Type 0, BuildingBlock: BEQFEK_clean_sbu_0, # of connection points: 5
#     Node 20, Type 0, BuildingBlock: BEQFEK_clean_sbu_0, # of connection points: 5
#     Node 21, Type 0, BuildingBlock: BEQFEK_clean_sbu_0, # of connection points: 5
#     Node 22, Type 0, BuildingBlock: BEQFEK_clean_sbu_0, # of connection points: 5
#     Node 23, Type 0, BuildingBlock: BEQFEK_clean_sbu_0, # of connection points: 5
#     Node 24, Type 0, BuildingBlock: BEQFEK_clean_sbu_0, # of connection points: 5
#     Node 25, Type 0, BuildingBlock: BEQFEK_clean_sbu_0, # of connection points: 5
#     Node 26, Type 0, BuildingBlock: BEQFEK_clean_sbu_0, # of connection points: 5
#     Node 27, Type 0, BuildingBlock: BEQFEK_clean_sbu_0, # of connection points: 5
#     Node 28, Type 0, BuildingBlock: BEQFEK_clean_sbu_0, # of connection points: 5
#     Node 29, Type 0, BuildingBlock: BEQFEK_clean_sbu_0, # of connection points: 5
#     Node 30, Type 0, BuildingBlock: BEQFEK_clean_sbu_0, # of connection points: 5
#     Node 31, Type 0, BuildingBlock: BEQFEK_clean_sbu_0, # of connection points: 5
#     Node 32, Type 0, BuildingBlock: BEQFEK_clean_sbu_0, # of connection points: 5
#     Node 33, Type 0, BuildingBlock: BEQFEK_clean_sbu_0, # of connection points: 5
#     Node 34, Type 0, BuildingBlock: BEQFEK_clean_sbu_0, # of connection points: 5
#     Node 35, Type 0, BuildingBlock: BEQFEK_clean_sbu_0, # of connection points: 5
#     Node 36, Type 0, BuildingBlock: BEQFEK_clean_sbu_0, # of connection points: 5
#     Node 37, Type 0, BuildingBlock: BEQFEK_clean_sbu_0, # of connection points: 5
#     Node 38, Type 0, BuildingBlock: BEQFEK_clean_sbu_0, # of connection points: 5
#     Node 39, Type 0, BuildingBlock: BEQFEK_clean_sbu_0, # of connection points: 5
#     Node 40, Type 0, BuildingBlock: BEQFEK_clean_sbu_0, # of connection points: 5
#     Node 41, Type 0, BuildingBlock: BEQFEK_clean_sbu_0, # of connection points: 5
#     Node 42, Type 0, BuildingBlock: BEQFEK_clean_sbu_0, # of connection points: 5
#     Node 43, Type 0, BuildingBlock: BEQFEK_clean_sbu_0, # of connection points: 5
#     Node 44, Type 0, BuildingBlock: BEQFEK_clean_sbu_0, # of connection points: 5
#     Node 45, Type 0, BuildingBlock: BEQFEK_clean_sbu_0, # of connection points: 5
#     Node 46, Type 0, BuildingBlock: BEQFEK_clean_sbu_0, # of connection points: 5
#     Node 47, Type 0, BuildingBlock: BEQFEK_clean_sbu_0, # of connection points: 5
#     Edge 48, Type (0, 0), BuildingBlock: AJUNOK_clean_linker_0, # of connection points: 2
#     Edge 49, Type (0, 0), BuildingBlock: AJUNOK_clean_linker_0, # of connection points: 2
#     Edge 50, Type (0, 0), BuildingBlock: AJUNOK_clean_linker_0, # of connection points: 2
#     Edge 51, Type (0, 0), BuildingBlock: AJUNOK_clean_linker_0, # of connection points: 2
#     Edge 52, Type (0, 0), BuildingBlock: AJUNOK_clean_linker_0, # of connection points: 2
#     Edge 53, Type (0, 0), BuildingBlock: AJUNOK_clean_linker_0, # of connection points: 2
#     Edge 54, Type (0, 0), BuildingBlock: AJUNOK_clean_linker_0, # of connection points: 2
#     Edge 55, Type (0, 0), BuildingBlock: AJUNOK_clean_linker_0, # of connection points: 2
#     Edge 56, Type (0, 0), BuildingBlock: AJUNOK_clean_linker_0, # of connection points: 2
#     Edge 57, Type (0, 0), BuildingBlock: AJUNOK_clean_linker_0, # of connection points: 2
#     Edge 58, Type (0, 0), BuildingBlock: AJUNOK_clean_linker_0, # of connection points: 2
#     Edge 59, Type (0, 0), BuildingBlock: AJUNOK_clean_linker_0, # of connection points: 2
#     Edge 60, Type (0, 0), BuildingBlock: AJUNOK_clean_linker_0, # of connection points: 2
#     Edge 61, Type (0, 0), BuildingBlock: AJUNOK_clean_linker_0, # of connection points: 2
#     Edge 62, Type (0, 0), BuildingBlock: AJUNOK_clean_linker_0, # of connection points: 2
#     Edge 63, Type (0, 0), BuildingBlock: AJUNOK_clean_linker_0, # of connection points: 2
#     Edge 64, Type (0, 0), BuildingBlock: AJUNOK_clean_linker_0, # of connection points: 2
#     Edge 65, Type (0, 0), BuildingBlock: AJUNOK_clean_linker_0, # of connection points: 2
#     Edge 66, Type (0, 0), BuildingBlock: AJUNOK_clean_linker_0, # of connection points: 2
#     Edge 67, Type (0, 0), BuildingBlock: AJUNOK_clean_linker_0, # of connection points: 2
#     Edge 68, Type (0, 0), BuildingBlock: AJUNOK_clean_linker_0, # of connection points: 2
#     Edge 69, Type (0, 0), BuildingBlock: AJUNOK_clean_linker_0, # of connection points: 2
#     Edge 70, Type (0, 0), BuildingBlock: AJUNOK_clean_linker_0, # of connection points: 2
#     Edge 71, Type (0, 0), BuildingBlock: AJUNOK_clean_linker_0, # of connection points: 2
#     Edge 72, Type (0, 0), BuildingBlock: AJUNOK_clean_linker_0, # of connection points: 2
#     Edge 73, Type (0, 0), BuildingBlock: AJUNOK_clean_linker_0, # of connection points: 2
#     Edge 74, Type (0, 0), BuildingBlock: AJUNOK_clean_linker_0, # of connection points: 2
#     Edge 75, Type (0, 0), BuildingBlock: AJUNOK_clean_linker_0, # of connection points: 2
#     Edge 76, Type (0, 0), BuildingBlock: AJUNOK_clean_linker_0, # of connection points: 2
#     Edge 77, Type (0, 0), BuildingBlock: AJUNOK_clean_linker_0, # of connection points: 2
#     Edge 78, Type (0, 0), BuildingBlock: AJUNOK_clean_linker_0, # of connection points: 2
#     Edge 79, Type (0, 0), BuildingBlock: AJUNOK_clean_linker_0, # of connection points: 2
#     Edge 80, Type (0, 0), BuildingBlock: AJUNOK_clean_linker_0, # of connection points: 2
#     Edge 81, Type (0, 0), BuildingBlock: AJUNOK_clean_linker_0, # of connection points: 2
#     Edge 82, Type (0, 0), BuildingBlock: AJUNOK_clean_linker_0, # of connection points: 2
#     Edge 83, Type (0, 0), BuildingBlock: AJUNOK_clean_linker_0, # of connection points: 2
#     Edge 84, Type (0, 0), BuildingBlock: AJUNOK_clean_linker_0, # of connection points: 2
#     Edge 85, Type (0, 0), BuildingBlock: AJUNOK_clean_linker_0, # of connection points: 2
#     Edge 86, Type (0, 0), BuildingBlock: AJUNOK_clean_linker_0, # of connection points: 2
#     Edge 87, Type (0, 0), BuildingBlock: AJUNOK_clean_linker_0, # of connection points: 2
#     Edge 88, Type (0, 0), BuildingBlock: AJUNOK_clean_linker_0, # of connection points: 2
#     Edge 89, Type (0, 0), BuildingBlock: AJUNOK_clean_linker_0, # of connection points: 2
#     Edge 90, Type (0, 0), BuildingBlock: AJUNOK_clean_linker_0, # of connection points: 2
#     Edge 91, Type (0, 0), BuildingBlock: AJUNOK_clean_linker_0, # of connection points: 2
#     Edge 92, Type (0, 0), BuildingBlock: AJUNOK_clean_linker_0, # of connection points: 2
#     Edge 93, Type (0, 0), BuildingBlock: AJUNOK_clean_linker_0, # of connection points: 2
#     Edge 94, Type (0, 0), BuildingBlock: AJUNOK_clean_linker_0, # of connection points: 2
#     Edge 95, Type (0, 0), BuildingBlock: AJUNOK_clean_linker_0, # of connection points: 2
#     Edge 96, Type (0, 0), BuildingBlock: AJUNOK_clean_linker_0, # of connection points: 2
#     Edge 97, Type (0, 0), BuildingBlock: AJUNOK_clean_linker_0, # of connection points: 2
#     Edge 98, Type (0, 0), BuildingBlock: AJUNOK_clean_linker_0, # of connection points: 2
#     Edge 99, Type (0, 0), BuildingBlock: AJUNOK_clean_linker_0, # of connection points: 2
#     Edge 100, Type (0, 0), BuildingBlock: AJUNOK_clean_linker_0, # of connection points: 2
#     Edge 101, Type (0, 0), BuildingBlock: AJUNOK_clean_linker_0, # of connection points: 2
#     Edge 102, Type (0, 0), BuildingBlock: AJUNOK_clean_linker_0, # of connection points: 2
#     Edge 103, Type (0, 0), BuildingBlock: AJUNOK_clean_linker_0, # of connection points: 2
#     Edge 104, Type (0, 0), BuildingBlock: AJUNOK_clean_linker_0, # of connection points: 2
#     Edge 105, Type (0, 0), BuildingBlock: AJUNOK_clean_linker_0, # of connection points: 2
#     Edge 106, Type (0, 0), BuildingBlock: AJUNOK_clean_linker_0, # of connection points: 2
#     Edge 107, Type (0, 0), BuildingBlock: AJUNOK_clean_linker_0, # of connection points: 2
#     Edge 108, Type (0, 0), BuildingBlock: AJUNOK_clean_linker_0, # of connection points: 2
#     Edge 109, Type (0, 0), BuildingBlock: AJUNOK_clean_linker_0, # of connection points: 2
#     Edge 110, Type (0, 0), BuildingBlock: AJUNOK_clean_linker_0, # of connection points: 2
#     Edge 111, Type (0, 0), BuildingBlock: AJUNOK_clean_linker_0, # of connection points: 2
#     Edge 112, Type (0, 0), BuildingBlock: AJUNOK_clean_linker_0, # of connection points: 2
#     Edge 113, Type (0, 0), BuildingBlock: AJUNOK_clean_linker_0, # of connection points: 2
#     Edge 114, Type (0, 0), BuildingBlock: AJUNOK_clean_linker_0, # of connection points: 2
#     Edge 115, Type (0, 0), BuildingBlock: AJUNOK_clean_linker_0, # of connection points: 2
#     Edge 116, Type (0, 0), BuildingBlock: AJUNOK_clean_linker_0, # of connection points: 2
#     Edge 117, Type (0, 0), BuildingBlock: AJUNOK_clean_linker_0, # of connection points: 2
#     Edge 118, Type (0, 0), BuildingBlock: AJUNOK_clean_linker_0, # of connection points: 2
#     Edge 119, Type (0, 0), BuildingBlock: AJUNOK_clean_linker_0, # of connection points: 2
#     Edge 120, Type (0, 0), BuildingBlock: AJUNOK_clean_linker_0, # of connection points: 2
#     Edge 121, Type (0, 0), BuildingBlock: AJUNOK_clean_linker_0, # of connection points: 2
#     Edge 122, Type (0, 0), BuildingBlock: AJUNOK_clean_linker_0, # of connection points: 2
#     Edge 123, Type (0, 0), BuildingBlock: AJUNOK_clean_linker_0, # of connection points: 2
#     Edge 124, Type (0, 0), BuildingBlock: AJUNOK_clean_linker_0, # of connection points: 2
#     Edge 125, Type (0, 0), BuildingBlock: AJUNOK_clean_linker_0, # of connection points: 2
#     Edge 126, Type (0, 0), BuildingBlock: AJUNOK_clean_linker_0, # of connection points: 2
#     Edge 127, Type (0, 0), BuildingBlock: AJUNOK_clean_linker_0, # of connection points: 2
#     Edge 128, Type (0, 0), BuildingBlock: AJUNOK_clean_linker_0, # of connection points: 2
#     Edge 129, Type (0, 0), BuildingBlock: AJUNOK_clean_linker_0, # of connection points: 2
#     Edge 130, Type (0, 0), BuildingBlock: AJUNOK_clean_linker_0, # of connection points: 2
#     Edge 131, Type (0, 0), BuildingBlock: AJUNOK_clean_linker_0, # of connection points: 2
#     Edge 132, Type (0, 0), BuildingBlock: AJUNOK_clean_linker_0, # of connection points: 2
#     Edge 133, Type (0, 0), BuildingBlock: AJUNOK_clean_linker_0, # of connection points: 2
#     Edge 134, Type (0, 0), BuildingBlock: AJUNOK_clean_linker_0, # of connection points: 2
#     Edge 135, Type (0, 0), BuildingBlock: AJUNOK_clean_linker_0, # of connection points: 2
#     Edge 136, Type (0, 0), BuildingBlock: AJUNOK_clean_linker_0, # of connection points: 2
#     Edge 137, Type (0, 0), BuildingBlock: AJUNOK_clean_linker_0, # of connection points: 2
#     Edge 138, Type (0, 0), BuildingBlock: AJUNOK_clean_linker_0, # of connection points: 2
#     Edge 139, Type (0, 0), BuildingBlock: AJUNOK_clean_linker_0, # of connection points: 2
#     Edge 140, Type (0, 0), BuildingBlock: AJUNOK_clean_linker_0, # of connection points: 2
#     Edge 141, Type (0, 0), BuildingBlock: AJUNOK_clean_linker_0, # of connection points: 2
#     Edge 142, Type (0, 0), BuildingBlock: AJUNOK_clean_linker_0, # of connection points: 2
#     Edge 143, Type (0, 0), BuildingBlock: AJUNOK_clean_linker_0, # of connection points: 2
#     Edge 144, Type (0, 0), BuildingBlock: AJUNOK_clean_linker_0, # of connection points: 2
#     Edge 145, Type (0, 0), BuildingBlock: AJUNOK_clean_linker_0, # of connection points: 2
#     Edge 146, Type (0, 0), BuildingBlock: AJUNOK_clean_linker_0, # of connection points: 2
#     Edge 147, Type (0, 0), BuildingBlock: AJUNOK_clean_linker_0, # of connection points: 2
#     Edge 148, Type (0, 0), BuildingBlock: AJUNOK_clean_linker_0, # of connection points: 2
#     Edge 149, Type (0, 0), BuildingBlock: AJUNOK_clean_linker_0, # of connection points: 2
#     Edge 150, Type (0, 0), BuildingBlock: AJUNOK_clean_linker_0, # of connection points: 2
#     Edge 151, Type (0, 0), BuildingBlock: AJUNOK_clean_linker_0, # of connection points: 2
#     Edge 152, Type (0, 0), BuildingBlock: AJUNOK_clean_linker_0, # of connection points: 2
#     Edge 153, Type (0, 0), BuildingBlock: AJUNOK_clean_linker_0, # of connection points: 2
#     Edge 154, Type (0, 0), BuildingBlock: AJUNOK_clean_linker_0, # of connection points: 2
#     Edge 155, Type (0, 0), BuildingBlock: AJUNOK_clean_linker_0, # of connection points: 2
#     Edge 156, Type (0, 0), BuildingBlock: AJUNOK_clean_linker_0, # of connection points: 2
#     Edge 157, Type (0, 0), BuildingBlock: AJUNOK_clean_linker_0, # of connection points: 2
#     Edge 158, Type (0, 0), BuildingBlock: AJUNOK_clean_linker_0, # of connection points: 2
#     Edge 159, Type (0, 0), BuildingBlock: AJUNOK_clean_linker_0, # of connection points: 2
#     Edge 160, Type (0, 0), BuildingBlock: AJUNOK_clean_linker_0, # of connection points: 2
#     Edge 161, Type (0, 0), BuildingBlock: AJUNOK_clean_linker_0, # of connection points: 2
#     Edge 162, Type (0, 0), BuildingBlock: AJUNOK_clean_linker_0, # of connection points: 2
#     Edge 163, Type (0, 0), BuildingBlock: AJUNOK_clean_linker_0, # of connection points: 2
#     Edge 164, Type (0, 0), BuildingBlock: AJUNOK_clean_linker_0, # of connection points: 2
#     Edge 165, Type (0, 0), BuildingBlock: AJUNOK_clean_linker_0, # of connection points: 2
#     Edge 166, Type (0, 0), BuildingBlock: AJUNOK_clean_linker_0, # of connection points: 2
#     Edge 167, Type (0, 0), BuildingBlock: AJUNOK_clean_linker_0, # of connection points: 2
# Relax obj value: 0.226
# Max RMSD: 0.145
# Mean RMSD: 0.130
data_MOF--net-fno--node1-BEQFEK_clean_sbu_0--edge1-AJUNOK_clean_linker_0
_symmetry_space_group_name_H-M    P1
_symmetry_Int_Tables_number       1
_symmetry_cell_setting            triclinic
loop_
_symmetry_equiv_pos_as_xyz
'x, y, z'
_cell_length_a     46.49634
_cell_length_b     46.722639
_cell_length_c     46.099146
_cell_angle_alpha  90.000977
_cell_angle_beta   90.03024
_cell_angle_gamma 89.986697
loop_
_atom_site_label
_atom_site_type_symbol
_atom_site_fract_x
_atom_site_fract_y
_atom_site_fract_z
_atom_type_partial_charge
Co0 Co 0.09952 0.35602 0.07951 0.0
Co1 Co 0.07996 0.3743 0.14145 0.0
C2 C 0.14249 0.36589 0.12259 0.0
O3 O 0.13748 0.35319 0.09871 0.0
O4 O 0.12203 0.37499 0.13825 0.0
C5 C 0.12354 0.36893 0.02781 0.0
O6 O 0.13842 0.38343 0.04706 0.0
C7 C 0.09074 0.36886 0.20247 0.0
C8 C 0.06637 0.4055 0.22019 0.0
C9 C 0.08726 0.38548 0.2271 0.0
N10 N 0.07324 0.37907 0.18171 0.0
N11 N 0.05824 0.40055 0.19259 0.0
C12 C 0.11368 0.34701 0.19704 0.0
H13 H 0.13505 0.35762 0.19706 0.0
H14 H 0.11012 0.33613 0.17595 0.0
H15 H 0.11373 0.33064 0.2144 0.0
C16 C 0.05762 0.30848 0.09217 0.0
N17 N 0.07158 0.33289 0.09889 0.0
N18 N 0.06433 0.34054 0.12544 0.0
C19 C 0.04586 0.3213 0.13647 0.0
C20 C 0.04104 0.30029 0.11585 0.0
C21 C 0.06064 0.29299 0.06399 0.0
H22 H 0.08102 0.29907 0.05309 0.0
H23 H 0.0599 0.26949 0.06753 0.0
H24 H 0.04238 0.29889 0.04969 0.0
O25 O 0.08958 0.39687 0.08171 0.0
O26 O 0.06654 0.40873 0.12162 0.0
H27 H 0.01409 0.30886 0.16844 0.0
H28 H 0.0491 0.31836 0.18254 0.0
C29 C 0.03262 0.32363 0.16595 0.0
H30 H 0.02546 0.34596 0.1698 0.0
H31 H 0.04441 0.41349 0.18046 0.0
O32 O 0.10439 0.35148 0.03686 0.0
C33 C 0.07667 0.41542 0.09699 0.0
Co34 Co 0.89552 0.85152 0.3369 0.0
Co35 Co 0.89269 0.84854 0.40396 0.0
C36 C 0.90125 0.9045 0.3716 0.0
O37 O 0.90439 0.89233 0.34703 0.0
O38 O 0.89685 0.88974 0.39433 0.0
C39 C 0.87573 0.86587 0.28359 0.0
O40 O 0.86462 0.88525 0.30094 0.0
C41 C 0.90433 0.86489 0.46358 0.0
C42 C 0.87702 0.834 0.48712 0.0
C43 C 0.89312 0.8587 0.49056 0.0
N44 N 0.89481 0.84507 0.44477 0.0
N45 N 0.87917 0.82619 0.45913 0.0
C46 C 0.92043 0.89133 0.45518 0.0
H47 H 0.93384 0.88717 0.43572 0.0
H48 H 0.93437 0.89868 0.47323 0.0
H49 H 0.90485 0.90863 0.45029 0.0
C50 C 0.94007 0.80438 0.34728 0.0
N51 N 0.92045 0.82402 0.35616 0.0
N52 N 0.91955 0.82375 0.38468 0.0
C53 C 0.93873 0.80442 0.39482 0.0
C54 C 0.95237 0.79094 0.37151 0.0
C55 C 0.94645 0.79818 0.31612 0.0
H56 H 0.92721 0.80241 0.30255 0.0
H57 H 0.96403 0.81248 0.30873 0.0
H58 H 0.95349 0.77565 0.31329 0.0
O59 O 0.85424 0.84736 0.34727 0.0
O60 O 0.85196 0.84047 0.39448 0.0
H61 H 0.92751 0.78891 0.43693 0.0
H62 H 0.96582 0.78897 0.42978 0.0
C63 C 0.94537 0.80073 0.42638 0.0
H64 H 0.94703 0.82201 0.43689 0.0
H65 H 0.86798 0.80941 0.44937 0.0
O66 O 0.8936 0.84796 0.29409 0.0
C67 C 0.83954 0.84343 0.37011 0.0
Co68 Co 0.40648 0.64087 0.66083 0.0
Co69 Co 0.39288 0.65602 0.59645 0.0
C70 C 0.39952 0.59517 0.61991 0.0
O71 O 0.40994 0.602 0.64448 0.0
O72 O 0.39223 0.61426 0.60172 0.0
C73 C 0.39286 0.62131 0.71478 0.0
O74 O 0.37759 0.60486 0.69754 0.0
C75 C 0.39683 0.6441 0.53486 0.0
C76 C 0.36767 0.67701 0.51695 0.0
C77 C 0.38256 0.65231 0.50988 0.0
N78 N 0.39013 0.66277 0.556 0.0
N79 N 0.37322 0.68274 0.545 0.0
C80 C 0.41294 0.61679 0.5397 0.0
H81 H 0.39737 0.5993 0.54398 0.0
H82 H 0.42764 0.61895 0.55855 0.0
H83 H 0.42558 0.61085 0.52023 0.0
C84 C 0.45304 0.6841 0.65007 0.0
N85 N 0.43062 0.66784 0.64153 0.0
N86 N 0.42483 0.67364 0.61418 0.0
C87 C 0.44314 0.69374 0.60451 0.0
C88 C 0.46165 0.70103 0.62685 0.0
C89 C 0.46473 0.68456 0.68027 0.0
H90 H 0.46473 0.66259 0.68942 0.0
H91 H 0.48681 0.69361 0.68072 0.0
H92 H 0.45056 0.69803 0.69401 0.0
O93 O 0.36536 0.6501 0.65627 0.0
O94 O 0.35672 0.66904 0.61334 0.0
H95 H 0.42087 0.71673 0.57134 0.0
H96 H 0.45944 0.72236 0.57135 0.0
C97 C 0.4421 0.70639 0.57472 0.0
H98 H 0.44423 0.68903 0.55843 0.0
H99 H 0.36365 0.699 0.55719 0.0
O100 O 0.41047 0.639 0.70349 0.0
C101 C 0.34803 0.66116 0.63819 0.0
Co102 Co 0.60115 0.14234 0.91662 0.0
Co103 Co 0.5916 0.1375 0.84947 0.0
C104 C 0.65038 0.14675 0.87746 0.0
O105 O 0.64097 0.15125 0.90303 0.0
O106 O 0.63324 0.14146 0.8567 0.0
C107 C 0.61928 0.12318 0.96953 0.0
O108 O 0.63787 0.1124 0.95109 0.0
C109 C 0.60642 0.1477 0.78876 0.0
C110 C 0.5781 0.11623 0.76735 0.0
C111 C 0.60179 0.13361 0.76267 0.0
N112 N 0.58695 0.13831 0.80822 0.0
N113 N 0.56958 0.12014 0.79497 0.0
C114 C 0.63118 0.16686 0.79606 0.0
H115 H 0.62739 0.17802 0.81694 0.0
H116 H 0.63421 0.18314 0.77887 0.0
H117 H 0.6512 0.15404 0.79731 0.0
C118 C 0.5545 0.18704 0.90956 0.0
N119 N 0.57234 0.1667 0.89889 0.0
N120 N 0.5689 0.1652 0.87055 0.0
C121 C 0.5491 0.18483 0.86232 0.0
C122 C 0.53908 0.1996 0.88673 0.0
C123 C 0.55147 0.19318 0.94125 0.0
H124 H 0.55287 0.17295 0.95377 0.0
H125 H 0.56948 0.20713 0.9483 0.0
H126 H 0.53075 0.20398 0.94605 0.0
O127 O 0.59656 0.10139 0.90676 0.0
O128 O 0.58396 0.09726 0.8609 0.0
H129 H 0.52581 0.17352 0.8241 0.0
H130 H 0.53114 0.21162 0.82853 0.0
C131 C 0.54116 0.19025 0.83134 0.0
H132 H 0.56058 0.18882 0.81747 0.0
H133 H 0.55365 0.10833 0.80549 0.0
O134 O 0.60043 0.14062 0.9599 0.0
C135 C 0.59007 0.08586 0.88519 0.0
Co136 Co 0.10376 0.64582 0.41134 0.0
Co137 Co 0.096 0.63837 0.34429 0.0
C138 C 0.15429 0.64751 0.37358 0.0
O139 O 0.14422 0.65349 0.39859 0.0
O140 O 0.13755 0.64164 0.35265 0.0
C141 C 0.12124 0.62905 0.46552 0.0
O142 O 0.14043 0.61793 0.44792 0.0
C143 C 0.11237 0.64804 0.28408 0.0
C144 C 0.08637 0.61475 0.26246 0.0
C145 C 0.10935 0.63315 0.25821 0.0
N146 N 0.09273 0.6381 0.30304 0.0
N147 N 0.07673 0.61881 0.28966 0.0
C148 C 0.13579 0.66867 0.29175 0.0
H149 H 0.13188 0.6784 0.31333 0.0
H150 H 0.13674 0.68607 0.27547 0.0
H151 H 0.15685 0.65754 0.29147 0.0
C152 C 0.05708 0.69052 0.40052 0.0
N153 N 0.07559 0.66989 0.39165 0.0
N154 N 0.07305 0.66695 0.36333 0.0
C155 C 0.05311 0.68559 0.35337 0.0
C156 C 0.04205 0.70135 0.37655 0.0
C157 C 0.05447 0.70016 0.43133 0.0
H158 H 0.0758 0.69925 0.44212 0.0
H159 H 0.04558 0.72218 0.4326 0.0
H160 H 0.03983 0.68539 0.44303 0.0
O161 O 0.09877 0.60447 0.40283 0.0
O162 O 0.08687 0.599 0.35688 0.0
H163 H 0.02439 0.7004 0.31948 0.0
H164 H 0.06184 0.69677 0.30938 0.0
C165 C 0.04409 0.68728 0.32227 0.0
H166 H 0.04016 0.6654 0.31382 0.0
H167 H 0.06104 0.60647 0.2999 0.0
O168 O 0.10203 0.64547 0.45478 0.0
C169 C 0.09232 0.58835 0.38166 0.0
Co170 Co 0.6048 0.84597 0.58117 0.0
Co171 Co 0.58908 0.86444 0.64478 0.0
C172 C 0.64998 0.85034 0.62429 0.0
O173 O 0.64292 0.84093 0.59936 0.0
O174 O 0.63116 0.86005 0.64169 0.0
C175 C 0.62869 0.8533 0.52695 0.0
O176 O 0.64943 0.86255 0.54384 0.0
C177 C 0.59529 0.85947 0.70762 0.0
C178 C 0.57542 0.90015 0.72161 0.0
C179 C 0.59214 0.87758 0.7313 0.0
N180 N 0.58145 0.87114 0.68486 0.0
N181 N 0.56907 0.89509 0.6936 0.0
C182 C 0.6136 0.83315 0.70582 0.0
H183 H 0.61877 0.82777 0.68303 0.0
H184 H 0.60148 0.8148 0.71492 0.0
H185 H 0.63352 0.83575 0.71882 0.0
C186 C 0.56035 0.80156 0.5947 0.0
N187 N 0.57585 0.82498 0.6015 0.0
N188 N 0.56941 0.83288 0.62818 0.0
C189 C 0.54947 0.815 0.63906 0.0
C190 C 0.54316 0.79439 0.61832 0.0
C191 C 0.562 0.78659 0.56608 0.0
H192 H 0.58165 0.77311 0.56563 0.0
H193 H 0.54291 0.77278 0.56247 0.0
H194 H 0.56379 0.80254 0.54835 0.0
O195 O 0.59771 0.88718 0.58251 0.0
O196 O 0.58018 0.90035 0.62478 0.0
H197 H 0.53034 0.83896 0.67359 0.0
H198 H 0.52056 0.80136 0.67339 0.0
C199 C 0.53812 0.8169 0.66938 0.0
H200 H 0.55587 0.81251 0.6848 0.0
H201 H 0.55833 0.90928 0.67984 0.0
O202 O 0.6069 0.84108 0.53833 0.0
C203 C 0.58792 0.90643 0.59914 0.0
Co204 Co 0.3938 0.35304 0.91569 0.0
Co205 Co 0.40195 0.3549 0.84907 0.0
C206 C 0.34296 0.35246 0.87845 0.0
O207 O 0.35292 0.34721 0.90368 0.0
O208 O 0.35985 0.35561 0.85701 0.0
C209 C 0.3785 0.37491 0.96811 0.0
O210 O 0.35946 0.38603 0.95031 0.0
C211 C 0.38642 0.33953 0.79012 0.0
C212 C 0.4169 0.36604 0.76515 0.0
C213 C 0.39255 0.34919 0.76249 0.0
N214 N 0.40605 0.35048 0.80843 0.0
N215 N 0.42469 0.36567 0.79325 0.0
C216 C 0.36008 0.32363 0.79941 0.0
H217 H 0.36373 0.31306 0.82065 0.0
H218 H 0.35414 0.30733 0.78297 0.0
H219 H 0.34187 0.33883 0.80129 0.0
C220 C 0.43789 0.30543 0.90963 0.0
N221 N 0.42034 0.32596 0.8988 0.0
N222 N 0.42311 0.32649 0.87041 0.0
C223 C 0.44225 0.30623 0.86227 0.0
C224 C 0.45251 0.29203 0.88684 0.0
C225 C 0.44026 0.29859 0.94122 0.0
H226 H 0.41889 0.30072 0.95173 0.0
H227 H 0.44887 0.27668 0.94461 0.0
H228 H 0.45501 0.31421 0.9516 0.0
O229 O 0.40167 0.39305 0.90412 0.0
O230 O 0.41385 0.39465 0.85799 0.0
H231 H 0.45852 0.32242 0.82215 0.0
H232 H 0.46945 0.28608 0.82995 0.0
C233 C 0.45156 0.3017 0.83156 0.0
H234 H 0.43297 0.29396 0.81865 0.0
H235 H 0.4412 0.3778 0.8024 0.0
O236 O 0.39604 0.35627 0.9584 0.0
C237 C 0.40918 0.40729 0.88197 0.0
Co238 Co 0.90028 0.15446 0.16883 0.0
Co239 Co 0.89987 0.14883 0.10208 0.0
C240 C 0.90458 0.09806 0.13406 0.0
O241 O 0.89932 0.11347 0.15618 0.0
O242 O 0.91143 0.10961 0.11012 0.0
C243 C 0.90747 0.1313 0.2247 0.0
O244 O 0.91764 0.10942 0.21012 0.0
C245 C 0.89084 0.13355 0.04186 0.0
C246 C 0.88152 0.17534 0.02154 0.0
C247 C 0.88232 0.14619 0.01622 0.0
N248 N 0.89514 0.15425 0.0616 0.0
N249 N 0.88952 0.17922 0.04935 0.0
C250 C 0.89067 0.10228 0.0487 0.0
H251 H 0.87728 0.09849 0.06822 0.0
H252 H 0.913 0.09531 0.05334 0.0
H253 H 0.88192 0.08927 0.03061 0.0
C254 C 0.94611 0.19742 0.15488 0.0
N255 N 0.92652 0.17746 0.14746 0.0
N256 N 0.92629 0.17471 0.11906 0.0
C257 C 0.94646 0.1919 0.10754 0.0
C258 C 0.95956 0.20723 0.12972 0.0
C259 C 0.95012 0.20808 0.18521 0.0
H260 H 0.92937 0.2073 0.19707 0.0
H261 H 0.96549 0.19386 0.19667 0.0
H262 H 0.95868 0.23025 0.18534 0.0
O263 O 0.86104 0.1672 0.16259 0.0
O264 O 0.86019 0.15133 0.11756 0.0
H265 H 0.94161 0.2085 0.06461 0.0
H266 H 0.97762 0.19748 0.07336 0.0
C267 C 0.95453 0.19209 0.0761 0.0
H268 H 0.95017 0.1709 0.06618 0.0
H269 H 0.88968 0.19873 0.06036 0.0
O270 O 0.90382 0.15499 0.21161 0.0
C271 C 0.84712 0.15915 0.14043 0.0
Co272 Co 0.09306 0.09057 0.35773 0.0
Co273 Co 0.15994 0.09309 0.35786 0.0
C274 C 0.12767 0.14421 0.34254 0.0
O275 O 0.10444 0.13103 0.34865 0.0
O276 O 0.15158 0.13108 0.34201 0.0
C277 C 0.041 0.10791 0.37488 0.0
O278 O 0.05951 0.12555 0.38685 0.0
C279 C 0.21723 0.11251 0.3688 0.0
C280 C 0.24424 0.07373 0.36857 0.0
C281 C 0.24514 0.10315 0.37224 0.0
N282 N 0.20062 0.09002 0.36185 0.0
N283 N 0.21674 0.06671 0.36253 0.0
C284 C 0.20571 0.14119 0.37746 0.0
H285 H 0.18401 0.13902 0.38718 0.0
H286 H 0.20407 0.1548 0.35798 0.0
H287 H 0.22021 0.15191 0.39322 0.0
C288 C 0.10432 0.04317 0.31572 0.0
N289 N 0.11325 0.06341 0.3345 0.0
N290 N 0.1416 0.06468 0.33404 0.0
C291 C 0.15143 0.04607 0.31394 0.0
C292 C 0.12822 0.03141 0.30206 0.0
C293 C 0.07338 0.03659 0.30988 0.0
H294 H 0.06097 0.05681 0.30822 0.0
H295 H 0.07075 0.02392 0.28968 0.0
H296 H 0.06454 0.02425 0.32841 0.0
O297 O 0.10076 0.08461 0.39886 0.0
O298 O 0.14687 0.09476 0.39859 0.0
H299 H 0.19199 0.02501 0.31763 0.0
H300 H 0.18466 0.03818 0.28207 0.0
C301 C 0.18234 0.04308 0.30543 0.0
H302 H 0.19422 0.06308 0.31014 0.0
H303 H 0.20891 0.04594 0.3602 0.0
O304 O 0.05043 0.08884 0.35749 0.0
C305 C 0.12363 0.09069 0.41234 0.0
Co306 Co 0.13709 0.92471 0.60268 0.0
Co307 Co 0.13843 0.85726 0.60505 0.0
C308 C 0.14696 0.8905 0.65837 0.0
O309 O 0.14349 0.91341 0.64386 0.0
O310 O 0.14824 0.86634 0.64569 0.0
C311 C 0.12033 0.97719 0.62159 0.0
O312 O 0.1069 0.95861 0.63807 0.0
C313 C 0.1356 0.7967 0.62091 0.0
C314 C 0.13049 0.77525 0.5786 0.0
C315 C 0.13155 0.77019 0.60819 0.0
N316 N 0.13773 0.81653 0.59986 0.0
N317 N 0.13439 0.80356 0.5746 0.0
C318 C 0.13245 0.80372 0.65234 0.0
H319 H 0.11733 0.82193 0.65474 0.0
H320 H 0.15376 0.81001 0.66107 0.0
H321 H 0.12403 0.78537 0.66502 0.0
C322 C 0.18123 0.91364 0.55587 0.0
N323 N 0.16242 0.90482 0.57638 0.0
N324 N 0.16345 0.87665 0.57811 0.0
C325 C 0.18355 0.86688 0.55939 0.0
C326 C 0.19533 0.88982 0.54426 0.0
C327 C 0.18483 0.94425 0.54712 0.0
H328 H 0.16388 0.95555 0.5485 0.0
H329 H 0.19991 0.95482 0.5624 0.0
H330 H 0.1936 0.94595 0.5248 0.0
O331 O 0.09649 0.91542 0.59574 0.0
O332 O 0.09749 0.86856 0.60197 0.0
H333 H 0.18157 0.8251 0.54063 0.0
H334 H 0.2168 0.8355 0.55242 0.0
C335 C 0.19358 0.83647 0.55792 0.0
H336 H 0.19 0.82554 0.57894 0.0
H337 H 0.13336 0.81417 0.55471 0.0
O338 O 0.13758 0.96765 0.60229 0.0
C339 C 0.08351 0.89174 0.5988 0.0
Co340 Co 0.42844 0.89922 0.8435 0.0
Co341 Co 0.36197 0.90801 0.84602 0.0
C342 C 0.38977 0.84989 0.83454 0.0
O343 O 0.41484 0.86066 0.83257 0.0
O344 O 0.36791 0.86573 0.83944 0.0
C345 C 0.4778 0.87923 0.86544 0.0
O346 O 0.45807 0.86134 0.87469 0.0
C347 C 0.30016 0.90042 0.83674 0.0
C348 C 0.28235 0.94071 0.85392 0.0
C349 C 0.27475 0.91419 0.84302 0.0
N350 N 0.32214 0.91764 0.84377 0.0
N351 N 0.31132 0.94192 0.85374 0.0
C352 C 0.30327 0.87051 0.82623 0.0
H353 H 0.32146 0.86913 0.81076 0.0
H354 H 0.28331 0.86292 0.81547 0.0
H355 H 0.30755 0.85681 0.84537 0.0
C356 C 0.42424 0.94781 0.80163 0.0
N357 N 0.41263 0.92855 0.82001 0.0
N358 N 0.38449 0.93173 0.8204 0.0
C359 C 0.37731 0.95286 0.80175 0.0
C360 C 0.40221 0.96397 0.78933 0.0
C361 C 0.4559 0.95133 0.79714 0.0
H362 H 0.46737 0.94857 0.81806 0.0
H363 H 0.46359 0.93444 0.7821 0.0
H364 H 0.46102 0.97264 0.78784 0.0
O365 O 0.41784 0.90381 0.88408 0.0
O366 O 0.3717 0.91324 0.88774 0.0
H367 H 0.33883 0.97582 0.81164 0.0
H368 H 0.34585 0.97237 0.77337 0.0
C369 C 0.34705 0.96121 0.79459 0.0
H370 H 0.33315 0.94196 0.7938 0.0
H371 H 0.32372 0.95878 0.86174 0.0
O372 O 0.47059 0.89857 0.84731 0.0
C373 C 0.39601 0.9089 0.89955 0.0
Co374 Co 0.36586 0.17491 0.09852 0.0
Co375 Co 0.35628 0.10793 0.10288 0.0
C376 C 0.41547 0.13606 0.10069 0.0
O377 O 0.40633 0.16126 0.09535 0.0
O378 O 0.39821 0.11515 0.10359 0.0
C379 C 0.37906 0.22902 0.11966 0.0
O380 O 0.39496 0.21224 0.13599 0.0
C381 C 0.36985 0.04654 0.09819 0.0
C382 C 0.33264 0.0281 0.1213 0.0
C383 C 0.35954 0.02141 0.11039 0.0
N384 N 0.35016 0.06734 0.10233 0.0
N385 N 0.32771 0.05591 0.11554 0.0
C386 C 0.3994 0.05146 0.08643 0.0
H387 H 0.39954 0.07024 0.07172 0.0
H388 H 0.40713 0.03237 0.07447 0.0
H389 H 0.41442 0.05531 0.10469 0.0
C390 C 0.32181 0.1676 0.05178 0.0
N391 N 0.34014 0.15681 0.07169 0.0
N392 N 0.33626 0.1289 0.07348 0.0
C393 C 0.3153 0.12115 0.05484 0.0
C394 C 0.30526 0.14538 0.04048 0.0
C395 C 0.31836 0.19893 0.04613 0.0
H396 H 0.33974 0.20858 0.0418 0.0
H397 H 0.3037 0.20309 0.02761 0.0
H398 H 0.30958 0.20935 0.06588 0.0
O399 O 0.35521 0.1655 0.13839 0.0
O400 O 0.34366 0.11978 0.14154 0.0
H401 H 0.2915 0.08554 0.07107 0.0
H402 H 0.29091 0.08878 0.03199 0.0
C403 C 0.30444 0.09118 0.05168 0.0
H404 H 0.32287 0.07614 0.05053 0.0
H405 H 0.31 0.06765 0.12282 0.0
O406 O 0.36464 0.21775 0.09903 0.0
C407 C 0.34689 0.14419 0.15319 0.0
Co408 Co 0.17053 0.88826 0.15392 0.0
Co409 Co 0.10344 0.88156 0.15795 0.0
C410 C 0.134 0.89679 0.10224 0.0
O411 O 0.15837 0.89914 0.11454 0.0
O412 O 0.11158 0.89046 0.11675 0.0
C413 C 0.22336 0.87334 0.13497 0.0
O414 O 0.20547 0.86262 0.1158 0.0
C415 C 0.04155 0.88816 0.14619 0.0
C416 C 0.02264 0.86585 0.18383 0.0
C417 C 0.01573 0.87904 0.15786 0.0
N418 N 0.06292 0.8804 0.16421 0.0
N419 N 0.05142 0.86721 0.18676 0.0
C420 C 0.04563 0.9042 0.11847 0.0
H421 H 0.06475 0.9183 0.1199 0.0
H422 H 0.02634 0.91729 0.1134 0.0
H423 H 0.04871 0.88858 0.10068 0.0
C424 C 0.159 0.92978 0.20203 0.0
N425 N 0.15059 0.90982 0.18267 0.0
N426 N 0.1224 0.90712 0.18398 0.0
C427 C 0.11204 0.92528 0.20415 0.0
C428 C 0.13486 0.94013 0.21644 0.0
C429 C 0.18949 0.93906 0.20617 0.0
H430 H 0.20417 0.92054 0.20346 0.0
H431 H 0.19493 0.95517 0.18936 0.0
H432 H 0.19264 0.94883 0.2279 0.0
O433 O 0.16274 0.84709 0.15654 0.0
O434 O 0.11605 0.84161 0.16246 0.0
H435 H 0.07198 0.91168 0.22207 0.0
H436 H 0.07691 0.94999 0.22229 0.0
C437 C 0.08069 0.9301 0.20971 0.0
H438 H 0.06898 0.93154 0.18881 0.0
H439 H 0.06332 0.85831 0.20372 0.0
O440 O 0.21318 0.88885 0.15531 0.0
C441 C 0.14102 0.83102 0.1594 0.0
Co442 Co 0.34153 0.84395 0.39599 0.0
Co443 Co 0.33619 0.91031 0.38846 0.0
C444 C 0.39287 0.87935 0.40069 0.0
O445 O 0.38163 0.85499 0.40584 0.0
O446 O 0.3773 0.90066 0.39377 0.0
C447 C 0.35768 0.79086 0.37807 0.0
O448 O 0.3781 0.80795 0.36874 0.0
C449 C 0.3503 0.96976 0.4025 0.0
C450 C 0.32995 0.99153 0.36526 0.0
C451 C 0.34899 0.99574 0.38797 0.0
N452 N 0.33336 0.95093 0.38848 0.0
N453 N 0.32059 0.96437 0.36679 0.0
C454 C 0.36908 0.96235 0.42778 0.0
H455 H 0.37087 0.93891 0.43062 0.0
H456 H 0.3592 0.97109 0.4478 0.0
H457 H 0.39062 0.97229 0.42538 0.0
C458 C 0.29537 0.85638 0.44096 0.0
N459 N 0.31363 0.86417 0.41951 0.0
N460 N 0.31192 0.89213 0.41611 0.0
C461 C 0.29262 0.90291 0.435 0.0
C462 C 0.2815 0.88072 0.45174 0.0
C463 C 0.29229 0.8264 0.45183 0.0
H464 H 0.31196 0.81384 0.44697 0.0
H465 H 0.28799 0.82629 0.47552 0.0
H466 H 0.2738 0.81615 0.4407 0.0
O467 O 0.339 0.8532 0.35415 0.0
O468 O 0.32832 0.8987 0.34821 0.0
H469 H 0.26428 0.9372 0.4486 0.0
H470 H 0.30207 0.94624 0.44624 0.0
C471 C 0.28437 0.93385 0.43607 0.0
H472 H 0.28133 0.94207 0.41371 0.0
H473 H 0.30751 0.95435 0.35147 0.0
O474 O 0.33819 0.80132 0.39445 0.0
C475 C 0.33386 0.87425 0.33759 0.0
Co476 Co 0.42869 0.11796 0.64615 0.0
Co477 Co 0.36121 0.11107 0.64797 0.0
C478 C 0.39079 0.16857 0.65053 0.0
O479 O 0.41601 0.15804 0.6522 0.0
O480 O 0.36875 0.15252 0.64937 0.0
C481 C 0.48066 0.1347 0.62356 0.0
O482 O 0.46207 0.15133 0.61027 0.0
C483 C 0.30078 0.12446 0.66038 0.0
C484 C 0.27918 0.08997 0.63596 0.0
C485 C 0.2742 0.11551 0.65031 0.0
N486 N 0.32072 0.10528 0.65193 0.0
N487 N 0.3075 0.08439 0.63793 0.0
C488 C 0.30747 0.15269 0.67407 0.0
H489 H 0.32743 0.15116 0.68717 0.0
H490 H 0.28942 0.15981 0.68805 0.0
H491 H 0.31049 0.16892 0.6568 0.0
C492 C 0.42396 0.073 0.69234 0.0
N493 N 0.41228 0.09165 0.67334 0.0
N494 N 0.38406 0.08926 0.67432 0.0
C495 C 0.37691 0.06918 0.69402 0.0
C496 C 0.40195 0.05803 0.70614 0.0
C497 C 0.45561 0.06975 0.69709 0.0
H498 H 0.46606 0.0911 0.69686 0.0
H499 H 0.46022 0.05872 0.7179 0.0
H500 H 0.46484 0.05705 0.679 0.0
O501 O 0.41641 0.10973 0.6064 0.0
O502 O 0.36966 0.10157 0.60744 0.0
H503 H 0.33755 0.05114 0.67875 0.0
H504 H 0.34546 0.04247 0.71601 0.0
C505 C 0.34668 0.05949 0.6993 0.0
H506 H 0.33342 0.07807 0.70608 0.0
H507 H 0.31812 0.06754 0.6276 0.0
O508 O 0.47141 0.11742 0.64286 0.0
C509 C 0.39299 0.10426 0.59341 0.0
Co510 Co 0.15127 0.17693 0.89874 0.0
Co511 Co 0.14609 0.11127 0.9069 0.0
C512 C 0.09457 0.14632 0.9114 0.0
O513 O 0.10955 0.16798 0.90419 0.0
O514 O 0.10654 0.12256 0.91726 0.0
C515 C 0.13755 0.22696 0.87445 0.0
O516 O 0.1199 0.20813 0.86307 0.0
C517 C 0.1277 0.05185 0.90755 0.0
C518 C 0.16831 0.02904 0.89863 0.0
C519 C 0.13893 0.02515 0.90143 0.0
N520 N 0.14952 0.07072 0.90896 0.0
N521 N 0.17376 0.05689 0.90366 0.0
C522 C 0.09664 0.06015 0.90658 0.0
H523 H 0.0935 0.07754 0.89052 0.0
H524 H 0.09032 0.06808 0.9283 0.0
H525 H 0.08251 0.042 0.90054 0.0
C526 C 0.19674 0.16978 0.94409 0.0
N527 N 0.17597 0.15945 0.92654 0.0
N528 N 0.17401 0.13153 0.93008 0.0
C529 C 0.19309 0.12338 0.95064 0.0
C530 C 0.20832 0.14732 0.96009 0.0
C531 C 0.20516 0.20063 0.94545 0.0
H532 H 0.18565 0.21428 0.94466 0.0
H533 H 0.21764 0.20536 0.96542 0.0
H534 H 0.21852 0.20583 0.92622 0.0
O535 O 0.1605 0.16396 0.8597 0.0
O536 O 0.14871 0.11859 0.86437 0.0
H537 H 0.21313 0.08271 0.94517 0.0
H538 H 0.20674 0.09177 0.9822 0.0
C539 C 0.19759 0.09305 0.96007 0.0
H540 H 0.17699 0.08113 0.95935 0.0
H541 H 0.19367 0.06681 0.90099 0.0
O542 O 0.15476 0.21878 0.89433 0.0
C543 C 0.15486 0.13992 0.84845 0.0
Co544 Co 0.84589 0.34482 0.89758 0.0
Co545 Co 0.84221 0.41116 0.8926 0.0
C546 C 0.8983 0.37801 0.90233 0.0
O547 O 0.88634 0.35407 0.90767 0.0
O548 O 0.88322 0.39983 0.89597 0.0
C549 C 0.86061 0.29151 0.87925 0.0
O550 O 0.88121 0.30795 0.86917 0.0
C551 C 0.85982 0.46989 0.90636 0.0
C552 C 0.83193 0.49384 0.87612 0.0
C553 C 0.85549 0.49685 0.89431 0.0
N554 N 0.84025 0.45182 0.89503 0.0
N555 N 0.82313 0.4665 0.87766 0.0
C556 C 0.88356 0.46092 0.92636 0.0
H557 H 0.88385 0.43757 0.92972 0.0
H558 H 0.87981 0.47028 0.94809 0.0
H559 H 0.90463 0.46863 0.91819 0.0
C560 C 0.79975 0.35596 0.94252 0.0
N561 N 0.81864 0.3645 0.92198 0.0
N562 N 0.81767 0.39259 0.92001 0.0
C563 C 0.79826 0.40279 0.93917 0.0
C564 C 0.78606 0.37998 0.95425 0.0
C565 C 0.79584 0.32544 0.95145 0.0
H566 H 0.81676 0.31403 0.95054 0.0
H567 H 0.78663 0.32394 0.97361 0.0
H568 H 0.781 0.31483 0.93597 0.0
O569 O 0.84303 0.35559 0.85605 0.0
O570 O 0.83313 0.40151 0.85188 0.0
H571 H 0.78624 0.44282 0.92026 0.0
H572 H 0.77196 0.43728 0.95625 0.0
C573 C 0.79088 0.43384 0.94203 0.0
H574 H 0.80968 0.4455 0.951 0.0
H575 H 0.80698 0.45735 0.86499 0.0
O576 O 0.8415 0.3026 0.8956 0.0
C577 C 0.83803 0.37731 0.8403 0.0
Co578 Co 0.93203 0.61881 0.151 0.0
Co579 Co 0.86473 0.61055 0.1472 0.0
C580 C 0.89337 0.66862 0.15345 0.0
O581 O 0.91869 0.65881 0.15726 0.0
O582 O 0.87211 0.65195 0.14966 0.0
C583 C 0.98551 0.63468 0.13081 0.0
O584 O 0.96809 0.65261 0.11762 0.0
C585 C 0.8038 0.62389 0.15765 0.0
C586 C 0.78265 0.58945 0.13272 0.0
C587 C 0.77729 0.61469 0.1475 0.0
N588 N 0.82398 0.60499 0.14906 0.0
N589 N 0.81105 0.5842 0.13464 0.0
C590 C 0.81037 0.65215 0.17137 0.0
H591 H 0.81543 0.66785 0.1541 0.0
H592 H 0.82924 0.65016 0.18598 0.0
H593 H 0.79173 0.66045 0.18373 0.0
C594 C 0.92443 0.57285 0.19613 0.0
N595 N 0.91401 0.59161 0.17646 0.0
N596 N 0.88581 0.58882 0.17521 0.0
C597 C 0.87745 0.56853 0.19423 0.0
C598 C 0.90162 0.55754 0.20816 0.0
C599 C 0.95569 0.56957 0.20297 0.0
H600 H 0.96616 0.5909 0.20353 0.0
H601 H 0.95888 0.55841 0.22399 0.0
H602 H 0.96607 0.55691 0.18551 0.0
O603 O 0.92229 0.61123 0.1104 0.0
O604 O 0.876 0.60105 0.10718 0.0
H605 H 0.83953 0.54979 0.17636 0.0
H606 H 0.84479 0.54189 0.21432 0.0
C607 C 0.84702 0.55859 0.19739 0.0
H608 H 0.8331 0.57713 0.20282 0.0
H609 H 0.82188 0.56748 0.12431 0.0
O610 O 0.97496 0.61765 0.14966 0.0
C611 C 0.90042 0.60469 0.09537 0.0
Co612 Co 0.64792 0.66888 0.39625 0.0
Co613 Co 0.65837 0.60306 0.39486 0.0
C614 C 0.59875 0.62959 0.39839 0.0
O615 O 0.60831 0.65478 0.4027 0.0
O616 O 0.6159 0.60853 0.39555 0.0
C617 C 0.62924 0.7194 0.3744 0.0
O618 O 0.61202 0.70055 0.36233 0.0
C619 C 0.64928 0.54185 0.405 0.0
C620 C 0.68866 0.52373 0.38554 0.0
C621 C 0.66225 0.51637 0.3972 0.0
N622 N 0.66696 0.56346 0.3978 0.0
N623 N 0.69065 0.55244 0.38656 0.0
C624 C 0.62075 0.54537 0.41948 0.0
H625 H 0.6197 0.56607 0.4312 0.0
H626 H 0.61698 0.5275 0.4349 0.0
H627 H 0.60352 0.54459 0.40296 0.0
C628 C 0.69371 0.66544 0.44189 0.0
N629 N 0.67544 0.65351 0.4226 0.0
N630 N 0.67913 0.62558 0.42259 0.0
C631 C 0.69959 0.61882 0.44219 0.0
C632 C 0.70973 0.64382 0.45509 0.0
C633 C 0.6971 0.69705 0.44581 0.0
H634 H 0.69575 0.70792 0.42446 0.0
H635 H 0.67921 0.70514 0.45947 0.0
H636 H 0.71789 0.70237 0.45634 0.0
O637 O 0.65615 0.65832 0.35611 0.0
O638 O 0.66846 0.61285 0.35451 0.0
H639 H 0.72354 0.58127 0.43153 0.0
H640 H 0.72008 0.58755 0.47003 0.0
C641 C 0.70882 0.58883 0.44884 0.0
H642 H 0.6898 0.57453 0.44931 0.0
H643 H 0.70751 0.5646 0.37813 0.0
O644 O 0.64721 0.71092 0.39343 0.0
C645 C 0.66376 0.6365 0.34177 0.0
Co646 Co 0.92495 0.39532 0.34233 0.0
Co647 Co 0.85951 0.40559 0.34717 0.0
C648 C 0.88752 0.34715 0.33459 0.0
O649 O 0.91226 0.35729 0.32873 0.0
O650 O 0.86698 0.36376 0.34176 0.0
C651 C 0.97544 0.37568 0.36298 0.0
O652 O 0.95691 0.35598 0.37084 0.0
C653 C 0.80011 0.39361 0.3324 0.0
C654 C 0.77782 0.42202 0.36327 0.0
C655 C 0.7736 0.39918 0.34459 0.0
N656 N 0.8194 0.41173 0.34397 0.0
N657 N 0.80572 0.42938 0.36161 0.0
C658 C 0.80744 0.36895 0.31313 0.0
H659 H 0.82887 0.372 0.30303 0.0
H660 H 0.79097 0.36681 0.29584 0.0
H661 H 0.80712 0.34893 0.32598 0.0
C662 C 0.92059 0.4456 0.30214 0.0
N663 N 0.90918 0.42613 0.32045 0.0
N664 N 0.88121 0.42998 0.32188 0.0
C665 C 0.87382 0.45183 0.3042 0.0
C666 C 0.89854 0.46263 0.29095 0.0
C667 C 0.95218 0.44847 0.29671 0.0
H668 H 0.96419 0.44522 0.31724 0.0
H669 H 0.95906 0.43159 0.28128 0.0
H670 H 0.95754 0.46979 0.28758 0.0
O671 O 0.91282 0.39513 0.38306 0.0
O672 O 0.86856 0.41081 0.38901 0.0
H673 H 0.8353 0.47218 0.31871 0.0
H674 H 0.84154 0.47548 0.28008 0.0
C675 C 0.84341 0.46105 0.29909 0.0
H676 H 0.82972 0.44195 0.29543 0.0
H677 H 0.81592 0.44449 0.37471 0.0
O678 O 0.96695 0.39594 0.3466 0.0
C679 C 0.8919 0.40122 0.3995 0.0
Co680 Co 0.59724 0.5937 0.85341 0.0
Co681 Co 0.66397 0.59683 0.85203 0.0
C682 C 0.63173 0.6482 0.83971 0.0
O683 O 0.60886 0.63449 0.84609 0.0
O684 O 0.65563 0.63523 0.83721 0.0
C685 C 0.54453 0.60971 0.87141 0.0
O686 O 0.56217 0.62791 0.88387 0.0
C687 C 0.72203 0.61381 0.86478 0.0
C688 C 0.74742 0.5741 0.8617 0.0
C689 C 0.74948 0.60302 0.86813 0.0
N690 N 0.70463 0.59267 0.85571 0.0
N691 N 0.71982 0.56877 0.85452 0.0
C692 C 0.71167 0.64238 0.87503 0.0
H693 H 0.68851 0.6417 0.88062 0.0
H694 H 0.71514 0.65816 0.85758 0.0
H695 H 0.72409 0.64949 0.89431 0.0
C696 C 0.60782 0.54645 0.8112 0.0
N697 N 0.617 0.56707 0.82943 0.0
N698 N 0.64529 0.56866 0.82825 0.0
C699 C 0.65482 0.54991 0.80814 0.0
C700 C 0.63152 0.5347 0.79723 0.0
C701 C 0.57696 0.53828 0.8074 0.0
H702 H 0.56521 0.54088 0.82817 0.0
H703 H 0.56699 0.5527 0.79112 0.0
H704 H 0.57497 0.51588 0.79965 0.0
O705 O 0.60534 0.58616 0.89399 0.0
O706 O 0.65109 0.59786 0.89298 0.0
H707 H 0.6971 0.53191 0.80561 0.0
H708 H 0.68397 0.54614 0.77214 0.0
C709 C 0.68465 0.54973 0.79594 0.0
H710 H 0.69566 0.5703 0.80049 0.0
H711 H 0.7112 0.5486 0.85042 0.0
O712 O 0.55471 0.5917 0.85333 0.0
C713 C 0.62826 0.59279 0.90711 0.0
Co714 Co 0.91704 0.65213 0.92042 0.0
Co715 Co 0.90597 0.65768 0.85474 0.0
C716 C 0.8577 0.65901 0.89111 0.0
O717 O 0.87458 0.65196 0.9116 0.0
O718 O 0.86766 0.66858 0.86746 0.0
C719 C 0.90427 0.63199 0.97291 0.0
O720 O 0.88872 0.61756 0.95432 0.0
C721 C 0.88451 0.66124 0.79552 0.0
C722 C 0.92172 0.64523 0.7705 0.0
C723 C 0.89325 0.65351 0.76804 0.0
N724 N 0.90692 0.65785 0.81365 0.0
N725 N 0.92916 0.64853 0.79852 0.0
C726 C 0.85437 0.66761 0.80495 0.0
H727 H 0.85399 0.68807 0.81715 0.0
H728 H 0.83935 0.66913 0.78633 0.0
H729 H 0.84678 0.65025 0.81947 0.0
C730 C 0.95945 0.69917 0.90685 0.0
N731 N 0.93859 0.68036 0.8997 0.0
N732 N 0.93402 0.68192 0.87156 0.0
C733 C 0.95117 0.70213 0.86003 0.0
C734 C 0.9683 0.71351 0.88187 0.0
C735 C 0.97147 0.70238 0.93676 0.0
H736 H 0.9596 0.71964 0.94816 0.0
H737 H 0.99456 0.70838 0.93589 0.0
H738 H 0.96876 0.68222 0.94917 0.0
O739 O 0.92972 0.61389 0.90895 0.0
O740 O 0.90958 0.61661 0.86578 0.0
H741 H 0.96198 0.69676 0.81532 0.0
H742 H 0.95851 0.73362 0.82644 0.0
C743 C 0.94954 0.71176 0.8291 0.0
H744 H 0.92686 0.71154 0.8216 0.0
H745 H 0.94896 0.64291 0.80762 0.0
O746 O 0.92065 0.65174 0.96334 0.0
C747 C 0.91961 0.60173 0.88659 0.0
Co748 Co 0.10364 0.15001 0.67376 0.0
Co749 Co 0.10795 0.15768 0.60705 0.0
C750 C 0.09927 0.09973 0.63548 0.0
O751 O 0.0955 0.11013 0.66075 0.0
O752 O 0.10424 0.11597 0.61396 0.0
C753 C 0.11899 0.13177 0.72821 0.0
O754 O 0.12934 0.11104 0.71205 0.0
C755 C 0.099 0.14458 0.5462 0.0
C756 C 0.12719 0.17676 0.52566 0.0
C757 C 0.11184 0.15194 0.52017 0.0
N758 N 0.10709 0.16372 0.56637 0.0
N759 N 0.12323 0.1834 0.55377 0.0
C760 C 0.08299 0.11756 0.55275 0.0
H761 H 0.06936 0.1204 0.57228 0.0
H762 H 0.0691 0.11124 0.53432 0.0
H763 H 0.09863 0.10003 0.55653 0.0
C764 C 0.05934 0.19686 0.666 0.0
N765 N 0.07908 0.17809 0.65586 0.0
N766 N 0.08036 0.1804 0.62745 0.0
C767 C 0.0612 0.20025 0.61855 0.0
C768 C 0.0473 0.21182 0.64271 0.0
C769 C 0.05291 0.20098 0.69751 0.0
H770 H 0.07273 0.198 0.71055 0.0
H771 H 0.03701 0.18464 0.70445 0.0
H772 H 0.04385 0.22257 0.70168 0.0
O773 O 0.14483 0.15592 0.66506 0.0
O774 O 0.14792 0.16611 0.61849 0.0
H775 H 0.07289 0.21938 0.57815 0.0
H776 H 0.03446 0.218 0.58447 0.0
C777 C 0.05509 0.20638 0.58727 0.0
H778 H 0.05413 0.18601 0.57497 0.0
H779 H 0.13367 0.19983 0.5649 0.0
O780 O 0.10377 0.15122 0.71644 0.0
C781 C 0.15986 0.16198 0.64292 0.0
Co782 Co 0.60884 0.35906 0.33609 0.0
Co783 Co 0.62439 0.3405 0.39911 0.0
C784 C 0.61728 0.40242 0.3792 0.0
O785 O 0.60559 0.39729 0.35477 0.0
O786 O 0.6251 0.38222 0.39578 0.0
C787 C 0.62218 0.38162 0.28328 0.0
O788 O 0.63765 0.39667 0.30161 0.0
C789 C 0.62076 0.35005 0.46107 0.0
C790 C 0.64126 0.31137 0.47927 0.0
C791 C 0.62949 0.3376 0.48671 0.0
N792 N 0.6273 0.33222 0.43921 0.0
N793 N 0.6395 0.30908 0.45019 0.0
C794 C 0.6057 0.37815 0.45752 0.0
H795 H 0.62182 0.39501 0.45277 0.0
H796 H 0.59023 0.377 0.43922 0.0
H797 H 0.59407 0.38414 0.47765 0.0
C798 C 0.56192 0.31538 0.34649 0.0
N799 N 0.58515 0.33077 0.35463 0.0
N800 N 0.59161 0.3241 0.38161 0.0
C801 C 0.57268 0.30474 0.39163 0.0
C802 C 0.55326 0.29828 0.36974 0.0
C803 C 0.54923 0.31621 0.31669 0.0
H804 H 0.56651 0.31894 0.30034 0.0
H805 H 0.53461 0.33491 0.31504 0.0
H806 H 0.53683 0.29644 0.31203 0.0
O807 O 0.65018 0.35017 0.33972 0.0
O808 O 0.66014 0.32819 0.38081 0.0
H809 H 0.59127 0.27939 0.42538 0.0
H810 H 0.55248 0.28194 0.42728 0.0
C811 C 0.57253 0.29374 0.42215 0.0
H812 H 0.57451 0.31192 0.43746 0.0
H813 H 0.64726 0.29205 0.43778 0.0
O814 O 0.60456 0.36321 0.29342 0.0
C815 C 0.66817 0.3383 0.35658 0.0
Co816 Co 0.39938 0.85669 0.1674 0.0
Co817 Co 0.39844 0.85016 0.0998 0.0
C818 C 0.40463 0.90777 0.13012 0.0
O819 O 0.40692 0.89699 0.15541 0.0
O820 O 0.4015 0.89178 0.10799 0.0
C821 C 0.37684 0.87257 0.21922 0.0
O822 O 0.36585 0.89089 0.20066 0.0
C823 C 0.41226 0.86279 0.03898 0.0
C824 C 0.38312 0.83241 0.01699 0.0
C825 C 0.40079 0.85576 0.01212 0.0
N826 N 0.40137 0.84471 0.05889 0.0
N827 N 0.3846 0.82614 0.04542 0.0
C828 C 0.4299 0.88864 0.04608 0.0
H829 H 0.43686 0.8884 0.06904 0.0
H830 H 0.44947 0.88923 0.03247 0.0
H831 H 0.4173 0.9082 0.04121 0.0
C832 C 0.44553 0.81153 0.16078 0.0
N833 N 0.42545 0.82962 0.15004 0.0
N834 N 0.42515 0.82736 0.12155 0.0
C835 C 0.44506 0.80794 0.11332 0.0
C836 C 0.45883 0.79716 0.13788 0.0
C837 C 0.45231 0.80862 0.19233 0.0
H838 H 0.44826 0.82915 0.20372 0.0
H839 H 0.47498 0.80186 0.19556 0.0
H840 H 0.43804 0.79207 0.20188 0.0
O841 O 0.35921 0.85 0.15589 0.0
O842 O 0.35786 0.84141 0.10893 0.0
H843 H 0.42896 0.79309 0.07258 0.0
H844 H 0.46491 0.78083 0.08078 0.0
C845 C 0.44982 0.79915 0.08248 0.0
H846 H 0.45845 0.81762 0.07011 0.0
H847 H 0.37225 0.81069 0.056 0.0
O848 O 0.39571 0.85482 0.21027 0.0
C849 C 0.34506 0.84455 0.13305 0.0
Co850 Co 0.89648 0.35923 0.66704 0.0
Co851 Co 0.89141 0.3447 0.60098 0.0
C852 C 0.89517 0.40558 0.62544 0.0
O853 O 0.9016 0.39886 0.65145 0.0
O854 O 0.89114 0.3864 0.60637 0.0
C855 C 0.87604 0.37753 0.71989 0.0
O856 O 0.86403 0.39566 0.70177 0.0
C857 C 0.90078 0.35752 0.53973 0.0
C858 C 0.88012 0.32055 0.51845 0.0
C859 C 0.8923 0.34708 0.51294 0.0
N860 N 0.89351 0.3383 0.56021 0.0
N861 N 0.88135 0.31614 0.54729 0.0
C862 C 0.91574 0.38524 0.54574 0.0
H863 H 0.92968 0.38316 0.56518 0.0
H864 H 0.92895 0.39185 0.52684 0.0
H865 H 0.89949 0.40212 0.54986 0.0
C866 C 0.94396 0.31515 0.66224 0.0
N867 N 0.92278 0.33152 0.65085 0.0
N868 N 0.92085 0.32606 0.62287 0.0
C869 C 0.94086 0.30642 0.61557 0.0
C870 C 0.95627 0.29868 0.64027 0.0
C871 C 0.95229 0.3154 0.69355 0.0
H872 H 0.94916 0.33711 0.70279 0.0
H873 H 0.97497 0.3085 0.69639 0.0
H874 H 0.9382 0.30033 0.70555 0.0
O875 O 0.85617 0.35019 0.65743 0.0
O876 O 0.85246 0.33316 0.61299 0.0
H877 H 0.92339 0.28482 0.57876 0.0
H878 H 0.96118 0.27786 0.58461 0.0
C879 C 0.9441 0.29441 0.58567 0.0
H880 H 0.94919 0.31202 0.57035 0.0
H881 H 0.87256 0.29869 0.55828 0.0
O882 O 0.89448 0.35977 0.71013 0.0
C883 C 0.84096 0.34014 0.63698 0.0
Co884 Co 0.41099 0.15252 0.42013 0.0
Co885 Co 0.40292 0.15559 0.35363 0.0
C886 C 0.3533 0.16012 0.38839 0.0
O887 O 0.36936 0.15342 0.40961 0.0
O888 O 0.36415 0.16722 0.36425 0.0
C889 C 0.39093 0.15035 0.4773 0.0
O890 O 0.36647 0.15632 0.46452 0.0
C891 C 0.38545 0.16092 0.29328 0.0
C892 C 0.4212 0.13902 0.27079 0.0
C893 C 0.39447 0.15134 0.26652 0.0
N894 N 0.40603 0.15468 0.31275 0.0
N895 N 0.42748 0.14188 0.29913 0.0
C896 C 0.35608 0.17159 0.30092 0.0
H897 H 0.3448 0.15488 0.31366 0.0
H898 H 0.35799 0.19119 0.31435 0.0
H899 H 0.34292 0.17635 0.28147 0.0
C900 C 0.45379 0.1991 0.40663 0.0
N901 N 0.43375 0.17954 0.39922 0.0
N902 N 0.43026 0.18021 0.37089 0.0
C903 C 0.44738 0.2005 0.35944 0.0
C904 C 0.46294 0.21315 0.38166 0.0
C905 C 0.46382 0.20423 0.43699 0.0
H906 H 0.44568 0.20149 0.45237 0.0
H907 H 0.47321 0.22596 0.43929 0.0
H908 H 0.48056 0.18818 0.44248 0.0
O909 O 0.42204 0.11341 0.41078 0.0
O910 O 0.40512 0.11491 0.36608 0.0
H911 H 0.45952 0.18843 0.31654 0.0
H912 H 0.46234 0.22625 0.32324 0.0
C913 C 0.44933 0.20685 0.32768 0.0
H914 H 0.4274 0.20963 0.3186 0.0
H915 H 0.44569 0.13368 0.30949 0.0
O916 O 0.41421 0.15276 0.46297 0.0
C917 C 0.41314 0.10073 0.3882 0.0
Co918 Co 0.60578 0.64824 0.17031 0.0
Co919 Co 0.61108 0.65548 0.10381 0.0
C920 C 0.60191 0.59758 0.13304 0.0
O921 O 0.5973 0.60836 0.15798 0.0
O922 O 0.6076 0.61354 0.11143 0.0
C923 C 0.62543 0.6318 0.22273 0.0
O924 O 0.63609 0.61239 0.20514 0.0
C925 C 0.60342 0.64175 0.04277 0.0
C926 C 0.62816 0.67668 0.02227 0.0
C927 C 0.61504 0.65066 0.01666 0.0
N928 N 0.61004 0.66129 0.0631 0.0
N929 N 0.62413 0.6825 0.05055 0.0
C930 C 0.59015 0.61326 0.04919 0.0
H931 H 0.57502 0.61513 0.06769 0.0
H932 H 0.57836 0.60473 0.0302 0.0
H933 H 0.60739 0.59783 0.05476 0.0
C934 C 0.5614 0.69474 0.16225 0.0
N935 N 0.58139 0.67614 0.15232 0.0
N936 N 0.58315 0.67854 0.12393 0.0
C937 C 0.56403 0.69842 0.11487 0.0
C938 C 0.54965 0.70977 0.13888 0.0
C939 C 0.55438 0.69858 0.19367 0.0
H940 H 0.57378 0.69482 0.20714 0.0
H941 H 0.53781 0.68267 0.19997 0.0
H942 H 0.54587 0.72037 0.19793 0.0
O943 O 0.64666 0.654 0.16115 0.0
O944 O 0.65127 0.66436 0.11486 0.0
H945 H 0.57625 0.71806 0.07489 0.0
H946 H 0.53776 0.71643 0.08059 0.0
C947 C 0.55838 0.70485 0.08357 0.0
H948 H 0.5577 0.68462 0.07102 0.0
H949 H 0.63306 0.69974 0.06175 0.0
O950 O 0.60748 0.64995 0.21284 0.0
C951 C 0.66241 0.66021 0.13967 0.0
Co952 Co 0.09953 0.86935 0.83173 0.0
Co953 Co 0.11591 0.85935 0.89688 0.0
C954 C 0.0928 0.91581 0.87301 0.0
O955 O 0.08693 0.90643 0.84776 0.0
O956 O 0.10388 0.89976 0.89232 0.0
C957 C 0.10773 0.89136 0.77797 0.0
O958 O 0.1141 0.91268 0.79533 0.0
C959 C 0.11376 0.86783 0.95953 0.0
C960 C 0.14655 0.83688 0.97441 0.0
C961 C 0.12924 0.85921 0.98362 0.0
N962 N 0.12188 0.85163 0.93689 0.0
N963 N 0.14113 0.83287 0.94603 0.0
C964 C 0.09532 0.89387 0.95689 0.0
H965 H 0.1089 0.91182 0.94914 0.0
H966 H 0.0779 0.88996 0.94092 0.0
H967 H 0.08576 0.90022 0.97791 0.0
C968 C 0.06207 0.81861 0.84444 0.0
N969 N 0.08254 0.83775 0.85178 0.0
N970 N 0.0894 0.83393 0.87924 0.0
C971 C 0.07356 0.81239 0.89024 0.0
C972 C 0.05564 0.80188 0.86861 0.0
C973 C 0.0476 0.81787 0.81548 0.0
H974 H 0.04635 0.83979 0.80628 0.0
H975 H 0.02574 0.80847 0.81712 0.0
H976 H 0.06061 0.80453 0.8005 0.0
O977 O 0.14153 0.87088 0.8357 0.0
O978 O 0.15451 0.85768 0.87968 0.0
H979 H 0.09844 0.7971 0.92598 0.0
H980 H 0.0624 0.78292 0.92487 0.0
C981 C 0.07571 0.80223 0.92095 0.0
H982 H 0.06879 0.81964 0.93575 0.0
H983 H 0.15193 0.81852 0.93248 0.0
O984 O 0.09647 0.86891 0.78885 0.0
C985 C 0.16094 0.86607 0.85434 0.0
Co986 Co 0.91248 0.9002 0.6576 0.0
Co987 Co 0.84681 0.90712 0.64882 0.0
C988 C 0.87654 0.84912 0.65548 0.0
O989 O 0.9006 0.85956 0.66346 0.0
O990 O 0.85544 0.8654 0.64946 0.0
C991 C 0.96569 0.88525 0.63965 0.0
O992 O 0.94889 0.86579 0.62801 0.0
C993 C 0.78652 0.89229 0.65558 0.0
C994 C 0.76624 0.92497 0.62755 0.0
C995 C 0.76079 0.90012 0.64288 0.0
N996 N 0.80649 0.91161 0.6479 0.0
N997 N 0.79411 0.9314 0.63164 0.0
C998 C 0.79291 0.86482 0.67092 0.0
H999 H 0.81164 0.86753 0.6856 0.0
H1000 H 0.774 0.85748 0.68354 0.0
H1001 H 0.79801 0.84809 0.65465 0.0
C1002 C 0.90074 0.94584 0.70276 0.0
N1003 N 0.89254 0.92678 0.6823 0.0
N1004 N 0.8645 0.92868 0.67886 0.0
C1005 C 0.85396 0.94876 0.69695 0.0
C1006 C 0.87651 0.96037 0.71292 0.0
C1007 C 0.93123 0.95043 0.7119 0.0
H1008 H 0.94356 0.93018 0.70998 0.0
H1009 H 0.93227 0.95858 0.7345 0.0
H1010 H 0.94122 0.96651 0.69734 0.0
O1011 O 0.90458 0.90703 0.61621 0.0
O1012 O 0.85939 0.91966 0.61055 0.0
H1013 H 0.81758 0.96554 0.67436 0.0
H1014 H 0.81944 0.97658 0.71173 0.0
C1015 C 0.8233 0.95854 0.69661 0.0
H1016 H 0.80909 0.94034 0.70239 0.0
H1017 H 0.80518 0.94806 0.62151 0.0
O1018 O 0.95491 0.9031 0.65751 0.0
C1019 C 0.884 0.91468 0.59992 0.0
Co1020 Co 0.86448 0.08214 0.39526 0.0
Co1021 Co 0.8692 0.14998 0.3973 0.0
C1022 C 0.86239 0.11844 0.34138 0.0
O1023 O 0.86078 0.09417 0.35389 0.0
O1024 O 0.86429 0.14142 0.356 0.0
C1025 C 0.88111 0.02811 0.37847 0.0
O1026 O 0.89704 0.04563 0.36307 0.0
C1027 C 0.86234 0.21101 0.38266 0.0
C1028 C 0.89527 0.22984 0.41141 0.0
C1029 C 0.87754 0.23597 0.3881 0.0
N1030 N 0.87123 0.19076 0.40147 0.0
N1031 N 0.89037 0.20247 0.41905 0.0
C1032 C 0.8426 0.20571 0.35766 0.0
H1033 H 0.85514 0.20628 0.33722 0.0
H1034 H 0.8315 0.18483 0.35996 0.0
H1035 H 0.82629 0.223 0.35641 0.0
C1036 C 0.81768 0.09582 0.43946 0.0
N1037 N 0.83881 0.10341 0.42078 0.0
N1038 N 0.84114 0.13157 0.4211 0.0
C1039 C 0.82174 0.14262 0.43972 0.0
C1040 C 0.80593 0.12044 0.45202 0.0
C1041 C 0.80856 0.06561 0.44481 0.0
H1042 H 0.81334 0.05212 0.4256 0.0
H1043 H 0.78528 0.06462 0.45003 0.0
H1044 H 0.82076 0.05706 0.4636 0.0
O1045 O 0.90533 0.0896 0.40407 0.0
O1046 O 0.90853 0.13676 0.40529 0.0
H1047 H 0.84141 0.18216 0.45201 0.0
H1048 H 0.80511 0.17803 0.4652 0.0
C1049 C 0.81971 0.17385 0.44666 0.0
H1050 H 0.8119 0.18555 0.42724 0.0
H1051 H 0.90189 0.19112 0.43473 0.0
O1052 O 0.86262 0.03894 0.39585 0.0
C1053 C 0.92026 0.11224 0.40623 0.0
Co1054 Co 0.5889 0.10252 0.1486 0.0
Co1055 Co 0.65443 0.09107 0.1422 0.0
C1056 C 0.62852 0.15059 0.1494 0.0
O1057 O 0.60327 0.14218 0.15586 0.0
O1058 O 0.64823 0.13261 0.14402 0.0
C1059 C 0.5366 0.12254 0.13081 0.0
O1060 O 0.55528 0.13854 0.11689 0.0
C1061 C 0.71368 0.10378 0.15585 0.0
C1062 C 0.73667 0.07534 0.12544 0.0
C1063 C 0.74051 0.09795 0.14447 0.0
N1064 N 0.69469 0.08562 0.14388 0.0
N1065 N 0.70865 0.06816 0.12628 0.0
C1066 C 0.70555 0.1289 0.17424 0.0
H1067 H 0.70305 0.14805 0.16024 0.0
H1068 H 0.685 0.12468 0.18569 0.0
H1069 H 0.72259 0.13363 0.19035 0.0
C1070 C 0.59687 0.05644 0.19525 0.0
N1071 N 0.60642 0.07407 0.17397 0.0
N1072 N 0.63433 0.07023 0.17113 0.0
C1073 C 0.64345 0.05051 0.1904 0.0
C1074 C 0.62009 0.04076 0.20649 0.0
C1075 C 0.56596 0.05398 0.20379 0.0
H1076 H 0.552 0.05657 0.18443 0.0
H1077 H 0.56068 0.07143 0.21922 0.0
H1078 H 0.56158 0.03308 0.21436 0.0
O1079 O 0.59775 0.09634 0.10663 0.0
O1080 O 0.64257 0.08135 0.10254 0.0
H1081 H 0.68196 0.03098 0.17462 0.0
H1082 H 0.67791 0.02897 0.21367 0.0
C1083 C 0.67441 0.0425 0.19424 0.0
H1084 H 0.68749 0.0622 0.19653 0.0
H1085 H 0.69871 0.05301 0.11301 0.0
O1086 O 0.54608 0.10409 0.14887 0.0
C1087 C 0.61874 0.08821 0.09098 0.0
Co1088 Co 0.64764 0.91343 0.89783 0.0
Co1089 Co 0.64376 0.84648 0.90263 0.0
C1090 C 0.64525 0.87968 0.8454 0.0
O1091 O 0.65278 0.90376 0.85594 0.0
O1092 O 0.64123 0.85837 0.86192 0.0
C1093 C 0.62608 0.96631 0.88429 0.0
O1094 O 0.61418 0.9492 0.86512 0.0
C1095 C 0.65364 0.78701 0.88286 0.0
C1096 C 0.62958 0.76376 0.91673 0.0
C1097 C 0.64293 0.76008 0.89009 0.0
N1098 N 0.64616 0.80562 0.90396 0.0
N1099 N 0.63243 0.79134 0.92441 0.0
C1100 C 0.66937 0.79526 0.85578 0.0
H1101 H 0.67049 0.8186 0.85296 0.0
H1102 H 0.692 0.78803 0.85757 0.0
H1103 H 0.65943 0.78505 0.83649 0.0
C1104 C 0.69496 0.9025 0.94196 0.0
N1105 N 0.67436 0.89379 0.92319 0.0
N1106 N 0.67304 0.86563 0.92393 0.0
C1107 C 0.69287 0.85555 0.94264 0.0
C1108 C 0.70753 0.87847 0.95499 0.0
C1109 C 0.70086 0.93326 0.94868 0.0
H1110 H 0.7158 0.94198 0.93214 0.0
H1111 H 0.71076 0.93568 0.97046 0.0
H1112 H 0.68061 0.94579 0.94759 0.0
O1113 O 0.60771 0.90154 0.90497 0.0
O1114 O 0.60525 0.85595 0.91699 0.0
H1115 H 0.68033 0.8157 0.9615 0.0
H1116 H 0.71887 0.82048 0.95887 0.0
C1117 C 0.698 0.82434 0.9479 0.0
H1118 H 0.69787 0.81268 0.92695 0.0
H1119 H 0.62313 0.80086 0.94263 0.0
O1120 O 0.64465 0.95594 0.90181 0.0
C1121 C 0.59304 0.87981 0.91226 0.0
Co1122 Co 0.8285 0.11711 0.84627 0.0
Co1123 Co 0.89626 0.1188 0.84949 0.0
C1124 C 0.86178 0.1059 0.90141 0.0
O1125 O 0.83841 0.10954 0.88753 0.0
O1126 O 0.88594 0.10654 0.88859 0.0
C1127 C 0.77408 0.1316 0.86217 0.0
O1128 O 0.79103 0.14665 0.87905 0.0
C1129 C 0.95508 0.12556 0.87039 0.0
C1130 C 0.98071 0.12765 0.83021 0.0
C1131 C 0.98281 0.12937 0.86016 0.0
N1132 N 0.93747 0.12089 0.84765 0.0
N1133 N 0.95293 0.1225 0.82365 0.0
C1134 C 0.9448 0.13087 0.90069 0.0
H1135 H 0.92449 0.14332 0.90026 0.0
H1136 H 0.94065 0.11003 0.91136 0.0
H1137 H 0.96097 0.14282 0.91361 0.0
C1138 C 0.84214 0.0722 0.80174 0.0
N1139 N 0.85023 0.093 0.82037 0.0
N1140 N 0.87857 0.09343 0.82198 0.0
C1141 C 0.88924 0.07234 0.80505 0.0
C1142 C 0.86663 0.05827 0.79136 0.0
C1143 C 0.81147 0.0658 0.79445 0.0
H1144 H 0.79917 0.08608 0.79253 0.0
H1145 H 0.80177 0.05319 0.81234 0.0
H1146 H 0.80978 0.05346 0.77394 0.0
O1147 O 0.83643 0.15813 0.84065 0.0
O1148 O 0.88351 0.15927 0.84672 0.0
H1149 H 0.93158 0.07413 0.78725 0.0
H1150 H 0.9218 0.03965 0.80124 0.0
C1151 C 0.92004 0.06304 0.80504 0.0
H1152 H 0.93039 0.06836 0.82601 0.0
H1153 H 0.94438 0.12138 0.80277 0.0
O1154 O 0.78562 0.1145 0.84395 0.0
C1155 C 0.8596 0.17213 0.84367 0.0
Co1156 Co 0.65527 0.16416 0.59739 0.0
Co1157 Co 0.65652 0.09812 0.5988 0.0
C1158 C 0.60177 0.13332 0.59066 0.0
O1159 O 0.61481 0.15677 0.58583 0.0
O1160 O 0.61586 0.11065 0.59611 0.0
C1161 C 0.64018 0.21443 0.62057 0.0
O1162 O 0.62006 0.19637 0.62861 0.0
C1163 C 0.63591 0.04194 0.58169 0.0
C1164 C 0.66876 0.01362 0.60091 0.0
C1165 C 0.64268 0.01367 0.58644 0.0
N1166 N 0.65704 0.05817 0.5928 0.0
N1167 N 0.67689 0.0411 0.60385 0.0
C1168 C 0.60875 0.05312 0.56851 0.0
H1169 H 0.61326 0.07278 0.5558 0.0
H1170 H 0.59874 0.03679 0.55422 0.0
H1171 H 0.59332 0.05833 0.58605 0.0
C1172 C 0.70238 0.15427 0.55284 0.0
N1173 N 0.68254 0.14546 0.57237 0.0
N1174 N 0.68218 0.1173 0.5727 0.0
C1175 C 0.70146 0.10732 0.55328 0.0
C1176 C 0.7152 0.13031 0.53999 0.0
C1177 C 0.70933 0.18503 0.54731 0.0
H1178 H 0.70762 0.19744 0.56776 0.0
H1179 H 0.69343 0.19391 0.53176 0.0
H1180 H 0.73122 0.1874 0.53801 0.0
O1181 O 0.6572 0.15058 0.63798 0.0
O1182 O 0.66552 0.10429 0.6402 0.0
H1183 H 0.71661 0.06559 0.56448 0.0
H1184 H 0.71784 0.07311 0.52605 0.0
C1185 C 0.70531 0.07627 0.54626 0.0
H1186 H 0.68399 0.06601 0.54352 0.0
H1187 H 0.69515 0.04826 0.61483 0.0
O1188 O 0.65967 0.20587 0.60312 0.0
C1189 C 0.66115 0.12807 0.65283 0.0
Co1190 Co 0.66396 0.89152 0.35182 0.0
Co1191 Co 0.596 0.8909 0.35295 0.0
C1192 C 0.62952 0.89415 0.40791 0.0
O1193 O 0.65309 0.89393 0.39379 0.0
O1194 O 0.6054 0.89473 0.39481 0.0
C1195 C 0.71722 0.87197 0.36707 0.0
O1196 O 0.69905 0.85732 0.38301 0.0
C1197 C 0.53448 0.89726 0.36677 0.0
C1198 C 0.51477 0.87381 0.33022 0.0
C1199 C 0.50858 0.88678 0.35645 0.0
N1200 N 0.55521 0.89069 0.34755 0.0
N1201 N 0.54317 0.87701 0.32557 0.0
C1202 C 0.54019 0.90862 0.39645 0.0
H1203 H 0.54679 0.89043 0.41038 0.0
H1204 H 0.55783 0.92459 0.39569 0.0
H1205 H 0.52075 0.91843 0.40616 0.0
C1206 C 0.65169 0.93923 0.30855 0.0
N1207 N 0.64352 0.91891 0.3278 0.0
N1208 N 0.61517 0.91855 0.32896 0.0
C1209 C 0.60457 0.93871 0.31088 0.0
C1210 C 0.62728 0.95266 0.29721 0.0
C1211 C 0.68228 0.94559 0.30102 0.0
H1212 H 0.69657 0.94039 0.31956 0.0
H1213 H 0.68483 0.9684 0.29479 0.0
H1214 H 0.68868 0.93212 0.28227 0.0
O1215 O 0.65448 0.85196 0.34113 0.0
O1216 O 0.60708 0.85123 0.34397 0.0
H1217 H 0.56417 0.92328 0.29553 0.0
H1218 H 0.56894 0.96113 0.29047 0.0
C1219 C 0.57313 0.94299 0.30537 0.0
H1220 H 0.5619 0.94667 0.32627 0.0
H1221 H 0.55463 0.8683 0.30821 0.0
O1222 O 0.70719 0.89114 0.35004 0.0
C1223 C 0.63088 0.83839 0.34046 0.0
Co1224 Co 0.85455 0.8383 0.1044 0.0
Co1225 Co 0.84117 0.90234 0.11546 0.0
C1226 C 0.90124 0.87608 0.10847 0.0
O1227 O 0.8936 0.85298 0.09622 0.0
O1228 O 0.88265 0.89412 0.11682 0.0
C1229 C 0.87742 0.78824 0.12167 0.0
O1230 O 0.89326 0.80829 0.1336 0.0
C1231 C 0.85817 0.96234 0.11243 0.0
C1232 C 0.81988 0.984 0.13045 0.0
C1233 C 0.84802 0.98866 0.12177 0.0
N1234 N 0.83702 0.94293 0.11571 0.0
N1235 N 0.8141 0.9561 0.12615 0.0
C1236 C 0.88865 0.95473 0.10515 0.0
H1237 H 0.89898 0.94515 0.12454 0.0
H1238 H 0.88896 0.93896 0.08717 0.0
H1239 H 0.90171 0.97344 0.0988 0.0
C1240 C 0.80954 0.84772 0.05743 0.0
N1241 N 0.82614 0.85632 0.0799 0.0
N1242 N 0.82178 0.88388 0.08417 0.0
C1243 C 0.80265 0.89366 0.06455 0.0
C1244 C 0.79416 0.87114 0.04684 0.0
C1245 C 0.80883 0.81785 0.0459 0.0
H1246 H 0.8283 0.80588 0.05275 0.0
H1247 H 0.80715 0.81811 0.02187 0.0
H1248 H 0.78954 0.8068 0.05456 0.0
O1249 O 0.84858 0.8466 0.14642 0.0
O1250 O 0.82821 0.88862 0.15332 0.0
H1251 H 0.78037 0.92843 0.08435 0.0
H1252 H 0.77671 0.92744 0.04547 0.0
C1253 C 0.79176 0.92379 0.06377 0.0
H1254 H 0.81019 0.93875 0.06201 0.0
H1255 H 0.79517 0.9457 0.13222 0.0
O1256 O 0.85723 0.79579 0.10447 0.0
C1257 C 0.83804 0.86527 0.16339 0.0
Co1258 Co 0.15822 0.66387 0.09381 0.0
Co1259 Co 0.16181 0.5982 0.09652 0.0
C1260 C 0.10541 0.63179 0.09268 0.0
O1261 O 0.11703 0.65541 0.08549 0.0
O1262 O 0.12086 0.6099 0.09744 0.0
C1263 C 0.14412 0.71439 0.11704 0.0
O1264 O 0.12512 0.69623 0.12732 0.0
C1265 C 0.14051 0.54331 0.07826 0.0
C1266 C 0.16654 0.51408 0.10516 0.0
C1267 C 0.14287 0.51522 0.08694 0.0
N1268 N 0.16165 0.55832 0.09098 0.0
N1269 N 0.17769 0.54061 0.10639 0.0
C1270 C 0.11619 0.55622 0.06154 0.0
H1271 H 0.12288 0.57684 0.05168 0.0
H1272 H 0.1089 0.54132 0.04428 0.0
H1273 H 0.09777 0.55997 0.07634 0.0
C1274 C 0.20376 0.65444 0.04751 0.0
N1275 N 0.18448 0.64548 0.06752 0.0
N1276 N 0.18495 0.61736 0.06843 0.0
C1277 C 0.20413 0.60747 0.04892 0.0
C1278 C 0.217 0.63057 0.03489 0.0
C1279 C 0.21043 0.68527 0.04196 0.0
H1280 H 0.2087 0.69767 0.06242 0.0
H1281 H 0.1944 0.69401 0.02647 0.0
H1282 H 0.23227 0.68784 0.03261 0.0
O1283 O 0.16312 0.65087 0.13433 0.0
O1284 O 0.17417 0.60515 0.13675 0.0
H1285 H 0.21982 0.56656 0.06233 0.0
H1286 H 0.2224 0.57272 0.02361 0.0
C1287 C 0.2091 0.57631 0.04322 0.0
H1288 H 0.18813 0.56543 0.04017 0.0
H1289 H 0.1946 0.54706 0.11976 0.0
O1290 O 0.16224 0.70565 0.09827 0.0
C1291 C 0.16921 0.62887 0.14925 0.0
Co1292 Co 0.1673 0.40099 0.85274 0.0
Co1293 Co 0.0996 0.39502 0.84866 0.0
C1294 C 0.13063 0.40101 0.9058 0.0
O1295 O 0.15507 0.40515 0.89401 0.0
O1296 O 0.10818 0.39742 0.89047 0.0
C1297 C 0.22115 0.38353 0.86976 0.0
O1298 O 0.20332 0.36962 0.88678 0.0
C1299 C 0.03841 0.40053 0.86371 0.0
C1300 C 0.01902 0.37236 0.83054 0.0
C1301 C 0.01297 0.3871 0.85586 0.0
N1302 N 0.05876 0.39354 0.84416 0.0
N1303 N 0.04682 0.37716 0.82412 0.0
C1304 C 0.04426 0.41622 0.89135 0.0
H1305 H 0.04872 0.40049 0.90879 0.0
H1306 H 0.06315 0.43051 0.88879 0.0
H1307 H 0.02531 0.42905 0.898 0.0
C1308 C 0.1542 0.44715 0.8078 0.0
N1309 N 0.14639 0.42644 0.82678 0.0
N1310 N 0.11813 0.42387 0.82596 0.0
C1311 C 0.10723 0.4427 0.8067 0.0
C1312 C 0.12961 0.45837 0.79449 0.0
C1313 C 0.18463 0.45598 0.80247 0.0
H1314 H 0.19804 0.45158 0.82188 0.0
H1315 H 0.18574 0.47903 0.79672 0.0
H1316 H 0.1933 0.44341 0.78402 0.0
O1317 O 0.15942 0.36047 0.84405 0.0
O1318 O 0.11246 0.35661 0.83806 0.0
H1319 H 0.06894 0.42217 0.79181 0.0
H1320 H 0.07191 0.45895 0.78052 0.0
C1321 C 0.07607 0.44381 0.79856 0.0
H1322 H 0.06322 0.4501 0.81781 0.0
H1323 H 0.05818 0.36751 0.80721 0.0
O1324 O 0.21065 0.40168 0.85186 0.0
C1325 C 0.13728 0.34538 0.83906 0.0
Co1326 Co 0.35438 0.33554 0.59385 0.0
Co1327 Co 0.34039 0.39912 0.60693 0.0
C1328 C 0.40105 0.37535 0.59843 0.0
O1329 O 0.39322 0.35171 0.58733 0.0
O1330 O 0.38246 0.39334 0.60703 0.0
C1331 C 0.37781 0.28603 0.61093 0.0
O1332 O 0.39297 0.30635 0.62332 0.0
C1333 C 0.35389 0.45917 0.59991 0.0
C1334 C 0.31825 0.4804 0.62308 0.0
C1335 C 0.34427 0.48537 0.60946 0.0
N1336 N 0.3346 0.43922 0.60769 0.0
N1337 N 0.31311 0.45207 0.62122 0.0
C1338 C 0.38163 0.45325 0.58462 0.0
H1339 H 0.37914 0.43475 0.56974 0.0
H1340 H 0.38874 0.47232 0.57217 0.0
H1341 H 0.39846 0.44823 0.6009 0.0
C1342 C 0.3088 0.34553 0.54777 0.0
N1343 N 0.32586 0.35371 0.57003 0.0
N1344 N 0.32111 0.381 0.57543 0.0
C1345 C 0.30122 0.39106 0.5568 0.0
C1346 C 0.29236 0.36891 0.53878 0.0
C1347 C 0.30779 0.31582 0.53582 0.0
H1348 H 0.31592 0.30024 0.55203 0.0
H1349 H 0.32165 0.31471 0.51627 0.0
H1350 H 0.28551 0.3102 0.52928 0.0
O1351 O 0.34653 0.3417 0.63545 0.0
O1352 O 0.32814 0.38414 0.6447 0.0
H1353 H 0.27941 0.42719 0.57483 0.0
H1354 H 0.27943 0.42643 0.53556 0.0
C1355 C 0.29226 0.42182 0.5553 0.0
H1356 H 0.31162 0.43565 0.55517 0.0
H1357 H 0.29571 0.44133 0.63049 0.0
O1358 O 0.35797 0.29316 0.59314 0.0
C1359 C 0.33619 0.35958 0.6533 0.0
Co1360 Co 0.0841 0.60133 0.64215 0.0
Co1361 Co 0.15124 0.60234 0.64331 0.0
C1362 C 0.11773 0.65566 0.65188 0.0
O1363 O 0.09415 0.64208 0.64933 0.0
O1364 O 0.14172 0.64265 0.65148 0.0
C1365 C 0.03133 0.61803 0.62416 0.0
O1366 O 0.0495 0.63366 0.60917 0.0
C1367 C 0.21106 0.61631 0.65603 0.0
C1368 C 0.23383 0.58425 0.62943 0.0
C1369 C 0.23795 0.6084 0.64631 0.0
N1370 N 0.19171 0.59777 0.64531 0.0
N1371 N 0.20554 0.57822 0.62999 0.0
C1372 C 0.20357 0.64346 0.67131 0.0
H1373 H 0.19777 0.65973 0.6548 0.0
H1374 H 0.18498 0.6399 0.68595 0.0
H1375 H 0.22203 0.65173 0.68404 0.0
C1376 C 0.09495 0.55603 0.68842 0.0
N1377 N 0.10359 0.5754 0.66838 0.0
N1378 N 0.13189 0.57638 0.66854 0.0
C1379 C 0.1421 0.55806 0.68869 0.0
C1380 C 0.11915 0.54425 0.70207 0.0
C1381 C 0.06413 0.54867 0.69386 0.0
H1382 H 0.05193 0.54916 0.67317 0.0
H1383 H 0.05465 0.56499 0.7085 0.0
H1384 H 0.06212 0.52729 0.70415 0.0
O1385 O 0.09425 0.59524 0.60079 0.0
O1386 O 0.14169 0.59758 0.60159 0.0
H1387 H 0.18476 0.54416 0.67882 0.0
H1388 H 0.17648 0.54384 0.71714 0.0
C1389 C 0.17327 0.55555 0.69647 0.0
H1390 H 0.18276 0.57722 0.6986 0.0
H1391 H 0.19543 0.56202 0.61822 0.0
O1392 O 0.0414 0.60021 0.64254 0.0
C1393 C 0.1182 0.59591 0.58756 0.0
Co1394 Co 0.41139 0.40301 0.14488 0.0
Co1395 Co 0.34501 0.40788 0.13959 0.0
C1396 C 0.37574 0.35098 0.14783 0.0
O1397 O 0.40007 0.36258 0.15279 0.0
O1398 O 0.35352 0.36618 0.14291 0.0
C1399 C 0.46501 0.38773 0.1275 0.0
O1400 O 0.44852 0.36781 0.1162 0.0
C1401 C 0.28365 0.39516 0.14625 0.0
C1402 C 0.26416 0.43491 0.12924 0.0
C1403 C 0.25768 0.40793 0.13966 0.0
N1404 N 0.30476 0.4138 0.14005 0.0
N1405 N 0.29295 0.43752 0.1299 0.0
C1406 C 0.28825 0.36563 0.15783 0.0
H1407 H 0.3065 0.36553 0.17333 0.0
H1408 H 0.26858 0.35757 0.16876 0.0
H1409 H 0.29346 0.35109 0.13958 0.0
C1410 C 0.4014 0.4501 0.18876 0.0
N1411 N 0.39225 0.43041 0.16931 0.0
N1412 N 0.364 0.43141 0.16789 0.0
C1413 C 0.35429 0.45129 0.18684 0.0
C1414 C 0.37761 0.46409 0.20064 0.0
C1415 C 0.43236 0.45529 0.19576 0.0
H1416 H 0.44394 0.43457 0.19721 0.0
H1417 H 0.43474 0.46734 0.21637 0.0
H1418 H 0.44225 0.46781 0.1779 0.0
O1419 O 0.40249 0.40793 0.10338 0.0
O1420 O 0.35618 0.41692 0.09945 0.0
H1421 H 0.31639 0.47209 0.17151 0.0
H1422 H 0.31948 0.4719 0.21027 0.0
C1423 C 0.32327 0.45911 0.1904 0.0
H1424 H 0.30994 0.43945 0.19124 0.0
H1425 H 0.30463 0.45512 0.12245 0.0
O1426 O 0.45376 0.40606 0.14452 0.0
C1427 C 0.38063 0.41309 0.08782 0.0
Co1428 Co 0.64159 0.42168 0.10586 0.0
Co1429 Co 0.63795 0.35412 0.10313 0.0
C1430 C 0.64634 0.38598 0.15931 0.0
O1431 O 0.64882 0.41017 0.14684 0.0
O1432 O 0.64255 0.36319 0.1447 0.0
C1433 C 0.62446 0.47473 0.1239 0.0
O1434 O 0.6115 0.45657 0.14125 0.0
C1435 C 0.64284 0.29282 0.11844 0.0
C1436 C 0.63 0.27208 0.0774 0.0
C1437 C 0.63749 0.26649 0.10589 0.0
N1438 N 0.63859 0.31332 0.09832 0.0
N1439 N 0.63085 0.30069 0.07386 0.0
C1440 C 0.65151 0.29819 0.14917 0.0
H1441 H 0.66823 0.31509 0.15002 0.0
H1442 H 0.65986 0.27841 0.15952 0.0
H1443 H 0.63243 0.30555 0.16146 0.0
C1444 C 0.68598 0.41045 0.05897 0.0
N1445 N 0.66636 0.40179 0.0788 0.0
N1446 N 0.66534 0.37357 0.07867 0.0
C1447 C 0.68464 0.36353 0.05925 0.0
C1448 C 0.69815 0.38648 0.04559 0.0
C1449 C 0.69239 0.44113 0.05244 0.0
H1450 H 0.67331 0.45463 0.05703 0.0
H1451 H 0.7103 0.44837 0.06657 0.0
H1452 H 0.69905 0.44378 0.02948 0.0
O1453 O 0.6007 0.41242 0.09955 0.0
O1454 O 0.59788 0.36545 0.09489 0.0
H1455 H 0.67575 0.32249 0.04087 0.0
H1456 H 0.71347 0.32964 0.04603 0.0
C1457 C 0.69174 0.33249 0.05554 0.0
H1458 H 0.69087 0.32142 0.0768 0.0
H1459 H 0.62535 0.31167 0.05493 0.0
O1460 O 0.64174 0.46469 0.10488 0.0
C1461 C 0.58587 0.38987 0.09613 0.0
Co1462 Co 0.86012 0.67461 0.60207 0.0
Co1463 Co 0.85029 0.60756 0.60535 0.0
C1464 C 0.90935 0.63526 0.60199 0.0
O1465 O 0.90033 0.66065 0.59746 0.0
O1466 O 0.89207 0.61444 0.60517 0.0
C1467 C 0.87487 0.72782 0.62403 0.0
O1468 O 0.89039 0.71016 0.63976 0.0
C1469 C 0.86377 0.54607 0.60016 0.0
C1470 C 0.82247 0.52641 0.61274 0.0
C1471 C 0.8508 0.52008 0.60612 0.0
N1472 N 0.84408 0.56702 0.60332 0.0
N1473 N 0.81942 0.55501 0.61078 0.0
C1474 C 0.89451 0.55068 0.59192 0.0
H1475 H 0.89618 0.56821 0.57579 0.0
H1476 H 0.90403 0.53086 0.58275 0.0
H1477 H 0.9069 0.55667 0.61152 0.0
C1478 C 0.81669 0.66824 0.55454 0.0
N1479 N 0.83402 0.65722 0.5752 0.0
N1480 N 0.83051 0.62921 0.57605 0.0
C1481 C 0.81121 0.62158 0.55557 0.0
C1482 C 0.80159 0.64605 0.54134 0.0
C1483 C 0.81467 0.69948 0.54781 0.0
H1484 H 0.83647 0.70914 0.54798 0.0
H1485 H 0.80423 0.70318 0.52647 0.0
H1486 H 0.80183 0.71017 0.56497 0.0
O1487 O 0.85016 0.66444 0.64192 0.0
O1488 O 0.83861 0.61867 0.6447 0.0
H1489 H 0.7887 0.58922 0.53054 0.0
H1490 H 0.81933 0.57664 0.55114 0.0
C1491 C 0.80081 0.5916 0.5511 0.0
H1492 H 0.78635 0.58573 0.56926 0.0
H1493 H 0.80082 0.56645 0.61595 0.0
O1494 O 0.85974 0.71747 0.60342 0.0
C1495 C 0.84216 0.64293 0.65659 0.0
Co1496 Co 0.66613 0.38638 0.65209 0.0
Co1497 Co 0.60007 0.37845 0.6614 0.0
C1498 C 0.63028 0.38475 0.60253 0.0
O1499 O 0.65444 0.39371 0.61172 0.0
O1500 O 0.61012 0.37844 0.61995 0.0
C1501 C 0.71947 0.36814 0.63679 0.0
O1502 O 0.70267 0.3564 0.61719 0.0
C1503 C 0.54057 0.3865 0.64241 0.0
C1504 C 0.51587 0.3718 0.68049 0.0
C1505 C 0.51302 0.38119 0.65217 0.0
N1506 N 0.55914 0.38044 0.66395 0.0
N1507 N 0.5442 0.37168 0.68667 0.0
C1508 C 0.54896 0.39658 0.6128 0.0
H1509 H 0.56658 0.4125 0.6145 0.0
H1510 H 0.53038 0.40632 0.60133 0.0
H1511 H 0.55672 0.37808 0.59991 0.0
C1512 C 0.65664 0.43232 0.69593 0.0
N1513 N 0.64719 0.41087 0.6789 0.0
N1514 N 0.61925 0.4079 0.68247 0.0
C1515 C 0.61001 0.42748 0.70183 0.0
C1516 C 0.6334 0.44362 0.71111 0.0
C1517 C 0.68725 0.44212 0.69689 0.0
H1518 H 0.69675 0.44116 0.67483 0.0
H1519 H 0.68893 0.4642 0.70562 0.0
H1520 H 0.69973 0.42743 0.71102 0.0
O1521 O 0.65624 0.34588 0.65791 0.0
O1522 O 0.61183 0.33985 0.6735 0.0
H1523 H 0.57653 0.44728 0.72787 0.0
H1524 H 0.56499 0.43225 0.69355 0.0
C1525 C 0.57964 0.42944 0.71235 0.0
H1526 H 0.57386 0.40913 0.72331 0.0
H1527 H 0.55337 0.36452 0.70602 0.0
O1528 O 0.70852 0.38555 0.65497 0.0
C1529 C 0.63613 0.32955 0.66634 0.0
Co1530 Co 0.36656 0.58398 0.89122 0.0
Co1531 Co 0.37451 0.65059 0.89546 0.0
C1532 C 0.36722 0.61765 0.83851 0.0
O1533 O 0.35997 0.59383 0.84979 0.0
O1534 O 0.37325 0.63902 0.85439 0.0
C1535 C 0.383 0.52918 0.87766 0.0
O1536 O 0.39493 0.54465 0.85714 0.0
C1537 C 0.36629 0.71119 0.87742 0.0
C1538 C 0.39365 0.73246 0.91012 0.0
C1539 C 0.3784 0.73745 0.88479 0.0
N1540 N 0.37454 0.69161 0.89733 0.0
N1541 N 0.39035 0.70473 0.91707 0.0
C1542 C 0.34906 0.70455 0.85079 0.0
H1543 H 0.34752 0.68142 0.84674 0.0
H1544 H 0.3267 0.71211 0.85402 0.0
H1545 H 0.35822 0.71559 0.83158 0.0
C1546 C 0.32022 0.59768 0.93527 0.0
N1547 N 0.3418 0.60517 0.91714 0.0
N1548 N 0.34501 0.63318 0.91821 0.0
C1549 C 0.3256 0.64431 0.93682 0.0
C1550 C 0.30904 0.62225 0.94832 0.0
C1551 C 0.31015 0.5676 0.93958 0.0
H1552 H 0.31396 0.55481 0.91967 0.0
H1553 H 0.28698 0.56713 0.94538 0.0
H1554 H 0.32256 0.55781 0.9576 0.0
O1555 O 0.40769 0.59284 0.89702 0.0
O1556 O 0.41328 0.63856 0.90746 0.0
H1557 H 0.30866 0.67958 0.96226 0.0
H1558 H 0.31775 0.68782 0.92495 0.0
C1559 C 0.32413 0.67541 0.94445 0.0
H1560 H 0.34575 0.68288 0.95119 0.0
H1561 H 0.40053 0.69431 0.93428 0.0
O1562 O 0.36638 0.54153 0.89578 0.0
C1563 C 0.42386 0.61381 0.90333 0.0
Co1564 Co 0.14471 0.4144 0.39385 0.0
Co1565 Co 0.14526 0.34661 0.39124 0.0
C1566 C 0.14614 0.38397 0.33765 0.0
O1567 O 0.14892 0.40736 0.35153 0.0
O1568 O 0.14515 0.36018 0.35095 0.0
C1569 C 0.12291 0.4674 0.38314 0.0
O1570 O 0.10965 0.45044 0.36476 0.0
C1571 C 0.15132 0.28558 0.37228 0.0
C1572 C 0.13369 0.26453 0.41129 0.0
C1573 C 0.14262 0.2592 0.38317 0.0
N1574 N 0.14739 0.30558 0.39309 0.0
N1575 N 0.1373 0.29259 0.41642 0.0
C1576 C 0.16067 0.29171 0.34185 0.0
H1577 H 0.15733 0.31419 0.33604 0.0
H1578 H 0.18407 0.28753 0.33997 0.0
H1579 H 0.14907 0.27784 0.32617 0.0
C1580 C 0.19233 0.40219 0.43634 0.0
N1581 N 0.17238 0.39383 0.41682 0.0
N1582 N 0.17301 0.36567 0.41481 0.0
C1583 C 0.19367 0.35537 0.4325 0.0
C1584 C 0.20657 0.37808 0.44692 0.0
C1585 C 0.19723 0.43265 0.44496 0.0
H1586 H 0.19596 0.44665 0.42556 0.0
H1587 H 0.21839 0.43531 0.4558 0.0
H1588 H 0.17998 0.43932 0.46014 0.0
O1589 O 0.10532 0.40195 0.40208 0.0
O1590 O 0.10576 0.35475 0.40361 0.0
H1591 H 0.18175 0.31484 0.45004 0.0
H1592 H 0.21996 0.32045 0.44868 0.0
C1593 C 0.19945 0.32417 0.43701 0.0
H1594 H 0.20008 0.31305 0.41576 0.0
H1595 H 0.13099 0.30326 0.43528 0.0
O1596 O 0.14225 0.45673 0.39958 0.0
C1597 C 0.09223 0.3783 0.40484 0.0
Co1598 Co 0.33237 0.61439 0.3434 0.0
Co1599 Co 0.39939 0.62249 0.33819 0.0
C1600 C 0.3703 0.60779 0.39467 0.0
O1601 O 0.34551 0.60511 0.38323 0.0
O1602 O 0.39216 0.61384 0.37929 0.0
C1603 C 0.27795 0.62699 0.36271 0.0
O1604 O 0.29495 0.64009 0.3812 0.0
C1605 C 0.46081 0.61307 0.34961 0.0
C1606 C 0.47984 0.6487 0.32469 0.0
C1607 C 0.48624 0.62775 0.34489 0.0
N1608 N 0.4401 0.62503 0.33316 0.0
N1609 N 0.45183 0.6459 0.31785 0.0
C1610 C 0.45568 0.5905 0.372 0.0
H1611 H 0.43434 0.58034 0.36894 0.0
H1612 H 0.47262 0.57386 0.37068 0.0
H1613 H 0.45706 0.60026 0.39387 0.0
C1614 C 0.34517 0.57103 0.29611 0.0
N1615 N 0.35295 0.59221 0.31454 0.0
N1616 N 0.38104 0.59567 0.31285 0.0
C1617 C 0.39194 0.57682 0.29357 0.0
C1618 C 0.36961 0.56051 0.28198 0.0
C1619 C 0.31494 0.56071 0.29259 0.0
H1620 H 0.29962 0.5786 0.29598 0.0
H1621 H 0.31054 0.54408 0.30919 0.0
H1622 H 0.31165 0.5512 0.27077 0.0
O1623 O 0.3387 0.65629 0.3404 0.0
O1624 O 0.38531 0.66225 0.33393 0.0
H1625 H 0.43242 0.59162 0.27758 0.0
H1626 H 0.42818 0.55307 0.27611 0.0
C1627 C 0.42353 0.57262 0.2889 0.0
H1628 H 0.43447 0.57088 0.3102 0.0
H1629 H 0.44023 0.65969 0.30437 0.0
O1630 O 0.28942 0.61155 0.34299 0.0
C1631 C 0.36029 0.67265 0.33747 0.0
C1632 C 0.10367 0.37082 0.97736 0.0
C1633 C 0.12633 0.37647 0.99666 0.0
C1634 C 0.10484 0.37998 0.94843 0.0
C1635 C 0.1288 0.39503 0.93745 0.0
H1636 H 0.08467 0.35953 0.98469 0.0
H1637 H 0.08699 0.37448 0.93442 0.0
S1638 S 0.19403 0.41512 0.97916 0.0
N1639 N 0.17361 0.39808 0.00281 0.0
N1640 N 0.17578 0.41514 0.94844 0.0
C1641 C 0.15164 0.40084 0.95656 0.0
C1642 C 0.15041 0.3916 0.9861 0.0
C1643 C 0.84955 0.88716 0.24159 0.0
C1644 C 0.86544 0.86419 0.2532 0.0
C1645 C 0.83904 0.88649 0.21316 0.0
C1646 C 0.84384 0.86274 0.19503 0.0
H1647 H 0.84561 0.90621 0.25437 0.0
H1648 H 0.82799 0.90527 0.20506 0.0
S1649 S 0.88161 0.79562 0.21602 0.0
N1650 N 0.88377 0.81612 0.2451 0.0
N1651 N 0.86367 0.81451 0.19176 0.0
C1652 C 0.85858 0.83899 0.20684 0.0
C1653 C 0.86956 0.83984 0.2358 0.0
C1654 C 0.40342 0.62879 0.46621 0.0
C1655 C 0.37922 0.63589 0.48281 0.0
C1656 C 0.40035 0.6166 0.43865 0.0
C1657 C 0.37296 0.6113 0.42659 0.0
H1658 H 0.42478 0.63423 0.47379 0.0
H1659 H 0.41962 0.61322 0.42599 0.0
S1660 S 0.30302 0.62173 0.46414 0.0
N1661 N 0.32728 0.63358 0.48739 0.0
N1662 N 0.32129 0.61056 0.43559 0.0
C1663 C 0.34868 0.61604 0.44425 0.0
C1664 C 0.35187 0.62861 0.47227 0.0
C1665 C 0.6451 0.15552 0.69654 0.0
C1666 C 0.65283 0.12899 0.68403 0.0
C1667 C 0.62944 0.15698 0.72249 0.0
C1668 C 0.62115 0.13203 0.73718 0.0
H1669 H 0.64955 0.17539 0.6853 0.0
H1670 H 0.62238 0.17774 0.73012 0.0
S1671 S 0.63955 0.05748 0.7166 0.0
N1672 N 0.65351 0.07725 0.69047 0.0
N1673 N 0.62443 0.08019 0.73941 0.0
C1674 C 0.63044 0.1055 0.7262 0.0
C1675 C 0.64637 0.10394 0.69974 0.0
C1676 C 0.09566 0.6232 0.51321 0.0
C1677 C 0.12073 0.61995 0.49649 0.0
C1678 C 0.09448 0.61368 0.5421 0.0
C1679 C 0.11847 0.60086 0.55565 0.0
H1680 H 0.07671 0.63312 0.50393 0.0
H1681 H 0.07487 0.61741 0.5542 0.0
S1682 S 0.18905 0.58636 0.52112 0.0
N1683 N 0.16993 0.60199 0.49544 0.0
N1684 N 0.16774 0.58459 0.54968 0.0
C1685 C 0.1435 0.597 0.53901 0.0
C1686 C 0.14463 0.60643 0.50951 0.0
C1687 C 0.63628 0.90138 0.79629 0.0
C1688 C 0.63549 0.87734 0.81469 0.0
C1689 C 0.62254 0.90108 0.76916 0.0
C1690 C 0.60764 0.87673 0.75931 0.0
H1691 H 0.6467 0.92094 0.80327 0.0
H1692 H 0.62329 0.92022 0.75591 0.0
S1693 S 0.59865 0.80824 0.79865 0.0
N1694 N 0.61847 0.82815 0.8204 0.0
N1695 N 0.59252 0.82822 0.76981 0.0
C1696 C 0.60715 0.8524 0.77698 0.0
C1697 C 0.62115 0.85253 0.80453 0.0
C1698 C 0.35644 0.39956 0.01059 0.0
C1699 C 0.38042 0.38593 0.99813 0.0
C1700 C 0.3573 0.41017 0.03899 0.0
C1701 C 0.38233 0.4079 0.05603 0.0
H1702 H 0.33647 0.40139 0.9986 0.0
H1703 H 0.33779 0.41924 0.04795 0.0
S1704 S 0.45243 0.37776 0.0318 0.0
N1705 N 0.43077 0.37316 0.0038 0.0
N1706 N 0.43281 0.3936 0.05693 0.0
C1707 C 0.4071 0.39591 0.04308 0.0
C1708 C 0.40602 0.38469 0.01427 0.0
C1709 C 0.88356 0.15051 0.26919 0.0
C1710 C 0.89494 0.12702 0.25399 0.0
C1711 C 0.87086 0.1471 0.29647 0.0
C1712 C 0.86895 0.12007 0.30987 0.0
H1713 H 0.88482 0.17189 0.26019 0.0
H1714 H 0.86342 0.16608 0.30757 0.0
S1715 S 0.89222 0.05097 0.27759 0.0
N1716 N 0.90118 0.07524 0.25323 0.0
N1717 N 0.87715 0.06887 0.30442 0.0
C1718 C 0.87873 0.0961 0.29417 0.0
C1719 C 0.8919 0.09959 0.26638 0.0
C1720 C 0.96402 0.08548 0.39017 0.0
C1721 C 0.9519 0.11023 0.40276 0.0
C1722 C 0.9927 0.08498 0.3808 0.0
C1723 C 0.0105 0.10906 0.38399 0.0
H1724 H 0.95098 0.06666 0.38632 0.0
H1725 H 1.00092 0.06558 0.37094 0.0
S1726 S 0.9899 0.17863 0.41717 0.0
N1727 N 0.96048 0.15899 0.41909 0.0
N1728 N 0.01431 0.15805 0.40169 0.0
C1729 C 0.99899 0.13361 0.39746 0.0
C1730 C 0.96977 0.13417 0.40684 0.0
C1731 C 0.10305 0.72544 0.61403 0.0
C1732 C 0.12638 0.74248 0.6227 0.0
C1733 C 0.0987 0.69825 0.62601 0.0
C1734 C 0.11784 0.6869 0.64674 0.0
H1735 H 0.08842 0.73293 0.59737 0.0
H1736 H 0.08133 0.68531 0.61744 0.0
S1737 S 0.18079 0.72412 0.67853 0.0
N1738 N 0.16792 0.74693 0.65443 0.0
N1739 N 0.15932 0.69598 0.67741 0.0
C1740 C 0.14031 0.70441 0.65674 0.0
C1741 C 0.14475 0.73213 0.64454 0.0
C1742 C 0.52308 0.90429 0.8792 0.0
C1743 C 0.50641 0.87928 0.87937 0.0
C1744 C 0.55001 0.90507 0.89267 0.0
C1745 C 0.56168 0.88066 0.90637 0.0
H1746 H 0.51541 0.92343 0.86842 0.0
H1747 H 0.56234 0.92465 0.89089 0.0
S1748 S 0.52493 0.81073 0.9157 0.0
N1749 N 0.50207 0.83025 0.89674 0.0
N1750 N 0.55298 0.83156 0.92167 0.0
C1751 C 0.54443 0.85599 0.90816 0.0
C1752 C 0.51682 0.85529 0.89462 0.0
C1753 C 0.39499 0.30118 0.15481 0.0
C1754 C 0.3744 0.31956 0.14246 0.0
C1755 C 0.39616 0.27206 0.14734 0.0
C1756 C 0.37713 0.26009 0.12677 0.0
H1757 H 0.41055 0.30943 0.17018 0.0
H1758 H 0.41246 0.25892 0.15756 0.0
S1759 S 0.3195 0.29909 0.0875 0.0
N1760 N 0.33466 0.32362 0.10824 0.0
N1761 N 0.33693 0.26906 0.09431 0.0
C1762 C 0.35635 0.27818 0.11432 0.0
C1763 C 0.35495 0.3078 0.12215 0.0
C1764 C 0.98242 0.87102 0.11589 0.0
C1765 C 0.98685 0.88023 0.14466 0.0
C1766 C 0.95469 0.87007 0.10383 0.0
C1767 C 0.9307 0.87892 0.11999 0.0
H1768 H 1.00035 0.86357 0.10295 0.0
H1769 H 0.95197 0.86222 0.08189 0.0
S1770 S 0.93093 0.90383 0.1966 0.0
N1771 N 0.96508 0.89755 0.18912 0.0
N1772 N 0.91311 0.89632 0.16658 0.0
C1773 C 0.93498 0.88834 0.14874 0.0
C1774 C 0.96303 0.8888 0.16106 0.0
C1775 C 0.38119 0.74965 0.35297 0.0
C1776 C 0.35687 0.76088 0.36722 0.0
C1777 C 0.38146 0.72175 0.34187 0.0
C1778 C 0.35732 0.70374 0.34427 0.0
H1779 H 0.40055 0.76235 0.35072 0.0
H1780 H 0.40114 0.71401 0.33203 0.0
S1781 S 0.28708 0.7237 0.37731 0.0
N1782 N 0.30731 0.75244 0.38155 0.0
N1783 N 0.30751 0.70009 0.36042 0.0
C1784 C 0.33233 0.71514 0.35738 0.0
C1785 C 0.33221 0.74357 0.36901 0.0
C1786 C 0.5579 0.11069 0.61215 0.0
C1787 C 0.57018 0.13322 0.59592 0.0
C1788 C 0.52915 0.1115 0.62124 0.0
C1789 C 0.51128 0.13476 0.61434 0.0
H1790 H 0.5708 0.09259 0.61889 0.0
H1791 H 0.52093 0.0937 0.6338 0.0
S1792 S 0.53245 0.19912 0.57197 0.0
N1793 N 0.56189 0.17939 0.5731 0.0
N1794 N 0.50781 0.18088 0.58993 0.0
C1795 C 0.52304 0.15726 0.59771 0.0
C1796 C 0.55244 0.15651 0.58859 0.0
C1797 C 0.16194 0.27417 0.86834 0.0
C1798 C 0.13823 0.2564 0.86278 0.0
C1799 C 0.16266 0.30235 0.85809 0.0
C1800 C 0.13947 0.31397 0.84226 0.0
H1801 H 0.1799 0.26647 0.88112 0.0
H1802 H 0.18084 0.31554 0.86415 0.0
S1803 S 0.07364 0.27531 0.81922 0.0
N1804 N 0.09203 0.2516 0.8382 0.0
N1805 N 0.09333 0.30468 0.81929 0.0
C1806 C 0.11636 0.29591 0.83517 0.0
C1807 C 0.11571 0.26713 0.84541 0.0
C1808 C 0.39778 0.95076 0.09828 0.0
C1809 C 0.39944 0.93907 0.12648 0.0
C1810 C 0.38602 0.97798 0.09325 0.0
C1811 C 0.37543 0.99456 0.11622 0.0
H1812 H 0.40421 0.93824 0.07969 0.0
H1813 H 0.38383 0.9854 0.07109 0.0
S1814 S 0.37803 0.9762 0.19441 0.0
N1815 N 0.39208 0.94807 0.17801 0.0
N1816 N 0.3698 0.99904 0.16836 0.0
C1817 C 0.37855 0.98413 0.14463 0.0
C1818 C 0.39076 0.95652 0.14983 0.0
C1819 C 0.89894 0.55818 0.86359 0.0
C1820 C 0.91096 0.57118 0.88829 0.0
C1821 C 0.88181 0.5337 0.86592 0.0
C1822 C 0.87582 0.52124 0.89304 0.0
H1823 H 0.9013 0.56795 0.8424 0.0
H1824 H 0.87243 0.52499 0.8463 0.0
S1825 S 0.90448 0.54506 0.96416 0.0
N1826 N 0.91885 0.56728 0.94043 0.0
N1827 N 0.88421 0.52309 0.94501 0.0
C1828 C 0.889 0.53295 0.91774 0.0
C1829 C 0.90734 0.55735 0.91527 0.0
C1830 C 0.73777 0.63755 0.11939 0.0
C1831 C 0.74999 0.63081 0.14642 0.0
C1832 C 0.71034 0.64988 0.11741 0.0
C1833 C 0.69393 0.65552 0.14244 0.0
H1834 H 0.74913 0.63238 0.09956 0.0
H1835 H 0.70128 0.65319 0.09602 0.0
S1836 S 0.71761 0.64389 0.21861 0.0
N1837 N 0.74471 0.63213 0.19875 0.0
N1838 N 0.69336 0.65574 0.19535 0.0
C1839 C 0.70684 0.65051 0.16973 0.0
C1840 C 0.73477 0.63793 0.17165 0.0
C1841 C 0.61185 0.45583 0.37701 0.0
C1842 C 0.62708 0.43162 0.38651 0.0
C1843 C 0.62266 0.48347 0.38186 0.0
C1844 C 0.64927 0.48766 0.39587 0.0
H1845 H 0.59175 0.45338 0.36538 0.0
H1846 H 0.61078 0.50157 0.37338 0.0
S1847 S 0.69791 0.43149 0.42414 0.0
N1848 N 0.67033 0.41379 0.41052 0.0
N1849 N 0.69056 0.46568 0.41897 0.0
C1850 C 0.66456 0.46373 0.40558 0.0
C1851 C 0.65346 0.43571 0.40113 0.0
C1852 C 0.30039 0.8602 0.15874 0.0
C1853 C 0.31328 0.84796 0.13394 0.0
C1854 C 0.27149 0.86865 0.15878 0.0
C1855 C 0.25409 0.8649 0.13417 0.0
H1856 H 0.31291 0.86431 0.17811 0.0
H1857 H 0.26278 0.87824 0.17828 0.0
S1858 S 0.27654 0.83204 0.06428 0.0
N1859 N 0.30581 0.83126 0.08453 0.0
N1860 N 0.25142 0.84681 0.08466 0.0
C1861 C 0.26633 0.85174 0.10954 0.0
C1862 C 0.29587 0.84331 0.10944 0.0
C1863 C 0.12387 0.02821 0.60462 0.0
C1864 C 0.11425 0.00828 0.62526 0.0
C1865 C 0.11794 0.05752 0.60763 0.0
C1866 C 0.10226 0.06824 0.6315 0.0
H1867 H 0.13617 0.02117 0.58598 0.0
H1868 H 0.12655 0.07196 0.59145 0.0
S1869 S 0.07172 0.02504 0.69155 0.0
N1870 N 0.08771 1.00143 0.67038 0.0
N1871 N 0.07688 0.05641 0.67594 0.0
C1872 C 0.09229 0.04854 0.65218 0.0
C1873 C 0.09817 0.01865 0.64908 0.0
C1874 C 0.7074 0.35661 0.32481 0.0
C1875 C 0.69887 0.34526 0.35187 0.0
C1876 C 0.73238 0.37318 0.32216 0.0
C1877 C 0.74951 0.37891 0.34647 0.0
H1878 H 0.69356 0.35453 0.30601 0.0
H1879 H 0.7374 0.38287 0.30142 0.0
S1880 S 0.74026 0.34995 0.42068 0.0
N1881 N 0.71235 0.3376 0.40241 0.0
N1882 N 0.75913 0.36887 0.3972 0.0
C1883 C 0.74288 0.3656 0.37289 0.0
C1884 C 0.71768 0.34852 0.37561 0.0
C1885 C 0.80724 0.66022 0.87262 0.0
C1886 C 0.82797 0.64763 0.89081 0.0
C1887 C 0.78145 0.64606 0.86613 0.0
C1888 C 0.77553 0.6187 0.87744 0.0
H1889 H 0.8116 0.68054 0.86218 0.0
H1890 H 0.76678 0.65602 0.85094 0.0
S1891 S 0.82204 0.57658 0.92679 0.0
N1892 N 0.84023 0.60628 0.92061 0.0
N1893 N 0.79172 0.58001 0.9085 0.0
C1894 C 0.79551 0.60627 0.89639 0.0
C1895 C 0.82166 0.62073 0.9032 0.0
C1896 C 0.92588 0.6229 0.0515 0.0
C1897 C 0.9025 0.60765 0.06347 0.0
C1898 C 0.92619 0.631 0.0223 0.0
C1899 C 0.90339 0.62379 0.0038 0.0
H1900 H 0.94368 0.62972 0.06498 0.0
H1901 H 0.94442 0.64304 0.01421 0.0
S1902 S 0.83808 0.58221 0.02361 0.0
N1903 N 0.85667 0.58441 0.05404 0.0
N1904 N 0.8573 0.59932 0.99904 0.0
C1905 C 0.88037 0.6076 0.01513 0.0
C1906 C 0.87994 0.59956 0.04496 0.0
C1907 C 0.1445 0.11154 0.80355 0.0
C1908 C 0.14949 0.13827 0.81674 0.0
C1909 C 0.1346 0.10963 0.77488 0.0
C1910 C 0.12861 0.13435 0.75859 0.0
H1911 H 0.14768 0.0919 0.81563 0.0
H1912 H 0.13102 0.08861 0.76561 0.0
S1913 S 0.14005 0.2095 0.78177 0.0
N1914 N 0.14967 0.19011 0.81007 0.0
N1915 N 0.12996 0.18629 0.75678 0.0
C1916 C 0.1341 0.16117 0.77111 0.0
C1917 C 0.14491 0.16318 0.79998 0.0
C1918 C 0.6403 0.38905 0.54932 0.0
C1919 C 0.62793 0.37409 0.57258 0.0
C1920 C 0.64015 0.37738 0.52127 0.0
C1921 C 0.62833 0.35013 0.51593 0.0
H1922 H 0.65028 0.4097 0.55286 0.0
H1923 H 0.65002 0.38937 0.5038 0.0
S1924 S 0.59468 0.30176 0.56965 0.0
N1925 N 0.60406 0.33032 0.58847 0.0
N1926 N 0.60452 0.3084 0.5359 0.0
C1927 C 0.61618 0.33492 0.53898 0.0
C1928 C 0.61575 0.34693 0.56729 0.0
C1929 C 0.35161 0.89618 0.26048 0.0
C1930 C 0.36528 0.87175 0.24913 0.0
C1931 C 0.33982 0.89625 0.28843 0.0
C1932 C 0.34091 0.87175 0.30618 0.0
H1933 H 0.35053 0.91574 0.2479 0.0
H1934 H 0.33065 0.91603 0.29648 0.0
S1935 S 0.3712 0.80098 0.28507 0.0
N1936 N 0.37725 0.8217 0.25672 0.0
N1937 N 0.35459 0.82139 0.30901 0.0
C1938 C 0.35323 0.84664 0.29442 0.0
C1939 C 0.36564 0.84677 0.26605 0.0
C1940 C 0.88394 0.40345 0.45361 0.0
C1941 C 0.89226 0.38826 0.42873 0.0
C1942 C 0.88462 0.39028 0.4811 0.0
C1943 C 0.89324 0.36147 0.48435 0.0
H1944 H 0.87705 0.42552 0.45185 0.0
H1945 H 0.87767 0.40252 0.49976 0.0
S1946 S 0.91479 0.31197 0.42548 0.0
N1947 N 0.90774 0.34247 0.40889 0.0
N1948 N 0.9091 0.3181 0.46025 0.0
C1949 C 0.90096 0.34605 0.45951 0.0
C1950 C 0.90049 0.35937 0.43177 0.0
C1951 C 0.37165 0.12314 0.22728 0.0
C1952 C 0.37743 0.14986 0.23983 0.0
C1953 C 0.3579 0.12123 0.20039 0.0
C1954 C 0.3501 0.14608 0.18496 0.0
H1955 H 0.37874 0.10366 0.23785 0.0
H1956 H 0.35572 0.10024 0.19065 0.0
S1957 S 0.35734 0.22099 0.21085 0.0
N1958 N 0.37196 0.20142 0.23679 0.0
N1959 N 0.34586 0.19806 0.18617 0.0
C1960 C 0.35361 0.17283 0.19863 0.0
C1961 C 0.36758 0.17469 0.22602 0.0
C1962 C 0.59879 0.6061 0.95023 0.0
C1963 C 0.62621 0.6021 0.93775 0.0
C1964 C 0.59533 0.62162 0.97593 0.0
C1965 C 0.61914 0.63326 0.99036 0.0
H1966 H 0.57957 0.59871 0.93926 0.0
H1967 H 0.57377 0.62549 0.98391 0.0
S1968 S 0.69572 0.62593 0.96927 0.0
N1969 N 0.67784 0.60903 0.9435 0.0
N1970 N 0.67115 0.63782 0.99215 0.0
C1971 C 0.64675 0.62814 0.97919 0.0
C1972 C 0.65035 0.61245 0.95293 0.0
C1973 C 0.13584 0.86575 0.70527 0.0
C1974 C 0.142 0.89132 0.69029 0.0
C1975 C 0.12408 0.86595 0.73323 0.0
C1976 C 0.1186 0.89178 0.74777 0.0
H1977 H 0.13909 0.84525 0.69508 0.0
H1978 H 0.11941 0.84565 0.74354 0.0
S1979 S 0.1344 0.96481 0.72018 0.0
N1980 N 0.14411 0.94331 0.69352 0.0
N1981 N 0.12248 0.9437 0.74624 0.0
C1982 C 0.1262 0.91754 0.73388 0.0
C1983 C 0.1379 0.91733 0.70522 0.0
C1984 C 0.03729 0.86547 0.60609 0.0
C1985 C 0.05223 0.89164 0.60529 0.0
C1986 C 0.00943 0.86369 0.61745 0.0
C1987 C 0.99554 0.88789 0.629 0.0
H1988 H 0.04745 0.84597 0.59853 0.0
H1989 H 0.9989 0.84301 0.61768 0.0
S1990 S 0.02407 0.96199 0.63031 0.0
N1991 N 0.04997 0.94285 0.6154 0.0
N1992 N 0.99793 0.93916 0.63744 0.0
C1993 C 0.00978 0.91435 0.62772 0.0
C1994 C 0.03797 0.91633 0.61558 0.0
C1995 C 0.85756 0.30558 0.3511 0.0
C1996 C 0.8843 0.316 0.34107 0.0
C1997 C 0.85518 0.27899 0.36505 0.0
C1998 C 0.87947 0.26187 0.36974 0.0
H1999 H 0.83851 0.31878 0.34994 0.0
H2000 H 0.8345 0.27263 0.37373 0.0
S2001 S 0.95373 0.27668 0.3447 0.0
N2002 N 0.93508 0.30491 0.33419 0.0
N2003 N 0.9305 0.25534 0.36098 0.0
C2004 C 0.90594 0.2709 0.35829 0.0
C2005 C 0.90836 0.29778 0.34369 0.0
C2006 C 0.49654 0.14596 0.10327 0.0
C2007 C 0.5055 0.12537 0.12381 0.0
C2008 C 0.46752 0.14907 0.09554 0.0
C2009 C 0.44627 0.1315 0.10775 0.0
H2010 H 0.51205 0.15996 0.09298 0.0
H2011 H 0.46172 0.16533 0.07983 0.0
S2012 S 0.45783 0.07543 0.16385 0.0
N2013 N 0.49037 0.08778 0.15692 0.0
N2014 N 0.4359 0.09375 0.14268 0.0
C2015 C 0.45482 0.11098 0.12853 0.0
C2016 C 0.48437 0.10789 0.13649 0.0
C2017 C 0.61312 0.71919 0.87304 0.0
C2018 C 0.63943 0.73406 0.87179 0.0
C2019 C 0.60953 0.69267 0.85944 0.0
C2020 C 0.63218 0.67975 0.84399 0.0
H2021 H 0.59536 0.72755 0.88567 0.0
H2022 H 0.58951 0.68136 0.863 0.0
S2023 S 0.70342 0.71234 0.82891 0.0
N2024 N 0.68754 0.7351 0.85108 0.0
N2025 N 0.67986 0.68647 0.8234 0.0
C2026 C 0.65747 0.69583 0.83979 0.0
C2027 C 0.66142 0.72259 0.85434 0.0
C2028 C 0.02727 0.15829 0.86746 0.0
C2029 C 0.00919 0.1361 0.87685 0.0
C2030 C 0.05373 0.16347 0.88103 0.0
C2031 C 0.06343 0.14625 0.90419 0.0
H2032 H 0.02129 0.17127 0.84893 0.0
H2033 H 0.0675 0.17981 0.87184 0.0
S2034 S 0.02264 0.0872 0.93877 0.0
N2035 N 1.00174 0.098 0.91195 0.0
N2036 N 0.05128 0.10809 0.93783 0.0
C2037 C 0.04466 0.12518 0.91495 0.0
C2038 C 0.01764 0.11993 0.90113 0.0
C2039 C 0.61482 0.25449 0.64522 0.0
C2040 C 0.64046 0.24329 0.63361 0.0
C2041 C 0.61403 0.28159 0.65807 0.0
C2042 C 0.63893 0.29856 0.66 0.0
H2043 H 0.5949 0.24255 0.64368 0.0
H2044 H 0.59342 0.28978 0.66521 0.0
S2045 S 0.71247 0.27719 0.63666 0.0
N2046 N 0.69189 0.24993 0.62728 0.0
N2047 N 0.69076 0.30067 0.65204 0.0
C2048 C 0.66514 0.28679 0.65007 0.0
C2049 C 0.6658 0.2593 0.63659 0.0
C2050 C 0.46806 0.8587 0.37746 0.0
C2051 C 0.48079 0.88537 0.37174 0.0
C2052 C 0.44046 0.85685 0.38958 0.0
C2053 C 0.4244 0.88167 0.39589 0.0
H2054 H 0.47925 0.83913 0.37182 0.0
H2055 H 0.43104 0.83582 0.39226 0.0
S2056 S 0.44934 0.9567 0.38635 0.0
N2057 N 0.47633 0.93699 0.37444 0.0
N2058 N 0.42455 0.93381 0.39723 0.0
C2059 C 0.43771 0.90848 0.39155 0.0
C2060 C 0.46584 0.91027 0.37936 0.0
C2061 C 0.86169 0.73701 0.12259 0.0
C2062 C 0.88193 0.75795 0.1303 0.0
C2063 C 0.86511 0.70849 0.13126 0.0
C2064 C 0.88896 0.69961 0.14797 0.0
H2065 H 0.84304 0.74261 0.10969 0.0
H2066 H 0.84929 0.69314 0.12389 0.0
S2067 S 0.94798 0.74614 0.17439 0.0
N2068 N 0.92669 0.76789 0.15608 0.0
N2069 N 0.9329 0.71424 0.17226 0.0
C2070 C 0.90924 0.72036 0.15608 0.0
C2071 C 0.90577 0.74949 0.14731 0.0
C2072 C 0.59341 0.03748 0.86176 0.0
C2073 C 0.59565 0.05443 0.8869 0.0
C2074 C 0.60337 0.00915 0.86127 0.0
C2075 C 0.61634 0.99655 0.88577 0.0
H2076 H 0.58468 0.04637 0.84191 0.0
H2077 H 0.6014 0.99721 0.84122 0.0
S2078 S 0.62489 0.0303 0.95806 0.0
N2079 N 0.60976 0.05533 0.9379 0.0
N2080 N 0.62903 1.00238 0.93652 0.0
C2081 C 0.61794 0.01278 0.91135 0.0
C2082 C 0.60737 0.04155 0.91205 0.0
C2083 C 0.08639 0.46463 0.11421 0.0
C2084 C 0.08317 0.4457 0.09066 0.0
C2085 C 0.10473 0.48821 0.11222 0.0
C2086 C 0.1198 0.49392 0.08651 0.0
H2087 H 0.07732 0.45958 0.13524 0.0
H2088 H 0.10852 0.50106 0.13143 0.0
S2089 S 0.11301 0.45571 0.01663 0.0
N2090 N 0.09211 0.43774 0.03917 0.0
N2091 N 0.12663 0.48241 0.03571 0.0
C2092 C 0.11394 0.47761 0.0618 0.0
C2093 C 0.09533 0.45349 0.06376 0.0
C2094 C 0.29181 0.35125 0.89609 0.0
C2095 C 0.31176 0.35918 0.87466 0.0
C2096 C 0.26281 0.35947 0.89425 0.0
C2097 C 0.2524 0.37633 0.87108 0.0
H2098 H 0.29863 0.33869 0.91461 0.0
H2099 H 0.24847 0.35263 0.91141 0.0
S2100 S 0.29578 0.40345 0.80943 0.0
N2101 N 0.31896 0.38543 0.8295 0.0
N2102 N 0.26454 0.40067 0.82619 0.0
C2103 C 0.27207 0.3845 0.84949 0.0
C2104 C 0.30164 0.37595 0.85122 0.0
C2105 C 0.36713 0.56111 0.59435 0.0
C2106 C 0.38951 0.56557 0.61461 0.0
C2107 C 0.35282 0.53488 0.59252 0.0
C2108 C 0.36075 0.51207 0.6104 0.0
H2109 H 0.35945 0.57841 0.58076 0.0
H2110 H 0.33508 0.53261 0.57744 0.0
S2111 S 0.41935 0.51109 0.66483 0.0
N2112 N 0.41993 0.54396 0.65161 0.0
N2113 N 0.39327 0.49427 0.64745 0.0
C2114 C 0.38393 0.51546 0.62959 0.0
C2115 C 0.3983 0.54234 0.63185 0.0
C2116 C 0.73135 0.15266 0.88735 0.0
C2117 C 0.74243 0.13532 0.86488 0.0
C2118 C 0.70168 0.15671 0.89102 0.0
C2119 C 0.68179 0.14388 0.87216 0.0
H2120 H 0.74567 0.1631 0.90257 0.0
H2121 H 0.6943 0.16993 0.90883 0.0
S2122 S 0.6994 0.096 0.81009 0.0
N2123 N 0.73099 0.10508 0.82359 0.0
N2124 N 0.6753 0.11238 0.83046 0.0
C2125 C 0.69255 0.12654 0.84948 0.0
C2126 C 0.7228 0.12232 0.84586 0.0
C2127 C 0.88317 0.94854 0.3971 0.0
C2128 C 0.89813 0.93626 0.37348 0.0
C2129 C 0.87725 0.97803 0.39837 0.0
C2130 C 0.88626 0.99665 0.37624 0.0
H2131 H 0.87522 0.93518 0.41452 0.0
H2132 H 0.86569 0.98629 0.41698 0.0
S2133 S 0.92613 0.97559 0.30957 0.0
N2134 N 0.92166 0.94527 0.32737 0.0
N2135 N 0.91097 1.00053 0.32979 0.0
C2136 C 0.90141 0.98471 0.35257 0.0
C2137 C 0.9072 0.95463 0.35117 0.0
C2138 C 0.29915 0.65308 0.61811 0.0
C2139 C 0.31699 0.65598 0.64265 0.0
C2140 C 0.27312 0.63824 0.61977 0.0
C2141 C 0.26379 0.62638 0.64606 0.0
H2142 H 0.30634 0.66013 0.59693 0.0
H2143 H 0.2607 0.6351 0.60012 0.0
S2144 S 0.29949 0.63234 0.71754 0.0
N2145 N 0.32129 0.64908 0.69491 0.0
N2146 N 0.27204 0.62125 0.69774 0.0
C2147 C 0.27984 0.63134 0.67124 0.0
C2148 C 0.30647 0.64633 0.66963 0.0
C2149 C 0.22391 0.37046 0.12196 0.0
C2150 C 0.22903 0.39481 0.13908 0.0
C2151 C 0.19586 0.36034 0.11756 0.0
C2152 C 0.17219 0.37402 0.13057 0.0
H2153 H 0.24152 0.36004 0.11076 0.0
H2154 H 0.19263 0.34224 0.10324 0.0
S2155 S 0.17524 0.43748 0.17936 0.0
N2156 N 0.20902 0.43151 0.1702 0.0
N2157 N 0.15633 0.41239 0.16289 0.0
C2158 C 0.17746 0.3976 0.14903 0.0
C2159 C 0.2059 0.40809 0.15297 0.0
C2160 C 0.65361 0.87191 0.45103 0.0
C2161 C 0.63007 0.88718 0.43944 0.0
C2162 C 0.65276 0.86045 0.47917 0.0
C2163 C 0.62815 0.86325 0.49658 0.0
H2164 H 0.67258 0.86796 0.43801 0.0
H2165 H 0.67137 0.84897 0.48724 0.0
S2166 S 0.56299 0.90547 0.47897 0.0
N2167 N 0.58317 0.90786 0.4496 0.0
N2168 N 0.58113 0.88518 0.50189 0.0
C2169 C 0.60498 0.87938 0.48589 0.0
C2170 C 0.60607 0.89163 0.4575 0.0
C2171 C 0.34564 0.37849 0.70285 0.0
C2172 C 0.34202 0.35467 0.6845 0.0
C2173 C 0.36102 0.37614 0.72883 0.0
C2174 C 0.37284 0.34987 0.73757 0.0
H2175 H 0.33877 0.39961 0.69604 0.0
H2176 H 0.36485 0.39529 0.74153 0.0
S2177 S 0.36516 0.28013 0.70039 0.0
N2178 N 0.34808 0.30306 0.67923 0.0
N2179 N 0.37717 0.299 0.72816 0.0
C2180 C 0.36711 0.3254 0.72107 0.0
C2181 C 0.35149 0.3277 0.69454 0.0
C2182 C 0.89275 0.11201 0.97621 0.0
C2183 C 0.87399 0.13178 0.98915 0.0
C2184 C 0.88683 0.10071 0.94876 0.0
C2185 C 0.86206 0.10896 0.9333 0.0
H2186 H 0.91286 0.10644 0.98668 0.0
H2187 H 0.90271 0.08691 0.93876 0.0
S2188 S 0.80372 0.15618 0.96061 0.0
N2189 N 0.82801 0.1562 0.98674 0.0
N2190 N 0.81662 0.13495 0.93511 0.0
C2191 C 0.84183 0.1266 0.94739 0.0
C2192 C 0.84802 0.13827 0.97524 0.0
C2193 C 0.15362 0.65606 0.19318 0.0
C2194 C 0.16178 0.62969 0.18064 0.0
C2195 C 0.13762 0.65719 0.21892 0.0
C2196 C 0.12951 0.63204 0.23336 0.0
H2197 H 0.15775 0.67602 0.18196 0.0
H2198 H 0.13002 0.6778 0.22641 0.0
S2199 S 0.1497 0.55789 0.21302 0.0
N2200 N 0.16355 0.57797 0.18708 0.0
N2201 N 0.1339 0.58028 0.23568 0.0
C2202 C 0.13956 0.60572 0.22257 0.0
C2203 C 0.15582 0.60451 0.19632 0.0
C2204 C 0.59592 0.11988 0.01858 0.0
C2205 C 0.61894 0.1129 1.00011 0.0
C2206 C 0.59508 0.11012 0.04737 0.0
C2207 C 0.61733 0.09308 0.05906 0.0
H2208 H 0.57847 0.13323 0.01086 0.0
H2209 H 0.57729 0.11698 0.06083 0.0
S2210 S 0.6816 0.06705 0.01921 0.0
N2211 N 0.66393 0.08655 0.99526 0.0
N2212 N 0.66226 0.06829 0.04917 0.0
C2213 C 0.63997 0.08509 0.0405 0.0
C2214 C 0.64083 0.09501 0.01117 0.0
C2215 C 0.10958 0.35973 0.26864 0.0
C2216 C 0.10523 0.38535 0.25353 0.0
C2217 C 0.12506 0.35924 0.29461 0.0
C2218 C 0.13659 0.38447 0.30685 0.0
H2219 H 0.09972 0.34007 0.2612 0.0
H2220 H 0.12626 0.33904 0.30597 0.0
S2221 S 0.13319 0.45693 0.27386 0.0
N2222 N 0.11528 0.43631 0.25103 0.0
N2223 N 0.14416 0.43565 0.30026 0.0
C2224 C 0.13344 0.41014 0.29112 0.0
C2225 C 0.11766 0.41055 0.2645 0.0
C2226 C 0.91382 0.90054 0.55735 0.0
C2227 C 0.88681 0.90897 0.56845 0.0
C2228 C 0.91599 0.88531 0.53128 0.0
C2229 C 0.89127 0.87818 0.51549 0.0
H2230 H 0.93325 0.90376 0.56993 0.0
H2231 H 0.93688 0.87764 0.52436 0.0
S2232 S 0.81638 0.90012 0.53137 0.0
N2233 N 0.83537 0.91285 0.55874 0.0
N2234 N 0.83973 0.88406 0.50987 0.0
C2235 C 0.86458 0.88877 0.52467 0.0
C2236 C 0.8623 0.90445 0.55104 0.0
C2237 C 0.37107 0.59818 0.75849 0.0
C2238 C 0.38708 0.62085 0.74641 0.0
C2239 C 0.36409 0.59759 0.78808 0.0
C2240 C 0.37252 0.61985 0.80677 0.0
H2241 H 0.36395 0.58055 0.74503 0.0
H2242 H 0.35217 0.57943 0.79635 0.0
S2243 S 0.41419 0.68469 0.78571 0.0
N2244 N 0.41073 0.66639 0.7553 0.0
N2245 N 0.39767 0.66556 0.81073 0.0
C2246 C 0.38826 0.64291 0.79482 0.0
C2247 C 0.39557 0.64331 0.76474 0.0
C2248 C 0.50203 0.63413 0.89306 0.0
C2249 C 0.514 0.60945 0.88036 0.0
C2250 C 0.47333 0.63478 0.9022 0.0
C2251 C 0.45544 0.61067 0.89933 0.0
H2252 H 0.51474 0.65342 0.89537 0.0
H2253 H 0.46493 0.65472 0.91068 0.0
S2254 S 0.47764 0.53946 0.87081 0.0
N2255 N 0.50664 0.55957 0.86753 0.0
N2256 N 0.45286 0.56037 0.88522 0.0
C2257 C 0.46768 0.58529 0.88807 0.0
C2258 C 0.49684 0.58482 0.87835 0.0
C2259 C 0.6173 0.23094 0.14101 0.0
C2260 C 0.63775 0.23806 0.11973 0.0
C2261 C 0.61514 0.20282 0.15171 0.0
C2262 C 0.6338 0.18112 0.14191 0.0
H2263 H 0.60212 0.2469 0.14848 0.0
H2264 H 0.59827 0.19788 0.16711 0.0
S2265 S 0.69241 0.19013 0.08757 0.0
N2266 N 0.67761 0.22214 0.09013 0.0
N2267 N 0.67447 0.16963 0.1104 0.0
C2268 C 0.65529 0.18865 0.12156 0.0
C2269 C 0.65698 0.21703 0.11038 0.0
C2270 C 0.01983 0.40187 0.37728 0.0
C2271 C 0.00435 0.37612 0.37614 0.0
C2272 C 0.04728 0.40295 0.38955 0.0
C2273 C 0.06065 0.37815 0.40064 0.0
H2274 H 0.01084 0.42137 0.36833 0.0
H2275 H 0.05867 0.42315 0.38869 0.0
S2276 S 0.0277 0.30595 0.40582 0.0
N2277 N 0.00306 0.32574 0.38962 0.0
N2278 N 0.05501 0.32763 0.41223 0.0
C2279 C 0.04467 0.35258 0.40119 0.0
C2280 C 0.01651 0.35157 0.38894 0.0
C2281 C 0.8935 0.79834 0.6612 0.0
C2282 C 0.87427 0.818 0.64871 0.0
C2283 C 0.8934 0.76937 0.65306 0.0
C2284 C 0.87436 0.75882 0.63172 0.0
H2285 H 0.90894 0.80539 0.6773 0.0
H2286 H 0.90867 0.7552 0.66348 0.0
S2287 S 0.82008 0.80161 0.59163 0.0
N2288 N 0.8358 0.82486 0.61342 0.0
N2289 N 0.83574 0.77058 0.59822 0.0
C2290 C 0.85497 0.77824 0.61903 0.0
C2291 C 0.85487 0.80772 0.62752 0.0
C2292 C 0.4641 0.40049 0.64355 0.0
C2293 C 0.48613 0.38177 0.63537 0.0
C2294 C 0.43733 0.39967 0.62973 0.0
C2295 C 0.43136 0.37956 0.60764 0.0
H2296 H 0.46738 0.41545 0.66122 0.0
H2297 H 0.42074 0.41392 0.63769 0.0
S2298 S 0.48301 0.3267 0.57764 0.0
N2299 N 0.50135 0.34362 0.6031 0.0
N2300 N 0.45069 0.34142 0.57738 0.0
C2301 C 0.45378 0.36137 0.5986 0.0
C2302 C 0.48124 0.3626 0.61244 0.0
C2303 C 0.88433 0.24788 0.85935 0.0
C2304 C 0.85923 0.26131 0.86966 0.0
C2305 C 0.88396 0.21951 0.84957 0.0
C2306 C 0.85835 0.20347 0.84919 0.0
H2307 H 0.90468 0.25919 0.85936 0.0
H2308 H 0.90409 0.20989 0.84285 0.0
S2309 S 0.78612 0.22968 0.87159 0.0
N2310 N 0.80775 0.25708 0.87749 0.0
N2311 N 0.80672 0.20399 0.85848 0.0
C2312 C 0.83279 0.21711 0.85831 0.0
C2313 C 0.83333 0.2459 0.8688 0.0
C2314 C 0.05589 0.65343 0.09302 0.0
C2315 C 0.07435 0.63083 0.10072 0.0
C2316 C 0.0274 0.65447 0.10305 0.0
C2317 C 0.01616 0.63317 0.12155 0.0
H2318 H 0.06356 0.67067 0.07935 0.0
H2319 H 0.01416 0.67238 0.09636 0.0
S2320 S 0.05549 0.56937 0.14855 0.0
N2321 N 0.07913 0.58646 0.12826 0.0
N2322 N 0.02578 0.58864 0.147 0.0
C2323 C 0.0343 0.61038 0.1294 0.0
C2324 C 0.06326 0.60914 0.11898 0.0
C2325 C 0.65464 0.76574 0.36669 0.0
C2326 C 0.62967 0.74913 0.36354 0.0
C2327 C 0.65566 0.79397 0.35663 0.0
C2328 C 0.63153 0.80689 0.34353 0.0
H2329 H 0.67352 0.757 0.37725 0.0
H2330 H 0.67506 0.80616 0.36068 0.0
S2331 S 0.56173 0.77173 0.32785 0.0
N2332 N 0.58094 0.74682 0.34432 0.0
N2333 N 0.58267 0.80021 0.32605 0.0
C2334 C 0.60685 0.7901 0.33909 0.0
C2335 C 0.60594 0.76117 0.34898 0.0
C2336 C 0.89788 0.45901 0.63291 0.0
C2337 C 0.88633 0.43528 0.61817 0.0
C2338 C 0.88724 0.48679 0.62791 0.0
C2339 C 0.86427 0.49156 0.60856 0.0
H2340 H 0.91489 0.45604 0.64869 0.0
H2341 H 0.89623 0.50448 0.6401 0.0
S2342 S 0.82637 0.43709 0.56461 0.0
N2343 N 0.85069 0.41884 0.58298 0.0
N2344 N 0.83068 0.47079 0.57439 0.0
C2345 C 0.85282 0.46822 0.59351 0.0
C2346 C 0.86387 0.44015 0.59807 0.0
C2347 C 0.38308 0.02971 0.3648 0.0
C2348 C 0.3691 0.02012 0.39005 0.0
C2349 C 0.39987 0.05456 0.36497 0.0
C2350 C 0.40342 0.07068 0.39044 0.0
H2351 H 0.38023 0.01842 0.34447 0.0
H2352 H 0.40884 0.06205 0.34465 0.0
S2353 S 0.37189 0.05409 0.4626 0.0
N2354 N 0.36039 0.02807 0.44131 0.0
N2355 N 0.3924 0.07454 0.442 0.0
C2356 C 0.39087 0.06036 0.41629 0.0
C2357 C 0.37352 0.03515 0.41599 0.0
C2358 C 0.23192 0.13928 0.67354 0.0
C2359 C 0.24741 0.13235 0.64842 0.0
C2360 C 0.2044 0.15149 0.67165 0.0
C2361 C 0.19148 0.15728 0.64454 0.0
H2362 H 0.24044 0.13378 0.6947 0.0
H2363 H 0.19253 0.15482 0.69159 0.0
S2364 S 0.22587 0.14709 0.57248 0.0
N2365 N 0.24983 0.13503 0.59593 0.0
N2366 N 0.19836 0.15824 0.59209 0.0
C2367 C 0.20802 0.1526 0.61934 0.0
C2368 C 0.23587 0.13991 0.62135 0.0
C2369 C 0.11526 0.96099 0.85795 0.0
C2370 C 0.09661 0.94673 0.87713 0.0
C2371 C 0.1284 0.98675 0.86582 0.0
C2372 C 0.12296 0.9993 0.89292 0.0
H2373 H 0.1217 0.95104 0.83776 0.0
H2374 H 0.14361 0.99644 0.85098 0.0
S2375 S 0.07287 0.97254 0.94918 0.0
N2376 N 0.07107 0.94845 0.92299 0.0
N2377 N 0.09584 0.99712 0.93791 0.0
C2378 C 0.10284 0.98638 0.91145 0.0
C2379 C 0.08959 0.96001 0.90348 0.0
C2380 C 0.79214 0.33892 0.61418 0.0
C2381 C 0.80917 0.34267 0.63913 0.0
C2382 C 0.76315 0.34704 0.61382 0.0
C2383 C 0.75004 0.35949 0.63827 0.0
H2384 H 0.80148 0.33076 0.59431 0.0
H2385 H 0.75115 0.34425 0.59387 0.0
S2386 S 0.78379 0.37029 0.71039 0.0
N2387 N 0.80967 0.35676 0.6901 0.0
N2388 N 0.75537 0.37255 0.68903 0.0
C2389 C 0.7663 0.36207 0.66382 0.0
C2390 C 0.79575 0.35343 0.66437 0.0
C2391 C 0.62207 0.55469 0.10722 0.0
C2392 C 0.60507 0.56599 0.12986 0.0
C2393 C 0.62832 0.52531 0.10542 0.0
C2394 C 0.61777 0.50589 0.12614 0.0
H2395 H 0.63152 0.56875 0.09119 0.0
H2396 H 0.64171 0.51786 0.08775 0.0
S2397 S 0.57124 0.52425 0.18918 0.0
N2398 N 0.57713 0.55518 0.17298 0.0
N2399 N 0.58865 0.50016 0.16977 0.0
C2400 C 0.60026 0.51684 0.14862 0.0
C2401 C 0.594 0.54677 0.15046 0.0
C2402 C 0.24115 0.87741 0.86223 0.0
C2403 C 0.24607 0.90111 0.84412 0.0
C2404 C 0.21373 0.86522 0.86453 0.0
C2405 C 0.19052 0.87603 0.84834 0.0
H2406 H 0.25845 0.86874 0.87531 0.0
H2407 H 0.21056 0.84763 0.87951 0.0
S2408 S 0.19315 0.93734 0.79684 0.0
N2409 N 0.22632 0.93461 0.80935 0.0
N2410 N 0.17479 0.91158 0.81288 0.0
C2411 C 0.19561 0.89925 0.82938 0.0
C2412 C 0.2234 0.91191 0.82755 0.0
C2413 C 0.31553 0.1266 0.40561 0.0
C2414 C 0.32296 0.15079 0.38889 0.0
C2415 C 0.28996 0.11163 0.4005 0.0
C2416 C 0.27071 0.12061 0.37892 0.0
H2417 H 0.33045 0.11787 0.42137 0.0
H2418 H 0.2856 0.09247 0.41299 0.0
S2419 S 0.27859 0.18413 0.33127 0.0
N2420 N 0.3077 0.18445 0.35179 0.0
N2421 N 0.25987 0.15594 0.34173 0.0
C2422 C 0.27698 0.14566 0.36325 0.0
C2423 C 0.30302 0.16091 0.36844 0.0
C2424 C 0.41756 0.11643 0.54699 0.0
C2425 C 0.39194 0.10942 0.56171 0.0
C2426 C 0.41703 0.12962 0.51976 0.0
C2427 C 0.39087 0.13625 0.50605 0.0
H2428 H 0.4383 0.11316 0.5572 0.0
H2429 H 0.43733 0.13528 0.50978 0.0
S2430 S 0.31772 0.11819 0.53313 0.0
N2431 N 0.33968 0.10702 0.55886 0.0
N2432 N 0.33863 0.13175 0.50771 0.0
C2433 C 0.3651 0.12754 0.51956 0.0
C2434 C 0.36565 0.11398 0.54726 0.0
C2435 C 0.65954 0.61112 0.29426 0.0
C2436 C 0.65967 0.63701 0.30986 0.0
C2437 C 0.64855 0.60975 0.26601 0.0
C2438 C 0.63698 0.63411 0.25242 0.0
H2439 H 0.66665 0.59141 0.30435 0.0
H2440 H 0.64829 0.58921 0.25511 0.0
S2441 S 0.63663 0.70805 0.28167 0.0
N2442 N 0.65077 0.68846 0.30782 0.0
N2443 N 0.62943 0.68551 0.25507 0.0
C2444 C 0.63853 0.66045 0.26695 0.0
C2445 C 0.65019 0.66201 0.29552 0.0
C2446 C 0.10639 0.88745 0.05677 0.0
C2447 C 0.13277 0.89431 0.07015 0.0
C2448 C 0.1053 0.87686 0.02843 0.0
C2449 C 0.1305 0.87312 0.01223 0.0
H2450 H 0.08651 0.88854 0.06878 0.0
H2451 H 0.08472 0.87021 0.0197 0.0
S2452 S 0.2046 0.89197 0.03478 0.0
N2453 N 0.18453 0.8997 0.06325 0.0
N2454 N 0.1822 0.8798 0.00987 0.0
C2455 C 0.1568 0.88172 0.02432 0.0
C2456 C 0.15798 0.89258 0.05321 0.0
C2457 C 0.85249 0.40063 0.76267 0.0
C2458 C 0.86576 0.37643 0.75033 0.0
C2459 C 0.84206 0.40027 0.79122 0.0
C2460 C 0.84406 0.37554 0.80856 0.0
H2461 H 0.85067 0.4203 0.75037 0.0
H2462 H 0.83313 0.41986 0.79998 0.0
S2463 S 0.87375 0.30524 0.78506 0.0
N2464 N 0.87833 0.32636 0.75674 0.0
N2465 N 0.85818 0.32525 0.81002 0.0
C2466 C 0.85598 0.35067 0.79586 0.0
C2467 C 0.86705 0.35125 0.76693 0.0
C2468 C 0.37289 0.89629 0.94682 0.0
C2469 C 0.39807 0.90232 0.93103 0.0
C2470 C 0.37416 0.88196 0.97351 0.0
C2471 C 0.40059 0.87329 0.98548 0.0
H2472 H 0.35192 0.90097 0.93774 0.0
H2473 H 0.35419 0.87682 0.98445 0.0
S2474 S 0.47292 0.88609 0.95447 0.0
N2475 N 0.45056 0.90098 0.9311 0.0
N2476 N 0.4525 0.8727 0.9804 0.0
C2477 C 0.42597 0.88053 0.97088 0.0
C2478 C 0.42481 0.89551 0.94393 0.0
C2479 C 0.87206 0.6235 0.72916 0.0
C2480 C 0.87521 0.65046 0.74213 0.0
C2481 C 0.8575 0.62051 0.70277 0.0
C2482 C 0.84627 0.64458 0.68826 0.0
H2483 H 0.88184 0.60478 0.73894 0.0
H2484 H 0.85741 0.59963 0.69255 0.0
S2485 S 0.84623 0.71937 0.71538 0.0
N2486 N 0.86375 0.7011 0.74047 0.0
N2487 N 0.83654 0.69574 0.69059 0.0
C2488 C 0.84739 0.67131 0.70232 0.0
C2489 C 0.86202 0.67424 0.72928 0.0
C2490 C 0.09402 0.10706 0.4543 0.0
C2491 C 0.12139 0.10068 0.44276 0.0
C2492 C 0.09104 0.1234 0.47956 0.0
C2493 C 0.11526 0.13354 0.49445 0.0
H2494 H 0.07461 0.10094 0.44287 0.0
H2495 H 0.06962 0.12913 0.48674 0.0
S2496 S 0.19161 0.11958 0.47606 0.0
N2497 N 0.1732 0.10361 0.45005 0.0
N2498 N 0.1674 0.13392 0.49786 0.0
C2499 C 0.1427 0.12595 0.4843 0.0
C2500 C 0.14581 0.10944 0.4585 0.0
C2501 C 0.62668 0.362 0.20353 0.0
C2502 C 0.64245 0.38477 0.19127 0.0
C2503 C 0.61964 0.36148 0.23306 0.0
C2504 C 0.62817 0.38367 0.25172 0.0
H2505 H 0.61884 0.34472 0.19008 0.0
H2506 H 0.60757 0.3434 0.24131 0.0
S2507 S 0.66944 0.44858 0.23067 0.0
N2508 N 0.66609 0.43031 0.20021 0.0
N2509 N 0.65306 0.42938 0.25578 0.0
C2510 C 0.64398 0.40663 0.23985 0.0
C2511 C 0.65103 0.4072 0.20966 0.0
C2512 C 0.53755 0.36638 0.09691 0.0
C2513 C 0.55415 0.39139 0.09988 0.0
C2514 C 0.50879 0.36556 0.10581 0.0
C2515 C 0.49547 0.38959 0.11839 0.0
H2516 H 0.54707 0.34691 0.0885 0.0
H2517 H 0.49712 0.34563 0.10344 0.0
S2518 S 0.52817 0.46136 0.12828 0.0
N2519 N 0.55407 0.44173 0.11404 0.0
N2520 N 0.50019 0.43982 0.13125 0.0
C2521 C 0.51131 0.4151 0.12044 0.0
C2522 C 0.54053 0.41612 0.11096 0.0
C2523 C 0.408 0.77726 0.86496 0.0
C2524 C 0.38097 0.76394 0.86718 0.0
C2525 C 0.41118 0.80386 0.85136 0.0
C2526 C 0.38738 0.81847 0.83958 0.0
H2527 H 0.42681 0.7675 0.87469 0.0
H2528 H 0.43221 0.81378 0.85194 0.0
S2529 S 0.31285 0.79052 0.8351 0.0
N2530 N 0.33039 0.76619 0.85409 0.0
N2531 N 0.33694 0.81504 0.8265 0.0
C2532 C 0.3608 0.80409 0.83923 0.0
C2533 C 0.3574 0.77718 0.85361 0.0
C2534 C 0.96123 0.64537 0.59201 0.0
C2535 C 0.94025 0.63011 0.60738 0.0
C2536 C 0.99055 0.64106 0.59755 0.0
C2537 C 1.00003 0.62157 0.61896 0.0
H2538 H 0.95497 0.66061 0.57545 0.0
H2539 H 0.00587 0.65327 0.58491 0.0
S2540 S 0.95325 0.57819 0.66705 0.0
N2541 N 0.93067 0.5961 0.6462 0.0
N2542 N 0.98574 0.58779 0.6564 0.0
C2543 C 0.97917 0.60648 0.63479 0.0
C2544 C 0.9493 0.61082 0.62907 0.0
C2545 C 0.11165 0.2171 0.3726 0.0
C2546 C 0.13748 0.23194 0.36751 0.0
C2547 C 0.10706 0.18969 0.36131 0.0
C2548 C 0.12826 0.17589 0.34461 0.0
H2549 H 0.0952 0.22629 0.3864 0.0
H2550 H 0.08768 0.1785 0.36771 0.0
S2551 S 0.19748 0.20746 0.32061 0.0
N2552 N 0.1834 0.23185 0.34228 0.0
N2553 N 0.17381 0.18116 0.31925 0.0
C2554 C 0.15291 0.19165 0.33688 0.0
C2555 C 0.15786 0.21941 0.34891 0.0
C2556 C 0.549 0.64947 0.39236 0.0
C2557 C 0.56803 0.6261 0.38978 0.0
C2558 C 0.52216 0.64945 0.37844 0.0
C2559 C 0.51313 0.62594 0.36178 0.0
H2560 H 0.5554 0.66855 0.40404 0.0
H2561 H 0.50865 0.66827 0.38012 0.0
S2562 S 0.55368 0.55913 0.34842 0.0
N2563 N 0.57502 0.57842 0.36931 0.0
N2564 N 0.52435 0.57852 0.34391 0.0
C2565 C 0.53106 0.60197 0.36001 0.0
C2566 C 0.55853 0.60198 0.37389 0.0
C2567 C 0.1196 0.78234 0.15406 0.0
C2568 C 0.14399 0.80009 0.15277 0.0
C2569 C 0.12003 0.75471 0.14247 0.0
C2570 C 0.14476 0.74374 0.12883 0.0
H2571 H 0.09963 0.79014 0.16323 0.0
H2572 H 0.10051 0.74211 0.14361 0.0
S2573 S 0.2154 0.77998 0.12243 0.0
N2574 N 0.19458 0.80347 0.13899 0.0
N2575 N 0.19496 0.75166 0.11667 0.0
C2576 C 0.16968 0.76065 0.12835 0.0
C2577 C 0.16944 0.78871 0.14058 0.0
C2578 C 0.97015 0.40902 0.87986 0.0
C2579 C 0.98605 0.38454 0.87269 0.0
C2580 C 0.94259 0.40668 0.89196 0.0
C2581 C 0.92989 0.37974 0.89737 0.0
H2582 H 0.97831 0.43009 0.87453 0.0
H2583 H 0.93054 0.42619 0.89549 0.0
S2584 S 0.96498 0.30917 0.88605 0.0
N2585 N 0.98884 0.33269 0.87444 0.0
N2586 N 0.93722 0.3281 0.89748 0.0
C2587 C 0.94668 0.35514 0.89229 0.0
C2588 C 0.97463 0.35759 0.87971 0.0
C2589 C 0.36199 0.20844 0.629 0.0
C2590 C 0.38717 0.19935 0.64345 0.0
C2591 C 0.35937 0.23622 0.61787 0.0
C2592 C 0.38173 0.25615 0.62089 0.0
H2593 H 0.34439 0.19373 0.62526 0.0
H2594 H 0.33957 0.24213 0.607 0.0
S2595 S 0.45202 0.24355 0.65723 0.0
N2596 N 0.43478 0.21284 0.66041 0.0
N2597 N 0.42992 0.26507 0.63963 0.0
C2598 C 0.40691 0.24755 0.6356 0.0
C2599 C 0.40961 0.2192 0.64685 0.0
C2600 C 0.09981 0.51017 0.36055 0.0
C2601 C 0.11446 0.49802 0.38432 0.0
C2602 C 0.09132 0.53894 0.36053 0.0
C2603 C 0.0968 0.55686 0.38444 0.0
H2604 H 0.09538 0.49752 0.34136 0.0
H2605 H 0.08107 0.54734 0.34122 0.0
S2606 S 0.13212 0.53469 0.4534 0.0
N2607 N 0.13256 0.50556 0.43314 0.0
N2608 N 0.1162 0.55949 0.43357 0.0
C2609 C 0.11036 0.54459 0.40895 0.0
C2610 C 0.11938 0.51529 0.40874 0.0
C2611 C 0.61146 0.94222 0.5671 0.0
C2612 C 0.59353 0.93659 0.59118 0.0
C2613 C 0.62625 0.96814 0.56465 0.0
C2614 C 0.62278 0.98948 0.58559 0.0
H2615 H 0.61627 0.92566 0.55138 0.0
H2616 H 0.64165 0.97088 0.54723 0.0
S2617 S 0.57355 0.98854 0.64865 0.0
N2618 N 0.56961 0.95671 0.63356 0.0
N2619 N 0.59709 0.00578 0.62831 0.0
C2620 C 0.60247 0.98567 0.60771 0.0
C2621 C 0.58769 0.95914 0.61054 0.0
C2622 C 0.79544 0.86181 0.34467 0.0
C2623 C 0.80779 0.84785 0.36886 0.0
C2624 C 0.76638 0.87013 0.34441 0.0
C2625 C 0.74831 0.86448 0.36814 0.0
H2626 H 0.80848 0.86719 0.32599 0.0
H2627 H 0.758 0.88086 0.32537 0.0
S2628 S 0.76954 0.82798 0.43658 0.0
N2629 N 0.79926 0.82848 0.41703 0.0
N2630 N 0.74478 0.8437 0.41646 0.0
C2631 C 0.76019 0.85008 0.39225 0.0
C2632 C 0.78983 0.84186 0.39263 0.0
C2633 C 0.88211 0.02622 0.10435 0.0
C2634 C 0.86469 0.01514 0.12651 0.0
C2635 C 0.89754 0.05161 0.10824 0.0
C2636 C 0.89504 0.06774 0.13393 0.0
H2637 H 0.88312 0.01573 0.08343 0.0
H2638 H 0.91033 0.05935 0.09031 0.0
S2639 S 0.85298 0.04689 0.19925 0.0
N2640 N 0.84718 0.02084 0.17578 0.0
N2641 N 0.8747 0.06954 0.1827 0.0
C2642 C 0.87832 0.05629 0.1567 0.0
C2643 C 0.86319 0.03001 0.15292 0.0
C2644 C 0.23505 0.64828 0.38762 0.0
C2645 C 0.24634 0.63189 0.36454 0.0
C2646 C 0.20547 0.65384 0.39006 0.0
C2647 C 0.18585 0.64347 0.36939 0.0
H2648 H 0.24913 0.65687 0.4042 0.0
H2649 H 0.19796 0.66621 0.40842 0.0
S2650 S 0.20416 0.59913 0.30481 0.0
N2651 N 0.23541 0.60535 0.32058 0.0
N2652 N 0.17996 0.61541 0.32511 0.0
C2653 C 0.19687 0.62712 0.34606 0.0
C2654 C 0.22702 0.62141 0.34366 0.0
C2655 C 0.40231 0.48411 0.85585 0.0
C2656 C 0.39063 0.4984 0.88004 0.0
C2657 C 0.4099 0.45508 0.85712 0.0
C2658 C 0.40647 0.43911 0.88277 0.0
H2659 H 0.40504 0.49525 0.83543 0.0
H2660 H 0.41765 0.44493 0.83749 0.0
S2661 S 0.38012 0.46752 0.9534 0.0
N2662 N 0.3781 0.49507 0.93107 0.0
N2663 N 0.39292 0.4408 0.93388 0.0
C2664 C 0.3962 0.45362 0.90762 0.0
C2665 C 0.38805 0.48311 0.90614 0.0
C2666 C 0.77479 0.13013 0.11935 0.0
C2667 C 0.76569 0.1169 0.1451 0.0
C2668 C 0.79996 0.14648 0.11864 0.0
C2669 C 0.81688 0.15011 0.14368 0.0
H2670 H 0.76278 0.12711 0.09943 0.0
H2671 H 0.80708 0.155 0.09799 0.0
S2672 S 0.80137 0.12029 0.21678 0.0
N2673 N 0.77452 0.10898 0.19631 0.0
N2674 N 0.82187 0.1399 0.19534 0.0
C2675 C 0.80703 0.13818 0.16998 0.0
C2676 C 0.78144 0.12139 0.17057 0.0
C2677 C 0.70026 0.85919 0.60796 0.0
C2678 C 0.68057 0.85609 0.63093 0.0
C2679 C 0.72684 0.87253 0.61232 0.0
C2680 C 0.7348 0.88263 0.63984 0.0
H2681 H 0.69438 0.85321 0.58605 0.0
H2682 H 0.74082 0.87595 0.59383 0.0
S2683 S 0.69324 0.87628 0.70789 0.0
N2684 N 0.67251 0.8616 0.68289 0.0
N2685 N 0.72272 0.88648 0.69082 0.0
C2686 C 0.71655 0.87771 0.66339 0.0
C2687 C 0.68937 0.86437 0.65901 0.0
C2688 C 0.97678 0.25183 0.10536 0.0
C2689 C 0.98116 0.23036 0.12636 0.0
C2690 C 0.9968 0.2739 0.10137 0.0
C2691 C 0.02164 0.27547 0.11855 0.0
H2692 H 0.95748 0.25187 0.09221 0.0
H2693 H 0.99244 0.29029 0.08533 0.0
S2694 S 0.04425 0.22389 0.17513 0.0
N2695 N 0.01325 0.21121 0.1632 0.0
N2696 N 0.05029 0.25349 0.1565 0.0
C2697 C 0.02651 0.25411 0.13937 0.0
C2698 C 0.00636 0.23137 0.14314 0.0
C2699 C 0.02199 0.74834 0.3577 0.0
C2700 C 0.01907 0.72406 0.37567 0.0
C2701 C 1.00041 0.76965 0.35624 0.0
C2702 C 0.97482 0.76758 0.37254 0.0
H2703 H 0.04128 0.75101 0.34482 0.0
H2704 H 0.00402 0.78812 0.34253 0.0
S2705 S 0.95529 0.7068 0.42064 0.0
N2706 N 0.98777 0.69854 0.40882 0.0
N2707 N 0.94715 0.73784 0.40558 0.0
C2708 C 0.9714 0.74301 0.39001 0.0
C2709 C 0.99348 0.72152 0.39172 0.0
C2710 C 0.49365 0.77541 0.62653 0.0
C2711 C 0.52292 0.77014 0.62107 0.0
C2712 C 0.474 0.75279 0.62909 0.0
C2713 C 0.48309 0.72425 0.62654 0.0
H2714 H 0.48588 0.79719 0.62845 0.0
H2715 H 0.45149 0.75762 0.63273 0.0
S2716 S 0.5573 0.69906 0.61276 0.0
N2717 N 0.56006 0.73431 0.6136 0.0
N2718 N 0.52297 0.69176 0.61841 0.0
C2719 C 0.51224 0.71865 0.62135 0.0
C2720 C 0.53223 0.74165 0.61857 0.0
C2721 C 0.46989 0.24259 0.87291 0.0
C2722 C 0.47439 0.26837 0.88812 0.0
C2723 C 0.49062 0.22048 0.87291 0.0
C2724 C 0.51697 0.22323 0.88785 0.0
H2725 H 0.4501 0.23947 0.86091 0.0
H2726 H 0.48592 0.20101 0.86108 0.0
S2727 S 0.54013 0.28733 0.92942 0.0
N2728 N 0.50755 0.29565 0.91786 0.0
N2729 N 0.54672 0.25476 0.91716 0.0
C2730 C 0.52178 0.24906 0.90295 0.0
C2731 C 0.5005 0.2714 0.90324 0.0
C2732 C 0.14342 0.9907 0.23222 0.0
C2733 C 0.13326 0.96308 0.23857 0.0
C2734 C 0.1411 0.01294 0.25259 0.0
C2735 C 0.12903 0.00815 0.28016 0.0
H2736 H 0.15278 0.99524 0.2112 0.0
H2737 H 0.14866 0.03406 0.24666 0.0
S2738 S 0.09962 0.93956 0.30742 0.0
N2739 N 0.11061 0.93215 0.27418 0.0
N2740 N 0.10684 0.9738 0.31267 0.0
C2741 C 0.1187 0.98067 0.28666 0.0
C2742 C 0.12078 0.95814 0.26585 0.0
C2743 C 0.23489 0.86638 0.47552 0.0
C2744 C 0.26017 0.88289 0.47592 0.0
C2745 C 0.21398 0.86906 0.49747 0.0
C2746 C 0.21752 0.8883 0.52078 0.0
H2747 H 0.23099 0.85161 0.45784 0.0
H2748 H 0.19472 0.8561 0.49604 0.0
S2749 S 0.28122 0.93438 0.53342 0.0
N2750 N 0.2884 0.91784 0.5026 0.0
N2751 N 0.24929 0.92274 0.54375 0.0
C2752 C 0.24297 0.90452 0.5217 0.0
C2753 C 0.26423 0.90181 0.49935 0.0
C2754 C 0.39035 0.037 0.75474 0.0
C2755 C 0.40426 0.03453 0.72778 0.0
C2756 C 0.39038 0.0143 0.77473 0.0
C2757 C 0.4043 0.98826 0.7685 0.0
H2758 H 0.37905 0.05653 0.76026 0.0
H2759 H 0.37918 0.01706 0.79513 0.0
S2760 S 0.44331 0.97075 0.70065 0.0
N2761 N 0.43217 0.00399 0.6958 0.0
N2762 N 0.43208 0.96127 0.73326 0.0
C2763 C 0.41863 0.98566 0.74178 0.0
C2764 C 0.41865 0.00882 0.72145 0.0
C2765 C 0.26004 0.1571 0.97248 0.0
C2766 C 0.23244 0.14833 0.98132 0.0
C2767 C 0.28347 0.15664 0.99185 0.0
C2768 C 0.28006 0.14736 0.02068 0.0
H2769 H 0.26365 0.16378 0.95027 0.0
H2770 H 0.30451 0.163 0.98409 0.0
S2771 S 0.21163 0.12547 0.05538 0.0
N2772 N 0.2026 0.13262 0.02148 0.0
N2773 N 0.2466 0.13127 0.05763 0.0
C2774 C 0.25241 0.13946 0.02997 0.0
C2775 C 0.22859 0.1401 0.01036 0.0
C2776 C 0.74622 0.40033 0.02402 0.0
C2777 C 0.7201 0.38523 0.02178 0.0
C2778 C 0.76748 0.3984 0.00227 0.0
C2779 C 0.7635 0.38127 0.9774 0.0
H2780 H 0.75048 0.41338 0.04296 0.0
H2781 H 0.78733 0.41024 0.00503 0.0
S2782 S 0.698 0.33956 0.95974 0.0
N2783 N 0.69083 0.35411 0.99158 0.0
N2784 N 0.73076 0.35025 0.95116 0.0
C2785 C 0.73735 0.36645 0.97471 0.0
C2786 C 0.71568 0.36852 0.99672 0.0
C2787 C 0.88825 0.53621 0.25632 0.0
C2788 C 0.90259 0.53368 0.22958 0.0
C2789 C 0.88744 0.51334 0.27617 0.0
C2790 C 0.9007 0.48693 0.26994 0.0
H2791 H 0.87743 0.55601 0.26185 0.0
H2792 H 0.87623 0.51631 0.29654 0.0
S2793 S 0.93992 0.46903 0.20223 0.0
N2794 N 0.92999 0.50268 0.1977 0.0
N2795 N 0.92787 0.45949 0.23452 0.0
C2796 C 0.91512 0.48419 0.24324 0.0
C2797 C 0.9162 0.5076 0.22319 0.0
C2798 C 0.76009 0.63299 0.47144 0.0
C2799 C 0.73352 0.64652 0.47663 0.0
C2800 C 0.78229 0.63361 0.49214 0.0
C2801 C 0.77879 0.64785 0.51877 0.0
H2802 H 0.76365 0.62158 0.45131 0.0
H2803 H 0.80222 0.62253 0.48745 0.0
S2804 S 0.71358 0.68661 0.54307 0.0
N2805 N 0.70509 0.67459 0.51047 0.0
N2806 N 0.74694 0.67601 0.54916 0.0
C2807 C 0.75265 0.66202 0.52399 0.0
C2808 C 0.72998 0.66129 0.50297 0.0
C2809 C 0.61522 0.51298 0.75022 0.0
C2810 C 0.63216 0.51135 0.77543 0.0
C2811 C 0.61595 0.49111 0.7293 0.0
C2812 C 0.63354 0.46687 0.733 0.0
H2813 H 0.60155 0.5314 0.7465 0.0
H2814 H 0.60272 0.49318 0.71007 0.0
S2815 S 0.68042 0.45154 0.79612 0.0
N2816 N 0.666 0.48302 0.80351 0.0
N2817 N 0.66737 0.44202 0.76422 0.0
C2818 C 0.65039 0.46493 0.75818 0.0
C2819 C 0.64967 0.48715 0.77942 0.0
C2820 C 0.99099 0.76012 0.89625 0.0
C2821 C 0.99116 0.73549 0.87873 0.0
C2822 C 0.01178 0.78166 0.89266 0.0
C2823 C 0.03345 0.77926 0.87149 0.0
H2824 H 0.97441 0.76298 0.91249 0.0
H2825 H 0.01081 0.80042 0.90644 0.0
S2826 S 0.04464 0.71809 0.82169 0.0
N2827 N 0.01582 0.70925 0.8406 0.0
N2828 N 0.05457 0.74989 0.83371 0.0
C2829 C 0.03404 0.75465 0.8541 0.0
C2830 C 0.013 0.73269 0.85781 0.0
C2831 C 0.97729 0.25228 0.65863 0.0
C2832 C 0.98032 0.27759 0.64234 0.0
C2833 C 0.99912 0.23129 0.659 0.0
C2834 C 0.02491 0.23494 0.64334 0.0
H2835 H 0.9576 0.24836 0.67052 0.0
H2836 H 0.99549 0.21176 0.67111 0.0
S2837 S 0.04459 0.29908 0.60017 0.0
N2838 N 0.01172 0.30598 0.6118 0.0
N2839 N 0.05301 0.26728 0.61331 0.0
C2840 C 0.02854 0.26075 0.62798 0.0
C2841 C 0.00622 0.28186 0.6273 0.0
C2842 C 0.51417 0.22857 0.385 0.0
C2843 C 0.48543 0.23533 0.37877 0.0
C2844 C 0.53604 0.24887 0.38111 0.0
C2845 C 0.52987 0.27672 0.37121 0.0
H2846 H 0.51979 0.20735 0.3926 0.0
H2847 H 0.55799 0.24279 0.38608 0.0
S2848 S 0.4577 0.30522 0.35304 0.0
N2849 N 0.4517 0.27167 0.36264 0.0
N2850 N 0.49278 0.31012 0.356 0.0
C2851 C 0.50116 0.28373 0.365 0.0
C2852 C 0.47892 0.26297 0.36873 0.0
C2853 C 0.50113 0.72881 0.15467 0.0
C2854 C 0.52712 0.73277 0.13942 0.0
C2855 C 0.47937 0.74989 0.15461 0.0
C2856 C 0.48264 0.77565 0.1391 0.0
H2857 H 0.49734 0.70903 0.16629 0.0
H2858 H 0.45957 0.74573 0.16624 0.0
S2859 S 0.54759 0.798 0.09836 0.0
N2860 N 0.55564 0.76573 0.11055 0.0
N2861 N 0.51465 0.80476 0.10986 0.0
C2862 C 0.50875 0.78019 0.12445 0.0
C2863 C 0.53097 0.75892 0.12473 0.0
C2864 C 0.88746 0.03363 0.74768 0.0
C2865 C 0.86883 0.03291 0.77178 0.0
C2866 C 0.89044 0.00987 0.72912 0.0
C2867 C 0.87491 0.98451 0.734 0.0
H2868 H 0.89958 0.05286 0.74292 0.0
H2869 H 0.90451 0.0116 0.71049 0.0
S2870 S 0.82578 0.97042 0.79568 0.0
N2871 N 0.83644 0.00378 0.80068 0.0
N2872 N 0.8418 0.95938 0.76573 0.0
C2873 C 0.85685 0.98324 0.75842 0.0
C2874 C 0.85383 0.00737 0.7773 0.0
C2875 C 0.78429 0.10848 0.50068 0.0
C2876 C 0.78231 0.12282 0.47393 0.0
C2877 C 0.76283 0.11151 0.52204 0.0
C2878 C 0.73839 0.12883 0.51747 0.0
H2879 H 0.80279 0.09515 0.50532 0.0
H2880 H 0.76539 0.10018 0.54238 0.0
S2881 S 0.72193 0.16921 0.45022 0.0
N2882 N 0.75332 0.154 0.44355 0.0
N2883 N 0.71297 0.15938 0.48343 0.0
C2884 C 0.73602 0.14299 0.49066 0.0
C2885 C 0.75791 0.14 0.46896 0.0
C2886 C 0.63415 0.99173 0.22464 0.0
C2887 C 0.62058 0.01828 0.22975 0.0
C2888 C 0.6367 0.97088 0.24661 0.0
C2889 C 0.62548 0.97555 0.27453 0.0
H2890 H 0.643 0.98706 0.20343 0.0
H2891 H 0.64719 0.95079 0.24157 0.0
S2892 S 0.5891 0.04168 0.29975 0.0
N2893 N 0.59672 0.04827 0.26539 0.0
N2894 N 0.601 0.009 0.30636 0.0
C2895 C 0.61188 1.00194 0.27997 0.0
C2896 C 0.60946 0.02324 0.25767 0.0
C2897 C 0.72558 0.86004 0.00303 0.0
C2898 C 0.73003 0.87707 0.97816 0.0
C2899 C 0.74672 0.85752 0.02475 0.0
C2900 C 0.77298 0.87223 0.02263 0.0
H2901 H 0.70546 0.8487 0.00584 0.0
H2902 H 0.74225 0.84447 0.04364 0.0
S2903 S 0.79606 0.91845 0.96158 0.0
N2904 N 0.76346 0.90778 0.95229 0.0
N2905 N 0.80271 0.90375 0.99348 0.0
C2906 C 0.77781 0.88918 0.99791 0.0
C2907 C 0.75644 0.8915 0.97565 0.0
C2908 C 0.28701 0.61001 0.99662 0.0
C2909 C 0.28525 0.62454 0.96996 0.0
C2910 C 0.26517 0.61258 0.01762 0.0
C2911 C 0.24049 0.62945 0.01268 0.0
H2912 H 0.3056 0.59687 0.00143 0.0
H2913 H 0.26765 0.60124 0.03797 0.0
S2914 S 0.22475 0.67036 0.94558 0.0
N2915 N 0.25651 0.65572 0.93938 0.0
N2916 N 0.21525 0.65997 0.97846 0.0
C2917 C 0.23839 0.64385 0.98597 0.0
C2918 C 0.26076 0.64146 0.96471 0.0
C2919 C 0.13883 0.49817 0.72258 0.0
C2920 C 0.12088 0.52233 0.72574 0.0
C2921 C 0.14206 0.47793 0.74503 0.0
C2922 C 0.12737 0.48093 0.77153 0.0
H2923 H 0.15045 0.49487 0.7025 0.0
H2924 H 0.15577 0.45952 0.74142 0.0
S2925 S 0.07954 0.54128 0.79177 0.0
N2926 N 0.0895 0.54871 0.75821 0.0
N2927 N 0.09534 0.51071 0.80016 0.0
C2928 C 0.1097 0.50515 0.77512 0.0
C2929 C 0.10645 0.52577 0.7523 0.0
C2930 C 0.27628 0.36189 0.48717 0.0
C2931 C 0.26994 0.37029 0.51576 0.0
C2932 C 0.2558 0.36484 0.46488 0.0
C2933 C 0.22834 0.37629 0.47043 0.0
H2934 H 0.29735 0.3535 0.4819 0.0
H2935 H 0.26149 0.35822 0.4431 0.0
S2936 S 0.20032 0.39926 0.54192 0.0
N2937 N 0.23361 0.38884 0.54867 0.0
N2938 N 0.19545 0.39472 0.50673 0.0
C2939 C 0.22163 0.38434 0.49894 0.0
C2940 C 0.24233 0.38118 0.52163 0.0
C2941 C 0.35977 0.50926 0.26751 0.0
C2942 C 0.37185 0.53614 0.26093 0.0
C2943 C 0.36225 0.48594 0.24824 0.0
C2944 C 0.37686 0.48854 0.2216 0.0
H2945 H 0.34858 0.50612 0.28785 0.0
H2946 H 0.35257 0.46569 0.25419 0.0
S2947 S 0.41114 0.55451 0.19338 0.0
N2948 N 0.39813 0.56409 0.22528 0.0
N2949 N 0.40296 0.52032 0.18941 0.0
C2950 C 0.38901 0.51523 0.21478 0.0
C2951 C 0.38641 0.53899 0.2343 0.0
loop_
_geom_bond_atom_site_label_1
_geom_bond_atom_site_label_2
_geom_bond_distance
_geom_bond_site_symmetry_2
_ccdc_geom_bond_type
Co0 O3 1.970 . S
Co0 N17 1.989 . S
Co0 O25 1.967 . S
Co0 O32 1.920 . S
Co1 O4 1.966 . S
Co1 N10 2.022 . S
Co1 N18 1.993 . S
Co1 O26 1.941 . S
C2 O3 1.258 . S
C2 O4 1.263 . S
O3 Co0 1.970 . S
O3 C2 1.258 . S
O4 Co1 1.966 . S
O4 C2 1.263 . S
C5 O6 1.235 . S
C5 O32 1.289 . S
O6 C5 1.235 . S
C7 C9 1.400 . S
C7 N10 1.351 . S
C7 C12 1.501 . S
C8 C9 1.387 . S
C8 N11 1.341 . S
C9 C7 1.400 . S
C9 C8 1.387 . S
N10 Co1 2.022 . S
N10 C7 1.351 . S
N10 N11 1.365 . S
N11 C8 1.341 . S
N11 N10 1.365 . S
N11 H31 0.862 . S
C12 C7 1.501 . S
C12 H13 0.961 . S
C12 H14 0.961 . S
C12 H15 0.960 . S
H13 C12 0.961 . S
H14 C12 0.961 . S
H15 C12 0.960 . S
C16 N17 1.342 . S
C16 C20 1.401 . S
C16 C21 1.499 . S
N17 Co0 1.989 . S
N17 C16 1.342 . S
N17 N18 1.388 . S
N18 Co1 1.993 . S
N18 N17 1.388 . S
N18 C19 1.346 . S
C19 N18 1.346 . S
C19 C20 1.396 . S
C19 C29 1.510 . S
C20 C16 1.401 . S
C20 C19 1.396 . S
C21 C16 1.499 . S
C21 H22 0.959 . S
C21 H23 0.960 . S
C21 H24 0.961 . S
H22 C21 0.959 . S
H23 C21 0.960 . S
H24 C21 0.961 . S
O25 Co0 1.967 . S
O25 C33 1.258 . S
O26 Co1 1.941 . S
O26 C33 1.266 . S
H27 C29 0.959 . S
H28 C29 0.961 . S
C29 C19 1.510 . S
C29 H27 0.959 . S
C29 H28 0.961 . S
C29 H30 0.960 . S
H30 C29 0.960 . S
H31 N11 0.862 . S
O32 Co0 1.920 . S
O32 C5 1.289 . S
C33 O25 1.258 . S
C33 O26 1.266 . S
Co34 O37 1.970 . S
Co34 N51 1.989 . S
Co34 O59 1.967 . S
Co34 O66 1.920 . S
Co35 O38 1.966 . S
Co35 N44 2.022 . S
Co35 N52 1.993 . S
Co35 O60 1.941 . S
C36 O37 1.258 . S
C36 O38 1.263 . S
O37 Co34 1.970 . S
O37 C36 1.258 . S
O38 Co35 1.966 . S
O38 C36 1.263 . S
C39 O40 1.235 . S
C39 O66 1.289 . S
O40 C39 1.235 . S
C41 C43 1.400 . S
C41 N44 1.351 . S
C41 C46 1.501 . S
C42 C43 1.387 . S
C42 N45 1.341 . S
C43 C41 1.400 . S
C43 C42 1.387 . S
N44 Co35 2.022 . S
N44 C41 1.351 . S
N44 N45 1.365 . S
N45 C42 1.341 . S
N45 N44 1.365 . S
N45 H65 0.862 . S
C46 C41 1.501 . S
C46 H47 0.961 . S
C46 H48 0.961 . S
C46 H49 0.960 . S
H47 C46 0.961 . S
H48 C46 0.961 . S
H49 C46 0.960 . S
C50 N51 1.342 . S
C50 C54 1.401 . S
C50 C55 1.499 . S
N51 Co34 1.989 . S
N51 C50 1.342 . S
N51 N52 1.388 . S
N52 Co35 1.993 . S
N52 N51 1.388 . S
N52 C53 1.346 . S
C53 N52 1.346 . S
C53 C54 1.396 . S
C53 C63 1.510 . S
C54 C50 1.401 . S
C54 C53 1.396 . S
C55 C50 1.499 . S
C55 H56 0.959 . S
C55 H57 0.960 . S
C55 H58 0.961 . S
H56 C55 0.959 . S
H57 C55 0.960 . S
H58 C55 0.961 . S
O59 Co34 1.967 . S
O59 C67 1.258 . S
O60 Co35 1.941 . S
O60 C67 1.266 . S
H61 C63 0.959 . S
H62 C63 0.961 . S
C63 C53 1.510 . S
C63 H61 0.959 . S
C63 H62 0.961 . S
C63 H64 0.960 . S
H64 C63 0.960 . S
H65 N45 0.862 . S
O66 Co34 1.920 . S
O66 C39 1.289 . S
C67 O59 1.258 . S
C67 O60 1.266 . S
Co68 O71 1.970 . S
Co68 N85 1.989 . S
Co68 O93 1.967 . S
Co68 O100 1.920 . S
Co69 O72 1.966 . S
Co69 N78 2.022 . S
Co69 N86 1.993 . S
Co69 O94 1.941 . S
C70 O71 1.258 . S
C70 O72 1.263 . S
O71 Co68 1.970 . S
O71 C70 1.258 . S
O72 Co69 1.966 . S
O72 C70 1.263 . S
C73 O74 1.235 . S
C73 O100 1.289 . S
O74 C73 1.235 . S
C75 C77 1.400 . S
C75 N78 1.351 . S
C75 C80 1.501 . S
C76 C77 1.387 . S
C76 N79 1.341 . S
C77 C75 1.400 . S
C77 C76 1.387 . S
N78 Co69 2.022 . S
N78 C75 1.351 . S
N78 N79 1.365 . S
N79 C76 1.341 . S
N79 N78 1.365 . S
N79 H99 0.862 . S
C80 C75 1.501 . S
C80 H81 0.961 . S
C80 H82 0.961 . S
C80 H83 0.960 . S
H81 C80 0.961 . S
H82 C80 0.961 . S
H83 C80 0.960 . S
C84 N85 1.342 . S
C84 C88 1.401 . S
C84 C89 1.499 . S
N85 Co68 1.989 . S
N85 C84 1.342 . S
N85 N86 1.388 . S
N86 Co69 1.993 . S
N86 N85 1.388 . S
N86 C87 1.346 . S
C87 N86 1.346 . S
C87 C88 1.396 . S
C87 C97 1.510 . S
C88 C84 1.401 . S
C88 C87 1.396 . S
C89 C84 1.499 . S
C89 H90 0.959 . S
C89 H91 0.960 . S
C89 H92 0.961 . S
H90 C89 0.959 . S
H91 C89 0.960 . S
H92 C89 0.961 . S
O93 Co68 1.967 . S
O93 C101 1.258 . S
O94 Co69 1.941 . S
O94 C101 1.266 . S
H95 C97 0.959 . S
H96 C97 0.961 . S
C97 C87 1.510 . S
C97 H95 0.959 . S
C97 H96 0.961 . S
C97 H98 0.960 . S
H98 C97 0.960 . S
H99 N79 0.862 . S
O100 Co68 1.920 . S
O100 C73 1.289 . S
C101 O93 1.258 . S
C101 O94 1.266 . S
Co102 O105 1.970 . S
Co102 N119 1.989 . S
Co102 O127 1.967 . S
Co102 O134 1.920 . S
Co103 O106 1.966 . S
Co103 N112 2.022 . S
Co103 N120 1.993 . S
Co103 O128 1.941 . S
C104 O105 1.258 . S
C104 O106 1.263 . S
O105 Co102 1.970 . S
O105 C104 1.258 . S
O106 Co103 1.966 . S
O106 C104 1.263 . S
C107 O108 1.235 . S
C107 O134 1.289 . S
O108 C107 1.235 . S
C109 C111 1.400 . S
C109 N112 1.351 . S
C109 C114 1.501 . S
C110 C111 1.387 . S
C110 N113 1.341 . S
C111 C109 1.400 . S
C111 C110 1.387 . S
N112 Co103 2.022 . S
N112 C109 1.351 . S
N112 N113 1.365 . S
N113 C110 1.341 . S
N113 N112 1.365 . S
N113 H133 0.862 . S
C114 C109 1.501 . S
C114 H115 0.961 . S
C114 H116 0.961 . S
C114 H117 0.960 . S
H115 C114 0.961 . S
H116 C114 0.961 . S
H117 C114 0.960 . S
C118 N119 1.342 . S
C118 C122 1.401 . S
C118 C123 1.499 . S
N119 Co102 1.989 . S
N119 C118 1.342 . S
N119 N120 1.388 . S
N120 Co103 1.993 . S
N120 N119 1.388 . S
N120 C121 1.346 . S
C121 N120 1.346 . S
C121 C122 1.396 . S
C121 C131 1.510 . S
C122 C118 1.401 . S
C122 C121 1.396 . S
C123 C118 1.499 . S
C123 H124 0.959 . S
C123 H125 0.960 . S
C123 H126 0.961 . S
H124 C123 0.959 . S
H125 C123 0.960 . S
H126 C123 0.961 . S
O127 Co102 1.967 . S
O127 C135 1.258 . S
O128 Co103 1.941 . S
O128 C135 1.266 . S
H129 C131 0.959 . S
H130 C131 0.961 . S
C131 C121 1.510 . S
C131 H129 0.959 . S
C131 H130 0.961 . S
C131 H132 0.960 . S
H132 C131 0.960 . S
H133 N113 0.862 . S
O134 Co102 1.920 . S
O134 C107 1.289 . S
C135 O127 1.258 . S
C135 O128 1.266 . S
Co136 O139 1.970 . S
Co136 N153 1.989 . S
Co136 O161 1.967 . S
Co136 O168 1.920 . S
Co137 O140 1.966 . S
Co137 N146 2.022 . S
Co137 N154 1.993 . S
Co137 O162 1.941 . S
C138 O139 1.258 . S
C138 O140 1.263 . S
O139 Co136 1.970 . S
O139 C138 1.258 . S
O140 Co137 1.966 . S
O140 C138 1.263 . S
C141 O142 1.235 . S
C141 O168 1.289 . S
O142 C141 1.235 . S
C143 C145 1.400 . S
C143 N146 1.351 . S
C143 C148 1.501 . S
C144 C145 1.387 . S
C144 N147 1.341 . S
C145 C143 1.400 . S
C145 C144 1.387 . S
N146 Co137 2.022 . S
N146 C143 1.351 . S
N146 N147 1.365 . S
N147 C144 1.341 . S
N147 N146 1.365 . S
N147 H167 0.862 . S
C148 C143 1.501 . S
C148 H149 0.961 . S
C148 H150 0.961 . S
C148 H151 0.960 . S
H149 C148 0.961 . S
H150 C148 0.961 . S
H151 C148 0.960 . S
C152 N153 1.342 . S
C152 C156 1.401 . S
C152 C157 1.499 . S
N153 Co136 1.989 . S
N153 C152 1.342 . S
N153 N154 1.388 . S
N154 Co137 1.993 . S
N154 N153 1.388 . S
N154 C155 1.346 . S
C155 N154 1.346 . S
C155 C156 1.396 . S
C155 C165 1.510 . S
C156 C152 1.401 . S
C156 C155 1.396 . S
C157 C152 1.499 . S
C157 H158 0.959 . S
C157 H159 0.960 . S
C157 H160 0.961 . S
H158 C157 0.959 . S
H159 C157 0.960 . S
H160 C157 0.961 . S
O161 Co136 1.967 . S
O161 C169 1.258 . S
O162 Co137 1.941 . S
O162 C169 1.266 . S
H163 C165 0.959 . S
H164 C165 0.961 . S
C165 C155 1.510 . S
C165 H163 0.959 . S
C165 H164 0.961 . S
C165 H166 0.960 . S
H166 C165 0.960 . S
H167 N147 0.862 . S
O168 Co136 1.920 . S
O168 C141 1.289 . S
C169 O161 1.258 . S
C169 O162 1.266 . S
Co170 O173 1.970 . S
Co170 N187 1.989 . S
Co170 O195 1.967 . S
Co170 O202 1.920 . S
Co171 O174 1.966 . S
Co171 N180 2.022 . S
Co171 N188 1.993 . S
Co171 O196 1.941 . S
C172 O173 1.258 . S
C172 O174 1.263 . S
O173 Co170 1.970 . S
O173 C172 1.258 . S
O174 Co171 1.966 . S
O174 C172 1.263 . S
C175 O176 1.235 . S
C175 O202 1.289 . S
O176 C175 1.235 . S
C177 C179 1.400 . S
C177 N180 1.351 . S
C177 C182 1.501 . S
C178 C179 1.387 . S
C178 N181 1.341 . S
C179 C177 1.400 . S
C179 C178 1.387 . S
N180 Co171 2.022 . S
N180 C177 1.351 . S
N180 N181 1.365 . S
N181 C178 1.341 . S
N181 N180 1.365 . S
N181 H201 0.862 . S
C182 C177 1.501 . S
C182 H183 0.961 . S
C182 H184 0.961 . S
C182 H185 0.960 . S
H183 C182 0.961 . S
H184 C182 0.961 . S
H185 C182 0.960 . S
C186 N187 1.342 . S
C186 C190 1.401 . S
C186 C191 1.499 . S
N187 Co170 1.989 . S
N187 C186 1.342 . S
N187 N188 1.388 . S
N188 Co171 1.993 . S
N188 N187 1.388 . S
N188 C189 1.346 . S
C189 N188 1.346 . S
C189 C190 1.396 . S
C189 C199 1.510 . S
C190 C186 1.401 . S
C190 C189 1.396 . S
C191 C186 1.499 . S
C191 H192 0.959 . S
C191 H193 0.960 . S
C191 H194 0.961 . S
H192 C191 0.959 . S
H193 C191 0.960 . S
H194 C191 0.961 . S
O195 Co170 1.967 . S
O195 C203 1.258 . S
O196 Co171 1.941 . S
O196 C203 1.266 . S
H197 C199 0.959 . S
H198 C199 0.961 . S
C199 C189 1.510 . S
C199 H197 0.959 . S
C199 H198 0.961 . S
C199 H200 0.960 . S
H200 C199 0.960 . S
H201 N181 0.862 . S
O202 Co170 1.920 . S
O202 C175 1.289 . S
C203 O195 1.258 . S
C203 O196 1.266 . S
Co204 O207 1.970 . S
Co204 N221 1.989 . S
Co204 O229 1.967 . S
Co204 O236 1.920 . S
Co205 O208 1.966 . S
Co205 N214 2.022 . S
Co205 N222 1.993 . S
Co205 O230 1.941 . S
C206 O207 1.258 . S
C206 O208 1.263 . S
O207 Co204 1.970 . S
O207 C206 1.258 . S
O208 Co205 1.966 . S
O208 C206 1.263 . S
C209 O210 1.235 . S
C209 O236 1.289 . S
O210 C209 1.235 . S
C211 C213 1.400 . S
C211 N214 1.351 . S
C211 C216 1.501 . S
C212 C213 1.387 . S
C212 N215 1.341 . S
C213 C211 1.400 . S
C213 C212 1.387 . S
N214 Co205 2.022 . S
N214 C211 1.351 . S
N214 N215 1.365 . S
N215 C212 1.341 . S
N215 N214 1.365 . S
N215 H235 0.862 . S
C216 C211 1.501 . S
C216 H217 0.961 . S
C216 H218 0.961 . S
C216 H219 0.960 . S
H217 C216 0.961 . S
H218 C216 0.961 . S
H219 C216 0.960 . S
C220 N221 1.342 . S
C220 C224 1.401 . S
C220 C225 1.499 . S
N221 Co204 1.989 . S
N221 C220 1.342 . S
N221 N222 1.388 . S
N222 Co205 1.993 . S
N222 N221 1.388 . S
N222 C223 1.346 . S
C223 N222 1.346 . S
C223 C224 1.396 . S
C223 C233 1.510 . S
C224 C220 1.401 . S
C224 C223 1.396 . S
C225 C220 1.499 . S
C225 H226 0.959 . S
C225 H227 0.960 . S
C225 H228 0.961 . S
H226 C225 0.959 . S
H227 C225 0.960 . S
H228 C225 0.961 . S
O229 Co204 1.967 . S
O229 C237 1.258 . S
O230 Co205 1.941 . S
O230 C237 1.266 . S
H231 C233 0.959 . S
H232 C233 0.961 . S
C233 C223 1.510 . S
C233 H231 0.959 . S
C233 H232 0.961 . S
C233 H234 0.960 . S
H234 C233 0.960 . S
H235 N215 0.862 . S
O236 Co204 1.920 . S
O236 C209 1.289 . S
C237 O229 1.258 . S
C237 O230 1.266 . S
Co238 O241 1.970 . S
Co238 N255 1.989 . S
Co238 O263 1.967 . S
Co238 O270 1.920 . S
Co239 O242 1.966 . S
Co239 N248 2.022 . S
Co239 N256 1.993 . S
Co239 O264 1.941 . S
C240 O241 1.258 . S
C240 O242 1.263 . S
O241 Co238 1.970 . S
O241 C240 1.258 . S
O242 Co239 1.966 . S
O242 C240 1.263 . S
C243 O244 1.235 . S
C243 O270 1.289 . S
O244 C243 1.235 . S
C245 C247 1.400 . S
C245 N248 1.351 . S
C245 C250 1.501 . S
C246 C247 1.387 . S
C246 N249 1.341 . S
C247 C245 1.400 . S
C247 C246 1.387 . S
N248 Co239 2.022 . S
N248 C245 1.351 . S
N248 N249 1.365 . S
N249 C246 1.341 . S
N249 N248 1.365 . S
N249 H269 0.862 . S
C250 C245 1.501 . S
C250 H251 0.961 . S
C250 H252 0.961 . S
C250 H253 0.960 . S
H251 C250 0.961 . S
H252 C250 0.961 . S
H253 C250 0.960 . S
C254 N255 1.342 . S
C254 C258 1.401 . S
C254 C259 1.499 . S
N255 Co238 1.989 . S
N255 C254 1.342 . S
N255 N256 1.388 . S
N256 Co239 1.993 . S
N256 N255 1.388 . S
N256 C257 1.346 . S
C257 N256 1.346 . S
C257 C258 1.396 . S
C257 C267 1.510 . S
C258 C254 1.401 . S
C258 C257 1.396 . S
C259 C254 1.499 . S
C259 H260 0.959 . S
C259 H261 0.960 . S
C259 H262 0.961 . S
H260 C259 0.959 . S
H261 C259 0.960 . S
H262 C259 0.961 . S
O263 Co238 1.967 . S
O263 C271 1.258 . S
O264 Co239 1.941 . S
O264 C271 1.266 . S
H265 C267 0.959 . S
H266 C267 0.961 . S
C267 C257 1.510 . S
C267 H265 0.959 . S
C267 H266 0.961 . S
C267 H268 0.960 . S
H268 C267 0.960 . S
H269 N249 0.862 . S
O270 Co238 1.920 . S
O270 C243 1.289 . S
C271 O263 1.258 . S
C271 O264 1.266 . S
Co272 O275 1.970 . S
Co272 N289 1.989 . S
Co272 O297 1.967 . S
Co272 O304 1.920 . S
Co273 O276 1.966 . S
Co273 N282 2.022 . S
Co273 N290 1.993 . S
Co273 O298 1.941 . S
C274 O275 1.258 . S
C274 O276 1.263 . S
O275 Co272 1.970 . S
O275 C274 1.258 . S
O276 Co273 1.966 . S
O276 C274 1.263 . S
C277 O278 1.235 . S
C277 O304 1.289 . S
O278 C277 1.235 . S
C279 C281 1.400 . S
C279 N282 1.351 . S
C279 C284 1.501 . S
C280 C281 1.387 . S
C280 N283 1.341 . S
C281 C279 1.400 . S
C281 C280 1.387 . S
N282 Co273 2.022 . S
N282 C279 1.351 . S
N282 N283 1.365 . S
N283 C280 1.341 . S
N283 N282 1.365 . S
N283 H303 0.862 . S
C284 C279 1.501 . S
C284 H285 0.961 . S
C284 H286 0.961 . S
C284 H287 0.960 . S
H285 C284 0.961 . S
H286 C284 0.961 . S
H287 C284 0.960 . S
C288 N289 1.342 . S
C288 C292 1.401 . S
C288 C293 1.499 . S
N289 Co272 1.989 . S
N289 C288 1.342 . S
N289 N290 1.388 . S
N290 Co273 1.993 . S
N290 N289 1.388 . S
N290 C291 1.346 . S
C291 N290 1.346 . S
C291 C292 1.396 . S
C291 C301 1.510 . S
C292 C288 1.401 . S
C292 C291 1.396 . S
C293 C288 1.499 . S
C293 H294 0.959 . S
C293 H295 0.960 . S
C293 H296 0.961 . S
H294 C293 0.959 . S
H295 C293 0.960 . S
H296 C293 0.961 . S
O297 Co272 1.967 . S
O297 C305 1.258 . S
O298 Co273 1.941 . S
O298 C305 1.266 . S
H299 C301 0.959 . S
H300 C301 0.961 . S
C301 C291 1.510 . S
C301 H299 0.959 . S
C301 H300 0.961 . S
C301 H302 0.960 . S
H302 C301 0.960 . S
H303 N283 0.862 . S
O304 Co272 1.920 . S
O304 C277 1.289 . S
C305 O297 1.258 . S
C305 O298 1.266 . S
Co306 O309 1.970 . S
Co306 N323 1.989 . S
Co306 O331 1.967 . S
Co306 O338 1.920 . S
Co307 O310 1.966 . S
Co307 N316 2.022 . S
Co307 N324 1.993 . S
Co307 O332 1.941 . S
C308 O309 1.258 . S
C308 O310 1.263 . S
O309 Co306 1.970 . S
O309 C308 1.258 . S
O310 Co307 1.966 . S
O310 C308 1.263 . S
C311 O312 1.235 . S
C311 O338 1.289 . S
O312 C311 1.235 . S
C313 C315 1.400 . S
C313 N316 1.351 . S
C313 C318 1.501 . S
C314 C315 1.387 . S
C314 N317 1.341 . S
C315 C313 1.400 . S
C315 C314 1.387 . S
N316 Co307 2.022 . S
N316 C313 1.351 . S
N316 N317 1.365 . S
N317 C314 1.341 . S
N317 N316 1.365 . S
N317 H337 0.862 . S
C318 C313 1.501 . S
C318 H319 0.961 . S
C318 H320 0.961 . S
C318 H321 0.960 . S
H319 C318 0.961 . S
H320 C318 0.961 . S
H321 C318 0.960 . S
C322 N323 1.342 . S
C322 C326 1.401 . S
C322 C327 1.499 . S
N323 Co306 1.989 . S
N323 C322 1.342 . S
N323 N324 1.388 . S
N324 Co307 1.993 . S
N324 N323 1.388 . S
N324 C325 1.346 . S
C325 N324 1.346 . S
C325 C326 1.396 . S
C325 C335 1.510 . S
C326 C322 1.401 . S
C326 C325 1.396 . S
C327 C322 1.499 . S
C327 H328 0.959 . S
C327 H329 0.960 . S
C327 H330 0.961 . S
H328 C327 0.959 . S
H329 C327 0.960 . S
H330 C327 0.961 . S
O331 Co306 1.967 . S
O331 C339 1.258 . S
O332 Co307 1.941 . S
O332 C339 1.266 . S
H333 C335 0.959 . S
H334 C335 0.961 . S
C335 C325 1.510 . S
C335 H333 0.959 . S
C335 H334 0.961 . S
C335 H336 0.960 . S
H336 C335 0.960 . S
H337 N317 0.862 . S
O338 Co306 1.920 . S
O338 C311 1.289 . S
C339 O331 1.258 . S
C339 O332 1.266 . S
Co340 O343 1.970 . S
Co340 N357 1.989 . S
Co340 O365 1.967 . S
Co340 O372 1.920 . S
Co341 O344 1.966 . S
Co341 N350 2.022 . S
Co341 N358 1.993 . S
Co341 O366 1.941 . S
C342 O343 1.258 . S
C342 O344 1.263 . S
O343 Co340 1.970 . S
O343 C342 1.258 . S
O344 Co341 1.966 . S
O344 C342 1.263 . S
C345 O346 1.235 . S
C345 O372 1.289 . S
O346 C345 1.235 . S
C347 C349 1.400 . S
C347 N350 1.351 . S
C347 C352 1.501 . S
C348 C349 1.387 . S
C348 N351 1.341 . S
C349 C347 1.400 . S
C349 C348 1.387 . S
N350 Co341 2.022 . S
N350 C347 1.351 . S
N350 N351 1.365 . S
N351 C348 1.341 . S
N351 N350 1.365 . S
N351 H371 0.862 . S
C352 C347 1.501 . S
C352 H353 0.961 . S
C352 H354 0.961 . S
C352 H355 0.960 . S
H353 C352 0.961 . S
H354 C352 0.961 . S
H355 C352 0.960 . S
C356 N357 1.342 . S
C356 C360 1.401 . S
C356 C361 1.499 . S
N357 Co340 1.989 . S
N357 C356 1.342 . S
N357 N358 1.388 . S
N358 Co341 1.993 . S
N358 N357 1.388 . S
N358 C359 1.346 . S
C359 N358 1.346 . S
C359 C360 1.396 . S
C359 C369 1.510 . S
C360 C356 1.401 . S
C360 C359 1.396 . S
C361 C356 1.499 . S
C361 H362 0.959 . S
C361 H363 0.960 . S
C361 H364 0.961 . S
H362 C361 0.959 . S
H363 C361 0.960 . S
H364 C361 0.961 . S
O365 Co340 1.967 . S
O365 C373 1.258 . S
O366 Co341 1.941 . S
O366 C373 1.266 . S
H367 C369 0.959 . S
H368 C369 0.961 . S
C369 C359 1.510 . S
C369 H367 0.959 . S
C369 H368 0.961 . S
C369 H370 0.960 . S
H370 C369 0.960 . S
H371 N351 0.862 . S
O372 Co340 1.920 . S
O372 C345 1.289 . S
C373 O365 1.258 . S
C373 O366 1.266 . S
Co374 O377 1.970 . S
Co374 N391 1.989 . S
Co374 O399 1.967 . S
Co374 O406 1.920 . S
Co375 O378 1.966 . S
Co375 N384 2.022 . S
Co375 N392 1.993 . S
Co375 O400 1.941 . S
C376 O377 1.258 . S
C376 O378 1.263 . S
O377 Co374 1.970 . S
O377 C376 1.258 . S
O378 Co375 1.966 . S
O378 C376 1.263 . S
C379 O380 1.235 . S
C379 O406 1.289 . S
O380 C379 1.235 . S
C381 C383 1.400 . S
C381 N384 1.351 . S
C381 C386 1.501 . S
C382 C383 1.387 . S
C382 N385 1.341 . S
C383 C381 1.400 . S
C383 C382 1.387 . S
N384 Co375 2.022 . S
N384 C381 1.351 . S
N384 N385 1.365 . S
N385 C382 1.341 . S
N385 N384 1.365 . S
N385 H405 0.862 . S
C386 C381 1.501 . S
C386 H387 0.961 . S
C386 H388 0.961 . S
C386 H389 0.960 . S
H387 C386 0.961 . S
H388 C386 0.961 . S
H389 C386 0.960 . S
C390 N391 1.342 . S
C390 C394 1.401 . S
C390 C395 1.499 . S
N391 Co374 1.989 . S
N391 C390 1.342 . S
N391 N392 1.388 . S
N392 Co375 1.993 . S
N392 N391 1.388 . S
N392 C393 1.346 . S
C393 N392 1.346 . S
C393 C394 1.396 . S
C393 C403 1.510 . S
C394 C390 1.401 . S
C394 C393 1.396 . S
C395 C390 1.499 . S
C395 H396 0.959 . S
C395 H397 0.960 . S
C395 H398 0.961 . S
H396 C395 0.959 . S
H397 C395 0.960 . S
H398 C395 0.961 . S
O399 Co374 1.967 . S
O399 C407 1.258 . S
O400 Co375 1.941 . S
O400 C407 1.266 . S
H401 C403 0.959 . S
H402 C403 0.961 . S
C403 C393 1.510 . S
C403 H401 0.959 . S
C403 H402 0.961 . S
C403 H404 0.960 . S
H404 C403 0.960 . S
H405 N385 0.862 . S
O406 Co374 1.920 . S
O406 C379 1.289 . S
C407 O399 1.258 . S
C407 O400 1.266 . S
Co408 O411 1.970 . S
Co408 N425 1.989 . S
Co408 O433 1.967 . S
Co408 O440 1.920 . S
Co409 O412 1.966 . S
Co409 N418 2.022 . S
Co409 N426 1.993 . S
Co409 O434 1.941 . S
C410 O411 1.258 . S
C410 O412 1.263 . S
O411 Co408 1.970 . S
O411 C410 1.258 . S
O412 Co409 1.966 . S
O412 C410 1.263 . S
C413 O414 1.235 . S
C413 O440 1.289 . S
O414 C413 1.235 . S
C415 C417 1.400 . S
C415 N418 1.351 . S
C415 C420 1.501 . S
C416 C417 1.387 . S
C416 N419 1.341 . S
C417 C415 1.400 . S
C417 C416 1.387 . S
N418 Co409 2.022 . S
N418 C415 1.351 . S
N418 N419 1.365 . S
N419 C416 1.341 . S
N419 N418 1.365 . S
N419 H439 0.862 . S
C420 C415 1.501 . S
C420 H421 0.961 . S
C420 H422 0.961 . S
C420 H423 0.960 . S
H421 C420 0.961 . S
H422 C420 0.961 . S
H423 C420 0.960 . S
C424 N425 1.342 . S
C424 C428 1.401 . S
C424 C429 1.499 . S
N425 Co408 1.989 . S
N425 C424 1.342 . S
N425 N426 1.388 . S
N426 Co409 1.993 . S
N426 N425 1.388 . S
N426 C427 1.346 . S
C427 N426 1.346 . S
C427 C428 1.396 . S
C427 C437 1.510 . S
C428 C424 1.401 . S
C428 C427 1.396 . S
C429 C424 1.499 . S
C429 H430 0.959 . S
C429 H431 0.960 . S
C429 H432 0.961 . S
H430 C429 0.959 . S
H431 C429 0.960 . S
H432 C429 0.961 . S
O433 Co408 1.967 . S
O433 C441 1.258 . S
O434 Co409 1.941 . S
O434 C441 1.266 . S
H435 C437 0.959 . S
H436 C437 0.961 . S
C437 C427 1.510 . S
C437 H435 0.959 . S
C437 H436 0.961 . S
C437 H438 0.960 . S
H438 C437 0.960 . S
H439 N419 0.862 . S
O440 Co408 1.920 . S
O440 C413 1.289 . S
C441 O433 1.258 . S
C441 O434 1.266 . S
Co442 O445 1.970 . S
Co442 N459 1.989 . S
Co442 O467 1.967 . S
Co442 O474 1.920 . S
Co443 O446 1.966 . S
Co443 N452 2.022 . S
Co443 N460 1.993 . S
Co443 O468 1.941 . S
C444 O445 1.258 . S
C444 O446 1.263 . S
O445 Co442 1.970 . S
O445 C444 1.258 . S
O446 Co443 1.966 . S
O446 C444 1.263 . S
C447 O448 1.235 . S
C447 O474 1.289 . S
O448 C447 1.235 . S
C449 C451 1.400 . S
C449 N452 1.351 . S
C449 C454 1.501 . S
C450 C451 1.387 . S
C450 N453 1.341 . S
C451 C449 1.400 . S
C451 C450 1.387 . S
N452 Co443 2.022 . S
N452 C449 1.351 . S
N452 N453 1.365 . S
N453 C450 1.341 . S
N453 N452 1.365 . S
N453 H473 0.862 . S
C454 C449 1.501 . S
C454 H455 0.961 . S
C454 H456 0.961 . S
C454 H457 0.960 . S
H455 C454 0.961 . S
H456 C454 0.961 . S
H457 C454 0.960 . S
C458 N459 1.342 . S
C458 C462 1.401 . S
C458 C463 1.499 . S
N459 Co442 1.989 . S
N459 C458 1.342 . S
N459 N460 1.388 . S
N460 Co443 1.993 . S
N460 N459 1.388 . S
N460 C461 1.346 . S
C461 N460 1.346 . S
C461 C462 1.396 . S
C461 C471 1.510 . S
C462 C458 1.401 . S
C462 C461 1.396 . S
C463 C458 1.499 . S
C463 H464 0.959 . S
C463 H465 0.960 . S
C463 H466 0.961 . S
H464 C463 0.959 . S
H465 C463 0.960 . S
H466 C463 0.961 . S
O467 Co442 1.967 . S
O467 C475 1.258 . S
O468 Co443 1.941 . S
O468 C475 1.266 . S
H469 C471 0.959 . S
H470 C471 0.961 . S
C471 C461 1.510 . S
C471 H469 0.959 . S
C471 H470 0.961 . S
C471 H472 0.960 . S
H472 C471 0.960 . S
H473 N453 0.862 . S
O474 Co442 1.920 . S
O474 C447 1.289 . S
C475 O467 1.258 . S
C475 O468 1.266 . S
Co476 O479 1.970 . S
Co476 N493 1.989 . S
Co476 O501 1.967 . S
Co476 O508 1.920 . S
Co477 O480 1.966 . S
Co477 N486 2.022 . S
Co477 N494 1.993 . S
Co477 O502 1.941 . S
C478 O479 1.258 . S
C478 O480 1.263 . S
O479 Co476 1.970 . S
O479 C478 1.258 . S
O480 Co477 1.966 . S
O480 C478 1.263 . S
C481 O482 1.235 . S
C481 O508 1.289 . S
O482 C481 1.235 . S
C483 C485 1.400 . S
C483 N486 1.351 . S
C483 C488 1.501 . S
C484 C485 1.387 . S
C484 N487 1.341 . S
C485 C483 1.400 . S
C485 C484 1.387 . S
N486 Co477 2.022 . S
N486 C483 1.351 . S
N486 N487 1.365 . S
N487 C484 1.341 . S
N487 N486 1.365 . S
N487 H507 0.862 . S
C488 C483 1.501 . S
C488 H489 0.961 . S
C488 H490 0.961 . S
C488 H491 0.960 . S
H489 C488 0.961 . S
H490 C488 0.961 . S
H491 C488 0.960 . S
C492 N493 1.342 . S
C492 C496 1.401 . S
C492 C497 1.499 . S
N493 Co476 1.989 . S
N493 C492 1.342 . S
N493 N494 1.388 . S
N494 Co477 1.993 . S
N494 N493 1.388 . S
N494 C495 1.346 . S
C495 N494 1.346 . S
C495 C496 1.396 . S
C495 C505 1.510 . S
C496 C492 1.401 . S
C496 C495 1.396 . S
C497 C492 1.499 . S
C497 H498 0.959 . S
C497 H499 0.960 . S
C497 H500 0.961 . S
H498 C497 0.959 . S
H499 C497 0.960 . S
H500 C497 0.961 . S
O501 Co476 1.967 . S
O501 C509 1.258 . S
O502 Co477 1.941 . S
O502 C509 1.266 . S
H503 C505 0.959 . S
H504 C505 0.961 . S
C505 C495 1.510 . S
C505 H503 0.959 . S
C505 H504 0.961 . S
C505 H506 0.960 . S
H506 C505 0.960 . S
H507 N487 0.862 . S
O508 Co476 1.920 . S
O508 C481 1.289 . S
C509 O501 1.258 . S
C509 O502 1.266 . S
Co510 O513 1.970 . S
Co510 N527 1.989 . S
Co510 O535 1.967 . S
Co510 O542 1.920 . S
Co511 O514 1.966 . S
Co511 N520 2.022 . S
Co511 N528 1.993 . S
Co511 O536 1.941 . S
C512 O513 1.258 . S
C512 O514 1.263 . S
O513 Co510 1.970 . S
O513 C512 1.258 . S
O514 Co511 1.966 . S
O514 C512 1.263 . S
C515 O516 1.235 . S
C515 O542 1.289 . S
O516 C515 1.235 . S
C517 C519 1.400 . S
C517 N520 1.351 . S
C517 C522 1.501 . S
C518 C519 1.387 . S
C518 N521 1.341 . S
C519 C517 1.400 . S
C519 C518 1.387 . S
N520 Co511 2.022 . S
N520 C517 1.351 . S
N520 N521 1.365 . S
N521 C518 1.341 . S
N521 N520 1.365 . S
N521 H541 0.862 . S
C522 C517 1.501 . S
C522 H523 0.961 . S
C522 H524 0.961 . S
C522 H525 0.960 . S
H523 C522 0.961 . S
H524 C522 0.961 . S
H525 C522 0.960 . S
C526 N527 1.342 . S
C526 C530 1.401 . S
C526 C531 1.499 . S
N527 Co510 1.989 . S
N527 C526 1.342 . S
N527 N528 1.388 . S
N528 Co511 1.993 . S
N528 N527 1.388 . S
N528 C529 1.346 . S
C529 N528 1.346 . S
C529 C530 1.396 . S
C529 C539 1.510 . S
C530 C526 1.401 . S
C530 C529 1.396 . S
C531 C526 1.499 . S
C531 H532 0.959 . S
C531 H533 0.960 . S
C531 H534 0.961 . S
H532 C531 0.959 . S
H533 C531 0.960 . S
H534 C531 0.961 . S
O535 Co510 1.967 . S
O535 C543 1.258 . S
O536 Co511 1.941 . S
O536 C543 1.266 . S
H537 C539 0.959 . S
H538 C539 0.961 . S
C539 C529 1.510 . S
C539 H537 0.959 . S
C539 H538 0.961 . S
C539 H540 0.960 . S
H540 C539 0.960 . S
H541 N521 0.862 . S
O542 Co510 1.920 . S
O542 C515 1.289 . S
C543 O535 1.258 . S
C543 O536 1.266 . S
Co544 O547 1.970 . S
Co544 N561 1.989 . S
Co544 O569 1.967 . S
Co544 O576 1.920 . S
Co545 O548 1.966 . S
Co545 N554 2.022 . S
Co545 N562 1.993 . S
Co545 O570 1.941 . S
C546 O547 1.258 . S
C546 O548 1.263 . S
O547 Co544 1.970 . S
O547 C546 1.258 . S
O548 Co545 1.966 . S
O548 C546 1.263 . S
C549 O550 1.235 . S
C549 O576 1.289 . S
O550 C549 1.235 . S
C551 C553 1.400 . S
C551 N554 1.351 . S
C551 C556 1.501 . S
C552 C553 1.387 . S
C552 N555 1.341 . S
C553 C551 1.400 . S
C553 C552 1.387 . S
N554 Co545 2.022 . S
N554 C551 1.351 . S
N554 N555 1.365 . S
N555 C552 1.341 . S
N555 N554 1.365 . S
N555 H575 0.862 . S
C556 C551 1.501 . S
C556 H557 0.961 . S
C556 H558 0.961 . S
C556 H559 0.960 . S
H557 C556 0.961 . S
H558 C556 0.961 . S
H559 C556 0.960 . S
C560 N561 1.342 . S
C560 C564 1.401 . S
C560 C565 1.499 . S
N561 Co544 1.989 . S
N561 C560 1.342 . S
N561 N562 1.388 . S
N562 Co545 1.993 . S
N562 N561 1.388 . S
N562 C563 1.346 . S
C563 N562 1.346 . S
C563 C564 1.396 . S
C563 C573 1.510 . S
C564 C560 1.401 . S
C564 C563 1.396 . S
C565 C560 1.499 . S
C565 H566 0.959 . S
C565 H567 0.960 . S
C565 H568 0.961 . S
H566 C565 0.959 . S
H567 C565 0.960 . S
H568 C565 0.961 . S
O569 Co544 1.967 . S
O569 C577 1.258 . S
O570 Co545 1.941 . S
O570 C577 1.266 . S
H571 C573 0.959 . S
H572 C573 0.961 . S
C573 C563 1.510 . S
C573 H571 0.959 . S
C573 H572 0.961 . S
C573 H574 0.960 . S
H574 C573 0.960 . S
H575 N555 0.862 . S
O576 Co544 1.920 . S
O576 C549 1.289 . S
C577 O569 1.258 . S
C577 O570 1.266 . S
Co578 O581 1.970 . S
Co578 N595 1.989 . S
Co578 O603 1.967 . S
Co578 O610 1.920 . S
Co579 O582 1.966 . S
Co579 N588 2.022 . S
Co579 N596 1.993 . S
Co579 O604 1.941 . S
C580 O581 1.258 . S
C580 O582 1.263 . S
O581 Co578 1.970 . S
O581 C580 1.258 . S
O582 Co579 1.966 . S
O582 C580 1.263 . S
C583 O584 1.235 . S
C583 O610 1.289 . S
O584 C583 1.235 . S
C585 C587 1.400 . S
C585 N588 1.351 . S
C585 C590 1.501 . S
C586 C587 1.387 . S
C586 N589 1.341 . S
C587 C585 1.400 . S
C587 C586 1.387 . S
N588 Co579 2.022 . S
N588 C585 1.351 . S
N588 N589 1.365 . S
N589 C586 1.341 . S
N589 N588 1.365 . S
N589 H609 0.862 . S
C590 C585 1.501 . S
C590 H591 0.961 . S
C590 H592 0.961 . S
C590 H593 0.960 . S
H591 C590 0.961 . S
H592 C590 0.961 . S
H593 C590 0.960 . S
C594 N595 1.342 . S
C594 C598 1.401 . S
C594 C599 1.499 . S
N595 Co578 1.989 . S
N595 C594 1.342 . S
N595 N596 1.388 . S
N596 Co579 1.993 . S
N596 N595 1.388 . S
N596 C597 1.346 . S
C597 N596 1.346 . S
C597 C598 1.396 . S
C597 C607 1.510 . S
C598 C594 1.401 . S
C598 C597 1.396 . S
C599 C594 1.499 . S
C599 H600 0.959 . S
C599 H601 0.960 . S
C599 H602 0.961 . S
H600 C599 0.959 . S
H601 C599 0.960 . S
H602 C599 0.961 . S
O603 Co578 1.967 . S
O603 C611 1.258 . S
O604 Co579 1.941 . S
O604 C611 1.266 . S
H605 C607 0.959 . S
H606 C607 0.961 . S
C607 C597 1.510 . S
C607 H605 0.959 . S
C607 H606 0.961 . S
C607 H608 0.960 . S
H608 C607 0.960 . S
H609 N589 0.862 . S
O610 Co578 1.920 . S
O610 C583 1.289 . S
C611 O603 1.258 . S
C611 O604 1.266 . S
Co612 O615 1.970 . S
Co612 N629 1.989 . S
Co612 O637 1.967 . S
Co612 O644 1.920 . S
Co613 O616 1.966 . S
Co613 N622 2.022 . S
Co613 N630 1.993 . S
Co613 O638 1.941 . S
C614 O615 1.258 . S
C614 O616 1.263 . S
O615 Co612 1.970 . S
O615 C614 1.258 . S
O616 Co613 1.966 . S
O616 C614 1.263 . S
C617 O618 1.235 . S
C617 O644 1.289 . S
O618 C617 1.235 . S
C619 C621 1.400 . S
C619 N622 1.351 . S
C619 C624 1.501 . S
C620 C621 1.387 . S
C620 N623 1.341 . S
C621 C619 1.400 . S
C621 C620 1.387 . S
N622 Co613 2.022 . S
N622 C619 1.351 . S
N622 N623 1.365 . S
N623 C620 1.341 . S
N623 N622 1.365 . S
N623 H643 0.862 . S
C624 C619 1.501 . S
C624 H625 0.961 . S
C624 H626 0.961 . S
C624 H627 0.960 . S
H625 C624 0.961 . S
H626 C624 0.961 . S
H627 C624 0.960 . S
C628 N629 1.342 . S
C628 C632 1.401 . S
C628 C633 1.499 . S
N629 Co612 1.989 . S
N629 C628 1.342 . S
N629 N630 1.388 . S
N630 Co613 1.993 . S
N630 N629 1.388 . S
N630 C631 1.346 . S
C631 N630 1.346 . S
C631 C632 1.396 . S
C631 C641 1.510 . S
C632 C628 1.401 . S
C632 C631 1.396 . S
C633 C628 1.499 . S
C633 H634 0.959 . S
C633 H635 0.960 . S
C633 H636 0.961 . S
H634 C633 0.959 . S
H635 C633 0.960 . S
H636 C633 0.961 . S
O637 Co612 1.967 . S
O637 C645 1.258 . S
O638 Co613 1.941 . S
O638 C645 1.266 . S
H639 C641 0.959 . S
H640 C641 0.961 . S
C641 C631 1.510 . S
C641 H639 0.959 . S
C641 H640 0.961 . S
C641 H642 0.960 . S
H642 C641 0.960 . S
H643 N623 0.862 . S
O644 Co612 1.920 . S
O644 C617 1.289 . S
C645 O637 1.258 . S
C645 O638 1.266 . S
Co646 O649 1.970 . S
Co646 N663 1.989 . S
Co646 O671 1.967 . S
Co646 O678 1.920 . S
Co647 O650 1.966 . S
Co647 N656 2.022 . S
Co647 N664 1.993 . S
Co647 O672 1.941 . S
C648 O649 1.258 . S
C648 O650 1.263 . S
O649 Co646 1.970 . S
O649 C648 1.258 . S
O650 Co647 1.966 . S
O650 C648 1.263 . S
C651 O652 1.235 . S
C651 O678 1.289 . S
O652 C651 1.235 . S
C653 C655 1.400 . S
C653 N656 1.351 . S
C653 C658 1.501 . S
C654 C655 1.387 . S
C654 N657 1.341 . S
C655 C653 1.400 . S
C655 C654 1.387 . S
N656 Co647 2.022 . S
N656 C653 1.351 . S
N656 N657 1.365 . S
N657 C654 1.341 . S
N657 N656 1.365 . S
N657 H677 0.862 . S
C658 C653 1.501 . S
C658 H659 0.961 . S
C658 H660 0.961 . S
C658 H661 0.960 . S
H659 C658 0.961 . S
H660 C658 0.961 . S
H661 C658 0.960 . S
C662 N663 1.342 . S
C662 C666 1.401 . S
C662 C667 1.499 . S
N663 Co646 1.989 . S
N663 C662 1.342 . S
N663 N664 1.388 . S
N664 Co647 1.993 . S
N664 N663 1.388 . S
N664 C665 1.346 . S
C665 N664 1.346 . S
C665 C666 1.396 . S
C665 C675 1.510 . S
C666 C662 1.401 . S
C666 C665 1.396 . S
C667 C662 1.499 . S
C667 H668 0.959 . S
C667 H669 0.960 . S
C667 H670 0.961 . S
H668 C667 0.959 . S
H669 C667 0.960 . S
H670 C667 0.961 . S
O671 Co646 1.967 . S
O671 C679 1.258 . S
O672 Co647 1.941 . S
O672 C679 1.266 . S
H673 C675 0.959 . S
H674 C675 0.961 . S
C675 C665 1.510 . S
C675 H673 0.959 . S
C675 H674 0.961 . S
C675 H676 0.960 . S
H676 C675 0.960 . S
H677 N657 0.862 . S
O678 Co646 1.920 . S
O678 C651 1.289 . S
C679 O671 1.258 . S
C679 O672 1.266 . S
Co680 O683 1.970 . S
Co680 N697 1.989 . S
Co680 O705 1.967 . S
Co680 O712 1.920 . S
Co681 O684 1.966 . S
Co681 N690 2.022 . S
Co681 N698 1.993 . S
Co681 O706 1.941 . S
C682 O683 1.258 . S
C682 O684 1.263 . S
O683 Co680 1.970 . S
O683 C682 1.258 . S
O684 Co681 1.966 . S
O684 C682 1.263 . S
C685 O686 1.235 . S
C685 O712 1.289 . S
O686 C685 1.235 . S
C687 C689 1.400 . S
C687 N690 1.351 . S
C687 C692 1.501 . S
C688 C689 1.387 . S
C688 N691 1.341 . S
C689 C687 1.400 . S
C689 C688 1.387 . S
N690 Co681 2.022 . S
N690 C687 1.351 . S
N690 N691 1.365 . S
N691 C688 1.341 . S
N691 N690 1.365 . S
N691 H711 0.862 . S
C692 C687 1.501 . S
C692 H693 0.961 . S
C692 H694 0.961 . S
C692 H695 0.960 . S
H693 C692 0.961 . S
H694 C692 0.961 . S
H695 C692 0.960 . S
C696 N697 1.342 . S
C696 C700 1.401 . S
C696 C701 1.499 . S
N697 Co680 1.989 . S
N697 C696 1.342 . S
N697 N698 1.388 . S
N698 Co681 1.993 . S
N698 N697 1.388 . S
N698 C699 1.346 . S
C699 N698 1.346 . S
C699 C700 1.396 . S
C699 C709 1.510 . S
C700 C696 1.401 . S
C700 C699 1.396 . S
C701 C696 1.499 . S
C701 H702 0.959 . S
C701 H703 0.960 . S
C701 H704 0.961 . S
H702 C701 0.959 . S
H703 C701 0.960 . S
H704 C701 0.961 . S
O705 Co680 1.967 . S
O705 C713 1.258 . S
O706 Co681 1.941 . S
O706 C713 1.266 . S
H707 C709 0.959 . S
H708 C709 0.961 . S
C709 C699 1.510 . S
C709 H707 0.959 . S
C709 H708 0.961 . S
C709 H710 0.960 . S
H710 C709 0.960 . S
H711 N691 0.862 . S
O712 Co680 1.920 . S
O712 C685 1.289 . S
C713 O705 1.258 . S
C713 O706 1.266 . S
Co714 O717 1.970 . S
Co714 N731 1.989 . S
Co714 O739 1.967 . S
Co714 O746 1.920 . S
Co715 O718 1.966 . S
Co715 N724 2.022 . S
Co715 N732 1.993 . S
Co715 O740 1.941 . S
C716 O717 1.258 . S
C716 O718 1.263 . S
O717 Co714 1.970 . S
O717 C716 1.258 . S
O718 Co715 1.966 . S
O718 C716 1.263 . S
C719 O720 1.235 . S
C719 O746 1.289 . S
O720 C719 1.235 . S
C721 C723 1.400 . S
C721 N724 1.351 . S
C721 C726 1.501 . S
C722 C723 1.387 . S
C722 N725 1.341 . S
C723 C721 1.400 . S
C723 C722 1.387 . S
N724 Co715 2.022 . S
N724 C721 1.351 . S
N724 N725 1.365 . S
N725 C722 1.341 . S
N725 N724 1.365 . S
N725 H745 0.862 . S
C726 C721 1.501 . S
C726 H727 0.961 . S
C726 H728 0.961 . S
C726 H729 0.960 . S
H727 C726 0.961 . S
H728 C726 0.961 . S
H729 C726 0.960 . S
C730 N731 1.342 . S
C730 C734 1.401 . S
C730 C735 1.499 . S
N731 Co714 1.989 . S
N731 C730 1.342 . S
N731 N732 1.388 . S
N732 Co715 1.993 . S
N732 N731 1.388 . S
N732 C733 1.346 . S
C733 N732 1.346 . S
C733 C734 1.396 . S
C733 C743 1.510 . S
C734 C730 1.401 . S
C734 C733 1.396 . S
C735 C730 1.499 . S
C735 H736 0.959 . S
C735 H737 0.960 . S
C735 H738 0.961 . S
H736 C735 0.959 . S
H737 C735 0.960 . S
H738 C735 0.961 . S
O739 Co714 1.967 . S
O739 C747 1.258 . S
O740 Co715 1.941 . S
O740 C747 1.266 . S
H741 C743 0.959 . S
H742 C743 0.961 . S
C743 C733 1.510 . S
C743 H741 0.959 . S
C743 H742 0.961 . S
C743 H744 0.960 . S
H744 C743 0.960 . S
H745 N725 0.862 . S
O746 Co714 1.920 . S
O746 C719 1.289 . S
C747 O739 1.258 . S
C747 O740 1.266 . S
Co748 O751 1.970 . S
Co748 N765 1.989 . S
Co748 O773 1.967 . S
Co748 O780 1.920 . S
Co749 O752 1.966 . S
Co749 N758 2.022 . S
Co749 N766 1.993 . S
Co749 O774 1.941 . S
C750 O751 1.258 . S
C750 O752 1.263 . S
O751 Co748 1.970 . S
O751 C750 1.258 . S
O752 Co749 1.966 . S
O752 C750 1.263 . S
C753 O754 1.235 . S
C753 O780 1.289 . S
O754 C753 1.235 . S
C755 C757 1.400 . S
C755 N758 1.351 . S
C755 C760 1.501 . S
C756 C757 1.387 . S
C756 N759 1.341 . S
C757 C755 1.400 . S
C757 C756 1.387 . S
N758 Co749 2.022 . S
N758 C755 1.351 . S
N758 N759 1.365 . S
N759 C756 1.341 . S
N759 N758 1.365 . S
N759 H779 0.862 . S
C760 C755 1.501 . S
C760 H761 0.961 . S
C760 H762 0.961 . S
C760 H763 0.960 . S
H761 C760 0.961 . S
H762 C760 0.961 . S
H763 C760 0.960 . S
C764 N765 1.342 . S
C764 C768 1.401 . S
C764 C769 1.499 . S
N765 Co748 1.989 . S
N765 C764 1.342 . S
N765 N766 1.388 . S
N766 Co749 1.993 . S
N766 N765 1.388 . S
N766 C767 1.346 . S
C767 N766 1.346 . S
C767 C768 1.396 . S
C767 C777 1.510 . S
C768 C764 1.401 . S
C768 C767 1.396 . S
C769 C764 1.499 . S
C769 H770 0.959 . S
C769 H771 0.960 . S
C769 H772 0.961 . S
H770 C769 0.959 . S
H771 C769 0.960 . S
H772 C769 0.961 . S
O773 Co748 1.967 . S
O773 C781 1.258 . S
O774 Co749 1.941 . S
O774 C781 1.266 . S
H775 C777 0.959 . S
H776 C777 0.961 . S
C777 C767 1.510 . S
C777 H775 0.959 . S
C777 H776 0.961 . S
C777 H778 0.960 . S
H778 C777 0.960 . S
H779 N759 0.862 . S
O780 Co748 1.920 . S
O780 C753 1.289 . S
C781 O773 1.258 . S
C781 O774 1.266 . S
Co782 O785 1.970 . S
Co782 N799 1.989 . S
Co782 O807 1.967 . S
Co782 O814 1.920 . S
Co783 O786 1.966 . S
Co783 N792 2.022 . S
Co783 N800 1.993 . S
Co783 O808 1.941 . S
C784 O785 1.258 . S
C784 O786 1.263 . S
O785 Co782 1.970 . S
O785 C784 1.258 . S
O786 Co783 1.966 . S
O786 C784 1.263 . S
C787 O788 1.235 . S
C787 O814 1.289 . S
O788 C787 1.235 . S
C789 C791 1.400 . S
C789 N792 1.351 . S
C789 C794 1.501 . S
C790 C791 1.387 . S
C790 N793 1.341 . S
C791 C789 1.400 . S
C791 C790 1.387 . S
N792 Co783 2.022 . S
N792 C789 1.351 . S
N792 N793 1.365 . S
N793 C790 1.341 . S
N793 N792 1.365 . S
N793 H813 0.862 . S
C794 C789 1.501 . S
C794 H795 0.961 . S
C794 H796 0.961 . S
C794 H797 0.960 . S
H795 C794 0.961 . S
H796 C794 0.961 . S
H797 C794 0.960 . S
C798 N799 1.342 . S
C798 C802 1.401 . S
C798 C803 1.499 . S
N799 Co782 1.989 . S
N799 C798 1.342 . S
N799 N800 1.388 . S
N800 Co783 1.993 . S
N800 N799 1.388 . S
N800 C801 1.346 . S
C801 N800 1.346 . S
C801 C802 1.396 . S
C801 C811 1.510 . S
C802 C798 1.401 . S
C802 C801 1.396 . S
C803 C798 1.499 . S
C803 H804 0.959 . S
C803 H805 0.960 . S
C803 H806 0.961 . S
H804 C803 0.959 . S
H805 C803 0.960 . S
H806 C803 0.961 . S
O807 Co782 1.967 . S
O807 C815 1.258 . S
O808 Co783 1.941 . S
O808 C815 1.266 . S
H809 C811 0.959 . S
H810 C811 0.961 . S
C811 C801 1.510 . S
C811 H809 0.959 . S
C811 H810 0.961 . S
C811 H812 0.960 . S
H812 C811 0.960 . S
H813 N793 0.862 . S
O814 Co782 1.920 . S
O814 C787 1.289 . S
C815 O807 1.258 . S
C815 O808 1.266 . S
Co816 O819 1.970 . S
Co816 N833 1.989 . S
Co816 O841 1.967 . S
Co816 O848 1.920 . S
Co817 O820 1.966 . S
Co817 N826 2.022 . S
Co817 N834 1.993 . S
Co817 O842 1.941 . S
C818 O819 1.258 . S
C818 O820 1.263 . S
O819 Co816 1.970 . S
O819 C818 1.258 . S
O820 Co817 1.966 . S
O820 C818 1.263 . S
C821 O822 1.235 . S
C821 O848 1.289 . S
O822 C821 1.235 . S
C823 C825 1.400 . S
C823 N826 1.351 . S
C823 C828 1.501 . S
C824 C825 1.387 . S
C824 N827 1.341 . S
C825 C823 1.400 . S
C825 C824 1.387 . S
N826 Co817 2.022 . S
N826 C823 1.351 . S
N826 N827 1.365 . S
N827 C824 1.341 . S
N827 N826 1.365 . S
N827 H847 0.862 . S
C828 C823 1.501 . S
C828 H829 0.961 . S
C828 H830 0.961 . S
C828 H831 0.960 . S
H829 C828 0.961 . S
H830 C828 0.961 . S
H831 C828 0.960 . S
C832 N833 1.342 . S
C832 C836 1.401 . S
C832 C837 1.499 . S
N833 Co816 1.989 . S
N833 C832 1.342 . S
N833 N834 1.388 . S
N834 Co817 1.993 . S
N834 N833 1.388 . S
N834 C835 1.346 . S
C835 N834 1.346 . S
C835 C836 1.396 . S
C835 C845 1.510 . S
C836 C832 1.401 . S
C836 C835 1.396 . S
C837 C832 1.499 . S
C837 H838 0.959 . S
C837 H839 0.960 . S
C837 H840 0.961 . S
H838 C837 0.959 . S
H839 C837 0.960 . S
H840 C837 0.961 . S
O841 Co816 1.967 . S
O841 C849 1.258 . S
O842 Co817 1.941 . S
O842 C849 1.266 . S
H843 C845 0.959 . S
H844 C845 0.961 . S
C845 C835 1.510 . S
C845 H843 0.959 . S
C845 H844 0.961 . S
C845 H846 0.960 . S
H846 C845 0.960 . S
H847 N827 0.862 . S
O848 Co816 1.920 . S
O848 C821 1.289 . S
C849 O841 1.258 . S
C849 O842 1.266 . S
Co850 O853 1.970 . S
Co850 N867 1.989 . S
Co850 O875 1.967 . S
Co850 O882 1.920 . S
Co851 O854 1.966 . S
Co851 N860 2.022 . S
Co851 N868 1.993 . S
Co851 O876 1.941 . S
C852 O853 1.258 . S
C852 O854 1.263 . S
O853 Co850 1.970 . S
O853 C852 1.258 . S
O854 Co851 1.966 . S
O854 C852 1.263 . S
C855 O856 1.235 . S
C855 O882 1.289 . S
O856 C855 1.235 . S
C857 C859 1.400 . S
C857 N860 1.351 . S
C857 C862 1.501 . S
C858 C859 1.387 . S
C858 N861 1.341 . S
C859 C857 1.400 . S
C859 C858 1.387 . S
N860 Co851 2.022 . S
N860 C857 1.351 . S
N860 N861 1.365 . S
N861 C858 1.341 . S
N861 N860 1.365 . S
N861 H881 0.862 . S
C862 C857 1.501 . S
C862 H863 0.961 . S
C862 H864 0.961 . S
C862 H865 0.960 . S
H863 C862 0.961 . S
H864 C862 0.961 . S
H865 C862 0.960 . S
C866 N867 1.342 . S
C866 C870 1.401 . S
C866 C871 1.499 . S
N867 Co850 1.989 . S
N867 C866 1.342 . S
N867 N868 1.388 . S
N868 Co851 1.993 . S
N868 N867 1.388 . S
N868 C869 1.346 . S
C869 N868 1.346 . S
C869 C870 1.396 . S
C869 C879 1.510 . S
C870 C866 1.401 . S
C870 C869 1.396 . S
C871 C866 1.499 . S
C871 H872 0.959 . S
C871 H873 0.960 . S
C871 H874 0.961 . S
H872 C871 0.959 . S
H873 C871 0.960 . S
H874 C871 0.961 . S
O875 Co850 1.967 . S
O875 C883 1.258 . S
O876 Co851 1.941 . S
O876 C883 1.266 . S
H877 C879 0.959 . S
H878 C879 0.961 . S
C879 C869 1.510 . S
C879 H877 0.959 . S
C879 H878 0.961 . S
C879 H880 0.960 . S
H880 C879 0.960 . S
H881 N861 0.862 . S
O882 Co850 1.920 . S
O882 C855 1.289 . S
C883 O875 1.258 . S
C883 O876 1.266 . S
Co884 O887 1.970 . S
Co884 N901 1.989 . S
Co884 O909 1.967 . S
Co884 O916 1.920 . S
Co885 O888 1.966 . S
Co885 N894 2.022 . S
Co885 N902 1.993 . S
Co885 O910 1.941 . S
C886 O887 1.258 . S
C886 O888 1.263 . S
O887 Co884 1.970 . S
O887 C886 1.258 . S
O888 Co885 1.966 . S
O888 C886 1.263 . S
C889 O890 1.235 . S
C889 O916 1.289 . S
O890 C889 1.235 . S
C891 C893 1.400 . S
C891 N894 1.351 . S
C891 C896 1.501 . S
C892 C893 1.387 . S
C892 N895 1.341 . S
C893 C891 1.400 . S
C893 C892 1.387 . S
N894 Co885 2.022 . S
N894 C891 1.351 . S
N894 N895 1.365 . S
N895 C892 1.341 . S
N895 N894 1.365 . S
N895 H915 0.862 . S
C896 C891 1.501 . S
C896 H897 0.961 . S
C896 H898 0.961 . S
C896 H899 0.960 . S
H897 C896 0.961 . S
H898 C896 0.961 . S
H899 C896 0.960 . S
C900 N901 1.342 . S
C900 C904 1.401 . S
C900 C905 1.499 . S
N901 Co884 1.989 . S
N901 C900 1.342 . S
N901 N902 1.388 . S
N902 Co885 1.993 . S
N902 N901 1.388 . S
N902 C903 1.346 . S
C903 N902 1.346 . S
C903 C904 1.396 . S
C903 C913 1.510 . S
C904 C900 1.401 . S
C904 C903 1.396 . S
C905 C900 1.499 . S
C905 H906 0.959 . S
C905 H907 0.960 . S
C905 H908 0.961 . S
H906 C905 0.959 . S
H907 C905 0.960 . S
H908 C905 0.961 . S
O909 Co884 1.967 . S
O909 C917 1.258 . S
O910 Co885 1.941 . S
O910 C917 1.266 . S
H911 C913 0.959 . S
H912 C913 0.961 . S
C913 C903 1.510 . S
C913 H911 0.959 . S
C913 H912 0.961 . S
C913 H914 0.960 . S
H914 C913 0.960 . S
H915 N895 0.862 . S
O916 Co884 1.920 . S
O916 C889 1.289 . S
C917 O909 1.258 . S
C917 O910 1.266 . S
Co918 O921 1.970 . S
Co918 N935 1.989 . S
Co918 O943 1.967 . S
Co918 O950 1.920 . S
Co919 O922 1.966 . S
Co919 N928 2.022 . S
Co919 N936 1.993 . S
Co919 O944 1.941 . S
C920 O921 1.258 . S
C920 O922 1.263 . S
O921 Co918 1.970 . S
O921 C920 1.258 . S
O922 Co919 1.966 . S
O922 C920 1.263 . S
C923 O924 1.235 . S
C923 O950 1.289 . S
O924 C923 1.235 . S
C925 C927 1.400 . S
C925 N928 1.351 . S
C925 C930 1.501 . S
C926 C927 1.387 . S
C926 N929 1.341 . S
C927 C925 1.400 . S
C927 C926 1.387 . S
N928 Co919 2.022 . S
N928 C925 1.351 . S
N928 N929 1.365 . S
N929 C926 1.341 . S
N929 N928 1.365 . S
N929 H949 0.862 . S
C930 C925 1.501 . S
C930 H931 0.961 . S
C930 H932 0.961 . S
C930 H933 0.960 . S
H931 C930 0.961 . S
H932 C930 0.961 . S
H933 C930 0.960 . S
C934 N935 1.342 . S
C934 C938 1.401 . S
C934 C939 1.499 . S
N935 Co918 1.989 . S
N935 C934 1.342 . S
N935 N936 1.388 . S
N936 Co919 1.993 . S
N936 N935 1.388 . S
N936 C937 1.346 . S
C937 N936 1.346 . S
C937 C938 1.396 . S
C937 C947 1.510 . S
C938 C934 1.401 . S
C938 C937 1.396 . S
C939 C934 1.499 . S
C939 H940 0.959 . S
C939 H941 0.960 . S
C939 H942 0.961 . S
H940 C939 0.959 . S
H941 C939 0.960 . S
H942 C939 0.961 . S
O943 Co918 1.967 . S
O943 C951 1.258 . S
O944 Co919 1.941 . S
O944 C951 1.266 . S
H945 C947 0.959 . S
H946 C947 0.961 . S
C947 C937 1.510 . S
C947 H945 0.959 . S
C947 H946 0.961 . S
C947 H948 0.960 . S
H948 C947 0.960 . S
H949 N929 0.862 . S
O950 Co918 1.920 . S
O950 C923 1.289 . S
C951 O943 1.258 . S
C951 O944 1.266 . S
Co952 O955 1.970 . S
Co952 N969 1.989 . S
Co952 O977 1.967 . S
Co952 O984 1.920 . S
Co953 O956 1.966 . S
Co953 N962 2.022 . S
Co953 N970 1.993 . S
Co953 O978 1.941 . S
C954 O955 1.258 . S
C954 O956 1.263 . S
O955 Co952 1.970 . S
O955 C954 1.258 . S
O956 Co953 1.966 . S
O956 C954 1.263 . S
C957 O958 1.235 . S
C957 O984 1.289 . S
O958 C957 1.235 . S
C959 C961 1.400 . S
C959 N962 1.351 . S
C959 C964 1.501 . S
C960 C961 1.387 . S
C960 N963 1.341 . S
C961 C959 1.400 . S
C961 C960 1.387 . S
N962 Co953 2.022 . S
N962 C959 1.351 . S
N962 N963 1.365 . S
N963 C960 1.341 . S
N963 N962 1.365 . S
N963 H983 0.862 . S
C964 C959 1.501 . S
C964 H965 0.961 . S
C964 H966 0.961 . S
C964 H967 0.960 . S
H965 C964 0.961 . S
H966 C964 0.961 . S
H967 C964 0.960 . S
C968 N969 1.342 . S
C968 C972 1.401 . S
C968 C973 1.499 . S
N969 Co952 1.989 . S
N969 C968 1.342 . S
N969 N970 1.388 . S
N970 Co953 1.993 . S
N970 N969 1.388 . S
N970 C971 1.346 . S
C971 N970 1.346 . S
C971 C972 1.396 . S
C971 C981 1.510 . S
C972 C968 1.401 . S
C972 C971 1.396 . S
C973 C968 1.499 . S
C973 H974 0.959 . S
C973 H975 0.960 . S
C973 H976 0.961 . S
H974 C973 0.959 . S
H975 C973 0.960 . S
H976 C973 0.961 . S
O977 Co952 1.967 . S
O977 C985 1.258 . S
O978 Co953 1.941 . S
O978 C985 1.266 . S
H979 C981 0.959 . S
H980 C981 0.961 . S
C981 C971 1.510 . S
C981 H979 0.959 . S
C981 H980 0.961 . S
C981 H982 0.960 . S
H982 C981 0.960 . S
H983 N963 0.862 . S
O984 Co952 1.920 . S
O984 C957 1.289 . S
C985 O977 1.258 . S
C985 O978 1.266 . S
Co986 O989 1.970 . S
Co986 N1003 1.989 . S
Co986 O1011 1.967 . S
Co986 O1018 1.920 . S
Co987 O990 1.966 . S
Co987 N996 2.022 . S
Co987 N1004 1.993 . S
Co987 O1012 1.941 . S
C988 O989 1.258 . S
C988 O990 1.263 . S
O989 Co986 1.970 . S
O989 C988 1.258 . S
O990 Co987 1.966 . S
O990 C988 1.263 . S
C991 O992 1.235 . S
C991 O1018 1.289 . S
O992 C991 1.235 . S
C993 C995 1.400 . S
C993 N996 1.351 . S
C993 C998 1.501 . S
C994 C995 1.387 . S
C994 N997 1.341 . S
C995 C993 1.400 . S
C995 C994 1.387 . S
N996 Co987 2.022 . S
N996 C993 1.351 . S
N996 N997 1.365 . S
N997 C994 1.341 . S
N997 N996 1.365 . S
N997 H1017 0.862 . S
C998 C993 1.501 . S
C998 H999 0.961 . S
C998 H1000 0.961 . S
C998 H1001 0.960 . S
H999 C998 0.961 . S
H1000 C998 0.961 . S
H1001 C998 0.960 . S
C1002 N1003 1.342 . S
C1002 C1006 1.401 . S
C1002 C1007 1.499 . S
N1003 Co986 1.989 . S
N1003 C1002 1.342 . S
N1003 N1004 1.388 . S
N1004 Co987 1.993 . S
N1004 N1003 1.388 . S
N1004 C1005 1.346 . S
C1005 N1004 1.346 . S
C1005 C1006 1.396 . S
C1005 C1015 1.510 . S
C1006 C1002 1.401 . S
C1006 C1005 1.396 . S
C1007 C1002 1.499 . S
C1007 H1008 0.959 . S
C1007 H1009 0.960 . S
C1007 H1010 0.961 . S
H1008 C1007 0.959 . S
H1009 C1007 0.960 . S
H1010 C1007 0.961 . S
O1011 Co986 1.967 . S
O1011 C1019 1.258 . S
O1012 Co987 1.941 . S
O1012 C1019 1.266 . S
H1013 C1015 0.959 . S
H1014 C1015 0.961 . S
C1015 C1005 1.510 . S
C1015 H1013 0.959 . S
C1015 H1014 0.961 . S
C1015 H1016 0.960 . S
H1016 C1015 0.960 . S
H1017 N997 0.862 . S
O1018 Co986 1.920 . S
O1018 C991 1.289 . S
C1019 O1011 1.258 . S
C1019 O1012 1.266 . S
Co1020 O1023 1.970 . S
Co1020 N1037 1.989 . S
Co1020 O1045 1.967 . S
Co1020 O1052 1.920 . S
Co1021 O1024 1.966 . S
Co1021 N1030 2.022 . S
Co1021 N1038 1.993 . S
Co1021 O1046 1.941 . S
C1022 O1023 1.258 . S
C1022 O1024 1.263 . S
O1023 Co1020 1.970 . S
O1023 C1022 1.258 . S
O1024 Co1021 1.966 . S
O1024 C1022 1.263 . S
C1025 O1026 1.235 . S
C1025 O1052 1.289 . S
O1026 C1025 1.235 . S
C1027 C1029 1.400 . S
C1027 N1030 1.351 . S
C1027 C1032 1.501 . S
C1028 C1029 1.387 . S
C1028 N1031 1.341 . S
C1029 C1027 1.400 . S
C1029 C1028 1.387 . S
N1030 Co1021 2.022 . S
N1030 C1027 1.351 . S
N1030 N1031 1.365 . S
N1031 C1028 1.341 . S
N1031 N1030 1.365 . S
N1031 H1051 0.862 . S
C1032 C1027 1.501 . S
C1032 H1033 0.961 . S
C1032 H1034 0.961 . S
C1032 H1035 0.960 . S
H1033 C1032 0.961 . S
H1034 C1032 0.961 . S
H1035 C1032 0.960 . S
C1036 N1037 1.342 . S
C1036 C1040 1.401 . S
C1036 C1041 1.499 . S
N1037 Co1020 1.989 . S
N1037 C1036 1.342 . S
N1037 N1038 1.388 . S
N1038 Co1021 1.993 . S
N1038 N1037 1.388 . S
N1038 C1039 1.346 . S
C1039 N1038 1.346 . S
C1039 C1040 1.396 . S
C1039 C1049 1.510 . S
C1040 C1036 1.401 . S
C1040 C1039 1.396 . S
C1041 C1036 1.499 . S
C1041 H1042 0.959 . S
C1041 H1043 0.960 . S
C1041 H1044 0.961 . S
H1042 C1041 0.959 . S
H1043 C1041 0.960 . S
H1044 C1041 0.961 . S
O1045 Co1020 1.967 . S
O1045 C1053 1.258 . S
O1046 Co1021 1.941 . S
O1046 C1053 1.266 . S
H1047 C1049 0.959 . S
H1048 C1049 0.961 . S
C1049 C1039 1.510 . S
C1049 H1047 0.959 . S
C1049 H1048 0.961 . S
C1049 H1050 0.960 . S
H1050 C1049 0.960 . S
H1051 N1031 0.862 . S
O1052 Co1020 1.920 . S
O1052 C1025 1.289 . S
C1053 O1045 1.258 . S
C1053 O1046 1.266 . S
Co1054 O1057 1.970 . S
Co1054 N1071 1.989 . S
Co1054 O1079 1.967 . S
Co1054 O1086 1.920 . S
Co1055 O1058 1.966 . S
Co1055 N1064 2.022 . S
Co1055 N1072 1.993 . S
Co1055 O1080 1.941 . S
C1056 O1057 1.258 . S
C1056 O1058 1.263 . S
O1057 Co1054 1.970 . S
O1057 C1056 1.258 . S
O1058 Co1055 1.966 . S
O1058 C1056 1.263 . S
C1059 O1060 1.235 . S
C1059 O1086 1.289 . S
O1060 C1059 1.235 . S
C1061 C1063 1.400 . S
C1061 N1064 1.351 . S
C1061 C1066 1.501 . S
C1062 C1063 1.387 . S
C1062 N1065 1.341 . S
C1063 C1061 1.400 . S
C1063 C1062 1.387 . S
N1064 Co1055 2.022 . S
N1064 C1061 1.351 . S
N1064 N1065 1.365 . S
N1065 C1062 1.341 . S
N1065 N1064 1.365 . S
N1065 H1085 0.862 . S
C1066 C1061 1.501 . S
C1066 H1067 0.961 . S
C1066 H1068 0.961 . S
C1066 H1069 0.960 . S
H1067 C1066 0.961 . S
H1068 C1066 0.961 . S
H1069 C1066 0.960 . S
C1070 N1071 1.342 . S
C1070 C1074 1.401 . S
C1070 C1075 1.499 . S
N1071 Co1054 1.989 . S
N1071 C1070 1.342 . S
N1071 N1072 1.388 . S
N1072 Co1055 1.993 . S
N1072 N1071 1.388 . S
N1072 C1073 1.346 . S
C1073 N1072 1.346 . S
C1073 C1074 1.396 . S
C1073 C1083 1.510 . S
C1074 C1070 1.401 . S
C1074 C1073 1.396 . S
C1075 C1070 1.499 . S
C1075 H1076 0.959 . S
C1075 H1077 0.960 . S
C1075 H1078 0.961 . S
H1076 C1075 0.959 . S
H1077 C1075 0.960 . S
H1078 C1075 0.961 . S
O1079 Co1054 1.967 . S
O1079 C1087 1.258 . S
O1080 Co1055 1.941 . S
O1080 C1087 1.266 . S
H1081 C1083 0.959 . S
H1082 C1083 0.961 . S
C1083 C1073 1.510 . S
C1083 H1081 0.959 . S
C1083 H1082 0.961 . S
C1083 H1084 0.960 . S
H1084 C1083 0.960 . S
H1085 N1065 0.862 . S
O1086 Co1054 1.920 . S
O1086 C1059 1.289 . S
C1087 O1079 1.258 . S
C1087 O1080 1.266 . S
Co1088 O1091 1.970 . S
Co1088 N1105 1.989 . S
Co1088 O1113 1.967 . S
Co1088 O1120 1.920 . S
Co1089 O1092 1.966 . S
Co1089 N1098 2.022 . S
Co1089 N1106 1.993 . S
Co1089 O1114 1.941 . S
C1090 O1091 1.258 . S
C1090 O1092 1.263 . S
O1091 Co1088 1.970 . S
O1091 C1090 1.258 . S
O1092 Co1089 1.966 . S
O1092 C1090 1.263 . S
C1093 O1094 1.235 . S
C1093 O1120 1.289 . S
O1094 C1093 1.235 . S
C1095 C1097 1.400 . S
C1095 N1098 1.351 . S
C1095 C1100 1.501 . S
C1096 C1097 1.387 . S
C1096 N1099 1.341 . S
C1097 C1095 1.400 . S
C1097 C1096 1.387 . S
N1098 Co1089 2.022 . S
N1098 C1095 1.351 . S
N1098 N1099 1.365 . S
N1099 C1096 1.341 . S
N1099 N1098 1.365 . S
N1099 H1119 0.862 . S
C1100 C1095 1.501 . S
C1100 H1101 0.961 . S
C1100 H1102 0.961 . S
C1100 H1103 0.960 . S
H1101 C1100 0.961 . S
H1102 C1100 0.961 . S
H1103 C1100 0.960 . S
C1104 N1105 1.342 . S
C1104 C1108 1.401 . S
C1104 C1109 1.499 . S
N1105 Co1088 1.989 . S
N1105 C1104 1.342 . S
N1105 N1106 1.388 . S
N1106 Co1089 1.993 . S
N1106 N1105 1.388 . S
N1106 C1107 1.346 . S
C1107 N1106 1.346 . S
C1107 C1108 1.396 . S
C1107 C1117 1.510 . S
C1108 C1104 1.401 . S
C1108 C1107 1.396 . S
C1109 C1104 1.499 . S
C1109 H1110 0.959 . S
C1109 H1111 0.960 . S
C1109 H1112 0.961 . S
H1110 C1109 0.959 . S
H1111 C1109 0.960 . S
H1112 C1109 0.961 . S
O1113 Co1088 1.967 . S
O1113 C1121 1.258 . S
O1114 Co1089 1.941 . S
O1114 C1121 1.266 . S
H1115 C1117 0.959 . S
H1116 C1117 0.961 . S
C1117 C1107 1.510 . S
C1117 H1115 0.959 . S
C1117 H1116 0.961 . S
C1117 H1118 0.960 . S
H1118 C1117 0.960 . S
H1119 N1099 0.862 . S
O1120 Co1088 1.920 . S
O1120 C1093 1.289 . S
C1121 O1113 1.258 . S
C1121 O1114 1.266 . S
Co1122 O1125 1.970 . S
Co1122 N1139 1.989 . S
Co1122 O1147 1.967 . S
Co1122 O1154 1.920 . S
Co1123 O1126 1.966 . S
Co1123 N1132 2.022 . S
Co1123 N1140 1.993 . S
Co1123 O1148 1.941 . S
C1124 O1125 1.258 . S
C1124 O1126 1.263 . S
O1125 Co1122 1.970 . S
O1125 C1124 1.258 . S
O1126 Co1123 1.966 . S
O1126 C1124 1.263 . S
C1127 O1128 1.235 . S
C1127 O1154 1.289 . S
O1128 C1127 1.235 . S
C1129 C1131 1.374 1_655 S
C1129 N1132 1.351 . S
C1129 C1134 1.501 . S
C1130 C1131 1.384 1_655 S
C1130 N1133 1.341 . S
C1131 C1129 1.374 1_455 S
C1131 C1130 1.384 1_455 S
N1132 Co1123 2.022 . S
N1132 C1129 1.351 . S
N1132 N1133 1.365 . S
N1133 C1130 1.341 . S
N1133 N1132 1.365 . S
N1133 H1153 0.862 . S
C1134 C1129 1.501 . S
C1134 H1135 0.961 . S
C1134 H1136 0.961 . S
C1134 H1137 0.960 . S
H1135 C1134 0.961 . S
H1136 C1134 0.961 . S
H1137 C1134 0.960 . S
C1138 N1139 1.342 . S
C1138 C1142 1.401 . S
C1138 C1143 1.499 . S
N1139 Co1122 1.989 . S
N1139 C1138 1.342 . S
N1139 N1140 1.388 . S
N1140 Co1123 1.993 . S
N1140 N1139 1.388 . S
N1140 C1141 1.346 . S
C1141 N1140 1.346 . S
C1141 C1142 1.396 . S
C1141 C1151 1.510 . S
C1142 C1138 1.401 . S
C1142 C1141 1.396 . S
C1143 C1138 1.499 . S
C1143 H1144 0.959 . S
C1143 H1145 0.960 . S
C1143 H1146 0.961 . S
H1144 C1143 0.959 . S
H1145 C1143 0.960 . S
H1146 C1143 0.961 . S
O1147 Co1122 1.967 . S
O1147 C1155 1.258 . S
O1148 Co1123 1.941 . S
O1148 C1155 1.266 . S
H1149 C1151 0.959 . S
H1150 C1151 0.961 . S
C1151 C1141 1.510 . S
C1151 H1149 0.959 . S
C1151 H1150 0.961 . S
C1151 H1152 0.960 . S
H1152 C1151 0.960 . S
H1153 N1133 0.862 . S
O1154 Co1122 1.920 . S
O1154 C1127 1.289 . S
C1155 O1147 1.258 . S
C1155 O1148 1.266 . S
Co1156 O1159 1.970 . S
Co1156 N1173 1.989 . S
Co1156 O1181 1.967 . S
Co1156 O1188 1.920 . S
Co1157 O1160 1.966 . S
Co1157 N1166 2.022 . S
Co1157 N1174 1.993 . S
Co1157 O1182 1.941 . S
C1158 O1159 1.258 . S
C1158 O1160 1.263 . S
O1159 Co1156 1.970 . S
O1159 C1158 1.258 . S
O1160 Co1157 1.966 . S
O1160 C1158 1.263 . S
C1161 O1162 1.235 . S
C1161 O1188 1.289 . S
O1162 C1161 1.235 . S
C1163 C1165 1.400 . S
C1163 N1166 1.351 . S
C1163 C1168 1.501 . S
C1164 C1165 1.387 . S
C1164 N1167 1.341 . S
C1165 C1163 1.400 . S
C1165 C1164 1.387 . S
N1166 Co1157 2.022 . S
N1166 C1163 1.351 . S
N1166 N1167 1.365 . S
N1167 C1164 1.341 . S
N1167 N1166 1.365 . S
N1167 H1187 0.862 . S
C1168 C1163 1.501 . S
C1168 H1169 0.961 . S
C1168 H1170 0.961 . S
C1168 H1171 0.960 . S
H1169 C1168 0.961 . S
H1170 C1168 0.961 . S
H1171 C1168 0.960 . S
C1172 N1173 1.342 . S
C1172 C1176 1.401 . S
C1172 C1177 1.499 . S
N1173 Co1156 1.989 . S
N1173 C1172 1.342 . S
N1173 N1174 1.388 . S
N1174 Co1157 1.993 . S
N1174 N1173 1.388 . S
N1174 C1175 1.346 . S
C1175 N1174 1.346 . S
C1175 C1176 1.396 . S
C1175 C1185 1.510 . S
C1176 C1172 1.401 . S
C1176 C1175 1.396 . S
C1177 C1172 1.499 . S
C1177 H1178 0.959 . S
C1177 H1179 0.960 . S
C1177 H1180 0.961 . S
H1178 C1177 0.959 . S
H1179 C1177 0.960 . S
H1180 C1177 0.961 . S
O1181 Co1156 1.967 . S
O1181 C1189 1.258 . S
O1182 Co1157 1.941 . S
O1182 C1189 1.266 . S
H1183 C1185 0.959 . S
H1184 C1185 0.961 . S
C1185 C1175 1.510 . S
C1185 H1183 0.959 . S
C1185 H1184 0.961 . S
C1185 H1186 0.960 . S
H1186 C1185 0.960 . S
H1187 N1167 0.862 . S
O1188 Co1156 1.920 . S
O1188 C1161 1.289 . S
C1189 O1181 1.258 . S
C1189 O1182 1.266 . S
Co1190 O1193 1.970 . S
Co1190 N1207 1.989 . S
Co1190 O1215 1.967 . S
Co1190 O1222 1.920 . S
Co1191 O1194 1.966 . S
Co1191 N1200 2.022 . S
Co1191 N1208 1.993 . S
Co1191 O1216 1.941 . S
C1192 O1193 1.258 . S
C1192 O1194 1.263 . S
O1193 Co1190 1.970 . S
O1193 C1192 1.258 . S
O1194 Co1191 1.966 . S
O1194 C1192 1.263 . S
C1195 O1196 1.235 . S
C1195 O1222 1.289 . S
O1196 C1195 1.235 . S
C1197 C1199 1.400 . S
C1197 N1200 1.351 . S
C1197 C1202 1.501 . S
C1198 C1199 1.387 . S
C1198 N1201 1.341 . S
C1199 C1197 1.400 . S
C1199 C1198 1.387 . S
N1200 Co1191 2.022 . S
N1200 C1197 1.351 . S
N1200 N1201 1.365 . S
N1201 C1198 1.341 . S
N1201 N1200 1.365 . S
N1201 H1221 0.862 . S
C1202 C1197 1.501 . S
C1202 H1203 0.961 . S
C1202 H1204 0.961 . S
C1202 H1205 0.960 . S
H1203 C1202 0.961 . S
H1204 C1202 0.961 . S
H1205 C1202 0.960 . S
C1206 N1207 1.342 . S
C1206 C1210 1.401 . S
C1206 C1211 1.499 . S
N1207 Co1190 1.989 . S
N1207 C1206 1.342 . S
N1207 N1208 1.388 . S
N1208 Co1191 1.993 . S
N1208 N1207 1.388 . S
N1208 C1209 1.346 . S
C1209 N1208 1.346 . S
C1209 C1210 1.396 . S
C1209 C1219 1.510 . S
C1210 C1206 1.401 . S
C1210 C1209 1.396 . S
C1211 C1206 1.499 . S
C1211 H1212 0.959 . S
C1211 H1213 0.960 . S
C1211 H1214 0.961 . S
H1212 C1211 0.959 . S
H1213 C1211 0.960 . S
H1214 C1211 0.961 . S
O1215 Co1190 1.967 . S
O1215 C1223 1.258 . S
O1216 Co1191 1.941 . S
O1216 C1223 1.266 . S
H1217 C1219 0.959 . S
H1218 C1219 0.961 . S
C1219 C1209 1.510 . S
C1219 H1217 0.959 . S
C1219 H1218 0.961 . S
C1219 H1220 0.960 . S
H1220 C1219 0.960 . S
H1221 N1201 0.862 . S
O1222 Co1190 1.920 . S
O1222 C1195 1.289 . S
C1223 O1215 1.258 . S
C1223 O1216 1.266 . S
Co1224 O1227 1.970 . S
Co1224 N1241 1.989 . S
Co1224 O1249 1.967 . S
Co1224 O1256 1.920 . S
Co1225 O1228 1.966 . S
Co1225 N1234 2.022 . S
Co1225 N1242 1.993 . S
Co1225 O1250 1.941 . S
C1226 O1227 1.258 . S
C1226 O1228 1.263 . S
O1227 Co1224 1.970 . S
O1227 C1226 1.258 . S
O1228 Co1225 1.966 . S
O1228 C1226 1.263 . S
C1229 O1230 1.235 . S
C1229 O1256 1.289 . S
O1230 C1229 1.235 . S
C1231 C1233 1.400 . S
C1231 N1234 1.351 . S
C1231 C1236 1.501 . S
C1232 C1233 1.387 . S
C1232 N1235 1.341 . S
C1233 C1231 1.400 . S
C1233 C1232 1.387 . S
N1234 Co1225 2.022 . S
N1234 C1231 1.351 . S
N1234 N1235 1.365 . S
N1235 C1232 1.341 . S
N1235 N1234 1.365 . S
N1235 H1255 0.862 . S
C1236 C1231 1.501 . S
C1236 H1237 0.961 . S
C1236 H1238 0.961 . S
C1236 H1239 0.960 . S
H1237 C1236 0.961 . S
H1238 C1236 0.961 . S
H1239 C1236 0.960 . S
C1240 N1241 1.342 . S
C1240 C1244 1.401 . S
C1240 C1245 1.499 . S
N1241 Co1224 1.989 . S
N1241 C1240 1.342 . S
N1241 N1242 1.388 . S
N1242 Co1225 1.993 . S
N1242 N1241 1.388 . S
N1242 C1243 1.346 . S
C1243 N1242 1.346 . S
C1243 C1244 1.396 . S
C1243 C1253 1.510 . S
C1244 C1240 1.401 . S
C1244 C1243 1.396 . S
C1245 C1240 1.499 . S
C1245 H1246 0.959 . S
C1245 H1247 0.960 . S
C1245 H1248 0.961 . S
H1246 C1245 0.959 . S
H1247 C1245 0.960 . S
H1248 C1245 0.961 . S
O1249 Co1224 1.967 . S
O1249 C1257 1.258 . S
O1250 Co1225 1.941 . S
O1250 C1257 1.266 . S
H1251 C1253 0.959 . S
H1252 C1253 0.961 . S
C1253 C1243 1.510 . S
C1253 H1251 0.959 . S
C1253 H1252 0.961 . S
C1253 H1254 0.960 . S
H1254 C1253 0.960 . S
H1255 N1235 0.862 . S
O1256 Co1224 1.920 . S
O1256 C1229 1.289 . S
C1257 O1249 1.258 . S
C1257 O1250 1.266 . S
Co1258 O1261 1.970 . S
Co1258 N1275 1.989 . S
Co1258 O1283 1.967 . S
Co1258 O1290 1.920 . S
Co1259 O1262 1.966 . S
Co1259 N1268 2.022 . S
Co1259 N1276 1.993 . S
Co1259 O1284 1.941 . S
C1260 O1261 1.258 . S
C1260 O1262 1.263 . S
O1261 Co1258 1.970 . S
O1261 C1260 1.258 . S
O1262 Co1259 1.966 . S
O1262 C1260 1.263 . S
C1263 O1264 1.235 . S
C1263 O1290 1.289 . S
O1264 C1263 1.235 . S
C1265 C1267 1.400 . S
C1265 N1268 1.351 . S
C1265 C1270 1.501 . S
C1266 C1267 1.387 . S
C1266 N1269 1.341 . S
C1267 C1265 1.400 . S
C1267 C1266 1.387 . S
N1268 Co1259 2.022 . S
N1268 C1265 1.351 . S
N1268 N1269 1.365 . S
N1269 C1266 1.341 . S
N1269 N1268 1.365 . S
N1269 H1289 0.862 . S
C1270 C1265 1.501 . S
C1270 H1271 0.961 . S
C1270 H1272 0.961 . S
C1270 H1273 0.960 . S
H1271 C1270 0.961 . S
H1272 C1270 0.961 . S
H1273 C1270 0.960 . S
C1274 N1275 1.342 . S
C1274 C1278 1.401 . S
C1274 C1279 1.499 . S
N1275 Co1258 1.989 . S
N1275 C1274 1.342 . S
N1275 N1276 1.388 . S
N1276 Co1259 1.993 . S
N1276 N1275 1.388 . S
N1276 C1277 1.346 . S
C1277 N1276 1.346 . S
C1277 C1278 1.396 . S
C1277 C1287 1.510 . S
C1278 C1274 1.401 . S
C1278 C1277 1.396 . S
C1279 C1274 1.499 . S
C1279 H1280 0.959 . S
C1279 H1281 0.960 . S
C1279 H1282 0.961 . S
H1280 C1279 0.959 . S
H1281 C1279 0.960 . S
H1282 C1279 0.961 . S
O1283 Co1258 1.967 . S
O1283 C1291 1.258 . S
O1284 Co1259 1.941 . S
O1284 C1291 1.266 . S
H1285 C1287 0.959 . S
H1286 C1287 0.961 . S
C1287 C1277 1.510 . S
C1287 H1285 0.959 . S
C1287 H1286 0.961 . S
C1287 H1288 0.960 . S
H1288 C1287 0.960 . S
H1289 N1269 0.862 . S
O1290 Co1258 1.920 . S
O1290 C1263 1.289 . S
C1291 O1283 1.258 . S
C1291 O1284 1.266 . S
Co1292 O1295 1.970 . S
Co1292 N1309 1.989 . S
Co1292 O1317 1.967 . S
Co1292 O1324 1.920 . S
Co1293 O1296 1.966 . S
Co1293 N1302 2.022 . S
Co1293 N1310 1.993 . S
Co1293 O1318 1.941 . S
C1294 O1295 1.258 . S
C1294 O1296 1.263 . S
O1295 Co1292 1.970 . S
O1295 C1294 1.258 . S
O1296 Co1293 1.966 . S
O1296 C1294 1.263 . S
C1297 O1298 1.235 . S
C1297 O1324 1.289 . S
O1298 C1297 1.235 . S
C1299 C1301 1.400 . S
C1299 N1302 1.351 . S
C1299 C1304 1.501 . S
C1300 C1301 1.387 . S
C1300 N1303 1.341 . S
C1301 C1299 1.400 . S
C1301 C1300 1.387 . S
N1302 Co1293 2.022 . S
N1302 C1299 1.351 . S
N1302 N1303 1.365 . S
N1303 C1300 1.341 . S
N1303 N1302 1.365 . S
N1303 H1323 0.862 . S
C1304 C1299 1.501 . S
C1304 H1305 0.961 . S
C1304 H1306 0.961 . S
C1304 H1307 0.960 . S
H1305 C1304 0.961 . S
H1306 C1304 0.961 . S
H1307 C1304 0.960 . S
C1308 N1309 1.342 . S
C1308 C1312 1.401 . S
C1308 C1313 1.499 . S
N1309 Co1292 1.989 . S
N1309 C1308 1.342 . S
N1309 N1310 1.388 . S
N1310 Co1293 1.993 . S
N1310 N1309 1.388 . S
N1310 C1311 1.346 . S
C1311 N1310 1.346 . S
C1311 C1312 1.396 . S
C1311 C1321 1.510 . S
C1312 C1308 1.401 . S
C1312 C1311 1.396 . S
C1313 C1308 1.499 . S
C1313 H1314 0.959 . S
C1313 H1315 0.960 . S
C1313 H1316 0.961 . S
H1314 C1313 0.959 . S
H1315 C1313 0.960 . S
H1316 C1313 0.961 . S
O1317 Co1292 1.967 . S
O1317 C1325 1.258 . S
O1318 Co1293 1.941 . S
O1318 C1325 1.266 . S
H1319 C1321 0.959 . S
H1320 C1321 0.961 . S
C1321 C1311 1.510 . S
C1321 H1319 0.959 . S
C1321 H1320 0.961 . S
C1321 H1322 0.960 . S
H1322 C1321 0.960 . S
H1323 N1303 0.862 . S
O1324 Co1292 1.920 . S
O1324 C1297 1.289 . S
C1325 O1317 1.258 . S
C1325 O1318 1.266 . S
Co1326 O1329 1.970 . S
Co1326 N1343 1.989 . S
Co1326 O1351 1.967 . S
Co1326 O1358 1.920 . S
Co1327 O1330 1.966 . S
Co1327 N1336 2.022 . S
Co1327 N1344 1.993 . S
Co1327 O1352 1.941 . S
C1328 O1329 1.258 . S
C1328 O1330 1.263 . S
O1329 Co1326 1.970 . S
O1329 C1328 1.258 . S
O1330 Co1327 1.966 . S
O1330 C1328 1.263 . S
C1331 O1332 1.235 . S
C1331 O1358 1.289 . S
O1332 C1331 1.235 . S
C1333 C1335 1.400 . S
C1333 N1336 1.351 . S
C1333 C1338 1.501 . S
C1334 C1335 1.387 . S
C1334 N1337 1.341 . S
C1335 C1333 1.400 . S
C1335 C1334 1.387 . S
N1336 Co1327 2.022 . S
N1336 C1333 1.351 . S
N1336 N1337 1.365 . S
N1337 C1334 1.341 . S
N1337 N1336 1.365 . S
N1337 H1357 0.862 . S
C1338 C1333 1.501 . S
C1338 H1339 0.961 . S
C1338 H1340 0.961 . S
C1338 H1341 0.960 . S
H1339 C1338 0.961 . S
H1340 C1338 0.961 . S
H1341 C1338 0.960 . S
C1342 N1343 1.342 . S
C1342 C1346 1.401 . S
C1342 C1347 1.499 . S
N1343 Co1326 1.989 . S
N1343 C1342 1.342 . S
N1343 N1344 1.388 . S
N1344 Co1327 1.993 . S
N1344 N1343 1.388 . S
N1344 C1345 1.346 . S
C1345 N1344 1.346 . S
C1345 C1346 1.396 . S
C1345 C1355 1.510 . S
C1346 C1342 1.401 . S
C1346 C1345 1.396 . S
C1347 C1342 1.499 . S
C1347 H1348 0.959 . S
C1347 H1349 0.960 . S
C1347 H1350 0.961 . S
H1348 C1347 0.959 . S
H1349 C1347 0.960 . S
H1350 C1347 0.961 . S
O1351 Co1326 1.967 . S
O1351 C1359 1.258 . S
O1352 Co1327 1.941 . S
O1352 C1359 1.266 . S
H1353 C1355 0.959 . S
H1354 C1355 0.961 . S
C1355 C1345 1.510 . S
C1355 H1353 0.959 . S
C1355 H1354 0.961 . S
C1355 H1356 0.960 . S
H1356 C1355 0.960 . S
H1357 N1337 0.862 . S
O1358 Co1326 1.920 . S
O1358 C1331 1.289 . S
C1359 O1351 1.258 . S
C1359 O1352 1.266 . S
Co1360 O1363 1.970 . S
Co1360 N1377 1.989 . S
Co1360 O1385 1.967 . S
Co1360 O1392 1.920 . S
Co1361 O1364 1.966 . S
Co1361 N1370 2.022 . S
Co1361 N1378 1.993 . S
Co1361 O1386 1.941 . S
C1362 O1363 1.258 . S
C1362 O1364 1.263 . S
O1363 Co1360 1.970 . S
O1363 C1362 1.258 . S
O1364 Co1361 1.966 . S
O1364 C1362 1.263 . S
C1365 O1366 1.235 . S
C1365 O1392 1.289 . S
O1366 C1365 1.235 . S
C1367 C1369 1.400 . S
C1367 N1370 1.351 . S
C1367 C1372 1.501 . S
C1368 C1369 1.387 . S
C1368 N1371 1.341 . S
C1369 C1367 1.400 . S
C1369 C1368 1.387 . S
N1370 Co1361 2.022 . S
N1370 C1367 1.351 . S
N1370 N1371 1.365 . S
N1371 C1368 1.341 . S
N1371 N1370 1.365 . S
N1371 H1391 0.862 . S
C1372 C1367 1.501 . S
C1372 H1373 0.961 . S
C1372 H1374 0.961 . S
C1372 H1375 0.960 . S
H1373 C1372 0.961 . S
H1374 C1372 0.961 . S
H1375 C1372 0.960 . S
C1376 N1377 1.342 . S
C1376 C1380 1.401 . S
C1376 C1381 1.499 . S
N1377 Co1360 1.989 . S
N1377 C1376 1.342 . S
N1377 N1378 1.388 . S
N1378 Co1361 1.993 . S
N1378 N1377 1.388 . S
N1378 C1379 1.346 . S
C1379 N1378 1.346 . S
C1379 C1380 1.396 . S
C1379 C1389 1.510 . S
C1380 C1376 1.401 . S
C1380 C1379 1.396 . S
C1381 C1376 1.499 . S
C1381 H1382 0.959 . S
C1381 H1383 0.960 . S
C1381 H1384 0.961 . S
H1382 C1381 0.959 . S
H1383 C1381 0.960 . S
H1384 C1381 0.961 . S
O1385 Co1360 1.967 . S
O1385 C1393 1.258 . S
O1386 Co1361 1.941 . S
O1386 C1393 1.266 . S
H1387 C1389 0.959 . S
H1388 C1389 0.961 . S
C1389 C1379 1.510 . S
C1389 H1387 0.959 . S
C1389 H1388 0.961 . S
C1389 H1390 0.960 . S
H1390 C1389 0.960 . S
H1391 N1371 0.862 . S
O1392 Co1360 1.920 . S
O1392 C1365 1.289 . S
C1393 O1385 1.258 . S
C1393 O1386 1.266 . S
Co1394 O1397 1.970 . S
Co1394 N1411 1.989 . S
Co1394 O1419 1.967 . S
Co1394 O1426 1.920 . S
Co1395 O1398 1.966 . S
Co1395 N1404 2.022 . S
Co1395 N1412 1.993 . S
Co1395 O1420 1.941 . S
C1396 O1397 1.258 . S
C1396 O1398 1.263 . S
O1397 Co1394 1.970 . S
O1397 C1396 1.258 . S
O1398 Co1395 1.966 . S
O1398 C1396 1.263 . S
C1399 O1400 1.235 . S
C1399 O1426 1.289 . S
O1400 C1399 1.235 . S
C1401 C1403 1.400 . S
C1401 N1404 1.351 . S
C1401 C1406 1.501 . S
C1402 C1403 1.387 . S
C1402 N1405 1.341 . S
C1403 C1401 1.400 . S
C1403 C1402 1.387 . S
N1404 Co1395 2.022 . S
N1404 C1401 1.351 . S
N1404 N1405 1.365 . S
N1405 C1402 1.341 . S
N1405 N1404 1.365 . S
N1405 H1425 0.862 . S
C1406 C1401 1.501 . S
C1406 H1407 0.961 . S
C1406 H1408 0.961 . S
C1406 H1409 0.960 . S
H1407 C1406 0.961 . S
H1408 C1406 0.961 . S
H1409 C1406 0.960 . S
C1410 N1411 1.342 . S
C1410 C1414 1.401 . S
C1410 C1415 1.499 . S
N1411 Co1394 1.989 . S
N1411 C1410 1.342 . S
N1411 N1412 1.388 . S
N1412 Co1395 1.993 . S
N1412 N1411 1.388 . S
N1412 C1413 1.346 . S
C1413 N1412 1.346 . S
C1413 C1414 1.396 . S
C1413 C1423 1.510 . S
C1414 C1410 1.401 . S
C1414 C1413 1.396 . S
C1415 C1410 1.499 . S
C1415 H1416 0.959 . S
C1415 H1417 0.960 . S
C1415 H1418 0.961 . S
H1416 C1415 0.959 . S
H1417 C1415 0.960 . S
H1418 C1415 0.961 . S
O1419 Co1394 1.967 . S
O1419 C1427 1.258 . S
O1420 Co1395 1.941 . S
O1420 C1427 1.266 . S
H1421 C1423 0.959 . S
H1422 C1423 0.961 . S
C1423 C1413 1.510 . S
C1423 H1421 0.959 . S
C1423 H1422 0.961 . S
C1423 H1424 0.960 . S
H1424 C1423 0.960 . S
H1425 N1405 0.862 . S
O1426 Co1394 1.920 . S
O1426 C1399 1.289 . S
C1427 O1419 1.258 . S
C1427 O1420 1.266 . S
Co1428 O1431 1.970 . S
Co1428 N1445 1.989 . S
Co1428 O1453 1.967 . S
Co1428 O1460 1.920 . S
Co1429 O1432 1.966 . S
Co1429 N1438 2.022 . S
Co1429 N1446 1.993 . S
Co1429 O1454 1.941 . S
C1430 O1431 1.258 . S
C1430 O1432 1.263 . S
O1431 Co1428 1.970 . S
O1431 C1430 1.258 . S
O1432 Co1429 1.966 . S
O1432 C1430 1.263 . S
C1433 O1434 1.235 . S
C1433 O1460 1.289 . S
O1434 C1433 1.235 . S
C1435 C1437 1.400 . S
C1435 N1438 1.351 . S
C1435 C1440 1.501 . S
C1436 C1437 1.387 . S
C1436 N1439 1.341 . S
C1437 C1435 1.400 . S
C1437 C1436 1.387 . S
N1438 Co1429 2.022 . S
N1438 C1435 1.351 . S
N1438 N1439 1.365 . S
N1439 C1436 1.341 . S
N1439 N1438 1.365 . S
N1439 H1459 0.862 . S
C1440 C1435 1.501 . S
C1440 H1441 0.961 . S
C1440 H1442 0.961 . S
C1440 H1443 0.960 . S
H1441 C1440 0.961 . S
H1442 C1440 0.961 . S
H1443 C1440 0.960 . S
C1444 N1445 1.342 . S
C1444 C1448 1.401 . S
C1444 C1449 1.499 . S
N1445 Co1428 1.989 . S
N1445 C1444 1.342 . S
N1445 N1446 1.388 . S
N1446 Co1429 1.993 . S
N1446 N1445 1.388 . S
N1446 C1447 1.346 . S
C1447 N1446 1.346 . S
C1447 C1448 1.396 . S
C1447 C1457 1.510 . S
C1448 C1444 1.401 . S
C1448 C1447 1.396 . S
C1449 C1444 1.499 . S
C1449 H1450 0.959 . S
C1449 H1451 0.960 . S
C1449 H1452 0.961 . S
H1450 C1449 0.959 . S
H1451 C1449 0.960 . S
H1452 C1449 0.961 . S
O1453 Co1428 1.967 . S
O1453 C1461 1.258 . S
O1454 Co1429 1.941 . S
O1454 C1461 1.266 . S
H1455 C1457 0.959 . S
H1456 C1457 0.961 . S
C1457 C1447 1.510 . S
C1457 H1455 0.959 . S
C1457 H1456 0.961 . S
C1457 H1458 0.960 . S
H1458 C1457 0.960 . S
H1459 N1439 0.862 . S
O1460 Co1428 1.920 . S
O1460 C1433 1.289 . S
C1461 O1453 1.258 . S
C1461 O1454 1.266 . S
Co1462 O1465 1.970 . S
Co1462 N1479 1.989 . S
Co1462 O1487 1.967 . S
Co1462 O1494 1.920 . S
Co1463 O1466 1.966 . S
Co1463 N1472 2.022 . S
Co1463 N1480 1.993 . S
Co1463 O1488 1.941 . S
C1464 O1465 1.258 . S
C1464 O1466 1.263 . S
O1465 Co1462 1.970 . S
O1465 C1464 1.258 . S
O1466 Co1463 1.966 . S
O1466 C1464 1.263 . S
C1467 O1468 1.235 . S
C1467 O1494 1.289 . S
O1468 C1467 1.235 . S
C1469 C1471 1.400 . S
C1469 N1472 1.351 . S
C1469 C1474 1.501 . S
C1470 C1471 1.387 . S
C1470 N1473 1.341 . S
C1471 C1469 1.400 . S
C1471 C1470 1.387 . S
N1472 Co1463 2.022 . S
N1472 C1469 1.351 . S
N1472 N1473 1.365 . S
N1473 C1470 1.341 . S
N1473 N1472 1.365 . S
N1473 H1493 0.862 . S
C1474 C1469 1.501 . S
C1474 H1475 0.961 . S
C1474 H1476 0.961 . S
C1474 H1477 0.960 . S
H1475 C1474 0.961 . S
H1476 C1474 0.961 . S
H1477 C1474 0.960 . S
C1478 N1479 1.342 . S
C1478 C1482 1.401 . S
C1478 C1483 1.499 . S
N1479 Co1462 1.989 . S
N1479 C1478 1.342 . S
N1479 N1480 1.388 . S
N1480 Co1463 1.993 . S
N1480 N1479 1.388 . S
N1480 C1481 1.346 . S
C1481 N1480 1.346 . S
C1481 C1482 1.396 . S
C1481 C1491 1.510 . S
C1482 C1478 1.401 . S
C1482 C1481 1.396 . S
C1483 C1478 1.499 . S
C1483 H1484 0.959 . S
C1483 H1485 0.960 . S
C1483 H1486 0.961 . S
H1484 C1483 0.959 . S
H1485 C1483 0.960 . S
H1486 C1483 0.961 . S
O1487 Co1462 1.967 . S
O1487 C1495 1.258 . S
O1488 Co1463 1.941 . S
O1488 C1495 1.266 . S
H1489 C1491 0.959 . S
H1490 C1491 0.961 . S
C1491 C1481 1.510 . S
C1491 H1489 0.959 . S
C1491 H1490 0.961 . S
C1491 H1492 0.960 . S
H1492 C1491 0.960 . S
H1493 N1473 0.862 . S
O1494 Co1462 1.920 . S
O1494 C1467 1.289 . S
C1495 O1487 1.258 . S
C1495 O1488 1.266 . S
Co1496 O1499 1.970 . S
Co1496 N1513 1.989 . S
Co1496 O1521 1.967 . S
Co1496 O1528 1.920 . S
Co1497 O1500 1.966 . S
Co1497 N1506 2.022 . S
Co1497 N1514 1.993 . S
Co1497 O1522 1.941 . S
C1498 O1499 1.258 . S
C1498 O1500 1.263 . S
O1499 Co1496 1.970 . S
O1499 C1498 1.258 . S
O1500 Co1497 1.966 . S
O1500 C1498 1.263 . S
C1501 O1502 1.235 . S
C1501 O1528 1.289 . S
O1502 C1501 1.235 . S
C1503 C1505 1.400 . S
C1503 N1506 1.351 . S
C1503 C1508 1.501 . S
C1504 C1505 1.387 . S
C1504 N1507 1.341 . S
C1505 C1503 1.400 . S
C1505 C1504 1.387 . S
N1506 Co1497 2.022 . S
N1506 C1503 1.351 . S
N1506 N1507 1.365 . S
N1507 C1504 1.341 . S
N1507 N1506 1.365 . S
N1507 H1527 0.862 . S
C1508 C1503 1.501 . S
C1508 H1509 0.961 . S
C1508 H1510 0.961 . S
C1508 H1511 0.960 . S
H1509 C1508 0.961 . S
H1510 C1508 0.961 . S
H1511 C1508 0.960 . S
C1512 N1513 1.342 . S
C1512 C1516 1.401 . S
C1512 C1517 1.499 . S
N1513 Co1496 1.989 . S
N1513 C1512 1.342 . S
N1513 N1514 1.388 . S
N1514 Co1497 1.993 . S
N1514 N1513 1.388 . S
N1514 C1515 1.346 . S
C1515 N1514 1.346 . S
C1515 C1516 1.396 . S
C1515 C1525 1.510 . S
C1516 C1512 1.401 . S
C1516 C1515 1.396 . S
C1517 C1512 1.499 . S
C1517 H1518 0.959 . S
C1517 H1519 0.960 . S
C1517 H1520 0.961 . S
H1518 C1517 0.959 . S
H1519 C1517 0.960 . S
H1520 C1517 0.961 . S
O1521 Co1496 1.967 . S
O1521 C1529 1.258 . S
O1522 Co1497 1.941 . S
O1522 C1529 1.266 . S
H1523 C1525 0.959 . S
H1524 C1525 0.961 . S
C1525 C1515 1.510 . S
C1525 H1523 0.959 . S
C1525 H1524 0.961 . S
C1525 H1526 0.960 . S
H1526 C1525 0.960 . S
H1527 N1507 0.862 . S
O1528 Co1496 1.920 . S
O1528 C1501 1.289 . S
C1529 O1521 1.258 . S
C1529 O1522 1.266 . S
Co1530 O1533 1.970 . S
Co1530 N1547 1.989 . S
Co1530 O1555 1.967 . S
Co1530 O1562 1.920 . S
Co1531 O1534 1.966 . S
Co1531 N1540 2.022 . S
Co1531 N1548 1.993 . S
Co1531 O1556 1.941 . S
C1532 O1533 1.258 . S
C1532 O1534 1.263 . S
O1533 Co1530 1.970 . S
O1533 C1532 1.258 . S
O1534 Co1531 1.966 . S
O1534 C1532 1.263 . S
C1535 O1536 1.235 . S
C1535 O1562 1.289 . S
O1536 C1535 1.235 . S
C1537 C1539 1.400 . S
C1537 N1540 1.351 . S
C1537 C1542 1.501 . S
C1538 C1539 1.387 . S
C1538 N1541 1.341 . S
C1539 C1537 1.400 . S
C1539 C1538 1.387 . S
N1540 Co1531 2.022 . S
N1540 C1537 1.351 . S
N1540 N1541 1.365 . S
N1541 C1538 1.341 . S
N1541 N1540 1.365 . S
N1541 H1561 0.862 . S
C1542 C1537 1.501 . S
C1542 H1543 0.961 . S
C1542 H1544 0.961 . S
C1542 H1545 0.960 . S
H1543 C1542 0.961 . S
H1544 C1542 0.961 . S
H1545 C1542 0.960 . S
C1546 N1547 1.342 . S
C1546 C1550 1.401 . S
C1546 C1551 1.499 . S
N1547 Co1530 1.989 . S
N1547 C1546 1.342 . S
N1547 N1548 1.388 . S
N1548 Co1531 1.993 . S
N1548 N1547 1.388 . S
N1548 C1549 1.346 . S
C1549 N1548 1.346 . S
C1549 C1550 1.396 . S
C1549 C1559 1.510 . S
C1550 C1546 1.401 . S
C1550 C1549 1.396 . S
C1551 C1546 1.499 . S
C1551 H1552 0.959 . S
C1551 H1553 0.960 . S
C1551 H1554 0.961 . S
H1552 C1551 0.959 . S
H1553 C1551 0.960 . S
H1554 C1551 0.961 . S
O1555 Co1530 1.967 . S
O1555 C1563 1.258 . S
O1556 Co1531 1.941 . S
O1556 C1563 1.266 . S
H1557 C1559 0.959 . S
H1558 C1559 0.961 . S
C1559 C1549 1.510 . S
C1559 H1557 0.959 . S
C1559 H1558 0.961 . S
C1559 H1560 0.960 . S
H1560 C1559 0.960 . S
H1561 N1541 0.862 . S
O1562 Co1530 1.920 . S
O1562 C1535 1.289 . S
C1563 O1555 1.258 . S
C1563 O1556 1.266 . S
Co1564 O1567 1.970 . S
Co1564 N1581 1.989 . S
Co1564 O1589 1.967 . S
Co1564 O1596 1.920 . S
Co1565 O1568 1.966 . S
Co1565 N1574 2.022 . S
Co1565 N1582 1.993 . S
Co1565 O1590 1.941 . S
C1566 O1567 1.258 . S
C1566 O1568 1.263 . S
O1567 Co1564 1.970 . S
O1567 C1566 1.258 . S
O1568 Co1565 1.966 . S
O1568 C1566 1.263 . S
C1569 O1570 1.235 . S
C1569 O1596 1.289 . S
O1570 C1569 1.235 . S
C1571 C1573 1.400 . S
C1571 N1574 1.351 . S
C1571 C1576 1.501 . S
C1572 C1573 1.387 . S
C1572 N1575 1.341 . S
C1573 C1571 1.400 . S
C1573 C1572 1.387 . S
N1574 Co1565 2.022 . S
N1574 C1571 1.351 . S
N1574 N1575 1.365 . S
N1575 C1572 1.341 . S
N1575 N1574 1.365 . S
N1575 H1595 0.862 . S
C1576 C1571 1.501 . S
C1576 H1577 0.961 . S
C1576 H1578 0.961 . S
C1576 H1579 0.960 . S
H1577 C1576 0.961 . S
H1578 C1576 0.961 . S
H1579 C1576 0.960 . S
C1580 N1581 1.342 . S
C1580 C1584 1.401 . S
C1580 C1585 1.499 . S
N1581 Co1564 1.989 . S
N1581 C1580 1.342 . S
N1581 N1582 1.388 . S
N1582 Co1565 1.993 . S
N1582 N1581 1.388 . S
N1582 C1583 1.346 . S
C1583 N1582 1.346 . S
C1583 C1584 1.396 . S
C1583 C1593 1.510 . S
C1584 C1580 1.401 . S
C1584 C1583 1.396 . S
C1585 C1580 1.499 . S
C1585 H1586 0.959 . S
C1585 H1587 0.960 . S
C1585 H1588 0.961 . S
H1586 C1585 0.959 . S
H1587 C1585 0.960 . S
H1588 C1585 0.961 . S
O1589 Co1564 1.967 . S
O1589 C1597 1.258 . S
O1590 Co1565 1.941 . S
O1590 C1597 1.266 . S
H1591 C1593 0.959 . S
H1592 C1593 0.961 . S
C1593 C1583 1.510 . S
C1593 H1591 0.959 . S
C1593 H1592 0.961 . S
C1593 H1594 0.960 . S
H1594 C1593 0.960 . S
H1595 N1575 0.862 . S
O1596 Co1564 1.920 . S
O1596 C1569 1.289 . S
C1597 O1589 1.258 . S
C1597 O1590 1.266 . S
Co1598 O1601 1.970 . S
Co1598 N1615 1.989 . S
Co1598 O1623 1.967 . S
Co1598 O1630 1.920 . S
Co1599 O1602 1.966 . S
Co1599 N1608 2.022 . S
Co1599 N1616 1.993 . S
Co1599 O1624 1.941 . S
C1600 O1601 1.258 . S
C1600 O1602 1.263 . S
O1601 Co1598 1.970 . S
O1601 C1600 1.258 . S
O1602 Co1599 1.966 . S
O1602 C1600 1.263 . S
C1603 O1604 1.235 . S
C1603 O1630 1.289 . S
O1604 C1603 1.235 . S
C1605 C1607 1.400 . S
C1605 N1608 1.351 . S
C1605 C1610 1.501 . S
C1606 C1607 1.387 . S
C1606 N1609 1.341 . S
C1607 C1605 1.400 . S
C1607 C1606 1.387 . S
N1608 Co1599 2.022 . S
N1608 C1605 1.351 . S
N1608 N1609 1.365 . S
N1609 C1606 1.341 . S
N1609 N1608 1.365 . S
N1609 H1629 0.862 . S
C1610 C1605 1.501 . S
C1610 H1611 0.961 . S
C1610 H1612 0.961 . S
C1610 H1613 0.960 . S
H1611 C1610 0.961 . S
H1612 C1610 0.961 . S
H1613 C1610 0.960 . S
C1614 N1615 1.342 . S
C1614 C1618 1.401 . S
C1614 C1619 1.499 . S
N1615 Co1598 1.989 . S
N1615 C1614 1.342 . S
N1615 N1616 1.388 . S
N1616 Co1599 1.993 . S
N1616 N1615 1.388 . S
N1616 C1617 1.346 . S
C1617 N1616 1.346 . S
C1617 C1618 1.396 . S
C1617 C1627 1.510 . S
C1618 C1614 1.401 . S
C1618 C1617 1.396 . S
C1619 C1614 1.499 . S
C1619 H1620 0.959 . S
C1619 H1621 0.960 . S
C1619 H1622 0.961 . S
H1620 C1619 0.959 . S
H1621 C1619 0.960 . S
H1622 C1619 0.961 . S
O1623 Co1598 1.967 . S
O1623 C1631 1.258 . S
O1624 Co1599 1.941 . S
O1624 C1631 1.266 . S
H1625 C1627 0.959 . S
H1626 C1627 0.961 . S
C1627 C1617 1.510 . S
C1627 H1625 0.959 . S
C1627 H1626 0.961 . S
C1627 H1628 0.960 . S
H1628 C1627 0.960 . S
H1629 N1609 0.862 . S
O1630 Co1598 1.920 . S
O1630 C1603 1.289 . S
C1631 O1623 1.258 . S
C1631 O1624 1.266 . S
C1632 C1633 1.368 1_556 S
C1632 C1634 1.419 . S
C1632 H1636 0.930 1_556 S
C1633 C1632 1.368 1_554 S
C1633 C1642 1.424 1_554 S
C1634 C1632 1.419 . S
C1634 C1635 1.363 . S
C1634 H1637 0.929 . S
C1635 C1634 1.363 . S
C1635 C1641 1.428 . S
H1636 C1632 0.930 1_554 S
H1637 C1634 0.929 . S
S1638 N1639 1.613 . S
S1638 N1640 1.610 . S
N1639 S1638 1.613 . S
N1639 C1642 1.350 . S
N1640 S1638 1.610 . S
N1640 C1641 1.351 . S
C1641 C1635 1.428 . S
C1641 N1640 1.351 . S
C1641 C1642 1.434 . S
C1642 C1633 1.424 1_556 S
C1642 N1639 1.350 . S
C1642 C1641 1.434 . S
C1643 C1644 1.369 . S
C1643 C1645 1.419 . S
C1643 H1647 0.930 . S
C1644 C1643 1.369 . S
C1644 C1653 1.429 . S
C1645 C1643 1.419 . S
C1645 C1646 1.363 . S
C1645 H1648 0.929 . S
C1646 C1645 1.363 . S
C1646 C1652 1.428 . S
H1647 C1643 0.930 . S
H1648 C1645 0.929 . S
S1649 N1650 1.613 . S
S1649 N1651 1.610 . S
N1650 S1649 1.613 . S
N1650 C1653 1.350 . S
N1651 S1649 1.610 . S
N1651 C1652 1.351 . S
C1652 C1646 1.428 . S
C1652 N1651 1.351 . S
C1652 C1653 1.434 . S
C1653 C1644 1.429 . S
C1653 N1650 1.350 . S
C1653 C1652 1.434 . S
C1654 C1655 1.369 . S
C1654 C1656 1.419 . S
C1654 H1658 0.930 . S
C1655 C1654 1.369 . S
C1655 C1664 1.429 . S
C1656 C1654 1.419 . S
C1656 C1657 1.363 . S
C1656 H1659 0.929 . S
C1657 C1656 1.363 . S
C1657 C1663 1.428 . S
H1658 C1654 0.930 . S
H1659 C1656 0.929 . S
S1660 N1661 1.613 . S
S1660 N1662 1.610 . S
N1661 S1660 1.613 . S
N1661 C1664 1.350 . S
N1662 S1660 1.610 . S
N1662 C1663 1.351 . S
C1663 C1657 1.428 . S
C1663 N1662 1.351 . S
C1663 C1664 1.434 . S
C1664 C1655 1.429 . S
C1664 N1661 1.350 . S
C1664 C1663 1.434 . S
C1665 C1666 1.369 . S
C1665 C1667 1.419 . S
C1665 H1669 0.930 . S
C1666 C1665 1.369 . S
C1666 C1675 1.429 . S
C1667 C1665 1.419 . S
C1667 C1668 1.363 . S
C1667 H1670 0.929 . S
C1668 C1667 1.363 . S
C1668 C1674 1.428 . S
H1669 C1665 0.930 . S
H1670 C1667 0.929 . S
S1671 N1672 1.613 . S
S1671 N1673 1.610 . S
N1672 S1671 1.613 . S
N1672 C1675 1.350 . S
N1673 S1671 1.610 . S
N1673 C1674 1.351 . S
C1674 C1668 1.428 . S
C1674 N1673 1.351 . S
C1674 C1675 1.434 . S
C1675 C1666 1.429 . S
C1675 N1672 1.350 . S
C1675 C1674 1.434 . S
C1676 C1677 1.369 . S
C1676 C1678 1.419 . S
C1676 H1680 0.930 . S
C1677 C1676 1.369 . S
C1677 C1686 1.429 . S
C1678 C1676 1.419 . S
C1678 C1679 1.363 . S
C1678 H1681 0.929 . S
C1679 C1678 1.363 . S
C1679 C1685 1.428 . S
H1680 C1676 0.930 . S
H1681 C1678 0.929 . S
S1682 N1683 1.613 . S
S1682 N1684 1.610 . S
N1683 S1682 1.613 . S
N1683 C1686 1.350 . S
N1684 S1682 1.610 . S
N1684 C1685 1.351 . S
C1685 C1679 1.428 . S
C1685 N1684 1.351 . S
C1685 C1686 1.434 . S
C1686 C1677 1.429 . S
C1686 N1683 1.350 . S
C1686 C1685 1.434 . S
C1687 C1688 1.369 . S
C1687 C1689 1.419 . S
C1687 H1691 0.930 . S
C1688 C1687 1.369 . S
C1688 C1697 1.429 . S
C1689 C1687 1.419 . S
C1689 C1690 1.363 . S
C1689 H1692 0.929 . S
C1690 C1689 1.363 . S
C1690 C1696 1.428 . S
H1691 C1687 0.930 . S
H1692 C1689 0.929 . S
S1693 N1694 1.613 . S
S1693 N1695 1.610 . S
N1694 S1693 1.613 . S
N1694 C1697 1.350 . S
N1695 S1693 1.610 . S
N1695 C1696 1.351 . S
C1696 C1690 1.428 . S
C1696 N1695 1.351 . S
C1696 C1697 1.434 . S
C1697 C1688 1.429 . S
C1697 N1694 1.350 . S
C1697 C1696 1.434 . S
C1698 C1699 1.369 . S
C1698 C1700 1.419 1_556 S
C1698 H1702 0.930 . S
C1699 C1698 1.369 . S
C1699 C1708 1.429 1_556 S
C1700 C1698 1.419 1_554 S
C1700 C1701 1.363 . S
C1700 H1703 0.929 . S
C1701 C1700 1.363 . S
C1701 C1707 1.428 . S
H1702 C1698 0.930 . S
H1703 C1700 0.929 . S
S1704 N1705 1.613 . S
S1704 N1706 1.610 . S
N1705 S1704 1.613 . S
N1705 C1708 1.350 . S
N1706 S1704 1.610 . S
N1706 C1707 1.351 . S
C1707 C1701 1.428 . S
C1707 N1706 1.351 . S
C1707 C1708 1.434 . S
C1708 C1699 1.429 1_554 S
C1708 N1705 1.350 . S
C1708 C1707 1.434 . S
C1709 C1710 1.369 . S
C1709 C1711 1.419 . S
C1709 H1713 0.930 . S
C1710 C1709 1.369 . S
C1710 C1719 1.429 . S
C1711 C1709 1.419 . S
C1711 C1712 1.363 . S
C1711 H1714 0.929 . S
C1712 C1711 1.363 . S
C1712 C1718 1.428 . S
H1713 C1709 0.930 . S
H1714 C1711 0.929 . S
S1715 N1716 1.613 . S
S1715 N1717 1.610 . S
N1716 S1715 1.613 . S
N1716 C1719 1.350 . S
N1717 S1715 1.610 . S
N1717 C1718 1.351 . S
C1718 C1712 1.428 . S
C1718 N1717 1.351 . S
C1718 C1719 1.434 . S
C1719 C1710 1.429 . S
C1719 N1716 1.350 . S
C1719 C1718 1.434 . S
C1720 C1721 1.369 . S
C1720 C1722 1.419 . S
C1720 H1724 0.930 . S
C1721 C1720 1.369 . S
C1721 C1730 1.429 . S
C1722 C1720 1.419 . S
C1722 C1723 1.363 . S
C1722 H1725 0.929 1_655 S
C1723 C1722 1.363 . S
C1723 C1729 1.428 . S
H1724 C1720 0.930 . S
H1725 C1722 0.929 1_455 S
S1726 N1727 1.613 . S
S1726 N1728 1.610 . S
N1727 S1726 1.613 . S
N1727 C1730 1.350 . S
N1728 S1726 1.610 . S
N1728 C1729 1.351 . S
C1729 C1723 1.428 . S
C1729 N1728 1.351 . S
C1729 C1730 1.434 . S
C1730 C1721 1.429 . S
C1730 N1727 1.350 . S
C1730 C1729 1.434 . S
C1731 C1732 1.369 . S
C1731 C1733 1.419 . S
C1731 H1735 0.930 . S
C1732 C1731 1.369 . S
C1732 C1741 1.429 . S
C1733 C1731 1.419 . S
C1733 C1734 1.363 . S
C1733 H1736 0.929 . S
C1734 C1733 1.363 . S
C1734 C1740 1.428 . S
H1735 C1731 0.930 . S
H1736 C1733 0.929 . S
S1737 N1738 1.613 . S
S1737 N1739 1.610 . S
N1738 S1737 1.613 . S
N1738 C1741 1.350 . S
N1739 S1737 1.610 . S
N1739 C1740 1.351 . S
C1740 C1734 1.428 . S
C1740 N1739 1.351 . S
C1740 C1741 1.434 . S
C1741 C1732 1.429 . S
C1741 N1738 1.350 . S
C1741 C1740 1.434 . S
C1742 C1743 1.369 . S
C1742 C1744 1.419 . S
C1742 H1746 0.930 . S
C1743 C1742 1.369 . S
C1743 C1752 1.429 . S
C1744 C1742 1.419 . S
C1744 C1745 1.363 . S
C1744 H1747 0.929 . S
C1745 C1744 1.363 . S
C1745 C1751 1.428 . S
H1746 C1742 0.930 . S
H1747 C1744 0.929 . S
S1748 N1749 1.613 . S
S1748 N1750 1.610 . S
N1749 S1748 1.613 . S
N1749 C1752 1.350 . S
N1750 S1748 1.610 . S
N1750 C1751 1.351 . S
C1751 C1745 1.428 . S
C1751 N1750 1.351 . S
C1751 C1752 1.434 . S
C1752 C1743 1.429 . S
C1752 N1749 1.350 . S
C1752 C1751 1.434 . S
C1753 C1754 1.369 . S
C1753 C1755 1.419 . S
C1753 H1757 0.930 . S
C1754 C1753 1.369 . S
C1754 C1763 1.429 . S
C1755 C1753 1.419 . S
C1755 C1756 1.363 . S
C1755 H1758 0.929 . S
C1756 C1755 1.363 . S
C1756 C1762 1.428 . S
H1757 C1753 0.930 . S
H1758 C1755 0.929 . S
S1759 N1760 1.613 . S
S1759 N1761 1.610 . S
N1760 S1759 1.613 . S
N1760 C1763 1.350 . S
N1761 S1759 1.610 . S
N1761 C1762 1.351 . S
C1762 C1756 1.428 . S
C1762 N1761 1.351 . S
C1762 C1763 1.434 . S
C1763 C1754 1.429 . S
C1763 N1760 1.350 . S
C1763 C1762 1.434 . S
C1764 C1765 1.369 . S
C1764 C1766 1.419 . S
C1764 H1768 0.930 . S
C1765 C1764 1.369 . S
C1765 C1774 1.429 . S
C1766 C1764 1.419 . S
C1766 C1767 1.363 . S
C1766 H1769 0.929 . S
C1767 C1766 1.363 . S
C1767 C1773 1.428 . S
H1768 C1764 0.930 . S
H1769 C1766 0.929 . S
S1770 N1771 1.613 . S
S1770 N1772 1.610 . S
N1771 S1770 1.613 . S
N1771 C1774 1.350 . S
N1772 S1770 1.610 . S
N1772 C1773 1.351 . S
C1773 C1767 1.428 . S
C1773 N1772 1.351 . S
C1773 C1774 1.434 . S
C1774 C1765 1.429 . S
C1774 N1771 1.350 . S
C1774 C1773 1.434 . S
C1775 C1776 1.369 . S
C1775 C1777 1.419 . S
C1775 H1779 0.930 . S
C1776 C1775 1.369 . S
C1776 C1785 1.429 . S
C1777 C1775 1.419 . S
C1777 C1778 1.363 . S
C1777 H1780 0.929 . S
C1778 C1777 1.363 . S
C1778 C1784 1.428 . S
H1779 C1775 0.930 . S
H1780 C1777 0.929 . S
S1781 N1782 1.613 . S
S1781 N1783 1.610 . S
N1782 S1781 1.613 . S
N1782 C1785 1.350 . S
N1783 S1781 1.610 . S
N1783 C1784 1.351 . S
C1784 C1778 1.428 . S
C1784 N1783 1.351 . S
C1784 C1785 1.434 . S
C1785 C1776 1.429 . S
C1785 N1782 1.350 . S
C1785 C1784 1.434 . S
C1786 C1787 1.369 . S
C1786 C1788 1.419 . S
C1786 H1790 0.930 . S
C1787 C1786 1.369 . S
C1787 C1796 1.429 . S
C1788 C1786 1.419 . S
C1788 C1789 1.363 . S
C1788 H1791 0.929 . S
C1789 C1788 1.363 . S
C1789 C1795 1.428 . S
H1790 C1786 0.930 . S
H1791 C1788 0.929 . S
S1792 N1793 1.613 . S
S1792 N1794 1.610 . S
N1793 S1792 1.613 . S
N1793 C1796 1.350 . S
N1794 S1792 1.610 . S
N1794 C1795 1.351 . S
C1795 C1789 1.428 . S
C1795 N1794 1.351 . S
C1795 C1796 1.434 . S
C1796 C1787 1.429 . S
C1796 N1793 1.350 . S
C1796 C1795 1.434 . S
C1797 C1798 1.369 . S
C1797 C1799 1.419 . S
C1797 H1801 0.930 . S
C1798 C1797 1.369 . S
C1798 C1807 1.429 . S
C1799 C1797 1.419 . S
C1799 C1800 1.363 . S
C1799 H1802 0.929 . S
C1800 C1799 1.363 . S
C1800 C1806 1.428 . S
H1801 C1797 0.930 . S
H1802 C1799 0.929 . S
S1803 N1804 1.613 . S
S1803 N1805 1.610 . S
N1804 S1803 1.613 . S
N1804 C1807 1.350 . S
N1805 S1803 1.610 . S
N1805 C1806 1.351 . S
C1806 C1800 1.428 . S
C1806 N1805 1.351 . S
C1806 C1807 1.434 . S
C1807 C1798 1.429 . S
C1807 N1804 1.350 . S
C1807 C1806 1.434 . S
C1808 C1809 1.369 . S
C1808 C1810 1.419 . S
C1808 H1812 0.930 . S
C1809 C1808 1.369 . S
C1809 C1818 1.429 . S
C1810 C1808 1.419 . S
C1810 C1811 1.363 . S
C1810 H1813 0.929 . S
C1811 C1810 1.363 . S
C1811 C1817 1.428 . S
H1812 C1808 0.930 . S
H1813 C1810 0.929 . S
S1814 N1815 1.613 . S
S1814 N1816 1.611 1_565 S
N1815 S1814 1.613 . S
N1815 C1818 1.350 . S
N1816 S1814 1.611 1_545 S
N1816 C1817 1.351 1_545 S
C1817 C1811 1.428 . S
C1817 N1816 1.351 1_565 S
C1817 C1818 1.434 . S
C1818 C1809 1.429 . S
C1818 N1815 1.350 . S
C1818 C1817 1.434 . S
C1819 C1820 1.369 . S
C1819 C1821 1.419 . S
C1819 H1823 0.930 . S
C1820 C1819 1.369 . S
C1820 C1829 1.429 . S
C1821 C1819 1.419 . S
C1821 C1822 1.363 . S
C1821 H1824 0.929 . S
C1822 C1821 1.363 . S
C1822 C1828 1.428 . S
H1823 C1819 0.930 . S
H1824 C1821 0.929 . S
S1825 N1826 1.613 . S
S1825 N1827 1.610 . S
N1826 S1825 1.613 . S
N1826 C1829 1.350 . S
N1827 S1825 1.610 . S
N1827 C1828 1.351 . S
C1828 C1822 1.428 . S
C1828 N1827 1.351 . S
C1828 C1829 1.434 . S
C1829 C1820 1.429 . S
C1829 N1826 1.350 . S
C1829 C1828 1.434 . S
C1830 C1831 1.369 . S
C1830 C1832 1.419 . S
C1830 H1834 0.930 . S
C1831 C1830 1.369 . S
C1831 C1840 1.429 . S
C1832 C1830 1.419 . S
C1832 C1833 1.363 . S
C1832 H1835 0.929 . S
C1833 C1832 1.363 . S
C1833 C1839 1.428 . S
H1834 C1830 0.930 . S
H1835 C1832 0.929 . S
S1836 N1837 1.613 . S
S1836 N1838 1.610 . S
N1837 S1836 1.613 . S
N1837 C1840 1.350 . S
N1838 S1836 1.610 . S
N1838 C1839 1.351 . S
C1839 C1833 1.428 . S
C1839 N1838 1.351 . S
C1839 C1840 1.434 . S
C1840 C1831 1.429 . S
C1840 N1837 1.350 . S
C1840 C1839 1.434 . S
C1841 C1842 1.369 . S
C1841 C1843 1.419 . S
C1841 H1845 0.930 . S
C1842 C1841 1.369 . S
C1842 C1851 1.429 . S
C1843 C1841 1.419 . S
C1843 C1844 1.363 . S
C1843 H1846 0.929 . S
C1844 C1843 1.363 . S
C1844 C1850 1.428 . S
H1845 C1841 0.930 . S
H1846 C1843 0.929 . S
S1847 N1848 1.613 . S
S1847 N1849 1.610 . S
N1848 S1847 1.613 . S
N1848 C1851 1.350 . S
N1849 S1847 1.610 . S
N1849 C1850 1.351 . S
C1850 C1844 1.428 . S
C1850 N1849 1.351 . S
C1850 C1851 1.434 . S
C1851 C1842 1.429 . S
C1851 N1848 1.350 . S
C1851 C1850 1.434 . S
C1852 C1853 1.369 . S
C1852 C1854 1.419 . S
C1852 H1856 0.930 . S
C1853 C1852 1.369 . S
C1853 C1862 1.429 . S
C1854 C1852 1.419 . S
C1854 C1855 1.363 . S
C1854 H1857 0.929 . S
C1855 C1854 1.363 . S
C1855 C1861 1.428 . S
H1856 C1852 0.930 . S
H1857 C1854 0.929 . S
S1858 N1859 1.613 . S
S1858 N1860 1.610 . S
N1859 S1858 1.613 . S
N1859 C1862 1.350 . S
N1860 S1858 1.610 . S
N1860 C1861 1.351 . S
C1861 C1855 1.428 . S
C1861 N1860 1.351 . S
C1861 C1862 1.434 . S
C1862 C1853 1.429 . S
C1862 N1859 1.350 . S
C1862 C1861 1.434 . S
C1863 C1864 1.369 1_545 S
C1863 C1865 1.419 . S
C1863 H1867 0.930 . S
C1864 C1863 1.369 1_565 S
C1864 C1873 1.430 . S
C1865 C1863 1.419 . S
C1865 C1866 1.363 . S
C1865 H1868 0.929 . S
C1866 C1865 1.363 . S
C1866 C1872 1.428 . S
H1867 C1863 0.930 . S
H1868 C1865 0.929 . S
S1869 N1870 1.613 . S
S1869 N1871 1.610 1_565 S
N1870 S1869 1.613 . S
N1870 C1873 1.374 . S
N1871 S1869 1.610 1_545 S
N1871 C1872 1.351 . S
C1872 C1866 1.428 . S
C1872 N1871 1.351 . S
C1872 C1873 1.409 1_545 S
C1873 C1864 1.430 . S
C1873 N1870 1.374 . S
C1873 C1872 1.409 1_565 S
C1874 C1875 1.369 . S
C1874 C1876 1.419 . S
C1874 H1878 0.930 . S
C1875 C1874 1.369 . S
C1875 C1884 1.429 . S
C1876 C1874 1.419 . S
C1876 C1877 1.363 . S
C1876 H1879 0.929 . S
C1877 C1876 1.363 . S
C1877 C1883 1.428 . S
H1878 C1874 0.930 . S
H1879 C1876 0.929 . S
S1880 N1881 1.613 . S
S1880 N1882 1.610 . S
N1881 S1880 1.613 . S
N1881 C1884 1.350 . S
N1882 S1880 1.610 . S
N1882 C1883 1.351 . S
C1883 C1877 1.428 . S
C1883 N1882 1.351 . S
C1883 C1884 1.434 . S
C1884 C1875 1.429 . S
C1884 N1881 1.350 . S
C1884 C1883 1.434 . S
C1885 C1886 1.369 . S
C1885 C1887 1.419 . S
C1885 H1889 0.930 . S
C1886 C1885 1.369 . S
C1886 C1895 1.429 . S
C1887 C1885 1.419 . S
C1887 C1888 1.363 . S
C1887 H1890 0.929 . S
C1888 C1887 1.363 . S
C1888 C1894 1.428 . S
H1889 C1885 0.930 . S
H1890 C1887 0.929 . S
S1891 N1892 1.613 . S
S1891 N1893 1.610 . S
N1892 S1891 1.613 . S
N1892 C1895 1.350 . S
N1893 S1891 1.610 . S
N1893 C1894 1.351 . S
C1894 C1888 1.428 . S
C1894 N1893 1.351 . S
C1894 C1895 1.434 . S
C1895 C1886 1.429 . S
C1895 N1892 1.350 . S
C1895 C1894 1.434 . S
C1896 C1897 1.369 . S
C1896 C1898 1.419 . S
C1896 H1900 0.930 . S
C1897 C1896 1.369 . S
C1897 C1906 1.429 . S
C1898 C1896 1.419 . S
C1898 C1899 1.363 . S
C1898 H1901 0.929 . S
C1899 C1898 1.363 . S
C1899 C1905 1.428 . S
H1900 C1896 0.930 . S
H1901 C1898 0.929 . S
S1902 N1903 1.583 1_556 S
S1902 N1904 1.624 . S
N1903 S1902 1.583 1_554 S
N1903 C1906 1.350 . S
N1904 S1902 1.624 . S
N1904 C1905 1.351 1_556 S
C1905 C1899 1.428 . S
C1905 N1904 1.351 1_554 S
C1905 C1906 1.434 . S
C1906 C1897 1.429 . S
C1906 N1903 1.350 . S
C1906 C1905 1.434 . S
C1907 C1908 1.369 . S
C1907 C1909 1.419 . S
C1907 H1911 0.930 . S
C1908 C1907 1.369 . S
C1908 C1917 1.429 . S
C1909 C1907 1.419 . S
C1909 C1910 1.363 . S
C1909 H1912 0.929 . S
C1910 C1909 1.363 . S
C1910 C1916 1.428 . S
H1911 C1907 0.930 . S
H1912 C1909 0.929 . S
S1913 N1914 1.613 . S
S1913 N1915 1.610 . S
N1914 S1913 1.613 . S
N1914 C1917 1.350 . S
N1915 S1913 1.610 . S
N1915 C1916 1.351 . S
C1916 C1910 1.428 . S
C1916 N1915 1.351 . S
C1916 C1917 1.434 . S
C1917 C1908 1.429 . S
C1917 N1914 1.350 . S
C1917 C1916 1.434 . S
C1918 C1919 1.369 . S
C1918 C1920 1.419 . S
C1918 H1922 0.930 . S
C1919 C1918 1.369 . S
C1919 C1928 1.429 . S
C1920 C1918 1.419 . S
C1920 C1921 1.363 . S
C1920 H1923 0.929 . S
C1921 C1920 1.363 . S
C1921 C1927 1.428 . S
H1922 C1918 0.930 . S
H1923 C1920 0.929 . S
S1924 N1925 1.613 . S
S1924 N1926 1.610 . S
N1925 S1924 1.613 . S
N1925 C1928 1.350 . S
N1926 S1924 1.610 . S
N1926 C1927 1.351 . S
C1927 C1921 1.428 . S
C1927 N1926 1.351 . S
C1927 C1928 1.434 . S
C1928 C1919 1.429 . S
C1928 N1925 1.350 . S
C1928 C1927 1.434 . S
C1929 C1930 1.369 . S
C1929 C1931 1.419 . S
C1929 H1933 0.930 . S
C1930 C1929 1.369 . S
C1930 C1939 1.429 . S
C1931 C1929 1.419 . S
C1931 C1932 1.363 . S
C1931 H1934 0.929 . S
C1932 C1931 1.363 . S
C1932 C1938 1.428 . S
H1933 C1929 0.930 . S
H1934 C1931 0.929 . S
S1935 N1936 1.613 . S
S1935 N1937 1.610 . S
N1936 S1935 1.613 . S
N1936 C1939 1.350 . S
N1937 S1935 1.610 . S
N1937 C1938 1.351 . S
C1938 C1932 1.428 . S
C1938 N1937 1.351 . S
C1938 C1939 1.434 . S
C1939 C1930 1.429 . S
C1939 N1936 1.350 . S
C1939 C1938 1.434 . S
C1940 C1941 1.369 . S
C1940 C1942 1.419 . S
C1940 H1944 0.930 . S
C1941 C1940 1.369 . S
C1941 C1950 1.429 . S
C1942 C1940 1.419 . S
C1942 C1943 1.363 . S
C1942 H1945 0.929 . S
C1943 C1942 1.363 . S
C1943 C1949 1.428 . S
H1944 C1940 0.930 . S
H1945 C1942 0.929 . S
S1946 N1947 1.613 . S
S1946 N1948 1.610 . S
N1947 S1946 1.613 . S
N1947 C1950 1.350 . S
N1948 S1946 1.610 . S
N1948 C1949 1.351 . S
C1949 C1943 1.428 . S
C1949 N1948 1.351 . S
C1949 C1950 1.434 . S
C1950 C1941 1.429 . S
C1950 N1947 1.350 . S
C1950 C1949 1.434 . S
C1951 C1952 1.369 . S
C1951 C1953 1.419 . S
C1951 H1955 0.930 . S
C1952 C1951 1.369 . S
C1952 C1961 1.429 . S
C1953 C1951 1.419 . S
C1953 C1954 1.363 . S
C1953 H1956 0.929 . S
C1954 C1953 1.363 . S
C1954 C1960 1.428 . S
H1955 C1951 0.930 . S
H1956 C1953 0.929 . S
S1957 N1958 1.613 . S
S1957 N1959 1.610 . S
N1958 S1957 1.613 . S
N1958 C1961 1.350 . S
N1959 S1957 1.610 . S
N1959 C1960 1.351 . S
C1960 C1954 1.428 . S
C1960 N1959 1.351 . S
C1960 C1961 1.434 . S
C1961 C1952 1.429 . S
C1961 N1958 1.350 . S
C1961 C1960 1.434 . S
C1962 C1963 1.369 . S
C1962 C1964 1.419 . S
C1962 H1966 0.930 . S
C1963 C1962 1.369 . S
C1963 C1972 1.429 . S
C1964 C1962 1.419 . S
C1964 C1965 1.363 . S
C1964 H1967 0.948 . S
C1965 C1964 1.363 . S
C1965 C1971 1.428 . S
H1966 C1962 0.930 . S
H1967 C1964 0.948 . S
S1968 N1969 1.613 . S
S1968 N1970 1.610 . S
N1969 S1968 1.613 . S
N1969 C1972 1.350 . S
N1970 S1968 1.610 . S
N1970 C1971 1.351 . S
C1971 C1965 1.428 . S
C1971 N1970 1.351 . S
C1971 C1972 1.434 . S
C1972 C1963 1.429 . S
C1972 N1969 1.350 . S
C1972 C1971 1.434 . S
C1973 C1974 1.369 . S
C1973 C1975 1.419 . S
C1973 H1977 0.930 . S
C1974 C1973 1.369 . S
C1974 C1983 1.429 . S
C1975 C1973 1.419 . S
C1975 C1976 1.363 . S
C1975 H1978 0.929 . S
C1976 C1975 1.363 . S
C1976 C1982 1.428 . S
H1977 C1973 0.930 . S
H1978 C1975 0.929 . S
S1979 N1980 1.613 . S
S1979 N1981 1.610 . S
N1980 S1979 1.613 . S
N1980 C1983 1.350 . S
N1981 S1979 1.610 . S
N1981 C1982 1.351 . S
C1982 C1976 1.428 . S
C1982 N1981 1.351 . S
C1982 C1983 1.434 . S
C1983 C1974 1.429 . S
C1983 N1980 1.350 . S
C1983 C1982 1.434 . S
C1984 C1985 1.369 . S
C1984 C1986 1.419 . S
C1984 H1988 0.930 . S
C1985 C1984 1.369 . S
C1985 C1994 1.429 . S
C1986 C1984 1.419 . S
C1986 C1987 1.363 . S
C1986 H1989 0.929 1_455 S
C1987 C1986 1.363 . S
C1987 C1993 1.428 . S
H1988 C1984 0.930 . S
H1989 C1986 0.929 1_655 S
S1990 N1991 1.613 . S
S1990 N1992 1.610 . S
N1991 S1990 1.613 . S
N1991 C1994 1.350 . S
N1992 S1990 1.610 . S
N1992 C1993 1.351 . S
C1993 C1987 1.428 . S
C1993 N1992 1.351 . S
C1993 C1994 1.434 . S
C1994 C1985 1.429 . S
C1994 N1991 1.350 . S
C1994 C1993 1.434 . S
C1995 C1996 1.369 . S
C1995 C1997 1.419 . S
C1995 H1999 0.930 . S
C1996 C1995 1.369 . S
C1996 C2005 1.429 . S
C1997 C1995 1.419 . S
C1997 C1998 1.363 . S
C1997 H2000 0.929 . S
C1998 C1997 1.363 . S
C1998 C2004 1.428 . S
H1999 C1995 0.930 . S
H2000 C1997 0.929 . S
S2001 N2002 1.613 . S
S2001 N2003 1.610 . S
N2002 S2001 1.613 . S
N2002 C2005 1.350 . S
N2003 S2001 1.610 . S
N2003 C2004 1.351 . S
C2004 C1998 1.428 . S
C2004 N2003 1.351 . S
C2004 C2005 1.434 . S
C2005 C1996 1.429 . S
C2005 N2002 1.350 . S
C2005 C2004 1.434 . S
C2006 C2007 1.369 . S
C2006 C2008 1.419 . S
C2006 H2010 0.930 . S
C2007 C2006 1.369 . S
C2007 C2016 1.429 . S
C2008 C2006 1.419 . S
C2008 C2009 1.363 . S
C2008 H2011 0.929 . S
C2009 C2008 1.363 . S
C2009 C2015 1.428 . S
H2010 C2006 0.930 . S
H2011 C2008 0.929 . S
S2012 N2013 1.613 . S
S2012 N2014 1.610 . S
N2013 S2012 1.613 . S
N2013 C2016 1.350 . S
N2014 S2012 1.610 . S
N2014 C2015 1.351 . S
C2015 C2009 1.428 . S
C2015 N2014 1.351 . S
C2015 C2016 1.434 . S
C2016 C2007 1.429 . S
C2016 N2013 1.350 . S
C2016 C2015 1.434 . S
C2017 C2018 1.369 . S
C2017 C2019 1.419 . S
C2017 H2021 0.930 . S
C2018 C2017 1.369 . S
C2018 C2027 1.429 . S
C2019 C2017 1.419 . S
C2019 C2020 1.363 . S
C2019 H2022 0.929 . S
C2020 C2019 1.363 . S
C2020 C2026 1.428 . S
H2021 C2017 0.930 . S
H2022 C2019 0.929 . S
S2023 N2024 1.613 . S
S2023 N2025 1.610 . S
N2024 S2023 1.613 . S
N2024 C2027 1.350 . S
N2025 S2023 1.610 . S
N2025 C2026 1.351 . S
C2026 C2020 1.428 . S
C2026 N2025 1.351 . S
C2026 C2027 1.434 . S
C2027 C2018 1.429 . S
C2027 N2024 1.350 . S
C2027 C2026 1.434 . S
C2028 C2029 1.369 . S
C2028 C2030 1.419 . S
C2028 H2032 0.930 . S
C2029 C2028 1.369 . S
C2029 C2038 1.429 . S
C2030 C2028 1.419 . S
C2030 C2031 1.363 . S
C2030 H2033 0.929 . S
C2031 C2030 1.363 . S
C2031 C2037 1.428 . S
H2032 C2028 0.930 . S
H2033 C2030 0.929 . S
S2034 N2035 1.613 . S
S2034 N2036 1.610 . S
N2035 S2034 1.613 . S
N2035 C2038 1.350 . S
N2036 S2034 1.610 . S
N2036 C2037 1.351 . S
C2037 C2031 1.428 . S
C2037 N2036 1.351 . S
C2037 C2038 1.434 . S
C2038 C2029 1.429 . S
C2038 N2035 1.350 . S
C2038 C2037 1.434 . S
C2039 C2040 1.369 . S
C2039 C2041 1.419 . S
C2039 H2043 0.930 . S
C2040 C2039 1.369 . S
C2040 C2049 1.429 . S
C2041 C2039 1.419 . S
C2041 C2042 1.363 . S
C2041 H2044 0.929 . S
C2042 C2041 1.363 . S
C2042 C2048 1.428 . S
H2043 C2039 0.930 . S
H2044 C2041 0.929 . S
S2045 N2046 1.613 . S
S2045 N2047 1.610 . S
N2046 S2045 1.613 . S
N2046 C2049 1.350 . S
N2047 S2045 1.610 . S
N2047 C2048 1.351 . S
C2048 C2042 1.428 . S
C2048 N2047 1.351 . S
C2048 C2049 1.434 . S
C2049 C2040 1.429 . S
C2049 N2046 1.350 . S
C2049 C2048 1.434 . S
C2050 C2051 1.369 . S
C2050 C2052 1.419 . S
C2050 H2054 0.930 . S
C2051 C2050 1.369 . S
C2051 C2060 1.429 . S
C2052 C2050 1.419 . S
C2052 C2053 1.363 . S
C2052 H2055 0.929 . S
C2053 C2052 1.363 . S
C2053 C2059 1.428 . S
H2054 C2050 0.930 . S
H2055 C2052 0.929 . S
S2056 N2057 1.613 . S
S2056 N2058 1.610 . S
N2057 S2056 1.613 . S
N2057 C2060 1.350 . S
N2058 S2056 1.610 . S
N2058 C2059 1.351 . S
C2059 C2053 1.428 . S
C2059 N2058 1.351 . S
C2059 C2060 1.434 . S
C2060 C2051 1.429 . S
C2060 N2057 1.350 . S
C2060 C2059 1.434 . S
C2061 C2062 1.369 . S
C2061 C2063 1.419 . S
C2061 H2065 0.930 . S
C2062 C2061 1.369 . S
C2062 C2071 1.429 . S
C2063 C2061 1.419 . S
C2063 C2064 1.363 . S
C2063 H2066 0.929 . S
C2064 C2063 1.363 . S
C2064 C2070 1.428 . S
H2065 C2061 0.930 . S
H2066 C2063 0.929 . S
S2067 N2068 1.613 . S
S2067 N2069 1.610 . S
N2068 S2067 1.613 . S
N2068 C2071 1.350 . S
N2069 S2067 1.610 . S
N2069 C2070 1.351 . S
C2070 C2064 1.428 . S
C2070 N2069 1.351 . S
C2070 C2071 1.434 . S
C2071 C2062 1.429 . S
C2071 N2068 1.350 . S
C2071 C2070 1.434 . S
C2072 C2073 1.369 . S
C2072 C2074 1.419 . S
C2072 H2076 0.930 . S
C2073 C2072 1.369 . S
C2073 C2082 1.429 . S
C2074 C2072 1.419 . S
C2074 C2075 1.363 1_545 S
C2074 H2077 0.929 1_545 S
C2075 C2074 1.363 1_565 S
C2075 C2081 1.428 1_565 S
H2076 C2072 0.930 . S
H2077 C2074 0.929 1_565 S
S2078 N2079 1.613 . S
S2078 N2080 1.610 . S
N2079 S2078 1.613 . S
N2079 C2082 1.350 . S
N2080 S2078 1.610 . S
N2080 C2081 1.351 . S
C2081 C2075 1.428 1_545 S
C2081 N2080 1.351 . S
C2081 C2082 1.434 . S
C2082 C2073 1.429 . S
C2082 N2079 1.350 . S
C2082 C2081 1.434 . S
C2083 C2084 1.369 . S
C2083 C2085 1.419 . S
C2083 H2087 0.930 . S
C2084 C2083 1.369 . S
C2084 C2093 1.429 . S
C2085 C2083 1.419 . S
C2085 C2086 1.363 . S
C2085 H2088 0.929 . S
C2086 C2085 1.363 . S
C2086 C2092 1.428 . S
H2087 C2083 0.930 . S
H2088 C2085 0.929 . S
S2089 N2090 1.613 . S
S2089 N2091 1.610 . S
N2090 S2089 1.613 . S
N2090 C2093 1.350 . S
N2091 S2089 1.610 . S
N2091 C2092 1.351 . S
C2092 C2086 1.428 . S
C2092 N2091 1.351 . S
C2092 C2093 1.434 . S
C2093 C2084 1.429 . S
C2093 N2090 1.350 . S
C2093 C2092 1.434 . S
C2094 C2095 1.369 . S
C2094 C2096 1.419 . S
C2094 H2098 0.930 . S
C2095 C2094 1.369 . S
C2095 C2104 1.429 . S
C2096 C2094 1.419 . S
C2096 C2097 1.363 . S
C2096 H2099 0.929 . S
C2097 C2096 1.363 . S
C2097 C2103 1.428 . S
H2098 C2094 0.930 . S
H2099 C2096 0.929 . S
S2100 N2101 1.613 . S
S2100 N2102 1.610 . S
N2101 S2100 1.613 . S
N2101 C2104 1.350 . S
N2102 S2100 1.610 . S
N2102 C2103 1.351 . S
C2103 C2097 1.428 . S
C2103 N2102 1.351 . S
C2103 C2104 1.434 . S
C2104 C2095 1.429 . S
C2104 N2101 1.350 . S
C2104 C2103 1.434 . S
C2105 C2106 1.369 . S
C2105 C2107 1.419 . S
C2105 H2109 0.930 . S
C2106 C2105 1.369 . S
C2106 C2115 1.429 . S
C2107 C2105 1.419 . S
C2107 C2108 1.363 . S
C2107 H2110 0.929 . S
C2108 C2107 1.363 . S
C2108 C2114 1.428 . S
H2109 C2105 0.930 . S
H2110 C2107 0.929 . S
S2111 N2112 1.613 . S
S2111 N2113 1.610 . S
N2112 S2111 1.613 . S
N2112 C2115 1.350 . S
N2113 S2111 1.610 . S
N2113 C2114 1.351 . S
C2114 C2108 1.428 . S
C2114 N2113 1.351 . S
C2114 C2115 1.434 . S
C2115 C2106 1.429 . S
C2115 N2112 1.350 . S
C2115 C2114 1.434 . S
C2116 C2117 1.369 . S
C2116 C2118 1.419 . S
C2116 H2120 0.930 . S
C2117 C2116 1.369 . S
C2117 C2126 1.429 . S
C2118 C2116 1.419 . S
C2118 C2119 1.363 . S
C2118 H2121 0.929 . S
C2119 C2118 1.363 . S
C2119 C2125 1.428 . S
H2120 C2116 0.930 . S
H2121 C2118 0.929 . S
S2122 N2123 1.613 . S
S2122 N2124 1.610 . S
N2123 S2122 1.613 . S
N2123 C2126 1.350 . S
N2124 S2122 1.610 . S
N2124 C2125 1.351 . S
C2125 C2119 1.428 . S
C2125 N2124 1.351 . S
C2125 C2126 1.434 . S
C2126 C2117 1.429 . S
C2126 N2123 1.350 . S
C2126 C2125 1.434 . S
C2127 C2128 1.369 . S
C2127 C2129 1.419 . S
C2127 H2131 0.930 . S
C2128 C2127 1.369 . S
C2128 C2137 1.429 . S
C2129 C2127 1.419 . S
C2129 C2130 1.363 . S
C2129 H2132 0.929 . S
C2130 C2129 1.363 . S
C2130 C2136 1.428 . S
H2131 C2127 0.930 . S
H2132 C2129 0.929 . S
S2133 N2134 1.613 1_545 S
S2133 N2135 1.610 . S
N2134 S2133 1.613 1_565 S
N2134 C2137 1.350 . S
N2135 S2133 1.610 . S
N2135 C2136 1.351 1_545 S
C2136 C2130 1.428 . S
C2136 N2135 1.351 1_565 S
C2136 C2137 1.434 . S
C2137 C2128 1.429 . S
C2137 N2134 1.350 . S
C2137 C2136 1.434 . S
C2138 C2139 1.369 . S
C2138 C2140 1.419 . S
C2138 H2142 0.930 . S
C2139 C2138 1.369 . S
C2139 C2148 1.429 . S
C2140 C2138 1.419 . S
C2140 C2141 1.363 . S
C2140 H2143 0.929 . S
C2141 C2140 1.363 . S
C2141 C2147 1.428 . S
H2142 C2138 0.930 . S
H2143 C2140 0.929 . S
S2144 N2145 1.613 . S
S2144 N2146 1.610 . S
N2145 S2144 1.613 . S
N2145 C2148 1.350 . S
N2146 S2144 1.610 . S
N2146 C2147 1.351 . S
C2147 C2141 1.428 . S
C2147 N2146 1.351 . S
C2147 C2148 1.434 . S
C2148 C2139 1.429 . S
C2148 N2145 1.350 . S
C2148 C2147 1.434 . S
C2149 C2150 1.369 . S
C2149 C2151 1.419 . S
C2149 H2153 0.930 . S
C2150 C2149 1.369 . S
C2150 C2159 1.429 . S
C2151 C2149 1.419 . S
C2151 C2152 1.363 . S
C2151 H2154 0.929 . S
C2152 C2151 1.363 . S
C2152 C2158 1.428 . S
H2153 C2149 0.930 . S
H2154 C2151 0.929 . S
S2155 N2156 1.613 . S
S2155 N2157 1.610 . S
N2156 S2155 1.613 . S
N2156 C2159 1.350 . S
N2157 S2155 1.610 . S
N2157 C2158 1.351 . S
C2158 C2152 1.428 . S
C2158 N2157 1.351 . S
C2158 C2159 1.434 . S
C2159 C2150 1.429 . S
C2159 N2156 1.350 . S
C2159 C2158 1.434 . S
C2160 C2161 1.369 . S
C2160 C2162 1.419 . S
C2160 H2164 0.930 . S
C2161 C2160 1.369 . S
C2161 C2170 1.429 . S
C2162 C2160 1.419 . S
C2162 C2163 1.363 . S
C2162 H2165 0.929 . S
C2163 C2162 1.363 . S
C2163 C2169 1.428 . S
H2164 C2160 0.930 . S
H2165 C2162 0.929 . S
S2166 N2167 1.613 . S
S2166 N2168 1.610 . S
N2167 S2166 1.613 . S
N2167 C2170 1.350 . S
N2168 S2166 1.610 . S
N2168 C2169 1.351 . S
C2169 C2163 1.428 . S
C2169 N2168 1.351 . S
C2169 C2170 1.434 . S
C2170 C2161 1.429 . S
C2170 N2167 1.350 . S
C2170 C2169 1.434 . S
C2171 C2172 1.369 . S
C2171 C2173 1.419 . S
C2171 H2175 0.930 . S
C2172 C2171 1.369 . S
C2172 C2181 1.429 . S
C2173 C2171 1.419 . S
C2173 C2174 1.363 . S
C2173 H2176 0.929 . S
C2174 C2173 1.363 . S
C2174 C2180 1.428 . S
H2175 C2171 0.930 . S
H2176 C2173 0.929 . S
S2177 N2178 1.613 . S
S2177 N2179 1.610 . S
N2178 S2177 1.613 . S
N2178 C2181 1.350 . S
N2179 S2177 1.610 . S
N2179 C2180 1.351 . S
C2180 C2174 1.428 . S
C2180 N2179 1.351 . S
C2180 C2181 1.434 . S
C2181 C2172 1.429 . S
C2181 N2178 1.350 . S
C2181 C2180 1.434 . S
C2182 C2183 1.369 . S
C2182 C2184 1.419 . S
C2182 H2186 0.930 . S
C2183 C2182 1.369 . S
C2183 C2192 1.429 . S
C2184 C2182 1.419 . S
C2184 C2185 1.363 . S
C2184 H2187 0.929 . S
C2185 C2184 1.363 . S
C2185 C2191 1.428 . S
H2186 C2182 0.930 . S
H2187 C2184 0.929 . S
S2188 N2189 1.613 1_556 S
S2188 N2190 1.610 . S
N2189 S2188 1.613 1_554 S
N2189 C2192 1.350 1_554 S
N2190 S2188 1.610 . S
N2190 C2191 1.351 . S
C2191 C2185 1.428 . S
C2191 N2190 1.351 . S
C2191 C2192 1.434 . S
C2192 C2183 1.429 . S
C2192 N2189 1.350 1_556 S
C2192 C2191 1.434 . S
C2193 C2194 1.369 . S
C2193 C2195 1.419 . S
C2193 H2197 0.930 . S
C2194 C2193 1.369 . S
C2194 C2203 1.429 . S
C2195 C2193 1.419 . S
C2195 C2196 1.363 . S
C2195 H2198 0.929 . S
C2196 C2195 1.363 . S
C2196 C2202 1.428 . S
H2197 C2193 0.930 . S
H2198 C2195 0.929 . S
S2199 N2200 1.613 . S
S2199 N2201 1.610 . S
N2200 S2199 1.613 . S
N2200 C2203 1.350 . S
N2201 S2199 1.610 . S
N2201 C2202 1.351 . S
C2202 C2196 1.428 . S
C2202 N2201 1.351 . S
C2202 C2203 1.434 . S
C2203 C2194 1.429 . S
C2203 N2200 1.350 . S
C2203 C2202 1.434 . S
C2204 C2205 1.355 1_554 S
C2204 C2206 1.419 . S
C2204 H2208 0.930 . S
C2205 C2204 1.355 1_556 S
C2205 C2214 1.429 . S
C2206 C2204 1.419 . S
C2206 C2207 1.363 . S
C2206 H2209 0.929 . S
C2207 C2206 1.363 . S
C2207 C2213 1.428 . S
H2208 C2204 0.930 . S
H2209 C2206 0.929 . S
S2210 N2211 1.613 . S
S2210 N2212 1.610 1_556 S
N2211 S2210 1.613 . S
N2211 C2214 1.378 . S
N2212 S2210 1.610 1_554 S
N2212 C2213 1.351 . S
C2213 C2207 1.428 . S
C2213 N2212 1.351 . S
C2213 C2214 1.406 1_554 S
C2214 C2205 1.429 . S
C2214 N2211 1.378 . S
C2214 C2213 1.406 1_556 S
C2215 C2216 1.369 . S
C2215 C2217 1.419 . S
C2215 H2219 0.930 . S
C2216 C2215 1.369 . S
C2216 C2225 1.429 . S
C2217 C2215 1.419 . S
C2217 C2218 1.363 . S
C2217 H2220 0.929 . S
C2218 C2217 1.363 . S
C2218 C2224 1.428 . S
H2219 C2215 0.930 . S
H2220 C2217 0.929 . S
S2221 N2222 1.613 . S
S2221 N2223 1.610 . S
N2222 S2221 1.613 . S
N2222 C2225 1.350 . S
N2223 S2221 1.610 . S
N2223 C2224 1.351 . S
C2224 C2218 1.428 . S
C2224 N2223 1.351 . S
C2224 C2225 1.434 . S
C2225 C2216 1.429 . S
C2225 N2222 1.350 . S
C2225 C2224 1.434 . S
C2226 C2227 1.369 . S
C2226 C2228 1.419 . S
C2226 H2230 0.930 . S
C2227 C2226 1.369 . S
C2227 C2236 1.429 . S
C2228 C2226 1.419 . S
C2228 C2229 1.363 . S
C2228 H2231 0.929 . S
C2229 C2228 1.363 . S
C2229 C2235 1.428 . S
H2230 C2226 0.930 . S
H2231 C2228 0.929 . S
S2232 N2233 1.613 . S
S2232 N2234 1.610 . S
N2233 S2232 1.613 . S
N2233 C2236 1.350 . S
N2234 S2232 1.610 . S
N2234 C2235 1.351 . S
C2235 C2229 1.428 . S
C2235 N2234 1.351 . S
C2235 C2236 1.434 . S
C2236 C2227 1.429 . S
C2236 N2233 1.350 . S
C2236 C2235 1.434 . S
C2237 C2238 1.369 . S
C2237 C2239 1.419 . S
C2237 H2241 0.930 . S
C2238 C2237 1.369 . S
C2238 C2247 1.429 . S
C2239 C2237 1.419 . S
C2239 C2240 1.363 . S
C2239 H2242 0.929 . S
C2240 C2239 1.363 . S
C2240 C2246 1.428 . S
H2241 C2237 0.930 . S
H2242 C2239 0.929 . S
S2243 N2244 1.613 . S
S2243 N2245 1.610 . S
N2244 S2243 1.613 . S
N2244 C2247 1.350 . S
N2245 S2243 1.610 . S
N2245 C2246 1.351 . S
C2246 C2240 1.428 . S
C2246 N2245 1.351 . S
C2246 C2247 1.434 . S
C2247 C2238 1.429 . S
C2247 N2244 1.350 . S
C2247 C2246 1.434 . S
C2248 C2249 1.369 . S
C2248 C2250 1.419 . S
C2248 H2252 0.930 . S
C2249 C2248 1.369 . S
C2249 C2258 1.429 . S
C2250 C2248 1.419 . S
C2250 C2251 1.363 . S
C2250 H2253 0.929 . S
C2251 C2250 1.363 . S
C2251 C2257 1.428 . S
H2252 C2248 0.930 . S
H2253 C2250 0.929 . S
S2254 N2255 1.613 . S
S2254 N2256 1.610 . S
N2255 S2254 1.613 . S
N2255 C2258 1.350 . S
N2256 S2254 1.610 . S
N2256 C2257 1.351 . S
C2257 C2251 1.428 . S
C2257 N2256 1.351 . S
C2257 C2258 1.434 . S
C2258 C2249 1.429 . S
C2258 N2255 1.350 . S
C2258 C2257 1.434 . S
C2259 C2260 1.369 . S
C2259 C2261 1.419 . S
C2259 H2263 0.930 . S
C2260 C2259 1.369 . S
C2260 C2269 1.429 . S
C2261 C2259 1.419 . S
C2261 C2262 1.363 . S
C2261 H2264 0.929 . S
C2262 C2261 1.363 . S
C2262 C2268 1.428 . S
H2263 C2259 0.930 . S
H2264 C2261 0.929 . S
S2265 N2266 1.613 . S
S2265 N2267 1.610 . S
N2266 S2265 1.613 . S
N2266 C2269 1.350 . S
N2267 S2265 1.610 . S
N2267 C2268 1.351 . S
C2268 C2262 1.428 . S
C2268 N2267 1.351 . S
C2268 C2269 1.434 . S
C2269 C2260 1.429 . S
C2269 N2266 1.350 . S
C2269 C2268 1.434 . S
C2270 C2271 1.369 1_455 S
C2270 C2272 1.419 . S
C2270 H2274 0.930 . S
C2271 C2270 1.369 1_655 S
C2271 C2280 1.429 . S
C2272 C2270 1.419 . S
C2272 C2273 1.363 . S
C2272 H2275 0.929 . S
C2273 C2272 1.363 . S
C2273 C2279 1.428 . S
H2274 C2270 0.930 . S
H2275 C2272 0.929 . S
S2276 N2277 1.613 . S
S2276 N2278 1.610 1_655 S
N2277 S2276 1.613 . S
N2277 C2280 1.350 . S
N2278 S2276 1.610 1_455 S
N2278 C2279 1.351 . S
C2279 C2273 1.428 . S
C2279 N2278 1.351 . S
C2279 C2280 1.434 1_455 S
C2280 C2271 1.429 . S
C2280 N2277 1.350 . S
C2280 C2279 1.434 1_655 S
C2281 C2282 1.369 . S
C2281 C2283 1.419 . S
C2281 H2285 0.930 . S
C2282 C2281 1.369 . S
C2282 C2291 1.429 . S
C2283 C2281 1.419 . S
C2283 C2284 1.363 . S
C2283 H2286 0.929 . S
C2284 C2283 1.363 . S
C2284 C2290 1.428 . S
H2285 C2281 0.930 . S
H2286 C2283 0.929 . S
S2287 N2288 1.613 . S
S2287 N2289 1.610 . S
N2288 S2287 1.613 . S
N2288 C2291 1.350 . S
N2289 S2287 1.610 . S
N2289 C2290 1.351 . S
C2290 C2284 1.428 . S
C2290 N2289 1.351 . S
C2290 C2291 1.434 . S
C2291 C2282 1.429 . S
C2291 N2288 1.350 . S
C2291 C2290 1.434 . S
C2292 C2293 1.369 . S
C2292 C2294 1.419 . S
C2292 H2296 0.930 . S
C2293 C2292 1.369 . S
C2293 C2302 1.429 . S
C2294 C2292 1.419 . S
C2294 C2295 1.363 . S
C2294 H2297 0.929 . S
C2295 C2294 1.363 . S
C2295 C2301 1.428 . S
H2296 C2292 0.930 . S
H2297 C2294 0.929 . S
S2298 N2299 1.613 . S
S2298 N2300 1.610 . S
N2299 S2298 1.613 . S
N2299 C2302 1.350 . S
N2300 S2298 1.610 . S
N2300 C2301 1.351 . S
C2301 C2295 1.428 . S
C2301 N2300 1.351 . S
C2301 C2302 1.434 . S
C2302 C2293 1.429 . S
C2302 N2299 1.350 . S
C2302 C2301 1.434 . S
C2303 C2304 1.369 . S
C2303 C2305 1.419 . S
C2303 H2307 0.930 . S
C2304 C2303 1.369 . S
C2304 C2313 1.429 . S
C2305 C2303 1.419 . S
C2305 C2306 1.363 . S
C2305 H2308 0.929 . S
C2306 C2305 1.363 . S
C2306 C2312 1.428 . S
H2307 C2303 0.930 . S
H2308 C2305 0.929 . S
S2309 N2310 1.613 . S
S2309 N2311 1.610 . S
N2310 S2309 1.613 . S
N2310 C2313 1.350 . S
N2311 S2309 1.610 . S
N2311 C2312 1.351 . S
C2312 C2306 1.428 . S
C2312 N2311 1.351 . S
C2312 C2313 1.434 . S
C2313 C2304 1.429 . S
C2313 N2310 1.350 . S
C2313 C2312 1.434 . S
C2314 C2315 1.369 . S
C2314 C2316 1.419 . S
C2314 H2318 0.930 . S
C2315 C2314 1.369 . S
C2315 C2324 1.429 . S
C2316 C2314 1.419 . S
C2316 C2317 1.363 1_455 S
C2316 H2319 0.929 1_455 S
C2317 C2316 1.363 1_655 S
C2317 C2323 1.428 1_655 S
H2318 C2314 0.930 . S
H2319 C2316 0.929 1_655 S
S2320 N2321 1.613 . S
S2320 N2322 1.610 . S
N2321 S2320 1.613 . S
N2321 C2324 1.350 . S
N2322 S2320 1.610 . S
N2322 C2323 1.351 . S
C2323 C2317 1.428 1_455 S
C2323 N2322 1.351 . S
C2323 C2324 1.434 . S
C2324 C2315 1.429 . S
C2324 N2321 1.350 . S
C2324 C2323 1.434 . S
C2325 C2326 1.369 . S
C2325 C2327 1.419 . S
C2325 H2329 0.930 . S
C2326 C2325 1.369 . S
C2326 C2335 1.429 . S
C2327 C2325 1.419 . S
C2327 C2328 1.363 . S
C2327 H2330 0.929 . S
C2328 C2327 1.363 . S
C2328 C2334 1.428 . S
H2329 C2325 0.930 . S
H2330 C2327 0.929 . S
S2331 N2332 1.613 . S
S2331 N2333 1.610 . S
N2332 S2331 1.613 . S
N2332 C2335 1.350 . S
N2333 S2331 1.610 . S
N2333 C2334 1.351 . S
C2334 C2328 1.428 . S
C2334 N2333 1.351 . S
C2334 C2335 1.434 . S
C2335 C2326 1.429 . S
C2335 N2332 1.350 . S
C2335 C2334 1.434 . S
C2336 C2337 1.369 . S
C2336 C2338 1.419 . S
C2336 H2340 0.930 . S
C2337 C2336 1.369 . S
C2337 C2346 1.429 . S
C2338 C2336 1.419 . S
C2338 C2339 1.363 . S
C2338 H2341 0.929 . S
C2339 C2338 1.363 . S
C2339 C2345 1.428 . S
H2340 C2336 0.930 . S
H2341 C2338 0.929 . S
S2342 N2343 1.613 . S
S2342 N2344 1.610 . S
N2343 S2342 1.613 . S
N2343 C2346 1.350 . S
N2344 S2342 1.610 . S
N2344 C2345 1.351 . S
C2345 C2339 1.428 . S
C2345 N2344 1.351 . S
C2345 C2346 1.434 . S
C2346 C2337 1.429 . S
C2346 N2343 1.350 . S
C2346 C2345 1.434 . S
C2347 C2348 1.369 . S
C2347 C2349 1.419 . S
C2347 H2351 0.930 . S
C2348 C2347 1.369 . S
C2348 C2357 1.429 . S
C2349 C2347 1.419 . S
C2349 C2350 1.363 . S
C2349 H2352 0.929 . S
C2350 C2349 1.363 . S
C2350 C2356 1.428 . S
H2351 C2347 0.930 . S
H2352 C2349 0.929 . S
S2353 N2354 1.613 . S
S2353 N2355 1.610 . S
N2354 S2353 1.613 . S
N2354 C2357 1.350 . S
N2355 S2353 1.610 . S
N2355 C2356 1.351 . S
C2356 C2350 1.428 . S
C2356 N2355 1.351 . S
C2356 C2357 1.434 . S
C2357 C2348 1.429 . S
C2357 N2354 1.350 . S
C2357 C2356 1.434 . S
C2358 C2359 1.369 . S
C2358 C2360 1.419 . S
C2358 H2362 0.930 . S
C2359 C2358 1.369 . S
C2359 C2368 1.429 . S
C2360 C2358 1.419 . S
C2360 C2361 1.363 . S
C2360 H2363 0.929 . S
C2361 C2360 1.363 . S
C2361 C2367 1.428 . S
H2362 C2358 0.930 . S
H2363 C2360 0.929 . S
S2364 N2365 1.613 . S
S2364 N2366 1.610 . S
N2365 S2364 1.613 . S
N2365 C2368 1.350 . S
N2366 S2364 1.610 . S
N2366 C2367 1.351 . S
C2367 C2361 1.428 . S
C2367 N2366 1.351 . S
C2367 C2368 1.434 . S
C2368 C2359 1.429 . S
C2368 N2365 1.350 . S
C2368 C2367 1.434 . S
C2369 C2370 1.369 . S
C2369 C2371 1.419 . S
C2369 H2373 0.930 . S
C2370 C2369 1.369 . S
C2370 C2379 1.429 . S
C2371 C2369 1.419 . S
C2371 C2372 1.363 . S
C2371 H2374 0.929 . S
C2372 C2371 1.363 . S
C2372 C2378 1.428 . S
H2373 C2369 0.930 . S
H2374 C2371 0.929 . S
S2375 N2376 1.613 . S
S2375 N2377 1.610 . S
N2376 S2375 1.613 . S
N2376 C2379 1.350 . S
N2377 S2375 1.610 . S
N2377 C2378 1.351 . S
C2378 C2372 1.428 . S
C2378 N2377 1.351 . S
C2378 C2379 1.434 . S
C2379 C2370 1.429 . S
C2379 N2376 1.350 . S
C2379 C2378 1.434 . S
C2380 C2381 1.369 . S
C2380 C2382 1.419 . S
C2380 H2384 0.930 . S
C2381 C2380 1.369 . S
C2381 C2390 1.429 . S
C2382 C2380 1.419 . S
C2382 C2383 1.363 . S
C2382 H2385 0.929 . S
C2383 C2382 1.363 . S
C2383 C2389 1.428 . S
H2384 C2380 0.930 . S
H2385 C2382 0.929 . S
S2386 N2387 1.613 . S
S2386 N2388 1.610 . S
N2387 S2386 1.613 . S
N2387 C2390 1.350 . S
N2388 S2386 1.610 . S
N2388 C2389 1.351 . S
C2389 C2383 1.428 . S
C2389 N2388 1.351 . S
C2389 C2390 1.434 . S
C2390 C2381 1.429 . S
C2390 N2387 1.350 . S
C2390 C2389 1.434 . S
C2391 C2392 1.369 . S
C2391 C2393 1.419 . S
C2391 H2395 0.930 . S
C2392 C2391 1.369 . S
C2392 C2401 1.429 . S
C2393 C2391 1.419 . S
C2393 C2394 1.363 . S
C2393 H2396 0.929 . S
C2394 C2393 1.363 . S
C2394 C2400 1.428 . S
H2395 C2391 0.930 . S
H2396 C2393 0.929 . S
S2397 N2398 1.613 . S
S2397 N2399 1.610 . S
N2398 S2397 1.613 . S
N2398 C2401 1.350 . S
N2399 S2397 1.610 . S
N2399 C2400 1.351 . S
C2400 C2394 1.428 . S
C2400 N2399 1.351 . S
C2400 C2401 1.434 . S
C2401 C2392 1.429 . S
C2401 N2398 1.350 . S
C2401 C2400 1.434 . S
C2402 C2403 1.369 . S
C2402 C2404 1.419 . S
C2402 H2406 0.930 . S
C2403 C2402 1.369 . S
C2403 C2412 1.429 . S
C2404 C2402 1.419 . S
C2404 C2405 1.363 . S
C2404 H2407 0.929 . S
C2405 C2404 1.363 . S
C2405 C2411 1.428 . S
H2406 C2402 0.930 . S
H2407 C2404 0.929 . S
S2408 N2409 1.613 . S
S2408 N2410 1.610 . S
N2409 S2408 1.613 . S
N2409 C2412 1.350 . S
N2410 S2408 1.610 . S
N2410 C2411 1.351 . S
C2411 C2405 1.428 . S
C2411 N2410 1.351 . S
C2411 C2412 1.434 . S
C2412 C2403 1.429 . S
C2412 N2409 1.350 . S
C2412 C2411 1.434 . S
C2413 C2414 1.369 . S
C2413 C2415 1.419 . S
C2413 H2417 0.930 . S
C2414 C2413 1.369 . S
C2414 C2423 1.429 . S
C2415 C2413 1.419 . S
C2415 C2416 1.363 . S
C2415 H2418 0.929 . S
C2416 C2415 1.363 . S
C2416 C2422 1.428 . S
H2417 C2413 0.930 . S
H2418 C2415 0.929 . S
S2419 N2420 1.613 . S
S2419 N2421 1.610 . S
N2420 S2419 1.613 . S
N2420 C2423 1.350 . S
N2421 S2419 1.610 . S
N2421 C2422 1.351 . S
C2422 C2416 1.428 . S
C2422 N2421 1.351 . S
C2422 C2423 1.434 . S
C2423 C2414 1.429 . S
C2423 N2420 1.350 . S
C2423 C2422 1.434 . S
C2424 C2425 1.369 . S
C2424 C2426 1.419 . S
C2424 H2428 0.930 . S
C2425 C2424 1.369 . S
C2425 C2434 1.429 . S
C2426 C2424 1.419 . S
C2426 C2427 1.363 . S
C2426 H2429 0.929 . S
C2427 C2426 1.363 . S
C2427 C2433 1.428 . S
H2428 C2424 0.930 . S
H2429 C2426 0.929 . S
S2430 N2431 1.613 . S
S2430 N2432 1.610 . S
N2431 S2430 1.613 . S
N2431 C2434 1.350 . S
N2432 S2430 1.610 . S
N2432 C2433 1.351 . S
C2433 C2427 1.428 . S
C2433 N2432 1.351 . S
C2433 C2434 1.434 . S
C2434 C2425 1.429 . S
C2434 N2431 1.350 . S
C2434 C2433 1.434 . S
C2435 C2436 1.369 . S
C2435 C2437 1.419 . S
C2435 H2439 0.930 . S
C2436 C2435 1.369 . S
C2436 C2445 1.429 . S
C2437 C2435 1.419 . S
C2437 C2438 1.363 . S
C2437 H2440 0.929 . S
C2438 C2437 1.363 . S
C2438 C2444 1.428 . S
H2439 C2435 0.930 . S
H2440 C2437 0.929 . S
S2441 N2442 1.613 . S
S2441 N2443 1.610 . S
N2442 S2441 1.613 . S
N2442 C2445 1.350 . S
N2443 S2441 1.610 . S
N2443 C2444 1.351 . S
C2444 C2438 1.428 . S
C2444 N2443 1.351 . S
C2444 C2445 1.434 . S
C2445 C2436 1.429 . S
C2445 N2442 1.350 . S
C2445 C2444 1.434 . S
C2446 C2447 1.369 . S
C2446 C2448 1.419 . S
C2446 H2450 0.930 . S
C2447 C2446 1.369 . S
C2447 C2456 1.429 . S
C2448 C2446 1.419 . S
C2448 C2449 1.363 . S
C2448 H2451 0.929 . S
C2449 C2448 1.363 . S
C2449 C2455 1.428 . S
H2450 C2446 0.930 . S
H2451 C2448 0.929 . S
S2452 N2453 1.613 . S
S2452 N2454 1.610 1_554 S
N2453 S2452 1.613 . S
N2453 C2456 1.350 . S
N2454 S2452 1.610 1_556 S
N2454 C2455 1.351 1_556 S
C2455 C2449 1.428 . S
C2455 N2454 1.351 1_554 S
C2455 C2456 1.434 . S
C2456 C2447 1.429 . S
C2456 N2453 1.350 . S
C2456 C2455 1.434 . S
C2457 C2458 1.369 . S
C2457 C2459 1.419 . S
C2457 H2461 0.930 . S
C2458 C2457 1.369 . S
C2458 C2467 1.429 . S
C2459 C2457 1.419 . S
C2459 C2460 1.363 . S
C2459 H2462 0.929 . S
C2460 C2459 1.363 . S
C2460 C2466 1.428 . S
H2461 C2457 0.930 . S
H2462 C2459 0.929 . S
S2463 N2464 1.613 . S
S2463 N2465 1.610 . S
N2464 S2463 1.613 . S
N2464 C2467 1.350 . S
N2465 S2463 1.610 . S
N2465 C2466 1.351 . S
C2466 C2460 1.428 . S
C2466 N2465 1.351 . S
C2466 C2467 1.434 . S
C2467 C2458 1.429 . S
C2467 N2464 1.350 . S
C2467 C2466 1.434 . S
C2468 C2469 1.369 . S
C2468 C2470 1.419 . S
C2468 H2472 0.930 . S
C2469 C2468 1.369 . S
C2469 C2478 1.429 . S
C2470 C2468 1.419 . S
C2470 C2471 1.363 . S
C2470 H2473 0.929 . S
C2471 C2470 1.363 . S
C2471 C2477 1.428 . S
H2472 C2468 0.930 . S
H2473 C2470 0.929 . S
S2474 N2475 1.613 . S
S2474 N2476 1.610 . S
N2475 S2474 1.613 . S
N2475 C2478 1.350 . S
N2476 S2474 1.610 . S
N2476 C2477 1.351 . S
C2477 C2471 1.428 . S
C2477 N2476 1.351 . S
C2477 C2478 1.434 . S
C2478 C2469 1.429 . S
C2478 N2475 1.350 . S
C2478 C2477 1.434 . S
C2479 C2480 1.369 . S
C2479 C2481 1.419 . S
C2479 H2483 0.930 . S
C2480 C2479 1.369 . S
C2480 C2489 1.429 . S
C2481 C2479 1.419 . S
C2481 C2482 1.363 . S
C2481 H2484 0.929 . S
C2482 C2481 1.363 . S
C2482 C2488 1.428 . S
H2483 C2479 0.930 . S
H2484 C2481 0.929 . S
S2485 N2486 1.613 . S
S2485 N2487 1.610 . S
N2486 S2485 1.613 . S
N2486 C2489 1.350 . S
N2487 S2485 1.610 . S
N2487 C2488 1.351 . S
C2488 C2482 1.428 . S
C2488 N2487 1.351 . S
C2488 C2489 1.434 . S
C2489 C2480 1.429 . S
C2489 N2486 1.350 . S
C2489 C2488 1.434 . S
C2490 C2491 1.369 . S
C2490 C2492 1.419 . S
C2490 H2494 0.930 . S
C2491 C2490 1.369 . S
C2491 C2500 1.429 . S
C2492 C2490 1.419 . S
C2492 C2493 1.363 . S
C2492 H2495 0.929 . S
C2493 C2492 1.363 . S
C2493 C2499 1.428 . S
H2494 C2490 0.930 . S
H2495 C2492 0.929 . S
S2496 N2497 1.613 . S
S2496 N2498 1.610 . S
N2497 S2496 1.613 . S
N2497 C2500 1.350 . S
N2498 S2496 1.610 . S
N2498 C2499 1.351 . S
C2499 C2493 1.428 . S
C2499 N2498 1.351 . S
C2499 C2500 1.434 . S
C2500 C2491 1.429 . S
C2500 N2497 1.350 . S
C2500 C2499 1.434 . S
C2501 C2502 1.369 . S
C2501 C2503 1.419 . S
C2501 H2505 0.930 . S
C2502 C2501 1.369 . S
C2502 C2511 1.429 . S
C2503 C2501 1.419 . S
C2503 C2504 1.363 . S
C2503 H2506 0.929 . S
C2504 C2503 1.363 . S
C2504 C2510 1.428 . S
H2505 C2501 0.930 . S
H2506 C2503 0.929 . S
S2507 N2508 1.613 . S
S2507 N2509 1.610 . S
N2508 S2507 1.613 . S
N2508 C2511 1.350 . S
N2509 S2507 1.610 . S
N2509 C2510 1.351 . S
C2510 C2504 1.428 . S
C2510 N2509 1.351 . S
C2510 C2511 1.434 . S
C2511 C2502 1.429 . S
C2511 N2508 1.350 . S
C2511 C2510 1.434 . S
C2512 C2513 1.369 . S
C2512 C2514 1.419 . S
C2512 H2516 0.930 . S
C2513 C2512 1.369 . S
C2513 C2522 1.429 . S
C2514 C2512 1.419 . S
C2514 C2515 1.363 . S
C2514 H2517 0.929 . S
C2515 C2514 1.363 . S
C2515 C2521 1.428 . S
H2516 C2512 0.930 . S
H2517 C2514 0.929 . S
S2518 N2519 1.613 . S
S2518 N2520 1.610 . S
N2519 S2518 1.613 . S
N2519 C2522 1.350 . S
N2520 S2518 1.610 . S
N2520 C2521 1.351 . S
C2521 C2515 1.428 . S
C2521 N2520 1.351 . S
C2521 C2522 1.434 . S
C2522 C2513 1.429 . S
C2522 N2519 1.350 . S
C2522 C2521 1.434 . S
C2523 C2524 1.369 . S
C2523 C2525 1.419 . S
C2523 H2527 0.930 . S
C2524 C2523 1.369 . S
C2524 C2533 1.429 . S
C2525 C2523 1.419 . S
C2525 C2526 1.363 . S
C2525 H2528 0.929 . S
C2526 C2525 1.363 . S
C2526 C2532 1.428 . S
H2527 C2523 0.930 . S
H2528 C2525 0.929 . S
S2529 N2530 1.613 . S
S2529 N2531 1.610 . S
N2530 S2529 1.613 . S
N2530 C2533 1.350 . S
N2531 S2529 1.610 . S
N2531 C2532 1.351 . S
C2532 C2526 1.428 . S
C2532 N2531 1.351 . S
C2532 C2533 1.434 . S
C2533 C2524 1.429 . S
C2533 N2530 1.350 . S
C2533 C2532 1.434 . S
C2534 C2535 1.369 . S
C2534 C2536 1.419 1_655 S
C2534 H2538 0.930 . S
C2535 C2534 1.369 . S
C2535 C2544 1.429 . S
C2536 C2534 1.419 1_455 S
C2536 C2537 1.363 . S
C2536 H2539 0.929 . S
C2537 C2536 1.363 . S
C2537 C2543 1.428 1_455 S
H2538 C2534 0.930 . S
H2539 C2536 0.929 . S
S2540 N2541 1.613 . S
S2540 N2542 1.610 . S
N2541 S2540 1.613 . S
N2541 C2544 1.350 . S
N2542 S2540 1.610 . S
N2542 C2543 1.351 . S
C2543 C2537 1.428 1_655 S
C2543 N2542 1.351 . S
C2543 C2544 1.434 . S
C2544 C2535 1.429 . S
C2544 N2541 1.350 . S
C2544 C2543 1.434 . S
C2545 C2546 1.369 . S
C2545 C2547 1.419 . S
C2545 H2549 0.930 . S
C2546 C2545 1.369 . S
C2546 C2555 1.429 . S
C2547 C2545 1.419 . S
C2547 C2548 1.363 . S
C2547 H2550 0.929 . S
C2548 C2547 1.363 . S
C2548 C2554 1.428 . S
H2549 C2545 0.930 . S
H2550 C2547 0.929 . S
S2551 N2552 1.613 . S
S2551 N2553 1.610 . S
N2552 S2551 1.613 . S
N2552 C2555 1.350 . S
N2553 S2551 1.610 . S
N2553 C2554 1.351 . S
C2554 C2548 1.428 . S
C2554 N2553 1.351 . S
C2554 C2555 1.434 . S
C2555 C2546 1.429 . S
C2555 N2552 1.350 . S
C2555 C2554 1.434 . S
C2556 C2557 1.369 . S
C2556 C2558 1.419 . S
C2556 H2560 0.930 . S
C2557 C2556 1.369 . S
C2557 C2566 1.429 . S
C2558 C2556 1.419 . S
C2558 C2559 1.363 . S
C2558 H2561 0.929 . S
C2559 C2558 1.363 . S
C2559 C2565 1.428 . S
H2560 C2556 0.930 . S
H2561 C2558 0.929 . S
S2562 N2563 1.613 . S
S2562 N2564 1.610 . S
N2563 S2562 1.613 . S
N2563 C2566 1.350 . S
N2564 S2562 1.610 . S
N2564 C2565 1.351 . S
C2565 C2559 1.428 . S
C2565 N2564 1.351 . S
C2565 C2566 1.434 . S
C2566 C2557 1.429 . S
C2566 N2563 1.350 . S
C2566 C2565 1.434 . S
C2567 C2568 1.369 . S
C2567 C2569 1.419 . S
C2567 H2571 0.930 . S
C2568 C2567 1.369 . S
C2568 C2577 1.429 . S
C2569 C2567 1.419 . S
C2569 C2570 1.363 . S
C2569 H2572 0.929 . S
C2570 C2569 1.363 . S
C2570 C2576 1.428 . S
H2571 C2567 0.930 . S
H2572 C2569 0.929 . S
S2573 N2574 1.613 . S
S2573 N2575 1.610 . S
N2574 S2573 1.613 . S
N2574 C2577 1.350 . S
N2575 S2573 1.610 . S
N2575 C2576 1.351 . S
C2576 C2570 1.428 . S
C2576 N2575 1.351 . S
C2576 C2577 1.434 . S
C2577 C2568 1.429 . S
C2577 N2574 1.350 . S
C2577 C2576 1.434 . S
C2578 C2579 1.369 . S
C2578 C2580 1.419 . S
C2578 H2582 0.930 . S
C2579 C2578 1.369 . S
C2579 C2588 1.429 . S
C2580 C2578 1.419 . S
C2580 C2581 1.363 . S
C2580 H2583 0.929 . S
C2581 C2580 1.363 . S
C2581 C2587 1.428 . S
H2582 C2578 0.930 . S
H2583 C2580 0.929 . S
S2584 N2585 1.613 1_655 S
S2584 N2586 1.610 . S
N2585 S2584 1.613 1_455 S
N2585 C2588 1.350 1_455 S
N2586 S2584 1.610 . S
N2586 C2587 1.351 . S
C2587 C2581 1.428 . S
C2587 N2586 1.351 . S
C2587 C2588 1.434 . S
C2588 C2579 1.429 . S
C2588 N2585 1.350 1_655 S
C2588 C2587 1.434 . S
C2589 C2590 1.369 . S
C2589 C2591 1.419 . S
C2589 H2593 0.930 . S
C2590 C2589 1.369 . S
C2590 C2599 1.429 . S
C2591 C2589 1.419 . S
C2591 C2592 1.363 . S
C2591 H2594 0.929 . S
C2592 C2591 1.363 . S
C2592 C2598 1.428 . S
H2593 C2589 0.930 . S
H2594 C2591 0.929 . S
S2595 N2596 1.613 . S
S2595 N2597 1.610 . S
N2596 S2595 1.613 . S
N2596 C2599 1.350 . S
N2597 S2595 1.610 . S
N2597 C2598 1.351 . S
C2598 C2592 1.428 . S
C2598 N2597 1.351 . S
C2598 C2599 1.434 . S
C2599 C2590 1.429 . S
C2599 N2596 1.350 . S
C2599 C2598 1.434 . S
C2600 C2601 1.369 . S
C2600 C2602 1.419 . S
C2600 H2604 0.930 . S
C2601 C2600 1.369 . S
C2601 C2610 1.429 . S
C2602 C2600 1.419 . S
C2602 C2603 1.363 . S
C2602 H2605 0.929 . S
C2603 C2602 1.363 . S
C2603 C2609 1.428 . S
H2604 C2600 0.930 . S
H2605 C2602 0.929 . S
S2606 N2607 1.613 . S
S2606 N2608 1.610 . S
N2607 S2606 1.613 . S
N2607 C2610 1.350 . S
N2608 S2606 1.610 . S
N2608 C2609 1.351 . S
C2609 C2603 1.428 . S
C2609 N2608 1.351 . S
C2609 C2610 1.434 . S
C2610 C2601 1.429 . S
C2610 N2607 1.350 . S
C2610 C2609 1.434 . S
C2611 C2612 1.369 . S
C2611 C2613 1.419 . S
C2611 H2615 0.930 . S
C2612 C2611 1.369 . S
C2612 C2621 1.429 . S
C2613 C2611 1.419 . S
C2613 C2614 1.363 . S
C2613 H2616 0.929 . S
C2614 C2613 1.363 . S
C2614 C2620 1.428 . S
H2615 C2611 0.930 . S
H2616 C2613 0.929 . S
S2617 N2618 1.613 . S
S2617 N2619 1.610 . S
N2618 S2617 1.613 . S
N2618 C2621 1.350 . S
N2619 S2617 1.610 . S
N2619 C2620 1.351 . S
C2620 C2614 1.428 . S
C2620 N2619 1.351 . S
C2620 C2621 1.434 . S
C2621 C2612 1.429 . S
C2621 N2618 1.350 . S
C2621 C2620 1.434 . S
C2622 C2623 1.369 . S
C2622 C2624 1.419 . S
C2622 H2626 0.930 . S
C2623 C2622 1.369 . S
C2623 C2632 1.429 . S
C2624 C2622 1.419 . S
C2624 C2625 1.363 . S
C2624 H2627 0.929 . S
C2625 C2624 1.363 . S
C2625 C2631 1.428 . S
H2626 C2622 0.930 . S
H2627 C2624 0.929 . S
S2628 N2629 1.613 . S
S2628 N2630 1.610 . S
N2629 S2628 1.613 . S
N2629 C2632 1.350 . S
N2630 S2628 1.610 . S
N2630 C2631 1.351 . S
C2631 C2625 1.428 . S
C2631 N2630 1.351 . S
C2631 C2632 1.434 . S
C2632 C2623 1.429 . S
C2632 N2629 1.350 . S
C2632 C2631 1.434 . S
C2633 C2634 1.369 . S
C2633 C2635 1.419 . S
C2633 H2637 0.930 . S
C2634 C2633 1.369 . S
C2634 C2643 1.429 . S
C2635 C2633 1.419 . S
C2635 C2636 1.363 . S
C2635 H2638 0.929 . S
C2636 C2635 1.363 . S
C2636 C2642 1.428 . S
H2637 C2633 0.930 . S
H2638 C2635 0.929 . S
S2639 N2640 1.613 . S
S2639 N2641 1.610 . S
N2640 S2639 1.613 . S
N2640 C2643 1.350 . S
N2641 S2639 1.610 . S
N2641 C2642 1.351 . S
C2642 C2636 1.428 . S
C2642 N2641 1.351 . S
C2642 C2643 1.434 . S
C2643 C2634 1.429 . S
C2643 N2640 1.350 . S
C2643 C2642 1.434 . S
C2644 C2645 1.369 . S
C2644 C2646 1.419 . S
C2644 H2648 0.930 . S
C2645 C2644 1.369 . S
C2645 C2654 1.429 . S
C2646 C2644 1.419 . S
C2646 C2647 1.363 . S
C2646 H2649 0.929 . S
C2647 C2646 1.363 . S
C2647 C2653 1.428 . S
H2648 C2644 0.930 . S
H2649 C2646 0.929 . S
S2650 N2651 1.613 . S
S2650 N2652 1.610 . S
N2651 S2650 1.613 . S
N2651 C2654 1.350 . S
N2652 S2650 1.610 . S
N2652 C2653 1.351 . S
C2653 C2647 1.428 . S
C2653 N2652 1.351 . S
C2653 C2654 1.434 . S
C2654 C2645 1.429 . S
C2654 N2651 1.350 . S
C2654 C2653 1.434 . S
C2655 C2656 1.369 . S
C2655 C2657 1.419 . S
C2655 H2659 0.930 . S
C2656 C2655 1.369 . S
C2656 C2665 1.429 . S
C2657 C2655 1.419 . S
C2657 C2658 1.363 . S
C2657 H2660 0.929 . S
C2658 C2657 1.363 . S
C2658 C2664 1.428 . S
H2659 C2655 0.930 . S
H2660 C2657 0.929 . S
S2661 N2662 1.613 . S
S2661 N2663 1.610 . S
N2662 S2661 1.613 . S
N2662 C2665 1.350 . S
N2663 S2661 1.610 . S
N2663 C2664 1.351 . S
C2664 C2658 1.428 . S
C2664 N2663 1.351 . S
C2664 C2665 1.434 . S
C2665 C2656 1.429 . S
C2665 N2662 1.350 . S
C2665 C2664 1.434 . S
C2666 C2667 1.369 . S
C2666 C2668 1.419 . S
C2666 H2670 0.930 . S
C2667 C2666 1.369 . S
C2667 C2676 1.429 . S
C2668 C2666 1.419 . S
C2668 C2669 1.363 . S
C2668 H2671 0.929 . S
C2669 C2668 1.363 . S
C2669 C2675 1.428 . S
H2670 C2666 0.930 . S
H2671 C2668 0.929 . S
S2672 N2673 1.613 . S
S2672 N2674 1.610 . S
N2673 S2672 1.613 . S
N2673 C2676 1.350 . S
N2674 S2672 1.610 . S
N2674 C2675 1.351 . S
C2675 C2669 1.428 . S
C2675 N2674 1.351 . S
C2675 C2676 1.434 . S
C2676 C2667 1.429 . S
C2676 N2673 1.350 . S
C2676 C2675 1.434 . S
C2677 C2678 1.369 . S
C2677 C2679 1.419 . S
C2677 H2681 0.930 . S
C2678 C2677 1.369 . S
C2678 C2687 1.429 . S
C2679 C2677 1.419 . S
C2679 C2680 1.363 . S
C2679 H2682 0.929 . S
C2680 C2679 1.363 . S
C2680 C2686 1.428 . S
H2681 C2677 0.930 . S
H2682 C2679 0.929 . S
S2683 N2684 1.613 . S
S2683 N2685 1.610 . S
N2684 S2683 1.613 . S
N2684 C2687 1.350 . S
N2685 S2683 1.610 . S
N2685 C2686 1.351 . S
C2686 C2680 1.428 . S
C2686 N2685 1.351 . S
C2686 C2687 1.434 . S
C2687 C2678 1.429 . S
C2687 N2684 1.350 . S
C2687 C2686 1.434 . S
C2688 C2689 1.369 . S
C2688 C2690 1.419 . S
C2688 H2692 0.930 . S
C2689 C2688 1.369 . S
C2689 C2698 1.429 . S
C2690 C2688 1.419 . S
C2690 C2691 1.363 1_655 S
C2690 H2693 0.929 . S
C2691 C2690 1.363 1_455 S
C2691 C2697 1.428 . S
H2692 C2688 0.930 . S
H2693 C2690 0.929 . S
S2694 N2695 1.642 . S
S2694 N2696 1.610 . S
N2695 S2694 1.642 . S
N2695 C2698 1.345 1_455 S
N2696 S2694 1.610 . S
N2696 C2697 1.351 . S
C2697 C2691 1.428 . S
C2697 N2696 1.351 . S
C2697 C2698 1.434 1_455 S
C2698 C2689 1.429 . S
C2698 N2695 1.345 1_655 S
C2698 C2697 1.434 1_655 S
C2699 C2700 1.369 . S
C2699 C2701 1.419 1_455 S
C2699 H2703 0.930 . S
C2700 C2699 1.369 . S
C2700 C2709 1.429 1_455 S
C2701 C2699 1.419 1_655 S
C2701 C2702 1.363 . S
C2701 H2704 0.929 . S
C2702 C2701 1.363 . S
C2702 C2708 1.428 . S
H2703 C2699 0.930 . S
H2704 C2701 0.929 . S
S2705 N2706 1.613 . S
S2705 N2707 1.610 . S
N2706 S2705 1.613 . S
N2706 C2709 1.350 . S
N2707 S2705 1.610 . S
N2707 C2708 1.351 . S
C2708 C2702 1.428 . S
C2708 N2707 1.351 . S
C2708 C2709 1.434 . S
C2709 C2700 1.429 1_655 S
C2709 N2706 1.350 . S
C2709 C2708 1.434 . S
C2710 C2711 1.369 . S
C2710 C2712 1.419 . S
C2710 H2714 0.930 . S
C2711 C2710 1.369 . S
C2711 C2720 1.429 . S
C2712 C2710 1.419 . S
C2712 C2713 1.363 . S
C2712 H2715 0.929 . S
C2713 C2712 1.363 . S
C2713 C2719 1.428 . S
H2714 C2710 0.930 . S
H2715 C2712 0.929 . S
S2716 N2717 1.613 . S
S2716 N2718 1.610 . S
N2717 S2716 1.613 . S
N2717 C2720 1.350 . S
N2718 S2716 1.610 . S
N2718 C2719 1.351 . S
C2719 C2713 1.428 . S
C2719 N2718 1.351 . S
C2719 C2720 1.434 . S
C2720 C2711 1.429 . S
C2720 N2717 1.350 . S
C2720 C2719 1.434 . S
C2721 C2722 1.369 . S
C2721 C2723 1.419 . S
C2721 H2725 0.930 . S
C2722 C2721 1.369 . S
C2722 C2731 1.429 . S
C2723 C2721 1.419 . S
C2723 C2724 1.363 . S
C2723 H2726 0.929 . S
C2724 C2723 1.363 . S
C2724 C2730 1.428 . S
H2725 C2721 0.930 . S
H2726 C2723 0.929 . S
S2727 N2728 1.613 . S
S2727 N2729 1.610 . S
N2728 S2727 1.613 . S
N2728 C2731 1.350 . S
N2729 S2727 1.610 . S
N2729 C2730 1.351 . S
C2730 C2724 1.428 . S
C2730 N2729 1.351 . S
C2730 C2731 1.434 . S
C2731 C2722 1.429 . S
C2731 N2728 1.350 . S
C2731 C2730 1.434 . S
C2732 C2733 1.369 . S
C2732 C2734 1.419 . S
C2732 H2736 0.930 . S
C2733 C2732 1.369 . S
C2733 C2742 1.429 . S
C2734 C2732 1.419 . S
C2734 C2735 1.363 . S
C2734 H2737 0.922 1_565 S
C2735 C2734 1.363 . S
C2735 C2741 1.428 . S
H2736 C2732 0.930 . S
H2737 C2734 0.922 1_545 S
S2738 N2739 1.613 . S
S2738 N2740 1.610 . S
N2739 S2738 1.613 . S
N2739 C2742 1.350 . S
N2740 S2738 1.610 . S
N2740 C2741 1.351 . S
C2741 C2735 1.428 . S
C2741 N2740 1.351 . S
C2741 C2742 1.434 . S
C2742 C2733 1.429 . S
C2742 N2739 1.350 . S
C2742 C2741 1.434 . S
C2743 C2744 1.369 . S
C2743 C2745 1.419 . S
C2743 H2747 0.930 . S
C2744 C2743 1.369 . S
C2744 C2753 1.429 . S
C2745 C2743 1.419 . S
C2745 C2746 1.363 . S
C2745 H2748 0.929 . S
C2746 C2745 1.363 . S
C2746 C2752 1.428 . S
H2747 C2743 0.930 . S
H2748 C2745 0.929 . S
S2749 N2750 1.613 . S
S2749 N2751 1.610 . S
N2750 S2749 1.613 . S
N2750 C2753 1.350 . S
N2751 S2749 1.610 . S
N2751 C2752 1.351 . S
C2752 C2746 1.428 . S
C2752 N2751 1.351 . S
C2752 C2753 1.434 . S
C2753 C2744 1.429 . S
C2753 N2750 1.350 . S
C2753 C2752 1.434 . S
C2754 C2755 1.369 . S
C2754 C2756 1.419 . S
C2754 H2758 0.930 . S
C2755 C2754 1.369 . S
C2755 C2764 1.429 1_545 S
C2756 C2754 1.419 . S
C2756 C2757 1.363 1_545 S
C2756 H2759 0.929 . S
C2757 C2756 1.363 1_565 S
C2757 C2763 1.428 . S
H2758 C2754 0.930 . S
H2759 C2756 0.929 . S
S2760 N2761 1.613 . S
S2760 N2762 1.610 . S
N2761 S2760 1.613 . S
N2761 C2764 1.350 . S
N2762 S2760 1.610 . S
N2762 C2763 1.351 . S
C2763 C2757 1.428 . S
C2763 N2762 1.351 . S
C2763 C2764 1.434 . S
C2764 C2755 1.429 1_565 S
C2764 N2761 1.350 . S
C2764 C2763 1.434 . S
C2765 C2766 1.369 . S
C2765 C2767 1.419 . S
C2765 H2769 0.930 . S
C2766 C2765 1.369 . S
C2766 C2775 1.429 . S
C2767 C2765 1.419 . S
C2767 C2768 1.363 1_556 S
C2767 H2770 0.929 . S
C2768 C2767 1.363 1_554 S
C2768 C2774 1.428 . S
H2769 C2765 0.930 . S
H2770 C2767 0.929 . S
S2771 N2772 1.613 1_554 S
S2771 N2773 1.610 . S
N2772 S2771 1.613 1_556 S
N2772 C2775 1.350 . S
N2773 S2771 1.610 . S
N2773 C2774 1.351 . S
C2774 C2768 1.428 . S
C2774 N2773 1.351 . S
C2774 C2775 1.434 1_554 S
C2775 C2766 1.429 . S
C2775 N2772 1.350 . S
C2775 C2774 1.434 1_556 S
C2776 C2777 1.369 . S
C2776 C2778 1.419 1_554 S
C2776 H2780 0.930 . S
C2777 C2776 1.369 . S
C2777 C2786 1.429 1_554 S
C2778 C2776 1.419 1_556 S
C2778 C2779 1.363 . S
C2778 H2781 0.929 . S
C2779 C2778 1.363 . S
C2779 C2785 1.428 . S
H2780 C2776 0.930 . S
H2781 C2778 0.929 . S
S2782 N2783 1.613 . S
S2782 N2784 1.610 . S
N2783 S2782 1.613 . S
N2783 C2786 1.350 . S
N2784 S2782 1.610 . S
N2784 C2785 1.351 . S
C2785 C2779 1.428 . S
C2785 N2784 1.351 . S
C2785 C2786 1.434 . S
C2786 C2777 1.429 1_556 S
C2786 N2783 1.350 . S
C2786 C2785 1.434 . S
C2787 C2788 1.369 . S
C2787 C2789 1.419 . S
C2787 H2791 0.930 . S
C2788 C2787 1.369 . S
C2788 C2797 1.429 . S
C2789 C2787 1.419 . S
C2789 C2790 1.363 . S
C2789 H2792 0.929 . S
C2790 C2789 1.363 . S
C2790 C2796 1.428 . S
H2791 C2787 0.930 . S
H2792 C2789 0.929 . S
S2793 N2794 1.613 . S
S2793 N2795 1.610 . S
N2794 S2793 1.613 . S
N2794 C2797 1.350 . S
N2795 S2793 1.610 . S
N2795 C2796 1.351 . S
C2796 C2790 1.428 . S
C2796 N2795 1.351 . S
C2796 C2797 1.434 . S
C2797 C2788 1.429 . S
C2797 N2794 1.350 . S
C2797 C2796 1.434 . S
C2798 C2799 1.369 . S
C2798 C2800 1.419 . S
C2798 H2802 0.930 . S
C2799 C2798 1.369 . S
C2799 C2808 1.429 . S
C2800 C2798 1.419 . S
C2800 C2801 1.363 . S
C2800 H2803 0.929 . S
C2801 C2800 1.363 . S
C2801 C2807 1.428 . S
H2802 C2798 0.930 . S
H2803 C2800 0.929 . S
S2804 N2805 1.613 . S
S2804 N2806 1.610 . S
N2805 S2804 1.613 . S
N2805 C2808 1.350 . S
N2806 S2804 1.610 . S
N2806 C2807 1.351 . S
C2807 C2801 1.428 . S
C2807 N2806 1.351 . S
C2807 C2808 1.434 . S
C2808 C2799 1.429 . S
C2808 N2805 1.350 . S
C2808 C2807 1.434 . S
C2809 C2810 1.369 . S
C2809 C2811 1.419 . S
C2809 H2813 0.930 . S
C2810 C2809 1.369 . S
C2810 C2819 1.429 . S
C2811 C2809 1.419 . S
C2811 C2812 1.363 . S
C2811 H2814 0.929 . S
C2812 C2811 1.363 . S
C2812 C2818 1.428 . S
H2813 C2809 0.930 . S
H2814 C2811 0.929 . S
S2815 N2816 1.613 . S
S2815 N2817 1.610 . S
N2816 S2815 1.613 . S
N2816 C2819 1.350 . S
N2817 S2815 1.610 . S
N2817 C2818 1.351 . S
C2818 C2812 1.428 . S
C2818 N2817 1.351 . S
C2818 C2819 1.434 . S
C2819 C2810 1.429 . S
C2819 N2816 1.350 . S
C2819 C2818 1.434 . S
C2820 C2821 1.369 . S
C2820 C2822 1.419 1_655 S
C2820 H2824 0.930 . S
C2821 C2820 1.369 . S
C2821 C2830 1.429 1_655 S
C2822 C2820 1.419 1_455 S
C2822 C2823 1.363 . S
C2822 H2825 0.929 1_455 S
C2823 C2822 1.363 . S
C2823 C2829 1.428 . S
H2824 C2820 0.930 . S
H2825 C2822 0.929 1_655 S
S2826 N2827 1.613 . S
S2826 N2828 1.610 . S
N2827 S2826 1.613 . S
N2827 C2830 1.350 . S
N2828 S2826 1.610 . S
N2828 C2829 1.351 . S
C2829 C2823 1.428 . S
C2829 N2828 1.351 . S
C2829 C2830 1.434 . S
C2830 C2821 1.429 1_455 S
C2830 N2827 1.350 . S
C2830 C2829 1.434 . S
C2831 C2832 1.369 . S
C2831 C2833 1.419 . S
C2831 H2835 0.930 . S
C2832 C2831 1.369 . S
C2832 C2841 1.429 . S
C2833 C2831 1.419 . S
C2833 C2834 1.363 1_655 S
C2833 H2836 0.929 . S
C2834 C2833 1.363 1_455 S
C2834 C2840 1.428 . S
H2835 C2831 0.930 . S
H2836 C2833 0.929 . S
S2837 N2838 1.613 1_455 S
S2837 N2839 1.610 . S
N2838 S2837 1.613 1_655 S
N2838 C2841 1.350 . S
N2839 S2837 1.610 . S
N2839 C2840 1.351 . S
C2840 C2834 1.428 . S
C2840 N2839 1.351 . S
C2840 C2841 1.434 1_455 S
C2841 C2832 1.429 . S
C2841 N2838 1.350 . S
C2841 C2840 1.434 1_655 S
C2842 C2843 1.369 . S
C2842 C2844 1.419 . S
C2842 H2846 0.930 . S
C2843 C2842 1.369 . S
C2843 C2852 1.429 . S
C2844 C2842 1.419 . S
C2844 C2845 1.363 . S
C2844 H2847 0.929 . S
C2845 C2844 1.363 . S
C2845 C2851 1.428 . S
H2846 C2842 0.930 . S
H2847 C2844 0.929 . S
S2848 N2849 1.613 . S
S2848 N2850 1.610 . S
N2849 S2848 1.613 . S
N2849 C2852 1.350 . S
N2850 S2848 1.610 . S
N2850 C2851 1.351 . S
C2851 C2845 1.428 . S
C2851 N2850 1.351 . S
C2851 C2852 1.434 . S
C2852 C2843 1.429 . S
C2852 N2849 1.350 . S
C2852 C2851 1.434 . S
C2853 C2854 1.369 . S
C2853 C2855 1.419 . S
C2853 H2857 0.930 . S
C2854 C2853 1.369 . S
C2854 C2863 1.429 . S
C2855 C2853 1.419 . S
C2855 C2856 1.363 . S
C2855 H2858 0.929 . S
C2856 C2855 1.363 . S
C2856 C2862 1.428 . S
H2857 C2853 0.930 . S
H2858 C2855 0.929 . S
S2859 N2860 1.613 . S
S2859 N2861 1.610 . S
N2860 S2859 1.613 . S
N2860 C2863 1.350 . S
N2861 S2859 1.610 . S
N2861 C2862 1.351 . S
C2862 C2856 1.428 . S
C2862 N2861 1.351 . S
C2862 C2863 1.434 . S
C2863 C2854 1.429 . S
C2863 N2860 1.350 . S
C2863 C2862 1.434 . S
C2864 C2865 1.369 . S
C2864 C2866 1.419 . S
C2864 H2868 0.930 . S
C2865 C2864 1.369 . S
C2865 C2874 1.429 . S
C2866 C2864 1.419 . S
C2866 C2867 1.363 1_545 S
C2866 H2869 0.929 . S
C2867 C2866 1.363 1_565 S
C2867 C2873 1.428 . S
H2868 C2864 0.930 . S
H2869 C2866 0.929 . S
S2870 N2871 1.613 1_565 S
S2870 N2872 1.610 . S
N2871 S2870 1.613 1_545 S
N2871 C2874 1.350 . S
N2872 S2870 1.610 . S
N2872 C2873 1.351 . S
C2873 C2867 1.428 . S
C2873 N2872 1.351 . S
C2873 C2874 1.434 1_565 S
C2874 C2865 1.429 . S
C2874 N2871 1.350 . S
C2874 C2873 1.434 1_545 S
C2875 C2876 1.369 . S
C2875 C2877 1.419 . S
C2875 H2879 0.930 . S
C2876 C2875 1.369 . S
C2876 C2885 1.429 . S
C2877 C2875 1.419 . S
C2877 C2878 1.363 . S
C2877 H2880 0.929 . S
C2878 C2877 1.363 . S
C2878 C2884 1.428 . S
H2879 C2875 0.930 . S
H2880 C2877 0.929 . S
S2881 N2882 1.613 . S
S2881 N2883 1.610 . S
N2882 S2881 1.613 . S
N2882 C2885 1.350 . S
N2883 S2881 1.610 . S
N2883 C2884 1.351 . S
C2884 C2878 1.428 . S
C2884 N2883 1.351 . S
C2884 C2885 1.434 . S
C2885 C2876 1.429 . S
C2885 N2882 1.350 . S
C2885 C2884 1.434 . S
C2886 C2887 1.369 1_565 S
C2886 C2888 1.419 . S
C2886 H2890 0.930 . S
C2887 C2886 1.369 1_545 S
C2887 C2896 1.429 . S
C2888 C2886 1.419 . S
C2888 C2889 1.363 . S
C2888 H2891 0.929 . S
C2889 C2888 1.363 . S
C2889 C2895 1.428 . S
H2890 C2886 0.930 . S
H2891 C2888 0.929 . S
S2892 N2893 1.613 . S
S2892 N2894 1.610 1_545 S
N2893 S2892 1.613 . S
N2893 C2896 1.350 . S
N2894 S2892 1.610 1_565 S
N2894 C2895 1.351 . S
C2895 C2889 1.428 . S
C2895 N2894 1.351 . S
C2895 C2896 1.434 1_565 S
C2896 C2887 1.429 . S
C2896 N2893 1.350 . S
C2896 C2895 1.434 1_545 S
C2897 C2898 1.369 . S
C2897 C2899 1.419 . S
C2897 H2901 0.930 . S
C2898 C2897 1.369 . S
C2898 C2907 1.429 1_554 S
C2899 C2897 1.419 . S
C2899 C2900 1.363 . S
C2899 H2902 0.929 . S
C2900 C2899 1.363 . S
C2900 C2906 1.428 . S
H2901 C2897 0.930 . S
H2902 C2899 0.929 . S
S2903 N2904 1.613 . S
S2903 N2905 1.578 1_556 S
N2904 S2903 1.613 . S
N2904 C2907 1.350 . S
N2905 S2903 1.578 1_554 S
N2905 C2906 1.366 . S
C2906 C2900 1.428 . S
C2906 N2905 1.366 . S
C2906 C2907 1.434 1_554 S
C2907 C2898 1.429 1_556 S
C2907 N2904 1.350 . S
C2907 C2906 1.434 1_556 S
C2908 C2909 1.369 1_554 S
C2908 C2910 1.419 . S
C2908 H2912 0.930 . S
C2909 C2908 1.369 1_556 S
C2909 C2918 1.429 . S
C2910 C2908 1.419 . S
C2910 C2911 1.363 . S
C2910 H2913 0.929 . S
C2911 C2910 1.363 . S
C2911 C2917 1.428 . S
H2912 C2908 0.930 . S
H2913 C2910 0.929 . S
S2914 N2915 1.613 . S
S2914 N2916 1.610 1_556 S
N2915 S2914 1.613 . S
N2915 C2918 1.350 . S
N2916 S2914 1.610 1_554 S
N2916 C2917 1.351 . S
C2917 C2911 1.428 . S
C2917 N2916 1.351 . S
C2917 C2918 1.434 1_554 S
C2918 C2909 1.429 . S
C2918 N2915 1.350 . S
C2918 C2917 1.434 1_556 S
C2919 C2920 1.369 . S
C2919 C2921 1.419 . S
C2919 H2923 0.930 . S
C2920 C2919 1.369 . S
C2920 C2929 1.429 . S
C2921 C2919 1.419 . S
C2921 C2922 1.363 . S
C2921 H2924 0.929 . S
C2922 C2921 1.363 . S
C2922 C2928 1.428 . S
H2923 C2919 0.930 . S
H2924 C2921 0.929 . S
S2925 N2926 1.613 . S
S2925 N2927 1.610 . S
N2926 S2925 1.613 . S
N2926 C2929 1.350 . S
N2927 S2925 1.610 . S
N2927 C2928 1.351 . S
C2928 C2922 1.428 . S
C2928 N2927 1.351 . S
C2928 C2929 1.434 . S
C2929 C2920 1.429 . S
C2929 N2926 1.350 . S
C2929 C2928 1.434 . S
C2930 C2931 1.369 . S
C2930 C2932 1.419 . S
C2930 H2934 0.930 . S
C2931 C2930 1.369 . S
C2931 C2940 1.429 . S
C2932 C2930 1.419 . S
C2932 C2933 1.363 . S
C2932 H2935 0.929 . S
C2933 C2932 1.363 . S
C2933 C2939 1.428 . S
H2934 C2930 0.930 . S
H2935 C2932 0.929 . S
S2936 N2937 1.613 . S
S2936 N2938 1.610 . S
N2937 S2936 1.613 . S
N2937 C2940 1.350 . S
N2938 S2936 1.610 . S
N2938 C2939 1.351 . S
C2939 C2933 1.428 . S
C2939 N2938 1.351 . S
C2939 C2940 1.434 . S
C2940 C2931 1.429 . S
C2940 N2937 1.350 . S
C2940 C2939 1.434 . S
C2941 C2942 1.369 . S
C2941 C2943 1.419 . S
C2941 H2945 0.930 . S
C2942 C2941 1.369 . S
C2942 C2951 1.429 . S
C2943 C2941 1.419 . S
C2943 C2944 1.363 . S
C2943 H2946 0.929 . S
C2944 C2943 1.363 . S
C2944 C2950 1.428 . S
H2945 C2941 0.930 . S
H2946 C2943 0.929 . S
S2947 N2948 1.613 . S
S2947 N2949 1.610 . S
N2948 S2947 1.613 . S
N2948 C2951 1.350 . S
N2949 S2947 1.610 . S
N2949 C2950 1.351 . S
C2950 C2944 1.428 . S
C2950 N2949 1.351 . S
C2950 C2951 1.434 . S
C2951 C2942 1.429 . S
C2951 N2948 1.350 . S
C2951 C2950 1.434 . S
C1633 C5 1.389 . S
C1635 C1294 1.375 . S
C1644 C39 1.286 . S
C1646 C1257 1.205 . S
C1655 C77 1.084 . S
C1657 C1600 1.224 . S
C1666 C1189 1.021 . S
C1668 C111 0.970 . S
C1677 C141 1.380 . S
C1679 C1393 1.331 . S
C1688 C1090 1.263 . S
C1690 C179 1.142 . S
C1699 C209 1.289 . S
C1701 C1427 1.192 . S
C1710 C243 1.369 . S
C1712 C1022 1.362 . S
C1721 C1053 1.211 . S
C1723 C277 1.266 1_655 S
C1732 C315 1.027 . S
C1734 C1362 1.111 . S
C1743 C345 1.472 . S
C1745 C1121 1.376 . S
C1754 C1396 1.464 . S
C1756 C379 1.481 . S
C1765 C417 1.071 1_655 S
C1767 C1226 1.138 . S
C1776 C447 1.468 . S
C1778 C1631 1.408 . S
C1787 C1158 1.515 . S
C1789 C481 1.539 . S
C1798 C515 1.342 . S
C1800 C1325 1.283 . S
C1809 C818 1.351 . S
C1811 C383 1.166 1_565 S
C1820 C747 1.049 . S
C1822 C553 1.018 . S
C1831 C587 1.025 . S
C1833 C951 1.117 . S
C1842 C784 1.227 . S
C1844 C621 1.116 . S
C1853 C849 1.379 . S
C1855 C413 1.408 . S
C1864 C311 1.368 . S
C1866 C750 1.359 . S
C1875 C815 1.167 . S
C1877 C655 1.046 . S
C1886 C716 1.263 . S
C1888 C689 1.185 . S
C1897 C611 1.421 . S
C1899 C719 1.455 1_554 S
C1908 C543 1.289 . S
C1910 C753 1.392 . S
C1919 C1498 1.227 . S
C1921 C791 1.107 . S
C1930 C821 1.399 . S
C1932 C475 1.336 . S
C1941 C679 1.094 . S
C1943 C859 1.037 . S
C1952 C893 1.028 . S
C1954 C407 1.088 . S
C1963 C713 1.072 . S
C1965 C927 0.986 1_556 S
C1974 C308 1.393 . S
C1976 C957 1.402 . S
C1985 C339 1.143 . S
C1987 C991 1.204 1_455 S
C1996 C648 1.155 . S
C1998 C1029 1.060 . S
C2007 C1059 1.487 . S
C2009 C376 1.473 . S
C2018 C1097 1.220 . S
C2020 C682 1.318 . S
C2029 C1131 1.050 . S
C2031 C512 1.094 . S
C2040 C1161 1.363 . S
C2042 C1529 1.278 . S
C2051 C1199 1.136 . S
C2053 C444 1.205 . S
C2062 C1229 1.287 . S
C2064 C580 1.281 . S
C2073 C135 1.416 . S
C2075 C1093 1.454 . S
C2084 C33 1.156 . S
C2086 C1267 1.058 . S
C2095 C206 1.310 . S
C2097 C1297 1.332 . S
C2106 C70 1.267 . S
C2108 C1335 1.144 . S
C2117 C1127 1.469 . S
C2119 C104 1.463 . S
C2128 C36 1.448 . S
C2130 C1025 1.452 1_565 S
C2139 C101 0.996 . S
C2141 C1369 0.943 . S
C2150 C1403 1.114 . S
C2152 C2 1.216 . S
C2161 C1192 1.516 . S
C2163 C175 1.516 . S
C2172 C1359 1.043 . S
C2174 C213 0.982 . S
C2183 C247 1.040 1_556 S
C2185 C1124 1.186 . S
C2194 C1291 0.997 . S
C2196 C145 0.954 . S
C2205 C107 1.402 . S
C2207 C1087 1.337 . S
C2216 C9 1.093 . S
C2218 C1566 1.232 . S
C2227 C1019 0.927 . S
C2229 C43 0.905 . S
C2238 C73 1.496 . S
C2240 C1532 1.489 . S
C2249 C685 1.229 . S
C2251 C1563 1.180 . S
C2260 C1437 1.009 . S
C2262 C1056 1.087 . S
C2271 C651 1.475 . S
C2273 C1597 1.390 . S
C2282 C988 1.477 . S
C2284 C1467 1.505 . S
C2293 C1505 1.106 . S
C2295 C1328 1.184 . S
C2304 C549 1.475 . S
C2306 C1155 1.403 . S
C2315 C1260 1.519 . S
C2317 C583 1.551 . S
C2326 C617 1.315 . S
C2328 C1223 1.243 . S
C2337 C852 1.348 . S
C2339 C1471 1.180 . S
C2348 C451 1.005 1_545 S
C2350 C917 1.034 . S
C2359 C485 1.037 . S
C2361 C781 1.129 . S
C2370 C954 1.244 . S
C2372 C519 1.128 1_565 S
C2381 C883 1.392 . S
C2383 C1501 1.414 . S
C2392 C920 1.334 . S
C2394 C1433 1.345 . S
C2403 C349 1.042 . S
C2405 C985 1.151 . S
C2414 C886 1.286 . S
C2416 C281 1.209 . S
C2425 C509 1.407 . S
C2427 C889 1.460 . S
C2436 C645 1.291 . S
C2438 C923 1.374 . S
C2447 C410 1.245 . S
C2449 C961 1.113 1_554 S
C2458 C855 1.423 . S
C2460 C577 1.355 . S
C2469 C373 1.061 . S
C2471 C825 1.026 1_556 S
C2480 C723 1.009 . S
C2482 C1495 1.086 . S
C2491 C305 1.072 . S
C2493 C757 0.992 . S
C2502 C1430 1.399 . S
C2504 C787 1.400 . S
C2513 C1461 1.156 . S
C2515 C1399 1.203 . S
C2524 C1539 1.127 . S
C2526 C342 1.193 . S
C2535 C1464 1.461 . S
C2537 C1365 1.479 . S
C2546 C1573 1.177 . S
C2548 C274 1.268 . S
C2557 C614 1.138 . S
C2559 C1607 1.072 . S
C2568 C441 1.283 . S
C2570 C1263 1.362 . S
C2579 C1301 1.060 1_655 S
C2581 C546 1.168 . S
C2590 C478 1.266 . S
C2592 C1331 1.284 . S
C2601 C1569 1.410 . S
C2603 C169 1.366 . S
C2612 C203 1.158 . S
C2614 C1165 1.048 1_565 S
C2623 C67 1.217 . S
C2625 C1195 1.271 . S
C2634 C1233 1.067 1_545 S
C2636 C240 1.155 . S
C2645 C1603 1.520 . S
C2647 C138 1.518 . S
C2656 C1535 1.398 . S
C2658 C237 1.349 . S
C2667 C1063 0.940 . S
C2669 C271 1.002 . S
C2678 C172 1.317 . S
C2680 C995 1.192 . S
C2689 C258 1.989 . S
C2691 C20 1.984 . S
C2700 C156 2.431 . S
C2702 C54 2.434 . S
C2711 C190 2.055 . S
C2713 C88 2.060 . S
C2722 C224 2.436 . S
C2724 C122 2.433 . S
C2733 C428 2.143 . S
C2735 C292 2.163 1_565 S
C2744 C462 2.339 . S
C2746 C326 2.349 . S
C2755 C496 2.248 . S
C2757 C360 2.247 . S
C2766 C530 2.194 . S
C2768 C394 2.209 . S
C2777 C1448 2.341 . S
C2779 C564 2.331 . S
C2788 C598 2.239 . S
C2790 C666 2.238 . S
C2799 C632 2.250 . S
C2801 C1482 2.264 . S
C2810 C700 2.212 . S
C2812 C1516 2.194 . S
C2821 C734 2.022 . S
C2823 C972 2.018 . S
C2832 C870 2.303 . S
C2834 C768 2.314 . S
C2843 C904 2.020 . S
C2845 C802 2.016 . S
C2854 C938 2.325 . S
C2856 C836 2.312 . S
C2865 C1142 2.223 . S
C2867 C1006 2.242 . S
C2876 C1040 2.317 . S
C2878 C1176 2.328 . S
C2887 C1074 2.353 . S
C2889 C1210 2.331 . S
C2898 C1108 2.219 1_554 S
C2900 C1244 2.242 . S
C2909 C1550 2.347 . S
C2911 C1278 2.369 . S
C2920 C1380 2.318 . S
C2922 C1312 2.309 . S
C2931 C1346 2.201 . S
C2933 C1584 2.166 . S
C2942 C1618 2.285 . S
C2944 C1414 2.289 . S
