# Generated by pormake.
# Topology uoq, (4)-cn, num edge types: 1
# Building blocks:
#     Node 0, Type 0, BuildingBlock: NAHDIM_clean_sbu_0, # of connection points: 4
#     Node 1, Type 0, BuildingBlock: NAHDIM_clean_sbu_0, # of connection points: 4
#     Node 2, Type 0, BuildingBlock: NAHDIM_clean_sbu_0, # of connection points: 4
#     Node 3, Type 0, BuildingBlock: NAHDIM_clean_sbu_0, # of connection points: 4
#     Node 4, Type 0, BuildingBlock: NAHDIM_clean_sbu_0, # of connection points: 4
#     Node 5, Type 0, BuildingBlock: NAHDIM_clean_sbu_0, # of connection points: 4
#     Node 6, Type 0, BuildingBlock: NAHDIM_clean_sbu_0, # of connection points: 4
#     Node 7, Type 0, BuildingBlock: NAHDIM_clean_sbu_0, # of connection points: 4
#     Node 8, Type 0, BuildingBlock: NAHDIM_clean_sbu_0, # of connection points: 4
#     Node 9, Type 0, BuildingBlock: NAHDIM_clean_sbu_0, # of connection points: 4
#     Node 10, Type 0, BuildingBlock: NAHDIM_clean_sbu_0, # of connection points: 4
#     Node 11, Type 0, BuildingBlock: NAHDIM_clean_sbu_0, # of connection points: 4
#     Edge 12, Type (0, 0), BuildingBlock: ZUJKAS_clean_linker_0, # of connection points: 2
#     Edge 13, Type (0, 0), BuildingBlock: ZUJKAS_clean_linker_0, # of connection points: 2
#     Edge 14, Type (0, 0), BuildingBlock: ZUJKAS_clean_linker_0, # of connection points: 2
#     Edge 15, Type (0, 0), BuildingBlock: ZUJKAS_clean_linker_0, # of connection points: 2
#     Edge 16, Type (0, 0), BuildingBlock: ZUJKAS_clean_linker_0, # of connection points: 2
#     Edge 17, Type (0, 0), BuildingBlock: ZUJKAS_clean_linker_0, # of connection points: 2
#     Edge 18, Type (0, 0), BuildingBlock: ZUJKAS_clean_linker_0, # of connection points: 2
#     Edge 19, Type (0, 0), BuildingBlock: ZUJKAS_clean_linker_0, # of connection points: 2
#     Edge 20, Type (0, 0), BuildingBlock: ZUJKAS_clean_linker_0, # of connection points: 2
#     Edge 21, Type (0, 0), BuildingBlock: ZUJKAS_clean_linker_0, # of connection points: 2
#     Edge 22, Type (0, 0), BuildingBlock: ZUJKAS_clean_linker_0, # of connection points: 2
#     Edge 23, Type (0, 0), BuildingBlock: ZUJKAS_clean_linker_0, # of connection points: 2
#     Edge 24, Type (0, 0), BuildingBlock: ZUJKAS_clean_linker_0, # of connection points: 2
#     Edge 25, Type (0, 0), BuildingBlock: ZUJKAS_clean_linker_0, # of connection points: 2
#     Edge 26, Type (0, 0), BuildingBlock: ZUJKAS_clean_linker_0, # of connection points: 2
#     Edge 27, Type (0, 0), BuildingBlock: ZUJKAS_clean_linker_0, # of connection points: 2
#     Edge 28, Type (0, 0), BuildingBlock: ZUJKAS_clean_linker_0, # of connection points: 2
#     Edge 29, Type (0, 0), BuildingBlock: ZUJKAS_clean_linker_0, # of connection points: 2
#     Edge 30, Type (0, 0), BuildingBlock: ZUJKAS_clean_linker_0, # of connection points: 2
#     Edge 31, Type (0, 0), BuildingBlock: ZUJKAS_clean_linker_0, # of connection points: 2
#     Edge 32, Type (0, 0), BuildingBlock: ZUJKAS_clean_linker_0, # of connection points: 2
#     Edge 33, Type (0, 0), BuildingBlock: ZUJKAS_clean_linker_0, # of connection points: 2
#     Edge 34, Type (0, 0), BuildingBlock: ZUJKAS_clean_linker_0, # of connection points: 2
#     Edge 35, Type (0, 0), BuildingBlock: ZUJKAS_clean_linker_0, # of connection points: 2
# Relax obj value: 0.074
# Max RMSD: 0.072
# Mean RMSD: 0.072
data_MOF--net-uoq--node1-NAHDIM_clean_sbu_0--edge1-ZUJKAS_clean_linker_0
_symmetry_space_group_name_H-M    P1
_symmetry_Int_Tables_number       1
_symmetry_cell_setting            triclinic
loop_
_symmetry_equiv_pos_as_xyz
'x, y, z'
_cell_length_a     75.831229
_cell_length_b     75.825703
_cell_length_c     30.838412
_cell_angle_alpha  90.01958
_cell_angle_beta   90.039931
_cell_angle_gamma 120.04476
loop_
_atom_site_label
_atom_site_type_symbol
_atom_site_fract_x
_atom_site_fract_y
_atom_site_fract_z
_atom_type_partial_charge
C0 C 0.29095 0.45211 0.16446 0.0
O1 O 0.3099 0.46691 0.16862 0.0
O2 O 0.31992 0.47256 0.26023 0.0
Zn3 Zn 0.2959 0.44423 0.25418 0.0
O4 O 0.27562 0.44007 0.30039 0.0
C5 C 0.3102 0.42321 0.3042 0.0
O6 O 0.30776 0.43432 0.33367 0.0
O7 O 0.28228 0.4402 0.19621 0.0
C8 C 0.26131 0.4224 0.31041 0.0
O9 O 0.25933 0.40652 0.28899 0.0
C10 C 0.31794 0.48735 0.27351 0.0
O11 O 0.29964 0.48426 0.28205 0.0
O12 O 0.30587 0.42452 0.26492 0.0
C13 C 0.83647 0.26685 0.52076 0.0
O14 O 0.84117 0.25692 0.54908 0.0
O15 O 0.84691 0.32102 0.59829 0.0
Zn16 Zn 0.85101 0.29698 0.5886 0.0
O17 O 0.83619 0.27595 0.63486 0.0
C18 C 0.88908 0.31496 0.62981 0.0
O19 O 0.87751 0.31549 0.66089 0.0
O20 O 0.83989 0.28462 0.5301 0.0
C21 C 0.84292 0.26519 0.65183 0.0
O22 O 0.86023 0.26719 0.63817 0.0
C23 C 0.83778 0.32249 0.63147 0.0
O24 O 0.83009 0.30761 0.6599 0.0
O25 O 0.88101 0.30722 0.59344 0.0
C26 C 0.5417 0.82237 0.85687 0.0
O27 O 0.52869 0.81376 0.88881 0.0
O28 O 0.52701 0.8499 0.9276 0.0
Zn29 Zn 0.55524 0.85465 0.91594 0.0
O30 O 0.56285 0.84164 0.96347 0.0
C31 C 0.57012 0.89716 0.90022 0.0
O32 O 0.55213 0.89003 0.88209 0.0
O33 O 0.55524 0.84106 0.86009 0.0
C34 C 0.5718 0.85093 -0.00193 0.0
O35 O 0.57661 0.87001 0.00349 0.0
C36 C 0.52379 0.85792 0.96062 0.0
O37 O 0.53906 0.86935 0.98656 0.0
O38 O 0.57516 0.88472 0.9153 0.0
C39 C 0.71951 0.54759 0.19606 0.0
O40 O 0.72176 0.53987 0.23236 0.0
O41 O 0.66756 0.52359 0.2562 0.0
Zn42 Zn 0.69142 0.55206 0.24935 0.0
O43 O 0.70999 0.55855 0.30067 0.0
C44 C 0.68909 0.58831 0.26796 0.0
O45 O 0.70643 0.59415 0.28805 0.0
O46 O 0.707 0.55412 0.19492 0.0
C47 C 0.70307 0.55552 0.33909 0.0
O48 O 0.68348 0.54824 0.3452 0.0
C49 C 0.66933 0.50925 0.27307 0.0
O50 O 0.68741 0.5128 0.28535 0.0
O51 O 0.68046 0.57135 0.24801 0.0
C52 C 0.16934 0.71338 0.51503 0.0
O53 O 0.17936 0.70947 0.54469 0.0
O54 O 0.14542 0.67338 0.59189 0.0
Zn55 Zn 0.14029 0.69672 0.58135 0.0
O56 O 0.15587 0.71886 0.62532 0.0
C57 C 0.10151 0.67663 0.62121 0.0
O58 O 0.11268 0.67487 0.6516 0.0
O59 O 0.15104 0.70871 0.52264 0.0
C60 C 0.14826 0.72664 0.65028 0.0
O61 O 0.12873 0.72048 0.64808 0.0
C62 C 0.15211 0.67107 0.62802 0.0
O63 O 0.15619 0.68443 0.6591 0.0
O64 O 0.11006 0.68591 0.58634 0.0
C65 C 0.45493 0.17165 0.85127 0.0
O66 O 0.47023 0.18127 0.87836 0.0
O67 O 0.47039 0.14722 0.92788 0.0
Zn68 Zn 0.44242 0.14358 0.91995 0.0
O69 O 0.43878 0.16051 0.96503 0.0
C70 C 0.41353 0.10632 0.96326 0.0
O71 O 0.41749 0.11858 0.9965 0.0
O72 O 0.44043 0.15411 0.86153 0.0
C73 C 0.42216 0.16031 0.97169 0.0
O74 O 0.40599 0.14817 0.9486 0.0
C75 C 0.4755 0.14442 0.96539 0.0
O76 O 0.46239 0.13921 -0.00264 0.0
O77 O 0.4219 0.11371 0.92693 0.0
C78 C 0.53391 0.69876 0.49634 0.0
O79 O 0.51738 0.68113 0.48933 0.0
O80 O 0.51617 0.66924 0.4006 0.0
Zn81 Zn 0.54457 0.69295 0.40923 0.0
O82 O 0.55011 0.71396 0.3636 0.0
C83 C 0.56261 0.67363 0.36561 0.0
O84 O 0.54832 0.67123 0.3381 0.0
O85 O 0.54766 0.70618 0.4674 0.0
C86 C 0.56767 0.72503 0.34721 0.0
O87 O 0.58297 0.72292 0.3605 0.0
C88 C 0.50234 0.67131 0.38205 0.0
O89 O 0.50641 0.68953 0.36953 0.0
O90 O 0.56431 0.68284 0.40117 0.0
C91 C 0.82415 0.53731 0.81791 0.0
O92 O 0.81495 0.52022 0.79575 0.0
O93 O 0.8469 0.52085 0.73906 0.0
Zn94 Zn 0.84988 0.54875 0.74437 0.0
O95 O 0.83204 0.55141 0.69996 0.0
C96 C 0.88624 0.57344 0.69597 0.0
O97 O 0.8738 0.56415 0.66343 0.0
O98 O 0.84038 0.55218 0.80284 0.0
C99 C 0.83392 0.56829 0.68801 0.0
O100 O 0.84838 0.58532 0.70503 0.0
C101 C 0.84145 0.51133 0.70317 0.0
O102 O 0.8377 0.51983 0.67002 0.0
O103 O 0.8793 0.56964 0.73444 0.0
C104 C 0.28118 0.8218 0.1364 0.0
O105 O 0.28496 0.81174 0.10661 0.0
O106 O 0.32621 0.84828 0.06914 0.0
Zn107 Zn 0.30213 0.85262 0.07464 0.0
O108 O 0.28231 0.83848 0.02571 0.0
C109 C 0.32421 0.89198 0.03942 0.0
O110 O 0.32819 0.8814 0.01134 0.0
O111 O 0.28752 0.84063 0.13057 0.0
C112 C 0.27524 0.8471 0.00164 0.0
O113 O 0.28063 0.86623 0.00856 0.0
C114 C 0.32815 0.83837 0.03803 0.0
O115 O 0.3136 0.82984 0.00891 0.0
O116 O 0.31281 0.88282 0.07163 0.0
C117 C 0.45254 0.27899 0.46934 0.0
O118 O 0.46368 0.27995 0.43585 0.0
O119 O 0.47273 0.32557 0.40253 0.0
Zn120 Zn 0.44379 0.30285 0.41221 0.0
O121 O 0.43486 0.28306 0.36261 0.0
C122 C 0.43066 0.33161 0.39597 0.0
O123 O 0.44871 0.34141 0.37774 0.0
O124 O 0.4422 0.28796 0.46734 0.0
C125 C 0.43579 0.28921 0.32391 0.0
O126 O 0.44267 0.30865 0.31675 0.0
C127 C 0.48551 0.32402 0.37852 0.0
O128 O 0.48031 0.30649 0.35993 0.0
O129 O 0.42511 0.31461 0.41433 0.0
C130 C 0.17325 0.45657 0.80459 0.0
O131 O 0.18285 0.46947 0.77296 0.0
O132 O 0.14605 0.47457 0.73797 0.0
Zn133 Zn 0.14206 0.44636 0.74465 0.0
O134 O 0.15714 0.44152 0.69705 0.0
C135 C 0.10446 0.42018 0.70238 0.0
O136 O 0.11642 0.42752 0.66845 0.0
O137 O 0.15421 0.44436 0.80097 0.0
C138 C 0.15491 0.42403 0.68978 0.0
O139 O 0.14245 0.40858 0.71421 0.0
C140 C 0.14738 0.4819 0.70025 0.0
O141 O 0.14632 0.47094 0.6663 0.0
O142 O 0.11204 0.42585 0.74008 0.0
C143 C 0.7151 0.17019 0.14368 0.0
O144 O 0.71265 0.18187 0.11569 0.0
O145 O 0.67029 0.14777 0.07281 0.0
Zn146 Zn 0.69382 0.14248 0.07705 0.0
O147 O 0.71444 0.15832 0.03114 0.0
C148 C 0.67766 0.10723 0.02632 0.0
O149 O 0.67987 0.12104 -0.00223 0.0
O150 O 0.70762 0.1514 0.13494 0.0
C151 C 0.72922 0.15541 0.0232 0.0
O152 O 0.73148 0.14221 0.04664 0.0
C153 C 0.66795 0.1563 0.03954 0.0
O154 O 0.68154 0.16248 0.00836 0.0
O155 O 0.68294 0.11269 0.06541 0.0
H156 H 0.32441 0.40418 0.2509 0.0
H157 H 0.34144 0.38539 0.27255 0.0
H158 H 0.33227 0.39401 0.40721 0.0
H159 H 0.3157 0.4132 0.3859 0.0
H160 H 0.37102 0.40489 0.39126 0.0
H161 H 0.32058 0.32871 0.32032 0.0
H162 H 0.32855 0.34872 0.28103 0.0
H163 H 0.31288 0.34761 0.32596 0.0
C164 C 0.32577 0.40182 0.2851 0.0
C165 C 0.31881 0.41025 0.31669 0.0
C166 C 0.33537 0.39095 0.29743 0.0
C167 C 0.33788 0.38807 0.3415 0.0
C168 C 0.33043 0.396 0.37303 0.0
H169 H 0.39149 0.31462 0.42629 0.0
H170 H 0.36809 0.32788 0.41767 0.0
C171 C 0.32099 0.40699 0.36077 0.0
C172 C 0.34984 0.3784 0.35479 0.0
H173 H 0.35421 0.3361 0.34065 0.0
C174 C 0.36719 0.38975 0.38062 0.0
C175 C 0.34467 0.35852 0.34146 0.0
C176 C 0.32553 0.3451 0.31605 0.0
C177 C 0.37997 0.38209 0.39206 0.0
C178 C 0.37551 0.36276 0.37644 0.0
C179 C 0.35771 0.35103 0.35215 0.0
C180 C 0.38971 0.35497 0.38302 0.0
C181 C 0.39819 0.39484 0.42059 0.0
C182 C 0.40951 0.36577 0.36615 0.0
C183 C 0.42288 0.35832 0.3711 0.0
C184 C 0.41664 0.3398 0.39273 0.0
C185 C 0.39677 0.32897 0.40964 0.0
C186 C 0.38338 0.33648 0.40467 0.0
H187 H 0.396 0.40586 0.44029 0.0
H188 H 0.40124 0.38514 0.44279 0.0
H189 H 0.41182 0.40366 0.39991 0.0
H190 H 0.41454 0.37985 0.34854 0.0
H191 H 0.43802 0.36697 0.35744 0.0
H192 H 0.91014 0.33045 0.70514 0.0
H193 H 0.94682 0.34591 0.71679 0.0
H194 H 0.95465 0.3342 0.58341 0.0
H195 H 0.91792 0.31875 0.57125 0.0
H196 H 0.97312 0.3287 0.7024 0.0
H197 H 0.99291 0.39672 0.60066 0.0
H198 H 0.96746 0.38015 0.6207 0.0
H199 H 0.97691 0.3724 0.5755 0.0
C200 C 0.91963 0.33111 0.67825 0.0
C201 C 0.91115 0.32352 0.63715 0.0
C202 C 0.94056 0.33989 0.68505 0.0
C203 C 0.95338 0.34136 0.65085 0.0
C204 C 0.94497 0.33341 0.61004 0.0
H205 H 0.08464 0.40276 0.62696 0.0
H206 H 0.04798 0.38189 0.61535 0.0
C207 C 0.924 0.32455 0.60321 0.0
C208 C 0.97563 0.35168 0.65779 0.0
H209 H 0.02021 0.39407 0.6299 0.0
C210 C 0.98348 0.34298 0.68657 0.0
C211 C 0.98898 0.37029 0.63707 0.0
C212 C 0.98122 0.3806 0.60698 0.0
C213 C 0.00447 0.35235 0.69481 0.0
C214 C 0.01782 0.37107 0.67437 0.0
C215 C 0.00993 0.37969 0.64545 0.0
C216 C 0.04004 0.38221 0.68259 0.0
C217 C 0.01219 0.34195 0.7247 0.0
C218 C 0.04774 0.38923 0.72437 0.0
C219 C 0.06875 0.40112 0.73121 0.0
C220 C 0.08235 0.40638 0.69623 0.0
C221 C 0.07457 0.39904 0.65459 0.0
C222 C 0.05362 0.38709 0.64785 0.0
H223 H 0.00105 0.32542 0.72787 0.0
H224 H 0.02688 0.34383 0.71297 0.0
H225 H 0.01472 0.34888 0.75745 0.0
H226 H 0.0375 0.386 0.75148 0.0
H227 H 0.07427 0.40663 0.76362 0.0
H228 H 0.56232 0.92763 0.87944 0.0
H229 H 0.58269 0.96372 0.89834 0.0
H230 H 0.6278 0.95277 0.95783 0.0
H231 H 0.60764 0.91668 0.93885 0.0
H232 H 0.59336 0.97849 0.98429 0.0
H233 H 0.66161 0.00317 0.88037 0.0
H234 H 0.63778 0.98004 0.87034 0.0
H235 H 0.6545 0.98083 0.91253 0.0
C236 C 0.57671 0.93293 0.89597 0.0
C237 C 0.58335 0.91928 0.90766 0.0
C238 C 0.5883 0.95354 0.90681 0.0
C239 C 0.60679 0.96089 0.92917 0.0
C240 C 0.61372 0.94743 0.93997 0.0
H241 H 0.66814 0.07406 0.07755 0.0
H242 H 0.65165 0.03828 0.05496 0.0
C243 C 0.60213 0.9268 0.92923 0.0
C244 C 0.61813 0.98236 0.94364 0.0
H245 H 0.66325 0.02687 0.93277 0.0
C246 C 0.60864 0.98909 0.97304 0.0
C247 C 0.63799 0.99611 0.92868 0.0
C248 C 0.64857 0.9898 0.89595 0.0
C249 C 0.61854 0.00926 0.98806 0.0
C250 C 0.63853 0.02293 0.97366 0.0
C251 C 0.64799 0.01624 0.94406 0.0
C252 C 0.64945 0.04452 0.98731 0.0
C253 C 0.60737 0.0159 0.01846 0.0
C254 C 0.6541 0.05983 0.95655 0.0
C255 C 0.66351 0.08021 0.96927 0.0
C256 C 0.66855 0.08567 0.01302 0.0
C257 C 0.66435 0.07033 0.04366 0.0
C258 C 0.65488 0.0499 0.03086 0.0
H259 H 0.59075 0.0048 0.01925 0.0
H260 H 0.61346 0.01727 0.05178 0.0
H261 H 0.60967 0.03103 0.00885 0.0
H262 H 0.65007 0.05595 0.92277 0.0
H263 H 0.66662 0.09164 0.9448 0.0
H264 H 0.65525 0.58274 0.2246 0.0
H265 H 0.63571 0.59984 0.23795 0.0
H266 H 0.67873 0.63681 0.33677 0.0
H267 H 0.69865 0.62017 0.32285 0.0
H268 H 0.61721 0.59868 0.31336 0.0
H269 H 0.67192 0.67906 0.27107 0.0
H270 H 0.67584 0.65831 0.25561 0.0
H271 H 0.68184 0.66855 0.30971 0.0
C272 C 0.66075 0.59476 0.24865 0.0
C273 C 0.67849 0.60009 0.27269 0.0
C274 C 0.64956 0.6045 0.25626 0.0
C275 C 0.65586 0.61974 0.28804 0.0
C276 C 0.67383 0.62544 0.31139 0.0
H277 H 0.59602 0.67906 0.41116 0.0
H278 H 0.619 0.66622 0.39242 0.0
C279 C 0.68514 0.61582 0.30355 0.0
C280 C 0.64271 0.62838 0.29919 0.0
H281 H 0.64193 0.67286 0.30902 0.0
C282 C 0.62259 0.61489 0.31209 0.0
C283 C 0.6498 0.64955 0.29778 0.0
C284 C 0.67097 0.6647 0.2824 0.0
C285 C 0.60941 0.62199 0.324 0.0
C286 C 0.61651 0.64311 0.32271 0.0
C287 C 0.63663 0.65666 0.31007 0.0
C288 C 0.603 0.65129 0.33348 0.0
C289 C 0.58804 0.60688 0.33842 0.0
C290 C 0.58661 0.64728 0.30622 0.0
C291 C 0.57353 0.65458 0.31672 0.0
C292 C 0.5766 0.66602 0.35473 0.0
C293 C 0.59319 0.6702 0.38179 0.0
C294 C 0.60635 0.66295 0.3711 0.0
H295 H 0.58627 0.59176 0.34605 0.0
H296 H 0.5838 0.6126 0.36748 0.0
H297 H 0.57719 0.60482 0.31206 0.0
H298 H 0.58395 0.63846 0.27682 0.0
H299 H 0.56095 0.65116 0.29509 0.0
H300 H 0.90559 0.58622 0.6179 0.0
H301 H 0.94233 0.6061 0.60478 0.0
H302 H 0.95347 0.61081 0.74253 0.0
H303 H 0.91678 0.591 0.75613 0.0
H304 H 0.97362 0.64745 0.64203 0.0
H305 H 0.98414 0.58216 0.68667 0.0
H306 H 0.95972 0.57885 0.67087 0.0
H307 H 0.96979 0.58841 0.72382 0.0
C308 C 0.91583 0.59163 0.64545 0.0
C309 C 0.90828 0.58689 0.68806 0.0
C310 C 0.93678 0.60301 0.63785 0.0
C311 C 0.9505 0.6097 0.67269 0.0
C312 C 0.94304 0.6056 0.71527 0.0
H313 H 0.08046 0.66196 0.69655 0.0
H314 H 0.04393 0.64714 0.7082 0.0
C315 C 0.9221 0.59432 0.72293 0.0
C316 C 0.97264 0.62012 0.66453 0.0
H317 H 0.01373 0.61334 0.67109 0.0
C318 C 0.98246 0.64006 0.64826 0.0
C319 C 0.98397 0.61032 0.67274 0.0
C320 C 0.97394 0.5887 0.68922 0.0
C321 C 0.00357 0.6507 0.64083 0.0
C322 C 0.01495 0.64087 0.64896 0.0
C323 C 0.005 0.62085 0.66495 0.0
C324 C 0.03724 0.65105 0.64183 0.0
C325 C 0.01356 0.6725 0.62551 0.0
C326 C 0.04563 0.65817 0.60058 0.0
C327 C 0.0666 0.66682 0.59386 0.0
C328 C 0.07945 0.66819 0.62817 0.0
C329 C 0.07098 0.66107 0.6694 0.0
C330 C 0.05009 0.65261 0.67615 0.0
H331 H 0.00395 0.67942 0.63243 0.0
H332 H 0.02865 0.68194 0.64112 0.0
H333 H 0.01585 0.67293 0.58991 0.0
H334 H 0.03593 0.65667 0.57338 0.0
H335 H 0.07266 0.67206 0.56167 0.0
H336 H 0.32097 0.91907 0.09302 0.0
H337 H 0.33427 0.95546 0.08035 0.0
H338 H 0.35813 0.95075 0.95667 0.0
H339 H 0.34533 0.91458 0.96939 0.0
H340 H 0.38591 0.98306 0.00456 0.0
H341 H 0.31226 0.98218 -0.00096 0.0
H342 H 0.3161 0.97136 0.04742 0.0
H343 H 0.31381 0.95922 0.99598 0.0
C344 C 0.329 0.92578 0.06307 0.0
C345 C 0.33208 0.91395 0.03219 0.0
C346 C 0.33644 0.94653 0.05575 0.0
C347 C 0.34688 0.95571 0.01724 0.0
C348 C 0.35003 0.94393 0.9865 0.0
H349 H 0.40669 0.07646 0.90461 0.0
H350 H 0.38944 0.03972 0.91752 0.0
C351 C 0.3427 0.92326 0.99387 0.0
C352 C 0.3553 0.97776 0.00949 0.0
H353 H 0.34235 0.01468 -0.0017 0.0
C354 C 0.37637 0.98995 0.00302 0.0
C355 C 0.3428 0.98669 0.00758 0.0
C356 C 0.31996 0.97418 0.01247 0.0
C357 C 0.38533 0.01089 0.995 0.0
C358 C 0.37284 0.01979 0.99299 0.0
C359 C 0.35181 0.0077 -0.00019 0.0
C360 C 0.38155 0.04173 0.984 0.0
C361 C 0.40813 0.02341 0.98928 0.0
C362 C 0.38218 0.05485 0.01675 0.0
C363 C 0.39203 0.07585 0.00955 0.0
C364 C 0.40128 0.08401 0.96934 0.0
C365 C 0.3998 0.07068 0.93599 0.0
C366 C 0.39002 0.0497 0.94331 0.0
H367 H 0.41593 0.01511 0.00029 0.0
H368 H 0.41167 0.02716 0.95444 0.0
H369 H 0.41443 0.03796 0.00754 0.0
H370 H 0.37563 0.0489 0.0483 0.0
H371 H 0.39281 0.08569 0.03583 0.0
H372 H 0.15891 0.43 0.87313 0.0
H373 H 0.1785 0.42843 0.93481 0.0
H374 H 0.23302 0.47946 0.88321 0.0
H375 H 0.21366 0.48128 0.82185 0.0
H376 H 0.21315 0.423 0.9318 0.0
H377 H 0.23112 0.49622 0.00944 0.0
H378 H 0.21121 0.48377 0.96945 0.0
H379 H 0.2374 0.49823 0.95283 0.0
C380 C 0.17504 0.44098 0.8751 0.0
C381 C 0.18472 0.45583 0.8427 0.0
C382 C 0.1862 0.44003 0.91026 0.0
C383 C 0.20713 0.45399 0.91374 0.0
C384 C 0.21681 0.46878 0.88147 0.0
H385 H 0.30395 0.47667 0.09289 0.0
H386 H 0.28353 0.47585 0.03068 0.0
C387 C 0.20571 0.46973 0.84633 0.0
C388 C 0.21906 0.45284 0.95048 0.0
H389 H 0.24889 0.48006 0.03596 0.0
C390 C 0.22086 0.43539 0.95481 0.0
C391 C 0.22911 0.46907 0.98026 0.0
C392 C 0.22701 0.48782 0.97814 0.0
C393 C 0.23291 0.43394 0.98764 0.0
C394 C 0.24311 0.45027 0.01719 0.0
C395 C 0.24115 0.46763 0.01304 0.0
C396 C 0.25573 0.44963 0.0531 0.0
C397 C 0.23504 0.41521 0.98981 0.0
C398 C 0.24686 0.43507 0.08612 0.0
C399 C 0.25848 0.43547 0.12167 0.0
C400 C 0.27916 0.45054 0.12497 0.0
C401 C 0.28809 0.46485 0.09134 0.0
C402 C 0.27644 0.46443 0.05581 0.0
H403 H 0.23063 0.40663 0.95874 0.0
H404 H 0.25092 0.41933 -0.00215 0.0
H405 H 0.2249 0.40496 0.01561 0.0
H406 H 0.23081 0.42374 0.08502 0.0
H407 H 0.25111 0.42427 0.14708 0.0
H408 H 0.82408 0.22796 0.49412 0.0
H409 H 0.8047 0.21085 0.42879 0.0
H410 H 0.80516 0.26574 0.39037 0.0
H411 H 0.82465 0.28305 0.45535 0.0
H412 H 0.76599 0.2053 0.40641 0.0
H413 H 0.82391 0.24891 0.28041 0.0
H414 H 0.83041 0.24906 0.33681 0.0
H415 H 0.81993 0.26444 0.31872 0.0
C416 C 0.82027 0.23648 0.47154 0.0
C417 C 0.82593 0.25688 0.47991 0.0
C418 C 0.80917 0.22666 0.4343 0.0
C419 C 0.80371 0.2371 0.40461 0.0
C420 C 0.80954 0.25753 0.41254 0.0
H421 H 0.73172 0.20936 0.17235 0.0
H422 H 0.75279 0.22454 0.23664 0.0
C423 C 0.8206 0.26736 0.4498 0.0
C424 C 0.79099 0.22637 0.36646 0.0
H425 H 0.78994 0.22735 0.25591 0.0
C426 C 0.77125 0.20997 0.37346 0.0
C427 C 0.79793 0.23257 0.32362 0.0
C428 C 0.81927 0.24959 0.31426 0.0
C429 C 0.758 0.19997 0.33867 0.0
C430 C 0.76487 0.20633 0.29582 0.0
C431 C 0.78472 0.22255 0.28884 0.0
C432 C 0.75156 0.19673 0.25771 0.0
C433 C 0.73659 0.18314 0.34816 0.0
C434 C 0.74391 0.17605 0.24822 0.0
C435 C 0.73175 0.16727 0.21155 0.0
C436 C 0.7272 0.1791 0.18355 0.0
C437 C 0.7349 0.19981 0.19324 0.0
C438 C 0.74699 0.20853 0.22992 0.0
H439 H 0.73222 0.1835 0.38239 0.0
H440 H 0.72544 0.18422 0.32656 0.0
H441 H 0.73554 0.1682 0.34235 0.0
H442 H 0.74759 0.16677 0.26882 0.0
H443 H 0.72618 0.15132 0.20482 0.0
H444 H 0.51323 0.78299 0.83853 0.0
H445 H 0.51282 0.76225 0.77743 0.0
H446 H 0.56814 0.81312 0.72824 0.0
H447 H 0.56877 0.83405 0.78942 0.0
H448 H 0.51277 0.77065 0.68605 0.0
H449 H 0.5804 0.76538 0.73672 0.0
H450 H 0.56675 0.77278 0.77361 0.0
H451 H 0.58389 0.79063 0.73442 0.0
C452 C 0.52532 0.78981 0.81474 0.0
C453 C 0.54109 0.81015 0.81892 0.0
C454 C 0.52504 0.77793 0.77987 0.0
C455 C 0.54059 0.7861 0.74878 0.0
C456 C 0.55619 0.80648 0.75237 0.0
H457 H 0.56494 0.73671 0.51797 0.0
H458 H 0.56648 0.75766 0.57968 0.0
C459 C 0.55644 0.81843 0.78717 0.0
C460 C 0.54028 0.77328 0.71234 0.0
H461 H 0.56568 0.75092 0.66891 0.0
C462 C 0.52429 0.76628 0.68227 0.0
C463 C 0.55538 0.7677 0.70765 0.0
C464 C 0.57253 0.77434 0.73992 0.0
C465 C 0.52313 0.754 0.64711 0.0
C466 C 0.53813 0.74824 0.6426 0.0
C467 C 0.55418 0.75532 0.67261 0.0
C468 C 0.53754 0.73505 0.60657 0.0
C469 C 0.50611 0.74768 0.61461 0.0
C470 C 0.521 0.7152 0.60195 0.0
C471 C 0.52004 0.70318 0.56667 0.0
C472 C 0.53569 0.71077 0.53558 0.0
C473 C 0.55259 0.73041 0.54123 0.0
C474 C 0.55351 0.74242 0.57647 0.0
H475 H 0.49916 0.75754 0.61644 0.0
H476 H 0.51167 0.74825 0.58105 0.0
H477 H 0.49401 0.7318 0.62145 0.0
H478 H 0.50873 0.70907 0.62541 0.0
H479 H 0.50687 0.68807 0.56344 0.0
H480 H 0.74362 0.5307 0.18565 0.0
H481 H 0.76268 0.53151 0.12128 0.0
H482 H 0.74156 0.56742 0.05432 0.0
H483 H 0.72196 0.56626 0.11843 0.0
H484 H 0.73795 0.53655 0.00487 0.0
H485 H 0.81547 0.57768 0.07532 0.0
H486 H 0.79867 0.55544 0.10605 0.0
H487 H 0.79365 0.57622 0.10225 0.0
C488 C 0.74311 0.53889 0.15735 0.0
C489 C 0.73133 0.54848 0.15719 0.0
C490 C 0.75415 0.53946 0.12067 0.0
C491 C 0.75389 0.54989 0.08333 0.0
C492 C 0.74209 0.55943 0.08296 0.0
H493 H 0.83501 0.57229 0.86344 0.0
H494 H 0.81799 0.57621 0.92705 0.0
C495 C 0.7309 0.55874 0.11958 0.0
C496 C 0.76514 0.54994 0.04402 0.0
H497 H 0.81196 0.56039 0.00801 0.0
C498 C 0.75417 0.54195 0.00543 0.0
C499 C 0.78637 0.55728 0.04461 0.0
C500 C 0.79926 0.56734 0.08417 0.0
C501 C 0.76371 0.54048 0.96777 0.0
C502 C 0.78469 0.54669 0.96911 0.0
C503 C 0.79581 0.55533 0.00725 0.0
C504 C 0.79531 0.54421 0.93133 0.0
C505 C 0.75124 0.53245 0.92686 0.0
C506 C 0.78852 0.52486 0.91334 0.0
C507 C 0.7981 0.52259 0.87687 0.0
C508 C 0.81487 0.5396 0.8581 0.0
C509 C 0.82211 0.55888 0.87712 0.0
C510 C 0.8124 0.56116 0.91342 0.0
H511 H 0.73761 0.53431 0.92756 0.0
H512 H 0.7604 0.54032 0.89771 0.0
H513 H 0.74585 0.51593 0.92377 0.0
H514 H 0.77573 0.51149 0.92741 0.0
H515 H 0.79229 0.5075 0.86328 0.0
H516 H 0.2072 0.7228 0.48727 0.0
H517 H 0.225 0.74175 0.42237 0.0
H518 H 0.17306 0.74744 0.38683 0.0
H519 H 0.1549 0.7281 0.45144 0.0
H520 H 0.18898 0.73704 0.31778 0.0
H521 H 0.25018 0.80294 0.4063 0.0
H522 H 0.2478 0.77908 0.42222 0.0
H523 H 0.22722 0.78388 0.43253 0.0
C524 C 0.19952 0.72805 0.46567 0.0
C525 C 0.17968 0.72407 0.47467 0.0
C526 C 0.20978 0.739 0.42874 0.0
C527 C 0.20052 0.74638 0.40034 0.0
C528 C 0.18053 0.74201 0.40858 0.0
H529 H 0.26746 0.83699 0.20036 0.0
H530 H 0.24681 0.81883 0.26356 0.0
C531 C 0.17019 0.73096 0.44547 0.0
C532 C 0.21167 0.75846 0.3618 0.0
H533 H 0.25553 0.80097 0.33061 0.0
C534 C 0.20346 0.7511 0.32054 0.0
C535 C 0.23038 0.77697 0.36555 0.0
C536 C 0.23933 0.78631 0.40904 0.0
C537 C 0.21379 0.76145 0.28281 0.0
C538 C 0.23301 0.77939 0.28655 0.0
C539 C 0.24091 0.78708 0.32783 0.0
C540 C 0.24532 0.79028 0.24805 0.0
C541 C 0.20393 0.75315 0.23936 0.0
C542 C 0.2516 0.78033 0.21882 0.0
C543 C 0.26331 0.79062 0.18265 0.0
C544 C 0.26917 0.81113 0.1753 0.0
C545 C 0.26318 0.82118 0.20508 0.0
C546 C 0.25137 0.81084 0.24117 0.0
H547 H 0.18716 0.74323 0.24237 0.0
H548 H 0.20716 0.76565 0.21628 0.0
H549 H 0.21009 0.74381 0.22553 0.0
H550 H 0.24755 0.76463 0.22412 0.0
H551 H 0.26781 0.78248 0.16053 0.0
H552 H 0.42328 0.1588 0.79378 0.0
H553 H 0.42199 0.17627 0.72819 0.0
H554 H 0.48383 0.22417 0.7508 0.0
H555 H 0.48511 0.20709 0.81682 0.0
H556 H 0.4587 0.23903 0.73223 0.0
H557 H 0.44839 0.18033 0.61141 0.0
H558 H 0.42961 0.17095 0.65368 0.0
H559 H 0.45585 0.17983 0.66677 0.0
C560 C 0.43666 0.17297 0.78459 0.0
C561 C 0.45432 0.18155 0.81045 0.0
C562 C 0.43592 0.18288 0.74698 0.0
C563 C 0.4529 0.20138 0.73432 0.0
C564 C 0.47057 0.20989 0.75995 0.0
H565 H 0.47603 0.26194 0.48667 0.0
H566 H 0.4756 0.2433 0.55158 0.0
C567 C 0.47127 0.20008 0.79764 0.0
C568 C 0.45213 0.21232 0.69523 0.0
H569 H 0.44506 0.20801 0.58558 0.0
C570 C 0.45574 0.23227 0.70013 0.0
C571 C 0.44848 0.20353 0.65338 0.0
C572 C 0.44555 0.18256 0.64578 0.0
C573 C 0.45578 0.24368 0.66432 0.0
C574 C 0.45162 0.23471 0.62261 0.0
C575 C 0.44805 0.21478 0.61768 0.0
C576 C 0.45163 0.246 0.5834 0.0
C577 C 0.46082 0.26542 0.67138 0.0
C578 C 0.43816 0.25354 0.57959 0.0
C579 C 0.43848 0.26438 0.54263 0.0
C580 C 0.45212 0.26761 0.50861 0.0
C581 C 0.46536 0.25974 0.51229 0.0
C582 C 0.46512 0.24905 0.54933 0.0
H583 H 0.46881 0.27158 0.70271 0.0
H584 H 0.47054 0.27544 0.6448 0.0
H585 H 0.44649 0.26601 0.67198 0.0
H586 H 0.42732 0.25096 0.60509 0.0
H587 H 0.42796 0.27008 0.5406 0.0
H588 H 0.14948 0.38807 0.65681 0.0
H589 H 0.16661 0.38358 0.59383 0.0
H590 H 0.20119 0.44871 0.5764 0.0
H591 H 0.18427 0.45339 0.63893 0.0
H592 H 0.16734 0.39873 0.50596 0.0
H593 H 0.24428 0.42988 0.57831 0.0
H594 H 0.22153 0.42091 0.61071 0.0
H595 H 0.23312 0.44569 0.58602 0.0
C596 C 0.16084 0.40143 0.63973 0.0
C597 C 0.16558 0.42109 0.65289 0.0
C598 C 0.17055 0.39882 0.6038 0.0
C599 C 0.18528 0.41583 0.58097 0.0
C600 C 0.19006 0.43543 0.59409 0.0
H601 H 0.26139 0.45218 0.36002 0.0
H602 H 0.24147 0.44799 0.42521 0.0
C603 C 0.18031 0.43805 0.62972 0.0
C604 C 0.19532 0.41333 0.54238 0.0
H605 H 0.24218 0.42725 0.50108 0.0
C606 C 0.18365 0.40463 0.5049 0.0
C607 C 0.21656 0.42104 0.54142 0.0
C608 C 0.22962 0.42975 0.58137 0.0
C609 C 0.19291 0.40447 0.46561 0.0
C610 C 0.21428 0.41296 0.46426 0.0
C611 C 0.2258 0.42087 0.50225 0.0
C612 C 0.22527 0.41505 0.42334 0.0
C613 C 0.17994 0.39613 0.42544 0.0
C614 C 0.22261 0.39786 0.4006 0.0
C615 C 0.23395 0.40019 0.36313 0.0
C616 C 0.24821 0.41975 0.3481 0.0
C617 C 0.25056 0.4369 0.37072 0.0
C618 C 0.23922 0.43455 0.40801 0.0
H619 H 0.16431 0.39357 0.43032 0.0
H620 H 0.18705 0.40669 0.39768 0.0
H621 H 0.17868 0.38135 0.41672 0.0
H622 H 0.21211 0.38268 0.41234 0.0
H623 H 0.23186 0.38669 0.34653 0.0
H624 H 0.85369 0.24129 0.69848 0.0
H625 H 0.83552 0.21926 0.76015 0.0
H626 H 0.78907 0.23596 0.74888 0.0
H627 H 0.80688 0.25775 0.68722 0.0
H628 H 0.82595 0.23122 0.83866 0.0
H629 H 0.75612 0.17372 0.75432 0.0
H630 H 0.77922 0.19091 0.72571 0.0
H631 H 0.76205 0.19936 0.74336 0.0
C632 C 0.8395 0.2401 0.70887 0.0
C633 C 0.83169 0.25121 0.68787 0.0
C634 C 0.82917 0.22754 0.74409 0.0
C635 C 0.81082 0.22576 0.75855 0.0
C636 C 0.80298 0.23678 0.73758 0.0
H637 H 0.72689 0.18164 0.9662 0.0
H638 H 0.74818 0.1976 0.90275 0.0
C639 C 0.81326 0.24933 0.70249 0.0
C640 C 0.80026 0.21329 0.79698 0.0
H641 H 0.75392 0.1755 0.83171 0.0
C642 C 0.81032 0.21879 0.83715 0.0
C643 C 0.77992 0.19706 0.79472 0.0
C644 C 0.76875 0.18976 0.75213 0.0
C645 C 0.80014 0.20919 0.87559 0.0
C646 C 0.77951 0.19362 0.87346 0.0
C647 C 0.76973 0.18756 0.83311 0.0
C648 C 0.76733 0.18435 0.91289 0.0
C649 C 0.81115 0.21636 0.91835 0.0
C650 C 0.77115 0.17165 0.93957 0.0
C651 C 0.75898 0.16246 0.97598 0.0
C652 C 0.74281 0.16582 0.98609 0.0
C653 C 0.73923 0.17874 0.95941 0.0
C654 C 0.75134 0.18785 0.92308 0.0
H655 H 0.82612 0.23054 0.91491 0.0
H656 H 0.80174 0.21913 0.94193 0.0
H657 H 0.8138 0.20434 0.932 0.0
H658 H 0.78332 0.16862 0.93185 0.0
H659 H 0.76208 0.15254 0.99583 0.0
H660 H 0.57903 0.86112 0.08376 0.0
H661 H 0.58192 0.84097 0.14225 0.0
H662 H 0.57643 0.79592 0.04928 0.0
H663 H 0.5727 0.81559 0.99092 0.0
H664 H 0.55128 0.77848 0.1135 0.0
H665 H 0.62696 0.83203 0.18249 0.0
H666 H 0.61074 0.84292 0.18105 0.0
H667 H 0.61851 0.8365 0.13108 0.0
C668 C 0.57873 0.84706 0.07575 0.0
C669 C 0.57557 0.83987 0.03284 0.0
C670 C 0.58055 0.83563 0.10917 0.0
C671 C 0.57971 0.81708 0.1001 0.0
C672 C 0.57717 0.81022 0.05703 0.0
H673 H 0.60024 0.74476 0.29263 0.0
H674 H 0.60382 0.76715 0.23196 0.0
C675 C 0.57503 0.82146 0.02373 0.0
C676 C 0.57959 0.8039 0.13572 0.0
H677 H 0.60483 0.80337 0.22699 0.0
C678 C 0.56312 0.78388 0.13803 0.0
C679 C 0.59515 0.81085 0.16745 0.0
C680 C 0.61394 0.83168 0.16517 0.0
C681 C 0.56153 0.77077 0.17166 0.0
C682 C 0.57645 0.77809 0.20477 0.0
C683 C 0.59323 0.79791 0.20192 0.0
C684 C 0.57477 0.76538 0.24268 0.0
C685 C 0.54396 0.74911 0.17102 0.0
C686 C 0.5575 0.7574 0.26939 0.0
C687 C 0.5553 0.74445 0.30362 0.0
C688 C 0.57054 0.73954 0.31231 0.0
C689 C 0.58822 0.74822 0.28664 0.0
C690 C 0.5903 0.76101 0.25202 0.0
H691 H 0.53785 0.74425 0.13769 0.0
H692 H 0.54858 0.73835 0.18386 0.0
H693 H 0.53144 0.74805 0.19152 0.0
H694 H 0.5456 0.76105 0.26349 0.0
H695 H 0.54162 0.73822 0.32319 0.0
H696 H 0.74452 0.57342 0.33778 0.0
H697 H 0.76711 0.57791 0.39849 0.0
H698 H 0.71549 0.55039 0.48482 0.0
H699 H 0.69276 0.54618 0.42438 0.0
H700 H 0.74916 0.58475 0.51996 0.0
H701 H 0.77069 0.53042 0.45141 0.0
H702 H 0.7753 0.55097 0.41564 0.0
H703 H 0.74962 0.53263 0.43074 0.0
C704 C 0.73796 0.56839 0.3697 0.0
C705 C 0.71682 0.55926 0.37623 0.0
C706 C 0.75089 0.57091 0.4043 0.0
C707 C 0.74291 0.56414 0.4459 0.0
C708 C 0.72191 0.55562 0.45285 0.0
H709 H 0.80012 0.53574 0.65402 0.0
H710 H 0.7779 0.53582 0.59694 0.0
C711 C 0.70896 0.5532 0.41829 0.0
C712 C 0.75637 0.56538 0.48191 0.0
H713 H 0.78854 0.54867 0.51405 0.0
C714 C 0.75779 0.57687 0.51879 0.0
C715 C 0.76735 0.55485 0.48038 0.0
C716 C 0.76557 0.54136 0.44263 0.0
C717 C 0.77006 0.57823 0.5542 0.0
C718 C 0.78143 0.5681 0.55217 0.0
C719 C 0.77992 0.55656 0.51533 0.0
C720 C 0.79443 0.56854 0.58844 0.0
C721 C 0.77035 0.59006 0.59381 0.0
C722 C 0.81111 0.58695 0.60264 0.0
C723 C 0.82382 0.58698 0.63558 0.0
C724 C 0.82017 0.56857 0.6544 0.0
C725 C 0.8034 0.55019 0.64014 0.0
C726 C 0.79067 0.55019 0.60752 0.0
H727 H 0.75705 0.59245 0.59459 0.0
H728 H 0.77041 0.5821 0.62399 0.0
H729 H 0.78438 0.60525 0.59342 0.0
H730 H 0.81453 0.60124 0.58768 0.0
H731 H 0.83669 0.60137 0.64569 0.0
H732 H 0.13628 0.73556 0.72658 0.0
H733 H 0.15812 0.75818 0.78402 0.0
H734 H 0.21119 0.77459 0.70531 0.0
H735 H 0.18948 0.7512 0.64874 0.0
H736 H 0.21737 0.766 0.78246 0.0
H737 H 0.18674 0.81826 0.79821 0.0
H738 H 0.16711 0.79228 0.80543 0.0
H739 H 0.17982 0.80048 0.75385 0.0
C740 C 0.15259 0.7442 0.72136 0.0
C741 C 0.16121 0.74164 0.68327 0.0
C742 C 0.16505 0.75725 0.75407 0.0
C743 C 0.1863 0.7684 0.74873 0.0
C744 C 0.19485 0.7662 0.71016 0.0
H745 H 0.26747 0.8629 0.92948 0.0
H746 H 0.24644 0.84418 0.86709 0.0
C747 C 0.18244 0.75284 0.67786 0.0
C748 C 0.19973 0.78114 0.78451 0.0
H749 H 0.20744 0.8183 0.85721 0.0
C750 C 0.21531 0.77759 0.79846 0.0
C751 C 0.19729 0.79649 0.80504 0.0
C752 C 0.18198 0.80226 0.78952 0.0
C753 C 0.22826 0.78865 0.83282 0.0
C754 C 0.22499 0.80308 0.85512 0.0
C755 C 0.20972 0.80698 0.84058 0.0
C756 C 0.23733 0.81435 0.89341 0.0
C757 C 0.24552 0.78496 0.84418 0.0
C758 C 0.23887 0.80381 0.92929 0.0
C759 C 0.25118 0.81446 0.96454 0.0
C760 C 0.2617 0.83586 0.96507 0.0
C761 C 0.25952 0.8464 0.92993 0.0
C762 C 0.24751 0.83573 0.89429 0.0
H763 H 0.24994 0.77888 0.81599 0.0
H764 H 0.25916 0.79915 0.85539 0.0
H765 H 0.24056 0.77348 0.8705 0.0
H766 H 0.23062 0.78732 0.93001 0.0
H767 H 0.25236 0.80594 0.99148 0.0
H768 H 0.38811 0.15793 0.00828 0.0
H769 H 0.38685 0.17853 0.06817 0.0
H770 H 0.45254 0.21265 0.072 0.0
H771 H 0.45392 0.19184 0.01332 0.0
H772 H 0.43653 0.20017 0.15115 0.0
H773 H 0.39804 0.23667 0.0679 0.0
H774 H 0.38423 0.20932 0.06618 0.0
H775 H 0.40833 0.22317 0.03886 0.0
C776 C 0.40226 0.16994 0.02171 0.0
C777 C 0.42111 0.17326 0.00617 0.0
C778 C 0.40152 0.18176 0.05573 0.0
C779 C 0.41961 0.19728 0.07417 0.0
C780 C 0.4384 0.20075 0.05823 0.0
H781 H 0.44421 0.29846 0.23817 0.0
H782 H 0.43824 0.27489 0.17849 0.0
C783 C 0.43916 0.18884 0.02468 0.0
C784 C 0.41923 0.20942 0.1114 0.0
H785 H 0.40421 0.24301 0.14317 0.0
C786 C 0.42942 0.20951 0.14946 0.0
C787 C 0.41007 0.22168 0.10891 0.0
C788 C 0.3997 0.22291 0.06817 0.0
C789 C 0.43106 0.2218 0.18489 0.0
C790 C 0.42167 0.23387 0.18269 0.0
C791 C 0.41122 0.23359 0.14486 0.0
C792 C 0.42362 0.24779 0.21837 0.0
C793 C 0.44352 0.22232 0.22361 0.0
C794 C 0.4169 0.24032 0.26035 0.0
C795 C 0.42054 0.25377 0.29462 0.0
C796 C 0.43064 0.2749 0.2873 0.0
C797 C 0.43646 0.28227 0.24486 0.0
C798 C 0.43302 0.26882 0.21071 0.0
H799 H 0.45389 0.2164 0.21553 0.0
H800 H 0.45282 0.23806 0.23637 0.0
H801 H 0.43314 0.21262 0.24972 0.0
H802 H 0.40915 0.2241 0.26674 0.0
H803 H 0.41564 0.24762 0.3269 0.0
H804 H 0.35778 0.49867 0.25897 0.0
H805 H 0.388 0.53114 0.27713 0.0
H806 H 0.34981 0.55398 0.32495 0.0
H807 H 0.31942 0.52147 0.30724 0.0
H808 H 0.39969 0.57131 0.2494 0.0
H809 H 0.38816 0.56163 0.42779 0.0
H810 H 0.37496 0.54078 0.39016 0.0
H811 H 0.36686 0.55917 0.39717 0.0
C812 C 0.35577 0.51061 0.27321 0.0
C813 C 0.33619 0.50743 0.28195 0.0
C814 C 0.37306 0.52915 0.28351 0.0
C815 C 0.37111 0.54481 0.30292 0.0
C816 C 0.35161 0.54193 0.31064 0.0
H817 H 0.47051 0.66995 0.33728 0.0
H818 H 0.43809 0.63974 0.31826 0.0
C819 C 0.33428 0.52339 0.30029 0.0
C820 C 0.38956 0.56403 0.31552 0.0
H821 H 0.41582 0.59272 0.4032 0.0
C822 C 0.40321 0.57607 0.28298 0.0
C823 C 0.39415 0.57 0.35943 0.0
C824 C 0.38039 0.55718 0.39579 0.0
C825 C 0.42138 0.594 0.29318 0.0
C826 C 0.42585 0.60009 0.33705 0.0
C827 C 0.41221 0.58805 0.36959 0.0
C828 C 0.44505 0.61849 0.34993 0.0
C829 C 0.43591 0.60599 0.25712 0.0
C830 C 0.45941 0.61655 0.37501 0.0
C831 C 0.47791 0.63375 0.38604 0.0
C832 C 0.48231 0.65323 0.37237 0.0
C833 C 0.46763 0.65516 0.34816 0.0
C834 C 0.44915 0.63793 0.33707 0.0
H835 H 0.43227 0.59706 0.22657 0.0
H836 H 0.43494 0.61988 0.25064 0.0
H837 H 0.45186 0.61089 0.26651 0.0
H838 H 0.45646 0.60166 0.38539 0.0
H839 H 0.48884 0.63173 0.40483 0.0
H840 H 0.8283 0.48643 0.63225 0.0
H841 H 0.82631 0.45347 0.62333 0.0
H842 H 0.84868 0.45744 0.75362 0.0
H843 H 0.85084 0.49055 0.7629 0.0
H844 H 0.86899 0.4472 0.68929 0.0
H845 H 0.78489 0.39838 0.67889 0.0
H846 H 0.79557 0.41994 0.64302 0.0
H847 H 0.79718 0.42393 0.70067 0.0
C848 C 0.8327 0.48027 0.65915 0.0
C849 C 0.83971 0.49111 0.69833 0.0
C850 C 0.83143 0.46138 0.65404 0.0
C851 C 0.8371 0.45294 0.688 0.0
C852 C 0.84412 0.46368 0.72714 0.0
H853 H 0.81892 0.33025 0.69824 0.0
H854 H 0.81877 0.36189 0.71294 0.0
C855 C 0.84533 0.48257 0.73237 0.0
C856 C 0.83648 0.4333 0.6819 0.0
H857 H 0.80448 0.38296 0.65956 0.0
C858 C 0.85489 0.43312 0.68304 0.0
C859 C 0.81803 0.41496 0.67417 0.0
C860 C 0.79775 0.41417 0.67447 0.0
C861 C 0.85538 0.41513 0.67558 0.0
C862 C 0.83702 0.39694 0.66628 0.0
C863 C 0.81855 0.397 0.66625 0.0
C864 C 0.8367 0.37768 0.65658 0.0
C865 C 0.87553 0.41568 0.67797 0.0
C866 C 0.84651 0.37602 0.61957 0.0
C867 C 0.8466 0.35797 0.611 0.0
C868 C 0.83683 0.34125 0.63929 0.0
C869 C 0.82665 0.34286 0.67587 0.0
C870 C 0.82653 0.3609 0.68434 0.0
H871 H 0.88723 0.4294 0.69545 0.0
H872 H 0.87382 0.40189 0.69447 0.0
H873 H 0.88117 0.41602 0.64461 0.0
H874 H 0.85415 0.38871 0.59737 0.0
H875 H 0.85452 0.35722 0.58245 0.0
H876 H 0.48919 0.83658 0.91188 0.0
H877 H 0.45543 0.8321 0.92621 0.0
H878 H 0.47801 0.86713 0.04391 0.0
H879 H 0.51183 0.87195 0.02964 0.0
H880 H 0.42967 0.8145 -0.00171 0.0
H881 H 0.45247 0.89599 0.97917 0.0
H882 H 0.46827 0.88586 0.96116 0.0
H883 H 0.4676 0.89151 0.01756 0.0
C884 C 0.48699 0.84337 0.94078 0.0
C885 C 0.50324 0.85476 0.96946 0.0
C886 C 0.46769 0.84076 0.94893 0.0
C887 C 0.46433 0.84955 0.98575 0.0
C888 C 0.4804 0.86058 0.01485 0.0
H889 H 0.3617 0.85561 0.09069 0.0
H890 H 0.39418 0.85683 0.07907 0.0
C891 C 0.4997 0.86324 0.00672 0.0
C892 C 0.44401 0.84716 0.99387 0.0
H893 H 0.4193 0.87404 0.00662 0.0
C894 C 0.42734 0.82749 -7e-05 0.0
C895 C 0.44108 0.86415 0.99594 0.0
C896 C 0.45825 0.88556 0.98773 0.0
C897 C 0.40784 0.82438 0.00894 0.0
C898 C 0.40495 0.8414 0.01129 0.0
C899 C 0.42161 0.86105 0.00504 0.0
C900 C 0.38476 0.83925 0.01973 0.0
C901 C 0.39058 0.80299 0.01675 0.0
C902 C 0.36869 0.82889 0.99024 0.0
C903 C 0.35009 0.82814 0.99678 0.0
C904 C 0.34728 0.83786 0.0328 0.0
C905 C 0.36333 0.84795 0.06264 0.0
C906 C 0.38191 0.84868 0.05606 0.0
H907 H 0.39625 0.79241 0.02467 0.0
H908 H 0.38067 0.80265 0.0436 0.0
H909 H 0.38114 0.79731 0.98698 0.0
H910 H 0.37071 0.82185 0.96156 0.0
H911 H 0.33808 0.82032 0.97308 0.0
H912 H 0.62949 0.49789 0.25786 0.0
H913 H 0.59926 0.4654 0.27566 0.0
H914 H 0.63743 0.44263 0.32414 0.0
H915 H 0.66779 0.4752 0.30713 0.0
H916 H 0.58702 0.42606 0.24801 0.0
H917 H 0.5994 0.43366 0.42621 0.0
H918 H 0.61311 0.45472 0.38942 0.0
H919 H 0.62047 0.43571 0.39554 0.0
C920 C 0.63149 0.48597 0.27221 0.0
C921 C 0.65106 0.4892 0.28139 0.0
C922 C 0.61419 0.46741 0.28233 0.0
C923 C 0.61612 0.45176 0.30187 0.0
C924 C 0.63562 0.45469 0.30992 0.0
H925 H 0.5163 0.32628 0.3282 0.0
H926 H 0.54854 0.35677 0.30976 0.0
C927 C 0.65294 0.47327 0.29994 0.0
C928 C 0.59766 0.43244 0.31401 0.0
H929 H 0.57211 0.40244 0.40061 0.0
C930 C 0.58375 0.42085 0.28134 0.0
C931 C 0.59336 0.42585 0.35762 0.0
C932 C 0.60725 0.43819 0.39434 0.0
C933 C 0.56565 0.40278 0.29108 0.0
C934 C 0.56154 0.39599 0.33458 0.0
C935 C 0.57542 0.4076 0.36726 0.0
C936 C 0.54249 0.37733 0.3471 0.0
C937 C 0.55081 0.39143 0.25493 0.0
C938 C 0.52874 0.37871 0.37533 0.0
C939 C 0.5104 0.36133 0.38621 0.0
C940 C 0.5055 0.3422 0.36913 0.0
C941 C 0.51956 0.34079 0.34171 0.0
C942 C 0.53793 0.35821 0.33092 0.0
H943 H 0.55391 0.40109 0.22566 0.0
H944 H 0.55214 0.37801 0.24564 0.0
H945 H 0.53489 0.3859 0.26551 0.0
H946 H 0.53203 0.39333 0.38833 0.0
H947 H 0.49993 0.36295 0.40746 0.0
H948 H 0.16113 0.65906 0.70439 0.0
H949 H 0.16277 0.62813 0.71809 0.0
H950 H 0.14912 0.61102 0.58365 0.0
H951 H 0.14745 0.6419 0.56952 0.0
H952 H 0.12971 0.58712 0.70156 0.0
H953 H 0.20017 0.60565 0.61065 0.0
H954 H 0.1943 0.62491 0.62797 0.0
H955 H 0.18178 0.6094 0.58142 0.0
C956 C 0.15867 0.64883 0.67761 0.0
C957 C 0.15416 0.65294 0.63584 0.0
C958 C 0.15959 0.63117 0.68554 0.0
C959 C 0.15627 0.61746 0.65179 0.0
C960 C 0.15203 0.62161 0.60997 0.0
H961 H 0.14682 0.50007 0.62428 0.0
H962 H 0.14939 0.53324 0.61462 0.0
C963 C 0.15098 0.6392 0.60203 0.0
C964 C 0.15617 0.59825 0.66075 0.0
H965 H 0.1802 0.5717 0.63596 0.0
C966 C 0.14082 0.58376 0.68755 0.0
C967 C 0.17065 0.59399 0.6422 0.0
C968 C 0.18778 0.60934 0.61421 0.0
C969 C 0.13921 0.56478 0.69539 0.0
C970 C 0.15367 0.56045 0.67669 0.0
C971 C 0.16917 0.57508 0.65027 0.0
C972 C 0.15259 0.54057 0.68303 0.0
C973 C 0.12166 0.54931 0.72236 0.0
C974 C 0.15385 0.53382 0.72468 0.0
C975 C 0.15224 0.51478 0.73038 0.0
C976 C 0.14958 0.50226 0.69442 0.0
C977 C 0.14881 0.5093 0.65268 0.0
C978 C 0.15031 0.52827 0.64706 0.0
H979 H 0.10922 0.55298 0.72474 0.0
H980 H 0.1153 0.53377 0.70856 0.0
H981 H 0.12712 0.54922 0.75569 0.0
H982 H 0.15607 0.54328 0.75279 0.0
H983 H 0.15308 0.50988 0.76293 0.0
H984 H 0.65733 0.17137 0.97015 0.0
H985 H 0.6255 0.17153 0.95904 0.0
H986 H 0.60446 0.14444 0.08503 0.0
H987 H 0.63632 0.14432 0.09665 0.0
H988 H 0.58623 0.136 0.95997 0.0
H989 H 0.59336 0.19261 0.08343 0.0
H990 H 0.61496 0.19088 0.06435 0.0
H991 H 0.59772 0.17281 0.10313 0.0
C992 C 0.64606 0.16566 0.99576 0.0
C993 C 0.64936 0.15781 0.03429 0.0
C994 C 0.62788 0.16575 0.9893 0.0
C995 C 0.61275 0.15817 0.02136 0.0
C996 C 0.61611 0.15067 0.0602 0.0
H997 H 0.48957 0.13601 0.03952 0.0
H998 H 0.52302 0.13953 0.05199 0.0
C999 C 0.63428 0.15052 0.06667 0.0
C1000 C 0.59295 0.15692 0.01295 0.0
H1001 H 0.5613 0.17369 0.04852 0.0
C1002 C 0.5808 0.14432 0.97911 0.0
C1003 C 0.58595 0.16773 0.0382 0.0
C1004 C 0.59871 0.18191 0.07411 0.0
C1005 C 0.56156 0.14191 0.97031 0.0
C1006 C 0.55454 0.15276 0.99547 0.0
C1007 C 0.56675 0.16542 0.02925 0.0
C1008 C 0.53442 0.15093 0.98769 0.0
C1009 C 0.54871 0.12731 0.93498 0.0
C1010 C 0.52984 0.15641 0.94755 0.0
C1011 C 0.51068 0.15428 0.94019 0.0
C1012 C 0.49585 0.14685 0.97306 0.0
C1013 C 0.50064 0.14174 0.01349 0.0
C1014 C 0.51975 0.14377 0.02072 0.0
H1015 H 0.55387 0.11633 0.92692 0.0
H1016 H 0.53242 0.11863 0.9446 0.0
H1017 H 0.54994 0.13606 0.90519 0.0
H1018 H 0.54111 0.1624 0.92194 0.0
H1019 H 0.50753 0.15854 0.90883 0.0
loop_
_geom_bond_atom_site_label_1
_geom_bond_atom_site_label_2
_geom_bond_distance
_geom_bond_site_symmetry_2
_ccdc_geom_bond_type
C0 O1 1.160 . S
C0 O7 1.185 . S
O1 C0 1.160 . S
O2 Zn3 1.899 . S
O2 C10 1.284 . S
Zn3 O2 1.899 . S
Zn3 O4 2.032 . S
Zn3 O7 2.086 . S
Zn3 O12 1.977 . S
O4 Zn3 2.032 . S
O4 C8 1.278 . S
C5 O6 1.203 . S
C5 O12 1.267 . S
O6 C5 1.203 . S
O7 C0 1.185 . S
O7 Zn3 2.086 . S
C8 O4 1.278 . S
C8 O9 1.211 . S
O9 C8 1.211 . S
C10 O2 1.284 . S
C10 O11 1.273 . S
O11 C10 1.273 . S
O12 Zn3 1.977 . S
O12 C5 1.267 . S
C13 O14 1.160 . S
C13 O20 1.185 . S
O14 C13 1.160 . S
O15 Zn16 1.899 . S
O15 C23 1.284 . S
Zn16 O15 1.899 . S
Zn16 O17 2.032 . S
Zn16 O20 2.086 . S
Zn16 O25 1.977 . S
O17 Zn16 2.032 . S
O17 C21 1.278 . S
C18 O19 1.203 . S
C18 O25 1.267 . S
O19 C18 1.203 . S
O20 C13 1.185 . S
O20 Zn16 2.086 . S
C21 O17 1.278 . S
C21 O22 1.211 . S
O22 C21 1.211 . S
C23 O15 1.284 . S
C23 O24 1.273 . S
O24 C23 1.273 . S
O25 Zn16 1.977 . S
O25 C18 1.267 . S
C26 O27 1.160 . S
C26 O33 1.185 . S
O27 C26 1.160 . S
O28 Zn29 1.899 . S
O28 C36 1.284 . S
Zn29 O28 1.899 . S
Zn29 O30 2.032 . S
Zn29 O33 2.086 . S
Zn29 O38 1.977 . S
O30 Zn29 2.032 . S
O30 C34 1.278 1_556 S
C31 O32 1.203 . S
C31 O38 1.267 . S
O32 C31 1.203 . S
O33 C26 1.185 . S
O33 Zn29 2.086 . S
C34 O30 1.278 1_554 S
C34 O35 1.211 . S
O35 C34 1.211 . S
C36 O28 1.284 . S
C36 O37 1.273 . S
O37 C36 1.273 . S
O38 Zn29 1.977 . S
O38 C31 1.267 . S
C39 O40 1.160 . S
C39 O46 1.185 . S
O40 C39 1.160 . S
O41 Zn42 1.899 . S
O41 C49 1.284 . S
Zn42 O41 1.899 . S
Zn42 O43 2.032 . S
Zn42 O46 2.086 . S
Zn42 O51 1.977 . S
O43 Zn42 2.032 . S
O43 C47 1.278 . S
C44 O45 1.203 . S
C44 O51 1.267 . S
O45 C44 1.203 . S
O46 C39 1.185 . S
O46 Zn42 2.086 . S
C47 O43 1.278 . S
C47 O48 1.211 . S
O48 C47 1.211 . S
C49 O41 1.284 . S
C49 O50 1.273 . S
O50 C49 1.273 . S
O51 Zn42 1.977 . S
O51 C44 1.267 . S
C52 O53 1.160 . S
C52 O59 1.185 . S
O53 C52 1.160 . S
O54 Zn55 1.899 . S
O54 C62 1.284 . S
Zn55 O54 1.899 . S
Zn55 O56 2.032 . S
Zn55 O59 2.086 . S
Zn55 O64 1.977 . S
O56 Zn55 2.032 . S
O56 C60 1.278 . S
C57 O58 1.203 . S
C57 O64 1.267 . S
O58 C57 1.203 . S
O59 C52 1.185 . S
O59 Zn55 2.086 . S
C60 O56 1.278 . S
C60 O61 1.211 . S
O61 C60 1.211 . S
C62 O54 1.284 . S
C62 O63 1.273 . S
O63 C62 1.273 . S
O64 Zn55 1.977 . S
O64 C57 1.267 . S
C65 O66 1.160 . S
C65 O72 1.185 . S
O66 C65 1.160 . S
O67 Zn68 1.899 . S
O67 C75 1.284 . S
Zn68 O67 1.899 . S
Zn68 O69 2.032 . S
Zn68 O72 2.086 . S
Zn68 O77 1.977 . S
O69 Zn68 2.032 . S
O69 C73 1.278 1_556 S
C70 O71 1.203 . S
C70 O77 1.267 . S
O71 C70 1.203 . S
O72 C65 1.185 . S
O72 Zn68 2.086 . S
C73 O69 1.278 1_554 S
C73 O74 1.211 . S
O74 C73 1.211 . S
C75 O67 1.284 . S
C75 O76 1.273 . S
O76 C75 1.273 . S
O77 Zn68 1.977 . S
O77 C70 1.267 . S
C78 O79 1.160 . S
C78 O85 1.185 . S
O79 C78 1.160 . S
O80 Zn81 1.899 . S
O80 C88 1.284 . S
Zn81 O80 1.899 . S
Zn81 O82 2.032 . S
Zn81 O85 2.086 . S
Zn81 O90 1.977 . S
O82 Zn81 2.032 . S
O82 C86 1.278 . S
C83 O84 1.203 . S
C83 O90 1.267 . S
O84 C83 1.203 . S
O85 C78 1.185 . S
O85 Zn81 2.086 . S
C86 O82 1.278 . S
C86 O87 1.211 . S
O87 C86 1.211 . S
C88 O80 1.284 . S
C88 O89 1.273 . S
O89 C88 1.273 . S
O90 Zn81 1.977 . S
O90 C83 1.267 . S
C91 O92 1.160 . S
C91 O98 1.185 . S
O92 C91 1.160 . S
O93 Zn94 1.899 . S
O93 C101 1.284 . S
Zn94 O93 1.899 . S
Zn94 O95 2.032 . S
Zn94 O98 2.086 . S
Zn94 O103 1.977 . S
O95 Zn94 2.032 . S
O95 C99 1.278 . S
C96 O97 1.203 . S
C96 O103 1.267 . S
O97 C96 1.203 . S
O98 C91 1.185 . S
O98 Zn94 2.086 . S
C99 O95 1.278 . S
C99 O100 1.211 . S
O100 C99 1.211 . S
C101 O93 1.284 . S
C101 O102 1.273 . S
O102 C101 1.273 . S
O103 Zn94 1.977 . S
O103 C96 1.267 . S
C104 O105 1.160 . S
C104 O111 1.185 . S
O105 C104 1.160 . S
O106 Zn107 1.899 . S
O106 C114 1.284 . S
Zn107 O106 1.899 . S
Zn107 O108 2.032 . S
Zn107 O111 2.086 . S
Zn107 O116 1.977 . S
O108 Zn107 2.032 . S
O108 C112 1.278 1_554 S
C109 O110 1.203 . S
C109 O116 1.267 . S
O110 C109 1.203 . S
O111 C104 1.185 . S
O111 Zn107 2.086 . S
C112 O108 1.278 1_556 S
C112 O113 1.211 . S
O113 C112 1.211 . S
C114 O106 1.284 . S
C114 O115 1.273 . S
O115 C114 1.273 . S
O116 Zn107 1.977 . S
O116 C109 1.267 . S
C117 O118 1.160 . S
C117 O124 1.185 . S
O118 C117 1.160 . S
O119 Zn120 1.899 . S
O119 C127 1.284 . S
Zn120 O119 1.899 . S
Zn120 O121 2.032 . S
Zn120 O124 2.086 . S
Zn120 O129 1.977 . S
O121 Zn120 2.032 . S
O121 C125 1.278 . S
C122 O123 1.203 . S
C122 O129 1.267 . S
O123 C122 1.203 . S
O124 C117 1.185 . S
O124 Zn120 2.086 . S
C125 O121 1.278 . S
C125 O126 1.211 . S
O126 C125 1.211 . S
C127 O119 1.284 . S
C127 O128 1.273 . S
O128 C127 1.273 . S
O129 Zn120 1.977 . S
O129 C122 1.267 . S
C130 O131 1.160 . S
C130 O137 1.185 . S
O131 C130 1.160 . S
O132 Zn133 1.899 . S
O132 C140 1.284 . S
Zn133 O132 1.899 . S
Zn133 O134 2.032 . S
Zn133 O137 2.086 . S
Zn133 O142 1.977 . S
O134 Zn133 2.032 . S
O134 C138 1.278 . S
C135 O136 1.203 . S
C135 O142 1.267 . S
O136 C135 1.203 . S
O137 C130 1.185 . S
O137 Zn133 2.086 . S
C138 O134 1.278 . S
C138 O139 1.211 . S
O139 C138 1.211 . S
C140 O132 1.284 . S
C140 O141 1.273 . S
O141 C140 1.273 . S
O142 Zn133 1.977 . S
O142 C135 1.267 . S
C143 O144 1.160 . S
C143 O150 1.185 . S
O144 C143 1.160 . S
O145 Zn146 1.899 . S
O145 C153 1.284 . S
Zn146 O145 1.899 . S
Zn146 O147 2.032 . S
Zn146 O150 2.086 . S
Zn146 O155 1.977 . S
O147 Zn146 2.032 . S
O147 C151 1.278 1_554 S
C148 O149 1.203 . S
C148 O155 1.267 . S
O149 C148 1.203 . S
O150 C143 1.185 . S
O150 Zn146 2.086 . S
C151 O147 1.278 1_556 S
C151 O152 1.211 . S
O152 C151 1.211 . S
C153 O145 1.284 . S
C153 O154 1.273 . S
O154 C153 1.273 . S
O155 Zn146 1.977 . S
O155 C148 1.267 . S
H156 C164 0.929 . S
H157 C166 0.930 . S
H158 C168 0.930 . S
H159 C171 0.929 . S
H160 C174 0.930 . S
H161 C176 0.960 . S
H162 C176 0.960 . S
H163 C176 0.960 . S
C164 H156 0.929 . S
C164 C165 1.377 . S
C164 C166 1.384 . S
C165 C164 1.377 . S
C165 C171 1.390 . S
C166 H157 0.930 . S
C166 C164 1.384 . S
C166 C167 1.372 . S
C167 C166 1.372 . S
C167 C168 1.400 . S
C167 C172 1.490 . S
C168 H158 0.930 . S
C168 C167 1.400 . S
C168 C171 1.386 . S
H169 C185 0.930 . S
H170 C186 0.931 . S
C171 H159 0.929 . S
C171 C165 1.390 . S
C171 C168 1.386 . S
C172 C167 1.490 . S
C172 C174 1.395 . S
C172 C175 1.403 . S
H173 C179 0.930 . S
C174 H160 0.930 . S
C174 C172 1.395 . S
C174 C177 1.403 . S
C175 C172 1.403 . S
C175 C176 1.524 . S
C175 C179 1.400 . S
C176 H161 0.960 . S
C176 H162 0.960 . S
C176 H163 0.960 . S
C176 C175 1.524 . S
C177 C174 1.403 . S
C177 C178 1.392 . S
C177 C181 1.495 . S
C178 C177 1.392 . S
C178 C179 1.385 . S
C178 C180 1.478 . S
C179 H173 0.930 . S
C179 C175 1.400 . S
C179 C178 1.385 . S
C180 C178 1.478 . S
C180 C182 1.381 . S
C180 C186 1.383 . S
C181 C177 1.495 . S
C181 H187 0.959 . S
C181 H188 0.961 . S
C181 H189 0.960 . S
C182 C180 1.381 . S
C182 C183 1.394 . S
C182 H190 0.930 . S
C183 C182 1.394 . S
C183 C184 1.383 . S
C183 H191 0.929 . S
C184 C183 1.383 . S
C184 C185 1.377 . S
C185 H169 0.930 . S
C185 C184 1.377 . S
C185 C186 1.379 . S
C186 H170 0.931 . S
C186 C180 1.383 . S
C186 C185 1.379 . S
H187 C181 0.959 . S
H188 C181 0.961 . S
H189 C181 0.960 . S
H190 C182 0.930 . S
H191 C183 0.929 . S
H192 C200 0.929 . S
H193 C202 0.930 . S
H194 C204 0.930 . S
H195 C207 0.929 . S
H196 C210 0.930 . S
H197 C212 0.960 . S
H198 C212 0.960 . S
H199 C212 0.960 . S
C200 H192 0.929 . S
C200 C201 1.377 . S
C200 C202 1.384 . S
C201 C200 1.377 . S
C201 C207 1.390 . S
C202 H193 0.930 . S
C202 C200 1.384 . S
C202 C203 1.372 . S
C203 C202 1.372 . S
C203 C204 1.400 . S
C203 C208 1.490 . S
C204 H194 0.930 . S
C204 C203 1.400 . S
C204 C207 1.386 . S
H205 C221 0.930 . S
H206 C222 0.931 . S
C207 H195 0.929 . S
C207 C201 1.390 . S
C207 C204 1.386 . S
C208 C203 1.490 . S
C208 C210 1.395 . S
C208 C211 1.403 . S
H209 C215 0.930 . S
C210 H196 0.930 . S
C210 C208 1.395 . S
C210 C213 1.403 1_655 S
C211 C208 1.403 . S
C211 C212 1.524 . S
C211 C215 1.400 1_655 S
C212 H197 0.960 . S
C212 H198 0.960 . S
C212 H199 0.960 . S
C212 C211 1.524 . S
C213 C210 1.403 1_455 S
C213 C214 1.392 . S
C213 C217 1.495 . S
C214 C213 1.392 . S
C214 C215 1.385 . S
C214 C216 1.478 . S
C215 H209 0.930 . S
C215 C211 1.400 1_455 S
C215 C214 1.385 . S
C216 C214 1.478 . S
C216 C218 1.381 . S
C216 C222 1.383 . S
C217 C213 1.495 . S
C217 H223 0.959 . S
C217 H224 0.961 . S
C217 H225 0.960 . S
C218 C216 1.381 . S
C218 C219 1.394 . S
C218 H226 0.930 . S
C219 C218 1.394 . S
C219 C220 1.383 . S
C219 H227 0.929 . S
C220 C219 1.383 . S
C220 C221 1.377 . S
C221 H205 0.930 . S
C221 C220 1.377 . S
C221 C222 1.379 . S
C222 H206 0.931 . S
C222 C216 1.383 . S
C222 C221 1.379 . S
H223 C217 0.959 . S
H224 C217 0.961 . S
H225 C217 0.960 . S
H226 C218 0.930 . S
H227 C219 0.929 . S
H228 C236 0.929 . S
H229 C238 0.930 . S
H230 C240 0.930 . S
H231 C243 0.929 . S
H232 C246 0.930 . S
H233 C248 0.960 . S
H234 C248 0.960 . S
H235 C248 0.960 . S
C236 H228 0.929 . S
C236 C237 1.377 . S
C236 C238 1.384 . S
C237 C236 1.377 . S
C237 C243 1.390 . S
C238 H229 0.930 . S
C238 C236 1.384 . S
C238 C239 1.372 . S
C239 C238 1.372 . S
C239 C240 1.400 . S
C239 C244 1.490 . S
C240 H230 0.930 . S
C240 C239 1.400 . S
C240 C243 1.386 . S
H241 C257 0.930 . S
H242 C258 0.931 . S
C243 H231 0.929 . S
C243 C237 1.390 . S
C243 C240 1.386 . S
C244 C239 1.490 . S
C244 C246 1.395 1_556 S
C244 C247 1.403 . S
H245 C251 0.930 . S
C246 H232 0.930 . S
C246 C244 1.395 1_554 S
C246 C249 1.403 1_565 S
C247 C244 1.403 . S
C247 C248 1.524 . S
C247 C251 1.400 1_565 S
C248 H233 0.960 . S
C248 H234 0.960 . S
C248 H235 0.960 . S
C248 C247 1.524 . S
C249 C246 1.403 1_545 S
C249 C250 1.392 . S
C249 C253 1.495 . S
C250 C249 1.392 . S
C250 C251 1.385 1_554 S
C250 C252 1.478 . S
C251 H245 0.930 . S
C251 C247 1.400 1_545 S
C251 C250 1.385 1_556 S
C252 C250 1.478 . S
C252 C254 1.381 . S
C252 C258 1.383 . S
C253 C249 1.495 . S
C253 H259 0.959 . S
C253 H260 0.961 . S
C253 H261 0.960 . S
C254 C252 1.381 . S
C254 C255 1.394 . S
C254 H262 0.930 . S
C255 C254 1.394 . S
C255 C256 1.383 . S
C255 H263 0.929 . S
C256 C255 1.383 . S
C256 C257 1.377 . S
C257 H241 0.930 . S
C257 C256 1.377 . S
C257 C258 1.379 . S
C258 H242 0.931 . S
C258 C252 1.383 . S
C258 C257 1.379 . S
H259 C253 0.959 . S
H260 C253 0.961 . S
H261 C253 0.960 . S
H262 C254 0.930 . S
H263 C255 0.929 . S
H264 C272 0.929 . S
H265 C274 0.930 . S
H266 C276 0.930 . S
H267 C279 0.929 . S
H268 C282 0.930 . S
H269 C284 0.960 . S
H270 C284 0.960 . S
H271 C284 0.960 . S
C272 H264 0.929 . S
C272 C273 1.377 . S
C272 C274 1.384 . S
C273 C272 1.377 . S
C273 C279 1.390 . S
C274 H265 0.930 . S
C274 C272 1.384 . S
C274 C275 1.372 . S
C275 C274 1.372 . S
C275 C276 1.400 . S
C275 C280 1.490 . S
C276 H266 0.930 . S
C276 C275 1.400 . S
C276 C279 1.386 . S
H277 C293 0.930 . S
H278 C294 0.931 . S
C279 H267 0.929 . S
C279 C273 1.390 . S
C279 C276 1.386 . S
C280 C275 1.490 . S
C280 C282 1.395 . S
C280 C283 1.403 . S
H281 C287 0.930 . S
C282 H268 0.930 . S
C282 C280 1.395 . S
C282 C285 1.403 . S
C283 C280 1.403 . S
C283 C284 1.524 . S
C283 C287 1.400 . S
C284 H269 0.960 . S
C284 H270 0.960 . S
C284 H271 0.960 . S
C284 C283 1.524 . S
C285 C282 1.403 . S
C285 C286 1.392 . S
C285 C289 1.495 . S
C286 C285 1.392 . S
C286 C287 1.385 . S
C286 C288 1.478 . S
C287 H281 0.930 . S
C287 C283 1.400 . S
C287 C286 1.385 . S
C288 C286 1.478 . S
C288 C290 1.381 . S
C288 C294 1.383 . S
C289 C285 1.495 . S
C289 H295 0.959 . S
C289 H296 0.961 . S
C289 H297 0.960 . S
C290 C288 1.381 . S
C290 C291 1.394 . S
C290 H298 0.930 . S
C291 C290 1.394 . S
C291 C292 1.383 . S
C291 H299 0.929 . S
C292 C291 1.383 . S
C292 C293 1.377 . S
C293 H277 0.930 . S
C293 C292 1.377 . S
C293 C294 1.379 . S
C294 H278 0.931 . S
C294 C288 1.383 . S
C294 C293 1.379 . S
H295 C289 0.959 . S
H296 C289 0.961 . S
H297 C289 0.960 . S
H298 C290 0.930 . S
H299 C291 0.929 . S
H300 C308 0.929 . S
H301 C310 0.930 . S
H302 C312 0.930 . S
H303 C315 0.929 . S
H304 C318 0.930 . S
H305 C320 0.960 . S
H306 C320 0.960 . S
H307 C320 0.960 . S
C308 H300 0.929 . S
C308 C309 1.377 . S
C308 C310 1.384 . S
C309 C308 1.377 . S
C309 C315 1.390 . S
C310 H301 0.930 . S
C310 C308 1.384 . S
C310 C311 1.372 . S
C311 C310 1.372 . S
C311 C312 1.400 . S
C311 C316 1.490 . S
C312 H302 0.930 . S
C312 C311 1.400 . S
C312 C315 1.386 . S
H313 C329 0.930 . S
H314 C330 0.931 . S
C315 H303 0.929 . S
C315 C309 1.390 . S
C315 C312 1.386 . S
C316 C311 1.490 . S
C316 C318 1.395 . S
C316 C319 1.403 . S
H317 C323 0.930 . S
C318 H304 0.930 . S
C318 C316 1.395 . S
C318 C321 1.403 1_655 S
C319 C316 1.403 . S
C319 C320 1.524 . S
C319 C323 1.400 1_655 S
C320 H305 0.960 . S
C320 H306 0.960 . S
C320 H307 0.960 . S
C320 C319 1.524 . S
C321 C318 1.403 1_455 S
C321 C322 1.392 . S
C321 C325 1.495 . S
C322 C321 1.392 . S
C322 C323 1.385 . S
C322 C324 1.478 . S
C323 H317 0.930 . S
C323 C319 1.400 1_455 S
C323 C322 1.385 . S
C324 C322 1.478 . S
C324 C326 1.381 . S
C324 C330 1.383 . S
C325 C321 1.495 . S
C325 H331 0.959 . S
C325 H332 0.961 . S
C325 H333 0.960 . S
C326 C324 1.381 . S
C326 C327 1.394 . S
C326 H334 0.930 . S
C327 C326 1.394 . S
C327 C328 1.383 . S
C327 H335 0.929 . S
C328 C327 1.383 . S
C328 C329 1.377 . S
C329 H313 0.930 . S
C329 C328 1.377 . S
C329 C330 1.379 . S
C330 H314 0.931 . S
C330 C324 1.383 . S
C330 C329 1.379 . S
H331 C325 0.959 . S
H332 C325 0.961 . S
H333 C325 0.960 . S
H334 C326 0.930 . S
H335 C327 0.929 . S
H336 C344 0.929 . S
H337 C346 0.930 . S
H338 C348 0.930 . S
H339 C351 0.929 . S
H340 C354 0.930 . S
H341 C356 0.963 . S
H342 C356 0.960 . S
H343 C356 0.960 1_556 S
C344 H336 0.929 . S
C344 C345 1.377 . S
C344 C346 1.384 . S
C345 C344 1.377 . S
C345 C351 1.390 1_554 S
C346 H337 0.930 . S
C346 C344 1.384 . S
C346 C347 1.372 . S
C347 C346 1.372 . S
C347 C348 1.400 1_554 S
C347 C352 1.490 . S
C348 H338 0.930 . S
C348 C347 1.400 1_556 S
C348 C351 1.386 . S
H349 C365 0.930 . S
H350 C366 0.931 . S
C351 H339 0.929 . S
C351 C345 1.390 1_556 S
C351 C348 1.386 . S
C352 C347 1.490 . S
C352 C354 1.395 . S
C352 C355 1.403 . S
H353 C359 0.930 . S
C354 H340 0.930 . S
C354 C352 1.395 . S
C354 C357 1.403 1_565 S
C355 C352 1.403 . S
C355 C356 1.524 . S
C355 C359 1.400 1_564 S
C356 H341 0.963 . S
C356 H342 0.960 . S
C356 H343 0.960 1_554 S
C356 C355 1.524 . S
C357 C354 1.403 1_545 S
C357 C358 1.392 1_554 S
C357 C361 1.495 1_554 S
C358 C357 1.392 1_556 S
C358 C359 1.385 . S
C358 C360 1.478 . S
C359 H353 0.930 . S
C359 C355 1.400 1_546 S
C359 C358 1.385 . S
C360 C358 1.478 . S
C360 C362 1.381 1_556 S
C360 C366 1.383 . S
C361 C357 1.495 1_556 S
C361 H367 0.957 1_556 S
C361 H368 0.971 . S
C361 H369 0.952 1_556 S
C362 C360 1.381 1_554 S
C362 C363 1.394 . S
C362 H370 0.930 . S
C363 C362 1.394 . S
C363 C364 1.383 1_554 S
C363 H371 0.929 . S
C364 C363 1.383 1_556 S
C364 C365 1.377 . S
C365 H349 0.930 . S
C365 C364 1.377 . S
C365 C366 1.379 . S
C366 H350 0.931 . S
C366 C360 1.383 . S
C366 C365 1.379 . S
H367 C361 0.957 1_554 S
H368 C361 0.971 . S
H369 C361 0.952 1_554 S
H370 C362 0.930 . S
H371 C363 0.929 . S
H372 C380 0.929 . S
H373 C382 0.930 . S
H374 C384 0.930 . S
H375 C387 0.929 . S
H376 C390 0.930 . S
H377 C392 0.960 1_554 S
H378 C392 0.960 . S
H379 C392 0.961 . S
C380 H372 0.929 . S
C380 C381 1.377 . S
C380 C382 1.384 . S
C381 C380 1.377 . S
C381 C387 1.390 . S
C382 H373 0.930 . S
C382 C380 1.384 . S
C382 C383 1.372 . S
C383 C382 1.372 . S
C383 C384 1.400 . S
C383 C388 1.490 . S
C384 H374 0.930 . S
C384 C383 1.400 . S
C384 C387 1.386 . S
H385 C401 0.930 . S
H386 C402 0.931 . S
C387 H375 0.929 . S
C387 C381 1.390 . S
C387 C384 1.386 . S
C388 C383 1.490 . S
C388 C390 1.395 . S
C388 C391 1.403 . S
H389 C395 0.930 . S
C390 H376 0.930 . S
C390 C388 1.395 . S
C390 C393 1.390 1_556 S
C391 C388 1.403 . S
C391 C392 1.524 . S
C391 C395 1.400 1_556 S
C392 H377 0.960 1_556 S
C392 H378 0.960 . S
C392 H379 0.961 . S
C392 C391 1.524 . S
C393 C390 1.390 1_554 S
C393 C394 1.405 . S
C393 C397 1.495 . S
C394 C393 1.405 . S
C394 C395 1.385 . S
C394 C396 1.478 . S
C395 H389 0.930 . S
C395 C391 1.400 1_554 S
C395 C394 1.385 . S
C396 C394 1.478 . S
C396 C398 1.381 . S
C396 C402 1.383 . S
C397 C393 1.495 . S
C397 H403 0.954 1_554 S
C397 H404 0.962 . S
C397 H405 0.965 . S
C398 C396 1.381 . S
C398 C399 1.394 . S
C398 H406 0.930 . S
C399 C398 1.394 . S
C399 C400 1.383 . S
C399 H407 0.929 . S
C400 C399 1.383 . S
C400 C401 1.377 . S
C401 H385 0.930 . S
C401 C400 1.377 . S
C401 C402 1.379 . S
C402 H386 0.931 . S
C402 C396 1.383 . S
C402 C401 1.379 . S
H403 C397 0.954 1_556 S
H404 C397 0.962 . S
H405 C397 0.965 . S
H406 C398 0.930 . S
H407 C399 0.929 . S
H408 C416 0.929 . S
H409 C418 0.930 . S
H410 C420 0.930 . S
H411 C423 0.929 . S
H412 C426 0.930 . S
H413 C428 0.960 . S
H414 C428 0.960 . S
H415 C428 0.960 . S
C416 H408 0.929 . S
C416 C417 1.377 . S
C416 C418 1.384 . S
C417 C416 1.377 . S
C417 C423 1.390 . S
C418 H409 0.930 . S
C418 C416 1.384 . S
C418 C419 1.372 . S
C419 C418 1.372 . S
C419 C420 1.400 . S
C419 C424 1.490 . S
C420 H410 0.930 . S
C420 C419 1.400 . S
C420 C423 1.386 . S
H421 C437 0.930 . S
H422 C438 0.931 . S
C423 H411 0.929 . S
C423 C417 1.390 . S
C423 C420 1.386 . S
C424 C419 1.490 . S
C424 C426 1.395 . S
C424 C427 1.403 . S
H425 C431 0.930 . S
C426 H412 0.930 . S
C426 C424 1.395 . S
C426 C429 1.403 . S
C427 C424 1.403 . S
C427 C428 1.524 . S
C427 C431 1.400 . S
C428 H413 0.960 . S
C428 H414 0.960 . S
C428 H415 0.960 . S
C428 C427 1.524 . S
C429 C426 1.403 . S
C429 C430 1.392 . S
C429 C433 1.495 . S
C430 C429 1.392 . S
C430 C431 1.385 . S
C430 C432 1.478 . S
C431 H425 0.930 . S
C431 C427 1.400 . S
C431 C430 1.385 . S
C432 C430 1.478 . S
C432 C434 1.381 . S
C432 C438 1.383 . S
C433 C429 1.495 . S
C433 H439 0.959 . S
C433 H440 0.961 . S
C433 H441 0.960 . S
C434 C432 1.381 . S
C434 C435 1.394 . S
C434 H442 0.930 . S
C435 C434 1.394 . S
C435 C436 1.383 . S
C435 H443 0.929 . S
C436 C435 1.383 . S
C436 C437 1.377 . S
C437 H421 0.930 . S
C437 C436 1.377 . S
C437 C438 1.379 . S
C438 H422 0.931 . S
C438 C432 1.383 . S
C438 C437 1.379 . S
H439 C433 0.959 . S
H440 C433 0.961 . S
H441 C433 0.960 . S
H442 C434 0.930 . S
H443 C435 0.929 . S
H444 C452 0.929 . S
H445 C454 0.930 . S
H446 C456 0.930 . S
H447 C459 0.929 . S
H448 C462 0.930 . S
H449 C464 0.960 . S
H450 C464 0.960 . S
H451 C464 0.960 . S
C452 H444 0.929 . S
C452 C453 1.377 . S
C452 C454 1.384 . S
C453 C452 1.377 . S
C453 C459 1.390 . S
C454 H445 0.930 . S
C454 C452 1.384 . S
C454 C455 1.372 . S
C455 C454 1.372 . S
C455 C456 1.400 . S
C455 C460 1.490 . S
C456 H446 0.930 . S
C456 C455 1.400 . S
C456 C459 1.386 . S
H457 C473 0.930 . S
H458 C474 0.931 . S
C459 H447 0.929 . S
C459 C453 1.390 . S
C459 C456 1.386 . S
C460 C455 1.490 . S
C460 C462 1.395 . S
C460 C463 1.403 . S
H461 C467 0.930 . S
C462 H448 0.930 . S
C462 C460 1.395 . S
C462 C465 1.403 . S
C463 C460 1.403 . S
C463 C464 1.524 . S
C463 C467 1.400 . S
C464 H449 0.960 . S
C464 H450 0.960 . S
C464 H451 0.960 . S
C464 C463 1.524 . S
C465 C462 1.403 . S
C465 C466 1.392 . S
C465 C469 1.495 . S
C466 C465 1.392 . S
C466 C467 1.385 . S
C466 C468 1.478 . S
C467 H461 0.930 . S
C467 C463 1.400 . S
C467 C466 1.385 . S
C468 C466 1.478 . S
C468 C470 1.381 . S
C468 C474 1.383 . S
C469 C465 1.495 . S
C469 H475 0.959 . S
C469 H476 0.961 . S
C469 H477 0.960 . S
C470 C468 1.381 . S
C470 C471 1.394 . S
C470 H478 0.930 . S
C471 C470 1.394 . S
C471 C472 1.383 . S
C471 H479 0.929 . S
C472 C471 1.383 . S
C472 C473 1.377 . S
C473 H457 0.930 . S
C473 C472 1.377 . S
C473 C474 1.379 . S
C474 H458 0.931 . S
C474 C468 1.383 . S
C474 C473 1.379 . S
H475 C469 0.959 . S
H476 C469 0.961 . S
H477 C469 0.960 . S
H478 C470 0.930 . S
H479 C471 0.929 . S
H480 C488 0.929 . S
H481 C490 0.930 . S
H482 C492 0.930 . S
H483 C495 0.929 . S
H484 C498 0.930 . S
H485 C500 0.960 . S
H486 C500 0.960 . S
H487 C500 0.960 . S
C488 H480 0.929 . S
C488 C489 1.377 . S
C488 C490 1.384 . S
C489 C488 1.377 . S
C489 C495 1.390 . S
C490 H481 0.930 . S
C490 C488 1.384 . S
C490 C491 1.372 . S
C491 C490 1.372 . S
C491 C492 1.400 . S
C491 C496 1.490 . S
C492 H482 0.930 . S
C492 C491 1.400 . S
C492 C495 1.386 . S
H493 C509 0.930 . S
H494 C510 0.931 . S
C495 H483 0.929 . S
C495 C489 1.390 . S
C495 C492 1.386 . S
C496 C491 1.490 . S
C496 C498 1.395 . S
C496 C499 1.403 . S
H497 C503 0.930 . S
C498 H484 0.930 . S
C498 C496 1.395 . S
C498 C501 1.403 1_554 S
C499 C496 1.403 . S
C499 C500 1.524 . S
C499 C503 1.400 1_554 S
C500 H485 0.960 . S
C500 H486 0.960 . S
C500 H487 0.960 . S
C500 C499 1.524 . S
C501 C498 1.403 1_556 S
C501 C502 1.392 . S
C501 C505 1.495 . S
C502 C501 1.392 . S
C502 C503 1.385 . S
C502 C504 1.478 . S
C503 H497 0.930 . S
C503 C499 1.400 1_556 S
C503 C502 1.385 . S
C504 C502 1.478 . S
C504 C506 1.381 . S
C504 C510 1.383 . S
C505 C501 1.495 . S
C505 H511 0.959 . S
C505 H512 0.961 . S
C505 H513 0.960 . S
C506 C504 1.381 . S
C506 C507 1.394 . S
C506 H514 0.930 . S
C507 C506 1.394 . S
C507 C508 1.383 . S
C507 H515 0.929 . S
C508 C507 1.383 . S
C508 C509 1.377 . S
C509 H493 0.930 . S
C509 C508 1.377 . S
C509 C510 1.379 . S
C510 H494 0.931 . S
C510 C504 1.383 . S
C510 C509 1.379 . S
H511 C505 0.959 . S
H512 C505 0.961 . S
H513 C505 0.960 . S
H514 C506 0.930 . S
H515 C507 0.929 . S
H516 C524 0.929 . S
H517 C526 0.930 . S
H518 C528 0.930 . S
H519 C531 0.929 . S
H520 C534 0.930 . S
H521 C536 0.960 . S
H522 C536 0.960 . S
H523 C536 0.960 . S
C524 H516 0.929 . S
C524 C525 1.377 . S
C524 C526 1.384 . S
C525 C524 1.377 . S
C525 C531 1.390 . S
C526 H517 0.930 . S
C526 C524 1.384 . S
C526 C527 1.372 . S
C527 C526 1.372 . S
C527 C528 1.400 . S
C527 C532 1.490 . S
C528 H518 0.930 . S
C528 C527 1.400 . S
C528 C531 1.386 . S
H529 C545 0.930 . S
H530 C546 0.931 . S
C531 H519 0.929 . S
C531 C525 1.390 . S
C531 C528 1.386 . S
C532 C527 1.490 . S
C532 C534 1.395 . S
C532 C535 1.403 . S
H533 C539 0.930 . S
C534 H520 0.930 . S
C534 C532 1.395 . S
C534 C537 1.403 . S
C535 C532 1.403 . S
C535 C536 1.524 . S
C535 C539 1.400 . S
C536 H521 0.960 . S
C536 H522 0.960 . S
C536 H523 0.960 . S
C536 C535 1.524 . S
C537 C534 1.403 . S
C537 C538 1.392 . S
C537 C541 1.495 . S
C538 C537 1.392 . S
C538 C539 1.385 . S
C538 C540 1.478 . S
C539 H533 0.930 . S
C539 C535 1.400 . S
C539 C538 1.385 . S
C540 C538 1.478 . S
C540 C542 1.381 . S
C540 C546 1.383 . S
C541 C537 1.495 . S
C541 H547 0.959 . S
C541 H548 0.961 . S
C541 H549 0.960 . S
C542 C540 1.381 . S
C542 C543 1.394 . S
C542 H550 0.930 . S
C543 C542 1.394 . S
C543 C544 1.383 . S
C543 H551 0.929 . S
C544 C543 1.383 . S
C544 C545 1.377 . S
C545 H529 0.930 . S
C545 C544 1.377 . S
C545 C546 1.379 . S
C546 H530 0.931 . S
C546 C540 1.383 . S
C546 C545 1.379 . S
H547 C541 0.959 . S
H548 C541 0.961 . S
H549 C541 0.960 . S
H550 C542 0.930 . S
H551 C543 0.929 . S
H552 C560 0.929 . S
H553 C562 0.930 . S
H554 C564 0.930 . S
H555 C567 0.929 . S
H556 C570 0.930 . S
H557 C572 0.960 . S
H558 C572 0.960 . S
H559 C572 0.960 . S
C560 H552 0.929 . S
C560 C561 1.377 . S
C560 C562 1.384 . S
C561 C560 1.377 . S
C561 C567 1.390 . S
C562 H553 0.930 . S
C562 C560 1.384 . S
C562 C563 1.372 . S
C563 C562 1.372 . S
C563 C564 1.400 . S
C563 C568 1.490 . S
C564 H554 0.930 . S
C564 C563 1.400 . S
C564 C567 1.386 . S
H565 C581 0.930 . S
H566 C582 0.931 . S
C567 H555 0.929 . S
C567 C561 1.390 . S
C567 C564 1.386 . S
C568 C563 1.490 . S
C568 C570 1.395 . S
C568 C571 1.403 . S
H569 C575 0.930 . S
C570 H556 0.930 . S
C570 C568 1.395 . S
C570 C573 1.403 . S
C571 C568 1.403 . S
C571 C572 1.524 . S
C571 C575 1.400 . S
C572 H557 0.960 . S
C572 H558 0.960 . S
C572 H559 0.960 . S
C572 C571 1.524 . S
C573 C570 1.403 . S
C573 C574 1.392 . S
C573 C577 1.495 . S
C574 C573 1.392 . S
C574 C575 1.385 . S
C574 C576 1.478 . S
C575 H569 0.930 . S
C575 C571 1.400 . S
C575 C574 1.385 . S
C576 C574 1.478 . S
C576 C578 1.381 . S
C576 C582 1.383 . S
C577 C573 1.495 . S
C577 H583 0.959 . S
C577 H584 0.961 . S
C577 H585 0.960 . S
C578 C576 1.381 . S
C578 C579 1.394 . S
C578 H586 0.930 . S
C579 C578 1.394 . S
C579 C580 1.383 . S
C579 H587 0.929 . S
C580 C579 1.383 . S
C580 C581 1.377 . S
C581 H565 0.930 . S
C581 C580 1.377 . S
C581 C582 1.379 . S
C582 H566 0.931 . S
C582 C576 1.383 . S
C582 C581 1.379 . S
H583 C577 0.959 . S
H584 C577 0.961 . S
H585 C577 0.960 . S
H586 C578 0.930 . S
H587 C579 0.929 . S
H588 C596 0.929 . S
H589 C598 0.930 . S
H590 C600 0.930 . S
H591 C603 0.929 . S
H592 C606 0.930 . S
H593 C608 0.960 . S
H594 C608 0.960 . S
H595 C608 0.960 . S
C596 H588 0.929 . S
C596 C597 1.377 . S
C596 C598 1.384 . S
C597 C596 1.377 . S
C597 C603 1.390 . S
C598 H589 0.930 . S
C598 C596 1.384 . S
C598 C599 1.372 . S
C599 C598 1.372 . S
C599 C600 1.400 . S
C599 C604 1.490 . S
C600 H590 0.930 . S
C600 C599 1.400 . S
C600 C603 1.386 . S
H601 C617 0.930 . S
H602 C618 0.931 . S
C603 H591 0.929 . S
C603 C597 1.390 . S
C603 C600 1.386 . S
C604 C599 1.490 . S
C604 C606 1.395 . S
C604 C607 1.403 . S
H605 C611 0.930 . S
C606 H592 0.930 . S
C606 C604 1.395 . S
C606 C609 1.403 . S
C607 C604 1.403 . S
C607 C608 1.524 . S
C607 C611 1.400 . S
C608 H593 0.960 . S
C608 H594 0.960 . S
C608 H595 0.960 . S
C608 C607 1.524 . S
C609 C606 1.403 . S
C609 C610 1.392 . S
C609 C613 1.495 . S
C610 C609 1.392 . S
C610 C611 1.385 . S
C610 C612 1.478 . S
C611 H605 0.930 . S
C611 C607 1.400 . S
C611 C610 1.385 . S
C612 C610 1.478 . S
C612 C614 1.381 . S
C612 C618 1.383 . S
C613 C609 1.495 . S
C613 H619 0.959 . S
C613 H620 0.961 . S
C613 H621 0.960 . S
C614 C612 1.381 . S
C614 C615 1.394 . S
C614 H622 0.930 . S
C615 C614 1.394 . S
C615 C616 1.383 . S
C615 H623 0.929 . S
C616 C615 1.383 . S
C616 C617 1.377 . S
C617 H601 0.930 . S
C617 C616 1.377 . S
C617 C618 1.379 . S
C618 H602 0.931 . S
C618 C612 1.383 . S
C618 C617 1.379 . S
H619 C613 0.959 . S
H620 C613 0.961 . S
H621 C613 0.960 . S
H622 C614 0.930 . S
H623 C615 0.929 . S
H624 C632 0.929 . S
H625 C634 0.930 . S
H626 C636 0.930 . S
H627 C639 0.929 . S
H628 C642 0.930 . S
H629 C644 0.960 . S
H630 C644 0.960 . S
H631 C644 0.960 . S
C632 H624 0.929 . S
C632 C633 1.377 . S
C632 C634 1.384 . S
C633 C632 1.377 . S
C633 C639 1.390 . S
C634 H625 0.930 . S
C634 C632 1.384 . S
C634 C635 1.372 . S
C635 C634 1.372 . S
C635 C636 1.400 . S
C635 C640 1.490 . S
C636 H626 0.930 . S
C636 C635 1.400 . S
C636 C639 1.386 . S
H637 C653 0.930 . S
H638 C654 0.931 . S
C639 H627 0.929 . S
C639 C633 1.390 . S
C639 C636 1.386 . S
C640 C635 1.490 . S
C640 C642 1.395 . S
C640 C643 1.403 . S
H641 C647 0.930 . S
C642 H628 0.930 . S
C642 C640 1.395 . S
C642 C645 1.403 . S
C643 C640 1.403 . S
C643 C644 1.524 . S
C643 C647 1.400 . S
C644 H629 0.960 . S
C644 H630 0.960 . S
C644 H631 0.960 . S
C644 C643 1.524 . S
C645 C642 1.403 . S
C645 C646 1.392 . S
C645 C649 1.495 . S
C646 C645 1.392 . S
C646 C647 1.385 . S
C646 C648 1.478 . S
C647 H641 0.930 . S
C647 C643 1.400 . S
C647 C646 1.385 . S
C648 C646 1.478 . S
C648 C650 1.381 . S
C648 C654 1.383 . S
C649 C645 1.495 . S
C649 H655 0.959 . S
C649 H656 0.961 . S
C649 H657 0.960 . S
C650 C648 1.381 . S
C650 C651 1.394 . S
C650 H658 0.930 . S
C651 C650 1.394 . S
C651 C652 1.383 . S
C651 H659 0.929 . S
C652 C651 1.383 . S
C652 C653 1.377 . S
C653 H637 0.930 . S
C653 C652 1.377 . S
C653 C654 1.379 . S
C654 H638 0.931 . S
C654 C648 1.383 . S
C654 C653 1.379 . S
H655 C649 0.959 . S
H656 C649 0.961 . S
H657 C649 0.960 . S
H658 C650 0.930 . S
H659 C651 0.929 . S
H660 C668 0.929 . S
H661 C670 0.930 . S
H662 C672 0.930 . S
H663 C675 0.929 . S
H664 C678 0.930 . S
H665 C680 0.960 . S
H666 C680 0.960 . S
H667 C680 0.960 . S
C668 H660 0.929 . S
C668 C669 1.377 . S
C668 C670 1.384 . S
C669 C668 1.377 . S
C669 C675 1.390 . S
C670 H661 0.930 . S
C670 C668 1.384 . S
C670 C671 1.372 . S
C671 C670 1.372 . S
C671 C672 1.400 . S
C671 C676 1.490 . S
C672 H662 0.930 . S
C672 C671 1.400 . S
C672 C675 1.386 . S
H673 C689 0.930 . S
H674 C690 0.931 . S
C675 H663 0.929 . S
C675 C669 1.390 . S
C675 C672 1.386 . S
C676 C671 1.490 . S
C676 C678 1.395 . S
C676 C679 1.403 . S
H677 C683 0.930 . S
C678 H664 0.930 . S
C678 C676 1.395 . S
C678 C681 1.403 . S
C679 C676 1.403 . S
C679 C680 1.524 . S
C679 C683 1.400 . S
C680 H665 0.960 . S
C680 H666 0.960 . S
C680 H667 0.960 . S
C680 C679 1.524 . S
C681 C678 1.403 . S
C681 C682 1.392 . S
C681 C685 1.495 . S
C682 C681 1.392 . S
C682 C683 1.385 . S
C682 C684 1.478 . S
C683 H677 0.930 . S
C683 C679 1.400 . S
C683 C682 1.385 . S
C684 C682 1.478 . S
C684 C686 1.381 . S
C684 C690 1.383 . S
C685 C681 1.495 . S
C685 H691 0.959 . S
C685 H692 0.961 . S
C685 H693 0.960 . S
C686 C684 1.381 . S
C686 C687 1.394 . S
C686 H694 0.930 . S
C687 C686 1.394 . S
C687 C688 1.383 . S
C687 H695 0.929 . S
C688 C687 1.383 . S
C688 C689 1.377 . S
C689 H673 0.930 . S
C689 C688 1.377 . S
C689 C690 1.379 . S
C690 H674 0.931 . S
C690 C684 1.383 . S
C690 C689 1.379 . S
H691 C685 0.959 . S
H692 C685 0.961 . S
H693 C685 0.960 . S
H694 C686 0.930 . S
H695 C687 0.929 . S
H696 C704 0.929 . S
H697 C706 0.930 . S
H698 C708 0.930 . S
H699 C711 0.929 . S
H700 C714 0.930 . S
H701 C716 0.960 . S
H702 C716 0.960 . S
H703 C716 0.960 . S
C704 H696 0.929 . S
C704 C705 1.377 . S
C704 C706 1.384 . S
C705 C704 1.377 . S
C705 C711 1.390 . S
C706 H697 0.930 . S
C706 C704 1.384 . S
C706 C707 1.372 . S
C707 C706 1.372 . S
C707 C708 1.400 . S
C707 C712 1.490 . S
C708 H698 0.930 . S
C708 C707 1.400 . S
C708 C711 1.386 . S
H709 C725 0.930 . S
H710 C726 0.931 . S
C711 H699 0.929 . S
C711 C705 1.390 . S
C711 C708 1.386 . S
C712 C707 1.490 . S
C712 C714 1.395 . S
C712 C715 1.403 . S
H713 C719 0.930 . S
C714 H700 0.930 . S
C714 C712 1.395 . S
C714 C717 1.403 . S
C715 C712 1.403 . S
C715 C716 1.524 . S
C715 C719 1.400 . S
C716 H701 0.960 . S
C716 H702 0.960 . S
C716 H703 0.960 . S
C716 C715 1.524 . S
C717 C714 1.403 . S
C717 C718 1.392 . S
C717 C721 1.495 . S
C718 C717 1.392 . S
C718 C719 1.385 . S
C718 C720 1.478 . S
C719 H713 0.930 . S
C719 C715 1.400 . S
C719 C718 1.385 . S
C720 C718 1.478 . S
C720 C722 1.381 . S
C720 C726 1.383 . S
C721 C717 1.495 . S
C721 H727 0.959 . S
C721 H728 0.961 . S
C721 H729 0.960 . S
C722 C720 1.381 . S
C722 C723 1.394 . S
C722 H730 0.930 . S
C723 C722 1.394 . S
C723 C724 1.383 . S
C723 H731 0.929 . S
C724 C723 1.383 . S
C724 C725 1.377 . S
C725 H709 0.930 . S
C725 C724 1.377 . S
C725 C726 1.379 . S
C726 H710 0.931 . S
C726 C720 1.383 . S
C726 C725 1.379 . S
H727 C721 0.959 . S
H728 C721 0.961 . S
H729 C721 0.960 . S
H730 C722 0.930 . S
H731 C723 0.929 . S
H732 C740 0.929 . S
H733 C742 0.930 . S
H734 C744 0.930 . S
H735 C747 0.929 . S
H736 C750 0.930 . S
H737 C752 0.960 . S
H738 C752 0.960 . S
H739 C752 0.960 . S
C740 H732 0.929 . S
C740 C741 1.377 . S
C740 C742 1.384 . S
C741 C740 1.377 . S
C741 C747 1.390 . S
C742 H733 0.930 . S
C742 C740 1.384 . S
C742 C743 1.372 . S
C743 C742 1.372 . S
C743 C744 1.400 . S
C743 C748 1.490 . S
C744 H734 0.930 . S
C744 C743 1.400 . S
C744 C747 1.386 . S
H745 C761 0.930 . S
H746 C762 0.931 . S
C747 H735 0.929 . S
C747 C741 1.390 . S
C747 C744 1.386 . S
C748 C743 1.490 . S
C748 C750 1.395 . S
C748 C751 1.403 . S
H749 C755 0.930 . S
C750 H736 0.930 . S
C750 C748 1.395 . S
C750 C753 1.403 . S
C751 C748 1.403 . S
C751 C752 1.524 . S
C751 C755 1.400 . S
C752 H737 0.960 . S
C752 H738 0.960 . S
C752 H739 0.960 . S
C752 C751 1.524 . S
C753 C750 1.403 . S
C753 C754 1.392 . S
C753 C757 1.495 . S
C754 C753 1.392 . S
C754 C755 1.385 . S
C754 C756 1.478 . S
C755 H749 0.930 . S
C755 C751 1.400 . S
C755 C754 1.385 . S
C756 C754 1.478 . S
C756 C758 1.381 . S
C756 C762 1.383 . S
C757 C753 1.495 . S
C757 H763 0.959 . S
C757 H764 0.961 . S
C757 H765 0.960 . S
C758 C756 1.381 . S
C758 C759 1.394 . S
C758 H766 0.930 . S
C759 C758 1.394 . S
C759 C760 1.383 . S
C759 H767 0.929 1_556 S
C760 C759 1.383 . S
C760 C761 1.377 . S
C761 H745 0.930 . S
C761 C760 1.377 . S
C761 C762 1.379 . S
C762 H746 0.931 . S
C762 C756 1.383 . S
C762 C761 1.379 . S
H763 C757 0.959 . S
H764 C757 0.961 . S
H765 C757 0.960 . S
H766 C758 0.930 . S
H767 C759 0.929 1_554 S
H768 C776 0.929 . S
H769 C778 0.930 . S
H770 C780 0.930 . S
H771 C783 0.929 1_556 S
H772 C786 0.930 . S
H773 C788 0.960 . S
H774 C788 0.960 . S
H775 C788 0.960 . S
C776 H768 0.929 . S
C776 C777 1.377 . S
C776 C778 1.384 . S
C777 C776 1.377 . S
C777 C783 1.390 . S
C778 H769 0.930 . S
C778 C776 1.384 . S
C778 C779 1.372 . S
C779 C778 1.372 . S
C779 C780 1.400 . S
C779 C784 1.490 . S
C780 H770 0.930 . S
C780 C779 1.400 . S
C780 C783 1.386 . S
H781 C797 0.930 . S
H782 C798 0.931 . S
C783 H771 0.929 1_554 S
C783 C777 1.390 . S
C783 C780 1.386 . S
C784 C779 1.490 . S
C784 C786 1.395 . S
C784 C787 1.403 . S
H785 C791 0.930 . S
C786 H772 0.930 . S
C786 C784 1.395 . S
C786 C789 1.403 . S
C787 C784 1.403 . S
C787 C788 1.524 . S
C787 C791 1.400 . S
C788 H773 0.960 . S
C788 H774 0.960 . S
C788 H775 0.960 . S
C788 C787 1.524 . S
C789 C786 1.403 . S
C789 C790 1.392 . S
C789 C793 1.495 . S
C790 C789 1.392 . S
C790 C791 1.385 . S
C790 C792 1.478 . S
C791 H785 0.930 . S
C791 C787 1.400 . S
C791 C790 1.385 . S
C792 C790 1.478 . S
C792 C794 1.381 . S
C792 C798 1.383 . S
C793 C789 1.495 . S
C793 H799 0.959 . S
C793 H800 0.961 . S
C793 H801 0.960 . S
C794 C792 1.381 . S
C794 C795 1.394 . S
C794 H802 0.930 . S
C795 C794 1.394 . S
C795 C796 1.383 . S
C795 H803 0.929 . S
C796 C795 1.383 . S
C796 C797 1.377 . S
C797 H781 0.930 . S
C797 C796 1.377 . S
C797 C798 1.379 . S
C798 H782 0.931 . S
C798 C792 1.383 . S
C798 C797 1.379 . S
H799 C793 0.959 . S
H800 C793 0.961 . S
H801 C793 0.960 . S
H802 C794 0.930 . S
H803 C795 0.929 . S
H804 C812 0.929 . S
H805 C814 0.930 . S
H806 C816 0.930 . S
H807 C819 0.929 . S
H808 C822 0.930 . S
H809 C824 0.960 . S
H810 C824 0.960 . S
H811 C824 0.960 . S
C812 H804 0.929 . S
C812 C813 1.377 . S
C812 C814 1.384 . S
C813 C812 1.377 . S
C813 C819 1.390 . S
C814 H805 0.930 . S
C814 C812 1.384 . S
C814 C815 1.372 . S
C815 C814 1.372 . S
C815 C816 1.400 . S
C815 C820 1.490 . S
C816 H806 0.930 . S
C816 C815 1.400 . S
C816 C819 1.386 . S
H817 C833 0.930 . S
H818 C834 0.931 . S
C819 H807 0.929 . S
C819 C813 1.390 . S
C819 C816 1.386 . S
C820 C815 1.490 . S
C820 C822 1.395 . S
C820 C823 1.403 . S
H821 C827 0.930 . S
C822 H808 0.930 . S
C822 C820 1.395 . S
C822 C825 1.403 . S
C823 C820 1.403 . S
C823 C824 1.524 . S
C823 C827 1.400 . S
C824 H809 0.960 . S
C824 H810 0.960 . S
C824 H811 0.960 . S
C824 C823 1.524 . S
C825 C822 1.403 . S
C825 C826 1.392 . S
C825 C829 1.495 . S
C826 C825 1.392 . S
C826 C827 1.385 . S
C826 C828 1.478 . S
C827 H821 0.930 . S
C827 C823 1.400 . S
C827 C826 1.385 . S
C828 C826 1.478 . S
C828 C830 1.381 . S
C828 C834 1.383 . S
C829 C825 1.495 . S
C829 H835 0.959 . S
C829 H836 0.961 . S
C829 H837 0.960 . S
C830 C828 1.381 . S
C830 C831 1.394 . S
C830 H838 0.930 . S
C831 C830 1.394 . S
C831 C832 1.383 . S
C831 H839 0.929 . S
C832 C831 1.383 . S
C832 C833 1.377 . S
C833 H817 0.930 . S
C833 C832 1.377 . S
C833 C834 1.379 . S
C834 H818 0.931 . S
C834 C828 1.383 . S
C834 C833 1.379 . S
H835 C829 0.959 . S
H836 C829 0.961 . S
H837 C829 0.960 . S
H838 C830 0.930 . S
H839 C831 0.929 . S
H840 C848 0.929 . S
H841 C850 0.930 . S
H842 C852 0.930 . S
H843 C855 0.929 . S
H844 C858 0.930 . S
H845 C860 0.960 . S
H846 C860 0.960 . S
H847 C860 0.960 . S
C848 H840 0.929 . S
C848 C849 1.377 . S
C848 C850 1.384 . S
C849 C848 1.377 . S
C849 C855 1.390 . S
C850 H841 0.930 . S
C850 C848 1.384 . S
C850 C851 1.372 . S
C851 C850 1.372 . S
C851 C852 1.400 . S
C851 C856 1.490 . S
C852 H842 0.930 . S
C852 C851 1.400 . S
C852 C855 1.386 . S
H853 C869 0.930 . S
H854 C870 0.931 . S
C855 H843 0.929 . S
C855 C849 1.390 . S
C855 C852 1.386 . S
C856 C851 1.490 . S
C856 C858 1.395 . S
C856 C859 1.403 . S
H857 C863 0.930 . S
C858 H844 0.930 . S
C858 C856 1.395 . S
C858 C861 1.403 . S
C859 C856 1.403 . S
C859 C860 1.524 . S
C859 C863 1.400 . S
C860 H845 0.960 . S
C860 H846 0.960 . S
C860 H847 0.960 . S
C860 C859 1.524 . S
C861 C858 1.403 . S
C861 C862 1.392 . S
C861 C865 1.495 . S
C862 C861 1.392 . S
C862 C863 1.385 . S
C862 C864 1.478 . S
C863 H857 0.930 . S
C863 C859 1.400 . S
C863 C862 1.385 . S
C864 C862 1.478 . S
C864 C866 1.381 . S
C864 C870 1.383 . S
C865 C861 1.495 . S
C865 H871 0.959 . S
C865 H872 0.961 . S
C865 H873 0.960 . S
C866 C864 1.381 . S
C866 C867 1.394 . S
C866 H874 0.930 . S
C867 C866 1.394 . S
C867 C868 1.383 . S
C867 H875 0.929 . S
C868 C867 1.383 . S
C868 C869 1.377 . S
C869 H853 0.930 . S
C869 C868 1.377 . S
C869 C870 1.379 . S
C870 H854 0.931 . S
C870 C864 1.383 . S
C870 C869 1.379 . S
H871 C865 0.959 . S
H872 C865 0.961 . S
H873 C865 0.960 . S
H874 C866 0.930 . S
H875 C867 0.929 . S
H876 C884 0.929 . S
H877 C886 0.930 . S
H878 C888 0.930 . S
H879 C891 0.929 . S
H880 C894 0.930 . S
H881 C896 0.960 . S
H882 C896 0.960 1_556 S
H883 C896 0.960 . S
C884 H876 0.929 . S
C884 C885 1.377 . S
C884 C886 1.384 . S
C885 C884 1.377 . S
C885 C891 1.390 1_556 S
C886 H877 0.930 . S
C886 C884 1.384 . S
C886 C887 1.372 . S
C887 C886 1.372 . S
C887 C888 1.400 1_556 S
C887 C892 1.490 . S
C888 H878 0.930 . S
C888 C887 1.400 1_554 S
C888 C891 1.386 . S
H889 C905 0.930 . S
H890 C906 0.931 . S
C891 H879 0.929 . S
C891 C885 1.390 1_554 S
C891 C888 1.386 . S
C892 C887 1.490 . S
C892 C894 1.395 . S
C892 C895 1.396 1_556 S
H893 C899 0.930 . S
C894 H880 0.930 . S
C894 C892 1.395 . S
C894 C897 1.403 . S
C895 C892 1.396 1_554 S
C895 C896 1.525 . S
C895 C899 1.405 . S
C896 H881 0.960 . S
C896 H882 0.960 1_554 S
C896 H883 0.960 . S
C896 C895 1.525 . S
C897 C894 1.403 . S
C897 C898 1.392 1_556 S
C897 C901 1.495 . S
C898 C897 1.392 1_554 S
C898 C899 1.385 . S
C898 C900 1.478 . S
C899 H893 0.930 . S
C899 C895 1.405 . S
C899 C898 1.385 . S
C900 C898 1.478 . S
C900 C902 1.381 1_554 S
C900 C906 1.383 . S
C901 C897 1.495 . S
C901 H907 0.959 . S
C901 H908 0.961 1_556 S
C901 H909 0.960 . S
C902 C900 1.381 1_556 S
C902 C903 1.394 . S
C902 H910 0.930 . S
C903 C902 1.394 . S
C903 C904 1.383 1_556 S
C903 H911 0.929 . S
C904 C903 1.383 1_554 S
C904 C905 1.377 . S
C905 H889 0.930 . S
C905 C904 1.377 . S
C905 C906 1.379 . S
C906 H890 0.931 . S
C906 C900 1.383 . S
C906 C905 1.379 . S
H907 C901 0.959 . S
H908 C901 0.961 1_554 S
H909 C901 0.960 . S
H910 C902 0.930 . S
H911 C903 0.929 . S
H912 C920 0.929 . S
H913 C922 0.930 . S
H914 C924 0.930 . S
H915 C927 0.929 . S
H916 C930 0.930 . S
H917 C932 0.960 . S
H918 C932 0.960 . S
H919 C932 0.960 . S
C920 H912 0.929 . S
C920 C921 1.377 . S
C920 C922 1.384 . S
C921 C920 1.377 . S
C921 C927 1.390 . S
C922 H913 0.930 . S
C922 C920 1.384 . S
C922 C923 1.372 . S
C923 C922 1.372 . S
C923 C924 1.400 . S
C923 C928 1.490 . S
C924 H914 0.930 . S
C924 C923 1.400 . S
C924 C927 1.386 . S
H925 C941 0.930 . S
H926 C942 0.931 . S
C927 H915 0.929 . S
C927 C921 1.390 . S
C927 C924 1.386 . S
C928 C923 1.490 . S
C928 C930 1.395 . S
C928 C931 1.403 . S
H929 C935 0.930 . S
C930 H916 0.930 . S
C930 C928 1.395 . S
C930 C933 1.403 . S
C931 C928 1.403 . S
C931 C932 1.524 . S
C931 C935 1.400 . S
C932 H917 0.960 . S
C932 H918 0.960 . S
C932 H919 0.960 . S
C932 C931 1.524 . S
C933 C930 1.403 . S
C933 C934 1.392 . S
C933 C937 1.495 . S
C934 C933 1.392 . S
C934 C935 1.385 . S
C934 C936 1.478 . S
C935 H929 0.930 . S
C935 C931 1.400 . S
C935 C934 1.385 . S
C936 C934 1.478 . S
C936 C938 1.381 . S
C936 C942 1.383 . S
C937 C933 1.495 . S
C937 H943 0.959 . S
C937 H944 0.961 . S
C937 H945 0.960 . S
C938 C936 1.381 . S
C938 C939 1.394 . S
C938 H946 0.930 . S
C939 C938 1.394 . S
C939 C940 1.383 . S
C939 H947 0.929 . S
C940 C939 1.383 . S
C940 C941 1.377 . S
C941 H925 0.930 . S
C941 C940 1.377 . S
C941 C942 1.379 . S
C942 H926 0.931 . S
C942 C936 1.383 . S
C942 C941 1.379 . S
H943 C937 0.959 . S
H944 C937 0.961 . S
H945 C937 0.960 . S
H946 C938 0.930 . S
H947 C939 0.929 . S
H948 C956 0.929 . S
H949 C958 0.930 . S
H950 C960 0.930 . S
H951 C963 0.929 . S
H952 C966 0.930 . S
H953 C968 0.960 . S
H954 C968 0.960 . S
H955 C968 0.960 . S
C956 H948 0.929 . S
C956 C957 1.377 . S
C956 C958 1.384 . S
C957 C956 1.377 . S
C957 C963 1.390 . S
C958 H949 0.930 . S
C958 C956 1.384 . S
C958 C959 1.372 . S
C959 C958 1.372 . S
C959 C960 1.400 . S
C959 C964 1.490 . S
C960 H950 0.930 . S
C960 C959 1.400 . S
C960 C963 1.386 . S
H961 C977 0.930 . S
H962 C978 0.931 . S
C963 H951 0.929 . S
C963 C957 1.390 . S
C963 C960 1.386 . S
C964 C959 1.490 . S
C964 C966 1.395 . S
C964 C967 1.403 . S
H965 C971 0.930 . S
C966 H952 0.930 . S
C966 C964 1.395 . S
C966 C969 1.403 . S
C967 C964 1.403 . S
C967 C968 1.524 . S
C967 C971 1.400 . S
C968 H953 0.960 . S
C968 H954 0.960 . S
C968 H955 0.960 . S
C968 C967 1.524 . S
C969 C966 1.403 . S
C969 C970 1.392 . S
C969 C973 1.495 . S
C970 C969 1.392 . S
C970 C971 1.385 . S
C970 C972 1.478 . S
C971 H965 0.930 . S
C971 C967 1.400 . S
C971 C970 1.385 . S
C972 C970 1.478 . S
C972 C974 1.381 . S
C972 C978 1.383 . S
C973 C969 1.495 . S
C973 H979 0.959 . S
C973 H980 0.961 . S
C973 H981 0.960 . S
C974 C972 1.381 . S
C974 C975 1.394 . S
C974 H982 0.930 . S
C975 C974 1.394 . S
C975 C976 1.383 . S
C975 H983 0.929 . S
C976 C975 1.383 . S
C976 C977 1.377 . S
C977 H961 0.930 . S
C977 C976 1.377 . S
C977 C978 1.379 . S
C978 H962 0.931 . S
C978 C972 1.383 . S
C978 C977 1.379 . S
H979 C973 0.959 . S
H980 C973 0.961 . S
H981 C973 0.960 . S
H982 C974 0.930 . S
H983 C975 0.929 . S
H984 C992 0.929 . S
H985 C994 0.930 1_556 S
H986 C996 0.930 . S
H987 C999 0.929 . S
H988 C1002 0.930 . S
H989 C1004 0.960 . S
H990 C1004 0.960 . S
H991 C1004 0.960 . S
C992 H984 0.929 . S
C992 C993 1.377 . S
C992 C994 1.384 . S
C993 C992 1.377 . S
C993 C999 1.390 . S
C994 H985 0.930 1_554 S
C994 C992 1.384 . S
C994 C995 1.372 . S
C995 C994 1.372 . S
C995 C996 1.400 . S
C995 C1000 1.490 . S
C996 H986 0.930 . S
C996 C995 1.400 . S
C996 C999 1.386 . S
H997 C1013 0.930 . S
H998 C1014 0.931 . S
C999 H987 0.929 . S
C999 C993 1.390 . S
C999 C996 1.386 . S
C1000 C995 1.490 . S
C1000 C1002 1.395 1_554 S
C1000 C1003 1.403 . S
H1001 C1007 0.930 . S
C1002 H988 0.930 . S
C1002 C1000 1.395 1_556 S
C1002 C1005 1.403 . S
C1003 C1000 1.403 . S
C1003 C1004 1.524 . S
C1003 C1007 1.400 . S
C1004 H989 0.960 . S
C1004 H990 0.960 . S
C1004 H991 0.960 . S
C1004 C1003 1.524 . S
C1005 C1002 1.403 . S
C1005 C1006 1.392 . S
C1005 C1009 1.495 . S
C1006 C1005 1.392 . S
C1006 C1007 1.385 1_556 S
C1006 C1008 1.478 . S
C1007 H1001 0.930 . S
C1007 C1003 1.400 . S
C1007 C1006 1.385 1_554 S
C1008 C1006 1.478 . S
C1008 C1010 1.381 . S
C1008 C1014 1.383 . S
C1009 C1005 1.495 . S
C1009 H1015 0.959 . S
C1009 H1016 0.961 . S
C1009 H1017 0.960 . S
C1010 C1008 1.381 . S
C1010 C1011 1.394 . S
C1010 H1018 0.930 . S
C1011 C1010 1.394 . S
C1011 C1012 1.383 . S
C1011 H1019 0.929 . S
C1012 C1011 1.383 . S
C1012 C1013 1.377 . S
C1013 H997 0.930 . S
C1013 C1012 1.377 . S
C1013 C1014 1.379 . S
C1014 H998 0.931 . S
C1014 C1008 1.383 . S
C1014 C1013 1.379 . S
H1015 C1009 0.959 . S
H1016 C1009 0.961 . S
H1017 C1009 0.960 . S
H1018 C1010 0.930 . S
H1019 C1011 0.929 . S
C165 C5 1.251 . S
C184 C122 1.219 . S
C201 C18 1.240 . S
C220 C135 1.275 . S
C237 C31 1.247 . S
C256 C148 1.239 . S
C273 C44 1.253 . S
C292 C83 1.212 . S
C309 C96 1.240 . S
C328 C57 1.275 . S
C345 C109 1.252 . S
C364 C70 1.216 . S
C381 C130 1.675 . S
C400 C0 1.680 . S
C417 C13 1.678 . S
C436 C143 1.659 . S
C453 C26 1.675 . S
C472 C78 1.660 . S
C489 C39 1.674 . S
C508 C91 1.662 . S
C525 C52 1.671 . S
C544 C104 1.677 . S
C561 C65 1.678 . S
C580 C117 1.663 . S
C597 C138 0.721 . S
C616 C8 0.758 . S
C633 C21 0.722 . S
C652 C151 0.758 . S
C669 C34 0.714 . S
C688 C86 0.715 . S
C705 C47 0.729 . S
C724 C99 0.720 . S
C741 C60 0.715 . S
C760 C112 0.739 . S
C777 C73 0.718 . S
C796 C125 0.754 . S
C813 C10 1.574 . S
C832 C88 1.559 . S
C849 C101 1.573 . S
C868 C23 1.572 . S
C885 C36 1.579 . S
C904 C114 1.567 . S
C921 C49 1.574 . S
C940 C127 1.559 . S
C957 C62 1.573 . S
C976 C140 1.578 . S
C993 C153 1.576 . S
C1012 C75 1.589 . S
