# Generated by pormake.
# Topology upa, (4)-cn, num edge types: 1
# Building blocks:
#     Node 0, Type 0, BuildingBlock: KUFVIS_clean_sbu_0, # of connection points: 4
#     Node 1, Type 0, BuildingBlock: KUFVIS_clean_sbu_0, # of connection points: 4
#     Node 2, Type 0, BuildingBlock: KUFVIS_clean_sbu_0, # of connection points: 4
#     Node 3, Type 0, BuildingBlock: KUFVIS_clean_sbu_0, # of connection points: 4
#     Node 4, Type 0, BuildingBlock: KUFVIS_clean_sbu_0, # of connection points: 4
#     Node 5, Type 0, BuildingBlock: KUFVIS_clean_sbu_0, # of connection points: 4
#     Node 6, Type 0, BuildingBlock: KUFVIS_clean_sbu_0, # of connection points: 4
#     Node 7, Type 0, BuildingBlock: KUFVIS_clean_sbu_0, # of connection points: 4
#     Edge 8, Type (0, 0), BuildingBlock: XIVTED_clean_linker_0, # of connection points: 2
#     Edge 9, Type (0, 0), BuildingBlock: XIVTED_clean_linker_0, # of connection points: 2
#     Edge 10, Type (0, 0), BuildingBlock: XIVTED_clean_linker_0, # of connection points: 2
#     Edge 11, Type (0, 0), BuildingBlock: XIVTED_clean_linker_0, # of connection points: 2
#     Edge 12, Type (0, 0), BuildingBlock: XIVTED_clean_linker_0, # of connection points: 2
#     Edge 13, Type (0, 0), BuildingBlock: XIVTED_clean_linker_0, # of connection points: 2
#     Edge 14, Type (0, 0), BuildingBlock: XIVTED_clean_linker_0, # of connection points: 2
#     Edge 15, Type (0, 0), BuildingBlock: XIVTED_clean_linker_0, # of connection points: 2
#     Edge 16, Type (0, 0), BuildingBlock: XIVTED_clean_linker_0, # of connection points: 2
#     Edge 17, Type (0, 0), BuildingBlock: XIVTED_clean_linker_0, # of connection points: 2
#     Edge 18, Type (0, 0), BuildingBlock: XIVTED_clean_linker_0, # of connection points: 2
#     Edge 19, Type (0, 0), BuildingBlock: XIVTED_clean_linker_0, # of connection points: 2
#     Edge 20, Type (0, 0), BuildingBlock: XIVTED_clean_linker_0, # of connection points: 2
#     Edge 21, Type (0, 0), BuildingBlock: XIVTED_clean_linker_0, # of connection points: 2
#     Edge 22, Type (0, 0), BuildingBlock: XIVTED_clean_linker_0, # of connection points: 2
#     Edge 23, Type (0, 0), BuildingBlock: XIVTED_clean_linker_0, # of connection points: 2
# Relax obj value: 0.188
# Max RMSD: 0.139
# Mean RMSD: 0.139
data_MOF--net-upa--node1-KUFVIS_clean_sbu_0--edge1-XIVTED_clean_linker_0
_symmetry_space_group_name_H-M    P1
_symmetry_Int_Tables_number       1
_symmetry_cell_setting            triclinic
loop_
_symmetry_equiv_pos_as_xyz
'x, y, z'
_cell_length_a     25.553248
_cell_length_b     25.544666
_cell_length_c     44.34774
_cell_angle_alpha  90.013617
_cell_angle_beta   89.931618
_cell_angle_gamma 90.033937
loop_
_atom_site_label
_atom_site_type_symbol
_atom_site_fract_x
_atom_site_fract_y
_atom_site_fract_z
_atom_type_partial_charge
Mn0 Mn 0.19616 0.21016 0.34429 0.0
Mn1 Mn 0.25752 0.10201 0.36928 0.0
C2 C 0.14907 0.14245 0.36565 0.0
C3 C 0.14807 0.25072 0.30562 0.0
C4 C 0.25261 0.20339 0.40521 0.0
O5 O 0.26867 0.21692 0.32452 0.0
O6 O 0.30459 0.14193 0.34173 0.0
C7 C 0.26354 0.04599 0.31089 0.0
N8 N 0.24742 0.04768 0.34017 0.0
C9 C 0.20444 0.9642 0.33543 0.0
C10 C 0.22113 0.96133 0.30535 0.0
C11 C 0.25077 1.00244 0.29303 0.0
C12 C 0.21877 0.00837 0.35223 0.0
H13 H 0.28568 0.07779 0.30117 0.0
C14 C 0.30666 0.18425 0.32619 0.0
O15 O 0.16826 0.27821 0.32743 0.0
O16 O 0.16113 0.20195 0.30471 0.0
N17 N 0.21596 0.05951 0.39564 0.0
C18 C 0.2017 0.06891 0.42477 0.0
C19 C 0.17114 0.0319 0.44023 0.0
C20 C 0.15568 0.98561 0.42564 0.0
C21 C 0.1714 0.97648 0.3958 0.0
C22 C 0.20242 0.01447 0.38165 0.0
H23 H 0.21313 0.10457 0.43605 0.0
O24 O 0.12967 0.1891 0.36443 0.0
O25 O 0.19536 0.1367 0.35397 0.0
O26 O 0.22667 0.23011 0.38584 0.0
O27 O 0.26717 0.15604 0.40075 0.0
C28 C 0.15691 0.93151 0.37941 0.0
C29 C 0.1734 0.92539 0.34925 0.0
H30 H 0.21102 0.92799 0.29142 0.0
H31 H 0.26344 1.00071 0.26976 0.0
H32 H 0.1592 0.03922 0.46327 0.0
H33 H 0.13159 0.95744 0.43753 0.0
H34 H 0.13275 0.90158 0.38972 0.0
H35 H 0.16162 0.89086 0.33679 0.0
Mn36 Mn 0.30897 0.69135 0.84433 0.0
Mn37 Mn 0.41638 0.75373 0.86959 0.0
C38 C 0.37691 0.64493 0.86573 0.0
C39 C 0.269 0.64275 0.80563 0.0
C40 C 0.31496 0.74771 0.90542 0.0
O41 O 0.30182 0.7636 0.82448 0.0
O42 O 0.3758 0.80066 0.84232 0.0
C43 C 0.47209 0.76134 0.81113 0.0
N44 N 0.47068 0.7447 0.84031 0.0
C45 C 0.55458 0.70282 0.83517 0.0
C46 C 0.55715 0.72001 0.80518 0.0
C47 C 0.51569 0.74935 0.79312 0.0
C48 C 0.51034 0.71635 0.85212 0.0
H49 H 0.44006 0.7833 0.8016 0.0
C50 C 0.33379 0.80215 0.82652 0.0
O51 O 0.24125 0.66282 0.8274 0.0
O52 O 0.31768 0.65615 0.8048 0.0
N53 N 0.4595 0.71238 0.89564 0.0
C54 C 0.45043 0.69765 0.92472 0.0
C55 C 0.48786 0.66737 0.93995 0.0
C56 C 0.53423 0.65265 0.92518 0.0
C57 C 0.54299 0.66884 0.89539 0.0
C58 C 0.50458 0.69955 0.88148 0.0
H59 H 0.4147 0.70845 0.93613 0.0
O60 O 0.33041 0.62515 0.86456 0.0
O61 O 0.38237 0.69126 0.85407 0.0
O62 O 0.28845 0.7221 0.88579 0.0
O63 O 0.3624 0.76223 0.90121 0.0
C64 C 0.58802 0.65512 0.87883 0.0
C65 C 0.5938 0.67208 0.84874 0.0
H66 H 0.59054 0.71052 0.79114 0.0
H67 H 0.51721 0.76243 0.76992 0.0
H68 H 0.48081 0.65505 0.96295 0.0
H69 H 0.56272 0.62878 0.93689 0.0
H70 H 0.61827 0.63121 0.88894 0.0
H71 H 0.6284 0.66092 0.83615 0.0
Mn72 Mn 0.81759 0.81224 0.34293 0.0
Mn73 Mn 0.75618 0.92117 0.36684 0.0
C74 C 0.86461 0.8804 0.36381 0.0
C75 C 0.86605 0.77088 0.30459 0.0
C76 C 0.76016 0.82056 0.40354 0.0
O77 O 0.74523 0.80515 0.32307 0.0
O78 O 0.70949 0.88095 0.33928 0.0
C79 C 0.7516 0.97618 0.30812 0.0
N80 N 0.76706 0.97497 0.33749 0.0
C81 C 0.81043 0.05821 0.33254 0.0
C82 C 0.79441 0.0606 0.30235 0.0
C83 C 0.76491 0.01937 0.29009 0.0
C84 C 0.79554 0.01442 0.34951 0.0
H85 H 0.72959 0.94426 0.29844 0.0
C86 C 0.70744 0.83814 0.32418 0.0
O87 O 0.8457 0.74383 0.32657 0.0
O88 O 0.85293 0.8196 0.30334 0.0
N89 N 0.79744 0.96393 0.39317 0.0
C90 C 0.81132 0.95484 0.42237 0.0
C91 C 0.84186 0.99192 0.43776 0.0
C92 C 0.8577 0.03795 0.42303 0.0
C93 C 0.84237 0.04676 0.39311 0.0
C94 C 0.81134 0.00873 0.37904 0.0
H95 H 0.79963 0.91936 0.43376 0.0
O96 O 0.88395 0.83369 0.36301 0.0
O97 O 0.81844 0.88591 0.35202 0.0
O98 O 0.78666 0.79333 0.38461 0.0
O99 O 0.74565 0.86775 0.39854 0.0
C100 C 0.85735 0.0914 0.37656 0.0
C101 C 0.84142 0.09711 0.34629 0.0
H102 H 0.80498 0.09364 0.28829 0.0
H103 H 0.75277 0.02071 0.26673 0.0
H104 H 0.8535 0.98484 0.46086 0.0
H105 H 0.8818 0.06615 0.43486 0.0
H106 H 0.88156 0.12133 0.3868 0.0
H107 H 0.85363 0.13134 0.33371 0.0
Mn108 Mn 0.71582 0.32178 0.84466 0.0
Mn109 Mn 0.6083 0.25679 0.86787 0.0
C110 C 0.64531 0.36652 0.86424 0.0
C111 C 0.75924 0.37055 0.80738 0.0
C112 C 0.70589 0.26651 0.90619 0.0
O113 O 0.72577 0.24988 0.82463 0.0
O114 O 0.65369 0.20997 0.84323 0.0
C115 C 0.55952 0.24377 0.80779 0.0
N116 N 0.55714 0.26219 0.83659 0.0
C117 C 0.47251 0.30052 0.82774 0.0
C118 C 0.47392 0.28164 0.79806 0.0
C119 C 0.51762 0.25315 0.78805 0.0
C120 C 0.51524 0.28962 0.84645 0.0
H121 H 0.59321 0.22228 0.79988 0.0
C122 C 0.696 0.20982 0.82767 0.0
O123 O 0.78453 0.3514 0.83031 0.0
O124 O 0.71076 0.35699 0.80473 0.0
N125 N 0.5608 0.29757 0.89162 0.0
C126 C 0.56586 0.31366 0.92078 0.0
C127 C 0.52568 0.34317 0.93413 0.0
C128 C 0.48067 0.35557 0.91745 0.0
C129 C 0.47595 0.33777 0.88767 0.0
C130 C 0.51701 0.30801 0.87566 0.0
H131 H 0.60053 0.30455 0.93364 0.0
O132 O 0.69143 0.38732 0.86428 0.0
O133 O 0.64159 0.32004 0.85245 0.0
O134 O 0.73357 0.29155 0.88681 0.0
O135 O 0.65883 0.25173 0.90126 0.0
C136 C 0.43241 0.34893 0.8693 0.0
C137 C 0.43071 0.33035 0.83936 0.0
H138 H 0.44183 0.28907 0.78271 0.0
H139 H 0.51912 0.23868 0.76513 0.0
H140 H 0.52956 0.35664 0.95716 0.0
H141 H 0.45003 0.37885 0.92772 0.0
H142 H 0.40019 0.37208 0.87792 0.0
H143 H 0.39719 0.3395 0.82539 0.0
Mn144 Mn 0.69638 0.31186 0.18558 0.0
Mn145 Mn 0.759 0.4194 0.16058 0.0
C146 C 0.65009 0.38029 0.16458 0.0
C147 C 0.64772 0.27163 0.22425 0.0
C148 C 0.75228 0.31851 0.12434 0.0
O149 O 0.7687 0.30413 0.20523 0.0
O150 O 0.80596 0.37817 0.18751 0.0
C151 C 0.76756 0.47433 0.2192 0.0
N152 N 0.75067 0.47341 0.19008 0.0
C153 C 0.70973 0.55772 0.19561 0.0
C154 C 0.72719 0.55979 0.22555 0.0
C155 C 0.7562 0.51788 0.23739 0.0
C156 C 0.7227 0.51354 0.17847 0.0
H157 H 0.78926 0.44196 0.22855 0.0
C158 C 0.80738 0.33595 0.20317 0.0
O159 O 0.66748 0.24404 0.20232 0.0
O160 O 0.66146 0.32022 0.22523 0.0
N161 N 0.7176 0.46308 0.13486 0.0
C162 C 0.70197 0.45419 0.10593 0.0
C163 C 0.6716 0.49191 0.09101 0.0
C164 C 0.6577 0.53838 0.10593 0.0
C165 C 0.67472 0.54692 0.13557 0.0
C166 C 0.70544 0.5082 0.14918 0.0
H167 H 0.71211 0.41836 0.09443 0.0
O168 O 0.63024 0.33379 0.16557 0.0
O169 O 0.69649 0.38548 0.17617 0.0
O170 O 0.72679 0.29175 0.14395 0.0
O171 O 0.76693 0.36585 0.12871 0.0
C172 C 0.66168 0.59196 0.1523 0.0
C173 C 0.67915 0.59735 0.1823 0.0
H174 H 0.71815 0.59312 0.23973 0.0
H175 H 0.76947 0.519 0.26054 0.0
H176 H 0.6586 0.48501 0.06814 0.0
H177 H 0.63376 0.56712 0.09446 0.0
H178 H 0.6378 0.62246 0.14241 0.0
H179 H 0.66843 0.63192 0.19504 0.0
Mn180 Mn 0.21097 0.191 0.6843 0.0
Mn181 Mn 0.10359 0.25363 0.65931 0.0
C182 C 0.14279 0.14466 0.663 0.0
C183 C 0.25106 0.14259 0.72299 0.0
C184 C 0.20494 0.24773 0.62339 0.0
O185 O 0.21845 0.26337 0.70407 0.0
O186 O 0.14402 0.30027 0.68682 0.0
C187 C 0.04763 0.26036 0.71771 0.0
N188 N 0.04918 0.24412 0.68846 0.0
C189 C 0.9653 0.20198 0.69328 0.0
C190 C 0.96259 0.21875 0.72335 0.0
C191 C 1.00396 0.24803 0.73561 0.0
C192 C 0.0096 0.21584 0.67645 0.0
H193 H 0.0796 0.28227 0.72738 0.0
C194 C 0.1863 0.30179 0.70238 0.0
O195 O 0.27873 0.16249 0.70113 0.0
O196 O 0.2024 0.15601 0.72389 0.0
N197 N 0.06065 0.21254 0.633 0.0
C198 C 0.06985 0.19828 0.60385 0.0
C199 C 0.03251 0.16814 0.58842 0.0
C200 C 0.9861 0.15311 0.60305 0.0
C201 C 0.97719 0.16884 0.63291 0.0
C202 C 0.01551 0.19944 0.64703 0.0
H203 H 0.10559 0.20939 0.59254 0.0
O204 O 0.18921 0.12473 0.66419 0.0
O205 O 0.13756 0.19103 0.67465 0.0
O206 O 0.23131 0.22142 0.64275 0.0
O207 O 0.15773 0.26273 0.62782 0.0
C208 C 0.9321 0.1548 0.64934 0.0
C209 C 0.92617 0.17133 0.67951 0.0
H210 H 0.92915 0.209 0.7373 0.0
H211 H 1.00234 0.26079 0.75887 0.0
H212 H 0.03965 0.15619 0.56537 0.0
H213 H 0.95767 0.12935 0.59119 0.0
H214 H 0.90192 0.13096 0.63907 0.0
H215 H 0.89153 0.15992 0.69199 0.0
Mn216 Mn 0.31814 0.7095 0.18385 0.0
Mn217 Mn 0.25518 0.6015 0.15988 0.0
C218 C 0.36425 0.64048 0.16323 0.0
C219 C 0.36685 0.75026 0.22227 0.0
C220 C 0.26123 0.70196 0.12314 0.0
O221 O 0.24573 0.71771 0.20356 0.0
O222 O 0.20878 0.64253 0.18725 0.0
C223 C 0.24843 0.54651 0.21854 0.0
N224 N 0.26456 0.54752 0.18926 0.0
C225 C 0.30607 0.46343 0.19434 0.0
C226 C 0.28939 0.46126 0.22444 0.0
C227 C 0.26049 0.50301 0.23659 0.0
C228 C 0.29242 0.50755 0.17735 0.0
H229 H 0.22682 0.57878 0.22812 0.0
C230 C 0.20734 0.68537 0.20235 0.0
O231 O 0.34726 0.77752 0.20019 0.0
O232 O 0.35292 0.70175 0.22353 0.0
N233 N 0.29619 0.55811 0.13374 0.0
C234 C 0.31112 0.56717 0.10469 0.0
C235 C 0.34137 0.52966 0.08946 0.0
C236 C 0.35587 0.48323 0.1042 0.0
C237 C 0.33958 0.47452 0.13398 0.0
C238 C 0.30893 0.51303 0.1479 0.0
H239 H 0.30045 0.60295 0.0933 0.0
O240 O 0.38428 0.68692 0.16393 0.0
O241 O 0.31784 0.63576 0.1749 0.0
O242 O 0.28799 0.72882 0.14208 0.0
O243 O 0.24598 0.65499 0.12813 0.0
C244 C 0.35328 0.42954 0.15055 0.0
C245 C 0.33656 0.424 0.18071 0.0
H246 H 0.29899 0.42797 0.23852 0.0
H247 H 0.24782 0.50181 0.25988 0.0
H248 H 0.3538 0.53668 0.06647 0.0
H249 H 0.37971 0.45466 0.09248 0.0
H250 H 0.37712 0.3992 0.14042 0.0
H251 H 0.3478 0.38949 0.19332 0.0
Mn252 Mn 0.80365 0.82152 0.68376 0.0
Mn253 Mn 0.91 0.75689 0.65876 0.0
C254 C 0.87368 0.86651 0.66375 0.0
C255 C 0.76116 0.87003 0.72143 0.0
C256 C 0.81157 0.76844 0.62144 0.0
O257 O 0.79427 0.74948 0.70362 0.0
O258 O 0.86456 0.7094 0.68307 0.0
C259 C 0.95962 0.74075 0.71838 0.0
N260 N 0.9617 0.76046 0.68986 0.0
C261 C 0.04676 0.79784 0.69888 0.0
C262 C 0.04563 0.77763 0.72827 0.0
C263 C 1.00187 0.74897 0.73804 0.0
C264 C 1.00367 0.78807 0.68021 0.0
H265 H 0.92592 0.71909 0.72613 0.0
C266 C 0.82324 0.70916 0.69952 0.0
O267 O 0.73532 0.85083 0.69871 0.0
O268 O 0.80972 0.85651 0.72371 0.0
N269 N 0.9576 0.79825 0.63537 0.0
C270 C 0.95233 0.81559 0.60647 0.0
C271 C 0.99259 0.84538 0.59337 0.0
C272 C 0.03789 0.85678 0.61004 0.0
C273 C 0.04283 0.83769 0.63954 0.0
C274 C 1.00167 0.80773 0.65129 0.0
H275 H 0.91743 0.80731 0.59362 0.0
O276 O 0.82756 0.88725 0.66414 0.0
O277 O 0.87768 0.81984 0.67525 0.0
O278 O 0.78443 0.79177 0.64174 0.0
O279 O 0.85893 0.7539 0.6255 0.0
C280 C 0.08669 0.84776 0.65787 0.0
C281 C 0.08864 0.82788 0.68752 0.0
H282 H 0.078 0.78416 0.74357 0.0
H283 H 1.00059 0.73346 0.76074 0.0
H284 H 0.98854 0.85986 0.57056 0.0
H285 H 0.0686 0.88028 0.59998 0.0
H286 H 0.119 0.87104 0.64944 0.0
H287 H 0.12242 0.83618 0.70146 0.0
H288 H 0.08793 0.12225 0.41464 0.0
H289 H 0.88825 0.95491 0.32302 0.0
H290 H 0.12495 0.06757 0.32521 0.0
H291 H 0.92594 0.90142 0.41255 0.0
H292 H 0.96073 0.01775 0.32589 0.0
H293 H 0.01568 0.05818 0.41707 0.0
C294 C 0.08142 0.09589 0.39588 0.0
C295 C 0.11293 0.09869 0.37005 0.0
C296 C 0.95249 0.99272 0.34504 0.0
C297 C 0.02969 0.0287 0.37195 0.0
C298 C 0.91096 0.95759 0.34359 0.0
C299 C 0.90075 0.92424 0.36791 0.0
C300 C 0.98358 0.99449 0.37103 0.0
C301 C 0.93235 0.92748 0.39365 0.0
C302 C 0.04038 0.05983 0.39722 0.0
C303 C 0.10225 0.06529 0.34581 0.0
N304 N 0.9724 0.96251 0.39472 0.0
N305 N 0.06095 0.03201 0.34717 0.0
H306 H 0.39773 0.58371 0.91454 0.0
H307 H 0.57031 0.38734 0.8232 0.0
H308 H 0.45183 0.62164 0.8251 0.0
H309 H 0.62205 0.42758 0.91272 0.0
H310 H 0.50532 0.45794 0.82581 0.0
H311 H 0.46292 0.51254 0.91688 0.0
C312 C 0.42413 0.57759 0.89574 0.0
C313 C 0.42092 0.60911 0.86996 0.0
C314 C 0.53044 0.45063 0.84501 0.0
C315 C 0.49216 0.52703 0.87175 0.0
C316 C 0.56681 0.41017 0.8437 0.0
C317 C 0.6003 0.40124 0.8681 0.0
C318 C 0.52758 0.48189 0.87094 0.0
C319 C 0.59594 0.43299 0.89376 0.0
C320 C 0.46081 0.53715 0.89703 0.0
C321 C 0.45442 0.59894 0.84567 0.0
N322 N 0.55974 0.47193 0.89469 0.0
N323 N 0.48835 0.55821 0.84698 0.0
H324 H 0.63013 0.45718 0.20464 0.0
H325 H 0.38395 0.56493 0.20409 0.0
H326 H 0.58575 0.39963 0.11695 0.0
H327 H 0.42854 0.61931 0.11572 0.0
H328 H 0.45671 0.50241 0.20286 0.0
H329 H 0.55728 0.51957 0.20274 0.0
C330 C 0.60587 0.45887 0.18463 0.0
C331 C 0.61424 0.42439 0.1606 0.0
C332 C 0.45 0.52762 0.18361 0.0
C333 C 0.53048 0.49361 0.1588 0.0
C334 C 0.40823 0.5625 0.18409 0.0
C335 C 0.39996 0.59615 0.15967 0.0
C336 C 0.48364 0.52678 0.15861 0.0
C337 C 0.43354 0.59314 0.1347 0.0
C338 C 0.56406 0.49367 0.18379 0.0
C339 C 0.58068 0.42645 0.13563 0.0
N340 N 0.47405 0.55864 0.13467 0.0
N341 N 0.54014 0.46091 0.13523 0.0
H342 H 0.12149 0.08418 0.61393 0.0
H343 H 0.9499 0.88599 0.70431 0.0
H344 H 0.06799 0.12096 0.70364 0.0
H345 H 0.8957 0.92922 0.61576 0.0
H346 H 0.01497 0.95662 0.70187 0.0
H347 H 0.05599 0.01323 0.61133 0.0
C348 C 0.09515 0.07786 0.63274 0.0
C349 C 0.09862 0.10901 0.65867 0.0
C350 C 0.98929 0.94995 0.68283 0.0
C351 C 0.02704 0.02714 0.65658 0.0
C352 C 0.95285 0.90949 0.68403 0.0
C353 C 0.91864 0.9014 0.65987 0.0
C354 C 0.9915 0.98204 0.65723 0.0
C355 C 0.92235 0.93399 0.63453 0.0
C356 C 0.0583 0.03755 0.6313 0.0
C357 C 0.06521 0.09856 0.68296 0.0
N358 N 0.95864 0.9729 0.63368 0.0
N359 N 0.03111 0.05794 0.6815 0.0
H360 H 0.20537 0.28899 0.43149 0.0
H361 H 0.2907 0.2005 0.59726 0.0
H362 H 0.31634 0.16576 0.44997 0.0
H363 H 0.16801 0.31202 0.57868 0.0
H364 H 0.31388 0.2009 0.54371 0.0
H365 H 0.20491 0.31125 0.48515 0.0
C366 C 0.23057 0.26735 0.44663 0.0
C367 C 0.26041 0.22493 0.43609 0.0
C368 C 0.28242 0.22592 0.55145 0.0
C369 C 0.2595 0.24984 0.4978 0.0
C370 C 0.26935 0.22597 0.58212 0.0
C371 C 0.22683 0.25574 0.59259 0.0
C372 C 0.25284 0.25586 0.53102 0.0
C373 C 0.20065 0.28787 0.57171 0.0
C374 C 0.23001 0.27988 0.47737 0.0
C375 C 0.29216 0.19835 0.45699 0.0
N376 N 0.21363 0.28657 0.54197 0.0
N377 N 0.29035 0.21079 0.4868 0.0
H378 H 0.21974 0.71459 0.92796 0.0
H379 H 0.19264 0.66628 0.08047 0.0
H380 H 0.35967 0.79818 0.95362 0.0
H381 H 0.31222 0.78306 0.09444 0.0
H382 H 0.19286 0.68609 0.02713 0.0
H383 H 0.19213 0.71431 0.98051 0.0
C384 C 0.24453 0.73327 0.94459 0.0
C385 C 0.29271 0.75545 0.9362 0.0
C386 C 0.21813 0.70876 0.04164 0.0
C387 C 0.26234 0.75342 0.99718 0.0
C388 C 0.21813 0.69716 0.07241 0.0
C389 C 0.25283 0.72263 0.09214 0.0
C390 C 0.25332 0.7462 0.0302 0.0
C391 C 0.28479 0.76231 0.0802 0.0
C392 C 0.22905 0.73249 0.97489 0.0
C393 C 0.32262 0.77974 0.95887 0.0
N394 N 0.28487 0.77218 0.05 0.0
N395 N 0.30732 0.77741 0.98821 0.0
H396 H 0.71742 0.80443 0.59896 0.0
H397 H 0.69312 0.85805 0.44664 0.0
H398 H 0.85664 0.72031 0.57258 0.0
H399 H 0.80883 0.73778 0.43184 0.0
H400 H 0.69312 0.83767 0.49995 0.0
H401 H 0.6905 0.80714 0.54629 0.0
C402 C 0.74221 0.78618 0.58215 0.0
C403 C 0.78993 0.76301 0.59038 0.0
C404 C 0.71751 0.81439 0.48524 0.0
C405 C 0.76035 0.76772 0.52936 0.0
C406 C 0.71766 0.82631 0.4545 0.0
C407 C 0.75138 0.79997 0.43455 0.0
C408 C 0.75152 0.77574 0.49641 0.0
C409 C 0.78217 0.75923 0.44625 0.0
C410 C 0.72713 0.78834 0.55181 0.0
C411 C 0.81992 0.73942 0.56746 0.0
N412 N 0.78212 0.74904 0.47641 0.0
N413 N 0.80496 0.74295 0.53813 0.0
H414 H 0.66986 0.19841 0.94897 0.0
H415 H 0.71896 0.22364 0.10142 0.0
H416 H 0.78632 0.31835 0.93502 0.0
H417 H 0.80226 0.36408 0.0762 0.0
H418 H 0.71825 0.19692 0.04874 0.0
H419 H 0.68962 0.19843 1.00228 0.0
C420 C 0.70061 0.22402 0.95706 0.0
C421 C 0.72608 0.25879 0.93733 0.0
C422 C 0.73642 0.23378 0.05448 0.0
C423 C 0.74966 0.25897 0.99925 0.0
C424 C 0.73747 0.24873 0.08487 0.0
C425 C 0.75971 0.29677 0.09342 0.0
C426 C 0.75712 0.26749 0.03229 0.0
C427 C 0.78378 0.3271 0.07082 0.0
C428 C 0.71221 0.22386 0.9878 0.0
C429 C 0.76562 0.29085 0.94927 0.0
N430 N 0.78118 0.31233 0.0414 0.0
N431 N 0.77553 0.29075 0.97947 0.0
H432 H 0.59472 0.32783 0.26657 0.0
H433 H 0.37946 0.11356 0.30627 0.0
H434 H 0.59695 0.17549 0.22446 0.0
H435 H 0.34876 0.27952 0.30973 0.0
H436 H 0.46448 0.13159 0.28291 0.0
H437 H 0.51175 0.30594 0.29054 0.0
C438 C 0.57835 0.28927 0.26274 0.0
C439 C 0.60316 0.25347 0.2433 0.0
C440 C 0.43902 0.16399 0.28866 0.0
C441 C 0.5072 0.22837 0.27084 0.0
C442 C 0.39043 0.15385 0.30203 0.0
C443 C 0.35665 0.19514 0.31 0.0
C444 C 0.45478 0.21588 0.2838 0.0
C445 C 0.37321 0.24646 0.30384 0.0
C446 C 0.53053 0.27711 0.27626 0.0
C447 C 0.57951 0.20425 0.23931 0.0
N448 N 0.42127 0.25537 0.29144 0.0
N449 N 0.5328 0.19314 0.25294 0.0
H450 H 0.23847 0.84079 0.80796 0.0
H451 H 0.34854 0.0949 0.72466 0.0
H452 H 0.40326 0.8778 0.80858 0.0
H453 H 0.1939 0.08681 0.76364 0.0
H454 H 0.37018 0.0117 0.74988 0.0
H455 H 0.2211 0.92613 0.78457 0.0
C456 C 0.27102 0.86656 0.80295 0.0
C457 C 0.32235 0.85202 0.81039 0.0
C458 C 0.33174 0.02865 0.75308 0.0
C459 C 0.3028 0.94974 0.78349 0.0
C460 C 0.31951 0.07629 0.73888 0.0
C461 C 0.26936 0.09816 0.74201 0.0
C462 C 0.29318 1.00224 0.76994 0.0
C463 C 0.23311 0.07175 0.7605 0.0
C464 C 0.26107 0.91543 0.78981 0.0
C465 C 0.36299 0.88738 0.80344 0.0
N466 N 0.24546 0.02507 0.77335 0.0
N467 N 0.35241 0.93436 0.79028 0.0
H468 H 0.63559 0.90869 0.30313 0.0
H469 H 0.41919 0.69475 0.26507 0.0
H470 H 0.66486 0.74264 0.30859 0.0
H471 H 0.41828 0.84604 0.22176 0.0
H472 H 0.50212 0.71668 0.28896 0.0
H473 H 0.55075 0.89054 0.27972 0.0
C474 C 0.62435 0.86835 0.29931 0.0
C475 C 0.65767 0.82707 0.30788 0.0
C476 C 0.48364 0.74528 0.27443 0.0
C477 C 0.55973 0.80622 0.2816 0.0
C478 C 0.43584 0.7331 0.26095 0.0
C479 C 0.4114 0.76858 0.24121 0.0
C480 C 0.50734 0.79372 0.26865 0.0
C481 C 0.43542 0.81753 0.23685 0.0
C482 C 0.57585 0.85814 0.28591 0.0
C483 C 0.64077 0.77569 0.30224 0.0
N484 N 0.4821 0.82867 0.25044 0.0
N485 N 0.59281 0.76673 0.28979 0.0
H486 H 0.7222 0.19343 0.76828 0.0
H487 H 0.77977 0.89037 0.78093 0.0
H488 H 0.69733 0.11255 0.85235 0.0
H489 H 0.70264 0.95307 0.70251 0.0
H490 H 0.76404 0.97348 0.80741 0.0
H491 H 0.7323 0.10803 0.74286 0.0
C492 C 0.71988 0.15777 0.78143 0.0
C493 C 0.70934 0.1599 0.81245 0.0
C494 C 0.74988 0.96868 0.78456 0.0
C495 C 0.72076 0.06268 0.78372 0.0
C496 C 0.7584 0.92121 0.76956 0.0
C497 C 0.74151 0.91447 0.73971 0.0
C498 C 0.72615 0.01045 0.7692 0.0
C499 C 0.7152 0.95621 0.72575 0.0
C500 C 0.72495 0.1092 0.76691 0.0
C501 C 0.70566 0.11251 0.8284 0.0
N502 N 0.70913 1.00277 0.74041 0.0
N503 N 0.71183 0.0659 0.81395 0.0
H504 H 0.101 0.34854 0.30406 0.0
H505 H 0.84562 0.24023 0.22147 0.0
H506 H 0.09158 0.19393 0.26516 0.0
H507 H 0.88359 0.40486 0.22097 0.0
H508 H 0.931 0.22222 0.24458 0.0
H509 H 0.01777 0.37075 0.27911 0.0
C510 C 0.08209 0.31964 0.28991 0.0
C511 C 0.10362 0.26933 0.28672 0.0
C512 C 0.9205 0.2623 0.23942 0.0
C513 C 0.00763 0.2938 0.2591 0.0
C514 C 0.8716 0.27261 0.22644 0.0
C515 C 0.85732 0.32409 0.21912 0.0
C516 C 0.9551 0.30379 0.2457 0.0
C517 C 0.89296 0.36449 0.22602 0.0
C518 C 0.03443 0.33218 0.27586 0.0
C519 C 0.07681 0.23326 0.26833 0.0
N520 N 0.93996 0.35355 0.23903 0.0
N521 N 0.03012 0.24592 0.25564 0.0
H522 H 0.2818 0.34082 0.7205 0.0
H523 H 0.17159 0.59479 0.80405 0.0
H524 H 0.11685 0.37694 0.7209 0.0
H525 H 0.32623 0.58687 0.76506 0.0
H526 H 0.15006 0.5114 0.77898 0.0
H527 H 0.29923 0.42624 0.74385 0.0
C528 C 0.24924 0.3664 0.72573 0.0
C529 C 0.19784 0.3516 0.71858 0.0
C530 C 0.18848 0.52842 0.77574 0.0
C531 C 0.21746 0.44942 0.74541 0.0
C532 C 0.20064 0.57618 0.78986 0.0
C533 C 0.25076 0.59816 0.78668 0.0
C534 C 0.22706 0.50201 0.75891 0.0
C535 C 0.28704 0.57172 0.76823 0.0
C536 C 0.25921 0.41533 0.73884 0.0
C537 C 0.15718 0.38672 0.72581 0.0
N538 N 0.27475 0.52494 0.75546 0.0
N539 N 0.1678 0.43376 0.73892 0.0
H540 H 0.16809 0.78146 0.21937 0.0
H541 H 0.91421 0.67353 0.30422 0.0
H542 H 0.13251 0.61636 0.22191 0.0
H543 H 0.92191 0.82665 0.26332 0.0
H544 H 0.99776 0.65133 0.2795 0.0
H545 H 0.08264 0.79947 0.24254 0.0
C546 C 0.14264 0.749 0.22505 0.0
C547 C 0.15759 0.69736 0.21853 0.0
C548 C 0.98066 0.68955 0.27577 0.0
C549 C 0.05972 0.71765 0.24516 0.0
C550 C 0.9328 0.70208 0.28968 0.0
C551 C 0.9107 0.75199 0.28587 0.0
C552 C 1.00705 0.72758 0.2585 0.0
C553 C 0.93714 0.78764 0.267 0.0
C554 C 0.09369 0.75929 0.23805 0.0
C555 C 0.12262 0.65685 0.22631 0.0
N556 N 0.984 0.77503 0.25443 0.0
N557 N 0.07555 0.66779 0.2393 0.0
H558 H 0.74361 0.38904 0.74743 0.0
H559 H 0.7948 0.69331 0.75863 0.0
H560 H 0.8156 0.45496 0.82662 0.0
H561 H 0.82558 0.61108 0.67562 0.0
H562 H 0.78538 0.60833 0.78453 0.0
H563 H 0.75946 0.47173 0.72054 0.0
C564 C 0.76393 0.4205 0.7589 0.0
C565 C 0.77934 0.41478 0.78908 0.0
C566 C 0.79391 0.6091 0.76061 0.0
C567 C 0.79475 0.51029 0.75907 0.0
C568 C 0.79861 0.65743 0.74579 0.0
C569 C 0.81064 0.65914 0.71492 0.0
C570 C 0.79993 0.5623 0.74424 0.0
C571 C 0.81615 0.61144 0.69943 0.0
C572 C 0.77251 0.46774 0.74366 0.0
C573 C 0.80425 0.45732 0.80315 0.0
N574 N 0.81028 0.56504 0.71415 0.0
N575 N 0.81035 0.50361 0.78822 0.0
loop_
_geom_bond_atom_site_label_1
_geom_bond_atom_site_label_2
_geom_bond_distance
_geom_bond_site_symmetry_2
_ccdc_geom_bond_type
Mn0 O5 2.095 . S
Mn0 O15 2.162 . S
Mn0 O16 2.297 . S
Mn0 O24 2.385 . S
Mn0 O25 2.209 . S
Mn0 O26 2.094 . S
Mn1 O6 2.121 . S
Mn1 N8 2.257 . S
Mn1 N17 2.282 . S
Mn1 O25 2.215 . S
Mn1 O27 2.117 . S
C2 O24 1.234 . S
C2 O25 1.283 . S
C3 O15 1.281 . S
C3 O16 1.236 . S
C4 O26 1.240 . S
C4 O27 1.264 . S
O5 Mn0 2.095 . S
O5 C14 1.250 . S
O6 Mn1 2.121 . S
O6 C14 1.258 . S
C7 N8 1.326 . S
C7 C11 1.460 . S
C7 H13 0.929 . S
N8 Mn1 2.257 . S
N8 C7 1.326 . S
N8 C12 1.362 . S
C9 C10 1.258 . S
C9 C12 1.431 1_565 S
C9 C29 1.449 . S
C10 C9 1.258 . S
C10 C11 1.477 1_565 S
C10 H30 0.931 . S
C11 C7 1.460 . S
C11 C10 1.477 1_545 S
C11 H31 0.930 . S
C12 N8 1.362 . S
C12 C9 1.431 1_545 S
C12 C22 1.476 . S
H13 C7 0.929 . S
C14 O5 1.250 . S
C14 O6 1.258 . S
O15 Mn0 2.162 . S
O15 C3 1.281 . S
O16 Mn0 2.297 . S
O16 C3 1.236 . S
N17 Mn1 2.282 . S
N17 C18 1.328 . S
N17 C22 1.318 . S
C18 N17 1.328 . S
C18 C19 1.457 . S
C18 H23 0.929 . S
C19 C18 1.457 . S
C19 C20 1.291 1_545 S
C19 H32 0.931 . S
C20 C19 1.291 1_565 S
C20 C21 1.373 . S
C20 H33 0.929 . S
C21 C20 1.373 . S
C21 C22 1.396 1_565 S
C21 C28 1.403 . S
C22 C12 1.476 . S
C22 N17 1.318 . S
C22 C21 1.396 1_545 S
H23 C18 0.929 . S
O24 Mn0 2.385 . S
O24 C2 1.234 . S
O25 Mn0 2.209 . S
O25 Mn1 2.215 . S
O25 C2 1.283 . S
O26 Mn0 2.094 . S
O26 C4 1.240 . S
O27 Mn1 2.117 . S
O27 C4 1.264 . S
C28 C21 1.403 . S
C28 C29 1.399 . S
C28 H34 0.929 . S
C29 C9 1.449 . S
C29 C28 1.399 . S
C29 H35 0.930 . S
H30 C10 0.931 . S
H31 C11 0.930 . S
H32 C19 0.931 . S
H33 C20 0.929 . S
H34 C28 0.929 . S
H35 C29 0.930 . S
Mn36 O41 2.095 . S
Mn36 O51 2.162 . S
Mn36 O52 2.297 . S
Mn36 O60 2.385 . S
Mn36 O61 2.209 . S
Mn36 O62 2.094 . S
Mn37 O42 2.121 . S
Mn37 N44 2.257 . S
Mn37 N53 2.282 . S
Mn37 O61 2.215 . S
Mn37 O63 2.117 . S
C38 O60 1.234 . S
C38 O61 1.283 . S
C39 O51 1.281 . S
C39 O52 1.236 . S
C40 O62 1.240 . S
C40 O63 1.264 . S
O41 Mn36 2.095 . S
O41 C50 1.250 . S
O42 Mn37 2.121 . S
O42 C50 1.258 . S
C43 N44 1.326 . S
C43 C47 1.460 . S
C43 H49 0.929 . S
N44 Mn37 2.257 . S
N44 C43 1.326 . S
N44 C48 1.362 . S
C45 C46 1.258 . S
C45 C48 1.431 . S
C45 C65 1.449 . S
C46 C45 1.258 . S
C46 C47 1.477 . S
C46 H66 0.931 . S
C47 C43 1.460 . S
C47 C46 1.477 . S
C47 H67 0.930 . S
C48 N44 1.362 . S
C48 C45 1.431 . S
C48 C58 1.476 . S
H49 C43 0.929 . S
C50 O41 1.250 . S
C50 O42 1.258 . S
O51 Mn36 2.162 . S
O51 C39 1.281 . S
O52 Mn36 2.297 . S
O52 C39 1.236 . S
N53 Mn37 2.282 . S
N53 C54 1.328 . S
N53 C58 1.318 . S
C54 N53 1.328 . S
C54 C55 1.457 . S
C54 H59 0.929 . S
C55 C54 1.457 . S
C55 C56 1.291 . S
C55 H68 0.931 . S
C56 C55 1.291 . S
C56 C57 1.373 . S
C56 H69 0.929 . S
C57 C56 1.373 . S
C57 C58 1.396 . S
C57 C64 1.403 . S
C58 C48 1.476 . S
C58 N53 1.318 . S
C58 C57 1.396 . S
H59 C54 0.929 . S
O60 Mn36 2.385 . S
O60 C38 1.234 . S
O61 Mn36 2.209 . S
O61 Mn37 2.215 . S
O61 C38 1.283 . S
O62 Mn36 2.094 . S
O62 C40 1.240 . S
O63 Mn37 2.117 . S
O63 C40 1.264 . S
C64 C57 1.403 . S
C64 C65 1.399 . S
C64 H70 0.929 . S
C65 C45 1.449 . S
C65 C64 1.399 . S
C65 H71 0.930 . S
H66 C46 0.931 . S
H67 C47 0.930 . S
H68 C55 0.931 . S
H69 C56 0.929 . S
H70 C64 0.929 . S
H71 C65 0.930 . S
Mn72 O77 2.095 . S
Mn72 O87 2.162 . S
Mn72 O88 2.297 . S
Mn72 O96 2.385 . S
Mn72 O97 2.209 . S
Mn72 O98 2.094 . S
Mn73 O78 2.121 . S
Mn73 N80 2.257 . S
Mn73 N89 2.282 . S
Mn73 O97 2.215 . S
Mn73 O99 2.117 . S
C74 O96 1.234 . S
C74 O97 1.283 . S
C75 O87 1.281 . S
C75 O88 1.236 . S
C76 O98 1.240 . S
C76 O99 1.264 . S
O77 Mn72 2.095 . S
O77 C86 1.250 . S
O78 Mn73 2.121 . S
O78 C86 1.258 . S
C79 N80 1.326 . S
C79 C83 1.460 . S
C79 H85 0.929 . S
N80 Mn73 2.257 . S
N80 C79 1.326 . S
N80 C84 1.362 . S
C81 C82 1.258 . S
C81 C84 1.431 1_545 S
C81 C101 1.449 . S
C82 C81 1.258 . S
C82 C83 1.477 1_545 S
C82 H102 0.931 . S
C83 C79 1.460 . S
C83 C82 1.477 1_565 S
C83 H103 0.930 . S
C84 N80 1.362 . S
C84 C81 1.431 1_565 S
C84 C94 1.476 . S
H85 C79 0.929 . S
C86 O77 1.250 . S
C86 O78 1.258 . S
O87 Mn72 2.162 . S
O87 C75 1.281 . S
O88 Mn72 2.297 . S
O88 C75 1.236 . S
N89 Mn73 2.282 . S
N89 C90 1.328 . S
N89 C94 1.318 . S
C90 N89 1.328 . S
C90 C91 1.457 . S
C90 H95 0.929 . S
C91 C90 1.457 . S
C91 C92 1.291 1_565 S
C91 H104 0.931 . S
C92 C91 1.291 1_545 S
C92 C93 1.373 . S
C92 H105 0.929 . S
C93 C92 1.373 . S
C93 C94 1.396 1_545 S
C93 C100 1.403 . S
C94 C84 1.476 . S
C94 N89 1.318 . S
C94 C93 1.396 1_565 S
H95 C90 0.929 . S
O96 Mn72 2.385 . S
O96 C74 1.234 . S
O97 Mn72 2.209 . S
O97 Mn73 2.215 . S
O97 C74 1.283 . S
O98 Mn72 2.094 . S
O98 C76 1.240 . S
O99 Mn73 2.117 . S
O99 C76 1.264 . S
C100 C93 1.403 . S
C100 C101 1.399 . S
C100 H106 0.929 . S
C101 C81 1.449 . S
C101 C100 1.399 . S
C101 H107 0.930 . S
H102 C82 0.931 . S
H103 C83 0.930 . S
H104 C91 0.931 . S
H105 C92 0.929 . S
H106 C100 0.929 . S
H107 C101 0.930 . S
Mn108 O113 2.095 . S
Mn108 O123 2.162 . S
Mn108 O124 2.297 . S
Mn108 O132 2.385 . S
Mn108 O133 2.209 . S
Mn108 O134 2.094 . S
Mn109 O114 2.121 . S
Mn109 N116 2.257 . S
Mn109 N125 2.282 . S
Mn109 O133 2.215 . S
Mn109 O135 2.117 . S
C110 O132 1.234 . S
C110 O133 1.283 . S
C111 O123 1.281 . S
C111 O124 1.236 . S
C112 O134 1.240 . S
C112 O135 1.264 . S
O113 Mn108 2.095 . S
O113 C122 1.250 . S
O114 Mn109 2.121 . S
O114 C122 1.258 . S
C115 N116 1.326 . S
C115 C119 1.460 . S
C115 H121 0.929 . S
N116 Mn109 2.257 . S
N116 C115 1.326 . S
N116 C120 1.362 . S
C117 C118 1.258 . S
C117 C120 1.431 . S
C117 C137 1.449 . S
C118 C117 1.258 . S
C118 C119 1.477 . S
C118 H138 0.931 . S
C119 C115 1.460 . S
C119 C118 1.477 . S
C119 H139 0.930 . S
C120 N116 1.362 . S
C120 C117 1.431 . S
C120 C130 1.476 . S
H121 C115 0.929 . S
C122 O113 1.250 . S
C122 O114 1.258 . S
O123 Mn108 2.162 . S
O123 C111 1.281 . S
O124 Mn108 2.297 . S
O124 C111 1.236 . S
N125 Mn109 2.282 . S
N125 C126 1.328 . S
N125 C130 1.318 . S
C126 N125 1.328 . S
C126 C127 1.457 . S
C126 H131 0.929 . S
C127 C126 1.457 . S
C127 C128 1.291 . S
C127 H140 0.931 . S
C128 C127 1.291 . S
C128 C129 1.373 . S
C128 H141 0.929 . S
C129 C128 1.373 . S
C129 C130 1.396 . S
C129 C136 1.403 . S
C130 C120 1.476 . S
C130 N125 1.318 . S
C130 C129 1.396 . S
H131 C126 0.929 . S
O132 Mn108 2.385 . S
O132 C110 1.234 . S
O133 Mn108 2.209 . S
O133 Mn109 2.215 . S
O133 C110 1.283 . S
O134 Mn108 2.094 . S
O134 C112 1.240 . S
O135 Mn109 2.117 . S
O135 C112 1.264 . S
C136 C129 1.403 . S
C136 C137 1.399 . S
C136 H142 0.929 . S
C137 C117 1.449 . S
C137 C136 1.399 . S
C137 H143 0.930 . S
H138 C118 0.931 . S
H139 C119 0.930 . S
H140 C127 0.931 . S
H141 C128 0.929 . S
H142 C136 0.929 . S
H143 C137 0.930 . S
Mn144 O149 2.095 . S
Mn144 O159 2.162 . S
Mn144 O160 2.297 . S
Mn144 O168 2.385 . S
Mn144 O169 2.209 . S
Mn144 O170 2.094 . S
Mn145 O150 2.121 . S
Mn145 N152 2.257 . S
Mn145 N161 2.282 . S
Mn145 O169 2.215 . S
Mn145 O171 2.117 . S
C146 O168 1.234 . S
C146 O169 1.283 . S
C147 O159 1.281 . S
C147 O160 1.236 . S
C148 O170 1.240 . S
C148 O171 1.264 . S
O149 Mn144 2.095 . S
O149 C158 1.250 . S
O150 Mn145 2.121 . S
O150 C158 1.258 . S
C151 N152 1.326 . S
C151 C155 1.460 . S
C151 H157 0.929 . S
N152 Mn145 2.257 . S
N152 C151 1.326 . S
N152 C156 1.362 . S
C153 C154 1.258 . S
C153 C156 1.431 . S
C153 C173 1.449 . S
C154 C153 1.258 . S
C154 C155 1.477 . S
C154 H174 0.931 . S
C155 C151 1.460 . S
C155 C154 1.477 . S
C155 H175 0.930 . S
C156 N152 1.362 . S
C156 C153 1.431 . S
C156 C166 1.476 . S
H157 C151 0.929 . S
C158 O149 1.250 . S
C158 O150 1.258 . S
O159 Mn144 2.162 . S
O159 C147 1.281 . S
O160 Mn144 2.297 . S
O160 C147 1.236 . S
N161 Mn145 2.282 . S
N161 C162 1.328 . S
N161 C166 1.318 . S
C162 N161 1.328 . S
C162 C163 1.457 . S
C162 H167 0.929 . S
C163 C162 1.457 . S
C163 C164 1.291 . S
C163 H176 0.931 . S
C164 C163 1.291 . S
C164 C165 1.373 . S
C164 H177 0.929 . S
C165 C164 1.373 . S
C165 C166 1.396 . S
C165 C172 1.403 . S
C166 C156 1.476 . S
C166 N161 1.318 . S
C166 C165 1.396 . S
H167 C162 0.929 . S
O168 Mn144 2.385 . S
O168 C146 1.234 . S
O169 Mn144 2.209 . S
O169 Mn145 2.215 . S
O169 C146 1.283 . S
O170 Mn144 2.094 . S
O170 C148 1.240 . S
O171 Mn145 2.117 . S
O171 C148 1.264 . S
C172 C165 1.403 . S
C172 C173 1.399 . S
C172 H178 0.929 . S
C173 C153 1.449 . S
C173 C172 1.399 . S
C173 H179 0.930 . S
H174 C154 0.931 . S
H175 C155 0.930 . S
H176 C163 0.931 . S
H177 C164 0.929 . S
H178 C172 0.929 . S
H179 C173 0.930 . S
Mn180 O185 2.095 . S
Mn180 O195 2.162 . S
Mn180 O196 2.297 . S
Mn180 O204 2.385 . S
Mn180 O205 2.209 . S
Mn180 O206 2.094 . S
Mn181 O186 2.121 . S
Mn181 N188 2.257 . S
Mn181 N197 2.282 . S
Mn181 O205 2.215 . S
Mn181 O207 2.117 . S
C182 O204 1.234 . S
C182 O205 1.283 . S
C183 O195 1.281 . S
C183 O196 1.236 . S
C184 O206 1.240 . S
C184 O207 1.264 . S
O185 Mn180 2.095 . S
O185 C194 1.250 . S
O186 Mn181 2.121 . S
O186 C194 1.258 . S
C187 N188 1.326 . S
C187 C191 1.460 . S
C187 H193 0.929 . S
N188 Mn181 2.257 . S
N188 C187 1.326 . S
N188 C192 1.362 . S
C189 C190 1.258 . S
C189 C192 1.431 1_655 S
C189 C209 1.449 . S
C190 C189 1.258 . S
C190 C191 1.477 1_655 S
C190 H210 0.931 . S
C191 C187 1.460 . S
C191 C190 1.477 1_455 S
C191 H211 0.930 . S
C192 N188 1.362 . S
C192 C189 1.431 1_455 S
C192 C202 1.476 . S
H193 C187 0.929 . S
C194 O185 1.250 . S
C194 O186 1.258 . S
O195 Mn180 2.162 . S
O195 C183 1.281 . S
O196 Mn180 2.297 . S
O196 C183 1.236 . S
N197 Mn181 2.282 . S
N197 C198 1.328 . S
N197 C202 1.318 . S
C198 N197 1.328 . S
C198 C199 1.457 . S
C198 H203 0.929 . S
C199 C198 1.457 . S
C199 C200 1.291 1_455 S
C199 H212 0.931 . S
C200 C199 1.291 1_655 S
C200 C201 1.373 . S
C200 H213 0.929 . S
C201 C200 1.373 . S
C201 C202 1.396 1_655 S
C201 C208 1.403 . S
C202 C192 1.476 . S
C202 N197 1.318 . S
C202 C201 1.396 1_455 S
H203 C198 0.929 . S
O204 Mn180 2.385 . S
O204 C182 1.234 . S
O205 Mn180 2.209 . S
O205 Mn181 2.215 . S
O205 C182 1.283 . S
O206 Mn180 2.094 . S
O206 C184 1.240 . S
O207 Mn181 2.117 . S
O207 C184 1.264 . S
C208 C201 1.403 . S
C208 C209 1.399 . S
C208 H214 0.929 . S
C209 C189 1.449 . S
C209 C208 1.399 . S
C209 H215 0.930 . S
H210 C190 0.931 . S
H211 C191 0.930 . S
H212 C199 0.931 . S
H213 C200 0.929 . S
H214 C208 0.929 . S
H215 C209 0.930 . S
Mn216 O221 2.095 . S
Mn216 O231 2.162 . S
Mn216 O232 2.297 . S
Mn216 O240 2.385 . S
Mn216 O241 2.209 . S
Mn216 O242 2.094 . S
Mn217 O222 2.121 . S
Mn217 N224 2.257 . S
Mn217 N233 2.282 . S
Mn217 O241 2.215 . S
Mn217 O243 2.117 . S
C218 O240 1.234 . S
C218 O241 1.283 . S
C219 O231 1.281 . S
C219 O232 1.236 . S
C220 O242 1.240 . S
C220 O243 1.264 . S
O221 Mn216 2.095 . S
O221 C230 1.250 . S
O222 Mn217 2.121 . S
O222 C230 1.258 . S
C223 N224 1.326 . S
C223 C227 1.460 . S
C223 H229 0.929 . S
N224 Mn217 2.257 . S
N224 C223 1.326 . S
N224 C228 1.362 . S
C225 C226 1.258 . S
C225 C228 1.431 . S
C225 C245 1.449 . S
C226 C225 1.258 . S
C226 C227 1.477 . S
C226 H246 0.931 . S
C227 C223 1.460 . S
C227 C226 1.477 . S
C227 H247 0.930 . S
C228 N224 1.362 . S
C228 C225 1.431 . S
C228 C238 1.476 . S
H229 C223 0.929 . S
C230 O221 1.250 . S
C230 O222 1.258 . S
O231 Mn216 2.162 . S
O231 C219 1.281 . S
O232 Mn216 2.297 . S
O232 C219 1.236 . S
N233 Mn217 2.282 . S
N233 C234 1.328 . S
N233 C238 1.318 . S
C234 N233 1.328 . S
C234 C235 1.457 . S
C234 H239 0.929 . S
C235 C234 1.457 . S
C235 C236 1.291 . S
C235 H248 0.931 . S
C236 C235 1.291 . S
C236 C237 1.373 . S
C236 H249 0.929 . S
C237 C236 1.373 . S
C237 C238 1.396 . S
C237 C244 1.403 . S
C238 C228 1.476 . S
C238 N233 1.318 . S
C238 C237 1.396 . S
H239 C234 0.929 . S
O240 Mn216 2.385 . S
O240 C218 1.234 . S
O241 Mn216 2.209 . S
O241 Mn217 2.215 . S
O241 C218 1.283 . S
O242 Mn216 2.094 . S
O242 C220 1.240 . S
O243 Mn217 2.117 . S
O243 C220 1.264 . S
C244 C237 1.403 . S
C244 C245 1.399 . S
C244 H250 0.929 . S
C245 C225 1.449 . S
C245 C244 1.399 . S
C245 H251 0.930 . S
H246 C226 0.931 . S
H247 C227 0.930 . S
H248 C235 0.931 . S
H249 C236 0.929 . S
H250 C244 0.929 . S
H251 C245 0.930 . S
Mn252 O257 2.095 . S
Mn252 O267 2.162 . S
Mn252 O268 2.297 . S
Mn252 O276 2.385 . S
Mn252 O277 2.209 . S
Mn252 O278 2.094 . S
Mn253 O258 2.121 . S
Mn253 N260 2.257 . S
Mn253 N269 2.282 . S
Mn253 O277 2.215 . S
Mn253 O279 2.117 . S
C254 O276 1.234 . S
C254 O277 1.283 . S
C255 O267 1.281 . S
C255 O268 1.236 . S
C256 O278 1.240 . S
C256 O279 1.264 . S
O257 Mn252 2.095 . S
O257 C266 1.250 . S
O258 Mn253 2.121 . S
O258 C266 1.258 . S
C259 N260 1.326 . S
C259 C263 1.460 . S
C259 H265 0.929 . S
N260 Mn253 2.257 . S
N260 C259 1.326 . S
N260 C264 1.362 . S
C261 C262 1.258 . S
C261 C264 1.431 1_455 S
C261 C281 1.449 . S
C262 C261 1.258 . S
C262 C263 1.477 1_455 S
C262 H282 0.931 . S
C263 C259 1.460 . S
C263 C262 1.477 1_655 S
C263 H283 0.930 . S
C264 N260 1.362 . S
C264 C261 1.431 1_655 S
C264 C274 1.476 . S
H265 C259 0.929 . S
C266 O257 1.250 . S
C266 O258 1.258 . S
O267 Mn252 2.162 . S
O267 C255 1.281 . S
O268 Mn252 2.297 . S
O268 C255 1.236 . S
N269 Mn253 2.282 . S
N269 C270 1.328 . S
N269 C274 1.318 . S
C270 N269 1.328 . S
C270 C271 1.457 . S
C270 H275 0.929 . S
C271 C270 1.457 . S
C271 C272 1.291 1_655 S
C271 H284 0.931 . S
C272 C271 1.291 1_455 S
C272 C273 1.373 . S
C272 H285 0.929 . S
C273 C272 1.373 . S
C273 C274 1.396 1_455 S
C273 C280 1.403 . S
C274 C264 1.476 . S
C274 N269 1.318 . S
C274 C273 1.396 1_655 S
H275 C270 0.929 . S
O276 Mn252 2.385 . S
O276 C254 1.234 . S
O277 Mn252 2.209 . S
O277 Mn253 2.215 . S
O277 C254 1.283 . S
O278 Mn252 2.094 . S
O278 C256 1.240 . S
O279 Mn253 2.117 . S
O279 C256 1.264 . S
C280 C273 1.403 . S
C280 C281 1.399 . S
C280 H286 0.929 . S
C281 C261 1.449 . S
C281 C280 1.399 . S
C281 H287 0.930 . S
H282 C262 0.931 . S
H283 C263 0.930 . S
H284 C271 0.931 . S
H285 C272 0.929 . S
H286 C280 0.929 . S
H287 C281 0.930 . S
H288 C294 0.930 . S
H289 C298 0.930 . S
H290 C303 0.929 . S
H291 C301 0.929 . S
H292 C296 0.929 . S
H293 C302 0.929 . S
C294 H288 0.930 . S
C294 C295 1.367 . S
C294 C302 1.378 1_455 S
C295 C294 1.367 . S
C295 C303 1.433 . S
C296 H292 0.929 . S
C296 C298 1.378 1_455 S
C296 C300 1.350 1_455 S
C297 C300 1.463 1_445 S
C297 C302 1.350 1_455 S
C297 N305 1.427 . S
C298 H289 0.930 . S
C298 C296 1.378 1_655 S
C298 C299 1.367 . S
C299 C298 1.367 . S
C299 C301 1.433 . S
C300 C296 1.350 1_655 S
C300 C297 1.463 1_665 S
C300 N304 1.427 . S
C301 H291 0.929 . S
C301 C299 1.433 . S
C301 N304 1.384 . S
C302 H293 0.929 . S
C302 C294 1.378 1_655 S
C302 C297 1.350 1_655 S
C303 H290 0.929 . S
C303 C295 1.433 . S
C303 N305 1.384 . S
N304 C300 1.427 . S
N304 C301 1.384 . S
N305 C297 1.427 . S
N305 C303 1.384 . S
H306 C312 0.930 . S
H307 C316 0.930 . S
H308 C321 0.929 . S
H309 C319 0.929 . S
H310 C314 0.929 . S
H311 C320 0.929 . S
C312 H306 0.930 . S
C312 C313 1.367 . S
C312 C320 1.378 . S
C313 C312 1.367 . S
C313 C321 1.433 . S
C314 H310 0.929 . S
C314 C316 1.378 . S
C314 C318 1.350 . S
C315 C318 1.463 . S
C315 C320 1.350 . S
C315 N323 1.427 . S
C316 H307 0.930 . S
C316 C314 1.378 . S
C316 C317 1.367 . S
C317 C316 1.367 . S
C317 C319 1.433 . S
C318 C314 1.350 . S
C318 C315 1.463 . S
C318 N322 1.427 . S
C319 H309 0.929 . S
C319 C317 1.433 . S
C319 N322 1.384 . S
C320 H311 0.929 . S
C320 C312 1.378 . S
C320 C315 1.350 . S
C321 H308 0.929 . S
C321 C313 1.433 . S
C321 N323 1.384 . S
N322 C318 1.427 . S
N322 C319 1.384 . S
N323 C315 1.427 . S
N323 C321 1.384 . S
H324 C330 0.930 . S
H325 C334 0.930 . S
H326 C339 0.929 . S
H327 C337 0.929 . S
H328 C332 0.929 . S
H329 C338 0.929 . S
C330 H324 0.930 . S
C330 C331 1.367 . S
C330 C338 1.378 . S
C331 C330 1.367 . S
C331 C339 1.433 . S
C332 H328 0.929 . S
C332 C334 1.378 . S
C332 C336 1.350 . S
C333 C336 1.463 . S
C333 C338 1.350 . S
C333 N341 1.427 . S
C334 H325 0.930 . S
C334 C332 1.378 . S
C334 C335 1.367 . S
C335 C334 1.367 . S
C335 C337 1.433 . S
C336 C332 1.350 . S
C336 C333 1.463 . S
C336 N340 1.427 . S
C337 H327 0.929 . S
C337 C335 1.433 . S
C337 N340 1.384 . S
C338 H329 0.929 . S
C338 C330 1.378 . S
C338 C333 1.350 . S
C339 H326 0.929 . S
C339 C331 1.433 . S
C339 N341 1.384 . S
N340 C336 1.427 . S
N340 C337 1.384 . S
N341 C333 1.427 . S
N341 C339 1.384 . S
H342 C348 0.930 . S
H343 C352 0.930 . S
H344 C357 0.929 . S
H345 C355 0.929 . S
H346 C350 0.929 . S
H347 C356 0.929 . S
C348 H342 0.930 . S
C348 C349 1.367 . S
C348 C356 1.378 . S
C349 C348 1.367 . S
C349 C357 1.433 . S
C350 H346 0.929 . S
C350 C352 1.378 . S
C350 C354 1.350 . S
C351 C354 1.463 1_445 S
C351 C356 1.350 . S
C351 N359 1.427 . S
C352 H343 0.930 . S
C352 C350 1.378 . S
C352 C353 1.367 . S
C353 C352 1.367 . S
C353 C355 1.433 . S
C354 C350 1.350 . S
C354 C351 1.463 1_665 S
C354 N358 1.427 . S
C355 H345 0.929 . S
C355 C353 1.433 . S
C355 N358 1.384 . S
C356 H347 0.929 . S
C356 C348 1.378 . S
C356 C351 1.350 . S
C357 H344 0.929 . S
C357 C349 1.433 . S
C357 N359 1.384 . S
N358 C354 1.427 . S
N358 C355 1.384 . S
N359 C351 1.427 . S
N359 C357 1.384 . S
H360 C366 0.930 . S
H361 C370 0.930 . S
H362 C375 0.929 . S
H363 C373 0.929 . S
H364 C368 0.929 . S
H365 C374 0.929 . S
C366 H360 0.930 . S
C366 C367 1.367 . S
C366 C374 1.378 . S
C367 C366 1.367 . S
C367 C375 1.433 . S
C368 H364 0.929 . S
C368 C370 1.378 . S
C368 C372 1.350 . S
C369 C372 1.463 . S
C369 C374 1.350 . S
C369 N377 1.427 . S
C370 H361 0.930 . S
C370 C368 1.378 . S
C370 C371 1.367 . S
C371 C370 1.367 . S
C371 C373 1.433 . S
C372 C368 1.350 . S
C372 C369 1.463 . S
C372 N376 1.427 . S
C373 H363 0.929 . S
C373 C371 1.433 . S
C373 N376 1.384 . S
C374 H365 0.929 . S
C374 C366 1.378 . S
C374 C369 1.350 . S
C375 H362 0.929 . S
C375 C367 1.433 . S
C375 N377 1.384 . S
N376 C372 1.427 . S
N376 C373 1.384 . S
N377 C369 1.427 . S
N377 C375 1.384 . S
H378 C384 0.930 . S
H379 C388 0.930 . S
H380 C393 0.929 . S
H381 C391 0.929 . S
H382 C386 0.929 . S
H383 C392 0.929 . S
C384 H378 0.930 . S
C384 C385 1.367 . S
C384 C392 1.378 . S
C385 C384 1.367 . S
C385 C393 1.433 . S
C386 H382 0.929 . S
C386 C388 1.378 . S
C386 C390 1.350 . S
C387 C390 1.463 1_556 S
C387 C392 1.350 . S
C387 N395 1.427 . S
C388 H379 0.930 . S
C388 C386 1.378 . S
C388 C389 1.367 . S
C389 C388 1.367 . S
C389 C391 1.433 . S
C390 C386 1.350 . S
C390 C387 1.463 1_554 S
C390 N394 1.427 . S
C391 H381 0.929 . S
C391 C389 1.433 . S
C391 N394 1.384 . S
C392 H383 0.929 . S
C392 C384 1.378 . S
C392 C387 1.350 . S
C393 H380 0.929 . S
C393 C385 1.433 . S
C393 N395 1.384 . S
N394 C390 1.427 . S
N394 C391 1.384 . S
N395 C387 1.427 . S
N395 C393 1.384 . S
H396 C402 0.930 . S
H397 C406 0.930 . S
H398 C411 0.929 . S
H399 C409 0.929 . S
H400 C404 0.929 . S
H401 C410 0.929 . S
C402 H396 0.930 . S
C402 C403 1.367 . S
C402 C410 1.378 . S
C403 C402 1.367 . S
C403 C411 1.433 . S
C404 H400 0.929 . S
C404 C406 1.378 . S
C404 C408 1.350 . S
C405 C408 1.463 . S
C405 C410 1.350 . S
C405 N413 1.427 . S
C406 H397 0.930 . S
C406 C404 1.378 . S
C406 C407 1.367 . S
C407 C406 1.367 . S
C407 C409 1.433 . S
C408 C404 1.350 . S
C408 C405 1.463 . S
C408 N412 1.427 . S
C409 H399 0.929 . S
C409 C407 1.433 . S
C409 N412 1.384 . S
C410 H401 0.929 . S
C410 C402 1.378 . S
C410 C405 1.350 . S
C411 H398 0.929 . S
C411 C403 1.433 . S
C411 N413 1.384 . S
N412 C408 1.427 . S
N412 C409 1.384 . S
N413 C405 1.427 . S
N413 C411 1.384 . S
H414 C420 0.930 . S
H415 C424 0.930 . S
H416 C429 0.929 . S
H417 C427 0.929 . S
H418 C422 0.929 . S
H419 C428 0.929 . S
C420 H414 0.930 . S
C420 C421 1.367 . S
C420 C428 1.378 . S
C421 C420 1.367 . S
C421 C429 1.433 . S
C422 H418 0.929 . S
C422 C424 1.378 . S
C422 C426 1.350 . S
C423 C426 1.463 1_556 S
C423 C428 1.350 . S
C423 N431 1.427 . S
C424 H415 0.930 . S
C424 C422 1.378 . S
C424 C425 1.367 . S
C425 C424 1.367 . S
C425 C427 1.433 . S
C426 C422 1.350 . S
C426 C423 1.463 1_554 S
C426 N430 1.427 . S
C427 H417 0.929 . S
C427 C425 1.433 . S
C427 N430 1.384 . S
C428 H419 0.929 . S
C428 C420 1.378 . S
C428 C423 1.350 . S
C429 H416 0.929 . S
C429 C421 1.433 . S
C429 N431 1.384 . S
N430 C426 1.427 . S
N430 C427 1.384 . S
N431 C423 1.427 . S
N431 C429 1.384 . S
H432 C438 0.930 . S
H433 C442 0.930 . S
H434 C447 0.929 . S
H435 C445 0.929 . S
H436 C440 0.929 . S
H437 C446 0.929 . S
C438 H432 0.930 . S
C438 C439 1.367 . S
C438 C446 1.378 . S
C439 C438 1.367 . S
C439 C447 1.433 . S
C440 H436 0.929 . S
C440 C442 1.378 . S
C440 C444 1.350 . S
C441 C444 1.463 . S
C441 C446 1.350 . S
C441 N449 1.427 . S
C442 H433 0.930 . S
C442 C440 1.378 . S
C442 C443 1.367 . S
C443 C442 1.367 . S
C443 C445 1.433 . S
C444 C440 1.350 . S
C444 C441 1.463 . S
C444 N448 1.427 . S
C445 H435 0.929 . S
C445 C443 1.433 . S
C445 N448 1.384 . S
C446 H437 0.929 . S
C446 C438 1.378 . S
C446 C441 1.350 . S
C447 H434 0.929 . S
C447 C439 1.433 . S
C447 N449 1.384 . S
N448 C444 1.427 . S
N448 C445 1.384 . S
N449 C441 1.427 . S
N449 C447 1.384 . S
H450 C456 0.930 . S
H451 C460 0.930 . S
H452 C465 0.929 . S
H453 C463 0.929 1_545 S
H454 C458 0.929 . S
H455 C464 0.929 . S
C456 H450 0.930 . S
C456 C457 1.367 . S
C456 C464 1.378 . S
C457 C456 1.367 . S
C457 C465 1.433 . S
C458 H454 0.929 . S
C458 C460 1.378 . S
C458 C462 1.350 . S
C459 C462 1.463 . S
C459 C464 1.350 . S
C459 N467 1.427 . S
C460 H451 0.930 . S
C460 C458 1.378 . S
C460 C461 1.367 . S
C461 C460 1.367 . S
C461 C463 1.433 . S
C462 C458 1.350 . S
C462 C459 1.463 . S
C462 N466 1.427 . S
C463 H453 0.929 1_565 S
C463 C461 1.433 . S
C463 N466 1.384 . S
C464 H455 0.929 . S
C464 C456 1.378 . S
C464 C459 1.350 . S
C465 H452 0.929 . S
C465 C457 1.433 . S
C465 N467 1.384 . S
N466 C462 1.427 . S
N466 C463 1.384 . S
N467 C459 1.427 . S
N467 C465 1.384 . S
H468 C474 0.930 . S
H469 C478 0.930 . S
H470 C483 0.929 . S
H471 C481 0.929 . S
H472 C476 0.929 . S
H473 C482 0.929 . S
C474 H468 0.930 . S
C474 C475 1.367 . S
C474 C482 1.378 . S
C475 C474 1.367 . S
C475 C483 1.433 . S
C476 H472 0.929 . S
C476 C478 1.378 . S
C476 C480 1.350 . S
C477 C480 1.463 . S
C477 C482 1.350 . S
C477 N485 1.427 . S
C478 H469 0.930 . S
C478 C476 1.378 . S
C478 C479 1.367 . S
C479 C478 1.367 . S
C479 C481 1.433 . S
C480 C476 1.350 . S
C480 C477 1.463 . S
C480 N484 1.427 . S
C481 H471 0.929 . S
C481 C479 1.433 . S
C481 N484 1.384 . S
C482 H473 0.929 . S
C482 C474 1.378 . S
C482 C477 1.350 . S
C483 H470 0.929 . S
C483 C475 1.433 . S
C483 N485 1.384 . S
N484 C480 1.427 . S
N484 C481 1.384 . S
N485 C477 1.427 . S
N485 C483 1.384 . S
H486 C492 0.930 . S
H487 C496 0.930 1_565 S
H488 C501 0.929 . S
H489 C499 0.929 . S
H490 C494 0.929 . S
H491 C500 0.929 . S
C492 H486 0.930 . S
C492 C493 1.367 . S
C492 C500 1.378 . S
C493 C492 1.367 . S
C493 C501 1.433 . S
C494 H490 0.929 . S
C494 C496 1.378 . S
C494 C498 1.350 . S
C495 C498 1.463 . S
C495 C500 1.350 . S
C495 N503 1.427 . S
C496 H487 0.930 1_545 S
C496 C494 1.378 . S
C496 C497 1.367 . S
C497 C496 1.367 . S
C497 C499 1.433 . S
C498 C494 1.350 . S
C498 C495 1.463 . S
C498 N502 1.427 . S
C499 H489 0.929 . S
C499 C497 1.433 . S
C499 N502 1.384 . S
C500 H491 0.929 . S
C500 C492 1.378 . S
C500 C495 1.350 . S
C501 H488 0.929 . S
C501 C493 1.433 . S
C501 N503 1.384 . S
N502 C498 1.427 . S
N502 C499 1.384 . S
N503 C495 1.427 . S
N503 C501 1.384 . S
H504 C510 0.930 . S
H505 C514 0.930 . S
H506 C519 0.929 . S
H507 C517 0.929 . S
H508 C512 0.929 . S
H509 C518 0.929 . S
C510 H504 0.930 . S
C510 C511 1.367 . S
C510 C518 1.378 . S
C511 C510 1.367 . S
C511 C519 1.433 . S
C512 H508 0.929 . S
C512 C514 1.378 . S
C512 C516 1.350 . S
C513 C516 1.463 . S
C513 C518 1.350 . S
C513 N521 1.427 . S
C514 H505 0.930 . S
C514 C512 1.378 . S
C514 C515 1.367 . S
C515 C514 1.367 . S
C515 C517 1.433 . S
C516 C512 1.350 . S
C516 C513 1.463 . S
C516 N520 1.427 . S
C517 H507 0.929 . S
C517 C515 1.433 . S
C517 N520 1.384 . S
C518 H509 0.929 . S
C518 C510 1.378 . S
C518 C513 1.350 . S
C519 H506 0.929 . S
C519 C511 1.433 . S
C519 N521 1.384 . S
N520 C516 1.427 . S
N520 C517 1.384 . S
N521 C513 1.427 . S
N521 C519 1.384 . S
H522 C528 0.930 . S
H523 C532 0.930 . S
H524 C537 0.929 . S
H525 C535 0.929 . S
H526 C530 0.929 . S
H527 C536 0.929 . S
C528 H522 0.930 . S
C528 C529 1.367 . S
C528 C536 1.378 . S
C529 C528 1.367 . S
C529 C537 1.433 . S
C530 H526 0.929 . S
C530 C532 1.378 . S
C530 C534 1.350 . S
C531 C534 1.463 . S
C531 C536 1.350 . S
C531 N539 1.427 . S
C532 H523 0.930 . S
C532 C530 1.378 . S
C532 C533 1.367 . S
C533 C532 1.367 . S
C533 C535 1.433 . S
C534 C530 1.350 . S
C534 C531 1.463 . S
C534 N538 1.427 . S
C535 H525 0.929 . S
C535 C533 1.433 . S
C535 N538 1.384 . S
C536 H527 0.929 . S
C536 C528 1.378 . S
C536 C531 1.350 . S
C537 H524 0.929 . S
C537 C529 1.433 . S
C537 N539 1.384 . S
N538 C534 1.427 . S
N538 C535 1.384 . S
N539 C531 1.427 . S
N539 C537 1.384 . S
H540 C546 0.930 . S
H541 C550 0.930 . S
H542 C555 0.929 . S
H543 C553 0.929 1_655 S
H544 C548 0.929 . S
H545 C554 0.929 . S
C546 H540 0.930 . S
C546 C547 1.367 . S
C546 C554 1.378 . S
C547 C546 1.367 . S
C547 C555 1.433 . S
C548 H544 0.929 . S
C548 C550 1.378 . S
C548 C552 1.350 . S
C549 C552 1.463 . S
C549 C554 1.350 . S
C549 N557 1.427 . S
C550 H541 0.930 . S
C550 C548 1.378 . S
C550 C551 1.367 . S
C551 C550 1.367 . S
C551 C553 1.433 . S
C552 C548 1.350 . S
C552 C549 1.463 . S
C552 N556 1.427 . S
C553 H543 0.929 1_455 S
C553 C551 1.433 . S
C553 N556 1.384 . S
C554 H545 0.929 . S
C554 C546 1.378 . S
C554 C549 1.350 . S
C555 H542 0.929 . S
C555 C547 1.433 . S
C555 N557 1.384 . S
N556 C552 1.427 . S
N556 C553 1.384 . S
N557 C549 1.427 . S
N557 C555 1.384 . S
H558 C564 0.930 . S
H559 C568 0.930 . S
H560 C573 0.929 . S
H561 C571 0.929 . S
H562 C566 0.929 . S
H563 C572 0.929 . S
C564 H558 0.930 . S
C564 C565 1.367 . S
C564 C572 1.378 . S
C565 C564 1.367 . S
C565 C573 1.433 . S
C566 H562 0.929 . S
C566 C568 1.378 . S
C566 C570 1.350 . S
C567 C570 1.463 . S
C567 C572 1.350 . S
C567 N575 1.427 . S
C568 H559 0.930 . S
C568 C566 1.378 . S
C568 C569 1.367 . S
C569 C568 1.367 . S
C569 C571 1.433 . S
C570 C566 1.350 . S
C570 C567 1.463 . S
C570 N574 1.427 . S
C571 H561 0.929 . S
C571 C569 1.433 . S
C571 N574 1.384 . S
C572 H563 0.929 . S
C572 C564 1.378 . S
C572 C567 1.350 . S
C573 H560 0.929 . S
C573 C565 1.433 . S
C573 N575 1.384 . S
N574 C570 1.427 . S
N574 C571 1.384 . S
N575 C567 1.427 . S
N575 C573 1.384 . S
C295 C2 0.483 . S
C299 C74 0.491 . S
C313 C38 0.500 . S
C317 C110 0.510 . S
C331 C146 0.514 . S
C335 C218 0.509 . S
C349 C182 0.496 . S
C353 C254 0.508 . S
C367 C4 1.445 . S
C371 C184 1.448 . S
C385 C40 1.436 . S
C389 C220 1.446 . S
C403 C256 1.436 . S
C407 C76 1.446 . S
C421 C112 1.443 . S
C425 C148 1.434 . S
C439 C147 1.691 . S
C443 C14 1.618 . S
C457 C50 1.629 . S
C461 C183 1.700 1_565 S
C475 C86 1.626 . S
C479 C219 1.693 . S
C493 C122 1.627 . S
C497 C255 1.693 1_545 S
C511 C3 1.702 1_655 S
C515 C158 1.636 . S
C529 C194 1.636 . S
C533 C39 1.701 . S
C547 C230 1.623 . S
C551 C75 1.696 1_455 S
C565 C111 1.694 . S
C569 C266 1.628 . S
