# Generated by pormake.
# Topology uks, (4)-cn, num edge types: 1
# Building blocks:
#     Node 0, Type 0, BuildingBlock: KOZSID_clean_sbu_0, # of connection points: 4
#     Node 1, Type 0, BuildingBlock: KOZSID_clean_sbu_0, # of connection points: 4
#     Node 2, Type 0, BuildingBlock: KOZSID_clean_sbu_0, # of connection points: 4
#     Node 3, Type 0, BuildingBlock: KOZSID_clean_sbu_0, # of connection points: 4
#     Node 4, Type 0, BuildingBlock: KOZSID_clean_sbu_0, # of connection points: 4
#     Node 5, Type 0, BuildingBlock: KOZSID_clean_sbu_0, # of connection points: 4
#     Node 6, Type 0, BuildingBlock: KOZSID_clean_sbu_0, # of connection points: 4
#     Node 7, Type 0, BuildingBlock: KOZSID_clean_sbu_0, # of connection points: 4
#     Node 8, Type 0, BuildingBlock: KOZSID_clean_sbu_0, # of connection points: 4
#     Node 9, Type 0, BuildingBlock: KOZSID_clean_sbu_0, # of connection points: 4
#     Node 10, Type 0, BuildingBlock: KOZSID_clean_sbu_0, # of connection points: 4
#     Node 11, Type 0, BuildingBlock: KOZSID_clean_sbu_0, # of connection points: 4
#     Node 12, Type 0, BuildingBlock: KOZSID_clean_sbu_0, # of connection points: 4
#     Node 13, Type 0, BuildingBlock: KOZSID_clean_sbu_0, # of connection points: 4
#     Node 14, Type 0, BuildingBlock: KOZSID_clean_sbu_0, # of connection points: 4
#     Node 15, Type 0, BuildingBlock: KOZSID_clean_sbu_0, # of connection points: 4
#     Node 16, Type 0, BuildingBlock: KOZSID_clean_sbu_0, # of connection points: 4
#     Node 17, Type 0, BuildingBlock: KOZSID_clean_sbu_0, # of connection points: 4
#     Node 18, Type 0, BuildingBlock: KOZSID_clean_sbu_0, # of connection points: 4
#     Node 19, Type 0, BuildingBlock: KOZSID_clean_sbu_0, # of connection points: 4
#     Node 20, Type 0, BuildingBlock: KOZSID_clean_sbu_0, # of connection points: 4
#     Node 21, Type 0, BuildingBlock: KOZSID_clean_sbu_0, # of connection points: 4
#     Node 22, Type 0, BuildingBlock: KOZSID_clean_sbu_0, # of connection points: 4
#     Node 23, Type 0, BuildingBlock: KOZSID_clean_sbu_0, # of connection points: 4
#     Edge 24, Type (0, 0), BuildingBlock: ZUJKAS_clean_linker_0, # of connection points: 2
#     Edge 25, Type (0, 0), BuildingBlock: ZUJKAS_clean_linker_0, # of connection points: 2
#     Edge 26, Type (0, 0), BuildingBlock: ZUJKAS_clean_linker_0, # of connection points: 2
#     Edge 27, Type (0, 0), BuildingBlock: ZUJKAS_clean_linker_0, # of connection points: 2
#     Edge 28, Type (0, 0), BuildingBlock: ZUJKAS_clean_linker_0, # of connection points: 2
#     Edge 29, Type (0, 0), BuildingBlock: ZUJKAS_clean_linker_0, # of connection points: 2
#     Edge 30, Type (0, 0), BuildingBlock: ZUJKAS_clean_linker_0, # of connection points: 2
#     Edge 31, Type (0, 0), BuildingBlock: ZUJKAS_clean_linker_0, # of connection points: 2
#     Edge 32, Type (0, 0), BuildingBlock: ZUJKAS_clean_linker_0, # of connection points: 2
#     Edge 33, Type (0, 0), BuildingBlock: ZUJKAS_clean_linker_0, # of connection points: 2
#     Edge 34, Type (0, 0), BuildingBlock: ZUJKAS_clean_linker_0, # of connection points: 2
#     Edge 35, Type (0, 0), BuildingBlock: ZUJKAS_clean_linker_0, # of connection points: 2
#     Edge 36, Type (0, 0), BuildingBlock: ZUJKAS_clean_linker_0, # of connection points: 2
#     Edge 37, Type (0, 0), BuildingBlock: ZUJKAS_clean_linker_0, # of connection points: 2
#     Edge 38, Type (0, 0), BuildingBlock: ZUJKAS_clean_linker_0, # of connection points: 2
#     Edge 39, Type (0, 0), BuildingBlock: ZUJKAS_clean_linker_0, # of connection points: 2
#     Edge 40, Type (0, 0), BuildingBlock: ZUJKAS_clean_linker_0, # of connection points: 2
#     Edge 41, Type (0, 0), BuildingBlock: ZUJKAS_clean_linker_0, # of connection points: 2
#     Edge 42, Type (0, 0), BuildingBlock: ZUJKAS_clean_linker_0, # of connection points: 2
#     Edge 43, Type (0, 0), BuildingBlock: ZUJKAS_clean_linker_0, # of connection points: 2
#     Edge 44, Type (0, 0), BuildingBlock: ZUJKAS_clean_linker_0, # of connection points: 2
#     Edge 45, Type (0, 0), BuildingBlock: ZUJKAS_clean_linker_0, # of connection points: 2
#     Edge 46, Type (0, 0), BuildingBlock: ZUJKAS_clean_linker_0, # of connection points: 2
#     Edge 47, Type (0, 0), BuildingBlock: ZUJKAS_clean_linker_0, # of connection points: 2
#     Edge 48, Type (0, 0), BuildingBlock: ZUJKAS_clean_linker_0, # of connection points: 2
#     Edge 49, Type (0, 0), BuildingBlock: ZUJKAS_clean_linker_0, # of connection points: 2
#     Edge 50, Type (0, 0), BuildingBlock: ZUJKAS_clean_linker_0, # of connection points: 2
#     Edge 51, Type (0, 0), BuildingBlock: ZUJKAS_clean_linker_0, # of connection points: 2
#     Edge 52, Type (0, 0), BuildingBlock: ZUJKAS_clean_linker_0, # of connection points: 2
#     Edge 53, Type (0, 0), BuildingBlock: ZUJKAS_clean_linker_0, # of connection points: 2
#     Edge 54, Type (0, 0), BuildingBlock: ZUJKAS_clean_linker_0, # of connection points: 2
#     Edge 55, Type (0, 0), BuildingBlock: ZUJKAS_clean_linker_0, # of connection points: 2
#     Edge 56, Type (0, 0), BuildingBlock: ZUJKAS_clean_linker_0, # of connection points: 2
#     Edge 57, Type (0, 0), BuildingBlock: ZUJKAS_clean_linker_0, # of connection points: 2
#     Edge 58, Type (0, 0), BuildingBlock: ZUJKAS_clean_linker_0, # of connection points: 2
#     Edge 59, Type (0, 0), BuildingBlock: ZUJKAS_clean_linker_0, # of connection points: 2
#     Edge 60, Type (0, 0), BuildingBlock: ZUJKAS_clean_linker_0, # of connection points: 2
#     Edge 61, Type (0, 0), BuildingBlock: ZUJKAS_clean_linker_0, # of connection points: 2
#     Edge 62, Type (0, 0), BuildingBlock: ZUJKAS_clean_linker_0, # of connection points: 2
#     Edge 63, Type (0, 0), BuildingBlock: ZUJKAS_clean_linker_0, # of connection points: 2
#     Edge 64, Type (0, 0), BuildingBlock: ZUJKAS_clean_linker_0, # of connection points: 2
#     Edge 65, Type (0, 0), BuildingBlock: ZUJKAS_clean_linker_0, # of connection points: 2
#     Edge 66, Type (0, 0), BuildingBlock: ZUJKAS_clean_linker_0, # of connection points: 2
#     Edge 67, Type (0, 0), BuildingBlock: ZUJKAS_clean_linker_0, # of connection points: 2
#     Edge 68, Type (0, 0), BuildingBlock: ZUJKAS_clean_linker_0, # of connection points: 2
#     Edge 69, Type (0, 0), BuildingBlock: ZUJKAS_clean_linker_0, # of connection points: 2
#     Edge 70, Type (0, 0), BuildingBlock: ZUJKAS_clean_linker_0, # of connection points: 2
#     Edge 71, Type (0, 0), BuildingBlock: ZUJKAS_clean_linker_0, # of connection points: 2
# Relax obj value: 0.059
# Max RMSD: 0.066
# Mean RMSD: 0.057
data_MOF--net-uks--node1-KOZSID_clean_sbu_0--edge1-ZUJKAS_clean_linker_0
_symmetry_space_group_name_H-M    P1
_symmetry_Int_Tables_number       1
_symmetry_cell_setting            triclinic
loop_
_symmetry_equiv_pos_as_xyz
'x, y, z'
_cell_length_a     78.222189
_cell_length_b     89.537027
_cell_length_c     80.828013
_cell_angle_alpha  89.343703
_cell_angle_beta   90.779314
_cell_angle_gamma 90.042621
loop_
_atom_site_label
_atom_site_type_symbol
_atom_site_fract_x
_atom_site_fract_y
_atom_site_fract_z
_atom_type_partial_charge
C0 C 0.08797 0.37953 0.69583 0.0
C1 C 0.07442 0.38387 0.70558 0.0
C2 C 0.08139 0.39016 0.71942 0.0
C3 C 0.09873 0.38929 0.71735 0.0
N4 N 0.10329 0.38302 0.70292 0.0
Co5 Co 0.12719 0.37884 0.69539 0.0
N6 N 0.13741 0.38619 0.71674 0.0
C7 C 0.12886 0.39219 0.7295 0.0
C8 C 0.13923 0.39646 0.7424 0.0
C9 C 0.15538 0.39288 0.73769 0.0
C10 C 0.15394 0.38647 0.72216 0.0
N11 N 0.15106 0.37449 0.68792 0.0
C12 C 0.16628 0.37549 0.69616 0.0
C13 C 0.17967 0.37048 0.68656 0.0
C14 C 0.17275 0.36639 0.67172 0.0
C15 C 0.15558 0.36896 0.67309 0.0
N16 N 0.11693 0.37141 0.67409 0.0
C17 C 0.12548 0.36661 0.66073 0.0
C18 C 0.11503 0.3617 0.64817 0.0
C19 C 0.09881 0.36326 0.65391 0.0
C20 C 0.10032 0.36904 0.66972 0.0
N21 N 0.12887 0.39943 0.68578 0.0
C22 C 0.13396 0.42879 0.67342 0.0
C23 C 0.13843 0.41634 0.66416 0.0
C24 C 0.13577 0.40193 0.67048 0.0
C25 C 0.12634 0.42624 0.68873 0.0
C26 C 0.12385 0.41166 0.69454 0.0
N27 N 0.12566 0.35846 0.70498 0.0
C28 C 0.13027 0.33188 0.7029 0.0
C29 C 0.1242 0.32955 0.7189 0.0
C30 C 0.1187 0.34192 0.72773 0.0
C31 C 0.11955 0.35617 0.7206 0.0
C32 C 0.13084 0.3463 0.69622 0.0
H33 H 0.1153 0.36519 0.72799 0.0
H34 H 0.13554 0.34737 0.68395 0.0
H35 H 0.13958 0.39304 0.66279 0.0
H36 H 0.11808 0.41065 0.7063 0.0
C37 C 0.11103 0.39329 0.72921 0.0
C38 C 0.08563 0.37163 0.68025 0.0
C39 C 0.16866 0.38085 0.71312 0.0
C40 C 0.1433 0.36558 0.66097 0.0
H41 H 0.0609 0.38234 0.70311 0.0
H42 H 0.07464 0.39442 0.72996 0.0
H43 H 0.13547 0.40147 0.75391 0.0
H44 H 0.1669 0.39475 0.74493 0.0
H45 H 0.19306 0.36962 0.68995 0.0
H46 H 0.1794 0.36177 0.6613 0.0
H47 H 0.11878 0.35705 0.63646 0.0
H48 H 0.08719 0.36019 0.64736 0.0
H49 H 0.14401 0.41765 0.65203 0.0
H50 H 0.1227 0.43546 0.6965 0.0
H51 H 0.13444 0.3226 0.69548 0.0
H52 H 0.11404 0.34069 0.74024 0.0
C53 C 0.60439 0.62398 0.1778 0.0
C54 C 0.60597 0.62899 0.16157 0.0
C55 C 0.62291 0.63182 0.15925 0.0
C56 C 0.63066 0.62832 0.1741 0.0
N57 N 0.6197 0.6233 0.18575 0.0
Co58 Co 0.62546 0.61668 0.20893 0.0
N59 N 0.65018 0.6214 0.20567 0.0
C60 C 0.65741 0.62801 0.19235 0.0
C61 C 0.67475 0.62981 0.19391 0.0
C62 C 0.67889 0.62367 0.20895 0.0
C63 C 0.66376 0.61833 0.21563 0.0
N64 N 0.63138 0.60964 0.23197 0.0
C65 C 0.64691 0.60691 0.23895 0.0
C66 C 0.64556 0.60065 0.25467 0.0
C67 C 0.62851 0.59925 0.25768 0.0
C68 C 0.6205 0.60459 0.24364 0.0
N69 N 0.60062 0.61222 0.21228 0.0
C70 C 0.59324 0.60706 0.22627 0.0
C71 C 0.57584 0.60567 0.22503 0.0
C72 C 0.5718 0.61038 0.20936 0.0
C73 C 0.58708 0.61433 0.2019 0.0
N74 N 0.62937 0.59602 0.20095 0.0
C75 C 0.63755 0.56657 0.1915 0.0
C76 C 0.62596 0.56924 0.20417 0.0
C77 C 0.62211 0.58391 0.20868 0.0
C78 C 0.64454 0.57895 0.18334 0.0
C79 C 0.64024 0.59342 0.18814 0.0
N80 N 0.62177 0.63747 0.21703 0.0
C81 C 0.61178 0.65465 0.23785 0.0
C82 C 0.6181 0.66699 0.22905 0.0
C83 C 0.62599 0.66421 0.21396 0.0
C84 C 0.62753 0.6496 0.20822 0.0
C85 C 0.61373 0.64016 0.23169 0.0
H86 H 0.63357 0.64847 0.19662 0.0
H87 H 0.60863 0.63133 0.23904 0.0
H88 H 0.61347 0.58521 0.21867 0.0
H89 H 0.64609 0.60235 0.18146 0.0
C90 C 0.64794 0.63062 0.17784 0.0
C91 C 0.58797 0.62074 0.18529 0.0
C92 C 0.66308 0.60921 0.23064 0.0
C93 C 0.60298 0.60365 0.2404 0.0
H94 H 0.59586 0.63071 0.15248 0.0
H95 H 0.62881 0.63626 0.1482 0.0
H96 H 0.68345 0.63435 0.18484 0.0
H97 H 0.69168 0.62264 0.2141 0.0
H98 H 0.65578 0.59699 0.26289 0.0
H99 H 0.62267 0.59426 0.26848 0.0
H100 H 0.56711 0.60187 0.23446 0.0
H101 H 0.55901 0.61106 0.20416 0.0
H102 H 0.62022 0.56005 0.21094 0.0
H103 H 0.65331 0.57752 0.17323 0.0
H104 H 0.60522 0.65609 0.24943 0.0
H105 H 0.63131 0.67324 0.20664 0.0
C106 C 0.41534 0.13229 0.70147 0.0
C107 C 0.4294 0.12683 0.71026 0.0
C108 C 0.42312 0.11801 0.72279 0.0
C109 C 0.40564 0.1186 0.72099 0.0
N110 N 0.40058 0.12726 0.70814 0.0
Co111 Co 0.37658 0.13138 0.70128 0.0
N112 N 0.36776 0.12513 0.72321 0.0
C113 C 0.37633 0.11687 0.73461 0.0
C114 C 0.36702 0.11419 0.7486 0.0
C115 C 0.35156 0.12104 0.74574 0.0
C116 C 0.35225 0.12747 0.73004 0.0
N117 N 0.3526 0.13549 0.69428 0.0
C118 C 0.33834 0.13697 0.70347 0.0
C119 C 0.32406 0.13932 0.69337 0.0
C120 C 0.32963 0.13916 0.67735 0.0
C121 C 0.34693 0.13672 0.67851 0.0
N122 N 0.38547 0.13756 0.67939 0.0
C123 C 0.37637 0.13847 0.66518 0.0
C124 C 0.38603 0.14318 0.65203 0.0
C125 C 0.4022 0.14532 0.65841 0.0
C126 C 0.40147 0.1418 0.67515 0.0
N127 N 0.37418 0.1108 0.6936 0.0
C128 C 0.37065 0.08102 0.68368 0.0
C129 C 0.38536 0.08926 0.67979 0.0
C130 C 0.38687 0.10412 0.68485 0.0
C131 C 0.35769 0.08814 0.69239 0.0
C132 C 0.35971 0.10292 0.69723 0.0
N133 N 0.37887 0.15183 0.709 0.0
C134 C 0.37408 0.17815 0.70497 0.0
C135 C 0.3814 0.18111 0.72051 0.0
C136 C 0.38762 0.16908 0.73006 0.0
C137 C 0.38621 0.15456 0.7241 0.0
C138 C 0.37297 0.16346 0.69945 0.0
H139 H 0.39101 0.14554 0.73176 0.0
H140 H 0.36718 0.1615 0.68749 0.0
H141 H 0.39836 0.11017 0.68182 0.0
H142 H 0.34948 0.10792 0.70401 0.0
C143 C 0.39375 0.11374 0.7327 0.0
C144 C 0.41633 0.14162 0.68644 0.0
C145 C 0.33754 0.13451 0.72148 0.0
C146 C 0.35848 0.13757 0.66542 0.0
H147 H 0.44276 0.12903 0.70792 0.0
H148 H 0.43043 0.11244 0.73252 0.0
H149 H 0.37112 0.10835 0.75976 0.0
H150 H 0.34095 0.12113 0.75418 0.0
H151 H 0.31094 0.14068 0.69715 0.0
H152 H 0.32201 0.14095 0.66622 0.0
H153 H 0.3817 0.14544 0.63948 0.0
H154 H 0.41325 0.14902 0.65156 0.0
H155 H 0.39576 0.08421 0.67314 0.0
H156 H 0.34593 0.08239 0.69538 0.0
H157 H 0.36893 0.18706 0.69723 0.0
H158 H 0.39363 0.17083 0.74203 0.0
C159 C 0.89344 0.87906 0.17112 0.0
C160 C 0.89601 0.87557 0.15465 0.0
C161 C 0.88026 0.87294 0.14785 0.0
C162 C 0.86905 0.87492 0.16051 0.0
N163 N 0.87665 0.87881 0.17497 0.0
Co164 Co 0.86529 0.88241 0.19666 0.0
N165 N 0.84234 0.87703 0.18707 0.0
C166 C 0.83867 0.87326 0.17125 0.0
C167 C 0.82185 0.86965 0.16854 0.0
C168 C 0.81433 0.87104 0.18356 0.0
C169 C 0.82707 0.8755 0.19458 0.0
N170 N 0.85397 0.88598 0.21836 0.0
C171 C 0.83758 0.88359 0.22284 0.0
C172 C 0.83495 0.88731 0.23924 0.0
C173 C 0.85031 0.89203 0.24542 0.0
C174 C 0.86138 0.89095 0.23249 0.0
N175 N 0.88826 0.88769 0.20627 0.0
C176 C 0.8918 0.89237 0.22181 0.0
C177 C 0.90884 0.89486 0.22482 0.0
C178 C 0.9167 0.89142 0.2104 0.0
C179 C 0.90392 0.887 0.19942 0.0
N180 N 0.86141 0.90382 0.19018 0.0
C181 C 0.85459 0.9341 0.18159 0.0
C182 C 0.86182 0.93017 0.19694 0.0
C183 C 0.86508 0.91518 0.20092 0.0
C184 C 0.85112 0.92257 0.17051 0.0
C185 C 0.85464 0.9077 0.17499 0.0
N186 N 0.86897 0.86113 0.20319 0.0
C187 C 0.87657 0.84251 0.22399 0.0
C188 C 0.872 0.83085 0.21341 0.0
C189 C 0.86633 0.83471 0.19741 0.0
C190 C 0.86499 0.84977 0.19258 0.0
C191 C 0.87497 0.85739 0.2187 0.0
H192 H 0.86048 0.85198 0.18027 0.0
H193 H 0.87853 0.86572 0.22742 0.0
H194 H 0.87053 0.91313 0.21282 0.0
H195 H 0.85161 0.89958 0.16593 0.0
C196 C 0.85146 0.87241 0.15944 0.0
C197 C 0.90736 0.88187 0.18279 0.0
C198 C 0.82422 0.87754 0.21215 0.0
C199 C 0.87893 0.89368 0.23351 0.0
H200 H 0.90805 0.87476 0.14828 0.0
H201 H 0.87737 0.86961 0.13529 0.0
H202 H 0.81586 0.86606 0.1571 0.0
H203 H 0.80104 0.86875 0.18616 0.0
H204 H 0.82318 0.8865 0.2461 0.0
H205 H 0.85317 0.8955 0.25794 0.0
H206 H 0.91486 0.89846 0.23623 0.0
H207 H 0.93032 0.8919 0.20825 0.0
H208 H 0.86514 0.93864 0.2059 0.0
H209 H 0.84538 0.9249 0.15849 0.0
H210 H 0.88143 0.84022 0.23637 0.0
H211 H 0.86252 0.8262 0.1887 0.0
C212 C 0.08869 0.13041 0.80856 0.0
C213 C 0.07528 0.12583 0.79839 0.0
C214 C 0.08244 0.11933 0.78495 0.0
C215 C 0.09975 0.12035 0.78758 0.0
N216 N 0.10408 0.12694 0.80201 0.0
Co217 Co 0.12787 0.13125 0.81028 0.0
N218 N 0.13825 0.12487 0.78888 0.0
C219 C 0.12974 0.11974 0.77541 0.0
C220 C 0.14004 0.11708 0.7622 0.0
C221 C 0.1561 0.12089 0.76744 0.0
C222 C 0.1547 0.12555 0.7837 0.0
N223 N 0.15165 0.13523 0.81875 0.0
C224 C 0.16692 0.13447 0.81099 0.0
C225 C 0.18041 0.1378 0.82166 0.0
C226 C 0.17342 0.14096 0.8366 0.0
C227 C 0.15614 0.1393 0.83427 0.0
N228 N 0.11743 0.13837 0.83134 0.0
C229 C 0.12589 0.14307 0.84503 0.0
C230 C 0.11538 0.14818 0.85715 0.0
C231 C 0.09922 0.147 0.85069 0.0
C232 C 0.10084 0.14122 0.83493 0.0
N233 N 0.1296 0.11037 0.81925 0.0
C234 C 0.13493 0.08083 0.83126 0.0
C235 C 0.13604 0.09306 0.84181 0.0
C236 C 0.13334 0.10755 0.83563 0.0
C237 C 0.13051 0.08364 0.81471 0.0
C238 C 0.12781 0.09828 0.80908 0.0
N239 N 0.12631 0.15185 0.80139 0.0
C240 C 0.13214 0.17821 0.80398 0.0
C241 C 0.1245 0.18115 0.78854 0.0
C242 C 0.11767 0.16915 0.77973 0.0
C243 C 0.11872 0.1547 0.78632 0.0
C244 C 0.13287 0.1636 0.81013 0.0
H245 H 0.1133 0.14599 0.77903 0.0
H246 H 0.13887 0.162 0.82196 0.0
H247 H 0.1345 0.11621 0.84442 0.0
H248 H 0.12452 0.09945 0.79635 0.0
C249 C 0.11204 0.11755 0.77563 0.0
C250 C 0.08624 0.13884 0.82376 0.0
C251 C 0.16929 0.13073 0.7936 0.0
C252 C 0.14376 0.14301 0.84583 0.0
H253 H 0.06174 0.12749 0.80013 0.0
H254 H 0.07582 0.11518 0.77409 0.0
H255 H 0.13629 0.11303 0.75012 0.0
H256 H 0.16751 0.12041 0.76006 0.0
H257 H 0.1939 0.13808 0.81889 0.0
H258 H 0.18011 0.14446 0.84771 0.0
H259 H 0.11904 0.15256 0.86911 0.0
H260 H 0.08758 0.15021 0.85679 0.0
H261 H 0.13898 0.09153 0.85485 0.0
H262 H 0.12953 0.07463 0.80593 0.0
H263 H 0.13779 0.1871 0.8112 0.0
H264 H 0.11139 0.17087 0.76784 0.0
C265 C 0.88415 0.63678 0.32874 0.0
C266 C 0.8803 0.64217 0.34429 0.0
C267 C 0.86299 0.6439 0.34462 0.0
C268 C 0.85729 0.6395 0.32932 0.0
N269 N 0.86992 0.63497 0.31925 0.0
Co270 Co 0.86741 0.62767 0.29595 0.0
N271 N 0.84213 0.63078 0.2963 0.0
C272 C 0.83288 0.63711 0.30838 0.0
C273 C 0.81571 0.63777 0.30488 0.0
C274 C 0.81385 0.63114 0.28984 0.0
C275 C 0.83006 0.62668 0.28514 0.0
N276 N 0.8648 0.61996 0.27283 0.0
C277 C 0.85042 0.61604 0.26442 0.0
C278 C 0.85413 0.60961 0.24934 0.0
C279 C 0.8715 0.60936 0.24822 0.0
C280 C 0.87737 0.61549 0.26268 0.0
N281 N 0.89279 0.62483 0.29549 0.0
C282 C 0.90217 0.61988 0.28273 0.0
C283 C 0.91938 0.61933 0.28604 0.0
C284 C 0.92115 0.62442 0.30181 0.0
C285 C 0.90483 0.62783 0.30717 0.0
N286 N 0.86429 0.60692 0.30454 0.0
C287 C 0.8576 0.57715 0.31481 0.0
C288 C 0.87001 0.58038 0.30296 0.0
C289 C 0.87315 0.59519 0.29808 0.0
C290 C 0.84894 0.5892 0.3217 0.0
C291 C 0.85247 0.60383 0.31648 0.0
N292 N 0.87033 0.64854 0.28721 0.0
C293 C 0.88094 0.66599 0.26652 0.0
C294 C 0.87265 0.67796 0.27396 0.0
C295 C 0.86363 0.67496 0.28843 0.0
C296 C 0.86272 0.66039 0.29479 0.0
C297 C 0.87963 0.65152 0.27328 0.0
H298 H 0.85572 0.65907 0.30587 0.0
H299 H 0.88618 0.64294 0.26693 0.0
H300 H 0.88264 0.59688 0.28889 0.0
H301 H 0.84524 0.61246 0.32206 0.0
C302 C 0.84039 0.64059 0.32363 0.0
C303 C 0.90155 0.63442 0.32321 0.0
C304 C 0.83321 0.61737 0.27083 0.0
C305 C 0.89445 0.6157 0.26783 0.0
H306 H 0.88913 0.64489 0.35423 0.0
H307 H 0.8555 0.64826 0.35463 0.0
H308 H 0.80565 0.64188 0.31268 0.0
H309 H 0.80184 0.62921 0.28341 0.0
H310 H 0.8453 0.60503 0.24032 0.0
H311 H 0.87897 0.60456 0.23844 0.0
H312 H 0.92945 0.61574 0.27793 0.0
H313 H 0.93312 0.62565 0.30854 0.0
H314 H 0.87734 0.57152 0.29744 0.0
H315 H 0.8391 0.58739 0.3308 0.0
H316 H 0.88812 0.66766 0.25529 0.0
H317 H 0.85734 0.68386 0.29497 0.0
C318 C 0.41721 0.37921 0.80982 0.0
C319 C 0.43089 0.38396 0.80034 0.0
C320 C 0.4241 0.39041 0.78635 0.0
C321 C 0.40675 0.38929 0.78809 0.0
N322 N 0.40198 0.38271 0.80246 0.0
Co323 Co 0.37797 0.37838 0.80967 0.0
N324 N 0.36807 0.38607 0.78814 0.0
C325 C 0.37682 0.39228 0.77547 0.0
C326 C 0.36665 0.39675 0.76241 0.0
C327 C 0.35043 0.39309 0.7669 0.0
C328 C 0.35162 0.38645 0.78249 0.0
N329 N 0.35397 0.3739 0.81682 0.0
C330 C 0.33886 0.37507 0.80837 0.0
C331 C 0.32532 0.36988 0.8178 0.0
C332 C 0.33202 0.36551 0.83273 0.0
C333 C 0.34922 0.36809 0.83159 0.0
N334 N 0.38793 0.37062 0.83116 0.0
C335 C 0.37914 0.36544 0.84434 0.0
C336 C 0.38934 0.36021 0.85703 0.0
C337 C 0.40566 0.36198 0.85161 0.0
C338 C 0.40448 0.3683 0.83587 0.0
N339 N 0.37616 0.3988 0.81918 0.0
C340 C 0.3711 0.42791 0.8315 0.0
C341 C 0.36647 0.41528 0.84072 0.0
C342 C 0.36913 0.401 0.83442 0.0
C343 C 0.37881 0.42567 0.81624 0.0
C344 C 0.38127 0.4112 0.81043 0.0
N345 N 0.37964 0.35816 0.80019 0.0
C346 C 0.37489 0.33154 0.80223 0.0
C347 C 0.38132 0.32949 0.78639 0.0
C348 C 0.38707 0.34202 0.77763 0.0
C349 C 0.3861 0.35614 0.7847 0.0
C350 C 0.37422 0.34585 0.80886 0.0
H351 H 0.39053 0.36529 0.77738 0.0
H352 H 0.36925 0.34669 0.82102 0.0
H353 H 0.36522 0.39195 0.84208 0.0
H354 H 0.3871 0.41042 0.79871 0.0
C355 C 0.39463 0.39344 0.77604 0.0
C356 C 0.4194 0.37122 0.82559 0.0
C357 C 0.33675 0.3807 0.79136 0.0
C358 C 0.36132 0.36444 0.84384 0.0
H359 H 0.44438 0.3827 0.80314 0.0
H360 H 0.43101 0.39502 0.77596 0.0
H361 H 0.37058 0.40197 0.75092 0.0
H362 H 0.33901 0.39509 0.7595 0.0
H363 H 0.31198 0.36909 0.81422 0.0
H364 H 0.32521 0.36069 0.84307 0.0
H365 H 0.38537 0.3552 0.86861 0.0
H366 H 0.41708 0.35861 0.85835 0.0
H367 H 0.36079 0.41636 0.85279 0.0
H368 H 0.38256 0.43504 0.80851 0.0
H369 H 0.37052 0.32213 0.80959 0.0
H370 H 0.39202 0.34099 0.76525 0.0
C371 C 0.59875 0.85997 0.33435 0.0
C372 C 0.59753 0.85637 0.35105 0.0
C373 C 0.61369 0.8578 0.35772 0.0
C374 C 0.62384 0.8621 0.34476 0.0
N375 N 0.61504 0.86338 0.33041 0.0
Co376 Co 0.62448 0.86888 0.30859 0.0
N377 N 0.64792 0.86368 0.31603 0.0
C378 C 0.65344 0.86248 0.33184 0.0
C379 C 0.67048 0.8589 0.33311 0.0
C380 C 0.67597 0.85792 0.31711 0.0
C381 C 0.66191 0.861 0.30694 0.0
N382 N 0.63379 0.87439 0.28674 0.0
C383 C 0.6489 0.87064 0.28004 0.0
C384 C 0.65049 0.87698 0.26436 0.0
C385 C 0.63589 0.8851 0.26134 0.0
C386 C 0.62622 0.88326 0.27526 0.0
N387 N 0.6011 0.87432 0.30126 0.0
C388 C 0.59685 0.88345 0.28853 0.0
C389 C 0.57948 0.8852 0.28668 0.0
C390 C 0.57246 0.87667 0.29907 0.0
C391 C 0.58602 0.87016 0.30775 0.0
N392 N 0.62821 0.88941 0.31618 0.0
C393 C 0.63438 0.91848 0.32782 0.0
C394 C 0.6462 0.91121 0.31778 0.0
C395 C 0.64298 0.89674 0.31227 0.0
C396 C 0.61921 0.91083 0.33165 0.0
C397 C 0.61632 0.89642 0.32561 0.0
N398 N 0.62094 0.84835 0.30102 0.0
C399 C 0.61176 0.83109 0.28 0.0
C400 C 0.61776 0.81888 0.28949 0.0
C401 C 0.62509 0.82188 0.30507 0.0
C402 C 0.62644 0.83658 0.31061 0.0
C403 C 0.61352 0.84567 0.28593 0.0
H404 H 0.63223 0.83844 0.32258 0.0
H405 H 0.60902 0.8548 0.27822 0.0
H406 H 0.65255 0.89147 0.30487 0.0
H407 H 0.60452 0.89089 0.32874 0.0
C408 C 0.64176 0.86225 0.34485 0.0
C409 C 0.58431 0.86086 0.32264 0.0
C410 C 0.6626 0.86255 0.28887 0.0
C411 C 0.60915 0.88767 0.27694 0.0
H412 H 0.58623 0.85303 0.3577 0.0
H413 H 0.61767 0.85531 0.37033 0.0
H414 H 0.67788 0.85672 0.34429 0.0
H415 H 0.68887 0.85538 0.31336 0.0
H416 H 0.66119 0.87603 0.25608 0.0
H417 H 0.63254 0.89122 0.25013 0.0
H418 H 0.5727 0.89138 0.27706 0.0
H419 H 0.55895 0.8754 0.30145 0.0
H420 H 0.65792 0.91663 0.31402 0.0
H421 H 0.6097 0.91575 0.3395 0.0
H422 H 0.60569 0.82947 0.26804 0.0
H423 H 0.63016 0.81297 0.31286 0.0
C424 C 0.66661 0.12915 0.40066 0.0
C425 C 0.64941 0.1319 0.39757 0.0
C426 C 0.64646 0.12852 0.38123 0.0
C427 C 0.66199 0.12394 0.37533 0.0
N428 N 0.67442 0.12431 0.38697 0.0
Co429 Co 0.69868 0.11892 0.38413 0.0
N430 N 0.69672 0.12175 0.35998 0.0
C431 C 0.68213 0.12163 0.35092 0.0
C432 C 0.68494 0.12359 0.33432 0.0
C433 C 0.70234 0.1249 0.33291 0.0
C434 C 0.70922 0.12369 0.34883 0.0
N435 N 0.72294 0.11343 0.3814 0.0
C436 C 0.73328 0.11619 0.3685 0.0
C437 C 0.74955 0.11049 0.37158 0.0
C438 C 0.74915 0.10374 0.3869 0.0
C439 C 0.73276 0.10574 0.39233 0.0
N440 N 0.70051 0.11593 0.40828 0.0
C441 C 0.71238 0.10783 0.41654 0.0
C442 C 0.71016 0.10805 0.43338 0.0
C443 C 0.69601 0.11683 0.43573 0.0
C444 C 0.69043 0.12144 0.42012 0.0
N445 N 0.69212 0.09789 0.38153 0.0
C446 C 0.68113 0.06844 0.37567 0.0
C447 C 0.69442 0.0749 0.36653 0.0
C448 C 0.69956 0.08957 0.36952 0.0
C449 C 0.6739 0.07701 0.38825 0.0
C450 C 0.67967 0.0916 0.39108 0.0
N451 N 0.70526 0.13998 0.38644 0.0
C452 C 0.72484 0.1588 0.3964 0.0
C453 C 0.71611 0.17 0.38736 0.0
C454 C 0.70149 0.16578 0.37829 0.0
C455 C 0.69635 0.15081 0.37795 0.0
C456 C 0.71918 0.14393 0.39584 0.0
H457 H 0.68527 0.14797 0.37057 0.0
H458 H 0.7263 0.13557 0.40273 0.0
H459 H 0.70943 0.09423 0.36185 0.0
H460 H 0.67378 0.09792 0.40075 0.0
C461 C 0.66617 0.12216 0.35865 0.0
C462 C 0.67522 0.13048 0.41671 0.0
C463 C 0.7276 0.12298 0.35279 0.0
C464 C 0.72703 0.10291 0.40844 0.0
H465 H 0.64005 0.13593 0.40618 0.0
H466 H 0.63462 0.12994 0.37431 0.0
H467 H 0.67547 0.12446 0.32446 0.0
H468 H 0.70917 0.12638 0.32145 0.0
H469 H 0.7605 0.11105 0.36356 0.0
H470 H 0.75972 0.09852 0.39352 0.0
H471 H 0.71833 0.1031 0.44286 0.0
H472 H 0.6905 0.11957 0.44752 0.0
H473 H 0.70087 0.06874 0.35702 0.0
H474 H 0.66353 0.07269 0.39564 0.0
H475 H 0.73626 0.16136 0.40353 0.0
H476 H 0.694 0.17396 0.37141 0.0
C477 C 0.91671 0.20347 0.88363 0.0
C478 C 0.92955 0.20785 0.89458 0.0
C479 C 0.92169 0.21511 0.90725 0.0
C480 C 0.90457 0.21489 0.90331 0.0
N481 N 0.90117 0.20804 0.8889 0.0
Co482 Co 0.87815 0.2057 0.87848 0.0
N483 N 0.86812 0.22154 0.89241 0.0
C484 C 0.87515 0.22698 0.90639 0.0
C485 C 0.86541 0.2379 0.91341 0.0
C486 C 0.85127 0.23931 0.90332 0.0
C487 C 0.85309 0.22905 0.89071 0.0
N488 N 0.85515 0.20325 0.86806 0.0
C489 C 0.84119 0.21224 0.86837 0.0
C490 C 0.82754 0.20582 0.85986 0.0
C491 C 0.83315 0.19234 0.85419 0.0
C492 C 0.84983 0.19123 0.85953 0.0
N493 N 0.88814 0.18984 0.86461 0.0
C494 C 0.87928 0.17923 0.85651 0.0
C495 C 0.88958 0.16955 0.84819 0.0
C496 C 0.90596 0.1743 0.85133 0.0
C497 C 0.90473 0.1867 0.8614 0.0
N498 N 0.87235 0.19076 0.89519 0.0
C499 C 0.86442 0.17038 0.92031 0.0
C500 C 0.88031 0.16988 0.91257 0.0
C501 C 0.88399 0.18014 0.9 0.0
C502 C 0.85241 0.18099 0.91484 0.0
C503 C 0.85665 0.19109 0.90238 0.0
N504 N 0.88397 0.22059 0.86187 0.0
C505 C 0.88416 0.22854 0.83348 0.0
C506 C 0.89247 0.24177 0.83794 0.0
C507 C 0.89652 0.2442 0.85457 0.0
C508 C 0.89202 0.2335 0.86638 0.0
C509 C 0.8801 0.21806 0.84563 0.0
H510 H 0.89507 0.23568 0.87916 0.0
H511 H 0.87388 0.20789 0.84188 0.0
H512 H 0.8964 0.17963 0.89439 0.0
H513 H 0.84724 0.19929 0.89873 0.0
C514 C 0.89189 0.22317 0.91111 0.0
C515 C 0.91953 0.19429 0.86891 0.0
C516 C 0.83976 0.22593 0.87816 0.0
C517 C 0.86147 0.1802 0.85494 0.0
H518 H 0.94316 0.20605 0.89356 0.0
H519 H 0.92784 0.22048 0.91768 0.0
H520 H 0.86847 0.2444 0.92426 0.0
H521 H 0.84076 0.24693 0.90514 0.0
H522 H 0.81475 0.21025 0.85825 0.0
H523 H 0.82601 0.18445 0.84677 0.0
H524 H 0.88566 0.1604 0.84036 0.0
H525 H 0.91749 0.16911 0.8469 0.0
H526 H 0.89002 0.16193 0.9165 0.0
H527 H 0.83984 0.18159 0.92024 0.0
H528 H 0.88103 0.22622 0.82067 0.0
H529 H 0.90289 0.25435 0.85843 0.0
C530 C 0.82707 0.36734 0.39164 0.0
C531 C 0.8439 0.36268 0.39018 0.0
C532 C 0.8465 0.36036 0.37376 0.0
C533 C 0.8312 0.3638 0.36618 0.0
N534 N 0.81901 0.36829 0.37676 0.0
Co535 Co 0.79498 0.37448 0.37112 0.0
N536 N 0.79864 0.37051 0.34712 0.0
C537 C 0.81257 0.36442 0.34011 0.0
C538 C 0.81139 0.36362 0.32321 0.0
C539 C 0.79594 0.36984 0.31917 0.0
C540 C 0.78863 0.37412 0.33393 0.0
N541 N 0.77113 0.38111 0.36536 0.0
C542 C 0.764 0.384 0.35033 0.0
C543 C 0.74753 0.38961 0.35155 0.0
C544 C 0.74424 0.39057 0.36804 0.0
C545 C 0.75886 0.38557 0.37584 0.0
N546 N 0.79121 0.3782 0.39518 0.0
C547 C 0.77659 0.38278 0.40231 0.0
C548 C 0.7777 0.38373 0.41918 0.0
C549 C 0.79393 0.37931 0.42313 0.0
C550 C 0.80184 0.37597 0.40834 0.0
N551 N 0.80291 0.39544 0.3678 0.0
C552 C 0.81239 0.42532 0.3606 0.0
C553 C 0.799 0.42206 0.37139 0.0
C554 C 0.79452 0.40718 0.3748 0.0
C555 C 0.82124 0.41329 0.35391 0.0
C556 C 0.81638 0.39861 0.35767 0.0
N557 N 0.78695 0.35338 0.37427 0.0
C558 C 0.76547 0.33549 0.38315 0.0
C559 C 0.77531 0.32342 0.37789 0.0
C560 C 0.79123 0.32671 0.37103 0.0
C561 C 0.79669 0.34154 0.36931 0.0
C562 C 0.7715 0.35018 0.38133 0.0
H563 H 0.8089 0.34308 0.36394 0.0
H564 H 0.76334 0.35873 0.38569 0.0
H565 H 0.78402 0.40542 0.38289 0.0
H566 H 0.82358 0.38998 0.35204 0.0
C567 C 0.82749 0.36184 0.34939 0.0
C568 C 0.8191 0.36995 0.40749 0.0
C569 C 0.77287 0.38264 0.33478 0.0
C570 C 0.762 0.3861 0.39285 0.0
H571 H 0.85319 0.36082 0.40004 0.0
H572 H 0.85801 0.35627 0.36808 0.0
H573 H 0.82103 0.35981 0.31476 0.0
H574 H 0.79094 0.37164 0.30676 0.0
H575 H 0.73903 0.39312 0.34158 0.0
H576 H 0.73287 0.39501 0.37365 0.0
H577 H 0.76781 0.38704 0.42763 0.0
H578 H 0.79922 0.37839 0.43554 0.0
H579 H 0.79166 0.43093 0.37687 0.0
H580 H 0.83194 0.41515 0.34578 0.0
H581 H 0.75298 0.33372 0.38843 0.0
H582 H 0.79963 0.31788 0.36708 0.0
C583 C 0.59069 0.30801 0.88684 0.0
C584 C 0.57733 0.29867 0.89134 0.0
C585 C 0.58451 0.28555 0.89663 0.0
C586 C 0.60179 0.2876 0.89511 0.0
N587 N 0.60612 0.30138 0.8895 0.0
Co588 Co 0.62977 0.30874 0.88433 0.0
N589 N 0.64018 0.2887 0.88969 0.0
C590 C 0.6319 0.27648 0.89553 0.0
C591 C 0.64236 0.26442 0.89831 0.0
C592 C 0.65828 0.26917 0.89401 0.0
C593 C 0.65663 0.28392 0.88873 0.0
N594 N 0.65335 0.31602 0.87881 0.0
C595 C 0.66855 0.30865 0.8787 0.0
C596 C 0.68174 0.31792 0.87356 0.0
C597 C 0.67471 0.33162 0.87046 0.0
C598 C 0.65767 0.32996 0.87375 0.0
N599 N 0.61934 0.32879 0.87907 0.0
C600 C 0.62778 0.34139 0.8747 0.0
C601 C 0.61722 0.3532 0.87099 0.0
C602 C 0.60104 0.34778 0.87284 0.0
C603 C 0.60265 0.33291 0.87766 0.0
N604 N 0.63325 0.31479 0.90769 0.0
C605 C 0.63742 0.3235 0.94082 0.0
C606 C 0.64281 0.33276 0.92792 0.0
C607 C 0.64065 0.3282 0.91158 0.0
C608 C 0.62997 0.30983 0.93691 0.0
C609 C 0.62805 0.30574 0.92044 0.0
N610 N 0.62602 0.30283 0.8612 0.0
C611 C 0.62263 0.30986 0.83247 0.0
C612 C 0.61397 0.29655 0.82935 0.0
C613 C 0.61265 0.28596 0.84204 0.0
C614 C 0.6189 0.28925 0.85773 0.0
C615 C 0.62862 0.31274 0.84844 0.0
H616 H 0.61734 0.28083 0.86698 0.0
H617 H 0.63479 0.32322 0.85032 0.0
H618 H 0.64513 0.33573 0.90237 0.0
H619 H 0.62229 0.2952 0.91846 0.0
C620 C 0.61418 0.27652 0.89769 0.0
C621 C 0.58802 0.32289 0.87966 0.0
C622 C 0.67114 0.29292 0.88317 0.0
C623 C 0.64542 0.34126 0.8722 0.0
H624 H 0.56376 0.30101 0.89053 0.0
H625 H 0.5779 0.27553 0.90059 0.0
H626 H 0.6388 0.25344 0.90283 0.0
H627 H 0.66982 0.26252 0.8947 0.0
H628 H 0.69508 0.31508 0.87212 0.0
H629 H 0.68122 0.3416 0.86622 0.0
H630 H 0.62082 0.36423 0.86665 0.0
H631 H 0.58941 0.35397 0.87032 0.0
H632 H 0.64891 0.34339 0.93039 0.0
H633 H 0.62543 0.30234 0.94652 0.0
H634 H 0.62425 0.31821 0.82281 0.0
H635 H 0.60664 0.27523 0.83992 0.0
C636 C 0.67405 0.35764 0.12196 0.0
C637 C 0.6576 0.35212 0.12386 0.0
C638 C 0.65566 0.34924 0.14033 0.0
C639 C 0.67096 0.35317 0.14751 0.0
N640 N 0.68255 0.35847 0.13662 0.0
Co641 Co 0.70641 0.36542 0.14162 0.0
N642 N 0.7032 0.36191 0.16589 0.0
C643 C 0.68937 0.35608 0.17349 0.0
C644 C 0.69063 0.35608 0.19042 0.0
C645 C 0.706 0.36265 0.19385 0.0
C646 C 0.71321 0.36625 0.17872 0.0
N647 N 0.73028 0.37231 0.14664 0.0
C648 C 0.73766 0.37547 0.1614 0.0
C649 C 0.75422 0.38075 0.15969 0.0
C650 C 0.7573 0.38124 0.14311 0.0
C651 C 0.74249 0.37627 0.13575 0.0
N652 N 0.70957 0.36923 0.11738 0.0
C653 C 0.72386 0.37424 0.10985 0.0
C654 C 0.72215 0.37571 0.09303 0.0
C655 C 0.7058 0.37139 0.08958 0.0
C656 C 0.69842 0.36755 0.10459 0.0
N657 N 0.69803 0.38623 0.14422 0.0
C658 C 0.68745 0.41591 0.15013 0.0
C659 C 0.70178 0.41291 0.1405 0.0
C660 C 0.70678 0.39813 0.13771 0.0
C661 C 0.67835 0.40369 0.15642 0.0
C662 C 0.68375 0.38911 0.15329 0.0
N663 N 0.71492 0.34444 0.13915 0.0
C664 C 0.73511 0.32668 0.12802 0.0
C665 C 0.72734 0.31478 0.13638 0.0
C666 C 0.71309 0.318 0.14595 0.0
C667 C 0.70713 0.33269 0.14708 0.0
C668 C 0.72879 0.34125 0.12958 0.0
H669 H 0.69616 0.33417 0.15445 0.0
H670 H 0.73544 0.3497 0.12295 0.0
H671 H 0.7179 0.39657 0.13041 0.0
H672 H 0.67634 0.38032 0.15858 0.0
C673 C 0.67469 0.35227 0.16445 0.0
C674 C 0.68105 0.36177 0.10596 0.0
C675 C 0.7289 0.37478 0.17708 0.0
C676 C 0.73882 0.3772 0.11885 0.0
H677 H 0.648 0.35035 0.1143 0.0
H678 H 0.64442 0.34484 0.14636 0.0
H679 H 0.68113 0.35246 0.19922 0.0
H680 H 0.71106 0.36506 0.20606 0.0
H681 H 0.76288 0.38443 0.16937 0.0
H682 H 0.76861 0.38554 0.13712 0.0
H683 H 0.73172 0.37935 0.0843 0.0
H684 H 0.70008 0.37093 0.07733 0.0
H685 H 0.70913 0.42191 0.13505 0.0
H686 H 0.66728 0.40529 0.1641 0.0
H687 H 0.74626 0.32484 0.12051 0.0
H688 H 0.70636 0.30918 0.15243 0.0
C689 C 0.58292 0.21109 0.62274 0.0
C690 C 0.56945 0.21998 0.6172 0.0
C691 C 0.57651 0.23248 0.61027 0.0
C692 C 0.59382 0.23058 0.61206 0.0
N693 N 0.5983 0.21748 0.61941 0.0
Co694 Co 0.62209 0.21097 0.62595 0.0
N695 N 0.6324 0.2301 0.61744 0.0
C696 C 0.62402 0.24126 0.60932 0.0
C697 C 0.63444 0.25274 0.6044 0.0
C698 C 0.65046 0.24868 0.60963 0.0
C699 C 0.64889 0.23494 0.61761 0.0
N700 N 0.64574 0.20469 0.63314 0.0
C701 C 0.6609 0.21211 0.63241 0.0
C702 C 0.67406 0.20383 0.63968 0.0
C703 C 0.66709 0.19068 0.64493 0.0
C704 C 0.6501 0.19168 0.64078 0.0
N705 N 0.61187 0.19169 0.63405 0.0
C706 C 0.62045 0.17969 0.64016 0.0
C707 C 0.61004 0.16813 0.6449 0.0
C708 C 0.5938 0.17311 0.64185 0.0
C709 C 0.59526 0.18751 0.6355 0.0
N710 N 0.62544 0.20198 0.60392 0.0
C711 C 0.63099 0.19 0.57248 0.0
C712 C 0.63712 0.18271 0.5867 0.0
C713 C 0.63423 0.18886 0.60219 0.0
C714 C 0.62177 0.20316 0.57423 0.0
C715 C 0.61914 0.20888 0.58991 0.0
N716 N 0.61856 0.21989 0.64778 0.0
C717 C 0.61534 0.217 0.67724 0.0
C718 C 0.60839 0.23131 0.67816 0.0
C719 C 0.60756 0.24011 0.66384 0.0
C720 C 0.61275 0.23425 0.6489 0.0
C721 C 0.62044 0.21157 0.662 0.0
H722 H 0.6116 0.24144 0.63839 0.0
H723 H 0.62545 0.20049 0.66191 0.0
H724 H 0.63939 0.18286 0.61251 0.0
H725 H 0.61203 0.21892 0.59024 0.0
C726 C 0.60621 0.24106 0.60745 0.0
C727 C 0.58048 0.19698 0.63173 0.0
C728 C 0.66349 0.22693 0.62498 0.0
C729 C 0.63802 0.18042 0.64338 0.0
H730 H 0.5559 0.21782 0.61836 0.0
H731 H 0.5698 0.242 0.60497 0.0
H732 H 0.6308 0.26293 0.59794 0.0
H733 H 0.66199 0.25514 0.60778 0.0
H734 H 0.68737 0.20694 0.64104 0.0
H735 H 0.67365 0.18145 0.65101 0.0
H736 H 0.61377 0.15761 0.6506 0.0
H737 H 0.58218 0.167 0.64447 0.0
H738 H 0.64443 0.17247 0.58587 0.0
H739 H 0.61652 0.20905 0.56353 0.0
H740 H 0.61642 0.20987 0.68813 0.0
H741 H 0.60283 0.25148 0.66411 0.0
C742 C 0.79721 0.09122 0.13331 0.0
C743 C 0.78531 0.08025 0.12944 0.0
C744 C 0.7713 0.08741 0.123 0.0
C745 C 0.7754 0.10229 0.12331 0.0
N746 N 0.79119 0.10509 0.12957 0.0
Co747 Co 0.80228 0.1252 0.13201 0.0
N748 N 0.78105 0.13582 0.12398 0.0
C749 C 0.76609 0.12943 0.11932 0.0
C750 C 0.75346 0.13951 0.11538 0.0
C751 C 0.76068 0.15319 0.11793 0.0
C752 C 0.77739 0.15064 0.12322 0.0
N753 N 0.81353 0.1453 0.13394 0.0
C754 C 0.80693 0.15923 0.13184 0.0
C755 C 0.8192 0.17018 0.13447 0.0
C756 C 0.83402 0.16293 0.13864 0.0
C757 C 0.83001 0.14803 0.13824 0.0
N758 N 0.82326 0.11467 0.14077 0.0
C759 C 0.83814 0.1211 0.14564 0.0
C760 C 0.85004 0.11111 0.15162 0.0
C761 C 0.84228 0.09749 0.15064 0.0
C762 C 0.82603 0.09995 0.14407 0.0
N763 N 0.81071 0.12367 0.10905 0.0
C764 C 0.82293 0.1208 0.07668 0.0
C765 C 0.83409 0.12371 0.08983 0.0
C766 C 0.82777 0.12513 0.10574 0.0
C767 C 0.80555 0.11929 0.07996 0.0
C768 C 0.79976 0.12077 0.0961 0.0
N769 N 0.79401 0.12663 0.15484 0.0
C770 C 0.799 0.13329 0.18329 0.0
C771 C 0.78321 0.12736 0.18766 0.0
C772 C 0.7727 0.12134 0.17537 0.0
C773 C 0.77825 0.12122 0.15907 0.0
C774 C 0.80414 0.13275 0.16693 0.0
H775 H 0.76969 0.1166 0.15013 0.0
H776 H 0.81647 0.13718 0.16441 0.0
H777 H 0.83701 0.12739 0.1151 0.0
H778 H 0.78637 0.11959 0.09771 0.0
C779 C 0.76424 0.11392 0.11903 0.0
C780 C 0.81384 0.0879 0.14094 0.0
C781 C 0.78908 0.16266 0.12788 0.0
C782 C 0.84072 0.1365 0.1439 0.0
H783 H 0.78652 0.06831 0.13131 0.0
H784 H 0.75939 0.0824 0.11895 0.0
H785 H 0.74047 0.13719 0.11143 0.0
H786 H 0.75427 0.16383 0.11632 0.0
H787 H 0.8175 0.18217 0.13384 0.0
H788 H 0.8461 0.16795 0.14219 0.0
H789 H 0.86287 0.11346 0.15606 0.0
H790 H 0.84798 0.08691 0.15425 0.0
H791 H 0.84771 0.12486 0.0879 0.0
H792 H 0.79636 0.11728 0.07008 0.0
H793 H 0.80756 0.13797 0.19253 0.0
H794 H 0.76026 0.11677 0.17832 0.0
C795 C 0.91521 0.30479 0.62301 0.0
C796 C 0.9287 0.29548 0.61908 0.0
C797 C 0.92169 0.28218 0.61444 0.0
C798 C 0.90439 0.28407 0.61584 0.0
N799 N 0.89987 0.29788 0.62082 0.0
Co800 Co 0.87609 0.30504 0.6256 0.0
N801 N 0.86596 0.28484 0.62099 0.0
C802 C 0.8745 0.2725 0.61622 0.0
C803 C 0.86421 0.26029 0.61389 0.0
C804 C 0.8481 0.26508 0.61732 0.0
C805 C 0.84948 0.28002 0.62153 0.0
N806 N 0.85234 0.31219 0.63051 0.0
C807 C 0.83715 0.30478 0.63032 0.0
C808 C 0.82371 0.31408 0.6344 0.0
C809 C 0.83058 0.32783 0.63729 0.0
C810 C 0.84776 0.32619 0.63479 0.0
N811 N 0.88622 0.32521 0.63027 0.0
C812 C 0.87763 0.33777 0.63419 0.0
C813 C 0.88805 0.34974 0.63739 0.0
C814 C 0.9043 0.34447 0.63571 0.0
C815 C 0.90284 0.32951 0.63162 0.0
N816 N 0.87279 0.31075 0.60197 0.0
C817 C 0.86885 0.31918 0.5685 0.0
C818 C 0.86373 0.32866 0.58106 0.0
C819 C 0.86579 0.32426 0.59755 0.0
C820 C 0.87583 0.30535 0.57292 0.0
C821 C 0.87764 0.30139 0.58959 0.0
N822 N 0.87965 0.29947 0.64906 0.0
C823 C 0.88151 0.30707 0.67752 0.0
C824 C 0.89074 0.29421 0.68169 0.0
C825 C 0.89327 0.28353 0.66952 0.0
C826 C 0.88751 0.28632 0.6534 0.0
C827 C 0.87598 0.30939 0.66126 0.0
H828 H 0.89006 0.27791 0.64455 0.0
H829 H 0.86922 0.31949 0.65876 0.0
H830 H 0.86156 0.33201 0.60643 0.0
H831 H 0.88303 0.29072 0.59206 0.0
C832 C 0.8922 0.27276 0.61401 0.0
C833 C 0.91762 0.31975 0.62971 0.0
C834 C 0.83472 0.2891 0.62598 0.0
C835 C 0.85991 0.33759 0.63626 0.0
H836 H 0.94224 0.29788 0.61996 0.0
H837 H 0.92845 0.27213 0.6111 0.0
H838 H 0.86798 0.24922 0.61013 0.0
H839 H 0.83662 0.25834 0.61678 0.0
H840 H 0.81028 0.31125 0.63509 0.0
H841 H 0.82383 0.33786 0.6407 0.0
H842 H 0.88431 0.36083 0.64111 0.0
H843 H 0.91592 0.3508 0.63768 0.0
H844 H 0.85792 0.33939 0.57823 0.0
H845 H 0.88007 0.29764 0.56359 0.0
H846 H 0.87868 0.31539 0.68672 0.0
H847 H 0.90016 0.27328 0.67227 0.0
C848 C 0.37667 0.70321 0.08 0.0
C849 C 0.38219 0.7124 0.06718 0.0
C850 C 0.3896 0.72459 0.07428 0.0
C851 C 0.38805 0.72233 0.09098 0.0
N852 N 0.38038 0.70928 0.09505 0.0
Co853 Co 0.37336 0.70292 0.11798 0.0
N854 N 0.38273 0.72164 0.12831 0.0
C855 C 0.39129 0.73263 0.12032 0.0
C856 C 0.3964 0.74405 0.13037 0.0
C857 C 0.39097 0.74009 0.14578 0.0
C858 C 0.38288 0.72635 0.14432 0.0
N859 N 0.36547 0.69691 0.14071 0.0
C860 C 0.36679 0.70399 0.15555 0.0
C861 C 0.35959 0.6955 0.16815 0.0
C862 C 0.35335 0.68281 0.16109 0.0
C863 C 0.35711 0.68415 0.14464 0.0
N864 N 0.36465 0.68393 0.10779 0.0
C865 C 0.35808 0.67209 0.11605 0.0
C866 C 0.35322 0.66058 0.10599 0.0
C867 C 0.35665 0.66543 0.09031 0.0
C868 C 0.36326 0.67977 0.09166 0.0
N869 N 0.39582 0.69319 0.12209 0.0
C870 C 0.42783 0.67985 0.12842 0.0
C871 C 0.41287 0.67337 0.13439 0.0
C872 C 0.39714 0.68017 0.13111 0.0
C873 C 0.42651 0.69298 0.11905 0.0
C874 C 0.41052 0.69938 0.11604 0.0
N875 N 0.3511 0.71255 0.11356 0.0
C876 C 0.32148 0.70959 0.10574 0.0
C877 C 0.32124 0.72398 0.09898 0.0
C878 C 0.33558 0.73304 0.10099 0.0
C879 C 0.3503 0.72715 0.10835 0.0
C880 C 0.33639 0.70424 0.11331 0.0
H881 H 0.36105 0.73442 0.10906 0.0
H882 H 0.33596 0.69316 0.11829 0.0
H883 H 0.3863 0.67473 0.13617 0.0
H884 H 0.41047 0.70939 0.10885 0.0
C885 C 0.39302 0.73249 0.10313 0.0
C886 C 0.36735 0.68915 0.07723 0.0
C887 C 0.3753 0.71841 0.15849 0.0
C888 C 0.35443 0.67301 0.13289 0.0
H889 H 0.38064 0.71074 0.05402 0.0
H890 H 0.39499 0.73421 0.068 0.0
H891 H 0.40297 0.75423 0.12685 0.0
H892 H 0.39261 0.74673 0.15679 0.0
H893 H 0.35921 0.698 0.18119 0.0
H894 H 0.34725 0.6735 0.16731 0.0
H895 H 0.34717 0.65018 0.10955 0.0
H896 H 0.35411 0.65927 0.0791 0.0
H897 H 0.4133 0.66327 0.14189 0.0
H898 H 0.43776 0.6983 0.11398 0.0
H899 H 0.31029 0.70248 0.10503 0.0
H900 H 0.33568 0.74443 0.09628 0.0
C901 C 0.39851 0.82785 0.36701 0.0
C902 C 0.3952 0.84252 0.36229 0.0
C903 C 0.37821 0.84501 0.36539 0.0
C904 C 0.37213 0.83175 0.37175 0.0
N905 N 0.38427 0.82115 0.37277 0.0
Co906 Co 0.38126 0.80032 0.38063 0.0
N907 N 0.35635 0.80133 0.37677 0.0
C908 C 0.34696 0.8139 0.37531 0.0
C909 C 0.32983 0.81106 0.37327 0.0
C910 C 0.3284 0.7958 0.37362 0.0
C911 C 0.34485 0.79012 0.37582 0.0
N912 N 0.37852 0.77953 0.38863 0.0
C913 C 0.36537 0.77002 0.38624 0.0
C914 C 0.36886 0.75618 0.39352 0.0
C915 C 0.38456 0.75734 0.40112 0.0
C916 C 0.38985 0.77168 0.39794 0.0
N917 N 0.40617 0.79943 0.38457 0.0
C918 C 0.4146 0.78989 0.39472 0.0
C919 C 0.43197 0.7922 0.3948 0.0
C920 C 0.43452 0.80392 0.38403 0.0
C921 C 0.4185 0.80805 0.37796 0.0
N922 N 0.37786 0.80751 0.40349 0.0
C923 C 0.37116 0.81842 0.43561 0.0
C924 C 0.36156 0.80672 0.42875 0.0
C925 C 0.36507 0.80149 0.41286 0.0
C926 C 0.38439 0.82443 0.42592 0.0
C927 C 0.38757 0.8188 0.41001 0.0
N928 N 0.38412 0.79302 0.35773 0.0
C929 C 0.39385 0.7742 0.33869 0.0
C930 C 0.38506 0.78109 0.32535 0.0
C931 C 0.37618 0.79433 0.32865 0.0
C932 C 0.37577 0.8 0.3448 0.0
C933 C 0.39339 0.7804 0.35464 0.0
H934 H 0.36831 0.80991 0.34686 0.0
H935 H 0.40028 0.77479 0.36456 0.0
H936 H 0.35714 0.79264 0.4081 0.0
H937 H 0.39781 0.82368 0.40293 0.0
C938 C 0.35489 0.82788 0.37355 0.0
C939 C 0.41522 0.82056 0.36659 0.0
C940 C 0.34883 0.77426 0.37886 0.0
C941 C 0.4063 0.77725 0.40103 0.0
H942 H 0.40405 0.85051 0.35705 0.0
H943 H 0.37098 0.85503 0.3625 0.0
H944 H 0.31964 0.81909 0.37136 0.0
H945 H 0.31655 0.78961 0.3727 0.0
H946 H 0.36079 0.74636 0.39357 0.0
H947 H 0.39151 0.7486 0.40768 0.0
H948 H 0.44168 0.78567 0.40123 0.0
H949 H 0.44675 0.80881 0.38093 0.0
H950 H 0.35104 0.80177 0.43543 0.0
H951 H 0.39237 0.83336 0.43061 0.0
H952 H 0.40112 0.76408 0.33682 0.0
H953 H 0.36908 0.80007 0.31891 0.0
C954 C 0.20084 0.87773 0.9225 0.0
C955 C 0.21227 0.88094 0.93527 0.0
C956 C 0.22642 0.88704 0.92819 0.0
C957 C 0.22303 0.88712 0.91152 0.0
N958 N 0.20747 0.88154 0.90749 0.0
Co959 Co 0.19822 0.87857 0.8844 0.0
N960 N 0.22042 0.88474 0.87399 0.0
C961 C 0.23475 0.88911 0.88213 0.0
C962 C 0.24828 0.89199 0.87198 0.0
C963 C 0.24232 0.88918 0.85638 0.0
C964 C 0.22536 0.88482 0.85788 0.0
N965 N 0.18888 0.87578 0.86133 0.0
C966 C 0.1966 0.87692 0.84635 0.0
C967 C 0.18515 0.87421 0.83347 0.0
C968 C 0.16976 0.87108 0.8405 0.0
C969 C 0.1726 0.87213 0.85722 0.0
N970 N 0.17626 0.87184 0.89483 0.0
C971 C 0.1617 0.86801 0.88669 0.0
C972 C 0.14885 0.8634 0.89691 0.0
C973 C 0.15568 0.86402 0.91252 0.0
C974 C 0.17244 0.8689 0.91096 0.0
N975 N 0.19015 0.89976 0.88365 0.0
C976 C 0.17966 0.92981 0.87881 0.0
C977 C 0.16809 0.91801 0.87715 0.0
C978 C 0.17352 0.90327 0.87962 0.0
C979 C 0.1964 0.9263 0.88374 0.0
C980 C 0.20126 0.9114 0.88621 0.0
N981 N 0.20623 0.85767 0.88494 0.0
C982 C 0.20178 0.83173 0.87839 0.0
C983 C 0.21792 0.82804 0.88477 0.0
C984 C 0.22802 0.83939 0.89146 0.0
C985 C 0.22198 0.85404 0.89141 0.0
C986 C 0.1962 0.8465 0.87864 0.0
H987 H 0.23029 0.86226 0.89653 0.0
H988 H 0.18377 0.84866 0.87361 0.0
H989 H 0.16399 0.89497 0.87799 0.0
H990 H 0.21418 0.90964 0.8899 0.0
C991 C 0.23512 0.89021 0.89937 0.0
C992 C 0.1842 0.87045 0.92519 0.0
C993 C 0.21463 0.88063 0.84364 0.0
C994 C 0.16069 0.86851 0.86939 0.0
H995 H 0.21092 0.87865 0.94834 0.0
H996 H 0.23818 0.89026 0.9344 0.0
H997 H 0.26103 0.89553 0.87553 0.0
H998 H 0.2497 0.89008 0.8452 0.0
H999 H 0.18768 0.87437 0.82034 0.0
H1000 H 0.15799 0.86807 0.83419 0.0
H1001 H 0.13611 0.85979 0.89341 0.0
H1002 H 0.14908 0.86106 0.92377 0.0
H1003 H 0.15482 0.92007 0.87387 0.0
H1004 H 0.20594 0.93497 0.88525 0.0
H1005 H 0.19341 0.82324 0.87331 0.0
H1006 H 0.24069 0.83706 0.89642 0.0
C1007 C 0.12299 0.70491 0.4133 0.0
C1008 C 0.11981 0.71485 0.42596 0.0
C1009 C 0.11382 0.72768 0.41869 0.0
C1010 C 0.11385 0.72499 0.40205 0.0
N1011 N 0.11923 0.71113 0.39819 0.0
Co1012 Co 0.12319 0.70349 0.37522 0.0
N1013 N 0.11634 0.72303 0.36455 0.0
C1014 C 0.10986 0.73497 0.3724 0.0
C1015 C 0.10619 0.7468 0.36204 0.0
C1016 C 0.11059 0.74217 0.34664 0.0
C1017 C 0.11671 0.72769 0.34844 0.0
N1018 N 0.12818 0.69612 0.35234 0.0
C1019 C 0.12827 0.70346 0.33746 0.0
C1020 C 0.13335 0.69413 0.32485 0.0
C1021 C 0.13675 0.68052 0.33196 0.0
C1022 C 0.13359 0.68226 0.34846 0.0
N1023 N 0.12948 0.6838 0.38582 0.0
C1024 C 0.13301 0.67103 0.37779 0.0
C1025 C 0.13677 0.65924 0.38818 0.0
C1026 C 0.13575 0.66483 0.40378 0.0
C1027 C 0.13156 0.67983 0.40206 0.0
N1028 N 0.09905 0.69663 0.37337 0.0
C1029 C 0.06495 0.6867 0.37089 0.0
C1030 C 0.07808 0.67898 0.36327 0.0
C1031 C 0.09485 0.68408 0.36466 0.0
C1032 C 0.0691 0.69944 0.37985 0.0
C1033 C 0.08607 0.70421 0.38086 0.0
N1034 N 0.14702 0.71019 0.37718 0.0
C1035 C 0.17704 0.70438 0.37751 0.0
C1036 C 0.18092 0.71889 0.3823 0.0
C1037 C 0.16767 0.72914 0.3841 0.0
C1038 C 0.15086 0.72455 0.38151 0.0
C1039 C 0.1601 0.70032 0.37489 0.0
H1040 H 0.14116 0.73273 0.38324 0.0
H1041 H 0.15787 0.68911 0.37116 0.0
H1042 H 0.1041 0.67758 0.35854 0.0
H1043 H 0.08826 0.71408 0.38773 0.0
C1044 C 0.10933 0.73535 0.38967 0.0
C1045 C 0.13003 0.68987 0.41621 0.0
C1046 C 0.12329 0.71908 0.33454 0.0
C1047 C 0.13513 0.67105 0.36061 0.0
H1048 H 0.12191 0.71318 0.4391 0.0
H1049 H 0.11027 0.73789 0.42481 0.0
H1050 H 0.10147 0.75771 0.36538 0.0
H1051 H 0.10974 0.74885 0.33541 0.0
H1052 H 0.13441 0.69686 0.31182 0.0
H1053 H 0.14099 0.67053 0.32581 0.0
H1054 H 0.14054 0.64806 0.3848 0.0
H1055 H 0.13819 0.65864 0.41514 0.0
H1056 H 0.07548 0.66892 0.35634 0.0
H1057 H 0.05926 0.70588 0.38582 0.0
H1058 H 0.18704 0.69623 0.37561 0.0
H1059 H 0.17026 0.74053 0.38774 0.0
C1060 C 0.29902 0.629 0.91015 0.0
C1061 C 0.28853 0.624 0.92279 0.0
C1062 C 0.27597 0.61548 0.91557 0.0
C1063 C 0.27927 0.61586 0.89894 0.0
N1064 N 0.29307 0.62416 0.89523 0.0
Co1065 Co 0.30145 0.62839 0.87249 0.0
N1066 N 0.27942 0.62223 0.86195 0.0
C1067 C 0.26716 0.61411 0.86937 0.0
C1068 C 0.25336 0.61138 0.85919 0.0
C1069 C 0.25724 0.61803 0.84435 0.0
C1070 C 0.27332 0.62442 0.84626 0.0
N1071 N 0.30993 0.63267 0.84979 0.0
C1072 C 0.30134 0.63407 0.8351 0.0
C1073 C 0.31262 0.63657 0.82225 0.0
C1074 C 0.32875 0.63659 0.82911 0.0
C1075 C 0.3265 0.63409 0.84572 0.0
N1076 N 0.32344 0.6345 0.88305 0.0
C1077 C 0.33854 0.63553 0.87535 0.0
C1078 C 0.35164 0.63985 0.88573 0.0
C1079 C 0.34432 0.64159 0.90092 0.0
C1080 C 0.32707 0.6383 0.89896 0.0
N1081 N 0.30977 0.60782 0.87094 0.0
C1082 C 0.32105 0.57819 0.86839 0.0
C1083 C 0.32391 0.58628 0.88294 0.0
C1084 C 0.31816 0.60106 0.88397 0.0
C1085 C 0.31261 0.58537 0.85514 0.0
C1086 C 0.30707 0.60006 0.85667 0.0
N1087 N 0.29316 0.6488 0.87393 0.0
C1088 C 0.29762 0.67515 0.87014 0.0
C1089 C 0.28122 0.67808 0.87603 0.0
C1090 C 0.27095 0.66603 0.88087 0.0
C1091 C 0.27714 0.65151 0.8797 0.0
C1092 C 0.30334 0.66044 0.8692 0.0
H1093 H 0.26896 0.64247 0.88352 0.0
H1094 H 0.316 0.65849 0.86461 0.0
H1095 H 0.32043 0.607 0.89533 0.0
H1096 H 0.30058 0.6051 0.84621 0.0
C1097 C 0.26802 0.61117 0.88642 0.0
C1098 C 0.31489 0.63771 0.91273 0.0
C1099 C 0.2829 0.63134 0.83256 0.0
C1100 C 0.33924 0.63487 0.85805 0.0
H1101 H 0.2896 0.62635 0.93585 0.0
H1102 H 0.26519 0.61033 0.92165 0.0
H1103 H 0.24164 0.60562 0.86231 0.0
H1104 H 0.24921 0.61803 0.83335 0.0
H1105 H 0.30954 0.63789 0.80922 0.0
H1106 H 0.34067 0.63848 0.82276 0.0
H1107 H 0.36481 0.642 0.88253 0.0
H1108 H 0.35095 0.64479 0.91217 0.0
H1109 H 0.33029 0.58119 0.89355 0.0
H1110 H 0.31041 0.57974 0.84351 0.0
H1111 H 0.30592 0.68411 0.86606 0.0
H1112 H 0.25827 0.66779 0.88572 0.0
C1113 C 0.1209 0.8071 0.0936 0.0
C1114 C 0.11135 0.79997 0.08142 0.0
C1115 C 0.10032 0.79049 0.08939 0.0
C1116 C 0.10382 0.79215 0.10595 0.0
N1117 N 0.11643 0.80203 0.10891 0.0
Co1118 Co 0.12648 0.80658 0.13109 0.0
N1119 N 0.11656 0.78826 0.1415 0.0
C1120 C 0.1037 0.78014 0.13494 0.0
C1121 C 0.09865 0.76856 0.145 0.0
C1122 C 0.10877 0.76955 0.15891 0.0
C1123 C 0.11954 0.78171 0.15657 0.0
N1124 N 0.13674 0.81119 0.15319 0.0
C1125 C 0.13833 0.80266 0.16721 0.0
C1126 C 0.14635 0.81064 0.17974 0.0
C1127 C 0.1493 0.82471 0.17359 0.0
C1128 C 0.14313 0.82456 0.15762 0.0
N1129 N 0.13614 0.82496 0.12069 0.0
C1130 C 0.14186 0.837 0.12889 0.0
C1131 C 0.14773 0.84808 0.11854 0.0
C1132 C 0.14558 0.84266 0.10284 0.0
C1133 C 0.1386 0.82847 0.10448 0.0
N1134 N 0.10593 0.81767 0.13673 0.0
C1135 C 0.07536 0.83213 0.14409 0.0
C1136 C 0.08289 0.83405 0.12859 0.0
C1137 C 0.09818 0.82676 0.12518 0.0
C1138 C 0.08375 0.82319 0.15598 0.0
C1139 C 0.09894 0.81606 0.15205 0.0
N1140 N 0.14683 0.79561 0.12516 0.0
C1141 C 0.17615 0.79683 0.11707 0.0
C1142 C 0.17413 0.78365 0.10802 0.0
C1143 C 0.15865 0.77587 0.10914 0.0
C1144 C 0.14516 0.78205 0.11774 0.0
C1145 C 0.16241 0.80246 0.12581 0.0
H1146 H 0.13308 0.77631 0.11745 0.0
H1147 H 0.16406 0.8129 0.13212 0.0
H1148 H 0.10356 0.82827 0.11306 0.0
H1149 H 0.10485 0.80907 0.1614 0.0
C1150 C 0.09811 0.78268 0.11862 0.0
C1151 C 0.13352 0.81908 0.09037 0.0
C1152 C 0.13081 0.78767 0.16972 0.0
C1153 C 0.14458 0.83622 0.14602 0.0
H1154 H 0.11233 0.80122 0.06816 0.0
H1155 H 0.09149 0.78271 0.08372 0.0
H1156 H 0.08892 0.76027 0.14247 0.0
H1157 H 0.10794 0.76237 0.16973 0.0
H1158 H 0.1494 0.80683 0.19219 0.0
H1159 H 0.15542 0.83389 0.17994 0.0
H1160 H 0.15361 0.85855 0.122 0.0
H1161 H 0.14881 0.84849 0.09151 0.0
H1162 H 0.0768 0.84078 0.11898 0.0
H1163 H 0.07859 0.82163 0.16824 0.0
H1164 H 0.18791 0.8032 0.11675 0.0
H1165 H 0.15673 0.76532 0.10297 0.0
C1166 C 0.19717 0.6324 0.58575 0.0
C1167 C 0.20861 0.62933 0.57325 0.0
C1168 C 0.22302 0.62374 0.5807 0.0
C1169 C 0.21972 0.62377 0.5973 0.0
N1170 N 0.20397 0.62891 0.60094 0.0
Co1171 Co 0.19461 0.63173 0.62377 0.0
N1172 N 0.21694 0.62597 0.63478 0.0
C1173 C 0.23135 0.62177 0.62703 0.0
C1174 C 0.24492 0.61913 0.63756 0.0
C1175 C 0.23889 0.62192 0.65299 0.0
C1176 C 0.22186 0.62602 0.65102 0.0
N1177 N 0.1852 0.63446 0.64658 0.0
C1178 C 0.19297 0.63358 0.66175 0.0
C1179 C 0.18149 0.63624 0.67432 0.0
C1180 C 0.16604 0.6391 0.66689 0.0
C1181 C 0.16888 0.63796 0.65025 0.0
N1182 N 0.17246 0.63793 0.61276 0.0
C1183 C 0.15779 0.64145 0.62048 0.0
C1184 C 0.14485 0.6458 0.60989 0.0
C1185 C 0.15172 0.64528 0.59447 0.0
C1186 C 0.16857 0.6407 0.59652 0.0
N1187 N 0.18707 0.6104 0.62435 0.0
C1188 C 0.17746 0.58014 0.62846 0.0
C1189 C 0.16571 0.59164 0.63075 0.0
C1190 C 0.17072 0.60652 0.62862 0.0
C1191 C 0.19387 0.58402 0.62338 0.0
C1192 C 0.19831 0.59904 0.6213 0.0
N1193 N 0.2021 0.65277 0.62337 0.0
C1194 C 0.19699 0.67866 0.62959 0.0
C1195 C 0.21322 0.68257 0.62401 0.0
C1196 C 0.22367 0.67137 0.61782 0.0
C1197 C 0.2179 0.65664 0.61761 0.0
C1198 C 0.19171 0.66381 0.62912 0.0
H1199 H 0.22649 0.64855 0.61291 0.0
H1200 H 0.17921 0.66147 0.63355 0.0
H1201 H 0.16116 0.61462 0.63078 0.0
H1202 H 0.211 0.60111 0.61741 0.0
C1203 C 0.23185 0.62083 0.60979 0.0
C1204 C 0.18034 0.63925 0.58262 0.0
C1205 C 0.21108 0.63019 0.66494 0.0
C1206 C 0.15684 0.6412 0.63776 0.0
H1207 H 0.20699 0.63136 0.56011 0.0
H1208 H 0.23482 0.62069 0.57477 0.0
H1209 H 0.25776 0.61583 0.63438 0.0
H1210 H 0.2463 0.6212 0.66437 0.0
H1211 H 0.18404 0.63623 0.68752 0.0
H1212 H 0.15422 0.64198 0.67289 0.0
H1213 H 0.13205 0.64923 0.61303 0.0
H1214 H 0.14511 0.64813 0.58302 0.0
H1215 H 0.15281 0.58923 0.63468 0.0
H1216 H 0.20333 0.5755 0.62103 0.0
H1217 H 0.18836 0.68703 0.63426 0.0
H1218 H 0.23642 0.67387 0.61349 0.0
C1219 C 0.30509 0.87982 0.60037 0.0
C1220 C 0.29469 0.88417 0.58713 0.0
C1221 C 0.2806 0.89074 0.59367 0.0
C1222 C 0.2831 0.89002 0.61047 0.0
N1223 N 0.29804 0.88352 0.61511 0.0
Co1224 Co 0.30613 0.87951 0.63849 0.0
N1225 N 0.28417 0.88702 0.6481 0.0
C1226 C 0.27065 0.89264 0.63947 0.0
C1227 C 0.25708 0.89631 0.64917 0.0
C1228 C 0.26214 0.89273 0.66494 0.0
C1229 C 0.27864 0.88712 0.66402 0.0
N1230 N 0.31425 0.87551 0.66185 0.0
C1231 C 0.30601 0.87677 0.67652 0.0
C1232 C 0.31659 0.87281 0.68978 0.0
C1233 C 0.3319 0.86871 0.68332 0.0
C1234 C 0.3299 0.87045 0.66653 0.0
N1235 N 0.3279 0.87164 0.62888 0.0
C1236 C 0.34178 0.86674 0.63749 0.0
C1237 C 0.35454 0.86143 0.62771 0.0
C1238 C 0.34837 0.86279 0.61188 0.0
C1239 C 0.33209 0.86883 0.6129 0.0
N1240 N 0.31603 0.90006 0.63954 0.0
C1241 C 0.32915 0.92936 0.64294 0.0
C1242 C 0.33915 0.91687 0.64696 0.0
C1243 C 0.33243 0.90249 0.64514 0.0
C1244 C 0.31263 0.92688 0.6368 0.0
C1245 C 0.30644 0.91233 0.63516 0.0
N1246 N 0.2963 0.85922 0.63752 0.0
C1247 C 0.29858 0.83273 0.64292 0.0
C1248 C 0.28234 0.83036 0.63603 0.0
C1249 C 0.27323 0.84268 0.62991 0.0
C1250 C 0.28038 0.8569 0.63079 0.0
C1251 C 0.30527 0.84715 0.64353 0.0
H1252 H 0.27284 0.86584 0.62589 0.0
H1253 H 0.3177 0.8483 0.64893 0.0
H1254 H 0.34077 0.89358 0.64846 0.0
H1255 H 0.29376 0.91139 0.6305 0.0
C1256 C 0.27089 0.89385 0.62219 0.0
C1257 C 0.32114 0.87158 0.59831 0.0
C1258 C 0.28829 0.88169 0.67858 0.0
C1259 C 0.34202 0.86648 0.65481 0.0
H1260 H 0.29678 0.8824 0.5741 0.0
H1261 H 0.26951 0.89498 0.58697 0.0
H1262 H 0.24483 0.9008 0.6452 0.0
H1263 H 0.25443 0.89391 0.67586 0.0
H1264 H 0.31352 0.87278 0.7028 0.0
H1265 H 0.34305 0.86466 0.69004 0.0
H1266 H 0.36673 0.85678 0.63164 0.0
H1267 H 0.35501 0.85951 0.60084 0.0
H1268 H 0.35216 0.91815 0.65147 0.0
H1269 H 0.30426 0.93613 0.63363 0.0
H1270 H 0.30604 0.82354 0.648 0.0
H1271 H 0.2607 0.84136 0.62424 0.0
H1272 H 0.11809 0.20712 0.80497 0.0
H1273 H 0.11726 0.23253 0.79351 0.0
H1274 H 0.12828 0.21554 0.74512 0.0
H1275 H 0.12943 0.19013 0.75647 0.0
H1276 H 0.14371 0.24795 0.77653 0.0
H1277 H 0.08511 0.24159 0.73765 0.0
H1278 H 0.09073 0.22864 0.75414 0.0
H1279 H 0.10118 0.22761 0.73454 0.0
C1280 C 0.12044 0.20878 0.79191 0.0
C1281 C 0.12377 0.19658 0.78162 0.0
C1282 C 0.11987 0.22329 0.78538 0.0
C1283 C 0.12247 0.22585 0.76845 0.0
C1284 C 0.12589 0.21374 0.75816 0.0
H1285 H 0.1487 0.30787 0.71738 0.0
H1286 H 0.14803 0.28281 0.72974 0.0
C1287 C 0.12652 0.19924 0.76467 0.0
C1288 C 0.12208 0.24123 0.76162 0.0
H1289 H 0.10118 0.26386 0.73375 0.0
C1290 C 0.13438 0.25147 0.76723 0.0
C1291 C 0.10977 0.24578 0.74963 0.0
C1292 C 0.09583 0.23539 0.74371 0.0
C1293 C 0.13492 0.26611 0.76088 0.0
C1294 C 0.12295 0.27051 0.7485 0.0
C1295 C 0.11042 0.26037 0.74315 0.0
C1296 C 0.12327 0.28561 0.74091 0.0
C1297 C 0.14818 0.27678 0.76757 0.0
C1298 C 0.10939 0.29531 0.74279 0.0
C1299 C 0.10967 0.30959 0.73565 0.0
C1300 C 0.1238 0.31434 0.72637 0.0
C1301 C 0.13759 0.30449 0.72434 0.0
C1302 C 0.13731 0.29024 0.73153 0.0
H1303 H 0.15359 0.27287 0.77964 0.0
H1304 H 0.15882 0.27771 0.75867 0.0
H1305 H 0.14266 0.28809 0.76915 0.0
H1306 H 0.09839 0.29186 0.74989 0.0
H1307 H 0.09876 0.31685 0.73724 0.0
H1308 H 0.6799 0.61636 0.2591 0.0
H1309 H 0.70979 0.61058 0.2659 0.0
H1310 H 0.71269 0.58291 0.22267 0.0
H1311 H 0.68251 0.5881 0.21634 0.0
H1312 H 0.73453 0.57322 0.2493 0.0
H1313 H 0.74094 0.63347 0.23381 0.0
H1314 H 0.72681 0.62995 0.25072 0.0
H1315 H 0.72136 0.62327 0.2304 0.0
C1316 C 0.68672 0.60849 0.25155 0.0
C1317 C 0.67912 0.60266 0.23723 0.0
C1318 C 0.70377 0.60528 0.25534 0.0
C1319 C 0.71345 0.59661 0.24455 0.0
C1320 C 0.7054 0.58964 0.2311 0.0
H1321 H 0.81947 0.62142 0.23998 0.0
H1322 H 0.79181 0.61216 0.23006 0.0
C1323 C 0.68825 0.59263 0.22748 0.0
C1324 C 0.73225 0.59701 0.24563 0.0
H1325 H 0.76554 0.62141 0.24472 0.0
C1326 C 0.74141 0.5837 0.2482 0.0
C1327 C 0.74113 0.61064 0.24355 0.0
C1328 C 0.73209 0.62512 0.23929 0.0
C1329 C 0.75934 0.58381 0.24953 0.0
C1330 C 0.76812 0.59762 0.2486 0.0
C1331 C 0.75888 0.61079 0.24541 0.0
C1332 C 0.78661 0.59918 0.25223 0.0
C1333 C 0.76863 0.56916 0.25181 0.0
C1334 C 0.79328 0.59429 0.26756 0.0
C1335 C 0.80932 0.59916 0.27294 0.0
C1336 C 0.81868 0.60927 0.26325 0.0
C1337 C 0.81256 0.61341 0.2475 0.0
C1338 C 0.79674 0.6082 0.24191 0.0
H1339 H 0.76142 0.55991 0.24589 0.0
H1340 H 0.78166 0.56961 0.24656 0.0
H1341 H 0.76974 0.5665 0.26523 0.0
H1342 H 0.78558 0.58771 0.27596 0.0
H1343 H 0.81384 0.59598 0.28522 0.0
H1344 H 0.4072 0.31705 0.76874 0.0
H1345 H 0.40789 0.2922 0.75638 0.0
H1346 H 0.35767 0.28292 0.77531 0.0
H1347 H 0.35671 0.30782 0.78739 0.0
H1348 H 0.40459 0.26405 0.77297 0.0
H1349 H 0.35362 0.27326 0.72544 0.0
H1350 H 0.36428 0.28843 0.73591 0.0
H1351 H 0.34774 0.27805 0.74612 0.0
C1352 C 0.39623 0.30977 0.77011 0.0
C1353 C 0.38187 0.3144 0.77899 0.0
C1354 C 0.39669 0.29557 0.76313 0.0
C1355 C 0.38275 0.28583 0.76478 0.0
C1356 C 0.36845 0.29037 0.77371 0.0
H1357 H 0.37582 0.19055 0.75207 0.0
H1358 H 0.37719 0.21604 0.76247 0.0
C1359 C 0.368 0.30453 0.78074 0.0
C1360 C 0.38329 0.27077 0.75747 0.0
H1361 H 0.36318 0.24826 0.72951 0.0
C1362 C 0.39561 0.2606 0.76341 0.0
C1363 C 0.37167 0.26641 0.74488 0.0
C1364 C 0.35866 0.27713 0.73757 0.0
C1365 C 0.39633 0.24599 0.75735 0.0
C1366 C 0.38431 0.24146 0.74518 0.0
C1367 C 0.37228 0.25176 0.73894 0.0
C1368 C 0.38387 0.22601 0.73892 0.0
C1369 C 0.40999 0.23554 0.76395 0.0
C1370 C 0.3869 0.22323 0.72218 0.0
C1371 C 0.38621 0.20865 0.7162 0.0
C1372 C 0.38234 0.19661 0.72685 0.0
C1373 C 0.37918 0.1995 0.74361 0.0
C1374 C 0.37992 0.21407 0.74957 0.0
H1375 H 0.42064 0.24169 0.77005 0.0
H1376 H 0.40432 0.22786 0.77325 0.0
H1377 H 0.41529 0.22867 0.75388 0.0
H1378 H 0.38991 0.23233 0.71376 0.0
H1379 H 0.38889 0.2068 0.70327 0.0
H1380 H 0.6866 0.88407 0.28799 0.0
H1381 H 0.71438 0.88331 0.27439 0.0
H1382 H 0.70405 0.83825 0.25862 0.0
H1383 H 0.676 0.83914 0.27214 0.0
H1384 H 0.7415 0.86315 0.28023 0.0
H1385 H 0.71626 0.86109 0.21553 0.0
H1386 H 0.70313 0.8663 0.23272 0.0
H1387 H 0.70848 0.84705 0.22963 0.0
C1388 C 0.69036 0.87404 0.28161 0.0
C1389 C 0.67942 0.86166 0.28097 0.0
C1390 C 0.70614 0.87359 0.2739 0.0
C1391 C 0.71114 0.86077 0.26542 0.0
C1392 C 0.70026 0.84829 0.26494 0.0
H1393 H 0.8165 0.85316 0.23077 0.0
H1394 H 0.78889 0.84715 0.24348 0.0
C1395 C 0.68439 0.84876 0.27266 0.0
C1396 C 0.7278 0.8607 0.25714 0.0
H1397 H 0.74619 0.86153 0.21912 0.0
C1398 C 0.74259 0.86263 0.26688 0.0
C1399 C 0.72903 0.86018 0.23973 0.0
C1400 C 0.71341 0.85865 0.22871 0.0
C1401 C 0.75863 0.86441 0.25964 0.0
C1402 C 0.75986 0.86399 0.24222 0.0
C1403 C 0.74513 0.86173 0.23248 0.0
C1404 C 0.77616 0.86695 0.23386 0.0
C1405 C 0.77401 0.8674 0.2706 0.0
C1406 C 0.77788 0.87985 0.22401 0.0
C1407 C 0.79351 0.88322 0.21677 0.0
C1408 C 0.8075 0.87366 0.21924 0.0
C1409 C 0.80574 0.86062 0.22882 0.0
C1410 C 0.79009 0.85724 0.23606 0.0
H1411 H 0.77031 0.87031 0.28339 0.0
H1412 H 0.78212 0.85724 0.27129 0.0
H1413 H 0.78184 0.87665 0.26544 0.0
H1414 H 0.76724 0.88746 0.22222 0.0
H1415 H 0.79478 0.89335 0.20942 0.0
H1416 H 0.77144 0.10356 0.20521 0.0
H1417 H 0.76467 0.10265 0.23468 0.0
H1418 H 0.77681 0.14952 0.23869 0.0
H1419 H 0.784 0.15038 0.20929 0.0
H1420 H 0.79132 0.13278 0.26356 0.0
H1421 H 0.72243 0.11906 0.25616 0.0
H1422 H 0.73622 0.10606 0.24618 0.0
H1423 H 0.73536 0.12516 0.23905 0.0
C1424 C 0.77243 0.11368 0.21238 0.0
C1425 C 0.7781 0.12706 0.20509 0.0
C1426 C 0.76857 0.11316 0.22915 0.0
C1427 C 0.77002 0.12607 0.23873 0.0
C1428 C 0.77561 0.13946 0.23144 0.0
H1429 H 0.73972 0.14771 0.33722 0.0
H1430 H 0.75353 0.14846 0.31007 0.0
C1431 C 0.77966 0.13994 0.21472 0.0
C1432 C 0.76598 0.12558 0.25645 0.0
H1433 H 0.73408 0.11758 0.28341 0.0
C1434 C 0.7788 0.12952 0.26793 0.0
C1435 C 0.74959 0.12137 0.26201 0.0
C1436 C 0.73506 0.11782 0.2502 0.0
C1437 C 0.77567 0.12917 0.28496 0.0
C1438 C 0.75941 0.12475 0.29044 0.0
C1439 C 0.7466 0.12083 0.279 0.0
C1440 C 0.75502 0.12442 0.30801 0.0
C1441 C 0.7897 0.13335 0.29701 0.0
C1442 C 0.75178 0.11067 0.31576 0.0
C1443 C 0.74402 0.11025 0.33114 0.0
C1444 C 0.73944 0.12359 0.33883 0.0
C1445 C 0.74353 0.13736 0.33151 0.0
C1446 C 0.75136 0.13778 0.31612 0.0
H1447 H 0.80223 0.13473 0.29087 0.0
H1448 H 0.78636 0.14403 0.30302 0.0
H1449 H 0.79094 0.12469 0.3069 0.0
H1450 H 0.75434 0.10029 0.30949 0.0
H1451 H 0.74057 0.09954 0.33653 0.0
H1452 H 0.90668 0.31481 0.70121 0.0
H1453 H 0.91633 0.31155 0.72998 0.0
H1454 H 0.89996 0.26553 0.72898 0.0
H1455 H 0.89026 0.26871 0.70038 0.0
H1456 H 0.89546 0.3045 0.75526 0.0
H1457 H 0.94613 0.26198 0.75193 0.0
H1458 H 0.9391 0.27272 0.73403 0.0
H1459 H 0.92771 0.25612 0.74028 0.0
C1460 C 0.90526 0.30398 0.70713 0.0
C1461 C 0.89764 0.29202 0.69863 0.0
C1462 C 0.91093 0.30211 0.72346 0.0
C1463 C 0.90919 0.28823 0.73145 0.0
C1464 C 0.90193 0.2762 0.72285 0.0
H1465 H 0.87156 0.25308 0.81399 0.0
H1466 H 0.87954 0.26889 0.79059 0.0
C1467 C 0.89628 0.27805 0.70655 0.0
C1468 C 0.91273 0.28662 0.74933 0.0
H1469 H 0.9289 0.26141 0.77719 0.0
C1470 C 0.90324 0.2954 0.76015 0.0
C1471 C 0.92319 0.27501 0.75574 0.0
C1472 C 0.93475 0.26605 0.74486 0.0
C1473 C 0.90234 0.29169 0.77698 0.0
C1474 C 0.91094 0.27881 0.78292 0.0
C1475 C 0.92207 0.27116 0.77252 0.0
C1476 C 0.90597 0.2714 0.79848 0.0
C1477 C 0.89127 0.30098 0.788 0.0
C1478 C 0.91822 0.26753 0.8106 0.0
C1479 C 0.91367 0.25839 0.82397 0.0
C1480 C 0.89691 0.25286 0.82513 0.0
C1481 C 0.88458 0.25717 0.81327 0.0
C1482 C 0.88908 0.26635 0.80005 0.0
H1483 H 0.89107 0.31283 0.78379 0.0
H1484 H 0.87794 0.29674 0.78738 0.0
H1485 H 0.89579 0.30044 0.80107 0.0
H1486 H 0.93137 0.27116 0.80942 0.0
H1487 H 0.9234 0.25508 0.83295 0.0
H1488 H 0.78368 0.40858 0.32093 0.0
H1489 H 0.77515 0.41895 0.29375 0.0
H1490 H 0.73933 0.38262 0.28756 0.0
H1491 H 0.74756 0.37263 0.31477 0.0
H1492 H 0.78055 0.40521 0.26606 0.0
H1493 H 0.71162 0.4161 0.26838 0.0
H1494 H 0.72456 0.41411 0.28697 0.0
H1495 H 0.71546 0.39791 0.27706 0.0
C1496 C 0.77362 0.40318 0.31386 0.0
C1497 C 0.76608 0.38997 0.31972 0.0
C1498 C 0.76875 0.40907 0.29844 0.0
C1499 C 0.75634 0.40176 0.28878 0.0
C1500 C 0.74847 0.38878 0.29501 0.0
H1501 H 0.75235 0.3653 0.1996 0.0
H1502 H 0.76086 0.37776 0.22519 0.0
C1503 C 0.75326 0.38296 0.31043 0.0
C1504 C 0.75355 0.40594 0.27124 0.0
H1505 H 0.72192 0.40549 0.24196 0.0
C1506 C 0.76774 0.40584 0.26079 0.0
C1507 C 0.73694 0.40724 0.2643 0.0
C1508 C 0.72134 0.40903 0.27485 0.0
C1509 C 0.76559 0.40499 0.24361 0.0
C1510 C 0.74888 0.40383 0.2369 0.0
C1511 C 0.73477 0.40598 0.24715 0.0
C1512 C 0.74571 0.39766 0.22029 0.0
C1513 C 0.78124 0.40437 0.23294 0.0
C1514 C 0.73417 0.40459 0.20919 0.0
C1515 C 0.72914 0.39733 0.19472 0.0
C1516 C 0.7356 0.38312 0.19131 0.0
C1517 C 0.74747 0.37637 0.20208 0.0
C1518 C 0.75243 0.38356 0.21654 0.0
H1519 H 0.79161 0.41146 0.23816 0.0
H1520 H 0.78608 0.39273 0.23272 0.0
H1521 H 0.7784 0.40812 0.22005 0.0
H1522 H 0.72866 0.41535 0.21199 0.0
H1523 H 0.71984 0.40256 0.18646 0.0
H1524 H 0.62379 0.22903 0.70849 0.0
H1525 H 0.61485 0.24077 0.73404 0.0
H1526 H 0.57038 0.25898 0.70892 0.0
H1527 H 0.57918 0.24711 0.68326 0.0
H1528 H 0.58964 0.28013 0.72518 0.0
H1529 H 0.57671 0.23216 0.7667 0.0
H1530 H 0.59682 0.23004 0.7566 0.0
H1531 H 0.57733 0.23043 0.74446 0.0
C1532 C 0.6119 0.23521 0.70851 0.0
C1533 C 0.60222 0.23723 0.69393 0.0
C1534 C 0.60677 0.24187 0.7231 0.0
C1535 C 0.59183 0.25052 0.72335 0.0
C1536 C 0.58188 0.25223 0.70893 0.0
H1537 H 0.58215 0.28585 0.82256 0.0
H1538 H 0.57117 0.27729 0.79579 0.0
C1539 C 0.58699 0.24556 0.69432 0.0
C1540 C 0.58787 0.25905 0.73824 0.0
H1541 H 0.58633 0.255 0.78004 0.0
C1542 C 0.58841 0.27469 0.73717 0.0
C1543 C 0.58588 0.25192 0.75375 0.0
C1544 C 0.58396 0.23521 0.75543 0.0
C1545 C 0.58873 0.28335 0.75147 0.0
C1546 C 0.58879 0.27608 0.76706 0.0
C1547 C 0.58652 0.26055 0.76804 0.0
C1548 C 0.59372 0.2839 0.78232 0.0
C1549 C 0.58979 0.30011 0.74975 0.0
C1550 C 0.60989 0.29066 0.78347 0.0
C1551 C 0.61617 0.29552 0.79868 0.0
C1552 C 0.60646 0.29345 0.81297 0.0
C1553 C 0.58994 0.28736 0.81168 0.0
C1554 C 0.58362 0.28258 0.79645 0.0
H1555 H 0.58318 0.30404 0.73825 0.0
H1556 H 0.58407 0.30577 0.7605 0.0
H1557 H 0.60341 0.30349 0.74891 0.0
H1558 H 0.61808 0.29139 0.77279 0.0
H1559 H 0.62899 0.30007 0.79942 0.0
H1560 H 0.30439 0.74983 0.10423 0.0
H1561 H 0.27827 0.75857 0.0905 0.0
H1562 H 0.27831 0.71988 0.05907 0.0
H1563 H 0.3043 0.71079 0.07334 0.0
H1564 H 0.26879 0.76547 0.05828 0.0
H1565 H 0.23293 0.7157 0.08175 0.0
H1566 H 0.25447 0.71933 0.08881 0.0
H1567 H 0.25056 0.71298 0.06809 0.0
C1568 C 0.29888 0.74327 0.0943 0.0
C1569 C 0.30607 0.72958 0.08997 0.0
C1570 C 0.28406 0.7483 0.08638 0.0
C1571 C 0.27629 0.7398 0.07385 0.0
C1572 C 0.28395 0.72645 0.06889 0.0
H1573 H 0.17076 0.77001 0.07788 0.0
H1574 H 0.19353 0.75948 0.0611 0.0
C1575 C 0.29869 0.72128 0.07705 0.0
C1576 C 0.25927 0.74447 0.06768 0.0
H1577 H 0.21768 0.73763 0.07707 0.0
C1578 C 0.25749 0.75919 0.06173 0.0
C1579 C 0.24452 0.73613 0.07184 0.0
C1580 C 0.24558 0.72017 0.07801 0.0
C1581 C 0.24174 0.76653 0.06244 0.0
C1582 C 0.22762 0.75884 0.06902 0.0
C1583 C 0.22873 0.74346 0.07223 0.0
C1584 C 0.21393 0.76697 0.07727 0.0
C1585 C 0.24074 0.7829 0.05798 0.0
C1586 C 0.21799 0.77444 0.09196 0.0
C1587 C 0.20511 0.77996 0.10187 0.0
C1588 C 0.18788 0.77824 0.09717 0.0
C1589 C 0.18389 0.77121 0.08207 0.0
C1590 C 0.19683 0.76542 0.0723 0.0
H1591 H 0.25026 0.78591 0.04842 0.0
H1592 H 0.22774 0.78594 0.05337 0.0
H1593 H 0.2436 0.78958 0.06917 0.0
H1594 H 0.23116 0.77536 0.09618 0.0
H1595 H 0.20868 0.78507 0.11349 0.0
H1596 H 0.32909 0.7619 0.35475 0.0
H1597 H 0.30174 0.74889 0.35864 0.0
H1598 H 0.30884 0.75097 0.41162 0.0
H1599 H 0.33569 0.76452 0.40775 0.0
H1600 H 0.29082 0.72296 0.37601 0.0
H1601 H 0.26566 0.77564 0.40228 0.0
H1602 H 0.28592 0.77474 0.39196 0.0
H1603 H 0.28404 0.76798 0.41288 0.0
C1604 C 0.3249 0.75922 0.36716 0.0
C1605 C 0.3343 0.76401 0.38096 0.0
C1606 C 0.3094 0.75182 0.36938 0.0
C1607 C 0.30332 0.74921 0.38541 0.0
C1608 C 0.31332 0.75309 0.39919 0.0
H1609 H 0.2052 0.70422 0.40057 0.0
H1610 H 0.23549 0.71086 0.40347 0.0
C1611 C 0.32864 0.76067 0.39698 0.0
C1612 C 0.28573 0.74396 0.38764 0.0
H1613 H 0.24665 0.75537 0.40059 0.0
C1614 C 0.28114 0.72993 0.3815 0.0
C1615 C 0.27324 0.75328 0.39466 0.0
C1616 C 0.27737 0.7688 0.4007 0.0
C1617 C 0.26414 0.72506 0.38185 0.0
C1618 C 0.25167 0.73441 0.38883 0.0
C1619 C 0.25637 0.74825 0.39538 0.0
C1620 C 0.2334 0.73071 0.38805 0.0
C1621 C 0.25957 0.71031 0.37409 0.0
C1622 C 0.22226 0.74003 0.37895 0.0
C1623 C 0.20504 0.73639 0.37744 0.0
C1624 C 0.1988 0.72334 0.38497 0.0
C1625 C 0.20987 0.71423 0.39447 0.0
C1626 C 0.22709 0.71796 0.3961 0.0
H1627 H 0.27003 0.70598 0.36632 0.0
H1628 H 0.25706 0.70194 0.384 0.0
H1629 H 0.24781 0.71137 0.36631 0.0
H1630 H 0.22699 0.74995 0.37271 0.0
H1631 H 0.19672 0.7435 0.36998 0.0
H1632 H 0.2154 0.80864 0.85908 0.0
H1633 H 0.22599 0.78296 0.85812 0.0
H1634 H 0.2458 0.78683 0.90794 0.0
H1635 H 0.23493 0.81243 0.90915 0.0
H1636 H 0.26076 0.77341 0.86302 0.0
H1637 H 0.2162 0.74818 0.90854 0.0
H1638 H 0.21221 0.76602 0.89858 0.0
H1639 H 0.22745 0.76458 0.91533 0.0
C1640 C 0.22183 0.80395 0.8699 0.0
C1641 C 0.22427 0.8125 0.88423 0.0
C1642 C 0.22795 0.78935 0.86929 0.0
C1643 C 0.23649 0.78302 0.88301 0.0
C1644 C 0.23903 0.7915 0.89731 0.0
H1645 H 0.29873 0.70286 0.88624 0.0
H1646 H 0.28809 0.7285 0.88774 0.0
C1647 C 0.23296 0.80614 0.89792 0.0
C1648 C 0.24303 0.76761 0.8822 0.0
H1649 H 0.23835 0.73268 0.89881 0.0
C1650 C 0.25588 0.76448 0.87082 0.0
C1651 C 0.23648 0.75604 0.89232 0.0
C1652 C 0.22222 0.75877 0.90431 0.0
C1653 C 0.26251 0.75003 0.8694 0.0
C1654 C 0.25619 0.73852 0.87974 0.0
C1655 C 0.24322 0.74161 0.89101 0.0
C1656 C 0.26266 0.72309 0.87882 0.0
C1657 C 0.276 0.7471 0.85667 0.0
C1658 C 0.25176 0.71161 0.87355 0.0
C1659 C 0.2578 0.697 0.8726 0.0
C1660 C 0.27482 0.69361 0.87704 0.0
C1661 C 0.28565 0.70516 0.88247 0.0
C1662 C 0.2796 0.71978 0.88337 0.0
H1663 H 0.27682 0.75632 0.8474 0.0
H1664 H 0.28864 0.74602 0.86297 0.0
H1665 H 0.27335 0.73651 0.8501 0.0
H1666 H 0.23863 0.71401 0.87001 0.0
H1667 H 0.2492 0.68839 0.86818 0.0
H1668 H 0.20973 0.7018 0.64967 0.0
H1669 H 0.22051 0.72739 0.65159 0.0
H1670 H 0.24188 0.72392 0.60287 0.0
H1671 H 0.23079 0.69843 0.60068 0.0
H1672 H 0.25533 0.73626 0.64917 0.0
H1673 H 0.21392 0.76321 0.60105 0.0
H1674 H 0.20898 0.74527 0.61026 0.0
H1675 H 0.22493 0.74672 0.59454 0.0
C1676 C 0.21649 0.70657 0.63927 0.0
C1677 C 0.21936 0.69816 0.62499 0.0
C1678 C 0.22272 0.72113 0.64043 0.0
C1679 C 0.23179 0.72753 0.6273 0.0
C1680 C 0.23467 0.7192 0.61302 0.0
H1681 H 0.29858 0.80446 0.62798 0.0
H1682 H 0.28624 0.77939 0.62641 0.0
C1683 C 0.22848 0.70463 0.61186 0.0
C1684 C 0.2388 0.74274 0.62881 0.0
H1685 H 0.23671 0.77779 0.61196 0.0
C1686 C 0.25124 0.74537 0.64109 0.0
C1687 C 0.23327 0.75456 0.61832 0.0
C1688 C 0.21943 0.75239 0.60538 0.0
C1689 C 0.25855 0.75955 0.64299 0.0
C1690 C 0.25336 0.77126 0.6322 0.0
C1691 C 0.24071 0.7687 0.6201 0.0
C1692 C 0.26086 0.78633 0.63334 0.0
C1693 C 0.27161 0.76193 0.65663 0.0
C1694 C 0.25056 0.79847 0.63753 0.0
C1695 C 0.25756 0.81277 0.6385 0.0
C1696 C 0.27496 0.81515 0.63518 0.0
C1697 C 0.28521 0.80293 0.63089 0.0
C1698 C 0.27819 0.78863 0.62995 0.0
H1699 H 0.27127 0.75285 0.66609 0.0
H1700 H 0.28458 0.76216 0.65124 0.0
H1701 H 0.26947 0.77277 0.66281 0.0
H1702 H 0.23714 0.79685 0.64016 0.0
H1703 H 0.24939 0.82193 0.64202 0.0
H1704 H 0.86479 0.81923 0.24419 0.0
H1705 H 0.86627 0.79322 0.25353 0.0
H1706 H 0.88217 0.77998 0.20502 0.0
H1707 H 0.88108 0.80604 0.19559 0.0
H1708 H 0.85601 0.76197 0.21805 0.0
H1709 H 0.90931 0.76818 0.26341 0.0
H1710 H 0.89202 0.78106 0.26622 0.0
H1711 H 0.90449 0.78213 0.24773 0.0
C1712 C 0.86889 0.81087 0.23552 0.0
C1713 C 0.87293 0.81487 0.21912 0.0
C1714 C 0.86969 0.79595 0.24091 0.0
C1715 C 0.87457 0.78463 0.23006 0.0
C1716 C 0.87843 0.78851 0.21365 0.0
H1717 H 0.89988 0.69262 0.25983 0.0
H1718 H 0.90059 0.71808 0.24833 0.0
C1719 C 0.87769 0.80345 0.20825 0.0
C1720 C 0.87522 0.76873 0.23576 0.0
H1721 H 0.89402 0.74519 0.26424 0.0
C1722 C 0.86439 0.75829 0.22809 0.0
C1723 C 0.8863 0.76385 0.24873 0.0
C1724 C 0.89882 0.77434 0.25692 0.0
C1725 C 0.864 0.74324 0.23332 0.0
C1726 C 0.8746 0.73848 0.24672 0.0
C1727 C 0.88578 0.74883 0.25408 0.0
C1728 C 0.87409 0.7229 0.25342 0.0
C1729 C 0.85233 0.73252 0.22436 0.0
C1730 C 0.85902 0.71713 0.26025 0.0
C1731 C 0.85856 0.70258 0.26679 0.0
C1732 C 0.8732 0.69342 0.26674 0.0
C1733 C 0.88831 0.69925 0.2599 0.0
C1734 C 0.88877 0.71385 0.25341 0.0
H1735 H 0.84865 0.7368 0.21186 0.0
H1736 H 0.85848 0.72143 0.22307 0.0
H1737 H 0.84046 0.73099 0.23156 0.0
H1738 H 0.8476 0.72394 0.26066 0.0
H1739 H 0.84665 0.69847 0.27178 0.0
H1740 H 0.19702 0.39652 0.70363 0.0
H1741 H 0.2257 0.39603 0.71628 0.0
H1742 H 0.20768 0.3657 0.7541 0.0
H1743 H 0.17933 0.36547 0.74078 0.0
H1744 H 0.23788 0.40448 0.74425 0.0
H1745 H 0.24911 0.34365 0.7414 0.0
H1746 H 0.23114 0.35246 0.73111 0.0
H1747 H 0.23026 0.34775 0.75283 0.0
C1748 C 0.19932 0.38959 0.71451 0.0
C1749 C 0.18607 0.38084 0.72107 0.0
C1750 C 0.21567 0.38936 0.7218 0.0
C1751 C 0.21911 0.38055 0.73599 0.0
C1752 C 0.20566 0.37218 0.74286 0.0
H1753 H 0.30823 0.39613 0.80048 0.0
H1754 H 0.27981 0.396 0.78733 0.0
C1755 C 0.18939 0.37218 0.73536 0.0
C1756 C 0.2366 0.38045 0.74377 0.0
H1757 H 0.26836 0.35746 0.75854 0.0
C1758 C 0.24456 0.39417 0.74726 0.0
C1759 C 0.24561 0.36706 0.74748 0.0
C1760 C 0.23867 0.35192 0.74284 0.0
C1761 C 0.26102 0.39488 0.75448 0.0
C1762 C 0.26963 0.38148 0.75902 0.0
C1763 C 0.26177 0.36777 0.75532 0.0
C1764 C 0.28686 0.38139 0.76735 0.0
C1765 C 0.26915 0.41004 0.75666 0.0
C1766 C 0.30023 0.37272 0.76104 0.0
C1767 C 0.31632 0.37241 0.7689 0.0
C1768 C 0.31946 0.38086 0.78316 0.0
C1769 C 0.30613 0.38952 0.7895 0.0
C1770 C 0.28995 0.38959 0.78184 0.0
H1771 H 0.26372 0.41836 0.74775 0.0
H1772 H 0.26656 0.41408 0.76931 0.0
H1773 H 0.2832 0.40959 0.75497 0.0
H1774 H 0.29826 0.36622 0.74996 0.0
H1775 H 0.32637 0.36562 0.76379 0.0
H1776 H 0.6124 0.79273 0.30707 0.0
H1777 H 0.61241 0.76719 0.29687 0.0
H1778 H 0.61956 0.78376 0.24716 0.0
H1779 H 0.62072 0.80926 0.25735 0.0
H1780 H 0.59213 0.75265 0.27607 0.0
H1781 H 0.65712 0.75368 0.24976 0.0
H1782 H 0.64936 0.76837 0.26276 0.0
H1783 H 0.64365 0.76804 0.2411 0.0
C1784 C 0.61429 0.791 0.29399 0.0
C1785 C 0.61677 0.80322 0.28313 0.0
C1786 C 0.61412 0.77632 0.28814 0.0
C1787 C 0.61636 0.77342 0.27126 0.0
C1788 C 0.61829 0.78559 0.2603 0.0
H1789 H 0.61317 0.69325 0.21144 0.0
H1790 H 0.61253 0.71872 0.22193 0.0
C1791 C 0.61865 0.80027 0.26615 0.0
C1792 C 0.61647 0.75772 0.26516 0.0
H1793 H 0.6397 0.73276 0.24289 0.0
C1794 C 0.6026 0.74831 0.26891 0.0
C1795 C 0.63015 0.75192 0.25585 0.0
C1796 C 0.64599 0.76098 0.25227 0.0
C1797 C 0.60191 0.73346 0.26337 0.0
C1798 C 0.61543 0.72781 0.25384 0.0
C1799 C 0.62929 0.73715 0.25011 0.0
C1800 C 0.61545 0.71221 0.24764 0.0
C1801 C 0.58658 0.72396 0.26749 0.0
C1802 C 0.6174 0.70004 0.2586 0.0
C1803 C 0.61806 0.6854 0.25264 0.0
C1804 C 0.61673 0.68258 0.23554 0.0
C1805 C 0.61456 0.69488 0.22464 0.0
C1806 C 0.61406 0.70949 0.23062 0.0
H1807 H 0.5759 0.73069 0.27239 0.0
H1808 H 0.58198 0.7179 0.25636 0.0
H1809 H 0.59031 0.7155 0.27701 0.0
H1810 H 0.61873 0.70188 0.27178 0.0
H1811 H 0.62004 0.67634 0.26143 0.0
H1812 H 0.31894 0.15868 0.73109 0.0
H1813 H 0.29054 0.15873 0.74392 0.0
H1814 H 0.28924 0.11062 0.74201 0.0
H1815 H 0.31757 0.11061 0.72934 0.0
H1816 H 0.25945 0.14756 0.73198 0.0
H1817 H 0.27813 0.11838 0.79032 0.0
H1818 H 0.29363 0.1263 0.77638 0.0
H1819 H 0.28397 0.1085 0.77204 0.0
C1820 C 0.31259 0.14815 0.73359 0.0
C1821 C 0.32051 0.13463 0.72959 0.0
C1822 C 0.29639 0.14817 0.74086 0.0
C1823 C 0.28787 0.13466 0.74427 0.0
C1824 C 0.2957 0.12116 0.73994 0.0
H1825 H 0.18981 0.10768 0.78439 0.0
H1826 H 0.21843 0.10911 0.77226 0.0
C1827 C 0.31185 0.12115 0.73267 0.0
C1828 C 0.27062 0.13463 0.75195 0.0
H1829 H 0.24829 0.12115 0.78503 0.0
C1830 C 0.25704 0.14189 0.74365 0.0
C1831 C 0.26742 0.1272 0.76717 0.0
C1832 C 0.28158 0.11977 0.7771 0.0
C1833 C 0.24031 0.14158 0.74989 0.0
C1834 C 0.23709 0.13404 0.76503 0.0
C1835 C 0.25071 0.1269 0.77341 0.0
C1836 C 0.21966 0.13326 0.77232 0.0
C1837 C 0.22614 0.14895 0.73993 0.0
C1838 C 0.21088 0.14633 0.77662 0.0
C1839 C 0.19453 0.1455 0.78348 0.0
C1840 C 0.18669 0.13159 0.78624 0.0
C1841 C 0.19556 0.11852 0.78221 0.0
C1842 C 0.21189 0.11935 0.77534 0.0
H1843 H 0.22977 0.15073 0.72681 0.0
H1844 H 0.21427 0.14215 0.74026 0.0
H1845 H 0.22332 0.16003 0.74527 0.0
H1846 H 0.21672 0.15718 0.77479 0.0
H1847 H 0.18798 0.15571 0.78665 0.0
H1848 H 0.27929 0.85756 0.69777 0.0
H1849 H 0.26638 0.85738 0.72535 0.0
H1850 H 0.2672 0.90553 0.72538 0.0
H1851 H 0.2798 0.90565 0.6977 0.0
H1852 H 0.27746 0.86731 0.75482 0.0
H1853 H 0.21848 0.89841 0.7381 0.0
H1854 H 0.23272 0.89128 0.7227 0.0
H1855 H 0.23754 0.90852 0.73304 0.0
C1856 C 0.27659 0.86809 0.70366 0.0
C1857 C 0.28037 0.88162 0.69549 0.0
C1858 C 0.26923 0.868 0.71946 0.0
C1859 C 0.26539 0.88144 0.7275 0.0
C1860 C 0.26949 0.89498 0.7194 0.0
H1861 H 0.22469 0.90462 0.82467 0.0
H1862 H 0.23702 0.90459 0.79683 0.0
C1863 C 0.27681 0.89506 0.70359 0.0
C1864 C 0.25756 0.88127 0.74446 0.0
H1865 H 0.22399 0.89459 0.76686 0.0
C1866 C 0.2657 0.87321 0.75737 0.0
C1867 C 0.24218 0.88895 0.74801 0.0
C1868 C 0.23212 0.89716 0.7347 0.0
C1869 C 0.2592 0.87287 0.77361 0.0
C1870 C 0.24389 0.88062 0.77717 0.0
C1871 C 0.23573 0.88867 0.76427 0.0
C1872 C 0.2362 0.88057 0.79417 0.0
C1873 C 0.26908 0.86452 0.78692 0.0
C1874 C 0.23129 0.86714 0.80203 0.0
C1875 C 0.22423 0.86717 0.81796 0.0
C1876 C 0.22187 0.88063 0.82644 0.0
C1877 C 0.22648 0.89407 0.81849 0.0
C1878 C 0.2335 0.89405 0.80255 0.0
H1879 H 0.28259 0.86266 0.78338 0.0
H1880 H 0.26895 0.87064 0.79879 0.0
H1881 H 0.26309 0.85342 0.78896 0.0
H1882 H 0.23281 0.8566 0.7958 0.0
H1883 H 0.22068 0.85666 0.82371 0.0
H1884 H 0.1519 0.72732 0.31739 0.0
H1885 H 0.15361 0.73871 0.28961 0.0
H1886 H 0.09863 0.73771 0.28527 0.0
H1887 H 0.09699 0.72623 0.31302 0.0
H1888 H 0.11424 0.72822 0.25652 0.0
H1889 H 0.1428 0.78188 0.27642 0.0
H1890 H 0.1546 0.76568 0.28318 0.0
H1891 H 0.13344 0.76879 0.29083 0.0
C1892 C 0.1402 0.72958 0.31049 0.0
C1893 C 0.12431 0.72598 0.31745 0.0
C1894 C 0.14116 0.73618 0.29462 0.0
C1895 C 0.12624 0.73937 0.28527 0.0
C1896 C 0.11036 0.7355 0.29214 0.0
H1897 H 0.11621 0.79823 0.19802 0.0
H1898 H 0.11528 0.78642 0.22558 0.0
C1899 C 0.10941 0.72896 0.30804 0.0
C1900 C 0.12715 0.74654 0.26831 0.0
H1901 H 0.14103 0.77781 0.2475 0.0
C1902 C 0.12012 0.73906 0.25459 0.0
C1903 C 0.1346 0.76081 0.26562 0.0
C1904 C 0.14166 0.76986 0.27979 0.0
C1905 C 0.12054 0.74527 0.23842 0.0
C1906 C 0.12838 0.75937 0.23566 0.0
C1907 C 0.13518 0.76695 0.24943 0.0
C1908 C 0.12923 0.76661 0.21874 0.0
C1909 C 0.11222 0.73678 0.22445 0.0
C1910 C 0.13754 0.75962 0.20553 0.0
C1911 C 0.1382 0.76647 0.18975 0.0
C1912 C 0.13066 0.78052 0.18676 0.0
C1913 C 0.12237 0.78751 0.19996 0.0
C1914 C 0.12179 0.78072 0.21573 0.0
H1915 H 0.10306 0.72827 0.22909 0.0
H1916 H 0.10533 0.74446 0.21579 0.0
H1917 H 0.12223 0.73091 0.21743 0.0
H1918 H 0.14365 0.74889 0.20744 0.0
H1919 H 0.14459 0.76076 0.17985 0.0
H1920 H 0.2757 0.60761 0.81254 0.0
H1921 H 0.26371 0.6079 0.78428 0.0
H1922 H 0.26118 0.65599 0.78537 0.0
H1923 H 0.27346 0.65565 0.81356 0.0
H1924 H 0.23345 0.61752 0.77193 0.0
H1925 H 0.28477 0.65034 0.74205 0.0
H1926 H 0.28702 0.64276 0.76273 0.0
H1927 H 0.27526 0.65977 0.75908 0.0
C1928 C 0.27258 0.61823 0.8067 0.0
C1929 C 0.27542 0.63161 0.81529 0.0
C1930 C 0.26572 0.61841 0.79053 0.0
C1931 C 0.26168 0.63198 0.7824 0.0
C1932 C 0.26449 0.64536 0.79106 0.0
H1933 H 0.21663 0.65442 0.68478 0.0
H1934 H 0.22844 0.65487 0.71316 0.0
C1935 C 0.27139 0.64518 0.80725 0.0
C1936 C 0.25421 0.63202 0.7651 0.0
H1937 H 0.25986 0.64577 0.72575 0.0
C1938 C 0.23931 0.62366 0.76185 0.0
C1939 C 0.26171 0.64002 0.75177 0.0
C1940 C 0.27816 0.64861 0.754 0.0
C1941 C 0.23164 0.62327 0.74593 0.0
C1942 C 0.23915 0.63125 0.73261 0.0
C1943 C 0.254 0.63966 0.73585 0.0
C1944 C 0.23188 0.63094 0.71526 0.0
C1945 C 0.21528 0.61455 0.74363 0.0
C1946 C 0.22997 0.61739 0.70673 0.0
C1947 C 0.22321 0.61715 0.69051 0.0
C1948 C 0.21829 0.63045 0.68233 0.0
C1949 C 0.22028 0.644 0.69078 0.0
C1950 C 0.22707 0.64425 0.707 0.0
H1951 H 0.20867 0.61269 0.75555 0.0
H1952 H 0.20638 0.6204 0.73492 0.0
H1953 H 0.2183 0.60346 0.73843 0.0
H1954 H 0.23387 0.60697 0.71255 0.0
H1955 H 0.22185 0.60655 0.68431 0.0
H1956 H 0.38092 0.75162 0.3165 0.0
H1957 H 0.37935 0.74104 0.28874 0.0
H1958 H 0.38742 0.7848 0.26744 0.0
H1959 H 0.38829 0.79548 0.29518 0.0
H1960 H 0.36477 0.77211 0.24974 0.0
H1961 H 0.41554 0.72983 0.25809 0.0
H1962 H 0.39883 0.72699 0.27272 0.0
H1963 H 0.41153 0.7438 0.27341 0.0
C1964 C 0.38256 0.75899 0.30592 0.0
C1965 C 0.38485 0.77445 0.30824 0.0
C1966 C 0.38175 0.75288 0.28993 0.0
C1967 C 0.38367 0.76194 0.27568 0.0
C1968 C 0.38594 0.77741 0.27802 0.0
H1969 H 0.40405 0.72469 0.17722 0.0
H1970 H 0.40591 0.73564 0.20489 0.0
C1971 C 0.38645 0.78355 0.29399 0.0
C1972 C 0.38276 0.75551 0.25841 0.0
H1973 H 0.39783 0.7274 0.23401 0.0
C1974 C 0.37211 0.76237 0.24635 0.0
C1975 C 0.39249 0.74292 0.25355 0.0
C1976 C 0.40537 0.73557 0.26507 0.0
C1977 C 0.37077 0.75704 0.22997 0.0
C1978 C 0.3798 0.74399 0.22536 0.0
C1979 C 0.39063 0.73724 0.23735 0.0
C1980 C 0.37855 0.73737 0.20821 0.0
C1981 C 0.36005 0.76587 0.21766 0.0
C1982 C 0.36261 0.73439 0.20055 0.0
C1983 C 0.36157 0.72843 0.18451 0.0
C1984 C 0.37642 0.72486 0.17574 0.0
C1985 C 0.39235 0.72743 0.18352 0.0
C1986 C 0.3934 0.73364 0.19945 0.0
H1987 H 0.35894 0.77775 0.22132 0.0
H1988 H 0.3655 0.76551 0.20506 0.0
H1989 H 0.34694 0.76113 0.21721 0.0
H1990 H 0.35086 0.73656 0.20702 0.0
H1991 H 0.34909 0.72653 0.17895 0.0
H1992 H 0.68287 0.27218 0.86154 0.0
H1993 H 0.71157 0.2611 0.86042 0.0
H1994 H 0.7274 0.28737 0.90233 0.0
H1995 H 0.69873 0.29856 0.90328 0.0
H1996 H 0.75147 0.28764 0.87793 0.0
H1997 H 0.73154 0.22938 0.89133 0.0
H1998 H 0.72062 0.23762 0.87382 0.0
H1999 H 0.7175 0.24511 0.89412 0.0
C2000 C 0.69251 0.27551 0.87051 0.0
C2001 C 0.68863 0.28616 0.88252 0.0
C2002 C 0.70887 0.26914 0.86994 0.0
C2003 C 0.72166 0.27319 0.88146 0.0
C2004 C 0.71779 0.28399 0.89335 0.0
H2005 H 0.81612 0.2244 0.90266 0.0
H2006 H 0.7879 0.23634 0.9034 0.0
C2007 C 0.70143 0.29036 0.89391 0.0
C2008 C 0.73909 0.26634 0.88101 0.0
H2009 H 0.76032 0.23294 0.88319 0.0
C2010 C 0.7534 0.27568 0.8791 0.0
C2011 C 0.74171 0.25073 0.88277 0.0
C2012 C 0.72706 0.24012 0.88579 0.0
C2013 C 0.77014 0.26987 0.87868 0.0
C2014 C 0.77272 0.25423 0.87993 0.0
C2015 C 0.75842 0.24491 0.88206 0.0
C2016 C 0.79012 0.24731 0.87952 0.0
C2017 C 0.78494 0.28061 0.87728 0.0
C2018 C 0.80083 0.24934 0.8658 0.0
C2019 C 0.81703 0.24261 0.86546 0.0
C2020 C 0.82285 0.23371 0.8788 0.0
C2021 C 0.81207 0.23148 0.89238 0.0
C2022 C 0.79591 0.23822 0.89274 0.0
H2023 H 0.7813 0.29208 0.88096 0.0
H2024 H 0.79594 0.27689 0.88512 0.0
H2025 H 0.78916 0.28112 0.86424 0.0
H2026 H 0.79655 0.25595 0.85524 0.0
H2027 H 0.82498 0.24424 0.85472 0.0
H2028 H 0.81575 0.27973 0.65226 0.0
H2029 H 0.78674 0.26909 0.65183 0.0
H2030 H 0.78518 0.27312 0.59862 0.0
H2031 H 0.8142 0.28379 0.5991 0.0
H2032 H 0.75519 0.28363 0.61413 0.0
H2033 H 0.77279 0.22685 0.63674 0.0
H2034 H 0.7804 0.24182 0.6495 0.0
H2035 H 0.78836 0.23993 0.62888 0.0
C2036 C 0.80918 0.27826 0.6405 0.0
C2037 C 0.81716 0.28248 0.6257 0.0
C2038 C 0.79266 0.27213 0.64024 0.0
C2039 C 0.7838 0.27011 0.62517 0.0
C2040 C 0.79175 0.27449 0.61039 0.0
H2041 H 0.69128 0.21722 0.60796 0.0
H2042 H 0.72027 0.22786 0.60775 0.0
C2043 C 0.8083 0.28055 0.61065 0.0
C2044 C 0.76616 0.26365 0.62484 0.0
H2045 H 0.74315 0.2323 0.6346 0.0
C2046 C 0.75257 0.2724 0.61859 0.0
C2047 C 0.76271 0.24893 0.63047 0.0
C2048 C 0.77682 0.23875 0.63665 0.0
C2049 C 0.73566 0.26694 0.6181 0.0
C2050 C 0.73214 0.25236 0.62414 0.0
C2051 C 0.74578 0.24352 0.63011 0.0
C2052 C 0.71445 0.24602 0.62419 0.0
C2053 C 0.72172 0.27676 0.61087 0.0
C2054 C 0.7015 0.25257 0.63359 0.0
C2055 C 0.68497 0.24644 0.63377 0.0
C2056 C 0.68106 0.23364 0.62456 0.0
C2057 C 0.69399 0.22709 0.61516 0.0
C2058 C 0.71053 0.23316 0.61506 0.0
H2059 H 0.727 0.286 0.60319 0.0
H2060 H 0.7127 0.27016 0.60315 0.0
H2061 H 0.7144 0.28177 0.62107 0.0
H2062 H 0.70423 0.26233 0.64096 0.0
H2063 H 0.67526 0.25164 0.6412 0.0
H2064 H 0.73046 0.29369 0.16116 0.0
H2065 H 0.74121 0.26813 0.15927 0.0
H2066 H 0.7498 0.27475 0.10711 0.0
H2067 H 0.73919 0.30038 0.10895 0.0
H2068 H 0.72972 0.24467 0.14174 0.0
H2069 H 0.79549 0.25836 0.12184 0.0
H2070 H 0.78105 0.27232 0.12944 0.0
H2071 H 0.77925 0.26609 0.1084 0.0
C2072 C 0.7346 0.28972 0.14926 0.0
C2073 C 0.73401 0.29917 0.13522 0.0
C2074 C 0.74081 0.27509 0.14821 0.0
C2075 C 0.74663 0.26952 0.13311 0.0
C2076 C 0.74586 0.27886 0.11902 0.0
H2077 H 0.78373 0.18219 0.10215 0.0
H2078 H 0.77317 0.20805 0.10336 0.0
C2079 C 0.73974 0.29353 0.12007 0.0
C2080 C 0.75306 0.25384 0.1321 0.0
H2081 H 0.78745 0.23276 0.12097 0.0
C2082 C 0.74238 0.2421 0.13728 0.0
C2083 C 0.76959 0.2504 0.12626 0.0
C2084 C 0.78208 0.26246 0.12132 0.0
C2085 C 0.74765 0.22709 0.13656 0.0
C2086 C 0.76414 0.22367 0.13068 0.0
C2087 C 0.7748 0.23538 0.12544 0.0
C2088 C 0.77059 0.20803 0.12998 0.0
C2089 C 0.7354 0.21497 0.14183 0.0
C2090 C 0.77288 0.19947 0.14455 0.0
C2091 C 0.77895 0.18477 0.14385 0.0
C2092 C 0.78283 0.17837 0.12858 0.0
C2093 C 0.78074 0.18693 0.11403 0.0
C2094 C 0.77474 0.20166 0.11474 0.0
H2095 H 0.72201 0.21909 0.1422 0.0
H2096 H 0.73594 0.20533 0.13333 0.0
H2097 H 0.73902 0.21094 0.15443 0.0
H2098 H 0.77006 0.20421 0.15647 0.0
H2099 H 0.78058 0.17836 0.15521 0.0
H2100 H 0.78064 0.29998 0.35675 0.0
H2101 H 0.77074 0.2742 0.35942 0.0
H2102 H 0.74551 0.28498 0.40479 0.0
H2103 H 0.75579 0.31073 0.40257 0.0
H2104 H 0.77652 0.25321 0.38686 0.0
H2105 H 0.70767 0.26529 0.37506 0.0
H2106 H 0.72441 0.27825 0.36949 0.0
H2107 H 0.7181 0.27634 0.39067 0.0
C2108 C 0.77317 0.29691 0.36744 0.0
C2109 C 0.76908 0.30761 0.37944 0.0
C2110 C 0.76742 0.28213 0.36888 0.0
C2111 C 0.75725 0.27766 0.38222 0.0
C2112 C 0.75314 0.28821 0.39425 0.0
H2113 H 0.7314 0.18604 0.41257 0.0
H2114 H 0.74172 0.21186 0.41171 0.0
C2115 C 0.75899 0.30299 0.3929 0.0
C2116 C 0.75106 0.26193 0.38354 0.0
H2117 H 0.71495 0.24037 0.38204 0.0
C2118 C 0.76305 0.2504 0.38586 0.0
C2119 C 0.73351 0.25825 0.38209 0.0
C2120 C 0.72012 0.27013 0.37906 0.0
C2121 C 0.75796 0.23533 0.38688 0.0
C2122 C 0.74038 0.23166 0.3856 0.0
C2123 C 0.7284 0.24319 0.38315 0.0
C2124 C 0.73423 0.21588 0.3862 0.0
C2125 C 0.77143 0.22339 0.38897 0.0
C2126 C 0.72642 0.20955 0.37221 0.0
C2127 C 0.72065 0.19473 0.37258 0.0
C2128 C 0.72234 0.18587 0.38706 0.0
C2129 C 0.73008 0.19234 0.40111 0.0
C2130 C 0.73596 0.20716 0.40067 0.0
H2131 H 0.78447 0.22775 0.38652 0.0
H2132 H 0.77123 0.219 0.40186 0.0
H2133 H 0.7688 0.21393 0.38054 0.0
H2134 H 0.72497 0.21604 0.36088 0.0
H2135 H 0.71509 0.19017 0.36139 0.0
H2136 H 0.19671 0.55879 0.64438 0.0
H2137 H 0.18884 0.53291 0.65066 0.0
H2138 H 0.13967 0.53981 0.62708 0.0
H2139 H 0.14756 0.56567 0.62044 0.0
H2140 H 0.16024 0.52329 0.66968 0.0
H2141 H 0.15829 0.50119 0.60568 0.0
H2142 H 0.16904 0.5184 0.61092 0.0
H2143 H 0.14616 0.51794 0.6089 0.0
C2144 C 0.18432 0.55475 0.64029 0.0
C2145 C 0.1728 0.56428 0.63183 0.0
C2146 C 0.17981 0.53999 0.644 0.0
C2147 C 0.16375 0.53441 0.63919 0.0
C2148 C 0.15222 0.54385 0.6307 0.0
H2149 H 0.11424 0.45395 0.67673 0.0
H2150 H 0.12118 0.47955 0.66834 0.0
C2151 C 0.15669 0.55865 0.62705 0.0
C2152 C 0.15892 0.51886 0.64358 0.0
H2153 H 0.14891 0.48495 0.62705 0.0
C2154 C 0.15775 0.5149 0.66037 0.0
C2155 C 0.15583 0.50793 0.6314 0.0
C2156 C 0.1575 0.51147 0.6132 0.0
C2157 C 0.15341 0.50032 0.66533 0.0
C2158 C 0.15004 0.48945 0.65315 0.0
C2159 C 0.15137 0.49335 0.63635 0.0
C2160 C 0.1455 0.47386 0.65768 0.0
C2161 C 0.15277 0.49656 0.68355 0.0
C2162 C 0.15671 0.46215 0.65414 0.0
C2163 C 0.15286 0.4475 0.65903 0.0
C2164 C 0.13763 0.44427 0.66745 0.0
C2165 C 0.12622 0.45604 0.67057 0.0
C2166 C 0.13013 0.47068 0.66574 0.0
H2167 H 0.1591 0.50524 0.69121 0.0
H2168 H 0.13922 0.49571 0.68737 0.0
H2169 H 0.159 0.48563 0.6862 0.0
H2170 H 0.16864 0.46438 0.64792 0.0
H2171 H 0.16205 0.4388 0.65659 0.0
H2172 H 0.43691 0.65034 0.12822 0.0
H2173 H 0.46457 0.63949 0.13641 0.0
H2174 H 0.48455 0.68358 0.14551 0.0
H2175 H 0.45692 0.69449 0.13775 0.0
H2176 H 0.49868 0.6459 0.12334 0.0
H2177 H 0.49158 0.6598 0.18975 0.0
H2178 H 0.47372 0.65958 0.17536 0.0
H2179 H 0.48824 0.67513 0.17553 0.0
C2180 C 0.44719 0.6577 0.13203 0.0
C2181 C 0.44474 0.67325 0.13245 0.0
C2182 C 0.46297 0.6515 0.13658 0.0
C2183 C 0.47644 0.66076 0.14171 0.0
C2184 C 0.47419 0.67628 0.14174 0.0
H2185 H 0.57776 0.64944 0.1822 0.0
H2186 H 0.55082 0.65881 0.17014 0.0
C2187 C 0.45846 0.68249 0.13717 0.0
C2188 C 0.49276 0.65422 0.14748 0.0
H2189 H 0.51859 0.65077 0.18159 0.0
C2190 C 0.50305 0.64686 0.13608 0.0
C2191 C 0.49828 0.65551 0.16411 0.0
C2192 C 0.48734 0.66282 0.17697 0.0
C2193 C 0.51908 0.6411 0.14083 0.0
C2194 C 0.52469 0.64258 0.15743 0.0
C2195 C 0.51425 0.64975 0.16885 0.0
C2196 C 0.54144 0.63694 0.16331 0.0
C2197 C 0.53007 0.63386 0.12799 0.0
C2198 C 0.54503 0.62158 0.16333 0.0
C2199 C 0.5604 0.61627 0.17013 0.0
C2200 C 0.57218 0.62627 0.1771 0.0
C2201 C 0.56874 0.64162 0.17683 0.0
C2202 C 0.55343 0.64693 0.17 0.0
H2203 H 0.52574 0.63676 0.11521 0.0
H2204 H 0.54365 0.63725 0.12952 0.0
H2205 H 0.52936 0.62154 0.12951 0.0
H2206 H 0.53577 0.61369 0.1585 0.0
H2207 H 0.56294 0.60438 0.17031 0.0
H2208 H 0.324 0.95412 0.62316 0.0
H2209 H 0.3331 0.97979 0.62842 0.0
H2210 H 0.35812 0.96538 0.67369 0.0
H2211 H 0.34886 0.93972 0.6687 0.0
H2212 H 0.32457 0.99675 0.65586 0.0
H2213 H 0.39493 0.9909 0.65096 0.0
H2214 H 0.38015 0.97711 0.64305 0.0
H2215 H 0.38521 0.97765 0.66479 0.0
C2216 C 0.33144 0.95639 0.63424 0.0
C2217 C 0.33566 0.94482 0.64551 0.0
C2218 C 0.33672 0.97105 0.63717 0.0
C2219 C 0.34647 0.97446 0.65133 0.0
C2220 C 0.35093 0.96295 0.66249 0.0
H2221 H 0.35691 0.05809 0.70181 0.0
H2222 H 0.35149 0.03248 0.69313 0.0
C2223 C 0.34561 0.94827 0.65961 0.0
C2224 C 0.35101 0.99019 0.65496 0.0
H2225 H 0.38471 0.01364 0.66234 0.0
C2226 C 0.33772 1.00047 0.65716 0.0
C2227 C 0.36818 0.99505 0.6565 0.0
C2228 C 0.38296 0.98465 0.65356 0.0
C2229 C 0.34111 0.01536 0.66131 0.0
C2230 C 0.35825 0.02007 0.66347 0.0
C2231 C 0.37158 0.00994 0.66081 0.0
C2232 C 0.36245 0.03541 0.6689 0.0
C2233 C 0.32632 0.02597 0.66335 0.0
C2234 C 0.37087 0.04544 0.65831 0.0
C2235 C 0.3739 0.06019 0.66318 0.0
C2236 C 0.36862 0.06511 0.67878 0.0
C2237 C 0.36077 0.05481 0.68956 0.0
C2238 C 0.35771 0.04014 0.68466 0.0
H2239 H 0.3144 0.02165 0.6575 0.0
H2240 H 0.32394 0.02746 0.67673 0.0
H2241 H 0.32927 0.03709 0.65788 0.0
H2242 H 0.37469 0.04196 0.64611 0.0
H2243 H 0.37989 0.06783 0.65454 0.0
H2244 H 0.06384 0.86014 0.13544 0.0
H2245 H 0.03597 0.87116 0.14159 0.0
H2246 H 0.02134 0.83068 0.16711 0.0
H2247 H 0.04886 0.81948 0.16077 0.0
H2248 H 0.00229 0.8591 0.13321 0.0
H2249 H 0.01324 0.86472 0.20085 0.0
H2250 H 0.03049 0.86242 0.18644 0.0
H2251 H 0.01808 0.84656 0.19293 0.0
C2252 C 0.05464 0.85357 0.14228 0.0
C2253 C 0.05862 0.83899 0.14776 0.0
C2254 C 0.0388 0.8599 0.14584 0.0
C2255 C 0.0268 0.8518 0.15503 0.0
C2256 C 0.03062 0.83721 0.16031 0.0
H2257 H 0.9252 0.85698 0.19091 0.0
H2258 H 0.95471 0.85093 0.18349 0.0
C2259 C 0.04637 0.83086 0.15672 0.0
C2260 C 0.01004 0.85833 0.15886 0.0
H2261 H 0.98445 0.86714 0.19112 0.0
C2262 C 0.9984 0.86108 0.14583 0.0
C2263 C 0.00514 0.86086 0.17534 0.0
C2264 C 0.01743 0.85863 0.18971 0.0
C2265 C 0.98161 0.86564 0.14895 0.0
C2266 C 0.97655 0.86773 0.16549 0.0
C2267 C 0.98839 0.86546 0.17846 0.0
C2268 C 0.95878 0.87149 0.16973 0.0
C2269 C 0.96922 0.86754 0.1346 0.0
C2270 C 0.95144 0.88509 0.16453 0.0
C2271 C 0.93462 0.88849 0.16871 0.0
C2272 C 0.92509 0.87835 0.17818 0.0
C2273 C 0.93245 0.86486 0.18352 0.0
C2274 C 0.94921 0.86145 0.17933 0.0
H2275 H 0.9741 0.86248 0.1231 0.0
H2276 H 0.95667 0.86242 0.13751 0.0
H2277 H 0.96713 0.87963 0.13216 0.0
H2278 H 0.95874 0.89309 0.15738 0.0
H2279 H 0.92907 0.899 0.16464 0.0
H2280 H 0.15763 0.93986 0.85441 0.0
H2281 H 0.14959 0.96562 0.84776 0.0
H2282 H 0.18208 0.98129 0.8874 0.0
H2283 H 0.18987 0.95553 0.89451 0.0
H2284 H 0.13469 0.98806 0.86967 0.0
H2285 H 0.19812 0.00433 0.84487 0.0
H2286 H 0.19159 0.98507 0.84715 0.0
H2287 H 0.19817 0.9955 0.86497 0.0
C2288 C 0.1629 0.94873 0.86192 0.0
C2289 C 0.17444 0.94553 0.87502 0.0
C2290 C 0.15836 0.96347 0.858 0.0
C2291 C 0.16539 0.97535 0.86697 0.0
C2292 C 0.17672 0.97227 0.88017 0.0
H2293 H 0.15929 0.07184 0.85405 0.0
H2294 H 0.16578 0.04648 0.8636 0.0
C2295 C 0.1812 0.95752 0.88417 0.0
C2296 C 0.16085 0.99097 0.86244 0.0
H2297 H 0.17727 0.02326 0.84632 0.0
C2298 C 0.14397 0.99579 0.86456 0.0
C2299 C 0.17302 1.001 0.85584 0.0
C2300 C 0.19123 0.99626 0.85293 0.0
C2301 C 0.13895 0.01045 0.86044 0.0
C2302 C 0.15106 0.02045 0.85359 0.0
C2303 C 0.16799 0.01562 0.85156 0.0
C2304 C 0.14647 0.03592 0.84828 0.0
C2305 C 0.12083 0.01516 0.86383 0.0
C2306 C 0.13349 0.03849 0.83642 0.0
C2307 C 0.12954 0.05303 0.83111 0.0
C2308 C 0.13867 0.06535 0.83736 0.0
C2309 C 0.15175 0.06271 0.84918 0.0
C2310 C 0.15559 0.04817 0.85456 0.0
H2311 H 0.11494 0.00801 0.87353 0.0
H2312 H 0.12026 0.02697 0.86782 0.0
H2313 H 0.11301 0.01403 0.85235 0.0
H2314 H 0.12652 0.02922 0.83108 0.0
H2315 H 0.11929 0.05459 0.82212 0.0
H2316 H 0.91952 0.65939 0.31626 0.0
H2317 H 0.94581 0.66804 0.32996 0.0
H2318 H 0.94234 0.63172 0.36535 0.0
H2319 H 0.91614 0.62289 0.35134 0.0
H2320 H 0.95389 0.67633 0.36264 0.0
H2321 H 0.98868 0.62531 0.3432 0.0
H2322 H 0.96786 0.63019 0.33495 0.0
H2323 H 0.96993 0.62231 0.3554 0.0
C2324 C 0.92432 0.65343 0.32711 0.0
C2325 C 0.91607 0.64052 0.33283 0.0
C2326 C 0.93923 0.65836 0.33493 0.0
C2327 C 0.94606 0.65041 0.34853 0.0
C2328 C 0.93735 0.63787 0.35474 0.0
H2329 H 0.04087 0.68446 0.39507 0.0
H2330 H 0.01143 0.67526 0.39213 0.0
C2331 C 0.92243 0.63289 0.34684 0.0
C2332 C 0.96296 0.65475 0.35526 0.0
H2333 H 0.00471 0.64382 0.35658 0.0
C2334 C 0.96501 0.66918 0.36157 0.0
C2335 C 0.97737 0.64538 0.35364 0.0
C2336 C 0.97598 0.62997 0.34632 0.0
C2337 C 0.98125 0.67472 0.36576 0.0
C2338 C 0.99569 0.66547 0.36379 0.0
C2339 C 0.99354 0.65083 0.35811 0.0
C2340 C 0.01328 0.67117 0.36588 0.0
C2341 C 0.98294 0.69067 0.37141 0.0
C2342 C 0.02401 0.67173 0.35214 0.0
C2343 C 0.04074 0.67688 0.35378 0.0
C2344 C 0.04705 0.68157 0.36922 0.0
C2345 C 0.03624 0.68108 0.38299 0.0
C2346 C 0.01948 0.67584 0.38134 0.0
H2347 H 0.97091 0.69708 0.36948 0.0
H2348 H 0.98621 0.69075 0.38481 0.0
H2349 H 0.99337 0.69646 0.3647 0.0
H2350 H 0.0194 0.66821 0.34009 0.0
H2351 H 0.0487 0.67732 0.34292 0.0
H2352 H 0.35099 0.56539 0.87985 0.0
H2353 H 0.361 0.5398 0.87543 0.0
H2354 H 0.31439 0.52984 0.84873 0.0
H2355 H 0.30411 0.55517 0.85336 0.0
H2356 H 0.34464 0.51099 0.88346 0.0
H2357 H 0.35395 0.52034 0.81612 0.0
H2358 H 0.35207 0.5355 0.83054 0.0
H2359 H 0.33332 0.52567 0.8236 0.0
C2360 C 0.34276 0.5577 0.87325 0.0
C2361 C 0.32682 0.56242 0.86679 0.0
C2362 C 0.34854 0.54311 0.87067 0.0
C2363 C 0.33854 0.53304 0.86152 0.0
C2364 C 0.32243 0.53754 0.85555 0.0
H2365 H 0.3428 0.43772 0.84784 0.0
H2366 H 0.33623 0.46316 0.85633 0.0
C2367 C 0.31661 0.55206 0.85817 0.0
C2368 C 0.34499 0.51788 0.85787 0.0
H2369 H 0.35589 0.4953 0.82594 0.0
C2370 C 0.34722 0.50756 0.87091 0.0
C2371 C 0.34852 0.51352 0.84151 0.0
C2372 C 0.34701 0.52435 0.82712 0.0
C2373 C 0.3524 0.49281 0.86794 0.0
C2374 C 0.35529 0.48829 0.85149 0.0
C2375 C 0.35355 0.49876 0.83852 0.0
C2376 C 0.35982 0.47269 0.84735 0.0
C2377 C 0.35481 0.4822 0.88241 0.0
C2378 C 0.3752 0.4696 0.83935 0.0
C2379 C 0.37905 0.45505 0.83453 0.0
C2380 C 0.3675 0.44327 0.83747 0.0
C2381 C 0.35215 0.44642 0.84564 0.0
C2382 C 0.34835 0.46098 0.8505 0.0
H2383 H 0.35648 0.48827 0.89424 0.0
H2384 H 0.34334 0.47497 0.88347 0.0
H2385 H 0.36609 0.47489 0.88063 0.0
H2386 H 0.38421 0.4785 0.83675 0.0
H2387 H 0.39108 0.45303 0.82847 0.0
H2388 H 0.43241 0.84583 0.37484 0.0
H2389 H 0.46039 0.85368 0.36457 0.0
H2390 H 0.45953 0.81745 0.32982 0.0
H2391 H 0.43157 0.80954 0.34023 0.0
H2392 H 0.48802 0.81762 0.35047 0.0
H2393 H 0.4777 0.87372 0.32225 0.0
H2394 H 0.46912 0.87168 0.34265 0.0
H2395 H 0.4604 0.86079 0.32599 0.0
C2396 C 0.43794 0.83997 0.36455 0.0
C2397 C 0.42984 0.82734 0.35798 0.0
C2398 C 0.45389 0.84441 0.35872 0.0
C2399 C 0.4619 0.83625 0.34629 0.0
C2400 C 0.45346 0.82396 0.3393 0.0
H2401 H 0.56604 0.83826 0.30928 0.0
H2402 H 0.53612 0.83169 0.31477 0.0
C2403 C 0.43752 0.81952 0.34514 0.0
C2404 C 0.47986 0.83942 0.34206 0.0
H2405 H 0.50663 0.86674 0.32814 0.0
C2406 C 0.49209 0.82829 0.3454 0.0
C2407 C 0.48507 0.8534 0.3356 0.0
C2408 C 0.47238 0.86555 0.33126 0.0
C2409 C 0.50953 0.8309 0.34284 0.0
C2410 C 0.51476 0.84492 0.33654 0.0
C2411 C 0.50252 0.85601 0.33302 0.0
C2412 C 0.53294 0.84839 0.33365 0.0
C2413 C 0.52223 0.81879 0.34736 0.0
C2414 C 0.5409 0.86002 0.34233 0.0
C2415 C 0.55787 0.86374 0.3392 0.0
C2416 C 0.56709 0.85583 0.3274 0.0
C2417 C 0.55917 0.84421 0.31871 0.0
C2418 C 0.54217 0.84049 0.32183 0.0
H2419 H 0.51659 0.81015 0.35562 0.0
H2420 H 0.52645 0.81323 0.33592 0.0
H2421 H 0.5337 0.82357 0.3536 0.0
H2422 H 0.5339 0.86631 0.3514 0.0
H2423 H 0.5637 0.87302 0.34567 0.0
H2424 H 0.62849 0.16111 0.56213 0.0
H2425 H 0.6342 0.15164 0.53436 0.0
H2426 H 0.64667 0.19619 0.5177 0.0
H2427 H 0.64122 0.20574 0.54537 0.0
H2428 H 0.6182 0.1683 0.49988 0.0
H2429 H 0.68859 0.1626 0.51011 0.0
H2430 H 0.67372 0.16015 0.52684 0.0
H2431 H 0.6775 0.17843 0.51844 0.0
C2432 C 0.63254 0.16885 0.55255 0.0
C2433 C 0.6344 0.18415 0.55585 0.0
C2434 C 0.63565 0.16346 0.53675 0.0
C2435 C 0.64075 0.17329 0.52415 0.0
C2436 C 0.64263 0.18853 0.52736 0.0
H2437 H 0.68328 0.15783 0.42798 0.0
H2438 H 0.67299 0.16949 0.45332 0.0
C2439 C 0.63948 0.19394 0.54311 0.0
C2440 C 0.6446 0.16763 0.50767 0.0
H2441 H 0.6777 0.15679 0.48373 0.0
C2442 C 0.63116 0.16574 0.49626 0.0
C2443 C 0.66155 0.16451 0.50317 0.0
C2444 C 0.67626 0.16646 0.51522 0.0
C2445 C 0.63432 0.16079 0.4802 0.0
C2446 C 0.6513 0.15746 0.47572 0.0
C2447 C 0.66471 0.15943 0.48721 0.0
C2448 C 0.65555 0.1515 0.45936 0.0
C2449 C 0.61955 0.15942 0.46811 0.0
C2450 C 0.64893 0.13768 0.45433 0.0
C2451 C 0.65466 0.13115 0.43985 0.0
C2452 C 0.66713 0.13835 0.43037 0.0
C2453 C 0.67345 0.1523 0.43512 0.0
C2454 C 0.66765 0.15888 0.44953 0.0
H2455 H 0.60852 0.16641 0.47179 0.0
H2456 H 0.62339 0.16275 0.45542 0.0
H2457 H 0.61521 0.14763 0.46783 0.0
H2458 H 0.63994 0.13163 0.46198 0.0
H2459 H 0.64997 0.12021 0.43642 0.0
H2460 H 0.81361 0.10116 0.05242 0.0
H2461 H 0.82261 0.1015 0.02348 0.0
H2462 H 0.85524 0.1393 0.03351 0.0
H2463 H 0.84634 0.13905 0.06222 0.0
H2464 H 0.81678 0.12431 1.00239 0.0
H2465 H 0.88624 0.11413 0.00575 0.0
H2466 H 0.87226 0.1097 0.02274 0.0
H2467 H 0.88045 0.12838 0.02 0.0
C2468 C 0.82285 0.10942 0.04845 0.0
C2469 C 0.8293 0.12007 0.05956 0.0
C2470 C 0.82808 0.10951 0.03199 0.0
C2471 C 0.83988 0.1202 0.02647 0.0
C2472 C 0.84658 0.13062 0.03764 0.0
H2473 H 0.84804 0.17778 0.94852 0.0
H2474 H 0.84153 0.16172 0.97207 0.0
C2475 C 0.8414 0.13053 0.05404 0.0
C2476 C 0.84353 0.12195 0.00868 0.0
H2477 H 0.87621 0.12989 0.98252 0.0
C2478 C 0.82976 0.12507 0.9979 0.0
C2479 C 0.86044 0.12271 1.00275 0.0
C2480 C 0.87565 0.11838 0.01342 0.0
C2481 C 0.83253 0.13037 0.98181 0.0
C2482 C 0.84947 0.13276 0.97656 0.0
C2483 C 0.86322 0.12824 0.98673 0.0
C2484 C 0.85306 0.14198 0.96182 0.0
C2485 C 0.81733 0.13418 0.97089 0.0
C2486 C 0.86208 0.13622 0.94846 0.0
C2487 C 0.86575 0.14539 0.93483 0.0
C2488 C 0.86056 0.16045 0.93454 0.0
C2489 C 0.85179 0.16615 0.94814 0.0
C2490 C 0.84809 0.157 0.96163 0.0
H2491 H 0.80597 0.12742 0.97431 0.0
H2492 H 0.81403 0.14613 0.97246 0.0
H2493 H 0.82017 0.13233 0.95765 0.0
H2494 H 0.86618 0.12467 0.94855 0.0
H2495 H 0.87248 0.14068 0.92451 0.0
H2496 H 0.85762 0.30186 0.54295 0.0
H2497 H 0.85254 0.30957 0.51419 0.0
H2498 H 0.86907 0.35427 0.52576 0.0
H2499 H 0.87478 0.34654 0.5544 0.0
H2500 H 0.82956 0.33157 0.50448 0.0
H2501 H 0.89496 0.34553 0.48338 0.0
H2502 H 0.89105 0.33449 0.50179 0.0
H2503 H 0.88904 0.35449 0.50222 0.0
C2504 C 0.86054 0.31324 0.53929 0.0
C2505 C 0.86659 0.3236 0.55092 0.0
C2506 C 0.85756 0.31764 0.5229 0.0
C2507 C 0.86066 0.33241 0.51786 0.0
C2508 C 0.86693 0.34273 0.52936 0.0
H2509 H 0.83486 0.38588 0.43174 0.0
H2510 H 0.84615 0.3762 0.45833 0.0
C2511 C 0.86995 0.33835 0.54575 0.0
C2512 C 0.856 0.33734 0.50093 0.0
H2513 H 0.87181 0.35342 0.46585 0.0
C2514 C 0.83881 0.3362 0.49596 0.0
C2515 C 0.86813 0.34347 0.48996 0.0
C2516 C 0.88686 0.34446 0.49452 0.0
C2517 C 0.83332 0.34134 0.48037 0.0
C2518 C 0.84542 0.34752 0.46942 0.0
C2519 C 0.86263 0.34862 0.47433 0.0
C2520 C 0.84026 0.35313 0.45292 0.0
C2521 C 0.81454 0.34046 0.47589 0.0
C2522 C 0.83369 0.34326 0.44107 0.0
C2523 C 0.82724 0.34876 0.42605 0.0
C2524 C 0.8274 0.36415 0.42273 0.0
C2525 C 0.83464 0.37397 0.43424 0.0
C2526 C 0.84107 0.36847 0.4493 0.0
H2527 H 0.80651 0.33853 0.48694 0.0
H2528 H 0.8102 0.35089 0.46955 0.0
H2529 H 0.8124 0.33105 0.46729 0.0
H2530 H 0.8332 0.33136 0.44362 0.0
H2531 H 0.82173 0.34108 0.41719 0.0
H2532 H 0.64841 0.30599 0.96661 0.0
H2533 H 0.6523 0.31313 0.99548 0.0
H2534 H 0.63631 0.35807 0.98328 0.0
H2535 H 0.63187 0.3509 0.95437 0.0
H2536 H 0.67466 0.33589 0.00639 0.0
H2537 H 0.60729 0.34661 0.02405 0.0
H2538 H 0.61279 0.33594 0.00605 0.0
H2539 H 0.61446 0.35594 0.00559 0.0
C2540 C 0.64545 0.31733 0.97011 0.0
C2541 C 0.63977 0.32788 0.95827 0.0
C2542 C 0.64775 0.3214 0.98657 0.0
C2543 C 0.64435 0.33604 0.99147 0.0
C2544 C 0.63869 0.34663 0.97973 0.0
H2545 H 0.66478 0.38056 0.08432 0.0
H2546 H 0.6539 0.37433 0.05653 0.0
C2547 C 0.63638 0.34258 0.96322 0.0
C2548 C 0.64777 0.34035 0.00872 0.0
H2549 H 0.62879 0.35206 0.04405 0.0
C2550 C 0.66465 0.3394 0.01465 0.0
C2551 C 0.63462 0.345 0.01932 0.0
C2552 C 0.61623 0.34585 0.01353 0.0
C2553 C 0.66879 0.34299 0.031 0.0
C2554 C 0.65562 0.34737 0.0417 0.0
C2555 C 0.63876 0.34858 0.03574 0.0
C2556 C 0.65935 0.35073 0.05915 0.0
C2557 C 0.68725 0.3422 0.03666 0.0
C2558 C 0.66532 0.33938 0.06984 0.0
C2559 C 0.67153 0.34292 0.08554 0.0
C2560 C 0.67168 0.35781 0.09069 0.0
C2561 C 0.66466 0.36902 0.08044 0.0
C2562 C 0.65849 0.36548 0.06469 0.0
H2563 H 0.69614 0.34198 0.02606 0.0
H2564 H 0.69059 0.35187 0.04457 0.0
H2565 H 0.68927 0.33185 0.04411 0.0
H2566 H 0.6659 0.32792 0.06574 0.0
H2567 H 0.67695 0.33418 0.09337 0.0
H2568 H 0.84973 0.56613 0.34573 0.0
H2569 H 0.84233 0.54047 0.35355 0.0
H2570 H 0.84869 0.52673 0.30308 0.0
H2571 H 0.85591 0.55236 0.29508 0.0
H2572 H 0.81562 0.52259 0.34204 0.0
H2573 H 0.87817 0.49652 0.32868 0.0
H2574 H 0.87548 0.51648 0.33018 0.0
H2575 H 0.86908 0.50696 0.31163 0.0
C2576 C 0.8495 0.55769 0.33624 0.0
C2577 C 0.85352 0.56139 0.31975 0.0
C2578 C 0.84534 0.54298 0.34077 0.0
C2579 C 0.84519 0.53159 0.32897 0.0
C2580 C 0.8491 0.53523 0.3125 0.0
H2581 H 0.8217 0.43658 0.33029 0.0
H2582 H 0.82933 0.46229 0.323 0.0
C2583 C 0.85326 0.54993 0.30795 0.0
C2584 C 0.84052 0.516 0.33382 0.0
H2585 H 0.85526 0.48004 0.33474 0.0
C2586 C 0.82432 0.5133 0.34053 0.0
C2587 C 0.85185 0.50384 0.33182 0.0
C2588 C 0.86968 0.50606 0.32533 0.0
C2589 C 0.81901 0.49878 0.34496 0.0
C2590 C 0.83034 0.48661 0.34295 0.0
C2591 C 0.84656 0.48933 0.33627 0.0
C2592 C 0.82559 0.47097 0.34755 0.0
C2593 C 0.80112 0.49657 0.35131 0.0
C2594 C 0.82112 0.46716 0.36385 0.0
C2595 C 0.81677 0.45242 0.36809 0.0
C2596 C 0.81697 0.44109 0.35616 0.0
C2597 C 0.8216 0.44493 0.33987 0.0
C2598 C 0.8259 0.45967 0.33565 0.0
H2599 H 0.79265 0.50609 0.34783 0.0
H2600 H 0.79537 0.48613 0.34646 0.0
H2601 H 0.80159 0.49574 0.36501 0.0
H2602 H 0.82118 0.47557 0.37337 0.0
H2603 H 0.81355 0.44986 0.3808 0.0
H2604 H 0.43897 0.38192 0.85116 0.0
H2605 H 0.46762 0.37362 0.86017 0.0
H2606 H 0.46758 0.34093 0.82139 0.0
H2607 H 0.43897 0.34928 0.81238 0.0
H2608 H 0.4784 0.34519 0.87102 0.0
H2609 H 0.51308 0.36261 0.81455 0.0
H2610 H 0.49179 0.36909 0.81897 0.0
H2611 H 0.49495 0.35075 0.81073 0.0
C2612 C 0.44514 0.37297 0.8446 0.0
C2613 C 0.43681 0.36619 0.83113 0.0
C2614 C 0.46148 0.36823 0.84973 0.0
C2615 C 0.4699 0.35676 0.84135 0.0
C2616 C 0.46153 0.34997 0.82788 0.0
H2617 H 0.56918 0.31283 0.85346 0.0
H2618 H 0.54034 0.32068 0.84453 0.0
C2619 C 0.44516 0.35468 0.82279 0.0
C2620 C 0.48727 0.35171 0.84691 0.0
H2621 H 0.52865 0.34816 0.83435 0.0
C2622 C 0.48941 0.3459 0.86303 0.0
C2623 C 0.50165 0.35256 0.83647 0.0
C2624 C 0.50036 0.35921 0.81926 0.0
C2625 C 0.5054 0.34071 0.86888 0.0
C2626 C 0.51981 0.34163 0.85848 0.0
C2627 C 0.51765 0.34742 0.84235 0.0
C2628 C 0.53724 0.33673 0.86409 0.0
C2629 C 0.50658 0.33393 0.88604 0.0
C2630 C 0.54523 0.34319 0.87798 0.0
C2631 C 0.56164 0.33865 0.8831 0.0
C2632 C 0.57049 0.32772 0.87431 0.0
C2633 C 0.56258 0.32129 0.8604 0.0
C2634 C 0.54615 0.3258 0.8553 0.0
H2635 H 0.49389 0.33011 0.89043 0.0
H2636 H 0.51552 0.32429 0.88643 0.0
H2637 H 0.51141 0.34247 0.89478 0.0
H2638 H 0.53884 0.35186 0.88478 0.0
H2639 H 0.56749 0.34374 0.89387 0.0
H2640 H 0.67963 0.05466 0.34539 0.0
H2641 H 0.67048 0.02942 0.33916 0.0
H2642 H 0.65751 0.02214 0.3903 0.0
H2643 H 0.66809 0.04704 0.397 0.0
H2644 H 0.6724 0.99857 0.37965 0.0
H2645 H 0.62368 0.01399 0.33257 0.0
H2646 H 0.64413 0.02119 0.32677 0.0
H2647 H 0.63412 0.02775 0.3453 0.0
C2648 C 0.6751 0.0477 0.35545 0.0
C2649 C 0.67475 0.05306 0.37178 0.0
C2650 C 0.66948 0.03328 0.35175 0.0
C2651 C 0.66283 0.02391 0.36413 0.0
C2652 C 0.66241 0.02917 0.38045 0.0
H2653 H 0.61147 0.94113 0.33423 0.0
H2654 H 0.61753 0.966 0.34482 0.0
C2655 C 0.66834 0.04353 0.38424 0.0
C2656 C 0.657 0.00846 0.36012 0.0
H2657 H 0.63316 0.98843 0.33241 0.0
C2658 C 0.66365 0.99639 0.36943 0.0
C2659 C 0.64526 0.00549 0.34704 0.0
C2660 C 0.63625 0.01782 0.3375 0.0
C2661 C 0.6594 0.98153 0.3657 0.0
C2662 C 0.64872 0.97853 0.35181 0.0
C2663 C 0.64159 0.99061 0.34287 0.0
C2664 C 0.64498 0.96301 0.34615 0.0
C2665 C 0.66622 0.96926 0.37692 0.0
C2666 C 0.65832 0.95293 0.34325 0.0
C2667 C 0.65487 0.93849 0.33765 0.0
C2668 C 0.63796 0.93384 0.33427 0.0
C2669 C 0.62462 0.94407 0.33695 0.0
C2670 C 0.62809 0.95843 0.34287 0.0
H2671 H 0.66855 0.97339 0.38966 0.0
H2672 H 0.65727 0.95965 0.37758 0.0
H2673 H 0.67864 0.9653 0.37215 0.0
H2674 H 0.67151 0.95624 0.34515 0.0
H2675 H 0.66554 0.931 0.33606 0.0
H2676 H 0.05767 0.1232 0.83278 0.0
H2677 H 0.02949 0.13316 0.83997 0.0
H2678 H 0.0481 0.17799 0.83206 0.0
H2679 H 0.07628 0.16799 0.82487 0.0
H2680 H 0.02963 0.17463 0.86136 0.0
H2681 H 0.99349 0.15121 0.80811 0.0
H2682 H 0.00562 0.13765 0.81986 0.0
H2683 H 0.01655 0.1522 0.80871 0.0
C2684 C 0.05564 0.13516 0.83245 0.0
C2685 C 0.06902 0.14483 0.82804 0.0
C2686 C 0.03954 0.14085 0.8365 0.0
C2687 C 0.03653 0.15634 0.83629 0.0
C2688 C 0.05004 0.16601 0.8322 0.0
H2689 H 0.93642 0.20024 0.84023 0.0
H2690 H 0.96499 0.19157 0.83224 0.0
C2691 C 0.06611 0.16031 0.82808 0.0
C2692 C 0.01942 0.16246 0.84064 0.0
H2693 H 0.97708 0.1621 0.82936 0.0
C2694 C 0.01815 0.17192 0.85433 0.0
C2695 C 0.00443 0.1591 0.83137 0.0
C2696 C 0.00503 0.1496 0.8161 0.0
C2697 C 0.00232 0.17782 0.85918 0.0
C2698 C 0.98726 0.17407 0.85023 0.0
C2699 C 0.98857 0.16489 0.83632 0.0
C2700 C 0.97002 0.17951 0.85515 0.0
C2701 C 0.00189 0.18817 0.87376 0.0
C2702 C 0.9632 0.17546 0.87057 0.0
C2703 C 0.94693 0.18037 0.87509 0.0
C2704 C 0.93717 0.18954 0.86435 0.0
C2705 C 0.94384 0.19341 0.84883 0.0
C2706 C 0.9601 0.18842 0.84426 0.0
H2707 H 0.01471 0.19295 0.87656 0.0
H2708 H 0.99275 0.19748 0.87148 0.0
H2709 H 0.99764 0.18184 0.88485 0.0
H2710 H 0.97037 0.1683 0.87902 0.0
H2711 H 0.94187 0.1769 0.88693 0.0
H2712 H 0.82391 0.06601 0.12006 0.0
H2713 H 0.8309 0.03988 0.12702 0.0
H2714 H 0.82122 0.04849 0.17845 0.0
H2715 H 0.81414 0.07459 0.17143 0.0
H2716 H 0.85636 0.02847 0.14916 0.0
H2717 H 0.79119 0.01175 0.16856 0.0
H2718 H 0.79524 0.02862 0.15679 0.0
H2719 H 0.79962 0.02799 0.17867 0.0
C2720 C 0.8233 0.06225 0.13282 0.0
C2721 C 0.81845 0.07217 0.14523 0.0
C2722 C 0.82728 0.04737 0.1368 0.0
C2723 C 0.82635 0.04215 0.15323 0.0
C2724 C 0.82173 0.05218 0.16566 0.0
H2725 H 0.84248 0.95603 0.20189 0.0
H2726 H 0.8364 0.98213 0.19493 0.0
C2727 C 0.81779 0.06707 0.16168 0.0
C2728 C 0.83041 0.02628 0.15736 0.0
H2729 H 0.81332 0.9941 0.1732 0.0
C2730 C 0.84694 0.02093 0.15436 0.0
C2731 C 0.81813 0.01646 0.16418 0.0
C2732 C 0.8 0.02141 0.16713 0.0
C2733 C 0.85161 0.00611 0.15828 0.0
C2734 C 0.8393 0.99625 0.16504 0.0
C2735 C 0.82277 1.00162 0.16803 0.0
C2736 C 0.84331 0.98034 0.1692 0.0
C2737 C 0.86984 1.00131 0.15555 0.0
C2738 C 0.84907 0.97052 0.15704 0.0
C2739 C 0.85277 0.95558 0.16103 0.0
C2740 C 0.85064 0.95005 0.17726 0.0
C2741 C 0.84462 0.95989 0.18935 0.0
C2742 C 0.84098 0.97483 0.18535 0.0
H2743 H 0.87864 0.01104 0.1549 0.0
H2744 H 0.87437 0.99366 0.16558 0.0
H2745 H 0.87057 0.99533 0.14363 0.0
H2746 H 0.85061 0.97437 0.14441 0.0
H2747 H 0.85748 0.94842 0.1514 0.0
H2748 H 0.0719 0.34392 0.68456 0.0
H2749 H 0.04342 0.3351 0.6759 0.0
H2750 H 0.03212 0.37869 0.65524 0.0
H2751 H 0.06051 0.38753 0.66426 0.0
H2752 H 0.00542 0.36786 0.67268 0.0
H2753 H 0.02763 0.32442 0.62973 0.0
H2754 H 0.03614 0.32212 0.65033 0.0
H2755 H 0.0418 0.33835 0.63825 0.0
C2756 C 0.06328 0.35155 0.67815 0.0
C2757 C 0.0683 0.36635 0.67501 0.0
C2758 C 0.04708 0.34651 0.67309 0.0
C2759 C 0.03566 0.35613 0.66462 0.0
C2760 C 0.04068 0.37101 0.66166 0.0
H2761 H 0.94389 0.32851 0.60982 0.0
H2762 H 0.97232 0.33763 0.61829 0.0
C2763 C 0.05687 0.37606 0.66678 0.0
C2764 C 0.01839 0.35081 0.65912 0.0
H2765 H 0.99797 0.32427 0.63595 0.0
C2766 C 0.00381 0.35835 0.66461 0.0
C2767 C 0.0162 0.33853 0.64837 0.0
C2768 C 0.03127 0.33047 0.64118 0.0
C2769 C 0.9872 0.35384 0.65991 0.0
C2770 C 0.985 0.34122 0.64968 0.0
C2771 C 0.99958 0.33383 0.64395 0.0
C2772 C 0.96771 0.33563 0.64458 0.0
C2773 C 0.97218 0.36286 0.6657 0.0
C2774 C 0.95567 0.33126 0.65647 0.0
C2775 C 0.93944 0.32611 0.65162 0.0
C2776 C 0.93502 0.32504 0.63478 0.0
C2777 C 0.94707 0.32922 0.62287 0.0
C2778 C 0.96328 0.33441 0.62772 0.0
H2779 H 0.97607 0.37434 0.66925 0.0
H2780 H 0.96207 0.36368 0.65596 0.0
H2781 H 0.96663 0.35734 0.67675 0.0
H2782 H 0.95884 0.33175 0.66954 0.0
H2783 H 0.93035 0.3229 0.66101 0.0
H2784 H 0.70799 0.44034 0.156 0.0
H2785 H 0.69925 0.46579 0.1626 0.0
H2786 H 0.64633 0.45259 0.15966 0.0
H2787 H 0.65486 0.4272 0.15265 0.0
H2788 H 0.67732 0.4859 0.14394 0.0
H2789 H 0.65114 0.47206 0.20581 0.0
H2790 H 0.66525 0.45966 0.19502 0.0
H2791 H 0.64309 0.46093 0.18906 0.0
C2792 C 0.69447 0.44283 0.15654 0.0
C2793 C 0.68216 0.43159 0.15383 0.0
C2794 C 0.68951 0.4574 0.16044 0.0
C2795 C 0.67214 0.46105 0.16188 0.0
C2796 C 0.65981 0.44996 0.15895 0.0
H2797 H 0.617 0.54179 0.1886 0.0
H2798 H 0.62538 0.51643 0.18103 0.0
C2799 C 0.66475 0.43542 0.15498 0.0
C2800 C 0.66693 0.47649 0.16626 0.0
H2801 H 0.64688 0.49675 0.19589 0.0
C2802 C 0.67072 0.48829 0.15532 0.0
C2803 C 0.65823 0.4796 0.18107 0.0
C2804 C 0.65428 0.46744 0.19352 0.0
C2805 C 0.6658 0.50307 0.15865 0.0
C2806 C 0.65723 0.50622 0.17355 0.0
C2807 C 0.65343 0.49438 0.18447 0.0
C2808 C 0.65218 0.5217 0.17811 0.0
C2809 C 0.66944 0.51507 0.14592 0.0
C2810 C 0.66446 0.53312 0.17928 0.0
C2811 C 0.6597 0.54763 0.18355 0.0
C2812 C 0.64255 0.55106 0.18698 0.0
C2813 C 0.63032 0.53954 0.18612 0.0
C2814 C 0.63509 0.52504 0.18174 0.0
H2815 H 0.67117 0.5103 0.13342 0.0
H2816 H 0.65897 0.52343 0.14522 0.0
H2817 H 0.68145 0.52092 0.14939 0.0
H2818 H 0.67781 0.53078 0.17706 0.0
H2819 H 0.66952 0.55613 0.18443 0.0
H2820 H 0.42792 0.17029 0.68806 0.0
H2821 H 0.45553 0.1802 0.6787 0.0
H2822 H 0.46975 0.13628 0.66234 0.0
H2823 H 0.44228 0.12638 0.67201 0.0
H2824 H 0.49579 0.14945 0.67901 0.0
H2825 H 0.4701 0.18912 0.63182 0.0
H2826 H 0.46175 0.19208 0.65209 0.0
H2827 H 0.45702 0.17497 0.64148 0.0
C2828 C 0.437 0.16282 0.68244 0.0
C2829 C 0.43309 0.1476 0.68078 0.0
C2830 C 0.4527 0.16848 0.67698 0.0
C2831 C 0.46471 0.15906 0.66954 0.0
C2832 C 0.46075 0.14381 0.66797 0.0
H2833 H 0.55394 0.18665 0.61262 0.0
H2834 H 0.52596 0.17748 0.62187 0.0
C2835 C 0.44508 0.13815 0.67348 0.0
C2836 C 0.48151 0.16497 0.66372 0.0
H2837 H 0.49983 0.19092 0.63805 0.0
C2838 C 0.49665 0.1585 0.67003 0.0
C2839 C 0.48273 0.17665 0.6518 0.0
C2840 C 0.46704 0.18352 0.64376 0.0
C2841 C 0.51287 0.16348 0.66497 0.0
C2842 C 0.5141 0.17551 0.65349 0.0
C2843 C 0.49896 0.18183 0.64699 0.0
C2844 C 0.53094 0.18149 0.64786 0.0
C2845 C 0.52854 0.15555 0.67171 0.0
C2846 C 0.543 0.18707 0.6593 0.0
C2847 C 0.55895 0.19227 0.654 0.0
C2848 C 0.5631 0.19218 0.63716 0.0
C2849 C 0.55097 0.1869 0.62566 0.0
C2850 C 0.53502 0.18166 0.63096 0.0
H2851 H 0.52541 0.14419 0.67646 0.0
H2852 H 0.53846 0.15454 0.6621 0.0
H2853 H 0.534 0.16202 0.68214 0.0
H2854 H 0.54008 0.1874 0.67234 0.0
H2855 H 0.56812 0.19631 0.66307 0.0
H2856 H 0.36089 0.80264 0.4633 0.0
H2857 H 0.35282 0.81218 0.49031 0.0
H2858 H 0.36464 0.85695 0.47407 0.0
H2859 H 0.37226 0.84755 0.44678 0.0
H2860 H 0.371 0.82741 0.51403 0.0
H2861 H 0.31682 0.86253 0.49189 0.0
H2862 H 0.32678 0.84882 0.47898 0.0
H2863 H 0.33675 0.86668 0.48209 0.0
C2864 C 0.36162 0.81456 0.46533 0.0
C2865 C 0.36712 0.82428 0.45259 0.0
C2866 C 0.35709 0.82 0.48092 0.0
C2867 C 0.35775 0.83536 0.48432 0.0
C2868 C 0.3636 0.84509 0.47179 0.0
H2869 H 0.33149 0.8884 0.57157 0.0
H2870 H 0.34072 0.8797 0.54435 0.0
C2871 C 0.3682 0.83964 0.45617 0.0
C2872 C 0.35252 0.84107 0.50099 0.0
H2873 H 0.32461 0.86456 0.52018 0.0
C2874 C 0.36082 0.83551 0.51534 0.0
C2875 C 0.33925 0.85169 0.50289 0.0
C2876 C 0.32925 0.8577 0.48818 0.0
C2877 C 0.35646 0.84037 0.53132 0.0
C2878 C 0.34308 0.8509 0.53324 0.0
C2879 C 0.33484 0.85651 0.51888 0.0
C2880 C 0.33741 0.85618 0.54997 0.0
C2881 C 0.36662 0.83444 0.54597 0.0
C2882 C 0.33217 0.846 0.56233 0.0
C2883 C 0.32693 0.85099 0.57791 0.0
C2884 C 0.32654 0.86632 0.58151 0.0
C2885 C 0.33158 0.87653 0.56914 0.0
C2886 C 0.33686 0.87154 0.55357 0.0
H2887 H 0.3794 0.83035 0.54223 0.0
H2888 H 0.36843 0.84312 0.55553 0.0
H2889 H 0.35967 0.82488 0.55159 0.0
H2890 H 0.33198 0.83414 0.5599 0.0
H2891 H 0.32306 0.84287 0.58716 0.0
H2892 H 0.16573 0.82135 0.07768 0.0
H2893 H 0.17433 0.83035 0.05021 0.0
H2894 H 0.12125 0.83577 0.03624 0.0
H2895 H 0.11283 0.82804 0.06407 0.0
H2896 H 0.17156 0.82156 0.02074 0.0
H2897 H 0.13655 0.87498 0.02104 0.0
H2898 H 0.13813 0.86315 0.03916 0.0
H2899 H 0.12205 0.85966 0.02345 0.0
C2900 C 0.15592 0.82452 0.06873 0.0
C2901 C 0.13857 0.82367 0.07304 0.0
C2902 C 0.16083 0.82966 0.05294 0.0
C2903 C 0.14854 0.8341 0.04093 0.0
C2904 C 0.13116 0.83293 0.04519 0.0
H2905 H 0.17545 0.842 0.93505 0.0
H2906 H 0.16651 0.83316 0.9624 0.0
C2907 C 0.12628 0.82813 0.06109 0.0
C2908 C 0.15391 0.8397 0.02401 0.0
H2909 H 0.14685 0.86724 0.99485 0.0
C2910 C 0.1662 0.83163 0.01519 0.0
C2911 C 0.14735 0.85303 0.01659 0.0
C2912 C 0.13545 0.86328 0.02564 0.0
C2913 C 0.17185 0.83629 0.99939 0.0
C2914 C 0.16453 0.84912 0.99157 0.0
C2915 C 0.15241 0.85729 1.00048 0.0
C2916 C 0.16951 0.85453 0.97445 0.0
C2917 C 0.18611 0.82759 0.99161 0.0
C2918 C 0.17333 0.86972 0.97145 0.0
C2919 C 0.17784 0.87488 0.95558 0.0
C2920 C 0.17903 0.865 0.94222 0.0
C2921 C 0.17493 0.84988 0.94509 0.0
C2922 C 0.17003 0.84477 0.96088 0.0
H2923 H 0.1941 0.82175 1.00114 0.0
H2924 H 0.18054 0.81894 0.98343 0.0
H2925 H 0.19454 0.83495 0.98417 0.0
H2926 H 0.17292 0.87765 0.98145 0.0
H2927 H 0.1805 0.88666 0.95376 0.0
H2928 H 0.17296 0.6677 0.57177 0.0
H2929 H 0.16389 0.67611 0.54396 0.0
H2930 H 0.16718 0.63082 0.52671 0.0
H2931 H 0.17549 0.62238 0.55467 0.0
H2932 H 0.17864 0.67633 0.51507 0.0
H2933 H 0.12103 0.64097 0.50884 0.0
H2934 H 0.13253 0.64276 0.5282 0.0
H2935 H 0.13988 0.63004 0.51272 0.0
C2936 C 0.17161 0.65954 0.56204 0.0
C2937 C 0.17499 0.64437 0.56544 0.0
C2938 C 0.16646 0.66436 0.54609 0.0
C2939 C 0.16449 0.65414 0.53306 0.0
C2940 C 0.16808 0.63897 0.53647 0.0
H2941 H 0.16181 0.68143 0.42766 0.0
H2942 H 0.17023 0.6727 0.4555 0.0
C2943 C 0.17305 0.63414 0.55245 0.0
C2944 C 0.1591 0.6594 0.51594 0.0
H2945 H 0.13051 0.6531 0.48422 0.0
C2946 C 0.16806 0.67124 0.50839 0.0
C2947 C 0.1451 0.65307 0.50711 0.0
C2948 C 0.13397 0.64112 0.51469 0.0
C2949 C 0.16366 0.67671 0.4924 0.0
C2950 C 0.15015 0.66993 0.48328 0.0
C2951 C 0.14101 0.65825 0.49094 0.0
C2952 C 0.14503 0.67495 0.466 0.0
C2953 C 0.17331 0.69001 0.48571 0.0
C2954 C 0.1279 0.67858 0.46211 0.0
C2955 C 0.12303 0.6833 0.44605 0.0
C2956 C 0.13516 0.68462 0.43341 0.0
C2957 C 0.15221 0.68072 0.43716 0.0
C2958 C 0.15705 0.67586 0.45318 0.0
H2959 H 0.17917 0.69666 0.49583 0.0
H2960 H 0.1838 0.68605 0.47776 0.0
H2961 H 0.16484 0.69744 0.47818 0.0
H2962 H 0.11825 0.67789 0.47157 0.0
H2963 H 0.10975 0.68598 0.44351 0.0
H2964 H 0.33504 0.68398 0.0649 0.0
H2965 H 0.32649 0.67509 0.03739 0.0
H2966 H 0.37934 0.67512 0.02283 0.0
H2967 H 0.3879 0.68307 0.05066 0.0
H2968 H 0.32758 0.6856 0.00785 0.0
H2969 H 0.3676 0.63484 0.0075 0.0
H2970 H 0.36522 0.64591 0.02579 0.0
H2971 H 0.3804 0.65125 0.01019 0.0
C2972 C 0.34483 0.68196 0.05585 0.0
C2973 C 0.36216 0.68426 0.06002 0.0
C2974 C 0.33994 0.67691 0.04004 0.0
C2975 C 0.35222 0.67405 0.02785 0.0
C2976 C 0.36953 0.6767 0.03196 0.0
H2977 H 0.32282 0.6663 0.92195 0.0
H2978 H 0.33216 0.67531 0.94919 0.0
C2979 C 0.37444 0.6815 0.04786 0.0
C2980 C 0.34684 0.66859 0.01091 0.0
H2981 H 0.35508 0.64218 0.98164 0.0
C2982 C 0.33359 0.67605 1.00221 0.0
C2983 C 0.3543 0.65593 0.00339 0.0
C2984 C 0.36752 0.64643 0.01228 0.0
C2985 C 0.32779 0.67141 0.98642 0.0
C2986 C 0.33583 0.6592 0.97856 0.0
C2987 C 0.34896 0.65165 0.98734 0.0
C2988 C 0.33053 0.65376 0.96158 0.0
C2989 C 0.31268 0.67941 0.97864 0.0
C2990 C 0.32728 0.63848 0.95888 0.0
C2991 C 0.32238 0.63328 0.94314 0.0
C2992 C 0.32022 0.64322 0.92964 0.0
C2993 C 0.32391 0.65841 0.93217 0.0
C2994 C 0.32911 0.66359 0.94785 0.0
H2995 H 0.30471 0.68483 0.98814 0.0
H2996 H 0.31734 0.68832 0.97019 0.0
H2997 H 0.30445 0.67165 0.97146 0.0
H2998 H 0.32846 0.63051 0.969 0.0
H2999 H 0.32027 0.62143 0.94153 0.0
loop_
_geom_bond_atom_site_label_1
_geom_bond_atom_site_label_2
_geom_bond_distance
_geom_bond_site_symmetry_2
_ccdc_geom_bond_type
C0 C1 1.443 . S
C0 N4 1.376 . S
C0 C38 1.389 . S
C1 C0 1.443 . S
C1 C2 1.340 . S
C1 H41 0.951 . S
C2 C1 1.340 . S
C2 C3 1.439 . S
C2 H42 0.950 . S
C3 C2 1.439 . S
C3 N4 1.374 . S
C3 C37 1.395 . S
N4 C0 1.376 . S
N4 C3 1.374 . S
N4 Co5 2.008 . S
Co5 N4 2.008 . S
Co5 N6 1.995 . S
Co5 N11 2.008 . S
Co5 N16 1.995 . S
Co5 N21 2.282 . S
Co5 N27 2.282 . S
N6 Co5 1.995 . S
N6 C7 1.376 . S
N6 C10 1.383 . S
C7 N6 1.376 . S
C7 C8 1.446 . S
C7 C37 1.391 . S
C8 C7 1.446 . S
C8 C9 1.339 . S
C8 H43 0.949 . S
C9 C8 1.339 . S
C9 C10 1.439 . S
C9 H44 0.950 . S
C10 N6 1.383 . S
C10 C9 1.439 . S
C10 C39 1.392 . S
N11 Co5 2.008 . S
N11 C12 1.376 . S
N11 C15 1.374 . S
C12 N11 1.376 . S
C12 C13 1.443 . S
C12 C39 1.389 . S
C13 C12 1.443 . S
C13 C14 1.340 . S
C13 H45 0.951 . S
C14 C13 1.340 . S
C14 C15 1.439 . S
C14 H46 0.950 . S
C15 N11 1.374 . S
C15 C14 1.439 . S
C15 C40 1.395 . S
N16 Co5 1.995 . S
N16 C17 1.376 . S
N16 C20 1.383 . S
C17 N16 1.376 . S
C17 C18 1.446 . S
C17 C40 1.391 . S
C18 C17 1.446 . S
C18 C19 1.339 . S
C18 H47 0.949 . S
C19 C18 1.339 . S
C19 C20 1.439 . S
C19 H48 0.950 . S
C20 N16 1.383 . S
C20 C19 1.439 . S
C20 C38 1.392 . S
N21 Co5 2.282 . S
N21 C24 1.332 . S
N21 C26 1.332 . S
C22 C23 1.386 . S
C22 C25 1.388 . S
C23 C22 1.386 . S
C23 C24 1.382 . S
C23 H49 0.950 . S
C24 N21 1.332 . S
C24 C23 1.382 . S
C24 H35 0.952 . S
C25 C22 1.388 . S
C25 C26 1.382 . S
C25 H50 0.950 . S
C26 N21 1.332 . S
C26 C25 1.382 . S
C26 H36 0.948 . S
N27 Co5 2.282 . S
N27 C31 1.332 . S
N27 C32 1.332 . S
C28 C29 1.388 . S
C28 C32 1.382 . S
C28 H51 0.950 . S
C29 C28 1.388 . S
C29 C30 1.386 . S
C30 C29 1.386 . S
C30 C31 1.382 . S
C30 H52 0.950 . S
C31 N27 1.332 . S
C31 C30 1.382 . S
C31 H33 0.952 . S
C32 N27 1.332 . S
C32 C28 1.382 . S
C32 H34 0.948 . S
H33 C31 0.952 . S
H34 C32 0.948 . S
H35 C24 0.952 . S
H36 C26 0.948 . S
C37 C3 1.395 . S
C37 C7 1.391 . S
C38 C0 1.389 . S
C38 C20 1.392 . S
C39 C10 1.392 . S
C39 C12 1.389 . S
C40 C15 1.395 . S
C40 C17 1.391 . S
H41 C1 0.951 . S
H42 C2 0.950 . S
H43 C8 0.949 . S
H44 C9 0.950 . S
H45 C13 0.951 . S
H46 C14 0.950 . S
H47 C18 0.949 . S
H48 C19 0.950 . S
H49 C23 0.950 . S
H50 C25 0.950 . S
H51 C28 0.950 . S
H52 C30 0.950 . S
C53 C54 1.443 . S
C53 N57 1.376 . S
C53 C91 1.389 . S
C54 C53 1.443 . S
C54 C55 1.340 . S
C54 H94 0.951 . S
C55 C54 1.340 . S
C55 C56 1.439 . S
C55 H95 0.950 . S
C56 C55 1.439 . S
C56 N57 1.374 . S
C56 C90 1.395 . S
N57 C53 1.376 . S
N57 C56 1.374 . S
N57 Co58 2.008 . S
Co58 N57 2.008 . S
Co58 N59 1.995 . S
Co58 N64 2.008 . S
Co58 N69 1.995 . S
Co58 N74 2.282 . S
Co58 N80 2.282 . S
N59 Co58 1.995 . S
N59 C60 1.376 . S
N59 C63 1.383 . S
C60 N59 1.376 . S
C60 C61 1.446 . S
C60 C90 1.391 . S
C61 C60 1.446 . S
C61 C62 1.339 . S
C61 H96 0.949 . S
C62 C61 1.339 . S
C62 C63 1.439 . S
C62 H97 0.950 . S
C63 N59 1.383 . S
C63 C62 1.439 . S
C63 C92 1.392 . S
N64 Co58 2.008 . S
N64 C65 1.376 . S
N64 C68 1.374 . S
C65 N64 1.376 . S
C65 C66 1.443 . S
C65 C92 1.389 . S
C66 C65 1.443 . S
C66 C67 1.340 . S
C66 H98 0.951 . S
C67 C66 1.340 . S
C67 C68 1.439 . S
C67 H99 0.950 . S
C68 N64 1.374 . S
C68 C67 1.439 . S
C68 C93 1.395 . S
N69 Co58 1.995 . S
N69 C70 1.376 . S
N69 C73 1.383 . S
C70 N69 1.376 . S
C70 C71 1.446 . S
C70 C93 1.391 . S
C71 C70 1.446 . S
C71 C72 1.339 . S
C71 H100 0.949 . S
C72 C71 1.339 . S
C72 C73 1.439 . S
C72 H101 0.950 . S
C73 N69 1.383 . S
C73 C72 1.439 . S
C73 C91 1.392 . S
N74 Co58 2.282 . S
N74 C77 1.332 . S
N74 C79 1.332 . S
C75 C76 1.386 . S
C75 C78 1.388 . S
C76 C75 1.386 . S
C76 C77 1.382 . S
C76 H102 0.950 . S
C77 N74 1.332 . S
C77 C76 1.382 . S
C77 H88 0.952 . S
C78 C75 1.388 . S
C78 C79 1.382 . S
C78 H103 0.950 . S
C79 N74 1.332 . S
C79 C78 1.382 . S
C79 H89 0.948 . S
N80 Co58 2.282 . S
N80 C84 1.332 . S
N80 C85 1.332 . S
C81 C82 1.388 . S
C81 C85 1.382 . S
C81 H104 0.950 . S
C82 C81 1.388 . S
C82 C83 1.386 . S
C83 C82 1.386 . S
C83 C84 1.382 . S
C83 H105 0.950 . S
C84 N80 1.332 . S
C84 C83 1.382 . S
C84 H86 0.952 . S
C85 N80 1.332 . S
C85 C81 1.382 . S
C85 H87 0.948 . S
H86 C84 0.952 . S
H87 C85 0.948 . S
H88 C77 0.952 . S
H89 C79 0.948 . S
C90 C56 1.395 . S
C90 C60 1.391 . S
C91 C53 1.389 . S
C91 C73 1.392 . S
C92 C63 1.392 . S
C92 C65 1.389 . S
C93 C68 1.395 . S
C93 C70 1.391 . S
H94 C54 0.951 . S
H95 C55 0.950 . S
H96 C61 0.949 . S
H97 C62 0.950 . S
H98 C66 0.951 . S
H99 C67 0.950 . S
H100 C71 0.949 . S
H101 C72 0.950 . S
H102 C76 0.950 . S
H103 C78 0.950 . S
H104 C81 0.950 . S
H105 C83 0.950 . S
C106 C107 1.443 . S
C106 N110 1.376 . S
C106 C144 1.389 . S
C107 C106 1.443 . S
C107 C108 1.340 . S
C107 H147 0.951 . S
C108 C107 1.340 . S
C108 C109 1.439 . S
C108 H148 0.950 . S
C109 C108 1.439 . S
C109 N110 1.374 . S
C109 C143 1.395 . S
N110 C106 1.376 . S
N110 C109 1.374 . S
N110 Co111 2.008 . S
Co111 N110 2.008 . S
Co111 N112 1.995 . S
Co111 N117 2.008 . S
Co111 N122 1.995 . S
Co111 N127 2.282 . S
Co111 N133 2.282 . S
N112 Co111 1.995 . S
N112 C113 1.376 . S
N112 C116 1.383 . S
C113 N112 1.376 . S
C113 C114 1.446 . S
C113 C143 1.391 . S
C114 C113 1.446 . S
C114 C115 1.339 . S
C114 H149 0.949 . S
C115 C114 1.339 . S
C115 C116 1.439 . S
C115 H150 0.950 . S
C116 N112 1.383 . S
C116 C115 1.439 . S
C116 C145 1.392 . S
N117 Co111 2.008 . S
N117 C118 1.376 . S
N117 C121 1.374 . S
C118 N117 1.376 . S
C118 C119 1.443 . S
C118 C145 1.389 . S
C119 C118 1.443 . S
C119 C120 1.340 . S
C119 H151 0.951 . S
C120 C119 1.340 . S
C120 C121 1.439 . S
C120 H152 0.950 . S
C121 N117 1.374 . S
C121 C120 1.439 . S
C121 C146 1.395 . S
N122 Co111 1.995 . S
N122 C123 1.376 . S
N122 C126 1.383 . S
C123 N122 1.376 . S
C123 C124 1.446 . S
C123 C146 1.391 . S
C124 C123 1.446 . S
C124 C125 1.339 . S
C124 H153 0.949 . S
C125 C124 1.339 . S
C125 C126 1.439 . S
C125 H154 0.950 . S
C126 N122 1.383 . S
C126 C125 1.439 . S
C126 C144 1.392 . S
N127 Co111 2.282 . S
N127 C130 1.332 . S
N127 C132 1.332 . S
C128 C129 1.386 . S
C128 C131 1.388 . S
C129 C128 1.386 . S
C129 C130 1.382 . S
C129 H155 0.950 . S
C130 N127 1.332 . S
C130 C129 1.382 . S
C130 H141 0.952 . S
C131 C128 1.388 . S
C131 C132 1.382 . S
C131 H156 0.950 . S
C132 N127 1.332 . S
C132 C131 1.382 . S
C132 H142 0.948 . S
N133 Co111 2.282 . S
N133 C137 1.332 . S
N133 C138 1.332 . S
C134 C135 1.388 . S
C134 C138 1.382 . S
C134 H157 0.950 . S
C135 C134 1.388 . S
C135 C136 1.386 . S
C136 C135 1.386 . S
C136 C137 1.382 . S
C136 H158 0.950 . S
C137 N133 1.332 . S
C137 C136 1.382 . S
C137 H139 0.952 . S
C138 N133 1.332 . S
C138 C134 1.382 . S
C138 H140 0.948 . S
H139 C137 0.952 . S
H140 C138 0.948 . S
H141 C130 0.952 . S
H142 C132 0.948 . S
C143 C109 1.395 . S
C143 C113 1.391 . S
C144 C106 1.389 . S
C144 C126 1.392 . S
C145 C116 1.392 . S
C145 C118 1.389 . S
C146 C121 1.395 . S
C146 C123 1.391 . S
H147 C107 0.951 . S
H148 C108 0.950 . S
H149 C114 0.949 . S
H150 C115 0.950 . S
H151 C119 0.951 . S
H152 C120 0.950 . S
H153 C124 0.949 . S
H154 C125 0.950 . S
H155 C129 0.950 . S
H156 C131 0.950 . S
H157 C134 0.950 . S
H158 C136 0.950 . S
C159 C160 1.443 . S
C159 N163 1.376 . S
C159 C197 1.389 . S
C160 C159 1.443 . S
C160 C161 1.340 . S
C160 H200 0.951 . S
C161 C160 1.340 . S
C161 C162 1.439 . S
C161 H201 0.950 . S
C162 C161 1.439 . S
C162 N163 1.374 . S
C162 C196 1.395 . S
N163 C159 1.376 . S
N163 C162 1.374 . S
N163 Co164 2.008 . S
Co164 N163 2.008 . S
Co164 N165 1.995 . S
Co164 N170 2.008 . S
Co164 N175 1.995 . S
Co164 N180 2.282 . S
Co164 N186 2.282 . S
N165 Co164 1.995 . S
N165 C166 1.376 . S
N165 C169 1.383 . S
C166 N165 1.376 . S
C166 C167 1.446 . S
C166 C196 1.391 . S
C167 C166 1.446 . S
C167 C168 1.339 . S
C167 H202 0.949 . S
C168 C167 1.339 . S
C168 C169 1.439 . S
C168 H203 0.950 . S
C169 N165 1.383 . S
C169 C168 1.439 . S
C169 C198 1.392 . S
N170 Co164 2.008 . S
N170 C171 1.376 . S
N170 C174 1.374 . S
C171 N170 1.376 . S
C171 C172 1.443 . S
C171 C198 1.389 . S
C172 C171 1.443 . S
C172 C173 1.340 . S
C172 H204 0.951 . S
C173 C172 1.340 . S
C173 C174 1.439 . S
C173 H205 0.950 . S
C174 N170 1.374 . S
C174 C173 1.439 . S
C174 C199 1.395 . S
N175 Co164 1.995 . S
N175 C176 1.376 . S
N175 C179 1.383 . S
C176 N175 1.376 . S
C176 C177 1.446 . S
C176 C199 1.391 . S
C177 C176 1.446 . S
C177 C178 1.339 . S
C177 H206 0.949 . S
C178 C177 1.339 . S
C178 C179 1.439 . S
C178 H207 0.950 . S
C179 N175 1.383 . S
C179 C178 1.439 . S
C179 C197 1.392 . S
N180 Co164 2.282 . S
N180 C183 1.332 . S
N180 C185 1.332 . S
C181 C182 1.386 . S
C181 C184 1.388 . S
C182 C181 1.386 . S
C182 C183 1.382 . S
C182 H208 0.950 . S
C183 N180 1.332 . S
C183 C182 1.382 . S
C183 H194 0.952 . S
C184 C181 1.388 . S
C184 C185 1.382 . S
C184 H209 0.950 . S
C185 N180 1.332 . S
C185 C184 1.382 . S
C185 H195 0.948 . S
N186 Co164 2.282 . S
N186 C190 1.332 . S
N186 C191 1.332 . S
C187 C188 1.388 . S
C187 C191 1.382 . S
C187 H210 0.950 . S
C188 C187 1.388 . S
C188 C189 1.386 . S
C189 C188 1.386 . S
C189 C190 1.382 . S
C189 H211 0.950 . S
C190 N186 1.332 . S
C190 C189 1.382 . S
C190 H192 0.952 . S
C191 N186 1.332 . S
C191 C187 1.382 . S
C191 H193 0.948 . S
H192 C190 0.952 . S
H193 C191 0.948 . S
H194 C183 0.952 . S
H195 C185 0.948 . S
C196 C162 1.395 . S
C196 C166 1.391 . S
C197 C159 1.389 . S
C197 C179 1.392 . S
C198 C169 1.392 . S
C198 C171 1.389 . S
C199 C174 1.395 . S
C199 C176 1.391 . S
H200 C160 0.951 . S
H201 C161 0.950 . S
H202 C167 0.949 . S
H203 C168 0.950 . S
H204 C172 0.951 . S
H205 C173 0.950 . S
H206 C177 0.949 . S
H207 C178 0.950 . S
H208 C182 0.950 . S
H209 C184 0.950 . S
H210 C187 0.950 . S
H211 C189 0.950 . S
C212 C213 1.443 . S
C212 N216 1.376 . S
C212 C250 1.389 . S
C213 C212 1.443 . S
C213 C214 1.340 . S
C213 H253 0.951 . S
C214 C213 1.340 . S
C214 C215 1.439 . S
C214 H254 0.950 . S
C215 C214 1.439 . S
C215 N216 1.374 . S
C215 C249 1.395 . S
N216 C212 1.376 . S
N216 C215 1.374 . S
N216 Co217 2.008 . S
Co217 N216 2.008 . S
Co217 N218 1.995 . S
Co217 N223 2.008 . S
Co217 N228 1.995 . S
Co217 N233 2.282 . S
Co217 N239 2.282 . S
N218 Co217 1.995 . S
N218 C219 1.376 . S
N218 C222 1.383 . S
C219 N218 1.376 . S
C219 C220 1.446 . S
C219 C249 1.391 . S
C220 C219 1.446 . S
C220 C221 1.339 . S
C220 H255 0.949 . S
C221 C220 1.339 . S
C221 C222 1.439 . S
C221 H256 0.950 . S
C222 N218 1.383 . S
C222 C221 1.439 . S
C222 C251 1.392 . S
N223 Co217 2.008 . S
N223 C224 1.376 . S
N223 C227 1.374 . S
C224 N223 1.376 . S
C224 C225 1.443 . S
C224 C251 1.389 . S
C225 C224 1.443 . S
C225 C226 1.340 . S
C225 H257 0.951 . S
C226 C225 1.340 . S
C226 C227 1.439 . S
C226 H258 0.950 . S
C227 N223 1.374 . S
C227 C226 1.439 . S
C227 C252 1.395 . S
N228 Co217 1.995 . S
N228 C229 1.376 . S
N228 C232 1.383 . S
C229 N228 1.376 . S
C229 C230 1.446 . S
C229 C252 1.391 . S
C230 C229 1.446 . S
C230 C231 1.339 . S
C230 H259 0.949 . S
C231 C230 1.339 . S
C231 C232 1.439 . S
C231 H260 0.950 . S
C232 N228 1.383 . S
C232 C231 1.439 . S
C232 C250 1.392 . S
N233 Co217 2.282 . S
N233 C236 1.332 . S
N233 C238 1.332 . S
C234 C235 1.386 . S
C234 C237 1.388 . S
C235 C234 1.386 . S
C235 C236 1.382 . S
C235 H261 0.950 . S
C236 N233 1.332 . S
C236 C235 1.382 . S
C236 H247 0.952 . S
C237 C234 1.388 . S
C237 C238 1.382 . S
C237 H262 0.950 . S
C238 N233 1.332 . S
C238 C237 1.382 . S
C238 H248 0.948 . S
N239 Co217 2.282 . S
N239 C243 1.332 . S
N239 C244 1.332 . S
C240 C241 1.388 . S
C240 C244 1.382 . S
C240 H263 0.950 . S
C241 C240 1.388 . S
C241 C242 1.386 . S
C242 C241 1.386 . S
C242 C243 1.382 . S
C242 H264 0.950 . S
C243 N239 1.332 . S
C243 C242 1.382 . S
C243 H245 0.952 . S
C244 N239 1.332 . S
C244 C240 1.382 . S
C244 H246 0.948 . S
H245 C243 0.952 . S
H246 C244 0.948 . S
H247 C236 0.952 . S
H248 C238 0.948 . S
C249 C215 1.395 . S
C249 C219 1.391 . S
C250 C212 1.389 . S
C250 C232 1.392 . S
C251 C222 1.392 . S
C251 C224 1.389 . S
C252 C227 1.395 . S
C252 C229 1.391 . S
H253 C213 0.951 . S
H254 C214 0.950 . S
H255 C220 0.949 . S
H256 C221 0.950 . S
H257 C225 0.951 . S
H258 C226 0.950 . S
H259 C230 0.949 . S
H260 C231 0.950 . S
H261 C235 0.950 . S
H262 C237 0.950 . S
H263 C240 0.950 . S
H264 C242 0.950 . S
C265 C266 1.443 . S
C265 N269 1.376 . S
C265 C303 1.389 . S
C266 C265 1.443 . S
C266 C267 1.340 . S
C266 H306 0.951 . S
C267 C266 1.340 . S
C267 C268 1.439 . S
C267 H307 0.950 . S
C268 C267 1.439 . S
C268 N269 1.374 . S
C268 C302 1.395 . S
N269 C265 1.376 . S
N269 C268 1.374 . S
N269 Co270 2.008 . S
Co270 N269 2.008 . S
Co270 N271 1.995 . S
Co270 N276 2.008 . S
Co270 N281 1.995 . S
Co270 N286 2.282 . S
Co270 N292 2.282 . S
N271 Co270 1.995 . S
N271 C272 1.376 . S
N271 C275 1.383 . S
C272 N271 1.376 . S
C272 C273 1.446 . S
C272 C302 1.391 . S
C273 C272 1.446 . S
C273 C274 1.339 . S
C273 H308 0.949 . S
C274 C273 1.339 . S
C274 C275 1.439 . S
C274 H309 0.950 . S
C275 N271 1.383 . S
C275 C274 1.439 . S
C275 C304 1.392 . S
N276 Co270 2.008 . S
N276 C277 1.376 . S
N276 C280 1.374 . S
C277 N276 1.376 . S
C277 C278 1.443 . S
C277 C304 1.389 . S
C278 C277 1.443 . S
C278 C279 1.340 . S
C278 H310 0.951 . S
C279 C278 1.340 . S
C279 C280 1.439 . S
C279 H311 0.950 . S
C280 N276 1.374 . S
C280 C279 1.439 . S
C280 C305 1.395 . S
N281 Co270 1.995 . S
N281 C282 1.376 . S
N281 C285 1.383 . S
C282 N281 1.376 . S
C282 C283 1.446 . S
C282 C305 1.391 . S
C283 C282 1.446 . S
C283 C284 1.339 . S
C283 H312 0.949 . S
C284 C283 1.339 . S
C284 C285 1.439 . S
C284 H313 0.950 . S
C285 N281 1.383 . S
C285 C284 1.439 . S
C285 C303 1.392 . S
N286 Co270 2.282 . S
N286 C289 1.332 . S
N286 C291 1.332 . S
C287 C288 1.386 . S
C287 C290 1.388 . S
C288 C287 1.386 . S
C288 C289 1.382 . S
C288 H314 0.950 . S
C289 N286 1.332 . S
C289 C288 1.382 . S
C289 H300 0.952 . S
C290 C287 1.388 . S
C290 C291 1.382 . S
C290 H315 0.950 . S
C291 N286 1.332 . S
C291 C290 1.382 . S
C291 H301 0.948 . S
N292 Co270 2.282 . S
N292 C296 1.332 . S
N292 C297 1.332 . S
C293 C294 1.388 . S
C293 C297 1.382 . S
C293 H316 0.950 . S
C294 C293 1.388 . S
C294 C295 1.386 . S
C295 C294 1.386 . S
C295 C296 1.382 . S
C295 H317 0.950 . S
C296 N292 1.332 . S
C296 C295 1.382 . S
C296 H298 0.952 . S
C297 N292 1.332 . S
C297 C293 1.382 . S
C297 H299 0.948 . S
H298 C296 0.952 . S
H299 C297 0.948 . S
H300 C289 0.952 . S
H301 C291 0.948 . S
C302 C268 1.395 . S
C302 C272 1.391 . S
C303 C265 1.389 . S
C303 C285 1.392 . S
C304 C275 1.392 . S
C304 C277 1.389 . S
C305 C280 1.395 . S
C305 C282 1.391 . S
H306 C266 0.951 . S
H307 C267 0.950 . S
H308 C273 0.949 . S
H309 C274 0.950 . S
H310 C278 0.951 . S
H311 C279 0.950 . S
H312 C283 0.949 . S
H313 C284 0.950 . S
H314 C288 0.950 . S
H315 C290 0.950 . S
H316 C293 0.950 . S
H317 C295 0.950 . S
C318 C319 1.443 . S
C318 N322 1.376 . S
C318 C356 1.389 . S
C319 C318 1.443 . S
C319 C320 1.340 . S
C319 H359 0.951 . S
C320 C319 1.340 . S
C320 C321 1.439 . S
C320 H360 0.950 . S
C321 C320 1.439 . S
C321 N322 1.374 . S
C321 C355 1.395 . S
N322 C318 1.376 . S
N322 C321 1.374 . S
N322 Co323 2.008 . S
Co323 N322 2.008 . S
Co323 N324 1.995 . S
Co323 N329 2.008 . S
Co323 N334 1.995 . S
Co323 N339 2.282 . S
Co323 N345 2.282 . S
N324 Co323 1.995 . S
N324 C325 1.376 . S
N324 C328 1.383 . S
C325 N324 1.376 . S
C325 C326 1.446 . S
C325 C355 1.391 . S
C326 C325 1.446 . S
C326 C327 1.339 . S
C326 H361 0.949 . S
C327 C326 1.339 . S
C327 C328 1.439 . S
C327 H362 0.950 . S
C328 N324 1.383 . S
C328 C327 1.439 . S
C328 C357 1.392 . S
N329 Co323 2.008 . S
N329 C330 1.376 . S
N329 C333 1.374 . S
C330 N329 1.376 . S
C330 C331 1.443 . S
C330 C357 1.389 . S
C331 C330 1.443 . S
C331 C332 1.340 . S
C331 H363 0.951 . S
C332 C331 1.340 . S
C332 C333 1.439 . S
C332 H364 0.950 . S
C333 N329 1.374 . S
C333 C332 1.439 . S
C333 C358 1.395 . S
N334 Co323 1.995 . S
N334 C335 1.376 . S
N334 C338 1.383 . S
C335 N334 1.376 . S
C335 C336 1.446 . S
C335 C358 1.391 . S
C336 C335 1.446 . S
C336 C337 1.339 . S
C336 H365 0.949 . S
C337 C336 1.339 . S
C337 C338 1.439 . S
C337 H366 0.950 . S
C338 N334 1.383 . S
C338 C337 1.439 . S
C338 C356 1.392 . S
N339 Co323 2.282 . S
N339 C342 1.332 . S
N339 C344 1.332 . S
C340 C341 1.386 . S
C340 C343 1.388 . S
C341 C340 1.386 . S
C341 C342 1.382 . S
C341 H367 0.950 . S
C342 N339 1.332 . S
C342 C341 1.382 . S
C342 H353 0.952 . S
C343 C340 1.388 . S
C343 C344 1.382 . S
C343 H368 0.950 . S
C344 N339 1.332 . S
C344 C343 1.382 . S
C344 H354 0.948 . S
N345 Co323 2.282 . S
N345 C349 1.332 . S
N345 C350 1.332 . S
C346 C347 1.388 . S
C346 C350 1.382 . S
C346 H369 0.950 . S
C347 C346 1.388 . S
C347 C348 1.386 . S
C348 C347 1.386 . S
C348 C349 1.382 . S
C348 H370 0.950 . S
C349 N345 1.332 . S
C349 C348 1.382 . S
C349 H351 0.952 . S
C350 N345 1.332 . S
C350 C346 1.382 . S
C350 H352 0.948 . S
H351 C349 0.952 . S
H352 C350 0.948 . S
H353 C342 0.952 . S
H354 C344 0.948 . S
C355 C321 1.395 . S
C355 C325 1.391 . S
C356 C318 1.389 . S
C356 C338 1.392 . S
C357 C328 1.392 . S
C357 C330 1.389 . S
C358 C333 1.395 . S
C358 C335 1.391 . S
H359 C319 0.951 . S
H360 C320 0.950 . S
H361 C326 0.949 . S
H362 C327 0.950 . S
H363 C331 0.951 . S
H364 C332 0.950 . S
H365 C336 0.949 . S
H366 C337 0.950 . S
H367 C341 0.950 . S
H368 C343 0.950 . S
H369 C346 0.950 . S
H370 C348 0.950 . S
C371 C372 1.443 . S
C371 N375 1.376 . S
C371 C409 1.389 . S
C372 C371 1.443 . S
C372 C373 1.340 . S
C372 H412 0.951 . S
C373 C372 1.340 . S
C373 C374 1.439 . S
C373 H413 0.950 . S
C374 C373 1.439 . S
C374 N375 1.374 . S
C374 C408 1.395 . S
N375 C371 1.376 . S
N375 C374 1.374 . S
N375 Co376 2.008 . S
Co376 N375 2.008 . S
Co376 N377 1.995 . S
Co376 N382 2.008 . S
Co376 N387 1.995 . S
Co376 N392 2.282 . S
Co376 N398 2.282 . S
N377 Co376 1.995 . S
N377 C378 1.376 . S
N377 C381 1.383 . S
C378 N377 1.376 . S
C378 C379 1.446 . S
C378 C408 1.391 . S
C379 C378 1.446 . S
C379 C380 1.339 . S
C379 H414 0.949 . S
C380 C379 1.339 . S
C380 C381 1.439 . S
C380 H415 0.950 . S
C381 N377 1.383 . S
C381 C380 1.439 . S
C381 C410 1.392 . S
N382 Co376 2.008 . S
N382 C383 1.376 . S
N382 C386 1.374 . S
C383 N382 1.376 . S
C383 C384 1.443 . S
C383 C410 1.389 . S
C384 C383 1.443 . S
C384 C385 1.340 . S
C384 H416 0.951 . S
C385 C384 1.340 . S
C385 C386 1.439 . S
C385 H417 0.950 . S
C386 N382 1.374 . S
C386 C385 1.439 . S
C386 C411 1.395 . S
N387 Co376 1.995 . S
N387 C388 1.376 . S
N387 C391 1.383 . S
C388 N387 1.376 . S
C388 C389 1.446 . S
C388 C411 1.391 . S
C389 C388 1.446 . S
C389 C390 1.339 . S
C389 H418 0.949 . S
C390 C389 1.339 . S
C390 C391 1.439 . S
C390 H419 0.950 . S
C391 N387 1.383 . S
C391 C390 1.439 . S
C391 C409 1.392 . S
N392 Co376 2.282 . S
N392 C395 1.332 . S
N392 C397 1.332 . S
C393 C394 1.386 . S
C393 C396 1.388 . S
C394 C393 1.386 . S
C394 C395 1.382 . S
C394 H420 0.950 . S
C395 N392 1.332 . S
C395 C394 1.382 . S
C395 H406 0.952 . S
C396 C393 1.388 . S
C396 C397 1.382 . S
C396 H421 0.950 . S
C397 N392 1.332 . S
C397 C396 1.382 . S
C397 H407 0.948 . S
N398 Co376 2.282 . S
N398 C402 1.332 . S
N398 C403 1.332 . S
C399 C400 1.388 . S
C399 C403 1.382 . S
C399 H422 0.950 . S
C400 C399 1.388 . S
C400 C401 1.386 . S
C401 C400 1.386 . S
C401 C402 1.382 . S
C401 H423 0.950 . S
C402 N398 1.332 . S
C402 C401 1.382 . S
C402 H404 0.952 . S
C403 N398 1.332 . S
C403 C399 1.382 . S
C403 H405 0.948 . S
H404 C402 0.952 . S
H405 C403 0.948 . S
H406 C395 0.952 . S
H407 C397 0.948 . S
C408 C374 1.395 . S
C408 C378 1.391 . S
C409 C371 1.389 . S
C409 C391 1.392 . S
C410 C381 1.392 . S
C410 C383 1.389 . S
C411 C386 1.395 . S
C411 C388 1.391 . S
H412 C372 0.951 . S
H413 C373 0.950 . S
H414 C379 0.949 . S
H415 C380 0.950 . S
H416 C384 0.951 . S
H417 C385 0.950 . S
H418 C389 0.949 . S
H419 C390 0.950 . S
H420 C394 0.950 . S
H421 C396 0.950 . S
H422 C399 0.950 . S
H423 C401 0.950 . S
C424 C425 1.443 . S
C424 N428 1.376 . S
C424 C462 1.389 . S
C425 C424 1.443 . S
C425 C426 1.340 . S
C425 H465 0.951 . S
C426 C425 1.340 . S
C426 C427 1.439 . S
C426 H466 0.950 . S
C427 C426 1.439 . S
C427 N428 1.374 . S
C427 C461 1.395 . S
N428 C424 1.376 . S
N428 C427 1.374 . S
N428 Co429 2.008 . S
Co429 N428 2.008 . S
Co429 N430 1.995 . S
Co429 N435 2.008 . S
Co429 N440 1.995 . S
Co429 N445 2.282 . S
Co429 N451 2.282 . S
N430 Co429 1.995 . S
N430 C431 1.376 . S
N430 C434 1.383 . S
C431 N430 1.376 . S
C431 C432 1.446 . S
C431 C461 1.391 . S
C432 C431 1.446 . S
C432 C433 1.339 . S
C432 H467 0.949 . S
C433 C432 1.339 . S
C433 C434 1.439 . S
C433 H468 0.950 . S
C434 N430 1.383 . S
C434 C433 1.439 . S
C434 C463 1.392 . S
N435 Co429 2.008 . S
N435 C436 1.376 . S
N435 C439 1.374 . S
C436 N435 1.376 . S
C436 C437 1.443 . S
C436 C463 1.389 . S
C437 C436 1.443 . S
C437 C438 1.340 . S
C437 H469 0.951 . S
C438 C437 1.340 . S
C438 C439 1.439 . S
C438 H470 0.950 . S
C439 N435 1.374 . S
C439 C438 1.439 . S
C439 C464 1.395 . S
N440 Co429 1.995 . S
N440 C441 1.376 . S
N440 C444 1.383 . S
C441 N440 1.376 . S
C441 C442 1.446 . S
C441 C464 1.391 . S
C442 C441 1.446 . S
C442 C443 1.339 . S
C442 H471 0.949 . S
C443 C442 1.339 . S
C443 C444 1.439 . S
C443 H472 0.950 . S
C444 N440 1.383 . S
C444 C443 1.439 . S
C444 C462 1.392 . S
N445 Co429 2.282 . S
N445 C448 1.332 . S
N445 C450 1.332 . S
C446 C447 1.386 . S
C446 C449 1.388 . S
C447 C446 1.386 . S
C447 C448 1.382 . S
C447 H473 0.950 . S
C448 N445 1.332 . S
C448 C447 1.382 . S
C448 H459 0.952 . S
C449 C446 1.388 . S
C449 C450 1.382 . S
C449 H474 0.950 . S
C450 N445 1.332 . S
C450 C449 1.382 . S
C450 H460 0.948 . S
N451 Co429 2.282 . S
N451 C455 1.332 . S
N451 C456 1.332 . S
C452 C453 1.388 . S
C452 C456 1.382 . S
C452 H475 0.950 . S
C453 C452 1.388 . S
C453 C454 1.386 . S
C454 C453 1.386 . S
C454 C455 1.382 . S
C454 H476 0.950 . S
C455 N451 1.332 . S
C455 C454 1.382 . S
C455 H457 0.952 . S
C456 N451 1.332 . S
C456 C452 1.382 . S
C456 H458 0.948 . S
H457 C455 0.952 . S
H458 C456 0.948 . S
H459 C448 0.952 . S
H460 C450 0.948 . S
C461 C427 1.395 . S
C461 C431 1.391 . S
C462 C424 1.389 . S
C462 C444 1.392 . S
C463 C434 1.392 . S
C463 C436 1.389 . S
C464 C439 1.395 . S
C464 C441 1.391 . S
H465 C425 0.951 . S
H466 C426 0.950 . S
H467 C432 0.949 . S
H468 C433 0.950 . S
H469 C437 0.951 . S
H470 C438 0.950 . S
H471 C442 0.949 . S
H472 C443 0.950 . S
H473 C447 0.950 . S
H474 C449 0.950 . S
H475 C452 0.950 . S
H476 C454 0.950 . S
C477 C478 1.443 . S
C477 N481 1.376 . S
C477 C515 1.389 . S
C478 C477 1.443 . S
C478 C479 1.340 . S
C478 H518 0.951 . S
C479 C478 1.340 . S
C479 C480 1.439 . S
C479 H519 0.950 . S
C480 C479 1.439 . S
C480 N481 1.374 . S
C480 C514 1.395 . S
N481 C477 1.376 . S
N481 C480 1.374 . S
N481 Co482 2.008 . S
Co482 N481 2.008 . S
Co482 N483 1.995 . S
Co482 N488 2.008 . S
Co482 N493 1.995 . S
Co482 N498 2.282 . S
Co482 N504 2.282 . S
N483 Co482 1.995 . S
N483 C484 1.376 . S
N483 C487 1.383 . S
C484 N483 1.376 . S
C484 C485 1.446 . S
C484 C514 1.391 . S
C485 C484 1.446 . S
C485 C486 1.339 . S
C485 H520 0.949 . S
C486 C485 1.339 . S
C486 C487 1.439 . S
C486 H521 0.950 . S
C487 N483 1.383 . S
C487 C486 1.439 . S
C487 C516 1.392 . S
N488 Co482 2.008 . S
N488 C489 1.376 . S
N488 C492 1.374 . S
C489 N488 1.376 . S
C489 C490 1.443 . S
C489 C516 1.389 . S
C490 C489 1.443 . S
C490 C491 1.340 . S
C490 H522 0.951 . S
C491 C490 1.340 . S
C491 C492 1.439 . S
C491 H523 0.950 . S
C492 N488 1.374 . S
C492 C491 1.439 . S
C492 C517 1.395 . S
N493 Co482 1.995 . S
N493 C494 1.376 . S
N493 C497 1.383 . S
C494 N493 1.376 . S
C494 C495 1.446 . S
C494 C517 1.391 . S
C495 C494 1.446 . S
C495 C496 1.339 . S
C495 H524 0.949 . S
C496 C495 1.339 . S
C496 C497 1.439 . S
C496 H525 0.950 . S
C497 N493 1.383 . S
C497 C496 1.439 . S
C497 C515 1.392 . S
N498 Co482 2.282 . S
N498 C501 1.332 . S
N498 C503 1.332 . S
C499 C500 1.386 . S
C499 C502 1.388 . S
C500 C499 1.386 . S
C500 C501 1.382 . S
C500 H526 0.950 . S
C501 N498 1.332 . S
C501 C500 1.382 . S
C501 H512 0.952 . S
C502 C499 1.388 . S
C502 C503 1.382 . S
C502 H527 0.950 . S
C503 N498 1.332 . S
C503 C502 1.382 . S
C503 H513 0.948 . S
N504 Co482 2.282 . S
N504 C508 1.332 . S
N504 C509 1.332 . S
C505 C506 1.388 . S
C505 C509 1.382 . S
C505 H528 0.950 . S
C506 C505 1.388 . S
C506 C507 1.386 . S
C507 C506 1.386 . S
C507 C508 1.382 . S
C507 H529 0.950 . S
C508 N504 1.332 . S
C508 C507 1.382 . S
C508 H510 0.952 . S
C509 N504 1.332 . S
C509 C505 1.382 . S
C509 H511 0.948 . S
H510 C508 0.952 . S
H511 C509 0.948 . S
H512 C501 0.952 . S
H513 C503 0.948 . S
C514 C480 1.395 . S
C514 C484 1.391 . S
C515 C477 1.389 . S
C515 C497 1.392 . S
C516 C487 1.392 . S
C516 C489 1.389 . S
C517 C492 1.395 . S
C517 C494 1.391 . S
H518 C478 0.951 . S
H519 C479 0.950 . S
H520 C485 0.949 . S
H521 C486 0.950 . S
H522 C490 0.951 . S
H523 C491 0.950 . S
H524 C495 0.949 . S
H525 C496 0.950 . S
H526 C500 0.950 . S
H527 C502 0.950 . S
H528 C505 0.950 . S
H529 C507 0.950 . S
C530 C531 1.443 . S
C530 N534 1.376 . S
C530 C568 1.389 . S
C531 C530 1.443 . S
C531 C532 1.340 . S
C531 H571 0.951 . S
C532 C531 1.340 . S
C532 C533 1.439 . S
C532 H572 0.950 . S
C533 C532 1.439 . S
C533 N534 1.374 . S
C533 C567 1.395 . S
N534 C530 1.376 . S
N534 C533 1.374 . S
N534 Co535 2.008 . S
Co535 N534 2.008 . S
Co535 N536 1.995 . S
Co535 N541 2.008 . S
Co535 N546 1.995 . S
Co535 N551 2.282 . S
Co535 N557 2.282 . S
N536 Co535 1.995 . S
N536 C537 1.376 . S
N536 C540 1.383 . S
C537 N536 1.376 . S
C537 C538 1.446 . S
C537 C567 1.391 . S
C538 C537 1.446 . S
C538 C539 1.339 . S
C538 H573 0.949 . S
C539 C538 1.339 . S
C539 C540 1.439 . S
C539 H574 0.950 . S
C540 N536 1.383 . S
C540 C539 1.439 . S
C540 C569 1.392 . S
N541 Co535 2.008 . S
N541 C542 1.376 . S
N541 C545 1.374 . S
C542 N541 1.376 . S
C542 C543 1.443 . S
C542 C569 1.389 . S
C543 C542 1.443 . S
C543 C544 1.340 . S
C543 H575 0.951 . S
C544 C543 1.340 . S
C544 C545 1.439 . S
C544 H576 0.950 . S
C545 N541 1.374 . S
C545 C544 1.439 . S
C545 C570 1.395 . S
N546 Co535 1.995 . S
N546 C547 1.376 . S
N546 C550 1.383 . S
C547 N546 1.376 . S
C547 C548 1.446 . S
C547 C570 1.391 . S
C548 C547 1.446 . S
C548 C549 1.339 . S
C548 H577 0.949 . S
C549 C548 1.339 . S
C549 C550 1.439 . S
C549 H578 0.950 . S
C550 N546 1.383 . S
C550 C549 1.439 . S
C550 C568 1.392 . S
N551 Co535 2.282 . S
N551 C554 1.332 . S
N551 C556 1.332 . S
C552 C553 1.386 . S
C552 C555 1.388 . S
C553 C552 1.386 . S
C553 C554 1.382 . S
C553 H579 0.950 . S
C554 N551 1.332 . S
C554 C553 1.382 . S
C554 H565 0.952 . S
C555 C552 1.388 . S
C555 C556 1.382 . S
C555 H580 0.950 . S
C556 N551 1.332 . S
C556 C555 1.382 . S
C556 H566 0.948 . S
N557 Co535 2.282 . S
N557 C561 1.332 . S
N557 C562 1.332 . S
C558 C559 1.388 . S
C558 C562 1.382 . S
C558 H581 0.950 . S
C559 C558 1.388 . S
C559 C560 1.386 . S
C560 C559 1.386 . S
C560 C561 1.382 . S
C560 H582 0.950 . S
C561 N557 1.332 . S
C561 C560 1.382 . S
C561 H563 0.952 . S
C562 N557 1.332 . S
C562 C558 1.382 . S
C562 H564 0.948 . S
H563 C561 0.952 . S
H564 C562 0.948 . S
H565 C554 0.952 . S
H566 C556 0.948 . S
C567 C533 1.395 . S
C567 C537 1.391 . S
C568 C530 1.389 . S
C568 C550 1.392 . S
C569 C540 1.392 . S
C569 C542 1.389 . S
C570 C545 1.395 . S
C570 C547 1.391 . S
H571 C531 0.951 . S
H572 C532 0.950 . S
H573 C538 0.949 . S
H574 C539 0.950 . S
H575 C543 0.951 . S
H576 C544 0.950 . S
H577 C548 0.949 . S
H578 C549 0.950 . S
H579 C553 0.950 . S
H580 C555 0.950 . S
H581 C558 0.950 . S
H582 C560 0.950 . S
C583 C584 1.443 . S
C583 N587 1.376 . S
C583 C621 1.389 . S
C584 C583 1.443 . S
C584 C585 1.340 . S
C584 H624 0.951 . S
C585 C584 1.340 . S
C585 C586 1.439 . S
C585 H625 0.950 . S
C586 C585 1.439 . S
C586 N587 1.374 . S
C586 C620 1.395 . S
N587 C583 1.376 . S
N587 C586 1.374 . S
N587 Co588 2.008 . S
Co588 N587 2.008 . S
Co588 N589 1.995 . S
Co588 N594 2.008 . S
Co588 N599 1.995 . S
Co588 N604 2.282 . S
Co588 N610 2.282 . S
N589 Co588 1.995 . S
N589 C590 1.376 . S
N589 C593 1.383 . S
C590 N589 1.376 . S
C590 C591 1.446 . S
C590 C620 1.391 . S
C591 C590 1.446 . S
C591 C592 1.339 . S
C591 H626 0.949 . S
C592 C591 1.339 . S
C592 C593 1.439 . S
C592 H627 0.950 . S
C593 N589 1.383 . S
C593 C592 1.439 . S
C593 C622 1.392 . S
N594 Co588 2.008 . S
N594 C595 1.376 . S
N594 C598 1.374 . S
C595 N594 1.376 . S
C595 C596 1.443 . S
C595 C622 1.389 . S
C596 C595 1.443 . S
C596 C597 1.340 . S
C596 H628 0.951 . S
C597 C596 1.340 . S
C597 C598 1.439 . S
C597 H629 0.950 . S
C598 N594 1.374 . S
C598 C597 1.439 . S
C598 C623 1.395 . S
N599 Co588 1.995 . S
N599 C600 1.376 . S
N599 C603 1.383 . S
C600 N599 1.376 . S
C600 C601 1.446 . S
C600 C623 1.391 . S
C601 C600 1.446 . S
C601 C602 1.339 . S
C601 H630 0.949 . S
C602 C601 1.339 . S
C602 C603 1.439 . S
C602 H631 0.950 . S
C603 N599 1.383 . S
C603 C602 1.439 . S
C603 C621 1.392 . S
N604 Co588 2.282 . S
N604 C607 1.332 . S
N604 C609 1.332 . S
C605 C606 1.386 . S
C605 C608 1.388 . S
C606 C605 1.386 . S
C606 C607 1.382 . S
C606 H632 0.950 . S
C607 N604 1.332 . S
C607 C606 1.382 . S
C607 H618 0.952 . S
C608 C605 1.388 . S
C608 C609 1.382 . S
C608 H633 0.950 . S
C609 N604 1.332 . S
C609 C608 1.382 . S
C609 H619 0.948 . S
N610 Co588 2.282 . S
N610 C614 1.332 . S
N610 C615 1.332 . S
C611 C612 1.388 . S
C611 C615 1.382 . S
C611 H634 0.950 . S
C612 C611 1.388 . S
C612 C613 1.386 . S
C613 C612 1.386 . S
C613 C614 1.382 . S
C613 H635 0.950 . S
C614 N610 1.332 . S
C614 C613 1.382 . S
C614 H616 0.952 . S
C615 N610 1.332 . S
C615 C611 1.382 . S
C615 H617 0.948 . S
H616 C614 0.952 . S
H617 C615 0.948 . S
H618 C607 0.952 . S
H619 C609 0.948 . S
C620 C586 1.395 . S
C620 C590 1.391 . S
C621 C583 1.389 . S
C621 C603 1.392 . S
C622 C593 1.392 . S
C622 C595 1.389 . S
C623 C598 1.395 . S
C623 C600 1.391 . S
H624 C584 0.951 . S
H625 C585 0.950 . S
H626 C591 0.949 . S
H627 C592 0.950 . S
H628 C596 0.951 . S
H629 C597 0.950 . S
H630 C601 0.949 . S
H631 C602 0.950 . S
H632 C606 0.950 . S
H633 C608 0.950 . S
H634 C611 0.950 . S
H635 C613 0.950 . S
C636 C637 1.443 . S
C636 N640 1.376 . S
C636 C674 1.389 . S
C637 C636 1.443 . S
C637 C638 1.340 . S
C637 H677 0.951 . S
C638 C637 1.340 . S
C638 C639 1.439 . S
C638 H678 0.950 . S
C639 C638 1.439 . S
C639 N640 1.374 . S
C639 C673 1.395 . S
N640 C636 1.376 . S
N640 C639 1.374 . S
N640 Co641 2.008 . S
Co641 N640 2.008 . S
Co641 N642 1.995 . S
Co641 N647 2.008 . S
Co641 N652 1.995 . S
Co641 N657 2.282 . S
Co641 N663 2.282 . S
N642 Co641 1.995 . S
N642 C643 1.376 . S
N642 C646 1.383 . S
C643 N642 1.376 . S
C643 C644 1.446 . S
C643 C673 1.391 . S
C644 C643 1.446 . S
C644 C645 1.339 . S
C644 H679 0.949 . S
C645 C644 1.339 . S
C645 C646 1.439 . S
C645 H680 0.950 . S
C646 N642 1.383 . S
C646 C645 1.439 . S
C646 C675 1.392 . S
N647 Co641 2.008 . S
N647 C648 1.376 . S
N647 C651 1.374 . S
C648 N647 1.376 . S
C648 C649 1.443 . S
C648 C675 1.389 . S
C649 C648 1.443 . S
C649 C650 1.340 . S
C649 H681 0.951 . S
C650 C649 1.340 . S
C650 C651 1.439 . S
C650 H682 0.950 . S
C651 N647 1.374 . S
C651 C650 1.439 . S
C651 C676 1.395 . S
N652 Co641 1.995 . S
N652 C653 1.376 . S
N652 C656 1.383 . S
C653 N652 1.376 . S
C653 C654 1.446 . S
C653 C676 1.391 . S
C654 C653 1.446 . S
C654 C655 1.339 . S
C654 H683 0.949 . S
C655 C654 1.339 . S
C655 C656 1.439 . S
C655 H684 0.950 . S
C656 N652 1.383 . S
C656 C655 1.439 . S
C656 C674 1.392 . S
N657 Co641 2.282 . S
N657 C660 1.332 . S
N657 C662 1.332 . S
C658 C659 1.386 . S
C658 C661 1.388 . S
C659 C658 1.386 . S
C659 C660 1.382 . S
C659 H685 0.950 . S
C660 N657 1.332 . S
C660 C659 1.382 . S
C660 H671 0.952 . S
C661 C658 1.388 . S
C661 C662 1.382 . S
C661 H686 0.950 . S
C662 N657 1.332 . S
C662 C661 1.382 . S
C662 H672 0.948 . S
N663 Co641 2.282 . S
N663 C667 1.332 . S
N663 C668 1.332 . S
C664 C665 1.388 . S
C664 C668 1.382 . S
C664 H687 0.950 . S
C665 C664 1.388 . S
C665 C666 1.386 . S
C666 C665 1.386 . S
C666 C667 1.382 . S
C666 H688 0.950 . S
C667 N663 1.332 . S
C667 C666 1.382 . S
C667 H669 0.952 . S
C668 N663 1.332 . S
C668 C664 1.382 . S
C668 H670 0.948 . S
H669 C667 0.952 . S
H670 C668 0.948 . S
H671 C660 0.952 . S
H672 C662 0.948 . S
C673 C639 1.395 . S
C673 C643 1.391 . S
C674 C636 1.389 . S
C674 C656 1.392 . S
C675 C646 1.392 . S
C675 C648 1.389 . S
C676 C651 1.395 . S
C676 C653 1.391 . S
H677 C637 0.951 . S
H678 C638 0.950 . S
H679 C644 0.949 . S
H680 C645 0.950 . S
H681 C649 0.951 . S
H682 C650 0.950 . S
H683 C654 0.949 . S
H684 C655 0.950 . S
H685 C659 0.950 . S
H686 C661 0.950 . S
H687 C664 0.950 . S
H688 C666 0.950 . S
C689 C690 1.443 . S
C689 N693 1.376 . S
C689 C727 1.389 . S
C690 C689 1.443 . S
C690 C691 1.340 . S
C690 H730 0.951 . S
C691 C690 1.340 . S
C691 C692 1.439 . S
C691 H731 0.950 . S
C692 C691 1.439 . S
C692 N693 1.374 . S
C692 C726 1.395 . S
N693 C689 1.376 . S
N693 C692 1.374 . S
N693 Co694 2.008 . S
Co694 N693 2.008 . S
Co694 N695 1.995 . S
Co694 N700 2.008 . S
Co694 N705 1.995 . S
Co694 N710 2.282 . S
Co694 N716 2.282 . S
N695 Co694 1.995 . S
N695 C696 1.376 . S
N695 C699 1.383 . S
C696 N695 1.376 . S
C696 C697 1.446 . S
C696 C726 1.391 . S
C697 C696 1.446 . S
C697 C698 1.339 . S
C697 H732 0.949 . S
C698 C697 1.339 . S
C698 C699 1.439 . S
C698 H733 0.950 . S
C699 N695 1.383 . S
C699 C698 1.439 . S
C699 C728 1.392 . S
N700 Co694 2.008 . S
N700 C701 1.376 . S
N700 C704 1.374 . S
C701 N700 1.376 . S
C701 C702 1.443 . S
C701 C728 1.389 . S
C702 C701 1.443 . S
C702 C703 1.340 . S
C702 H734 0.951 . S
C703 C702 1.340 . S
C703 C704 1.439 . S
C703 H735 0.950 . S
C704 N700 1.374 . S
C704 C703 1.439 . S
C704 C729 1.395 . S
N705 Co694 1.995 . S
N705 C706 1.376 . S
N705 C709 1.383 . S
C706 N705 1.376 . S
C706 C707 1.446 . S
C706 C729 1.391 . S
C707 C706 1.446 . S
C707 C708 1.339 . S
C707 H736 0.949 . S
C708 C707 1.339 . S
C708 C709 1.439 . S
C708 H737 0.950 . S
C709 N705 1.383 . S
C709 C708 1.439 . S
C709 C727 1.392 . S
N710 Co694 2.282 . S
N710 C713 1.332 . S
N710 C715 1.332 . S
C711 C712 1.386 . S
C711 C714 1.388 . S
C712 C711 1.386 . S
C712 C713 1.382 . S
C712 H738 0.950 . S
C713 N710 1.332 . S
C713 C712 1.382 . S
C713 H724 0.952 . S
C714 C711 1.388 . S
C714 C715 1.382 . S
C714 H739 0.950 . S
C715 N710 1.332 . S
C715 C714 1.382 . S
C715 H725 0.948 . S
N716 Co694 2.282 . S
N716 C720 1.332 . S
N716 C721 1.332 . S
C717 C718 1.388 . S
C717 C721 1.382 . S
C717 H740 0.950 . S
C718 C717 1.388 . S
C718 C719 1.386 . S
C719 C718 1.386 . S
C719 C720 1.382 . S
C719 H741 0.950 . S
C720 N716 1.332 . S
C720 C719 1.382 . S
C720 H722 0.952 . S
C721 N716 1.332 . S
C721 C717 1.382 . S
C721 H723 0.948 . S
H722 C720 0.952 . S
H723 C721 0.948 . S
H724 C713 0.952 . S
H725 C715 0.948 . S
C726 C692 1.395 . S
C726 C696 1.391 . S
C727 C689 1.389 . S
C727 C709 1.392 . S
C728 C699 1.392 . S
C728 C701 1.389 . S
C729 C704 1.395 . S
C729 C706 1.391 . S
H730 C690 0.951 . S
H731 C691 0.950 . S
H732 C697 0.949 . S
H733 C698 0.950 . S
H734 C702 0.951 . S
H735 C703 0.950 . S
H736 C707 0.949 . S
H737 C708 0.950 . S
H738 C712 0.950 . S
H739 C714 0.950 . S
H740 C717 0.950 . S
H741 C719 0.950 . S
C742 C743 1.443 . S
C742 N746 1.376 . S
C742 C780 1.389 . S
C743 C742 1.443 . S
C743 C744 1.340 . S
C743 H783 0.951 . S
C744 C743 1.340 . S
C744 C745 1.439 . S
C744 H784 0.950 . S
C745 C744 1.439 . S
C745 N746 1.374 . S
C745 C779 1.395 . S
N746 C742 1.376 . S
N746 C745 1.374 . S
N746 Co747 2.008 . S
Co747 N746 2.008 . S
Co747 N748 1.995 . S
Co747 N753 2.008 . S
Co747 N758 1.995 . S
Co747 N763 2.282 . S
Co747 N769 2.282 . S
N748 Co747 1.995 . S
N748 C749 1.376 . S
N748 C752 1.383 . S
C749 N748 1.376 . S
C749 C750 1.446 . S
C749 C779 1.391 . S
C750 C749 1.446 . S
C750 C751 1.339 . S
C750 H785 0.949 . S
C751 C750 1.339 . S
C751 C752 1.439 . S
C751 H786 0.950 . S
C752 N748 1.383 . S
C752 C751 1.439 . S
C752 C781 1.392 . S
N753 Co747 2.008 . S
N753 C754 1.376 . S
N753 C757 1.374 . S
C754 N753 1.376 . S
C754 C755 1.443 . S
C754 C781 1.389 . S
C755 C754 1.443 . S
C755 C756 1.340 . S
C755 H787 0.951 . S
C756 C755 1.340 . S
C756 C757 1.439 . S
C756 H788 0.950 . S
C757 N753 1.374 . S
C757 C756 1.439 . S
C757 C782 1.395 . S
N758 Co747 1.995 . S
N758 C759 1.376 . S
N758 C762 1.383 . S
C759 N758 1.376 . S
C759 C760 1.446 . S
C759 C782 1.391 . S
C760 C759 1.446 . S
C760 C761 1.339 . S
C760 H789 0.949 . S
C761 C760 1.339 . S
C761 C762 1.439 . S
C761 H790 0.950 . S
C762 N758 1.383 . S
C762 C761 1.439 . S
C762 C780 1.392 . S
N763 Co747 2.282 . S
N763 C766 1.332 . S
N763 C768 1.332 . S
C764 C765 1.386 . S
C764 C767 1.388 . S
C765 C764 1.386 . S
C765 C766 1.382 . S
C765 H791 0.950 . S
C766 N763 1.332 . S
C766 C765 1.382 . S
C766 H777 0.952 . S
C767 C764 1.388 . S
C767 C768 1.382 . S
C767 H792 0.950 . S
C768 N763 1.332 . S
C768 C767 1.382 . S
C768 H778 0.948 . S
N769 Co747 2.282 . S
N769 C773 1.332 . S
N769 C774 1.332 . S
C770 C771 1.388 . S
C770 C774 1.382 . S
C770 H793 0.950 . S
C771 C770 1.388 . S
C771 C772 1.386 . S
C772 C771 1.386 . S
C772 C773 1.382 . S
C772 H794 0.950 . S
C773 N769 1.332 . S
C773 C772 1.382 . S
C773 H775 0.952 . S
C774 N769 1.332 . S
C774 C770 1.382 . S
C774 H776 0.948 . S
H775 C773 0.952 . S
H776 C774 0.948 . S
H777 C766 0.952 . S
H778 C768 0.948 . S
C779 C745 1.395 . S
C779 C749 1.391 . S
C780 C742 1.389 . S
C780 C762 1.392 . S
C781 C752 1.392 . S
C781 C754 1.389 . S
C782 C757 1.395 . S
C782 C759 1.391 . S
H783 C743 0.951 . S
H784 C744 0.950 . S
H785 C750 0.949 . S
H786 C751 0.950 . S
H787 C755 0.951 . S
H788 C756 0.950 . S
H789 C760 0.949 . S
H790 C761 0.950 . S
H791 C765 0.950 . S
H792 C767 0.950 . S
H793 C770 0.950 . S
H794 C772 0.950 . S
C795 C796 1.443 . S
C795 N799 1.376 . S
C795 C833 1.389 . S
C796 C795 1.443 . S
C796 C797 1.340 . S
C796 H836 0.951 . S
C797 C796 1.340 . S
C797 C798 1.439 . S
C797 H837 0.950 . S
C798 C797 1.439 . S
C798 N799 1.374 . S
C798 C832 1.395 . S
N799 C795 1.376 . S
N799 C798 1.374 . S
N799 Co800 2.008 . S
Co800 N799 2.008 . S
Co800 N801 1.995 . S
Co800 N806 2.008 . S
Co800 N811 1.995 . S
Co800 N816 2.282 . S
Co800 N822 2.282 . S
N801 Co800 1.995 . S
N801 C802 1.376 . S
N801 C805 1.383 . S
C802 N801 1.376 . S
C802 C803 1.446 . S
C802 C832 1.391 . S
C803 C802 1.446 . S
C803 C804 1.339 . S
C803 H838 0.949 . S
C804 C803 1.339 . S
C804 C805 1.439 . S
C804 H839 0.950 . S
C805 N801 1.383 . S
C805 C804 1.439 . S
C805 C834 1.392 . S
N806 Co800 2.008 . S
N806 C807 1.376 . S
N806 C810 1.374 . S
C807 N806 1.376 . S
C807 C808 1.443 . S
C807 C834 1.389 . S
C808 C807 1.443 . S
C808 C809 1.340 . S
C808 H840 0.951 . S
C809 C808 1.340 . S
C809 C810 1.439 . S
C809 H841 0.950 . S
C810 N806 1.374 . S
C810 C809 1.439 . S
C810 C835 1.395 . S
N811 Co800 1.995 . S
N811 C812 1.376 . S
N811 C815 1.383 . S
C812 N811 1.376 . S
C812 C813 1.446 . S
C812 C835 1.391 . S
C813 C812 1.446 . S
C813 C814 1.339 . S
C813 H842 0.949 . S
C814 C813 1.339 . S
C814 C815 1.439 . S
C814 H843 0.950 . S
C815 N811 1.383 . S
C815 C814 1.439 . S
C815 C833 1.392 . S
N816 Co800 2.282 . S
N816 C819 1.332 . S
N816 C821 1.332 . S
C817 C818 1.386 . S
C817 C820 1.388 . S
C818 C817 1.386 . S
C818 C819 1.382 . S
C818 H844 0.950 . S
C819 N816 1.332 . S
C819 C818 1.382 . S
C819 H830 0.952 . S
C820 C817 1.388 . S
C820 C821 1.382 . S
C820 H845 0.950 . S
C821 N816 1.332 . S
C821 C820 1.382 . S
C821 H831 0.948 . S
N822 Co800 2.282 . S
N822 C826 1.332 . S
N822 C827 1.332 . S
C823 C824 1.388 . S
C823 C827 1.382 . S
C823 H846 0.950 . S
C824 C823 1.388 . S
C824 C825 1.386 . S
C825 C824 1.386 . S
C825 C826 1.382 . S
C825 H847 0.950 . S
C826 N822 1.332 . S
C826 C825 1.382 . S
C826 H828 0.952 . S
C827 N822 1.332 . S
C827 C823 1.382 . S
C827 H829 0.948 . S
H828 C826 0.952 . S
H829 C827 0.948 . S
H830 C819 0.952 . S
H831 C821 0.948 . S
C832 C798 1.395 . S
C832 C802 1.391 . S
C833 C795 1.389 . S
C833 C815 1.392 . S
C834 C805 1.392 . S
C834 C807 1.389 . S
C835 C810 1.395 . S
C835 C812 1.391 . S
H836 C796 0.951 . S
H837 C797 0.950 . S
H838 C803 0.949 . S
H839 C804 0.950 . S
H840 C808 0.951 . S
H841 C809 0.950 . S
H842 C813 0.949 . S
H843 C814 0.950 . S
H844 C818 0.950 . S
H845 C820 0.950 . S
H846 C823 0.950 . S
H847 C825 0.950 . S
C848 C849 1.443 . S
C848 N852 1.376 . S
C848 C886 1.389 . S
C849 C848 1.443 . S
C849 C850 1.340 . S
C849 H889 0.951 . S
C850 C849 1.340 . S
C850 C851 1.439 . S
C850 H890 0.950 . S
C851 C850 1.439 . S
C851 N852 1.374 . S
C851 C885 1.395 . S
N852 C848 1.376 . S
N852 C851 1.374 . S
N852 Co853 2.008 . S
Co853 N852 2.008 . S
Co853 N854 1.995 . S
Co853 N859 2.008 . S
Co853 N864 1.995 . S
Co853 N869 2.282 . S
Co853 N875 2.282 . S
N854 Co853 1.995 . S
N854 C855 1.376 . S
N854 C858 1.383 . S
C855 N854 1.376 . S
C855 C856 1.446 . S
C855 C885 1.391 . S
C856 C855 1.446 . S
C856 C857 1.339 . S
C856 H891 0.949 . S
C857 C856 1.339 . S
C857 C858 1.439 . S
C857 H892 0.950 . S
C858 N854 1.383 . S
C858 C857 1.439 . S
C858 C887 1.392 . S
N859 Co853 2.008 . S
N859 C860 1.376 . S
N859 C863 1.374 . S
C860 N859 1.376 . S
C860 C861 1.443 . S
C860 C887 1.389 . S
C861 C860 1.443 . S
C861 C862 1.340 . S
C861 H893 0.951 . S
C862 C861 1.340 . S
C862 C863 1.439 . S
C862 H894 0.950 . S
C863 N859 1.374 . S
C863 C862 1.439 . S
C863 C888 1.395 . S
N864 Co853 1.995 . S
N864 C865 1.376 . S
N864 C868 1.383 . S
C865 N864 1.376 . S
C865 C866 1.446 . S
C865 C888 1.391 . S
C866 C865 1.446 . S
C866 C867 1.339 . S
C866 H895 0.949 . S
C867 C866 1.339 . S
C867 C868 1.439 . S
C867 H896 0.950 . S
C868 N864 1.383 . S
C868 C867 1.439 . S
C868 C886 1.392 . S
N869 Co853 2.282 . S
N869 C872 1.332 . S
N869 C874 1.332 . S
C870 C871 1.386 . S
C870 C873 1.388 . S
C871 C870 1.386 . S
C871 C872 1.382 . S
C871 H897 0.950 . S
C872 N869 1.332 . S
C872 C871 1.382 . S
C872 H883 0.952 . S
C873 C870 1.388 . S
C873 C874 1.382 . S
C873 H898 0.950 . S
C874 N869 1.332 . S
C874 C873 1.382 . S
C874 H884 0.948 . S
N875 Co853 2.282 . S
N875 C879 1.332 . S
N875 C880 1.332 . S
C876 C877 1.388 . S
C876 C880 1.382 . S
C876 H899 0.950 . S
C877 C876 1.388 . S
C877 C878 1.386 . S
C878 C877 1.386 . S
C878 C879 1.382 . S
C878 H900 0.950 . S
C879 N875 1.332 . S
C879 C878 1.382 . S
C879 H881 0.952 . S
C880 N875 1.332 . S
C880 C876 1.382 . S
C880 H882 0.948 . S
H881 C879 0.952 . S
H882 C880 0.948 . S
H883 C872 0.952 . S
H884 C874 0.948 . S
C885 C851 1.395 . S
C885 C855 1.391 . S
C886 C848 1.389 . S
C886 C868 1.392 . S
C887 C858 1.392 . S
C887 C860 1.389 . S
C888 C863 1.395 . S
C888 C865 1.391 . S
H889 C849 0.951 . S
H890 C850 0.950 . S
H891 C856 0.949 . S
H892 C857 0.950 . S
H893 C861 0.951 . S
H894 C862 0.950 . S
H895 C866 0.949 . S
H896 C867 0.950 . S
H897 C871 0.950 . S
H898 C873 0.950 . S
H899 C876 0.950 . S
H900 C878 0.950 . S
C901 C902 1.443 . S
C901 N905 1.376 . S
C901 C939 1.389 . S
C902 C901 1.443 . S
C902 C903 1.340 . S
C902 H942 0.951 . S
C903 C902 1.340 . S
C903 C904 1.439 . S
C903 H943 0.950 . S
C904 C903 1.439 . S
C904 N905 1.374 . S
C904 C938 1.395 . S
N905 C901 1.376 . S
N905 C904 1.374 . S
N905 Co906 2.008 . S
Co906 N905 2.008 . S
Co906 N907 1.995 . S
Co906 N912 2.008 . S
Co906 N917 1.995 . S
Co906 N922 2.282 . S
Co906 N928 2.282 . S
N907 Co906 1.995 . S
N907 C908 1.376 . S
N907 C911 1.383 . S
C908 N907 1.376 . S
C908 C909 1.446 . S
C908 C938 1.391 . S
C909 C908 1.446 . S
C909 C910 1.339 . S
C909 H944 0.949 . S
C910 C909 1.339 . S
C910 C911 1.439 . S
C910 H945 0.950 . S
C911 N907 1.383 . S
C911 C910 1.439 . S
C911 C940 1.392 . S
N912 Co906 2.008 . S
N912 C913 1.376 . S
N912 C916 1.374 . S
C913 N912 1.376 . S
C913 C914 1.443 . S
C913 C940 1.389 . S
C914 C913 1.443 . S
C914 C915 1.340 . S
C914 H946 0.951 . S
C915 C914 1.340 . S
C915 C916 1.439 . S
C915 H947 0.950 . S
C916 N912 1.374 . S
C916 C915 1.439 . S
C916 C941 1.395 . S
N917 Co906 1.995 . S
N917 C918 1.376 . S
N917 C921 1.383 . S
C918 N917 1.376 . S
C918 C919 1.446 . S
C918 C941 1.391 . S
C919 C918 1.446 . S
C919 C920 1.339 . S
C919 H948 0.949 . S
C920 C919 1.339 . S
C920 C921 1.439 . S
C920 H949 0.950 . S
C921 N917 1.383 . S
C921 C920 1.439 . S
C921 C939 1.392 . S
N922 Co906 2.282 . S
N922 C925 1.332 . S
N922 C927 1.332 . S
C923 C924 1.386 . S
C923 C926 1.388 . S
C924 C923 1.386 . S
C924 C925 1.382 . S
C924 H950 0.950 . S
C925 N922 1.332 . S
C925 C924 1.382 . S
C925 H936 0.952 . S
C926 C923 1.388 . S
C926 C927 1.382 . S
C926 H951 0.950 . S
C927 N922 1.332 . S
C927 C926 1.382 . S
C927 H937 0.948 . S
N928 Co906 2.282 . S
N928 C932 1.332 . S
N928 C933 1.332 . S
C929 C930 1.388 . S
C929 C933 1.382 . S
C929 H952 0.950 . S
C930 C929 1.388 . S
C930 C931 1.386 . S
C931 C930 1.386 . S
C931 C932 1.382 . S
C931 H953 0.950 . S
C932 N928 1.332 . S
C932 C931 1.382 . S
C932 H934 0.952 . S
C933 N928 1.332 . S
C933 C929 1.382 . S
C933 H935 0.948 . S
H934 C932 0.952 . S
H935 C933 0.948 . S
H936 C925 0.952 . S
H937 C927 0.948 . S
C938 C904 1.395 . S
C938 C908 1.391 . S
C939 C901 1.389 . S
C939 C921 1.392 . S
C940 C911 1.392 . S
C940 C913 1.389 . S
C941 C916 1.395 . S
C941 C918 1.391 . S
H942 C902 0.951 . S
H943 C903 0.950 . S
H944 C909 0.949 . S
H945 C910 0.950 . S
H946 C914 0.951 . S
H947 C915 0.950 . S
H948 C919 0.949 . S
H949 C920 0.950 . S
H950 C924 0.950 . S
H951 C926 0.950 . S
H952 C929 0.950 . S
H953 C931 0.950 . S
C954 C955 1.443 . S
C954 N958 1.376 . S
C954 C992 1.389 . S
C955 C954 1.443 . S
C955 C956 1.340 . S
C955 H995 0.951 . S
C956 C955 1.340 . S
C956 C957 1.439 . S
C956 H996 0.950 . S
C957 C956 1.439 . S
C957 N958 1.374 . S
C957 C991 1.395 . S
N958 C954 1.376 . S
N958 C957 1.374 . S
N958 Co959 2.008 . S
Co959 N958 2.008 . S
Co959 N960 1.995 . S
Co959 N965 2.008 . S
Co959 N970 1.995 . S
Co959 N975 2.282 . S
Co959 N981 2.282 . S
N960 Co959 1.995 . S
N960 C961 1.376 . S
N960 C964 1.383 . S
C961 N960 1.376 . S
C961 C962 1.446 . S
C961 C991 1.391 . S
C962 C961 1.446 . S
C962 C963 1.339 . S
C962 H997 0.949 . S
C963 C962 1.339 . S
C963 C964 1.439 . S
C963 H998 0.950 . S
C964 N960 1.383 . S
C964 C963 1.439 . S
C964 C993 1.392 . S
N965 Co959 2.008 . S
N965 C966 1.376 . S
N965 C969 1.374 . S
C966 N965 1.376 . S
C966 C967 1.443 . S
C966 C993 1.389 . S
C967 C966 1.443 . S
C967 C968 1.340 . S
C967 H999 0.951 . S
C968 C967 1.340 . S
C968 C969 1.439 . S
C968 H1000 0.950 . S
C969 N965 1.374 . S
C969 C968 1.439 . S
C969 C994 1.395 . S
N970 Co959 1.995 . S
N970 C971 1.376 . S
N970 C974 1.383 . S
C971 N970 1.376 . S
C971 C972 1.446 . S
C971 C994 1.391 . S
C972 C971 1.446 . S
C972 C973 1.339 . S
C972 H1001 0.949 . S
C973 C972 1.339 . S
C973 C974 1.439 . S
C973 H1002 0.950 . S
C974 N970 1.383 . S
C974 C973 1.439 . S
C974 C992 1.392 . S
N975 Co959 2.282 . S
N975 C978 1.332 . S
N975 C980 1.332 . S
C976 C977 1.386 . S
C976 C979 1.388 . S
C977 C976 1.386 . S
C977 C978 1.382 . S
C977 H1003 0.950 . S
C978 N975 1.332 . S
C978 C977 1.382 . S
C978 H989 0.952 . S
C979 C976 1.388 . S
C979 C980 1.382 . S
C979 H1004 0.950 . S
C980 N975 1.332 . S
C980 C979 1.382 . S
C980 H990 0.948 . S
N981 Co959 2.282 . S
N981 C985 1.332 . S
N981 C986 1.332 . S
C982 C983 1.388 . S
C982 C986 1.382 . S
C982 H1005 0.950 . S
C983 C982 1.388 . S
C983 C984 1.386 . S
C984 C983 1.386 . S
C984 C985 1.382 . S
C984 H1006 0.950 . S
C985 N981 1.332 . S
C985 C984 1.382 . S
C985 H987 0.952 . S
C986 N981 1.332 . S
C986 C982 1.382 . S
C986 H988 0.948 . S
H987 C985 0.952 . S
H988 C986 0.948 . S
H989 C978 0.952 . S
H990 C980 0.948 . S
C991 C957 1.395 . S
C991 C961 1.391 . S
C992 C954 1.389 . S
C992 C974 1.392 . S
C993 C964 1.392 . S
C993 C966 1.389 . S
C994 C969 1.395 . S
C994 C971 1.391 . S
H995 C955 0.951 . S
H996 C956 0.950 . S
H997 C962 0.949 . S
H998 C963 0.950 . S
H999 C967 0.951 . S
H1000 C968 0.950 . S
H1001 C972 0.949 . S
H1002 C973 0.950 . S
H1003 C977 0.950 . S
H1004 C979 0.950 . S
H1005 C982 0.950 . S
H1006 C984 0.950 . S
C1007 C1008 1.443 . S
C1007 N1011 1.376 . S
C1007 C1045 1.389 . S
C1008 C1007 1.443 . S
C1008 C1009 1.340 . S
C1008 H1048 0.951 . S
C1009 C1008 1.340 . S
C1009 C1010 1.439 . S
C1009 H1049 0.950 . S
C1010 C1009 1.439 . S
C1010 N1011 1.374 . S
C1010 C1044 1.395 . S
N1011 C1007 1.376 . S
N1011 C1010 1.374 . S
N1011 Co1012 2.008 . S
Co1012 N1011 2.008 . S
Co1012 N1013 1.995 . S
Co1012 N1018 2.008 . S
Co1012 N1023 1.995 . S
Co1012 N1028 2.282 . S
Co1012 N1034 2.282 . S
N1013 Co1012 1.995 . S
N1013 C1014 1.376 . S
N1013 C1017 1.383 . S
C1014 N1013 1.376 . S
C1014 C1015 1.446 . S
C1014 C1044 1.391 . S
C1015 C1014 1.446 . S
C1015 C1016 1.339 . S
C1015 H1050 0.949 . S
C1016 C1015 1.339 . S
C1016 C1017 1.439 . S
C1016 H1051 0.950 . S
C1017 N1013 1.383 . S
C1017 C1016 1.439 . S
C1017 C1046 1.392 . S
N1018 Co1012 2.008 . S
N1018 C1019 1.376 . S
N1018 C1022 1.374 . S
C1019 N1018 1.376 . S
C1019 C1020 1.443 . S
C1019 C1046 1.389 . S
C1020 C1019 1.443 . S
C1020 C1021 1.340 . S
C1020 H1052 0.951 . S
C1021 C1020 1.340 . S
C1021 C1022 1.439 . S
C1021 H1053 0.950 . S
C1022 N1018 1.374 . S
C1022 C1021 1.439 . S
C1022 C1047 1.395 . S
N1023 Co1012 1.995 . S
N1023 C1024 1.376 . S
N1023 C1027 1.383 . S
C1024 N1023 1.376 . S
C1024 C1025 1.446 . S
C1024 C1047 1.391 . S
C1025 C1024 1.446 . S
C1025 C1026 1.339 . S
C1025 H1054 0.949 . S
C1026 C1025 1.339 . S
C1026 C1027 1.439 . S
C1026 H1055 0.950 . S
C1027 N1023 1.383 . S
C1027 C1026 1.439 . S
C1027 C1045 1.392 . S
N1028 Co1012 2.282 . S
N1028 C1031 1.332 . S
N1028 C1033 1.332 . S
C1029 C1030 1.386 . S
C1029 C1032 1.388 . S
C1030 C1029 1.386 . S
C1030 C1031 1.382 . S
C1030 H1056 0.950 . S
C1031 N1028 1.332 . S
C1031 C1030 1.382 . S
C1031 H1042 0.952 . S
C1032 C1029 1.388 . S
C1032 C1033 1.382 . S
C1032 H1057 0.950 . S
C1033 N1028 1.332 . S
C1033 C1032 1.382 . S
C1033 H1043 0.948 . S
N1034 Co1012 2.282 . S
N1034 C1038 1.332 . S
N1034 C1039 1.332 . S
C1035 C1036 1.388 . S
C1035 C1039 1.382 . S
C1035 H1058 0.950 . S
C1036 C1035 1.388 . S
C1036 C1037 1.386 . S
C1037 C1036 1.386 . S
C1037 C1038 1.382 . S
C1037 H1059 0.950 . S
C1038 N1034 1.332 . S
C1038 C1037 1.382 . S
C1038 H1040 0.952 . S
C1039 N1034 1.332 . S
C1039 C1035 1.382 . S
C1039 H1041 0.948 . S
H1040 C1038 0.952 . S
H1041 C1039 0.948 . S
H1042 C1031 0.952 . S
H1043 C1033 0.948 . S
C1044 C1010 1.395 . S
C1044 C1014 1.391 . S
C1045 C1007 1.389 . S
C1045 C1027 1.392 . S
C1046 C1017 1.392 . S
C1046 C1019 1.389 . S
C1047 C1022 1.395 . S
C1047 C1024 1.391 . S
H1048 C1008 0.951 . S
H1049 C1009 0.950 . S
H1050 C1015 0.949 . S
H1051 C1016 0.950 . S
H1052 C1020 0.951 . S
H1053 C1021 0.950 . S
H1054 C1025 0.949 . S
H1055 C1026 0.950 . S
H1056 C1030 0.950 . S
H1057 C1032 0.950 . S
H1058 C1035 0.950 . S
H1059 C1037 0.950 . S
C1060 C1061 1.443 . S
C1060 N1064 1.376 . S
C1060 C1098 1.389 . S
C1061 C1060 1.443 . S
C1061 C1062 1.340 . S
C1061 H1101 0.951 . S
C1062 C1061 1.340 . S
C1062 C1063 1.439 . S
C1062 H1102 0.950 . S
C1063 C1062 1.439 . S
C1063 N1064 1.374 . S
C1063 C1097 1.395 . S
N1064 C1060 1.376 . S
N1064 C1063 1.374 . S
N1064 Co1065 2.008 . S
Co1065 N1064 2.008 . S
Co1065 N1066 1.995 . S
Co1065 N1071 2.008 . S
Co1065 N1076 1.995 . S
Co1065 N1081 2.282 . S
Co1065 N1087 2.282 . S
N1066 Co1065 1.995 . S
N1066 C1067 1.376 . S
N1066 C1070 1.383 . S
C1067 N1066 1.376 . S
C1067 C1068 1.446 . S
C1067 C1097 1.391 . S
C1068 C1067 1.446 . S
C1068 C1069 1.339 . S
C1068 H1103 0.949 . S
C1069 C1068 1.339 . S
C1069 C1070 1.439 . S
C1069 H1104 0.950 . S
C1070 N1066 1.383 . S
C1070 C1069 1.439 . S
C1070 C1099 1.392 . S
N1071 Co1065 2.008 . S
N1071 C1072 1.376 . S
N1071 C1075 1.374 . S
C1072 N1071 1.376 . S
C1072 C1073 1.443 . S
C1072 C1099 1.389 . S
C1073 C1072 1.443 . S
C1073 C1074 1.340 . S
C1073 H1105 0.951 . S
C1074 C1073 1.340 . S
C1074 C1075 1.439 . S
C1074 H1106 0.950 . S
C1075 N1071 1.374 . S
C1075 C1074 1.439 . S
C1075 C1100 1.395 . S
N1076 Co1065 1.995 . S
N1076 C1077 1.376 . S
N1076 C1080 1.383 . S
C1077 N1076 1.376 . S
C1077 C1078 1.446 . S
C1077 C1100 1.391 . S
C1078 C1077 1.446 . S
C1078 C1079 1.339 . S
C1078 H1107 0.949 . S
C1079 C1078 1.339 . S
C1079 C1080 1.439 . S
C1079 H1108 0.950 . S
C1080 N1076 1.383 . S
C1080 C1079 1.439 . S
C1080 C1098 1.392 . S
N1081 Co1065 2.282 . S
N1081 C1084 1.332 . S
N1081 C1086 1.332 . S
C1082 C1083 1.386 . S
C1082 C1085 1.388 . S
C1083 C1082 1.386 . S
C1083 C1084 1.382 . S
C1083 H1109 0.950 . S
C1084 N1081 1.332 . S
C1084 C1083 1.382 . S
C1084 H1095 0.952 . S
C1085 C1082 1.388 . S
C1085 C1086 1.382 . S
C1085 H1110 0.950 . S
C1086 N1081 1.332 . S
C1086 C1085 1.382 . S
C1086 H1096 0.948 . S
N1087 Co1065 2.282 . S
N1087 C1091 1.332 . S
N1087 C1092 1.332 . S
C1088 C1089 1.388 . S
C1088 C1092 1.382 . S
C1088 H1111 0.950 . S
C1089 C1088 1.388 . S
C1089 C1090 1.386 . S
C1090 C1089 1.386 . S
C1090 C1091 1.382 . S
C1090 H1112 0.950 . S
C1091 N1087 1.332 . S
C1091 C1090 1.382 . S
C1091 H1093 0.952 . S
C1092 N1087 1.332 . S
C1092 C1088 1.382 . S
C1092 H1094 0.948 . S
H1093 C1091 0.952 . S
H1094 C1092 0.948 . S
H1095 C1084 0.952 . S
H1096 C1086 0.948 . S
C1097 C1063 1.395 . S
C1097 C1067 1.391 . S
C1098 C1060 1.389 . S
C1098 C1080 1.392 . S
C1099 C1070 1.392 . S
C1099 C1072 1.389 . S
C1100 C1075 1.395 . S
C1100 C1077 1.391 . S
H1101 C1061 0.951 . S
H1102 C1062 0.950 . S
H1103 C1068 0.949 . S
H1104 C1069 0.950 . S
H1105 C1073 0.951 . S
H1106 C1074 0.950 . S
H1107 C1078 0.949 . S
H1108 C1079 0.950 . S
H1109 C1083 0.950 . S
H1110 C1085 0.950 . S
H1111 C1088 0.950 . S
H1112 C1090 0.950 . S
C1113 C1114 1.443 . S
C1113 N1117 1.376 . S
C1113 C1151 1.389 . S
C1114 C1113 1.443 . S
C1114 C1115 1.340 . S
C1114 H1154 0.951 . S
C1115 C1114 1.340 . S
C1115 C1116 1.439 . S
C1115 H1155 0.950 . S
C1116 C1115 1.439 . S
C1116 N1117 1.374 . S
C1116 C1150 1.395 . S
N1117 C1113 1.376 . S
N1117 C1116 1.374 . S
N1117 Co1118 2.008 . S
Co1118 N1117 2.008 . S
Co1118 N1119 1.995 . S
Co1118 N1124 2.008 . S
Co1118 N1129 1.995 . S
Co1118 N1134 2.282 . S
Co1118 N1140 2.282 . S
N1119 Co1118 1.995 . S
N1119 C1120 1.376 . S
N1119 C1123 1.383 . S
C1120 N1119 1.376 . S
C1120 C1121 1.446 . S
C1120 C1150 1.391 . S
C1121 C1120 1.446 . S
C1121 C1122 1.339 . S
C1121 H1156 0.949 . S
C1122 C1121 1.339 . S
C1122 C1123 1.439 . S
C1122 H1157 0.950 . S
C1123 N1119 1.383 . S
C1123 C1122 1.439 . S
C1123 C1152 1.392 . S
N1124 Co1118 2.008 . S
N1124 C1125 1.376 . S
N1124 C1128 1.374 . S
C1125 N1124 1.376 . S
C1125 C1126 1.443 . S
C1125 C1152 1.389 . S
C1126 C1125 1.443 . S
C1126 C1127 1.340 . S
C1126 H1158 0.951 . S
C1127 C1126 1.340 . S
C1127 C1128 1.439 . S
C1127 H1159 0.950 . S
C1128 N1124 1.374 . S
C1128 C1127 1.439 . S
C1128 C1153 1.395 . S
N1129 Co1118 1.995 . S
N1129 C1130 1.376 . S
N1129 C1133 1.383 . S
C1130 N1129 1.376 . S
C1130 C1131 1.446 . S
C1130 C1153 1.391 . S
C1131 C1130 1.446 . S
C1131 C1132 1.339 . S
C1131 H1160 0.949 . S
C1132 C1131 1.339 . S
C1132 C1133 1.439 . S
C1132 H1161 0.950 . S
C1133 N1129 1.383 . S
C1133 C1132 1.439 . S
C1133 C1151 1.392 . S
N1134 Co1118 2.282 . S
N1134 C1137 1.332 . S
N1134 C1139 1.332 . S
C1135 C1136 1.386 . S
C1135 C1138 1.388 . S
C1136 C1135 1.386 . S
C1136 C1137 1.382 . S
C1136 H1162 0.950 . S
C1137 N1134 1.332 . S
C1137 C1136 1.382 . S
C1137 H1148 0.952 . S
C1138 C1135 1.388 . S
C1138 C1139 1.382 . S
C1138 H1163 0.950 . S
C1139 N1134 1.332 . S
C1139 C1138 1.382 . S
C1139 H1149 0.948 . S
N1140 Co1118 2.282 . S
N1140 C1144 1.332 . S
N1140 C1145 1.332 . S
C1141 C1142 1.388 . S
C1141 C1145 1.382 . S
C1141 H1164 0.950 . S
C1142 C1141 1.388 . S
C1142 C1143 1.386 . S
C1143 C1142 1.386 . S
C1143 C1144 1.382 . S
C1143 H1165 0.950 . S
C1144 N1140 1.332 . S
C1144 C1143 1.382 . S
C1144 H1146 0.952 . S
C1145 N1140 1.332 . S
C1145 C1141 1.382 . S
C1145 H1147 0.948 . S
H1146 C1144 0.952 . S
H1147 C1145 0.948 . S
H1148 C1137 0.952 . S
H1149 C1139 0.948 . S
C1150 C1116 1.395 . S
C1150 C1120 1.391 . S
C1151 C1113 1.389 . S
C1151 C1133 1.392 . S
C1152 C1123 1.392 . S
C1152 C1125 1.389 . S
C1153 C1128 1.395 . S
C1153 C1130 1.391 . S
H1154 C1114 0.951 . S
H1155 C1115 0.950 . S
H1156 C1121 0.949 . S
H1157 C1122 0.950 . S
H1158 C1126 0.951 . S
H1159 C1127 0.950 . S
H1160 C1131 0.949 . S
H1161 C1132 0.950 . S
H1162 C1136 0.950 . S
H1163 C1138 0.950 . S
H1164 C1141 0.950 . S
H1165 C1143 0.950 . S
C1166 C1167 1.443 . S
C1166 N1170 1.376 . S
C1166 C1204 1.389 . S
C1167 C1166 1.443 . S
C1167 C1168 1.340 . S
C1167 H1207 0.951 . S
C1168 C1167 1.340 . S
C1168 C1169 1.439 . S
C1168 H1208 0.950 . S
C1169 C1168 1.439 . S
C1169 N1170 1.374 . S
C1169 C1203 1.395 . S
N1170 C1166 1.376 . S
N1170 C1169 1.374 . S
N1170 Co1171 2.008 . S
Co1171 N1170 2.008 . S
Co1171 N1172 1.995 . S
Co1171 N1177 2.008 . S
Co1171 N1182 1.995 . S
Co1171 N1187 2.282 . S
Co1171 N1193 2.282 . S
N1172 Co1171 1.995 . S
N1172 C1173 1.376 . S
N1172 C1176 1.383 . S
C1173 N1172 1.376 . S
C1173 C1174 1.446 . S
C1173 C1203 1.391 . S
C1174 C1173 1.446 . S
C1174 C1175 1.339 . S
C1174 H1209 0.949 . S
C1175 C1174 1.339 . S
C1175 C1176 1.439 . S
C1175 H1210 0.950 . S
C1176 N1172 1.383 . S
C1176 C1175 1.439 . S
C1176 C1205 1.392 . S
N1177 Co1171 2.008 . S
N1177 C1178 1.376 . S
N1177 C1181 1.374 . S
C1178 N1177 1.376 . S
C1178 C1179 1.443 . S
C1178 C1205 1.389 . S
C1179 C1178 1.443 . S
C1179 C1180 1.340 . S
C1179 H1211 0.951 . S
C1180 C1179 1.340 . S
C1180 C1181 1.439 . S
C1180 H1212 0.950 . S
C1181 N1177 1.374 . S
C1181 C1180 1.439 . S
C1181 C1206 1.395 . S
N1182 Co1171 1.995 . S
N1182 C1183 1.376 . S
N1182 C1186 1.383 . S
C1183 N1182 1.376 . S
C1183 C1184 1.446 . S
C1183 C1206 1.391 . S
C1184 C1183 1.446 . S
C1184 C1185 1.339 . S
C1184 H1213 0.949 . S
C1185 C1184 1.339 . S
C1185 C1186 1.439 . S
C1185 H1214 0.950 . S
C1186 N1182 1.383 . S
C1186 C1185 1.439 . S
C1186 C1204 1.392 . S
N1187 Co1171 2.282 . S
N1187 C1190 1.332 . S
N1187 C1192 1.332 . S
C1188 C1189 1.386 . S
C1188 C1191 1.388 . S
C1189 C1188 1.386 . S
C1189 C1190 1.382 . S
C1189 H1215 0.950 . S
C1190 N1187 1.332 . S
C1190 C1189 1.382 . S
C1190 H1201 0.952 . S
C1191 C1188 1.388 . S
C1191 C1192 1.382 . S
C1191 H1216 0.950 . S
C1192 N1187 1.332 . S
C1192 C1191 1.382 . S
C1192 H1202 0.948 . S
N1193 Co1171 2.282 . S
N1193 C1197 1.332 . S
N1193 C1198 1.332 . S
C1194 C1195 1.388 . S
C1194 C1198 1.382 . S
C1194 H1217 0.950 . S
C1195 C1194 1.388 . S
C1195 C1196 1.386 . S
C1196 C1195 1.386 . S
C1196 C1197 1.382 . S
C1196 H1218 0.950 . S
C1197 N1193 1.332 . S
C1197 C1196 1.382 . S
C1197 H1199 0.952 . S
C1198 N1193 1.332 . S
C1198 C1194 1.382 . S
C1198 H1200 0.948 . S
H1199 C1197 0.952 . S
H1200 C1198 0.948 . S
H1201 C1190 0.952 . S
H1202 C1192 0.948 . S
C1203 C1169 1.395 . S
C1203 C1173 1.391 . S
C1204 C1166 1.389 . S
C1204 C1186 1.392 . S
C1205 C1176 1.392 . S
C1205 C1178 1.389 . S
C1206 C1181 1.395 . S
C1206 C1183 1.391 . S
H1207 C1167 0.951 . S
H1208 C1168 0.950 . S
H1209 C1174 0.949 . S
H1210 C1175 0.950 . S
H1211 C1179 0.951 . S
H1212 C1180 0.950 . S
H1213 C1184 0.949 . S
H1214 C1185 0.950 . S
H1215 C1189 0.950 . S
H1216 C1191 0.950 . S
H1217 C1194 0.950 . S
H1218 C1196 0.950 . S
C1219 C1220 1.443 . S
C1219 N1223 1.376 . S
C1219 C1257 1.389 . S
C1220 C1219 1.443 . S
C1220 C1221 1.340 . S
C1220 H1260 0.951 . S
C1221 C1220 1.340 . S
C1221 C1222 1.439 . S
C1221 H1261 0.950 . S
C1222 C1221 1.439 . S
C1222 N1223 1.374 . S
C1222 C1256 1.395 . S
N1223 C1219 1.376 . S
N1223 C1222 1.374 . S
N1223 Co1224 2.008 . S
Co1224 N1223 2.008 . S
Co1224 N1225 1.995 . S
Co1224 N1230 2.008 . S
Co1224 N1235 1.995 . S
Co1224 N1240 2.282 . S
Co1224 N1246 2.282 . S
N1225 Co1224 1.995 . S
N1225 C1226 1.376 . S
N1225 C1229 1.383 . S
C1226 N1225 1.376 . S
C1226 C1227 1.446 . S
C1226 C1256 1.391 . S
C1227 C1226 1.446 . S
C1227 C1228 1.339 . S
C1227 H1262 0.949 . S
C1228 C1227 1.339 . S
C1228 C1229 1.439 . S
C1228 H1263 0.950 . S
C1229 N1225 1.383 . S
C1229 C1228 1.439 . S
C1229 C1258 1.392 . S
N1230 Co1224 2.008 . S
N1230 C1231 1.376 . S
N1230 C1234 1.374 . S
C1231 N1230 1.376 . S
C1231 C1232 1.443 . S
C1231 C1258 1.389 . S
C1232 C1231 1.443 . S
C1232 C1233 1.340 . S
C1232 H1264 0.951 . S
C1233 C1232 1.340 . S
C1233 C1234 1.439 . S
C1233 H1265 0.950 . S
C1234 N1230 1.374 . S
C1234 C1233 1.439 . S
C1234 C1259 1.395 . S
N1235 Co1224 1.995 . S
N1235 C1236 1.376 . S
N1235 C1239 1.383 . S
C1236 N1235 1.376 . S
C1236 C1237 1.446 . S
C1236 C1259 1.391 . S
C1237 C1236 1.446 . S
C1237 C1238 1.339 . S
C1237 H1266 0.949 . S
C1238 C1237 1.339 . S
C1238 C1239 1.439 . S
C1238 H1267 0.950 . S
C1239 N1235 1.383 . S
C1239 C1238 1.439 . S
C1239 C1257 1.392 . S
N1240 Co1224 2.282 . S
N1240 C1243 1.332 . S
N1240 C1245 1.332 . S
C1241 C1242 1.386 . S
C1241 C1244 1.388 . S
C1242 C1241 1.386 . S
C1242 C1243 1.382 . S
C1242 H1268 0.950 . S
C1243 N1240 1.332 . S
C1243 C1242 1.382 . S
C1243 H1254 0.952 . S
C1244 C1241 1.388 . S
C1244 C1245 1.382 . S
C1244 H1269 0.950 . S
C1245 N1240 1.332 . S
C1245 C1244 1.382 . S
C1245 H1255 0.948 . S
N1246 Co1224 2.282 . S
N1246 C1250 1.332 . S
N1246 C1251 1.332 . S
C1247 C1248 1.388 . S
C1247 C1251 1.382 . S
C1247 H1270 0.950 . S
C1248 C1247 1.388 . S
C1248 C1249 1.386 . S
C1249 C1248 1.386 . S
C1249 C1250 1.382 . S
C1249 H1271 0.950 . S
C1250 N1246 1.332 . S
C1250 C1249 1.382 . S
C1250 H1252 0.952 . S
C1251 N1246 1.332 . S
C1251 C1247 1.382 . S
C1251 H1253 0.948 . S
H1252 C1250 0.952 . S
H1253 C1251 0.948 . S
H1254 C1243 0.952 . S
H1255 C1245 0.948 . S
C1256 C1222 1.395 . S
C1256 C1226 1.391 . S
C1257 C1219 1.389 . S
C1257 C1239 1.392 . S
C1258 C1229 1.392 . S
C1258 C1231 1.389 . S
C1259 C1234 1.395 . S
C1259 C1236 1.391 . S
H1260 C1220 0.951 . S
H1261 C1221 0.950 . S
H1262 C1227 0.949 . S
H1263 C1228 0.950 . S
H1264 C1232 0.951 . S
H1265 C1233 0.950 . S
H1266 C1237 0.949 . S
H1267 C1238 0.950 . S
H1268 C1242 0.950 . S
H1269 C1244 0.950 . S
H1270 C1247 0.950 . S
H1271 C1249 0.950 . S
H1272 C1280 0.929 . S
H1273 C1282 0.930 . S
H1274 C1284 0.930 . S
H1275 C1287 0.929 . S
H1276 C1290 0.930 . S
H1277 C1292 0.960 . S
H1278 C1292 0.960 . S
H1279 C1292 0.960 . S
C1280 H1272 0.929 . S
C1280 C1281 1.377 . S
C1280 C1282 1.384 . S
C1281 C1280 1.377 . S
C1281 C1287 1.390 . S
C1282 H1273 0.930 . S
C1282 C1280 1.384 . S
C1282 C1283 1.372 . S
C1283 C1282 1.372 . S
C1283 C1284 1.400 . S
C1283 C1288 1.490 . S
C1284 H1274 0.930 . S
C1284 C1283 1.400 . S
C1284 C1287 1.386 . S
H1285 C1301 0.930 . S
H1286 C1302 0.931 . S
C1287 H1275 0.929 . S
C1287 C1281 1.390 . S
C1287 C1284 1.386 . S
C1288 C1283 1.490 . S
C1288 C1290 1.395 . S
C1288 C1291 1.403 . S
H1289 C1295 0.930 . S
C1290 H1276 0.930 . S
C1290 C1288 1.395 . S
C1290 C1293 1.403 . S
C1291 C1288 1.403 . S
C1291 C1292 1.524 . S
C1291 C1295 1.400 . S
C1292 H1277 0.960 . S
C1292 H1278 0.960 . S
C1292 H1279 0.960 . S
C1292 C1291 1.524 . S
C1293 C1290 1.403 . S
C1293 C1294 1.392 . S
C1293 C1297 1.495 . S
C1294 C1293 1.392 . S
C1294 C1295 1.385 . S
C1294 C1296 1.478 . S
C1295 H1289 0.930 . S
C1295 C1291 1.400 . S
C1295 C1294 1.385 . S
C1296 C1294 1.478 . S
C1296 C1298 1.381 . S
C1296 C1302 1.383 . S
C1297 C1293 1.495 . S
C1297 H1303 0.959 . S
C1297 H1304 0.961 . S
C1297 H1305 0.960 . S
C1298 C1296 1.381 . S
C1298 C1299 1.394 . S
C1298 H1306 0.930 . S
C1299 C1298 1.394 . S
C1299 C1300 1.383 . S
C1299 H1307 0.929 . S
C1300 C1299 1.383 . S
C1300 C1301 1.377 . S
C1301 H1285 0.930 . S
C1301 C1300 1.377 . S
C1301 C1302 1.379 . S
C1302 H1286 0.931 . S
C1302 C1296 1.383 . S
C1302 C1301 1.379 . S
H1303 C1297 0.959 . S
H1304 C1297 0.961 . S
H1305 C1297 0.960 . S
H1306 C1298 0.930 . S
H1307 C1299 0.929 . S
H1308 C1316 0.929 . S
H1309 C1318 0.930 . S
H1310 C1320 0.930 . S
H1311 C1323 0.929 . S
H1312 C1326 0.930 . S
H1313 C1328 0.960 . S
H1314 C1328 0.960 . S
H1315 C1328 0.960 . S
C1316 H1308 0.929 . S
C1316 C1317 1.377 . S
C1316 C1318 1.384 . S
C1317 C1316 1.377 . S
C1317 C1323 1.390 . S
C1318 H1309 0.930 . S
C1318 C1316 1.384 . S
C1318 C1319 1.372 . S
C1319 C1318 1.372 . S
C1319 C1320 1.400 . S
C1319 C1324 1.490 . S
C1320 H1310 0.930 . S
C1320 C1319 1.400 . S
C1320 C1323 1.386 . S
H1321 C1337 0.930 . S
H1322 C1338 0.931 . S
C1323 H1311 0.929 . S
C1323 C1317 1.390 . S
C1323 C1320 1.386 . S
C1324 C1319 1.490 . S
C1324 C1326 1.395 . S
C1324 C1327 1.403 . S
H1325 C1331 0.930 . S
C1326 H1312 0.930 . S
C1326 C1324 1.395 . S
C1326 C1329 1.403 . S
C1327 C1324 1.403 . S
C1327 C1328 1.524 . S
C1327 C1331 1.400 . S
C1328 H1313 0.960 . S
C1328 H1314 0.960 . S
C1328 H1315 0.960 . S
C1328 C1327 1.524 . S
C1329 C1326 1.403 . S
C1329 C1330 1.392 . S
C1329 C1333 1.495 . S
C1330 C1329 1.392 . S
C1330 C1331 1.385 . S
C1330 C1332 1.478 . S
C1331 H1325 0.930 . S
C1331 C1327 1.400 . S
C1331 C1330 1.385 . S
C1332 C1330 1.478 . S
C1332 C1334 1.381 . S
C1332 C1338 1.383 . S
C1333 C1329 1.495 . S
C1333 H1339 0.959 . S
C1333 H1340 0.961 . S
C1333 H1341 0.960 . S
C1334 C1332 1.381 . S
C1334 C1335 1.394 . S
C1334 H1342 0.930 . S
C1335 C1334 1.394 . S
C1335 C1336 1.383 . S
C1335 H1343 0.929 . S
C1336 C1335 1.383 . S
C1336 C1337 1.377 . S
C1337 H1321 0.930 . S
C1337 C1336 1.377 . S
C1337 C1338 1.379 . S
C1338 H1322 0.931 . S
C1338 C1332 1.383 . S
C1338 C1337 1.379 . S
H1339 C1333 0.959 . S
H1340 C1333 0.961 . S
H1341 C1333 0.960 . S
H1342 C1334 0.930 . S
H1343 C1335 0.929 . S
H1344 C1352 0.929 . S
H1345 C1354 0.930 . S
H1346 C1356 0.930 . S
H1347 C1359 0.929 . S
H1348 C1362 0.930 . S
H1349 C1364 0.960 . S
H1350 C1364 0.960 . S
H1351 C1364 0.960 . S
C1352 H1344 0.929 . S
C1352 C1353 1.377 . S
C1352 C1354 1.384 . S
C1353 C1352 1.377 . S
C1353 C1359 1.390 . S
C1354 H1345 0.930 . S
C1354 C1352 1.384 . S
C1354 C1355 1.372 . S
C1355 C1354 1.372 . S
C1355 C1356 1.400 . S
C1355 C1360 1.490 . S
C1356 H1346 0.930 . S
C1356 C1355 1.400 . S
C1356 C1359 1.386 . S
H1357 C1373 0.930 . S
H1358 C1374 0.931 . S
C1359 H1347 0.929 . S
C1359 C1353 1.390 . S
C1359 C1356 1.386 . S
C1360 C1355 1.490 . S
C1360 C1362 1.395 . S
C1360 C1363 1.403 . S
H1361 C1367 0.930 . S
C1362 H1348 0.930 . S
C1362 C1360 1.395 . S
C1362 C1365 1.403 . S
C1363 C1360 1.403 . S
C1363 C1364 1.524 . S
C1363 C1367 1.400 . S
C1364 H1349 0.960 . S
C1364 H1350 0.960 . S
C1364 H1351 0.960 . S
C1364 C1363 1.524 . S
C1365 C1362 1.403 . S
C1365 C1366 1.392 . S
C1365 C1369 1.495 . S
C1366 C1365 1.392 . S
C1366 C1367 1.385 . S
C1366 C1368 1.478 . S
C1367 H1361 0.930 . S
C1367 C1363 1.400 . S
C1367 C1366 1.385 . S
C1368 C1366 1.478 . S
C1368 C1370 1.381 . S
C1368 C1374 1.383 . S
C1369 C1365 1.495 . S
C1369 H1375 0.959 . S
C1369 H1376 0.961 . S
C1369 H1377 0.960 . S
C1370 C1368 1.381 . S
C1370 C1371 1.394 . S
C1370 H1378 0.930 . S
C1371 C1370 1.394 . S
C1371 C1372 1.383 . S
C1371 H1379 0.929 . S
C1372 C1371 1.383 . S
C1372 C1373 1.377 . S
C1373 H1357 0.930 . S
C1373 C1372 1.377 . S
C1373 C1374 1.379 . S
C1374 H1358 0.931 . S
C1374 C1368 1.383 . S
C1374 C1373 1.379 . S
H1375 C1369 0.959 . S
H1376 C1369 0.961 . S
H1377 C1369 0.960 . S
H1378 C1370 0.930 . S
H1379 C1371 0.929 . S
H1380 C1388 0.929 . S
H1381 C1390 0.930 . S
H1382 C1392 0.930 . S
H1383 C1395 0.929 . S
H1384 C1398 0.930 . S
H1385 C1400 0.960 . S
H1386 C1400 0.960 . S
H1387 C1400 0.960 . S
C1388 H1380 0.929 . S
C1388 C1389 1.377 . S
C1388 C1390 1.384 . S
C1389 C1388 1.377 . S
C1389 C1395 1.390 . S
C1390 H1381 0.930 . S
C1390 C1388 1.384 . S
C1390 C1391 1.372 . S
C1391 C1390 1.372 . S
C1391 C1392 1.400 . S
C1391 C1396 1.490 . S
C1392 H1382 0.930 . S
C1392 C1391 1.400 . S
C1392 C1395 1.386 . S
H1393 C1409 0.930 . S
H1394 C1410 0.931 . S
C1395 H1383 0.929 . S
C1395 C1389 1.390 . S
C1395 C1392 1.386 . S
C1396 C1391 1.490 . S
C1396 C1398 1.395 . S
C1396 C1399 1.403 . S
H1397 C1403 0.930 . S
C1398 H1384 0.930 . S
C1398 C1396 1.395 . S
C1398 C1401 1.403 . S
C1399 C1396 1.403 . S
C1399 C1400 1.524 . S
C1399 C1403 1.400 . S
C1400 H1385 0.960 . S
C1400 H1386 0.960 . S
C1400 H1387 0.960 . S
C1400 C1399 1.524 . S
C1401 C1398 1.403 . S
C1401 C1402 1.392 . S
C1401 C1405 1.495 . S
C1402 C1401 1.392 . S
C1402 C1403 1.385 . S
C1402 C1404 1.478 . S
C1403 H1397 0.930 . S
C1403 C1399 1.400 . S
C1403 C1402 1.385 . S
C1404 C1402 1.478 . S
C1404 C1406 1.381 . S
C1404 C1410 1.383 . S
C1405 C1401 1.495 . S
C1405 H1411 0.959 . S
C1405 H1412 0.961 . S
C1405 H1413 0.960 . S
C1406 C1404 1.381 . S
C1406 C1407 1.394 . S
C1406 H1414 0.930 . S
C1407 C1406 1.394 . S
C1407 C1408 1.383 . S
C1407 H1415 0.929 . S
C1408 C1407 1.383 . S
C1408 C1409 1.377 . S
C1409 H1393 0.930 . S
C1409 C1408 1.377 . S
C1409 C1410 1.379 . S
C1410 H1394 0.931 . S
C1410 C1404 1.383 . S
C1410 C1409 1.379 . S
H1411 C1405 0.959 . S
H1412 C1405 0.961 . S
H1413 C1405 0.960 . S
H1414 C1406 0.930 . S
H1415 C1407 0.929 . S
H1416 C1424 0.929 . S
H1417 C1426 0.930 . S
H1418 C1428 0.930 . S
H1419 C1431 0.929 . S
H1420 C1434 0.930 . S
H1421 C1436 0.960 . S
H1422 C1436 0.960 . S
H1423 C1436 0.960 . S
C1424 H1416 0.929 . S
C1424 C1425 1.377 . S
C1424 C1426 1.384 . S
C1425 C1424 1.377 . S
C1425 C1431 1.390 . S
C1426 H1417 0.930 . S
C1426 C1424 1.384 . S
C1426 C1427 1.372 . S
C1427 C1426 1.372 . S
C1427 C1428 1.400 . S
C1427 C1432 1.490 . S
C1428 H1418 0.930 . S
C1428 C1427 1.400 . S
C1428 C1431 1.386 . S
H1429 C1445 0.930 . S
H1430 C1446 0.931 . S
C1431 H1419 0.929 . S
C1431 C1425 1.390 . S
C1431 C1428 1.386 . S
C1432 C1427 1.490 . S
C1432 C1434 1.395 . S
C1432 C1435 1.403 . S
H1433 C1439 0.930 . S
C1434 H1420 0.930 . S
C1434 C1432 1.395 . S
C1434 C1437 1.403 . S
C1435 C1432 1.403 . S
C1435 C1436 1.524 . S
C1435 C1439 1.400 . S
C1436 H1421 0.960 . S
C1436 H1422 0.960 . S
C1436 H1423 0.960 . S
C1436 C1435 1.524 . S
C1437 C1434 1.403 . S
C1437 C1438 1.392 . S
C1437 C1441 1.495 . S
C1438 C1437 1.392 . S
C1438 C1439 1.385 . S
C1438 C1440 1.478 . S
C1439 H1433 0.930 . S
C1439 C1435 1.400 . S
C1439 C1438 1.385 . S
C1440 C1438 1.478 . S
C1440 C1442 1.381 . S
C1440 C1446 1.383 . S
C1441 C1437 1.495 . S
C1441 H1447 0.959 . S
C1441 H1448 0.961 . S
C1441 H1449 0.960 . S
C1442 C1440 1.381 . S
C1442 C1443 1.394 . S
C1442 H1450 0.930 . S
C1443 C1442 1.394 . S
C1443 C1444 1.383 . S
C1443 H1451 0.929 . S
C1444 C1443 1.383 . S
C1444 C1445 1.377 . S
C1445 H1429 0.930 . S
C1445 C1444 1.377 . S
C1445 C1446 1.379 . S
C1446 H1430 0.931 . S
C1446 C1440 1.383 . S
C1446 C1445 1.379 . S
H1447 C1441 0.959 . S
H1448 C1441 0.961 . S
H1449 C1441 0.960 . S
H1450 C1442 0.930 . S
H1451 C1443 0.929 . S
H1452 C1460 0.929 . S
H1453 C1462 0.930 . S
H1454 C1464 0.930 . S
H1455 C1467 0.929 . S
H1456 C1470 0.930 . S
H1457 C1472 0.960 . S
H1458 C1472 0.960 . S
H1459 C1472 0.960 . S
C1460 H1452 0.929 . S
C1460 C1461 1.377 . S
C1460 C1462 1.384 . S
C1461 C1460 1.377 . S
C1461 C1467 1.390 . S
C1462 H1453 0.930 . S
C1462 C1460 1.384 . S
C1462 C1463 1.372 . S
C1463 C1462 1.372 . S
C1463 C1464 1.400 . S
C1463 C1468 1.490 . S
C1464 H1454 0.930 . S
C1464 C1463 1.400 . S
C1464 C1467 1.386 . S
H1465 C1481 0.930 . S
H1466 C1482 0.931 . S
C1467 H1455 0.929 . S
C1467 C1461 1.390 . S
C1467 C1464 1.386 . S
C1468 C1463 1.490 . S
C1468 C1470 1.395 . S
C1468 C1471 1.403 . S
H1469 C1475 0.930 . S
C1470 H1456 0.930 . S
C1470 C1468 1.395 . S
C1470 C1473 1.403 . S
C1471 C1468 1.403 . S
C1471 C1472 1.524 . S
C1471 C1475 1.400 . S
C1472 H1457 0.960 . S
C1472 H1458 0.960 . S
C1472 H1459 0.960 . S
C1472 C1471 1.524 . S
C1473 C1470 1.403 . S
C1473 C1474 1.392 . S
C1473 C1477 1.495 . S
C1474 C1473 1.392 . S
C1474 C1475 1.385 . S
C1474 C1476 1.478 . S
C1475 H1469 0.930 . S
C1475 C1471 1.400 . S
C1475 C1474 1.385 . S
C1476 C1474 1.478 . S
C1476 C1478 1.381 . S
C1476 C1482 1.383 . S
C1477 C1473 1.495 . S
C1477 H1483 0.959 . S
C1477 H1484 0.961 . S
C1477 H1485 0.960 . S
C1478 C1476 1.381 . S
C1478 C1479 1.394 . S
C1478 H1486 0.930 . S
C1479 C1478 1.394 . S
C1479 C1480 1.383 . S
C1479 H1487 0.929 . S
C1480 C1479 1.383 . S
C1480 C1481 1.377 . S
C1481 H1465 0.930 . S
C1481 C1480 1.377 . S
C1481 C1482 1.379 . S
C1482 H1466 0.931 . S
C1482 C1476 1.383 . S
C1482 C1481 1.379 . S
H1483 C1477 0.959 . S
H1484 C1477 0.961 . S
H1485 C1477 0.960 . S
H1486 C1478 0.930 . S
H1487 C1479 0.929 . S
H1488 C1496 0.929 . S
H1489 C1498 0.930 . S
H1490 C1500 0.930 . S
H1491 C1503 0.929 . S
H1492 C1506 0.930 . S
H1493 C1508 0.960 . S
H1494 C1508 0.960 . S
H1495 C1508 0.960 . S
C1496 H1488 0.929 . S
C1496 C1497 1.377 . S
C1496 C1498 1.384 . S
C1497 C1496 1.377 . S
C1497 C1503 1.390 . S
C1498 H1489 0.930 . S
C1498 C1496 1.384 . S
C1498 C1499 1.372 . S
C1499 C1498 1.372 . S
C1499 C1500 1.400 . S
C1499 C1504 1.490 . S
C1500 H1490 0.930 . S
C1500 C1499 1.400 . S
C1500 C1503 1.386 . S
H1501 C1517 0.930 . S
H1502 C1518 0.931 . S
C1503 H1491 0.929 . S
C1503 C1497 1.390 . S
C1503 C1500 1.386 . S
C1504 C1499 1.490 . S
C1504 C1506 1.395 . S
C1504 C1507 1.403 . S
H1505 C1511 0.930 . S
C1506 H1492 0.930 . S
C1506 C1504 1.395 . S
C1506 C1509 1.403 . S
C1507 C1504 1.403 . S
C1507 C1508 1.524 . S
C1507 C1511 1.400 . S
C1508 H1493 0.960 . S
C1508 H1494 0.960 . S
C1508 H1495 0.960 . S
C1508 C1507 1.524 . S
C1509 C1506 1.403 . S
C1509 C1510 1.392 . S
C1509 C1513 1.495 . S
C1510 C1509 1.392 . S
C1510 C1511 1.385 . S
C1510 C1512 1.478 . S
C1511 H1505 0.930 . S
C1511 C1507 1.400 . S
C1511 C1510 1.385 . S
C1512 C1510 1.478 . S
C1512 C1514 1.381 . S
C1512 C1518 1.383 . S
C1513 C1509 1.495 . S
C1513 H1519 0.959 . S
C1513 H1520 0.961 . S
C1513 H1521 0.960 . S
C1514 C1512 1.381 . S
C1514 C1515 1.394 . S
C1514 H1522 0.930 . S
C1515 C1514 1.394 . S
C1515 C1516 1.383 . S
C1515 H1523 0.929 . S
C1516 C1515 1.383 . S
C1516 C1517 1.377 . S
C1517 H1501 0.930 . S
C1517 C1516 1.377 . S
C1517 C1518 1.379 . S
C1518 H1502 0.931 . S
C1518 C1512 1.383 . S
C1518 C1517 1.379 . S
H1519 C1513 0.959 . S
H1520 C1513 0.961 . S
H1521 C1513 0.960 . S
H1522 C1514 0.930 . S
H1523 C1515 0.929 . S
H1524 C1532 0.929 . S
H1525 C1534 0.930 . S
H1526 C1536 0.930 . S
H1527 C1539 0.929 . S
H1528 C1542 0.930 . S
H1529 C1544 0.960 . S
H1530 C1544 0.960 . S
H1531 C1544 0.960 . S
C1532 H1524 0.929 . S
C1532 C1533 1.377 . S
C1532 C1534 1.384 . S
C1533 C1532 1.377 . S
C1533 C1539 1.390 . S
C1534 H1525 0.930 . S
C1534 C1532 1.384 . S
C1534 C1535 1.372 . S
C1535 C1534 1.372 . S
C1535 C1536 1.400 . S
C1535 C1540 1.490 . S
C1536 H1526 0.930 . S
C1536 C1535 1.400 . S
C1536 C1539 1.386 . S
H1537 C1553 0.930 . S
H1538 C1554 0.931 . S
C1539 H1527 0.929 . S
C1539 C1533 1.390 . S
C1539 C1536 1.386 . S
C1540 C1535 1.490 . S
C1540 C1542 1.395 . S
C1540 C1543 1.403 . S
H1541 C1547 0.930 . S
C1542 H1528 0.930 . S
C1542 C1540 1.395 . S
C1542 C1545 1.403 . S
C1543 C1540 1.403 . S
C1543 C1544 1.524 . S
C1543 C1547 1.400 . S
C1544 H1529 0.960 . S
C1544 H1530 0.960 . S
C1544 H1531 0.960 . S
C1544 C1543 1.524 . S
C1545 C1542 1.403 . S
C1545 C1546 1.392 . S
C1545 C1549 1.495 . S
C1546 C1545 1.392 . S
C1546 C1547 1.385 . S
C1546 C1548 1.478 . S
C1547 H1541 0.930 . S
C1547 C1543 1.400 . S
C1547 C1546 1.385 . S
C1548 C1546 1.478 . S
C1548 C1550 1.381 . S
C1548 C1554 1.383 . S
C1549 C1545 1.495 . S
C1549 H1555 0.959 . S
C1549 H1556 0.961 . S
C1549 H1557 0.960 . S
C1550 C1548 1.381 . S
C1550 C1551 1.394 . S
C1550 H1558 0.930 . S
C1551 C1550 1.394 . S
C1551 C1552 1.383 . S
C1551 H1559 0.929 . S
C1552 C1551 1.383 . S
C1552 C1553 1.377 . S
C1553 H1537 0.930 . S
C1553 C1552 1.377 . S
C1553 C1554 1.379 . S
C1554 H1538 0.931 . S
C1554 C1548 1.383 . S
C1554 C1553 1.379 . S
H1555 C1549 0.959 . S
H1556 C1549 0.961 . S
H1557 C1549 0.960 . S
H1558 C1550 0.930 . S
H1559 C1551 0.929 . S
H1560 C1568 0.929 . S
H1561 C1570 0.930 . S
H1562 C1572 0.930 . S
H1563 C1575 0.929 . S
H1564 C1578 0.930 . S
H1565 C1580 0.960 . S
H1566 C1580 0.960 . S
H1567 C1580 0.960 . S
C1568 H1560 0.929 . S
C1568 C1569 1.377 . S
C1568 C1570 1.384 . S
C1569 C1568 1.377 . S
C1569 C1575 1.390 . S
C1570 H1561 0.930 . S
C1570 C1568 1.384 . S
C1570 C1571 1.372 . S
C1571 C1570 1.372 . S
C1571 C1572 1.400 . S
C1571 C1576 1.490 . S
C1572 H1562 0.930 . S
C1572 C1571 1.400 . S
C1572 C1575 1.386 . S
H1573 C1589 0.930 . S
H1574 C1590 0.931 . S
C1575 H1563 0.929 . S
C1575 C1569 1.390 . S
C1575 C1572 1.386 . S
C1576 C1571 1.490 . S
C1576 C1578 1.395 . S
C1576 C1579 1.403 . S
H1577 C1583 0.930 . S
C1578 H1564 0.930 . S
C1578 C1576 1.395 . S
C1578 C1581 1.403 . S
C1579 C1576 1.403 . S
C1579 C1580 1.524 . S
C1579 C1583 1.400 . S
C1580 H1565 0.960 . S
C1580 H1566 0.960 . S
C1580 H1567 0.960 . S
C1580 C1579 1.524 . S
C1581 C1578 1.403 . S
C1581 C1582 1.392 . S
C1581 C1585 1.495 . S
C1582 C1581 1.392 . S
C1582 C1583 1.385 . S
C1582 C1584 1.478 . S
C1583 H1577 0.930 . S
C1583 C1579 1.400 . S
C1583 C1582 1.385 . S
C1584 C1582 1.478 . S
C1584 C1586 1.381 . S
C1584 C1590 1.383 . S
C1585 C1581 1.495 . S
C1585 H1591 0.959 . S
C1585 H1592 0.961 . S
C1585 H1593 0.960 . S
C1586 C1584 1.381 . S
C1586 C1587 1.394 . S
C1586 H1594 0.930 . S
C1587 C1586 1.394 . S
C1587 C1588 1.383 . S
C1587 H1595 0.929 . S
C1588 C1587 1.383 . S
C1588 C1589 1.377 . S
C1589 H1573 0.930 . S
C1589 C1588 1.377 . S
C1589 C1590 1.379 . S
C1590 H1574 0.931 . S
C1590 C1584 1.383 . S
C1590 C1589 1.379 . S
H1591 C1585 0.959 . S
H1592 C1585 0.961 . S
H1593 C1585 0.960 . S
H1594 C1586 0.930 . S
H1595 C1587 0.929 . S
H1596 C1604 0.929 . S
H1597 C1606 0.930 . S
H1598 C1608 0.930 . S
H1599 C1611 0.929 . S
H1600 C1614 0.930 . S
H1601 C1616 0.960 . S
H1602 C1616 0.960 . S
H1603 C1616 0.960 . S
C1604 H1596 0.929 . S
C1604 C1605 1.377 . S
C1604 C1606 1.384 . S
C1605 C1604 1.377 . S
C1605 C1611 1.390 . S
C1606 H1597 0.930 . S
C1606 C1604 1.384 . S
C1606 C1607 1.372 . S
C1607 C1606 1.372 . S
C1607 C1608 1.400 . S
C1607 C1612 1.490 . S
C1608 H1598 0.930 . S
C1608 C1607 1.400 . S
C1608 C1611 1.386 . S
H1609 C1625 0.930 . S
H1610 C1626 0.931 . S
C1611 H1599 0.929 . S
C1611 C1605 1.390 . S
C1611 C1608 1.386 . S
C1612 C1607 1.490 . S
C1612 C1614 1.395 . S
C1612 C1615 1.403 . S
H1613 C1619 0.930 . S
C1614 H1600 0.930 . S
C1614 C1612 1.395 . S
C1614 C1617 1.403 . S
C1615 C1612 1.403 . S
C1615 C1616 1.524 . S
C1615 C1619 1.400 . S
C1616 H1601 0.960 . S
C1616 H1602 0.960 . S
C1616 H1603 0.960 . S
C1616 C1615 1.524 . S
C1617 C1614 1.403 . S
C1617 C1618 1.392 . S
C1617 C1621 1.495 . S
C1618 C1617 1.392 . S
C1618 C1619 1.385 . S
C1618 C1620 1.478 . S
C1619 H1613 0.930 . S
C1619 C1615 1.400 . S
C1619 C1618 1.385 . S
C1620 C1618 1.478 . S
C1620 C1622 1.381 . S
C1620 C1626 1.383 . S
C1621 C1617 1.495 . S
C1621 H1627 0.959 . S
C1621 H1628 0.961 . S
C1621 H1629 0.960 . S
C1622 C1620 1.381 . S
C1622 C1623 1.394 . S
C1622 H1630 0.930 . S
C1623 C1622 1.394 . S
C1623 C1624 1.383 . S
C1623 H1631 0.929 . S
C1624 C1623 1.383 . S
C1624 C1625 1.377 . S
C1625 H1609 0.930 . S
C1625 C1624 1.377 . S
C1625 C1626 1.379 . S
C1626 H1610 0.931 . S
C1626 C1620 1.383 . S
C1626 C1625 1.379 . S
H1627 C1621 0.959 . S
H1628 C1621 0.961 . S
H1629 C1621 0.960 . S
H1630 C1622 0.930 . S
H1631 C1623 0.929 . S
H1632 C1640 0.929 . S
H1633 C1642 0.930 . S
H1634 C1644 0.930 . S
H1635 C1647 0.929 . S
H1636 C1650 0.930 . S
H1637 C1652 0.960 . S
H1638 C1652 0.960 . S
H1639 C1652 0.960 . S
C1640 H1632 0.929 . S
C1640 C1641 1.377 . S
C1640 C1642 1.384 . S
C1641 C1640 1.377 . S
C1641 C1647 1.390 . S
C1642 H1633 0.930 . S
C1642 C1640 1.384 . S
C1642 C1643 1.372 . S
C1643 C1642 1.372 . S
C1643 C1644 1.400 . S
C1643 C1648 1.490 . S
C1644 H1634 0.930 . S
C1644 C1643 1.400 . S
C1644 C1647 1.386 . S
H1645 C1661 0.930 . S
H1646 C1662 0.931 . S
C1647 H1635 0.929 . S
C1647 C1641 1.390 . S
C1647 C1644 1.386 . S
C1648 C1643 1.490 . S
C1648 C1650 1.395 . S
C1648 C1651 1.403 . S
H1649 C1655 0.930 . S
C1650 H1636 0.930 . S
C1650 C1648 1.395 . S
C1650 C1653 1.403 . S
C1651 C1648 1.403 . S
C1651 C1652 1.524 . S
C1651 C1655 1.400 . S
C1652 H1637 0.960 . S
C1652 H1638 0.960 . S
C1652 H1639 0.960 . S
C1652 C1651 1.524 . S
C1653 C1650 1.403 . S
C1653 C1654 1.392 . S
C1653 C1657 1.495 . S
C1654 C1653 1.392 . S
C1654 C1655 1.385 . S
C1654 C1656 1.478 . S
C1655 H1649 0.930 . S
C1655 C1651 1.400 . S
C1655 C1654 1.385 . S
C1656 C1654 1.478 . S
C1656 C1658 1.381 . S
C1656 C1662 1.383 . S
C1657 C1653 1.495 . S
C1657 H1663 0.959 . S
C1657 H1664 0.961 . S
C1657 H1665 0.960 . S
C1658 C1656 1.381 . S
C1658 C1659 1.394 . S
C1658 H1666 0.930 . S
C1659 C1658 1.394 . S
C1659 C1660 1.383 . S
C1659 H1667 0.929 . S
C1660 C1659 1.383 . S
C1660 C1661 1.377 . S
C1661 H1645 0.930 . S
C1661 C1660 1.377 . S
C1661 C1662 1.379 . S
C1662 H1646 0.931 . S
C1662 C1656 1.383 . S
C1662 C1661 1.379 . S
H1663 C1657 0.959 . S
H1664 C1657 0.961 . S
H1665 C1657 0.960 . S
H1666 C1658 0.930 . S
H1667 C1659 0.929 . S
H1668 C1676 0.929 . S
H1669 C1678 0.930 . S
H1670 C1680 0.930 . S
H1671 C1683 0.929 . S
H1672 C1686 0.930 . S
H1673 C1688 0.960 . S
H1674 C1688 0.960 . S
H1675 C1688 0.960 . S
C1676 H1668 0.929 . S
C1676 C1677 1.377 . S
C1676 C1678 1.384 . S
C1677 C1676 1.377 . S
C1677 C1683 1.390 . S
C1678 H1669 0.930 . S
C1678 C1676 1.384 . S
C1678 C1679 1.372 . S
C1679 C1678 1.372 . S
C1679 C1680 1.400 . S
C1679 C1684 1.490 . S
C1680 H1670 0.930 . S
C1680 C1679 1.400 . S
C1680 C1683 1.386 . S
H1681 C1697 0.930 . S
H1682 C1698 0.931 . S
C1683 H1671 0.929 . S
C1683 C1677 1.390 . S
C1683 C1680 1.386 . S
C1684 C1679 1.490 . S
C1684 C1686 1.395 . S
C1684 C1687 1.403 . S
H1685 C1691 0.930 . S
C1686 H1672 0.930 . S
C1686 C1684 1.395 . S
C1686 C1689 1.403 . S
C1687 C1684 1.403 . S
C1687 C1688 1.524 . S
C1687 C1691 1.400 . S
C1688 H1673 0.960 . S
C1688 H1674 0.960 . S
C1688 H1675 0.960 . S
C1688 C1687 1.524 . S
C1689 C1686 1.403 . S
C1689 C1690 1.392 . S
C1689 C1693 1.495 . S
C1690 C1689 1.392 . S
C1690 C1691 1.385 . S
C1690 C1692 1.478 . S
C1691 H1685 0.930 . S
C1691 C1687 1.400 . S
C1691 C1690 1.385 . S
C1692 C1690 1.478 . S
C1692 C1694 1.381 . S
C1692 C1698 1.383 . S
C1693 C1689 1.495 . S
C1693 H1699 0.959 . S
C1693 H1700 0.961 . S
C1693 H1701 0.960 . S
C1694 C1692 1.381 . S
C1694 C1695 1.394 . S
C1694 H1702 0.930 . S
C1695 C1694 1.394 . S
C1695 C1696 1.383 . S
C1695 H1703 0.929 . S
C1696 C1695 1.383 . S
C1696 C1697 1.377 . S
C1697 H1681 0.930 . S
C1697 C1696 1.377 . S
C1697 C1698 1.379 . S
C1698 H1682 0.931 . S
C1698 C1692 1.383 . S
C1698 C1697 1.379 . S
H1699 C1693 0.959 . S
H1700 C1693 0.961 . S
H1701 C1693 0.960 . S
H1702 C1694 0.930 . S
H1703 C1695 0.929 . S
H1704 C1712 0.929 . S
H1705 C1714 0.930 . S
H1706 C1716 0.930 . S
H1707 C1719 0.929 . S
H1708 C1722 0.930 . S
H1709 C1724 0.960 . S
H1710 C1724 0.960 . S
H1711 C1724 0.960 . S
C1712 H1704 0.929 . S
C1712 C1713 1.377 . S
C1712 C1714 1.384 . S
C1713 C1712 1.377 . S
C1713 C1719 1.390 . S
C1714 H1705 0.930 . S
C1714 C1712 1.384 . S
C1714 C1715 1.372 . S
C1715 C1714 1.372 . S
C1715 C1716 1.400 . S
C1715 C1720 1.490 . S
C1716 H1706 0.930 . S
C1716 C1715 1.400 . S
C1716 C1719 1.386 . S
H1717 C1733 0.930 . S
H1718 C1734 0.931 . S
C1719 H1707 0.929 . S
C1719 C1713 1.390 . S
C1719 C1716 1.386 . S
C1720 C1715 1.490 . S
C1720 C1722 1.395 . S
C1720 C1723 1.403 . S
H1721 C1727 0.930 . S
C1722 H1708 0.930 . S
C1722 C1720 1.395 . S
C1722 C1725 1.403 . S
C1723 C1720 1.403 . S
C1723 C1724 1.524 . S
C1723 C1727 1.400 . S
C1724 H1709 0.960 . S
C1724 H1710 0.960 . S
C1724 H1711 0.960 . S
C1724 C1723 1.524 . S
C1725 C1722 1.403 . S
C1725 C1726 1.392 . S
C1725 C1729 1.495 . S
C1726 C1725 1.392 . S
C1726 C1727 1.385 . S
C1726 C1728 1.478 . S
C1727 H1721 0.930 . S
C1727 C1723 1.400 . S
C1727 C1726 1.385 . S
C1728 C1726 1.478 . S
C1728 C1730 1.381 . S
C1728 C1734 1.383 . S
C1729 C1725 1.495 . S
C1729 H1735 0.959 . S
C1729 H1736 0.961 . S
C1729 H1737 0.960 . S
C1730 C1728 1.381 . S
C1730 C1731 1.394 . S
C1730 H1738 0.930 . S
C1731 C1730 1.394 . S
C1731 C1732 1.383 . S
C1731 H1739 0.929 . S
C1732 C1731 1.383 . S
C1732 C1733 1.377 . S
C1733 H1717 0.930 . S
C1733 C1732 1.377 . S
C1733 C1734 1.379 . S
C1734 H1718 0.931 . S
C1734 C1728 1.383 . S
C1734 C1733 1.379 . S
H1735 C1729 0.959 . S
H1736 C1729 0.961 . S
H1737 C1729 0.960 . S
H1738 C1730 0.930 . S
H1739 C1731 0.929 . S
H1740 C1748 0.929 . S
H1741 C1750 0.930 . S
H1742 C1752 0.930 . S
H1743 C1755 0.929 . S
H1744 C1758 0.930 . S
H1745 C1760 0.960 . S
H1746 C1760 0.960 . S
H1747 C1760 0.960 . S
C1748 H1740 0.929 . S
C1748 C1749 1.377 . S
C1748 C1750 1.384 . S
C1749 C1748 1.377 . S
C1749 C1755 1.390 . S
C1750 H1741 0.930 . S
C1750 C1748 1.384 . S
C1750 C1751 1.372 . S
C1751 C1750 1.372 . S
C1751 C1752 1.400 . S
C1751 C1756 1.490 . S
C1752 H1742 0.930 . S
C1752 C1751 1.400 . S
C1752 C1755 1.386 . S
H1753 C1769 0.930 . S
H1754 C1770 0.931 . S
C1755 H1743 0.929 . S
C1755 C1749 1.390 . S
C1755 C1752 1.386 . S
C1756 C1751 1.490 . S
C1756 C1758 1.395 . S
C1756 C1759 1.403 . S
H1757 C1763 0.930 . S
C1758 H1744 0.930 . S
C1758 C1756 1.395 . S
C1758 C1761 1.403 . S
C1759 C1756 1.403 . S
C1759 C1760 1.524 . S
C1759 C1763 1.400 . S
C1760 H1745 0.960 . S
C1760 H1746 0.960 . S
C1760 H1747 0.960 . S
C1760 C1759 1.524 . S
C1761 C1758 1.403 . S
C1761 C1762 1.392 . S
C1761 C1765 1.495 . S
C1762 C1761 1.392 . S
C1762 C1763 1.385 . S
C1762 C1764 1.478 . S
C1763 H1757 0.930 . S
C1763 C1759 1.400 . S
C1763 C1762 1.385 . S
C1764 C1762 1.478 . S
C1764 C1766 1.381 . S
C1764 C1770 1.383 . S
C1765 C1761 1.495 . S
C1765 H1771 0.959 . S
C1765 H1772 0.961 . S
C1765 H1773 0.960 . S
C1766 C1764 1.381 . S
C1766 C1767 1.394 . S
C1766 H1774 0.930 . S
C1767 C1766 1.394 . S
C1767 C1768 1.383 . S
C1767 H1775 0.929 . S
C1768 C1767 1.383 . S
C1768 C1769 1.377 . S
C1769 H1753 0.930 . S
C1769 C1768 1.377 . S
C1769 C1770 1.379 . S
C1770 H1754 0.931 . S
C1770 C1764 1.383 . S
C1770 C1769 1.379 . S
H1771 C1765 0.959 . S
H1772 C1765 0.961 . S
H1773 C1765 0.960 . S
H1774 C1766 0.930 . S
H1775 C1767 0.929 . S
H1776 C1784 0.929 . S
H1777 C1786 0.930 . S
H1778 C1788 0.930 . S
H1779 C1791 0.929 . S
H1780 C1794 0.930 . S
H1781 C1796 0.960 . S
H1782 C1796 0.960 . S
H1783 C1796 0.960 . S
C1784 H1776 0.929 . S
C1784 C1785 1.377 . S
C1784 C1786 1.384 . S
C1785 C1784 1.377 . S
C1785 C1791 1.390 . S
C1786 H1777 0.930 . S
C1786 C1784 1.384 . S
C1786 C1787 1.372 . S
C1787 C1786 1.372 . S
C1787 C1788 1.400 . S
C1787 C1792 1.490 . S
C1788 H1778 0.930 . S
C1788 C1787 1.400 . S
C1788 C1791 1.386 . S
H1789 C1805 0.930 . S
H1790 C1806 0.931 . S
C1791 H1779 0.929 . S
C1791 C1785 1.390 . S
C1791 C1788 1.386 . S
C1792 C1787 1.490 . S
C1792 C1794 1.395 . S
C1792 C1795 1.403 . S
H1793 C1799 0.930 . S
C1794 H1780 0.930 . S
C1794 C1792 1.395 . S
C1794 C1797 1.403 . S
C1795 C1792 1.403 . S
C1795 C1796 1.524 . S
C1795 C1799 1.400 . S
C1796 H1781 0.960 . S
C1796 H1782 0.960 . S
C1796 H1783 0.960 . S
C1796 C1795 1.524 . S
C1797 C1794 1.403 . S
C1797 C1798 1.392 . S
C1797 C1801 1.495 . S
C1798 C1797 1.392 . S
C1798 C1799 1.385 . S
C1798 C1800 1.478 . S
C1799 H1793 0.930 . S
C1799 C1795 1.400 . S
C1799 C1798 1.385 . S
C1800 C1798 1.478 . S
C1800 C1802 1.381 . S
C1800 C1806 1.383 . S
C1801 C1797 1.495 . S
C1801 H1807 0.959 . S
C1801 H1808 0.961 . S
C1801 H1809 0.960 . S
C1802 C1800 1.381 . S
C1802 C1803 1.394 . S
C1802 H1810 0.930 . S
C1803 C1802 1.394 . S
C1803 C1804 1.383 . S
C1803 H1811 0.929 . S
C1804 C1803 1.383 . S
C1804 C1805 1.377 . S
C1805 H1789 0.930 . S
C1805 C1804 1.377 . S
C1805 C1806 1.379 . S
C1806 H1790 0.931 . S
C1806 C1800 1.383 . S
C1806 C1805 1.379 . S
H1807 C1801 0.959 . S
H1808 C1801 0.961 . S
H1809 C1801 0.960 . S
H1810 C1802 0.930 . S
H1811 C1803 0.929 . S
H1812 C1820 0.929 . S
H1813 C1822 0.930 . S
H1814 C1824 0.930 . S
H1815 C1827 0.929 . S
H1816 C1830 0.930 . S
H1817 C1832 0.960 . S
H1818 C1832 0.960 . S
H1819 C1832 0.960 . S
C1820 H1812 0.929 . S
C1820 C1821 1.377 . S
C1820 C1822 1.384 . S
C1821 C1820 1.377 . S
C1821 C1827 1.390 . S
C1822 H1813 0.930 . S
C1822 C1820 1.384 . S
C1822 C1823 1.372 . S
C1823 C1822 1.372 . S
C1823 C1824 1.400 . S
C1823 C1828 1.490 . S
C1824 H1814 0.930 . S
C1824 C1823 1.400 . S
C1824 C1827 1.386 . S
H1825 C1841 0.930 . S
H1826 C1842 0.931 . S
C1827 H1815 0.929 . S
C1827 C1821 1.390 . S
C1827 C1824 1.386 . S
C1828 C1823 1.490 . S
C1828 C1830 1.395 . S
C1828 C1831 1.403 . S
H1829 C1835 0.930 . S
C1830 H1816 0.930 . S
C1830 C1828 1.395 . S
C1830 C1833 1.403 . S
C1831 C1828 1.403 . S
C1831 C1832 1.524 . S
C1831 C1835 1.400 . S
C1832 H1817 0.960 . S
C1832 H1818 0.960 . S
C1832 H1819 0.960 . S
C1832 C1831 1.524 . S
C1833 C1830 1.403 . S
C1833 C1834 1.392 . S
C1833 C1837 1.495 . S
C1834 C1833 1.392 . S
C1834 C1835 1.385 . S
C1834 C1836 1.478 . S
C1835 H1829 0.930 . S
C1835 C1831 1.400 . S
C1835 C1834 1.385 . S
C1836 C1834 1.478 . S
C1836 C1838 1.381 . S
C1836 C1842 1.383 . S
C1837 C1833 1.495 . S
C1837 H1843 0.959 . S
C1837 H1844 0.961 . S
C1837 H1845 0.960 . S
C1838 C1836 1.381 . S
C1838 C1839 1.394 . S
C1838 H1846 0.930 . S
C1839 C1838 1.394 . S
C1839 C1840 1.383 . S
C1839 H1847 0.929 . S
C1840 C1839 1.383 . S
C1840 C1841 1.377 . S
C1841 H1825 0.930 . S
C1841 C1840 1.377 . S
C1841 C1842 1.379 . S
C1842 H1826 0.931 . S
C1842 C1836 1.383 . S
C1842 C1841 1.379 . S
H1843 C1837 0.959 . S
H1844 C1837 0.961 . S
H1845 C1837 0.960 . S
H1846 C1838 0.930 . S
H1847 C1839 0.929 . S
H1848 C1856 0.929 . S
H1849 C1858 0.930 . S
H1850 C1860 0.930 . S
H1851 C1863 0.929 . S
H1852 C1866 0.930 . S
H1853 C1868 0.960 . S
H1854 C1868 0.960 . S
H1855 C1868 0.960 . S
C1856 H1848 0.929 . S
C1856 C1857 1.377 . S
C1856 C1858 1.384 . S
C1857 C1856 1.377 . S
C1857 C1863 1.390 . S
C1858 H1849 0.930 . S
C1858 C1856 1.384 . S
C1858 C1859 1.372 . S
C1859 C1858 1.372 . S
C1859 C1860 1.400 . S
C1859 C1864 1.490 . S
C1860 H1850 0.930 . S
C1860 C1859 1.400 . S
C1860 C1863 1.386 . S
H1861 C1877 0.930 . S
H1862 C1878 0.931 . S
C1863 H1851 0.929 . S
C1863 C1857 1.390 . S
C1863 C1860 1.386 . S
C1864 C1859 1.490 . S
C1864 C1866 1.395 . S
C1864 C1867 1.403 . S
H1865 C1871 0.930 . S
C1866 H1852 0.930 . S
C1866 C1864 1.395 . S
C1866 C1869 1.403 . S
C1867 C1864 1.403 . S
C1867 C1868 1.524 . S
C1867 C1871 1.400 . S
C1868 H1853 0.960 . S
C1868 H1854 0.960 . S
C1868 H1855 0.960 . S
C1868 C1867 1.524 . S
C1869 C1866 1.403 . S
C1869 C1870 1.392 . S
C1869 C1873 1.495 . S
C1870 C1869 1.392 . S
C1870 C1871 1.385 . S
C1870 C1872 1.478 . S
C1871 H1865 0.930 . S
C1871 C1867 1.400 . S
C1871 C1870 1.385 . S
C1872 C1870 1.478 . S
C1872 C1874 1.381 . S
C1872 C1878 1.383 . S
C1873 C1869 1.495 . S
C1873 H1879 0.959 . S
C1873 H1880 0.961 . S
C1873 H1881 0.960 . S
C1874 C1872 1.381 . S
C1874 C1875 1.394 . S
C1874 H1882 0.930 . S
C1875 C1874 1.394 . S
C1875 C1876 1.383 . S
C1875 H1883 0.929 . S
C1876 C1875 1.383 . S
C1876 C1877 1.377 . S
C1877 H1861 0.930 . S
C1877 C1876 1.377 . S
C1877 C1878 1.379 . S
C1878 H1862 0.931 . S
C1878 C1872 1.383 . S
C1878 C1877 1.379 . S
H1879 C1873 0.959 . S
H1880 C1873 0.961 . S
H1881 C1873 0.960 . S
H1882 C1874 0.930 . S
H1883 C1875 0.929 . S
H1884 C1892 0.929 . S
H1885 C1894 0.930 . S
H1886 C1896 0.930 . S
H1887 C1899 0.929 . S
H1888 C1902 0.930 . S
H1889 C1904 0.960 . S
H1890 C1904 0.960 . S
H1891 C1904 0.960 . S
C1892 H1884 0.929 . S
C1892 C1893 1.377 . S
C1892 C1894 1.384 . S
C1893 C1892 1.377 . S
C1893 C1899 1.390 . S
C1894 H1885 0.930 . S
C1894 C1892 1.384 . S
C1894 C1895 1.372 . S
C1895 C1894 1.372 . S
C1895 C1896 1.400 . S
C1895 C1900 1.490 . S
C1896 H1886 0.930 . S
C1896 C1895 1.400 . S
C1896 C1899 1.386 . S
H1897 C1913 0.930 . S
H1898 C1914 0.931 . S
C1899 H1887 0.929 . S
C1899 C1893 1.390 . S
C1899 C1896 1.386 . S
C1900 C1895 1.490 . S
C1900 C1902 1.395 . S
C1900 C1903 1.403 . S
H1901 C1907 0.930 . S
C1902 H1888 0.930 . S
C1902 C1900 1.395 . S
C1902 C1905 1.403 . S
C1903 C1900 1.403 . S
C1903 C1904 1.524 . S
C1903 C1907 1.400 . S
C1904 H1889 0.960 . S
C1904 H1890 0.960 . S
C1904 H1891 0.960 . S
C1904 C1903 1.524 . S
C1905 C1902 1.403 . S
C1905 C1906 1.392 . S
C1905 C1909 1.495 . S
C1906 C1905 1.392 . S
C1906 C1907 1.385 . S
C1906 C1908 1.478 . S
C1907 H1901 0.930 . S
C1907 C1903 1.400 . S
C1907 C1906 1.385 . S
C1908 C1906 1.478 . S
C1908 C1910 1.381 . S
C1908 C1914 1.383 . S
C1909 C1905 1.495 . S
C1909 H1915 0.959 . S
C1909 H1916 0.961 . S
C1909 H1917 0.960 . S
C1910 C1908 1.381 . S
C1910 C1911 1.394 . S
C1910 H1918 0.930 . S
C1911 C1910 1.394 . S
C1911 C1912 1.383 . S
C1911 H1919 0.929 . S
C1912 C1911 1.383 . S
C1912 C1913 1.377 . S
C1913 H1897 0.930 . S
C1913 C1912 1.377 . S
C1913 C1914 1.379 . S
C1914 H1898 0.931 . S
C1914 C1908 1.383 . S
C1914 C1913 1.379 . S
H1915 C1909 0.959 . S
H1916 C1909 0.961 . S
H1917 C1909 0.960 . S
H1918 C1910 0.930 . S
H1919 C1911 0.929 . S
H1920 C1928 0.929 . S
H1921 C1930 0.930 . S
H1922 C1932 0.930 . S
H1923 C1935 0.929 . S
H1924 C1938 0.930 . S
H1925 C1940 0.960 . S
H1926 C1940 0.960 . S
H1927 C1940 0.960 . S
C1928 H1920 0.929 . S
C1928 C1929 1.377 . S
C1928 C1930 1.384 . S
C1929 C1928 1.377 . S
C1929 C1935 1.390 . S
C1930 H1921 0.930 . S
C1930 C1928 1.384 . S
C1930 C1931 1.372 . S
C1931 C1930 1.372 . S
C1931 C1932 1.400 . S
C1931 C1936 1.490 . S
C1932 H1922 0.930 . S
C1932 C1931 1.400 . S
C1932 C1935 1.386 . S
H1933 C1949 0.930 . S
H1934 C1950 0.931 . S
C1935 H1923 0.929 . S
C1935 C1929 1.390 . S
C1935 C1932 1.386 . S
C1936 C1931 1.490 . S
C1936 C1938 1.395 . S
C1936 C1939 1.403 . S
H1937 C1943 0.930 . S
C1938 H1924 0.930 . S
C1938 C1936 1.395 . S
C1938 C1941 1.403 . S
C1939 C1936 1.403 . S
C1939 C1940 1.524 . S
C1939 C1943 1.400 . S
C1940 H1925 0.960 . S
C1940 H1926 0.960 . S
C1940 H1927 0.960 . S
C1940 C1939 1.524 . S
C1941 C1938 1.403 . S
C1941 C1942 1.392 . S
C1941 C1945 1.495 . S
C1942 C1941 1.392 . S
C1942 C1943 1.385 . S
C1942 C1944 1.478 . S
C1943 H1937 0.930 . S
C1943 C1939 1.400 . S
C1943 C1942 1.385 . S
C1944 C1942 1.478 . S
C1944 C1946 1.381 . S
C1944 C1950 1.383 . S
C1945 C1941 1.495 . S
C1945 H1951 0.959 . S
C1945 H1952 0.961 . S
C1945 H1953 0.960 . S
C1946 C1944 1.381 . S
C1946 C1947 1.394 . S
C1946 H1954 0.930 . S
C1947 C1946 1.394 . S
C1947 C1948 1.383 . S
C1947 H1955 0.929 . S
C1948 C1947 1.383 . S
C1948 C1949 1.377 . S
C1949 H1933 0.930 . S
C1949 C1948 1.377 . S
C1949 C1950 1.379 . S
C1950 H1934 0.931 . S
C1950 C1944 1.383 . S
C1950 C1949 1.379 . S
H1951 C1945 0.959 . S
H1952 C1945 0.961 . S
H1953 C1945 0.960 . S
H1954 C1946 0.930 . S
H1955 C1947 0.929 . S
H1956 C1964 0.929 . S
H1957 C1966 0.930 . S
H1958 C1968 0.930 . S
H1959 C1971 0.929 . S
H1960 C1974 0.930 . S
H1961 C1976 0.960 . S
H1962 C1976 0.960 . S
H1963 C1976 0.960 . S
C1964 H1956 0.929 . S
C1964 C1965 1.377 . S
C1964 C1966 1.384 . S
C1965 C1964 1.377 . S
C1965 C1971 1.390 . S
C1966 H1957 0.930 . S
C1966 C1964 1.384 . S
C1966 C1967 1.372 . S
C1967 C1966 1.372 . S
C1967 C1968 1.400 . S
C1967 C1972 1.490 . S
C1968 H1958 0.930 . S
C1968 C1967 1.400 . S
C1968 C1971 1.386 . S
H1969 C1985 0.930 . S
H1970 C1986 0.931 . S
C1971 H1959 0.929 . S
C1971 C1965 1.390 . S
C1971 C1968 1.386 . S
C1972 C1967 1.490 . S
C1972 C1974 1.395 . S
C1972 C1975 1.403 . S
H1973 C1979 0.930 . S
C1974 H1960 0.930 . S
C1974 C1972 1.395 . S
C1974 C1977 1.403 . S
C1975 C1972 1.403 . S
C1975 C1976 1.524 . S
C1975 C1979 1.400 . S
C1976 H1961 0.960 . S
C1976 H1962 0.960 . S
C1976 H1963 0.960 . S
C1976 C1975 1.524 . S
C1977 C1974 1.403 . S
C1977 C1978 1.392 . S
C1977 C1981 1.495 . S
C1978 C1977 1.392 . S
C1978 C1979 1.385 . S
C1978 C1980 1.478 . S
C1979 H1973 0.930 . S
C1979 C1975 1.400 . S
C1979 C1978 1.385 . S
C1980 C1978 1.478 . S
C1980 C1982 1.381 . S
C1980 C1986 1.383 . S
C1981 C1977 1.495 . S
C1981 H1987 0.959 . S
C1981 H1988 0.961 . S
C1981 H1989 0.960 . S
C1982 C1980 1.381 . S
C1982 C1983 1.394 . S
C1982 H1990 0.930 . S
C1983 C1982 1.394 . S
C1983 C1984 1.383 . S
C1983 H1991 0.929 . S
C1984 C1983 1.383 . S
C1984 C1985 1.377 . S
C1985 H1969 0.930 . S
C1985 C1984 1.377 . S
C1985 C1986 1.379 . S
C1986 H1970 0.931 . S
C1986 C1980 1.383 . S
C1986 C1985 1.379 . S
H1987 C1981 0.959 . S
H1988 C1981 0.961 . S
H1989 C1981 0.960 . S
H1990 C1982 0.930 . S
H1991 C1983 0.929 . S
H1992 C2000 0.929 . S
H1993 C2002 0.930 . S
H1994 C2004 0.930 . S
H1995 C2007 0.929 . S
H1996 C2010 0.930 . S
H1997 C2012 0.960 . S
H1998 C2012 0.960 . S
H1999 C2012 0.960 . S
C2000 H1992 0.929 . S
C2000 C2001 1.377 . S
C2000 C2002 1.384 . S
C2001 C2000 1.377 . S
C2001 C2007 1.390 . S
C2002 H1993 0.930 . S
C2002 C2000 1.384 . S
C2002 C2003 1.372 . S
C2003 C2002 1.372 . S
C2003 C2004 1.400 . S
C2003 C2008 1.490 . S
C2004 H1994 0.930 . S
C2004 C2003 1.400 . S
C2004 C2007 1.386 . S
H2005 C2021 0.930 . S
H2006 C2022 0.931 . S
C2007 H1995 0.929 . S
C2007 C2001 1.390 . S
C2007 C2004 1.386 . S
C2008 C2003 1.490 . S
C2008 C2010 1.395 . S
C2008 C2011 1.403 . S
H2009 C2015 0.930 . S
C2010 H1996 0.930 . S
C2010 C2008 1.395 . S
C2010 C2013 1.403 . S
C2011 C2008 1.403 . S
C2011 C2012 1.524 . S
C2011 C2015 1.400 . S
C2012 H1997 0.960 . S
C2012 H1998 0.960 . S
C2012 H1999 0.960 . S
C2012 C2011 1.524 . S
C2013 C2010 1.403 . S
C2013 C2014 1.392 . S
C2013 C2017 1.495 . S
C2014 C2013 1.392 . S
C2014 C2015 1.385 . S
C2014 C2016 1.478 . S
C2015 H2009 0.930 . S
C2015 C2011 1.400 . S
C2015 C2014 1.385 . S
C2016 C2014 1.478 . S
C2016 C2018 1.381 . S
C2016 C2022 1.383 . S
C2017 C2013 1.495 . S
C2017 H2023 0.959 . S
C2017 H2024 0.961 . S
C2017 H2025 0.960 . S
C2018 C2016 1.381 . S
C2018 C2019 1.394 . S
C2018 H2026 0.930 . S
C2019 C2018 1.394 . S
C2019 C2020 1.383 . S
C2019 H2027 0.929 . S
C2020 C2019 1.383 . S
C2020 C2021 1.377 . S
C2021 H2005 0.930 . S
C2021 C2020 1.377 . S
C2021 C2022 1.379 . S
C2022 H2006 0.931 . S
C2022 C2016 1.383 . S
C2022 C2021 1.379 . S
H2023 C2017 0.959 . S
H2024 C2017 0.961 . S
H2025 C2017 0.960 . S
H2026 C2018 0.930 . S
H2027 C2019 0.929 . S
H2028 C2036 0.929 . S
H2029 C2038 0.930 . S
H2030 C2040 0.930 . S
H2031 C2043 0.929 . S
H2032 C2046 0.930 . S
H2033 C2048 0.960 . S
H2034 C2048 0.960 . S
H2035 C2048 0.960 . S
C2036 H2028 0.929 . S
C2036 C2037 1.377 . S
C2036 C2038 1.384 . S
C2037 C2036 1.377 . S
C2037 C2043 1.390 . S
C2038 H2029 0.930 . S
C2038 C2036 1.384 . S
C2038 C2039 1.372 . S
C2039 C2038 1.372 . S
C2039 C2040 1.400 . S
C2039 C2044 1.490 . S
C2040 H2030 0.930 . S
C2040 C2039 1.400 . S
C2040 C2043 1.386 . S
H2041 C2057 0.930 . S
H2042 C2058 0.931 . S
C2043 H2031 0.929 . S
C2043 C2037 1.390 . S
C2043 C2040 1.386 . S
C2044 C2039 1.490 . S
C2044 C2046 1.395 . S
C2044 C2047 1.403 . S
H2045 C2051 0.930 . S
C2046 H2032 0.930 . S
C2046 C2044 1.395 . S
C2046 C2049 1.403 . S
C2047 C2044 1.403 . S
C2047 C2048 1.524 . S
C2047 C2051 1.400 . S
C2048 H2033 0.960 . S
C2048 H2034 0.960 . S
C2048 H2035 0.960 . S
C2048 C2047 1.524 . S
C2049 C2046 1.403 . S
C2049 C2050 1.392 . S
C2049 C2053 1.495 . S
C2050 C2049 1.392 . S
C2050 C2051 1.385 . S
C2050 C2052 1.478 . S
C2051 H2045 0.930 . S
C2051 C2047 1.400 . S
C2051 C2050 1.385 . S
C2052 C2050 1.478 . S
C2052 C2054 1.381 . S
C2052 C2058 1.383 . S
C2053 C2049 1.495 . S
C2053 H2059 0.959 . S
C2053 H2060 0.961 . S
C2053 H2061 0.960 . S
C2054 C2052 1.381 . S
C2054 C2055 1.394 . S
C2054 H2062 0.930 . S
C2055 C2054 1.394 . S
C2055 C2056 1.383 . S
C2055 H2063 0.929 . S
C2056 C2055 1.383 . S
C2056 C2057 1.377 . S
C2057 H2041 0.930 . S
C2057 C2056 1.377 . S
C2057 C2058 1.379 . S
C2058 H2042 0.931 . S
C2058 C2052 1.383 . S
C2058 C2057 1.379 . S
H2059 C2053 0.959 . S
H2060 C2053 0.961 . S
H2061 C2053 0.960 . S
H2062 C2054 0.930 . S
H2063 C2055 0.929 . S
H2064 C2072 0.929 . S
H2065 C2074 0.930 . S
H2066 C2076 0.930 . S
H2067 C2079 0.929 . S
H2068 C2082 0.930 . S
H2069 C2084 0.960 . S
H2070 C2084 0.960 . S
H2071 C2084 0.960 . S
C2072 H2064 0.929 . S
C2072 C2073 1.377 . S
C2072 C2074 1.384 . S
C2073 C2072 1.377 . S
C2073 C2079 1.390 . S
C2074 H2065 0.930 . S
C2074 C2072 1.384 . S
C2074 C2075 1.372 . S
C2075 C2074 1.372 . S
C2075 C2076 1.400 . S
C2075 C2080 1.490 . S
C2076 H2066 0.930 . S
C2076 C2075 1.400 . S
C2076 C2079 1.386 . S
H2077 C2093 0.930 . S
H2078 C2094 0.931 . S
C2079 H2067 0.929 . S
C2079 C2073 1.390 . S
C2079 C2076 1.386 . S
C2080 C2075 1.490 . S
C2080 C2082 1.395 . S
C2080 C2083 1.403 . S
H2081 C2087 0.930 . S
C2082 H2068 0.930 . S
C2082 C2080 1.395 . S
C2082 C2085 1.403 . S
C2083 C2080 1.403 . S
C2083 C2084 1.524 . S
C2083 C2087 1.400 . S
C2084 H2069 0.960 . S
C2084 H2070 0.960 . S
C2084 H2071 0.960 . S
C2084 C2083 1.524 . S
C2085 C2082 1.403 . S
C2085 C2086 1.392 . S
C2085 C2089 1.495 . S
C2086 C2085 1.392 . S
C2086 C2087 1.385 . S
C2086 C2088 1.478 . S
C2087 H2081 0.930 . S
C2087 C2083 1.400 . S
C2087 C2086 1.385 . S
C2088 C2086 1.478 . S
C2088 C2090 1.381 . S
C2088 C2094 1.383 . S
C2089 C2085 1.495 . S
C2089 H2095 0.959 . S
C2089 H2096 0.961 . S
C2089 H2097 0.960 . S
C2090 C2088 1.381 . S
C2090 C2091 1.394 . S
C2090 H2098 0.930 . S
C2091 C2090 1.394 . S
C2091 C2092 1.383 . S
C2091 H2099 0.929 . S
C2092 C2091 1.383 . S
C2092 C2093 1.377 . S
C2093 H2077 0.930 . S
C2093 C2092 1.377 . S
C2093 C2094 1.379 . S
C2094 H2078 0.931 . S
C2094 C2088 1.383 . S
C2094 C2093 1.379 . S
H2095 C2089 0.959 . S
H2096 C2089 0.961 . S
H2097 C2089 0.960 . S
H2098 C2090 0.930 . S
H2099 C2091 0.929 . S
H2100 C2108 0.929 . S
H2101 C2110 0.930 . S
H2102 C2112 0.930 . S
H2103 C2115 0.929 . S
H2104 C2118 0.930 . S
H2105 C2120 0.960 . S
H2106 C2120 0.960 . S
H2107 C2120 0.960 . S
C2108 H2100 0.929 . S
C2108 C2109 1.377 . S
C2108 C2110 1.384 . S
C2109 C2108 1.377 . S
C2109 C2115 1.390 . S
C2110 H2101 0.930 . S
C2110 C2108 1.384 . S
C2110 C2111 1.372 . S
C2111 C2110 1.372 . S
C2111 C2112 1.400 . S
C2111 C2116 1.490 . S
C2112 H2102 0.930 . S
C2112 C2111 1.400 . S
C2112 C2115 1.386 . S
H2113 C2129 0.930 . S
H2114 C2130 0.931 . S
C2115 H2103 0.929 . S
C2115 C2109 1.390 . S
C2115 C2112 1.386 . S
C2116 C2111 1.490 . S
C2116 C2118 1.395 . S
C2116 C2119 1.403 . S
H2117 C2123 0.930 . S
C2118 H2104 0.930 . S
C2118 C2116 1.395 . S
C2118 C2121 1.403 . S
C2119 C2116 1.403 . S
C2119 C2120 1.524 . S
C2119 C2123 1.400 . S
C2120 H2105 0.960 . S
C2120 H2106 0.960 . S
C2120 H2107 0.960 . S
C2120 C2119 1.524 . S
C2121 C2118 1.403 . S
C2121 C2122 1.392 . S
C2121 C2125 1.495 . S
C2122 C2121 1.392 . S
C2122 C2123 1.385 . S
C2122 C2124 1.478 . S
C2123 H2117 0.930 . S
C2123 C2119 1.400 . S
C2123 C2122 1.385 . S
C2124 C2122 1.478 . S
C2124 C2126 1.381 . S
C2124 C2130 1.383 . S
C2125 C2121 1.495 . S
C2125 H2131 0.959 . S
C2125 H2132 0.961 . S
C2125 H2133 0.960 . S
C2126 C2124 1.381 . S
C2126 C2127 1.394 . S
C2126 H2134 0.930 . S
C2127 C2126 1.394 . S
C2127 C2128 1.383 . S
C2127 H2135 0.929 . S
C2128 C2127 1.383 . S
C2128 C2129 1.377 . S
C2129 H2113 0.930 . S
C2129 C2128 1.377 . S
C2129 C2130 1.379 . S
C2130 H2114 0.931 . S
C2130 C2124 1.383 . S
C2130 C2129 1.379 . S
H2131 C2125 0.959 . S
H2132 C2125 0.961 . S
H2133 C2125 0.960 . S
H2134 C2126 0.930 . S
H2135 C2127 0.929 . S
H2136 C2144 0.929 . S
H2137 C2146 0.930 . S
H2138 C2148 0.930 . S
H2139 C2151 0.929 . S
H2140 C2154 0.930 . S
H2141 C2156 0.960 . S
H2142 C2156 0.960 . S
H2143 C2156 0.960 . S
C2144 H2136 0.929 . S
C2144 C2145 1.377 . S
C2144 C2146 1.384 . S
C2145 C2144 1.377 . S
C2145 C2151 1.390 . S
C2146 H2137 0.930 . S
C2146 C2144 1.384 . S
C2146 C2147 1.372 . S
C2147 C2146 1.372 . S
C2147 C2148 1.400 . S
C2147 C2152 1.490 . S
C2148 H2138 0.930 . S
C2148 C2147 1.400 . S
C2148 C2151 1.386 . S
H2149 C2165 0.930 . S
H2150 C2166 0.931 . S
C2151 H2139 0.929 . S
C2151 C2145 1.390 . S
C2151 C2148 1.386 . S
C2152 C2147 1.490 . S
C2152 C2154 1.395 . S
C2152 C2155 1.403 . S
H2153 C2159 0.930 . S
C2154 H2140 0.930 . S
C2154 C2152 1.395 . S
C2154 C2157 1.403 . S
C2155 C2152 1.403 . S
C2155 C2156 1.524 . S
C2155 C2159 1.400 . S
C2156 H2141 0.960 . S
C2156 H2142 0.960 . S
C2156 H2143 0.960 . S
C2156 C2155 1.524 . S
C2157 C2154 1.403 . S
C2157 C2158 1.392 . S
C2157 C2161 1.495 . S
C2158 C2157 1.392 . S
C2158 C2159 1.385 . S
C2158 C2160 1.478 . S
C2159 H2153 0.930 . S
C2159 C2155 1.400 . S
C2159 C2158 1.385 . S
C2160 C2158 1.478 . S
C2160 C2162 1.381 . S
C2160 C2166 1.383 . S
C2161 C2157 1.495 . S
C2161 H2167 0.959 . S
C2161 H2168 0.961 . S
C2161 H2169 0.960 . S
C2162 C2160 1.381 . S
C2162 C2163 1.394 . S
C2162 H2170 0.930 . S
C2163 C2162 1.394 . S
C2163 C2164 1.383 . S
C2163 H2171 0.929 . S
C2164 C2163 1.383 . S
C2164 C2165 1.377 . S
C2165 H2149 0.930 . S
C2165 C2164 1.377 . S
C2165 C2166 1.379 . S
C2166 H2150 0.931 . S
C2166 C2160 1.383 . S
C2166 C2165 1.379 . S
H2167 C2161 0.959 . S
H2168 C2161 0.961 . S
H2169 C2161 0.960 . S
H2170 C2162 0.930 . S
H2171 C2163 0.929 . S
H2172 C2180 0.929 . S
H2173 C2182 0.930 . S
H2174 C2184 0.930 . S
H2175 C2187 0.929 . S
H2176 C2190 0.930 . S
H2177 C2192 0.960 . S
H2178 C2192 0.960 . S
H2179 C2192 0.960 . S
C2180 H2172 0.929 . S
C2180 C2181 1.377 . S
C2180 C2182 1.384 . S
C2181 C2180 1.377 . S
C2181 C2187 1.390 . S
C2182 H2173 0.930 . S
C2182 C2180 1.384 . S
C2182 C2183 1.372 . S
C2183 C2182 1.372 . S
C2183 C2184 1.400 . S
C2183 C2188 1.490 . S
C2184 H2174 0.930 . S
C2184 C2183 1.400 . S
C2184 C2187 1.386 . S
H2185 C2201 0.930 . S
H2186 C2202 0.931 . S
C2187 H2175 0.929 . S
C2187 C2181 1.390 . S
C2187 C2184 1.386 . S
C2188 C2183 1.490 . S
C2188 C2190 1.395 . S
C2188 C2191 1.403 . S
H2189 C2195 0.930 . S
C2190 H2176 0.930 . S
C2190 C2188 1.395 . S
C2190 C2193 1.403 . S
C2191 C2188 1.403 . S
C2191 C2192 1.524 . S
C2191 C2195 1.400 . S
C2192 H2177 0.960 . S
C2192 H2178 0.960 . S
C2192 H2179 0.960 . S
C2192 C2191 1.524 . S
C2193 C2190 1.403 . S
C2193 C2194 1.392 . S
C2193 C2197 1.495 . S
C2194 C2193 1.392 . S
C2194 C2195 1.385 . S
C2194 C2196 1.478 . S
C2195 H2189 0.930 . S
C2195 C2191 1.400 . S
C2195 C2194 1.385 . S
C2196 C2194 1.478 . S
C2196 C2198 1.381 . S
C2196 C2202 1.383 . S
C2197 C2193 1.495 . S
C2197 H2203 0.959 . S
C2197 H2204 0.961 . S
C2197 H2205 0.960 . S
C2198 C2196 1.381 . S
C2198 C2199 1.394 . S
C2198 H2206 0.930 . S
C2199 C2198 1.394 . S
C2199 C2200 1.383 . S
C2199 H2207 0.929 . S
C2200 C2199 1.383 . S
C2200 C2201 1.377 . S
C2201 H2185 0.930 . S
C2201 C2200 1.377 . S
C2201 C2202 1.379 . S
C2202 H2186 0.931 . S
C2202 C2196 1.383 . S
C2202 C2201 1.379 . S
H2203 C2197 0.959 . S
H2204 C2197 0.961 . S
H2205 C2197 0.960 . S
H2206 C2198 0.930 . S
H2207 C2199 0.929 . S
H2208 C2216 0.929 . S
H2209 C2218 0.930 . S
H2210 C2220 0.930 . S
H2211 C2223 0.929 . S
H2212 C2226 0.930 . S
H2213 C2228 0.960 . S
H2214 C2228 0.960 . S
H2215 C2228 0.960 . S
C2216 H2208 0.929 . S
C2216 C2217 1.377 . S
C2216 C2218 1.384 . S
C2217 C2216 1.377 . S
C2217 C2223 1.390 . S
C2218 H2209 0.930 . S
C2218 C2216 1.384 . S
C2218 C2219 1.372 . S
C2219 C2218 1.372 . S
C2219 C2220 1.400 . S
C2219 C2224 1.490 . S
C2220 H2210 0.930 . S
C2220 C2219 1.400 . S
C2220 C2223 1.386 . S
H2221 C2237 0.930 . S
H2222 C2238 0.931 . S
C2223 H2211 0.929 . S
C2223 C2217 1.390 . S
C2223 C2220 1.386 . S
C2224 C2219 1.490 . S
C2224 C2226 1.395 1_565 S
C2224 C2227 1.403 . S
H2225 C2231 0.930 . S
C2226 H2212 0.930 . S
C2226 C2224 1.395 1_545 S
C2226 C2229 1.403 . S
C2227 C2224 1.403 . S
C2227 C2228 1.524 . S
C2227 C2231 1.400 1_565 S
C2228 H2213 0.960 . S
C2228 H2214 0.960 . S
C2228 H2215 0.960 . S
C2228 C2227 1.524 . S
C2229 C2226 1.403 . S
C2229 C2230 1.392 . S
C2229 C2233 1.495 . S
C2230 C2229 1.392 . S
C2230 C2231 1.385 . S
C2230 C2232 1.478 . S
C2231 H2225 0.930 . S
C2231 C2227 1.400 1_545 S
C2231 C2230 1.385 . S
C2232 C2230 1.478 . S
C2232 C2234 1.381 . S
C2232 C2238 1.383 . S
C2233 C2229 1.495 . S
C2233 H2239 0.959 . S
C2233 H2240 0.961 . S
C2233 H2241 0.960 . S
C2234 C2232 1.381 . S
C2234 C2235 1.394 . S
C2234 H2242 0.930 . S
C2235 C2234 1.394 . S
C2235 C2236 1.383 . S
C2235 H2243 0.929 . S
C2236 C2235 1.383 . S
C2236 C2237 1.377 . S
C2237 H2221 0.930 . S
C2237 C2236 1.377 . S
C2237 C2238 1.379 . S
C2238 H2222 0.931 . S
C2238 C2232 1.383 . S
C2238 C2237 1.379 . S
H2239 C2233 0.959 . S
H2240 C2233 0.961 . S
H2241 C2233 0.960 . S
H2242 C2234 0.930 . S
H2243 C2235 0.929 . S
H2244 C2252 0.929 . S
H2245 C2254 0.930 . S
H2246 C2256 0.930 1_655 S
H2247 C2259 0.929 . S
H2248 C2262 0.930 . S
H2249 C2264 0.960 . S
H2250 C2264 0.960 . S
H2251 C2264 0.960 . S
C2252 H2244 0.929 . S
C2252 C2253 1.377 . S
C2252 C2254 1.384 . S
C2253 C2252 1.377 . S
C2253 C2259 1.390 . S
C2254 H2245 0.930 . S
C2254 C2252 1.384 . S
C2254 C2255 1.372 . S
C2255 C2254 1.372 . S
C2255 C2256 1.400 . S
C2255 C2260 1.490 1_455 S
C2256 H2246 0.930 1_455 S
C2256 C2255 1.400 . S
C2256 C2259 1.386 . S
H2257 C2273 0.930 . S
H2258 C2274 0.931 . S
C2259 H2247 0.929 . S
C2259 C2253 1.390 . S
C2259 C2256 1.386 . S
C2260 C2255 1.490 1_655 S
C2260 C2262 1.395 . S
C2260 C2263 1.403 . S
H2261 C2267 0.930 . S
C2262 H2248 0.930 . S
C2262 C2260 1.395 . S
C2262 C2265 1.403 . S
C2263 C2260 1.403 . S
C2263 C2264 1.524 . S
C2263 C2267 1.400 . S
C2264 H2249 0.960 . S
C2264 H2250 0.960 . S
C2264 H2251 0.960 . S
C2264 C2263 1.524 . S
C2265 C2262 1.403 . S
C2265 C2266 1.392 . S
C2265 C2269 1.495 . S
C2266 C2265 1.392 . S
C2266 C2267 1.385 . S
C2266 C2268 1.478 . S
C2267 H2261 0.930 . S
C2267 C2263 1.400 . S
C2267 C2266 1.385 . S
C2268 C2266 1.478 . S
C2268 C2270 1.381 . S
C2268 C2274 1.383 . S
C2269 C2265 1.495 . S
C2269 H2275 0.959 . S
C2269 H2276 0.961 . S
C2269 H2277 0.960 . S
C2270 C2268 1.381 . S
C2270 C2271 1.394 . S
C2270 H2278 0.930 . S
C2271 C2270 1.394 . S
C2271 C2272 1.383 . S
C2271 H2279 0.929 . S
C2272 C2271 1.383 . S
C2272 C2273 1.377 . S
C2273 H2257 0.930 . S
C2273 C2272 1.377 . S
C2273 C2274 1.379 . S
C2274 H2258 0.931 . S
C2274 C2268 1.383 . S
C2274 C2273 1.379 . S
H2275 C2269 0.959 . S
H2276 C2269 0.961 . S
H2277 C2269 0.960 . S
H2278 C2270 0.930 . S
H2279 C2271 0.929 . S
H2280 C2288 0.929 . S
H2281 C2290 0.930 . S
H2282 C2292 0.930 . S
H2283 C2295 0.929 . S
H2284 C2298 0.930 . S
H2285 C2300 0.960 1_545 S
H2286 C2300 0.960 . S
H2287 C2300 0.960 . S
C2288 H2280 0.929 . S
C2288 C2289 1.377 . S
C2288 C2290 1.384 . S
C2289 C2288 1.377 . S
C2289 C2295 1.390 . S
C2290 H2281 0.930 . S
C2290 C2288 1.384 . S
C2290 C2291 1.372 . S
C2291 C2290 1.372 . S
C2291 C2292 1.400 . S
C2291 C2296 1.490 . S
C2292 H2282 0.930 . S
C2292 C2291 1.400 . S
C2292 C2295 1.386 . S
H2293 C2309 0.930 . S
H2294 C2310 0.931 . S
C2295 H2283 0.929 . S
C2295 C2289 1.390 . S
C2295 C2292 1.386 . S
C2296 C2291 1.490 . S
C2296 C2298 1.395 . S
C2296 C2299 1.403 . S
H2297 C2303 0.930 . S
C2298 H2284 0.930 . S
C2298 C2296 1.395 . S
C2298 C2301 1.403 1_565 S
C2299 C2296 1.403 . S
C2299 C2300 1.524 . S
C2299 C2303 1.400 1_565 S
C2300 H2285 0.960 1_565 S
C2300 H2286 0.960 . S
C2300 H2287 0.960 . S
C2300 C2299 1.524 . S
C2301 C2298 1.403 1_545 S
C2301 C2302 1.392 . S
C2301 C2305 1.495 . S
C2302 C2301 1.392 . S
C2302 C2303 1.385 . S
C2302 C2304 1.478 . S
C2303 H2297 0.930 . S
C2303 C2299 1.400 1_545 S
C2303 C2302 1.385 . S
C2304 C2302 1.478 . S
C2304 C2306 1.381 . S
C2304 C2310 1.383 . S
C2305 C2301 1.495 . S
C2305 H2311 0.959 1_545 S
C2305 H2312 0.961 . S
C2305 H2313 0.960 . S
C2306 C2304 1.381 . S
C2306 C2307 1.394 . S
C2306 H2314 0.930 . S
C2307 C2306 1.394 . S
C2307 C2308 1.383 . S
C2307 H2315 0.929 . S
C2308 C2307 1.383 . S
C2308 C2309 1.377 . S
C2309 H2293 0.930 . S
C2309 C2308 1.377 . S
C2309 C2310 1.379 . S
C2310 H2294 0.931 . S
C2310 C2304 1.383 . S
C2310 C2309 1.379 . S
H2311 C2305 0.959 1_565 S
H2312 C2305 0.961 . S
H2313 C2305 0.960 . S
H2314 C2306 0.930 . S
H2315 C2307 0.929 . S
H2316 C2324 0.929 . S
H2317 C2326 0.930 . S
H2318 C2328 0.930 . S
H2319 C2331 0.929 . S
H2320 C2334 0.930 . S
H2321 C2336 0.960 . S
H2322 C2336 0.960 . S
H2323 C2336 0.960 . S
C2324 H2316 0.929 . S
C2324 C2325 1.377 . S
C2324 C2326 1.384 . S
C2325 C2324 1.377 . S
C2325 C2331 1.390 . S
C2326 H2317 0.930 . S
C2326 C2324 1.384 . S
C2326 C2327 1.372 . S
C2327 C2326 1.372 . S
C2327 C2328 1.400 . S
C2327 C2332 1.490 . S
C2328 H2318 0.930 . S
C2328 C2327 1.400 . S
C2328 C2331 1.386 . S
H2329 C2345 0.930 . S
H2330 C2346 0.931 . S
C2331 H2319 0.929 . S
C2331 C2325 1.390 . S
C2331 C2328 1.386 . S
C2332 C2327 1.490 . S
C2332 C2334 1.395 . S
C2332 C2335 1.403 . S
H2333 C2339 0.948 . S
C2334 H2320 0.930 . S
C2334 C2332 1.395 . S
C2334 C2337 1.403 . S
C2335 C2332 1.403 . S
C2335 C2336 1.524 . S
C2335 C2339 1.382 1_655 S
C2336 H2321 0.960 . S
C2336 H2322 0.960 . S
C2336 H2323 0.960 . S
C2336 C2335 1.524 . S
C2337 C2334 1.403 . S
C2337 C2338 1.392 1_655 S
C2337 C2341 1.495 . S
C2338 C2337 1.392 1_455 S
C2338 C2339 1.386 . S
C2338 C2340 1.478 . S
C2339 H2333 0.948 . S
C2339 C2335 1.382 1_455 S
C2339 C2338 1.386 . S
C2340 C2338 1.478 . S
C2340 C2342 1.381 . S
C2340 C2346 1.383 . S
C2341 C2337 1.495 . S
C2341 H2347 0.959 . S
C2341 H2348 0.961 . S
C2341 H2349 0.934 1_655 S
C2342 C2340 1.381 . S
C2342 C2343 1.394 . S
C2342 H2350 0.930 . S
C2343 C2342 1.394 . S
C2343 C2344 1.383 . S
C2343 H2351 0.929 . S
C2344 C2343 1.383 . S
C2344 C2345 1.377 . S
C2345 H2329 0.930 . S
C2345 C2344 1.377 . S
C2345 C2346 1.379 . S
C2346 H2330 0.931 . S
C2346 C2340 1.383 . S
C2346 C2345 1.379 . S
H2347 C2341 0.959 . S
H2348 C2341 0.961 . S
H2349 C2341 0.934 1_455 S
H2350 C2342 0.930 . S
H2351 C2343 0.929 . S
H2352 C2360 0.929 . S
H2353 C2362 0.930 . S
H2354 C2364 0.930 . S
H2355 C2367 0.929 . S
H2356 C2370 0.930 . S
H2357 C2372 0.960 . S
H2358 C2372 0.960 . S
H2359 C2372 0.960 . S
C2360 H2352 0.929 . S
C2360 C2361 1.377 . S
C2360 C2362 1.384 . S
C2361 C2360 1.377 . S
C2361 C2367 1.390 . S
C2362 H2353 0.930 . S
C2362 C2360 1.384 . S
C2362 C2363 1.372 . S
C2363 C2362 1.372 . S
C2363 C2364 1.400 . S
C2363 C2368 1.490 . S
C2364 H2354 0.930 . S
C2364 C2363 1.400 . S
C2364 C2367 1.386 . S
H2365 C2381 0.930 . S
H2366 C2382 0.931 . S
C2367 H2355 0.929 . S
C2367 C2361 1.390 . S
C2367 C2364 1.386 . S
C2368 C2363 1.490 . S
C2368 C2370 1.395 . S
C2368 C2371 1.403 . S
H2369 C2375 0.930 . S
C2370 H2356 0.930 . S
C2370 C2368 1.395 . S
C2370 C2373 1.403 . S
C2371 C2368 1.403 . S
C2371 C2372 1.524 . S
C2371 C2375 1.400 . S
C2372 H2357 0.960 . S
C2372 H2358 0.960 . S
C2372 H2359 0.960 . S
C2372 C2371 1.524 . S
C2373 C2370 1.403 . S
C2373 C2374 1.392 . S
C2373 C2377 1.495 . S
C2374 C2373 1.392 . S
C2374 C2375 1.385 . S
C2374 C2376 1.478 . S
C2375 H2369 0.930 . S
C2375 C2371 1.400 . S
C2375 C2374 1.385 . S
C2376 C2374 1.478 . S
C2376 C2378 1.381 . S
C2376 C2382 1.383 . S
C2377 C2373 1.495 . S
C2377 H2383 0.959 . S
C2377 H2384 0.961 . S
C2377 H2385 0.960 . S
C2378 C2376 1.381 . S
C2378 C2379 1.394 . S
C2378 H2386 0.930 . S
C2379 C2378 1.394 . S
C2379 C2380 1.383 . S
C2379 H2387 0.929 . S
C2380 C2379 1.383 . S
C2380 C2381 1.377 . S
C2381 H2365 0.930 . S
C2381 C2380 1.377 . S
C2381 C2382 1.379 . S
C2382 H2366 0.931 . S
C2382 C2376 1.383 . S
C2382 C2381 1.379 . S
H2383 C2377 0.959 . S
H2384 C2377 0.961 . S
H2385 C2377 0.960 . S
H2386 C2378 0.930 . S
H2387 C2379 0.929 . S
H2388 C2396 0.929 . S
H2389 C2398 0.930 . S
H2390 C2400 0.930 . S
H2391 C2403 0.929 . S
H2392 C2406 0.930 . S
H2393 C2408 0.960 . S
H2394 C2408 0.960 . S
H2395 C2408 0.960 . S
C2396 H2388 0.929 . S
C2396 C2397 1.377 . S
C2396 C2398 1.384 . S
C2397 C2396 1.377 . S
C2397 C2403 1.390 . S
C2398 H2389 0.930 . S
C2398 C2396 1.384 . S
C2398 C2399 1.372 . S
C2399 C2398 1.372 . S
C2399 C2400 1.400 . S
C2399 C2404 1.490 . S
C2400 H2390 0.930 . S
C2400 C2399 1.400 . S
C2400 C2403 1.386 . S
H2401 C2417 0.930 . S
H2402 C2418 0.931 . S
C2403 H2391 0.929 . S
C2403 C2397 1.390 . S
C2403 C2400 1.386 . S
C2404 C2399 1.490 . S
C2404 C2406 1.395 . S
C2404 C2407 1.403 . S
H2405 C2411 0.930 . S
C2406 H2392 0.930 . S
C2406 C2404 1.395 . S
C2406 C2409 1.403 . S
C2407 C2404 1.403 . S
C2407 C2408 1.524 . S
C2407 C2411 1.400 . S
C2408 H2393 0.960 . S
C2408 H2394 0.960 . S
C2408 H2395 0.960 . S
C2408 C2407 1.524 . S
C2409 C2406 1.403 . S
C2409 C2410 1.392 . S
C2409 C2413 1.495 . S
C2410 C2409 1.392 . S
C2410 C2411 1.385 . S
C2410 C2412 1.478 . S
C2411 H2405 0.930 . S
C2411 C2407 1.400 . S
C2411 C2410 1.385 . S
C2412 C2410 1.478 . S
C2412 C2414 1.381 . S
C2412 C2418 1.383 . S
C2413 C2409 1.495 . S
C2413 H2419 0.959 . S
C2413 H2420 0.961 . S
C2413 H2421 0.960 . S
C2414 C2412 1.381 . S
C2414 C2415 1.394 . S
C2414 H2422 0.930 . S
C2415 C2414 1.394 . S
C2415 C2416 1.383 . S
C2415 H2423 0.929 . S
C2416 C2415 1.383 . S
C2416 C2417 1.377 . S
C2417 H2401 0.930 . S
C2417 C2416 1.377 . S
C2417 C2418 1.379 . S
C2418 H2402 0.931 . S
C2418 C2412 1.383 . S
C2418 C2417 1.379 . S
H2419 C2413 0.959 . S
H2420 C2413 0.961 . S
H2421 C2413 0.960 . S
H2422 C2414 0.930 . S
H2423 C2415 0.929 . S
H2424 C2432 0.929 . S
H2425 C2434 0.930 . S
H2426 C2436 0.930 . S
H2427 C2439 0.929 . S
H2428 C2442 0.930 . S
H2429 C2444 0.960 . S
H2430 C2444 0.960 . S
H2431 C2444 0.960 . S
C2432 H2424 0.929 . S
C2432 C2433 1.377 . S
C2432 C2434 1.384 . S
C2433 C2432 1.377 . S
C2433 C2439 1.390 . S
C2434 H2425 0.930 . S
C2434 C2432 1.384 . S
C2434 C2435 1.372 . S
C2435 C2434 1.372 . S
C2435 C2436 1.400 . S
C2435 C2440 1.490 . S
C2436 H2426 0.930 . S
C2436 C2435 1.400 . S
C2436 C2439 1.386 . S
H2437 C2453 0.930 . S
H2438 C2454 0.931 . S
C2439 H2427 0.929 . S
C2439 C2433 1.390 . S
C2439 C2436 1.386 . S
C2440 C2435 1.490 . S
C2440 C2442 1.395 . S
C2440 C2443 1.403 . S
H2441 C2447 0.930 . S
C2442 H2428 0.930 . S
C2442 C2440 1.395 . S
C2442 C2445 1.403 . S
C2443 C2440 1.403 . S
C2443 C2444 1.524 . S
C2443 C2447 1.400 . S
C2444 H2429 0.960 . S
C2444 H2430 0.960 . S
C2444 H2431 0.960 . S
C2444 C2443 1.524 . S
C2445 C2442 1.403 . S
C2445 C2446 1.392 . S
C2445 C2449 1.495 . S
C2446 C2445 1.392 . S
C2446 C2447 1.385 . S
C2446 C2448 1.478 . S
C2447 H2441 0.930 . S
C2447 C2443 1.400 . S
C2447 C2446 1.385 . S
C2448 C2446 1.478 . S
C2448 C2450 1.381 . S
C2448 C2454 1.383 . S
C2449 C2445 1.495 . S
C2449 H2455 0.959 . S
C2449 H2456 0.961 . S
C2449 H2457 0.960 . S
C2450 C2448 1.381 . S
C2450 C2451 1.394 . S
C2450 H2458 0.930 . S
C2451 C2450 1.394 . S
C2451 C2452 1.383 . S
C2451 H2459 0.929 . S
C2452 C2451 1.383 . S
C2452 C2453 1.377 . S
C2453 H2437 0.930 . S
C2453 C2452 1.377 . S
C2453 C2454 1.379 . S
C2454 H2438 0.931 . S
C2454 C2448 1.383 . S
C2454 C2453 1.379 . S
H2455 C2449 0.959 . S
H2456 C2449 0.961 . S
H2457 C2449 0.960 . S
H2458 C2450 0.930 . S
H2459 C2451 0.929 . S
H2460 C2468 0.929 . S
H2461 C2470 0.930 . S
H2462 C2472 0.930 . S
H2463 C2475 0.929 . S
H2464 C2478 0.930 . S
H2465 C2480 0.960 . S
H2466 C2480 0.960 . S
H2467 C2480 0.960 . S
C2468 H2460 0.929 . S
C2468 C2469 1.377 . S
C2468 C2470 1.384 . S
C2469 C2468 1.377 . S
C2469 C2475 1.390 . S
C2470 H2461 0.930 . S
C2470 C2468 1.384 . S
C2470 C2471 1.372 . S
C2471 C2470 1.372 . S
C2471 C2472 1.400 . S
C2471 C2476 1.490 . S
C2472 H2462 0.930 . S
C2472 C2471 1.400 . S
C2472 C2475 1.386 . S
H2473 C2489 0.930 . S
H2474 C2490 0.979 . S
C2475 H2463 0.929 . S
C2475 C2469 1.390 . S
C2475 C2472 1.386 . S
C2476 C2471 1.490 . S
C2476 C2478 1.395 . S
C2476 C2479 1.403 . S
H2477 C2483 0.930 . S
C2478 H2464 0.930 . S
C2478 C2476 1.395 . S
C2478 C2481 1.403 1_554 S
C2479 C2476 1.403 . S
C2479 C2480 1.524 . S
C2479 C2483 1.400 . S
C2480 H2465 0.960 . S
C2480 H2466 0.960 . S
C2480 H2467 0.960 . S
C2480 C2479 1.524 . S
C2481 C2478 1.403 1_556 S
C2481 C2482 1.392 . S
C2481 C2485 1.495 . S
C2482 C2481 1.392 . S
C2482 C2483 1.385 1_556 S
C2482 C2484 1.478 . S
C2483 H2477 0.930 . S
C2483 C2479 1.400 . S
C2483 C2482 1.385 1_554 S
C2484 C2482 1.478 . S
C2484 C2486 1.381 . S
C2484 C2490 1.383 . S
C2485 C2481 1.495 . S
C2485 H2491 0.959 . S
C2485 H2492 0.961 . S
C2485 H2493 0.960 . S
C2486 C2484 1.381 . S
C2486 C2487 1.394 . S
C2486 H2494 0.930 . S
C2487 C2486 1.394 . S
C2487 C2488 1.383 . S
C2487 H2495 0.929 . S
C2488 C2487 1.383 . S
C2488 C2489 1.377 . S
C2489 H2473 0.930 . S
C2489 C2488 1.377 . S
C2489 C2490 1.379 . S
C2490 H2474 0.979 . S
C2490 C2484 1.383 . S
C2490 C2489 1.379 . S
H2491 C2485 0.959 . S
H2492 C2485 0.961 . S
H2493 C2485 0.960 . S
H2494 C2486 0.930 . S
H2495 C2487 0.929 . S
H2496 C2504 0.929 . S
H2497 C2506 0.930 . S
H2498 C2508 0.930 . S
H2499 C2511 0.929 . S
H2500 C2514 0.930 . S
H2501 C2516 0.960 . S
H2502 C2516 0.960 . S
H2503 C2516 0.960 . S
C2504 H2496 0.929 . S
C2504 C2505 1.377 . S
C2504 C2506 1.384 . S
C2505 C2504 1.377 . S
C2505 C2511 1.390 . S
C2506 H2497 0.930 . S
C2506 C2504 1.384 . S
C2506 C2507 1.372 . S
C2507 C2506 1.372 . S
C2507 C2508 1.400 . S
C2507 C2512 1.490 . S
C2508 H2498 0.930 . S
C2508 C2507 1.400 . S
C2508 C2511 1.386 . S
H2509 C2525 0.930 . S
H2510 C2526 0.931 . S
C2511 H2499 0.929 . S
C2511 C2505 1.390 . S
C2511 C2508 1.386 . S
C2512 C2507 1.490 . S
C2512 C2514 1.395 . S
C2512 C2515 1.403 . S
H2513 C2519 0.930 . S
C2514 H2500 0.930 . S
C2514 C2512 1.395 . S
C2514 C2517 1.403 . S
C2515 C2512 1.403 . S
C2515 C2516 1.524 . S
C2515 C2519 1.400 . S
C2516 H2501 0.960 . S
C2516 H2502 0.960 . S
C2516 H2503 0.960 . S
C2516 C2515 1.524 . S
C2517 C2514 1.403 . S
C2517 C2518 1.392 . S
C2517 C2521 1.495 . S
C2518 C2517 1.392 . S
C2518 C2519 1.385 . S
C2518 C2520 1.478 . S
C2519 H2513 0.930 . S
C2519 C2515 1.400 . S
C2519 C2518 1.385 . S
C2520 C2518 1.478 . S
C2520 C2522 1.381 . S
C2520 C2526 1.383 . S
C2521 C2517 1.495 . S
C2521 H2527 0.959 . S
C2521 H2528 0.961 . S
C2521 H2529 0.960 . S
C2522 C2520 1.381 . S
C2522 C2523 1.394 . S
C2522 H2530 0.930 . S
C2523 C2522 1.394 . S
C2523 C2524 1.383 . S
C2523 H2531 0.929 . S
C2524 C2523 1.383 . S
C2524 C2525 1.377 . S
C2525 H2509 0.930 . S
C2525 C2524 1.377 . S
C2525 C2526 1.379 . S
C2526 H2510 0.931 . S
C2526 C2520 1.383 . S
C2526 C2525 1.379 . S
H2527 C2521 0.959 . S
H2528 C2521 0.961 . S
H2529 C2521 0.960 . S
H2530 C2522 0.930 . S
H2531 C2523 0.929 . S
H2532 C2540 0.929 . S
H2533 C2542 0.930 . S
H2534 C2544 0.930 . S
H2535 C2547 0.929 . S
H2536 C2550 0.930 1_556 S
H2537 C2552 0.960 . S
H2538 C2552 0.960 . S
H2539 C2552 0.960 . S
C2540 H2532 0.929 . S
C2540 C2541 1.377 . S
C2540 C2542 1.384 . S
C2541 C2540 1.377 . S
C2541 C2547 1.390 . S
C2542 H2533 0.930 . S
C2542 C2540 1.384 . S
C2542 C2543 1.372 . S
C2543 C2542 1.372 . S
C2543 C2544 1.400 . S
C2543 C2548 1.490 1_556 S
C2544 H2534 0.930 . S
C2544 C2543 1.400 . S
C2544 C2547 1.386 . S
H2545 C2561 0.930 . S
H2546 C2562 0.931 . S
C2547 H2535 0.929 . S
C2547 C2541 1.390 . S
C2547 C2544 1.386 . S
C2548 C2543 1.490 1_554 S
C2548 C2550 1.395 . S
C2548 C2551 1.403 . S
H2549 C2555 0.930 . S
C2550 H2536 0.930 1_554 S
C2550 C2548 1.395 . S
C2550 C2553 1.403 . S
C2551 C2548 1.403 . S
C2551 C2552 1.524 . S
C2551 C2555 1.400 . S
C2552 H2537 0.960 . S
C2552 H2538 0.960 . S
C2552 H2539 0.960 . S
C2552 C2551 1.524 . S
C2553 C2550 1.403 . S
C2553 C2554 1.392 . S
C2553 C2557 1.495 . S
C2554 C2553 1.392 . S
C2554 C2555 1.385 . S
C2554 C2556 1.478 . S
C2555 H2549 0.930 . S
C2555 C2551 1.400 . S
C2555 C2554 1.385 . S
C2556 C2554 1.478 . S
C2556 C2558 1.381 . S
C2556 C2562 1.383 . S
C2557 C2553 1.495 . S
C2557 H2563 0.959 . S
C2557 H2564 0.961 . S
C2557 H2565 0.960 . S
C2558 C2556 1.381 . S
C2558 C2559 1.394 . S
C2558 H2566 0.930 . S
C2559 C2558 1.394 . S
C2559 C2560 1.383 . S
C2559 H2567 0.929 . S
C2560 C2559 1.383 . S
C2560 C2561 1.377 . S
C2561 H2545 0.930 . S
C2561 C2560 1.377 . S
C2561 C2562 1.379 . S
C2562 H2546 0.931 . S
C2562 C2556 1.383 . S
C2562 C2561 1.379 . S
H2563 C2557 0.959 . S
H2564 C2557 0.961 . S
H2565 C2557 0.960 . S
H2566 C2558 0.930 . S
H2567 C2559 0.929 . S
H2568 C2576 0.929 . S
H2569 C2578 0.930 . S
H2570 C2580 0.930 . S
H2571 C2583 0.929 . S
H2572 C2586 0.930 . S
H2573 C2588 0.960 . S
H2574 C2588 0.960 . S
H2575 C2588 0.960 . S
C2576 H2568 0.929 . S
C2576 C2577 1.377 . S
C2576 C2578 1.384 . S
C2577 C2576 1.377 . S
C2577 C2583 1.390 . S
C2578 H2569 0.930 . S
C2578 C2576 1.384 . S
C2578 C2579 1.372 . S
C2579 C2578 1.372 . S
C2579 C2580 1.400 . S
C2579 C2584 1.490 . S
C2580 H2570 0.930 . S
C2580 C2579 1.400 . S
C2580 C2583 1.386 . S
H2581 C2597 0.930 . S
H2582 C2598 0.931 . S
C2583 H2571 0.929 . S
C2583 C2577 1.390 . S
C2583 C2580 1.386 . S
C2584 C2579 1.490 . S
C2584 C2586 1.395 . S
C2584 C2587 1.403 . S
H2585 C2591 0.930 . S
C2586 H2572 0.930 . S
C2586 C2584 1.395 . S
C2586 C2589 1.403 . S
C2587 C2584 1.403 . S
C2587 C2588 1.524 . S
C2587 C2591 1.400 . S
C2588 H2573 0.960 . S
C2588 H2574 0.960 . S
C2588 H2575 0.960 . S
C2588 C2587 1.524 . S
C2589 C2586 1.403 . S
C2589 C2590 1.392 . S
C2589 C2593 1.495 . S
C2590 C2589 1.392 . S
C2590 C2591 1.385 . S
C2590 C2592 1.478 . S
C2591 H2585 0.930 . S
C2591 C2587 1.400 . S
C2591 C2590 1.385 . S
C2592 C2590 1.478 . S
C2592 C2594 1.381 . S
C2592 C2598 1.383 . S
C2593 C2589 1.495 . S
C2593 H2599 0.959 . S
C2593 H2600 0.961 . S
C2593 H2601 0.960 . S
C2594 C2592 1.381 . S
C2594 C2595 1.394 . S
C2594 H2602 0.930 . S
C2595 C2594 1.394 . S
C2595 C2596 1.383 . S
C2595 H2603 0.929 . S
C2596 C2595 1.383 . S
C2596 C2597 1.377 . S
C2597 H2581 0.930 . S
C2597 C2596 1.377 . S
C2597 C2598 1.379 . S
C2598 H2582 0.931 . S
C2598 C2592 1.383 . S
C2598 C2597 1.379 . S
H2599 C2593 0.959 . S
H2600 C2593 0.961 . S
H2601 C2593 0.960 . S
H2602 C2594 0.930 . S
H2603 C2595 0.929 . S
H2604 C2612 0.929 . S
H2605 C2614 0.930 . S
H2606 C2616 0.930 . S
H2607 C2619 0.929 . S
H2608 C2622 0.930 . S
H2609 C2624 0.960 . S
H2610 C2624 0.960 . S
H2611 C2624 0.960 . S
C2612 H2604 0.929 . S
C2612 C2613 1.377 . S
C2612 C2614 1.384 . S
C2613 C2612 1.377 . S
C2613 C2619 1.390 . S
C2614 H2605 0.930 . S
C2614 C2612 1.384 . S
C2614 C2615 1.372 . S
C2615 C2614 1.372 . S
C2615 C2616 1.400 . S
C2615 C2620 1.490 . S
C2616 H2606 0.930 . S
C2616 C2615 1.400 . S
C2616 C2619 1.386 . S
H2617 C2633 0.930 . S
H2618 C2634 0.931 . S
C2619 H2607 0.929 . S
C2619 C2613 1.390 . S
C2619 C2616 1.386 . S
C2620 C2615 1.490 . S
C2620 C2622 1.395 . S
C2620 C2623 1.403 . S
H2621 C2627 0.930 . S
C2622 H2608 0.930 . S
C2622 C2620 1.395 . S
C2622 C2625 1.403 . S
C2623 C2620 1.403 . S
C2623 C2624 1.524 . S
C2623 C2627 1.400 . S
C2624 H2609 0.960 . S
C2624 H2610 0.960 . S
C2624 H2611 0.960 . S
C2624 C2623 1.524 . S
C2625 C2622 1.403 . S
C2625 C2626 1.392 . S
C2625 C2629 1.495 . S
C2626 C2625 1.392 . S
C2626 C2627 1.385 . S
C2626 C2628 1.478 . S
C2627 H2621 0.930 . S
C2627 C2623 1.400 . S
C2627 C2626 1.385 . S
C2628 C2626 1.478 . S
C2628 C2630 1.381 . S
C2628 C2634 1.383 . S
C2629 C2625 1.495 . S
C2629 H2635 0.959 . S
C2629 H2636 0.961 . S
C2629 H2637 0.960 . S
C2630 C2628 1.381 . S
C2630 C2631 1.394 . S
C2630 H2638 0.930 . S
C2631 C2630 1.394 . S
C2631 C2632 1.383 . S
C2631 H2639 0.929 . S
C2632 C2631 1.383 . S
C2632 C2633 1.377 . S
C2633 H2617 0.930 . S
C2633 C2632 1.377 . S
C2633 C2634 1.379 . S
C2634 H2618 0.931 . S
C2634 C2628 1.383 . S
C2634 C2633 1.379 . S
H2635 C2629 0.959 . S
H2636 C2629 0.961 . S
H2637 C2629 0.960 . S
H2638 C2630 0.930 . S
H2639 C2631 0.929 . S
H2640 C2648 0.929 . S
H2641 C2650 0.930 . S
H2642 C2652 0.930 . S
H2643 C2655 0.929 . S
H2644 C2658 0.930 . S
H2645 C2660 0.960 . S
H2646 C2660 0.960 . S
H2647 C2660 0.960 . S
C2648 H2640 0.929 . S
C2648 C2649 1.377 . S
C2648 C2650 1.384 . S
C2649 C2648 1.377 . S
C2649 C2655 1.390 . S
C2650 H2641 0.930 . S
C2650 C2648 1.384 . S
C2650 C2651 1.372 . S
C2651 C2650 1.372 . S
C2651 C2652 1.400 . S
C2651 C2656 1.490 . S
C2652 H2642 0.930 . S
C2652 C2651 1.400 . S
C2652 C2655 1.386 . S
H2653 C2669 0.930 . S
H2654 C2670 0.931 . S
C2655 H2643 0.929 . S
C2655 C2649 1.390 . S
C2655 C2652 1.386 . S
C2656 C2651 1.490 . S
C2656 C2658 1.395 1_545 S
C2656 C2659 1.403 . S
H2657 C2663 0.930 . S
C2658 H2644 0.930 . S
C2658 C2656 1.395 1_565 S
C2658 C2661 1.403 . S
C2659 C2656 1.403 . S
C2659 C2660 1.524 . S
C2659 C2663 1.400 1_545 S
C2660 H2645 0.960 . S
C2660 H2646 0.960 . S
C2660 H2647 0.960 . S
C2660 C2659 1.524 . S
C2661 C2658 1.403 . S
C2661 C2662 1.392 . S
C2661 C2665 1.495 . S
C2662 C2661 1.392 . S
C2662 C2663 1.385 . S
C2662 C2664 1.478 . S
C2663 H2657 0.930 . S
C2663 C2659 1.400 1_565 S
C2663 C2662 1.385 . S
C2664 C2662 1.478 . S
C2664 C2666 1.381 . S
C2664 C2670 1.383 . S
C2665 C2661 1.495 . S
C2665 H2671 0.959 . S
C2665 H2672 0.961 . S
C2665 H2673 0.960 . S
C2666 C2664 1.381 . S
C2666 C2667 1.394 . S
C2666 H2674 0.930 . S
C2667 C2666 1.394 . S
C2667 C2668 1.383 . S
C2667 H2675 0.929 . S
C2668 C2667 1.383 . S
C2668 C2669 1.377 . S
C2669 H2653 0.930 . S
C2669 C2668 1.377 . S
C2669 C2670 1.379 . S
C2670 H2654 0.931 . S
C2670 C2664 1.383 . S
C2670 C2669 1.379 . S
H2671 C2665 0.959 . S
H2672 C2665 0.961 . S
H2673 C2665 0.960 . S
H2674 C2666 0.930 . S
H2675 C2667 0.929 . S
H2676 C2684 0.929 . S
H2677 C2686 0.930 . S
H2678 C2688 0.930 . S
H2679 C2691 0.929 . S
H2680 C2694 0.930 . S
H2681 C2696 0.960 . S
H2682 C2696 0.960 . S
H2683 C2696 0.960 . S
C2684 H2676 0.929 . S
C2684 C2685 1.377 . S
C2684 C2686 1.384 . S
C2685 C2684 1.377 . S
C2685 C2691 1.390 . S
C2686 H2677 0.930 . S
C2686 C2684 1.384 . S
C2686 C2687 1.372 . S
C2687 C2686 1.372 . S
C2687 C2688 1.400 . S
C2687 C2692 1.490 . S
C2688 H2678 0.930 . S
C2688 C2687 1.400 . S
C2688 C2691 1.386 . S
H2689 C2705 0.930 . S
H2690 C2706 0.931 . S
C2691 H2679 0.929 . S
C2691 C2685 1.390 . S
C2691 C2688 1.386 . S
C2692 C2687 1.490 . S
C2692 C2694 1.395 . S
C2692 C2695 1.403 1_455 S
H2693 C2699 0.930 . S
C2694 H2680 0.930 . S
C2694 C2692 1.395 . S
C2694 C2697 1.403 . S
C2695 C2692 1.403 1_655 S
C2695 C2696 1.524 . S
C2695 C2699 1.400 . S
C2696 H2681 0.960 . S
C2696 H2682 0.960 . S
C2696 H2683 0.960 . S
C2696 C2695 1.524 . S
C2697 C2694 1.403 . S
C2697 C2698 1.392 1_455 S
C2697 C2701 1.495 . S
C2698 C2697 1.392 1_655 S
C2698 C2699 1.385 . S
C2698 C2700 1.478 . S
C2699 H2693 0.930 . S
C2699 C2695 1.400 . S
C2699 C2698 1.385 . S
C2700 C2698 1.478 . S
C2700 C2702 1.381 . S
C2700 C2706 1.383 . S
C2701 C2697 1.495 . S
C2701 H2707 0.959 . S
C2701 H2708 0.961 . S
C2701 H2709 0.960 . S
C2702 C2700 1.381 . S
C2702 C2703 1.394 . S
C2702 H2710 0.930 . S
C2703 C2702 1.394 . S
C2703 C2704 1.383 . S
C2703 H2711 0.929 . S
C2704 C2703 1.383 . S
C2704 C2705 1.377 . S
C2705 H2689 0.930 . S
C2705 C2704 1.377 . S
C2705 C2706 1.379 . S
C2706 H2690 0.931 . S
C2706 C2700 1.383 . S
C2706 C2705 1.379 . S
H2707 C2701 0.959 . S
H2708 C2701 0.961 . S
H2709 C2701 0.960 . S
H2710 C2702 0.930 . S
H2711 C2703 0.929 . S
H2712 C2720 0.929 . S
H2713 C2722 0.930 . S
H2714 C2724 0.930 . S
H2715 C2727 0.929 . S
H2716 C2730 0.930 . S
H2717 C2732 0.960 1_565 S
H2718 C2732 0.960 . S
H2719 C2732 0.960 . S
C2720 H2712 0.929 . S
C2720 C2721 1.377 . S
C2720 C2722 1.384 . S
C2721 C2720 1.377 . S
C2721 C2727 1.390 . S
C2722 H2713 0.930 . S
C2722 C2720 1.384 . S
C2722 C2723 1.372 . S
C2723 C2722 1.372 . S
C2723 C2724 1.400 . S
C2723 C2728 1.490 . S
C2724 H2714 0.930 . S
C2724 C2723 1.400 . S
C2724 C2727 1.386 . S
H2725 C2741 0.930 . S
H2726 C2742 0.931 . S
C2727 H2715 0.929 . S
C2727 C2721 1.390 . S
C2727 C2724 1.386 . S
C2728 C2723 1.490 . S
C2728 C2730 1.395 . S
C2728 C2731 1.403 . S
H2729 C2735 0.930 . S
C2730 H2716 0.930 . S
C2730 C2728 1.395 . S
C2730 C2733 1.403 . S
C2731 C2728 1.403 . S
C2731 C2732 1.524 . S
C2731 C2735 1.400 1_545 S
C2732 H2717 0.960 1_545 S
C2732 H2718 0.960 . S
C2732 H2719 0.960 . S
C2732 C2731 1.524 . S
C2733 C2730 1.403 . S
C2733 C2734 1.392 1_545 S
C2733 C2737 1.495 . S
C2734 C2733 1.392 1_565 S
C2734 C2735 1.385 . S
C2734 C2736 1.478 . S
C2735 H2729 0.930 . S
C2735 C2731 1.400 1_565 S
C2735 C2734 1.385 . S
C2736 C2734 1.478 . S
C2736 C2738 1.381 . S
C2736 C2742 1.383 . S
C2737 C2733 1.495 . S
C2737 H2743 0.959 . S
C2737 H2744 0.961 . S
C2737 H2745 0.960 . S
C2738 C2736 1.381 . S
C2738 C2739 1.394 . S
C2738 H2746 0.930 . S
C2739 C2738 1.394 . S
C2739 C2740 1.383 . S
C2739 H2747 0.929 . S
C2740 C2739 1.383 . S
C2740 C2741 1.377 . S
C2741 H2725 0.930 . S
C2741 C2740 1.377 . S
C2741 C2742 1.379 . S
C2742 H2726 0.931 . S
C2742 C2736 1.383 . S
C2742 C2741 1.379 . S
H2743 C2737 0.959 . S
H2744 C2737 0.961 . S
H2745 C2737 0.960 . S
H2746 C2738 0.930 . S
H2747 C2739 0.929 . S
H2748 C2756 0.929 . S
H2749 C2758 0.930 . S
H2750 C2760 0.930 . S
H2751 C2763 0.929 . S
H2752 C2766 0.930 . S
H2753 C2768 0.960 . S
H2754 C2768 0.960 . S
H2755 C2768 0.960 . S
C2756 H2748 0.929 . S
C2756 C2757 1.377 . S
C2756 C2758 1.384 . S
C2757 C2756 1.377 . S
C2757 C2763 1.390 . S
C2758 H2749 0.930 . S
C2758 C2756 1.384 . S
C2758 C2759 1.372 . S
C2759 C2758 1.372 . S
C2759 C2760 1.400 . S
C2759 C2764 1.490 . S
C2760 H2750 0.930 . S
C2760 C2759 1.400 . S
C2760 C2763 1.386 . S
H2761 C2777 0.930 . S
H2762 C2778 0.931 . S
C2763 H2751 0.929 . S
C2763 C2757 1.390 . S
C2763 C2760 1.386 . S
C2764 C2759 1.490 . S
C2764 C2766 1.395 1_455 S
C2764 C2767 1.403 . S
H2765 C2771 0.930 . S
C2766 H2752 0.930 . S
C2766 C2764 1.395 1_655 S
C2766 C2769 1.403 . S
C2767 C2764 1.403 . S
C2767 C2768 1.524 . S
C2767 C2771 1.400 . S
C2768 H2753 0.960 . S
C2768 H2754 0.960 . S
C2768 H2755 0.960 . S
C2768 C2767 1.524 . S
C2769 C2766 1.403 . S
C2769 C2770 1.392 . S
C2769 C2773 1.495 . S
C2770 C2769 1.392 . S
C2770 C2771 1.385 1_655 S
C2770 C2772 1.478 . S
C2771 H2765 0.930 . S
C2771 C2767 1.400 . S
C2771 C2770 1.385 1_455 S
C2772 C2770 1.478 . S
C2772 C2774 1.381 . S
C2772 C2778 1.383 . S
C2773 C2769 1.495 . S
C2773 H2779 0.959 . S
C2773 H2780 0.961 . S
C2773 H2781 0.960 . S
C2774 C2772 1.381 . S
C2774 C2775 1.394 . S
C2774 H2782 0.930 . S
C2775 C2774 1.394 . S
C2775 C2776 1.383 . S
C2775 H2783 0.929 . S
C2776 C2775 1.383 . S
C2776 C2777 1.377 . S
C2777 H2761 0.930 . S
C2777 C2776 1.377 . S
C2777 C2778 1.379 . S
C2778 H2762 0.931 . S
C2778 C2772 1.383 . S
C2778 C2777 1.379 . S
H2779 C2773 0.959 . S
H2780 C2773 0.961 . S
H2781 C2773 0.960 . S
H2782 C2774 0.930 . S
H2783 C2775 0.929 . S
H2784 C2792 0.929 . S
H2785 C2794 0.930 . S
H2786 C2796 0.930 . S
H2787 C2799 0.929 . S
H2788 C2802 0.930 . S
H2789 C2804 0.960 . S
H2790 C2804 0.960 . S
H2791 C2804 0.960 . S
C2792 H2784 0.929 . S
C2792 C2793 1.377 . S
C2792 C2794 1.384 . S
C2793 C2792 1.377 . S
C2793 C2799 1.390 . S
C2794 H2785 0.930 . S
C2794 C2792 1.384 . S
C2794 C2795 1.372 . S
C2795 C2794 1.372 . S
C2795 C2796 1.400 . S
C2795 C2800 1.490 . S
C2796 H2786 0.930 . S
C2796 C2795 1.400 . S
C2796 C2799 1.386 . S
H2797 C2813 0.930 . S
H2798 C2814 0.931 . S
C2799 H2787 0.929 . S
C2799 C2793 1.390 . S
C2799 C2796 1.386 . S
C2800 C2795 1.490 . S
C2800 C2802 1.395 . S
C2800 C2803 1.403 . S
H2801 C2807 0.930 . S
C2802 H2788 0.930 . S
C2802 C2800 1.395 . S
C2802 C2805 1.403 . S
C2803 C2800 1.403 . S
C2803 C2804 1.524 . S
C2803 C2807 1.400 . S
C2804 H2789 0.960 . S
C2804 H2790 0.960 . S
C2804 H2791 0.960 . S
C2804 C2803 1.524 . S
C2805 C2802 1.403 . S
C2805 C2806 1.392 . S
C2805 C2809 1.495 . S
C2806 C2805 1.392 . S
C2806 C2807 1.385 . S
C2806 C2808 1.478 . S
C2807 H2801 0.930 . S
C2807 C2803 1.400 . S
C2807 C2806 1.385 . S
C2808 C2806 1.478 . S
C2808 C2810 1.381 . S
C2808 C2814 1.383 . S
C2809 C2805 1.495 . S
C2809 H2815 0.959 . S
C2809 H2816 0.961 . S
C2809 H2817 0.960 . S
C2810 C2808 1.381 . S
C2810 C2811 1.394 . S
C2810 H2818 0.930 . S
C2811 C2810 1.394 . S
C2811 C2812 1.383 . S
C2811 H2819 0.929 . S
C2812 C2811 1.383 . S
C2812 C2813 1.377 . S
C2813 H2797 0.930 . S
C2813 C2812 1.377 . S
C2813 C2814 1.379 . S
C2814 H2798 0.931 . S
C2814 C2808 1.383 . S
C2814 C2813 1.379 . S
H2815 C2809 0.959 . S
H2816 C2809 0.961 . S
H2817 C2809 0.960 . S
H2818 C2810 0.930 . S
H2819 C2811 0.929 . S
H2820 C2828 0.929 . S
H2821 C2830 0.930 . S
H2822 C2832 0.930 . S
H2823 C2835 0.929 . S
H2824 C2838 0.930 . S
H2825 C2840 0.960 . S
H2826 C2840 0.960 . S
H2827 C2840 0.960 . S
C2828 H2820 0.929 . S
C2828 C2829 1.377 . S
C2828 C2830 1.384 . S
C2829 C2828 1.377 . S
C2829 C2835 1.390 . S
C2830 H2821 0.930 . S
C2830 C2828 1.384 . S
C2830 C2831 1.372 . S
C2831 C2830 1.372 . S
C2831 C2832 1.400 . S
C2831 C2836 1.490 . S
C2832 H2822 0.930 . S
C2832 C2831 1.400 . S
C2832 C2835 1.386 . S
H2833 C2849 0.930 . S
H2834 C2850 0.931 . S
C2835 H2823 0.929 . S
C2835 C2829 1.390 . S
C2835 C2832 1.386 . S
C2836 C2831 1.490 . S
C2836 C2838 1.395 . S
C2836 C2839 1.403 . S
H2837 C2843 0.930 . S
C2838 H2824 0.930 . S
C2838 C2836 1.395 . S
C2838 C2841 1.403 . S
C2839 C2836 1.403 . S
C2839 C2840 1.524 . S
C2839 C2843 1.400 . S
C2840 H2825 0.960 . S
C2840 H2826 0.960 . S
C2840 H2827 0.960 . S
C2840 C2839 1.524 . S
C2841 C2838 1.403 . S
C2841 C2842 1.392 . S
C2841 C2845 1.495 . S
C2842 C2841 1.392 . S
C2842 C2843 1.385 . S
C2842 C2844 1.478 . S
C2843 H2837 0.930 . S
C2843 C2839 1.400 . S
C2843 C2842 1.385 . S
C2844 C2842 1.478 . S
C2844 C2846 1.381 . S
C2844 C2850 1.383 . S
C2845 C2841 1.495 . S
C2845 H2851 0.959 . S
C2845 H2852 0.961 . S
C2845 H2853 0.960 . S
C2846 C2844 1.381 . S
C2846 C2847 1.394 . S
C2846 H2854 0.930 . S
C2847 C2846 1.394 . S
C2847 C2848 1.383 . S
C2847 H2855 0.929 . S
C2848 C2847 1.383 . S
C2848 C2849 1.377 . S
C2849 H2833 0.930 . S
C2849 C2848 1.377 . S
C2849 C2850 1.379 . S
C2850 H2834 0.931 . S
C2850 C2844 1.383 . S
C2850 C2849 1.379 . S
H2851 C2845 0.959 . S
H2852 C2845 0.961 . S
H2853 C2845 0.960 . S
H2854 C2846 0.930 . S
H2855 C2847 0.929 . S
H2856 C2864 0.929 . S
H2857 C2866 0.930 . S
H2858 C2868 0.930 . S
H2859 C2871 0.929 . S
H2860 C2874 0.930 . S
H2861 C2876 0.960 . S
H2862 C2876 0.960 . S
H2863 C2876 0.960 . S
C2864 H2856 0.929 . S
C2864 C2865 1.377 . S
C2864 C2866 1.384 . S
C2865 C2864 1.377 . S
C2865 C2871 1.390 . S
C2866 H2857 0.930 . S
C2866 C2864 1.384 . S
C2866 C2867 1.372 . S
C2867 C2866 1.372 . S
C2867 C2868 1.400 . S
C2867 C2872 1.490 . S
C2868 H2858 0.930 . S
C2868 C2867 1.400 . S
C2868 C2871 1.386 . S
H2869 C2885 0.930 . S
H2870 C2886 0.931 . S
C2871 H2859 0.929 . S
C2871 C2865 1.390 . S
C2871 C2868 1.386 . S
C2872 C2867 1.490 . S
C2872 C2874 1.395 . S
C2872 C2875 1.403 . S
H2873 C2879 0.930 . S
C2874 H2860 0.930 . S
C2874 C2872 1.395 . S
C2874 C2877 1.403 . S
C2875 C2872 1.403 . S
C2875 C2876 1.524 . S
C2875 C2879 1.400 . S
C2876 H2861 0.960 . S
C2876 H2862 0.960 . S
C2876 H2863 0.960 . S
C2876 C2875 1.524 . S
C2877 C2874 1.403 . S
C2877 C2878 1.392 . S
C2877 C2881 1.495 . S
C2878 C2877 1.392 . S
C2878 C2879 1.385 . S
C2878 C2880 1.478 . S
C2879 H2873 0.930 . S
C2879 C2875 1.400 . S
C2879 C2878 1.385 . S
C2880 C2878 1.478 . S
C2880 C2882 1.381 . S
C2880 C2886 1.383 . S
C2881 C2877 1.495 . S
C2881 H2887 0.959 . S
C2881 H2888 0.961 . S
C2881 H2889 0.960 . S
C2882 C2880 1.381 . S
C2882 C2883 1.394 . S
C2882 H2890 0.930 . S
C2883 C2882 1.394 . S
C2883 C2884 1.383 . S
C2883 H2891 0.929 . S
C2884 C2883 1.383 . S
C2884 C2885 1.377 . S
C2885 H2869 0.930 . S
C2885 C2884 1.377 . S
C2885 C2886 1.379 . S
C2886 H2870 0.931 . S
C2886 C2880 1.383 . S
C2886 C2885 1.379 . S
H2887 C2881 0.959 . S
H2888 C2881 0.961 . S
H2889 C2881 0.960 . S
H2890 C2882 0.930 . S
H2891 C2883 0.929 . S
H2892 C2900 0.929 . S
H2893 C2902 0.930 . S
H2894 C2904 0.930 . S
H2895 C2907 0.929 . S
H2896 C2910 0.930 . S
H2897 C2912 0.960 . S
H2898 C2912 0.960 1_554 S
H2899 C2912 0.960 . S
C2900 H2892 0.929 . S
C2900 C2901 1.377 . S
C2900 C2902 1.384 . S
C2901 C2900 1.377 . S
C2901 C2907 1.390 . S
C2902 H2893 0.930 . S
C2902 C2900 1.384 . S
C2902 C2903 1.372 . S
C2903 C2902 1.372 . S
C2903 C2904 1.400 . S
C2903 C2908 1.490 . S
C2904 H2894 0.930 . S
C2904 C2903 1.400 . S
C2904 C2907 1.386 . S
H2905 C2921 0.930 . S
H2906 C2922 0.931 . S
C2907 H2895 0.929 . S
C2907 C2901 1.390 . S
C2907 C2904 1.386 . S
C2908 C2903 1.490 . S
C2908 C2910 1.395 . S
C2908 C2911 1.403 1_554 S
H2909 C2915 0.930 . S
C2910 H2896 0.930 . S
C2910 C2908 1.395 . S
C2910 C2913 1.403 . S
C2911 C2908 1.403 1_556 S
C2911 C2912 1.524 . S
C2911 C2915 1.400 . S
C2912 H2897 0.960 . S
C2912 H2898 0.960 1_556 S
C2912 H2899 0.960 . S
C2912 C2911 1.524 . S
C2913 C2910 1.403 . S
C2913 C2914 1.392 1_554 S
C2913 C2917 1.495 . S
C2914 C2913 1.392 1_556 S
C2914 C2915 1.385 . S
C2914 C2916 1.478 . S
C2915 H2909 0.930 . S
C2915 C2911 1.400 . S
C2915 C2914 1.385 . S
C2916 C2914 1.478 . S
C2916 C2918 1.381 . S
C2916 C2922 1.383 . S
C2917 C2913 1.495 . S
C2917 H2923 0.959 . S
C2917 H2924 0.961 1_554 S
C2917 H2925 0.960 . S
C2918 C2916 1.381 . S
C2918 C2919 1.394 . S
C2918 H2926 0.930 . S
C2919 C2918 1.394 . S
C2919 C2920 1.383 . S
C2919 H2927 0.929 . S
C2920 C2919 1.383 . S
C2920 C2921 1.377 . S
C2921 H2905 0.930 . S
C2921 C2920 1.377 . S
C2921 C2922 1.379 . S
C2922 H2906 0.931 . S
C2922 C2916 1.383 . S
C2922 C2921 1.379 . S
H2923 C2917 0.959 . S
H2924 C2917 0.961 1_556 S
H2925 C2917 0.960 . S
H2926 C2918 0.930 . S
H2927 C2919 0.929 . S
H2928 C2936 0.929 . S
H2929 C2938 0.930 . S
H2930 C2940 0.930 . S
H2931 C2943 0.929 . S
H2932 C2946 0.930 . S
H2933 C2948 0.960 . S
H2934 C2948 0.960 . S
H2935 C2948 0.960 . S
C2936 H2928 0.929 . S
C2936 C2937 1.377 . S
C2936 C2938 1.384 . S
C2937 C2936 1.377 . S
C2937 C2943 1.390 . S
C2938 H2929 0.930 . S
C2938 C2936 1.384 . S
C2938 C2939 1.372 . S
C2939 C2938 1.372 . S
C2939 C2940 1.400 . S
C2939 C2944 1.490 . S
C2940 H2930 0.930 . S
C2940 C2939 1.400 . S
C2940 C2943 1.386 . S
H2941 C2957 0.930 . S
H2942 C2958 0.931 . S
C2943 H2931 0.929 . S
C2943 C2937 1.390 . S
C2943 C2940 1.386 . S
C2944 C2939 1.490 . S
C2944 C2946 1.395 . S
C2944 C2947 1.403 . S
H2945 C2951 0.930 . S
C2946 H2932 0.930 . S
C2946 C2944 1.395 . S
C2946 C2949 1.403 . S
C2947 C2944 1.403 . S
C2947 C2948 1.524 . S
C2947 C2951 1.400 . S
C2948 H2933 0.960 . S
C2948 H2934 0.960 . S
C2948 H2935 0.960 . S
C2948 C2947 1.524 . S
C2949 C2946 1.403 . S
C2949 C2950 1.392 . S
C2949 C2953 1.495 . S
C2950 C2949 1.392 . S
C2950 C2951 1.385 . S
C2950 C2952 1.478 . S
C2951 H2945 0.930 . S
C2951 C2947 1.400 . S
C2951 C2950 1.385 . S
C2952 C2950 1.478 . S
C2952 C2954 1.381 . S
C2952 C2958 1.383 . S
C2953 C2949 1.495 . S
C2953 H2959 0.959 . S
C2953 H2960 0.961 . S
C2953 H2961 0.960 . S
C2954 C2952 1.381 . S
C2954 C2955 1.394 . S
C2954 H2962 0.930 . S
C2955 C2954 1.394 . S
C2955 C2956 1.383 . S
C2955 H2963 0.929 . S
C2956 C2955 1.383 . S
C2956 C2957 1.377 . S
C2957 H2941 0.930 . S
C2957 C2956 1.377 . S
C2957 C2958 1.379 . S
C2958 H2942 0.931 . S
C2958 C2952 1.383 . S
C2958 C2957 1.379 . S
H2959 C2953 0.959 . S
H2960 C2953 0.961 . S
H2961 C2953 0.960 . S
H2962 C2954 0.930 . S
H2963 C2955 0.929 . S
H2964 C2972 0.929 . S
H2965 C2974 0.930 . S
H2966 C2976 0.930 . S
H2967 C2979 0.929 . S
H2968 C2982 0.930 . S
H2969 C2984 0.939 1_556 S
H2970 C2984 0.960 . S
H2971 C2984 0.960 . S
C2972 H2964 0.929 . S
C2972 C2973 1.377 . S
C2972 C2974 1.384 . S
C2973 C2972 1.377 . S
C2973 C2979 1.390 . S
C2974 H2965 0.930 . S
C2974 C2972 1.384 . S
C2974 C2975 1.372 . S
C2975 C2974 1.372 . S
C2975 C2976 1.400 . S
C2975 C2980 1.490 . S
C2976 H2966 0.930 . S
C2976 C2975 1.400 . S
C2976 C2979 1.386 . S
H2977 C2993 0.930 . S
H2978 C2994 0.931 . S
C2979 H2967 0.929 . S
C2979 C2973 1.390 . S
C2979 C2976 1.386 . S
C2980 C2975 1.490 . S
C2980 C2982 1.395 . S
C2980 C2983 1.421 . S
H2981 C2987 0.930 . S
C2982 H2968 0.930 . S
C2982 C2980 1.395 . S
C2982 C2985 1.403 1_554 S
C2983 C2980 1.421 . S
C2983 C2984 1.535 . S
C2983 C2987 1.370 1_554 S
C2984 H2969 0.939 1_554 S
C2984 H2970 0.960 . S
C2984 H2971 0.960 . S
C2984 C2983 1.535 . S
C2985 C2982 1.403 1_556 S
C2985 C2986 1.392 . S
C2985 C2989 1.495 . S
C2986 C2985 1.392 . S
C2986 C2987 1.385 . S
C2986 C2988 1.478 . S
C2987 H2981 0.930 . S
C2987 C2983 1.370 1_556 S
C2987 C2986 1.385 . S
C2988 C2986 1.478 . S
C2988 C2990 1.381 . S
C2988 C2994 1.383 . S
C2989 C2985 1.495 . S
C2989 H2995 0.959 . S
C2989 H2996 0.961 . S
C2989 H2997 0.960 . S
C2990 C2988 1.381 . S
C2990 C2991 1.394 . S
C2990 H2998 0.930 . S
C2991 C2990 1.394 . S
C2991 C2992 1.383 . S
C2991 H2999 0.929 . S
C2992 C2991 1.383 . S
C2992 C2993 1.377 . S
C2993 H2977 0.930 . S
C2993 C2992 1.377 . S
C2993 C2994 1.379 . S
C2994 H2978 0.931 . S
C2994 C2988 1.383 . S
C2994 C2993 1.379 . S
H2995 C2989 0.959 . S
H2996 C2989 0.961 . S
H2997 C2989 0.960 . S
H2998 C2990 0.930 . S
H2999 C2991 0.929 . S
C1281 C241 1.457 . S
C1300 C29 1.449 . S
C1317 C92 1.464 . S
C1336 C304 1.476 . S
C1353 C347 1.537 . S
C1372 C135 1.546 . S
C1389 C410 1.592 . S
C1408 C198 1.580 . S
C1425 C771 1.277 . S
C1444 C463 1.295 . S
C1461 C824 1.301 . S
C1480 C506 1.285 . S
C1497 C569 1.503 . S
C1516 C675 1.503 . S
C1533 C718 1.320 . S
C1552 C612 1.313 . S
C1569 C877 1.252 . S
C1588 C1142 1.257 . S
C1605 C940 1.585 . S
C1624 C1036 1.557 . S
C1641 C983 1.505 . S
C1660 C1089 1.491 . S
C1677 C1195 1.418 . S
C1696 C1248 1.405 . S
C1713 C188 1.746 . S
C1732 C294 1.729 . S
C1749 C39 2.057 . S
C1768 C357 2.067 . S
C1785 C400 1.758 . S
C1804 C82 1.773 . S
C1821 C145 2.092 . S
C1840 C251 2.093 . S
C1857 C1258 2.149 . S
C1876 C993 2.147 . S
C1893 C1046 2.371 . S
C1912 C1152 2.367 . S
C1929 C1099 2.172 . S
C1948 C1205 2.179 . S
C1965 C930 2.041 . S
C1984 C887 2.029 . S
C2001 C622 2.140 . S
C2020 C516 2.150 . S
C2037 C834 2.219 . S
C2056 C728 2.224 . S
C2073 C665 1.998 . S
C2092 C781 1.996 . S
C2109 C559 1.648 . S
C2128 C453 1.644 . S
C2145 C1188 1.646 . S
C2164 C22 1.646 . S
C2181 C870 1.400 . S
C2200 C91 1.378 . S
C2217 C1241 1.686 . S
C2236 C128 1.668 . S
C2253 C1135 1.485 . S
C2272 C197 1.480 . S
C2289 C976 1.626 . S
C2308 C234 1.631 . S
C2325 C303 1.486 . S
C2344 C1029 1.492 . S
C2361 C1082 1.717 . S
C2380 C340 1.712 . S
C2397 C939 1.468 . S
C2416 C409 1.452 . S
C2433 C711 1.392 . S
C2452 C462 1.365 . S
C2469 C764 1.406 . S
C2488 C499 1.390 . S
C2505 C817 1.283 . S
C2524 C568 1.279 . S
C2541 C605 1.375 . S
C2560 C674 1.382 . S
C2577 C287 1.717 . S
C2596 C552 1.733 . S
C2613 C356 1.991 . S
C2632 C621 1.996 . S
C2649 C446 1.727 . S
C2668 C393 1.712 . S
C2685 C250 1.938 . S
C2704 C515 1.947 . S
C2721 C780 1.786 . S
C2740 C181 1.787 . S
C2757 C38 1.934 . S
C2776 C833 1.921 . S
C2793 C658 1.718 . S
C2812 C75 1.706 . S
C2829 C144 1.988 . S
C2848 C727 1.977 . S
C2865 C923 2.034 . S
C2884 C1257 2.027 . S
C2901 C1151 2.085 . S
C2920 C992 2.090 . S
C2937 C1204 2.133 . S
C2956 C1045 2.134 . S
C2973 C886 2.073 . S
C2992 C1098 2.067 . S
