# Generated by pormake.
# Topology yfj, (5)-cn, num edge types: 1
# Building blocks:
#     Node 0, Type 0, BuildingBlock: XOMCOT_clean_sbu_1, # of connection points: 5
#     Node 1, Type 0, BuildingBlock: XOMCOT_clean_sbu_1, # of connection points: 5
#     Node 2, Type 0, BuildingBlock: XOMCOT_clean_sbu_1, # of connection points: 5
#     Node 3, Type 0, BuildingBlock: XOMCOT_clean_sbu_1, # of connection points: 5
#     Node 4, Type 0, BuildingBlock: XOMCOT_clean_sbu_1, # of connection points: 5
#     Node 5, Type 0, BuildingBlock: XOMCOT_clean_sbu_1, # of connection points: 5
#     Node 6, Type 0, BuildingBlock: XOMCOT_clean_sbu_1, # of connection points: 5
#     Node 7, Type 0, BuildingBlock: XOMCOT_clean_sbu_1, # of connection points: 5
#     Node 8, Type 0, BuildingBlock: XOMCOT_clean_sbu_1, # of connection points: 5
#     Node 9, Type 0, BuildingBlock: XOMCOT_clean_sbu_1, # of connection points: 5
#     Node 10, Type 0, BuildingBlock: XOMCOT_clean_sbu_1, # of connection points: 5
#     Node 11, Type 0, BuildingBlock: XOMCOT_clean_sbu_1, # of connection points: 5
#     Node 12, Type 0, BuildingBlock: XOMCOT_clean_sbu_1, # of connection points: 5
#     Node 13, Type 0, BuildingBlock: XOMCOT_clean_sbu_1, # of connection points: 5
#     Node 14, Type 0, BuildingBlock: XOMCOT_clean_sbu_1, # of connection points: 5
#     Node 15, Type 0, BuildingBlock: XOMCOT_clean_sbu_1, # of connection points: 5
#     Edge 16, Type (0, 0), BuildingBlock: XUDNAN_clean_linker_2, # of connection points: 2
#     Edge 17, Type (0, 0), BuildingBlock: XUDNAN_clean_linker_2, # of connection points: 2
#     Edge 18, Type (0, 0), BuildingBlock: XUDNAN_clean_linker_2, # of connection points: 2
#     Edge 19, Type (0, 0), BuildingBlock: XUDNAN_clean_linker_2, # of connection points: 2
#     Edge 20, Type (0, 0), BuildingBlock: XUDNAN_clean_linker_2, # of connection points: 2
#     Edge 21, Type (0, 0), BuildingBlock: XUDNAN_clean_linker_2, # of connection points: 2
#     Edge 22, Type (0, 0), BuildingBlock: XUDNAN_clean_linker_2, # of connection points: 2
#     Edge 23, Type (0, 0), BuildingBlock: XUDNAN_clean_linker_2, # of connection points: 2
#     Edge 24, Type (0, 0), BuildingBlock: XUDNAN_clean_linker_2, # of connection points: 2
#     Edge 25, Type (0, 0), BuildingBlock: XUDNAN_clean_linker_2, # of connection points: 2
#     Edge 26, Type (0, 0), BuildingBlock: XUDNAN_clean_linker_2, # of connection points: 2
#     Edge 27, Type (0, 0), BuildingBlock: XUDNAN_clean_linker_2, # of connection points: 2
#     Edge 28, Type (0, 0), BuildingBlock: XUDNAN_clean_linker_2, # of connection points: 2
#     Edge 29, Type (0, 0), BuildingBlock: XUDNAN_clean_linker_2, # of connection points: 2
#     Edge 30, Type (0, 0), BuildingBlock: XUDNAN_clean_linker_2, # of connection points: 2
#     Edge 31, Type (0, 0), BuildingBlock: XUDNAN_clean_linker_2, # of connection points: 2
#     Edge 32, Type (0, 0), BuildingBlock: XUDNAN_clean_linker_2, # of connection points: 2
#     Edge 33, Type (0, 0), BuildingBlock: XUDNAN_clean_linker_2, # of connection points: 2
#     Edge 34, Type (0, 0), BuildingBlock: XUDNAN_clean_linker_2, # of connection points: 2
#     Edge 35, Type (0, 0), BuildingBlock: XUDNAN_clean_linker_2, # of connection points: 2
#     Edge 36, Type (0, 0), BuildingBlock: XUDNAN_clean_linker_2, # of connection points: 2
#     Edge 37, Type (0, 0), BuildingBlock: XUDNAN_clean_linker_2, # of connection points: 2
#     Edge 38, Type (0, 0), BuildingBlock: XUDNAN_clean_linker_2, # of connection points: 2
#     Edge 39, Type (0, 0), BuildingBlock: XUDNAN_clean_linker_2, # of connection points: 2
#     Edge 40, Type (0, 0), BuildingBlock: XUDNAN_clean_linker_2, # of connection points: 2
#     Edge 41, Type (0, 0), BuildingBlock: XUDNAN_clean_linker_2, # of connection points: 2
#     Edge 42, Type (0, 0), BuildingBlock: XUDNAN_clean_linker_2, # of connection points: 2
#     Edge 43, Type (0, 0), BuildingBlock: XUDNAN_clean_linker_2, # of connection points: 2
#     Edge 44, Type (0, 0), BuildingBlock: XUDNAN_clean_linker_2, # of connection points: 2
#     Edge 45, Type (0, 0), BuildingBlock: XUDNAN_clean_linker_2, # of connection points: 2
#     Edge 46, Type (0, 0), BuildingBlock: XUDNAN_clean_linker_2, # of connection points: 2
#     Edge 47, Type (0, 0), BuildingBlock: XUDNAN_clean_linker_2, # of connection points: 2
#     Edge 48, Type (0, 0), BuildingBlock: XUDNAN_clean_linker_2, # of connection points: 2
#     Edge 49, Type (0, 0), BuildingBlock: XUDNAN_clean_linker_2, # of connection points: 2
#     Edge 50, Type (0, 0), BuildingBlock: XUDNAN_clean_linker_2, # of connection points: 2
#     Edge 51, Type (0, 0), BuildingBlock: XUDNAN_clean_linker_2, # of connection points: 2
#     Edge 52, Type (0, 0), BuildingBlock: XUDNAN_clean_linker_2, # of connection points: 2
#     Edge 53, Type (0, 0), BuildingBlock: XUDNAN_clean_linker_2, # of connection points: 2
#     Edge 54, Type (0, 0), BuildingBlock: XUDNAN_clean_linker_2, # of connection points: 2
#     Edge 55, Type (0, 0), BuildingBlock: XUDNAN_clean_linker_2, # of connection points: 2
# Relax obj value: 0.476
# Max RMSD: 0.238
# Mean RMSD: 0.238
data_MOF--net-yfj--node1-XOMCOT_clean_sbu_1--edge1-XUDNAN_clean_linker_2
_symmetry_space_group_name_H-M    P1
_symmetry_Int_Tables_number       1
_symmetry_cell_setting            triclinic
loop_
_symmetry_equiv_pos_as_xyz
'x, y, z'
_cell_length_a     48.668725
_cell_length_b     48.481165
_cell_length_c     43.502695
_cell_angle_alpha  90.04473
_cell_angle_beta   90.028116
_cell_angle_gamma 89.853647
loop_
_atom_site_label
_atom_site_type_symbol
_atom_site_fract_x
_atom_site_fract_y
_atom_site_fract_z
_atom_type_partial_charge
C0 C 0.11806 0.11058 0.36337 0.0
C1 C 0.11473 0.10702 0.39464 0.0
N2 N 0.1232 0.13012 0.40915 0.0
N3 N 0.12825 0.13595 0.35801 0.0
C4 C 0.13106 0.14723 0.38625 0.0
H5 H 0.1148 0.09509 0.34583 0.0
Co6 Co 0.1436 0.1498 0.32122 0.0
C7 C 0.11873 0.20831 0.32913 0.0
O8 O 0.10203 0.20841 0.30539 0.0
N9 N 0.16093 0.16288 0.28485 0.0
C10 C 0.1794 0.18659 0.24603 0.0
C11 C 0.16145 0.18767 0.27067 0.0
C12 C 0.17906 0.14737 0.26858 0.0
N13 N 0.19032 0.16108 0.24465 0.0
O14 O 0.17632 0.15484 0.34205 0.0
H15 H 0.14993 0.20561 0.27768 0.0
H16 H 0.18389 0.12617 0.27425 0.0
O17 O 0.13363 0.18716 0.33445 0.0
C18 C 0.1878 0.13233 0.34936 0.0
O19 O 0.18013 0.10958 0.33534 0.0
N20 N 0.11044 0.14232 0.30025 0.0
C21 C 0.06811 0.10616 0.28402 0.0
C22 C 0.06374 0.12683 0.30622 0.0
C23 C 0.08515 0.14517 0.31365 0.0
C24 C 0.11401 0.12383 0.27694 0.0
C25 C 0.09314 0.10599 0.26822 0.0
H26 H 0.08249 0.15906 0.33289 0.0
H27 H 0.13402 0.12007 0.26741 0.0
H28 H 0.14062 0.16691 0.38989 0.0
H29 H 0.10818 0.0882 0.40575 0.0
H30 H 0.18363 0.20311 0.23001 0.0
H31 H 0.04466 0.12771 0.31898 0.0
H32 H 0.0978 0.09018 0.25138 0.0
C33 C 0.91848 0.62018 0.61479 0.0
C34 C 0.92169 0.61583 0.64587 0.0
N35 N 0.89732 0.62023 0.65984 0.0
N36 N 0.89214 0.62708 0.60899 0.0
C37 C 0.87971 0.62655 0.63679 0.0
H38 H 0.93473 0.62034 0.59784 0.0
Co39 Co 0.87891 0.64304 0.57239 0.0
C40 C 0.82261 0.61156 0.57773 0.0
O41 O 0.82351 0.59264 0.55612 0.0
N42 N 0.86648 0.66055 0.53628 0.0
C43 C 0.84511 0.67648 0.49453 0.0
C44 C 0.84417 0.65737 0.51818 0.0
C45 C 0.88038 0.68174 0.52337 0.0
N46 N 0.8681 0.69165 0.49776 0.0
O47 O 0.8671 0.6734 0.59478 0.0
H48 H 0.82837 0.64206 0.52161 0.0
H49 H 0.89956 0.6895 0.5325 0.0
O50 O 0.84286 0.62786 0.58124 0.0
C51 C 0.88477 0.68677 0.60996 0.0
O52 O 0.91095 0.68357 0.60341 0.0
N53 N 0.89217 0.61248 0.55011 0.0
C54 C 0.93105 0.57331 0.53164 0.0
C55 C 0.90949 0.56594 0.55147 0.0
C56 C 0.88991 0.58586 0.56016 0.0
C57 C 0.91212 0.61936 0.52952 0.0
C58 C 0.93137 0.60007 0.51962 0.0
H59 H 0.87499 0.58068 0.57761 0.0
H60 H 0.91523 0.64056 0.52305 0.0
H61 H 0.85859 0.6328 0.6402 0.0
H62 H 0.941 0.6119 0.65742 0.0
H63 H 0.83055 0.67841 0.47583 0.0
H64 H 0.90862 0.54548 0.56139 0.0
H65 H 0.94792 0.60687 0.50482 0.0
C66 C 0.40832 0.41926 0.86281 0.0
C67 C 0.40882 0.42287 0.89424 0.0
N68 N 0.39301 0.40332 0.90735 0.0
N69 N 0.39269 0.39718 0.85589 0.0
C70 C 0.38307 0.38848 0.88346 0.0
H71 H 0.41838 0.43229 0.84612 0.0
Co72 Co 0.38254 0.3833 0.81674 0.0
C73 C 0.40436 0.33334 0.85229 0.0
O74 O 0.4221 0.34812 0.86792 0.0
N75 N 0.37034 0.37011 0.77765 0.0
C76 C 0.35359 0.34405 0.73961 0.0
C77 C 0.36997 0.34437 0.76571 0.0
C78 C 0.35413 0.38489 0.75828 0.0
N79 N 0.34373 0.36969 0.73502 0.0
O80 O 0.34672 0.37956 0.83052 0.0
H81 H 0.37989 0.32662 0.77592 0.0
H82 H 0.34882 0.40631 0.76191 0.0
O83 O 0.3903 0.34464 0.83062 0.0
C84 C 0.33591 0.4033 0.82726 0.0
O85 O 0.35129 0.42382 0.81766 0.0
N86 N 0.41779 0.39147 0.80101 0.0
C87 C 0.46053 0.42777 0.7863 0.0
C88 C 0.46542 0.40475 0.80528 0.0
C89 C 0.44368 0.3864 0.81202 0.0
C90 C 0.41348 0.41314 0.78165 0.0
C91 C 0.43439 0.43101 0.77362 0.0
H92 H 0.44738 0.3698 0.82784 0.0
H93 H 0.39299 0.41881 0.77497 0.0
H94 H 0.3694 0.37107 0.8858 0.0
H95 H 0.41966 0.43904 0.90631 0.0
H96 H 0.34909 0.32633 0.72533 0.0
H97 H 0.48542 0.40159 0.81562 0.0
H98 H 0.42937 0.44878 0.75957 0.0
C99 C 0.60911 0.90223 0.10796 0.0
C100 C 0.60168 0.90794 0.13759 0.0
N101 N 0.62409 0.90578 0.15556 0.0
N102 N 0.6363 0.89695 0.10671 0.0
C103 C 0.64494 0.89888 0.13636 0.0
H104 H 0.59527 0.90109 0.08858 0.0
Co105 Co 0.65255 0.88432 0.06989 0.0
C106 C 0.71072 0.91104 0.08942 0.0
O107 O 0.71755 0.93477 0.07709 0.0
N108 N 0.66724 0.87027 0.03268 0.0
C109 C 0.68186 0.86547 0.98432 0.0
C110 C 0.67936 0.88345 1.00896 0.0
C111 C 0.6629 0.84435 0.02195 0.0
N112 N 0.67149 0.84084 0.99263 0.0
O113 O 0.66277 0.8524 0.09035 0.0
H114 H 0.68494 0.90503 1.00908 0.0
H115 H 0.65246 0.8285 0.0349 0.0
O116 O 0.68773 0.90018 0.08193 0.0
C117 C 0.6419 0.83829 0.09757 0.0
O118 O 0.61865 0.84291 0.08301 0.0
N119 N 0.64039 0.91651 0.05017 0.0
C120 C 0.60001 0.95699 0.04509 0.0
C121 C 0.62481 0.9625 0.06047 0.0
C122 C 0.64491 0.94191 0.06271 0.0
C123 C 0.61841 0.9122 0.03134 0.0
C124 C 0.59788 0.93228 0.02842 0.0
H125 H 0.66188 0.94514 0.07827 0.0
H126 H 0.61469 0.89178 0.02225 0.0
H127 H 0.66583 0.89492 0.14374 0.0
H128 H 0.58113 0.91274 0.14553 0.0
H129 H 0.69048 0.87018 0.962 0.0
H130 H 0.6275 0.9815 0.07323 0.0
H131 H 0.57914 0.9271 1.01632 0.0
C132 C 0.10234 0.41848 0.92474 0.0
C133 C 0.10159 0.42259 0.89334 0.0
N134 N 0.11603 0.40225 0.8796 0.0
N135 N 0.11663 0.39525 0.93092 0.0
C136 C 0.12504 0.38624 0.90295 0.0
H137 H 0.09415 0.43234 0.94197 0.0
Co138 Co 0.12998 0.38199 0.96922 0.0
C139 C 0.10785 0.33065 0.93645 0.0
O140 O 0.08874 0.34419 0.92139 0.0
N141 N 0.14539 0.36928 1.00685 0.0
C142 C 0.16094 0.34446 0.04646 0.0
C143 C 0.14349 0.34469 0.02127 0.0
C144 C 0.16411 0.38346 0.02367 0.0
N145 N 0.17374 0.36901 0.04794 0.0
O146 O 0.16422 0.37825 0.95136 0.0
H147 H 0.13057 0.32784 1.01386 0.0
H148 H 0.1707 0.40415 1.01815 0.0
O149 O 0.12223 0.3431 0.95694 0.0
C150 C 0.17438 0.40227 0.94922 0.0
O151 O 0.16176 0.42292 0.96289 0.0
N152 N 0.09576 0.3899 0.98841 0.0
C153 C 0.05422 0.42714 1.00547 0.0
C154 C 0.04892 0.40606 0.98406 0.0
C155 C 0.06994 0.38716 0.97624 0.0
C156 C 0.1003 0.40938 1.01052 0.0
C157 C 0.07989 0.4276 0.01975 0.0
H158 H 0.06611 0.37269 0.95806 0.0
H159 H 0.12072 0.41357 1.01859 0.0
H160 H 0.13815 0.3684 0.89994 0.0
H161 H 0.09223 0.43997 0.88175 0.0
H162 H 0.16361 0.32777 0.06271 0.0
H163 H 0.02928 0.40505 0.97239 0.0
H164 H 0.08521 0.44381 0.03584 0.0
C165 C 0.59377 0.62605 0.1716 0.0
C166 C 0.59064 0.624 0.14015 0.0
N167 N 0.61518 0.62869 0.12676 0.0
N168 N 0.62024 0.63172 0.17814 0.0
C169 C 0.63265 0.63347 0.15038 0.0
H170 H 0.57781 0.62353 0.18866 0.0
Co171 Co 0.63578 0.63697 0.21733 0.0
C172 C 0.68943 0.60732 0.19874 0.0
O173 O 0.68533 0.58435 0.21403 0.0
N174 N 0.65133 0.64372 0.25676 0.0
C175 C 0.67416 0.64246 0.30118 0.0
C176 C 0.67052 0.62979 0.27297 0.0
C177 C 0.64377 0.66472 0.27567 0.0
N178 N 0.65744 0.6646 0.30261 0.0
O179 O 0.64355 0.67316 0.20737 0.0
H180 H 0.68076 0.61127 0.26528 0.0
H181 H 0.62753 0.67921 0.2706 0.0
O182 O 0.67175 0.62676 0.2003 0.0
C183 C 0.6231 0.68895 0.21185 0.0
O184 O 0.59902 0.67825 0.21838 0.0
N185 N 0.62497 0.60111 0.22875 0.0
C186 C 0.58914 0.5577 0.24235 0.0
C187 C 0.60641 0.55638 0.21645 0.0
C188 C 0.62441 0.57838 0.21009 0.0
C189 C 0.60871 0.60213 0.25425 0.0
C190 C 0.59122 0.58064 0.26172 0.0
H191 H 0.63588 0.57824 0.18881 0.0
H192 H 0.6071 0.62084 0.26759 0.0
H193 H 0.65422 0.63803 0.14756 0.0
H194 H 0.57161 0.61984 0.12817 0.0
H195 H 0.68786 0.63576 0.31933 0.0
H196 H 0.60514 0.53918 0.20062 0.0
H197 H 0.57769 0.58318 0.28129 0.0
C198 C 0.39485 0.092 0.42218 0.0
C199 C 0.39535 0.08901 0.39063 0.0
N200 N 0.38677 0.11282 0.37776 0.0
N201 N 0.38639 0.11773 0.42929 0.0
C202 C 0.38123 0.12973 0.40175 0.0
H203 H 0.4007 0.07656 0.4389 0.0
Co204 Co 0.3829 0.13295 0.46907 0.0
C205 C 0.40053 0.19075 0.44352 0.0
O206 O 0.42676 0.19155 0.45053 0.0
N207 N 0.37739 0.14785 0.50903 0.0
C208 C 0.36216 0.1764 0.54541 0.0
C209 C 0.37787 0.17418 0.51902 0.0
C210 C 0.36195 0.13452 0.53025 0.0
N211 N 0.35157 0.15141 0.55226 0.0
O212 O 0.34531 0.13544 0.46369 0.0
H213 H 0.38669 0.19126 0.50655 0.0
H214 H 0.35679 0.113 0.528 0.0
O215 O 0.38602 0.16987 0.45103 0.0
C216 C 0.33219 0.11366 0.4704 0.0
O217 O 0.34557 0.09053 0.47552 0.0
N218 N 0.4208 0.12754 0.47582 0.0
C219 C 0.46452 0.08995 0.47421 0.0
C220 C 0.4622 0.11092 0.45192 0.0
C221 C 0.44009 0.12959 0.45312 0.0
C222 C 0.42494 0.10979 0.49971 0.0
C223 C 0.44658 0.09094 0.49939 0.0
H224 H 0.43635 0.14256 0.43337 0.0
H225 H 0.40932 0.10708 0.51698 0.0
H226 H 0.37394 0.15069 0.39925 0.0
H227 H 0.4014 0.07063 0.3782 0.0
H228 H 0.35724 0.19552 0.557 0.0
H229 H 0.47582 0.11142 0.43227 0.0
H230 H 0.44702 0.07526 0.51708 0.0
C231 C 0.92261 0.87059 0.67866 0.0
C232 C 0.93114 0.87446 0.64887 0.0
N233 N 0.90908 0.88078 0.63154 0.0
N234 N 0.89528 0.87468 0.68043 0.0
C235 C 0.88749 0.88062 0.65114 0.0
H236 H 0.93576 0.86661 0.69822 0.0
Co237 Co 0.8771 0.87581 0.71862 0.0
C238 C 0.82498 0.9052 0.69533 0.0
O239 O 0.82714 0.92675 0.71352 0.0
N240 N 0.85979 0.87504 0.75809 0.0
C241 C 0.82791 0.86178 0.79171 0.0
C242 C 0.83282 0.87652 0.76517 0.0
C243 C 0.87073 0.86001 0.78157 0.0
N244 N 0.85175 0.85095 0.80187 0.0
O245 O 0.86679 0.83913 0.71438 0.0
H246 H 0.81688 0.88397 0.75012 0.0
H247 H 0.89159 0.85235 0.78141 0.0
O248 O 0.84286 0.88592 0.69698 0.0
C249 C 0.88319 0.82162 0.726 0.0
O250 O 0.90797 0.82938 0.73425 0.0
N251 N 0.88961 0.91213 0.72404 0.0
C252 C 0.93023 0.95289 0.72226 0.0
C253 C 0.9088 0.95258 0.70051 0.0
C254 C 0.88873 0.93191 0.70169 0.0
C255 C 0.90872 0.91369 0.74688 0.0
C256 C 0.92907 0.9339 0.74654 0.0
H257 H 0.87453 0.93013 0.68273 0.0
H258 H 0.91037 0.89729 0.76353 0.0
H259 H 0.8669 0.88675 0.64465 0.0
H260 H 0.95217 0.874 0.64079 0.0
H261 H 0.80781 0.85633 0.80044 0.0
H262 H 0.90857 0.967 0.68151 0.0
H263 H 0.94524 0.93281 0.76359 0.0
C264 C 0.61764 0.59556 0.85615 0.0
C265 C 0.61499 0.59107 0.88743 0.0
N266 N 0.62594 0.61278 0.90237 0.0
N267 N 0.62975 0.62024 0.85144 0.0
C268 C 0.63457 0.62997 0.88002 0.0
H269 H 0.61155 0.58157 0.83801 0.0
Co270 Co 0.64142 0.63665 0.81417 0.0
C271 C 0.65884 0.69121 0.8392 0.0
O272 O 0.68263 0.68722 0.82569 0.0
N273 N 0.65508 0.65209 0.77692 0.0
C274 C 0.67105 0.67836 0.73877 0.0
C275 C 0.65477 0.6778 0.76494 0.0
C276 C 0.67107 0.63745 0.75721 0.0
N277 N 0.68116 0.65283 0.73399 0.0
O278 O 0.67729 0.63233 0.82697 0.0
H279 H 0.644 0.69518 0.77488 0.0
H280 H 0.67552 0.61574 0.75995 0.0
O281 O 0.63929 0.67379 0.83469 0.0
C282 C 0.68631 0.60807 0.82231 0.0
O283 O 0.66972 0.58902 0.81154 0.0
N284 N 0.60463 0.63726 0.79963 0.0
C285 C 0.55879 0.60427 0.78746 0.0
C286 C 0.55966 0.62098 0.81392 0.0
C287 C 0.58256 0.63818 0.81912 0.0
C288 C 0.60226 0.62384 0.77215 0.0
C289 C 0.57959 0.60758 0.76557 0.0
H290 H 0.58429 0.64874 0.84095 0.0
H291 H 0.61938 0.62203 0.7567 0.0
H292 H 0.64448 0.64928 0.88447 0.0
H293 H 0.60656 0.57287 0.89826 0.0
H294 H 0.67492 0.69606 0.72426 0.0
H295 H 0.54382 0.61941 0.83129 0.0
H296 H 0.58014 0.59515 0.74488 0.0
C297 C 0.42157 0.12429 0.10891 0.0
C298 C 0.42461 0.12266 0.14039 0.0
N299 N 0.40097 0.13094 0.15372 0.0
N300 N 0.39598 0.13321 0.10225 0.0
C301 C 0.3841 0.13743 0.13004 0.0
H302 H 0.43692 0.11903 0.09189 0.0
Co303 Co 0.3808 0.13873 0.06269 0.0
C304 C 0.32456 0.11617 0.08171 0.0
O305 O 0.32612 0.09401 0.06439 0.0
N306 N 0.36605 0.14606 0.02281 0.0
C307 C 0.33892 0.15405 0.98241 0.0
C308 C 0.34178 0.13963 1.00962 0.0
C309 C 0.37758 0.16412 1.00272 0.0
N310 N 0.36139 0.1698 0.97822 0.0
O311 O 0.37854 0.17624 0.0709 0.0
H312 H 0.32637 0.12645 0.01952 0.0
H313 H 0.3974 0.17349 1.00627 0.0
O314 O 0.3439 0.13393 0.08094 0.0
C315 C 0.4016 0.18766 0.06595 0.0
O316 O 0.4226 0.17231 0.05751 0.0
N317 N 0.38647 0.10109 0.0536 0.0
C318 C 0.42296 0.05647 0.05317 0.0
C319 C 0.40196 0.05821 0.07531 0.0
C320 C 0.38389 0.08076 0.07518 0.0
C321 C 0.4044 0.09778 0.02976 0.0
C322 C 0.42272 0.07559 0.02902 0.0
H323 H 0.37078 0.08379 0.09495 0.0
H324 H 0.40744 0.11429 1.01348 0.0
H325 H 0.36329 0.14483 0.13289 0.0
H326 H 0.44296 0.11615 0.15245 0.0
H327 H 0.32095 0.15396 0.96775 0.0
H328 H 0.40112 0.04373 0.09422 0.0
H329 H 0.43859 0.07539 1.01158 0.0
C330 C 0.90552 0.9363 0.36274 0.0
C331 C 0.91007 0.94297 0.39306 0.0
N332 N 0.90453 0.9207 0.41057 0.0
N333 N 0.8974 0.9098 0.36083 0.0
C334 C 0.89662 0.90094 0.39043 0.0
H335 H 0.90815 0.94984 0.34321 0.0
Co336 Co 0.8879 0.89127 0.32407 0.0
C337 C 0.91232 0.83707 0.34689 0.0
O338 O 0.9342 0.83894 0.32938 0.0
N339 N 0.87643 0.87281 0.28735 0.0
C340 C 0.86708 0.84188 0.25088 0.0
C341 C 0.88331 0.84779 0.27606 0.0
C342 C 0.85627 0.88179 0.26808 0.0
N343 N 0.84992 0.86328 0.2459 0.0
O344 O 0.85172 0.89131 0.33678 0.0
H345 H 0.89862 0.83423 0.28572 0.0
H346 H 0.84568 0.90124 0.27082 0.0
O347 O 0.89369 0.85566 0.34536 0.0
C348 C 0.84147 0.91485 0.33067 0.0
O349 O 0.85692 0.93394 0.31807 0.0
N350 N 0.92447 0.89526 0.3095 0.0
C351 C 0.96799 0.93026 0.29369 0.0
C352 C 0.9687 0.91504 0.32118 0.0
C353 C 0.94683 0.8973 0.32852 0.0
C354 C 0.9249 0.90802 0.28154 0.0
C355 C 0.94643 0.92522 0.27313 0.0
H356 H 0.94634 0.88812 0.35116 0.0
H357 H 0.90698 0.90817 0.26699 0.0
H358 H 0.89072 0.88031 0.39712 0.0
H359 H 0.91679 0.96283 0.40152 0.0
H360 H 0.86772 0.82307 0.23747 0.0
H361 H 0.98504 0.91814 0.33772 0.0
H362 H 0.94451 0.93676 0.25192 0.0
C363 C 0.10288 0.4042 0.60837 0.0
C364 C 0.09844 0.40592 0.63959 0.0
N365 N 0.1217 0.3984 0.65432 0.0
N366 N 0.12893 0.39593 0.60325 0.0
C367 C 0.1398 0.39243 0.63163 0.0
H368 H 0.08784 0.40789 0.5905 0.0
Co369 Co 0.14449 0.38606 0.56514 0.0
C370 C 0.20018 0.41207 0.5813 0.0
O371 O 0.1978 0.43358 0.56316 0.0
N372 N 0.15975 0.37466 0.52695 0.0
C373 C 0.17939 0.37401 0.48068 0.0
C374 C 0.17796 0.3876 0.50855 0.0
C375 C 0.15084 0.35299 0.50983 0.0
N376 N 0.16243 0.35215 0.48165 0.0
O377 O 0.14824 0.35041 0.57994 0.0
H378 H 0.1881 0.40674 0.51403 0.0
H379 H 0.13464 0.33919 0.51692 0.0
O380 O 0.18108 0.3941 0.58206 0.0
C381 C 0.12475 0.33907 0.58003 0.0
O382 O 0.10449 0.35116 0.56518 0.0
N383 N 0.13725 0.42186 0.5499 0.0
C384 C 0.1029 0.46632 0.53529 0.0
C385 C 0.12059 0.46769 0.56078 0.0
C386 C 0.13798 0.44526 0.56751 0.0
C387 C 0.12113 0.42104 0.52423 0.0
C388 C 0.10435 0.44314 0.51621 0.0
H389 H 0.14952 0.44551 0.58876 0.0
H390 H 0.11873 0.40211 0.51147 0.0
H391 H 0.16043 0.38489 0.63548 0.0
H392 H 0.07916 0.41126 0.65045 0.0
H393 H 0.19102 0.38043 0.46073 0.0
H394 H 0.1199 0.4852 0.57623 0.0
H395 H 0.09063 0.44088 0.49676 0.0
C396 C 0.61276 0.91572 0.43011 0.0
C397 C 0.60748 0.92499 0.40104 0.0
N398 N 0.61434 0.90509 0.38065 0.0
N399 N 0.62278 0.88988 0.42872 0.0
C400 C 0.62383 0.88394 0.3982 0.0
H401 H 0.6107 0.92762 0.45101 0.0
Co402 Co 0.63734 0.87278 0.46398 0.0
C403 C 0.62148 0.81384 0.45149 0.0
O404 O 0.60823 0.81232 0.47776 0.0
N405 N 0.65423 0.85741 0.4998 0.0
C406 C 0.68157 0.83284 0.53082 0.0
C407 C 0.66408 0.83186 0.50584 0.0
C408 C 0.66671 0.87347 0.52128 0.0
N409 N 0.68338 0.85915 0.54051 0.0
O410 O 0.67163 0.87575 0.44661 0.0
H411 H 0.66106 0.81386 0.49172 0.0
H412 H 0.66531 0.89573 0.52125 0.0
O413 O 0.63331 0.83636 0.44407 0.0
C414 C 0.68059 0.90025 0.44862 0.0
O415 O 0.66744 0.91813 0.46596 0.0
N416 N 0.60192 0.87276 0.48178 0.0
C417 C 0.55717 0.90874 0.48351 0.0
C418 C 0.55678 0.88533 0.46434 0.0
C419 C 0.57942 0.86737 0.46392 0.0
C420 C 0.60004 0.89189 0.5047 0.0
C421 C 0.57796 0.9103 0.50581 0.0
H422 H 0.58078 0.85267 0.4453 0.0
H423 H 0.61763 0.89655 0.51871 0.0
H424 H 0.63231 0.86497 0.38911 0.0
H425 H 0.60043 0.94557 0.39558 0.0
H426 H 0.693 0.81561 0.54019 0.0
H427 H 0.5407 0.88258 0.44742 0.0
H428 H 0.57934 0.92766 0.52138 0.0
C429 C 0.10366 0.1197 0.67984 0.0
C430 C 0.09974 0.11869 0.64848 0.0
N431 N 0.12199 0.12958 0.63463 0.0
N432 N 0.12845 0.13083 0.68587 0.0
C433 C 0.13899 0.13685 0.65788 0.0
H434 H 0.08918 0.11311 0.69718 0.0
Co435 Co 0.14343 0.1385 0.72487 0.0
C436 C 0.20031 0.14933 0.70361 0.0
O437 O 0.19879 0.17394 0.71617 0.0
N438 N 0.15775 0.14741 0.76407 0.0
C439 C 0.18386 0.15486 0.80526 0.0
C440 C 0.18141 0.14022 0.77806 0.0
C441 C 0.14606 0.16596 0.78345 0.0
N442 N 0.16161 0.17131 0.80853 0.0
O443 O 0.14439 0.17567 0.71448 0.0
H444 H 0.19637 0.12601 0.76865 0.0
H445 H 0.12645 0.1756 0.77908 0.0
O446 O 0.18051 0.13227 0.70744 0.0
C447 C 0.1208 0.18651 0.71796 0.0
O448 O 0.10044 0.17111 0.72784 0.0
N449 N 0.13904 0.10162 0.73586 0.0
C450 C 0.1047 0.05575 0.73368 0.0
C451 C 0.12864 0.0569 0.71547 0.0
C452 C 0.14572 0.08016 0.71694 0.0
C453 C 0.11829 0.09911 0.75664 0.0
C454 C 0.10087 0.07635 0.75598 0.0
H455 H 0.16174 0.08256 0.69994 0.0
H456 H 0.11258 0.11659 0.77071 0.0
H457 H 0.15873 0.14662 0.65466 0.0
H458 H 0.08152 0.11126 0.63689 0.0
H459 H 0.20124 0.1541 0.82074 0.0
H460 H 0.13283 0.04122 0.69836 0.0
H461 H 0.08277 0.07676 0.77041 0.0
C462 C 0.90984 0.60482 0.93097 0.0
C463 C 0.91274 0.60072 0.8997 0.0
N464 N 0.90179 0.62258 0.88492 0.0
N465 N 0.8975 0.62938 0.93592 0.0
C466 C 0.89301 0.63962 0.90746 0.0
H467 H 0.91487 0.59014 0.94885 0.0
Co468 Co 0.88147 0.64324 0.9724 0.0
C469 C 0.86754 0.69935 0.95123 0.0
O470 O 0.8433 0.6952 0.96361 0.0
N471 N 0.86355 0.65627 1.00848 0.0
C472 C 0.84743 0.67877 0.04951 0.0
C473 C 0.86564 0.67977 0.02501 0.0
C474 C 0.84432 0.64133 0.02361 0.0
N475 N 0.83418 0.6544 0.04861 0.0
O476 O 0.84775 0.64087 0.9529 0.0
H477 H 0.87957 0.69645 0.01977 0.0
H478 H 0.83814 0.62085 1.01672 0.0
O479 O 0.88666 0.68145 0.95581 0.0
C480 C 0.84029 0.61584 0.95083 0.0
O481 O 0.85397 0.59689 0.96614 0.0
N482 N 0.91592 0.64155 0.9927 0.0
C483 C 0.95944 0.60643 1.00824 0.0
C484 C 0.96212 0.62537 0.98394 0.0
C485 C 0.94027 0.64357 0.97713 0.0
C486 C 0.91454 0.62558 1.01851 0.0
C487 C 0.93606 0.60825 0.02681 0.0
H488 H 0.94142 0.656 0.95653 0.0
H489 H 0.89548 0.62278 0.0306 0.0
H490 H 0.882 0.65855 0.90333 0.0
H491 H 0.92061 0.58226 0.88876 0.0
H492 H 0.84483 0.69431 0.06716 0.0
H493 H 0.98002 0.62488 0.96918 0.0
H494 H 0.93287 0.59403 0.04567 0.0
C495 C 0.41193 0.39852 0.17852 0.0
C496 C 0.41622 0.40069 0.14727 0.0
N497 N 0.39284 0.39364 0.13256 0.0
N498 N 0.38584 0.39048 0.18362 0.0
C499 C 0.37482 0.38759 0.15523 0.0
H500 H 0.42712 0.40158 0.19635 0.0
Co501 Co 0.36998 0.37929 0.22115 0.0
C502 C 0.31496 0.40701 0.20511 0.0
O503 O 0.31747 0.42817 0.22376 0.0
N504 N 0.35426 0.36642 0.25841 0.0
C505 C 0.32819 0.35922 0.29964 0.0
C506 C 0.33233 0.37575 0.27428 0.0
C507 C 0.36326 0.34438 0.27492 0.0
N508 N 0.3477 0.33943 0.30006 0.0
O509 O 0.36615 0.34436 0.20444 0.0
H510 H 0.32005 0.39343 0.26805 0.0
H511 H 0.38067 0.33183 0.26836 0.0
O512 O 0.33367 0.38854 0.20431 0.0
C513 C 0.38987 0.33344 0.20345 0.0
O514 O 0.40959 0.34434 0.22015 0.0
N515 N 0.37727 0.41428 0.23824 0.0
C516 C 0.41488 0.45594 0.25255 0.0
C517 C 0.39618 0.45923 0.22816 0.0
C518 C 0.37732 0.43815 0.22146 0.0
C519 C 0.39363 0.41201 0.26358 0.0
C520 C 0.41226 0.43257 0.27126 0.0
H521 H 0.36549 0.43955 0.20048 0.0
H522 H 0.39513 0.39273 0.27584 0.0
H523 H 0.35417 0.38023 0.15133 0.0
H524 H 0.43548 0.40589 0.13634 0.0
H525 H 0.31212 0.36175 0.31662 0.0
H526 H 0.39736 0.47698 0.21313 0.0
H527 H 0.42648 0.4286 0.2899 0.0
H528 H 0.09896 0.10112 0.45587 0.0
H529 H 0.15473 0.16917 0.43805 0.0
H530 H 0.16059 0.17599 0.49345 0.0
H531 H 0.0661 0.13091 0.52173 0.0
H532 H 0.06341 0.0987 0.54217 0.0
H533 H 0.06356 0.09892 0.50077 0.0
H534 H 0.10488 0.06511 0.50056 0.0
H535 H 0.10484 0.06476 0.54196 0.0
H536 H 0.13564 0.07395 0.52142 0.0
H537 H 0.1608 0.17549 0.55149 0.0
H538 H 0.15423 0.16822 0.60712 0.0
H539 H 0.09904 0.10022 0.58759 0.0
C540 C 0.11258 0.11735 0.46343 0.0
C541 C 0.12635 0.13445 0.44201 0.0
C542 C 0.14365 0.15573 0.45342 0.0
C543 C 0.14729 0.15977 0.48511 0.0
C544 C 0.1335 0.14247 0.50542 0.0
C545 C 0.11645 0.12172 0.49505 0.0
C546 C 0.10386 0.10612 0.52177 0.0
C547 C 0.07237 0.10884 0.52159 0.0
C548 C 0.11285 0.07568 0.5214 0.0
C549 C 0.11641 0.12142 0.54875 0.0
C550 C 0.13354 0.14225 0.53882 0.0
C551 C 0.14747 0.15917 0.55951 0.0
C552 C 0.14374 0.15476 0.59115 0.0
C553 C 0.12613 0.1336 0.60197 0.0
C554 C 0.11239 0.11675 0.58025 0.0
H555 H 0.9311 0.59952 0.83789 0.0
H556 H 0.86096 0.65217 0.8574 0.0
H557 H 0.85225 0.65712 0.80197 0.0
H558 H 0.9535 0.6361 0.77001 0.0
H559 H 0.96375 0.60524 0.74987 0.0
H560 H 0.96485 0.60624 0.79124 0.0
H561 H 0.93368 0.56298 0.79352 0.0
H562 H 0.93241 0.56196 0.75215 0.0
H563 H 0.90098 0.56339 0.77401 0.0
H564 H 0.85012 0.65539 0.74422 0.0
H565 H 0.85672 0.64941 0.68862 0.0
H566 H 0.92745 0.59694 0.70611 0.0
C567 C 0.91381 0.61194 0.83055 0.0
C568 C 0.89687 0.62555 0.85226 0.0
C569 C 0.87461 0.64189 0.84148 0.0
C570 C 0.86927 0.64463 0.80994 0.0
C571 C 0.88624 0.63081 0.78925 0.0
C572 C 0.90815 0.61491 0.79907 0.0
C573 C 0.92342 0.60253 0.77196 0.0
C574 C 0.95314 0.61317 0.7707 0.0
C575 C 0.92256 0.57083 0.77298 0.0
C576 C 0.9065 0.61373 0.74545 0.0
C577 C 0.88511 0.62995 0.75594 0.0
C578 C 0.86675 0.6426 0.73578 0.0
C579 C 0.87056 0.63887 0.70407 0.0
C580 C 0.89256 0.62256 0.69261 0.0
C581 C 0.91057 0.60972 0.71386 0.0
H582 H 0.42232 0.41855 0.08693 0.0
H583 H 0.35362 0.36333 0.10283 0.0
H584 H 0.34587 0.36023 0.04704 0.0
H585 H 0.39359 0.45516 0.02345 0.0
H586 H 0.42558 0.45759 1.00278 0.0
H587 H 0.42571 0.45561 0.04412 0.0
H588 H 0.4578 0.41292 0.04171 0.0
H589 H 0.4579 0.41487 1.00036 0.0
H590 H 0.44773 0.3834 1.01917 0.0
H591 H 0.34521 0.36371 0.98888 0.0
H592 H 0.35231 0.37248 0.93378 0.0
H593 H 0.42288 0.42361 0.95575 0.0
C594 C 0.40577 0.4056 0.07882 0.0
C595 C 0.3885 0.39142 0.09968 0.0
C596 C 0.3669 0.37492 0.08771 0.0
C597 C 0.36241 0.37285 0.05588 0.0
C598 C 0.37974 0.38724 0.03611 0.0
C599 C 0.40107 0.40318 0.04713 0.0
C600 C 0.41688 0.41643 0.021 0.0
C601 C 0.41533 0.44807 0.02297 0.0
C602 C 0.44685 0.40629 0.02054 0.0
C603 C 0.40099 0.40564 0.99355 0.0
C604 C 0.37964 0.38884 1.00273 0.0
C605 C 0.362 0.3767 0.98146 0.0
C606 C 0.36633 0.38174 0.95003 0.0
C607 C 0.38828 0.39874 0.9399 0.0
C608 C 0.40573 0.41078 0.96229 0.0
H609 H 0.64039 0.87329 0.33606 0.0
H610 H 0.58425 0.94242 0.34853 0.0
H611 H 0.58489 0.95115 0.29352 0.0
H612 H 0.68023 0.90119 0.27411 0.0
H613 H 0.68218 0.86989 0.25179 0.0
H614 H 0.67872 0.86812 0.29298 0.0
H615 H 0.63529 0.83814 0.28775 0.0
H616 H 0.63877 0.83911 0.24652 0.0
H617 H 0.60713 0.85008 0.26428 0.0
H618 H 0.59195 0.95473 0.23864 0.0
H619 H 0.5995 0.94821 0.18326 0.0
H620 H 0.6479 0.87482 0.20163 0.0
C621 C 0.62812 0.89015 0.32724 0.0
C622 C 0.61305 0.90776 0.3474 0.0
C623 C 0.59697 0.92927 0.33439 0.0
C624 C 0.59699 0.93437 0.30286 0.0
C625 C 0.61262 0.91744 0.28396 0.0
C626 C 0.62735 0.89529 0.29525 0.0
C627 C 0.64097 0.87962 0.2688 0.0
C628 C 0.6724 0.87973 0.27213 0.0
C629 C 0.62988 0.84998 0.26672 0.0
C630 C 0.63176 0.89685 0.24126 0.0
C631 C 0.61564 0.91867 0.25099 0.0
C632 C 0.60436 0.93764 0.23061 0.0
C633 C 0.60881 0.93382 0.19922 0.0
C634 C 0.62423 0.91113 0.18817 0.0
C635 C 0.63638 0.89259 0.20952 0.0
H636 H 0.09132 0.42245 0.69998 0.0
H637 H 0.16118 0.36828 0.68419 0.0
H638 H 0.16796 0.36423 0.74009 0.0
H639 H 0.1182 0.45792 0.76561 0.0
H640 H 0.08564 0.45949 0.78527 0.0
H641 H 0.08665 0.45868 0.74389 0.0
H642 H 0.0551 0.4157 0.74367 0.0
H643 H 0.05389 0.41645 0.78504 0.0
H644 H 0.065 0.38563 0.76541 0.0
H645 H 0.16724 0.36633 0.79841 0.0
H646 H 0.1583 0.37318 0.85355 0.0
H647 H 0.08731 0.42387 0.83124 0.0
C648 C 0.10797 0.40956 0.70808 0.0
C649 C 0.12577 0.39588 0.68725 0.0
C650 C 0.14746 0.37946 0.69929 0.0
C651 C 0.15142 0.37686 0.73117 0.0
C652 C 0.13348 0.39067 0.75091 0.0
C653 C 0.11211 0.40659 0.7398 0.0
C654 C 0.09541 0.41895 0.76584 0.0
C655 C 0.09656 0.45064 0.7651 0.0
C656 C 0.06559 0.40855 0.76493 0.0
C657 C 0.11072 0.40753 0.79341 0.0
C658 C 0.13268 0.39135 0.78433 0.0
C659 C 0.14995 0.37878 0.80573 0.0
C660 C 0.14452 0.38267 0.83715 0.0
C661 C 0.12183 0.39889 0.84712 0.0
C662 C 0.10489 0.41152 0.82468 0.0
H663 H 0.59291 0.59375 0.94859 0.0
H664 H 0.66714 0.64041 0.93078 0.0
H665 H 0.6723 0.64946 0.98614 0.0
H666 H 0.56729 0.63667 1.00916 0.0
H667 H 0.5542 0.6086 0.03197 0.0
H668 H 0.55645 0.60516 0.99082 0.0
H669 H 0.58593 0.56096 0.99711 0.0
H670 H 0.58365 0.56418 0.03829 0.0
H671 H 0.61681 0.56218 0.01998 0.0
H672 H 0.66922 0.65423 0.04341 0.0
H673 H 0.65818 0.65425 0.09857 0.0
H674 H 0.58652 0.60353 0.08033 0.0
C675 C 0.61038 0.60562 0.9564 0.0
C676 C 0.62943 0.61666 0.93513 0.0
C677 C 0.6519 0.63228 0.94638 0.0
C678 C 0.65516 0.63735 0.9779 0.0
C679 C 0.63585 0.62655 0.99816 0.0
C680 C 0.61395 0.61092 0.98795 0.0
C681 C 0.59599 0.60207 1.01471 0.0
C682 C 0.56675 0.61383 1.01146 0.0
C683 C 0.59558 0.57047 1.01769 0.0
C684 C 0.61115 0.6153 0.04143 0.0
C685 C 0.63413 0.62924 0.03133 0.0
C686 C 0.65134 0.64324 0.05161 0.0
C687 C 0.64494 0.64299 0.08307 0.0
C688 C 0.62148 0.62881 0.09418 0.0
C689 C 0.60444 0.61481 0.07282 0.0
H690 H 0.41621 0.09006 0.33065 0.0
H691 H 0.35247 0.15012 0.3508 0.0
H692 H 0.34915 0.1614 0.29557 0.0
H693 H 0.4496 0.12905 0.27152 0.0
H694 H 0.4574 0.09937 0.24809 0.0
H695 H 0.4545 0.09576 0.28916 0.0
H696 H 0.41752 0.05795 0.28193 0.0
H697 H 0.42039 0.06136 0.24083 0.0
H698 H 0.38742 0.06533 0.25918 0.0
H699 H 0.35251 0.16581 0.23749 0.0
H700 H 0.36324 0.1639 0.18209 0.0
H701 H 0.42468 0.10084 0.1998 0.0
C702 C 0.40135 0.10539 0.32349 0.0
C703 C 0.38457 0.11915 0.34529 0.0
C704 C 0.36576 0.13946 0.33477 0.0
C705 C 0.36361 0.14591 0.30335 0.0
C706 C 0.38049 0.13199 0.28255 0.0
C707 C 0.39905 0.1122 0.29222 0.0
C708 C 0.41512 0.10054 0.26527 0.0
C709 C 0.44598 0.10655 0.26873 0.0
C710 C 0.40978 0.06945 0.26159 0.0
C711 C 0.40269 0.11681 0.23891 0.0
C712 C 0.38267 0.13478 0.24932 0.0
C713 C 0.36817 0.15179 0.22915 0.0
C714 C 0.37431 0.15044 0.1976 0.0
C715 C 0.39485 0.13224 0.18631 0.0
C716 C 0.40914 0.11526 0.2075 0.0
H717 H 0.87641 0.88731 0.45083 0.0
H718 H 0.94082 0.94892 0.44558 0.0
H719 H 0.94706 0.94635 0.50156 0.0
H720 H 0.84733 0.91076 0.52362 0.0
H721 H 0.84043 0.8765 0.53764 0.0
H722 H 0.84029 0.88321 0.4969 0.0
H723 H 0.87662 0.84484 0.48863 0.0
H724 H 0.87655 0.83786 0.5293 0.0
H725 H 0.90833 0.84585 0.51001 0.0
H726 H 0.94802 0.93647 0.55731 0.0
H727 H 0.94321 0.91981 0.61063 0.0
H728 H 0.87756 0.8652 0.5823 0.0
C729 C 0.89184 0.9002 0.46149 0.0
C730 C 0.90798 0.91853 0.44359 0.0
C731 C 0.92785 0.93511 0.4586 0.0
C732 C 0.93167 0.9337 0.49048 0.0
C733 C 0.91539 0.91568 0.5074 0.0
C734 C 0.89581 0.89922 0.4936 0.0
C735 C 0.88133 0.8815 0.51753 0.0
C736 C 0.85051 0.88842 0.519 0.0
C737 C 0.886 0.85067 0.51099 0.0
C738 C 0.89604 0.89049 0.54677 0.0
C739 C 0.91565 0.91021 0.54016 0.0
C740 C 0.93265 0.92116 0.56282 0.0
C741 C 0.92984 0.91156 0.593 0.0
C742 C 0.91004 0.89134 0.60054 0.0
C743 C 0.89263 0.88092 0.57715 0.0
H744 H 0.31187 0.16062 0.11978 0.0
H745 H 0.28575 0.07766 0.09617 0.0
H746 H 0.24967 0.0802 0.13572 0.0
H747 H 0.30051 0.15493 0.20152 0.0
H748 H 0.28769 0.18961 0.20607 0.0
H749 H 0.3118 0.18178 0.17587 0.0
H750 H 0.27822 0.20131 0.13533 0.0
H751 H 0.25398 0.20953 0.16527 0.0
H752 H 0.24363 0.18818 0.13337 0.0
H753 H 0.21734 0.09061 0.17898 0.0
H754 H 0.18829 0.10987 0.22033 0.0
H755 H 0.23293 0.18699 0.21532 0.0
C756 C 0.29848 0.14303 0.12282 0.0
C757 C 0.3018 0.11889 0.10463 0.0
C758 C 0.28373 0.09642 0.10952 0.0
C759 C 0.26316 0.0976 0.1321 0.0
C760 C 0.26058 0.12149 0.14971 0.0
C761 C 0.27753 0.14395 0.14519 0.0
C762 C 0.26991 0.16728 0.16708 0.0
C763 C 0.2939 0.17377 0.18893 0.0
C764 C 0.26089 0.1931 0.14919 0.0
C765 C 0.24589 0.15447 0.18434 0.0
C766 C 0.24121 0.12788 0.17417 0.0
C767 C 0.22072 0.11146 0.18701 0.0
C768 C 0.20439 0.12251 0.21063 0.0
C769 C 0.20822 0.14991 0.22108 0.0
C770 C 0.22933 0.16607 0.20763 0.0
H771 H 0.83999 0.73119 0.46531 0.0
H772 H 0.92136 0.69785 0.48205 0.0
H773 H 0.941 0.73129 0.44546 0.0
H774 H 0.84823 0.74536 0.38441 0.0
H775 H 0.82957 0.77752 0.38524 0.0
H776 H 0.82158 0.75081 0.41256 0.0
H777 H 0.82976 0.78507 0.45718 0.0
H778 H 0.8381 0.81193 0.43015 0.0
H779 H 0.86218 0.80276 0.45996 0.0
H780 H 0.95182 0.76665 0.40556 0.0
H781 H 0.95388 0.80422 0.3676 0.0
H782 H 0.86613 0.81773 0.37785 0.0
C783 C 0.86191 0.73098 0.46115 0.0
C784 C 0.87917 0.71183 0.47659 0.0
C785 C 0.9078 0.71242 0.47079 0.0
C786 C 0.91912 0.73127 0.44989 0.0
C787 C 0.90166 0.74982 0.4351 0.0
C788 C 0.8737 0.75014 0.44065 0.0
C789 C 0.85982 0.77295 0.42218 0.0
C790 C 0.83854 0.76093 0.39977 0.0
C791 C 0.84668 0.79446 0.44364 0.0
C792 C 0.88428 0.78501 0.40503 0.0
C793 C 0.90814 0.77115 0.41278 0.0
C794 C 0.9333 0.77777 0.39947 0.0
C795 C 0.93423 0.79915 0.37777 0.0
C796 C 0.91023 0.81407 0.3696 0.0
C797 C 0.8849 0.80687 0.38364 0.0
H798 H 0.29866 0.34371 0.71054 0.0
H799 H 0.34751 0.41816 0.70518 0.0
H800 H 0.31658 0.43641 0.66497 0.0
H801 H 0.28131 0.33838 0.62958 0.0
H802 H 0.24647 0.32731 0.63618 0.0
H803 H 0.27282 0.3195 0.66397 0.0
H804 H 0.24393 0.34324 0.70643 0.0
H805 H 0.21757 0.35116 0.67869 0.0
H806 H 0.23274 0.3784 0.70116 0.0
H807 H 0.28098 0.44665 0.62509 0.0
H808 H 0.24164 0.44936 0.58957 0.0
H809 H 0.21363 0.36927 0.62124 0.0
C810 C 0.3029 0.36371 0.70061 0.0
C811 C 0.32569 0.37948 0.71084 0.0
C812 C 0.33023 0.4058 0.69775 0.0
C813 C 0.31279 0.41629 0.67484 0.0
C814 C 0.29049 0.40042 0.66536 0.0
C815 C 0.28526 0.37479 0.67796 0.0
C816 C 0.25914 0.36258 0.66423 0.0
C817 C 0.26532 0.33533 0.64749 0.0
C818 C 0.23704 0.35861 0.68911 0.0
C819 C 0.25089 0.38516 0.64168 0.0
C820 C 0.26935 0.40672 0.64275 0.0
C821 C 0.26635 0.4299 0.62409 0.0
C822 C 0.24388 0.43122 0.60387 0.0
C823 C 0.22438 0.40958 0.60237 0.0
C824 C 0.22809 0.38621 0.62167 0.0
H825 H 0.65607 0.83562 0.93223 0.0
H826 H 0.68303 0.78926 1.01186 0.0
H827 H 0.68111 0.74611 0.98155 0.0
H828 H 0.60747 0.78328 0.90514 0.0
H829 H 0.61406 0.78961 0.86499 0.0
H830 H 0.61796 0.81708 0.89258 0.0
H831 H 0.668 0.82474 0.87444 0.0
H832 H 0.66422 0.79737 0.84674 0.0
H833 H 0.69174 0.79613 0.87445 0.0
H834 H 0.68085 0.70889 0.94147 0.0
H835 H 0.6775 0.679 0.89594 0.0
H836 H 0.64436 0.74682 0.84285 0.0
C837 C 0.66161 0.81633 0.94314 0.0
C838 C 0.66993 0.8158 0.97445 0.0
C839 C 0.67659 0.79013 0.98805 0.0
C840 C 0.67561 0.76554 0.97095 0.0
C841 C 0.66733 0.7667 0.94026 0.0
C842 C 0.66003 0.79134 0.92651 0.0
C843 C 0.65113 0.78647 0.89331 0.0
C844 C 0.62085 0.7946 0.88874 0.0
C845 C 0.66989 0.80211 0.87091 0.0
C846 C 0.65505 0.75537 0.89041 0.0
C847 C 0.66468 0.74456 0.91781 0.0
C848 C 0.67222 0.71692 0.92035 0.0
C849 C 0.66968 0.69984 0.89445 0.0
C850 C 0.65852 0.70983 0.86651 0.0
C851 C 0.65149 0.73819 0.86438 0.0
H852 H 0.21649 0.34123 0.07491 0.0
H853 H 0.17301 0.41933 0.07421 0.0
H854 H 0.20393 0.43705 0.11472 0.0
H855 H 0.23079 0.33798 0.15616 0.0
H856 H 0.265 0.32417 0.15177 0.0
H857 H 0.23924 0.31723 0.12305 0.0
H858 H 0.27125 0.33714 0.08111 0.0
H859 H 0.29703 0.34431 0.10974 0.0
H860 H 0.28455 0.37161 0.08535 0.0
H861 H 0.23843 0.44599 0.15631 0.0
H862 H 0.27643 0.44695 0.19376 0.0
H863 H 0.30002 0.36403 0.1664 0.0
C864 C 0.2135 0.36199 0.08347 0.0
C865 C 0.19221 0.37892 0.07154 0.0
C866 C 0.1892 0.40612 0.08293 0.0
C867 C 0.20661 0.4163 0.10601 0.0
C868 C 0.22737 0.39921 0.11729 0.0
C869 C 0.2312 0.37275 0.10617 0.0
C870 C 0.25584 0.35917 0.12164 0.0
C871 C 0.24719 0.3331 0.1392 0.0
C872 C 0.2785 0.35268 0.09804 0.0
C873 C 0.2648 0.38191 0.14357 0.0
C874 C 0.24798 0.40476 0.14068 0.0
C875 C 0.25181 0.42825 0.15867 0.0
C876 C 0.27347 0.42856 0.18001 0.0
C877 C 0.29134 0.40561 0.18322 0.0
C878 C 0.2868 0.38196 0.16462 0.0
H879 H 0.63099 0.80875 0.38875 0.0
H880 H 0.62256 0.76109 0.4726 0.0
H881 H 0.63199 0.71836 0.44369 0.0
H882 H 0.5969 0.75844 0.33959 0.0
H883 H 0.61887 0.7646 0.30697 0.0
H884 H 0.61237 0.79185 0.33421 0.0
H885 H 0.6646 0.79768 0.34258 0.0
H886 H 0.67129 0.77038 0.31545 0.0
H887 H 0.68503 0.76831 0.35387 0.0
H888 H 0.64457 0.68089 0.40666 0.0
H889 H 0.65415 0.65025 0.36241 0.0
H890 H 0.65072 0.72054 0.30106 0.0
C891 C 0.63113 0.78929 0.40095 0.0
C892 C 0.62612 0.78832 0.43306 0.0
C893 C 0.6262 0.76241 0.44809 0.0
C894 C 0.63169 0.73799 0.43186 0.0
C895 C 0.63663 0.73958 0.40037 0.0
C896 C 0.63596 0.76446 0.38487 0.0
C897 C 0.64085 0.76002 0.35063 0.0
C898 C 0.61575 0.76928 0.33174 0.0
C899 C 0.667 0.77499 0.34002 0.0
C900 C 0.64453 0.72883 0.34949 0.0
C901 C 0.64242 0.71759 0.37857 0.0
C902 C 0.64602 0.68941 0.38374 0.0
C903 C 0.6516 0.67216 0.35854 0.0
C904 C 0.65305 0.68295 0.32838 0.0
C905 C 0.64944 0.71172 0.32387 0.0
H906 H 0.24317 0.1831 0.6864 0.0
H907 H 0.20901 0.10174 0.6703 0.0
H908 H 0.24483 0.09295 0.63115 0.0
H909 H 0.25888 0.19784 0.60815 0.0
H910 H 0.29024 0.21604 0.61659 0.0
H911 H 0.26287 0.2154 0.64441 0.0
H912 H 0.29624 0.19547 0.68518 0.0
H913 H 0.32376 0.19614 0.65751 0.0
H914 H 0.31521 0.16438 0.67674 0.0
H915 H 0.28342 0.0939 0.59193 0.0
H916 H 0.32122 0.10374 0.55663 0.0
H917 H 0.33111 0.18462 0.59853 0.0
C918 C 0.24338 0.16324 0.67501 0.0
C919 C 0.22325 0.143 0.68181 0.0
C920 C 0.22423 0.1175 0.66586 0.0
C921 C 0.24451 0.11235 0.64347 0.0
C922 C 0.2638 0.13286 0.63715 0.0
C923 C 0.26345 0.15778 0.65255 0.0
C924 C 0.28603 0.17668 0.64083 0.0
C925 C 0.27377 0.20304 0.62665 0.0
C926 C 0.30652 0.18357 0.6666 0.0
C927 C 0.29919 0.15853 0.6164 0.0
C928 C 0.28602 0.13337 0.61466 0.0
C929 C 0.294 0.11347 0.59335 0.0
C930 C 0.31586 0.11935 0.57329 0.0
C931 C 0.3299 0.14507 0.57437 0.0
C932 C 0.32123 0.16476 0.59662 0.0
H933 H 0.8914 0.75148 0.94356 0.0
H934 H 0.84267 0.68926 0.89745 0.0
H935 H 0.83609 0.72025 0.85333 0.0
H936 H 0.8507 0.8083 0.92127 0.0
H937 H 0.87851 0.83213 0.91507 0.0
H938 H 0.88258 0.80414 0.9419 0.0
H939 H 0.92585 0.78738 0.91274 0.0
H940 H 0.92207 0.81551 0.88596 0.0
H941 H 0.92372 0.78051 0.87207 0.0
H942 H 0.83033 0.75895 0.81662 0.0
H943 H 0.82768 0.80286 0.78803 0.0
H944 H 0.88056 0.84169 0.85531 0.0
C945 C 0.88012 0.7442 0.9237 0.0
C946 C 0.8682 0.71751 0.92359 0.0
C947 C 0.8526 0.7092 0.89772 0.0
C948 C 0.84861 0.72678 0.87256 0.0
C949 C 0.86014 0.75303 0.87343 0.0
C950 C 0.87581 0.76178 0.89811 0.0
C951 C 0.8845 0.79174 0.89349 0.0
C952 C 0.87341 0.81016 0.91948 0.0
C953 C 0.91591 0.79391 0.89091 0.0
C954 C 0.87066 0.79852 0.8629 0.0
C955 C 0.85684 0.7757 0.85183 0.0
C956 C 0.84134 0.77684 0.82489 0.0
C957 C 0.83985 0.80188 0.80883 0.0
C958 C 0.85389 0.82561 0.81936 0.0
C959 C 0.86976 0.82381 0.84667 0.0
H960 H 0.72791 0.67689 0.71186 0.0
H961 H 0.67413 0.6066 0.70055 0.0
H962 H 0.70393 0.58879 0.65887 0.0
H963 H 0.74659 0.68659 0.63238 0.0
H964 H 0.78215 0.69418 0.6401 0.0
H965 H 0.75636 0.70209 0.66845 0.0
H966 H 0.78284 0.67345 0.70846 0.0
H967 H 0.80862 0.6642 0.68058 0.0
H968 H 0.79039 0.63765 0.70086 0.0
H969 H 0.73929 0.57889 0.61775 0.0
H970 H 0.7788 0.5762 0.58226 0.0
H971 H 0.81154 0.65159 0.62158 0.0
C972 C 0.72235 0.65793 0.70028 0.0
C973 C 0.69849 0.64323 0.70914 0.0
C974 C 0.69223 0.61815 0.69404 0.0
C975 C 0.70902 0.60793 0.67032 0.0
C976 C 0.73243 0.62276 0.66217 0.0
C977 C 0.73932 0.64708 0.67691 0.0
C978 C 0.76643 0.65815 0.6647 0.0
C979 C 0.76265 0.68696 0.65057 0.0
C980 C 0.78834 0.65839 0.69019 0.0
C981 C 0.77325 0.63674 0.64024 0.0
C982 C 0.75336 0.6165 0.63921 0.0
C983 C 0.75502 0.59461 0.61843 0.0
C984 C 0.77759 0.59327 0.59826 0.0
C985 C 0.79846 0.6136 0.59894 0.0
C986 C 0.79608 0.63562 0.62037 0.0
H987 H 0.39388 0.21592 0.98136 0.0
H988 H 0.33867 0.17128 0.92092 0.0
H989 H 0.34454 0.20728 0.8813 0.0
H990 H 0.37099 0.28357 0.96097 0.0
H991 H 0.40467 0.29878 0.96319 0.0
H992 H 0.39651 0.2692 0.98643 0.0
H993 H 0.4381 0.24287 0.96354 0.0
H994 H 0.44641 0.27236 0.94019 0.0
H995 H 0.44107 0.2392 0.92243 0.0
H996 H 0.35554 0.24971 0.84836 0.0
H997 H 0.37077 0.29402 0.82573 0.0
H998 H 0.4198 0.30982 0.90718 0.0
C999 C 0.38332 0.21335 0.95966 0.0
C1000 C 0.36583 0.19043 0.95444 0.0
C1001 C 0.352 0.18857 0.92578 0.0
C1002 C 0.35531 0.20893 0.90299 0.0
C1003 C 0.37259 0.23123 0.90898 0.0
C1004 C 0.38638 0.23351 0.93665 0.0
C1005 C 0.40329 0.25978 0.93769 0.0
C1006 C 0.39326 0.27896 0.9636 0.0
C1007 C 0.43404 0.25315 0.94116 0.0
C1008 C 0.39701 0.27187 0.90624 0.0
C1009 C 0.37917 0.25521 0.89001 0.0
C1010 C 0.36971 0.26274 0.86082 0.0
C1011 C 0.37853 0.28797 0.84806 0.0
C1012 C 0.39683 0.30542 0.8643 0.0
C1013 C 0.40623 0.2969 0.89372 0.0
H1014 H 0.82907 0.90969 0.21847 0.0
H1015 H 0.82058 0.82074 0.22188 0.0
H1016 H 0.78326 0.82319 0.18349 0.0
H1017 H 0.75638 0.92556 0.20936 0.0
H1018 H 0.76236 0.95374 0.18323 0.0
H1019 H 0.78781 0.94504 0.21173 0.0
H1020 H 0.82446 0.93966 0.16896 0.0
H1021 H 0.79913 0.94834 0.14035 0.0
H1022 H 0.81809 0.91647 0.13735 0.0
H1023 H 0.74645 0.83544 0.14396 0.0
H1024 H 0.71542 0.85638 0.10524 0.0
H1025 H 0.74804 0.93714 0.12695 0.0
C1026 C 0.81923 0.89075 0.21133 0.0
C1027 C 0.82796 0.86498 0.22331 0.0
C1028 C 0.81465 0.84069 0.2129 0.0
C1029 C 0.79323 0.84189 0.19119 0.0
C1030 C 0.78523 0.86756 0.17976 0.0
C1031 C 0.79794 0.89156 0.18938 0.0
C1032 C 0.78604 0.91643 0.17277 0.0
C1033 C 0.77233 0.93637 0.19564 0.0
C1034 C 0.80825 0.93109 0.15373 0.0
C1035 C 0.76483 0.90271 0.15219 0.0
C1036 C 0.76446 0.87453 0.15679 0.0
C1037 C 0.74655 0.85752 0.14034 0.0
C1038 C 0.72876 0.86959 0.11856 0.0
C1039 C 0.72894 0.89839 0.11323 0.0
C1040 C 0.74734 0.91504 0.13039 0.0
H1041 H 0.13919 0.21231 0.38832 0.0
H1042 H 0.10637 0.26186 0.3139 0.0
H1043 H 0.11422 0.30398 0.34482 0.0
H1044 H 0.10811 0.25244 0.44987 0.0
H1045 H 0.13691 0.2478 0.47544 0.0
H1046 H 0.12904 0.22178 0.44722 0.0
H1047 H 0.17842 0.22522 0.42587 0.0
H1048 H 0.18648 0.25142 0.45379 0.0
H1049 H 0.19138 0.25819 0.41343 0.0
H1050 H 0.12857 0.34101 0.38279 0.0
H1051 H 0.14354 0.36972 0.42688 0.0
H1052 H 0.16304 0.29599 0.47858 0.0
C1053 C 0.13345 0.23187 0.37848 0.0
C1054 C 0.12216 0.23357 0.34847 0.0
C1055 C 0.11493 0.25987 0.33677 0.0
C1056 C 0.11942 0.28395 0.35417 0.0
C1057 C 0.13071 0.28147 0.38356 0.0
C1058 C 0.13719 0.25602 0.39585 0.0
C1059 C 0.14833 0.25889 0.42836 0.0
C1060 C 0.12946 0.24437 0.45159 0.0
C1061 C 0.17791 0.24778 0.43047 0.0
C1062 C 0.14746 0.29004 0.43236 0.0
C1063 C 0.13754 0.30266 0.40605 0.0
C1064 C 0.13603 0.33132 0.40359 0.0
C1065 C 0.14466 0.34747 0.42863 0.0
C1066 C 0.15423 0.33505 0.45605 0.0
C1067 C 0.15551 0.30593 0.45795 0.0
H1068 H 0.73191 0.83727 0.56207 0.0
H1069 H 0.67585 0.9063 0.57329 0.0
H1070 H 0.70615 0.92569 0.61332 0.0
H1071 H 0.74977 0.82962 0.64201 0.0
H1072 H 0.78531 0.82141 0.63461 0.0
H1073 H 0.75945 0.81304 0.6065 0.0
H1074 H 0.78612 0.84077 0.56538 0.0
H1075 H 0.81202 0.84936 0.59338 0.0
H1076 H 0.79454 0.87637 0.57267 0.0
H1077 H 0.74243 0.93759 0.65274 0.0
H1078 H 0.78172 0.94104 0.68839 0.0
H1079 H 0.81455 0.86423 0.65228 0.0
C1080 C 0.72582 0.85635 0.57306 0.0
C1081 C 0.70126 0.8702 0.56431 0.0
C1082 C 0.69454 0.89538 0.57916 0.0
C1083 C 0.71163 0.90653 0.60209 0.0
C1084 C 0.7356 0.8924 0.61007 0.0
C1085 C 0.74277 0.86788 0.59597 0.0
C1086 C 0.76981 0.85695 0.60877 0.0
C1087 C 0.76584 0.82857 0.62387 0.0
C1088 C 0.79192 0.8558 0.58355 0.0
C1089 C 0.77648 0.87894 0.63258 0.0
C1090 C 0.75653 0.89926 0.63281 0.0
C1091 C 0.75816 0.92176 0.65273 0.0
C1092 C 0.78064 0.92354 0.67297 0.0
C1093 C 0.80137 0.90294 0.6734 0.0
C1094 C 0.79912 0.88035 0.65273 0.0
H1095 H 0.09417 0.30678 0.88125 0.0
H1096 H 0.14358 0.29312 0.9629 0.0
H1097 H 0.16195 0.25012 0.93972 0.0
H1098 H 0.07791 0.23533 0.86445 0.0
H1099 H 0.08091 0.23994 0.82348 0.0
H1100 H 0.07053 0.26843 0.84744 0.0
H1101 H 0.11043 0.2978 0.82565 0.0
H1102 H 0.12098 0.26937 0.80172 0.0
H1103 H 0.14512 0.28487 0.82796 0.0
H1104 H 0.17593 0.20871 0.90615 0.0
H1105 H 0.18423 0.17359 0.86604 0.0
H1106 H 0.12699 0.21608 0.80576 0.0
C1107 C 0.10844 0.29454 0.89465 0.0
C1108 C 0.11703 0.30326 0.92427 0.0
C1109 C 0.13637 0.28683 0.94041 0.0
C1110 C 0.14698 0.26237 0.92734 0.0
C1111 C 0.1383 0.25464 0.89794 0.0
C1112 C 0.11947 0.27034 0.88181 0.0
C1113 C 0.11439 0.25841 0.85003 0.0
C1114 C 0.08414 0.25003 0.84614 0.0
C1115 C 0.12326 0.27882 0.82486 0.0
C1116 C 0.13309 0.23332 0.85078 0.0
C1117 C 0.14672 0.23144 0.87857 0.0
C1118 C 0.1653 0.21007 0.88434 0.0
C1119 C 0.17 0.1902 0.86125 0.0
C1120 C 0.15629 0.19167 0.83246 0.0
C1121 C 0.13758 0.21374 0.82746 0.0
H1122 H 0.79185 0.68098 0.07793 0.0
H1123 H 0.83346 0.60218 0.06996 0.0
H1124 H 0.80156 0.58206 0.10793 0.0
H1125 H 0.77657 0.67784 0.1591 0.0
H1126 H 0.7428 0.6929 0.15563 0.0
H1127 H 0.76915 0.70149 0.12821 0.0
H1128 H 0.73738 0.68597 0.08365 0.0
H1129 H 0.71094 0.67743 0.111 0.0
H1130 H 0.72295 0.65176 0.08419 0.0
H1131 H 0.7659 0.57052 0.14757 0.0
H1132 H 0.72713 0.56743 0.18385 0.0
H1133 H 0.70643 0.653 0.16528 0.0
C1134 C 0.79425 0.65956 0.08438 0.0
C1135 C 0.81527 0.64314 0.07103 0.0
C1136 C 0.81748 0.61506 0.0797 0.0
C1137 C 0.7995 0.6035 0.10137 0.0
C1138 C 0.77899 0.62011 0.11403 0.0
C1139 C 0.776 0.64746 0.10566 0.0
C1140 C 0.75148 0.66035 0.12207 0.0
C1141 C 0.76055 0.68458 0.14247 0.0
C1142 C 0.72939 0.66941 0.09884 0.0
C1143 C 0.74157 0.63613 0.14135 0.0
C1144 C 0.75782 0.61317 0.13635 0.0
C1145 C 0.75298 0.58836 0.15158 0.0
C1146 C 0.73087 0.58683 0.17229 0.0
C1147 C 0.71357 0.60991 0.17764 0.0
C1148 C 0.71918 0.63492 0.16185 0.0
H1149 H 0.39506 0.31389 0.31919 0.0
H1150 H 0.30659 0.31417 0.33114 0.0
H1151 H 0.31066 0.27665 0.36916 0.0
H1152 H 0.4046 0.23974 0.32636 0.0
H1153 H 0.43642 0.24261 0.34731 0.0
H1154 H 0.42657 0.26914 0.32048 0.0
H1155 H 0.43104 0.30585 0.36347 0.0
H1156 H 0.44077 0.2794 0.39046 0.0
H1157 H 0.41196 0.30165 0.39867 0.0
H1158 H 0.32404 0.23825 0.40515 0.0
H1159 H 0.34593 0.20302 0.43805 0.0
H1160 H 0.42614 0.22829 0.40504 0.0
C1161 C 0.37655 0.30592 0.32966 0.0
C1162 C 0.35045 0.31714 0.3221 0.0
C1163 C 0.3268 0.30626 0.3367 0.0
C1164 C 0.3289 0.28479 0.35825 0.0
C1165 C 0.35486 0.27435 0.36533 0.0
C1166 C 0.37831 0.2846 0.35159 0.0
C1167 C 0.40375 0.26998 0.36387 0.0
C1168 C 0.41871 0.25445 0.33796 0.0
C1169 C 0.42301 0.29045 0.38008 0.0
C1170 C 0.39093 0.25003 0.38669 0.0
C1171 C 0.36266 0.25276 0.38689 0.0
C1172 C 0.34617 0.23609 0.40533 0.0
C1173 C 0.35883 0.2161 0.42398 0.0
C1174 C 0.3878 0.213 0.42451 0.0
C1175 C 0.40399 0.23039 0.40561 0.0
H1176 H 0.04158 0.07526 0.32839 0.0
H1177 H 0.0526 0.08252 0.22972 0.0
H1178 H 0.03089 0.03714 0.22245 0.0
H1179 H 0.05512 1.00441 0.33486 0.0
H1180 H 0.02886 0.99705 0.36287 0.0
H1181 H 0.04376 0.03098 0.36098 0.0
H1182 H 0.9956 0.05283 0.35377 0.0
H1183 H 0.98048 0.01904 0.35649 0.0
H1184 H 0.97353 0.04042 0.3235 0.0
H1185 H 0.01326 0.98917 0.22595 0.0
H1186 H 0.99096 0.94513 0.23869 0.0
H1187 H 0.98722 0.96953 0.33469 0.0
C1188 C 0.0386 0.06772 0.3052 0.0
C1189 C 0.04903 0.08245 0.2796 0.0
C1190 C 0.04508 0.07154 0.24968 0.0
C1191 C 0.03287 0.04571 0.24531 0.0
C1192 C 0.02419 0.0311 0.27105 0.0
C1193 C 0.02605 0.04196 0.30034 0.0
C1194 C 0.01466 0.02184 0.3239 0.0
C1195 C 0.03694 0.01306 0.34701 0.0
C1196 C 0.98957 0.03427 0.34038 0.0
C1197 C 1.00648 0.99793 0.30322 0.0
C1198 C 0.0126 1.00366 0.2729 0.0
C1199 C 1.00782 0.98465 0.24953 0.0
C1200 C 0.99518 0.95963 0.25704 0.0
C1201 C 0.98691 0.95387 0.28762 0.0
C1202 C 0.99342 0.97308 0.31113 0.0
H1203 H 0.06531 0.48617 0.57719 0.0
H1204 H 0.08886 0.49102 0.48119 0.0
H1205 H 0.04644 0.5171 0.46979 0.0
H1206 H 0.99456 0.47578 0.56501 0.0
H1207 H 0.98296 0.49679 0.59667 0.0
H1208 H 0.01614 0.48032 0.59832 0.0
H1209 H 0.03959 0.52747 0.60767 0.0
H1210 H 1.00641 0.544 0.60679 0.0
H1211 H 0.03327 0.5555 0.58138 0.0
H1212 H 1.00032 0.5395 0.46784 0.0
H1213 H 0.95568 0.56247 0.47659 0.0
H1214 H 0.96153 0.54399 0.57394 0.0
C1215 C 0.06191 0.49348 0.55397 0.0
C1216 C 0.08049 0.48672 0.53006 0.0
C1217 C 0.07495 0.49603 0.49982 0.0
C1218 C 0.05085 0.51073 0.49311 0.0
C1219 C 0.03245 0.51607 0.51689 0.0
C1220 C 0.03784 0.50822 0.54683 0.0
C1221 C 0.01428 0.51632 0.56793 0.0
C1222 C 1.00122 0.49077 0.58286 0.0
C1223 C 0.02397 0.53706 0.59238 0.0
C1224 C 0.99476 0.52971 0.54509 0.0
C1225 C 1.00567 0.52917 0.51577 0.0
C1226 C 0.99165 0.54024 0.49072 0.0
C1227 C 0.96625 0.55312 0.49588 0.0
C1228 C 0.95506 0.55494 0.52588 0.0
C1229 C 0.96931 0.54251 0.55068 0.0
H1230 H 0.48903 0.4586 0.82945 0.0
H1231 H 0.47571 0.44921 0.7314 0.0
H1232 H 0.49649 0.49474 0.72235 0.0
H1233 H 0.47448 0.52883 0.83507 0.0
H1234 H 0.50142 0.53773 0.86172 0.0
H1235 H 0.48768 0.50326 0.8613 0.0
H1236 H 0.53623 0.48286 0.85241 0.0
H1237 H 0.55024 0.51721 0.85381 0.0
H1238 H 0.55681 0.49546 0.82099 0.0
H1239 H 0.51131 0.54346 0.72426 0.0
H1240 H 0.53251 0.58848 0.73484 0.0
H1241 H 0.54163 0.5661 0.83095 0.0
C1242 C 0.49156 0.46568 0.80602 0.0
C1243 C 0.48069 0.45034 0.78107 0.0
C1244 C 0.48388 0.46059 0.75079 0.0
C1245 C 0.4954 0.48656 0.74545 0.0
C1246 C 0.50428 0.50193 0.77057 0.0
C1247 C 0.5036 0.49158 0.80015 0.0
C1248 C 0.51511 0.51261 0.82276 0.0
C1249 C 0.49337 0.5211 0.84662 0.0
C1250 C 0.54115 0.50137 0.83842 0.0
C1251 C 0.52176 0.53644 0.80124 0.0
C1252 C 0.51475 0.52984 0.77137 0.0
C1253 C 0.5176 0.54862 0.74742 0.0
C1254 C 0.52955 0.57424 0.75372 0.0
C1255 C 0.53925 0.58079 0.78359 0.0
C1256 C 0.53436 0.56189 0.8079 0.0
H1257 H 0.45401 0.02808 1.00994 0.0
H1258 H 0.44904 0.046 0.10763 0.0
H1259 H 0.49347 0.02284 0.11569 0.0
H1260 H 0.48759 0.96047 1.01744 0.0
H1261 H 0.50893 0.96561 0.98408 0.0
H1262 H 0.47564 0.98184 0.98626 0.0
H1263 H 0.49829 0.02943 0.97706 0.0
H1264 H 0.53168 0.0134 0.9753 0.0
H1265 H 0.52531 0.04085 1.00237 0.0
H1266 H 0.53992 1.00093 0.11297 0.0
H1267 H 0.58334 0.97735 0.10044 0.0
H1268 H 0.55929 0.97364 1.0044 0.0
C1269 C 0.46206 0.02679 0.0331 0.0
C1270 C 0.44766 0.03866 0.05818 0.0
C1271 C 0.45911 0.03653 0.08809 0.0
C1272 C 0.4846 0.02368 0.0929 0.0
C1273 C 0.49851 0.01292 0.06761 0.0
C1274 C 0.48754 0.01395 0.03835 0.0
C1275 C 0.50708 1.00115 1.01512 0.0
C1276 C 0.49403 0.97575 0.99983 0.0
C1277 C 0.51612 0.02248 0.99104 0.0
C1278 C 0.53082 0.99299 0.03588 0.0
C1279 C 0.52545 1.00016 0.06604 0.0
C1280 C 0.54434 0.99519 0.08944 0.0
C1281 C 0.56915 0.98207 0.08198 0.0
C1282 C 0.57501 0.97394 0.05133 0.0
C1283 C 0.5555 0.97965 0.028 0.0
H1284 H 0.0293 0.46147 0.96294 0.0
H1285 H 0.03809 0.44737 0.0609 0.0
H1286 H 0.01756 0.49294 0.07144 0.0
H1287 H 0.04579 0.53184 0.96296 0.0
H1288 H 0.02061 0.54247 0.93494 0.0
H1289 H 0.03394 0.50777 0.93429 0.0
H1290 H 0.98472 0.48799 0.93821 0.0
H1291 H 0.97119 0.52262 0.93797 0.0
H1292 H 0.96245 0.49943 0.9688 0.0
H1293 H 1.00138 0.54154 0.07166 0.0
H1294 H 0.98066 0.58718 0.0622 0.0
H1295 H 0.97925 0.57019 0.96425 0.0
C1296 C 0.02594 0.4676 0.98658 0.0
C1297 C 0.03524 0.45078 1.01116 0.0
C1298 C 0.03108 0.45985 0.04178 0.0
C1299 C 0.01965 0.48581 0.04798 0.0
C1300 C 0.01209 0.50248 0.02333 0.0
C1301 C 0.01424 0.49354 0.99326 0.0
C1302 C 1.00434 0.51584 0.9712 0.0
C1303 C 0.02756 0.52501 0.94957 0.0
C1304 C 0.97917 0.50588 0.95297 0.0
C1305 C 0.99668 0.53871 0.99363 0.0
C1306 C 1.00173 0.53055 0.02353 0.0
C1307 C 0.99692 0.54802 0.04838 0.0
C1308 C 0.98532 0.57401 0.04276 0.0
C1309 C 0.97822 0.58233 1.01254 0.0
C1310 C 0.98477 0.56465 0.98757 0.0
H1311 H 0.44743 0.47968 0.20752 0.0
H1312 H 0.43834 0.473 0.30659 0.0
H1313 H 0.48381 0.49415 0.31358 0.0
H1314 H 0.51858 0.46594 0.20284 0.0
H1315 H 0.52598 0.49141 0.17387 0.0
H1316 H 0.49234 0.47608 0.17582 0.0
H1317 H 0.46987 0.52437 0.18059 0.0
H1318 H 0.50338 0.53987 0.17779 0.0
H1319 H 0.48153 0.5477 0.21011 0.0
H1320 H 0.53153 0.5117 0.31018 0.0
H1321 H 0.57479 0.53526 0.29746 0.0
H1322 H 0.55211 0.53538 0.20093 0.0
C1323 C 0.45462 0.48331 0.23072 0.0
C1324 C 0.43934 0.47415 0.25652 0.0
C1325 C 0.44981 0.47919 0.28643 0.0
C1326 C 0.47568 0.49117 0.29066 0.0
C1327 C 0.49073 0.49862 0.2648 0.0
C1328 C 0.48033 0.49577 0.23544 0.0
C1329 C 0.50055 0.50667 0.21176 0.0
C1330 C 0.50991 0.48364 0.18978 0.0
C1331 C 0.48809 0.53111 0.19402 0.0
C1332 C 0.52396 0.51586 0.2325 0.0
C1333 C 0.51793 0.51046 0.26294 0.0
C1334 C 0.5363 0.51649 0.28649 0.0
C1335 C 0.56088 0.52978 0.279 0.0
C1336 C 0.56676 0.53749 0.24827 0.0
C1337 C 0.54838 0.52958 0.22459 0.0
H1338 H 0.53655 0.94827 0.52375 0.0
H1339 H 0.54051 0.92718 0.42671 0.0
H1340 H 0.5188 0.97148 0.41379 0.0
H1341 H 0.47205 0.98599 0.5216 0.0
H1342 H 0.48351 0.01171 0.54863 0.0
H1343 H 0.49727 0.97722 0.55036 0.0
H1344 H 0.54655 0.99697 0.54593 0.0
H1345 H 0.53291 0.03149 0.54371 0.0
H1346 H 0.55516 0.01873 0.51377 0.0
H1347 H 0.49779 0.01908 0.41106 0.0
H1348 H 0.47637 0.06451 0.41915 0.0
H1349 H 0.4905 0.0568 0.51745 0.0
C1350 C 0.53271 0.95275 0.49976 0.0
C1351 C 0.54007 0.9337 0.4764 0.0
C1352 C 0.53443 0.94072 0.44531 0.0
C1353 C 0.52243 0.96616 0.4376 0.0
C1354 C 0.51631 0.98467 0.46113 0.0
C1355 C 0.5211 0.97824 0.49159 0.0
C1356 C 0.5133 1.00212 0.5124 0.0
C1357 C 0.49016 0.99376 0.53455 0.0
C1358 C 0.53849 0.01296 0.52999 0.0
C1359 C 0.50331 0.02294 0.48889 0.0
C1360 C 0.5052 0.01247 0.45945 0.0
C1361 C 0.49641 0.02757 0.43402 0.0
C1362 C 0.48457 0.05367 0.43888 0.0
C1363 C 0.48175 0.0647 0.46897 0.0
C1364 C 0.49202 0.04916 0.49413 0.0
H1365 H 0.06741 0.03145 0.77346 0.0
H1366 H 0.0883 0.03777 0.67663 0.0
H1367 H 0.04615 0.01252 0.66326 0.0
H1368 H 0.03515 0.96368 0.77047 0.0
H1369 H 1.00869 0.97307 0.79753 0.0
H1370 H 0.04192 0.98927 0.79957 0.0
H1371 H 0.01858 0.03726 0.79568 0.0
H1372 H 0.98533 0.0212 0.79319 0.0
H1373 H 0.99635 0.04466 0.76356 0.0
H1374 H 1.0001 0.98877 0.66007 0.0
H1375 H 0.95569 0.96551 0.66766 0.0
H1376 H 0.96298 0.97786 0.76625 0.0
C1377 C 0.06336 0.02734 0.74942 0.0
C1378 C 0.0816 0.03653 0.7262 0.0
C1379 C 0.07529 0.03045 0.69505 0.0
C1380 C 0.0511 0.01639 0.68713 0.0
C1381 C 0.03321 1.00856 0.71053 0.0
C1382 C 0.03915 0.01362 0.74106 0.0
C1383 C 0.01601 1.00393 0.76173 0.0
C1384 C 0.02605 0.98113 0.78361 0.0
C1385 C 1.00333 0.02821 0.77959 0.0
C1386 C 0.9961 0.99269 0.73804 0.0
C1387 C 1.00641 0.99556 0.70865 0.0
C1388 C 0.99181 0.9865 0.68301 0.0
C1389 C 0.96633 0.97359 0.68757 0.0
C1390 C 0.95548 0.96992 0.71758 0.0
C1391 C 0.97059 0.98009 0.74301 0.0
H1392 H 0.29698 0.07358 0.45435 0.0
H1393 H 0.30136 0.15653 0.49031 0.0
H1394 H 0.25285 0.16399 0.47766 0.0
H1395 H 0.27388 0.08539 0.39314 0.0
H1396 H 0.24865 0.05892 0.38612 0.0
H1397 H 0.27537 0.05288 0.41334 0.0
H1398 H 0.23993 0.04279 0.45603 0.0
H1399 H 0.21269 0.048 0.42847 0.0
H1400 H 0.21287 0.06722 0.46394 0.0
H1401 H 0.21778 0.17089 0.44099 0.0
H1402 H 0.19505 0.17389 0.39094 0.0
H1403 H 0.2109 0.08696 0.37521 0.0
C1404 C 0.2869 0.09255 0.46114 0.0
C1405 C 0.3024 0.11467 0.47248 0.0
C1406 C 0.2895 0.13957 0.48099 0.0
C1407 C 0.26186 0.14379 0.47425 0.0
C1408 C 0.24771 0.12296 0.45887 0.0
C1409 C 0.25941 0.09719 0.45347 0.0
C1410 C 0.24308 0.08115 0.42985 0.0
C1411 C 0.26136 0.06897 0.40411 0.0
C1412 C 0.22613 0.05846 0.44552 0.0
C1413 C 0.22458 0.10389 0.41825 0.0
C1414 C 0.22622 0.12719 0.43659 0.0
C1415 C 0.21539 0.15246 0.42722 0.0
C1416 C 0.20305 0.15412 0.39838 0.0
C1417 C 0.20158 0.13061 0.3792 0.0
C1418 C 0.21174 0.10512 0.38966 0.0
H1419 H 0.91724 0.69452 0.65973 0.0
H1420 H 0.83318 0.70052 0.62819 0.0
H1421 H 0.81939 0.71967 0.67788 0.0
H1422 H 0.8935 0.69428 0.75281 0.0
H1423 H 0.92525 0.71198 0.76012 0.0
H1424 H 0.92421 0.6841 0.73262 0.0
H1425 H 0.94594 0.71736 0.69278 0.0
H1426 H 0.94557 0.74475 0.72004 0.0
H1427 H 0.92848 0.74922 0.68348 0.0
H1428 H 0.81803 0.75418 0.71521 0.0
H1429 H 0.83087 0.80205 0.72471 0.0
H1430 H 0.91551 0.77755 0.73733 0.0
C1431 C 0.89586 0.69935 0.66391 0.0
C1432 C 0.87641 0.69701 0.64018 0.0
C1433 C 0.8485 0.70275 0.64608 0.0
C1434 C 0.84041 0.71302 0.67458 0.0
C1435 C 0.86038 0.71724 0.69714 0.0
C1436 C 0.88763 0.70976 0.69241 0.0
C1437 C 0.90614 0.72282 0.71617 0.0
C1438 C 0.91264 0.70206 0.74193 0.0
C1439 C 0.93302 0.73429 0.7022 0.0
C1440 C 0.88675 0.74494 0.72787 0.0
C1441 C 0.85967 0.73893 0.71995 0.0
C1442 C 0.83897 0.75885 0.72174 0.0
C1443 C 0.84649 0.78617 0.7266 0.0
C1444 C 0.87437 0.79308 0.73031 0.0
C1445 C 0.89413 0.77221 0.73415 0.0
H1446 H 0.20262 0.36469 0.9152 0.0
H1447 H 0.19268 0.45265 0.93084 0.0
H1448 H 0.22681 0.4622 0.89062 0.0
H1449 H 0.27118 0.36438 0.91037 0.0
H1450 H 0.27425 0.33876 0.88048 0.0
H1451 H 0.24459 0.33899 0.90492 0.0
H1452 H 0.21295 0.34237 0.85696 0.0
H1453 H 0.24275 0.34231 0.83229 0.0
H1454 H 0.21794 0.36989 0.82973 0.0
H1455 H 0.26582 0.46239 0.85592 0.0
H1456 H 0.31114 0.45324 0.83329 0.0
H1457 H 0.29692 0.36513 0.84075 0.0
C1458 C 0.20734 0.38596 0.90977 0.0
C1459 C 0.19522 0.40793 0.92603 0.0
C1460 C 0.20193 0.4355 0.91865 0.0
C1461 C 0.2209 0.44115 0.89551 0.0
C1462 C 0.23266 0.419 0.87997 0.0
C1463 C 0.22626 0.39193 0.88685 0.0
C1464 C 0.2448 0.37191 0.87023 0.0
C1465 C 0.25958 0.3524 0.89286 0.0
C1466 C 0.22865 0.35567 0.84585 0.0
C1467 C 0.26433 0.39203 0.85542 0.0
C1468 C 0.25612 0.41906 0.86007 0.0
C1469 C 0.27225 0.44137 0.85148 0.0
C1470 C 0.29801 0.43595 0.83886 0.0
C1471 C 0.3074 0.40847 0.83572 0.0
C1472 C 0.29002 0.38629 0.84297 0.0
H1473 H 0.5975 0.81781 0.12711 0.0
H1474 H 0.68549 0.82852 0.13561 0.0
H1475 H 0.68499 0.80347 0.18438 0.0
H1476 H 0.58492 0.81096 0.21862 0.0
H1477 H 0.55844 0.78603 0.21065 0.0
H1478 H 0.56282 0.81544 0.18574 0.0
H1479 H 0.56734 0.78281 0.13894 0.0
H1480 H 0.56289 0.75372 0.1634 0.0
H1481 H 0.59309 0.75594 0.13946 0.0
H1482 H 0.67945 0.76494 0.2169 0.0
H1483 H 0.67012 0.71602 0.2263 0.0
H1484 H 0.58515 0.72804 0.20041 0.0
C1485 C 0.61648 0.81542 0.13981 0.0
C1486 C 0.64157 0.82447 0.12745 0.0
C1487 C 0.66604 0.82138 0.14452 0.0
C1488 C 0.66583 0.80766 0.17265 0.0
C1489 C 0.64095 0.79732 0.18349 0.0
C1490 C 0.61648 0.80155 0.16784 0.0
C1491 C 0.59393 0.78319 0.17996 0.0
C1492 C 0.57386 0.7999 0.19995 0.0
C1493 C 0.57852 0.768 0.15389 0.0
C1494 C 0.61099 0.764 0.19964 0.0
C1495 C 0.63752 0.77395 0.20354 0.0
C1496 C 0.65865 0.75734 0.21485 0.0
C1497 C 0.65333 0.72946 0.2196 0.0
C1498 C 0.62707 0.71868 0.21321 0.0
C1499 C 0.60527 0.73634 0.20548 0.0
H1500 H 0.72794 0.64397 0.82837 0.0
H1501 H 0.7076 0.55719 0.83467 0.0
H1502 H 0.75223 0.54801 0.8595 0.0
H1503 H 0.80751 0.63448 0.82365 0.0
H1504 H 0.81145 0.66513 0.84677 0.0
H1505 H 0.78357 0.66267 0.81964 0.0
H1506 H 0.74957 0.67365 0.86397 0.0
H1507 H 0.77715 0.67493 0.89116 0.0
H1508 H 0.74892 0.65156 0.8973 0.0
H1509 H 0.79032 0.55055 0.89615 0.0
H1510 H 0.82187 0.56389 0.93794 0.0
H1511 H 0.81644 0.64929 0.90877 0.0
C1512 C 0.73346 0.62289 0.8339 0.0
C1513 C 0.71458 0.60131 0.83016 0.0
C1514 C 0.72207 0.57394 0.83747 0.0
C1515 C 0.74739 0.56854 0.85138 0.0
C1516 C 0.76485 0.59071 0.85705 0.0
C1517 C 0.7585 0.61732 0.84782 0.0
C1518 C 0.77789 0.63824 0.86142 0.0
C1519 C 0.79621 0.65086 0.83638 0.0
C1520 C 0.76244 0.66087 0.87954 0.0
C1521 C 0.79417 0.61964 0.88232 0.0
C1522 C 0.7871 0.59221 0.87872 0.0
C1523 C 0.79678 0.57178 0.89847 0.0
C1524 C 0.81428 0.57961 0.9224 0.0
C1525 C 0.82138 0.60763 0.92647 0.0
C1526 C 0.81147 0.62771 0.90597 0.0
H1527 H 0.3619 0.22588 0.07567 0.0
H1528 H 0.45022 0.21467 0.07192 0.0
H1529 H 0.4567 0.25933 0.09738 0.0
H1530 H 0.36469 0.30826 0.07455 0.0
H1531 H 0.33577 0.30896 0.10037 0.0
H1532 H 0.33787 0.28291 0.07083 0.0
H1533 H 0.33222 0.24523 0.11244 0.0
H1534 H 0.33093 0.27074 0.14213 0.0
H1535 H 0.35636 0.24366 0.14389 0.0
H1536 H 0.45364 0.29288 0.13819 0.0
H1537 H 0.44134 0.31912 0.18451 0.0
H1538 H 0.35485 0.31008 0.16229 0.0
C1539 C 0.38255 0.2336 0.07893 0.0
C1540 C 0.40552 0.2169 0.07256 0.0
C1541 C 0.43234 0.22724 0.07691 0.0
C1542 C 0.43622 0.2527 0.09116 0.0
C1543 C 0.41307 0.26762 0.10006 0.0
C1544 C 0.38665 0.25903 0.09306 0.0
C1545 C 0.36533 0.27598 0.10994 0.0
C1546 C 0.35002 0.29517 0.08759 0.0
C1547 C 0.34508 0.2578 0.12818 0.0
C1548 C 0.38391 0.29226 0.13087 0.0
C1549 C 0.41133 0.28802 0.12396 0.0
C1550 C 0.43229 0.29737 0.14306 0.0
C1551 C 0.42508 0.31172 0.16967 0.0
C1552 C 0.39713 0.3164 0.17694 0.0
C1553 C 0.37638 0.30684 0.1571 0.0
H1554 H 0.79952 0.87886 0.33213 0.0
H1555 H 0.82056 0.96456 0.34726 0.0
H1556 H 0.77521 0.97266 0.37091 0.0
H1557 H 0.72046 0.8919 0.32258 0.0
H1558 H 0.71364 0.85975 0.34185 0.0
H1559 H 0.74327 0.86295 0.31722 0.0
H1560 H 0.77438 0.84683 0.36216 0.0
H1561 H 0.74525 0.8442 0.38709 0.0
H1562 H 0.77383 0.8657 0.39792 0.0
H1563 H 0.73578 0.96801 0.40537 0.0
H1564 H 0.70149 0.95228 0.44316 0.0
H1565 H 0.70566 0.86972 0.40464 0.0
C1566 C 0.79397 0.89951 0.33937 0.0
C1567 C 0.81314 0.92103 0.33843 0.0
C1568 C 0.80577 0.9479 0.34791 0.0
C1569 C 0.78008 0.9527 0.36115 0.0
C1570 C 0.76208 0.93054 0.3637 0.0
C1571 C 0.76833 0.90462 0.35218 0.0
C1572 C 0.7475 0.88338 0.36186 0.0
C1573 C 0.73019 0.87394 0.33424 0.0
C1574 C 0.76107 0.85862 0.37825 0.0
C1575 C 0.73065 0.90064 0.38362 0.0
C1576 C 0.73869 0.92797 0.3836 0.0
C1577 C 0.72854 0.94693 0.40484 0.0
C1578 C 0.70946 0.93773 0.42648 0.0
C1579 C 0.70117 0.9098 0.42676 0.0
C1580 C 0.71162 0.89123 0.40483 0.0
H1581 H 0.15866 0.22515 0.7027 0.0
H1582 H 0.0709 0.21025 0.70798 0.0
H1583 H 0.06219 0.25253 0.67835 0.0
H1584 H 0.15294 0.3051 0.70154 0.0
H1585 H 0.1815 0.3068 0.67529 0.0
H1586 H 0.18044 0.28024 0.70425 0.0
H1587 H 0.18635 0.24339 0.6615 0.0
H1588 H 0.18643 0.26958 0.63238 0.0
H1589 H 0.16175 0.24195 0.63051 0.0
H1590 H 0.06345 0.2877 0.63812 0.0
H1591 H 0.07425 0.31941 0.59569 0.0
H1592 H 0.16122 0.31212 0.61688 0.0
C1593 C 0.13761 0.23146 0.69865 0.0
C1594 C 0.11546 0.21451 0.70718 0.0
C1595 C 0.08814 0.22308 0.70152 0.0
C1596 C 0.08298 0.24708 0.68482 0.0
C1597 C 0.10537 0.2624 0.67477 0.0
C1598 C 0.13215 0.25548 0.68225 0.0
C1599 C 0.15259 0.27338 0.66546 0.0
C1600 C 0.16775 0.29252 0.68798 0.0
C1601 C 0.17294 0.25602 0.64633 0.0
C1602 C 0.13318 0.28949 0.64526 0.0
C1603 C 0.10604 0.28331 0.65146 0.0
C1604 C 0.08454 0.29346 0.63366 0.0
C1605 C 0.09093 0.31107 0.60933 0.0
C1606 C 0.11857 0.31813 0.60312 0.0
C1607 C 0.13989 0.30713 0.62126 0.0
loop_
_geom_bond_atom_site_label_1
_geom_bond_atom_site_label_2
_geom_bond_distance
_geom_bond_site_symmetry_2
_ccdc_geom_bond_type
C0 C1 1.351 . S
C0 N3 1.368 . S
C0 H5 0.931 . S
C1 C0 1.351 . S
C1 N2 1.373 . S
C1 H29 0.930 . S
N2 C1 1.373 . S
N2 C4 1.340 . S
N3 C0 1.368 . S
N3 C4 1.321 . S
N3 Co6 2.135 . S
C4 N2 1.340 . S
C4 N3 1.321 . S
C4 H28 0.930 . S
H5 C0 0.931 . S
Co6 N3 2.135 . S
Co6 N9 2.121 . S
Co6 O14 2.055 . S
Co6 O17 2.039 . S
Co6 N20 2.140 . S
C7 O8 1.227 . S
C7 O17 1.265 . S
O8 C7 1.227 . S
N9 Co6 2.121 . S
N9 C11 1.375 . S
N9 C12 1.313 . S
C10 C11 1.338 . S
C10 N13 1.377 . S
C10 H30 0.930 . S
C11 N9 1.375 . S
C11 C10 1.338 . S
C11 H15 0.931 . S
C12 N9 1.313 . S
C12 N13 1.344 . S
C12 H16 0.930 . S
N13 C10 1.377 . S
N13 C12 1.344 . S
O14 Co6 2.055 . S
O14 C18 1.253 . S
H15 C11 0.931 . S
H16 C12 0.930 . S
O17 Co6 2.039 . S
O17 C7 1.265 . S
C18 O14 1.253 . S
C18 O19 1.227 . S
O19 C18 1.227 . S
N20 Co6 2.140 . S
N20 C23 1.346 . S
N20 C24 1.345 . S
C21 C22 1.387 . S
C21 C25 1.391 . S
C22 C21 1.387 . S
C22 C23 1.369 . S
C22 H31 0.929 . S
C23 N20 1.346 . S
C23 C22 1.369 . S
C23 H26 0.928 . S
C24 N20 1.345 . S
C24 C25 1.371 . S
C24 H27 0.931 . S
C25 C21 1.391 . S
C25 C24 1.371 . S
C25 H32 0.930 . S
H26 C23 0.928 . S
H27 C24 0.931 . S
H28 C4 0.930 . S
H29 C1 0.930 . S
H30 C10 0.930 . S
H31 C22 0.929 . S
H32 C25 0.930 . S
C33 C34 1.351 . S
C33 N36 1.368 . S
C33 H38 0.931 . S
C34 C33 1.351 . S
C34 N35 1.373 . S
C34 H62 0.930 . S
N35 C34 1.373 . S
N35 C37 1.340 . S
N36 C33 1.368 . S
N36 C37 1.321 . S
N36 Co39 2.135 . S
C37 N35 1.340 . S
C37 N36 1.321 . S
C37 H61 0.930 . S
H38 C33 0.931 . S
Co39 N36 2.135 . S
Co39 N42 2.121 . S
Co39 O47 2.055 . S
Co39 O50 2.039 . S
Co39 N53 2.140 . S
C40 O41 1.227 . S
C40 O50 1.265 . S
O41 C40 1.227 . S
N42 Co39 2.121 . S
N42 C44 1.375 . S
N42 C45 1.313 . S
C43 C44 1.338 . S
C43 N46 1.377 . S
C43 H63 0.930 . S
C44 N42 1.375 . S
C44 C43 1.338 . S
C44 H48 0.931 . S
C45 N42 1.313 . S
C45 N46 1.344 . S
C45 H49 0.930 . S
N46 C43 1.377 . S
N46 C45 1.344 . S
O47 Co39 2.055 . S
O47 C51 1.253 . S
H48 C44 0.931 . S
H49 C45 0.930 . S
O50 Co39 2.039 . S
O50 C40 1.265 . S
C51 O47 1.253 . S
C51 O52 1.227 . S
O52 C51 1.227 . S
N53 Co39 2.140 . S
N53 C56 1.346 . S
N53 C57 1.345 . S
C54 C55 1.387 . S
C54 C58 1.391 . S
C55 C54 1.387 . S
C55 C56 1.369 . S
C55 H64 0.929 . S
C56 N53 1.346 . S
C56 C55 1.369 . S
C56 H59 0.928 . S
C57 N53 1.345 . S
C57 C58 1.371 . S
C57 H60 0.931 . S
C58 C54 1.391 . S
C58 C57 1.371 . S
C58 H65 0.930 . S
H59 C56 0.928 . S
H60 C57 0.931 . S
H61 C37 0.930 . S
H62 C34 0.930 . S
H63 C43 0.930 . S
H64 C55 0.929 . S
H65 C58 0.930 . S
C66 C67 1.351 . S
C66 N69 1.368 . S
C66 H71 0.931 . S
C67 C66 1.351 . S
C67 N68 1.373 . S
C67 H95 0.930 . S
N68 C67 1.373 . S
N68 C70 1.340 . S
N69 C66 1.368 . S
N69 C70 1.321 . S
N69 Co72 2.135 . S
C70 N68 1.340 . S
C70 N69 1.321 . S
C70 H94 0.930 . S
H71 C66 0.931 . S
Co72 N69 2.135 . S
Co72 N75 2.121 . S
Co72 O80 2.055 . S
Co72 O83 2.039 . S
Co72 N86 2.140 . S
C73 O74 1.227 . S
C73 O83 1.265 . S
O74 C73 1.227 . S
N75 Co72 2.121 . S
N75 C77 1.375 . S
N75 C78 1.313 . S
C76 C77 1.338 . S
C76 N79 1.377 . S
C76 H96 0.930 . S
C77 N75 1.375 . S
C77 C76 1.338 . S
C77 H81 0.931 . S
C78 N75 1.313 . S
C78 N79 1.344 . S
C78 H82 0.930 . S
N79 C76 1.377 . S
N79 C78 1.344 . S
O80 Co72 2.055 . S
O80 C84 1.253 . S
H81 C77 0.931 . S
H82 C78 0.930 . S
O83 Co72 2.039 . S
O83 C73 1.265 . S
C84 O80 1.253 . S
C84 O85 1.227 . S
O85 C84 1.227 . S
N86 Co72 2.140 . S
N86 C89 1.346 . S
N86 C90 1.345 . S
C87 C88 1.387 . S
C87 C91 1.391 . S
C88 C87 1.387 . S
C88 C89 1.369 . S
C88 H97 0.929 . S
C89 N86 1.346 . S
C89 C88 1.369 . S
C89 H92 0.928 . S
C90 N86 1.345 . S
C90 C91 1.371 . S
C90 H93 0.931 . S
C91 C87 1.391 . S
C91 C90 1.371 . S
C91 H98 0.930 . S
H92 C89 0.928 . S
H93 C90 0.931 . S
H94 C70 0.930 . S
H95 C67 0.930 . S
H96 C76 0.930 . S
H97 C88 0.929 . S
H98 C91 0.930 . S
C99 C100 1.351 . S
C99 N102 1.368 . S
C99 H104 0.931 . S
C100 C99 1.351 . S
C100 N101 1.373 . S
C100 H128 0.930 . S
N101 C100 1.373 . S
N101 C103 1.340 . S
N102 C99 1.368 . S
N102 C103 1.321 . S
N102 Co105 2.135 . S
C103 N101 1.340 . S
C103 N102 1.321 . S
C103 H127 0.930 . S
H104 C99 0.931 . S
Co105 N102 2.135 . S
Co105 N108 2.121 . S
Co105 O113 2.055 . S
Co105 O116 2.039 . S
Co105 N119 2.140 . S
C106 O107 1.227 . S
C106 O116 1.265 . S
O107 C106 1.227 . S
N108 Co105 2.121 . S
N108 C110 1.375 . S
N108 C111 1.313 . S
C109 C110 1.338 1_556 S
C109 N112 1.377 . S
C109 H129 0.930 . S
C110 N108 1.375 . S
C110 C109 1.338 1_554 S
C110 H114 0.931 . S
C111 N108 1.313 . S
C111 N112 1.344 1_554 S
C111 H115 0.930 . S
N112 C109 1.377 . S
N112 C111 1.344 1_556 S
O113 Co105 2.055 . S
O113 C117 1.253 . S
H114 C110 0.931 . S
H115 C111 0.930 . S
O116 Co105 2.039 . S
O116 C106 1.265 . S
C117 O113 1.253 . S
C117 O118 1.227 . S
O118 C117 1.227 . S
N119 Co105 2.140 . S
N119 C122 1.346 . S
N119 C123 1.345 . S
C120 C121 1.387 . S
C120 C124 1.391 . S
C121 C120 1.387 . S
C121 C122 1.369 . S
C121 H130 0.929 . S
C122 N119 1.346 . S
C122 C121 1.369 . S
C122 H125 0.928 . S
C123 N119 1.345 . S
C123 C124 1.371 . S
C123 H126 0.931 . S
C124 C120 1.391 . S
C124 C123 1.371 . S
C124 H131 0.930 . S
H125 C122 0.928 . S
H126 C123 0.931 . S
H127 C103 0.930 . S
H128 C100 0.930 . S
H129 C109 0.930 . S
H130 C121 0.929 . S
H131 C124 0.930 . S
C132 C133 1.351 . S
C132 N135 1.368 . S
C132 H137 0.931 . S
C133 C132 1.351 . S
C133 N134 1.373 . S
C133 H161 0.930 . S
N134 C133 1.373 . S
N134 C136 1.340 . S
N135 C132 1.368 . S
N135 C136 1.321 . S
N135 Co138 2.135 . S
C136 N134 1.340 . S
C136 N135 1.321 . S
C136 H160 0.930 . S
H137 C132 0.931 . S
Co138 N135 2.135 . S
Co138 N141 2.121 . S
Co138 O146 2.055 . S
Co138 O149 2.039 . S
Co138 N152 2.140 . S
C139 O140 1.227 . S
C139 O149 1.265 . S
O140 C139 1.227 . S
N141 Co138 2.121 . S
N141 C143 1.375 . S
N141 C144 1.313 . S
C142 C143 1.338 1_554 S
C142 N145 1.377 . S
C142 H162 0.930 . S
C143 N141 1.375 . S
C143 C142 1.338 1_556 S
C143 H147 0.931 . S
C144 N141 1.313 . S
C144 N145 1.344 1_556 S
C144 H148 0.930 . S
N145 C142 1.377 . S
N145 C144 1.344 1_554 S
O146 Co138 2.055 . S
O146 C150 1.253 . S
H147 C143 0.931 . S
H148 C144 0.930 . S
O149 Co138 2.039 . S
O149 C139 1.265 . S
C150 O146 1.253 . S
C150 O151 1.227 . S
O151 C150 1.227 . S
N152 Co138 2.140 . S
N152 C155 1.346 . S
N152 C156 1.345 . S
C153 C154 1.387 . S
C153 C157 1.391 . S
C154 C153 1.387 . S
C154 C155 1.369 . S
C154 H163 0.929 . S
C155 N152 1.346 . S
C155 C154 1.369 . S
C155 H158 0.928 . S
C156 N152 1.345 . S
C156 C157 1.371 . S
C156 H159 0.931 . S
C157 C153 1.391 . S
C157 C156 1.371 . S
C157 H164 0.930 . S
H158 C155 0.928 . S
H159 C156 0.931 . S
H160 C136 0.930 . S
H161 C133 0.930 . S
H162 C142 0.930 . S
H163 C154 0.929 . S
H164 C157 0.930 . S
C165 C166 1.351 . S
C165 N168 1.368 . S
C165 H170 0.931 . S
C166 C165 1.351 . S
C166 N167 1.373 . S
C166 H194 0.930 . S
N167 C166 1.373 . S
N167 C169 1.340 . S
N168 C165 1.368 . S
N168 C169 1.321 . S
N168 Co171 2.135 . S
C169 N167 1.340 . S
C169 N168 1.321 . S
C169 H193 0.930 . S
H170 C165 0.931 . S
Co171 N168 2.135 . S
Co171 N174 2.121 . S
Co171 O179 2.055 . S
Co171 O182 2.039 . S
Co171 N185 2.140 . S
C172 O173 1.227 . S
C172 O182 1.265 . S
O173 C172 1.227 . S
N174 Co171 2.121 . S
N174 C176 1.375 . S
N174 C177 1.313 . S
C175 C176 1.338 . S
C175 N178 1.377 . S
C175 H195 0.930 . S
C176 N174 1.375 . S
C176 C175 1.338 . S
C176 H180 0.931 . S
C177 N174 1.313 . S
C177 N178 1.344 . S
C177 H181 0.930 . S
N178 C175 1.377 . S
N178 C177 1.344 . S
O179 Co171 2.055 . S
O179 C183 1.253 . S
H180 C176 0.931 . S
H181 C177 0.930 . S
O182 Co171 2.039 . S
O182 C172 1.265 . S
C183 O179 1.253 . S
C183 O184 1.227 . S
O184 C183 1.227 . S
N185 Co171 2.140 . S
N185 C188 1.346 . S
N185 C189 1.345 . S
C186 C187 1.387 . S
C186 C190 1.391 . S
C187 C186 1.387 . S
C187 C188 1.369 . S
C187 H196 0.929 . S
C188 N185 1.346 . S
C188 C187 1.369 . S
C188 H191 0.928 . S
C189 N185 1.345 . S
C189 C190 1.371 . S
C189 H192 0.931 . S
C190 C186 1.391 . S
C190 C189 1.371 . S
C190 H197 0.930 . S
H191 C188 0.928 . S
H192 C189 0.931 . S
H193 C169 0.930 . S
H194 C166 0.930 . S
H195 C175 0.930 . S
H196 C187 0.929 . S
H197 C190 0.930 . S
C198 C199 1.351 . S
C198 N201 1.368 . S
C198 H203 0.931 . S
C199 C198 1.351 . S
C199 N200 1.373 . S
C199 H227 0.930 . S
N200 C199 1.373 . S
N200 C202 1.340 . S
N201 C198 1.368 . S
N201 C202 1.321 . S
N201 Co204 2.135 . S
C202 N200 1.340 . S
C202 N201 1.321 . S
C202 H226 0.930 . S
H203 C198 0.931 . S
Co204 N201 2.135 . S
Co204 N207 2.121 . S
Co204 O212 2.055 . S
Co204 O215 2.039 . S
Co204 N218 2.140 . S
C205 O206 1.227 . S
C205 O215 1.265 . S
O206 C205 1.227 . S
N207 Co204 2.121 . S
N207 C209 1.375 . S
N207 C210 1.313 . S
C208 C209 1.338 . S
C208 N211 1.377 . S
C208 H228 0.930 . S
C209 N207 1.375 . S
C209 C208 1.338 . S
C209 H213 0.931 . S
C210 N207 1.313 . S
C210 N211 1.344 . S
C210 H214 0.930 . S
N211 C208 1.377 . S
N211 C210 1.344 . S
O212 Co204 2.055 . S
O212 C216 1.253 . S
H213 C209 0.931 . S
H214 C210 0.930 . S
O215 Co204 2.039 . S
O215 C205 1.265 . S
C216 O212 1.253 . S
C216 O217 1.227 . S
O217 C216 1.227 . S
N218 Co204 2.140 . S
N218 C221 1.346 . S
N218 C222 1.345 . S
C219 C220 1.387 . S
C219 C223 1.391 . S
C220 C219 1.387 . S
C220 C221 1.369 . S
C220 H229 0.929 . S
C221 N218 1.346 . S
C221 C220 1.369 . S
C221 H224 0.928 . S
C222 N218 1.345 . S
C222 C223 1.371 . S
C222 H225 0.931 . S
C223 C219 1.391 . S
C223 C222 1.371 . S
C223 H230 0.930 . S
H224 C221 0.928 . S
H225 C222 0.931 . S
H226 C202 0.930 . S
H227 C199 0.930 . S
H228 C208 0.930 . S
H229 C220 0.929 . S
H230 C223 0.930 . S
C231 C232 1.351 . S
C231 N234 1.368 . S
C231 H236 0.931 . S
C232 C231 1.351 . S
C232 N233 1.373 . S
C232 H260 0.930 . S
N233 C232 1.373 . S
N233 C235 1.340 . S
N234 C231 1.368 . S
N234 C235 1.321 . S
N234 Co237 2.135 . S
C235 N233 1.340 . S
C235 N234 1.321 . S
C235 H259 0.930 . S
H236 C231 0.931 . S
Co237 N234 2.135 . S
Co237 N240 2.121 . S
Co237 O245 2.055 . S
Co237 O248 2.039 . S
Co237 N251 2.140 . S
C238 O239 1.227 . S
C238 O248 1.265 . S
O239 C238 1.227 . S
N240 Co237 2.121 . S
N240 C242 1.375 . S
N240 C243 1.313 . S
C241 C242 1.338 . S
C241 N244 1.377 . S
C241 H261 0.930 . S
C242 N240 1.375 . S
C242 C241 1.338 . S
C242 H246 0.931 . S
C243 N240 1.313 . S
C243 N244 1.344 . S
C243 H247 0.930 . S
N244 C241 1.377 . S
N244 C243 1.344 . S
O245 Co237 2.055 . S
O245 C249 1.253 . S
H246 C242 0.931 . S
H247 C243 0.930 . S
O248 Co237 2.039 . S
O248 C238 1.265 . S
C249 O245 1.253 . S
C249 O250 1.227 . S
O250 C249 1.227 . S
N251 Co237 2.140 . S
N251 C254 1.346 . S
N251 C255 1.345 . S
C252 C253 1.387 . S
C252 C256 1.391 . S
C253 C252 1.387 . S
C253 C254 1.369 . S
C253 H262 0.929 . S
C254 N251 1.346 . S
C254 C253 1.369 . S
C254 H257 0.928 . S
C255 N251 1.345 . S
C255 C256 1.371 . S
C255 H258 0.931 . S
C256 C252 1.391 . S
C256 C255 1.371 . S
C256 H263 0.930 . S
H257 C254 0.928 . S
H258 C255 0.931 . S
H259 C235 0.930 . S
H260 C232 0.930 . S
H261 C241 0.930 . S
H262 C253 0.929 . S
H263 C256 0.930 . S
C264 C265 1.351 . S
C264 N267 1.368 . S
C264 H269 0.931 . S
C265 C264 1.351 . S
C265 N266 1.373 . S
C265 H293 0.930 . S
N266 C265 1.373 . S
N266 C268 1.340 . S
N267 C264 1.368 . S
N267 C268 1.321 . S
N267 Co270 2.135 . S
C268 N266 1.340 . S
C268 N267 1.321 . S
C268 H292 0.930 . S
H269 C264 0.931 . S
Co270 N267 2.135 . S
Co270 N273 2.121 . S
Co270 O278 2.055 . S
Co270 O281 2.039 . S
Co270 N284 2.140 . S
C271 O272 1.227 . S
C271 O281 1.265 . S
O272 C271 1.227 . S
N273 Co270 2.121 . S
N273 C275 1.375 . S
N273 C276 1.313 . S
C274 C275 1.338 . S
C274 N277 1.377 . S
C274 H294 0.930 . S
C275 N273 1.375 . S
C275 C274 1.338 . S
C275 H279 0.931 . S
C276 N273 1.313 . S
C276 N277 1.344 . S
C276 H280 0.930 . S
N277 C274 1.377 . S
N277 C276 1.344 . S
O278 Co270 2.055 . S
O278 C282 1.253 . S
H279 C275 0.931 . S
H280 C276 0.930 . S
O281 Co270 2.039 . S
O281 C271 1.265 . S
C282 O278 1.253 . S
C282 O283 1.227 . S
O283 C282 1.227 . S
N284 Co270 2.140 . S
N284 C287 1.346 . S
N284 C288 1.345 . S
C285 C286 1.387 . S
C285 C289 1.391 . S
C286 C285 1.387 . S
C286 C287 1.369 . S
C286 H295 0.929 . S
C287 N284 1.346 . S
C287 C286 1.369 . S
C287 H290 0.928 . S
C288 N284 1.345 . S
C288 C289 1.371 . S
C288 H291 0.931 . S
C289 C285 1.391 . S
C289 C288 1.371 . S
C289 H296 0.930 . S
H290 C287 0.928 . S
H291 C288 0.931 . S
H292 C268 0.930 . S
H293 C265 0.930 . S
H294 C274 0.930 . S
H295 C286 0.929 . S
H296 C289 0.930 . S
C297 C298 1.351 . S
C297 N300 1.368 . S
C297 H302 0.931 . S
C298 C297 1.351 . S
C298 N299 1.373 . S
C298 H326 0.930 . S
N299 C298 1.373 . S
N299 C301 1.340 . S
N300 C297 1.368 . S
N300 C301 1.321 . S
N300 Co303 2.135 . S
C301 N299 1.340 . S
C301 N300 1.321 . S
C301 H325 0.930 . S
H302 C297 0.931 . S
Co303 N300 2.135 . S
Co303 N306 2.121 . S
Co303 O311 2.055 . S
Co303 O314 2.039 . S
Co303 N317 2.140 . S
C304 O305 1.227 . S
C304 O314 1.265 . S
O305 C304 1.227 . S
N306 Co303 2.121 . S
N306 C308 1.375 . S
N306 C309 1.313 . S
C307 C308 1.338 1_556 S
C307 N310 1.377 . S
C307 H327 0.930 . S
C308 N306 1.375 . S
C308 C307 1.338 1_554 S
C308 H312 0.931 . S
C309 N306 1.313 . S
C309 N310 1.344 1_554 S
C309 H313 0.930 . S
N310 C307 1.377 . S
N310 C309 1.344 1_556 S
O311 Co303 2.055 . S
O311 C315 1.253 . S
H312 C308 0.931 . S
H313 C309 0.930 . S
O314 Co303 2.039 . S
O314 C304 1.265 . S
C315 O311 1.253 . S
C315 O316 1.227 . S
O316 C315 1.227 . S
N317 Co303 2.140 . S
N317 C320 1.346 . S
N317 C321 1.345 . S
C318 C319 1.387 . S
C318 C322 1.391 . S
C319 C318 1.387 . S
C319 C320 1.369 . S
C319 H328 0.929 . S
C320 N317 1.346 . S
C320 C319 1.369 . S
C320 H323 0.928 . S
C321 N317 1.345 . S
C321 C322 1.371 . S
C321 H324 0.931 . S
C322 C318 1.391 . S
C322 C321 1.371 . S
C322 H329 0.930 . S
H323 C320 0.928 . S
H324 C321 0.931 . S
H325 C301 0.930 . S
H326 C298 0.930 . S
H327 C307 0.930 . S
H328 C319 0.929 . S
H329 C322 0.930 . S
C330 C331 1.351 . S
C330 N333 1.368 . S
C330 H335 0.931 . S
C331 C330 1.351 . S
C331 N332 1.373 . S
C331 H359 0.930 . S
N332 C331 1.373 . S
N332 C334 1.340 . S
N333 C330 1.368 . S
N333 C334 1.321 . S
N333 Co336 2.135 . S
C334 N332 1.340 . S
C334 N333 1.321 . S
C334 H358 0.930 . S
H335 C330 0.931 . S
Co336 N333 2.135 . S
Co336 N339 2.121 . S
Co336 O344 2.055 . S
Co336 O347 2.039 . S
Co336 N350 2.140 . S
C337 O338 1.227 . S
C337 O347 1.265 . S
O338 C337 1.227 . S
N339 Co336 2.121 . S
N339 C341 1.375 . S
N339 C342 1.313 . S
C340 C341 1.338 . S
C340 N343 1.377 . S
C340 H360 0.930 . S
C341 N339 1.375 . S
C341 C340 1.338 . S
C341 H345 0.931 . S
C342 N339 1.313 . S
C342 N343 1.344 . S
C342 H346 0.930 . S
N343 C340 1.377 . S
N343 C342 1.344 . S
O344 Co336 2.055 . S
O344 C348 1.253 . S
H345 C341 0.931 . S
H346 C342 0.930 . S
O347 Co336 2.039 . S
O347 C337 1.265 . S
C348 O344 1.253 . S
C348 O349 1.227 . S
O349 C348 1.227 . S
N350 Co336 2.140 . S
N350 C353 1.346 . S
N350 C354 1.345 . S
C351 C352 1.387 . S
C351 C355 1.391 . S
C352 C351 1.387 . S
C352 C353 1.369 . S
C352 H361 0.929 . S
C353 N350 1.346 . S
C353 C352 1.369 . S
C353 H356 0.928 . S
C354 N350 1.345 . S
C354 C355 1.371 . S
C354 H357 0.931 . S
C355 C351 1.391 . S
C355 C354 1.371 . S
C355 H362 0.930 . S
H356 C353 0.928 . S
H357 C354 0.931 . S
H358 C334 0.930 . S
H359 C331 0.930 . S
H360 C340 0.930 . S
H361 C352 0.929 . S
H362 C355 0.930 . S
C363 C364 1.351 . S
C363 N366 1.368 . S
C363 H368 0.931 . S
C364 C363 1.351 . S
C364 N365 1.373 . S
C364 H392 0.930 . S
N365 C364 1.373 . S
N365 C367 1.340 . S
N366 C363 1.368 . S
N366 C367 1.321 . S
N366 Co369 2.135 . S
C367 N365 1.340 . S
C367 N366 1.321 . S
C367 H391 0.930 . S
H368 C363 0.931 . S
Co369 N366 2.135 . S
Co369 N372 2.121 . S
Co369 O377 2.055 . S
Co369 O380 2.039 . S
Co369 N383 2.140 . S
C370 O371 1.227 . S
C370 O380 1.265 . S
O371 C370 1.227 . S
N372 Co369 2.121 . S
N372 C374 1.375 . S
N372 C375 1.313 . S
C373 C374 1.338 . S
C373 N376 1.377 . S
C373 H393 0.930 . S
C374 N372 1.375 . S
C374 C373 1.338 . S
C374 H378 0.931 . S
C375 N372 1.313 . S
C375 N376 1.344 . S
C375 H379 0.930 . S
N376 C373 1.377 . S
N376 C375 1.344 . S
O377 Co369 2.055 . S
O377 C381 1.253 . S
H378 C374 0.931 . S
H379 C375 0.930 . S
O380 Co369 2.039 . S
O380 C370 1.265 . S
C381 O377 1.253 . S
C381 O382 1.227 . S
O382 C381 1.227 . S
N383 Co369 2.140 . S
N383 C386 1.346 . S
N383 C387 1.345 . S
C384 C385 1.387 . S
C384 C388 1.391 . S
C385 C384 1.387 . S
C385 C386 1.369 . S
C385 H394 0.929 . S
C386 N383 1.346 . S
C386 C385 1.369 . S
C386 H389 0.928 . S
C387 N383 1.345 . S
C387 C388 1.371 . S
C387 H390 0.931 . S
C388 C384 1.391 . S
C388 C387 1.371 . S
C388 H395 0.930 . S
H389 C386 0.928 . S
H390 C387 0.931 . S
H391 C367 0.930 . S
H392 C364 0.930 . S
H393 C373 0.930 . S
H394 C385 0.929 . S
H395 C388 0.930 . S
C396 C397 1.351 . S
C396 N399 1.368 . S
C396 H401 0.931 . S
C397 C396 1.351 . S
C397 N398 1.373 . S
C397 H425 0.930 . S
N398 C397 1.373 . S
N398 C400 1.340 . S
N399 C396 1.368 . S
N399 C400 1.321 . S
N399 Co402 2.135 . S
C400 N398 1.340 . S
C400 N399 1.321 . S
C400 H424 0.930 . S
H401 C396 0.931 . S
Co402 N399 2.135 . S
Co402 N405 2.121 . S
Co402 O410 2.055 . S
Co402 O413 2.039 . S
Co402 N416 2.140 . S
C403 O404 1.227 . S
C403 O413 1.265 . S
O404 C403 1.227 . S
N405 Co402 2.121 . S
N405 C407 1.375 . S
N405 C408 1.313 . S
C406 C407 1.338 . S
C406 N409 1.377 . S
C406 H426 0.930 . S
C407 N405 1.375 . S
C407 C406 1.338 . S
C407 H411 0.931 . S
C408 N405 1.313 . S
C408 N409 1.344 . S
C408 H412 0.930 . S
N409 C406 1.377 . S
N409 C408 1.344 . S
O410 Co402 2.055 . S
O410 C414 1.253 . S
H411 C407 0.931 . S
H412 C408 0.930 . S
O413 Co402 2.039 . S
O413 C403 1.265 . S
C414 O410 1.253 . S
C414 O415 1.227 . S
O415 C414 1.227 . S
N416 Co402 2.140 . S
N416 C419 1.346 . S
N416 C420 1.345 . S
C417 C418 1.387 . S
C417 C421 1.391 . S
C418 C417 1.387 . S
C418 C419 1.369 . S
C418 H427 0.929 . S
C419 N416 1.346 . S
C419 C418 1.369 . S
C419 H422 0.928 . S
C420 N416 1.345 . S
C420 C421 1.371 . S
C420 H423 0.931 . S
C421 C417 1.391 . S
C421 C420 1.371 . S
C421 H428 0.930 . S
H422 C419 0.928 . S
H423 C420 0.931 . S
H424 C400 0.930 . S
H425 C397 0.930 . S
H426 C406 0.930 . S
H427 C418 0.929 . S
H428 C421 0.930 . S
C429 C430 1.351 . S
C429 N432 1.368 . S
C429 H434 0.931 . S
C430 C429 1.351 . S
C430 N431 1.373 . S
C430 H458 0.930 . S
N431 C430 1.373 . S
N431 C433 1.340 . S
N432 C429 1.368 . S
N432 C433 1.321 . S
N432 Co435 2.135 . S
C433 N431 1.340 . S
C433 N432 1.321 . S
C433 H457 0.930 . S
H434 C429 0.931 . S
Co435 N432 2.135 . S
Co435 N438 2.121 . S
Co435 O443 2.055 . S
Co435 O446 2.039 . S
Co435 N449 2.140 . S
C436 O437 1.227 . S
C436 O446 1.265 . S
O437 C436 1.227 . S
N438 Co435 2.121 . S
N438 C440 1.375 . S
N438 C441 1.313 . S
C439 C440 1.338 . S
C439 N442 1.377 . S
C439 H459 0.930 . S
C440 N438 1.375 . S
C440 C439 1.338 . S
C440 H444 0.931 . S
C441 N438 1.313 . S
C441 N442 1.344 . S
C441 H445 0.930 . S
N442 C439 1.377 . S
N442 C441 1.344 . S
O443 Co435 2.055 . S
O443 C447 1.253 . S
H444 C440 0.931 . S
H445 C441 0.930 . S
O446 Co435 2.039 . S
O446 C436 1.265 . S
C447 O443 1.253 . S
C447 O448 1.227 . S
O448 C447 1.227 . S
N449 Co435 2.140 . S
N449 C452 1.346 . S
N449 C453 1.345 . S
C450 C451 1.387 . S
C450 C454 1.391 . S
C451 C450 1.387 . S
C451 C452 1.369 . S
C451 H460 0.929 . S
C452 N449 1.346 . S
C452 C451 1.369 . S
C452 H455 0.928 . S
C453 N449 1.345 . S
C453 C454 1.371 . S
C453 H456 0.931 . S
C454 C450 1.391 . S
C454 C453 1.371 . S
C454 H461 0.930 . S
H455 C452 0.928 . S
H456 C453 0.931 . S
H457 C433 0.930 . S
H458 C430 0.930 . S
H459 C439 0.930 . S
H460 C451 0.929 . S
H461 C454 0.930 . S
C462 C463 1.351 . S
C462 N465 1.368 . S
C462 H467 0.931 . S
C463 C462 1.351 . S
C463 N464 1.373 . S
C463 H491 0.930 . S
N464 C463 1.373 . S
N464 C466 1.340 . S
N465 C462 1.368 . S
N465 C466 1.321 . S
N465 Co468 2.135 . S
C466 N464 1.340 . S
C466 N465 1.321 . S
C466 H490 0.930 . S
H467 C462 0.931 . S
Co468 N465 2.135 . S
Co468 N471 2.121 . S
Co468 O476 2.055 . S
Co468 O479 2.039 . S
Co468 N482 2.140 . S
C469 O470 1.227 . S
C469 O479 1.265 . S
O470 C469 1.227 . S
N471 Co468 2.121 . S
N471 C473 1.375 . S
N471 C474 1.313 . S
C472 C473 1.338 1_554 S
C472 N475 1.377 . S
C472 H492 0.930 . S
C473 N471 1.375 . S
C473 C472 1.338 1_556 S
C473 H477 0.931 . S
C474 N471 1.313 . S
C474 N475 1.344 1_556 S
C474 H478 0.930 . S
N475 C472 1.377 . S
N475 C474 1.344 1_554 S
O476 Co468 2.055 . S
O476 C480 1.253 . S
H477 C473 0.931 . S
H478 C474 0.930 . S
O479 Co468 2.039 . S
O479 C469 1.265 . S
C480 O476 1.253 . S
C480 O481 1.227 . S
O481 C480 1.227 . S
N482 Co468 2.140 . S
N482 C485 1.346 . S
N482 C486 1.345 . S
C483 C484 1.387 . S
C483 C487 1.391 . S
C484 C483 1.387 . S
C484 C485 1.369 . S
C484 H493 0.929 . S
C485 N482 1.346 . S
C485 C484 1.369 . S
C485 H488 0.928 . S
C486 N482 1.345 . S
C486 C487 1.371 . S
C486 H489 0.931 . S
C487 C483 1.391 . S
C487 C486 1.371 . S
C487 H494 0.930 . S
H488 C485 0.928 . S
H489 C486 0.931 . S
H490 C466 0.930 . S
H491 C463 0.930 . S
H492 C472 0.930 . S
H493 C484 0.929 . S
H494 C487 0.930 . S
C495 C496 1.351 . S
C495 N498 1.368 . S
C495 H500 0.931 . S
C496 C495 1.351 . S
C496 N497 1.373 . S
C496 H524 0.930 . S
N497 C496 1.373 . S
N497 C499 1.340 . S
N498 C495 1.368 . S
N498 C499 1.321 . S
N498 Co501 2.135 . S
C499 N497 1.340 . S
C499 N498 1.321 . S
C499 H523 0.930 . S
H500 C495 0.931 . S
Co501 N498 2.135 . S
Co501 N504 2.121 . S
Co501 O509 2.055 . S
Co501 O512 2.039 . S
Co501 N515 2.140 . S
C502 O503 1.227 . S
C502 O512 1.265 . S
O503 C502 1.227 . S
N504 Co501 2.121 . S
N504 C506 1.375 . S
N504 C507 1.313 . S
C505 C506 1.338 . S
C505 N508 1.377 . S
C505 H525 0.930 . S
C506 N504 1.375 . S
C506 C505 1.338 . S
C506 H510 0.931 . S
C507 N504 1.313 . S
C507 N508 1.344 . S
C507 H511 0.930 . S
N508 C505 1.377 . S
N508 C507 1.344 . S
O509 Co501 2.055 . S
O509 C513 1.253 . S
H510 C506 0.931 . S
H511 C507 0.930 . S
O512 Co501 2.039 . S
O512 C502 1.265 . S
C513 O509 1.253 . S
C513 O514 1.227 . S
O514 C513 1.227 . S
N515 Co501 2.140 . S
N515 C518 1.346 . S
N515 C519 1.345 . S
C516 C517 1.387 . S
C516 C520 1.391 . S
C517 C516 1.387 . S
C517 C518 1.369 . S
C517 H526 0.929 . S
C518 N515 1.346 . S
C518 C517 1.369 . S
C518 H521 0.928 . S
C519 N515 1.345 . S
C519 C520 1.371 . S
C519 H522 0.931 . S
C520 C516 1.391 . S
C520 C519 1.371 . S
C520 H527 0.930 . S
H521 C518 0.928 . S
H522 C519 0.931 . S
H523 C499 0.930 . S
H524 C496 0.930 . S
H525 C505 0.930 . S
H526 C517 0.929 . S
H527 C520 0.930 . S
H528 C540 0.930 . S
H529 C542 0.930 . S
H530 C543 0.930 . S
H531 C547 0.959 . S
H532 C547 0.959 . S
H533 C547 0.961 . S
H534 C548 0.960 . S
H535 C548 0.961 . S
H536 C548 0.959 . S
H537 C551 0.929 . S
H538 C552 0.931 . S
H539 C554 0.930 . S
C540 H528 0.930 . S
C540 C541 1.399 . S
C540 C545 1.399 . S
C541 C540 1.399 . S
C541 C542 1.376 . S
C542 H529 0.930 . S
C542 C541 1.376 . S
C542 C543 1.388 . S
C543 H530 0.930 . S
C543 C542 1.388 . S
C543 C544 1.390 . S
C544 C543 1.390 . S
C544 C545 1.394 . S
C544 C550 1.465 . S
C545 C540 1.399 . S
C545 C544 1.394 . S
C545 C546 1.516 . S
C546 C545 1.516 . S
C546 C547 1.502 . S
C546 C548 1.561 . S
C546 C549 1.526 . S
C547 H531 0.959 . S
C547 H532 0.959 . S
C547 H533 0.961 . S
C547 C546 1.502 . S
C548 H534 0.960 . S
C548 H535 0.961 . S
C548 H536 0.959 . S
C548 C546 1.561 . S
C549 C546 1.526 . S
C549 C550 1.396 . S
C549 C554 1.390 . S
C550 C544 1.465 . S
C550 C549 1.396 . S
C550 C551 1.399 . S
C551 H537 0.929 . S
C551 C550 1.399 . S
C551 C552 1.385 . S
C552 H538 0.931 . S
C552 C551 1.385 . S
C552 C553 1.389 . S
C553 C552 1.389 . S
C553 C554 1.387 . S
C554 H539 0.930 . S
C554 C549 1.390 . S
C554 C553 1.387 . S
H555 C567 0.930 . S
H556 C569 0.930 . S
H557 C570 0.930 . S
H558 C574 0.959 . S
H559 C574 0.959 . S
H560 C574 0.961 . S
H561 C575 0.960 . S
H562 C575 0.961 . S
H563 C575 0.959 . S
H564 C578 0.929 . S
H565 C579 0.931 . S
H566 C581 0.930 . S
C567 H555 0.930 . S
C567 C568 1.399 . S
C567 C572 1.399 . S
C568 C567 1.399 . S
C568 C569 1.376 . S
C569 H556 0.930 . S
C569 C568 1.376 . S
C569 C570 1.388 . S
C570 H557 0.930 . S
C570 C569 1.388 . S
C570 C571 1.390 . S
C571 C570 1.390 . S
C571 C572 1.394 . S
C571 C577 1.465 . S
C572 C567 1.399 . S
C572 C571 1.394 . S
C572 C573 1.516 . S
C573 C572 1.516 . S
C573 C574 1.502 . S
C573 C575 1.561 . S
C573 C576 1.526 . S
C574 H558 0.959 . S
C574 H559 0.959 . S
C574 H560 0.961 . S
C574 C573 1.502 . S
C575 H561 0.960 . S
C575 H562 0.961 . S
C575 H563 0.959 . S
C575 C573 1.561 . S
C576 C573 1.526 . S
C576 C577 1.396 . S
C576 C581 1.390 . S
C577 C571 1.465 . S
C577 C576 1.396 . S
C577 C578 1.399 . S
C578 H564 0.929 . S
C578 C577 1.399 . S
C578 C579 1.385 . S
C579 H565 0.931 . S
C579 C578 1.385 . S
C579 C580 1.389 . S
C580 C579 1.389 . S
C580 C581 1.387 . S
C581 H566 0.930 . S
C581 C576 1.390 . S
C581 C580 1.387 . S
H582 C594 0.930 . S
H583 C596 0.930 . S
H584 C597 0.930 . S
H585 C601 0.959 . S
H586 C601 0.959 . S
H587 C601 0.961 1_554 S
H588 C602 0.960 1_554 S
H589 C602 0.961 . S
H590 C602 0.959 . S
H591 C605 0.929 . S
H592 C606 0.931 . S
H593 C608 0.930 . S
C594 H582 0.930 . S
C594 C595 1.399 . S
C594 C599 1.399 . S
C595 C594 1.399 . S
C595 C596 1.376 . S
C596 H583 0.930 . S
C596 C595 1.376 . S
C596 C597 1.388 . S
C597 H584 0.930 . S
C597 C596 1.388 . S
C597 C598 1.390 . S
C598 C597 1.390 . S
C598 C599 1.394 . S
C598 C604 1.465 1_554 S
C599 C594 1.399 . S
C599 C598 1.394 . S
C599 C600 1.516 1_554 S
C600 C599 1.516 1_556 S
C600 C601 1.502 . S
C600 C602 1.561 . S
C600 C603 1.526 . S
C601 H585 0.959 . S
C601 H586 0.959 . S
C601 H587 0.961 1_556 S
C601 C600 1.502 . S
C602 H588 0.960 1_556 S
C602 H589 0.961 . S
C602 H590 0.959 . S
C602 C600 1.561 . S
C603 C600 1.526 . S
C603 C604 1.396 . S
C603 C608 1.390 . S
C604 C598 1.465 1_556 S
C604 C603 1.396 . S
C604 C605 1.399 . S
C605 H591 0.929 . S
C605 C604 1.399 . S
C605 C606 1.385 . S
C606 H592 0.931 . S
C606 C605 1.385 . S
C606 C607 1.389 . S
C607 C606 1.389 . S
C607 C608 1.387 . S
C608 H593 0.930 . S
C608 C603 1.390 . S
C608 C607 1.387 . S
H609 C621 0.930 . S
H610 C623 0.930 . S
H611 C624 0.930 . S
H612 C628 0.959 . S
H613 C628 0.959 . S
H614 C628 0.961 . S
H615 C629 0.960 . S
H616 C629 0.961 . S
H617 C629 0.959 . S
H618 C632 0.929 . S
H619 C633 0.931 . S
H620 C635 0.930 . S
C621 H609 0.930 . S
C621 C622 1.399 . S
C621 C626 1.399 . S
C622 C621 1.399 . S
C622 C623 1.376 . S
C623 H610 0.930 . S
C623 C622 1.376 . S
C623 C624 1.388 . S
C624 H611 0.930 . S
C624 C623 1.388 . S
C624 C625 1.390 . S
C625 C624 1.390 . S
C625 C626 1.394 . S
C625 C631 1.465 . S
C626 C621 1.399 . S
C626 C625 1.394 . S
C626 C627 1.516 . S
C627 C626 1.516 . S
C627 C628 1.502 . S
C627 C629 1.561 . S
C627 C630 1.526 . S
C628 H612 0.959 . S
C628 H613 0.959 . S
C628 H614 0.961 . S
C628 C627 1.502 . S
C629 H615 0.960 . S
C629 H616 0.961 . S
C629 H617 0.959 . S
C629 C627 1.561 . S
C630 C627 1.526 . S
C630 C631 1.396 . S
C630 C635 1.390 . S
C631 C625 1.465 . S
C631 C630 1.396 . S
C631 C632 1.399 . S
C632 H618 0.929 . S
C632 C631 1.399 . S
C632 C633 1.385 . S
C633 H619 0.931 . S
C633 C632 1.385 . S
C633 C634 1.389 . S
C634 C633 1.389 . S
C634 C635 1.387 . S
C635 H620 0.930 . S
C635 C630 1.390 . S
C635 C634 1.387 . S
H636 C648 0.930 . S
H637 C650 0.930 . S
H638 C651 0.930 . S
H639 C655 0.959 . S
H640 C655 0.959 . S
H641 C655 0.961 . S
H642 C656 0.960 . S
H643 C656 0.961 . S
H644 C656 0.959 . S
H645 C659 0.929 . S
H646 C660 0.931 . S
H647 C662 0.930 . S
C648 H636 0.930 . S
C648 C649 1.399 . S
C648 C653 1.399 . S
C649 C648 1.399 . S
C649 C650 1.376 . S
C650 H637 0.930 . S
C650 C649 1.376 . S
C650 C651 1.388 . S
C651 H638 0.930 . S
C651 C650 1.388 . S
C651 C652 1.390 . S
C652 C651 1.390 . S
C652 C653 1.394 . S
C652 C658 1.465 . S
C653 C648 1.399 . S
C653 C652 1.394 . S
C653 C654 1.516 . S
C654 C653 1.516 . S
C654 C655 1.502 . S
C654 C656 1.561 . S
C654 C657 1.526 . S
C655 H639 0.959 . S
C655 H640 0.959 . S
C655 H641 0.961 . S
C655 C654 1.502 . S
C656 H642 0.960 . S
C656 H643 0.961 . S
C656 H644 0.959 . S
C656 C654 1.561 . S
C657 C654 1.526 . S
C657 C658 1.396 . S
C657 C662 1.390 . S
C658 C652 1.465 . S
C658 C657 1.396 . S
C658 C659 1.399 . S
C659 H645 0.929 . S
C659 C658 1.399 . S
C659 C660 1.385 . S
C660 H646 0.931 . S
C660 C659 1.385 . S
C660 C661 1.389 . S
C661 C660 1.389 . S
C661 C662 1.387 . S
C662 H647 0.930 . S
C662 C657 1.390 . S
C662 C661 1.387 . S
H663 C675 0.930 . S
H664 C677 0.930 . S
H665 C678 0.930 . S
H666 C682 0.959 1_554 S
H667 C682 0.956 1_554 S
H668 C682 0.965 . S
H669 C683 0.960 . S
H670 C683 0.961 1_554 S
H671 C683 0.959 . S
H672 C686 0.929 . S
H673 C687 0.931 . S
H674 C689 0.930 . S
C675 H663 0.930 . S
C675 C676 1.399 . S
C675 C680 1.399 . S
C676 C675 1.399 . S
C676 C677 1.376 . S
C677 H664 0.930 . S
C677 C676 1.376 . S
C677 C678 1.388 . S
C678 H665 0.930 . S
C678 C677 1.388 . S
C678 C679 1.390 . S
C679 C678 1.390 . S
C679 C680 1.394 . S
C679 C685 1.465 1_556 S
C680 C675 1.399 . S
C680 C679 1.394 . S
C680 C681 1.516 . S
C681 C680 1.516 . S
C681 C682 1.502 . S
C681 C683 1.561 . S
C681 C684 1.526 1_556 S
C682 H666 0.959 1_556 S
C682 H667 0.956 1_556 S
C682 H668 0.965 . S
C682 C681 1.502 . S
C683 H669 0.960 . S
C683 H670 0.961 1_556 S
C683 H671 0.959 . S
C683 C681 1.561 . S
C684 C681 1.526 1_554 S
C684 C685 1.396 . S
C684 C689 1.390 . S
C685 C679 1.465 1_554 S
C685 C684 1.396 . S
C685 C686 1.399 . S
C686 H672 0.929 . S
C686 C685 1.399 . S
C686 C687 1.385 . S
C687 H673 0.931 . S
C687 C686 1.385 . S
C687 C688 1.389 . S
C688 C687 1.389 . S
C688 C689 1.387 . S
C689 H674 0.930 . S
C689 C684 1.390 . S
C689 C688 1.387 . S
H690 C702 0.930 . S
H691 C704 0.930 . S
H692 C705 0.930 . S
H693 C709 0.959 . S
H694 C709 0.959 . S
H695 C709 0.961 . S
H696 C710 0.960 . S
H697 C710 0.961 . S
H698 C710 0.959 . S
H699 C713 0.929 . S
H700 C714 0.931 . S
H701 C716 0.930 . S
C702 H690 0.930 . S
C702 C703 1.399 . S
C702 C707 1.399 . S
C703 C702 1.399 . S
C703 C704 1.376 . S
C704 H691 0.930 . S
C704 C703 1.376 . S
C704 C705 1.388 . S
C705 H692 0.930 . S
C705 C704 1.388 . S
C705 C706 1.390 . S
C706 C705 1.390 . S
C706 C707 1.394 . S
C706 C712 1.465 . S
C707 C702 1.399 . S
C707 C706 1.394 . S
C707 C708 1.516 . S
C708 C707 1.516 . S
C708 C709 1.502 . S
C708 C710 1.561 . S
C708 C711 1.526 . S
C709 H693 0.959 . S
C709 H694 0.959 . S
C709 H695 0.961 . S
C709 C708 1.502 . S
C710 H696 0.960 . S
C710 H697 0.961 . S
C710 H698 0.959 . S
C710 C708 1.561 . S
C711 C708 1.526 . S
C711 C712 1.396 . S
C711 C716 1.390 . S
C712 C706 1.465 . S
C712 C711 1.396 . S
C712 C713 1.399 . S
C713 H699 0.929 . S
C713 C712 1.399 . S
C713 C714 1.385 . S
C714 H700 0.931 . S
C714 C713 1.385 . S
C714 C715 1.389 . S
C715 C714 1.389 . S
C715 C716 1.387 . S
C716 H701 0.930 . S
C716 C711 1.390 . S
C716 C715 1.387 . S
H717 C729 0.930 . S
H718 C731 0.930 . S
H719 C732 0.930 . S
H720 C736 0.959 . S
H721 C736 0.959 . S
H722 C736 0.961 . S
H723 C737 0.960 . S
H724 C737 0.961 . S
H725 C737 0.959 . S
H726 C740 0.929 . S
H727 C741 0.931 . S
H728 C743 0.930 . S
C729 H717 0.930 . S
C729 C730 1.399 . S
C729 C734 1.399 . S
C730 C729 1.399 . S
C730 C731 1.376 . S
C731 H718 0.930 . S
C731 C730 1.376 . S
C731 C732 1.388 . S
C732 H719 0.930 . S
C732 C731 1.388 . S
C732 C733 1.390 . S
C733 C732 1.390 . S
C733 C734 1.394 . S
C733 C739 1.465 . S
C734 C729 1.399 . S
C734 C733 1.394 . S
C734 C735 1.516 . S
C735 C734 1.516 . S
C735 C736 1.502 . S
C735 C737 1.561 . S
C735 C738 1.526 . S
C736 H720 0.959 . S
C736 H721 0.959 . S
C736 H722 0.961 . S
C736 C735 1.502 . S
C737 H723 0.960 . S
C737 H724 0.961 . S
C737 H725 0.959 . S
C737 C735 1.561 . S
C738 C735 1.526 . S
C738 C739 1.396 . S
C738 C743 1.390 . S
C739 C733 1.465 . S
C739 C738 1.396 . S
C739 C740 1.399 . S
C740 H726 0.929 . S
C740 C739 1.399 . S
C740 C741 1.385 . S
C741 H727 0.931 . S
C741 C740 1.385 . S
C741 C742 1.389 . S
C742 C741 1.389 . S
C742 C743 1.387 . S
C743 H728 0.930 . S
C743 C738 1.390 . S
C743 C742 1.387 . S
H744 C756 0.930 . S
H745 C758 0.930 . S
H746 C759 0.930 . S
H747 C763 0.959 . S
H748 C763 0.959 . S
H749 C763 0.961 . S
H750 C764 0.960 . S
H751 C764 0.961 . S
H752 C764 0.959 . S
H753 C767 0.929 . S
H754 C768 0.931 . S
H755 C770 0.930 . S
C756 H744 0.930 . S
C756 C757 1.399 . S
C756 C761 1.399 . S
C757 C756 1.399 . S
C757 C758 1.376 . S
C758 H745 0.930 . S
C758 C757 1.376 . S
C758 C759 1.388 . S
C759 H746 0.930 . S
C759 C758 1.388 . S
C759 C760 1.390 . S
C760 C759 1.390 . S
C760 C761 1.394 . S
C760 C766 1.465 . S
C761 C756 1.399 . S
C761 C760 1.394 . S
C761 C762 1.516 . S
C762 C761 1.516 . S
C762 C763 1.502 . S
C762 C764 1.561 . S
C762 C765 1.526 . S
C763 H747 0.959 . S
C763 H748 0.959 . S
C763 H749 0.961 . S
C763 C762 1.502 . S
C764 H750 0.960 . S
C764 H751 0.961 . S
C764 H752 0.959 . S
C764 C762 1.561 . S
C765 C762 1.526 . S
C765 C766 1.396 . S
C765 C770 1.390 . S
C766 C760 1.465 . S
C766 C765 1.396 . S
C766 C767 1.399 . S
C767 H753 0.929 . S
C767 C766 1.399 . S
C767 C768 1.385 . S
C768 H754 0.931 . S
C768 C767 1.385 . S
C768 C769 1.389 . S
C769 C768 1.389 . S
C769 C770 1.387 . S
C770 H755 0.930 . S
C770 C765 1.390 . S
C770 C769 1.387 . S
H771 C783 0.930 . S
H772 C785 0.930 . S
H773 C786 0.930 . S
H774 C790 0.959 . S
H775 C790 0.959 . S
H776 C790 0.961 . S
H777 C791 0.960 . S
H778 C791 0.961 . S
H779 C791 0.959 . S
H780 C794 0.929 . S
H781 C795 0.931 . S
H782 C797 0.930 . S
C783 H771 0.930 . S
C783 C784 1.399 . S
C783 C788 1.399 . S
C784 C783 1.399 . S
C784 C785 1.376 . S
C785 H772 0.930 . S
C785 C784 1.376 . S
C785 C786 1.388 . S
C786 H773 0.930 . S
C786 C785 1.388 . S
C786 C787 1.390 . S
C787 C786 1.390 . S
C787 C788 1.394 . S
C787 C793 1.465 . S
C788 C783 1.399 . S
C788 C787 1.394 . S
C788 C789 1.516 . S
C789 C788 1.516 . S
C789 C790 1.502 . S
C789 C791 1.561 . S
C789 C792 1.526 . S
C790 H774 0.959 . S
C790 H775 0.959 . S
C790 H776 0.961 . S
C790 C789 1.502 . S
C791 H777 0.960 . S
C791 H778 0.961 . S
C791 H779 0.959 . S
C791 C789 1.561 . S
C792 C789 1.526 . S
C792 C793 1.396 . S
C792 C797 1.390 . S
C793 C787 1.465 . S
C793 C792 1.396 . S
C793 C794 1.399 . S
C794 H780 0.929 . S
C794 C793 1.399 . S
C794 C795 1.385 . S
C795 H781 0.931 . S
C795 C794 1.385 . S
C795 C796 1.389 . S
C796 C795 1.389 . S
C796 C797 1.387 . S
C797 H782 0.930 . S
C797 C792 1.390 . S
C797 C796 1.387 . S
H798 C810 0.930 . S
H799 C812 0.930 . S
H800 C813 0.930 . S
H801 C817 0.959 . S
H802 C817 0.959 . S
H803 C817 0.961 . S
H804 C818 0.960 . S
H805 C818 0.961 . S
H806 C818 0.959 . S
H807 C821 0.929 . S
H808 C822 0.931 . S
H809 C824 0.930 . S
C810 H798 0.930 . S
C810 C811 1.399 . S
C810 C815 1.399 . S
C811 C810 1.399 . S
C811 C812 1.376 . S
C812 H799 0.930 . S
C812 C811 1.376 . S
C812 C813 1.388 . S
C813 H800 0.930 . S
C813 C812 1.388 . S
C813 C814 1.390 . S
C814 C813 1.390 . S
C814 C815 1.394 . S
C814 C820 1.465 . S
C815 C810 1.399 . S
C815 C814 1.394 . S
C815 C816 1.516 . S
C816 C815 1.516 . S
C816 C817 1.502 . S
C816 C818 1.561 . S
C816 C819 1.526 . S
C817 H801 0.959 . S
C817 H802 0.959 . S
C817 H803 0.961 . S
C817 C816 1.502 . S
C818 H804 0.960 . S
C818 H805 0.961 . S
C818 H806 0.959 . S
C818 C816 1.561 . S
C819 C816 1.526 . S
C819 C820 1.396 . S
C819 C824 1.390 . S
C820 C814 1.465 . S
C820 C819 1.396 . S
C820 C821 1.399 . S
C821 H807 0.929 . S
C821 C820 1.399 . S
C821 C822 1.385 . S
C822 H808 0.931 . S
C822 C821 1.385 . S
C822 C823 1.389 . S
C823 C822 1.389 . S
C823 C824 1.387 . S
C824 H809 0.930 . S
C824 C819 1.390 . S
C824 C823 1.387 . S
H825 C837 0.930 . S
H826 C839 0.930 . S
H827 C840 0.930 . S
H828 C844 0.959 . S
H829 C844 0.959 . S
H830 C844 0.961 . S
H831 C845 0.960 . S
H832 C845 0.961 . S
H833 C845 0.959 . S
H834 C848 0.929 . S
H835 C849 0.931 . S
H836 C851 0.930 . S
C837 H825 0.930 . S
C837 C838 1.399 . S
C837 C842 1.399 . S
C838 C837 1.399 . S
C838 C839 1.376 . S
C839 H826 0.930 . S
C839 C838 1.376 . S
C839 C840 1.388 . S
C840 H827 0.930 . S
C840 C839 1.388 . S
C840 C841 1.390 . S
C841 C840 1.390 . S
C841 C842 1.394 . S
C841 C847 1.465 . S
C842 C837 1.399 . S
C842 C841 1.394 . S
C842 C843 1.516 . S
C843 C842 1.516 . S
C843 C844 1.502 . S
C843 C845 1.561 . S
C843 C846 1.526 . S
C844 H828 0.959 . S
C844 H829 0.959 . S
C844 H830 0.961 . S
C844 C843 1.502 . S
C845 H831 0.960 . S
C845 H832 0.961 . S
C845 H833 0.959 . S
C845 C843 1.561 . S
C846 C843 1.526 . S
C846 C847 1.396 . S
C846 C851 1.390 . S
C847 C841 1.465 . S
C847 C846 1.396 . S
C847 C848 1.399 . S
C848 H834 0.929 . S
C848 C847 1.399 . S
C848 C849 1.385 . S
C849 H835 0.931 . S
C849 C848 1.385 . S
C849 C850 1.389 . S
C850 C849 1.389 . S
C850 C851 1.387 . S
C851 H836 0.930 . S
C851 C846 1.390 . S
C851 C850 1.387 . S
H852 C864 0.930 . S
H853 C866 0.930 . S
H854 C867 0.930 . S
H855 C871 0.959 . S
H856 C871 0.959 . S
H857 C871 0.961 . S
H858 C872 0.960 . S
H859 C872 0.961 . S
H860 C872 0.959 . S
H861 C875 0.929 . S
H862 C876 0.931 . S
H863 C878 0.930 . S
C864 H852 0.930 . S
C864 C865 1.399 . S
C864 C869 1.399 . S
C865 C864 1.399 . S
C865 C866 1.376 . S
C866 H853 0.930 . S
C866 C865 1.376 . S
C866 C867 1.388 . S
C867 H854 0.930 . S
C867 C866 1.388 . S
C867 C868 1.390 . S
C868 C867 1.390 . S
C868 C869 1.394 . S
C868 C874 1.465 . S
C869 C864 1.399 . S
C869 C868 1.394 . S
C869 C870 1.516 . S
C870 C869 1.516 . S
C870 C871 1.502 . S
C870 C872 1.561 . S
C870 C873 1.526 . S
C871 H855 0.959 . S
C871 H856 0.959 . S
C871 H857 0.961 . S
C871 C870 1.502 . S
C872 H858 0.960 . S
C872 H859 0.961 . S
C872 H860 0.959 . S
C872 C870 1.561 . S
C873 C870 1.526 . S
C873 C874 1.396 . S
C873 C878 1.390 . S
C874 C868 1.465 . S
C874 C873 1.396 . S
C874 C875 1.399 . S
C875 H861 0.929 . S
C875 C874 1.399 . S
C875 C876 1.385 . S
C876 H862 0.931 . S
C876 C875 1.385 . S
C876 C877 1.389 . S
C877 C876 1.389 . S
C877 C878 1.387 . S
C878 H863 0.930 . S
C878 C873 1.390 . S
C878 C877 1.387 . S
H879 C891 0.930 . S
H880 C893 0.930 . S
H881 C894 0.930 . S
H882 C898 0.959 . S
H883 C898 0.959 . S
H884 C898 0.961 . S
H885 C899 0.960 . S
H886 C899 0.961 . S
H887 C899 0.959 . S
H888 C902 0.929 . S
H889 C903 0.931 . S
H890 C905 0.930 . S
C891 H879 0.930 . S
C891 C892 1.399 . S
C891 C896 1.399 . S
C892 C891 1.399 . S
C892 C893 1.376 . S
C893 H880 0.930 . S
C893 C892 1.376 . S
C893 C894 1.388 . S
C894 H881 0.930 . S
C894 C893 1.388 . S
C894 C895 1.390 . S
C895 C894 1.390 . S
C895 C896 1.394 . S
C895 C901 1.465 . S
C896 C891 1.399 . S
C896 C895 1.394 . S
C896 C897 1.516 . S
C897 C896 1.516 . S
C897 C898 1.502 . S
C897 C899 1.561 . S
C897 C900 1.526 . S
C898 H882 0.959 . S
C898 H883 0.959 . S
C898 H884 0.961 . S
C898 C897 1.502 . S
C899 H885 0.960 . S
C899 H886 0.961 . S
C899 H887 0.959 . S
C899 C897 1.561 . S
C900 C897 1.526 . S
C900 C901 1.396 . S
C900 C905 1.390 . S
C901 C895 1.465 . S
C901 C900 1.396 . S
C901 C902 1.399 . S
C902 H888 0.929 . S
C902 C901 1.399 . S
C902 C903 1.385 . S
C903 H889 0.931 . S
C903 C902 1.385 . S
C903 C904 1.389 . S
C904 C903 1.389 . S
C904 C905 1.387 . S
C905 H890 0.930 . S
C905 C900 1.390 . S
C905 C904 1.387 . S
H906 C918 0.930 . S
H907 C920 0.930 . S
H908 C921 0.930 . S
H909 C925 0.959 . S
H910 C925 0.959 . S
H911 C925 0.961 . S
H912 C926 0.960 . S
H913 C926 0.961 . S
H914 C926 0.959 . S
H915 C929 0.929 . S
H916 C930 0.931 . S
H917 C932 0.930 . S
C918 H906 0.930 . S
C918 C919 1.399 . S
C918 C923 1.399 . S
C919 C918 1.399 . S
C919 C920 1.376 . S
C920 H907 0.930 . S
C920 C919 1.376 . S
C920 C921 1.388 . S
C921 H908 0.930 . S
C921 C920 1.388 . S
C921 C922 1.390 . S
C922 C921 1.390 . S
C922 C923 1.394 . S
C922 C928 1.465 . S
C923 C918 1.399 . S
C923 C922 1.394 . S
C923 C924 1.516 . S
C924 C923 1.516 . S
C924 C925 1.502 . S
C924 C926 1.561 . S
C924 C927 1.526 . S
C925 H909 0.959 . S
C925 H910 0.959 . S
C925 H911 0.961 . S
C925 C924 1.502 . S
C926 H912 0.960 . S
C926 H913 0.961 . S
C926 H914 0.959 . S
C926 C924 1.561 . S
C927 C924 1.526 . S
C927 C928 1.396 . S
C927 C932 1.390 . S
C928 C922 1.465 . S
C928 C927 1.396 . S
C928 C929 1.399 . S
C929 H915 0.929 . S
C929 C928 1.399 . S
C929 C930 1.385 . S
C930 H916 0.931 . S
C930 C929 1.385 . S
C930 C931 1.389 . S
C931 C930 1.389 . S
C931 C932 1.387 . S
C932 H917 0.930 . S
C932 C927 1.390 . S
C932 C931 1.387 . S
H933 C945 0.930 . S
H934 C947 0.930 . S
H935 C948 0.930 . S
H936 C952 0.959 . S
H937 C952 0.959 . S
H938 C952 0.961 . S
H939 C953 0.960 . S
H940 C953 0.961 . S
H941 C953 0.959 . S
H942 C956 0.929 . S
H943 C957 0.931 . S
H944 C959 0.930 . S
C945 H933 0.930 . S
C945 C946 1.399 . S
C945 C950 1.399 . S
C946 C945 1.399 . S
C946 C947 1.376 . S
C947 H934 0.930 . S
C947 C946 1.376 . S
C947 C948 1.388 . S
C948 H935 0.930 . S
C948 C947 1.388 . S
C948 C949 1.390 . S
C949 C948 1.390 . S
C949 C950 1.394 . S
C949 C955 1.465 . S
C950 C945 1.399 . S
C950 C949 1.394 . S
C950 C951 1.516 . S
C951 C950 1.516 . S
C951 C952 1.502 . S
C951 C953 1.561 . S
C951 C954 1.526 . S
C952 H936 0.959 . S
C952 H937 0.959 . S
C952 H938 0.961 . S
C952 C951 1.502 . S
C953 H939 0.960 . S
C953 H940 0.961 . S
C953 H941 0.959 . S
C953 C951 1.561 . S
C954 C951 1.526 . S
C954 C955 1.396 . S
C954 C959 1.390 . S
C955 C949 1.465 . S
C955 C954 1.396 . S
C955 C956 1.399 . S
C956 H942 0.929 . S
C956 C955 1.399 . S
C956 C957 1.385 . S
C957 H943 0.931 . S
C957 C956 1.385 . S
C957 C958 1.389 . S
C958 C957 1.389 . S
C958 C959 1.387 . S
C959 H944 0.930 . S
C959 C954 1.390 . S
C959 C958 1.387 . S
H960 C972 0.930 . S
H961 C974 0.930 . S
H962 C975 0.930 . S
H963 C979 0.959 . S
H964 C979 0.959 . S
H965 C979 0.961 . S
H966 C980 0.960 . S
H967 C980 0.961 . S
H968 C980 0.959 . S
H969 C983 0.929 . S
H970 C984 0.931 . S
H971 C986 0.930 . S
C972 H960 0.930 . S
C972 C973 1.399 . S
C972 C977 1.399 . S
C973 C972 1.399 . S
C973 C974 1.376 . S
C974 H961 0.930 . S
C974 C973 1.376 . S
C974 C975 1.388 . S
C975 H962 0.930 . S
C975 C974 1.388 . S
C975 C976 1.390 . S
C976 C975 1.390 . S
C976 C977 1.394 . S
C976 C982 1.465 . S
C977 C972 1.399 . S
C977 C976 1.394 . S
C977 C978 1.516 . S
C978 C977 1.516 . S
C978 C979 1.502 . S
C978 C980 1.561 . S
C978 C981 1.526 . S
C979 H963 0.959 . S
C979 H964 0.959 . S
C979 H965 0.961 . S
C979 C978 1.502 . S
C980 H966 0.960 . S
C980 H967 0.961 . S
C980 H968 0.959 . S
C980 C978 1.561 . S
C981 C978 1.526 . S
C981 C982 1.396 . S
C981 C986 1.390 . S
C982 C976 1.465 . S
C982 C981 1.396 . S
C982 C983 1.399 . S
C983 H969 0.929 . S
C983 C982 1.399 . S
C983 C984 1.385 . S
C984 H970 0.931 . S
C984 C983 1.385 . S
C984 C985 1.389 . S
C985 C984 1.389 . S
C985 C986 1.387 . S
C986 H971 0.930 . S
C986 C981 1.390 . S
C986 C985 1.387 . S
H987 C999 0.930 . S
H988 C1001 0.930 . S
H989 C1002 0.930 . S
H990 C1006 0.959 . S
H991 C1006 0.959 . S
H992 C1006 0.961 . S
H993 C1007 0.960 . S
H994 C1007 0.961 . S
H995 C1007 0.959 . S
H996 C1010 0.929 . S
H997 C1011 0.931 . S
H998 C1013 0.930 . S
C999 H987 0.930 . S
C999 C1000 1.399 . S
C999 C1004 1.399 . S
C1000 C999 1.399 . S
C1000 C1001 1.376 . S
C1001 H988 0.930 . S
C1001 C1000 1.376 . S
C1001 C1002 1.388 . S
C1002 H989 0.930 . S
C1002 C1001 1.388 . S
C1002 C1003 1.390 . S
C1003 C1002 1.390 . S
C1003 C1004 1.394 . S
C1003 C1009 1.465 . S
C1004 C999 1.399 . S
C1004 C1003 1.394 . S
C1004 C1005 1.516 . S
C1005 C1004 1.516 . S
C1005 C1006 1.502 . S
C1005 C1007 1.561 . S
C1005 C1008 1.526 . S
C1006 H990 0.959 . S
C1006 H991 0.959 . S
C1006 H992 0.961 . S
C1006 C1005 1.502 . S
C1007 H993 0.960 . S
C1007 H994 0.961 . S
C1007 H995 0.959 . S
C1007 C1005 1.561 . S
C1008 C1005 1.526 . S
C1008 C1009 1.396 . S
C1008 C1013 1.390 . S
C1009 C1003 1.465 . S
C1009 C1008 1.396 . S
C1009 C1010 1.399 . S
C1010 H996 0.929 . S
C1010 C1009 1.399 . S
C1010 C1011 1.385 . S
C1011 H997 0.931 . S
C1011 C1010 1.385 . S
C1011 C1012 1.389 . S
C1012 C1011 1.389 . S
C1012 C1013 1.387 . S
C1013 H998 0.930 . S
C1013 C1008 1.390 . S
C1013 C1012 1.387 . S
H1014 C1026 0.930 . S
H1015 C1028 0.930 . S
H1016 C1029 0.930 . S
H1017 C1033 0.959 . S
H1018 C1033 0.959 . S
H1019 C1033 0.961 . S
H1020 C1034 0.960 . S
H1021 C1034 0.961 . S
H1022 C1034 0.959 . S
H1023 C1037 0.929 . S
H1024 C1038 0.931 . S
H1025 C1040 0.930 . S
C1026 H1014 0.930 . S
C1026 C1027 1.399 . S
C1026 C1031 1.399 . S
C1027 C1026 1.399 . S
C1027 C1028 1.376 . S
C1028 H1015 0.930 . S
C1028 C1027 1.376 . S
C1028 C1029 1.388 . S
C1029 H1016 0.930 . S
C1029 C1028 1.388 . S
C1029 C1030 1.390 . S
C1030 C1029 1.390 . S
C1030 C1031 1.394 . S
C1030 C1036 1.465 . S
C1031 C1026 1.399 . S
C1031 C1030 1.394 . S
C1031 C1032 1.516 . S
C1032 C1031 1.516 . S
C1032 C1033 1.502 . S
C1032 C1034 1.561 . S
C1032 C1035 1.526 . S
C1033 H1017 0.959 . S
C1033 H1018 0.959 . S
C1033 H1019 0.961 . S
C1033 C1032 1.502 . S
C1034 H1020 0.960 . S
C1034 H1021 0.961 . S
C1034 H1022 0.959 . S
C1034 C1032 1.561 . S
C1035 C1032 1.526 . S
C1035 C1036 1.396 . S
C1035 C1040 1.390 . S
C1036 C1030 1.465 . S
C1036 C1035 1.396 . S
C1036 C1037 1.399 . S
C1037 H1023 0.929 . S
C1037 C1036 1.399 . S
C1037 C1038 1.385 . S
C1038 H1024 0.931 . S
C1038 C1037 1.385 . S
C1038 C1039 1.389 . S
C1039 C1038 1.389 . S
C1039 C1040 1.387 . S
C1040 H1025 0.930 . S
C1040 C1035 1.390 . S
C1040 C1039 1.387 . S
H1041 C1053 0.930 . S
H1042 C1055 0.930 . S
H1043 C1056 0.930 . S
H1044 C1060 0.959 . S
H1045 C1060 0.959 . S
H1046 C1060 0.961 . S
H1047 C1061 0.960 . S
H1048 C1061 0.961 . S
H1049 C1061 0.959 . S
H1050 C1064 0.929 . S
H1051 C1065 0.931 . S
H1052 C1067 0.930 . S
C1053 H1041 0.930 . S
C1053 C1054 1.399 . S
C1053 C1058 1.399 . S
C1054 C1053 1.399 . S
C1054 C1055 1.376 . S
C1055 H1042 0.930 . S
C1055 C1054 1.376 . S
C1055 C1056 1.388 . S
C1056 H1043 0.930 . S
C1056 C1055 1.388 . S
C1056 C1057 1.390 . S
C1057 C1056 1.390 . S
C1057 C1058 1.394 . S
C1057 C1063 1.465 . S
C1058 C1053 1.399 . S
C1058 C1057 1.394 . S
C1058 C1059 1.516 . S
C1059 C1058 1.516 . S
C1059 C1060 1.502 . S
C1059 C1061 1.561 . S
C1059 C1062 1.526 . S
C1060 H1044 0.959 . S
C1060 H1045 0.959 . S
C1060 H1046 0.961 . S
C1060 C1059 1.502 . S
C1061 H1047 0.960 . S
C1061 H1048 0.961 . S
C1061 H1049 0.959 . S
C1061 C1059 1.561 . S
C1062 C1059 1.526 . S
C1062 C1063 1.396 . S
C1062 C1067 1.390 . S
C1063 C1057 1.465 . S
C1063 C1062 1.396 . S
C1063 C1064 1.399 . S
C1064 H1050 0.929 . S
C1064 C1063 1.399 . S
C1064 C1065 1.385 . S
C1065 H1051 0.931 . S
C1065 C1064 1.385 . S
C1065 C1066 1.389 . S
C1066 C1065 1.389 . S
C1066 C1067 1.387 . S
C1067 H1052 0.930 . S
C1067 C1062 1.390 . S
C1067 C1066 1.387 . S
H1068 C1080 0.930 . S
H1069 C1082 0.930 . S
H1070 C1083 0.930 . S
H1071 C1087 0.959 . S
H1072 C1087 0.959 . S
H1073 C1087 0.961 . S
H1074 C1088 0.960 . S
H1075 C1088 0.961 . S
H1076 C1088 0.959 . S
H1077 C1091 0.929 . S
H1078 C1092 0.931 . S
H1079 C1094 0.930 . S
C1080 H1068 0.930 . S
C1080 C1081 1.399 . S
C1080 C1085 1.399 . S
C1081 C1080 1.399 . S
C1081 C1082 1.376 . S
C1082 H1069 0.930 . S
C1082 C1081 1.376 . S
C1082 C1083 1.388 . S
C1083 H1070 0.930 . S
C1083 C1082 1.388 . S
C1083 C1084 1.390 . S
C1084 C1083 1.390 . S
C1084 C1085 1.394 . S
C1084 C1090 1.465 . S
C1085 C1080 1.399 . S
C1085 C1084 1.394 . S
C1085 C1086 1.516 . S
C1086 C1085 1.516 . S
C1086 C1087 1.502 . S
C1086 C1088 1.561 . S
C1086 C1089 1.526 . S
C1087 H1071 0.959 . S
C1087 H1072 0.959 . S
C1087 H1073 0.961 . S
C1087 C1086 1.502 . S
C1088 H1074 0.960 . S
C1088 H1075 0.961 . S
C1088 H1076 0.959 . S
C1088 C1086 1.561 . S
C1089 C1086 1.526 . S
C1089 C1090 1.396 . S
C1089 C1094 1.390 . S
C1090 C1084 1.465 . S
C1090 C1089 1.396 . S
C1090 C1091 1.399 . S
C1091 H1077 0.929 . S
C1091 C1090 1.399 . S
C1091 C1092 1.385 . S
C1092 H1078 0.931 . S
C1092 C1091 1.385 . S
C1092 C1093 1.389 . S
C1093 C1092 1.389 . S
C1093 C1094 1.387 . S
C1094 H1079 0.930 . S
C1094 C1089 1.390 . S
C1094 C1093 1.387 . S
H1095 C1107 0.930 . S
H1096 C1109 0.930 . S
H1097 C1110 0.930 . S
H1098 C1114 0.959 . S
H1099 C1114 0.959 . S
H1100 C1114 0.961 . S
H1101 C1115 0.960 . S
H1102 C1115 0.961 . S
H1103 C1115 0.959 . S
H1104 C1118 0.929 . S
H1105 C1119 0.931 . S
H1106 C1121 0.930 . S
C1107 H1095 0.930 . S
C1107 C1108 1.399 . S
C1107 C1112 1.399 . S
C1108 C1107 1.399 . S
C1108 C1109 1.376 . S
C1109 H1096 0.930 . S
C1109 C1108 1.376 . S
C1109 C1110 1.388 . S
C1110 H1097 0.930 . S
C1110 C1109 1.388 . S
C1110 C1111 1.390 . S
C1111 C1110 1.390 . S
C1111 C1112 1.394 . S
C1111 C1117 1.465 . S
C1112 C1107 1.399 . S
C1112 C1111 1.394 . S
C1112 C1113 1.516 . S
C1113 C1112 1.516 . S
C1113 C1114 1.502 . S
C1113 C1115 1.561 . S
C1113 C1116 1.526 . S
C1114 H1098 0.959 . S
C1114 H1099 0.959 . S
C1114 H1100 0.961 . S
C1114 C1113 1.502 . S
C1115 H1101 0.960 . S
C1115 H1102 0.961 . S
C1115 H1103 0.959 . S
C1115 C1113 1.561 . S
C1116 C1113 1.526 . S
C1116 C1117 1.396 . S
C1116 C1121 1.390 . S
C1117 C1111 1.465 . S
C1117 C1116 1.396 . S
C1117 C1118 1.399 . S
C1118 H1104 0.929 . S
C1118 C1117 1.399 . S
C1118 C1119 1.385 . S
C1119 H1105 0.931 . S
C1119 C1118 1.385 . S
C1119 C1120 1.389 . S
C1120 C1119 1.389 . S
C1120 C1121 1.387 . S
C1121 H1106 0.930 . S
C1121 C1116 1.390 . S
C1121 C1120 1.387 . S
H1122 C1134 0.930 . S
H1123 C1136 0.930 . S
H1124 C1137 0.930 . S
H1125 C1141 0.959 . S
H1126 C1141 0.959 . S
H1127 C1141 0.961 . S
H1128 C1142 0.960 . S
H1129 C1142 0.961 . S
H1130 C1142 0.959 . S
H1131 C1145 0.929 . S
H1132 C1146 0.931 . S
H1133 C1148 0.930 . S
C1134 H1122 0.930 . S
C1134 C1135 1.399 . S
C1134 C1139 1.399 . S
C1135 C1134 1.399 . S
C1135 C1136 1.376 . S
C1136 H1123 0.930 . S
C1136 C1135 1.376 . S
C1136 C1137 1.388 . S
C1137 H1124 0.930 . S
C1137 C1136 1.388 . S
C1137 C1138 1.390 . S
C1138 C1137 1.390 . S
C1138 C1139 1.394 . S
C1138 C1144 1.465 . S
C1139 C1134 1.399 . S
C1139 C1138 1.394 . S
C1139 C1140 1.516 . S
C1140 C1139 1.516 . S
C1140 C1141 1.502 . S
C1140 C1142 1.561 . S
C1140 C1143 1.526 . S
C1141 H1125 0.959 . S
C1141 H1126 0.959 . S
C1141 H1127 0.961 . S
C1141 C1140 1.502 . S
C1142 H1128 0.960 . S
C1142 H1129 0.961 . S
C1142 H1130 0.959 . S
C1142 C1140 1.561 . S
C1143 C1140 1.526 . S
C1143 C1144 1.396 . S
C1143 C1148 1.390 . S
C1144 C1138 1.465 . S
C1144 C1143 1.396 . S
C1144 C1145 1.399 . S
C1145 H1131 0.929 . S
C1145 C1144 1.399 . S
C1145 C1146 1.385 . S
C1146 H1132 0.931 . S
C1146 C1145 1.385 . S
C1146 C1147 1.389 . S
C1147 C1146 1.389 . S
C1147 C1148 1.387 . S
C1148 H1133 0.930 . S
C1148 C1143 1.390 . S
C1148 C1147 1.387 . S
H1149 C1161 0.930 . S
H1150 C1163 0.930 . S
H1151 C1164 0.930 . S
H1152 C1168 0.959 . S
H1153 C1168 0.959 . S
H1154 C1168 0.961 . S
H1155 C1169 0.960 . S
H1156 C1169 0.961 . S
H1157 C1169 0.959 . S
H1158 C1172 0.929 . S
H1159 C1173 0.931 . S
H1160 C1175 0.930 . S
C1161 H1149 0.930 . S
C1161 C1162 1.399 . S
C1161 C1166 1.399 . S
C1162 C1161 1.399 . S
C1162 C1163 1.376 . S
C1163 H1150 0.930 . S
C1163 C1162 1.376 . S
C1163 C1164 1.388 . S
C1164 H1151 0.930 . S
C1164 C1163 1.388 . S
C1164 C1165 1.390 . S
C1165 C1164 1.390 . S
C1165 C1166 1.394 . S
C1165 C1171 1.465 . S
C1166 C1161 1.399 . S
C1166 C1165 1.394 . S
C1166 C1167 1.516 . S
C1167 C1166 1.516 . S
C1167 C1168 1.502 . S
C1167 C1169 1.561 . S
C1167 C1170 1.526 . S
C1168 H1152 0.959 . S
C1168 H1153 0.959 . S
C1168 H1154 0.961 . S
C1168 C1167 1.502 . S
C1169 H1155 0.960 . S
C1169 H1156 0.961 . S
C1169 H1157 0.959 . S
C1169 C1167 1.561 . S
C1170 C1167 1.526 . S
C1170 C1171 1.396 . S
C1170 C1175 1.390 . S
C1171 C1165 1.465 . S
C1171 C1170 1.396 . S
C1171 C1172 1.399 . S
C1172 H1158 0.929 . S
C1172 C1171 1.399 . S
C1172 C1173 1.385 . S
C1173 H1159 0.931 . S
C1173 C1172 1.385 . S
C1173 C1174 1.389 . S
C1174 C1173 1.389 . S
C1174 C1175 1.387 . S
C1175 H1160 0.930 . S
C1175 C1170 1.390 . S
C1175 C1174 1.387 . S
H1176 C1188 0.930 . S
H1177 C1190 0.930 . S
H1178 C1191 0.930 1_655 S
H1179 C1195 0.959 . S
H1180 C1195 0.959 . S
H1181 C1195 0.961 . S
H1182 C1196 0.960 1_455 S
H1183 C1196 0.961 1_565 S
H1184 C1196 0.959 . S
H1185 C1199 0.942 . S
H1186 C1200 0.931 . S
H1187 C1202 0.930 . S
C1188 H1176 0.930 . S
C1188 C1189 1.399 . S
C1188 C1193 1.399 . S
C1189 C1188 1.399 . S
C1189 C1190 1.376 . S
C1190 H1177 0.930 . S
C1190 C1189 1.376 . S
C1190 C1191 1.388 . S
C1191 H1178 0.930 1_455 S
C1191 C1190 1.388 . S
C1191 C1192 1.390 . S
C1192 C1191 1.390 . S
C1192 C1193 1.394 . S
C1192 C1198 1.465 1_445 S
C1193 C1188 1.399 . S
C1193 C1192 1.394 . S
C1193 C1194 1.516 1_545 S
C1194 C1193 1.516 1_565 S
C1194 C1195 1.502 . S
C1194 C1196 1.561 1_465 S
C1194 C1197 1.526 1_455 S
C1195 H1179 0.959 . S
C1195 H1180 0.959 . S
C1195 H1181 0.961 . S
C1195 C1194 1.502 . S
C1196 H1182 0.960 1_655 S
C1196 H1183 0.961 1_545 S
C1196 H1184 0.959 . S
C1196 C1194 1.561 1_645 S
C1197 C1194 1.526 1_655 S
C1197 C1198 1.396 . S
C1197 C1202 1.390 . S
C1198 C1192 1.465 1_665 S
C1198 C1197 1.396 . S
C1198 C1199 1.399 . S
C1199 H1185 0.942 . S
C1199 C1198 1.399 . S
C1199 C1200 1.385 . S
C1200 H1186 0.931 . S
C1200 C1199 1.385 . S
C1200 C1201 1.389 . S
C1201 C1200 1.389 . S
C1201 C1202 1.387 . S
C1202 H1187 0.930 . S
C1202 C1197 1.390 . S
C1202 C1201 1.387 . S
H1203 C1215 0.930 . S
H1204 C1217 0.930 . S
H1205 C1218 0.930 . S
H1206 C1222 0.959 . S
H1207 C1222 0.959 . S
H1208 C1222 0.961 . S
H1209 C1223 0.960 . S
H1210 C1223 0.961 1_655 S
H1211 C1223 0.959 . S
H1212 C1226 0.929 . S
H1213 C1227 0.931 . S
H1214 C1229 0.930 . S
C1215 H1203 0.930 . S
C1215 C1216 1.399 . S
C1215 C1220 1.399 . S
C1216 C1215 1.399 . S
C1216 C1217 1.376 . S
C1217 H1204 0.930 . S
C1217 C1216 1.376 . S
C1217 C1218 1.388 . S
C1218 H1205 0.930 . S
C1218 C1217 1.388 . S
C1218 C1219 1.390 . S
C1219 C1218 1.390 . S
C1219 C1220 1.394 . S
C1219 C1225 1.465 1_455 S
C1220 C1215 1.399 . S
C1220 C1219 1.394 . S
C1220 C1221 1.516 1_455 S
C1221 C1220 1.516 1_655 S
C1221 C1222 1.502 . S
C1221 C1223 1.561 1_655 S
C1221 C1224 1.526 . S
C1222 H1206 0.959 . S
C1222 H1207 0.959 . S
C1222 H1208 0.961 . S
C1222 C1221 1.502 . S
C1223 H1209 0.960 . S
C1223 H1210 0.961 1_455 S
C1223 H1211 0.959 . S
C1223 C1221 1.561 1_455 S
C1224 C1221 1.526 . S
C1224 C1225 1.396 . S
C1224 C1229 1.390 . S
C1225 C1219 1.465 1_655 S
C1225 C1224 1.396 . S
C1225 C1226 1.399 . S
C1226 H1212 0.929 . S
C1226 C1225 1.399 . S
C1226 C1227 1.385 . S
C1227 H1213 0.931 . S
C1227 C1226 1.385 . S
C1227 C1228 1.389 . S
C1228 C1227 1.389 . S
C1228 C1229 1.387 . S
C1229 H1214 0.930 . S
C1229 C1224 1.390 . S
C1229 C1228 1.387 . S
H1230 C1242 0.930 . S
H1231 C1244 0.930 . S
H1232 C1245 0.930 . S
H1233 C1249 0.959 . S
H1234 C1249 0.959 . S
H1235 C1249 0.961 . S
H1236 C1250 0.960 . S
H1237 C1250 0.961 . S
H1238 C1250 0.959 . S
H1239 C1253 0.929 . S
H1240 C1254 0.931 . S
H1241 C1256 0.930 . S
C1242 H1230 0.930 . S
C1242 C1243 1.399 . S
C1242 C1247 1.399 . S
C1243 C1242 1.399 . S
C1243 C1244 1.376 . S
C1244 H1231 0.930 . S
C1244 C1243 1.376 . S
C1244 C1245 1.388 . S
C1245 H1232 0.930 . S
C1245 C1244 1.388 . S
C1245 C1246 1.390 . S
C1246 C1245 1.390 . S
C1246 C1247 1.394 . S
C1246 C1252 1.465 . S
C1247 C1242 1.399 . S
C1247 C1246 1.394 . S
C1247 C1248 1.516 . S
C1248 C1247 1.516 . S
C1248 C1249 1.502 . S
C1248 C1250 1.561 . S
C1248 C1251 1.526 . S
C1249 H1233 0.959 . S
C1249 H1234 0.959 . S
C1249 H1235 0.961 . S
C1249 C1248 1.502 . S
C1250 H1236 0.960 . S
C1250 H1237 0.961 . S
C1250 H1238 0.959 . S
C1250 C1248 1.561 . S
C1251 C1248 1.526 . S
C1251 C1252 1.396 . S
C1251 C1256 1.390 . S
C1252 C1246 1.465 . S
C1252 C1251 1.396 . S
C1252 C1253 1.399 . S
C1253 H1239 0.929 . S
C1253 C1252 1.399 . S
C1253 C1254 1.385 . S
C1254 H1240 0.931 . S
C1254 C1253 1.385 . S
C1254 C1255 1.389 . S
C1255 C1254 1.389 . S
C1255 C1256 1.387 . S
C1256 H1241 0.930 . S
C1256 C1251 1.390 . S
C1256 C1255 1.387 . S
H1257 C1269 0.930 . S
H1258 C1271 0.930 . S
H1259 C1272 0.930 . S
H1260 C1276 0.959 1_554 S
H1261 C1276 0.959 . S
H1262 C1276 0.961 . S
H1263 C1277 0.960 . S
H1264 C1277 0.961 . S
H1265 C1277 0.953 1_554 S
H1266 C1280 0.929 . S
H1267 C1281 0.931 . S
H1268 C1283 0.930 . S
C1269 H1257 0.930 . S
C1269 C1270 1.399 . S
C1269 C1274 1.399 . S
C1270 C1269 1.399 . S
C1270 C1271 1.376 . S
C1271 H1258 0.930 . S
C1271 C1270 1.376 . S
C1271 C1272 1.388 . S
C1272 H1259 0.930 . S
C1272 C1271 1.388 . S
C1272 C1273 1.390 . S
C1273 C1272 1.390 . S
C1273 C1274 1.394 . S
C1273 C1279 1.465 1_545 S
C1274 C1269 1.399 . S
C1274 C1273 1.394 . S
C1274 C1275 1.516 1_545 S
C1275 C1274 1.516 1_565 S
C1275 C1276 1.502 1_554 S
C1275 C1277 1.561 1_564 S
C1275 C1278 1.526 . S
C1276 H1260 0.959 1_556 S
C1276 H1261 0.959 . S
C1276 H1262 0.961 . S
C1276 C1275 1.502 1_556 S
C1277 H1263 0.960 . S
C1277 H1264 0.961 . S
C1277 H1265 0.953 1_556 S
C1277 C1275 1.561 1_546 S
C1278 C1275 1.526 . S
C1278 C1279 1.396 . S
C1278 C1283 1.390 . S
C1279 C1273 1.465 1_565 S
C1279 C1278 1.396 . S
C1279 C1280 1.399 . S
C1280 H1266 0.929 . S
C1280 C1279 1.399 . S
C1280 C1281 1.385 . S
C1281 H1267 0.931 . S
C1281 C1280 1.385 . S
C1281 C1282 1.389 . S
C1282 C1281 1.389 . S
C1282 C1283 1.387 . S
C1283 H1268 0.930 . S
C1283 C1278 1.390 . S
C1283 C1282 1.387 . S
H1284 C1296 0.930 . S
H1285 C1298 0.930 . S
H1286 C1299 0.930 1_554 S
H1287 C1303 0.959 . S
H1288 C1303 0.959 . S
H1289 C1303 0.961 . S
H1290 C1304 0.960 . S
H1291 C1304 0.961 . S
H1292 C1304 0.959 . S
H1293 C1307 0.929 1_554 S
H1294 C1308 0.931 . S
H1295 C1310 0.930 . S
C1296 H1284 0.930 . S
C1296 C1297 1.399 . S
C1296 C1301 1.399 . S
C1297 C1296 1.399 . S
C1297 C1298 1.376 . S
C1298 H1285 0.930 . S
C1298 C1297 1.376 . S
C1298 C1299 1.388 . S
C1299 H1286 0.930 1_556 S
C1299 C1298 1.388 . S
C1299 C1300 1.390 . S
C1300 C1299 1.390 . S
C1300 C1301 1.394 . S
C1300 C1306 1.465 1_455 S
C1301 C1296 1.399 . S
C1301 C1300 1.394 . S
C1301 C1302 1.516 . S
C1302 C1301 1.516 . S
C1302 C1303 1.502 . S
C1302 C1304 1.561 1_455 S
C1302 C1305 1.526 1_455 S
C1303 H1287 0.959 . S
C1303 H1288 0.959 . S
C1303 H1289 0.961 . S
C1303 C1302 1.502 . S
C1304 H1290 0.960 . S
C1304 H1291 0.961 . S
C1304 H1292 0.959 . S
C1304 C1302 1.561 1_655 S
C1305 C1302 1.526 1_655 S
C1305 C1306 1.396 . S
C1305 C1310 1.390 . S
C1306 C1300 1.465 1_655 S
C1306 C1305 1.396 . S
C1306 C1307 1.399 . S
C1307 H1293 0.929 1_556 S
C1307 C1306 1.399 . S
C1307 C1308 1.385 . S
C1308 H1294 0.931 . S
C1308 C1307 1.385 . S
C1308 C1309 1.389 . S
C1309 C1308 1.389 . S
C1309 C1310 1.387 . S
C1310 H1295 0.930 . S
C1310 C1305 1.390 . S
C1310 C1309 1.387 . S
H1311 C1323 0.930 . S
H1312 C1325 0.930 . S
H1313 C1326 0.930 . S
H1314 C1330 0.959 . S
H1315 C1330 0.959 . S
H1316 C1330 0.961 . S
H1317 C1331 0.960 . S
H1318 C1331 0.961 . S
H1319 C1331 0.959 . S
H1320 C1334 0.929 . S
H1321 C1335 0.931 . S
H1322 C1337 0.930 . S
C1323 H1311 0.930 . S
C1323 C1324 1.399 . S
C1323 C1328 1.399 . S
C1324 C1323 1.399 . S
C1324 C1325 1.376 . S
C1325 H1312 0.930 . S
C1325 C1324 1.376 . S
C1325 C1326 1.388 . S
C1326 H1313 0.930 . S
C1326 C1325 1.388 . S
C1326 C1327 1.390 . S
C1327 C1326 1.390 . S
C1327 C1328 1.394 . S
C1327 C1333 1.465 . S
C1328 C1323 1.399 . S
C1328 C1327 1.394 . S
C1328 C1329 1.516 . S
C1329 C1328 1.516 . S
C1329 C1330 1.502 . S
C1329 C1331 1.561 . S
C1329 C1332 1.526 . S
C1330 H1314 0.959 . S
C1330 H1315 0.959 . S
C1330 H1316 0.961 . S
C1330 C1329 1.502 . S
C1331 H1317 0.960 . S
C1331 H1318 0.961 . S
C1331 H1319 0.959 . S
C1331 C1329 1.561 . S
C1332 C1329 1.526 . S
C1332 C1333 1.396 . S
C1332 C1337 1.390 . S
C1333 C1327 1.465 . S
C1333 C1332 1.396 . S
C1333 C1334 1.399 . S
C1334 H1320 0.929 . S
C1334 C1333 1.399 . S
C1334 C1335 1.385 . S
C1335 H1321 0.931 . S
C1335 C1334 1.385 . S
C1335 C1336 1.389 . S
C1336 C1335 1.389 . S
C1336 C1337 1.387 . S
C1337 H1322 0.930 . S
C1337 C1332 1.390 . S
C1337 C1336 1.387 . S
H1338 C1350 0.930 . S
H1339 C1352 0.930 . S
H1340 C1353 0.930 . S
H1341 C1357 0.959 . S
H1342 C1357 0.959 . S
H1343 C1357 0.961 . S
H1344 C1358 0.960 1_565 S
H1345 C1358 0.961 . S
H1346 C1358 0.959 . S
H1347 C1361 0.929 . S
H1348 C1362 0.931 . S
H1349 C1364 0.930 . S
C1350 H1338 0.930 . S
C1350 C1351 1.399 . S
C1350 C1355 1.399 . S
C1351 C1350 1.399 . S
C1351 C1352 1.376 . S
C1352 H1339 0.930 . S
C1352 C1351 1.376 . S
C1352 C1353 1.388 . S
C1353 H1340 0.930 . S
C1353 C1352 1.388 . S
C1353 C1354 1.390 . S
C1354 C1353 1.390 . S
C1354 C1355 1.394 . S
C1354 C1360 1.465 1_565 S
C1355 C1350 1.399 . S
C1355 C1354 1.394 . S
C1355 C1356 1.516 . S
C1356 C1355 1.516 . S
C1356 C1357 1.502 . S
C1356 C1358 1.561 1_565 S
C1356 C1359 1.526 1_565 S
C1357 H1341 0.959 . S
C1357 H1342 0.959 . S
C1357 H1343 0.961 . S
C1357 C1356 1.502 . S
C1358 H1344 0.960 1_545 S
C1358 H1345 0.961 . S
C1358 H1346 0.959 . S
C1358 C1356 1.561 1_545 S
C1359 C1356 1.526 1_545 S
C1359 C1360 1.396 . S
C1359 C1364 1.390 . S
C1360 C1354 1.465 1_545 S
C1360 C1359 1.396 . S
C1360 C1361 1.399 . S
C1361 H1347 0.929 . S
C1361 C1360 1.399 . S
C1361 C1362 1.385 . S
C1362 H1348 0.931 . S
C1362 C1361 1.385 . S
C1362 C1363 1.389 . S
C1363 C1362 1.389 . S
C1363 C1364 1.387 . S
C1364 H1349 0.930 . S
C1364 C1359 1.390 . S
C1364 C1363 1.387 . S
H1365 C1377 0.930 . S
H1366 C1379 0.930 . S
H1367 C1380 0.930 . S
H1368 C1384 0.959 . S
H1369 C1384 0.959 . S
H1370 C1384 0.961 . S
H1371 C1385 0.960 . S
H1372 C1385 0.961 . S
H1373 C1385 0.959 . S
H1374 C1388 0.929 . S
H1375 C1389 0.931 . S
H1376 C1391 0.930 . S
C1377 H1365 0.930 . S
C1377 C1378 1.399 . S
C1377 C1382 1.399 . S
C1378 C1377 1.399 . S
C1378 C1379 1.376 . S
C1379 H1366 0.930 . S
C1379 C1378 1.376 . S
C1379 C1380 1.388 . S
C1380 H1367 0.930 . S
C1380 C1379 1.388 . S
C1380 C1381 1.390 . S
C1381 C1380 1.390 . S
C1381 C1382 1.394 . S
C1381 C1387 1.465 1_445 S
C1382 C1377 1.399 . S
C1382 C1381 1.394 . S
C1382 C1383 1.514 1_455 S
C1383 C1382 1.514 1_655 S
C1383 C1384 1.464 1_645 S
C1383 C1385 1.603 . S
C1383 C1386 1.530 1_545 S
C1384 H1368 0.959 . S
C1384 H1369 0.959 . S
C1384 H1370 0.961 . S
C1384 C1383 1.464 1_465 S
C1385 H1371 0.960 . S
C1385 H1372 0.961 . S
C1385 H1373 0.959 . S
C1385 C1383 1.603 . S
C1386 C1383 1.530 1_565 S
C1386 C1387 1.396 . S
C1386 C1391 1.390 . S
C1387 C1381 1.465 1_665 S
C1387 C1386 1.396 . S
C1387 C1388 1.399 . S
C1388 H1374 0.929 . S
C1388 C1387 1.399 . S
C1388 C1389 1.385 . S
C1389 H1375 0.931 . S
C1389 C1388 1.385 . S
C1389 C1390 1.389 . S
C1390 C1389 1.389 . S
C1390 C1391 1.387 . S
C1391 H1376 0.930 . S
C1391 C1386 1.390 . S
C1391 C1390 1.387 . S
H1392 C1404 0.930 . S
H1393 C1406 0.930 . S
H1394 C1407 0.930 . S
H1395 C1411 0.959 . S
H1396 C1411 0.959 . S
H1397 C1411 0.961 . S
H1398 C1412 0.960 . S
H1399 C1412 0.961 . S
H1400 C1412 0.959 . S
H1401 C1415 0.929 . S
H1402 C1416 0.931 . S
H1403 C1418 0.930 . S
C1404 H1392 0.930 . S
C1404 C1405 1.399 . S
C1404 C1409 1.399 . S
C1405 C1404 1.399 . S
C1405 C1406 1.376 . S
C1406 H1393 0.930 . S
C1406 C1405 1.376 . S
C1406 C1407 1.388 . S
C1407 H1394 0.930 . S
C1407 C1406 1.388 . S
C1407 C1408 1.390 . S
C1408 C1407 1.390 . S
C1408 C1409 1.394 . S
C1408 C1414 1.465 . S
C1409 C1404 1.399 . S
C1409 C1408 1.394 . S
C1409 C1410 1.516 . S
C1410 C1409 1.516 . S
C1410 C1411 1.502 . S
C1410 C1412 1.561 . S
C1410 C1413 1.526 . S
C1411 H1395 0.959 . S
C1411 H1396 0.959 . S
C1411 H1397 0.961 . S
C1411 C1410 1.502 . S
C1412 H1398 0.960 . S
C1412 H1399 0.961 . S
C1412 H1400 0.959 . S
C1412 C1410 1.561 . S
C1413 C1410 1.526 . S
C1413 C1414 1.396 . S
C1413 C1418 1.390 . S
C1414 C1408 1.465 . S
C1414 C1413 1.396 . S
C1414 C1415 1.399 . S
C1415 H1401 0.929 . S
C1415 C1414 1.399 . S
C1415 C1416 1.385 . S
C1416 H1402 0.931 . S
C1416 C1415 1.385 . S
C1416 C1417 1.389 . S
C1417 C1416 1.389 . S
C1417 C1418 1.387 . S
C1418 H1403 0.930 . S
C1418 C1413 1.390 . S
C1418 C1417 1.387 . S
H1419 C1431 0.930 . S
H1420 C1433 0.930 . S
H1421 C1434 0.930 . S
H1422 C1438 0.959 . S
H1423 C1438 0.959 . S
H1424 C1438 0.961 . S
H1425 C1439 0.960 . S
H1426 C1439 0.961 . S
H1427 C1439 0.959 . S
H1428 C1442 0.929 . S
H1429 C1443 0.931 . S
H1430 C1445 0.930 . S
C1431 H1419 0.930 . S
C1431 C1432 1.399 . S
C1431 C1436 1.399 . S
C1432 C1431 1.399 . S
C1432 C1433 1.376 . S
C1433 H1420 0.930 . S
C1433 C1432 1.376 . S
C1433 C1434 1.388 . S
C1434 H1421 0.930 . S
C1434 C1433 1.388 . S
C1434 C1435 1.390 . S
C1435 C1434 1.390 . S
C1435 C1436 1.394 . S
C1435 C1441 1.465 . S
C1436 C1431 1.399 . S
C1436 C1435 1.394 . S
C1436 C1437 1.516 . S
C1437 C1436 1.516 . S
C1437 C1438 1.502 . S
C1437 C1439 1.561 . S
C1437 C1440 1.526 . S
C1438 H1422 0.959 . S
C1438 H1423 0.959 . S
C1438 H1424 0.961 . S
C1438 C1437 1.502 . S
C1439 H1425 0.960 . S
C1439 H1426 0.961 . S
C1439 H1427 0.959 . S
C1439 C1437 1.561 . S
C1440 C1437 1.526 . S
C1440 C1441 1.396 . S
C1440 C1445 1.390 . S
C1441 C1435 1.465 . S
C1441 C1440 1.396 . S
C1441 C1442 1.399 . S
C1442 H1428 0.929 . S
C1442 C1441 1.399 . S
C1442 C1443 1.385 . S
C1443 H1429 0.931 . S
C1443 C1442 1.385 . S
C1443 C1444 1.389 . S
C1444 C1443 1.389 . S
C1444 C1445 1.387 . S
C1445 H1430 0.930 . S
C1445 C1440 1.390 . S
C1445 C1444 1.387 . S
H1446 C1458 0.930 . S
H1447 C1460 0.930 . S
H1448 C1461 0.930 . S
H1449 C1465 0.959 . S
H1450 C1465 0.959 . S
H1451 C1465 0.961 . S
H1452 C1466 0.960 . S
H1453 C1466 0.961 . S
H1454 C1466 0.959 . S
H1455 C1469 0.929 . S
H1456 C1470 0.931 . S
H1457 C1472 0.930 . S
C1458 H1446 0.930 . S
C1458 C1459 1.399 . S
C1458 C1463 1.399 . S
C1459 C1458 1.399 . S
C1459 C1460 1.376 . S
C1460 H1447 0.930 . S
C1460 C1459 1.376 . S
C1460 C1461 1.388 . S
C1461 H1448 0.930 . S
C1461 C1460 1.388 . S
C1461 C1462 1.390 . S
C1462 C1461 1.390 . S
C1462 C1463 1.394 . S
C1462 C1468 1.465 . S
C1463 C1458 1.399 . S
C1463 C1462 1.394 . S
C1463 C1464 1.516 . S
C1464 C1463 1.516 . S
C1464 C1465 1.502 . S
C1464 C1466 1.561 . S
C1464 C1467 1.526 . S
C1465 H1449 0.959 . S
C1465 H1450 0.959 . S
C1465 H1451 0.961 . S
C1465 C1464 1.502 . S
C1466 H1452 0.960 . S
C1466 H1453 0.961 . S
C1466 H1454 0.959 . S
C1466 C1464 1.561 . S
C1467 C1464 1.526 . S
C1467 C1468 1.396 . S
C1467 C1472 1.390 . S
C1468 C1462 1.465 . S
C1468 C1467 1.396 . S
C1468 C1469 1.399 . S
C1469 H1455 0.929 . S
C1469 C1468 1.399 . S
C1469 C1470 1.385 . S
C1470 H1456 0.931 . S
C1470 C1469 1.385 . S
C1470 C1471 1.389 . S
C1471 C1470 1.389 . S
C1471 C1472 1.387 . S
C1472 H1457 0.930 . S
C1472 C1467 1.390 . S
C1472 C1471 1.387 . S
H1473 C1485 0.930 . S
H1474 C1487 0.930 . S
H1475 C1488 0.930 . S
H1476 C1492 0.959 . S
H1477 C1492 0.959 . S
H1478 C1492 0.961 . S
H1479 C1493 0.960 . S
H1480 C1493 0.961 . S
H1481 C1493 0.959 . S
H1482 C1496 0.929 . S
H1483 C1497 0.931 . S
H1484 C1499 0.930 . S
C1485 H1473 0.930 . S
C1485 C1486 1.399 . S
C1485 C1490 1.399 . S
C1486 C1485 1.399 . S
C1486 C1487 1.376 . S
C1487 H1474 0.930 . S
C1487 C1486 1.376 . S
C1487 C1488 1.388 . S
C1488 H1475 0.930 . S
C1488 C1487 1.388 . S
C1488 C1489 1.390 . S
C1489 C1488 1.390 . S
C1489 C1490 1.394 . S
C1489 C1495 1.465 . S
C1490 C1485 1.399 . S
C1490 C1489 1.394 . S
C1490 C1491 1.516 . S
C1491 C1490 1.516 . S
C1491 C1492 1.502 . S
C1491 C1493 1.561 . S
C1491 C1494 1.526 . S
C1492 H1476 0.959 . S
C1492 H1477 0.959 . S
C1492 H1478 0.961 . S
C1492 C1491 1.502 . S
C1493 H1479 0.960 . S
C1493 H1480 0.961 . S
C1493 H1481 0.959 . S
C1493 C1491 1.561 . S
C1494 C1491 1.526 . S
C1494 C1495 1.396 . S
C1494 C1499 1.390 . S
C1495 C1489 1.465 . S
C1495 C1494 1.396 . S
C1495 C1496 1.399 . S
C1496 H1482 0.929 . S
C1496 C1495 1.399 . S
C1496 C1497 1.385 . S
C1497 H1483 0.931 . S
C1497 C1496 1.385 . S
C1497 C1498 1.389 . S
C1498 C1497 1.389 . S
C1498 C1499 1.387 . S
C1499 H1484 0.930 . S
C1499 C1494 1.390 . S
C1499 C1498 1.387 . S
H1500 C1512 0.930 . S
H1501 C1514 0.930 . S
H1502 C1515 0.930 . S
H1503 C1519 0.959 . S
H1504 C1519 0.959 . S
H1505 C1519 0.961 . S
H1506 C1520 0.960 . S
H1507 C1520 0.961 . S
H1508 C1520 0.959 . S
H1509 C1523 0.929 . S
H1510 C1524 0.931 . S
H1511 C1526 0.930 . S
C1512 H1500 0.930 . S
C1512 C1513 1.399 . S
C1512 C1517 1.399 . S
C1513 C1512 1.399 . S
C1513 C1514 1.376 . S
C1514 H1501 0.930 . S
C1514 C1513 1.376 . S
C1514 C1515 1.388 . S
C1515 H1502 0.930 . S
C1515 C1514 1.388 . S
C1515 C1516 1.390 . S
C1516 C1515 1.390 . S
C1516 C1517 1.394 . S
C1516 C1522 1.465 . S
C1517 C1512 1.399 . S
C1517 C1516 1.394 . S
C1517 C1518 1.516 . S
C1518 C1517 1.516 . S
C1518 C1519 1.502 . S
C1518 C1520 1.561 . S
C1518 C1521 1.526 . S
C1519 H1503 0.959 . S
C1519 H1504 0.959 . S
C1519 H1505 0.961 . S
C1519 C1518 1.502 . S
C1520 H1506 0.960 . S
C1520 H1507 0.961 . S
C1520 H1508 0.959 . S
C1520 C1518 1.561 . S
C1521 C1518 1.526 . S
C1521 C1522 1.396 . S
C1521 C1526 1.390 . S
C1522 C1516 1.465 . S
C1522 C1521 1.396 . S
C1522 C1523 1.399 . S
C1523 H1509 0.929 . S
C1523 C1522 1.399 . S
C1523 C1524 1.385 . S
C1524 H1510 0.931 . S
C1524 C1523 1.385 . S
C1524 C1525 1.389 . S
C1525 C1524 1.389 . S
C1525 C1526 1.387 . S
C1526 H1511 0.930 . S
C1526 C1521 1.390 . S
C1526 C1525 1.387 . S
H1527 C1539 0.930 . S
H1528 C1541 0.930 . S
H1529 C1542 0.930 . S
H1530 C1546 0.959 . S
H1531 C1546 0.959 . S
H1532 C1546 0.961 . S
H1533 C1547 0.960 . S
H1534 C1547 0.961 . S
H1535 C1547 0.959 . S
H1536 C1550 0.929 . S
H1537 C1551 0.931 . S
H1538 C1553 0.930 . S
C1539 H1527 0.930 . S
C1539 C1540 1.399 . S
C1539 C1544 1.399 . S
C1540 C1539 1.399 . S
C1540 C1541 1.376 . S
C1541 H1528 0.930 . S
C1541 C1540 1.376 . S
C1541 C1542 1.388 . S
C1542 H1529 0.930 . S
C1542 C1541 1.388 . S
C1542 C1543 1.390 . S
C1543 C1542 1.390 . S
C1543 C1544 1.394 . S
C1543 C1549 1.465 . S
C1544 C1539 1.399 . S
C1544 C1543 1.394 . S
C1544 C1545 1.516 . S
C1545 C1544 1.516 . S
C1545 C1546 1.502 . S
C1545 C1547 1.561 . S
C1545 C1548 1.526 . S
C1546 H1530 0.959 . S
C1546 H1531 0.959 . S
C1546 H1532 0.961 . S
C1546 C1545 1.502 . S
C1547 H1533 0.960 . S
C1547 H1534 0.961 . S
C1547 H1535 0.959 . S
C1547 C1545 1.561 . S
C1548 C1545 1.526 . S
C1548 C1549 1.396 . S
C1548 C1553 1.390 . S
C1549 C1543 1.465 . S
C1549 C1548 1.396 . S
C1549 C1550 1.399 . S
C1550 H1536 0.929 . S
C1550 C1549 1.399 . S
C1550 C1551 1.385 . S
C1551 H1537 0.931 . S
C1551 C1550 1.385 . S
C1551 C1552 1.389 . S
C1552 C1551 1.389 . S
C1552 C1553 1.387 . S
C1553 H1538 0.930 . S
C1553 C1548 1.390 . S
C1553 C1552 1.387 . S
H1554 C1566 0.930 . S
H1555 C1568 0.930 . S
H1556 C1569 0.930 . S
H1557 C1573 0.959 . S
H1558 C1573 0.959 . S
H1559 C1573 0.961 . S
H1560 C1574 0.960 . S
H1561 C1574 0.961 . S
H1562 C1574 0.959 . S
H1563 C1577 0.929 . S
H1564 C1578 0.931 . S
H1565 C1580 0.930 . S
C1566 H1554 0.930 . S
C1566 C1567 1.399 . S
C1566 C1571 1.399 . S
C1567 C1566 1.399 . S
C1567 C1568 1.376 . S
C1568 H1555 0.930 . S
C1568 C1567 1.376 . S
C1568 C1569 1.388 . S
C1569 H1556 0.930 . S
C1569 C1568 1.388 . S
C1569 C1570 1.390 . S
C1570 C1569 1.390 . S
C1570 C1571 1.394 . S
C1570 C1576 1.465 . S
C1571 C1566 1.399 . S
C1571 C1570 1.394 . S
C1571 C1572 1.516 . S
C1572 C1571 1.516 . S
C1572 C1573 1.502 . S
C1572 C1574 1.561 . S
C1572 C1575 1.526 . S
C1573 H1557 0.959 . S
C1573 H1558 0.959 . S
C1573 H1559 0.961 . S
C1573 C1572 1.502 . S
C1574 H1560 0.960 . S
C1574 H1561 0.961 . S
C1574 H1562 0.959 . S
C1574 C1572 1.561 . S
C1575 C1572 1.526 . S
C1575 C1576 1.396 . S
C1575 C1580 1.390 . S
C1576 C1570 1.465 . S
C1576 C1575 1.396 . S
C1576 C1577 1.399 . S
C1577 H1563 0.929 . S
C1577 C1576 1.399 . S
C1577 C1578 1.385 . S
C1578 H1564 0.931 . S
C1578 C1577 1.385 . S
C1578 C1579 1.389 . S
C1579 C1578 1.389 . S
C1579 C1580 1.387 . S
C1580 H1565 0.930 . S
C1580 C1575 1.390 . S
C1580 C1579 1.387 . S
H1581 C1593 0.930 . S
H1582 C1595 0.930 . S
H1583 C1596 0.930 . S
H1584 C1600 0.959 . S
H1585 C1600 0.959 . S
H1586 C1600 0.961 . S
H1587 C1601 0.960 . S
H1588 C1601 0.961 . S
H1589 C1601 0.959 . S
H1590 C1604 0.929 . S
H1591 C1605 0.931 . S
H1592 C1607 0.930 . S
C1593 H1581 0.930 . S
C1593 C1594 1.399 . S
C1593 C1598 1.399 . S
C1594 C1593 1.399 . S
C1594 C1595 1.376 . S
C1595 H1582 0.930 . S
C1595 C1594 1.376 . S
C1595 C1596 1.388 . S
C1596 H1583 0.930 . S
C1596 C1595 1.388 . S
C1596 C1597 1.390 . S
C1597 C1596 1.390 . S
C1597 C1598 1.394 . S
C1597 C1603 1.465 . S
C1598 C1593 1.399 . S
C1598 C1597 1.394 . S
C1598 C1599 1.516 . S
C1599 C1598 1.516 . S
C1599 C1600 1.502 . S
C1599 C1601 1.561 . S
C1599 C1602 1.526 . S
C1600 H1584 0.959 . S
C1600 H1585 0.959 . S
C1600 H1586 0.961 . S
C1600 C1599 1.502 . S
C1601 H1587 0.960 . S
C1601 H1588 0.961 . S
C1601 H1589 0.959 . S
C1601 C1599 1.561 . S
C1602 C1599 1.526 . S
C1602 C1603 1.396 . S
C1602 C1607 1.390 . S
C1603 C1597 1.465 . S
C1603 C1602 1.396 . S
C1603 C1604 1.399 . S
C1604 H1590 0.929 . S
C1604 C1603 1.399 . S
C1604 C1605 1.385 . S
C1605 H1591 0.931 . S
C1605 C1604 1.385 . S
C1605 C1606 1.389 . S
C1606 C1605 1.389 . S
C1606 C1607 1.387 . S
C1607 H1592 0.930 . S
C1607 C1602 1.390 . S
C1607 C1606 1.387 . S
C541 N2 0.477 . S
C553 N431 0.403 . S
C568 N464 0.454 . S
C580 N35 0.421 . S
C595 N497 0.379 . S
C607 N68 0.609 . S
C622 N398 0.605 . S
C634 N101 0.608 . S
C649 N365 0.367 . S
C661 N134 0.589 . S
C676 N266 0.459 . S
C688 N167 0.417 . S
C703 N200 0.451 . S
C715 N299 0.424 . S
C730 N332 0.596 . S
C742 N233 0.615 . S
C757 C304 2.013 . S
C769 N13 2.098 . S
C784 N46 2.085 . S
C796 C337 1.987 . S
C811 N79 2.083 . S
C823 C370 1.971 . S
C838 N112 2.088 . S
C850 C271 1.941 . S
C865 N145 2.091 . S
C877 C502 2.004 . S
C892 C403 1.990 . S
C904 N178 2.111 . S
C919 C436 1.980 . S
C931 N211 2.084 . S
C946 C469 1.956 . S
C958 N244 2.083 . S
C973 N277 2.097 . S
C985 C40 2.012 . S
C1000 N310 2.111 . S
C1012 C73 1.984 . S
C1027 N343 2.110 . S
C1039 C106 1.978 . S
C1054 C7 2.000 . S
C1066 N376 2.110 . S
C1081 N409 2.084 . S
C1093 C238 1.979 . S
C1108 C139 1.987 . S
C1120 N442 2.111 . S
C1135 N475 2.083 . S
C1147 C172 1.974 . S
C1162 N508 2.110 . S
C1174 C205 1.974 . S
C1189 C21 1.273 . S
C1201 C351 1.266 . S
C1216 C384 1.275 . S
C1228 C54 1.270 . S
C1243 C87 1.276 . S
C1255 C285 1.277 . S
C1270 C318 1.227 . S
C1282 C120 1.232 . S
C1297 C153 1.276 . S
C1309 C483 1.270 . S
C1324 C516 1.275 . S
C1336 C186 1.269 . S
C1351 C417 1.229 . S
C1363 C219 1.236 . S
C1378 C450 1.226 . S
C1390 C252 1.230 . S
C1405 C216 0.652 . S
C1417 C18 0.488 . S
C1432 C51 0.500 . S
C1444 C249 0.624 . S
C1459 C150 0.605 . S
C1471 C84 0.656 . S
C1486 C117 0.488 . S
C1498 C183 0.645 . S
C1513 C282 0.569 . S
C1525 C480 0.677 . S
C1540 C315 0.483 . S
C1552 C513 0.665 . S
C1567 C348 0.555 . S
C1579 C414 0.682 . S
C1594 C447 0.485 . S
C1606 C381 0.653 . S
