# Generated by pormake.
# Topology ulg, (4)-cn, num edge types: 1
# Building blocks:
#     Node 0, Type 0, BuildingBlock: AZAVOO_clean_sbu_0, # of connection points: 4
#     Node 1, Type 0, BuildingBlock: AZAVOO_clean_sbu_0, # of connection points: 4
#     Node 2, Type 0, BuildingBlock: AZAVOO_clean_sbu_0, # of connection points: 4
#     Node 3, Type 0, BuildingBlock: AZAVOO_clean_sbu_0, # of connection points: 4
#     Node 4, Type 0, BuildingBlock: AZAVOO_clean_sbu_0, # of connection points: 4
#     Node 5, Type 0, BuildingBlock: AZAVOO_clean_sbu_0, # of connection points: 4
#     Node 6, Type 0, BuildingBlock: AZAVOO_clean_sbu_0, # of connection points: 4
#     Node 7, Type 0, BuildingBlock: AZAVOO_clean_sbu_0, # of connection points: 4
#     Node 8, Type 0, BuildingBlock: AZAVOO_clean_sbu_0, # of connection points: 4
#     Node 9, Type 0, BuildingBlock: AZAVOO_clean_sbu_0, # of connection points: 4
#     Node 10, Type 0, BuildingBlock: AZAVOO_clean_sbu_0, # of connection points: 4
#     Node 11, Type 0, BuildingBlock: AZAVOO_clean_sbu_0, # of connection points: 4
#     Node 12, Type 0, BuildingBlock: AZAVOO_clean_sbu_0, # of connection points: 4
#     Node 13, Type 0, BuildingBlock: AZAVOO_clean_sbu_0, # of connection points: 4
#     Node 14, Type 0, BuildingBlock: AZAVOO_clean_sbu_0, # of connection points: 4
#     Node 15, Type 0, BuildingBlock: AZAVOO_clean_sbu_0, # of connection points: 4
#     Node 16, Type 0, BuildingBlock: AZAVOO_clean_sbu_0, # of connection points: 4
#     Node 17, Type 0, BuildingBlock: AZAVOO_clean_sbu_0, # of connection points: 4
#     Node 18, Type 0, BuildingBlock: AZAVOO_clean_sbu_0, # of connection points: 4
#     Node 19, Type 0, BuildingBlock: AZAVOO_clean_sbu_0, # of connection points: 4
#     Node 20, Type 0, BuildingBlock: AZAVOO_clean_sbu_0, # of connection points: 4
#     Node 21, Type 0, BuildingBlock: AZAVOO_clean_sbu_0, # of connection points: 4
#     Node 22, Type 0, BuildingBlock: AZAVOO_clean_sbu_0, # of connection points: 4
#     Node 23, Type 0, BuildingBlock: AZAVOO_clean_sbu_0, # of connection points: 4
#     Node 24, Type 0, BuildingBlock: AZAVOO_clean_sbu_0, # of connection points: 4
#     Node 25, Type 0, BuildingBlock: AZAVOO_clean_sbu_0, # of connection points: 4
#     Node 26, Type 0, BuildingBlock: AZAVOO_clean_sbu_0, # of connection points: 4
#     Node 27, Type 0, BuildingBlock: AZAVOO_clean_sbu_0, # of connection points: 4
#     Node 28, Type 0, BuildingBlock: AZAVOO_clean_sbu_0, # of connection points: 4
#     Node 29, Type 0, BuildingBlock: AZAVOO_clean_sbu_0, # of connection points: 4
#     Node 30, Type 0, BuildingBlock: AZAVOO_clean_sbu_0, # of connection points: 4
#     Node 31, Type 0, BuildingBlock: AZAVOO_clean_sbu_0, # of connection points: 4
#     Node 32, Type 0, BuildingBlock: AZAVOO_clean_sbu_0, # of connection points: 4
#     Node 33, Type 0, BuildingBlock: AZAVOO_clean_sbu_0, # of connection points: 4
#     Node 34, Type 0, BuildingBlock: AZAVOO_clean_sbu_0, # of connection points: 4
#     Node 35, Type 0, BuildingBlock: AZAVOO_clean_sbu_0, # of connection points: 4
#     Node 36, Type 0, BuildingBlock: AZAVOO_clean_sbu_0, # of connection points: 4
#     Node 37, Type 0, BuildingBlock: AZAVOO_clean_sbu_0, # of connection points: 4
#     Node 38, Type 0, BuildingBlock: AZAVOO_clean_sbu_0, # of connection points: 4
#     Node 39, Type 0, BuildingBlock: AZAVOO_clean_sbu_0, # of connection points: 4
#     Node 40, Type 0, BuildingBlock: AZAVOO_clean_sbu_0, # of connection points: 4
#     Node 41, Type 0, BuildingBlock: AZAVOO_clean_sbu_0, # of connection points: 4
#     Node 42, Type 0, BuildingBlock: AZAVOO_clean_sbu_0, # of connection points: 4
#     Node 43, Type 0, BuildingBlock: AZAVOO_clean_sbu_0, # of connection points: 4
#     Node 44, Type 0, BuildingBlock: AZAVOO_clean_sbu_0, # of connection points: 4
#     Node 45, Type 0, BuildingBlock: AZAVOO_clean_sbu_0, # of connection points: 4
#     Node 46, Type 0, BuildingBlock: AZAVOO_clean_sbu_0, # of connection points: 4
#     Node 47, Type 0, BuildingBlock: AZAVOO_clean_sbu_0, # of connection points: 4
#     Node 48, Type 0, BuildingBlock: AZAVOO_clean_sbu_0, # of connection points: 4
#     Node 49, Type 0, BuildingBlock: AZAVOO_clean_sbu_0, # of connection points: 4
#     Node 50, Type 0, BuildingBlock: AZAVOO_clean_sbu_0, # of connection points: 4
#     Node 51, Type 0, BuildingBlock: AZAVOO_clean_sbu_0, # of connection points: 4
#     Node 52, Type 0, BuildingBlock: AZAVOO_clean_sbu_0, # of connection points: 4
#     Node 53, Type 0, BuildingBlock: AZAVOO_clean_sbu_0, # of connection points: 4
#     Node 54, Type 0, BuildingBlock: AZAVOO_clean_sbu_0, # of connection points: 4
#     Node 55, Type 0, BuildingBlock: AZAVOO_clean_sbu_0, # of connection points: 4
#     Node 56, Type 0, BuildingBlock: AZAVOO_clean_sbu_0, # of connection points: 4
#     Node 57, Type 0, BuildingBlock: AZAVOO_clean_sbu_0, # of connection points: 4
#     Node 58, Type 0, BuildingBlock: AZAVOO_clean_sbu_0, # of connection points: 4
#     Node 59, Type 0, BuildingBlock: AZAVOO_clean_sbu_0, # of connection points: 4
#     Node 60, Type 0, BuildingBlock: AZAVOO_clean_sbu_0, # of connection points: 4
#     Node 61, Type 0, BuildingBlock: AZAVOO_clean_sbu_0, # of connection points: 4
#     Node 62, Type 0, BuildingBlock: AZAVOO_clean_sbu_0, # of connection points: 4
#     Node 63, Type 0, BuildingBlock: AZAVOO_clean_sbu_0, # of connection points: 4
#     Node 64, Type 0, BuildingBlock: AZAVOO_clean_sbu_0, # of connection points: 4
#     Node 65, Type 0, BuildingBlock: AZAVOO_clean_sbu_0, # of connection points: 4
#     Node 66, Type 0, BuildingBlock: AZAVOO_clean_sbu_0, # of connection points: 4
#     Node 67, Type 0, BuildingBlock: AZAVOO_clean_sbu_0, # of connection points: 4
#     Node 68, Type 0, BuildingBlock: AZAVOO_clean_sbu_0, # of connection points: 4
#     Node 69, Type 0, BuildingBlock: AZAVOO_clean_sbu_0, # of connection points: 4
#     Node 70, Type 0, BuildingBlock: AZAVOO_clean_sbu_0, # of connection points: 4
#     Node 71, Type 0, BuildingBlock: AZAVOO_clean_sbu_0, # of connection points: 4
#     Node 72, Type 0, BuildingBlock: AZAVOO_clean_sbu_0, # of connection points: 4
#     Node 73, Type 0, BuildingBlock: AZAVOO_clean_sbu_0, # of connection points: 4
#     Node 74, Type 0, BuildingBlock: AZAVOO_clean_sbu_0, # of connection points: 4
#     Node 75, Type 0, BuildingBlock: AZAVOO_clean_sbu_0, # of connection points: 4
#     Node 76, Type 0, BuildingBlock: AZAVOO_clean_sbu_0, # of connection points: 4
#     Node 77, Type 0, BuildingBlock: AZAVOO_clean_sbu_0, # of connection points: 4
#     Node 78, Type 0, BuildingBlock: AZAVOO_clean_sbu_0, # of connection points: 4
#     Node 79, Type 0, BuildingBlock: AZAVOO_clean_sbu_0, # of connection points: 4
#     Node 80, Type 0, BuildingBlock: AZAVOO_clean_sbu_0, # of connection points: 4
#     Node 81, Type 0, BuildingBlock: AZAVOO_clean_sbu_0, # of connection points: 4
#     Node 82, Type 0, BuildingBlock: AZAVOO_clean_sbu_0, # of connection points: 4
#     Node 83, Type 0, BuildingBlock: AZAVOO_clean_sbu_0, # of connection points: 4
#     Node 84, Type 0, BuildingBlock: AZAVOO_clean_sbu_0, # of connection points: 4
#     Node 85, Type 0, BuildingBlock: AZAVOO_clean_sbu_0, # of connection points: 4
#     Node 86, Type 0, BuildingBlock: AZAVOO_clean_sbu_0, # of connection points: 4
#     Node 87, Type 0, BuildingBlock: AZAVOO_clean_sbu_0, # of connection points: 4
#     Node 88, Type 0, BuildingBlock: AZAVOO_clean_sbu_0, # of connection points: 4
#     Node 89, Type 0, BuildingBlock: AZAVOO_clean_sbu_0, # of connection points: 4
#     Node 90, Type 0, BuildingBlock: AZAVOO_clean_sbu_0, # of connection points: 4
#     Node 91, Type 0, BuildingBlock: AZAVOO_clean_sbu_0, # of connection points: 4
#     Node 92, Type 0, BuildingBlock: AZAVOO_clean_sbu_0, # of connection points: 4
#     Node 93, Type 0, BuildingBlock: AZAVOO_clean_sbu_0, # of connection points: 4
#     Node 94, Type 0, BuildingBlock: AZAVOO_clean_sbu_0, # of connection points: 4
#     Node 95, Type 0, BuildingBlock: AZAVOO_clean_sbu_0, # of connection points: 4
#     Edge 96, Type (0, 0), None
#     Edge 97, Type (0, 0), None
#     Edge 98, Type (0, 0), None
#     Edge 99, Type (0, 0), None
#     Edge 100, Type (0, 0), None
#     Edge 101, Type (0, 0), None
#     Edge 102, Type (0, 0), None
#     Edge 103, Type (0, 0), None
#     Edge 104, Type (0, 0), None
#     Edge 105, Type (0, 0), None
#     Edge 106, Type (0, 0), None
#     Edge 107, Type (0, 0), None
#     Edge 108, Type (0, 0), None
#     Edge 109, Type (0, 0), None
#     Edge 110, Type (0, 0), None
#     Edge 111, Type (0, 0), None
#     Edge 112, Type (0, 0), None
#     Edge 113, Type (0, 0), None
#     Edge 114, Type (0, 0), None
#     Edge 115, Type (0, 0), None
#     Edge 116, Type (0, 0), None
#     Edge 117, Type (0, 0), None
#     Edge 118, Type (0, 0), None
#     Edge 119, Type (0, 0), None
#     Edge 120, Type (0, 0), None
#     Edge 121, Type (0, 0), None
#     Edge 122, Type (0, 0), None
#     Edge 123, Type (0, 0), None
#     Edge 124, Type (0, 0), None
#     Edge 125, Type (0, 0), None
#     Edge 126, Type (0, 0), None
#     Edge 127, Type (0, 0), None
#     Edge 128, Type (0, 0), None
#     Edge 129, Type (0, 0), None
#     Edge 130, Type (0, 0), None
#     Edge 131, Type (0, 0), None
#     Edge 132, Type (0, 0), None
#     Edge 133, Type (0, 0), None
#     Edge 134, Type (0, 0), None
#     Edge 135, Type (0, 0), None
#     Edge 136, Type (0, 0), None
#     Edge 137, Type (0, 0), None
#     Edge 138, Type (0, 0), None
#     Edge 139, Type (0, 0), None
#     Edge 140, Type (0, 0), None
#     Edge 141, Type (0, 0), None
#     Edge 142, Type (0, 0), None
#     Edge 143, Type (0, 0), None
#     Edge 144, Type (0, 0), None
#     Edge 145, Type (0, 0), None
#     Edge 146, Type (0, 0), None
#     Edge 147, Type (0, 0), None
#     Edge 148, Type (0, 0), None
#     Edge 149, Type (0, 0), None
#     Edge 150, Type (0, 0), None
#     Edge 151, Type (0, 0), None
#     Edge 152, Type (0, 0), None
#     Edge 153, Type (0, 0), None
#     Edge 154, Type (0, 0), None
#     Edge 155, Type (0, 0), None
#     Edge 156, Type (0, 0), None
#     Edge 157, Type (0, 0), None
#     Edge 158, Type (0, 0), None
#     Edge 159, Type (0, 0), None
#     Edge 160, Type (0, 0), None
#     Edge 161, Type (0, 0), None
#     Edge 162, Type (0, 0), None
#     Edge 163, Type (0, 0), None
#     Edge 164, Type (0, 0), None
#     Edge 165, Type (0, 0), None
#     Edge 166, Type (0, 0), None
#     Edge 167, Type (0, 0), None
#     Edge 168, Type (0, 0), None
#     Edge 169, Type (0, 0), None
#     Edge 170, Type (0, 0), None
#     Edge 171, Type (0, 0), None
#     Edge 172, Type (0, 0), None
#     Edge 173, Type (0, 0), None
#     Edge 174, Type (0, 0), None
#     Edge 175, Type (0, 0), None
#     Edge 176, Type (0, 0), None
#     Edge 177, Type (0, 0), None
#     Edge 178, Type (0, 0), None
#     Edge 179, Type (0, 0), None
#     Edge 180, Type (0, 0), None
#     Edge 181, Type (0, 0), None
#     Edge 182, Type (0, 0), None
#     Edge 183, Type (0, 0), None
#     Edge 184, Type (0, 0), None
#     Edge 185, Type (0, 0), None
#     Edge 186, Type (0, 0), None
#     Edge 187, Type (0, 0), None
#     Edge 188, Type (0, 0), None
#     Edge 189, Type (0, 0), None
#     Edge 190, Type (0, 0), None
#     Edge 191, Type (0, 0), None
#     Edge 192, Type (0, 0), None
#     Edge 193, Type (0, 0), None
#     Edge 194, Type (0, 0), None
#     Edge 195, Type (0, 0), None
#     Edge 196, Type (0, 0), None
#     Edge 197, Type (0, 0), None
#     Edge 198, Type (0, 0), None
#     Edge 199, Type (0, 0), None
#     Edge 200, Type (0, 0), None
#     Edge 201, Type (0, 0), None
#     Edge 202, Type (0, 0), None
#     Edge 203, Type (0, 0), None
#     Edge 204, Type (0, 0), None
#     Edge 205, Type (0, 0), None
#     Edge 206, Type (0, 0), None
#     Edge 207, Type (0, 0), None
#     Edge 208, Type (0, 0), None
#     Edge 209, Type (0, 0), None
#     Edge 210, Type (0, 0), None
#     Edge 211, Type (0, 0), None
#     Edge 212, Type (0, 0), None
#     Edge 213, Type (0, 0), None
#     Edge 214, Type (0, 0), None
#     Edge 215, Type (0, 0), None
#     Edge 216, Type (0, 0), None
#     Edge 217, Type (0, 0), None
#     Edge 218, Type (0, 0), None
#     Edge 219, Type (0, 0), None
#     Edge 220, Type (0, 0), None
#     Edge 221, Type (0, 0), None
#     Edge 222, Type (0, 0), None
#     Edge 223, Type (0, 0), None
#     Edge 224, Type (0, 0), None
#     Edge 225, Type (0, 0), None
#     Edge 226, Type (0, 0), None
#     Edge 227, Type (0, 0), None
#     Edge 228, Type (0, 0), None
#     Edge 229, Type (0, 0), None
#     Edge 230, Type (0, 0), None
#     Edge 231, Type (0, 0), None
#     Edge 232, Type (0, 0), None
#     Edge 233, Type (0, 0), None
#     Edge 234, Type (0, 0), None
#     Edge 235, Type (0, 0), None
#     Edge 236, Type (0, 0), None
#     Edge 237, Type (0, 0), None
#     Edge 238, Type (0, 0), None
#     Edge 239, Type (0, 0), None
#     Edge 240, Type (0, 0), None
#     Edge 241, Type (0, 0), None
#     Edge 242, Type (0, 0), None
#     Edge 243, Type (0, 0), None
#     Edge 244, Type (0, 0), None
#     Edge 245, Type (0, 0), None
#     Edge 246, Type (0, 0), None
#     Edge 247, Type (0, 0), None
#     Edge 248, Type (0, 0), None
#     Edge 249, Type (0, 0), None
#     Edge 250, Type (0, 0), None
#     Edge 251, Type (0, 0), None
#     Edge 252, Type (0, 0), None
#     Edge 253, Type (0, 0), None
#     Edge 254, Type (0, 0), None
#     Edge 255, Type (0, 0), None
#     Edge 256, Type (0, 0), None
#     Edge 257, Type (0, 0), None
#     Edge 258, Type (0, 0), None
#     Edge 259, Type (0, 0), None
#     Edge 260, Type (0, 0), None
#     Edge 261, Type (0, 0), None
#     Edge 262, Type (0, 0), None
#     Edge 263, Type (0, 0), None
#     Edge 264, Type (0, 0), None
#     Edge 265, Type (0, 0), None
#     Edge 266, Type (0, 0), None
#     Edge 267, Type (0, 0), None
#     Edge 268, Type (0, 0), None
#     Edge 269, Type (0, 0), None
#     Edge 270, Type (0, 0), None
#     Edge 271, Type (0, 0), None
#     Edge 272, Type (0, 0), None
#     Edge 273, Type (0, 0), None
#     Edge 274, Type (0, 0), None
#     Edge 275, Type (0, 0), None
#     Edge 276, Type (0, 0), None
#     Edge 277, Type (0, 0), None
#     Edge 278, Type (0, 0), None
#     Edge 279, Type (0, 0), None
#     Edge 280, Type (0, 0), None
#     Edge 281, Type (0, 0), None
#     Edge 282, Type (0, 0), None
#     Edge 283, Type (0, 0), None
#     Edge 284, Type (0, 0), None
#     Edge 285, Type (0, 0), None
#     Edge 286, Type (0, 0), None
#     Edge 287, Type (0, 0), None
# Relax obj value: 0.393
# Max RMSD: 0.194
# Mean RMSD: 0.194
data_MOF--net-ulg--node1-AZAVOO_clean_sbu_0--edge1-none
_symmetry_space_group_name_H-M    P1
_symmetry_Int_Tables_number       1
_symmetry_cell_setting            triclinic
loop_
_symmetry_equiv_pos_as_xyz
'x, y, z'
_cell_length_a     41.558936
_cell_length_b     41.543292
_cell_length_c     41.490819
_cell_angle_alpha  89.963069
_cell_angle_beta   90.007503
_cell_angle_gamma 90.056002
loop_
_atom_site_label
_atom_site_type_symbol
_atom_site_fract_x
_atom_site_fract_y
_atom_site_fract_z
_atom_type_partial_charge
Mg0 Mg 0.10601 0.52759 0.17203 0.0
O1 O 0.071 0.56335 0.15311 0.0
O2 O 0.10398 0.60497 0.15669 0.0
Mg3 Mg 0.16029 0.59614 0.16622 0.0
C4 C 0.07603 0.59306 0.15074 0.0
C5 C 0.03103 0.51488 0.20248 0.0
O6 O 1.01143 0.495 0.21734 0.0
O7 O 0.11772 0.55492 0.2212 0.0
O8 O 0.16755 0.55992 0.20605 0.0
O9 O 0.11587 0.52789 0.11523 0.0
O10 O 0.14736 0.55033 0.14887 0.0
C11 C 0.14709 0.56158 0.22821 0.0
C12 C 0.13912 0.54759 0.12013 0.0
O13 O 0.05913 0.50461 0.19439 0.0
Mg14 Mg 0.77504 0.36194 0.41969 0.0
O15 O 0.73347 0.32866 0.41081 0.0
O16 O 0.69094 0.3609 0.41377 0.0
Mg17 Mg 0.70015 0.41682 0.42159 0.0
C18 C 0.70343 0.33295 0.40962 0.0
C19 C 0.79512 0.28539 0.44299 0.0
O20 O 0.8182 0.26656 0.45346 0.0
O21 O 0.76351 0.37459 0.47328 0.0
O22 O 0.74958 0.41379 0.4431 0.0
O23 O 0.76806 0.37168 0.36485 0.0
O24 O 0.74697 0.40289 0.40106 0.0
C25 C 0.75103 0.40257 0.47131 0.0
C26 C 0.74815 0.39447 0.37178 0.0
O27 O 0.80248 0.3144 0.43472 0.0
Mg28 Mg 0.94741 1.02056 0.67117 0.0
O29 O 0.98163 0.9825 0.65547 0.0
O30 O 0.94895 0.9406 0.6593 0.0
Mg31 Mg 0.89282 0.95261 0.66553 0.0
C32 C 0.97697 0.95263 0.65406 0.0
C33 C 1.02277 0.03603 0.70038 0.0
O34 O 0.04157 0.05696 0.71477 0.0
O35 O 0.93387 0.99637 0.72148 0.0
O36 O 0.8845 0.98902 0.70514 0.0
O37 O 0.93988 1.01991 0.6144 0.0
O38 O 0.90714 0.99788 0.64761 0.0
C39 C 0.90439 0.98946 0.72793 0.0
C40 C 0.91635 1.00033 0.61907 0.0
O41 O 0.99411 0.04487 0.69259 0.0
Mg42 Mg 0.27941 0.19493 0.91832 0.0
O43 O 0.32144 0.22728 0.90842 0.0
O44 O 0.36349 0.1945 0.91203 0.0
Mg45 Mg 0.35348 0.13888 0.92104 0.0
C46 C 0.3514 0.22253 0.90728 0.0
C47 C 0.26013 0.27272 0.93927 0.0
O48 O 0.23709 0.29184 0.94924 0.0
O49 O 0.29123 0.18309 0.97212 0.0
O50 O 0.30422 0.14301 0.94275 0.0
O51 O 0.28588 0.18384 0.86368 0.0
O52 O 0.30673 0.15312 0.9005 0.0
C53 C 0.30319 0.15483 0.9707 0.0
C54 C 0.30547 0.16089 0.87103 0.0
O55 O 0.25277 0.24338 0.93223 0.0
Mg56 Mg 0.11048 0.52258 0.89299 0.0
O57 O 0.07735 0.48353 0.90816 0.0
O58 O 0.10994 0.44209 0.90073 0.0
Mg59 Mg 0.16563 0.45489 0.8926 0.0
C60 C 0.08219 0.45366 0.9079 0.0
C61 C 0.03342 0.53956 0.86678 0.0
O62 O 1.0157 0.56122 0.85218 0.0
O63 O 0.12242 0.50109 0.84104 0.0
O64 O 0.1726 0.49307 0.85439 0.0
O65 O 0.12054 0.51888 0.94946 0.0
O66 O 0.15195 0.4991 0.91383 0.0
C67 C 0.15157 0.49486 0.83272 0.0
C68 C 0.14408 0.49996 0.94287 0.0
O69 O 0.0627 0.54708 0.87381 0.0
Mg70 Mg 0.78087 0.35285 0.13411 0.0
O71 O 0.82326 0.32096 0.14484 0.0
O72 O 0.86483 0.35462 0.14306 0.0
Mg73 Mg 0.854 0.41015 0.13381 0.0
C74 C 0.8531 0.32629 0.14715 0.0
C75 C 0.76201 0.27527 0.11281 0.0
O76 O 0.73926 0.25592 0.10252 0.0
O77 O 0.79393 0.36511 0.08068 0.0
O78 O 0.80526 0.40484 0.11117 0.0
O79 O 0.7862 0.36352 0.18888 0.0
O80 O 0.80725 0.39487 0.15269 0.0
C81 C 0.80566 0.39341 0.08303 0.0
C82 C 0.80575 0.38669 0.18201 0.0
O83 O 0.75445 0.30458 0.11951 0.0
Mg84 Mg 0.94587 0.03018 0.38883 0.0
O85 O 0.97666 0.07254 0.40098 0.0
O86 O 0.94333 0.11408 0.39645 0.0
Mg87 Mg 0.88827 0.10321 0.38457 0.0
C88 C 0.97131 0.10238 0.40241 0.0
C89 C 1.0245 1.01416 0.36766 0.0
O90 O 0.04349 0.99251 0.35477 0.0
O91 O 0.9356 0.04232 0.335 0.0
O92 O 0.89423 0.05409 0.36304 0.0
O93 O 0.93211 0.03636 0.44314 0.0
O94 O 0.9025 0.05643 0.40526 0.0
C95 C 0.90702 0.0534 0.33549 0.0
C96 C 0.90906 0.05542 0.43497 0.0
O97 O 0.99528 1.00582 0.37415 0.0
Mg98 Mg 0.27519 0.19895 0.63353 0.0
O99 O 0.23302 0.23161 0.64337 0.0
O100 O 0.19102 0.19846 0.64127 0.0
Mg101 Mg 0.20132 0.14278 0.6327 0.0
C102 C 0.20307 0.22666 0.64529 0.0
C103 C 0.29432 0.27491 0.6097 0.0
O104 O 0.31678 0.2944 0.59901 0.0
O105 O 0.26288 0.18681 0.58008 0.0
O106 O 0.25043 0.14753 0.61077 0.0
O107 O 0.26901 0.18909 0.68834 0.0
O108 O 0.24795 0.1576 0.65229 0.0
C109 C 0.25048 0.15884 0.58257 0.0
C110 C 0.24915 0.16618 0.68151 0.0
O111 O 0.30245 0.24624 0.61815 0.0
Mg112 Mg 0.16529 0.10619 0.53365 0.0
O113 O 0.15128 0.07256 0.57298 0.0
O114 O 0.15593 0.10609 0.61416 0.0
Mg115 Mg 0.16092 0.16199 0.60057 0.0
C116 C 0.15072 0.07779 0.60284 0.0
C117 C 0.19568 0.03107 0.51849 0.0
O118 O 0.21121 1.01305 0.49772 0.0
O119 O 0.21597 0.12083 0.55611 0.0
O120 O 0.20006 0.17038 0.56361 0.0
O121 O 0.1085 0.11283 0.5359 0.0
O122 O 0.1418 0.14653 0.55616 0.0
C123 C 0.2227 0.15039 0.56238 0.0
C124 C 0.11338 0.13683 0.55482 0.0
O125 O 0.18728 0.05959 0.50971 0.0
Mg126 Mg 0.19631 0.42434 0.77502 0.0
O127 O 0.2317 0.41023 0.81389 0.0
O128 O 0.20001 0.41251 0.85687 0.0
Mg129 Mg 0.14432 0.42424 0.85185 0.0
C130 C 0.22759 0.40733 0.84389 0.0
C131 C 0.27113 0.44938 0.75539 0.0
O132 O 0.29079 0.46028 0.73316 0.0
O133 O 0.18646 0.47718 0.79118 0.0
O134 O 0.14601 0.44783 0.80319 0.0
O135 O 0.1836 0.36966 0.77971 0.0
O136 O 0.15529 0.4061 0.80369 0.0
C137 C 0.15861 0.47544 0.80396 0.0
C138 C 0.16208 0.37665 0.80093 0.0
O139 O 0.24273 0.44038 0.74682 0.0
Mg140 Mg 0.89061 0.44758 0.03476 0.0
O141 O 0.90386 0.48094 0.07434 0.0
O142 O 0.89909 0.4474 0.11551 0.0
Mg143 Mg 0.89442 0.39143 0.10184 0.0
C144 C 0.90421 0.47574 0.10419 0.0
C145 C 0.86275 0.52412 1.01782 0.0
O146 O 0.84802 0.54177 0.99615 0.0
O147 O 0.83956 0.4323 0.05663 0.0
O148 O 0.8563 0.383 0.06385 0.0
O149 O 0.94733 0.44107 0.03789 0.0
O150 O 0.91383 0.4072 0.05764 0.0
C151 C 0.8333 0.40258 0.06282 0.0
C152 C 0.94225 0.41699 0.0567 0.0
O153 O 0.86984 0.49484 1.01041 0.0
Mg154 Mg 0.85629 0.13434 0.27961 0.0
O155 O 0.82042 0.15197 0.31535 0.0
O156 O 0.85322 0.14873 0.35716 0.0
Mg157 Mg 0.90969 0.13983 0.34945 0.0
C158 C 0.82523 0.15424 0.34515 0.0
C159 C 0.78227 0.10274 0.26515 0.0
O160 O 0.76324 0.08786 0.24475 0.0
O161 O 0.86846 0.08493 0.30602 0.0
O162 O 0.91757 0.10203 0.31128 0.0
O163 O 0.8657 0.19112 0.28083 0.0
O164 O 0.89697 0.15749 0.30357 0.0
C165 C 0.89803 0.07906 0.31276 0.0
C166 C 0.8886 0.18615 0.30093 0.0
O167 O 0.81027 0.11171 0.25532 0.0
Mg168 Mg 0.17111 0.94381 0.53037 0.0
O169 O 0.16033 0.97784 0.48939 0.0
O170 O 0.1639 0.94648 0.44612 0.0
Mg171 Mg 0.17433 0.89071 0.4542 0.0
C172 C 0.15881 0.97403 0.45921 0.0
C173 C 0.19301 1.01952 0.55215 0.0
O174 O 0.20387 0.03817 0.57522 0.0
O175 O 0.22489 0.93396 0.5181 0.0
O176 O 0.1956 0.89428 0.50377 0.0
O177 O 0.11683 0.93211 0.52343 0.0
O178 O 0.15407 0.90287 0.5014 0.0
C179 C 0.22341 0.90643 0.50466 0.0
C180 C 0.1246 0.91024 0.50277 0.0
O181 O 0.18493 0.99048 0.55938 0.0
Mg182 Mg 0.35595 0.42166 0.7757 0.0
O183 O 0.32071 0.40384 0.73947 0.0
O184 O 0.35363 0.40823 0.69786 0.0
Mg185 Mg 0.40997 0.41596 0.70704 0.0
C186 C 0.3256 0.40246 0.70964 0.0
C187 C 0.28116 0.45188 0.78955 0.0
O188 O 0.26164 0.46609 0.80992 0.0
O189 O 0.36803 0.4711 0.74888 0.0
O190 O 0.4177 0.45563 0.74329 0.0
O191 O 0.36491 0.36492 0.77553 0.0
O192 O 0.39673 0.39822 0.75277 0.0
C193 C 0.39739 0.4779 0.74188 0.0
C194 C 0.38811 0.36959 0.75565 0.0
O195 O 0.30934 0.44363 0.79948 0.0
Mg196 Mg 0.88712 0.61317 1.02728 0.0
O197 O 0.8973 0.57901 0.98638 0.0
O198 O 0.89306 0.61047 0.9432 0.0
Mg199 Mg 0.88255 0.66609 0.95104 0.0
C200 C 0.8984 0.58292 0.95619 0.0
C201 C 0.86584 0.53715 0.05093 0.0
O202 O 0.85501 0.51962 0.07488 0.0
O203 O 0.83305 0.62265 1.01566 0.0
O204 O 0.86095 0.66306 1.00054 0.0
O205 O 0.94143 0.62524 1.0199 0.0
O206 O 0.90384 0.65406 0.99794 0.0
C207 C 0.83348 0.65028 1.00229 0.0
C208 C 0.93342 0.64712 0.99931 0.0
O209 O 0.87377 0.56654 0.05685 0.0
Mg210 Mg 0.69643 0.1286 0.28039 0.0
O211 O 0.73092 0.14193 0.2407 0.0
O212 O 0.69846 0.13906 0.19833 0.0
Mg213 Mg 0.64263 0.1288 0.2054 0.0
C214 C 0.72634 0.14408 0.21072 0.0
C215 C 0.77213 0.10482 0.29931 0.0
O216 O 0.79211 0.09455 0.32154 0.0
O217 O 0.68609 0.07566 0.26414 0.0
O218 O 0.64469 0.10402 0.25348 0.0
O219 O 0.68493 0.18351 0.27611 0.0
O220 O 0.65529 0.14755 0.25281 0.0
C221 C 0.65787 0.07678 0.25204 0.0
C222 C 0.66282 0.17687 0.25535 0.0
O223 O 0.7435 0.11301 0.30789 0.0
Mg224 Mg 0.52666 0.16998 0.10973 0.0
O225 O 0.56814 0.16011 0.07641 0.0
O226 O 0.61082 0.16244 0.10861 0.0
Mg227 Mg 0.60137 0.1702 0.16466 0.0
C228 C 0.59818 0.15851 0.08064 0.0
C229 C 0.50716 0.19317 0.03342 0.0
O230 O 0.48455 0.20344 1.01389 0.0
O231 O 0.53974 0.22329 0.122 0.0
O232 O 0.55238 0.19258 0.1612 0.0
O233 O 0.53247 0.11516 0.11933 0.0
O234 O 0.55428 0.15088 0.15068 0.0
C235 C 0.5524 0.22075 0.1499 0.0
C236 C 0.55265 0.12173 0.14206 0.0
O237 O 0.49919 0.18513 0.06233 0.0
Mg238 Mg 0.03497 0.88585 0.44615 0.0
O239 O 0.07347 0.90061 0.48009 0.0
O240 O 0.11548 0.8947 0.44785 0.0
Mg241 Mg 0.10357 0.88908 0.39169 0.0
C242 C 0.10341 0.90065 0.47571 0.0
C243 C 1.01839 0.85841 0.52223 0.0
O244 O 0.99703 0.84458 0.54099 0.0
O245 O 0.05756 0.83484 0.4333 0.0
O246 O 0.06524 0.8512 0.38397 0.0
O247 O 0.03671 0.94232 0.43828 0.0
O248 O 0.05861 0.90853 0.40592 0.0
C249 C 0.06459 0.82839 0.40383 0.0
C250 C 0.05649 0.93717 0.41499 0.0
O251 O 1.00998 0.86582 0.49328 0.0
Mg252 Mg 0.41455 0.27984 0.70054 0.0
O253 O 0.39773 0.31728 0.73507 0.0
O254 O 0.40379 0.35811 0.70139 0.0
Mg255 Mg 0.4123 0.34783 0.6453 0.0
C256 C 0.39727 0.34703 0.72958 0.0
C257 C 0.44378 0.2645 0.77614 0.0
O258 O 0.45895 0.24375 0.79452 0.0
O259 O 0.46508 0.30462 0.68863 0.0
O260 O 0.45102 0.31046 0.63843 0.0
O261 O 0.35791 0.2822 0.69043 0.0
O262 O 0.3926 0.30311 0.65896 0.0
C263 C 0.47285 0.31095 0.65931 0.0
C264 C 0.36374 0.30146 0.66698 0.0
O265 O 0.43579 0.25568 0.74748 0.0
Mg266 Mg 1.02513 0.66913 0.94259 0.0
O267 O 0.98448 0.65785 0.9764 0.0
O268 O 0.94188 0.66253 0.94444 0.0
Mg269 Mg 0.95092 0.67196 0.88857 0.0
C270 C 0.95441 0.65708 0.9722 0.0
C271 C 0.04576 0.69124 1.01893 0.0
O272 O 0.0687 0.70134 0.03816 0.0
O273 O 1.01152 0.72286 0.93253 0.0
O274 O 0.99911 0.69673 0.88998 0.0
O275 O 1.01943 0.61433 0.93168 0.0
O276 O 0.99725 0.65088 0.90171 0.0
C277 C 0.99992 0.72357 0.90404 0.0
C278 C 0.999 0.6215 0.90938 0.0
O279 O 0.05328 0.68338 0.98987 0.0
Mg280 Mg 0.13426 0.77454 0.1917 0.0
O281 O 0.14667 0.73389 0.22486 0.0
O282 O 0.14254 0.69072 0.19358 0.0
Mg283 Mg 0.13168 0.69898 0.13783 0.0
C284 C 0.14814 0.70381 0.22106 0.0
C285 C 0.11206 0.79295 0.26868 0.0
O286 O 0.09984 0.81489 0.28782 0.0
O287 O 0.08071 0.7612 0.18178 0.0
O288 O 0.10911 0.74789 0.14108 0.0
O289 O 0.18866 0.76886 0.17942 0.0
O290 O 0.15167 0.74656 0.15007 0.0
C291 C 0.08153 0.74878 0.15371 0.0
C292 C 0.18118 0.74842 0.15726 0.0
O293 O 0.1194 0.80128 0.23965 0.0
Mg294 Mg 0.52535 0.88703 0.10709 0.0
O295 O 0.48305 0.8962 0.07466 0.0
O296 O 0.44119 0.89365 0.10787 0.0
Mg297 Mg 0.45167 0.88576 0.16376 0.0
C298 C 0.45311 0.89765 0.07959 0.0
C299 C 0.54409 0.86416 0.02995 0.0
O300 O 0.56681 0.85385 1.01061 0.0
O301 O 0.51353 0.83363 0.1203 0.0
O302 O 0.50111 0.86456 0.15937 0.0
O303 O 0.51857 0.94176 0.11704 0.0
O304 O 0.49824 0.90558 0.14878 0.0
C305 C 0.50159 0.83622 0.14851 0.0
C306 C 0.49911 0.93478 0.14025 0.0
O307 O 0.5519 0.87198 0.05898 0.0
Mg308 Mg 0.41929 0.27664 0.86364 0.0
O309 O 0.40777 0.23607 0.82953 0.0
O310 O 0.41158 0.19267 0.86066 0.0
Mg311 Mg 0.42255 0.20008 0.91641 0.0
C312 C 0.40621 0.20592 0.83321 0.0
C313 C 0.44098 0.29816 0.78758 0.0
O314 O 0.45134 0.32124 0.76864 0.0
O315 O 0.47306 0.26405 0.87312 0.0
O316 O 0.44435 0.24939 0.91317 0.0
O317 O 0.36502 0.27024 0.87589 0.0
O318 O 0.40232 0.24762 0.90469 0.0
C319 C 0.47201 0.25064 0.90074 0.0
C320 C 0.37275 0.24945 0.89768 0.0
O321 O 0.43296 0.30546 0.81666 0.0
Mg322 Mg 0.63618 0.27689 0.36752 0.0
O323 O 0.6466 0.31691 0.33232 0.0
O324 O 0.64235 0.36085 0.3626 0.0
Mg325 Mg 0.63192 0.35449 0.41856 0.0
C326 C 0.6477 0.34715 0.33538 0.0
C327 C 0.61508 0.25213 0.29196 0.0
O328 O 0.60477 0.22798 0.27444 0.0
O329 O 0.58221 0.28885 0.37703 0.0
O330 O 0.61086 0.3048 0.41662 0.0
O331 O 0.69041 0.28443 0.37931 0.0
O332 O 0.65287 0.30711 0.40773 0.0
C333 C 0.58316 0.30289 0.40434 0.0
C334 C 0.68244 0.30556 0.40065 0.0
O335 O 0.62304 0.24644 0.32142 0.0
Mg336 Mg 0.10849 1.0244 0.67274 0.0
O337 O 0.07272 0.06344 0.66015 0.0
O338 O 0.10438 0.10639 0.66319 0.0
Mg339 Mg 0.16025 0.10105 0.67361 0.0
C340 C 0.07673 0.0935 0.65813 0.0
C341 C 0.03405 1.00235 0.6976 0.0
O342 O 1.01551 0.9794 0.70891 0.0
O343 O 0.11866 0.03981 0.72592 0.0
O344 O 0.1592 0.05229 0.69698 0.0
O345 O 0.12006 0.02992 0.61783 0.0
O346 O 0.14885 0.05354 0.65427 0.0
C347 C 0.14644 0.05283 0.72452 0.0
C348 C 0.14156 0.05117 0.62485 0.0
O349 O 0.06275 0.99499 0.68858 0.0
Mg350 Mg 0.77507 0.85846 0.92062 0.0
O351 O 0.73327 0.8251 0.91202 0.0
O352 O 0.69084 0.85759 0.91384 0.0
Mg353 Mg 0.70058 0.91362 0.92101 0.0
C354 C 0.70324 0.82951 0.91033 0.0
C355 C 0.79534 0.78266 0.94479 0.0
O356 O 0.81821 0.76374 0.95555 0.0
O357 O 0.76313 0.87183 0.97396 0.0
O358 O 0.74996 0.91029 0.94258 0.0
O359 O 0.76812 0.86699 0.86568 0.0
O360 O 0.74719 0.89905 0.90127 0.0
C361 C 0.75052 0.89966 0.97104 0.0
C362 C 0.74812 0.88982 0.87225 0.0
O363 O 0.80288 0.81153 0.93634 0.0
Mg364 Mg 0.94632 0.52919 0.17404 0.0
O365 O 0.98172 0.4901 0.16151 0.0
O366 O 0.95009 0.44716 0.1646 0.0
Mg367 Mg 0.89414 0.45273 0.17473 0.0
C368 C 0.97775 0.46006 0.15959 0.0
C369 C 1.02117 0.54899 0.19916 0.0
O370 O 0.04095 0.57135 0.20951 0.0
O371 O 0.93557 0.514 0.22716 0.0
O372 O 0.89534 0.50162 0.19773 0.0
O373 O 0.93497 0.52349 0.11915 0.0
O374 O 0.90567 0.50033 0.1555 0.0
C375 C 0.90769 0.50123 0.22546 0.0
C376 C 0.91325 0.50245 0.12612 0.0
O377 O 0.99281 0.55746 0.18992 0.0
Mg378 Mg 0.27847 0.69707 0.42206 0.0
O379 O 0.32014 0.73049 0.41239 0.0
O380 O 0.36254 0.69795 0.41414 0.0
Mg381 Mg 0.35297 0.64202 0.4221 0.0
C382 C 0.35015 0.72601 0.41041 0.0
C383 C 0.25816 0.77277 0.44592 0.0
O384 O 0.23542 0.79166 0.45698 0.0
O385 O 0.29122 0.68449 0.47541 0.0
O386 O 0.30397 0.64554 0.4445 0.0
O387 O 0.28447 0.68793 0.36714 0.0
O388 O 0.30612 0.65638 0.4028 0.0
C389 C 0.30382 0.65663 0.47278 0.0
C390 C 0.30465 0.66524 0.37368 0.0
O391 O 0.25056 0.74388 0.43766 0.0
Mg392 Mg 0.11246 0.02867 0.39266 0.0
O393 O 0.07844 0.98906 0.40604 0.0
O394 O 0.11051 0.94707 0.39852 0.0
Mg395 Mg 0.16586 0.9539 0.3864 0.0
C396 C 0.083 0.95909 0.40581 0.0
C397 C 0.03609 0.048 0.36887 0.0
O398 O 1.01809 0.07031 0.35568 0.0
O399 O 0.12095 1.01454 0.33889 0.0
O400 O 0.16461 1.00287 0.36335 0.0
O401 O 0.12667 1.02168 0.44713 0.0
O402 O 0.15442 1.00016 0.40895 0.0
C403 C 0.1495 1.00343 0.33708 0.0
C404 C 0.14844 1.00136 0.43869 0.0
O405 O 0.06496 0.05578 0.37726 0.0
Mg406 Mg 0.77595 0.86013 0.6377 0.0
O407 O 0.815 0.82542 0.65137 0.0
O408 O 0.85741 0.85736 0.64576 0.0
Mg409 Mg 0.85168 0.91287 0.63409 0.0
C410 C 0.84499 0.82978 0.6522 0.0
C411 C 0.75593 0.78367 0.61562 0.0
O412 O 0.73319 0.76412 0.60571 0.0
O413 O 0.79126 0.86903 0.58416 0.0
O414 O 0.80318 0.91176 0.61017 0.0
O415 O 0.78152 0.87345 0.69226 0.0
O416 O 0.80455 0.90154 0.65493 0.0
C417 C 0.80317 0.89738 0.58347 0.0
C418 C 0.80237 0.89512 0.68458 0.0
O419 O 0.74803 0.81263 0.6235 0.0
Mg420 Mg 0.94354 0.52831 0.88954 0.0
O421 O 0.97661 0.56999 0.89955 0.0
O422 O 0.94445 0.61239 0.89402 0.0
Mg423 Mg 0.88901 0.60325 0.8838 0.0
C424 C 0.97218 0.60007 0.89982 0.0
C425 C 1.02061 0.50631 0.86935 0.0
O426 O 0.03863 0.48263 0.8589 0.0
O427 O 0.93384 0.5395 0.83528 0.0
O428 O 0.89297 0.5536 0.86295 0.0
O429 O 0.93104 0.53579 0.94381 0.0
O430 O 0.90192 0.55678 0.90583 0.0
C431 C 0.90591 0.55218 0.83552 0.0
C432 C 0.90877 0.55577 0.93552 0.0
O433 O 0.99112 0.49999 0.87666 0.0
Mg434 Mg 0.2746 0.69409 0.13678 0.0
O435 O 0.23255 0.72638 0.14664 0.0
O436 O 0.19049 0.69355 0.14273 0.0
Mg437 Mg 0.20025 0.63797 0.13345 0.0
C438 C 0.20258 0.72159 0.14763 0.0
C439 C 0.2944 0.77206 0.11634 0.0
O440 O 0.31768 0.79108 0.10663 0.0
O441 O 0.26298 0.68244 0.08292 0.0
O442 O 0.2498 0.64251 0.11253 0.0
O443 O 0.26779 0.68235 0.19128 0.0
O444 O 0.24707 0.65203 0.15409 0.0
C445 C 0.25087 0.65423 0.0845 0.0
C446 C 0.24823 0.65945 0.18364 0.0
O447 O 0.30147 0.74262 0.12327 0.0
Mg448 Mg 0.16816 0.602 0.0307 0.0
O449 O 0.15046 0.56786 0.06802 0.0
O450 O 0.15449 0.60203 0.10861 0.0
Mg451 Mg 0.16289 0.65809 0.09782 0.0
C452 C 0.14867 0.57367 0.09765 0.0
C453 C 0.19772 0.52595 1.01834 0.0
O454 O 0.21216 0.5065 0.99805 0.0
O455 O 0.21783 0.61556 0.05664 0.0
O456 O 0.20216 0.66537 0.06098 0.0
O457 O 0.11137 0.61133 0.03131 0.0
O458 O 0.145 0.6437 0.05252 0.0
C459 C 0.22458 0.64523 0.06243 0.0
C460 C 0.11631 0.63524 0.05021 0.0
O461 O 0.19009 0.55438 1.0085 0.0
Mg462 Mg 0.19557 0.9198 0.28044 0.0
O463 O 0.23153 0.90151 0.31588 0.0
O464 O 0.19935 0.90682 0.35794 0.0
Mg465 Mg 0.14321 0.91602 0.35088 0.0
C466 C 0.22705 0.9004 0.3458 0.0
C467 C 0.26996 0.95009 0.265 0.0
O468 O 0.28903 0.96446 0.24426 0.0
O469 O 0.18523 0.96967 0.30673 0.0
O470 O 0.13543 0.95517 0.31402 0.0
O471 O 0.18478 0.86329 0.28095 0.0
O472 O 0.15482 0.89743 0.30479 0.0
C473 C 0.15623 0.97708 0.31441 0.0
C474 C 0.1623 0.86854 0.30147 0.0
O475 O 0.24179 0.94132 0.25546 0.0
Mg476 Mg 0.88954 0.9442 0.53022 0.0
O477 O 0.90689 0.97919 0.56692 0.0
O478 O 0.90006 0.94626 0.60823 0.0
Mg479 Mg 0.89059 0.89033 0.59964 0.0
C480 C 0.90709 0.97413 0.59676 0.0
C481 C 0.86162 1.02036 0.51341 0.0
O482 O 0.84732 0.03843 0.49179 0.0
O483 O 0.83866 0.93328 0.55496 0.0
O484 O 0.85208 0.88309 0.56202 0.0
O485 O 0.946 0.93273 0.53245 0.0
O486 O 0.91077 0.90263 0.55441 0.0
C487 C 0.83051 0.90421 0.56189 0.0
C488 C 0.93986 0.90974 0.55216 0.0
O489 O 0.8694 0.99141 0.50536 0.0
Mg490 Mg 0.85824 0.63582 0.77928 0.0
O491 O 0.82242 0.65367 0.8151 0.0
O492 O 0.85475 0.64883 0.8571 0.0
Mg493 Mg 0.91105 0.64087 0.84873 0.0
C494 C 0.82693 0.65483 0.84501 0.0
C495 C 0.78386 0.60508 0.76448 0.0
O496 O 0.76463 0.5908 0.74385 0.0
O497 O 0.86969 0.58608 0.80575 0.0
O498 O 0.9195 0.60077 0.81308 0.0
O499 O 0.86789 0.69253 0.77956 0.0
O500 O 0.8989 0.6589 0.8028 0.0
C501 C 0.8988 0.57876 0.8132 0.0
C502 C 0.8908 0.68765 0.79971 0.0
O503 O 0.81197 0.61387 0.75478 0.0
Mg504 Mg 0.17152 0.44013 0.03126 0.0
O505 O 0.15652 0.47613 0.99345 0.0
O506 O 0.16091 0.4456 0.94986 0.0
Mg507 Mg 0.17422 0.39028 0.95307 0.0
C508 C 0.15449 0.47266 0.96334 0.0
C509 C 0.19438 0.51543 0.05234 0.0
O510 O 0.20451 0.5349 0.07507 0.0
O511 O 0.22477 0.43243 1.01528 0.0
O512 O 0.19778 0.39081 1.00178 0.0
O513 O 0.1173 0.42563 1.02608 0.0
O514 O 0.15474 0.39924 1.00144 0.0
C515 C 0.22474 0.40471 1.00206 0.0
C516 C 0.12504 0.40482 1.00442 0.0
O517 O 0.18587 0.48667 0.06033 0.0
Mg518 Mg 0.35625 0.92534 0.2804 0.0
O519 O 0.32183 0.91078 0.24101 0.0
O520 O 0.35412 0.91351 0.19851 0.0
Mg521 Mg 0.40969 0.92574 0.20484 0.0
C522 C 0.3264 0.90799 0.21109 0.0
C523 C 0.28025 0.94845 0.29916 0.0
O524 O 0.2603 0.95888 0.32132 0.0
O525 O 0.36582 0.97833 0.26404 0.0
O526 O 0.4072 0.95005 0.2531 0.0
O527 O 0.36921 0.87073 0.27614 0.0
O528 O 0.39785 0.90735 0.25266 0.0
C529 C 0.39403 0.97734 0.25194 0.0
C530 C 0.39108 0.87786 0.25529 0.0
O531 O 0.30897 0.94056 0.30776 0.0
Mg532 Mg 0.88311 0.11027 0.52703 0.0
O533 O 0.89551 0.07749 0.4858 0.0
O534 O 0.89202 0.10977 0.44322 0.0
Mg535 Mg 0.88001 0.16511 0.45165 0.0
C536 C 0.89756 0.08205 0.45578 0.0
C537 C 0.86334 0.03241 0.54704 0.0
O538 O 0.85344 1.01332 0.57021 0.0
O539 O 0.82939 0.12005 0.51382 0.0
O540 O 0.85803 0.16072 0.50083 0.0
O541 O 0.9373 0.12398 0.52141 0.0
O542 O 0.89968 0.15257 0.49932 0.0
C543 C 0.83037 0.14821 0.50153 0.0
C544 C 0.92938 0.14631 0.50133 0.0
O545 O 0.86996 0.06188 0.55422 0.0
Mg546 Mg 0.698 0.63015 0.77977 0.0
O547 O 0.73262 0.64518 0.74051 0.0
O548 O 0.70032 0.64276 0.69801 0.0
Mg549 Mg 0.64488 0.63011 0.70365 0.0
C550 C 0.72802 0.64827 0.71061 0.0
C551 C 0.77374 0.60681 0.79867 0.0
O552 O 0.79372 0.5963 0.82077 0.0
O553 O 0.68856 0.5773 0.76321 0.0
O554 O 0.6476 0.60619 0.75211 0.0
O555 O 0.68437 0.68463 0.77577 0.0
O556 O 0.65631 0.64791 0.75184 0.0
C557 C 0.66048 0.57875 0.75087 0.0
C558 C 0.66266 0.67745 0.7548 0.0
O559 O 0.7451 0.61486 0.80734 0.0
Mg560 Mg 0.52918 0.66994 0.60538 0.0
O561 O 0.57178 0.66148 0.57342 0.0
O562 O 0.61344 0.66344 0.60693 0.0
Mg563 Mg 0.6024 0.67077 0.66281 0.0
C564 C 0.60167 0.65986 0.57852 0.0
C565 C 0.51089 0.69247 0.52779 0.0
O566 O 0.48822 0.70283 0.50839 0.0
O567 O 0.54056 0.72325 0.61938 0.0
O568 O 0.5529 0.69171 0.65804 0.0
O569 O 0.53637 0.61519 0.61461 0.0
O570 O 0.55607 0.65107 0.6471 0.0
C571 C 0.55233 0.72023 0.64764 0.0
C572 C 0.5556 0.62202 0.63806 0.0
O573 O 0.50309 0.6851 0.55696 0.0
Mg574 Mg 0.03052 0.38391 0.95187 0.0
O575 O 0.07341 0.39324 0.98334 0.0
O576 O 0.11463 0.39162 0.94928 0.0
Mg577 Mg 0.10305 0.38364 0.89361 0.0
C578 C 0.10321 0.39527 0.97781 0.0
C579 C 1.01299 0.36167 0.02979 0.0
O580 O 0.99054 0.35096 0.04928 0.0
O581 O 0.04243 0.33064 0.93822 0.0
O582 O 0.05391 0.36191 0.89907 0.0
O583 O 0.03683 0.43872 0.94204 0.0
O584 O 0.05668 0.40284 0.9097 0.0
C585 C 0.05384 0.33351 0.9098 0.0
C586 C 0.05587 0.43197 0.91843 0.0
O587 O 1.00501 0.36867 1.00058 0.0
Mg588 Mg 0.41773 0.7864 0.20267 0.0
O589 O 0.40241 0.82604 0.235 0.0
O590 O 0.4064 0.86658 0.20064 0.0
Mg591 Mg 0.41251 0.8521 0.14498 0.0
C592 C 0.40115 0.8557 0.22915 0.0
C593 C 0.4447 0.77278 0.28012 0.0
O594 O 0.45881 0.75199 0.29928 0.0
O595 O 0.46821 0.80969 0.18779 0.0
O596 O 0.45172 0.81502 0.13811 0.0
O597 O 0.3611 0.78713 0.19495 0.0
O598 O 0.39447 0.80751 0.1613 0.0
C599 C 0.47455 0.81534 0.15795 0.0
C600 C 0.36593 0.80561 0.17054 0.0
O601 O 0.43835 0.76404 0.251 0.0
Mg602 Mg 1.02289 0.17083 0.44835 0.0
O603 O 0.98063 0.15959 0.48021 0.0
O604 O 0.93892 0.16216 0.44678 0.0
Mg605 Mg 0.94899 0.17296 0.39141 0.0
C606 C 0.95078 0.15733 0.47495 0.0
C607 C 0.04163 0.19115 0.52645 0.0
O608 O 0.06439 0.20145 0.54579 0.0
O609 O 1.01065 0.22444 0.43692 0.0
O610 O 0.99814 0.19463 0.39693 0.0
O611 O 1.01708 0.11645 0.43631 0.0
O612 O 0.99605 0.15345 0.40592 0.0
C613 C 0.99881 0.22266 0.40859 0.0
C614 C 0.99751 0.12396 0.41337 0.0
O615 O 0.04918 0.18464 0.49703 0.0
Mg616 Mg 0.13538 0.281 0.68997 0.0
O617 O 0.14957 0.24332 0.72651 0.0
O618 O 0.14379 0.19995 0.6959 0.0
Mg619 Mg 0.13082 0.20332 0.64048 0.0
C620 C 0.15059 0.21317 0.72303 0.0
C621 C 0.11265 0.30458 0.76477 0.0
O622 O 0.10182 0.32804 0.78289 0.0
O623 O 0.0818 0.26539 0.68304 0.0
O624 O 0.10667 0.25172 0.64017 0.0
O625 O 0.18969 0.27519 0.67562 0.0
O626 O 0.1519 0.25077 0.64951 0.0
C627 C 0.08041 0.25224 0.65529 0.0
C628 C 0.18163 0.25346 0.65497 0.0
O629 O 0.12137 0.31132 0.73575 0.0
Mg630 Mg 0.52551 0.38512 0.61327 0.0
O631 O 0.48456 0.39559 0.57937 0.0
O632 O 0.44156 0.39193 0.61101 0.0
Mg633 Mg 0.44982 0.38281 0.6669 0.0
C634 C 0.45445 0.39675 0.5833 0.0
C635 C 0.54672 0.36315 0.53704 0.0
O636 O 0.56987 0.35341 0.51792 0.0
O637 O 0.51281 0.33141 0.62392 0.0
O638 O 0.49884 0.36039 0.66401 0.0
O639 O 0.51951 0.43968 0.62413 0.0
O640 O 0.49704 0.4031 0.65408 0.0
C641 C 0.49981 0.33266 0.65174 0.0
C642 C 0.49895 0.43251 0.64634 0.0
O643 O 0.55401 0.37116 0.56613 0.0
Mg644 Mg 0.41708 0.78186 0.36609 0.0
O645 O 0.40325 0.74434 0.32917 0.0
O646 O 0.40939 0.7007 0.35937 0.0
Mg647 Mg 0.42255 0.70356 0.41478 0.0
C648 C 0.40243 0.71415 0.33239 0.0
C649 C 0.44038 0.8062 0.29187 0.0
O650 O 0.45127 0.82982 0.27394 0.0
O651 O 0.47082 0.7671 0.37283 0.0
O652 O 0.44578 0.75242 0.41529 0.0
O653 O 0.36288 0.77507 0.38053 0.0
O654 O 0.40102 0.75091 0.40631 0.0
C655 C 0.47215 0.75352 0.40037 0.0
C656 C 0.37123 0.75324 0.40095 0.0
O657 O 0.43106 0.81279 0.32072 0.0
Mg658 Mg 0.6362 0.77301 0.86724 0.0
O659 O 0.64939 0.81039 0.83001 0.0
O660 O 0.64336 0.85424 0.85985 0.0
Mg661 Mg 0.63094 0.85169 0.91545 0.0
C662 C 0.65005 0.8406 0.83291 0.0
C663 C 0.61301 0.74843 0.79303 0.0
O664 O 0.60249 0.72466 0.77509 0.0
O665 O 0.58245 0.78748 0.87455 0.0
O666 O 0.60822 0.80261 0.9164 0.0
O667 O 0.69045 0.78021 0.88102 0.0
O668 O 0.65246 0.80427 0.90713 0.0
C669 C 0.58159 0.80132 0.90197 0.0
C670 C 0.68219 0.8021 0.90139 0.0
O671 O 0.62233 0.74195 0.82192 0.0
Mg672 Mg 0.61143 0.53194 0.662 0.0
O673 O 0.57788 0.57074 0.64753 0.0
O674 O 0.61005 0.61255 0.65505 0.0
Mg675 Mg 0.66595 0.60015 0.6623 0.0
C676 C 0.58236 0.60065 0.64805 0.0
C677 C 0.5345 0.51436 0.68825 0.0
O678 O 0.51683 0.49254 0.70273 0.0
O679 O 0.62396 0.55306 0.71405 0.0
O680 O 0.6739 0.56176 0.70009 0.0
O681 O 0.62054 0.53626 0.60549 0.0
O682 O 0.65243 0.55596 0.64084 0.0
C683 C 0.65319 0.55951 0.72203 0.0
C684 C 0.64403 0.55535 0.61192 0.0
O685 O 0.5638 0.50702 0.68119 0.0
Mg686 Mg 0.27733 0.36083 0.91394 0.0
O687 O 0.24102 0.32602 0.89546 0.0
O688 O 0.19953 0.3584 0.90307 0.0
Mg689 Mg 0.20773 0.41409 0.91484 0.0
C690 C 0.2112 0.33089 0.89511 0.0
C691 C 0.29378 0.28456 0.94127 0.0
O692 O 0.31502 0.26646 0.95604 0.0
O693 O 0.25263 0.37001 0.96511 0.0
O694 O 0.24551 0.42058 0.9533 0.0
O695 O 0.2743 0.37406 0.85766 0.0
O696 O 0.25284 0.40297 0.894 0.0
C697 C 0.2459 0.39879 0.97424 0.0
C698 C 0.25464 0.39673 0.86468 0.0
O699 O 0.30209 0.31348 0.93359 0.0
Mg700 Mg 0.44264 1.02486 0.16336 0.0
O701 O 0.4768 0.98611 0.14972 0.0
O702 O 0.44461 0.94422 0.15677 0.0
Mg703 Mg 0.3886 0.95591 0.16375 0.0
C704 C 0.47238 0.95617 0.15021 0.0
C705 C 0.5193 0.0444 0.18853 0.0
O706 O 0.53726 0.06721 0.20096 0.0
O707 O 0.4305 1.00399 0.21564 0.0
O708 O 0.38082 0.99471 0.20116 0.0
O709 O 0.43342 1.02056 0.10693 0.0
O710 O 0.40204 1.00015 0.14243 0.0
C711 C 0.40132 0.99696 0.22331 0.0
C712 C 0.41021 1.00112 0.11345 0.0
O713 O 0.48992 0.05124 0.18129 0.0
Mg714 Mg 0.77662 0.19782 0.41743 0.0
O715 O 0.81312 0.23273 0.39977 0.0
O716 O 0.85458 0.19985 0.40498 0.0
Mg717 Mg 0.84553 0.14355 0.41455 0.0
C718 C 0.84288 0.22776 0.39846 0.0
C719 C 0.76146 0.27383 0.44594 0.0
O720 O 0.74073 0.29223 0.46105 0.0
O721 O 0.80206 0.18589 0.46777 0.0
O722 O 0.80753 0.13609 0.45263 0.0
O723 O 0.77903 0.18733 0.36073 0.0
O724 O 0.80028 0.1563 0.39553 0.0
C725 C 0.80839 0.15645 0.47492 0.0
C726 C 0.79848 0.16414 0.36661 0.0
O727 O 0.75271 0.245 0.43848 0.0
Mg728 Mg 0.6061 0.52553 0.38198 0.0
O729 O 0.57085 0.48988 0.40143 0.0
O730 O 0.6038 0.44829 0.39805 0.0
Mg731 Mg 0.65999 0.45665 0.38833 0.0
C732 C 0.57586 0.46016 0.40394 0.0
C733 C 0.53127 0.53938 0.35233 0.0
O734 O 0.51164 0.55952 0.33792 0.0
O735 O 0.61695 0.49773 0.33293 0.0
O736 O 0.66674 0.49255 0.34809 0.0
O737 O 0.61647 0.52659 0.43853 0.0
O738 O 0.64722 0.50277 0.40502 0.0
C739 C 0.6462 0.49056 0.32603 0.0
C740 C 0.63934 0.50641 0.43378 0.0
O741 O 0.55953 0.54938 0.36019 0.0
Mg742 Mg 0.27695 0.35973 0.63723 0.0
O743 O 0.31245 0.32385 0.65577 0.0
O744 O 0.35469 0.35575 0.64998 0.0
Mg745 Mg 0.34716 0.412 0.63992 0.0
C746 C 0.34238 0.32818 0.65683 0.0
C747 C 0.26041 0.28556 0.60761 0.0
O748 O 0.23979 0.26702 0.59245 0.0
O749 O 0.30322 0.36911 0.58709 0.0
O750 O 0.3106 0.4192 0.60041 0.0
O751 O 0.27845 0.3708 0.69371 0.0
O752 O 0.30155 0.4006 0.65885 0.0
C753 C 0.31091 0.39793 0.57896 0.0
C754 C 0.29895 0.39314 0.68783 0.0
O755 O 0.25125 0.31388 0.61614 0.0
Mg756 Mg 0.44609 0.0283 0.88282 0.0
O757 O 0.48178 0.06378 0.90157 0.0
O758 O 0.44931 0.10568 0.89758 0.0
Mg759 Mg 0.39294 0.0977 0.88829 0.0
C760 C 0.47713 0.09358 0.90358 0.0
C761 C 0.5204 1.01416 0.85239 0.0
O762 O 0.53998 0.99395 0.83805 0.0
O763 O 0.43513 0.05551 0.83345 0.0
O764 O 0.38544 0.06132 0.84868 0.0
O765 O 0.43621 0.02847 0.93949 0.0
O766 O 0.40528 0.05176 0.90579 0.0
C767 C 0.4059 0.06274 0.82651 0.0
C768 C 0.41344 0.04871 0.93454 0.0
O769 O 0.49236 1.00407 0.86088 0.0
Mg770 Mg 0.77641 0.18897 0.14009 0.0
O771 O 0.74137 0.22526 0.15886 0.0
O772 O 0.69884 0.19417 0.15126 0.0
Mg773 Mg 0.70481 0.13839 0.13951 0.0
C774 C 0.71137 0.22132 0.15915 0.0
C775 C 0.79567 0.26352 0.11211 0.0
O776 O 0.81741 0.28133 0.09767 0.0
O777 O 0.75124 0.18176 0.08906 0.0
O778 O 0.7417 0.13143 0.10022 0.0
O779 O 0.7741 0.17559 0.19619 0.0
O780 O 0.75041 0.14798 0.16 0.0
C781 C 0.74282 0.15354 0.07962 0.0
C782 C 0.75317 0.15394 0.18933 0.0
O783 O 0.8036 0.23481 0.12069 0.0
Mg784 Mg 0.66486 0.11537 1.02411 0.0
O785 O 0.65112 0.07842 0.06157 0.0
O786 O 0.6579 0.10841 0.10527 0.0
Mg787 Mg 0.67096 0.16385 0.10205 0.0
C788 C 0.6507 0.08153 0.09181 0.0
C789 C 0.68804 0.04149 0.99961 0.0
O790 O 0.69901 1.0236 0.97602 0.0
O791 O 0.71869 0.12176 0.03889 0.0
O792 O 0.69484 0.16491 0.05343 0.0
O793 O 0.61061 0.12923 0.03116 0.0
O794 O 0.64876 0.15524 0.05515 0.0
C795 C 0.72077 0.14934 0.05223 0.0
C796 C 0.61903 0.1495 0.05311 0.0
O797 O 0.67868 0.07027 0.99295 0.0
Mg798 Mg 0.69212 0.41266 0.27854 0.0
O799 O 0.72555 0.40381 0.32022 0.0
O800 O 0.69348 0.40966 0.36268 0.0
Mg801 Mg 0.63789 0.41964 0.35359 0.0
C802 C 0.72122 0.40386 0.35035 0.0
C803 C 0.76862 0.43408 0.25595 0.0
O804 O 0.78633 0.4447 0.23205 0.0
O805 O 0.68189 0.46698 0.28825 0.0
O806 O 0.64119 0.43946 0.30337 0.0
O807 O 0.68012 0.35849 0.28768 0.0
O808 O 0.65073 0.39667 0.30765 0.0
C809 C 0.65388 0.46692 0.30079 0.0
C810 C 0.65784 0.36709 0.30753 0.0
O811 O 0.73937 0.42581 0.24976 0.0
Mg812 Mg 0.3879 0.44019 0.52732 0.0
O813 O 0.39873 0.47494 0.56771 0.0
O814 O 0.39359 0.44409 0.61122 0.0
Mg815 Mg 0.3823 0.38848 0.60412 0.0
C816 C 0.39953 0.47139 0.59796 0.0
C817 C 0.36609 0.51537 0.50341 0.0
O818 O 0.35515 0.53306 0.47963 0.0
O819 O 0.33374 0.43159 0.53895 0.0
O820 O 0.36083 0.39083 0.55453 0.0
O821 O 0.44208 0.42776 0.53492 0.0
O822 O 0.40411 0.39961 0.55721 0.0
C823 C 0.33362 0.40407 0.55252 0.0
C824 C 0.43376 0.40632 0.55585 0.0
O825 O 0.37469 0.48629 0.49715 0.0
Mg826 Mg 0.36054 0.14005 0.77779 0.0
O827 O 0.32756 0.15003 0.81957 0.0
O828 O 0.35986 0.14474 0.86196 0.0
Mg829 Mg 0.41523 0.13377 0.85275 0.0
C830 C 0.33211 0.15061 0.84966 0.0
C831 C 0.28364 0.11909 0.75603 0.0
O832 O 0.26574 0.10808 0.73247 0.0
O833 O 0.37026 0.08582 0.78836 0.0
O834 O 0.41114 0.11338 0.80286 0.0
O835 O 0.3733 0.1942 0.78594 0.0
O836 O 0.40235 0.15599 0.80639 0.0
C837 C 0.39829 0.08596 0.80084 0.0
C838 C 0.39559 0.18564 0.80581 0.0
O839 O 0.31298 0.12683 0.74956 0.0
Mg840 Mg 0.66524 0.95255 1.01967 0.0
O841 O 0.65027 0.98451 0.97953 0.0
O842 O 0.65504 0.95002 0.9392 0.0
Mg843 Mg 0.66121 0.8946 0.9544 0.0
C844 C 0.64946 0.9785 0.94984 0.0
C845 C 0.69235 0.02982 0.0331 0.0
O846 O 0.70668 0.04892 0.05382 0.0
O847 O 0.71605 0.9381 0.99705 0.0
O848 O 0.7006 0.88815 0.99145 0.0
O849 O 0.60859 0.94465 1.01812 0.0
O850 O 0.64234 0.91101 0.99858 0.0
C851 C 0.72303 0.90845 0.99154 0.0
C852 C 0.61375 0.92017 0.9999 0.0
O853 O 0.6858 1.00082 0.04198 0.0
Mg854 Mg 0.859 0.41267 0.27332 0.0
O855 O 0.8266 0.3971 0.23383 0.0
O856 O 0.85971 0.40432 0.19268 0.0
Mg857 Mg 0.91514 0.4122 0.20636 0.0
C858 C 0.83181 0.39725 0.20399 0.0
C859 C 0.78126 0.43779 0.28919 0.0
O860 O 0.7631 0.45241 0.31048 0.0
O861 O 0.87129 0.4644 0.25133 0.0
O862 O 0.92161 0.45112 0.24387 0.0
O863 O 0.86895 0.35631 0.2708 0.0
O864 O 0.90073 0.3916 0.25075 0.0
C865 C 0.9005 0.47271 0.24523 0.0
C866 C 0.89276 0.36261 0.25203 0.0
O867 O 0.81066 0.43161 0.29697 0.0
Mg868 Mg 0.38976 0.6045 0.52107 0.0
O869 O 0.40393 0.57187 0.48114 0.0
O870 O 0.39848 0.60582 0.44038 0.0
Mg871 Mg 0.39286 0.66146 0.45476 0.0
C872 C 0.40415 0.57747 0.45135 0.0
C873 C 0.36239 0.52772 0.5367 0.0
O874 O 0.34754 0.50948 0.55782 0.0
O875 O 0.33864 0.61865 0.499 0.0
O876 O 0.35402 0.6685 0.49225 0.0
O877 O 0.44637 0.61218 0.51856 0.0
O878 O 0.41241 0.64557 0.49887 0.0
C879 C 0.3316 0.64821 0.49304 0.0
C880 C 0.44099 0.63633 0.49994 0.0
O881 O 0.36927 0.55686 0.54478 0.0
Mg882 Mg 0.19392 0.14224 0.77224 0.0
O883 O 0.22713 0.15729 0.73315 0.0
O884 O 0.19487 0.1492 0.69149 0.0
Mg885 Mg 0.13917 0.14239 0.70438 0.0
C886 C 0.22256 0.15641 0.70321 0.0
C887 C 0.271 0.11647 0.78937 0.0
O888 O 0.28893 0.10213 0.81105 0.0
O889 O 0.18193 0.09032 0.75061 0.0
O890 O 0.13172 0.10317 0.74144 0.0
O891 O 0.1843 0.19864 0.76929 0.0
O892 O 0.15274 0.16336 0.74885 0.0
C893 C 0.15293 0.08176 0.74388 0.0
C894 C 0.16079 0.19235 0.75014 0.0
O895 O 0.2417 0.12328 0.79694 0.0
Mg896 Mg 1.02632 0.16397 0.61352 0.0
O897 O 0.06184 0.14593 0.57752 0.0
O898 O 0.10405 0.15416 0.60888 0.0
Mg899 Mg 0.09716 0.16475 0.66489 0.0
C900 C 0.0918 0.14627 0.58157 0.0
C901 C 1.00796 0.19198 0.53828 0.0
O902 O 0.98627 0.20637 0.5204 0.0
O903 O 0.0511 0.21516 0.62196 0.0
O904 O 0.06019 0.20372 0.6724 0.0
O905 O 0.02918 0.10774 0.62621 0.0
O906 O 0.05184 0.14378 0.65477 0.0
C907 C 0.05896 0.22446 0.65044 0.0
C908 C 0.04959 0.11452 0.64837 0.0
O909 O 0.99997 0.18358 0.56709 0.0
Mg910 Mg 0.52663 0.88935 0.94293 0.0
O911 O 0.5622 0.90898 0.97812 0.0
O912 O 0.60418 0.90136 0.94635 0.0
Mg913 Mg 0.59674 0.88924 0.8907 0.0
C914 C 0.59209 0.90949 0.97365 0.0
C915 C 0.51027 0.86199 1.01875 0.0
O916 O 0.48939 0.84714 0.03725 0.0
O917 O 0.55236 0.83861 0.93505 0.0
O918 O 0.56059 0.84924 0.88427 0.0
O919 O 0.52822 0.94541 0.92913 0.0
O920 O 0.55112 0.90933 0.90094 0.0
C921 C 0.55991 0.8289 0.90664 0.0
C922 C 0.54841 0.93865 0.90678 0.0
O923 O 0.50149 0.86971 0.98999 0.0
Mg924 Mg 0.92067 0.27346 0.19399 0.0
O925 O 0.90517 0.31166 0.22923 0.0
O926 O 0.91053 0.35469 0.19804 0.0
Mg927 Mg 0.9246 0.35051 0.14289 0.0
C928 C 0.90353 0.34169 0.22525 0.0
C929 C 0.9433 0.25364 0.26976 0.0
O930 O 0.95381 0.23133 0.28951 0.0
O931 O 0.97404 0.28939 0.18713 0.0
O932 O 0.94866 0.30213 0.14426 0.0
O933 O 0.86656 0.27848 0.17858 0.0
O934 O 0.90444 0.30262 0.15237 0.0
C935 C 0.97507 0.30206 0.15915 0.0
C936 C 0.87466 0.2998 0.15753 0.0
O937 O 0.93485 0.24519 0.24109 0.0
Mg938 Mg 0.52738 0.66567 0.44126 0.0
O939 O 0.49226 0.64669 0.47718 0.0
O940 O 0.44982 0.65443 0.446 0.0
Mg941 Mg 0.4565 0.66574 0.39006 0.0
C942 C 0.46229 0.64649 0.47321 0.0
C943 C 0.54468 0.69403 0.51638 0.0
O944 O 0.56578 0.70914 0.53439 0.0
O945 O 0.5018 0.71642 0.43328 0.0
O946 O 0.49279 0.70545 0.38273 0.0
O947 O 0.5252 0.60947 0.42813 0.0
O948 O 0.50214 0.6454 0.39984 0.0
C949 C 0.49385 0.72595 0.40491 0.0
C950 C 0.50474 0.61612 0.40599 0.0
O951 O 0.55319 0.68572 0.48772 0.0
Mg952 Mg 0.63547 0.76943 0.70351 0.0
O953 O 0.65054 0.72935 0.73526 0.0
O954 O 0.64742 0.68937 0.70021 0.0
Mg955 Mg 0.64131 0.70477 0.64469 0.0
C956 C 0.65229 0.69983 0.72894 0.0
C957 C 0.60817 0.78181 0.78126 0.0
O958 O 0.5937 0.80233 0.80042 0.0
O959 O 0.58519 0.74624 0.68769 0.0
O960 O 0.60216 0.74197 0.6381 0.0
O961 O 0.69222 0.76852 0.69628 0.0
O962 O 0.65911 0.74904 0.66192 0.0
C963 C 0.57914 0.74113 0.6577 0.0
C964 C 0.68756 0.75057 0.67148 0.0
O965 O 0.61443 0.79075 0.75215 0.0
Mg966 Mg 0.03098 0.88479 0.60912 0.0
O967 O 0.99134 0.89772 0.57419 0.0
O968 O 0.949 0.89356 0.60656 0.0
Mg969 Mg 0.95535 0.88155 0.66224 0.0
C970 C 0.96137 0.89947 0.57879 0.0
C971 C 0.05205 0.86057 0.5338 0.0
O972 O 0.0748 0.84858 0.5155 0.0
O973 O 1.01645 0.83132 0.61856 0.0
O974 O 1.0043 0.8588 0.66019 0.0
O975 O 1.02456 0.93937 0.6222 0.0
O976 O 1.00227 0.90191 0.65054 0.0
C977 C 1.00415 0.83164 0.64672 0.0
C978 C 1.00389 0.93147 0.64394 0.0
O979 O 0.05949 0.86936 0.56262 0.0
Mg980 Mg 0.91625 0.27537 0.3558 0.0
O981 O 0.89919 0.23812 0.32154 0.0
O982 O 0.90365 0.19742 0.35558 0.0
Mg983 Mg 0.91176 0.20796 0.41191 0.0
C984 C 0.89778 0.20848 0.32722 0.0
C985 C 0.94616 0.28777 0.27988 0.0
O986 O 0.96052 0.308 0.26027 0.0
O987 O 0.9661 0.25014 0.36944 0.0
O988 O 0.94988 0.24597 0.4191 0.0
O989 O 0.85945 0.27324 0.36471 0.0
O990 O 0.89323 0.25286 0.39746 0.0
C991 C 0.97256 0.24454 0.39922 0.0
C992 C 0.86462 0.25434 0.38859 0.0
O993 O 0.93818 0.29778 0.30818 0.0
Mg994 Mg 0.13701 0.28482 0.85375 0.0
O995 O 0.15122 0.32473 0.82126 0.0
O996 O 0.14776 0.36509 0.85583 0.0
Mg997 Mg 0.14266 0.35034 0.9116 0.0
C998 C 0.15248 0.35437 0.82719 0.0
C999 C 0.10892 0.27109 0.77662 0.0
O1000 O 0.09469 0.25013 0.75773 0.0
O1001 O 0.08658 0.30744 0.86973 0.0
O1002 O 0.10406 0.31266 0.91907 0.0
O1003 O 0.1938 0.28649 0.86033 0.0
O1004 O 0.16084 0.30611 0.89476 0.0
C1005 C 0.08081 0.31289 0.89972 0.0
C1006 C 0.1892 0.30477 0.8849 0.0
O1007 O 0.11581 0.26242 0.80566 0.0
Mg1008 Mg 0.60871 0.03068 0.16269 0.0
O1009 O 0.57472 0.06998 0.14997 0.0
O1010 O 0.60721 0.11152 0.15758 0.0
Mg1011 Mg 0.66306 0.09909 0.163 0.0
C1012 C 0.57931 0.09988 0.15116 0.0
C1013 C 0.53216 1.01113 0.18837 0.0
O1014 O 0.51427 0.98821 0.20074 0.0
O1015 O 0.62159 0.0508 0.21511 0.0
O1016 O 0.6713 0.0608 0.20092 0.0
O1017 O 0.61725 0.03499 0.10617 0.0
O1018 O 0.64914 0.05514 0.14142 0.0
C1019 C 0.65075 0.05781 0.22295 0.0
C1020 C 0.64069 0.05424 0.11249 0.0
O1021 O 0.56147 1.00434 0.18084 0.0
Mg1022 Mg 0.27525 0.85881 0.4185 0.0
O1023 O 0.23759 0.82404 0.40232 0.0
O1024 O 0.19541 0.85612 0.40747 0.0
Mg1025 Mg 0.20651 0.91226 0.41527 0.0
C1026 C 0.20765 0.8284 0.40131 0.0
C1027 C 0.29187 0.78409 0.44795 0.0
O1028 O 0.31282 0.76593 0.46308 0.0
O1029 O 0.25149 0.87051 0.46932 0.0
O1030 O 0.24292 0.92034 0.45496 0.0
O1031 O 0.27358 0.86789 0.36184 0.0
O1032 O 0.25163 0.89927 0.39623 0.0
C1033 C 0.24429 0.89959 0.47696 0.0
C1034 C 0.25374 0.89092 0.36742 0.0
O1035 O 0.30055 0.81262 0.4395 0.0
Mg1036 Mg 0.44441 0.52625 0.66483 0.0
O1037 O 0.47703 0.48418 0.65585 0.0
O1038 O 0.44428 0.44217 0.6611 0.0
Mg1039 Mg 0.38879 0.45218 0.6704 0.0
C1040 C 0.47225 0.45416 0.65569 0.0
C1041 C 0.52165 0.54761 0.686 0.0
O1042 O 0.53953 0.57116 0.69707 0.0
O1043 O 0.4336 0.51573 0.71906 0.0
O1044 O 0.39263 0.50185 0.69132 0.0
O1045 O 0.43278 0.51823 0.61034 0.0
O1046 O 0.40269 0.49813 0.64802 0.0
C1047 C 0.40539 0.50363 0.71882 0.0
C1048 C 0.41005 0.49866 0.61845 0.0
O1049 O 0.49223 0.55399 0.67849 0.0
Mg1050 Mg 0.77803 0.69663 0.91765 0.0
O1051 O 0.81424 0.7321 0.90015 0.0
O1052 O 0.85627 0.69989 0.90567 0.0
Mg1053 Mg 0.84741 0.64357 0.91468 0.0
C1054 C 0.84412 0.7276 0.89914 0.0
C1055 C 0.76164 0.77131 0.94722 0.0
O1056 O 0.74089 0.78947 0.9626 0.0
O1057 O 0.80376 0.68603 0.96793 0.0
O1058 O 0.81072 0.63602 0.954 0.0
O1059 O 0.77999 0.68673 0.86096 0.0
O1060 O 0.80214 0.65584 0.89548 0.0
C1061 C 0.81104 0.65701 0.97572 0.0
C1062 C 0.80004 0.66396 0.86662 0.0
O1063 O 0.75286 0.74276 0.93896 0.0
Mg1064 Mg 0.60517 0.02943 0.87945 0.0
O1065 O 0.57041 0.98992 0.89354 0.0
O1066 O 0.60285 0.94759 0.89109 0.0
Mg1067 Mg 0.65843 0.9538 0.87962 0.0
C1068 C 0.57503 0.96001 0.89626 0.0
C1069 C 0.53016 0.04837 0.85473 0.0
O1070 O 0.51016 0.0704 0.84415 0.0
O1071 O 0.6149 1.01321 0.82652 0.0
O1072 O 0.65582 1.00212 0.85548 0.0
O1073 O 0.61767 1.02534 0.93423 0.0
O1074 O 0.64645 1.00159 0.8979 0.0
C1075 C 0.64288 1.00072 0.82805 0.0
C1076 C 0.63949 1.00441 0.92736 0.0
O1077 O 0.5585 0.05718 0.86362 0.0
Mg1078 Mg 0.27754 0.86072 0.14083 0.0
O1079 O 0.31399 0.82625 0.15952 0.0
O1080 O 0.35527 0.85906 0.15213 0.0
Mg1081 Mg 0.34705 0.91466 0.14016 0.0
C1082 C 0.34377 0.83142 0.16001 0.0
C1083 C 0.26086 0.78414 0.11414 0.0
O1084 O 0.23948 0.76608 0.0995 0.0
O1085 O 0.30253 0.86972 0.08981 0.0
O1086 O 0.30905 0.92027 0.10178 0.0
O1087 O 0.28003 0.87431 0.19699 0.0
O1088 O 0.30187 0.90307 0.16064 0.0
C1089 C 0.30932 0.89854 0.08081 0.0
C1090 C 0.29975 0.897 0.18999 0.0
O1091 O 0.25279 0.81318 0.1215 0.0
Mg1092 Mg 0.44677 0.52549 0.38083 0.0
O1093 O 0.48214 0.56485 0.39383 0.0
O1094 O 0.45 0.60741 0.39124 0.0
Mg1095 Mg 0.3942 0.60147 0.38082 0.0
C1096 C 0.4778 0.59483 0.39615 0.0
C1097 C 0.52124 0.50533 0.3555 0.0
O1098 O 0.54086 0.48291 0.34506 0.0
O1099 O 0.43644 0.54124 0.3278 0.0
O1100 O 0.39587 0.55298 0.35698 0.0
O1101 O 0.43528 0.53019 0.43576 0.0
O1102 O 0.40611 0.55387 0.39963 0.0
C1103 C 0.40855 0.55393 0.32941 0.0
C1104 C 0.41354 0.55126 0.429 0.0
O1105 O 0.49291 0.49697 0.36487 0.0
Mg1106 Mg 0.77583 0.69622 0.6401 0.0
O1107 O 0.73944 0.73024 0.6597 0.0
O1108 O 0.69829 0.69725 0.65261 0.0
Mg1109 Mg 0.7071 0.64184 0.64 0.0
C1110 C 0.70972 0.72487 0.66067 0.0
C1111 C 0.78985 0.77287 0.61278 0.0
O1112 O 0.81042 0.79206 0.59837 0.0
O1113 O 0.75033 0.68699 0.58935 0.0
O1114 O 0.74421 0.6362 0.60078 0.0
O1115 O 0.77398 0.68245 0.69634 0.0
O1116 O 0.75243 0.65341 0.66014 0.0
C1117 C 0.74396 0.65818 0.58003 0.0
C1118 C 0.75461 0.65945 0.68948 0.0
O1119 O 0.7992 0.74422 0.6202 0.0
Mg1120 Mg 0.66955 0.6163 0.5237 0.0
O1121 O 0.6554 0.5799 0.56144 0.0
O1122 O 0.66016 0.61001 0.60529 0.0
Mg1123 Mg 0.67286 0.66552 0.60238 0.0
C1124 C 0.6538 0.58302 0.59161 0.0
C1125 C 0.69289 0.54144 0.50206 0.0
O1126 O 0.70312 0.52219 0.4792 0.0
O1127 O 0.72293 0.62455 0.53891 0.0
O1128 O 0.69537 0.66551 0.5532 0.0
O1129 O 0.61534 0.63014 0.52978 0.0
O1130 O 0.65288 0.65678 0.5541 0.0
C1131 C 0.72256 0.65211 0.55243 0.0
C1132 C 0.6232 0.65083 0.55152 0.0
O1133 O 0.68397 0.5701 0.4942 0.0
Mg1134 Mg 0.69142 0.91136 0.78181 0.0
O1135 O 0.72541 0.89754 0.82071 0.0
O1136 O 0.69346 0.90566 0.86257 0.0
Mg1137 Mg 0.63753 0.91142 0.85019 0.0
C1138 C 0.72113 0.89875 0.85068 0.0
C1139 C 0.7673 0.93921 0.76443 0.0
O1140 O 0.78509 0.95385 0.7428 0.0
O1141 O 0.67879 0.96337 0.80257 0.0
O1142 O 0.6289 0.94974 0.81246 0.0
O1143 O 0.68291 0.85484 0.78596 0.0
O1144 O 0.65088 0.88985 0.80599 0.0
C1145 C 0.6497 0.97151 0.80932 0.0
C1146 C 0.65951 0.86103 0.80523 0.0
O1147 O 0.73842 0.93113 0.75649 0.0
Mg1148 Mg 0.38476 0.94087 1.02499 0.0
O1149 O 0.39875 0.97715 0.06278 0.0
O1150 O 0.39402 0.94656 0.10634 0.0
Mg1151 Mg 0.38161 0.89098 0.10284 0.0
C1152 C 0.40032 0.97371 0.09292 0.0
C1153 C 0.36074 1.01569 1.00338 0.0
O1154 O 0.35 0.03466 0.9805 0.0
O1155 O 0.33143 0.93249 0.04049 0.0
O1156 O 0.35792 0.89061 0.05417 0.0
O1157 O 0.43925 0.9276 0.03093 0.0
O1158 O 0.40198 0.90042 0.05503 0.0
C1159 C 0.33108 0.90464 0.05348 0.0
C1160 C 0.43159 0.90669 0.05256 0.0
O1161 O 0.36977 0.98704 0.99565 0.0
Mg1162 Mg 0.35987 0.64308 0.28255 0.0
O1163 O 0.32653 0.65715 0.32186 0.0
O1164 O 0.3591 0.64923 0.36331 0.0
Mg1165 Mg 0.41484 0.64333 0.35026 0.0
C1166 C 0.33126 0.65608 0.35177 0.0
C1167 C 0.28323 0.61595 0.26528 0.0
O1168 O 0.2657 0.60119 0.24354 0.0
O1169 O 0.37257 0.59116 0.30372 0.0
O1170 O 0.42266 0.6046 0.31282 0.0
O1171 O 0.36877 0.69962 0.28608 0.0
O1172 O 0.40083 0.6646 0.30606 0.0
C1173 C 0.40169 0.58293 0.31029 0.0
C1174 C 0.39242 0.69348 0.30509 0.0
O1175 O 0.31241 0.62342 0.25779 0.0
Mg1176 Mg 0.66799 0.4543 0.52448 0.0
O1177 O 0.65033 0.4874 0.48638 0.0
O1178 O 0.65513 0.45246 0.44651 0.0
Mg1179 Mg 0.6638 0.39667 0.45838 0.0
C1180 C 0.64901 0.48098 0.45685 0.0
C1181 C 0.6968 0.53096 0.53602 0.0
O1182 O 0.71137 0.55057 0.55608 0.0
O1183 O 0.7178 0.44119 0.49881 0.0
O1184 O 0.7028 0.39111 0.49572 0.0
O1185 O 0.61127 0.44415 0.52355 0.0
O1186 O 0.64539 0.41186 0.50319 0.0
C1187 C 0.72492 0.41155 0.49355 0.0
C1188 C 0.61659 0.41997 0.50512 0.0
O1189 O 0.68951 0.50248 0.546 0.0
Mg1190 Mg 0.85641 0.91595 0.77849 0.0
O1191 O 0.82415 0.90622 0.73613 0.0
O1192 O 0.85716 0.90988 0.69411 0.0
Mg1193 Mg 0.91272 0.91951 0.70456 0.0
C1194 C 0.82908 0.90501 0.70611 0.0
C1195 C 0.7793 0.93794 0.79807 0.0
O1196 O 0.76084 0.94965 0.82085 0.0
O1197 O 0.86788 0.96975 0.76712 0.0
O1198 O 0.90783 0.94024 0.75422 0.0
O1199 O 0.86795 0.86147 0.77108 0.0
O1200 O 0.89846 0.89873 0.751 0.0
C1201 C 0.89601 0.96816 0.75497 0.0
C1202 C 0.89086 0.86928 0.75161 0.0
O1203 O 0.80848 0.93045 0.8054 0.0
Mg1204 Mg 0.38601 0.10288 1.02432 0.0
O1205 O 0.40319 0.06898 0.98678 0.0
O1206 O 0.39834 0.10311 0.94619 0.0
Mg1207 Mg 0.39047 0.1592 0.95714 0.0
C1208 C 0.4043 0.07476 0.95711 0.0
C1209 C 0.35726 1.02645 0.03728 0.0
O1210 O 0.34296 1.00702 0.05772 0.0
O1211 O 0.33609 0.11618 0.99873 0.0
O1212 O 0.35176 0.166 0.99457 0.0
O1213 O 0.44276 0.11223 1.02302 0.0
O1214 O 0.40894 0.14463 1.00218 0.0
C1215 C 0.32934 0.14584 0.99293 0.0
C1216 C 0.43764 0.13614 1.00413 0.0
O1217 O 0.36456 0.05507 0.04683 0.0
Mg1218 Mg 0.19326 0.6381 0.27684 0.0
O1219 O 0.22607 0.64793 0.23492 0.0
O1220 O 0.19378 0.64319 0.19244 0.0
Mg1221 Mg 0.1384 0.63207 0.2017 0.0
C1222 C 0.22153 0.64887 0.20483 0.0
C1223 C 0.27046 0.61811 0.29859 0.0
O1224 O 0.2885 0.60733 0.32215 0.0
O1225 O 0.18305 0.5839 0.26659 0.0
O1226 O 0.14288 0.61231 0.25181 0.0
O1227 O 0.1809 0.69212 0.26839 0.0
O1228 O 0.1515 0.65394 0.24817 0.0
C1229 C 0.15512 0.58461 0.25391 0.0
C1230 C 0.15861 0.68354 0.24852 0.0
O1231 O 0.24098 0.62526 0.30501 0.0
Mg1232 Mg 0.0276 0.66471 0.10559 0.0
O1233 O 0.06434 0.64684 0.07073 0.0
O1234 O 0.10537 0.65217 0.10425 0.0
Mg1235 Mg 0.09664 0.66272 0.16033 0.0
C1236 C 0.09406 0.6455 0.07619 0.0
C1237 C 1.01203 0.69383 0.0302 0.0
O1238 O 0.99131 0.70894 1.01175 0.0
O1239 O 0.05295 0.71501 0.11641 0.0
O1240 O 0.05804 0.70033 0.16641 0.0
O1241 O 0.02991 0.60825 0.11722 0.0
O1242 O 0.05151 0.6435 0.14743 0.0
C1243 C 0.05928 0.72238 0.14579 0.0
C1244 C 0.04954 0.6145 0.14021 0.0
O1245 O 1.00311 0.68574 0.05881 0.0
Mg1246 Mg 0.52838 0.38844 0.44985 0.0
O1247 O 0.56487 0.40738 0.48449 0.0
O1248 O 0.60616 0.40188 0.45134 0.0
Mg1249 Mg 0.59706 0.39056 0.39546 0.0
C1250 C 0.59461 0.40896 0.4792 0.0
C1251 C 0.51307 0.36 0.52565 0.0
O1252 O 0.49245 0.34477 0.54415 0.0
O1253 O 0.55434 0.33821 0.43986 0.0
O1254 O 0.56045 0.35091 0.38931 0.0
O1255 O 0.52986 0.44484 0.43763 0.0
O1256 O 0.55176 0.40951 0.40777 0.0
C1257 C 0.56102 0.3297 0.41085 0.0
C1258 C 0.54948 0.43859 0.41465 0.0
O1259 O 0.50417 0.36766 0.49692 0.0
Mg1260 Mg 0.91693 0.78071 0.69362 0.0
O1261 O 0.90168 0.81846 0.72852 0.0
O1262 O 0.9078 0.86101 0.69699 0.0
Mg1263 Mg 0.9152 0.85035 0.6408 0.0
C1264 C 0.90139 0.84848 0.72457 0.0
C1265 C 0.94327 0.76206 0.76932 0.0
O1266 O 0.9553 0.73983 0.78828 0.0
O1267 O 0.96844 0.80337 0.68243 0.0
O1268 O 0.95408 0.81314 0.63273 0.0
O1269 O 0.8606 0.78283 0.6844 0.0
O1270 O 0.89536 0.80522 0.65341 0.0
C1271 C 0.97608 0.81114 0.65341 0.0
C1272 C 0.86649 0.80302 0.66161 0.0
O1273 O 0.93546 0.75412 0.74035 0.0
Mg1274 Mg 0.52586 0.16547 0.94777 0.0
O1275 O 0.48938 0.1476 0.98296 0.0
O1276 O 0.44799 0.15306 0.94993 0.0
Mg1277 Mg 0.45685 0.16324 0.89377 0.0
C1278 C 0.4596 0.14633 0.97786 0.0
C1279 C 0.54104 0.19554 1.0226 0.0
O1280 O 0.56151 0.21103 0.04103 0.0
O1281 O 0.50047 0.21576 0.93697 0.0
O1282 O 0.49417 0.20209 0.88675 0.0
O1283 O 0.52352 0.10889 0.93671 0.0
O1284 O 0.50197 0.14394 0.90622 0.0
C1285 C 0.49385 0.22374 0.90781 0.0
C1286 C 0.50386 0.11497 0.9137 0.0
O1287 O 0.55032 0.18699 0.99427 0.0
Mg1288 Mg 0.63887 0.26882 0.20186 0.0
O1289 O 0.653 0.22896 0.23471 0.0
O1290 O 0.64753 0.18824 0.20078 0.0
Mg1291 Mg 0.64171 0.20245 0.1451 0.0
C1292 C 0.65324 0.1992 0.22915 0.0
C1293 C 0.61149 0.28514 0.27884 0.0
O1294 O 0.59652 0.30657 0.29654 0.0
O1295 O 0.58765 0.24682 0.18768 0.0
O1296 O 0.60273 0.23969 0.13773 0.0
O1297 O 0.69554 0.26642 0.19378 0.0
O1298 O 0.66135 0.2466 0.1607 0.0
C1299 C 0.58042 0.24078 0.15813 0.0
C1300 C 0.69003 0.24786 0.16962 0.0
O1301 O 0.61842 0.29264 0.2495 0.0
Mg1302 Mg 0.02882 0.38958 0.116 0.0
O1303 O 0.99352 0.40743 0.07972 0.0
O1304 O 0.95111 0.39979 0.11096 0.0
Mg1305 Mg 0.95766 0.3891 0.16709 0.0
C1306 C 0.96356 0.40746 0.08365 0.0
C1307 C 0.0468 0.36093 0.0412 0.0
O1308 O 0.06821 0.34619 1.02329 0.0
O1309 O 1.00413 0.3385 0.12487 0.0
O1310 O 0.99538 0.35094 0.17506 0.0
O1311 O 1.02556 0.44587 0.12812 0.0
O1312 O 1.00303 0.40996 0.15699 0.0
C1313 C 0.99644 0.32975 0.15355 0.0
C1314 C 1.00507 0.43914 0.15023 0.0
O1315 O 0.05514 0.36959 0.06983 0.0
Mg1316 Mg 0.91584 0.7773 0.8561 0.0
O1317 O 0.90018 0.73993 0.82071 0.0
O1318 O 0.90615 0.69884 0.85408 0.0
Mg1319 Mg 0.91451 0.70779 0.91037 0.0
C1320 C 0.89994 0.71011 0.82591 0.0
C1321 C 0.94333 0.79579 0.78079 0.0
O1322 O 0.95596 0.81791 0.76207 0.0
O1323 O 0.96688 0.75353 0.86715 0.0
O1324 O 0.9515 0.74705 0.91677 0.0
O1325 O 0.85944 0.77426 0.86634 0.0
O1326 O 0.89449 0.75248 0.89701 0.0
C1327 C 0.97384 0.74633 0.89646 0.0
C1328 C 0.86557 0.75431 0.88918 0.0
O1329 O 0.93511 0.80378 0.80962 0.0
Mg1330 Mg 0.13888 0.77581 0.35551 0.0
O1331 O 0.15188 0.81623 0.32202 0.0
O1332 O 0.14703 0.85734 0.35578 0.0
Mg1333 Mg 0.13642 0.84884 0.41149 0.0
C1334 C 0.15292 0.84604 0.32756 0.0
C1335 C 0.11171 0.75897 0.27971 0.0
O1336 O 0.09707 0.73766 0.26155 0.0
O1337 O 0.08593 0.79097 0.36659 0.0
O1338 O 0.11244 0.80036 0.40963 0.0
O1339 O 0.19395 0.78185 0.36803 0.0
O1340 O 0.15716 0.80273 0.3978 0.0
C1341 C 0.08562 0.80117 0.39558 0.0
C1342 C 0.18654 0.80157 0.39071 0.0
O1343 O 0.12071 0.75023 0.30813 0.0
loop_
_geom_bond_atom_site_label_1
_geom_bond_atom_site_label_2
_geom_bond_distance
_geom_bond_site_symmetry_2
_ccdc_geom_bond_type
Mg0 O1 2.028 . S
Mg0 O7 1.986 . S
Mg0 O9 2.114 . S
Mg0 O10 2.251 . S
Mg0 O13 2.010 . S
O1 Mg0 2.028 . S
O1 C4 1.250 . S
O2 Mg3 2.028 . S
O2 C4 1.248 . S
Mg3 O2 2.028 . S
Mg3 O8 2.032 . S
Mg3 O10 2.079 . S
C4 O1 1.250 . S
C4 O2 1.248 . S
C5 O6 1.264 . S
C5 O13 1.249 . S
O6 C5 1.264 . S
O7 Mg0 1.986 . S
O7 C11 1.246 . S
O8 Mg3 2.032 . S
O8 C11 1.259 . S
O9 Mg0 2.114 . S
O9 C12 1.252 . S
O10 Mg0 2.251 . S
O10 Mg3 2.079 . S
O10 C12 1.273 . S
C11 O7 1.246 . S
C11 O8 1.259 . S
C12 O9 1.252 . S
C12 O10 1.273 . S
O13 Mg0 2.010 . S
O13 C5 1.249 . S
Mg14 O15 2.028 . S
Mg14 O21 1.986 . S
Mg14 O23 2.114 . S
Mg14 O24 2.251 . S
Mg14 O27 2.010 . S
O15 Mg14 2.028 . S
O15 C18 1.250 . S
O16 Mg17 2.028 . S
O16 C18 1.248 . S
Mg17 O16 2.028 . S
Mg17 O22 2.032 . S
Mg17 O24 2.079 . S
C18 O15 1.250 . S
C18 O16 1.248 . S
C19 O20 1.264 . S
C19 O27 1.249 . S
O20 C19 1.264 . S
O21 Mg14 1.986 . S
O21 C25 1.246 . S
O22 Mg17 2.032 . S
O22 C25 1.259 . S
O23 Mg14 2.114 . S
O23 C26 1.252 . S
O24 Mg14 2.251 . S
O24 Mg17 2.079 . S
O24 C26 1.273 . S
C25 O21 1.246 . S
C25 O22 1.259 . S
C26 O23 1.252 . S
C26 O24 1.273 . S
O27 Mg14 2.010 . S
O27 C19 1.249 . S
Mg28 O29 2.028 . S
Mg28 O35 1.986 . S
Mg28 O37 2.123 . S
Mg28 O38 2.251 . S
Mg28 O41 2.010 1_565 S
O29 Mg28 2.028 . S
O29 C32 1.250 . S
O30 Mg31 2.028 . S
O30 C32 1.248 . S
Mg31 O30 2.028 . S
Mg31 O36 2.032 . S
Mg31 O38 2.079 . S
C32 O29 1.250 . S
C32 O30 1.248 . S
C33 O34 1.264 . S
C33 O41 1.249 . S
O34 C33 1.264 . S
O35 Mg28 1.986 . S
O35 C39 1.246 . S
O36 Mg31 2.032 . S
O36 C39 1.259 . S
O37 Mg28 2.123 . S
O37 C40 1.269 . S
O38 Mg28 2.251 . S
O38 Mg31 2.079 . S
O38 C40 1.273 . S
C39 O35 1.246 . S
C39 O36 1.259 . S
C40 O37 1.269 . S
C40 O38 1.273 . S
O41 Mg28 2.010 1_545 S
O41 C33 1.249 . S
Mg42 O43 2.028 . S
Mg42 O49 1.986 . S
Mg42 O51 2.114 . S
Mg42 O52 2.251 . S
Mg42 O55 2.010 . S
O43 Mg42 2.028 . S
O43 C46 1.250 . S
O44 Mg45 2.028 . S
O44 C46 1.248 . S
Mg45 O44 2.028 . S
Mg45 O50 2.032 . S
Mg45 O52 2.079 . S
C46 O43 1.250 . S
C46 O44 1.248 . S
C47 O48 1.264 . S
C47 O55 1.249 . S
O48 C47 1.264 . S
O49 Mg42 1.986 . S
O49 C53 1.246 . S
O50 Mg45 2.032 . S
O50 C53 1.259 . S
O51 Mg42 2.114 . S
O51 C54 1.252 . S
O52 Mg42 2.251 . S
O52 Mg45 2.079 . S
O52 C54 1.273 . S
C53 O49 1.246 . S
C53 O50 1.259 . S
C54 O51 1.252 . S
C54 O52 1.273 . S
O55 Mg42 2.010 . S
O55 C47 1.249 . S
Mg56 O57 2.028 . S
Mg56 O63 1.986 . S
Mg56 O65 2.114 . S
Mg56 O66 2.251 . S
Mg56 O69 2.010 . S
O57 Mg56 2.028 . S
O57 C60 1.250 . S
O58 Mg59 2.028 . S
O58 C60 1.248 . S
Mg59 O58 2.028 . S
Mg59 O64 2.032 . S
Mg59 O66 2.079 . S
C60 O57 1.250 . S
C60 O58 1.248 . S
C61 O62 1.264 . S
C61 O69 1.249 . S
O62 C61 1.264 . S
O63 Mg56 1.986 . S
O63 C67 1.246 . S
O64 Mg59 2.032 . S
O64 C67 1.259 . S
O65 Mg56 2.114 . S
O65 C68 1.252 . S
O66 Mg56 2.251 . S
O66 Mg59 2.079 . S
O66 C68 1.273 . S
C67 O63 1.246 . S
C67 O64 1.259 . S
C68 O65 1.252 . S
C68 O66 1.273 . S
O69 Mg56 2.010 . S
O69 C61 1.249 . S
Mg70 O71 2.028 . S
Mg70 O77 1.986 . S
Mg70 O79 2.114 . S
Mg70 O80 2.251 . S
Mg70 O83 2.010 . S
O71 Mg70 2.028 . S
O71 C74 1.250 . S
O72 Mg73 2.028 . S
O72 C74 1.248 . S
Mg73 O72 2.028 . S
Mg73 O78 2.032 . S
Mg73 O80 2.079 . S
C74 O71 1.250 . S
C74 O72 1.248 . S
C75 O76 1.264 . S
C75 O83 1.249 . S
O76 C75 1.264 . S
O77 Mg70 1.986 . S
O77 C81 1.246 . S
O78 Mg73 2.032 . S
O78 C81 1.259 . S
O79 Mg70 2.114 . S
O79 C82 1.252 . S
O80 Mg70 2.251 . S
O80 Mg73 2.079 . S
O80 C82 1.273 . S
C81 O77 1.246 . S
C81 O78 1.259 . S
C82 O79 1.252 . S
C82 O80 1.273 . S
O83 Mg70 2.010 . S
O83 C75 1.249 . S
Mg84 O85 2.028 . S
Mg84 O91 1.986 . S
Mg84 O93 2.123 . S
Mg84 O94 2.251 . S
Mg84 O97 2.010 1_545 S
O85 Mg84 2.028 . S
O85 C88 1.250 . S
O86 Mg87 2.028 . S
O86 C88 1.248 . S
Mg87 O86 2.028 . S
Mg87 O92 2.032 . S
Mg87 O94 2.079 . S
C88 O85 1.250 . S
C88 O86 1.248 . S
C89 O90 1.264 . S
C89 O97 1.249 . S
O90 C89 1.264 . S
O91 Mg84 1.986 . S
O91 C95 1.246 . S
O92 Mg87 2.032 . S
O92 C95 1.259 . S
O93 Mg84 2.123 . S
O93 C96 1.269 . S
O94 Mg84 2.251 . S
O94 Mg87 2.079 . S
O94 C96 1.273 . S
C95 O91 1.246 . S
C95 O92 1.259 . S
C96 O93 1.269 . S
C96 O94 1.273 . S
O97 Mg84 2.010 1_565 S
O97 C89 1.249 . S
Mg98 O99 2.028 . S
Mg98 O105 1.986 . S
Mg98 O107 2.114 . S
Mg98 O108 2.251 . S
Mg98 O111 2.010 . S
O99 Mg98 2.028 . S
O99 C102 1.250 . S
O100 Mg101 2.028 . S
O100 C102 1.248 . S
Mg101 O100 2.028 . S
Mg101 O106 2.032 . S
Mg101 O108 2.079 . S
C102 O99 1.250 . S
C102 O100 1.248 . S
C103 O104 1.264 . S
C103 O111 1.249 . S
O104 C103 1.264 . S
O105 Mg98 1.986 . S
O105 C109 1.246 . S
O106 Mg101 2.032 . S
O106 C109 1.259 . S
O107 Mg98 2.114 . S
O107 C110 1.252 . S
O108 Mg98 2.251 . S
O108 Mg101 2.079 . S
O108 C110 1.273 . S
C109 O105 1.246 . S
C109 O106 1.259 . S
C110 O107 1.252 . S
C110 O108 1.273 . S
O111 Mg98 2.010 . S
O111 C103 1.249 . S
Mg112 O113 2.028 . S
Mg112 O119 1.986 . S
Mg112 O121 2.114 . S
Mg112 O122 2.251 . S
Mg112 O125 2.010 . S
O113 Mg112 2.028 . S
O113 C116 1.250 . S
O114 Mg115 2.028 . S
O114 C116 1.248 . S
Mg115 O114 2.028 . S
Mg115 O120 2.032 . S
Mg115 O122 2.079 . S
C116 O113 1.250 . S
C116 O114 1.248 . S
C117 O118 1.264 . S
C117 O125 1.249 . S
O118 C117 1.264 . S
O119 Mg112 1.986 . S
O119 C123 1.246 . S
O120 Mg115 2.032 . S
O120 C123 1.259 . S
O121 Mg112 2.114 . S
O121 C124 1.252 . S
O122 Mg112 2.251 . S
O122 Mg115 2.079 . S
O122 C124 1.273 . S
C123 O119 1.246 . S
C123 O120 1.259 . S
C124 O121 1.252 . S
C124 O122 1.273 . S
O125 Mg112 2.010 . S
O125 C117 1.249 . S
Mg126 O127 2.028 . S
Mg126 O133 1.986 . S
Mg126 O135 2.114 . S
Mg126 O136 2.251 . S
Mg126 O139 2.010 . S
O127 Mg126 2.028 . S
O127 C130 1.250 . S
O128 Mg129 2.028 . S
O128 C130 1.248 . S
Mg129 O128 2.028 . S
Mg129 O134 2.032 . S
Mg129 O136 2.079 . S
C130 O127 1.250 . S
C130 O128 1.248 . S
C131 O132 1.264 . S
C131 O139 1.249 . S
O132 C131 1.264 . S
O133 Mg126 1.986 . S
O133 C137 1.246 . S
O134 Mg129 2.032 . S
O134 C137 1.259 . S
O135 Mg126 2.114 . S
O135 C138 1.252 . S
O136 Mg126 2.251 . S
O136 Mg129 2.079 . S
O136 C138 1.273 . S
C137 O133 1.246 . S
C137 O134 1.259 . S
C138 O135 1.252 . S
C138 O136 1.273 . S
O139 Mg126 2.010 . S
O139 C131 1.249 . S
Mg140 O141 2.028 . S
Mg140 O147 1.986 . S
Mg140 O149 2.123 . S
Mg140 O150 2.251 . S
Mg140 O153 2.010 1_554 S
O141 Mg140 2.028 . S
O141 C144 1.250 . S
O142 Mg143 2.028 . S
O142 C144 1.248 . S
Mg143 O142 2.028 . S
Mg143 O148 2.032 . S
Mg143 O150 2.079 . S
C144 O141 1.250 . S
C144 O142 1.248 . S
C145 O146 1.264 . S
C145 O153 1.249 . S
O146 C145 1.264 . S
O147 Mg140 1.986 . S
O147 C151 1.246 . S
O148 Mg143 2.032 . S
O148 C151 1.259 . S
O149 Mg140 2.123 . S
O149 C152 1.269 . S
O150 Mg140 2.251 . S
O150 Mg143 2.079 . S
O150 C152 1.273 . S
C151 O147 1.246 . S
C151 O148 1.259 . S
C152 O149 1.269 . S
C152 O150 1.273 . S
O153 Mg140 2.010 1_556 S
O153 C145 1.249 . S
Mg154 O155 2.028 . S
Mg154 O161 1.986 . S
Mg154 O163 2.114 . S
Mg154 O164 2.251 . S
Mg154 O167 2.010 . S
O155 Mg154 2.028 . S
O155 C158 1.250 . S
O156 Mg157 2.028 . S
O156 C158 1.248 . S
Mg157 O156 2.028 . S
Mg157 O162 2.032 . S
Mg157 O164 2.079 . S
C158 O155 1.250 . S
C158 O156 1.248 . S
C159 O160 1.264 . S
C159 O167 1.249 . S
O160 C159 1.264 . S
O161 Mg154 1.986 . S
O161 C165 1.246 . S
O162 Mg157 2.032 . S
O162 C165 1.259 . S
O163 Mg154 2.114 . S
O163 C166 1.252 . S
O164 Mg154 2.251 . S
O164 Mg157 2.079 . S
O164 C166 1.273 . S
C165 O161 1.246 . S
C165 O162 1.259 . S
C166 O163 1.252 . S
C166 O164 1.273 . S
O167 Mg154 2.010 . S
O167 C159 1.249 . S
Mg168 O169 2.028 . S
Mg168 O175 1.986 . S
Mg168 O177 2.114 . S
Mg168 O178 2.251 . S
Mg168 O181 2.010 . S
O169 Mg168 2.028 . S
O169 C172 1.250 . S
O170 Mg171 2.028 . S
O170 C172 1.248 . S
Mg171 O170 2.028 . S
Mg171 O176 2.032 . S
Mg171 O178 2.079 . S
C172 O169 1.250 . S
C172 O170 1.248 . S
C173 O174 1.264 . S
C173 O181 1.249 . S
O174 C173 1.264 . S
O175 Mg168 1.986 . S
O175 C179 1.246 . S
O176 Mg171 2.032 . S
O176 C179 1.259 . S
O177 Mg168 2.114 . S
O177 C180 1.252 . S
O178 Mg168 2.251 . S
O178 Mg171 2.079 . S
O178 C180 1.273 . S
C179 O175 1.246 . S
C179 O176 1.259 . S
C180 O177 1.252 . S
C180 O178 1.273 . S
O181 Mg168 2.010 . S
O181 C173 1.249 . S
Mg182 O183 2.028 . S
Mg182 O189 1.986 . S
Mg182 O191 2.114 . S
Mg182 O192 2.251 . S
Mg182 O195 2.010 . S
O183 Mg182 2.028 . S
O183 C186 1.250 . S
O184 Mg185 2.028 . S
O184 C186 1.248 . S
Mg185 O184 2.028 . S
Mg185 O190 2.032 . S
Mg185 O192 2.079 . S
C186 O183 1.250 . S
C186 O184 1.248 . S
C187 O188 1.264 . S
C187 O195 1.249 . S
O188 C187 1.264 . S
O189 Mg182 1.986 . S
O189 C193 1.246 . S
O190 Mg185 2.032 . S
O190 C193 1.259 . S
O191 Mg182 2.114 . S
O191 C194 1.252 . S
O192 Mg182 2.251 . S
O192 Mg185 2.079 . S
O192 C194 1.273 . S
C193 O189 1.246 . S
C193 O190 1.259 . S
C194 O191 1.252 . S
C194 O192 1.273 . S
O195 Mg182 2.010 . S
O195 C187 1.249 . S
Mg196 O197 2.028 . S
Mg196 O203 1.986 . S
Mg196 O205 2.123 . S
Mg196 O206 2.251 . S
Mg196 O209 2.010 1_556 S
O197 Mg196 2.028 . S
O197 C200 1.250 . S
O198 Mg199 2.028 . S
O198 C200 1.248 . S
Mg199 O198 2.028 . S
Mg199 O204 2.032 . S
Mg199 O206 2.079 . S
C200 O197 1.250 . S
C200 O198 1.248 . S
C201 O202 1.264 . S
C201 O209 1.249 . S
O202 C201 1.264 . S
O203 Mg196 1.986 . S
O203 C207 1.246 . S
O204 Mg199 2.032 . S
O204 C207 1.259 . S
O205 Mg196 2.123 . S
O205 C208 1.269 . S
O206 Mg196 2.251 . S
O206 Mg199 2.079 . S
O206 C208 1.273 . S
C207 O203 1.246 . S
C207 O204 1.259 . S
C208 O205 1.269 . S
C208 O206 1.273 . S
O209 Mg196 2.010 1_554 S
O209 C201 1.249 . S
Mg210 O211 2.028 . S
Mg210 O217 1.986 . S
Mg210 O219 2.114 . S
Mg210 O220 2.251 . S
Mg210 O223 2.010 . S
O211 Mg210 2.028 . S
O211 C214 1.250 . S
O212 Mg213 2.028 . S
O212 C214 1.248 . S
Mg213 O212 2.028 . S
Mg213 O218 2.032 . S
Mg213 O220 2.079 . S
C214 O211 1.250 . S
C214 O212 1.248 . S
C215 O216 1.264 . S
C215 O223 1.249 . S
O216 C215 1.264 . S
O217 Mg210 1.986 . S
O217 C221 1.246 . S
O218 Mg213 2.032 . S
O218 C221 1.259 . S
O219 Mg210 2.114 . S
O219 C222 1.252 . S
O220 Mg210 2.251 . S
O220 Mg213 2.079 . S
O220 C222 1.273 . S
C221 O217 1.246 . S
C221 O218 1.259 . S
C222 O219 1.252 . S
C222 O220 1.273 . S
O223 Mg210 2.010 . S
O223 C215 1.249 . S
Mg224 O225 2.028 . S
Mg224 O231 1.986 . S
Mg224 O233 2.114 . S
Mg224 O234 2.251 . S
Mg224 O237 2.010 . S
O225 Mg224 2.028 . S
O225 C228 1.250 . S
O226 Mg227 2.028 . S
O226 C228 1.248 . S
Mg227 O226 2.028 . S
Mg227 O232 2.032 . S
Mg227 O234 2.079 . S
C228 O225 1.250 . S
C228 O226 1.248 . S
C229 O230 1.264 . S
C229 O237 1.249 . S
O230 C229 1.264 . S
O231 Mg224 1.986 . S
O231 C235 1.246 . S
O232 Mg227 2.032 . S
O232 C235 1.259 . S
O233 Mg224 2.114 . S
O233 C236 1.252 . S
O234 Mg224 2.251 . S
O234 Mg227 2.079 . S
O234 C236 1.273 . S
C235 O231 1.246 . S
C235 O232 1.259 . S
C236 O233 1.252 . S
C236 O234 1.273 . S
O237 Mg224 2.010 . S
O237 C229 1.249 . S
Mg238 O239 2.028 . S
Mg238 O245 1.986 . S
Mg238 O247 2.123 . S
Mg238 O248 2.251 . S
Mg238 O251 2.010 1_455 S
O239 Mg238 2.028 . S
O239 C242 1.250 . S
O240 Mg241 2.028 . S
O240 C242 1.248 . S
Mg241 O240 2.028 . S
Mg241 O246 2.032 . S
Mg241 O248 2.079 . S
C242 O239 1.250 . S
C242 O240 1.248 . S
C243 O244 1.264 . S
C243 O251 1.249 . S
O244 C243 1.264 . S
O245 Mg238 1.986 . S
O245 C249 1.246 . S
O246 Mg241 2.032 . S
O246 C249 1.259 . S
O247 Mg238 2.123 . S
O247 C250 1.269 . S
O248 Mg238 2.251 . S
O248 Mg241 2.079 . S
O248 C250 1.273 . S
C249 O245 1.246 . S
C249 O246 1.259 . S
C250 O247 1.269 . S
C250 O248 1.273 . S
O251 Mg238 2.010 1_655 S
O251 C243 1.249 . S
Mg252 O253 2.028 . S
Mg252 O259 1.986 . S
Mg252 O261 2.114 . S
Mg252 O262 2.251 . S
Mg252 O265 2.010 . S
O253 Mg252 2.028 . S
O253 C256 1.250 . S
O254 Mg255 2.028 . S
O254 C256 1.248 . S
Mg255 O254 2.028 . S
Mg255 O260 2.032 . S
Mg255 O262 2.079 . S
C256 O253 1.250 . S
C256 O254 1.248 . S
C257 O258 1.264 . S
C257 O265 1.249 . S
O258 C257 1.264 . S
O259 Mg252 1.986 . S
O259 C263 1.246 . S
O260 Mg255 2.032 . S
O260 C263 1.259 . S
O261 Mg252 2.114 . S
O261 C264 1.252 . S
O262 Mg252 2.251 . S
O262 Mg255 2.079 . S
O262 C264 1.273 . S
C263 O259 1.246 . S
C263 O260 1.259 . S
C264 O261 1.252 . S
C264 O262 1.273 . S
O265 Mg252 2.010 . S
O265 C257 1.249 . S
Mg266 O267 2.028 . S
Mg266 O273 1.986 . S
Mg266 O275 2.123 . S
Mg266 O276 2.251 . S
Mg266 O279 2.010 1_655 S
O267 Mg266 2.028 . S
O267 C270 1.250 . S
O268 Mg269 2.028 . S
O268 C270 1.248 . S
Mg269 O268 2.028 . S
Mg269 O274 2.032 . S
Mg269 O276 2.079 . S
C270 O267 1.250 . S
C270 O268 1.248 . S
C271 O272 1.264 . S
C271 O279 1.249 . S
O272 C271 1.264 . S
O273 Mg266 1.986 . S
O273 C277 1.246 . S
O274 Mg269 2.032 . S
O274 C277 1.259 . S
O275 Mg266 2.123 . S
O275 C278 1.269 . S
O276 Mg266 2.251 . S
O276 Mg269 2.079 . S
O276 C278 1.273 . S
C277 O273 1.246 . S
C277 O274 1.259 . S
C278 O275 1.269 . S
C278 O276 1.273 . S
O279 Mg266 2.010 1_455 S
O279 C271 1.249 . S
Mg280 O281 2.028 . S
Mg280 O287 1.986 . S
Mg280 O289 2.114 . S
Mg280 O290 2.251 . S
Mg280 O293 2.010 . S
O281 Mg280 2.028 . S
O281 C284 1.250 . S
O282 Mg283 2.028 . S
O282 C284 1.248 . S
Mg283 O282 2.028 . S
Mg283 O288 2.032 . S
Mg283 O290 2.079 . S
C284 O281 1.250 . S
C284 O282 1.248 . S
C285 O286 1.264 . S
C285 O293 1.249 . S
O286 C285 1.264 . S
O287 Mg280 1.986 . S
O287 C291 1.246 . S
O288 Mg283 2.032 . S
O288 C291 1.259 . S
O289 Mg280 2.114 . S
O289 C292 1.252 . S
O290 Mg280 2.251 . S
O290 Mg283 2.079 . S
O290 C292 1.273 . S
C291 O287 1.246 . S
C291 O288 1.259 . S
C292 O289 1.252 . S
C292 O290 1.273 . S
O293 Mg280 2.010 . S
O293 C285 1.249 . S
Mg294 O295 2.028 . S
Mg294 O301 1.986 . S
Mg294 O303 2.114 . S
Mg294 O304 2.251 . S
Mg294 O307 2.010 . S
O295 Mg294 2.028 . S
O295 C298 1.250 . S
O296 Mg297 2.028 . S
O296 C298 1.248 . S
Mg297 O296 2.028 . S
Mg297 O302 2.032 . S
Mg297 O304 2.079 . S
C298 O295 1.250 . S
C298 O296 1.248 . S
C299 O300 1.264 . S
C299 O307 1.249 . S
O300 C299 1.264 . S
O301 Mg294 1.986 . S
O301 C305 1.246 . S
O302 Mg297 2.032 . S
O302 C305 1.259 . S
O303 Mg294 2.114 . S
O303 C306 1.252 . S
O304 Mg294 2.251 . S
O304 Mg297 2.079 . S
O304 C306 1.273 . S
C305 O301 1.246 . S
C305 O302 1.259 . S
C306 O303 1.252 . S
C306 O304 1.273 . S
O307 Mg294 2.010 . S
O307 C299 1.249 . S
Mg308 O309 2.028 . S
Mg308 O315 1.986 . S
Mg308 O317 2.114 . S
Mg308 O318 2.251 . S
Mg308 O321 2.010 . S
O309 Mg308 2.028 . S
O309 C312 1.250 . S
O310 Mg311 2.028 . S
O310 C312 1.248 . S
Mg311 O310 2.028 . S
Mg311 O316 2.032 . S
Mg311 O318 2.079 . S
C312 O309 1.250 . S
C312 O310 1.248 . S
C313 O314 1.264 . S
C313 O321 1.249 . S
O314 C313 1.264 . S
O315 Mg308 1.986 . S
O315 C319 1.246 . S
O316 Mg311 2.032 . S
O316 C319 1.259 . S
O317 Mg308 2.114 . S
O317 C320 1.252 . S
O318 Mg308 2.251 . S
O318 Mg311 2.079 . S
O318 C320 1.273 . S
C319 O315 1.246 . S
C319 O316 1.259 . S
C320 O317 1.252 . S
C320 O318 1.273 . S
O321 Mg308 2.010 . S
O321 C313 1.249 . S
Mg322 O323 2.028 . S
Mg322 O329 1.986 . S
Mg322 O331 2.114 . S
Mg322 O332 2.251 . S
Mg322 O335 2.010 . S
O323 Mg322 2.028 . S
O323 C326 1.250 . S
O324 Mg325 2.028 . S
O324 C326 1.248 . S
Mg325 O324 2.028 . S
Mg325 O330 2.032 . S
Mg325 O332 2.079 . S
C326 O323 1.250 . S
C326 O324 1.248 . S
C327 O328 1.264 . S
C327 O335 1.249 . S
O328 C327 1.264 . S
O329 Mg322 1.986 . S
O329 C333 1.246 . S
O330 Mg325 2.032 . S
O330 C333 1.259 . S
O331 Mg322 2.114 . S
O331 C334 1.252 . S
O332 Mg322 2.251 . S
O332 Mg325 2.079 . S
O332 C334 1.273 . S
C333 O329 1.246 . S
C333 O330 1.259 . S
C334 O331 1.252 . S
C334 O332 1.273 . S
O335 Mg322 2.010 . S
O335 C327 1.249 . S
Mg336 O337 2.028 . S
Mg336 O343 1.986 . S
Mg336 O345 2.123 . S
Mg336 O346 2.251 . S
Mg336 O349 2.010 1_545 S
O337 Mg336 2.028 . S
O337 C340 1.250 . S
O338 Mg339 2.028 . S
O338 C340 1.248 . S
Mg339 O338 2.028 . S
Mg339 O344 2.032 . S
Mg339 O346 2.079 . S
C340 O337 1.250 . S
C340 O338 1.248 . S
C341 O342 1.264 . S
C341 O349 1.249 . S
O342 C341 1.264 . S
O343 Mg336 1.986 . S
O343 C347 1.246 . S
O344 Mg339 2.032 . S
O344 C347 1.259 . S
O345 Mg336 2.123 . S
O345 C348 1.269 . S
O346 Mg336 2.251 . S
O346 Mg339 2.079 . S
O346 C348 1.273 . S
C347 O343 1.246 . S
C347 O344 1.259 . S
C348 O345 1.269 . S
C348 O346 1.273 . S
O349 Mg336 2.010 1_565 S
O349 C341 1.249 . S
Mg350 O351 2.028 . S
Mg350 O357 1.986 . S
Mg350 O359 2.114 . S
Mg350 O360 2.251 . S
Mg350 O363 2.010 . S
O351 Mg350 2.028 . S
O351 C354 1.250 . S
O352 Mg353 2.028 . S
O352 C354 1.248 . S
Mg353 O352 2.028 . S
Mg353 O358 2.032 . S
Mg353 O360 2.079 . S
C354 O351 1.250 . S
C354 O352 1.248 . S
C355 O356 1.264 . S
C355 O363 1.249 . S
O356 C355 1.264 . S
O357 Mg350 1.986 . S
O357 C361 1.246 . S
O358 Mg353 2.032 . S
O358 C361 1.259 . S
O359 Mg350 2.114 . S
O359 C362 1.252 . S
O360 Mg350 2.251 . S
O360 Mg353 2.079 . S
O360 C362 1.273 . S
C361 O357 1.246 . S
C361 O358 1.259 . S
C362 O359 1.252 . S
C362 O360 1.273 . S
O363 Mg350 2.010 . S
O363 C355 1.249 . S
Mg364 O365 2.028 . S
Mg364 O371 1.986 . S
Mg364 O373 2.114 . S
Mg364 O374 2.251 . S
Mg364 O377 2.010 . S
O365 Mg364 2.028 . S
O365 C368 1.250 . S
O366 Mg367 2.028 . S
O366 C368 1.248 . S
Mg367 O366 2.028 . S
Mg367 O372 2.032 . S
Mg367 O374 2.079 . S
C368 O365 1.250 . S
C368 O366 1.248 . S
C369 O370 1.264 . S
C369 O377 1.249 . S
O370 C369 1.264 . S
O371 Mg364 1.986 . S
O371 C375 1.246 . S
O372 Mg367 2.032 . S
O372 C375 1.259 . S
O373 Mg364 2.114 . S
O373 C376 1.252 . S
O374 Mg364 2.251 . S
O374 Mg367 2.079 . S
O374 C376 1.273 . S
C375 O371 1.246 . S
C375 O372 1.259 . S
C376 O373 1.252 . S
C376 O374 1.273 . S
O377 Mg364 2.010 . S
O377 C369 1.249 . S
Mg378 O379 2.028 . S
Mg378 O385 1.986 . S
Mg378 O387 2.114 . S
Mg378 O388 2.251 . S
Mg378 O391 2.010 . S
O379 Mg378 2.028 . S
O379 C382 1.250 . S
O380 Mg381 2.028 . S
O380 C382 1.248 . S
Mg381 O380 2.028 . S
Mg381 O386 2.032 . S
Mg381 O388 2.079 . S
C382 O379 1.250 . S
C382 O380 1.248 . S
C383 O384 1.264 . S
C383 O391 1.249 . S
O384 C383 1.264 . S
O385 Mg378 1.986 . S
O385 C389 1.246 . S
O386 Mg381 2.032 . S
O386 C389 1.259 . S
O387 Mg378 2.114 . S
O387 C390 1.252 . S
O388 Mg378 2.251 . S
O388 Mg381 2.079 . S
O388 C390 1.273 . S
C389 O385 1.246 . S
C389 O386 1.259 . S
C390 O387 1.252 . S
C390 O388 1.273 . S
O391 Mg378 2.010 . S
O391 C383 1.249 . S
Mg392 O393 2.028 . S
Mg392 O399 1.986 . S
Mg392 O401 2.123 . S
Mg392 O402 2.251 . S
Mg392 O405 2.010 1_565 S
O393 Mg392 2.028 . S
O393 C396 1.250 . S
O394 Mg395 2.028 . S
O394 C396 1.248 . S
Mg395 O394 2.028 . S
Mg395 O400 2.032 . S
Mg395 O402 2.079 . S
C396 O393 1.250 . S
C396 O394 1.248 . S
C397 O398 1.264 . S
C397 O405 1.249 . S
O398 C397 1.264 . S
O399 Mg392 1.986 . S
O399 C403 1.246 . S
O400 Mg395 2.032 . S
O400 C403 1.259 . S
O401 Mg392 2.123 . S
O401 C404 1.269 . S
O402 Mg392 2.251 . S
O402 Mg395 2.079 . S
O402 C404 1.273 . S
C403 O399 1.246 . S
C403 O400 1.259 . S
C404 O401 1.269 . S
C404 O402 1.273 . S
O405 Mg392 2.010 1_545 S
O405 C397 1.249 . S
Mg406 O407 2.028 . S
Mg406 O413 1.986 . S
Mg406 O415 2.114 . S
Mg406 O416 2.251 . S
Mg406 O419 2.010 . S
O407 Mg406 2.028 . S
O407 C410 1.250 . S
O408 Mg409 2.028 . S
O408 C410 1.248 . S
Mg409 O408 2.028 . S
Mg409 O414 2.032 . S
Mg409 O416 2.079 . S
C410 O407 1.250 . S
C410 O408 1.248 . S
C411 O412 1.264 . S
C411 O419 1.249 . S
O412 C411 1.264 . S
O413 Mg406 1.986 . S
O413 C417 1.246 . S
O414 Mg409 2.032 . S
O414 C417 1.259 . S
O415 Mg406 2.114 . S
O415 C418 1.252 . S
O416 Mg406 2.251 . S
O416 Mg409 2.079 . S
O416 C418 1.273 . S
C417 O413 1.246 . S
C417 O414 1.259 . S
C418 O415 1.252 . S
C418 O416 1.273 . S
O419 Mg406 2.010 . S
O419 C411 1.249 . S
Mg420 O421 2.028 . S
Mg420 O427 1.986 . S
Mg420 O429 2.114 . S
Mg420 O430 2.251 . S
Mg420 O433 2.010 . S
O421 Mg420 2.028 . S
O421 C424 1.250 . S
O422 Mg423 2.028 . S
O422 C424 1.248 . S
Mg423 O422 2.028 . S
Mg423 O428 2.032 . S
Mg423 O430 2.079 . S
C424 O421 1.250 . S
C424 O422 1.248 . S
C425 O426 1.264 . S
C425 O433 1.249 . S
O426 C425 1.264 . S
O427 Mg420 1.986 . S
O427 C431 1.246 . S
O428 Mg423 2.032 . S
O428 C431 1.259 . S
O429 Mg420 2.114 . S
O429 C432 1.252 . S
O430 Mg420 2.251 . S
O430 Mg423 2.079 . S
O430 C432 1.273 . S
C431 O427 1.246 . S
C431 O428 1.259 . S
C432 O429 1.252 . S
C432 O430 1.273 . S
O433 Mg420 2.010 . S
O433 C425 1.249 . S
Mg434 O435 2.028 . S
Mg434 O441 1.986 . S
Mg434 O443 2.114 . S
Mg434 O444 2.251 . S
Mg434 O447 2.010 . S
O435 Mg434 2.028 . S
O435 C438 1.250 . S
O436 Mg437 2.028 . S
O436 C438 1.248 . S
Mg437 O436 2.028 . S
Mg437 O442 2.032 . S
Mg437 O444 2.079 . S
C438 O435 1.250 . S
C438 O436 1.248 . S
C439 O440 1.264 . S
C439 O447 1.249 . S
O440 C439 1.264 . S
O441 Mg434 1.986 . S
O441 C445 1.246 . S
O442 Mg437 2.032 . S
O442 C445 1.259 . S
O443 Mg434 2.114 . S
O443 C446 1.252 . S
O444 Mg434 2.251 . S
O444 Mg437 2.079 . S
O444 C446 1.273 . S
C445 O441 1.246 . S
C445 O442 1.259 . S
C446 O443 1.252 . S
C446 O444 1.273 . S
O447 Mg434 2.010 . S
O447 C439 1.249 . S
Mg448 O449 2.028 . S
Mg448 O455 1.986 . S
Mg448 O457 2.123 . S
Mg448 O458 2.251 . S
Mg448 O461 2.010 1_554 S
O449 Mg448 2.028 . S
O449 C452 1.250 . S
O450 Mg451 2.028 . S
O450 C452 1.248 . S
Mg451 O450 2.028 . S
Mg451 O456 2.032 . S
Mg451 O458 2.079 . S
C452 O449 1.250 . S
C452 O450 1.248 . S
C453 O454 1.264 . S
C453 O461 1.249 . S
O454 C453 1.264 . S
O455 Mg448 1.986 . S
O455 C459 1.246 . S
O456 Mg451 2.032 . S
O456 C459 1.259 . S
O457 Mg448 2.123 . S
O457 C460 1.269 . S
O458 Mg448 2.251 . S
O458 Mg451 2.079 . S
O458 C460 1.273 . S
C459 O455 1.246 . S
C459 O456 1.259 . S
C460 O457 1.269 . S
C460 O458 1.273 . S
O461 Mg448 2.010 1_556 S
O461 C453 1.249 . S
Mg462 O463 2.028 . S
Mg462 O469 1.986 . S
Mg462 O471 2.114 . S
Mg462 O472 2.251 . S
Mg462 O475 2.010 . S
O463 Mg462 2.028 . S
O463 C466 1.250 . S
O464 Mg465 2.028 . S
O464 C466 1.248 . S
Mg465 O464 2.028 . S
Mg465 O470 2.032 . S
Mg465 O472 2.079 . S
C466 O463 1.250 . S
C466 O464 1.248 . S
C467 O468 1.264 . S
C467 O475 1.249 . S
O468 C467 1.264 . S
O469 Mg462 1.986 . S
O469 C473 1.246 . S
O470 Mg465 2.032 . S
O470 C473 1.259 . S
O471 Mg462 2.114 . S
O471 C474 1.252 . S
O472 Mg462 2.251 . S
O472 Mg465 2.079 . S
O472 C474 1.273 . S
C473 O469 1.246 . S
C473 O470 1.259 . S
C474 O471 1.252 . S
C474 O472 1.273 . S
O475 Mg462 2.010 . S
O475 C467 1.249 . S
Mg476 O477 2.028 . S
Mg476 O483 1.986 . S
Mg476 O485 2.114 . S
Mg476 O486 2.251 . S
Mg476 O489 2.010 . S
O477 Mg476 2.028 . S
O477 C480 1.250 . S
O478 Mg479 2.028 . S
O478 C480 1.248 . S
Mg479 O478 2.028 . S
Mg479 O484 2.032 . S
Mg479 O486 2.079 . S
C480 O477 1.250 . S
C480 O478 1.248 . S
C481 O482 1.264 . S
C481 O489 1.249 . S
O482 C481 1.264 . S
O483 Mg476 1.986 . S
O483 C487 1.246 . S
O484 Mg479 2.032 . S
O484 C487 1.259 . S
O485 Mg476 2.114 . S
O485 C488 1.252 . S
O486 Mg476 2.251 . S
O486 Mg479 2.079 . S
O486 C488 1.273 . S
C487 O483 1.246 . S
C487 O484 1.259 . S
C488 O485 1.252 . S
C488 O486 1.273 . S
O489 Mg476 2.010 . S
O489 C481 1.249 . S
Mg490 O491 2.028 . S
Mg490 O497 1.986 . S
Mg490 O499 2.114 . S
Mg490 O500 2.251 . S
Mg490 O503 2.010 . S
O491 Mg490 2.028 . S
O491 C494 1.250 . S
O492 Mg493 2.028 . S
O492 C494 1.248 . S
Mg493 O492 2.028 . S
Mg493 O498 2.032 . S
Mg493 O500 2.079 . S
C494 O491 1.250 . S
C494 O492 1.248 . S
C495 O496 1.264 . S
C495 O503 1.249 . S
O496 C495 1.264 . S
O497 Mg490 1.986 . S
O497 C501 1.246 . S
O498 Mg493 2.032 . S
O498 C501 1.259 . S
O499 Mg490 2.114 . S
O499 C502 1.252 . S
O500 Mg490 2.251 . S
O500 Mg493 2.079 . S
O500 C502 1.273 . S
C501 O497 1.246 . S
C501 O498 1.259 . S
C502 O499 1.252 . S
C502 O500 1.273 . S
O503 Mg490 2.010 . S
O503 C495 1.249 . S
Mg504 O505 2.028 . S
Mg504 O511 1.986 . S
Mg504 O513 2.123 . S
Mg504 O514 2.251 . S
Mg504 O517 2.010 1_556 S
O505 Mg504 2.028 . S
O505 C508 1.250 . S
O506 Mg507 2.028 . S
O506 C508 1.248 . S
Mg507 O506 2.028 . S
Mg507 O512 2.032 . S
Mg507 O514 2.079 . S
C508 O505 1.250 . S
C508 O506 1.248 . S
C509 O510 1.264 . S
C509 O517 1.249 . S
O510 C509 1.264 . S
O511 Mg504 1.986 . S
O511 C515 1.246 . S
O512 Mg507 2.032 . S
O512 C515 1.259 . S
O513 Mg504 2.123 . S
O513 C516 1.269 . S
O514 Mg504 2.251 . S
O514 Mg507 2.079 . S
O514 C516 1.273 . S
C515 O511 1.246 . S
C515 O512 1.259 . S
C516 O513 1.269 . S
C516 O514 1.273 . S
O517 Mg504 2.010 1_554 S
O517 C509 1.249 . S
Mg518 O519 2.028 . S
Mg518 O525 1.986 . S
Mg518 O527 2.114 . S
Mg518 O528 2.251 . S
Mg518 O531 2.010 . S
O519 Mg518 2.028 . S
O519 C522 1.250 . S
O520 Mg521 2.028 . S
O520 C522 1.248 . S
Mg521 O520 2.028 . S
Mg521 O526 2.032 . S
Mg521 O528 2.079 . S
C522 O519 1.250 . S
C522 O520 1.248 . S
C523 O524 1.264 . S
C523 O531 1.249 . S
O524 C523 1.264 . S
O525 Mg518 1.986 . S
O525 C529 1.246 . S
O526 Mg521 2.032 . S
O526 C529 1.259 . S
O527 Mg518 2.114 . S
O527 C530 1.252 . S
O528 Mg518 2.251 . S
O528 Mg521 2.079 . S
O528 C530 1.273 . S
C529 O525 1.246 . S
C529 O526 1.259 . S
C530 O527 1.252 . S
C530 O528 1.273 . S
O531 Mg518 2.010 . S
O531 C523 1.249 . S
Mg532 O533 2.028 . S
Mg532 O539 1.986 . S
Mg532 O541 2.114 . S
Mg532 O542 2.251 . S
Mg532 O545 2.010 . S
O533 Mg532 2.028 . S
O533 C536 1.250 . S
O534 Mg535 2.028 . S
O534 C536 1.248 . S
Mg535 O534 2.028 . S
Mg535 O540 2.032 . S
Mg535 O542 2.079 . S
C536 O533 1.250 . S
C536 O534 1.248 . S
C537 O538 1.264 . S
C537 O545 1.249 . S
O538 C537 1.264 . S
O539 Mg532 1.986 . S
O539 C543 1.246 . S
O540 Mg535 2.032 . S
O540 C543 1.259 . S
O541 Mg532 2.114 . S
O541 C544 1.252 . S
O542 Mg532 2.251 . S
O542 Mg535 2.079 . S
O542 C544 1.273 . S
C543 O539 1.246 . S
C543 O540 1.259 . S
C544 O541 1.252 . S
C544 O542 1.273 . S
O545 Mg532 2.010 . S
O545 C537 1.249 . S
Mg546 O547 2.028 . S
Mg546 O553 1.986 . S
Mg546 O555 2.114 . S
Mg546 O556 2.251 . S
Mg546 O559 2.010 . S
O547 Mg546 2.028 . S
O547 C550 1.250 . S
O548 Mg549 2.028 . S
O548 C550 1.248 . S
Mg549 O548 2.028 . S
Mg549 O554 2.032 . S
Mg549 O556 2.079 . S
C550 O547 1.250 . S
C550 O548 1.248 . S
C551 O552 1.264 . S
C551 O559 1.249 . S
O552 C551 1.264 . S
O553 Mg546 1.986 . S
O553 C557 1.246 . S
O554 Mg549 2.032 . S
O554 C557 1.259 . S
O555 Mg546 2.114 . S
O555 C558 1.252 . S
O556 Mg546 2.251 . S
O556 Mg549 2.079 . S
O556 C558 1.273 . S
C557 O553 1.246 . S
C557 O554 1.259 . S
C558 O555 1.252 . S
C558 O556 1.273 . S
O559 Mg546 2.010 . S
O559 C551 1.249 . S
Mg560 O561 2.028 . S
Mg560 O567 1.986 . S
Mg560 O569 2.114 . S
Mg560 O570 2.251 . S
Mg560 O573 2.010 . S
O561 Mg560 2.028 . S
O561 C564 1.250 . S
O562 Mg563 2.028 . S
O562 C564 1.248 . S
Mg563 O562 2.028 . S
Mg563 O568 2.032 . S
Mg563 O570 2.079 . S
C564 O561 1.250 . S
C564 O562 1.248 . S
C565 O566 1.264 . S
C565 O573 1.249 . S
O566 C565 1.264 . S
O567 Mg560 1.986 . S
O567 C571 1.246 . S
O568 Mg563 2.032 . S
O568 C571 1.259 . S
O569 Mg560 2.114 . S
O569 C572 1.252 . S
O570 Mg560 2.251 . S
O570 Mg563 2.079 . S
O570 C572 1.273 . S
C571 O567 1.246 . S
C571 O568 1.259 . S
C572 O569 1.252 . S
C572 O570 1.273 . S
O573 Mg560 2.010 . S
O573 C565 1.249 . S
Mg574 O575 2.028 . S
Mg574 O581 1.986 . S
Mg574 O583 2.123 . S
Mg574 O584 2.251 . S
Mg574 O587 2.010 1_455 S
O575 Mg574 2.028 . S
O575 C578 1.250 . S
O576 Mg577 2.028 . S
O576 C578 1.248 . S
Mg577 O576 2.028 . S
Mg577 O582 2.032 . S
Mg577 O584 2.079 . S
C578 O575 1.250 . S
C578 O576 1.248 . S
C579 O580 1.264 . S
C579 O587 1.249 . S
O580 C579 1.264 . S
O581 Mg574 1.986 . S
O581 C585 1.246 . S
O582 Mg577 2.032 . S
O582 C585 1.259 . S
O583 Mg574 2.123 . S
O583 C586 1.269 . S
O584 Mg574 2.251 . S
O584 Mg577 2.079 . S
O584 C586 1.273 . S
C585 O581 1.246 . S
C585 O582 1.259 . S
C586 O583 1.269 . S
C586 O584 1.273 . S
O587 Mg574 2.010 1_655 S
O587 C579 1.249 . S
Mg588 O589 2.028 . S
Mg588 O595 1.986 . S
Mg588 O597 2.114 . S
Mg588 O598 2.251 . S
Mg588 O601 2.010 . S
O589 Mg588 2.028 . S
O589 C592 1.250 . S
O590 Mg591 2.028 . S
O590 C592 1.248 . S
Mg591 O590 2.028 . S
Mg591 O596 2.032 . S
Mg591 O598 2.079 . S
C592 O589 1.250 . S
C592 O590 1.248 . S
C593 O594 1.264 . S
C593 O601 1.249 . S
O594 C593 1.264 . S
O595 Mg588 1.986 . S
O595 C599 1.246 . S
O596 Mg591 2.032 . S
O596 C599 1.259 . S
O597 Mg588 2.114 . S
O597 C600 1.252 . S
O598 Mg588 2.251 . S
O598 Mg591 2.079 . S
O598 C600 1.273 . S
C599 O595 1.246 . S
C599 O596 1.259 . S
C600 O597 1.252 . S
C600 O598 1.273 . S
O601 Mg588 2.010 . S
O601 C593 1.249 . S
Mg602 O603 2.028 . S
Mg602 O609 1.986 . S
Mg602 O611 2.123 . S
Mg602 O612 2.251 . S
Mg602 O615 2.010 1_655 S
O603 Mg602 2.028 . S
O603 C606 1.250 . S
O604 Mg605 2.028 . S
O604 C606 1.248 . S
Mg605 O604 2.028 . S
Mg605 O610 2.032 . S
Mg605 O612 2.079 . S
C606 O603 1.250 . S
C606 O604 1.248 . S
C607 O608 1.264 . S
C607 O615 1.249 . S
O608 C607 1.264 . S
O609 Mg602 1.986 . S
O609 C613 1.246 . S
O610 Mg605 2.032 . S
O610 C613 1.259 . S
O611 Mg602 2.123 . S
O611 C614 1.269 . S
O612 Mg602 2.251 . S
O612 Mg605 2.079 . S
O612 C614 1.273 . S
C613 O609 1.246 . S
C613 O610 1.259 . S
C614 O611 1.269 . S
C614 O612 1.273 . S
O615 Mg602 2.010 1_455 S
O615 C607 1.249 . S
Mg616 O617 2.028 . S
Mg616 O623 1.986 . S
Mg616 O625 2.114 . S
Mg616 O626 2.251 . S
Mg616 O629 2.010 . S
O617 Mg616 2.028 . S
O617 C620 1.250 . S
O618 Mg619 2.028 . S
O618 C620 1.248 . S
Mg619 O618 2.028 . S
Mg619 O624 2.032 . S
Mg619 O626 2.079 . S
C620 O617 1.250 . S
C620 O618 1.248 . S
C621 O622 1.264 . S
C621 O629 1.249 . S
O622 C621 1.264 . S
O623 Mg616 1.986 . S
O623 C627 1.246 . S
O624 Mg619 2.032 . S
O624 C627 1.259 . S
O625 Mg616 2.114 . S
O625 C628 1.252 . S
O626 Mg616 2.251 . S
O626 Mg619 2.079 . S
O626 C628 1.273 . S
C627 O623 1.246 . S
C627 O624 1.259 . S
C628 O625 1.252 . S
C628 O626 1.273 . S
O629 Mg616 2.010 . S
O629 C621 1.249 . S
Mg630 O631 2.028 . S
Mg630 O637 1.986 . S
Mg630 O639 2.114 . S
Mg630 O640 2.251 . S
Mg630 O643 2.010 . S
O631 Mg630 2.028 . S
O631 C634 1.250 . S
O632 Mg633 2.028 . S
O632 C634 1.248 . S
Mg633 O632 2.028 . S
Mg633 O638 2.032 . S
Mg633 O640 2.079 . S
C634 O631 1.250 . S
C634 O632 1.248 . S
C635 O636 1.264 . S
C635 O643 1.249 . S
O636 C635 1.264 . S
O637 Mg630 1.986 . S
O637 C641 1.246 . S
O638 Mg633 2.032 . S
O638 C641 1.259 . S
O639 Mg630 2.114 . S
O639 C642 1.252 . S
O640 Mg630 2.251 . S
O640 Mg633 2.079 . S
O640 C642 1.273 . S
C641 O637 1.246 . S
C641 O638 1.259 . S
C642 O639 1.252 . S
C642 O640 1.273 . S
O643 Mg630 2.010 . S
O643 C635 1.249 . S
Mg644 O645 2.028 . S
Mg644 O651 1.986 . S
Mg644 O653 2.114 . S
Mg644 O654 2.251 . S
Mg644 O657 2.010 . S
O645 Mg644 2.028 . S
O645 C648 1.250 . S
O646 Mg647 2.028 . S
O646 C648 1.248 . S
Mg647 O646 2.028 . S
Mg647 O652 2.032 . S
Mg647 O654 2.079 . S
C648 O645 1.250 . S
C648 O646 1.248 . S
C649 O650 1.264 . S
C649 O657 1.249 . S
O650 C649 1.264 . S
O651 Mg644 1.986 . S
O651 C655 1.246 . S
O652 Mg647 2.032 . S
O652 C655 1.259 . S
O653 Mg644 2.114 . S
O653 C656 1.252 . S
O654 Mg644 2.251 . S
O654 Mg647 2.079 . S
O654 C656 1.273 . S
C655 O651 1.246 . S
C655 O652 1.259 . S
C656 O653 1.252 . S
C656 O654 1.273 . S
O657 Mg644 2.010 . S
O657 C649 1.249 . S
Mg658 O659 2.028 . S
Mg658 O665 1.986 . S
Mg658 O667 2.114 . S
Mg658 O668 2.251 . S
Mg658 O671 2.010 . S
O659 Mg658 2.028 . S
O659 C662 1.250 . S
O660 Mg661 2.028 . S
O660 C662 1.248 . S
Mg661 O660 2.028 . S
Mg661 O666 2.032 . S
Mg661 O668 2.079 . S
C662 O659 1.250 . S
C662 O660 1.248 . S
C663 O664 1.264 . S
C663 O671 1.249 . S
O664 C663 1.264 . S
O665 Mg658 1.986 . S
O665 C669 1.246 . S
O666 Mg661 2.032 . S
O666 C669 1.259 . S
O667 Mg658 2.114 . S
O667 C670 1.252 . S
O668 Mg658 2.251 . S
O668 Mg661 2.079 . S
O668 C670 1.273 . S
C669 O665 1.246 . S
C669 O666 1.259 . S
C670 O667 1.252 . S
C670 O668 1.273 . S
O671 Mg658 2.010 . S
O671 C663 1.249 . S
Mg672 O673 2.028 . S
Mg672 O679 1.986 . S
Mg672 O681 2.114 . S
Mg672 O682 2.251 . S
Mg672 O685 2.010 . S
O673 Mg672 2.028 . S
O673 C676 1.250 . S
O674 Mg675 2.028 . S
O674 C676 1.248 . S
Mg675 O674 2.028 . S
Mg675 O680 2.032 . S
Mg675 O682 2.079 . S
C676 O673 1.250 . S
C676 O674 1.248 . S
C677 O678 1.264 . S
C677 O685 1.249 . S
O678 C677 1.264 . S
O679 Mg672 1.986 . S
O679 C683 1.246 . S
O680 Mg675 2.032 . S
O680 C683 1.259 . S
O681 Mg672 2.114 . S
O681 C684 1.252 . S
O682 Mg672 2.251 . S
O682 Mg675 2.079 . S
O682 C684 1.273 . S
C683 O679 1.246 . S
C683 O680 1.259 . S
C684 O681 1.252 . S
C684 O682 1.273 . S
O685 Mg672 2.010 . S
O685 C677 1.249 . S
Mg686 O687 2.028 . S
Mg686 O693 1.986 . S
Mg686 O695 2.114 . S
Mg686 O696 2.251 . S
Mg686 O699 2.010 . S
O687 Mg686 2.028 . S
O687 C690 1.250 . S
O688 Mg689 2.028 . S
O688 C690 1.248 . S
Mg689 O688 2.028 . S
Mg689 O694 2.032 . S
Mg689 O696 2.079 . S
C690 O687 1.250 . S
C690 O688 1.248 . S
C691 O692 1.264 . S
C691 O699 1.249 . S
O692 C691 1.264 . S
O693 Mg686 1.986 . S
O693 C697 1.246 . S
O694 Mg689 2.032 . S
O694 C697 1.259 . S
O695 Mg686 2.114 . S
O695 C698 1.252 . S
O696 Mg686 2.251 . S
O696 Mg689 2.079 . S
O696 C698 1.273 . S
C697 O693 1.246 . S
C697 O694 1.259 . S
C698 O695 1.252 . S
C698 O696 1.273 . S
O699 Mg686 2.010 . S
O699 C691 1.249 . S
Mg700 O701 2.028 . S
Mg700 O707 1.986 . S
Mg700 O709 2.123 . S
Mg700 O710 2.251 . S
Mg700 O713 2.010 1_565 S
O701 Mg700 2.028 . S
O701 C704 1.250 . S
O702 Mg703 2.028 . S
O702 C704 1.248 . S
Mg703 O702 2.028 . S
Mg703 O708 2.032 . S
Mg703 O710 2.079 . S
C704 O701 1.250 . S
C704 O702 1.248 . S
C705 O706 1.264 . S
C705 O713 1.249 . S
O706 C705 1.264 . S
O707 Mg700 1.986 . S
O707 C711 1.246 . S
O708 Mg703 2.032 . S
O708 C711 1.259 . S
O709 Mg700 2.123 . S
O709 C712 1.269 . S
O710 Mg700 2.251 . S
O710 Mg703 2.079 . S
O710 C712 1.273 . S
C711 O707 1.246 . S
C711 O708 1.259 . S
C712 O709 1.269 . S
C712 O710 1.273 . S
O713 Mg700 2.010 1_545 S
O713 C705 1.249 . S
Mg714 O715 2.028 . S
Mg714 O721 1.986 . S
Mg714 O723 2.114 . S
Mg714 O724 2.251 . S
Mg714 O727 2.010 . S
O715 Mg714 2.028 . S
O715 C718 1.250 . S
O716 Mg717 2.028 . S
O716 C718 1.248 . S
Mg717 O716 2.028 . S
Mg717 O722 2.032 . S
Mg717 O724 2.079 . S
C718 O715 1.250 . S
C718 O716 1.248 . S
C719 O720 1.264 . S
C719 O727 1.249 . S
O720 C719 1.264 . S
O721 Mg714 1.986 . S
O721 C725 1.246 . S
O722 Mg717 2.032 . S
O722 C725 1.259 . S
O723 Mg714 2.114 . S
O723 C726 1.252 . S
O724 Mg714 2.251 . S
O724 Mg717 2.079 . S
O724 C726 1.273 . S
C725 O721 1.246 . S
C725 O722 1.259 . S
C726 O723 1.252 . S
C726 O724 1.273 . S
O727 Mg714 2.010 . S
O727 C719 1.249 . S
Mg728 O729 2.028 . S
Mg728 O735 1.986 . S
Mg728 O737 2.114 . S
Mg728 O738 2.251 . S
Mg728 O741 2.010 . S
O729 Mg728 2.028 . S
O729 C732 1.250 . S
O730 Mg731 2.028 . S
O730 C732 1.248 . S
Mg731 O730 2.028 . S
Mg731 O736 2.032 . S
Mg731 O738 2.079 . S
C732 O729 1.250 . S
C732 O730 1.248 . S
C733 O734 1.264 . S
C733 O741 1.249 . S
O734 C733 1.264 . S
O735 Mg728 1.986 . S
O735 C739 1.246 . S
O736 Mg731 2.032 . S
O736 C739 1.259 . S
O737 Mg728 2.114 . S
O737 C740 1.252 . S
O738 Mg728 2.251 . S
O738 Mg731 2.079 . S
O738 C740 1.273 . S
C739 O735 1.246 . S
C739 O736 1.259 . S
C740 O737 1.252 . S
C740 O738 1.273 . S
O741 Mg728 2.010 . S
O741 C733 1.249 . S
Mg742 O743 2.028 . S
Mg742 O749 1.986 . S
Mg742 O751 2.114 . S
Mg742 O752 2.251 . S
Mg742 O755 2.010 . S
O743 Mg742 2.028 . S
O743 C746 1.250 . S
O744 Mg745 2.028 . S
O744 C746 1.248 . S
Mg745 O744 2.028 . S
Mg745 O750 2.032 . S
Mg745 O752 2.079 . S
C746 O743 1.250 . S
C746 O744 1.248 . S
C747 O748 1.264 . S
C747 O755 1.249 . S
O748 C747 1.264 . S
O749 Mg742 1.986 . S
O749 C753 1.246 . S
O750 Mg745 2.032 . S
O750 C753 1.259 . S
O751 Mg742 2.114 . S
O751 C754 1.252 . S
O752 Mg742 2.251 . S
O752 Mg745 2.079 . S
O752 C754 1.273 . S
C753 O749 1.246 . S
C753 O750 1.259 . S
C754 O751 1.252 . S
C754 O752 1.273 . S
O755 Mg742 2.010 . S
O755 C747 1.249 . S
Mg756 O757 2.028 . S
Mg756 O763 1.986 . S
Mg756 O765 2.123 . S
Mg756 O766 2.251 . S
Mg756 O769 2.010 1_545 S
O757 Mg756 2.028 . S
O757 C760 1.250 . S
O758 Mg759 2.028 . S
O758 C760 1.248 . S
Mg759 O758 2.028 . S
Mg759 O764 2.032 . S
Mg759 O766 2.079 . S
C760 O757 1.250 . S
C760 O758 1.248 . S
C761 O762 1.264 . S
C761 O769 1.249 . S
O762 C761 1.264 . S
O763 Mg756 1.986 . S
O763 C767 1.246 . S
O764 Mg759 2.032 . S
O764 C767 1.259 . S
O765 Mg756 2.123 . S
O765 C768 1.269 . S
O766 Mg756 2.251 . S
O766 Mg759 2.079 . S
O766 C768 1.273 . S
C767 O763 1.246 . S
C767 O764 1.259 . S
C768 O765 1.269 . S
C768 O766 1.273 . S
O769 Mg756 2.010 1_565 S
O769 C761 1.249 . S
Mg770 O771 2.028 . S
Mg770 O777 1.986 . S
Mg770 O779 2.114 . S
Mg770 O780 2.251 . S
Mg770 O783 2.010 . S
O771 Mg770 2.028 . S
O771 C774 1.250 . S
O772 Mg773 2.028 . S
O772 C774 1.248 . S
Mg773 O772 2.028 . S
Mg773 O778 2.032 . S
Mg773 O780 2.079 . S
C774 O771 1.250 . S
C774 O772 1.248 . S
C775 O776 1.264 . S
C775 O783 1.249 . S
O776 C775 1.264 . S
O777 Mg770 1.986 . S
O777 C781 1.246 . S
O778 Mg773 2.032 . S
O778 C781 1.259 . S
O779 Mg770 2.114 . S
O779 C782 1.252 . S
O780 Mg770 2.251 . S
O780 Mg773 2.079 . S
O780 C782 1.273 . S
C781 O777 1.246 . S
C781 O778 1.259 . S
C782 O779 1.252 . S
C782 O780 1.273 . S
O783 Mg770 2.010 . S
O783 C775 1.249 . S
Mg784 O785 2.028 . S
Mg784 O791 1.986 . S
Mg784 O793 2.123 . S
Mg784 O794 2.251 . S
Mg784 O797 2.010 1_554 S
O785 Mg784 2.028 . S
O785 C788 1.250 . S
O786 Mg787 2.028 . S
O786 C788 1.248 . S
Mg787 O786 2.028 . S
Mg787 O792 2.032 . S
Mg787 O794 2.079 . S
C788 O785 1.250 . S
C788 O786 1.248 . S
C789 O790 1.264 . S
C789 O797 1.249 . S
O790 C789 1.264 . S
O791 Mg784 1.986 . S
O791 C795 1.246 . S
O792 Mg787 2.032 . S
O792 C795 1.259 . S
O793 Mg784 2.123 . S
O793 C796 1.269 . S
O794 Mg784 2.251 . S
O794 Mg787 2.079 . S
O794 C796 1.273 . S
C795 O791 1.246 . S
C795 O792 1.259 . S
C796 O793 1.269 . S
C796 O794 1.273 . S
O797 Mg784 2.010 1_556 S
O797 C789 1.249 . S
Mg798 O799 2.028 . S
Mg798 O805 1.986 . S
Mg798 O807 2.114 . S
Mg798 O808 2.251 . S
Mg798 O811 2.010 . S
O799 Mg798 2.028 . S
O799 C802 1.250 . S
O800 Mg801 2.028 . S
O800 C802 1.248 . S
Mg801 O800 2.028 . S
Mg801 O806 2.032 . S
Mg801 O808 2.079 . S
C802 O799 1.250 . S
C802 O800 1.248 . S
C803 O804 1.264 . S
C803 O811 1.249 . S
O804 C803 1.264 . S
O805 Mg798 1.986 . S
O805 C809 1.246 . S
O806 Mg801 2.032 . S
O806 C809 1.259 . S
O807 Mg798 2.114 . S
O807 C810 1.252 . S
O808 Mg798 2.251 . S
O808 Mg801 2.079 . S
O808 C810 1.273 . S
C809 O805 1.246 . S
C809 O806 1.259 . S
C810 O807 1.252 . S
C810 O808 1.273 . S
O811 Mg798 2.010 . S
O811 C803 1.249 . S
Mg812 O813 2.028 . S
Mg812 O819 1.986 . S
Mg812 O821 2.114 . S
Mg812 O822 2.251 . S
Mg812 O825 2.010 . S
O813 Mg812 2.028 . S
O813 C816 1.250 . S
O814 Mg815 2.028 . S
O814 C816 1.248 . S
Mg815 O814 2.028 . S
Mg815 O820 2.032 . S
Mg815 O822 2.079 . S
C816 O813 1.250 . S
C816 O814 1.248 . S
C817 O818 1.264 . S
C817 O825 1.249 . S
O818 C817 1.264 . S
O819 Mg812 1.986 . S
O819 C823 1.246 . S
O820 Mg815 2.032 . S
O820 C823 1.259 . S
O821 Mg812 2.114 . S
O821 C824 1.252 . S
O822 Mg812 2.251 . S
O822 Mg815 2.079 . S
O822 C824 1.273 . S
C823 O819 1.246 . S
C823 O820 1.259 . S
C824 O821 1.252 . S
C824 O822 1.273 . S
O825 Mg812 2.010 . S
O825 C817 1.249 . S
Mg826 O827 2.028 . S
Mg826 O833 1.986 . S
Mg826 O835 2.114 . S
Mg826 O836 2.251 . S
Mg826 O839 2.010 . S
O827 Mg826 2.028 . S
O827 C830 1.250 . S
O828 Mg829 2.028 . S
O828 C830 1.248 . S
Mg829 O828 2.028 . S
Mg829 O834 2.032 . S
Mg829 O836 2.079 . S
C830 O827 1.250 . S
C830 O828 1.248 . S
C831 O832 1.264 . S
C831 O839 1.249 . S
O832 C831 1.264 . S
O833 Mg826 1.986 . S
O833 C837 1.246 . S
O834 Mg829 2.032 . S
O834 C837 1.259 . S
O835 Mg826 2.114 . S
O835 C838 1.252 . S
O836 Mg826 2.251 . S
O836 Mg829 2.079 . S
O836 C838 1.273 . S
C837 O833 1.246 . S
C837 O834 1.259 . S
C838 O835 1.252 . S
C838 O836 1.273 . S
O839 Mg826 2.010 . S
O839 C831 1.249 . S
Mg840 O841 2.028 . S
Mg840 O847 1.986 . S
Mg840 O849 2.123 . S
Mg840 O850 2.251 . S
Mg840 O853 2.010 1_556 S
O841 Mg840 2.028 . S
O841 C844 1.250 . S
O842 Mg843 2.028 . S
O842 C844 1.248 . S
Mg843 O842 2.028 . S
Mg843 O848 2.032 . S
Mg843 O850 2.079 . S
C844 O841 1.250 . S
C844 O842 1.248 . S
C845 O846 1.264 . S
C845 O853 1.249 . S
O846 C845 1.264 . S
O847 Mg840 1.986 . S
O847 C851 1.246 . S
O848 Mg843 2.032 . S
O848 C851 1.259 . S
O849 Mg840 2.123 . S
O849 C852 1.269 . S
O850 Mg840 2.251 . S
O850 Mg843 2.079 . S
O850 C852 1.273 . S
C851 O847 1.246 . S
C851 O848 1.259 . S
C852 O849 1.269 . S
C852 O850 1.273 . S
O853 Mg840 2.010 1_554 S
O853 C845 1.249 . S
Mg854 O855 2.028 . S
Mg854 O861 1.986 . S
Mg854 O863 2.114 . S
Mg854 O864 2.251 . S
Mg854 O867 2.010 . S
O855 Mg854 2.028 . S
O855 C858 1.250 . S
O856 Mg857 2.028 . S
O856 C858 1.248 . S
Mg857 O856 2.028 . S
Mg857 O862 2.032 . S
Mg857 O864 2.079 . S
C858 O855 1.250 . S
C858 O856 1.248 . S
C859 O860 1.264 . S
C859 O867 1.249 . S
O860 C859 1.264 . S
O861 Mg854 1.986 . S
O861 C865 1.246 . S
O862 Mg857 2.032 . S
O862 C865 1.259 . S
O863 Mg854 2.114 . S
O863 C866 1.252 . S
O864 Mg854 2.251 . S
O864 Mg857 2.079 . S
O864 C866 1.273 . S
C865 O861 1.246 . S
C865 O862 1.259 . S
C866 O863 1.252 . S
C866 O864 1.273 . S
O867 Mg854 2.010 . S
O867 C859 1.249 . S
Mg868 O869 2.028 . S
Mg868 O875 1.986 . S
Mg868 O877 2.114 . S
Mg868 O878 2.251 . S
Mg868 O881 2.010 . S
O869 Mg868 2.028 . S
O869 C872 1.250 . S
O870 Mg871 2.028 . S
O870 C872 1.248 . S
Mg871 O870 2.028 . S
Mg871 O876 2.032 . S
Mg871 O878 2.079 . S
C872 O869 1.250 . S
C872 O870 1.248 . S
C873 O874 1.264 . S
C873 O881 1.249 . S
O874 C873 1.264 . S
O875 Mg868 1.986 . S
O875 C879 1.246 . S
O876 Mg871 2.032 . S
O876 C879 1.259 . S
O877 Mg868 2.114 . S
O877 C880 1.252 . S
O878 Mg868 2.251 . S
O878 Mg871 2.079 . S
O878 C880 1.273 . S
C879 O875 1.246 . S
C879 O876 1.259 . S
C880 O877 1.252 . S
C880 O878 1.273 . S
O881 Mg868 2.010 . S
O881 C873 1.249 . S
Mg882 O883 2.028 . S
Mg882 O889 1.986 . S
Mg882 O891 2.114 . S
Mg882 O892 2.251 . S
Mg882 O895 2.010 . S
O883 Mg882 2.028 . S
O883 C886 1.250 . S
O884 Mg885 2.028 . S
O884 C886 1.248 . S
Mg885 O884 2.028 . S
Mg885 O890 2.032 . S
Mg885 O892 2.079 . S
C886 O883 1.250 . S
C886 O884 1.248 . S
C887 O888 1.264 . S
C887 O895 1.249 . S
O888 C887 1.264 . S
O889 Mg882 1.986 . S
O889 C893 1.246 . S
O890 Mg885 2.032 . S
O890 C893 1.259 . S
O891 Mg882 2.114 . S
O891 C894 1.252 . S
O892 Mg882 2.251 . S
O892 Mg885 2.079 . S
O892 C894 1.273 . S
C893 O889 1.246 . S
C893 O890 1.259 . S
C894 O891 1.252 . S
C894 O892 1.273 . S
O895 Mg882 2.010 . S
O895 C887 1.249 . S
Mg896 O897 2.028 . S
Mg896 O903 1.986 . S
Mg896 O905 2.123 . S
Mg896 O906 2.251 . S
Mg896 O909 2.010 1_455 S
O897 Mg896 2.028 . S
O897 C900 1.250 . S
O898 Mg899 2.028 . S
O898 C900 1.248 . S
Mg899 O898 2.028 . S
Mg899 O904 2.032 . S
Mg899 O906 2.079 . S
C900 O897 1.250 . S
C900 O898 1.248 . S
C901 O902 1.264 . S
C901 O909 1.249 . S
O902 C901 1.264 . S
O903 Mg896 1.986 . S
O903 C907 1.246 . S
O904 Mg899 2.032 . S
O904 C907 1.259 . S
O905 Mg896 2.123 . S
O905 C908 1.269 . S
O906 Mg896 2.251 . S
O906 Mg899 2.079 . S
O906 C908 1.273 . S
C907 O903 1.246 . S
C907 O904 1.259 . S
C908 O905 1.269 . S
C908 O906 1.273 . S
O909 Mg896 2.010 1_655 S
O909 C901 1.249 . S
Mg910 O911 2.028 . S
Mg910 O917 1.986 . S
Mg910 O919 2.114 . S
Mg910 O920 2.251 . S
Mg910 O923 2.010 . S
O911 Mg910 2.028 . S
O911 C914 1.250 . S
O912 Mg913 2.028 . S
O912 C914 1.248 . S
Mg913 O912 2.028 . S
Mg913 O918 2.032 . S
Mg913 O920 2.079 . S
C914 O911 1.250 . S
C914 O912 1.248 . S
C915 O916 1.264 . S
C915 O923 1.249 . S
O916 C915 1.264 . S
O917 Mg910 1.986 . S
O917 C921 1.246 . S
O918 Mg913 2.032 . S
O918 C921 1.259 . S
O919 Mg910 2.114 . S
O919 C922 1.252 . S
O920 Mg910 2.251 . S
O920 Mg913 2.079 . S
O920 C922 1.273 . S
C921 O917 1.246 . S
C921 O918 1.259 . S
C922 O919 1.252 . S
C922 O920 1.273 . S
O923 Mg910 2.010 . S
O923 C915 1.249 . S
Mg924 O925 2.028 . S
Mg924 O931 1.986 . S
Mg924 O933 2.114 . S
Mg924 O934 2.251 . S
Mg924 O937 2.010 . S
O925 Mg924 2.028 . S
O925 C928 1.250 . S
O926 Mg927 2.028 . S
O926 C928 1.248 . S
Mg927 O926 2.028 . S
Mg927 O932 2.032 . S
Mg927 O934 2.079 . S
C928 O925 1.250 . S
C928 O926 1.248 . S
C929 O930 1.264 . S
C929 O937 1.249 . S
O930 C929 1.264 . S
O931 Mg924 1.986 . S
O931 C935 1.246 . S
O932 Mg927 2.032 . S
O932 C935 1.259 . S
O933 Mg924 2.114 . S
O933 C936 1.252 . S
O934 Mg924 2.251 . S
O934 Mg927 2.079 . S
O934 C936 1.273 . S
C935 O931 1.246 . S
C935 O932 1.259 . S
C936 O933 1.252 . S
C936 O934 1.273 . S
O937 Mg924 2.010 . S
O937 C929 1.249 . S
Mg938 O939 2.028 . S
Mg938 O945 1.986 . S
Mg938 O947 2.114 . S
Mg938 O948 2.251 . S
Mg938 O951 2.010 . S
O939 Mg938 2.028 . S
O939 C942 1.250 . S
O940 Mg941 2.028 . S
O940 C942 1.248 . S
Mg941 O940 2.028 . S
Mg941 O946 2.032 . S
Mg941 O948 2.079 . S
C942 O939 1.250 . S
C942 O940 1.248 . S
C943 O944 1.264 . S
C943 O951 1.249 . S
O944 C943 1.264 . S
O945 Mg938 1.986 . S
O945 C949 1.246 . S
O946 Mg941 2.032 . S
O946 C949 1.259 . S
O947 Mg938 2.114 . S
O947 C950 1.252 . S
O948 Mg938 2.251 . S
O948 Mg941 2.079 . S
O948 C950 1.273 . S
C949 O945 1.246 . S
C949 O946 1.259 . S
C950 O947 1.252 . S
C950 O948 1.273 . S
O951 Mg938 2.010 . S
O951 C943 1.249 . S
Mg952 O953 2.028 . S
Mg952 O959 1.986 . S
Mg952 O961 2.114 . S
Mg952 O962 2.251 . S
Mg952 O965 2.010 . S
O953 Mg952 2.028 . S
O953 C956 1.250 . S
O954 Mg955 2.028 . S
O954 C956 1.248 . S
Mg955 O954 2.028 . S
Mg955 O960 2.032 . S
Mg955 O962 2.079 . S
C956 O953 1.250 . S
C956 O954 1.248 . S
C957 O958 1.264 . S
C957 O965 1.249 . S
O958 C957 1.264 . S
O959 Mg952 1.986 . S
O959 C963 1.246 . S
O960 Mg955 2.032 . S
O960 C963 1.259 . S
O961 Mg952 2.114 . S
O961 C964 1.252 . S
O962 Mg952 2.251 . S
O962 Mg955 2.079 . S
O962 C964 1.273 . S
C963 O959 1.246 . S
C963 O960 1.259 . S
C964 O961 1.252 . S
C964 O962 1.273 . S
O965 Mg952 2.010 . S
O965 C957 1.249 . S
Mg966 O967 2.028 . S
Mg966 O973 1.986 . S
Mg966 O975 2.123 . S
Mg966 O976 2.251 . S
Mg966 O979 2.010 1_655 S
O967 Mg966 2.028 . S
O967 C970 1.250 . S
O968 Mg969 2.028 . S
O968 C970 1.248 . S
Mg969 O968 2.028 . S
Mg969 O974 2.032 . S
Mg969 O976 2.079 . S
C970 O967 1.250 . S
C970 O968 1.248 . S
C971 O972 1.264 . S
C971 O979 1.249 . S
O972 C971 1.264 . S
O973 Mg966 1.986 . S
O973 C977 1.246 . S
O974 Mg969 2.032 . S
O974 C977 1.259 . S
O975 Mg966 2.123 . S
O975 C978 1.269 . S
O976 Mg966 2.251 . S
O976 Mg969 2.079 . S
O976 C978 1.273 . S
C977 O973 1.246 . S
C977 O974 1.259 . S
C978 O975 1.269 . S
C978 O976 1.273 . S
O979 Mg966 2.010 1_455 S
O979 C971 1.249 . S
Mg980 O981 2.028 . S
Mg980 O987 1.986 . S
Mg980 O989 2.114 . S
Mg980 O990 2.251 . S
Mg980 O993 2.010 . S
O981 Mg980 2.028 . S
O981 C984 1.250 . S
O982 Mg983 2.028 . S
O982 C984 1.248 . S
Mg983 O982 2.028 . S
Mg983 O988 2.032 . S
Mg983 O990 2.079 . S
C984 O981 1.250 . S
C984 O982 1.248 . S
C985 O986 1.264 . S
C985 O993 1.249 . S
O986 C985 1.264 . S
O987 Mg980 1.986 . S
O987 C991 1.246 . S
O988 Mg983 2.032 . S
O988 C991 1.259 . S
O989 Mg980 2.114 . S
O989 C992 1.252 . S
O990 Mg980 2.251 . S
O990 Mg983 2.079 . S
O990 C992 1.273 . S
C991 O987 1.246 . S
C991 O988 1.259 . S
C992 O989 1.252 . S
C992 O990 1.273 . S
O993 Mg980 2.010 . S
O993 C985 1.249 . S
Mg994 O995 2.028 . S
Mg994 O1001 1.986 . S
Mg994 O1003 2.114 . S
Mg994 O1004 2.251 . S
Mg994 O1007 2.010 . S
O995 Mg994 2.028 . S
O995 C998 1.250 . S
O996 Mg997 2.028 . S
O996 C998 1.248 . S
Mg997 O996 2.028 . S
Mg997 O1002 2.032 . S
Mg997 O1004 2.079 . S
C998 O995 1.250 . S
C998 O996 1.248 . S
C999 O1000 1.264 . S
C999 O1007 1.249 . S
O1000 C999 1.264 . S
O1001 Mg994 1.986 . S
O1001 C1005 1.246 . S
O1002 Mg997 2.032 . S
O1002 C1005 1.259 . S
O1003 Mg994 2.114 . S
O1003 C1006 1.252 . S
O1004 Mg994 2.251 . S
O1004 Mg997 2.079 . S
O1004 C1006 1.273 . S
C1005 O1001 1.246 . S
C1005 O1002 1.259 . S
C1006 O1003 1.252 . S
C1006 O1004 1.273 . S
O1007 Mg994 2.010 . S
O1007 C999 1.249 . S
Mg1008 O1009 2.028 . S
Mg1008 O1015 1.986 . S
Mg1008 O1017 2.123 . S
Mg1008 O1018 2.251 . S
Mg1008 O1021 2.010 1_545 S
O1009 Mg1008 2.028 . S
O1009 C1012 1.250 . S
O1010 Mg1011 2.028 . S
O1010 C1012 1.248 . S
Mg1011 O1010 2.028 . S
Mg1011 O1016 2.032 . S
Mg1011 O1018 2.079 . S
C1012 O1009 1.250 . S
C1012 O1010 1.248 . S
C1013 O1014 1.264 . S
C1013 O1021 1.249 . S
O1014 C1013 1.264 . S
O1015 Mg1008 1.986 . S
O1015 C1019 1.246 . S
O1016 Mg1011 2.032 . S
O1016 C1019 1.259 . S
O1017 Mg1008 2.123 . S
O1017 C1020 1.269 . S
O1018 Mg1008 2.251 . S
O1018 Mg1011 2.079 . S
O1018 C1020 1.273 . S
C1019 O1015 1.246 . S
C1019 O1016 1.259 . S
C1020 O1017 1.269 . S
C1020 O1018 1.273 . S
O1021 Mg1008 2.010 1_565 S
O1021 C1013 1.249 . S
Mg1022 O1023 2.028 . S
Mg1022 O1029 1.986 . S
Mg1022 O1031 2.114 . S
Mg1022 O1032 2.251 . S
Mg1022 O1035 2.010 . S
O1023 Mg1022 2.028 . S
O1023 C1026 1.250 . S
O1024 Mg1025 2.028 . S
O1024 C1026 1.248 . S
Mg1025 O1024 2.028 . S
Mg1025 O1030 2.032 . S
Mg1025 O1032 2.079 . S
C1026 O1023 1.250 . S
C1026 O1024 1.248 . S
C1027 O1028 1.264 . S
C1027 O1035 1.249 . S
O1028 C1027 1.264 . S
O1029 Mg1022 1.986 . S
O1029 C1033 1.246 . S
O1030 Mg1025 2.032 . S
O1030 C1033 1.259 . S
O1031 Mg1022 2.114 . S
O1031 C1034 1.252 . S
O1032 Mg1022 2.251 . S
O1032 Mg1025 2.079 . S
O1032 C1034 1.273 . S
C1033 O1029 1.246 . S
C1033 O1030 1.259 . S
C1034 O1031 1.252 . S
C1034 O1032 1.273 . S
O1035 Mg1022 2.010 . S
O1035 C1027 1.249 . S
Mg1036 O1037 2.028 . S
Mg1036 O1043 1.986 . S
Mg1036 O1045 2.114 . S
Mg1036 O1046 2.251 . S
Mg1036 O1049 2.010 . S
O1037 Mg1036 2.028 . S
O1037 C1040 1.250 . S
O1038 Mg1039 2.028 . S
O1038 C1040 1.248 . S
Mg1039 O1038 2.028 . S
Mg1039 O1044 2.032 . S
Mg1039 O1046 2.079 . S
C1040 O1037 1.250 . S
C1040 O1038 1.248 . S
C1041 O1042 1.264 . S
C1041 O1049 1.249 . S
O1042 C1041 1.264 . S
O1043 Mg1036 1.986 . S
O1043 C1047 1.246 . S
O1044 Mg1039 2.032 . S
O1044 C1047 1.259 . S
O1045 Mg1036 2.114 . S
O1045 C1048 1.252 . S
O1046 Mg1036 2.251 . S
O1046 Mg1039 2.079 . S
O1046 C1048 1.273 . S
C1047 O1043 1.246 . S
C1047 O1044 1.259 . S
C1048 O1045 1.252 . S
C1048 O1046 1.273 . S
O1049 Mg1036 2.010 . S
O1049 C1041 1.249 . S
Mg1050 O1051 2.028 . S
Mg1050 O1057 1.986 . S
Mg1050 O1059 2.114 . S
Mg1050 O1060 2.251 . S
Mg1050 O1063 2.010 . S
O1051 Mg1050 2.028 . S
O1051 C1054 1.250 . S
O1052 Mg1053 2.028 . S
O1052 C1054 1.248 . S
Mg1053 O1052 2.028 . S
Mg1053 O1058 2.032 . S
Mg1053 O1060 2.079 . S
C1054 O1051 1.250 . S
C1054 O1052 1.248 . S
C1055 O1056 1.264 . S
C1055 O1063 1.249 . S
O1056 C1055 1.264 . S
O1057 Mg1050 1.986 . S
O1057 C1061 1.246 . S
O1058 Mg1053 2.032 . S
O1058 C1061 1.259 . S
O1059 Mg1050 2.114 . S
O1059 C1062 1.252 . S
O1060 Mg1050 2.251 . S
O1060 Mg1053 2.079 . S
O1060 C1062 1.273 . S
C1061 O1057 1.246 . S
C1061 O1058 1.259 . S
C1062 O1059 1.252 . S
C1062 O1060 1.273 . S
O1063 Mg1050 2.010 . S
O1063 C1055 1.249 . S
Mg1064 O1065 2.028 . S
Mg1064 O1071 1.986 . S
Mg1064 O1073 2.123 . S
Mg1064 O1074 2.251 . S
Mg1064 O1077 2.010 1_565 S
O1065 Mg1064 2.028 . S
O1065 C1068 1.250 . S
O1066 Mg1067 2.028 . S
O1066 C1068 1.248 . S
Mg1067 O1066 2.028 . S
Mg1067 O1072 2.032 . S
Mg1067 O1074 2.079 . S
C1068 O1065 1.250 . S
C1068 O1066 1.248 . S
C1069 O1070 1.264 . S
C1069 O1077 1.249 . S
O1070 C1069 1.264 . S
O1071 Mg1064 1.986 . S
O1071 C1075 1.246 . S
O1072 Mg1067 2.032 . S
O1072 C1075 1.259 . S
O1073 Mg1064 2.123 . S
O1073 C1076 1.269 . S
O1074 Mg1064 2.251 . S
O1074 Mg1067 2.079 . S
O1074 C1076 1.273 . S
C1075 O1071 1.246 . S
C1075 O1072 1.259 . S
C1076 O1073 1.269 . S
C1076 O1074 1.273 . S
O1077 Mg1064 2.010 1_545 S
O1077 C1069 1.249 . S
Mg1078 O1079 2.028 . S
Mg1078 O1085 1.986 . S
Mg1078 O1087 2.114 . S
Mg1078 O1088 2.251 . S
Mg1078 O1091 2.010 . S
O1079 Mg1078 2.028 . S
O1079 C1082 1.250 . S
O1080 Mg1081 2.028 . S
O1080 C1082 1.248 . S
Mg1081 O1080 2.028 . S
Mg1081 O1086 2.032 . S
Mg1081 O1088 2.079 . S
C1082 O1079 1.250 . S
C1082 O1080 1.248 . S
C1083 O1084 1.264 . S
C1083 O1091 1.249 . S
O1084 C1083 1.264 . S
O1085 Mg1078 1.986 . S
O1085 C1089 1.246 . S
O1086 Mg1081 2.032 . S
O1086 C1089 1.259 . S
O1087 Mg1078 2.114 . S
O1087 C1090 1.252 . S
O1088 Mg1078 2.251 . S
O1088 Mg1081 2.079 . S
O1088 C1090 1.273 . S
C1089 O1085 1.246 . S
C1089 O1086 1.259 . S
C1090 O1087 1.252 . S
C1090 O1088 1.273 . S
O1091 Mg1078 2.010 . S
O1091 C1083 1.249 . S
Mg1092 O1093 2.028 . S
Mg1092 O1099 1.986 . S
Mg1092 O1101 2.114 . S
Mg1092 O1102 2.251 . S
Mg1092 O1105 2.010 . S
O1093 Mg1092 2.028 . S
O1093 C1096 1.250 . S
O1094 Mg1095 2.028 . S
O1094 C1096 1.248 . S
Mg1095 O1094 2.028 . S
Mg1095 O1100 2.032 . S
Mg1095 O1102 2.079 . S
C1096 O1093 1.250 . S
C1096 O1094 1.248 . S
C1097 O1098 1.264 . S
C1097 O1105 1.249 . S
O1098 C1097 1.264 . S
O1099 Mg1092 1.986 . S
O1099 C1103 1.246 . S
O1100 Mg1095 2.032 . S
O1100 C1103 1.259 . S
O1101 Mg1092 2.114 . S
O1101 C1104 1.252 . S
O1102 Mg1092 2.251 . S
O1102 Mg1095 2.079 . S
O1102 C1104 1.273 . S
C1103 O1099 1.246 . S
C1103 O1100 1.259 . S
C1104 O1101 1.252 . S
C1104 O1102 1.273 . S
O1105 Mg1092 2.010 . S
O1105 C1097 1.249 . S
Mg1106 O1107 2.028 . S
Mg1106 O1113 1.986 . S
Mg1106 O1115 2.114 . S
Mg1106 O1116 2.251 . S
Mg1106 O1119 2.010 . S
O1107 Mg1106 2.028 . S
O1107 C1110 1.250 . S
O1108 Mg1109 2.028 . S
O1108 C1110 1.248 . S
Mg1109 O1108 2.028 . S
Mg1109 O1114 2.032 . S
Mg1109 O1116 2.079 . S
C1110 O1107 1.250 . S
C1110 O1108 1.248 . S
C1111 O1112 1.264 . S
C1111 O1119 1.249 . S
O1112 C1111 1.264 . S
O1113 Mg1106 1.986 . S
O1113 C1117 1.246 . S
O1114 Mg1109 2.032 . S
O1114 C1117 1.259 . S
O1115 Mg1106 2.114 . S
O1115 C1118 1.252 . S
O1116 Mg1106 2.251 . S
O1116 Mg1109 2.079 . S
O1116 C1118 1.273 . S
C1117 O1113 1.246 . S
C1117 O1114 1.259 . S
C1118 O1115 1.252 . S
C1118 O1116 1.273 . S
O1119 Mg1106 2.010 . S
O1119 C1111 1.249 . S
Mg1120 O1121 2.028 . S
Mg1120 O1127 1.986 . S
Mg1120 O1129 2.114 . S
Mg1120 O1130 2.251 . S
Mg1120 O1133 2.010 . S
O1121 Mg1120 2.028 . S
O1121 C1124 1.250 . S
O1122 Mg1123 2.028 . S
O1122 C1124 1.248 . S
Mg1123 O1122 2.028 . S
Mg1123 O1128 2.032 . S
Mg1123 O1130 2.079 . S
C1124 O1121 1.250 . S
C1124 O1122 1.248 . S
C1125 O1126 1.264 . S
C1125 O1133 1.249 . S
O1126 C1125 1.264 . S
O1127 Mg1120 1.986 . S
O1127 C1131 1.246 . S
O1128 Mg1123 2.032 . S
O1128 C1131 1.259 . S
O1129 Mg1120 2.114 . S
O1129 C1132 1.252 . S
O1130 Mg1120 2.251 . S
O1130 Mg1123 2.079 . S
O1130 C1132 1.273 . S
C1131 O1127 1.246 . S
C1131 O1128 1.259 . S
C1132 O1129 1.252 . S
C1132 O1130 1.273 . S
O1133 Mg1120 2.010 . S
O1133 C1125 1.249 . S
Mg1134 O1135 2.028 . S
Mg1134 O1141 1.986 . S
Mg1134 O1143 2.114 . S
Mg1134 O1144 2.251 . S
Mg1134 O1147 2.010 . S
O1135 Mg1134 2.028 . S
O1135 C1138 1.250 . S
O1136 Mg1137 2.028 . S
O1136 C1138 1.248 . S
Mg1137 O1136 2.028 . S
Mg1137 O1142 2.032 . S
Mg1137 O1144 2.079 . S
C1138 O1135 1.250 . S
C1138 O1136 1.248 . S
C1139 O1140 1.264 . S
C1139 O1147 1.249 . S
O1140 C1139 1.264 . S
O1141 Mg1134 1.986 . S
O1141 C1145 1.246 . S
O1142 Mg1137 2.032 . S
O1142 C1145 1.259 . S
O1143 Mg1134 2.114 . S
O1143 C1146 1.252 . S
O1144 Mg1134 2.251 . S
O1144 Mg1137 2.079 . S
O1144 C1146 1.273 . S
C1145 O1141 1.246 . S
C1145 O1142 1.259 . S
C1146 O1143 1.252 . S
C1146 O1144 1.273 . S
O1147 Mg1134 2.010 . S
O1147 C1139 1.249 . S
Mg1148 O1149 2.028 . S
Mg1148 O1155 1.986 . S
Mg1148 O1157 2.123 . S
Mg1148 O1158 2.251 . S
Mg1148 O1161 2.010 1_554 S
O1149 Mg1148 2.028 . S
O1149 C1152 1.250 . S
O1150 Mg1151 2.028 . S
O1150 C1152 1.248 . S
Mg1151 O1150 2.028 . S
Mg1151 O1156 2.032 . S
Mg1151 O1158 2.079 . S
C1152 O1149 1.250 . S
C1152 O1150 1.248 . S
C1153 O1154 1.264 . S
C1153 O1161 1.249 . S
O1154 C1153 1.264 . S
O1155 Mg1148 1.986 . S
O1155 C1159 1.246 . S
O1156 Mg1151 2.032 . S
O1156 C1159 1.259 . S
O1157 Mg1148 2.123 . S
O1157 C1160 1.269 . S
O1158 Mg1148 2.251 . S
O1158 Mg1151 2.079 . S
O1158 C1160 1.273 . S
C1159 O1155 1.246 . S
C1159 O1156 1.259 . S
C1160 O1157 1.269 . S
C1160 O1158 1.273 . S
O1161 Mg1148 2.010 1_556 S
O1161 C1153 1.249 . S
Mg1162 O1163 2.028 . S
Mg1162 O1169 1.986 . S
Mg1162 O1171 2.114 . S
Mg1162 O1172 2.251 . S
Mg1162 O1175 2.010 . S
O1163 Mg1162 2.028 . S
O1163 C1166 1.250 . S
O1164 Mg1165 2.028 . S
O1164 C1166 1.248 . S
Mg1165 O1164 2.028 . S
Mg1165 O1170 2.032 . S
Mg1165 O1172 2.079 . S
C1166 O1163 1.250 . S
C1166 O1164 1.248 . S
C1167 O1168 1.264 . S
C1167 O1175 1.249 . S
O1168 C1167 1.264 . S
O1169 Mg1162 1.986 . S
O1169 C1173 1.246 . S
O1170 Mg1165 2.032 . S
O1170 C1173 1.259 . S
O1171 Mg1162 2.114 . S
O1171 C1174 1.252 . S
O1172 Mg1162 2.251 . S
O1172 Mg1165 2.079 . S
O1172 C1174 1.273 . S
C1173 O1169 1.246 . S
C1173 O1170 1.259 . S
C1174 O1171 1.252 . S
C1174 O1172 1.273 . S
O1175 Mg1162 2.010 . S
O1175 C1167 1.249 . S
Mg1176 O1177 2.028 . S
Mg1176 O1183 1.986 . S
Mg1176 O1185 2.114 . S
Mg1176 O1186 2.251 . S
Mg1176 O1189 2.010 . S
O1177 Mg1176 2.028 . S
O1177 C1180 1.250 . S
O1178 Mg1179 2.028 . S
O1178 C1180 1.248 . S
Mg1179 O1178 2.028 . S
Mg1179 O1184 2.032 . S
Mg1179 O1186 2.079 . S
C1180 O1177 1.250 . S
C1180 O1178 1.248 . S
C1181 O1182 1.264 . S
C1181 O1189 1.249 . S
O1182 C1181 1.264 . S
O1183 Mg1176 1.986 . S
O1183 C1187 1.246 . S
O1184 Mg1179 2.032 . S
O1184 C1187 1.259 . S
O1185 Mg1176 2.114 . S
O1185 C1188 1.252 . S
O1186 Mg1176 2.251 . S
O1186 Mg1179 2.079 . S
O1186 C1188 1.273 . S
C1187 O1183 1.246 . S
C1187 O1184 1.259 . S
C1188 O1185 1.252 . S
C1188 O1186 1.273 . S
O1189 Mg1176 2.010 . S
O1189 C1181 1.249 . S
Mg1190 O1191 2.028 . S
Mg1190 O1197 1.986 . S
Mg1190 O1199 2.114 . S
Mg1190 O1200 2.251 . S
Mg1190 O1203 2.010 . S
O1191 Mg1190 2.028 . S
O1191 C1194 1.250 . S
O1192 Mg1193 2.028 . S
O1192 C1194 1.248 . S
Mg1193 O1192 2.028 . S
Mg1193 O1198 2.032 . S
Mg1193 O1200 2.079 . S
C1194 O1191 1.250 . S
C1194 O1192 1.248 . S
C1195 O1196 1.264 . S
C1195 O1203 1.249 . S
O1196 C1195 1.264 . S
O1197 Mg1190 1.986 . S
O1197 C1201 1.246 . S
O1198 Mg1193 2.032 . S
O1198 C1201 1.259 . S
O1199 Mg1190 2.114 . S
O1199 C1202 1.252 . S
O1200 Mg1190 2.251 . S
O1200 Mg1193 2.079 . S
O1200 C1202 1.273 . S
C1201 O1197 1.246 . S
C1201 O1198 1.259 . S
C1202 O1199 1.252 . S
C1202 O1200 1.273 . S
O1203 Mg1190 2.010 . S
O1203 C1195 1.249 . S
Mg1204 O1205 2.028 . S
Mg1204 O1211 1.986 . S
Mg1204 O1213 2.123 . S
Mg1204 O1214 2.251 . S
Mg1204 O1217 2.010 1_556 S
O1205 Mg1204 2.028 . S
O1205 C1208 1.250 . S
O1206 Mg1207 2.028 . S
O1206 C1208 1.248 . S
Mg1207 O1206 2.028 . S
Mg1207 O1212 2.032 . S
Mg1207 O1214 2.079 . S
C1208 O1205 1.250 . S
C1208 O1206 1.248 . S
C1209 O1210 1.264 . S
C1209 O1217 1.249 . S
O1210 C1209 1.264 . S
O1211 Mg1204 1.986 . S
O1211 C1215 1.246 . S
O1212 Mg1207 2.032 . S
O1212 C1215 1.259 . S
O1213 Mg1204 2.123 . S
O1213 C1216 1.269 . S
O1214 Mg1204 2.251 . S
O1214 Mg1207 2.079 . S
O1214 C1216 1.273 . S
C1215 O1211 1.246 . S
C1215 O1212 1.259 . S
C1216 O1213 1.269 . S
C1216 O1214 1.273 . S
O1217 Mg1204 2.010 1_554 S
O1217 C1209 1.249 . S
Mg1218 O1219 2.028 . S
Mg1218 O1225 1.986 . S
Mg1218 O1227 2.114 . S
Mg1218 O1228 2.251 . S
Mg1218 O1231 2.010 . S
O1219 Mg1218 2.028 . S
O1219 C1222 1.250 . S
O1220 Mg1221 2.028 . S
O1220 C1222 1.248 . S
Mg1221 O1220 2.028 . S
Mg1221 O1226 2.032 . S
Mg1221 O1228 2.079 . S
C1222 O1219 1.250 . S
C1222 O1220 1.248 . S
C1223 O1224 1.264 . S
C1223 O1231 1.249 . S
O1224 C1223 1.264 . S
O1225 Mg1218 1.986 . S
O1225 C1229 1.246 . S
O1226 Mg1221 2.032 . S
O1226 C1229 1.259 . S
O1227 Mg1218 2.114 . S
O1227 C1230 1.252 . S
O1228 Mg1218 2.251 . S
O1228 Mg1221 2.079 . S
O1228 C1230 1.273 . S
C1229 O1225 1.246 . S
C1229 O1226 1.259 . S
C1230 O1227 1.252 . S
C1230 O1228 1.273 . S
O1231 Mg1218 2.010 . S
O1231 C1223 1.249 . S
Mg1232 O1233 2.028 . S
Mg1232 O1239 1.986 . S
Mg1232 O1241 2.123 . S
Mg1232 O1242 2.251 . S
Mg1232 O1245 2.010 1_455 S
O1233 Mg1232 2.028 . S
O1233 C1236 1.250 . S
O1234 Mg1235 2.028 . S
O1234 C1236 1.248 . S
Mg1235 O1234 2.028 . S
Mg1235 O1240 2.032 . S
Mg1235 O1242 2.079 . S
C1236 O1233 1.250 . S
C1236 O1234 1.248 . S
C1237 O1238 1.264 . S
C1237 O1245 1.249 . S
O1238 C1237 1.264 . S
O1239 Mg1232 1.986 . S
O1239 C1243 1.246 . S
O1240 Mg1235 2.032 . S
O1240 C1243 1.259 . S
O1241 Mg1232 2.123 . S
O1241 C1244 1.269 . S
O1242 Mg1232 2.251 . S
O1242 Mg1235 2.079 . S
O1242 C1244 1.273 . S
C1243 O1239 1.246 . S
C1243 O1240 1.259 . S
C1244 O1241 1.269 . S
C1244 O1242 1.273 . S
O1245 Mg1232 2.010 1_655 S
O1245 C1237 1.249 . S
Mg1246 O1247 2.028 . S
Mg1246 O1253 1.986 . S
Mg1246 O1255 2.114 . S
Mg1246 O1256 2.251 . S
Mg1246 O1259 2.010 . S
O1247 Mg1246 2.028 . S
O1247 C1250 1.250 . S
O1248 Mg1249 2.028 . S
O1248 C1250 1.248 . S
Mg1249 O1248 2.028 . S
Mg1249 O1254 2.032 . S
Mg1249 O1256 2.079 . S
C1250 O1247 1.250 . S
C1250 O1248 1.248 . S
C1251 O1252 1.264 . S
C1251 O1259 1.249 . S
O1252 C1251 1.264 . S
O1253 Mg1246 1.986 . S
O1253 C1257 1.246 . S
O1254 Mg1249 2.032 . S
O1254 C1257 1.259 . S
O1255 Mg1246 2.114 . S
O1255 C1258 1.252 . S
O1256 Mg1246 2.251 . S
O1256 Mg1249 2.079 . S
O1256 C1258 1.273 . S
C1257 O1253 1.246 . S
C1257 O1254 1.259 . S
C1258 O1255 1.252 . S
C1258 O1256 1.273 . S
O1259 Mg1246 2.010 . S
O1259 C1251 1.249 . S
Mg1260 O1261 2.028 . S
Mg1260 O1267 1.986 . S
Mg1260 O1269 2.114 . S
Mg1260 O1270 2.251 . S
Mg1260 O1273 2.010 . S
O1261 Mg1260 2.028 . S
O1261 C1264 1.250 . S
O1262 Mg1263 2.028 . S
O1262 C1264 1.248 . S
Mg1263 O1262 2.028 . S
Mg1263 O1268 2.032 . S
Mg1263 O1270 2.079 . S
C1264 O1261 1.250 . S
C1264 O1262 1.248 . S
C1265 O1266 1.264 . S
C1265 O1273 1.249 . S
O1266 C1265 1.264 . S
O1267 Mg1260 1.986 . S
O1267 C1271 1.246 . S
O1268 Mg1263 2.032 . S
O1268 C1271 1.259 . S
O1269 Mg1260 2.114 . S
O1269 C1272 1.252 . S
O1270 Mg1260 2.251 . S
O1270 Mg1263 2.079 . S
O1270 C1272 1.273 . S
C1271 O1267 1.246 . S
C1271 O1268 1.259 . S
C1272 O1269 1.252 . S
C1272 O1270 1.273 . S
O1273 Mg1260 2.010 . S
O1273 C1265 1.249 . S
Mg1274 O1275 2.028 . S
Mg1274 O1281 1.986 . S
Mg1274 O1283 2.114 . S
Mg1274 O1284 2.251 . S
Mg1274 O1287 2.010 . S
O1275 Mg1274 2.028 . S
O1275 C1278 1.250 . S
O1276 Mg1277 2.028 . S
O1276 C1278 1.248 . S
Mg1277 O1276 2.028 . S
Mg1277 O1282 2.032 . S
Mg1277 O1284 2.079 . S
C1278 O1275 1.250 . S
C1278 O1276 1.248 . S
C1279 O1280 1.264 . S
C1279 O1287 1.249 . S
O1280 C1279 1.264 . S
O1281 Mg1274 1.986 . S
O1281 C1285 1.246 . S
O1282 Mg1277 2.032 . S
O1282 C1285 1.259 . S
O1283 Mg1274 2.114 . S
O1283 C1286 1.252 . S
O1284 Mg1274 2.251 . S
O1284 Mg1277 2.079 . S
O1284 C1286 1.273 . S
C1285 O1281 1.246 . S
C1285 O1282 1.259 . S
C1286 O1283 1.252 . S
C1286 O1284 1.273 . S
O1287 Mg1274 2.010 . S
O1287 C1279 1.249 . S
Mg1288 O1289 2.028 . S
Mg1288 O1295 1.986 . S
Mg1288 O1297 2.114 . S
Mg1288 O1298 2.251 . S
Mg1288 O1301 2.010 . S
O1289 Mg1288 2.028 . S
O1289 C1292 1.250 . S
O1290 Mg1291 2.028 . S
O1290 C1292 1.248 . S
Mg1291 O1290 2.028 . S
Mg1291 O1296 2.032 . S
Mg1291 O1298 2.079 . S
C1292 O1289 1.250 . S
C1292 O1290 1.248 . S
C1293 O1294 1.264 . S
C1293 O1301 1.249 . S
O1294 C1293 1.264 . S
O1295 Mg1288 1.986 . S
O1295 C1299 1.246 . S
O1296 Mg1291 2.032 . S
O1296 C1299 1.259 . S
O1297 Mg1288 2.114 . S
O1297 C1300 1.252 . S
O1298 Mg1288 2.251 . S
O1298 Mg1291 2.079 . S
O1298 C1300 1.273 . S
C1299 O1295 1.246 . S
C1299 O1296 1.259 . S
C1300 O1297 1.252 . S
C1300 O1298 1.273 . S
O1301 Mg1288 2.010 . S
O1301 C1293 1.249 . S
Mg1302 O1303 2.028 . S
Mg1302 O1309 1.986 . S
Mg1302 O1311 2.123 . S
Mg1302 O1312 2.251 . S
Mg1302 O1315 2.010 1_655 S
O1303 Mg1302 2.028 . S
O1303 C1306 1.250 . S
O1304 Mg1305 2.028 . S
O1304 C1306 1.248 . S
Mg1305 O1304 2.028 . S
Mg1305 O1310 2.032 . S
Mg1305 O1312 2.079 . S
C1306 O1303 1.250 . S
C1306 O1304 1.248 . S
C1307 O1308 1.264 . S
C1307 O1315 1.249 . S
O1308 C1307 1.264 . S
O1309 Mg1302 1.986 . S
O1309 C1313 1.246 . S
O1310 Mg1305 2.032 . S
O1310 C1313 1.259 . S
O1311 Mg1302 2.123 . S
O1311 C1314 1.269 . S
O1312 Mg1302 2.251 . S
O1312 Mg1305 2.079 . S
O1312 C1314 1.273 . S
C1313 O1309 1.246 . S
C1313 O1310 1.259 . S
C1314 O1311 1.269 . S
C1314 O1312 1.273 . S
O1315 Mg1302 2.010 1_455 S
O1315 C1307 1.249 . S
Mg1316 O1317 2.028 . S
Mg1316 O1323 1.986 . S
Mg1316 O1325 2.114 . S
Mg1316 O1326 2.251 . S
Mg1316 O1329 2.010 . S
O1317 Mg1316 2.028 . S
O1317 C1320 1.250 . S
O1318 Mg1319 2.028 . S
O1318 C1320 1.248 . S
Mg1319 O1318 2.028 . S
Mg1319 O1324 2.032 . S
Mg1319 O1326 2.079 . S
C1320 O1317 1.250 . S
C1320 O1318 1.248 . S
C1321 O1322 1.264 . S
C1321 O1329 1.249 . S
O1322 C1321 1.264 . S
O1323 Mg1316 1.986 . S
O1323 C1327 1.246 . S
O1324 Mg1319 2.032 . S
O1324 C1327 1.259 . S
O1325 Mg1316 2.114 . S
O1325 C1328 1.252 . S
O1326 Mg1316 2.251 . S
O1326 Mg1319 2.079 . S
O1326 C1328 1.273 . S
C1327 O1323 1.246 . S
C1327 O1324 1.259 . S
C1328 O1325 1.252 . S
C1328 O1326 1.273 . S
O1329 Mg1316 2.010 . S
O1329 C1321 1.249 . S
Mg1330 O1331 2.028 . S
Mg1330 O1337 1.986 . S
Mg1330 O1339 2.114 . S
Mg1330 O1340 2.251 . S
Mg1330 O1343 2.010 . S
O1331 Mg1330 2.028 . S
O1331 C1334 1.250 . S
O1332 Mg1333 2.028 . S
O1332 C1334 1.248 . S
Mg1333 O1332 2.028 . S
Mg1333 O1338 2.032 . S
Mg1333 O1340 2.079 . S
C1334 O1331 1.250 . S
C1334 O1332 1.248 . S
C1335 O1336 1.264 . S
C1335 O1343 1.249 . S
O1336 C1335 1.264 . S
O1337 Mg1330 1.986 . S
O1337 C1341 1.246 . S
O1338 Mg1333 2.032 . S
O1338 C1341 1.259 . S
O1339 Mg1330 2.114 . S
O1339 C1342 1.252 . S
O1340 Mg1330 2.251 . S
O1340 Mg1333 2.079 . S
O1340 C1342 1.273 . S
C1341 O1337 1.246 . S
C1341 O1338 1.259 . S
C1342 O1339 1.252 . S
C1342 O1340 1.273 . S
O1343 Mg1330 2.010 . S
O1343 C1335 1.249 . S
C12 C452 1.923 . S
C802 C26 1.923 . S
C480 C40 1.923 . S
C54 C830 1.923 . S
C68 C508 1.923 . S
C82 C858 1.923 . S
C96 C536 1.923 . S
C110 C886 1.923 . S
C900 C124 1.923 . S
C998 C138 1.923 . S
C152 C1306 1.923 . S
C166 C984 1.923 . S
C242 C180 1.923 . S
C194 C256 1.923 . S
C208 C270 1.923 . S
C1292 C222 1.923 . S
C1012 C236 1.923 . S
C250 C396 1.923 . S
C746 C264 1.923 . S
C278 C424 1.923 . S
C438 C292 1.923 . S
C704 C306 1.923 . S
C46 C320 1.923 . S
C18 C334 1.923 . S
C348 C116 1.923 . S
C1138 C362 1.923 . S
C144 C376 1.923 . S
C390 C1166 1.923 . S
C404 C172 1.923 . S
C1194 C418 1.923 . S
C432 C200 1.923 . S
C1222 C446 1.923 . S
C1236 C460 1.923 . S
C474 C1334 1.923 . S
C970 C488 1.923 . S
C1320 C502 1.923 . S
C516 C578 1.923 . S
C592 C530 1.923 . S
C606 C544 1.923 . S
C558 C956 1.923 . S
C676 C572 1.923 . S
C586 C60 1.923 . S
C1082 C600 1.923 . S
C88 C614 1.923 . S
C628 C102 1.923 . S
C1040 C642 1.923 . S
C382 C656 1.923 . S
C354 C670 1.923 . S
C1124 C684 1.923 . S
C130 C698 1.923 . S
C1152 C712 1.923 . S
C726 C158 1.923 . S
C1180 C740 1.923 . S
C754 C186 1.923 . S
C768 C1208 1.923 . S
C782 C214 1.923 . S
C228 C796 1.923 . S
C810 C326 1.923 . S
C824 C634 1.923 . S
C312 C838 1.923 . S
C852 C914 1.923 . S
C928 C866 1.923 . S
C942 C880 1.923 . S
C894 C620 1.923 . S
C908 C340 1.923 . S
C1068 C922 1.923 . S
C936 C74 1.923 . S
C950 C1096 1.923 . S
C1110 C964 1.923 . S
C32 C978 1.923 . S
C992 C718 1.923 . S
C1006 C690 1.923 . S
C788 C1020 1.923 . S
C466 C1034 1.923 . S
C816 C1048 1.923 . S
C1062 C494 1.923 . S
C1076 C844 1.923 . S
C522 C1090 1.923 . S
C872 C1104 1.923 . S
C550 C1118 1.923 . S
C1132 C564 1.923 . S
C662 C1146 1.923 . S
C298 C1160 1.923 . S
C1174 C648 1.923 . S
C1250 C1188 1.923 . S
C1264 C1202 1.923 . S
C1216 C1278 1.923 . S
C1230 C284 1.923 . S
C4 C1244 1.923 . S
C732 C1258 1.923 . S
C1272 C410 1.923 . S
C1286 C760 1.923 . S
C774 C1300 1.923 . S
C368 C1314 1.923 . S
C1054 C1328 1.923 . S
C1026 C1342 1.923 . S
C1229 C11 1.215 . S
C25 C1187 1.215 . S
C39 C1201 1.215 . S
C53 C1215 1.215 . S
C137 C67 1.215 . S
C81 C151 1.215 . S
C95 C165 1.215 . S
C109 C123 1.215 . S
C179 C1033 1.215 . S
C193 C1047 1.215 . S
C207 C1061 1.215 . S
C1019 C221 1.215 . S
C1299 C235 1.215 . S
C249 C1341 1.215 . S
C263 C641 1.215 . S
C1327 C277 1.215 . S
C291 C1243 1.215 . S
C305 C599 1.215 . S
C319 C1285 1.215 . S
C333 C1257 1.215 . S
C893 C347 1.215 . S
C361 C851 1.215 . S
C865 C375 1.215 . S
C389 C879 1.215 . S
C403 C473 1.215 . S
C417 C487 1.215 . S
C501 C431 1.215 . S
C445 C459 1.215 . S
C697 C515 1.215 . S
C711 C529 1.215 . S
C725 C543 1.215 . S
C683 C557 1.215 . S
C571 C963 1.215 . S
C585 C1005 1.215 . S
C991 C613 1.215 . S
C627 C907 1.215 . S
C655 C949 1.215 . S
C669 C921 1.215 . S
C739 C809 1.215 . S
C753 C823 1.215 . S
C767 C837 1.215 . S
C781 C795 1.215 . S
C1313 C935 1.215 . S
C1271 C977 1.215 . S
C1075 C1145 1.215 . S
C1089 C1159 1.215 . S
C1173 C1103 1.215 . S
C1117 C1131 1.215 . S
C369 C5 4.014 1_655 S
C19 C719 4.014 . S
C33 C341 4.014 1_645 S
C691 C47 4.014 . S
C61 C425 4.014 1_455 S
C75 C775 4.014 . S
C89 C397 4.014 1_665 S
C103 C747 4.014 . S
C117 C173 4.014 1_545 S
C187 C131 4.014 . S
C145 C201 4.014 1_556 S
C159 C215 4.014 . S
C229 C1279 4.014 1_554 S
C971 C243 4.014 1_455 S
C313 C257 4.014 . S
C1237 C271 4.014 1_654 S
C1335 C285 4.014 . S
C299 C915 4.014 1_554 S
C1293 C327 4.014 . S
C355 C1055 4.014 . S
C1027 C383 4.014 . S
C411 C1111 4.014 . S
C439 C1083 4.014 . S
C509 C453 4.014 1_554 S
C523 C467 4.014 . S
C537 C481 4.014 1_545 S
C551 C495 4.014 . S
C943 C565 4.014 . S
C1307 C579 4.014 1_454 S
C593 C649 4.014 . S
C607 C901 4.014 1_455 S
C621 C999 4.014 . S
C635 C1251 4.014 . S
C663 C957 4.014 . S
C1041 C677 4.014 . S
C705 C1013 4.014 1_545 S
C1097 C733 4.014 . S
C1069 C761 4.014 1_545 S
C845 C789 4.014 1_564 S
C803 C859 4.014 . S
C817 C873 4.014 . S
C887 C831 4.014 . S
C985 C929 4.014 . S
C1125 C1181 4.014 . S
C1139 C1195 4.014 . S
C1153 C1209 4.014 1_566 S
C1223 C1167 4.014 . S
C1321 C1265 4.014 . S
