# Generated by pormake.
# Topology umz, (4)-cn, num edge types: 1
# Building blocks:
#     Node 0, Type 0, BuildingBlock: ICAMEG_clean_sbu_1, # of connection points: 4
#     Node 1, Type 0, BuildingBlock: ICAMEG_clean_sbu_1, # of connection points: 4
#     Node 2, Type 0, BuildingBlock: ICAMEG_clean_sbu_1, # of connection points: 4
#     Node 3, Type 0, BuildingBlock: ICAMEG_clean_sbu_1, # of connection points: 4
#     Node 4, Type 0, BuildingBlock: ICAMEG_clean_sbu_1, # of connection points: 4
#     Node 5, Type 0, BuildingBlock: ICAMEG_clean_sbu_1, # of connection points: 4
#     Node 6, Type 0, BuildingBlock: ICAMEG_clean_sbu_1, # of connection points: 4
#     Node 7, Type 0, BuildingBlock: ICAMEG_clean_sbu_1, # of connection points: 4
#     Node 8, Type 0, BuildingBlock: ICAMEG_clean_sbu_1, # of connection points: 4
#     Node 9, Type 0, BuildingBlock: ICAMEG_clean_sbu_1, # of connection points: 4
#     Node 10, Type 0, BuildingBlock: ICAMEG_clean_sbu_1, # of connection points: 4
#     Node 11, Type 0, BuildingBlock: ICAMEG_clean_sbu_1, # of connection points: 4
#     Node 12, Type 0, BuildingBlock: ICAMEG_clean_sbu_1, # of connection points: 4
#     Node 13, Type 0, BuildingBlock: ICAMEG_clean_sbu_1, # of connection points: 4
#     Node 14, Type 0, BuildingBlock: ICAMEG_clean_sbu_1, # of connection points: 4
#     Node 15, Type 0, BuildingBlock: ICAMEG_clean_sbu_1, # of connection points: 4
#     Edge 16, Type (0, 0), BuildingBlock: XIVTED_clean_linker_0, # of connection points: 2
#     Edge 17, Type (0, 0), BuildingBlock: XIVTED_clean_linker_0, # of connection points: 2
#     Edge 18, Type (0, 0), BuildingBlock: XIVTED_clean_linker_0, # of connection points: 2
#     Edge 19, Type (0, 0), BuildingBlock: XIVTED_clean_linker_0, # of connection points: 2
#     Edge 20, Type (0, 0), BuildingBlock: XIVTED_clean_linker_0, # of connection points: 2
#     Edge 21, Type (0, 0), BuildingBlock: XIVTED_clean_linker_0, # of connection points: 2
#     Edge 22, Type (0, 0), BuildingBlock: XIVTED_clean_linker_0, # of connection points: 2
#     Edge 23, Type (0, 0), BuildingBlock: XIVTED_clean_linker_0, # of connection points: 2
#     Edge 24, Type (0, 0), BuildingBlock: XIVTED_clean_linker_0, # of connection points: 2
#     Edge 25, Type (0, 0), BuildingBlock: XIVTED_clean_linker_0, # of connection points: 2
#     Edge 26, Type (0, 0), BuildingBlock: XIVTED_clean_linker_0, # of connection points: 2
#     Edge 27, Type (0, 0), BuildingBlock: XIVTED_clean_linker_0, # of connection points: 2
#     Edge 28, Type (0, 0), BuildingBlock: XIVTED_clean_linker_0, # of connection points: 2
#     Edge 29, Type (0, 0), BuildingBlock: XIVTED_clean_linker_0, # of connection points: 2
#     Edge 30, Type (0, 0), BuildingBlock: XIVTED_clean_linker_0, # of connection points: 2
#     Edge 31, Type (0, 0), BuildingBlock: XIVTED_clean_linker_0, # of connection points: 2
#     Edge 32, Type (0, 0), BuildingBlock: XIVTED_clean_linker_0, # of connection points: 2
#     Edge 33, Type (0, 0), BuildingBlock: XIVTED_clean_linker_0, # of connection points: 2
#     Edge 34, Type (0, 0), BuildingBlock: XIVTED_clean_linker_0, # of connection points: 2
#     Edge 35, Type (0, 0), BuildingBlock: XIVTED_clean_linker_0, # of connection points: 2
#     Edge 36, Type (0, 0), BuildingBlock: XIVTED_clean_linker_0, # of connection points: 2
#     Edge 37, Type (0, 0), BuildingBlock: XIVTED_clean_linker_0, # of connection points: 2
#     Edge 38, Type (0, 0), BuildingBlock: XIVTED_clean_linker_0, # of connection points: 2
#     Edge 39, Type (0, 0), BuildingBlock: XIVTED_clean_linker_0, # of connection points: 2
#     Edge 40, Type (0, 0), BuildingBlock: XIVTED_clean_linker_0, # of connection points: 2
#     Edge 41, Type (0, 0), BuildingBlock: XIVTED_clean_linker_0, # of connection points: 2
#     Edge 42, Type (0, 0), BuildingBlock: XIVTED_clean_linker_0, # of connection points: 2
#     Edge 43, Type (0, 0), BuildingBlock: XIVTED_clean_linker_0, # of connection points: 2
#     Edge 44, Type (0, 0), BuildingBlock: XIVTED_clean_linker_0, # of connection points: 2
#     Edge 45, Type (0, 0), BuildingBlock: XIVTED_clean_linker_0, # of connection points: 2
#     Edge 46, Type (0, 0), BuildingBlock: XIVTED_clean_linker_0, # of connection points: 2
#     Edge 47, Type (0, 0), BuildingBlock: XIVTED_clean_linker_0, # of connection points: 2
# Relax obj value: 0.211
# Max RMSD: 0.186
# Mean RMSD: 0.167
data_MOF--net-umz--node1-ICAMEG_clean_sbu_1--edge1-XIVTED_clean_linker_0
_symmetry_space_group_name_H-M    P1
_symmetry_Int_Tables_number       1
_symmetry_cell_setting            triclinic
loop_
_symmetry_equiv_pos_as_xyz
'x, y, z'
_cell_length_a     60.410888
_cell_length_b     60.403854
_cell_length_c     24.294233
_cell_angle_alpha  89.533623
_cell_angle_beta   90.462614
_cell_angle_gamma 89.754155
loop_
_atom_site_label
_atom_site_type_symbol
_atom_site_fract_x
_atom_site_fract_y
_atom_site_fract_z
_atom_type_partial_charge
Co0 Co 0.98741 0.57657 0.99336 0.0
Co1 Co 0.00146 0.62692 0.05117 0.0
O2 O 0.99556 0.60798 0.98757 0.0
C3 C 0.02597 0.57576 0.91743 0.0
O4 O 0.03675 0.58871 0.95143 0.0
C5 C 0.9707 0.66457 0.03119 0.0
O6 O 0.96022 0.65847 0.07589 0.0
O7 O 0.97303 0.61771 0.0856 0.0
O8 O 0.96759 0.58291 0.05653 0.0
H9 H 0.0048 0.64442 0.25293 0.0
H10 H 0.98287 0.60081 0.88723 0.0
O11 O 0.00652 0.56934 0.92892 0.0
H12 H 0.90811 0.57303 0.92818 0.0
H13 H 0.96646 0.50217 0.91748 0.0
H14 H 0.98184 0.54466 0.08577 0.0
H15 H 0.93935 0.56512 0.99132 0.0
H16 H 0.97607 0.54165 0.91164 0.0
O17 O 0.98642 0.65261 0.01257 0.0
H18 H 0.99787 0.62102 0.17197 0.0
H19 H 0.01778 0.67327 0.0656 0.0
H20 H 0.97247 0.50502 0.09346 0.0
H21 H 0.95216 0.60889 0.82254 0.0
H22 H 0.96473 0.48346 0.00886 0.0
H23 H 0.91444 0.59499 0.8429 0.0
O24 O 0.01253 0.57027 0.04578 0.0
H25 H 0.0493 0.65191 0.89454 0.0
H26 H 0.04841 0.62997 0.09037 0.0
H27 H 0.08386 0.6396 0.0469 0.0
H28 H 0.08444 0.65073 0.94827 0.0
H29 H 0.01425 0.64187 0.93956 0.0
H30 H 0.02477 0.69729 0.14536 0.0
H31 H 0.01832 0.68288 0.2399 0.0
O32 O 0.01684 0.60231 0.09077 0.0
C33 C 0.96253 0.59942 0.08635 0.0
C34 C 0.00766 0.6509 0.21195 0.0
C35 C 0.01886 0.68058 0.15159 0.0
N36 N 0.00734 0.64578 0.11405 0.0
C37 C 0.00377 0.63773 0.16593 0.0
C38 C 0.01481 0.66692 0.10655 0.0
C39 C 0.01524 0.67248 0.20461 0.0
C40 C 0.96652 0.59464 0.89631 0.0
N41 N 0.96291 0.58254 0.94311 0.0
C42 C 0.94919 0.5993 0.85956 0.0
C43 C 0.92803 0.59152 0.87103 0.0
C44 C 0.92446 0.57922 0.91889 0.0
C45 C 0.94219 0.57489 0.95468 0.0
C46 C 0.96981 0.51131 0.95466 0.0
C47 C 0.97841 0.5354 0.04879 0.0
C48 C 0.97531 0.53371 0.9516 0.0
N49 N 0.97941 0.54551 0.99834 0.0
C50 C 0.97311 0.51297 0.05341 0.0
C51 C 0.96878 0.50087 0.00594 0.0
C52 C 0.02097 0.5818 0.08449 0.0
C53 C 0.04926 0.64713 0.93757 0.0
C54 C 0.04854 0.63462 0.0474 0.0
C55 C 0.06866 0.64016 0.02303 0.0
C56 C 0.06897 0.64643 0.96772 0.0
N57 N 0.02927 0.63537 0.01759 0.0
C58 C 0.02945 0.64151 0.96334 0.0
Co59 Co 0.90757 0.98741 0.5011 0.0
Co60 Co 0.85783 0.00067 0.56262 0.0
O61 O 0.87577 0.99415 0.49777 0.0
C62 C 0.90616 0.02457 0.41923 0.0
O63 O 0.89437 0.03631 0.45368 0.0
C64 C 0.82025 0.9697 0.55357 0.0
O65 O 0.82649 0.96176 0.60177 0.0
O66 O 0.86876 0.97314 0.60025 0.0
O67 O 0.90341 0.96902 0.56858 0.0
H68 H 0.84378 0.00758 0.76542 0.0
H69 H 0.88163 0.97929 0.3992 0.0
O70 O 0.91254 0.00514 0.43242 0.0
H71 H 0.91428 0.90697 0.45042 0.0
H72 H 0.9821 0.96997 0.4199 0.0
H73 H 0.9412 0.98492 0.59056 0.0
H74 H 0.9216 0.94 0.50661 0.0
H75 H 0.94173 0.97617 0.41726 0.0
O76 O 0.83222 0.98412 0.52923 0.0
H77 H 0.86593 0.99954 0.68311 0.0
H78 H 0.81122 0.01615 0.57964 0.0
H79 H 0.98155 0.97864 0.59508 0.0
H80 H 0.87405 0.94675 0.34142 0.0
H81 H 0.0023 0.97128 0.50925 0.0
H82 H 0.8904 0.91026 0.36699 0.0
O83 O 0.91357 0.01392 0.54802 0.0
H84 H 0.82804 0.0449 0.4022 0.0
H85 H 0.8541 0.04824 0.59476 0.0
H86 H 0.84233 0.08257 0.54721 0.0
H87 H 0.82911 0.08102 0.45024 0.0
H88 H 0.84023 0.011 0.45116 0.0
H89 H 0.78847 0.02432 0.66085 0.0
H90 H 0.80474 0.02005 0.75458 0.0
O91 O 0.8825 0.01738 0.5972 0.0
C92 C 0.88775 0.96376 0.60101 0.0
C93 C 0.8365 0.00949 0.7248 0.0
C94 C 0.80546 0.01889 0.66612 0.0
N95 N 0.83989 0.00731 0.62659 0.0
C96 C 0.84896 0.00496 0.67802 0.0
C97 C 0.81842 0.01423 0.62029 0.0
C98 C 0.8146 0.01649 0.71869 0.0
C99 C 0.88885 0.96348 0.41051 0.0
N100 N 0.90201 0.96153 0.45632 0.0
C101 C 0.88448 0.94511 0.37768 0.0
C102 C 0.89364 0.92463 0.39207 0.0
C103 C 0.90702 0.92277 0.4389 0.0
C104 C 0.91102 0.94151 0.47074 0.0
C105 C 0.97324 0.97317 0.45757 0.0
C106 C 0.95006 0.98147 0.5531 0.0
C107 C 0.95037 0.97674 0.45633 0.0
N108 N 0.93908 0.98087 0.50374 0.0
C109 C 0.97293 0.978 0.5559 0.0
C110 C 0.98456 0.97388 0.50773 0.0
C111 C 0.90256 0.0223 0.5875 0.0
C112 C 0.83371 0.04578 0.4445 0.0
C113 C 0.84851 0.04743 0.5525 0.0
C114 C 0.84178 0.06692 0.52583 0.0
C115 C 0.83434 0.06604 0.47145 0.0
N116 N 0.84777 0.0276 0.52587 0.0
C117 C 0.84055 0.02662 0.47251 0.0
Co118 Co 0.53077 0.90355 0.9985 0.0
Co119 Co 0.51289 0.85518 0.06204 0.0
O120 O 0.52206 0.8723 0.99723 0.0
C121 C 0.49413 0.9036 0.91578 0.0
O122 O 0.48247 0.89146 0.94991 0.0
C123 C 0.54361 0.8169 0.06352 0.0
O124 O 0.54997 0.82349 0.11252 0.0
O125 O 0.53906 0.86578 0.10569 0.0
O126 O 0.54845 0.89824 0.06644 0.0
H127 H 0.49689 0.84346 0.26293 0.0
H128 H 0.53729 0.87687 0.89799 0.0
O129 O 0.51352 0.90973 0.92924 0.0
H130 H 0.61169 0.90313 0.95007 0.0
H131 H 0.55555 0.9756 0.91359 0.0
H132 H 0.53557 0.9372 0.08595 0.0
H133 H 0.57908 0.91341 0.00486 0.0
H134 H 0.54486 0.93625 0.91284 0.0
O135 O 0.53013 0.82882 0.03515 0.0
H136 H 0.50877 0.86458 0.18117 0.0
H137 H 0.49631 0.80904 0.07957 0.0
H138 H 0.54635 0.9765 0.08861 0.0
H139 H 0.5694 0.86637 0.84161 0.0
H140 H 0.55641 0.99598 0.00197 0.0
H141 H 0.60693 0.87951 0.86763 0.0
O142 O 0.5046 0.91191 0.04474 0.0
H143 H 0.47435 0.82491 0.89495 0.0
H144 H 0.46425 0.85317 0.08293 0.0
H145 H 0.43161 0.84189 0.02862 0.0
H146 H 0.43656 0.82758 0.93393 0.0
H147 H 0.50651 0.83663 0.9505 0.0
H148 H 0.48435 0.7873 0.16026 0.0
H149 H 0.48458 0.80451 0.25278 0.0
O150 O 0.4956 0.88065 0.08984 0.0
C151 C 0.5507 0.88339 0.10358 0.0
C152 C 0.49677 0.83576 0.22286 0.0
C153 C 0.48973 0.80424 0.16525 0.0
N154 N 0.50341 0.83803 0.12568 0.0
C155 C 0.50351 0.84763 0.17641 0.0
C156 C 0.49656 0.81663 0.11972 0.0
C157 C 0.48986 0.81391 0.21713 0.0
C158 C 0.55356 0.88272 0.90943 0.0
N159 N 0.55631 0.89574 0.95467 0.0
C160 C 0.57168 0.87669 0.87741 0.0
C161 C 0.59274 0.88405 0.89206 0.0
C162 C 0.59542 0.89728 0.93834 0.0
C163 C 0.57692 0.90297 0.96937 0.0
C164 C 0.5512 0.96729 0.95161 0.0
C165 C 0.54002 0.94552 0.04809 0.0
C166 C 0.54505 0.94503 0.95142 0.0
N167 N 0.53962 0.93441 0.99932 0.0
C168 C 0.54607 0.96779 0.04985 0.0
C169 C 0.55169 0.97871 1.00122 0.0
C170 C 0.49339 0.90132 0.08076 0.0
C171 C 0.47198 0.83106 0.93621 0.0
C172 C 0.46654 0.84708 0.04169 0.0
C173 C 0.44799 0.84064 0.01118 0.0
C174 C 0.45078 0.83259 0.95808 0.0
N175 N 0.48729 0.84548 0.02003 0.0
C176 C 0.49014 0.83763 0.96796 0.0
Co177 Co 0.57799 0.53018 0.47254 0.0
Co178 Co 0.62253 0.50311 0.53536 0.0
O179 O 0.60804 0.5174 0.47179 0.0
C180 C 0.57608 0.49665 0.3841 0.0
O181 O 0.58705 0.48326 0.41738 0.0
C182 C 0.65604 0.53665 0.49795 0.0
O183 O 0.64058 0.54925 0.47576 0.0
O184 O 0.61394 0.52799 0.58425 0.0
O185 O 0.58434 0.54456 0.54457 0.0
H186 H 0.62657 0.47606 0.73136 0.0
H187 H 0.60591 0.53652 0.37371 0.0
O188 O 0.5709 0.51602 0.39994 0.0
H189 H 0.59017 0.61169 0.44112 0.0
H190 H 0.51126 0.56683 0.38522 0.0
H191 H 0.54353 0.53677 0.55744 0.0
H192 H 0.57522 0.57896 0.48918 0.0
H193 H 0.54906 0.55129 0.38675 0.0
O194 O 0.65131 0.51821 0.52046 0.0
H195 H 0.60907 0.49399 0.65042 0.0
H196 H 0.66661 0.48177 0.55573 0.0
H197 H 0.50559 0.55204 0.55766 0.0
H198 H 0.62094 0.5688 0.32396 0.0
H199 H 0.48919 0.56713 0.471 0.0
H200 H 0.61314 0.60672 0.35773 0.0
O201 O 0.5655 0.504 0.51311 0.0
H202 H 0.6531 0.47001 0.36275 0.0
H203 H 0.6197 0.45383 0.54308 0.0
H204 H 0.62924 0.42302 0.48153 0.0
H205 H 0.64609 0.43103 0.39064 0.0
H206 H 0.64309 0.50032 0.42543 0.0
H207 H 0.6848 0.4639 0.63584 0.0
H208 H 0.66472 0.46087 0.72438 0.0
O209 O 0.59477 0.48754 0.55385 0.0
C210 C 0.59843 0.54243 0.58373 0.0
C211 C 0.63547 0.47722 0.69296 0.0
C212 C 0.66816 0.47043 0.63937 0.0
N213 N 0.63673 0.4888 0.59827 0.0
C214 C 0.62563 0.4873 0.64693 0.0
C215 C 0.65779 0.48061 0.59418 0.0
C216 C 0.65688 0.46873 0.68903 0.0
C217 C 0.60226 0.55297 0.38836 0.0
N218 N 0.58963 0.55585 0.43417 0.0
C219 C 0.6109 0.57118 0.36016 0.0
C220 C 0.60655 0.59245 0.37918 0.0
C221 C 0.59368 0.59525 0.426 0.0
C222 C 0.58533 0.57665 0.45317 0.0
C223 C 0.51821 0.56027 0.42321 0.0
C224 C 0.53654 0.54337 0.51963 0.0
C225 C 0.5396 0.5514 0.42432 0.0
N226 N 0.54851 0.54311 0.47217 0.0
C227 C 0.51504 0.55199 0.51999 0.0
C228 C 0.50585 0.56046 0.47138 0.0
C229 C 0.5741 0.48918 0.54451 0.0
C230 C 0.64581 0.4663 0.40229 0.0
C231 C 0.62694 0.45745 0.50352 0.0
C232 C 0.63237 0.43993 0.4689 0.0
C233 C 0.64184 0.44444 0.41793 0.0
N234 N 0.63089 0.47885 0.4879 0.0
C235 C 0.6402 0.48339 0.43804 0.0
Co236 Co 0.99191 0.91351 0.00248 0.0
Co237 Co 0.00561 0.8642 0.93895 0.0
O238 O 0.99968 0.8819 0.00458 0.0
C239 C 0.03034 0.91262 0.08108 0.0
O240 O 0.04182 0.90085 0.04608 0.0
C241 C 0.97444 0.82679 0.9522 0.0
O242 O 0.96441 0.83373 0.90708 0.0
O243 O 0.97746 0.87474 0.90365 0.0
O244 O 0.9722 0.90889 0.93751 0.0
H245 H 0.0101 0.8508 0.73543 0.0
H246 H 0.98664 0.88679 0.10439 0.0
O247 O 0.01078 0.91893 0.06897 0.0
H248 H 0.91263 0.91799 0.06444 0.0
H249 H 0.97295 0.98723 0.08635 0.0
H250 H 0.98662 0.94718 0.91378 0.0
H251 H 0.94419 0.92656 0.00431 0.0
H252 H 0.98132 0.94723 0.08803 0.0
O253 O 0.99008 0.83816 0.97336 0.0
H254 H 0.00305 0.8727 0.81873 0.0
H255 H 0.02118 0.81779 0.9199 0.0
H256 H 0.97811 0.98714 0.91025 0.0
H257 H 0.95562 0.87798 0.1661 0.0
H258 H 0.97121 0.00744 0.99699 0.0
H259 H 0.91827 0.89359 0.14619 0.0
O260 O 0.01729 0.92039 0.95232 0.0
H261 H 0.05246 0.83486 0.09523 0.0
H262 H 0.05267 0.86095 0.90246 0.0
H263 H 0.08778 0.84951 0.9468 0.0
H264 H 0.08781 0.83627 0.04387 0.0
H265 H 0.01775 0.84673 0.04943 0.0
H266 H 0.0283 0.79525 0.83773 0.0
H267 H 0.02279 0.81177 0.74462 0.0
O268 O 0.02145 0.88925 0.90358 0.0
C269 C 0.96713 0.89321 0.90499 0.0
C270 C 0.01254 0.84341 0.77576 0.0
C271 C 0.02274 0.81223 0.83317 0.0
N272 N 0.01158 0.84652 0.87418 0.0
C273 C 0.00856 0.85572 0.8231 0.0
C274 C 0.01862 0.82506 0.87957 0.0
C275 C 0.01965 0.82151 0.78095 0.0
C276 C 0.97045 0.89366 0.09548 0.0
N277 N 0.9672 0.90707 0.05053 0.0
C278 C 0.95294 0.88861 0.13056 0.0
C279 C 0.93199 0.89736 0.11935 0.0
C280 C 0.9288 0.91102 0.07345 0.0
C281 C 0.9467 0.91571 0.03931 0.0
C282 C 0.97585 0.97855 0.04827 0.0
C283 C 0.98347 0.95585 0.95168 0.0
C284 C 0.98068 0.9559 0.04896 0.0
N285 N 0.98436 0.94482 1.001 0.0
C286 C 0.97871 0.97849 0.94943 0.0
C287 C 0.97484 0.98987 0.9981 0.0
C288 C 0.02575 0.90952 0.91268 0.0
C289 C 0.05265 0.84056 0.05288 0.0
C290 C 0.05256 0.85539 0.94478 0.0
C291 C 0.07249 0.84883 0.96963 0.0
C292 C 0.07249 0.84138 0.02407 0.0
N293 N 0.03316 0.85448 0.97325 0.0
C294 C 0.03304 0.84722 0.02667 0.0
Co295 Co 0.57818 0.99719 0.50183 0.0
Co296 Co 0.6245 0.01846 0.43687 0.0
O297 O 0.60849 0.00913 0.50305 0.0
C298 C 0.57493 0.0343 0.58188 0.0
O299 O 0.58614 0.04691 0.54787 0.0
C300 C 0.65814 0.98653 0.48377 0.0
O301 O 0.64285 0.97151 0.49206 0.0
O302 O 0.61763 0.98982 0.39992 0.0
O303 O 0.58517 0.97912 0.43597 0.0
H304 H 0.63403 0.02821 0.23289 0.0
H305 H 0.60585 0.99457 0.603 0.0
O306 O 0.5704 0.01446 0.56904 0.0
H307 H 0.58693 0.9173 0.5595 0.0
H308 H 0.50895 0.96724 0.58874 0.0
H309 H 0.54478 0.98834 0.41453 0.0
H310 H 0.57298 0.94804 0.50137 0.0
H311 H 0.54735 0.98074 0.5884 0.0
O312 O 0.65295 0.00572 0.46574 0.0
H313 H 0.61446 0.01719 0.31741 0.0
H314 H 0.66839 0.03944 0.41528 0.0
H315 H 0.50624 0.97494 0.41298 0.0
H316 H 0.62001 0.96435 0.66261 0.0
H317 H 0.48801 0.96441 0.50061 0.0
H318 H 0.6106 0.92538 0.64091 0.0
O319 O 0.56712 0.02191 0.45284 0.0
H320 H 0.64881 0.06504 0.59636 0.0
H321 H 0.62286 0.06622 0.40356 0.0
H322 H 0.63017 0.10148 0.45066 0.0
H323 H 0.6433 0.10102 0.54783 0.0
H324 H 0.64097 0.03019 0.54773 0.0
H325 H 0.68865 0.05048 0.3318 0.0
H326 H 0.67142 0.04496 0.23977 0.0
O327 O 0.59718 0.03199 0.40525 0.0
C328 C 0.60101 0.97683 0.40209 0.0
C329 C 0.64171 0.03072 0.27276 0.0
C330 C 0.67237 0.04318 0.32826 0.0
N331 N 0.64026 0.02767 0.37126 0.0
C332 C 0.63069 0.02455 0.32077 0.0
C333 C 0.66086 0.03681 0.37538 0.0
C334 C 0.66269 0.0401 0.27664 0.0
C335 C 0.6016 0.97766 0.59343 0.0
N336 N 0.58862 0.97308 0.54867 0.0
C337 C 0.60971 0.96062 0.62727 0.0
C338 C 0.60444 0.93875 0.61505 0.0
C339 C 0.59118 0.93421 0.56935 0.0
C340 C 0.58339 0.95168 0.53641 0.0
C341 C 0.51665 0.97183 0.55028 0.0
C342 C 0.53701 0.98364 0.45277 0.0
C343 C 0.53841 0.97953 0.54984 0.0
N344 N 0.54833 0.98534 0.50147 0.0
C345 C 0.51518 0.97608 0.45164 0.0
C346 C 0.50495 0.97018 0.50082 0.0
C347 C 0.57653 0.03305 0.41477 0.0
C348 C 0.64305 0.06546 0.55407 0.0
C349 C 0.62822 0.06592 0.44599 0.0
C350 C 0.63252 0.08592 0.47237 0.0
C351 C 0.63993 0.08565 0.52684 0.0
N352 N 0.6312 0.0462 0.47303 0.0
C353 C 0.63861 0.0458 0.52631 0.0
Co354 Co 0.53032 0.57554 0.04716 0.0
Co355 Co 0.50007 0.61779 0.98409 0.0
O356 O 0.51531 0.60449 0.04762 0.0
C357 C 0.49671 0.5711 0.13407 0.0
O358 O 0.48275 0.58041 0.09917 0.0
C359 C 0.53176 0.65372 0.01488 0.0
O360 O 0.54738 0.63895 0.02442 0.0
O361 O 0.5259 0.61163 0.93583 0.0
O362 O 0.5441 0.58281 0.97487 0.0
H363 H 0.47404 0.6206 0.78715 0.0
H364 H 0.5345 0.6046 0.14454 0.0
O365 O 0.51667 0.56768 0.11987 0.0
H366 H 0.61065 0.5939 0.07781 0.0
H367 H 0.57123 0.51163 0.13596 0.0
H368 H 0.53966 0.5415 0.96277 0.0
H369 H 0.57915 0.57609 0.03078 0.0
H370 H 0.55332 0.54838 0.13354 0.0
O371 O 0.51234 0.64769 1.00121 0.0
H372 H 0.49298 0.60429 0.86821 0.0
H373 H 0.47473 0.65975 0.96449 0.0
H374 H 0.55733 0.50461 0.96344 0.0
H375 H 0.56554 0.62256 0.19312 0.0
H376 H 0.57313 0.48937 0.05064 0.0
H377 H 0.60393 0.61727 0.15971 0.0
O378 O 0.5052 0.56096 0.00697 0.0
H379 H 0.46342 0.64421 0.15648 0.0
H380 H 0.45131 0.61052 0.97461 0.0
H381 H 0.41946 0.61673 0.03552 0.0
H382 H 0.42543 0.63371 0.12721 0.0
H383 H 0.49483 0.63749 0.09436 0.0
H384 H 0.45578 0.67675 0.8843 0.0
H385 H 0.45528 0.6571 0.79489 0.0
O386 O 0.4872 0.58881 0.9641 0.0
C387 C 0.5412 0.59695 0.93606 0.0
C388 C 0.47411 0.6293 0.82592 0.0
C389 C 0.46388 0.66083 0.88042 0.0
N390 N 0.48489 0.631 0.92112 0.0
C391 C 0.48476 0.62013 0.87201 0.0
C392 C 0.4747 0.65115 0.92565 0.0
C393 C 0.4636 0.64979 0.83027 0.0
C394 C 0.55118 0.6021 0.13001 0.0
N395 N 0.55503 0.58923 0.08507 0.0
C396 C 0.56868 0.61236 0.15757 0.0
C397 C 0.59022 0.60941 0.13876 0.0
C398 C 0.594 0.59631 0.09279 0.0
C399 C 0.57609 0.58632 0.06624 0.0
C400 C 0.56432 0.51804 0.09779 0.0
C401 C 0.54661 0.53505 1.00078 0.0
C402 C 0.55414 0.53884 0.09615 0.0
N403 N 0.54542 0.54709 0.04804 0.0
C404 C 0.55657 0.51413 1.00093 0.0
C405 C 0.56543 0.50559 0.04985 0.0
C406 C 0.49017 0.56833 0.97434 0.0
C407 C 0.46061 0.63683 0.1166 0.0
C408 C 0.45404 0.6178 0.01451 0.0
C409 C 0.43594 0.62136 0.04877 0.0
C410 C 0.4393 0.63091 0.10018 0.0
N411 N 0.47489 0.62363 0.03093 0.0
C412 C 0.47831 0.63306 0.08119 0.0
Co413 Co 0.89568 0.52486 0.49578 0.0
Co414 Co 0.85131 0.50064 0.42738 0.0
O415 O 0.86586 0.51193 0.49401 0.0
C416 C 0.90013 0.48739 0.57598 0.0
O417 O 0.89 0.47457 0.54046 0.0
C418 C 0.81842 0.53359 0.47014 0.0
O419 O 0.83425 0.54534 0.49264 0.0
O420 O 0.86014 0.52722 0.38335 0.0
O421 O 0.88888 0.54242 0.42836 0.0
H422 H 0.84715 0.48126 0.22677 0.0
H423 H 0.86792 0.52637 0.59579 0.0
O424 O 0.90342 0.50768 0.56434 0.0
H425 H 0.8826 0.60437 0.54762 0.0
H426 H 0.96231 0.55847 0.58838 0.0
H427 H 0.92945 0.53536 0.4116 0.0
H428 H 0.89799 0.57418 0.49171 0.0
H429 H 0.9249 0.54235 0.585 0.0
O430 O 0.8227 0.51559 0.4455 0.0
H431 H 0.86483 0.49557 0.31101 0.0
H432 H 0.80699 0.48116 0.40269 0.0
H433 H 0.96683 0.55159 0.41307 0.0
H434 H 0.85241 0.55604 0.65325 0.0
H435 H 0.98352 0.56324 0.50195 0.0
H436 H 0.85968 0.59537 0.62915 0.0
O437 O 0.90823 0.50069 0.44857 0.0
H438 H 0.82017 0.46125 0.59212 0.0
H439 H 0.85388 0.45185 0.4096 0.0
H440 H 0.84393 0.41884 0.46431 0.0
H441 H 0.8269 0.42345 0.55626 0.0
H442 H 0.83057 0.4938 0.53615 0.0
H443 H 0.78862 0.46689 0.31929 0.0
H444 H 0.80876 0.4668 0.23056 0.0
O445 O 0.87897 0.48548 0.40585 0.0
C446 C 0.87526 0.5418 0.38815 0.0
C447 C 0.83822 0.48117 0.26521 0.0
C448 C 0.80536 0.47313 0.31712 0.0
N449 N 0.83701 0.48913 0.3618 0.0
C450 C 0.84816 0.48921 0.31309 0.0
C451 C 0.81583 0.4813 0.36418 0.0
C452 C 0.81667 0.47308 0.26735 0.0
C453 C 0.87132 0.54344 0.58534 0.0
N454 N 0.8839 0.54853 0.54054 0.0
C455 C 0.86242 0.56017 0.61789 0.0
C456 C 0.86647 0.58224 0.6043 0.0
C457 C 0.87931 0.5873 0.55853 0.0
C458 C 0.88792 0.57013 0.52689 0.0
C459 C 0.95522 0.55345 0.5494 0.0
C460 C 0.93655 0.54047 0.45042 0.0
C461 C 0.93407 0.54423 0.54724 0.0
N462 N 0.92497 0.53792 0.49813 0.0
C463 C 0.95775 0.54962 0.451 0.0
C464 C 0.9671 0.55614 0.50089 0.0
C465 C 0.89968 0.487 0.41468 0.0
C466 C 0.82753 0.45903 0.55206 0.0
C467 C 0.84657 0.45398 0.44964 0.0
C468 C 0.84091 0.43523 0.48038 0.0
C469 C 0.83134 0.43782 0.53195 0.0
N470 N 0.84274 0.47472 0.46961 0.0
C471 C 0.83338 0.4774 0.52013 0.0
Co472 Co 0.00843 0.42664 0.99933 0.0
Co473 Co 0.99339 0.37586 0.9452 0.0
O474 O 0.99999 0.39536 0.00731 0.0
C475 C 0.97055 0.42785 0.07706 0.0
O476 O 0.95988 0.41412 0.04481 0.0
C477 C 0.02434 0.33839 0.96566 0.0
O478 O 0.03442 0.34412 0.92009 0.0
O479 O 0.02151 0.38456 0.90874 0.0
O480 O 0.02793 0.41942 0.93607 0.0
H481 H 0.98806 0.35644 0.74479 0.0
H482 H 0.01322 0.40339 0.10677 0.0
O483 O 0.98967 0.43473 0.06383 0.0
H484 H 0.08804 0.43005 0.06208 0.0
H485 H 0.03058 0.50158 0.06978 0.0
H486 H 0.01389 0.45753 0.90479 0.0
H487 H 0.05658 0.43764 0.99935 0.0
H488 H 0.0205 0.46228 0.07848 0.0
O489 O 0.0087 0.35044 0.98436 0.0
H490 H 0.99584 0.38059 0.8239 0.0
H491 H 0.97681 0.32945 0.93453 0.0
H492 H 0.02368 0.49696 0.89427 0.0
H493 H 0.04415 0.39566 0.17108 0.0
H494 H 0.03207 0.5193 0.9772 0.0
H495 H 0.08189 0.409 0.14884 0.0
O496 O 0.98312 0.43271 0.94723 0.0
H497 H 0.94689 0.35224 0.1056 0.0
H498 H 0.94606 0.37303 0.90895 0.0
H499 H 0.91098 0.36394 0.95488 0.0
H500 H 0.91126 0.3534 0.05392 0.0
H501 H 0.98157 0.36173 0.05814 0.0
H502 H 0.96896 0.30469 0.85667 0.0
H503 H 0.97455 0.31817 0.76093 0.0
O504 O 0.97781 0.40021 0.905 0.0
C505 C 0.03242 0.40257 0.90685 0.0
C506 C 0.98556 0.35037 0.78631 0.0
C507 C 0.97486 0.32132 0.84909 0.0
N508 N 0.98684 0.35644 0.88383 0.0
C509 C 0.98993 0.36398 0.83128 0.0
C510 C 0.97938 0.3354 0.89304 0.0
C511 C 0.97799 0.3289 0.7954 0.0
C512 C 0.02958 0.40931 0.09687 0.0
N513 N 0.03309 0.42093 0.04926 0.0
C514 C 0.04704 0.40485 0.13341 0.0
C515 C 0.06821 0.41232 0.12089 0.0
C516 C 0.07168 0.42412 0.0722 0.0
C517 C 0.05383 0.42826 0.03665 0.0
C518 C 0.02692 0.49209 0.03333 0.0
C519 C 0.01759 0.46713 0.94105 0.0
C520 C 0.02117 0.46979 0.038 0.0
N521 N 0.01672 0.45756 0.99216 0.0
C522 C 0.02313 0.48944 0.93483 0.0
C523 C 0.02783 0.50198 0.98137 0.0
C524 C 0.97414 0.42087 0.90987 0.0
C525 C 0.94656 0.35676 0.0624 0.0
C526 C 0.94631 0.36861 0.95209 0.0
C527 C 0.9264 0.36338 0.97785 0.0
C528 C 0.92657 0.35745 0.0334 0.0
N529 N 0.96586 0.36788 0.98078 0.0
C530 C 0.96615 0.36206 0.03525 0.0
Co531 Co 0.09413 0.01522 0.49985 0.0
Co532 Co 0.14402 0.00154 0.43882 0.0
O533 O 0.12595 0.00854 0.50316 0.0
C534 C 0.09566 0.97769 0.58074 0.0
O535 O 0.10781 0.96631 0.54633 0.0
C536 C 0.18092 0.03341 0.44469 0.0
O537 O 0.17455 0.04036 0.39567 0.0
O538 O 0.13248 0.02828 0.39861 0.0
O539 O 0.09846 0.03401 0.43311 0.0
H540 H 0.15813 0.9916 0.23685 0.0
H541 H 0.12009 0.02279 0.602 0.0
O542 O 0.08904 0.99708 0.5679 0.0
H543 H 0.08708 0.09527 0.55377 0.0
H544 H 0.01944 0.03207 0.58096 0.0
H545 H 0.06065 0.01831 0.41014 0.0
H546 H 0.07984 0.06255 0.49638 0.0
H547 H 0.05981 0.02588 0.5838 0.0
O548 O 0.16925 0.01917 0.47053 0.0
H549 H 0.13583 1.00045 0.31839 0.0
H550 H 0.19099 0.98693 0.42307 0.0
H551 H 0.02031 0.02462 0.40543 0.0
H552 H 0.1276 0.055 0.66098 0.0
H553 H 0.9994 0.03137 0.49133 0.0
H554 H 0.11107 0.09157 0.6369 0.0
O555 O 0.08811 0.98896 0.45193 0.0
H556 H 0.17491 0.96037 0.60291 0.0
H557 H 0.14873 0.9536 0.41108 0.0
H558 H 0.16129 0.92025 0.46166 0.0
H559 H 0.17457 0.92352 0.55827 0.0
H560 H 0.16195 0.99326 0.55097 0.0
H561 H 0.21389 0.97799 0.34264 0.0
H562 H 0.19747 0.9803 0.24869 0.0
O563 O 0.11976 0.98385 0.40597 0.0
C564 C 0.11387 0.0384 0.39917 0.0
C565 C 0.16548 0.99057 0.27757 0.0
C566 C 0.19678 0.98292 0.33693 0.0
N567 N 0.16209 0.99433 0.37545 0.0
C568 C 0.15294 0.99558 0.3239 0.0
C569 C 0.18372 0.98802 0.38232 0.0
C570 C 0.18755 0.98422 0.28424 0.0
C571 C 0.11281 0.03865 0.59131 0.0
N572 N 0.09961 0.04082 0.54563 0.0
C573 C 0.11714 0.05683 0.62484 0.0
C574 C 0.10787 0.07735 0.61129 0.0
C575 C 0.09443 0.07944 0.56462 0.0
C576 C 0.09048 0.06089 0.53207 0.0
C577 C 0.02837 0.02913 0.54326 0.0
C578 C 0.05172 0.02151 0.44765 0.0
C579 C 0.05123 0.02557 0.5446 0.0
N580 N 0.06262 0.02177 0.49715 0.0
C581 C 0.02886 0.02498 0.44473 0.0
C582 C 0.01714 0.02876 0.49294 0.0
C583 C 0.09945 0.97963 0.41442 0.0
C584 C 0.16922 0.95874 0.56078 0.0
C585 C 0.15435 0.95516 0.45317 0.0
C586 C 0.16153 0.93622 0.48156 0.0
C587 C 0.16899 0.93806 0.53574 0.0
N588 N 0.15469 0.97539 0.47794 0.0
C589 C 0.16194 0.97732 0.53109 0.0
Co590 Co 0.47081 0.10235 0.99489 0.0
Co591 Co 0.49161 0.14911 0.92852 0.0
O592 O 0.48119 0.13326 0.99459 0.0
C593 C 0.5069 0.1011 0.07977 0.0
O594 O 0.51928 0.11316 0.0471 0.0
C595 C 0.46122 0.18219 0.98443 0.0
O596 O 0.45517 0.16784 0.02215 0.0
O597 O 0.46565 0.13884 0.88394 0.0
O598 O 0.4537 0.10793 0.92622 0.0
H599 H 0.51103 0.15556 0.72821 0.0
H600 H 0.46549 0.12906 0.09584 0.0
O601 O 0.48748 0.09566 0.06478 0.0
H602 H 0.38979 0.10808 0.04035 0.0
H603 H 0.44157 0.03261 0.08272 0.0
H604 H 0.46459 0.06821 0.90913 0.0
H605 H 0.42195 0.09586 0.98644 0.0
H606 H 0.45442 0.07129 0.08172 0.0
O607 O 0.47484 0.17681 0.94711 0.0
H608 H 0.49787 0.13653 0.81182 0.0
H609 H 0.50797 0.19486 0.90514 0.0
H610 H 0.45166 0.02956 0.9082 0.0
H611 H 0.43384 0.14134 0.15155 0.0
H612 H 0.44008 0.01148 0.99548 0.0
H613 H 0.39565 0.13092 0.12374 0.0
O614 O 0.49667 0.09212 0.94986 0.0
H615 H 0.53012 0.17998 0.09559 0.0
H616 H 0.54016 0.1509 0.90845 0.0
H617 H 0.57279 0.16251 0.96224 0.0
H618 H 0.56788 0.17727 0.05649 0.0
H619 H 0.49804 0.16793 0.04072 0.0
H620 H 0.52103 0.21457 0.82238 0.0
H621 H 0.5227 0.19488 0.73314 0.0
O622 O 0.50859 0.12264 0.9061 0.0
C623 C 0.45284 0.12211 0.88724 0.0
C624 C 0.51039 0.16432 0.76686 0.0
C625 C 0.51597 0.19744 0.8197 0.0
N626 N 0.50217 0.16453 0.8634 0.0
C627 C 0.50299 0.15361 0.8144 0.0
C628 C 0.50848 0.18621 0.86639 0.0
C629 C 0.51693 0.18638 0.76965 0.0
C630 C 0.44894 0.12431 0.08373 0.0
N631 N 0.44558 0.11183 0.0378 0.0
C632 C 0.43107 0.13138 0.11532 0.0
C633 C 0.40965 0.12556 0.09964 0.0
C634 C 0.40635 0.11278 0.05281 0.0
C635 C 0.42461 0.10603 0.02222 0.0
C636 C 0.4466 0.04029 0.04443 0.0
C637 C 0.4595 0.0605 0.94726 0.0
C638 C 0.45397 0.06218 0.04364 0.0
N639 N 0.46027 0.07203 0.99541 0.0
C640 C 0.45222 0.03859 0.94648 0.0
C641 C 0.44574 0.02846 0.99547 0.0
C642 C 0.50935 0.10193 0.91566 0.0
C643 C 0.53246 0.17371 0.05443 0.0
C644 C 0.53785 0.15727 0.94942 0.0
C645 C 0.55641 0.16385 0.97967 0.0
C646 C 0.55365 0.17214 0.03252 0.0
N647 N 0.51708 0.15901 0.97096 0.0
C648 C 0.51429 0.16699 0.02292 0.0
Co649 Co 0.43248 0.46501 0.54713 0.0
Co650 Co 0.38524 0.48908 0.49053 0.0
O651 O 0.40199 0.4762 0.55209 0.0
C652 C 0.43423 0.49822 0.63555 0.0
O653 O 0.42314 0.51144 0.60207 0.0
C654 C 0.34526 0.46061 0.49041 0.0
O655 O 0.35166 0.45291 0.44272 0.0
O656 O 0.3929 0.46337 0.4435 0.0
O657 O 0.42581 0.45088 0.47491 0.0
H658 H 0.37278 0.51043 0.29229 0.0
H659 H 0.40636 0.45619 0.64788 0.0
O660 O 0.43981 0.47896 0.61974 0.0
H661 H 0.42574 0.38266 0.57538 0.0
H662 H 0.50197 0.43021 0.62475 0.0
H663 H 0.46591 0.46145 0.45857 0.0
H664 H 0.43785 0.41662 0.52757 0.0
H665 H 0.46376 0.44449 0.62845 0.0
O666 O 0.35758 0.47398 0.51713 0.0
H667 H 0.39368 0.49487 0.37125 0.0
H668 H 0.34076 0.51061 0.4783 0.0
H669 H 0.50443 0.44794 0.45344 0.0
H670 H 0.39412 0.42265 0.69737 0.0
H671 H 0.52274 0.43222 0.53705 0.0
H672 H 0.40381 0.38555 0.66111 0.0
O673 O 0.44263 0.49219 0.50673 0.0
H674 H 0.36063 0.52576 0.66465 0.0
H675 H 0.38725 0.53817 0.47565 0.0
H676 H 0.37967 0.57024 0.53485 0.0
H677 H 0.36621 0.56413 0.6301 0.0
H678 H 0.36867 0.49417 0.60419 0.0
H679 H 0.31922 0.5262 0.40045 0.0
H680 H 0.33525 0.52621 0.30661 0.0
O681 O 0.41201 0.50451 0.46302 0.0
C682 C 0.40994 0.45094 0.43988 0.0
C683 C 0.36562 0.51053 0.33298 0.0
C684 C 0.33555 0.51936 0.39366 0.0
N685 N 0.36845 0.5018 0.42938 0.0
C686 C 0.37738 0.50176 0.37788 0.0
C687 C 0.3478 0.51046 0.43759 0.0
C688 C 0.34456 0.51937 0.34104 0.0
C689 C 0.41075 0.44011 0.63202 0.0
N690 N 0.42292 0.43837 0.58508 0.0
C691 C 0.40372 0.42117 0.66013 0.0
C692 C 0.40914 0.40036 0.63973 0.0
C693 C 0.42143 0.39873 0.59162 0.0
C694 C 0.42818 0.41802 0.56462 0.0
C695 C 0.49427 0.4372 0.58818 0.0
C696 C 0.47379 0.4547 0.49514 0.0
C697 C 0.4726 0.44528 0.58999 0.0
N698 N 0.46259 0.45377 0.54372 0.0
C699 C 0.4956 0.44706 0.49198 0.0
C700 C 0.50587 0.43824 0.53888 0.0
C701 C 0.43279 0.505 0.4722 0.0
C702 C 0.36644 0.52864 0.62318 0.0
C703 C 0.38153 0.53538 0.51711 0.0
C704 C 0.37718 0.5536 0.55039 0.0
C705 C 0.36961 0.55016 0.6038 0.0
N706 N 0.37837 0.51432 0.53638 0.0
C707 C 0.37092 0.51082 0.58868 0.0
Co708 Co 0.00922 0.08959 0.99915 0.0
Co709 Co 0.99533 0.13914 0.06133 0.0
O710 O 0.00154 0.12122 0.99627 0.0
C711 C 0.97088 0.09045 0.92079 0.0
O712 O 0.95963 0.10231 0.95606 0.0
C713 C 0.02656 0.17651 0.0484 0.0
O714 O 0.03644 0.16966 0.0938 0.0
O715 O 0.02328 0.12861 0.09766 0.0
O716 O 0.02869 0.09436 0.06455 0.0
H717 H 0.99004 0.15311 0.26446 0.0
H718 H 0.01484 0.11576 0.89647 0.0
O719 O 0.99046 0.08406 0.93244 0.0
H720 H 0.0888 0.08508 0.93963 0.0
H721 H 0.02837 0.01567 0.91671 0.0
H722 H 0.01422 0.05613 0.08846 0.0
H723 H 0.057 0.07678 0.99925 0.0
H724 H 0.01999 0.05567 0.91433 0.0
O725 O 0.01106 0.16504 0.02693 0.0
H726 H 0.9974 0.13098 0.18171 0.0
H727 H 0.97964 0.18561 0.07921 0.0
H728 H 0.02272 0.01617 0.0927 0.0
H729 H 0.04611 0.1243 0.83528 0.0
H730 H 0.02987 0.99567 0.00638 0.0
H731 H 0.08342 0.10894 0.8568 0.0
O732 O 0.98369 0.08289 0.04895 0.0
H733 H 0.94934 0.16797 0.90293 0.0
H734 H 0.9481 0.14275 0.09633 0.0
H735 H 0.91324 0.15408 0.05062 0.0
H736 H 0.91372 0.16688 0.95322 0.0
H737 H 0.98378 0.15622 0.9501 0.0
H738 H 0.97222 0.20837 0.16082 0.0
H739 H 0.97739 0.19212 0.25432 0.0
O740 O 0.97925 0.11426 0.09662 0.0
C741 C 0.03357 0.1101 0.09707 0.0
C742 C 0.98776 0.16039 0.22395 0.0
C743 C 0.97777 0.19141 0.1658 0.0
N744 N 0.98909 0.15701 0.12562 0.0
C745 C 0.99191 0.14794 0.17692 0.0
C746 C 0.98206 0.17846 0.11972 0.0
C747 C 0.98066 0.18228 0.21823 0.0
C748 C 0.03102 0.10898 0.90603 0.0
N749 N 0.03411 0.09585 0.95154 0.0
C750 C 0.04867 0.11389 0.87127 0.0
C751 C 0.0696 0.10528 0.88338 0.0
C752 C 0.07263 0.09192 0.92988 0.0
C753 C 0.0546 0.08737 0.96369 0.0
C754 C 0.02537 0.02445 0.95461 0.0
C755 C 0.01747 0.04737 0.05074 0.0
C756 C 0.02054 0.04709 0.95353 0.0
N757 N 0.01672 0.05828 1.00125 0.0
C758 C 0.02224 0.02473 0.0534 0.0
C759 C 0.02624 0.01324 0.00495 0.0
C760 C 0.97501 0.09395 0.08796 0.0
C761 C 0.94892 0.16247 0.94541 0.0
C762 C 0.94843 0.14811 0.05387 0.0
C763 C 0.92865 0.15462 0.02825 0.0
C764 C 0.92894 0.16182 0.97362 0.0
N765 N 0.96798 0.14883 0.02599 0.0
C766 C 0.96838 0.15586 0.9724 0.0
Co767 Co 0.42333 0.00639 0.49178 0.0
Co768 Co 0.37617 0.98738 0.55681 0.0
O769 O 0.39261 0.99561 0.49044 0.0
C770 C 0.42566 0.96859 0.41379 0.0
O771 O 0.41455 0.9565 0.44916 0.0
C772 C 0.34331 0.01953 0.50754 0.0
O773 O 0.3589 0.03419 0.49873 0.0
O774 O 0.38357 0.01628 0.59177 0.0
O775 O 0.4169 0.02499 0.55721 0.0
H776 H 0.36544 0.9802 0.76104 0.0
H777 H 0.39598 0.00967 0.39017 0.0
O778 O 0.4305 0.98852 0.42508 0.0
H779 H 0.41786 0.0863 0.43208 0.0
H780 H 0.49391 0.03322 0.40518 0.0
H781 H 0.45693 0.01414 0.5793 0.0
H782 H 0.43045 0.05527 0.49116 0.0
H783 H 0.45498 0.02125 0.40526 0.0
O784 O 0.34809 1.00037 0.5264 0.0
H785 H 0.3856 0.98999 0.67647 0.0
H786 H 0.33189 0.96732 0.57845 0.0
H787 H 0.49597 0.02599 0.58109 0.0
H788 H 0.38316 0.04018 0.32961 0.0
H789 H 0.51477 0.03552 0.49352 0.0
H790 H 0.39407 0.07883 0.35051 0.0
O791 O 0.43336 0.98148 0.54147 0.0
H792 H 0.35113 0.93958 0.40033 0.0
H793 H 0.37749 0.93986 0.59279 0.0
H794 H 0.36965 0.90428 0.54783 0.0
H795 H 0.35631 0.904 0.45085 0.0
H796 H 0.35946 0.97477 0.44685 0.0
H797 H 0.31106 0.95747 0.66197 0.0
H798 H 0.32788 0.96383 0.7541 0.0
O799 O 0.40303 0.97376 0.59037 0.0
C800 C 0.40086 0.02837 0.59001 0.0
C801 C 0.35794 0.97733 0.72113 0.0
C802 C 0.32741 0.9646 0.66553 0.0
N803 N 0.35994 0.97922 0.62254 0.0
C804 C 0.36929 0.98281 0.67308 0.0
C805 C 0.33925 0.97028 0.61838 0.0
C806 C 0.33686 0.96816 0.71721 0.0
C807 C 0.40087 0.02644 0.3994 0.0
N808 N 0.41393 0.03069 0.44423 0.0
C809 C 0.39353 0.04365 0.36502 0.0
C810 C 0.39964 0.06533 0.37679 0.0
C811 C 0.41297 0.06954 0.42258 0.0
C812 C 0.41997 0.05191 0.45606 0.0
C813 C 0.48594 0.02909 0.44362 0.0
C814 C 0.46494 0.01843 0.54107 0.0
C815 C 0.46388 0.02227 0.44391 0.0
N816 N 0.45364 0.01705 0.49226 0.0
C817 C 0.48706 0.0251 0.54234 0.0
C818 C 0.4976 0.03044 0.4932 0.0
C819 C 0.42358 0.97156 0.58097 0.0
C820 C 0.35694 0.93948 0.44259 0.0
C821 C 0.37196 0.93986 0.5505 0.0
C822 C 0.3674 0.91967 0.52531 0.0
C823 C 0.35988 0.91952 0.47093 0.0
N824 N 0.36909 0.95936 0.52242 0.0
C825 C 0.36163 0.95935 0.46918 0.0
Co826 Co 0.47681 0.42247 0.97298 0.0
Co827 Co 0.50603 0.37893 0.03376 0.0
O828 O 0.49102 0.39314 0.97098 0.0
C829 C 0.51005 0.42644 0.88438 0.0
O830 O 0.52406 0.41614 0.91739 0.0
C831 C 0.47262 0.34509 1.00067 0.0
O832 O 0.45857 0.36087 0.98703 0.0
O833 O 0.48086 0.38596 0.08323 0.0
O834 O 0.4629 0.41503 0.04493 0.0
H835 H 0.53346 0.3744 0.22937 0.0
H836 H 0.47164 0.39453 0.87383 0.0
O837 O 0.49047 0.43057 0.90048 0.0
H838 H 0.39593 0.40665 0.94205 0.0
H839 H 0.43663 0.48775 0.88853 0.0
H840 H 0.46891 0.45618 0.05906 0.0
H841 H 0.428 0.42301 0.98999 0.0
H842 H 0.45406 0.45079 0.88851 0.0
O843 O 0.49211 0.34969 0.01714 0.0
H844 H 0.5147 0.39181 0.14946 0.0
H845 H 0.52927 0.3357 0.05164 0.0
H846 H 0.45193 0.49339 0.06069 0.0
H847 H 0.44003 0.37807 0.82425 0.0
H848 H 0.43574 0.50946 0.97485 0.0
H849 H 0.40185 0.38407 0.85841 0.0
O850 O 0.50244 0.43596 0.01364 0.0
H851 H 0.54024 0.35107 0.85972 0.0
H852 H 0.55508 0.38425 0.041 0.0
H853 H 0.5862 0.37666 0.9787 0.0
H854 H 0.57886 0.35993 0.88732 0.0
H855 H 0.5096 0.35913 0.9232 0.0
H856 H 0.54802 0.31761 0.13067 0.0
H857 H 0.55027 0.33702 0.22026 0.0
O858 O 0.52029 0.40732 0.05365 0.0
C859 C 0.46572 0.40077 0.08343 0.0
C860 C 0.53264 0.3658 0.1905 0.0
C861 C 0.54079 0.33392 0.13512 0.0
N862 N 0.52103 0.36486 0.09582 0.0
C863 C 0.5221 0.3756 0.14505 0.0
C864 C 0.53011 0.34423 0.09055 0.0
C865 C 0.54205 0.34482 0.18538 0.0
C866 C 0.45506 0.39736 0.88868 0.0
N867 N 0.45166 0.40981 0.93458 0.0
C868 C 0.43723 0.38793 0.86057 0.0
C869 C 0.41582 0.39128 0.8798 0.0
C870 C 0.41249 0.40393 0.92675 0.0
C871 C 0.43071 0.4131 0.95383 0.0
C872 C 0.44376 0.481 0.92609 0.0
C873 C 0.46186 0.46304 0.02159 0.0
C874 C 0.45365 0.46006 0.92636 0.0
N875 N 0.46251 0.45131 0.97377 0.0
C876 C 0.45228 0.48412 0.02275 0.0
C877 C 0.4432 0.49313 0.97459 0.0
C878 C 0.51763 0.42796 0.04495 0.0
C879 C 0.54366 0.35832 0.89947 0.0
C880 C 0.55176 0.37705 1.00125 0.0
C881 C 0.56945 0.37273 0.9662 0.0
C882 C 0.56532 0.36333 0.91495 0.0
N883 N 0.53057 0.37209 0.98576 0.0
C884 C 0.52639 0.36283 0.93564 0.0
Co885 Co 0.09659 0.47641 0.49821 0.0
Co886 Co 0.14416 0.49651 0.5611 0.0
O887 O 0.12721 0.48706 0.49634 0.0
C888 C 0.09349 0.51395 0.41806 0.0
O889 O 0.10454 0.52629 0.45294 0.0
C890 C 0.18289 0.46613 0.55665 0.0
O891 O 0.17605 0.45718 0.60285 0.0
O892 O 0.13519 0.46952 0.60341 0.0
O893 O 0.1032 0.4584 0.56499 0.0
H894 H 0.15621 0.5108 0.76267 0.0
H895 H 0.12288 0.47244 0.39621 0.0
O896 O 0.0891 0.49394 0.43021 0.0
H897 H 0.1016 0.39611 0.4453 0.0
H898 H 0.02576 0.44823 0.4138 0.0
H899 H 0.06369 0.46882 0.58631 0.0
H900 H 0.08982 0.42752 0.50245 0.0
H901 H 0.06439 0.46124 0.41264 0.0
O902 O 0.17126 0.48103 0.53227 0.0
H903 H 0.13511 0.49911 0.68071 0.0
H904 H 0.18961 0.51475 0.57839 0.0
H905 H 0.02513 0.4557 0.58938 0.0
H906 H 0.13484 0.44154 0.33752 0.0
H907 H 0.00588 0.44532 0.50266 0.0
H908 H 0.12421 0.40304 0.36201 0.0
O909 O 0.08701 0.50158 0.5463 0.0
H910 H 0.1714 0.53843 0.39569 0.0
H911 H 0.14393 0.54488 0.58546 0.0
H912 H 0.15331 0.57868 0.5332 0.0
H913 H 0.16722 0.57557 0.43762 0.0
H914 H 0.1616 0.50508 0.44928 0.0
H915 H 0.21136 0.52647 0.65926 0.0
H916 H 0.19465 0.52456 0.75226 0.0
O917 O 0.11795 0.51213 0.59073 0.0
C918 C 0.11837 0.45682 0.60147 0.0
C919 C 0.16369 0.51167 0.72239 0.0
C920 C 0.19465 0.52045 0.66437 0.0
N921 N 0.16116 0.50608 0.62481 0.0
C922 C 0.15183 0.50506 0.67581 0.0
C923 C 0.18228 0.51371 0.61873 0.0
C924 C 0.18526 0.51938 0.71652 0.0
C925 C 0.11811 0.45574 0.40698 0.0
N926 N 0.10563 0.45179 0.45265 0.0
C927 C 0.12497 0.43831 0.37367 0.0
C928 C 0.11902 0.41671 0.38746 0.0
C929 C 0.10635 0.41281 0.4342 0.0
C930 C 0.0998 0.43065 0.46655 0.0
C931 C 0.03396 0.4527 0.45186 0.0
C932 C 0.05548 0.46424 0.54842 0.0
C933 C 0.05582 0.46015 0.45145 0.0
N934 N 0.06632 0.46575 0.49939 0.0
C935 C 0.03362 0.45686 0.55041 0.0
C936 C 0.02283 0.45106 0.50174 0.0
C937 C 0.09713 0.51312 0.58252 0.0
C938 C 0.16541 0.54 0.43735 0.0
C939 C 0.14986 0.5434 0.54383 0.0
C940 C 0.15522 0.56259 0.51448 0.0
C941 C 0.16303 0.56083 0.46087 0.0
N942 N 0.1523 0.52302 0.52054 0.0
C943 C 0.15992 0.52117 0.46797 0.0
H944 H 0.93488 0.69227 0.04131 0.0
H945 H 0.00436 0.80029 0.00617 0.0
H946 H 0.00153 0.68993 0.97882 0.0
H947 H 0.93837 0.79996 0.93664 0.0
H948 H 0.00192 0.76026 0.02084 0.0
H949 H 0.93398 0.73242 0.02288 0.0
C950 C 0.94917 0.70012 0.02304 0.0
C951 C 0.96831 0.68774 0.01162 0.0
C952 C 0.98793 0.76906 0.00287 0.0
C953 C 0.96763 0.73345 0.99277 0.0
C954 C 0.98918 0.79191 0.99498 0.0
C955 C 0.97155 0.80348 0.9699 0.0
C956 C 0.96871 0.75778 0.98707 0.0
C957 C 0.95235 0.79164 0.95594 0.0
C958 C 0.94864 0.72295 0.01277 0.0
C959 C 0.9864 0.69876 0.98818 0.0
N960 N 0.95137 0.76937 0.96495 0.0
N961 N 0.98578 0.72106 0.98057 0.0
H962 H 0.6927 0.00813 0.43731 0.0
H963 H 0.78785 0.94423 0.60119 0.0
H964 H 0.6782 0.95263 0.54382 0.0
H965 H 0.79928 0.98885 0.46472 0.0
H966 H 0.7481 0.94545 0.58031 0.0
H967 H 0.73186 1.00048 0.44771 0.0
C968 C 0.69773 0.99432 0.46319 0.0
C969 C 0.68202 0.98117 0.49027 0.0
C970 C 0.75938 0.95467 0.55447 0.0
C971 C 0.72738 0.97216 0.50225 0.0
C972 C 0.7821 0.95395 0.5662 0.0
C973 C 0.79699 0.96664 0.53501 0.0
C974 C 0.75148 0.96834 0.51156 0.0
C975 C 0.78852 0.97889 0.49019 0.0
C976 C 0.72022 0.98983 0.46874 0.0
C977 C 0.68973 0.96325 0.5224 0.0
N978 N 0.76636 0.97965 0.48034 0.0
N979 N 0.71193 0.95939 0.52802 0.0
H980 H 0.56958 0.78552 0.11562 0.0
H981 H 0.50866 0.68687 0.96424 0.0
H982 H 0.52538 0.79455 0.97662 0.0
H983 H 0.56558 0.67542 0.06928 0.0
H984 H 0.5151 0.72647 0.96914 0.0
H985 H 0.56961 0.74557 0.09906 0.0
C986 C 0.5602 0.77919 0.08102 0.0
C987 C 0.54729 0.79348 0.04777 0.0
C988 C 0.52632 0.71538 0.99091 0.0
C989 C 0.547 0.74771 0.02927 0.0
C990 C 0.52255 0.69269 0.98848 0.0
C991 C 0.53649 0.67776 0.01686 0.0
C992 C 0.54399 0.72344 0.02265 0.0
C993 C 0.55441 0.68636 0.04689 0.0
C994 C 0.5602 0.75635 0.07171 0.0
C995 C 0.53551 0.78426 0.00354 0.0
N996 N 0.55751 0.70869 0.04955 0.0
N997 N 0.53542 0.76199 0.99611 0.0
H998 H 0.68641 0.53189 0.57979 0.0
H999 H 0.78779 0.53166 0.38844 0.0
H1000 H 0.67909 0.55516 0.4124 0.0
H1001 H 0.79602 0.55098 0.55777 0.0
H1002 H 0.74795 0.53861 0.39543 0.0
H1003 H 0.72648 0.53724 0.57361 0.0
C1004 C 0.69328 0.53847 0.542 0.0
C1005 C 0.67954 0.54309 0.49647 0.0
C1006 C 0.75851 0.54173 0.43074 0.0
C1007 C 0.72529 0.54867 0.48874 0.0
C1008 C 0.78118 0.53769 0.42689 0.0
C1009 C 0.7951 0.54074 0.47268 0.0
C1010 C 0.74959 0.54817 0.48127 0.0
C1011 C 0.78579 0.54853 0.52155 0.0
C1012 C 0.71608 0.54159 0.53861 0.0
C1013 C 0.68917 0.55153 0.44843 0.0
N1014 N 0.76347 0.55152 0.52499 0.0
N1015 N 0.71159 0.55359 0.44535 0.0
H1016 H 0.99424 0.31324 0.02119 0.0
H1017 H 0.0623 0.2037 0.06478 0.0
H1018 H 0.06046 0.31108 0.95588 0.0
H1019 H 0.99647 0.20279 0.99435 0.0
H1020 H 0.06367 0.24396 0.04781 0.0
H1021 H 0.99641 0.27335 0.03912 0.0
C1022 C 0.00943 0.30451 0.01174 0.0
C1023 C 0.02717 0.31548 0.98663 0.0
C1024 C 0.04908 0.23477 0.0358 0.0
C1025 C 0.02972 0.26999 0.0076 0.0
C1026 C 0.04829 0.21189 0.0452 0.0
C1027 C 0.02926 0.19987 0.03089 0.0
C1028 C 0.03044 0.24567 0.01378 0.0
C1029 C 0.01151 0.21132 0.00589 0.0
C1030 C 0.01053 0.28175 0.02152 0.0
C1031 C 0.04639 0.30321 0.97505 0.0
N1032 N 0.01237 0.23364 0.99908 0.0
N1033 N 0.04721 0.28105 0.98576 0.0
H1034 H 0.32377 0.05243 0.44324 0.0
H1035 H 0.2017 0.01757 0.53765 0.0
H1036 H 0.3086 1.00013 0.55874 0.0
H1037 H 0.21331 0.05734 0.39232 0.0
H1038 H 0.24131 0.01767 0.55719 0.0
H1039 H 0.28376 0.06015 0.43358 0.0
C1040 C 0.3121 0.04266 0.46664 0.0
C1041 C 0.31955 0.02538 0.50117 0.0
C1042 C 0.2352 0.02659 0.5213 0.0
C1043 C 0.27407 0.03432 0.4912 0.0
C1044 C 0.2125 0.02667 0.51031 0.0
C1045 C 0.20411 0.03722 0.46286 0.0
C1046 C 0.24973 0.03712 0.48465 0.0
C1047 C 0.21903 0.04882 0.42916 0.0
C1048 C 0.28933 0.04706 0.46115 0.0
C1049 C 0.30371 0.01331 0.53081 0.0
N1050 N 0.24116 0.04825 0.44033 0.0
N1051 N 0.28185 0.018 0.52513 0.0
H1052 H 0.45607 0.20614 0.07865 0.0
H1053 H 0.4452 0.32387 0.92737 0.0
H1054 H 0.45482 0.21225 0.90167 0.0
H1055 H 0.48479 0.31305 0.07371 0.0
H1056 H 0.43711 0.28386 0.92531 0.0
H1057 H 0.45443 0.24672 0.08521 0.0
C1058 C 0.4548 0.21599 0.04128 0.0
C1059 C 0.45565 0.20591 0.98956 0.0
C1060 C 0.44733 0.29041 0.95814 0.0
C1061 C 0.45367 0.25205 0.99675 0.0
C1062 C 0.45189 0.31313 0.95938 0.0
C1063 C 0.46586 0.32163 1.0004 0.0
C1064 C 0.45627 0.27638 0.99915 0.0
C1065 C 0.47417 0.30707 0.04098 0.0
C1066 C 0.45405 0.23907 0.04503 0.0
C1067 C 0.45428 0.21945 0.94233 0.0
N1068 N 0.46921 0.28518 0.03944 0.0
N1069 N 0.45342 0.24185 0.947 0.0
H1070 H 0.31712 0.42652 0.46581 0.0
H1071 H 0.20956 0.49511 0.50198 0.0
H1072 H 0.31988 0.4893 0.54915 0.0
H1073 H 0.20939 0.42983 0.57566 0.0
H1074 H 0.24963 0.49188 0.4893 0.0
H1075 H 0.27679 0.42574 0.48056 0.0
C1076 C 0.3093 0.43996 0.48775 0.0
C1077 C 0.32184 0.458 0.50631 0.0
C1078 C 0.24067 0.47821 0.5076 0.0
C1079 C 0.27605 0.45754 0.52103 0.0
C1080 C 0.21784 0.47991 0.51446 0.0
C1081 C 0.20616 0.46273 0.54021 0.0
C1082 C 0.25177 0.45895 0.52501 0.0
C1083 C 0.21783 0.44347 0.55584 0.0
C1084 C 0.28641 0.43949 0.49595 0.0
C1085 C 0.3109 0.47505 0.53428 0.0
N1086 N 0.24008 0.44201 0.54776 0.0
N1087 N 0.28854 0.47462 0.53979 0.0
H1088 H 0.06652 0.58691 0.87479 0.0
H1089 H 0.05271 0.51069 0.60754 0.0
H1090 H 0.00796 0.5487 0.83919 0.0
H1091 H 0.11253 0.54575 0.64981 0.0
H1092 H 0.03434 0.52794 0.68605 0.0
H1093 H 0.08232 0.57476 0.78755 0.0
C1094 C 0.05698 0.57599 0.84871 0.0
C1095 C 0.03593 0.56874 0.86466 0.0
C1096 C 0.05142 0.53204 0.67765 0.0
C1097 C 0.05386 0.55484 0.76439 0.0
C1098 C 0.06186 0.52233 0.63248 0.0
C1099 C 0.08428 0.52659 0.62212 0.0
C1100 C 0.06347 0.54614 0.71258 0.0
C1101 C 0.09529 0.54177 0.65627 0.0
C1102 C 0.06597 0.56909 0.79876 0.0
C1103 C 0.02428 0.55468 0.82884 0.0
N1104 N 0.08486 0.5508 0.70006 0.0
N1105 N 0.03341 0.54815 0.78061 0.0
H1106 H 0.94724 0.11343 0.16148 0.0
H1107 H 0.92763 0.00322 0.33613 0.0
H1108 H 0.96998 0.04918 0.10894 0.0
H1109 H 0.90045 0.06696 0.37891 0.0
H1110 H 0.94109 0.01902 0.25003 0.0
H1111 H 0.92766 0.09603 0.23689 0.0
C1112 C 0.9479 0.09559 0.16517 0.0
C1113 C 0.96045 0.08281 0.12857 0.0
C1114 C 0.93205 0.02953 0.278 0.0
C1115 C 0.93815 0.06266 0.21646 0.0
C1116 C 0.92438 0.02055 0.32739 0.0
C1117 C 0.91304 0.03385 0.36529 0.0
C1118 C 0.9285 0.05205 0.26625 0.0
C1119 C 0.90919 0.05611 0.35122 0.0
C1120 C 0.9367 0.08564 0.20864 0.0
C1121 C 0.96055 0.05972 0.13599 0.0
N1122 N 0.91706 0.06453 0.30309 0.0
N1123 N 0.9498 0.05041 0.17951 0.0
H1124 H 0.45332 0.89423 0.87141 0.0
H1125 H 0.46839 0.97234 0.60523 0.0
H1126 H 0.51375 0.92941 0.8367 0.0
H1127 H 0.40762 0.93999 0.65069 0.0
H1128 H 0.48709 0.95342 0.68289 0.0
H1129 H 0.43786 0.90778 0.78417 0.0
C1130 C 0.46337 0.90474 0.84542 0.0
C1131 C 0.48478 0.91083 0.86181 0.0
C1132 C 0.46971 0.95028 0.67521 0.0
C1133 C 0.46718 0.92648 0.76149 0.0
C1134 C 0.4591 0.96094 0.63062 0.0
C1135 C 0.43636 0.95783 0.62125 0.0
C1136 C 0.45747 0.93639 0.71038 0.0
C1137 C 0.42509 0.94304 0.65604 0.0
C1138 C 0.45455 0.91248 0.79548 0.0
C1139 C 0.49709 0.9244 0.82603 0.0
N1140 N 0.43568 0.93305 0.69897 0.0
N1141 N 0.48808 0.93186 0.77778 0.0
H1142 H 0.55801 0.41946 0.09152 0.0
H1143 H 0.54793 0.5172 0.31002 0.0
H1144 H 0.5075 0.47004 0.08067 0.0
H1145 H 0.59005 0.45971 0.32963 0.0
H1146 H 0.53705 0.50416 0.21845 0.0
H1147 H 0.5748 0.43882 0.16858 0.0
C1148 C 0.55068 0.43492 0.10458 0.0
C1149 C 0.53105 0.44289 0.08004 0.0
C1150 C 0.54875 0.49449 0.24272 0.0
C1151 C 0.55 0.46498 0.16966 0.0
C1152 C 0.55498 0.5019 0.29503 0.0
C1153 C 0.56979 0.4894 0.32791 0.0
C1154 C 0.55752 0.47454 0.22289 0.0
C1155 C 0.57842 0.46977 0.30614 0.0
C1156 C 0.5602 0.44589 0.149 0.0
C1157 C 0.52251 0.46317 0.09852 0.0
N1158 N 0.57212 0.46295 0.2552 0.0
N1159 N 0.5318 0.47332 0.14294 0.0
H1160 H 0.11917 0.95125 0.34248 0.0
H1161 H 0.00913 0.93311 0.16571 0.0
H1162 H 0.05481 0.97443 0.39308 0.0
H1163 H 0.073 0.90703 0.12017 0.0
H1164 H 0.02495 0.9457 0.25244 0.0
H1165 H 0.10193 0.93199 0.26602 0.0
C1166 C 0.10133 0.95204 0.33816 0.0
C1167 C 0.08847 0.96471 0.37436 0.0
C1168 C 0.03551 0.93712 0.22373 0.0
C1169 C 0.06858 0.94279 0.28553 0.0
C1170 C 0.02651 0.92996 0.17393 0.0
C1171 C 0.03982 0.91917 0.13508 0.0
C1172 C 0.05806 0.93361 0.23504 0.0
C1173 C 0.06215 0.91538 0.1486 0.0
C1174 C 0.0915 0.94104 0.29413 0.0
C1175 C 0.06542 0.96495 0.36633 0.0
N1176 N 0.07059 0.92274 0.19725 0.0
N1177 N 0.05626 0.9544 0.32238 0.0
H1178 H 0.54625 0.11615 0.86228 0.0
H1179 H 0.5486 0.01343 0.65731 0.0
H1180 H 0.50515 0.05849 0.88301 0.0
H1181 H 0.58429 0.07427 0.63022 0.0
H1182 H 0.53599 0.0275 0.74561 0.0
H1183 H 0.56443 0.09843 0.78523 0.0
C1184 C 0.54131 0.09955 0.85135 0.0
C1185 C 0.52392 0.08892 0.879 0.0
C1186 C 0.54666 0.03774 0.72051 0.0
C1187 C 0.54455 0.06859 0.78952 0.0
C1188 C 0.55387 0.02975 0.66991 0.0
C1189 C 0.56746 0.04275 0.6359 0.0
C1190 C 0.55309 0.05891 0.73761 0.0
C1191 C 0.57372 0.06372 0.65474 0.0
C1192 C 0.55164 0.08948 0.80695 0.0
C1193 C 0.51843 0.06733 0.863 0.0
N1194 N 0.56644 0.07115 0.7042 0.0
N1195 N 0.5285 0.05799 0.81878 0.0
H1196 H 0.47678 0.50122 0.44296 0.0
H1197 H 0.45774 0.58161 0.18387 0.0
H1198 H 0.41849 0.54149 0.41534 0.0
H1199 H 0.51873 0.54554 0.21146 0.0
H1200 H 0.44486 0.56934 0.27378 0.0
H1201 H 0.4945 0.5199 0.36489 0.0
C1202 C 0.46788 0.5143 0.42145 0.0
C1203 C 0.44592 0.51949 0.43528 0.0
C1204 C 0.46113 0.56417 0.26047 0.0
C1205 C 0.46603 0.54081 0.34582 0.0
C1206 C 0.46845 0.57112 0.20888 0.0
C1207 C 0.48924 0.56442 0.18974 0.0
C1208 C 0.47455 0.55019 0.29329 0.0
C1209 C 0.50251 0.55101 0.22442 0.0
C1210 C 0.47795 0.52486 0.37659 0.0
C1211 C 0.43529 0.53666 0.40588 0.0
N1212 N 0.49486 0.54415 0.2743 0.0
N1213 N 0.44532 0.54648 0.36238 0.0
H1214 H 0.94667 0.40041 0.83627 0.0
H1215 H 0.92141 0.50969 0.65868 0.0
H1216 H 0.96938 0.46519 0.88374 0.0
H1217 H 0.89831 0.44456 0.61506 0.0
H1218 H 0.93696 0.49439 0.74401 0.0
H1219 H 0.92666 0.41696 0.75916 0.0
C1220 C 0.94724 0.41821 0.83106 0.0
C1221 C 0.95978 0.43143 0.867 0.0
C1222 C 0.9284 0.48346 0.71595 0.0
C1223 C 0.93695 0.45056 0.77728 0.0
C1224 C 0.91951 0.49216 0.66705 0.0
C1225 C 0.90863 0.47836 0.62921 0.0
C1226 C 0.92647 0.46073 0.72734 0.0
C1227 C 0.90662 0.45583 0.64271 0.0
C1228 C 0.93581 0.42766 0.78664 0.0
C1229 C 0.95983 0.45439 0.85751 0.0
N1230 N 0.91555 0.44773 0.69044 0.0
N1231 N 0.94876 0.46322 0.81331 0.0
H1232 H 0.93278 0.4129 0.12719 0.0
H1233 H 0.94232 0.49599 0.38189 0.0
H1234 H 0.987 0.45839 0.14931 0.0
H1235 H 0.88924 0.44926 0.35952 0.0
H1236 H 0.96119 0.47983 0.30265 0.0
H1237 H 0.91808 0.42426 0.21616 0.0
C1238 C 0.94158 0.4253 0.15064 0.0
C1239 C 0.96109 0.43476 0.13047 0.0
C1240 C 0.94556 0.47291 0.31567 0.0
C1241 C 0.94444 0.44777 0.23283 0.0
C1242 C 0.9349 0.48199 0.36135 0.0
C1243 C 0.91403 0.47415 0.37718 0.0
C1244 C 0.93527 0.45589 0.28573 0.0
C1245 C 0.90516 0.45604 0.34854 0.0
C1246 C 0.93325 0.43171 0.20166 0.0
C1247 C 0.97187 0.45065 0.16306 0.0
N1248 N 0.91567 0.44774 0.30398 0.0
N1249 N 0.96337 0.4567 0.21241 0.0
H1250 H 0.03133 0.95441 0.89443 0.0
H1251 H 0.10206 0.93526 0.62001 0.0
H1252 H 0.05256 0.89042 0.83632 0.0
H1253 H 0.07344 0.99824 0.66394 0.0
H1254 H 0.08829 0.91952 0.70631 0.0
H1255 H 0.05112 0.97179 0.81759 0.0
C1256 C 0.04042 0.94403 0.86626 0.0
C1257 C 0.04012 0.92087 0.87193 0.0
C1258 C 0.08512 0.93682 0.69717 0.0
C1259 C 0.06268 0.94062 0.78377 0.0
C1260 C 0.093 0.94581 0.64786 0.0
C1261 C 0.08872 0.96804 0.63428 0.0
C1262 C 0.0729 0.95015 0.73335 0.0
C1263 C 0.07696 0.98094 0.67229 0.0
C1264 C 0.05161 0.95395 0.82219 0.0
C1265 C 0.05216 0.9083 0.8338 0.0
N1266 N 0.06939 0.9718 0.71984 0.0
N1267 N 0.06278 0.9183 0.7914 0.0
H1268 H 0.58947 0.07057 0.36155 0.0
H1269 H 0.48658 0.07319 0.15305 0.0
H1270 H 0.53366 0.02686 0.37786 0.0
H1271 H 0.54641 0.11095 0.13089 0.0
H1272 H 0.50112 0.05925 0.24088 0.0
H1273 H 0.57117 0.08907 0.28468 0.0
C1274 C 0.57319 0.06501 0.34948 0.0
C1275 C 0.56323 0.04695 0.3761 0.0
C1276 C 0.51101 0.07066 0.21696 0.0
C1277 C 0.5421 0.06805 0.2867 0.0
C1278 C 0.50275 0.07866 0.16666 0.0
C1279 C 0.51536 0.0932 0.1341 0.0
C1280 C 0.53204 0.07728 0.2352 0.0
C1281 C 0.53615 0.09968 0.15423 0.0
C1282 C 0.56274 0.0756 0.30523 0.0
C1283 C 0.54193 0.04075 0.35874 0.0
N1284 N 0.54383 0.09163 0.20331 0.0
N1285 N 0.53217 0.05111 0.31461 0.0
H1286 H 0.46104 0.47732 0.71181 0.0
H1287 H 0.44926 0.57513 0.9294 0.0
H1288 H 0.42046 0.53565 0.68822 0.0
H1289 H 0.5019 0.52673 0.93838 0.0
H1290 H 0.43309 0.55533 0.85226 0.0
H1291 H 0.47158 0.4907 0.80346 0.0
C1292 C 0.45433 0.49291 0.72588 0.0
C1293 C 0.44013 0.50558 0.69185 0.0
C1294 C 0.44802 0.54883 0.87146 0.0
C1295 C 0.45177 0.52066 0.79698 0.0
C1296 C 0.45719 0.56004 0.91592 0.0
C1297 C 0.47722 0.55284 0.93986 0.0
C1298 C 0.45897 0.53028 0.85027 0.0
C1299 C 0.48655 0.53298 0.92096 0.0
C1300 C 0.46031 0.50046 0.77822 0.0
C1301 C 0.43168 0.52547 0.7126 0.0
N1302 N 0.47756 0.52259 0.87652 0.0
N1303 N 0.43766 0.53239 0.76366 0.0
H1304 H 0.94732 0.02902 0.60427 0.0
H1305 H 0.92813 0.09658 0.88339 0.0
H1306 H 0.88315 0.04861 0.66452 0.0
H1307 H 0.99126 0.06934 0.83568 0.0
H1308 H 0.91218 0.08359 0.7965 0.0
H1309 H 0.96458 0.04856 0.68151 0.0
C1310 C 0.93686 0.03772 0.633 0.0
C1311 C 0.91371 0.03696 0.6279 0.0
C1312 C 0.92956 0.08056 0.80497 0.0
C1313 C 0.93334 0.05922 0.71663 0.0
C1314 C 0.93866 0.08798 0.85461 0.0
C1315 C 0.961 0.08385 0.86726 0.0
C1316 C 0.94289 0.06899 0.76754 0.0
C1317 C 0.97389 0.07272 0.82809 0.0
C1318 C 0.94672 0.04876 0.67733 0.0
C1319 C 0.90104 0.04855 0.6667 0.0
N1320 N 0.96464 0.06561 0.78024 0.0
N1321 N 0.91099 0.05901 0.70945 0.0
H1322 H 0.41772 0.92718 0.37186 0.0
H1323 H 0.49294 0.94593 0.10493 0.0
H1324 H 0.44996 0.989 0.33342 0.0
H1325 H 0.46105 0.88424 0.14633 0.0
H1326 H 0.474 0.96341 0.18234 0.0
H1327 H 0.43075 0.91228 0.28449 0.0
C1328 C 0.42749 0.93764 0.34508 0.0
C1329 C 0.43286 0.95932 0.36036 0.0
C1330 C 0.47095 0.94611 0.17393 0.0
C1331 C 0.44783 0.94239 0.25995 0.0
C1332 C 0.48163 0.93616 0.12939 0.0
C1333 C 0.47879 0.9135 0.1192 0.0
C1334 C 0.45733 0.9333 0.20841 0.0
C1335 C 0.46397 0.90169 0.1527 0.0
C1336 C 0.43489 0.92915 0.29505 0.0
C1337 C 0.44548 0.97214 0.32364 0.0
N1338 N 0.45402 0.91165 0.19593 0.0
N1339 N 0.45261 0.96346 0.2754 0.0
H1340 H 0.48723 0.45248 0.80993 0.0
H1341 H 0.58396 0.44852 0.58752 0.0
H1342 H 0.5482 0.4157 0.83031 0.0
H1343 H 0.53225 0.49799 0.58339 0.0
H1344 H 0.56611 0.43079 0.66567 0.0
H1345 H 0.49951 0.46458 0.71854 0.0
C1346 C 0.50316 0.44691 0.79521 0.0
C1347 C 0.51685 0.43329 0.82825 0.0
C1348 C 0.55848 0.44536 0.64731 0.0
C1349 C 0.53072 0.44679 0.72337 0.0
C1350 C 0.56855 0.4554 0.60226 0.0
C1351 C 0.55981 0.47502 0.57931 0.0
C1352 C 0.5395 0.45499 0.67001 0.0
C1353 C 0.53966 0.48298 0.5999 0.0
C1354 C 0.51009 0.45379 0.74302 0.0
C1355 C 0.5372 0.42639 0.80669 0.0
N1356 N 0.53036 0.47315 0.64479 0.0
N1357 N 0.54351 0.43325 0.75575 0.0
H1358 H 0.0717 0.49216 0.33548 0.0
H1359 H 0.04821 0.60191 0.15909 0.0
H1360 H 0.09662 0.55666 0.37872 0.0
H1361 H 0.02568 0.53738 0.10918 0.0
H1362 H 0.06806 0.58501 0.2359 0.0
H1363 H 0.05668 0.50775 0.24997 0.0
C1364 C 0.0741 0.50961 0.32699 0.0
C1365 C 0.08533 0.52317 0.36478 0.0
C1366 C 0.05901 0.57444 0.20792 0.0
C1367 C 0.06809 0.54112 0.26646 0.0
C1368 C 0.04766 0.58409 0.16366 0.0
C1369 C 0.03524 0.57104 0.12713 0.0
C1370 C 0.05784 0.5515 0.21656 0.0
C1371 C 0.03518 0.54804 0.13586 0.0
C1372 C 0.06553 0.51848 0.27797 0.0
C1373 C 0.08802 0.5456 0.3511 0.0
N1374 N 0.04613 0.53901 0.17998 0.0
N1375 N 0.07935 0.55387 0.30327 0.0
H1376 H 0.86237 0.53734 0.28023 0.0
H1377 H 0.95264 0.62432 0.17744 0.0
H1378 H 0.89903 0.58027 0.38873 0.0
H1379 H 0.93048 0.56762 0.0853 0.0
H1380 H 0.92503 0.61574 0.24782 0.0
H1381 H 0.87856 0.55651 0.20134 0.0
C1382 C 0.87332 0.55117 0.28756 0.0
C1383 C 0.87973 0.55686 0.34124 0.0
C1384 C 0.92602 0.60545 0.21162 0.0
C1385 C 0.89844 0.5787 0.25119 0.0
C1386 C 0.94176 0.61033 0.17143 0.0
C1387 C 0.94413 0.5965 0.12565 0.0
C1388 C 0.91244 0.58678 0.20558 0.0
C1389 C 0.92948 0.57863 0.12003 0.0
C1390 C 0.88269 0.562 0.24247 0.0
C1391 C 0.89394 0.57503 0.34808 0.0
N1392 N 0.91441 0.57421 0.15967 0.0
N1393 N 0.90309 0.58508 0.30359 0.0
H1394 H 0.86593 0.95599 0.69835 0.0
H1395 H 0.93299 0.92268 0.91355 0.0
H1396 H 0.92167 0.9337 0.60309 0.0
H1397 H 0.96068 0.8744 0.80346 0.0
H1398 H 0.90764 0.93471 0.84128 0.0
H1399 H 0.87934 0.93332 0.77589 0.0
C1400 C 0.88077 0.94612 0.69338 0.0
C1401 C 0.89297 0.94718 0.64449 0.0
C1402 C 0.91871 0.921 0.83325 0.0
C1403 C 0.90854 0.92154 0.73307 0.0
C1404 C 0.93342 0.91424 0.87453 0.0
C1405 C 0.94919 0.89764 0.8645 0.0
C1406 C 0.91998 0.91137 0.78103 0.0
C1407 C 0.94888 0.88732 0.81296 0.0
C1408 C 0.88852 0.93333 0.73782 0.0
C1409 C 0.91193 0.93376 0.64022 0.0
N1410 N 0.93487 0.89474 0.77265 0.0
N1411 N 0.91924 0.92168 0.68408 0.0
H1412 H 0.5475 0.87049 0.21187 0.0
H1413 H 0.62537 0.96981 0.30833 0.0
H1414 H 0.58724 0.90976 0.10164 0.0
H1415 H 0.5727 0.94163 0.40517 0.0
H1416 H 0.61918 0.94112 0.23915 0.0
H1417 H 0.5651 0.88898 0.29 0.0
C1418 C 0.56037 0.8825 0.20406 0.0
C1419 C 0.56552 0.88897 0.15012 0.0
C1420 C 0.60925 0.94108 0.27606 0.0
C1421 C 0.58553 0.91031 0.23906 0.0
C1422 C 0.61276 0.95745 0.31554 0.0
C1423 C 0.59936 0.95836 0.36244 0.0
C1424 C 0.59235 0.92544 0.28377 0.0
C1425 C 0.58332 0.9418 0.36958 0.0
C1426 C 0.57028 0.8932 0.24866 0.0
C1427 C 0.58243 0.90459 0.14253 0.0
N1428 N 0.58017 0.92617 0.33054 0.0
N1429 N 0.59157 0.91499 0.18644 0.0
H1430 H 0.57008 0.57757 0.597 0.0
H1431 H 0.57815 0.57105 0.92274 0.0
H1432 H 0.61871 0.53797 0.6849 0.0
H1433 H 0.53532 0.61684 0.83482 0.0
H1434 H 0.59636 0.5622 0.83648 0.0
H1435 H 0.56034 0.59547 0.68308 0.0
C1436 C 0.57897 0.57284 0.6342 0.0
C1437 C 0.59507 0.55598 0.63364 0.0
C1438 C 0.5832 0.57443 0.83613 0.0
C1439 C 0.58374 0.57632 0.73275 0.0
C1440 C 0.57277 0.57953 0.88549 0.0
C1441 C 0.55492 0.59451 0.88611 0.0
C1442 C 0.57561 0.58418 0.78677 0.0
C1443 C 0.54887 0.60506 0.83643 0.0
C1444 C 0.57337 0.5831 0.68345 0.0
C1445 C 0.60609 0.55074 0.68324 0.0
N1446 N 0.55896 0.59943 0.78869 0.0
N1447 N 0.59999 0.56063 0.73087 0.0
H1448 H 0.13417 0.45909 0.70751 0.0
H1449 H 0.04085 0.37682 0.81653 0.0
H1450 H 0.09243 0.41987 0.60164 0.0
H1451 H 0.06564 0.43319 0.90577 0.0
H1452 H 0.06834 0.38392 0.74492 0.0
H1453 H 0.1183 0.44029 0.78749 0.0
C1454 C 0.12216 0.44612 0.70091 0.0
C1455 C 0.11417 0.44147 0.64788 0.0
C1456 C 0.06795 0.39444 0.78079 0.0
C1457 C 0.09601 0.41999 0.73898 0.0
C1458 C 0.05228 0.39042 0.82165 0.0
C1459 C 0.05068 0.40464 0.8669 0.0
C1460 C 0.08224 0.41262 0.78565 0.0
C1461 C 0.06603 0.42196 0.8714 0.0
C1462 C 0.11302 0.43549 0.7466 0.0
C1463 C 0.09871 0.42432 0.64186 0.0
N1464 N 0.08103 0.42555 0.83111 0.0
N1465 N 0.08987 0.41443 0.68691 0.0
H1466 H 0.04004 0.13029 0.19693 0.0
H1467 H 0.13083 0.04118 0.29477 0.0
H1468 H 0.06697 0.07953 0.09252 0.0
H1469 H 0.08486 0.0731 0.40393 0.0
H1470 H 0.11621 0.06394 0.2186 0.0
H1471 H 0.06513 0.11789 0.27093 0.0
C1472 C 0.0515 0.11687 0.1891 0.0
C1473 C 0.05111 0.10568 0.1387 0.0
C1474 C 0.10966 0.0662 0.25956 0.0
C1475 C 0.07992 0.09164 0.22276 0.0
C1476 C 0.11804 0.05329 0.30305 0.0
C1477 C 0.10874 0.05493 0.35559 0.0
C1478 C 0.09212 0.08102 0.26902 0.0
C1479 C 0.09224 0.07099 0.36394 0.0
C1480 C 0.06576 0.10979 0.23136 0.0
C1481 C 0.06643 0.08844 0.13087 0.0
N1482 N 0.08432 0.08327 0.32104 0.0
N1483 N 0.08008 0.08184 0.17257 0.0
H1484 H 0.3761 0.03726 0.68209 0.0
H1485 H 0.45782 0.13351 0.77844 0.0
H1486 H 0.43098 0.06204 0.58719 0.0
H1487 H 0.41522 0.0972 0.88829 0.0
H1488 H 0.44017 0.11506 0.70035 0.0
H1489 H 0.38315 0.06607 0.75048 0.0
C1490 C 0.38938 0.04892 0.67511 0.0
C1491 C 0.40311 0.04701 0.629 0.0
C1492 C 0.43439 0.1115 0.74155 0.0
C1493 C 0.41112 0.08006 0.70677 0.0
C1494 C 0.44433 0.12218 0.78612 0.0
C1495 C 0.43832 0.11654 0.84007 0.0
C1496 C 0.41827 0.09521 0.75112 0.0
C1497 C 0.42068 0.10173 0.84746 0.0
C1498 C 0.39339 0.06535 0.71415 0.0
C1499 C 0.42005 0.06266 0.62216 0.0
N1500 N 0.41151 0.09132 0.80358 0.0
N1501 N 0.42366 0.07838 0.66074 0.0
H1502 H 0.42927 0.4272 0.09766 0.0
H1503 H 0.38251 0.44927 0.34913 0.0
H1504 H 0.47108 0.3799 0.18359 0.0
H1505 H 0.44382 0.42248 0.41451 0.0
H1506 H 0.39071 0.4325 0.26073 0.0
H1507 H 0.41085 0.43537 0.18355 0.0
C1508 C 0.43426 0.41813 0.13438 0.0
C1509 C 0.45193 0.40296 0.13328 0.0
C1510 C 0.40245 0.43037 0.29423 0.0
C1511 C 0.43056 0.41205 0.23246 0.0
C1512 C 0.39763 0.43972 0.34513 0.0
C1513 C 0.41273 0.43773 0.38921 0.0
C1514 C 0.42263 0.41911 0.28716 0.0
C1515 C 0.43185 0.42483 0.38156 0.0
C1516 C 0.42353 0.42268 0.18364 0.0
C1517 C 0.45761 0.39178 0.18235 0.0
N1518 N 0.43636 0.41624 0.33136 0.0
N1519 N 0.44722 0.39684 0.23008 0.0
loop_
_geom_bond_atom_site_label_1
_geom_bond_atom_site_label_2
_geom_bond_distance
_geom_bond_site_symmetry_2
_ccdc_geom_bond_type
Co0 O2 2.131 1_655 S
Co0 O8 2.074 . S
Co0 O11 2.093 1_654 S
Co0 O24 2.097 1_655 S
Co0 N41 2.151 1_554 S
Co0 N49 2.214 . S
Co1 O2 2.166 . S
Co1 O7 2.058 1_455 S
Co1 O17 2.057 1_455 S
Co1 O32 2.037 . S
Co1 N36 2.145 . S
Co1 N57 2.257 . S
O2 Co0 2.131 1_455 S
O2 Co1 2.166 . S
C3 O4 1.278 . S
C3 O11 1.224 . S
O4 C3 1.278 . S
C5 O6 1.245 1_554 S
C5 O17 1.232 . S
O6 C5 1.245 1_556 S
O7 Co1 2.058 1_655 S
O7 C33 1.269 . S
O8 Co0 2.074 . S
O8 C33 1.257 . S
H9 C34 0.930 . S
H10 C40 0.930 . S
O11 Co0 2.093 1_456 S
O11 C3 1.224 . S
H12 C44 0.929 . S
H13 C46 0.920 1_556 S
H14 C47 0.930 . S
H15 C45 0.929 1_554 S
H16 C48 0.928 . S
O17 Co1 2.057 1_655 S
O17 C5 1.232 . S
H18 C37 0.929 . S
H19 C38 0.929 . S
H20 C50 0.931 . S
H21 C42 0.929 . S
H22 C51 0.930 . S
H23 C43 0.931 . S
O24 Co0 2.097 1_455 S
O24 C52 1.214 . S
H25 C53 0.929 . S
H26 C54 0.929 . S
H27 C55 0.930 . S
H28 C56 0.929 . S
H29 C58 0.930 1_556 S
H30 C35 0.930 . S
H31 C39 0.930 . S
O32 Co1 2.037 . S
O32 C52 1.234 . S
C33 O7 1.269 . S
C33 O8 1.257 . S
C34 H9 0.930 . S
C34 C37 1.388 . S
C34 C39 1.418 . S
C35 H30 0.930 . S
C35 C38 1.404 . S
C35 C39 1.353 . S
N36 Co1 2.145 . S
N36 C37 1.397 . S
N36 C38 1.334 . S
C37 H18 0.929 . S
C37 C34 1.388 . S
C37 N36 1.397 . S
C38 H19 0.929 . S
C38 C35 1.404 . S
C38 N36 1.334 . S
C39 H31 0.930 . S
C39 C34 1.418 . S
C39 C35 1.353 . S
C40 H10 0.930 . S
C40 N41 1.330 . S
C40 C42 1.446 . S
N41 Co0 2.151 1_556 S
N41 C40 1.330 . S
N41 C45 1.418 . S
C42 H21 0.929 . S
C42 C40 1.446 . S
C42 C43 1.332 . S
C43 H23 0.931 . S
C43 C42 1.332 . S
C43 C44 1.267 . S
C44 H12 0.929 . S
C44 C43 1.267 . S
C44 C45 1.251 . S
C45 H15 0.929 1_556 S
C45 N41 1.418 . S
C45 C44 1.251 . S
C46 H13 0.920 1_554 S
C46 C48 1.403 1_554 S
C46 C51 1.273 . S
C47 H14 0.930 . S
C47 N49 1.325 . S
C47 C50 1.357 . S
C48 H16 0.928 . S
C48 C46 1.403 1_556 S
C48 N49 1.261 1_556 S
N49 Co0 2.214 . S
N49 C47 1.325 . S
N49 C48 1.261 1_554 S
C50 H20 0.931 . S
C50 C47 1.357 . S
C50 C51 1.312 . S
C51 H22 0.930 . S
C51 C46 1.273 . S
C51 C50 1.312 . S
C52 O24 1.214 . S
C52 O32 1.234 . S
C53 H25 0.929 . S
C53 C56 1.391 1_556 S
C53 C58 1.391 1_556 S
C54 H26 0.929 . S
C54 C55 1.390 . S
C54 N57 1.391 . S
C55 H27 0.930 . S
C55 C54 1.390 . S
C55 C56 1.392 . S
C56 H28 0.929 . S
C56 C53 1.391 1_554 S
C56 C55 1.392 . S
N57 Co1 2.257 . S
N57 C54 1.391 . S
N57 C58 1.388 . S
C58 H29 0.930 1_554 S
C58 C53 1.391 1_554 S
C58 N57 1.388 . S
Co59 O61 2.143 1_565 S
Co59 O67 2.074 . S
Co59 O70 2.093 1_565 S
Co59 O83 2.097 1_565 S
Co59 N100 2.151 . S
Co59 N108 2.214 . S
Co60 O61 2.160 . S
Co60 O66 2.058 1_545 S
Co60 O76 2.057 1_545 S
Co60 O91 2.037 . S
Co60 N95 2.145 . S
Co60 N116 2.257 . S
O61 Co59 2.143 1_545 S
O61 Co60 2.160 . S
C62 O63 1.278 . S
C62 O70 1.224 . S
O63 C62 1.278 . S
C64 O65 1.245 . S
C64 O76 1.232 . S
O65 C64 1.245 . S
O66 Co60 2.058 1_565 S
O66 C92 1.269 . S
O67 Co59 2.074 . S
O67 C92 1.257 . S
H68 C93 0.930 . S
H69 C99 0.930 . S
O70 Co59 2.093 1_545 S
O70 C62 1.224 . S
H71 C103 0.929 . S
H72 C105 0.930 . S
H73 C106 0.930 . S
H74 C104 0.929 . S
H75 C107 0.928 . S
O76 Co60 2.057 1_565 S
O76 C64 1.232 . S
H77 C96 0.929 . S
H78 C97 0.929 . S
H79 C109 0.931 . S
H80 C101 0.929 . S
H81 C110 0.930 1_455 S
H82 C102 0.931 . S
O83 Co59 2.097 1_545 S
O83 C111 1.214 . S
H84 C112 0.929 . S
H85 C113 0.929 . S
H86 C114 0.930 . S
H87 C115 0.929 . S
H88 C117 0.930 . S
H89 C94 0.930 . S
H90 C98 0.930 . S
O91 Co60 2.037 . S
O91 C111 1.234 . S
C92 O66 1.269 . S
C92 O67 1.257 . S
C93 H68 0.930 . S
C93 C96 1.388 . S
C93 C98 1.418 . S
C94 H89 0.930 . S
C94 C97 1.404 . S
C94 C98 1.353 . S
N95 Co60 2.145 . S
N95 C96 1.397 . S
N95 C97 1.334 . S
C96 H77 0.929 . S
C96 C93 1.388 . S
C96 N95 1.397 . S
C97 H78 0.929 . S
C97 C94 1.404 . S
C97 N95 1.334 . S
C98 H90 0.930 . S
C98 C93 1.418 . S
C98 C94 1.353 . S
C99 H69 0.930 . S
C99 N100 1.330 . S
C99 C101 1.446 . S
N100 Co59 2.151 . S
N100 C99 1.330 . S
N100 C104 1.418 . S
C101 H80 0.929 . S
C101 C99 1.446 . S
C101 C102 1.332 . S
C102 H82 0.931 . S
C102 C101 1.332 . S
C102 C103 1.267 . S
C103 H71 0.929 . S
C103 C102 1.267 . S
C103 C104 1.251 . S
C104 H74 0.929 . S
C104 N100 1.418 . S
C104 C103 1.251 . S
C105 H72 0.930 . S
C105 C107 1.406 . S
C105 C110 1.261 . S
C106 H73 0.930 . S
C106 N108 1.325 . S
C106 C109 1.357 . S
C107 H75 0.928 . S
C107 C105 1.406 . S
C107 N108 1.261 . S
N108 Co59 2.214 . S
N108 C106 1.325 . S
N108 C107 1.261 . S
C109 H79 0.931 . S
C109 C106 1.357 . S
C109 C110 1.312 . S
C110 H81 0.930 1_655 S
C110 C105 1.261 . S
C110 C109 1.312 . S
C111 O83 1.214 . S
C111 O91 1.234 . S
C112 H84 0.929 . S
C112 C115 1.391 . S
C112 C117 1.391 . S
C113 H85 0.929 . S
C113 C114 1.390 . S
C113 N116 1.391 . S
C114 H86 0.930 . S
C114 C113 1.390 . S
C114 C115 1.392 . S
C115 H87 0.929 . S
C115 C112 1.391 . S
C115 C114 1.392 . S
N116 Co60 2.257 . S
N116 C113 1.391 . S
N116 C117 1.388 . S
C117 H88 0.930 . S
C117 C112 1.391 . S
C117 N116 1.388 . S
Co118 O120 2.143 . S
Co118 O126 2.074 . S
Co118 O129 2.093 1_554 S
Co118 O142 2.097 . S
Co118 N159 2.151 1_554 S
Co118 N167 2.214 . S
Co119 O120 2.160 . S
Co119 O125 2.058 . S
Co119 O135 2.057 . S
Co119 O150 2.037 . S
Co119 N154 2.145 . S
Co119 N175 2.257 . S
O120 Co118 2.143 . S
O120 Co119 2.160 . S
C121 O122 1.278 . S
C121 O129 1.224 . S
O122 C121 1.278 . S
C123 O124 1.245 1_554 S
C123 O135 1.232 . S
O124 C123 1.245 1_556 S
O125 Co119 2.058 . S
O125 C151 1.269 . S
O126 Co118 2.074 . S
O126 C151 1.257 . S
H127 C152 0.930 . S
H128 C158 0.930 . S
O129 Co118 2.093 1_556 S
O129 C121 1.224 . S
H130 C162 0.929 . S
H131 C164 0.930 1_556 S
H132 C165 0.930 . S
H133 C163 0.929 1_554 S
H134 C166 0.928 . S
O135 Co119 2.057 . S
O135 C123 1.232 . S
H136 C155 0.929 . S
H137 C156 0.929 . S
H138 C168 0.931 . S
H139 C160 0.929 . S
H140 C169 0.930 1_545 S
H141 C161 0.931 . S
O142 Co118 2.097 . S
O142 C170 1.214 . S
H143 C171 0.929 1_556 S
H144 C172 0.929 . S
H145 C173 0.930 . S
H146 C174 0.929 . S
H147 C176 0.933 . S
H148 C153 0.930 . S
H149 C157 0.930 . S
O150 Co119 2.037 . S
O150 C170 1.234 . S
C151 O125 1.269 . S
C151 O126 1.257 . S
C152 H127 0.930 . S
C152 C155 1.388 . S
C152 C157 1.418 . S
C153 H148 0.930 . S
C153 C156 1.404 . S
C153 C157 1.353 . S
N154 Co119 2.145 . S
N154 C155 1.397 . S
N154 C156 1.334 . S
C155 H136 0.929 . S
C155 C152 1.388 . S
C155 N154 1.397 . S
C156 H137 0.929 . S
C156 C153 1.404 . S
C156 N154 1.334 . S
C157 H149 0.930 . S
C157 C152 1.418 . S
C157 C153 1.353 . S
C158 H128 0.930 . S
C158 N159 1.330 . S
C158 C160 1.446 . S
N159 Co118 2.151 1_556 S
N159 C158 1.330 . S
N159 C163 1.418 . S
C160 H139 0.929 . S
C160 C158 1.446 . S
C160 C161 1.332 . S
C161 H141 0.931 . S
C161 C160 1.332 . S
C161 C162 1.267 . S
C162 H130 0.929 . S
C162 C161 1.267 . S
C162 C163 1.251 . S
C163 H133 0.929 1_556 S
C163 N159 1.418 . S
C163 C162 1.251 . S
C164 H131 0.930 1_554 S
C164 C166 1.406 1_554 S
C164 C169 1.261 . S
C165 H132 0.930 . S
C165 N167 1.325 . S
C165 C168 1.357 . S
C166 H134 0.928 . S
C166 C164 1.406 1_556 S
C166 N167 1.261 1_556 S
N167 Co118 2.214 . S
N167 C165 1.325 . S
N167 C166 1.261 1_554 S
C168 H138 0.931 . S
C168 C165 1.357 . S
C168 C169 1.312 . S
C169 H140 0.930 1_565 S
C169 C164 1.261 . S
C169 C168 1.312 . S
C170 O142 1.214 . S
C170 O150 1.234 . S
C171 H143 0.929 1_554 S
C171 C174 1.391 . S
C171 C176 1.391 . S
C172 H144 0.929 . S
C172 C173 1.390 . S
C172 N175 1.391 . S
C173 H145 0.930 . S
C173 C172 1.390 . S
C173 C174 1.392 . S
C174 H146 0.929 . S
C174 C171 1.391 . S
C174 C173 1.392 . S
N175 Co119 2.257 . S
N175 C172 1.391 . S
N175 C176 1.388 . S
C176 H147 0.933 . S
C176 C171 1.391 . S
C176 N175 1.388 . S
Co177 O179 2.143 . S
Co177 O185 2.074 . S
Co177 O188 2.093 . S
Co177 O201 2.097 . S
Co177 N218 2.151 . S
Co177 N226 2.214 . S
Co178 O179 2.160 . S
Co178 O184 2.058 . S
Co178 O194 2.057 . S
Co178 O209 2.037 . S
Co178 N213 2.145 . S
Co178 N234 2.257 . S
O179 Co177 2.143 . S
O179 Co178 2.160 . S
C180 O181 1.278 . S
C180 O188 1.224 . S
O181 C180 1.278 . S
C182 O183 1.245 . S
C182 O194 1.232 . S
O183 C182 1.245 . S
O184 Co178 2.058 . S
O184 C210 1.269 . S
O185 Co177 2.074 . S
O185 C210 1.257 . S
H186 C211 0.930 . S
H187 C217 0.930 . S
O188 Co177 2.093 . S
O188 C180 1.224 . S
H189 C221 0.929 . S
H190 C223 0.930 . S
H191 C224 0.930 . S
H192 C222 0.929 . S
H193 C225 0.928 . S
O194 Co178 2.057 . S
O194 C182 1.232 . S
H195 C214 0.929 . S
H196 C215 0.929 . S
H197 C227 0.931 . S
H198 C219 0.929 . S
H199 C228 0.930 . S
H200 C220 0.931 . S
O201 Co177 2.097 . S
O201 C229 1.214 . S
H202 C230 0.929 . S
H203 C231 0.929 . S
H204 C232 0.930 . S
H205 C233 0.929 . S
H206 C235 0.930 . S
H207 C212 0.930 . S
H208 C216 0.930 . S
O209 Co178 2.037 . S
O209 C229 1.234 . S
C210 O184 1.269 . S
C210 O185 1.257 . S
C211 H186 0.930 . S
C211 C214 1.388 . S
C211 C216 1.418 . S
C212 H207 0.930 . S
C212 C215 1.404 . S
C212 C216 1.353 . S
N213 Co178 2.145 . S
N213 C214 1.397 . S
N213 C215 1.334 . S
C214 H195 0.929 . S
C214 C211 1.388 . S
C214 N213 1.397 . S
C215 H196 0.929 . S
C215 C212 1.404 . S
C215 N213 1.334 . S
C216 H208 0.930 . S
C216 C211 1.418 . S
C216 C212 1.353 . S
C217 H187 0.930 . S
C217 N218 1.330 . S
C217 C219 1.446 . S
N218 Co177 2.151 . S
N218 C217 1.330 . S
N218 C222 1.418 . S
C219 H198 0.929 . S
C219 C217 1.446 . S
C219 C220 1.332 . S
C220 H200 0.931 . S
C220 C219 1.332 . S
C220 C221 1.267 . S
C221 H189 0.929 . S
C221 C220 1.267 . S
C221 C222 1.251 . S
C222 H192 0.929 . S
C222 N218 1.418 . S
C222 C221 1.251 . S
C223 H190 0.930 . S
C223 C225 1.406 . S
C223 C228 1.261 . S
C224 H191 0.930 . S
C224 N226 1.325 . S
C224 C227 1.357 . S
C225 H193 0.928 . S
C225 C223 1.406 . S
C225 N226 1.261 . S
N226 Co177 2.214 . S
N226 C224 1.325 . S
N226 C225 1.261 . S
C227 H197 0.931 . S
C227 C224 1.357 . S
C227 C228 1.312 . S
C228 H199 0.930 . S
C228 C223 1.261 . S
C228 C227 1.312 . S
C229 O201 1.214 . S
C229 O209 1.234 . S
C230 H202 0.929 . S
C230 C233 1.391 . S
C230 C235 1.391 . S
C231 H203 0.929 . S
C231 C232 1.390 . S
C231 N234 1.391 . S
C232 H204 0.930 . S
C232 C231 1.390 . S
C232 C233 1.392 . S
C233 H205 0.929 . S
C233 C230 1.391 . S
C233 C232 1.392 . S
N234 Co178 2.257 . S
N234 C231 1.391 . S
N234 C235 1.388 . S
C235 H206 0.930 . S
C235 C230 1.391 . S
C235 N234 1.388 . S
Co236 O238 2.143 1_655 S
Co236 O244 2.074 . S
Co236 O247 2.093 1_656 S
Co236 O260 2.097 1_655 S
Co236 N277 2.151 1_556 S
Co236 N285 2.214 . S
Co237 O238 2.160 . S
Co237 O243 2.058 1_455 S
Co237 O253 2.057 1_455 S
Co237 O268 2.037 . S
Co237 N272 2.145 . S
Co237 N293 2.257 . S
O238 Co236 2.143 1_455 S
O238 Co237 2.160 . S
C239 O240 1.278 . S
C239 O247 1.224 . S
O240 C239 1.278 . S
C241 O242 1.245 1_556 S
C241 O253 1.232 . S
O242 C241 1.245 1_554 S
O243 Co237 2.058 1_655 S
O243 C269 1.269 . S
O244 Co236 2.074 . S
O244 C269 1.257 . S
H245 C270 0.930 . S
H246 C276 0.930 . S
O247 Co236 2.093 1_454 S
O247 C239 1.224 . S
H248 C280 0.929 . S
H249 C282 0.930 1_554 S
H250 C283 0.930 . S
H251 C281 0.929 1_556 S
H252 C284 0.928 1_554 S
O253 Co237 2.057 1_655 S
O253 C241 1.232 . S
H254 C273 0.929 . S
H255 C274 0.929 . S
H256 C286 0.931 . S
H257 C278 0.929 . S
H258 C287 0.930 1_545 S
H259 C279 0.931 . S
O260 Co236 2.097 1_455 S
O260 C288 1.214 . S
H261 C289 0.929 1_554 S
H262 C290 0.929 . S
H263 C291 0.930 . S
H264 C292 0.929 . S
H265 C294 0.930 . S
H266 C271 0.930 . S
H267 C275 0.930 . S
O268 Co237 2.037 . S
O268 C288 1.234 . S
C269 O243 1.269 . S
C269 O244 1.257 . S
C270 H245 0.930 . S
C270 C273 1.388 . S
C270 C275 1.418 . S
C271 H266 0.930 . S
C271 C274 1.404 . S
C271 C275 1.353 . S
N272 Co237 2.145 . S
N272 C273 1.397 . S
N272 C274 1.334 . S
C273 H254 0.929 . S
C273 C270 1.388 . S
C273 N272 1.397 . S
C274 H255 0.929 . S
C274 C271 1.404 . S
C274 N272 1.334 . S
C275 H267 0.930 . S
C275 C270 1.418 . S
C275 C271 1.353 . S
C276 H246 0.930 . S
C276 N277 1.330 . S
C276 C278 1.446 . S
N277 Co236 2.151 1_554 S
N277 C276 1.330 . S
N277 C281 1.418 . S
C278 H257 0.929 . S
C278 C276 1.446 . S
C278 C279 1.332 . S
C279 H259 0.931 . S
C279 C278 1.332 . S
C279 C280 1.267 . S
C280 H248 0.929 . S
C280 C279 1.267 . S
C280 C281 1.251 . S
C281 H251 0.929 1_554 S
C281 N277 1.418 . S
C281 C280 1.251 . S
C282 H249 0.930 1_556 S
C282 C284 1.406 . S
C282 C287 1.261 . S
C283 H250 0.930 . S
C283 N285 1.325 . S
C283 C286 1.357 . S
C284 H252 0.928 1_556 S
C284 C282 1.406 . S
C284 N285 1.261 . S
N285 Co236 2.214 . S
N285 C283 1.325 . S
N285 C284 1.261 . S
C286 H256 0.931 . S
C286 C283 1.357 . S
C286 C287 1.312 . S
C287 H258 0.930 1_565 S
C287 C282 1.261 . S
C287 C286 1.312 . S
C288 O260 1.214 . S
C288 O268 1.234 . S
C289 H261 0.929 1_556 S
C289 C292 1.391 . S
C289 C294 1.391 . S
C290 H262 0.929 . S
C290 C291 1.390 . S
C290 N293 1.391 . S
C291 H263 0.930 . S
C291 C290 1.390 . S
C291 C292 1.392 . S
C292 H264 0.929 . S
C292 C289 1.391 . S
C292 C291 1.392 . S
N293 Co237 2.257 . S
N293 C290 1.391 . S
N293 C294 1.388 . S
C294 H265 0.930 . S
C294 C289 1.391 . S
C294 N293 1.388 . S
Co295 O297 2.131 1_565 S
Co295 O303 2.074 . S
Co295 O306 2.093 1_565 S
Co295 O319 2.097 1_565 S
Co295 N336 2.151 . S
Co295 N344 2.214 . S
Co296 O297 2.166 . S
Co296 O302 2.058 1_545 S
Co296 O312 2.057 1_545 S
Co296 O327 2.037 . S
Co296 N331 2.145 . S
Co296 N352 2.257 . S
O297 Co295 2.131 1_545 S
O297 Co296 2.166 . S
C298 O299 1.278 . S
C298 O306 1.224 . S
O299 C298 1.278 . S
C300 O301 1.245 . S
C300 O312 1.232 . S
O301 C300 1.245 . S
O302 Co296 2.058 1_565 S
O302 C328 1.269 . S
O303 Co295 2.074 . S
O303 C328 1.257 . S
H304 C329 0.930 . S
H305 C335 0.930 . S
O306 Co295 2.093 1_545 S
O306 C298 1.224 . S
H307 C339 0.929 . S
H308 C341 0.930 . S
H309 C342 0.930 . S
H310 C340 0.929 . S
H311 C343 0.928 . S
O312 Co296 2.057 1_565 S
O312 C300 1.232 . S
H313 C332 0.929 . S
H314 C333 0.929 . S
H315 C345 0.931 . S
H316 C337 0.929 . S
H317 C346 0.930 . S
H318 C338 0.931 . S
O319 Co295 2.097 1_545 S
O319 C347 1.214 . S
H320 C348 0.929 . S
H321 C349 0.929 . S
H322 C350 0.930 . S
H323 C351 0.929 . S
H324 C353 0.930 . S
H325 C330 0.930 . S
H326 C334 0.930 . S
O327 Co296 2.037 . S
O327 C347 1.234 . S
C328 O302 1.269 . S
C328 O303 1.257 . S
C329 H304 0.930 . S
C329 C332 1.388 . S
C329 C334 1.418 . S
C330 H325 0.930 . S
C330 C333 1.404 . S
C330 C334 1.353 . S
N331 Co296 2.145 . S
N331 C332 1.397 . S
N331 C333 1.334 . S
C332 H313 0.929 . S
C332 C329 1.388 . S
C332 N331 1.397 . S
C333 H314 0.929 . S
C333 C330 1.404 . S
C333 N331 1.334 . S
C334 H326 0.930 . S
C334 C329 1.418 . S
C334 C330 1.353 . S
C335 H305 0.930 . S
C335 N336 1.330 . S
C335 C337 1.446 . S
N336 Co295 2.151 . S
N336 C335 1.330 . S
N336 C340 1.418 . S
C337 H316 0.929 . S
C337 C335 1.446 . S
C337 C338 1.332 . S
C338 H318 0.931 . S
C338 C337 1.332 . S
C338 C339 1.267 . S
C339 H307 0.929 . S
C339 C338 1.267 . S
C339 C340 1.251 . S
C340 H310 0.929 . S
C340 N336 1.418 . S
C340 C339 1.251 . S
C341 H308 0.930 . S
C341 C343 1.406 . S
C341 C346 1.261 . S
C342 H309 0.930 . S
C342 N344 1.325 . S
C342 C345 1.357 . S
C343 H311 0.928 . S
C343 C341 1.406 . S
C343 N344 1.261 . S
N344 Co295 2.214 . S
N344 C342 1.325 . S
N344 C343 1.261 . S
C345 H315 0.931 . S
C345 C342 1.357 . S
C345 C346 1.312 . S
C346 H317 0.930 . S
C346 C341 1.261 . S
C346 C345 1.312 . S
C347 O319 1.214 . S
C347 O327 1.234 . S
C348 H320 0.929 . S
C348 C351 1.391 . S
C348 C353 1.391 . S
C349 H321 0.929 . S
C349 C350 1.390 . S
C349 N352 1.391 . S
C350 H322 0.930 . S
C350 C349 1.390 . S
C350 C351 1.392 . S
C351 H323 0.929 . S
C351 C348 1.391 . S
C351 C350 1.392 . S
N352 Co296 2.257 . S
N352 C349 1.391 . S
N352 C353 1.388 . S
C353 H324 0.930 . S
C353 C348 1.391 . S
C353 N352 1.388 . S
Co354 O356 2.143 . S
Co354 O362 2.068 1_554 S
Co354 O365 2.098 . S
Co354 O378 2.093 1_554 S
Co354 N395 2.155 . S
Co354 N403 2.213 1_554 S
Co355 O356 2.160 1_556 S
Co355 O361 2.058 . S
Co355 O371 2.057 . S
Co355 O386 2.037 . S
Co355 N390 2.145 . S
Co355 N411 2.257 . S
O356 Co354 2.143 . S
O356 Co355 2.160 1_554 S
C357 O358 1.278 . S
C357 O365 1.224 . S
O358 C357 1.278 . S
C359 O360 1.245 . S
C359 O371 1.232 1_554 S
O360 C359 1.245 . S
O361 Co355 2.058 . S
O361 C387 1.269 . S
O362 Co354 2.068 1_556 S
O362 C387 1.257 . S
H363 C388 0.930 . S
H364 C394 0.930 . S
O365 Co354 2.098 . S
O365 C357 1.224 . S
H366 C398 0.929 . S
H367 C400 0.930 . S
H368 C401 0.930 . S
H369 C399 0.929 . S
H370 C402 0.928 . S
O371 Co355 2.057 . S
O371 C359 1.232 1_556 S
H372 C391 0.929 . S
H373 C392 0.929 . S
H374 C404 0.931 . S
H375 C396 0.929 . S
H376 C405 0.930 . S
H377 C397 0.931 . S
O378 Co354 2.093 1_556 S
O378 C406 1.214 . S
H379 C407 0.929 . S
H380 C408 0.929 . S
H381 C409 0.930 . S
H382 C410 0.929 1_554 S
H383 C412 0.930 . S
H384 C389 0.930 . S
H385 C393 0.930 . S
O386 Co355 2.037 . S
O386 C406 1.234 . S
C387 O361 1.269 . S
C387 O362 1.257 . S
C388 H363 0.930 . S
C388 C391 1.388 . S
C388 C393 1.418 . S
C389 H384 0.930 . S
C389 C392 1.404 . S
C389 C393 1.353 . S
N390 Co355 2.145 . S
N390 C391 1.397 . S
N390 C392 1.334 . S
C391 H372 0.929 . S
C391 C388 1.388 . S
C391 N390 1.397 . S
C392 H373 0.929 . S
C392 C389 1.404 . S
C392 N390 1.334 . S
C393 H385 0.930 . S
C393 C388 1.418 . S
C393 C389 1.353 . S
C394 H364 0.930 . S
C394 N395 1.330 . S
C394 C396 1.446 . S
N395 Co354 2.155 . S
N395 C394 1.330 . S
N395 C399 1.418 . S
C396 H375 0.929 . S
C396 C394 1.446 . S
C396 C397 1.332 . S
C397 H377 0.931 . S
C397 C396 1.332 . S
C397 C398 1.267 . S
C398 H366 0.929 . S
C398 C397 1.267 . S
C398 C399 1.251 . S
C399 H369 0.929 . S
C399 N395 1.418 . S
C399 C398 1.251 . S
C400 H367 0.930 . S
C400 C402 1.406 . S
C400 C405 1.261 1_554 S
C401 H368 0.930 . S
C401 N403 1.325 . S
C401 C404 1.357 . S
C402 H370 0.928 . S
C402 C400 1.406 . S
C402 N403 1.261 1_554 S
N403 Co354 2.213 1_556 S
N403 C401 1.325 . S
N403 C402 1.261 1_556 S
C404 H374 0.931 . S
C404 C401 1.357 . S
C404 C405 1.312 . S
C405 H376 0.930 . S
C405 C400 1.261 1_556 S
C405 C404 1.312 . S
C406 O378 1.214 . S
C406 O386 1.234 . S
C407 H379 0.929 . S
C407 C410 1.391 1_554 S
C407 C412 1.391 . S
C408 H380 0.929 . S
C408 C409 1.390 . S
C408 N411 1.391 . S
C409 H381 0.930 . S
C409 C408 1.390 . S
C409 C410 1.392 . S
C410 H382 0.929 1_556 S
C410 C407 1.391 1_556 S
C410 C409 1.392 . S
N411 Co355 2.257 . S
N411 C408 1.391 . S
N411 C412 1.388 1_556 S
C412 H383 0.930 . S
C412 C407 1.391 . S
C412 N411 1.388 1_554 S
Co413 O415 2.143 . S
Co413 O421 2.074 . S
Co413 O424 2.093 . S
Co413 O437 2.097 . S
Co413 N454 2.151 . S
Co413 N462 2.214 . S
Co414 O415 2.160 . S
Co414 O420 2.058 . S
Co414 O430 2.057 . S
Co414 O445 2.037 . S
Co414 N449 2.145 . S
Co414 N470 2.257 . S
O415 Co413 2.143 . S
O415 Co414 2.160 . S
C416 O417 1.278 . S
C416 O424 1.224 . S
O417 C416 1.278 . S
C418 O419 1.245 . S
C418 O430 1.232 . S
O419 C418 1.245 . S
O420 Co414 2.058 . S
O420 C446 1.269 . S
O421 Co413 2.074 . S
O421 C446 1.257 . S
H422 C447 0.930 . S
H423 C453 0.930 . S
O424 Co413 2.093 . S
O424 C416 1.224 . S
H425 C457 0.929 . S
H426 C459 0.930 . S
H427 C460 0.930 . S
H428 C458 0.929 . S
H429 C461 0.928 . S
O430 Co414 2.057 . S
O430 C418 1.232 . S
H431 C450 0.929 . S
H432 C451 0.929 . S
H433 C463 0.931 . S
H434 C455 0.929 . S
H435 C464 0.930 1_455 S
H436 C456 0.931 . S
O437 Co413 2.097 . S
O437 C465 1.214 . S
H438 C466 0.929 . S
H439 C467 0.929 . S
H440 C468 0.930 . S
H441 C469 0.929 . S
H442 C471 0.930 . S
H443 C448 0.930 . S
H444 C452 0.930 . S
O445 Co414 2.037 . S
O445 C465 1.234 . S
C446 O420 1.269 . S
C446 O421 1.257 . S
C447 H422 0.930 . S
C447 C450 1.388 . S
C447 C452 1.418 . S
C448 H443 0.930 . S
C448 C451 1.404 . S
C448 C452 1.353 . S
N449 Co414 2.145 . S
N449 C450 1.397 . S
N449 C451 1.334 . S
C450 H431 0.929 . S
C450 C447 1.388 . S
C450 N449 1.397 . S
C451 H432 0.929 . S
C451 C448 1.404 . S
C451 N449 1.334 . S
C452 H444 0.930 . S
C452 C447 1.418 . S
C452 C448 1.353 . S
C453 H423 0.930 . S
C453 N454 1.330 . S
C453 C455 1.446 . S
N454 Co413 2.151 . S
N454 C453 1.330 . S
N454 C458 1.418 . S
C455 H434 0.929 . S
C455 C453 1.446 . S
C455 C456 1.332 . S
C456 H436 0.931 . S
C456 C455 1.332 . S
C456 C457 1.267 . S
C457 H425 0.929 . S
C457 C456 1.267 . S
C457 C458 1.251 . S
C458 H428 0.929 . S
C458 N454 1.418 . S
C458 C457 1.251 . S
C459 H426 0.930 . S
C459 C461 1.406 . S
C459 C464 1.261 . S
C460 H427 0.930 . S
C460 N462 1.325 . S
C460 C463 1.357 . S
C461 H429 0.928 . S
C461 C459 1.406 . S
C461 N462 1.261 . S
N462 Co413 2.214 . S
N462 C460 1.325 . S
N462 C461 1.261 . S
C463 H433 0.931 . S
C463 C460 1.357 . S
C463 C464 1.312 . S
C464 H435 0.930 1_655 S
C464 C459 1.261 . S
C464 C463 1.312 . S
C465 O437 1.214 . S
C465 O445 1.234 . S
C466 H438 0.929 . S
C466 C469 1.391 . S
C466 C471 1.391 . S
C467 H439 0.929 . S
C467 C468 1.390 . S
C467 N470 1.391 . S
C468 H440 0.930 . S
C468 C467 1.390 . S
C468 C469 1.392 . S
C469 H441 0.929 . S
C469 C466 1.391 . S
C469 C468 1.392 . S
N470 Co414 2.257 . S
N470 C467 1.391 . S
N470 C471 1.388 . S
C471 H442 0.930 . S
C471 C466 1.391 . S
C471 N470 1.388 . S
Co472 O474 2.131 1_455 S
Co472 O480 2.074 . S
Co472 O483 2.093 1_456 S
Co472 O496 2.097 1_455 S
Co472 N513 2.151 1_556 S
Co472 N521 2.214 . S
Co473 O474 2.166 . S
Co473 O479 2.058 1_655 S
Co473 O489 2.057 1_655 S
Co473 O504 2.037 . S
Co473 N508 2.145 . S
Co473 N529 2.257 . S
O474 Co472 2.131 1_655 S
O474 Co473 2.166 . S
C475 O476 1.278 . S
C475 O483 1.224 . S
O476 C475 1.278 . S
C477 O478 1.245 1_556 S
C477 O489 1.232 . S
O478 C477 1.245 1_554 S
O479 Co473 2.058 1_455 S
O479 C505 1.269 . S
O480 Co472 2.074 . S
O480 C505 1.257 . S
H481 C506 0.930 . S
H482 C512 0.930 . S
O483 Co472 2.093 1_654 S
O483 C475 1.224 . S
H484 C516 0.929 . S
H485 C518 0.920 1_554 S
H486 C519 0.930 . S
H487 C517 0.929 1_556 S
H488 C520 0.928 . S
O489 Co473 2.057 1_455 S
O489 C477 1.232 . S
H490 C509 0.929 . S
H491 C510 0.929 . S
H492 C522 0.931 . S
H493 C514 0.929 . S
H494 C523 0.930 . S
H495 C515 0.931 . S
O496 Co472 2.097 1_655 S
O496 C524 1.214 . S
H497 C525 0.929 . S
H498 C526 0.929 . S
H499 C527 0.930 . S
H500 C528 0.929 . S
H501 C530 0.930 1_554 S
H502 C507 0.930 . S
H503 C511 0.930 . S
O504 Co473 2.037 . S
O504 C524 1.234 . S
C505 O479 1.269 . S
C505 O480 1.257 . S
C506 H481 0.930 . S
C506 C509 1.388 . S
C506 C511 1.418 . S
C507 H502 0.930 . S
C507 C510 1.404 . S
C507 C511 1.353 . S
N508 Co473 2.145 . S
N508 C509 1.397 . S
N508 C510 1.334 . S
C509 H490 0.929 . S
C509 C506 1.388 . S
C509 N508 1.397 . S
C510 H491 0.929 . S
C510 C507 1.404 . S
C510 N508 1.334 . S
C511 H503 0.930 . S
C511 C506 1.418 . S
C511 C507 1.353 . S
C512 H482 0.930 . S
C512 N513 1.330 . S
C512 C514 1.446 . S
N513 Co472 2.151 1_554 S
N513 C512 1.330 . S
N513 C517 1.418 . S
C514 H493 0.929 . S
C514 C512 1.446 . S
C514 C515 1.332 . S
C515 H495 0.931 . S
C515 C514 1.332 . S
C515 C516 1.267 . S
C516 H484 0.929 . S
C516 C515 1.267 . S
C516 C517 1.251 . S
C517 H487 0.929 1_554 S
C517 N513 1.418 . S
C517 C516 1.251 . S
C518 H485 0.920 1_556 S
C518 C520 1.403 1_556 S
C518 C523 1.273 . S
C519 H486 0.930 . S
C519 N521 1.325 . S
C519 C522 1.357 . S
C520 H488 0.928 . S
C520 C518 1.403 1_554 S
C520 N521 1.261 1_554 S
N521 Co472 2.214 . S
N521 C519 1.325 . S
N521 C520 1.261 1_556 S
C522 H492 0.931 . S
C522 C519 1.357 . S
C522 C523 1.312 . S
C523 H494 0.930 . S
C523 C518 1.273 . S
C523 C522 1.312 . S
C524 O496 1.214 . S
C524 O504 1.234 . S
C525 H497 0.929 . S
C525 C528 1.391 1_554 S
C525 C530 1.391 1_554 S
C526 H498 0.929 . S
C526 C527 1.390 . S
C526 N529 1.391 . S
C527 H499 0.930 . S
C527 C526 1.390 . S
C527 C528 1.392 . S
C528 H500 0.929 . S
C528 C525 1.391 1_556 S
C528 C527 1.392 . S
N529 Co473 2.257 . S
N529 C526 1.391 . S
N529 C530 1.388 . S
C530 H501 0.930 1_556 S
C530 C525 1.391 1_556 S
C530 N529 1.388 . S
Co531 O533 2.143 1_545 S
Co531 O539 2.074 . S
Co531 O542 2.093 1_545 S
Co531 O555 2.097 1_545 S
Co531 N572 2.151 . S
Co531 N580 2.214 . S
Co532 O533 2.160 . S
Co532 O538 2.058 1_565 S
Co532 O548 2.057 1_565 S
Co532 O563 2.037 . S
Co532 N567 2.145 . S
Co532 N588 2.257 . S
O533 Co531 2.143 1_565 S
O533 Co532 2.160 . S
C534 O535 1.278 . S
C534 O542 1.224 . S
O535 C534 1.278 . S
C536 O537 1.245 . S
C536 O548 1.232 . S
O537 C536 1.245 . S
O538 Co532 2.058 1_545 S
O538 C564 1.269 . S
O539 Co531 2.074 . S
O539 C564 1.257 . S
H540 C565 0.930 . S
H541 C571 0.930 . S
O542 Co531 2.093 1_565 S
O542 C534 1.224 . S
H543 C575 0.929 . S
H544 C577 0.930 . S
H545 C578 0.930 . S
H546 C576 0.929 . S
H547 C579 0.928 . S
O548 Co532 2.057 1_545 S
O548 C536 1.232 . S
H549 C568 0.929 . S
H550 C569 0.929 . S
H551 C581 0.931 . S
H552 C573 0.929 . S
H553 C582 0.930 1_655 S
H554 C574 0.931 . S
O555 Co531 2.097 1_565 S
O555 C583 1.214 . S
H556 C584 0.929 . S
H557 C585 0.929 . S
H558 C586 0.930 . S
H559 C587 0.929 . S
H560 C589 0.930 . S
H561 C566 0.930 . S
H562 C570 0.930 . S
O563 Co532 2.037 . S
O563 C583 1.234 . S
C564 O538 1.269 . S
C564 O539 1.257 . S
C565 H540 0.930 . S
C565 C568 1.388 . S
C565 C570 1.418 . S
C566 H561 0.930 . S
C566 C569 1.404 . S
C566 C570 1.353 . S
N567 Co532 2.145 . S
N567 C568 1.397 . S
N567 C569 1.334 . S
C568 H549 0.929 . S
C568 C565 1.388 . S
C568 N567 1.397 . S
C569 H550 0.929 . S
C569 C566 1.404 . S
C569 N567 1.334 . S
C570 H562 0.930 . S
C570 C565 1.418 . S
C570 C566 1.353 . S
C571 H541 0.930 . S
C571 N572 1.330 . S
C571 C573 1.446 . S
N572 Co531 2.151 . S
N572 C571 1.330 . S
N572 C576 1.418 . S
C573 H552 0.929 . S
C573 C571 1.446 . S
C573 C574 1.332 . S
C574 H554 0.931 . S
C574 C573 1.332 . S
C574 C575 1.267 . S
C575 H543 0.929 . S
C575 C574 1.267 . S
C575 C576 1.251 . S
C576 H546 0.929 . S
C576 N572 1.418 . S
C576 C575 1.251 . S
C577 H544 0.930 . S
C577 C579 1.406 . S
C577 C582 1.261 . S
C578 H545 0.930 . S
C578 N580 1.325 . S
C578 C581 1.357 . S
C579 H547 0.928 . S
C579 C577 1.406 . S
C579 N580 1.261 . S
N580 Co531 2.214 . S
N580 C578 1.325 . S
N580 C579 1.261 . S
C581 H551 0.931 . S
C581 C578 1.357 . S
C581 C582 1.312 . S
C582 H553 0.930 1_455 S
C582 C577 1.261 . S
C582 C581 1.312 . S
C583 O555 1.214 . S
C583 O563 1.234 . S
C584 H556 0.929 . S
C584 C587 1.391 . S
C584 C589 1.391 . S
C585 H557 0.929 . S
C585 C586 1.390 . S
C585 N588 1.391 . S
C586 H558 0.930 . S
C586 C585 1.390 . S
C586 C587 1.392 . S
C587 H559 0.929 . S
C587 C584 1.391 . S
C587 C586 1.392 . S
N588 Co532 2.257 . S
N588 C585 1.391 . S
N588 C589 1.388 . S
C589 H560 0.930 . S
C589 C584 1.391 . S
C589 N588 1.388 . S
Co590 O592 2.143 . S
Co590 O598 2.074 . S
Co590 O601 2.093 1_556 S
Co590 O614 2.097 . S
Co590 N631 2.151 1_556 S
Co590 N639 2.214 . S
Co591 O592 2.160 . S
Co591 O597 2.058 . S
Co591 O607 2.057 . S
Co591 O622 2.037 . S
Co591 N626 2.145 . S
Co591 N647 2.257 . S
O592 Co590 2.143 . S
O592 Co591 2.160 . S
C593 O594 1.278 . S
C593 O601 1.224 . S
O594 C593 1.278 . S
C595 O596 1.245 1_556 S
C595 O607 1.232 . S
O596 C595 1.245 1_554 S
O597 Co591 2.058 . S
O597 C623 1.269 . S
O598 Co590 2.074 . S
O598 C623 1.257 . S
H599 C624 0.930 . S
H600 C630 0.930 . S
O601 Co590 2.093 1_554 S
O601 C593 1.224 . S
H602 C634 0.929 . S
H603 C636 0.930 1_554 S
H604 C637 0.930 . S
H605 C635 0.929 1_556 S
H606 C638 0.928 . S
O607 Co591 2.057 . S
O607 C595 1.232 . S
H608 C627 0.929 . S
H609 C628 0.929 . S
H610 C640 0.931 . S
H611 C632 0.929 . S
H612 C641 0.930 1_565 S
H613 C633 0.931 . S
O614 Co590 2.097 . S
O614 C642 1.214 . S
H615 C643 0.929 1_554 S
H616 C644 0.929 . S
H617 C645 0.930 . S
H618 C646 0.929 . S
H619 C648 0.933 . S
H620 C625 0.930 . S
H621 C629 0.930 . S
O622 Co591 2.037 . S
O622 C642 1.234 . S
C623 O597 1.269 . S
C623 O598 1.257 . S
C624 H599 0.930 . S
C624 C627 1.388 . S
C624 C629 1.418 . S
C625 H620 0.930 . S
C625 C628 1.404 . S
C625 C629 1.353 . S
N626 Co591 2.145 . S
N626 C627 1.397 . S
N626 C628 1.334 . S
C627 H608 0.929 . S
C627 C624 1.388 . S
C627 N626 1.397 . S
C628 H609 0.929 . S
C628 C625 1.404 . S
C628 N626 1.334 . S
C629 H621 0.930 . S
C629 C624 1.418 . S
C629 C625 1.353 . S
C630 H600 0.930 . S
C630 N631 1.330 . S
C630 C632 1.446 . S
N631 Co590 2.151 1_554 S
N631 C630 1.330 . S
N631 C635 1.418 . S
C632 H611 0.929 . S
C632 C630 1.446 . S
C632 C633 1.332 . S
C633 H613 0.931 . S
C633 C632 1.332 . S
C633 C634 1.267 . S
C634 H602 0.929 . S
C634 C633 1.267 . S
C634 C635 1.251 . S
C635 H605 0.929 1_554 S
C635 N631 1.418 . S
C635 C634 1.251 . S
C636 H603 0.930 1_556 S
C636 C638 1.406 1_556 S
C636 C641 1.261 . S
C637 H604 0.930 . S
C637 N639 1.325 . S
C637 C640 1.357 . S
C638 H606 0.928 . S
C638 C636 1.406 1_554 S
C638 N639 1.261 1_554 S
N639 Co590 2.214 . S
N639 C637 1.325 . S
N639 C638 1.261 1_556 S
C640 H610 0.931 . S
C640 C637 1.357 . S
C640 C641 1.312 . S
C641 H612 0.930 1_545 S
C641 C636 1.261 . S
C641 C640 1.312 . S
C642 O614 1.214 . S
C642 O622 1.234 . S
C643 H615 0.929 1_556 S
C643 C646 1.391 . S
C643 C648 1.391 . S
C644 H616 0.929 . S
C644 C645 1.390 . S
C644 N647 1.391 . S
C645 H617 0.930 . S
C645 C644 1.390 . S
C645 C646 1.392 . S
C646 H618 0.929 . S
C646 C643 1.391 . S
C646 C645 1.392 . S
N647 Co591 2.257 . S
N647 C644 1.391 . S
N647 C648 1.388 . S
C648 H619 0.933 . S
C648 C643 1.391 . S
C648 N647 1.388 . S
Co649 O651 2.143 . S
Co649 O657 2.074 . S
Co649 O660 2.093 . S
Co649 O673 2.097 . S
Co649 N690 2.151 . S
Co649 N698 2.214 . S
Co650 O651 2.160 . S
Co650 O656 2.058 . S
Co650 O666 2.057 . S
Co650 O681 2.037 . S
Co650 N685 2.145 . S
Co650 N706 2.257 . S
O651 Co649 2.143 . S
O651 Co650 2.160 . S
C652 O653 1.278 . S
C652 O660 1.224 . S
O653 C652 1.278 . S
C654 O655 1.245 . S
C654 O666 1.232 . S
O655 C654 1.245 . S
O656 Co650 2.058 . S
O656 C682 1.269 . S
O657 Co649 2.074 . S
O657 C682 1.257 . S
H658 C683 0.930 . S
H659 C689 0.930 . S
O660 Co649 2.093 . S
O660 C652 1.224 . S
H661 C693 0.929 . S
H662 C695 0.930 . S
H663 C696 0.930 . S
H664 C694 0.929 . S
H665 C697 0.928 . S
O666 Co650 2.057 . S
O666 C654 1.232 . S
H667 C686 0.929 . S
H668 C687 0.929 . S
H669 C699 0.931 . S
H670 C691 0.929 . S
H671 C700 0.930 . S
H672 C692 0.931 . S
O673 Co649 2.097 . S
O673 C701 1.214 . S
H674 C702 0.929 . S
H675 C703 0.929 . S
H676 C704 0.930 . S
H677 C705 0.929 . S
H678 C707 0.930 . S
H679 C684 0.930 . S
H680 C688 0.930 . S
O681 Co650 2.037 . S
O681 C701 1.234 . S
C682 O656 1.269 . S
C682 O657 1.257 . S
C683 H658 0.930 . S
C683 C686 1.388 . S
C683 C688 1.418 . S
C684 H679 0.930 . S
C684 C687 1.404 . S
C684 C688 1.353 . S
N685 Co650 2.145 . S
N685 C686 1.397 . S
N685 C687 1.334 . S
C686 H667 0.929 . S
C686 C683 1.388 . S
C686 N685 1.397 . S
C687 H668 0.929 . S
C687 C684 1.404 . S
C687 N685 1.334 . S
C688 H680 0.930 . S
C688 C683 1.418 . S
C688 C684 1.353 . S
C689 H659 0.930 . S
C689 N690 1.330 . S
C689 C691 1.446 . S
N690 Co649 2.151 . S
N690 C689 1.330 . S
N690 C694 1.418 . S
C691 H670 0.929 . S
C691 C689 1.446 . S
C691 C692 1.332 . S
C692 H672 0.931 . S
C692 C691 1.332 . S
C692 C693 1.267 . S
C693 H661 0.929 . S
C693 C692 1.267 . S
C693 C694 1.251 . S
C694 H664 0.929 . S
C694 N690 1.418 . S
C694 C693 1.251 . S
C695 H662 0.930 . S
C695 C697 1.406 . S
C695 C700 1.261 . S
C696 H663 0.930 . S
C696 N698 1.325 . S
C696 C699 1.357 . S
C697 H665 0.928 . S
C697 C695 1.406 . S
C697 N698 1.261 . S
N698 Co649 2.214 . S
N698 C696 1.325 . S
N698 C697 1.261 . S
C699 H669 0.931 . S
C699 C696 1.357 . S
C699 C700 1.312 . S
C700 H671 0.930 . S
C700 C695 1.261 . S
C700 C699 1.312 . S
C701 O673 1.214 . S
C701 O681 1.234 . S
C702 H674 0.929 . S
C702 C705 1.391 . S
C702 C707 1.391 . S
C703 H675 0.929 . S
C703 C704 1.390 . S
C703 N706 1.391 . S
C704 H676 0.930 . S
C704 C703 1.390 . S
C704 C705 1.392 . S
C705 H677 0.929 . S
C705 C702 1.391 . S
C705 C704 1.392 . S
N706 Co650 2.257 . S
N706 C703 1.391 . S
N706 C707 1.388 . S
C707 H678 0.930 . S
C707 C702 1.391 . S
C707 N706 1.388 . S
Co708 O710 2.143 1_455 S
Co708 O716 2.074 . S
Co708 O719 2.093 1_454 S
Co708 O732 2.097 1_455 S
Co708 N749 2.151 1_554 S
Co708 N757 2.214 . S
Co709 O710 2.160 . S
Co709 O715 2.058 1_655 S
Co709 O725 2.057 1_655 S
Co709 O740 2.037 . S
Co709 N744 2.145 . S
Co709 N765 2.257 . S
O710 Co708 2.143 1_655 S
O710 Co709 2.160 . S
C711 O712 1.278 . S
C711 O719 1.224 . S
O712 C711 1.278 . S
C713 O714 1.245 1_554 S
C713 O725 1.232 . S
O714 C713 1.245 1_556 S
O715 Co709 2.058 1_455 S
O715 C741 1.269 . S
O716 Co708 2.074 . S
O716 C741 1.257 . S
H717 C742 0.930 . S
H718 C748 0.930 . S
O719 Co708 2.093 1_656 S
O719 C711 1.224 . S
H720 C752 0.929 . S
H721 C754 0.930 1_556 S
H722 C755 0.930 . S
H723 C753 0.929 1_554 S
H724 C756 0.928 1_556 S
O725 Co709 2.057 1_455 S
O725 C713 1.232 . S
H726 C745 0.929 . S
H727 C746 0.929 . S
H728 C758 0.931 . S
H729 C750 0.929 . S
H730 C759 0.930 1_565 S
H731 C751 0.931 . S
O732 Co708 2.097 1_655 S
O732 C760 1.214 . S
H733 C761 0.929 1_556 S
H734 C762 0.929 . S
H735 C763 0.930 . S
H736 C764 0.929 . S
H737 C766 0.930 . S
H738 C743 0.930 . S
H739 C747 0.930 . S
O740 Co709 2.037 . S
O740 C760 1.234 . S
C741 O715 1.269 . S
C741 O716 1.257 . S
C742 H717 0.930 . S
C742 C745 1.388 . S
C742 C747 1.418 . S
C743 H738 0.930 . S
C743 C746 1.404 . S
C743 C747 1.353 . S
N744 Co709 2.145 . S
N744 C745 1.397 . S
N744 C746 1.334 . S
C745 H726 0.929 . S
C745 C742 1.388 . S
C745 N744 1.397 . S
C746 H727 0.929 . S
C746 C743 1.404 . S
C746 N744 1.334 . S
C747 H739 0.930 . S
C747 C742 1.418 . S
C747 C743 1.353 . S
C748 H718 0.930 . S
C748 N749 1.330 . S
C748 C750 1.446 . S
N749 Co708 2.151 1_556 S
N749 C748 1.330 . S
N749 C753 1.418 . S
C750 H729 0.929 . S
C750 C748 1.446 . S
C750 C751 1.332 . S
C751 H731 0.931 . S
C751 C750 1.332 . S
C751 C752 1.267 . S
C752 H720 0.929 . S
C752 C751 1.267 . S
C752 C753 1.251 . S
C753 H723 0.929 1_556 S
C753 N749 1.418 . S
C753 C752 1.251 . S
C754 H721 0.930 1_554 S
C754 C756 1.406 . S
C754 C759 1.261 . S
C755 H722 0.930 . S
C755 N757 1.325 . S
C755 C758 1.357 . S
C756 H724 0.928 1_554 S
C756 C754 1.406 . S
C756 N757 1.261 . S
N757 Co708 2.214 . S
N757 C755 1.325 . S
N757 C756 1.261 . S
C758 H728 0.931 . S
C758 C755 1.357 . S
C758 C759 1.312 . S
C759 H730 0.930 1_545 S
C759 C754 1.261 . S
C759 C758 1.312 . S
C760 O732 1.214 . S
C760 O740 1.234 . S
C761 H733 0.929 1_554 S
C761 C764 1.391 . S
C761 C766 1.391 . S
C762 H734 0.929 . S
C762 C763 1.390 . S
C762 N765 1.391 . S
C763 H735 0.930 . S
C763 C762 1.390 . S
C763 C764 1.392 . S
C764 H736 0.929 . S
C764 C761 1.391 . S
C764 C763 1.392 . S
N765 Co709 2.257 . S
N765 C762 1.391 . S
N765 C766 1.388 . S
C766 H737 0.930 . S
C766 C761 1.391 . S
C766 N765 1.388 . S
Co767 O769 2.131 1_545 S
Co767 O775 2.074 . S
Co767 O778 2.093 1_545 S
Co767 O791 2.097 1_545 S
Co767 N808 2.151 . S
Co767 N816 2.214 . S
Co768 O769 2.166 . S
Co768 O774 2.058 1_565 S
Co768 O784 2.057 1_565 S
Co768 O799 2.037 . S
Co768 N803 2.145 . S
Co768 N824 2.257 . S
O769 Co767 2.131 1_565 S
O769 Co768 2.166 . S
C770 O771 1.278 . S
C770 O778 1.224 . S
O771 C770 1.278 . S
C772 O773 1.245 . S
C772 O784 1.232 . S
O773 C772 1.245 . S
O774 Co768 2.058 1_545 S
O774 C800 1.269 . S
O775 Co767 2.074 . S
O775 C800 1.257 . S
H776 C801 0.930 . S
H777 C807 0.930 . S
O778 Co767 2.093 1_565 S
O778 C770 1.224 . S
H779 C811 0.929 . S
H780 C813 0.930 . S
H781 C814 0.930 . S
H782 C812 0.929 . S
H783 C815 0.928 . S
O784 Co768 2.057 1_545 S
O784 C772 1.232 . S
H785 C804 0.929 . S
H786 C805 0.929 . S
H787 C817 0.931 . S
H788 C809 0.929 . S
H789 C818 0.930 . S
H790 C810 0.931 . S
O791 Co767 2.097 1_565 S
O791 C819 1.214 . S
H792 C820 0.929 . S
H793 C821 0.929 . S
H794 C822 0.930 . S
H795 C823 0.929 . S
H796 C825 0.930 . S
H797 C802 0.930 . S
H798 C806 0.930 . S
O799 Co768 2.037 . S
O799 C819 1.234 . S
C800 O774 1.269 . S
C800 O775 1.257 . S
C801 H776 0.930 . S
C801 C804 1.388 . S
C801 C806 1.418 . S
C802 H797 0.930 . S
C802 C805 1.404 . S
C802 C806 1.353 . S
N803 Co768 2.145 . S
N803 C804 1.397 . S
N803 C805 1.334 . S
C804 H785 0.929 . S
C804 C801 1.388 . S
C804 N803 1.397 . S
C805 H786 0.929 . S
C805 C802 1.404 . S
C805 N803 1.334 . S
C806 H798 0.930 . S
C806 C801 1.418 . S
C806 C802 1.353 . S
C807 H777 0.930 . S
C807 N808 1.330 . S
C807 C809 1.446 . S
N808 Co767 2.151 . S
N808 C807 1.330 . S
N808 C812 1.418 . S
C809 H788 0.929 . S
C809 C807 1.446 . S
C809 C810 1.332 . S
C810 H790 0.931 . S
C810 C809 1.332 . S
C810 C811 1.267 . S
C811 H779 0.929 . S
C811 C810 1.267 . S
C811 C812 1.251 . S
C812 H782 0.929 . S
C812 N808 1.418 . S
C812 C811 1.251 . S
C813 H780 0.930 . S
C813 C815 1.406 . S
C813 C818 1.261 . S
C814 H781 0.930 . S
C814 N816 1.325 . S
C814 C817 1.357 . S
C815 H783 0.928 . S
C815 C813 1.406 . S
C815 N816 1.261 . S
N816 Co767 2.214 . S
N816 C814 1.325 . S
N816 C815 1.261 . S
C817 H787 0.931 . S
C817 C814 1.357 . S
C817 C818 1.312 . S
C818 H789 0.930 . S
C818 C813 1.261 . S
C818 C817 1.312 . S
C819 O791 1.214 . S
C819 O799 1.234 . S
C820 H792 0.929 . S
C820 C823 1.391 . S
C820 C825 1.391 . S
C821 H793 0.929 . S
C821 C822 1.390 . S
C821 N824 1.391 . S
C822 H794 0.930 . S
C822 C821 1.390 . S
C822 C823 1.392 . S
C823 H795 0.929 . S
C823 C820 1.391 . S
C823 C822 1.392 . S
N824 Co768 2.257 . S
N824 C821 1.391 . S
N824 C825 1.388 . S
C825 H796 0.930 . S
C825 C820 1.391 . S
C825 N824 1.388 . S
Co826 O828 2.143 . S
Co826 O834 2.068 1_556 S
Co826 O837 2.098 . S
Co826 O850 2.093 1_556 S
Co826 N867 2.155 . S
Co826 N875 2.213 1_556 S
Co827 O828 2.160 1_554 S
Co827 O833 2.058 . S
Co827 O843 2.057 . S
Co827 O858 2.037 . S
Co827 N862 2.145 . S
Co827 N883 2.257 . S
O828 Co826 2.143 . S
O828 Co827 2.160 1_556 S
C829 O830 1.278 . S
C829 O837 1.224 . S
O830 C829 1.278 . S
C831 O832 1.245 . S
C831 O843 1.232 1_556 S
O832 C831 1.245 . S
O833 Co827 2.058 . S
O833 C859 1.269 . S
O834 Co826 2.068 1_554 S
O834 C859 1.257 . S
H835 C860 0.930 . S
H836 C866 0.930 . S
O837 Co826 2.098 . S
O837 C829 1.224 . S
H838 C870 0.929 . S
H839 C872 0.930 . S
H840 C873 0.930 . S
H841 C871 0.929 . S
H842 C874 0.928 . S
O843 Co827 2.057 . S
O843 C831 1.232 1_554 S
H844 C863 0.929 . S
H845 C864 0.929 . S
H846 C876 0.931 . S
H847 C868 0.929 . S
H848 C877 0.930 . S
H849 C869 0.931 . S
O850 Co826 2.093 1_554 S
O850 C878 1.214 . S
H851 C879 0.929 . S
H852 C880 0.929 . S
H853 C881 0.930 . S
H854 C882 0.929 1_556 S
H855 C884 0.930 . S
H856 C861 0.930 . S
H857 C865 0.930 . S
O858 Co827 2.037 . S
O858 C878 1.234 . S
C859 O833 1.269 . S
C859 O834 1.257 . S
C860 H835 0.930 . S
C860 C863 1.388 . S
C860 C865 1.418 . S
C861 H856 0.930 . S
C861 C864 1.404 . S
C861 C865 1.353 . S
N862 Co827 2.145 . S
N862 C863 1.397 . S
N862 C864 1.334 . S
C863 H844 0.929 . S
C863 C860 1.388 . S
C863 N862 1.397 . S
C864 H845 0.929 . S
C864 C861 1.404 . S
C864 N862 1.334 . S
C865 H857 0.930 . S
C865 C860 1.418 . S
C865 C861 1.353 . S
C866 H836 0.930 . S
C866 N867 1.330 . S
C866 C868 1.446 . S
N867 Co826 2.155 . S
N867 C866 1.330 . S
N867 C871 1.418 . S
C868 H847 0.929 . S
C868 C866 1.446 . S
C868 C869 1.332 . S
C869 H849 0.931 . S
C869 C868 1.332 . S
C869 C870 1.267 . S
C870 H838 0.929 . S
C870 C869 1.267 . S
C870 C871 1.251 . S
C871 H841 0.929 . S
C871 N867 1.418 . S
C871 C870 1.251 . S
C872 H839 0.930 . S
C872 C874 1.406 . S
C872 C877 1.261 1_556 S
C873 H840 0.930 . S
C873 N875 1.325 . S
C873 C876 1.357 . S
C874 H842 0.928 . S
C874 C872 1.406 . S
C874 N875 1.261 1_556 S
N875 Co826 2.213 1_554 S
N875 C873 1.325 . S
N875 C874 1.261 1_554 S
C876 H846 0.931 . S
C876 C873 1.357 . S
C876 C877 1.312 . S
C877 H848 0.930 . S
C877 C872 1.261 1_554 S
C877 C876 1.312 . S
C878 O850 1.214 . S
C878 O858 1.234 . S
C879 H851 0.929 . S
C879 C882 1.391 1_556 S
C879 C884 1.391 . S
C880 H852 0.929 . S
C880 C881 1.390 . S
C880 N883 1.391 . S
C881 H853 0.930 . S
C881 C880 1.390 . S
C881 C882 1.392 . S
C882 H854 0.929 1_554 S
C882 C879 1.391 1_554 S
C882 C881 1.392 . S
N883 Co827 2.257 . S
N883 C880 1.391 . S
N883 C884 1.388 1_554 S
C884 H855 0.930 . S
C884 C879 1.391 . S
C884 N883 1.388 1_556 S
Co885 O887 2.143 . S
Co885 O893 2.074 . S
Co885 O896 2.093 . S
Co885 O909 2.097 . S
Co885 N926 2.151 . S
Co885 N934 2.214 . S
Co886 O887 2.160 . S
Co886 O892 2.058 . S
Co886 O902 2.057 . S
Co886 O917 2.037 . S
Co886 N921 2.145 . S
Co886 N942 2.257 . S
O887 Co885 2.143 . S
O887 Co886 2.160 . S
C888 O889 1.278 . S
C888 O896 1.224 . S
O889 C888 1.278 . S
C890 O891 1.245 . S
C890 O902 1.232 . S
O891 C890 1.245 . S
O892 Co886 2.058 . S
O892 C918 1.269 . S
O893 Co885 2.074 . S
O893 C918 1.257 . S
H894 C919 0.930 . S
H895 C925 0.930 . S
O896 Co885 2.093 . S
O896 C888 1.224 . S
H897 C929 0.929 . S
H898 C931 0.930 . S
H899 C932 0.930 . S
H900 C930 0.929 . S
H901 C933 0.928 . S
O902 Co886 2.057 . S
O902 C890 1.232 . S
H903 C922 0.929 . S
H904 C923 0.929 . S
H905 C935 0.931 . S
H906 C927 0.929 . S
H907 C936 0.930 1_655 S
H908 C928 0.931 . S
O909 Co885 2.097 . S
O909 C937 1.214 . S
H910 C938 0.929 . S
H911 C939 0.929 . S
H912 C940 0.930 . S
H913 C941 0.929 . S
H914 C943 0.930 . S
H915 C920 0.930 . S
H916 C924 0.930 . S
O917 Co886 2.037 . S
O917 C937 1.234 . S
C918 O892 1.269 . S
C918 O893 1.257 . S
C919 H894 0.930 . S
C919 C922 1.388 . S
C919 C924 1.418 . S
C920 H915 0.930 . S
C920 C923 1.404 . S
C920 C924 1.353 . S
N921 Co886 2.145 . S
N921 C922 1.397 . S
N921 C923 1.334 . S
C922 H903 0.929 . S
C922 C919 1.388 . S
C922 N921 1.397 . S
C923 H904 0.929 . S
C923 C920 1.404 . S
C923 N921 1.334 . S
C924 H916 0.930 . S
C924 C919 1.418 . S
C924 C920 1.353 . S
C925 H895 0.930 . S
C925 N926 1.330 . S
C925 C927 1.446 . S
N926 Co885 2.151 . S
N926 C925 1.330 . S
N926 C930 1.418 . S
C927 H906 0.929 . S
C927 C925 1.446 . S
C927 C928 1.332 . S
C928 H908 0.931 . S
C928 C927 1.332 . S
C928 C929 1.267 . S
C929 H897 0.929 . S
C929 C928 1.267 . S
C929 C930 1.251 . S
C930 H900 0.929 . S
C930 N926 1.418 . S
C930 C929 1.251 . S
C931 H898 0.930 . S
C931 C933 1.406 . S
C931 C936 1.261 . S
C932 H899 0.930 . S
C932 N934 1.325 . S
C932 C935 1.357 . S
C933 H901 0.928 . S
C933 C931 1.406 . S
C933 N934 1.261 . S
N934 Co885 2.214 . S
N934 C932 1.325 . S
N934 C933 1.261 . S
C935 H905 0.931 . S
C935 C932 1.357 . S
C935 C936 1.312 . S
C936 H907 0.930 1_455 S
C936 C931 1.261 . S
C936 C935 1.312 . S
C937 O909 1.214 . S
C937 O917 1.234 . S
C938 H910 0.929 . S
C938 C941 1.391 . S
C938 C943 1.391 . S
C939 H911 0.929 . S
C939 C940 1.390 . S
C939 N942 1.391 . S
C940 H912 0.930 . S
C940 C939 1.390 . S
C940 C941 1.392 . S
C941 H913 0.929 . S
C941 C938 1.391 . S
C941 C940 1.392 . S
N942 Co886 2.257 . S
N942 C939 1.391 . S
N942 C943 1.388 . S
C943 H914 0.930 . S
C943 C938 1.391 . S
C943 N942 1.388 . S
H944 C950 0.930 . S
H945 C954 0.930 . S
H946 C959 0.929 . S
H947 C957 0.929 . S
H948 C952 0.929 . S
H949 C958 0.929 . S
C950 H944 0.930 . S
C950 C951 1.367 1_554 S
C950 C958 1.378 . S
C951 C950 1.367 1_556 S
C951 C959 1.433 1_655 S
C952 H948 0.929 . S
C952 C954 1.378 . S
C952 C956 1.350 1_455 S
C953 C956 1.463 . S
C953 C958 1.350 1_556 S
C953 N961 1.427 1_655 S
C954 H945 0.930 . S
C954 C952 1.378 . S
C954 C955 1.367 1_455 S
C955 C954 1.367 1_655 S
C955 C957 1.433 1_556 S
C956 C952 1.350 1_655 S
C956 C953 1.463 . S
C956 N960 1.427 1_556 S
C957 H947 0.929 . S
C957 C955 1.433 1_554 S
C957 N960 1.384 . S
C958 H949 0.929 . S
C958 C950 1.378 . S
C958 C953 1.350 1_554 S
C959 H946 0.929 . S
C959 C951 1.433 1_455 S
C959 N961 1.384 . S
N960 C956 1.427 1_554 S
N960 C957 1.384 . S
N961 C953 1.427 1_455 S
N961 C959 1.384 . S
H962 C968 0.964 . S
H963 C972 0.930 . S
H964 C977 0.929 . S
H965 C975 0.910 1_545 S
H966 C970 0.929 . S
H967 C976 0.944 . S
C968 H962 0.964 . S
C968 C969 1.335 1_545 S
C968 C976 1.378 . S
C969 C968 1.335 1_565 S
C969 C977 1.433 . S
C970 H966 0.929 . S
C970 C972 1.378 . S
C970 C974 1.350 . S
C971 C974 1.463 . S
C971 C976 1.334 1_565 S
C971 N979 1.427 . S
C972 H963 0.930 . S
C972 C970 1.378 . S
C972 C973 1.367 . S
C973 C972 1.367 . S
C973 C975 1.454 . S
C974 C970 1.350 . S
C974 C971 1.463 . S
C974 N978 1.438 . S
C975 H965 0.910 1_565 S
C975 C973 1.454 . S
C975 N978 1.384 . S
C976 H967 0.944 . S
C976 C968 1.378 . S
C976 C971 1.334 1_545 S
C977 H964 0.929 . S
C977 C969 1.433 . S
C977 N979 1.384 . S
N978 C974 1.438 . S
N978 C975 1.384 . S
N979 C971 1.427 . S
N979 C977 1.384 . S
H980 C986 0.930 . S
H981 C990 0.930 . S
H982 C995 0.929 . S
H983 C993 0.929 . S
H984 C988 0.929 . S
H985 C994 0.929 . S
C986 H980 0.930 . S
C986 C987 1.367 1_556 S
C986 C994 1.378 . S
C987 C986 1.367 1_554 S
C987 C995 1.433 . S
C988 H984 0.929 . S
C988 C990 1.378 . S
C988 C992 1.350 . S
C989 C992 1.463 . S
C989 C994 1.350 1_554 S
C989 N997 1.427 . S
C990 H981 0.930 . S
C990 C988 1.378 . S
C990 C991 1.367 . S
C991 C990 1.367 . S
C991 C993 1.433 1_554 S
C992 C988 1.350 . S
C992 C989 1.463 . S
C992 N996 1.427 1_554 S
C993 H983 0.929 . S
C993 C991 1.433 1_556 S
C993 N996 1.384 . S
C994 H985 0.929 . S
C994 C986 1.378 . S
C994 C989 1.350 1_556 S
C995 H982 0.929 . S
C995 C987 1.433 . S
C995 N997 1.384 . S
N996 C992 1.427 1_556 S
N996 C993 1.384 . S
N997 C989 1.427 . S
N997 C995 1.384 . S
H998 C1004 0.930 . S
H999 C1008 0.930 . S
H1000 C1013 0.929 . S
H1001 C1011 0.929 . S
H1002 C1006 0.929 . S
H1003 C1012 0.929 . S
C1004 H998 0.930 . S
C1004 C1005 1.367 . S
C1004 C1012 1.378 . S
C1005 C1004 1.367 . S
C1005 C1013 1.433 . S
C1006 H1002 0.929 . S
C1006 C1008 1.378 . S
C1006 C1010 1.350 . S
C1007 C1010 1.463 . S
C1007 C1012 1.350 . S
C1007 N1015 1.427 . S
C1008 H999 0.930 . S
C1008 C1006 1.378 . S
C1008 C1009 1.367 . S
C1009 C1008 1.367 . S
C1009 C1011 1.433 . S
C1010 C1006 1.350 . S
C1010 C1007 1.463 . S
C1010 N1014 1.427 . S
C1011 H1001 0.929 . S
C1011 C1009 1.433 . S
C1011 N1014 1.384 . S
C1012 H1003 0.929 . S
C1012 C1004 1.378 . S
C1012 C1007 1.350 . S
C1013 H1000 0.929 . S
C1013 C1005 1.433 . S
C1013 N1015 1.384 . S
N1014 C1010 1.427 . S
N1014 C1011 1.384 . S
N1015 C1007 1.427 . S
N1015 C1013 1.384 . S
H1016 C1022 0.930 . S
H1017 C1026 0.930 . S
H1018 C1031 0.929 . S
H1019 C1029 0.920 1_655 S
H1020 C1024 0.929 . S
H1021 C1030 0.955 . S
C1022 H1016 0.930 . S
C1022 C1023 1.367 1_655 S
C1022 C1030 1.379 . S
C1023 C1022 1.367 1_455 S
C1023 C1031 1.433 1_554 S
C1024 H1020 0.929 . S
C1024 C1026 1.378 . S
C1024 C1028 1.350 1_556 S
C1025 C1028 1.463 . S
C1025 C1030 1.323 1_455 S
C1025 N1033 1.427 1_554 S
C1026 H1017 0.930 . S
C1026 C1024 1.378 . S
C1026 C1027 1.367 1_556 S
C1027 C1026 1.367 1_554 S
C1027 C1029 1.443 . S
C1028 C1024 1.350 1_554 S
C1028 C1025 1.463 . S
C1028 N1032 1.427 . S
C1029 H1019 0.920 1_455 S
C1029 C1027 1.443 . S
C1029 N1032 1.384 . S
C1030 H1021 0.955 . S
C1030 C1022 1.379 . S
C1030 C1025 1.323 1_655 S
C1031 H1018 0.929 . S
C1031 C1023 1.433 1_556 S
C1031 N1033 1.384 . S
N1032 C1028 1.427 . S
N1032 C1029 1.384 . S
N1033 C1025 1.427 1_556 S
N1033 C1031 1.384 . S
H1034 C1040 0.930 . S
H1035 C1044 0.930 . S
H1036 C1049 0.929 . S
H1037 C1047 0.929 . S
H1038 C1042 0.929 . S
H1039 C1048 0.929 . S
C1040 H1034 0.930 . S
C1040 C1041 1.367 . S
C1040 C1048 1.378 . S
C1041 C1040 1.367 . S
C1041 C1049 1.433 1_545 S
C1042 H1038 0.929 . S
C1042 C1044 1.378 . S
C1042 C1046 1.350 1_565 S
C1043 C1046 1.463 . S
C1043 C1048 1.350 . S
C1043 N1051 1.427 1_545 S
C1044 H1035 0.930 . S
C1044 C1042 1.378 . S
C1044 C1045 1.367 1_565 S
C1045 C1044 1.367 1_545 S
C1045 C1047 1.433 . S
C1046 C1042 1.350 1_545 S
C1046 C1043 1.463 . S
C1046 N1050 1.427 . S
C1047 H1037 0.929 . S
C1047 C1045 1.433 . S
C1047 N1050 1.384 . S
C1048 H1039 0.929 . S
C1048 C1040 1.378 . S
C1048 C1043 1.350 . S
C1049 H1036 0.929 . S
C1049 C1041 1.433 1_565 S
C1049 N1051 1.384 . S
N1050 C1046 1.427 . S
N1050 C1047 1.384 . S
N1051 C1043 1.427 1_565 S
N1051 C1049 1.384 . S
H1052 C1058 0.930 . S
H1053 C1062 0.930 . S
H1054 C1067 0.929 . S
H1055 C1065 0.929 . S
H1056 C1060 0.929 . S
H1057 C1066 0.929 . S
C1058 H1052 0.930 . S
C1058 C1059 1.367 1_554 S
C1058 C1066 1.378 . S
C1059 C1058 1.367 1_556 S
C1059 C1067 1.433 . S
C1060 H1056 0.929 . S
C1060 C1062 1.378 . S
C1060 C1064 1.350 . S
C1061 C1064 1.463 . S
C1061 C1066 1.350 1_556 S
C1061 N1069 1.427 . S
C1062 H1053 0.930 . S
C1062 C1060 1.378 . S
C1062 C1063 1.367 . S
C1063 C1062 1.367 . S
C1063 C1065 1.433 1_556 S
C1064 C1060 1.350 . S
C1064 C1061 1.463 . S
C1064 N1068 1.427 1_556 S
C1065 H1055 0.929 . S
C1065 C1063 1.433 1_554 S
C1065 N1068 1.384 . S
C1066 H1057 0.929 . S
C1066 C1058 1.378 . S
C1066 C1061 1.350 1_554 S
C1067 H1054 0.929 . S
C1067 C1059 1.433 . S
C1067 N1069 1.384 . S
N1068 C1064 1.427 1_554 S
N1068 C1065 1.384 . S
N1069 C1061 1.427 . S
N1069 C1067 1.384 . S
H1070 C1076 0.930 . S
H1071 C1080 0.930 . S
H1072 C1085 0.929 . S
H1073 C1083 0.929 . S
H1074 C1078 0.929 . S
H1075 C1084 0.929 . S
C1076 H1070 0.930 . S
C1076 C1077 1.367 . S
C1076 C1084 1.378 . S
C1077 C1076 1.367 . S
C1077 C1085 1.433 . S
C1078 H1074 0.929 . S
C1078 C1080 1.378 . S
C1078 C1082 1.350 . S
C1079 C1082 1.463 . S
C1079 C1084 1.350 . S
C1079 N1087 1.427 . S
C1080 H1071 0.930 . S
C1080 C1078 1.378 . S
C1080 C1081 1.367 . S
C1081 C1080 1.367 . S
C1081 C1083 1.433 . S
C1082 C1078 1.350 . S
C1082 C1079 1.463 . S
C1082 N1086 1.427 . S
C1083 H1073 0.929 . S
C1083 C1081 1.433 . S
C1083 N1086 1.384 . S
C1084 H1075 0.929 . S
C1084 C1076 1.378 . S
C1084 C1079 1.350 . S
C1085 H1072 0.929 . S
C1085 C1077 1.433 . S
C1085 N1087 1.384 . S
N1086 C1082 1.427 . S
N1086 C1083 1.384 . S
N1087 C1079 1.427 . S
N1087 C1085 1.384 . S
H1088 C1094 0.930 . S
H1089 C1098 0.930 . S
H1090 C1103 0.929 . S
H1091 C1101 0.929 . S
H1092 C1096 0.929 . S
H1093 C1102 0.929 . S
C1094 H1088 0.930 . S
C1094 C1095 1.367 . S
C1094 C1102 1.378 . S
C1095 C1094 1.367 . S
C1095 C1103 1.433 . S
C1096 H1092 0.929 . S
C1096 C1098 1.378 . S
C1096 C1100 1.350 . S
C1097 C1100 1.463 . S
C1097 C1102 1.350 . S
C1097 N1105 1.427 . S
C1098 H1089 0.930 . S
C1098 C1096 1.378 . S
C1098 C1099 1.367 . S
C1099 C1098 1.367 . S
C1099 C1101 1.433 . S
C1100 C1096 1.350 . S
C1100 C1097 1.463 . S
C1100 N1104 1.427 . S
C1101 H1091 0.929 . S
C1101 C1099 1.433 . S
C1101 N1104 1.384 . S
C1102 H1093 0.929 . S
C1102 C1094 1.378 . S
C1102 C1097 1.350 . S
C1103 H1090 0.929 . S
C1103 C1095 1.433 . S
C1103 N1105 1.384 . S
N1104 C1100 1.427 . S
N1104 C1101 1.384 . S
N1105 C1097 1.427 . S
N1105 C1103 1.384 . S
H1106 C1112 0.930 . S
H1107 C1116 0.930 . S
H1108 C1121 0.929 . S
H1109 C1119 0.929 . S
H1110 C1114 0.929 . S
H1111 C1120 0.929 . S
C1112 H1106 0.930 . S
C1112 C1113 1.367 . S
C1112 C1120 1.378 . S
C1113 C1112 1.367 . S
C1113 C1121 1.433 . S
C1114 H1110 0.929 . S
C1114 C1116 1.378 . S
C1114 C1118 1.350 . S
C1115 C1118 1.463 . S
C1115 C1120 1.350 . S
C1115 N1123 1.427 . S
C1116 H1107 0.930 . S
C1116 C1114 1.378 . S
C1116 C1117 1.367 . S
C1117 C1116 1.367 . S
C1117 C1119 1.433 . S
C1118 C1114 1.350 . S
C1118 C1115 1.463 . S
C1118 N1122 1.427 . S
C1119 H1109 0.929 . S
C1119 C1117 1.433 . S
C1119 N1122 1.384 . S
C1120 H1111 0.929 . S
C1120 C1112 1.378 . S
C1120 C1115 1.350 . S
C1121 H1108 0.929 . S
C1121 C1113 1.433 . S
C1121 N1123 1.384 . S
N1122 C1118 1.427 . S
N1122 C1119 1.384 . S
N1123 C1115 1.427 . S
N1123 C1121 1.384 . S
H1124 C1130 0.930 . S
H1125 C1134 0.930 . S
H1126 C1139 0.929 . S
H1127 C1137 0.929 . S
H1128 C1132 0.929 . S
H1129 C1138 0.929 . S
C1130 H1124 0.930 . S
C1130 C1131 1.367 . S
C1130 C1138 1.378 . S
C1131 C1130 1.367 . S
C1131 C1139 1.433 . S
C1132 H1128 0.929 . S
C1132 C1134 1.378 . S
C1132 C1136 1.350 . S
C1133 C1136 1.463 . S
C1133 C1138 1.350 . S
C1133 N1141 1.427 . S
C1134 H1125 0.930 . S
C1134 C1132 1.378 . S
C1134 C1135 1.367 . S
C1135 C1134 1.367 . S
C1135 C1137 1.433 . S
C1136 C1132 1.350 . S
C1136 C1133 1.463 . S
C1136 N1140 1.427 . S
C1137 H1127 0.929 . S
C1137 C1135 1.433 . S
C1137 N1140 1.384 . S
C1138 H1129 0.929 . S
C1138 C1130 1.378 . S
C1138 C1133 1.350 . S
C1139 H1126 0.929 . S
C1139 C1131 1.433 . S
C1139 N1141 1.384 . S
N1140 C1136 1.427 . S
N1140 C1137 1.384 . S
N1141 C1133 1.427 . S
N1141 C1139 1.384 . S
H1142 C1148 0.930 . S
H1143 C1152 0.930 . S
H1144 C1157 0.929 . S
H1145 C1155 0.929 . S
H1146 C1150 0.929 . S
H1147 C1156 0.929 . S
C1148 H1142 0.930 . S
C1148 C1149 1.367 . S
C1148 C1156 1.378 . S
C1149 C1148 1.367 . S
C1149 C1157 1.433 . S
C1150 H1146 0.929 . S
C1150 C1152 1.378 . S
C1150 C1154 1.350 . S
C1151 C1154 1.463 . S
C1151 C1156 1.350 . S
C1151 N1159 1.427 . S
C1152 H1143 0.930 . S
C1152 C1150 1.378 . S
C1152 C1153 1.367 . S
C1153 C1152 1.367 . S
C1153 C1155 1.433 . S
C1154 C1150 1.350 . S
C1154 C1151 1.463 . S
C1154 N1158 1.427 . S
C1155 H1145 0.929 . S
C1155 C1153 1.433 . S
C1155 N1158 1.384 . S
C1156 H1147 0.929 . S
C1156 C1148 1.378 . S
C1156 C1151 1.350 . S
C1157 H1144 0.929 . S
C1157 C1149 1.433 . S
C1157 N1159 1.384 . S
N1158 C1154 1.427 . S
N1158 C1155 1.384 . S
N1159 C1151 1.427 . S
N1159 C1157 1.384 . S
H1160 C1166 0.930 . S
H1161 C1170 0.930 . S
H1162 C1175 0.929 . S
H1163 C1173 0.929 . S
H1164 C1168 0.929 . S
H1165 C1174 0.929 . S
C1166 H1160 0.930 . S
C1166 C1167 1.367 . S
C1166 C1174 1.378 . S
C1167 C1166 1.367 . S
C1167 C1175 1.433 . S
C1168 H1164 0.929 . S
C1168 C1170 1.378 . S
C1168 C1172 1.350 . S
C1169 C1172 1.463 . S
C1169 C1174 1.350 . S
C1169 N1177 1.427 . S
C1170 H1161 0.930 . S
C1170 C1168 1.378 . S
C1170 C1171 1.367 . S
C1171 C1170 1.367 . S
C1171 C1173 1.433 . S
C1172 C1168 1.350 . S
C1172 C1169 1.463 . S
C1172 N1176 1.427 . S
C1173 H1163 0.929 . S
C1173 C1171 1.433 . S
C1173 N1176 1.384 . S
C1174 H1165 0.929 . S
C1174 C1166 1.378 . S
C1174 C1169 1.350 . S
C1175 H1162 0.929 . S
C1175 C1167 1.433 . S
C1175 N1177 1.384 . S
N1176 C1172 1.427 . S
N1176 C1173 1.384 . S
N1177 C1169 1.427 . S
N1177 C1175 1.384 . S
H1178 C1184 0.930 . S
H1179 C1188 0.930 . S
H1180 C1193 0.929 . S
H1181 C1191 0.929 . S
H1182 C1186 0.929 . S
H1183 C1192 0.929 . S
C1184 H1178 0.930 . S
C1184 C1185 1.367 . S
C1184 C1192 1.378 . S
C1185 C1184 1.367 . S
C1185 C1193 1.433 . S
C1186 H1182 0.929 . S
C1186 C1188 1.378 . S
C1186 C1190 1.350 . S
C1187 C1190 1.463 . S
C1187 C1192 1.350 . S
C1187 N1195 1.427 . S
C1188 H1179 0.930 . S
C1188 C1186 1.378 . S
C1188 C1189 1.367 . S
C1189 C1188 1.367 . S
C1189 C1191 1.433 . S
C1190 C1186 1.350 . S
C1190 C1187 1.463 . S
C1190 N1194 1.427 . S
C1191 H1181 0.929 . S
C1191 C1189 1.433 . S
C1191 N1194 1.384 . S
C1192 H1183 0.929 . S
C1192 C1184 1.378 . S
C1192 C1187 1.350 . S
C1193 H1180 0.929 . S
C1193 C1185 1.433 . S
C1193 N1195 1.384 . S
N1194 C1190 1.427 . S
N1194 C1191 1.384 . S
N1195 C1187 1.427 . S
N1195 C1193 1.384 . S
H1196 C1202 0.930 . S
H1197 C1206 0.930 . S
H1198 C1211 0.929 . S
H1199 C1209 0.929 . S
H1200 C1204 0.929 . S
H1201 C1210 0.929 . S
C1202 H1196 0.930 . S
C1202 C1203 1.367 . S
C1202 C1210 1.378 . S
C1203 C1202 1.367 . S
C1203 C1211 1.433 . S
C1204 H1200 0.929 . S
C1204 C1206 1.378 . S
C1204 C1208 1.350 . S
C1205 C1208 1.463 . S
C1205 C1210 1.350 . S
C1205 N1213 1.427 . S
C1206 H1197 0.930 . S
C1206 C1204 1.378 . S
C1206 C1207 1.367 . S
C1207 C1206 1.367 . S
C1207 C1209 1.433 . S
C1208 C1204 1.350 . S
C1208 C1205 1.463 . S
C1208 N1212 1.427 . S
C1209 H1199 0.929 . S
C1209 C1207 1.433 . S
C1209 N1212 1.384 . S
C1210 H1201 0.929 . S
C1210 C1202 1.378 . S
C1210 C1205 1.350 . S
C1211 H1198 0.929 . S
C1211 C1203 1.433 . S
C1211 N1213 1.384 . S
N1212 C1208 1.427 . S
N1212 C1209 1.384 . S
N1213 C1205 1.427 . S
N1213 C1211 1.384 . S
H1214 C1220 0.930 . S
H1215 C1224 0.930 . S
H1216 C1229 0.929 . S
H1217 C1227 0.929 . S
H1218 C1222 0.929 . S
H1219 C1228 0.929 . S
C1220 H1214 0.930 . S
C1220 C1221 1.367 . S
C1220 C1228 1.378 . S
C1221 C1220 1.367 . S
C1221 C1229 1.433 . S
C1222 H1218 0.929 . S
C1222 C1224 1.378 . S
C1222 C1226 1.350 . S
C1223 C1226 1.463 . S
C1223 C1228 1.350 . S
C1223 N1231 1.427 . S
C1224 H1215 0.930 . S
C1224 C1222 1.378 . S
C1224 C1225 1.367 . S
C1225 C1224 1.367 . S
C1225 C1227 1.433 . S
C1226 C1222 1.350 . S
C1226 C1223 1.463 . S
C1226 N1230 1.427 . S
C1227 H1217 0.929 . S
C1227 C1225 1.433 . S
C1227 N1230 1.384 . S
C1228 H1219 0.929 . S
C1228 C1220 1.378 . S
C1228 C1223 1.350 . S
C1229 H1216 0.929 . S
C1229 C1221 1.433 . S
C1229 N1231 1.384 . S
N1230 C1226 1.427 . S
N1230 C1227 1.384 . S
N1231 C1223 1.427 . S
N1231 C1229 1.384 . S
H1232 C1238 0.930 . S
H1233 C1242 0.930 . S
H1234 C1247 0.929 . S
H1235 C1245 0.929 . S
H1236 C1240 0.929 . S
H1237 C1246 0.929 . S
C1238 H1232 0.930 . S
C1238 C1239 1.367 . S
C1238 C1246 1.378 . S
C1239 C1238 1.367 . S
C1239 C1247 1.433 . S
C1240 H1236 0.929 . S
C1240 C1242 1.378 . S
C1240 C1244 1.350 . S
C1241 C1244 1.463 . S
C1241 C1246 1.350 . S
C1241 N1249 1.427 . S
C1242 H1233 0.930 . S
C1242 C1240 1.378 . S
C1242 C1243 1.367 . S
C1243 C1242 1.367 . S
C1243 C1245 1.433 . S
C1244 C1240 1.350 . S
C1244 C1241 1.463 . S
C1244 N1248 1.427 . S
C1245 H1235 0.929 . S
C1245 C1243 1.433 . S
C1245 N1248 1.384 . S
C1246 H1237 0.929 . S
C1246 C1238 1.378 . S
C1246 C1241 1.350 . S
C1247 H1234 0.929 . S
C1247 C1239 1.433 . S
C1247 N1249 1.384 . S
N1248 C1244 1.427 . S
N1248 C1245 1.384 . S
N1249 C1241 1.427 . S
N1249 C1247 1.384 . S
H1250 C1256 0.930 . S
H1251 C1260 0.930 . S
H1252 C1265 0.929 . S
H1253 C1263 0.929 . S
H1254 C1258 0.929 . S
H1255 C1264 0.929 . S
C1256 H1250 0.930 . S
C1256 C1257 1.367 . S
C1256 C1264 1.378 . S
C1257 C1256 1.367 . S
C1257 C1265 1.433 . S
C1258 H1254 0.929 . S
C1258 C1260 1.378 . S
C1258 C1262 1.350 . S
C1259 C1262 1.463 . S
C1259 C1264 1.350 . S
C1259 N1267 1.427 . S
C1260 H1251 0.930 . S
C1260 C1258 1.378 . S
C1260 C1261 1.367 . S
C1261 C1260 1.367 . S
C1261 C1263 1.433 . S
C1262 C1258 1.350 . S
C1262 C1259 1.463 . S
C1262 N1266 1.427 . S
C1263 H1253 0.929 . S
C1263 C1261 1.433 . S
C1263 N1266 1.384 . S
C1264 H1255 0.929 . S
C1264 C1256 1.378 . S
C1264 C1259 1.350 . S
C1265 H1252 0.929 . S
C1265 C1257 1.433 . S
C1265 N1267 1.384 . S
N1266 C1262 1.427 . S
N1266 C1263 1.384 . S
N1267 C1259 1.427 . S
N1267 C1265 1.384 . S
H1268 C1274 0.930 . S
H1269 C1278 0.930 . S
H1270 C1283 0.929 . S
H1271 C1281 0.929 . S
H1272 C1276 0.929 . S
H1273 C1282 0.929 . S
C1274 H1268 0.930 . S
C1274 C1275 1.367 . S
C1274 C1282 1.378 . S
C1275 C1274 1.367 . S
C1275 C1283 1.433 . S
C1276 H1272 0.929 . S
C1276 C1278 1.378 . S
C1276 C1280 1.350 . S
C1277 C1280 1.463 . S
C1277 C1282 1.350 . S
C1277 N1285 1.427 . S
C1278 H1269 0.930 . S
C1278 C1276 1.378 . S
C1278 C1279 1.367 . S
C1279 C1278 1.367 . S
C1279 C1281 1.433 . S
C1280 C1276 1.350 . S
C1280 C1277 1.463 . S
C1280 N1284 1.427 . S
C1281 H1271 0.929 . S
C1281 C1279 1.433 . S
C1281 N1284 1.384 . S
C1282 H1273 0.929 . S
C1282 C1274 1.378 . S
C1282 C1277 1.350 . S
C1283 H1270 0.929 . S
C1283 C1275 1.433 . S
C1283 N1285 1.384 . S
N1284 C1280 1.427 . S
N1284 C1281 1.384 . S
N1285 C1277 1.427 . S
N1285 C1283 1.384 . S
H1286 C1292 0.930 . S
H1287 C1296 0.930 . S
H1288 C1301 0.929 . S
H1289 C1299 0.929 . S
H1290 C1294 0.929 . S
H1291 C1300 0.929 . S
C1292 H1286 0.930 . S
C1292 C1293 1.367 . S
C1292 C1300 1.378 . S
C1293 C1292 1.367 . S
C1293 C1301 1.433 . S
C1294 H1290 0.929 . S
C1294 C1296 1.378 . S
C1294 C1298 1.350 . S
C1295 C1298 1.463 . S
C1295 C1300 1.350 . S
C1295 N1303 1.427 . S
C1296 H1287 0.930 . S
C1296 C1294 1.378 . S
C1296 C1297 1.367 . S
C1297 C1296 1.367 . S
C1297 C1299 1.433 . S
C1298 C1294 1.350 . S
C1298 C1295 1.463 . S
C1298 N1302 1.427 . S
C1299 H1289 0.929 . S
C1299 C1297 1.433 . S
C1299 N1302 1.384 . S
C1300 H1291 0.929 . S
C1300 C1292 1.378 . S
C1300 C1295 1.350 . S
C1301 H1288 0.929 . S
C1301 C1293 1.433 . S
C1301 N1303 1.384 . S
N1302 C1298 1.427 . S
N1302 C1299 1.384 . S
N1303 C1295 1.427 . S
N1303 C1301 1.384 . S
H1304 C1310 0.930 . S
H1305 C1314 0.930 . S
H1306 C1319 0.929 . S
H1307 C1317 0.929 . S
H1308 C1312 0.929 . S
H1309 C1318 0.929 . S
C1310 H1304 0.930 . S
C1310 C1311 1.367 . S
C1310 C1318 1.378 . S
C1311 C1310 1.367 . S
C1311 C1319 1.433 . S
C1312 H1308 0.929 . S
C1312 C1314 1.378 . S
C1312 C1316 1.350 . S
C1313 C1316 1.463 . S
C1313 C1318 1.350 . S
C1313 N1321 1.427 . S
C1314 H1305 0.930 . S
C1314 C1312 1.378 . S
C1314 C1315 1.367 . S
C1315 C1314 1.367 . S
C1315 C1317 1.433 . S
C1316 C1312 1.350 . S
C1316 C1313 1.463 . S
C1316 N1320 1.427 . S
C1317 H1307 0.929 . S
C1317 C1315 1.433 . S
C1317 N1320 1.384 . S
C1318 H1309 0.929 . S
C1318 C1310 1.378 . S
C1318 C1313 1.350 . S
C1319 H1306 0.929 . S
C1319 C1311 1.433 . S
C1319 N1321 1.384 . S
N1320 C1316 1.427 . S
N1320 C1317 1.384 . S
N1321 C1313 1.427 . S
N1321 C1319 1.384 . S
H1322 C1328 0.930 . S
H1323 C1332 0.930 . S
H1324 C1337 0.929 . S
H1325 C1335 0.929 . S
H1326 C1330 0.929 . S
H1327 C1336 0.929 . S
C1328 H1322 0.930 . S
C1328 C1329 1.367 . S
C1328 C1336 1.378 . S
C1329 C1328 1.367 . S
C1329 C1337 1.433 . S
C1330 H1326 0.929 . S
C1330 C1332 1.378 . S
C1330 C1334 1.350 . S
C1331 C1334 1.463 . S
C1331 C1336 1.350 . S
C1331 N1339 1.427 . S
C1332 H1323 0.930 . S
C1332 C1330 1.378 . S
C1332 C1333 1.367 . S
C1333 C1332 1.367 . S
C1333 C1335 1.433 . S
C1334 C1330 1.350 . S
C1334 C1331 1.463 . S
C1334 N1338 1.427 . S
C1335 H1325 0.929 . S
C1335 C1333 1.433 . S
C1335 N1338 1.384 . S
C1336 H1327 0.929 . S
C1336 C1328 1.378 . S
C1336 C1331 1.350 . S
C1337 H1324 0.929 . S
C1337 C1329 1.433 . S
C1337 N1339 1.384 . S
N1338 C1334 1.427 . S
N1338 C1335 1.384 . S
N1339 C1331 1.427 . S
N1339 C1337 1.384 . S
H1340 C1346 0.930 . S
H1341 C1350 0.930 . S
H1342 C1355 0.929 . S
H1343 C1353 0.929 . S
H1344 C1348 0.929 . S
H1345 C1354 0.929 . S
C1346 H1340 0.930 . S
C1346 C1347 1.367 . S
C1346 C1354 1.378 . S
C1347 C1346 1.367 . S
C1347 C1355 1.433 . S
C1348 H1344 0.929 . S
C1348 C1350 1.378 . S
C1348 C1352 1.350 . S
C1349 C1352 1.463 . S
C1349 C1354 1.350 . S
C1349 N1357 1.427 . S
C1350 H1341 0.930 . S
C1350 C1348 1.378 . S
C1350 C1351 1.367 . S
C1351 C1350 1.367 . S
C1351 C1353 1.433 . S
C1352 C1348 1.350 . S
C1352 C1349 1.463 . S
C1352 N1356 1.427 . S
C1353 H1343 0.929 . S
C1353 C1351 1.433 . S
C1353 N1356 1.384 . S
C1354 H1345 0.929 . S
C1354 C1346 1.378 . S
C1354 C1349 1.350 . S
C1355 H1342 0.929 . S
C1355 C1347 1.433 . S
C1355 N1357 1.384 . S
N1356 C1352 1.427 . S
N1356 C1353 1.384 . S
N1357 C1349 1.427 . S
N1357 C1355 1.384 . S
H1358 C1364 0.930 . S
H1359 C1368 0.930 . S
H1360 C1373 0.929 . S
H1361 C1371 0.929 . S
H1362 C1366 0.929 . S
H1363 C1372 0.929 . S
C1364 H1358 0.930 . S
C1364 C1365 1.367 . S
C1364 C1372 1.378 . S
C1365 C1364 1.367 . S
C1365 C1373 1.433 . S
C1366 H1362 0.929 . S
C1366 C1368 1.378 . S
C1366 C1370 1.350 . S
C1367 C1370 1.463 . S
C1367 C1372 1.350 . S
C1367 N1375 1.427 . S
C1368 H1359 0.930 . S
C1368 C1366 1.378 . S
C1368 C1369 1.367 . S
C1369 C1368 1.367 . S
C1369 C1371 1.433 . S
C1370 C1366 1.350 . S
C1370 C1367 1.463 . S
C1370 N1374 1.427 . S
C1371 H1361 0.929 . S
C1371 C1369 1.433 . S
C1371 N1374 1.384 . S
C1372 H1363 0.929 . S
C1372 C1364 1.378 . S
C1372 C1367 1.350 . S
C1373 H1360 0.929 . S
C1373 C1365 1.433 . S
C1373 N1375 1.384 . S
N1374 C1370 1.427 . S
N1374 C1371 1.384 . S
N1375 C1367 1.427 . S
N1375 C1373 1.384 . S
H1376 C1382 0.930 . S
H1377 C1386 0.930 . S
H1378 C1391 0.929 . S
H1379 C1389 0.929 . S
H1380 C1384 0.929 . S
H1381 C1390 0.929 . S
C1382 H1376 0.930 . S
C1382 C1383 1.367 . S
C1382 C1390 1.378 . S
C1383 C1382 1.367 . S
C1383 C1391 1.433 . S
C1384 H1380 0.929 . S
C1384 C1386 1.378 . S
C1384 C1388 1.350 . S
C1385 C1388 1.463 . S
C1385 C1390 1.350 . S
C1385 N1393 1.427 . S
C1386 H1377 0.930 . S
C1386 C1384 1.378 . S
C1386 C1387 1.367 . S
C1387 C1386 1.367 . S
C1387 C1389 1.433 . S
C1388 C1384 1.350 . S
C1388 C1385 1.463 . S
C1388 N1392 1.427 . S
C1389 H1379 0.929 . S
C1389 C1387 1.433 . S
C1389 N1392 1.384 . S
C1390 H1381 0.929 . S
C1390 C1382 1.378 . S
C1390 C1385 1.350 . S
C1391 H1378 0.929 . S
C1391 C1383 1.433 . S
C1391 N1393 1.384 . S
N1392 C1388 1.427 . S
N1392 C1389 1.384 . S
N1393 C1385 1.427 . S
N1393 C1391 1.384 . S
H1394 C1400 0.930 . S
H1395 C1404 0.930 . S
H1396 C1409 0.929 . S
H1397 C1407 0.929 . S
H1398 C1402 0.929 . S
H1399 C1408 0.929 . S
C1400 H1394 0.930 . S
C1400 C1401 1.367 . S
C1400 C1408 1.378 . S
C1401 C1400 1.367 . S
C1401 C1409 1.433 . S
C1402 H1398 0.929 . S
C1402 C1404 1.378 . S
C1402 C1406 1.350 . S
C1403 C1406 1.463 . S
C1403 C1408 1.350 . S
C1403 N1411 1.427 . S
C1404 H1395 0.930 . S
C1404 C1402 1.378 . S
C1404 C1405 1.367 . S
C1405 C1404 1.367 . S
C1405 C1407 1.433 . S
C1406 C1402 1.350 . S
C1406 C1403 1.463 . S
C1406 N1410 1.427 . S
C1407 H1397 0.929 . S
C1407 C1405 1.433 . S
C1407 N1410 1.384 . S
C1408 H1399 0.929 . S
C1408 C1400 1.378 . S
C1408 C1403 1.350 . S
C1409 H1396 0.929 . S
C1409 C1401 1.433 . S
C1409 N1411 1.384 . S
N1410 C1406 1.427 . S
N1410 C1407 1.384 . S
N1411 C1403 1.427 . S
N1411 C1409 1.384 . S
H1412 C1418 0.930 . S
H1413 C1422 0.930 . S
H1414 C1427 0.929 . S
H1415 C1425 0.929 . S
H1416 C1420 0.929 . S
H1417 C1426 0.929 . S
C1418 H1412 0.930 . S
C1418 C1419 1.367 . S
C1418 C1426 1.378 . S
C1419 C1418 1.367 . S
C1419 C1427 1.433 . S
C1420 H1416 0.929 . S
C1420 C1422 1.378 . S
C1420 C1424 1.350 . S
C1421 C1424 1.463 . S
C1421 C1426 1.350 . S
C1421 N1429 1.427 . S
C1422 H1413 0.930 . S
C1422 C1420 1.378 . S
C1422 C1423 1.367 . S
C1423 C1422 1.367 . S
C1423 C1425 1.433 . S
C1424 C1420 1.350 . S
C1424 C1421 1.463 . S
C1424 N1428 1.427 . S
C1425 H1415 0.929 . S
C1425 C1423 1.433 . S
C1425 N1428 1.384 . S
C1426 H1417 0.929 . S
C1426 C1418 1.378 . S
C1426 C1421 1.350 . S
C1427 H1414 0.929 . S
C1427 C1419 1.433 . S
C1427 N1429 1.384 . S
N1428 C1424 1.427 . S
N1428 C1425 1.384 . S
N1429 C1421 1.427 . S
N1429 C1427 1.384 . S
H1430 C1436 0.930 . S
H1431 C1440 0.930 . S
H1432 C1445 0.929 . S
H1433 C1443 0.929 . S
H1434 C1438 0.929 . S
H1435 C1444 0.929 . S
C1436 H1430 0.930 . S
C1436 C1437 1.367 . S
C1436 C1444 1.378 . S
C1437 C1436 1.367 . S
C1437 C1445 1.433 . S
C1438 H1434 0.929 . S
C1438 C1440 1.378 . S
C1438 C1442 1.350 . S
C1439 C1442 1.463 . S
C1439 C1444 1.350 . S
C1439 N1447 1.427 . S
C1440 H1431 0.930 . S
C1440 C1438 1.378 . S
C1440 C1441 1.367 . S
C1441 C1440 1.367 . S
C1441 C1443 1.433 . S
C1442 C1438 1.350 . S
C1442 C1439 1.463 . S
C1442 N1446 1.427 . S
C1443 H1433 0.929 . S
C1443 C1441 1.433 . S
C1443 N1446 1.384 . S
C1444 H1435 0.929 . S
C1444 C1436 1.378 . S
C1444 C1439 1.350 . S
C1445 H1432 0.929 . S
C1445 C1437 1.433 . S
C1445 N1447 1.384 . S
N1446 C1442 1.427 . S
N1446 C1443 1.384 . S
N1447 C1439 1.427 . S
N1447 C1445 1.384 . S
H1448 C1454 0.930 . S
H1449 C1458 0.930 . S
H1450 C1463 0.929 . S
H1451 C1461 0.929 . S
H1452 C1456 0.929 . S
H1453 C1462 0.929 . S
C1454 H1448 0.930 . S
C1454 C1455 1.367 . S
C1454 C1462 1.378 . S
C1455 C1454 1.367 . S
C1455 C1463 1.433 . S
C1456 H1452 0.929 . S
C1456 C1458 1.378 . S
C1456 C1460 1.350 . S
C1457 C1460 1.463 . S
C1457 C1462 1.350 . S
C1457 N1465 1.427 . S
C1458 H1449 0.930 . S
C1458 C1456 1.378 . S
C1458 C1459 1.367 . S
C1459 C1458 1.367 . S
C1459 C1461 1.433 . S
C1460 C1456 1.350 . S
C1460 C1457 1.463 . S
C1460 N1464 1.427 . S
C1461 H1451 0.929 . S
C1461 C1459 1.433 . S
C1461 N1464 1.384 . S
C1462 H1453 0.929 . S
C1462 C1454 1.378 . S
C1462 C1457 1.350 . S
C1463 H1450 0.929 . S
C1463 C1455 1.433 . S
C1463 N1465 1.384 . S
N1464 C1460 1.427 . S
N1464 C1461 1.384 . S
N1465 C1457 1.427 . S
N1465 C1463 1.384 . S
H1466 C1472 0.930 . S
H1467 C1476 0.930 . S
H1468 C1481 0.929 . S
H1469 C1479 0.929 . S
H1470 C1474 0.929 . S
H1471 C1480 0.929 . S
C1472 H1466 0.930 . S
C1472 C1473 1.367 . S
C1472 C1480 1.378 . S
C1473 C1472 1.367 . S
C1473 C1481 1.433 . S
C1474 H1470 0.929 . S
C1474 C1476 1.378 . S
C1474 C1478 1.350 . S
C1475 C1478 1.463 . S
C1475 C1480 1.350 . S
C1475 N1483 1.427 . S
C1476 H1467 0.930 . S
C1476 C1474 1.378 . S
C1476 C1477 1.367 . S
C1477 C1476 1.367 . S
C1477 C1479 1.433 . S
C1478 C1474 1.350 . S
C1478 C1475 1.463 . S
C1478 N1482 1.427 . S
C1479 H1469 0.929 . S
C1479 C1477 1.433 . S
C1479 N1482 1.384 . S
C1480 H1471 0.929 . S
C1480 C1472 1.378 . S
C1480 C1475 1.350 . S
C1481 H1468 0.929 . S
C1481 C1473 1.433 . S
C1481 N1483 1.384 . S
N1482 C1478 1.427 . S
N1482 C1479 1.384 . S
N1483 C1475 1.427 . S
N1483 C1481 1.384 . S
H1484 C1490 0.930 . S
H1485 C1494 0.930 . S
H1486 C1499 0.929 . S
H1487 C1497 0.929 . S
H1488 C1492 0.929 . S
H1489 C1498 0.929 . S
C1490 H1484 0.930 . S
C1490 C1491 1.367 . S
C1490 C1498 1.378 . S
C1491 C1490 1.367 . S
C1491 C1499 1.433 . S
C1492 H1488 0.929 . S
C1492 C1494 1.378 . S
C1492 C1496 1.350 . S
C1493 C1496 1.463 . S
C1493 C1498 1.350 . S
C1493 N1501 1.427 . S
C1494 H1485 0.930 . S
C1494 C1492 1.378 . S
C1494 C1495 1.367 . S
C1495 C1494 1.367 . S
C1495 C1497 1.433 . S
C1496 C1492 1.350 . S
C1496 C1493 1.463 . S
C1496 N1500 1.427 . S
C1497 H1487 0.929 . S
C1497 C1495 1.433 . S
C1497 N1500 1.384 . S
C1498 H1489 0.929 . S
C1498 C1490 1.378 . S
C1498 C1493 1.350 . S
C1499 H1486 0.929 . S
C1499 C1491 1.433 . S
C1499 N1501 1.384 . S
N1500 C1496 1.427 . S
N1500 C1497 1.384 . S
N1501 C1493 1.427 . S
N1501 C1499 1.384 . S
H1502 C1508 0.930 . S
H1503 C1512 0.930 . S
H1504 C1517 0.929 . S
H1505 C1515 0.929 . S
H1506 C1510 0.929 . S
H1507 C1516 0.929 . S
C1508 H1502 0.930 . S
C1508 C1509 1.367 . S
C1508 C1516 1.378 . S
C1509 C1508 1.367 . S
C1509 C1517 1.433 . S
C1510 H1506 0.929 . S
C1510 C1512 1.378 . S
C1510 C1514 1.350 . S
C1511 C1514 1.463 . S
C1511 C1516 1.350 . S
C1511 N1519 1.427 . S
C1512 H1503 0.930 . S
C1512 C1510 1.378 . S
C1512 C1513 1.367 . S
C1513 C1512 1.367 . S
C1513 C1515 1.433 . S
C1514 C1510 1.350 . S
C1514 C1511 1.463 . S
C1514 N1518 1.427 . S
C1515 H1505 0.929 . S
C1515 C1513 1.433 . S
C1515 N1518 1.384 . S
C1516 H1507 0.929 . S
C1516 C1508 1.378 . S
C1516 C1511 1.350 . S
C1517 H1504 0.929 . S
C1517 C1509 1.433 . S
C1517 N1519 1.384 . S
N1518 C1514 1.427 . S
N1518 C1515 1.384 . S
N1519 C1511 1.427 . S
N1519 C1517 1.384 . S
C951 C5 1.364 1_556 S
C955 C241 1.358 . S
C969 C300 1.360 . S
C973 C64 1.361 . S
C987 C123 1.558 . S
C991 C359 1.558 . S
C1005 C182 1.553 . S
C1009 C418 1.550 . S
C1023 C477 1.365 1_554 S
C1027 C713 1.366 . S
C1041 C772 1.367 . S
C1045 C536 1.361 . S
C1059 C595 1.554 . S
C1063 C831 1.560 . S
C1077 C654 1.554 . S
C1081 C890 1.549 . S
C1095 C3 1.518 . S
C1099 C937 1.543 . S
C1113 C760 1.514 . S
C1117 C62 1.482 . S
C1131 C121 1.595 . S
C1135 C819 1.621 . S
C1149 C878 1.675 . S
C1153 C180 1.633 . S
C1167 C583 1.514 . S
C1171 C239 1.480 . S
C1185 C642 1.544 . S
C1189 C298 1.515 . S
C1203 C701 1.675 . S
C1207 C357 1.633 . S
C1221 C524 1.625 . S
C1225 C416 1.584 . S
C1239 C475 1.519 . S
C1243 C465 1.542 . S
C1257 C288 1.516 . S
C1261 C534 1.484 . S
C1275 C347 1.626 . S
C1279 C593 1.583 . S
C1293 C652 1.631 . S
C1297 C406 1.676 . S
C1311 C111 1.515 . S
C1315 C711 1.487 . S
C1329 C770 1.517 . S
C1333 C170 1.543 . S
C1347 C829 1.631 . S
C1351 C229 1.676 . S
C1365 C888 1.589 . S
C1369 C52 1.622 . S
C1383 C446 1.002 . S
C1387 C33 1.026 . S
C1401 C92 1.076 . S
C1405 C269 1.099 . S
C1419 C151 0.999 . S
C1423 C328 1.037 . S
C1437 C210 0.963 . S
C1441 C387 0.961 . S
C1455 C918 1.014 . S
C1459 C505 1.020 . S
C1473 C741 1.083 . S
C1477 C564 1.088 . S
C1491 C800 1.029 . S
C1495 C623 1.000 . S
C1509 C859 0.941 . S
C1513 C682 0.956 . S
