# Generated by pormake.
# Topology sod-e, (6)-cn, num edge types: 1
# Building blocks:
#     Node 0, Type 0, BuildingBlock: OJICUG_clean_sbu_0, # of connection points: 6
#     Node 1, Type 0, BuildingBlock: OJICUG_clean_sbu_0, # of connection points: 6
#     Node 2, Type 0, BuildingBlock: OJICUG_clean_sbu_0, # of connection points: 6
#     Node 3, Type 0, BuildingBlock: OJICUG_clean_sbu_0, # of connection points: 6
#     Node 4, Type 0, BuildingBlock: OJICUG_clean_sbu_0, # of connection points: 6
#     Node 5, Type 0, BuildingBlock: OJICUG_clean_sbu_0, # of connection points: 6
#     Node 6, Type 0, BuildingBlock: OJICUG_clean_sbu_0, # of connection points: 6
#     Node 7, Type 0, BuildingBlock: OJICUG_clean_sbu_0, # of connection points: 6
#     Node 8, Type 0, BuildingBlock: OJICUG_clean_sbu_0, # of connection points: 6
#     Node 9, Type 0, BuildingBlock: OJICUG_clean_sbu_0, # of connection points: 6
#     Node 10, Type 0, BuildingBlock: OJICUG_clean_sbu_0, # of connection points: 6
#     Node 11, Type 0, BuildingBlock: OJICUG_clean_sbu_0, # of connection points: 6
#     Node 12, Type 0, BuildingBlock: OJICUG_clean_sbu_0, # of connection points: 6
#     Node 13, Type 0, BuildingBlock: OJICUG_clean_sbu_0, # of connection points: 6
#     Node 14, Type 0, BuildingBlock: OJICUG_clean_sbu_0, # of connection points: 6
#     Node 15, Type 0, BuildingBlock: OJICUG_clean_sbu_0, # of connection points: 6
#     Node 16, Type 0, BuildingBlock: OJICUG_clean_sbu_0, # of connection points: 6
#     Node 17, Type 0, BuildingBlock: OJICUG_clean_sbu_0, # of connection points: 6
#     Node 18, Type 0, BuildingBlock: OJICUG_clean_sbu_0, # of connection points: 6
#     Node 19, Type 0, BuildingBlock: OJICUG_clean_sbu_0, # of connection points: 6
#     Node 20, Type 0, BuildingBlock: OJICUG_clean_sbu_0, # of connection points: 6
#     Node 21, Type 0, BuildingBlock: OJICUG_clean_sbu_0, # of connection points: 6
#     Node 22, Type 0, BuildingBlock: OJICUG_clean_sbu_0, # of connection points: 6
#     Node 23, Type 0, BuildingBlock: OJICUG_clean_sbu_0, # of connection points: 6
#     Edge 24, Type (0, 0), BuildingBlock: CIFDUS_clean_linker_0, # of connection points: 2
#     Edge 25, Type (0, 0), BuildingBlock: CIFDUS_clean_linker_0, # of connection points: 2
#     Edge 26, Type (0, 0), BuildingBlock: CIFDUS_clean_linker_0, # of connection points: 2
#     Edge 27, Type (0, 0), BuildingBlock: CIFDUS_clean_linker_0, # of connection points: 2
#     Edge 28, Type (0, 0), BuildingBlock: CIFDUS_clean_linker_0, # of connection points: 2
#     Edge 29, Type (0, 0), BuildingBlock: CIFDUS_clean_linker_0, # of connection points: 2
#     Edge 30, Type (0, 0), BuildingBlock: CIFDUS_clean_linker_0, # of connection points: 2
#     Edge 31, Type (0, 0), BuildingBlock: CIFDUS_clean_linker_0, # of connection points: 2
#     Edge 32, Type (0, 0), BuildingBlock: CIFDUS_clean_linker_0, # of connection points: 2
#     Edge 33, Type (0, 0), BuildingBlock: CIFDUS_clean_linker_0, # of connection points: 2
#     Edge 34, Type (0, 0), BuildingBlock: CIFDUS_clean_linker_0, # of connection points: 2
#     Edge 35, Type (0, 0), BuildingBlock: CIFDUS_clean_linker_0, # of connection points: 2
#     Edge 36, Type (0, 0), BuildingBlock: CIFDUS_clean_linker_0, # of connection points: 2
#     Edge 37, Type (0, 0), BuildingBlock: CIFDUS_clean_linker_0, # of connection points: 2
#     Edge 38, Type (0, 0), BuildingBlock: CIFDUS_clean_linker_0, # of connection points: 2
#     Edge 39, Type (0, 0), BuildingBlock: CIFDUS_clean_linker_0, # of connection points: 2
#     Edge 40, Type (0, 0), BuildingBlock: CIFDUS_clean_linker_0, # of connection points: 2
#     Edge 41, Type (0, 0), BuildingBlock: CIFDUS_clean_linker_0, # of connection points: 2
#     Edge 42, Type (0, 0), BuildingBlock: CIFDUS_clean_linker_0, # of connection points: 2
#     Edge 43, Type (0, 0), BuildingBlock: CIFDUS_clean_linker_0, # of connection points: 2
#     Edge 44, Type (0, 0), BuildingBlock: CIFDUS_clean_linker_0, # of connection points: 2
#     Edge 45, Type (0, 0), BuildingBlock: CIFDUS_clean_linker_0, # of connection points: 2
#     Edge 46, Type (0, 0), BuildingBlock: CIFDUS_clean_linker_0, # of connection points: 2
#     Edge 47, Type (0, 0), BuildingBlock: CIFDUS_clean_linker_0, # of connection points: 2
#     Edge 48, Type (0, 0), BuildingBlock: CIFDUS_clean_linker_0, # of connection points: 2
#     Edge 49, Type (0, 0), BuildingBlock: CIFDUS_clean_linker_0, # of connection points: 2
#     Edge 50, Type (0, 0), BuildingBlock: CIFDUS_clean_linker_0, # of connection points: 2
#     Edge 51, Type (0, 0), BuildingBlock: CIFDUS_clean_linker_0, # of connection points: 2
#     Edge 52, Type (0, 0), BuildingBlock: CIFDUS_clean_linker_0, # of connection points: 2
#     Edge 53, Type (0, 0), BuildingBlock: CIFDUS_clean_linker_0, # of connection points: 2
#     Edge 54, Type (0, 0), BuildingBlock: CIFDUS_clean_linker_0, # of connection points: 2
#     Edge 55, Type (0, 0), BuildingBlock: CIFDUS_clean_linker_0, # of connection points: 2
#     Edge 56, Type (0, 0), BuildingBlock: CIFDUS_clean_linker_0, # of connection points: 2
#     Edge 57, Type (0, 0), BuildingBlock: CIFDUS_clean_linker_0, # of connection points: 2
#     Edge 58, Type (0, 0), BuildingBlock: CIFDUS_clean_linker_0, # of connection points: 2
#     Edge 59, Type (0, 0), BuildingBlock: CIFDUS_clean_linker_0, # of connection points: 2
#     Edge 60, Type (0, 0), BuildingBlock: CIFDUS_clean_linker_0, # of connection points: 2
#     Edge 61, Type (0, 0), BuildingBlock: CIFDUS_clean_linker_0, # of connection points: 2
#     Edge 62, Type (0, 0), BuildingBlock: CIFDUS_clean_linker_0, # of connection points: 2
#     Edge 63, Type (0, 0), BuildingBlock: CIFDUS_clean_linker_0, # of connection points: 2
#     Edge 64, Type (0, 0), BuildingBlock: CIFDUS_clean_linker_0, # of connection points: 2
#     Edge 65, Type (0, 0), BuildingBlock: CIFDUS_clean_linker_0, # of connection points: 2
#     Edge 66, Type (0, 0), BuildingBlock: CIFDUS_clean_linker_0, # of connection points: 2
#     Edge 67, Type (0, 0), BuildingBlock: CIFDUS_clean_linker_0, # of connection points: 2
#     Edge 68, Type (0, 0), BuildingBlock: CIFDUS_clean_linker_0, # of connection points: 2
#     Edge 69, Type (0, 0), BuildingBlock: CIFDUS_clean_linker_0, # of connection points: 2
#     Edge 70, Type (0, 0), BuildingBlock: CIFDUS_clean_linker_0, # of connection points: 2
#     Edge 71, Type (0, 0), BuildingBlock: CIFDUS_clean_linker_0, # of connection points: 2
#     Edge 72, Type (0, 0), BuildingBlock: CIFDUS_clean_linker_0, # of connection points: 2
#     Edge 73, Type (0, 0), BuildingBlock: CIFDUS_clean_linker_0, # of connection points: 2
#     Edge 74, Type (0, 0), BuildingBlock: CIFDUS_clean_linker_0, # of connection points: 2
#     Edge 75, Type (0, 0), BuildingBlock: CIFDUS_clean_linker_0, # of connection points: 2
#     Edge 76, Type (0, 0), BuildingBlock: CIFDUS_clean_linker_0, # of connection points: 2
#     Edge 77, Type (0, 0), BuildingBlock: CIFDUS_clean_linker_0, # of connection points: 2
#     Edge 78, Type (0, 0), BuildingBlock: CIFDUS_clean_linker_0, # of connection points: 2
#     Edge 79, Type (0, 0), BuildingBlock: CIFDUS_clean_linker_0, # of connection points: 2
#     Edge 80, Type (0, 0), BuildingBlock: CIFDUS_clean_linker_0, # of connection points: 2
#     Edge 81, Type (0, 0), BuildingBlock: CIFDUS_clean_linker_0, # of connection points: 2
#     Edge 82, Type (0, 0), BuildingBlock: CIFDUS_clean_linker_0, # of connection points: 2
#     Edge 83, Type (0, 0), BuildingBlock: CIFDUS_clean_linker_0, # of connection points: 2
#     Edge 84, Type (0, 0), BuildingBlock: CIFDUS_clean_linker_0, # of connection points: 2
#     Edge 85, Type (0, 0), BuildingBlock: CIFDUS_clean_linker_0, # of connection points: 2
#     Edge 86, Type (0, 0), BuildingBlock: CIFDUS_clean_linker_0, # of connection points: 2
#     Edge 87, Type (0, 0), BuildingBlock: CIFDUS_clean_linker_0, # of connection points: 2
#     Edge 88, Type (0, 0), BuildingBlock: CIFDUS_clean_linker_0, # of connection points: 2
#     Edge 89, Type (0, 0), BuildingBlock: CIFDUS_clean_linker_0, # of connection points: 2
#     Edge 90, Type (0, 0), BuildingBlock: CIFDUS_clean_linker_0, # of connection points: 2
#     Edge 91, Type (0, 0), BuildingBlock: CIFDUS_clean_linker_0, # of connection points: 2
#     Edge 92, Type (0, 0), BuildingBlock: CIFDUS_clean_linker_0, # of connection points: 2
#     Edge 93, Type (0, 0), BuildingBlock: CIFDUS_clean_linker_0, # of connection points: 2
#     Edge 94, Type (0, 0), BuildingBlock: CIFDUS_clean_linker_0, # of connection points: 2
#     Edge 95, Type (0, 0), BuildingBlock: CIFDUS_clean_linker_0, # of connection points: 2
# Relax obj value: 0.275
# Max RMSD: 0.220
# Mean RMSD: 0.220
data_MOF--net-sod-e--node1-OJICUG_clean_sbu_0--edge1-CIFDUS_clean_linker_0
_symmetry_space_group_name_H-M    P1
_symmetry_Int_Tables_number       1
_symmetry_cell_setting            triclinic
loop_
_symmetry_equiv_pos_as_xyz
'x, y, z'
_cell_length_a     45.964979
_cell_length_b     45.943394
_cell_length_c     45.957511
_cell_angle_alpha  89.586947
_cell_angle_beta   89.900839
_cell_angle_gamma 90.036157
loop_
_atom_site_label
_atom_site_type_symbol
_atom_site_fract_x
_atom_site_fract_y
_atom_site_fract_z
_atom_type_partial_charge
Sc0 Sc 0.03752 0.34025 0.34545 0.0
Sc1 Sc 0.05119 0.40248 0.38799 0.0
Sc2 Sc 0.98026 0.37698 0.37864 0.0
O3 O 0.02325 0.37307 0.37084 0.0
C4 C 0.97923 0.35415 0.31349 0.0
C5 C 0.07911 0.39301 0.32538 0.0
C6 C -2e-05 0.43966 0.36028 0.0
C7 C 0.08349 0.34228 0.39772 0.0
C8 C 0.98647 0.31047 0.38408 0.0
C9 C 0.00542 0.39831 0.439 0.0
O10 O 0.00642 0.34948 0.31112 0.0
O11 O 0.07463 0.408 0.348 0.0
O12 O 0.98111 0.41949 0.36015 0.0
O13 O 0.06968 0.32866 0.37793 0.0
O14 O 0.97807 0.334 0.39577 0.0
O15 O 0.03154 0.40065 0.43047 0.0
O16 O 0.00671 0.30945 0.36497 0.0
O17 O 0.07983 0.36909 0.40317 0.0
O18 O 0.98478 0.39284 0.42177 0.0
O19 O 0.06819 0.36776 0.32201 0.0
O20 O 0.96754 0.36121 0.33732 0.0
O21 O 0.02446 0.43778 0.37309 0.0
Sc22 Sc 0.6638 0.95877 0.32016 0.0
Sc23 Sc 0.6001 0.95257 0.36181 0.0
Sc24 Sc 0.64225 0.01514 0.364 0.0
O25 O 0.63478 0.97525 0.34841 0.0
C26 C 0.70329 -0.00519 0.36424 0.0
C27 C 0.65298 0.90779 0.3656 0.0
C28 C 0.61121 0.98734 0.41901 0.0
C29 C 0.60478 0.9298 0.29762 0.0
C30 C 0.65999 0.02187 0.2988 0.0
C31 C 0.57737 0.01714 0.34579 0.0
O32 O 0.7001 0.98229 0.3398 0.0
O33 O 0.6266 0.91481 0.37079 0.0
O34 O 0.62241 0.00849 0.40534 0.0
O35 O 0.632 0.9344 0.29585 0.0
O36 O 0.66409 0.02913 0.325 0.0
O37 O 0.57357 0.99035 0.35273 0.0
O38 O 0.65639 -0.00458 0.29152 0.0
O39 O 0.58974 0.93759 0.31927 0.0
O40 O 0.60167 0.0304 0.34705 0.0
O41 O 0.67 0.92231 0.34889 0.0
O42 O 0.68185 -0.00147 0.38112 0.0
O43 O 0.60494 0.96359 0.40679 0.0
Sc44 Sc 0.95047 0.6936 0.27781 0.0
Sc45 Sc 0.92924 0.63811 0.3239 0.0
Sc46 Sc -0.00112 0.64075 0.29917 0.0
O47 O 0.96028 0.65821 0.30193 0.0
C48 C 0.00019 0.66524 0.24079 0.0
C49 C 0.90215 0.65053 0.26556 0.0
C50 C 0.95743 0.58529 0.29448 0.0
C51 C 0.91159 0.69859 0.33531 0.0
C52 C 0.00756 0.70972 0.30756 0.0
C53 C 0.98542 0.62712 0.36368 0.0
O54 O 0.9867 0.68855 0.24673 0.0
O55 O 0.89793 0.6535 0.29259 0.0
O56 O 0.98232 0.59723 0.2969 0.0
O57 O 0.91518 0.70538 0.3084 0.0
O58 O 0.01745 0.68424 0.30203 0.0
O59 O 0.9587 0.62277 0.35746 0.0
O60 O 0.98111 0.71732 0.30324 0.0
O61 O 0.92459 0.67717 0.34682 0.0
O62 O 0.00356 0.63742 0.3454 0.0
O63 O 0.92223 0.66517 0.25303 0.0
O64 O -0.00709 0.6422 0.25363 0.0
O65 O 0.93395 0.59854 0.30031 0.0
Sc66 Sc 0.36234 0.98251 0.33375 0.0
Sc67 Sc 0.36001 0.05329 0.35831 0.0
Sc68 Sc 0.309 0.03012 0.30788 0.0
O69 O 0.34357 0.02138 0.33338 0.0
C70 C 0.34551 0.98688 0.26781 0.0
C71 C 0.41488 0.02827 0.32918 0.0
C72 C 0.34755 0.08401 0.30191 0.0
C73 C 0.36981 -0.00066 0.39879 0.0
C74 C 0.29428 0.96792 0.33274 0.0
C75 C 0.29559 0.06095 0.36937 0.0
O76 O 0.36344 0.98009 0.28763 0.0
O77 O 0.40062 0.05094 0.33602 0.0
O78 O 0.33388 0.06474 0.28784 0.0
O79 O 0.36157 0.98089 0.38023 0.0
O80 O 0.28558 -0.00659 0.32561 0.0
O81 O 0.31998 0.05467 0.38061 0.0
O82 O 0.32099 0.96082 0.33481 0.0
O83 O 0.37647 0.02527 0.39197 0.0
O84 O 0.29025 0.05775 0.34215 0.0
O85 O 0.40487 0.0024 0.33151 0.0
O86 O 0.32348 0.0031 0.27197 0.0
O87 O 0.34341 0.08573 0.32894 0.0
Sc88 Sc 0.04109 0.59391 0.58912 0.0
Sc89 Sc 0.96535 0.60373 0.59381 0.0
Sc90 Sc 0.01101 0.64293 0.64039 0.0
O91 O 0.0059 0.61377 0.60763 0.0
C92 C 0.05986 0.5957 0.65596 0.0
C93 C -0.00338 0.54244 0.59827 0.0
C94 C 0.95519 0.60766 0.66218 0.0
C95 C -0.00011 0.60178 0.53395 0.0
C96 C 0.06172 0.65943 0.59498 0.0
C97 C 0.95878 0.6713 0.60404 0.0
O98 O 0.06154 0.58544 0.63045 0.0
O99 O 0.97422 0.55852 0.59782 0.0
O100 O 0.97798 0.62236 0.66809 0.0
O101 O 0.02508 0.59881 0.54495 0.0
O102 O 0.04393 0.66604 0.61527 0.0
O103 O 0.95238 0.64828 0.5903 0.0
O104 O 0.06332 0.63427 0.58388 0.0
O105 O 0.97705 0.60415 0.54915 0.0
O106 O 0.97906 0.67261 0.62277 0.0
O107 O 0.02219 0.55181 0.59384 0.0
O108 O 0.0431 0.61666 0.66247 0.0
O109 O 0.94821 0.60099 0.63649 0.0
Sc110 Sc 0.36328 0.93856 0.61749 0.0
Sc111 Sc 0.34262 0.00982 0.63175 0.0
Sc112 Sc 0.31244 0.95242 0.67323 0.0
O113 O 0.33914 0.96686 0.64082 0.0
C114 C 0.30205 0.90725 0.62132 0.0
C115 C 0.34441 0.98508 0.56885 0.0
C116 C 0.2757 0.0049 0.64897 0.0
C117 C 0.40789 0.98922 0.62618 0.0
C118 C 0.36639 0.90979 0.68034 0.0
C119 C 0.34273 0.00868 0.70056 0.0
O120 O 0.32559 0.91311 0.6079 0.0
O121 O 0.33455 0.00399 0.58629 0.0
O122 O 0.27625 0.97961 0.66023 0.0
O123 O 0.40245 0.96213 0.62648 0.0
O124 O 0.3452 0.92388 0.69103 0.0
O125 O 0.35098 0.01909 0.67623 0.0
O126 O 0.3738 0.91181 0.6539 0.0
O127 O 0.38839 0.00858 0.62453 0.0
O128 O 0.32767 0.98545 0.70303 0.0
O129 O 0.35681 0.96187 0.57741 0.0
O130 O 0.29514 0.91862 0.64563 0.0
O131 O 0.2979 0.01745 0.63853 0.0
Sc132 Sc 0.93802 0.29002 0.69218 0.0
Sc133 Sc 0.98339 0.33762 0.65556 0.0
Sc134 Sc 0.91002 0.34689 0.64884 0.0
O135 O 0.94333 0.32469 0.66572 0.0
C136 C 0.88969 0.28125 0.64351 0.0
C137 C 0.99012 0.27299 0.64818 0.0
C138 C 0.95148 0.35604 0.59733 0.0
C139 C -0.00594 0.3144 0.71926 0.0
C140 C 0.88766 0.33347 0.71236 0.0
C141 C 0.95496 0.39525 0.67085 0.0
O142 O 0.90803 0.27066 0.66154 0.0
O143 O 0.98964 0.29733 0.63494 0.0
O144 O 0.92691 0.34653 0.60539 0.0
O145 O 0.96774 0.30751 0.72434 0.0
O146 O 0.88979 0.34906 0.68967 0.0
O147 O 0.97568 0.37784 0.67671 0.0
O148 O 0.9026 0.3104 0.71651 0.0
O149 O 0.00297 0.32008 0.69383 0.0
O150 O 0.93161 0.38745 0.65807 0.0
O151 O 0.97436 0.26747 0.67064 0.0
O152 O 0.88687 0.30832 0.63861 0.0
O153 O 0.97272 0.35764 0.61469 0.0
Sc154 Sc 0.62278 0.06457 0.64165 0.0
Sc155 Sc 0.63058 0.9897 0.64139 0.0
Sc156 Sc 0.68088 0.03109 0.67935 0.0
O157 O 0.64489 0.02867 0.65427 0.0
C158 C 0.68863 0.08402 0.635 0.0
C159 C 0.61553 0.02811 0.58569 0.0
C160 C 0.69644 0.98207 0.63184 0.0
C161 C 0.57293 0.01876 0.65905 0.0
C162 C 0.63786 0.0782 0.70701 0.0
C163 C 0.65563 0.97357 0.70402 0.0
O164 O 0.66156 0.0885 0.63196 0.0
O165 O 0.61411 0.00472 0.60038 0.0
O166 O 0.70317 -0.00226 0.65376 0.0
O167 O 0.5813 0.04347 0.6493 0.0
O168 O 0.66089 0.06279 0.70794 0.0
O169 O 0.64481 0.9675 0.67952 0.0
O170 O 0.62153 0.08011 0.68491 0.0
O171 O 0.58981 -0.00291 0.66171 0.0
O172 O 0.66606 -0.00158 0.7098 0.0
O173 O 0.62242 0.05221 0.59693 0.0
O174 O 0.69897 0.06365 0.65077 0.0
O175 O 0.67097 0.98104 0.62128 0.0
Sc176 Sc 0.36747 0.36006 0.98007 0.0
Sc177 Sc 0.37957 0.38167 0.052 0.0
Sc178 Sc 0.32844 0.32614 0.0373 0.0
O179 O 0.35842 0.35583 0.02313 0.0
C180 C 0.29908 0.35021 0.97837 0.0
C181 C 0.3676 0.42591 0.0005 0.0
C182 C 0.31522 0.38153 0.07742 0.0
C183 C 0.43025 0.36653 0.00758 0.0
C184 C 0.36122 0.29104 0.98691 0.0
C185 C 0.37874 0.32178 0.08608 0.0
O186 O 0.32291 0.3598 0.96828 0.0
O187 O 0.37246 0.41979 0.02692 0.0
O188 O 0.3071 0.3583 0.0647 0.0
O189 O 0.41337 0.3603 0.98676 0.0
O190 O 0.34646 0.29139 0.01049 0.0
O191 O 0.38895 0.34665 0.0802 0.0
O192 O 0.36998 0.31408 0.97426 0.0
O193 O 0.42118 0.37473 0.03227 0.0
O194 O 0.35668 0.31116 0.07292 0.0
O195 O 0.36547 0.40676 0.98084 0.0
O196 O 0.29709 0.33758 0.00315 0.0
O197 O 0.34075 0.39173 0.07525 0.0
Sc198 Sc 0.30309 0.68568 0.92015 0.0
Sc199 Sc 0.35532 0.63653 0.89305 0.0
Sc200 Sc 0.34925 0.64787 0.96656 0.0
O201 O 0.33566 0.65696 0.92635 0.0
C202 C 0.33371 0.7149 0.97332 0.0
C203 C 0.34834 0.69948 0.86803 0.0
C204 C 0.40801 0.65147 0.9357 0.0
C205 C 0.28939 0.63679 0.87346 0.0
C206 C 0.2828 0.64768 0.9764 0.0
C207 C 0.35396 0.58597 0.93662 0.0
O208 O 0.32311 0.71853 0.94793 0.0
O209 O 0.36315 0.67656 0.87212 0.0
O210 O 0.39194 0.66176 0.95554 0.0
O211 O 0.28058 0.65476 0.89261 0.0
O212 O 0.30696 0.63453 0.97883 0.0
O213 O 0.34748 0.59456 0.91128 0.0
O214 O 0.27843 0.66811 0.95771 0.0
O215 O 0.31606 0.63136 0.86916 0.0
O216 O 0.35964 0.60345 0.95707 0.0
O217 O 0.32537 0.70571 0.88255 0.0
O218 O 0.34087 0.6901 0.98299 0.0
O219 O 0.39779 0.63856 0.9135 0.0
Sc220 Sc 0.69396 0.28777 0.96143 0.0
Sc221 Sc 0.65295 0.3408 -0.00513 0.0
Sc222 Sc 0.6483 0.33462 0.92058 0.0
O223 O 0.66518 0.32065 0.95871 0.0
C224 C 0.71465 0.32564 0.90578 0.0
C225 C 0.71745 0.32399 0.01314 0.0
C226 C 0.66554 0.39254 0.9544 0.0
C227 C 0.64785 0.2768 0.01403 0.0
C228 C 0.64899 0.26625 0.91313 0.0
C229 C 0.59447 0.34406 0.95891 0.0
O230 O 0.71968 0.30621 0.92529 0.0
O231 O 0.69203 0.33299 0.01834 0.0
O232 O 0.6531 0.37998 0.93306 0.0
O233 O 0.6704 0.26919 -0.00071 0.0
O234 O 0.64223 0.29164 0.90459 0.0
O235 O 0.61073 0.35273 0.97927 0.0
O236 O 0.66665 0.26127 0.9339 0.0
O237 O 0.63573 0.30149 0.01119 0.0
O238 O 0.60456 0.33241 0.9362 0.0
O239 O 0.72373 0.31054 0.98995 0.0
O240 O 0.68995 0.33721 0.90211 0.0
O241 O 0.67115 0.37958 0.97819 0.0
Sc242 Sc 0.60138 0.59266 0.04167 0.0
Sc243 Sc 0.61638 0.61071 0.97099 0.0
Sc244 Sc 0.64484 0.65293 0.02509 0.0
O245 O 0.62145 0.61865 0.01331 0.0
C246 C 0.59077 0.65513 0.06866 0.0
C247 C 0.55716 0.59076 -0.00792 0.0
C248 C 0.60266 0.67461 0.97288 0.0
C249 C 0.63537 0.5527 -0.00448 0.0
C250 C 0.66163 0.60384 0.07257 0.0
C251 C 0.67864 0.63718 0.96975 0.0
O252 O 0.58546 0.62799 0.06767 0.0
O253 O 0.57814 0.58434 0.97579 0.0
O254 O 0.62469 0.67876 0.98961 0.0
O255 O 0.6174 0.55564 0.01674 0.0
O256 O 0.66608 0.62842 0.06001 0.0
O257 O 0.65418 0.63479 0.95746 0.0
O258 O 0.63946 0.58817 0.06756 0.0
O259 O 0.64095 0.57251 0.97684 0.0
O260 O 0.6805 0.63997 -0.00285 0.0
O261 O 0.56147 0.59773 0.01821 0.0
O262 O 0.61097 0.66746 0.05406 0.0
O263 O 0.59181 0.64957 0.96837 0.0
Sc264 Sc 0.54221 0.78932 0.78519 0.0
Sc265 Sc 0.56474 0.82631 0.84668 0.0
Sc266 Sc 0.49314 0.80976 0.83694 0.0
O267 O 0.53304 0.81058 0.82218 0.0
C268 C 0.48862 0.82459 0.76849 0.0
C269 C 0.5869 0.84264 0.78713 0.0
C270 C 0.51151 0.87046 0.85758 0.0
C271 C 0.5869 0.7666 0.82909 0.0
C272 C 0.48855 0.75388 0.80813 0.0
C273 C 0.5285 0.7972 0.89509 0.0
O274 O 0.51523 0.81968 0.76185 0.0
O275 O 0.57686 0.85251 0.81081 0.0
O276 O 0.49273 0.85563 0.84378 0.0
O277 O 0.56629 0.75902 0.81222 0.0
O278 O 0.49523 0.76407 0.83245 0.0
O279 O 0.55363 0.80002 0.8839 0.0
O280 O 0.5034 0.76128 0.786 0.0
O281 O 0.59409 0.79313 0.83126 0.0
O282 O 0.50544 0.80299 0.88106 0.0
O283 O 0.58038 0.81726 0.77772 0.0
O284 O 0.47756 0.81753 0.79312 0.0
O285 O 0.5373 0.86131 0.86264 0.0
Sc286 Sc 0.16709 0.44273 0.80614 0.0
Sc287 Sc 0.12018 0.42688 0.86437 0.0
Sc288 Sc 0.13381 0.498 0.84448 0.0
O289 O 0.13998 0.45558 0.83803 0.0
C290 C 0.19773 0.50034 0.83102 0.0
C291 C 0.18495 0.40237 0.85928 0.0
C292 C 0.13271 0.47443 0.90957 0.0
C293 C 0.11646 0.39415 0.80549 0.0
C294 C 0.13591 0.49393 0.77506 0.0
C295 C 0.07126 0.47517 0.85063 0.0
O296 O 0.19611 0.48073 0.81146 0.0
O297 O 0.15885 0.40045 0.86852 0.0
O298 O 0.12893 0.49467 0.89106 0.0
O299 O 0.14056 0.40437 0.79589 0.0
O300 O 0.13702 0.50833 0.7986 0.0
O301 O 0.07964 0.45159 0.86299 0.0
O302 O 0.14261 0.46704 0.77401 0.0
O303 O 0.10481 0.40283 0.82879 0.0
O304 O 0.08863 0.49332 0.83908 0.0
O305 O 0.19231 0.41839 0.83765 0.0
O306 O 0.17877 0.50295 0.85073 0.0
O307 O 0.13436 0.44799 0.90254 0.0
Sc308 Sc 0.47192 0.13653 0.84955 0.0
Sc309 Sc 0.42645 0.09072 0.8924 0.0
Sc310 Sc 0.50243 0.08454 0.89618 0.0
O311 O 0.4669 0.10388 0.87916 0.0
C312 C 0.52239 0.09182 0.83126 0.0
C313 C 0.4182 0.10104 0.82436 0.0
C314 C 0.45922 0.03056 0.88963 0.0
C315 C 0.41997 0.15971 0.89011 0.0
C316 C 0.52436 0.15016 0.89167 0.0
C317 C 0.46193 0.09209 0.95084 0.0
O318 O 0.5063 0.11398 0.82664 0.0
O319 O 0.41006 0.09149 0.84902 0.0
O320 O 0.48355 0.04239 0.89473 0.0
O321 O 0.4393 0.16315 0.87047 0.0
O322 O 0.52643 0.12401 0.90026 0.0
O323 O 0.43805 0.08876 0.93755 0.0
O324 O 0.50454 0.15903 0.87451 0.0
O325 O 0.41321 0.1349 0.90053 0.0
O326 O 0.48659 0.09185 0.93855 0.0
O327 O 0.44056 0.11703 0.82083 0.0
O328 O 0.52148 0.07687 0.85458 0.0
O329 O 0.43595 0.04504 0.88598 0.0
Sc330 Sc 0.83609 0.47939 0.87027 0.0
Sc331 Sc 0.85614 0.55176 0.86507 0.0
Sc332 Sc 0.80419 0.52187 0.81719 0.0
O333 O 0.8331 0.51782 0.85015 0.0
C334 C 0.82842 0.46139 0.80379 0.0
C335 C 0.90068 0.49745 0.86359 0.0
C336 C 0.85573 0.56554 0.79808 0.0
C337 C 0.84682 0.52043 0.92415 0.0
C338 C 0.77374 0.47551 0.85957 0.0
C339 C 0.79178 0.57662 0.85725 0.0
O340 O 0.82879 0.45575 0.83087 0.0
O341 O 0.89488 0.52458 0.86637 0.0
O342 O 0.83145 0.55296 0.79326 0.0
O343 O 0.84461 0.49602 0.91201 0.0
O344 O 0.77471 0.48818 0.83479 0.0
O345 O 0.81828 0.57942 0.86495 0.0
O346 O 0.79115 0.48302 0.87925 0.0
O347 O 0.84734 0.54413 0.91016 0.0
O348 O 0.78262 0.55615 0.84091 0.0
O349 O 0.88142 0.47761 0.86223 0.0
O350 O 0.8245 0.48699 0.79365 0.0
O351 O 0.86824 0.56489 0.82253 0.0
Sc352 Sc 0.55167 0.13574 0.15181 0.0
Sc353 Sc 0.48075 0.13551 0.17331 0.0
Sc354 Sc 0.52843 0.18732 0.20195 0.0
O355 O 0.52015 0.15307 0.17621 0.0
C356 C 0.58154 0.14164 0.21094 0.0
C357 C 0.51401 0.07936 0.1654 0.0
C358 C 0.48538 0.15025 0.24066 0.0
C359 C 0.50235 0.14029 0.10792 0.0
C360 C 0.56983 0.20097 0.1495 0.0
C361 C 0.46561 0.20212 0.17445 0.0
O362 O 0.57417 0.12532 0.18998 0.0
O363 O 0.49671 0.09287 0.1818 0.0
O364 O 0.50673 0.1679 0.23962 0.0
O365 O 0.52831 0.14761 0.11384 0.0
O366 O 0.54962 0.20998 0.16606 0.0
O367 O 0.46138 0.17636 0.16585 0.0
O368 O 0.57692 0.17447 0.14866 0.0
O369 O 0.48453 0.13059 0.12692 0.0
O370 O 0.4882 0.20982 0.18881 0.0
O371 O 0.53281 0.09271 0.15012 0.0
O372 O 0.56916 0.16611 0.21652 0.0
O373 O 0.47382 0.13924 0.2183 0.0
Sc374 Sc 0.86589 0.43546 0.1409 0.0
Sc375 Sc 0.84115 0.50614 0.14922 0.0
Sc376 Sc 0.80776 0.45043 0.18789 0.0
O377 O 0.83823 0.46357 0.15909 0.0
C378 C 0.8042 0.40345 0.13743 0.0
C379 C 0.86081 0.47927 0.08948 0.0
C380 C 0.77572 0.49958 0.14834 0.0
C381 C 0.90534 0.48916 0.16168 0.0
C382 C 0.86077 0.40778 0.20343 0.0
C383 C 0.82778 0.50803 0.21526 0.0
O384 O 0.83101 0.40602 0.13068 0.0
O385 O 0.85694 0.50074 0.10602 0.0
O386 O 0.77606 0.48251 0.17058 0.0
O387 O 0.90207 0.4638 0.1509 0.0
O388 O 0.83546 0.41779 0.20875 0.0
O389 O 0.82441 0.51946 0.19044 0.0
O390 O 0.87453 0.41393 0.18045 0.0
O391 O 0.88479 0.50742 0.16469 0.0
O392 O 0.82486 0.48087 0.21954 0.0
O393 O 0.86087 0.45327 0.09854 0.0
O394 O 0.7918 0.41875 0.15703 0.0
O395 O 0.79824 0.50512 0.13334 0.0
Sc396 Sc 0.4503 0.82365 0.14706 0.0
Sc397 Sc 0.50835 0.85813 0.1111 0.0
Sc398 Sc 0.43729 0.87623 0.0924 0.0
O399 O 0.46511 0.85251 0.11698 0.0
C400 C 0.40713 0.81405 0.09283 0.0
C401 C 0.50691 0.7907 0.12796 0.0
C402 C 0.48513 0.85228 0.04806 0.0
C403 C 0.50258 0.85832 0.17877 0.0
C404 C 0.40571 0.87671 0.15383 0.0
C405 C 0.48643 0.92239 0.10169 0.0
O406 O 0.41901 0.80519 0.11645 0.0
O407 O 0.51929 0.81428 0.12093 0.0
O408 O 0.46196 0.86656 0.05348 0.0
O409 O 0.48104 0.84053 0.17956 0.0
O410 O 0.4099 0.88726 0.12857 0.0
O411 O 0.50645 0.9036 0.10056 0.0
O412 O 0.4187 0.85409 0.1632 0.0
O413 O 0.51313 0.86882 0.15538 0.0
O414 O 0.45974 0.9158 0.1015 0.0
O415 O 0.48017 0.78934 0.13476 0.0
O416 O 0.41171 0.83912 0.08207 0.0
O417 O 0.50424 0.84633 0.06702 0.0
Sc418 Sc 0.11876 0.57557 0.11906 0.0
Sc419 Sc 0.12001 0.5008 0.13461 0.0
Sc420 Sc 0.17424 0.54573 0.1639 0.0
O421 O 0.13776 0.54072 0.13929 0.0
C422 C 0.18572 0.5868 0.1076 0.0
C423 C 0.11029 0.52723 0.07145 0.0
C424 C 0.18721 0.48636 0.12934 0.0
C425 C 0.06482 0.54137 0.14526 0.0
C426 C 0.13804 0.60299 0.17928 0.0
C427 C 0.13983 0.4975 0.20096 0.0
O428 O 0.15916 0.58887 0.1004 0.0
O429 O 0.11379 0.50615 0.08896 0.0
O430 O 0.19598 0.50847 0.14366 0.0
O431 O 0.07633 0.56501 0.13638 0.0
O432 O 0.15564 0.58286 0.18689 0.0
O433 O 0.12487 0.48949 0.17933 0.0
O434 O 0.12501 0.60305 0.1551 0.0
O435 O 0.0779 0.51704 0.1448 0.0
O436 O 0.15822 0.51827 0.19956 0.0
O437 O 0.11033 0.5535 0.07936 0.0
O438 O 0.1942 0.57322 0.13044 0.0
O439 O 0.16057 0.48138 0.12442 0.0
Sc440 Sc 0.84154 0.83478 0.46043 0.0
Sc441 Sc 0.85005 0.85115 0.53272 0.0
Sc442 Sc 0.79472 0.80346 0.51079 0.0
O443 O 0.82833 0.8302 0.50157 0.0
C444 C 0.77284 0.82785 0.45284 0.0
C445 C 0.84226 0.8982 0.48073 0.0
C446 C 0.78579 0.85646 0.55495 0.0
C447 C 0.90231 0.83934 0.49271 0.0
C448 C 0.83066 0.76994 0.46181 0.0
C449 C 0.84077 0.78766 0.55941 0.0
O450 O 0.79869 0.82796 0.44304 0.0
O451 O 0.85161 0.89048 0.50588 0.0
O452 O 0.77741 0.83245 0.54393 0.0
O453 O 0.88673 0.84244 0.47018 0.0
O454 O 0.80765 0.77244 0.47717 0.0
O455 O 0.85071 0.81349 0.56104 0.0
O456 O 0.84978 0.78971 0.45972 0.0
O457 O 0.89144 0.83696 0.51785 0.0
O458 O 0.82106 0.78025 0.54152 0.0
O459 O 0.83357 0.88022 0.46175 0.0
O460 O 0.76714 0.82477 0.47974 0.0
O461 O 0.81099 0.86685 0.55096 0.0
Sc462 Sc 0.86362 0.12484 0.42772 0.0
Sc463 Sc 0.84201 0.12655 0.49923 0.0
Sc464 Sc 0.809 0.17296 0.45053 0.0
O465 O 0.83841 0.14173 0.45881 0.0
C466 C 0.86368 0.19155 0.4116 0.0
C467 C 0.90572 0.13583 0.48195 0.0
C468 C 0.82859 0.1927 0.51085 0.0
C469 C 0.8565 0.06928 0.46454 0.0
C470 C 0.80147 0.12894 0.39843 0.0
C471 C 0.77705 0.13021 0.49599 0.0
O472 O 0.87632 0.16715 0.4138 0.0
O473 O 0.88589 0.14089 0.50058 0.0
O474 O 0.8263 0.20028 0.4843 0.0
O475 O 0.85339 0.08059 0.43953 0.0
O476 O 0.79066 0.14619 0.41716 0.0
O477 O 0.79822 0.11251 0.49655 0.0
O478 O 0.82842 0.12274 0.39717 0.0
O479 O 0.85672 0.08425 0.48749 0.0
O480 O 0.77812 0.15433 0.48198 0.0
O481 O 0.90066 0.12589 0.45655 0.0
O482 O 0.83771 0.19581 0.42043 0.0
O483 O 0.82815 0.16626 0.51877 0.0
Sc484 Sc 0.16599 0.81042 0.45235 0.0
Sc485 Sc 0.1281 0.86243 0.49393 0.0
Sc486 Sc 0.1247 0.86615 0.41812 0.0
O487 O 0.13971 0.84623 0.4548 0.0
C488 C 0.19017 0.85152 0.40154 0.0
C489 C 0.19367 0.84384 0.50598 0.0
C490 C 0.13972 0.92037 0.45765 0.0
C491 C 0.12311 0.79447 0.50519 0.0
C492 C 0.12048 0.79939 0.4013 0.0
C493 C 0.06904 0.86834 0.45828 0.0
O494 O 0.19386 0.8309 0.41987 0.0
O495 O 0.17082 0.8583 0.51132 0.0
O496 O 0.13433 0.90919 0.4331 0.0
O497 O 0.14084 0.78694 0.4852 0.0
O498 O 0.11366 0.82597 0.39883 0.0
O499 O 0.08352 0.86735 0.48171 0.0
O500 O 0.13918 0.79014 0.41952 0.0
O501 O 0.11661 0.82073 0.5103 0.0
O502 O 0.08078 0.86823 0.43333 0.0
O503 O 0.19582 0.82616 0.48495 0.0
O504 O 0.16651 0.86541 0.39905 0.0
O505 O 0.13867 0.90597 0.48129 0.0
Sc506 Sc 0.11985 0.12963 0.54914 0.0
Sc507 Sc 0.14088 0.15015 0.48051 0.0
Sc508 Sc 0.17721 0.17812 0.5395 0.0
O509 O 0.14574 0.1528 0.52352 0.0
C510 C 0.12439 0.1908 0.58086 0.0
C511 C 0.07616 0.14436 0.50082 0.0
C512 C 0.14955 0.21464 0.48631 0.0
C513 C 0.1398 0.08595 0.49959 0.0
C514 C 0.1776 0.12369 0.5834 0.0
C515 C 0.20662 0.15106 0.48645 0.0
O516 O 0.11544 0.16466 0.5791 0.0
O517 O 0.09535 0.14004 0.48153 0.0
O518 O 0.17022 0.21059 0.5046 0.0
O519 O 0.12344 0.09245 0.52104 0.0
O520 O 0.18692 0.14872 0.57559 0.0
O521 O 0.18518 0.16174 0.47311 0.0
O522 O 0.15501 0.11222 0.57283 0.0
O523 O 0.15116 0.10476 0.48253 0.0
O524 O 0.20875 0.1538 0.51388 0.0
O525 O 0.08232 0.14592 0.52756 0.0
O526 O 0.14561 0.20083 0.56582 0.0
O527 O 0.13128 0.19503 0.47968 0.0
H528 H 0.95334 0.3868 0.46413 0.0
H529 H 0.04263 0.40783 0.48464 0.0
H530 H 0.03292 0.39826 0.53612 0.0
H531 H 0.00053 0.37944 0.57408 0.0
H532 H 0.91213 0.35565 0.55271 0.0
H533 H 0.92032 0.37068 0.50233 0.0
C534 C 0.9707 0.38972 0.4798 0.0
C535 C -0.00121 0.39776 0.47045 0.0
C536 C 0.96527 0.38323 0.50904 0.0
C537 C 0.02086 0.40156 0.4912 0.0
C538 C 0.01537 0.39591 0.5206 0.0
C539 C 0.98296 0.37757 0.55847 0.0
C540 C 0.95584 0.36606 0.56708 0.0
C541 C 0.9879 0.38591 0.52956 0.0
C542 C 0.93328 0.36417 0.54662 0.0
C543 C 0.93792 0.37281 0.51784 0.0
H544 H 0.61438 0.03712 0.4497 0.0
H545 H 0.59731 0.945 0.45895 0.0
H546 H 0.59428 0.95036 0.51172 0.0
H547 H 0.60068 0.98032 0.55486 0.0
H548 H 0.61987 0.07206 0.54543 0.0
H549 H 0.61757 0.06763 0.49264 0.0
C550 C 0.60987 0.01816 0.46319 0.0
C551 C 0.60652 0.99061 0.45049 0.0
C552 C 0.60861 0.02131 0.49334 0.0
C553 C 0.60015 0.96641 0.46824 0.0
C554 C 0.59849 0.96945 0.49837 0.0
C555 C 0.60414 -0.00054 0.54134 0.0
C556 C 0.61082 0.02641 0.55407 0.0
C557 C 0.60334 -0.00332 0.51111 0.0
C558 C 0.61489 0.05101 0.53619 0.0
C559 C 0.61365 0.0485 0.50603 0.0
H560 H 0.03677 0.62145 0.49113 0.0
H561 H 0.95364 0.57996 0.50573 0.0
H562 H 0.94311 0.58198 0.45403 0.0
H563 H 0.9554 0.5986 0.40554 0.0
H564 H 0.03726 0.64199 0.38949 0.0
H565 H 0.05052 0.63582 0.44073 0.0
C566 C 0.01658 0.61258 0.48282 0.0
C567 C -0.00414 0.60096 0.50219 0.0
C568 C 0.01031 0.61427 0.45288 0.0
C569 C 0.96973 0.5895 0.49127 0.0
C570 C 0.96368 0.59055 0.4617 0.0
C571 C 0.97625 0.60662 0.4131 0.0
C572 C -0.00489 0.62102 0.39377 0.0
C573 C 0.98347 0.60346 0.44245 0.0
C574 C 0.02223 0.63088 0.40396 0.0
C575 C 0.0298 0.62745 0.43328 0.0
H576 H 0.35355 0.03504 0.44171 0.0
H577 H 0.37919 0.94649 0.42453 0.0
H578 H 0.37158 0.93375 0.47586 0.0
H579 H 0.35827 0.94818 0.52523 0.0
H580 H 0.33101 0.03657 0.5418 0.0
H581 H 0.33784 0.04883 0.49052 0.0
C582 C 0.35789 0.01306 0.44933 0.0
C583 C 0.36756 -0.00818 0.42975 0.0
C584 C 0.35267 0.00581 0.47844 0.0
C585 C 0.37214 0.9632 0.43949 0.0
C586 C 0.36763 0.95592 0.46868 0.0
C587 C 0.35363 0.97011 0.51765 0.0
C588 C 0.34442 -0.0085 0.53738 0.0
C589 C 0.35788 0.97708 0.48829 0.0
C590 C 0.33813 0.01968 0.52709 0.0
C591 C 0.34227 0.02679 0.49784 0.0
H592 H 0.45436 0.06766 0.34784 0.0
H593 H 0.44248 -0.00392 0.28878 0.0
H594 H 0.49493 -0.00773 0.28203 0.0
H595 H 0.54267 0.00053 0.30306 0.0
H596 H 0.55501 0.06794 0.36643 0.0
H597 H 0.50407 0.08297 0.36093 0.0
C598 C 0.46336 0.05185 0.3329 0.0
C599 C 0.44506 0.03144 0.31965 0.0
C600 C 0.49356 0.0489 0.33025 0.0
C601 C 0.45654 0.01132 0.2999 0.0
C602 C 0.48642 0.00919 0.296 0.0
C603 C 0.53431 0.01918 0.31483 0.0
C604 C 0.55178 0.03279 0.33554 0.0
C605 C 0.50501 0.02648 0.31263 0.0
C606 C 0.54147 0.05716 0.35052 0.0
C607 C 0.51238 0.06547 0.34759 0.0
H608 H 0.00258 0.55038 0.28202 0.0
H609 H 0.91072 0.54826 0.30157 0.0
H610 H 0.91568 0.49895 0.32116 0.0
H611 H 0.94823 0.46295 0.34425 0.0
H612 H 0.04109 0.47056 0.33164 0.0
H613 H 0.03393 0.51195 0.29918 0.0
C614 C 0.98347 0.53891 0.29 0.0
C615 C 0.95677 0.55343 0.29214 0.0
C616 C 0.98701 0.5122 0.30392 0.0
C617 C 0.93184 0.53783 0.30078 0.0
C618 C 0.93474 0.50986 0.31245 0.0
C619 C 0.96679 0.47373 0.3343 0.0
C620 C -0.00488 0.46468 0.34114 0.0
C621 C 0.96259 0.498 0.31631 0.0
C622 C 0.01911 0.47811 0.32764 0.0
C623 C 0.01504 0.50139 0.3087 0.0
H624 H 0.44935 0.9629 0.65818 0.0
H625 H 0.43232 0.03863 0.6048 0.0
H626 H 0.48118 0.05706 0.61437 0.0
H627 H 0.52926 0.05002 0.63534 0.0
H628 H 0.54671 0.97403 0.68836 0.0
H629 H 0.49654 0.95779 0.68239 0.0
C630 C 0.45653 0.98327 0.64845 0.0
C631 C 0.43776 -0.00084 0.63039 0.0
C632 C 0.48433 -0.00608 0.65444 0.0
C633 C 0.44676 0.02594 0.61852 0.0
C634 C 0.47451 0.03655 0.62413 0.0
C635 C 0.52195 0.03027 0.64619 0.0
C636 C 0.54166 0.01306 0.66193 0.0
C637 C 0.4935 0.02061 0.64189 0.0
C638 C 0.53189 0.98751 0.67587 0.0
C639 C 0.50334 0.97807 0.67227 0.0
H640 H 0.00496 0.41763 0.65229 0.0
H641 H 0.91938 0.44085 0.68302 0.0
H642 H 0.92504 0.48973 0.66217 0.0
H643 H 0.95148 0.52251 0.62991 0.0
H644 H 0.03548 0.49761 0.59572 0.0
H645 H 0.03263 0.4515 0.62232 0.0
C646 C 0.98801 0.43378 0.65539 0.0
C647 C 0.96189 0.42607 0.6692 0.0
C648 C -0.00948 0.46067 0.64151 0.0
C649 C 0.93976 0.44674 0.67264 0.0
C650 C 0.94277 0.47431 0.66026 0.0
C651 C 0.96903 0.50688 0.62788 0.0
C652 C -0.0066 0.51312 0.61043 0.0
C653 C 0.96745 0.48086 0.64346 0.0
C654 C 0.01628 0.49298 0.60866 0.0
C655 C 0.01485 0.46688 0.62413 0.0
H656 H 0.3579 0.44936 0.94674 0.0
H657 H 0.37084 0.472 0.03706 0.0
H658 H 0.36749 0.52321 0.0248 0.0
H659 H 0.36169 0.56131 0.98913 0.0
H660 H 0.34855 0.54039 0.89859 0.0
H661 H 0.35113 0.48843 0.91047 0.0
C662 C 0.35993 0.46549 0.96371 0.0
C663 C 0.36474 0.45682 -0.00731 0.0
C664 C 0.35802 0.49509 0.9566 0.0
C665 C 0.36723 0.478 0.0145 0.0
C666 C 0.36533 0.50734 0.00759 0.0
C667 C 0.35945 0.54551 0.97187 0.0
C668 C 0.35516 0.55465 0.94304 0.0
C669 C 0.3609 0.51605 0.97876 0.0
C670 C 0.35199 0.53382 0.92102 0.0
C671 C 0.35346 0.50418 0.92776 0.0
H672 H 0.45776 0.34828 0.95868 0.0
H673 H 0.47369 0.37952 0.04578 0.0
H674 H 0.52589 0.37579 0.03775 0.0
H675 H 0.56654 0.36351 0.00657 0.0
H676 H 0.55137 0.33162 0.91965 0.0
H677 H 0.49888 0.33596 0.92719 0.0
C678 C 0.4726 0.35432 0.97593 0.0
C679 C 0.46182 0.36419 0.00277 0.0
C680 C 0.50257 0.3521 0.97125 0.0
C681 C 0.48139 0.37185 0.02489 0.0
C682 C 0.51124 0.36976 0.02035 0.0
C683 C 0.55187 0.35761 0.98913 0.0
C684 C 0.56284 0.34734 0.96256 0.0
C685 C 0.52198 0.35992 -0.00635 0.0
C686 C 0.54344 0.33964 0.94032 0.0
C687 C 0.51348 0.34207 0.94461 0.0
H688 H 0.68075 0.42587 -0.00021 0.0
H689 H 0.65756 0.4307 0.90876 0.0
H690 H 0.65078 0.48333 0.91294 0.0
H691 H 0.64259 0.52543 0.94462 0.0
H692 H 0.6581 0.51749 0.0369 0.0
H693 H 0.67648 0.46806 0.03025 0.0
C694 C 0.67463 0.43835 0.98062 0.0
C695 C 0.66877 0.42434 0.95419 0.0
C696 C 0.6688 0.46782 0.98368 0.0
C697 C 0.6616 0.44099 0.92949 0.0
C698 C 0.65755 0.47098 0.93193 0.0
C699 C 0.65044 0.51289 0.9631 0.0
C700 C 0.64877 0.52443 -0.00879 0.0
C701 C 0.65959 0.48423 0.95926 0.0
C702 C 0.65883 0.50844 0.01519 0.0
C703 C 0.66942 0.48042 0.01136 0.0
H704 H 0.5255 0.63857 0.00118 0.0
H705 H 0.52883 0.55997 0.95063 0.0
H706 H 0.48458 0.57455 0.92461 0.0
H707 H 0.44376 0.60829 0.91875 0.0
H708 H 0.44089 0.68703 0.96939 0.0
H709 H 0.48723 0.67441 -0.00791 0.0
C710 C 0.5162 0.6245 0.98475 0.0
C711 C 0.52947 0.59786 0.97833 0.0
C712 C 0.49152 0.63342 0.96946 0.0
C713 C 0.51826 0.58025 0.95623 0.0
C714 C 0.49328 0.58871 0.94123 0.0
C715 C 0.4537 0.62309 0.93412 0.0
C716 C 0.43898 0.64841 0.9426 0.0
C717 C 0.47967 0.61518 0.94782 0.0
C718 C 0.45191 0.66733 0.96268 0.0
C719 C 0.47815 0.65998 0.97589 0.0
H720 H 0.47848 0.79519 0.92552 0.0
H721 H 0.57183 0.79426 0.93636 0.0
H722 H 0.56605 0.81008 0.98675 0.0
H723 H 0.53511 0.833 0.02371 0.0
H724 H 0.44248 0.83999 0.0092 0.0
H725 H 0.44758 0.81453 0.96317 0.0
C726 C 0.49767 0.79799 0.93895 0.0
C727 C 0.5256 0.7948 0.9269 0.0
C728 C 0.49435 0.80955 0.96664 0.0
C729 C 0.55008 0.79725 0.94496 0.0
C730 C 0.54681 0.80676 0.97357 0.0
C731 C 0.51607 0.82901 0.01041 0.0
C732 C 0.48858 0.83897 0.01939 0.0
C733 C 0.51919 0.8147 0.98388 0.0
C734 C 0.46399 0.83332 0.00225 0.0
C735 C 0.46681 0.81837 0.97622 0.0
H736 H 0.1309 0.47926 0.0455 0.0
H737 H 0.09027 0.56216 0.02746 0.0
H738 H 0.09511 0.55375 0.97519 0.0
H739 H 0.11139 0.52295 0.93499 0.0
H740 H 0.15283 0.44055 0.95382 0.0
H741 H 0.1476 0.44903 0.00579 0.0
C742 C 0.12268 0.49533 0.03017 0.0
C743 C 0.11 0.52113 0.04019 0.0
C744 C 0.12613 0.49069 0.00044 0.0
C745 C 0.09999 0.54203 0.02012 0.0
C746 C 0.1029 0.53733 0.99032 0.0
C747 C 0.11958 0.50704 0.95048 0.0
C748 C 0.13242 0.48119 0.94068 0.0
C749 C 0.1162 0.51185 0.98029 0.0
C750 C 0.14274 0.46059 0.96092 0.0
C751 C 0.13966 0.46533 -0.00941 0.0
H752 H 0.4957 0.1325 0.97352 0.0
H753 H 0.42627 0.07279 -0.0052 0.0
H754 H 0.43003 0.0862 0.04635 0.0
H755 H 0.45734 0.11046 0.08499 0.0
H756 H 0.52825 0.16843 0.06262 0.0
H757 H 0.51931 0.16034 0.01111 0.0
C758 C 0.4814 0.1224 0.98951 0.0
C759 C 0.46144 0.10109 0.98105 0.0
C760 C 0.48394 0.12993 0.01852 0.0
C761 C 0.44213 0.0889 0.00135 0.0
C762 C 0.44431 0.09655 0.03059 0.0
C763 C 0.47049 0.12173 0.06884 0.0
C764 C 0.49379 0.1395 0.07739 0.0
C765 C 0.46575 0.11641 0.03942 0.0
C766 C 0.51054 0.1542 0.05638 0.0
C767 C 0.50549 0.1496 0.02704 0.0
H768 H 0.87157 0.47791 0.95461 0.0
H769 H 0.8321 0.5626 0.9636 0.0
H770 H 0.83569 0.55833 0.0168 0.0
H771 H 0.84591 0.52816 0.05996 0.0
H772 H 0.88317 0.44246 0.04939 0.0
H773 H 0.88449 0.44952 -0.0031 0.0
C774 C 0.86368 0.49547 0.9682 0.0
C775 C 0.85097 0.52021 0.95559 0.0
C776 C 0.86533 0.49259 -0.00183 0.0
C777 C 0.84171 0.54325 0.97315 0.0
C778 C 0.84368 0.54074 0.00338 0.0
C779 C 0.85464 0.5112 0.04616 0.0
C780 C 0.8641 0.4847 0.05832 0.0
C781 C 0.85483 0.51517 0.01605 0.0
C782 C 0.8754 0.46287 0.04037 0.0
C783 C 0.87622 0.46689 0.01046 0.0
H784 H 0.94683 0.53098 0.84954 0.0
H785 H 0.92277 0.44328 0.87401 0.0
H786 H 0.97362 0.4283 0.87185 0.0
H787 H 0.02501 0.44042 0.86365 0.0
H788 H 0.04818 0.52822 0.83819 0.0
H789 H -0.00248 0.54269 0.84006 0.0
C790 C 0.95272 0.50862 0.85451 0.0
C791 C 0.93122 0.48836 0.86207 0.0
C792 C 0.98181 0.5001 0.85301 0.0
C793 C 0.93905 0.45932 0.86806 0.0
C794 C 0.96808 0.45072 0.8669 0.0
C795 C 0.01893 0.46268 0.85851 0.0
C796 C 0.04032 0.48313 0.8509 0.0
C797 C 0.98966 0.47098 0.85948 0.0
C798 C 0.03213 0.51191 0.84405 0.0
C799 C 0.00316 0.52033 0.84518 0.0
H800 H 0.49731 -0.00649 0.91357 0.0
H801 H 0.42262 -0.00355 0.8569 0.0
H802 H 0.43117 0.94557 0.84327 0.0
H803 H 0.46353 0.90259 0.84338 0.0
H804 H 0.53996 0.90242 0.89811 0.0
H805 H 0.52728 0.95034 0.91619 0.0
C806 C 0.48265 0.98296 0.89843 0.0
C807 C 0.45965 -0.00126 0.88589 0.0
C808 C 0.48839 0.95448 0.88993 0.0
C809 C 0.44048 0.98467 0.86683 0.0
C810 C 0.44558 0.95575 0.85882 0.0
C811 C 0.4773 0.91298 0.85939 0.0
C812 C 0.50292 0.89911 0.86903 0.0
C813 C 0.47008 0.94081 0.86951 0.0
C814 C 0.52043 0.91278 0.88992 0.0
C815 C 0.51311 0.94011 0.90043 0.0
H816 H 0.92935 0.54206 0.15252 0.0
H817 H 0.94702 0.4564 0.18726 0.0
H818 H -0.00137 0.4683 0.19124 0.0
H819 H 0.03876 0.49931 0.17676 0.0
H820 H 0.02244 0.58269 0.13605 0.0
H821 H 0.97006 0.57592 0.14329 0.0
C822 C 0.94452 0.52634 0.16155 0.0
C823 C 0.93484 0.49829 0.16914 0.0
C824 C 0.97426 0.53284 0.16239 0.0
C825 C 0.95436 0.47795 0.18086 0.0
C826 C 0.98374 0.48473 0.18313 0.0
C827 C 0.02381 0.51621 0.16969 0.0
C828 C 0.03429 0.54101 0.15501 0.0
C829 C -0.00599 0.51153 0.1726 0.0
C830 C 0.01479 0.56316 0.14696 0.0
C831 C 0.98488 0.55921 0.15094 0.0
H832 H 0.46179 0.95571 0.14214 0.0
H833 H 0.53081 0.95438 0.07855 0.0
H834 H 0.54719 0.00253 0.09447 0.0
H835 H 0.54116 0.04482 0.1261 0.0
H836 H 0.47337 0.04446 0.19145 0.0
H837 H 0.45776 -0.00357 0.17578 0.0
C838 C 0.48013 0.96625 0.13151 0.0
C839 C 0.49471 0.95221 0.10879 0.0
C840 C 0.48997 -0.00686 0.14149 0.0
C841 C 0.51907 0.96531 0.09577 0.0
C842 C 0.52852 -0.00741 0.10502 0.0
C843 C 0.52322 0.03411 0.1372 0.0
C844 C 0.50825 0.04838 0.15967 0.0
C845 C 0.51415 0.00663 0.12793 0.0
C846 C 0.48519 0.03406 0.17396 0.0
C847 C 0.47607 0.00669 0.16489 0.0
H848 H 0.87176 0.94103 0.50761 0.0
H849 H 0.81429 0.92488 0.43527 0.0
H850 H 0.81571 0.97641 0.42188 0.0
H851 H 0.83166 0.02658 0.43228 0.0
H852 H 0.8884 0.04179 0.50536 0.0
H853 H 0.88925 0.98997 0.51659 0.0
C854 C 0.85945 0.94875 0.48897 0.0
C855 C 0.84276 0.92927 0.47268 0.0
C856 C 0.86042 0.9782 0.48136 0.0
C857 C 0.82728 0.93953 0.44828 0.0
C858 C 0.82809 0.96896 0.44055 0.0
C859 C 0.84455 0.01836 0.4503 0.0
C860 C 0.85978 0.03776 0.46808 0.0
C861 C 0.84447 0.98854 0.45706 0.0
C862 C 0.87628 0.0271 0.49156 0.0
C863 C 0.87674 -0.00245 0.49805 0.0
H864 H 0.03778 0.84962 0.50441 0.0
H865 H 0.02901 0.88135 0.41616 0.0
H866 H 0.97641 0.87377 0.41862 0.0
H867 H 0.93327 0.858 0.44587 0.0
H868 H 0.94272 0.82564 0.53389 0.0
H869 H -0.0049 0.83327 0.53123 0.0
C870 C 0.02437 0.85526 0.48579 0.0
C871 C 0.03717 0.86631 0.46025 0.0
C872 C -0.00557 0.85037 0.48717 0.0
C873 C 0.01957 0.87295 0.43614 0.0
C874 C 0.98957 0.8685 0.43748 0.0
C875 C 0.9468 0.85235 0.46438 0.0
C876 C 0.93414 0.84134 0.49004 0.0
C877 C 0.97684 0.85705 0.46284 0.0
C878 C 0.95194 0.83427 0.5139 0.0
C879 C 0.98186 0.8387 0.51246 0.0
H880 H 0.15109 0.95119 0.50603 0.0
H881 H 0.14152 0.96037 0.41291 0.0
H882 H 0.14447 0.01329 0.41727 0.0
H883 H 0.14388 0.05695 0.44843 0.0
H884 H 0.14966 0.04629 0.54161 0.0
H885 H 0.15431 -0.00619 0.53629 0.0
C886 C 0.14989 0.96463 0.48656 0.0
C887 C 0.1455 0.95187 0.45928 0.0
C888 C 0.15072 -0.00519 0.48929 0.0
C889 C 0.14452 0.9697 0.43428 0.0
C890 C 0.14614 -5e-05 0.43673 0.0
C891 C 0.14658 0.04303 0.46741 0.0
C892 C 0.14597 0.05509 0.49533 0.0
C893 C 0.14832 0.01275 0.46425 0.0
C894 C 0.14953 0.03716 0.51993 0.0
C895 C 0.15225 0.00726 0.51692 0.0
H896 H 0.02958 0.15156 0.53605 0.0
H897 H 0.05408 0.14044 0.44592 0.0
H898 H 0.003 0.1387 0.43209 0.0
H899 H 0.95202 0.13707 0.44595 0.0
H900 H 0.92733 0.1469 0.53615 0.0
H901 H 0.97832 0.15267 0.54957 0.0
C902 C 0.0238 0.1489 0.51335 0.0
C903 C 0.04552 0.14569 0.49211 0.0
C904 C -0.00546 0.14755 0.50559 0.0
C905 C 0.03771 0.14264 0.46274 0.0
C906 C 0.00856 0.14162 0.4548 0.0
C907 C 0.95773 0.14044 0.46857 0.0
C908 C 0.93607 0.14105 0.49009 0.0
C909 C 0.98689 0.14346 0.47613 0.0
C910 C 0.94372 0.1461 0.51921 0.0
C911 C 0.97281 0.14936 0.52691 0.0
H912 H 0.13607 0.27011 0.50068 0.0
H913 H 0.16121 0.21516 0.42939 0.0
H914 H 0.1459 0.25225 0.39439 0.0
H915 H 0.11722 0.29605 0.38445 0.0
H916 H 0.09161 0.35133 0.45545 0.0
H917 H 0.11541 0.31871 0.49017 0.0
C918 C 0.13921 0.26695 0.47751 0.0
C919 C 0.14955 0.24025 0.46737 0.0
C920 C 0.12964 0.28809 0.4575 0.0
C921 C 0.15327 0.23583 0.4374 0.0
C922 C 0.14428 0.25684 0.41743 0.0
C923 C 0.11738 0.30116 0.40747 0.0
C924 C 0.10233 0.32558 0.41751 0.0
C925 C 0.13107 0.28237 0.42725 0.0
C926 C 0.10302 0.33244 0.44728 0.0
C927 C 0.11651 0.31377 0.46717 0.0
H928 H 0.81265 0.07519 0.37729 0.0
H929 H 0.74465 0.1396 0.38528 0.0
H930 H 0.70821 0.1028 0.37392 0.0
H931 H 0.69551 0.05172 0.36932 0.0
H932 H 0.76243 0.9865 0.36194 0.0
H933 H 0.79999 0.02447 0.36633 0.0
C934 C 0.78996 0.08145 0.37564 0.0
C935 C 0.78126 0.11004 0.38248 0.0
C936 C 0.76909 0.05995 0.37034 0.0
C937 C 0.7518 0.11773 0.3803 0.0
C938 C 0.73098 0.09665 0.37415 0.0
C939 C 0.71836 0.04582 0.36861 0.0
C940 C 0.72649 0.0165 0.36623 0.0
C941 C 0.73935 0.06757 0.37057 0.0
C942 C 0.75595 0.00901 0.36441 0.0
C943 C 0.77724 0.03067 0.3667 0.0
H944 H 0.89061 0.67931 0.38678 0.0
H945 H 0.88123 0.74885 0.32361 0.0
H946 H 0.84688 0.77337 0.35606 0.0
H947 H 0.82689 0.77862 0.40516 0.0
H948 H 0.84204 0.71224 0.47003 0.0
H949 H 0.86584 0.68174 0.43343 0.0
C950 C 0.88106 0.69981 0.37989 0.0
C951 C 0.88914 0.71278 0.35316 0.0
C952 C 0.86204 0.71387 0.39878 0.0
C953 C 0.8758 0.7388 0.34431 0.0
C954 C 0.85611 0.75268 0.36278 0.0
C955 C 0.83443 0.75691 0.41083 0.0
C956 C 0.83294 0.74737 0.43991 0.0
C957 C 0.84998 0.74087 0.3904 0.0
C958 C 0.84278 0.71959 0.44759 0.0
C959 C 0.85683 0.70256 0.42682 0.0
H960 H 0.30198 0.91926 0.36546 0.0
H961 H 0.23823 0.96542 0.31385 0.0
H962 H 0.20186 0.92851 0.32584 0.0
H963 H 0.18713 0.88677 0.35473 0.0
H964 H 0.24874 0.8438 0.41137 0.0
H965 H 0.28768 0.87497 0.39225 0.0
C966 C 0.28019 0.92108 0.35661 0.0
C967 C 0.27261 0.94519 0.3391 0.0
C968 C 0.25926 0.90021 0.36416 0.0
C969 C 0.24437 0.94732 0.32778 0.0
C970 C 0.22368 0.92615 0.33443 0.0
C971 C 0.20916 0.88386 0.36269 0.0
C972 C 0.21496 0.86344 0.38489 0.0
C973 C 0.23075 0.90298 0.35314 0.0
C974 C 0.2437 0.85944 0.39437 0.0
C975 C 0.26585 0.87753 0.38374 0.0
H976 H 0.14012 0.73823 0.51454 0.0
H977 H 0.07467 0.8012 0.53838 0.0
H978 H 0.05193 0.76601 0.57088 0.0
H979 H 0.04912 0.71681 0.59112 0.0
H980 H 0.11332 0.65304 0.56655 0.0
H981 H 0.13827 0.68917 0.53632 0.0
C982 C 0.12084 0.74416 0.52677 0.0
C983 C 0.10917 0.77225 0.52394 0.0
C984 C 0.10776 0.7238 0.5456 0.0
C985 C 0.08426 0.77973 0.54018 0.0
C986 C 0.07119 0.75965 0.55886 0.0
C987 C 0.06892 0.71102 0.57964 0.0
C988 C 0.07938 0.68241 0.58108 0.0
C989 C 0.08269 0.73162 0.5617 0.0
C990 C 0.10482 0.67502 0.56572 0.0
C991 C 0.11901 0.69559 0.5483 0.0
H992 H 0.27034 0.06117 0.66024 0.0
H993 H 0.22155 0.98616 0.63263 0.0
H994 H 0.18315 0.01813 0.6136 0.0
H995 H 0.16966 0.06661 0.59609 0.0
H996 H 0.22251 0.14113 0.61822 0.0
H997 H 0.25364 0.10998 0.6481 0.0
C998 C 0.25084 0.05188 0.65073 0.0
C999 C 0.24873 0.02162 0.64718 0.0
C1000 C 0.23024 0.07027 0.63822 0.0
C1001 C 0.22343 0.00947 0.63545 0.0
C1002 C 0.20183 0.02776 0.62423 0.0
C1003 C 0.18771 0.07623 0.60778 0.0
C1004 C 0.19423 0.10607 0.60443 0.0
C1005 C 0.20597 0.0581 0.62402 0.0
C1006 C 0.21745 0.11815 0.61999 0.0
C1007 C 0.23513 0.10039 0.63714 0.0
H1008 H 0.83834 0.18143 0.56768 0.0
H1009 H 0.83081 0.25236 0.50579 0.0
H1010 H 0.84563 0.28666 0.54351 0.0
H1011 H 0.8656 0.29522 0.5918 0.0
H1012 H 0.87764 0.22338 0.65183 0.0
H1013 H 0.8558 0.19029 0.61657 0.0
C1014 C 0.8396 0.20442 0.56231 0.0
C1015 C 0.83378 0.21432 0.5338 0.0
C1016 C 0.84907 0.22364 0.58362 0.0
C1017 C 0.83535 0.2442 0.52748 0.0
C1018 C 0.84388 0.26374 0.54899 0.0
C1019 C 0.86302 0.2724 0.59749 0.0
C1020 C 0.87329 0.26167 0.62439 0.0
C1021 C 0.85152 0.25351 0.57683 0.0
C1022 C 0.87003 0.23206 0.63123 0.0
C1023 C 0.85761 0.21321 0.61109 0.0
H1024 H 0.68393 0.93251 0.60368 0.0
H1025 H 0.75613 0.98383 0.63471 0.0
H1026 H 0.79019 0.94761 0.61554 0.0
H1027 H 0.79897 0.90267 0.58868 0.0
H1028 H 0.72642 0.8517 0.55769 0.0
H1029 H 0.69259 0.88659 0.57907 0.0
C1030 C 0.70714 0.93603 0.60608 0.0
C1031 C 0.71759 0.96113 0.62007 0.0
C1032 C 0.72633 0.9151 0.59544 0.0
C1033 C 0.74764 0.96485 0.62373 0.0
C1034 C 0.76703 0.94414 0.61289 0.0
C1035 C 0.77574 0.89901 0.58671 0.0
C1036 C 0.76519 0.87473 0.57134 0.0
C1037 C 0.75654 0.91933 0.59856 0.0
C1038 C 0.73508 0.87014 0.56941 0.0
C1039 C 0.71577 0.89019 0.58141 0.0
H1040 H 0.47491 0.09607 0.25625 0.0
H1041 H 0.4625 0.18438 0.28413 0.0
H1042 H 0.41712 0.17016 0.30888 0.0
H1043 H 0.37602 0.13477 0.31242 0.0
H1044 H 0.38389 0.05243 0.26829 0.0
H1045 H 0.43457 0.0627 0.25726 0.0
C1046 C 0.46268 0.11197 0.2687 0.0
C1047 C 0.47155 0.14119 0.26802 0.0
C1048 C 0.43458 0.10504 0.27773 0.0
C1049 C 0.45606 0.16169 0.28439 0.0
C1050 C 0.42963 0.15375 0.29759 0.0
C1051 C 0.38887 0.11935 0.3001 0.0
C1052 C 0.37624 0.09304 0.29097 0.0
C1053 C 0.41774 0.126 0.29249 0.0
C1054 C 0.3929 0.07314 0.27494 0.0
C1055 C 0.42206 0.0787 0.26917 0.0
H1056 H 0.92051 0.35471 0.31382 0.0
H1057 H -0.00561 0.35554 0.25553 0.0
H1058 H 0.96216 0.36783 0.21491 0.0
H1059 H 0.91512 0.38564 0.19822 0.0
H1060 H 0.8425 0.39046 0.25795 0.0
H1061 H 0.87248 0.36841 0.29611 0.0
C1062 C 0.92966 0.35725 0.29218 0.0
C1063 C 0.95998 0.35489 0.2878 0.0
C1064 C 0.91134 0.36568 0.26943 0.0
C1065 C 0.97124 0.35747 0.25952 0.0
C1066 C 0.95284 0.36472 0.23639 0.0
C1067 C 0.90555 0.38164 0.21946 0.0
C1068 C 0.87664 0.39025 0.22537 0.0
C1069 C 0.92315 0.37008 0.24144 0.0
C1070 C 0.86469 0.38437 0.2529 0.0
C1071 C 0.88185 0.37184 0.2747 0.0
H1072 H 0.54905 0.90924 0.29674 0.0
H1073 H 0.62719 0.91593 0.24455 0.0
H1074 H 0.60261 0.89199 0.20444 0.0
H1075 H 0.55897 0.8714 0.18352 0.0
H1076 H 0.47999 0.86497 0.23402 0.0
H1077 H 0.50527 0.88607 0.27605 0.0
C1078 C 0.56074 0.90545 0.2766 0.0
C1079 C 0.58991 0.91463 0.2736 0.0
C1080 C 0.54646 0.89161 0.25354 0.0
C1081 C 0.60477 0.90923 0.24747 0.0
C1082 C 0.59075 0.89551 0.22451 0.0
C1083 C 0.5472 0.87452 0.20375 0.0
C1084 C 0.51758 0.86706 0.20565 0.0
C1085 C 0.56161 0.88695 0.22726 0.0
C1086 C 0.50282 0.87057 0.23213 0.0
C1087 C 0.5172 0.88281 0.25598 0.0
H1088 H 0.04648 0.63997 0.26579 0.0
H1089 H 0.02183 0.69365 0.19254 0.0
H1090 H 0.07012 0.68619 0.17075 0.0
H1091 H 0.11361 0.65535 0.16791 0.0
H1092 H 0.13408 0.59639 0.23845 0.0
H1093 H 0.09411 0.61645 0.26702 0.0
C1094 C 0.05183 0.65045 0.24524 0.0
C1095 C 0.03044 0.66653 0.23015 0.0
C1096 C 0.07901 0.64527 0.23266 0.0
C1097 C 0.03784 0.68079 0.20415 0.0
C1098 C 0.06538 0.67646 0.19178 0.0
C1099 C 0.10996 0.64763 0.18999 0.0
C1100 C 0.12608 0.62367 0.20069 0.0
C1101 C 0.08543 0.65746 0.20514 0.0
C1102 C 0.12182 0.6145 0.22956 0.0
C1103 C 0.09855 0.62559 0.24566 0.0
H1104 H 0.43275 0.8404 0.77768 0.0
H1105 H 0.50034 0.84143 0.71212 0.0
H1106 H 0.46752 0.86672 0.67856 0.0
H1107 H 0.42052 0.88973 0.66878 0.0
H1108 H 0.35387 0.89002 0.73525 0.0
H1109 H 0.38587 0.86261 0.76778 0.0
C1110 C 0.44046 0.84596 0.75602 0.0
C1111 C 0.46906 0.83902 0.74743 0.0
C1112 C 0.42171 0.86066 0.73712 0.0
C1113 C 0.47848 0.84654 0.71929 0.0
C1114 C 0.45974 0.86098 0.70013 0.0
C1115 C 0.4128 0.88356 0.69028 0.0
C1116 C 0.38478 0.89181 0.69958 0.0
C1117 C 0.43141 0.86828 0.70894 0.0
C1118 C 0.37532 0.88396 0.72761 0.0
C1119 C 0.39359 0.86832 0.74618 0.0
H1120 H 0.05238 0.31687 0.71391 0.0
H1121 H 0.9833 0.32469 0.7772 0.0
H1122 H 0.01749 0.34671 0.81147 0.0
H1123 H 0.06402 0.37086 0.81963 0.0
H1124 H 0.13126 0.3682 0.75376 0.0
H1125 H 0.10034 0.33706 0.7239 0.0
C1126 C 0.04479 0.32299 0.73538 0.0
C1127 C 0.01515 0.31978 0.74282 0.0
C1128 C 0.06403 0.33708 0.7541 0.0
C1129 C 0.00591 0.32707 0.77092 0.0
C1130 C 0.02538 0.33996 0.79033 0.0
C1131 C 0.07222 0.36332 0.79887 0.0
C1132 C 0.09983 0.37238 0.78868 0.0
C1133 C 0.05405 0.34628 0.78154 0.0
C1134 C 0.11004 0.36192 0.76194 0.0
C1135 C 0.09237 0.34411 0.74491 0.0
H1136 H 0.62518 0.04581 0.7536 0.0
H1137 H 0.61889 0.13278 0.71858 0.0
H1138 H 0.58174 0.14488 0.75476 0.0
H1139 H 0.5471 0.12865 0.79211 0.0
H1140 H 0.55114 0.04036 0.82473 0.0
H1141 H 0.59263 0.03047 0.79308 0.0
C1142 C 0.61651 0.06775 0.7548 0.0
C1143 C 0.625 0.08864 0.73408 0.0
C1144 C 0.59391 0.07384 0.7743 0.0
C1145 C 0.61299 0.11668 0.7349 0.0
C1146 C 0.5914 0.12336 0.75515 0.0
C1147 C 0.55687 0.10716 0.79209 0.0
C1148 C 0.54575 0.08512 0.81033 0.0
C1149 C 0.58085 0.10171 0.77409 0.0
C1150 C 0.55911 0.0576 0.8106 0.0
C1151 C 0.58297 0.05199 0.79273 0.0
H1152 H 0.94598 0.62989 0.71677 0.0
H1153 H 0.91956 0.5609 0.65919 0.0
H1154 H 0.88405 0.5439 0.69453 0.0
H1155 H 0.86095 0.54747 0.7424 0.0
H1156 H 0.88817 0.61474 0.80126 0.0
H1157 H 0.92213 0.63385 0.76484 0.0
C1158 C 0.93257 0.61106 0.71213 0.0
C1159 C 0.93545 0.59684 0.68534 0.0
C1160 C 0.91186 0.60129 0.73262 0.0
C1161 C 0.91772 0.5725 0.67955 0.0
C1162 C 0.89727 0.5627 0.69972 0.0
C1163 C 0.87384 0.5667 0.74691 0.0
C1164 C 0.87189 0.57986 0.77423 0.0
C1165 C 0.89402 0.57696 0.72628 0.0
C1166 C 0.88923 0.60437 0.78019 0.0
C1167 C 0.90881 0.61517 0.75949 0.0
H1168 H 0.24442 0.47776 0.14444 0.0
H1169 H 0.17681 0.44611 0.08761 0.0
H1170 H 0.20924 0.40903 0.06897 0.0
H1171 H 0.25728 0.38623 0.06718 0.0
H1172 H 0.32575 0.41831 0.12239 0.0
H1173 H 0.29254 0.45393 0.14346 0.0
C1174 C 0.23686 0.46283 0.12792 0.0
C1175 C 0.20817 0.46485 0.11759 0.0
C1176 C 0.25571 0.44126 0.11711 0.0
C1177 C 0.19872 0.4451 0.09622 0.0
C1178 C 0.21724 0.42375 0.08547 0.0
C1179 C 0.26474 0.40061 0.08424 0.0
C1180 C 0.29384 0.39952 0.09328 0.0
C1181 C 0.24577 0.42159 0.09571 0.0
C1182 C 0.30337 0.4187 0.11506 0.0
C1183 C 0.28445 0.43921 0.12702 0.0
H1184 H 0.30123 0.58734 0.8436 0.0
H1185 H 0.23017 0.64281 0.87026 0.0
H1186 H 0.1954 0.60607 0.85421 0.0
H1187 H 0.18576 0.55618 0.8398 0.0
H1188 H 0.25633 0.49856 0.8177 0.0
H1189 H 0.29114 0.53872 0.82429 0.0
C1190 C 0.27813 0.59179 0.84541 0.0
C1191 C 0.26829 0.61775 0.85853 0.0
C1192 C 0.25838 0.57012 0.83727 0.0
C1193 C 0.2383 0.623 0.86054 0.0
C1194 C 0.21846 0.60196 0.85146 0.0
C1195 C 0.2088 0.55245 0.83615 0.0
C1196 C 0.21875 0.52441 0.82899 0.0
C1197 C 0.22836 0.5751 0.84097 0.0
C1198 C 0.24836 0.51995 0.82344 0.0
C1199 C 0.26814 0.54282 0.82741 0.0
H1200 H 0.39181 0.16434 0.94242 0.0
H1201 H 0.41887 0.21459 0.86727 0.0
H1202 H 0.40219 0.25905 0.89049 0.0
H1203 H 0.38251 0.28391 0.93252 0.0
H1204 H 0.35592 0.23501 0.00864 0.0
H1205 H 0.3698 0.18963 0.98446 0.0
C1206 C 0.39367 0.18496 0.93093 0.0
C1207 C 0.40666 0.18605 0.90307 0.0
C1208 C 0.38441 0.21067 0.94465 0.0
C1209 C 0.40911 0.21304 0.88869 0.0
C1210 C 0.39962 0.23852 0.90199 0.0
C1211 C 0.37968 0.26341 0.94403 0.0
C1212 C 0.36843 0.26301 0.97259 0.0
C1213 C 0.38773 0.23762 0.9301 0.0
C1214 C 0.36462 0.23605 0.98674 0.0
C1215 C 0.37257 0.2101 0.9729 0.0
H1216 H 0.7906 0.43283 0.89701 0.0
H1217 H 0.73266 0.44969 0.82491 0.0
H1218 H 0.71588 0.39908 0.82706 0.0
H1219 H 0.71343 0.35256 0.85344 0.0
H1220 H 0.76829 0.33784 0.92812 0.0
H1221 H 0.79254 0.38439 0.91925 0.0
C1222 C 0.77413 0.42565 0.88179 0.0
C1223 C 0.76216 0.4454 0.86137 0.0
C1224 C 0.76491 0.3966 0.88297 0.0
C1225 C 0.74165 0.4352 0.84127 0.0
C1226 C 0.73235 0.4062 0.84228 0.0
C1227 C 0.73154 0.35904 0.86707 0.0
C1228 C 0.73857 0.3421 0.89184 0.0
C1229 C 0.74343 0.38693 0.86342 0.0
C1230 C 0.76237 0.3504 0.90898 0.0
C1231 C 0.77565 0.37746 0.9044 0.0
H1232 H 0.63887 0.70788 0.94095 0.0
H1233 H 0.54816 0.68854 0.9553 0.0
H1234 H 0.53544 0.71323 0.90973 0.0
H1235 H 0.55068 0.73688 0.86414 0.0
H1236 H 0.64116 0.75716 0.85004 0.0
H1237 H 0.65379 0.73421 0.89664 0.0
C1238 C 0.61625 0.71001 0.93454 0.0
C1239 C 0.5944 0.69691 0.9515 0.0
C1240 C 0.60931 0.72302 0.90776 0.0
C1241 C 0.56522 0.69897 0.94267 0.0
C1242 C 0.55803 0.71256 0.91642 0.0
C1243 C 0.57323 0.73555 0.87102 0.0
C1244 C 0.59517 0.74766 0.85346 0.0
C1245 C 0.58002 0.72372 0.89834 0.0
C1246 C 0.62414 0.74711 0.863 0.0
C1247 C 0.63124 0.7345 0.88978 0.0
H1248 H 0.77532 0.55484 0.12973 0.0
H1249 H 0.71801 0.48334 0.15078 0.0
H1250 H 0.67645 0.51138 0.13193 0.0
H1251 H 0.65805 0.55396 0.10489 0.0
H1252 H 0.71651 0.62458 0.08292 0.0
H1253 H 0.75621 0.59908 0.1073 0.0
C1254 C 0.75367 0.5454 0.13035 0.0
C1255 C 0.74968 0.51686 0.141 0.0
C1256 C 0.73029 0.56144 0.11933 0.0
C1257 C 0.72153 0.50518 0.14247 0.0
C1258 C 0.69791 0.52117 0.1316 0.0
C1259 C 0.67937 0.56404 0.1057 0.0
C1260 C 0.68434 0.59106 0.09163 0.0
C1261 C 0.70223 0.549 0.11928 0.0
C1262 C 0.71204 0.60384 0.09335 0.0
C1263 C 0.7348 0.58919 0.10717 0.0
H1264 H 0.38735 0.82238 0.03754 0.0
H1265 H 0.38523 0.76078 0.10908 0.0
H1266 H 0.35816 0.7266 0.07893 0.0
H1267 H 0.33924 0.7127 0.03157 0.0
H1268 H 0.34431 0.77236 0.95874 0.0
H1269 H 0.36539 0.80947 -0.00938 0.0
C1270 C 0.3807 0.80163 0.04679 0.0
C1271 C 0.38854 0.79412 0.07564 0.0
C1272 C 0.36564 0.78189 0.02915 0.0
C1273 C 0.37973 0.76708 0.08701 0.0
C1274 C 0.36421 0.74756 0.06978 0.0
C1275 C 0.34465 0.73394 0.0226 0.0
C1276 C 0.34056 0.73965 -0.00733 0.0
C1277 C 0.35766 0.75453 0.04071 0.0
C1278 C 0.34718 0.76743 0.98163 0.0
C1279 C 0.3595 0.78849 -0.00018 0.0
H1280 H 0.61481 0.18777 0.11367 0.0
H1281 H 0.55616 0.25764 0.13621 0.0
H1282 H 0.57496 0.28661 0.0955 0.0
H1283 H 0.6059 0.29093 0.05284 0.0
H1284 H 0.66446 0.22117 0.02963 0.0
H1285 H 0.64692 0.19269 0.07141 0.0
C1286 C 0.60621 0.20945 0.10995 0.0
C1287 C 0.58396 0.2205 0.12801 0.0
C1288 C 0.61662 0.22562 0.0862 0.0
C1289 C 0.57332 0.24867 0.12282 0.0
C1290 C 0.58388 0.2651 0.09939 0.0
C1291 C 0.6149 0.26942 0.05662 0.0
C1292 C 0.63643 0.25812 0.03785 0.0
C1293 C 0.60511 0.25353 0.08073 0.0
C1294 C 0.6478 0.23032 0.04352 0.0
C1295 C 0.63789 0.21415 0.06749 0.0
H1296 H 0.90152 0.67077 0.5926 0.0
H1297 H 0.97372 0.72884 0.60722 0.0
H1298 H 0.94187 0.7709 0.59901 0.0
H1299 H 0.89465 0.79047 0.58351 0.0
H1300 H 0.82277 0.73176 0.56875 0.0
H1301 H 0.85331 0.69048 0.58219 0.0
C1302 C 0.9103 0.69266 0.59391 0.0
C1303 C 0.93996 0.69684 0.59979 0.0
C1304 C 0.89189 0.7165 0.58957 0.0
C1305 C 0.95095 0.72522 0.60235 0.0
C1306 C 0.93276 0.74918 0.59776 0.0
C1307 C 0.88539 0.76875 0.58396 0.0
C1308 C 0.85652 0.76419 0.57482 0.0
C1309 C 0.90329 0.74502 0.59092 0.0
C1310 C 0.84496 0.73586 0.57548 0.0
C1311 C 0.86247 0.71222 0.58293 0.0
H1312 H 0.30843 0.87924 0.56968 0.0
H1313 H 0.24668 0.89435 0.63904 0.0
H1314 H 0.20822 0.87266 0.61001 0.0
H1315 H 0.19097 0.85569 0.56295 0.0
H1316 H 0.25177 0.84159 0.49287 0.0
H1317 H 0.29203 0.85644 0.52443 0.0
C1318 C 0.28667 0.87741 0.57869 0.0
C1319 C 0.28036 0.88901 0.60629 0.0
C1320 C 0.2645 0.86543 0.56167 0.0
C1321 C 0.25214 0.88595 0.61776 0.0
C1322 C 0.23007 0.87365 0.60113 0.0
C1323 C 0.2131 0.85561 0.55468 0.0
C1324 C 0.21849 0.84821 0.52557 0.0
C1325 C 0.23583 0.86438 0.57273 0.0
C1326 C 0.2472 0.84742 0.51521 0.0
C1327 C 0.27012 0.85602 0.53319 0.0
H1328 H 0.04034 0.28822 0.62243 0.0
H1329 H -0.00597 0.21391 0.65732 0.0
H1330 H 0.03462 0.18222 0.64334 0.0
H1331 H 0.08101 0.17578 0.61807 0.0
H1332 H 0.12591 0.25038 0.58166 0.0
H1333 H 0.08812 0.28234 0.60069 0.0
C1334 C 0.03888 0.26502 0.62682 0.0
C1335 C 0.01387 0.25317 0.64012 0.0
C1336 C 0.06212 0.24728 0.61897 0.0
C1337 C 0.01286 0.22334 0.64663 0.0
C1338 C 0.03606 0.20535 0.63879 0.0
C1339 C 0.08282 0.19908 0.61455 0.0
C1340 C 0.10602 0.21066 0.59797 0.0
C1341 C 0.06054 0.21711 0.62455 0.0
C1342 C 0.10827 0.24091 0.5942 0.0
C1343 C 0.08652 0.25913 0.60479 0.0
H1344 H 0.78955 0.11706 0.55084 0.0
H1345 H 0.71768 0.13777 0.49422 0.0
H1346 H 0.68348 0.12969 0.5348 0.0
H1347 H 0.6746 0.11179 0.58463 0.0
H1348 H 0.7474 0.08996 0.64006 0.0
H1349 H 0.7811 0.10439 0.60154 0.0
C1350 C 0.76634 0.11969 0.54735 0.0
C1351 C 0.75581 0.12697 0.51958 0.0
C1352 C 0.74726 0.11521 0.57052 0.0
C1353 C 0.72598 0.13156 0.51542 0.0
C1354 C 0.7066 0.12705 0.53857 0.0
C1355 C 0.69784 0.11089 0.5886 0.0
C1356 C 0.70855 0.09951 0.61508 0.0
C1357 C 0.71704 0.11826 0.56603 0.0
C1358 C 0.73868 0.09842 0.61982 0.0
C1359 C 0.75791 0.10645 0.59776 0.0
H1360 H 0.92014 0.19081 0.39366 0.0
H1361 H 0.84831 0.24915 0.41026 0.0
H1362 H 0.88074 0.29081 0.40442 0.0
H1363 H 0.9295 0.3104 0.39729 0.0
H1364 H 0.00146 0.25277 0.37974 0.0
H1365 H 0.96877 0.2107 0.38405 0.0
C1366 C 0.91138 0.21262 0.39564 0.0
C1367 C 0.88174 0.21676 0.40257 0.0
C1368 C 0.93024 0.23645 0.39281 0.0
C1369 C 0.87091 0.24524 0.40489 0.0
C1370 C 0.88952 0.26908 0.40184 0.0
C1371 C 0.93822 0.28862 0.3948 0.0
C1372 C 0.96801 0.2846 0.38888 0.0
C1373 C 0.91927 0.26486 0.39648 0.0
C1374 C 0.9787 0.25633 0.38474 0.0
C1375 C 0.95999 0.23237 0.38699 0.0
H1376 H 0.69761 0.87335 0.35003 0.0
H1377 H 0.6376 0.88998 0.42021 0.0
H1378 H 0.66798 0.86175 0.45358 0.0
H1379 H 0.71618 0.84112 0.46441 0.0
H1380 H 0.77656 0.82633 0.39386 0.0
H1381 H 0.74132 0.84481 0.35907 0.0
C1382 C 0.69085 0.87013 0.37247 0.0
C1383 C 0.66594 0.88417 0.38289 0.0
C1384 C 0.70875 0.8547 0.39161 0.0
C1385 C 0.65691 0.87945 0.41178 0.0
C1386 C 0.6744 0.86357 0.43094 0.0
C1387 C 0.72137 0.84138 0.44137 0.0
C1388 C 0.74926 0.83336 0.43187 0.0
C1389 C 0.70114 0.85247 0.42139 0.0
C1390 C 0.75551 0.83324 0.40188 0.0
C1391 C 0.73537 0.84372 0.38189 0.0
H1392 H 0.05752 0.69736 0.33603 0.0
H1393 H 0.00238 0.76882 0.30929 0.0
H1394 H 0.03406 0.80293 0.33459 0.0
H1395 H 0.07521 0.81185 0.36608 0.0
H1396 H 0.12931 0.74051 0.39533 0.0
H1397 H 0.09997 0.70665 0.36679 0.0
C1398 C 0.05262 0.72045 0.3354 0.0
C1399 C 0.02767 0.73063 0.32082 0.0
C1400 C 0.07051 0.73977 0.35046 0.0
C1401 C 0.0214 0.76051 0.32048 0.0
C1402 C 0.03947 0.77997 0.33491 0.0
C1403 C 0.0809 0.78894 0.36616 0.0
C1404 C 0.10442 0.7787 0.38292 0.0
C1405 C 0.06377 0.76973 0.35028 0.0
C1406 C 0.11127 0.74892 0.3827 0.0
C1407 C 0.09452 0.7296 0.36642 0.0
H1408 H 0.20082 0.13698 0.43017 0.0
H1409 H 0.25801 0.12514 0.50387 0.0
H1410 H 0.28972 0.09422 0.47413 0.0
H1411 H 0.30096 0.07165 0.42722 0.0
H1412 H 0.2429 0.08406 0.35417 0.0
H1413 H 0.21093 0.11348 0.38447 0.0
C1414 C 0.22032 0.12792 0.43992 0.0
C1415 C 0.2273 0.13372 0.46917 0.0
C1416 C 0.23791 0.11007 0.42301 0.0
C1417 C 0.25238 0.12129 0.48135 0.0
C1418 C 0.27034 0.10353 0.46441 0.0
C1419 C 0.28125 0.08064 0.41784 0.0
C1420 C 0.27446 0.07588 0.38829 0.0
C1421 C 0.26325 0.09787 0.43522 0.0
C1422 C 0.24868 0.08744 0.37674 0.0
C1423 C 0.23051 0.10438 0.39399 0.0
H1424 H 0.60781 0.89528 0.80319 0.0
H1425 H 0.61135 0.83227 0.73383 0.0
H1426 H 0.63949 0.86641 0.70412 0.0
H1427 H 0.65608 0.91607 0.69539 0.0
H1428 H 0.64834 0.98056 0.76275 0.0
H1429 H 0.62972 0.94334 0.79641 0.0
C1430 C 0.61491 0.88881 0.78167 0.0
C1431 C 0.60686 0.86151 0.77041 0.0
C1432 C 0.63041 0.90872 0.76454 0.0
C1433 C 0.61683 0.85331 0.74279 0.0
C1434 C 0.63295 0.87278 0.72584 0.0
C1435 C 0.65083 0.92184 0.71765 0.0
C1436 C 0.65289 0.95097 0.72656 0.0
C1437 C 0.63884 0.90084 0.73614 0.0
C1438 C 0.64679 0.95822 0.7555 0.0
C1439 C 0.63582 0.93705 0.77454 0.0
H1440 H 0.0837 0.54123 0.65642 0.0
H1441 H 0.07371 0.61825 0.70886 0.0
H1442 H 0.09799 0.59394 0.74938 0.0
H1443 H 0.11947 0.55047 0.77077 0.0
H1444 H 0.12808 0.47232 0.7198 0.0
H1445 H 0.10708 0.49763 0.67772 0.0
C1446 C 0.08717 0.55283 0.67659 0.0
C1447 C 0.07685 0.58157 0.67956 0.0
C1448 C 0.10074 0.53852 0.70009 0.0
C1449 C 0.08128 0.59613 0.70597 0.0
C1450 C 0.09517 0.58224 0.72918 0.0
C1451 C 0.11701 0.53886 0.75046 0.0
C1452 C 0.12531 0.5094 0.7486 0.0
C1453 C 0.10457 0.55334 0.72661 0.0
C1454 C 0.1219 0.49494 0.72195 0.0
C1455 C 0.10983 0.50941 0.69788 0.0
H1456 H 0.3787 0.05734 0.82273 0.0
H1457 H 0.42312 0.12009 0.76796 0.0
H1458 H 0.4019 0.09777 0.72485 0.0
H1459 H 0.37408 0.05856 0.70293 0.0
H1460 H 0.33147 -0.00561 0.75755 0.0
H1461 H 0.34886 0.01948 0.80084 0.0
C1462 C 0.38348 0.06649 0.80143 0.0
C1463 C 0.40261 0.0903 0.79856 0.0
C1464 C 0.37184 0.05316 0.77681 0.0
C1465 C 0.40859 0.10171 0.77076 0.0
C1466 C 0.39654 0.08892 0.74612 0.0
C1467 C 0.36839 0.05001 0.72426 0.0
C1468 C 0.3517 0.02442 0.72696 0.0
C1469 C 0.3787 0.06427 0.74893 0.0
C1470 C 0.34444 0.01392 0.75482 0.0
C1471 C 0.35435 0.02825 0.77957 0.0
H1472 H 0.85482 0.41046 0.81655 0.0
H1473 H 0.81037 0.45646 0.74743 0.0
H1474 H 0.81802 0.41511 0.71507 0.0
H1475 H 0.84236 0.36938 0.70508 0.0
H1476 H 0.89368 0.32715 0.77161 0.0
H1477 H 0.87636 0.36257 0.80731 0.0
C1478 C 0.84655 0.41135 0.79446 0.0
C1479 C 0.83239 0.4366 0.78414 0.0
C1480 C 0.85173 0.38794 0.77591 0.0
C1481 C 0.8218 0.43748 0.75558 0.0
C1482 C 0.82592 0.41378 0.73725 0.0
C1483 C 0.84932 0.36754 0.72758 0.0
C1484 C 0.86979 0.34617 0.73564 0.0
C1485 C 0.84151 0.38933 0.74702 0.0
C1486 C 0.87802 0.34346 0.7649 0.0
C1487 C 0.86857 0.36405 0.78511 0.0
H1488 H 0.62156 0.10187 0.19632 0.0
H1489 H 0.59238 0.15415 0.26842 0.0
H1490 H 0.62053 0.1235 0.30194 0.0
H1491 H 0.64413 0.07675 0.31109 0.0
H1492 H 0.66535 0.02015 0.23944 0.0
H1493 H 0.64922 0.05769 0.20501 0.0
C1494 C 0.62163 0.10687 0.21936 0.0
C1495 C 0.60426 0.12967 0.2301 0.0
C1496 C 0.63592 0.08805 0.23844 0.0
C1497 C 0.60535 0.13654 0.25974 0.0
C1498 C 0.62116 0.11882 0.27887 0.0
C1499 C 0.64588 0.0728 0.28791 0.0
C1500 C 0.65561 0.04562 0.27769 0.0
C1501 C 0.6351 0.09367 0.26854 0.0
C1502 C 0.65764 0.04079 0.2477 0.0
C1503 C 0.64843 0.0622 0.22812 0.0
H1504 H 0.85188 0.62308 0.27834 0.0
H1505 H 0.92979 0.61599 0.22629 0.0
H1506 H 0.91675 0.56613 0.21355 0.0
H1507 H 0.88242 0.52574 0.21571 0.0
H1508 H 0.80074 0.53535 0.26042 0.0
H1509 H 0.81702 0.58224 0.27999 0.0
C1510 C 0.86571 0.61072 0.2638 0.0
C1511 C 0.89146 0.62329 0.25281 0.0
C1512 C 0.85801 0.5822 0.25653 0.0
C1513 C 0.90945 0.60708 0.23429 0.0
C1514 C 0.90232 0.5784 0.22754 0.0
C1515 C 0.86852 0.53783 0.23031 0.0
C1516 C 0.84065 0.5272 0.23693 0.0
C1517 C 0.87671 0.56583 0.23858 0.0
C1518 C 0.82261 0.54288 0.25575 0.0
C1519 C 0.83162 0.56997 0.26618 0.0
H1520 H 0.39012 0.93393 0.15134 0.0
H1521 H 0.37926 0.85534 0.20242 0.0
H1522 H 0.35502 0.88287 0.24048 0.0
H1523 H 0.34333 0.92971 0.26206 0.0
H1524 H 0.35625 0.00901 0.21327 0.0
H1525 H 0.37285 0.98079 0.17105 0.0
C1526 C 0.38187 0.92275 0.17051 0.0
C1527 C 0.38682 0.89268 0.17424 0.0
C1528 C 0.36853 0.93887 0.19269 0.0
C1529 C 0.37608 0.8785 0.19923 0.0
C1530 C 0.36221 0.89421 0.22099 0.0
C1531 C 0.34912 0.94067 0.24185 0.0
C1532 C 0.34872 0.97114 0.24043 0.0
C1533 C 0.35928 0.92445 0.21837 0.0
C1534 C 0.35623 0.98545 0.21447 0.0
C1535 C 0.36595 0.96934 0.19057 0.0
H1536 H 0.12699 0.44064 0.20594 0.0
H1537 H 0.14186 0.51736 0.25733 0.0
H1538 H 0.12664 0.49066 0.30133 0.0
H1539 H 0.10464 0.4469 0.32387 0.0
H1540 H 0.0897 0.37064 0.27138 0.0
H1541 H 0.10974 0.39585 0.22907 0.0
C1542 C 0.12717 0.45149 0.22684 0.0
C1543 C 0.13515 0.48104 0.22838 0.0
C1544 C 0.11827 0.43613 0.25175 0.0
C1545 C 0.13581 0.49464 0.25562 0.0
C1546 C 0.12694 0.47942 0.28069 0.0
C1547 C 0.10611 0.43558 0.3033 0.0
C1548 C 0.0953 0.40688 0.30088 0.0
C1549 C 0.11745 0.45034 0.27885 0.0
C1550 C 0.09764 0.39266 0.274 0.0
C1551 C 0.10903 0.40712 0.24971 0.0
H1552 H 0.68024 0.63194 0.9112 0.0
H1553 H 0.73602 0.63473 0.98669 0.0
H1554 H 0.77757 0.62058 0.95654 0.0
H1555 H 0.79605 0.6008 0.91055 0.0
H1556 H 0.73851 0.59318 0.83684 0.0
H1557 H 0.69946 0.61615 0.8646 0.0
C1558 C 0.70153 0.62987 0.92115 0.0
C1559 C 0.7049 0.63398 0.95132 0.0
C1560 C 0.72489 0.62066 0.904 0.0
C1561 C 0.73276 0.63154 0.9636 0.0
C1562 C 0.75648 0.62331 0.94638 0.0
C1563 C 0.77518 0.60485 0.9003 0.0
C1564 C 0.7701 0.59531 0.87167 0.0
C1565 C 0.75253 0.61686 0.9168 0.0
C1566 C 0.74286 0.60027 0.85885 0.0
C1567 C 0.72055 0.61329 0.87474 0.0
H1568 H 0.70834 0.33453 0.0698 0.0
H1569 H 0.77657 0.33056 0.00533 0.0
H1570 H 0.81076 0.35211 0.04008 0.0
H1571 H 0.81903 0.37761 0.08629 0.0
H1572 H 0.74908 0.38415 0.14891 0.0
H1573 H 0.71758 0.35601 0.11706 0.0
C1574 C 0.73079 0.33809 0.06335 0.0
C1575 C 0.73984 0.33144 0.03488 0.0
C1576 C 0.74981 0.35125 0.08295 0.0
C1577 C 0.7691 0.33556 0.0271 0.0
C1578 C 0.78852 0.34809 0.04687 0.0
C1579 C 0.79703 0.37253 0.09324 0.0
C1580 C 0.78634 0.3833 0.11989 0.0
C1581 C 0.7788 0.3569 0.0745 0.0
C1582 C 0.75779 0.37645 0.12844 0.0
C1583 C 0.73976 0.36034 0.11025 0.0
H1584 H 0.49033 0.73527 0.11394 0.0
H1585 H 0.5645 0.78735 0.13822 0.0
H1586 H 0.5973 0.74819 0.12488 0.0
H1587 H 0.60533 0.70245 0.09953 0.0
H1588 H 0.5321 0.64944 0.07508 0.0
H1589 H 0.49855 0.68536 0.0955 0.0
C1590 C 0.51359 0.73764 0.11702 0.0
C1591 C 0.52503 0.76431 0.12641 0.0
C1592 C 0.53255 0.71506 0.10886 0.0
C1593 C 0.55523 0.76716 0.13044 0.0
C1594 C 0.57405 0.74483 0.12279 0.0
C1595 C 0.58203 0.69859 0.09918 0.0
C1596 C 0.57109 0.67374 0.08558 0.0
C1597 C 0.56302 0.71924 0.11082 0.0
C1598 C 0.54094 0.66857 0.08553 0.0
C1599 C 0.52177 0.68915 0.09702 0.0
H1600 H 0.29192 0.62145 0.02819 0.0
H1601 H 0.22344 0.65701 0.97447 0.0
H1602 H 0.1874 0.64254 0.01138 0.0
H1603 H 0.17567 0.6182 0.05791 0.0
H1604 H 0.24506 0.58303 0.11095 0.0
H1605 H 0.28066 0.59935 0.075 0.0
C1606 C 0.26909 0.62598 0.02429 0.0
C1607 C 0.26033 0.6399 -0.00171 0.0
C1608 C 0.24877 0.61781 0.04551 0.0
C1609 C 0.23073 0.64617 -0.00586 0.0
C1610 C 0.21019 0.63789 0.01524 0.0
C1611 C 0.19859 0.61423 0.06179 0.0
C1612 C 0.20759 0.59919 0.08717 0.0
C1613 C 0.21899 0.62349 0.0409 0.0
C1614 C 0.23743 0.59448 0.09174 0.0
C1615 C 0.25782 0.60371 0.07112 0.0
H1616 H 0.36606 0.26764 0.1084 0.0
H1617 H 0.42879 0.33754 0.11352 0.0
H1618 H 0.45957 0.30826 0.14473 0.0
H1619 H 0.47194 0.26071 0.16593 0.0
H1620 H 0.40914 0.19102 0.16166 0.0
H1621 H 0.37538 0.22234 0.13554 0.0
C1622 C 0.38626 0.27657 0.11662 0.0
C1623 C 0.39514 0.30454 0.10799 0.0
C1624 C 0.40417 0.2596 0.1348 0.0
C1625 C 0.42133 0.31589 0.11932 0.0
C1626 C 0.43914 0.29918 0.1373 0.0
C1627 C 0.45059 0.25267 0.15996 0.0
C1628 C 0.4434 0.22348 0.1652 0.0
C1629 C 0.43122 0.27071 0.14454 0.0
C1630 C 0.41552 0.21335 0.15737 0.0
C1631 C 0.39613 0.2312 0.14233 0.0
H1632 H 0.18124 0.3811 0.91483 0.0
H1633 H 0.24088 0.39125 0.84266 0.0
H1634 H 0.28062 0.37337 0.87294 0.0
H1635 H 0.29912 0.35904 0.92038 0.0
H1636 H 0.24091 0.3507 -0.00623 0.0
H1637 H 0.19963 0.36331 0.96224 0.0
C1638 C 0.20282 0.37893 0.90553 0.0
C1639 C 0.20805 0.38766 0.87643 0.0
C1640 C 0.22578 0.3692 0.9233 0.0
C1641 C 0.23622 0.38487 0.86492 0.0
C1642 C 0.25898 0.37469 0.88225 0.0
C1643 C 0.27741 0.35985 0.92962 0.0
C1644 C 0.27318 0.35436 0.95956 0.0
C1645 C 0.25411 0.36752 0.91159 0.0
C1646 C 0.24479 0.3549 0.97087 0.0
C1647 C 0.22124 0.36224 0.95285 0.0
H1648 H 0.63022 0.21922 0.94318 0.0
H1649 H 0.62535 0.2614 0.85916 0.0
H1650 H 0.58507 0.22965 0.84538 0.0
H1651 H 0.54885 0.19253 0.85873 0.0
H1652 H 0.5534 0.15084 0.94299 0.0
H1653 H 0.59581 0.18031 0.95551 0.0
C1654 C 0.62092 0.22084 0.92154 0.0
C1655 C 0.63078 0.24242 0.90213 0.0
C1656 C 0.59711 0.20331 0.91421 0.0
C1657 C 0.61815 0.24475 0.87438 0.0
C1658 C 0.59492 0.22689 0.86663 0.0
C1659 C 0.55895 0.19024 0.87995 0.0
C1660 C 0.54786 0.17004 0.90013 0.0
C1661 C 0.58365 0.20674 0.88672 0.0
C1662 C 0.56151 0.16657 0.92726 0.0
C1663 C 0.58583 0.1832 0.93433 0.0
H1664 H 0.44253 0.78245 0.82917 0.0
H1665 H 0.46611 0.70665 0.77967 0.0
H1666 H 0.41683 0.68697 0.78645 0.0
H1667 H 0.37315 0.68611 0.81712 0.0
H1668 H 0.35386 0.75853 0.87304 0.0
H1669 H 0.39456 0.78582 0.85188 0.0
C1670 C 0.43662 0.76193 0.81924 0.0
C1671 C 0.45791 0.74543 0.80468 0.0
C1672 C 0.40898 0.75038 0.82444 0.0
C1673 C 0.45005 0.71936 0.79127 0.0
C1674 C 0.42199 0.70816 0.79529 0.0
C1675 C 0.37722 0.70837 0.82377 0.0
C1676 C 0.36122 0.72014 0.84709 0.0
C1677 C 0.40204 0.72268 0.81338 0.0
C1678 C 0.36603 0.74905 0.85526 0.0
C1679 C 0.38964 0.76436 0.84354 0.0
loop_
_geom_bond_atom_site_label_1
_geom_bond_atom_site_label_2
_geom_bond_distance
_geom_bond_site_symmetry_2
_ccdc_geom_bond_type
Sc0 O3 2.025 . S
Sc0 O10 2.105 1_455 S
Sc0 O13 2.105 . S
Sc0 O16 2.105 1_455 S
Sc0 O19 2.105 . S
Sc1 O3 2.025 . S
Sc1 O11 2.105 . S
Sc1 O15 2.105 . S
Sc1 O17 2.105 . S
Sc1 O21 2.105 . S
Sc2 O3 2.025 1_655 S
Sc2 O12 2.105 . S
Sc2 O14 2.105 . S
Sc2 O18 2.105 . S
Sc2 O20 2.105 . S
O3 Sc0 2.025 . S
O3 Sc1 2.025 . S
O3 Sc2 2.025 1_455 S
C4 O10 1.268 . S
C4 O20 1.268 . S
C5 O11 1.268 . S
C5 O19 1.268 . S
C6 O12 1.268 1_455 S
C6 O21 1.268 . S
C7 O13 1.268 . S
C7 O17 1.268 . S
C8 O14 1.268 . S
C8 O16 1.268 . S
C9 O15 1.268 . S
C9 O18 1.268 1_455 S
O10 Sc0 2.105 1_655 S
O10 C4 1.268 . S
O11 Sc1 2.105 . S
O11 C5 1.268 . S
O12 Sc2 2.105 . S
O12 C6 1.268 1_655 S
O13 Sc0 2.105 . S
O13 C7 1.268 . S
O14 Sc2 2.105 . S
O14 C8 1.268 . S
O15 Sc1 2.105 . S
O15 C9 1.268 . S
O16 Sc0 2.105 1_655 S
O16 C8 1.268 . S
O17 Sc1 2.105 . S
O17 C7 1.268 . S
O18 Sc2 2.105 . S
O18 C9 1.268 1_655 S
O19 Sc0 2.105 . S
O19 C5 1.268 . S
O20 Sc2 2.105 . S
O20 C4 1.268 . S
O21 Sc1 2.105 . S
O21 C6 1.268 . S
Sc22 O25 2.025 . S
Sc22 O32 2.105 . S
Sc22 O35 2.105 1_545 S
Sc22 O38 2.105 . S
Sc22 O41 2.105 1_545 S
Sc23 O25 2.025 1_565 S
Sc23 O33 2.105 . S
Sc23 O37 2.105 . S
Sc23 O39 2.105 . S
Sc23 O43 2.105 . S
Sc24 O25 2.025 . S
Sc24 O34 2.105 . S
Sc24 O36 2.105 . S
Sc24 O40 2.105 . S
Sc24 O42 2.105 . S
O25 Sc22 2.025 . S
O25 Sc23 2.025 1_545 S
O25 Sc24 2.025 . S
C26 O32 1.268 . S
C26 O42 1.268 . S
C27 O33 1.268 . S
C27 O41 1.268 . S
C28 O34 1.268 . S
C28 O43 1.268 1_545 S
C29 O35 1.268 . S
C29 O39 1.268 . S
C30 O36 1.268 . S
C30 O38 1.268 . S
C31 O37 1.268 1_545 S
C31 O40 1.268 . S
O32 Sc22 2.105 . S
O32 C26 1.268 . S
O33 Sc23 2.105 . S
O33 C27 1.268 . S
O34 Sc24 2.105 . S
O34 C28 1.268 . S
O35 Sc22 2.105 1_565 S
O35 C29 1.268 . S
O36 Sc24 2.105 . S
O36 C30 1.268 . S
O37 Sc23 2.105 . S
O37 C31 1.268 1_565 S
O38 Sc22 2.105 . S
O38 C30 1.268 . S
O39 Sc23 2.105 . S
O39 C29 1.268 . S
O40 Sc24 2.105 . S
O40 C31 1.268 . S
O41 Sc22 2.105 1_565 S
O41 C27 1.268 . S
O42 Sc24 2.105 . S
O42 C26 1.268 . S
O43 Sc23 2.105 . S
O43 C28 1.268 1_565 S
Sc44 O47 2.025 . S
Sc44 O54 2.105 . S
Sc44 O57 2.105 1_455 S
Sc44 O60 2.105 . S
Sc44 O63 2.105 1_455 S
Sc45 O47 2.025 1_655 S
Sc45 O55 2.105 . S
Sc45 O59 2.105 . S
Sc45 O61 2.105 . S
Sc45 O65 2.105 . S
Sc46 O47 2.025 . S
Sc46 O56 2.105 . S
Sc46 O58 2.105 . S
Sc46 O62 2.105 . S
Sc46 O64 2.105 . S
O47 Sc44 2.025 . S
O47 Sc45 2.025 1_455 S
O47 Sc46 2.025 . S
C48 O54 1.268 . S
C48 O64 1.268 . S
C49 O55 1.268 . S
C49 O63 1.268 . S
C50 O56 1.268 . S
C50 O65 1.268 1_455 S
C51 O57 1.268 . S
C51 O61 1.268 . S
C52 O58 1.268 . S
C52 O60 1.268 . S
C53 O59 1.268 1_455 S
C53 O62 1.268 . S
O54 Sc44 2.105 . S
O54 C48 1.268 . S
O55 Sc45 2.105 . S
O55 C49 1.268 . S
O56 Sc46 2.105 . S
O56 C50 1.268 . S
O57 Sc44 2.105 1_655 S
O57 C51 1.268 . S
O58 Sc46 2.105 . S
O58 C52 1.268 . S
O59 Sc45 2.105 . S
O59 C53 1.268 1_655 S
O60 Sc44 2.105 . S
O60 C52 1.268 . S
O61 Sc45 2.105 . S
O61 C51 1.268 . S
O62 Sc46 2.105 . S
O62 C53 1.268 . S
O63 Sc44 2.105 1_655 S
O63 C49 1.268 . S
O64 Sc46 2.105 . S
O64 C48 1.268 . S
O65 Sc45 2.105 . S
O65 C50 1.268 1_655 S
Sc66 O69 2.025 1_565 S
Sc66 O76 2.105 . S
Sc66 O79 2.105 . S
Sc66 O82 2.105 . S
Sc66 O85 2.105 . S
Sc67 O69 2.025 . S
Sc67 O77 2.105 . S
Sc67 O81 2.105 . S
Sc67 O83 2.105 . S
Sc67 O87 2.105 . S
Sc68 O69 2.025 . S
Sc68 O78 2.105 . S
Sc68 O80 2.105 1_545 S
Sc68 O84 2.105 . S
Sc68 O86 2.105 1_545 S
O69 Sc66 2.025 1_545 S
O69 Sc67 2.025 . S
O69 Sc68 2.025 . S
C70 O76 1.268 . S
C70 O86 1.268 . S
C71 O77 1.268 . S
C71 O85 1.268 1_545 S
C72 O78 1.268 . S
C72 O87 1.268 . S
C73 O79 1.268 1_545 S
C73 O83 1.268 . S
C74 O80 1.268 . S
C74 O82 1.268 . S
C75 O81 1.268 . S
C75 O84 1.268 . S
O76 Sc66 2.105 . S
O76 C70 1.268 . S
O77 Sc67 2.105 . S
O77 C71 1.268 . S
O78 Sc68 2.105 . S
O78 C72 1.268 . S
O79 Sc66 2.105 . S
O79 C73 1.268 1_565 S
O80 Sc68 2.105 1_565 S
O80 C74 1.268 . S
O81 Sc67 2.105 . S
O81 C75 1.268 . S
O82 Sc66 2.105 . S
O82 C74 1.268 . S
O83 Sc67 2.105 . S
O83 C73 1.268 . S
O84 Sc68 2.105 . S
O84 C75 1.268 . S
O85 Sc66 2.105 . S
O85 C71 1.268 1_565 S
O86 Sc68 2.105 1_565 S
O86 C70 1.268 . S
O87 Sc67 2.105 . S
O87 C72 1.268 . S
Sc88 O91 2.025 . S
Sc88 O98 2.105 . S
Sc88 O101 2.105 . S
Sc88 O104 2.105 . S
Sc88 O107 2.105 . S
Sc89 O91 2.025 1_655 S
Sc89 O99 2.105 . S
Sc89 O103 2.105 . S
Sc89 O105 2.105 . S
Sc89 O109 2.105 . S
Sc90 O91 2.025 . S
Sc90 O100 2.105 1_455 S
Sc90 O102 2.105 . S
Sc90 O106 2.105 1_455 S
Sc90 O108 2.105 . S
O91 Sc88 2.025 . S
O91 Sc89 2.025 1_455 S
O91 Sc90 2.025 . S
C92 O98 1.268 . S
C92 O108 1.268 . S
C93 O99 1.268 1_455 S
C93 O107 1.268 . S
C94 O100 1.268 . S
C94 O109 1.268 . S
C95 O101 1.268 . S
C95 O105 1.268 1_455 S
C96 O102 1.268 . S
C96 O104 1.268 . S
C97 O103 1.268 . S
C97 O106 1.268 . S
O98 Sc88 2.105 . S
O98 C92 1.268 . S
O99 Sc89 2.105 . S
O99 C93 1.268 1_655 S
O100 Sc90 2.105 1_655 S
O100 C94 1.268 . S
O101 Sc88 2.105 . S
O101 C95 1.268 . S
O102 Sc90 2.105 . S
O102 C96 1.268 . S
O103 Sc89 2.105 . S
O103 C97 1.268 . S
O104 Sc88 2.105 . S
O104 C96 1.268 . S
O105 Sc89 2.105 . S
O105 C95 1.268 1_655 S
O106 Sc90 2.105 1_655 S
O106 C97 1.268 . S
O107 Sc88 2.105 . S
O107 C93 1.268 . S
O108 Sc90 2.105 . S
O108 C92 1.268 . S
O109 Sc89 2.105 . S
O109 C94 1.268 . S
Sc110 O113 2.025 1_565 S
Sc110 O120 2.105 . S
Sc110 O123 2.105 . S
Sc110 O126 2.105 . S
Sc110 O129 2.105 . S
Sc111 O113 2.025 . S
Sc111 O121 2.105 . S
Sc111 O125 2.105 . S
Sc111 O127 2.105 . S
Sc111 O131 2.105 . S
Sc112 O113 2.025 . S
Sc112 O122 2.105 . S
Sc112 O124 2.105 1_545 S
Sc112 O128 2.105 . S
Sc112 O130 2.105 1_545 S
O113 Sc110 2.025 1_545 S
O113 Sc111 2.025 . S
O113 Sc112 2.025 . S
C114 O120 1.268 . S
C114 O130 1.268 . S
C115 O121 1.268 . S
C115 O129 1.268 1_545 S
C116 O122 1.268 . S
C116 O131 1.268 . S
C117 O123 1.268 1_545 S
C117 O127 1.268 . S
C118 O124 1.268 . S
C118 O126 1.268 . S
C119 O125 1.268 . S
C119 O128 1.268 . S
O120 Sc110 2.105 . S
O120 C114 1.268 . S
O121 Sc111 2.105 . S
O121 C115 1.268 . S
O122 Sc112 2.105 . S
O122 C116 1.268 . S
O123 Sc110 2.105 . S
O123 C117 1.268 1_565 S
O124 Sc112 2.105 1_565 S
O124 C118 1.268 . S
O125 Sc111 2.105 . S
O125 C119 1.268 . S
O126 Sc110 2.105 . S
O126 C118 1.268 . S
O127 Sc111 2.105 . S
O127 C117 1.268 . S
O128 Sc112 2.105 . S
O128 C119 1.268 . S
O129 Sc110 2.105 . S
O129 C115 1.268 1_565 S
O130 Sc112 2.105 1_565 S
O130 C114 1.268 . S
O131 Sc111 2.105 . S
O131 C116 1.268 . S
Sc132 O135 2.025 . S
Sc132 O142 2.105 1_455 S
Sc132 O145 2.105 . S
Sc132 O148 2.105 1_455 S
Sc132 O151 2.105 . S
Sc133 O135 2.025 . S
Sc133 O143 2.105 . S
Sc133 O147 2.105 . S
Sc133 O149 2.105 . S
Sc133 O153 2.105 . S
Sc134 O135 2.025 1_655 S
Sc134 O144 2.105 . S
Sc134 O146 2.105 . S
Sc134 O150 2.105 . S
Sc134 O152 2.105 . S
O135 Sc132 2.025 . S
O135 Sc133 2.025 . S
O135 Sc134 2.025 1_455 S
C136 O142 1.268 . S
C136 O152 1.268 . S
C137 O143 1.268 . S
C137 O151 1.268 . S
C138 O144 1.268 1_455 S
C138 O153 1.268 . S
C139 O145 1.268 . S
C139 O149 1.268 . S
C140 O146 1.268 . S
C140 O148 1.268 . S
C141 O147 1.268 . S
C141 O150 1.268 1_455 S
O142 Sc132 2.105 1_655 S
O142 C136 1.268 . S
O143 Sc133 2.105 . S
O143 C137 1.268 . S
O144 Sc134 2.105 . S
O144 C138 1.268 1_655 S
O145 Sc132 2.105 . S
O145 C139 1.268 . S
O146 Sc134 2.105 . S
O146 C140 1.268 . S
O147 Sc133 2.105 . S
O147 C141 1.268 . S
O148 Sc132 2.105 1_655 S
O148 C140 1.268 . S
O149 Sc133 2.105 . S
O149 C139 1.268 . S
O150 Sc134 2.105 . S
O150 C141 1.268 1_655 S
O151 Sc132 2.105 . S
O151 C137 1.268 . S
O152 Sc134 2.105 . S
O152 C136 1.268 . S
O153 Sc133 2.105 . S
O153 C138 1.268 . S
Sc154 O157 2.025 . S
Sc154 O164 2.105 . S
Sc154 O167 2.105 . S
Sc154 O170 2.105 . S
Sc154 O173 2.105 . S
Sc155 O157 2.025 1_565 S
Sc155 O165 2.105 . S
Sc155 O169 2.105 . S
Sc155 O171 2.105 . S
Sc155 O175 2.105 . S
Sc156 O157 2.025 . S
Sc156 O166 2.105 1_545 S
Sc156 O168 2.105 . S
Sc156 O172 2.105 1_545 S
Sc156 O174 2.105 . S
O157 Sc154 2.025 . S
O157 Sc155 2.025 1_545 S
O157 Sc156 2.025 . S
C158 O164 1.268 . S
C158 O174 1.268 . S
C159 O165 1.268 1_545 S
C159 O173 1.268 . S
C160 O166 1.268 . S
C160 O175 1.268 . S
C161 O167 1.268 . S
C161 O171 1.268 1_545 S
C162 O168 1.268 . S
C162 O170 1.268 . S
C163 O169 1.268 . S
C163 O172 1.268 . S
O164 Sc154 2.105 . S
O164 C158 1.268 . S
O165 Sc155 2.105 . S
O165 C159 1.268 1_565 S
O166 Sc156 2.105 1_565 S
O166 C160 1.268 . S
O167 Sc154 2.105 . S
O167 C161 1.268 . S
O168 Sc156 2.105 . S
O168 C162 1.268 . S
O169 Sc155 2.105 . S
O169 C163 1.268 . S
O170 Sc154 2.105 . S
O170 C162 1.268 . S
O171 Sc155 2.105 . S
O171 C161 1.268 1_565 S
O172 Sc156 2.105 1_565 S
O172 C163 1.268 . S
O173 Sc154 2.105 . S
O173 C159 1.268 . S
O174 Sc156 2.105 . S
O174 C158 1.268 . S
O175 Sc155 2.105 . S
O175 C160 1.268 . S
Sc176 O179 2.025 1_556 S
Sc176 O186 2.105 . S
Sc176 O189 2.105 . S
Sc176 O192 2.105 . S
Sc176 O195 2.105 . S
Sc177 O179 2.025 . S
Sc177 O187 2.105 . S
Sc177 O191 2.105 . S
Sc177 O193 2.105 . S
Sc177 O197 2.105 . S
Sc178 O179 2.025 . S
Sc178 O188 2.105 . S
Sc178 O190 2.105 1_554 S
Sc178 O194 2.105 . S
Sc178 O196 2.105 1_554 S
O179 Sc176 2.025 1_554 S
O179 Sc177 2.025 . S
O179 Sc178 2.025 . S
C180 O186 1.268 . S
C180 O196 1.268 . S
C181 O187 1.268 . S
C181 O195 1.268 1_554 S
C182 O188 1.268 . S
C182 O197 1.268 . S
C183 O189 1.268 1_554 S
C183 O193 1.268 . S
C184 O190 1.268 . S
C184 O192 1.268 . S
C185 O191 1.268 . S
C185 O194 1.268 . S
O186 Sc176 2.105 . S
O186 C180 1.268 . S
O187 Sc177 2.105 . S
O187 C181 1.268 . S
O188 Sc178 2.105 . S
O188 C182 1.268 . S
O189 Sc176 2.105 . S
O189 C183 1.268 1_556 S
O190 Sc178 2.105 1_556 S
O190 C184 1.268 . S
O191 Sc177 2.105 . S
O191 C185 1.268 . S
O192 Sc176 2.105 . S
O192 C184 1.268 . S
O193 Sc177 2.105 . S
O193 C183 1.268 . S
O194 Sc178 2.105 . S
O194 C185 1.268 . S
O195 Sc176 2.105 . S
O195 C181 1.268 1_556 S
O196 Sc178 2.105 1_556 S
O196 C180 1.268 . S
O197 Sc177 2.105 . S
O197 C182 1.268 . S
Sc198 O201 2.025 . S
Sc198 O208 2.105 . S
Sc198 O211 2.105 1_554 S
Sc198 O214 2.105 . S
Sc198 O217 2.105 1_554 S
Sc199 O201 2.025 1_556 S
Sc199 O209 2.105 . S
Sc199 O213 2.105 . S
Sc199 O215 2.105 . S
Sc199 O219 2.105 . S
Sc200 O201 2.025 . S
Sc200 O210 2.105 . S
Sc200 O212 2.105 . S
Sc200 O216 2.105 . S
Sc200 O218 2.105 . S
O201 Sc198 2.025 . S
O201 Sc199 2.025 1_554 S
O201 Sc200 2.025 . S
C202 O208 1.268 . S
C202 O218 1.268 . S
C203 O209 1.268 . S
C203 O217 1.268 . S
C204 O210 1.268 . S
C204 O219 1.268 1_554 S
C205 O211 1.268 . S
C205 O215 1.268 . S
C206 O212 1.268 . S
C206 O214 1.268 . S
C207 O213 1.268 1_554 S
C207 O216 1.268 . S
O208 Sc198 2.105 . S
O208 C202 1.268 . S
O209 Sc199 2.105 . S
O209 C203 1.268 . S
O210 Sc200 2.105 . S
O210 C204 1.268 . S
O211 Sc198 2.105 1_556 S
O211 C205 1.268 . S
O212 Sc200 2.105 . S
O212 C206 1.268 . S
O213 Sc199 2.105 . S
O213 C207 1.268 1_556 S
O214 Sc198 2.105 . S
O214 C206 1.268 . S
O215 Sc199 2.105 . S
O215 C205 1.268 . S
O216 Sc200 2.105 . S
O216 C207 1.268 . S
O217 Sc198 2.105 1_556 S
O217 C203 1.268 . S
O218 Sc200 2.105 . S
O218 C202 1.268 . S
O219 Sc199 2.105 . S
O219 C204 1.268 1_556 S
Sc220 O223 2.025 . S
Sc220 O230 2.105 1_554 S
Sc220 O233 2.105 . S
Sc220 O236 2.105 1_554 S
Sc220 O239 2.105 . S
Sc221 O223 2.025 . S
Sc221 O231 2.105 . S
Sc221 O235 2.105 . S
Sc221 O237 2.105 . S
Sc221 O241 2.105 . S
Sc222 O223 2.025 1_556 S
Sc222 O232 2.105 . S
Sc222 O234 2.105 . S
Sc222 O238 2.105 . S
Sc222 O240 2.105 . S
O223 Sc220 2.025 . S
O223 Sc221 2.025 . S
O223 Sc222 2.025 1_554 S
C224 O230 1.268 . S
C224 O240 1.268 . S
C225 O231 1.268 . S
C225 O239 1.268 . S
C226 O232 1.268 1_554 S
C226 O241 1.268 . S
C227 O233 1.268 . S
C227 O237 1.268 . S
C228 O234 1.268 . S
C228 O236 1.268 . S
C229 O235 1.268 . S
C229 O238 1.268 1_554 S
O230 Sc220 2.105 1_556 S
O230 C224 1.268 . S
O231 Sc221 2.105 . S
O231 C225 1.268 . S
O232 Sc222 2.105 . S
O232 C226 1.268 1_556 S
O233 Sc220 2.105 . S
O233 C227 1.268 . S
O234 Sc222 2.105 . S
O234 C228 1.268 . S
O235 Sc221 2.105 . S
O235 C229 1.268 . S
O236 Sc220 2.105 1_556 S
O236 C228 1.268 . S
O237 Sc221 2.105 . S
O237 C227 1.268 . S
O238 Sc222 2.105 . S
O238 C229 1.268 1_556 S
O239 Sc220 2.105 . S
O239 C225 1.268 . S
O240 Sc222 2.105 . S
O240 C224 1.268 . S
O241 Sc221 2.105 . S
O241 C226 1.268 . S
Sc242 O245 2.025 . S
Sc242 O252 2.105 . S
Sc242 O255 2.105 . S
Sc242 O258 2.105 . S
Sc242 O261 2.105 . S
Sc243 O245 2.025 1_556 S
Sc243 O253 2.105 . S
Sc243 O257 2.105 . S
Sc243 O259 2.105 . S
Sc243 O263 2.105 . S
Sc244 O245 2.025 . S
Sc244 O254 2.105 1_554 S
Sc244 O256 2.105 . S
Sc244 O260 2.105 1_554 S
Sc244 O262 2.105 . S
O245 Sc242 2.025 . S
O245 Sc243 2.025 1_554 S
O245 Sc244 2.025 . S
C246 O252 1.268 . S
C246 O262 1.268 . S
C247 O253 1.268 1_554 S
C247 O261 1.268 . S
C248 O254 1.268 . S
C248 O263 1.268 . S
C249 O255 1.268 . S
C249 O259 1.268 1_554 S
C250 O256 1.268 . S
C250 O258 1.268 . S
C251 O257 1.268 . S
C251 O260 1.268 . S
O252 Sc242 2.105 . S
O252 C246 1.268 . S
O253 Sc243 2.105 . S
O253 C247 1.268 1_556 S
O254 Sc244 2.105 1_556 S
O254 C248 1.268 . S
O255 Sc242 2.105 . S
O255 C249 1.268 . S
O256 Sc244 2.105 . S
O256 C250 1.268 . S
O257 Sc243 2.105 . S
O257 C251 1.268 . S
O258 Sc242 2.105 . S
O258 C250 1.268 . S
O259 Sc243 2.105 . S
O259 C249 1.268 1_556 S
O260 Sc244 2.105 1_556 S
O260 C251 1.268 . S
O261 Sc242 2.105 . S
O261 C247 1.268 . S
O262 Sc244 2.105 . S
O262 C246 1.268 . S
O263 Sc243 2.105 . S
O263 C248 1.268 . S
Sc264 O267 2.025 . S
Sc264 O274 2.105 . S
Sc264 O277 2.105 . S
Sc264 O280 2.105 . S
Sc264 O283 2.105 . S
Sc265 O267 2.025 . S
Sc265 O275 2.105 . S
Sc265 O279 2.105 . S
Sc265 O281 2.105 . S
Sc265 O285 2.105 . S
Sc266 O267 2.025 . S
Sc266 O276 2.105 . S
Sc266 O278 2.105 . S
Sc266 O282 2.105 . S
Sc266 O284 2.105 . S
O267 Sc264 2.025 . S
O267 Sc265 2.025 . S
O267 Sc266 2.025 . S
C268 O274 1.268 . S
C268 O284 1.268 . S
C269 O275 1.268 . S
C269 O283 1.268 . S
C270 O276 1.268 . S
C270 O285 1.268 . S
C271 O277 1.268 . S
C271 O281 1.268 . S
C272 O278 1.268 . S
C272 O280 1.268 . S
C273 O279 1.268 . S
C273 O282 1.268 . S
O274 Sc264 2.105 . S
O274 C268 1.268 . S
O275 Sc265 2.105 . S
O275 C269 1.268 . S
O276 Sc266 2.105 . S
O276 C270 1.268 . S
O277 Sc264 2.105 . S
O277 C271 1.268 . S
O278 Sc266 2.105 . S
O278 C272 1.268 . S
O279 Sc265 2.105 . S
O279 C273 1.268 . S
O280 Sc264 2.105 . S
O280 C272 1.268 . S
O281 Sc265 2.105 . S
O281 C271 1.268 . S
O282 Sc266 2.105 . S
O282 C273 1.268 . S
O283 Sc264 2.105 . S
O283 C269 1.268 . S
O284 Sc266 2.105 . S
O284 C268 1.268 . S
O285 Sc265 2.105 . S
O285 C270 1.268 . S
Sc286 O289 2.025 . S
Sc286 O296 2.105 . S
Sc286 O299 2.105 . S
Sc286 O302 2.105 . S
Sc286 O305 2.105 . S
Sc287 O289 2.025 . S
Sc287 O297 2.105 . S
Sc287 O301 2.105 . S
Sc287 O303 2.105 . S
Sc287 O307 2.105 . S
Sc288 O289 2.025 . S
Sc288 O298 2.105 . S
Sc288 O300 2.105 . S
Sc288 O304 2.105 . S
Sc288 O306 2.105 . S
O289 Sc286 2.025 . S
O289 Sc287 2.025 . S
O289 Sc288 2.025 . S
C290 O296 1.268 . S
C290 O306 1.268 . S
C291 O297 1.268 . S
C291 O305 1.268 . S
C292 O298 1.268 . S
C292 O307 1.268 . S
C293 O299 1.268 . S
C293 O303 1.268 . S
C294 O300 1.268 . S
C294 O302 1.268 . S
C295 O301 1.268 . S
C295 O304 1.268 . S
O296 Sc286 2.105 . S
O296 C290 1.268 . S
O297 Sc287 2.105 . S
O297 C291 1.268 . S
O298 Sc288 2.105 . S
O298 C292 1.268 . S
O299 Sc286 2.105 . S
O299 C293 1.268 . S
O300 Sc288 2.105 . S
O300 C294 1.268 . S
O301 Sc287 2.105 . S
O301 C295 1.268 . S
O302 Sc286 2.105 . S
O302 C294 1.268 . S
O303 Sc287 2.105 . S
O303 C293 1.268 . S
O304 Sc288 2.105 . S
O304 C295 1.268 . S
O305 Sc286 2.105 . S
O305 C291 1.268 . S
O306 Sc288 2.105 . S
O306 C290 1.268 . S
O307 Sc287 2.105 . S
O307 C292 1.268 . S
Sc308 O311 2.025 . S
Sc308 O318 2.105 . S
Sc308 O321 2.105 . S
Sc308 O324 2.105 . S
Sc308 O327 2.105 . S
Sc309 O311 2.025 . S
Sc309 O319 2.105 . S
Sc309 O323 2.105 . S
Sc309 O325 2.105 . S
Sc309 O329 2.105 . S
Sc310 O311 2.025 . S
Sc310 O320 2.105 . S
Sc310 O322 2.105 . S
Sc310 O326 2.105 . S
Sc310 O328 2.105 . S
O311 Sc308 2.025 . S
O311 Sc309 2.025 . S
O311 Sc310 2.025 . S
C312 O318 1.268 . S
C312 O328 1.268 . S
C313 O319 1.268 . S
C313 O327 1.268 . S
C314 O320 1.268 . S
C314 O329 1.268 . S
C315 O321 1.268 . S
C315 O325 1.268 . S
C316 O322 1.268 . S
C316 O324 1.268 . S
C317 O323 1.268 . S
C317 O326 1.268 . S
O318 Sc308 2.105 . S
O318 C312 1.268 . S
O319 Sc309 2.105 . S
O319 C313 1.268 . S
O320 Sc310 2.105 . S
O320 C314 1.268 . S
O321 Sc308 2.105 . S
O321 C315 1.268 . S
O322 Sc310 2.105 . S
O322 C316 1.268 . S
O323 Sc309 2.105 . S
O323 C317 1.268 . S
O324 Sc308 2.105 . S
O324 C316 1.268 . S
O325 Sc309 2.105 . S
O325 C315 1.268 . S
O326 Sc310 2.105 . S
O326 C317 1.268 . S
O327 Sc308 2.105 . S
O327 C313 1.268 . S
O328 Sc310 2.105 . S
O328 C312 1.268 . S
O329 Sc309 2.105 . S
O329 C314 1.268 . S
Sc330 O333 2.025 . S
Sc330 O340 2.105 . S
Sc330 O343 2.105 . S
Sc330 O346 2.105 . S
Sc330 O349 2.105 . S
Sc331 O333 2.025 . S
Sc331 O341 2.105 . S
Sc331 O345 2.105 . S
Sc331 O347 2.105 . S
Sc331 O351 2.105 . S
Sc332 O333 2.025 . S
Sc332 O342 2.105 . S
Sc332 O344 2.105 . S
Sc332 O348 2.105 . S
Sc332 O350 2.105 . S
O333 Sc330 2.025 . S
O333 Sc331 2.025 . S
O333 Sc332 2.025 . S
C334 O340 1.268 . S
C334 O350 1.268 . S
C335 O341 1.268 . S
C335 O349 1.268 . S
C336 O342 1.268 . S
C336 O351 1.268 . S
C337 O343 1.268 . S
C337 O347 1.268 . S
C338 O344 1.268 . S
C338 O346 1.268 . S
C339 O345 1.268 . S
C339 O348 1.268 . S
O340 Sc330 2.105 . S
O340 C334 1.268 . S
O341 Sc331 2.105 . S
O341 C335 1.268 . S
O342 Sc332 2.105 . S
O342 C336 1.268 . S
O343 Sc330 2.105 . S
O343 C337 1.268 . S
O344 Sc332 2.105 . S
O344 C338 1.268 . S
O345 Sc331 2.105 . S
O345 C339 1.268 . S
O346 Sc330 2.105 . S
O346 C338 1.268 . S
O347 Sc331 2.105 . S
O347 C337 1.268 . S
O348 Sc332 2.105 . S
O348 C339 1.268 . S
O349 Sc330 2.105 . S
O349 C335 1.268 . S
O350 Sc332 2.105 . S
O350 C334 1.268 . S
O351 Sc331 2.105 . S
O351 C336 1.268 . S
Sc352 O355 2.025 . S
Sc352 O362 2.105 . S
Sc352 O365 2.105 . S
Sc352 O368 2.105 . S
Sc352 O371 2.105 . S
Sc353 O355 2.025 . S
Sc353 O363 2.105 . S
Sc353 O367 2.105 . S
Sc353 O369 2.105 . S
Sc353 O373 2.105 . S
Sc354 O355 2.025 . S
Sc354 O364 2.105 . S
Sc354 O366 2.105 . S
Sc354 O370 2.105 . S
Sc354 O372 2.105 . S
O355 Sc352 2.025 . S
O355 Sc353 2.025 . S
O355 Sc354 2.025 . S
C356 O362 1.268 . S
C356 O372 1.268 . S
C357 O363 1.268 . S
C357 O371 1.268 . S
C358 O364 1.268 . S
C358 O373 1.268 . S
C359 O365 1.268 . S
C359 O369 1.268 . S
C360 O366 1.268 . S
C360 O368 1.268 . S
C361 O367 1.268 . S
C361 O370 1.268 . S
O362 Sc352 2.105 . S
O362 C356 1.268 . S
O363 Sc353 2.105 . S
O363 C357 1.268 . S
O364 Sc354 2.105 . S
O364 C358 1.268 . S
O365 Sc352 2.105 . S
O365 C359 1.268 . S
O366 Sc354 2.105 . S
O366 C360 1.268 . S
O367 Sc353 2.105 . S
O367 C361 1.268 . S
O368 Sc352 2.105 . S
O368 C360 1.268 . S
O369 Sc353 2.105 . S
O369 C359 1.268 . S
O370 Sc354 2.105 . S
O370 C361 1.268 . S
O371 Sc352 2.105 . S
O371 C357 1.268 . S
O372 Sc354 2.105 . S
O372 C356 1.268 . S
O373 Sc353 2.105 . S
O373 C358 1.268 . S
Sc374 O377 2.025 . S
Sc374 O384 2.105 . S
Sc374 O387 2.105 . S
Sc374 O390 2.105 . S
Sc374 O393 2.105 . S
Sc375 O377 2.025 . S
Sc375 O385 2.105 . S
Sc375 O389 2.105 . S
Sc375 O391 2.105 . S
Sc375 O395 2.105 . S
Sc376 O377 2.025 . S
Sc376 O386 2.105 . S
Sc376 O388 2.105 . S
Sc376 O392 2.105 . S
Sc376 O394 2.105 . S
O377 Sc374 2.025 . S
O377 Sc375 2.025 . S
O377 Sc376 2.025 . S
C378 O384 1.268 . S
C378 O394 1.268 . S
C379 O385 1.268 . S
C379 O393 1.268 . S
C380 O386 1.268 . S
C380 O395 1.268 . S
C381 O387 1.268 . S
C381 O391 1.268 . S
C382 O388 1.268 . S
C382 O390 1.268 . S
C383 O389 1.268 . S
C383 O392 1.268 . S
O384 Sc374 2.105 . S
O384 C378 1.268 . S
O385 Sc375 2.105 . S
O385 C379 1.268 . S
O386 Sc376 2.105 . S
O386 C380 1.268 . S
O387 Sc374 2.105 . S
O387 C381 1.268 . S
O388 Sc376 2.105 . S
O388 C382 1.268 . S
O389 Sc375 2.105 . S
O389 C383 1.268 . S
O390 Sc374 2.105 . S
O390 C382 1.268 . S
O391 Sc375 2.105 . S
O391 C381 1.268 . S
O392 Sc376 2.105 . S
O392 C383 1.268 . S
O393 Sc374 2.105 . S
O393 C379 1.268 . S
O394 Sc376 2.105 . S
O394 C378 1.268 . S
O395 Sc375 2.105 . S
O395 C380 1.268 . S
Sc396 O399 2.025 . S
Sc396 O406 2.105 . S
Sc396 O409 2.105 . S
Sc396 O412 2.105 . S
Sc396 O415 2.105 . S
Sc397 O399 2.025 . S
Sc397 O407 2.105 . S
Sc397 O411 2.105 . S
Sc397 O413 2.105 . S
Sc397 O417 2.105 . S
Sc398 O399 2.025 . S
Sc398 O408 2.105 . S
Sc398 O410 2.105 . S
Sc398 O414 2.105 . S
Sc398 O416 2.105 . S
O399 Sc396 2.025 . S
O399 Sc397 2.025 . S
O399 Sc398 2.025 . S
C400 O406 1.268 . S
C400 O416 1.268 . S
C401 O407 1.268 . S
C401 O415 1.268 . S
C402 O408 1.268 . S
C402 O417 1.268 . S
C403 O409 1.268 . S
C403 O413 1.268 . S
C404 O410 1.268 . S
C404 O412 1.268 . S
C405 O411 1.268 . S
C405 O414 1.268 . S
O406 Sc396 2.105 . S
O406 C400 1.268 . S
O407 Sc397 2.105 . S
O407 C401 1.268 . S
O408 Sc398 2.105 . S
O408 C402 1.268 . S
O409 Sc396 2.105 . S
O409 C403 1.268 . S
O410 Sc398 2.105 . S
O410 C404 1.268 . S
O411 Sc397 2.105 . S
O411 C405 1.268 . S
O412 Sc396 2.105 . S
O412 C404 1.268 . S
O413 Sc397 2.105 . S
O413 C403 1.268 . S
O414 Sc398 2.105 . S
O414 C405 1.268 . S
O415 Sc396 2.105 . S
O415 C401 1.268 . S
O416 Sc398 2.105 . S
O416 C400 1.268 . S
O417 Sc397 2.105 . S
O417 C402 1.268 . S
Sc418 O421 2.025 . S
Sc418 O428 2.105 . S
Sc418 O431 2.105 . S
Sc418 O434 2.105 . S
Sc418 O437 2.105 . S
Sc419 O421 2.025 . S
Sc419 O429 2.105 . S
Sc419 O433 2.105 . S
Sc419 O435 2.105 . S
Sc419 O439 2.105 . S
Sc420 O421 2.025 . S
Sc420 O430 2.105 . S
Sc420 O432 2.105 . S
Sc420 O436 2.105 . S
Sc420 O438 2.105 . S
O421 Sc418 2.025 . S
O421 Sc419 2.025 . S
O421 Sc420 2.025 . S
C422 O428 1.268 . S
C422 O438 1.268 . S
C423 O429 1.268 . S
C423 O437 1.268 . S
C424 O430 1.268 . S
C424 O439 1.268 . S
C425 O431 1.268 . S
C425 O435 1.268 . S
C426 O432 1.268 . S
C426 O434 1.268 . S
C427 O433 1.268 . S
C427 O436 1.268 . S
O428 Sc418 2.105 . S
O428 C422 1.268 . S
O429 Sc419 2.105 . S
O429 C423 1.268 . S
O430 Sc420 2.105 . S
O430 C424 1.268 . S
O431 Sc418 2.105 . S
O431 C425 1.268 . S
O432 Sc420 2.105 . S
O432 C426 1.268 . S
O433 Sc419 2.105 . S
O433 C427 1.268 . S
O434 Sc418 2.105 . S
O434 C426 1.268 . S
O435 Sc419 2.105 . S
O435 C425 1.268 . S
O436 Sc420 2.105 . S
O436 C427 1.268 . S
O437 Sc418 2.105 . S
O437 C423 1.268 . S
O438 Sc420 2.105 . S
O438 C422 1.268 . S
O439 Sc419 2.105 . S
O439 C424 1.268 . S
Sc440 O443 2.025 . S
Sc440 O450 2.105 . S
Sc440 O453 2.105 . S
Sc440 O456 2.105 . S
Sc440 O459 2.105 . S
Sc441 O443 2.025 . S
Sc441 O451 2.105 . S
Sc441 O455 2.105 . S
Sc441 O457 2.105 . S
Sc441 O461 2.105 . S
Sc442 O443 2.025 . S
Sc442 O452 2.105 . S
Sc442 O454 2.105 . S
Sc442 O458 2.105 . S
Sc442 O460 2.105 . S
O443 Sc440 2.025 . S
O443 Sc441 2.025 . S
O443 Sc442 2.025 . S
C444 O450 1.268 . S
C444 O460 1.268 . S
C445 O451 1.268 . S
C445 O459 1.268 . S
C446 O452 1.268 . S
C446 O461 1.268 . S
C447 O453 1.268 . S
C447 O457 1.268 . S
C448 O454 1.268 . S
C448 O456 1.268 . S
C449 O455 1.268 . S
C449 O458 1.268 . S
O450 Sc440 2.105 . S
O450 C444 1.268 . S
O451 Sc441 2.105 . S
O451 C445 1.268 . S
O452 Sc442 2.105 . S
O452 C446 1.268 . S
O453 Sc440 2.105 . S
O453 C447 1.268 . S
O454 Sc442 2.105 . S
O454 C448 1.268 . S
O455 Sc441 2.105 . S
O455 C449 1.268 . S
O456 Sc440 2.105 . S
O456 C448 1.268 . S
O457 Sc441 2.105 . S
O457 C447 1.268 . S
O458 Sc442 2.105 . S
O458 C449 1.268 . S
O459 Sc440 2.105 . S
O459 C445 1.268 . S
O460 Sc442 2.105 . S
O460 C444 1.268 . S
O461 Sc441 2.105 . S
O461 C446 1.268 . S
Sc462 O465 2.025 . S
Sc462 O472 2.105 . S
Sc462 O475 2.105 . S
Sc462 O478 2.105 . S
Sc462 O481 2.105 . S
Sc463 O465 2.025 . S
Sc463 O473 2.105 . S
Sc463 O477 2.105 . S
Sc463 O479 2.105 . S
Sc463 O483 2.105 . S
Sc464 O465 2.025 . S
Sc464 O474 2.105 . S
Sc464 O476 2.105 . S
Sc464 O480 2.105 . S
Sc464 O482 2.105 . S
O465 Sc462 2.025 . S
O465 Sc463 2.025 . S
O465 Sc464 2.025 . S
C466 O472 1.268 . S
C466 O482 1.268 . S
C467 O473 1.268 . S
C467 O481 1.268 . S
C468 O474 1.268 . S
C468 O483 1.268 . S
C469 O475 1.268 . S
C469 O479 1.268 . S
C470 O476 1.268 . S
C470 O478 1.268 . S
C471 O477 1.268 . S
C471 O480 1.268 . S
O472 Sc462 2.105 . S
O472 C466 1.268 . S
O473 Sc463 2.105 . S
O473 C467 1.268 . S
O474 Sc464 2.105 . S
O474 C468 1.268 . S
O475 Sc462 2.105 . S
O475 C469 1.268 . S
O476 Sc464 2.105 . S
O476 C470 1.268 . S
O477 Sc463 2.105 . S
O477 C471 1.268 . S
O478 Sc462 2.105 . S
O478 C470 1.268 . S
O479 Sc463 2.105 . S
O479 C469 1.268 . S
O480 Sc464 2.105 . S
O480 C471 1.268 . S
O481 Sc462 2.105 . S
O481 C467 1.268 . S
O482 Sc464 2.105 . S
O482 C466 1.268 . S
O483 Sc463 2.105 . S
O483 C468 1.268 . S
Sc484 O487 2.025 . S
Sc484 O494 2.105 . S
Sc484 O497 2.105 . S
Sc484 O500 2.105 . S
Sc484 O503 2.105 . S
Sc485 O487 2.025 . S
Sc485 O495 2.105 . S
Sc485 O499 2.105 . S
Sc485 O501 2.105 . S
Sc485 O505 2.105 . S
Sc486 O487 2.025 . S
Sc486 O496 2.105 . S
Sc486 O498 2.105 . S
Sc486 O502 2.105 . S
Sc486 O504 2.105 . S
O487 Sc484 2.025 . S
O487 Sc485 2.025 . S
O487 Sc486 2.025 . S
C488 O494 1.268 . S
C488 O504 1.268 . S
C489 O495 1.268 . S
C489 O503 1.268 . S
C490 O496 1.268 . S
C490 O505 1.268 . S
C491 O497 1.268 . S
C491 O501 1.268 . S
C492 O498 1.268 . S
C492 O500 1.268 . S
C493 O499 1.268 . S
C493 O502 1.268 . S
O494 Sc484 2.105 . S
O494 C488 1.268 . S
O495 Sc485 2.105 . S
O495 C489 1.268 . S
O496 Sc486 2.105 . S
O496 C490 1.268 . S
O497 Sc484 2.105 . S
O497 C491 1.268 . S
O498 Sc486 2.105 . S
O498 C492 1.268 . S
O499 Sc485 2.105 . S
O499 C493 1.268 . S
O500 Sc484 2.105 . S
O500 C492 1.268 . S
O501 Sc485 2.105 . S
O501 C491 1.268 . S
O502 Sc486 2.105 . S
O502 C493 1.268 . S
O503 Sc484 2.105 . S
O503 C489 1.268 . S
O504 Sc486 2.105 . S
O504 C488 1.268 . S
O505 Sc485 2.105 . S
O505 C490 1.268 . S
Sc506 O509 2.025 . S
Sc506 O516 2.105 . S
Sc506 O519 2.105 . S
Sc506 O522 2.105 . S
Sc506 O525 2.105 . S
Sc507 O509 2.025 . S
Sc507 O517 2.105 . S
Sc507 O521 2.105 . S
Sc507 O523 2.105 . S
Sc507 O527 2.105 . S
Sc508 O509 2.025 . S
Sc508 O518 2.105 . S
Sc508 O520 2.105 . S
Sc508 O524 2.105 . S
Sc508 O526 2.105 . S
O509 Sc506 2.025 . S
O509 Sc507 2.025 . S
O509 Sc508 2.025 . S
C510 O516 1.268 . S
C510 O526 1.268 . S
C511 O517 1.268 . S
C511 O525 1.268 . S
C512 O518 1.268 . S
C512 O527 1.268 . S
C513 O519 1.268 . S
C513 O523 1.268 . S
C514 O520 1.268 . S
C514 O522 1.268 . S
C515 O521 1.268 . S
C515 O524 1.268 . S
O516 Sc506 2.105 . S
O516 C510 1.268 . S
O517 Sc507 2.105 . S
O517 C511 1.268 . S
O518 Sc508 2.105 . S
O518 C512 1.268 . S
O519 Sc506 2.105 . S
O519 C513 1.268 . S
O520 Sc508 2.105 . S
O520 C514 1.268 . S
O521 Sc507 2.105 . S
O521 C515 1.268 . S
O522 Sc506 2.105 . S
O522 C514 1.268 . S
O523 Sc507 2.105 . S
O523 C513 1.268 . S
O524 Sc508 2.105 . S
O524 C515 1.268 . S
O525 Sc506 2.105 . S
O525 C511 1.268 . S
O526 Sc508 2.105 . S
O526 C510 1.268 . S
O527 Sc507 2.105 . S
O527 C512 1.268 . S
H528 C534 0.930 . S
H529 C537 0.930 . S
H530 C538 0.930 . S
H531 C539 0.930 . S
H532 C542 0.930 . S
H533 C543 0.930 . S
C534 H528 0.930 . S
C534 C535 1.355 1_655 S
C534 C536 1.415 . S
C535 C534 1.355 1_455 S
C535 C537 1.419 . S
C536 C534 1.415 . S
C536 C541 1.425 1_655 S
C536 C543 1.409 . S
C537 H529 0.930 . S
C537 C535 1.419 . S
C537 C538 1.362 . S
C538 H530 0.930 . S
C538 C537 1.362 . S
C538 C541 1.409 . S
C539 H531 0.930 . S
C539 C540 1.355 1_455 S
C539 C541 1.415 . S
C540 C539 1.355 1_655 S
C540 C542 1.419 . S
C541 C536 1.425 1_455 S
C541 C538 1.409 . S
C541 C539 1.415 . S
C542 H532 0.930 . S
C542 C540 1.419 . S
C542 C543 1.362 . S
C543 H533 0.930 . S
C543 C536 1.409 . S
C543 C542 1.362 . S
H544 C550 0.930 . S
H545 C553 0.930 . S
H546 C554 0.930 . S
H547 C555 0.930 . S
H548 C558 0.930 . S
H549 C559 0.930 . S
C550 H544 0.930 . S
C550 C551 1.355 1_545 S
C550 C552 1.415 . S
C551 C550 1.355 1_565 S
C551 C553 1.419 . S
C552 C550 1.415 . S
C552 C557 1.425 1_545 S
C552 C559 1.409 . S
C553 H545 0.930 . S
C553 C551 1.419 . S
C553 C554 1.362 . S
C554 H546 0.930 . S
C554 C553 1.362 . S
C554 C557 1.409 . S
C555 H547 0.930 . S
C555 C556 1.355 1_565 S
C555 C557 1.415 . S
C556 C555 1.355 1_545 S
C556 C558 1.419 . S
C557 C552 1.425 1_565 S
C557 C554 1.409 . S
C557 C555 1.415 . S
C558 H548 0.930 . S
C558 C556 1.419 . S
C558 C559 1.362 . S
C559 H549 0.930 . S
C559 C552 1.409 . S
C559 C558 1.362 . S
H560 C566 0.930 . S
H561 C569 0.930 . S
H562 C570 0.930 . S
H563 C571 0.930 . S
H564 C574 0.930 . S
H565 C575 0.930 . S
C566 H560 0.930 . S
C566 C567 1.355 1_455 S
C566 C568 1.415 . S
C567 C566 1.355 1_655 S
C567 C569 1.419 . S
C568 C566 1.415 . S
C568 C573 1.425 1_455 S
C568 C575 1.409 . S
C569 H561 0.930 . S
C569 C567 1.419 . S
C569 C570 1.362 . S
C570 H562 0.930 . S
C570 C569 1.362 . S
C570 C573 1.409 . S
C571 H563 0.930 . S
C571 C572 1.352 1_655 S
C571 C573 1.415 . S
C572 C571 1.352 1_455 S
C572 C574 1.422 . S
C573 C568 1.425 1_655 S
C573 C570 1.409 . S
C573 C571 1.415 . S
C574 H564 0.930 . S
C574 C572 1.422 . S
C574 C575 1.362 . S
C575 H565 0.930 . S
C575 C568 1.409 . S
C575 C574 1.362 . S
H576 C582 0.930 . S
H577 C585 0.930 . S
H578 C586 0.930 . S
H579 C587 0.930 . S
H580 C590 0.930 . S
H581 C591 0.930 . S
C582 H576 0.930 . S
C582 C583 1.355 1_545 S
C582 C584 1.415 . S
C583 C582 1.355 1_565 S
C583 C585 1.419 . S
C584 C582 1.415 . S
C584 C589 1.425 1_545 S
C584 C591 1.409 . S
C585 H577 0.930 . S
C585 C583 1.419 . S
C585 C586 1.362 . S
C586 H578 0.930 . S
C586 C585 1.362 . S
C586 C589 1.409 . S
C587 H579 0.930 . S
C587 C588 1.355 1_565 S
C587 C589 1.415 . S
C588 C587 1.355 1_545 S
C588 C590 1.419 . S
C589 C584 1.425 1_565 S
C589 C586 1.409 . S
C589 C587 1.415 . S
C590 H580 0.930 . S
C590 C588 1.419 . S
C590 C591 1.362 . S
C591 H581 0.930 . S
C591 C584 1.409 . S
C591 C590 1.362 . S
H592 C598 0.930 . S
H593 C601 0.930 . S
H594 C602 0.930 . S
H595 C603 0.930 . S
H596 C606 0.930 . S
H597 C607 0.930 . S
C598 H592 0.930 . S
C598 C599 1.357 . S
C598 C600 1.415 . S
C599 C598 1.357 . S
C599 C601 1.417 1_545 S
C600 C598 1.415 . S
C600 C605 1.425 1_545 S
C600 C607 1.409 . S
C601 H593 0.930 . S
C601 C599 1.417 1_565 S
C601 C602 1.362 . S
C602 H594 0.930 . S
C602 C601 1.362 . S
C602 C605 1.409 . S
C603 H595 0.930 . S
C603 C604 1.355 . S
C603 C605 1.415 . S
C604 C603 1.355 . S
C604 C606 1.419 1_565 S
C605 C600 1.425 1_565 S
C605 C602 1.409 . S
C605 C603 1.415 . S
C606 H596 0.930 . S
C606 C604 1.419 1_545 S
C606 C607 1.362 . S
C607 H597 0.930 . S
C607 C600 1.409 . S
C607 C606 1.362 . S
H608 C614 0.930 . S
H609 C617 0.930 . S
H610 C618 0.930 . S
H611 C619 0.930 . S
H612 C622 0.930 . S
H613 C623 0.930 . S
C614 H608 0.930 . S
C614 C615 1.355 1_455 S
C614 C616 1.415 . S
C615 C614 1.355 1_655 S
C615 C617 1.419 . S
C616 C614 1.415 . S
C616 C621 1.425 1_455 S
C616 C623 1.409 . S
C617 H609 0.930 . S
C617 C615 1.419 . S
C617 C618 1.362 . S
C618 H610 0.930 . S
C618 C617 1.362 . S
C618 C621 1.409 . S
C619 H611 0.930 . S
C619 C620 1.355 1_655 S
C619 C621 1.415 . S
C620 C619 1.355 1_455 S
C620 C622 1.419 . S
C621 C616 1.425 1_655 S
C621 C618 1.409 . S
C621 C619 1.415 . S
C622 H612 0.930 . S
C622 C620 1.419 . S
C622 C623 1.362 . S
C623 H613 0.930 . S
C623 C616 1.409 . S
C623 C622 1.362 . S
H624 C630 0.930 . S
H625 C633 0.930 . S
H626 C634 0.930 . S
H627 C635 0.930 . S
H628 C638 0.930 . S
H629 C639 0.930 . S
C630 H624 0.930 . S
C630 C631 1.355 1_565 S
C630 C632 1.415 . S
C631 C630 1.355 1_545 S
C631 C633 1.419 . S
C632 C630 1.415 . S
C632 C637 1.425 1_565 S
C632 C639 1.409 . S
C633 H625 0.930 . S
C633 C631 1.419 . S
C633 C634 1.362 . S
C634 H626 0.930 . S
C634 C633 1.362 . S
C634 C637 1.409 . S
C635 H627 0.930 . S
C635 C636 1.355 1_545 S
C635 C637 1.415 . S
C636 C635 1.355 1_565 S
C636 C638 1.419 . S
C637 C632 1.425 1_545 S
C637 C634 1.409 . S
C637 C635 1.415 . S
C638 H628 0.930 . S
C638 C636 1.419 . S
C638 C639 1.362 . S
C639 H629 0.930 . S
C639 C632 1.409 . S
C639 C638 1.362 . S
H640 C646 0.930 . S
H641 C649 0.930 . S
H642 C650 0.930 . S
H643 C651 0.930 . S
H644 C654 0.930 . S
H645 C655 0.930 . S
C646 H640 0.930 . S
C646 C647 1.355 1_455 S
C646 C648 1.415 . S
C647 C646 1.355 1_655 S
C647 C649 1.419 . S
C648 C646 1.415 . S
C648 C653 1.425 1_455 S
C648 C655 1.409 . S
C649 H641 0.930 . S
C649 C647 1.419 . S
C649 C650 1.362 . S
C650 H642 0.930 . S
C650 C649 1.362 . S
C650 C653 1.409 . S
C651 H643 0.930 . S
C651 C652 1.355 1_655 S
C651 C653 1.415 . S
C652 C651 1.355 1_455 S
C652 C654 1.419 . S
C653 C648 1.425 1_655 S
C653 C650 1.409 . S
C653 C651 1.415 . S
C654 H644 0.930 . S
C654 C652 1.419 . S
C654 C655 1.362 . S
C655 H645 0.930 . S
C655 C648 1.409 . S
C655 C654 1.362 . S
H656 C662 0.930 . S
H657 C665 0.930 . S
H658 C666 0.930 . S
H659 C667 0.930 . S
H660 C670 0.930 . S
H661 C671 0.930 . S
C662 H656 0.930 . S
C662 C663 1.355 1_556 S
C662 C664 1.415 . S
C663 C662 1.355 1_554 S
C663 C665 1.419 . S
C664 C662 1.415 . S
C664 C669 1.425 1_556 S
C664 C671 1.409 . S
C665 H657 0.930 . S
C665 C663 1.419 . S
C665 C666 1.362 . S
C666 H658 0.930 . S
C666 C665 1.362 . S
C666 C669 1.409 . S
C667 H659 0.930 . S
C667 C668 1.355 1_554 S
C667 C669 1.415 . S
C668 C667 1.355 1_556 S
C668 C670 1.419 . S
C669 C664 1.425 1_554 S
C669 C666 1.409 . S
C669 C667 1.415 . S
C670 H660 0.930 . S
C670 C668 1.419 . S
C670 C671 1.362 . S
C671 H661 0.930 . S
C671 C664 1.409 . S
C671 C670 1.362 . S
H672 C678 0.930 . S
H673 C681 0.930 . S
H674 C682 0.930 . S
H675 C683 0.930 . S
H676 C686 0.930 . S
H677 C687 0.930 . S
C678 H672 0.930 . S
C678 C679 1.355 1_556 S
C678 C680 1.415 . S
C679 C678 1.355 1_554 S
C679 C681 1.419 . S
C680 C678 1.415 . S
C680 C685 1.425 1_556 S
C680 C687 1.409 . S
C681 H673 0.930 . S
C681 C679 1.419 . S
C681 C682 1.362 . S
C682 H674 0.930 . S
C682 C681 1.362 . S
C682 C685 1.409 . S
C683 H675 0.930 . S
C683 C684 1.355 1_554 S
C683 C685 1.415 . S
C684 C683 1.355 1_556 S
C684 C686 1.419 . S
C685 C680 1.425 1_554 S
C685 C682 1.409 . S
C685 C683 1.415 . S
C686 H676 0.930 . S
C686 C684 1.419 . S
C686 C687 1.362 . S
C687 H677 0.930 . S
C687 C680 1.409 . S
C687 C686 1.362 . S
H688 C694 0.930 . S
H689 C697 0.930 . S
H690 C698 0.930 . S
H691 C699 0.930 . S
H692 C702 0.930 . S
H693 C703 0.930 . S
C694 H688 0.930 . S
C694 C695 1.355 1_554 S
C694 C696 1.415 . S
C695 C694 1.355 1_556 S
C695 C697 1.419 . S
C696 C694 1.415 . S
C696 C701 1.425 1_554 S
C696 C703 1.409 . S
C697 H689 0.930 . S
C697 C695 1.419 . S
C697 C698 1.362 . S
C698 H690 0.930 . S
C698 C697 1.362 . S
C698 C701 1.409 . S
C699 H691 0.930 . S
C699 C700 1.355 1_556 S
C699 C701 1.415 . S
C700 C699 1.355 1_554 S
C700 C702 1.419 . S
C701 C696 1.425 1_556 S
C701 C698 1.409 . S
C701 C699 1.415 . S
C702 H692 0.930 . S
C702 C700 1.419 . S
C702 C703 1.362 . S
C703 H693 0.930 . S
C703 C696 1.409 . S
C703 C702 1.362 . S
H704 C710 0.930 . S
H705 C713 0.930 . S
H706 C714 0.930 . S
H707 C715 0.930 . S
H708 C718 0.930 . S
H709 C719 0.930 . S
C710 H704 0.930 . S
C710 C711 1.354 . S
C710 C712 1.415 . S
C711 C710 1.354 . S
C711 C713 1.420 1_554 S
C712 C710 1.415 . S
C712 C717 1.425 1_554 S
C712 C719 1.409 . S
C713 H705 0.930 . S
C713 C711 1.420 1_556 S
C713 C714 1.362 . S
C714 H706 0.930 . S
C714 C713 1.362 . S
C714 C717 1.409 . S
C715 H707 0.930 . S
C715 C716 1.354 1_556 S
C715 C717 1.415 . S
C716 C715 1.354 1_554 S
C716 C718 1.420 . S
C717 C712 1.425 1_556 S
C717 C714 1.409 . S
C717 C715 1.415 . S
C718 H708 0.930 . S
C718 C716 1.420 . S
C718 C719 1.362 . S
C719 H709 0.930 . S
C719 C712 1.409 . S
C719 C718 1.362 . S
H720 C726 0.930 . S
H721 C729 0.930 . S
H722 C730 0.930 . S
H723 C731 0.930 . S
H724 C734 0.930 . S
H725 C735 0.930 . S
C726 H720 0.930 . S
C726 C727 1.355 . S
C726 C728 1.415 . S
C727 C726 1.355 . S
C727 C729 1.419 . S
C728 C726 1.415 . S
C728 C733 1.425 1_556 S
C728 C735 1.409 1_556 S
C729 H721 0.930 . S
C729 C727 1.419 . S
C729 C730 1.362 . S
C730 H722 0.930 . S
C730 C729 1.362 . S
C730 C733 1.409 1_556 S
C731 H723 0.930 . S
C731 C732 1.355 . S
C731 C733 1.415 . S
C732 C731 1.355 . S
C732 C734 1.419 . S
C733 C728 1.425 1_554 S
C733 C730 1.409 1_554 S
C733 C731 1.415 . S
C734 H724 0.930 . S
C734 C732 1.419 . S
C734 C735 1.362 . S
C735 H725 0.930 . S
C735 C728 1.409 1_554 S
C735 C734 1.362 . S
H736 C742 0.930 . S
H737 C745 0.930 . S
H738 C746 0.930 . S
H739 C747 0.930 . S
H740 C750 0.930 . S
H741 C751 0.930 . S
C742 H736 0.930 . S
C742 C743 1.355 . S
C742 C744 1.415 . S
C743 C742 1.355 . S
C743 C745 1.419 . S
C744 C742 1.415 . S
C744 C749 1.425 1_554 S
C744 C751 1.409 1_554 S
C745 H737 0.930 . S
C745 C743 1.419 . S
C745 C746 1.362 . S
C746 H738 0.930 . S
C746 C745 1.362 . S
C746 C749 1.409 1_554 S
C747 H739 0.930 . S
C747 C748 1.355 . S
C747 C749 1.415 . S
C748 C747 1.355 . S
C748 C750 1.419 . S
C749 C744 1.425 1_556 S
C749 C746 1.409 1_556 S
C749 C747 1.415 . S
C750 H740 0.930 . S
C750 C748 1.419 . S
C750 C751 1.362 . S
C751 H741 0.930 . S
C751 C744 1.409 1_556 S
C751 C750 1.362 . S
H752 C758 0.930 . S
H753 C761 0.930 . S
H754 C762 0.930 . S
H755 C763 0.930 . S
H756 C766 0.930 . S
H757 C767 0.930 . S
C758 H752 0.930 . S
C758 C759 1.355 . S
C758 C760 1.415 . S
C759 C758 1.355 . S
C759 C761 1.419 . S
C760 C758 1.415 . S
C760 C765 1.425 1_556 S
C760 C767 1.409 1_556 S
C761 H753 0.930 . S
C761 C759 1.419 . S
C761 C762 1.362 . S
C762 H754 0.930 . S
C762 C761 1.362 . S
C762 C765 1.409 1_556 S
C763 H755 0.930 . S
C763 C764 1.355 . S
C763 C765 1.415 . S
C764 C763 1.355 . S
C764 C766 1.419 . S
C765 C760 1.425 1_554 S
C765 C762 1.409 1_554 S
C765 C763 1.415 . S
C766 H756 0.930 . S
C766 C764 1.419 . S
C766 C767 1.362 . S
C767 H757 0.930 . S
C767 C760 1.409 1_554 S
C767 C766 1.362 . S
H768 C774 0.930 . S
H769 C777 0.930 . S
H770 C778 0.930 . S
H771 C779 0.930 . S
H772 C782 0.930 . S
H773 C783 0.930 . S
C774 H768 0.930 . S
C774 C775 1.355 . S
C774 C776 1.415 . S
C775 C774 1.355 . S
C775 C777 1.419 . S
C776 C774 1.415 . S
C776 C781 1.425 1_556 S
C776 C783 1.409 1_556 S
C777 H769 0.930 . S
C777 C775 1.419 . S
C777 C778 1.362 . S
C778 H770 0.930 . S
C778 C777 1.362 . S
C778 C781 1.409 1_556 S
C779 H771 0.930 . S
C779 C780 1.355 . S
C779 C781 1.415 . S
C780 C779 1.355 . S
C780 C782 1.419 . S
C781 C776 1.425 1_554 S
C781 C778 1.409 1_554 S
C781 C779 1.415 . S
C782 H772 0.930 . S
C782 C780 1.419 . S
C782 C783 1.362 . S
C783 H773 0.930 . S
C783 C776 1.409 1_554 S
C783 C782 1.362 . S
H784 C790 0.930 . S
H785 C793 0.930 . S
H786 C794 0.930 . S
H787 C795 0.930 . S
H788 C798 0.930 . S
H789 C799 0.930 . S
C790 H784 0.930 . S
C790 C791 1.355 . S
C790 C792 1.415 . S
C791 C790 1.355 . S
C791 C793 1.419 . S
C792 C790 1.415 . S
C792 C797 1.425 1_655 S
C792 C799 1.409 1_655 S
C793 H785 0.930 . S
C793 C791 1.419 . S
C793 C794 1.362 . S
C794 H786 0.930 . S
C794 C793 1.362 . S
C794 C797 1.409 1_655 S
C795 H787 0.930 . S
C795 C796 1.355 . S
C795 C797 1.415 . S
C796 C795 1.355 . S
C796 C798 1.419 . S
C797 C792 1.425 1_455 S
C797 C794 1.409 1_455 S
C797 C795 1.415 . S
C798 H788 0.930 . S
C798 C796 1.419 . S
C798 C799 1.362 . S
C799 H789 0.930 . S
C799 C792 1.409 1_455 S
C799 C798 1.362 . S
H800 C806 0.930 . S
H801 C809 0.930 . S
H802 C810 0.930 . S
H803 C811 0.930 . S
H804 C814 0.930 . S
H805 C815 0.930 . S
C806 H800 0.930 . S
C806 C807 1.355 . S
C806 C808 1.415 . S
C807 C806 1.355 . S
C807 C809 1.419 . S
C808 C806 1.415 . S
C808 C813 1.425 1_545 S
C808 C815 1.409 1_545 S
C809 H801 0.930 . S
C809 C807 1.419 . S
C809 C810 1.362 . S
C810 H802 0.930 . S
C810 C809 1.362 . S
C810 C813 1.409 1_545 S
C811 H803 0.930 . S
C811 C812 1.355 . S
C811 C813 1.415 . S
C812 C811 1.355 . S
C812 C814 1.419 . S
C813 C808 1.425 1_565 S
C813 C810 1.409 1_565 S
C813 C811 1.415 . S
C814 H804 0.930 . S
C814 C812 1.419 . S
C814 C815 1.362 . S
C815 H805 0.930 . S
C815 C808 1.409 1_565 S
C815 C814 1.362 . S
H816 C822 0.930 . S
H817 C825 0.930 . S
H818 C826 0.930 . S
H819 C827 0.930 . S
H820 C830 0.930 . S
H821 C831 0.930 . S
C822 H816 0.930 . S
C822 C823 1.355 . S
C822 C824 1.415 . S
C823 C822 1.355 . S
C823 C825 1.419 . S
C824 C822 1.415 . S
C824 C829 1.425 1_655 S
C824 C831 1.409 1_655 S
C825 H817 0.930 . S
C825 C823 1.419 . S
C825 C826 1.362 . S
C826 H818 0.930 . S
C826 C825 1.362 . S
C826 C829 1.409 1_655 S
C827 H819 0.930 . S
C827 C828 1.355 . S
C827 C829 1.415 . S
C828 C827 1.355 . S
C828 C830 1.419 . S
C829 C824 1.425 1_455 S
C829 C826 1.409 1_455 S
C829 C827 1.415 . S
C830 H820 0.930 . S
C830 C828 1.419 . S
C830 C831 1.362 . S
C831 H821 0.930 . S
C831 C824 1.409 1_455 S
C831 C830 1.362 . S
H832 C838 0.930 . S
H833 C841 0.930 . S
H834 C842 0.930 . S
H835 C843 0.930 . S
H836 C846 0.930 . S
H837 C847 0.930 . S
C838 H832 0.930 . S
C838 C839 1.355 . S
C838 C840 1.415 . S
C839 C838 1.355 . S
C839 C841 1.419 . S
C840 C838 1.415 . S
C840 C845 1.425 1_565 S
C840 C847 1.409 1_565 S
C841 H833 0.930 . S
C841 C839 1.419 . S
C841 C842 1.362 . S
C842 H834 0.930 . S
C842 C841 1.362 . S
C842 C845 1.409 1_565 S
C843 H835 0.930 . S
C843 C844 1.355 . S
C843 C845 1.415 . S
C844 C843 1.355 . S
C844 C846 1.419 . S
C845 C840 1.425 1_545 S
C845 C842 1.409 1_545 S
C845 C843 1.415 . S
C846 H836 0.930 . S
C846 C844 1.419 . S
C846 C847 1.362 . S
C847 H837 0.930 . S
C847 C840 1.409 1_545 S
C847 C846 1.362 . S
H848 C854 0.930 . S
H849 C857 0.930 . S
H850 C858 0.930 . S
H851 C859 0.930 . S
H852 C862 0.930 . S
H853 C863 0.930 . S
C854 H848 0.930 . S
C854 C855 1.355 . S
C854 C856 1.415 . S
C855 C854 1.355 . S
C855 C857 1.419 . S
C856 C854 1.415 . S
C856 C861 1.425 1_565 S
C856 C863 1.409 1_565 S
C857 H849 0.930 . S
C857 C855 1.419 . S
C857 C858 1.362 . S
C858 H850 0.930 . S
C858 C857 1.362 . S
C858 C861 1.409 1_565 S
C859 H851 0.930 . S
C859 C860 1.355 . S
C859 C861 1.415 . S
C860 C859 1.355 . S
C860 C862 1.419 . S
C861 C856 1.425 1_545 S
C861 C858 1.409 1_545 S
C861 C859 1.415 . S
C862 H852 0.930 . S
C862 C860 1.419 . S
C862 C863 1.362 . S
C863 H853 0.930 . S
C863 C856 1.409 1_545 S
C863 C862 1.362 . S
H864 C870 0.930 . S
H865 C873 0.930 . S
H866 C874 0.930 . S
H867 C875 0.930 . S
H868 C878 0.930 . S
H869 C879 0.930 . S
C870 H864 0.930 . S
C870 C871 1.355 . S
C870 C872 1.415 . S
C871 C870 1.355 . S
C871 C873 1.419 . S
C872 C870 1.415 . S
C872 C877 1.425 1_455 S
C872 C879 1.409 1_455 S
C873 H865 0.930 . S
C873 C871 1.419 . S
C873 C874 1.362 . S
C874 H866 0.930 . S
C874 C873 1.362 . S
C874 C877 1.409 1_455 S
C875 H867 0.930 . S
C875 C876 1.355 . S
C875 C877 1.415 . S
C876 C875 1.355 . S
C876 C878 1.419 . S
C877 C872 1.425 1_655 S
C877 C874 1.409 1_655 S
C877 C875 1.415 . S
C878 H868 0.930 . S
C878 C876 1.419 . S
C878 C879 1.362 . S
C879 H869 0.930 . S
C879 C872 1.409 1_655 S
C879 C878 1.362 . S
H880 C886 0.930 . S
H881 C889 0.930 . S
H882 C890 0.930 . S
H883 C891 0.930 . S
H884 C894 0.930 . S
H885 C895 0.930 . S
C886 H880 0.930 . S
C886 C887 1.355 . S
C886 C888 1.415 . S
C887 C886 1.355 . S
C887 C889 1.419 . S
C888 C886 1.415 . S
C888 C893 1.425 1_565 S
C888 C895 1.409 1_565 S
C889 H881 0.930 . S
C889 C887 1.419 . S
C889 C890 1.362 . S
C890 H882 0.930 . S
C890 C889 1.362 . S
C890 C893 1.409 1_565 S
C891 H883 0.930 . S
C891 C892 1.355 . S
C891 C893 1.415 . S
C892 C891 1.355 . S
C892 C894 1.419 . S
C893 C888 1.425 1_545 S
C893 C890 1.409 1_545 S
C893 C891 1.415 . S
C894 H884 0.930 . S
C894 C892 1.419 . S
C894 C895 1.362 . S
C895 H885 0.930 . S
C895 C888 1.409 1_545 S
C895 C894 1.362 . S
H896 C902 0.930 . S
H897 C905 0.930 . S
H898 C906 0.930 . S
H899 C907 0.930 . S
H900 C910 0.930 . S
H901 C911 0.930 . S
C902 H896 0.930 . S
C902 C903 1.355 . S
C902 C904 1.415 . S
C903 C902 1.355 . S
C903 C905 1.419 . S
C904 C902 1.415 . S
C904 C909 1.425 1_455 S
C904 C911 1.409 1_455 S
C905 H897 0.930 . S
C905 C903 1.419 . S
C905 C906 1.362 . S
C906 H898 0.930 . S
C906 C905 1.362 . S
C906 C909 1.409 1_455 S
C907 H899 0.930 . S
C907 C908 1.355 . S
C907 C909 1.415 . S
C908 C907 1.355 . S
C908 C910 1.419 . S
C909 C904 1.425 1_655 S
C909 C906 1.409 1_655 S
C909 C907 1.415 . S
C910 H900 0.930 . S
C910 C908 1.419 . S
C910 C911 1.362 . S
C911 H901 0.930 . S
C911 C904 1.409 1_655 S
C911 C910 1.362 . S
H912 C918 0.930 . S
H913 C921 0.930 . S
H914 C922 0.930 . S
H915 C923 0.930 . S
H916 C926 0.930 . S
H917 C927 0.930 . S
C918 H912 0.930 . S
C918 C919 1.355 . S
C918 C920 1.415 . S
C919 C918 1.355 . S
C919 C921 1.419 . S
C920 C918 1.415 . S
C920 C925 1.425 . S
C920 C927 1.409 . S
C921 H913 0.930 . S
C921 C919 1.419 . S
C921 C922 1.362 . S
C922 H914 0.930 . S
C922 C921 1.362 . S
C922 C925 1.409 . S
C923 H915 0.930 . S
C923 C924 1.355 . S
C923 C925 1.415 . S
C924 C923 1.355 . S
C924 C926 1.419 . S
C925 C920 1.425 . S
C925 C922 1.409 . S
C925 C923 1.415 . S
C926 H916 0.930 . S
C926 C924 1.419 . S
C926 C927 1.362 . S
C927 H917 0.930 . S
C927 C920 1.409 . S
C927 C926 1.362 . S
H928 C934 0.930 . S
H929 C937 0.930 . S
H930 C938 0.930 . S
H931 C939 0.930 . S
H932 C942 0.930 . S
H933 C943 0.930 . S
C934 H928 0.930 . S
C934 C935 1.355 . S
C934 C936 1.415 . S
C935 C934 1.355 . S
C935 C937 1.419 . S
C936 C934 1.415 . S
C936 C941 1.425 . S
C936 C943 1.409 . S
C937 H929 0.930 . S
C937 C935 1.419 . S
C937 C938 1.362 . S
C938 H930 0.930 . S
C938 C937 1.362 . S
C938 C941 1.409 . S
C939 H931 0.930 . S
C939 C940 1.355 . S
C939 C941 1.415 . S
C940 C939 1.355 . S
C940 C942 1.419 . S
C941 C936 1.425 . S
C941 C938 1.409 . S
C941 C939 1.415 . S
C942 H932 0.930 . S
C942 C940 1.419 . S
C942 C943 1.362 . S
C943 H933 0.930 . S
C943 C936 1.409 . S
C943 C942 1.362 . S
H944 C950 0.930 . S
H945 C953 0.930 . S
H946 C954 0.930 . S
H947 C955 0.930 . S
H948 C958 0.930 . S
H949 C959 0.930 . S
C950 H944 0.930 . S
C950 C951 1.355 . S
C950 C952 1.415 . S
C951 C950 1.355 . S
C951 C953 1.419 . S
C952 C950 1.415 . S
C952 C957 1.425 . S
C952 C959 1.409 . S
C953 H945 0.930 . S
C953 C951 1.419 . S
C953 C954 1.362 . S
C954 H946 0.930 . S
C954 C953 1.362 . S
C954 C957 1.409 . S
C955 H947 0.930 . S
C955 C956 1.355 . S
C955 C957 1.415 . S
C956 C955 1.355 . S
C956 C958 1.419 . S
C957 C952 1.425 . S
C957 C954 1.409 . S
C957 C955 1.415 . S
C958 H948 0.930 . S
C958 C956 1.419 . S
C958 C959 1.362 . S
C959 H949 0.930 . S
C959 C952 1.409 . S
C959 C958 1.362 . S
H960 C966 0.930 . S
H961 C969 0.930 . S
H962 C970 0.930 . S
H963 C971 0.930 . S
H964 C974 0.930 . S
H965 C975 0.930 . S
C966 H960 0.930 . S
C966 C967 1.355 . S
C966 C968 1.415 . S
C967 C966 1.355 . S
C967 C969 1.419 . S
C968 C966 1.415 . S
C968 C973 1.425 . S
C968 C975 1.409 . S
C969 H961 0.930 . S
C969 C967 1.419 . S
C969 C970 1.362 . S
C970 H962 0.930 . S
C970 C969 1.362 . S
C970 C973 1.409 . S
C971 H963 0.930 . S
C971 C972 1.355 . S
C971 C973 1.415 . S
C972 C971 1.355 . S
C972 C974 1.419 . S
C973 C968 1.425 . S
C973 C970 1.409 . S
C973 C971 1.415 . S
C974 H964 0.930 . S
C974 C972 1.419 . S
C974 C975 1.362 . S
C975 H965 0.930 . S
C975 C968 1.409 . S
C975 C974 1.362 . S
H976 C982 0.930 . S
H977 C985 0.930 . S
H978 C986 0.930 . S
H979 C987 0.930 . S
H980 C990 0.930 . S
H981 C991 0.930 . S
C982 H976 0.930 . S
C982 C983 1.355 . S
C982 C984 1.415 . S
C983 C982 1.355 . S
C983 C985 1.419 . S
C984 C982 1.415 . S
C984 C989 1.425 . S
C984 C991 1.409 . S
C985 H977 0.930 . S
C985 C983 1.419 . S
C985 C986 1.362 . S
C986 H978 0.930 . S
C986 C985 1.362 . S
C986 C989 1.409 . S
C987 H979 0.930 . S
C987 C988 1.355 . S
C987 C989 1.415 . S
C988 C987 1.355 . S
C988 C990 1.419 . S
C989 C984 1.425 . S
C989 C986 1.409 . S
C989 C987 1.415 . S
C990 H980 0.930 . S
C990 C988 1.419 . S
C990 C991 1.362 . S
C991 H981 0.930 . S
C991 C984 1.409 . S
C991 C990 1.362 . S
H992 C998 0.930 . S
H993 C1001 0.930 . S
H994 C1002 0.930 . S
H995 C1003 0.930 . S
H996 C1006 0.930 . S
H997 C1007 0.930 . S
C998 H992 0.930 . S
C998 C999 1.355 . S
C998 C1000 1.415 . S
C999 C998 1.355 . S
C999 C1001 1.419 . S
C1000 C998 1.415 . S
C1000 C1005 1.425 . S
C1000 C1007 1.409 . S
C1001 H993 0.930 . S
C1001 C999 1.419 . S
C1001 C1002 1.362 . S
C1002 H994 0.930 . S
C1002 C1001 1.362 . S
C1002 C1005 1.409 . S
C1003 H995 0.930 . S
C1003 C1004 1.355 . S
C1003 C1005 1.415 . S
C1004 C1003 1.355 . S
C1004 C1006 1.419 . S
C1005 C1000 1.425 . S
C1005 C1002 1.409 . S
C1005 C1003 1.415 . S
C1006 H996 0.930 . S
C1006 C1004 1.419 . S
C1006 C1007 1.362 . S
C1007 H997 0.930 . S
C1007 C1000 1.409 . S
C1007 C1006 1.362 . S
H1008 C1014 0.930 . S
H1009 C1017 0.930 . S
H1010 C1018 0.930 . S
H1011 C1019 0.930 . S
H1012 C1022 0.930 . S
H1013 C1023 0.930 . S
C1014 H1008 0.930 . S
C1014 C1015 1.355 . S
C1014 C1016 1.415 . S
C1015 C1014 1.355 . S
C1015 C1017 1.419 . S
C1016 C1014 1.415 . S
C1016 C1021 1.425 . S
C1016 C1023 1.409 . S
C1017 H1009 0.930 . S
C1017 C1015 1.419 . S
C1017 C1018 1.362 . S
C1018 H1010 0.930 . S
C1018 C1017 1.362 . S
C1018 C1021 1.409 . S
C1019 H1011 0.930 . S
C1019 C1020 1.355 . S
C1019 C1021 1.415 . S
C1020 C1019 1.355 . S
C1020 C1022 1.419 . S
C1021 C1016 1.425 . S
C1021 C1018 1.409 . S
C1021 C1019 1.415 . S
C1022 H1012 0.930 . S
C1022 C1020 1.419 . S
C1022 C1023 1.362 . S
C1023 H1013 0.930 . S
C1023 C1016 1.409 . S
C1023 C1022 1.362 . S
H1024 C1030 0.930 . S
H1025 C1033 0.930 . S
H1026 C1034 0.930 . S
H1027 C1035 0.930 . S
H1028 C1038 0.930 . S
H1029 C1039 0.930 . S
C1030 H1024 0.930 . S
C1030 C1031 1.355 . S
C1030 C1032 1.415 . S
C1031 C1030 1.355 . S
C1031 C1033 1.419 . S
C1032 C1030 1.415 . S
C1032 C1037 1.425 . S
C1032 C1039 1.409 . S
C1033 H1025 0.930 . S
C1033 C1031 1.419 . S
C1033 C1034 1.362 . S
C1034 H1026 0.930 . S
C1034 C1033 1.362 . S
C1034 C1037 1.409 . S
C1035 H1027 0.930 . S
C1035 C1036 1.355 . S
C1035 C1037 1.415 . S
C1036 C1035 1.355 . S
C1036 C1038 1.419 . S
C1037 C1032 1.425 . S
C1037 C1034 1.409 . S
C1037 C1035 1.415 . S
C1038 H1028 0.930 . S
C1038 C1036 1.419 . S
C1038 C1039 1.362 . S
C1039 H1029 0.930 . S
C1039 C1032 1.409 . S
C1039 C1038 1.362 . S
H1040 C1046 0.930 . S
H1041 C1049 0.930 . S
H1042 C1050 0.930 . S
H1043 C1051 0.930 . S
H1044 C1054 0.930 . S
H1045 C1055 0.930 . S
C1046 H1040 0.930 . S
C1046 C1047 1.355 . S
C1046 C1048 1.415 . S
C1047 C1046 1.355 . S
C1047 C1049 1.419 . S
C1048 C1046 1.415 . S
C1048 C1053 1.425 . S
C1048 C1055 1.409 . S
C1049 H1041 0.930 . S
C1049 C1047 1.419 . S
C1049 C1050 1.362 . S
C1050 H1042 0.930 . S
C1050 C1049 1.362 . S
C1050 C1053 1.409 . S
C1051 H1043 0.930 . S
C1051 C1052 1.355 . S
C1051 C1053 1.415 . S
C1052 C1051 1.355 . S
C1052 C1054 1.419 . S
C1053 C1048 1.425 . S
C1053 C1050 1.409 . S
C1053 C1051 1.415 . S
C1054 H1044 0.930 . S
C1054 C1052 1.419 . S
C1054 C1055 1.362 . S
C1055 H1045 0.930 . S
C1055 C1048 1.409 . S
C1055 C1054 1.362 . S
H1056 C1062 0.930 . S
H1057 C1065 0.930 . S
H1058 C1066 0.930 . S
H1059 C1067 0.930 . S
H1060 C1070 0.930 . S
H1061 C1071 0.930 . S
C1062 H1056 0.930 . S
C1062 C1063 1.355 . S
C1062 C1064 1.415 . S
C1063 C1062 1.355 . S
C1063 C1065 1.419 . S
C1064 C1062 1.415 . S
C1064 C1069 1.425 . S
C1064 C1071 1.409 . S
C1065 H1057 0.930 . S
C1065 C1063 1.419 . S
C1065 C1066 1.362 . S
C1066 H1058 0.930 . S
C1066 C1065 1.362 . S
C1066 C1069 1.409 . S
C1067 H1059 0.930 . S
C1067 C1068 1.355 . S
C1067 C1069 1.415 . S
C1068 C1067 1.355 . S
C1068 C1070 1.419 . S
C1069 C1064 1.425 . S
C1069 C1066 1.409 . S
C1069 C1067 1.415 . S
C1070 H1060 0.930 . S
C1070 C1068 1.419 . S
C1070 C1071 1.362 . S
C1071 H1061 0.930 . S
C1071 C1064 1.409 . S
C1071 C1070 1.362 . S
H1072 C1078 0.930 . S
H1073 C1081 0.930 . S
H1074 C1082 0.930 . S
H1075 C1083 0.930 . S
H1076 C1086 0.930 . S
H1077 C1087 0.930 . S
C1078 H1072 0.930 . S
C1078 C1079 1.355 . S
C1078 C1080 1.415 . S
C1079 C1078 1.355 . S
C1079 C1081 1.419 . S
C1080 C1078 1.415 . S
C1080 C1085 1.425 . S
C1080 C1087 1.409 . S
C1081 H1073 0.930 . S
C1081 C1079 1.419 . S
C1081 C1082 1.362 . S
C1082 H1074 0.930 . S
C1082 C1081 1.362 . S
C1082 C1085 1.409 . S
C1083 H1075 0.930 . S
C1083 C1084 1.355 . S
C1083 C1085 1.415 . S
C1084 C1083 1.355 . S
C1084 C1086 1.419 . S
C1085 C1080 1.425 . S
C1085 C1082 1.409 . S
C1085 C1083 1.415 . S
C1086 H1076 0.930 . S
C1086 C1084 1.419 . S
C1086 C1087 1.362 . S
C1087 H1077 0.930 . S
C1087 C1080 1.409 . S
C1087 C1086 1.362 . S
H1088 C1094 0.930 . S
H1089 C1097 0.930 . S
H1090 C1098 0.930 . S
H1091 C1099 0.930 . S
H1092 C1102 0.930 . S
H1093 C1103 0.930 . S
C1094 H1088 0.930 . S
C1094 C1095 1.355 . S
C1094 C1096 1.415 . S
C1095 C1094 1.355 . S
C1095 C1097 1.419 . S
C1096 C1094 1.415 . S
C1096 C1101 1.425 . S
C1096 C1103 1.409 . S
C1097 H1089 0.930 . S
C1097 C1095 1.419 . S
C1097 C1098 1.362 . S
C1098 H1090 0.930 . S
C1098 C1097 1.362 . S
C1098 C1101 1.409 . S
C1099 H1091 0.930 . S
C1099 C1100 1.355 . S
C1099 C1101 1.415 . S
C1100 C1099 1.355 . S
C1100 C1102 1.419 . S
C1101 C1096 1.425 . S
C1101 C1098 1.409 . S
C1101 C1099 1.415 . S
C1102 H1092 0.930 . S
C1102 C1100 1.419 . S
C1102 C1103 1.362 . S
C1103 H1093 0.930 . S
C1103 C1096 1.409 . S
C1103 C1102 1.362 . S
H1104 C1110 0.930 . S
H1105 C1113 0.930 . S
H1106 C1114 0.930 . S
H1107 C1115 0.930 . S
H1108 C1118 0.930 . S
H1109 C1119 0.930 . S
C1110 H1104 0.930 . S
C1110 C1111 1.355 . S
C1110 C1112 1.415 . S
C1111 C1110 1.355 . S
C1111 C1113 1.419 . S
C1112 C1110 1.415 . S
C1112 C1117 1.425 . S
C1112 C1119 1.409 . S
C1113 H1105 0.930 . S
C1113 C1111 1.419 . S
C1113 C1114 1.362 . S
C1114 H1106 0.930 . S
C1114 C1113 1.362 . S
C1114 C1117 1.409 . S
C1115 H1107 0.930 . S
C1115 C1116 1.355 . S
C1115 C1117 1.415 . S
C1116 C1115 1.355 . S
C1116 C1118 1.419 . S
C1117 C1112 1.425 . S
C1117 C1114 1.409 . S
C1117 C1115 1.415 . S
C1118 H1108 0.930 . S
C1118 C1116 1.419 . S
C1118 C1119 1.362 . S
C1119 H1109 0.930 . S
C1119 C1112 1.409 . S
C1119 C1118 1.362 . S
H1120 C1126 0.930 . S
H1121 C1129 0.930 . S
H1122 C1130 0.930 . S
H1123 C1131 0.930 . S
H1124 C1134 0.930 . S
H1125 C1135 0.930 . S
C1126 H1120 0.930 . S
C1126 C1127 1.355 . S
C1126 C1128 1.415 . S
C1127 C1126 1.355 . S
C1127 C1129 1.419 . S
C1128 C1126 1.415 . S
C1128 C1133 1.425 . S
C1128 C1135 1.409 . S
C1129 H1121 0.930 . S
C1129 C1127 1.419 . S
C1129 C1130 1.362 . S
C1130 H1122 0.930 . S
C1130 C1129 1.362 . S
C1130 C1133 1.409 . S
C1131 H1123 0.930 . S
C1131 C1132 1.355 . S
C1131 C1133 1.415 . S
C1132 C1131 1.355 . S
C1132 C1134 1.419 . S
C1133 C1128 1.425 . S
C1133 C1130 1.409 . S
C1133 C1131 1.415 . S
C1134 H1124 0.930 . S
C1134 C1132 1.419 . S
C1134 C1135 1.362 . S
C1135 H1125 0.930 . S
C1135 C1128 1.409 . S
C1135 C1134 1.362 . S
H1136 C1142 0.930 . S
H1137 C1145 0.930 . S
H1138 C1146 0.930 . S
H1139 C1147 0.930 . S
H1140 C1150 0.930 . S
H1141 C1151 0.930 . S
C1142 H1136 0.930 . S
C1142 C1143 1.355 . S
C1142 C1144 1.415 . S
C1143 C1142 1.355 . S
C1143 C1145 1.419 . S
C1144 C1142 1.415 . S
C1144 C1149 1.425 . S
C1144 C1151 1.409 . S
C1145 H1137 0.930 . S
C1145 C1143 1.419 . S
C1145 C1146 1.362 . S
C1146 H1138 0.930 . S
C1146 C1145 1.362 . S
C1146 C1149 1.409 . S
C1147 H1139 0.930 . S
C1147 C1148 1.355 . S
C1147 C1149 1.415 . S
C1148 C1147 1.355 . S
C1148 C1150 1.419 . S
C1149 C1144 1.425 . S
C1149 C1146 1.409 . S
C1149 C1147 1.415 . S
C1150 H1140 0.930 . S
C1150 C1148 1.419 . S
C1150 C1151 1.362 . S
C1151 H1141 0.930 . S
C1151 C1144 1.409 . S
C1151 C1150 1.362 . S
H1152 C1158 0.930 . S
H1153 C1161 0.930 . S
H1154 C1162 0.930 . S
H1155 C1163 0.930 . S
H1156 C1166 0.930 . S
H1157 C1167 0.930 . S
C1158 H1152 0.930 . S
C1158 C1159 1.355 . S
C1158 C1160 1.415 . S
C1159 C1158 1.355 . S
C1159 C1161 1.419 . S
C1160 C1158 1.415 . S
C1160 C1165 1.425 . S
C1160 C1167 1.409 . S
C1161 H1153 0.930 . S
C1161 C1159 1.419 . S
C1161 C1162 1.362 . S
C1162 H1154 0.930 . S
C1162 C1161 1.362 . S
C1162 C1165 1.409 . S
C1163 H1155 0.930 . S
C1163 C1164 1.355 . S
C1163 C1165 1.415 . S
C1164 C1163 1.355 . S
C1164 C1166 1.419 . S
C1165 C1160 1.425 . S
C1165 C1162 1.409 . S
C1165 C1163 1.415 . S
C1166 H1156 0.930 . S
C1166 C1164 1.419 . S
C1166 C1167 1.362 . S
C1167 H1157 0.930 . S
C1167 C1160 1.409 . S
C1167 C1166 1.362 . S
H1168 C1174 0.930 . S
H1169 C1177 0.930 . S
H1170 C1178 0.930 . S
H1171 C1179 0.930 . S
H1172 C1182 0.930 . S
H1173 C1183 0.930 . S
C1174 H1168 0.930 . S
C1174 C1175 1.355 . S
C1174 C1176 1.415 . S
C1175 C1174 1.355 . S
C1175 C1177 1.419 . S
C1176 C1174 1.415 . S
C1176 C1181 1.425 . S
C1176 C1183 1.409 . S
C1177 H1169 0.930 . S
C1177 C1175 1.419 . S
C1177 C1178 1.362 . S
C1178 H1170 0.930 . S
C1178 C1177 1.362 . S
C1178 C1181 1.409 . S
C1179 H1171 0.930 . S
C1179 C1180 1.355 . S
C1179 C1181 1.415 . S
C1180 C1179 1.355 . S
C1180 C1182 1.419 . S
C1181 C1176 1.425 . S
C1181 C1178 1.409 . S
C1181 C1179 1.415 . S
C1182 H1172 0.930 . S
C1182 C1180 1.419 . S
C1182 C1183 1.362 . S
C1183 H1173 0.930 . S
C1183 C1176 1.409 . S
C1183 C1182 1.362 . S
H1184 C1190 0.930 . S
H1185 C1193 0.930 . S
H1186 C1194 0.930 . S
H1187 C1195 0.930 . S
H1188 C1198 0.930 . S
H1189 C1199 0.930 . S
C1190 H1184 0.930 . S
C1190 C1191 1.355 . S
C1190 C1192 1.415 . S
C1191 C1190 1.355 . S
C1191 C1193 1.419 . S
C1192 C1190 1.415 . S
C1192 C1197 1.425 . S
C1192 C1199 1.409 . S
C1193 H1185 0.930 . S
C1193 C1191 1.419 . S
C1193 C1194 1.362 . S
C1194 H1186 0.930 . S
C1194 C1193 1.362 . S
C1194 C1197 1.409 . S
C1195 H1187 0.930 . S
C1195 C1196 1.355 . S
C1195 C1197 1.415 . S
C1196 C1195 1.355 . S
C1196 C1198 1.419 . S
C1197 C1192 1.425 . S
C1197 C1194 1.409 . S
C1197 C1195 1.415 . S
C1198 H1188 0.930 . S
C1198 C1196 1.419 . S
C1198 C1199 1.362 . S
C1199 H1189 0.930 . S
C1199 C1192 1.409 . S
C1199 C1198 1.362 . S
H1200 C1206 0.930 . S
H1201 C1209 0.930 . S
H1202 C1210 0.930 . S
H1203 C1211 0.930 . S
H1204 C1214 0.930 . S
H1205 C1215 0.930 . S
C1206 H1200 0.930 . S
C1206 C1207 1.355 . S
C1206 C1208 1.415 . S
C1207 C1206 1.355 . S
C1207 C1209 1.419 . S
C1208 C1206 1.415 . S
C1208 C1213 1.425 . S
C1208 C1215 1.409 . S
C1209 H1201 0.930 . S
C1209 C1207 1.419 . S
C1209 C1210 1.362 . S
C1210 H1202 0.930 . S
C1210 C1209 1.362 . S
C1210 C1213 1.409 . S
C1211 H1203 0.930 . S
C1211 C1212 1.355 . S
C1211 C1213 1.415 . S
C1212 C1211 1.355 . S
C1212 C1214 1.419 . S
C1213 C1208 1.425 . S
C1213 C1210 1.409 . S
C1213 C1211 1.415 . S
C1214 H1204 0.930 . S
C1214 C1212 1.419 . S
C1214 C1215 1.362 . S
C1215 H1205 0.930 . S
C1215 C1208 1.409 . S
C1215 C1214 1.362 . S
H1216 C1222 0.930 . S
H1217 C1225 0.930 . S
H1218 C1226 0.930 . S
H1219 C1227 0.930 . S
H1220 C1230 0.930 . S
H1221 C1231 0.930 . S
C1222 H1216 0.930 . S
C1222 C1223 1.355 . S
C1222 C1224 1.415 . S
C1223 C1222 1.355 . S
C1223 C1225 1.419 . S
C1224 C1222 1.415 . S
C1224 C1229 1.425 . S
C1224 C1231 1.409 . S
C1225 H1217 0.930 . S
C1225 C1223 1.419 . S
C1225 C1226 1.362 . S
C1226 H1218 0.930 . S
C1226 C1225 1.362 . S
C1226 C1229 1.409 . S
C1227 H1219 0.930 . S
C1227 C1228 1.355 . S
C1227 C1229 1.415 . S
C1228 C1227 1.355 . S
C1228 C1230 1.419 . S
C1229 C1224 1.425 . S
C1229 C1226 1.409 . S
C1229 C1227 1.415 . S
C1230 H1220 0.930 . S
C1230 C1228 1.419 . S
C1230 C1231 1.362 . S
C1231 H1221 0.930 . S
C1231 C1224 1.409 . S
C1231 C1230 1.362 . S
H1232 C1238 0.930 . S
H1233 C1241 0.930 . S
H1234 C1242 0.930 . S
H1235 C1243 0.930 . S
H1236 C1246 0.930 . S
H1237 C1247 0.930 . S
C1238 H1232 0.930 . S
C1238 C1239 1.355 . S
C1238 C1240 1.415 . S
C1239 C1238 1.355 . S
C1239 C1241 1.419 . S
C1240 C1238 1.415 . S
C1240 C1245 1.425 . S
C1240 C1247 1.409 . S
C1241 H1233 0.930 . S
C1241 C1239 1.419 . S
C1241 C1242 1.362 . S
C1242 H1234 0.930 . S
C1242 C1241 1.362 . S
C1242 C1245 1.409 . S
C1243 H1235 0.930 . S
C1243 C1244 1.355 . S
C1243 C1245 1.415 . S
C1244 C1243 1.355 . S
C1244 C1246 1.419 . S
C1245 C1240 1.425 . S
C1245 C1242 1.409 . S
C1245 C1243 1.415 . S
C1246 H1236 0.930 . S
C1246 C1244 1.419 . S
C1246 C1247 1.362 . S
C1247 H1237 0.930 . S
C1247 C1240 1.409 . S
C1247 C1246 1.362 . S
H1248 C1254 0.930 . S
H1249 C1257 0.930 . S
H1250 C1258 0.930 . S
H1251 C1259 0.930 . S
H1252 C1262 0.930 . S
H1253 C1263 0.930 . S
C1254 H1248 0.930 . S
C1254 C1255 1.355 . S
C1254 C1256 1.415 . S
C1255 C1254 1.355 . S
C1255 C1257 1.419 . S
C1256 C1254 1.415 . S
C1256 C1261 1.425 . S
C1256 C1263 1.409 . S
C1257 H1249 0.930 . S
C1257 C1255 1.419 . S
C1257 C1258 1.362 . S
C1258 H1250 0.930 . S
C1258 C1257 1.362 . S
C1258 C1261 1.409 . S
C1259 H1251 0.930 . S
C1259 C1260 1.355 . S
C1259 C1261 1.415 . S
C1260 C1259 1.355 . S
C1260 C1262 1.419 . S
C1261 C1256 1.425 . S
C1261 C1258 1.409 . S
C1261 C1259 1.415 . S
C1262 H1252 0.930 . S
C1262 C1260 1.419 . S
C1262 C1263 1.362 . S
C1263 H1253 0.930 . S
C1263 C1256 1.409 . S
C1263 C1262 1.362 . S
H1264 C1270 0.930 . S
H1265 C1273 0.930 . S
H1266 C1274 0.930 . S
H1267 C1275 0.930 . S
H1268 C1278 0.930 . S
H1269 C1279 0.930 . S
C1270 H1264 0.930 . S
C1270 C1271 1.355 . S
C1270 C1272 1.415 . S
C1271 C1270 1.355 . S
C1271 C1273 1.419 . S
C1272 C1270 1.415 . S
C1272 C1277 1.425 . S
C1272 C1279 1.409 . S
C1273 H1265 0.930 . S
C1273 C1271 1.419 . S
C1273 C1274 1.362 . S
C1274 H1266 0.930 . S
C1274 C1273 1.362 . S
C1274 C1277 1.409 . S
C1275 H1267 0.930 . S
C1275 C1276 1.355 . S
C1275 C1277 1.415 . S
C1276 C1275 1.355 . S
C1276 C1278 1.419 . S
C1277 C1272 1.425 . S
C1277 C1274 1.409 . S
C1277 C1275 1.415 . S
C1278 H1268 0.930 . S
C1278 C1276 1.419 . S
C1278 C1279 1.362 . S
C1279 H1269 0.930 . S
C1279 C1272 1.409 . S
C1279 C1278 1.362 . S
H1280 C1286 0.930 . S
H1281 C1289 0.930 . S
H1282 C1290 0.930 . S
H1283 C1291 0.930 . S
H1284 C1294 0.930 . S
H1285 C1295 0.930 . S
C1286 H1280 0.930 . S
C1286 C1287 1.355 . S
C1286 C1288 1.415 . S
C1287 C1286 1.355 . S
C1287 C1289 1.419 . S
C1288 C1286 1.415 . S
C1288 C1293 1.425 . S
C1288 C1295 1.409 . S
C1289 H1281 0.930 . S
C1289 C1287 1.419 . S
C1289 C1290 1.362 . S
C1290 H1282 0.930 . S
C1290 C1289 1.362 . S
C1290 C1293 1.409 . S
C1291 H1283 0.930 . S
C1291 C1292 1.355 . S
C1291 C1293 1.415 . S
C1292 C1291 1.355 . S
C1292 C1294 1.419 . S
C1293 C1288 1.425 . S
C1293 C1290 1.409 . S
C1293 C1291 1.415 . S
C1294 H1284 0.930 . S
C1294 C1292 1.419 . S
C1294 C1295 1.362 . S
C1295 H1285 0.930 . S
C1295 C1288 1.409 . S
C1295 C1294 1.362 . S
H1296 C1302 0.930 . S
H1297 C1305 0.930 . S
H1298 C1306 0.930 . S
H1299 C1307 0.930 . S
H1300 C1310 0.930 . S
H1301 C1311 0.930 . S
C1302 H1296 0.930 . S
C1302 C1303 1.355 . S
C1302 C1304 1.415 . S
C1303 C1302 1.355 . S
C1303 C1305 1.419 . S
C1304 C1302 1.415 . S
C1304 C1309 1.425 . S
C1304 C1311 1.409 . S
C1305 H1297 0.930 . S
C1305 C1303 1.419 . S
C1305 C1306 1.362 . S
C1306 H1298 0.930 . S
C1306 C1305 1.362 . S
C1306 C1309 1.409 . S
C1307 H1299 0.930 . S
C1307 C1308 1.355 . S
C1307 C1309 1.415 . S
C1308 C1307 1.355 . S
C1308 C1310 1.419 . S
C1309 C1304 1.425 . S
C1309 C1306 1.409 . S
C1309 C1307 1.415 . S
C1310 H1300 0.930 . S
C1310 C1308 1.419 . S
C1310 C1311 1.362 . S
C1311 H1301 0.930 . S
C1311 C1304 1.409 . S
C1311 C1310 1.362 . S
H1312 C1318 0.930 . S
H1313 C1321 0.930 . S
H1314 C1322 0.930 . S
H1315 C1323 0.930 . S
H1316 C1326 0.930 . S
H1317 C1327 0.930 . S
C1318 H1312 0.930 . S
C1318 C1319 1.355 . S
C1318 C1320 1.415 . S
C1319 C1318 1.355 . S
C1319 C1321 1.419 . S
C1320 C1318 1.415 . S
C1320 C1325 1.425 . S
C1320 C1327 1.409 . S
C1321 H1313 0.930 . S
C1321 C1319 1.419 . S
C1321 C1322 1.362 . S
C1322 H1314 0.930 . S
C1322 C1321 1.362 . S
C1322 C1325 1.409 . S
C1323 H1315 0.930 . S
C1323 C1324 1.355 . S
C1323 C1325 1.415 . S
C1324 C1323 1.355 . S
C1324 C1326 1.419 . S
C1325 C1320 1.425 . S
C1325 C1322 1.409 . S
C1325 C1323 1.415 . S
C1326 H1316 0.930 . S
C1326 C1324 1.419 . S
C1326 C1327 1.362 . S
C1327 H1317 0.930 . S
C1327 C1320 1.409 . S
C1327 C1326 1.362 . S
H1328 C1334 0.930 . S
H1329 C1337 0.930 . S
H1330 C1338 0.930 . S
H1331 C1339 0.930 . S
H1332 C1342 0.930 . S
H1333 C1343 0.930 . S
C1334 H1328 0.930 . S
C1334 C1335 1.355 . S
C1334 C1336 1.415 . S
C1335 C1334 1.355 . S
C1335 C1337 1.419 . S
C1336 C1334 1.415 . S
C1336 C1341 1.425 . S
C1336 C1343 1.409 . S
C1337 H1329 0.930 . S
C1337 C1335 1.419 . S
C1337 C1338 1.362 . S
C1338 H1330 0.930 . S
C1338 C1337 1.362 . S
C1338 C1341 1.409 . S
C1339 H1331 0.930 . S
C1339 C1340 1.355 . S
C1339 C1341 1.415 . S
C1340 C1339 1.355 . S
C1340 C1342 1.419 . S
C1341 C1336 1.425 . S
C1341 C1338 1.409 . S
C1341 C1339 1.415 . S
C1342 H1332 0.930 . S
C1342 C1340 1.419 . S
C1342 C1343 1.362 . S
C1343 H1333 0.930 . S
C1343 C1336 1.409 . S
C1343 C1342 1.362 . S
H1344 C1350 0.930 . S
H1345 C1353 0.930 . S
H1346 C1354 0.930 . S
H1347 C1355 0.930 . S
H1348 C1358 0.930 . S
H1349 C1359 0.930 . S
C1350 H1344 0.930 . S
C1350 C1351 1.355 . S
C1350 C1352 1.415 . S
C1351 C1350 1.355 . S
C1351 C1353 1.419 . S
C1352 C1350 1.415 . S
C1352 C1357 1.425 . S
C1352 C1359 1.409 . S
C1353 H1345 0.930 . S
C1353 C1351 1.419 . S
C1353 C1354 1.362 . S
C1354 H1346 0.930 . S
C1354 C1353 1.362 . S
C1354 C1357 1.409 . S
C1355 H1347 0.930 . S
C1355 C1356 1.355 . S
C1355 C1357 1.415 . S
C1356 C1355 1.355 . S
C1356 C1358 1.419 . S
C1357 C1352 1.425 . S
C1357 C1354 1.409 . S
C1357 C1355 1.415 . S
C1358 H1348 0.930 . S
C1358 C1356 1.419 . S
C1358 C1359 1.362 . S
C1359 H1349 0.930 . S
C1359 C1352 1.409 . S
C1359 C1358 1.362 . S
H1360 C1366 0.930 . S
H1361 C1369 0.930 . S
H1362 C1370 0.930 . S
H1363 C1371 0.930 . S
H1364 C1374 0.930 . S
H1365 C1375 0.930 . S
C1366 H1360 0.930 . S
C1366 C1367 1.355 . S
C1366 C1368 1.415 . S
C1367 C1366 1.355 . S
C1367 C1369 1.419 . S
C1368 C1366 1.415 . S
C1368 C1373 1.425 . S
C1368 C1375 1.409 . S
C1369 H1361 0.930 . S
C1369 C1367 1.419 . S
C1369 C1370 1.362 . S
C1370 H1362 0.930 . S
C1370 C1369 1.362 . S
C1370 C1373 1.409 . S
C1371 H1363 0.930 . S
C1371 C1372 1.355 . S
C1371 C1373 1.415 . S
C1372 C1371 1.355 . S
C1372 C1374 1.419 . S
C1373 C1368 1.425 . S
C1373 C1370 1.409 . S
C1373 C1371 1.415 . S
C1374 H1364 0.930 . S
C1374 C1372 1.419 . S
C1374 C1375 1.362 . S
C1375 H1365 0.930 . S
C1375 C1368 1.409 . S
C1375 C1374 1.362 . S
H1376 C1382 0.930 . S
H1377 C1385 0.930 . S
H1378 C1386 0.930 . S
H1379 C1387 0.930 . S
H1380 C1390 0.930 . S
H1381 C1391 0.930 . S
C1382 H1376 0.930 . S
C1382 C1383 1.355 . S
C1382 C1384 1.415 . S
C1383 C1382 1.355 . S
C1383 C1385 1.419 . S
C1384 C1382 1.415 . S
C1384 C1389 1.425 . S
C1384 C1391 1.409 . S
C1385 H1377 0.930 . S
C1385 C1383 1.419 . S
C1385 C1386 1.362 . S
C1386 H1378 0.930 . S
C1386 C1385 1.362 . S
C1386 C1389 1.409 . S
C1387 H1379 0.930 . S
C1387 C1388 1.355 . S
C1387 C1389 1.415 . S
C1388 C1387 1.355 . S
C1388 C1390 1.419 . S
C1389 C1384 1.425 . S
C1389 C1386 1.409 . S
C1389 C1387 1.415 . S
C1390 H1380 0.930 . S
C1390 C1388 1.419 . S
C1390 C1391 1.362 . S
C1391 H1381 0.930 . S
C1391 C1384 1.409 . S
C1391 C1390 1.362 . S
H1392 C1398 0.930 . S
H1393 C1401 0.930 . S
H1394 C1402 0.930 . S
H1395 C1403 0.930 . S
H1396 C1406 0.930 . S
H1397 C1407 0.930 . S
C1398 H1392 0.930 . S
C1398 C1399 1.355 . S
C1398 C1400 1.415 . S
C1399 C1398 1.355 . S
C1399 C1401 1.419 . S
C1400 C1398 1.415 . S
C1400 C1405 1.425 . S
C1400 C1407 1.409 . S
C1401 H1393 0.930 . S
C1401 C1399 1.419 . S
C1401 C1402 1.362 . S
C1402 H1394 0.930 . S
C1402 C1401 1.362 . S
C1402 C1405 1.409 . S
C1403 H1395 0.930 . S
C1403 C1404 1.355 . S
C1403 C1405 1.415 . S
C1404 C1403 1.355 . S
C1404 C1406 1.419 . S
C1405 C1400 1.425 . S
C1405 C1402 1.409 . S
C1405 C1403 1.415 . S
C1406 H1396 0.930 . S
C1406 C1404 1.419 . S
C1406 C1407 1.362 . S
C1407 H1397 0.930 . S
C1407 C1400 1.409 . S
C1407 C1406 1.362 . S
H1408 C1414 0.930 . S
H1409 C1417 0.930 . S
H1410 C1418 0.930 . S
H1411 C1419 0.930 . S
H1412 C1422 0.930 . S
H1413 C1423 0.930 . S
C1414 H1408 0.930 . S
C1414 C1415 1.355 . S
C1414 C1416 1.415 . S
C1415 C1414 1.355 . S
C1415 C1417 1.419 . S
C1416 C1414 1.415 . S
C1416 C1421 1.425 . S
C1416 C1423 1.409 . S
C1417 H1409 0.930 . S
C1417 C1415 1.419 . S
C1417 C1418 1.362 . S
C1418 H1410 0.930 . S
C1418 C1417 1.362 . S
C1418 C1421 1.409 . S
C1419 H1411 0.930 . S
C1419 C1420 1.355 . S
C1419 C1421 1.415 . S
C1420 C1419 1.355 . S
C1420 C1422 1.419 . S
C1421 C1416 1.425 . S
C1421 C1418 1.409 . S
C1421 C1419 1.415 . S
C1422 H1412 0.930 . S
C1422 C1420 1.419 . S
C1422 C1423 1.362 . S
C1423 H1413 0.930 . S
C1423 C1416 1.409 . S
C1423 C1422 1.362 . S
H1424 C1430 0.930 . S
H1425 C1433 0.930 . S
H1426 C1434 0.930 . S
H1427 C1435 0.930 . S
H1428 C1438 0.930 . S
H1429 C1439 0.930 . S
C1430 H1424 0.930 . S
C1430 C1431 1.355 . S
C1430 C1432 1.415 . S
C1431 C1430 1.355 . S
C1431 C1433 1.419 . S
C1432 C1430 1.415 . S
C1432 C1437 1.425 . S
C1432 C1439 1.409 . S
C1433 H1425 0.930 . S
C1433 C1431 1.419 . S
C1433 C1434 1.362 . S
C1434 H1426 0.930 . S
C1434 C1433 1.362 . S
C1434 C1437 1.409 . S
C1435 H1427 0.930 . S
C1435 C1436 1.355 . S
C1435 C1437 1.415 . S
C1436 C1435 1.355 . S
C1436 C1438 1.419 . S
C1437 C1432 1.425 . S
C1437 C1434 1.409 . S
C1437 C1435 1.415 . S
C1438 H1428 0.930 . S
C1438 C1436 1.419 . S
C1438 C1439 1.362 . S
C1439 H1429 0.930 . S
C1439 C1432 1.409 . S
C1439 C1438 1.362 . S
H1440 C1446 0.930 . S
H1441 C1449 0.930 . S
H1442 C1450 0.930 . S
H1443 C1451 0.930 . S
H1444 C1454 0.930 . S
H1445 C1455 0.930 . S
C1446 H1440 0.930 . S
C1446 C1447 1.355 . S
C1446 C1448 1.415 . S
C1447 C1446 1.355 . S
C1447 C1449 1.419 . S
C1448 C1446 1.415 . S
C1448 C1453 1.425 . S
C1448 C1455 1.409 . S
C1449 H1441 0.930 . S
C1449 C1447 1.419 . S
C1449 C1450 1.362 . S
C1450 H1442 0.930 . S
C1450 C1449 1.362 . S
C1450 C1453 1.409 . S
C1451 H1443 0.930 . S
C1451 C1452 1.355 . S
C1451 C1453 1.415 . S
C1452 C1451 1.355 . S
C1452 C1454 1.419 . S
C1453 C1448 1.425 . S
C1453 C1450 1.409 . S
C1453 C1451 1.415 . S
C1454 H1444 0.930 . S
C1454 C1452 1.419 . S
C1454 C1455 1.362 . S
C1455 H1445 0.930 . S
C1455 C1448 1.409 . S
C1455 C1454 1.362 . S
H1456 C1462 0.930 . S
H1457 C1465 0.930 . S
H1458 C1466 0.930 . S
H1459 C1467 0.930 . S
H1460 C1470 0.930 . S
H1461 C1471 0.930 . S
C1462 H1456 0.930 . S
C1462 C1463 1.355 . S
C1462 C1464 1.415 . S
C1463 C1462 1.355 . S
C1463 C1465 1.419 . S
C1464 C1462 1.415 . S
C1464 C1469 1.425 . S
C1464 C1471 1.409 . S
C1465 H1457 0.930 . S
C1465 C1463 1.419 . S
C1465 C1466 1.362 . S
C1466 H1458 0.930 . S
C1466 C1465 1.362 . S
C1466 C1469 1.409 . S
C1467 H1459 0.930 . S
C1467 C1468 1.355 . S
C1467 C1469 1.415 . S
C1468 C1467 1.355 . S
C1468 C1470 1.419 . S
C1469 C1464 1.425 . S
C1469 C1466 1.409 . S
C1469 C1467 1.415 . S
C1470 H1460 0.930 . S
C1470 C1468 1.419 . S
C1470 C1471 1.362 . S
C1471 H1461 0.930 . S
C1471 C1464 1.409 . S
C1471 C1470 1.362 . S
H1472 C1478 0.930 . S
H1473 C1481 0.930 . S
H1474 C1482 0.930 . S
H1475 C1483 0.930 . S
H1476 C1486 0.930 . S
H1477 C1487 0.930 . S
C1478 H1472 0.930 . S
C1478 C1479 1.355 . S
C1478 C1480 1.415 . S
C1479 C1478 1.355 . S
C1479 C1481 1.419 . S
C1480 C1478 1.415 . S
C1480 C1485 1.425 . S
C1480 C1487 1.409 . S
C1481 H1473 0.930 . S
C1481 C1479 1.419 . S
C1481 C1482 1.362 . S
C1482 H1474 0.930 . S
C1482 C1481 1.362 . S
C1482 C1485 1.409 . S
C1483 H1475 0.930 . S
C1483 C1484 1.355 . S
C1483 C1485 1.415 . S
C1484 C1483 1.355 . S
C1484 C1486 1.419 . S
C1485 C1480 1.425 . S
C1485 C1482 1.409 . S
C1485 C1483 1.415 . S
C1486 H1476 0.930 . S
C1486 C1484 1.419 . S
C1486 C1487 1.362 . S
C1487 H1477 0.930 . S
C1487 C1480 1.409 . S
C1487 C1486 1.362 . S
H1488 C1494 0.930 . S
H1489 C1497 0.930 . S
H1490 C1498 0.930 . S
H1491 C1499 0.930 . S
H1492 C1502 0.930 . S
H1493 C1503 0.930 . S
C1494 H1488 0.930 . S
C1494 C1495 1.355 . S
C1494 C1496 1.415 . S
C1495 C1494 1.355 . S
C1495 C1497 1.419 . S
C1496 C1494 1.415 . S
C1496 C1501 1.425 . S
C1496 C1503 1.409 . S
C1497 H1489 0.930 . S
C1497 C1495 1.419 . S
C1497 C1498 1.362 . S
C1498 H1490 0.930 . S
C1498 C1497 1.362 . S
C1498 C1501 1.409 . S
C1499 H1491 0.930 . S
C1499 C1500 1.355 . S
C1499 C1501 1.415 . S
C1500 C1499 1.355 . S
C1500 C1502 1.419 . S
C1501 C1496 1.425 . S
C1501 C1498 1.409 . S
C1501 C1499 1.415 . S
C1502 H1492 0.930 . S
C1502 C1500 1.419 . S
C1502 C1503 1.362 . S
C1503 H1493 0.930 . S
C1503 C1496 1.409 . S
C1503 C1502 1.362 . S
H1504 C1510 0.930 . S
H1505 C1513 0.930 . S
H1506 C1514 0.930 . S
H1507 C1515 0.930 . S
H1508 C1518 0.930 . S
H1509 C1519 0.930 . S
C1510 H1504 0.930 . S
C1510 C1511 1.355 . S
C1510 C1512 1.415 . S
C1511 C1510 1.355 . S
C1511 C1513 1.419 . S
C1512 C1510 1.415 . S
C1512 C1517 1.425 . S
C1512 C1519 1.409 . S
C1513 H1505 0.930 . S
C1513 C1511 1.419 . S
C1513 C1514 1.362 . S
C1514 H1506 0.930 . S
C1514 C1513 1.362 . S
C1514 C1517 1.409 . S
C1515 H1507 0.930 . S
C1515 C1516 1.355 . S
C1515 C1517 1.415 . S
C1516 C1515 1.355 . S
C1516 C1518 1.419 . S
C1517 C1512 1.425 . S
C1517 C1514 1.409 . S
C1517 C1515 1.415 . S
C1518 H1508 0.930 . S
C1518 C1516 1.419 . S
C1518 C1519 1.362 . S
C1519 H1509 0.930 . S
C1519 C1512 1.409 . S
C1519 C1518 1.362 . S
H1520 C1526 0.930 . S
H1521 C1529 0.930 . S
H1522 C1530 0.930 . S
H1523 C1531 0.930 . S
H1524 C1534 0.930 . S
H1525 C1535 0.930 . S
C1526 H1520 0.930 . S
C1526 C1527 1.355 . S
C1526 C1528 1.415 . S
C1527 C1526 1.355 . S
C1527 C1529 1.419 . S
C1528 C1526 1.415 . S
C1528 C1533 1.425 . S
C1528 C1535 1.409 . S
C1529 H1521 0.930 . S
C1529 C1527 1.419 . S
C1529 C1530 1.362 . S
C1530 H1522 0.930 . S
C1530 C1529 1.362 . S
C1530 C1533 1.409 . S
C1531 H1523 0.930 . S
C1531 C1532 1.355 . S
C1531 C1533 1.415 . S
C1532 C1531 1.355 . S
C1532 C1534 1.419 . S
C1533 C1528 1.425 . S
C1533 C1530 1.409 . S
C1533 C1531 1.415 . S
C1534 H1524 0.930 . S
C1534 C1532 1.419 . S
C1534 C1535 1.362 . S
C1535 H1525 0.930 . S
C1535 C1528 1.409 . S
C1535 C1534 1.362 . S
H1536 C1542 0.930 . S
H1537 C1545 0.930 . S
H1538 C1546 0.930 . S
H1539 C1547 0.930 . S
H1540 C1550 0.930 . S
H1541 C1551 0.930 . S
C1542 H1536 0.930 . S
C1542 C1543 1.355 . S
C1542 C1544 1.415 . S
C1543 C1542 1.355 . S
C1543 C1545 1.419 . S
C1544 C1542 1.415 . S
C1544 C1549 1.425 . S
C1544 C1551 1.409 . S
C1545 H1537 0.930 . S
C1545 C1543 1.419 . S
C1545 C1546 1.362 . S
C1546 H1538 0.930 . S
C1546 C1545 1.362 . S
C1546 C1549 1.409 . S
C1547 H1539 0.930 . S
C1547 C1548 1.355 . S
C1547 C1549 1.415 . S
C1548 C1547 1.355 . S
C1548 C1550 1.419 . S
C1549 C1544 1.425 . S
C1549 C1546 1.409 . S
C1549 C1547 1.415 . S
C1550 H1540 0.930 . S
C1550 C1548 1.419 . S
C1550 C1551 1.362 . S
C1551 H1541 0.930 . S
C1551 C1544 1.409 . S
C1551 C1550 1.362 . S
H1552 C1558 0.930 . S
H1553 C1561 0.930 . S
H1554 C1562 0.930 . S
H1555 C1563 0.930 . S
H1556 C1566 0.930 . S
H1557 C1567 0.930 . S
C1558 H1552 0.930 . S
C1558 C1559 1.355 . S
C1558 C1560 1.415 . S
C1559 C1558 1.355 . S
C1559 C1561 1.419 . S
C1560 C1558 1.415 . S
C1560 C1565 1.425 . S
C1560 C1567 1.409 . S
C1561 H1553 0.930 . S
C1561 C1559 1.419 . S
C1561 C1562 1.362 . S
C1562 H1554 0.930 . S
C1562 C1561 1.362 . S
C1562 C1565 1.409 . S
C1563 H1555 0.930 . S
C1563 C1564 1.355 . S
C1563 C1565 1.415 . S
C1564 C1563 1.355 . S
C1564 C1566 1.419 . S
C1565 C1560 1.425 . S
C1565 C1562 1.409 . S
C1565 C1563 1.415 . S
C1566 H1556 0.930 . S
C1566 C1564 1.419 . S
C1566 C1567 1.362 . S
C1567 H1557 0.930 . S
C1567 C1560 1.409 . S
C1567 C1566 1.362 . S
H1568 C1574 0.930 . S
H1569 C1577 0.930 . S
H1570 C1578 0.930 . S
H1571 C1579 0.930 . S
H1572 C1582 0.930 . S
H1573 C1583 0.930 . S
C1574 H1568 0.930 . S
C1574 C1575 1.355 . S
C1574 C1576 1.415 . S
C1575 C1574 1.355 . S
C1575 C1577 1.419 . S
C1576 C1574 1.415 . S
C1576 C1581 1.425 . S
C1576 C1583 1.409 . S
C1577 H1569 0.930 . S
C1577 C1575 1.419 . S
C1577 C1578 1.362 . S
C1578 H1570 0.930 . S
C1578 C1577 1.362 . S
C1578 C1581 1.409 . S
C1579 H1571 0.930 . S
C1579 C1580 1.355 . S
C1579 C1581 1.415 . S
C1580 C1579 1.355 . S
C1580 C1582 1.419 . S
C1581 C1576 1.425 . S
C1581 C1578 1.409 . S
C1581 C1579 1.415 . S
C1582 H1572 0.930 . S
C1582 C1580 1.419 . S
C1582 C1583 1.362 . S
C1583 H1573 0.930 . S
C1583 C1576 1.409 . S
C1583 C1582 1.362 . S
H1584 C1590 0.930 . S
H1585 C1593 0.930 . S
H1586 C1594 0.930 . S
H1587 C1595 0.930 . S
H1588 C1598 0.930 . S
H1589 C1599 0.930 . S
C1590 H1584 0.930 . S
C1590 C1591 1.355 . S
C1590 C1592 1.415 . S
C1591 C1590 1.355 . S
C1591 C1593 1.419 . S
C1592 C1590 1.415 . S
C1592 C1597 1.425 . S
C1592 C1599 1.409 . S
C1593 H1585 0.930 . S
C1593 C1591 1.419 . S
C1593 C1594 1.362 . S
C1594 H1586 0.930 . S
C1594 C1593 1.362 . S
C1594 C1597 1.409 . S
C1595 H1587 0.930 . S
C1595 C1596 1.355 . S
C1595 C1597 1.415 . S
C1596 C1595 1.355 . S
C1596 C1598 1.419 . S
C1597 C1592 1.425 . S
C1597 C1594 1.409 . S
C1597 C1595 1.415 . S
C1598 H1588 0.930 . S
C1598 C1596 1.419 . S
C1598 C1599 1.362 . S
C1599 H1589 0.930 . S
C1599 C1592 1.409 . S
C1599 C1598 1.362 . S
H1600 C1606 0.930 . S
H1601 C1609 0.930 . S
H1602 C1610 0.930 . S
H1603 C1611 0.930 . S
H1604 C1614 0.930 . S
H1605 C1615 0.930 . S
C1606 H1600 0.930 . S
C1606 C1607 1.355 . S
C1606 C1608 1.415 . S
C1607 C1606 1.355 . S
C1607 C1609 1.419 . S
C1608 C1606 1.415 . S
C1608 C1613 1.425 . S
C1608 C1615 1.409 . S
C1609 H1601 0.930 . S
C1609 C1607 1.419 . S
C1609 C1610 1.362 . S
C1610 H1602 0.930 . S
C1610 C1609 1.362 . S
C1610 C1613 1.409 . S
C1611 H1603 0.930 . S
C1611 C1612 1.355 . S
C1611 C1613 1.415 . S
C1612 C1611 1.355 . S
C1612 C1614 1.419 . S
C1613 C1608 1.425 . S
C1613 C1610 1.409 . S
C1613 C1611 1.415 . S
C1614 H1604 0.930 . S
C1614 C1612 1.419 . S
C1614 C1615 1.362 . S
C1615 H1605 0.930 . S
C1615 C1608 1.409 . S
C1615 C1614 1.362 . S
H1616 C1622 0.930 . S
H1617 C1625 0.930 . S
H1618 C1626 0.930 . S
H1619 C1627 0.930 . S
H1620 C1630 0.930 . S
H1621 C1631 0.930 . S
C1622 H1616 0.930 . S
C1622 C1623 1.355 . S
C1622 C1624 1.415 . S
C1623 C1622 1.355 . S
C1623 C1625 1.419 . S
C1624 C1622 1.415 . S
C1624 C1629 1.425 . S
C1624 C1631 1.409 . S
C1625 H1617 0.930 . S
C1625 C1623 1.419 . S
C1625 C1626 1.362 . S
C1626 H1618 0.930 . S
C1626 C1625 1.362 . S
C1626 C1629 1.409 . S
C1627 H1619 0.930 . S
C1627 C1628 1.355 . S
C1627 C1629 1.415 . S
C1628 C1627 1.355 . S
C1628 C1630 1.419 . S
C1629 C1624 1.425 . S
C1629 C1626 1.409 . S
C1629 C1627 1.415 . S
C1630 H1620 0.930 . S
C1630 C1628 1.419 . S
C1630 C1631 1.362 . S
C1631 H1621 0.930 . S
C1631 C1624 1.409 . S
C1631 C1630 1.362 . S
H1632 C1638 0.930 . S
H1633 C1641 0.930 . S
H1634 C1642 0.930 . S
H1635 C1643 0.930 . S
H1636 C1646 0.930 . S
H1637 C1647 0.930 . S
C1638 H1632 0.930 . S
C1638 C1639 1.355 . S
C1638 C1640 1.415 . S
C1639 C1638 1.355 . S
C1639 C1641 1.419 . S
C1640 C1638 1.415 . S
C1640 C1645 1.425 . S
C1640 C1647 1.409 . S
C1641 H1633 0.930 . S
C1641 C1639 1.419 . S
C1641 C1642 1.362 . S
C1642 H1634 0.930 . S
C1642 C1641 1.362 . S
C1642 C1645 1.409 . S
C1643 H1635 0.930 . S
C1643 C1644 1.355 . S
C1643 C1645 1.415 . S
C1644 C1643 1.355 . S
C1644 C1646 1.419 . S
C1645 C1640 1.425 . S
C1645 C1642 1.409 . S
C1645 C1643 1.415 . S
C1646 H1636 0.930 . S
C1646 C1644 1.419 . S
C1646 C1647 1.362 . S
C1647 H1637 0.930 . S
C1647 C1640 1.409 . S
C1647 C1646 1.362 . S
H1648 C1654 0.930 . S
H1649 C1657 0.930 . S
H1650 C1658 0.930 . S
H1651 C1659 0.930 . S
H1652 C1662 0.930 . S
H1653 C1663 0.930 . S
C1654 H1648 0.930 . S
C1654 C1655 1.355 . S
C1654 C1656 1.415 . S
C1655 C1654 1.355 . S
C1655 C1657 1.419 . S
C1656 C1654 1.415 . S
C1656 C1661 1.425 . S
C1656 C1663 1.409 . S
C1657 H1649 0.930 . S
C1657 C1655 1.419 . S
C1657 C1658 1.362 . S
C1658 H1650 0.930 . S
C1658 C1657 1.362 . S
C1658 C1661 1.409 . S
C1659 H1651 0.930 . S
C1659 C1660 1.355 . S
C1659 C1661 1.415 . S
C1660 C1659 1.355 . S
C1660 C1662 1.419 . S
C1661 C1656 1.425 . S
C1661 C1658 1.409 . S
C1661 C1659 1.415 . S
C1662 H1652 0.930 . S
C1662 C1660 1.419 . S
C1662 C1663 1.362 . S
C1663 H1653 0.930 . S
C1663 C1656 1.409 . S
C1663 C1662 1.362 . S
H1664 C1670 0.930 . S
H1665 C1673 0.930 . S
H1666 C1674 0.930 . S
H1667 C1675 0.930 . S
H1668 C1678 0.930 . S
H1669 C1679 0.930 . S
C1670 H1664 0.930 . S
C1670 C1671 1.355 . S
C1670 C1672 1.415 . S
C1671 C1670 1.355 . S
C1671 C1673 1.419 . S
C1672 C1670 1.415 . S
C1672 C1677 1.425 . S
C1672 C1679 1.409 . S
C1673 H1665 0.930 . S
C1673 C1671 1.419 . S
C1673 C1674 1.362 . S
C1674 H1666 0.930 . S
C1674 C1673 1.362 . S
C1674 C1677 1.409 . S
C1675 H1667 0.930 . S
C1675 C1676 1.355 . S
C1675 C1677 1.415 . S
C1676 C1675 1.355 . S
C1676 C1678 1.419 . S
C1677 C1672 1.425 . S
C1677 C1674 1.409 . S
C1677 C1675 1.415 . S
C1678 H1668 0.930 . S
C1678 C1676 1.419 . S
C1678 C1679 1.362 . S
C1679 H1669 0.930 . S
C1679 C1672 1.409 . S
C1679 C1678 1.362 . S
C535 C9 1.182 . S
C540 C138 1.173 1_655 S
C551 C28 1.163 1_565 S
C556 C159 1.193 . S
C567 C95 1.200 1_655 S
C572 C53 1.155 . S
C583 C73 1.158 1_565 S
C588 C115 1.198 . S
C599 C71 1.200 . S
C604 C31 1.155 1_565 S
C615 C50 1.166 1_655 S
C620 C6 1.189 . S
C631 C117 1.164 . S
C636 C161 1.192 1_565 S
C647 C141 1.185 1_655 S
C652 C93 1.171 . S
C663 C181 1.159 . S
C668 C207 1.197 1_556 S
C679 C183 1.165 . S
C684 C229 1.191 1_556 S
C695 C226 1.157 1_556 S
C700 C249 1.199 . S
C711 C247 1.155 . S
C716 C204 1.200 . S
C727 C273 1.187 . S
C732 C402 1.169 . S
C743 C423 1.158 . S
C748 C292 1.197 . S
C759 C317 1.155 . S
C764 C359 1.200 . S
C775 C337 1.200 . S
C780 C379 1.155 . S
C791 C335 1.169 . S
C796 C295 1.187 . S
C807 C314 1.200 . S
C812 C270 1.155 . S
C823 C381 1.155 . S
C828 C425 1.200 . S
C839 C405 1.157 . S
C844 C357 1.198 . S
C855 C445 1.200 . S
C860 C469 1.156 . S
C871 C493 1.200 . S
C876 C447 1.155 . S
C887 C490 1.185 . S
C892 C513 1.171 . S
C903 C511 1.179 . S
C908 C467 1.176 . S
C919 C512 1.062 . S
C924 C7 1.061 . S
C935 C470 1.107 . S
C940 C26 1.104 . S
C951 C51 1.049 . S
C956 C448 1.053 . S
C967 C74 1.094 . S
C972 C488 1.097 . S
C983 C491 1.031 . S
C988 C96 1.029 . S
C999 C116 1.095 . S
C1004 C514 1.092 . S
C1015 C468 1.104 . S
C1020 C136 1.106 . S
C1031 C160 1.100 . S
C1036 C446 1.103 . S
C1047 C358 1.057 . S
C1052 C72 1.056 . S
C1063 C4 1.089 . S
C1068 C382 1.093 . S
C1079 C29 1.046 . S
C1084 C403 1.049 . S
C1095 C48 1.057 . S
C1100 C426 1.056 . S
C1111 C268 1.066 . S
C1116 C118 1.068 . S
C1127 C139 1.104 . S
C1132 C293 1.102 . S
C1143 C162 1.033 . S
C1148 C312 1.030 . S
C1159 C94 1.054 . S
C1164 C336 1.058 . S
C1175 C424 1.035 . S
C1180 C182 1.033 . S
C1191 C205 1.060 . S
C1196 C290 1.064 . S
C1207 C315 1.045 . S
C1212 C184 1.048 . S
C1223 C338 1.105 . S
C1228 C224 1.107 . S
C1239 C248 1.047 . S
C1244 C271 1.048 . S
C1255 C380 1.102 . S
C1260 C250 1.099 . S
C1271 C400 1.057 . S
C1276 C202 1.056 . S
C1287 C360 1.090 . S
C1292 C227 1.087 . S
C1303 C97 1.104 . S
C1308 C449 1.106 . S
C1319 C114 1.033 . S
C1324 C489 1.035 . S
C1335 C137 1.086 . S
C1340 C510 1.083 . S
C1351 C471 1.043 . S
C1356 C158 1.039 . S
C1367 C466 1.067 . S
C1372 C8 1.068 . S
C1383 C27 1.032 . S
C1388 C444 1.035 . S
C1399 C52 1.107 . S
C1404 C492 1.105 . S
C1415 C515 1.040 . S
C1420 C75 1.036 . S
C1431 C269 1.063 . S
C1436 C163 1.066 . S
C1447 C92 1.078 . S
C1452 C294 1.075 . S
C1463 C313 1.034 . S
C1468 C119 1.031 . S
C1479 C334 1.083 . S
C1484 C140 1.084 . S
C1495 C356 1.104 . S
C1500 C30 1.101 . S
C1511 C49 1.068 . S
C1516 C383 1.069 . S
C1527 C404 1.084 . S
C1532 C70 1.087 . S
C1543 C427 1.080 . S
C1548 C5 1.076 . S
C1559 C251 1.065 . S
C1564 C339 1.066 . S
C1575 C225 1.094 . S
C1580 C378 1.091 . S
C1591 C401 1.031 . S
C1596 C246 1.029 . S
C1607 C206 1.062 . S
C1612 C422 1.061 . S
C1623 C185 1.031 . S
C1628 C361 1.029 . S
C1639 C291 1.105 . S
C1644 C180 1.107 . S
C1655 C228 1.034 . S
C1660 C316 1.037 . S
C1671 C272 1.074 . S
C1676 C203 1.076 . S
