# Generated by pormake.
# Topology ato, (4)-cn, num edge types: 1
# Building blocks:
#     Node 0, Type 0, BuildingBlock: QUQFOY_clean_sbu_3, # of connection points: 4
#     Node 1, Type 0, BuildingBlock: QUQFOY_clean_sbu_3, # of connection points: 4
#     Node 2, Type 0, BuildingBlock: QUQFOY_clean_sbu_3, # of connection points: 4
#     Node 3, Type 0, BuildingBlock: QUQFOY_clean_sbu_3, # of connection points: 4
#     Node 4, Type 0, BuildingBlock: QUQFOY_clean_sbu_3, # of connection points: 4
#     Node 5, Type 0, BuildingBlock: QUQFOY_clean_sbu_3, # of connection points: 4
#     Node 6, Type 0, BuildingBlock: QUQFOY_clean_sbu_3, # of connection points: 4
#     Node 7, Type 0, BuildingBlock: QUQFOY_clean_sbu_3, # of connection points: 4
#     Node 8, Type 0, BuildingBlock: QUQFOY_clean_sbu_3, # of connection points: 4
#     Node 9, Type 0, BuildingBlock: QUQFOY_clean_sbu_3, # of connection points: 4
#     Node 10, Type 0, BuildingBlock: QUQFOY_clean_sbu_3, # of connection points: 4
#     Node 11, Type 0, BuildingBlock: QUQFOY_clean_sbu_3, # of connection points: 4
#     Node 12, Type 0, BuildingBlock: QUQFOY_clean_sbu_3, # of connection points: 4
#     Node 13, Type 0, BuildingBlock: QUQFOY_clean_sbu_3, # of connection points: 4
#     Node 14, Type 0, BuildingBlock: QUQFOY_clean_sbu_3, # of connection points: 4
#     Node 15, Type 0, BuildingBlock: QUQFOY_clean_sbu_3, # of connection points: 4
#     Node 16, Type 0, BuildingBlock: QUQFOY_clean_sbu_3, # of connection points: 4
#     Node 17, Type 0, BuildingBlock: QUQFOY_clean_sbu_3, # of connection points: 4
#     Node 18, Type 0, BuildingBlock: QUQFOY_clean_sbu_3, # of connection points: 4
#     Node 19, Type 0, BuildingBlock: QUQFOY_clean_sbu_3, # of connection points: 4
#     Node 20, Type 0, BuildingBlock: QUQFOY_clean_sbu_3, # of connection points: 4
#     Node 21, Type 0, BuildingBlock: QUQFOY_clean_sbu_3, # of connection points: 4
#     Node 22, Type 0, BuildingBlock: QUQFOY_clean_sbu_3, # of connection points: 4
#     Node 23, Type 0, BuildingBlock: QUQFOY_clean_sbu_3, # of connection points: 4
#     Node 24, Type 0, BuildingBlock: QUQFOY_clean_sbu_3, # of connection points: 4
#     Node 25, Type 0, BuildingBlock: QUQFOY_clean_sbu_3, # of connection points: 4
#     Node 26, Type 0, BuildingBlock: QUQFOY_clean_sbu_3, # of connection points: 4
#     Node 27, Type 0, BuildingBlock: QUQFOY_clean_sbu_3, # of connection points: 4
#     Node 28, Type 0, BuildingBlock: QUQFOY_clean_sbu_3, # of connection points: 4
#     Node 29, Type 0, BuildingBlock: QUQFOY_clean_sbu_3, # of connection points: 4
#     Node 30, Type 0, BuildingBlock: QUQFOY_clean_sbu_3, # of connection points: 4
#     Node 31, Type 0, BuildingBlock: QUQFOY_clean_sbu_3, # of connection points: 4
#     Node 32, Type 0, BuildingBlock: QUQFOY_clean_sbu_3, # of connection points: 4
#     Node 33, Type 0, BuildingBlock: QUQFOY_clean_sbu_3, # of connection points: 4
#     Node 34, Type 0, BuildingBlock: QUQFOY_clean_sbu_3, # of connection points: 4
#     Node 35, Type 0, BuildingBlock: QUQFOY_clean_sbu_3, # of connection points: 4
#     Edge 36, Type (0, 0), BuildingBlock: XIVTED_clean_linker_0, # of connection points: 2
#     Edge 37, Type (0, 0), BuildingBlock: XIVTED_clean_linker_0, # of connection points: 2
#     Edge 38, Type (0, 0), BuildingBlock: XIVTED_clean_linker_0, # of connection points: 2
#     Edge 39, Type (0, 0), BuildingBlock: XIVTED_clean_linker_0, # of connection points: 2
#     Edge 40, Type (0, 0), BuildingBlock: XIVTED_clean_linker_0, # of connection points: 2
#     Edge 41, Type (0, 0), BuildingBlock: XIVTED_clean_linker_0, # of connection points: 2
#     Edge 42, Type (0, 0), BuildingBlock: XIVTED_clean_linker_0, # of connection points: 2
#     Edge 43, Type (0, 0), BuildingBlock: XIVTED_clean_linker_0, # of connection points: 2
#     Edge 44, Type (0, 0), BuildingBlock: XIVTED_clean_linker_0, # of connection points: 2
#     Edge 45, Type (0, 0), BuildingBlock: XIVTED_clean_linker_0, # of connection points: 2
#     Edge 46, Type (0, 0), BuildingBlock: XIVTED_clean_linker_0, # of connection points: 2
#     Edge 47, Type (0, 0), BuildingBlock: XIVTED_clean_linker_0, # of connection points: 2
#     Edge 48, Type (0, 0), BuildingBlock: XIVTED_clean_linker_0, # of connection points: 2
#     Edge 49, Type (0, 0), BuildingBlock: XIVTED_clean_linker_0, # of connection points: 2
#     Edge 50, Type (0, 0), BuildingBlock: XIVTED_clean_linker_0, # of connection points: 2
#     Edge 51, Type (0, 0), BuildingBlock: XIVTED_clean_linker_0, # of connection points: 2
#     Edge 52, Type (0, 0), BuildingBlock: XIVTED_clean_linker_0, # of connection points: 2
#     Edge 53, Type (0, 0), BuildingBlock: XIVTED_clean_linker_0, # of connection points: 2
#     Edge 54, Type (0, 0), BuildingBlock: XIVTED_clean_linker_0, # of connection points: 2
#     Edge 55, Type (0, 0), BuildingBlock: XIVTED_clean_linker_0, # of connection points: 2
#     Edge 56, Type (0, 0), BuildingBlock: XIVTED_clean_linker_0, # of connection points: 2
#     Edge 57, Type (0, 0), BuildingBlock: XIVTED_clean_linker_0, # of connection points: 2
#     Edge 58, Type (0, 0), BuildingBlock: XIVTED_clean_linker_0, # of connection points: 2
#     Edge 59, Type (0, 0), BuildingBlock: XIVTED_clean_linker_0, # of connection points: 2
#     Edge 60, Type (0, 0), BuildingBlock: XIVTED_clean_linker_0, # of connection points: 2
#     Edge 61, Type (0, 0), BuildingBlock: XIVTED_clean_linker_0, # of connection points: 2
#     Edge 62, Type (0, 0), BuildingBlock: XIVTED_clean_linker_0, # of connection points: 2
#     Edge 63, Type (0, 0), BuildingBlock: XIVTED_clean_linker_0, # of connection points: 2
#     Edge 64, Type (0, 0), BuildingBlock: XIVTED_clean_linker_0, # of connection points: 2
#     Edge 65, Type (0, 0), BuildingBlock: XIVTED_clean_linker_0, # of connection points: 2
#     Edge 66, Type (0, 0), BuildingBlock: XIVTED_clean_linker_0, # of connection points: 2
#     Edge 67, Type (0, 0), BuildingBlock: XIVTED_clean_linker_0, # of connection points: 2
#     Edge 68, Type (0, 0), BuildingBlock: XIVTED_clean_linker_0, # of connection points: 2
#     Edge 69, Type (0, 0), BuildingBlock: XIVTED_clean_linker_0, # of connection points: 2
#     Edge 70, Type (0, 0), BuildingBlock: XIVTED_clean_linker_0, # of connection points: 2
#     Edge 71, Type (0, 0), BuildingBlock: XIVTED_clean_linker_0, # of connection points: 2
#     Edge 72, Type (0, 0), BuildingBlock: XIVTED_clean_linker_0, # of connection points: 2
#     Edge 73, Type (0, 0), BuildingBlock: XIVTED_clean_linker_0, # of connection points: 2
#     Edge 74, Type (0, 0), BuildingBlock: XIVTED_clean_linker_0, # of connection points: 2
#     Edge 75, Type (0, 0), BuildingBlock: XIVTED_clean_linker_0, # of connection points: 2
#     Edge 76, Type (0, 0), BuildingBlock: XIVTED_clean_linker_0, # of connection points: 2
#     Edge 77, Type (0, 0), BuildingBlock: XIVTED_clean_linker_0, # of connection points: 2
#     Edge 78, Type (0, 0), BuildingBlock: XIVTED_clean_linker_0, # of connection points: 2
#     Edge 79, Type (0, 0), BuildingBlock: XIVTED_clean_linker_0, # of connection points: 2
#     Edge 80, Type (0, 0), BuildingBlock: XIVTED_clean_linker_0, # of connection points: 2
#     Edge 81, Type (0, 0), BuildingBlock: XIVTED_clean_linker_0, # of connection points: 2
#     Edge 82, Type (0, 0), BuildingBlock: XIVTED_clean_linker_0, # of connection points: 2
#     Edge 83, Type (0, 0), BuildingBlock: XIVTED_clean_linker_0, # of connection points: 2
#     Edge 84, Type (0, 0), BuildingBlock: XIVTED_clean_linker_0, # of connection points: 2
#     Edge 85, Type (0, 0), BuildingBlock: XIVTED_clean_linker_0, # of connection points: 2
#     Edge 86, Type (0, 0), BuildingBlock: XIVTED_clean_linker_0, # of connection points: 2
#     Edge 87, Type (0, 0), BuildingBlock: XIVTED_clean_linker_0, # of connection points: 2
#     Edge 88, Type (0, 0), BuildingBlock: XIVTED_clean_linker_0, # of connection points: 2
#     Edge 89, Type (0, 0), BuildingBlock: XIVTED_clean_linker_0, # of connection points: 2
#     Edge 90, Type (0, 0), BuildingBlock: XIVTED_clean_linker_0, # of connection points: 2
#     Edge 91, Type (0, 0), BuildingBlock: XIVTED_clean_linker_0, # of connection points: 2
#     Edge 92, Type (0, 0), BuildingBlock: XIVTED_clean_linker_0, # of connection points: 2
#     Edge 93, Type (0, 0), BuildingBlock: XIVTED_clean_linker_0, # of connection points: 2
#     Edge 94, Type (0, 0), BuildingBlock: XIVTED_clean_linker_0, # of connection points: 2
#     Edge 95, Type (0, 0), BuildingBlock: XIVTED_clean_linker_0, # of connection points: 2
#     Edge 96, Type (0, 0), BuildingBlock: XIVTED_clean_linker_0, # of connection points: 2
#     Edge 97, Type (0, 0), BuildingBlock: XIVTED_clean_linker_0, # of connection points: 2
#     Edge 98, Type (0, 0), BuildingBlock: XIVTED_clean_linker_0, # of connection points: 2
#     Edge 99, Type (0, 0), BuildingBlock: XIVTED_clean_linker_0, # of connection points: 2
#     Edge 100, Type (0, 0), BuildingBlock: XIVTED_clean_linker_0, # of connection points: 2
#     Edge 101, Type (0, 0), BuildingBlock: XIVTED_clean_linker_0, # of connection points: 2
#     Edge 102, Type (0, 0), BuildingBlock: XIVTED_clean_linker_0, # of connection points: 2
#     Edge 103, Type (0, 0), BuildingBlock: XIVTED_clean_linker_0, # of connection points: 2
#     Edge 104, Type (0, 0), BuildingBlock: XIVTED_clean_linker_0, # of connection points: 2
#     Edge 105, Type (0, 0), BuildingBlock: XIVTED_clean_linker_0, # of connection points: 2
#     Edge 106, Type (0, 0), BuildingBlock: XIVTED_clean_linker_0, # of connection points: 2
#     Edge 107, Type (0, 0), BuildingBlock: XIVTED_clean_linker_0, # of connection points: 2
# Relax obj value: 0.073
# Max RMSD: 0.088
# Mean RMSD: 0.088
data_MOF--net-ato--node1-QUQFOY_clean_sbu_3--edge1-XIVTED_clean_linker_0
_symmetry_space_group_name_H-M    P1
_symmetry_Int_Tables_number       1
_symmetry_cell_setting            triclinic
loop_
_symmetry_equiv_pos_as_xyz
'x, y, z'
_cell_length_a     105.24228
_cell_length_b     105.11239
_cell_length_c     24.661763
_cell_angle_alpha  90.020969
_cell_angle_beta   90.056384
_cell_angle_gamma 119.93252
loop_
_atom_site_label
_atom_site_type_symbol
_atom_site_fract_x
_atom_site_fract_y
_atom_site_fract_z
_atom_type_partial_charge
C0 C 0.22375 0.07005 0.24018 0.0
O1 O 0.22328 0.06788 0.18942 0.0
Cd2 Cd 0.23383 0.05552 0.14383 0.0
O3 O 0.22948 0.06479 0.27217 0.0
Cd4 Cd 0.23905 0.0475 0.26262 0.0
C5 C 0.26894 0.07263 0.19717 0.0
O6 O 0.22323 0.03277 0.18993 0.0
O7 O 0.24165 0.02971 0.20519 0.0
O8 O 0.22325 0.03469 0.33767 0.0
C9 C 0.22979 0.02575 0.1797 0.0
O10 O 0.26051 0.06974 0.15628 0.0
C11 C 0.23253 0.03271 0.36357 0.0
O12 O 0.26383 0.06676 0.24304 0.0
O13 O 0.24532 0.03822 0.34351 0.0
C14 C 0.91501 0.15346 0.24736 0.0
O15 O 0.91277 0.15192 0.1966 0.0
Cd16 Cd 0.92013 0.17112 0.13219 0.0
O17 O 0.92263 0.16609 0.26872 0.0
Cd18 Cd 0.93823 0.19131 0.2324 0.0
C19 C 0.90873 0.1933 0.19396 0.0
O20 O 0.94558 0.18563 0.14701 0.0
O21 O 0.94981 0.20785 0.15543 0.0
O22 O 0.95804 0.19266 0.28531 0.0
C23 C 0.95113 0.19844 0.12754 0.0
O24 O 0.90787 0.18499 0.15477 0.0
C25 C 0.96107 0.2044 0.31016 0.0
O26 O 0.91833 0.19673 0.23107 0.0
O27 O 0.95314 0.21009 0.2998 0.0
C28 C 0.82658 0.76133 0.20525 0.0
O29 O 0.82754 0.76027 0.15435 0.0
Cd30 Cd 0.80744 0.74662 0.09533 0.0
O31 O 0.81416 0.75606 0.22845 0.0
Cd32 Cd 0.78827 0.74525 0.19764 0.0
C33 C 0.78796 0.71411 0.16709 0.0
O34 O 0.792 0.75654 0.10974 0.0
O35 O 0.77045 0.73797 0.12288 0.0
O36 O 0.78687 0.76412 0.24816 0.0
C37 C 0.77913 0.74836 0.09219 0.0
O38 O 0.79553 0.72111 0.12591 0.0
C39 C 0.77551 0.75549 0.27496 0.0
O40 O 0.78425 0.72044 0.2026 0.0
O41 O 0.77014 0.74181 0.26684 0.0
C42 C 0.05725 0.21971 0.77328 0.0
O43 O 0.05281 0.21847 0.82189 0.0
Cd44 Cd 0.03774 0.22781 0.85442 0.0
O45 O 0.0533 0.22576 0.73744 0.0
Cd46 Cd 0.03705 0.23641 0.73133 0.0
C47 C 0.05919 0.26378 0.81569 0.0
O48 O 0.01815 0.21913 0.79044 0.0
O49 O 0.01682 0.23845 0.77257 0.0
O50 O 0.02939 0.22421 0.64461 0.0
C51 C 0.0111 0.22591 0.79463 0.0
O52 O 0.05339 0.25466 0.85446 0.0
C53 C 0.02948 0.23489 0.62027 0.0
O54 O 0.05588 0.25972 0.76659 0.0
O55 O 0.0337 0.24663 0.64721 0.0
C56 C 0.76012 0.83105 0.75094 0.0
O57 O 0.76157 0.82679 0.7975 0.0
Cd58 Cd 0.75138 0.80174 0.82245 0.0
O59 O 0.75341 0.82182 0.7131 0.0
Cd60 Cd 0.74186 0.79493 0.69945 0.0
C61 C 0.71533 0.78915 0.78804 0.0
O62 O 0.75901 0.79144 0.75235 0.0
O63 O 0.73882 0.77162 0.73535 0.0
O64 O 0.75385 0.80052 0.61229 0.0
C65 C 0.75168 0.7776 0.75474 0.0
O66 O 0.72469 0.79155 0.82519 0.0
C67 C 0.74301 0.79051 0.58659 0.0
O68 O 0.71896 0.7906 0.73825 0.0
O69 O 0.73124 0.78293 0.61305 0.0
C70 C 0.14835 0.91965 0.77333 0.0
O71 O 0.14927 0.92072 0.8246 0.0
Cd72 Cd 0.17141 0.93174 0.875 0.0
O73 O 0.15977 0.92546 0.74369 0.0
Cd74 Cd 0.18637 0.94232 0.76035 0.0
C75 C 0.18964 0.91531 0.8184 0.0
O76 O 0.18429 0.95546 0.83659 0.0
O77 O 0.20588 0.95852 0.82445 0.0
O78 O 0.18479 0.95724 0.68985 0.0
C79 C 0.19767 0.96207 0.84995 0.0
O80 O 0.18367 0.91742 0.85972 0.0
C81 C 0.19622 0.95946 0.66465 0.0
O82 O 0.1912 0.9223 0.7745 0.0
O83 O 0.20294 0.95311 0.6828 0.0
C84 C 0.76283 0.92497 0.76312 0.0
O85 O 0.76426 0.92968 0.81142 0.0
Cd86 Cd 0.75567 0.94543 0.84282 0.0
O87 O 0.75697 0.92902 0.7268 0.0
Cd88 Cd 0.74719 0.94605 0.71952 0.0
C89 C 0.7195 0.92503 0.80411 0.0
O90 O 0.76489 0.96483 0.77818 0.0
O91 O 0.74603 0.9669 0.76008 0.0
O92 O 0.75956 0.95354 0.63316 0.0
C93 C 0.75854 0.9723 0.78215 0.0
O94 O 0.72882 0.93054 0.8425 0.0
C95 C 0.74903 0.95362 0.60835 0.0
O96 O 0.72346 0.92811 0.75487 0.0
O97 O 0.73726 0.94949 0.63482 0.0
C98 C 0.06118 0.83221 0.79362 0.0
O99 O 0.06142 0.83211 0.84507 0.0
Cd100 Cd 0.05143 0.81075 0.90013 0.0
O101 O 0.05441 0.82032 0.76666 0.0
Cd102 Cd 0.03777 0.79406 0.78936 0.0
C103 C 0.06604 0.7914 0.83868 0.0
O104 O 0.02687 0.79724 0.87035 0.0
O105 O 0.02326 0.77538 0.85793 0.0
O106 O 0.02096 0.79482 0.72536 0.0
C107 C 0.02059 0.78398 0.88537 0.0
O108 O 0.06505 0.798 0.88042 0.0
C109 C 0.01838 0.78332 0.69964 0.0
O110 O 0.05798 0.78928 0.79727 0.0
O111 O 0.02533 0.7769 0.7145 0.0
C112 C 0.15106 0.22332 0.75889 0.0
O113 O 0.15533 0.2221 0.80575 0.0
Cd114 Cd 0.18032 0.23299 0.83187 0.0
O115 O 0.16027 0.23015 0.72124 0.0
Cd116 Cd 0.18723 0.24225 0.70837 0.0
C117 C 0.19216 0.26887 0.79543 0.0
O118 O 0.19099 0.22554 0.76281 0.0
O119 O 0.21064 0.24587 0.7459 0.0
O120 O 0.18185 0.2297 0.62225 0.0
C121 C 0.20479 0.23307 0.76582 0.0
O122 O 0.1898 0.2596 0.83288 0.0
C123 C 0.19185 0.2404 0.59606 0.0
O124 O 0.191 0.26519 0.74571 0.0
O125 O 0.19929 0.2524 0.62161 0.0
C126 C 0.9134 0.76144 0.25929 0.0
O127 O 0.9169 0.76246 0.2096 0.0
Cd128 Cd 0.93003 0.75201 0.16933 0.0
O129 O 0.9175 0.75506 0.29316 0.0
Cd130 Cd 0.93429 0.7448 0.29032 0.0
C131 C 0.91075 0.71615 0.21505 0.0
O132 O 0.95129 0.76154 0.22448 0.0
O133 O 0.95321 0.74243 0.23932 0.0
O134 O 0.94493 0.759 0.37129 0.0
C135 C 0.95823 0.75479 0.21637 0.0
O136 O 0.91499 0.72517 0.17558 0.0
C137 C 0.94614 0.74914 0.39643 0.0
O138 O 0.91531 0.72053 0.26302 0.0
O139 O 0.94116 0.73678 0.37306 0.0
C140 C 0.22306 0.1571 0.20913 0.0
O141 O 0.22403 0.1566 0.15798 0.0
Cd142 Cd 0.23663 0.17704 0.09955 0.0
O143 O 0.22798 0.1693 0.23397 0.0
Cd144 Cd 0.23794 0.19536 0.20625 0.0
C145 C 0.26942 0.19713 0.16942 0.0
O146 O 0.22606 0.19159 0.11972 0.0
O147 O 0.24393 0.21353 0.13331 0.0
O148 O 0.21909 0.19579 0.26021 0.0
C149 C 0.23364 0.20462 0.10272 0.0
O150 O 0.26232 0.18972 0.12801 0.0
C151 C 0.22763 0.20722 0.28704 0.0
O152 O 0.26306 0.20019 0.20694 0.0
O153 O 0.24129 0.21303 0.27752 0.0
C154 C 0.83238 0.06872 0.23601 0.0
O155 O 0.83394 0.07059 0.18511 0.0
Cd156 Cd 0.81466 0.06299 0.12087 0.0
O157 O 0.81974 0.06123 0.25719 0.0
Cd158 Cd 0.79459 0.04515 0.22109 0.0
C159 C 0.79235 0.07443 0.18166 0.0
O160 O 0.80011 0.03754 0.13588 0.0
O161 O 0.778 0.03354 0.14434 0.0
O162 O 0.79353 0.02546 0.27404 0.0
C163 C 0.7873 0.03205 0.1165 0.0
O164 O 0.80075 0.07525 0.14295 0.0
C165 C 0.7818 0.02235 0.29904 0.0
O166 O 0.78887 0.06488 0.21898 0.0
O167 O 0.77602 0.0302 0.28882 0.0
C168 C 0.89351 0.4048 0.58681 0.0
O169 O 0.89361 0.40483 0.53538 0.0
Cd170 Cd 0.90491 0.39502 0.47956 0.0
O171 O 0.89889 0.39826 0.61377 0.0
Cd172 Cd 0.90828 0.38138 0.58982 0.0
C173 C 0.93916 0.40919 0.53915 0.0
O174 O 0.89406 0.37047 0.50892 0.0
O175 O 0.91234 0.36692 0.5202 0.0
O176 O 0.89072 0.36417 0.65294 0.0
C177 C 0.90107 0.36431 0.49295 0.0
O178 O 0.93122 0.40838 0.49877 0.0
C179 C 0.89967 0.36159 0.67844 0.0
O180 O 0.93352 0.40112 0.58072 0.0
O181 O 0.91304 0.36875 0.66405 0.0
C182 C 0.58545 0.48811 0.57476 0.0
O183 O 0.58454 0.48724 0.52344 0.0
Cd184 Cd 0.59194 0.50744 0.46362 0.0
O185 O 0.59184 0.50049 0.59869 0.0
Cd186 Cd 0.60724 0.52639 0.56926 0.0
C187 C 0.57733 0.52681 0.52624 0.0
O188 O 0.61687 0.52308 0.48501 0.0
O189 O 0.61926 0.54451 0.4967 0.0
O190 O 0.62638 0.52755 0.62565 0.0
C191 C 0.62187 0.53607 0.46799 0.0
O192 O 0.57776 0.51941 0.48605 0.0
C193 C 0.62872 0.53887 0.65207 0.0
O194 O 0.58638 0.53027 0.56537 0.0
O195 O 0.62062 0.54435 0.64118 0.0
C196 C 0.50057 0.09571 0.57133 0.0
O197 O 0.50009 0.09586 0.51995 0.0
Cd198 Cd 0.47851 0.0838 0.46645 0.0
O199 O 0.48888 0.08964 0.59949 0.0
Cd200 Cd 0.46229 0.07907 0.57918 0.0
C201 C 0.46047 0.04913 0.52375 0.0
O202 O 0.4639 0.09325 0.49994 0.0
O203 O 0.44281 0.07403 0.51274 0.0
O204 O 0.46223 0.0959 0.64504 0.0
C205 C 0.45065 0.08557 0.48551 0.0
O206 O 0.46683 0.05736 0.48312 0.0
C207 C 0.45111 0.08647 0.67108 0.0
O208 O 0.45821 0.05436 0.56691 0.0
O209 O 0.44536 0.07319 0.65572 0.0
C210 C 0.72885 0.56107 0.10872 0.0
O211 O 0.72488 0.56017 0.15782 0.0
Cd212 Cd 0.71041 0.56994 0.19216 0.0
O213 O 0.72465 0.56694 0.07304 0.0
Cd214 Cd 0.70804 0.57728 0.06927 0.0
C215 C 0.73124 0.60551 0.1478 0.0
O216 O 0.69011 0.56027 0.1314 0.0
O217 O 0.68835 0.57942 0.115 0.0
O218 O 0.69928 0.56409 0.98501 0.0
C219 C 0.68291 0.56686 0.13678 0.0
O220 O 0.72599 0.59682 0.18809 0.0
C221 C 0.69864 0.5743 0.96003 0.0
O222 O 0.72727 0.60092 0.09959 0.0
O223 O 0.70302 0.58632 0.98533 0.0
C224 C 0.42183 0.16466 0.11297 0.0
O225 O 0.4225 0.16194 0.16268 0.0
Cd226 Cd 0.41275 0.13814 0.19961 0.0
O227 O 0.41628 0.15435 0.07802 0.0
Cd228 Cd 0.40682 0.12738 0.07814 0.0
C229 C 0.37744 0.12194 0.14923 0.0
O230 O 0.42363 0.1277 0.14446 0.0
O231 O 0.40504 0.10632 0.13009 0.0
O232 O 0.42159 0.13203 -0.00199 0.0
C233 C 0.41742 0.11404 0.15256 0.0
O234 O 0.38605 0.12644 0.18996 0.0
C235 C 0.41235 0.12069 0.97235 0.0
O236 O 0.38226 0.12188 0.10198 0.0
O237 O 0.40002 0.11268 -0.0051 0.0
C238 C 0.81876 0.25645 0.12427 0.0
O239 O 0.82149 0.26001 0.17387 0.0
Cd240 Cd 0.84546 0.27423 0.21038 0.0
O241 O 0.82905 0.2611 0.08945 0.0
Cd242 Cd 0.85594 0.27816 0.08839 0.0
C243 C 0.86095 0.25429 0.1627 0.0
O244 O 0.85649 0.29533 0.15387 0.0
O245 O 0.87747 0.29728 0.13778 0.0
O246 O 0.85168 0.28818 0.00692 0.0
C247 C 0.87021 0.3024 0.16086 0.0
O248 O 0.85698 0.25893 0.20335 0.0
C249 C 0.86266 0.28937 0.98126 0.0
O250 O 0.86072 0.25879 0.115 0.0
O251 O 0.87026 0.28464 0.0046 0.0
C252 C 0.42274 0.25645 0.11741 0.0
O253 O 0.42329 0.25974 0.16721 0.0
Cd254 Cd 0.41344 0.27385 0.20424 0.0
O255 O 0.41729 0.26128 0.0824 0.0
Cd256 Cd 0.40764 0.27854 0.08203 0.0
C257 C 0.37831 0.25457 0.15379 0.0
O258 O 0.42411 0.29518 0.14902 0.0
O259 O 0.40548 0.29777 0.13175 0.0
O260 O 0.42217 0.28861 0.00139 0.0
C261 C 0.41771 0.30253 0.15553 0.0
O262 O 0.38666 0.25889 0.19527 0.0
C263 C 0.41254 0.29002 0.97539 0.0
O264 O 0.38338 0.25929 0.10667 0.0
O265 O 0.40021 0.28545 -0.00173 0.0
C266 C 0.72834 0.16338 0.10163 0.0
O267 O 0.72349 0.15947 0.14944 0.0
Cd268 Cd 0.70871 0.13477 0.17772 0.0
O269 O 0.7249 0.1539 0.06397 0.0
Cd270 Cd 0.7086 0.12693 0.05434 0.0
C271 C 0.73066 0.12099 0.13583 0.0
O272 O 0.68947 0.12494 0.11245 0.0
O273 O 0.68852 0.10441 0.09623 0.0
O274 O 0.70082 0.13239 0.96968 0.0
C275 C 0.68246 0.11113 0.11648 0.0
O276 O 0.72463 0.12389 0.17507 0.0
C277 C 0.70036 0.12178 0.94345 0.0
O278 O 0.72752 0.12217 0.08691 0.0
O279 O 0.70453 0.11389 0.96817 0.0
C280 C 0.82165 0.56359 0.10552 0.0
O281 O 0.82477 0.56256 0.15445 0.0
Cd282 Cd 0.84896 0.57275 0.18831 0.0
O283 O 0.83172 0.56979 0.07004 0.0
Cd284 Cd 0.8588 0.58045 0.06643 0.0
C285 C 0.86344 0.60855 0.14457 0.0
O286 O 0.85977 0.56325 0.12788 0.0
O287 O 0.8806 0.58254 0.11339 0.0
O288 O 0.85412 0.56707 0.98239 0.0
C289 C 0.8735 0.56988 0.13437 0.0
O290 O 0.85954 0.59948 0.18381 0.0
C291 C 0.86513 0.57701 0.9574 0.0
O292 O 0.86343 0.60437 0.09613 0.0
O293 O 0.87295 0.58902 0.98242 0.0
C294 C 0.58696 0.09589 0.55353 0.0
O295 O 0.58589 0.09517 0.50223 0.0
Cd296 Cd 0.5936 0.08212 0.44508 0.0
O297 O 0.59366 0.09043 0.57894 0.0
Cd298 Cd 0.60905 0.07961 0.5523 0.0
C299 C 0.57904 0.04885 0.51208 0.0
O300 O 0.61856 0.09177 0.46672 0.0
O301 O 0.62089 0.0728 0.48091 0.0
O302 O 0.6283 0.09774 0.60855 0.0
C303 C 0.62346 0.0836 0.4508 0.0
O304 O 0.5795 0.05618 0.47022 0.0
C305 C 0.6305 0.08874 0.63545 0.0
O306 O 0.58805 0.05492 0.55105 0.0
O307 O 0.62229 0.07517 0.6249 0.0
C308 C 0.89291 0.49074 0.57179 0.0
O309 O 0.89263 0.48989 0.52043 0.0
Cd310 Cd 0.90488 0.51013 0.46034 0.0
O311 O 0.89894 0.50312 0.5958 0.0
Cd312 Cd 0.90913 0.52909 0.56707 0.0
C313 C 0.9392 0.52954 0.52059 0.0
O314 O 0.8957 0.52576 0.48376 0.0
O315 O 0.91469 0.5472 0.49521 0.0
O316 O 0.89155 0.53019 0.62597 0.0
C317 C 0.90355 0.53879 0.46693 0.0
O318 O 0.93113 0.52213 0.48087 0.0
C319 C 0.90069 0.54154 0.65184 0.0
O320 O 0.93386 0.533 0.56052 0.0
O321 O 0.91415 0.54704 0.63945 0.0
C322 C 0.4986 0.40431 0.58173 0.0
O323 O 0.49859 0.40491 0.53035 0.0
Cd324 Cd 0.47756 0.39589 0.47413 0.0
O325 O 0.48667 0.39771 0.60834 0.0
Cd326 Cd 0.46042 0.38177 0.58342 0.0
C327 C 0.45794 0.41026 0.53556 0.0
O328 O 0.46352 0.37114 0.50129 0.0
O329 O 0.44182 0.36783 0.51355 0.0
O330 O 0.46015 0.36397 0.64539 0.0
C331 C 0.45035 0.3652 0.48558 0.0
O332 O 0.46488 0.40949 0.4945 0.0
C333 C 0.44879 0.36174 0.67109 0.0
O334 O 0.45556 0.40199 0.57651 0.0
O335 O 0.44294 0.36931 0.65719 0.0
C336 C 0.56324 0.73517 0.90394 0.0
O337 O 0.56239 0.73413 0.85266 0.0
Cd338 Cd 0.57314 0.72339 0.79876 0.0
O339 O 0.56901 0.72908 0.9314 0.0
Cd340 Cd 0.57769 0.71142 0.91177 0.0
C341 C 0.60791 0.73872 0.85598 0.0
O342 O 0.5628 0.69942 0.8337 0.0
O343 O 0.58114 0.69595 0.84482 0.0
O344 O 0.56031 0.69574 0.97829 0.0
C345 C 0.56966 0.69303 0.81842 0.0
O346 O 0.59954 0.73731 0.81627 0.0
C347 C 0.56904 0.69291 0.00402 0.0
O348 O 0.60278 0.73105 0.89879 0.0
O349 O 0.58231 0.6993 0.98823 0.0
C350 C 0.24983 0.82032 0.89612 0.0
O351 O 0.25081 0.82126 0.84485 0.0
Cd352 Cd 0.26132 0.84345 0.79473 0.0
O353 O 0.25554 0.83176 0.92584 0.0
Cd354 Cd 0.2721 0.85849 0.90974 0.0
C355 C 0.24464 0.86125 0.85338 0.0
O356 O 0.28509 0.85692 0.83209 0.0
O357 O 0.28769 0.87831 0.84587 0.0
O358 O 0.28758 0.85708 0.97834 0.0
C359 C 0.29131 0.87032 0.81905 0.0
O360 O 0.24673 0.85532 0.81184 0.0
C361 C 0.28971 0.86837 0.00449 0.0
O362 O 0.2518 0.86296 0.89701 0.0
O363 O 0.28304 0.87492 0.98785 0.0
C364 C 0.1577 0.41835 0.90971 0.0
O365 O 0.15831 0.41801 0.8584 0.0
Cd366 Cd 0.13786 0.40582 0.79973 0.0
O367 O 0.14545 0.41291 0.93428 0.0
Cd368 Cd 0.1195 0.40307 0.90537 0.0
C369 C 0.11766 0.37203 0.86255 0.0
O370 O 0.12338 0.41641 0.82176 0.0
O371 O 0.10159 0.39803 0.83229 0.0
O372 O 0.11917 0.42132 0.96297 0.0
C373 C 0.11038 0.40904 0.80431 0.0
O374 O 0.12523 0.37972 0.82247 0.0
C375 C 0.10765 0.41261 0.9888 0.0
O376 O 0.11448 0.37787 0.90158 0.0
O377 O 0.10168 0.39904 0.97705 0.0
C378 C 0.39797 0.89518 0.43329 0.0
O379 O 0.39532 0.89439 0.48374 0.0
Cd380 Cd 0.38301 0.90519 0.52752 0.0
O381 O 0.39328 0.90141 0.40113 0.0
Cd382 Cd 0.37672 0.91189 0.40877 0.0
C383 C 0.40236 0.94064 0.47844 0.0
O384 O 0.36089 0.89552 0.47754 0.0
O385 O 0.35886 0.91469 0.46562 0.0
O386 O 0.36477 0.8969 0.33088 0.0
C387 C 0.35414 0.90233 0.48833 0.0
O388 O 0.39857 0.93188 0.5186 0.0
C389 C 0.36292 0.90639 0.30584 0.0
O390 O 0.39676 0.93609 0.43171 0.0
O391 O 0.36818 0.91898 0.32765 0.0
C392 C 0.09203 0.49565 0.44226 0.0
O393 O 0.09329 0.49266 0.49116 0.0
Cd394 Cd 0.08262 0.46841 0.5261 0.0
O395 O 0.08537 0.48545 0.40749 0.0
Cd396 Cd 0.07382 0.45834 0.40416 0.0
C397 C 0.04683 0.4551 0.4856 0.0
O398 O 0.09061 0.45637 0.46492 0.0
O399 O 0.07063 0.43608 0.44988 0.0
O400 O 0.08658 0.46226 0.31928 0.0
C401 C 0.0833 0.4426 0.47103 0.0
O402 O 0.05596 0.45851 0.52446 0.0
C403 C 0.07609 0.45157 0.29464 0.0
O404 O 0.05072 0.4551 0.43676 0.0
O405 O 0.06413 0.44431 0.32036 0.0
C406 C 0.48396 0.58754 0.44367 0.0
O407 O 0.4867 0.59076 0.49353 0.0
Cd408 Cd 0.51052 0.60382 0.53178 0.0
O409 O 0.49429 0.59185 0.40912 0.0
Cd410 Cd 0.52135 0.60794 0.41031 0.0
C411 C 0.52519 0.58318 0.48328 0.0
O412 O 0.52234 0.62511 0.47667 0.0
O413 O 0.54299 0.62622 0.46179 0.0
O414 O 0.51805 0.61893 0.32977 0.0
C415 C 0.53602 0.63168 0.48463 0.0
O416 O 0.52131 0.58791 0.52396 0.0
C417 C 0.529 0.61992 0.3045 0.0
O418 O 0.52523 0.58789 0.43571 0.0
O419 O 0.5361 0.61458 0.32749 0.0
C420 C 0.09209 0.58729 0.43096 0.0
O421 O 0.09289 0.59161 0.47956 0.0
Cd422 Cd 0.08284 0.60603 0.51106 0.0
O423 O 0.08614 0.59113 0.39427 0.0
Cd424 Cd 0.07556 0.60757 0.38791 0.0
C425 C 0.04727 0.58479 0.46625 0.0
O426 O 0.09225 0.62605 0.4495 0.0
O427 O 0.07266 0.62697 0.43308 0.0
O428 O 0.08936 0.61662 0.30502 0.0
C429 C 0.08525 0.63286 0.45466 0.0
O430 O 0.0561 0.59032 0.50606 0.0
C431 C 0.07935 0.61732 0.27883 0.0
O432 O 0.0517 0.58838 0.41768 0.0
O433 O 0.0671 0.61266 0.30255 0.0
C434 C 0.39234 0.49827 0.44852 0.0
O435 O 0.38914 0.49593 0.49849 0.0
Cd436 Cd 0.37621 0.47225 0.53819 0.0
O437 O 0.38795 0.48767 0.41501 0.0
Cd438 Cd 0.37168 0.46063 0.41746 0.0
C439 C 0.39682 0.45742 0.49049 0.0
O440 O 0.35477 0.46022 0.48365 0.0
O441 O 0.35319 0.43929 0.4695 0.0
O442 O 0.3611 0.46404 0.33601 0.0
C443 C 0.348 0.44654 0.49206 0.0
O444 O 0.39232 0.46163 0.53096 0.0
C445 C 0.35989 0.4529 0.31133 0.0
O446 O 0.39174 0.45689 0.44317 0.0
O447 O 0.36482 0.44554 0.33526 0.0
C448 C 0.48557 0.89355 0.45378 0.0
O449 O 0.48609 0.89367 0.50521 0.0
Cd450 Cd 0.50782 0.90549 0.55827 0.0
O451 O 0.49725 0.89922 0.42553 0.0
Cd452 Cd 0.52378 0.90982 0.44505 0.0
C453 C 0.52527 0.93979 0.49934 0.0
O454 O 0.52205 0.8956 0.52417 0.0
O455 O 0.54324 0.91471 0.51117 0.0
O456 O 0.52406 0.89344 0.37753 0.0
C457 C 0.53536 0.90313 0.53811 0.0
O458 O 0.5194 0.93195 0.54126 0.0
C459 C 0.53521 0.9031 0.35228 0.0
O460 O 0.52726 0.93424 0.45652 0.0
O461 O 0.54084 0.91627 0.36896 0.0
C462 C 0.24536 0.42166 0.91803 0.0
O463 O 0.24573 0.42242 0.86667 0.0
Cd464 Cd 0.25524 0.41111 0.80894 0.0
O465 O 0.25147 0.41561 0.94354 0.0
Cd466 Cd 0.26831 0.40633 0.91847 0.0
C467 C 0.24021 0.37623 0.86466 0.0
O468 O 0.27963 0.42091 0.83864 0.0
O469 O 0.2826 0.4022 0.84923 0.0
O470 O 0.28529 0.42372 0.9822 0.0
C471 C 0.28554 0.41365 0.82259 0.0
O472 O 0.24128 0.38463 0.82555 0.0
C473 C 0.28781 0.41475 0.00778 0.0
O474 O 0.24829 0.38133 0.90661 0.0
O475 O 0.28072 0.40137 -0.0069 0.0
C476 C 0.56764 0.82655 0.91987 0.0
O477 O 0.56662 0.82845 0.8696 0.0
Cd478 Cd 0.57619 0.85162 0.82714 0.0
O479 O 0.57341 0.83739 0.95252 0.0
Cd480 Cd 0.58239 0.86422 0.94675 0.0
C481 C 0.61178 0.86963 0.87623 0.0
O482 O 0.56544 0.86284 0.87846 0.0
O483 O 0.58359 0.88455 0.89208 0.0
O484 O 0.56721 0.8597 0.02521 0.0
C485 C 0.57144 0.87641 0.86873 0.0
O486 O 0.60291 0.8641 0.83655 0.0
C487 C 0.57614 0.87121 0.05076 0.0
O488 O 0.60717 0.87035 0.92322 0.0
O489 O 0.58854 0.87937 0.02885 0.0
C490 C 0.1626 0.73262 0.88237 0.0
O491 O 0.16231 0.73303 0.83097 0.0
Cd492 Cd 0.14099 0.7234 0.77595 0.0
O493 O 0.15083 0.72578 0.9098 0.0
Cd494 Cd 0.12449 0.7092 0.88761 0.0
C495 C 0.12169 0.73764 0.84067 0.0
O496 O 0.12733 0.69882 0.80486 0.0
O497 O 0.10557 0.69516 0.81863 0.0
O498 O 0.12494 0.69163 0.94902 0.0
C499 C 0.11412 0.69282 0.7896 0.0
O500 O 0.12826 0.73683 0.79856 0.0
C501 C 0.11358 0.68913 0.9754 0.0
O502 O 0.11965 0.72944 0.88158 0.0
O503 O 0.10744 0.69648 0.96228 0.0
H504 H 0.22222 0.96957 0.60993 0.0
H505 H 0.20711 0.02231 0.4201 0.0
H506 H 0.18306 0.97304 0.61571 0.0
H507 H 0.24769 0.02145 0.4165 0.0
H508 H 0.19849 0.00448 0.49335 0.0
H509 H 0.23189 0.98831 0.53862 0.0
C510 C 0.21562 0.97418 0.59589 0.0
C511 C 0.20182 0.96976 0.6187 0.0
C512 C 0.20932 0.00822 0.47687 0.0
C513 C 0.21283 0.99121 0.53795 0.0
C514 C 0.21427 0.01846 0.43513 0.0
C515 C 0.22811 0.02332 0.41211 0.0
C516 C 0.21823 0.0027 0.49564 0.0
C517 C 0.23694 0.01799 0.43324 0.0
C518 C 0.22117 0.98493 0.55551 0.0
C519 C 0.19375 0.97613 0.59932 0.0
N520 N 0.2318 0.00785 0.47368 0.0
N521 N 0.19938 0.98654 0.56017 0.0
H522 H 0.02413 0.21329 0.54749 0.0
H523 H 0.97052 0.22943 0.37097 0.0
H524 H 0.02031 0.25199 0.56917 0.0
H525 H 0.97949 0.19432 0.3381 0.0
H526 H 0.99015 0.23919 0.43888 0.0
H527 H 0.00968 0.20768 0.46466 0.0
C528 C 0.02043 0.22074 0.53428 0.0
C529 C 0.02325 0.23302 0.56546 0.0
C530 C 0.98789 0.22943 0.41639 0.0
C531 C 0.00645 0.22653 0.47132 0.0
C532 C 0.97666 0.22383 0.37785 0.0
C533 C 0.97325 0.21095 0.34943 0.0
C534 C -0.00432 0.22202 0.42659 0.0
C535 C 0.98163 0.20419 0.35951 0.0
C536 C 0.01215 0.21752 0.48703 0.0
C537 C 0.01831 0.24237 0.54634 0.0
N538 N -0.00764 0.20974 0.39754 0.0
N539 N 0.00991 0.23879 0.50086 0.0
H540 H 0.78526 0.78411 0.30062 0.0
H541 H 0.7252 0.76518 0.53112 0.0
H542 H 0.75078 0.74006 0.33686 0.0
H543 H 0.76513 0.80688 0.51604 0.0
H544 H 0.7313 0.75703 0.44704 0.0
H545 H 0.77504 0.79358 0.36743 0.0
C546 C 0.7755 0.77642 0.32253 0.0
C547 C 0.76897 0.76125 0.31376 0.0
C548 C 0.73859 0.76804 0.46176 0.0
C549 C 0.75718 0.77205 0.39014 0.0
C550 C 0.73507 0.77274 0.50946 0.0
C551 C 0.7448 0.78665 0.53084 0.0
C552 C 0.75186 0.77737 0.43538 0.0
C553 C 0.75743 0.796 0.50126 0.0
C554 C 0.76965 0.78185 0.36057 0.0
C555 C 0.75625 0.75183 0.34286 0.0
N556 N 0.76068 0.79113 0.45529 0.0
N557 N 0.75081 0.75738 0.38012 0.0
H558 H 0.73162 0.96205 0.5549 0.0
H559 H 0.792 0.00396 0.32619 0.0
H560 H 0.77138 0.95998 0.53812 0.0
H561 H 0.75684 0.01274 0.36001 0.0
H562 H 0.78192 0.98434 0.39305 0.0
H563 H 0.73791 0.97682 0.47213 0.0
C564 C 0.74152 0.96445 0.5332 0.0
C565 C 0.75111 0.95997 0.55367 0.0
C566 C 0.77635 0.99049 0.38573 0.0
C567 C 0.75839 0.97689 0.45964 0.0
C568 C 0.78212 0.00174 0.34762 0.0
C569 C 0.77535 0.01012 0.33808 0.0
C570 C 0.76372 0.9876 0.41467 0.0
C571 C 0.76249 0.00663 0.36659 0.0
C572 C 0.74514 0.97295 0.48623 0.0
C573 C 0.76377 0.96336 0.52405 0.0
N574 N 0.75713 -0.00433 0.40398 0.0
N575 N 0.76711 0.97174 0.47879 0.0
H576 H 0.00857 0.75781 0.64146 0.0
H577 H 0.95429 0.77288 0.46143 0.0
H578 H 0.00274 0.79544 0.65979 0.0
H579 H 0.9571 0.73343 0.44697 0.0
H580 H 0.97111 0.78048 0.53799 0.0
H581 H 0.98931 0.74813 0.572 0.0
C582 C 0.00328 0.76404 0.63073 0.0
C583 C 0.00729 0.77747 0.65619 0.0
C584 C 0.96797 0.77009 0.5185 0.0
C585 C 0.98525 0.76645 0.57751 0.0
C586 C 0.95832 0.76572 0.47487 0.0
C587 C 0.95439 0.75256 0.44768 0.0
C588 C 0.97387 0.76131 0.53479 0.0
C589 C 0.95988 0.74367 0.4669 0.0
C590 C -0.00775 0.75848 0.59138 0.0
C591 C 4e-05 0.78506 0.6411 0.0
N592 N 0.9695 0.74829 0.50903 0.0
N593 N 0.9894 0.77946 0.60273 0.0
H594 H 0.1991 0.19649 0.31576 0.0
H595 H 0.21717 0.258 0.54047 0.0
H596 H 0.24278 0.23225 0.34801 0.0
H597 H 0.17582 0.21759 0.52737 0.0
H598 H 0.22554 0.25141 0.45811 0.0
H599 H 0.18946 0.20656 0.3825 0.0
C600 C 0.20667 0.20648 0.33686 0.0
C601 C 0.22179 0.21345 0.32683 0.0
C602 C 0.21456 0.2441 0.47289 0.0
C603 C 0.2108 0.22509 0.40311 0.0
C604 C 0.20973 0.24791 0.51959 0.0
C605 C 0.19585 0.23823 0.54104 0.0
C606 C 0.20539 0.23058 0.44757 0.0
C607 C 0.18667 0.22529 0.5125 0.0
C608 C 0.20115 0.21225 0.37486 0.0
C609 C 0.23107 0.22645 0.35497 0.0
N610 N 0.19166 0.22177 0.46751 0.0
N611 N 0.22542 0.23183 0.39213 0.0
H612 H 0.9155 0.35184 0.73603 0.0
H613 H 0.84672 0.29716 0.91647 0.0
H614 H 0.87188 0.34541 0.71717 0.0
H615 H 0.88905 0.30019 0.92928 0.0
H616 H 0.85559 0.31378 0.83928 0.0
H617 H 0.90608 0.3324 0.80467 0.0
C618 C 0.90397 0.34638 0.74645 0.0
C619 C 0.89447 0.3503 0.72116 0.0
C620 C 0.86293 0.31072 0.85853 0.0
C621 C 0.88364 0.32804 0.79896 0.0
C622 C 0.85784 0.30118 0.90253 0.0
C623 C 0.86721 0.2974 0.9295 0.0
C624 C 0.87755 0.31666 0.8417 0.0
C625 C 0.88148 0.30287 0.9096 0.0
C626 C 0.89859 0.33523 0.78533 0.0
C627 C 0.87962 0.3428 0.7358 0.0
N628 N 0.8863 0.31239 0.86719 0.0
N629 N 0.87468 0.33207 0.77379 0.0
H630 H 0.64727 0.52911 0.68157 0.0
H631 H 0.68862 0.59063 0.90811 0.0
H632 H 0.63726 0.56352 0.71439 0.0
H633 H 0.69217 0.55165 0.89112 0.0
H634 H 0.67304 0.58341 0.82716 0.0
H635 H 0.66668 0.53961 0.74916 0.0
C636 C 0.64916 0.53889 0.70304 0.0
C637 C 0.64054 0.54537 0.69279 0.0
C638 C 0.67739 0.57655 0.84085 0.0
C639 C 0.66283 0.5575 0.77023 0.0
C640 C 0.68635 0.58071 0.88675 0.0
C641 C 0.69154 0.57162 0.90655 0.0
C642 C 0.6737 0.56328 0.81468 0.0
C643 C 0.68827 0.55888 0.87751 0.0
C644 C 0.66028 0.54491 0.74157 0.0
C645 C 0.64358 0.55811 0.72146 0.0
N646 N 0.67946 0.55503 0.83327 0.0
N647 N 0.65446 0.56375 0.75919 0.0
H648 H 0.42578 0.06961 0.72848 0.0
H649 H 0.43626 0.13729 0.9096 0.0
H650 H 0.46197 0.11392 0.71288 0.0
H651 H 0.39816 0.09404 0.92078 0.0
H652 H 0.44512 0.12893 0.83417 0.0
H653 H 0.41506 0.07816 0.79776 0.0
C654 C 0.4315 0.0811 0.73984 0.0
C655 C 0.4448 0.09107 0.71508 0.0
C656 C 0.43475 0.12127 0.85271 0.0
C657 C 0.43258 0.10091 0.79356 0.0
C658 C 0.42966 0.12606 0.89568 0.0
C659 C 0.4165 0.11631 0.92163 0.0
C660 C 0.42671 0.10657 0.83581 0.0
C661 C 0.40837 0.10191 0.90182 0.0
C662 C 0.42534 0.08598 0.77908 0.0
C663 C 0.45171 0.10584 0.73098 0.0
N664 N 0.41368 0.0974 0.86035 0.0
N665 N 0.44552 0.1103 0.76919 0.0
H666 H 0.42347 0.35277 0.72914 0.0
H667 H 0.43623 0.29735 0.91126 0.0
H668 H 0.45971 0.34485 0.70934 0.0
H669 H 0.3974 0.30126 0.92273 0.0
H670 H 0.44421 0.31383 0.83361 0.0
H671 H 0.41319 0.33348 0.79826 0.0
C672 C 0.42927 0.347 0.73942 0.0
C673 C 0.4425 0.35046 0.71377 0.0
C674 C 0.43387 0.31099 0.85267 0.0
C675 C 0.43079 0.32839 0.79216 0.0
C676 C 0.42929 0.30155 0.89695 0.0
C677 C 0.4162 0.29804 0.92363 0.0
C678 C 0.42537 0.31712 0.83529 0.0
C679 C 0.40759 0.30372 0.90326 0.0
C680 C 0.42336 0.33595 0.77859 0.0
C681 C 0.44951 0.34259 0.72826 0.0
N682 N 0.41242 0.31314 0.86059 0.0
N683 N 0.4436 0.33197 0.76658 0.0
H684 H 0.69073 0.09593 0.88845 0.0
H685 H 0.64893 0.11698 0.66656 0.0
H686 H 0.69399 0.13843 0.87643 0.0
H687 H 0.63917 0.07252 0.69623 0.0
H688 H 0.66843 0.12569 0.73395 0.0
H689 H 0.67517 0.08804 0.80743 0.0
C690 C 0.68842 0.10369 0.86812 0.0
C691 C 0.6935 0.1178 0.88942 0.0
C692 C 0.66206 0.11403 0.72568 0.0
C693 C 0.67566 0.10882 0.79747 0.0
C694 C 0.65089 0.10904 0.68728 0.0
C695 C 0.64232 0.09398 0.6762 0.0
C696 C 0.66471 0.10391 0.75327 0.0
C697 C 0.64544 0.08421 0.70395 0.0
C698 C 0.67946 0.09914 0.8222 0.0
C699 C 0.69017 0.12741 0.86165 0.0
N700 N 0.65637 0.08935 0.74146 0.0
N701 N 0.68135 0.12269 0.81736 0.0
H702 H 0.91712 0.56656 0.71183 0.0
H703 H 0.84854 0.55448 0.88857 0.0
H704 H 0.87269 0.53155 0.68564 0.0
H705 H 0.89171 0.59234 0.90667 0.0
H706 H 0.85704 0.54704 0.80936 0.0
H707 H 0.90808 0.57704 0.78023 0.0
C708 C 0.90548 0.56109 0.72047 0.0
C709 C 0.89565 0.54811 0.69339 0.0
C710 C 0.86464 0.55708 0.83018 0.0
C711 C 0.88526 0.56003 0.77098 0.0
C712 C 0.85977 0.56134 0.87533 0.0
C713 C 0.86948 0.57396 0.90441 0.0
C714 C 0.87939 0.56538 0.81437 0.0
C715 C 0.88389 0.5825 0.88537 0.0
C716 C 0.90033 0.56711 0.75925 0.0
C717 C 0.88068 0.54152 0.70577 0.0
N718 N 0.88849 0.57794 0.84187 0.0
N719 N 0.87597 0.54752 0.74379 0.0
H720 H 0.51412 0.62921 0.2408 0.0
H721 H 0.58402 0.68205 0.06099 0.0
H722 H 0.55551 0.6302 0.25384 0.0
H723 H 0.54154 0.67864 0.04622 0.0
H724 H 0.57392 0.66269 0.13003 0.0
H725 H 0.52387 0.6464 0.16554 0.0
C726 C 0.52522 0.63292 0.22732 0.0
C727 C 0.53406 0.62836 0.25377 0.0
C728 C 0.56684 0.6662 0.11158 0.0
C729 C 0.54542 0.64827 0.16815 0.0
C730 C 0.57261 0.6773 0.0725 0.0
C731 C 0.56361 0.68198 0.04804 0.0
C732 C 0.55199 0.65982 0.12614 0.0
C733 C 0.54889 0.6754 0.06409 0.0
C734 C 0.53082 0.64279 0.18445 0.0
C735 C 0.54834 0.63346 0.23449 0.0
N736 N 0.54356 0.66467 0.10209 0.0
N737 N 0.55365 0.64329 0.19311 0.0
H738 H 0.35166 0.92175 0.25422 0.0
H739 H 0.30396 0.85549 0.05039 0.0
H740 H 0.35318 0.8815 0.24609 0.0
H741 H 0.29969 0.8942 0.06078 0.0
H742 H 0.32277 0.86557 0.12017 0.0
H743 H 0.33383 0.91286 0.17965 0.0
C744 C 0.34841 0.91115 0.23624 0.0
C745 C 0.35383 0.90231 0.25646 0.0
C746 C 0.31772 0.87189 0.10741 0.0
C747 C 0.33341 0.89205 0.17204 0.0
C748 C 0.30692 0.8661 0.06764 0.0
C749 C 0.30024 0.87402 0.04982 0.0
C750 C 0.32194 0.88573 0.12964 0.0
C751 C 0.30454 0.88772 0.07358 0.0
C752 C 0.33817 0.90605 0.19402 0.0
C753 C 0.34922 0.88865 0.23197 0.0
N754 N 0.31518 0.89318 0.1123 0.0
N755 N 0.33923 0.88392 0.19129 0.0
H756 H 0.09827 0.46738 0.22382 0.0
H757 H 0.08264 0.39715 0.04952 0.0
H758 H 0.05951 0.42499 0.24475 0.0
H759 H 0.11854 0.44097 0.02035 0.0
H760 H 0.07298 0.40714 0.11745 0.0
H761 H 0.10459 0.45813 0.14382 0.0
C762 C 0.09097 0.45617 0.21103 0.0
C763 C 0.07844 0.44688 0.24115 0.0
C764 C 0.08292 0.41456 0.09587 0.0
C765 C 0.08574 0.4361 0.15024 0.0
C766 C 0.08847 0.40885 0.05737 0.0
C767 C 0.10148 0.41823 0.02969 0.0
C768 C 0.09049 0.42971 0.10672 0.0
C769 C 0.10854 0.43331 0.04102 0.0
C770 C 0.0946 0.45087 0.16541 0.0
C771 C 0.06931 0.43249 0.22264 0.0
N772 N 0.10299 0.43855 0.07883 0.0
N773 N 0.07326 0.42745 0.17871 0.0
H774 H 0.10285 0.62482 0.2133 0.0
H775 H 0.08824 0.67943 0.03397 0.0
H776 H 0.06338 0.62756 0.22586 0.0
H777 H 0.12515 0.67266 0.01234 0.0
H778 H 0.07835 0.65989 0.10215 0.0
H779 H 0.11031 0.64123 0.13543 0.0
C780 C 0.09564 0.62871 0.1991 0.0
C781 C 0.08254 0.62494 0.22626 0.0
C782 C 0.08859 0.66266 0.08229 0.0
C783 C 0.09114 0.64396 0.13779 0.0
C784 C 0.09427 0.67387 0.04367 0.0
C785 C 0.10757 0.67773 0.01776 0.0
C786 C 0.09631 0.65535 0.09508 0.0
C787 C 0.11489 0.6701 0.03149 0.0
C788 C 0.09993 0.63813 0.15474 0.0
C789 C 0.07358 0.63023 0.20605 0.0
N790 N 0.10918 0.65932 0.06931 0.0
N791 N 0.07815 0.63966 0.16336 0.0
H792 H 0.3522 0.46853 0.24466 0.0
H793 H 0.29747 0.39896 0.06648 0.0
H794 H 0.34876 0.42606 0.26189 0.0
H795 H 0.30384 0.44258 0.04643 0.0
H796 H 0.3168 0.40854 0.13576 0.0
H797 H 0.33555 0.45928 0.16762 0.0
C798 C 0.34806 0.45729 0.23174 0.0
C799 C 0.35176 0.44801 0.25987 0.0
C800 C 0.31396 0.41599 0.11601 0.0
C801 C 0.33246 0.43723 0.1722 0.0
C802 C 0.30289 0.41052 0.07676 0.0
C803 C 0.299 0.41998 0.05094 0.0
C804 C 0.32111 0.43099 0.12936 0.0
C805 C 0.30643 0.43487 0.06543 0.0
C806 C 0.33851 0.45198 0.18782 0.0
C807 C 0.34616 0.43356 0.24125 0.0
N808 N 0.31709 0.43989 0.10369 0.0
N809 N 0.33662 0.42854 0.19884 0.0
H810 H 0.56057 0.92061 0.29601 0.0
H811 H 0.55217 0.85414 0.11233 0.0
H812 H 0.5248 0.87598 0.30801 0.0
H813 H 0.58948 0.89793 0.1021 0.0
H814 H 0.54268 0.86201 0.18717 0.0
H815 H 0.57172 0.91276 0.22601 0.0
C816 C 0.55503 0.9092 0.2837 0.0
C817 C 0.54173 0.89893 0.30772 0.0
C818 C 0.553 0.86991 0.16895 0.0
C819 C 0.55445 0.88988 0.22842 0.0
C820 C 0.55845 0.8654 0.1263 0.0
C821 C 0.57158 0.87543 0.10084 0.0
C822 C 0.56066 0.8846 0.18609 0.0
C823 C 0.57931 0.88986 0.12071 0.0
C824 C 0.56144 0.90471 0.24404 0.0
C825 C 0.53505 0.88427 0.29055 0.0
N826 N 0.57365 0.89407 0.16196 0.0
N827 N 0.54149 0.8802 0.252 0.0
H828 H 0.18217 0.97145 0.90901 0.0
H829 H 0.24471 0.01349 0.13176 0.0
H830 H 0.22443 0.97415 0.90089 0.0
H831 H 0.20431 0.01464 0.12332 0.0
H832 H 0.23712 -0.00228 0.05107 0.0
H833 H 0.18989 0.98623 0.991 0.0
C834 C 0.19311 0.9752 0.92446 0.0
C835 C 0.20268 0.97158 0.89817 0.0
C836 C 0.22993 0.00142 0.06708 0.0
C837 C 0.2116 0.9885 -0.00763 0.0
C838 C 0.23421 0.01034 0.11318 0.0
C839 C 0.22514 0.01541 0.13396 0.0
C840 C 0.21647 -0.00246 0.04211 0.0
C841 C 0.21168 0.01104 0.10844 0.0
C842 C 0.19752 0.98365 0.97136 0.0
C843 C 0.21674 0.97675 0.91996 0.0
N844 N 0.20778 0.00239 0.06382 0.0
N845 N 0.22079 0.98495 0.96604 0.0
H846 H 0.95357 0.17973 0.05761 0.0
H847 H -0.00041 0.2419 0.83885 0.0
H848 H 0.96332 0.22464 0.0732 0.0
H849 H -0.00454 0.19893 0.84039 0.0
H850 H 0.98245 0.23454 0.91503 0.0
H851 H 0.96527 0.18553 0.96892 0.0
C852 C 0.95815 0.19082 0.04227 0.0
C853 C 0.95766 0.20178 0.07303 0.0
C854 C 0.98518 0.22669 0.8982 0.0
C855 C 0.97104 0.20848 0.9715 0.0
C856 C -0.00511 0.23085 0.85463 0.0
C857 C -0.00091 0.22106 0.83401 0.0
C858 C 0.97964 0.21265 0.92084 0.0
C859 C -0.00734 0.20687 0.85569 0.0
C860 C 0.96479 0.19411 0.99157 0.0
C861 C 0.96361 0.21591 0.05093 0.0
N862 N 0.98335 0.20313 0.89827 0.0
N863 N 0.97017 0.2189 0.00154 0.0
H864 H 0.77939 0.78574 0.78585 0.0
H865 H 0.75223 0.73313 0.04286 0.0
H866 H 0.73438 0.75188 0.80902 0.0
H867 H 0.79699 0.76709 0.01464 0.0
H868 H 0.74586 0.73708 0.9512 0.0
H869 H 0.78657 0.77587 0.86167 0.0
C870 C 0.77106 0.77605 0.80644 0.0
C871 C 0.75627 0.76975 0.79195 0.0
C872 C 0.7571 0.74355 0.96497 0.0
C873 C 0.7643 0.75859 0.87952 0.0
C874 C 0.76072 0.74134 0.01727 0.0
C875 C 0.7751 0.74996 0.03653 0.0
C876 C 0.76797 0.75444 0.93203 0.0
C877 C 0.78571 0.76035 0.00169 0.0
C878 C 0.77514 0.77043 0.84983 0.0
C879 C 0.7459 0.75711 0.81934 0.0
N880 N 0.78191 0.76236 0.95131 0.0
N881 N 0.75008 0.75209 0.86268 0.0
H882 H 0.74328 0.98461 0.82632 0.0
H883 H 0.80565 0.02895 0.04691 0.0
H884 H 0.78553 0.98721 0.82841 0.0
H885 H 0.7612 0.02046 0.06177 0.0
H886 H 0.79965 0.01733 0.95791 0.0
H887 H 0.75105 0.00168 0.90301 0.0
C888 C 0.75427 0.98897 0.84231 0.0
C889 C 0.76372 0.98435 0.82169 0.0
C890 C 0.79122 0.01807 0.98048 0.0
C891 C 0.7726 0.00371 0.90914 0.0
C892 C 0.79462 0.02467 0.03135 0.0
C893 C 0.78384 0.02549 0.06197 0.0
C894 C 0.77692 0.01222 0.9601 0.0
C895 C 0.76979 0.01991 0.03963 0.0
C896 C 0.75866 -0.00137 0.88619 0.0
C897 C 0.77785 0.99034 0.84368 0.0
N898 N 0.76669 0.0134 0.99006 0.0
N899 N 0.78181 -0.00038 0.88657 0.0
H900 H 0.00787 0.75697 0.93465 0.0
H901 H 0.97263 0.78169 0.1696 0.0
H902 H 0.01434 0.80069 0.95203 0.0
H903 H 0.96896 0.73891 0.1653 0.0
H904 H 0.98888 0.78897 0.09159 0.0
H905 H -0.00589 0.75004 0.02 0.0
C906 C 0.00639 0.76509 0.95641 0.0
C907 C 0.01218 0.7794 0.93622 0.0
C908 C 0.98464 0.77801 0.10782 0.0
C909 C -0.0034 0.77162 0.03347 0.0
C910 C 0.97537 0.77386 0.15242 0.0
C911 C 0.96937 0.75965 0.17352 0.0
C912 C 0.98784 0.76783 0.08376 0.0
C913 C 0.97335 0.74998 0.15005 0.0
C914 C -0.00139 0.76116 0.00514 0.0
C915 C 0.01003 0.78952 0.966 0.0
N916 N 0.98224 0.7542 0.1059 0.0
N917 N 0.00238 0.78542 0.013 0.0
H918 H 0.2158 0.18622 0.02416 0.0
H919 H 0.23074 0.25069 0.81863 0.0
H920 H 0.24731 0.23178 0.05482 0.0
H921 H 0.19653 0.20557 0.80016 0.0
H922 H 0.24046 0.24347 0.89569 0.0
H923 H 0.2119 0.19272 0.93356 0.0
C924 C 0.22192 0.19762 0.01176 0.0
C925 C 0.23172 0.20853 0.04727 0.0
C926 C 0.23097 0.23513 0.87414 0.0
C927 C 0.22731 0.21606 0.94345 0.0
C928 C 0.22549 0.23923 0.83001 0.0
C929 C 0.21268 0.22872 0.80382 0.0
C930 C 0.22358 0.22046 0.89163 0.0
C931 C 0.2063 0.21403 0.81996 0.0
C932 C 0.21974 0.20132 0.95988 0.0
C933 C 0.23953 0.22307 0.02877 0.0
N934 N 0.21172 0.21036 0.86325 0.0
N935 N 0.23704 0.22646 0.97815 0.0
H936 H 0.87868 0.35906 0.42475 0.0
H937 H 0.89709 0.31356 0.21014 0.0
H938 H 0.91527 0.3516 0.4429 0.0
H939 H 0.85785 0.31693 0.20778 0.0
H940 H 0.90586 0.33014 0.28852 0.0
H941 H 0.87265 0.34599 0.33881 0.0
C942 C 0.88545 0.35464 0.41063 0.0
C943 C 0.89743 0.35631 0.44113 0.0
C944 C 0.89539 0.32733 0.27046 0.0
C945 C 0.8906 0.34134 0.34255 0.0
C946 C 0.89043 0.31795 0.22565 0.0
C947 C 0.87667 0.31378 0.203 0.0
C948 C 0.88653 0.33256 0.29222 0.0
C949 C 0.86846 0.31975 0.22448 0.0
C950 C 0.88202 0.34721 0.36145 0.0
C951 C 0.90588 0.35046 0.4207 0.0
N952 N 0.87348 0.32877 0.26809 0.0
N953 N 0.90226 0.34317 0.3726 0.0
H954 H 0.66657 0.53916 0.17488 0.0
H955 H 0.63336 0.56298 0.41894 0.0
H956 H 0.67231 0.58264 0.18934 0.0
H957 H 0.62644 0.51924 0.39569 0.0
H958 H 0.64579 0.57008 0.33102 0.0
H959 H 0.64952 0.53115 0.25059 0.0
C960 C 0.66408 0.54698 0.19373 0.0
C961 C 0.67097 0.56161 0.17648 0.0
C962 C 0.64145 0.55891 0.34507 0.0
C963 C 0.65165 0.55262 0.26375 0.0
C964 C 0.63442 0.55487 0.39525 0.0
C965 C 0.62902 0.54055 0.41475 0.0
C966 C 0.64308 0.54853 0.31452 0.0
C967 C 0.63056 0.53044 0.38242 0.0
C968 C 0.65436 0.54242 0.23701 0.0
C969 C 0.66726 0.57127 0.20174 0.0
N970 N 0.63752 0.53466 0.33406 0.0
N971 N 0.65798 0.56665 0.24482 0.0
H972 H 0.44474 0.12719 0.19537 0.0
H973 H 0.42359 0.06975 0.43767 0.0
H974 H 0.40244 0.08787 0.20723 0.0
H975 H 0.46601 0.10854 0.41739 0.0
H976 H 0.41569 0.07529 0.35165 0.0
H977 H 0.45303 0.11934 0.27386 0.0
C978 C 0.43724 0.11681 0.21433 0.0
C979 C 0.42286 0.10823 0.19525 0.0
C980 C 0.42673 0.08254 0.36606 0.0
C981 C 0.43218 0.09923 0.28569 0.0
C982 C 0.43121 0.07942 0.41517 0.0
C983 C 0.44544 0.08874 0.4347 0.0
C984 C 0.43656 0.09505 0.33661 0.0
C985 C 0.45492 0.10108 0.40396 0.0
C986 C 0.44196 0.11234 0.25924 0.0
C987 C 0.41361 0.09482 0.22091 0.0
N988 N 0.45029 0.10388 0.35655 0.0
N989 N 0.41839 0.09078 0.26539 0.0
H990 H 0.40244 0.31424 0.20472 0.0
H991 H 0.46714 0.35976 0.41632 0.0
H992 H 0.44462 0.3167 0.20204 0.0
H993 H 0.42332 0.35267 0.43674 0.0
H994 H 0.4597 0.3465 0.33085 0.0
H995 H 0.41065 0.33106 0.28249 0.0
C996 C 0.41347 0.31847 0.22004 0.0
C997 C 0.42283 0.31399 0.19746 0.0
C998 C 0.45169 0.34785 0.35388 0.0
C999 C 0.43221 0.33305 0.28592 0.0
C1000 C 0.45593 0.3554 0.40278 0.0
C1001 C 0.44579 0.3572 0.43381 0.0
C1002 C 0.43718 0.34201 0.33579 0.0
C1003 C 0.43144 0.35142 0.41411 0.0
C1004 C 0.41812 0.32799 0.26449 0.0
C1005 C 0.43701 0.31976 0.21869 0.0
N1006 N 0.42752 0.344 0.36628 0.0
N1007 N 0.44123 0.32893 0.2619 0.0
H1008 H 0.66434 0.12103 0.14816 0.0
H1009 H 0.63496 0.06786 0.40409 0.0
H1010 H 0.67311 0.0855 0.17295 0.0
H1011 H 0.62679 0.10363 0.37425 0.0
H1012 H 0.64642 0.07195 0.31452 0.0
H1013 H 0.64739 0.11219 0.22424 0.0
C1014 C 0.6625 0.11121 0.16927 0.0
C1015 C 0.67025 0.10409 0.15498 0.0
C1016 C 0.642 0.07881 0.32751 0.0
C1017 C 0.65113 0.09407 0.24281 0.0
C1018 C 0.63553 0.07652 0.37863 0.0
C1019 C 0.63009 0.08554 0.39677 0.0
C1020 C 0.64301 0.09018 0.29461 0.0
C1021 C 0.63099 0.09652 0.36214 0.0
C1022 C 0.65286 0.10618 0.2128 0.0
C1023 C 0.66738 0.09133 0.18305 0.0
N1024 N 0.6374 0.09857 0.31289 0.0
N1025 N 0.6582 0.08685 0.22644 0.0
H1026 H 0.91893 0.56565 0.41762 0.0
H1027 H 0.8619 0.5422 0.17328 0.0
H1028 H 0.88177 0.52216 0.39555 0.0
H1029 H 0.89975 0.58552 0.18781 0.0
H1030 H 0.87069 0.53414 0.24985 0.0
H1031 H 0.9135 0.57282 0.32994 0.0
C1032 C 0.90966 0.55761 0.39427 0.0
C1033 C 0.9007 0.54334 0.41401 0.0
C1034 C 0.87718 0.54538 0.23611 0.0
C1035 C 0.89449 0.5514 0.31397 0.0
C1036 C 0.87217 0.54997 0.19232 0.0
C1037 C 0.88003 0.56457 0.17477 0.0
C1038 C 0.89007 0.55552 0.26302 0.0
C1039 C 0.89334 0.57417 0.20038 0.0
C1040 C 0.9066 0.56169 0.34421 0.0
C1041 C 0.8889 0.53332 0.38208 0.0
N1042 N 0.89786 0.56951 0.24387 0.0
N1043 N 0.8861 0.53757 0.33379 0.0
H1044 H 0.52452 0.64717 0.53003 0.0
H1045 H 0.58376 0.68022 0.76832 0.0
H1046 H 0.56224 0.64126 0.53729 0.0
H1047 H 0.54665 0.68692 0.75236 0.0
H1048 H 0.57694 0.66678 0.68211 0.0
H1049 H 0.53365 0.66317 0.60879 0.0
C1050 C 0.53482 0.64936 0.54803 0.0
C1051 C 0.54258 0.6428 0.52759 0.0
C1052 C 0.57035 0.67125 0.69752 0.0
C1053 C 0.55303 0.66096 0.61828 0.0
C1054 C 0.57419 0.67884 0.74673 0.0
C1055 C 0.56571 0.68462 0.76751 0.0
C1056 C 0.55796 0.66945 0.66926 0.0
C1057 C 0.55347 0.68261 0.73793 0.0
C1058 C 0.54002 0.65848 0.59309 0.0
C1059 C 0.55592 0.6461 0.55205 0.0
N1060 N 0.54996 0.67517 0.69041 0.0
N1061 N 0.56067 0.65486 0.59667 0.0
H1062 H 0.30344 0.89757 0.77175 0.0
H1063 H 0.34072 0.87549 0.53544 0.0
H1064 H 0.2997 0.85495 0.75432 0.0
H1065 H 0.3434 0.9178 0.54267 0.0
H1066 H 0.32494 0.86779 0.61467 0.0
H1067 H 0.31781 0.90542 0.68779 0.0
C1068 C 0.30567 0.8899 0.75036 0.0
C1069 C 0.3004 0.8756 0.76994 0.0
C1070 C 0.32889 0.87874 0.59894 0.0
C1071 C 0.31666 0.88443 0.67429 0.0
C1072 C 0.33789 0.88314 0.55361 0.0
C1073 C 0.34344 0.89733 0.5328 0.0
C1074 C 0.32545 0.88864 0.62402 0.0
C1075 C 0.33935 0.90676 0.55763 0.0
C1076 C 0.31381 0.89436 0.70243 0.0
C1077 C 0.30355 0.86607 0.74072 0.0
N1078 N 0.33066 0.90227 0.60239 0.0
N1079 N 0.31147 0.87067 0.69444 0.0
H1080 H 0.08359 0.39487 0.75358 0.0
H1081 H 0.11066 0.45276 0.51146 0.0
H1082 H 0.12803 0.43046 0.73373 0.0
H1083 H 0.06642 0.41634 0.52298 0.0
H1084 H 0.11764 0.44297 0.58802 0.0
H1085 H 0.07731 0.40105 0.66548 0.0
C1086 C 0.09202 0.40394 0.73062 0.0
C1087 C 0.10631 0.41226 0.75111 0.0
C1088 C 0.10643 0.437 0.5736 0.0
C1089 C 0.09926 0.41931 0.65069 0.0
C1090 C 0.10245 0.44259 0.52982 0.0
C1091 C 0.08792 0.43544 0.51143 0.0
C1092 C 0.09574 0.42426 0.59967 0.0
C1093 C 0.07774 0.42222 0.53621 0.0
C1094 C 0.08845 0.40742 0.68035 0.0
C1095 C 0.11684 0.42383 0.7197 0.0
N1096 N 0.0818 0.41714 0.57972 0.0
N1097 N 0.11308 0.42705 0.67122 0.0
H1098 H 0.08692 0.68 0.7419 0.0
H1099 H 0.11281 0.65026 0.49248 0.0
H1100 H 0.13128 0.6891 0.71651 0.0
H1101 H 0.0685 0.64197 0.5093 0.0
H1102 H 0.12013 0.66681 0.56978 0.0
H1103 H 0.08009 0.66773 0.6534 0.0
C1104 C 0.0952 0.67943 0.71768 0.0
C1105 C 0.10964 0.68544 0.73665 0.0
C1106 C 0.10882 0.66152 0.55639 0.0
C1107 C 0.10199 0.67161 0.63579 0.0
C1108 C 0.10466 0.65209 0.51217 0.0
C1109 C 0.09002 0.64464 0.49509 0.0
C1110 C 0.09821 0.66335 0.58424 0.0
C1111 C 0.07991 0.64749 0.52151 0.0
C1112 C 0.09133 0.6725 0.66718 0.0
C1113 C 0.11999 0.68451 0.70367 0.0
N1114 N 0.08415 0.65649 0.56549 0.0
N1115 N 0.11593 0.67768 0.655 0.0
H1116 H 0.29789 0.39909 0.7727 0.0
H1117 H 0.33317 0.4588 0.53723 0.0
H1118 H 0.29193 0.43668 0.756 0.0
H1119 H 0.33744 0.42006 0.54382 0.0
H1120 H 0.31676 0.44983 0.61477 0.0
H1121 H 0.31155 0.40577 0.68721 0.0
C1122 C 0.29946 0.40874 0.75105 0.0
C1123 C 0.29386 0.4174 0.77153 0.0
C1124 C 0.32117 0.4432 0.59916 0.0
C1125 C 0.30932 0.42502 0.67404 0.0
C1126 C 0.33054 0.44832 0.55483 0.0
C1127 C 0.33676 0.44021 0.53455 0.0
C1128 C 0.3181 0.42993 0.62378 0.0
C1129 C 0.33289 0.42666 0.55847 0.0
C1130 C 0.30719 0.4125 0.70224 0.0
C1131 C 0.29611 0.42972 0.74184 0.0
N1132 N 0.32389 0.42199 0.60237 0.0
N1133 N 0.30371 0.43318 0.69471 0.0
H1134 H 0.58544 0.90317 0.81754 0.0
H1135 H 0.52026 0.8795 0.6037 0.0
H1136 H 0.54493 0.86168 0.81934 0.0
H1137 H 0.56235 0.9189 0.58651 0.0
H1138 H 0.52868 0.87396 0.68745 0.0
H1139 H 0.57658 0.91047 0.73798 0.0
C1140 C 0.57464 0.89568 0.80154 0.0
C1141 C 0.56593 0.88177 0.82465 0.0
C1142 C 0.53611 0.88382 0.66547 0.0
C1143 C 0.55583 0.88996 0.7341 0.0
C1144 C 0.53131 0.88698 0.61755 0.0
C1145 C 0.54065 0.89965 0.58807 0.0
C1146 C 0.55037 0.8934 0.6842 0.0
C1147 C 0.55483 0.90898 0.608 0.0
C1148 C 0.56963 0.89981 0.75608 0.0
C1149 C 0.55205 0.87246 0.80247 0.0
N1150 N 0.55929 0.90566 0.65498 0.0
N1151 N 0.54746 0.87671 0.75832 0.0
H1152 H 0.36276 0.11801 0.24498 0.0
H1153 H 0.28413 0.08459 0.10324 0.0
H1154 H 0.35605 0.11344 0.07163 0.0
H1155 H 0.29028 0.08228 0.27542 0.0
H1156 H 0.31069 0.09829 0.09172 0.0
H1157 H 0.33644 0.1079 0.25732 0.0
C1158 C 0.35578 0.11495 0.20947 0.0
C1159 C 0.36162 0.11647 0.15717 0.0
C1160 C 0.30622 0.09486 0.13205 0.0
C1161 C 0.33148 0.10491 0.17111 0.0
C1162 C 0.29105 0.08707 0.13873 0.0
C1163 C 0.28494 0.08215 0.19035 0.0
C1164 C 0.31538 0.09779 0.17731 0.0
C1165 C 0.29448 0.08575 0.23481 0.0
C1166 C 0.34074 0.10917 0.21659 0.0
C1167 C 0.35203 0.11237 0.11271 0.0
N1168 N 0.30922 0.09328 0.22722 0.0
N1169 N 0.33742 0.10673 0.12071 0.0
H1170 H 0.86906 0.24685 0.25795 0.0
H1171 H 0.88961 0.1913 0.11481 0.0
H1172 H 0.8646 0.23758 0.08618 0.0
H1173 H 0.90624 0.21054 0.27218 0.0
H1174 H 0.87614 0.20456 0.11012 0.0
H1175 H 0.87874 0.23012 0.2694 0.0
C1176 C 0.87001 0.24123 0.22273 0.0
C1177 C 0.86613 0.2437 0.17094 0.0
C1178 C 0.88266 0.2058 0.14583 0.0
C1179 C 0.87707 0.22454 0.18389 0.0
C1180 C 0.89032 0.19818 0.14869 0.0
C1181 C 0.89922 0.19993 0.19372 0.0
C1182 C 0.88383 0.21518 0.1884 0.0
C1183 C 0.89963 0.20897 0.23646 0.0
C1184 C 0.87556 0.23172 0.22931 0.0
C1185 C 0.86759 0.23612 0.12676 0.0
N1186 N 0.8921 0.21633 0.23262 0.0
N1187 N 0.87296 0.22689 0.13425 0.0
H1188 H 0.73681 0.62143 0.24184 0.0
H1189 H 0.79273 0.69689 0.09649 0.0
H1190 H 0.74975 0.62532 0.07384 0.0
H1191 H 0.77067 0.69494 0.24652 0.0
H1192 H 0.78113 0.67024 0.09712 0.0
H1193 H 0.75305 0.64798 0.25262 0.0
C1194 C 0.74318 0.62783 0.20743 0.0
C1195 C 0.74181 0.62121 0.15669 0.0
C1196 C 0.77892 0.67565 0.13014 0.0
C1197 C 0.76039 0.65141 0.16886 0.0
C1198 C 0.78557 0.69089 0.12992 0.0
C1199 C 0.78249 0.69817 0.17108 0.0
C1200 C 0.76913 0.6676 0.17182 0.0
C1201 C 0.77323 0.68978 0.21362 0.0
C1202 C 0.7524 0.64296 0.2136 0.0
C1203 C 0.75032 0.63 0.11349 0.0
N1204 N 0.76675 0.67489 0.21265 0.0
N1205 N 0.7592 0.64465 0.12054 0.0
H1206 H 0.06442 0.27824 0.91304 0.0
H1207 H 0.1214 0.35587 0.78394 0.0
H1208 H 0.07781 0.28481 0.74514 0.0
H1209 H 0.10003 0.35151 0.93785 0.0
H1210 H 0.10902 0.32924 0.77667 0.0
H1211 H 0.08074 0.30452 0.92944 0.0
C1212 C 0.07088 0.28517 0.87977 0.0
C1213 C 0.06965 0.27936 0.8275 0.0
C1214 C 0.10712 0.3341 0.81223 0.0
C1215 C 0.08833 0.30931 0.84609 0.0
C1216 C 0.11422 0.34933 0.81653 0.0
C1217 C 0.1116 0.35596 0.86125 0.0
C1218 C 0.09733 0.3254 0.85293 0.0
C1219 C 0.10227 0.34687 0.9024 0.0
C1220 C 0.08015 0.30015 0.88916 0.0
C1221 C 0.07828 0.28884 0.78593 0.0
N1222 N 0.09536 0.33202 0.89704 0.0
N1223 N 0.08722 0.30334 0.79611 0.0
H1224 H 0.70214 0.78024 0.88754 0.0
H1225 H 0.62252 0.75671 0.77074 0.0
H1226 H 0.69336 0.7865 0.72151 0.0
H1227 H 0.62974 0.74352 0.92838 0.0
H1228 H 0.64893 0.77117 0.75782 0.0
H1229 H 0.67613 0.77013 0.90838 0.0
C1230 C 0.69478 0.77961 0.85559 0.0
C1231 C 0.69991 0.78408 0.80254 0.0
C1232 C 0.64475 0.76519 0.79541 0.0
C1233 C 0.6702 0.77256 0.82617 0.0
C1234 C 0.62965 0.75694 0.80289 0.0
C1235 C 0.62388 0.74872 0.85047 0.0
C1236 C 0.6542 0.76525 0.83571 0.0
C1237 C 0.6337 0.74958 0.89086 0.0
C1238 C 0.67994 0.77381 0.86751 0.0
C1239 C 0.68988 0.78305 0.76282 0.0
N1240 N 0.6484 0.7576 0.88237 0.0
N1241 N 0.67551 0.77734 0.77541 0.0
H1242 H 0.19962 0.90503 0.73631 0.0
H1243 H 0.23462 0.87144 0.93574 0.0
H1244 H 0.1932 0.90262 0.90976 0.0
H1245 H 0.23135 0.86419 0.76264 0.0
H1246 H 0.2193 0.88274 0.92733 0.0
H1247 H 0.21115 0.88992 0.74502 0.0
C1248 C 0.20054 0.90125 0.77619 0.0
C1249 C 0.19553 0.90519 0.82242 0.0
C1250 C 0.22182 0.87855 0.89127 0.0
C1251 C 0.2088 0.88798 0.8327 0.0
C1252 C 0.2306 0.87213 0.89602 0.0
C1253 C 0.23437 0.86696 0.84977 0.0
C1254 C 0.21693 0.87997 0.83984 0.0
C1255 C 0.22877 0.86806 0.79939 0.0
C1256 C 0.20709 0.89259 0.78111 0.0
C1257 C 0.19694 0.89989 0.87302 0.0
N1258 N 0.22045 0.87459 0.7957 0.0
N1259 N 0.20358 0.89168 0.87687 0.0
H1260 H 0.70633 0.91802 0.90405 0.0
H1261 H 0.62555 0.87067 0.78094 0.0
H1262 H 0.6969 0.9098 0.733 0.0
H1263 H 0.63426 0.88293 0.94985 0.0
H1264 H 0.65185 0.88262 0.76456 0.0
H1265 H 0.68015 0.90294 0.92324 0.0
C1266 C 0.69878 0.91298 0.87054 0.0
C1267 C 0.70382 0.91528 0.81678 0.0
C1268 C 0.64802 0.88264 0.80527 0.0
C1269 C 0.67386 0.89802 0.83851 0.0
C1270 C 0.63298 0.87579 0.81471 0.0
C1271 C 0.62767 0.87589 0.8668 0.0
C1272 C 0.65785 0.88966 0.84817 0.0
C1273 C 0.63785 0.88265 0.90897 0.0
C1274 C 0.68383 0.90439 0.88155 0.0
C1275 C 0.69352 0.90843 0.77504 0.0
N1276 N 0.65246 0.88934 0.89866 0.0
N1277 N 0.67904 0.90016 0.7868 0.0
H1278 H 0.08018 0.78811 0.92607 0.0
H1279 H 0.11865 0.75226 0.75443 0.0
H1280 H 0.07505 0.78135 0.75286 0.0
H1281 H 0.11093 0.74582 0.92685 0.0
H1282 H 0.10683 0.7672 0.75389 0.0
H1283 H 0.0956 0.7768 0.92715 0.0
C1284 C 0.0824 0.78437 0.88819 0.0
C1285 C 0.07622 0.78557 0.83932 0.0
C1286 C 0.10781 0.76257 0.79185 0.0
C1287 C 0.09387 0.77269 0.8404 0.0
C1288 C 0.1146 0.7541 0.79229 0.0
C1289 C 0.11567 0.74768 0.84073 0.0
C1290 C 0.10217 0.76477 0.84024 0.0
C1291 C 0.11023 0.75045 0.88852 0.0
C1292 C 0.09115 0.77788 0.88893 0.0
C1293 C 0.07947 0.78053 0.7915 0.0
N1294 N 0.10368 0.75877 0.88705 0.0
N1295 N 0.08807 0.77428 0.79326 0.0
H1296 H 0.20014 0.28206 0.89531 0.0
H1297 H 0.22231 0.36145 0.77915 0.0
H1298 H 0.19479 0.29074 0.72814 0.0
H1299 H 0.23559 0.35445 0.93697 0.0
H1300 H 0.20834 0.33498 0.76559 0.0
H1301 H 0.20949 0.30798 0.91631 0.0
C1302 C 0.20081 0.28938 0.8631 0.0
C1303 C 0.19682 0.28425 0.80973 0.0
C1304 C 0.21422 0.33923 0.80336 0.0
C1305 C 0.20746 0.31386 0.83359 0.0
C1306 C 0.22218 0.35436 0.81124 0.0
C1307 C 0.23031 0.36022 0.85903 0.0
C1308 C 0.21436 0.32984 0.84352 0.0
C1309 C 0.2296 0.35044 0.89929 0.0
C1310 C 0.20617 0.30417 0.87514 0.0
C1311 C 0.19788 0.29422 0.76972 0.0
N1312 N 0.22187 0.33572 0.89043 0.0
N1313 N 0.20316 0.30856 0.78244 0.0
H1314 H 0.90064 0.7024 0.11709 0.0
H1315 H 0.86629 0.6218 0.24306 0.0
H1316 H 0.89936 0.69364 0.28871 0.0
H1317 H 0.87181 0.63092 0.07127 0.0
H1318 H 0.87568 0.64785 0.26055 0.0
H1319 H 0.88722 0.67601 0.09982 0.0
C1320 C 0.89742 0.69494 0.15122 0.0
C1321 C 0.90128 0.70026 0.20443 0.0
C1322 C 0.87477 0.64413 0.21901 0.0
C1323 C 0.88597 0.67003 0.18482 0.0
C1324 C 0.8694 0.62925 0.20896 0.0
C1325 C 0.86838 0.62417 0.15561 0.0
C1326 C 0.87914 0.65402 0.17542 0.0
C1327 C 0.87251 0.63435 0.11308 0.0
C1328 C 0.88979 0.67987 0.14128 0.0
C1329 C 0.89674 0.69006 0.247 0.0
N1330 N 0.87777 0.6488 0.12394 0.0
N1331 N 0.88942 0.67543 0.23623 0.0
H1332 H 0.36201 0.2471 0.24718 0.0
H1333 H 0.28684 0.19476 0.0927 0.0
H1334 H 0.35855 0.23843 0.07503 0.0
H1335 H 0.28857 0.21317 0.25104 0.0
H1336 H 0.3135 0.20687 0.09233 0.0
H1337 H 0.33542 0.23104 0.25515 0.0
C1338 C 0.35569 0.24173 0.21117 0.0
C1339 C 0.36248 0.24421 0.16025 0.0
C1340 C 0.30804 0.20818 0.12731 0.0
C1341 C 0.33219 0.22583 0.16921 0.0
C1342 C 0.2928 0.20123 0.12768 0.0
C1343 C 0.28544 0.2031 0.17171 0.0
C1344 C 0.31602 0.21703 0.17134 0.0
C1345 C 0.29379 0.21154 0.21601 0.0
C1346 C 0.34054 0.23261 0.21576 0.0
C1347 C 0.35376 0.23697 0.11498 0.0
N1348 N 0.30867 0.21829 0.21456 0.0
N1349 N 0.33908 0.22813 0.12053 0.0
H1350 H 0.73601 0.11156 0.23241 0.0
H1351 H 0.79554 0.09436 0.10398 0.0
H1352 H 0.74956 0.11915 0.06472 0.0
H1353 H 0.77371 0.07595 0.25601 0.0
H1354 H 0.78209 0.10758 0.09653 0.0
H1355 H 0.75289 0.10226 0.2483 0.0
C1356 C 0.7426 0.11137 0.19904 0.0
C1357 C 0.74128 0.11602 0.14702 0.0
C1358 C 0.78032 0.10073 0.13171 0.0
C1359 C 0.76062 0.10551 0.16506 0.0
C1360 C 0.78804 0.0932 0.13614 0.0
C1361 C 0.78562 0.08387 0.18039 0.0
C1362 C 0.77013 0.09897 0.17185 0.0
C1363 C 0.77582 0.08292 0.22094 0.0
C1364 C 0.75219 0.10604 0.20815 0.0
C1365 C 0.7501 0.11555 0.10533 0.0
N1366 N 0.76835 0.0903 0.21551 0.0
N1367 N 0.75937 0.11036 0.11526 0.0
H1368 H 0.03287 0.44833 0.5841 0.0
H1369 H 0.95499 0.4267 0.45446 0.0
H1370 H 0.02563 0.4518 0.41366 0.0
H1371 H 0.96005 0.41348 0.61519 0.0
H1372 H 0.98155 0.44009 0.44445 0.0
H1373 H 0.00685 0.43946 0.60099 0.0
C1374 C 0.02585 0.44735 0.55031 0.0
C1375 C 0.0314 0.45067 0.49728 0.0
C1376 C 0.97686 0.43435 0.48206 0.0
C1377 C 0.00171 0.44061 0.51642 0.0
C1378 C 0.96168 0.42672 0.48793 0.0
C1379 C 0.95525 0.41877 0.53551 0.0
C1380 C 0.98572 0.43408 0.52407 0.0
C1381 C 0.96451 0.41933 0.5776 0.0
C1382 C 0.01101 0.44226 0.56 0.0
C1383 C 0.02181 0.44922 0.45509 0.0
N1384 N 0.9793 0.42676 0.57073 0.0
N1385 N 0.00743 0.44425 0.46557 0.0
H1386 H 0.57197 0.54173 0.60607 0.0
H1387 H 0.52948 0.56692 0.40653 0.0
H1388 H 0.55917 0.52487 0.44336 0.0
H1389 H 0.53264 0.57528 0.57887 0.0
H1390 H 0.53981 0.55092 0.4201 0.0
H1391 H 0.55698 0.55344 0.59841 0.0
C1392 C 0.56589 0.54035 0.56897 0.0
C1393 C 0.56697 0.53244 0.52506 0.0
C1394 C 0.53812 0.55614 0.45505 0.0
C1395 C 0.54992 0.54591 0.51591 0.0
C1396 C 0.53227 0.56532 0.44729 0.0
C1397 C 0.53032 0.57255 0.49157 0.0
C1398 C 0.54224 0.55431 0.50737 0.0
C1399 C 0.534 0.56996 0.54354 0.0
C1400 C 0.55732 0.54703 0.56466 0.0
C1401 C 0.55877 0.53094 0.47813 0.0
N1402 N 0.53995 0.56117 0.54994 0.0
N1403 N 0.55074 0.53777 0.47457 0.0
H1404 H 0.45992 0.03368 0.43359 0.0
H1405 H 0.41299 0.95524 0.57456 0.0
H1406 H 0.44751 0.02806 0.60256 0.0
H1407 H 0.41599 0.96195 0.40121 0.0
H1408 H 0.42931 0.98159 0.58737 0.0
H1409 H 0.44769 0.00707 0.42355 0.0
C1410 C 0.45477 0.02688 0.46878 0.0
C1411 C 0.45461 0.03313 0.51891 0.0
C1412 C 0.42645 0.97726 0.54656 0.0
C1413 C 0.44056 0.00264 0.50749 0.0
C1414 C 0.41716 0.96222 0.53916 0.0
C1415 C 0.413 0.95639 0.4867 0.0
C1416 C 0.43171 0.98652 0.50119 0.0
C1417 C 0.41879 0.96597 0.44239 0.0
C1418 C 0.44774 0.01167 0.4629 0.0
C1419 C 0.4478 0.02373 0.56305 0.0
N1420 N 0.42781 0.98057 0.45066 0.0
N1421 N 0.44097 0.00894 0.55623 0.0
H1422 H 0.57218 0.03001 0.59811 0.0
H1423 H 0.53278 0.95886 0.41423 0.0
H1424 H 0.56223 0.03131 0.42894 0.0
H1425 H 0.53004 0.95697 0.589 0.0
H1426 H 0.54366 0.98549 0.41885 0.0
H1427 H 0.5568 0.00327 0.59631 0.0
C1428 C 0.56666 0.02469 0.56075 0.0
C1429 C 0.56861 0.0329 0.51348 0.0
C1430 C 0.54053 0.97923 0.45616 0.0
C1431 C 0.55113 0.00236 0.51106 0.0
C1432 C 0.53437 0.96404 0.45356 0.0
C1433 C 0.5306 0.9557 0.50132 0.0
C1434 C 0.54316 0.98616 0.50691 0.0
C1435 C 0.53281 0.96298 0.55117 0.0
C1436 C 0.55786 0.00944 0.5598 0.0
C1437 C 0.56111 0.02544 0.4663 0.0
N1438 N 0.53912 0.97783 0.55272 0.0
N1439 N 0.55285 0.01057 0.46612 0.0
H1440 H 0.96009 0.54514 0.59786 0.0
H1441 H 0.02616 0.56747 0.39286 0.0
H1442 H 0.95477 0.52691 0.43692 0.0
H1443 H 0.03259 0.57867 0.56302 0.0
H1444 H -3e-05 0.55188 0.40943 0.0
H1445 H 0.98667 0.55672 0.58766 0.0
C1446 C 0.96449 0.54344 0.56062 0.0
C1447 C 0.95517 0.53517 0.51795 0.0
C1448 C 0.00712 0.55764 0.44327 0.0
C1449 C 0.98556 0.54848 0.50589 0.0
C1450 C 0.02208 0.56659 0.43379 0.0
C1451 C 0.03157 0.57449 0.47654 0.0
C1452 C 0.00155 0.55671 0.49575 0.0
C1453 C 0.02566 0.57282 0.52882 0.0
C1454 C 0.97967 0.55005 0.55485 0.0
C1455 C 0.9615 0.53327 0.47076 0.0
N1456 N 0.011 0.56423 0.53687 0.0
N1457 N 0.97629 0.54001 0.46579 0.0
H1458 H 0.41264 0.4528 0.41311 0.0
H1459 H 0.44334 0.4158 0.61601 0.0
H1460 H 0.406 0.45141 0.58626 0.0
H1461 H 0.4577 0.42665 0.44992 0.0
H1462 H 0.43022 0.42943 0.60732 0.0
H1463 H 0.42963 0.44366 0.42661 0.0
C1464 C 0.4148 0.45063 0.45403 0.0
C1465 C 0.40779 0.45275 0.4986 0.0
C1466 C 0.43639 0.42896 0.57302 0.0
C1467 C 0.42721 0.44222 0.51433 0.0
C1468 C 0.44388 0.42118 0.57792 0.0
C1469 C 0.45151 0.41994 0.53344 0.0
C1470 C 0.43641 0.43541 0.52313 0.0
C1471 C 0.45189 0.42721 0.4852 0.0
C1472 C 0.42456 0.44547 0.46173 0.0
C1473 C 0.41112 0.44988 0.55072 0.0
N1474 N 0.4443 0.43448 0.48115 0.0
N1475 N 0.42049 0.44461 0.55713 0.0
H1476 H 0.19931 0.07028 0.20781 0.0
H1477 H 0.23364 0.15209 0.3032 0.0
H1478 H 0.23572 0.09122 0.31877 0.0
H1479 H 0.19986 0.13076 0.18229 0.0
H1480 H 0.22876 0.12792 0.33483 0.0
H1481 H 0.19347 0.08961 0.22496 0.0
C1482 C 0.20589 0.07885 0.23668 0.0
C1483 C 0.21821 0.07945 0.2609 0.0
C1484 C 0.2221 0.12852 0.30253 0.0
C1485 C 0.21198 0.10188 0.2793 0.0
C1486 C 0.22483 0.14229 0.28472 0.0
C1487 C 0.21736 0.1433 0.23932 0.0
C1488 C 0.21184 0.11585 0.27457 0.0
C1489 C 0.20606 0.13038 0.21669 0.0
C1490 C 0.20257 0.08989 0.24654 0.0
C1491 C 0.22624 0.09056 0.29878 0.0
N1492 N 0.20381 0.11718 0.23394 0.0
N1493 N 0.22325 0.10163 0.30569 0.0
H1494 H 0.83593 0.08507 0.32679 0.0
H1495 H 0.91784 0.12934 0.24132 0.0
H1496 H 0.8586 0.07033 0.2213 0.0
H1497 H 0.89501 0.14757 0.32726 0.0
H1498 H 0.89951 0.10487 0.27172 0.0
H1499 H 0.85964 0.10417 0.36238 0.0
C1500 C 0.84589 0.08551 0.31279 0.0
C1501 C 0.84548 0.0765 0.27015 0.0
C1502 C 0.89869 0.11423 0.28548 0.0
C1503 C 0.87242 0.09818 0.3099 0.0
C1504 C 0.9092 0.12817 0.26829 0.0
C1505 C 0.90765 0.14029 0.28109 0.0
C1506 C 0.88625 0.11241 0.31335 0.0
C1507 C 0.8964 0.13836 0.31623 0.0
C1508 C 0.85941 0.09642 0.33291 0.0
C1509 C 0.85858 0.07738 0.25332 0.0
N1510 N 0.88578 0.12456 0.32979 0.0
N1511 N 0.87155 0.08823 0.27253 0.0
H1512 H 0.91355 0.78579 0.22248 0.0
H1513 H 0.83076 0.75181 0.3033 0.0
H1514 H 0.89119 0.7497 0.33388 0.0
H1515 H 0.85318 0.78425 0.17902 0.0
H1516 H 0.85457 0.75708 0.34006 0.0
H1517 H 0.894 0.7916 0.23302 0.0
C1518 C 0.90461 0.77926 0.25002 0.0
C1519 C 0.9037 0.76702 0.2762 0.0
C1520 C 0.85428 0.76337 0.30579 0.0
C1521 C 0.88107 0.77327 0.28717 0.0
C1522 C 0.84071 0.76041 0.28502 0.0
C1523 C 0.84012 0.76736 0.23735 0.0
C1524 C 0.86718 0.77333 0.27852 0.0
C1525 C 0.85324 0.77842 0.21514 0.0
C1526 C 0.89346 0.78258 0.25612 0.0
C1527 C 0.89212 0.7591 0.31236 0.0
N1528 N 0.86624 0.78089 0.23536 0.0
N1529 N 0.88098 0.7621 0.31564 0.0
H1530 H 0.07346 0.22549 0.68021 0.0
H1531 H 0.12819 0.20458 0.82292 0.0
H1532 H 0.06591 0.20389 0.83545 0.0
H1533 H 0.13802 0.22946 0.67436 0.0
H1534 H 0.10284 0.19898 0.81609 0.0
H1535 H 0.09439 0.22182 0.66603 0.0
C1536 C 0.07604 0.21975 0.7109 0.0
C1537 C 0.06815 0.2153 0.75969 0.0
C1538 C 0.11048 0.2055 0.78455 0.0
C1539 C 0.09207 0.21113 0.74377 0.0
C1540 C 0.12497 0.20872 0.78846 0.0
C1541 C 0.1353 0.2178 0.74984 0.0
C1542 C 0.10632 0.21156 0.74209 0.0
C1543 C 0.13045 0.2226 0.70548 0.0
C1544 C 0.088 0.21768 0.70278 0.0
C1545 C 0.07188 0.20779 0.79773 0.0
N1546 N 0.11633 0.21964 0.70332 0.0
N1547 N 0.0837 0.20612 0.78928 0.0
H1548 H 0.7782 0.85407 0.81603 0.0
H1549 H 0.75656 0.90811 0.67131 0.0
H1550 H 0.75365 0.84382 0.66643 0.0
H1551 H 0.77853 0.91637 0.82611 0.0
H1552 H 0.76014 0.88705 0.65834 0.0
H1553 H 0.78323 0.87927 0.80931 0.0
C1554 C 0.774 0.85716 0.78139 0.0
C1555 C 0.76521 0.84675 0.74236 0.0
C1556 C 0.76437 0.89361 0.69475 0.0
C1557 C 0.7708 0.87557 0.73471 0.0
C1558 C 0.76234 0.90565 0.70216 0.0
C1559 C 0.76696 0.9138 0.75043 0.0
C1560 C 0.77104 0.88975 0.73591 0.0
C1561 C 0.77452 0.9102 0.78876 0.0
C1562 C 0.77689 0.87157 0.77754 0.0
C1563 C 0.76031 0.85145 0.69783 0.0
N1564 N 0.77615 0.89833 0.78097 0.0
N1565 N 0.76296 0.86548 0.69569 0.0
H1566 H 0.12345 0.91966 0.80013 0.0
H1567 H 0.07745 0.83795 0.70094 0.0
H1568 H 0.1402 0.89903 0.69329 0.0
H1569 H 0.06464 0.85851 0.82386 0.0
H1570 H 0.09663 0.86233 0.67099 0.0
H1571 H 0.09855 0.90024 0.78001 0.0
C1572 C 0.12181 0.91117 0.77132 0.0
C1573 C 0.13377 0.91064 0.74928 0.0
C1574 C 0.08933 0.86151 0.70344 0.0
C1575 C 0.10546 0.88811 0.72781 0.0
C1576 C 0.07838 0.84762 0.7204 0.0
C1577 C 0.06981 0.84633 0.76579 0.0
C1578 C 0.09153 0.87401 0.73213 0.0
C1579 C 0.07133 0.8591 0.78955 0.0
C1580 C 0.10761 0.90008 0.75987 0.0
C1581 C 0.13117 0.89963 0.71156 0.0
N1582 N 0.08216 0.87241 0.77298 0.0
N1583 N 0.11724 0.88848 0.70318 0.0
H1584 H 0.9057 0.4237 0.67231 0.0
H1585 H 0.86767 0.46517 0.55477 0.0
H1586 H 0.86898 0.40575 0.56218 0.0
H1587 H 0.90583 0.48531 0.65785 0.0
H1588 H 0.86231 0.44109 0.58706 0.0
H1589 H 0.90045 0.4433 0.69603 0.0
C1590 C 0.89621 0.4236 0.65475 0.0
C1591 C 0.88797 0.41344 0.61426 0.0
C1592 C 0.87168 0.45075 0.60379 0.0
C1593 C 0.88201 0.43569 0.64044 0.0
C1594 C 0.8747 0.46448 0.58537 0.0
C1595 C 0.88737 0.4771 0.60283 0.0
C1596 C 0.88176 0.44964 0.63808 0.0
C1597 C 0.89604 0.47574 0.64301 0.0
C1598 C 0.89324 0.43479 0.66805 0.0
C1599 C 0.87579 0.41366 0.59266 0.0
N1600 N 0.89334 0.46217 0.65811 0.0
N1601 N 0.87333 0.42478 0.60528 0.0
H1602 H 0.50557 0.422 0.6711 0.0
H1603 H 0.58522 0.46257 0.55734 0.0
H1604 H 0.52373 0.40481 0.55501 0.0
H1605 H 0.56737 0.48269 0.6614 0.0
H1606 H 0.5663 0.43845 0.58824 0.0
H1607 H 0.53053 0.44059 0.69789 0.0
C1608 C 0.51483 0.42183 0.65275 0.0
C1609 C 0.51275 0.41224 0.60982 0.0
C1610 C 0.56669 0.44811 0.60556 0.0
C1611 C 0.54108 0.43331 0.63964 0.0
C1612 C 0.57752 0.46186 0.58797 0.0
C1613 C 0.57752 0.47448 0.60593 0.0
C1614 C 0.55545 0.44703 0.63942 0.0
C1615 C 0.56752 0.47311 0.64612 0.0
C1616 C 0.52905 0.43244 0.66786 0.0
C1617 C 0.52498 0.41233 0.58735 0.0
N1618 N 0.55652 0.45954 0.6603 0.0
N1619 N 0.53864 0.42289 0.60185 0.0
H1620 H 0.57118 0.08562 0.6472 0.0
H1621 H 0.52529 0.12105 0.54683 0.0
H1622 H 0.58435 0.11941 0.52598 0.0
H1623 H 0.50858 0.0836 0.65311 0.0
H1624 H 0.55023 0.127 0.56923 0.0
H1625 H 0.55219 0.091 0.67799 0.0
C1626 C 0.57041 0.09453 0.62846 0.0
C1627 C 0.57899 0.10185 0.58314 0.0
C1628 C 0.54116 0.11767 0.58882 0.0
C1629 C 0.55741 0.10796 0.61756 0.0
C1630 C 0.52694 0.11431 0.57607 0.0
C1631 C 0.51499 0.10164 0.5972 0.0
C1632 C 0.54337 0.10796 0.62122 0.0
C1633 C 0.5176 0.09336 0.63549 0.0
C1634 C 0.55955 0.09756 0.64584 0.0
C1635 C 0.57766 0.1133 0.56025 0.0
N1636 N 0.53157 0.0964 0.64508 0.0
N1637 N 0.56688 0.11584 0.57709 0.0
H1638 H 0.73441 0.54188 0.16347 0.0
H1639 H 0.81089 0.571 0.01695 0.0
H1640 H 0.74743 0.56955 0.02154 0.0
H1641 H 0.79732 0.54443 0.16181 0.0
H1642 H 0.78565 0.56579 0.00434 0.0
H1643 H 0.75494 0.53774 0.1493 0.0
C1644 C 0.7415 0.54693 0.12886 0.0
C1645 C 0.73945 0.55635 0.09438 0.0
C1646 C 0.78816 0.56089 0.0383 0.0
C1647 C 0.76315 0.55188 0.07839 0.0
C1648 C 0.80255 0.56384 0.04546 0.0
C1649 C 0.80624 0.55845 0.09127 0.0
C1650 C 0.77749 0.55249 0.07722 0.0
C1651 C 0.79502 0.54912 0.12666 0.0
C1652 C 0.75323 0.54455 0.1207 0.0
C1653 C 0.74877 0.56236 0.04951 0.0
N1654 N 0.7812 0.54662 0.1193 0.0
N1655 N 0.76043 0.56028 0.04342 0.0
H1656 H 0.41311 0.1745 0.02519 0.0
H1657 H 0.44302 0.25173 0.16751 0.0
H1658 H 0.44163 0.1895 0.16493 0.0
H1659 H 0.41343 0.23756 0.03089 0.0
H1660 H 0.44756 0.23151 0.15126 0.0
H1661 H 0.41783 0.1996 0.01135 0.0
C1662 C 0.42062 0.18314 0.05217 0.0
C1663 C 0.4267 0.17991 0.09708 0.0
C1664 C 0.44022 0.2329 0.12423 0.0
C1665 C 0.4321 0.20846 0.08168 0.0
C1666 C 0.43762 0.24444 0.13359 0.0
C1667 C 0.42758 0.24606 0.10127 0.0
C1668 C 0.43246 0.2227 0.08303 0.0
C1669 C 0.42112 0.23653 0.05715 0.0
C1670 C 0.42328 0.19743 0.04435 0.0
C1671 C 0.43642 0.19147 0.1306 0.0
N1672 N 0.42341 0.225 0.05002 0.0
N1673 N 0.43866 0.20518 0.12264 0.0
H1674 H 0.74734 0.17544 0.01604 0.0
H1675 H 0.79366 0.2499 0.17816 0.0
H1676 H 0.73342 0.18685 0.1639 0.0
H1677 H 0.80935 0.23883 0.03411 0.0
H1678 H 0.76922 0.22938 0.16044 0.0
H1679 H 0.7676 0.20077 0.00937 0.0
C1680 C 0.74838 0.18333 0.04651 0.0
C1681 C 0.73892 0.17898 0.09131 0.0
C1682 C 0.77793 0.23152 0.1322 0.0
C1683 C 0.76199 0.20784 0.08401 0.0
C1684 C 0.7919 0.24324 0.14237 0.0
C1685 C 0.80359 0.24584 0.10823 0.0
C1686 C 0.77568 0.22216 0.08811 0.0
C1687 C 0.80066 0.23706 0.06183 0.0
C1688 C 0.75995 0.19777 0.04273 0.0
C1689 C 0.74067 0.18965 0.12935 0.0
N1690 N 0.78702 0.2254 0.05368 0.0
N1691 N 0.7521 0.20353 0.1252 0.0
H1692 H 0.53973 0.73797 0.87862 0.0
H1693 H 0.57844 0.81768 0.00411 0.0
H1694 H 0.57656 0.75428 0.988 0.0
H1695 H 0.54518 0.80138 0.87962 0.0
H1696 H 0.57276 0.79239 0.02213 0.0
H1697 H 0.53606 0.75829 0.90432 0.0
C1698 C 0.54684 0.7457 0.90906 0.0
C1699 C 0.55865 0.74473 0.93037 0.0
C1700 C 0.56648 0.79435 0.9918 0.0
C1701 C 0.55492 0.76828 0.95847 0.0
C1702 C 0.5697 0.80874 0.98158 0.0
C1703 C 0.56252 0.81155 0.93935 0.0
C1704 C 0.55596 0.78284 0.95971 0.0
C1705 C 0.55123 0.79966 0.91156 0.0
C1706 C 0.54478 0.75731 0.92368 0.0
C1707 C 0.56742 0.75481 0.97028 0.0
N1708 N 0.54844 0.78585 0.92175 0.0
N1709 N 0.56564 0.76647 0.98201 0.0
H1710 H 0.16882 0.74927 0.9744 0.0
H1711 H 0.24952 0.79534 0.86721 0.0
H1712 H 0.18864 0.73576 0.85108 0.0
H1713 H 0.22984 0.81214 0.97829 0.0
H1714 H 0.23037 0.77042 0.88851 0.0
H1715 H 0.19334 0.76872 0.002 0.0
C1716 C 0.17838 0.7501 0.95445 0.0
C1717 C 0.17682 0.74124 0.90958 0.0
C1718 C 0.23035 0.7795 0.90927 0.0
C1719 C 0.20465 0.7633 0.94042 0.0
C1720 C 0.2413 0.79371 0.89712 0.0
C1721 C 0.24096 0.8057 0.92011 0.0
C1722 C 0.2187 0.77733 0.94308 0.0
C1723 C 0.2303 0.80309 0.95926 0.0
C1724 C 0.19233 0.76121 0.97002 0.0
C1725 C 0.18944 0.74265 0.88507 0.0
N1726 N 0.21927 0.78914 0.9684 0.0
N1727 N 0.20281 0.75364 0.90023 0.0
H1728 H 0.16348 0.4067 -0.00083 0.0
H1729 H 0.2449 0.44686 0.9011 0.0
H1730 H 0.18321 0.44308 0.88785 0.0
H1731 H 0.22554 0.40773 -0.00092 0.0
H1732 H 0.22529 0.45149 0.92794 0.0
H1733 H 0.18806 0.41257 0.02942 0.0
C1734 C 0.17299 0.41625 0.98266 0.0
C1735 C 0.17148 0.42423 0.9401 0.0
C1736 C 0.22546 0.44206 0.94479 0.0
C1737 C 0.19938 0.4309 0.9738 0.0
C1738 C 0.23668 0.43946 0.92951 0.0
C1739 C 0.23653 0.42673 0.94695 0.0
C1740 C 0.21373 0.43152 0.97584 0.0
C1741 C 0.22584 0.41757 0.98429 0.0
C1742 C 0.18699 0.41957 -0.0003 0.0
C1743 C 0.18403 0.43649 0.91993 0.0
N1744 N 0.21454 0.41989 -0.00376 0.0
N1745 N 0.19747 0.43931 0.93629 0.0
H1746 H 0.41717 0.90531 0.34782 0.0
H1747 H 0.45977 0.87012 0.48437 0.0
H1748 H 0.40038 0.87251 0.47381 0.0
H1749 H 0.47882 0.90454 0.36483 0.0
H1750 H 0.43543 0.86504 0.45705 0.0
H1751 H 0.43682 0.89968 0.33096 0.0
C1752 C 0.41739 0.89664 0.37083 0.0
C1753 C 0.40747 0.88965 0.41333 0.0
C1754 C 0.44488 0.87352 0.43586 0.0
C1755 C 0.42975 0.8832 0.39453 0.0
C1756 C 0.45876 0.87639 0.45147 0.0
C1757 C 0.47122 0.88798 0.42766 0.0
C1758 C 0.44352 0.88265 0.39753 0.0
C1759 C 0.4694 0.89562 0.38459 0.0
C1760 C 0.4286 0.89345 0.36131 0.0
C1761 C 0.4081 0.87844 0.44169 0.0
N1762 N 0.45577 0.89311 0.37187 0.0
N1763 N 0.41921 0.87573 0.43237 0.0
H1764 H 0.08528 0.5692 0.34241 0.0
H1765 H 0.11156 0.5203 0.49689 0.0
H1766 H 0.11023 0.58141 0.4913 0.0
H1767 H 0.08432 0.50604 0.35362 0.0
H1768 H 0.11646 0.54521 0.48129 0.0
H1769 H 0.08999 0.54875 0.33229 0.0
C1770 C 0.09199 0.56776 0.37237 0.0
C1771 C 0.09706 0.57676 0.4185 0.0
C1772 C 0.10958 0.5367 0.45274 0.0
C1773 C 0.10243 0.55346 0.4073 0.0
C1774 C 0.10676 0.52246 0.4617 0.0
C1775 C 0.09723 0.51104 0.42727 0.0
C1776 C 0.10261 0.53949 0.40957 0.0
C1777 C 0.09157 0.51451 0.38163 0.0
C1778 C 0.09465 0.55607 0.36663 0.0
C1779 C 0.10581 0.57451 0.45579 0.0
N1780 N 0.0941 0.5284 0.3747 0.0
N1781 N 0.10804 0.56296 0.44977 0.0
H1782 H 0.47375 0.56964 0.35427 0.0
H1783 H 0.39653 0.52348 0.4955 0.0
H1784 H 0.45933 0.58315 0.49563 0.0
H1785 H 0.41093 0.50749 0.36137 0.0
H1786 H 0.41661 0.54819 0.47802 0.0
H1787 H 0.44847 0.54993 0.33917 0.0
C1788 C 0.46521 0.56867 0.38136 0.0
C1789 C 0.46864 0.57774 0.42712 0.0
C1790 C 0.41528 0.53935 0.45174 0.0
C1791 C 0.43987 0.55534 0.41024 0.0
C1792 C 0.40382 0.52524 0.46178 0.0
C1793 C 0.40235 0.51342 0.43072 0.0
C1794 C 0.42555 0.5416 0.41116 0.0
C1795 C 0.41185 0.51631 0.38677 0.0
C1796 C 0.45081 0.55741 0.3728 0.0
C1797 C 0.4572 0.57612 0.46067 0.0
N1798 N 0.42331 0.5301 0.37905 0.0
N1799 N 0.44337 0.56499 0.45201 0.0
loop_
_geom_bond_atom_site_label_1
_geom_bond_atom_site_label_2
_geom_bond_distance
_geom_bond_site_symmetry_2
_ccdc_geom_bond_type
C0 O1 1.306 . S
C0 O3 1.160 . S
O1 C0 1.306 . S
O1 Cd2 2.228 . S
Cd2 O1 2.228 . S
Cd2 O6 2.273 . S
Cd2 O10 2.277 . S
O3 C0 1.160 . S
O3 Cd4 2.203 . S
Cd4 O3 2.203 . S
Cd4 O6 2.411 . S
Cd4 O7 2.333 . S
Cd4 O8 2.352 . S
Cd4 O12 2.277 . S
Cd4 O13 2.356 . S
C5 O10 1.209 . S
C5 O12 1.226 . S
O6 Cd2 2.273 . S
O6 Cd4 2.411 . S
O6 C9 1.320 . S
O7 Cd4 2.333 . S
O7 C9 1.214 . S
O8 Cd4 2.352 . S
O8 C11 1.258 . S
C9 O6 1.320 . S
C9 O7 1.214 . S
O10 Cd2 2.277 . S
O10 C5 1.209 . S
C11 O8 1.258 . S
C11 O13 1.282 . S
O12 Cd4 2.277 . S
O12 C5 1.226 . S
O13 Cd4 2.356 . S
O13 C11 1.282 . S
C14 O15 1.306 . S
C14 O17 1.160 . S
O15 C14 1.306 . S
O15 Cd16 2.228 . S
Cd16 O15 2.228 . S
Cd16 O20 2.273 . S
Cd16 O24 2.277 . S
O17 C14 1.160 . S
O17 Cd18 2.203 . S
Cd18 O17 2.203 . S
Cd18 O20 2.411 . S
Cd18 O21 2.333 . S
Cd18 O22 2.352 . S
Cd18 O26 2.277 . S
Cd18 O27 2.356 . S
C19 O24 1.209 . S
C19 O26 1.226 . S
O20 Cd16 2.273 . S
O20 Cd18 2.411 . S
O20 C23 1.320 . S
O21 Cd18 2.333 . S
O21 C23 1.214 . S
O22 Cd18 2.352 . S
O22 C25 1.258 . S
C23 O20 1.320 . S
C23 O21 1.214 . S
O24 Cd16 2.277 . S
O24 C19 1.209 . S
C25 O22 1.258 . S
C25 O27 1.282 . S
O26 Cd18 2.277 . S
O26 C19 1.226 . S
O27 Cd18 2.356 . S
O27 C25 1.282 . S
C28 O29 1.306 . S
C28 O31 1.160 . S
O29 C28 1.306 . S
O29 Cd30 2.228 . S
Cd30 O29 2.228 . S
Cd30 O34 2.273 . S
Cd30 O38 2.277 . S
O31 C28 1.160 . S
O31 Cd32 2.203 . S
Cd32 O31 2.203 . S
Cd32 O34 2.411 . S
Cd32 O35 2.333 . S
Cd32 O36 2.352 . S
Cd32 O40 2.277 . S
Cd32 O41 2.356 . S
C33 O38 1.209 . S
C33 O40 1.226 . S
O34 Cd30 2.273 . S
O34 Cd32 2.411 . S
O34 C37 1.320 . S
O35 Cd32 2.333 . S
O35 C37 1.214 . S
O36 Cd32 2.352 . S
O36 C39 1.258 . S
C37 O34 1.320 . S
C37 O35 1.214 . S
O38 Cd30 2.277 . S
O38 C33 1.209 . S
C39 O36 1.258 . S
C39 O41 1.282 . S
O40 Cd32 2.277 . S
O40 C33 1.226 . S
O41 Cd32 2.356 . S
O41 C39 1.282 . S
C42 O43 1.306 . S
C42 O45 1.160 . S
O43 C42 1.306 . S
O43 Cd44 2.228 . S
Cd44 O43 2.228 . S
Cd44 O48 2.273 . S
Cd44 O52 2.277 . S
O45 C42 1.160 . S
O45 Cd46 2.203 . S
Cd46 O45 2.203 . S
Cd46 O48 2.411 . S
Cd46 O49 2.333 . S
Cd46 O50 2.352 . S
Cd46 O54 2.277 . S
Cd46 O55 2.356 . S
C47 O52 1.209 . S
C47 O54 1.226 . S
O48 Cd44 2.273 . S
O48 Cd46 2.411 . S
O48 C51 1.320 . S
O49 Cd46 2.333 . S
O49 C51 1.214 . S
O50 Cd46 2.352 . S
O50 C53 1.258 . S
C51 O48 1.320 . S
C51 O49 1.214 . S
O52 Cd44 2.277 . S
O52 C47 1.209 . S
C53 O50 1.258 . S
C53 O55 1.282 . S
O54 Cd46 2.277 . S
O54 C47 1.226 . S
O55 Cd46 2.356 . S
O55 C53 1.282 . S
C56 O57 1.306 . S
C56 O59 1.160 . S
O57 C56 1.306 . S
O57 Cd58 2.228 . S
Cd58 O57 2.228 . S
Cd58 O62 2.273 . S
Cd58 O66 2.277 . S
O59 C56 1.160 . S
O59 Cd60 2.203 . S
Cd60 O59 2.203 . S
Cd60 O62 2.411 . S
Cd60 O63 2.333 . S
Cd60 O64 2.352 . S
Cd60 O68 2.277 . S
Cd60 O69 2.356 . S
C61 O66 1.209 . S
C61 O68 1.226 . S
O62 Cd58 2.273 . S
O62 Cd60 2.411 . S
O62 C65 1.320 . S
O63 Cd60 2.333 . S
O63 C65 1.214 . S
O64 Cd60 2.352 . S
O64 C67 1.258 . S
C65 O62 1.320 . S
C65 O63 1.214 . S
O66 Cd58 2.277 . S
O66 C61 1.209 . S
C67 O64 1.258 . S
C67 O69 1.282 . S
O68 Cd60 2.277 . S
O68 C61 1.226 . S
O69 Cd60 2.356 . S
O69 C67 1.282 . S
C70 O71 1.306 . S
C70 O73 1.160 . S
O71 C70 1.306 . S
O71 Cd72 2.228 . S
Cd72 O71 2.228 . S
Cd72 O76 2.273 . S
Cd72 O80 2.277 . S
O73 C70 1.160 . S
O73 Cd74 2.203 . S
Cd74 O73 2.203 . S
Cd74 O76 2.411 . S
Cd74 O77 2.333 . S
Cd74 O78 2.352 . S
Cd74 O82 2.277 . S
Cd74 O83 2.356 . S
C75 O80 1.209 . S
C75 O82 1.226 . S
O76 Cd72 2.273 . S
O76 Cd74 2.411 . S
O76 C79 1.320 . S
O77 Cd74 2.333 . S
O77 C79 1.214 . S
O78 Cd74 2.352 . S
O78 C81 1.258 . S
C79 O76 1.320 . S
C79 O77 1.214 . S
O80 Cd72 2.277 . S
O80 C75 1.209 . S
C81 O78 1.258 . S
C81 O83 1.282 . S
O82 Cd74 2.277 . S
O82 C75 1.226 . S
O83 Cd74 2.356 . S
O83 C81 1.282 . S
C84 O85 1.306 . S
C84 O87 1.160 . S
O85 C84 1.306 . S
O85 Cd86 2.228 . S
Cd86 O85 2.228 . S
Cd86 O90 2.273 . S
Cd86 O94 2.277 . S
O87 C84 1.160 . S
O87 Cd88 2.203 . S
Cd88 O87 2.203 . S
Cd88 O90 2.411 . S
Cd88 O91 2.333 . S
Cd88 O92 2.352 . S
Cd88 O96 2.277 . S
Cd88 O97 2.356 . S
C89 O94 1.209 . S
C89 O96 1.226 . S
O90 Cd86 2.273 . S
O90 Cd88 2.411 . S
O90 C93 1.320 . S
O91 Cd88 2.333 . S
O91 C93 1.214 . S
O92 Cd88 2.352 . S
O92 C95 1.258 . S
C93 O90 1.320 . S
C93 O91 1.214 . S
O94 Cd86 2.277 . S
O94 C89 1.209 . S
C95 O92 1.258 . S
C95 O97 1.282 . S
O96 Cd88 2.277 . S
O96 C89 1.226 . S
O97 Cd88 2.356 . S
O97 C95 1.282 . S
C98 O99 1.306 . S
C98 O101 1.160 . S
O99 C98 1.306 . S
O99 Cd100 2.228 . S
Cd100 O99 2.228 . S
Cd100 O104 2.273 . S
Cd100 O108 2.277 . S
O101 C98 1.160 . S
O101 Cd102 2.203 . S
Cd102 O101 2.203 . S
Cd102 O104 2.411 . S
Cd102 O105 2.333 . S
Cd102 O106 2.352 . S
Cd102 O110 2.277 . S
Cd102 O111 2.356 . S
C103 O108 1.209 . S
C103 O110 1.226 . S
O104 Cd100 2.273 . S
O104 Cd102 2.411 . S
O104 C107 1.320 . S
O105 Cd102 2.333 . S
O105 C107 1.214 . S
O106 Cd102 2.352 . S
O106 C109 1.258 . S
C107 O104 1.320 . S
C107 O105 1.214 . S
O108 Cd100 2.277 . S
O108 C103 1.209 . S
C109 O106 1.258 . S
C109 O111 1.282 . S
O110 Cd102 2.277 . S
O110 C103 1.226 . S
O111 Cd102 2.356 . S
O111 C109 1.282 . S
C112 O113 1.306 . S
C112 O115 1.160 . S
O113 C112 1.306 . S
O113 Cd114 2.228 . S
Cd114 O113 2.228 . S
Cd114 O118 2.273 . S
Cd114 O122 2.277 . S
O115 C112 1.160 . S
O115 Cd116 2.203 . S
Cd116 O115 2.203 . S
Cd116 O118 2.411 . S
Cd116 O119 2.333 . S
Cd116 O120 2.352 . S
Cd116 O124 2.277 . S
Cd116 O125 2.356 . S
C117 O122 1.209 . S
C117 O124 1.226 . S
O118 Cd114 2.273 . S
O118 Cd116 2.411 . S
O118 C121 1.320 . S
O119 Cd116 2.333 . S
O119 C121 1.214 . S
O120 Cd116 2.352 . S
O120 C123 1.258 . S
C121 O118 1.320 . S
C121 O119 1.214 . S
O122 Cd114 2.277 . S
O122 C117 1.209 . S
C123 O120 1.258 . S
C123 O125 1.282 . S
O124 Cd116 2.277 . S
O124 C117 1.226 . S
O125 Cd116 2.356 . S
O125 C123 1.282 . S
C126 O127 1.306 . S
C126 O129 1.160 . S
O127 C126 1.306 . S
O127 Cd128 2.228 . S
Cd128 O127 2.228 . S
Cd128 O132 2.273 . S
Cd128 O136 2.277 . S
O129 C126 1.160 . S
O129 Cd130 2.203 . S
Cd130 O129 2.203 . S
Cd130 O132 2.411 . S
Cd130 O133 2.333 . S
Cd130 O134 2.352 . S
Cd130 O138 2.277 . S
Cd130 O139 2.356 . S
C131 O136 1.209 . S
C131 O138 1.226 . S
O132 Cd128 2.273 . S
O132 Cd130 2.411 . S
O132 C135 1.320 . S
O133 Cd130 2.333 . S
O133 C135 1.214 . S
O134 Cd130 2.352 . S
O134 C137 1.258 . S
C135 O132 1.320 . S
C135 O133 1.214 . S
O136 Cd128 2.277 . S
O136 C131 1.209 . S
C137 O134 1.258 . S
C137 O139 1.282 . S
O138 Cd130 2.277 . S
O138 C131 1.226 . S
O139 Cd130 2.356 . S
O139 C137 1.282 . S
C140 O141 1.306 . S
C140 O143 1.160 . S
O141 C140 1.306 . S
O141 Cd142 2.228 . S
Cd142 O141 2.228 . S
Cd142 O146 2.273 . S
Cd142 O150 2.277 . S
O143 C140 1.160 . S
O143 Cd144 2.203 . S
Cd144 O143 2.203 . S
Cd144 O146 2.411 . S
Cd144 O147 2.333 . S
Cd144 O148 2.352 . S
Cd144 O152 2.277 . S
Cd144 O153 2.356 . S
C145 O150 1.209 . S
C145 O152 1.226 . S
O146 Cd142 2.273 . S
O146 Cd144 2.411 . S
O146 C149 1.320 . S
O147 Cd144 2.333 . S
O147 C149 1.214 . S
O148 Cd144 2.352 . S
O148 C151 1.258 . S
C149 O146 1.320 . S
C149 O147 1.214 . S
O150 Cd142 2.277 . S
O150 C145 1.209 . S
C151 O148 1.258 . S
C151 O153 1.282 . S
O152 Cd144 2.277 . S
O152 C145 1.226 . S
O153 Cd144 2.356 . S
O153 C151 1.282 . S
C154 O155 1.306 . S
C154 O157 1.160 . S
O155 C154 1.306 . S
O155 Cd156 2.228 . S
Cd156 O155 2.228 . S
Cd156 O160 2.273 . S
Cd156 O164 2.277 . S
O157 C154 1.160 . S
O157 Cd158 2.203 . S
Cd158 O157 2.203 . S
Cd158 O160 2.411 . S
Cd158 O161 2.333 . S
Cd158 O162 2.352 . S
Cd158 O166 2.277 . S
Cd158 O167 2.356 . S
C159 O164 1.209 . S
C159 O166 1.226 . S
O160 Cd156 2.273 . S
O160 Cd158 2.411 . S
O160 C163 1.320 . S
O161 Cd158 2.333 . S
O161 C163 1.214 . S
O162 Cd158 2.352 . S
O162 C165 1.258 . S
C163 O160 1.320 . S
C163 O161 1.214 . S
O164 Cd156 2.277 . S
O164 C159 1.209 . S
C165 O162 1.258 . S
C165 O167 1.282 . S
O166 Cd158 2.277 . S
O166 C159 1.226 . S
O167 Cd158 2.356 . S
O167 C165 1.282 . S
C168 O169 1.306 . S
C168 O171 1.160 . S
O169 C168 1.306 . S
O169 Cd170 2.228 . S
Cd170 O169 2.228 . S
Cd170 O174 2.273 . S
Cd170 O178 2.277 . S
O171 C168 1.160 . S
O171 Cd172 2.203 . S
Cd172 O171 2.203 . S
Cd172 O174 2.411 . S
Cd172 O175 2.333 . S
Cd172 O176 2.352 . S
Cd172 O180 2.277 . S
Cd172 O181 2.356 . S
C173 O178 1.209 . S
C173 O180 1.226 . S
O174 Cd170 2.273 . S
O174 Cd172 2.411 . S
O174 C177 1.320 . S
O175 Cd172 2.333 . S
O175 C177 1.214 . S
O176 Cd172 2.352 . S
O176 C179 1.258 . S
C177 O174 1.320 . S
C177 O175 1.214 . S
O178 Cd170 2.277 . S
O178 C173 1.209 . S
C179 O176 1.258 . S
C179 O181 1.282 . S
O180 Cd172 2.277 . S
O180 C173 1.226 . S
O181 Cd172 2.356 . S
O181 C179 1.282 . S
C182 O183 1.306 . S
C182 O185 1.160 . S
O183 C182 1.306 . S
O183 Cd184 2.228 . S
Cd184 O183 2.228 . S
Cd184 O188 2.273 . S
Cd184 O192 2.277 . S
O185 C182 1.160 . S
O185 Cd186 2.203 . S
Cd186 O185 2.203 . S
Cd186 O188 2.411 . S
Cd186 O189 2.333 . S
Cd186 O190 2.352 . S
Cd186 O194 2.277 . S
Cd186 O195 2.356 . S
C187 O192 1.209 . S
C187 O194 1.226 . S
O188 Cd184 2.273 . S
O188 Cd186 2.411 . S
O188 C191 1.320 . S
O189 Cd186 2.333 . S
O189 C191 1.214 . S
O190 Cd186 2.352 . S
O190 C193 1.258 . S
C191 O188 1.320 . S
C191 O189 1.214 . S
O192 Cd184 2.277 . S
O192 C187 1.209 . S
C193 O190 1.258 . S
C193 O195 1.282 . S
O194 Cd186 2.277 . S
O194 C187 1.226 . S
O195 Cd186 2.356 . S
O195 C193 1.282 . S
C196 O197 1.306 . S
C196 O199 1.160 . S
O197 C196 1.306 . S
O197 Cd198 2.228 . S
Cd198 O197 2.228 . S
Cd198 O202 2.273 . S
Cd198 O206 2.277 . S
O199 C196 1.160 . S
O199 Cd200 2.203 . S
Cd200 O199 2.203 . S
Cd200 O202 2.411 . S
Cd200 O203 2.333 . S
Cd200 O204 2.352 . S
Cd200 O208 2.277 . S
Cd200 O209 2.356 . S
C201 O206 1.209 . S
C201 O208 1.226 . S
O202 Cd198 2.273 . S
O202 Cd200 2.411 . S
O202 C205 1.320 . S
O203 Cd200 2.333 . S
O203 C205 1.214 . S
O204 Cd200 2.352 . S
O204 C207 1.258 . S
C205 O202 1.320 . S
C205 O203 1.214 . S
O206 Cd198 2.277 . S
O206 C201 1.209 . S
C207 O204 1.258 . S
C207 O209 1.282 . S
O208 Cd200 2.277 . S
O208 C201 1.226 . S
O209 Cd200 2.356 . S
O209 C207 1.282 . S
C210 O211 1.306 . S
C210 O213 1.160 . S
O211 C210 1.306 . S
O211 Cd212 2.228 . S
Cd212 O211 2.228 . S
Cd212 O216 2.273 . S
Cd212 O220 2.277 . S
O213 C210 1.160 . S
O213 Cd214 2.203 . S
Cd214 O213 2.203 . S
Cd214 O216 2.411 . S
Cd214 O217 2.333 . S
Cd214 O218 2.352 . S
Cd214 O222 2.277 . S
Cd214 O223 2.356 1_554 S
C215 O220 1.209 . S
C215 O222 1.226 . S
O216 Cd212 2.273 . S
O216 Cd214 2.411 . S
O216 C219 1.320 . S
O217 Cd214 2.333 . S
O217 C219 1.214 . S
O218 Cd214 2.352 . S
O218 C221 1.258 1_554 S
C219 O216 1.320 . S
C219 O217 1.214 . S
O220 Cd212 2.277 . S
O220 C215 1.209 . S
C221 O218 1.258 1_556 S
C221 O223 1.282 . S
O222 Cd214 2.277 . S
O222 C215 1.226 . S
O223 Cd214 2.356 1_556 S
O223 C221 1.282 . S
C224 O225 1.306 . S
C224 O227 1.160 . S
O225 C224 1.306 . S
O225 Cd226 2.228 . S
Cd226 O225 2.228 . S
Cd226 O230 2.273 . S
Cd226 O234 2.277 . S
O227 C224 1.160 . S
O227 Cd228 2.203 . S
Cd228 O227 2.203 . S
Cd228 O230 2.411 . S
Cd228 O231 2.333 . S
Cd228 O232 2.352 . S
Cd228 O236 2.277 . S
Cd228 O237 2.356 1_554 S
C229 O234 1.209 . S
C229 O236 1.226 . S
O230 Cd226 2.273 . S
O230 Cd228 2.411 . S
O230 C233 1.320 . S
O231 Cd228 2.333 . S
O231 C233 1.214 . S
O232 Cd228 2.352 . S
O232 C235 1.258 1_554 S
C233 O230 1.320 . S
C233 O231 1.214 . S
O234 Cd226 2.277 . S
O234 C229 1.209 . S
C235 O232 1.258 1_556 S
C235 O237 1.282 . S
O236 Cd228 2.277 . S
O236 C229 1.226 . S
O237 Cd228 2.356 1_556 S
O237 C235 1.282 . S
C238 O239 1.306 . S
C238 O241 1.160 . S
O239 C238 1.306 . S
O239 Cd240 2.228 . S
Cd240 O239 2.228 . S
Cd240 O244 2.273 . S
Cd240 O248 2.277 . S
O241 C238 1.160 . S
O241 Cd242 2.203 . S
Cd242 O241 2.203 . S
Cd242 O244 2.411 . S
Cd242 O245 2.333 . S
Cd242 O246 2.352 . S
Cd242 O250 2.277 . S
Cd242 O251 2.356 1_554 S
C243 O248 1.209 . S
C243 O250 1.226 . S
O244 Cd240 2.273 . S
O244 Cd242 2.411 . S
O244 C247 1.320 . S
O245 Cd242 2.333 . S
O245 C247 1.214 . S
O246 Cd242 2.352 . S
O246 C249 1.258 1_554 S
C247 O244 1.320 . S
C247 O245 1.214 . S
O248 Cd240 2.277 . S
O248 C243 1.209 . S
C249 O246 1.258 1_556 S
C249 O251 1.282 . S
O250 Cd242 2.277 . S
O250 C243 1.226 . S
O251 Cd242 2.356 1_556 S
O251 C249 1.282 . S
C252 O253 1.306 . S
C252 O255 1.160 . S
O253 C252 1.306 . S
O253 Cd254 2.228 . S
Cd254 O253 2.228 . S
Cd254 O258 2.273 . S
Cd254 O262 2.277 . S
O255 C252 1.160 . S
O255 Cd256 2.203 . S
Cd256 O255 2.203 . S
Cd256 O258 2.411 . S
Cd256 O259 2.333 . S
Cd256 O260 2.352 . S
Cd256 O264 2.277 . S
Cd256 O265 2.356 1_554 S
C257 O262 1.209 . S
C257 O264 1.226 . S
O258 Cd254 2.273 . S
O258 Cd256 2.411 . S
O258 C261 1.320 . S
O259 Cd256 2.333 . S
O259 C261 1.214 . S
O260 Cd256 2.352 . S
O260 C263 1.258 1_554 S
C261 O258 1.320 . S
C261 O259 1.214 . S
O262 Cd254 2.277 . S
O262 C257 1.209 . S
C263 O260 1.258 1_556 S
C263 O265 1.282 . S
O264 Cd256 2.277 . S
O264 C257 1.226 . S
O265 Cd256 2.356 1_556 S
O265 C263 1.282 . S
C266 O267 1.306 . S
C266 O269 1.160 . S
O267 C266 1.306 . S
O267 Cd268 2.228 . S
Cd268 O267 2.228 . S
Cd268 O272 2.273 . S
Cd268 O276 2.277 . S
O269 C266 1.160 . S
O269 Cd270 2.203 . S
Cd270 O269 2.203 . S
Cd270 O272 2.411 . S
Cd270 O273 2.333 . S
Cd270 O274 2.352 . S
Cd270 O278 2.277 . S
Cd270 O279 2.356 1_554 S
C271 O276 1.209 . S
C271 O278 1.226 . S
O272 Cd268 2.273 . S
O272 Cd270 2.411 . S
O272 C275 1.320 . S
O273 Cd270 2.333 . S
O273 C275 1.214 . S
O274 Cd270 2.352 . S
O274 C277 1.258 1_554 S
C275 O272 1.320 . S
C275 O273 1.214 . S
O276 Cd268 2.277 . S
O276 C271 1.209 . S
C277 O274 1.258 1_556 S
C277 O279 1.282 . S
O278 Cd270 2.277 . S
O278 C271 1.226 . S
O279 Cd270 2.356 1_556 S
O279 C277 1.282 . S
C280 O281 1.306 . S
C280 O283 1.160 . S
O281 C280 1.306 . S
O281 Cd282 2.228 . S
Cd282 O281 2.228 . S
Cd282 O286 2.273 . S
Cd282 O290 2.277 . S
O283 C280 1.160 . S
O283 Cd284 2.203 . S
Cd284 O283 2.203 . S
Cd284 O286 2.411 . S
Cd284 O287 2.333 . S
Cd284 O288 2.352 . S
Cd284 O292 2.277 . S
Cd284 O293 2.356 1_554 S
C285 O290 1.209 . S
C285 O292 1.226 . S
O286 Cd282 2.273 . S
O286 Cd284 2.411 . S
O286 C289 1.320 . S
O287 Cd284 2.333 . S
O287 C289 1.214 . S
O288 Cd284 2.352 . S
O288 C291 1.258 1_554 S
C289 O286 1.320 . S
C289 O287 1.214 . S
O290 Cd282 2.277 . S
O290 C285 1.209 . S
C291 O288 1.258 1_556 S
C291 O293 1.282 . S
O292 Cd284 2.277 . S
O292 C285 1.226 . S
O293 Cd284 2.356 1_556 S
O293 C291 1.282 . S
C294 O295 1.306 . S
C294 O297 1.160 . S
O295 C294 1.306 . S
O295 Cd296 2.228 . S
Cd296 O295 2.228 . S
Cd296 O300 2.273 . S
Cd296 O304 2.277 . S
O297 C294 1.160 . S
O297 Cd298 2.203 . S
Cd298 O297 2.203 . S
Cd298 O300 2.411 . S
Cd298 O301 2.333 . S
Cd298 O302 2.352 . S
Cd298 O306 2.277 . S
Cd298 O307 2.356 . S
C299 O304 1.209 . S
C299 O306 1.226 . S
O300 Cd296 2.273 . S
O300 Cd298 2.411 . S
O300 C303 1.320 . S
O301 Cd298 2.333 . S
O301 C303 1.214 . S
O302 Cd298 2.352 . S
O302 C305 1.258 . S
C303 O300 1.320 . S
C303 O301 1.214 . S
O304 Cd296 2.277 . S
O304 C299 1.209 . S
C305 O302 1.258 . S
C305 O307 1.282 . S
O306 Cd298 2.277 . S
O306 C299 1.226 . S
O307 Cd298 2.356 . S
O307 C305 1.282 . S
C308 O309 1.306 . S
C308 O311 1.160 . S
O309 C308 1.306 . S
O309 Cd310 2.228 . S
Cd310 O309 2.228 . S
Cd310 O314 2.273 . S
Cd310 O318 2.277 . S
O311 C308 1.160 . S
O311 Cd312 2.203 . S
Cd312 O311 2.203 . S
Cd312 O314 2.411 . S
Cd312 O315 2.333 . S
Cd312 O316 2.352 . S
Cd312 O320 2.277 . S
Cd312 O321 2.356 . S
C313 O318 1.209 . S
C313 O320 1.226 . S
O314 Cd310 2.273 . S
O314 Cd312 2.411 . S
O314 C317 1.320 . S
O315 Cd312 2.333 . S
O315 C317 1.214 . S
O316 Cd312 2.352 . S
O316 C319 1.258 . S
C317 O314 1.320 . S
C317 O315 1.214 . S
O318 Cd310 2.277 . S
O318 C313 1.209 . S
C319 O316 1.258 . S
C319 O321 1.282 . S
O320 Cd312 2.277 . S
O320 C313 1.226 . S
O321 Cd312 2.356 . S
O321 C319 1.282 . S
C322 O323 1.306 . S
C322 O325 1.160 . S
O323 C322 1.306 . S
O323 Cd324 2.228 . S
Cd324 O323 2.228 . S
Cd324 O328 2.273 . S
Cd324 O332 2.277 . S
O325 C322 1.160 . S
O325 Cd326 2.203 . S
Cd326 O325 2.203 . S
Cd326 O328 2.411 . S
Cd326 O329 2.333 . S
Cd326 O330 2.352 . S
Cd326 O334 2.277 . S
Cd326 O335 2.356 . S
C327 O332 1.209 . S
C327 O334 1.226 . S
O328 Cd324 2.273 . S
O328 Cd326 2.411 . S
O328 C331 1.320 . S
O329 Cd326 2.333 . S
O329 C331 1.214 . S
O330 Cd326 2.352 . S
O330 C333 1.258 . S
C331 O328 1.320 . S
C331 O329 1.214 . S
O332 Cd324 2.277 . S
O332 C327 1.209 . S
C333 O330 1.258 . S
C333 O335 1.282 . S
O334 Cd326 2.277 . S
O334 C327 1.226 . S
O335 Cd326 2.356 . S
O335 C333 1.282 . S
C336 O337 1.306 . S
C336 O339 1.160 . S
O337 C336 1.306 . S
O337 Cd338 2.228 . S
Cd338 O337 2.228 . S
Cd338 O342 2.273 . S
Cd338 O346 2.277 . S
O339 C336 1.160 . S
O339 Cd340 2.203 . S
Cd340 O339 2.203 . S
Cd340 O342 2.411 . S
Cd340 O343 2.333 . S
Cd340 O344 2.352 . S
Cd340 O348 2.277 . S
Cd340 O349 2.356 1_556 S
C341 O346 1.209 . S
C341 O348 1.226 . S
O342 Cd338 2.273 . S
O342 Cd340 2.411 . S
O342 C345 1.320 . S
O343 Cd340 2.333 . S
O343 C345 1.214 . S
O344 Cd340 2.352 . S
O344 C347 1.258 1_556 S
C345 O342 1.320 . S
C345 O343 1.214 . S
O346 Cd338 2.277 . S
O346 C341 1.209 . S
C347 O344 1.258 1_554 S
C347 O349 1.282 . S
O348 Cd340 2.277 . S
O348 C341 1.226 . S
O349 Cd340 2.356 1_554 S
O349 C347 1.282 . S
C350 O351 1.306 . S
C350 O353 1.160 . S
O351 C350 1.306 . S
O351 Cd352 2.228 . S
Cd352 O351 2.228 . S
Cd352 O356 2.273 . S
Cd352 O360 2.277 . S
O353 C350 1.160 . S
O353 Cd354 2.203 . S
Cd354 O353 2.203 . S
Cd354 O356 2.411 . S
Cd354 O357 2.333 . S
Cd354 O358 2.352 . S
Cd354 O362 2.277 . S
Cd354 O363 2.356 1_556 S
C355 O360 1.209 . S
C355 O362 1.226 . S
O356 Cd352 2.273 . S
O356 Cd354 2.411 . S
O356 C359 1.320 . S
O357 Cd354 2.333 . S
O357 C359 1.214 . S
O358 Cd354 2.352 . S
O358 C361 1.258 1_556 S
C359 O356 1.320 . S
C359 O357 1.214 . S
O360 Cd352 2.277 . S
O360 C355 1.209 . S
C361 O358 1.258 1_554 S
C361 O363 1.282 . S
O362 Cd354 2.277 . S
O362 C355 1.226 . S
O363 Cd354 2.356 1_554 S
O363 C361 1.282 . S
C364 O365 1.306 . S
C364 O367 1.160 . S
O365 C364 1.306 . S
O365 Cd366 2.228 . S
Cd366 O365 2.228 . S
Cd366 O370 2.273 . S
Cd366 O374 2.277 . S
O367 C364 1.160 . S
O367 Cd368 2.203 . S
Cd368 O367 2.203 . S
Cd368 O370 2.411 . S
Cd368 O371 2.333 . S
Cd368 O372 2.352 . S
Cd368 O376 2.277 . S
Cd368 O377 2.356 1_556 S
C369 O374 1.209 . S
C369 O376 1.226 . S
O370 Cd366 2.273 . S
O370 Cd368 2.411 . S
O370 C373 1.320 . S
O371 Cd368 2.333 . S
O371 C373 1.214 . S
O372 Cd368 2.352 . S
O372 C375 1.258 1_556 S
C373 O370 1.320 . S
C373 O371 1.214 . S
O374 Cd366 2.277 . S
O374 C369 1.209 . S
C375 O372 1.258 1_554 S
C375 O377 1.282 . S
O376 Cd368 2.277 . S
O376 C369 1.226 . S
O377 Cd368 2.356 1_554 S
O377 C375 1.282 . S
C378 O379 1.306 . S
C378 O381 1.160 . S
O379 C378 1.306 . S
O379 Cd380 2.228 . S
Cd380 O379 2.228 . S
Cd380 O384 2.273 . S
Cd380 O388 2.277 . S
O381 C378 1.160 . S
O381 Cd382 2.203 . S
Cd382 O381 2.203 . S
Cd382 O384 2.411 . S
Cd382 O385 2.333 . S
Cd382 O386 2.352 . S
Cd382 O390 2.277 . S
Cd382 O391 2.356 . S
C383 O388 1.209 . S
C383 O390 1.226 . S
O384 Cd380 2.273 . S
O384 Cd382 2.411 . S
O384 C387 1.320 . S
O385 Cd382 2.333 . S
O385 C387 1.214 . S
O386 Cd382 2.352 . S
O386 C389 1.258 . S
C387 O384 1.320 . S
C387 O385 1.214 . S
O388 Cd380 2.277 . S
O388 C383 1.209 . S
C389 O386 1.258 . S
C389 O391 1.282 . S
O390 Cd382 2.277 . S
O390 C383 1.226 . S
O391 Cd382 2.356 . S
O391 C389 1.282 . S
C392 O393 1.306 . S
C392 O395 1.160 . S
O393 C392 1.306 . S
O393 Cd394 2.228 . S
Cd394 O393 2.228 . S
Cd394 O398 2.273 . S
Cd394 O402 2.277 . S
O395 C392 1.160 . S
O395 Cd396 2.203 . S
Cd396 O395 2.203 . S
Cd396 O398 2.411 . S
Cd396 O399 2.333 . S
Cd396 O400 2.352 . S
Cd396 O404 2.277 . S
Cd396 O405 2.356 . S
C397 O402 1.209 . S
C397 O404 1.226 . S
O398 Cd394 2.273 . S
O398 Cd396 2.411 . S
O398 C401 1.320 . S
O399 Cd396 2.333 . S
O399 C401 1.214 . S
O400 Cd396 2.352 . S
O400 C403 1.258 . S
C401 O398 1.320 . S
C401 O399 1.214 . S
O402 Cd394 2.277 . S
O402 C397 1.209 . S
C403 O400 1.258 . S
C403 O405 1.282 . S
O404 Cd396 2.277 . S
O404 C397 1.226 . S
O405 Cd396 2.356 . S
O405 C403 1.282 . S
C406 O407 1.306 . S
C406 O409 1.160 . S
O407 C406 1.306 . S
O407 Cd408 2.228 . S
Cd408 O407 2.228 . S
Cd408 O412 2.273 . S
Cd408 O416 2.277 . S
O409 C406 1.160 . S
O409 Cd410 2.203 . S
Cd410 O409 2.203 . S
Cd410 O412 2.411 . S
Cd410 O413 2.333 . S
Cd410 O414 2.352 . S
Cd410 O418 2.277 . S
Cd410 O419 2.356 . S
C411 O416 1.209 . S
C411 O418 1.226 . S
O412 Cd408 2.273 . S
O412 Cd410 2.411 . S
O412 C415 1.320 . S
O413 Cd410 2.333 . S
O413 C415 1.214 . S
O414 Cd410 2.352 . S
O414 C417 1.258 . S
C415 O412 1.320 . S
C415 O413 1.214 . S
O416 Cd408 2.277 . S
O416 C411 1.209 . S
C417 O414 1.258 . S
C417 O419 1.282 . S
O418 Cd410 2.277 . S
O418 C411 1.226 . S
O419 Cd410 2.356 . S
O419 C417 1.282 . S
C420 O421 1.306 . S
C420 O423 1.160 . S
O421 C420 1.306 . S
O421 Cd422 2.228 . S
Cd422 O421 2.228 . S
Cd422 O426 2.273 . S
Cd422 O430 2.277 . S
O423 C420 1.160 . S
O423 Cd424 2.203 . S
Cd424 O423 2.203 . S
Cd424 O426 2.411 . S
Cd424 O427 2.333 . S
Cd424 O428 2.352 . S
Cd424 O432 2.277 . S
Cd424 O433 2.356 . S
C425 O430 1.209 . S
C425 O432 1.226 . S
O426 Cd422 2.273 . S
O426 Cd424 2.411 . S
O426 C429 1.320 . S
O427 Cd424 2.333 . S
O427 C429 1.214 . S
O428 Cd424 2.352 . S
O428 C431 1.258 . S
C429 O426 1.320 . S
C429 O427 1.214 . S
O430 Cd422 2.277 . S
O430 C425 1.209 . S
C431 O428 1.258 . S
C431 O433 1.282 . S
O432 Cd424 2.277 . S
O432 C425 1.226 . S
O433 Cd424 2.356 . S
O433 C431 1.282 . S
C434 O435 1.306 . S
C434 O437 1.160 . S
O435 C434 1.306 . S
O435 Cd436 2.228 . S
Cd436 O435 2.228 . S
Cd436 O440 2.273 . S
Cd436 O444 2.277 . S
O437 C434 1.160 . S
O437 Cd438 2.203 . S
Cd438 O437 2.203 . S
Cd438 O440 2.411 . S
Cd438 O441 2.333 . S
Cd438 O442 2.352 . S
Cd438 O446 2.277 . S
Cd438 O447 2.356 . S
C439 O444 1.209 . S
C439 O446 1.226 . S
O440 Cd436 2.273 . S
O440 Cd438 2.411 . S
O440 C443 1.320 . S
O441 Cd438 2.333 . S
O441 C443 1.214 . S
O442 Cd438 2.352 . S
O442 C445 1.258 . S
C443 O440 1.320 . S
C443 O441 1.214 . S
O444 Cd436 2.277 . S
O444 C439 1.209 . S
C445 O442 1.258 . S
C445 O447 1.282 . S
O446 Cd438 2.277 . S
O446 C439 1.226 . S
O447 Cd438 2.356 . S
O447 C445 1.282 . S
C448 O449 1.306 . S
C448 O451 1.160 . S
O449 C448 1.306 . S
O449 Cd450 2.228 . S
Cd450 O449 2.228 . S
Cd450 O454 2.273 . S
Cd450 O458 2.277 . S
O451 C448 1.160 . S
O451 Cd452 2.203 . S
Cd452 O451 2.203 . S
Cd452 O454 2.411 . S
Cd452 O455 2.333 . S
Cd452 O456 2.352 . S
Cd452 O460 2.277 . S
Cd452 O461 2.356 . S
C453 O458 1.209 . S
C453 O460 1.226 . S
O454 Cd450 2.273 . S
O454 Cd452 2.411 . S
O454 C457 1.320 . S
O455 Cd452 2.333 . S
O455 C457 1.214 . S
O456 Cd452 2.352 . S
O456 C459 1.258 . S
C457 O454 1.320 . S
C457 O455 1.214 . S
O458 Cd450 2.277 . S
O458 C453 1.209 . S
C459 O456 1.258 . S
C459 O461 1.282 . S
O460 Cd452 2.277 . S
O460 C453 1.226 . S
O461 Cd452 2.356 . S
O461 C459 1.282 . S
C462 O463 1.306 . S
C462 O465 1.160 . S
O463 C462 1.306 . S
O463 Cd464 2.228 . S
Cd464 O463 2.228 . S
Cd464 O468 2.273 . S
Cd464 O472 2.277 . S
O465 C462 1.160 . S
O465 Cd466 2.203 . S
Cd466 O465 2.203 . S
Cd466 O468 2.411 . S
Cd466 O469 2.333 . S
Cd466 O470 2.352 . S
Cd466 O474 2.277 . S
Cd466 O475 2.356 1_556 S
C467 O472 1.209 . S
C467 O474 1.226 . S
O468 Cd464 2.273 . S
O468 Cd466 2.411 . S
O468 C471 1.320 . S
O469 Cd466 2.333 . S
O469 C471 1.214 . S
O470 Cd466 2.352 . S
O470 C473 1.258 1_556 S
C471 O468 1.320 . S
C471 O469 1.214 . S
O472 Cd464 2.277 . S
O472 C467 1.209 . S
C473 O470 1.258 1_554 S
C473 O475 1.282 . S
O474 Cd466 2.277 . S
O474 C467 1.226 . S
O475 Cd466 2.356 1_554 S
O475 C473 1.282 . S
C476 O477 1.306 . S
C476 O479 1.160 . S
O477 C476 1.306 . S
O477 Cd478 2.228 . S
Cd478 O477 2.228 . S
Cd478 O482 2.273 . S
Cd478 O486 2.277 . S
O479 C476 1.160 . S
O479 Cd480 2.203 . S
Cd480 O479 2.203 . S
Cd480 O482 2.411 . S
Cd480 O483 2.333 . S
Cd480 O484 2.352 . S
Cd480 O488 2.277 . S
Cd480 O489 2.356 1_556 S
C481 O486 1.209 . S
C481 O488 1.226 . S
O482 Cd478 2.273 . S
O482 Cd480 2.411 . S
O482 C485 1.320 . S
O483 Cd480 2.333 . S
O483 C485 1.214 . S
O484 Cd480 2.352 . S
O484 C487 1.258 1_556 S
C485 O482 1.320 . S
C485 O483 1.214 . S
O486 Cd478 2.277 . S
O486 C481 1.209 . S
C487 O484 1.258 1_554 S
C487 O489 1.282 . S
O488 Cd480 2.277 . S
O488 C481 1.226 . S
O489 Cd480 2.356 1_554 S
O489 C487 1.282 . S
C490 O491 1.306 . S
C490 O493 1.160 . S
O491 C490 1.306 . S
O491 Cd492 2.228 . S
Cd492 O491 2.228 . S
Cd492 O496 2.273 . S
Cd492 O500 2.277 . S
O493 C490 1.160 . S
O493 Cd494 2.203 . S
Cd494 O493 2.203 . S
Cd494 O496 2.411 . S
Cd494 O497 2.333 . S
Cd494 O498 2.352 . S
Cd494 O502 2.277 . S
Cd494 O503 2.356 1_556 S
C495 O500 1.209 . S
C495 O502 1.226 . S
O496 Cd492 2.273 . S
O496 Cd494 2.411 . S
O496 C499 1.320 . S
O497 Cd494 2.333 . S
O497 C499 1.214 . S
O498 Cd494 2.352 . S
O498 C501 1.258 1_556 S
C499 O496 1.320 . S
C499 O497 1.214 . S
O500 Cd492 2.277 . S
O500 C495 1.209 . S
C501 O498 1.258 1_554 S
C501 O503 1.282 . S
O502 Cd494 2.277 . S
O502 C495 1.226 . S
O503 Cd494 2.356 1_554 S
O503 C501 1.282 . S
H504 C510 0.930 . S
H505 C514 0.930 . S
H506 C519 0.929 . S
H507 C517 0.929 . S
H508 C512 0.929 1_565 S
H509 C518 0.929 1_545 S
C510 H504 0.930 . S
C510 C511 1.367 . S
C510 C518 1.378 . S
C511 C510 1.367 . S
C511 C519 1.433 . S
C512 H508 0.929 1_545 S
C512 C514 1.378 . S
C512 C516 1.350 . S
C513 C516 1.463 1_565 S
C513 C518 1.350 . S
C513 N521 1.427 . S
C514 H505 0.930 . S
C514 C512 1.378 . S
C514 C515 1.367 . S
C515 C514 1.367 . S
C515 C517 1.433 . S
C516 C512 1.350 . S
C516 C513 1.463 1_545 S
C516 N520 1.427 . S
C517 H507 0.929 . S
C517 C515 1.433 . S
C517 N520 1.384 . S
C518 H509 0.929 1_565 S
C518 C510 1.378 . S
C518 C513 1.350 . S
C519 H506 0.929 . S
C519 C511 1.433 . S
C519 N521 1.384 . S
N520 C516 1.427 . S
N520 C517 1.384 . S
N521 C513 1.427 . S
N521 C519 1.384 . S
H522 C528 0.930 . S
H523 C532 0.930 . S
H524 C537 0.929 . S
H525 C535 0.929 . S
H526 C530 0.926 1_455 S
H527 C536 0.926 1_655 S
C528 H522 0.930 . S
C528 C529 1.367 . S
C528 C536 1.378 . S
C529 C528 1.367 . S
C529 C537 1.433 . S
C530 H526 0.926 1_655 S
C530 C532 1.378 . S
C530 C534 1.350 . S
C531 C534 1.463 1_455 S
C531 C536 1.350 . S
C531 N539 1.427 . S
C532 H523 0.930 . S
C532 C530 1.378 . S
C532 C533 1.367 . S
C533 C532 1.367 . S
C533 C535 1.433 . S
C534 C530 1.350 . S
C534 C531 1.463 1_655 S
C534 N538 1.427 . S
C535 H525 0.929 . S
C535 C533 1.433 . S
C535 N538 1.384 . S
C536 H527 0.926 1_455 S
C536 C528 1.378 . S
C536 C531 1.350 . S
C537 H524 0.929 . S
C537 C529 1.433 . S
C537 N539 1.384 . S
N538 C534 1.427 . S
N538 C535 1.384 . S
N539 C531 1.427 . S
N539 C537 1.384 . S
H540 C546 0.930 . S
H541 C550 0.930 . S
H542 C555 0.929 . S
H543 C553 0.929 . S
H544 C548 0.929 . S
H545 C554 0.929 . S
C546 H540 0.930 . S
C546 C547 1.367 . S
C546 C554 1.378 . S
C547 C546 1.367 . S
C547 C555 1.433 . S
C548 H544 0.929 . S
C548 C550 1.378 . S
C548 C552 1.350 . S
C549 C552 1.463 . S
C549 C554 1.350 . S
C549 N557 1.427 . S
C550 H541 0.930 . S
C550 C548 1.378 . S
C550 C551 1.367 . S
C551 C550 1.367 . S
C551 C553 1.433 . S
C552 C548 1.350 . S
C552 C549 1.463 . S
C552 N556 1.427 . S
C553 H543 0.929 . S
C553 C551 1.433 . S
C553 N556 1.384 . S
C554 H545 0.929 . S
C554 C546 1.378 . S
C554 C549 1.350 . S
C555 H542 0.929 . S
C555 C547 1.433 . S
C555 N557 1.384 . S
N556 C552 1.427 . S
N556 C553 1.384 . S
N557 C549 1.427 . S
N557 C555 1.384 . S
H558 C564 0.930 . S
H559 C568 0.930 . S
H560 C573 0.929 . S
H561 C571 0.929 . S
H562 C566 0.929 . S
H563 C572 0.929 . S
C564 H558 0.930 . S
C564 C565 1.367 . S
C564 C572 1.378 . S
C565 C564 1.367 . S
C565 C573 1.433 . S
C566 H562 0.929 . S
C566 C568 1.378 . S
C566 C570 1.350 . S
C567 C570 1.463 1_565 S
C567 C572 1.350 . S
C567 N575 1.424 1_565 S
C568 H559 0.930 . S
C568 C566 1.378 . S
C568 C569 1.367 . S
C569 C568 1.367 . S
C569 C571 1.433 . S
C570 C566 1.350 . S
C570 C567 1.463 1_545 S
C570 N574 1.424 1_545 S
C571 H561 0.929 . S
C571 C569 1.433 . S
C571 N574 1.374 1_545 S
C572 H563 0.929 . S
C572 C564 1.378 . S
C572 C567 1.350 . S
C573 H560 0.929 . S
C573 C565 1.433 . S
C573 N575 1.374 1_565 S
N574 C570 1.424 1_565 S
N574 C571 1.374 1_565 S
N575 C567 1.424 1_545 S
N575 C573 1.374 1_545 S
H576 C582 0.930 . S
H577 C586 0.930 . S
H578 C591 0.929 . S
H579 C589 0.929 . S
H580 C584 0.929 1_455 S
H581 C590 0.929 1_655 S
C582 H576 0.930 . S
C582 C583 1.367 . S
C582 C590 1.378 . S
C583 C582 1.367 . S
C583 C591 1.433 . S
C584 H580 0.929 1_655 S
C584 C586 1.378 . S
C584 C588 1.350 . S
C585 C588 1.463 1_455 S
C585 C590 1.350 . S
C585 N593 1.427 . S
C586 H577 0.930 . S
C586 C584 1.378 . S
C586 C587 1.367 . S
C587 C586 1.367 . S
C587 C589 1.433 . S
C588 C584 1.350 . S
C588 C585 1.463 1_655 S
C588 N592 1.427 . S
C589 H579 0.929 . S
C589 C587 1.433 . S
C589 N592 1.384 . S
C590 H581 0.929 1_455 S
C590 C582 1.378 . S
C590 C585 1.350 . S
C591 H578 0.929 . S
C591 C583 1.433 . S
C591 N593 1.384 . S
N592 C588 1.427 . S
N592 C589 1.384 . S
N593 C585 1.427 . S
N593 C591 1.384 . S
H594 C600 0.930 . S
H595 C604 0.930 . S
H596 C609 0.929 . S
H597 C607 0.929 . S
H598 C602 0.929 . S
H599 C608 0.929 . S
C600 H594 0.930 . S
C600 C601 1.367 . S
C600 C608 1.378 . S
C601 C600 1.367 . S
C601 C609 1.433 . S
C602 H598 0.929 . S
C602 C604 1.378 . S
C602 C606 1.350 . S
C603 C606 1.463 . S
C603 C608 1.350 . S
C603 N611 1.427 . S
C604 H595 0.930 . S
C604 C602 1.378 . S
C604 C605 1.367 . S
C605 C604 1.367 . S
C605 C607 1.433 . S
C606 C602 1.350 . S
C606 C603 1.463 . S
C606 N610 1.427 . S
C607 H597 0.929 . S
C607 C605 1.433 . S
C607 N610 1.384 . S
C608 H599 0.929 . S
C608 C600 1.378 . S
C608 C603 1.350 . S
C609 H596 0.929 . S
C609 C601 1.433 . S
C609 N611 1.384 . S
N610 C606 1.427 . S
N610 C607 1.384 . S
N611 C603 1.427 . S
N611 C609 1.384 . S
H612 C618 0.930 . S
H613 C622 0.930 . S
H614 C627 0.929 . S
H615 C625 0.929 . S
H616 C620 0.929 . S
H617 C626 0.929 . S
C618 H612 0.930 . S
C618 C619 1.367 . S
C618 C626 1.378 . S
C619 C618 1.367 . S
C619 C627 1.433 . S
C620 H616 0.929 . S
C620 C622 1.378 . S
C620 C624 1.350 . S
C621 C624 1.463 . S
C621 C626 1.350 . S
C621 N629 1.427 . S
C622 H613 0.930 . S
C622 C620 1.378 . S
C622 C623 1.367 . S
C623 C622 1.367 . S
C623 C625 1.433 . S
C624 C620 1.350 . S
C624 C621 1.463 . S
C624 N628 1.427 . S
C625 H615 0.929 . S
C625 C623 1.433 . S
C625 N628 1.384 . S
C626 H617 0.929 . S
C626 C618 1.378 . S
C626 C621 1.350 . S
C627 H614 0.929 . S
C627 C619 1.433 . S
C627 N629 1.384 . S
N628 C624 1.427 . S
N628 C625 1.384 . S
N629 C621 1.427 . S
N629 C627 1.384 . S
H630 C636 0.930 . S
H631 C640 0.930 . S
H632 C645 0.929 . S
H633 C643 0.929 . S
H634 C638 0.929 . S
H635 C644 0.929 . S
C636 H630 0.930 . S
C636 C637 1.367 . S
C636 C644 1.378 . S
C637 C636 1.367 . S
C637 C645 1.433 . S
C638 H634 0.929 . S
C638 C640 1.378 . S
C638 C642 1.350 . S
C639 C642 1.463 . S
C639 C644 1.350 . S
C639 N647 1.427 . S
C640 H631 0.930 . S
C640 C638 1.378 . S
C640 C641 1.367 . S
C641 C640 1.367 . S
C641 C643 1.433 . S
C642 C638 1.350 . S
C642 C639 1.463 . S
C642 N646 1.427 . S
C643 H633 0.929 . S
C643 C641 1.433 . S
C643 N646 1.384 . S
C644 H635 0.929 . S
C644 C636 1.378 . S
C644 C639 1.350 . S
C645 H632 0.929 . S
C645 C637 1.433 . S
C645 N647 1.384 . S
N646 C642 1.427 . S
N646 C643 1.384 . S
N647 C639 1.427 . S
N647 C645 1.384 . S
H648 C654 0.930 . S
H649 C658 0.930 . S
H650 C663 0.929 . S
H651 C661 0.929 . S
H652 C656 0.929 . S
H653 C662 0.929 . S
C654 H648 0.930 . S
C654 C655 1.367 . S
C654 C662 1.378 . S
C655 C654 1.367 . S
C655 C663 1.433 . S
C656 H652 0.929 . S
C656 C658 1.378 . S
C656 C660 1.350 . S
C657 C660 1.463 . S
C657 C662 1.350 . S
C657 N665 1.427 . S
C658 H649 0.930 . S
C658 C656 1.378 . S
C658 C659 1.367 . S
C659 C658 1.367 . S
C659 C661 1.433 . S
C660 C656 1.350 . S
C660 C657 1.463 . S
C660 N664 1.427 . S
C661 H651 0.929 . S
C661 C659 1.433 . S
C661 N664 1.384 . S
C662 H653 0.929 . S
C662 C654 1.378 . S
C662 C657 1.350 . S
C663 H650 0.929 . S
C663 C655 1.433 . S
C663 N665 1.384 . S
N664 C660 1.427 . S
N664 C661 1.384 . S
N665 C657 1.427 . S
N665 C663 1.384 . S
H666 C672 0.930 . S
H667 C676 0.930 . S
H668 C681 0.929 . S
H669 C679 0.929 . S
H670 C674 0.929 . S
H671 C680 0.929 . S
C672 H666 0.930 . S
C672 C673 1.367 . S
C672 C680 1.378 . S
C673 C672 1.367 . S
C673 C681 1.433 . S
C674 H670 0.929 . S
C674 C676 1.378 . S
C674 C678 1.350 . S
C675 C678 1.463 . S
C675 C680 1.350 . S
C675 N683 1.427 . S
C676 H667 0.930 . S
C676 C674 1.378 . S
C676 C677 1.367 . S
C677 C676 1.367 . S
C677 C679 1.433 . S
C678 C674 1.350 . S
C678 C675 1.463 . S
C678 N682 1.427 . S
C679 H669 0.929 . S
C679 C677 1.433 . S
C679 N682 1.384 . S
C680 H671 0.929 . S
C680 C672 1.378 . S
C680 C675 1.350 . S
C681 H668 0.929 . S
C681 C673 1.433 . S
C681 N683 1.384 . S
N682 C678 1.427 . S
N682 C679 1.384 . S
N683 C675 1.427 . S
N683 C681 1.384 . S
H684 C690 0.930 . S
H685 C694 0.930 . S
H686 C699 0.929 . S
H687 C697 0.929 . S
H688 C692 0.929 . S
H689 C698 0.929 . S
C690 H684 0.930 . S
C690 C691 1.367 . S
C690 C698 1.378 . S
C691 C690 1.367 . S
C691 C699 1.433 . S
C692 H688 0.929 . S
C692 C694 1.378 . S
C692 C696 1.350 . S
C693 C696 1.463 . S
C693 C698 1.350 . S
C693 N701 1.427 . S
C694 H685 0.930 . S
C694 C692 1.378 . S
C694 C695 1.367 . S
C695 C694 1.367 . S
C695 C697 1.433 . S
C696 C692 1.350 . S
C696 C693 1.463 . S
C696 N700 1.427 . S
C697 H687 0.929 . S
C697 C695 1.433 . S
C697 N700 1.384 . S
C698 H689 0.929 . S
C698 C690 1.378 . S
C698 C693 1.350 . S
C699 H686 0.929 . S
C699 C691 1.433 . S
C699 N701 1.384 . S
N700 C696 1.427 . S
N700 C697 1.384 . S
N701 C693 1.427 . S
N701 C699 1.384 . S
H702 C708 0.930 . S
H703 C712 0.930 . S
H704 C717 0.929 . S
H705 C715 0.929 . S
H706 C710 0.929 . S
H707 C716 0.929 . S
C708 H702 0.930 . S
C708 C709 1.367 . S
C708 C716 1.378 . S
C709 C708 1.367 . S
C709 C717 1.433 . S
C710 H706 0.929 . S
C710 C712 1.378 . S
C710 C714 1.350 . S
C711 C714 1.463 . S
C711 C716 1.350 . S
C711 N719 1.427 . S
C712 H703 0.930 . S
C712 C710 1.378 . S
C712 C713 1.367 . S
C713 C712 1.367 . S
C713 C715 1.433 . S
C714 C710 1.350 . S
C714 C711 1.463 . S
C714 N718 1.427 . S
C715 H705 0.929 . S
C715 C713 1.433 . S
C715 N718 1.384 . S
C716 H707 0.929 . S
C716 C708 1.378 . S
C716 C711 1.350 . S
C717 H704 0.929 . S
C717 C709 1.433 . S
C717 N719 1.384 . S
N718 C714 1.427 . S
N718 C715 1.384 . S
N719 C711 1.427 . S
N719 C717 1.384 . S
H720 C726 0.930 . S
H721 C730 0.930 . S
H722 C735 0.929 . S
H723 C733 0.929 . S
H724 C728 0.929 . S
H725 C734 0.929 . S
C726 H720 0.930 . S
C726 C727 1.367 . S
C726 C734 1.378 . S
C727 C726 1.367 . S
C727 C735 1.433 . S
C728 H724 0.929 . S
C728 C730 1.378 . S
C728 C732 1.350 . S
C729 C732 1.463 . S
C729 C734 1.350 . S
C729 N737 1.427 . S
C730 H721 0.930 . S
C730 C728 1.378 . S
C730 C731 1.367 . S
C731 C730 1.367 . S
C731 C733 1.433 . S
C732 C728 1.350 . S
C732 C729 1.463 . S
C732 N736 1.427 . S
C733 H723 0.929 . S
C733 C731 1.433 . S
C733 N736 1.384 . S
C734 H725 0.929 . S
C734 C726 1.378 . S
C734 C729 1.350 . S
C735 H722 0.929 . S
C735 C727 1.433 . S
C735 N737 1.384 . S
N736 C732 1.427 . S
N736 C733 1.384 . S
N737 C729 1.427 . S
N737 C735 1.384 . S
H738 C744 0.930 . S
H739 C748 0.930 . S
H740 C753 0.929 . S
H741 C751 0.929 . S
H742 C746 0.929 . S
H743 C752 0.929 . S
C744 H738 0.930 . S
C744 C745 1.367 . S
C744 C752 1.378 . S
C745 C744 1.367 . S
C745 C753 1.433 . S
C746 H742 0.929 . S
C746 C748 1.378 . S
C746 C750 1.350 . S
C747 C750 1.463 . S
C747 C752 1.350 . S
C747 N755 1.427 . S
C748 H739 0.930 . S
C748 C746 1.378 . S
C748 C749 1.367 . S
C749 C748 1.367 . S
C749 C751 1.433 . S
C750 C746 1.350 . S
C750 C747 1.463 . S
C750 N754 1.427 . S
C751 H741 0.929 . S
C751 C749 1.433 . S
C751 N754 1.384 . S
C752 H743 0.929 . S
C752 C744 1.378 . S
C752 C747 1.350 . S
C753 H740 0.929 . S
C753 C745 1.433 . S
C753 N755 1.384 . S
N754 C750 1.427 . S
N754 C751 1.384 . S
N755 C747 1.427 . S
N755 C753 1.384 . S
H756 C762 0.930 . S
H757 C766 0.930 . S
H758 C771 0.929 . S
H759 C769 0.929 . S
H760 C764 0.929 . S
H761 C770 0.929 . S
C762 H756 0.930 . S
C762 C763 1.367 . S
C762 C770 1.378 . S
C763 C762 1.367 . S
C763 C771 1.433 . S
C764 H760 0.929 . S
C764 C766 1.378 . S
C764 C768 1.350 . S
C765 C768 1.463 . S
C765 C770 1.350 . S
C765 N773 1.427 . S
C766 H757 0.930 . S
C766 C764 1.378 . S
C766 C767 1.367 . S
C767 C766 1.367 . S
C767 C769 1.433 . S
C768 C764 1.350 . S
C768 C765 1.463 . S
C768 N772 1.427 . S
C769 H759 0.929 . S
C769 C767 1.433 . S
C769 N772 1.384 . S
C770 H761 0.929 . S
C770 C762 1.378 . S
C770 C765 1.350 . S
C771 H758 0.929 . S
C771 C763 1.433 . S
C771 N773 1.384 . S
N772 C768 1.427 . S
N772 C769 1.384 . S
N773 C765 1.427 . S
N773 C771 1.384 . S
H774 C780 0.930 . S
H775 C784 0.930 . S
H776 C789 0.929 . S
H777 C787 0.929 . S
H778 C782 0.929 . S
H779 C788 0.929 . S
C780 H774 0.930 . S
C780 C781 1.367 . S
C780 C788 1.378 . S
C781 C780 1.367 . S
C781 C789 1.433 . S
C782 H778 0.929 . S
C782 C784 1.378 . S
C782 C786 1.350 . S
C783 C786 1.463 . S
C783 C788 1.350 . S
C783 N791 1.427 . S
C784 H775 0.930 . S
C784 C782 1.378 . S
C784 C785 1.367 . S
C785 C784 1.367 . S
C785 C787 1.433 . S
C786 C782 1.350 . S
C786 C783 1.463 . S
C786 N790 1.427 . S
C787 H777 0.929 . S
C787 C785 1.433 . S
C787 N790 1.384 . S
C788 H779 0.929 . S
C788 C780 1.378 . S
C788 C783 1.350 . S
C789 H776 0.929 . S
C789 C781 1.433 . S
C789 N791 1.384 . S
N790 C786 1.427 . S
N790 C787 1.384 . S
N791 C783 1.427 . S
N791 C789 1.384 . S
H792 C798 0.930 . S
H793 C802 0.930 . S
H794 C807 0.929 . S
H795 C805 0.929 . S
H796 C800 0.929 . S
H797 C806 0.929 . S
C798 H792 0.930 . S
C798 C799 1.367 . S
C798 C806 1.378 . S
C799 C798 1.367 . S
C799 C807 1.433 . S
C800 H796 0.929 . S
C800 C802 1.378 . S
C800 C804 1.350 . S
C801 C804 1.463 . S
C801 C806 1.350 . S
C801 N809 1.427 . S
C802 H793 0.930 . S
C802 C800 1.378 . S
C802 C803 1.367 . S
C803 C802 1.367 . S
C803 C805 1.433 . S
C804 C800 1.350 . S
C804 C801 1.463 . S
C804 N808 1.427 . S
C805 H795 0.929 . S
C805 C803 1.433 . S
C805 N808 1.384 . S
C806 H797 0.929 . S
C806 C798 1.378 . S
C806 C801 1.350 . S
C807 H794 0.929 . S
C807 C799 1.433 . S
C807 N809 1.384 . S
N808 C804 1.427 . S
N808 C805 1.384 . S
N809 C801 1.427 . S
N809 C807 1.384 . S
H810 C816 0.930 . S
H811 C820 0.930 . S
H812 C825 0.929 . S
H813 C823 0.929 . S
H814 C818 0.929 . S
H815 C824 0.929 . S
C816 H810 0.930 . S
C816 C817 1.367 . S
C816 C824 1.378 . S
C817 C816 1.367 . S
C817 C825 1.433 . S
C818 H814 0.929 . S
C818 C820 1.378 . S
C818 C822 1.350 . S
C819 C822 1.463 . S
C819 C824 1.350 . S
C819 N827 1.427 . S
C820 H811 0.930 . S
C820 C818 1.378 . S
C820 C821 1.367 . S
C821 C820 1.367 . S
C821 C823 1.433 . S
C822 C818 1.350 . S
C822 C819 1.463 . S
C822 N826 1.427 . S
C823 H813 0.929 . S
C823 C821 1.433 . S
C823 N826 1.384 . S
C824 H815 0.929 . S
C824 C816 1.378 . S
C824 C819 1.350 . S
C825 H812 0.929 . S
C825 C817 1.433 . S
C825 N827 1.384 . S
N826 C822 1.427 . S
N826 C823 1.384 . S
N827 C819 1.427 . S
N827 C825 1.384 . S
H828 C834 0.930 . S
H829 C838 0.930 . S
H830 C843 0.929 . S
H831 C841 0.929 . S
H832 C836 0.912 1_565 S
H833 C842 0.912 1_545 S
C834 H828 0.930 . S
C834 C835 1.367 . S
C834 C842 1.386 . S
C835 C834 1.367 . S
C835 C843 1.433 . S
C836 H832 0.912 1_545 S
C836 C838 1.386 . S
C836 C840 1.358 . S
C837 C840 1.463 1_566 S
C837 C842 1.358 . S
C837 N845 1.427 . S
C838 H829 0.930 . S
C838 C836 1.386 . S
C838 C839 1.367 . S
C839 C838 1.367 . S
C839 C841 1.433 . S
C840 C836 1.358 . S
C840 C837 1.463 1_544 S
C840 N844 1.427 . S
C841 H831 0.929 . S
C841 C839 1.433 . S
C841 N844 1.384 . S
C842 H833 0.912 1_565 S
C842 C834 1.386 . S
C842 C837 1.358 . S
C843 H830 0.929 . S
C843 C835 1.433 . S
C843 N845 1.384 . S
N844 C840 1.427 . S
N844 C841 1.384 . S
N845 C837 1.427 . S
N845 C843 1.384 . S
H846 C852 0.930 . S
H847 C856 0.930 . S
H848 C861 0.929 . S
H849 C859 0.929 . S
H850 C854 0.929 1_554 S
H851 C860 0.929 1_556 S
C852 H846 0.930 . S
C852 C853 1.367 . S
C852 C860 1.378 . S
C853 C852 1.367 . S
C853 C861 1.433 . S
C854 H850 0.929 1_556 S
C854 C856 1.378 . S
C854 C858 1.350 . S
C855 C858 1.463 1_654 S
C855 C860 1.350 . S
C855 N863 1.427 1_655 S
C856 H847 0.930 . S
C856 C854 1.378 . S
C856 C857 1.367 . S
C857 C856 1.367 . S
C857 C859 1.433 . S
C858 C854 1.350 . S
C858 C855 1.463 1_456 S
C858 N862 1.427 1_455 S
C859 H849 0.929 . S
C859 C857 1.433 . S
C859 N862 1.384 1_455 S
C860 H851 0.929 1_554 S
C860 C852 1.378 . S
C860 C855 1.350 . S
C861 H848 0.929 . S
C861 C853 1.433 . S
C861 N863 1.384 1_655 S
N862 C858 1.427 1_655 S
N862 C859 1.384 1_655 S
N863 C855 1.427 1_455 S
N863 C861 1.384 1_455 S
H864 C870 0.930 . S
H865 C874 0.930 . S
H866 C879 0.929 . S
H867 C877 0.929 . S
H868 C872 0.929 . S
H869 C878 0.929 . S
C870 H864 0.930 . S
C870 C871 1.367 . S
C870 C878 1.378 . S
C871 C870 1.367 . S
C871 C879 1.433 . S
C872 H868 0.929 . S
C872 C874 1.378 . S
C872 C876 1.350 . S
C873 C876 1.463 1_556 S
C873 C878 1.350 . S
C873 N881 1.427 . S
C874 H865 0.930 . S
C874 C872 1.378 . S
C874 C875 1.367 . S
C875 C874 1.367 . S
C875 C877 1.433 . S
C876 C872 1.350 . S
C876 C873 1.463 1_554 S
C876 N880 1.427 . S
C877 H867 0.929 . S
C877 C875 1.433 . S
C877 N880 1.384 . S
C878 H869 0.929 . S
C878 C870 1.378 . S
C878 C873 1.350 . S
C879 H866 0.929 . S
C879 C871 1.433 . S
C879 N881 1.384 . S
N880 C876 1.427 . S
N880 C877 1.384 . S
N881 C873 1.427 . S
N881 C879 1.384 . S
H882 C888 0.930 . S
H883 C892 0.930 . S
H884 C897 0.929 . S
H885 C895 0.929 . S
H886 C890 1.004 . S
H887 C896 1.004 . S
C888 H882 0.930 . S
C888 C889 1.367 . S
C888 C896 1.340 1_565 S
C889 C888 1.367 . S
C889 C897 1.433 . S
C890 H886 1.004 . S
C890 C892 1.340 1_565 S
C890 C894 1.315 1_565 S
C891 C894 1.463 1_566 S
C891 C896 1.315 1_565 S
C891 N899 1.427 . S
C892 H883 0.930 . S
C892 C890 1.340 1_545 S
C892 C893 1.367 . S
C893 C892 1.367 . S
C893 C895 1.433 . S
C894 C890 1.315 1_545 S
C894 C891 1.463 1_544 S
C894 N898 1.427 . S
C895 H885 0.929 . S
C895 C893 1.433 . S
C895 N898 1.384 . S
C896 H887 1.004 . S
C896 C888 1.340 1_545 S
C896 C891 1.315 1_545 S
C897 H884 0.929 . S
C897 C889 1.433 . S
C897 N899 1.384 . S
N898 C894 1.427 . S
N898 C895 1.384 . S
N899 C891 1.427 . S
N899 C897 1.384 . S
H900 C906 0.930 . S
H901 C910 0.930 . S
H902 C915 0.929 . S
H903 C913 0.929 . S
H904 C908 0.929 1_455 S
H905 C914 0.929 1_655 S
C906 H900 0.930 . S
C906 C907 1.367 . S
C906 C914 1.378 . S
C907 C906 1.367 . S
C907 C915 1.433 . S
C908 H904 0.929 1_655 S
C908 C910 1.378 . S
C908 C912 1.350 . S
C909 C912 1.463 1_456 S
C909 C914 1.350 . S
C909 N917 1.427 . S
C910 H901 0.930 . S
C910 C908 1.378 . S
C910 C911 1.367 . S
C911 C910 1.367 . S
C911 C913 1.433 . S
C912 C908 1.350 . S
C912 C909 1.463 1_654 S
C912 N916 1.427 . S
C913 H903 0.929 . S
C913 C911 1.433 . S
C913 N916 1.384 . S
C914 H905 0.929 1_455 S
C914 C906 1.378 . S
C914 C909 1.350 . S
C915 H902 0.929 . S
C915 C907 1.433 . S
C915 N917 1.384 . S
N916 C912 1.427 . S
N916 C913 1.384 . S
N917 C909 1.427 . S
N917 C915 1.384 . S
H918 C924 0.930 . S
H919 C928 0.930 . S
H920 C933 0.929 . S
H921 C931 0.929 . S
H922 C926 0.929 . S
H923 C932 0.929 . S
C924 H918 0.930 . S
C924 C925 1.367 . S
C924 C932 1.378 . S
C925 C924 1.367 . S
C925 C933 1.433 . S
C926 H922 0.929 . S
C926 C928 1.378 . S
C926 C930 1.350 . S
C927 C930 1.463 1_554 S
C927 C932 1.350 . S
C927 N935 1.427 . S
C928 H919 0.930 . S
C928 C926 1.378 . S
C928 C929 1.367 . S
C929 C928 1.367 . S
C929 C931 1.433 . S
C930 C926 1.350 . S
C930 C927 1.463 1_556 S
C930 N934 1.427 . S
C931 H921 0.929 . S
C931 C929 1.433 . S
C931 N934 1.384 . S
C932 H923 0.929 . S
C932 C924 1.378 . S
C932 C927 1.350 . S
C933 H920 0.929 . S
C933 C925 1.433 . S
C933 N935 1.384 . S
N934 C930 1.427 . S
N934 C931 1.384 . S
N935 C927 1.427 . S
N935 C933 1.384 . S
H936 C942 0.930 . S
H937 C946 0.930 . S
H938 C951 0.929 . S
H939 C949 0.929 . S
H940 C944 0.929 . S
H941 C950 0.929 . S
C942 H936 0.930 . S
C942 C943 1.367 . S
C942 C950 1.378 . S
C943 C942 1.367 . S
C943 C951 1.433 . S
C944 H940 0.929 . S
C944 C946 1.378 . S
C944 C948 1.350 . S
C945 C948 1.463 . S
C945 C950 1.350 . S
C945 N953 1.427 . S
C946 H937 0.930 . S
C946 C944 1.378 . S
C946 C947 1.367 . S
C947 C946 1.367 . S
C947 C949 1.433 . S
C948 C944 1.350 . S
C948 C945 1.463 . S
C948 N952 1.427 . S
C949 H939 0.929 . S
C949 C947 1.433 . S
C949 N952 1.384 . S
C950 H941 0.929 . S
C950 C942 1.378 . S
C950 C945 1.350 . S
C951 H938 0.929 . S
C951 C943 1.433 . S
C951 N953 1.384 . S
N952 C948 1.427 . S
N952 C949 1.384 . S
N953 C945 1.427 . S
N953 C951 1.384 . S
H954 C960 0.930 . S
H955 C964 0.930 . S
H956 C969 0.929 . S
H957 C967 0.929 . S
H958 C962 0.929 . S
H959 C968 0.929 . S
C960 H954 0.930 . S
C960 C961 1.367 . S
C960 C968 1.378 . S
C961 C960 1.367 . S
C961 C969 1.433 . S
C962 H958 0.929 . S
C962 C964 1.378 . S
C962 C966 1.350 . S
C963 C966 1.463 . S
C963 C968 1.350 . S
C963 N971 1.427 . S
C964 H955 0.930 . S
C964 C962 1.378 . S
C964 C965 1.367 . S
C965 C964 1.367 . S
C965 C967 1.433 . S
C966 C962 1.350 . S
C966 C963 1.463 . S
C966 N970 1.427 . S
C967 H957 0.929 . S
C967 C965 1.433 . S
C967 N970 1.384 . S
C968 H959 0.929 . S
C968 C960 1.378 . S
C968 C963 1.350 . S
C969 H956 0.929 . S
C969 C961 1.433 . S
C969 N971 1.384 . S
N970 C966 1.427 . S
N970 C967 1.384 . S
N971 C963 1.427 . S
N971 C969 1.384 . S
H972 C978 0.930 . S
H973 C982 0.930 . S
H974 C987 0.929 . S
H975 C985 0.929 . S
H976 C980 0.929 . S
H977 C986 0.929 . S
C978 H972 0.930 . S
C978 C979 1.367 . S
C978 C986 1.378 . S
C979 C978 1.367 . S
C979 C987 1.433 . S
C980 H976 0.929 . S
C980 C982 1.378 . S
C980 C984 1.350 . S
C981 C984 1.463 . S
C981 C986 1.350 . S
C981 N989 1.427 . S
C982 H973 0.930 . S
C982 C980 1.378 . S
C982 C983 1.367 . S
C983 C982 1.367 . S
C983 C985 1.433 . S
C984 C980 1.350 . S
C984 C981 1.463 . S
C984 N988 1.427 . S
C985 H975 0.929 . S
C985 C983 1.433 . S
C985 N988 1.384 . S
C986 H977 0.929 . S
C986 C978 1.378 . S
C986 C981 1.350 . S
C987 H974 0.929 . S
C987 C979 1.433 . S
C987 N989 1.384 . S
N988 C984 1.427 . S
N988 C985 1.384 . S
N989 C981 1.427 . S
N989 C987 1.384 . S
H990 C996 0.930 . S
H991 C1000 0.930 . S
H992 C1005 0.929 . S
H993 C1003 0.929 . S
H994 C998 0.929 . S
H995 C1004 0.929 . S
C996 H990 0.930 . S
C996 C997 1.367 . S
C996 C1004 1.378 . S
C997 C996 1.367 . S
C997 C1005 1.433 . S
C998 H994 0.929 . S
C998 C1000 1.378 . S
C998 C1002 1.350 . S
C999 C1002 1.463 . S
C999 C1004 1.350 . S
C999 N1007 1.427 . S
C1000 H991 0.930 . S
C1000 C998 1.378 . S
C1000 C1001 1.367 . S
C1001 C1000 1.367 . S
C1001 C1003 1.433 . S
C1002 C998 1.350 . S
C1002 C999 1.463 . S
C1002 N1006 1.427 . S
C1003 H993 0.929 . S
C1003 C1001 1.433 . S
C1003 N1006 1.384 . S
C1004 H995 0.929 . S
C1004 C996 1.378 . S
C1004 C999 1.350 . S
C1005 H992 0.929 . S
C1005 C997 1.433 . S
C1005 N1007 1.384 . S
N1006 C1002 1.427 . S
N1006 C1003 1.384 . S
N1007 C999 1.427 . S
N1007 C1005 1.384 . S
H1008 C1014 0.930 . S
H1009 C1018 0.930 . S
H1010 C1023 0.929 . S
H1011 C1021 0.929 . S
H1012 C1016 0.929 . S
H1013 C1022 0.929 . S
C1014 H1008 0.930 . S
C1014 C1015 1.367 . S
C1014 C1022 1.378 . S
C1015 C1014 1.367 . S
C1015 C1023 1.433 . S
C1016 H1012 0.929 . S
C1016 C1018 1.378 . S
C1016 C1020 1.350 . S
C1017 C1020 1.463 . S
C1017 C1022 1.350 . S
C1017 N1025 1.427 . S
C1018 H1009 0.930 . S
C1018 C1016 1.378 . S
C1018 C1019 1.367 . S
C1019 C1018 1.367 . S
C1019 C1021 1.433 . S
C1020 C1016 1.350 . S
C1020 C1017 1.463 . S
C1020 N1024 1.427 . S
C1021 H1011 0.929 . S
C1021 C1019 1.433 . S
C1021 N1024 1.384 . S
C1022 H1013 0.929 . S
C1022 C1014 1.378 . S
C1022 C1017 1.350 . S
C1023 H1010 0.929 . S
C1023 C1015 1.433 . S
C1023 N1025 1.384 . S
N1024 C1020 1.427 . S
N1024 C1021 1.384 . S
N1025 C1017 1.427 . S
N1025 C1023 1.384 . S
H1026 C1032 0.930 . S
H1027 C1036 0.930 . S
H1028 C1041 0.929 . S
H1029 C1039 0.929 . S
H1030 C1034 0.929 . S
H1031 C1040 0.929 . S
C1032 H1026 0.930 . S
C1032 C1033 1.367 . S
C1032 C1040 1.378 . S
C1033 C1032 1.367 . S
C1033 C1041 1.433 . S
C1034 H1030 0.929 . S
C1034 C1036 1.378 . S
C1034 C1038 1.350 . S
C1035 C1038 1.463 . S
C1035 C1040 1.350 . S
C1035 N1043 1.427 . S
C1036 H1027 0.930 . S
C1036 C1034 1.378 . S
C1036 C1037 1.367 . S
C1037 C1036 1.367 . S
C1037 C1039 1.433 . S
C1038 C1034 1.350 . S
C1038 C1035 1.463 . S
C1038 N1042 1.427 . S
C1039 H1029 0.929 . S
C1039 C1037 1.433 . S
C1039 N1042 1.384 . S
C1040 H1031 0.929 . S
C1040 C1032 1.378 . S
C1040 C1035 1.350 . S
C1041 H1028 0.929 . S
C1041 C1033 1.433 . S
C1041 N1043 1.384 . S
N1042 C1038 1.427 . S
N1042 C1039 1.384 . S
N1043 C1035 1.427 . S
N1043 C1041 1.384 . S
H1044 C1050 0.930 . S
H1045 C1054 0.930 . S
H1046 C1059 0.929 . S
H1047 C1057 0.929 . S
H1048 C1052 0.929 . S
H1049 C1058 0.929 . S
C1050 H1044 0.930 . S
C1050 C1051 1.367 . S
C1050 C1058 1.378 . S
C1051 C1050 1.367 . S
C1051 C1059 1.433 . S
C1052 H1048 0.929 . S
C1052 C1054 1.378 . S
C1052 C1056 1.350 . S
C1053 C1056 1.463 . S
C1053 C1058 1.350 . S
C1053 N1061 1.427 . S
C1054 H1045 0.930 . S
C1054 C1052 1.378 . S
C1054 C1055 1.367 . S
C1055 C1054 1.367 . S
C1055 C1057 1.433 . S
C1056 C1052 1.350 . S
C1056 C1053 1.463 . S
C1056 N1060 1.427 . S
C1057 H1047 0.929 . S
C1057 C1055 1.433 . S
C1057 N1060 1.384 . S
C1058 H1049 0.929 . S
C1058 C1050 1.378 . S
C1058 C1053 1.350 . S
C1059 H1046 0.929 . S
C1059 C1051 1.433 . S
C1059 N1061 1.384 . S
N1060 C1056 1.427 . S
N1060 C1057 1.384 . S
N1061 C1053 1.427 . S
N1061 C1059 1.384 . S
H1062 C1068 0.930 . S
H1063 C1072 0.930 . S
H1064 C1077 0.929 . S
H1065 C1075 0.929 . S
H1066 C1070 0.929 . S
H1067 C1076 0.929 . S
C1068 H1062 0.930 . S
C1068 C1069 1.367 . S
C1068 C1076 1.378 . S
C1069 C1068 1.367 . S
C1069 C1077 1.433 . S
C1070 H1066 0.929 . S
C1070 C1072 1.378 . S
C1070 C1074 1.350 . S
C1071 C1074 1.463 . S
C1071 C1076 1.350 . S
C1071 N1079 1.427 . S
C1072 H1063 0.930 . S
C1072 C1070 1.378 . S
C1072 C1073 1.367 . S
C1073 C1072 1.367 . S
C1073 C1075 1.433 . S
C1074 C1070 1.350 . S
C1074 C1071 1.463 . S
C1074 N1078 1.427 . S
C1075 H1065 0.929 . S
C1075 C1073 1.433 . S
C1075 N1078 1.384 . S
C1076 H1067 0.929 . S
C1076 C1068 1.378 . S
C1076 C1071 1.350 . S
C1077 H1064 0.929 . S
C1077 C1069 1.433 . S
C1077 N1079 1.384 . S
N1078 C1074 1.427 . S
N1078 C1075 1.384 . S
N1079 C1071 1.427 . S
N1079 C1077 1.384 . S
H1080 C1086 0.930 . S
H1081 C1090 0.930 . S
H1082 C1095 0.929 . S
H1083 C1093 0.929 . S
H1084 C1088 0.929 . S
H1085 C1094 0.929 . S
C1086 H1080 0.930 . S
C1086 C1087 1.367 . S
C1086 C1094 1.378 . S
C1087 C1086 1.367 . S
C1087 C1095 1.433 . S
C1088 H1084 0.929 . S
C1088 C1090 1.378 . S
C1088 C1092 1.350 . S
C1089 C1092 1.463 . S
C1089 C1094 1.350 . S
C1089 N1097 1.427 . S
C1090 H1081 0.930 . S
C1090 C1088 1.378 . S
C1090 C1091 1.367 . S
C1091 C1090 1.367 . S
C1091 C1093 1.433 . S
C1092 C1088 1.350 . S
C1092 C1089 1.463 . S
C1092 N1096 1.427 . S
C1093 H1083 0.929 . S
C1093 C1091 1.433 . S
C1093 N1096 1.384 . S
C1094 H1085 0.929 . S
C1094 C1086 1.378 . S
C1094 C1089 1.350 . S
C1095 H1082 0.929 . S
C1095 C1087 1.433 . S
C1095 N1097 1.384 . S
N1096 C1092 1.427 . S
N1096 C1093 1.384 . S
N1097 C1089 1.427 . S
N1097 C1095 1.384 . S
H1098 C1104 0.930 . S
H1099 C1108 0.930 . S
H1100 C1113 0.929 . S
H1101 C1111 0.929 . S
H1102 C1106 0.929 . S
H1103 C1112 0.929 . S
C1104 H1098 0.930 . S
C1104 C1105 1.367 . S
C1104 C1112 1.378 . S
C1105 C1104 1.367 . S
C1105 C1113 1.433 . S
C1106 H1102 0.929 . S
C1106 C1108 1.378 . S
C1106 C1110 1.350 . S
C1107 C1110 1.463 . S
C1107 C1112 1.350 . S
C1107 N1115 1.427 . S
C1108 H1099 0.930 . S
C1108 C1106 1.378 . S
C1108 C1109 1.367 . S
C1109 C1108 1.367 . S
C1109 C1111 1.433 . S
C1110 C1106 1.350 . S
C1110 C1107 1.463 . S
C1110 N1114 1.427 . S
C1111 H1101 0.929 . S
C1111 C1109 1.433 . S
C1111 N1114 1.384 . S
C1112 H1103 0.929 . S
C1112 C1104 1.378 . S
C1112 C1107 1.350 . S
C1113 H1100 0.929 . S
C1113 C1105 1.433 . S
C1113 N1115 1.384 . S
N1114 C1110 1.427 . S
N1114 C1111 1.384 . S
N1115 C1107 1.427 . S
N1115 C1113 1.384 . S
H1116 C1122 0.930 . S
H1117 C1126 0.930 . S
H1118 C1131 0.929 . S
H1119 C1129 0.929 . S
H1120 C1124 0.929 . S
H1121 C1130 0.929 . S
C1122 H1116 0.930 . S
C1122 C1123 1.367 . S
C1122 C1130 1.378 . S
C1123 C1122 1.367 . S
C1123 C1131 1.433 . S
C1124 H1120 0.929 . S
C1124 C1126 1.378 . S
C1124 C1128 1.350 . S
C1125 C1128 1.463 . S
C1125 C1130 1.350 . S
C1125 N1133 1.427 . S
C1126 H1117 0.930 . S
C1126 C1124 1.378 . S
C1126 C1127 1.367 . S
C1127 C1126 1.367 . S
C1127 C1129 1.433 . S
C1128 C1124 1.350 . S
C1128 C1125 1.463 . S
C1128 N1132 1.427 . S
C1129 H1119 0.929 . S
C1129 C1127 1.433 . S
C1129 N1132 1.384 . S
C1130 H1121 0.929 . S
C1130 C1122 1.378 . S
C1130 C1125 1.350 . S
C1131 H1118 0.929 . S
C1131 C1123 1.433 . S
C1131 N1133 1.384 . S
N1132 C1128 1.427 . S
N1132 C1129 1.384 . S
N1133 C1125 1.427 . S
N1133 C1131 1.384 . S
H1134 C1140 0.930 . S
H1135 C1144 0.930 . S
H1136 C1149 0.929 . S
H1137 C1147 0.929 . S
H1138 C1142 0.929 . S
H1139 C1148 0.929 . S
C1140 H1134 0.930 . S
C1140 C1141 1.367 . S
C1140 C1148 1.378 . S
C1141 C1140 1.367 . S
C1141 C1149 1.433 . S
C1142 H1138 0.929 . S
C1142 C1144 1.378 . S
C1142 C1146 1.350 . S
C1143 C1146 1.463 . S
C1143 C1148 1.350 . S
C1143 N1151 1.427 . S
C1144 H1135 0.930 . S
C1144 C1142 1.378 . S
C1144 C1145 1.367 . S
C1145 C1144 1.367 . S
C1145 C1147 1.433 . S
C1146 C1142 1.350 . S
C1146 C1143 1.463 . S
C1146 N1150 1.427 . S
C1147 H1137 0.929 . S
C1147 C1145 1.433 . S
C1147 N1150 1.384 . S
C1148 H1139 0.929 . S
C1148 C1140 1.378 . S
C1148 C1143 1.350 . S
C1149 H1136 0.929 . S
C1149 C1141 1.433 . S
C1149 N1151 1.384 . S
N1150 C1146 1.427 . S
N1150 C1147 1.384 . S
N1151 C1143 1.427 . S
N1151 C1149 1.384 . S
H1152 C1158 0.930 . S
H1153 C1162 0.930 . S
H1154 C1167 0.929 . S
H1155 C1165 0.929 . S
H1156 C1160 0.929 . S
H1157 C1166 0.929 . S
C1158 H1152 0.930 . S
C1158 C1159 1.367 . S
C1158 C1166 1.378 . S
C1159 C1158 1.367 . S
C1159 C1167 1.433 . S
C1160 H1156 0.929 . S
C1160 C1162 1.378 . S
C1160 C1164 1.350 . S
C1161 C1164 1.463 . S
C1161 C1166 1.350 . S
C1161 N1169 1.427 . S
C1162 H1153 0.930 . S
C1162 C1160 1.378 . S
C1162 C1163 1.367 . S
C1163 C1162 1.367 . S
C1163 C1165 1.433 . S
C1164 C1160 1.350 . S
C1164 C1161 1.463 . S
C1164 N1168 1.427 . S
C1165 H1155 0.929 . S
C1165 C1163 1.433 . S
C1165 N1168 1.384 . S
C1166 H1157 0.929 . S
C1166 C1158 1.378 . S
C1166 C1161 1.350 . S
C1167 H1154 0.929 . S
C1167 C1159 1.433 . S
C1167 N1169 1.384 . S
N1168 C1164 1.427 . S
N1168 C1165 1.384 . S
N1169 C1161 1.427 . S
N1169 C1167 1.384 . S
H1170 C1176 0.930 . S
H1171 C1180 0.930 . S
H1172 C1185 0.929 . S
H1173 C1183 0.929 . S
H1174 C1178 0.929 . S
H1175 C1184 0.929 . S
C1176 H1170 0.930 . S
C1176 C1177 1.367 . S
C1176 C1184 1.378 . S
C1177 C1176 1.367 . S
C1177 C1185 1.433 . S
C1178 H1174 0.929 . S
C1178 C1180 1.378 . S
C1178 C1182 1.350 . S
C1179 C1182 1.463 . S
C1179 C1184 1.350 . S
C1179 N1187 1.427 . S
C1180 H1171 0.930 . S
C1180 C1178 1.378 . S
C1180 C1181 1.367 . S
C1181 C1180 1.367 . S
C1181 C1183 1.433 . S
C1182 C1178 1.350 . S
C1182 C1179 1.463 . S
C1182 N1186 1.427 . S
C1183 H1173 0.929 . S
C1183 C1181 1.433 . S
C1183 N1186 1.384 . S
C1184 H1175 0.929 . S
C1184 C1176 1.378 . S
C1184 C1179 1.350 . S
C1185 H1172 0.929 . S
C1185 C1177 1.433 . S
C1185 N1187 1.384 . S
N1186 C1182 1.427 . S
N1186 C1183 1.384 . S
N1187 C1179 1.427 . S
N1187 C1185 1.384 . S
H1188 C1194 0.930 . S
H1189 C1198 0.930 . S
H1190 C1203 0.929 . S
H1191 C1201 0.929 . S
H1192 C1196 0.929 . S
H1193 C1202 0.929 . S
C1194 H1188 0.930 . S
C1194 C1195 1.367 . S
C1194 C1202 1.378 . S
C1195 C1194 1.367 . S
C1195 C1203 1.433 . S
C1196 H1192 0.929 . S
C1196 C1198 1.378 . S
C1196 C1200 1.350 . S
C1197 C1200 1.463 . S
C1197 C1202 1.350 . S
C1197 N1205 1.427 . S
C1198 H1189 0.930 . S
C1198 C1196 1.378 . S
C1198 C1199 1.367 . S
C1199 C1198 1.367 . S
C1199 C1201 1.433 . S
C1200 C1196 1.350 . S
C1200 C1197 1.463 . S
C1200 N1204 1.427 . S
C1201 H1191 0.929 . S
C1201 C1199 1.433 . S
C1201 N1204 1.384 . S
C1202 H1193 0.929 . S
C1202 C1194 1.378 . S
C1202 C1197 1.350 . S
C1203 H1190 0.929 . S
C1203 C1195 1.433 . S
C1203 N1205 1.384 . S
N1204 C1200 1.427 . S
N1204 C1201 1.384 . S
N1205 C1197 1.427 . S
N1205 C1203 1.384 . S
H1206 C1212 0.930 . S
H1207 C1216 0.930 . S
H1208 C1221 0.929 . S
H1209 C1219 0.929 . S
H1210 C1214 0.929 . S
H1211 C1220 0.929 . S
C1212 H1206 0.930 . S
C1212 C1213 1.367 . S
C1212 C1220 1.378 . S
C1213 C1212 1.367 . S
C1213 C1221 1.433 . S
C1214 H1210 0.929 . S
C1214 C1216 1.378 . S
C1214 C1218 1.350 . S
C1215 C1218 1.463 . S
C1215 C1220 1.350 . S
C1215 N1223 1.427 . S
C1216 H1207 0.930 . S
C1216 C1214 1.378 . S
C1216 C1217 1.367 . S
C1217 C1216 1.367 . S
C1217 C1219 1.433 . S
C1218 C1214 1.350 . S
C1218 C1215 1.463 . S
C1218 N1222 1.427 . S
C1219 H1209 0.929 . S
C1219 C1217 1.433 . S
C1219 N1222 1.384 . S
C1220 H1211 0.929 . S
C1220 C1212 1.378 . S
C1220 C1215 1.350 . S
C1221 H1208 0.929 . S
C1221 C1213 1.433 . S
C1221 N1223 1.384 . S
N1222 C1218 1.427 . S
N1222 C1219 1.384 . S
N1223 C1215 1.427 . S
N1223 C1221 1.384 . S
H1224 C1230 0.930 . S
H1225 C1234 0.930 . S
H1226 C1239 0.929 . S
H1227 C1237 0.929 . S
H1228 C1232 0.929 . S
H1229 C1238 0.929 . S
C1230 H1224 0.930 . S
C1230 C1231 1.367 . S
C1230 C1238 1.378 . S
C1231 C1230 1.367 . S
C1231 C1239 1.433 . S
C1232 H1228 0.929 . S
C1232 C1234 1.378 . S
C1232 C1236 1.350 . S
C1233 C1236 1.463 . S
C1233 C1238 1.350 . S
C1233 N1241 1.427 . S
C1234 H1225 0.930 . S
C1234 C1232 1.378 . S
C1234 C1235 1.367 . S
C1235 C1234 1.367 . S
C1235 C1237 1.433 . S
C1236 C1232 1.350 . S
C1236 C1233 1.463 . S
C1236 N1240 1.427 . S
C1237 H1227 0.929 . S
C1237 C1235 1.433 . S
C1237 N1240 1.384 . S
C1238 H1229 0.929 . S
C1238 C1230 1.378 . S
C1238 C1233 1.350 . S
C1239 H1226 0.929 . S
C1239 C1231 1.433 . S
C1239 N1241 1.384 . S
N1240 C1236 1.427 . S
N1240 C1237 1.384 . S
N1241 C1233 1.427 . S
N1241 C1239 1.384 . S
H1242 C1248 0.930 . S
H1243 C1252 0.930 . S
H1244 C1257 0.929 . S
H1245 C1255 0.929 . S
H1246 C1250 0.929 . S
H1247 C1256 0.929 . S
C1248 H1242 0.930 . S
C1248 C1249 1.367 . S
C1248 C1256 1.378 . S
C1249 C1248 1.367 . S
C1249 C1257 1.433 . S
C1250 H1246 0.929 . S
C1250 C1252 1.378 . S
C1250 C1254 1.350 . S
C1251 C1254 1.463 . S
C1251 C1256 1.350 . S
C1251 N1259 1.427 . S
C1252 H1243 0.930 . S
C1252 C1250 1.378 . S
C1252 C1253 1.367 . S
C1253 C1252 1.367 . S
C1253 C1255 1.433 . S
C1254 C1250 1.350 . S
C1254 C1251 1.463 . S
C1254 N1258 1.427 . S
C1255 H1245 0.929 . S
C1255 C1253 1.433 . S
C1255 N1258 1.384 . S
C1256 H1247 0.929 . S
C1256 C1248 1.378 . S
C1256 C1251 1.350 . S
C1257 H1244 0.929 . S
C1257 C1249 1.433 . S
C1257 N1259 1.384 . S
N1258 C1254 1.427 . S
N1258 C1255 1.384 . S
N1259 C1251 1.427 . S
N1259 C1257 1.384 . S
H1260 C1266 0.930 . S
H1261 C1270 0.930 . S
H1262 C1275 0.929 . S
H1263 C1273 0.929 . S
H1264 C1268 0.929 . S
H1265 C1274 0.929 . S
C1266 H1260 0.930 . S
C1266 C1267 1.367 . S
C1266 C1274 1.378 . S
C1267 C1266 1.367 . S
C1267 C1275 1.433 . S
C1268 H1264 0.929 . S
C1268 C1270 1.378 . S
C1268 C1272 1.350 . S
C1269 C1272 1.463 . S
C1269 C1274 1.350 . S
C1269 N1277 1.427 . S
C1270 H1261 0.930 . S
C1270 C1268 1.378 . S
C1270 C1271 1.367 . S
C1271 C1270 1.367 . S
C1271 C1273 1.433 . S
C1272 C1268 1.350 . S
C1272 C1269 1.463 . S
C1272 N1276 1.427 . S
C1273 H1263 0.929 . S
C1273 C1271 1.433 . S
C1273 N1276 1.384 . S
C1274 H1265 0.929 . S
C1274 C1266 1.378 . S
C1274 C1269 1.350 . S
C1275 H1262 0.929 . S
C1275 C1267 1.433 . S
C1275 N1277 1.384 . S
N1276 C1272 1.427 . S
N1276 C1273 1.384 . S
N1277 C1269 1.427 . S
N1277 C1275 1.384 . S
H1278 C1284 0.930 . S
H1279 C1288 0.930 . S
H1280 C1293 0.929 . S
H1281 C1291 0.929 . S
H1282 C1286 0.929 . S
H1283 C1292 0.929 . S
C1284 H1278 0.930 . S
C1284 C1285 1.367 . S
C1284 C1292 1.378 . S
C1285 C1284 1.367 . S
C1285 C1293 1.433 . S
C1286 H1282 0.929 . S
C1286 C1288 1.378 . S
C1286 C1290 1.350 . S
C1287 C1290 1.463 . S
C1287 C1292 1.350 . S
C1287 N1295 1.427 . S
C1288 H1279 0.930 . S
C1288 C1286 1.378 . S
C1288 C1289 1.367 . S
C1289 C1288 1.367 . S
C1289 C1291 1.433 . S
C1290 C1286 1.350 . S
C1290 C1287 1.463 . S
C1290 N1294 1.427 . S
C1291 H1281 0.929 . S
C1291 C1289 1.433 . S
C1291 N1294 1.384 . S
C1292 H1283 0.929 . S
C1292 C1284 1.378 . S
C1292 C1287 1.350 . S
C1293 H1280 0.929 . S
C1293 C1285 1.433 . S
C1293 N1295 1.384 . S
N1294 C1290 1.427 . S
N1294 C1291 1.384 . S
N1295 C1287 1.427 . S
N1295 C1293 1.384 . S
H1296 C1302 0.930 . S
H1297 C1306 0.930 . S
H1298 C1311 0.929 . S
H1299 C1309 0.929 . S
H1300 C1304 0.929 . S
H1301 C1310 0.929 . S
C1302 H1296 0.930 . S
C1302 C1303 1.367 . S
C1302 C1310 1.378 . S
C1303 C1302 1.367 . S
C1303 C1311 1.433 . S
C1304 H1300 0.929 . S
C1304 C1306 1.378 . S
C1304 C1308 1.350 . S
C1305 C1308 1.463 . S
C1305 C1310 1.350 . S
C1305 N1313 1.427 . S
C1306 H1297 0.930 . S
C1306 C1304 1.378 . S
C1306 C1307 1.367 . S
C1307 C1306 1.367 . S
C1307 C1309 1.433 . S
C1308 C1304 1.350 . S
C1308 C1305 1.463 . S
C1308 N1312 1.427 . S
C1309 H1299 0.929 . S
C1309 C1307 1.433 . S
C1309 N1312 1.384 . S
C1310 H1301 0.929 . S
C1310 C1302 1.378 . S
C1310 C1305 1.350 . S
C1311 H1298 0.929 . S
C1311 C1303 1.433 . S
C1311 N1313 1.384 . S
N1312 C1308 1.427 . S
N1312 C1309 1.384 . S
N1313 C1305 1.427 . S
N1313 C1311 1.384 . S
H1314 C1320 0.930 . S
H1315 C1324 0.930 . S
H1316 C1329 0.929 . S
H1317 C1327 0.929 . S
H1318 C1322 0.929 . S
H1319 C1328 0.929 . S
C1320 H1314 0.930 . S
C1320 C1321 1.367 . S
C1320 C1328 1.378 . S
C1321 C1320 1.367 . S
C1321 C1329 1.433 . S
C1322 H1318 0.929 . S
C1322 C1324 1.378 . S
C1322 C1326 1.350 . S
C1323 C1326 1.463 . S
C1323 C1328 1.350 . S
C1323 N1331 1.427 . S
C1324 H1315 0.930 . S
C1324 C1322 1.378 . S
C1324 C1325 1.367 . S
C1325 C1324 1.367 . S
C1325 C1327 1.433 . S
C1326 C1322 1.350 . S
C1326 C1323 1.463 . S
C1326 N1330 1.427 . S
C1327 H1317 0.929 . S
C1327 C1325 1.433 . S
C1327 N1330 1.384 . S
C1328 H1319 0.929 . S
C1328 C1320 1.378 . S
C1328 C1323 1.350 . S
C1329 H1316 0.929 . S
C1329 C1321 1.433 . S
C1329 N1331 1.384 . S
N1330 C1326 1.427 . S
N1330 C1327 1.384 . S
N1331 C1323 1.427 . S
N1331 C1329 1.384 . S
H1332 C1338 0.930 . S
H1333 C1342 0.930 . S
H1334 C1347 0.929 . S
H1335 C1345 0.929 . S
H1336 C1340 0.929 . S
H1337 C1346 0.929 . S
C1338 H1332 0.930 . S
C1338 C1339 1.367 . S
C1338 C1346 1.378 . S
C1339 C1338 1.367 . S
C1339 C1347 1.433 . S
C1340 H1336 0.929 . S
C1340 C1342 1.378 . S
C1340 C1344 1.350 . S
C1341 C1344 1.463 . S
C1341 C1346 1.350 . S
C1341 N1349 1.427 . S
C1342 H1333 0.930 . S
C1342 C1340 1.378 . S
C1342 C1343 1.367 . S
C1343 C1342 1.367 . S
C1343 C1345 1.433 . S
C1344 C1340 1.350 . S
C1344 C1341 1.463 . S
C1344 N1348 1.427 . S
C1345 H1335 0.929 . S
C1345 C1343 1.433 . S
C1345 N1348 1.384 . S
C1346 H1337 0.929 . S
C1346 C1338 1.378 . S
C1346 C1341 1.350 . S
C1347 H1334 0.929 . S
C1347 C1339 1.433 . S
C1347 N1349 1.384 . S
N1348 C1344 1.427 . S
N1348 C1345 1.384 . S
N1349 C1341 1.427 . S
N1349 C1347 1.384 . S
H1350 C1356 0.930 . S
H1351 C1360 0.930 . S
H1352 C1365 0.929 . S
H1353 C1363 0.929 . S
H1354 C1358 0.929 . S
H1355 C1364 0.929 . S
C1356 H1350 0.930 . S
C1356 C1357 1.367 . S
C1356 C1364 1.378 . S
C1357 C1356 1.367 . S
C1357 C1365 1.433 . S
C1358 H1354 0.929 . S
C1358 C1360 1.378 . S
C1358 C1362 1.350 . S
C1359 C1362 1.463 . S
C1359 C1364 1.350 . S
C1359 N1367 1.427 . S
C1360 H1351 0.930 . S
C1360 C1358 1.378 . S
C1360 C1361 1.367 . S
C1361 C1360 1.367 . S
C1361 C1363 1.433 . S
C1362 C1358 1.350 . S
C1362 C1359 1.463 . S
C1362 N1366 1.427 . S
C1363 H1353 0.929 . S
C1363 C1361 1.433 . S
C1363 N1366 1.384 . S
C1364 H1355 0.929 . S
C1364 C1356 1.378 . S
C1364 C1359 1.350 . S
C1365 H1352 0.929 . S
C1365 C1357 1.433 . S
C1365 N1367 1.384 . S
N1366 C1362 1.427 . S
N1366 C1363 1.384 . S
N1367 C1359 1.427 . S
N1367 C1365 1.384 . S
H1368 C1374 0.930 . S
H1369 C1378 0.930 . S
H1370 C1383 0.929 . S
H1371 C1381 0.929 . S
H1372 C1376 0.929 . S
H1373 C1382 0.929 . S
C1374 H1368 0.930 . S
C1374 C1375 1.367 . S
C1374 C1382 1.378 . S
C1375 C1374 1.367 . S
C1375 C1383 1.433 . S
C1376 H1372 0.929 . S
C1376 C1378 1.378 . S
C1376 C1380 1.350 . S
C1377 C1380 1.463 1_455 S
C1377 C1382 1.350 . S
C1377 N1385 1.427 . S
C1378 H1369 0.930 . S
C1378 C1376 1.378 . S
C1378 C1379 1.367 . S
C1379 C1378 1.367 . S
C1379 C1381 1.433 . S
C1380 C1376 1.350 . S
C1380 C1377 1.463 1_655 S
C1380 N1384 1.427 . S
C1381 H1371 0.929 . S
C1381 C1379 1.433 . S
C1381 N1384 1.384 . S
C1382 H1373 0.929 . S
C1382 C1374 1.378 . S
C1382 C1377 1.350 . S
C1383 H1370 0.929 . S
C1383 C1375 1.433 . S
C1383 N1385 1.384 . S
N1384 C1380 1.427 . S
N1384 C1381 1.384 . S
N1385 C1377 1.427 . S
N1385 C1383 1.384 . S
H1386 C1392 0.930 . S
H1387 C1396 0.930 . S
H1388 C1401 0.929 . S
H1389 C1399 0.929 . S
H1390 C1394 0.929 . S
H1391 C1400 0.929 . S
C1392 H1386 0.930 . S
C1392 C1393 1.367 . S
C1392 C1400 1.378 . S
C1393 C1392 1.367 . S
C1393 C1401 1.433 . S
C1394 H1390 0.929 . S
C1394 C1396 1.378 . S
C1394 C1398 1.350 . S
C1395 C1398 1.463 . S
C1395 C1400 1.350 . S
C1395 N1403 1.427 . S
C1396 H1387 0.930 . S
C1396 C1394 1.378 . S
C1396 C1397 1.367 . S
C1397 C1396 1.367 . S
C1397 C1399 1.433 . S
C1398 C1394 1.350 . S
C1398 C1395 1.463 . S
C1398 N1402 1.427 . S
C1399 H1389 0.929 . S
C1399 C1397 1.433 . S
C1399 N1402 1.384 . S
C1400 H1391 0.929 . S
C1400 C1392 1.378 . S
C1400 C1395 1.350 . S
C1401 H1388 0.929 . S
C1401 C1393 1.433 . S
C1401 N1403 1.384 . S
N1402 C1398 1.427 . S
N1402 C1399 1.384 . S
N1403 C1395 1.427 . S
N1403 C1401 1.384 . S
H1404 C1410 0.930 . S
H1405 C1414 0.930 . S
H1406 C1419 0.929 . S
H1407 C1417 0.929 . S
H1408 C1412 0.929 . S
H1409 C1418 0.929 . S
C1410 H1404 0.930 . S
C1410 C1411 1.367 . S
C1410 C1418 1.378 . S
C1411 C1410 1.367 . S
C1411 C1419 1.433 . S
C1412 H1408 0.929 . S
C1412 C1414 1.378 . S
C1412 C1416 1.350 . S
C1413 C1416 1.463 1_545 S
C1413 C1418 1.350 . S
C1413 N1421 1.427 . S
C1414 H1405 0.930 . S
C1414 C1412 1.378 . S
C1414 C1415 1.367 . S
C1415 C1414 1.367 . S
C1415 C1417 1.433 . S
C1416 C1412 1.350 . S
C1416 C1413 1.463 1_565 S
C1416 N1420 1.427 . S
C1417 H1407 0.929 . S
C1417 C1415 1.433 . S
C1417 N1420 1.384 . S
C1418 H1409 0.929 . S
C1418 C1410 1.378 . S
C1418 C1413 1.350 . S
C1419 H1406 0.929 . S
C1419 C1411 1.433 . S
C1419 N1421 1.384 . S
N1420 C1416 1.427 . S
N1420 C1417 1.384 . S
N1421 C1413 1.427 . S
N1421 C1419 1.384 . S
H1422 C1428 0.930 . S
H1423 C1432 0.930 . S
H1424 C1437 0.929 . S
H1425 C1435 0.929 . S
H1426 C1430 0.929 . S
H1427 C1436 0.929 . S
C1428 H1422 0.930 . S
C1428 C1429 1.367 . S
C1428 C1436 1.378 . S
C1429 C1428 1.367 . S
C1429 C1437 1.433 . S
C1430 H1426 0.929 . S
C1430 C1432 1.378 . S
C1430 C1434 1.350 . S
C1431 C1434 1.463 1_545 S
C1431 C1436 1.350 . S
C1431 N1439 1.427 . S
C1432 H1423 0.930 . S
C1432 C1430 1.378 . S
C1432 C1433 1.367 . S
C1433 C1432 1.367 . S
C1433 C1435 1.433 . S
C1434 C1430 1.350 . S
C1434 C1431 1.463 1_565 S
C1434 N1438 1.427 . S
C1435 H1425 0.929 . S
C1435 C1433 1.433 . S
C1435 N1438 1.384 . S
C1436 H1427 0.929 . S
C1436 C1428 1.378 . S
C1436 C1431 1.350 . S
C1437 H1424 0.929 . S
C1437 C1429 1.433 . S
C1437 N1439 1.384 . S
N1438 C1434 1.427 . S
N1438 C1435 1.384 . S
N1439 C1431 1.427 . S
N1439 C1437 1.384 . S
H1440 C1446 0.930 . S
H1441 C1450 0.930 . S
H1442 C1455 0.929 . S
H1443 C1453 0.929 . S
H1444 C1448 0.929 . S
H1445 C1454 0.929 . S
C1446 H1440 0.930 . S
C1446 C1447 1.367 . S
C1446 C1454 1.378 . S
C1447 C1446 1.367 . S
C1447 C1455 1.433 . S
C1448 H1444 0.929 . S
C1448 C1450 1.378 . S
C1448 C1452 1.350 . S
C1449 C1452 1.463 1_655 S
C1449 C1454 1.350 . S
C1449 N1457 1.427 . S
C1450 H1441 0.930 . S
C1450 C1448 1.378 . S
C1450 C1451 1.367 . S
C1451 C1450 1.367 . S
C1451 C1453 1.433 . S
C1452 C1448 1.350 . S
C1452 C1449 1.463 1_455 S
C1452 N1456 1.427 . S
C1453 H1443 0.929 . S
C1453 C1451 1.433 . S
C1453 N1456 1.384 . S
C1454 H1445 0.929 . S
C1454 C1446 1.378 . S
C1454 C1449 1.350 . S
C1455 H1442 0.929 . S
C1455 C1447 1.433 . S
C1455 N1457 1.384 . S
N1456 C1452 1.427 . S
N1456 C1453 1.384 . S
N1457 C1449 1.427 . S
N1457 C1455 1.384 . S
H1458 C1464 0.930 . S
H1459 C1468 0.930 . S
H1460 C1473 0.929 . S
H1461 C1471 0.929 . S
H1462 C1466 0.929 . S
H1463 C1472 0.929 . S
C1464 H1458 0.930 . S
C1464 C1465 1.367 . S
C1464 C1472 1.378 . S
C1465 C1464 1.367 . S
C1465 C1473 1.433 . S
C1466 H1462 0.929 . S
C1466 C1468 1.378 . S
C1466 C1470 1.350 . S
C1467 C1470 1.463 . S
C1467 C1472 1.350 . S
C1467 N1475 1.427 . S
C1468 H1459 0.930 . S
C1468 C1466 1.378 . S
C1468 C1469 1.367 . S
C1469 C1468 1.367 . S
C1469 C1471 1.433 . S
C1470 C1466 1.350 . S
C1470 C1467 1.463 . S
C1470 N1474 1.427 . S
C1471 H1461 0.929 . S
C1471 C1469 1.433 . S
C1471 N1474 1.384 . S
C1472 H1463 0.929 . S
C1472 C1464 1.378 . S
C1472 C1467 1.350 . S
C1473 H1460 0.929 . S
C1473 C1465 1.433 . S
C1473 N1475 1.384 . S
N1474 C1470 1.427 . S
N1474 C1471 1.384 . S
N1475 C1467 1.427 . S
N1475 C1473 1.384 . S
H1476 C1482 0.930 . S
H1477 C1486 0.930 . S
H1478 C1491 0.929 . S
H1479 C1489 0.929 . S
H1480 C1484 0.929 . S
H1481 C1490 0.929 . S
C1482 H1476 0.930 . S
C1482 C1483 1.367 . S
C1482 C1490 1.378 . S
C1483 C1482 1.367 . S
C1483 C1491 1.433 . S
C1484 H1480 0.929 . S
C1484 C1486 1.378 . S
C1484 C1488 1.350 . S
C1485 C1488 1.463 . S
C1485 C1490 1.350 . S
C1485 N1493 1.427 . S
C1486 H1477 0.930 . S
C1486 C1484 1.378 . S
C1486 C1487 1.367 . S
C1487 C1486 1.367 . S
C1487 C1489 1.433 . S
C1488 C1484 1.350 . S
C1488 C1485 1.463 . S
C1488 N1492 1.427 . S
C1489 H1479 0.929 . S
C1489 C1487 1.433 . S
C1489 N1492 1.384 . S
C1490 H1481 0.929 . S
C1490 C1482 1.378 . S
C1490 C1485 1.350 . S
C1491 H1478 0.929 . S
C1491 C1483 1.433 . S
C1491 N1493 1.384 . S
N1492 C1488 1.427 . S
N1492 C1489 1.384 . S
N1493 C1485 1.427 . S
N1493 C1491 1.384 . S
H1494 C1500 0.930 . S
H1495 C1504 0.930 . S
H1496 C1509 0.929 . S
H1497 C1507 0.929 . S
H1498 C1502 0.929 . S
H1499 C1508 0.929 . S
C1500 H1494 0.930 . S
C1500 C1501 1.367 . S
C1500 C1508 1.378 . S
C1501 C1500 1.367 . S
C1501 C1509 1.433 . S
C1502 H1498 0.929 . S
C1502 C1504 1.378 . S
C1502 C1506 1.350 . S
C1503 C1506 1.463 . S
C1503 C1508 1.350 . S
C1503 N1511 1.427 . S
C1504 H1495 0.930 . S
C1504 C1502 1.378 . S
C1504 C1505 1.367 . S
C1505 C1504 1.367 . S
C1505 C1507 1.433 . S
C1506 C1502 1.350 . S
C1506 C1503 1.463 . S
C1506 N1510 1.427 . S
C1507 H1497 0.929 . S
C1507 C1505 1.433 . S
C1507 N1510 1.384 . S
C1508 H1499 0.929 . S
C1508 C1500 1.378 . S
C1508 C1503 1.350 . S
C1509 H1496 0.929 . S
C1509 C1501 1.433 . S
C1509 N1511 1.384 . S
N1510 C1506 1.427 . S
N1510 C1507 1.384 . S
N1511 C1503 1.427 . S
N1511 C1509 1.384 . S
H1512 C1518 0.930 . S
H1513 C1522 0.930 . S
H1514 C1527 0.929 . S
H1515 C1525 0.929 . S
H1516 C1520 0.929 . S
H1517 C1526 0.929 . S
C1518 H1512 0.930 . S
C1518 C1519 1.367 . S
C1518 C1526 1.378 . S
C1519 C1518 1.367 . S
C1519 C1527 1.433 . S
C1520 H1516 0.929 . S
C1520 C1522 1.378 . S
C1520 C1524 1.350 . S
C1521 C1524 1.463 . S
C1521 C1526 1.350 . S
C1521 N1529 1.427 . S
C1522 H1513 0.930 . S
C1522 C1520 1.378 . S
C1522 C1523 1.367 . S
C1523 C1522 1.367 . S
C1523 C1525 1.433 . S
C1524 C1520 1.350 . S
C1524 C1521 1.463 . S
C1524 N1528 1.427 . S
C1525 H1515 0.929 . S
C1525 C1523 1.433 . S
C1525 N1528 1.384 . S
C1526 H1517 0.929 . S
C1526 C1518 1.378 . S
C1526 C1521 1.350 . S
C1527 H1514 0.929 . S
C1527 C1519 1.433 . S
C1527 N1529 1.384 . S
N1528 C1524 1.427 . S
N1528 C1525 1.384 . S
N1529 C1521 1.427 . S
N1529 C1527 1.384 . S
H1530 C1536 0.930 . S
H1531 C1540 0.930 . S
H1532 C1545 0.929 . S
H1533 C1543 0.929 . S
H1534 C1538 0.929 . S
H1535 C1544 0.929 . S
C1536 H1530 0.930 . S
C1536 C1537 1.367 . S
C1536 C1544 1.378 . S
C1537 C1536 1.367 . S
C1537 C1545 1.433 . S
C1538 H1534 0.929 . S
C1538 C1540 1.378 . S
C1538 C1542 1.350 . S
C1539 C1542 1.463 . S
C1539 C1544 1.350 . S
C1539 N1547 1.427 . S
C1540 H1531 0.930 . S
C1540 C1538 1.378 . S
C1540 C1541 1.367 . S
C1541 C1540 1.367 . S
C1541 C1543 1.433 . S
C1542 C1538 1.350 . S
C1542 C1539 1.463 . S
C1542 N1546 1.427 . S
C1543 H1533 0.929 . S
C1543 C1541 1.433 . S
C1543 N1546 1.384 . S
C1544 H1535 0.929 . S
C1544 C1536 1.378 . S
C1544 C1539 1.350 . S
C1545 H1532 0.929 . S
C1545 C1537 1.433 . S
C1545 N1547 1.384 . S
N1546 C1542 1.427 . S
N1546 C1543 1.384 . S
N1547 C1539 1.427 . S
N1547 C1545 1.384 . S
H1548 C1554 0.930 . S
H1549 C1558 0.930 . S
H1550 C1563 0.929 . S
H1551 C1561 0.929 . S
H1552 C1556 0.929 . S
H1553 C1562 0.929 . S
C1554 H1548 0.930 . S
C1554 C1555 1.367 . S
C1554 C1562 1.378 . S
C1555 C1554 1.367 . S
C1555 C1563 1.433 . S
C1556 H1552 0.929 . S
C1556 C1558 1.378 . S
C1556 C1560 1.350 . S
C1557 C1560 1.463 . S
C1557 C1562 1.350 . S
C1557 N1565 1.427 . S
C1558 H1549 0.930 . S
C1558 C1556 1.378 . S
C1558 C1559 1.367 . S
C1559 C1558 1.367 . S
C1559 C1561 1.433 . S
C1560 C1556 1.350 . S
C1560 C1557 1.463 . S
C1560 N1564 1.427 . S
C1561 H1551 0.929 . S
C1561 C1559 1.433 . S
C1561 N1564 1.384 . S
C1562 H1553 0.929 . S
C1562 C1554 1.378 . S
C1562 C1557 1.350 . S
C1563 H1550 0.929 . S
C1563 C1555 1.433 . S
C1563 N1565 1.384 . S
N1564 C1560 1.427 . S
N1564 C1561 1.384 . S
N1565 C1557 1.427 . S
N1565 C1563 1.384 . S
H1566 C1572 0.930 . S
H1567 C1576 0.930 . S
H1568 C1581 0.929 . S
H1569 C1579 0.929 . S
H1570 C1574 0.929 . S
H1571 C1580 0.929 . S
C1572 H1566 0.930 . S
C1572 C1573 1.367 . S
C1572 C1580 1.378 . S
C1573 C1572 1.367 . S
C1573 C1581 1.433 . S
C1574 H1570 0.929 . S
C1574 C1576 1.378 . S
C1574 C1578 1.350 . S
C1575 C1578 1.463 . S
C1575 C1580 1.350 . S
C1575 N1583 1.427 . S
C1576 H1567 0.930 . S
C1576 C1574 1.378 . S
C1576 C1577 1.367 . S
C1577 C1576 1.367 . S
C1577 C1579 1.433 . S
C1578 C1574 1.350 . S
C1578 C1575 1.463 . S
C1578 N1582 1.427 . S
C1579 H1569 0.929 . S
C1579 C1577 1.433 . S
C1579 N1582 1.384 . S
C1580 H1571 0.929 . S
C1580 C1572 1.378 . S
C1580 C1575 1.350 . S
C1581 H1568 0.929 . S
C1581 C1573 1.433 . S
C1581 N1583 1.384 . S
N1582 C1578 1.427 . S
N1582 C1579 1.384 . S
N1583 C1575 1.427 . S
N1583 C1581 1.384 . S
H1584 C1590 0.930 . S
H1585 C1594 0.930 . S
H1586 C1599 0.929 . S
H1587 C1597 0.929 . S
H1588 C1592 0.929 . S
H1589 C1598 0.929 . S
C1590 H1584 0.930 . S
C1590 C1591 1.367 . S
C1590 C1598 1.378 . S
C1591 C1590 1.367 . S
C1591 C1599 1.433 . S
C1592 H1588 0.929 . S
C1592 C1594 1.378 . S
C1592 C1596 1.350 . S
C1593 C1596 1.463 . S
C1593 C1598 1.350 . S
C1593 N1601 1.427 . S
C1594 H1585 0.930 . S
C1594 C1592 1.378 . S
C1594 C1595 1.367 . S
C1595 C1594 1.367 . S
C1595 C1597 1.433 . S
C1596 C1592 1.350 . S
C1596 C1593 1.463 . S
C1596 N1600 1.427 . S
C1597 H1587 0.929 . S
C1597 C1595 1.433 . S
C1597 N1600 1.384 . S
C1598 H1589 0.929 . S
C1598 C1590 1.378 . S
C1598 C1593 1.350 . S
C1599 H1586 0.929 . S
C1599 C1591 1.433 . S
C1599 N1601 1.384 . S
N1600 C1596 1.427 . S
N1600 C1597 1.384 . S
N1601 C1593 1.427 . S
N1601 C1599 1.384 . S
H1602 C1608 0.930 . S
H1603 C1612 0.930 . S
H1604 C1617 0.929 . S
H1605 C1615 0.929 . S
H1606 C1610 0.929 . S
H1607 C1616 0.929 . S
C1608 H1602 0.930 . S
C1608 C1609 1.367 . S
C1608 C1616 1.378 . S
C1609 C1608 1.367 . S
C1609 C1617 1.433 . S
C1610 H1606 0.929 . S
C1610 C1612 1.378 . S
C1610 C1614 1.350 . S
C1611 C1614 1.463 . S
C1611 C1616 1.350 . S
C1611 N1619 1.427 . S
C1612 H1603 0.930 . S
C1612 C1610 1.378 . S
C1612 C1613 1.367 . S
C1613 C1612 1.367 . S
C1613 C1615 1.433 . S
C1614 C1610 1.350 . S
C1614 C1611 1.463 . S
C1614 N1618 1.427 . S
C1615 H1605 0.929 . S
C1615 C1613 1.433 . S
C1615 N1618 1.384 . S
C1616 H1607 0.929 . S
C1616 C1608 1.378 . S
C1616 C1611 1.350 . S
C1617 H1604 0.929 . S
C1617 C1609 1.433 . S
C1617 N1619 1.384 . S
N1618 C1614 1.427 . S
N1618 C1615 1.384 . S
N1619 C1611 1.427 . S
N1619 C1617 1.384 . S
H1620 C1626 0.930 . S
H1621 C1630 0.930 . S
H1622 C1635 0.929 . S
H1623 C1633 0.929 . S
H1624 C1628 0.929 . S
H1625 C1634 0.929 . S
C1626 H1620 0.930 . S
C1626 C1627 1.367 . S
C1626 C1634 1.378 . S
C1627 C1626 1.367 . S
C1627 C1635 1.433 . S
C1628 H1624 0.929 . S
C1628 C1630 1.378 . S
C1628 C1632 1.350 . S
C1629 C1632 1.463 . S
C1629 C1634 1.350 . S
C1629 N1637 1.427 . S
C1630 H1621 0.930 . S
C1630 C1628 1.378 . S
C1630 C1631 1.367 . S
C1631 C1630 1.367 . S
C1631 C1633 1.433 . S
C1632 C1628 1.350 . S
C1632 C1629 1.463 . S
C1632 N1636 1.427 . S
C1633 H1623 0.929 . S
C1633 C1631 1.433 . S
C1633 N1636 1.384 . S
C1634 H1625 0.929 . S
C1634 C1626 1.378 . S
C1634 C1629 1.350 . S
C1635 H1622 0.929 . S
C1635 C1627 1.433 . S
C1635 N1637 1.384 . S
N1636 C1632 1.427 . S
N1636 C1633 1.384 . S
N1637 C1629 1.427 . S
N1637 C1635 1.384 . S
H1638 C1644 0.930 . S
H1639 C1648 0.930 . S
H1640 C1653 0.929 . S
H1641 C1651 0.929 . S
H1642 C1646 0.929 . S
H1643 C1652 0.929 . S
C1644 H1638 0.930 . S
C1644 C1645 1.367 . S
C1644 C1652 1.378 . S
C1645 C1644 1.367 . S
C1645 C1653 1.433 . S
C1646 H1642 0.929 . S
C1646 C1648 1.378 . S
C1646 C1650 1.350 . S
C1647 C1650 1.463 . S
C1647 C1652 1.350 . S
C1647 N1655 1.427 . S
C1648 H1639 0.930 . S
C1648 C1646 1.378 . S
C1648 C1649 1.367 . S
C1649 C1648 1.367 . S
C1649 C1651 1.433 . S
C1650 C1646 1.350 . S
C1650 C1647 1.463 . S
C1650 N1654 1.427 . S
C1651 H1641 0.929 . S
C1651 C1649 1.433 . S
C1651 N1654 1.384 . S
C1652 H1643 0.929 . S
C1652 C1644 1.378 . S
C1652 C1647 1.350 . S
C1653 H1640 0.929 . S
C1653 C1645 1.433 . S
C1653 N1655 1.384 . S
N1654 C1650 1.427 . S
N1654 C1651 1.384 . S
N1655 C1647 1.427 . S
N1655 C1653 1.384 . S
H1656 C1662 0.930 . S
H1657 C1666 0.930 . S
H1658 C1671 0.929 . S
H1659 C1669 0.929 . S
H1660 C1664 0.929 . S
H1661 C1670 0.929 . S
C1662 H1656 0.930 . S
C1662 C1663 1.367 . S
C1662 C1670 1.378 . S
C1663 C1662 1.367 . S
C1663 C1671 1.433 . S
C1664 H1660 0.929 . S
C1664 C1666 1.378 . S
C1664 C1668 1.350 . S
C1665 C1668 1.463 . S
C1665 C1670 1.350 . S
C1665 N1673 1.427 . S
C1666 H1657 0.930 . S
C1666 C1664 1.378 . S
C1666 C1667 1.367 . S
C1667 C1666 1.367 . S
C1667 C1669 1.433 . S
C1668 C1664 1.350 . S
C1668 C1665 1.463 . S
C1668 N1672 1.427 . S
C1669 H1659 0.929 . S
C1669 C1667 1.433 . S
C1669 N1672 1.384 . S
C1670 H1661 0.929 . S
C1670 C1662 1.378 . S
C1670 C1665 1.350 . S
C1671 H1658 0.929 . S
C1671 C1663 1.433 . S
C1671 N1673 1.384 . S
N1672 C1668 1.427 . S
N1672 C1669 1.384 . S
N1673 C1665 1.427 . S
N1673 C1671 1.384 . S
H1674 C1680 0.930 . S
H1675 C1684 0.930 . S
H1676 C1689 0.929 . S
H1677 C1687 0.929 . S
H1678 C1682 0.929 . S
H1679 C1688 0.929 . S
C1680 H1674 0.930 . S
C1680 C1681 1.367 . S
C1680 C1688 1.378 . S
C1681 C1680 1.367 . S
C1681 C1689 1.433 . S
C1682 H1678 0.929 . S
C1682 C1684 1.378 . S
C1682 C1686 1.350 . S
C1683 C1686 1.463 . S
C1683 C1688 1.350 . S
C1683 N1691 1.427 . S
C1684 H1675 0.930 . S
C1684 C1682 1.378 . S
C1684 C1685 1.367 . S
C1685 C1684 1.367 . S
C1685 C1687 1.433 . S
C1686 C1682 1.350 . S
C1686 C1683 1.463 . S
C1686 N1690 1.427 . S
C1687 H1677 0.929 . S
C1687 C1685 1.433 . S
C1687 N1690 1.384 . S
C1688 H1679 0.929 . S
C1688 C1680 1.378 . S
C1688 C1683 1.350 . S
C1689 H1676 0.929 . S
C1689 C1681 1.433 . S
C1689 N1691 1.384 . S
N1690 C1686 1.427 . S
N1690 C1687 1.384 . S
N1691 C1683 1.427 . S
N1691 C1689 1.384 . S
H1692 C1698 0.930 . S
H1693 C1702 0.941 . S
H1694 C1707 0.929 . S
H1695 C1705 0.929 . S
H1696 C1700 0.939 . S
H1697 C1706 0.929 . S
C1698 H1692 0.930 . S
C1698 C1699 1.367 . S
C1698 C1706 1.378 . S
C1699 C1698 1.367 . S
C1699 C1707 1.433 . S
C1700 H1696 0.939 . S
C1700 C1702 1.378 . S
C1700 C1704 1.350 . S
C1701 C1704 1.463 . S
C1701 C1706 1.350 . S
C1701 N1709 1.427 . S
C1702 H1693 0.941 . S
C1702 C1700 1.378 . S
C1702 C1703 1.367 . S
C1703 C1702 1.367 . S
C1703 C1705 1.433 . S
C1704 C1700 1.350 . S
C1704 C1701 1.463 . S
C1704 N1708 1.427 . S
C1705 H1695 0.929 . S
C1705 C1703 1.433 . S
C1705 N1708 1.384 . S
C1706 H1697 0.929 . S
C1706 C1698 1.378 . S
C1706 C1701 1.350 . S
C1707 H1694 0.929 . S
C1707 C1699 1.433 . S
C1707 N1709 1.384 . S
N1708 C1704 1.427 . S
N1708 C1705 1.384 . S
N1709 C1701 1.427 . S
N1709 C1707 1.384 . S
H1710 C1716 0.930 . S
H1711 C1720 0.930 . S
H1712 C1725 0.929 . S
H1713 C1723 0.929 . S
H1714 C1718 0.929 . S
H1715 C1724 0.929 . S
C1716 H1710 0.930 . S
C1716 C1717 1.367 . S
C1716 C1724 1.378 . S
C1717 C1716 1.367 . S
C1717 C1725 1.433 . S
C1718 H1714 0.929 . S
C1718 C1720 1.378 . S
C1718 C1722 1.350 . S
C1719 C1722 1.463 . S
C1719 C1724 1.350 . S
C1719 N1727 1.427 . S
C1720 H1711 0.930 . S
C1720 C1718 1.378 . S
C1720 C1721 1.367 . S
C1721 C1720 1.367 . S
C1721 C1723 1.433 . S
C1722 C1718 1.350 . S
C1722 C1719 1.463 . S
C1722 N1726 1.427 . S
C1723 H1713 0.929 . S
C1723 C1721 1.433 . S
C1723 N1726 1.384 . S
C1724 H1715 0.929 . S
C1724 C1716 1.378 . S
C1724 C1719 1.350 . S
C1725 H1712 0.929 . S
C1725 C1717 1.433 . S
C1725 N1727 1.384 . S
N1726 C1722 1.427 . S
N1726 C1723 1.384 . S
N1727 C1719 1.427 . S
N1727 C1725 1.384 . S
H1728 C1734 0.930 . S
H1729 C1738 0.930 . S
H1730 C1743 0.929 . S
H1731 C1741 0.929 . S
H1732 C1736 0.929 . S
H1733 C1742 0.929 . S
C1734 H1728 0.930 . S
C1734 C1735 1.367 . S
C1734 C1742 1.378 . S
C1735 C1734 1.367 . S
C1735 C1743 1.433 . S
C1736 H1732 0.929 . S
C1736 C1738 1.378 . S
C1736 C1740 1.350 . S
C1737 C1740 1.463 . S
C1737 C1742 1.350 . S
C1737 N1745 1.427 . S
C1738 H1729 0.930 . S
C1738 C1736 1.378 . S
C1738 C1739 1.367 . S
C1739 C1738 1.367 . S
C1739 C1741 1.433 . S
C1740 C1736 1.350 . S
C1740 C1737 1.463 . S
C1740 N1744 1.427 . S
C1741 H1731 0.929 . S
C1741 C1739 1.433 . S
C1741 N1744 1.384 . S
C1742 H1733 0.929 . S
C1742 C1734 1.378 . S
C1742 C1737 1.350 . S
C1743 H1730 0.929 . S
C1743 C1735 1.433 . S
C1743 N1745 1.384 . S
N1744 C1740 1.427 . S
N1744 C1741 1.384 . S
N1745 C1737 1.427 . S
N1745 C1743 1.384 . S
H1746 C1752 0.930 . S
H1747 C1756 0.930 . S
H1748 C1761 0.929 . S
H1749 C1759 0.929 . S
H1750 C1754 0.929 . S
H1751 C1760 0.929 . S
C1752 H1746 0.930 . S
C1752 C1753 1.367 . S
C1752 C1760 1.378 . S
C1753 C1752 1.367 . S
C1753 C1761 1.433 . S
C1754 H1750 0.929 . S
C1754 C1756 1.378 . S
C1754 C1758 1.350 . S
C1755 C1758 1.463 . S
C1755 C1760 1.350 . S
C1755 N1763 1.427 . S
C1756 H1747 0.930 . S
C1756 C1754 1.378 . S
C1756 C1757 1.367 . S
C1757 C1756 1.367 . S
C1757 C1759 1.433 . S
C1758 C1754 1.350 . S
C1758 C1755 1.463 . S
C1758 N1762 1.427 . S
C1759 H1749 0.929 . S
C1759 C1757 1.433 . S
C1759 N1762 1.384 . S
C1760 H1751 0.929 . S
C1760 C1752 1.378 . S
C1760 C1755 1.350 . S
C1761 H1748 0.929 . S
C1761 C1753 1.433 . S
C1761 N1763 1.384 . S
N1762 C1758 1.427 . S
N1762 C1759 1.384 . S
N1763 C1755 1.427 . S
N1763 C1761 1.384 . S
H1764 C1770 0.930 . S
H1765 C1774 0.930 . S
H1766 C1779 0.929 . S
H1767 C1777 0.929 . S
H1768 C1772 0.929 . S
H1769 C1778 0.929 . S
C1770 H1764 0.930 . S
C1770 C1771 1.367 . S
C1770 C1778 1.378 . S
C1771 C1770 1.367 . S
C1771 C1779 1.433 . S
C1772 H1768 0.929 . S
C1772 C1774 1.378 . S
C1772 C1776 1.350 . S
C1773 C1776 1.463 . S
C1773 C1778 1.350 . S
C1773 N1781 1.427 . S
C1774 H1765 0.930 . S
C1774 C1772 1.378 . S
C1774 C1775 1.367 . S
C1775 C1774 1.367 . S
C1775 C1777 1.433 . S
C1776 C1772 1.350 . S
C1776 C1773 1.463 . S
C1776 N1780 1.427 . S
C1777 H1767 0.929 . S
C1777 C1775 1.433 . S
C1777 N1780 1.384 . S
C1778 H1769 0.929 . S
C1778 C1770 1.378 . S
C1778 C1773 1.350 . S
C1779 H1766 0.929 . S
C1779 C1771 1.433 . S
C1779 N1781 1.384 . S
N1780 C1776 1.427 . S
N1780 C1777 1.384 . S
N1781 C1773 1.427 . S
N1781 C1779 1.384 . S
H1782 C1788 0.930 . S
H1783 C1792 0.930 . S
H1784 C1797 0.929 . S
H1785 C1795 0.929 . S
H1786 C1790 0.929 . S
H1787 C1796 0.929 . S
C1788 H1782 0.930 . S
C1788 C1789 1.367 . S
C1788 C1796 1.378 . S
C1789 C1788 1.367 . S
C1789 C1797 1.433 . S
C1790 H1786 0.929 . S
C1790 C1792 1.378 . S
C1790 C1794 1.350 . S
C1791 C1794 1.463 . S
C1791 C1796 1.350 . S
C1791 N1799 1.427 . S
C1792 H1783 0.930 . S
C1792 C1790 1.378 . S
C1792 C1793 1.367 . S
C1793 C1792 1.367 . S
C1793 C1795 1.433 . S
C1794 C1790 1.350 . S
C1794 C1791 1.463 . S
C1794 N1798 1.427 . S
C1795 H1785 0.929 . S
C1795 C1793 1.433 . S
C1795 N1798 1.384 . S
C1796 H1787 0.929 . S
C1796 C1788 1.378 . S
C1796 C1791 1.350 . S
C1797 H1784 0.929 . S
C1797 C1789 1.433 . S
C1797 N1799 1.384 . S
N1798 C1794 1.427 . S
N1798 C1795 1.384 . S
N1799 C1791 1.427 . S
N1799 C1797 1.384 . S
C511 C81 1.478 . S
C515 C11 1.483 . S
C529 C53 1.485 . S
C533 C25 1.477 . S
C547 C39 1.485 . S
C551 C67 1.479 . S
C565 C95 1.481 . S
C569 C165 1.484 . S
C583 C109 1.477 . S
C587 C137 1.484 . S
C601 C151 1.485 . S
C605 C123 1.478 . S
C619 C179 1.478 . S
C623 C249 1.483 . S
C637 C193 1.485 . S
C641 C221 1.478 . S
C655 C207 1.478 . S
C659 C235 1.485 . S
C673 C333 1.480 . S
C677 C263 1.484 . S
C691 C277 1.480 . S
C695 C305 1.485 . S
C709 C319 1.477 . S
C713 C291 1.484 . S
C727 C417 1.485 . S
C731 C347 1.477 . S
C745 C389 1.477 . S
C749 C361 1.485 . S
C763 C403 1.481 . S
C767 C375 1.479 . S
C781 C431 1.484 . S
C785 C501 1.477 . S
C799 C445 1.483 . S
C803 C473 1.478 . S
C817 C459 1.477 . S
C821 C487 1.485 . S
C835 C79 1.587 . S
C839 C9 1.586 . S
C853 C23 1.588 . S
C857 C51 1.587 . S
C871 C65 1.586 . S
C875 C37 1.586 . S
C889 C93 1.586 . S
C893 C163 1.587 . S
C907 C107 1.586 . S
C911 C135 1.588 . S
C925 C149 1.587 . S
C929 C121 1.585 . S
C943 C177 1.588 . S
C947 C247 1.586 . S
C961 C219 1.588 . S
C965 C191 1.586 . S
C979 C233 1.588 . S
C983 C205 1.586 . S
C997 C261 1.586 . S
C1001 C331 1.587 . S
C1015 C275 1.587 . S
C1019 C303 1.586 . S
C1033 C317 1.585 . S
C1037 C289 1.588 . S
C1051 C415 1.588 . S
C1055 C345 1.586 . S
C1069 C359 1.586 . S
C1073 C387 1.588 . S
C1087 C373 1.585 . S
C1091 C401 1.587 . S
C1105 C499 1.586 . S
C1109 C429 1.588 . S
C1123 C471 1.586 . S
C1127 C443 1.588 . S
C1141 C485 1.586 . S
C1145 C457 1.587 . S
C1159 C229 1.640 . S
C1163 C5 1.640 . S
C1177 C243 1.640 . S
C1181 C19 1.640 . S
C1195 C215 1.640 . S
C1199 C33 1.640 . S
C1213 C47 1.640 . S
C1217 C369 1.640 . S
C1231 C61 1.639 . S
C1235 C341 1.639 . S
C1249 C75 1.639 . S
C1253 C355 1.639 . S
C1267 C89 1.640 . S
C1271 C481 1.640 . S
C1285 C103 1.640 . S
C1289 C495 1.639 . S
C1303 C117 1.640 . S
C1307 C467 1.640 . S
C1321 C131 1.640 . S
C1325 C285 1.640 . S
C1339 C257 1.640 . S
C1343 C145 1.640 . S
C1357 C271 1.640 . S
C1361 C159 1.640 . S
C1375 C397 1.639 . S
C1379 C173 1.639 . S
C1393 C187 1.638 . S
C1397 C411 1.638 . S
C1411 C201 1.639 . S
C1415 C383 1.639 . S
C1429 C299 1.639 . S
C1433 C453 1.639 . S
C1447 C313 1.639 . S
C1451 C425 1.639 . S
C1465 C439 1.639 . S
C1469 C327 1.639 . S
C1483 C0 1.322 . S
C1487 C140 1.311 . S
C1501 C154 1.311 . S
C1505 C14 1.322 . S
C1519 C126 1.316 . S
C1523 C28 1.317 . S
C1537 C42 1.321 . S
C1541 C112 1.311 . S
C1555 C56 1.311 . S
C1559 C84 1.321 . S
C1573 C70 1.322 . S
C1577 C98 1.311 . S
C1591 C168 1.319 . S
C1595 C308 1.314 . S
C1609 C322 1.312 . S
C1613 C182 1.322 . S
C1627 C294 1.312 . S
C1631 C196 1.320 . S
C1645 C210 1.320 . S
C1649 C280 1.313 . S
C1663 C224 1.315 . S
C1667 C252 1.318 . S
C1681 C266 1.315 . S
C1685 C238 1.318 . S
C1699 C336 1.314 . S
C1703 C476 1.319 . S
C1717 C490 1.311 . S
C1721 C350 1.322 . S
C1735 C364 1.318 . S
C1739 C462 1.315 . S
C1753 C378 1.311 . S
C1757 C448 1.321 . S
C1771 C420 1.317 . S
C1775 C392 1.316 . S
C1789 C406 1.318 . S
C1793 C434 1.315 . S
