# Generated by pormake.
# Topology wje, (4)-cn, num edge types: 1
# Building blocks:
#     Node 0, Type 0, BuildingBlock: CEKHIL_clean_sbu_0, # of connection points: 4
#     Node 1, Type 0, BuildingBlock: CEKHIL_clean_sbu_0, # of connection points: 4
#     Node 2, Type 0, BuildingBlock: CEKHIL_clean_sbu_0, # of connection points: 4
#     Node 3, Type 0, BuildingBlock: CEKHIL_clean_sbu_0, # of connection points: 4
#     Node 4, Type 0, BuildingBlock: CEKHIL_clean_sbu_0, # of connection points: 4
#     Node 5, Type 0, BuildingBlock: CEKHIL_clean_sbu_0, # of connection points: 4
#     Node 6, Type 0, BuildingBlock: CEKHIL_clean_sbu_0, # of connection points: 4
#     Node 7, Type 0, BuildingBlock: CEKHIL_clean_sbu_0, # of connection points: 4
#     Node 8, Type 0, BuildingBlock: CEKHIL_clean_sbu_0, # of connection points: 4
#     Node 9, Type 0, BuildingBlock: CEKHIL_clean_sbu_0, # of connection points: 4
#     Node 10, Type 0, BuildingBlock: CEKHIL_clean_sbu_0, # of connection points: 4
#     Node 11, Type 0, BuildingBlock: CEKHIL_clean_sbu_0, # of connection points: 4
#     Edge 12, Type (0, 0), BuildingBlock: TEMPAE_clean_linker_10, # of connection points: 2
#     Edge 13, Type (0, 0), BuildingBlock: TEMPAE_clean_linker_10, # of connection points: 2
#     Edge 14, Type (0, 0), BuildingBlock: TEMPAE_clean_linker_10, # of connection points: 2
#     Edge 15, Type (0, 0), BuildingBlock: TEMPAE_clean_linker_10, # of connection points: 2
#     Edge 16, Type (0, 0), BuildingBlock: TEMPAE_clean_linker_10, # of connection points: 2
#     Edge 17, Type (0, 0), BuildingBlock: TEMPAE_clean_linker_10, # of connection points: 2
#     Edge 18, Type (0, 0), BuildingBlock: TEMPAE_clean_linker_10, # of connection points: 2
#     Edge 19, Type (0, 0), BuildingBlock: TEMPAE_clean_linker_10, # of connection points: 2
#     Edge 20, Type (0, 0), BuildingBlock: TEMPAE_clean_linker_10, # of connection points: 2
#     Edge 21, Type (0, 0), BuildingBlock: TEMPAE_clean_linker_10, # of connection points: 2
#     Edge 22, Type (0, 0), BuildingBlock: TEMPAE_clean_linker_10, # of connection points: 2
#     Edge 23, Type (0, 0), BuildingBlock: TEMPAE_clean_linker_10, # of connection points: 2
#     Edge 24, Type (0, 0), BuildingBlock: TEMPAE_clean_linker_10, # of connection points: 2
#     Edge 25, Type (0, 0), BuildingBlock: TEMPAE_clean_linker_10, # of connection points: 2
#     Edge 26, Type (0, 0), BuildingBlock: TEMPAE_clean_linker_10, # of connection points: 2
#     Edge 27, Type (0, 0), BuildingBlock: TEMPAE_clean_linker_10, # of connection points: 2
#     Edge 28, Type (0, 0), BuildingBlock: TEMPAE_clean_linker_10, # of connection points: 2
#     Edge 29, Type (0, 0), BuildingBlock: TEMPAE_clean_linker_10, # of connection points: 2
#     Edge 30, Type (0, 0), BuildingBlock: TEMPAE_clean_linker_10, # of connection points: 2
#     Edge 31, Type (0, 0), BuildingBlock: TEMPAE_clean_linker_10, # of connection points: 2
#     Edge 32, Type (0, 0), BuildingBlock: TEMPAE_clean_linker_10, # of connection points: 2
#     Edge 33, Type (0, 0), BuildingBlock: TEMPAE_clean_linker_10, # of connection points: 2
#     Edge 34, Type (0, 0), BuildingBlock: TEMPAE_clean_linker_10, # of connection points: 2
#     Edge 35, Type (0, 0), BuildingBlock: TEMPAE_clean_linker_10, # of connection points: 2
# Relax obj value: 0.162
# Max RMSD: 0.099
# Mean RMSD: 0.099
data_MOF--net-wje--node1-CEKHIL_clean_sbu_0--edge1-TEMPAE_clean_linker_10
_symmetry_space_group_name_H-M    P1
_symmetry_Int_Tables_number       1
_symmetry_cell_setting            triclinic
loop_
_symmetry_equiv_pos_as_xyz
'x, y, z'
_cell_length_a     39.736119
_cell_length_b     39.719431
_cell_length_c     38.326764
_cell_angle_alpha  89.998217
_cell_angle_beta   90.000431
_cell_angle_gamma 119.94868
loop_
_atom_site_label
_atom_site_type_symbol
_atom_site_fract_x
_atom_site_fract_y
_atom_site_fract_z
_atom_type_partial_charge
Co0 Co 0.31442 0.025 0.30029 0.0
O1 O 0.31774 0.03857 0.25168 0.0
O2 O 0.34639 0.08141 0.29366 0.0
C3 C 0.24957 0.98498 0.29979 0.0
O4 O 0.31466 0.02022 0.35413 0.0
Co5 Co 0.2831 0.93846 0.32127 0.0
O6 O 0.27459 0.95693 0.36664 0.0
C7 C 0.36487 0.98686 0.29838 0.0
C8 C 0.33814 0.07471 0.26054 0.0
C9 C 0.29422 0.99241 0.37595 0.0
O10 O 0.36106 0.01722 0.29569 0.0
O11 O 0.33694 0.95307 0.30638 0.0
O12 O 0.26381 0.02212 0.30365 0.0
O13 O 0.27449 0.97396 0.29368 0.0
Co14 Co 0.28821 0.3126 0.63336 0.0
O15 O 0.27761 0.31599 0.58485 0.0
O16 O 0.26465 0.34547 0.62693 0.0
C17 C 0.26204 0.24753 0.63321 0.0
O18 O 0.29394 0.31299 0.68713 0.0
Co19 Co 0.34216 0.27937 0.65331 0.0
O20 O 0.31666 0.27235 0.69928 0.0
C21 C 0.37681 0.36102 0.62944 0.0
C22 C 0.26258 0.33703 0.59381 0.0
C23 C 0.30145 0.29253 0.70884 0.0
O24 O 0.34304 0.3584 0.62822 0.0
O25 O 0.38168 0.33224 0.63652 0.0
O26 O 0.23989 0.2626 0.63731 0.0
O27 O 0.29796 0.27176 0.62656 0.0
Co28 Co 0.97235 0.29336 0.96807 0.0
O29 O 0.95886 0.28003 0.91989 0.0
O30 O 0.91569 0.2657 0.96157 0.0
C31 C 0.01557 0.27244 0.9705 0.0
O32 O 0.97792 0.30199 0.02149 0.0
Co33 Co 0.05847 0.35609 0.98377 0.0
O34 O 0.04191 0.34092 0.03283 0.0
C35 C 0.00547 0.37971 0.95389 0.0
C36 C 0.92266 0.26339 0.92863 0.0
C37 C 0.00685 0.31968 0.04295 0.0
O38 O 0.97623 0.34576 0.96036 0.0
O39 O 0.04083 0.38807 0.95744 0.0
O40 O 0.97879 0.24792 0.97444 0.0
O41 O 0.02409 0.30712 0.96178 0.0
Co42 Co 0.67984 0.97257 0.29792 0.0
O43 O 0.67543 0.9585 0.24937 0.0
O44 O 0.64777 0.91611 0.29184 0.0
C45 C 0.74471 0.0125 0.2966 0.0
O46 O 0.68067 0.9779 0.35173 0.0
Co47 Co 0.71164 0.05941 0.31817 0.0
O48 O 0.7206 0.0414 0.3636 0.0
C49 C 0.62955 0.0109 0.29624 0.0
C50 C 0.65518 0.92245 0.25857 0.0
C51 C 0.70129 0.006 0.37324 0.0
O52 O 0.63316 0.98038 0.29405 0.0
O53 O 0.65778 0.04482 0.30341 0.0
O54 O 0.73045 0.97537 0.30051 0.0
O55 O 0.71974 0.0235 0.29072 0.0
Co56 Co 0.70592 0.67796 0.63338 0.0
O57 O 0.71572 0.67357 0.58481 0.0
O58 O 0.73201 0.64743 0.62751 0.0
C59 C 0.72864 0.74248 0.63166 0.0
O60 O 0.70164 0.67896 0.68725 0.0
Co61 Co 0.64878 0.70704 0.65408 0.0
O62 O 0.67663 0.71767 0.69917 0.0
C63 C 0.61773 0.62504 0.63289 0.0
C64 C 0.73258 0.65432 0.59417 0.0
C65 C 0.69368 0.69926 0.70875 0.0
O66 O 0.65231 0.63005 0.62979 0.0
O67 O 0.61068 0.65224 0.64075 0.0
O68 O 0.75252 0.72941 0.63559 0.0
O69 O 0.69293 0.71658 0.62606 0.0
Co70 Co 0.02862 0.71095 0.96883 0.0
O71 O 0.04387 0.72678 0.92132 0.0
O72 O 0.08531 0.7368 0.9638 0.0
C73 C 0.98711 0.73395 0.97176 0.0
O74 O 0.02146 0.69984 0.02182 0.0
Co75 Co 0.94147 0.65003 0.98249 0.0
O76 O 0.95703 0.66266 0.03206 0.0
C77 C 0.9931 0.62454 0.9526 0.0
C78 C 0.07961 0.74162 0.9311 0.0
C79 C 0.99204 0.68231 0.04276 0.0
O80 O 0.02292 0.65808 0.95919 0.0
O81 O 0.95804 0.61711 0.95628 0.0
O82 O 0.02396 0.7572 0.97692 0.0
O83 O 0.97758 0.69932 0.96188 0.0
Co84 Co 0.9769 0.68232 0.38202 0.0
O85 O 0.96179 0.6817 0.42985 0.0
O86 O 0.92031 0.65049 0.38744 0.0
C87 C 0.01715 0.74726 0.37999 0.0
O88 O 0.98345 0.67928 0.32867 0.0
Co89 Co 0.06452 0.7121 0.36592 0.0
O90 O 0.0478 0.71032 0.31701 0.0
C91 C 0.01464 0.6319 0.39161 0.0
C92 C 0.92601 0.66063 0.42022 0.0
C93 C 0.01246 0.69304 0.30705 0.0
O94 O 0.98422 0.63575 0.39043 0.0
O95 O 0.04906 0.65975 0.38547 0.0
O96 O 0.98013 0.73282 0.37511 0.0
O97 O 0.02769 0.72262 0.38884 0.0
Co98 Co 0.29281 0.97568 0.71412 0.0
O99 O 0.28299 0.96094 0.76247 0.0
O100 O 0.26744 0.91904 0.71939 0.0
C101 C 0.26922 0.01682 0.71592 0.0
O102 O 0.29782 0.98224 0.66046 0.0
Co103 Co 0.35072 0.06267 0.69667 0.0
O104 O 0.32585 0.04666 0.6501 0.0
C105 C 0.38066 0.01212 0.72106 0.0
C106 C 0.26694 0.92502 0.75282 0.0
C107 C 0.30787 0.01149 0.6396 0.0
O108 O 0.34656 0.9819 0.71799 0.0
O109 O 0.38736 0.04692 0.71686 0.0
O110 O 0.24574 0.97982 0.71186 0.0
O111 O 0.30488 0.02677 0.72209 0.0
Co112 Co 0.31642 0.29346 0.04762 0.0
O113 O 0.31985 0.2826 0.09603 0.0
O114 O 0.34696 0.26731 0.05343 0.0
C115 C 0.25194 0.27069 0.04876 0.0
O116 O 0.31597 0.29877 0.9938 0.0
Co117 Co 0.28773 0.3513 0.02821 0.0
O118 O 0.27781 0.32457 0.9826 0.0
C119 C 0.36938 0.38171 0.04988 0.0
C120 C 0.33913 0.26581 0.08664 0.0
C121 C 0.29595 0.30739 0.97256 0.0
O122 O 0.36428 0.34702 0.05216 0.0
O123 O 0.34226 0.389 0.04243 0.0
O124 O 0.26503 0.24686 0.0445 0.0
O125 O 0.27775 0.30626 0.05504 0.0
Co126 Co 0.01891 0.3125 0.38232 0.0
O127 O 0.03359 0.31298 0.43029 0.0
O128 O 0.07553 0.34378 0.38814 0.0
C129 C 0.97813 0.24769 0.3801 0.0
O130 O 0.01278 0.31572 0.32888 0.0
Co131 Co 0.93156 0.28368 0.3657 0.0
O132 O 0.94849 0.28489 0.31697 0.0
C133 C 0.98229 0.3641 0.39044 0.0
C134 C 0.06951 0.33378 0.42095 0.0
C135 C 0.98387 0.30206 0.30714 0.0
O136 O 0.01224 0.35947 0.39053 0.0
O137 O 0.94782 0.33693 0.38343 0.0
O138 O 0.01514 0.26178 0.3755 0.0
O139 O 0.96785 0.27254 0.3889 0.0
Co140 Co 0.70914 0.02377 0.71137 0.0
O141 O 0.72138 0.03779 0.75964 0.0
O142 O 0.73671 0.08048 0.71724 0.0
C143 C 0.72984 0.98031 0.7109 0.0
O144 O 0.70212 0.01778 0.65785 0.0
Co145 Co 0.64727 0.93777 0.69432 0.0
O146 O 0.67139 0.95323 0.64733 0.0
C147 C 0.622 0.99129 0.72037 0.0
C148 C 0.73851 0.07386 0.75034 0.0
C149 C 0.69043 0.98839 0.63688 0.0
O150 O 0.65676 0.02031 0.71697 0.0
O151 O 0.61303 0.95585 0.71585 0.0
O152 O 0.75455 0.01704 0.70689 0.0
O153 O 0.69489 0.97193 0.71842 0.0
Co154 Co 0.68524 0.70787 0.04726 0.0
O155 O 0.68175 0.71958 0.09538 0.0
O156 O 0.65276 0.73202 0.05239 0.0
C157 C 0.75015 0.73319 0.04828 0.0
O158 O 0.68542 0.70127 0.99361 0.0
Co159 Co 0.71734 0.65243 0.02939 0.0
O160 O 0.72534 0.67734 0.98302 0.0
C161 C 0.63558 0.61938 0.05209 0.0
C162 C 0.66118 0.73481 0.08554 0.0
C163 C 0.70588 0.69301 0.97257 0.0
O164 O 0.63889 0.65344 0.05277 0.0
O165 O 0.66395 0.61366 0.04559 0.0
O166 O 0.73564 0.75572 0.04332 0.0
O167 O 0.72541 0.69744 0.05514 0.0
C168 C 0.32751 0.09542 0.20196 0.0
C169 C 0.34706 0.10576 0.23416 0.0
C170 C 0.33137 0.12359 0.17764 0.0
C171 C 0.35627 0.16349 0.18499 0.0
C172 C 0.37781 0.17418 0.21662 0.0
C173 C 0.37253 0.14525 0.24108 0.0
C174 C 0.30692 0.11057 0.14491 0.0
C175 C 0.40553 0.21626 0.2251 0.0
C176 C 0.37414 0.23034 0.10645 0.0
C177 C 0.34713 0.24263 0.11258 0.0
C178 C 0.37928 0.20647 0.13078 0.0
C179 C 0.35595 0.19353 0.16135 0.0
C180 C 0.32914 0.20645 0.16775 0.0
C181 C 0.32553 0.23113 0.14369 0.0
C182 C 0.40904 0.1944 0.12342 0.0
C183 C 0.30272 0.19266 0.19923 0.0
H184 H 0.30764 0.06507 0.19624 0.0
H185 H 0.38794 0.15359 0.26572 0.0
H186 H 0.28601 0.12139 0.14526 0.0
H187 H 0.32547 0.12297 0.12149 0.0
H188 H 0.29033 0.07843 0.14224 0.0
H189 H 0.42423 0.21953 0.24786 0.0
H190 H 0.42432 0.23123 0.20229 0.0
H191 H 0.3889 0.23116 0.23113 0.0
H192 H 0.39112 0.23922 0.08264 0.0
H193 H 0.30436 0.24017 0.1487 0.0
H194 H 0.39417 0.163 0.11696 0.0
H195 H 0.42711 0.1988 0.14693 0.0
H196 H 0.42836 0.21091 0.10132 0.0
H197 H 0.28355 0.16065 0.19799 0.0
H198 H 0.28418 0.20624 0.20098 0.0
H199 H 0.32005 0.1993 0.22351 0.0
C200 C 0.2355 0.33083 0.53372 0.0
C201 C 0.24064 0.34641 0.56753 0.0
C202 C 0.21076 0.33403 0.50941 0.0
C203 C 0.19094 0.35409 0.51858 0.0
C204 C 0.1978 0.37201 0.55191 0.0
C205 C 0.22222 0.36762 0.57614 0.0
C206 C 0.20397 0.31369 0.47465 0.0
C207 C 0.17808 0.39449 0.56252 0.0
C208 C 0.13924 0.37228 0.44234 0.0
C209 C 0.10103 0.34154 0.44638 0.0
C210 C 0.16853 0.37813 0.46663 0.0
C211 C 0.15971 0.35186 0.49489 0.0
C212 C 0.12109 0.32095 0.49898 0.0
C213 C 0.09235 0.31658 0.47513 0.0
C214 C 0.20899 0.41213 0.46183 0.0
C215 C 0.11029 0.29139 0.52785 0.0
H216 H 0.24955 0.31443 0.52656 0.0
H217 H 0.22605 0.37994 0.60205 0.0
H218 H 0.17346 0.28953 0.47317 0.0
H219 H 0.20838 0.33398 0.45299 0.0
H220 H 0.22352 0.30156 0.47054 0.0
H221 H 0.1908 0.41157 0.58673 0.0
H222 H 0.1803 0.41454 0.54132 0.0
H223 H 0.14676 0.37407 0.56713 0.0
H224 H 0.14617 0.39185 0.42038 0.0
H225 H 0.06302 0.29252 0.47842 0.0
H226 H 0.22917 0.40149 0.45491 0.0
H227 H 0.21954 0.4286 0.48661 0.0
H228 H 0.21028 0.43219 0.44101 0.0
H229 H 0.12712 0.27611 0.52499 0.0
H230 H 0.07886 0.26937 0.52779 0.0
H231 H 0.1178 0.30607 0.5536 0.0
C232 C 0.77756 0.095 0.80498 0.0
C233 C 0.76192 0.10465 0.77638 0.0
C234 C 0.80103 0.12286 0.82982 0.0
C235 C 0.80834 0.16148 0.82689 0.0
C236 C 0.79156 0.17124 0.7987 0.0
C237 C 0.76909 0.14287 0.77339 0.0
C238 C 0.81923 0.11117 0.85852 0.0
C239 C 0.79764 0.21172 0.79514 0.0
C240 C 0.85228 0.22144 0.90995 0.0
C241 C 0.89207 0.24073 0.90204 0.0
C242 C 0.8243 0.19737 0.88501 0.0
C243 C 0.83642 0.19187 0.85164 0.0
C244 C 0.87645 0.21237 0.84328 0.0
C245 C 0.90353 0.23665 0.86831 0.0
C246 C 0.78188 0.17676 0.89478 0.0
C247 C 0.89107 0.20699 0.80851 0.0
H248 H 0.77247 0.06562 0.8074 0.0
H249 H 0.75684 0.15046 0.75156 0.0
H250 H 0.85135 0.12834 0.85638 0.0
H251 H 0.81125 0.11754 0.88441 0.0
H252 H 0.81015 0.07981 0.8575 0.0
H253 H 0.77954 0.21371 0.77404 0.0
H254 H 0.79057 0.22099 0.82009 0.0
H255 H 0.8286 0.23248 0.78934 0.0
H256 H 0.84304 0.22449 0.93579 0.0
H257 H 0.93412 0.25141 0.86167 0.0
H258 H 0.77121 0.14528 0.89815 0.0
H259 H 0.76448 0.17979 0.87364 0.0
H260 H 0.77667 0.18815 0.91944 0.0
H261 H 0.88487 0.17657 0.80613 0.0
H262 H 0.92281 0.22676 0.80523 0.0
H263 H 0.87578 0.21222 0.78682 0.0
C264 C 0.67891 0.77651 0.13846 0.0
C265 C 0.65288 0.75828 0.11078 0.0
C266 C 0.67398 0.80058 0.16225 0.0
C267 C 0.64138 0.80583 0.15927 0.0
C268 C 0.61412 0.78644 0.13206 0.0
C269 C 0.62058 0.76346 0.10769 0.0
C270 C 0.70463 0.82156 0.18987 0.0
C271 C 0.57834 0.7902 0.12859 0.0
C272 C 0.62642 0.85163 0.24145 0.0
C273 C 0.64547 0.89111 0.23228 0.0
C274 C 0.62224 0.823 0.21715 0.0
C275 C 0.63813 0.83413 0.18309 0.0
C276 C 0.65571 0.87373 0.17334 0.0
C277 C 0.65879 0.90147 0.19781 0.0
C278 C 0.60243 0.78104 0.22843 0.0
C279 C 0.6738 0.88735 0.13774 0.0
H280 H 0.70419 0.77303 0.1409 0.0
H281 H 0.60021 0.74927 0.08654 0.0
H282 H 0.71777 0.85343 0.1865 0.0
H283 H 0.69133 0.81417 0.2162 0.0
H284 H 0.72818 0.81423 0.18879 0.0
H285 H 0.55813 0.77046 0.10832 0.0
H286 H 0.56275 0.78362 0.15391 0.0
H287 H 0.58678 0.82051 0.12164 0.0
H288 H 0.61584 0.8432 0.26789 0.0
H289 H 0.67342 0.9318 0.19021 0.0
H290 H 0.62446 0.772 0.23226 0.0
H291 H 0.58203 0.76204 0.20796 0.0
H292 H 0.5862 0.77622 0.25326 0.0
H293 H 0.6993 0.88316 0.13518 0.0
H294 H 0.68356 0.91853 0.1332 0.0
H295 H 0.65292 0.86995 0.11695 0.0
C296 C 0.90127 0.68132 0.47068 0.0
C297 C 0.89427 0.65321 0.44516 0.0
C298 C 0.87244 0.67663 0.49456 0.0
C299 C 0.8357 0.64226 0.49395 0.0
C300 C 0.82865 0.61318 0.46877 0.0
C301 C 0.85779 0.61931 0.44421 0.0
C302 C 0.88111 0.70912 0.51991 0.0
C303 C 0.79036 0.57563 0.46784 0.0
C304 C 0.77776 0.62905 0.57768 0.0
C305 C 0.75453 0.64493 0.56795 0.0
C306 C 0.80247 0.62545 0.55326 0.0
C307 C 0.80442 0.63849 0.51841 0.0
C308 C 0.77955 0.65269 0.50816 0.0
C309 C 0.75489 0.65546 0.53287 0.0
C310 C 0.82787 0.60942 0.56521 0.0
C311 C 0.7808 0.66749 0.47161 0.0
H312 H 0.92925 0.7078 0.47139 0.0
H313 H 0.85231 0.59735 0.42475 0.0
H314 H 0.86027 0.71968 0.51591 0.0
H315 H 0.87747 0.69832 0.54711 0.0
H316 H 0.91105 0.73409 0.5169 0.0
H317 H 0.79021 0.55494 0.44826 0.0
H318 H 0.78395 0.56163 0.49392 0.0
H319 H 0.76657 0.58157 0.46154 0.0
H320 H 0.77769 0.62069 0.60461 0.0
H321 H 0.73697 0.66758 0.52485 0.0
H322 H 0.85844 0.63333 0.56694 0.0
H323 H 0.82692 0.588 0.54606 0.0
H324 H 0.81897 0.59526 0.59119 0.0
H325 H 0.80917 0.69425 0.46725 0.0
H326 H 0.7573 0.67436 0.46687 0.0
H327 H 0.77824 0.64577 0.45206 0.0
C328 C 0.2199 0.85514 0.76927 0.0
C329 C 0.2463 0.89351 0.77909 0.0
C330 C 0.196 0.8273 0.79434 0.0
C331 C 0.19837 0.83814 0.82997 0.0
C332 C 0.22669 0.87618 0.84013 0.0
C333 C 0.25026 0.90318 0.81471 0.0
C334 C 0.16667 0.78692 0.78238 0.0
C335 C 0.23027 0.8894 0.87759 0.0
C336 C 0.10527 0.79043 0.8835 0.0
C337 C 0.11118 0.76626 0.90632 0.0
C338 C 0.13334 0.81372 0.85875 0.0
C339 C 0.168 0.81206 0.85571 0.0
C340 C 0.17399 0.78719 0.87836 0.0
C341 C 0.14575 0.76504 0.90388 0.0
C342 C 0.12604 0.84064 0.8362 0.0
C343 C 0.20998 0.78373 0.87535 0.0
H344 H 0.21663 0.8473 0.7419 0.0
H345 H 0.2708 0.93262 0.82274 0.0
H346 H 0.16682 0.76482 0.79999 0.0
H347 H 0.13713 0.7833 0.78336 0.0
H348 H 0.17235 0.78118 0.75526 0.0
H349 H 0.25634 0.91837 0.88188 0.0
H350 H 0.20413 0.89112 0.88488 0.0
H351 H 0.23178 0.8682 0.8954 0.0
H352 H 0.07866 0.79165 0.88543 0.0
H353 H 0.1502 0.74602 0.92118 0.0
H354 H 0.12628 0.83353 0.80826 0.0
H355 H 0.14957 0.87112 0.84011 0.0
H356 H 0.09781 0.83883 0.84213 0.0
H357 H 0.21245 0.77486 0.84844 0.0
H358 H 0.2098 0.76223 0.89401 0.0
H359 H 0.23621 0.81233 0.88023 0.0
C360 C 0.41326 0.9676 0.31526 0.0
C361 C 0.40368 0.99069 0.29447 0.0
C362 C 0.44972 0.97036 0.3129 0.0
C363 C 0.47713 0.99614 0.28843 0.0
C364 C 0.46736 0.01891 0.26668 0.0
C365 C 0.43089 0.01639 0.27036 0.0
C366 C 0.4593 0.94655 0.33746 0.0
C367 C 0.49554 0.04607 0.23976 0.0
C368 C 0.58261 0.03282 0.31118 0.0
C369 C 0.59069 0.00718 0.29266 0.0
C370 C 0.54608 0.02997 0.30942 0.0
C371 C 0.51694 0.00131 0.28791 0.0
C372 C 0.52513 0.97591 0.26835 0.0
C373 C 0.56181 0.97876 0.27136 0.0
C374 C 0.53829 0.05681 0.33161 0.0
C375 C 0.49502 0.94552 0.24459 0.0
H376 H 0.39244 0.94795 0.3342 0.0
H377 H 0.42342 0.03401 0.25406 0.0
H378 H 0.46794 0.9282 0.32247 0.0
H379 H 0.48431 0.96615 0.35417 0.0
H380 H 0.43446 0.92742 0.35461 0.0
H381 H 0.48237 0.05916 0.22289 0.0
H382 H 0.52137 0.06983 0.25289 0.0
H383 H 0.50589 0.03027 0.22303 0.0
H384 H 0.60465 0.05462 0.32801 0.0
H385 H 0.56802 0.95908 0.25682 0.0
H386 H 0.51473 0.0395 0.35052 0.0
H387 H 0.52831 0.07303 0.31507 0.0
H388 H 0.56438 0.07809 0.34637 0.0
H389 H 0.47041 0.92348 0.26029 0.0
H390 H 0.50701 0.9305 0.22877 0.0
H391 H 0.48317 0.95906 0.22673 0.0
C392 C 0.55339 0.57352 0.65371 0.0
C393 C 0.58368 0.58569 0.62948 0.0
C394 C 0.51983 0.53701 0.65101 0.0
C395 C 0.51585 0.5124 0.6227 0.0
C396 C 0.54617 0.52476 0.59778 0.0
C397 C 0.58014 0.56112 0.60181 0.0
C398 C 0.48897 0.52452 0.67888 0.0
C399 C 0.54255 0.49968 0.56684 0.0
C400 C 0.44776 0.40516 0.63891 0.0
C401 C 0.41253 0.3994 0.62499 0.0
C402 C 0.48175 0.44144 0.63735 0.0
C403 C 0.48095 0.47285 0.62083 0.0
C404 C 0.44593 0.46703 0.60552 0.0
C405 C 0.41194 0.43045 0.60817 0.0
C406 C 0.51808 0.44652 0.65488 0.0
C407 C 0.44419 0.49969 0.58707 0.0
H408 H 0.55627 0.59249 0.67526 0.0
H409 H 0.60342 0.57079 0.58286 0.0
H410 H 0.46091 0.51803 0.66703 0.0
H411 H 0.48448 0.49746 0.69157 0.0
H412 H 0.49671 0.54705 0.69932 0.0
H413 H 0.56767 0.51437 0.54878 0.0
H414 H 0.54039 0.47213 0.57586 0.0
H415 H 0.51553 0.49192 0.55222 0.0
H416 H 0.4486 0.38153 0.65225 0.0
H417 H 0.38497 0.4262 0.59715 0.0
H418 H 0.52609 0.46738 0.67683 0.0
H419 H 0.54275 0.45882 0.63629 0.0
H420 H 0.51434 0.41874 0.66525 0.0
H421 H 0.44794 0.5222 0.60627 0.0
H422 H 0.41615 0.48947 0.57327 0.0
H423 H 0.46824 0.51375 0.56791 0.0
C424 C 0.97198 0.56128 0.9227 0.0
C425 C 0.99865 0.59128 0.94431 0.0
C426 C 0.97255 0.52637 0.91929 0.0
C427 C 0.99965 0.52089 0.93885 0.0
C428 C 0.0276 0.55169 0.95969 0.0
C429 C 0.02711 0.58677 0.96176 0.0
C430 C 0.94317 0.49482 0.89586 0.0
C431 C 0.05656 0.5468 0.98145 0.0
C432 C 0.97344 0.41862 0.96626 0.0
C433 C 0.99888 0.41226 0.94574 0.0
C434 C 0.97281 0.4536 0.96376 0.0
C435 C 0.99731 0.48225 0.93935 0.0
C436 C 0.02111 0.47472 0.91695 0.0
C437 C 0.02218 0.44012 0.92089 0.0
C438 C 0.94763 0.4608 0.98867 0.0
C439 C 0.04654 0.50382 0.88973 0.0
H440 H 0.94999 0.56478 0.90909 0.0
H441 H 0.04743 0.60972 0.97883 0.0
H442 H 0.95762 0.48325 0.87882 0.0
H443 H 0.92155 0.47034 0.91196 0.0
H444 H 0.92747 0.50538 0.87919 0.0
H445 H 0.07724 0.57397 0.99525 0.0
H446 H 0.0409 0.52361 1.00113 0.0
H447 H 0.07335 0.53758 0.96481 0.0
H448 H 0.9559 0.39733 0.98585 0.0
H449 H 0.04189 0.43515 0.90504 0.0
H450 H 0.92828 0.46842 0.97403 0.0
H451 H 0.96625 0.48584 1.00578 0.0
H452 H 0.92944 0.43516 1.00538 0.0
H453 H 0.02954 0.51383 0.87431 0.0
H454 H 0.05948 0.49156 0.87161 0.0
H455 H 0.07044 0.5297 0.90267 0.0
C456 C 0.03734 0.58459 0.38148 0.0
C457 C 0.01028 0.59293 0.39698 0.0
C458 C 0.03333 0.54759 0.38379 0.0
C459 C 0.00199 0.51815 0.40287 0.0
C460 C 0.97532 0.52667 0.41978 0.0
C461 C 0.97941 0.56385 0.41615 0.0
C462 C 0.06164 0.53955 0.36428 0.0
C463 C 0.94208 0.49627 0.44107 0.0
C464 C 0.96744 0.41519 0.37256 0.0
C465 C 0.98749 0.40336 0.39496 0.0
C466 C 0.97147 0.45217 0.3753 0.0
C467 C 0.99524 0.47772 0.40187 0.0
C468 C 0.01481 0.46558 0.42526 0.0
C469 C 0.01129 0.42869 0.42111 0.0
C470 C 0.95131 0.46433 0.34891 0.0
C471 C 0.03957 0.49164 0.45447 0.0
H472 H 0.06106 0.60673 0.36623 0.0
H473 H 0.95857 0.57019 0.42835 0.0
H474 H 0.07498 0.52763 0.38222 0.0
H475 H 0.04598 0.51736 0.34381 0.0
H476 H 0.08522 0.56601 0.35163 0.0
H477 H 0.9268 0.50867 0.45593 0.0
H478 H 0.9208 0.47316 0.42362 0.0
H479 H 0.95281 0.48232 0.45965 0.0
H480 H 0.94929 0.39572 0.3521 0.0
H481 H 0.02651 0.41938 0.43861 0.0
H482 H 0.97319 0.49003 0.33414 0.0
H483 H 0.93205 0.47295 0.36233 0.0
H484 H 0.93363 0.44083 0.33002 0.0
H485 H 0.06522 0.51763 0.44354 0.0
H486 H 0.04988 0.47664 0.47231 0.0
H487 H 0.02285 0.50205 0.46982 0.0
C488 C 0.56483 0.98238 0.75456 0.0
C489 C 0.58967 0.99873 0.72593 0.0
C490 C 0.53083 0.98477 0.75756 0.0
C491 C 0.52075 0.00241 0.7305 0.0
C492 C 0.54608 0.01922 0.70165 0.0
C493 C 0.5806 0.0177 0.70002 0.0
C494 C 0.50533 0.96775 0.78929 0.0
C495 C 0.53597 0.0374 0.6718 0.0
C496 C 0.41499 0.97379 0.71595 0.0
C497 C 0.41469 0.0071 0.72753 0.0
C498 C 0.4491 0.9714 0.71758 0.0
C499 C 0.48342 0.00274 0.73179 0.0
C500 C 0.48261 0.03547 0.74528 0.0
C501 C 0.44841 0.03743 0.74267 0.0
C502 C 0.44891 0.93619 0.70249 0.0
C503 C 0.51825 0.06905 0.76142 0.0
H504 H 0.57186 0.9674 0.77439 0.0
H505 H 0.59955 0.02957 0.67754 0.0
H506 H 0.49909 0.98951 0.80122 0.0
H507 H 0.4771 0.94248 0.78153 0.0
H508 H 0.51891 0.95807 0.80929 0.0
H509 H 0.55871 0.04901 0.65124 0.0
H510 H 0.5081 0.01547 0.65983 0.0
H511 H 0.53189 0.06142 0.68153 0.0
H512 H 0.38912 0.95037 0.70405 0.0
H513 H 0.44828 0.06313 0.75201 0.0
H514 H 0.45985 0.92331 0.72196 0.0
H515 H 0.4687 0.94502 0.67966 0.0
H516 H 0.41945 0.91351 0.69401 0.0
H517 H 0.53087 0.0583 0.78136 0.0
H518 H 0.51178 0.09047 0.77382 0.0
H519 H 0.5407 0.08421 0.74106 0.0
C520 C 0.43432 0.4176 0.07968 0.0
C521 C 0.4088 0.41565 0.05353 0.0
C522 C 0.47106 0.45111 0.0836 0.0
C523 C 0.48281 0.48259 0.06005 0.0
C524 C 0.45716 0.48033 0.03336 0.0
C525 C 0.42034 0.44719 0.03079 0.0
C526 C 0.49729 0.4529 0.11289 0.0
C527 C 0.46892 0.5125 1.00689 0.0
C528 C 0.56711 0.58509 0.07544 0.0
C529 C 0.59685 0.58424 0.05648 0.0
C530 C 0.53027 0.55153 0.0785 0.0
C531 C 0.52281 0.51682 0.06134 0.0
C532 C 0.55289 0.51584 0.04249 0.0
C533 C 0.58952 0.54933 0.04064 0.0
C534 C 0.49912 0.55339 0.0995 0.0
C535 C 0.54597 0.47992 0.02287 0.0
H536 H 0.4252 0.39336 0.09748 0.0
H537 H 0.4007 0.44558 0.01036 0.0
H538 H 0.52385 0.45435 0.10203 0.0
H539 H 0.50669 0.47966 0.12853 0.0
H540 H 0.48283 0.42729 0.13045 0.0
H541 H 0.44548 0.50618 0.98777 0.0
H542 H 0.47676 0.54023 0.02025 0.0
H543 H 0.495 0.51689 0.99241 0.0
H544 H 0.57268 0.61186 0.08794 0.0
H545 H 0.6122 0.54846 0.02563 0.0
H546 H 0.4856 0.52868 0.11806 0.0
H547 H 0.47585 0.55087 0.08184 0.0
H548 H 0.51066 0.58099 0.11435 0.0
H549 H 0.53429 0.45456 0.04068 0.0
H550 H 0.57286 0.48349 0.01053 0.0
H551 H 0.52396 0.47311 1.00216 0.0
C552 C 0.03707 0.8102 0.34954 0.0
C553 C 0.04609 0.78784 0.37181 0.0
C554 C 0.06628 0.84681 0.33791 0.0
C555 C 0.10503 0.86118 0.34916 0.0
C556 C 0.11357 0.83982 0.37365 0.0
C557 C 0.08402 0.80327 0.38445 0.0
C558 C 0.05614 0.86891 0.31195 0.0
C559 C 0.15443 0.85441 0.38676 0.0
C560 C 0.19214 0.91986 0.29192 0.0
C561 C 0.20907 0.95629 0.30801 0.0
C562 C 0.15639 0.88943 0.30332 0.0
C563 C 0.13765 0.89547 0.33207 0.0
C564 C 0.15351 0.93296 0.34707 0.0
C565 C 0.18911 0.96318 0.33461 0.0
C566 C 0.14022 0.85005 0.28625 0.0
C567 C 0.13463 0.94045 0.37796 0.0
H568 H 0.00768 0.79831 0.33982 0.0
H569 H 0.09091 0.7862 0.40208 0.0
H570 H 0.07007 0.90005 0.31926 0.0
H571 H 0.06733 0.86735 0.28583 0.0
H572 H 0.02426 0.85689 0.30993 0.0
H573 H 0.1554 0.83636 0.40846 0.0
H574 H 0.17281 0.85402 0.36514 0.0
H575 H 0.16745 0.88487 0.39594 0.0
H576 H 0.20762 0.91474 0.27117 0.0
H577 H 0.20249 0.99137 0.34723 0.0
H578 H 0.10891 0.83768 0.28031 0.0
H579 H 0.14293 0.82979 0.30444 0.0
H580 H 0.15573 0.85142 0.26171 0.0
H581 H 0.14557 0.97198 0.38168 0.0
H582 H 0.1412 0.92913 0.40192 0.0
H583 H 0.1026 0.92522 0.37496 0.0
C584 C 0.22587 0.18954 0.67138 0.0
C585 C 0.24983 0.20719 0.64246 0.0
C586 C 0.22116 0.15453 0.68482 0.0
C587 C 0.24039 0.13685 0.66843 0.0
C588 C 0.26197 0.15312 0.63749 0.0
C589 C 0.26683 0.18842 0.62517 0.0
C590 C 0.19829 0.13834 0.71803 0.0
C591 C 0.28237 0.13482 0.61885 0.0
C592 C 0.28235 0.08471 0.71855 0.0
C593 C 0.25784 0.04612 0.70838 0.0
C594 C 0.27522 0.11422 0.70774 0.0
C595 C 0.24305 0.10489 0.68582 0.0
C596 C 0.21684 0.06564 0.67719 0.0
C597 C 0.22449 0.03656 0.68874 0.0
C598 C 0.30355 0.15571 0.71798 0.0
C599 C 0.18217 0.05465 0.65402 0.0
H600 H 0.21313 0.20443 0.68496 0.0
H601 H 0.28526 0.2022 0.6027 0.0
H602 H 0.18061 0.10618 0.71692 0.0
H603 H 0.2187 0.14606 0.74029 0.0
H604 H 0.17882 0.15034 0.72328 0.0
H605 H 0.29408 0.14855 0.5931 0.0
H606 H 0.30686 0.13784 0.6351 0.0
H607 H 0.26224 0.10331 0.6148 0.0
H608 H 0.30791 0.09207 0.73411 0.0
H609 H 0.20544 0.00667 0.68091 0.0
H610 H 0.28783 0.17012 0.72827 0.0
H611 H 0.32007 0.17224 0.69464 0.0
H612 H 0.32459 0.15754 0.73804 0.0
H613 H 0.16656 0.06995 0.66231 0.0
H614 H 0.16153 0.02285 0.65421 0.0
H615 H 0.19218 0.0637 0.62682 0.0
C616 C 0.19095 0.23308 0.01449 0.0
C617 C 0.21177 0.26022 0.04064 0.0
C618 C 0.15544 0.22827 1.00242 0.0
C619 C 0.14046 0.25068 0.01742 0.0
C620 C 0.16022 0.27607 0.04554 0.0
C621 C 0.19592 0.28087 0.05651 0.0
C622 C 0.13552 0.20139 0.97206 0.0
C623 C 0.14491 0.30004 0.06262 0.0
C624 C 0.0835 0.28624 0.9658 0.0
C625 C 0.04598 0.26298 0.97906 0.0
C626 C 0.11405 0.28062 0.97636 0.0
C627 C 0.10698 0.25159 1.00136 0.0
C628 C 0.06875 0.22682 0.01366 0.0
C629 C 0.0385 0.23264 1.00209 0.0
C630 C 0.15431 0.30714 0.96209 0.0
C631 C 0.06024 0.19576 0.04049 0.0
H632 H 0.20353 0.21742 1.002 0.0
H633 H 0.21208 0.30172 0.07687 0.0
H634 H 0.10374 0.18392 0.97646 0.0
H635 H 0.14022 0.21891 0.94811 0.0
H636 H 0.14702 0.18139 0.96737 0.0
H637 H 0.16133 0.31486 0.0866 0.0
H638 H 0.14707 0.32249 0.04406 0.0
H639 H 0.11381 0.28148 0.06951 0.0
H640 H 0.08916 0.30943 0.94766 0.0
H641 H 0.00944 0.21468 0.01237 0.0
H642 H 0.16758 0.28994 0.95284 0.0
H643 H 0.17317 0.32667 0.98311 0.0
H644 H 0.1541 0.32535 0.94018 0.0
H645 H 0.07384 0.17832 0.03287 0.0
H646 H 0.02856 0.17595 0.04409 0.0
H647 H 0.07297 0.20964 0.06592 0.0
C648 C 0.95756 0.18574 0.34774 0.0
C649 C 0.94898 0.20738 0.3713 0.0
C650 C 0.92809 0.14963 0.33542 0.0
C651 C 0.88953 0.13496 0.34737 0.0
C652 C 0.88147 0.1555 0.37313 0.0
C653 C 0.91126 0.19165 0.38453 0.0
C654 C 0.93772 0.12847 0.30802 0.0
C655 C 0.84086 0.14048 0.38708 0.0
C656 C 0.80177 0.07823 0.29025 0.0
C657 C 0.78518 0.04116 0.30505 0.0
C658 C 0.83749 0.10836 0.30205 0.0
C659 C 0.85661 0.10132 0.32987 0.0
C660 C 0.84109 0.06328 0.34354 0.0
C661 C 0.80549 0.03342 0.33072 0.0
C662 C 0.8533 0.14838 0.28641 0.0
C663 C 0.8604 0.05471 0.37341 0.0
H664 H 0.98679 0.19792 0.33752 0.0
H665 H 0.90474 0.20819 0.40313 0.0
H666 H 0.92385 0.09708 0.31433 0.0
H667 H 0.92609 0.13102 0.28244 0.0
H668 H 0.96954 0.14052 0.30537 0.0
H669 H 0.84031 0.15776 0.40964 0.0
H670 H 0.82212 0.14164 0.36619 0.0
H671 H 0.82797 0.1097 0.39529 0.0
H672 H 0.78605 0.08405 0.27022 0.0
H673 H 0.79241 0.00474 0.34236 0.0
H674 H 0.88453 0.16109 0.27995 0.0
H675 H 0.85079 0.16785 0.3057 0.0
H676 H 0.83742 0.14793 0.2624 0.0
H677 H 0.89238 0.06998 0.36995 0.0
H678 H 0.84946 0.02306 0.37612 0.0
H679 H 0.85428 0.06528 0.39808 0.0
C680 C 0.71837 0.79857 0.62415 0.0
C681 C 0.73931 0.78279 0.63962 0.0
C682 C 0.72355 0.83448 0.63503 0.0
C683 C 0.74958 0.8545 0.66269 0.0
C684 C 0.77224 0.83958 0.67724 0.0
C685 C 0.76706 0.80388 0.66525 0.0
C686 C 0.69937 0.84979 0.61836 0.0
C687 C 0.79989 0.85983 0.70705 0.0
C688 C 0.76858 0.95686 0.6783 0.0
C689 C 0.73902 0.94974 0.70214 0.0
C690 C 0.77375 0.92635 0.66624 0.0
C691 C 0.74914 0.88822 0.67885 0.0
C692 C 0.72087 0.88148 0.70456 0.0
C693 C 0.71588 0.9123 0.7156 0.0
C694 C 0.80391 0.93451 0.63859 0.0
C695 C 0.69449 0.84133 0.71911 0.0
H696 H 0.69705 0.78222 0.60417 0.0
H697 H 0.78297 0.7914 0.67742 0.0
H698 H 0.67746 0.84806 0.63733 0.0
H699 H 0.7179 0.88078 0.61105 0.0
H700 H 0.68391 0.83307 0.59469 0.0
H701 H 0.81968 0.84806 0.71158 0.0
H702 H 0.81756 0.89151 0.70208 0.0
H703 H 0.78299 0.85586 0.73127 0.0
H704 H 0.78634 0.98583 0.66774 0.0
H705 H 0.69321 0.90691 0.73425 0.0
H706 H 0.78922 0.92219 0.61334 0.0
H707 H 0.82109 0.92036 0.64527 0.0
H708 H 0.82406 0.96616 0.63505 0.0
H709 H 0.67449 0.82241 0.69838 0.0
H710 H 0.67681 0.84175 0.74138 0.0
H711 H 0.71175 0.82796 0.72795 0.0
C712 C 0.80702 0.72443 0.05607 0.0
C713 C 0.79087 0.74514 0.04082 0.0
C714 C 0.84323 0.7304 0.04539 0.0
C715 C 0.86339 0.75727 0.01832 0.0
C716 C 0.84832 0.78005 1.0043 0.0
C717 C 0.81212 0.77384 0.01594 0.0
C718 C 0.85852 0.70588 0.06137 0.0
C719 C 0.86889 0.80881 0.9753 0.0
C720 C 0.965 0.77419 1.00384 0.0
C721 C 0.95744 0.74457 0.97992 0.0
C722 C 0.93503 0.78058 0.01519 0.0
C723 C 0.89704 0.75706 1.00185 0.0
C724 C 0.89008 0.72908 0.97576 0.0
C725 C 0.92033 0.72293 0.96538 0.0
C726 C 0.94346 0.81063 0.04303 0.0
C727 C 0.85011 0.7039 0.96038 0.0
H728 H 0.79063 0.70246 0.07557 0.0
H729 H 0.79946 0.78971 1.00403 0.0
H730 H 0.85695 0.68448 0.04188 0.0
H731 H 0.88943 0.72427 0.06894 0.0
H732 H 0.84166 0.68976 0.08477 0.0
H733 H 0.85768 0.82926 0.97212 0.0
H734 H 0.90062 0.82575 0.98016 0.0
H735 H 0.86437 0.79285 0.9504 0.0
H736 H 0.99378 0.79098 0.01504 0.0
H737 H 0.91464 0.70038 0.94648 0.0
H738 H 0.93104 0.7958 0.06821 0.0
H739 H 0.92962 0.82814 0.03653 0.0
H740 H 0.97515 0.83047 0.04661 0.0
H741 H 0.83052 0.68342 0.98052 0.0
H742 H 0.85057 0.68674 0.93767 0.0
H743 H 0.83752 0.72199 0.95191 0.0
C744 C 0.26029 0.97778 0.43341 0.0
C745 C 0.29438 1e-05 0.41398 0.0
C746 C 0.26032 0.97934 0.47006 0.0
C747 C 0.2955 0.00312 0.48809 0.0
C748 C 0.32987 0.02648 0.46857 0.0
C749 C 0.32883 0.02495 0.43173 0.0
C750 C 0.22275 0.9548 0.48949 0.0
C751 C 0.36808 0.052 0.48666 0.0
C752 C 0.29329 0.03206 0.58266 0.0
C753 C 0.30023 0.00569 0.60139 0.0
C754 C 0.29088 0.03102 0.54604 0.0
C755 C 0.29627 0.00336 0.52728 0.0
C756 C 0.3024 0.97602 0.54606 0.0
C757 C 0.30392 0.97725 0.58291 0.0
C758 C 0.28322 0.06004 0.52743 0.0
C759 C 0.30858 0.94622 0.52716 0.0
H760 H 0.23352 0.95847 0.41981 0.0
H761 H 0.35533 0.04173 0.41692 0.0
H762 H 0.22496 0.93262 0.50535 0.0
H763 H 0.21716 0.97314 0.50774 0.0
H764 H 0.19751 0.93971 0.47161 0.0
H765 H 0.39203 0.06882 0.46791 0.0
H766 H 0.36546 0.07264 0.5044 0.0
H767 H 0.37591 0.03382 0.50294 0.0
H768 H 0.29017 0.05402 0.59677 0.0
H769 H 0.30971 0.9571 0.59713 0.0
H770 H 0.25777 0.04472 0.50988 0.0
H771 H 0.30853 0.07936 0.51091 0.0
H772 H 0.27768 0.07832 0.54586 0.0
H773 H 0.28336 0.92813 0.51008 0.0
H774 H 0.3127 0.92683 0.5454 0.0
H775 H 0.33454 0.96111 0.51011 0.0
C776 C 0.26143 0.29268 0.91532 0.0
C777 C 0.29446 0.29943 0.9344 0.0
C778 C 0.26043 0.29029 0.87871 0.0
C779 C 0.29348 0.29524 0.86029 0.0
C780 C 0.32659 0.30096 0.87941 0.0
C781 C 0.32659 0.30268 0.91626 0.0
C782 C 0.22417 0.28323 0.85973 0.0
C783 C 0.36249 0.30649 0.86087 0.0
C784 C 0.28246 0.25891 0.76645 0.0
C785 C 0.29464 0.29303 0.74696 0.0
C786 C 0.28121 0.25908 0.80312 0.0
C787 C 0.29325 0.29445 0.82109 0.0
C788 C 0.30477 0.32891 0.80152 0.0
C789 C 0.30495 0.32773 0.76467 0.0
C790 C 0.26766 0.22143 0.82261 0.0
C791 C 0.31812 0.3673 0.81955 0.0
H792 H 0.2363 0.28982 0.92912 0.0
H793 H 0.35231 0.30828 0.93073 0.0
H794 H 0.23072 0.30867 0.84313 0.0
H795 H 0.21385 0.25771 0.84223 0.0
H796 H 0.20029 0.27811 0.87793 0.0
H797 H 0.38557 0.30999 0.87934 0.0
H798 H 0.35511 0.28125 0.8437 0.0
H799 H 0.37421 0.33261 0.84394 0.0
H800 H 0.27439 0.23195 0.75288 0.0
H801 H 0.31496 0.35426 0.74981 0.0
H802 H 0.24366 0.21613 0.84064 0.0
H803 H 0.29175 0.22335 0.83872 0.0
H804 H 0.25743 0.19613 0.80477 0.0
H805 H 0.29497 0.36527 0.83708 0.0
H806 H 0.32594 0.39139 0.80075 0.0
H807 H 0.34383 0.37455 0.83603 0.0
C808 C 0.01843 0.30183 0.25167 0.0
C809 C 0.9903 0.30727 0.26875 0.0
C810 C 0.02062 0.30233 0.2148 0.0
C811 C 0.99465 0.30928 0.19463 0.0
C812 C 0.96701 0.31584 0.21197 0.0
C813 C 0.96495 0.31436 0.24857 0.0
C814 C 0.0502 0.2947 0.19738 0.0
C815 C 0.93947 0.32446 0.19187 0.0
C816 C 0.02388 0.34927 0.10233 0.0
C817 C 0.00065 0.3167 0.08144 0.0
C818 C 0.02216 0.34718 0.13894 0.0
C819 C 0.99715 0.31135 0.1555 0.0
C820 C 0.97342 0.27827 0.13459 0.0
C821 C 0.97512 0.28142 0.09779 0.0
C822 C 0.04713 0.3835 0.15991 0.0
C823 C 0.94673 0.23939 0.15112 0.0
H824 H 0.03772 0.2958 0.26703 0.0
H825 H 0.9432 0.31876 0.26156 0.0
H826 H 0.03533 0.26933 0.17966 0.0
H827 H 0.07016 0.32002 0.18117 0.0
H828 H 0.06768 0.28892 0.21656 0.0
H829 H 0.92009 0.32954 0.20928 0.0
H830 H 0.95616 0.35058 0.17532 0.0
H831 H 0.9212 0.29989 0.17421 0.0
H832 H 0.04366 0.37668 0.0899 0.0
H833 H 0.95757 0.25602 0.08185 0.0
H834 H 0.06709 0.37901 0.17698 0.0
H835 H 0.02857 0.38992 0.17712 0.0
H836 H 0.0647 0.40921 0.14309 0.0
H837 H 0.96371 0.23076 0.1682 0.0
H838 H 0.93104 0.21622 0.13139 0.0
H839 H 0.92507 0.24147 0.16785 0.0
C840 C 0.73577 0.02208 0.43048 0.0
C841 C 0.70175 0.99881 0.4113 0.0
C842 C 0.73616 0.02072 0.46713 0.0
C843 C 0.70144 0.996 0.4854 0.0
C844 C 0.66718 0.97159 0.46615 0.0
C845 C 0.66783 0.973 0.4293 0.0
C846 C 0.77362 0.04646 0.48628 0.0
C847 C 0.62946 0.94502 0.48452 0.0
C848 C 0.70563 0.96837 0.58004 0.0
C849 C 0.69773 0.9941 0.59868 0.0
C850 C 0.70779 0.96927 0.5434 0.0
C851 C 0.701 0.99599 0.52459 0.0
C852 C 0.69378 0.02264 0.54332 0.0
C853 C 0.69267 0.02168 0.58016 0.0
C854 C 0.71673 0.94111 0.52484 0.0
C855 C 0.68598 0.05134 0.52436 0.0
H856 H 0.76217 0.04203 0.4167 0.0
H857 H 0.64136 0.95536 0.41469 0.0
H858 H 0.77053 0.06813 0.50213 0.0
H859 H 0.78029 0.02888 0.50451 0.0
H860 H 0.79857 0.06222 0.46821 0.0
H861 H 0.60559 0.92739 0.46594 0.0
H862 H 0.63323 0.9251 0.50227 0.0
H863 H 0.62077 0.96251 0.50081 0.0
H864 H 0.70974 0.94707 0.59424 0.0
H865 H 0.68606 0.04126 0.59438 0.0
H866 H 0.74191 0.95708 0.50711 0.0
H867 H 0.6916 0.921 0.50852 0.0
H868 H 0.72336 0.92362 0.5433 0.0
H869 H 0.7108 0.07005 0.50712 0.0
H870 H 0.68103 0.0702 0.54257 0.0
H871 H 0.66 0.03552 0.50748 0.0
C872 C 0.67329 0.69435 0.91633 0.0
C873 C 0.70633 0.69958 0.93423 0.0
C874 C 0.6725 0.6949 0.87946 0.0
C875 C 0.70574 0.70149 0.86005 0.0
C876 C 0.73964 0.7084 0.87818 0.0
C877 C 0.73941 0.70708 0.91484 0.0
C878 C 0.63568 0.68722 0.86123 0.0
C879 C 0.77606 0.71651 0.85886 0.0
C880 C 0.6935 0.66653 0.76517 0.0
C881 C 0.70184 0.7003 0.74675 0.0
C882 C 0.69467 0.66646 0.80202 0.0
C883 C 0.70519 0.70117 0.82085 0.0
C884 C 0.71533 0.73569 0.80212 0.0
C885 C 0.71311 0.73472 0.76549 0.0
C886 C 0.68333 0.62893 0.82087 0.0
C887 C 0.72777 0.7736 0.8208 0.0
H888 H 0.64753 0.68815 0.93104 0.0
H889 H 0.76522 0.71144 0.92845 0.0
H890 H 0.64166 0.71173 0.8436 0.0
H891 H 0.62472 0.66077 0.84483 0.0
H892 H 0.61254 0.68311 0.8799 0.0
H893 H 0.80055 0.7231 0.87682 0.0
H894 H 0.77027 0.69097 0.84275 0.0
H895 H 0.78509 0.74144 0.84086 0.0
H896 H 0.68419 0.63974 0.75089 0.0
H897 H 0.71964 0.76096 0.75136 0.0
H898 H 0.65766 0.621 0.83763 0.0
H899 H 0.70727 0.6326 0.83822 0.0
H900 H 0.67624 0.60457 0.80259 0.0
H901 H 0.70353 0.77105 0.83709 0.0
H902 H 0.73669 0.79825 0.8024 0.0
H903 H 0.75241 0.78041 0.83856 0.0
C904 C 0.03149 0.6812 0.24833 0.0
C905 C 0.00613 0.68815 0.26865 0.0
C906 C 0.02962 0.68029 0.21172 0.0
C907 C 0.00221 0.68735 0.19454 0.0
C908 C 0.97619 0.69406 0.21487 0.0
C909 C 0.97816 0.69395 0.25172 0.0
C910 C 0.05718 0.67189 0.19142 0.0
C911 C 0.94688 0.70223 0.19764 0.0
C912 C 0.02323 0.71834 0.09853 0.0
C913 C 0.99767 0.68374 0.08126 0.0
C914 C 0.02448 0.72023 0.13538 0.0
C915 C 0.00029 0.68651 0.15539 0.0
C916 C 0.97528 0.65132 0.13788 0.0
C917 C 0.97394 0.65053 0.10123 0.0
C918 C 0.05113 0.75849 0.15293 0.0
C919 C 0.94988 0.61436 0.15788 0.0
H920 H 0.05312 0.67655 0.26122 0.0
H921 H 0.95888 0.69987 0.26721 0.0
H922 H 0.04056 0.64639 0.17416 0.0
H923 H 0.07598 0.69696 0.17444 0.0
H924 H 0.07605 0.66593 0.2087 0.0
H925 H 0.9291 0.70742 0.21694 0.0
H926 H 0.96205 0.72815 0.18057 0.0
H927 H 0.92718 0.67744 0.18078 0.0
H928 H 0.04114 0.74423 0.08328 0.0
H929 H 0.95411 0.62366 0.08804 0.0
H930 H 0.07247 0.75568 0.16951 0.0
H931 H 0.03404 0.76669 0.17031 0.0
H932 H 0.06719 0.78228 0.13382 0.0
H933 H 0.96809 0.60731 0.17493 0.0
H934 H 0.93255 0.58924 0.14037 0.0
H935 H 0.92967 0.61836 0.17504 0.0
loop_
_geom_bond_atom_site_label_1
_geom_bond_atom_site_label_2
_geom_bond_distance
_geom_bond_site_symmetry_2
_ccdc_geom_bond_type
Co0 O1 2.216 . S
Co0 O2 2.091 . S
Co0 O4 2.004 . S
Co0 O10 2.021 . S
Co0 O12 2.137 1_545 S
Co0 O13 2.244 1_545 S
O1 Co0 2.216 . S
O1 C8 1.247 . S
O2 Co0 2.091 . S
O2 C8 1.261 . S
C3 O12 1.247 . S
C3 O13 1.272 . S
O4 Co0 2.004 . S
O4 C9 1.259 . S
Co5 O6 2.061 . S
Co5 O11 2.052 . S
Co5 O13 2.135 . S
O6 Co5 2.061 . S
O6 C9 1.235 1_565 S
C7 O10 1.238 . S
C7 O11 1.241 1_545 S
C8 O1 1.247 . S
C8 O2 1.261 . S
C9 O4 1.259 . S
C9 O6 1.235 1_545 S
O10 Co0 2.021 . S
O10 C7 1.238 . S
O11 Co5 2.052 . S
O11 C7 1.241 1_565 S
O12 Co0 2.137 1_565 S
O12 C3 1.247 . S
O13 Co0 2.244 1_565 S
O13 C3 1.272 . S
O13 Co5 2.135 . S
Co14 O15 2.216 . S
Co14 O16 2.091 . S
Co14 O18 2.004 . S
Co14 O24 2.021 . S
Co14 O26 2.137 . S
Co14 O27 2.244 . S
O15 Co14 2.216 . S
O15 C22 1.247 . S
O16 Co14 2.091 . S
O16 C22 1.261 . S
C17 O26 1.247 . S
C17 O27 1.272 . S
O18 Co14 2.004 . S
O18 C23 1.259 . S
Co19 O20 2.061 . S
Co19 O25 2.052 . S
Co19 O27 2.135 . S
O20 Co19 2.061 . S
O20 C23 1.235 . S
C21 O24 1.238 . S
C21 O25 1.241 . S
C22 O15 1.247 . S
C22 O16 1.261 . S
C23 O18 1.259 . S
C23 O20 1.235 . S
O24 Co14 2.021 . S
O24 C21 1.238 . S
O25 Co19 2.052 . S
O25 C21 1.241 . S
O26 Co14 2.137 . S
O26 C17 1.247 . S
O27 Co14 2.244 . S
O27 C17 1.272 . S
O27 Co19 2.135 . S
Co28 O29 2.216 . S
Co28 O30 2.091 . S
Co28 O32 2.004 1_556 S
Co28 O38 2.021 . S
Co28 O40 2.137 1_655 S
Co28 O41 2.244 1_655 S
O29 Co28 2.216 . S
O29 C36 1.247 . S
O30 Co28 2.091 . S
O30 C36 1.261 . S
C31 O40 1.247 . S
C31 O41 1.272 . S
O32 Co28 2.004 1_554 S
O32 C37 1.259 . S
Co33 O34 2.061 . S
Co33 O39 2.052 1_554 S
Co33 O41 2.135 1_554 S
O34 Co33 2.061 . S
O34 C37 1.235 1_455 S
C35 O38 1.238 . S
C35 O39 1.241 1_655 S
C36 O29 1.247 . S
C36 O30 1.261 . S
C37 O32 1.259 . S
C37 O34 1.235 1_655 S
O38 Co28 2.021 . S
O38 C35 1.238 . S
O39 Co33 2.052 1_556 S
O39 C35 1.241 1_455 S
O40 Co28 2.137 1_455 S
O40 C31 1.247 . S
O41 Co28 2.244 1_455 S
O41 C31 1.272 . S
O41 Co33 2.135 1_556 S
Co42 O43 2.216 . S
Co42 O44 2.091 . S
Co42 O46 2.004 . S
Co42 O52 2.021 . S
Co42 O54 2.137 1_565 S
Co42 O55 2.244 1_565 S
O43 Co42 2.216 . S
O43 C50 1.247 . S
O44 Co42 2.091 . S
O44 C50 1.261 . S
C45 O54 1.247 . S
C45 O55 1.272 . S
O46 Co42 2.004 . S
O46 C51 1.259 . S
Co47 O48 2.061 . S
Co47 O53 2.052 . S
Co47 O55 2.135 . S
O48 Co47 2.061 . S
O48 C51 1.235 1_545 S
C49 O52 1.238 . S
C49 O53 1.241 1_565 S
C50 O43 1.247 . S
C50 O44 1.261 . S
C51 O46 1.259 . S
C51 O48 1.235 1_565 S
O52 Co42 2.021 . S
O52 C49 1.238 . S
O53 Co47 2.052 . S
O53 C49 1.241 1_545 S
O54 Co42 2.137 1_545 S
O54 C45 1.247 . S
O55 Co42 2.244 1_545 S
O55 C45 1.272 . S
O55 Co47 2.135 . S
Co56 O57 2.216 . S
Co56 O58 2.091 . S
Co56 O60 2.004 . S
Co56 O66 2.021 . S
Co56 O68 2.137 . S
Co56 O69 2.244 . S
O57 Co56 2.216 . S
O57 C64 1.247 . S
O58 Co56 2.091 . S
O58 C64 1.261 . S
C59 O68 1.247 . S
C59 O69 1.272 . S
O60 Co56 2.004 . S
O60 C65 1.259 . S
Co61 O62 2.061 . S
Co61 O67 2.052 . S
Co61 O69 2.135 . S
O62 Co61 2.061 . S
O62 C65 1.235 . S
C63 O66 1.238 . S
C63 O67 1.241 . S
C64 O57 1.247 . S
C64 O58 1.261 . S
C65 O60 1.259 . S
C65 O62 1.235 . S
O66 Co56 2.021 . S
O66 C63 1.238 . S
O67 Co61 2.052 . S
O67 C63 1.241 . S
O68 Co56 2.137 . S
O68 C59 1.247 . S
O69 Co56 2.244 . S
O69 C59 1.272 . S
O69 Co61 2.135 . S
Co70 O71 2.216 . S
Co70 O72 2.091 . S
Co70 O74 2.004 1_556 S
Co70 O80 2.021 . S
Co70 O82 2.137 1_455 S
Co70 O83 2.244 1_455 S
O71 Co70 2.216 . S
O71 C78 1.247 . S
O72 Co70 2.091 . S
O72 C78 1.261 . S
C73 O82 1.247 . S
C73 O83 1.272 . S
O74 Co70 2.004 1_554 S
O74 C79 1.259 . S
Co75 O76 2.061 . S
Co75 O81 2.052 1_554 S
Co75 O83 2.135 1_554 S
O76 Co75 2.061 . S
O76 C79 1.235 1_655 S
C77 O80 1.238 . S
C77 O81 1.241 1_455 S
C78 O71 1.247 . S
C78 O72 1.261 . S
C79 O74 1.259 . S
C79 O76 1.235 1_455 S
O80 Co70 2.021 . S
O80 C77 1.238 . S
O81 Co75 2.052 1_556 S
O81 C77 1.241 1_655 S
O82 Co70 2.137 1_655 S
O82 C73 1.247 . S
O83 Co70 2.244 1_655 S
O83 C73 1.272 . S
O83 Co75 2.135 1_556 S
Co84 O85 2.216 . S
Co84 O86 2.091 . S
Co84 O88 2.004 . S
Co84 O94 2.021 . S
Co84 O96 2.137 1_655 S
Co84 O97 2.244 1_655 S
O85 Co84 2.216 . S
O85 C92 1.247 . S
O86 Co84 2.091 . S
O86 C92 1.261 . S
C87 O96 1.247 . S
C87 O97 1.272 . S
O88 Co84 2.004 . S
O88 C93 1.259 . S
Co89 O90 2.061 . S
Co89 O95 2.052 . S
Co89 O97 2.135 . S
O90 Co89 2.061 . S
O90 C93 1.235 1_455 S
C91 O94 1.238 . S
C91 O95 1.241 1_655 S
C92 O85 1.247 . S
C92 O86 1.261 . S
C93 O88 1.259 . S
C93 O90 1.235 1_655 S
O94 Co84 2.021 . S
O94 C91 1.238 . S
O95 Co89 2.052 . S
O95 C91 1.241 1_455 S
O96 Co84 2.137 1_455 S
O96 C87 1.247 . S
O97 Co84 2.244 1_455 S
O97 C87 1.272 . S
O97 Co89 2.135 . S
Co98 O99 2.216 . S
Co98 O100 2.091 . S
Co98 O102 2.004 . S
Co98 O108 2.021 . S
Co98 O110 2.137 1_565 S
Co98 O111 2.244 1_565 S
O99 Co98 2.216 . S
O99 C106 1.247 . S
O100 Co98 2.091 . S
O100 C106 1.261 . S
C101 O110 1.247 . S
C101 O111 1.272 . S
O102 Co98 2.004 . S
O102 C107 1.259 . S
Co103 O104 2.061 . S
Co103 O109 2.052 . S
Co103 O111 2.135 . S
O104 Co103 2.061 . S
O104 C107 1.235 1_545 S
C105 O108 1.238 . S
C105 O109 1.241 1_565 S
C106 O99 1.247 . S
C106 O100 1.261 . S
C107 O102 1.259 . S
C107 O104 1.235 1_565 S
O108 Co98 2.021 . S
O108 C105 1.238 . S
O109 Co103 2.052 . S
O109 C105 1.241 1_545 S
O110 Co98 2.137 1_545 S
O110 C101 1.247 . S
O111 Co98 2.244 1_545 S
O111 C101 1.272 . S
O111 Co103 2.135 . S
Co112 O113 2.216 . S
Co112 O114 2.091 . S
Co112 O116 2.004 1_554 S
Co112 O122 2.021 . S
Co112 O124 2.137 . S
Co112 O125 2.244 . S
O113 Co112 2.216 . S
O113 C120 1.247 . S
O114 Co112 2.091 . S
O114 C120 1.261 . S
C115 O124 1.247 . S
C115 O125 1.272 . S
O116 Co112 2.004 1_556 S
O116 C121 1.259 . S
Co117 O118 2.061 . S
Co117 O123 2.052 1_556 S
Co117 O125 2.135 1_556 S
O118 Co117 2.061 . S
O118 C121 1.235 . S
C119 O122 1.238 . S
C119 O123 1.241 . S
C120 O113 1.247 . S
C120 O114 1.261 . S
C121 O116 1.259 . S
C121 O118 1.235 . S
O122 Co112 2.021 . S
O122 C119 1.238 . S
O123 Co117 2.052 1_554 S
O123 C119 1.241 . S
O124 Co112 2.137 . S
O124 C115 1.247 . S
O125 Co112 2.244 . S
O125 C115 1.272 . S
O125 Co117 2.135 1_554 S
Co126 O127 2.216 . S
Co126 O128 2.091 . S
Co126 O130 2.004 . S
Co126 O136 2.021 . S
Co126 O138 2.137 1_455 S
Co126 O139 2.244 1_455 S
O127 Co126 2.216 . S
O127 C134 1.247 . S
O128 Co126 2.091 . S
O128 C134 1.261 . S
C129 O138 1.247 . S
C129 O139 1.272 . S
O130 Co126 2.004 . S
O130 C135 1.259 . S
Co131 O132 2.061 . S
Co131 O137 2.052 . S
Co131 O139 2.135 . S
O132 Co131 2.061 . S
O132 C135 1.235 1_655 S
C133 O136 1.238 . S
C133 O137 1.241 1_455 S
C134 O127 1.247 . S
C134 O128 1.261 . S
C135 O130 1.259 . S
C135 O132 1.235 1_455 S
O136 Co126 2.021 . S
O136 C133 1.238 . S
O137 Co131 2.052 . S
O137 C133 1.241 1_655 S
O138 Co126 2.137 1_655 S
O138 C129 1.247 . S
O139 Co126 2.244 1_655 S
O139 C129 1.272 . S
O139 Co131 2.135 . S
Co140 O141 2.216 . S
Co140 O142 2.091 . S
Co140 O144 2.004 . S
Co140 O150 2.021 . S
Co140 O152 2.137 1_545 S
Co140 O153 2.244 1_545 S
O141 Co140 2.216 . S
O141 C148 1.247 . S
O142 Co140 2.091 . S
O142 C148 1.261 . S
C143 O152 1.247 . S
C143 O153 1.272 . S
O144 Co140 2.004 . S
O144 C149 1.259 . S
Co145 O146 2.061 . S
Co145 O151 2.052 . S
Co145 O153 2.135 . S
O146 Co145 2.061 . S
O146 C149 1.235 1_565 S
C147 O150 1.238 . S
C147 O151 1.241 1_545 S
C148 O141 1.247 . S
C148 O142 1.261 . S
C149 O144 1.259 . S
C149 O146 1.235 1_545 S
O150 Co140 2.021 . S
O150 C147 1.238 . S
O151 Co145 2.052 . S
O151 C147 1.241 1_565 S
O152 Co140 2.137 1_565 S
O152 C143 1.247 . S
O153 Co140 2.244 1_565 S
O153 C143 1.272 . S
O153 Co145 2.135 . S
Co154 O155 2.216 . S
Co154 O156 2.091 . S
Co154 O158 2.004 1_554 S
Co154 O164 2.021 . S
Co154 O166 2.137 . S
Co154 O167 2.244 . S
O155 Co154 2.216 . S
O155 C162 1.247 . S
O156 Co154 2.091 . S
O156 C162 1.261 . S
C157 O166 1.247 . S
C157 O167 1.272 . S
O158 Co154 2.004 1_556 S
O158 C163 1.259 . S
Co159 O160 2.061 . S
Co159 O165 2.052 1_556 S
Co159 O167 2.135 1_556 S
O160 Co159 2.061 . S
O160 C163 1.235 . S
C161 O164 1.238 . S
C161 O165 1.241 . S
C162 O155 1.247 . S
C162 O156 1.261 . S
C163 O158 1.259 . S
C163 O160 1.235 . S
O164 Co154 2.021 . S
O164 C161 1.238 . S
O165 Co159 2.052 1_554 S
O165 C161 1.241 . S
O166 Co154 2.137 . S
O166 C157 1.247 . S
O167 Co154 2.244 . S
O167 C157 1.272 . S
O167 Co159 2.135 1_554 S
C168 C169 1.391 . S
C168 C170 1.394 . S
C168 H184 0.931 . S
C169 C168 1.391 . S
C169 C173 1.376 . S
C170 C168 1.394 . S
C170 C171 1.369 . S
C170 C174 1.531 . S
C171 C170 1.369 . S
C171 C172 1.410 . S
C171 C179 1.503 . S
C172 C171 1.410 . S
C172 C173 1.392 . S
C172 C175 1.511 . S
C173 C169 1.376 . S
C173 C172 1.392 . S
C173 H185 0.929 . S
C174 C170 1.531 . S
C174 H186 0.960 . S
C174 H187 0.962 . S
C174 H188 0.960 . S
C175 C172 1.511 . S
C175 H189 0.961 . S
C175 H190 0.961 . S
C175 H191 0.961 . S
C176 C177 1.370 . S
C176 C178 1.363 . S
C176 H192 0.931 . S
C177 C176 1.370 . S
C177 C181 1.408 . S
C178 C176 1.363 . S
C178 C179 1.370 . S
C178 C182 1.524 . S
C179 C171 1.503 . S
C179 C178 1.370 . S
C179 C180 1.403 . S
C180 C179 1.403 . S
C180 C181 1.404 . S
C180 C183 1.539 . S
C181 C177 1.408 . S
C181 C180 1.404 . S
C181 H193 0.930 . S
C182 C178 1.524 . S
C182 H194 0.956 . S
C182 H195 0.961 . S
C182 H196 0.961 . S
C183 C180 1.539 . S
C183 H197 0.958 . S
C183 H198 0.961 . S
C183 H199 0.960 . S
H184 C168 0.931 . S
H185 C173 0.929 . S
H186 C174 0.960 . S
H187 C174 0.962 . S
H188 C174 0.960 . S
H189 C175 0.961 . S
H190 C175 0.961 . S
H191 C175 0.961 . S
H192 C176 0.931 . S
H193 C181 0.930 . S
H194 C182 0.956 . S
H195 C182 0.961 . S
H196 C182 0.961 . S
H197 C183 0.958 . S
H198 C183 0.961 . S
H199 C183 0.960 . S
C200 C201 1.391 . S
C200 C202 1.394 . S
C200 H216 0.931 . S
C201 C200 1.391 . S
C201 C205 1.376 . S
C202 C200 1.394 . S
C202 C203 1.369 . S
C202 C206 1.531 . S
C203 C202 1.369 . S
C203 C204 1.410 . S
C203 C211 1.503 . S
C204 C203 1.410 . S
C204 C205 1.392 . S
C204 C207 1.511 . S
C205 C201 1.376 . S
C205 C204 1.392 . S
C205 H217 0.929 . S
C206 C202 1.531 . S
C206 H218 0.960 . S
C206 H219 0.962 . S
C206 H220 0.960 . S
C207 C204 1.511 . S
C207 H221 0.961 . S
C207 H222 0.961 . S
C207 H223 0.961 . S
C208 C209 1.370 . S
C208 C210 1.363 . S
C208 H224 0.931 . S
C209 C208 1.370 . S
C209 C213 1.408 . S
C210 C208 1.363 . S
C210 C211 1.370 . S
C210 C214 1.524 . S
C211 C203 1.503 . S
C211 C210 1.370 . S
C211 C212 1.403 . S
C212 C211 1.403 . S
C212 C213 1.404 . S
C212 C215 1.539 . S
C213 C209 1.408 . S
C213 C212 1.404 . S
C213 H225 0.930 . S
C214 C210 1.524 . S
C214 H226 0.956 . S
C214 H227 0.961 . S
C214 H228 0.961 . S
C215 C212 1.539 . S
C215 H229 0.958 . S
C215 H230 0.961 . S
C215 H231 0.960 . S
H216 C200 0.931 . S
H217 C205 0.929 . S
H218 C206 0.960 . S
H219 C206 0.962 . S
H220 C206 0.960 . S
H221 C207 0.961 . S
H222 C207 0.961 . S
H223 C207 0.961 . S
H224 C208 0.931 . S
H225 C213 0.930 . S
H226 C214 0.956 . S
H227 C214 0.961 . S
H228 C214 0.961 . S
H229 C215 0.958 . S
H230 C215 0.961 . S
H231 C215 0.960 . S
C232 C233 1.391 . S
C232 C234 1.394 . S
C232 H248 0.931 . S
C233 C232 1.391 . S
C233 C237 1.376 . S
C234 C232 1.394 . S
C234 C235 1.369 . S
C234 C238 1.531 . S
C235 C234 1.369 . S
C235 C236 1.410 . S
C235 C243 1.503 . S
C236 C235 1.410 . S
C236 C237 1.392 . S
C236 C239 1.511 . S
C237 C233 1.376 . S
C237 C236 1.392 . S
C237 H249 0.929 . S
C238 C234 1.531 . S
C238 H250 0.960 . S
C238 H251 0.962 . S
C238 H252 0.960 . S
C239 C236 1.511 . S
C239 H253 0.961 . S
C239 H254 0.961 . S
C239 H255 0.961 . S
C240 C241 1.370 . S
C240 C242 1.363 . S
C240 H256 0.931 . S
C241 C240 1.370 . S
C241 C245 1.408 . S
C242 C240 1.363 . S
C242 C243 1.370 . S
C242 C246 1.524 . S
C243 C235 1.503 . S
C243 C242 1.370 . S
C243 C244 1.403 . S
C244 C243 1.403 . S
C244 C245 1.404 . S
C244 C247 1.539 . S
C245 C241 1.408 . S
C245 C244 1.404 . S
C245 H257 0.930 . S
C246 C242 1.524 . S
C246 H258 0.956 . S
C246 H259 0.961 . S
C246 H260 0.961 . S
C247 C244 1.539 . S
C247 H261 0.958 . S
C247 H262 0.961 . S
C247 H263 0.960 . S
H248 C232 0.931 . S
H249 C237 0.929 . S
H250 C238 0.960 . S
H251 C238 0.962 . S
H252 C238 0.960 . S
H253 C239 0.961 . S
H254 C239 0.961 . S
H255 C239 0.961 . S
H256 C240 0.931 . S
H257 C245 0.930 . S
H258 C246 0.956 . S
H259 C246 0.961 . S
H260 C246 0.961 . S
H261 C247 0.958 . S
H262 C247 0.961 . S
H263 C247 0.960 . S
C264 C265 1.391 . S
C264 C266 1.394 . S
C264 H280 0.931 . S
C265 C264 1.391 . S
C265 C269 1.376 . S
C266 C264 1.394 . S
C266 C267 1.369 . S
C266 C270 1.531 . S
C267 C266 1.369 . S
C267 C268 1.410 . S
C267 C275 1.503 . S
C268 C267 1.410 . S
C268 C269 1.392 . S
C268 C271 1.511 . S
C269 C265 1.376 . S
C269 C268 1.392 . S
C269 H281 0.929 . S
C270 C266 1.531 . S
C270 H282 0.960 . S
C270 H283 0.962 . S
C270 H284 0.960 . S
C271 C268 1.511 . S
C271 H285 0.961 . S
C271 H286 0.961 . S
C271 H287 0.961 . S
C272 C273 1.370 . S
C272 C274 1.363 . S
C272 H288 0.931 . S
C273 C272 1.370 . S
C273 C277 1.408 . S
C274 C272 1.363 . S
C274 C275 1.370 . S
C274 C278 1.524 . S
C275 C267 1.503 . S
C275 C274 1.370 . S
C275 C276 1.403 . S
C276 C275 1.403 . S
C276 C277 1.404 . S
C276 C279 1.539 . S
C277 C273 1.408 . S
C277 C276 1.404 . S
C277 H289 0.930 . S
C278 C274 1.524 . S
C278 H290 0.956 . S
C278 H291 0.961 . S
C278 H292 0.961 . S
C279 C276 1.539 . S
C279 H293 0.958 . S
C279 H294 0.961 . S
C279 H295 0.960 . S
H280 C264 0.931 . S
H281 C269 0.929 . S
H282 C270 0.960 . S
H283 C270 0.962 . S
H284 C270 0.960 . S
H285 C271 0.961 . S
H286 C271 0.961 . S
H287 C271 0.961 . S
H288 C272 0.931 . S
H289 C277 0.930 . S
H290 C278 0.956 . S
H291 C278 0.961 . S
H292 C278 0.961 . S
H293 C279 0.958 . S
H294 C279 0.961 . S
H295 C279 0.960 . S
C296 C297 1.391 . S
C296 C298 1.394 . S
C296 H312 0.931 . S
C297 C296 1.391 . S
C297 C301 1.376 . S
C298 C296 1.394 . S
C298 C299 1.369 . S
C298 C302 1.531 . S
C299 C298 1.369 . S
C299 C300 1.410 . S
C299 C307 1.503 . S
C300 C299 1.410 . S
C300 C301 1.392 . S
C300 C303 1.511 . S
C301 C297 1.376 . S
C301 C300 1.392 . S
C301 H313 0.929 . S
C302 C298 1.531 . S
C302 H314 0.960 . S
C302 H315 0.962 . S
C302 H316 0.960 . S
C303 C300 1.511 . S
C303 H317 0.961 . S
C303 H318 0.961 . S
C303 H319 0.961 . S
C304 C305 1.370 . S
C304 C306 1.363 . S
C304 H320 0.931 . S
C305 C304 1.370 . S
C305 C309 1.408 . S
C306 C304 1.363 . S
C306 C307 1.370 . S
C306 C310 1.524 . S
C307 C299 1.503 . S
C307 C306 1.370 . S
C307 C308 1.403 . S
C308 C307 1.403 . S
C308 C309 1.404 . S
C308 C311 1.539 . S
C309 C305 1.408 . S
C309 C308 1.404 . S
C309 H321 0.930 . S
C310 C306 1.524 . S
C310 H322 0.956 . S
C310 H323 0.961 . S
C310 H324 0.961 . S
C311 C308 1.539 . S
C311 H325 0.958 . S
C311 H326 0.961 . S
C311 H327 0.960 . S
H312 C296 0.931 . S
H313 C301 0.929 . S
H314 C302 0.960 . S
H315 C302 0.962 . S
H316 C302 0.960 . S
H317 C303 0.961 . S
H318 C303 0.961 . S
H319 C303 0.961 . S
H320 C304 0.931 . S
H321 C309 0.930 . S
H322 C310 0.956 . S
H323 C310 0.961 . S
H324 C310 0.961 . S
H325 C311 0.958 . S
H326 C311 0.961 . S
H327 C311 0.960 . S
C328 C329 1.391 . S
C328 C330 1.394 . S
C328 H344 0.931 . S
C329 C328 1.391 . S
C329 C333 1.376 . S
C330 C328 1.394 . S
C330 C331 1.369 . S
C330 C334 1.531 . S
C331 C330 1.369 . S
C331 C332 1.410 . S
C331 C339 1.503 . S
C332 C331 1.410 . S
C332 C333 1.392 . S
C332 C335 1.511 . S
C333 C329 1.376 . S
C333 C332 1.392 . S
C333 H345 0.929 . S
C334 C330 1.531 . S
C334 H346 0.960 . S
C334 H347 0.962 . S
C334 H348 0.960 . S
C335 C332 1.511 . S
C335 H349 0.961 . S
C335 H350 0.961 . S
C335 H351 0.961 . S
C336 C337 1.370 . S
C336 C338 1.363 . S
C336 H352 0.931 . S
C337 C336 1.370 . S
C337 C341 1.408 . S
C338 C336 1.363 . S
C338 C339 1.370 . S
C338 C342 1.524 . S
C339 C331 1.503 . S
C339 C338 1.370 . S
C339 C340 1.403 . S
C340 C339 1.403 . S
C340 C341 1.404 . S
C340 C343 1.539 . S
C341 C337 1.408 . S
C341 C340 1.404 . S
C341 H353 0.930 . S
C342 C338 1.524 . S
C342 H354 0.956 . S
C342 H355 0.961 . S
C342 H356 0.961 . S
C343 C340 1.539 . S
C343 H357 0.958 . S
C343 H358 0.961 . S
C343 H359 0.960 . S
H344 C328 0.931 . S
H345 C333 0.929 . S
H346 C334 0.960 . S
H347 C334 0.962 . S
H348 C334 0.960 . S
H349 C335 0.961 . S
H350 C335 0.961 . S
H351 C335 0.961 . S
H352 C336 0.931 . S
H353 C341 0.930 . S
H354 C342 0.956 . S
H355 C342 0.961 . S
H356 C342 0.961 . S
H357 C343 0.958 . S
H358 C343 0.961 . S
H359 C343 0.960 . S
C360 C361 1.391 1_565 S
C360 C362 1.394 . S
C360 H376 0.931 . S
C361 C360 1.391 1_545 S
C361 C365 1.376 . S
C362 C360 1.394 . S
C362 C363 1.369 . S
C362 C366 1.531 . S
C363 C362 1.369 . S
C363 C364 1.410 1_565 S
C363 C371 1.503 . S
C364 C363 1.410 1_545 S
C364 C365 1.392 . S
C364 C367 1.511 . S
C365 C361 1.376 . S
C365 C364 1.392 . S
C365 H377 0.929 . S
C366 C362 1.531 . S
C366 H378 0.960 . S
C366 H379 0.962 . S
C366 H380 0.960 . S
C367 C364 1.511 . S
C367 H381 0.961 . S
C367 H382 0.961 . S
C367 H383 0.961 . S
C368 C369 1.370 1_545 S
C368 C370 1.363 . S
C368 H384 0.931 . S
C369 C368 1.370 1_565 S
C369 C373 1.408 . S
C370 C368 1.363 . S
C370 C371 1.370 1_545 S
C370 C374 1.524 . S
C371 C363 1.503 . S
C371 C370 1.370 1_565 S
C371 C372 1.403 . S
C372 C371 1.403 . S
C372 C373 1.404 . S
C372 C375 1.539 . S
C373 C369 1.408 . S
C373 C372 1.404 . S
C373 H385 0.930 . S
C374 C370 1.524 . S
C374 H386 0.956 . S
C374 H387 0.961 . S
C374 H388 0.961 . S
C375 C372 1.539 . S
C375 H389 0.958 . S
C375 H390 0.961 . S
C375 H391 0.960 . S
H376 C360 0.931 . S
H377 C365 0.929 . S
H378 C366 0.960 . S
H379 C366 0.962 . S
H380 C366 0.960 . S
H381 C367 0.961 . S
H382 C367 0.961 . S
H383 C367 0.961 . S
H384 C368 0.931 . S
H385 C373 0.930 . S
H386 C374 0.956 . S
H387 C374 0.961 . S
H388 C374 0.961 . S
H389 C375 0.958 . S
H390 C375 0.961 . S
H391 C375 0.960 . S
C392 C393 1.391 . S
C392 C394 1.394 . S
C392 H408 0.931 . S
C393 C392 1.391 . S
C393 C397 1.376 . S
C394 C392 1.394 . S
C394 C395 1.369 . S
C394 C398 1.531 . S
C395 C394 1.369 . S
C395 C396 1.410 . S
C395 C403 1.503 . S
C396 C395 1.410 . S
C396 C397 1.392 . S
C396 C399 1.511 . S
C397 C393 1.376 . S
C397 C396 1.392 . S
C397 H409 0.929 . S
C398 C394 1.531 . S
C398 H410 0.960 . S
C398 H411 0.962 . S
C398 H412 0.960 . S
C399 C396 1.511 . S
C399 H413 0.961 . S
C399 H414 0.961 . S
C399 H415 0.961 . S
C400 C401 1.370 . S
C400 C402 1.363 . S
C400 H416 0.931 . S
C401 C400 1.370 . S
C401 C405 1.408 . S
C402 C400 1.363 . S
C402 C403 1.370 . S
C402 C406 1.524 . S
C403 C395 1.503 . S
C403 C402 1.370 . S
C403 C404 1.403 . S
C404 C403 1.403 . S
C404 C405 1.404 . S
C404 C407 1.539 . S
C405 C401 1.408 . S
C405 C404 1.404 . S
C405 H417 0.930 . S
C406 C402 1.524 . S
C406 H418 0.956 . S
C406 H419 0.961 . S
C406 H420 0.961 . S
C407 C404 1.539 . S
C407 H421 0.958 . S
C407 H422 0.961 . S
C407 H423 0.960 . S
H408 C392 0.931 . S
H409 C397 0.929 . S
H410 C398 0.960 . S
H411 C398 0.962 . S
H412 C398 0.960 . S
H413 C399 0.961 . S
H414 C399 0.961 . S
H415 C399 0.961 . S
H416 C400 0.931 . S
H417 C405 0.930 . S
H418 C406 0.956 . S
H419 C406 0.961 . S
H420 C406 0.961 . S
H421 C407 0.958 . S
H422 C407 0.961 . S
H423 C407 0.960 . S
C424 C425 1.391 1_655 S
C424 C426 1.394 . S
C424 H440 0.931 . S
C425 C424 1.391 1_455 S
C425 C429 1.376 . S
C426 C424 1.394 . S
C426 C427 1.369 1_655 S
C426 C430 1.531 . S
C427 C426 1.369 1_455 S
C427 C428 1.410 . S
C427 C435 1.503 1_455 S
C428 C427 1.410 . S
C428 C429 1.392 . S
C428 C431 1.511 . S
C429 C425 1.376 . S
C429 C428 1.392 . S
C429 H441 0.929 . S
C430 C426 1.531 . S
C430 H442 0.960 . S
C430 H443 0.962 . S
C430 H444 0.960 . S
C431 C428 1.511 . S
C431 H445 0.961 . S
C431 H446 0.961 . S
C431 H447 0.961 . S
C432 C433 1.370 . S
C432 C434 1.363 . S
C432 H448 0.931 1_556 S
C433 C432 1.370 . S
C433 C437 1.408 . S
C434 C432 1.363 . S
C434 C435 1.370 . S
C434 C438 1.524 1_556 S
C435 C427 1.503 1_655 S
C435 C434 1.370 . S
C435 C436 1.403 . S
C436 C435 1.403 . S
C436 C437 1.404 . S
C436 C439 1.538 . S
C437 C433 1.408 . S
C437 C436 1.404 . S
C437 H449 0.930 . S
C438 C434 1.524 1_554 S
C438 H450 0.956 . S
C438 H451 0.961 1_655 S
C438 H452 0.961 . S
C439 C436 1.538 . S
C439 H453 0.978 . S
C439 H454 0.946 1_655 S
C439 H455 0.957 1_655 S
H440 C424 0.931 . S
H441 C429 0.929 . S
H442 C430 0.960 . S
H443 C430 0.962 . S
H444 C430 0.960 . S
H445 C431 0.961 . S
H446 C431 0.961 . S
H447 C431 0.961 . S
H448 C432 0.931 1_554 S
H449 C437 0.930 . S
H450 C438 0.956 . S
H451 C438 0.961 1_455 S
H452 C438 0.961 . S
H453 C439 0.978 . S
H454 C439 0.946 1_455 S
H455 C439 0.957 1_455 S
C456 C457 1.391 1_455 S
C456 C458 1.394 . S
C456 H472 0.931 . S
C457 C456 1.391 1_655 S
C457 C461 1.376 . S
C458 C456 1.394 . S
C458 C459 1.369 . S
C458 C462 1.531 . S
C459 C458 1.369 . S
C459 C460 1.410 1_455 S
C459 C467 1.503 . S
C460 C459 1.410 1_655 S
C460 C461 1.392 . S
C460 C463 1.511 . S
C461 C457 1.376 . S
C461 C460 1.392 . S
C461 H473 0.929 . S
C462 C458 1.531 . S
C462 H474 0.960 . S
C462 H475 0.962 . S
C462 H476 0.960 . S
C463 C460 1.511 . S
C463 H477 0.961 . S
C463 H478 0.961 . S
C463 H479 0.961 . S
C464 C465 1.370 1_655 S
C464 C466 1.363 . S
C464 H480 0.931 . S
C465 C464 1.370 1_455 S
C465 C469 1.408 . S
C466 C464 1.363 . S
C466 C467 1.370 1_655 S
C466 C470 1.524 . S
C467 C459 1.503 . S
C467 C466 1.370 1_455 S
C467 C468 1.403 . S
C468 C467 1.403 . S
C468 C469 1.404 . S
C468 C471 1.539 . S
C469 C465 1.408 . S
C469 C468 1.404 . S
C469 H481 0.930 . S
C470 C466 1.524 . S
C470 H482 0.956 . S
C470 H483 0.961 . S
C470 H484 0.961 . S
C471 C468 1.539 . S
C471 H485 0.958 . S
C471 H486 0.961 . S
C471 H487 0.960 . S
H472 C456 0.931 . S
H473 C461 0.929 . S
H474 C462 0.960 . S
H475 C462 0.962 . S
H476 C462 0.960 . S
H477 C463 0.961 . S
H478 C463 0.961 . S
H479 C463 0.961 . S
H480 C464 0.931 . S
H481 C469 0.930 . S
H482 C470 0.956 . S
H483 C470 0.961 . S
H484 C470 0.961 . S
H485 C471 0.958 . S
H486 C471 0.961 . S
H487 C471 0.960 . S
C488 C489 1.391 . S
C488 C490 1.394 . S
C488 H504 0.931 . S
C489 C488 1.391 . S
C489 C493 1.376 . S
C490 C488 1.394 . S
C490 C491 1.369 . S
C490 C494 1.531 . S
C491 C490 1.369 . S
C491 C492 1.410 . S
C491 C499 1.503 . S
C492 C491 1.410 . S
C492 C493 1.392 . S
C492 C495 1.511 . S
C493 C489 1.376 . S
C493 C492 1.392 . S
C493 H505 0.929 . S
C494 C490 1.531 . S
C494 H506 0.960 . S
C494 H507 0.962 1_545 S
C494 H508 0.960 . S
C495 C492 1.511 . S
C495 H509 0.961 1_545 S
C495 H510 0.961 1_545 S
C495 H511 0.961 . S
C496 C497 1.370 . S
C496 C498 1.363 . S
C496 H512 0.931 . S
C497 C496 1.370 . S
C497 C501 1.408 1_565 S
C498 C496 1.363 . S
C498 C499 1.370 1_565 S
C498 C502 1.524 . S
C499 C491 1.503 . S
C499 C498 1.370 1_545 S
C499 C500 1.403 . S
C500 C499 1.403 . S
C500 C501 1.404 . S
C500 C503 1.539 . S
C501 C497 1.408 1_545 S
C501 C500 1.404 . S
C501 H513 0.930 . S
C502 C498 1.524 . S
C502 H514 0.956 . S
C502 H515 0.961 . S
C502 H516 0.961 . S
C503 C500 1.539 . S
C503 H517 0.958 . S
C503 H518 0.961 . S
C503 H519 0.960 . S
H504 C488 0.931 . S
H505 C493 0.929 . S
H506 C494 0.960 . S
H507 C494 0.962 1_565 S
H508 C494 0.960 . S
H509 C495 0.961 1_565 S
H510 C495 0.961 1_565 S
H511 C495 0.961 . S
H512 C496 0.931 . S
H513 C501 0.930 . S
H514 C502 0.956 . S
H515 C502 0.961 . S
H516 C502 0.961 . S
H517 C503 0.958 . S
H518 C503 0.961 . S
H519 C503 0.960 . S
C520 C521 1.391 . S
C520 C522 1.394 . S
C520 H536 0.931 . S
C521 C520 1.391 . S
C521 C525 1.376 . S
C522 C520 1.394 . S
C522 C523 1.369 . S
C522 C526 1.531 . S
C523 C522 1.369 . S
C523 C524 1.420 . S
C523 C531 1.503 . S
C524 C523 1.420 . S
C524 C525 1.393 . S
C524 C527 1.501 1_554 S
C525 C521 1.376 . S
C525 C524 1.393 . S
C525 H537 0.929 1_554 S
C526 C522 1.531 . S
C526 H538 0.960 . S
C526 H539 0.962 . S
C526 H540 0.960 . S
C527 C524 1.501 1_556 S
C527 H541 0.961 . S
C527 H542 0.961 . S
C527 H543 0.961 . S
C528 C529 1.370 . S
C528 C530 1.363 . S
C528 H544 0.931 . S
C529 C528 1.370 . S
C529 C533 1.408 . S
C530 C528 1.363 . S
C530 C531 1.370 . S
C530 C534 1.524 . S
C531 C523 1.503 . S
C531 C530 1.370 . S
C531 C532 1.403 . S
C532 C531 1.403 . S
C532 C533 1.404 . S
C532 C535 1.539 1_554 S
C533 C529 1.408 . S
C533 C532 1.404 . S
C533 H545 0.930 . S
C534 C530 1.524 . S
C534 H546 0.956 . S
C534 H547 0.961 . S
C534 H548 0.961 . S
C535 C532 1.539 1_556 S
C535 H549 0.958 1_556 S
C535 H550 0.961 . S
C535 H551 0.960 . S
H536 C520 0.931 . S
H537 C525 0.929 1_556 S
H538 C526 0.960 . S
H539 C526 0.962 . S
H540 C526 0.960 . S
H541 C527 0.961 . S
H542 C527 0.961 . S
H543 C527 0.961 . S
H544 C528 0.931 . S
H545 C533 0.930 . S
H546 C534 0.956 . S
H547 C534 0.961 . S
H548 C534 0.961 . S
H549 C535 0.958 1_554 S
H550 C535 0.961 . S
H551 C535 0.960 . S
C552 C553 1.391 . S
C552 C554 1.394 . S
C552 H568 0.931 . S
C553 C552 1.391 . S
C553 C557 1.376 . S
C554 C552 1.394 . S
C554 C555 1.369 . S
C554 C558 1.531 . S
C555 C554 1.369 . S
C555 C556 1.410 . S
C555 C563 1.503 . S
C556 C555 1.410 . S
C556 C557 1.392 . S
C556 C559 1.511 . S
C557 C553 1.376 . S
C557 C556 1.392 . S
C557 H569 0.929 . S
C558 C554 1.531 . S
C558 H570 0.960 . S
C558 H571 0.962 . S
C558 H572 0.960 . S
C559 C556 1.511 . S
C559 H573 0.961 . S
C559 H574 0.961 . S
C559 H575 0.961 . S
C560 C561 1.370 . S
C560 C562 1.363 . S
C560 H576 0.931 . S
C561 C560 1.370 . S
C561 C565 1.408 . S
C562 C560 1.363 . S
C562 C563 1.370 . S
C562 C566 1.524 . S
C563 C555 1.503 . S
C563 C562 1.370 . S
C563 C564 1.403 . S
C564 C563 1.403 . S
C564 C565 1.404 . S
C564 C567 1.539 . S
C565 C561 1.408 . S
C565 C564 1.404 . S
C565 H577 0.930 . S
C566 C562 1.524 . S
C566 H578 0.956 . S
C566 H579 0.961 . S
C566 H580 0.961 . S
C567 C564 1.539 . S
C567 H581 0.958 . S
C567 H582 0.961 . S
C567 H583 0.960 . S
H568 C552 0.931 . S
H569 C557 0.929 . S
H570 C558 0.960 . S
H571 C558 0.962 . S
H572 C558 0.960 . S
H573 C559 0.961 . S
H574 C559 0.961 . S
H575 C559 0.961 . S
H576 C560 0.931 . S
H577 C565 0.930 . S
H578 C566 0.956 . S
H579 C566 0.961 . S
H580 C566 0.961 . S
H581 C567 0.958 . S
H582 C567 0.961 . S
H583 C567 0.960 . S
C584 C585 1.391 . S
C584 C586 1.394 . S
C584 H600 0.931 . S
C585 C584 1.391 . S
C585 C589 1.376 . S
C586 C584 1.394 . S
C586 C587 1.369 . S
C586 C590 1.531 . S
C587 C586 1.369 . S
C587 C588 1.410 . S
C587 C595 1.503 . S
C588 C587 1.410 . S
C588 C589 1.392 . S
C588 C591 1.511 . S
C589 C585 1.376 . S
C589 C588 1.392 . S
C589 H601 0.929 . S
C590 C586 1.531 . S
C590 H602 0.960 . S
C590 H603 0.962 . S
C590 H604 0.960 . S
C591 C588 1.511 . S
C591 H605 0.961 . S
C591 H606 0.961 . S
C591 H607 0.961 . S
C592 C593 1.370 . S
C592 C594 1.363 . S
C592 H608 0.931 . S
C593 C592 1.370 . S
C593 C597 1.408 . S
C594 C592 1.363 . S
C594 C595 1.370 . S
C594 C598 1.524 . S
C595 C587 1.503 . S
C595 C594 1.370 . S
C595 C596 1.403 . S
C596 C595 1.403 . S
C596 C597 1.404 . S
C596 C599 1.539 . S
C597 C593 1.408 . S
C597 C596 1.404 . S
C597 H609 0.930 . S
C598 C594 1.524 . S
C598 H610 0.956 . S
C598 H611 0.961 . S
C598 H612 0.961 . S
C599 C596 1.539 . S
C599 H613 0.958 . S
C599 H614 0.961 . S
C599 H615 0.960 . S
H600 C584 0.931 . S
H601 C589 0.929 . S
H602 C590 0.960 . S
H603 C590 0.962 . S
H604 C590 0.960 . S
H605 C591 0.961 . S
H606 C591 0.961 . S
H607 C591 0.961 . S
H608 C592 0.931 . S
H609 C597 0.930 . S
H610 C598 0.956 . S
H611 C598 0.961 . S
H612 C598 0.961 . S
H613 C599 0.958 . S
H614 C599 0.961 . S
H615 C599 0.960 . S
C616 C617 1.391 1_556 S
C616 C618 1.394 . S
C616 H632 0.931 . S
C617 C616 1.391 1_554 S
C617 C621 1.376 . S
C618 C616 1.394 . S
C618 C619 1.369 1_556 S
C618 C622 1.531 . S
C619 C618 1.369 1_554 S
C619 C620 1.410 . S
C619 C627 1.503 1_554 S
C620 C619 1.410 . S
C620 C621 1.392 . S
C620 C623 1.511 . S
C621 C617 1.376 . S
C621 C620 1.392 . S
C621 H633 0.929 . S
C622 C618 1.531 . S
C622 H634 0.960 . S
C622 H635 0.962 . S
C622 H636 0.960 . S
C623 C620 1.511 . S
C623 H637 0.961 . S
C623 H638 0.961 . S
C623 H639 0.961 . S
C624 C625 1.370 . S
C624 C626 1.363 . S
C624 H640 0.931 . S
C625 C624 1.370 . S
C625 C629 1.408 . S
C626 C624 1.363 . S
C626 C627 1.370 . S
C626 C630 1.524 . S
C627 C619 1.503 1_556 S
C627 C626 1.370 . S
C627 C628 1.403 1_556 S
C628 C627 1.403 1_554 S
C628 C629 1.404 1_554 S
C628 C631 1.539 . S
C629 C625 1.408 . S
C629 C628 1.404 1_556 S
C629 H641 0.930 1_556 S
C630 C626 1.524 . S
C630 H642 0.956 . S
C630 H643 0.961 . S
C630 H644 0.961 . S
C631 C628 1.539 . S
C631 H645 0.958 . S
C631 H646 0.961 . S
C631 H647 0.960 . S
H632 C616 0.931 . S
H633 C621 0.929 . S
H634 C622 0.960 . S
H635 C622 0.962 . S
H636 C622 0.960 . S
H637 C623 0.961 . S
H638 C623 0.961 . S
H639 C623 0.961 . S
H640 C624 0.931 . S
H641 C629 0.930 1_554 S
H642 C630 0.956 . S
H643 C630 0.961 . S
H644 C630 0.961 . S
H645 C631 0.958 . S
H646 C631 0.961 . S
H647 C631 0.960 . S
C648 C649 1.391 . S
C648 C650 1.394 . S
C648 H664 0.931 . S
C649 C648 1.391 . S
C649 C653 1.376 . S
C650 C648 1.394 . S
C650 C651 1.369 . S
C650 C654 1.531 . S
C651 C650 1.369 . S
C651 C652 1.410 . S
C651 C659 1.503 . S
C652 C651 1.410 . S
C652 C653 1.392 . S
C652 C655 1.511 . S
C653 C649 1.376 . S
C653 C652 1.392 . S
C653 H665 0.929 . S
C654 C650 1.531 . S
C654 H666 0.960 . S
C654 H667 0.962 . S
C654 H668 0.960 . S
C655 C652 1.511 . S
C655 H669 0.961 . S
C655 H670 0.961 . S
C655 H671 0.961 . S
C656 C657 1.370 . S
C656 C658 1.363 . S
C656 H672 0.931 . S
C657 C656 1.370 . S
C657 C661 1.408 . S
C658 C656 1.363 . S
C658 C659 1.370 . S
C658 C662 1.524 . S
C659 C651 1.503 . S
C659 C658 1.370 . S
C659 C660 1.403 . S
C660 C659 1.403 . S
C660 C661 1.404 . S
C660 C663 1.539 . S
C661 C657 1.408 . S
C661 C660 1.404 . S
C661 H673 0.930 . S
C662 C658 1.524 . S
C662 H674 0.956 . S
C662 H675 0.961 . S
C662 H676 0.961 . S
C663 C660 1.539 . S
C663 H677 0.958 . S
C663 H678 0.961 . S
C663 H679 0.960 . S
H664 C648 0.931 . S
H665 C653 0.929 . S
H666 C654 0.960 . S
H667 C654 0.962 . S
H668 C654 0.960 . S
H669 C655 0.961 . S
H670 C655 0.961 . S
H671 C655 0.961 . S
H672 C656 0.931 . S
H673 C661 0.930 . S
H674 C662 0.956 . S
H675 C662 0.961 . S
H676 C662 0.961 . S
H677 C663 0.958 . S
H678 C663 0.961 . S
H679 C663 0.960 . S
C680 C681 1.391 . S
C680 C682 1.394 . S
C680 H696 0.931 . S
C681 C680 1.391 . S
C681 C685 1.376 . S
C682 C680 1.394 . S
C682 C683 1.369 . S
C682 C686 1.531 . S
C683 C682 1.369 . S
C683 C684 1.410 . S
C683 C691 1.503 . S
C684 C683 1.410 . S
C684 C685 1.392 . S
C684 C687 1.511 . S
C685 C681 1.376 . S
C685 C684 1.392 . S
C685 H697 0.929 . S
C686 C682 1.531 . S
C686 H698 0.960 . S
C686 H699 0.962 . S
C686 H700 0.960 . S
C687 C684 1.511 . S
C687 H701 0.961 . S
C687 H702 0.961 . S
C687 H703 0.961 . S
C688 C689 1.370 . S
C688 C690 1.363 . S
C688 H704 0.931 . S
C689 C688 1.370 . S
C689 C693 1.408 . S
C690 C688 1.363 . S
C690 C691 1.370 . S
C690 C694 1.524 . S
C691 C683 1.503 . S
C691 C690 1.370 . S
C691 C692 1.403 . S
C692 C691 1.403 . S
C692 C693 1.404 . S
C692 C695 1.539 . S
C693 C689 1.408 . S
C693 C692 1.404 . S
C693 H705 0.930 . S
C694 C690 1.524 . S
C694 H706 0.956 . S
C694 H707 0.961 . S
C694 H708 0.961 . S
C695 C692 1.539 . S
C695 H709 0.958 . S
C695 H710 0.961 . S
C695 H711 0.960 . S
H696 C680 0.931 . S
H697 C685 0.929 . S
H698 C686 0.960 . S
H699 C686 0.962 . S
H700 C686 0.960 . S
H701 C687 0.961 . S
H702 C687 0.961 . S
H703 C687 0.961 . S
H704 C688 0.931 . S
H705 C693 0.930 . S
H706 C694 0.956 . S
H707 C694 0.961 . S
H708 C694 0.961 . S
H709 C695 0.958 . S
H710 C695 0.961 . S
H711 C695 0.960 . S
C712 C713 1.391 . S
C712 C714 1.394 . S
C712 H728 0.931 . S
C713 C712 1.391 . S
C713 C717 1.376 . S
C714 C712 1.394 . S
C714 C715 1.369 1_554 S
C714 C718 1.531 . S
C715 C714 1.369 1_556 S
C715 C716 1.410 . S
C715 C723 1.503 . S
C716 C715 1.410 . S
C716 C717 1.392 1_556 S
C716 C719 1.511 . S
C717 C713 1.376 . S
C717 C716 1.392 1_554 S
C717 H729 0.929 1_554 S
C718 C714 1.531 . S
C718 H730 0.960 . S
C718 H731 0.962 . S
C718 H732 0.960 . S
C719 C716 1.511 . S
C719 H733 0.961 . S
C719 H734 0.961 . S
C719 H735 0.961 . S
C720 C721 1.370 1_554 S
C720 C722 1.363 . S
C720 H736 0.931 . S
C721 C720 1.370 1_556 S
C721 C725 1.408 . S
C722 C720 1.363 . S
C722 C723 1.370 1_554 S
C722 C726 1.524 . S
C723 C715 1.503 . S
C723 C722 1.370 1_556 S
C723 C724 1.403 . S
C724 C723 1.403 . S
C724 C725 1.404 . S
C724 C727 1.539 . S
C725 C721 1.408 . S
C725 C724 1.404 . S
C725 H737 0.930 . S
C726 C722 1.524 . S
C726 H738 0.956 . S
C726 H739 0.961 . S
C726 H740 0.961 . S
C727 C724 1.539 . S
C727 H741 0.958 . S
C727 H742 0.961 . S
C727 H743 0.960 . S
H728 C712 0.931 . S
H729 C717 0.929 1_556 S
H730 C718 0.960 . S
H731 C718 0.962 . S
H732 C718 0.960 . S
H733 C719 0.961 . S
H734 C719 0.961 . S
H735 C719 0.961 . S
H736 C720 0.931 . S
H737 C725 0.930 . S
H738 C726 0.956 . S
H739 C726 0.961 . S
H740 C726 0.961 . S
H741 C727 0.958 . S
H742 C727 0.961 . S
H743 C727 0.960 . S
C744 C745 1.391 1_565 S
C744 C746 1.394 . S
C744 H760 0.931 . S
C745 C744 1.391 1_545 S
C745 C749 1.376 . S
C746 C744 1.394 . S
C746 C747 1.369 . S
C746 C750 1.531 . S
C747 C746 1.369 . S
C747 C748 1.410 1_565 S
C747 C755 1.503 . S
C748 C747 1.410 1_545 S
C748 C749 1.392 . S
C748 C751 1.511 . S
C749 C745 1.376 . S
C749 C748 1.392 . S
C749 H761 0.929 . S
C750 C746 1.531 . S
C750 H762 0.960 . S
C750 H763 0.962 . S
C750 H764 0.960 . S
C751 C748 1.511 . S
C751 H765 0.961 . S
C751 H766 0.961 . S
C751 H767 0.961 . S
C752 C753 1.370 1_545 S
C752 C754 1.363 . S
C752 H768 0.931 . S
C753 C752 1.370 1_565 S
C753 C757 1.408 . S
C754 C752 1.363 . S
C754 C755 1.370 1_545 S
C754 C758 1.524 . S
C755 C747 1.503 . S
C755 C754 1.370 1_565 S
C755 C756 1.403 . S
C756 C755 1.403 . S
C756 C757 1.404 . S
C756 C759 1.539 . S
C757 C753 1.408 . S
C757 C756 1.404 . S
C757 H769 0.930 . S
C758 C754 1.524 . S
C758 H770 0.956 . S
C758 H771 0.961 . S
C758 H772 0.961 . S
C759 C756 1.539 . S
C759 H773 0.958 . S
C759 H774 0.961 . S
C759 H775 0.960 . S
H760 C744 0.931 . S
H761 C749 0.929 . S
H762 C750 0.960 . S
H763 C750 0.962 . S
H764 C750 0.960 . S
H765 C751 0.961 . S
H766 C751 0.961 . S
H767 C751 0.961 . S
H768 C752 0.931 . S
H769 C757 0.930 . S
H770 C758 0.956 . S
H771 C758 0.961 . S
H772 C758 0.961 . S
H773 C759 0.958 . S
H774 C759 0.961 . S
H775 C759 0.960 . S
C776 C777 1.391 . S
C776 C778 1.394 . S
C776 H792 0.931 . S
C777 C776 1.391 . S
C777 C781 1.376 . S
C778 C776 1.394 . S
C778 C779 1.369 . S
C778 C782 1.531 . S
C779 C778 1.369 . S
C779 C780 1.410 . S
C779 C787 1.503 . S
C780 C779 1.410 . S
C780 C781 1.392 . S
C780 C783 1.511 . S
C781 C777 1.376 . S
C781 C780 1.392 . S
C781 H793 0.929 . S
C782 C778 1.531 . S
C782 H794 0.960 . S
C782 H795 0.962 . S
C782 H796 0.960 . S
C783 C780 1.511 . S
C783 H797 0.961 . S
C783 H798 0.961 . S
C783 H799 0.961 . S
C784 C785 1.370 . S
C784 C786 1.363 . S
C784 H800 0.931 . S
C785 C784 1.370 . S
C785 C789 1.408 . S
C786 C784 1.363 . S
C786 C787 1.370 . S
C786 C790 1.524 . S
C787 C779 1.503 . S
C787 C786 1.370 . S
C787 C788 1.403 . S
C788 C787 1.403 . S
C788 C789 1.404 . S
C788 C791 1.539 . S
C789 C785 1.408 . S
C789 C788 1.404 . S
C789 H801 0.930 . S
C790 C786 1.524 . S
C790 H802 0.956 . S
C790 H803 0.961 . S
C790 H804 0.961 . S
C791 C788 1.539 . S
C791 H805 0.958 . S
C791 H806 0.961 . S
C791 H807 0.960 . S
H792 C776 0.931 . S
H793 C781 0.929 . S
H794 C782 0.960 . S
H795 C782 0.962 . S
H796 C782 0.960 . S
H797 C783 0.961 . S
H798 C783 0.961 . S
H799 C783 0.961 . S
H800 C784 0.931 . S
H801 C789 0.930 . S
H802 C790 0.956 . S
H803 C790 0.961 . S
H804 C790 0.961 . S
H805 C791 0.958 . S
H806 C791 0.961 . S
H807 C791 0.960 . S
C808 C809 1.391 . S
C808 C810 1.394 . S
C808 H824 0.931 . S
C809 C808 1.391 . S
C809 C813 1.376 1_455 S
C810 C808 1.394 . S
C810 C811 1.349 1_455 S
C810 C814 1.531 . S
C811 C810 1.349 1_655 S
C811 C812 1.426 . S
C811 C819 1.507 . S
C812 C811 1.426 . S
C812 C813 1.392 . S
C812 C815 1.511 . S
C813 C809 1.376 1_655 S
C813 C812 1.392 . S
C813 H825 0.929 . S
C814 C810 1.531 . S
C814 H826 0.960 . S
C814 H827 0.962 . S
C814 H828 0.960 . S
C815 C812 1.511 . S
C815 H829 0.961 . S
C815 H830 0.961 . S
C815 H831 0.961 . S
C816 C817 1.370 1_455 S
C816 C818 1.363 . S
C816 H832 0.931 . S
C817 C816 1.370 1_655 S
C817 C821 1.408 . S
C818 C816 1.363 . S
C818 C819 1.370 1_455 S
C818 C822 1.524 . S
C819 C811 1.507 . S
C819 C818 1.370 1_655 S
C819 C820 1.403 . S
C820 C819 1.403 . S
C820 C821 1.404 . S
C820 C823 1.539 . S
C821 C817 1.408 . S
C821 C820 1.404 . S
C821 H833 0.930 . S
C822 C818 1.524 . S
C822 H834 0.956 . S
C822 H835 0.961 . S
C822 H836 0.961 . S
C823 C820 1.539 . S
C823 H837 0.958 . S
C823 H838 0.961 . S
C823 H839 0.960 . S
H824 C808 0.931 . S
H825 C813 0.929 . S
H826 C814 0.960 . S
H827 C814 0.962 . S
H828 C814 0.960 . S
H829 C815 0.961 . S
H830 C815 0.961 . S
H831 C815 0.961 . S
H832 C816 0.931 . S
H833 C821 0.930 . S
H834 C822 0.956 . S
H835 C822 0.961 . S
H836 C822 0.961 . S
H837 C823 0.958 . S
H838 C823 0.961 . S
H839 C823 0.960 . S
C840 C841 1.391 1_545 S
C840 C842 1.394 . S
C840 H856 0.931 . S
C841 C840 1.391 1_565 S
C841 C845 1.376 . S
C842 C840 1.394 . S
C842 C843 1.357 1_545 S
C842 C846 1.531 . S
C843 C842 1.357 1_565 S
C843 C844 1.428 . S
C843 C851 1.500 1_565 S
C844 C843 1.428 . S
C844 C845 1.392 . S
C844 C847 1.511 . S
C845 C841 1.376 . S
C845 C844 1.392 . S
C845 H857 0.929 . S
C846 C842 1.531 . S
C846 H858 0.960 . S
C846 H859 0.962 . S
C846 H860 0.960 . S
C847 C844 1.511 . S
C847 H861 0.961 . S
C847 H862 0.961 . S
C847 H863 0.961 . S
C848 C849 1.370 . S
C848 C850 1.363 1_545 S
C848 H864 0.946 . S
C849 C848 1.370 . S
C849 C853 1.408 . S
C850 C848 1.363 1_565 S
C850 C851 1.370 1_565 S
C850 C854 1.524 . S
C851 C843 1.500 1_545 S
C851 C850 1.370 1_545 S
C851 C852 1.403 . S
C852 C851 1.403 . S
C852 C853 1.404 . S
C852 C855 1.539 . S
C853 C849 1.408 . S
C853 C852 1.404 . S
C853 H865 0.930 . S
C854 C850 1.524 . S
C854 H866 0.956 . S
C854 H867 0.961 . S
C854 H868 0.961 . S
C855 C852 1.539 . S
C855 H869 0.958 . S
C855 H870 0.961 . S
C855 H871 0.960 . S
H856 C840 0.931 . S
H857 C845 0.929 . S
H858 C846 0.960 . S
H859 C846 0.962 . S
H860 C846 0.960 . S
H861 C847 0.961 . S
H862 C847 0.961 . S
H863 C847 0.961 . S
H864 C848 0.946 . S
H865 C853 0.930 . S
H866 C854 0.956 . S
H867 C854 0.961 . S
H868 C854 0.961 . S
H869 C855 0.958 . S
H870 C855 0.961 . S
H871 C855 0.960 . S
C872 C873 1.391 . S
C872 C874 1.394 . S
C872 H888 0.931 . S
C873 C872 1.391 . S
C873 C877 1.376 . S
C874 C872 1.394 . S
C874 C875 1.369 . S
C874 C878 1.531 . S
C875 C874 1.369 . S
C875 C876 1.410 . S
C875 C883 1.503 . S
C876 C875 1.410 . S
C876 C877 1.392 . S
C876 C879 1.511 . S
C877 C873 1.376 . S
C877 C876 1.392 . S
C877 H889 0.929 . S
C878 C874 1.531 . S
C878 H890 0.960 . S
C878 H891 0.962 . S
C878 H892 0.960 . S
C879 C876 1.511 . S
C879 H893 0.961 . S
C879 H894 0.961 . S
C879 H895 0.961 . S
C880 C881 1.370 . S
C880 C882 1.363 . S
C880 H896 0.931 . S
C881 C880 1.370 . S
C881 C885 1.408 . S
C882 C880 1.363 . S
C882 C883 1.370 . S
C882 C886 1.524 . S
C883 C875 1.503 . S
C883 C882 1.370 . S
C883 C884 1.403 . S
C884 C883 1.403 . S
C884 C885 1.404 . S
C884 C887 1.539 . S
C885 C881 1.408 . S
C885 C884 1.404 . S
C885 H897 0.930 . S
C886 C882 1.524 . S
C886 H898 0.956 . S
C886 H899 0.961 . S
C886 H900 0.961 . S
C887 C884 1.539 . S
C887 H901 0.958 . S
C887 H902 0.961 . S
C887 H903 0.960 . S
H888 C872 0.931 . S
H889 C877 0.929 . S
H890 C878 0.960 . S
H891 C878 0.962 . S
H892 C878 0.960 . S
H893 C879 0.961 . S
H894 C879 0.961 . S
H895 C879 0.961 . S
H896 C880 0.931 . S
H897 C885 0.930 . S
H898 C886 0.956 . S
H899 C886 0.961 . S
H900 C886 0.961 . S
H901 C887 0.958 . S
H902 C887 0.961 . S
H903 C887 0.960 . S
C904 C905 1.391 1_455 S
C904 C906 1.394 . S
C904 H920 0.931 . S
C905 C904 1.391 1_655 S
C905 C909 1.376 . S
C906 C904 1.394 . S
C906 C907 1.369 1_455 S
C906 C910 1.531 . S
C907 C906 1.369 1_655 S
C907 C908 1.410 . S
C907 C915 1.503 1_655 S
C908 C907 1.410 . S
C908 C909 1.392 . S
C908 C911 1.511 . S
C909 C905 1.376 . S
C909 C908 1.392 . S
C909 H921 0.929 . S
C910 C906 1.531 . S
C910 H922 0.960 . S
C910 H923 0.962 . S
C910 H924 0.960 . S
C911 C908 1.511 . S
C911 H925 0.961 . S
C911 H926 0.961 . S
C911 H927 0.961 . S
C912 C913 1.370 . S
C912 C914 1.363 . S
C912 H928 0.931 . S
C913 C912 1.370 . S
C913 C917 1.408 1_455 S
C914 C912 1.363 . S
C914 C915 1.370 . S
C914 C918 1.524 . S
C915 C907 1.503 1_455 S
C915 C914 1.370 . S
C915 C916 1.403 1_455 S
C916 C915 1.403 1_655 S
C916 C917 1.404 . S
C916 C919 1.539 . S
C917 C913 1.408 1_655 S
C917 C916 1.404 . S
C917 H929 0.930 . S
C918 C914 1.524 . S
C918 H930 0.956 . S
C918 H931 0.961 . S
C918 H932 0.961 . S
C919 C916 1.539 . S
C919 H933 0.958 . S
C919 H934 0.961 . S
C919 H935 0.960 . S
H920 C904 0.931 . S
H921 C909 0.929 . S
H922 C910 0.960 . S
H923 C910 0.962 . S
H924 C910 0.960 . S
H925 C911 0.961 . S
H926 C911 0.961 . S
H927 C911 0.961 . S
H928 C912 0.931 . S
H929 C917 0.930 . S
H930 C918 0.956 . S
H931 C918 0.961 . S
H932 C918 0.961 . S
H933 C919 0.958 . S
H934 C919 0.961 . S
H935 C919 0.960 . S
C169 C8 1.776 . S
C177 C120 1.787 . S
C201 C22 1.779 . S
C209 C134 1.785 . S
C233 C148 1.778 . S
C241 C36 1.790 . S
C265 C162 1.778 . S
C273 C50 1.790 . S
C297 C92 1.779 . S
C305 C64 1.790 . S
C329 C106 1.783 . S
C337 C78 1.790 . S
C361 C7 1.502 . S
C369 C49 1.533 . S
C393 C63 1.495 . S
C401 C21 1.533 . S
C425 C77 1.537 . S
C433 C35 1.524 . S
C457 C91 1.516 . S
C465 C133 1.531 . S
C489 C147 1.540 . S
C497 C105 1.504 . S
C521 C119 1.529 . S
C529 C161 1.503 . S
C553 C87 0.906 . S
C561 C3 0.853 . S
C585 C17 0.860 . S
C593 C101 0.871 . S
C617 C115 0.891 . S
C625 C31 0.858 . S
C649 C129 0.901 . S
C657 C45 0.855 . S
C681 C59 0.845 . S
C689 C143 0.880 . S
C713 C157 0.834 . S
C721 C73 0.884 . S
C745 C9 0.980 . S
C753 C107 1.037 . S
C777 C121 1.014 . S
C785 C23 1.019 . S
C809 C135 1.002 . S
C817 C37 1.043 . S
C841 C51 0.998 . S
C849 C149 1.026 . S
C873 C163 1.034 . S
C881 C65 1.033 . S
C905 C93 1.038 . S
C913 C79 1.010 . S
