# Generated by pormake.
# Topology upb, (4)-cn, num edge types: 1
# Building blocks:
#     Node 0, Type 0, BuildingBlock: KUFVIS_clean_sbu_0, # of connection points: 4
#     Node 1, Type 0, BuildingBlock: KUFVIS_clean_sbu_0, # of connection points: 4
#     Node 2, Type 0, BuildingBlock: KUFVIS_clean_sbu_0, # of connection points: 4
#     Node 3, Type 0, BuildingBlock: KUFVIS_clean_sbu_0, # of connection points: 4
#     Node 4, Type 0, BuildingBlock: KUFVIS_clean_sbu_0, # of connection points: 4
#     Node 5, Type 0, BuildingBlock: KUFVIS_clean_sbu_0, # of connection points: 4
#     Node 6, Type 0, BuildingBlock: KUFVIS_clean_sbu_0, # of connection points: 4
#     Node 7, Type 0, BuildingBlock: KUFVIS_clean_sbu_0, # of connection points: 4
#     Node 8, Type 0, BuildingBlock: KUFVIS_clean_sbu_0, # of connection points: 4
#     Node 9, Type 0, BuildingBlock: KUFVIS_clean_sbu_0, # of connection points: 4
#     Node 10, Type 0, BuildingBlock: KUFVIS_clean_sbu_0, # of connection points: 4
#     Node 11, Type 0, BuildingBlock: KUFVIS_clean_sbu_0, # of connection points: 4
#     Node 12, Type 0, BuildingBlock: KUFVIS_clean_sbu_0, # of connection points: 4
#     Node 13, Type 0, BuildingBlock: KUFVIS_clean_sbu_0, # of connection points: 4
#     Node 14, Type 0, BuildingBlock: KUFVIS_clean_sbu_0, # of connection points: 4
#     Node 15, Type 0, BuildingBlock: KUFVIS_clean_sbu_0, # of connection points: 4
#     Edge 16, Type (0, 0), BuildingBlock: KIFKEQ_clean_linker_1, # of connection points: 2
#     Edge 17, Type (0, 0), BuildingBlock: KIFKEQ_clean_linker_1, # of connection points: 2
#     Edge 18, Type (0, 0), BuildingBlock: KIFKEQ_clean_linker_1, # of connection points: 2
#     Edge 19, Type (0, 0), BuildingBlock: KIFKEQ_clean_linker_1, # of connection points: 2
#     Edge 20, Type (0, 0), BuildingBlock: KIFKEQ_clean_linker_1, # of connection points: 2
#     Edge 21, Type (0, 0), BuildingBlock: KIFKEQ_clean_linker_1, # of connection points: 2
#     Edge 22, Type (0, 0), BuildingBlock: KIFKEQ_clean_linker_1, # of connection points: 2
#     Edge 23, Type (0, 0), BuildingBlock: KIFKEQ_clean_linker_1, # of connection points: 2
#     Edge 24, Type (0, 0), BuildingBlock: KIFKEQ_clean_linker_1, # of connection points: 2
#     Edge 25, Type (0, 0), BuildingBlock: KIFKEQ_clean_linker_1, # of connection points: 2
#     Edge 26, Type (0, 0), BuildingBlock: KIFKEQ_clean_linker_1, # of connection points: 2
#     Edge 27, Type (0, 0), BuildingBlock: KIFKEQ_clean_linker_1, # of connection points: 2
#     Edge 28, Type (0, 0), BuildingBlock: KIFKEQ_clean_linker_1, # of connection points: 2
#     Edge 29, Type (0, 0), BuildingBlock: KIFKEQ_clean_linker_1, # of connection points: 2
#     Edge 30, Type (0, 0), BuildingBlock: KIFKEQ_clean_linker_1, # of connection points: 2
#     Edge 31, Type (0, 0), BuildingBlock: KIFKEQ_clean_linker_1, # of connection points: 2
#     Edge 32, Type (0, 0), BuildingBlock: KIFKEQ_clean_linker_1, # of connection points: 2
#     Edge 33, Type (0, 0), BuildingBlock: KIFKEQ_clean_linker_1, # of connection points: 2
#     Edge 34, Type (0, 0), BuildingBlock: KIFKEQ_clean_linker_1, # of connection points: 2
#     Edge 35, Type (0, 0), BuildingBlock: KIFKEQ_clean_linker_1, # of connection points: 2
#     Edge 36, Type (0, 0), BuildingBlock: KIFKEQ_clean_linker_1, # of connection points: 2
#     Edge 37, Type (0, 0), BuildingBlock: KIFKEQ_clean_linker_1, # of connection points: 2
#     Edge 38, Type (0, 0), BuildingBlock: KIFKEQ_clean_linker_1, # of connection points: 2
#     Edge 39, Type (0, 0), BuildingBlock: KIFKEQ_clean_linker_1, # of connection points: 2
#     Edge 40, Type (0, 0), BuildingBlock: KIFKEQ_clean_linker_1, # of connection points: 2
#     Edge 41, Type (0, 0), BuildingBlock: KIFKEQ_clean_linker_1, # of connection points: 2
#     Edge 42, Type (0, 0), BuildingBlock: KIFKEQ_clean_linker_1, # of connection points: 2
#     Edge 43, Type (0, 0), BuildingBlock: KIFKEQ_clean_linker_1, # of connection points: 2
#     Edge 44, Type (0, 0), BuildingBlock: KIFKEQ_clean_linker_1, # of connection points: 2
#     Edge 45, Type (0, 0), BuildingBlock: KIFKEQ_clean_linker_1, # of connection points: 2
#     Edge 46, Type (0, 0), BuildingBlock: KIFKEQ_clean_linker_1, # of connection points: 2
#     Edge 47, Type (0, 0), BuildingBlock: KIFKEQ_clean_linker_1, # of connection points: 2
# Relax obj value: 0.213
# Max RMSD: 0.081
# Mean RMSD: 0.081
data_MOF--net-upb--node1-KUFVIS_clean_sbu_0--edge1-KIFKEQ_clean_linker_1
_symmetry_space_group_name_H-M    P1
_symmetry_Int_Tables_number       1
_symmetry_cell_setting            triclinic
loop_
_symmetry_equiv_pos_as_xyz
'x, y, z'
_cell_length_a     45.044225
_cell_length_b     45.047249
_cell_length_c     33.156866
_cell_angle_alpha  89.99678
_cell_angle_beta   90.001674
_cell_angle_gamma 90.009135
loop_
_atom_site_label
_atom_site_type_symbol
_atom_site_fract_x
_atom_site_fract_y
_atom_site_fract_z
_atom_type_partial_charge
Mn0 Mn 0.04435 0.21613 0.2916 0.0
Mn1 Mn 0.10097 0.21508 0.35851 0.0
C2 C 0.0358 0.22677 0.35864 0.0
C3 C 0.00626 0.1919 0.25774 0.0
C4 C 0.09054 0.26538 0.29974 0.0
O5 O 0.07579 0.19269 0.26183 0.0
O6 O 0.11191 0.19249 0.30893 0.0
C7 C 0.10127 0.15081 0.37748 0.0
N8 N 0.09931 0.17955 0.39001 0.0
C9 C 0.09587 0.16442 0.45948 0.0
C10 C 0.098 0.13469 0.44732 0.0
C11 C 0.10067 0.12787 0.40614 0.0
C12 C 0.09684 0.18636 0.42958 0.0
H13 H 0.10328 0.14542 0.34587 0.0
C14 C 0.10142 0.18502 0.27438 0.0
O15 O 0.01753 0.21634 0.24365 0.0
O16 O 0.01753 0.18138 0.29075 0.0
N17 N 0.09316 0.23542 0.40812 0.0
C18 C 0.08893 0.26498 0.41457 0.0
C19 C 0.08459 0.27541 0.45405 0.0
C20 C 0.0848 0.25537 0.48651 0.0
C21 C 0.08933 0.22505 0.47917 0.0
C22 C 0.09367 0.21598 0.43919 0.0
H23 H 0.08846 0.28041 0.38973 0.0
O24 O 0.01766 0.23621 0.33109 0.0
O25 O 0.05855 0.21156 0.34618 0.0
O26 O 0.0678 0.25443 0.28236 0.0
O27 O 0.10443 0.25271 0.32851 0.0
C28 C 0.0889 0.20339 0.50984 0.0
C29 C 0.09221 0.1731 0.50001 0.0
H30 H 0.09727 0.11691 0.46927 0.0
H31 H 0.10222 0.10496 0.39652 0.0
H32 H 0.08092 0.29881 0.45943 0.0
H33 H 0.08111 0.26345 0.51686 0.0
H34 H 0.08553 0.20975 0.54102 0.0
H35 H 0.09143 0.15662 0.52378 0.0
Mn36 Mn 0.78454 0.04228 0.29092 0.0
Mn37 Mn 0.7874 0.0979 0.35924 0.0
C38 C 0.77426 0.03288 0.3578 0.0
C39 C 0.80805 0.0043 0.25591 0.0
C40 C 0.73627 0.08925 0.30095 0.0
O41 O 0.80811 0.07395 0.26148 0.0
O42 O 0.81049 0.10879 0.31023 0.0
C43 C 0.8515 0.09631 0.37901 0.0
N44 N 0.82263 0.09491 0.39111 0.0
C45 C 0.83712 0.09069 0.46075 0.0
C46 C 0.86699 0.09225 0.44903 0.0
C47 C 0.8742 0.09501 0.40798 0.0
C48 C 0.81545 0.09234 0.43055 0.0
H49 H 0.85716 0.09844 0.34749 0.0
C50 C 0.81702 0.09892 0.27504 0.0
O51 O 0.78362 0.01597 0.2424 0.0
O52 O 0.81904 0.01522 0.28883 0.0
N53 N 0.76647 0.09009 0.40837 0.0
C54 C 0.73672 0.08674 0.41434 0.0
C55 C 0.72589 0.08237 0.45361 0.0
C56 C 0.74569 0.08175 0.48634 0.0
C57 C 0.77618 0.08551 0.4795 0.0
C58 C 0.78568 0.08986 0.43971 0.0
H59 H 0.72142 0.0871 0.38929 0.0
O60 O 0.76454 0.0152 0.3299 0.0
O61 O 0.78978 0.05558 0.34583 0.0
O62 O 0.74615 0.06606 0.28341 0.0
O63 O 0.75019 0.10278 0.32897 0.0
C64 C 0.79758 0.08434 0.51046 0.0
C65 C 0.82803 0.08698 0.50111 0.0
H66 H 0.88458 0.09104 0.47123 0.0
H67 H 0.89721 0.09612 0.39871 0.0
H68 H 0.70234 0.07938 0.45864 0.0
H69 H 0.73727 0.07808 0.51653 0.0
H70 H 0.79089 0.08095 0.54151 0.0
H71 H 0.8443 0.08567 0.52511 0.0
Mn72 Mn 0.95549 0.78221 0.29281 0.0
Mn73 Mn 0.89819 0.78195 0.35866 0.0
C74 C 0.96331 0.77036 0.35964 0.0
C75 C 0.99413 0.80677 0.26061 0.0
C76 C 0.90926 0.73284 0.29831 0.0
O77 O 0.92436 0.80633 0.26332 0.0
O78 O 0.88773 0.80551 0.30971 0.0
C79 C 0.89731 0.84581 0.38005 0.0
N80 N 0.89944 0.81684 0.3915 0.0
C81 C 0.90219 0.83056 0.46157 0.0
C82 C 0.89983 0.86051 0.45053 0.0
C83 C 0.89743 0.86816 0.40959 0.0
C84 C 0.90164 0.80923 0.43084 0.0
H85 H 0.89547 0.85184 0.34863 0.0
C86 C 0.89857 0.81373 0.27568 0.0
O87 O 0.98282 0.78271 0.24545 0.0
O88 O 0.9825 0.81685 0.29364 0.0
N89 N 0.90562 0.76064 0.40763 0.0
C90 C 0.90989 0.73097 0.41304 0.0
C91 C 0.91403 0.71977 0.45216 0.0
C92 C 0.91356 0.73915 0.48534 0.0
C93 C 0.90897 0.76958 0.47907 0.0
C94 C 0.90487 0.77945 0.43939 0.0
H95 H 0.91054 0.71604 0.38765 0.0
O96 O 0.9817 0.76133 0.33215 0.0
O97 O 0.94071 0.7858 0.34723 0.0
O98 O 0.93212 0.74416 0.28174 0.0
O99 O 0.89506 0.74491 0.32727 0.0
C100 C 0.90908 0.79061 0.51054 0.0
C101 C 0.90563 0.82107 0.5018 0.0
H102 H 0.9001 0.87783 0.47318 0.0
H103 H 0.89571 0.89124 0.40082 0.0
H104 H 0.91773 0.69627 0.45672 0.0
H105 H 0.91707 0.73047 0.51543 0.0
H106 H 0.91227 0.78364 0.5415 0.0
H107 H 0.90612 0.83706 0.5262 0.0
Mn108 Mn 0.21601 0.95837 0.29063 0.0
Mn109 Mn 0.21513 0.90413 0.36111 0.0
C110 C 0.22688 0.96919 0.35696 0.0
C111 C 0.19197 0.99557 0.25484 0.0
C112 C 0.26512 0.91232 0.30117 0.0
O113 O 0.19218 0.92605 0.26318 0.0
O114 O 0.19208 0.89162 0.31261 0.0
C115 C 0.15102 0.90444 0.38117 0.0
N116 N 0.17987 0.9069 0.39305 0.0
C117 C 0.16541 0.91234 0.46255 0.0
C118 C 0.13557 0.90967 0.45108 0.0
C119 C 0.12835 0.90577 0.4102 0.0
C120 C 0.18706 0.91056 0.43233 0.0
H121 H 0.14533 0.90143 0.3498 0.0
C122 C 0.18438 0.90096 0.27754 0.0
O123 O 0.21621 0.98363 0.24115 0.0
O124 O 0.18143 0.98533 0.28845 0.0
N125 N 0.23591 0.91364 0.40984 0.0
C126 C 0.2655 0.91829 0.41549 0.0
C127 C 0.27628 0.92393 0.45448 0.0
C128 C 0.25657 0.92461 0.48728 0.0
C129 C 0.22621 0.9197 0.48077 0.0
C130 C 0.21676 0.91407 0.44124 0.0
H131 H 0.28067 0.91817 0.39035 0.0
O132 O 0.23639 0.98628 0.32825 0.0
O133 O 0.21159 0.94606 0.34604 0.0
O134 O 0.25418 0.9345 0.28252 0.0
O135 O 0.2525 0.89949 0.33088 0.0
C136 C 0.20485 0.92102 0.51177 0.0
C137 C 0.17447 0.91728 0.50268 0.0
H138 H 0.11801 0.91086 0.47334 0.0
H139 H 0.10537 0.9038 0.4011 0.0
H140 H 0.29972 0.92794 0.45921 0.0
H141 H 0.26493 0.9293 0.51725 0.0
H142 H 0.21149 0.92541 0.5426 0.0
H143 H 0.15822 0.91874 0.52668 0.0
Mn144 Mn 0.04175 0.78457 0.71472 0.0
Mn145 Mn 0.09648 0.78512 0.64492 0.0
C146 C 0.03141 0.77312 0.6484 0.0
C147 C 0.00437 0.80891 0.74988 0.0
C148 C 0.08762 0.73516 0.70468 0.0
O149 O 0.0739 0.80843 0.74249 0.0
O150 O 0.1088 0.80791 0.69376 0.0
C151 C 0.09637 0.84934 0.62552 0.0
N152 N 0.09403 0.82056 0.6133 0.0
C153 C 0.08917 0.83543 0.54388 0.0
C154 C 0.09174 0.8652 0.55571 0.0
C155 C 0.09528 0.87217 0.59672 0.0
C156 C 0.09066 0.8136 0.5739 0.0
H157 H 0.0991 0.85485 0.65699 0.0
C158 C 0.09925 0.81583 0.72862 0.0
O159 O 0.01617 0.7847 0.76392 0.0
O160 O 0.01482 0.8192 0.71625 0.0
N161 N 0.08745 0.76462 0.59581 0.0
C162 C 0.08317 0.73503 0.58969 0.0
C163 C 0.07807 0.72445 0.55045 0.0
C164 C 0.0776 0.74437 0.51788 0.0
C165 C 0.08221 0.77472 0.52485 0.0
C166 C 0.08731 0.78395 0.5646 0.0
H167 H 0.08321 0.7197 0.61462 0.0
O168 O 0.01408 0.76396 0.67706 0.0
O169 O 0.0544 0.78863 0.65931 0.0
O170 O 0.06557 0.74638 0.72335 0.0
O171 O 0.10062 0.74758 0.67494 0.0
C172 C 0.08116 0.79626 0.49406 0.0
C173 C 0.08468 0.82659 0.50356 0.0
H174 H 0.09076 0.88289 0.53362 0.0
H175 H 0.09716 0.89511 0.60611 0.0
H176 H 0.07433 0.70102 0.54536 0.0
H177 H 0.07333 0.73617 0.48772 0.0
H178 H 0.07719 0.78979 0.46307 0.0
H179 H 0.08347 0.84298 0.4797 0.0
Mn180 Mn 0.2139 0.04485 0.71323 0.0
Mn181 Mn 0.20891 0.10154 0.64674 0.0
C182 C 0.22339 0.03675 0.6458 0.0
C183 C 0.19149 0.00598 0.7478 0.0
C184 C 0.26128 0.09272 0.70292 0.0
O185 O 0.19036 0.07562 0.74442 0.0
O186 O 0.18653 0.11116 0.69682 0.0
C187 C 0.1445 0.09894 0.62909 0.0
N188 N 0.17315 0.09843 0.61597 0.0
C189 C 0.15746 0.09529 0.5467 0.0
C190 C 0.12779 0.09595 0.55948 0.0
C191 C 0.1213 0.09772 0.60085 0.0
C192 C 0.17965 0.0968 0.57622 0.0
H193 H 0.13939 0.1003 0.66086 0.0
C194 C 0.18081 0.10064 0.73192 0.0
O195 O 0.21599 0.01776 0.7609 0.0
O196 O 0.17984 0.01725 0.71553 0.0
N197 N 0.22906 0.09509 0.59666 0.0
C198 C 0.25875 0.09251 0.58955 0.0
C199 C 0.26893 0.08924 0.54977 0.0
C200 C 0.24855 0.08892 0.51771 0.0
C201 C 0.21813 0.09186 0.52572 0.0
C202 C 0.20928 0.09515 0.56597 0.0
H203 H 0.2745 0.09262 0.61408 0.0
O204 O 0.2337 0.01875 0.6729 0.0
O205 O 0.20759 0.05895 0.65883 0.0
O206 O 0.25209 0.06912 0.72019 0.0
O207 O 0.24657 0.1065 0.67588 0.0
C208 C 0.19619 0.09087 0.49545 0.0
C209 C 0.16588 0.0926 0.50593 0.0
H210 H 0.10982 0.09481 0.53784 0.0
H211 H 0.09845 0.09813 0.61094 0.0
H212 H 0.29244 0.08685 0.54384 0.0
H213 H 0.25648 0.08608 0.48711 0.0
H214 H 0.20237 0.08828 0.46407 0.0
H215 H 0.14922 0.09137 0.48243 0.0
Mn216 Mn 0.95453 0.21283 0.71298 0.0
Mn217 Mn 0.90068 0.21092 0.64197 0.0
C218 C 0.96577 0.22309 0.64659 0.0
C219 C 0.99134 0.18905 0.74992 0.0
C220 C 0.90885 0.26209 0.7 0.0
O221 O 0.92202 0.18961 0.74088 0.0
O222 O 0.88773 0.18921 0.69141 0.0
C223 C 0.90111 0.14632 0.62524 0.0
N224 N 0.90347 0.17482 0.61187 0.0
C225 C 0.90892 0.15843 0.54317 0.0
C226 C 0.90637 0.12893 0.5562 0.0
C227 C 0.90251 0.12286 0.59742 0.0
C228 C 0.90716 0.18091 0.57225 0.0
H229 H 0.89814 0.14151 0.65688 0.0
C230 C 0.89682 0.18201 0.72677 0.0
O231 O 0.97945 0.21356 0.76281 0.0
O232 O 0.98134 0.17818 0.71639 0.0
N233 N 0.91022 0.23034 0.59223 0.0
C234 C 0.91455 0.25979 0.58498 0.0
C235 C 0.91992 0.26951 0.5454 0.0
C236 C 0.92059 0.24889 0.51364 0.0
C237 C 0.91592 0.21871 0.52177 0.0
C238 C 0.91056 0.21034 0.56181 0.0
H239 H 0.91438 0.27565 0.6093 0.0
O240 O 0.98273 0.23269 0.67537 0.0
O241 O 0.94261 0.20774 0.65738 0.0
O242 O 0.93064 0.25121 0.71961 0.0
O243 O 0.89624 0.24909 0.6704 0.0
C244 C 0.9172 0.1965 0.49188 0.0
C245 C 0.91367 0.16638 0.50257 0.0
H246 H 0.90764 0.11075 0.53491 0.0
H247 H 0.90064 0.10014 0.60772 0.0
H248 H 0.92372 0.29282 0.53942 0.0
H249 H 0.92507 0.25643 0.48322 0.0
H250 H 0.92138 0.2023 0.46069 0.0
H251 H 0.91508 0.14948 0.47941 0.0
Mn252 Mn 0.78155 0.9552 0.71365 0.0
Mn253 Mn 0.78645 0.89975 0.6453 0.0
C254 C 0.77239 0.96459 0.64647 0.0
C255 C 0.80396 0.99341 0.74949 0.0
C256 C 0.73411 0.90763 0.70182 0.0
O257 O 0.80497 0.92378 0.74382 0.0
O258 O 0.80889 0.88915 0.69498 0.0
C259 C 0.85083 0.90236 0.62748 0.0
N260 N 0.82215 0.90331 0.61451 0.0
C261 C 0.83771 0.90781 0.54533 0.0
C262 C 0.8674 0.9067 0.55794 0.0
C263 C 0.87398 0.90403 0.5992 0.0
C264 C 0.81557 0.90581 0.57487 0.0
H265 H 0.856 0.9003 0.65916 0.0
C266 C 0.81459 0.89903 0.73044 0.0
O267 O 0.77941 0.98147 0.76215 0.0
O268 O 0.81569 0.98263 0.71697 0.0
N269 N 0.76622 0.90733 0.59556 0.0
C270 C 0.73654 0.9103 0.5887 0.0
C271 C 0.72629 0.91457 0.54912 0.0
C272 C 0.7466 0.91549 0.517 0.0
C273 C 0.77702 0.91213 0.52475 0.0
C274 C 0.78593 0.90787 0.56481 0.0
H275 H 0.72083 0.90973 0.61328 0.0
O276 O 0.76196 0.9821 0.67408 0.0
O277 O 0.78797 0.94207 0.6589 0.0
O278 O 0.7433 0.93096 0.71972 0.0
O279 O 0.74881 0.89428 0.67438 0.0
C280 C 0.7989 0.91363 0.49444 0.0
C281 C 0.82922 0.91142 0.50471 0.0
H282 H 0.88533 0.90818 0.53627 0.0
H283 H 0.89684 0.90328 0.60918 0.0
H284 H 0.70279 0.91726 0.54339 0.0
H285 H 0.73863 0.91908 0.48657 0.0
H286 H 0.79267 0.91696 0.46321 0.0
H287 H 0.84585 0.91299 0.4812 0.0
Mn288 Mn 0.54029 0.71541 0.78537 0.0
Mn289 Mn 0.59459 0.71069 0.85545 0.0
C290 C 0.52978 0.72492 0.85216 0.0
C291 C 0.50281 0.6928 0.74838 0.0
C292 C 0.58778 0.76278 0.79823 0.0
O293 O 0.57222 0.69189 0.75637 0.0
O294 O 0.60595 0.68792 0.80635 0.0
C295 C 0.59135 0.64644 0.87387 0.0
N296 N 0.59035 0.67519 0.88651 0.0
C297 C 0.58465 0.66007 0.9557 0.0
C298 C 0.58579 0.6303 0.94345 0.0
C299 C 0.5891 0.62347 0.90235 0.0
C300 C 0.58723 0.68202 0.92599 0.0
H301 H 0.5939 0.64107 0.84232 0.0
C302 C 0.59667 0.68218 0.77061 0.0
O303 O 0.51494 0.71733 0.73597 0.0
O304 O 0.51295 0.68125 0.78141 0.0
N305 N 0.58632 0.73125 0.90472 0.0
C306 C 0.58351 0.76099 0.9112 0.0
C307 C 0.57873 0.7715 0.95054 0.0
C308 C 0.57717 0.75138 0.98284 0.0
C309 C 0.58041 0.7209 0.9755 0.0
C310 C 0.58519 0.71173 0.93566 0.0
H311 H 0.5846 0.77655 0.88648 0.0
O312 O 0.51271 0.73517 0.82392 0.0
O313 O 0.55249 0.70925 0.84058 0.0
O314 O 0.56466 0.75361 0.77982 0.0
O315 O 0.6007 0.74813 0.82611 0.0
C316 C 0.5783 0.69921 0.006 0.0
C317 C 0.58046 0.66881 0.99611 0.0
H318 H 0.58387 0.61251 0.96527 0.0
H319 H 0.58989 0.60054 0.89265 0.0
H320 H 0.57615 0.79505 0.95595 0.0
H321 H 0.57319 0.75955 0.01309 0.0
H322 H 0.57454 0.70564 0.03706 0.0
H323 H 0.57843 0.65233 0.01975 0.0
Mn324 Mn 0.28437 0.54389 0.78681 0.0
Mn325 Mn 0.28642 0.59984 0.85473 0.0
C326 C 0.27462 0.53467 0.85391 0.0
C327 C 0.30796 0.50595 0.7518 0.0
C328 C 0.23498 0.58968 0.79778 0.0
O329 O 0.30732 0.5756 0.75684 0.0
O330 O 0.30773 0.61138 0.80435 0.0
C331 C 0.35113 0.60037 0.87077 0.0
N332 N 0.32273 0.59817 0.88456 0.0
C333 C 0.33956 0.59471 0.95331 0.0
C334 C 0.36897 0.59712 0.93984 0.0
C335 C 0.37477 0.5999 0.89838 0.0
C336 C 0.3169 0.59555 0.92441 0.0
H337 H 0.35574 0.60251 0.83895 0.0
C338 C 0.3148 0.60127 0.76945 0.0
O339 O 0.28337 0.51741 0.7385 0.0
O340 O 0.31907 0.51706 0.78454 0.0
N341 N 0.26736 0.59165 0.90517 0.0
C342 C 0.23799 0.58732 0.91296 0.0
C343 C 0.22855 0.58293 0.95288 0.0
C344 C 0.24936 0.58323 0.98441 0.0
C345 C 0.27947 0.58787 0.97572 0.0
C346 C 0.28755 0.59224 0.93535 0.0
H347 H 0.22198 0.58676 0.88884 0.0
O348 O 0.26484 0.51683 0.82624 0.0
O349 O 0.28979 0.55752 0.84161 0.0
O350 O 0.24586 0.56742 0.77922 0.0
O351 O 0.24806 0.60321 0.82654 0.0
C352 C 0.30186 0.58751 0.00539 0.0
C353 C 0.33188 0.59095 0.9942 0.0
H354 H 0.38728 0.59658 0.96099 0.0
H355 H 0.39742 0.60166 0.88774 0.0
H356 H 0.2053 0.57915 0.95931 0.0
H357 H 0.24204 0.5795 0.01512 0.0
H358 H 0.29628 0.58411 0.03683 0.0
H359 H 0.34892 0.5902 0.01722 0.0
Mn360 Mn 0.45654 0.28325 0.78433 0.0
Mn361 Mn 0.40332 0.28766 0.85594 0.0
C362 C 0.46816 0.27387 0.85079 0.0
C363 C 0.49338 0.30602 0.74632 0.0
C364 C 0.40953 0.23562 0.79851 0.0
O365 O 0.42403 0.30659 0.75625 0.0
O366 O 0.39109 0.31043 0.80722 0.0
C367 C 0.4064 0.3519 0.87447 0.0
N368 N 0.40782 0.32314 0.88698 0.0
C369 C 0.41442 0.33819 0.95605 0.0
C370 C 0.41285 0.36797 0.94393 0.0
C371 C 0.40889 0.37485 0.90295 0.0
C372 C 0.41156 0.31627 0.92635 0.0
H373 H 0.40333 0.3573 0.84301 0.0
C374 C 0.39978 0.31621 0.77121 0.0
O375 O 0.48117 0.28144 0.73424 0.0
O376 O 0.48364 0.31755 0.77957 0.0
N377 N 0.41251 0.26708 0.90491 0.0
C378 C 0.41568 0.23735 0.9112 0.0
C379 C 0.42117 0.22682 0.95037 0.0
C380 C 0.42306 0.2469 0.98268 0.0
C381 C 0.41945 0.27736 0.97554 0.0
C382 C 0.41397 0.28656 0.93587 0.0
H383 H 0.41433 0.22183 0.88648 0.0
O384 O 0.48483 0.26367 0.82208 0.0
O385 O 0.44517 0.28937 0.83985 0.0
O386 O 0.43233 0.2449 0.77948 0.0
O387 O 0.39695 0.25022 0.82672 0.0
C388 C 0.42185 0.29902 0.00604 0.0
C389 C 0.41929 0.32941 0.99631 0.0
H390 H 0.41495 0.38574 0.96575 0.0
H391 H 0.40776 0.39778 0.89335 0.0
H392 H 0.42403 0.20329 0.95562 0.0
H393 H 0.42759 0.23871 0.01278 0.0
H394 H 0.42615 0.29257 0.03696 0.0
H395 H 0.42155 0.34587 0.01994 0.0
Mn396 Mn 0.71241 0.45437 0.7823 0.0
Mn397 Mn 0.71134 0.39803 0.84968 0.0
C398 C 0.72315 0.46321 0.84923 0.0
C399 C 0.68827 0.49245 0.74829 0.0
C400 C 0.76194 0.40854 0.79148 0.0
O401 O 0.68906 0.42281 0.75262 0.0
O402 O 0.68929 0.38677 0.79976 0.0
C403 C 0.64686 0.39756 0.86739 0.0
N404 N 0.67546 0.3996 0.88047 0.0
C405 C 0.6596 0.40292 0.94965 0.0
C406 C 0.63 0.40069 0.93691 0.0
C407 C 0.62362 0.39804 0.8956 0.0
C408 C 0.68186 0.40208 0.92017 0.0
H409 H 0.64181 0.39555 0.83568 0.0
C410 C 0.68174 0.39708 0.76515 0.0
O411 O 0.71268 0.4811 0.73424 0.0
O412 O 0.67767 0.48118 0.78124 0.0
N413 N 0.73113 0.40592 0.89968 0.0
C414 C 0.76063 0.41004 0.90675 0.0
C415 C 0.77064 0.41425 0.94645 0.0
C416 C 0.75026 0.41396 0.97851 0.0
C417 C 0.72002 0.40947 0.97055 0.0
C418 C 0.71136 0.40528 0.93037 0.0
H419 H 0.77632 0.41053 0.88224 0.0
O420 O 0.7325 0.48122 0.82149 0.0
O421 O 0.70782 0.44042 0.83709 0.0
O422 O 0.7508 0.43091 0.77344 0.0
O423 O 0.74928 0.39481 0.82041 0.0
C424 C 0.69805 0.4098 0.0008 0.0
C425 C 0.66786 0.40651 0.99036 0.0
H426 H 0.61199 0.40129 0.95852 0.0
H427 H 0.60082 0.39642 0.88553 0.0
H428 H 0.794 0.41787 0.95231 0.0
H429 H 0.75803 0.41755 0.00904 0.0
H430 H 0.70408 0.41307 0.03211 0.0
H431 H 0.65114 0.40722 0.01382 0.0
Mn432 Mn 0.54684 0.28246 0.20587 0.0
Mn433 Mn 0.60339 0.28667 0.1391 0.0
C434 C 0.53843 0.27304 0.13852 0.0
C435 C 0.5083 0.30525 0.24062 0.0
C436 C 0.59427 0.23466 0.19584 0.0
O437 O 0.57796 0.30578 0.23673 0.0
O438 O 0.61336 0.30928 0.18886 0.0
C439 C 0.60137 0.35097 0.12068 0.0
N440 N 0.60051 0.32225 0.10791 0.0
C441 C 0.59699 0.33752 0.03851 0.0
C442 C 0.59797 0.36726 0.05091 0.0
C443 C 0.60013 0.374 0.09218 0.0
C444 C 0.59854 0.3155 0.06826 0.0
H445 H 0.60301 0.35628 0.15236 0.0
C446 C 0.60297 0.3152 0.22398 0.0
O447 O 0.51993 0.28068 0.25371 0.0
O448 O 0.51956 0.31677 0.20824 0.0
N449 N 0.59646 0.26625 0.08933 0.0
C450 C 0.59346 0.23656 0.08263 0.0
C451 C 0.58971 0.22615 0.04304 0.0
C452 C 0.58933 0.24632 0.01073 0.0
C453 C 0.59272 0.27676 0.01832 0.0
C454 C 0.59648 0.28583 0.0584 0.0
H455 H 0.59363 0.22096 0.10735 0.0
O456 O 0.52042 0.26287 0.16572 0.0
O457 O 0.56086 0.28854 0.15144 0.0
O458 O 0.57071 0.2441 0.2129 0.0
O459 O 0.60818 0.24913 0.16867 0.0
C460 C 0.59171 0.29851 0.9878 0.0
C461 C 0.59388 0.32887 0.99788 0.0
H462 H 0.59677 0.3851 0.02909 0.0
H463 H 0.6008 0.39691 0.10198 0.0
H464 H 0.58701 0.20264 0.03743 0.0
H465 H 0.58614 0.23823 0.98027 0.0
H466 H 0.58877 0.29216 0.95654 0.0
H467 H 0.59263 0.34539 0.97421 0.0
Mn468 Mn 0.71513 0.54258 0.20423 0.0
Mn469 Mn 0.71376 0.59727 0.13442 0.0
C470 C 0.72557 0.53215 0.13764 0.0
C471 C 0.69123 0.50536 0.24022 0.0
C472 C 0.76427 0.58862 0.19344 0.0
O473 O 0.69171 0.57479 0.23245 0.0
O474 O 0.69119 0.60953 0.18346 0.0
C475 C 0.64946 0.59707 0.11554 0.0
N476 N 0.67819 0.5947 0.1031 0.0
C477 C 0.66302 0.58965 0.03382 0.0
C478 C 0.6333 0.59224 0.04588 0.0
C479 C 0.6265 0.5959 0.08692 0.0
C480 C 0.68498 0.59125 0.06366 0.0
H481 H 0.64409 0.5999 0.14704 0.0
C482 C 0.68385 0.6 0.21857 0.0
O483 O 0.71565 0.51716 0.25354 0.0
O484 O 0.68049 0.51568 0.20678 0.0
N485 N 0.73406 0.58813 0.0852 0.0
C486 C 0.76361 0.5837 0.07892 0.0
C487 C 0.77401 0.5784 0.03964 0.0
C488 C 0.75396 0.57785 0.00722 0.0
C489 C 0.72365 0.58257 0.01438 0.0
C490 C 0.71459 0.58787 0.05415 0.0
H491 H 0.77905 0.58375 0.10376 0.0
O492 O 0.73514 0.51483 0.16606 0.0
O493 O 0.71034 0.55521 0.14897 0.0
O494 O 0.75343 0.56631 0.21193 0.0
O495 O 0.75143 0.60169 0.16409 0.0
C496 C 0.70197 0.58141 0.98377 0.0
C497 C 0.67168 0.585 0.99347 0.0
H498 H 0.61552 0.59117 0.02395 0.0
H499 H 0.6036 0.59781 0.09648 0.0
H500 H 0.79741 0.57456 0.03441 0.0
H501 H 0.76202 0.57342 0.97703 0.0
H502 H 0.70831 0.57728 0.95276 0.0
H503 H 0.65519 0.58369 0.96976 0.0
Mn504 Mn 0.45478 0.71562 0.20839 0.0
Mn505 Mn 0.39745 0.71404 0.1426 0.0
C506 C 0.46247 0.72649 0.14127 0.0
C507 C 0.4937 0.69205 0.24124 0.0
C508 C 0.40813 0.76449 0.201 0.0
O509 O 0.42401 0.69167 0.23871 0.0
O510 O 0.38727 0.69147 0.1925 0.0
C511 C 0.39744 0.6497 0.12399 0.0
N512 N 0.39898 0.67841 0.11126 0.0
C513 C 0.40152 0.6631 0.04179 0.0
C514 C 0.39981 0.63339 0.05417 0.0
C515 C 0.3978 0.62667 0.09544 0.0
C516 C 0.40082 0.68513 0.07159 0.0
H517 H 0.39593 0.64438 0.15567 0.0
C518 C 0.39826 0.68387 0.22671 0.0
O519 O 0.48218 0.71625 0.2557 0.0
O520 O 0.48213 0.6813 0.20858 0.0
N521 N 0.40448 0.73427 0.09268 0.0
C522 C 0.40847 0.76383 0.08595 0.0
C523 C 0.41219 0.77417 0.04631 0.0
C524 C 0.41161 0.75404 0.01398 0.0
C525 C 0.40735 0.72372 0.0216 0.0
C526 C 0.40363 0.71474 0.06173 0.0
H527 H 0.40923 0.77933 0.11069 0.0
O528 O 0.48073 0.73616 0.16851 0.0
O529 O 0.44005 0.71092 0.15405 0.0
O530 O 0.43097 0.75361 0.21817 0.0
O531 O 0.39409 0.75176 0.1724 0.0
C532 C 0.40749 0.70197 0.99104 0.0
C533 C 0.40454 0.67169 0.00113 0.0
H534 H 0.40036 0.61555 0.03229 0.0
H535 H 0.39658 0.60378 0.10523 0.0
H536 H 0.41567 0.79758 0.04071 0.0
H537 H 0.41482 0.76205 0.98349 0.0
H538 H 0.41037 0.70826 0.95975 0.0
H539 H 0.40512 0.65515 0.97742 0.0
Mn540 Mn 0.28686 0.45491 0.20852 0.0
Mn541 Mn 0.28774 0.40018 0.13874 0.0
C542 C 0.27578 0.46524 0.1421 0.0
C543 C 0.31072 0.49247 0.24391 0.0
C544 C 0.23764 0.40885 0.19831 0.0
O545 O 0.31074 0.42284 0.23642 0.0
O546 O 0.31045 0.38793 0.18767 0.0
C547 C 0.35199 0.4003 0.11951 0.0
N548 N 0.32323 0.40268 0.10722 0.0
C549 C 0.33819 0.4076 0.03785 0.0
C550 C 0.36795 0.40501 0.04975 0.0
C551 C 0.37487 0.40141 0.09077 0.0
C552 C 0.31632 0.40608 0.0678 0.0
H553 H 0.35745 0.39752 0.15099 0.0
C554 C 0.31826 0.39752 0.22256 0.0
O555 O 0.28655 0.48044 0.25771 0.0
O556 O 0.32133 0.48208 0.21042 0.0
N557 N 0.26731 0.40926 0.08959 0.0
C558 C 0.23773 0.41365 0.08343 0.0
C559 C 0.22723 0.41887 0.04419 0.0
C560 C 0.24719 0.41936 0.01166 0.0
C561 C 0.27752 0.41466 0.01869 0.0
C562 C 0.28669 0.40946 0.05844 0.0
H563 H 0.22237 0.41363 0.10834 0.0
O564 O 0.26634 0.48249 0.17066 0.0
O565 O 0.29124 0.44226 0.15317 0.0
O566 O 0.24876 0.43097 0.2169 0.0
O567 O 0.25013 0.39588 0.16862 0.0
C568 C 0.29911 0.41575 0.98796 0.0
C569 C 0.32942 0.41218 0.99752 0.0
H570 H 0.38567 0.40601 0.02772 0.0
H571 H 0.39779 0.3995 0.10021 0.0
H572 H 0.20381 0.4227 0.03905 0.0
H573 H 0.23904 0.42373 0.9815 0.0
H574 H 0.29268 0.41981 0.95696 0.0
H575 H 0.34585 0.41342 0.97371 0.0
H576 H 0.16011 0.17041 0.28108 0.0
H577 H 0.08018 0.14813 0.21554 0.0
H578 H 0.18323 0.12479 0.25748 0.0
H579 H 0.10344 0.10238 0.19213 0.0
H580 H 0.13404 0.01131 0.25591 0.0
H581 H 0.11387 0.06036 0.24199 0.0
H582 H 0.19996 0.08959 0.2006 0.0
H583 H 0.2201 0.03997 0.21396 0.0
C584 C 0.14782 0.1563 0.26055 0.0
C585 C 0.11809 0.16259 0.25093 0.0
C586 C 0.16118 0.13025 0.24675 0.0
C587 C 0.14495 0.10989 0.22341 0.0
C588 C 0.11633 0.11764 0.21035 0.0
C589 C 0.10307 0.14388 0.22374 0.0
C590 C 0.14837 0.0279 0.24245 0.0
C591 C 0.17861 0.02206 0.23634 0.0
C592 C 0.13681 0.05594 0.23421 0.0
C593 C 0.15543 0.07883 0.22043 0.0
C594 C 0.18519 0.07231 0.21125 0.0
C595 C 0.19664 0.04395 0.21874 0.0
H596 H 0.99092 0.13387 0.26107 0.0
H597 H 0.96148 0.21879 0.21594 0.0
H598 H 0.94233 0.11275 0.24682 0.0
H599 H 0.91232 0.19766 0.20216 0.0
H600 H 0.83061 0.15778 0.28052 0.0
H601 H 0.87639 0.18122 0.25806 0.0
H602 H 0.90137 0.10071 0.19613 0.0
H603 H 0.85538 0.07715 0.21844 0.0
C604 C 0.97426 0.14777 0.24696 0.0
C605 C 0.97975 0.17798 0.23999 0.0
C606 C 0.94648 0.13563 0.23849 0.0
C607 C 0.92351 0.15363 0.22355 0.0
C608 C 0.92968 0.18335 0.21371 0.0
C609 C 0.95776 0.19538 0.22148 0.0
C610 C 0.84535 0.1454 0.26093 0.0
C611 C 0.83966 0.11546 0.25189 0.0
C612 C 0.8715 0.15892 0.24779 0.0
C613 C 0.89257 0.14263 0.22578 0.0
C614 C 0.88553 0.11366 0.21331 0.0
C615 C 0.85915 0.10024 0.226 0.0
H616 H 0.77973 0.95927 0.21641 0.0
H617 H 0.86598 0.98852 0.25688 0.0
H618 H 0.79992 0.90956 0.20373 0.0
H619 H 0.88616 0.93938 0.24376 0.0
H620 H 0.92004 0.8514 0.21782 0.0
H621 H 0.8968 0.89733 0.195 0.0
H622 H 0.81686 0.87431 0.25964 0.0
H623 H 0.83992 0.82848 0.28253 0.0
C624 C 0.80321 0.95538 0.22107 0.0
C625 C 0.8213 0.97751 0.23799 0.0
C626 C 0.8147 0.92696 0.21399 0.0
C627 C 0.84454 0.92058 0.22296 0.0
C628 C 0.86316 0.94365 0.23616 0.0
C629 C 0.85158 0.97176 0.24394 0.0
C630 C 0.89714 0.85558 0.22602 0.0
C631 C 0.88203 0.83658 0.25274 0.0
C632 C 0.88389 0.88194 0.21298 0.0
C633 C 0.8552 0.88955 0.22598 0.0
C634 C 0.83895 0.86899 0.24896 0.0
C635 C 0.85228 0.8428 0.26235 0.0
H636 H 0.0396 0.77974 0.22051 0.0
H637 H 0.00978 0.8647 0.26506 0.0
H638 H 0.08905 0.80071 0.20815 0.0
H639 H 0.05867 0.8857 0.25199 0.0
H640 H 0.17052 0.84228 0.28666 0.0
H641 H 0.12461 0.81826 0.26556 0.0
H642 H 0.09967 0.89692 0.19944 0.0
H643 H 0.14572 0.92102 0.22017 0.0
C644 C 0.04332 0.80312 0.22623 0.0
C645 C 0.02109 0.82061 0.24404 0.0
C646 C 0.07157 0.81505 0.21929 0.0
C647 C 0.07763 0.84477 0.22916 0.0
C648 C 0.05454 0.86281 0.24366 0.0
C649 C 0.02662 0.85077 0.2514 0.0
C650 C 0.15576 0.8541 0.26647 0.0
C651 C 0.16152 0.88373 0.25569 0.0
C652 C 0.12955 0.84026 0.25416 0.0
C653 C 0.1085 0.85591 0.23126 0.0
C654 C 0.11552 0.88448 0.21728 0.0
C655 C 0.14194 0.8982 0.2291 0.0
H656 H 0.08012 0.85287 0.78867 0.0
H657 H 0.15765 0.83048 0.7181 0.0
H658 H 0.1044 0.8984 0.81097 0.0
H659 H 0.18177 0.87592 0.74052 0.0
H660 H 0.13356 0.99032 0.74941 0.0
H661 H 0.11358 0.94104 0.76226 0.0
H662 H 0.20084 0.91032 0.7965 0.0
H663 H 0.22083 0.96019 0.78418 0.0
C664 C 0.10271 0.85706 0.77903 0.0
C665 C 0.11672 0.83835 0.75089 0.0
C666 C 0.11655 0.8832 0.79178 0.0
C667 C 0.14478 0.89086 0.77707 0.0
C668 C 0.16005 0.87054 0.75252 0.0
C669 C 0.14611 0.84459 0.73941 0.0
C670 C 0.14826 0.97331 0.76104 0.0
C671 C 0.17872 0.97888 0.7655 0.0
C672 C 0.13681 0.94512 0.76865 0.0
C673 C 0.15571 0.9218 0.78017 0.0
C674 C 0.18583 0.92793 0.78759 0.0
C675 C 0.19722 0.95642 0.78072 0.0
H676 H 0.16622 0.15932 0.72858 0.0
H677 H 0.14377 0.07739 0.78914 0.0
H678 H 0.1203 0.18153 0.75259 0.0
H679 H 0.09764 0.09974 0.81311 0.0
H680 H 0.00722 0.13114 0.74884 0.0
H681 H 0.05603 0.11101 0.76408 0.0
H682 H 0.0842 0.1968 0.80792 0.0
H683 H 0.03483 0.21694 0.79303 0.0
C684 C 0.15197 0.1464 0.74821 0.0
C685 C 0.15831 0.11644 0.75626 0.0
C686 C 0.12574 0.15921 0.76227 0.0
C687 C 0.10521 0.14221 0.78427 0.0
C688 C 0.11301 0.11325 0.79594 0.0
C689 C 0.13948 0.10051 0.78228 0.0
C690 C 0.0235 0.14542 0.76309 0.0
C691 C 0.01748 0.17562 0.76931 0.0
C692 C 0.05141 0.13386 0.77212 0.0
C693 C 0.074 0.15242 0.78691 0.0
C694 C 0.06718 0.18206 0.79643 0.0
C695 C 0.03896 0.19353 0.78804 0.0
H696 H 0.83856 0.16716 0.71535 0.0
H697 H 0.91498 0.14657 0.78913 0.0
H698 H 0.81402 0.1224 0.73935 0.0
H699 H 0.89028 0.1017 0.81299 0.0
H700 H 0.86193 0.0086 0.75333 0.0
H701 H 0.88185 0.05797 0.7657 0.0
H702 H 0.7941 0.08934 0.79638 0.0
H703 H 0.77419 0.03939 0.78459 0.0
C704 C 0.84974 0.15362 0.73767 0.0
C705 C 0.87898 0.16011 0.74962 0.0
C706 C 0.83555 0.12807 0.7517 0.0
C707 C 0.85042 0.1084 0.77765 0.0
C708 C 0.87843 0.1164 0.79275 0.0
C709 C 0.89252 0.14215 0.77908 0.0
C710 C 0.84711 0.02577 0.7642 0.0
C711 C 0.81656 0.02037 0.76772 0.0
C712 C 0.85851 0.05402 0.77152 0.0
C713 C 0.83946 0.07755 0.78175 0.0
C714 C 0.80922 0.07157 0.78846 0.0
C715 C 0.79788 0.04303 0.78191 0.0
H716 H 0.82911 0.84038 0.72556 0.0
H717 H 0.85191 0.92151 0.78782 0.0
H718 H 0.875 0.81772 0.74907 0.0
H719 H 0.89802 0.89875 0.81115 0.0
H720 H 0.96014 0.78153 0.79212 0.0
H721 H 0.91068 0.80198 0.80568 0.0
H722 H 0.93966 0.8873 0.76116 0.0
H723 H 0.98856 0.86682 0.74709 0.0
C724 C 0.84343 0.85302 0.74542 0.0
C725 C 0.83717 0.88288 0.75421 0.0
C726 C 0.86964 0.83995 0.75916 0.0
C727 C 0.89022 0.85663 0.78153 0.0
C728 C 0.88257 0.8855 0.79373 0.0
C729 C 0.85612 0.89846 0.78045 0.0
C730 C 0.95615 0.8049 0.78664 0.0
C731 C 0.97793 0.82258 0.76815 0.0
C732 C 0.92788 0.81654 0.79427 0.0
C733 C 0.92132 0.84616 0.7843 0.0
C734 C 0.94411 0.86449 0.76956 0.0
C735 C 0.97207 0.85273 0.76122 0.0
H736 H 0.57525 0.64514 0.71217 0.0
H737 H 0.65518 0.66745 0.77759 0.0
H738 H 0.59856 0.59934 0.68869 0.0
H739 H 0.67839 0.62187 0.7539 0.0
H740 H 0.71585 0.53774 0.70846 0.0
H741 H 0.69522 0.58734 0.69633 0.0
H742 H 0.60959 0.55694 0.73791 0.0
H743 H 0.63024 0.50789 0.75059 0.0
C744 C 0.59816 0.64088 0.72027 0.0
C745 C 0.61323 0.65962 0.74732 0.0
C746 C 0.61143 0.61461 0.70689 0.0
C747 C 0.64013 0.60694 0.71982 0.0
C748 C 0.65631 0.62728 0.74323 0.0
C749 C 0.64292 0.6533 0.75706 0.0
C750 C 0.6924 0.54148 0.7136 0.0
C751 C 0.67464 0.51922 0.73086 0.0
C752 C 0.68066 0.56982 0.7068 0.0
C753 C 0.65088 0.57598 0.71635 0.0
C754 C 0.63254 0.5528 0.72987 0.0
C755 C 0.64438 0.52476 0.7374 0.0
H756 H 0.45786 0.72215 0.71021 0.0
H757 H 0.48759 0.63482 0.74525 0.0
H758 H 0.40817 0.7022 0.69671 0.0
H759 H 0.4385 0.61487 0.73131 0.0
H760 H 0.35053 0.58137 0.70836 0.0
H761 H 0.39554 0.60546 0.68384 0.0
H762 H 0.37392 0.68387 0.75267 0.0
H763 H 0.32901 0.65998 0.77721 0.0
C764 C 0.45408 0.69851 0.71338 0.0
C765 C 0.4763 0.68 0.72917 0.0
C766 C 0.42568 0.68715 0.70583 0.0
C767 C 0.41942 0.65705 0.71322 0.0
C768 C 0.44265 0.63809 0.72495 0.0
C769 C 0.47074 0.64952 0.73321 0.0
C770 C 0.35476 0.60415 0.71712 0.0
C771 C 0.33655 0.61852 0.74554 0.0
C772 C 0.38059 0.61789 0.70308 0.0
C773 C 0.38843 0.64634 0.71681 0.0
C774 C 0.36842 0.66198 0.74141 0.0
C775 C 0.34278 0.64816 0.75577 0.0
H776 H 0.366 0.49047 0.75211 0.0
H777 H 0.27962 0.46071 0.71286 0.0
H778 H 0.38635 0.4414 0.73877 0.0
H779 H 0.29996 0.41108 0.70009 0.0
H780 H 0.34142 0.331 0.78015 0.0
H781 H 0.31782 0.37657 0.75717 0.0
H782 H 0.39642 0.39895 0.68919 0.0
H783 H 0.42012 0.35316 0.71194 0.0
C784 C 0.35161 0.47362 0.73939 0.0
C785 C 0.32125 0.47919 0.73385 0.0
C786 C 0.36328 0.44556 0.73149 0.0
C787 C 0.34467 0.42239 0.7186 0.0
C788 C 0.31474 0.42859 0.71005 0.0
C789 C 0.30316 0.45695 0.71721 0.0
C790 C 0.3533 0.34511 0.75918 0.0
C791 C 0.3828 0.33875 0.74844 0.0
C792 C 0.33969 0.37112 0.74575 0.0
C793 C 0.35545 0.39142 0.72175 0.0
C794 C 0.38388 0.38371 0.70785 0.0
C795 C 0.39738 0.35744 0.72083 0.0
H796 H 0.64558 0.41718 0.70464 0.0
H797 H 0.66731 0.33842 0.77305 0.0
H798 H 0.60034 0.39326 0.68061 0.0
H799 H 0.62218 0.3147 0.74901 0.0
H800 H 0.53797 0.27662 0.70749 0.0
H801 H 0.58761 0.2965 0.69345 0.0
H802 H 0.55759 0.38388 0.72831 0.0
H803 H 0.50855 0.364 0.74277 0.0
C804 C 0.64133 0.39441 0.71342 0.0
C805 C 0.6597 0.37995 0.74156 0.0
C806 C 0.61537 0.38076 0.69965 0.0
C807 C 0.60754 0.35232 0.71339 0.0
C808 C 0.62766 0.3366 0.73774 0.0
C809 C 0.65344 0.35032 0.75182 0.0
C810 C 0.54179 0.30026 0.71057 0.0
C811 C 0.51969 0.3188 0.72661 0.0
C812 C 0.57016 0.31158 0.70273 0.0
C813 C 0.57651 0.34167 0.71006 0.0
C814 C 0.55337 0.36067 0.72199 0.0
C815 C 0.52531 0.34927 0.73054 0.0
H816 H 0.63345 0.48897 0.23776 0.0
H817 H 0.71895 0.46202 0.28375 0.0
H818 H 0.61339 0.44013 0.25318 0.0
H819 H 0.6989 0.41263 0.29875 0.0
H820 H 0.66166 0.3298 0.2202 0.0
H821 H 0.68383 0.37601 0.24333 0.0
H822 H 0.60211 0.39905 0.30371 0.0
H823 H 0.57982 0.35263 0.28071 0.0
C824 C 0.64768 0.47283 0.25237 0.0
C825 C 0.67777 0.47904 0.25914 0.0
C826 C 0.63615 0.44491 0.26151 0.0
C827 C 0.65466 0.42252 0.27695 0.0
C828 C 0.68421 0.42951 0.28681 0.0
C829 C 0.69562 0.45774 0.27834 0.0
C830 C 0.64876 0.34419 0.23964 0.0
C831 C 0.61883 0.33787 0.24795 0.0
C832 C 0.66154 0.37059 0.25317 0.0
C833 C 0.64452 0.39128 0.27486 0.0
C834 C 0.61561 0.38354 0.28678 0.0
C835 C 0.60292 0.35691 0.27368 0.0
H836 H 0.50958 0.63416 0.2394 0.0
H837 H 0.53948 0.72043 0.2789 0.0
H838 H 0.55892 0.61395 0.25138 0.0
H839 H 0.58939 0.70024 0.2902 0.0
H840 H 0.66905 0.65843 0.20903 0.0
H841 H 0.6236 0.68221 0.23217 0.0
H842 H 0.60151 0.6041 0.30133 0.0
H843 H 0.6471 0.58021 0.27848 0.0
C844 C 0.52655 0.64856 0.25182 0.0
C845 C 0.5209 0.67883 0.25796 0.0
C846 C 0.55475 0.63697 0.25894 0.0
C847 C 0.57799 0.65559 0.27157 0.0
C848 C 0.57181 0.68546 0.28048 0.0
C849 C 0.5433 0.69694 0.27416 0.0
C850 C 0.65504 0.64668 0.23026 0.0
C851 C 0.66141 0.61722 0.24125 0.0
C852 C 0.62909 0.66041 0.24376 0.0
C853 C 0.60892 0.64482 0.26815 0.0
C854 C 0.61666 0.61649 0.28233 0.0
C855 C 0.64282 0.60288 0.26926 0.0
H856 H 0.33963 0.66874 0.22129 0.0
H857 H 0.42075 0.64642 0.28403 0.0
H858 H 0.31746 0.62238 0.24392 0.0
H859 H 0.39844 0.59994 0.30647 0.0
H860 H 0.36834 0.50939 0.24122 0.0
H861 H 0.38791 0.55862 0.25562 0.0
H862 H 0.30199 0.58594 0.29994 0.0
H863 H 0.28246 0.53615 0.28607 0.0
C864 C 0.35238 0.65445 0.24105 0.0
C865 C 0.38216 0.66099 0.25011 0.0
C866 C 0.33958 0.62796 0.25428 0.0
C867 C 0.35641 0.60741 0.27648 0.0
C868 C 0.3851 0.61534 0.28911 0.0
C869 C 0.39781 0.64202 0.27629 0.0
C870 C 0.35392 0.5256 0.25535 0.0
C871 C 0.32388 0.51916 0.2622 0.0
C872 C 0.36515 0.55374 0.26387 0.0
C873 C 0.3464 0.57614 0.27871 0.0
C874 C 0.31687 0.56904 0.28848 0.0
C875 C 0.30576 0.54058 0.28068 0.0
H876 H 0.35557 0.41697 0.2821 0.0
H877 H 0.33273 0.33905 0.21258 0.0
H878 H 0.40123 0.39281 0.30417 0.0
H879 H 0.37828 0.31504 0.23479 0.0
H880 H 0.49268 0.36321 0.24153 0.0
H881 H 0.44351 0.38331 0.2548 0.0
H882 H 0.41301 0.29635 0.29077 0.0
H883 H 0.46276 0.27624 0.27802 0.0
C884 C 0.35969 0.39432 0.27268 0.0
C885 C 0.34081 0.38015 0.24487 0.0
C886 C 0.38589 0.38054 0.28529 0.0
C887 C 0.39345 0.35224 0.27079 0.0
C888 C 0.37298 0.33682 0.24663 0.0
C889 C 0.34696 0.35069 0.23364 0.0
C890 C 0.47575 0.34861 0.25361 0.0
C891 C 0.48133 0.31819 0.25844 0.0
C892 C 0.44763 0.36013 0.26148 0.0
C893 C 0.4244 0.34133 0.27362 0.0
C894 C 0.43056 0.31127 0.28138 0.0
C895 C 0.45899 0.29982 0.27425 0.0
H896 H 0.10502 0.27664 0.22225 0.0
H897 H 0.10597 0.31515 0.34123 0.0
H898 H 0.13596 0.31678 0.19751 0.0
H899 H 0.13476 0.357 0.31622 0.0
H900 H 0.22391 0.39632 0.2759 0.0
H901 H 0.18272 0.36645 0.29995 0.0
H902 H 0.14656 0.36396 0.1789 0.0
H903 H 0.1894 0.39157 0.1548 0.0
C904 C 0.11099 0.29443 0.2427 0.0
C905 C 0.10346 0.29281 0.28359 0.0
C906 C 0.12865 0.31768 0.22857 0.0
C907 C 0.13845 0.34024 0.2549 0.0
C908 C 0.12863 0.33965 0.29523 0.0
C909 C 0.11181 0.31586 0.30959 0.0
C910 C 0.20683 0.38969 0.25471 0.0
C911 C 0.20989 0.39588 0.21354 0.0
C912 C 0.18297 0.37269 0.26845 0.0
C913 C 0.16118 0.36222 0.24137 0.0
C914 C 0.16326 0.37062 0.20055 0.0
C915 C 0.18766 0.38676 0.18668 0.0
H916 H 0.70648 0.07915 0.23001 0.0
H917 H 0.70198 0.12933 0.34101 0.0
H918 H 0.66433 0.10734 0.20369 0.0
H919 H 0.66053 0.15755 0.3146 0.0
H920 H 0.58203 0.2028 0.26447 0.0
H921 H 0.60924 0.15977 0.29 0.0
H922 H 0.66327 0.15947 0.18233 0.0
H923 H 0.63602 0.20181 0.15665 0.0
C924 C 0.69617 0.09573 0.24908 0.0
C925 C 0.70795 0.10242 0.28725 0.0
C926 C 0.67211 0.11191 0.23397 0.0
C927 C 0.65931 0.13485 0.25692 0.0
C928 C 0.66968 0.13988 0.29625 0.0
C929 C 0.69373 0.12389 0.31122 0.0
C930 C 0.59928 0.19312 0.24591 0.0
C931 C 0.60726 0.2061 0.20892 0.0
C932 C 0.61488 0.16853 0.26056 0.0
C933 C 0.63855 0.1564 0.23832 0.0
C934 C 0.645 0.16807 0.20006 0.0
C935 C 0.62957 0.19265 0.18556 0.0
H936 H 0.81107 0.60882 0.14933 0.0
H937 H 0.77941 0.59865 0.27128 0.0
H938 H 0.85357 0.63686 0.17361 0.0
H939 H 0.8202 0.62889 0.29569 0.0
H940 H 0.89631 0.68126 0.33718 0.0
H941 H 0.86822 0.6394 0.31067 0.0
H942 H 0.86283 0.68373 0.1949 0.0
H943 H 0.89307 0.72397 0.22097 0.0
C944 C 0.81338 0.61249 0.18143 0.0
C945 C 0.79201 0.60175 0.20848 0.0
C946 C 0.83758 0.62888 0.19543 0.0
C947 C 0.84027 0.6359 0.23666 0.0
C948 C 0.81944 0.62377 0.26383 0.0
C949 C 0.79581 0.60653 0.24989 0.0
C950 C 0.88967 0.68148 0.30582 0.0
C951 C 0.89665 0.70568 0.28102 0.0
C952 C 0.87327 0.65767 0.29062 0.0
C953 C 0.86253 0.65817 0.25072 0.0
C954 C 0.87092 0.68198 0.22553 0.0
C955 C 0.88814 0.70528 0.24044 0.0
H956 H 0.31305 0.89426 0.34465 0.0
H957 H 0.27858 0.89956 0.22356 0.0
H958 H 0.355 0.86526 0.32069 0.0
H959 H 0.31884 0.86838 0.19968 0.0
H960 H 0.39412 0.81446 0.15908 0.0
H961 H 0.36658 0.85727 0.1836 0.0
H962 H 0.36352 0.81747 0.30251 0.0
H963 H 0.39322 0.77622 0.27822 0.0
C964 C 0.31465 0.88933 0.31279 0.0
C965 C 0.29265 0.89896 0.28591 0.0
C966 C 0.33851 0.87239 0.29901 0.0
C967 C 0.34023 0.86371 0.25828 0.0
C968 C 0.31881 0.87478 0.23113 0.0
C969 C 0.2955 0.89256 0.24477 0.0
C970 C 0.38809 0.8154 0.19063 0.0
C971 C 0.39557 0.79217 0.21683 0.0
C972 C 0.37201 0.83978 0.20472 0.0
C973 C 0.36211 0.84084 0.24499 0.0
C974 C 0.37097 0.81799 0.2715 0.0
C975 C 0.38787 0.79412 0.25762 0.0
H976 H 0.18715 0.60557 0.84296 0.0
H977 H 0.21992 0.60287 0.72086 0.0
H978 H 0.14409 0.63377 0.82093 0.0
H979 H 0.17839 0.63318 0.69887 0.0
H980 H 0.10367 0.72281 0.78141 0.0
H981 H 0.13436 0.68176 0.80407 0.0
H982 H 0.12996 0.64305 0.68461 0.0
H983 H 0.10136 0.68561 0.66168 0.0
C984 C 0.18494 0.61089 0.81129 0.0
C985 C 0.20679 0.60227 0.78357 0.0
C986 C 0.16041 0.62735 0.79862 0.0
C987 C 0.15782 0.63651 0.75817 0.0
C988 C 0.17911 0.62638 0.73015 0.0
C989 C 0.20313 0.6091 0.74269 0.0
C990 C 0.1089 0.70517 0.76035 0.0
C991 C 0.10054 0.70742 0.71981 0.0
C992 C 0.12639 0.68142 0.7733 0.0
C993 C 0.1352 0.659 0.74609 0.0
C994 C 0.12457 0.66025 0.7062 0.0
C995 C 0.10789 0.68449 0.69304 0.0
H996 H 0.41837 0.20367 0.72902 0.0
H997 H 0.36936 0.2031 0.84116 0.0
H998 H 0.38937 0.16116 0.70561 0.0
H999 H 0.34031 0.16128 0.81757 0.0
H1000 H 0.29337 0.08192 0.77186 0.0
H1001 H 0.33694 0.1093 0.79556 0.0
H1002 H 0.33703 0.16055 0.68541 0.0
H1003 H 0.29417 0.13325 0.66167 0.0
C1004 C 0.40185 0.19417 0.74896 0.0
C1005 C 0.39573 0.20717 0.78657 0.0
C1006 C 0.38522 0.16989 0.73552 0.0
C1007 C 0.36235 0.15809 0.75958 0.0
C1008 C 0.35789 0.16966 0.79841 0.0
C1009 C 0.37435 0.19393 0.81173 0.0
C1010 C 0.30312 0.0986 0.75242 0.0
C1011 C 0.28998 0.10579 0.71524 0.0
C1012 C 0.32801 0.11429 0.766 0.0
C1013 C 0.34028 0.1372 0.74246 0.0
C1014 C 0.32835 0.14285 0.70412 0.0
C1015 C 0.30348 0.12739 0.69072 0.0
H1016 H 0.89181 0.30908 0.65396 0.0
H1017 H 0.89578 0.27788 0.77677 0.0
H1018 H 0.86329 0.35206 0.67537 0.0
H1019 H 0.86511 0.31931 0.79819 0.0
H1020 H 0.77402 0.39185 0.71504 0.0
H1021 H 0.81531 0.3614 0.6926 0.0
H1022 H 0.85477 0.36785 0.81144 0.0
H1023 H 0.81199 0.39627 0.83419 0.0
C1024 C 0.88669 0.31161 0.68565 0.0
C1025 C 0.89579 0.2902 0.71374 0.0
C1026 C 0.87004 0.3361 0.69797 0.0
C1027 C 0.86114 0.33909 0.73846 0.0
C1028 C 0.8717 0.31827 0.76684 0.0
C1029 C 0.88918 0.2943 0.75463 0.0
C1030 C 0.79189 0.38714 0.73597 0.0
C1031 C 0.78983 0.39601 0.77631 0.0
C1032 C 0.81577 0.36979 0.72316 0.0
C1033 C 0.83847 0.36161 0.7503 0.0
C1034 C 0.83737 0.37276 0.78994 0.0
C1035 C 0.81302 0.38933 0.80299 0.0
H1036 H 0.70132 0.8672 0.66014 0.0
H1037 H 0.70221 0.91761 0.77111 0.0
H1038 H 0.65896 0.83913 0.68404 0.0
H1039 H 0.65916 0.88952 0.79491 0.0
H1040 H 0.62838 0.79528 0.8401 0.0
H1041 H 0.6569 0.83736 0.81625 0.0
H1042 H 0.60676 0.83751 0.70516 0.0
H1043 H 0.57826 0.79473 0.72888 0.0
C1044 C 0.69212 0.8727 0.68939 0.0
C1045 C 0.70554 0.89424 0.71409 0.0
C1046 C 0.66754 0.8568 0.70289 0.0
C1047 C 0.65584 0.86196 0.74148 0.0
C1048 C 0.66795 0.88488 0.76516 0.0
C1049 C 0.69254 0.90098 0.75151 0.0
C1050 C 0.62305 0.80449 0.81081 0.0
C1051 C 0.60146 0.79123 0.78601 0.0
C1052 C 0.6392 0.82891 0.79734 0.0
C1053 C 0.63424 0.84062 0.75869 0.0
C1054 C 0.61127 0.8287 0.73493 0.0
C1055 C 0.59492 0.80427 0.74854 0.0
H1056 H 0.01176 0.27242 0.40128 0.0
H1057 H 0.03593 0.18011 0.40949 0.0
H1058 H 0.99446 0.27133 0.4711 0.0
H1059 H 0.02163 0.17931 0.47999 0.0
H1060 H 0.96804 0.17732 0.59425 0.0
H1061 H 0.98388 0.17828 0.52434 0.0
H1062 H 0.00897 0.27061 0.53775 0.0
H1063 H 0.99032 0.26983 0.60693 0.0
C1064 C 0.0139 0.25209 0.4185 0.0
C1065 C 0.02638 0.22672 0.40097 0.0
C1066 C 0.00432 0.25145 0.45859 0.0
C1067 C 0.00709 0.22538 0.48183 0.0
C1068 C 0.01877 0.19978 0.46338 0.0
C1069 C 0.02768 0.20033 0.42316 0.0
C1070 C 0.97629 0.19794 0.58171 0.0
C1071 C 0.9765 0.22389 0.60486 0.0
C1072 C 0.98606 0.19842 0.54186 0.0
C1073 C 0.99743 0.2247 0.52478 0.0
C1074 C 0.99936 0.25025 0.54916 0.0
C1075 C 0.98899 0.24982 0.58888 0.0
H1076 H 0.72616 0.98745 0.60405 0.0
H1077 H 0.81924 0.96647 0.59598 0.0
H1078 H 0.72677 0.00526 0.53457 0.0
H1079 H 0.81965 0.98095 0.52561 0.0
H1080 H 0.82029 0.03172 0.40971 0.0
H1081 H 0.81975 0.01729 0.48009 0.0
H1082 H 0.7274 0.99165 0.46837 0.0
H1083 H 0.72767 0.0094 0.39886 0.0
C1084 C 0.74658 0.98608 0.58688 0.0
C1085 C 0.7723 0.97429 0.60431 0.0
C1086 C 0.74695 0.99595 0.54694 0.0
C1087 C 0.77309 0.99405 0.52369 0.0
C1088 C 0.79907 0.98317 0.54214 0.0
C1089 C 0.79878 0.97409 0.58228 0.0
C1090 C 0.79972 0.02381 0.42279 0.0
C1091 C 0.77361 0.02321 0.39997 0.0
C1092 C 0.79948 0.01477 0.46295 0.0
C1093 C 0.77337 0.00352 0.48063 0.0
C1094 C 0.74764 0.00124 0.4566 0.0
C1095 C 0.74778 0.01107 0.41664 0.0
H1096 H 0.00713 0.72628 0.60843 0.0
H1097 H 0.02975 0.81873 0.59593 0.0
H1098 H 0.98906 0.72551 0.5389 0.0
H1099 H 0.01447 0.81777 0.52584 0.0
H1100 H 0.9626 0.81655 0.41115 0.0
H1101 H 0.97646 0.81689 0.48178 0.0
H1102 H 0.00401 0.72504 0.47209 0.0
H1103 H 0.98719 0.72439 0.40198 0.0
C1104 C 0.00865 0.74627 0.59038 0.0
C1105 C 0.02102 0.7722 0.60653 0.0
C1106 C 0.99861 0.74584 0.55048 0.0
C1107 C 0.00074 0.77142 0.52615 0.0
C1108 C 0.01209 0.79765 0.54335 0.0
C1109 C 0.02154 0.79812 0.58332 0.0
C1110 C 0.97086 0.79626 0.42463 0.0
C1111 C 0.97243 0.77004 0.40209 0.0
C1112 C 0.9795 0.79655 0.46493 0.0
C1113 C 0.99122 0.77088 0.48316 0.0
C1114 C 0.99418 0.74496 0.45967 0.0
C1115 C 0.98487 0.74458 0.41944 0.0
H1116 H 0.27055 0.01554 0.60382 0.0
H1117 H 0.17736 0.03554 0.59382 0.0
H1118 H 0.27125 0.99911 0.53372 0.0
H1119 H 0.17823 0.0224 0.52292 0.0
H1120 H 0.18008 0.97063 0.40738 0.0
H1121 H 0.17927 0.98602 0.47731 0.0
H1122 H 0.27122 0.01345 0.46752 0.0
H1123 H 0.27231 0.99495 0.39828 0.0
C1124 C 0.25039 0.01702 0.58611 0.0
C1125 C 0.22424 0.02808 0.60324 0.0
C1126 C 0.25077 0.00796 0.54582 0.0
C1127 C 0.22496 0.00992 0.52193 0.0
C1128 C 0.19858 0.02017 0.53998 0.0
C1129 C 0.19812 0.02846 0.58044 0.0
C1130 C 0.20026 0.97928 0.42072 0.0
C1131 C 0.22668 0.9801 0.39858 0.0
C1132 C 0.1997 0.98885 0.46062 0.0
C1133 C 0.22535 0.00071 0.47878 0.0
C1134 C 0.25133 0.0034 0.45533 0.0
C1135 C 0.25198 0.99313 0.41555 0.0
H1136 H 0.52659 0.6785 0.90324 0.0
H1137 H 0.50711 0.77181 0.89343 0.0
H1138 H 0.51158 0.67892 0.97342 0.0
H1139 H 0.48898 0.77211 0.9628 0.0
H1140 H 0.48626 0.7724 0.09896 0.0
H1141 H 0.50307 0.77183 0.029 0.0
H1142 H 0.47522 0.68002 0.01903 0.0
H1143 H 0.46177 0.68023 0.08975 0.0
C1144 C 0.51914 0.69918 0.9165 0.0
C1145 C 0.51954 0.72547 0.89408 0.0
C1146 C 0.50978 0.69937 0.95652 0.0
C1147 C 0.49934 0.72571 0.9745 0.0
C1148 C 0.49795 0.75166 0.95079 0.0
C1149 C 0.508 0.75152 0.91093 0.0
C1150 C 0.48388 0.75223 0.08147 0.0
C1151 C 0.47145 0.72676 0.09879 0.0
C1152 C 0.49317 0.75189 0.04126 0.0
C1153 C 0.49005 0.72605 0.01762 0.0
C1154 C 0.47839 0.70034 0.03586 0.0
C1155 C 0.46991 0.70056 0.07624 0.0
H1156 H 0.22867 0.51067 0.89581 0.0
H1157 H 0.32105 0.53435 0.90526 0.0
H1158 H 0.22914 0.49329 0.96557 0.0
H1159 H 0.32127 0.51989 0.97575 0.0
H1160 H 0.32188 0.46679 0.09034 0.0
H1161 H 0.32157 0.48218 0.02027 0.0
H1162 H 0.22938 0.50817 0.03214 0.0
H1163 H 0.22947 0.48993 0.10154 0.0
C1164 C 0.24889 0.51266 0.91328 0.0
C1165 C 0.27445 0.52508 0.89615 0.0
C1166 C 0.24917 0.50303 0.95334 0.0
C1167 C 0.27507 0.50567 0.97694 0.0
C1168 C 0.30091 0.51717 0.95884 0.0
C1169 C 0.3007 0.52616 0.91865 0.0
C1170 C 0.30142 0.47513 0.07744 0.0
C1171 C 0.27529 0.47573 0.10026 0.0
C1172 C 0.30132 0.48464 0.03748 0.0
C1173 C 0.27529 0.49615 0.01994 0.0
C1174 C 0.24956 0.49844 0.04394 0.0
C1175 C 0.24959 0.48831 0.08379 0.0
H1176 H 0.51572 0.22678 0.09608 0.0
H1177 H 0.53778 0.31958 0.08739 0.0
H1178 H 0.49838 0.22723 0.02643 0.0
H1179 H 0.52392 0.31974 0.01678 0.0
H1180 H 0.4922 0.22737 0.8914 0.0
H1181 H 0.51142 0.22737 0.96019 0.0
H1182 H 0.48764 0.32025 0.97137 0.0
H1183 H 0.47165 0.32041 0.90162 0.0
C1184 C 0.5175 0.24708 0.07871 0.0
C1185 C 0.52938 0.27278 0.09609 0.0
C1186 C 0.50792 0.24735 0.03865 0.0
C1187 C 0.51023 0.27336 0.01517 0.0
C1188 C 0.52138 0.29928 0.03348 0.0
C1189 C 0.53011 0.29911 0.07377 0.0
C1190 C 0.49129 0.24766 0.9089 0.0
C1191 C 0.47912 0.27352 0.89236 0.0
C1192 C 0.50198 0.24769 0.94845 0.0
C1193 C 0.50053 0.27362 0.9722 0.0
C1194 C 0.4895 0.29981 0.95447 0.0
C1195 C 0.47956 0.29985 0.9147 0.0
H1196 H 0.67741 0.46336 0.9017 0.0
H1197 H 0.76972 0.48685 0.89026 0.0
H1198 H 0.67811 0.47759 0.97226 0.0
H1199 H 0.77017 0.50402 0.96012 0.0
H1200 H 0.7714 0.50739 0.09612 0.0
H1201 H 0.77067 0.48917 0.02671 0.0
H1202 H 0.67839 0.51527 0.01679 0.0
H1203 H 0.67891 0.53066 0.08685 0.0
C1204 C 0.69795 0.47146 0.91466 0.0
C1205 C 0.72392 0.47257 0.89156 0.0
C1206 C 0.69827 0.48032 0.95491 0.0
C1207 C 0.72435 0.49173 0.97247 0.0
C1208 C 0.74996 0.49436 0.9483 0.0
C1209 C 0.74972 0.48485 0.90819 0.0
C1210 C 0.75108 0.50903 0.07879 0.0
C1211 C 0.72558 0.52165 0.0958 0.0
C1212 C 0.75064 0.49891 0.03894 0.0
C1213 C 0.72464 0.50123 0.01548 0.0
C1214 C 0.69883 0.51278 0.03357 0.0
C1215 C 0.69921 0.52229 0.07353 0.0
loop_
_geom_bond_atom_site_label_1
_geom_bond_atom_site_label_2
_geom_bond_distance
_geom_bond_site_symmetry_2
_ccdc_geom_bond_type
Mn0 O5 2.095 . S
Mn0 O15 2.162 1_455 S
Mn0 O16 2.297 1_455 S
Mn0 O24 2.380 1_455 S
Mn0 O25 2.209 . S
Mn0 O26 2.094 . S
Mn1 O6 2.121 . S
Mn1 N8 2.257 . S
Mn1 N17 2.282 . S
Mn1 O25 2.215 . S
Mn1 O27 2.117 . S
C2 O24 1.227 1_455 S
C2 O25 1.283 . S
C3 O15 1.281 . S
C3 O16 1.236 . S
C4 O26 1.240 . S
C4 O27 1.264 . S
O5 Mn0 2.095 . S
O5 C14 1.250 . S
O6 Mn1 2.121 . S
O6 C14 1.258 . S
C7 N8 1.326 . S
C7 C11 1.460 . S
C7 H13 0.929 . S
N8 Mn1 2.257 . S
N8 C7 1.326 . S
N8 C12 1.362 . S
C9 C10 1.258 . S
C9 C12 1.431 . S
C9 C29 1.449 . S
C10 C9 1.258 . S
C10 C11 1.477 . S
C10 H30 0.931 . S
C11 C7 1.460 . S
C11 C10 1.477 . S
C11 H31 0.930 . S
C12 N8 1.362 . S
C12 C9 1.431 . S
C12 C22 1.476 . S
H13 C7 0.929 . S
C14 O5 1.250 . S
C14 O6 1.258 . S
O15 Mn0 2.162 1_655 S
O15 C3 1.281 . S
O16 Mn0 2.297 1_655 S
O16 C3 1.236 . S
N17 Mn1 2.282 . S
N17 C18 1.328 . S
N17 C22 1.318 . S
C18 N17 1.328 . S
C18 C19 1.457 . S
C18 H23 0.929 . S
C19 C18 1.457 . S
C19 C20 1.291 . S
C19 H32 0.931 . S
C20 C19 1.291 . S
C20 C21 1.373 . S
C20 H33 0.929 . S
C21 C20 1.373 . S
C21 C22 1.396 . S
C21 C28 1.403 . S
C22 C12 1.476 . S
C22 N17 1.318 . S
C22 C21 1.396 . S
H23 C18 0.929 . S
O24 Mn0 2.380 1_655 S
O24 C2 1.227 1_655 S
O25 Mn0 2.209 . S
O25 Mn1 2.215 . S
O25 C2 1.283 . S
O26 Mn0 2.094 . S
O26 C4 1.240 . S
O27 Mn1 2.117 . S
O27 C4 1.264 . S
C28 C21 1.403 . S
C28 C29 1.399 . S
C28 H34 0.929 . S
C29 C9 1.449 . S
C29 C28 1.399 . S
C29 H35 0.930 . S
H30 C10 0.931 . S
H31 C11 0.930 . S
H32 C19 0.931 . S
H33 C20 0.929 . S
H34 C28 0.929 . S
H35 C29 0.930 . S
Mn36 O41 2.095 . S
Mn36 O51 2.162 1_545 S
Mn36 O52 2.297 1_545 S
Mn36 O60 2.380 1_545 S
Mn36 O61 2.209 . S
Mn36 O62 2.094 . S
Mn37 O42 2.121 . S
Mn37 N44 2.257 . S
Mn37 N53 2.282 . S
Mn37 O61 2.215 . S
Mn37 O63 2.117 . S
C38 O60 1.227 1_545 S
C38 O61 1.283 . S
C39 O51 1.281 . S
C39 O52 1.236 . S
C40 O62 1.240 . S
C40 O63 1.264 . S
O41 Mn36 2.095 . S
O41 C50 1.250 . S
O42 Mn37 2.121 . S
O42 C50 1.258 . S
C43 N44 1.326 . S
C43 C47 1.460 . S
C43 H49 0.929 . S
N44 Mn37 2.257 . S
N44 C43 1.326 . S
N44 C48 1.362 . S
C45 C46 1.258 . S
C45 C48 1.431 . S
C45 C65 1.449 . S
C46 C45 1.258 . S
C46 C47 1.477 . S
C46 H66 0.931 . S
C47 C43 1.460 . S
C47 C46 1.477 . S
C47 H67 0.930 . S
C48 N44 1.362 . S
C48 C45 1.431 . S
C48 C58 1.476 . S
H49 C43 0.929 . S
C50 O41 1.250 . S
C50 O42 1.258 . S
O51 Mn36 2.162 1_565 S
O51 C39 1.281 . S
O52 Mn36 2.297 1_565 S
O52 C39 1.236 . S
N53 Mn37 2.282 . S
N53 C54 1.328 . S
N53 C58 1.318 . S
C54 N53 1.328 . S
C54 C55 1.457 . S
C54 H59 0.929 . S
C55 C54 1.457 . S
C55 C56 1.291 . S
C55 H68 0.931 . S
C56 C55 1.291 . S
C56 C57 1.373 . S
C56 H69 0.929 . S
C57 C56 1.373 . S
C57 C58 1.396 . S
C57 C64 1.403 . S
C58 C48 1.476 . S
C58 N53 1.318 . S
C58 C57 1.396 . S
H59 C54 0.929 . S
O60 Mn36 2.380 1_565 S
O60 C38 1.227 1_565 S
O61 Mn36 2.209 . S
O61 Mn37 2.215 . S
O61 C38 1.283 . S
O62 Mn36 2.094 . S
O62 C40 1.240 . S
O63 Mn37 2.117 . S
O63 C40 1.264 . S
C64 C57 1.403 . S
C64 C65 1.399 . S
C64 H70 0.929 . S
C65 C45 1.449 . S
C65 C64 1.399 . S
C65 H71 0.930 . S
H66 C46 0.931 . S
H67 C47 0.930 . S
H68 C55 0.931 . S
H69 C56 0.929 . S
H70 C64 0.929 . S
H71 C65 0.930 . S
Mn72 O77 2.095 . S
Mn72 O87 2.162 1_655 S
Mn72 O88 2.297 1_655 S
Mn72 O96 2.380 1_655 S
Mn72 O97 2.209 . S
Mn72 O98 2.094 . S
Mn73 O78 2.121 . S
Mn73 N80 2.257 . S
Mn73 N89 2.282 . S
Mn73 O97 2.215 . S
Mn73 O99 2.117 . S
C74 O96 1.227 1_655 S
C74 O97 1.283 . S
C75 O87 1.281 . S
C75 O88 1.236 . S
C76 O98 1.240 . S
C76 O99 1.264 . S
O77 Mn72 2.095 . S
O77 C86 1.250 . S
O78 Mn73 2.121 . S
O78 C86 1.258 . S
C79 N80 1.326 . S
C79 C83 1.460 . S
C79 H85 0.929 . S
N80 Mn73 2.257 . S
N80 C79 1.326 . S
N80 C84 1.362 . S
C81 C82 1.258 . S
C81 C84 1.431 . S
C81 C101 1.449 . S
C82 C81 1.258 . S
C82 C83 1.477 . S
C82 H102 0.931 . S
C83 C79 1.460 . S
C83 C82 1.477 . S
C83 H103 0.930 . S
C84 N80 1.362 . S
C84 C81 1.431 . S
C84 C94 1.476 . S
H85 C79 0.929 . S
C86 O77 1.250 . S
C86 O78 1.258 . S
O87 Mn72 2.162 1_455 S
O87 C75 1.281 . S
O88 Mn72 2.297 1_455 S
O88 C75 1.236 . S
N89 Mn73 2.282 . S
N89 C90 1.328 . S
N89 C94 1.318 . S
C90 N89 1.328 . S
C90 C91 1.457 . S
C90 H95 0.929 . S
C91 C90 1.457 . S
C91 C92 1.291 . S
C91 H104 0.931 . S
C92 C91 1.291 . S
C92 C93 1.373 . S
C92 H105 0.929 . S
C93 C92 1.373 . S
C93 C94 1.396 . S
C93 C100 1.403 . S
C94 C84 1.476 . S
C94 N89 1.318 . S
C94 C93 1.396 . S
H95 C90 0.929 . S
O96 Mn72 2.380 1_455 S
O96 C74 1.227 1_455 S
O97 Mn72 2.209 . S
O97 Mn73 2.215 . S
O97 C74 1.283 . S
O98 Mn72 2.094 . S
O98 C76 1.240 . S
O99 Mn73 2.117 . S
O99 C76 1.264 . S
C100 C93 1.403 . S
C100 C101 1.399 . S
C100 H106 0.929 . S
C101 C81 1.449 . S
C101 C100 1.399 . S
C101 H107 0.930 . S
H102 C82 0.931 . S
H103 C83 0.930 . S
H104 C91 0.931 . S
H105 C92 0.929 . S
H106 C100 0.929 . S
H107 C101 0.930 . S
Mn108 O113 2.095 . S
Mn108 O123 2.162 1_565 S
Mn108 O124 2.297 1_565 S
Mn108 O132 2.380 1_565 S
Mn108 O133 2.209 . S
Mn108 O134 2.094 . S
Mn109 O114 2.121 . S
Mn109 N116 2.257 . S
Mn109 N125 2.282 . S
Mn109 O133 2.215 . S
Mn109 O135 2.117 . S
C110 O132 1.227 1_565 S
C110 O133 1.283 . S
C111 O123 1.281 . S
C111 O124 1.236 . S
C112 O134 1.240 . S
C112 O135 1.264 . S
O113 Mn108 2.095 . S
O113 C122 1.250 . S
O114 Mn109 2.121 . S
O114 C122 1.258 . S
C115 N116 1.326 . S
C115 C119 1.460 . S
C115 H121 0.929 . S
N116 Mn109 2.257 . S
N116 C115 1.326 . S
N116 C120 1.362 . S
C117 C118 1.258 . S
C117 C120 1.431 . S
C117 C137 1.449 . S
C118 C117 1.258 . S
C118 C119 1.477 . S
C118 H138 0.931 . S
C119 C115 1.460 . S
C119 C118 1.477 . S
C119 H139 0.930 . S
C120 N116 1.362 . S
C120 C117 1.431 . S
C120 C130 1.476 . S
H121 C115 0.929 . S
C122 O113 1.250 . S
C122 O114 1.258 . S
O123 Mn108 2.162 1_545 S
O123 C111 1.281 . S
O124 Mn108 2.297 1_545 S
O124 C111 1.236 . S
N125 Mn109 2.282 . S
N125 C126 1.328 . S
N125 C130 1.318 . S
C126 N125 1.328 . S
C126 C127 1.457 . S
C126 H131 0.929 . S
C127 C126 1.457 . S
C127 C128 1.291 . S
C127 H140 0.931 . S
C128 C127 1.291 . S
C128 C129 1.373 . S
C128 H141 0.929 . S
C129 C128 1.373 . S
C129 C130 1.396 . S
C129 C136 1.403 . S
C130 C120 1.476 . S
C130 N125 1.318 . S
C130 C129 1.396 . S
H131 C126 0.929 . S
O132 Mn108 2.380 1_545 S
O132 C110 1.227 1_545 S
O133 Mn108 2.209 . S
O133 Mn109 2.215 . S
O133 C110 1.283 . S
O134 Mn108 2.094 . S
O134 C112 1.240 . S
O135 Mn109 2.117 . S
O135 C112 1.264 . S
C136 C129 1.403 . S
C136 C137 1.399 . S
C136 H142 0.929 . S
C137 C117 1.449 . S
C137 C136 1.399 . S
C137 H143 0.930 . S
H138 C118 0.931 . S
H139 C119 0.930 . S
H140 C127 0.931 . S
H141 C128 0.929 . S
H142 C136 0.929 . S
H143 C137 0.930 . S
Mn144 O149 2.095 . S
Mn144 O159 2.162 1_455 S
Mn144 O160 2.297 1_455 S
Mn144 O168 2.380 1_455 S
Mn144 O169 2.209 . S
Mn144 O170 2.094 . S
Mn145 O150 2.121 . S
Mn145 N152 2.257 . S
Mn145 N161 2.282 . S
Mn145 O169 2.215 . S
Mn145 O171 2.117 . S
C146 O168 1.227 1_455 S
C146 O169 1.283 . S
C147 O159 1.281 . S
C147 O160 1.236 . S
C148 O170 1.240 . S
C148 O171 1.264 . S
O149 Mn144 2.095 . S
O149 C158 1.250 . S
O150 Mn145 2.121 . S
O150 C158 1.258 . S
C151 N152 1.326 . S
C151 C155 1.460 . S
C151 H157 0.929 . S
N152 Mn145 2.257 . S
N152 C151 1.326 . S
N152 C156 1.362 . S
C153 C154 1.258 . S
C153 C156 1.431 . S
C153 C173 1.449 . S
C154 C153 1.258 . S
C154 C155 1.477 . S
C154 H174 0.931 . S
C155 C151 1.460 . S
C155 C154 1.477 . S
C155 H175 0.930 . S
C156 N152 1.362 . S
C156 C153 1.431 . S
C156 C166 1.476 . S
H157 C151 0.929 . S
C158 O149 1.250 . S
C158 O150 1.258 . S
O159 Mn144 2.162 1_655 S
O159 C147 1.281 . S
O160 Mn144 2.297 1_655 S
O160 C147 1.236 . S
N161 Mn145 2.282 . S
N161 C162 1.328 . S
N161 C166 1.318 . S
C162 N161 1.328 . S
C162 C163 1.457 . S
C162 H167 0.929 . S
C163 C162 1.457 . S
C163 C164 1.291 . S
C163 H176 0.931 . S
C164 C163 1.291 . S
C164 C165 1.373 . S
C164 H177 0.929 . S
C165 C164 1.373 . S
C165 C166 1.396 . S
C165 C172 1.403 . S
C166 C156 1.476 . S
C166 N161 1.318 . S
C166 C165 1.396 . S
H167 C162 0.929 . S
O168 Mn144 2.380 1_655 S
O168 C146 1.227 1_655 S
O169 Mn144 2.209 . S
O169 Mn145 2.215 . S
O169 C146 1.283 . S
O170 Mn144 2.094 . S
O170 C148 1.240 . S
O171 Mn145 2.117 . S
O171 C148 1.264 . S
C172 C165 1.403 . S
C172 C173 1.399 . S
C172 H178 0.929 . S
C173 C153 1.449 . S
C173 C172 1.399 . S
C173 H179 0.930 . S
H174 C154 0.931 . S
H175 C155 0.930 . S
H176 C163 0.931 . S
H177 C164 0.929 . S
H178 C172 0.929 . S
H179 C173 0.930 . S
Mn180 O185 2.095 . S
Mn180 O195 2.162 1_545 S
Mn180 O196 2.297 1_545 S
Mn180 O204 2.380 1_545 S
Mn180 O205 2.209 . S
Mn180 O206 2.094 . S
Mn181 O186 2.121 . S
Mn181 N188 2.257 . S
Mn181 N197 2.282 . S
Mn181 O205 2.215 . S
Mn181 O207 2.117 . S
C182 O204 1.227 1_545 S
C182 O205 1.283 . S
C183 O195 1.281 . S
C183 O196 1.236 . S
C184 O206 1.240 . S
C184 O207 1.264 . S
O185 Mn180 2.095 . S
O185 C194 1.250 . S
O186 Mn181 2.121 . S
O186 C194 1.258 . S
C187 N188 1.326 . S
C187 C191 1.460 . S
C187 H193 0.929 . S
N188 Mn181 2.257 . S
N188 C187 1.326 . S
N188 C192 1.362 . S
C189 C190 1.258 . S
C189 C192 1.431 . S
C189 C209 1.449 . S
C190 C189 1.258 . S
C190 C191 1.477 . S
C190 H210 0.931 . S
C191 C187 1.460 . S
C191 C190 1.477 . S
C191 H211 0.930 . S
C192 N188 1.362 . S
C192 C189 1.431 . S
C192 C202 1.476 . S
H193 C187 0.929 . S
C194 O185 1.250 . S
C194 O186 1.258 . S
O195 Mn180 2.162 1_565 S
O195 C183 1.281 . S
O196 Mn180 2.297 1_565 S
O196 C183 1.236 . S
N197 Mn181 2.282 . S
N197 C198 1.328 . S
N197 C202 1.318 . S
C198 N197 1.328 . S
C198 C199 1.457 . S
C198 H203 0.929 . S
C199 C198 1.457 . S
C199 C200 1.291 . S
C199 H212 0.931 . S
C200 C199 1.291 . S
C200 C201 1.373 . S
C200 H213 0.929 . S
C201 C200 1.373 . S
C201 C202 1.396 . S
C201 C208 1.403 . S
C202 C192 1.476 . S
C202 N197 1.318 . S
C202 C201 1.396 . S
H203 C198 0.929 . S
O204 Mn180 2.380 1_565 S
O204 C182 1.227 1_565 S
O205 Mn180 2.209 . S
O205 Mn181 2.215 . S
O205 C182 1.283 . S
O206 Mn180 2.094 . S
O206 C184 1.240 . S
O207 Mn181 2.117 . S
O207 C184 1.264 . S
C208 C201 1.403 . S
C208 C209 1.399 . S
C208 H214 0.929 . S
C209 C189 1.449 . S
C209 C208 1.399 . S
C209 H215 0.930 . S
H210 C190 0.931 . S
H211 C191 0.930 . S
H212 C199 0.931 . S
H213 C200 0.929 . S
H214 C208 0.929 . S
H215 C209 0.930 . S
Mn216 O221 2.095 . S
Mn216 O231 2.162 1_655 S
Mn216 O232 2.297 1_655 S
Mn216 O240 2.380 1_655 S
Mn216 O241 2.209 . S
Mn216 O242 2.094 . S
Mn217 O222 2.121 . S
Mn217 N224 2.257 . S
Mn217 N233 2.282 . S
Mn217 O241 2.215 . S
Mn217 O243 2.117 . S
C218 O240 1.227 1_655 S
C218 O241 1.283 . S
C219 O231 1.281 . S
C219 O232 1.236 . S
C220 O242 1.240 . S
C220 O243 1.264 . S
O221 Mn216 2.095 . S
O221 C230 1.250 . S
O222 Mn217 2.121 . S
O222 C230 1.258 . S
C223 N224 1.326 . S
C223 C227 1.460 . S
C223 H229 0.929 . S
N224 Mn217 2.257 . S
N224 C223 1.326 . S
N224 C228 1.362 . S
C225 C226 1.258 . S
C225 C228 1.431 . S
C225 C245 1.449 . S
C226 C225 1.258 . S
C226 C227 1.477 . S
C226 H246 0.931 . S
C227 C223 1.460 . S
C227 C226 1.477 . S
C227 H247 0.930 . S
C228 N224 1.362 . S
C228 C225 1.431 . S
C228 C238 1.476 . S
H229 C223 0.929 . S
C230 O221 1.250 . S
C230 O222 1.258 . S
O231 Mn216 2.162 1_455 S
O231 C219 1.281 . S
O232 Mn216 2.297 1_455 S
O232 C219 1.236 . S
N233 Mn217 2.282 . S
N233 C234 1.328 . S
N233 C238 1.318 . S
C234 N233 1.328 . S
C234 C235 1.457 . S
C234 H239 0.929 . S
C235 C234 1.457 . S
C235 C236 1.291 . S
C235 H248 0.931 . S
C236 C235 1.291 . S
C236 C237 1.373 . S
C236 H249 0.929 . S
C237 C236 1.373 . S
C237 C238 1.396 . S
C237 C244 1.403 . S
C238 C228 1.476 . S
C238 N233 1.318 . S
C238 C237 1.396 . S
H239 C234 0.929 . S
O240 Mn216 2.380 1_455 S
O240 C218 1.227 1_455 S
O241 Mn216 2.209 . S
O241 Mn217 2.215 . S
O241 C218 1.283 . S
O242 Mn216 2.094 . S
O242 C220 1.240 . S
O243 Mn217 2.117 . S
O243 C220 1.264 . S
C244 C237 1.403 . S
C244 C245 1.399 . S
C244 H250 0.929 . S
C245 C225 1.449 . S
C245 C244 1.399 . S
C245 H251 0.930 . S
H246 C226 0.931 . S
H247 C227 0.930 . S
H248 C235 0.931 . S
H249 C236 0.929 . S
H250 C244 0.929 . S
H251 C245 0.930 . S
Mn252 O257 2.095 . S
Mn252 O267 2.162 1_565 S
Mn252 O268 2.297 1_565 S
Mn252 O276 2.380 1_565 S
Mn252 O277 2.209 . S
Mn252 O278 2.094 . S
Mn253 O258 2.121 . S
Mn253 N260 2.257 . S
Mn253 N269 2.282 . S
Mn253 O277 2.215 . S
Mn253 O279 2.117 . S
C254 O276 1.227 1_565 S
C254 O277 1.283 . S
C255 O267 1.281 . S
C255 O268 1.236 . S
C256 O278 1.240 . S
C256 O279 1.264 . S
O257 Mn252 2.095 . S
O257 C266 1.250 . S
O258 Mn253 2.121 . S
O258 C266 1.258 . S
C259 N260 1.326 . S
C259 C263 1.460 . S
C259 H265 0.929 . S
N260 Mn253 2.257 . S
N260 C259 1.326 . S
N260 C264 1.362 . S
C261 C262 1.258 . S
C261 C264 1.431 . S
C261 C281 1.449 . S
C262 C261 1.258 . S
C262 C263 1.477 . S
C262 H282 0.931 . S
C263 C259 1.460 . S
C263 C262 1.477 . S
C263 H283 0.930 . S
C264 N260 1.362 . S
C264 C261 1.431 . S
C264 C274 1.476 . S
H265 C259 0.929 . S
C266 O257 1.250 . S
C266 O258 1.258 . S
O267 Mn252 2.162 1_545 S
O267 C255 1.281 . S
O268 Mn252 2.297 1_545 S
O268 C255 1.236 . S
N269 Mn253 2.282 . S
N269 C270 1.328 . S
N269 C274 1.318 . S
C270 N269 1.328 . S
C270 C271 1.457 . S
C270 H275 0.929 . S
C271 C270 1.457 . S
C271 C272 1.291 . S
C271 H284 0.931 . S
C272 C271 1.291 . S
C272 C273 1.373 . S
C272 H285 0.929 . S
C273 C272 1.373 . S
C273 C274 1.396 . S
C273 C280 1.403 . S
C274 C264 1.476 . S
C274 N269 1.318 . S
C274 C273 1.396 . S
H275 C270 0.929 . S
O276 Mn252 2.380 1_545 S
O276 C254 1.227 1_545 S
O277 Mn252 2.209 . S
O277 Mn253 2.215 . S
O277 C254 1.283 . S
O278 Mn252 2.094 . S
O278 C256 1.240 . S
O279 Mn253 2.117 . S
O279 C256 1.264 . S
C280 C273 1.403 . S
C280 C281 1.399 . S
C280 H286 0.929 . S
C281 C261 1.449 . S
C281 C280 1.399 . S
C281 H287 0.930 . S
H282 C262 0.931 . S
H283 C263 0.930 . S
H284 C271 0.931 . S
H285 C272 0.929 . S
H286 C280 0.929 . S
H287 C281 0.930 . S
Mn288 O293 2.095 . S
Mn288 O303 2.162 . S
Mn288 O304 2.297 . S
Mn288 O312 2.385 . S
Mn288 O313 2.209 . S
Mn288 O314 2.094 . S
Mn289 O294 2.121 . S
Mn289 N296 2.257 . S
Mn289 N305 2.282 . S
Mn289 O313 2.215 . S
Mn289 O315 2.117 . S
C290 O312 1.234 . S
C290 O313 1.283 . S
C291 O303 1.281 . S
C291 O304 1.236 . S
C292 O314 1.240 . S
C292 O315 1.264 . S
O293 Mn288 2.095 . S
O293 C302 1.250 . S
O294 Mn289 2.121 . S
O294 C302 1.258 . S
C295 N296 1.326 . S
C295 C299 1.460 . S
C295 H301 0.929 . S
N296 Mn289 2.257 . S
N296 C295 1.326 . S
N296 C300 1.362 . S
C297 C298 1.258 . S
C297 C300 1.431 . S
C297 C317 1.449 . S
C298 C297 1.258 . S
C298 C299 1.477 . S
C298 H318 0.931 . S
C299 C295 1.460 . S
C299 C298 1.477 . S
C299 H319 0.930 . S
C300 N296 1.362 . S
C300 C297 1.431 . S
C300 C310 1.476 . S
H301 C295 0.929 . S
C302 O293 1.250 . S
C302 O294 1.258 . S
O303 Mn288 2.162 . S
O303 C291 1.281 . S
O304 Mn288 2.297 . S
O304 C291 1.236 . S
N305 Mn289 2.282 . S
N305 C306 1.328 . S
N305 C310 1.318 . S
C306 N305 1.328 . S
C306 C307 1.457 . S
C306 H311 0.929 . S
C307 C306 1.457 . S
C307 C308 1.291 . S
C307 H320 0.931 . S
C308 C307 1.291 . S
C308 C309 1.373 . S
C308 H321 0.929 . S
C309 C308 1.373 . S
C309 C310 1.396 . S
C309 C316 1.403 . S
C310 C300 1.476 . S
C310 N305 1.318 . S
C310 C309 1.396 . S
H311 C306 0.929 . S
O312 Mn288 2.385 . S
O312 C290 1.234 . S
O313 Mn288 2.209 . S
O313 Mn289 2.215 . S
O313 C290 1.283 . S
O314 Mn288 2.094 . S
O314 C292 1.240 . S
O315 Mn289 2.117 . S
O315 C292 1.264 . S
C316 C309 1.403 . S
C316 C317 1.399 . S
C316 H322 0.929 1_556 S
C317 C297 1.449 . S
C317 C316 1.399 . S
C317 H323 0.930 1_556 S
H318 C298 0.931 . S
H319 C299 0.930 . S
H320 C307 0.931 . S
H321 C308 0.929 . S
H322 C316 0.929 1_554 S
H323 C317 0.930 1_554 S
Mn324 O329 2.095 . S
Mn324 O339 2.162 . S
Mn324 O340 2.297 . S
Mn324 O348 2.385 . S
Mn324 O349 2.209 . S
Mn324 O350 2.094 . S
Mn325 O330 2.121 . S
Mn325 N332 2.257 . S
Mn325 N341 2.282 . S
Mn325 O349 2.215 . S
Mn325 O351 2.117 . S
C326 O348 1.234 . S
C326 O349 1.283 . S
C327 O339 1.281 . S
C327 O340 1.236 . S
C328 O350 1.240 . S
C328 O351 1.264 . S
O329 Mn324 2.095 . S
O329 C338 1.250 . S
O330 Mn325 2.121 . S
O330 C338 1.258 . S
C331 N332 1.326 . S
C331 C335 1.460 . S
C331 H337 0.929 . S
N332 Mn325 2.257 . S
N332 C331 1.326 . S
N332 C336 1.362 . S
C333 C334 1.258 . S
C333 C336 1.431 . S
C333 C353 1.449 . S
C334 C333 1.258 . S
C334 C335 1.477 . S
C334 H354 0.931 . S
C335 C331 1.460 . S
C335 C334 1.477 . S
C335 H355 0.930 . S
C336 N332 1.362 . S
C336 C333 1.431 . S
C336 C346 1.476 . S
H337 C331 0.929 . S
C338 O329 1.250 . S
C338 O330 1.258 . S
O339 Mn324 2.162 . S
O339 C327 1.281 . S
O340 Mn324 2.297 . S
O340 C327 1.236 . S
N341 Mn325 2.282 . S
N341 C342 1.328 . S
N341 C346 1.318 . S
C342 N341 1.328 . S
C342 C343 1.457 . S
C342 H347 0.929 . S
C343 C342 1.457 . S
C343 C344 1.291 . S
C343 H356 0.931 . S
C344 C343 1.291 . S
C344 C345 1.373 . S
C344 H357 0.929 . S
C345 C344 1.373 . S
C345 C346 1.396 . S
C345 C352 1.403 . S
C346 C336 1.476 . S
C346 N341 1.318 . S
C346 C345 1.396 . S
H347 C342 0.929 . S
O348 Mn324 2.385 . S
O348 C326 1.234 . S
O349 Mn324 2.209 . S
O349 Mn325 2.215 . S
O349 C326 1.283 . S
O350 Mn324 2.094 . S
O350 C328 1.240 . S
O351 Mn325 2.117 . S
O351 C328 1.264 . S
C352 C345 1.403 . S
C352 C353 1.399 . S
C352 H358 0.929 1_556 S
C353 C333 1.449 . S
C353 C352 1.399 . S
C353 H359 0.930 1_556 S
H354 C334 0.931 . S
H355 C335 0.930 . S
H356 C343 0.931 . S
H357 C344 0.929 . S
H358 C352 0.929 1_554 S
H359 C353 0.930 1_554 S
Mn360 O365 2.095 . S
Mn360 O375 2.162 . S
Mn360 O376 2.297 . S
Mn360 O384 2.385 . S
Mn360 O385 2.209 . S
Mn360 O386 2.094 . S
Mn361 O366 2.121 . S
Mn361 N368 2.257 . S
Mn361 N377 2.282 . S
Mn361 O385 2.215 . S
Mn361 O387 2.117 . S
C362 O384 1.234 . S
C362 O385 1.283 . S
C363 O375 1.281 . S
C363 O376 1.236 . S
C364 O386 1.240 . S
C364 O387 1.264 . S
O365 Mn360 2.095 . S
O365 C374 1.250 . S
O366 Mn361 2.121 . S
O366 C374 1.258 . S
C367 N368 1.326 . S
C367 C371 1.460 . S
C367 H373 0.929 . S
N368 Mn361 2.257 . S
N368 C367 1.326 . S
N368 C372 1.362 . S
C369 C370 1.258 . S
C369 C372 1.431 . S
C369 C389 1.449 . S
C370 C369 1.258 . S
C370 C371 1.477 . S
C370 H390 0.931 . S
C371 C367 1.460 . S
C371 C370 1.477 . S
C371 H391 0.930 . S
C372 N368 1.362 . S
C372 C369 1.431 . S
C372 C382 1.476 . S
H373 C367 0.929 . S
C374 O365 1.250 . S
C374 O366 1.258 . S
O375 Mn360 2.162 . S
O375 C363 1.281 . S
O376 Mn360 2.297 . S
O376 C363 1.236 . S
N377 Mn361 2.282 . S
N377 C378 1.328 . S
N377 C382 1.318 . S
C378 N377 1.328 . S
C378 C379 1.457 . S
C378 H383 0.929 . S
C379 C378 1.457 . S
C379 C380 1.291 . S
C379 H392 0.931 . S
C380 C379 1.291 . S
C380 C381 1.373 . S
C380 H393 0.929 . S
C381 C380 1.373 . S
C381 C382 1.396 . S
C381 C388 1.403 . S
C382 C372 1.476 . S
C382 N377 1.318 . S
C382 C381 1.396 . S
H383 C378 0.929 . S
O384 Mn360 2.385 . S
O384 C362 1.234 . S
O385 Mn360 2.209 . S
O385 Mn361 2.215 . S
O385 C362 1.283 . S
O386 Mn360 2.094 . S
O386 C364 1.240 . S
O387 Mn361 2.117 . S
O387 C364 1.264 . S
C388 C381 1.403 . S
C388 C389 1.399 . S
C388 H394 0.929 1_556 S
C389 C369 1.449 . S
C389 C388 1.399 . S
C389 H395 0.930 1_556 S
H390 C370 0.931 . S
H391 C371 0.930 . S
H392 C379 0.931 . S
H393 C380 0.929 . S
H394 C388 0.929 1_554 S
H395 C389 0.930 1_554 S
Mn396 O401 2.095 . S
Mn396 O411 2.162 . S
Mn396 O412 2.297 . S
Mn396 O420 2.385 . S
Mn396 O421 2.209 . S
Mn396 O422 2.094 . S
Mn397 O402 2.121 . S
Mn397 N404 2.257 . S
Mn397 N413 2.282 . S
Mn397 O421 2.215 . S
Mn397 O423 2.117 . S
C398 O420 1.234 . S
C398 O421 1.283 . S
C399 O411 1.281 . S
C399 O412 1.236 . S
C400 O422 1.240 . S
C400 O423 1.264 . S
O401 Mn396 2.095 . S
O401 C410 1.250 . S
O402 Mn397 2.121 . S
O402 C410 1.258 . S
C403 N404 1.326 . S
C403 C407 1.460 . S
C403 H409 0.929 . S
N404 Mn397 2.257 . S
N404 C403 1.326 . S
N404 C408 1.362 . S
C405 C406 1.258 . S
C405 C408 1.431 . S
C405 C425 1.449 . S
C406 C405 1.258 . S
C406 C407 1.477 . S
C406 H426 0.931 . S
C407 C403 1.460 . S
C407 C406 1.477 . S
C407 H427 0.930 . S
C408 N404 1.362 . S
C408 C405 1.431 . S
C408 C418 1.476 . S
H409 C403 0.929 . S
C410 O401 1.250 . S
C410 O402 1.258 . S
O411 Mn396 2.162 . S
O411 C399 1.281 . S
O412 Mn396 2.297 . S
O412 C399 1.236 . S
N413 Mn397 2.282 . S
N413 C414 1.328 . S
N413 C418 1.318 . S
C414 N413 1.328 . S
C414 C415 1.457 . S
C414 H419 0.929 . S
C415 C414 1.457 . S
C415 C416 1.291 . S
C415 H428 0.931 . S
C416 C415 1.291 . S
C416 C417 1.373 . S
C416 H429 0.929 . S
C417 C416 1.373 . S
C417 C418 1.396 . S
C417 C424 1.403 . S
C418 C408 1.476 . S
C418 N413 1.318 . S
C418 C417 1.396 . S
H419 C414 0.929 . S
O420 Mn396 2.385 . S
O420 C398 1.234 . S
O421 Mn396 2.209 . S
O421 Mn397 2.215 . S
O421 C398 1.283 . S
O422 Mn396 2.094 . S
O422 C400 1.240 . S
O423 Mn397 2.117 . S
O423 C400 1.264 . S
C424 C417 1.403 . S
C424 C425 1.399 . S
C424 H430 0.929 1_556 S
C425 C405 1.449 . S
C425 C424 1.399 . S
C425 H431 0.930 1_556 S
H426 C406 0.931 . S
H427 C407 0.930 . S
H428 C415 0.931 . S
H429 C416 0.929 . S
H430 C424 0.929 1_554 S
H431 C425 0.930 1_554 S
Mn432 O437 2.095 . S
Mn432 O447 2.162 . S
Mn432 O448 2.297 . S
Mn432 O456 2.385 . S
Mn432 O457 2.209 . S
Mn432 O458 2.094 . S
Mn433 O438 2.121 . S
Mn433 N440 2.257 . S
Mn433 N449 2.282 . S
Mn433 O457 2.215 . S
Mn433 O459 2.117 . S
C434 O456 1.234 . S
C434 O457 1.283 . S
C435 O447 1.281 . S
C435 O448 1.236 . S
C436 O458 1.240 . S
C436 O459 1.264 . S
O437 Mn432 2.095 . S
O437 C446 1.250 . S
O438 Mn433 2.121 . S
O438 C446 1.258 . S
C439 N440 1.326 . S
C439 C443 1.460 . S
C439 H445 0.929 . S
N440 Mn433 2.257 . S
N440 C439 1.326 . S
N440 C444 1.362 . S
C441 C442 1.258 . S
C441 C444 1.431 . S
C441 C461 1.449 . S
C442 C441 1.258 . S
C442 C443 1.477 . S
C442 H462 0.931 . S
C443 C439 1.460 . S
C443 C442 1.477 . S
C443 H463 0.930 . S
C444 N440 1.362 . S
C444 C441 1.431 . S
C444 C454 1.476 . S
H445 C439 0.929 . S
C446 O437 1.250 . S
C446 O438 1.258 . S
O447 Mn432 2.162 . S
O447 C435 1.281 . S
O448 Mn432 2.297 . S
O448 C435 1.236 . S
N449 Mn433 2.282 . S
N449 C450 1.328 . S
N449 C454 1.318 . S
C450 N449 1.328 . S
C450 C451 1.457 . S
C450 H455 0.929 . S
C451 C450 1.457 . S
C451 C452 1.291 . S
C451 H464 0.931 . S
C452 C451 1.291 . S
C452 C453 1.373 . S
C452 H465 0.929 . S
C453 C452 1.373 . S
C453 C454 1.396 . S
C453 C460 1.403 . S
C454 C444 1.476 . S
C454 N449 1.318 . S
C454 C453 1.396 . S
H455 C450 0.929 . S
O456 Mn432 2.385 . S
O456 C434 1.234 . S
O457 Mn432 2.209 . S
O457 Mn433 2.215 . S
O457 C434 1.283 . S
O458 Mn432 2.094 . S
O458 C436 1.240 . S
O459 Mn433 2.117 . S
O459 C436 1.264 . S
C460 C453 1.403 . S
C460 C461 1.399 . S
C460 H466 0.929 1_554 S
C461 C441 1.449 . S
C461 C460 1.399 . S
C461 H467 0.930 1_554 S
H462 C442 0.931 . S
H463 C443 0.930 . S
H464 C451 0.931 . S
H465 C452 0.929 . S
H466 C460 0.929 1_556 S
H467 C461 0.930 1_556 S
Mn468 O473 2.095 . S
Mn468 O483 2.162 . S
Mn468 O484 2.297 . S
Mn468 O492 2.385 . S
Mn468 O493 2.209 . S
Mn468 O494 2.094 . S
Mn469 O474 2.121 . S
Mn469 N476 2.257 . S
Mn469 N485 2.282 . S
Mn469 O493 2.215 . S
Mn469 O495 2.117 . S
C470 O492 1.234 . S
C470 O493 1.283 . S
C471 O483 1.281 . S
C471 O484 1.236 . S
C472 O494 1.240 . S
C472 O495 1.264 . S
O473 Mn468 2.095 . S
O473 C482 1.250 . S
O474 Mn469 2.121 . S
O474 C482 1.258 . S
C475 N476 1.326 . S
C475 C479 1.460 . S
C475 H481 0.929 . S
N476 Mn469 2.257 . S
N476 C475 1.326 . S
N476 C480 1.362 . S
C477 C478 1.258 . S
C477 C480 1.431 . S
C477 C497 1.449 . S
C478 C477 1.258 . S
C478 C479 1.477 . S
C478 H498 0.931 . S
C479 C475 1.460 . S
C479 C478 1.477 . S
C479 H499 0.930 . S
C480 N476 1.362 . S
C480 C477 1.431 . S
C480 C490 1.476 . S
H481 C475 0.929 . S
C482 O473 1.250 . S
C482 O474 1.258 . S
O483 Mn468 2.162 . S
O483 C471 1.281 . S
O484 Mn468 2.297 . S
O484 C471 1.236 . S
N485 Mn469 2.282 . S
N485 C486 1.328 . S
N485 C490 1.318 . S
C486 N485 1.328 . S
C486 C487 1.457 . S
C486 H491 0.929 . S
C487 C486 1.457 . S
C487 C488 1.291 . S
C487 H500 0.931 . S
C488 C487 1.291 . S
C488 C489 1.373 . S
C488 H501 0.929 . S
C489 C488 1.373 . S
C489 C490 1.396 . S
C489 C496 1.403 . S
C490 C480 1.476 . S
C490 N485 1.318 . S
C490 C489 1.396 . S
H491 C486 0.929 . S
O492 Mn468 2.385 . S
O492 C470 1.234 . S
O493 Mn468 2.209 . S
O493 Mn469 2.215 . S
O493 C470 1.283 . S
O494 Mn468 2.094 . S
O494 C472 1.240 . S
O495 Mn469 2.117 . S
O495 C472 1.264 . S
C496 C489 1.403 . S
C496 C497 1.399 . S
C496 H502 0.929 1_554 S
C497 C477 1.449 . S
C497 C496 1.399 . S
C497 H503 0.930 1_554 S
H498 C478 0.931 . S
H499 C479 0.930 . S
H500 C487 0.931 . S
H501 C488 0.929 . S
H502 C496 0.929 1_556 S
H503 C497 0.930 1_556 S
Mn504 O509 2.095 . S
Mn504 O519 2.162 . S
Mn504 O520 2.297 . S
Mn504 O528 2.385 . S
Mn504 O529 2.209 . S
Mn504 O530 2.094 . S
Mn505 O510 2.121 . S
Mn505 N512 2.257 . S
Mn505 N521 2.282 . S
Mn505 O529 2.215 . S
Mn505 O531 2.117 . S
C506 O528 1.234 . S
C506 O529 1.283 . S
C507 O519 1.281 . S
C507 O520 1.236 . S
C508 O530 1.240 . S
C508 O531 1.264 . S
O509 Mn504 2.095 . S
O509 C518 1.250 . S
O510 Mn505 2.121 . S
O510 C518 1.258 . S
C511 N512 1.326 . S
C511 C515 1.460 . S
C511 H517 0.929 . S
N512 Mn505 2.257 . S
N512 C511 1.326 . S
N512 C516 1.362 . S
C513 C514 1.258 . S
C513 C516 1.431 . S
C513 C533 1.449 . S
C514 C513 1.258 . S
C514 C515 1.477 . S
C514 H534 0.931 . S
C515 C511 1.460 . S
C515 C514 1.477 . S
C515 H535 0.930 . S
C516 N512 1.362 . S
C516 C513 1.431 . S
C516 C526 1.476 . S
H517 C511 0.929 . S
C518 O509 1.250 . S
C518 O510 1.258 . S
O519 Mn504 2.162 . S
O519 C507 1.281 . S
O520 Mn504 2.297 . S
O520 C507 1.236 . S
N521 Mn505 2.282 . S
N521 C522 1.328 . S
N521 C526 1.318 . S
C522 N521 1.328 . S
C522 C523 1.457 . S
C522 H527 0.929 . S
C523 C522 1.457 . S
C523 C524 1.291 . S
C523 H536 0.931 . S
C524 C523 1.291 . S
C524 C525 1.373 . S
C524 H537 0.929 . S
C525 C524 1.373 . S
C525 C526 1.396 . S
C525 C532 1.403 . S
C526 C516 1.476 . S
C526 N521 1.318 . S
C526 C525 1.396 . S
H527 C522 0.929 . S
O528 Mn504 2.385 . S
O528 C506 1.234 . S
O529 Mn504 2.209 . S
O529 Mn505 2.215 . S
O529 C506 1.283 . S
O530 Mn504 2.094 . S
O530 C508 1.240 . S
O531 Mn505 2.117 . S
O531 C508 1.264 . S
C532 C525 1.403 . S
C532 C533 1.399 . S
C532 H538 0.929 1_554 S
C533 C513 1.449 . S
C533 C532 1.399 . S
C533 H539 0.930 1_554 S
H534 C514 0.931 . S
H535 C515 0.930 . S
H536 C523 0.931 . S
H537 C524 0.929 . S
H538 C532 0.929 1_556 S
H539 C533 0.930 1_556 S
Mn540 O545 2.095 . S
Mn540 O555 2.162 . S
Mn540 O556 2.297 . S
Mn540 O564 2.385 . S
Mn540 O565 2.209 . S
Mn540 O566 2.094 . S
Mn541 O546 2.121 . S
Mn541 N548 2.257 . S
Mn541 N557 2.282 . S
Mn541 O565 2.215 . S
Mn541 O567 2.117 . S
C542 O564 1.234 . S
C542 O565 1.283 . S
C543 O555 1.281 . S
C543 O556 1.236 . S
C544 O566 1.240 . S
C544 O567 1.264 . S
O545 Mn540 2.095 . S
O545 C554 1.250 . S
O546 Mn541 2.121 . S
O546 C554 1.258 . S
C547 N548 1.326 . S
C547 C551 1.460 . S
C547 H553 0.929 . S
N548 Mn541 2.257 . S
N548 C547 1.326 . S
N548 C552 1.362 . S
C549 C550 1.258 . S
C549 C552 1.431 . S
C549 C569 1.449 . S
C550 C549 1.258 . S
C550 C551 1.477 . S
C550 H570 0.931 . S
C551 C547 1.460 . S
C551 C550 1.477 . S
C551 H571 0.930 . S
C552 N548 1.362 . S
C552 C549 1.431 . S
C552 C562 1.476 . S
H553 C547 0.929 . S
C554 O545 1.250 . S
C554 O546 1.258 . S
O555 Mn540 2.162 . S
O555 C543 1.281 . S
O556 Mn540 2.297 . S
O556 C543 1.236 . S
N557 Mn541 2.282 . S
N557 C558 1.328 . S
N557 C562 1.318 . S
C558 N557 1.328 . S
C558 C559 1.457 . S
C558 H563 0.929 . S
C559 C558 1.457 . S
C559 C560 1.291 . S
C559 H572 0.931 . S
C560 C559 1.291 . S
C560 C561 1.373 . S
C560 H573 0.929 . S
C561 C560 1.373 . S
C561 C562 1.396 . S
C561 C568 1.403 . S
C562 C552 1.476 . S
C562 N557 1.318 . S
C562 C561 1.396 . S
H563 C558 0.929 . S
O564 Mn540 2.385 . S
O564 C542 1.234 . S
O565 Mn540 2.209 . S
O565 Mn541 2.215 . S
O565 C542 1.283 . S
O566 Mn540 2.094 . S
O566 C544 1.240 . S
O567 Mn541 2.117 . S
O567 C544 1.264 . S
C568 C561 1.403 . S
C568 C569 1.399 . S
C568 H574 0.929 1_554 S
C569 C549 1.449 . S
C569 C568 1.399 . S
C569 H575 0.930 1_554 S
H570 C550 0.931 . S
H571 C551 0.930 . S
H572 C559 0.931 . S
H573 C560 0.929 . S
H574 C568 0.929 1_556 S
H575 C569 0.930 1_556 S
H576 C584 0.950 . S
H577 C589 0.950 . S
H578 C586 0.950 . S
H579 C588 0.950 . S
H580 C590 0.950 . S
H581 C592 0.950 . S
H582 C594 0.950 . S
H583 C595 0.950 . S
C584 H576 0.950 . S
C584 C585 1.386 . S
C584 C586 1.391 . S
C585 C584 1.386 . S
C585 C589 1.393 . S
C586 H578 0.950 . S
C586 C584 1.391 . S
C586 C587 1.400 . S
C587 C586 1.400 . S
C587 C588 1.398 . S
C587 C593 1.491 . S
C588 H579 0.950 . S
C588 C587 1.398 . S
C588 C589 1.391 . S
C589 H577 0.950 . S
C589 C585 1.393 . S
C589 C588 1.391 . S
C590 H580 0.950 . S
C590 C591 1.386 . S
C590 C592 1.391 . S
C591 C590 1.386 . S
C591 C595 1.393 . S
C592 H581 0.950 . S
C592 C590 1.391 . S
C592 C593 1.400 . S
C593 C587 1.491 . S
C593 C592 1.400 . S
C593 C594 1.398 . S
C594 H582 0.950 . S
C594 C593 1.398 . S
C594 C595 1.391 . S
C595 H583 0.950 . S
C595 C591 1.393 . S
C595 C594 1.391 . S
H596 C604 0.950 . S
H597 C609 0.950 . S
H598 C606 0.950 . S
H599 C608 0.950 . S
H600 C610 0.950 . S
H601 C612 0.950 . S
H602 C614 0.950 . S
H603 C615 0.950 . S
C604 H596 0.950 . S
C604 C605 1.386 . S
C604 C606 1.391 . S
C605 C604 1.386 . S
C605 C609 1.393 . S
C606 H598 0.950 . S
C606 C604 1.391 . S
C606 C607 1.400 . S
C607 C606 1.400 . S
C607 C608 1.398 . S
C607 C613 1.491 . S
C608 H599 0.950 . S
C608 C607 1.398 . S
C608 C609 1.391 . S
C609 H597 0.950 . S
C609 C605 1.393 . S
C609 C608 1.391 . S
C610 H600 0.950 . S
C610 C611 1.386 . S
C610 C612 1.391 . S
C611 C610 1.386 . S
C611 C615 1.393 . S
C612 H601 0.950 . S
C612 C610 1.391 . S
C612 C613 1.400 . S
C613 C607 1.491 . S
C613 C612 1.400 . S
C613 C614 1.398 . S
C614 H602 0.950 . S
C614 C613 1.398 . S
C614 C615 1.391 . S
C615 H603 0.950 . S
C615 C611 1.393 . S
C615 C614 1.391 . S
H616 C624 0.950 . S
H617 C629 0.950 . S
H618 C626 0.950 . S
H619 C628 0.950 . S
H620 C630 0.950 . S
H621 C632 0.950 . S
H622 C634 0.950 . S
H623 C635 0.950 . S
C624 H616 0.950 . S
C624 C625 1.386 . S
C624 C626 1.391 . S
C625 C624 1.386 . S
C625 C629 1.393 . S
C626 H618 0.950 . S
C626 C624 1.391 . S
C626 C627 1.400 . S
C627 C626 1.400 . S
C627 C628 1.398 . S
C627 C633 1.491 . S
C628 H619 0.950 . S
C628 C627 1.398 . S
C628 C629 1.391 . S
C629 H617 0.950 . S
C629 C625 1.393 . S
C629 C628 1.391 . S
C630 H620 0.950 . S
C630 C631 1.386 . S
C630 C632 1.391 . S
C631 C630 1.386 . S
C631 C635 1.393 . S
C632 H621 0.950 . S
C632 C630 1.391 . S
C632 C633 1.400 . S
C633 C627 1.491 . S
C633 C632 1.400 . S
C633 C634 1.398 . S
C634 H622 0.950 . S
C634 C633 1.398 . S
C634 C635 1.391 . S
C635 H623 0.950 . S
C635 C631 1.393 . S
C635 C634 1.391 . S
H636 C644 0.950 . S
H637 C649 0.950 . S
H638 C646 0.950 . S
H639 C648 0.950 . S
H640 C650 0.950 . S
H641 C652 0.950 . S
H642 C654 0.950 . S
H643 C655 0.950 . S
C644 H636 0.950 . S
C644 C645 1.386 . S
C644 C646 1.391 . S
C645 C644 1.386 . S
C645 C649 1.393 . S
C646 H638 0.950 . S
C646 C644 1.391 . S
C646 C647 1.400 . S
C647 C646 1.400 . S
C647 C648 1.398 . S
C647 C653 1.491 . S
C648 H639 0.950 . S
C648 C647 1.398 . S
C648 C649 1.391 . S
C649 H637 0.950 . S
C649 C645 1.393 . S
C649 C648 1.391 . S
C650 H640 0.950 . S
C650 C651 1.386 . S
C650 C652 1.391 . S
C651 C650 1.386 . S
C651 C655 1.393 . S
C652 H641 0.950 . S
C652 C650 1.391 . S
C652 C653 1.400 . S
C653 C647 1.491 . S
C653 C652 1.400 . S
C653 C654 1.398 . S
C654 H642 0.950 . S
C654 C653 1.398 . S
C654 C655 1.391 . S
C655 H643 0.950 . S
C655 C651 1.393 . S
C655 C654 1.391 . S
H656 C664 0.950 . S
H657 C669 0.950 . S
H658 C666 0.950 . S
H659 C668 0.950 . S
H660 C670 0.950 . S
H661 C672 0.950 . S
H662 C674 0.950 . S
H663 C675 0.950 . S
C664 H656 0.950 . S
C664 C665 1.386 . S
C664 C666 1.391 . S
C665 C664 1.386 . S
C665 C669 1.393 . S
C666 H658 0.950 . S
C666 C664 1.391 . S
C666 C667 1.400 . S
C667 C666 1.400 . S
C667 C668 1.398 . S
C667 C673 1.491 . S
C668 H659 0.950 . S
C668 C667 1.398 . S
C668 C669 1.391 . S
C669 H657 0.950 . S
C669 C665 1.393 . S
C669 C668 1.391 . S
C670 H660 0.950 . S
C670 C671 1.386 . S
C670 C672 1.391 . S
C671 C670 1.386 . S
C671 C675 1.393 . S
C672 H661 0.950 . S
C672 C670 1.391 . S
C672 C673 1.400 . S
C673 C667 1.491 . S
C673 C672 1.400 . S
C673 C674 1.398 . S
C674 H662 0.950 . S
C674 C673 1.398 . S
C674 C675 1.391 . S
C675 H663 0.950 . S
C675 C671 1.393 . S
C675 C674 1.391 . S
H676 C684 0.950 . S
H677 C689 0.950 . S
H678 C686 0.950 . S
H679 C688 0.950 . S
H680 C690 0.950 . S
H681 C692 0.950 . S
H682 C694 0.950 . S
H683 C695 0.950 . S
C684 H676 0.950 . S
C684 C685 1.386 . S
C684 C686 1.391 . S
C685 C684 1.386 . S
C685 C689 1.393 . S
C686 H678 0.950 . S
C686 C684 1.391 . S
C686 C687 1.400 . S
C687 C686 1.400 . S
C687 C688 1.398 . S
C687 C693 1.491 . S
C688 H679 0.950 . S
C688 C687 1.398 . S
C688 C689 1.391 . S
C689 H677 0.950 . S
C689 C685 1.393 . S
C689 C688 1.391 . S
C690 H680 0.950 . S
C690 C691 1.386 . S
C690 C692 1.391 . S
C691 C690 1.386 . S
C691 C695 1.393 . S
C692 H681 0.950 . S
C692 C690 1.391 . S
C692 C693 1.400 . S
C693 C687 1.491 . S
C693 C692 1.400 . S
C693 C694 1.398 . S
C694 H682 0.950 . S
C694 C693 1.398 . S
C694 C695 1.391 . S
C695 H683 0.950 . S
C695 C691 1.393 . S
C695 C694 1.391 . S
H696 C704 0.950 . S
H697 C709 0.950 . S
H698 C706 0.950 . S
H699 C708 0.950 . S
H700 C710 0.950 . S
H701 C712 0.950 . S
H702 C714 0.950 . S
H703 C715 0.950 . S
C704 H696 0.950 . S
C704 C705 1.386 . S
C704 C706 1.391 . S
C705 C704 1.386 . S
C705 C709 1.393 . S
C706 H698 0.950 . S
C706 C704 1.391 . S
C706 C707 1.400 . S
C707 C706 1.400 . S
C707 C708 1.398 . S
C707 C713 1.491 . S
C708 H699 0.950 . S
C708 C707 1.398 . S
C708 C709 1.391 . S
C709 H697 0.950 . S
C709 C705 1.393 . S
C709 C708 1.391 . S
C710 H700 0.950 . S
C710 C711 1.386 . S
C710 C712 1.391 . S
C711 C710 1.386 . S
C711 C715 1.393 . S
C712 H701 0.950 . S
C712 C710 1.391 . S
C712 C713 1.400 . S
C713 C707 1.491 . S
C713 C712 1.400 . S
C713 C714 1.398 . S
C714 H702 0.950 . S
C714 C713 1.398 . S
C714 C715 1.391 . S
C715 H703 0.950 . S
C715 C711 1.393 . S
C715 C714 1.391 . S
H716 C724 0.950 . S
H717 C729 0.950 . S
H718 C726 0.950 . S
H719 C728 0.950 . S
H720 C730 0.950 . S
H721 C732 0.950 . S
H722 C734 0.950 . S
H723 C735 0.950 . S
C724 H716 0.950 . S
C724 C725 1.386 . S
C724 C726 1.391 . S
C725 C724 1.386 . S
C725 C729 1.393 . S
C726 H718 0.950 . S
C726 C724 1.391 . S
C726 C727 1.400 . S
C727 C726 1.400 . S
C727 C728 1.398 . S
C727 C733 1.491 . S
C728 H719 0.950 . S
C728 C727 1.398 . S
C728 C729 1.391 . S
C729 H717 0.950 . S
C729 C725 1.393 . S
C729 C728 1.391 . S
C730 H720 0.950 . S
C730 C731 1.386 . S
C730 C732 1.391 . S
C731 C730 1.386 . S
C731 C735 1.393 . S
C732 H721 0.950 . S
C732 C730 1.391 . S
C732 C733 1.400 . S
C733 C727 1.491 . S
C733 C732 1.400 . S
C733 C734 1.398 . S
C734 H722 0.950 . S
C734 C733 1.398 . S
C734 C735 1.391 . S
C735 H723 0.950 . S
C735 C731 1.393 . S
C735 C734 1.391 . S
H736 C744 0.950 . S
H737 C749 0.950 . S
H738 C746 0.950 . S
H739 C748 0.950 . S
H740 C750 0.950 . S
H741 C752 0.950 . S
H742 C754 0.950 . S
H743 C755 0.950 . S
C744 H736 0.950 . S
C744 C745 1.386 . S
C744 C746 1.391 . S
C745 C744 1.386 . S
C745 C749 1.393 . S
C746 H738 0.950 . S
C746 C744 1.391 . S
C746 C747 1.400 . S
C747 C746 1.400 . S
C747 C748 1.398 . S
C747 C753 1.491 . S
C748 H739 0.950 . S
C748 C747 1.398 . S
C748 C749 1.391 . S
C749 H737 0.950 . S
C749 C745 1.393 . S
C749 C748 1.391 . S
C750 H740 0.950 . S
C750 C751 1.386 . S
C750 C752 1.391 . S
C751 C750 1.386 . S
C751 C755 1.393 . S
C752 H741 0.950 . S
C752 C750 1.391 . S
C752 C753 1.400 . S
C753 C747 1.491 . S
C753 C752 1.400 . S
C753 C754 1.398 . S
C754 H742 0.950 . S
C754 C753 1.398 . S
C754 C755 1.391 . S
C755 H743 0.950 . S
C755 C751 1.393 . S
C755 C754 1.391 . S
H756 C764 0.950 . S
H757 C769 0.950 . S
H758 C766 0.950 . S
H759 C768 0.950 . S
H760 C770 0.950 . S
H761 C772 0.950 . S
H762 C774 0.950 . S
H763 C775 0.950 . S
C764 H756 0.950 . S
C764 C765 1.386 . S
C764 C766 1.391 . S
C765 C764 1.386 . S
C765 C769 1.393 . S
C766 H758 0.950 . S
C766 C764 1.391 . S
C766 C767 1.400 . S
C767 C766 1.400 . S
C767 C768 1.398 . S
C767 C773 1.491 . S
C768 H759 0.950 . S
C768 C767 1.398 . S
C768 C769 1.391 . S
C769 H757 0.950 . S
C769 C765 1.393 . S
C769 C768 1.391 . S
C770 H760 0.950 . S
C770 C771 1.386 . S
C770 C772 1.391 . S
C771 C770 1.386 . S
C771 C775 1.393 . S
C772 H761 0.950 . S
C772 C770 1.391 . S
C772 C773 1.400 . S
C773 C767 1.491 . S
C773 C772 1.400 . S
C773 C774 1.398 . S
C774 H762 0.950 . S
C774 C773 1.398 . S
C774 C775 1.391 . S
C775 H763 0.950 . S
C775 C771 1.393 . S
C775 C774 1.391 . S
H776 C784 0.950 . S
H777 C789 0.950 . S
H778 C786 0.950 . S
H779 C788 0.950 . S
H780 C790 0.950 . S
H781 C792 0.950 . S
H782 C794 0.950 . S
H783 C795 0.950 . S
C784 H776 0.950 . S
C784 C785 1.386 . S
C784 C786 1.391 . S
C785 C784 1.386 . S
C785 C789 1.393 . S
C786 H778 0.950 . S
C786 C784 1.391 . S
C786 C787 1.400 . S
C787 C786 1.400 . S
C787 C788 1.398 . S
C787 C793 1.491 . S
C788 H779 0.950 . S
C788 C787 1.398 . S
C788 C789 1.391 . S
C789 H777 0.950 . S
C789 C785 1.393 . S
C789 C788 1.391 . S
C790 H780 0.950 . S
C790 C791 1.386 . S
C790 C792 1.391 . S
C791 C790 1.386 . S
C791 C795 1.393 . S
C792 H781 0.950 . S
C792 C790 1.391 . S
C792 C793 1.400 . S
C793 C787 1.491 . S
C793 C792 1.400 . S
C793 C794 1.398 . S
C794 H782 0.950 . S
C794 C793 1.398 . S
C794 C795 1.391 . S
C795 H783 0.950 . S
C795 C791 1.393 . S
C795 C794 1.391 . S
H796 C804 0.950 . S
H797 C809 0.950 . S
H798 C806 0.950 . S
H799 C808 0.950 . S
H800 C810 0.950 . S
H801 C812 0.950 . S
H802 C814 0.950 . S
H803 C815 0.950 . S
C804 H796 0.950 . S
C804 C805 1.386 . S
C804 C806 1.391 . S
C805 C804 1.386 . S
C805 C809 1.393 . S
C806 H798 0.950 . S
C806 C804 1.391 . S
C806 C807 1.400 . S
C807 C806 1.400 . S
C807 C808 1.398 . S
C807 C813 1.491 . S
C808 H799 0.950 . S
C808 C807 1.398 . S
C808 C809 1.391 . S
C809 H797 0.950 . S
C809 C805 1.393 . S
C809 C808 1.391 . S
C810 H800 0.950 . S
C810 C811 1.386 . S
C810 C812 1.391 . S
C811 C810 1.386 . S
C811 C815 1.393 . S
C812 H801 0.950 . S
C812 C810 1.391 . S
C812 C813 1.400 . S
C813 C807 1.491 . S
C813 C812 1.400 . S
C813 C814 1.398 . S
C814 H802 0.950 . S
C814 C813 1.398 . S
C814 C815 1.391 . S
C815 H803 0.950 . S
C815 C811 1.393 . S
C815 C814 1.391 . S
H816 C824 0.950 . S
H817 C829 0.950 . S
H818 C826 0.950 . S
H819 C828 0.950 . S
H820 C830 0.950 . S
H821 C832 0.950 . S
H822 C834 0.950 . S
H823 C835 0.950 . S
C824 H816 0.950 . S
C824 C825 1.386 . S
C824 C826 1.391 . S
C825 C824 1.386 . S
C825 C829 1.393 . S
C826 H818 0.950 . S
C826 C824 1.391 . S
C826 C827 1.400 . S
C827 C826 1.400 . S
C827 C828 1.398 . S
C827 C833 1.491 . S
C828 H819 0.950 . S
C828 C827 1.398 . S
C828 C829 1.391 . S
C829 H817 0.950 . S
C829 C825 1.393 . S
C829 C828 1.391 . S
C830 H820 0.950 . S
C830 C831 1.386 . S
C830 C832 1.391 . S
C831 C830 1.386 . S
C831 C835 1.393 . S
C832 H821 0.950 . S
C832 C830 1.391 . S
C832 C833 1.400 . S
C833 C827 1.491 . S
C833 C832 1.400 . S
C833 C834 1.398 . S
C834 H822 0.950 . S
C834 C833 1.398 . S
C834 C835 1.391 . S
C835 H823 0.950 . S
C835 C831 1.393 . S
C835 C834 1.391 . S
H836 C844 0.950 . S
H837 C849 0.950 . S
H838 C846 0.950 . S
H839 C848 0.950 . S
H840 C850 0.950 . S
H841 C852 0.950 . S
H842 C854 0.950 . S
H843 C855 0.950 . S
C844 H836 0.950 . S
C844 C845 1.386 . S
C844 C846 1.391 . S
C845 C844 1.386 . S
C845 C849 1.393 . S
C846 H838 0.950 . S
C846 C844 1.391 . S
C846 C847 1.400 . S
C847 C846 1.400 . S
C847 C848 1.398 . S
C847 C853 1.491 . S
C848 H839 0.950 . S
C848 C847 1.398 . S
C848 C849 1.391 . S
C849 H837 0.950 . S
C849 C845 1.393 . S
C849 C848 1.391 . S
C850 H840 0.950 . S
C850 C851 1.386 . S
C850 C852 1.391 . S
C851 C850 1.386 . S
C851 C855 1.393 . S
C852 H841 0.950 . S
C852 C850 1.391 . S
C852 C853 1.400 . S
C853 C847 1.491 . S
C853 C852 1.400 . S
C853 C854 1.398 . S
C854 H842 0.950 . S
C854 C853 1.398 . S
C854 C855 1.391 . S
C855 H843 0.950 . S
C855 C851 1.393 . S
C855 C854 1.391 . S
H856 C864 0.950 . S
H857 C869 0.950 . S
H858 C866 0.950 . S
H859 C868 0.950 . S
H860 C870 0.950 . S
H861 C872 0.950 . S
H862 C874 0.950 . S
H863 C875 0.950 . S
C864 H856 0.950 . S
C864 C865 1.386 . S
C864 C866 1.391 . S
C865 C864 1.386 . S
C865 C869 1.393 . S
C866 H858 0.950 . S
C866 C864 1.391 . S
C866 C867 1.400 . S
C867 C866 1.400 . S
C867 C868 1.398 . S
C867 C873 1.491 . S
C868 H859 0.950 . S
C868 C867 1.398 . S
C868 C869 1.391 . S
C869 H857 0.950 . S
C869 C865 1.393 . S
C869 C868 1.391 . S
C870 H860 0.950 . S
C870 C871 1.386 . S
C870 C872 1.391 . S
C871 C870 1.386 . S
C871 C875 1.393 . S
C872 H861 0.950 . S
C872 C870 1.391 . S
C872 C873 1.400 . S
C873 C867 1.491 . S
C873 C872 1.400 . S
C873 C874 1.398 . S
C874 H862 0.950 . S
C874 C873 1.398 . S
C874 C875 1.391 . S
C875 H863 0.950 . S
C875 C871 1.393 . S
C875 C874 1.391 . S
H876 C884 0.950 . S
H877 C889 0.950 . S
H878 C886 0.950 . S
H879 C888 0.950 . S
H880 C890 0.950 . S
H881 C892 0.950 . S
H882 C894 0.950 . S
H883 C895 0.950 . S
C884 H876 0.950 . S
C884 C885 1.386 . S
C884 C886 1.391 . S
C885 C884 1.386 . S
C885 C889 1.393 . S
C886 H878 0.950 . S
C886 C884 1.391 . S
C886 C887 1.400 . S
C887 C886 1.400 . S
C887 C888 1.398 . S
C887 C893 1.491 . S
C888 H879 0.950 . S
C888 C887 1.398 . S
C888 C889 1.391 . S
C889 H877 0.950 . S
C889 C885 1.393 . S
C889 C888 1.391 . S
C890 H880 0.950 . S
C890 C891 1.386 . S
C890 C892 1.391 . S
C891 C890 1.386 . S
C891 C895 1.393 . S
C892 H881 0.950 . S
C892 C890 1.391 . S
C892 C893 1.400 . S
C893 C887 1.491 . S
C893 C892 1.400 . S
C893 C894 1.398 . S
C894 H882 0.950 . S
C894 C893 1.398 . S
C894 C895 1.391 . S
C895 H883 0.950 . S
C895 C891 1.393 . S
C895 C894 1.391 . S
H896 C904 0.950 . S
H897 C909 0.950 . S
H898 C906 0.950 . S
H899 C908 0.950 . S
H900 C910 0.950 . S
H901 C912 0.950 . S
H902 C914 0.950 . S
H903 C915 0.950 . S
C904 H896 0.950 . S
C904 C905 1.386 . S
C904 C906 1.391 . S
C905 C904 1.386 . S
C905 C909 1.393 . S
C906 H898 0.950 . S
C906 C904 1.391 . S
C906 C907 1.400 . S
C907 C906 1.400 . S
C907 C908 1.398 . S
C907 C913 1.491 . S
C908 H899 0.950 . S
C908 C907 1.398 . S
C908 C909 1.391 . S
C909 H897 0.950 . S
C909 C905 1.393 . S
C909 C908 1.391 . S
C910 H900 0.950 . S
C910 C911 1.386 . S
C910 C912 1.391 . S
C911 C910 1.386 . S
C911 C915 1.393 . S
C912 H901 0.950 . S
C912 C910 1.391 . S
C912 C913 1.400 . S
C913 C907 1.491 . S
C913 C912 1.400 . S
C913 C914 1.398 . S
C914 H902 0.950 . S
C914 C913 1.398 . S
C914 C915 1.391 . S
C915 H903 0.950 . S
C915 C911 1.393 . S
C915 C914 1.391 . S
H916 C924 0.950 . S
H917 C929 0.950 . S
H918 C926 0.950 . S
H919 C928 0.950 . S
H920 C930 0.950 . S
H921 C932 0.950 . S
H922 C934 0.950 . S
H923 C935 0.950 . S
C924 H916 0.950 . S
C924 C925 1.386 . S
C924 C926 1.391 . S
C925 C924 1.386 . S
C925 C929 1.393 . S
C926 H918 0.950 . S
C926 C924 1.391 . S
C926 C927 1.400 . S
C927 C926 1.400 . S
C927 C928 1.398 . S
C927 C933 1.491 . S
C928 H919 0.950 . S
C928 C927 1.398 . S
C928 C929 1.391 . S
C929 H917 0.950 . S
C929 C925 1.393 . S
C929 C928 1.391 . S
C930 H920 0.950 . S
C930 C931 1.386 . S
C930 C932 1.391 . S
C931 C930 1.386 . S
C931 C935 1.393 . S
C932 H921 0.950 . S
C932 C930 1.391 . S
C932 C933 1.400 . S
C933 C927 1.491 . S
C933 C932 1.400 . S
C933 C934 1.398 . S
C934 H922 0.950 . S
C934 C933 1.398 . S
C934 C935 1.391 . S
C935 H923 0.950 . S
C935 C931 1.393 . S
C935 C934 1.391 . S
H936 C944 0.950 . S
H937 C949 0.950 . S
H938 C946 0.950 . S
H939 C948 0.950 . S
H940 C950 0.950 . S
H941 C952 0.950 . S
H942 C954 0.950 . S
H943 C955 0.950 . S
C944 H936 0.950 . S
C944 C945 1.386 . S
C944 C946 1.391 . S
C945 C944 1.386 . S
C945 C949 1.393 . S
C946 H938 0.950 . S
C946 C944 1.391 . S
C946 C947 1.400 . S
C947 C946 1.400 . S
C947 C948 1.398 . S
C947 C953 1.491 . S
C948 H939 0.950 . S
C948 C947 1.398 . S
C948 C949 1.391 . S
C949 H937 0.950 . S
C949 C945 1.393 . S
C949 C948 1.391 . S
C950 H940 0.950 . S
C950 C951 1.386 . S
C950 C952 1.391 . S
C951 C950 1.386 . S
C951 C955 1.393 . S
C952 H941 0.950 . S
C952 C950 1.391 . S
C952 C953 1.400 . S
C953 C947 1.491 . S
C953 C952 1.400 . S
C953 C954 1.398 . S
C954 H942 0.950 . S
C954 C953 1.398 . S
C954 C955 1.391 . S
C955 H943 0.950 . S
C955 C951 1.393 . S
C955 C954 1.391 . S
H956 C964 0.950 . S
H957 C969 0.950 . S
H958 C966 0.950 . S
H959 C968 0.950 . S
H960 C970 0.950 . S
H961 C972 0.950 . S
H962 C974 0.950 . S
H963 C975 0.950 . S
C964 H956 0.950 . S
C964 C965 1.386 . S
C964 C966 1.391 . S
C965 C964 1.386 . S
C965 C969 1.393 . S
C966 H958 0.950 . S
C966 C964 1.391 . S
C966 C967 1.400 . S
C967 C966 1.400 . S
C967 C968 1.398 . S
C967 C973 1.491 . S
C968 H959 0.950 . S
C968 C967 1.398 . S
C968 C969 1.391 . S
C969 H957 0.950 . S
C969 C965 1.393 . S
C969 C968 1.391 . S
C970 H960 0.950 . S
C970 C971 1.386 . S
C970 C972 1.391 . S
C971 C970 1.386 . S
C971 C975 1.393 . S
C972 H961 0.950 . S
C972 C970 1.391 . S
C972 C973 1.400 . S
C973 C967 1.491 . S
C973 C972 1.400 . S
C973 C974 1.398 . S
C974 H962 0.950 . S
C974 C973 1.398 . S
C974 C975 1.391 . S
C975 H963 0.950 . S
C975 C971 1.393 . S
C975 C974 1.391 . S
H976 C984 0.950 . S
H977 C989 0.950 . S
H978 C986 0.950 . S
H979 C988 0.950 . S
H980 C990 0.950 . S
H981 C992 0.950 . S
H982 C994 0.950 . S
H983 C995 0.950 . S
C984 H976 0.950 . S
C984 C985 1.386 . S
C984 C986 1.391 . S
C985 C984 1.386 . S
C985 C989 1.393 . S
C986 H978 0.950 . S
C986 C984 1.391 . S
C986 C987 1.400 . S
C987 C986 1.400 . S
C987 C988 1.398 . S
C987 C993 1.491 . S
C988 H979 0.950 . S
C988 C987 1.398 . S
C988 C989 1.391 . S
C989 H977 0.950 . S
C989 C985 1.393 . S
C989 C988 1.391 . S
C990 H980 0.950 . S
C990 C991 1.386 . S
C990 C992 1.391 . S
C991 C990 1.386 . S
C991 C995 1.393 . S
C992 H981 0.950 . S
C992 C990 1.391 . S
C992 C993 1.400 . S
C993 C987 1.491 . S
C993 C992 1.400 . S
C993 C994 1.398 . S
C994 H982 0.950 . S
C994 C993 1.398 . S
C994 C995 1.391 . S
C995 H983 0.950 . S
C995 C991 1.393 . S
C995 C994 1.391 . S
H996 C1004 0.950 . S
H997 C1009 0.950 . S
H998 C1006 0.950 . S
H999 C1008 0.950 . S
H1000 C1010 0.950 . S
H1001 C1012 0.950 . S
H1002 C1014 0.950 . S
H1003 C1015 0.950 . S
C1004 H996 0.950 . S
C1004 C1005 1.386 . S
C1004 C1006 1.391 . S
C1005 C1004 1.386 . S
C1005 C1009 1.393 . S
C1006 H998 0.950 . S
C1006 C1004 1.391 . S
C1006 C1007 1.400 . S
C1007 C1006 1.400 . S
C1007 C1008 1.398 . S
C1007 C1013 1.491 . S
C1008 H999 0.950 . S
C1008 C1007 1.398 . S
C1008 C1009 1.391 . S
C1009 H997 0.950 . S
C1009 C1005 1.393 . S
C1009 C1008 1.391 . S
C1010 H1000 0.950 . S
C1010 C1011 1.386 . S
C1010 C1012 1.391 . S
C1011 C1010 1.386 . S
C1011 C1015 1.393 . S
C1012 H1001 0.950 . S
C1012 C1010 1.391 . S
C1012 C1013 1.400 . S
C1013 C1007 1.491 . S
C1013 C1012 1.400 . S
C1013 C1014 1.398 . S
C1014 H1002 0.950 . S
C1014 C1013 1.398 . S
C1014 C1015 1.391 . S
C1015 H1003 0.950 . S
C1015 C1011 1.393 . S
C1015 C1014 1.391 . S
H1016 C1024 0.950 . S
H1017 C1029 0.950 . S
H1018 C1026 0.950 . S
H1019 C1028 0.950 . S
H1020 C1030 0.950 . S
H1021 C1032 0.950 . S
H1022 C1034 0.950 . S
H1023 C1035 0.950 . S
C1024 H1016 0.950 . S
C1024 C1025 1.386 . S
C1024 C1026 1.391 . S
C1025 C1024 1.386 . S
C1025 C1029 1.393 . S
C1026 H1018 0.950 . S
C1026 C1024 1.391 . S
C1026 C1027 1.400 . S
C1027 C1026 1.400 . S
C1027 C1028 1.398 . S
C1027 C1033 1.491 . S
C1028 H1019 0.950 . S
C1028 C1027 1.398 . S
C1028 C1029 1.391 . S
C1029 H1017 0.950 . S
C1029 C1025 1.393 . S
C1029 C1028 1.391 . S
C1030 H1020 0.950 . S
C1030 C1031 1.386 . S
C1030 C1032 1.391 . S
C1031 C1030 1.386 . S
C1031 C1035 1.393 . S
C1032 H1021 0.950 . S
C1032 C1030 1.391 . S
C1032 C1033 1.400 . S
C1033 C1027 1.491 . S
C1033 C1032 1.400 . S
C1033 C1034 1.398 . S
C1034 H1022 0.950 . S
C1034 C1033 1.398 . S
C1034 C1035 1.391 . S
C1035 H1023 0.950 . S
C1035 C1031 1.393 . S
C1035 C1034 1.391 . S
H1036 C1044 0.950 . S
H1037 C1049 0.950 . S
H1038 C1046 0.950 . S
H1039 C1048 0.950 . S
H1040 C1050 0.950 . S
H1041 C1052 0.950 . S
H1042 C1054 0.950 . S
H1043 C1055 0.950 . S
C1044 H1036 0.950 . S
C1044 C1045 1.386 . S
C1044 C1046 1.391 . S
C1045 C1044 1.386 . S
C1045 C1049 1.393 . S
C1046 H1038 0.950 . S
C1046 C1044 1.391 . S
C1046 C1047 1.400 . S
C1047 C1046 1.400 . S
C1047 C1048 1.398 . S
C1047 C1053 1.491 . S
C1048 H1039 0.950 . S
C1048 C1047 1.398 . S
C1048 C1049 1.391 . S
C1049 H1037 0.950 . S
C1049 C1045 1.393 . S
C1049 C1048 1.391 . S
C1050 H1040 0.950 . S
C1050 C1051 1.386 . S
C1050 C1052 1.391 . S
C1051 C1050 1.386 . S
C1051 C1055 1.393 . S
C1052 H1041 0.950 . S
C1052 C1050 1.391 . S
C1052 C1053 1.400 . S
C1053 C1047 1.491 . S
C1053 C1052 1.400 . S
C1053 C1054 1.398 . S
C1054 H1042 0.950 . S
C1054 C1053 1.398 . S
C1054 C1055 1.391 . S
C1055 H1043 0.950 . S
C1055 C1051 1.393 . S
C1055 C1054 1.391 . S
H1056 C1064 0.950 . S
H1057 C1069 0.950 . S
H1058 C1066 0.950 . S
H1059 C1068 0.950 . S
H1060 C1070 0.950 . S
H1061 C1072 0.950 . S
H1062 C1074 0.950 . S
H1063 C1075 0.950 . S
C1064 H1056 0.950 . S
C1064 C1065 1.386 . S
C1064 C1066 1.391 . S
C1065 C1064 1.386 . S
C1065 C1069 1.393 1_455 S
C1066 H1058 0.950 . S
C1066 C1064 1.391 . S
C1066 C1067 1.400 . S
C1067 C1066 1.400 . S
C1067 C1068 1.398 1_455 S
C1067 C1073 1.491 1_455 S
C1068 H1059 0.950 . S
C1068 C1067 1.398 1_655 S
C1068 C1069 1.391 . S
C1069 H1057 0.950 . S
C1069 C1065 1.393 1_655 S
C1069 C1068 1.391 . S
C1070 H1060 0.950 . S
C1070 C1071 1.386 . S
C1070 C1072 1.391 . S
C1071 C1070 1.386 . S
C1071 C1075 1.393 1_655 S
C1072 H1061 0.950 . S
C1072 C1070 1.391 . S
C1072 C1073 1.400 . S
C1073 C1067 1.491 1_655 S
C1073 C1072 1.400 . S
C1073 C1074 1.398 1_655 S
C1074 H1062 0.950 . S
C1074 C1073 1.398 1_455 S
C1074 C1075 1.391 . S
C1075 H1063 0.950 . S
C1075 C1071 1.393 1_455 S
C1075 C1074 1.391 . S
H1076 C1084 0.950 . S
H1077 C1089 0.950 . S
H1078 C1086 0.950 . S
H1079 C1088 0.950 . S
H1080 C1090 0.950 . S
H1081 C1092 0.950 . S
H1082 C1094 0.950 . S
H1083 C1095 0.950 . S
C1084 H1076 0.950 . S
C1084 C1085 1.386 1_545 S
C1084 C1086 1.391 . S
C1085 C1084 1.386 1_565 S
C1085 C1089 1.393 . S
C1086 H1078 0.950 . S
C1086 C1084 1.391 . S
C1086 C1087 1.400 1_545 S
C1087 C1086 1.400 1_565 S
C1087 C1088 1.398 . S
C1087 C1093 1.491 1_565 S
C1088 H1079 0.950 . S
C1088 C1087 1.398 . S
C1088 C1089 1.391 . S
C1089 H1077 0.950 . S
C1089 C1085 1.393 . S
C1089 C1088 1.391 . S
C1090 H1080 0.950 . S
C1090 C1091 1.386 1_565 S
C1090 C1092 1.391 . S
C1091 C1090 1.386 1_545 S
C1091 C1095 1.393 . S
C1092 H1081 0.950 . S
C1092 C1090 1.391 . S
C1092 C1093 1.400 1_565 S
C1093 C1087 1.491 1_545 S
C1093 C1092 1.400 1_545 S
C1093 C1094 1.398 . S
C1094 H1082 0.950 . S
C1094 C1093 1.398 . S
C1094 C1095 1.391 . S
C1095 H1083 0.950 . S
C1095 C1091 1.393 . S
C1095 C1094 1.391 . S
H1096 C1104 0.950 . S
H1097 C1109 0.950 . S
H1098 C1106 0.950 . S
H1099 C1108 0.950 . S
H1100 C1110 0.950 . S
H1101 C1112 0.950 . S
H1102 C1114 0.950 . S
H1103 C1115 0.950 . S
C1104 H1096 0.950 . S
C1104 C1105 1.386 1_655 S
C1104 C1106 1.391 . S
C1105 C1104 1.386 1_455 S
C1105 C1109 1.393 . S
C1106 H1098 0.950 . S
C1106 C1104 1.391 . S
C1106 C1107 1.400 1_655 S
C1107 C1106 1.400 1_455 S
C1107 C1108 1.398 . S
C1107 C1113 1.491 1_455 S
C1108 H1099 0.950 . S
C1108 C1107 1.398 . S
C1108 C1109 1.391 . S
C1109 H1097 0.950 . S
C1109 C1105 1.393 . S
C1109 C1108 1.391 . S
C1110 H1100 0.950 . S
C1110 C1111 1.386 1_455 S
C1110 C1112 1.391 . S
C1111 C1110 1.386 1_655 S
C1111 C1115 1.393 . S
C1112 H1101 0.950 . S
C1112 C1110 1.391 . S
C1112 C1113 1.400 1_455 S
C1113 C1107 1.491 1_655 S
C1113 C1112 1.400 1_655 S
C1113 C1114 1.398 . S
C1114 H1102 0.950 . S
C1114 C1113 1.398 . S
C1114 C1115 1.391 . S
C1115 H1103 0.950 . S
C1115 C1111 1.393 . S
C1115 C1114 1.391 . S
H1116 C1124 0.950 . S
H1117 C1129 0.950 . S
H1118 C1126 0.950 . S
H1119 C1128 0.950 . S
H1120 C1130 0.950 . S
H1121 C1132 0.950 . S
H1122 C1134 0.950 . S
H1123 C1135 0.950 . S
C1124 H1116 0.950 . S
C1124 C1125 1.386 . S
C1124 C1126 1.391 . S
C1125 C1124 1.386 . S
C1125 C1129 1.393 1_545 S
C1126 H1118 0.950 . S
C1126 C1124 1.391 . S
C1126 C1127 1.400 . S
C1127 C1126 1.400 . S
C1127 C1128 1.398 1_545 S
C1127 C1133 1.491 1_545 S
C1128 H1119 0.950 . S
C1128 C1127 1.398 1_565 S
C1128 C1129 1.391 . S
C1129 H1117 0.950 . S
C1129 C1125 1.393 1_565 S
C1129 C1128 1.391 . S
C1130 H1120 0.950 . S
C1130 C1131 1.386 . S
C1130 C1132 1.391 . S
C1131 C1130 1.386 . S
C1131 C1135 1.393 1_565 S
C1132 H1121 0.950 . S
C1132 C1130 1.391 . S
C1132 C1133 1.400 . S
C1133 C1127 1.491 1_565 S
C1133 C1132 1.400 . S
C1133 C1134 1.398 1_565 S
C1134 H1122 0.950 . S
C1134 C1133 1.398 1_545 S
C1134 C1135 1.391 . S
C1135 H1123 0.950 . S
C1135 C1131 1.393 1_545 S
C1135 C1134 1.391 . S
H1136 C1144 0.950 . S
H1137 C1149 0.950 . S
H1138 C1146 0.950 . S
H1139 C1148 0.950 . S
H1140 C1150 0.950 . S
H1141 C1152 0.950 . S
H1142 C1154 0.950 . S
H1143 C1155 0.950 . S
C1144 H1136 0.950 . S
C1144 C1145 1.386 . S
C1144 C1146 1.391 . S
C1145 C1144 1.386 . S
C1145 C1149 1.393 . S
C1146 H1138 0.950 . S
C1146 C1144 1.391 . S
C1146 C1147 1.400 . S
C1147 C1146 1.400 . S
C1147 C1148 1.398 . S
C1147 C1153 1.491 1_556 S
C1148 H1139 0.950 . S
C1148 C1147 1.398 . S
C1148 C1149 1.391 . S
C1149 H1137 0.950 . S
C1149 C1145 1.393 . S
C1149 C1148 1.391 . S
C1150 H1140 0.950 . S
C1150 C1151 1.386 . S
C1150 C1152 1.391 . S
C1151 C1150 1.386 . S
C1151 C1155 1.393 . S
C1152 H1141 0.950 . S
C1152 C1150 1.391 . S
C1152 C1153 1.400 . S
C1153 C1147 1.491 1_554 S
C1153 C1152 1.400 . S
C1153 C1154 1.398 . S
C1154 H1142 0.950 . S
C1154 C1153 1.398 . S
C1154 C1155 1.391 . S
C1155 H1143 0.950 . S
C1155 C1151 1.393 . S
C1155 C1154 1.391 . S
H1156 C1164 0.950 . S
H1157 C1169 0.950 . S
H1158 C1166 0.950 . S
H1159 C1168 0.950 . S
H1160 C1170 0.950 . S
H1161 C1172 0.950 . S
H1162 C1174 0.950 . S
H1163 C1175 0.950 . S
C1164 H1156 0.950 . S
C1164 C1165 1.386 . S
C1164 C1166 1.391 . S
C1165 C1164 1.386 . S
C1165 C1169 1.393 . S
C1166 H1158 0.950 . S
C1166 C1164 1.391 . S
C1166 C1167 1.400 . S
C1167 C1166 1.400 . S
C1167 C1168 1.398 . S
C1167 C1173 1.491 1_556 S
C1168 H1159 0.950 . S
C1168 C1167 1.398 . S
C1168 C1169 1.391 . S
C1169 H1157 0.950 . S
C1169 C1165 1.393 . S
C1169 C1168 1.391 . S
C1170 H1160 0.950 . S
C1170 C1171 1.386 . S
C1170 C1172 1.391 . S
C1171 C1170 1.386 . S
C1171 C1175 1.393 . S
C1172 H1161 0.950 . S
C1172 C1170 1.391 . S
C1172 C1173 1.400 . S
C1173 C1167 1.491 1_554 S
C1173 C1172 1.400 . S
C1173 C1174 1.398 . S
C1174 H1162 0.950 . S
C1174 C1173 1.398 . S
C1174 C1175 1.391 . S
C1175 H1163 0.950 . S
C1175 C1171 1.393 . S
C1175 C1174 1.391 . S
H1176 C1184 0.950 . S
H1177 C1189 0.950 . S
H1178 C1186 0.950 . S
H1179 C1188 0.950 . S
H1180 C1190 0.950 . S
H1181 C1192 0.950 . S
H1182 C1194 0.950 . S
H1183 C1195 0.950 . S
C1184 H1176 0.950 . S
C1184 C1185 1.386 . S
C1184 C1186 1.391 . S
C1185 C1184 1.386 . S
C1185 C1189 1.393 . S
C1186 H1178 0.950 . S
C1186 C1184 1.391 . S
C1186 C1187 1.400 . S
C1187 C1186 1.400 . S
C1187 C1188 1.398 . S
C1187 C1193 1.491 1_554 S
C1188 H1179 0.950 . S
C1188 C1187 1.398 . S
C1188 C1189 1.391 . S
C1189 H1177 0.950 . S
C1189 C1185 1.393 . S
C1189 C1188 1.391 . S
C1190 H1180 0.950 . S
C1190 C1191 1.386 . S
C1190 C1192 1.391 . S
C1191 C1190 1.386 . S
C1191 C1195 1.393 . S
C1192 H1181 0.950 . S
C1192 C1190 1.391 . S
C1192 C1193 1.400 . S
C1193 C1187 1.491 1_556 S
C1193 C1192 1.400 . S
C1193 C1194 1.398 . S
C1194 H1182 0.950 . S
C1194 C1193 1.398 . S
C1194 C1195 1.391 . S
C1195 H1183 0.950 . S
C1195 C1191 1.393 . S
C1195 C1194 1.391 . S
H1196 C1204 0.950 . S
H1197 C1209 0.950 . S
H1198 C1206 0.950 . S
H1199 C1208 0.950 . S
H1200 C1210 0.950 . S
H1201 C1212 0.950 . S
H1202 C1214 0.950 . S
H1203 C1215 0.950 . S
C1204 H1196 0.950 . S
C1204 C1205 1.386 . S
C1204 C1206 1.391 . S
C1205 C1204 1.386 . S
C1205 C1209 1.393 . S
C1206 H1198 0.950 . S
C1206 C1204 1.391 . S
C1206 C1207 1.400 . S
C1207 C1206 1.400 . S
C1207 C1208 1.398 . S
C1207 C1213 1.491 1_556 S
C1208 H1199 0.950 . S
C1208 C1207 1.398 . S
C1208 C1209 1.391 . S
C1209 H1197 0.950 . S
C1209 C1205 1.393 . S
C1209 C1208 1.391 . S
C1210 H1200 0.950 . S
C1210 C1211 1.386 . S
C1210 C1212 1.391 . S
C1211 C1210 1.386 . S
C1211 C1215 1.393 . S
C1212 H1201 0.950 . S
C1212 C1210 1.391 . S
C1212 C1213 1.400 . S
C1213 C1207 1.491 1_554 S
C1213 C1212 1.400 . S
C1213 C1214 1.398 . S
C1214 H1202 0.950 . S
C1214 C1213 1.398 . S
C1214 C1215 1.391 . S
C1215 H1203 0.950 . S
C1215 C1211 1.393 . S
C1215 C1214 1.391 . S
C585 C14 1.388 . S
C591 C111 1.437 . S
C605 C3 1.427 . S
C611 C50 1.412 . S
C625 C39 1.430 . S
C631 C86 1.384 . S
C645 C75 1.420 . S
C651 C122 1.397 . S
C665 C158 1.390 . S
C671 C183 1.421 . S
C685 C194 1.384 . S
C691 C219 1.431 . S
C705 C230 1.403 . S
C711 C255 1.441 . S
C725 C266 1.399 . S
C731 C147 1.441 . S
C745 C302 1.413 . S
C751 C399 1.435 . S
C765 C291 1.434 . S
C771 C338 1.386 . S
C785 C327 1.424 . S
C791 C374 1.409 . S
C805 C410 1.409 . S
C811 C363 1.423 . S
C825 C471 1.432 . S
C831 C446 1.414 . S
C845 C507 1.432 . S
C851 C482 1.414 . S
C865 C518 1.387 . S
C871 C543 1.436 . S
C885 C554 1.402 . S
C891 C435 1.420 . S
C905 C4 1.172 . S
C911 C544 1.153 . S
C925 C40 1.182 . S
C931 C436 1.170 . S
C945 C472 1.164 . S
C951 C76 1.180 . S
C965 C112 1.160 . S
C971 C508 1.177 . S
C985 C328 1.146 . S
C991 C148 1.160 . S
C1005 C364 1.182 . S
C1011 C184 1.177 . S
C1025 C220 1.146 . S
C1031 C400 1.160 . S
C1045 C256 1.149 . S
C1051 C292 1.146 . S
C1065 C2 1.602 . S
C1071 C218 1.599 . S
C1085 C254 1.599 . S
C1091 C38 1.602 . S
C1105 C146 1.599 . S
C1111 C74 1.602 . S
C1125 C182 1.602 . S
C1131 C110 1.599 . S
C1145 C290 1.601 . S
C1151 C506 1.603 . S
C1165 C326 1.600 . S
C1171 C542 1.601 . S
C1185 C434 1.599 . S
C1191 C362 1.603 . S
C1205 C398 1.602 . S
C1211 C470 1.602 . S
