# Generated by pormake.
# Topology fny, (5)-cn, num edge types: 1
# Building blocks:
#     Node 0, Type 0, BuildingBlock: XOMCOT_clean_sbu_1, # of connection points: 5
#     Node 1, Type 0, BuildingBlock: XOMCOT_clean_sbu_1, # of connection points: 5
#     Node 2, Type 0, BuildingBlock: XOMCOT_clean_sbu_1, # of connection points: 5
#     Node 3, Type 0, BuildingBlock: XOMCOT_clean_sbu_1, # of connection points: 5
#     Node 4, Type 0, BuildingBlock: XOMCOT_clean_sbu_1, # of connection points: 5
#     Node 5, Type 0, BuildingBlock: XOMCOT_clean_sbu_1, # of connection points: 5
#     Node 6, Type 0, BuildingBlock: XOMCOT_clean_sbu_1, # of connection points: 5
#     Node 7, Type 0, BuildingBlock: XOMCOT_clean_sbu_1, # of connection points: 5
#     Node 8, Type 0, BuildingBlock: XOMCOT_clean_sbu_1, # of connection points: 5
#     Node 9, Type 0, BuildingBlock: XOMCOT_clean_sbu_1, # of connection points: 5
#     Node 10, Type 0, BuildingBlock: XOMCOT_clean_sbu_1, # of connection points: 5
#     Node 11, Type 0, BuildingBlock: XOMCOT_clean_sbu_1, # of connection points: 5
#     Edge 12, Type (0, 0), BuildingBlock: UVAHIK_clean_linker_0, # of connection points: 2
#     Edge 13, Type (0, 0), BuildingBlock: UVAHIK_clean_linker_0, # of connection points: 2
#     Edge 14, Type (0, 0), BuildingBlock: UVAHIK_clean_linker_0, # of connection points: 2
#     Edge 15, Type (0, 0), BuildingBlock: UVAHIK_clean_linker_0, # of connection points: 2
#     Edge 16, Type (0, 0), BuildingBlock: UVAHIK_clean_linker_0, # of connection points: 2
#     Edge 17, Type (0, 0), BuildingBlock: UVAHIK_clean_linker_0, # of connection points: 2
#     Edge 18, Type (0, 0), BuildingBlock: UVAHIK_clean_linker_0, # of connection points: 2
#     Edge 19, Type (0, 0), BuildingBlock: UVAHIK_clean_linker_0, # of connection points: 2
#     Edge 20, Type (0, 0), BuildingBlock: UVAHIK_clean_linker_0, # of connection points: 2
#     Edge 21, Type (0, 0), BuildingBlock: UVAHIK_clean_linker_0, # of connection points: 2
#     Edge 22, Type (0, 0), BuildingBlock: UVAHIK_clean_linker_0, # of connection points: 2
#     Edge 23, Type (0, 0), BuildingBlock: UVAHIK_clean_linker_0, # of connection points: 2
#     Edge 24, Type (0, 0), BuildingBlock: UVAHIK_clean_linker_0, # of connection points: 2
#     Edge 25, Type (0, 0), BuildingBlock: UVAHIK_clean_linker_0, # of connection points: 2
#     Edge 26, Type (0, 0), BuildingBlock: UVAHIK_clean_linker_0, # of connection points: 2
#     Edge 27, Type (0, 0), BuildingBlock: UVAHIK_clean_linker_0, # of connection points: 2
#     Edge 28, Type (0, 0), BuildingBlock: UVAHIK_clean_linker_0, # of connection points: 2
#     Edge 29, Type (0, 0), BuildingBlock: UVAHIK_clean_linker_0, # of connection points: 2
#     Edge 30, Type (0, 0), BuildingBlock: UVAHIK_clean_linker_0, # of connection points: 2
#     Edge 31, Type (0, 0), BuildingBlock: UVAHIK_clean_linker_0, # of connection points: 2
#     Edge 32, Type (0, 0), BuildingBlock: UVAHIK_clean_linker_0, # of connection points: 2
#     Edge 33, Type (0, 0), BuildingBlock: UVAHIK_clean_linker_0, # of connection points: 2
#     Edge 34, Type (0, 0), BuildingBlock: UVAHIK_clean_linker_0, # of connection points: 2
#     Edge 35, Type (0, 0), BuildingBlock: UVAHIK_clean_linker_0, # of connection points: 2
#     Edge 36, Type (0, 0), BuildingBlock: UVAHIK_clean_linker_0, # of connection points: 2
#     Edge 37, Type (0, 0), BuildingBlock: UVAHIK_clean_linker_0, # of connection points: 2
#     Edge 38, Type (0, 0), BuildingBlock: UVAHIK_clean_linker_0, # of connection points: 2
#     Edge 39, Type (0, 0), BuildingBlock: UVAHIK_clean_linker_0, # of connection points: 2
#     Edge 40, Type (0, 0), BuildingBlock: UVAHIK_clean_linker_0, # of connection points: 2
#     Edge 41, Type (0, 0), BuildingBlock: UVAHIK_clean_linker_0, # of connection points: 2
# Relax obj value: 0.243
# Max RMSD: 0.209
# Mean RMSD: 0.209
data_MOF--net-fny--node1-XOMCOT_clean_sbu_1--edge1-UVAHIK_clean_linker_0
_symmetry_space_group_name_H-M    P1
_symmetry_Int_Tables_number       1
_symmetry_cell_setting            triclinic
loop_
_symmetry_equiv_pos_as_xyz
'x, y, z'
_cell_length_a     77.76875
_cell_length_b     77.792016
_cell_length_c     30.702555
_cell_angle_alpha  89.982465
_cell_angle_beta   89.974363
_cell_angle_gamma 119.99827
loop_
_atom_site_label
_atom_site_type_symbol
_atom_site_fract_x
_atom_site_fract_y
_atom_site_fract_z
_atom_type_partial_charge
C0 C 0.30811 0.49425 0.27176 0.0
C1 C 0.29326 0.48698 0.24099 0.0
N2 N 0.30158 0.49403 0.20173 0.0
N3 N 0.32566 0.50591 0.25198 0.0
C4 C 0.32124 0.50529 0.20937 0.0
H5 H 0.30616 0.4913 0.30634 0.0
Co6 Co 0.3504 0.51955 0.27808 0.0
C7 C 0.36155 0.55591 0.22178 0.0
O8 O 0.35648 0.56501 0.25073 0.0
N9 N 0.37507 0.53285 0.30445 0.0
C10 C 0.40506 0.55441 0.32876 0.0
C11 C 0.38879 0.55227 0.30629 0.0
C12 C 0.38316 0.52356 0.32608 0.0
N13 N 0.40154 0.53625 0.34103 0.0
O14 O 0.34111 0.53392 0.31438 0.0
H15 H 0.38708 0.56413 0.29275 0.0
H16 H 0.3755 0.50766 0.33046 0.0
O17 O 0.35968 0.53903 0.23073 0.0
C18 C 0.33637 0.52522 0.35148 0.0
O19 O 0.33915 0.51003 0.35719 0.0
N20 N 0.35881 0.50424 0.2472 0.0
C21 C 0.37682 0.48165 0.22975 0.0
C22 C 0.38485 0.50101 0.21318 0.0
C23 C 0.37564 0.51213 0.22233 0.0
C24 C 0.34993 0.48497 0.26052 0.0
C25 C 0.35864 0.47339 0.25206 0.0
H26 H 0.38307 0.52757 0.2129 0.0
H27 H 0.33699 0.47912 0.28135 0.0
H28 H 0.33228 0.51282 0.18432 0.0
H29 H 0.27754 0.47768 0.24729 0.0
H30 H 0.41814 0.5684 0.33653 0.0
H31 H 0.39874 0.50793 0.19537 0.0
H32 H 0.35197 0.45864 0.266 0.0
C33 C 0.82674 0.303 0.76622 0.0
C34 C 0.81632 0.28504 0.74529 0.0
N35 N 0.80513 0.28688 0.71438 0.0
N36 N 0.82296 0.31644 0.74719 0.0
C37 C 0.8089 0.30574 0.71719 0.0
H38 H 0.83569 0.30564 0.79501 0.0
Co39 Co 0.83216 0.3425 0.76684 0.0
C40 C 0.82554 0.34761 0.67305 0.0
O41 O 0.8356 0.33867 0.66328 0.0
N42 N 0.84096 0.36768 0.78824 0.0
C43 C 0.84931 0.39912 0.79862 0.0
C44 C 0.83612 0.38162 0.77822 0.0
C45 C 0.85661 0.37672 0.81519 0.0
N46 N 0.86219 0.3959 0.82159 0.0
O47 O 0.80703 0.33273 0.79747 0.0
H48 H 0.82422 0.37942 0.75663 0.0
H49 H 0.86434 0.36953 0.82824 0.0
O50 O 0.82218 0.3495 0.71327 0.0
C51 C 0.80919 0.32999 0.83777 0.0
O52 O 0.827 0.33464 0.85148 0.0
N53 N 0.85794 0.35222 0.74142 0.0
C54 C 0.89921 0.37246 0.72842 0.0
C55 C 0.88748 0.3797 0.71059 0.0
C56 C 0.86695 0.36945 0.71761 0.0
C57 C 0.86927 0.34494 0.75831 0.0
C58 C 0.88976 0.35454 0.75144 0.0
H59 H 0.85867 0.37645 0.70708 0.0
H60 H 0.863 0.3328 0.78088 0.0
H61 H 0.80123 0.31144 0.698 0.0
H62 H 0.81648 0.27155 0.75304 0.0
H63 H 0.84938 0.41306 0.7969 0.0
H64 H 0.89422 0.39368 0.69315 0.0
H65 H 0.89833 0.34879 0.76709 0.0
C66 C 0.5213 0.82583 0.2634 0.0
C67 C 0.52825 0.8173 0.2343 0.0
N68 N 0.51497 0.80932 0.20173 0.0
N69 N 0.50387 0.82342 0.24891 0.0
C70 C 0.50032 0.81319 0.21139 0.0
H71 H 0.52841 0.8332 0.29344 0.0
Co72 Co 0.4892 0.83252 0.27783 0.0
C73 C 0.45817 0.83036 0.21543 0.0
O74 O 0.459 0.84584 0.23462 0.0
N75 N 0.47463 0.8417 0.30883 0.0
C76 C 0.44998 0.84318 0.34227 0.0
C77 C 0.45518 0.83115 0.31977 0.0
C78 C 0.48102 0.85981 0.32643 0.0
N79 N 0.46628 0.86116 0.34575 0.0
O80 O 0.4744 0.8069 0.30704 0.0
H81 H 0.44537 0.81573 0.31156 0.0
H82 H 0.49618 0.87182 0.32627 0.0
O83 O 0.46958 0.82382 0.22835 0.0
C84 C 0.48084 0.8083 0.34602 0.0
O85 O 0.49511 0.8257 0.35923 0.0
N86 N 0.50568 0.85801 0.25359 0.0
C87 C 0.5312 0.89845 0.23866 0.0
C88 C 0.51589 0.88698 0.20919 0.0
C89 C 0.50357 0.86657 0.21661 0.0
C90 C 0.52167 0.86859 0.28003 0.0
C91 C 0.53453 0.88881 0.27339 0.0
H92 H 0.49233 0.85805 0.19289 0.0
H93 H 0.52355 0.86156 0.3086 0.0
H94 H 0.48735 0.80873 0.1913 0.0
H95 H 0.54177 0.81663 0.2373 0.0
H96 H 0.43561 0.83895 0.35621 0.0
H97 H 0.51332 0.89378 0.18102 0.0
H98 H 0.54622 0.89703 0.29683 0.0
C99 C 0.69731 0.52399 0.75064 0.0
C100 C 0.7116 0.52951 0.71902 0.0
N101 N 0.70674 0.51366 0.69341 0.0
N102 N 0.68335 0.50483 0.74479 0.0
C103 C 0.68961 0.49887 0.71 0.0
H104 H 0.69728 0.53339 0.7765 0.0
Co105 Co 0.66129 0.49062 0.77991 0.0
C106 C 0.63151 0.45508 0.72699 0.0
O107 O 0.61683 0.45314 0.75157 0.0
N108 N 0.63945 0.4767 0.81695 0.0
C109 C 0.6172 0.45401 0.86184 0.0
C110 C 0.6333 0.45878 0.83552 0.0
C111 C 0.62715 0.48264 0.8334 0.0
N112 N 0.61344 0.46911 0.86033 0.0
O113 O 0.67483 0.47842 0.80918 0.0
H114 H 0.64004 0.44971 0.83016 0.0
H115 H 0.62813 0.49667 0.82641 0.0
O116 O 0.6493 0.46908 0.73481 0.0
C117 C 0.68428 0.48965 0.84136 0.0
O118 O 0.68309 0.50577 0.84693 0.0
N119 N 0.64961 0.50467 0.75524 0.0
C120 C 0.63195 0.52774 0.73915 0.0
C121 C 0.62669 0.51061 0.71447 0.0
C122 C 0.636 0.49943 0.72245 0.0
C123 C 0.65576 0.52199 0.77736 0.0
C124 C 0.64717 0.53372 0.76987 0.0
H125 H 0.63179 0.48651 0.70278 0.0
H126 H 0.66635 0.52594 0.80355 0.0
H127 H 0.68205 0.48384 0.69774 0.0
H128 H 0.72445 0.54413 0.7152 0.0
H129 H 0.60934 0.44081 0.88172 0.0
H130 H 0.61529 0.50576 0.6897 0.0
H131 H 0.65161 0.54673 0.78991 0.0
C132 C 0.17024 0.68818 0.24027 0.0
C133 C 0.17256 0.6997 0.20418 0.0
N134 N 0.18761 0.70088 0.18009 0.0
N135 N 0.18379 0.6822 0.23868 0.0
C136 C 0.19426 0.69036 0.20205 0.0
H137 H 0.15918 0.68408 0.26556 0.0
Co138 Co 0.18706 0.66553 0.27668 0.0
C139 C 0.20922 0.65349 0.21457 0.0
O140 O 0.2251 0.66093 0.23936 0.0
N141 N 0.19067 0.64926 0.3148 0.0
C142 C 0.20217 0.63096 0.34433 0.0
C143 C 0.1929 0.63331 0.30838 0.0
C144 C 0.19743 0.65551 0.35531 0.0
N145 N 0.20508 0.64513 0.3734 0.0
O146 O 0.21451 0.686 0.2881 0.0
H147 H 0.18963 0.625 0.27837 0.0
H148 H 0.19858 0.66876 0.36959 0.0
O149 O 0.19401 0.65441 0.22688 0.0
C150 C 0.21555 0.6997 0.31296 0.0
O151 O 0.19929 0.70058 0.31913 0.0
N152 N 0.16012 0.6464 0.27031 0.0
C153 C 0.11865 0.62303 0.26871 0.0
C154 C 0.12984 0.62756 0.23002 0.0
C155 C 0.15061 0.63924 0.23153 0.0
C156 C 0.14958 0.6419 0.30812 0.0
C157 C 0.12898 0.62999 0.30817 0.0
H158 H 0.15891 0.6434 0.20141 0.0
H159 H 0.15717 0.64811 0.33854 0.0
H160 H 0.20662 0.68866 0.19173 0.0
H161 H 0.16355 0.70624 0.19579 0.0
H162 H 0.20738 0.62048 0.34781 0.0
H163 H 0.12265 0.62287 0.19863 0.0
H164 H 0.12125 0.62663 0.33906 0.0
C165 C 0.5065 0.20034 0.76657 0.0
C166 C 0.49977 0.20732 0.73322 0.0
N167 N 0.50622 0.20387 0.69525 0.0
N168 N 0.51712 0.19261 0.74947 0.0
C169 C 0.51646 0.19476 0.70608 0.0
H170 H 0.50404 0.20107 0.80102 0.0
Co171 Co 0.53006 0.18158 0.77854 0.0
C172 C 0.56663 0.20497 0.72146 0.0
O173 O 0.57593 0.21979 0.74881 0.0
N174 N 0.54279 0.17027 0.80769 0.0
C175 C 0.56391 0.16167 0.83407 0.0
C176 C 0.56216 0.17586 0.81086 0.0
C177 C 0.53314 0.15294 0.82943 0.0
N178 N 0.54556 0.14712 0.84545 0.0
O179 O 0.54489 0.20601 0.81211 0.0
H180 H 0.57423 0.18933 0.79737 0.0
H181 H 0.51718 0.14468 0.83267 0.0
O182 O 0.54966 0.19035 0.73149 0.0
C183 C 0.53821 0.2037 0.85111 0.0
O184 O 0.52377 0.18605 0.86257 0.0
N185 N 0.51434 0.15731 0.74979 0.0
C186 C 0.49085 0.11663 0.73419 0.0
C187 C 0.51034 0.12734 0.71797 0.0
C188 C 0.52191 0.14771 0.72623 0.0
C189 C 0.495 0.14753 0.7628 0.0
C190 C 0.48297 0.1272 0.7553 0.0
H191 H 0.53738 0.15524 0.71702 0.0
H192 H 0.48938 0.15517 0.78249 0.0
H193 H 0.52328 0.18961 0.68272 0.0
H194 H 0.49132 0.21485 0.73673 0.0
H195 H 0.57773 0.16235 0.84259 0.0
H196 H 0.51697 0.11988 0.70101 0.0
H197 H 0.46814 0.11962 0.76892 0.0
C198 C 0.51142 0.69801 0.74738 0.0
C199 C 0.51916 0.71273 0.77848 0.0
N200 N 0.5094 0.70503 0.81612 0.0
N201 N 0.49692 0.68121 0.76553 0.0
C202 C 0.49613 0.6859 0.80742 0.0
H203 H 0.51593 0.69944 0.71363 0.0
Co204 Co 0.4821 0.65742 0.73702 0.0
C205 C 0.45281 0.62874 0.80223 0.0
O206 O 0.45451 0.6145 0.78338 0.0
N207 N 0.46713 0.63343 0.70687 0.0
C208 C 0.44147 0.60628 0.67907 0.0
C209 C 0.44738 0.62423 0.69902 0.0
C210 C 0.47298 0.6212 0.68965 0.0
N211 N 0.45766 0.60453 0.67349 0.0
O212 O 0.46701 0.66813 0.70868 0.0
H213 H 0.43778 0.62991 0.7086 0.0
H214 H 0.48804 0.62404 0.68928 0.0
O215 O 0.46298 0.64659 0.78758 0.0
C216 C 0.47264 0.67237 0.66896 0.0
O217 O 0.48607 0.66828 0.6543 0.0
N218 N 0.499 0.64873 0.76001 0.0
C219 C 0.52512 0.63442 0.77284 0.0
C220 C 0.5107 0.63124 0.80429 0.0
C221 C 0.49811 0.63908 0.79788 0.0
C222 C 0.51435 0.65384 0.73181 0.0
C223 C 0.52745 0.64668 0.73727 0.0
H224 H 0.48769 0.63706 0.82317 0.0
H225 H 0.51552 0.66238 0.703 0.0
H226 H 0.4862 0.67548 0.83139 0.0
H227 H 0.5307 0.72798 0.77352 0.0
H228 H 0.42656 0.59548 0.66902 0.0
H229 H 0.50903 0.62258 0.83325 0.0
H230 H 0.53853 0.64976 0.71244 0.0
C231 C 0.83786 0.52345 0.26626 0.0
C232 C 0.8297 0.5295 0.29824 0.0
N233 N 0.81694 0.51342 0.32134 0.0
N234 N 0.83047 0.5037 0.26969 0.0
C235 C 0.81757 0.49796 0.30322 0.0
H236 H 0.84844 0.53287 0.24195 0.0
Co237 Co 0.83694 0.4885 0.23442 0.0
C238 C 0.8323 0.45421 0.28939 0.0
O239 O 0.84544 0.45275 0.26523 0.0
N240 N 0.84343 0.47334 0.19731 0.0
C241 C 0.84108 0.44924 0.15412 0.0
C242 C 0.83073 0.45534 0.1802 0.0
C243 C 0.8613 0.47783 0.18068 0.0
N244 N 0.86032 0.46352 0.15458 0.0
O245 O 0.81064 0.47642 0.20809 0.0
H246 H 0.81493 0.44707 0.18642 0.0
H247 H 0.87502 0.49119 0.18739 0.0
O248 O 0.8278 0.46764 0.28079 0.0
C249 C 0.81061 0.48771 0.1778 0.0
O250 O 0.82704 0.50461 0.1708 0.0
N251 N 0.86314 0.50233 0.25656 0.0
C252 C 0.90409 0.52356 0.26946 0.0
C253 C 0.89167 0.50894 0.29937 0.0
C254 C 0.87106 0.49853 0.29255 0.0
C255 C 0.87485 0.51815 0.23052 0.0
C256 C 0.89539 0.52867 0.23575 0.0
H257 H 0.8618 0.48732 0.31576 0.0
H258 H 0.86832 0.52144 0.20295 0.0
H259 H 0.80894 0.4828 0.31453 0.0
H260 H 0.8327 0.5445 0.30372 0.0
H261 H 0.83487 0.43566 0.13534 0.0
H262 H 0.89788 0.50501 0.32659 0.0
H263 H 0.90446 0.54021 0.21261 0.0
C264 C 0.31016 0.83699 0.76314 0.0
C265 C 0.29276 0.82698 0.7861 0.0
N266 N 0.29246 0.81147 0.80623 0.0
N267 N 0.32115 0.82815 0.76923 0.0
C268 C 0.30953 0.81218 0.79434 0.0
H269 H 0.31411 0.84974 0.74292 0.0
Co270 Co 0.34604 0.83512 0.7447 0.0
C271 C 0.35116 0.82752 0.83808 0.0
O272 O 0.34212 0.83734 0.84904 0.0
N273 N 0.37006 0.84209 0.71935 0.0
C274 C 0.40248 0.85503 0.7092 0.0
C275 C 0.38662 0.84295 0.73557 0.0
C276 C 0.37601 0.8532 0.68302 0.0
N277 N 0.39566 0.86149 0.67646 0.0
O278 O 0.33395 0.80926 0.7162 0.0
H279 H 0.38756 0.83671 0.76628 0.0
H280 H 0.36641 0.85667 0.66403 0.0
O281 O 0.35359 0.82522 0.79753 0.0
C282 C 0.32531 0.81058 0.68189 0.0
O283 O 0.32628 0.82764 0.67392 0.0
N284 N 0.35782 0.86146 0.76631 0.0
C285 C 0.37853 0.90296 0.77437 0.0
C286 C 0.38331 0.89117 0.80073 0.0
C287 C 0.37305 0.87048 0.79562 0.0
C288 C 0.35357 0.87284 0.73961 0.0
C289 C 0.36334 0.89343 0.74363 0.0
H290 H 0.37841 0.8621 0.81317 0.0
H291 H 0.34354 0.86603 0.71257 0.0
H292 H 0.31386 0.80162 0.8049 0.0
H293 H 0.28123 0.83089 0.78774 0.0
H294 H 0.41789 0.85941 0.71463 0.0
H295 H 0.39533 0.89791 0.82407 0.0
H296 H 0.35982 0.90186 0.72089 0.0
C297 C 0.48549 0.30865 0.25814 0.0
C298 C 0.47889 0.29114 0.28036 0.0
N299 N 0.49456 0.29161 0.30001 0.0
N300 N 0.50522 0.32047 0.26464 0.0
C301 C 0.51035 0.30923 0.28889 0.0
H302 H 0.47613 0.31219 0.23882 0.0
Co303 Co 0.52286 0.34627 0.24435 0.0
C304 C 0.53265 0.34962 0.33963 0.0
O305 O 0.51354 0.33937 0.34814 0.0
N306 N 0.54019 0.37144 0.22352 0.0
C307 C 0.56417 0.40281 0.21646 0.0
C308 C 0.55877 0.38487 0.23613 0.0
C309 C 0.53484 0.38125 0.19557 0.0
N310 N 0.54896 0.40042 0.19124 0.0
O311 O 0.53861 0.33602 0.21737 0.0
H312 H 0.56758 0.38205 0.25912 0.0
H313 H 0.52039 0.37466 0.1803 0.0
O314 O 0.53846 0.3531 0.2998 0.0
C315 C 0.53468 0.33335 0.1766 0.0
O316 O 0.52225 0.33849 0.16046 0.0
N317 N 0.50651 0.35622 0.26515 0.0
C318 C 0.484 0.37518 0.27294 0.0
C319 C 0.50054 0.38056 0.29981 0.0
C320 C 0.51182 0.37116 0.29488 0.0
C321 C 0.4908 0.3513 0.23816 0.0
C322 C 0.47914 0.36019 0.24205 0.0
H323 H 0.52555 0.37704 0.31273 0.0
H324 H 0.48835 0.3417 0.21065 0.0
H325 H 0.52533 0.31431 0.30007 0.0
H326 H 0.46368 0.27912 0.28247 0.0
H327 H 0.5781 0.41651 0.22055 0.0
H328 H 0.5052 0.39244 0.32331 0.0
H329 H 0.46724 0.35627 0.21893 0.0
C330 C 0.17216 0.48191 0.76943 0.0
C331 C 0.17878 0.47322 0.79913 0.0
N332 N 0.19431 0.4878 0.8207 0.0
N333 N 0.18333 0.50182 0.77296 0.0
C334 C 0.19671 0.50492 0.80419 0.0
H335 H 0.1601 0.47422 0.7466 0.0
Co336 Co 0.18216 0.52147 0.74148 0.0
C337 C 0.1816 0.54916 0.80743 0.0
O338 O 0.16794 0.54969 0.7832 0.0
N339 N 0.18177 0.54179 0.70954 0.0
C340 C 0.17646 0.56208 0.66789 0.0
C341 C 0.16877 0.54277 0.68187 0.0
C342 C 0.19721 0.56057 0.7112 0.0
N343 N 0.19437 0.57319 0.68657 0.0
O344 O 0.20992 0.53261 0.72504 0.0
H345 H 0.15471 0.53048 0.67174 0.0
H346 H 0.21029 0.56499 0.73092 0.0
O347 O 0.1889 0.53829 0.79535 0.0
C348 C 0.21179 0.52282 0.69375 0.0
O349 O 0.19603 0.50644 0.6807 0.0
N350 N 0.15458 0.50877 0.75257 0.0
C351 C 0.11322 0.48532 0.75683 0.0
C352 C 0.12428 0.49514 0.79402 0.0
C353 C 0.14508 0.50633 0.79154 0.0
C354 C 0.14406 0.49843 0.71695 0.0
C355 C 0.12342 0.48687 0.71812 0.0
H356 H 0.1534 0.51251 0.82111 0.0
H357 H 0.15186 0.4991 0.68725 0.0
H358 H 0.20797 0.51954 0.81479 0.0
H359 H 0.17286 0.45747 0.80396 0.0
H360 H 0.1697 0.56736 0.64462 0.0
H361 H 0.11698 0.49367 0.82497 0.0
H362 H 0.11552 0.47927 0.68883 0.0
C363 C 0.70424 0.19125 0.25154 0.0
C364 C 0.71783 0.19672 0.28492 0.0
N365 N 0.70845 0.19571 0.32256 0.0
N366 N 0.68649 0.18687 0.26827 0.0
C367 C 0.68948 0.18957 0.31154 0.0
H368 H 0.70709 0.19051 0.2173 0.0
Co369 Co 0.66314 0.1782 0.23794 0.0
C370 C 0.63447 0.18072 0.30067 0.0
O371 O 0.61968 0.16549 0.28109 0.0
N372 N 0.63958 0.16942 0.20635 0.0
C373 C 0.61308 0.16831 0.17584 0.0
C374 C 0.63096 0.18029 0.19609 0.0
C375 C 0.6271 0.15116 0.19024 0.0
N376 N 0.61081 0.15006 0.17253 0.0
O377 O 0.67456 0.2039 0.20866 0.0
H378 H 0.63695 0.19577 0.2043 0.0
H379 H 0.62952 0.13868 0.19185 0.0
O380 O 0.6523 0.18718 0.28701 0.0
C381 C 0.67918 0.20211 0.1695 0.0
O382 O 0.67532 0.18444 0.15645 0.0
N383 N 0.65366 0.15261 0.26176 0.0
C384 C 0.63837 0.11197 0.27424 0.0
C385 C 0.63391 0.12302 0.30363 0.0
C386 C 0.64216 0.14352 0.29748 0.0
C387 C 0.6597 0.14245 0.23567 0.0
C388 C 0.65216 0.12212 0.24108 0.0
H389 H 0.63894 0.15169 0.32116 0.0
H390 H 0.66941 0.14998 0.2084 0.0
H391 H 0.67789 0.18671 0.33478 0.0
H392 H 0.73342 0.20142 0.28167 0.0
H393 H 0.60267 0.17263 0.16408 0.0
H394 H 0.62391 0.11583 0.33072 0.0
H395 H 0.65619 0.11424 0.21788 0.0
C396 C 0.37669 0.58551 0.17103 0.0
C397 C 0.3698 0.56524 0.17861 0.0
C398 C 0.38475 0.59418 0.13041 0.0
C399 C 0.38436 0.58154 0.01425 0.0
H400 H 0.43486 0.63049 1.00587 0.0
C401 C 0.42915 0.60378 0.85536 0.0
C402 C 0.44115 0.62385 0.84358 0.0
C403 C 0.41942 0.59839 0.89549 0.0
C404 C 0.42057 0.61701 1.00747 0.0
H405 H 0.36588 0.5382 0.14892 0.0
H406 H 0.3795 0.55316 0.07834 0.0
H407 H 0.41997 0.61779 0.07746 0.0
H408 H 0.45183 0.65405 0.86506 0.0
H409 H 0.43446 0.64459 0.9355 0.0
H410 H 0.3847 0.58065 0.9447 0.0
C411 C 0.37875 0.56241 0.10376 0.0
C412 C 0.41206 0.60969 0.04862 0.0
C413 C 0.37101 0.55384 0.14442 0.0
C414 C 0.4427 0.63845 0.87294 0.0
C415 C 0.43286 0.63301 0.91351 0.0
C416 C 0.39271 0.58893 0.97327 0.0
C417 C 0.38576 0.58269 0.09615 0.0
C418 C 0.39407 0.5916 0.05254 0.0
C419 C 0.42116 0.61284 0.92546 0.0
C420 C 0.41121 0.6065 0.96917 0.0
H421 H 0.37605 0.59476 0.19661 0.0
H422 H 0.38993 0.60981 0.12561 0.0
H423 H 0.37029 0.5678 0.01597 0.0
H424 H 0.42753 0.59203 0.83383 0.0
H425 H 0.41097 0.58275 0.90344 0.0
C426 C 0.81608 0.37239 0.64455 0.0
C427 C 0.82005 0.35685 0.6371 0.0
C428 C 0.81335 0.38242 0.60937 0.0
C429 C 0.80288 0.37807 0.48959 0.0
H430 H 0.83105 0.4356 0.49073 0.0
C431 C 0.82582 0.42423 0.33215 0.0
C432 C 0.82526 0.442 0.32978 0.0
C433 C 0.82159 0.41353 0.37108 0.0
C434 C 0.82279 0.41953 0.49008 0.0
H435 H 0.82353 0.3393 0.5867 0.0
H436 H 0.81879 0.35652 0.52617 0.0
H437 H 0.83005 0.41739 0.55661 0.0
H438 H 0.81948 0.46229 0.36674 0.0
H439 H 0.81216 0.44356 0.43534 0.0
H440 H 0.79612 0.38015 0.42285 0.0
C441 C 0.81765 0.36102 0.55891 0.0
C442 C 0.82221 0.40906 0.52794 0.0
C443 C 0.82051 0.35118 0.59382 0.0
C444 C 0.81986 0.44857 0.36733 0.0
C445 C 0.81586 0.43793 0.40672 0.0
C446 C 0.8035 0.3885 0.45187 0.0
C447 C 0.81429 0.37697 0.56599 0.0
C448 C 0.81269 0.38817 0.52786 0.0
C449 C 0.81685 0.42034 0.40916 0.0
C450 C 0.8139 0.40938 0.45117 0.0
H451 H 0.81572 0.37723 0.67741 0.0
H452 H 0.81065 0.39452 0.61615 0.0
H453 H 0.79498 0.362 0.48846 0.0
H454 H 0.82995 0.41873 0.30393 0.0
H455 H 0.82277 0.40024 0.37166 0.0
C456 C 0.4279 0.82355 0.1741 0.0
C457 C 0.44542 0.82253 0.17607 0.0
C458 C 0.41697 0.81929 0.13556 0.0
C459 C 0.42248 0.8204 0.0167 0.0
H460 H 0.36503 0.79453 0.01976 0.0
C461 C 0.37522 0.81666 0.86459 0.0
C462 C 0.36038 0.82154 0.87323 0.0
C463 C 0.38512 0.81321 0.89895 0.0
C464 C 0.38107 0.80186 0.01822 0.0
H465 H 0.46504 0.81585 0.13901 0.0
H466 H 0.44589 0.80847 0.07087 0.0
H467 H 0.38308 0.79444 0.08448 0.0
H468 H 0.34389 0.82579 0.92503 0.0
H469 H 0.36086 0.81977 0.98412 0.0
H470 H 0.42043 0.82837 0.95069 0.0
C471 C 0.44061 0.81252 0.09956 0.0
C472 C 0.39145 0.80177 0.05541 0.0
C473 C 0.45146 0.81652 0.13866 0.0
C474 C 0.35524 0.82213 0.91692 0.0
C475 C 0.36494 0.81853 0.95102 0.0
C476 C 0.41207 0.82052 0.97935 0.0
C477 C 0.42332 0.81409 0.09744 0.0
C478 C 0.41233 0.81153 0.05565 0.0
C479 C 0.3802 0.81425 0.94272 0.0
C480 C 0.39123 0.81175 0.98002 0.0
H481 H 0.42288 0.82823 0.20227 0.0
H482 H 0.40394 0.82094 0.13523 0.0
H483 H 0.43855 0.82817 0.01571 0.0
H484 H 0.37956 0.81602 0.83141 0.0
H485 H 0.39668 0.80979 0.89126 0.0
C486 C 0.54032 0.35298 0.41955 0.0
C487 C 0.54682 0.35903 0.37657 0.0
C488 C 0.55263 0.36275 0.4551 0.0
C489 C 0.59568 0.41088 0.48812 0.0
H490 H 0.59309 0.38137 0.59208 0.0
C491 C 0.63794 0.44992 0.64837 0.0
C492 C 0.62636 0.44294 0.68645 0.0
C493 C 0.63113 0.43941 0.6089 0.0
C494 C 0.59396 0.3899 0.56342 0.0
H495 H 0.57178 0.38004 0.3376 0.0
H496 H 0.59338 0.39714 0.39981 0.0
H497 H 0.57598 0.3636 0.52625 0.0
H498 H 0.59897 0.41907 0.71307 0.0
H499 H 0.58733 0.40084 0.64519 0.0
H500 H 0.61338 0.43721 0.52583 0.0
C501 C 0.5786 0.38484 0.40591 0.0
C502 C 0.5841 0.37967 0.52555 0.0
C503 C 0.56626 0.37491 0.37015 0.0
C504 C 0.6083 0.42488 0.68446 0.0
C505 C 0.60164 0.41434 0.6454 0.0
C506 C 0.60559 0.42114 0.52612 0.0
C507 C 0.57189 0.37898 0.44896 0.0
C508 C 0.58438 0.38998 0.48761 0.0
C509 C 0.61275 0.42155 0.6068 0.0
C510 C 0.60447 0.41079 0.56466 0.0
H511 H 0.52547 0.34083 0.42594 0.0
H512 H 0.54675 0.35791 0.48758 0.0
H513 H 0.59617 0.41937 0.45973 0.0
H514 H 0.65181 0.46388 0.64861 0.0
H515 H 0.64016 0.44536 0.57993 0.0
C516 C 0.19431 0.64039 0.14094 0.0
C517 C 0.20859 0.64349 0.17273 0.0
C518 C 0.19351 0.6309 0.10161 0.0
C519 C 0.20687 0.59638 0.04951 0.0
H520 H 0.19869 0.61786 0.9427 0.0
C521 C 0.20141 0.56055 0.87794 0.0
C522 C 0.18713 0.56032 0.84943 0.0
C523 C 0.206 0.57123 0.91741 0.0
C524 C 0.20076 0.61147 0.97218 0.0
H525 H 0.2332 0.63887 0.18794 0.0
H526 H 0.23164 0.62204 0.11929 0.0
H527 H 0.20253 0.63513 0.01116 0.0
H528 H 0.16634 0.57101 0.84082 0.0
H529 H 0.17393 0.58893 0.90872 0.0
H530 H 0.20456 0.57239 0.01049 0.0
C531 C 0.22107 0.62701 0.12492 0.0
C532 C 0.20301 0.62145 0.01153 0.0
C533 C 0.22204 0.63677 0.16415 0.0
C534 C 0.17755 0.57089 0.86151 0.0
C535 C 0.18205 0.5814 0.90062 0.0
C536 C 0.20443 0.58624 0.01002 0.0
C537 C 0.20684 0.62404 0.09304 0.0
C538 C 0.20578 0.61391 0.05086 0.0
C539 C 0.19642 0.58191 0.92915 0.0
C540 C 0.20096 0.59346 0.97085 0.0
H541 H 0.1838 0.64546 0.14625 0.0
H542 H 0.18224 0.62871 0.07803 0.0
H543 H 0.20892 0.59011 0.07922 0.0
H544 H 0.20905 0.55255 0.86977 0.0
H545 H 0.21722 0.5713 0.93842 0.0
C546 C 0.64511 0.20053 0.37123 0.0
C547 C 0.63011 0.18781 0.34217 0.0
C548 C 0.64018 0.20536 0.41188 0.0
C549 C 0.59715 0.20329 0.47275 0.0
H550 H 0.62653 0.20485 0.57603 0.0
C551 C 0.56381 0.19197 0.64528 0.0
C552 C 0.57558 0.20511 0.67837 0.0
C553 C 0.57194 0.19212 0.60447 0.0
C554 C 0.61829 0.20465 0.54742 0.0
H555 H 0.59817 0.17061 0.33316 0.0
H556 H 0.58975 0.17855 0.40302 0.0
H557 H 0.6383 0.2016 0.50415 0.0
H558 H 0.60533 0.22853 0.69435 0.0
H559 H 0.61964 0.22846 0.62311 0.0
H560 H 0.57676 0.20556 0.51606 0.0
C561 C 0.60532 0.18521 0.3947 0.0
C562 C 0.62508 0.20287 0.5061 0.0
C563 C 0.6102 0.18048 0.35442 0.0
C564 C 0.59581 0.21825 0.66962 0.0
C565 C 0.60404 0.21816 0.62889 0.0
C566 C 0.59027 0.2048 0.51391 0.0
C567 C 0.62016 0.19763 0.42431 0.0
C568 C 0.61437 0.20175 0.46814 0.0
C569 C 0.59215 0.20519 0.59568 0.0
C570 C 0.60053 0.20516 0.55185 0.0
H571 H 0.6606 0.20642 0.36299 0.0
H572 H 0.65207 0.21511 0.43355 0.0
H573 H 0.58874 0.20308 0.44446 0.0
H574 H 0.5482 0.18161 0.65068 0.0
H575 H 0.5624 0.18178 0.57984 0.0
C576 C 0.55758 0.43514 0.17757 0.0
C577 C 0.54762 0.41507 0.1653 0.0
C578 C 0.55748 0.44946 0.15018 0.0
C579 C 0.57216 0.47408 0.06902 0.0
H580 H 0.5355 0.45729 0.97187 0.0
C581 C 0.58128 0.45475 0.898 0.0
C582 C 0.59931 0.47142 0.88611 0.0
C583 C 0.56909 0.45645 0.92893 0.0
C584 C 0.54575 0.46267 0.99903 0.0
H585 H 0.52876 0.39406 0.11634 0.0
H586 H 0.52919 0.4187 0.06808 0.0
H587 H 0.52326 0.44394 0.04437 0.0
H588 H 0.6179 0.50327 0.89397 0.0
H589 H 0.5968 0.50613 0.94897 0.0
H590 H 0.59485 0.49167 0.02341 0.0
C591 C 0.53661 0.42365 0.09918 0.0
C592 C 0.53881 0.45492 0.04051 0.0
C593 C 0.53655 0.40942 0.12668 0.0
C594 C 0.60408 0.49015 0.90267 0.0
C595 C 0.59199 0.49182 0.934 0.0
C596 C 0.57901 0.48209 0.02782 0.0
C597 C 0.54769 0.44396 0.1097 0.0
C598 C 0.55236 0.45888 0.0747 0.0
C599 C 0.57488 0.47482 0.94895 0.0
C600 C 0.56621 0.47484 0.99179 0.0
H601 H 0.56577 0.4398 0.20785 0.0
H602 H 0.56588 0.46491 0.15971 0.0
H603 H 0.58306 0.47786 0.09455 0.0
H604 H 0.57711 0.44025 0.885 0.0
H605 H 0.55611 0.443 0.94005 0.0
C606 C 0.23591 0.65205 0.4107 0.0
C607 C 0.21745 0.65113 0.41128 0.0
C608 C 0.2479 0.65803 0.44781 0.0
C609 C 0.24733 0.67165 0.56594 0.0
H610 H 0.25766 0.62825 0.58067 0.0
C611 C 0.22902 0.60044 0.67895 0.0
C612 C 0.20852 0.59371 0.67826 0.0
C613 C 0.24256 0.61919 0.66274 0.0
C614 C 0.25555 0.64095 0.57776 0.0
H615 H 0.19763 0.65716 0.44899 0.0
H616 H 0.21745 0.66603 0.51466 0.0
H617 H 0.25968 0.64159 0.50947 0.0
H618 H 0.18641 0.60223 0.66597 0.0
H619 H 0.2098 0.63464 0.63649 0.0
H620 H 0.24042 0.66874 0.63405 0.0
C621 C 0.22335 0.66291 0.48572 0.0
C622 C 0.2567 0.64872 0.53634 0.0
C623 C 0.21167 0.65739 0.44837 0.0
C624 C 0.20206 0.60687 0.66574 0.0
C625 C 0.21558 0.62563 0.64972 0.0
C626 C 0.24575 0.66354 0.60737 0.0
C627 C 0.24133 0.6626 0.48657 0.0
C628 C 0.25033 0.66254 0.52934 0.0
C629 C 0.23581 0.63148 0.64549 0.0
C630 C 0.24775 0.64669 0.61246 0.0
H631 H 0.241 0.64809 0.38159 0.0
H632 H 0.26189 0.65817 0.44666 0.0
H633 H 0.24358 0.68323 0.56202 0.0
H634 H 0.2345 0.59068 0.68865 0.0
H635 H 0.25805 0.62334 0.66002 0.0
C636 C 0.57514 0.12693 0.1633 0.0
C637 C 0.59483 0.13317 0.15188 0.0
C638 C 0.55955 0.1124 0.13866 0.0
C639 C 0.5502 0.08404 0.03271 0.0
H640 H 0.51963 0.11006 0.01192 0.0
C641 C 0.55445 0.12413 0.88136 0.0
C642 C 0.54035 0.1299 0.87217 0.0
C643 C 0.55087 0.11023 0.91393 0.0
C644 C 0.52744 0.10197 0.01724 0.0
H645 H 0.61397 0.12826 0.10915 0.0
H646 H 0.58724 0.1043 0.06372 0.0
H647 H 0.53299 0.11169 0.08268 0.0
H648 H 0.51007 0.12302 0.88578 0.0
H649 H 0.50395 0.09883 0.94198 0.0
H650 H 0.54637 0.0765 0.96489 0.0
C651 C 0.58331 0.10967 0.09237 0.0
C652 C 0.53524 0.1029 0.05848 0.0
C653 C 0.59879 0.12366 0.11797 0.0
C654 C 0.52159 0.11947 0.89235 0.0
C655 C 0.51796 0.10544 0.92467 0.0
C656 C 0.54265 0.08342 0.99105 0.0
C657 C 0.56349 0.10464 0.10089 0.0
C658 C 0.54836 0.09565 0.0656 0.0
C659 C 0.53307 0.10172 0.93788 0.0
C660 C 0.53275 0.09398 0.9822 0.0
H661 H 0.57192 0.13383 0.19029 0.0
H662 H 0.54452 0.10836 0.1475 0.0
H663 H 0.55928 0.07726 0.03763 0.0
H664 H 0.56875 0.13116 0.86533 0.0
H665 H 0.56288 0.10771 0.92307 0.0
C666 C 0.47267 0.59286 0.6195 0.0
C667 C 0.45868 0.58867 0.65243 0.0
C668 C 0.47179 0.57756 0.59424 0.0
C669 C 0.432 0.52903 0.55817 0.0
H670 H 0.47194 0.54036 0.47 0.0
C671 C 0.40558 0.51296 0.38951 0.0
C672 C 0.41366 0.53158 0.3688 0.0
C673 C 0.41569 0.51002 0.42361 0.0
C674 C 0.46066 0.53658 0.4947 0.0
H675 H 0.43459 0.56545 0.68922 0.0
H676 H 0.43361 0.53838 0.64687 0.0
H677 H 0.48214 0.554 0.54304 0.0
H678 H 0.44038 0.56038 0.36269 0.0
H679 H 0.4574 0.55568 0.42332 0.0
H680 H 0.41052 0.51258 0.50973 0.0
C681 C 0.44463 0.55348 0.63864 0.0
C682 C 0.46645 0.54456 0.53649 0.0
C683 C 0.44513 0.56889 0.66297 0.0
C684 C 0.43322 0.54618 0.37907 0.0
C685 C 0.44325 0.54328 0.41339 0.0
C686 C 0.42626 0.52079 0.51685 0.0
C687 C 0.45709 0.55766 0.60209 0.0
C688 C 0.45208 0.54254 0.56721 0.0
C689 C 0.43396 0.52568 0.438 0.0
C690 C 0.44044 0.52609 0.48358 0.0
H691 H 0.48334 0.60809 0.61125 0.0
H692 H 0.48161 0.58166 0.56642 0.0
H693 H 0.42032 0.52669 0.58067 0.0
H694 H 0.39083 0.50101 0.38206 0.0
H695 H 0.40835 0.49613 0.44137 0.0
C696 C 0.89165 0.48281 0.1139 0.0
C697 C 0.87632 0.46445 0.12931 0.0
C698 C 0.90556 0.48354 0.08416 0.0
C699 C 0.91059 0.47397 0.99123 0.0
H700 H 0.92674 0.43452 0.97913 0.0
C701 C 0.88254 0.40289 0.88729 0.0
C702 C 0.87816 0.40962 0.84883 0.0
C703 C 0.89614 0.41633 0.91689 0.0
C704 C 0.92252 0.4458 0.98181 0.0
H705 H 0.86483 0.43274 0.12953 0.0
H706 H 0.88886 0.43389 0.07692 0.0
H707 H 0.92509 0.44664 0.05139 0.0
H708 H 0.88626 0.43532 0.80831 0.0
H709 H 0.91055 0.45903 0.8597 0.0
H710 H 0.90524 0.47132 0.9232 0.0
C711 C 0.89025 0.44775 0.08801 0.0
C712 C 0.92177 0.45285 0.02319 0.0
C713 C 0.87623 0.44701 0.11745 0.0
C714 C 0.889 0.42989 0.83848 0.0
C715 C 0.90295 0.4434 0.86783 0.0
C716 C 0.91087 0.46659 0.95011 0.0
C717 C 0.90446 0.46594 0.06955 0.0
C718 C 0.91413 0.46568 0.02837 0.0
C719 C 0.90588 0.43689 0.90855 0.0
C720 C 0.9149 0.45095 0.94558 0.0
H721 H 0.89213 0.49654 0.1224 0.0
H722 H 0.9163 0.49772 0.07025 0.0
H723 H 0.90485 0.48406 0.99418 0.0
H724 H 0.87441 0.38733 0.896 0.0
H725 H 0.89758 0.41053 0.94786 0.0
C726 C 0.47751 0.88039 0.41265 0.0
C727 C 0.4685 0.87726 0.37193 0.0
C728 C 0.47746 0.89429 0.44102 0.0
C729 C 0.44467 0.91479 0.46146 0.0
H730 H 0.47031 0.91989 0.57244 0.0
C731 C 0.42538 0.89252 0.6534 0.0
C732 C 0.40693 0.87586 0.64368 0.0
C733 C 0.43648 0.9061 0.62067 0.0
C734 C 0.46305 0.91923 0.54194 0.0
H735 H 0.45442 0.88726 0.32596 0.0
H736 H 0.45502 0.9125 0.37465 0.0
H737 H 0.48815 0.92288 0.50609 0.0
H738 H 0.38508 0.86067 0.59341 0.0
H739 H 0.40457 0.88317 0.53596 0.0
H740 H 0.41988 0.91198 0.49725 0.0
C741 C 0.46139 0.90372 0.38595 0.0
C742 C 0.47326 0.92057 0.50355 0.0
C743 C 0.46103 0.88936 0.35796 0.0
C744 C 0.39932 0.87341 0.60147 0.0
C745 C 0.41049 0.88664 0.56868 0.0
C746 C 0.43486 0.91448 0.49972 0.0
C747 C 0.46859 0.90562 0.42889 0.0
C748 C 0.46311 0.91551 0.46348 0.0
C749 C 0.42949 0.90295 0.57743 0.0
C750 C 0.44291 0.91392 0.54034 0.0
H751 H 0.48348 0.87116 0.42342 0.0
H752 H 0.48297 0.89482 0.47359 0.0
H753 H 0.43649 0.91184 0.43131 0.0
H754 H 0.43123 0.89495 0.68622 0.0
H755 H 0.45078 0.91864 0.62905 0.0
C756 C 0.22581 0.50059 0.86058 0.0
C757 C 0.20586 0.48589 0.85491 0.0
C758 C 0.23662 0.49986 0.89597 0.0
C759 C 0.23796 0.46764 0.98251 0.0
H760 H 0.26865 0.51767 0.04326 0.0
C761 C 0.27259 0.47487 0.15368 0.0
C762 C 0.29155 0.49137 0.16073 0.0
C763 C 0.26244 0.47296 0.11479 0.0
C764 C 0.26038 0.50364 0.02637 0.0
H765 H 0.18181 0.45845 0.88083 0.0
H766 H 0.20075 0.45719 0.94315 0.0
H767 H 0.25046 0.51635 0.97788 0.0
H768 H 0.31483 0.51865 0.1319 0.0
H769 H 0.29739 0.51507 0.06404 0.0
H770 H 0.24788 0.45494 0.03154 0.0
C771 C 0.20803 0.46921 0.91994 0.0
C772 C 0.24995 0.50288 0.98889 0.0
C773 C 0.19719 0.46993 0.88433 0.0
C774 C 0.30034 0.50565 0.12757 0.0
C775 C 0.29024 0.50373 0.08879 0.0
C776 C 0.24845 0.4684 0.02015 0.0
C777 C 0.22773 0.48442 0.92659 0.0
C778 C 0.23872 0.48491 0.9664 0.0
C779 C 0.27106 0.48754 0.08223 0.0
C780 C 0.25985 0.48645 0.04232 0.0
H781 H 0.23303 0.5128 0.83783 0.0
H782 H 0.25192 0.51155 0.89966 0.0
H783 H 0.22951 0.45361 0.96567 0.0
H784 H 0.26551 0.46348 0.17829 0.0
H785 H 0.24764 0.46037 0.11074 0.0
C786 C 0.77581 0.27208 0.66639 0.0
C787 C 0.79283 0.27236 0.6826 0.0
C788 C 0.76518 0.25959 0.63189 0.0
C789 C 0.77326 0.23742 0.53614 0.0
H790 H 0.71582 0.20889 0.52803 0.0
C791 C 0.73301 0.19848 0.37726 0.0
C792 C 0.7169 0.20089 0.3655 0.0
C793 C 0.74135 0.20388 0.41883 0.0
C794 C 0.73188 0.21688 0.52968 0.0
H795 H 0.8117 0.25936 0.67658 0.0
H796 H 0.79315 0.23756 0.61589 0.0
H797 H 0.73177 0.22407 0.59702 0.0
H798 H 0.69702 0.21103 0.38779 0.0
H799 H 0.71173 0.22082 0.45967 0.0
H800 H 0.77352 0.23115 0.46849 0.0
C801 C 0.78806 0.247 0.62998 0.0
C802 C 0.74098 0.22547 0.56922 0.0
C803 C 0.79856 0.25933 0.66485 0.0
C804 C 0.70921 0.20869 0.39614 0.0
C805 C 0.71762 0.21423 0.43747 0.0
C806 C 0.76418 0.229 0.49648 0.0
C807 C 0.77149 0.24729 0.61269 0.0
C808 C 0.76175 0.23613 0.57258 0.0
C809 C 0.73384 0.21197 0.44932 0.0
C810 C 0.74339 0.21898 0.49255 0.0
H811 H 0.77097 0.28182 0.67982 0.0
H812 H 0.75254 0.26022 0.619 0.0
H813 H 0.78933 0.24577 0.5377 0.0
H814 H 0.73906 0.19227 0.35445 0.0
H815 H 0.75367 0.20171 0.42708 0.0
C816 C 0.49859 0.78299 0.14669 0.0
C817 C 0.51601 0.79858 0.16472 0.0
C818 C 0.49955 0.77253 0.11079 0.0
C819 C 0.52991 0.77715 0.01652 0.0
H820 H 0.49875 0.71966 0.01466 0.0
C821 C 0.53029 0.73124 0.86881 0.0
C822 C 0.51178 0.7152 0.8567 0.0
C823 C 0.53242 0.74116 0.90815 0.0
C824 C 0.50741 0.73572 0.01451 0.0
H825 H 0.54806 0.81561 0.15921 0.0
H826 H 0.54975 0.79736 0.09594 0.0
H827 H 0.49931 0.73759 0.08024 0.0
H828 H 0.48092 0.69721 0.87578 0.0
H829 H 0.48449 0.71461 0.94376 0.0
H830 H 0.53749 0.77539 0.95035 0.0
C831 C 0.53539 0.79323 0.10983 0.0
C832 C 0.50776 0.74595 0.05209 0.0
C833 C 0.53443 0.80355 0.14611 0.0
C834 C 0.49545 0.70928 0.8846 0.0
C835 C 0.49753 0.71924 0.92366 0.0
C836 C 0.52942 0.76693 0.97873 0.0
C837 C 0.51795 0.7776 0.09195 0.0
C838 C 0.51878 0.76676 0.05322 0.0
C839 C 0.51603 0.73529 0.93596 0.0
C840 C 0.51791 0.7461 0.97709 0.0
H841 H 0.48422 0.77874 0.16066 0.0
H842 H 0.48587 0.76065 0.09734 0.0
H843 H 0.53841 0.79323 0.01651 0.0
H844 H 0.54315 0.73597 0.84812 0.0
H845 H 0.54692 0.75332 0.91692 0.0
C846 C 0.70821 0.49778 0.62473 0.0
C847 C 0.71762 0.51273 0.65632 0.0
C848 C 0.71874 0.49703 0.58865 0.0
C849 C 0.77 0.51566 0.54833 0.0
H850 H 0.74443 0.50215 0.43517 0.0
C851 C 0.81296 0.5289 0.3876 0.0
C852 C 0.80542 0.5129 0.35838 0.0
C853 C 0.802 0.52825 0.42416 0.0
C854 C 0.75167 0.50578 0.46667 0.0
H855 H 0.74565 0.53849 0.67464 0.0
H856 H 0.76369 0.53765 0.61109 0.0
H857 H 0.72573 0.50223 0.49892 0.0
H858 H 0.78042 0.48385 0.34381 0.0
H859 H 0.7611 0.48276 0.40776 0.0
H860 H 0.79609 0.51971 0.51564 0.0
C861 C 0.74827 0.52624 0.61463 0.0
C862 C 0.74097 0.50576 0.5032 0.0
C863 C 0.73781 0.52689 0.65086 0.0
C864 C 0.78662 0.4963 0.36609 0.0
C865 C 0.77554 0.49574 0.40238 0.0
C866 C 0.78073 0.51589 0.51174 0.0
C867 C 0.73887 0.5113 0.58311 0.0
C868 C 0.75004 0.51078 0.54443 0.0
C869 C 0.7832 0.51166 0.43184 0.0
C870 C 0.77168 0.51101 0.47061 0.0
H871 H 0.69265 0.48676 0.62743 0.0
H872 H 0.7111 0.48518 0.56524 0.0
H873 H 0.77732 0.51921 0.57971 0.0
H874 H 0.82749 0.54178 0.38259 0.0
H875 H 0.80815 0.54077 0.44628 0.0
C876 C 0.19356 0.72754 0.12798 0.0
C877 C 0.19485 0.71068 0.13885 0.0
C878 C 0.20152 0.73754 0.08878 0.0
C879 C 0.21924 0.73222 0.98019 0.0
H880 H 0.25151 0.78955 0.9862 0.0
C881 C 0.27627 0.77999 0.84791 0.0
C882 C 0.27824 0.79855 0.83812 0.0
C883 C 0.26382 0.76835 0.88168 0.0
C884 C 0.2423 0.77357 0.98376 0.0
H885 H 0.2046 0.69052 0.11615 0.0
H886 H 0.21883 0.70816 0.04846 0.0
H887 H 0.23362 0.77096 0.05059 0.0
H888 H 0.26817 0.81912 0.8557 0.0
H889 H 0.24623 0.79869 0.91363 0.0
H890 H 0.2283 0.73488 0.91345 0.0
C891 C 0.21161 0.71364 0.07001 0.0
C892 C 0.23203 0.76292 0.02067 0.0
C893 C 0.20371 0.70369 0.10915 0.0
C894 C 0.26694 0.80486 0.86191 0.0
C895 C 0.25452 0.79325 0.89558 0.0
C896 C 0.22954 0.74289 0.94322 0.0
C897 C 0.21082 0.73081 0.0596 0.0
C898 C 0.22053 0.74212 0.01944 0.0
C899 C 0.25309 0.77505 0.90638 0.0
C900 C 0.24131 0.76367 0.94474 0.0
H901 H 0.18687 0.73329 0.15024 0.0
H902 H 0.20049 0.75061 0.08142 0.0
H903 H 0.21029 0.71621 0.97808 0.0
H904 H 0.28455 0.77455 0.82992 0.0
H905 H 0.26311 0.75443 0.88939 0.0
C906 C 0.4874 0.21157 0.64139 0.0
C907 C 0.50403 0.20987 0.65224 0.0
C908 C 0.48562 0.2178 0.59977 0.0
C909 C 0.51601 0.24719 0.50799 0.0
H910 H 0.4665 0.22206 0.44361 0.0
C911 C 0.51087 0.27599 0.3394 0.0
C912 C 0.49417 0.27809 0.33248 0.0
C913 C 0.51145 0.26493 0.37462 0.0
C914 C 0.4804 0.2293 0.4613 0.0
H915 H 0.53188 0.21347 0.62803 0.0
H916 H 0.52871 0.22423 0.55557 0.0
H917 H 0.46857 0.20833 0.51374 0.0
H918 H 0.46475 0.26974 0.3562 0.0
H919 H 0.46583 0.25074 0.41783 0.0
H920 H 0.52774 0.26852 0.45666 0.0
C921 C 0.51706 0.22074 0.57918 0.0
C922 C 0.48156 0.22144 0.5014 0.0
C923 C 0.51876 0.21439 0.62058 0.0
C924 C 0.47772 0.26819 0.36031 0.0
C925 C 0.47835 0.25726 0.39569 0.0
C926 C 0.51482 0.25512 0.46814 0.0
C927 C 0.50054 0.22263 0.56844 0.0
C928 C 0.49935 0.2304 0.52523 0.0
C929 C 0.4954 0.25588 0.40385 0.0
C930 C 0.49696 0.24638 0.44445 0.0
H931 H 0.47576 0.20803 0.66502 0.0
H932 H 0.47281 0.2193 0.59242 0.0
H933 H 0.52984 0.25456 0.52596 0.0
H934 H 0.52363 0.28323 0.31805 0.0
H935 H 0.52465 0.26381 0.37946 0.0
C936 C 0.6939 0.46634 0.87905 0.0
C937 C 0.69599 0.48528 0.87362 0.0
C938 C 0.7039 0.46274 0.91321 0.0
C939 C 0.72624 0.48347 0.0214 0.0
H940 H 0.75622 0.45623 1.00857 0.0
C941 C 0.79035 0.49843 0.1355 0.0
C942 C 0.79304 0.48282 0.15012 0.0
C943 C 0.77579 0.49517 0.10476 0.0
C944 C 0.74762 0.46358 0.01291 0.0
H945 H 0.71115 0.51543 0.89859 0.0
H946 H 0.7283 0.50926 0.95667 0.0
H947 H 0.73624 0.45707 0.94735 0.0
H948 H 0.78238 0.45136 0.14386 0.0
H949 H 0.75677 0.44559 0.08907 0.0
H950 H 0.73795 0.49057 0.08611 0.0
C951 C 0.71866 0.49699 0.93567 0.0
C952 C 0.73618 0.46407 0.97778 0.0
C953 C 0.70883 0.50055 0.90195 0.0
C954 C 0.78046 0.46363 0.13369 0.0
C955 C 0.76598 0.46039 0.102 0.0
C956 C 0.73761 0.48302 0.05619 0.0
C957 C 0.71605 0.47799 0.94262 0.0
C958 C 0.72587 0.47461 0.98116 0.0
C959 C 0.76356 0.47621 0.08699 0.0
C960 C 0.74897 0.47362 0.05211 0.0
H961 H 0.68413 0.45423 0.85787 0.0
H962 H 0.70162 0.44793 0.91747 0.0
H963 H 0.7181 0.49129 0.02571 0.0
H964 H 0.79987 0.51341 0.14727 0.0
H965 H 0.77459 0.50776 0.09374 0.0
C966 C 0.24336 0.70262 0.36143 0.0
C967 C 0.23216 0.71078 0.34431 0.0
C968 C 0.25498 0.7107 0.39928 0.0
C969 C 0.25406 0.73597 0.49828 0.0
H970 H 0.31048 0.75649 0.51381 0.0
C971 C 0.29765 0.79351 0.62908 0.0
C972 C 0.31367 0.79388 0.65113 0.0
C973 C 0.28789 0.78011 0.59533 0.0
C974 C 0.29463 0.75045 0.51039 0.0
H975 H 0.22562 0.73461 0.35185 0.0
H976 H 0.24575 0.74859 0.41683 0.0
H977 H 0.29426 0.73971 0.44539 0.0
H978 H 0.33178 0.78001 0.65523 0.0
H979 H 0.31453 0.75623 0.5955 0.0
H980 H 0.25417 0.74669 0.56243 0.0
C981 C 0.24541 0.73585 0.40161 0.0
C982 C 0.28537 0.7409 0.47111 0.0
C983 C 0.23398 0.72791 0.36407 0.0
C984 C 0.31934 0.77995 0.63923 0.0
C985 C 0.3096 0.7665 0.6047 0.0
C986 C 0.26319 0.74526 0.5374 0.0
C987 C 0.25551 0.727 0.42061 0.0
C988 C 0.26511 0.73421 0.4641 0.0
C989 C 0.29381 0.76654 0.58204 0.0
C990 C 0.28376 0.75336 0.54353 0.0
H991 H 0.24209 0.68925 0.34745 0.0
H992 H 0.26259 0.70355 0.41321 0.0
H993 H 0.23835 0.73063 0.49424 0.0
H994 H 0.29289 0.80405 0.63722 0.0
H995 H 0.2761 0.78095 0.5785 0.0
C996 C 0.54643 0.33025 0.10314 0.0
C997 C 0.54262 0.32391 0.14673 0.0
C998 C 0.55013 0.31948 0.0717 0.0
C999 C 0.56013 0.27735 0.05493 0.0
H1000 H 0.5367 0.27487 0.94194 0.0
C1001 C 0.54284 0.21554 0.92808 0.0
C1002 C 0.54501 0.22015 0.88336 0.0
C1003 C 0.54603 0.22988 0.95947 0.0
C1004 C 0.54365 0.27561 0.97298 0.0
H1005 H 0.54031 0.30148 0.19179 0.0
H1006 H 0.54632 0.28222 0.1367 0.0
H1007 H 0.53545 0.29607 0.99843 0.0
H1008 H 0.55284 0.24378 0.83669 0.0
H1009 H 0.55834 0.26903 0.89172 0.0
H1010 H 0.5676 0.2562 0.02951 0.0
C1011 C 0.54688 0.29585 0.12681 0.0
C1012 C 0.54297 0.28786 1.00566 0.0
C1013 C 0.54348 0.30691 0.1586 0.0
C1014 C 0.55121 0.23979 0.87085 0.0
C1015 C 0.55415 0.25417 0.90242 0.0
C1016 C 0.56065 0.26494 0.02227 0.0
C1017 C 0.54971 0.30168 0.08253 0.0
C1018 C 0.55112 0.28892 0.04733 0.0
C1019 C 0.55125 0.2493 0.94718 0.0
C1020 C 0.55229 0.26379 0.98087 0.0
H1021 H 0.54596 0.34335 0.09297 0.0
H1022 H 0.55287 0.32495 0.03855 0.0
H1023 H 0.56685 0.27787 0.08613 0.0
H1024 H 0.53806 0.20055 0.93891 0.0
H1025 H 0.54346 0.22544 0.99337 0.0
C1026 C 0.32146 0.54519 0.38389 0.0
C1027 C 0.32699 0.53057 0.38765 0.0
C1028 C 0.31186 0.54889 0.41876 0.0
C1029 C 0.30165 0.53885 0.53895 0.0
H1030 H 0.25699 0.54679 0.51785 0.0
C1031 C 0.23783 0.51702 0.66166 0.0
C1032 C 0.23041 0.52996 0.66859 0.0
C1033 C 0.25245 0.52126 0.63016 0.0
C1034 C 0.26963 0.54488 0.52431 0.0
H1035 H 0.32667 0.50848 0.43153 0.0
H1036 H 0.30998 0.5145 0.49039 0.0
H1037 H 0.27698 0.5465 0.45638 0.0
H1038 H 0.2324 0.55747 0.64775 0.0
H1039 H 0.25787 0.56478 0.59173 0.0
H1040 H 0.29367 0.53619 0.60651 0.0
C1041 C 0.31331 0.52357 0.46143 0.0
C1042 C 0.28114 0.54475 0.48902 0.0
C1043 C 0.32282 0.51996 0.42708 0.0
C1044 C 0.23826 0.54751 0.64389 0.0
C1045 C 0.25261 0.55154 0.61145 0.0
C1046 C 0.29002 0.53871 0.57395 0.0
C1047 C 0.30767 0.5381 0.45816 0.0
C1048 C 0.29701 0.54116 0.49569 0.0
C1049 C 0.25966 0.53828 0.60378 0.0
C1050 C 0.27358 0.54126 0.56708 0.0
H1051 H 0.32436 0.55362 0.35402 0.0
H1052 H 0.30782 0.56026 0.41491 0.0
H1053 H 0.31408 0.53667 0.54586 0.0
H1054 H 0.2317 0.50317 0.67951 0.0
H1055 H 0.25738 0.51063 0.62489 0.0
C1056 C 0.68528 0.2148 0.09323 0.0
C1057 C 0.68886 0.21888 0.13802 0.0
C1058 C 0.69632 0.22923 0.0619 0.0
C1059 C 0.74547 0.27327 0.04601 0.0
H1060 H 0.72309 0.27813 0.93695 0.0
C1061 C 0.79643 0.32706 0.91342 0.0
C1062 C 0.79255 0.32103 0.86965 0.0
C1063 C 0.78246 0.31671 0.94607 0.0
C1064 C 0.72967 0.27686 0.96696 0.0
H1065 H 0.70655 0.24165 0.185 0.0
H1066 H 0.72614 0.26707 0.12999 0.0
H1067 H 0.70117 0.25685 0.99474 0.0
H1068 H 0.77057 0.29963 0.82566 0.0
H1069 H 0.74616 0.28108 0.88283 0.0
H1070 H 0.77394 0.29255 0.01809 0.0
C1071 C 0.71466 0.25257 0.11923 0.0
C1072 C 0.71705 0.2647 1.00031 0.0
C1073 C 0.70332 0.23811 0.1508 0.0
C1074 C 0.77389 0.30481 0.859 0.0
C1075 C 0.75992 0.29416 0.89197 0.0
C1076 C 0.75809 0.28528 0.01261 0.0
C1077 C 0.71152 0.24819 0.07428 0.0
C1078 C 0.72477 0.2626 0.04023 0.0
C1079 C 0.76423 0.29965 0.93626 0.0
C1080 C 0.75045 0.28723 0.97236 0.0
H1081 H 0.67425 0.20013 0.08223 0.0
H1082 H 0.69354 0.22516 0.02783 0.0
H1083 H 0.75203 0.27176 0.07584 0.0
H1084 H 0.81063 0.33959 0.92269 0.0
H1085 H 0.78623 0.32192 0.97928 0.0
C1086 C 0.46631 0.77172 0.36346 0.0
C1087 C 0.47314 0.79133 0.37713 0.0
C1088 C 0.46208 0.75666 0.39426 0.0
C1089 C 0.45245 0.74416 0.51291 0.0
H1090 H 0.47618 0.71152 0.49123 0.0
C1091 C 0.46471 0.6993 0.65041 0.0
C1092 C 0.46528 0.68215 0.63864 0.0
C1093 C 0.46232 0.71092 0.61834 0.0
C1094 C 0.46904 0.72014 0.49779 0.0
H1095 H 0.47985 0.81022 0.43386 0.0
H1096 H 0.47223 0.78419 0.48694 0.0
H1097 H 0.47724 0.73399 0.43496 0.0
H1098 H 0.4625 0.66302 0.58472 0.0
H1099 H 0.45725 0.68238 0.52965 0.0
H1100 H 0.44431 0.73038 0.57585 0.0
C1101 C 0.47018 0.78029 0.45272 0.0
C1102 C 0.4697 0.73312 0.46525 0.0
C1103 C 0.47467 0.79529 0.42213 0.0
C1104 C 0.46216 0.6762 0.59479 0.0
C1105 C 0.45945 0.68753 0.56302 0.0
C1106 C 0.45162 0.73102 0.54538 0.0
C1107 C 0.46425 0.76084 0.43935 0.0
C1108 C 0.46166 0.74552 0.47248 0.0
C1109 C 0.46023 0.7055 0.57385 0.0
C1110 C 0.46009 0.71891 0.53858 0.0
H1111 H 0.46511 0.76821 0.32907 0.0
H1112 H 0.4574 0.7418 0.38277 0.0
H1113 H 0.44592 0.75334 0.51956 0.0
H1114 H 0.46743 0.70445 0.68383 0.0
H1115 H 0.46315 0.72466 0.62825 0.0
C1116 C 0.40888 0.48129 0.23643 0.0
C1117 C 0.38829 0.47098 0.22853 0.0
C1118 C 0.41938 0.47109 0.24041 0.0
C1119 C 0.41187 0.42165 0.26832 0.0
H1120 H 0.46471 0.44223 0.22039 0.0
C1121 C 0.45222 0.37617 0.26747 0.0
C1122 C 0.47291 0.38624 0.27364 0.0
C1123 C 0.44201 0.38664 0.26348 0.0
C1124 C 0.45008 0.4364 0.23456 0.0
H1125 H 0.36283 0.44183 0.21686 0.0
H1126 H 0.38115 0.42405 0.22379 0.0
H1127 H 0.44679 0.46007 0.20798 0.0
H1128 H 0.49901 0.41534 0.2813 0.0
H1129 H 0.48113 0.43358 0.27553 0.0
H1130 H 0.41516 0.39806 0.29514 0.0
C1131 C 0.38911 0.44003 0.22758 0.0
C1132 C 0.43977 0.44662 0.22728 0.0
C1133 C 0.37861 0.45024 0.22347 0.0
C1134 C 0.48305 0.40706 0.27706 0.0
C1135 C 0.47283 0.41755 0.27308 0.0
C1136 C 0.42219 0.41147 0.27571 0.0
C1137 C 0.40957 0.4503 0.23676 0.0
C1138 C 0.42051 0.43934 0.24396 0.0
C1139 C 0.45221 0.4075 0.26561 0.0
C1140 C 0.44142 0.41867 0.25884 0.0
H1141 H 0.4168 0.4972 0.24142 0.0
H1142 H 0.43507 0.47946 0.24798 0.0
H1143 H 0.39721 0.41581 0.28236 0.0
H1144 H 0.44391 0.36013 0.26503 0.0
H1145 H 0.42618 0.37838 0.2574 0.0
C1146 C 0.08146 0.45413 0.73938 0.0
C1147 C 0.09119 0.47317 0.75797 0.0
C1148 C 0.06074 0.4432 0.73718 0.0
C1149 C 0.01463 0.4408 0.78025 0.0
H1150 H 0.99117 0.40852 0.67733 0.0
C1151 C 0.93091 0.40471 0.73921 0.0
C1152 C 0.92126 0.38453 0.72761 0.0
C1153 C 0.95162 0.41571 0.74248 0.0
C1154 C 0.9975 0.41736 0.70639 0.0
H1155 H 0.08684 0.49559 0.78949 0.0
H1156 H 0.05063 0.47679 0.78473 0.0
H1157 H 0.02715 0.42728 0.68499 0.0
H1158 H 0.92578 0.36017 0.70946 0.0
H1159 H 0.96204 0.37949 0.71442 0.0
H1160 H 0.98481 0.43114 0.80094 0.0
C1161 C 0.05895 0.47004 0.7726 0.0
C1162 C 0.01816 0.42807 0.71097 0.0
C1163 C 0.07972 0.48088 0.77529 0.0
C1164 C 0.93281 0.3757 0.71841 0.0
C1165 C 0.95355 0.38677 0.72111 0.0
C1166 C 0.99395 0.43027 0.77537 0.0
C1167 C 0.04916 0.45113 0.75299 0.0
C1168 C 0.02705 0.43986 0.74811 0.0
C1169 C 0.96317 0.40683 0.73373 0.0
C1170 C 0.98515 0.41835 0.73848 0.0
H1171 H 0.08991 0.44768 0.72634 0.0
H1172 H 0.05383 0.42851 0.72296 0.0
H1173 H 0.02082 0.44943 0.8096 0.0
H1174 H 0.9224 0.41186 0.74711 0.0
H1175 H 0.95861 0.43117 0.75195 0.0
C1176 C 0.60695 0.07907 0.27844 0.0
C1177 C 0.62777 0.08992 0.27577 0.0
C1178 C 0.59668 0.05837 0.27444 0.0
C1179 C 0.60331 0.01692 0.23304 0.0
H1180 H 0.55363 0.98425 0.2937 0.0
C1181 C 0.56343 0.93082 0.24167 0.0
C1182 C 0.54273 0.92047 0.23568 0.0
C1183 C 0.57393 0.95157 0.24425 0.0
C1184 C 0.5674 0.99321 0.27623 0.0
H1185 H 0.6542 0.08753 0.26874 0.0
H1186 H 0.63643 0.05141 0.26353 0.0
H1187 H 0.57188 0.01998 0.30604 0.0
H1188 H 0.51687 0.92376 0.22705 0.0
H1189 H 0.53522 0.96002 0.23186 0.0
H1190 H 0.59897 0.9899 0.20425 0.0
C1191 C 0.6279 0.05885 0.2672 0.0
C1192 C 0.57788 0.01374 0.2832 0.0
C1193 C 0.63814 0.07957 0.27059 0.0
C1194 C 0.53284 0.93134 0.23121 0.0
C1195 C 0.5433 0.95206 0.23444 0.0
C1196 C 0.59295 0.99635 0.22655 0.0
C1197 C 0.60699 0.04795 0.26821 0.0
C1198 C 0.59598 0.02594 0.26161 0.0
C1199 C 0.56392 0.96239 0.24158 0.0
C1200 C 0.57484 0.98428 0.24793 0.0
H1201 H 0.59854 0.08667 0.2817 0.0
H1202 H 0.58062 0.05066 0.27474 0.0
H1203 H 0.61694 0.02575 0.21503 0.0
H1204 H 0.57144 0.92283 0.24519 0.0
H1205 H 0.5898 0.9591 0.24993 0.0
C1206 C 0.52713 0.60347 0.78261 0.0
C1207 C 0.53676 0.62402 0.775 0.0
C1208 C 0.53747 0.5931 0.77891 0.0
C1209 C 0.58318 0.59761 0.72865 0.0
H1210 H 0.57039 0.55176 0.80056 0.0
C1211 C 0.6309 0.55945 0.73514 0.0
C1212 C 0.62079 0.53858 0.73582 0.0
C1213 C 0.62043 0.56972 0.73762 0.0
C1214 C 0.57398 0.56442 0.77992 0.0
H1215 H 0.56502 0.64998 0.75968 0.0
H1216 H 0.58327 0.63209 0.7547 0.0
H1217 H 0.5532 0.57034 0.81266 0.0
H1218 H 0.59175 0.51214 0.73883 0.0
H1219 H 0.57343 0.5301 0.74325 0.0
H1220 H 0.6043 0.59186 0.69667 0.0
C1221 C 0.56756 0.62379 0.76212 0.0
C1222 C 0.56411 0.57509 0.78681 0.0
C1223 C 0.55716 0.63411 0.76532 0.0
C1224 C 0.59994 0.52821 0.73778 0.0
C1225 C 0.58947 0.53849 0.74082 0.0
C1226 C 0.59319 0.58706 0.72211 0.0
C1227 C 0.55778 0.60306 0.76794 0.0
C1228 C 0.56855 0.59184 0.76125 0.0
C1229 C 0.59963 0.55936 0.7414 0.0
C1230 C 0.58868 0.57032 0.7476 0.0
H1231 H 0.51135 0.59524 0.78947 0.0
H1232 H 0.52932 0.57714 0.78309 0.0
H1233 H 0.58674 0.61013 0.70762 0.0
H1234 H 0.64696 0.56783 0.73359 0.0
H1235 H 0.62869 0.5858 0.73819 0.0
C1236 C 0.08562 0.59708 0.23716 0.0
C1237 C 0.09641 0.61198 0.26822 0.0
C1238 C 0.06479 0.58689 0.23712 0.0
C1239 C 0.02172 0.57207 0.30774 0.0
H1240 H 0.99321 0.56906 0.20196 0.0
C1241 C 0.93684 0.54228 0.30841 0.0
C1242 C 0.92597 0.53256 0.27101 0.0
C1243 C 0.95762 0.55147 0.30838 0.0
C1244 C 1.00082 0.56936 0.23171 0.0
H1245 H 0.09331 0.62811 0.3227 0.0
H1246 H 0.05725 0.60978 0.32356 0.0
H1247 H 0.02931 0.58527 0.20067 0.0
H1248 H 0.92805 0.52398 0.20502 0.0
H1249 H 0.96401 0.53908 0.20541 0.0
H1250 H 0.9934 0.55574 0.33875 0.0
C1251 C 0.06497 0.60596 0.29946 0.0
C1252 C 0.02156 0.57878 0.23089 0.0
C1253 C 0.08571 0.61638 0.29905 0.0
C1254 C 0.93615 0.53167 0.23408 0.0
C1255 C 0.95681 0.54049 0.23428 0.0
C1256 C 1.00095 0.56233 0.30844 0.0
C1257 C 0.05428 0.59113 0.26852 0.0
C1258 C 0.03223 0.58036 0.26895 0.0
C1259 C 0.96794 0.55079 0.27118 0.0
C1260 C 0.99015 0.56092 0.27048 0.0
H1261 H 0.0932 0.59306 0.21319 0.0
H1262 H 0.05689 0.57545 0.21297 0.0
H1263 H 0.0296 0.57295 0.33751 0.0
H1264 H 0.9293 0.54322 0.33722 0.0
H1265 H 0.96556 0.55947 0.33726 0.0
C1266 C 0.3808 0.93632 0.77011 0.0
C1267 C 0.39026 0.92507 0.77566 0.0
C1268 C 0.39187 0.957 0.76668 0.0
C1269 C 0.4423 0.99775 0.73856 0.0
H1270 H 0.42308 0.03105 0.78701 0.0
C1271 C 0.48932 0.08369 0.742 0.0
C1272 C 0.47956 0.09448 0.73358 0.0
C1273 C 0.47858 0.063 0.74594 0.0
C1274 C 0.42855 0.02194 0.77283 0.0
H1275 H 0.41889 0.92696 0.78289 0.0
H1276 H 0.43818 0.96309 0.77819 0.0
H1277 H 0.40439 0.99531 0.79913 0.0
H1278 H 0.45083 0.0917 0.72112 0.0
H1279 H 0.43211 0.05561 0.72816 0.0
H1280 H 0.46656 0.02447 0.71256 0.0
C1281 C 0.42217 0.95585 0.77572 0.0
C1282 C 0.41783 1.00142 0.77982 0.0
C1283 C 0.41108 0.93513 0.77909 0.0
C1284 C 0.45882 0.08394 0.72816 0.0
C1285 C 0.44808 0.06324 0.73229 0.0
C1286 C 0.45307 0.01829 0.73173 0.0
C1287 C 0.41272 0.96705 0.76884 0.0
C1288 C 0.42451 0.98902 0.76265 0.0
C1289 C 0.4578 0.05254 0.74179 0.0
C1290 C 0.44628 0.03064 0.74864 0.0
H1291 H 0.36478 0.92909 0.76772 0.0
H1292 H 0.38404 0.96504 0.76102 0.0
H1293 H 0.44775 0.98867 0.72416 0.0
H1294 H 0.50521 0.09127 0.74731 0.0
H1295 H 0.48653 0.05527 0.75378 0.0
loop_
_geom_bond_atom_site_label_1
_geom_bond_atom_site_label_2
_geom_bond_distance
_geom_bond_site_symmetry_2
_ccdc_geom_bond_type
C0 C1 1.351 . S
C0 N3 1.368 . S
C0 H5 0.931 . S
C1 C0 1.351 . S
C1 N2 1.373 . S
C1 H29 0.930 . S
N2 C1 1.373 . S
N2 C4 1.340 . S
N3 C0 1.368 . S
N3 C4 1.321 . S
N3 Co6 2.135 . S
C4 N2 1.340 . S
C4 N3 1.321 . S
C4 H28 0.930 . S
H5 C0 0.931 . S
Co6 N3 2.135 . S
Co6 N9 2.121 . S
Co6 O14 2.055 . S
Co6 O17 2.039 . S
Co6 N20 2.140 . S
C7 O8 1.227 . S
C7 O17 1.265 . S
O8 C7 1.227 . S
N9 Co6 2.121 . S
N9 C11 1.375 . S
N9 C12 1.313 . S
C10 C11 1.338 . S
C10 N13 1.377 . S
C10 H30 0.930 . S
C11 N9 1.375 . S
C11 C10 1.338 . S
C11 H15 0.931 . S
C12 N9 1.313 . S
C12 N13 1.344 . S
C12 H16 0.930 . S
N13 C10 1.377 . S
N13 C12 1.344 . S
O14 Co6 2.055 . S
O14 C18 1.253 . S
H15 C11 0.931 . S
H16 C12 0.930 . S
O17 Co6 2.039 . S
O17 C7 1.265 . S
C18 O14 1.253 . S
C18 O19 1.227 . S
O19 C18 1.227 . S
N20 Co6 2.140 . S
N20 C23 1.346 . S
N20 C24 1.345 . S
C21 C22 1.387 . S
C21 C25 1.391 . S
C22 C21 1.387 . S
C22 C23 1.369 . S
C22 H31 0.929 . S
C23 N20 1.346 . S
C23 C22 1.369 . S
C23 H26 0.928 . S
C24 N20 1.345 . S
C24 C25 1.371 . S
C24 H27 0.931 . S
C25 C21 1.391 . S
C25 C24 1.371 . S
C25 H32 0.930 . S
H26 C23 0.928 . S
H27 C24 0.931 . S
H28 C4 0.930 . S
H29 C1 0.930 . S
H30 C10 0.930 . S
H31 C22 0.929 . S
H32 C25 0.930 . S
C33 C34 1.351 . S
C33 N36 1.368 . S
C33 H38 0.931 . S
C34 C33 1.351 . S
C34 N35 1.373 . S
C34 H62 0.930 . S
N35 C34 1.373 . S
N35 C37 1.340 . S
N36 C33 1.368 . S
N36 C37 1.321 . S
N36 Co39 2.135 . S
C37 N35 1.340 . S
C37 N36 1.321 . S
C37 H61 0.930 . S
H38 C33 0.931 . S
Co39 N36 2.135 . S
Co39 N42 2.121 . S
Co39 O47 2.055 . S
Co39 O50 2.039 . S
Co39 N53 2.140 . S
C40 O41 1.227 . S
C40 O50 1.265 . S
O41 C40 1.227 . S
N42 Co39 2.121 . S
N42 C44 1.375 . S
N42 C45 1.313 . S
C43 C44 1.338 . S
C43 N46 1.377 . S
C43 H63 0.930 . S
C44 N42 1.375 . S
C44 C43 1.338 . S
C44 H48 0.931 . S
C45 N42 1.313 . S
C45 N46 1.344 . S
C45 H49 0.930 . S
N46 C43 1.377 . S
N46 C45 1.344 . S
O47 Co39 2.055 . S
O47 C51 1.253 . S
H48 C44 0.931 . S
H49 C45 0.930 . S
O50 Co39 2.039 . S
O50 C40 1.265 . S
C51 O47 1.253 . S
C51 O52 1.227 . S
O52 C51 1.227 . S
N53 Co39 2.140 . S
N53 C56 1.346 . S
N53 C57 1.345 . S
C54 C55 1.387 . S
C54 C58 1.391 . S
C55 C54 1.387 . S
C55 C56 1.369 . S
C55 H64 0.929 . S
C56 N53 1.346 . S
C56 C55 1.369 . S
C56 H59 0.928 . S
C57 N53 1.345 . S
C57 C58 1.371 . S
C57 H60 0.931 . S
C58 C54 1.391 . S
C58 C57 1.371 . S
C58 H65 0.930 . S
H59 C56 0.928 . S
H60 C57 0.931 . S
H61 C37 0.930 . S
H62 C34 0.930 . S
H63 C43 0.930 . S
H64 C55 0.929 . S
H65 C58 0.930 . S
C66 C67 1.351 . S
C66 N69 1.368 . S
C66 H71 0.931 . S
C67 C66 1.351 . S
C67 N68 1.373 . S
C67 H95 0.930 . S
N68 C67 1.373 . S
N68 C70 1.340 . S
N69 C66 1.368 . S
N69 C70 1.321 . S
N69 Co72 2.135 . S
C70 N68 1.340 . S
C70 N69 1.321 . S
C70 H94 0.930 . S
H71 C66 0.931 . S
Co72 N69 2.135 . S
Co72 N75 2.121 . S
Co72 O80 2.055 . S
Co72 O83 2.039 . S
Co72 N86 2.140 . S
C73 O74 1.227 . S
C73 O83 1.265 . S
O74 C73 1.227 . S
N75 Co72 2.121 . S
N75 C77 1.375 . S
N75 C78 1.313 . S
C76 C77 1.338 . S
C76 N79 1.377 . S
C76 H96 0.930 . S
C77 N75 1.375 . S
C77 C76 1.338 . S
C77 H81 0.931 . S
C78 N75 1.313 . S
C78 N79 1.344 . S
C78 H82 0.930 . S
N79 C76 1.377 . S
N79 C78 1.344 . S
O80 Co72 2.055 . S
O80 C84 1.253 . S
H81 C77 0.931 . S
H82 C78 0.930 . S
O83 Co72 2.039 . S
O83 C73 1.265 . S
C84 O80 1.253 . S
C84 O85 1.227 . S
O85 C84 1.227 . S
N86 Co72 2.140 . S
N86 C89 1.346 . S
N86 C90 1.345 . S
C87 C88 1.387 . S
C87 C91 1.391 . S
C88 C87 1.387 . S
C88 C89 1.369 . S
C88 H97 0.929 . S
C89 N86 1.346 . S
C89 C88 1.369 . S
C89 H92 0.928 . S
C90 N86 1.345 . S
C90 C91 1.371 . S
C90 H93 0.931 . S
C91 C87 1.391 . S
C91 C90 1.371 . S
C91 H98 0.930 . S
H92 C89 0.928 . S
H93 C90 0.931 . S
H94 C70 0.930 . S
H95 C67 0.930 . S
H96 C76 0.930 . S
H97 C88 0.929 . S
H98 C91 0.930 . S
C99 C100 1.351 . S
C99 N102 1.368 . S
C99 H104 0.931 . S
C100 C99 1.351 . S
C100 N101 1.373 . S
C100 H128 0.930 . S
N101 C100 1.373 . S
N101 C103 1.340 . S
N102 C99 1.368 . S
N102 C103 1.321 . S
N102 Co105 2.135 . S
C103 N101 1.340 . S
C103 N102 1.321 . S
C103 H127 0.930 . S
H104 C99 0.931 . S
Co105 N102 2.135 . S
Co105 N108 2.121 . S
Co105 O113 2.055 . S
Co105 O116 2.039 . S
Co105 N119 2.140 . S
C106 O107 1.227 . S
C106 O116 1.265 . S
O107 C106 1.227 . S
N108 Co105 2.121 . S
N108 C110 1.375 . S
N108 C111 1.313 . S
C109 C110 1.338 . S
C109 N112 1.377 . S
C109 H129 0.930 . S
C110 N108 1.375 . S
C110 C109 1.338 . S
C110 H114 0.931 . S
C111 N108 1.313 . S
C111 N112 1.344 . S
C111 H115 0.930 . S
N112 C109 1.377 . S
N112 C111 1.344 . S
O113 Co105 2.055 . S
O113 C117 1.253 . S
H114 C110 0.931 . S
H115 C111 0.930 . S
O116 Co105 2.039 . S
O116 C106 1.265 . S
C117 O113 1.253 . S
C117 O118 1.227 . S
O118 C117 1.227 . S
N119 Co105 2.140 . S
N119 C122 1.346 . S
N119 C123 1.345 . S
C120 C121 1.387 . S
C120 C124 1.391 . S
C121 C120 1.387 . S
C121 C122 1.369 . S
C121 H130 0.929 . S
C122 N119 1.346 . S
C122 C121 1.369 . S
C122 H125 0.928 . S
C123 N119 1.345 . S
C123 C124 1.371 . S
C123 H126 0.931 . S
C124 C120 1.391 . S
C124 C123 1.371 . S
C124 H131 0.930 . S
H125 C122 0.928 . S
H126 C123 0.931 . S
H127 C103 0.930 . S
H128 C100 0.930 . S
H129 C109 0.930 . S
H130 C121 0.929 . S
H131 C124 0.930 . S
C132 C133 1.351 . S
C132 N135 1.368 . S
C132 H137 0.931 . S
C133 C132 1.351 . S
C133 N134 1.373 . S
C133 H161 0.930 . S
N134 C133 1.373 . S
N134 C136 1.340 . S
N135 C132 1.368 . S
N135 C136 1.321 . S
N135 Co138 2.135 . S
C136 N134 1.340 . S
C136 N135 1.321 . S
C136 H160 0.930 . S
H137 C132 0.931 . S
Co138 N135 2.135 . S
Co138 N141 2.121 . S
Co138 O146 2.055 . S
Co138 O149 2.039 . S
Co138 N152 2.140 . S
C139 O140 1.227 . S
C139 O149 1.265 . S
O140 C139 1.227 . S
N141 Co138 2.121 . S
N141 C143 1.375 . S
N141 C144 1.313 . S
C142 C143 1.338 . S
C142 N145 1.377 . S
C142 H162 0.930 . S
C143 N141 1.375 . S
C143 C142 1.338 . S
C143 H147 0.931 . S
C144 N141 1.313 . S
C144 N145 1.344 . S
C144 H148 0.930 . S
N145 C142 1.377 . S
N145 C144 1.344 . S
O146 Co138 2.055 . S
O146 C150 1.253 . S
H147 C143 0.931 . S
H148 C144 0.930 . S
O149 Co138 2.039 . S
O149 C139 1.265 . S
C150 O146 1.253 . S
C150 O151 1.227 . S
O151 C150 1.227 . S
N152 Co138 2.140 . S
N152 C155 1.346 . S
N152 C156 1.345 . S
C153 C154 1.387 . S
C153 C157 1.391 . S
C154 C153 1.387 . S
C154 C155 1.369 . S
C154 H163 0.929 . S
C155 N152 1.346 . S
C155 C154 1.369 . S
C155 H158 0.928 . S
C156 N152 1.345 . S
C156 C157 1.371 . S
C156 H159 0.931 . S
C157 C153 1.391 . S
C157 C156 1.371 . S
C157 H164 0.930 . S
H158 C155 0.928 . S
H159 C156 0.931 . S
H160 C136 0.930 . S
H161 C133 0.930 . S
H162 C142 0.930 . S
H163 C154 0.929 . S
H164 C157 0.930 . S
C165 C166 1.351 . S
C165 N168 1.368 . S
C165 H170 0.931 . S
C166 C165 1.351 . S
C166 N167 1.373 . S
C166 H194 0.930 . S
N167 C166 1.373 . S
N167 C169 1.340 . S
N168 C165 1.368 . S
N168 C169 1.321 . S
N168 Co171 2.135 . S
C169 N167 1.340 . S
C169 N168 1.321 . S
C169 H193 0.930 . S
H170 C165 0.931 . S
Co171 N168 2.135 . S
Co171 N174 2.121 . S
Co171 O179 2.055 . S
Co171 O182 2.039 . S
Co171 N185 2.140 . S
C172 O173 1.227 . S
C172 O182 1.265 . S
O173 C172 1.227 . S
N174 Co171 2.121 . S
N174 C176 1.375 . S
N174 C177 1.313 . S
C175 C176 1.338 . S
C175 N178 1.377 . S
C175 H195 0.930 . S
C176 N174 1.375 . S
C176 C175 1.338 . S
C176 H180 0.931 . S
C177 N174 1.313 . S
C177 N178 1.344 . S
C177 H181 0.930 . S
N178 C175 1.377 . S
N178 C177 1.344 . S
O179 Co171 2.055 . S
O179 C183 1.253 . S
H180 C176 0.931 . S
H181 C177 0.930 . S
O182 Co171 2.039 . S
O182 C172 1.265 . S
C183 O179 1.253 . S
C183 O184 1.227 . S
O184 C183 1.227 . S
N185 Co171 2.140 . S
N185 C188 1.346 . S
N185 C189 1.345 . S
C186 C187 1.387 . S
C186 C190 1.391 . S
C187 C186 1.387 . S
C187 C188 1.369 . S
C187 H196 0.929 . S
C188 N185 1.346 . S
C188 C187 1.369 . S
C188 H191 0.928 . S
C189 N185 1.345 . S
C189 C190 1.371 . S
C189 H192 0.931 . S
C190 C186 1.391 . S
C190 C189 1.371 . S
C190 H197 0.930 . S
H191 C188 0.928 . S
H192 C189 0.931 . S
H193 C169 0.930 . S
H194 C166 0.930 . S
H195 C175 0.930 . S
H196 C187 0.929 . S
H197 C190 0.930 . S
C198 C199 1.351 . S
C198 N201 1.368 . S
C198 H203 0.931 . S
C199 C198 1.351 . S
C199 N200 1.373 . S
C199 H227 0.930 . S
N200 C199 1.373 . S
N200 C202 1.340 . S
N201 C198 1.368 . S
N201 C202 1.321 . S
N201 Co204 2.135 . S
C202 N200 1.340 . S
C202 N201 1.321 . S
C202 H226 0.930 . S
H203 C198 0.931 . S
Co204 N201 2.135 . S
Co204 N207 2.121 . S
Co204 O212 2.055 . S
Co204 O215 2.039 . S
Co204 N218 2.140 . S
C205 O206 1.227 . S
C205 O215 1.265 . S
O206 C205 1.227 . S
N207 Co204 2.121 . S
N207 C209 1.375 . S
N207 C210 1.313 . S
C208 C209 1.338 . S
C208 N211 1.377 . S
C208 H228 0.930 . S
C209 N207 1.375 . S
C209 C208 1.338 . S
C209 H213 0.931 . S
C210 N207 1.313 . S
C210 N211 1.344 . S
C210 H214 0.930 . S
N211 C208 1.377 . S
N211 C210 1.344 . S
O212 Co204 2.055 . S
O212 C216 1.253 . S
H213 C209 0.931 . S
H214 C210 0.930 . S
O215 Co204 2.039 . S
O215 C205 1.265 . S
C216 O212 1.253 . S
C216 O217 1.227 . S
O217 C216 1.227 . S
N218 Co204 2.140 . S
N218 C221 1.346 . S
N218 C222 1.345 . S
C219 C220 1.387 . S
C219 C223 1.391 . S
C220 C219 1.387 . S
C220 C221 1.369 . S
C220 H229 0.929 . S
C221 N218 1.346 . S
C221 C220 1.369 . S
C221 H224 0.928 . S
C222 N218 1.345 . S
C222 C223 1.371 . S
C222 H225 0.931 . S
C223 C219 1.391 . S
C223 C222 1.371 . S
C223 H230 0.930 . S
H224 C221 0.928 . S
H225 C222 0.931 . S
H226 C202 0.930 . S
H227 C199 0.930 . S
H228 C208 0.930 . S
H229 C220 0.929 . S
H230 C223 0.930 . S
C231 C232 1.351 . S
C231 N234 1.368 . S
C231 H236 0.931 . S
C232 C231 1.351 . S
C232 N233 1.373 . S
C232 H260 0.930 . S
N233 C232 1.373 . S
N233 C235 1.340 . S
N234 C231 1.368 . S
N234 C235 1.321 . S
N234 Co237 2.135 . S
C235 N233 1.340 . S
C235 N234 1.321 . S
C235 H259 0.930 . S
H236 C231 0.931 . S
Co237 N234 2.135 . S
Co237 N240 2.121 . S
Co237 O245 2.055 . S
Co237 O248 2.039 . S
Co237 N251 2.140 . S
C238 O239 1.227 . S
C238 O248 1.265 . S
O239 C238 1.227 . S
N240 Co237 2.121 . S
N240 C242 1.375 . S
N240 C243 1.313 . S
C241 C242 1.338 . S
C241 N244 1.377 . S
C241 H261 0.930 . S
C242 N240 1.375 . S
C242 C241 1.338 . S
C242 H246 0.931 . S
C243 N240 1.313 . S
C243 N244 1.344 . S
C243 H247 0.930 . S
N244 C241 1.377 . S
N244 C243 1.344 . S
O245 Co237 2.055 . S
O245 C249 1.253 . S
H246 C242 0.931 . S
H247 C243 0.930 . S
O248 Co237 2.039 . S
O248 C238 1.265 . S
C249 O245 1.253 . S
C249 O250 1.227 . S
O250 C249 1.227 . S
N251 Co237 2.140 . S
N251 C254 1.346 . S
N251 C255 1.345 . S
C252 C253 1.387 . S
C252 C256 1.391 . S
C253 C252 1.387 . S
C253 C254 1.369 . S
C253 H262 0.929 . S
C254 N251 1.346 . S
C254 C253 1.369 . S
C254 H257 0.928 . S
C255 N251 1.345 . S
C255 C256 1.371 . S
C255 H258 0.931 . S
C256 C252 1.391 . S
C256 C255 1.371 . S
C256 H263 0.930 . S
H257 C254 0.928 . S
H258 C255 0.931 . S
H259 C235 0.930 . S
H260 C232 0.930 . S
H261 C241 0.930 . S
H262 C253 0.929 . S
H263 C256 0.930 . S
C264 C265 1.351 . S
C264 N267 1.368 . S
C264 H269 0.931 . S
C265 C264 1.351 . S
C265 N266 1.373 . S
C265 H293 0.930 . S
N266 C265 1.373 . S
N266 C268 1.340 . S
N267 C264 1.368 . S
N267 C268 1.321 . S
N267 Co270 2.135 . S
C268 N266 1.340 . S
C268 N267 1.321 . S
C268 H292 0.930 . S
H269 C264 0.931 . S
Co270 N267 2.135 . S
Co270 N273 2.121 . S
Co270 O278 2.055 . S
Co270 O281 2.039 . S
Co270 N284 2.140 . S
C271 O272 1.227 . S
C271 O281 1.265 . S
O272 C271 1.227 . S
N273 Co270 2.121 . S
N273 C275 1.375 . S
N273 C276 1.313 . S
C274 C275 1.338 . S
C274 N277 1.377 . S
C274 H294 0.930 . S
C275 N273 1.375 . S
C275 C274 1.338 . S
C275 H279 0.931 . S
C276 N273 1.313 . S
C276 N277 1.344 . S
C276 H280 0.930 . S
N277 C274 1.377 . S
N277 C276 1.344 . S
O278 Co270 2.055 . S
O278 C282 1.253 . S
H279 C275 0.931 . S
H280 C276 0.930 . S
O281 Co270 2.039 . S
O281 C271 1.265 . S
C282 O278 1.253 . S
C282 O283 1.227 . S
O283 C282 1.227 . S
N284 Co270 2.140 . S
N284 C287 1.346 . S
N284 C288 1.345 . S
C285 C286 1.387 . S
C285 C289 1.391 . S
C286 C285 1.387 . S
C286 C287 1.369 . S
C286 H295 0.929 . S
C287 N284 1.346 . S
C287 C286 1.369 . S
C287 H290 0.928 . S
C288 N284 1.345 . S
C288 C289 1.371 . S
C288 H291 0.931 . S
C289 C285 1.391 . S
C289 C288 1.371 . S
C289 H296 0.930 . S
H290 C287 0.928 . S
H291 C288 0.931 . S
H292 C268 0.930 . S
H293 C265 0.930 . S
H294 C274 0.930 . S
H295 C286 0.929 . S
H296 C289 0.930 . S
C297 C298 1.351 . S
C297 N300 1.368 . S
C297 H302 0.931 . S
C298 C297 1.351 . S
C298 N299 1.373 . S
C298 H326 0.930 . S
N299 C298 1.373 . S
N299 C301 1.340 . S
N300 C297 1.368 . S
N300 C301 1.321 . S
N300 Co303 2.135 . S
C301 N299 1.340 . S
C301 N300 1.321 . S
C301 H325 0.930 . S
H302 C297 0.931 . S
Co303 N300 2.135 . S
Co303 N306 2.121 . S
Co303 O311 2.055 . S
Co303 O314 2.039 . S
Co303 N317 2.140 . S
C304 O305 1.227 . S
C304 O314 1.265 . S
O305 C304 1.227 . S
N306 Co303 2.121 . S
N306 C308 1.375 . S
N306 C309 1.313 . S
C307 C308 1.338 . S
C307 N310 1.377 . S
C307 H327 0.930 . S
C308 N306 1.375 . S
C308 C307 1.338 . S
C308 H312 0.931 . S
C309 N306 1.313 . S
C309 N310 1.344 . S
C309 H313 0.930 . S
N310 C307 1.377 . S
N310 C309 1.344 . S
O311 Co303 2.055 . S
O311 C315 1.253 . S
H312 C308 0.931 . S
H313 C309 0.930 . S
O314 Co303 2.039 . S
O314 C304 1.265 . S
C315 O311 1.253 . S
C315 O316 1.227 . S
O316 C315 1.227 . S
N317 Co303 2.140 . S
N317 C320 1.346 . S
N317 C321 1.345 . S
C318 C319 1.387 . S
C318 C322 1.391 . S
C319 C318 1.387 . S
C319 C320 1.369 . S
C319 H328 0.929 . S
C320 N317 1.346 . S
C320 C319 1.369 . S
C320 H323 0.928 . S
C321 N317 1.345 . S
C321 C322 1.371 . S
C321 H324 0.931 . S
C322 C318 1.391 . S
C322 C321 1.371 . S
C322 H329 0.930 . S
H323 C320 0.928 . S
H324 C321 0.931 . S
H325 C301 0.930 . S
H326 C298 0.930 . S
H327 C307 0.930 . S
H328 C319 0.929 . S
H329 C322 0.930 . S
C330 C331 1.351 . S
C330 N333 1.368 . S
C330 H335 0.931 . S
C331 C330 1.351 . S
C331 N332 1.373 . S
C331 H359 0.930 . S
N332 C331 1.373 . S
N332 C334 1.340 . S
N333 C330 1.368 . S
N333 C334 1.321 . S
N333 Co336 2.135 . S
C334 N332 1.340 . S
C334 N333 1.321 . S
C334 H358 0.930 . S
H335 C330 0.931 . S
Co336 N333 2.135 . S
Co336 N339 2.121 . S
Co336 O344 2.055 . S
Co336 O347 2.039 . S
Co336 N350 2.140 . S
C337 O338 1.227 . S
C337 O347 1.265 . S
O338 C337 1.227 . S
N339 Co336 2.121 . S
N339 C341 1.375 . S
N339 C342 1.313 . S
C340 C341 1.338 . S
C340 N343 1.377 . S
C340 H360 0.930 . S
C341 N339 1.375 . S
C341 C340 1.338 . S
C341 H345 0.931 . S
C342 N339 1.313 . S
C342 N343 1.344 . S
C342 H346 0.930 . S
N343 C340 1.377 . S
N343 C342 1.344 . S
O344 Co336 2.055 . S
O344 C348 1.253 . S
H345 C341 0.931 . S
H346 C342 0.930 . S
O347 Co336 2.039 . S
O347 C337 1.265 . S
C348 O344 1.253 . S
C348 O349 1.227 . S
O349 C348 1.227 . S
N350 Co336 2.140 . S
N350 C353 1.346 . S
N350 C354 1.345 . S
C351 C352 1.387 . S
C351 C355 1.391 . S
C352 C351 1.387 . S
C352 C353 1.369 . S
C352 H361 0.929 . S
C353 N350 1.346 . S
C353 C352 1.369 . S
C353 H356 0.928 . S
C354 N350 1.345 . S
C354 C355 1.371 . S
C354 H357 0.931 . S
C355 C351 1.391 . S
C355 C354 1.371 . S
C355 H362 0.930 . S
H356 C353 0.928 . S
H357 C354 0.931 . S
H358 C334 0.930 . S
H359 C331 0.930 . S
H360 C340 0.930 . S
H361 C352 0.929 . S
H362 C355 0.930 . S
C363 C364 1.351 . S
C363 N366 1.368 . S
C363 H368 0.931 . S
C364 C363 1.351 . S
C364 N365 1.373 . S
C364 H392 0.930 . S
N365 C364 1.373 . S
N365 C367 1.340 . S
N366 C363 1.368 . S
N366 C367 1.321 . S
N366 Co369 2.135 . S
C367 N365 1.340 . S
C367 N366 1.321 . S
C367 H391 0.930 . S
H368 C363 0.931 . S
Co369 N366 2.135 . S
Co369 N372 2.121 . S
Co369 O377 2.055 . S
Co369 O380 2.039 . S
Co369 N383 2.140 . S
C370 O371 1.227 . S
C370 O380 1.265 . S
O371 C370 1.227 . S
N372 Co369 2.121 . S
N372 C374 1.375 . S
N372 C375 1.313 . S
C373 C374 1.338 . S
C373 N376 1.377 . S
C373 H393 0.930 . S
C374 N372 1.375 . S
C374 C373 1.338 . S
C374 H378 0.931 . S
C375 N372 1.313 . S
C375 N376 1.344 . S
C375 H379 0.930 . S
N376 C373 1.377 . S
N376 C375 1.344 . S
O377 Co369 2.055 . S
O377 C381 1.253 . S
H378 C374 0.931 . S
H379 C375 0.930 . S
O380 Co369 2.039 . S
O380 C370 1.265 . S
C381 O377 1.253 . S
C381 O382 1.227 . S
O382 C381 1.227 . S
N383 Co369 2.140 . S
N383 C386 1.346 . S
N383 C387 1.345 . S
C384 C385 1.387 . S
C384 C388 1.391 . S
C385 C384 1.387 . S
C385 C386 1.369 . S
C385 H394 0.929 . S
C386 N383 1.346 . S
C386 C385 1.369 . S
C386 H389 0.928 . S
C387 N383 1.345 . S
C387 C388 1.371 . S
C387 H390 0.931 . S
C388 C384 1.391 . S
C388 C387 1.371 . S
C388 H395 0.930 . S
H389 C386 0.928 . S
H390 C387 0.931 . S
H391 C367 0.930 . S
H392 C364 0.930 . S
H393 C373 0.930 . S
H394 C385 0.929 . S
H395 C388 0.930 . S
C396 C397 1.349 . S
C396 C398 1.327 . S
C396 H421 0.950 . S
C397 C396 1.349 . S
C397 C413 1.349 . S
C398 C396 1.327 . S
C398 C417 1.429 . S
C398 H422 0.950 . S
C399 C416 1.574 . S
C399 C418 1.368 1_556 S
C399 H423 0.949 . S
H400 C404 0.949 . S
C401 C402 1.349 . S
C401 C403 1.327 . S
C401 H424 0.950 . S
C402 C401 1.349 . S
C402 C414 1.349 . S
C403 C401 1.327 . S
C403 C419 1.429 . S
C403 H425 0.950 . S
C404 H400 0.949 . S
C404 C412 1.574 . S
C404 C420 1.368 1_554 S
H405 C413 0.950 . S
H406 C411 0.950 . S
H407 C412 0.949 . S
H408 C414 0.950 . S
H409 C415 0.950 . S
H410 C416 0.949 . S
C411 H406 0.950 . S
C411 C413 1.327 . S
C411 C417 1.429 . S
C412 C404 1.574 . S
C412 H407 0.949 . S
C412 C418 1.368 . S
C413 C397 1.349 . S
C413 H405 0.950 . S
C413 C411 1.327 . S
C414 C402 1.349 . S
C414 H408 0.950 . S
C414 C415 1.327 . S
C415 H409 0.950 . S
C415 C414 1.327 . S
C415 C419 1.429 . S
C416 C399 1.574 . S
C416 H410 0.949 . S
C416 C420 1.368 . S
C417 C398 1.429 . S
C417 C411 1.429 . S
C417 C418 1.523 . S
C418 C399 1.368 1_554 S
C418 C412 1.368 . S
C418 C417 1.523 . S
C419 C403 1.429 . S
C419 C415 1.429 . S
C419 C420 1.523 . S
C420 C404 1.368 1_556 S
C420 C416 1.368 . S
C420 C419 1.523 . S
H421 C396 0.950 . S
H422 C398 0.950 . S
H423 C399 0.949 . S
H424 C401 0.950 . S
H425 C403 0.950 . S
C426 C427 1.349 . S
C426 C428 1.327 . S
C426 H451 0.950 . S
C427 C426 1.349 . S
C427 C443 1.349 . S
C428 C426 1.327 . S
C428 C447 1.429 . S
C428 H452 0.950 . S
C429 C446 1.574 . S
C429 C448 1.368 . S
C429 H453 0.949 . S
H430 C434 0.949 . S
C431 C432 1.349 . S
C431 C433 1.327 . S
C431 H454 0.950 . S
C432 C431 1.349 . S
C432 C444 1.349 . S
C433 C431 1.327 . S
C433 C449 1.429 . S
C433 H455 0.950 . S
C434 H430 0.949 . S
C434 C442 1.574 . S
C434 C450 1.368 . S
H435 C443 0.950 . S
H436 C441 0.950 . S
H437 C442 0.949 . S
H438 C444 0.950 . S
H439 C445 0.950 . S
H440 C446 0.949 . S
C441 H436 0.950 . S
C441 C443 1.327 . S
C441 C447 1.429 . S
C442 C434 1.574 . S
C442 H437 0.949 . S
C442 C448 1.368 . S
C443 C427 1.349 . S
C443 H435 0.950 . S
C443 C441 1.327 . S
C444 C432 1.349 . S
C444 H438 0.950 . S
C444 C445 1.327 . S
C445 H439 0.950 . S
C445 C444 1.327 . S
C445 C449 1.429 . S
C446 C429 1.574 . S
C446 H440 0.949 . S
C446 C450 1.368 . S
C447 C428 1.429 . S
C447 C441 1.429 . S
C447 C448 1.523 . S
C448 C429 1.368 . S
C448 C442 1.368 . S
C448 C447 1.523 . S
C449 C433 1.429 . S
C449 C445 1.429 . S
C449 C450 1.523 . S
C450 C434 1.368 . S
C450 C446 1.368 . S
C450 C449 1.523 . S
H451 C426 0.950 . S
H452 C428 0.950 . S
H453 C429 0.949 . S
H454 C431 0.950 . S
H455 C433 0.950 . S
C456 C457 1.349 . S
C456 C458 1.327 . S
C456 H481 0.950 . S
C457 C456 1.349 . S
C457 C473 1.349 . S
C458 C456 1.327 . S
C458 C477 1.429 . S
C458 H482 0.950 . S
C459 C476 1.574 1_554 S
C459 C478 1.368 . S
C459 H483 0.949 . S
H460 C464 0.949 . S
C461 C462 1.349 . S
C461 C463 1.327 . S
C461 H484 0.950 . S
C462 C461 1.349 . S
C462 C474 1.349 . S
C463 C461 1.327 . S
C463 C479 1.429 . S
C463 H485 0.950 . S
C464 H460 0.949 . S
C464 C472 1.574 1_556 S
C464 C480 1.368 . S
H465 C473 0.950 . S
H466 C471 0.950 . S
H467 C472 0.949 . S
H468 C474 0.950 . S
H469 C475 0.950 . S
H470 C476 0.949 . S
C471 H466 0.950 . S
C471 C473 1.327 . S
C471 C477 1.429 . S
C472 C464 1.574 1_554 S
C472 H467 0.949 . S
C472 C478 1.368 . S
C473 C457 1.349 . S
C473 H465 0.950 . S
C473 C471 1.327 . S
C474 C462 1.349 . S
C474 H468 0.950 . S
C474 C475 1.327 . S
C475 H469 0.950 . S
C475 C474 1.327 . S
C475 C479 1.429 . S
C476 C459 1.574 1_556 S
C476 H470 0.949 . S
C476 C480 1.368 . S
C477 C458 1.429 . S
C477 C471 1.429 . S
C477 C478 1.523 . S
C478 C459 1.368 . S
C478 C472 1.368 . S
C478 C477 1.523 . S
C479 C463 1.429 . S
C479 C475 1.429 . S
C479 C480 1.523 . S
C480 C464 1.368 . S
C480 C476 1.368 . S
C480 C479 1.523 . S
H481 C456 0.950 . S
H482 C458 0.950 . S
H483 C459 0.949 . S
H484 C461 0.950 . S
H485 C463 0.950 . S
C486 C487 1.349 . S
C486 C488 1.327 . S
C486 H511 0.950 . S
C487 C486 1.349 . S
C487 C503 1.349 . S
C488 C486 1.327 . S
C488 C507 1.429 . S
C488 H512 0.950 . S
C489 C506 1.574 . S
C489 C508 1.368 . S
C489 H513 0.949 . S
H490 C494 0.949 . S
C491 C492 1.349 . S
C491 C493 1.327 . S
C491 H514 0.950 . S
C492 C491 1.349 . S
C492 C504 1.349 . S
C493 C491 1.327 . S
C493 C509 1.429 . S
C493 H515 0.950 . S
C494 H490 0.949 . S
C494 C502 1.574 . S
C494 C510 1.368 . S
H495 C503 0.950 . S
H496 C501 0.950 . S
H497 C502 0.949 . S
H498 C504 0.950 . S
H499 C505 0.950 . S
H500 C506 0.949 . S
C501 H496 0.950 . S
C501 C503 1.327 . S
C501 C507 1.429 . S
C502 C494 1.574 . S
C502 H497 0.949 . S
C502 C508 1.368 . S
C503 C487 1.349 . S
C503 H495 0.950 . S
C503 C501 1.327 . S
C504 C492 1.349 . S
C504 H498 0.950 . S
C504 C505 1.327 . S
C505 H499 0.950 . S
C505 C504 1.327 . S
C505 C509 1.429 . S
C506 C489 1.574 . S
C506 H500 0.949 . S
C506 C510 1.368 . S
C507 C488 1.429 . S
C507 C501 1.429 . S
C507 C508 1.523 . S
C508 C489 1.368 . S
C508 C502 1.368 . S
C508 C507 1.523 . S
C509 C493 1.429 . S
C509 C505 1.429 . S
C509 C510 1.523 . S
C510 C494 1.368 . S
C510 C506 1.368 . S
C510 C509 1.523 . S
H511 C486 0.950 . S
H512 C488 0.950 . S
H513 C489 0.949 . S
H514 C491 0.950 . S
H515 C493 0.950 . S
C516 C517 1.349 . S
C516 C518 1.327 . S
C516 H541 0.950 . S
C517 C516 1.349 . S
C517 C533 1.349 . S
C518 C516 1.327 . S
C518 C537 1.429 . S
C518 H542 0.950 . S
C519 C536 1.574 1_554 S
C519 C538 1.368 . S
C519 H543 0.949 . S
H520 C524 0.949 . S
C521 C522 1.349 . S
C521 C523 1.327 . S
C521 H544 0.950 . S
C522 C521 1.349 . S
C522 C534 1.349 . S
C523 C521 1.327 . S
C523 C539 1.429 . S
C523 H545 0.950 . S
C524 H520 0.949 . S
C524 C532 1.574 1_556 S
C524 C540 1.368 . S
H525 C533 0.950 . S
H526 C531 0.950 . S
H527 C532 0.949 . S
H528 C534 0.950 . S
H529 C535 0.950 . S
H530 C536 0.949 . S
C531 H526 0.950 . S
C531 C533 1.327 . S
C531 C537 1.429 . S
C532 C524 1.574 1_554 S
C532 H527 0.949 . S
C532 C538 1.368 . S
C533 C517 1.349 . S
C533 H525 0.950 . S
C533 C531 1.327 . S
C534 C522 1.349 . S
C534 H528 0.950 . S
C534 C535 1.327 . S
C535 H529 0.950 . S
C535 C534 1.327 . S
C535 C539 1.429 . S
C536 C519 1.574 1_556 S
C536 H530 0.949 . S
C536 C540 1.368 . S
C537 C518 1.429 . S
C537 C531 1.429 . S
C537 C538 1.523 . S
C538 C519 1.368 . S
C538 C532 1.368 . S
C538 C537 1.523 . S
C539 C523 1.429 . S
C539 C535 1.429 . S
C539 C540 1.523 . S
C540 C524 1.368 . S
C540 C536 1.368 . S
C540 C539 1.523 . S
H541 C516 0.950 . S
H542 C518 0.950 . S
H543 C519 0.949 . S
H544 C521 0.950 . S
H545 C523 0.950 . S
C546 C547 1.349 . S
C546 C548 1.327 . S
C546 H571 0.950 . S
C547 C546 1.349 . S
C547 C563 1.349 . S
C548 C546 1.327 . S
C548 C567 1.429 . S
C548 H572 0.950 . S
C549 C566 1.574 . S
C549 C568 1.368 . S
C549 H573 0.949 . S
H550 C554 0.949 . S
C551 C552 1.349 . S
C551 C553 1.327 . S
C551 H574 0.950 . S
C552 C551 1.349 . S
C552 C564 1.349 . S
C553 C551 1.327 . S
C553 C569 1.429 . S
C553 H575 0.950 . S
C554 H550 0.949 . S
C554 C562 1.574 . S
C554 C570 1.368 . S
H555 C563 0.950 . S
H556 C561 0.950 . S
H557 C562 0.949 . S
H558 C564 0.950 . S
H559 C565 0.950 . S
H560 C566 0.949 . S
C561 H556 0.950 . S
C561 C563 1.327 . S
C561 C567 1.429 . S
C562 C554 1.574 . S
C562 H557 0.949 . S
C562 C568 1.368 . S
C563 C547 1.349 . S
C563 H555 0.950 . S
C563 C561 1.327 . S
C564 C552 1.349 . S
C564 H558 0.950 . S
C564 C565 1.327 . S
C565 H559 0.950 . S
C565 C564 1.327 . S
C565 C569 1.429 . S
C566 C549 1.574 . S
C566 H560 0.949 . S
C566 C570 1.368 . S
C567 C548 1.429 . S
C567 C561 1.429 . S
C567 C568 1.523 . S
C568 C549 1.368 . S
C568 C562 1.368 . S
C568 C567 1.523 . S
C569 C553 1.429 . S
C569 C565 1.429 . S
C569 C570 1.523 . S
C570 C554 1.368 . S
C570 C566 1.368 . S
C570 C569 1.523 . S
H571 C546 0.950 . S
H572 C548 0.950 . S
H573 C549 0.949 . S
H574 C551 0.950 . S
H575 C553 0.950 . S
C576 C577 1.349 . S
C576 C578 1.327 . S
C576 H601 0.950 . S
C577 C576 1.349 . S
C577 C593 1.349 . S
C578 C576 1.327 . S
C578 C597 1.429 . S
C578 H602 0.950 . S
C579 C596 1.574 1_554 S
C579 C598 1.368 . S
C579 H603 0.949 . S
H580 C584 0.949 . S
C581 C582 1.349 . S
C581 C583 1.327 . S
C581 H604 0.950 . S
C582 C581 1.349 . S
C582 C594 1.349 . S
C583 C581 1.327 . S
C583 C599 1.429 . S
C583 H605 0.950 . S
C584 H580 0.949 . S
C584 C592 1.574 1_556 S
C584 C600 1.368 . S
H585 C593 0.950 . S
H586 C591 0.950 . S
H587 C592 0.949 . S
H588 C594 0.950 . S
H589 C595 0.950 . S
H590 C596 0.949 . S
C591 H586 0.950 . S
C591 C593 1.327 . S
C591 C597 1.429 . S
C592 C584 1.574 1_554 S
C592 H587 0.949 . S
C592 C598 1.368 . S
C593 C577 1.349 . S
C593 H585 0.950 . S
C593 C591 1.327 . S
C594 C582 1.349 . S
C594 H588 0.950 . S
C594 C595 1.327 . S
C595 H589 0.950 . S
C595 C594 1.327 . S
C595 C599 1.429 . S
C596 C579 1.574 1_556 S
C596 H590 0.949 . S
C596 C600 1.368 . S
C597 C578 1.429 . S
C597 C591 1.429 . S
C597 C598 1.523 . S
C598 C579 1.368 . S
C598 C592 1.368 . S
C598 C597 1.523 . S
C599 C583 1.429 . S
C599 C595 1.429 . S
C599 C600 1.523 . S
C600 C584 1.368 . S
C600 C596 1.368 . S
C600 C599 1.523 . S
H601 C576 0.950 . S
H602 C578 0.950 . S
H603 C579 0.949 . S
H604 C581 0.950 . S
H605 C583 0.950 . S
C606 C607 1.349 . S
C606 C608 1.327 . S
C606 H631 0.950 . S
C607 C606 1.349 . S
C607 C623 1.349 . S
C608 C606 1.327 . S
C608 C627 1.429 . S
C608 H632 0.950 . S
C609 C626 1.574 . S
C609 C628 1.368 . S
C609 H633 0.949 . S
H610 C614 0.949 . S
C611 C612 1.349 . S
C611 C613 1.327 . S
C611 H634 0.950 . S
C612 C611 1.349 . S
C612 C624 1.349 . S
C613 C611 1.327 . S
C613 C629 1.429 . S
C613 H635 0.950 . S
C614 H610 0.949 . S
C614 C622 1.574 . S
C614 C630 1.368 . S
H615 C623 0.950 . S
H616 C621 0.950 . S
H617 C622 0.949 . S
H618 C624 0.950 . S
H619 C625 0.950 . S
H620 C626 0.949 . S
C621 H616 0.950 . S
C621 C623 1.327 . S
C621 C627 1.429 . S
C622 C614 1.574 . S
C622 H617 0.949 . S
C622 C628 1.368 . S
C623 C607 1.349 . S
C623 H615 0.950 . S
C623 C621 1.327 . S
C624 C612 1.349 . S
C624 H618 0.950 . S
C624 C625 1.327 . S
C625 H619 0.950 . S
C625 C624 1.327 . S
C625 C629 1.429 . S
C626 C609 1.574 . S
C626 H620 0.949 . S
C626 C630 1.368 . S
C627 C608 1.429 . S
C627 C621 1.429 . S
C627 C628 1.523 . S
C628 C609 1.368 . S
C628 C622 1.368 . S
C628 C627 1.523 . S
C629 C613 1.429 . S
C629 C625 1.429 . S
C629 C630 1.523 . S
C630 C614 1.368 . S
C630 C626 1.368 . S
C630 C629 1.523 . S
H631 C606 0.950 . S
H632 C608 0.950 . S
H633 C609 0.949 . S
H634 C611 0.950 . S
H635 C613 0.950 . S
C636 C637 1.349 . S
C636 C638 1.327 . S
C636 H661 0.950 . S
C637 C636 1.349 . S
C637 C653 1.349 . S
C638 C636 1.327 . S
C638 C657 1.429 . S
C638 H662 0.950 . S
C639 C656 1.575 1_554 S
C639 C658 1.367 . S
C639 H663 0.949 . S
H640 C644 0.949 . S
C641 C642 1.349 . S
C641 C643 1.327 . S
C641 H664 0.950 . S
C642 C641 1.349 . S
C642 C654 1.349 . S
C643 C641 1.327 . S
C643 C659 1.429 . S
C643 H665 0.950 . S
C644 H640 0.949 . S
C644 C652 1.575 1_556 S
C644 C660 1.367 . S
H645 C653 0.950 . S
H646 C651 0.950 . S
H647 C652 0.949 . S
H648 C654 0.950 . S
H649 C655 0.950 . S
H650 C656 0.949 . S
C651 H646 0.950 . S
C651 C653 1.327 . S
C651 C657 1.429 . S
C652 C644 1.575 1_554 S
C652 H647 0.949 . S
C652 C658 1.368 . S
C653 C637 1.349 . S
C653 H645 0.950 . S
C653 C651 1.327 . S
C654 C642 1.349 . S
C654 H648 0.950 . S
C654 C655 1.327 . S
C655 H649 0.950 . S
C655 C654 1.327 . S
C655 C659 1.429 . S
C656 C639 1.575 1_556 S
C656 H650 0.949 . S
C656 C660 1.368 . S
C657 C638 1.429 . S
C657 C651 1.429 . S
C657 C658 1.523 . S
C658 C639 1.367 . S
C658 C652 1.368 . S
C658 C657 1.523 . S
C659 C643 1.429 . S
C659 C655 1.429 . S
C659 C660 1.523 . S
C660 C644 1.367 . S
C660 C656 1.368 . S
C660 C659 1.523 . S
H661 C636 0.950 . S
H662 C638 0.950 . S
H663 C639 0.949 . S
H664 C641 0.950 . S
H665 C643 0.950 . S
C666 C667 1.349 . S
C666 C668 1.327 . S
C666 H691 0.950 . S
C667 C666 1.349 . S
C667 C683 1.349 . S
C668 C666 1.327 . S
C668 C687 1.429 . S
C668 H692 0.950 . S
C669 C686 1.574 . S
C669 C688 1.368 . S
C669 H693 0.949 . S
H670 C674 0.949 . S
C671 C672 1.349 . S
C671 C673 1.327 . S
C671 H694 0.950 . S
C672 C671 1.349 . S
C672 C684 1.349 . S
C673 C671 1.327 . S
C673 C689 1.429 . S
C673 H695 0.950 . S
C674 H670 0.949 . S
C674 C682 1.574 . S
C674 C690 1.368 . S
H675 C683 0.950 . S
H676 C681 0.950 . S
H677 C682 0.949 . S
H678 C684 0.950 . S
H679 C685 0.950 . S
H680 C686 0.949 . S
C681 H676 0.950 . S
C681 C683 1.327 . S
C681 C687 1.429 . S
C682 C674 1.574 . S
C682 H677 0.949 . S
C682 C688 1.368 . S
C683 C667 1.349 . S
C683 H675 0.950 . S
C683 C681 1.327 . S
C684 C672 1.349 . S
C684 H678 0.950 . S
C684 C685 1.327 . S
C685 H679 0.950 . S
C685 C684 1.327 . S
C685 C689 1.429 . S
C686 C669 1.574 . S
C686 H680 0.949 . S
C686 C690 1.368 . S
C687 C668 1.429 . S
C687 C681 1.429 . S
C687 C688 1.523 . S
C688 C669 1.368 . S
C688 C682 1.368 . S
C688 C687 1.523 . S
C689 C673 1.429 . S
C689 C685 1.429 . S
C689 C690 1.523 . S
C690 C674 1.368 . S
C690 C686 1.368 . S
C690 C689 1.523 . S
H691 C666 0.950 . S
H692 C668 0.950 . S
H693 C669 0.949 . S
H694 C671 0.950 . S
H695 C673 0.950 . S
C696 C697 1.349 . S
C696 C698 1.327 . S
C696 H721 0.950 . S
C697 C696 1.349 . S
C697 C713 1.349 . S
C698 C696 1.327 . S
C698 C717 1.429 . S
C698 H722 0.950 . S
C699 C716 1.574 1_554 S
C699 C718 1.368 . S
C699 H723 0.949 . S
H700 C704 0.949 . S
C701 C702 1.349 . S
C701 C703 1.327 . S
C701 H724 0.950 . S
C702 C701 1.349 . S
C702 C714 1.349 . S
C703 C701 1.327 . S
C703 C719 1.429 . S
C703 H725 0.950 . S
C704 H700 0.949 . S
C704 C712 1.574 1_556 S
C704 C720 1.368 . S
H705 C713 0.950 . S
H706 C711 0.950 . S
H707 C712 0.949 . S
H708 C714 0.950 . S
H709 C715 0.950 . S
H710 C716 0.949 . S
C711 H706 0.950 . S
C711 C713 1.327 . S
C711 C717 1.429 . S
C712 C704 1.574 1_554 S
C712 H707 0.949 . S
C712 C718 1.368 . S
C713 C697 1.349 . S
C713 H705 0.950 . S
C713 C711 1.327 . S
C714 C702 1.349 . S
C714 H708 0.950 . S
C714 C715 1.327 . S
C715 H709 0.950 . S
C715 C714 1.327 . S
C715 C719 1.429 . S
C716 C699 1.574 1_556 S
C716 H710 0.949 . S
C716 C720 1.368 . S
C717 C698 1.429 . S
C717 C711 1.429 . S
C717 C718 1.523 . S
C718 C699 1.368 . S
C718 C712 1.368 . S
C718 C717 1.523 . S
C719 C703 1.429 . S
C719 C715 1.429 . S
C719 C720 1.523 . S
C720 C704 1.368 . S
C720 C716 1.368 . S
C720 C719 1.523 . S
H721 C696 0.950 . S
H722 C698 0.950 . S
H723 C699 0.949 . S
H724 C701 0.950 . S
H725 C703 0.950 . S
C726 C727 1.349 . S
C726 C728 1.327 . S
C726 H751 0.950 . S
C727 C726 1.349 . S
C727 C743 1.349 . S
C728 C726 1.327 . S
C728 C747 1.429 . S
C728 H752 0.950 . S
C729 C746 1.574 . S
C729 C748 1.368 . S
C729 H753 0.949 . S
H730 C734 0.949 . S
C731 C732 1.349 . S
C731 C733 1.327 . S
C731 H754 0.950 . S
C732 C731 1.349 . S
C732 C744 1.349 . S
C733 C731 1.327 . S
C733 C749 1.429 . S
C733 H755 0.950 . S
C734 H730 0.949 . S
C734 C742 1.574 . S
C734 C750 1.368 . S
H735 C743 0.950 . S
H736 C741 0.950 . S
H737 C742 0.949 . S
H738 C744 0.950 . S
H739 C745 0.950 . S
H740 C746 0.949 . S
C741 H736 0.950 . S
C741 C743 1.327 . S
C741 C747 1.429 . S
C742 C734 1.574 . S
C742 H737 0.949 . S
C742 C748 1.368 . S
C743 C727 1.349 . S
C743 H735 0.950 . S
C743 C741 1.327 . S
C744 C732 1.349 . S
C744 H738 0.950 . S
C744 C745 1.327 . S
C745 H739 0.950 . S
C745 C744 1.327 . S
C745 C749 1.429 . S
C746 C729 1.574 . S
C746 H740 0.949 . S
C746 C750 1.368 . S
C747 C728 1.429 . S
C747 C741 1.429 . S
C747 C748 1.523 . S
C748 C729 1.368 . S
C748 C742 1.368 . S
C748 C747 1.523 . S
C749 C733 1.429 . S
C749 C745 1.429 . S
C749 C750 1.523 . S
C750 C734 1.368 . S
C750 C746 1.368 . S
C750 C749 1.523 . S
H751 C726 0.950 . S
H752 C728 0.950 . S
H753 C729 0.949 . S
H754 C731 0.950 . S
H755 C733 0.950 . S
C756 C757 1.349 . S
C756 C758 1.327 . S
C756 H781 0.950 . S
C757 C756 1.349 . S
C757 C773 1.349 . S
C758 C756 1.327 . S
C758 C777 1.429 . S
C758 H782 0.950 . S
C759 C776 1.574 1_556 S
C759 C778 1.368 . S
C759 H783 0.949 . S
H760 C764 0.949 . S
C761 C762 1.349 . S
C761 C763 1.327 . S
C761 H784 0.950 . S
C762 C761 1.349 . S
C762 C774 1.349 . S
C763 C761 1.327 . S
C763 C779 1.429 . S
C763 H785 0.950 . S
C764 H760 0.949 . S
C764 C772 1.574 1_554 S
C764 C780 1.368 . S
H765 C773 0.950 . S
H766 C771 0.950 . S
H767 C772 0.949 . S
H768 C774 0.950 . S
H769 C775 0.950 . S
H770 C776 0.949 . S
C771 H766 0.950 . S
C771 C773 1.327 . S
C771 C777 1.429 . S
C772 C764 1.574 1_556 S
C772 H767 0.949 . S
C772 C778 1.368 . S
C773 C757 1.349 . S
C773 H765 0.950 . S
C773 C771 1.327 . S
C774 C762 1.349 . S
C774 H768 0.950 . S
C774 C775 1.327 . S
C775 H769 0.950 . S
C775 C774 1.327 . S
C775 C779 1.429 . S
C776 C759 1.574 1_554 S
C776 H770 0.949 . S
C776 C780 1.368 . S
C777 C758 1.429 . S
C777 C771 1.429 . S
C777 C778 1.523 . S
C778 C759 1.368 . S
C778 C772 1.368 . S
C778 C777 1.523 . S
C779 C763 1.429 . S
C779 C775 1.429 . S
C779 C780 1.523 . S
C780 C764 1.368 . S
C780 C776 1.368 . S
C780 C779 1.523 . S
H781 C756 0.950 . S
H782 C758 0.950 . S
H783 C759 0.949 . S
H784 C761 0.950 . S
H785 C763 0.950 . S
C786 C787 1.349 . S
C786 C788 1.327 . S
C786 H811 0.950 . S
C787 C786 1.349 . S
C787 C803 1.349 . S
C788 C786 1.327 . S
C788 C807 1.429 . S
C788 H812 0.950 . S
C789 C806 1.574 . S
C789 C808 1.368 . S
C789 H813 0.949 . S
H790 C794 0.949 . S
C791 C792 1.349 . S
C791 C793 1.327 . S
C791 H814 0.950 . S
C792 C791 1.349 . S
C792 C804 1.349 . S
C793 C791 1.327 . S
C793 C809 1.429 . S
C793 H815 0.950 . S
C794 H790 0.949 . S
C794 C802 1.574 . S
C794 C810 1.368 . S
H795 C803 0.950 . S
H796 C801 0.950 . S
H797 C802 0.949 . S
H798 C804 0.950 . S
H799 C805 0.950 . S
H800 C806 0.949 . S
C801 H796 0.950 . S
C801 C803 1.327 . S
C801 C807 1.429 . S
C802 C794 1.574 . S
C802 H797 0.949 . S
C802 C808 1.368 . S
C803 C787 1.349 . S
C803 H795 0.950 . S
C803 C801 1.327 . S
C804 C792 1.349 . S
C804 H798 0.950 . S
C804 C805 1.327 . S
C805 H799 0.950 . S
C805 C804 1.327 . S
C805 C809 1.429 . S
C806 C789 1.574 . S
C806 H800 0.949 . S
C806 C810 1.368 . S
C807 C788 1.429 . S
C807 C801 1.429 . S
C807 C808 1.523 . S
C808 C789 1.368 . S
C808 C802 1.368 . S
C808 C807 1.523 . S
C809 C793 1.429 . S
C809 C805 1.429 . S
C809 C810 1.523 . S
C810 C794 1.368 . S
C810 C806 1.368 . S
C810 C809 1.523 . S
H811 C786 0.950 . S
H812 C788 0.950 . S
H813 C789 0.949 . S
H814 C791 0.950 . S
H815 C793 0.950 . S
C816 C817 1.349 . S
C816 C818 1.327 . S
C816 H841 0.950 . S
C817 C816 1.349 . S
C817 C833 1.349 . S
C818 C816 1.327 . S
C818 C837 1.429 . S
C818 H842 0.950 . S
C819 C836 1.574 . S
C819 C838 1.368 1_556 S
C819 H843 0.949 . S
H820 C824 0.949 . S
C821 C822 1.349 . S
C821 C823 1.327 . S
C821 H844 0.950 . S
C822 C821 1.349 . S
C822 C834 1.349 . S
C823 C821 1.327 . S
C823 C839 1.429 . S
C823 H845 0.950 . S
C824 H820 0.949 . S
C824 C832 1.574 . S
C824 C840 1.368 1_554 S
H825 C833 0.950 . S
H826 C831 0.950 . S
H827 C832 0.949 . S
H828 C834 0.950 . S
H829 C835 0.950 . S
H830 C836 0.949 . S
C831 H826 0.950 . S
C831 C833 1.327 . S
C831 C837 1.429 . S
C832 C824 1.574 . S
C832 H827 0.949 . S
C832 C838 1.368 . S
C833 C817 1.349 . S
C833 H825 0.950 . S
C833 C831 1.327 . S
C834 C822 1.349 . S
C834 H828 0.950 . S
C834 C835 1.327 . S
C835 H829 0.950 . S
C835 C834 1.327 . S
C835 C839 1.429 . S
C836 C819 1.574 . S
C836 H830 0.949 . S
C836 C840 1.368 . S
C837 C818 1.429 . S
C837 C831 1.429 . S
C837 C838 1.523 . S
C838 C819 1.368 1_554 S
C838 C832 1.368 . S
C838 C837 1.523 . S
C839 C823 1.429 . S
C839 C835 1.429 . S
C839 C840 1.523 . S
C840 C824 1.368 1_556 S
C840 C836 1.368 . S
C840 C839 1.523 . S
H841 C816 0.950 . S
H842 C818 0.950 . S
H843 C819 0.949 . S
H844 C821 0.950 . S
H845 C823 0.950 . S
C846 C847 1.349 . S
C846 C848 1.327 . S
C846 H871 0.950 . S
C847 C846 1.349 . S
C847 C863 1.349 . S
C848 C846 1.327 . S
C848 C867 1.429 . S
C848 H872 0.950 . S
C849 C866 1.574 . S
C849 C868 1.368 . S
C849 H873 0.949 . S
H850 C854 0.949 . S
C851 C852 1.349 . S
C851 C853 1.327 . S
C851 H874 0.950 . S
C852 C851 1.349 . S
C852 C864 1.349 . S
C853 C851 1.327 . S
C853 C869 1.429 . S
C853 H875 0.950 . S
C854 H850 0.949 . S
C854 C862 1.574 . S
C854 C870 1.368 . S
H855 C863 0.950 . S
H856 C861 0.950 . S
H857 C862 0.949 . S
H858 C864 0.950 . S
H859 C865 0.950 . S
H860 C866 0.949 . S
C861 H856 0.950 . S
C861 C863 1.327 . S
C861 C867 1.429 . S
C862 C854 1.574 . S
C862 H857 0.949 . S
C862 C868 1.368 . S
C863 C847 1.349 . S
C863 H855 0.950 . S
C863 C861 1.327 . S
C864 C852 1.349 . S
C864 H858 0.950 . S
C864 C865 1.327 . S
C865 H859 0.950 . S
C865 C864 1.327 . S
C865 C869 1.429 . S
C866 C849 1.574 . S
C866 H860 0.949 . S
C866 C870 1.368 . S
C867 C848 1.429 . S
C867 C861 1.429 . S
C867 C868 1.523 . S
C868 C849 1.368 . S
C868 C862 1.368 . S
C868 C867 1.523 . S
C869 C853 1.429 . S
C869 C865 1.429 . S
C869 C870 1.523 . S
C870 C854 1.368 . S
C870 C866 1.368 . S
C870 C869 1.523 . S
H871 C846 0.950 . S
H872 C848 0.950 . S
H873 C849 0.949 . S
H874 C851 0.950 . S
H875 C853 0.950 . S
C876 C877 1.349 . S
C876 C878 1.327 . S
C876 H901 0.950 . S
C877 C876 1.349 . S
C877 C893 1.349 . S
C878 C876 1.327 . S
C878 C897 1.429 . S
C878 H902 0.950 . S
C879 C896 1.574 . S
C879 C898 1.368 1_556 S
C879 H903 0.949 . S
H880 C884 0.949 . S
C881 C882 1.349 . S
C881 C883 1.327 . S
C881 H904 0.950 . S
C882 C881 1.349 . S
C882 C894 1.349 . S
C883 C881 1.327 . S
C883 C899 1.429 . S
C883 H905 0.950 . S
C884 H880 0.949 . S
C884 C892 1.574 . S
C884 C900 1.368 1_554 S
H885 C893 0.950 . S
H886 C891 0.950 . S
H887 C892 0.949 . S
H888 C894 0.950 . S
H889 C895 0.950 . S
H890 C896 0.949 . S
C891 H886 0.950 . S
C891 C893 1.327 . S
C891 C897 1.429 . S
C892 C884 1.574 . S
C892 H887 0.949 . S
C892 C898 1.368 . S
C893 C877 1.349 . S
C893 H885 0.950 . S
C893 C891 1.327 . S
C894 C882 1.349 . S
C894 H888 0.950 . S
C894 C895 1.327 . S
C895 H889 0.950 . S
C895 C894 1.327 . S
C895 C899 1.429 . S
C896 C879 1.574 . S
C896 H890 0.949 . S
C896 C900 1.368 . S
C897 C878 1.429 . S
C897 C891 1.429 . S
C897 C898 1.523 . S
C898 C879 1.368 1_554 S
C898 C892 1.368 . S
C898 C897 1.523 . S
C899 C883 1.429 . S
C899 C895 1.429 . S
C899 C900 1.523 . S
C900 C884 1.368 1_556 S
C900 C896 1.368 . S
C900 C899 1.523 . S
H901 C876 0.950 . S
H902 C878 0.950 . S
H903 C879 0.949 . S
H904 C881 0.950 . S
H905 C883 0.950 . S
C906 C907 1.349 . S
C906 C908 1.327 . S
C906 H931 0.950 . S
C907 C906 1.349 . S
C907 C923 1.349 . S
C908 C906 1.327 . S
C908 C927 1.429 . S
C908 H932 0.950 . S
C909 C926 1.574 . S
C909 C928 1.368 . S
C909 H933 0.949 . S
H910 C914 0.949 . S
C911 C912 1.349 . S
C911 C913 1.327 . S
C911 H934 0.950 . S
C912 C911 1.349 . S
C912 C924 1.349 . S
C913 C911 1.327 . S
C913 C929 1.429 . S
C913 H935 0.950 . S
C914 H910 0.949 . S
C914 C922 1.574 . S
C914 C930 1.368 . S
H915 C923 0.950 . S
H916 C921 0.950 . S
H917 C922 0.949 . S
H918 C924 0.950 . S
H919 C925 0.950 . S
H920 C926 0.949 . S
C921 H916 0.950 . S
C921 C923 1.327 . S
C921 C927 1.429 . S
C922 C914 1.574 . S
C922 H917 0.949 . S
C922 C928 1.368 . S
C923 C907 1.349 . S
C923 H915 0.950 . S
C923 C921 1.327 . S
C924 C912 1.349 . S
C924 H918 0.950 . S
C924 C925 1.327 . S
C925 H919 0.950 . S
C925 C924 1.327 . S
C925 C929 1.429 . S
C926 C909 1.574 . S
C926 H920 0.949 . S
C926 C930 1.368 . S
C927 C908 1.429 . S
C927 C921 1.429 . S
C927 C928 1.523 . S
C928 C909 1.368 . S
C928 C922 1.368 . S
C928 C927 1.523 . S
C929 C913 1.429 . S
C929 C925 1.429 . S
C929 C930 1.523 . S
C930 C914 1.368 . S
C930 C926 1.368 . S
C930 C929 1.523 . S
H931 C906 0.950 . S
H932 C908 0.950 . S
H933 C909 0.949 . S
H934 C911 0.950 . S
H935 C913 0.950 . S
C936 C937 1.349 . S
C936 C938 1.327 . S
C936 H961 0.950 . S
C937 C936 1.349 . S
C937 C953 1.349 . S
C938 C936 1.327 . S
C938 C957 1.429 . S
C938 H962 0.950 . S
C939 C956 1.574 1_556 S
C939 C958 1.368 . S
C939 H963 0.949 . S
H940 C944 0.949 . S
C941 C942 1.349 . S
C941 C943 1.327 . S
C941 H964 0.950 . S
C942 C941 1.349 . S
C942 C954 1.349 . S
C943 C941 1.327 . S
C943 C959 1.429 . S
C943 H965 0.950 . S
C944 H940 0.949 . S
C944 C952 1.574 1_554 S
C944 C960 1.368 . S
H945 C953 0.950 . S
H946 C951 0.950 . S
H947 C952 0.949 . S
H948 C954 0.950 . S
H949 C955 0.950 . S
H950 C956 0.949 . S
C951 H946 0.950 . S
C951 C953 1.327 . S
C951 C957 1.429 . S
C952 C944 1.574 1_556 S
C952 H947 0.949 . S
C952 C958 1.368 . S
C953 C937 1.349 . S
C953 H945 0.950 . S
C953 C951 1.327 . S
C954 C942 1.349 . S
C954 H948 0.950 . S
C954 C955 1.327 . S
C955 H949 0.950 . S
C955 C954 1.327 . S
C955 C959 1.429 . S
C956 C939 1.574 1_554 S
C956 H950 0.949 . S
C956 C960 1.368 . S
C957 C938 1.429 . S
C957 C951 1.429 . S
C957 C958 1.523 . S
C958 C939 1.368 . S
C958 C952 1.368 . S
C958 C957 1.523 . S
C959 C943 1.429 . S
C959 C955 1.429 . S
C959 C960 1.523 . S
C960 C944 1.368 . S
C960 C956 1.368 . S
C960 C959 1.523 . S
H961 C936 0.950 . S
H962 C938 0.950 . S
H963 C939 0.949 . S
H964 C941 0.950 . S
H965 C943 0.950 . S
C966 C967 1.349 . S
C966 C968 1.327 . S
C966 H991 0.950 . S
C967 C966 1.349 . S
C967 C983 1.349 . S
C968 C966 1.327 . S
C968 C987 1.429 . S
C968 H992 0.950 . S
C969 C986 1.574 . S
C969 C988 1.368 . S
C969 H993 0.949 . S
H970 C974 0.949 . S
C971 C972 1.349 . S
C971 C973 1.327 . S
C971 H994 0.950 . S
C972 C971 1.349 . S
C972 C984 1.349 . S
C973 C971 1.327 . S
C973 C989 1.429 . S
C973 H995 0.950 . S
C974 H970 0.949 . S
C974 C982 1.574 . S
C974 C990 1.368 . S
H975 C983 0.950 . S
H976 C981 0.950 . S
H977 C982 0.949 . S
H978 C984 0.950 . S
H979 C985 0.950 . S
H980 C986 0.949 . S
C981 H976 0.950 . S
C981 C983 1.327 . S
C981 C987 1.429 . S
C982 C974 1.574 . S
C982 H977 0.949 . S
C982 C988 1.368 . S
C983 C967 1.349 . S
C983 H975 0.950 . S
C983 C981 1.327 . S
C984 C972 1.349 . S
C984 H978 0.950 . S
C984 C985 1.327 . S
C985 H979 0.950 . S
C985 C984 1.327 . S
C985 C989 1.429 . S
C986 C969 1.574 . S
C986 H980 0.949 . S
C986 C990 1.368 . S
C987 C968 1.429 . S
C987 C981 1.429 . S
C987 C988 1.523 . S
C988 C969 1.368 . S
C988 C982 1.368 . S
C988 C987 1.523 . S
C989 C973 1.429 . S
C989 C985 1.429 . S
C989 C990 1.523 . S
C990 C974 1.368 . S
C990 C986 1.368 . S
C990 C989 1.523 . S
H991 C966 0.950 . S
H992 C968 0.950 . S
H993 C969 0.949 . S
H994 C971 0.950 . S
H995 C973 0.950 . S
C996 C997 1.349 . S
C996 C998 1.327 . S
C996 H1021 0.950 . S
C997 C996 1.349 . S
C997 C1013 1.349 . S
C998 C996 1.327 . S
C998 C1017 1.429 . S
C998 H1022 0.950 . S
C999 C1016 1.574 1_554 S
C999 C1018 1.368 . S
C999 H1023 0.949 . S
H1000 C1004 0.949 . S
C1001 C1002 1.349 . S
C1001 C1003 1.327 . S
C1001 H1024 0.950 . S
C1002 C1001 1.349 . S
C1002 C1014 1.349 . S
C1003 C1001 1.327 . S
C1003 C1019 1.429 . S
C1003 H1025 0.950 . S
C1004 H1000 0.949 . S
C1004 C1012 1.574 1_556 S
C1004 C1020 1.368 . S
H1005 C1013 0.950 . S
H1006 C1011 0.950 . S
H1007 C1012 0.949 . S
H1008 C1014 0.950 . S
H1009 C1015 0.950 . S
H1010 C1016 0.949 . S
C1011 H1006 0.950 . S
C1011 C1013 1.327 . S
C1011 C1017 1.429 . S
C1012 C1004 1.574 1_554 S
C1012 H1007 0.949 . S
C1012 C1018 1.368 . S
C1013 C997 1.349 . S
C1013 H1005 0.950 . S
C1013 C1011 1.327 . S
C1014 C1002 1.349 . S
C1014 H1008 0.950 . S
C1014 C1015 1.327 . S
C1015 H1009 0.950 . S
C1015 C1014 1.327 . S
C1015 C1019 1.429 . S
C1016 C999 1.574 1_556 S
C1016 H1010 0.949 . S
C1016 C1020 1.368 . S
C1017 C998 1.429 . S
C1017 C1011 1.429 . S
C1017 C1018 1.523 . S
C1018 C999 1.368 . S
C1018 C1012 1.368 . S
C1018 C1017 1.523 . S
C1019 C1003 1.429 . S
C1019 C1015 1.429 . S
C1019 C1020 1.523 . S
C1020 C1004 1.368 . S
C1020 C1016 1.368 . S
C1020 C1019 1.523 . S
H1021 C996 0.950 . S
H1022 C998 0.950 . S
H1023 C999 0.949 . S
H1024 C1001 0.950 . S
H1025 C1003 0.950 . S
C1026 C1027 1.349 . S
C1026 C1028 1.327 . S
C1026 H1051 0.950 . S
C1027 C1026 1.349 . S
C1027 C1043 1.349 . S
C1028 C1026 1.327 . S
C1028 C1047 1.429 . S
C1028 H1052 0.950 . S
C1029 C1046 1.574 . S
C1029 C1048 1.368 . S
C1029 H1053 0.949 . S
H1030 C1034 0.949 . S
C1031 C1032 1.349 . S
C1031 C1033 1.327 . S
C1031 H1054 0.950 . S
C1032 C1031 1.349 . S
C1032 C1044 1.349 . S
C1033 C1031 1.327 . S
C1033 C1049 1.429 . S
C1033 H1055 0.950 . S
C1034 H1030 0.949 . S
C1034 C1042 1.574 . S
C1034 C1050 1.368 . S
H1035 C1043 0.950 . S
H1036 C1041 0.950 . S
H1037 C1042 0.949 . S
H1038 C1044 0.950 . S
H1039 C1045 0.950 . S
H1040 C1046 0.949 . S
C1041 H1036 0.950 . S
C1041 C1043 1.327 . S
C1041 C1047 1.429 . S
C1042 C1034 1.574 . S
C1042 H1037 0.949 . S
C1042 C1048 1.368 . S
C1043 C1027 1.349 . S
C1043 H1035 0.950 . S
C1043 C1041 1.327 . S
C1044 C1032 1.349 . S
C1044 H1038 0.950 . S
C1044 C1045 1.327 . S
C1045 H1039 0.950 . S
C1045 C1044 1.327 . S
C1045 C1049 1.429 . S
C1046 C1029 1.574 . S
C1046 H1040 0.949 . S
C1046 C1050 1.368 . S
C1047 C1028 1.429 . S
C1047 C1041 1.429 . S
C1047 C1048 1.523 . S
C1048 C1029 1.368 . S
C1048 C1042 1.368 . S
C1048 C1047 1.523 . S
C1049 C1033 1.429 . S
C1049 C1045 1.429 . S
C1049 C1050 1.523 . S
C1050 C1034 1.368 . S
C1050 C1046 1.368 . S
C1050 C1049 1.523 . S
H1051 C1026 0.950 . S
H1052 C1028 0.950 . S
H1053 C1029 0.949 . S
H1054 C1031 0.950 . S
H1055 C1033 0.950 . S
C1056 C1057 1.349 . S
C1056 C1058 1.327 . S
C1056 H1081 0.950 . S
C1057 C1056 1.349 . S
C1057 C1073 1.349 . S
C1058 C1056 1.327 . S
C1058 C1077 1.429 . S
C1058 H1082 0.950 . S
C1059 C1076 1.594 . S
C1059 C1078 1.368 . S
C1059 H1083 0.949 . S
H1060 C1064 0.949 . S
C1061 C1062 1.349 . S
C1061 C1063 1.327 . S
C1061 H1084 0.950 . S
C1062 C1061 1.349 . S
C1062 C1074 1.349 . S
C1063 C1061 1.327 . S
C1063 C1079 1.429 . S
C1063 H1085 0.950 . S
C1064 H1060 0.949 . S
C1064 C1072 1.594 . S
C1064 C1080 1.368 . S
H1065 C1073 0.950 . S
H1066 C1071 0.950 . S
H1067 C1072 0.949 . S
H1068 C1074 0.950 . S
H1069 C1075 0.950 . S
H1070 C1076 0.949 . S
C1071 H1066 0.950 . S
C1071 C1073 1.327 . S
C1071 C1077 1.429 . S
C1072 C1064 1.594 . S
C1072 H1067 0.949 . S
C1072 C1078 1.348 1_556 S
C1073 C1057 1.349 . S
C1073 H1065 0.950 . S
C1073 C1071 1.327 . S
C1074 C1062 1.349 . S
C1074 H1068 0.950 . S
C1074 C1075 1.327 . S
C1075 H1069 0.950 . S
C1075 C1074 1.327 . S
C1075 C1079 1.429 . S
C1076 C1059 1.594 . S
C1076 H1070 0.949 . S
C1076 C1080 1.348 1_554 S
C1077 C1058 1.429 . S
C1077 C1071 1.429 . S
C1077 C1078 1.523 . S
C1078 C1059 1.368 . S
C1078 C1072 1.348 1_554 S
C1078 C1077 1.523 . S
C1079 C1063 1.429 . S
C1079 C1075 1.429 . S
C1079 C1080 1.523 . S
C1080 C1064 1.368 . S
C1080 C1076 1.348 1_556 S
C1080 C1079 1.523 . S
H1081 C1056 0.950 . S
H1082 C1058 0.950 . S
H1083 C1059 0.949 . S
H1084 C1061 0.950 . S
H1085 C1063 0.950 . S
C1086 C1087 1.349 . S
C1086 C1088 1.327 . S
C1086 H1111 0.950 . S
C1087 C1086 1.349 . S
C1087 C1103 1.349 . S
C1088 C1086 1.327 . S
C1088 C1107 1.429 . S
C1088 H1112 0.950 . S
C1089 C1106 1.574 . S
C1089 C1108 1.368 . S
C1089 H1113 0.949 . S
H1090 C1094 0.949 . S
C1091 C1092 1.349 . S
C1091 C1093 1.327 . S
C1091 H1114 0.950 . S
C1092 C1091 1.349 . S
C1092 C1104 1.349 . S
C1093 C1091 1.327 . S
C1093 C1109 1.429 . S
C1093 H1115 0.950 . S
C1094 H1090 0.949 . S
C1094 C1102 1.574 . S
C1094 C1110 1.368 . S
H1095 C1103 0.950 . S
H1096 C1101 0.950 . S
H1097 C1102 0.949 . S
H1098 C1104 0.950 . S
H1099 C1105 0.950 . S
H1100 C1106 0.949 . S
C1101 H1096 0.950 . S
C1101 C1103 1.327 . S
C1101 C1107 1.429 . S
C1102 C1094 1.574 . S
C1102 H1097 0.949 . S
C1102 C1108 1.368 . S
C1103 C1087 1.349 . S
C1103 H1095 0.950 . S
C1103 C1101 1.327 . S
C1104 C1092 1.349 . S
C1104 H1098 0.950 . S
C1104 C1105 1.327 . S
C1105 H1099 0.950 . S
C1105 C1104 1.327 . S
C1105 C1109 1.429 . S
C1106 C1089 1.574 . S
C1106 H1100 0.949 . S
C1106 C1110 1.368 . S
C1107 C1088 1.429 . S
C1107 C1101 1.429 . S
C1107 C1108 1.523 . S
C1108 C1089 1.368 . S
C1108 C1102 1.368 . S
C1108 C1107 1.523 . S
C1109 C1093 1.429 . S
C1109 C1105 1.429 . S
C1109 C1110 1.523 . S
C1110 C1094 1.368 . S
C1110 C1106 1.368 . S
C1110 C1109 1.523 . S
H1111 C1086 0.950 . S
H1112 C1088 0.950 . S
H1113 C1089 0.949 . S
H1114 C1091 0.950 . S
H1115 C1093 0.950 . S
C1116 C1117 1.349 . S
C1116 C1118 1.327 . S
C1116 H1141 0.950 . S
C1117 C1116 1.349 . S
C1117 C1133 1.349 . S
C1118 C1116 1.327 . S
C1118 C1137 1.429 . S
C1118 H1142 0.950 . S
C1119 C1136 1.574 . S
C1119 C1138 1.368 . S
C1119 H1143 0.949 . S
H1120 C1124 0.949 . S
C1121 C1122 1.349 . S
C1121 C1123 1.327 . S
C1121 H1144 0.950 . S
C1122 C1121 1.349 . S
C1122 C1134 1.349 . S
C1123 C1121 1.327 . S
C1123 C1139 1.429 . S
C1123 H1145 0.950 . S
C1124 H1120 0.949 . S
C1124 C1132 1.574 . S
C1124 C1140 1.368 . S
H1125 C1133 0.950 . S
H1126 C1131 0.950 . S
H1127 C1132 0.949 . S
H1128 C1134 0.950 . S
H1129 C1135 0.950 . S
H1130 C1136 0.949 . S
C1131 H1126 0.950 . S
C1131 C1133 1.327 . S
C1131 C1137 1.429 . S
C1132 C1124 1.574 . S
C1132 H1127 0.949 . S
C1132 C1138 1.368 . S
C1133 C1117 1.349 . S
C1133 H1125 0.950 . S
C1133 C1131 1.327 . S
C1134 C1122 1.349 . S
C1134 H1128 0.950 . S
C1134 C1135 1.327 . S
C1135 H1129 0.950 . S
C1135 C1134 1.327 . S
C1135 C1139 1.429 . S
C1136 C1119 1.574 . S
C1136 H1130 0.949 . S
C1136 C1140 1.368 . S
C1137 C1118 1.429 . S
C1137 C1131 1.429 . S
C1137 C1138 1.523 . S
C1138 C1119 1.368 . S
C1138 C1132 1.368 . S
C1138 C1137 1.523 . S
C1139 C1123 1.429 . S
C1139 C1135 1.429 . S
C1139 C1140 1.523 . S
C1140 C1124 1.368 . S
C1140 C1136 1.368 . S
C1140 C1139 1.523 . S
H1141 C1116 0.950 . S
H1142 C1118 0.950 . S
H1143 C1119 0.949 . S
H1144 C1121 0.950 . S
H1145 C1123 0.950 . S
C1146 C1147 1.349 . S
C1146 C1148 1.327 . S
C1146 H1171 0.950 . S
C1147 C1146 1.349 . S
C1147 C1163 1.349 . S
C1148 C1146 1.327 . S
C1148 C1167 1.429 . S
C1148 H1172 0.950 . S
C1149 C1166 1.574 1_455 S
C1149 C1168 1.368 . S
C1149 H1173 0.949 . S
H1150 C1154 0.949 . S
C1151 C1152 1.349 . S
C1151 C1153 1.327 . S
C1151 H1174 0.950 . S
C1152 C1151 1.349 . S
C1152 C1164 1.349 . S
C1153 C1151 1.327 . S
C1153 C1169 1.429 . S
C1153 H1175 0.950 . S
C1154 H1150 0.949 . S
C1154 C1162 1.574 1_655 S
C1154 C1170 1.368 . S
H1155 C1163 0.950 . S
H1156 C1161 0.950 . S
H1157 C1162 0.949 . S
H1158 C1164 0.950 . S
H1159 C1165 0.950 . S
H1160 C1166 0.949 . S
C1161 H1156 0.950 . S
C1161 C1163 1.327 . S
C1161 C1167 1.429 . S
C1162 C1154 1.574 1_455 S
C1162 H1157 0.949 . S
C1162 C1168 1.368 . S
C1163 C1147 1.349 . S
C1163 H1155 0.950 . S
C1163 C1161 1.327 . S
C1164 C1152 1.349 . S
C1164 H1158 0.950 . S
C1164 C1165 1.327 . S
C1165 H1159 0.950 . S
C1165 C1164 1.327 . S
C1165 C1169 1.429 . S
C1166 C1149 1.574 1_655 S
C1166 H1160 0.949 . S
C1166 C1170 1.368 . S
C1167 C1148 1.429 . S
C1167 C1161 1.429 . S
C1167 C1168 1.523 . S
C1168 C1149 1.368 . S
C1168 C1162 1.368 . S
C1168 C1167 1.523 . S
C1169 C1153 1.429 . S
C1169 C1165 1.429 . S
C1169 C1170 1.523 . S
C1170 C1154 1.368 . S
C1170 C1166 1.368 . S
C1170 C1169 1.523 . S
H1171 C1146 0.950 . S
H1172 C1148 0.950 . S
H1173 C1149 0.949 . S
H1174 C1151 0.950 . S
H1175 C1153 0.950 . S
C1176 C1177 1.349 . S
C1176 C1178 1.327 . S
C1176 H1201 0.950 . S
C1177 C1176 1.349 . S
C1177 C1193 1.349 . S
C1178 C1176 1.327 . S
C1178 C1197 1.429 . S
C1178 H1202 0.950 . S
C1179 C1196 1.574 1_545 S
C1179 C1198 1.368 . S
C1179 H1203 0.949 . S
H1180 C1184 0.949 . S
C1181 C1182 1.349 . S
C1181 C1183 1.327 . S
C1181 H1204 0.950 . S
C1182 C1181 1.349 . S
C1182 C1194 1.349 . S
C1183 C1181 1.327 . S
C1183 C1199 1.429 . S
C1183 H1205 0.950 . S
C1184 H1180 0.949 . S
C1184 C1192 1.574 1_565 S
C1184 C1200 1.368 . S
H1185 C1193 0.950 . S
H1186 C1191 0.950 . S
H1187 C1192 0.949 . S
H1188 C1194 0.950 . S
H1189 C1195 0.950 . S
H1190 C1196 0.949 . S
C1191 H1186 0.950 . S
C1191 C1193 1.327 . S
C1191 C1197 1.429 . S
C1192 C1184 1.574 1_545 S
C1192 H1187 0.949 . S
C1192 C1198 1.368 . S
C1193 C1177 1.349 . S
C1193 H1185 0.950 . S
C1193 C1191 1.327 . S
C1194 C1182 1.349 . S
C1194 H1188 0.950 . S
C1194 C1195 1.327 . S
C1195 H1189 0.950 . S
C1195 C1194 1.327 . S
C1195 C1199 1.429 . S
C1196 C1179 1.574 1_565 S
C1196 H1190 0.949 . S
C1196 C1200 1.368 . S
C1197 C1178 1.429 . S
C1197 C1191 1.429 . S
C1197 C1198 1.523 . S
C1198 C1179 1.368 . S
C1198 C1192 1.368 . S
C1198 C1197 1.523 . S
C1199 C1183 1.429 . S
C1199 C1195 1.429 . S
C1199 C1200 1.523 . S
C1200 C1184 1.368 . S
C1200 C1196 1.368 . S
C1200 C1199 1.523 . S
H1201 C1176 0.950 . S
H1202 C1178 0.950 . S
H1203 C1179 0.949 . S
H1204 C1181 0.950 . S
H1205 C1183 0.950 . S
C1206 C1207 1.349 . S
C1206 C1208 1.327 . S
C1206 H1231 0.950 . S
C1207 C1206 1.349 . S
C1207 C1223 1.349 . S
C1208 C1206 1.327 . S
C1208 C1227 1.429 . S
C1208 H1232 0.950 . S
C1209 C1226 1.574 . S
C1209 C1228 1.368 . S
C1209 H1233 0.949 . S
H1210 C1214 0.949 . S
C1211 C1212 1.349 . S
C1211 C1213 1.327 . S
C1211 H1234 0.950 . S
C1212 C1211 1.349 . S
C1212 C1224 1.349 . S
C1213 C1211 1.327 . S
C1213 C1229 1.429 . S
C1213 H1235 0.950 . S
C1214 H1210 0.949 . S
C1214 C1222 1.574 . S
C1214 C1230 1.368 . S
H1215 C1223 0.950 . S
H1216 C1221 0.950 . S
H1217 C1222 0.949 . S
H1218 C1224 0.950 . S
H1219 C1225 0.950 . S
H1220 C1226 0.949 . S
C1221 H1216 0.950 . S
C1221 C1223 1.327 . S
C1221 C1227 1.429 . S
C1222 C1214 1.574 . S
C1222 H1217 0.949 . S
C1222 C1228 1.368 . S
C1223 C1207 1.349 . S
C1223 H1215 0.950 . S
C1223 C1221 1.327 . S
C1224 C1212 1.349 . S
C1224 H1218 0.950 . S
C1224 C1225 1.327 . S
C1225 H1219 0.950 . S
C1225 C1224 1.327 . S
C1225 C1229 1.429 . S
C1226 C1209 1.574 . S
C1226 H1220 0.949 . S
C1226 C1230 1.368 . S
C1227 C1208 1.429 . S
C1227 C1221 1.429 . S
C1227 C1228 1.523 . S
C1228 C1209 1.368 . S
C1228 C1222 1.368 . S
C1228 C1227 1.523 . S
C1229 C1213 1.429 . S
C1229 C1225 1.429 . S
C1229 C1230 1.523 . S
C1230 C1214 1.368 . S
C1230 C1226 1.368 . S
C1230 C1229 1.523 . S
H1231 C1206 0.950 . S
H1232 C1208 0.950 . S
H1233 C1209 0.949 . S
H1234 C1211 0.950 . S
H1235 C1213 0.950 . S
C1236 C1237 1.349 . S
C1236 C1238 1.327 . S
C1236 H1261 0.950 . S
C1237 C1236 1.349 . S
C1237 C1253 1.349 . S
C1238 C1236 1.327 . S
C1238 C1257 1.429 . S
C1238 H1262 0.950 . S
C1239 C1256 1.574 1_455 S
C1239 C1258 1.368 . S
C1239 H1263 0.949 . S
H1240 C1244 0.949 . S
C1241 C1242 1.349 . S
C1241 C1243 1.327 . S
C1241 H1264 0.950 . S
C1242 C1241 1.349 . S
C1242 C1254 1.349 . S
C1243 C1241 1.327 . S
C1243 C1259 1.429 . S
C1243 H1265 0.950 . S
C1244 H1240 0.949 . S
C1244 C1252 1.574 1_655 S
C1244 C1260 1.368 . S
H1245 C1253 0.950 . S
H1246 C1251 0.950 . S
H1247 C1252 0.949 . S
H1248 C1254 0.950 . S
H1249 C1255 0.950 . S
H1250 C1256 0.949 . S
C1251 H1246 0.950 . S
C1251 C1253 1.327 . S
C1251 C1257 1.429 . S
C1252 C1244 1.574 1_455 S
C1252 H1247 0.949 . S
C1252 C1258 1.368 . S
C1253 C1237 1.349 . S
C1253 H1245 0.950 . S
C1253 C1251 1.327 . S
C1254 C1242 1.349 . S
C1254 H1248 0.950 . S
C1254 C1255 1.327 . S
C1255 H1249 0.950 . S
C1255 C1254 1.327 . S
C1255 C1259 1.429 . S
C1256 C1239 1.574 1_655 S
C1256 H1250 0.949 . S
C1256 C1260 1.368 . S
C1257 C1238 1.429 . S
C1257 C1251 1.429 . S
C1257 C1258 1.523 . S
C1258 C1239 1.368 . S
C1258 C1252 1.368 . S
C1258 C1257 1.523 . S
C1259 C1243 1.429 . S
C1259 C1255 1.429 . S
C1259 C1260 1.523 . S
C1260 C1244 1.368 . S
C1260 C1256 1.368 . S
C1260 C1259 1.523 . S
H1261 C1236 0.950 . S
H1262 C1238 0.950 . S
H1263 C1239 0.949 . S
H1264 C1241 0.950 . S
H1265 C1243 0.950 . S
C1266 C1267 1.349 . S
C1266 C1268 1.327 . S
C1266 H1291 0.950 . S
C1267 C1266 1.349 . S
C1267 C1283 1.349 . S
C1268 C1266 1.327 . S
C1268 C1287 1.429 . S
C1268 H1292 0.950 . S
C1269 C1286 1.574 1_565 S
C1269 C1288 1.368 . S
C1269 H1293 0.949 . S
H1270 C1274 0.949 . S
C1271 C1272 1.349 . S
C1271 C1273 1.327 . S
C1271 H1294 0.950 . S
C1272 C1271 1.349 . S
C1272 C1284 1.349 . S
C1273 C1271 1.327 . S
C1273 C1289 1.429 . S
C1273 H1295 0.950 . S
C1274 H1270 0.949 . S
C1274 C1282 1.574 1_545 S
C1274 C1290 1.368 . S
H1275 C1283 0.950 . S
H1276 C1281 0.950 . S
H1277 C1282 0.949 . S
H1278 C1284 0.950 . S
H1279 C1285 0.950 . S
H1280 C1286 0.949 . S
C1281 H1276 0.950 . S
C1281 C1283 1.327 . S
C1281 C1287 1.429 . S
C1282 C1274 1.574 1_565 S
C1282 H1277 0.949 . S
C1282 C1288 1.368 . S
C1283 C1267 1.349 . S
C1283 H1275 0.950 . S
C1283 C1281 1.327 . S
C1284 C1272 1.349 . S
C1284 H1278 0.950 . S
C1284 C1285 1.327 . S
C1285 H1279 0.950 . S
C1285 C1284 1.327 . S
C1285 C1289 1.429 . S
C1286 C1269 1.574 1_545 S
C1286 H1280 0.949 . S
C1286 C1290 1.368 . S
C1287 C1268 1.429 . S
C1287 C1281 1.429 . S
C1287 C1288 1.523 . S
C1288 C1269 1.368 . S
C1288 C1282 1.368 . S
C1288 C1287 1.523 . S
C1289 C1273 1.429 . S
C1289 C1285 1.429 . S
C1289 C1290 1.523 . S
C1290 C1274 1.368 . S
C1290 C1286 1.368 . S
C1290 C1289 1.523 . S
H1291 C1266 0.950 . S
H1292 C1268 0.950 . S
H1293 C1269 0.949 . S
H1294 C1271 0.950 . S
H1295 C1273 0.950 . S
C397 C7 2.317 . S
C402 C205 2.317 . S
C427 C40 2.317 . S
C432 C238 2.317 . S
C457 C73 2.317 . S
C462 C271 2.317 . S
C487 C304 2.317 . S
C492 C106 2.317 . S
C517 C139 2.317 . S
C522 C337 2.317 . S
C547 C370 2.317 . S
C552 C172 2.317 . S
C577 N310 0.940 . S
C582 N112 0.940 . S
C607 N145 0.940 . S
C612 N343 0.940 . S
C637 N376 0.940 . S
C642 N178 0.940 . S
C667 N211 0.940 . S
C672 N13 0.940 . S
C697 N244 0.940 . S
C702 N46 0.940 . S
C727 N79 0.940 . S
C732 N277 0.940 . S
C757 N332 0.746 . S
C762 N2 0.746 . S
C787 N35 0.746 . S
C792 N365 0.746 . S
C817 N68 0.746 . S
C822 N200 0.746 . S
C847 N101 0.746 . S
C852 N233 0.746 . S
C877 N134 0.746 . S
C882 N266 0.746 . S
C907 N167 0.746 . S
C912 N299 0.746 . S
C937 C117 1.670 . S
C942 C249 1.670 . S
C967 C150 1.670 . S
C972 C282 1.670 . S
C997 C315 1.670 . S
C1002 C183 1.670 . S
C1027 C18 1.670 . S
C1032 C348 1.670 . S
C1057 C381 1.670 . S
C1062 C51 1.670 . S
C1087 C84 1.670 . S
C1092 C216 1.670 . S
C1117 C21 1.121 . S
C1122 C318 1.121 . S
C1147 C351 1.121 . S
C1152 C54 1.121 . S
C1177 C384 1.121 . S
C1182 C87 1.121 . S
C1207 C219 1.121 . S
C1212 C120 1.121 . S
C1237 C153 1.121 . S
C1242 C252 1.121 . S
C1267 C285 1.121 . S
C1272 C186 1.121 . S
