# Generated by pormake.
# Topology uog, (4)-cn, num edge types: 1
# Building blocks:
#     Node 0, Type 0, BuildingBlock: CEKHIL_clean_sbu_0, # of connection points: 4
#     Node 1, Type 0, BuildingBlock: CEKHIL_clean_sbu_0, # of connection points: 4
#     Node 2, Type 0, BuildingBlock: CEKHIL_clean_sbu_0, # of connection points: 4
#     Node 3, Type 0, BuildingBlock: CEKHIL_clean_sbu_0, # of connection points: 4
#     Node 4, Type 0, BuildingBlock: CEKHIL_clean_sbu_0, # of connection points: 4
#     Node 5, Type 0, BuildingBlock: CEKHIL_clean_sbu_0, # of connection points: 4
#     Edge 6, Type (0, 0), BuildingBlock: KIFKEQ_clean_linker_1, # of connection points: 2
#     Edge 7, Type (0, 0), BuildingBlock: KIFKEQ_clean_linker_1, # of connection points: 2
#     Edge 8, Type (0, 0), BuildingBlock: KIFKEQ_clean_linker_1, # of connection points: 2
#     Edge 9, Type (0, 0), BuildingBlock: KIFKEQ_clean_linker_1, # of connection points: 2
#     Edge 10, Type (0, 0), BuildingBlock: KIFKEQ_clean_linker_1, # of connection points: 2
#     Edge 11, Type (0, 0), BuildingBlock: KIFKEQ_clean_linker_1, # of connection points: 2
#     Edge 12, Type (0, 0), BuildingBlock: KIFKEQ_clean_linker_1, # of connection points: 2
#     Edge 13, Type (0, 0), BuildingBlock: KIFKEQ_clean_linker_1, # of connection points: 2
#     Edge 14, Type (0, 0), BuildingBlock: KIFKEQ_clean_linker_1, # of connection points: 2
#     Edge 15, Type (0, 0), BuildingBlock: KIFKEQ_clean_linker_1, # of connection points: 2
#     Edge 16, Type (0, 0), BuildingBlock: KIFKEQ_clean_linker_1, # of connection points: 2
#     Edge 17, Type (0, 0), BuildingBlock: KIFKEQ_clean_linker_1, # of connection points: 2
# Relax obj value: 0.071
# Max RMSD: 0.168
# Mean RMSD: 0.168
data_MOF--net-uog--node1-CEKHIL_clean_sbu_0--edge1-KIFKEQ_clean_linker_1
_symmetry_space_group_name_H-M    P1
_symmetry_Int_Tables_number       1
_symmetry_cell_setting            triclinic
loop_
_symmetry_equiv_pos_as_xyz
'x, y, z'
_cell_length_a     28.892571
_cell_length_b     28.823008
_cell_length_c     43.142211
_cell_angle_alpha  90.021781
_cell_angle_beta   90.18089
_cell_angle_gamma 120.0467
loop_
_atom_site_label
_atom_site_type_symbol
_atom_site_fract_x
_atom_site_fract_y
_atom_site_fract_z
_atom_type_partial_charge
Co0 Co 0.61357 0.2942 0.16113 0.0
O1 O 0.62884 0.2372 0.15725 0.0
O2 O 0.5526 0.23054 0.14262 0.0
C3 C 0.64185 0.31299 0.21063 0.0
O4 O 0.58682 0.34846 0.16307 0.0
Co5 Co 0.7115 0.40566 0.16906 0.0
O6 O 0.65746 0.42604 0.17934 0.0
C7 C 0.68457 0.35977 0.10691 0.0
C8 C 0.58184 0.2079 0.14552 0.0
C9 C 0.60811 0.3978 0.17228 0.0
O10 O 0.643 0.32016 0.11874 0.0
O11 O 0.72064 0.39776 0.12331 0.0
O12 O 0.5937 0.27579 0.20382 0.0
O13 O 0.67377 0.33444 0.18724 0.0
Co14 Co 0.29831 0.59026 0.492 0.0
O15 O 0.36837 0.5998 0.49511 0.0
O16 O 0.30064 0.52944 0.47305 0.0
C17 C 0.29474 0.61201 0.54156 0.0
O18 O 0.21928 0.56948 0.48633 0.0
Co19 Co 0.29326 0.69298 0.49815 0.0
O20 O 0.21543 0.64342 0.49886 0.0
C21 C 0.32544 0.67092 0.4389 0.0
C22 C 0.35132 0.55509 0.48053 0.0
C23 C 0.19283 0.59416 0.49119 0.0
O24 O 0.31735 0.6269 0.45087 0.0
O25 O 0.32027 0.70602 0.45422 0.0
O26 O 0.28195 0.56359 0.53372 0.0
O27 O 0.31529 0.64766 0.51974 0.0
Co28 Co 0.72647 0.31368 0.82672 0.0
O29 O 0.78535 0.38528 0.8253 0.0
O30 O 0.78828 0.31554 0.80666 0.0
C31 C 0.70835 0.31784 0.8772 0.0
O32 O 0.66994 0.23332 0.82548 0.0
Co33 Co 0.61776 0.30539 0.83678 0.0
O34 O 0.59166 0.22771 0.83838 0.0
C35 C 0.66291 0.32917 0.77459 0.0
C36 C 0.81266 0.36721 0.81152 0.0
C37 C 0.61912 0.20594 0.83103 0.0
O38 O 0.70141 0.32395 0.78534 0.0
O39 O 0.62603 0.32725 0.79181 0.0
O40 O 0.74386 0.30551 0.8688 0.0
O41 O 0.68844 0.33276 0.85489 0.0
Co42 Co 0.42535 0.72708 0.16134 0.0
O43 O 0.41422 0.78695 0.16246 0.0
O44 O 0.48708 0.79106 0.14381 0.0
C45 C 0.39957 0.70182 0.2104 0.0
O46 O 0.44769 0.66938 0.15826 0.0
Co47 Co 0.32327 0.61804 0.16589 0.0
O48 O 0.37424 0.59217 0.1718 0.0
C49 C 0.3503 0.67122 0.10601 0.0
C50 C 0.46024 0.81548 0.14964 0.0
C51 C 0.42365 0.61869 0.16484 0.0
O52 O 0.3926 0.70834 0.119 0.0
O53 O 0.31449 0.63089 0.12091 0.0
O54 O 0.44821 0.73829 0.20399 0.0
O55 O 0.366 0.68604 0.18737 0.0
Co56 Co 0.68061 0.41092 0.49354 0.0
O57 O 0.60789 0.3944 0.49102 0.0
O58 O 0.67578 0.46878 0.47271 0.0
C59 C 0.67696 0.38966 0.54404 0.0
O60 O 0.76179 0.43899 0.49343 0.0
Co61 Co 0.69767 0.31588 0.50485 0.0
O62 O 0.77143 0.37277 0.51441 0.0
C63 C 0.67554 0.33568 0.44161 0.0
C64 C 0.62428 0.43951 0.47704 0.0
C65 C 0.79116 0.42052 0.50442 0.0
O66 O 0.6733 0.37583 0.45246 0.0
O67 O 0.68304 0.3039 0.45886 0.0
O68 O 0.68629 0.43658 0.53535 0.0
O69 O 0.66443 0.35462 0.52194 0.0
Co70 Co 0.29182 0.69289 0.82713 0.0
O71 O 0.23233 0.62187 0.83065 0.0
O72 O 0.22706 0.68914 0.81005 0.0
C73 C 0.32144 0.69776 0.87575 0.0
O74 O 0.34803 0.77268 0.82132 0.0
Co75 Co 0.40175 0.70224 0.82998 0.0
O76 O 0.42814 0.77992 0.83106 0.0
C77 C 0.34359 0.6693 0.77167 0.0
C78 C 0.20318 0.63837 0.81731 0.0
C79 C 0.3994 0.8008 0.82492 0.0
O80 O 0.30729 0.67497 0.78506 0.0
O81 O 0.38557 0.67623 0.78578 0.0
O82 O 0.28399 0.70864 0.86944 0.0
O83 O 0.3356 0.67778 0.85314 0.0
H84 H 0.48216 0.12771 0.12585 0.0
H85 H 0.64132 0.15938 0.14796 0.0
H86 H 0.45313 0.03244 0.11938 0.0
H87 H 0.61233 0.06534 0.14293 0.0
H88 H 0.55476 0.89208 0.12227 0.0
H89 H 0.58306 0.98674 0.11329 0.0
H90 H 0.43507 0.96142 0.15312 0.0
H91 H 0.40664 0.86822 0.16091 0.0
C92 C 0.51097 0.11451 0.12904 0.0
C93 C 0.56377 0.15111 0.1378 0.0
C94 C 0.4944 0.05988 0.12556 0.0
C95 C 0.53024 0.04076 0.13097 0.0
C96 C 0.58361 0.07813 0.13817 0.0
C97 C 0.6001 0.13236 0.14141 0.0
C98 C 0.5283 0.90688 0.12877 0.0
C99 C 0.47874 0.87258 0.14255 0.0
C100 C 0.54442 0.96112 0.12372 0.0
C101 C 0.51135 0.98208 0.13246 0.0
C102 C 0.46132 0.94705 0.14546 0.0
C103 C 0.44528 0.89331 0.15032 0.0
H104 H 0.33351 0.46117 0.45192 0.0
H105 H 0.45764 0.60942 0.49167 0.0
H106 H 0.40013 0.43361 0.44229 0.0
H107 H 0.52261 0.58186 0.48304 0.0
H108 H 0.64204 0.53727 0.45531 0.0
H109 H 0.57483 0.56448 0.4479 0.0
H110 H 0.45025 0.40506 0.47274 0.0
H111 H 0.51641 0.37781 0.4789 0.0
C112 C 0.37479 0.48784 0.45847 0.0
C113 C 0.38996 0.53713 0.47286 0.0
C114 C 0.41302 0.47217 0.45302 0.0
C115 C 0.46704 0.50559 0.46182 0.0
C116 C 0.48195 0.55542 0.47532 0.0
C117 C 0.44415 0.57092 0.48069 0.0
C118 C 0.6002 0.50796 0.45855 0.0
C119 C 0.58478 0.45575 0.46821 0.0
C120 C 0.56161 0.52349 0.4545 0.0
C121 C 0.50694 0.48714 0.46015 0.0
C122 C 0.49161 0.43411 0.4679 0.0
C123 C 0.52992 0.41866 0.4718 0.0
H124 H 0.89275 0.34616 0.79478 0.0
H125 H 0.86026 0.47522 0.81003 0.0
H126 H 0.9881 0.41212 0.7891 0.0
H127 H 0.9543 0.54015 0.80554 0.0
H128 H 0.14931 0.53365 0.83344 0.0
H129 H 0.05653 0.46799 0.82471 0.0
H130 H 0.03413 0.58654 0.77622 0.0
H131 H 0.12815 0.65367 0.78589 0.0
C132 C 0.90578 0.38844 0.79648 0.0
C133 C 0.86907 0.40531 0.80333 0.0
C134 C 0.9604 0.42632 0.79347 0.0
C135 C 0.9792 0.48167 0.79726 0.0
C136 C 0.94169 0.49822 0.80218 0.0
C137 C 0.88752 0.46065 0.80511 0.0
C138 C 0.1249 0.54603 0.82077 0.0
C139 C 0.14618 0.59929 0.81064 0.0
C140 C 0.07152 0.50785 0.81539 0.0
C141 C 0.03755 0.52153 0.79958 0.0
C142 C 0.05901 0.57462 0.78875 0.0
C143 C 0.11283 0.61317 0.79426 0.0
H144 H 0.13277 0.63961 0.47757 0.0
H145 H 0.11879 0.4864 0.49793 0.0
H146 H 0.03651 0.59969 0.47976 0.0
H147 H 0.02111 0.44561 0.4994 0.0
H148 H 0.86151 0.40979 0.54126 0.0
H149 H 0.95726 0.44898 0.53436 0.0
H150 H 0.95144 0.53983 0.45632 0.0
H151 H 0.85489 0.50078 0.4636 0.0
C152 C 0.10899 0.59702 0.48214 0.0
C153 C 0.13366 0.5663 0.48801 0.0
C154 C 0.05353 0.57405 0.48314 0.0
C155 C 0.02085 0.51955 0.49009 0.0
C156 C 0.04521 0.48803 0.49452 0.0
C157 C 0.1011 0.51114 0.49336 0.0
C158 C 0.88065 0.43861 0.52279 0.0
C159 C 0.85044 0.4522 0.50298 0.0
C160 C 0.93558 0.46053 0.51859 0.0
C161 C 0.96211 0.49674 0.4944 0.0
C162 C 0.93234 0.51204 0.47524 0.0
C163 C 0.87707 0.49006 0.47952 0.0
H164 H 0.49984 0.86347 0.80326 0.0
H165 H 0.36548 0.87192 0.83995 0.0
H166 H 0.55317 0.96055 0.80285 0.0
H167 H 0.41969 0.96983 0.84082 0.0
H168 H 0.51477 0.1448 0.8152 0.0
H169 H 0.46125 0.04824 0.81126 0.0
H170 H 0.59947 0.03507 0.83567 0.0
H171 H 0.65399 0.13298 0.83836 0.0
C172 C 0.48165 0.88626 0.81125 0.0
C173 C 0.42839 0.85999 0.82171 0.0
C174 C 0.51254 0.9421 0.81132 0.0
C175 C 0.49136 0.97352 0.82221 0.0
C176 C 0.43743 0.9472 0.83193 0.0
C177 C 0.40616 0.89102 0.83146 0.0
C178 C 0.53397 0.12141 0.81972 0.0
C179 C 0.58873 0.14671 0.82736 0.0
C180 C 0.50296 0.06574 0.81765 0.0
C181 C 0.52547 0.0333 0.82351 0.0
C182 C 0.58064 0.0586 0.83065 0.0
C183 C 0.61204 0.11475 0.83232 0.0
H184 H 0.53259 0.65511 0.16124 0.0
H185 H 0.37854 0.51019 0.1662 0.0
H186 H 0.57605 0.6005 0.16209 0.0
H187 H 0.42143 0.45679 0.16769 0.0
H188 H 0.51346 0.37106 0.14208 0.0
H189 H 0.47078 0.42589 0.13773 0.0
H190 H 0.59091 0.54455 0.19845 0.0
H191 H 0.6335 0.49056 0.20252 0.0
C192 C 0.50803 0.6119 0.16241 0.0
C193 C 0.45207 0.58744 0.16388 0.0
C194 C 0.53284 0.58052 0.16308 0.0
C195 C 0.5022 0.52404 0.16502 0.0
C196 C 0.44638 0.49989 0.1658 0.0
C197 C 0.42179 0.53095 0.16525 0.0
C198 C 0.53023 0.40844 0.15482 0.0
C199 C 0.57696 0.42623 0.17258 0.0
C200 C 0.50599 0.44011 0.15224 0.0
C201 C 0.52787 0.4902 0.1674 0.0
C202 C 0.57368 0.50704 0.18581 0.0
C203 C 0.59777 0.47557 0.18839 0.0
H204 H 0.63958 0.34593 0.90453 0.0
H205 H 0.76373 0.30842 0.92511 0.0
H206 H 0.63467 0.36312 0.95996 0.0
H207 H 0.75923 0.32612 0.97962 0.0
H208 H 0.77472 0.41164 0.07077 0.0
H209 H 0.77962 0.40629 0.01421 0.0
H210 H 0.60799 0.30566 0.00953 0.0
H211 H 0.60294 0.3106 0.0656 0.0
C212 C 0.66563 0.34132 0.92078 0.0
C213 C 0.70194 0.32581 0.91044 0.0
C214 C 0.66299 0.35129 0.95239 0.0
C215 C 0.69724 0.34676 0.97395 0.0
C216 C 0.73318 0.33103 0.96349 0.0
C217 C 0.73526 0.32035 0.93222 0.0
C218 C 0.73811 0.38891 0.05759 0.0
C219 C 0.68862 0.36099 0.07268 0.0
C220 C 0.74086 0.38574 0.0253 0.0
C221 C 0.69411 0.35542 0.00756 0.0
C222 C 0.64455 0.32961 0.02255 0.0
C223 C 0.64186 0.33207 0.05473 0.0
H224 H 0.46209 0.70308 0.257 0.0
H225 H 0.30291 0.67343 0.23735 0.0
H226 H 0.44392 0.697 0.31227 0.0
H227 H 0.28441 0.66717 0.2933 0.0
H228 H 0.30679 0.73092 0.39633 0.0
H229 H 0.32048 0.73341 0.34 0.0
H230 H 0.38535 0.62798 0.35035 0.0
H231 H 0.37236 0.62582 0.40599 0.0
C232 C 0.4228 0.69433 0.26458 0.0
C233 C 0.38379 0.68849 0.243 0.0
C234 C 0.41244 0.69093 0.29622 0.0
C235 C 0.36293 0.68204 0.30706 0.0
C236 C 0.32315 0.67468 0.28549 0.0
C237 C 0.33338 0.67745 0.25358 0.0
C238 C 0.32466 0.709 0.38651 0.0
C239 C 0.3387 0.6784 0.40556 0.0
C240 C 0.33174 0.70976 0.35433 0.0
C241 C 0.35361 0.68055 0.34087 0.0
C242 C 0.36858 0.651 0.36007 0.0
C243 C 0.36113 0.64984 0.39197 0.0
H244 H 0.71745 0.30768 0.73093 0.0
H245 H 0.60307 0.36175 0.74094 0.0
H246 H 0.71604 0.31694 0.67503 0.0
H247 H 0.60195 0.37111 0.68452 0.0
H248 H 0.68053 0.45278 0.59145 0.0
H249 H 0.67171 0.43355 0.64647 0.0
H250 H 0.65427 0.2783 0.62811 0.0
H251 H 0.66284 0.29751 0.5722 0.0
C252 C 0.69191 0.32156 0.72124 0.0
C253 C 0.66074 0.33458 0.74052 0.0
C254 C 0.69074 0.32622 0.68911 0.0
C255 C 0.65885 0.34459 0.67543 0.0
C256 C 0.62711 0.35704 0.69454 0.0
C257 C 0.62773 0.3517 0.72679 0.0
C258 C 0.67471 0.41436 0.59895 0.0
C259 C 0.67245 0.37658 0.57742 0.0
C260 C 0.66914 0.40325 0.63055 0.0
C261 C 0.66177 0.3543 0.64156 0.0
C262 C 0.65988 0.31642 0.62017 0.0
C263 C 0.66479 0.32732 0.58826 0.0
H264 H 0.34624 0.62853 0.90516 0.0
H265 H 0.32916 0.76738 0.91964 0.0
H266 H 0.35418 0.62112 0.96152 0.0
H267 H 0.33709 0.76023 0.97535 0.0
H268 H 0.4029 0.7608 0.07084 0.0
H269 H 0.40331 0.7681 0.0148 0.0
H270 H 0.28921 0.5989 0.00759 0.0
H271 H 0.28908 0.59114 0.06427 0.0
C272 C 0.34562 0.65816 0.92034 0.0
C273 C 0.33736 0.69865 0.90823 0.0
C274 C 0.34933 0.65349 0.95249 0.0
C275 C 0.34577 0.68984 0.97276 0.0
C276 C 0.34023 0.7318 0.96033 0.0
C277 C 0.33579 0.73596 0.92845 0.0
C278 C 0.37764 0.72501 0.05744 0.0
C279 C 0.34574 0.67534 0.07207 0.0
C280 C 0.37797 0.7293 0.02529 0.0
C281 C 0.34658 0.68404 0.00685 0.0
C282 C 0.31434 0.63429 0.02131 0.0
C283 C 0.31368 0.63001 0.0537 0.0
H284 H 0.65074 0.39046 0.3996 0.0
H285 H 0.69652 0.269 0.4058 0.0
H286 H 0.65413 0.38799 0.34357 0.0
H287 H 0.69979 0.26668 0.34908 0.0
H288 H 0.61863 0.23261 0.25029 0.0
H289 H 0.63342 0.23835 0.30604 0.0
H290 H 0.71948 0.4112 0.30019 0.0
H291 H 0.70453 0.40512 0.24376 0.0
C292 C 0.66157 0.36311 0.38906 0.0
C293 C 0.67329 0.32978 0.40736 0.0
C294 C 0.66412 0.36228 0.35684 0.0
C295 C 0.67814 0.32788 0.34191 0.0
C296 C 0.68903 0.29378 0.36001 0.0
C297 C 0.68679 0.29481 0.39246 0.0
C298 C 0.6417 0.27186 0.26086 0.0
C299 C 0.66027 0.3185 0.24294 0.0
C300 C 0.65042 0.2751 0.29275 0.0
C301 C 0.67723 0.32515 0.30754 0.0
C302 C 0.69825 0.37203 0.28936 0.0
C303 C 0.69017 0.36871 0.25716 0.0
H304 H 0.42068 0.69163 0.72762 0.0
H305 H 0.25021 0.62243 0.73963 0.0
H306 H 0.40751 0.6817 0.67122 0.0
H307 H 0.23743 0.61337 0.68389 0.0
H308 H 0.23271 0.54621 0.58676 0.0
H309 H 0.24575 0.55966 0.64243 0.0
H310 H 0.37692 0.72025 0.62734 0.0
H311 H 0.36389 0.70641 0.57103 0.0
C312 C 0.3805 0.67372 0.71829 0.0
C313 C 0.33652 0.65765 0.73806 0.0
C314 C 0.37305 0.6688 0.68606 0.0
C315 C 0.32148 0.64718 0.6732 0.0
C316 C 0.27759 0.62998 0.69309 0.0
C317 C 0.285 0.6352 0.72507 0.0
C318 C 0.26373 0.58477 0.59532 0.0
C319 C 0.29719 0.62535 0.57468 0.0
C320 C 0.27125 0.59243 0.6272 0.0
C321 C 0.31266 0.64082 0.63922 0.0
C322 C 0.34513 0.68229 0.61863 0.0
C323 C 0.3372 0.67473 0.58652 0.0
loop_
_geom_bond_atom_site_label_1
_geom_bond_atom_site_label_2
_geom_bond_distance
_geom_bond_site_symmetry_2
_ccdc_geom_bond_type
Co0 O1 2.216 . S
Co0 O2 2.091 . S
Co0 O4 2.004 . S
Co0 O10 2.021 . S
Co0 O12 2.137 . S
Co0 O13 2.244 . S
O1 Co0 2.216 . S
O1 C8 1.247 . S
O2 Co0 2.091 . S
O2 C8 1.261 . S
C3 O12 1.247 . S
C3 O13 1.272 . S
O4 Co0 2.004 . S
O4 C9 1.259 . S
Co5 O6 2.061 . S
Co5 O11 2.052 . S
Co5 O13 2.135 . S
O6 Co5 2.061 . S
O6 C9 1.235 . S
C7 O10 1.238 . S
C7 O11 1.241 . S
C8 O1 1.247 . S
C8 O2 1.261 . S
C9 O4 1.259 . S
C9 O6 1.235 . S
O10 Co0 2.021 . S
O10 C7 1.238 . S
O11 Co5 2.052 . S
O11 C7 1.241 . S
O12 Co0 2.137 . S
O12 C3 1.247 . S
O13 Co0 2.244 . S
O13 C3 1.272 . S
O13 Co5 2.135 . S
Co14 O15 2.216 . S
Co14 O16 2.091 . S
Co14 O18 2.004 . S
Co14 O24 2.021 . S
Co14 O26 2.137 . S
Co14 O27 2.244 . S
O15 Co14 2.216 . S
O15 C22 1.247 . S
O16 Co14 2.091 . S
O16 C22 1.261 . S
C17 O26 1.247 . S
C17 O27 1.272 . S
O18 Co14 2.004 . S
O18 C23 1.259 . S
Co19 O20 2.061 . S
Co19 O25 2.052 . S
Co19 O27 2.135 . S
O20 Co19 2.061 . S
O20 C23 1.235 . S
C21 O24 1.238 . S
C21 O25 1.241 . S
C22 O15 1.247 . S
C22 O16 1.261 . S
C23 O18 1.259 . S
C23 O20 1.235 . S
O24 Co14 2.021 . S
O24 C21 1.238 . S
O25 Co19 2.052 . S
O25 C21 1.241 . S
O26 Co14 2.137 . S
O26 C17 1.247 . S
O27 Co14 2.244 . S
O27 C17 1.272 . S
O27 Co19 2.135 . S
Co28 O29 2.216 . S
Co28 O30 2.091 . S
Co28 O32 2.004 . S
Co28 O38 2.021 . S
Co28 O40 2.137 . S
Co28 O41 2.244 . S
O29 Co28 2.216 . S
O29 C36 1.247 . S
O30 Co28 2.091 . S
O30 C36 1.261 . S
C31 O40 1.247 . S
C31 O41 1.272 . S
O32 Co28 2.004 . S
O32 C37 1.259 . S
Co33 O34 2.061 . S
Co33 O39 2.052 . S
Co33 O41 2.135 . S
O34 Co33 2.061 . S
O34 C37 1.235 . S
C35 O38 1.238 . S
C35 O39 1.241 . S
C36 O29 1.247 . S
C36 O30 1.261 . S
C37 O32 1.259 . S
C37 O34 1.235 . S
O38 Co28 2.021 . S
O38 C35 1.238 . S
O39 Co33 2.052 . S
O39 C35 1.241 . S
O40 Co28 2.137 . S
O40 C31 1.247 . S
O41 Co28 2.244 . S
O41 C31 1.272 . S
O41 Co33 2.135 . S
Co42 O43 2.216 . S
Co42 O44 2.091 . S
Co42 O46 2.004 . S
Co42 O52 2.021 . S
Co42 O54 2.137 . S
Co42 O55 2.244 . S
O43 Co42 2.216 . S
O43 C50 1.247 . S
O44 Co42 2.091 . S
O44 C50 1.261 . S
C45 O54 1.247 . S
C45 O55 1.272 . S
O46 Co42 2.004 . S
O46 C51 1.259 . S
Co47 O48 2.061 . S
Co47 O53 2.052 . S
Co47 O55 2.135 . S
O48 Co47 2.061 . S
O48 C51 1.235 . S
C49 O52 1.238 . S
C49 O53 1.241 . S
C50 O43 1.247 . S
C50 O44 1.261 . S
C51 O46 1.259 . S
C51 O48 1.235 . S
O52 Co42 2.021 . S
O52 C49 1.238 . S
O53 Co47 2.052 . S
O53 C49 1.241 . S
O54 Co42 2.137 . S
O54 C45 1.247 . S
O55 Co42 2.244 . S
O55 C45 1.272 . S
O55 Co47 2.135 . S
Co56 O57 2.216 . S
Co56 O58 2.091 . S
Co56 O60 2.004 . S
Co56 O66 2.021 . S
Co56 O68 2.137 . S
Co56 O69 2.244 . S
O57 Co56 2.216 . S
O57 C64 1.247 . S
O58 Co56 2.091 . S
O58 C64 1.261 . S
C59 O68 1.247 . S
C59 O69 1.272 . S
O60 Co56 2.004 . S
O60 C65 1.259 . S
Co61 O62 2.061 . S
Co61 O67 2.052 . S
Co61 O69 2.135 . S
O62 Co61 2.061 . S
O62 C65 1.235 . S
C63 O66 1.238 . S
C63 O67 1.241 . S
C64 O57 1.247 . S
C64 O58 1.261 . S
C65 O60 1.259 . S
C65 O62 1.235 . S
O66 Co56 2.021 . S
O66 C63 1.238 . S
O67 Co61 2.052 . S
O67 C63 1.241 . S
O68 Co56 2.137 . S
O68 C59 1.247 . S
O69 Co56 2.244 . S
O69 C59 1.272 . S
O69 Co61 2.135 . S
Co70 O71 2.216 . S
Co70 O72 2.091 . S
Co70 O74 2.004 . S
Co70 O80 2.021 . S
Co70 O82 2.137 . S
Co70 O83 2.244 . S
O71 Co70 2.216 . S
O71 C78 1.247 . S
O72 Co70 2.091 . S
O72 C78 1.261 . S
C73 O82 1.247 . S
C73 O83 1.272 . S
O74 Co70 2.004 . S
O74 C79 1.259 . S
Co75 O76 2.061 . S
Co75 O81 2.052 . S
Co75 O83 2.135 . S
O76 Co75 2.061 . S
O76 C79 1.235 . S
C77 O80 1.238 . S
C77 O81 1.241 . S
C78 O71 1.247 . S
C78 O72 1.261 . S
C79 O74 1.259 . S
C79 O76 1.235 . S
O80 Co70 2.021 . S
O80 C77 1.238 . S
O81 Co75 2.052 . S
O81 C77 1.241 . S
O82 Co70 2.137 . S
O82 C73 1.247 . S
O83 Co70 2.244 . S
O83 C73 1.272 . S
O83 Co75 2.135 . S
H84 C92 0.950 . S
H85 C97 0.950 . S
H86 C94 0.950 . S
H87 C96 0.950 . S
H88 C98 0.950 . S
H89 C100 0.950 . S
H90 C102 0.950 . S
H91 C103 0.950 . S
C92 H84 0.950 . S
C92 C93 1.386 . S
C92 C94 1.391 . S
C93 C92 1.386 . S
C93 C97 1.393 . S
C94 H86 0.950 . S
C94 C92 1.391 . S
C94 C95 1.400 . S
C95 C94 1.400 . S
C95 C96 1.398 . S
C95 C101 1.491 1_545 S
C96 H87 0.950 . S
C96 C95 1.398 . S
C96 C97 1.391 . S
C97 H85 0.950 . S
C97 C93 1.393 . S
C97 C96 1.391 . S
C98 H88 0.950 . S
C98 C99 1.386 . S
C98 C100 1.391 . S
C99 C98 1.386 . S
C99 C103 1.393 . S
C100 H89 0.950 . S
C100 C98 1.391 . S
C100 C101 1.400 . S
C101 C95 1.491 1_565 S
C101 C100 1.400 . S
C101 C102 1.398 . S
C102 H90 0.950 . S
C102 C101 1.398 . S
C102 C103 1.391 . S
C103 H91 0.950 . S
C103 C99 1.393 . S
C103 C102 1.391 . S
H104 C112 0.950 . S
H105 C117 0.950 . S
H106 C114 0.950 . S
H107 C116 0.950 . S
H108 C118 0.950 . S
H109 C120 0.950 . S
H110 C122 0.950 . S
H111 C123 0.950 . S
C112 H104 0.950 . S
C112 C113 1.386 . S
C112 C114 1.391 . S
C113 C112 1.386 . S
C113 C117 1.393 . S
C114 H106 0.950 . S
C114 C112 1.391 . S
C114 C115 1.400 . S
C115 C114 1.400 . S
C115 C116 1.398 . S
C115 C121 1.491 . S
C116 H107 0.950 . S
C116 C115 1.398 . S
C116 C117 1.391 . S
C117 H105 0.950 . S
C117 C113 1.393 . S
C117 C116 1.391 . S
C118 H108 0.950 . S
C118 C119 1.386 . S
C118 C120 1.391 . S
C119 C118 1.386 . S
C119 C123 1.393 . S
C120 H109 0.950 . S
C120 C118 1.391 . S
C120 C121 1.400 . S
C121 C115 1.491 . S
C121 C120 1.400 . S
C121 C122 1.398 . S
C122 H110 0.950 . S
C122 C121 1.398 . S
C122 C123 1.391 . S
C123 H111 0.950 . S
C123 C119 1.393 . S
C123 C122 1.391 . S
H124 C132 0.950 . S
H125 C137 0.950 . S
H126 C134 0.950 . S
H127 C136 0.950 . S
H128 C138 0.950 . S
H129 C140 0.950 . S
H130 C142 0.950 . S
H131 C143 0.950 . S
C132 H124 0.950 . S
C132 C133 1.386 . S
C132 C134 1.391 . S
C133 C132 1.386 . S
C133 C137 1.393 . S
C134 H126 0.950 . S
C134 C132 1.391 . S
C134 C135 1.400 . S
C135 C134 1.400 . S
C135 C136 1.398 . S
C135 C141 1.491 1_655 S
C136 H127 0.950 . S
C136 C135 1.398 . S
C136 C137 1.391 . S
C137 H125 0.950 . S
C137 C133 1.393 . S
C137 C136 1.391 . S
C138 H128 0.950 . S
C138 C139 1.386 . S
C138 C140 1.391 . S
C139 C138 1.386 . S
C139 C143 1.393 . S
C140 H129 0.950 . S
C140 C138 1.391 . S
C140 C141 1.400 . S
C141 C135 1.491 1_455 S
C141 C140 1.400 . S
C141 C142 1.398 . S
C142 H130 0.950 . S
C142 C141 1.398 . S
C142 C143 1.391 . S
C143 H131 0.950 . S
C143 C139 1.393 . S
C143 C142 1.391 . S
H144 C152 0.950 . S
H145 C157 0.950 . S
H146 C154 0.950 . S
H147 C156 0.950 . S
H148 C158 0.950 . S
H149 C160 0.950 . S
H150 C162 0.950 . S
H151 C163 0.950 . S
C152 H144 0.950 . S
C152 C153 1.386 . S
C152 C154 1.391 . S
C153 C152 1.386 . S
C153 C157 1.393 . S
C154 H146 0.950 . S
C154 C152 1.391 . S
C154 C155 1.400 . S
C155 C154 1.400 . S
C155 C156 1.398 . S
C155 C161 1.491 1_455 S
C156 H147 0.950 . S
C156 C155 1.398 . S
C156 C157 1.391 . S
C157 H145 0.950 . S
C157 C153 1.393 . S
C157 C156 1.391 . S
C158 H148 0.950 . S
C158 C159 1.386 . S
C158 C160 1.391 . S
C159 C158 1.386 . S
C159 C163 1.393 . S
C160 H149 0.950 . S
C160 C158 1.391 . S
C160 C161 1.400 . S
C161 C155 1.491 1_655 S
C161 C160 1.400 . S
C161 C162 1.398 . S
C162 H150 0.950 . S
C162 C161 1.398 . S
C162 C163 1.391 . S
C163 H151 0.950 . S
C163 C159 1.393 . S
C163 C162 1.391 . S
H164 C172 0.950 . S
H165 C177 0.950 . S
H166 C174 0.950 . S
H167 C176 0.950 . S
H168 C178 0.950 . S
H169 C180 0.950 . S
H170 C182 0.950 . S
H171 C183 0.950 . S
C172 H164 0.950 . S
C172 C173 1.386 . S
C172 C174 1.391 . S
C173 C172 1.386 . S
C173 C177 1.393 . S
C174 H166 0.950 . S
C174 C172 1.391 . S
C174 C175 1.400 . S
C175 C174 1.400 . S
C175 C176 1.398 . S
C175 C181 1.491 1_565 S
C176 H167 0.950 . S
C176 C175 1.398 . S
C176 C177 1.391 . S
C177 H165 0.950 . S
C177 C173 1.393 . S
C177 C176 1.391 . S
C178 H168 0.950 . S
C178 C179 1.386 . S
C178 C180 1.391 . S
C179 C178 1.386 . S
C179 C183 1.393 . S
C180 H169 0.950 . S
C180 C178 1.391 . S
C180 C181 1.400 . S
C181 C175 1.491 1_545 S
C181 C180 1.400 . S
C181 C182 1.398 . S
C182 H170 0.950 . S
C182 C181 1.398 . S
C182 C183 1.391 . S
C183 H171 0.950 . S
C183 C179 1.393 . S
C183 C182 1.391 . S
H184 C192 0.950 . S
H185 C197 0.950 . S
H186 C194 0.950 . S
H187 C196 0.950 . S
H188 C198 0.950 . S
H189 C200 0.950 . S
H190 C202 0.950 . S
H191 C203 0.950 . S
C192 H184 0.950 . S
C192 C193 1.386 . S
C192 C194 1.391 . S
C193 C192 1.386 . S
C193 C197 1.393 . S
C194 H186 0.950 . S
C194 C192 1.391 . S
C194 C195 1.400 . S
C195 C194 1.400 . S
C195 C196 1.398 . S
C195 C201 1.491 . S
C196 H187 0.950 . S
C196 C195 1.398 . S
C196 C197 1.391 . S
C197 H185 0.950 . S
C197 C193 1.393 . S
C197 C196 1.391 . S
C198 H188 0.950 . S
C198 C199 1.386 . S
C198 C200 1.391 . S
C199 C198 1.386 . S
C199 C203 1.393 . S
C200 H189 0.950 . S
C200 C198 1.391 . S
C200 C201 1.400 . S
C201 C195 1.491 . S
C201 C200 1.400 . S
C201 C202 1.398 . S
C202 H190 0.950 . S
C202 C201 1.398 . S
C202 C203 1.391 . S
C203 H191 0.950 . S
C203 C199 1.393 . S
C203 C202 1.391 . S
H204 C212 0.950 . S
H205 C217 0.950 . S
H206 C214 0.950 . S
H207 C216 0.950 . S
H208 C218 0.950 . S
H209 C220 0.950 . S
H210 C222 0.950 . S
H211 C223 0.950 . S
C212 H204 0.950 . S
C212 C213 1.386 . S
C212 C214 1.391 . S
C213 C212 1.386 . S
C213 C217 1.393 . S
C214 H206 0.950 . S
C214 C212 1.391 . S
C214 C215 1.400 . S
C215 C214 1.400 . S
C215 C216 1.398 . S
C215 C221 1.491 1_556 S
C216 H207 0.950 . S
C216 C215 1.398 . S
C216 C217 1.391 . S
C217 H205 0.950 . S
C217 C213 1.393 . S
C217 C216 1.391 . S
C218 H208 0.950 . S
C218 C219 1.386 . S
C218 C220 1.391 . S
C219 C218 1.386 . S
C219 C223 1.393 . S
C220 H209 0.950 . S
C220 C218 1.391 . S
C220 C221 1.400 . S
C221 C215 1.491 1_554 S
C221 C220 1.400 . S
C221 C222 1.398 . S
C222 H210 0.950 . S
C222 C221 1.398 . S
C222 C223 1.391 . S
C223 H211 0.950 . S
C223 C219 1.393 . S
C223 C222 1.391 . S
H224 C232 0.950 . S
H225 C237 0.950 . S
H226 C234 0.950 . S
H227 C236 0.950 . S
H228 C238 0.950 . S
H229 C240 0.950 . S
H230 C242 0.950 . S
H231 C243 0.950 . S
C232 H224 0.950 . S
C232 C233 1.386 . S
C232 C234 1.391 . S
C233 C232 1.386 . S
C233 C237 1.393 . S
C234 H226 0.950 . S
C234 C232 1.391 . S
C234 C235 1.400 . S
C235 C234 1.400 . S
C235 C236 1.398 . S
C235 C241 1.491 . S
C236 H227 0.950 . S
C236 C235 1.398 . S
C236 C237 1.391 . S
C237 H225 0.950 . S
C237 C233 1.393 . S
C237 C236 1.391 . S
C238 H228 0.950 . S
C238 C239 1.386 . S
C238 C240 1.391 . S
C239 C238 1.386 . S
C239 C243 1.393 . S
C240 H229 0.950 . S
C240 C238 1.391 . S
C240 C241 1.400 . S
C241 C235 1.491 . S
C241 C240 1.400 . S
C241 C242 1.398 . S
C242 H230 0.950 . S
C242 C241 1.398 . S
C242 C243 1.391 . S
C243 H231 0.950 . S
C243 C239 1.393 . S
C243 C242 1.391 . S
H244 C252 0.950 . S
H245 C257 0.950 . S
H246 C254 0.950 . S
H247 C256 0.950 . S
H248 C258 0.950 . S
H249 C260 0.950 . S
H250 C262 0.950 . S
H251 C263 0.950 . S
C252 H244 0.950 . S
C252 C253 1.386 . S
C252 C254 1.391 . S
C253 C252 1.386 . S
C253 C257 1.393 . S
C254 H246 0.950 . S
C254 C252 1.391 . S
C254 C255 1.400 . S
C255 C254 1.400 . S
C255 C256 1.398 . S
C255 C261 1.491 . S
C256 H247 0.950 . S
C256 C255 1.398 . S
C256 C257 1.391 . S
C257 H245 0.950 . S
C257 C253 1.393 . S
C257 C256 1.391 . S
C258 H248 0.950 . S
C258 C259 1.386 . S
C258 C260 1.391 . S
C259 C258 1.386 . S
C259 C263 1.393 . S
C260 H249 0.950 . S
C260 C258 1.391 . S
C260 C261 1.400 . S
C261 C255 1.491 . S
C261 C260 1.400 . S
C261 C262 1.398 . S
C262 H250 0.950 . S
C262 C261 1.398 . S
C262 C263 1.391 . S
C263 H251 0.950 . S
C263 C259 1.393 . S
C263 C262 1.391 . S
H264 C272 0.950 . S
H265 C277 0.950 . S
H266 C274 0.950 . S
H267 C276 0.950 . S
H268 C278 0.950 . S
H269 C280 0.950 . S
H270 C282 0.950 . S
H271 C283 0.950 . S
C272 H264 0.950 . S
C272 C273 1.386 . S
C272 C274 1.391 . S
C273 C272 1.386 . S
C273 C277 1.393 . S
C274 H266 0.950 . S
C274 C272 1.391 . S
C274 C275 1.400 . S
C275 C274 1.400 . S
C275 C276 1.398 . S
C275 C281 1.491 1_556 S
C276 H267 0.950 . S
C276 C275 1.398 . S
C276 C277 1.391 . S
C277 H265 0.950 . S
C277 C273 1.393 . S
C277 C276 1.391 . S
C278 H268 0.950 . S
C278 C279 1.386 . S
C278 C280 1.391 . S
C279 C278 1.386 . S
C279 C283 1.393 . S
C280 H269 0.950 . S
C280 C278 1.391 . S
C280 C281 1.400 . S
C281 C275 1.491 1_554 S
C281 C280 1.400 . S
C281 C282 1.398 . S
C282 H270 0.950 . S
C282 C281 1.398 . S
C282 C283 1.391 . S
C283 H271 0.950 . S
C283 C279 1.393 . S
C283 C282 1.391 . S
H284 C292 0.950 . S
H285 C297 0.950 . S
H286 C294 0.950 . S
H287 C296 0.950 . S
H288 C298 0.950 . S
H289 C300 0.950 . S
H290 C302 0.950 . S
H291 C303 0.950 . S
C292 H284 0.950 . S
C292 C293 1.386 . S
C292 C294 1.391 . S
C293 C292 1.386 . S
C293 C297 1.393 . S
C294 H286 0.950 . S
C294 C292 1.391 . S
C294 C295 1.400 . S
C295 C294 1.400 . S
C295 C296 1.398 . S
C295 C301 1.491 . S
C296 H287 0.950 . S
C296 C295 1.398 . S
C296 C297 1.391 . S
C297 H285 0.950 . S
C297 C293 1.393 . S
C297 C296 1.391 . S
C298 H288 0.950 . S
C298 C299 1.386 . S
C298 C300 1.391 . S
C299 C298 1.386 . S
C299 C303 1.393 . S
C300 H289 0.950 . S
C300 C298 1.391 . S
C300 C301 1.400 . S
C301 C295 1.491 . S
C301 C300 1.400 . S
C301 C302 1.398 . S
C302 H290 0.950 . S
C302 C301 1.398 . S
C302 C303 1.391 . S
C303 H291 0.950 . S
C303 C299 1.393 . S
C303 C302 1.391 . S
H304 C312 0.950 . S
H305 C317 0.950 . S
H306 C314 0.950 . S
H307 C316 0.950 . S
H308 C318 0.950 . S
H309 C320 0.950 . S
H310 C322 0.950 . S
H311 C323 0.950 . S
C312 H304 0.950 . S
C312 C313 1.386 . S
C312 C314 1.391 . S
C313 C312 1.386 . S
C313 C317 1.393 . S
C314 H306 0.950 . S
C314 C312 1.391 . S
C314 C315 1.400 . S
C315 C314 1.400 . S
C315 C316 1.398 . S
C315 C321 1.491 . S
C316 H307 0.950 . S
C316 C315 1.398 . S
C316 C317 1.391 . S
C317 H305 0.950 . S
C317 C313 1.393 . S
C317 C316 1.391 . S
C318 H308 0.950 . S
C318 C319 1.386 . S
C318 C320 1.391 . S
C319 C318 1.386 . S
C319 C323 1.393 . S
C320 H309 0.950 . S
C320 C318 1.391 . S
C320 C321 1.400 . S
C321 C315 1.491 . S
C321 C320 1.400 . S
C321 C322 1.398 . S
C322 H310 0.950 . S
C322 C321 1.398 . S
C322 C323 1.391 . S
C323 H311 0.950 . S
C323 C319 1.393 . S
C323 C322 1.391 . S
C93 C8 1.412 . S
C99 C50 1.411 . S
C113 C22 1.411 . S
C119 C64 1.410 . S
C133 C36 1.411 . S
C139 C78 1.411 . S
C153 C23 1.482 . S
C159 C65 1.481 . S
C173 C79 1.475 . S
C179 C37 1.472 . S
C193 C51 1.466 . S
C199 C9 1.469 . S
C213 C31 1.226 . S
C219 C7 1.250 . S
C233 C45 1.219 . S
C239 C21 1.246 . S
C253 C35 1.255 . S
C259 C59 1.233 . S
C273 C73 1.236 . S
C279 C49 1.261 . S
C293 C63 1.247 . S
C299 C3 1.217 . S
C313 C77 1.266 . S
C319 C17 1.245 . S
