# Generated by pormake.
# Topology snp, (6)-cn, num edge types: 1
# Building blocks:
#     Node 0, Type 0, BuildingBlock: PAMTUU_clean_sbu_0, # of connection points: 6
#     Node 1, Type 0, BuildingBlock: PAMTUU_clean_sbu_0, # of connection points: 6
#     Node 2, Type 0, BuildingBlock: PAMTUU_clean_sbu_0, # of connection points: 6
#     Node 3, Type 0, BuildingBlock: PAMTUU_clean_sbu_0, # of connection points: 6
#     Edge 4, Type (0, 0), BuildingBlock: AJUNOK_clean_linker_0, # of connection points: 2
#     Edge 5, Type (0, 0), BuildingBlock: AJUNOK_clean_linker_0, # of connection points: 2
#     Edge 6, Type (0, 0), BuildingBlock: AJUNOK_clean_linker_0, # of connection points: 2
#     Edge 7, Type (0, 0), BuildingBlock: AJUNOK_clean_linker_0, # of connection points: 2
#     Edge 8, Type (0, 0), BuildingBlock: AJUNOK_clean_linker_0, # of connection points: 2
#     Edge 9, Type (0, 0), BuildingBlock: AJUNOK_clean_linker_0, # of connection points: 2
#     Edge 10, Type (0, 0), BuildingBlock: AJUNOK_clean_linker_0, # of connection points: 2
#     Edge 11, Type (0, 0), BuildingBlock: AJUNOK_clean_linker_0, # of connection points: 2
#     Edge 12, Type (0, 0), BuildingBlock: AJUNOK_clean_linker_0, # of connection points: 2
#     Edge 13, Type (0, 0), BuildingBlock: AJUNOK_clean_linker_0, # of connection points: 2
#     Edge 14, Type (0, 0), BuildingBlock: AJUNOK_clean_linker_0, # of connection points: 2
#     Edge 15, Type (0, 0), BuildingBlock: AJUNOK_clean_linker_0, # of connection points: 2
# Relax obj value: 0.528
# Max RMSD: 0.256
# Mean RMSD: 0.237
data_MOF--net-snp--node1-PAMTUU_clean_sbu_0--edge1-AJUNOK_clean_linker_0
_symmetry_space_group_name_H-M    P1
_symmetry_Int_Tables_number       1
_symmetry_cell_setting            triclinic
loop_
_symmetry_equiv_pos_as_xyz
'x, y, z'
_cell_length_a     18.827294
_cell_length_b     19.777038
_cell_length_c     25.724079
_cell_angle_alpha  95.469433
_cell_angle_beta   81.40583
_cell_angle_gamma 100.02158
loop_
_atom_site_label
_atom_site_type_symbol
_atom_site_fract_x
_atom_site_fract_y
_atom_site_fract_z
_atom_type_partial_charge
Tb0 Tb 0.20114 0.91384 0.30897 0.0
Tb1 Tb 0.2706 0.07064 0.35352 0.0
C2 C 0.1097 0.0241 0.342 0.0
C3 C 0.17178 0.75082 0.2313 0.0
C4 C 0.21444 0.70871 0.12622 0.0
C5 C 0.14063 0.69588 0.1478 0.0
C6 C 0.1193 0.71745 0.2002 0.0
C7 C 0.24609 0.75461 0.21161 0.0
C8 C 0.26727 0.73332 0.15938 0.0
C9 C 0.1496 0.79279 0.27908 0.0
O10 O 0.2009 0.97606 0.24141 0.0
O11 O 0.26365 0.08157 0.26933 0.0
O12 O 0.36179 0.01434 0.32951 0.0
O13 O 0.3128 0.92752 0.27282 0.0
O14 O 0.25748 0.16396 0.39637 0.0
O15 O 0.36258 0.14825 0.3554 0.0
O16 O 0.23023 0.0137 0.42573 0.0
O17 O 0.22008 0.90212 0.38931 0.0
O18 O 0.12446 0.96886 0.35888 0.0
O19 O 0.16322 0.07542 0.33514 0.0
C20 C 0.23018 0.04092 0.23307 0.0
O21 O 0.19728 0.80784 0.31203 0.0
O22 O 0.12246 0.84672 0.27106 0.0
C23 C 0.36862 0.96631 0.29085 0.0
C24 C 0.35953 0.2231 0.43269 0.0
C25 C 0.38906 0.29853 0.52742 0.0
C26 C 0.40616 0.33022 0.47947 0.0
C27 C 0.39107 0.29271 0.4324 0.0
C28 C 0.35019 0.18944 0.47929 0.0
C29 C 0.36472 0.22686 0.52634 0.0
C30 C 0.32633 0.18968 0.38683 0.0
C31 C 0.21721 0.94638 0.43088 0.0
H32 H 0.09916 0.67624 0.12272 0.0
H33 H 0.06181 0.71381 0.21484 0.0
H34 H 0.28781 0.77992 0.23488 0.0
H35 H 0.32445 0.74372 0.14355 0.0
H36 H 0.42488 0.38518 0.47906 0.0
H37 H 0.3989 0.3193 0.39653 0.0
H38 H 0.32592 0.13561 0.48012 0.0
H39 H 0.34932 0.20076 0.56246 0.0
Tb40 Tb 0.12995 0.27447 0.80482 0.0
Tb41 Tb 0.05257 0.25666 0.68653 0.0
C42 C 0.05448 0.3933 0.76365 0.0
C43 C 0.17211 0.22393 0.94117 0.0
C44 C 0.18454 0.16025 1.03626 0.0
C45 C 0.2203 0.13989 0.98644 0.0
C46 C 0.21486 0.17146 0.94019 0.0
C47 C 0.1344 0.24276 0.99071 0.0
C48 C 0.1403 0.21156 1.03709 0.0
C49 C 0.17614 0.26534 0.89319 0.0
O50 O 0.02713 0.20434 0.8036 0.0
O51 O 0.96661 0.25518 0.75146 0.0
O52 O 0.09898 0.17255 0.70504 0.0
O53 O 0.19525 0.21729 0.74602 0.0
O54 O 0.04298 0.27063 0.60654 0.0
O55 O -0.01817 0.18195 0.64726 0.0
O56 O 0.16457 0.30864 0.67091 0.0
O57 O 0.20546 0.34377 0.75311 0.0
O58 O 0.08791 0.3705 0.7992 0.0
O59 O 0.03594 0.35777 0.71998 0.0
C60 C 0.96754 0.2242 0.79381 0.0
O61 O 0.12416 0.29916 0.88803 0.0
O62 O 0.20366 0.24077 0.84728 0.0
C63 C 0.16838 0.1777 0.70778 0.0
C64 C 0.96325 0.18324 0.55513 0.0
C65 C 0.90564 0.11593 0.46291 0.0
C66 C 0.8741 0.09726 0.5138 0.0
C67 C 0.90273 0.12989 0.55903 0.0
C68 C -0.00614 0.20324 0.50451 0.0
C69 C 0.96568 0.17007 0.45915 0.0
C70 C -0.00187 0.2122 0.60311 0.0
C71 C 0.21196 0.34378 0.70098 0.0
H72 H 0.25515 0.10113 0.98339 0.0
H73 H 0.24652 0.15614 0.90371 0.0
H74 H 0.1017 0.28331 0.99404 0.0
H75 H 0.1104 0.22834 1.07395 0.0
H76 H 0.8266 0.05758 0.51898 0.0
H77 H 0.87763 0.11283 0.59717 0.0
H78 H 0.04116 0.24332 0.49976 0.0
H79 H -0.00801 0.18602 0.42094 0.0
Tb80 Tb 0.79279 0.86716 0.17208 0.0
Tb81 Tb 0.79306 0.02436 0.14616 0.0
C82 C 0.93019 0.97784 0.17629 0.0
C83 C 0.7426 0.70832 0.23582 0.0
C84 C 0.71098 0.66414 0.33798 0.0
C85 C 0.74131 0.62176 0.29648 0.0
C86 C 0.75806 0.64435 0.24555 0.0
C87 C 0.70424 0.74634 0.27573 0.0
C88 C 0.6885 0.72445 0.32642 0.0
C89 C 0.77612 0.74157 0.18794 0.0
O90 O 0.80315 0.92248 0.25011 0.0
O91 O 0.78809 0.03147 0.23239 0.0
O92 O 0.68635 0.96246 0.14156 0.0
O93 O 0.69025 0.89627 0.207 0.0
O94 O 0.8366 0.11849 0.11405 0.0
O95 O 0.72599 0.10006 0.15299 0.0
O96 O 0.8492 0.97787 1.07407 0.0
O97 O 0.79516 0.86733 1.08656 0.0
O98 O 0.90592 0.9156 0.15674 0.0
O99 O 0.89292 0.02841 0.17818 0.0
C100 C 0.79888 -0.01216 0.26534 0.0
O101 O 0.73197 0.76812 0.16425 0.0
O102 O 0.83595 0.7845 0.19328 0.0
C103 C 0.653 0.9283 0.18173 0.0
C104 C 0.74877 0.15713 1.07561 0.0
C105 C 0.75378 0.19741 0.97426 0.0
C106 C 0.74279 0.2448 1.018 0.0
C107 C 0.7427 0.22506 1.06873 0.0
C108 C 0.74329 0.10713 1.0334 0.0
C109 C 0.74597 0.12718 0.98278 0.0
C110 C 0.77379 0.13981 0.12283 0.0
C111 C 0.83654 0.9129 1.05649 0.0
H112 H 0.75751 0.57416 0.30423 0.0
H113 H 0.78737 0.61435 0.21487 0.0
H114 H 0.69193 0.79596 0.26887 0.0
H115 H 0.66542 0.7585 0.35743 0.0
H116 H 0.74452 0.29873 1.01255 0.0
H117 H 0.74465 0.26377 0.10148 0.0
H118 H 0.7459 0.0539 1.03861 0.0
H119 H 0.7525 0.08879 0.95023 0.0
Tb120 Tb 0.12793 0.83083 0.76377 0.0
Tb121 Tb 0.96425 0.80298 0.72508 0.0
C122 C 0.05802 0.94461 0.73795 0.0
C123 C 0.2945 0.82527 0.8212 0.0
C124 C 0.31847 0.76977 0.9112 0.0
C125 C 0.34585 0.83914 0.90289 0.0
C126 C 0.33364 0.86695 0.85788 0.0
C127 C 0.27856 0.75375 0.82533 0.0
C128 C 0.29157 0.72597 0.87012 0.0
C129 C 0.25549 0.85807 0.78823 0.0
O130 O 0.05247 0.81662 0.83819 0.0
O131 O 0.94574 0.83238 0.8096 0.0
O132 O -0.01763 0.70437 0.74788 0.0
O133 O 0.10324 0.72088 0.7602 0.0
O134 O 0.86869 0.83768 0.71287 0.0
O135 O 0.87789 0.72984 0.70347 0.0
O136 O 0.03903 0.80015 0.65009 0.0
O137 O 0.1449 0.85558 0.68 0.0
O138 O 0.07072 0.91648 0.77805 0.0
O139 O 0.01453 0.90751 0.70722 0.0
C140 C -0.01618 0.82752 0.84779 0.0
O141 O 0.239 0.82339 0.74487 0.0
O142 O 0.20019 0.88364 0.81395 0.0
C143 C 0.04013 0.68184 0.75809 0.0
C144 C 0.80665 0.76559 0.64941 0.0
C145 C 0.76286 0.71857 0.55129 0.0
C146 C 0.72089 0.69423 0.59747 0.0
C147 C 0.74286 0.71761 0.64637 0.0
C148 C 0.84609 0.79326 0.60359 0.0
C149 C 0.82377 0.7704 0.55481 0.0
C150 C 0.838 0.7757 0.6986 0.0
C151 C 0.10628 0.8345 0.6408 0.0
H152 H 0.36683 0.8736 0.93441 0.0
H153 H 0.34658 0.92219 0.85507 0.0
H154 H 0.24878 0.72049 0.79718 0.0
H155 H 0.2713 0.67223 0.87588 0.0
H156 H 0.67341 0.65476 0.59557 0.0
H157 H 0.71245 0.69529 0.68154 0.0
H158 H 0.89591 0.82982 0.60526 0.0
H159 H 0.85559 0.79141 0.51962 0.0
C160 C 0.02113 0.05172 0.22573 0.0
C161 C -0.01826 -0.01392 0.21483 0.0
C162 C 0.05732 0.06601 0.27007 0.0
C163 C 0.05512 0.01513 0.30531 0.0
H164 H 0.02327 0.09261 0.20004 0.0
H165 H 0.08936 0.11658 0.27559 0.0
S166 S 0.9496 0.83819 0.29904 0.0
N167 N 0.93862 0.87117 0.24486 0.0
N168 N 0.00102 0.89991 0.33059 0.0
C169 C 0.01165 0.95082 0.29682 0.0
C170 C -0.02256 0.93542 0.25055 0.0
C171 C 0.11546 0.02026 0.6656 0.0
C172 C 0.1148 -0.00072 0.71651 0.0
C173 C 0.16533 0.07735 0.64805 0.0
C174 C 0.20392 0.11909 0.68532 0.0
H175 H 0.07558 -0.00468 0.64066 0.0
H176 H 0.15811 0.09839 0.61217 0.0
S177 S 0.25692 0.06403 0.80387 0.0
N178 N 0.1838 0.00909 0.79146 0.0
N179 N 0.27634 0.11444 0.75442 0.0
C180 C 0.22347 0.08552 0.7247 0.0
C181 C 0.17335 0.02892 0.74448 0.0
C182 C 0.55607 0.00105 0.21139 0.0
C183 C 0.57803 0.93594 0.20543 0.0
C184 C 0.48924 0.01123 0.24105 0.0
C185 C 0.4416 0.9563 0.26461 0.0
H186 H 0.59165 0.04488 0.19453 0.0
H187 H 0.47415 0.06208 0.24477 0.0
S188 S 0.47245 0.77566 0.25945 0.0
N189 N 0.54665 0.81592 0.22551 0.0
N190 N 0.41986 0.83451 0.27908 0.0
C191 C 0.46216 0.89081 0.25796 0.0
C192 C 0.53075 0.88079 0.22897 0.0
C193 C 0.00032 0.48848 0.73526 0.0
C194 C 0.04113 0.46575 0.77009 0.0
C195 C -0.00293 0.55836 0.73349 0.0
C196 C 0.03495 0.60827 0.76608 0.0
H197 H 0.97269 0.45244 0.70757 0.0
H198 H 0.96773 0.5736 0.70449 0.0
S199 S 0.13661 0.57618 0.87165 0.0
N200 N 0.11093 0.49903 0.84352 0.0
N201 N 0.10531 0.63061 0.8395 0.0
C202 C 0.0713 0.5864 0.80376 0.0
C203 C 0.07405 0.51506 0.80606 0.0
C204 C 0.28338 0.40351 0.62648 0.0
C205 C 0.28322 0.36893 0.67169 0.0
C206 C 0.32921 0.38957 0.5801 0.0
C207 C 0.37575 0.34043 0.57792 0.0
H208 H 0.2402 0.43255 0.6244 0.0
H209 H 0.31958 0.40925 0.54434 0.0
S210 S 0.41514 0.25837 0.69161 0.0
N211 N 0.34811 0.3009 0.71617 0.0
N212 N 0.43483 0.27468 0.6288 0.0
C213 C 0.3867 0.31752 0.62574 0.0
C214 C 0.34021 0.33213 0.67304 0.0
C215 C 0.8396 0.18479 0.83279 0.0
C216 C 0.90709 0.22669 0.83615 0.0
C217 C 0.7848 0.18181 0.87628 0.0
C218 C 0.7965 0.22054 0.92411 0.0
H219 H 0.83062 0.15157 0.79759 0.0
H220 H 0.73523 0.14516 0.87383 0.0
S221 S 0.96038 0.34924 0.94677 0.0
N222 N -0.02123 0.31636 0.88589 0.0
N223 N 0.87818 0.30979 0.96844 0.0
C224 C 0.86165 0.26801 0.9253 0.0
C225 C 0.91669 0.27095 0.88108 0.0
C226 C 0.67524 0.68681 0.48574 0.0
C227 C 0.74517 0.68873 0.49918 0.0
C228 C 0.66165 0.67052 0.4336 0.0
C229 C 0.71771 0.65607 0.39348 0.0
H230 H 0.63221 0.70243 0.51483 0.0
H231 H 0.60851 0.67439 0.4239 0.0
S232 S 0.90645 0.64154 0.4114 0.0
N233 N 0.86733 0.66348 0.47092 0.0
N234 N 0.84328 0.63614 0.37245 0.0
C235 C 0.78588 0.65129 0.40773 0.0
C236 C 0.79933 0.66716 0.46076 0.0
C237 C 0.32015 0.70255 0.98886 0.0
C238 C 0.29166 0.75118 0.9653 0.0
C239 C 0.29263 0.68579 1.04068 0.0
C240 C 0.23484 0.71596 1.06928 0.0
H241 H 0.36462 0.67871 0.96762 0.0
H242 H 0.31747 0.65029 1.05889 0.0
S243 S 0.14037 0.84428 1.02318 0.0
N244 N 0.20151 0.82715 0.97286 0.0
N245 N 0.15026 0.79631 1.06987 0.0
C246 C 0.20485 0.76312 1.04513 0.0
C247 C 0.23314 0.7805 0.9931 0.0
C248 C 0.94607 0.91856 0.98532 0.0
C249 C 0.87352 0.88953 1.00338 0.0
C250 C -0.01681 0.8954 0.93661 0.0
C251 C 0.94886 0.84327 0.9031 0.0
H252 H 0.97481 0.9592 1.00932 0.0
H253 H 0.03829 0.92032 0.92424 0.0
S254 S 0.75999 0.74983 0.93144 0.0
N255 N 0.77003 0.80403 0.98382 0.0
N256 N 0.83797 0.76322 0.89191 0.0
C257 C 0.87655 0.81383 0.92074 0.0
C258 C 0.83951 0.83605 0.97084 0.0
C259 C 0.22322 0.94126 0.52965 0.0
C260 C 0.18986 0.91756 0.48427 0.0
C261 C 0.19779 0.91234 0.57895 0.0
C262 C 0.13607 0.85971 0.58617 0.0
H263 H 0.27001 -0.0181 0.52698 0.0
H264 H 0.22615 0.93286 0.61211 0.0
S265 S 0.0262 0.78242 0.4803 0.0
N266 N 0.09066 0.83882 0.45033 0.0
N267 N 0.04163 0.78721 0.54217 0.0
C268 C 0.10176 0.83653 0.54104 0.0
C269 C 0.12877 0.86469 0.49067 0.0
C270 C 0.19324 0.0585 1.08991 0.0
C271 C 0.19567 0.13013 1.08688 0.0
C272 C 0.204 0.03013 0.13656 0.0
C273 C 0.2199 0.07176 0.18267 0.0
H274 H 0.18182 0.02362 1.056 0.0
H275 H 0.20036 0.97483 0.13621 0.0
S276 S 0.2332 0.26257 0.19638 0.0
N277 N 0.2154 0.24164 0.13546 0.0
N278 N 0.23635 0.18952 0.22139 0.0
C279 C 0.22283 0.14345 0.17997 0.0
C280 C 0.2106 0.17209 0.1329 0.0
C281 C 0.84166 0.08977 0.32626 0.0
C282 C 0.81962 0.01791 0.31826 0.0
C283 C 0.86882 0.12024 0.37261 0.0
C284 C 0.8754 0.08085 0.41398 0.0
H285 H 0.83966 0.12335 0.29581 0.0
H286 H 0.8846 0.17565 0.37602 0.0
S287 S 0.82398 0.89035 0.4144 0.0
N288 N 0.8046 0.90819 0.35716 0.0
N289 N 0.85698 0.96488 0.44351 0.0
C290 C 0.85277 0.00883 0.407 0.0
C291 C 0.82483 0.97766 0.35954 0.0
loop_
_geom_bond_atom_site_label_1
_geom_bond_atom_site_label_2
_geom_bond_distance
_geom_bond_site_symmetry_2
_ccdc_geom_bond_type
Tb0 C9 2.764 . S
Tb0 O10 2.325 1_565 S
Tb0 O13 2.303 1_565 S
Tb0 O17 2.322 . S
Tb0 O18 2.349 . S
Tb0 O21 2.415 . S
Tb0 O22 2.399 . S
Tb1 O11 2.322 . S
Tb1 O12 2.349 . S
Tb1 O14 2.415 . S
Tb1 O15 2.399 . S
Tb1 O16 2.325 . S
Tb1 O19 2.303 . S
Tb1 C30 2.764 . S
C2 O18 1.261 1_545 S
C2 O19 1.257 . S
C3 C6 1.358 . S
C3 C7 1.332 . S
C3 C9 1.504 . S
C4 C5 1.373 . S
C4 C8 1.308 . S
C5 C4 1.373 . S
C5 C6 1.429 1_556 S
C5 H32 0.932 . S
C6 C3 1.358 . S
C6 C5 1.429 1_554 S
C6 H33 0.930 . S
C7 C3 1.332 . S
C7 C8 1.394 1_554 S
C7 H34 0.932 . S
C8 C4 1.308 . S
C8 C7 1.394 1_556 S
C8 H35 0.929 . S
C9 Tb0 2.764 . S
C9 C3 1.504 . S
C9 O21 1.239 . S
C9 O22 1.263 . S
O10 Tb0 2.325 1_545 S
O10 C20 1.236 . S
O11 Tb1 2.322 . S
O11 C20 1.257 . S
O12 Tb1 2.349 . S
O12 C23 1.261 . S
O13 Tb0 2.303 1_545 S
O13 C23 1.257 . S
O14 Tb1 2.415 . S
O14 C30 1.239 . S
O15 Tb1 2.399 . S
O15 C30 1.263 . S
O16 Tb1 2.325 . S
O16 C31 1.236 1_545 S
O17 Tb0 2.322 . S
O17 C31 1.257 . S
O18 Tb0 2.349 . S
O18 C2 1.261 1_565 S
O19 Tb1 2.303 . S
O19 C2 1.257 . S
C20 O10 1.236 . S
C20 O11 1.257 . S
O21 Tb0 2.415 . S
O21 C9 1.239 . S
O22 Tb0 2.399 . S
O22 C9 1.263 . S
C23 O12 1.261 . S
C23 O13 1.257 . S
C24 C27 1.358 . S
C24 C28 1.332 . S
C24 C30 1.504 . S
C25 C26 1.373 . S
C25 C29 1.308 . S
C26 C25 1.373 . S
C26 C27 1.429 . S
C26 H36 0.932 . S
C27 C24 1.358 . S
C27 C26 1.429 . S
C27 H37 0.930 . S
C28 C24 1.332 . S
C28 C29 1.394 . S
C28 H38 0.932 . S
C29 C25 1.308 . S
C29 C28 1.394 . S
C29 H39 0.929 . S
C30 Tb1 2.764 . S
C30 O14 1.239 . S
C30 O15 1.263 . S
C30 C24 1.504 . S
C31 O16 1.236 1_565 S
C31 O17 1.257 . S
H32 C5 0.932 . S
H33 C6 0.930 . S
H34 C7 0.932 . S
H35 C8 0.929 . S
H36 C26 0.932 . S
H37 C27 0.930 . S
H38 C28 0.932 . S
H39 C29 0.929 . S
Tb40 C49 2.764 . S
Tb40 O50 2.325 . S
Tb40 O53 2.303 . S
Tb40 O57 2.322 . S
Tb40 O58 2.349 . S
Tb40 O61 2.415 . S
Tb40 O62 2.399 . S
Tb41 O51 2.322 . S
Tb41 O52 2.349 . S
Tb41 O54 2.415 . S
Tb41 O55 2.399 1_455 S
Tb41 O56 2.325 . S
Tb41 O59 2.303 . S
Tb41 C70 2.764 1_455 S
C42 O58 1.261 . S
C42 O59 1.257 . S
C43 C46 1.358 . S
C43 C47 1.332 . S
C43 C49 1.504 . S
C44 C45 1.373 . S
C44 C48 1.308 . S
C45 C44 1.373 . S
C45 C46 1.429 . S
C45 H72 0.932 . S
C46 C43 1.358 . S
C46 C45 1.429 . S
C46 H73 0.930 . S
C47 C43 1.332 . S
C47 C48 1.394 . S
C47 H74 0.932 . S
C48 C44 1.308 . S
C48 C47 1.394 . S
C48 H75 0.929 . S
C49 Tb40 2.764 . S
C49 C43 1.504 . S
C49 O61 1.239 . S
C49 O62 1.263 . S
O50 Tb40 2.325 . S
O50 C60 1.236 . S
O51 Tb41 2.322 . S
O51 C60 1.257 . S
O52 Tb41 2.349 . S
O52 C63 1.261 . S
O53 Tb40 2.303 . S
O53 C63 1.257 . S
O54 Tb41 2.415 . S
O54 C70 1.239 1_455 S
O55 Tb41 2.399 1_655 S
O55 C70 1.263 . S
O56 Tb41 2.325 . S
O56 C71 1.236 . S
O57 Tb40 2.322 . S
O57 C71 1.257 . S
O58 Tb40 2.349 . S
O58 C42 1.261 . S
O59 Tb41 2.303 . S
O59 C42 1.257 . S
C60 O50 1.236 . S
C60 O51 1.257 . S
O61 Tb40 2.415 . S
O61 C49 1.239 . S
O62 Tb40 2.399 . S
O62 C49 1.263 . S
C63 O52 1.261 . S
C63 O53 1.257 . S
C64 C67 1.358 . S
C64 C68 1.332 . S
C64 C70 1.504 . S
C65 C66 1.373 . S
C65 C69 1.308 . S
C66 C65 1.373 . S
C66 C67 1.429 . S
C66 H76 0.932 . S
C67 C64 1.358 . S
C67 C66 1.429 . S
C67 H77 0.930 . S
C68 C64 1.332 . S
C68 C69 1.394 . S
C68 H78 0.932 1_655 S
C69 C65 1.308 . S
C69 C68 1.394 . S
C69 H79 0.929 . S
C70 Tb41 2.764 1_655 S
C70 O54 1.239 1_655 S
C70 O55 1.263 . S
C70 C64 1.504 . S
C71 O56 1.236 . S
C71 O57 1.257 . S
H72 C45 0.932 . S
H73 C46 0.930 . S
H74 C47 0.932 . S
H75 C48 0.929 . S
H76 C66 0.932 . S
H77 C67 0.930 . S
H78 C68 0.932 1_455 S
H79 C69 0.929 . S
Tb80 C89 2.764 . S
Tb80 O90 2.325 1_565 S
Tb80 O93 2.303 . S
Tb80 O97 2.322 . S
Tb80 O98 2.349 . S
Tb80 O101 2.415 . S
Tb80 O102 2.399 . S
Tb81 O91 2.322 . S
Tb81 O92 2.349 . S
Tb81 O94 2.426 . S
Tb81 O95 2.399 . S
Tb81 O96 2.325 1_545 S
Tb81 O99 2.303 . S
Tb81 C110 2.764 1_554 S
C82 O98 1.261 . S
C82 O99 1.257 1_565 S
C83 C86 1.358 . S
C83 C87 1.332 . S
C83 C89 1.504 . S
C84 C85 1.373 . S
C84 C88 1.308 . S
C85 C84 1.373 . S
C85 C86 1.429 . S
C85 H112 0.932 . S
C86 C83 1.358 . S
C86 C85 1.429 . S
C86 H113 0.930 . S
C87 C83 1.332 . S
C87 C88 1.394 . S
C87 H114 0.932 . S
C88 C84 1.308 . S
C88 C87 1.394 . S
C88 H115 0.929 . S
C89 Tb80 2.764 . S
C89 C83 1.504 . S
C89 O101 1.239 . S
C89 O102 1.263 . S
O90 Tb80 2.325 1_545 S
O90 C100 1.236 . S
O91 Tb81 2.322 . S
O91 C100 1.257 . S
O92 Tb81 2.349 . S
O92 C103 1.261 . S
O93 Tb80 2.303 . S
O93 C103 1.257 1_565 S
O94 Tb81 2.426 . S
O94 C110 1.231 1_554 S
O95 Tb81 2.399 . S
O95 C110 1.263 1_554 S
O96 Tb81 2.325 1_565 S
O96 C111 1.236 . S
O97 Tb80 2.322 . S
O97 C111 1.257 . S
O98 Tb80 2.349 . S
O98 C82 1.261 . S
O99 Tb81 2.303 . S
O99 C82 1.257 1_545 S
C100 O90 1.236 . S
C100 O91 1.257 . S
O101 Tb80 2.415 . S
O101 C89 1.239 . S
O102 Tb80 2.399 . S
O102 C89 1.263 . S
C103 O92 1.261 . S
C103 O93 1.257 1_545 S
C104 C107 1.358 . S
C104 C108 1.332 . S
C104 C110 1.504 . S
C105 C106 1.373 . S
C105 C109 1.308 . S
C106 C105 1.373 . S
C106 C107 1.429 . S
C106 H116 0.932 . S
C107 C104 1.358 . S
C107 C106 1.429 . S
C107 H117 0.930 . S
C108 C104 1.332 . S
C108 C109 1.394 . S
C108 H118 0.932 . S
C109 C105 1.308 . S
C109 C108 1.394 . S
C109 H119 0.929 1_655 S
C110 Tb81 2.764 1_556 S
C110 O94 1.231 1_556 S
C110 O95 1.263 1_556 S
C110 C104 1.504 . S
C111 O96 1.236 . S
C111 O97 1.257 . S
H112 C85 0.932 . S
H113 C86 0.930 . S
H114 C87 0.932 . S
H115 C88 0.929 . S
H116 C106 0.932 . S
H117 C107 0.930 . S
H118 C108 0.932 . S
H119 C109 0.929 1_455 S
Tb120 C129 2.764 . S
Tb120 O130 2.325 1_455 S
Tb120 O133 2.303 . S
Tb120 O137 2.322 . S
Tb120 O138 2.349 . S
Tb120 O141 2.415 . S
Tb120 O142 2.399 . S
Tb121 O131 2.322 . S
Tb121 O132 2.349 . S
Tb121 O134 2.415 . S
Tb121 O135 2.399 . S
Tb121 O136 2.325 1_655 S
Tb121 O139 2.303 . S
Tb121 C150 2.764 . S
C122 O138 1.261 . S
C122 O139 1.257 1_455 S
C123 C126 1.358 . S
C123 C127 1.332 . S
C123 C129 1.504 . S
C124 C125 1.373 . S
C124 C128 1.308 . S
C125 C124 1.373 . S
C125 C126 1.429 . S
C125 H152 0.932 . S
C126 C123 1.358 . S
C126 C125 1.429 . S
C126 H153 0.930 . S
C127 C123 1.332 . S
C127 C128 1.394 . S
C127 H154 0.932 . S
C128 C124 1.308 . S
C128 C127 1.394 . S
C128 H155 0.929 . S
C129 Tb120 2.764 . S
C129 C123 1.504 . S
C129 O141 1.239 . S
C129 O142 1.263 . S
O130 Tb120 2.325 1_655 S
O130 C140 1.236 . S
O131 Tb121 2.322 . S
O131 C140 1.257 . S
O132 Tb121 2.349 . S
O132 C143 1.261 . S
O133 Tb120 2.303 . S
O133 C143 1.257 1_455 S
O134 Tb121 2.415 . S
O134 C150 1.239 . S
O135 Tb121 2.399 . S
O135 C150 1.263 . S
O136 Tb121 2.325 1_455 S
O136 C151 1.236 . S
O137 Tb120 2.322 . S
O137 C151 1.257 . S
O138 Tb120 2.349 . S
O138 C122 1.261 . S
O139 Tb121 2.303 . S
O139 C122 1.257 1_655 S
C140 O130 1.236 . S
C140 O131 1.257 . S
O141 Tb120 2.415 . S
O141 C129 1.239 . S
O142 Tb120 2.399 . S
O142 C129 1.263 . S
C143 O132 1.261 . S
C143 O133 1.257 1_655 S
C144 C147 1.358 . S
C144 C148 1.332 . S
C144 C150 1.504 . S
C145 C146 1.373 . S
C145 C149 1.308 . S
C146 C145 1.373 . S
C146 C147 1.429 . S
C146 H156 0.932 . S
C147 C144 1.358 . S
C147 C146 1.429 . S
C147 H157 0.930 . S
C148 C144 1.332 . S
C148 C149 1.394 . S
C148 H158 0.932 . S
C149 C145 1.308 . S
C149 C148 1.394 . S
C149 H159 0.929 . S
C150 Tb121 2.764 . S
C150 O134 1.239 . S
C150 O135 1.263 . S
C150 C144 1.504 . S
C151 O136 1.236 . S
C151 O137 1.257 . S
H152 C125 0.932 . S
H153 C126 0.930 . S
H154 C127 0.932 . S
H155 C128 0.929 . S
H156 C146 0.932 . S
H157 C147 0.930 . S
H158 C148 0.932 . S
H159 C149 0.929 . S
C160 C161 1.369 . S
C160 C162 1.419 . S
C160 H164 0.930 1_455 S
C161 C160 1.369 . S
C161 C170 1.429 1_545 S
C162 C160 1.419 . S
C162 C163 1.363 . S
C162 H165 0.929 . S
C163 C162 1.363 . S
C163 C169 1.428 1_545 S
H164 C160 0.930 1_655 S
H165 C162 0.929 . S
S166 N167 1.613 . S
S166 N168 1.610 . S
N167 S166 1.613 . S
N167 C170 1.350 . S
N168 S166 1.610 . S
N168 C169 1.351 . S
C169 C163 1.428 1_565 S
C169 N168 1.351 . S
C169 C170 1.434 . S
C170 C161 1.429 1_565 S
C170 N167 1.350 . S
C170 C169 1.434 . S
C171 C172 1.369 . S
C171 C173 1.419 1_565 S
C171 H175 0.930 . S
C172 C171 1.369 . S
C172 C181 1.429 . S
C173 C171 1.419 1_545 S
C173 C174 1.363 . S
C173 H176 0.929 . S
C174 C173 1.363 . S
C174 C180 1.428 . S
H175 C171 0.930 . S
H176 C173 0.929 . S
S177 N178 1.613 1_455 S
S177 N179 1.610 1_565 S
N178 S177 1.613 1_655 S
N178 C181 1.350 1_655 S
N179 S177 1.610 1_545 S
N179 C180 1.351 . S
C180 C174 1.428 . S
C180 N179 1.351 . S
C180 C181 1.434 1_545 S
C181 C172 1.429 . S
C181 N178 1.350 1_455 S
C181 C180 1.434 1_565 S
C182 C183 1.369 . S
C182 C184 1.419 . S
C182 H186 0.930 . S
C183 C182 1.369 . S
C183 C192 1.429 . S
C184 C182 1.419 . S
C184 C185 1.363 . S
C184 H187 0.929 . S
C185 C184 1.363 . S
C185 C191 1.428 . S
H186 C182 0.930 . S
H187 C184 0.929 . S
S188 N189 1.613 1_545 S
S188 N190 1.610 . S
N189 S188 1.613 1_565 S
N189 C192 1.350 1_565 S
N190 S188 1.610 . S
N190 C191 1.351 . S
C191 C185 1.428 . S
C191 N190 1.351 . S
C191 C192 1.434 . S
C192 C183 1.429 . S
C192 N189 1.350 1_545 S
C192 C191 1.434 . S
C193 C194 1.369 . S
C193 C195 1.419 1_455 S
C193 H197 0.930 . S
C194 C193 1.369 . S
C194 C203 1.429 . S
C195 C193 1.419 1_655 S
C195 C196 1.363 1_655 S
C195 H198 0.929 . S
C196 C195 1.363 1_455 S
C196 C202 1.428 . S
H197 C193 0.930 . S
H198 C195 0.929 . S
S199 N200 1.613 . S
S199 N201 1.610 . S
N200 S199 1.613 . S
N200 C203 1.350 . S
N201 S199 1.610 . S
N201 C202 1.351 . S
C202 C196 1.428 . S
C202 N201 1.351 . S
C202 C203 1.434 . S
C203 C194 1.429 . S
C203 N200 1.350 . S
C203 C202 1.434 . S
C204 C205 1.369 . S
C204 C206 1.419 . S
C204 H208 0.930 . S
C205 C204 1.369 . S
C205 C214 1.429 . S
C206 C204 1.419 . S
C206 C207 1.363 . S
C206 H209 0.929 . S
C207 C206 1.363 . S
C207 C213 1.428 . S
H208 C204 0.930 . S
H209 C206 0.929 . S
S210 N211 1.613 . S
S210 N212 1.610 . S
N211 S210 1.613 . S
N211 C214 1.350 . S
N212 S210 1.610 . S
N212 C213 1.351 . S
C213 C207 1.428 . S
C213 N212 1.351 . S
C213 C214 1.434 . S
C214 C205 1.429 . S
C214 N211 1.350 . S
C214 C213 1.434 . S
C215 C216 1.369 1_655 S
C215 C217 1.419 . S
C215 H219 0.930 . S
C216 C215 1.369 1_455 S
C216 C225 1.429 . S
C217 C215 1.419 . S
C217 C218 1.363 . S
C217 H220 0.929 . S
C218 C217 1.363 . S
C218 C224 1.428 1_655 S
H219 C215 0.930 . S
H220 C217 0.929 . S
S221 N222 1.613 . S
S221 N223 1.610 . S
N222 S221 1.613 . S
N222 C225 1.350 . S
N223 S221 1.610 . S
N223 C224 1.351 . S
C224 C218 1.428 1_455 S
C224 N223 1.351 . S
C224 C225 1.434 . S
C225 C216 1.429 . S
C225 N222 1.350 . S
C225 C224 1.434 . S
C226 C227 1.369 . S
C226 C228 1.419 . S
C226 H230 0.930 . S
C227 C226 1.369 . S
C227 C236 1.429 . S
C228 C226 1.419 . S
C228 C229 1.363 . S
C228 H231 0.929 . S
C229 C228 1.363 . S
C229 C235 1.428 . S
H230 C226 0.930 . S
H231 C228 0.929 . S
S232 N233 1.613 . S
S232 N234 1.610 . S
N233 S232 1.613 . S
N233 C236 1.350 . S
N234 S232 1.610 . S
N234 C235 1.351 . S
C235 C229 1.428 . S
C235 N234 1.351 . S
C235 C236 1.434 . S
C236 C227 1.429 . S
C236 N233 1.350 . S
C236 C235 1.434 . S
C237 C238 1.369 . S
C237 C239 1.419 . S
C237 H241 0.930 . S
C238 C237 1.369 . S
C238 C247 1.429 . S
C239 C237 1.419 . S
C239 C240 1.363 . S
C239 H242 0.929 . S
C240 C239 1.363 . S
C240 C246 1.428 . S
H241 C237 0.930 . S
H242 C239 0.929 . S
S243 N244 1.613 . S
S243 N245 1.610 . S
N244 S243 1.613 . S
N244 C247 1.350 . S
N245 S243 1.610 . S
N245 C246 1.351 . S
C246 C240 1.428 . S
C246 N245 1.351 . S
C246 C247 1.434 . S
C247 C238 1.429 . S
C247 N244 1.350 . S
C247 C246 1.434 . S
C248 C249 1.369 . S
C248 C250 1.419 . S
C248 H252 0.930 . S
C249 C248 1.369 . S
C249 C258 1.429 . S
C250 C248 1.419 . S
C250 C251 1.363 . S
C250 H253 0.929 . S
C251 C250 1.363 . S
C251 C257 1.428 . S
H252 C248 0.930 . S
H253 C250 0.929 . S
S254 N255 1.613 . S
S254 N256 1.610 . S
N255 S254 1.613 . S
N255 C258 1.350 . S
N256 S254 1.610 . S
N256 C257 1.351 . S
C257 C251 1.428 . S
C257 N256 1.351 . S
C257 C258 1.434 . S
C258 C249 1.429 . S
C258 N255 1.350 . S
C258 C257 1.434 . S
C259 C260 1.369 . S
C259 C261 1.419 . S
C259 H263 0.930 . S
C260 C259 1.369 . S
C260 C269 1.429 . S
C261 C259 1.419 . S
C261 C262 1.363 . S
C261 H264 0.929 . S
C262 C261 1.363 . S
C262 C268 1.428 . S
H263 C259 0.930 . S
H264 C261 0.929 . S
S265 N266 1.613 . S
S265 N267 1.610 . S
N266 S265 1.613 . S
N266 C269 1.350 . S
N267 S265 1.610 . S
N267 C268 1.351 . S
C268 C262 1.428 . S
C268 N267 1.351 . S
C268 C269 1.434 . S
C269 C260 1.429 . S
C269 N266 1.350 . S
C269 C268 1.434 . S
C270 C271 1.369 . S
C270 C272 1.419 1_556 S
C270 H274 0.930 . S
C271 C270 1.369 . S
C271 C280 1.429 . S
C272 C270 1.419 1_554 S
C272 C273 1.363 . S
C272 H275 0.929 . S
C273 C272 1.363 . S
C273 C279 1.428 . S
H274 C270 0.930 . S
H275 C272 0.929 . S
S276 N277 1.613 1_554 S
S276 N278 1.610 . S
N277 S276 1.613 1_556 S
N277 C280 1.350 . S
N278 S276 1.610 . S
N278 C279 1.351 . S
C279 C273 1.428 . S
C279 N278 1.351 . S
C279 C280 1.434 1_554 S
C280 C271 1.429 . S
C280 N277 1.350 . S
C280 C279 1.434 1_556 S
C281 C282 1.369 . S
C281 C283 1.419 . S
C281 H285 0.930 . S
C282 C281 1.369 . S
C282 C291 1.429 . S
C283 C281 1.419 . S
C283 C284 1.363 . S
C283 H286 0.929 . S
C284 C283 1.363 . S
C284 C290 1.428 . S
H285 C281 0.930 . S
H286 C283 0.929 . S
S287 N288 1.613 1_565 S
S287 N289 1.610 1_565 S
N288 S287 1.613 1_545 S
N288 C291 1.350 . S
N289 S287 1.610 1_545 S
N289 C290 1.351 . S
C290 C284 1.428 . S
C290 N289 1.351 . S
C290 C291 1.434 . S
C291 C282 1.429 . S
C291 N288 1.350 . S
C291 C290 1.434 . S
C161 C82 1.517 1_445 S
C163 C2 1.481 . S
C172 C122 1.053 . S
C174 C63 1.056 . S
C183 C103 1.093 . S
C185 C23 1.117 . S
C194 C42 1.146 . S
C196 C143 1.138 1_455 S
C205 C71 0.596 . S
C207 C25 0.671 . S
C216 C60 0.758 . S
C218 C105 0.751 . S
C227 C145 0.445 . S
C229 C84 0.488 . S
C238 C124 0.327 . S
C240 C4 0.702 . S
C249 C111 3.488 1_556 S
C251 C140 3.352 . S
C260 C31 3.652 . S
C262 C151 3.626 . S
C271 C44 2.718 . S
C273 C20 2.826 . S
C282 C100 2.513 . S
C284 C65 2.461 . S
