# Generated by pormake.
# Topology uof, (4)-cn, num edge types: 1
# Building blocks:
#     Node 0, Type 0, BuildingBlock: KUFVIS_clean_sbu_0, # of connection points: 4
#     Node 1, Type 0, BuildingBlock: KUFVIS_clean_sbu_0, # of connection points: 4
#     Node 2, Type 0, BuildingBlock: KUFVIS_clean_sbu_0, # of connection points: 4
#     Node 3, Type 0, BuildingBlock: KUFVIS_clean_sbu_0, # of connection points: 4
#     Node 4, Type 0, BuildingBlock: KUFVIS_clean_sbu_0, # of connection points: 4
#     Node 5, Type 0, BuildingBlock: KUFVIS_clean_sbu_0, # of connection points: 4
#     Node 6, Type 0, BuildingBlock: KUFVIS_clean_sbu_0, # of connection points: 4
#     Node 7, Type 0, BuildingBlock: KUFVIS_clean_sbu_0, # of connection points: 4
#     Node 8, Type 0, BuildingBlock: KUFVIS_clean_sbu_0, # of connection points: 4
#     Node 9, Type 0, BuildingBlock: KUFVIS_clean_sbu_0, # of connection points: 4
#     Node 10, Type 0, BuildingBlock: KUFVIS_clean_sbu_0, # of connection points: 4
#     Node 11, Type 0, BuildingBlock: KUFVIS_clean_sbu_0, # of connection points: 4
#     Edge 12, Type (0, 0), None
#     Edge 13, Type (0, 0), None
#     Edge 14, Type (0, 0), None
#     Edge 15, Type (0, 0), None
#     Edge 16, Type (0, 0), None
#     Edge 17, Type (0, 0), None
#     Edge 18, Type (0, 0), None
#     Edge 19, Type (0, 0), None
#     Edge 20, Type (0, 0), None
#     Edge 21, Type (0, 0), None
#     Edge 22, Type (0, 0), None
#     Edge 23, Type (0, 0), None
#     Edge 24, Type (0, 0), None
#     Edge 25, Type (0, 0), None
#     Edge 26, Type (0, 0), None
#     Edge 27, Type (0, 0), None
#     Edge 28, Type (0, 0), None
#     Edge 29, Type (0, 0), None
#     Edge 30, Type (0, 0), None
#     Edge 31, Type (0, 0), None
#     Edge 32, Type (0, 0), None
#     Edge 33, Type (0, 0), None
#     Edge 34, Type (0, 0), None
#     Edge 35, Type (0, 0), None
# Relax obj value: 0.151
# Max RMSD: 0.136
# Mean RMSD: 0.136
data_MOF--net-uof--node1-KUFVIS_clean_sbu_0--edge1-none
_symmetry_space_group_name_H-M    P1
_symmetry_Int_Tables_number       1
_symmetry_cell_setting            triclinic
loop_
_symmetry_equiv_pos_as_xyz
'x, y, z'
_cell_length_a     14.660828
_cell_length_b     14.592386
_cell_length_c     30.038569
_cell_angle_alpha  88.291203
_cell_angle_beta   90.769593
_cell_angle_gamma 119.52425
loop_
_atom_site_label
_atom_site_type_symbol
_atom_site_fract_x
_atom_site_fract_y
_atom_site_fract_z
_atom_type_partial_charge
Mn0 Mn 0.28806 0.31024 0.15404 0.0
Mn1 Mn 0.48651 0.29001 0.20265 0.0
C2 C 0.39025 0.2656 0.1162 0.0
C3 C 0.10614 0.22953 0.12097 0.0
C4 C 0.52504 0.49017 0.1679 0.0
O5 O 0.24424 0.28394 0.2186 0.0
O6 O 0.41028 0.34188 0.2373 0.0
C7 C 0.35892 0.1285 0.27177 0.0
N8 N 0.43332 0.16449 0.23924 0.0
C9 C 0.55675 0.15319 0.28891 0.0
C10 C 0.48678 0.13058 0.32429 0.0
C11 C 0.38451 0.11012 0.31508 0.0
C12 C 0.52331 0.16211 0.24607 0.0
H13 H 0.28071 0.11417 0.26462 0.0
C14 C 0.31373 0.29743 0.24772 0.0
O15 O 0.16088 0.32863 0.13051 0.0
O16 O 0.15205 0.17788 0.13409 0.0
N17 N 0.56914 0.2376 0.17556 0.0
C18 C 0.6308 0.26798 0.13869 0.0
C19 C 0.71977 0.25549 0.1376 0.0
C20 C 0.74947 0.22014 0.17606 0.0
C21 C 0.68743 0.19461 0.21437 0.0
C22 C 0.59152 0.19292 0.21072 0.0
H23 H 0.61141 0.29833 0.11023 0.0
O24 O 0.3492 0.31745 0.09707 0.0
O25 O 0.37449 0.24226 0.15843 0.0
O26 O 0.425 0.46149 0.16798 0.0
O27 O 0.55611 0.42296 0.16875 0.0
C28 C 0.72191 0.18379 0.25704 0.0
C29 C 0.66029 0.17289 0.29451 0.0
H30 H 0.50899 0.12354 0.35821 0.0
H31 H 0.3269 0.08408 0.34146 0.0
H32 H 0.7685 0.27892 0.1081 0.0
H33 H 0.82192 0.21737 0.17631 0.0
H34 H 0.79818 0.19091 0.2618 0.0
H35 H 0.69283 0.17822 0.32746 0.0
Mn36 Mn 1.01908 0.28047 0.48263 0.0
Mn37 Mn 0.23003 0.47453 0.5327 0.0
C38 C 0.16734 0.39235 0.44522 0.0
C39 C 0.92566 0.09941 0.45095 0.0
C40 C 0.06573 0.51479 0.49987 0.0
O41 O 0.99781 0.23064 0.54674 0.0
O42 O 0.1085 0.39116 0.57126 0.0
C43 C 0.27222 0.34388 0.59615 0.0
N44 N 0.307 0.41578 0.56163 0.0
C45 C 0.45953 0.53164 0.60268 0.0
C46 C 0.41433 0.46855 0.641 0.0
C47 C 0.32452 0.37023 0.63701 0.0
C48 C 0.40466 0.49988 0.56256 0.0
H49 H 0.20356 0.26782 0.5928 0.0
C50 C 0.05038 0.29234 0.5779 0.0
O51 O 0.87947 0.15353 0.45929 0.0
O52 O 1.02179 0.14647 0.46357 0.0
N53 N 0.35522 0.56161 0.50036 0.0
C54 C 0.37097 0.63697 0.46904 0.0
C55 C 0.47257 0.72143 0.46147 0.0
C56 C 0.55408 0.73326 0.48966 0.0
C57 C 0.53185 0.66225 0.52562 0.0
C58 C 0.43364 0.57089 0.52699 0.0
H59 H 0.30481 0.6352 0.45245 0.0
O60 O 0.07773 0.34682 0.42523 0.0
O61 O 0.16921 0.3704 0.48707 0.0
O62 O 0.99751 0.41418 0.49708 0.0
O63 O 0.16223 0.54761 0.50561 0.0
C64 C 0.59366 0.68901 0.56417 0.0
C65 C 0.55053 0.63046 0.60373 0.0
H66 H 0.44834 0.49396 0.67357 0.0
H67 H 0.29337 0.31702 0.66562 0.0
H68 H 0.48687 0.78263 0.43683 0.0
H69 H 0.62982 0.80377 0.48642 0.0
H70 H 0.66736 0.76156 0.56542 0.0
H71 H 0.58409 0.66497 0.635 0.0
Mn72 Mn 0.75494 0.97636 0.82433 0.0
Mn73 Mn 0.75739 0.19795 0.86255 0.0
C74 C 0.78579 0.11975 0.77863 0.0
C75 C 0.84711 0.88192 0.79503 0.0
C76 C 0.55945 1.00805 0.83743 0.0
O77 O 0.77545 0.96751 0.89369 0.0
O78 O 0.76307 0.11031 0.91207 0.0
C79 C 0.95209 0.29592 0.90925 0.0
N80 N 0.89533 0.30361 0.87461 0.0
C81 C 0.94486 0.4806 0.89219 0.0
C82 C 0.98187 0.46403 0.93276 0.0
C83 C 0.99202 0.37461 0.94048 0.0
C84 C 0.89771 0.39556 0.86376 0.0
H85 H 0.95383 0.22389 0.91632 0.0
C86 C 0.77933 0.03448 0.9224 0.0
O87 O 0.7481 0.83518 0.8053 0.0
O88 O 0.89456 0.97912 0.80694 0.0
N89 N 0.75217 0.29494 0.81995 0.0
C90 C 0.66365 0.28081 0.79853 0.0
C91 C 0.65101 0.3678 0.78709 0.0
C92 C 0.72808 0.46852 0.79828 0.0
C93 C 0.81266 0.48033 0.82422 0.0
C94 C 0.82566 0.392 0.83254 0.0
H95 H 0.60074 0.20305 0.79137 0.0
O96 O 0.75094 0.02697 0.76331 0.0
O97 O 0.80222 0.12766 0.82093 0.0
O98 O 0.59734 0.94515 0.83208 0.0
O99 O 0.61309 0.1002 0.85117 0.0
C100 C 0.87197 0.57142 0.84853 0.0
C101 C 0.93589 0.57071 0.88337 0.0
H102 H 0.99534 0.51651 -0.04082 0.0
H103 H 1.02339 0.3628 -0.02844 0.0
H104 H 0.58019 0.35722 0.77111 0.0
H105 H 0.71557 0.53457 0.79082 0.0
H106 H 0.86123 0.63939 0.84365 0.0
H107 H 0.97188 0.63725 0.90504 0.0
Mn108 Mn 0.84493 0.7873 0.1668 0.0
Mn109 Mn 0.66117 0.77906 0.23239 0.0
C110 C 0.73161 0.84438 0.13865 0.0
C111 C 1.01691 0.87425 0.12591 0.0
C112 C 0.60859 0.60103 0.1767 0.0
O113 O 0.90603 0.78888 0.23219 0.0
O114 O 0.74337 0.71307 0.24999 0.0
C115 C 0.84502 0.9678 0.27345 0.0
N116 N 0.74051 0.90058 0.26758 0.0
C117 C 0.69364 0.98184 0.32346 0.0
C118 C 0.80009 0.04645 0.3336 0.0
C119 C 0.87668 0.04244 0.30719 0.0
C120 C 0.67017 0.92083 0.28599 0.0
H121 H 0.90315 0.96289 0.25354 0.0
C122 C 0.83644 0.75985 0.26286 0.0
O123 O 0.96046 0.77273 0.13181 0.0
O124 O 0.97911 0.92422 0.14682 0.0
N125 N 0.56283 0.82807 0.2271 0.0
C126 C 0.46596 0.77339 0.20869 0.0
C127 C 0.38198 0.78317 0.22527 0.0
C128 C 0.39573 0.84099 0.26358 0.0
C129 C 0.49246 0.88638 0.28532 0.0
C130 C 0.57499 0.88109 0.26507 0.0
H131 H 0.45113 0.7151 0.18447 0.0
O132 O 0.77283 0.80228 0.1143 0.0
O133 O 0.75517 0.85204 0.18081 0.0
O134 O 0.70855 0.63082 0.173 0.0
O135 O 0.57731 0.65772 0.19532 0.0
C136 C 0.50876 0.93 0.32792 0.0
C137 C 0.60974 0.97828 0.34712 0.0
H138 H 0.82371 0.10217 0.36017 0.0
H139 H 0.95906 0.09433 0.31356 0.0
H140 H 0.30477 0.73988 0.21078 0.0
H141 H 0.33035 0.84588 0.27705 0.0
H142 H 0.4455 0.93105 0.34536 0.0
H143 H 0.62298 1.01812 0.37832 0.0
Mn144 Mn 0.09088 0.8415 0.49961 0.0
Mn145 Mn 0.91216 0.64683 0.56494 0.0
C146 C 0.9187 0.73085 0.47478 0.0
C147 C 0.18542 0.02154 0.45908 0.0
C148 C 0.03559 0.59807 0.50626 0.0
O149 O 0.14835 0.89151 0.5661 0.0
O150 O 0.05808 0.72614 0.58012 0.0
C151 C 0.90521 0.82654 0.60972 0.0
N152 N 0.87121 0.72251 0.60308 0.0
C153 C 0.74799 0.66742 0.66224 0.0
C154 C 0.78576 0.77332 0.67276 0.0
C155 C 0.86275 0.85369 0.64545 0.0
C156 C 0.78458 0.64845 0.62316 0.0
H157 H 0.96582 0.88742 0.58908 0.0
C158 C 0.10135 0.81643 0.59529 0.0
O159 O 0.22388 0.95841 0.46383 0.0
O160 O 0.09821 0.9852 0.48095 0.0
N161 N 0.76662 0.54982 0.56076 0.0
C162 C 0.72466 0.45587 0.54003 0.0
C163 C 0.64041 0.36599 0.55985 0.0
C164 C 0.60031 0.37283 0.60091 0.0
C165 C 0.64816 0.46812 0.62312 0.0
C166 C 0.73044 0.55504 0.60153 0.0
H167 H 0.76031 0.44803 0.51022 0.0
O168 O 0.99885 0.77704 0.44806 0.0
O169 O 0.93744 0.75106 0.51643 0.0
O170 O 0.10525 0.69896 0.50273 0.0
O171 O 0.94748 0.56581 0.52495 0.0
C172 C 0.62156 0.47978 0.66685 0.0
C173 C 0.66917 0.58027 0.686 0.0
H174 H 0.75297 0.79373 0.70033 0.0
H175 H 0.89086 0.93546 0.65263 0.0
H176 H 0.60961 0.29012 0.54474 0.0
H177 H 0.5348 0.3037 0.61552 0.0
H178 H 0.55985 0.41384 0.68491 0.0
H179 H 0.64129 0.59017 0.71768 0.0
Mn180 Mn 0.25896 0.02809 0.82411 0.0
Mn181 Mn 0.27602 0.84911 0.89295 0.0
C182 C 0.20101 0.85647 0.80308 0.0
C183 C 0.17692 0.1263 0.78397 0.0
C184 C 0.44615 0.97364 0.83478 0.0
O185 O 0.26179 0.08569 0.88691 0.0
O186 O 0.33699 0.99566 0.9037 0.0
C187 C 0.0965 0.8421 0.94517 0.0
N188 N 0.16599 0.80901 0.9355 0.0
C189 C 0.11413 0.69199 -0.00098 0.0
C190 C 0.05162 0.7337 0.01327 0.0
C191 C 0.03866 0.80549 -0.01493 0.0
C192 C 0.16197 0.72602 -0.04257 0.0
H193 H 0.08846 0.89856 0.92378 0.0
C194 C 0.28731 0.03842 0.91672 0.0
O195 O 0.27743 0.1631 0.78739 0.0
O196 O 0.12565 0.03785 0.80604 0.0
N197 N 0.23259 0.70346 0.89228 0.0
C198 C 0.28 0.65911 0.86946 0.0
C199 C 0.28993 0.57597 0.88937 0.0
C200 C 0.25322 0.54051 0.93284 0.0
C201 C 0.21035 0.59093 -0.04315 0.0
C202 C 0.20103 0.6719 0.93509 0.0
H203 H 0.31603 0.69171 0.8375 0.0
O204 O 0.23599 0.93662 0.77504 0.0
O205 O 0.19621 0.87405 0.84464 0.0
O206 O 0.41427 0.04305 0.82928 0.0
O207 O 0.38706 0.88192 0.85041 0.0
C208 C 0.1742 0.56301 0.00131 0.0
C209 C 0.12501 0.61276 0.02234 0.0
H210 H 1.00924 0.70729 0.0445 0.0
H211 H 0.98672 0.83449 -0.00542 0.0
H212 H 0.33023 0.54226 0.87221 0.0
H213 H 0.25951 0.47538 0.94753 0.0
H214 H 0.17563 0.49763 0.01822 0.0
H215 H 0.09071 0.58531 0.0551 0.0
Mn216 Mn 0.78321 0.80429 0.40574 0.0
Mn217 Mn 0.75227 0.57313 0.37387 0.0
C218 C 0.81611 0.69937 0.45614 0.0
C219 C 0.874 0.99059 0.42906 0.0
C220 C 0.5897 0.62032 0.37007 0.0
O221 O 0.81914 0.81184 0.33622 0.0
O222 O 0.85252 0.67496 0.32837 0.0
C223 C 0.93614 0.54194 0.38432 0.0
N224 N 0.83526 0.51273 0.39302 0.0
C225 C 0.79267 0.33316 0.40954 0.0
C226 C 0.89303 0.35884 0.39626 0.0
C227 C 0.96742 0.46493 0.38727 0.0
C228 C 0.76695 0.41312 0.40741 0.0
H229 H 0.98981 0.62267 0.37531 0.0
C230 C 0.85147 0.7583 0.31256 0.0
O231 O 0.7768 0.94052 0.41691 0.0
O232 O 0.92232 0.93751 0.42263 0.0
N233 N 0.65444 0.47688 0.41821 0.0
C234 C 0.58531 0.48217 0.4467 0.0
C235 C 0.51502 0.39165 0.47132 0.0
C236 C 0.51954 0.29833 0.46784 0.0
C237 C 0.60195 0.30055 0.44404 0.0
C238 C 0.67106 0.39453 0.4216 0.0
H239 H 0.58319 0.55394 0.45104 0.0
O240 O 0.775 0.75466 0.46965 0.0
O241 O 0.81602 0.69193 0.41384 0.0
O242 O 0.62403 0.69667 0.39657 0.0
O243 O 0.65278 0.60777 0.3476 0.0
C244 C 0.62323 0.21658 0.44432 0.0
C245 C 0.71769 0.23217 0.42573 0.0
H246 H 0.9135 0.29754 0.39441 0.0
H247 H 0.04777 0.48595 0.38286 0.0
H248 H 0.45867 0.39399 0.4934 0.0
H249 H 0.46529 0.22848 0.48679 0.0
H250 H 0.5695 0.14123 0.45989 0.0
H251 H 0.73335 0.16728 0.42589 0.0
Mn252 Mn 0.99197 0.73518 0.73866 0.0
Mn253 Mn 0.19288 0.70475 0.70176 0.0
C254 C 0.12965 0.75578 0.78564 0.0
C255 C 0.90179 0.82943 0.76972 0.0
C256 C 0.98265 0.5422 0.6997 0.0
O257 O 1.02617 0.78447 0.66949 0.0
O258 O 0.19318 0.81287 0.65929 0.0
C259 C 0.39951 0.89317 0.71869 0.0
N260 N 0.33319 0.78823 0.72093 0.0
C261 C 0.47346 0.75227 0.73793 0.0
C262 C 0.54427 0.85795 0.72983 0.0
C263 C 0.50735 0.9302 0.72484 0.0
C264 C 0.36757 0.72045 0.73329 0.0
H265 H 0.36897 0.9459 0.7125 0.0
C266 C 0.1126 0.81939 0.64535 0.0
O267 O 0.85316 0.73384 0.7559 0.0
O268 O 1.00109 0.87501 0.76024 0.0
N269 N 0.19341 0.60158 0.74364 0.0
C270 C 0.12107 0.53055 0.7731 0.0
C271 C 0.14374 0.46019 0.79722 0.0
C272 C 0.24221 0.46739 0.79261 0.0
C273 C 0.32036 0.55238 0.76824 0.0
C274 C 0.29279 0.62075 0.74597 0.0
H275 H 0.04691 0.52702 0.77845 0.0
O276 O 0.03574 0.71762 0.80073 0.0
O277 O 0.134 0.75963 0.74352 0.0
O278 O 0.9393 0.57575 0.7264 0.0
O279 O 0.05908 0.60646 0.67671 0.0
C280 C 0.42647 0.57872 0.76911 0.0
C281 C 0.50346 0.67879 0.75323 0.0
H282 H 0.62629 0.88274 0.72943 0.0
H283 H 0.56188 1.0132 0.72595 0.0
H284 H 0.08666 0.40219 0.82001 0.0
H285 H 0.25985 0.41356 0.81141 0.0
H286 H 0.45013 0.52559 0.78413 0.0
H287 H 0.5854 0.70105 0.75613 0.0
Mn288 Mn 0.28782 0.03912 0.05689 0.0
Mn289 Mn 0.4888 0.24091 0.0011 0.0
C290 C 0.39383 0.19021 0.08992 0.0
C291 C 0.11593 0.93215 0.09601 0.0
C292 C 0.51717 0.08559 0.04863 0.0
O293 O 0.23605 1.01517 -0.00747 0.0
O294 O 0.40175 0.10464 -0.02537 0.0
C295 C 0.36147 0.28227 0.93079 0.0
N296 N 0.44762 0.30875 0.95643 0.0
C297 C 0.56048 0.4395 0.90251 0.0
C298 C 0.47547 0.40462 0.87304 0.0
C299 C 0.37454 0.3294 0.88804 0.0
C300 C 0.54206 0.38991 0.94441 0.0
H301 H 0.28411 0.22563 0.94259 0.0
C302 C 0.30668 0.06749 -0.03678 0.0
O303 O 0.17533 0.89382 0.08464 0.0
O304 O 0.15115 0.02813 0.08129 0.0
N305 N 0.58343 0.38209 0.01817 0.0
C306 C 0.62109 0.43811 0.05579 0.0
C307 C 0.71131 0.53814 0.05308 0.0
C308 C 0.75709 0.58098 0.01127 0.0
C309 C 0.70539 0.52843 -0.02739 0.0
C310 C 0.61479 0.4311 -0.02193 0.0
H311 H 0.57949 0.411 0.08656 0.0
O312 O 0.35721 0.09913 0.11061 0.0
O313 O 0.37682 0.19568 0.04727 0.0
O314 O 0.41804 1.01823 0.04497 0.0
O315 O 0.55342 0.18327 0.04169 0.0
C316 C 0.73187 0.57383 0.92941 0.0
C317 C 0.65905 0.52895 0.89419 0.0
H318 H 0.48554 0.44041 0.8402 0.0
H319 H 0.30734 0.30707 0.8666 0.0
H320 H 0.74382 0.58304 0.08284 0.0
H321 H 0.82494 0.65878 0.00912 0.0
H322 H 0.80198 0.64924 0.92398 0.0
H323 H 0.67443 0.57135 0.86258 0.0
Mn324 Mn 0.30427 0.30361 0.38718 0.0
Mn325 Mn 0.28334 0.49502 0.32687 0.0
C326 C 0.25477 0.41059 0.41964 0.0
C327 C 0.23243 0.12522 0.42889 0.0
C328 C 0.47883 0.53871 0.36777 0.0
O329 O 0.28185 0.25036 0.32396 0.0
O330 O 0.3371 0.41381 0.29899 0.0
C331 C 0.09588 0.32949 0.27746 0.0
N332 N 0.15061 0.42611 0.29607 0.0
C333 C 0.03297 0.4798 0.26309 0.0
C334 C 0.98369 0.38602 0.23997 0.0
C335 C 1.01317 0.30908 0.24811 0.0
C336 C 0.11549 0.49595 0.29167 0.0
H337 H 0.11247 0.267 0.28512 0.0
C338 C 0.29647 0.31678 0.2922 0.0
O339 O 0.32991 0.18371 0.41709 0.0
O340 O 0.17684 0.16537 0.41346 0.0
N341 N 0.23815 0.58988 0.34602 0.0
C342 C 0.29508 0.67931 0.36914 0.0
C343 C 0.26314 0.75529 0.37069 0.0
C344 C 0.18261 0.74717 0.34269 0.0
C345 C 0.13324 0.66137 0.31452 0.0
C346 C 0.16293 0.58346 0.31757 0.0
H347 H 0.36805 0.6956 0.38392 0.0
O348 O 0.31094 0.37634 0.44037 0.0
O349 O 0.23556 0.39114 0.3776 0.0
O350 O 0.45146 0.43894 0.3701 0.0
O351 O 0.41614 0.57189 0.35736 0.0
C352 C 0.05386 0.64898 0.28436 0.0
C353 C 1.003 0.55769 0.25894 0.0
H354 H 0.92117 0.3717 0.21699 0.0
H355 H 0.97212 0.23403 0.23193 0.0
H356 H 0.30467 0.82319 0.39137 0.0
H357 H 0.16072 0.80808 0.34242 0.0
H358 H 0.03003 0.70826 0.28114 0.0
H359 H 0.94024 0.54766 0.23662 0.0
Mn360 Mn 1.016 0.25298 0.71671 0.0
Mn361 Mn 0.80828 0.23427 0.65779 0.0
C362 C 0.86022 0.20309 0.75109 0.0
C363 C 0.12131 0.17656 0.75539 0.0
C364 C 0.95351 0.42989 0.6978 0.0
O365 O 0.05249 0.24013 0.653 0.0
O366 O 0.94262 0.29472 0.62849 0.0
C367 C 0.80147 0.05732 0.60612 0.0
N368 N 0.75287 0.1034 0.62701 0.0
C369 C 0.58801 0.9831 0.59356 0.0
C370 C 0.63868 0.94202 0.56892 0.0
C371 C 0.74537 0.97721 0.57595 0.0
C372 C 0.6482 0.06298 0.62319 0.0
H373 H 0.88172 0.07947 0.61219 0.0
C374 C 1.00748 0.264 0.62158 0.0
O375 O 0.15977 0.2757 0.74457 0.0
O376 O 1.02648 0.12217 0.74102 0.0
N377 N 0.6673 0.18298 0.67673 0.0
C378 C 0.63069 0.23932 0.69788 0.0
C379 C 0.52305 0.20684 0.69715 0.0
C380 C 0.45607 0.12607 0.66933 0.0
C381 C 0.49662 0.07598 0.64379 0.0
C382 C 0.60322 0.10646 0.64873 0.0
H383 H 0.6848 0.31292 0.71222 0.0
O384 O 0.94968 0.25498 0.77116 0.0
O385 O 0.86128 0.18391 0.709 0.0
O386 O 1.02547 0.40186 0.70053 0.0
O387 O 0.85869 0.36654 0.68821 0.0
C388 C 0.4351 0.99697 0.61362 0.0
C389 C 0.4806 0.94971 0.58879 0.0
H390 H 0.5954 0.88311 0.54486 0.0
H391 H 0.78487 0.94389 0.55778 0.0
H392 H 0.49208 0.24797 0.71543 0.0
H393 H 0.37407 0.10449 0.66718 0.0
H394 H 0.35282 0.97218 0.60925 0.0
H395 H 0.43263 0.88867 0.56572 0.0
Mn396 Mn 0.81414 0.07337 0.06896 0.0
Mn397 Mn 0.59501 0.85099 0.03273 0.0
C398 C 0.71647 0.92442 0.11535 0.0
C399 C 0.99905 0.1751 0.09636 0.0
C400 C 0.59239 0.0471 0.05162 0.0
O401 O 0.83615 0.07984 -0.00072 0.0
O402 O 0.68177 0.93569 -0.01796 0.0
C403 C 0.66063 0.7415 -0.02119 0.0
N404 N 0.61775 0.73862 0.01907 0.0
C405 C 0.47664 0.56451 0.00499 0.0
C406 C 0.50659 0.58021 -0.03966 0.0
C407 C 0.59836 0.67033 0.94692 0.0
C408 C 0.52904 0.65049 0.03311 0.0
H409 H 0.73409 0.80845 -0.0315 0.0
C410 C 0.77126 1.0119 -0.02895 0.0
O411 O 0.94272 0.21882 0.08596 0.0
O412 O 0.9533 0.07663 0.086 0.0
N413 N 0.50213 0.76154 0.07825 0.0
C414 C 0.43848 0.78462 0.10262 0.0
C415 C 0.33941 0.70407 0.11612 0.0
C416 C 0.30696 0.60016 0.10527 0.0
C417 C 0.37129 0.57878 0.07854 0.0
C418 C 0.47165 0.6617 0.0669 0.0
H419 H 0.46092 0.86501 0.10996 0.0
O420 O 0.76504 1.01845 0.13124 0.0
O421 O 0.71653 0.92068 0.07249 0.0
O422 O 0.69074 0.10684 0.05934 0.0
O423 O 0.55242 0.95198 0.0426 0.0
C424 C 0.3311 0.48346 0.05638 0.0
C425 C 0.3826 0.47688 0.01893 0.0
H426 H 0.45591 0.52624 0.93574 0.0
H427 H 0.62142 0.685 0.91226 0.0
H428 H 0.28691 0.72259 0.13369 0.0
H429 H 0.2284 0.5391 0.11409 0.0
H430 H 0.25324 0.41962 0.06334 0.0
H431 H 0.34323 0.40827 -0.00153 0.0
loop_
_geom_bond_atom_site_label_1
_geom_bond_atom_site_label_2
_geom_bond_distance
_geom_bond_site_symmetry_2
_ccdc_geom_bond_type
Mn0 O5 2.095 . S
Mn0 O15 2.162 . S
Mn0 O16 2.297 . S
Mn0 O24 2.385 . S
Mn0 O25 2.209 . S
Mn0 O26 2.094 . S
Mn1 O6 2.121 . S
Mn1 N8 2.257 . S
Mn1 N17 2.282 . S
Mn1 O25 2.215 . S
Mn1 O27 2.117 . S
C2 O24 1.234 . S
C2 O25 1.283 . S
C3 O15 1.281 . S
C3 O16 1.236 . S
C4 O26 1.240 . S
C4 O27 1.264 . S
O5 Mn0 2.095 . S
O5 C14 1.250 . S
O6 Mn1 2.121 . S
O6 C14 1.258 . S
C7 N8 1.326 . S
C7 C11 1.460 1_545 S
C7 H13 0.929 . S
N8 Mn1 2.257 . S
N8 C7 1.326 . S
N8 C12 1.362 . S
C9 C10 1.258 1_545 S
C9 C12 1.431 . S
C9 C29 1.449 1_545 S
C10 C9 1.258 1_565 S
C10 C11 1.477 . S
C10 H30 0.931 . S
C11 C7 1.460 1_565 S
C11 C10 1.477 . S
C11 H31 0.930 . S
C12 N8 1.362 . S
C12 C9 1.431 . S
C12 C22 1.476 . S
H13 C7 0.929 . S
C14 O5 1.250 . S
C14 O6 1.258 . S
O15 Mn0 2.162 . S
O15 C3 1.281 . S
O16 Mn0 2.297 . S
O16 C3 1.236 . S
N17 Mn1 2.282 . S
N17 C18 1.328 . S
N17 C22 1.318 . S
C18 N17 1.328 . S
C18 C19 1.457 . S
C18 H23 0.929 . S
C19 C18 1.457 . S
C19 C20 1.291 . S
C19 H32 0.931 . S
C20 C19 1.291 . S
C20 C21 1.373 . S
C20 H33 0.929 . S
C21 C20 1.373 . S
C21 C22 1.396 . S
C21 C28 1.403 . S
C22 C12 1.476 . S
C22 N17 1.318 . S
C22 C21 1.396 . S
H23 C18 0.929 . S
O24 Mn0 2.385 . S
O24 C2 1.234 . S
O25 Mn0 2.209 . S
O25 Mn1 2.215 . S
O25 C2 1.283 . S
O26 Mn0 2.094 . S
O26 C4 1.240 . S
O27 Mn1 2.117 . S
O27 C4 1.264 . S
C28 C21 1.403 . S
C28 C29 1.399 1_545 S
C28 H34 0.929 . S
C29 C9 1.449 1_565 S
C29 C28 1.399 1_565 S
C29 H35 0.930 . S
H30 C10 0.931 . S
H31 C11 0.930 . S
H32 C19 0.931 . S
H33 C20 0.929 . S
H34 C28 0.929 . S
H35 C29 0.930 . S
Mn36 O41 2.095 . S
Mn36 O51 2.162 . S
Mn36 O52 2.297 . S
Mn36 O60 2.385 1_655 S
Mn36 O61 2.209 1_655 S
Mn36 O62 2.094 . S
Mn37 O42 2.121 . S
Mn37 N44 2.257 . S
Mn37 N53 2.282 . S
Mn37 O61 2.215 . S
Mn37 O63 2.117 . S
C38 O60 1.234 . S
C38 O61 1.283 . S
C39 O51 1.281 . S
C39 O52 1.236 . S
C40 O62 1.240 . S
C40 O63 1.264 1_655 S
O41 Mn36 2.095 . S
O41 C50 1.250 . S
O42 Mn37 2.121 . S
O42 C50 1.258 1_455 S
C43 N44 1.326 . S
C43 C47 1.460 . S
C43 H49 0.929 . S
N44 Mn37 2.257 . S
N44 C43 1.326 . S
N44 C48 1.362 . S
C45 C46 1.258 . S
C45 C48 1.431 . S
C45 C65 1.449 . S
C46 C45 1.258 . S
C46 C47 1.477 . S
C46 H66 0.931 . S
C47 C43 1.460 . S
C47 C46 1.477 . S
C47 H67 0.930 . S
C48 N44 1.362 . S
C48 C45 1.431 . S
C48 C58 1.476 . S
H49 C43 0.929 . S
C50 O41 1.250 . S
C50 O42 1.258 1_655 S
O51 Mn36 2.162 . S
O51 C39 1.281 . S
O52 Mn36 2.297 . S
O52 C39 1.236 . S
N53 Mn37 2.282 . S
N53 C54 1.328 . S
N53 C58 1.318 . S
C54 N53 1.328 . S
C54 C55 1.457 . S
C54 H59 0.929 . S
C55 C54 1.457 . S
C55 C56 1.291 . S
C55 H68 0.931 . S
C56 C55 1.291 . S
C56 C57 1.373 . S
C56 H69 0.929 . S
C57 C56 1.373 . S
C57 C58 1.396 . S
C57 C64 1.403 . S
C58 C48 1.476 . S
C58 N53 1.318 . S
C58 C57 1.396 . S
H59 C54 0.929 . S
O60 Mn36 2.385 1_455 S
O60 C38 1.234 . S
O61 Mn36 2.209 1_455 S
O61 Mn37 2.215 . S
O61 C38 1.283 . S
O62 Mn36 2.094 . S
O62 C40 1.240 . S
O63 Mn37 2.117 . S
O63 C40 1.264 1_455 S
C64 C57 1.403 . S
C64 C65 1.399 . S
C64 H70 0.929 . S
C65 C45 1.449 . S
C65 C64 1.399 . S
C65 H71 0.930 . S
H66 C46 0.931 . S
H67 C47 0.930 . S
H68 C55 0.931 . S
H69 C56 0.929 . S
H70 C64 0.929 . S
H71 C65 0.930 . S
Mn72 O77 2.095 . S
Mn72 O87 2.162 . S
Mn72 O88 2.297 . S
Mn72 O96 2.385 1_565 S
Mn72 O97 2.209 1_565 S
Mn72 O98 2.094 . S
Mn73 O78 2.121 . S
Mn73 N80 2.257 . S
Mn73 N89 2.282 . S
Mn73 O97 2.215 . S
Mn73 O99 2.117 . S
C74 O96 1.234 . S
C74 O97 1.283 . S
C75 O87 1.281 . S
C75 O88 1.236 . S
C76 O98 1.240 . S
C76 O99 1.264 1_565 S
O77 Mn72 2.095 . S
O77 C86 1.250 . S
O78 Mn73 2.121 . S
O78 C86 1.258 1_545 S
C79 N80 1.326 . S
C79 C83 1.460 1_655 S
C79 H85 0.929 . S
N80 Mn73 2.257 . S
N80 C79 1.326 . S
N80 C84 1.362 . S
C81 C82 1.258 1_655 S
C81 C84 1.431 . S
C81 C101 1.449 1_655 S
C82 C81 1.258 1_455 S
C82 C83 1.477 . S
C82 H102 0.931 . S
C83 C79 1.460 1_455 S
C83 C82 1.477 . S
C83 H103 0.930 1_556 S
C84 N80 1.362 . S
C84 C81 1.431 . S
C84 C94 1.476 . S
H85 C79 0.929 . S
C86 O77 1.250 . S
C86 O78 1.258 1_565 S
O87 Mn72 2.162 . S
O87 C75 1.281 . S
O88 Mn72 2.297 . S
O88 C75 1.236 . S
N89 Mn73 2.282 . S
N89 C90 1.328 . S
N89 C94 1.318 . S
C90 N89 1.328 . S
C90 C91 1.457 . S
C90 H95 0.929 . S
C91 C90 1.457 . S
C91 C92 1.291 . S
C91 H104 0.931 . S
C92 C91 1.291 . S
C92 C93 1.373 . S
C92 H105 0.929 . S
C93 C92 1.373 . S
C93 C94 1.396 . S
C93 C100 1.403 . S
C94 C84 1.476 . S
C94 N89 1.318 . S
C94 C93 1.396 . S
H95 C90 0.929 . S
O96 Mn72 2.385 1_545 S
O96 C74 1.234 . S
O97 Mn72 2.209 1_545 S
O97 Mn73 2.215 . S
O97 C74 1.283 . S
O98 Mn72 2.094 . S
O98 C76 1.240 . S
O99 Mn73 2.117 . S
O99 C76 1.264 1_545 S
C100 C93 1.403 . S
C100 C101 1.399 1_655 S
C100 H106 0.929 . S
C101 C81 1.449 1_455 S
C101 C100 1.399 1_455 S
C101 H107 0.930 . S
H102 C82 0.931 . S
H103 C83 0.930 1_554 S
H104 C91 0.931 . S
H105 C92 0.929 . S
H106 C100 0.929 . S
H107 C101 0.930 . S
Mn108 O113 2.095 . S
Mn108 O123 2.162 . S
Mn108 O124 2.297 . S
Mn108 O132 2.385 . S
Mn108 O133 2.209 . S
Mn108 O134 2.094 . S
Mn109 O114 2.121 . S
Mn109 N116 2.257 . S
Mn109 N125 2.282 . S
Mn109 O133 2.215 . S
Mn109 O135 2.117 . S
C110 O132 1.234 . S
C110 O133 1.283 . S
C111 O123 1.281 . S
C111 O124 1.236 . S
C112 O134 1.240 . S
C112 O135 1.264 . S
O113 Mn108 2.095 . S
O113 C122 1.250 . S
O114 Mn109 2.121 . S
O114 C122 1.258 . S
C115 N116 1.326 . S
C115 C119 1.460 1_565 S
C115 H121 0.929 . S
N116 Mn109 2.257 . S
N116 C115 1.326 . S
N116 C120 1.362 . S
C117 C118 1.258 1_565 S
C117 C120 1.431 . S
C117 C137 1.449 1_565 S
C118 C117 1.258 1_545 S
C118 C119 1.477 . S
C118 H138 0.931 . S
C119 C115 1.460 1_545 S
C119 C118 1.477 . S
C119 H139 0.930 . S
C120 N116 1.362 . S
C120 C117 1.431 . S
C120 C130 1.476 . S
H121 C115 0.929 . S
C122 O113 1.250 . S
C122 O114 1.258 . S
O123 Mn108 2.162 . S
O123 C111 1.281 . S
O124 Mn108 2.297 . S
O124 C111 1.236 . S
N125 Mn109 2.282 . S
N125 C126 1.328 . S
N125 C130 1.318 . S
C126 N125 1.328 . S
C126 C127 1.457 . S
C126 H131 0.929 . S
C127 C126 1.457 . S
C127 C128 1.291 . S
C127 H140 0.931 . S
C128 C127 1.291 . S
C128 C129 1.373 . S
C128 H141 0.929 . S
C129 C128 1.373 . S
C129 C130 1.396 . S
C129 C136 1.403 . S
C130 C120 1.476 . S
C130 N125 1.318 . S
C130 C129 1.396 . S
H131 C126 0.929 . S
O132 Mn108 2.385 . S
O132 C110 1.234 . S
O133 Mn108 2.209 . S
O133 Mn109 2.215 . S
O133 C110 1.283 . S
O134 Mn108 2.094 . S
O134 C112 1.240 . S
O135 Mn109 2.117 . S
O135 C112 1.264 . S
C136 C129 1.403 . S
C136 C137 1.399 1_565 S
C136 H142 0.929 . S
C137 C117 1.449 1_545 S
C137 C136 1.399 1_545 S
C137 H143 0.930 . S
H138 C118 0.931 . S
H139 C119 0.930 . S
H140 C127 0.931 . S
H141 C128 0.929 . S
H142 C136 0.929 . S
H143 C137 0.930 . S
Mn144 O149 2.095 . S
Mn144 O159 2.162 . S
Mn144 O160 2.297 . S
Mn144 O168 2.385 1_455 S
Mn144 O169 2.209 1_455 S
Mn144 O170 2.094 . S
Mn145 O150 2.121 . S
Mn145 N152 2.257 . S
Mn145 N161 2.282 . S
Mn145 O169 2.215 . S
Mn145 O171 2.117 . S
C146 O168 1.234 . S
C146 O169 1.283 . S
C147 O159 1.281 . S
C147 O160 1.236 . S
C148 O170 1.240 . S
C148 O171 1.264 1_455 S
O149 Mn144 2.095 . S
O149 C158 1.250 . S
O150 Mn145 2.121 . S
O150 C158 1.258 1_655 S
C151 N152 1.326 . S
C151 C155 1.460 . S
C151 H157 0.929 . S
N152 Mn145 2.257 . S
N152 C151 1.326 . S
N152 C156 1.362 . S
C153 C154 1.258 . S
C153 C156 1.431 . S
C153 C173 1.449 . S
C154 C153 1.258 . S
C154 C155 1.477 . S
C154 H174 0.931 . S
C155 C151 1.460 . S
C155 C154 1.477 . S
C155 H175 0.930 . S
C156 N152 1.362 . S
C156 C153 1.431 . S
C156 C166 1.476 . S
H157 C151 0.929 . S
C158 O149 1.250 . S
C158 O150 1.258 1_455 S
O159 Mn144 2.162 . S
O159 C147 1.281 . S
O160 Mn144 2.297 . S
O160 C147 1.236 . S
N161 Mn145 2.282 . S
N161 C162 1.328 . S
N161 C166 1.318 . S
C162 N161 1.328 . S
C162 C163 1.457 . S
C162 H167 0.929 . S
C163 C162 1.457 . S
C163 C164 1.291 . S
C163 H176 0.931 . S
C164 C163 1.291 . S
C164 C165 1.373 . S
C164 H177 0.929 . S
C165 C164 1.373 . S
C165 C166 1.396 . S
C165 C172 1.403 . S
C166 C156 1.476 . S
C166 N161 1.318 . S
C166 C165 1.396 . S
H167 C162 0.929 . S
O168 Mn144 2.385 1_655 S
O168 C146 1.234 . S
O169 Mn144 2.209 1_655 S
O169 Mn145 2.215 . S
O169 C146 1.283 . S
O170 Mn144 2.094 . S
O170 C148 1.240 . S
O171 Mn145 2.117 . S
O171 C148 1.264 1_655 S
C172 C165 1.403 . S
C172 C173 1.399 . S
C172 H178 0.929 . S
C173 C153 1.449 . S
C173 C172 1.399 . S
C173 H179 0.930 . S
H174 C154 0.931 . S
H175 C155 0.930 . S
H176 C163 0.931 . S
H177 C164 0.929 . S
H178 C172 0.929 . S
H179 C173 0.930 . S
Mn180 O185 2.095 . S
Mn180 O195 2.162 . S
Mn180 O196 2.297 . S
Mn180 O204 2.385 1_545 S
Mn180 O205 2.209 1_545 S
Mn180 O206 2.094 . S
Mn181 O186 2.121 . S
Mn181 N188 2.257 . S
Mn181 N197 2.282 . S
Mn181 O205 2.215 . S
Mn181 O207 2.117 . S
C182 O204 1.234 . S
C182 O205 1.283 . S
C183 O195 1.281 . S
C183 O196 1.236 . S
C184 O206 1.240 . S
C184 O207 1.264 1_545 S
O185 Mn180 2.095 . S
O185 C194 1.250 . S
O186 Mn181 2.121 . S
O186 C194 1.258 1_565 S
C187 N188 1.326 . S
C187 C191 1.460 1_455 S
C187 H193 0.929 . S
N188 Mn181 2.257 . S
N188 C187 1.326 . S
N188 C192 1.362 . S
C189 C190 1.258 1_455 S
C189 C192 1.431 . S
C189 C209 1.449 1_455 S
C190 C189 1.258 1_655 S
C190 C191 1.477 . S
C190 H210 0.931 . S
C191 C187 1.460 1_655 S
C191 C190 1.477 . S
C191 H211 0.930 1_556 S
C192 N188 1.362 . S
C192 C189 1.431 . S
C192 C202 1.476 . S
H193 C187 0.929 . S
C194 O185 1.250 . S
C194 O186 1.258 1_545 S
O195 Mn180 2.162 . S
O195 C183 1.281 . S
O196 Mn180 2.297 . S
O196 C183 1.236 . S
N197 Mn181 2.282 . S
N197 C198 1.328 . S
N197 C202 1.318 . S
C198 N197 1.328 . S
C198 C199 1.457 . S
C198 H203 0.929 . S
C199 C198 1.457 . S
C199 C200 1.291 . S
C199 H212 0.931 . S
C200 C199 1.291 . S
C200 C201 1.373 . S
C200 H213 0.929 . S
C201 C200 1.373 . S
C201 C202 1.396 . S
C201 C208 1.403 . S
C202 C192 1.476 . S
C202 N197 1.318 . S
C202 C201 1.396 . S
H203 C198 0.929 . S
O204 Mn180 2.385 1_565 S
O204 C182 1.234 . S
O205 Mn180 2.209 1_565 S
O205 Mn181 2.215 . S
O205 C182 1.283 . S
O206 Mn180 2.094 . S
O206 C184 1.240 . S
O207 Mn181 2.117 . S
O207 C184 1.264 1_565 S
C208 C201 1.403 . S
C208 C209 1.399 1_455 S
C208 H214 0.929 . S
C209 C189 1.449 1_655 S
C209 C208 1.399 1_655 S
C209 H215 0.930 . S
H210 C190 0.931 . S
H211 C191 0.930 1_554 S
H212 C199 0.931 . S
H213 C200 0.929 . S
H214 C208 0.929 . S
H215 C209 0.930 . S
Mn216 O221 2.095 . S
Mn216 O231 2.162 . S
Mn216 O232 2.297 . S
Mn216 O240 2.385 . S
Mn216 O241 2.209 . S
Mn216 O242 2.094 . S
Mn217 O222 2.121 . S
Mn217 N224 2.257 . S
Mn217 N233 2.282 . S
Mn217 O241 2.215 . S
Mn217 O243 2.117 . S
C218 O240 1.234 . S
C218 O241 1.283 . S
C219 O231 1.281 . S
C219 O232 1.236 . S
C220 O242 1.240 . S
C220 O243 1.264 . S
O221 Mn216 2.095 . S
O221 C230 1.250 . S
O222 Mn217 2.121 . S
O222 C230 1.258 . S
C223 N224 1.326 . S
C223 C227 1.460 1_655 S
C223 H229 0.929 . S
N224 Mn217 2.257 . S
N224 C223 1.326 . S
N224 C228 1.362 . S
C225 C226 1.258 1_655 S
C225 C228 1.431 . S
C225 C245 1.449 1_655 S
C226 C225 1.258 1_455 S
C226 C227 1.477 . S
C226 H246 0.931 . S
C227 C223 1.460 1_455 S
C227 C226 1.477 . S
C227 H247 0.930 . S
C228 N224 1.362 . S
C228 C225 1.431 . S
C228 C238 1.476 . S
H229 C223 0.929 . S
C230 O221 1.250 . S
C230 O222 1.258 . S
O231 Mn216 2.162 . S
O231 C219 1.281 . S
O232 Mn216 2.297 . S
O232 C219 1.236 . S
N233 Mn217 2.282 . S
N233 C234 1.328 . S
N233 C238 1.318 . S
C234 N233 1.328 . S
C234 C235 1.457 . S
C234 H239 0.929 . S
C235 C234 1.457 . S
C235 C236 1.291 . S
C235 H248 0.931 . S
C236 C235 1.291 . S
C236 C237 1.373 . S
C236 H249 0.929 . S
C237 C236 1.373 . S
C237 C238 1.396 . S
C237 C244 1.403 . S
C238 C228 1.476 . S
C238 N233 1.318 . S
C238 C237 1.396 . S
H239 C234 0.929 . S
O240 Mn216 2.385 . S
O240 C218 1.234 . S
O241 Mn216 2.209 . S
O241 Mn217 2.215 . S
O241 C218 1.283 . S
O242 Mn216 2.094 . S
O242 C220 1.240 . S
O243 Mn217 2.117 . S
O243 C220 1.264 . S
C244 C237 1.403 . S
C244 C245 1.399 1_655 S
C244 H250 0.929 . S
C245 C225 1.449 1_455 S
C245 C244 1.399 1_455 S
C245 H251 0.930 . S
H246 C226 0.931 . S
H247 C227 0.930 . S
H248 C235 0.931 . S
H249 C236 0.929 . S
H250 C244 0.929 . S
H251 C245 0.930 . S
Mn252 O257 2.095 . S
Mn252 O267 2.162 . S
Mn252 O268 2.297 . S
Mn252 O276 2.385 1_655 S
Mn252 O277 2.209 1_655 S
Mn252 O278 2.094 . S
Mn253 O258 2.121 . S
Mn253 N260 2.257 . S
Mn253 N269 2.282 . S
Mn253 O277 2.215 . S
Mn253 O279 2.117 . S
C254 O276 1.234 . S
C254 O277 1.283 . S
C255 O267 1.281 . S
C255 O268 1.236 . S
C256 O278 1.240 . S
C256 O279 1.264 1_655 S
O257 Mn252 2.095 . S
O257 C266 1.250 . S
O258 Mn253 2.121 . S
O258 C266 1.258 1_455 S
C259 N260 1.326 . S
C259 C263 1.460 1_565 S
C259 H265 0.929 . S
N260 Mn253 2.257 . S
N260 C259 1.326 . S
N260 C264 1.362 . S
C261 C262 1.258 1_565 S
C261 C264 1.431 . S
C261 C281 1.449 1_565 S
C262 C261 1.258 1_545 S
C262 C263 1.477 . S
C262 H282 0.931 . S
C263 C259 1.460 1_545 S
C263 C262 1.477 . S
C263 H283 0.930 . S
C264 N260 1.362 . S
C264 C261 1.431 . S
C264 C274 1.476 . S
H265 C259 0.929 . S
C266 O257 1.250 . S
C266 O258 1.258 1_655 S
O267 Mn252 2.162 . S
O267 C255 1.281 . S
O268 Mn252 2.297 . S
O268 C255 1.236 . S
N269 Mn253 2.282 . S
N269 C270 1.328 . S
N269 C274 1.318 . S
C270 N269 1.328 . S
C270 C271 1.457 . S
C270 H275 0.929 . S
C271 C270 1.457 . S
C271 C272 1.291 . S
C271 H284 0.931 . S
C272 C271 1.291 . S
C272 C273 1.373 . S
C272 H285 0.929 . S
C273 C272 1.373 . S
C273 C274 1.396 . S
C273 C280 1.403 . S
C274 C264 1.476 . S
C274 N269 1.318 . S
C274 C273 1.396 . S
H275 C270 0.929 . S
O276 Mn252 2.385 1_455 S
O276 C254 1.234 . S
O277 Mn252 2.209 1_455 S
O277 Mn253 2.215 . S
O277 C254 1.283 . S
O278 Mn252 2.094 . S
O278 C256 1.240 . S
O279 Mn253 2.117 . S
O279 C256 1.264 1_455 S
C280 C273 1.403 . S
C280 C281 1.399 1_565 S
C280 H286 0.929 . S
C281 C261 1.449 1_545 S
C281 C280 1.399 1_545 S
C281 H287 0.930 . S
H282 C262 0.931 . S
H283 C263 0.930 . S
H284 C271 0.931 . S
H285 C272 0.929 . S
H286 C280 0.929 . S
H287 C281 0.930 . S
Mn288 O293 2.095 . S
Mn288 O303 2.162 . S
Mn288 O304 2.297 . S
Mn288 O312 2.385 1_565 S
Mn288 O313 2.209 1_565 S
Mn288 O314 2.094 . S
Mn289 O294 2.121 . S
Mn289 N296 2.257 . S
Mn289 N305 2.282 . S
Mn289 O313 2.215 . S
Mn289 O315 2.117 . S
C290 O312 1.234 . S
C290 O313 1.283 . S
C291 O303 1.281 . S
C291 O304 1.236 . S
C292 O314 1.240 . S
C292 O315 1.264 1_565 S
O293 Mn288 2.095 . S
O293 C302 1.250 . S
O294 Mn289 2.121 . S
O294 C302 1.258 1_545 S
C295 N296 1.326 . S
C295 C299 1.460 . S
C295 H301 0.929 . S
N296 Mn289 2.257 . S
N296 C295 1.326 . S
N296 C300 1.362 . S
C297 C298 1.258 . S
C297 C300 1.431 . S
C297 C317 1.449 . S
C298 C297 1.258 . S
C298 C299 1.477 . S
C298 H318 0.931 . S
C299 C295 1.460 . S
C299 C298 1.477 . S
C299 H319 0.930 1_554 S
C300 N296 1.362 . S
C300 C297 1.431 . S
C300 C310 1.476 . S
H301 C295 0.929 . S
C302 O293 1.250 . S
C302 O294 1.258 1_565 S
O303 Mn288 2.162 . S
O303 C291 1.281 . S
O304 Mn288 2.297 . S
O304 C291 1.236 . S
N305 Mn289 2.282 . S
N305 C306 1.328 . S
N305 C310 1.318 . S
C306 N305 1.328 . S
C306 C307 1.457 . S
C306 H311 0.929 . S
C307 C306 1.457 . S
C307 C308 1.291 . S
C307 H320 0.931 . S
C308 C307 1.291 . S
C308 C309 1.373 . S
C308 H321 0.929 . S
C309 C308 1.373 . S
C309 C310 1.396 . S
C309 C316 1.403 . S
C310 C300 1.476 . S
C310 N305 1.318 . S
C310 C309 1.396 . S
H311 C306 0.929 . S
O312 Mn288 2.385 1_545 S
O312 C290 1.234 . S
O313 Mn288 2.209 1_545 S
O313 Mn289 2.215 . S
O313 C290 1.283 . S
O314 Mn288 2.094 . S
O314 C292 1.240 . S
O315 Mn289 2.117 . S
O315 C292 1.264 1_545 S
C316 C309 1.403 . S
C316 C317 1.399 . S
C316 H322 0.929 . S
C317 C297 1.449 . S
C317 C316 1.399 . S
C317 H323 0.930 . S
H318 C298 0.931 . S
H319 C299 0.930 1_556 S
H320 C307 0.931 . S
H321 C308 0.929 . S
H322 C316 0.929 . S
H323 C317 0.930 . S
Mn324 O329 2.095 . S
Mn324 O339 2.162 . S
Mn324 O340 2.297 . S
Mn324 O348 2.385 . S
Mn324 O349 2.209 . S
Mn324 O350 2.094 . S
Mn325 O330 2.121 . S
Mn325 N332 2.257 . S
Mn325 N341 2.282 . S
Mn325 O349 2.215 . S
Mn325 O351 2.117 . S
C326 O348 1.234 . S
C326 O349 1.283 . S
C327 O339 1.281 . S
C327 O340 1.236 . S
C328 O350 1.240 . S
C328 O351 1.264 . S
O329 Mn324 2.095 . S
O329 C338 1.250 . S
O330 Mn325 2.121 . S
O330 C338 1.258 . S
C331 N332 1.326 . S
C331 C335 1.460 1_455 S
C331 H337 0.929 . S
N332 Mn325 2.257 . S
N332 C331 1.326 . S
N332 C336 1.362 . S
C333 C334 1.258 1_455 S
C333 C336 1.431 . S
C333 C353 1.449 1_455 S
C334 C333 1.258 1_655 S
C334 C335 1.477 . S
C334 H354 0.931 . S
C335 C331 1.460 1_655 S
C335 C334 1.477 . S
C335 H355 0.930 . S
C336 N332 1.362 . S
C336 C333 1.431 . S
C336 C346 1.476 . S
H337 C331 0.929 . S
C338 O329 1.250 . S
C338 O330 1.258 . S
O339 Mn324 2.162 . S
O339 C327 1.281 . S
O340 Mn324 2.297 . S
O340 C327 1.236 . S
N341 Mn325 2.282 . S
N341 C342 1.328 . S
N341 C346 1.318 . S
C342 N341 1.328 . S
C342 C343 1.457 . S
C342 H347 0.929 . S
C343 C342 1.457 . S
C343 C344 1.291 . S
C343 H356 0.931 . S
C344 C343 1.291 . S
C344 C345 1.373 . S
C344 H357 0.929 . S
C345 C344 1.373 . S
C345 C346 1.396 . S
C345 C352 1.403 . S
C346 C336 1.476 . S
C346 N341 1.318 . S
C346 C345 1.396 . S
H347 C342 0.929 . S
O348 Mn324 2.385 . S
O348 C326 1.234 . S
O349 Mn324 2.209 . S
O349 Mn325 2.215 . S
O349 C326 1.283 . S
O350 Mn324 2.094 . S
O350 C328 1.240 . S
O351 Mn325 2.117 . S
O351 C328 1.264 . S
C352 C345 1.403 . S
C352 C353 1.399 1_455 S
C352 H358 0.929 . S
C353 C333 1.449 1_655 S
C353 C352 1.399 1_655 S
C353 H359 0.930 . S
H354 C334 0.931 . S
H355 C335 0.930 . S
H356 C343 0.931 . S
H357 C344 0.929 . S
H358 C352 0.929 . S
H359 C353 0.930 . S
Mn360 O365 2.095 . S
Mn360 O375 2.162 . S
Mn360 O376 2.297 . S
Mn360 O384 2.385 1_455 S
Mn360 O385 2.209 1_455 S
Mn360 O386 2.094 . S
Mn361 O366 2.121 . S
Mn361 N368 2.257 . S
Mn361 N377 2.282 . S
Mn361 O385 2.215 . S
Mn361 O387 2.117 . S
C362 O384 1.234 . S
C362 O385 1.283 . S
C363 O375 1.281 . S
C363 O376 1.236 . S
C364 O386 1.240 . S
C364 O387 1.264 1_455 S
O365 Mn360 2.095 . S
O365 C374 1.250 . S
O366 Mn361 2.121 . S
O366 C374 1.258 1_655 S
C367 N368 1.326 . S
C367 C371 1.460 1_545 S
C367 H373 0.929 . S
N368 Mn361 2.257 . S
N368 C367 1.326 . S
N368 C372 1.362 . S
C369 C370 1.258 1_545 S
C369 C372 1.431 . S
C369 C389 1.449 1_545 S
C370 C369 1.258 1_565 S
C370 C371 1.477 . S
C370 H390 0.931 . S
C371 C367 1.460 1_565 S
C371 C370 1.477 . S
C371 H391 0.930 . S
C372 N368 1.362 . S
C372 C369 1.431 . S
C372 C382 1.476 . S
H373 C367 0.929 . S
C374 O365 1.250 . S
C374 O366 1.258 1_455 S
O375 Mn360 2.162 . S
O375 C363 1.281 . S
O376 Mn360 2.297 . S
O376 C363 1.236 . S
N377 Mn361 2.282 . S
N377 C378 1.328 . S
N377 C382 1.318 . S
C378 N377 1.328 . S
C378 C379 1.457 . S
C378 H383 0.929 . S
C379 C378 1.457 . S
C379 C380 1.291 . S
C379 H392 0.931 . S
C380 C379 1.291 . S
C380 C381 1.373 . S
C380 H393 0.929 . S
C381 C380 1.373 . S
C381 C382 1.396 . S
C381 C388 1.403 . S
C382 C372 1.476 . S
C382 N377 1.318 . S
C382 C381 1.396 . S
H383 C378 0.929 . S
O384 Mn360 2.385 1_655 S
O384 C362 1.234 . S
O385 Mn360 2.209 1_655 S
O385 Mn361 2.215 . S
O385 C362 1.283 . S
O386 Mn360 2.094 . S
O386 C364 1.240 . S
O387 Mn361 2.117 . S
O387 C364 1.264 1_655 S
C388 C381 1.403 . S
C388 C389 1.399 1_545 S
C388 H394 0.929 . S
C389 C369 1.449 1_565 S
C389 C388 1.399 1_565 S
C389 H395 0.930 . S
H390 C370 0.931 . S
H391 C371 0.930 . S
H392 C379 0.931 . S
H393 C380 0.929 . S
H394 C388 0.929 . S
H395 C389 0.930 . S
Mn396 O401 2.095 . S
Mn396 O411 2.162 . S
Mn396 O412 2.297 . S
Mn396 O420 2.385 1_545 S
Mn396 O421 2.209 1_545 S
Mn396 O422 2.094 . S
Mn397 O402 2.121 . S
Mn397 N404 2.257 . S
Mn397 N413 2.282 . S
Mn397 O421 2.215 . S
Mn397 O423 2.117 . S
C398 O420 1.234 . S
C398 O421 1.283 . S
C399 O411 1.281 . S
C399 O412 1.236 . S
C400 O422 1.240 . S
C400 O423 1.264 1_545 S
O401 Mn396 2.095 . S
O401 C410 1.250 . S
O402 Mn397 2.121 . S
O402 C410 1.258 1_565 S
C403 N404 1.326 . S
C403 C407 1.460 . S
C403 H409 0.929 . S
N404 Mn397 2.257 . S
N404 C403 1.326 . S
N404 C408 1.362 . S
C405 C406 1.258 . S
C405 C408 1.431 . S
C405 C425 1.449 . S
C406 C405 1.258 . S
C406 C407 1.477 . S
C406 H426 0.931 . S
C407 C403 1.460 . S
C407 C406 1.477 . S
C407 H427 0.930 1_554 S
C408 N404 1.362 . S
C408 C405 1.431 . S
C408 C418 1.476 . S
H409 C403 0.929 . S
C410 O401 1.250 . S
C410 O402 1.258 1_545 S
O411 Mn396 2.162 . S
O411 C399 1.281 . S
O412 Mn396 2.297 . S
O412 C399 1.236 . S
N413 Mn397 2.282 . S
N413 C414 1.328 . S
N413 C418 1.318 . S
C414 N413 1.328 . S
C414 C415 1.457 . S
C414 H419 0.929 . S
C415 C414 1.457 . S
C415 C416 1.291 . S
C415 H428 0.931 . S
C416 C415 1.291 . S
C416 C417 1.373 . S
C416 H429 0.929 . S
C417 C416 1.373 . S
C417 C418 1.396 . S
C417 C424 1.403 . S
C418 C408 1.476 . S
C418 N413 1.318 . S
C418 C417 1.396 . S
H419 C414 0.929 . S
O420 Mn396 2.385 1_565 S
O420 C398 1.234 . S
O421 Mn396 2.209 1_565 S
O421 Mn397 2.215 . S
O421 C398 1.283 . S
O422 Mn396 2.094 . S
O422 C400 1.240 . S
O423 Mn397 2.117 . S
O423 C400 1.264 1_565 S
C424 C417 1.403 . S
C424 C425 1.399 . S
C424 H430 0.929 . S
C425 C405 1.449 . S
C425 C424 1.399 . S
C425 H431 0.930 . S
H426 C406 0.931 . S
H427 C407 0.930 1_556 S
H428 C415 0.931 . S
H429 C416 0.929 . S
H430 C424 0.929 . S
H431 C425 0.930 . S
C399 C3 1.665 1_655 S
C39 C219 1.665 1_545 S
C75 C255 1.665 . S
C111 C291 1.665 1_655 S
C327 C147 1.665 1_545 S
C183 C363 1.665 . S
C112 C4 1.262 . S
C148 C40 1.262 1_455 S
C184 C76 1.262 1_545 S
C220 C328 1.262 . S
C256 C364 1.262 1_655 S
C292 C400 1.262 1_565 S
C290 C2 1.108 . S
C38 C326 1.108 . S
C362 C74 1.108 . S
C398 C110 1.108 . S
C218 C146 1.108 . S
C182 C254 1.108 . S
C338 C14 1.317 . S
C50 C374 1.317 1_655 S
C410 C86 1.317 1_544 S
C122 C230 1.317 . S
C158 C266 1.317 1_455 S
C302 C194 1.317 1_564 S
