# Generated by pormake.
# Topology sxc, (6)-cn, num edge types: 1
# Building blocks:
#     Node 0, Type 0, BuildingBlock: GEDQOX_clean_sbu_0, # of connection points: 6
#     Node 1, Type 0, BuildingBlock: GEDQOX_clean_sbu_0, # of connection points: 6
#     Node 2, Type 0, BuildingBlock: GEDQOX_clean_sbu_0, # of connection points: 6
#     Edge 3, Type (0, 0), BuildingBlock: FUNLAD_clean_linker_1, # of connection points: 2
#     Edge 4, Type (0, 0), BuildingBlock: FUNLAD_clean_linker_1, # of connection points: 2
#     Edge 5, Type (0, 0), BuildingBlock: FUNLAD_clean_linker_1, # of connection points: 2
#     Edge 6, Type (0, 0), BuildingBlock: FUNLAD_clean_linker_1, # of connection points: 2
#     Edge 7, Type (0, 0), BuildingBlock: FUNLAD_clean_linker_1, # of connection points: 2
#     Edge 8, Type (0, 0), BuildingBlock: FUNLAD_clean_linker_1, # of connection points: 2
#     Edge 9, Type (0, 0), BuildingBlock: FUNLAD_clean_linker_1, # of connection points: 2
#     Edge 10, Type (0, 0), BuildingBlock: FUNLAD_clean_linker_1, # of connection points: 2
#     Edge 11, Type (0, 0), BuildingBlock: FUNLAD_clean_linker_1, # of connection points: 2
# Relax obj value: 0.289
# Max RMSD: 0.164
# Mean RMSD: 0.092
data_MOF--net-sxc--node1-GEDQOX_clean_sbu_0--edge1-FUNLAD_clean_linker_1
_symmetry_space_group_name_H-M    P1
_symmetry_Int_Tables_number       1
_symmetry_cell_setting            triclinic
loop_
_symmetry_equiv_pos_as_xyz
'x, y, z'
_cell_length_a     23.575969
_cell_length_b     19.093206
_cell_length_c     46.938019
_cell_angle_alpha  93.799043
_cell_angle_beta   90.399748
_cell_angle_gamma 134.52099
loop_
_atom_site_label
_atom_site_type_symbol
_atom_site_fract_x
_atom_site_fract_y
_atom_site_fract_z
_atom_type_partial_charge
Nd0 Nd 0.12253 0.16358 -0.00058 0.0
Nd1 Nd 0.16739 1.06502 0.99016 0.0
C2 C 0.11531 0.29537 -6e-05 0.0
C3 C 0.17622 0.40373 0.00569 0.0
C4 C 0.2449 0.46355 0.99026 0.0
C5 C 0.30125 0.56624 0.99571 0.0
C6 C 0.28941 0.61034 0.01647 0.0
C7 C 0.22382 0.55055 0.03324 0.0
C8 C 0.16713 0.44804 0.02763 0.0
C9 C 0.14304 0.11878 0.05102 0.0
C10 C 0.31965 0.29925 0.99548 0.0
C11 C 0.17264 0.93165 0.99027 0.0
C12 C 0.10872 0.82299 0.98748 0.0
C13 C 1.04435 0.77209 0.00506 0.0
C14 C 0.9841 0.66904 0.00205 0.0
C15 C 0.98765 0.61568 0.98158 0.0
C16 C 1.04909 0.66643 0.96284 0.0
C17 C 0.10966 0.76934 0.96598 0.0
C18 C 0.14902 0.11191 0.93873 0.0
C19 C 0.97042 0.92958 0.99377 0.0
O20 O 0.11927 0.2585 0.97649 0.0
O21 O 1.09957 0.24686 0.02183 0.0
O22 O 1.08156 0.10268 0.04332 0.0
O23 O 0.19038 0.15397 0.03115 0.0
O24 O 0.26113 0.29538 0.99425 0.0
O25 O 0.30055 0.21601 -0.00324 0.0
O26 O 0.17775 0.97727 0.01371 0.0
O27 O 0.18179 0.97316 0.96742 0.0
O28 O 0.20976 0.12651 0.94649 0.0
O29 O 1.10076 1.07608 0.95834 0.0
O30 O 1.02906 0.93389 0.99585 0.0
O31 O 0.98957 1.01256 0.99177 0.0
H32 H 0.25443 0.43135 0.97359 0.0
H33 H 0.35164 0.61124 0.98265 0.0
H34 H 0.21473 0.58334 0.04985 0.0
H35 H 0.11558 0.40338 0.04017 0.0
H36 H 1.04112 0.81161 0.02147 0.0
H37 H 0.93717 0.63103 0.01669 0.0
H38 H 1.05191 0.62626 0.94654 0.0
H39 H 0.15772 0.80703 0.95181 0.0
Nd40 Nd 1.06007 1.03053 0.32933 0.0
Nd41 Nd 0.21876 0.1666 0.33642 0.0
C42 C 0.90905 0.91213 0.31026 0.0
C43 C 0.84444 0.90751 0.31244 0.0
C44 C 0.81544 0.91508 0.28788 0.0
C45 C 0.76025 0.92143 0.28997 0.0
C46 C 0.73303 0.91962 0.31669 0.0
C47 C 0.75756 0.90491 0.34086 0.0
C48 C 0.81342 0.89961 0.33884 0.0
C49 C 0.10601 1.07707 0.38739 0.0
C50 C 0.14711 0.27665 0.33396 0.0
C51 C 0.37001 0.28383 0.35492 0.0
C52 C 0.42572 0.27331 0.3569 0.0
C53 C 0.40304 0.1911 0.36821 0.0
C54 C 0.45205 0.17498 0.36658 0.0
C55 C 0.52383 0.23987 0.35311 0.0
C56 C 0.54888 0.32538 0.34352 0.0
C57 C 0.4999 0.34186 0.34531 0.0
C58 C 0.17097 0.12086 0.2786 0.0
C59 C 0.1322 0.92106 0.33177 0.0
O60 O 0.96881 0.98193 0.29597 0.0
O61 O 0.93187 0.90047 0.33334 0.0
O62 O 1.04906 0.98788 0.37541 0.0
O63 O 0.13646 0.1385 0.36897 0.0
O64 O 1.07875 0.17904 0.32817 0.0
O65 O 0.21066 0.28965 0.33943 0.0
O66 O 0.31121 0.23341 0.37164 0.0
O67 O 0.34743 0.28069 0.329 0.0
O68 O 0.2256 0.21029 0.29084 0.0
O69 O 0.14237 1.05909 0.29682 0.0
O70 O 0.19994 1.01832 0.33851 0.0
O71 O 1.06924 0.90847 0.32537 0.0
H72 H 0.83747 0.91934 0.26723 0.0
H73 H 0.74043 0.93015 0.27087 0.0
H74 H 0.73676 0.90283 0.3616 0.0
H75 H 0.83402 0.8926 0.35811 0.0
H76 H 0.34637 0.13745 0.37752 0.0
H77 H 0.43256 0.11041 0.37525 0.0
H78 H 0.60452 0.37696 0.33342 0.0
H79 H 0.51846 0.40601 0.33664 0.0
Nd80 Nd 0.12594 0.18448 0.67263 0.0
Nd81 Nd 0.12981 1.0216 0.65473 0.0
C82 C 0.11027 0.2924 0.70146 0.0
C83 C 1.04984 0.29483 0.69775 0.0
C84 C 1.01995 0.3044 0.72173 0.0
C85 C 0.95199 0.28741 0.71852 0.0
C86 C 0.91305 0.26075 0.6913 0.0
C87 C 0.94547 0.25532 0.66718 0.0
C88 C 1.01311 0.27221 0.67043 0.0
C89 C 1.099 0.13626 0.61339 0.0
C90 C 0.95136 0.94032 0.66404 0.0
C91 C 0.14681 0.91646 0.62489 0.0
C92 C 0.20854 0.91605 0.62799 0.0
C93 C 0.23778 0.90687 0.60368 0.0
C94 C 0.30647 0.92518 0.60635 0.0
C95 C 0.34675 0.95278 0.63334 0.0
C96 C 0.31519 0.95824 0.65776 0.0
C97 C 0.24685 0.94006 0.65506 0.0
C98 C 0.15367 1.06508 0.71404 0.0
C99 C 0.30464 0.26574 0.6638 0.0
O100 O 1.08279 0.20961 0.7097 0.0
O101 O 0.15912 0.32533 0.68101 0.0
O102 O 1.09737 0.19684 0.62643 0.0
O103 O 0.11173 0.10363 0.63216 0.0
O104 O 0.99069 1.03373 0.67297 0.0
O105 O 0.99022 0.91749 0.65412 0.0
O106 O 0.17267 0.99876 0.61697 0.0
O107 O 1.09856 0.88223 0.64559 0.0
O108 O 0.15332 1.00325 0.70051 0.0
O109 O 0.14364 0.10185 0.69572 0.0
O110 O 0.26549 0.17215 0.65528 0.0
O111 O 0.26553 0.28878 0.67313 0.0
H112 H 1.04682 0.32027 0.74303 0.0
H113 H 0.92796 0.29128 0.73746 0.0
H114 H 0.91667 0.23234 0.64589 0.0
H115 H 1.03413 0.26236 0.65165 0.0
H116 H 0.20974 0.89011 0.58256 0.0
H117 H 0.32988 0.9214 0.58718 0.0
H118 H 0.3451 0.98215 0.67888 0.0
H119 H 0.22643 0.94988 0.67406 0.0
H120 H 0.4036 0.76859 0.02087 0.0
C121 C 0.33923 0.71765 0.01771 0.0
H122 H 0.34642 0.83268 0.0136 0.0
H123 H 0.99762 0.41704 0.94756 0.0
H124 H 1.07932 0.43696 0.91096 0.0
H125 H 0.22609 0.57456 0.91667 0.0
H126 H 0.29202 0.69207 0.95922 0.0
C127 C 0.30754 0.75336 0.01247 0.0
C128 C 0.22014 0.687 0.00562 0.0
C129 C 0.18239 0.62175 0.98006 0.0
C130 C 1.09786 0.54446 0.97634 0.0
C131 C 1.06173 0.47795 0.95118 0.0
C132 C 0.10789 0.48854 0.93006 0.0
C133 C 0.19051 0.56589 0.9333 0.0
C134 C 0.22761 0.63232 0.95788 0.0
H135 H 0.87063 0.45961 0.97954 0.0
C136 C 0.93473 0.50846 0.98282 0.0
H137 H 0.92369 0.39229 0.99093 0.0
H138 H 0.27358 0.80529 0.05567 0.0
H139 H 0.19173 0.78728 0.09176 0.0
H140 H 1.04485 0.65234 0.08542 0.0
H141 H 0.97896 0.53493 0.04285 0.0
C142 C 0.96405 0.47136 0.9902 0.0
C143 C 1.05117 0.53668 -0.00276 0.0
C144 C 1.08885 0.60258 0.02265 0.0
C145 C 0.17343 0.67913 0.02655 0.0
C146 C 0.20947 0.74527 0.05179 0.0
C147 C 0.16321 0.73581 0.07264 0.0
C148 C 1.08052 0.65992 0.06905 0.0
C149 C 1.04347 0.5935 0.04447 0.0
H150 H 0.63434 0.27728 0.34463 0.0
C151 C 0.57097 0.21689 0.34733 0.0
H152 H 0.47199 1.0617 0.34234 0.0
H153 H 0.61719 0.96003 0.26059 0.0
H154 H 0.52054 0.93037 0.22788 0.0
H155 H 0.45279 0.98138 0.24268 0.0
H156 H 0.48042 1.06102 0.29037 0.0
C157 C 0.53627 0.12347 0.34252 0.0
C158 C 0.58225 0.10122 0.33317 0.0
C159 C 0.56688 1.05749 0.30493 0.0
C160 C 0.60693 1.02996 0.29621 0.0
C161 C 0.58887 0.98336 0.2682 0.0
C162 C 0.53359 0.96596 0.24921 0.0
C163 C 0.49542 0.99462 0.25755 0.0
C164 C 0.51178 1.04015 0.28502 0.0
H165 H 0.64406 0.90936 0.33745 0.0
C166 C 0.68492 0.9417 0.32049 0.0
H167 H 0.74344 1.04997 0.29101 0.0
H168 H 0.62342 0.18111 0.38928 0.0
H169 H 0.72628 0.22064 0.42077 0.0
H170 H 0.80425 0.18591 0.40414 0.0
H171 H 0.77874 0.11002 0.35609 0.0
C172 C 0.70051 1.01315 0.3072 0.0
C173 C 0.6631 1.04817 0.3156 0.0
C174 C 0.68194 0.09722 0.3433 0.0
C175 C 0.63981 0.12147 0.3524 0.0
C176 C 0.65579 0.16447 0.38081 0.0
C177 C 0.7144 0.18703 0.39922 0.0
C178 C 0.75802 0.16708 0.3899 0.0
C179 C 0.74227 0.12272 0.36231 0.0
H180 H 0.83412 0.88919 0.67196 0.0
C181 C 0.85987 0.86132 0.66543 0.0
H182 H 0.83311 0.73132 0.65475 0.0
H183 H 0.49894 0.40332 0.70606 0.0
H184 H 0.58678 0.41162 0.73662 0.0
H185 H 0.7323 0.5402 0.7334 0.0
H186 H 0.79178 0.66415 0.7002 0.0
C187 C 0.80766 0.76034 0.66004 0.0
C188 C 0.71567 0.68281 0.66277 0.0
C189 C 0.67906 0.60702 0.68163 0.0
C190 C 0.59313 0.52955 0.68302 0.0
C191 C 0.56207 0.46076 0.70334 0.0
C192 C 0.61202 0.46502 0.72118 0.0
C193 C 0.69405 0.53768 0.71942 0.0
C194 C 0.72741 0.6081 0.70009 0.0
H195 H 0.42212 0.31695 0.65633 0.0
C196 C 0.39621 0.34481 0.66258 0.0
H197 H 0.42261 0.47473 0.6728 0.0
H198 H 0.75717 0.80364 0.62201 0.0
H199 H 0.66943 0.79581 0.59158 0.0
H200 H 0.5239 0.66714 0.59475 0.0
H201 H 0.46431 0.54259 0.62774 0.0
C202 C 0.44828 0.44585 0.66776 0.0
C203 C 0.54033 0.52358 0.66511 0.0
C204 C 0.57697 0.59951 0.64629 0.0
C205 C 0.66291 0.67701 0.64491 0.0
C206 C 0.69402 0.74612 0.6247 0.0
C207 C 0.64414 0.74219 0.60695 0.0
C208 C 0.5621 0.66946 0.60867 0.0
C209 C 0.52867 0.59866 0.62788 0.0
H210 H 0.80208 0.20552 0.70851 0.0
C211 C 0.83426 0.22771 0.68922 0.0
H212 H 0.82812 0.23922 0.64486 0.0
H213 H 0.45497 0.86886 0.6314 0.0
H214 H 0.50146 0.8023 0.60713 0.0
H215 H 0.64515 0.90016 0.60782 0.0
H216 H 0.74306 1.06405 0.63307 0.0
C217 C 0.79845 0.21733 0.66461 0.0
C218 C 0.71283 0.16247 0.66276 0.0
C219 C 0.65657 1.06729 0.64744 0.0
C220 C 0.57389 1.01156 0.64665 0.0
C221 C 0.51865 0.91528 0.63208 0.0
C222 C 0.54446 0.87594 0.61821 0.0
C223 C 0.62534 0.93087 0.61866 0.0
C224 C 0.68097 1.02517 0.63318 0.0
H225 H 0.4575 1.00919 0.61548 0.0
C226 C 0.42582 0.98649 0.6349 0.0
H227 H 0.43305 0.97409 0.6791 0.0
H228 H 0.8059 0.34585 0.692 0.0
H229 H 0.75937 0.41221 0.71638 0.0
H230 H 0.61563 0.31407 0.71583 0.0
H231 H 0.51776 0.15024 0.69056 0.0
C232 C 0.46231 0.99663 0.65925 0.0
C233 C 0.54803 1.05198 0.66079 0.0
C234 C 0.6043 0.1472 0.67609 0.0
C235 C 0.68698 0.20299 0.67685 0.0
C236 C 0.74222 0.29932 0.69138 0.0
C237 C 0.71637 0.33856 0.7053 0.0
C238 C 0.63548 0.28349 0.70492 0.0
C239 C 0.57986 0.18921 0.6904 0.0
H240 H 0.87609 0.76591 0.99474 0.0
C241 C 0.88394 0.829 0.99398 0.0
H242 H 0.82354 0.87311 0.99199 0.0
H243 H 0.47196 0.47948 0.94721 0.0
H244 H 0.51628 0.58052 0.90819 0.0
H245 H 0.65651 0.73888 0.90764 0.0
H246 H 0.75404 0.79723 0.94599 0.0
C247 C 0.81622 0.81069 0.9936 0.0
C248 C 0.72927 0.70772 0.99364 0.0
C249 C 0.6704 0.67299 0.97145 0.0
C250 C 0.5876 0.58066 0.97199 0.0
C251 C 0.5338 0.54905 0.94857 0.0
C252 C 0.55866 0.60613 0.92583 0.0
C253 C 0.63769 0.69532 0.9255 0.0
C254 C 0.69307 0.7283 0.94782 0.0
H255 H 0.41405 0.46305 0.99476 0.0
C256 C 0.40607 0.39977 0.99516 0.0
H257 H 0.46624 0.35521 -0.00364 0.0
H258 H 0.81761 0.74905 0.04163 0.0
H259 H 0.7733 0.64759 0.08052 0.0
H260 H 0.63318 0.48895 0.08095 0.0
H261 H 0.53573 0.43073 0.04258 0.0
C262 C 0.47363 0.41778 0.9951 0.0
C263 C 0.56053 0.52071 0.99507 0.0
C264 C 0.61938 0.55533 0.01724 0.0
C265 C 0.70216 0.64774 0.01672 0.0
C266 C 0.75585 0.67933 0.04018 0.0
C267 C 0.73098 0.62204 0.06287 0.0
C268 C 0.652 0.53269 0.06312 0.0
C269 C 0.59669 0.4998 0.04081 0.0
H270 H 0.21872 0.43964 0.34642 0.0
C271 C 0.1596 0.37654 0.33648 0.0
H272 H 1.05673 0.33958 0.31976 0.0
H273 H 1.0103 0.63042 0.34495 0.0
H274 H 0.88466 0.46726 0.35245 0.0
H275 H 0.87078 0.32741 0.35162 0.0
H276 H 0.98154 0.34673 0.3439 0.0
C277 C 0.11565 0.4037 0.3296 0.0
C278 C 0.13125 0.50685 0.33274 0.0
C279 C 1.06737 0.50328 0.33736 0.0
C280 C 1.07538 0.5896 0.33772 0.0
C281 C 1.00791 0.57178 0.34356 0.0
C282 C 0.93543 0.47831 0.34816 0.0
C283 C 0.9276 0.39921 0.34771 0.0
C284 C 0.99204 0.4113 0.34278 0.0
H285 H 1.06116 0.75835 0.319 0.0
C286 C 0.11985 0.82128 0.32929 0.0
H287 H 0.22214 0.85795 0.34663 0.0
H288 H 0.26895 0.56743 0.32092 0.0
H289 H 0.395 0.73101 0.31401 0.0
H290 H 0.40914 0.87108 0.31544 0.0
H291 H 0.29826 0.85165 0.3228 0.0
C292 C 0.16358 0.79405 0.33649 0.0
C293 C 0.14804 0.69097 0.33329 0.0
C294 C 0.212 0.69464 0.32879 0.0
C295 C 0.20393 0.60824 0.32833 0.0
C296 C 0.27143 0.62613 0.3225 0.0
C297 C 0.34413 0.71983 0.31822 0.0
C298 C 0.35211 0.79906 0.31896 0.0
C299 C 0.28756 0.78688 0.32371 0.0
H300 H 1.10109 1.01687 0.2392 0.0
C301 C 0.15098 0.09408 0.24691 0.0
H302 H 0.24055 0.23949 0.23583 0.0
H303 H 0.14599 0.98872 0.10808 0.0
H304 H 0.1836 0.91408 0.13041 0.0
H305 H 0.21841 0.94508 0.18241 0.0
H306 H 0.21411 1.04908 0.21258 0.0
C307 C 0.19195 0.16226 0.22776 0.0
C308 C 0.16957 0.14008 0.1958 0.0
C309 C 0.17512 1.08189 0.17804 0.0
C310 C 0.15843 1.06749 0.14757 0.0
C311 C 0.16065 1.00498 0.13095 0.0
C312 C 0.18182 0.96127 0.14353 0.0
C313 C 0.20118 0.97848 0.17283 0.0
C314 C 0.19808 1.03804 0.18996 0.0
H315 H 0.22589 0.15885 0.08722 0.0
C316 C 0.16586 0.12504 0.08165 0.0
H317 H 1.05656 1.06397 0.09675 0.0
H318 H 0.15013 0.25298 0.22256 0.0
H319 H 0.11784 0.33288 0.20003 0.0
H320 H 1.0966 0.31579 0.14753 0.0
H321 H 0.10695 0.21813 0.11719 0.0
C322 C 0.11566 0.09522 0.10265 0.0
C323 C 0.13909 0.11425 0.13443 0.0
C324 C 0.13468 0.17345 0.15219 0.0
C325 C 0.14909 0.18553 0.18263 0.0
C326 C 0.14185 0.24308 0.19943 0.0
C327 C 0.12292 0.2891 0.18679 0.0
C328 C 0.11076 0.27926 0.15724 0.0
C329 C 0.11651 0.2224 0.14007 0.0
H330 H 0.17924 0.1805 0.42649 0.0
C331 C 0.12517 0.10477 0.41907 0.0
H332 H 1.02445 0.96414 0.43066 0.0
H333 H 0.10874 0.95791 0.55546 0.0
H334 H 1.09199 0.83 0.52949 0.0
H335 H 1.07935 0.80882 0.47672 0.0
H336 H 1.08252 0.9147 0.44952 0.0
C337 C 1.07772 1.03988 0.43853 0.0
C338 C 1.09611 1.06316 0.47079 0.0
C339 C 1.09665 1.00268 0.48676 0.0
C340 C 0.10642 1.01683 0.51742 0.0
C341 C 0.10352 0.95232 0.53233 0.0
C342 C 1.09365 0.87818 0.51768 0.0
C343 C 1.08635 0.86612 0.48797 0.0
C344 C 1.08782 0.92727 0.47261 0.0
H345 H 1.03761 0.10184 0.57144 0.0
C346 C 1.08292 0.10881 0.5818 0.0
H347 H 0.17579 0.11741 0.5754 0.0
H348 H 1.08677 0.18472 0.44883 0.0
H349 H 0.11729 0.32308 0.47441 0.0
H350 H 0.15519 0.36349 0.52629 0.0
H351 H 0.15956 0.26321 0.55308 0.0
C352 C 0.12894 0.10774 0.56515 0.0
C353 C 0.11825 1.09359 0.53263 0.0
C354 C 0.12234 0.15778 0.51661 0.0
C355 C 0.10753 0.13978 0.48602 0.0
C356 C 0.10333 0.19883 0.47149 0.0
C357 C 0.11988 0.27811 0.486 0.0
C358 C 0.14068 0.30045 0.51524 0.0
C359 C 0.14202 0.24139 0.53044 0.0
H360 H 0.17235 1.04307 0.75711 0.0
C361 C 0.1592 1.07901 0.74601 0.0
H362 H 0.13243 0.16361 0.75175 0.0
H363 H 1.05025 0.94718 0.87368 0.0
H364 H 0.94441 0.79416 0.84433 0.0
H365 H 0.9273 0.7924 0.79233 0.0
H366 H 1.01718 0.94365 0.76921 0.0
C367 C 0.14452 0.12557 0.76206 0.0
C368 C 0.14688 0.12823 0.79446 0.0
C369 C 1.09153 1.04 0.80819 0.0
C370 C 1.09914 1.04171 0.83863 0.0
C371 C 1.04588 0.95119 0.85104 0.0
C372 C 0.98489 0.86251 0.83439 0.0
C373 C 0.97542 0.86146 0.80508 0.0
C374 C 1.02784 0.94881 0.79204 0.0
H375 H 1.07281 1.08846 0.90294 0.0
C376 C 0.12898 0.11122 0.90827 0.0
H377 H 0.2345 0.15997 0.89296 0.0
H378 H 0.2585 0.31192 0.77626 0.0
H379 H 0.35971 0.46667 0.80591 0.0
H380 H 0.37005 0.47047 0.85842 0.0
H381 H 0.27929 0.31949 0.88172 0.0
C382 C 0.17743 0.13454 0.88719 0.0
C383 C 0.1602 0.13237 0.85583 0.0
C384 C 0.21243 0.22114 0.84223 0.0
C385 C 0.20584 0.21911 0.81176 0.0
C386 C 0.26029 0.30915 0.79917 0.0
C387 C 0.31874 0.39855 0.81594 0.0
C388 C 0.32464 0.40068 0.84551 0.0
C389 C 0.27235 0.31338 0.8586 0.0
loop_
_geom_bond_atom_site_label_1
_geom_bond_atom_site_label_2
_geom_bond_distance
_geom_bond_site_symmetry_2
_ccdc_geom_bond_type
Nd0 C2 2.836 1_655 S
Nd0 O20 2.500 1_654 S
Nd0 O21 2.492 . S
Nd0 O22 2.487 . S
Nd0 O23 2.682 1_645 S
Nd0 O24 2.410 1_655 S
Nd0 O29 2.414 1_654 S
Nd0 O31 2.424 1_545 S
Nd1 C11 2.836 1_455 S
Nd1 O23 2.414 1_556 S
Nd1 O25 2.424 1_565 S
Nd1 O26 2.495 1_556 S
Nd1 O27 2.492 . S
Nd1 O28 2.487 . S
Nd1 O29 2.682 1_565 S
Nd1 O30 2.410 1_455 S
C2 Nd0 2.836 1_455 S
C2 C3 1.498 . S
C2 O20 1.258 1_554 S
C2 O21 1.239 1_455 S
C3 C2 1.498 . S
C3 C4 1.366 1_554 S
C3 C8 1.407 . S
C4 C3 1.366 1_556 S
C4 C5 1.392 . S
C4 H32 0.930 . S
C5 C4 1.392 . S
C5 C6 1.398 1_556 S
C5 H33 0.929 . S
C6 C5 1.398 1_554 S
C6 C7 1.352 . S
C7 C6 1.352 . S
C7 C8 1.384 . S
C7 H34 0.930 . S
C8 C3 1.407 . S
C8 C7 1.384 . S
C8 H35 0.929 . S
C9 O22 1.241 . S
C9 O23 1.273 1_645 S
C10 O24 1.251 . S
C10 O25 1.268 1_554 S
C11 Nd1 2.836 1_655 S
C11 C12 1.498 . S
C11 O26 1.265 1_656 S
C11 O27 1.239 1_655 S
C12 C11 1.498 . S
C12 C13 1.366 1_556 S
C12 C17 1.407 . S
C13 C12 1.366 1_554 S
C13 C14 1.392 . S
C13 H36 0.930 . S
C14 C13 1.392 . S
C14 C15 1.382 1_554 S
C14 H37 0.929 . S
C15 C14 1.382 1_556 S
C15 C16 1.373 . S
C16 C15 1.373 . S
C16 C17 1.384 . S
C16 H38 0.930 . S
C17 C12 1.407 . S
C17 C16 1.384 . S
C17 H39 0.929 . S
C18 O28 1.241 . S
C18 O29 1.273 1_565 S
C19 O30 1.251 . S
C19 O31 1.268 1_556 S
O20 Nd0 2.500 1_456 S
O20 C2 1.258 1_556 S
O21 Nd0 2.492 . S
O21 C2 1.239 1_655 S
O22 Nd0 2.487 . S
O22 C9 1.241 . S
O23 Nd0 2.682 1_465 S
O23 Nd1 2.414 1_554 S
O23 C9 1.273 1_465 S
O24 Nd0 2.410 1_455 S
O24 C10 1.251 . S
O25 Nd1 2.424 1_545 S
O25 C10 1.268 1_556 S
O26 Nd1 2.495 1_554 S
O26 C11 1.265 1_454 S
O27 Nd1 2.492 . S
O27 C11 1.239 1_455 S
O28 Nd1 2.487 . S
O28 C18 1.241 . S
O29 Nd0 2.414 1_456 S
O29 Nd1 2.682 1_545 S
O29 C18 1.273 1_545 S
O30 Nd1 2.410 1_655 S
O30 C19 1.251 . S
O31 Nd0 2.424 1_565 S
O31 C19 1.268 1_554 S
H32 C4 0.930 . S
H33 C5 0.929 . S
H34 C7 0.930 . S
H35 C8 0.929 . S
H36 C13 0.930 . S
H37 C14 0.929 . S
H38 C16 0.930 . S
H39 C17 0.929 . S
Nd40 C42 2.836 . S
Nd40 O60 2.500 . S
Nd40 O61 2.492 . S
Nd40 O62 2.487 . S
Nd40 O63 2.682 1_665 S
Nd40 O64 2.410 1_665 S
Nd40 O69 2.414 1_665 S
Nd40 O71 2.424 . S
Nd41 C51 2.836 . S
Nd41 O63 2.414 . S
Nd41 O65 2.424 . S
Nd41 O66 2.500 . S
Nd41 O67 2.492 . S
Nd41 O68 2.487 . S
Nd41 O69 2.682 . S
Nd41 O70 2.410 1_545 S
C42 Nd40 2.836 . S
C42 C43 1.498 . S
C42 O60 1.258 . S
C42 O61 1.239 . S
C43 C42 1.498 . S
C43 C44 1.366 . S
C43 C48 1.407 . S
C44 C43 1.366 . S
C44 C45 1.392 . S
C44 H72 0.930 1_565 S
C45 C44 1.392 . S
C45 C46 1.398 . S
C45 H73 0.929 1_565 S
C46 C45 1.398 . S
C46 C47 1.352 . S
C47 C46 1.352 . S
C47 C48 1.384 . S
C47 H74 0.930 . S
C48 C43 1.407 . S
C48 C47 1.384 . S
C48 H75 0.929 . S
C49 O62 1.241 1_445 S
C49 O63 1.273 . S
C50 O64 1.251 . S
C50 O65 1.268 . S
C51 Nd41 2.836 . S
C51 C52 1.498 . S
C51 O66 1.258 . S
C51 O67 1.239 . S
C52 C51 1.498 . S
C52 C53 1.366 . S
C52 C57 1.407 . S
C53 C52 1.366 . S
C53 C54 1.392 . S
C53 H76 0.930 . S
C54 C53 1.392 . S
C54 C55 1.398 . S
C54 H77 0.929 . S
C55 C54 1.398 . S
C55 C56 1.352 . S
C56 C55 1.352 . S
C56 C57 1.384 . S
C56 H78 0.930 . S
C57 C52 1.407 . S
C57 C56 1.384 . S
C57 H79 0.929 . S
C58 O68 1.241 . S
C58 O69 1.273 . S
C59 O70 1.251 . S
C59 O71 1.268 1_455 S
O60 Nd40 2.500 . S
O60 C42 1.258 . S
O61 Nd40 2.492 . S
O61 C42 1.239 . S
O62 Nd40 2.487 . S
O62 C49 1.241 1_665 S
O63 Nd40 2.682 1_445 S
O63 Nd41 2.414 . S
O63 C49 1.273 . S
O64 Nd40 2.410 1_445 S
O64 C50 1.251 . S
O65 Nd41 2.424 . S
O65 C50 1.268 . S
O66 Nd41 2.500 . S
O66 C51 1.258 . S
O67 Nd41 2.492 . S
O67 C51 1.239 . S
O68 Nd41 2.487 . S
O68 C58 1.241 . S
O69 Nd40 2.414 1_445 S
O69 Nd41 2.682 . S
O69 C58 1.273 . S
O70 Nd41 2.410 1_565 S
O70 C59 1.251 . S
O71 Nd40 2.424 . S
O71 C59 1.268 1_655 S
H72 C44 0.930 1_545 S
H73 C45 0.929 1_545 S
H74 C47 0.930 . S
H75 C48 0.929 . S
H76 C53 0.930 . S
H77 C54 0.929 . S
H78 C56 0.930 . S
H79 C57 0.929 . S
Nd80 C82 2.836 1_455 S
Nd80 O100 2.500 1_455 S
Nd80 O101 2.492 1_455 S
Nd80 O102 2.487 . S
Nd80 O103 2.682 . S
Nd80 O104 2.410 1_445 S
Nd80 O109 2.414 . S
Nd80 O111 2.424 . S
Nd81 C91 2.836 . S
Nd81 O103 2.414 1_565 S
Nd81 O105 2.424 1_455 S
Nd81 O106 2.500 . S
Nd81 O107 2.492 . S
Nd81 O108 2.487 . S
Nd81 O109 2.682 1_565 S
Nd81 O110 2.410 1_565 S
C82 Nd80 2.836 1_655 S
C82 C83 1.498 . S
C82 O100 1.258 . S
C82 O101 1.239 . S
C83 C82 1.498 . S
C83 C84 1.366 1_545 S
C83 C88 1.407 . S
C84 C83 1.366 1_565 S
C84 C85 1.392 . S
C84 H112 0.930 . S
C85 C84 1.392 . S
C85 C86 1.398 . S
C85 H113 0.929 . S
C86 C85 1.398 . S
C86 C87 1.352 1_565 S
C87 C86 1.352 1_545 S
C87 C88 1.384 . S
C87 H114 0.930 . S
C88 C83 1.407 . S
C88 C87 1.384 . S
C88 H115 0.929 . S
C89 O102 1.241 . S
C89 O103 1.273 . S
C90 O104 1.251 . S
C90 O105 1.268 . S
C91 Nd81 2.836 . S
C91 C92 1.498 1_565 S
C91 O106 1.258 . S
C91 O107 1.239 . S
C92 C91 1.498 1_545 S
C92 C93 1.366 . S
C92 C97 1.407 1_545 S
C93 C92 1.366 . S
C93 C94 1.392 . S
C93 H116 0.930 . S
C94 C93 1.392 . S
C94 C95 1.398 . S
C94 H117 0.929 . S
C95 C94 1.398 . S
C95 C96 1.352 . S
C96 C95 1.352 . S
C96 C97 1.384 1_545 S
C96 H118 0.930 1_545 S
C97 C92 1.407 1_565 S
C97 C96 1.384 1_565 S
C97 H119 0.929 . S
C98 O108 1.241 1_545 S
C98 O109 1.273 . S
C99 O110 1.251 . S
C99 O111 1.268 . S
O100 Nd80 2.500 1_655 S
O100 C82 1.258 . S
O101 Nd80 2.492 1_655 S
O101 C82 1.239 . S
O102 Nd80 2.487 . S
O102 C89 1.241 . S
O103 Nd80 2.682 . S
O103 Nd81 2.414 1_545 S
O103 C89 1.273 . S
O104 Nd80 2.410 1_665 S
O104 C90 1.251 . S
O105 Nd81 2.424 1_655 S
O105 C90 1.268 . S
O106 Nd81 2.500 . S
O106 C91 1.258 . S
O107 Nd81 2.492 . S
O107 C91 1.239 . S
O108 Nd81 2.487 . S
O108 C98 1.241 1_565 S
O109 Nd80 2.414 . S
O109 Nd81 2.682 1_545 S
O109 C98 1.273 . S
O110 Nd81 2.410 1_545 S
O110 C99 1.251 . S
O111 Nd80 2.424 . S
O111 C99 1.268 . S
H112 C84 0.930 . S
H113 C85 0.929 . S
H114 C87 0.930 . S
H115 C88 0.929 . S
H116 C93 0.930 . S
H117 C94 0.929 . S
H118 C96 0.930 1_565 S
H119 C97 0.929 . S
H120 C121 0.951 . S
C121 H120 0.951 . S
C121 C127 1.265 1_554 S
H122 C127 0.950 . S
H123 C131 0.949 . S
H124 C132 0.950 . S
H125 C133 0.951 . S
H126 C134 0.951 . S
C127 C121 1.265 1_556 S
C127 H122 0.950 . S
C127 C128 1.478 . S
C128 C127 1.478 . S
C128 C129 1.397 . S
C128 C145 1.394 1_556 S
C129 C128 1.397 . S
C129 C130 1.438 1_455 S
C129 C134 1.429 . S
C130 C129 1.438 1_655 S
C130 C131 1.428 . S
C130 C143 1.394 1_556 S
C131 H123 0.949 . S
C131 C130 1.428 . S
C131 C132 1.345 . S
C132 H124 0.950 . S
C132 C131 1.345 . S
C132 C133 1.424 1_655 S
C133 H125 0.951 . S
C133 C132 1.424 1_455 S
C133 C134 1.347 . S
C134 H126 0.951 . S
C134 C129 1.429 . S
C134 C133 1.347 . S
H135 C136 0.951 . S
C136 H135 0.951 . S
C136 C142 1.265 1_556 S
H137 C142 0.950 . S
H138 C146 0.949 . S
H139 C147 0.950 . S
H140 C148 0.951 . S
H141 C149 0.951 . S
C142 C136 1.265 1_554 S
C142 H137 0.950 . S
C142 C143 1.478 . S
C143 C130 1.394 1_554 S
C143 C142 1.478 . S
C143 C144 1.397 . S
C144 C143 1.397 . S
C144 C145 1.438 1_655 S
C144 C149 1.429 . S
C145 C128 1.394 1_554 S
C145 C144 1.438 1_455 S
C145 C146 1.428 . S
C146 H138 0.949 . S
C146 C145 1.428 . S
C146 C147 1.345 . S
C147 H139 0.950 . S
C147 C146 1.345 . S
C147 C148 1.424 1_455 S
C148 H140 0.951 . S
C148 C147 1.424 1_655 S
C148 C149 1.347 . S
C149 H141 0.951 . S
C149 C144 1.429 . S
C149 C148 1.347 . S
H150 C151 0.951 . S
C151 H150 0.951 . S
C151 C157 1.265 . S
H152 C157 0.950 1_565 S
H153 C161 0.949 . S
H154 C162 0.950 . S
H155 C163 0.951 . S
H156 C164 0.951 . S
C157 C151 1.265 . S
C157 H152 0.950 1_545 S
C157 C158 1.478 . S
C158 C157 1.478 . S
C158 C159 1.397 1_545 S
C158 C175 1.394 . S
C159 C158 1.397 1_565 S
C159 C160 1.438 . S
C159 C164 1.429 . S
C160 C159 1.438 . S
C160 C161 1.428 . S
C160 C173 1.394 1_565 S
C161 H153 0.949 . S
C161 C160 1.428 . S
C161 C162 1.345 . S
C162 H154 0.950 . S
C162 C161 1.345 . S
C162 C163 1.424 . S
C163 H155 0.951 . S
C163 C162 1.424 . S
C163 C164 1.347 . S
C164 H156 0.951 . S
C164 C159 1.429 . S
C164 C163 1.347 . S
H165 C166 0.951 . S
C166 H165 0.951 . S
C166 C172 1.265 1_565 S
H167 C172 0.950 . S
H168 C176 0.949 . S
H169 C177 0.950 . S
H170 C178 0.951 . S
H171 C179 0.951 . S
C172 C166 1.265 1_545 S
C172 H167 0.950 . S
C172 C173 1.478 . S
C173 C160 1.394 1_545 S
C173 C172 1.478 . S
C173 C174 1.397 . S
C174 C173 1.397 . S
C174 C175 1.438 . S
C174 C179 1.429 . S
C175 C158 1.394 . S
C175 C174 1.438 . S
C175 C176 1.428 . S
C176 H168 0.949 . S
C176 C175 1.428 . S
C176 C177 1.345 . S
C177 H169 0.950 . S
C177 C176 1.345 . S
C177 C178 1.424 . S
C178 H170 0.951 . S
C178 C177 1.424 . S
C178 C179 1.347 . S
C179 H171 0.951 . S
C179 C174 1.429 . S
C179 C178 1.347 . S
H180 C181 0.951 . S
C181 H180 0.951 . S
C181 C187 1.265 . S
H182 C187 0.950 . S
H183 C191 0.949 . S
H184 C192 0.950 . S
H185 C193 0.951 . S
H186 C194 0.951 . S
C187 C181 1.265 . S
C187 H182 0.950 . S
C187 C188 1.478 . S
C188 C187 1.478 . S
C188 C189 1.397 . S
C188 C205 1.394 . S
C189 C188 1.397 . S
C189 C190 1.438 . S
C189 C194 1.429 . S
C190 C189 1.438 . S
C190 C191 1.428 . S
C190 C203 1.394 . S
C191 H183 0.949 . S
C191 C190 1.428 . S
C191 C192 1.345 . S
C192 H184 0.950 . S
C192 C191 1.345 . S
C192 C193 1.424 . S
C193 H185 0.951 . S
C193 C192 1.424 . S
C193 C194 1.347 . S
C194 H186 0.951 . S
C194 C189 1.429 . S
C194 C193 1.347 . S
H195 C196 0.951 . S
C196 H195 0.951 . S
C196 C202 1.265 . S
H197 C202 0.950 . S
H198 C206 0.949 . S
H199 C207 0.950 . S
H200 C208 0.951 . S
H201 C209 0.951 . S
C202 C196 1.265 . S
C202 H197 0.950 . S
C202 C203 1.478 . S
C203 C190 1.394 . S
C203 C202 1.478 . S
C203 C204 1.397 . S
C204 C203 1.397 . S
C204 C205 1.438 . S
C204 C209 1.429 . S
C205 C188 1.394 . S
C205 C204 1.438 . S
C205 C206 1.428 . S
C206 H198 0.949 . S
C206 C205 1.428 . S
C206 C207 1.345 . S
C207 H199 0.950 . S
C207 C206 1.345 . S
C207 C208 1.424 . S
C208 H200 0.951 . S
C208 C207 1.424 . S
C208 C209 1.347 . S
C209 H201 0.951 . S
C209 C204 1.429 . S
C209 C208 1.347 . S
H210 C211 0.951 . S
C211 H210 0.951 . S
C211 C217 1.265 1_565 S
H212 C217 0.950 . S
H213 C221 0.949 . S
H214 C222 0.950 . S
H215 C223 0.951 . S
H216 C224 0.951 . S
C217 C211 1.265 1_545 S
C217 H212 0.950 . S
C217 C218 1.478 . S
C218 C217 1.478 . S
C218 C219 1.397 1_545 S
C218 C235 1.394 . S
C219 C218 1.397 1_565 S
C219 C220 1.438 . S
C219 C224 1.429 . S
C220 C219 1.438 . S
C220 C221 1.428 . S
C220 C233 1.394 1_565 S
C221 H213 0.949 . S
C221 C220 1.428 . S
C221 C222 1.345 . S
C222 H214 0.950 . S
C222 C221 1.345 . S
C222 C223 1.424 . S
C223 H215 0.951 . S
C223 C222 1.424 . S
C223 C224 1.347 . S
C224 H216 0.951 . S
C224 C219 1.429 . S
C224 C223 1.347 . S
H225 C226 0.951 . S
C226 H225 0.951 . S
C226 C232 1.265 . S
H227 C232 0.950 1_565 S
H228 C236 0.949 . S
H229 C237 0.950 . S
H230 C238 0.951 . S
H231 C239 0.951 . S
C232 C226 1.265 . S
C232 H227 0.950 1_545 S
C232 C233 1.478 . S
C233 C220 1.394 1_545 S
C233 C232 1.478 . S
C233 C234 1.397 . S
C234 C233 1.397 . S
C234 C235 1.438 . S
C234 C239 1.429 . S
C235 C218 1.394 . S
C235 C234 1.438 . S
C235 C236 1.428 . S
C236 H228 0.949 . S
C236 C235 1.428 . S
C236 C237 1.345 . S
C237 H229 0.950 . S
C237 C236 1.345 . S
C237 C238 1.424 . S
C238 H230 0.951 . S
C238 C237 1.424 . S
C238 C239 1.347 . S
C239 H231 0.951 . S
C239 C234 1.429 . S
C239 C238 1.347 . S
H240 C241 0.951 . S
C241 H240 0.951 . S
C241 C247 1.265 1_554 S
H242 C247 0.950 . S
H243 C251 0.949 . S
H244 C252 0.950 . S
H245 C253 0.951 . S
H246 C254 0.951 . S
C247 C241 1.265 1_556 S
C247 H242 0.950 . S
C247 C248 1.484 . S
C248 C247 1.484 . S
C248 C249 1.422 . S
C248 C265 1.363 1_556 S
C249 C248 1.422 . S
C249 C250 1.438 . S
C249 C254 1.429 . S
C250 C249 1.438 . S
C250 C251 1.428 . S
C250 C263 1.394 1_556 S
C251 H243 0.949 . S
C251 C250 1.428 . S
C251 C252 1.345 . S
C252 H244 0.950 . S
C252 C251 1.345 . S
C252 C253 1.424 . S
C253 H245 0.951 . S
C253 C252 1.424 . S
C253 C254 1.347 . S
C254 H246 0.951 . S
C254 C249 1.429 . S
C254 C253 1.347 . S
H255 C256 0.954 . S
C256 H255 0.954 . S
C256 C262 1.263 1_556 S
H257 C262 0.950 . S
H258 C266 0.949 . S
H259 C267 0.950 . S
H260 C268 0.951 . S
H261 C269 0.951 . S
C262 C256 1.263 1_554 S
C262 H257 0.950 . S
C262 C263 1.478 . S
C263 C250 1.394 1_554 S
C263 C262 1.478 . S
C263 C264 1.397 . S
C264 C263 1.397 . S
C264 C265 1.438 . S
C264 C269 1.429 . S
C265 C248 1.363 1_554 S
C265 C264 1.438 . S
C265 C266 1.428 . S
C266 H258 0.949 . S
C266 C265 1.428 . S
C266 C267 1.345 . S
C267 H259 0.950 . S
C267 C266 1.345 . S
C267 C268 1.424 . S
C268 H260 0.951 . S
C268 C267 1.424 . S
C268 C269 1.347 . S
C269 H261 0.951 . S
C269 C264 1.429 . S
C269 C268 1.347 . S
H270 C271 0.951 . S
C271 H270 0.951 . S
C271 C277 1.265 . S
H272 C277 0.950 1_655 S
H273 C281 0.949 . S
H274 C282 0.950 . S
H275 C283 0.951 . S
H276 C284 0.951 . S
C277 C271 1.265 . S
C277 H272 0.950 1_455 S
C277 C278 1.478 . S
C278 C277 1.478 . S
C278 C279 1.397 . S
C278 C295 1.394 . S
C279 C278 1.397 . S
C279 C280 1.438 . S
C279 C284 1.429 1_455 S
C280 C279 1.438 . S
C280 C281 1.428 1_455 S
C280 C293 1.394 . S
C281 H273 0.949 . S
C281 C280 1.428 1_655 S
C281 C282 1.345 . S
C282 H274 0.950 . S
C282 C281 1.345 . S
C282 C283 1.424 . S
C283 H275 0.951 . S
C283 C282 1.424 . S
C283 C284 1.347 . S
C284 H276 0.951 . S
C284 C279 1.429 1_655 S
C284 C283 1.347 . S
H285 C286 0.951 1_655 S
C286 H285 0.951 1_455 S
C286 C292 1.265 . S
H287 C292 0.950 . S
H288 C296 0.949 . S
H289 C297 0.950 . S
H290 C298 0.951 . S
H291 C299 0.951 . S
C292 C286 1.265 . S
C292 H287 0.950 . S
C292 C293 1.478 . S
C293 C280 1.394 . S
C293 C292 1.478 . S
C293 C294 1.397 . S
C294 C293 1.397 . S
C294 C295 1.438 . S
C294 C299 1.429 . S
C295 C278 1.394 . S
C295 C294 1.438 . S
C295 C296 1.428 . S
C296 H288 0.949 . S
C296 C295 1.428 . S
C296 C297 1.345 . S
C297 H289 0.950 . S
C297 C296 1.345 . S
C297 C298 1.424 . S
C298 H290 0.951 . S
C298 C297 1.424 . S
C298 C299 1.347 . S
C299 H291 0.951 . S
C299 C294 1.429 . S
C299 C298 1.347 . S
H300 C301 0.951 1_655 S
C301 H300 0.951 1_455 S
C301 C307 1.265 . S
H302 C307 0.950 . S
H303 C311 0.949 . S
H304 C312 0.950 . S
H305 C313 0.951 . S
H306 C314 0.947 1_455 S
C307 C301 1.265 . S
C307 H302 0.950 . S
C307 C308 1.478 . S
C308 C307 1.478 . S
C308 C309 1.397 1_545 S
C308 C325 1.394 . S
C309 C308 1.397 1_565 S
C309 C310 1.438 1_455 S
C309 C314 1.429 1_455 S
C310 C309 1.438 1_655 S
C310 C311 1.428 . S
C310 C323 1.394 1_665 S
C311 H303 0.949 . S
C311 C310 1.428 . S
C311 C312 1.345 . S
C312 H304 0.950 . S
C312 C311 1.345 . S
C312 C313 1.424 . S
C313 H305 0.951 . S
C313 C312 1.424 . S
C313 C314 1.347 . S
C314 H306 0.947 1_655 S
C314 C309 1.429 1_655 S
C314 C313 1.347 . S
H315 C316 0.951 . S
C316 H315 0.951 . S
C316 C322 1.265 1_455 S
H317 C322 0.950 . S
H318 C326 0.949 . S
H319 C327 0.950 . S
H320 C328 0.951 . S
H321 C329 0.951 . S
C322 C316 1.265 1_655 S
C322 H317 0.950 . S
C322 C323 1.478 1_655 S
C323 C310 1.394 1_445 S
C323 C322 1.478 1_455 S
C323 C324 1.397 . S
C324 C323 1.397 . S
C324 C325 1.438 . S
C324 C329 1.429 . S
C325 C308 1.394 . S
C325 C324 1.438 . S
C325 C326 1.428 . S
C326 H318 0.949 . S
C326 C325 1.428 . S
C326 C327 1.345 . S
C327 H319 0.950 . S
C327 C326 1.345 . S
C327 C328 1.424 . S
C328 H320 0.951 . S
C328 C327 1.424 . S
C328 C329 1.347 . S
C329 H321 0.951 . S
C329 C324 1.429 . S
C329 C328 1.347 . S
H330 C331 0.951 . S
C331 H330 0.951 . S
C331 C337 1.265 . S
H332 C337 0.950 1_665 S
H333 C341 0.949 . S
H334 C342 0.950 . S
H335 C343 0.951 . S
H336 C344 0.951 . S
C337 C331 1.265 . S
C337 H332 0.950 1_445 S
C337 C338 1.478 . S
C338 C337 1.478 . S
C338 C339 1.397 1_445 S
C338 C355 1.394 . S
C339 C338 1.397 1_665 S
C339 C340 1.438 1_655 S
C339 C344 1.429 . S
C340 C339 1.438 1_455 S
C340 C341 1.428 1_455 S
C340 C353 1.394 1_565 S
C341 H333 0.949 . S
C341 C340 1.428 1_655 S
C341 C342 1.345 . S
C342 H334 0.950 . S
C342 C341 1.345 . S
C342 C343 1.424 . S
C343 H335 0.951 . S
C343 C342 1.424 . S
C343 C344 1.347 . S
C344 H336 0.951 . S
C344 C339 1.429 . S
C344 C343 1.347 . S
H345 C346 0.943 . S
C346 H345 0.943 . S
C346 C352 1.265 . S
H347 C352 0.950 . S
H348 C356 0.949 . S
H349 C357 0.950 . S
H350 C358 0.951 . S
H351 C359 0.951 . S
C352 C346 1.265 . S
C352 H347 0.950 . S
C352 C353 1.478 . S
C353 C340 1.394 1_545 S
C353 C352 1.478 . S
C353 C354 1.397 . S
C354 C353 1.397 . S
C354 C355 1.438 . S
C354 C359 1.429 . S
C355 C338 1.394 . S
C355 C354 1.438 . S
C355 C356 1.428 . S
C356 H348 0.949 . S
C356 C355 1.428 . S
C356 C357 1.345 . S
C357 H349 0.950 . S
C357 C356 1.345 . S
C357 C358 1.424 . S
C358 H350 0.951 . S
C358 C357 1.424 . S
C358 C359 1.347 . S
C359 H351 0.951 . S
C359 C354 1.429 . S
C359 C358 1.347 . S
H360 C361 0.951 . S
C361 H360 0.951 . S
C361 C367 1.265 1_445 S
H362 C367 0.950 . S
H363 C371 0.949 . S
H364 C372 0.950 . S
H365 C373 0.951 . S
H366 C374 0.951 . S
C367 C361 1.265 1_665 S
C367 H362 0.950 . S
C367 C368 1.478 1_655 S
C368 C367 1.478 1_455 S
C368 C369 1.397 1_455 S
C368 C385 1.394 1_565 S
C369 C368 1.397 1_655 S
C369 C370 1.438 . S
C369 C374 1.429 . S
C370 C369 1.438 . S
C370 C371 1.428 . S
C370 C383 1.394 1_665 S
C371 H363 0.949 . S
C371 C370 1.428 . S
C371 C372 1.345 . S
C372 H364 0.950 . S
C372 C371 1.345 . S
C372 C373 1.424 . S
C373 H365 0.951 . S
C373 C372 1.424 . S
C373 C374 1.347 . S
C374 H366 0.951 . S
C374 C369 1.429 . S
C374 C373 1.347 . S
H375 C376 0.951 . S
C376 H375 0.951 . S
C376 C382 1.265 1_665 S
H377 C382 0.950 . S
H378 C386 0.949 . S
H379 C387 0.950 . S
H380 C388 0.951 . S
H381 C389 0.951 . S
C382 C376 1.265 1_445 S
C382 H377 0.950 . S
C382 C383 1.478 . S
C383 C370 1.394 1_445 S
C383 C382 1.478 . S
C383 C384 1.397 . S
C384 C383 1.397 . S
C384 C385 1.438 . S
C384 C389 1.429 . S
C385 C368 1.394 1_545 S
C385 C384 1.438 . S
C385 C386 1.428 . S
C386 H378 0.949 . S
C386 C385 1.428 . S
C386 C387 1.345 . S
C387 H379 0.950 . S
C387 C386 1.345 . S
C387 C388 1.424 . S
C388 H380 0.951 . S
C388 C387 1.424 . S
C388 C389 1.347 . S
C389 H381 0.951 . S
C389 C384 1.429 . S
C389 C388 1.347 . S
C121 C6 0.704 . S
C136 C15 0.705 . S
C151 C55 0.699 . S
C166 C46 0.699 . S
C181 C90 2.989 . S
C196 C99 2.989 . S
C211 C86 0.693 . S
C226 C95 0.693 . S
C241 C19 3.061 1_554 S
C256 C10 3.059 1_556 S
C271 C50 4.849 . S
C286 C59 4.849 . S
C301 C58 1.495 . S
C316 C9 1.497 1_455 S
C331 C49 1.483 . S
C346 C89 1.400 . S
C361 C98 1.434 . S
C376 C18 1.466 1_655 S
