# Generated by pormake.
# Topology etd, (3)-cn, num edge types: 1
# Building blocks:
#     Node 0, Type 0, BuildingBlock: WUSLED_clean_sbu_0, # of connection points: 3
#     Node 1, Type 0, BuildingBlock: WUSLED_clean_sbu_0, # of connection points: 3
#     Node 2, Type 0, BuildingBlock: WUSLED_clean_sbu_0, # of connection points: 3
#     Node 3, Type 0, BuildingBlock: WUSLED_clean_sbu_0, # of connection points: 3
#     Node 4, Type 0, BuildingBlock: WUSLED_clean_sbu_0, # of connection points: 3
#     Node 5, Type 0, BuildingBlock: WUSLED_clean_sbu_0, # of connection points: 3
#     Node 6, Type 0, BuildingBlock: WUSLED_clean_sbu_0, # of connection points: 3
#     Node 7, Type 0, BuildingBlock: WUSLED_clean_sbu_0, # of connection points: 3
#     Node 8, Type 0, BuildingBlock: WUSLED_clean_sbu_0, # of connection points: 3
#     Node 9, Type 0, BuildingBlock: WUSLED_clean_sbu_0, # of connection points: 3
#     Node 10, Type 0, BuildingBlock: WUSLED_clean_sbu_0, # of connection points: 3
#     Node 11, Type 0, BuildingBlock: WUSLED_clean_sbu_0, # of connection points: 3
#     Edge 12, Type (0, 0), BuildingBlock: KIFKEQ_clean_linker_1, # of connection points: 2
#     Edge 13, Type (0, 0), BuildingBlock: KIFKEQ_clean_linker_1, # of connection points: 2
#     Edge 14, Type (0, 0), BuildingBlock: KIFKEQ_clean_linker_1, # of connection points: 2
#     Edge 15, Type (0, 0), BuildingBlock: KIFKEQ_clean_linker_1, # of connection points: 2
#     Edge 16, Type (0, 0), BuildingBlock: KIFKEQ_clean_linker_1, # of connection points: 2
#     Edge 17, Type (0, 0), BuildingBlock: KIFKEQ_clean_linker_1, # of connection points: 2
#     Edge 18, Type (0, 0), BuildingBlock: KIFKEQ_clean_linker_1, # of connection points: 2
#     Edge 19, Type (0, 0), BuildingBlock: KIFKEQ_clean_linker_1, # of connection points: 2
#     Edge 20, Type (0, 0), BuildingBlock: KIFKEQ_clean_linker_1, # of connection points: 2
#     Edge 21, Type (0, 0), BuildingBlock: KIFKEQ_clean_linker_1, # of connection points: 2
#     Edge 22, Type (0, 0), BuildingBlock: KIFKEQ_clean_linker_1, # of connection points: 2
#     Edge 23, Type (0, 0), BuildingBlock: KIFKEQ_clean_linker_1, # of connection points: 2
#     Edge 24, Type (0, 0), BuildingBlock: KIFKEQ_clean_linker_1, # of connection points: 2
#     Edge 25, Type (0, 0), BuildingBlock: KIFKEQ_clean_linker_1, # of connection points: 2
#     Edge 26, Type (0, 0), BuildingBlock: KIFKEQ_clean_linker_1, # of connection points: 2
#     Edge 27, Type (0, 0), BuildingBlock: KIFKEQ_clean_linker_1, # of connection points: 2
#     Edge 28, Type (0, 0), BuildingBlock: KIFKEQ_clean_linker_1, # of connection points: 2
#     Edge 29, Type (0, 0), BuildingBlock: KIFKEQ_clean_linker_1, # of connection points: 2
# Relax obj value: 0.000
# Max RMSD: 0.003
# Mean RMSD: 0.002
data_MOF--net-etd--node1-WUSLED_clean_sbu_0--edge1-KIFKEQ_clean_linker_1
_symmetry_space_group_name_H-M    P1
_symmetry_Int_Tables_number       1
_symmetry_cell_setting            triclinic
loop_
_symmetry_equiv_pos_as_xyz
'x, y, z'
_cell_length_a     90.656935
_cell_length_b     90.500113
_cell_length_c     65.399752
_cell_angle_alpha  89.995319
_cell_angle_beta   90.07053
_cell_angle_gamma 119.96884
loop_
_atom_site_label
_atom_site_type_symbol
_atom_site_fract_x
_atom_site_fract_y
_atom_site_fract_z
_atom_type_partial_charge
C0 C 0.51372 0.17683 0.10371 0.0
C1 C 0.51935 0.18723 0.12119 0.0
C2 C 0.51488 0.20863 0.10403 0.0
C3 C 0.51988 0.20296 0.12137 0.0
C4 C 0.50939 0.19818 0.08653 0.0
C5 C 0.5088 0.18243 0.0864 0.0
U6 U 0.52485 0.14468 0.12629 0.0
O7 O 0.50917 0.11675 0.12948 0.0
O8 O 0.53259 0.12791 0.11122 0.0
C9 C 0.51872 0.11389 0.11681 0.0
C10 C 0.51291 0.16016 0.10331 0.0
C11 C 0.50965 0.10079 0.10081 0.0
C12 C 0.48853 0.07154 0.09202 0.0
C13 C 0.49651 0.08455 0.10653 0.0
C14 C 0.50659 0.09077 0.06561 0.0
C15 C 0.49359 0.07439 0.07138 0.0
C16 C 0.51452 0.10382 0.08013 0.0
C17 C 0.55252 0.15761 0.17518 0.0
C18 C 0.55649 0.13899 0.19863 0.0
C19 C 0.57569 0.16953 0.19983 0.0
C20 C 0.56667 0.17171 0.18389 0.0
C21 C 0.57072 0.15316 0.20743 0.0
C22 C 0.54749 0.14119 0.18257 0.0
C23 C 0.54321 0.16053 0.15863 0.0
O24 O 0.52738 0.16064 0.09961 0.0
O25 O 0.50416 0.14963 0.11817 0.0
O26 O 0.52651 0.15114 0.15896 0.0
O27 O 0.54968 0.16236 0.14022 0.0
H28 H 0.52331 0.18316 0.13468 0.0
H29 H 0.52437 0.21077 0.13501 0.0
H30 H 0.50526 0.20204 0.07301 0.0
H31 H 0.50442 0.17457 0.07278 0.0
H32 H 0.47839 0.05921 0.09701 0.0
H33 H 0.49254 0.08184 0.12236 0.0
H34 H 0.511 0.09343 0.04994 0.0
H35 H 0.52466 0.11616 0.07518 0.0
H36 H 0.55243 0.12621 0.20401 0.0
H37 H 0.58641 0.18073 0.20642 0.0
H38 H 0.57071 0.18448 0.17844 0.0
H39 H 0.53664 0.13011 0.17598 0.0
C40 C 0.36461 0.50075 0.26735 0.0
C41 C 0.35985 0.50679 0.28442 0.0
C42 C 0.33389 0.50169 0.26698 0.0
C43 C 0.34463 0.50724 0.28425 0.0
C44 C 0.33885 0.49576 0.24986 0.0
C45 C 0.35405 0.4953 0.25007 0.0
U46 U 0.40664 0.51101 0.29236 0.0
O47 O 0.41884 0.49535 0.29587 0.0
O48 O 0.43188 0.51948 0.27895 0.0
C49 C 0.432 0.50559 0.28456 0.0
C50 C 0.3805 0.50004 0.26742 0.0
C51 C 0.4369 0.49728 0.26873 0.0
C52 C 0.4332 0.48411 0.23527 0.0
C53 C 0.42813 0.49189 0.25007 0.0
C54 C 0.45572 0.48692 0.25775 0.0
C55 C 0.44706 0.48151 0.23895 0.0
C56 C 0.45068 0.49472 0.27245 0.0
C57 C 0.41804 0.53563 0.34357 0.0
C58 C 0.44594 0.55179 0.35954 0.0
C59 C 0.42054 0.54485 0.37892 0.0
C60 C 0.4105 0.53635 0.36194 0.0
C61 C 0.43841 0.5529 0.37788 0.0
C62 C 0.43584 0.54322 0.34252 0.0
C63 C 0.40703 0.52742 0.32568 0.0
O64 O 0.39456 0.51477 0.26513 0.0
O65 O 0.38166 0.49055 0.28183 0.0
O66 O 0.39977 0.51073 0.32473 0.0
O67 O 0.41279 0.53494 0.30794 0.0
H68 H 0.36786 0.51106 0.29792 0.0
H69 H 0.34116 0.51168 0.2978 0.0
H70 H 0.33106 0.49164 0.23619 0.0
H71 H 0.35757 0.49067 0.23671 0.0
H72 H 0.42615 0.47995 0.22106 0.0
H73 H 0.4174 0.4937 0.24697 0.0
H74 H 0.46659 0.48538 0.261 0.0
H75 H 0.45763 0.49884 0.28675 0.0
H76 H 0.45966 0.55793 0.35815 0.0
H77 H 0.41428 0.54514 0.39288 0.0
H78 H 0.39678 0.53049 0.36309 0.0
H79 H 0.44193 0.54277 0.32848 0.0
C80 C 0.89047 0.3499 0.43609 0.0
C81 C 0.87868 0.34665 0.45178 0.0
C82 C 0.8588 0.31919 0.43637 0.0
C83 C 0.86298 0.33144 0.45191 0.0
C84 C 0.87069 0.32263 0.42064 0.0
C85 C 0.88636 0.33783 0.42052 0.0
U86 U 0.92275 0.39255 0.45979 0.0
O87 O 0.95059 0.40441 0.46309 0.0
O88 O 0.93973 0.41738 0.4455 0.0
C89 C 0.95363 0.41722 0.45097 0.0
C90 C 0.90713 0.36571 0.43589 0.0
C91 C 0.96688 0.42163 0.43512 0.0
C92 C 0.97747 0.42986 0.40031 0.0
C93 C 0.96421 0.42428 0.41457 0.0
C94 C 0.99617 0.42984 0.42673 0.0
C95 C 0.99369 0.43292 0.40626 0.0
C96 C 0.98295 0.42433 0.44096 0.0
C97 C 0.91036 0.40597 0.50996 0.0
C98 C 0.92695 0.43355 0.52656 0.0
C99 C 0.90144 0.41137 0.54277 0.0
C100 C 0.89895 0.40045 0.52639 0.0
C101 C 0.91544 0.42808 0.54308 0.0
C102 C 0.92444 0.42256 0.51015 0.0
C103 C 0.9071 0.39423 0.49277 0.0
O104 O 0.9067 0.37985 0.43293 0.0
O105 O 0.91769 0.36706 0.45052 0.0
O106 O 0.91633 0.38674 0.49236 0.0
O107 O 0.90541 0.3996 0.47471 0.0
H108 H 0.88168 0.35583 0.46398 0.0
H109 H 0.85425 0.32915 0.46438 0.0
H110 H 0.86782 0.31363 0.40827 0.0
H111 H 0.89528 0.34015 0.40826 0.0
H112 H 0.97512 0.43226 0.38476 0.0
H113 H 0.952 0.42241 0.40954 0.0
H114 H 1.00838 0.43178 0.43182 0.0
H115 H 0.98538 0.42245 0.4567 0.0
H116 H 0.93794 0.44627 0.52639 0.0
H117 H 0.89217 0.40681 0.55501 0.0
H118 H 0.88798 0.3877 0.52646 0.0
H119 H 0.93343 0.42701 0.49759 0.0
C120 C 0.56672 0.87718 0.60428 0.0
C121 C 0.55287 0.86274 0.61301 0.0
C122 C 0.56558 0.84535 0.604 0.0
C123 C 0.55228 0.84697 0.61281 0.0
C124 C 0.57949 0.85994 0.59545 0.0
C125 C 0.58001 0.87567 0.59557 0.0
U126 U 0.55488 0.90883 0.62686 0.0
O127 O 0.57051 0.93666 0.63124 0.0
O128 O 0.54768 0.92603 0.61185 0.0
C129 C 0.56126 0.93988 0.61846 0.0
C130 C 0.56756 0.89389 0.60421 0.0
C131 C 0.57068 0.95352 0.60328 0.0
C132 C 0.57758 0.96357 0.56813 0.0
C133 C 0.56968 0.95015 0.58218 0.0
C134 C 0.58805 0.98385 0.59604 0.0
C135 C 0.58667 0.98063 0.57487 0.0
C136 C 0.58012 0.97046 0.61005 0.0
C137 C 0.526 0.8951 0.67448 0.0
C138 C 0.52154 0.91371 0.69736 0.0
C139 C 0.50283 0.88311 0.69905 0.0
C140 C 0.512 0.88095 0.68331 0.0
C141 C 0.50749 0.8995 0.70633 0.0
C142 C 0.53068 0.91154 0.68151 0.0
C143 C 0.53557 0.89227 0.65823 0.0
O144 O 0.55329 0.89367 0.5998 0.0
O145 O 0.57584 0.90401 0.61959 0.0
O146 O 0.55226 0.90151 0.65928 0.0
O147 O 0.52963 0.89091 0.63957 0.0
H148 H 0.54249 0.86364 0.6199 0.0
H149 H 0.54128 0.83602 0.61933 0.0
H150 H 0.59011 0.8593 0.58887 0.0
H151 H 0.59087 0.88669 0.58889 0.0
H152 H 0.57611 0.96059 0.55196 0.0
H153 H 0.5625 0.93719 0.57652 0.0
H154 H 0.5952 0.99677 0.60184 0.0
H155 H 0.5811 0.97337 0.62624 0.0
H156 H 0.52535 0.92652 0.70247 0.0
H157 H 0.49225 0.87188 0.70577 0.0
H158 H 0.50823 0.86817 0.67813 0.0
H159 H 0.54141 0.92265 0.6748 0.0
C160 C 0.715 0.55275 0.76917 0.0
C161 C 0.71967 0.54656 0.7862 0.0
C162 C 0.74559 0.5516 0.76883 0.0
C163 C 0.73484 0.54602 0.78605 0.0
C164 C 0.74074 0.55768 0.75176 0.0
C165 C 0.72559 0.55826 0.75196 0.0
U166 U 0.67299 0.54277 0.79397 0.0
O167 O 0.66105 0.55866 0.79746 0.0
O168 O 0.64786 0.5346 0.78038 0.0
C169 C 0.64789 0.54856 0.78602 0.0
C170 C 0.69919 0.5536 0.76922 0.0
C171 C 0.64317 0.55703 0.77017 0.0
C172 C 0.64661 0.5696 0.73638 0.0
C173 C 0.65157 0.56177 0.75125 0.0
C174 C 0.62497 0.56818 0.75931 0.0
C175 C 0.63323 0.5729 0.74024 0.0
C176 C 0.6299 0.56032 0.77408 0.0
C177 C 0.66099 0.51798 0.84488 0.0
C178 C 0.63326 0.50521 0.86136 0.0
C179 C 0.65728 0.50646 0.87923 0.0
C180 C 0.66768 0.51454 0.86238 0.0
C181 C 0.63992 0.50163 0.87894 0.0
C182 C 0.64373 0.51337 0.84448 0.0
C183 C 0.67225 0.5261 0.82722 0.0
O184 O 0.68505 0.53895 0.76681 0.0
O185 O 0.6981 0.56309 0.78369 0.0
O186 O 0.67969 0.54281 0.82637 0.0
O187 O 0.66648 0.51868 0.80941 0.0
H188 H 0.71158 0.54217 0.79961 0.0
H189 H 0.73806 0.54106 0.79935 0.0
H190 H 0.74879 0.56227 0.73835 0.0
H191 H 0.7222 0.5631 0.73869 0.0
H192 H 0.65335 0.57323 0.72196 0.0
H193 H 0.66192 0.55939 0.74799 0.0
H194 H 0.61447 0.57027 0.76271 0.0
H195 H 0.62324 0.55671 0.78858 0.0
H196 H 0.62 0.50181 0.8607 0.0
H197 H 0.66278 0.50368 0.89235 0.0
H198 H 0.68096 0.51796 0.86293 0.0
H199 H 0.63835 0.516 0.8311 0.0
C200 C 0.18854 0.70134 0.93453 0.0
C201 C 0.19913 0.70581 0.95179 0.0
C202 C 0.22036 0.73187 0.93489 0.0
C203 C 0.21488 0.72095 0.95199 0.0
C204 C 0.2097 0.72721 0.91758 0.0
C205 C 0.19394 0.71209 0.91743 0.0
U206 U 0.15607 0.65929 0.95888 0.0
O207 O 0.12825 0.64746 0.96193 0.0
O208 O 0.13914 0.63416 0.94516 0.0
C209 C 0.12522 0.63426 0.95057 0.0
C210 C 0.17183 0.68558 0.93426 0.0
C211 C 0.11215 0.62953 0.93458 0.0
C212 C 0.10323 0.63279 0.90057 0.0
C213 C 0.11593 0.63781 0.91556 0.0
C214 C 0.08287 0.61131 0.92356 0.0
C215 C 0.08652 0.61945 0.90439 0.0
C216 C 0.09555 0.61631 0.93847 0.0
C217 C 0.1683 0.64716 1.01018 0.0
C218 C 0.1541 0.6192 0.02631 0.0
C219 C 0.17525 0.64376 0.04511 0.0
C220 C 0.17759 0.65413 0.02819 0.0
C221 C 0.16355 0.62614 0.04438 0.0
C222 C 0.15642 0.62963 1.00936 0.0
C223 C 0.17159 0.65842 0.99244 0.0
O224 O 0.17224 0.67137 0.93194 0.0
O225 O 0.16111 0.68451 0.94849 0.0
O226 O 0.16242 0.66594 0.99135 0.0
O227 O 0.17336 0.65263 0.97471 0.0
H228 H 0.1952 0.6976 0.96512 0.0
H229 H 0.22284 0.72402 0.96546 0.0
H230 H 0.2134 0.73539 0.90426 0.0
H231 H 0.18591 0.70885 0.90399 0.0
H232 H 0.10645 0.63945 0.88607 0.0
H233 H 0.12868 0.64811 0.91232 0.0
H234 H 0.07026 0.60084 0.92695 0.0
H235 H 0.09241 0.60974 0.95304 0.0
H236 H 0.14487 0.60572 0.0253 0.0
H237 H 0.18293 0.64951 0.05863 0.0
H238 H 0.18685 0.66762 0.02909 0.0
H239 H 0.14906 0.62402 0.9956 0.0
C240 C 0.88952 0.55315 0.76782 0.0
C241 C 0.87897 0.54734 0.7505 0.0
C242 C 0.85779 0.55203 0.76775 0.0
C243 C 0.86327 0.54682 0.75044 0.0
C244 C 0.86844 0.55779 0.78507 0.0
C245 C 0.88415 0.55835 0.78508 0.0
U246 U 0.92149 0.54239 0.74422 0.0
O247 O 0.94936 0.55762 0.74164 0.0
O248 O 0.93765 0.53354 0.75877 0.0
C249 C 0.95185 0.54739 0.75364 0.0
C250 C 0.90605 0.55373 0.76817 0.0
C251 C 0.9648 0.55545 0.76998 0.0
C252 C 0.98417 0.58001 0.79063 0.0
C253 C 0.97108 0.57246 0.77609 0.0
C254 C 0.98464 0.55359 0.79351 0.0
C255 C 0.99125 0.57072 0.79938 0.0
C256 C 0.97163 0.54609 0.77895 0.0
C257 C 0.90917 0.5172 0.6936 0.0
C258 C 0.92682 0.50812 0.67576 0.0
C259 C 0.89932 0.50123 0.66188 0.0
C260 C 0.89677 0.50955 0.67832 0.0
C261 C 0.91438 0.5004 0.66035 0.0
C262 C 0.92424 0.51648 0.69225 0.0
C263 C 0.90595 0.52569 0.7108 0.0
O264 O 0.90527 0.53896 0.77088 0.0
O265 O 0.91688 0.56304 0.75383 0.0
O266 O 0.91556 0.54237 0.71157 0.0
O267 O 0.90383 0.51834 0.72873 0.0
H268 H 0.88287 0.54318 0.73706 0.0
H269 H 0.85531 0.54213 0.73694 0.0
H270 H 0.86474 0.5621 0.79855 0.0
H271 H 0.89213 0.56288 0.79859 0.0
H272 H 0.98901 0.59326 0.79462 0.0
H273 H 0.96608 0.58003 0.76944 0.0
H274 H 0.98951 0.54592 0.80017 0.0
H275 H 0.96701 0.53296 0.77451 0.0
H276 H 0.93861 0.50785 0.67498 0.0
H277 H 0.88934 0.49519 0.65053 0.0
H278 H 0.88502 0.50993 0.67918 0.0
H279 H 0.93397 0.52235 0.70393 0.0
C280 C 0.36268 0.87597 0.93592 0.0
C281 C 0.35802 0.86534 0.91867 0.0
C282 C 0.33209 0.84417 0.93581 0.0
C283 C 0.34286 0.8496 0.9186 0.0
C284 C 0.33697 0.85486 0.95312 0.0
C285 C 0.3521 0.8706 0.95315 0.0
U286 U 0.4047 0.90874 0.9116 0.0
O287 O 0.41628 0.93664 0.90882 0.0
O288 O 0.42972 0.92577 0.9254 0.0
C289 C 0.42934 0.93967 0.92044 0.0
C290 C 0.37841 0.8927 0.93609 0.0
C291 C 0.43389 0.95271 0.93662 0.0
C292 C 0.44023 0.96208 0.97209 0.0
C293 C 0.43473 0.94913 0.95737 0.0
C294 C 0.44371 0.98229 0.94566 0.0
C295 C 0.44496 0.9789 0.9664 0.0
C296 C 0.4383 0.96938 0.93097 0.0
C297 C 0.41715 0.89694 0.86025 0.0
C298 C 0.44513 0.91138 0.84432 0.0
C299 C 0.42077 0.89008 0.82538 0.0
C300 C 0.41032 0.88763 0.84221 0.0
C301 C 0.43833 0.90191 0.82622 0.0
C302 C 0.43461 0.90895 0.86118 0.0
C303 C 0.40583 0.89349 0.87793 0.0
O304 O 0.39263 0.89233 0.93838 0.0
O305 O 0.37942 0.90343 0.92187 0.0
O306 O 0.39823 0.90259 0.87904 0.0
O307 O 0.41156 0.89164 0.89566 0.0
H308 H 0.36605 0.86929 0.9052 0.0
H309 H 0.33945 0.84182 0.90493 0.0
H310 H 0.32916 0.85101 0.96675 0.0
H311 H 0.35554 0.8786 0.96664 0.0
H312 H 0.44118 0.95899 0.98785 0.0
H313 H 0.43143 0.9364 0.96222 0.0
H314 H 0.44692 0.99497 0.94072 0.0
H315 H 0.43777 0.97247 0.91508 0.0
H316 H 0.45856 0.9207 0.84542 0.0
H317 H 0.41514 0.88238 0.81184 0.0
H318 H 0.39688 0.87827 0.84123 0.0
H319 H 0.44011 0.91632 0.87497 0.0
C320 C 0.51271 0.35092 0.10318 0.0
C321 C 0.51939 0.34651 0.08644 0.0
C322 C 0.51382 0.32024 0.10356 0.0
C323 C 0.51992 0.33131 0.0866 0.0
C324 C 0.50724 0.32485 0.12034 0.0
C325 C 0.50669 0.34003 0.12013 0.0
U326 U 0.52421 0.39393 0.07966 0.0
O327 O 0.50874 0.40631 0.07558 0.0
O328 O 0.53202 0.41868 0.09416 0.0
C329 C 0.51839 0.41899 0.08792 0.0
C330 C 0.51195 0.36681 0.10318 0.0
C331 C 0.50939 0.4233 0.1035 0.0
C332 C 0.49922 0.42195 0.13826 0.0
C333 C 0.50708 0.41694 0.12353 0.0
C334 C 0.49551 0.43937 0.11297 0.0
C335 C 0.49342 0.43332 0.13318 0.0
C336 C 0.50343 0.43443 0.09832 0.0
C337 C 0.55204 0.40783 0.0311 0.0
C338 C 0.55719 0.43139 1.00866 0.0
C339 C 0.57436 0.41786 1.00547 0.0
C340 C 0.56522 0.40674 0.02139 0.0
C341 C 0.57048 0.43033 0.99889 0.0
C342 C 0.54809 0.42026 0.02471 0.0
C343 C 0.54267 0.39581 0.04775 0.0
O344 O 0.52645 0.38082 0.10685 0.0
O345 O 0.50333 0.36846 0.08805 0.0
O346 O 0.52598 0.38858 0.04722 0.0
O347 O 0.54905 0.40071 0.06618 0.0
H348 H 0.52411 0.35479 0.0732 0.0
H349 H 0.52488 0.32811 0.07331 0.0
H350 H 0.50269 0.31682 0.13378 0.0
H351 H 0.50158 0.34328 0.13324 0.0
H352 H 0.49763 0.41687 0.1536 0.0
H353 H 0.51151 0.40824 0.12784 0.0
H354 H 0.4914 0.44829 0.10856 0.0
H355 H 0.50512 0.4395 0.08295 0.0
H356 H 0.55399 0.44095 1.00409 0.0
H357 H 0.58432 0.41652 0.99811 0.0
H358 H 0.56843 0.3972 0.02609 0.0
H359 H 0.53799 0.42136 0.0321 0.0
C360 C 0.1904 0.50098 0.26879 0.0
C361 C 0.20079 0.50694 0.25137 0.0
C362 C 0.22198 0.5018 0.26787 0.0
C363 C 0.21641 0.5073 0.25089 0.0
C364 C 0.21148 0.49588 0.28528 0.0
C365 C 0.19585 0.49547 0.28571 0.0
U366 U 0.15879 0.51298 0.24681 0.0
O367 O 0.13085 0.49825 0.2445 0.0
O368 O 0.14316 0.52198 0.26233 0.0
C369 C 0.12876 0.50847 0.25694 0.0
C370 C 0.17399 0.50064 0.26962 0.0
C371 C 0.11596 0.50033 0.2733 0.0
C372 C 0.09974 0.47714 0.29722 0.0
C373 C 0.11245 0.4848 0.28227 0.0
C374 C 0.09412 0.50058 0.29462 0.0
C375 C 0.09039 0.48494 0.30355 0.0
C376 C 0.10674 0.50815 0.27967 0.0
C377 C 0.17129 0.53981 0.19737 0.0
C378 C 0.15254 0.54391 0.17431 0.0
C379 C 0.18306 0.56273 0.17238 0.0
C380 C 0.18534 0.55375 0.1883 0.0
C381 C 0.16665 0.55792 0.16514 0.0
C382 C 0.15483 0.53497 0.19036 0.0
C383 C 0.17428 0.53052 0.21389 0.0
O384 O 0.17502 0.51542 0.27313 0.0
O385 O 0.16304 0.49183 0.25511 0.0
O386 O 0.16446 0.51383 0.214 0.0
O387 O 0.17678 0.53737 0.23218 0.0
H388 H 0.19683 0.51136 0.23819 0.0
H389 H 0.22425 0.51212 0.23734 0.0
H390 H 0.21525 0.49135 0.29851 0.0
H391 H 0.188 0.49083 0.29929 0.0
H392 H 0.09732 0.4652 0.30393 0.0
H393 H 0.11945 0.47854 0.27768 0.0
H394 H 0.08705 0.50683 0.2989 0.0
H395 H 0.1092 0.5201 0.27289 0.0
H396 H 0.13972 0.53998 0.16923 0.0
H397 H 0.19422 0.57328 0.1655 0.0
H398 H 0.19814 0.55766 0.19346 0.0
H399 H 0.14379 0.52429 0.19724 0.0
C400 C 0.71525 0.17627 0.43796 0.0
C401 C 0.71936 0.18752 0.4214 0.0
C402 C 0.7463 0.20762 0.43765 0.0
C403 C 0.73474 0.20305 0.42124 0.0
C404 C 0.74203 0.19628 0.45423 0.0
C405 C 0.72665 0.18076 0.45436 0.0
U406 U 0.67275 0.14437 0.41379 0.0
O407 O 0.65998 0.1164 0.41167 0.0
O408 O 0.64752 0.12848 0.42778 0.0
C409 C 0.64702 0.11414 0.42297 0.0
C410 C 0.69917 0.15986 0.4383 0.0
C411 C 0.64192 0.10141 0.43947 0.0
C412 C 0.64861 0.08857 0.46811 0.0
C413 C 0.65388 0.10113 0.45289 0.0
C414 C 0.6194 0.07664 0.45677 0.0
C415 C 0.63128 0.07616 0.47023 0.0
C416 C 0.62468 0.08912 0.44157 0.0
C417 C 0.66092 0.15615 0.36207 0.0
C418 C 0.63284 0.142 0.34629 0.0
C419 C 0.65729 0.16273 0.32705 0.0
C420 C 0.66777 0.16519 0.34389 0.0
C421 C 0.63967 0.15117 0.32804 0.0
C422 C 0.64339 0.14443 0.36315 0.0
C423 C 0.67229 0.15952 0.37971 0.0
O424 O 0.68529 0.16089 0.44036 0.0
O425 O 0.6977 0.14877 0.42432 0.0
O426 O 0.67925 0.14984 0.38117 0.0
O427 O 0.66691 0.16201 0.39733 0.0
H428 H 0.71069 0.18423 0.40857 0.0
H429 H 0.73768 0.21136 0.40812 0.0
H430 H 0.75048 0.19946 0.46724 0.0
H431 H 0.72365 0.17227 0.46731 0.0
H432 H 0.65807 0.0887 0.47834 0.0
H433 H 0.66726 0.11057 0.45156 0.0
H434 H 0.60601 0.06717 0.45773 0.0
H435 H 0.61527 0.0891 0.43132 0.0
H436 H 0.61936 0.13288 0.3475 0.0
H437 H 0.66295 0.1702 0.31339 0.0
H438 H 0.68126 0.17433 0.34279 0.0
H439 H 0.63787 0.13727 0.37705 0.0
C440 C 0.56686 0.70246 0.60287 0.0
C441 C 0.55447 0.70376 0.59139 0.0
C442 C 0.56564 0.73309 0.60303 0.0
C443 C 0.55383 0.71891 0.5915 0.0
C444 C 0.57809 0.73168 0.61438 0.0
C445 C 0.57867 0.71652 0.61431 0.0
U446 U 0.55499 0.65906 0.58013 0.0
O447 O 0.57045 0.64667 0.57602 0.0
O448 O 0.5475 0.63457 0.5951 0.0
C449 C 0.56103 0.63418 0.58866 0.0
C450 C 0.56768 0.6866 0.60299 0.0
C451 C 0.57029 0.63012 0.60418 0.0
C452 C 0.58131 0.63231 0.63868 0.0
C453 C 0.57327 0.63712 0.62394 0.0
C454 C 0.58386 0.61381 0.61394 0.0
C455 C 0.58661 0.62049 0.63389 0.0
C456 C 0.57577 0.61856 0.59927 0.0
C457 C 0.5262 0.64428 0.53218 0.0
C458 C 0.52258 0.62292 0.50696 0.0
C459 C 0.50181 0.63224 0.50926 0.0
C460 C 0.5111 0.64328 0.52521 0.0
C461 C 0.50745 0.62197 0.49986 0.0
C462 C 0.53185 0.63394 0.52304 0.0
C463 C 0.5359 0.65654 0.54857 0.0
O464 O 0.55332 0.67259 0.60718 0.0
O465 O 0.576 0.68476 0.58768 0.0
O466 O 0.55258 0.66386 0.54768 0.0
O467 O 0.52985 0.65197 0.56717 0.0
H468 H 0.54525 0.69303 0.58241 0.0
H469 H 0.54394 0.71942 0.58277 0.0
H470 H 0.58757 0.74239 0.62315 0.0
H471 H 0.58839 0.71578 0.62316 0.0
H472 H 0.58341 0.63787 0.65381 0.0
H473 H 0.56922 0.64615 0.62802 0.0
H474 H 0.58757 0.60454 0.60977 0.0
H475 H 0.57355 0.61299 0.58412 0.0
H476 H 0.52718 0.61507 0.50019 0.0
H477 H 0.49037 0.63203 0.50401 0.0
H478 H 0.50656 0.65119 0.532 0.0
H479 H 0.54344 0.63445 0.52825 0.0
H480 H 0.60524 0.16925 0.21266 0.0
H481 H 0.55804 0.13236 0.24105 0.0
H482 H 0.62108 0.1673 0.24161 0.0
H483 H 0.57397 0.12999 0.26984 0.0
H484 H 0.6081 0.14839 0.32818 0.0
H485 H 0.59095 0.14728 0.29879 0.0
H486 H 0.62892 0.14825 0.25811 0.0
H487 H 0.64605 0.14938 0.28746 0.0
C488 C 0.59824 0.16066 0.22506 0.0
C489 C 0.58035 0.15104 0.22457 0.0
C490 C 0.60734 0.1594 0.24158 0.0
C491 C 0.59881 0.14848 0.25809 0.0
C492 C 0.58093 0.13864 0.25748 0.0
C493 C 0.57181 0.13986 0.24088 0.0
C494 C 0.61267 0.14809 0.31298 0.0
C495 C 0.62854 0.14912 0.3102 0.0
C496 C 0.60282 0.14745 0.29611 0.0
C497 C 0.60861 0.14782 0.27606 0.0
C498 C 0.62423 0.1483 0.27332 0.0
C499 C 0.63406 0.14894 0.29016 0.0
H500 H 0.47291 0.60174 0.49639 0.0
H501 H 0.51975 0.61642 0.46407 0.0
H502 H 0.45665 0.58465 0.46719 0.0
H503 H 0.50344 0.59931 0.43472 0.0
H504 H 0.46751 0.55432 0.3928 0.0
H505 H 0.48443 0.5702 0.42249 0.0
H506 H 0.45028 0.58975 0.43286 0.0
H507 H 0.43348 0.574 0.40332 0.0
C508 C 0.47975 0.60136 0.48302 0.0
C509 C 0.49764 0.61058 0.48252 0.0
C510 C 0.47042 0.59157 0.46624 0.0
C511 C 0.47872 0.59074 0.44849 0.0
C512 C 0.49663 0.59955 0.4482 0.0
C513 C 0.50599 0.60935 0.46503 0.0
C514 C 0.46369 0.56211 0.40134 0.0
C515 C 0.44903 0.56274 0.39574 0.0
C516 C 0.47339 0.5712 0.41837 0.0
C517 C 0.46864 0.58114 0.4302 0.0
C518 C 0.45411 0.58193 0.42441 0.0
C519 C 0.44445 0.57288 0.40743 0.0
H520 H 0.92803 0.4793 0.66103 0.0
H521 H 0.90619 0.50069 0.62006 0.0
H522 H 0.93054 0.46313 0.63271 0.0
H523 H 0.90804 0.48402 0.59199 0.0
H524 H 0.92534 0.4621 0.54145 0.0
H525 H 0.92731 0.4807 0.56961 0.0
H526 H 0.91182 0.43886 0.61193 0.0
H527 H 0.91054 0.42051 0.58395 0.0
C528 C 0.92389 0.48067 0.64596 0.0
C529 C 0.91682 0.49124 0.64288 0.0
C530 C 0.92515 0.47124 0.62976 0.0
C531 C 0.9194 0.47217 0.61005 0.0
C532 C 0.91274 0.48309 0.60688 0.0
C533 C 0.91148 0.49249 0.62307 0.0
C534 C 0.92265 0.45695 0.55681 0.0
C535 C 0.91768 0.43976 0.56039 0.0
C536 C 0.92359 0.46757 0.57294 0.0
C537 C 0.91962 0.46128 0.59306 0.0
C538 C 0.91511 0.44421 0.59669 0.0
C539 C 0.91417 0.43361 0.58058 0.0
H540 H 0.47296 0.88286 0.71166 0.0
H541 H 0.51998 0.92085 0.73952 0.0
H542 H 0.45703 0.8849 0.74041 0.0
H543 H 0.50395 0.9233 0.76808 0.0
H544 H 0.47017 0.90534 0.82657 0.0
H545 H 0.48731 0.9063 0.79732 0.0
H546 H 0.44877 0.90386 0.75633 0.0
H547 H 0.43164 0.90289 0.78554 0.0
C548 C 0.4799 0.8917 0.7239 0.0
C549 C 0.49777 0.90162 0.72332 0.0
C550 C 0.47075 0.89302 0.7403 0.0
C551 C 0.4792 0.90427 0.75659 0.0
C552 C 0.49705 0.91439 0.75589 0.0
C553 C 0.50622 0.91312 0.73941 0.0
C554 C 0.46547 0.90528 0.81132 0.0
C555 C 0.44945 0.9039 0.80843 0.0
C556 C 0.47531 0.90583 0.79453 0.0
C557 C 0.46937 0.90501 0.77444 0.0
C558 C 0.45359 0.90417 0.77157 0.0
C559 C 0.44377 0.90362 0.78834 0.0
H560 H 0.60485 0.44654 0.99254 0.0
H561 H 0.55838 0.44072 0.96669 0.0
H562 H 0.62089 0.46444 0.96381 0.0
H563 H 0.57456 0.45914 0.93814 0.0
H564 H 0.60733 0.47435 0.87874 0.0
H565 H 0.59016 0.45822 0.90803 0.0
H566 H 0.63034 0.49226 0.94886 0.0
H567 H 0.64748 0.50836 0.91962 0.0
C568 C 0.59806 0.44913 0.98074 0.0
C569 C 0.58031 0.4421 0.98188 0.0
C570 C 0.60729 0.45957 0.96436 0.0
C571 C 0.59903 0.46327 0.94863 0.0
C572 C 0.5813 0.45643 0.94989 0.0
C573 C 0.57205 0.44601 0.96636 0.0
C574 C 0.61239 0.47856 0.89398 0.0
C575 C 0.62886 0.49257 0.8968 0.0
C576 C 0.60254 0.4693 0.91079 0.0
C577 C 0.60892 0.47385 0.93082 0.0
C578 C 0.62517 0.48819 0.93364 0.0
C579 C 0.635 0.49743 0.91686 0.0
H580 H 0.16038 0.59436 0.04439 0.0
H581 H 0.16248 0.63301 0.08497 0.0
H582 H 0.15956 0.5774 0.07385 0.0
H583 H 0.16166 0.61608 0.11438 0.0
H584 H 0.18304 0.59245 0.15943 0.0
H585 H 0.18081 0.60813 0.13047 0.0
H586 H 0.14265 0.56082 0.10322 0.0
H587 H 0.14528 0.54505 0.13202 0.0
C588 C 0.16039 0.59912 0.05958 0.0
C589 C 0.16164 0.61513 0.06229 0.0
C590 C 0.15992 0.58939 0.07649 0.0
C591 C 0.16069 0.59543 0.09651 0.0
C592 C 0.16139 0.61119 0.09919 0.0
C593 C 0.16186 0.6209 0.08232 0.0
C594 C 0.1742 0.58537 0.14724 0.0
C595 C 0.16441 0.56748 0.148 0.0
C596 C 0.17278 0.59438 0.13072 0.0
C597 C 0.16154 0.58575 0.11449 0.0
C598 C 0.15154 0.56786 0.11537 0.0
C599 C 0.15292 0.55883 0.13198 0.0
H600 H 0.50501 0.22234 0.13486 0.0
H601 H 0.52553 0.23265 0.07362 0.0
H602 H 0.50525 0.24942 0.135 0.0
H603 H 0.52528 0.25948 0.07353 0.0
H604 H 0.53892 0.31441 0.08914 0.0
H605 H 0.53949 0.28775 0.08941 0.0
H606 H 0.49026 0.26247 0.11873 0.0
H607 H 0.4896 0.28906 0.11833 0.0
C608 C 0.50964 0.23041 0.12145 0.0
C609 C 0.51524 0.22529 0.10423 0.0
C610 C 0.5096 0.24586 0.12145 0.0
C611 C 0.51523 0.25662 0.10425 0.0
C612 C 0.52099 0.25158 0.0871 0.0
C613 C 0.52096 0.2361 0.08707 0.0
C614 C 0.52813 0.30314 0.09547 0.0
C615 C 0.51422 0.30395 0.10372 0.0
C616 C 0.52847 0.28784 0.09565 0.0
C617 C 0.51493 0.27295 0.10412 0.0
C618 C 0.50103 0.27375 0.11239 0.0
C619 C 0.50067 0.28903 0.11216 0.0
H620 H 0.24575 0.51159 0.29847 0.0
H621 H 0.23593 0.4929 0.23634 0.0
H622 H 0.27263 0.51156 0.29813 0.0
H623 H 0.26309 0.49338 0.23578 0.0
H624 H 0.30306 0.47782 0.25099 0.0
H625 H 0.27637 0.4782 0.25088 0.0
H626 H 0.30089 0.52648 0.28269 0.0
H627 H 0.32764 0.52618 0.28269 0.0
C628 C 0.24931 0.50746 0.28473 0.0
C629 C 0.23862 0.5022 0.26745 0.0
C630 C 0.26483 0.50763 0.28446 0.0
C631 C 0.27005 0.50247 0.26693 0.0
C632 C 0.25939 0.49727 0.24961 0.0
C633 C 0.2439 0.49717 0.24986 0.0
C634 C 0.30284 0.48863 0.25776 0.0
C635 C 0.31756 0.50197 0.26685 0.0
C636 C 0.28751 0.48884 0.25771 0.0
C637 C 0.28646 0.50237 0.26677 0.0
C638 C 0.30117 0.51573 0.27584 0.0
C639 C 0.31652 0.51555 0.27585 0.0
H640 H 0.85279 0.28713 0.42696 0.0
H641 H 0.8272 0.31418 0.44633 0.0
H642 H 0.82569 0.26047 0.42685 0.0
H643 H 0.80016 0.28738 0.44697 0.0
H644 H 0.75232 0.23904 0.42476 0.0
H645 H 0.77935 0.26584 0.42417 0.0
H646 H 0.80455 0.24042 0.45024 0.0
H647 H 0.77768 0.21352 0.45009 0.0
C648 C 0.84138 0.28741 0.43116 0.0
C649 C 0.84221 0.30285 0.4366 0.0
C650 C 0.82584 0.27207 0.43134 0.0
C651 C 0.8107 0.27173 0.43694 0.0
C652 C 0.81152 0.28717 0.44237 0.0
C653 C 0.82708 0.30253 0.44223 0.0
C654 C 0.76365 0.23913 0.43018 0.0
C655 C 0.76279 0.22408 0.43745 0.0
C656 C 0.77914 0.25456 0.43006 0.0
C657 C 0.79417 0.25533 0.43717 0.0
C658 C 0.79329 0.24028 0.44444 0.0
C659 C 0.77782 0.22487 0.44458 0.0
H660 H 0.55862 0.74833 0.57105 0.0
H661 H 0.57126 0.75464 0.63537 0.0
H662 H 0.55767 0.77475 0.57135 0.0
H663 H 0.5712 0.7815 0.63541 0.0
H664 H 0.55386 0.82074 0.63392 0.0
H665 H 0.55295 0.79339 0.63343 0.0
H666 H 0.57594 0.80489 0.57345 0.0
H667 H 0.576 0.8318 0.57347 0.0
C668 C 0.56116 0.75531 0.58529 0.0
C669 C 0.56503 0.74929 0.60318 0.0
C670 C 0.56084 0.77062 0.58539 0.0
C671 C 0.56442 0.78036 0.60339 0.0
C672 C 0.56819 0.77428 0.62131 0.0
C673 C 0.56846 0.75896 0.62122 0.0
C674 C 0.55851 0.81735 0.62049 0.0
C675 C 0.56501 0.82856 0.60374 0.0
C676 C 0.55819 0.80172 0.62032 0.0
C677 C 0.56443 0.79688 0.60343 0.0
C678 C 0.57085 0.80805 0.58664 0.0
C679 C 0.5711 0.82364 0.58677 0.0
H680 H 0.76884 0.56025 0.79986 0.0
H681 H 0.75922 0.54213 0.7375 0.0
H682 H 0.79564 0.56008 0.79951 0.0
H683 H 0.78598 0.54185 0.73716 0.0
H684 H 0.84342 0.56117 0.73688 0.0
H685 H 0.81634 0.56079 0.73714 0.0
H686 H 0.80716 0.54122 0.79887 0.0
H687 H 0.83429 0.54171 0.79864 0.0
C688 C 0.77235 0.55605 0.78614 0.0
C689 C 0.76185 0.55122 0.76871 0.0
C690 C 0.78774 0.55594 0.78594 0.0
C691 C 0.79303 0.55096 0.7683 0.0
C692 C 0.78248 0.54604 0.7509 0.0
C693 C 0.76711 0.54618 0.7511 0.0
C694 C 0.83555 0.55663 0.75045 0.0
C695 C 0.84108 0.5515 0.76776 0.0
C696 C 0.82 0.55641 0.7506 0.0
C697 C 0.80952 0.551 0.76804 0.0
C698 C 0.815 0.54575 0.78529 0.0
C699 C 0.83057 0.54601 0.78516 0.0
H700 H 0.23452 0.75482 0.96632 0.0
H701 H 0.24392 0.7458 0.90409 0.0
H702 H 0.26162 0.78153 0.96671 0.0
H703 H 0.27078 0.7728 0.90427 0.0
H704 H 0.3259 0.81357 0.91961 0.0
H705 H 0.29919 0.78644 0.91945 0.0
H706 H 0.2746 0.8099 0.95163 0.0
H707 H 0.30123 0.83703 0.95169 0.0
C708 C 0.24239 0.75849 0.95274 0.0
C709 C 0.23701 0.74813 0.93517 0.0
C710 C 0.25785 0.77392 0.95289 0.0
C711 C 0.26838 0.77937 0.9355 0.0
C712 C 0.26307 0.76894 0.91799 0.0
C713 C 0.24757 0.75354 0.91782 0.0
C714 C 0.31476 0.813 0.92649 0.0
C715 C 0.31577 0.82753 0.93569 0.0
C716 C 0.29944 0.79742 0.92642 0.0
C717 C 0.28473 0.79595 0.93557 0.0
C718 C 0.28574 0.81048 0.94475 0.0
C719 C 0.30104 0.82606 0.94479 0.0
H720 H 0.48386 0.04063 0.07673 0.0
H721 H 0.48544 0.07602 0.03123 0.0
H722 H 0.47154 1.01768 0.05164 0.0
H723 H 0.47335 0.05306 1.00606 0.0
H724 H 0.47078 1.012 0.96199 0.0
H725 H 0.48174 0.03486 0.98719 0.0
H726 H 0.44543 1.00054 0.03137 0.0
H727 H 0.43423 0.97765 1.00605 0.0
C728 C 0.48141 0.04352 0.06146 0.0
C729 C 0.48568 0.06026 0.05608 0.0
C730 C 0.47436 0.03032 0.04704 0.0
C731 C 0.47148 0.03351 0.02681 0.0
C732 C 0.47563 0.0502 0.02143 0.0
C733 C 0.4826 0.06339 0.03588 0.0
C734 C 0.46493 1.00933 0.97696 0.0
C735 C 0.45155 0.99292 0.98189 0.0
C736 C 0.47125 1.02247 0.99145 0.0
C737 C 0.46446 1.01956 1.01131 0.0
C738 C 0.4511 1.00317 1.01629 0.0
C739 C 0.4447 0.99003 1.00176 0.0
H740 H 0.50364 0.44256 0.17284 0.0
H741 H 0.46566 0.43762 0.12917 0.0
H742 H 0.49175 0.45344 0.19816 0.0
H743 H 0.45366 0.44839 0.15455 0.0
H744 H 0.44975 0.48671 0.19746 0.0
H745 H 0.4602 0.47437 0.17212 0.0
H746 H 0.46744 0.44544 0.21966 0.0
H747 H 0.4571 0.45786 0.24497 0.0
C748 C 0.4926 0.44357 0.16873 0.0
C749 C 0.48563 0.43923 0.14894 0.0
C750 C 0.48576 0.44981 0.18327 0.0
C751 C 0.47174 0.45184 0.17844 0.0
C752 C 0.46464 0.44728 0.15872 0.0
C753 C 0.4715 0.44108 0.14417 0.0
C754 C 0.45338 0.47756 0.20247 0.0
C755 C 0.45265 0.47336 0.22329 0.0
C756 C 0.45938 0.47047 0.18793 0.0
C757 C 0.46476 0.45894 0.19381 0.0
C758 C 0.46373 0.45451 0.21459 0.0
C759 C 0.45777 0.46163 0.22912 0.0
H760 H 0.06615 0.45111 0.30734 0.0
H761 H 0.08347 0.50036 0.33518 0.0
H762 H 0.0432 0.43803 0.33243 0.0
H763 H 0.06025 0.48743 0.35975 0.0
H764 H 1.02705 0.45705 0.41314 0.0
H765 H 0.05059 0.46874 0.38898 0.0
H766 H 1.01658 0.43691 0.34124 0.0
H767 H 0.99312 0.42465 0.36567 0.0
C768 C 0.06513 0.45914 0.31887 0.0
C769 C 0.07666 0.4768 0.31921 0.0
C770 C 0.05184 0.45167 0.33312 0.0
C771 C 0.04981 0.46166 0.34812 0.0
C772 C 0.06149 0.47929 0.34858 0.0
C773 C 0.07472 0.48675 0.33432 0.0
C774 C 1.0246 0.45233 0.39758 0.0
C775 C 1.00813 0.43985 0.39142 0.0
C776 C 1.03809 0.45921 0.38363 0.0
C777 C 1.03551 0.45385 0.36311 0.0
C778 C 1.01909 0.44124 0.35696 0.0
C779 C 1.00557 0.43435 0.37093 0.0
H780 H 0.64649 0.05786 0.48237 0.0
H781 H 0.60294 0.06386 0.49443 0.0
H782 H 0.63654 0.03532 0.50809 0.0
H783 H 0.59269 0.04097 0.5195 0.0
H784 H 0.58725 1.01114 0.57733 0.0
H785 H 0.59898 0.03457 0.55297 0.0
H786 H 0.61397 1.00604 0.51361 0.0
H787 H 0.60286 0.98282 0.53847 0.0
C788 C 0.63484 0.05444 0.49056 0.0
C789 C 0.62551 0.06268 0.48628 0.0
C790 C 0.62902 0.04137 0.50514 0.0
C791 C 0.61378 0.03627 0.51588 0.0
C792 C 0.60457 0.04465 0.51172 0.0
C793 C 0.61035 0.05767 0.49714 0.0
C794 C 0.59327 1.00993 0.56364 0.0
C795 C 0.59412 0.99505 0.55994 0.0
C796 C 0.59982 1.02331 0.54951 0.0
C797 C 0.60737 1.0222 0.53124 0.0
C798 C 0.60839 1.00741 0.5276 0.0
C799 C 0.60183 0.994 0.54176 0.0
H800 H 0.62941 0.56664 0.69897 0.0
H801 H 0.6244 0.59751 0.74576 0.0
H802 H 0.61897 0.5789 0.67348 0.0
H803 H 0.61407 0.60985 0.7203 0.0
H804 H 0.57734 0.61264 0.67402 0.0
H805 H 0.58935 0.60196 0.69947 0.0
H806 H 0.62585 0.60462 0.65507 0.0
H807 H 0.61372 0.6152 0.62957 0.0
C808 C 0.6263 0.57622 0.70378 0.0
C809 C 0.62768 0.58102 0.72446 0.0
C810 C 0.62031 0.58327 0.68915 0.0
C811 C 0.61558 0.59534 0.6948 0.0
C812 C 0.61727 0.60036 0.71543 0.0
C813 C 0.62322 0.59329 0.73005 0.0
C814 C 0.58807 0.61116 0.66975 0.0
C815 C 0.59453 0.61476 0.64972 0.0
C816 C 0.59498 0.60503 0.68436 0.0
C817 C 0.60858 0.60238 0.67936 0.0
C818 C 0.6152 0.60622 0.65939 0.0
C819 C 0.60826 0.61231 0.64477 0.0
H820 H 0.99606 0.59344 0.83015 0.0
H821 H 1.01911 0.56653 0.8025 0.0
H822 H 1.01951 0.60655 0.85457 0.0
H823 H 0.04208 0.57898 0.82746 0.0
H824 H 0.08927 0.61573 0.86313 0.0
H825 H 0.06679 0.60528 0.83738 0.0
H826 H 1.03038 0.59908 0.88396 0.0
H827 H 0.05297 0.61021 0.9095 0.0
C828 C 1.00613 0.59034 0.82922 0.0
C829 C 1.00561 0.57885 0.81434 0.0
C830 C 1.0195 0.59772 0.84339 0.0
C831 C 1.03271 0.59382 0.84307 0.0
C832 C 1.03226 0.58246 0.82807 0.0
C833 C 1.01892 0.57511 0.8139 0.0
C834 C 0.07652 0.6124 0.86783 0.0
C835 C 0.07295 0.61377 0.88844 0.0
C836 C 0.06357 0.60619 0.85309 0.0
C837 C 0.0467 0.60121 0.85856 0.0
C838 C 0.04322 0.60292 0.87911 0.0
C839 C 0.05616 0.60911 0.89383 0.0
loop_
_geom_bond_atom_site_label_1
_geom_bond_atom_site_label_2
_geom_bond_distance
_geom_bond_site_symmetry_2
_ccdc_geom_bond_type
C0 C1 1.264 . S
C0 C5 1.479 . S
C0 C10 1.465 . S
C1 C0 1.264 . S
C1 C3 1.339 . S
C1 H28 0.931 . S
C2 C3 1.395 . S
C2 C4 1.320 . S
C3 C1 1.339 . S
C3 C2 1.395 . S
C3 H29 0.929 . S
C4 C2 1.320 . S
C4 C5 1.405 . S
C4 H30 0.930 . S
C5 C0 1.479 . S
C5 C4 1.405 . S
C5 H31 0.931 . S
U6 O7 2.454 . S
U6 O8 2.458 . S
U6 C9 2.984 . S
U6 C10 2.847 . S
U6 C23 2.882 . S
U6 O24 2.441 . S
U6 O25 2.420 . S
U6 O26 2.455 . S
U6 O27 2.449 . S
O7 U6 2.454 . S
O7 C9 1.353 . S
O8 U6 2.458 . S
O8 C9 1.286 . S
C9 U6 2.984 . S
C9 O7 1.353 . S
C9 O8 1.286 . S
C9 C11 1.363 . S
C10 C0 1.465 . S
C10 U6 2.847 . S
C10 O24 1.249 . S
C10 O25 1.202 . S
C11 C9 1.363 . S
C11 C13 1.408 . S
C11 C16 1.342 . S
C12 C13 1.310 . S
C12 C15 1.461 . S
C12 H32 0.932 . S
C13 C11 1.408 . S
C13 C12 1.310 . S
C13 H33 0.930 . S
C14 C15 1.474 . S
C14 C16 1.285 . S
C14 H34 0.929 . S
C15 C12 1.461 . S
C15 C14 1.474 . S
C16 C11 1.342 . S
C16 C14 1.285 . S
C16 H35 0.930 . S
C17 C20 1.424 . S
C17 C22 1.245 . S
C17 C23 1.428 . S
C18 C21 1.260 . S
C18 C22 1.477 . S
C18 H36 0.932 . S
C19 C20 1.384 . S
C19 C21 1.479 . S
C19 H37 0.929 . S
C20 C17 1.424 . S
C20 C19 1.384 . S
C20 H38 0.928 . S
C21 C18 1.260 . S
C21 C19 1.479 . S
C22 C17 1.245 . S
C22 C18 1.477 . S
C22 H39 0.932 . S
C23 U6 2.882 . S
C23 C17 1.428 . S
C23 O26 1.301 . S
C23 O27 1.282 . S
O24 U6 2.441 . S
O24 C10 1.249 . S
O25 U6 2.420 . S
O25 C10 1.202 . S
O26 U6 2.455 . S
O26 C23 1.301 . S
O27 U6 2.449 . S
O27 C23 1.282 . S
H28 C1 0.931 . S
H29 C3 0.929 . S
H30 C4 0.930 . S
H31 C5 0.931 . S
H32 C12 0.932 . S
H33 C13 0.930 . S
H34 C14 0.929 . S
H35 C16 0.930 . S
H36 C18 0.932 . S
H37 C19 0.929 . S
H38 C20 0.928 . S
H39 C22 0.932 . S
C40 C41 1.264 . S
C40 C45 1.479 . S
C40 C50 1.465 . S
C41 C40 1.264 . S
C41 C43 1.339 . S
C41 H68 0.931 . S
C42 C43 1.395 . S
C42 C44 1.320 . S
C43 C41 1.339 . S
C43 C42 1.395 . S
C43 H69 0.929 . S
C44 C42 1.320 . S
C44 C45 1.405 . S
C44 H70 0.930 . S
C45 C40 1.479 . S
C45 C44 1.405 . S
C45 H71 0.931 . S
U46 O47 2.454 . S
U46 O48 2.458 . S
U46 C49 2.984 . S
U46 C50 2.847 . S
U46 C63 2.882 . S
U46 O64 2.441 . S
U46 O65 2.420 . S
U46 O66 2.455 . S
U46 O67 2.449 . S
O47 U46 2.454 . S
O47 C49 1.353 . S
O48 U46 2.458 . S
O48 C49 1.286 . S
C49 U46 2.984 . S
C49 O47 1.353 . S
C49 O48 1.286 . S
C49 C51 1.363 . S
C50 C40 1.465 . S
C50 U46 2.847 . S
C50 O64 1.249 . S
C50 O65 1.202 . S
C51 C49 1.363 . S
C51 C53 1.408 . S
C51 C56 1.342 . S
C52 C53 1.310 . S
C52 C55 1.461 . S
C52 H72 0.932 . S
C53 C51 1.408 . S
C53 C52 1.310 . S
C53 H73 0.930 . S
C54 C55 1.474 . S
C54 C56 1.285 . S
C54 H74 0.929 . S
C55 C52 1.461 . S
C55 C54 1.474 . S
C56 C51 1.342 . S
C56 C54 1.285 . S
C56 H75 0.930 . S
C57 C60 1.424 . S
C57 C62 1.245 . S
C57 C63 1.428 . S
C58 C61 1.260 . S
C58 C62 1.477 . S
C58 H76 0.932 . S
C59 C60 1.384 . S
C59 C61 1.479 . S
C59 H77 0.929 . S
C60 C57 1.424 . S
C60 C59 1.384 . S
C60 H78 0.928 . S
C61 C58 1.260 . S
C61 C59 1.479 . S
C62 C57 1.245 . S
C62 C58 1.477 . S
C62 H79 0.932 . S
C63 U46 2.882 . S
C63 C57 1.428 . S
C63 O66 1.301 . S
C63 O67 1.282 . S
O64 U46 2.441 . S
O64 C50 1.249 . S
O65 U46 2.420 . S
O65 C50 1.202 . S
O66 U46 2.455 . S
O66 C63 1.301 . S
O67 U46 2.449 . S
O67 C63 1.282 . S
H68 C41 0.931 . S
H69 C43 0.929 . S
H70 C44 0.930 . S
H71 C45 0.931 . S
H72 C52 0.932 . S
H73 C53 0.930 . S
H74 C54 0.929 . S
H75 C56 0.930 . S
H76 C58 0.932 . S
H77 C59 0.929 . S
H78 C60 0.928 . S
H79 C62 0.932 . S
C80 C81 1.264 . S
C80 C85 1.479 . S
C80 C90 1.465 . S
C81 C80 1.264 . S
C81 C83 1.339 . S
C81 H108 0.931 . S
C82 C83 1.395 . S
C82 C84 1.320 . S
C83 C81 1.339 . S
C83 C82 1.395 . S
C83 H109 0.929 . S
C84 C82 1.320 . S
C84 C85 1.405 . S
C84 H110 0.930 . S
C85 C80 1.479 . S
C85 C84 1.405 . S
C85 H111 0.931 . S
U86 O87 2.454 . S
U86 O88 2.458 . S
U86 C89 2.984 . S
U86 C90 2.847 . S
U86 C103 2.882 . S
U86 O104 2.441 . S
U86 O105 2.420 . S
U86 O106 2.455 . S
U86 O107 2.449 . S
O87 U86 2.454 . S
O87 C89 1.353 . S
O88 U86 2.458 . S
O88 C89 1.286 . S
C89 U86 2.984 . S
C89 O87 1.353 . S
C89 O88 1.286 . S
C89 C91 1.363 . S
C90 C80 1.465 . S
C90 U86 2.847 . S
C90 O104 1.249 . S
C90 O105 1.202 . S
C91 C89 1.363 . S
C91 C93 1.408 . S
C91 C96 1.342 . S
C92 C93 1.310 . S
C92 C95 1.461 . S
C92 H112 0.932 . S
C93 C91 1.408 . S
C93 C92 1.310 . S
C93 H113 0.930 . S
C94 C95 1.474 . S
C94 C96 1.285 . S
C94 H114 0.929 . S
C95 C92 1.461 . S
C95 C94 1.474 . S
C96 C91 1.342 . S
C96 C94 1.285 . S
C96 H115 0.930 . S
C97 C100 1.424 . S
C97 C102 1.245 . S
C97 C103 1.428 . S
C98 C101 1.260 . S
C98 C102 1.477 . S
C98 H116 0.932 . S
C99 C100 1.384 . S
C99 C101 1.479 . S
C99 H117 0.929 . S
C100 C97 1.424 . S
C100 C99 1.384 . S
C100 H118 0.928 . S
C101 C98 1.260 . S
C101 C99 1.479 . S
C102 C97 1.245 . S
C102 C98 1.477 . S
C102 H119 0.932 . S
C103 U86 2.882 . S
C103 C97 1.428 . S
C103 O106 1.301 . S
C103 O107 1.282 . S
O104 U86 2.441 . S
O104 C90 1.249 . S
O105 U86 2.420 . S
O105 C90 1.202 . S
O106 U86 2.455 . S
O106 C103 1.301 . S
O107 U86 2.449 . S
O107 C103 1.282 . S
H108 C81 0.931 . S
H109 C83 0.929 . S
H110 C84 0.930 . S
H111 C85 0.931 . S
H112 C92 0.932 . S
H113 C93 0.930 . S
H114 C94 0.929 . S
H115 C96 0.930 . S
H116 C98 0.932 . S
H117 C99 0.929 . S
H118 C100 0.928 . S
H119 C102 0.932 . S
C120 C121 1.264 . S
C120 C125 1.479 . S
C120 C130 1.465 . S
C121 C120 1.264 . S
C121 C123 1.339 . S
C121 H148 0.931 . S
C122 C123 1.395 . S
C122 C124 1.320 . S
C123 C121 1.339 . S
C123 C122 1.395 . S
C123 H149 0.929 . S
C124 C122 1.320 . S
C124 C125 1.405 . S
C124 H150 0.930 . S
C125 C120 1.479 . S
C125 C124 1.405 . S
C125 H151 0.931 . S
U126 O127 2.454 . S
U126 O128 2.458 . S
U126 C129 2.984 . S
U126 C130 2.847 . S
U126 C143 2.882 . S
U126 O144 2.441 . S
U126 O145 2.420 . S
U126 O146 2.455 . S
U126 O147 2.449 . S
O127 U126 2.454 . S
O127 C129 1.353 . S
O128 U126 2.458 . S
O128 C129 1.286 . S
C129 U126 2.984 . S
C129 O127 1.353 . S
C129 O128 1.286 . S
C129 C131 1.363 . S
C130 C120 1.465 . S
C130 U126 2.847 . S
C130 O144 1.249 . S
C130 O145 1.202 . S
C131 C129 1.363 . S
C131 C133 1.408 . S
C131 C136 1.342 . S
C132 C133 1.310 . S
C132 C135 1.461 . S
C132 H152 0.932 . S
C133 C131 1.408 . S
C133 C132 1.310 . S
C133 H153 0.930 . S
C134 C135 1.474 . S
C134 C136 1.285 . S
C134 H154 0.929 . S
C135 C132 1.461 . S
C135 C134 1.474 . S
C136 C131 1.342 . S
C136 C134 1.285 . S
C136 H155 0.930 . S
C137 C140 1.424 . S
C137 C142 1.245 . S
C137 C143 1.428 . S
C138 C141 1.260 . S
C138 C142 1.477 . S
C138 H156 0.932 . S
C139 C140 1.384 . S
C139 C141 1.479 . S
C139 H157 0.929 . S
C140 C137 1.424 . S
C140 C139 1.384 . S
C140 H158 0.928 . S
C141 C138 1.260 . S
C141 C139 1.479 . S
C142 C137 1.245 . S
C142 C138 1.477 . S
C142 H159 0.932 . S
C143 U126 2.882 . S
C143 C137 1.428 . S
C143 O146 1.301 . S
C143 O147 1.282 . S
O144 U126 2.441 . S
O144 C130 1.249 . S
O145 U126 2.420 . S
O145 C130 1.202 . S
O146 U126 2.455 . S
O146 C143 1.301 . S
O147 U126 2.449 . S
O147 C143 1.282 . S
H148 C121 0.931 . S
H149 C123 0.929 . S
H150 C124 0.930 . S
H151 C125 0.931 . S
H152 C132 0.932 . S
H153 C133 0.930 . S
H154 C134 0.929 . S
H155 C136 0.930 . S
H156 C138 0.932 . S
H157 C139 0.929 . S
H158 C140 0.928 . S
H159 C142 0.932 . S
C160 C161 1.264 . S
C160 C165 1.479 . S
C160 C170 1.465 . S
C161 C160 1.264 . S
C161 C163 1.339 . S
C161 H188 0.931 . S
C162 C163 1.395 . S
C162 C164 1.320 . S
C163 C161 1.339 . S
C163 C162 1.395 . S
C163 H189 0.929 . S
C164 C162 1.320 . S
C164 C165 1.405 . S
C164 H190 0.930 . S
C165 C160 1.479 . S
C165 C164 1.405 . S
C165 H191 0.931 . S
U166 O167 2.454 . S
U166 O168 2.458 . S
U166 C169 2.984 . S
U166 C170 2.847 . S
U166 C183 2.882 . S
U166 O184 2.441 . S
U166 O185 2.420 . S
U166 O186 2.455 . S
U166 O187 2.449 . S
O167 U166 2.454 . S
O167 C169 1.353 . S
O168 U166 2.458 . S
O168 C169 1.286 . S
C169 U166 2.984 . S
C169 O167 1.353 . S
C169 O168 1.286 . S
C169 C171 1.363 . S
C170 C160 1.465 . S
C170 U166 2.847 . S
C170 O184 1.249 . S
C170 O185 1.202 . S
C171 C169 1.363 . S
C171 C173 1.408 . S
C171 C176 1.342 . S
C172 C173 1.310 . S
C172 C175 1.461 . S
C172 H192 0.932 . S
C173 C171 1.408 . S
C173 C172 1.310 . S
C173 H193 0.930 . S
C174 C175 1.474 . S
C174 C176 1.285 . S
C174 H194 0.929 . S
C175 C172 1.461 . S
C175 C174 1.474 . S
C176 C171 1.342 . S
C176 C174 1.285 . S
C176 H195 0.930 . S
C177 C180 1.424 . S
C177 C182 1.245 . S
C177 C183 1.428 . S
C178 C181 1.260 . S
C178 C182 1.477 . S
C178 H196 0.932 . S
C179 C180 1.384 . S
C179 C181 1.479 . S
C179 H197 0.929 . S
C180 C177 1.424 . S
C180 C179 1.384 . S
C180 H198 0.928 . S
C181 C178 1.260 . S
C181 C179 1.479 . S
C182 C177 1.245 . S
C182 C178 1.477 . S
C182 H199 0.932 . S
C183 U166 2.882 . S
C183 C177 1.428 . S
C183 O186 1.301 . S
C183 O187 1.282 . S
O184 U166 2.441 . S
O184 C170 1.249 . S
O185 U166 2.420 . S
O185 C170 1.202 . S
O186 U166 2.455 . S
O186 C183 1.301 . S
O187 U166 2.449 . S
O187 C183 1.282 . S
H188 C161 0.931 . S
H189 C163 0.929 . S
H190 C164 0.930 . S
H191 C165 0.931 . S
H192 C172 0.932 . S
H193 C173 0.930 . S
H194 C174 0.929 . S
H195 C176 0.930 . S
H196 C178 0.932 . S
H197 C179 0.929 . S
H198 C180 0.928 . S
H199 C182 0.932 . S
C200 C201 1.264 . S
C200 C205 1.479 . S
C200 C210 1.465 . S
C201 C200 1.264 . S
C201 C203 1.339 . S
C201 H228 0.931 . S
C202 C203 1.395 . S
C202 C204 1.320 . S
C203 C201 1.339 . S
C203 C202 1.395 . S
C203 H229 0.929 . S
C204 C202 1.320 . S
C204 C205 1.405 . S
C204 H230 0.930 . S
C205 C200 1.479 . S
C205 C204 1.405 . S
C205 H231 0.931 . S
U206 O207 2.454 . S
U206 O208 2.458 . S
U206 C209 2.984 . S
U206 C210 2.847 . S
U206 C223 2.882 . S
U206 O224 2.441 . S
U206 O225 2.420 . S
U206 O226 2.455 . S
U206 O227 2.449 . S
O207 U206 2.454 . S
O207 C209 1.353 . S
O208 U206 2.458 . S
O208 C209 1.286 . S
C209 U206 2.984 . S
C209 O207 1.353 . S
C209 O208 1.286 . S
C209 C211 1.363 . S
C210 C200 1.465 . S
C210 U206 2.847 . S
C210 O224 1.249 . S
C210 O225 1.202 . S
C211 C209 1.363 . S
C211 C213 1.408 . S
C211 C216 1.342 . S
C212 C213 1.310 . S
C212 C215 1.461 . S
C212 H232 0.932 . S
C213 C211 1.408 . S
C213 C212 1.310 . S
C213 H233 0.930 . S
C214 C215 1.474 . S
C214 C216 1.285 . S
C214 H234 0.929 . S
C215 C212 1.461 . S
C215 C214 1.474 . S
C216 C211 1.342 . S
C216 C214 1.285 . S
C216 H235 0.930 . S
C217 C220 1.424 . S
C217 C222 1.245 . S
C217 C223 1.428 1_554 S
C218 C221 1.260 . S
C218 C222 1.477 . S
C218 H236 0.932 . S
C219 C220 1.384 . S
C219 C221 1.479 . S
C219 H237 0.929 . S
C220 C217 1.424 . S
C220 C219 1.384 . S
C220 H238 0.928 . S
C221 C218 1.260 . S
C221 C219 1.479 . S
C222 C217 1.245 . S
C222 C218 1.477 . S
C222 H239 0.932 1_554 S
C223 U206 2.882 . S
C223 C217 1.428 1_556 S
C223 O226 1.301 . S
C223 O227 1.282 . S
O224 U206 2.441 . S
O224 C210 1.249 . S
O225 U206 2.420 . S
O225 C210 1.202 . S
O226 U206 2.455 . S
O226 C223 1.301 . S
O227 U206 2.449 . S
O227 C223 1.282 . S
H228 C201 0.931 . S
H229 C203 0.929 . S
H230 C204 0.930 . S
H231 C205 0.931 . S
H232 C212 0.932 . S
H233 C213 0.930 . S
H234 C214 0.929 . S
H235 C216 0.930 . S
H236 C218 0.932 . S
H237 C219 0.929 . S
H238 C220 0.928 . S
H239 C222 0.932 1_556 S
C240 C241 1.264 . S
C240 C245 1.479 . S
C240 C250 1.465 . S
C241 C240 1.264 . S
C241 C243 1.339 . S
C241 H268 0.931 . S
C242 C243 1.395 . S
C242 C244 1.320 . S
C243 C241 1.339 . S
C243 C242 1.395 . S
C243 H269 0.929 . S
C244 C242 1.320 . S
C244 C245 1.405 . S
C244 H270 0.930 . S
C245 C240 1.479 . S
C245 C244 1.405 . S
C245 H271 0.931 . S
U246 O247 2.454 . S
U246 O248 2.458 . S
U246 C249 2.984 . S
U246 C250 2.847 . S
U246 C263 2.882 . S
U246 O264 2.441 . S
U246 O265 2.420 . S
U246 O266 2.455 . S
U246 O267 2.449 . S
O247 U246 2.454 . S
O247 C249 1.353 . S
O248 U246 2.458 . S
O248 C249 1.286 . S
C249 U246 2.984 . S
C249 O247 1.353 . S
C249 O248 1.286 . S
C249 C251 1.363 . S
C250 C240 1.465 . S
C250 U246 2.847 . S
C250 O264 1.249 . S
C250 O265 1.202 . S
C251 C249 1.363 . S
C251 C253 1.408 . S
C251 C256 1.342 . S
C252 C253 1.310 . S
C252 C255 1.461 . S
C252 H272 0.932 . S
C253 C251 1.408 . S
C253 C252 1.310 . S
C253 H273 0.930 . S
C254 C255 1.474 . S
C254 C256 1.285 . S
C254 H274 0.929 . S
C255 C252 1.461 . S
C255 C254 1.474 . S
C256 C251 1.342 . S
C256 C254 1.285 . S
C256 H275 0.930 . S
C257 C260 1.424 . S
C257 C262 1.245 . S
C257 C263 1.428 . S
C258 C261 1.260 . S
C258 C262 1.477 . S
C258 H276 0.932 . S
C259 C260 1.384 . S
C259 C261 1.479 . S
C259 H277 0.929 . S
C260 C257 1.424 . S
C260 C259 1.384 . S
C260 H278 0.928 . S
C261 C258 1.260 . S
C261 C259 1.479 . S
C262 C257 1.245 . S
C262 C258 1.477 . S
C262 H279 0.932 . S
C263 U246 2.882 . S
C263 C257 1.428 . S
C263 O266 1.301 . S
C263 O267 1.282 . S
O264 U246 2.441 . S
O264 C250 1.249 . S
O265 U246 2.420 . S
O265 C250 1.202 . S
O266 U246 2.455 . S
O266 C263 1.301 . S
O267 U246 2.449 . S
O267 C263 1.282 . S
H268 C241 0.931 . S
H269 C243 0.929 . S
H270 C244 0.930 . S
H271 C245 0.931 . S
H272 C252 0.932 . S
H273 C253 0.930 . S
H274 C254 0.929 . S
H275 C256 0.930 . S
H276 C258 0.932 . S
H277 C259 0.929 . S
H278 C260 0.928 . S
H279 C262 0.932 . S
C280 C281 1.264 . S
C280 C285 1.479 . S
C280 C290 1.465 . S
C281 C280 1.264 . S
C281 C283 1.339 . S
C281 H308 0.931 . S
C282 C283 1.395 . S
C282 C284 1.320 . S
C283 C281 1.339 . S
C283 C282 1.395 . S
C283 H309 0.929 . S
C284 C282 1.320 . S
C284 C285 1.405 . S
C284 H310 0.930 . S
C285 C280 1.479 . S
C285 C284 1.405 . S
C285 H311 0.931 . S
U286 O287 2.454 . S
U286 O288 2.458 . S
U286 C289 2.984 . S
U286 C290 2.847 . S
U286 C303 2.882 . S
U286 O304 2.441 . S
U286 O305 2.420 . S
U286 O306 2.455 . S
U286 O307 2.449 . S
O287 U286 2.454 . S
O287 C289 1.353 . S
O288 U286 2.458 . S
O288 C289 1.286 . S
C289 U286 2.984 . S
C289 O287 1.353 . S
C289 O288 1.286 . S
C289 C291 1.363 . S
C290 C280 1.465 . S
C290 U286 2.847 . S
C290 O304 1.249 . S
C290 O305 1.202 . S
C291 C289 1.363 . S
C291 C293 1.408 . S
C291 C296 1.342 . S
C292 C293 1.310 . S
C292 C295 1.461 . S
C292 H312 0.932 . S
C293 C291 1.408 . S
C293 C292 1.310 . S
C293 H313 0.930 . S
C294 C295 1.474 . S
C294 C296 1.285 . S
C294 H314 0.929 . S
C295 C292 1.461 . S
C295 C294 1.474 . S
C296 C291 1.342 . S
C296 C294 1.285 . S
C296 H315 0.930 . S
C297 C300 1.424 . S
C297 C302 1.245 . S
C297 C303 1.428 . S
C298 C301 1.260 . S
C298 C302 1.477 . S
C298 H316 0.932 . S
C299 C300 1.384 . S
C299 C301 1.479 . S
C299 H317 0.929 . S
C300 C297 1.424 . S
C300 C299 1.384 . S
C300 H318 0.928 . S
C301 C298 1.260 . S
C301 C299 1.479 . S
C302 C297 1.245 . S
C302 C298 1.477 . S
C302 H319 0.932 . S
C303 U286 2.882 . S
C303 C297 1.428 . S
C303 O306 1.301 . S
C303 O307 1.282 . S
O304 U286 2.441 . S
O304 C290 1.249 . S
O305 U286 2.420 . S
O305 C290 1.202 . S
O306 U286 2.455 . S
O306 C303 1.301 . S
O307 U286 2.449 . S
O307 C303 1.282 . S
H308 C281 0.931 . S
H309 C283 0.929 . S
H310 C284 0.930 . S
H311 C285 0.931 . S
H312 C292 0.932 . S
H313 C293 0.930 . S
H314 C294 0.929 . S
H315 C296 0.930 . S
H316 C298 0.932 . S
H317 C299 0.929 . S
H318 C300 0.928 . S
H319 C302 0.932 . S
C320 C321 1.264 . S
C320 C325 1.479 . S
C320 C330 1.465 . S
C321 C320 1.264 . S
C321 C323 1.339 . S
C321 H348 0.931 . S
C322 C323 1.395 . S
C322 C324 1.320 . S
C323 C321 1.339 . S
C323 C322 1.395 . S
C323 H349 0.929 . S
C324 C322 1.320 . S
C324 C325 1.405 . S
C324 H350 0.930 . S
C325 C320 1.479 . S
C325 C324 1.405 . S
C325 H351 0.931 . S
U326 O327 2.454 . S
U326 O328 2.458 . S
U326 C329 2.984 . S
U326 C330 2.847 . S
U326 C343 2.882 . S
U326 O344 2.441 . S
U326 O345 2.420 . S
U326 O346 2.455 . S
U326 O347 2.449 . S
O327 U326 2.454 . S
O327 C329 1.353 . S
O328 U326 2.458 . S
O328 C329 1.286 . S
C329 U326 2.984 . S
C329 O327 1.353 . S
C329 O328 1.286 . S
C329 C331 1.363 . S
C330 C320 1.465 . S
C330 U326 2.847 . S
C330 O344 1.249 . S
C330 O345 1.202 . S
C331 C329 1.363 . S
C331 C333 1.408 . S
C331 C336 1.342 . S
C332 C333 1.310 . S
C332 C335 1.461 . S
C332 H352 0.932 . S
C333 C331 1.408 . S
C333 C332 1.310 . S
C333 H353 0.930 . S
C334 C335 1.474 . S
C334 C336 1.285 . S
C334 H354 0.929 . S
C335 C332 1.461 . S
C335 C334 1.474 . S
C336 C331 1.342 . S
C336 C334 1.285 . S
C336 H355 0.930 . S
C337 C340 1.424 . S
C337 C342 1.245 . S
C337 C343 1.428 1_556 S
C338 C341 1.260 . S
C338 C342 1.477 . S
C338 H356 0.932 . S
C339 C340 1.384 . S
C339 C341 1.479 . S
C339 H357 0.929 . S
C340 C337 1.424 . S
C340 C339 1.384 . S
C340 H358 0.928 . S
C341 C338 1.260 . S
C341 C339 1.479 . S
C342 C337 1.245 . S
C342 C338 1.477 . S
C342 H359 0.932 1_556 S
C343 U326 2.882 . S
C343 C337 1.428 1_554 S
C343 O346 1.301 . S
C343 O347 1.282 . S
O344 U326 2.441 . S
O344 C330 1.249 . S
O345 U326 2.420 . S
O345 C330 1.202 . S
O346 U326 2.455 . S
O346 C343 1.301 . S
O347 U326 2.449 . S
O347 C343 1.282 . S
H348 C321 0.931 . S
H349 C323 0.929 . S
H350 C324 0.930 . S
H351 C325 0.931 . S
H352 C332 0.932 . S
H353 C333 0.930 . S
H354 C334 0.929 . S
H355 C336 0.930 . S
H356 C338 0.932 . S
H357 C339 0.929 . S
H358 C340 0.928 . S
H359 C342 0.932 1_554 S
C360 C361 1.264 . S
C360 C365 1.479 . S
C360 C370 1.465 . S
C361 C360 1.264 . S
C361 C363 1.339 . S
C361 H388 0.931 . S
C362 C363 1.395 . S
C362 C364 1.320 . S
C363 C361 1.339 . S
C363 C362 1.395 . S
C363 H389 0.929 . S
C364 C362 1.320 . S
C364 C365 1.405 . S
C364 H390 0.930 . S
C365 C360 1.479 . S
C365 C364 1.405 . S
C365 H391 0.931 . S
U366 O367 2.454 . S
U366 O368 2.458 . S
U366 C369 2.984 . S
U366 C370 2.847 . S
U366 C383 2.882 . S
U366 O384 2.441 . S
U366 O385 2.420 . S
U366 O386 2.455 . S
U366 O387 2.449 . S
O367 U366 2.454 . S
O367 C369 1.353 . S
O368 U366 2.458 . S
O368 C369 1.286 . S
C369 U366 2.984 . S
C369 O367 1.353 . S
C369 O368 1.286 . S
C369 C371 1.363 . S
C370 C360 1.465 . S
C370 U366 2.847 . S
C370 O384 1.249 . S
C370 O385 1.202 . S
C371 C369 1.363 . S
C371 C373 1.408 . S
C371 C376 1.342 . S
C372 C373 1.310 . S
C372 C375 1.461 . S
C372 H392 0.932 . S
C373 C371 1.408 . S
C373 C372 1.310 . S
C373 H393 0.930 . S
C374 C375 1.474 . S
C374 C376 1.285 . S
C374 H394 0.929 . S
C375 C372 1.461 . S
C375 C374 1.474 . S
C376 C371 1.342 . S
C376 C374 1.285 . S
C376 H395 0.930 . S
C377 C380 1.424 . S
C377 C382 1.245 . S
C377 C383 1.428 . S
C378 C381 1.260 . S
C378 C382 1.477 . S
C378 H396 0.932 . S
C379 C380 1.384 . S
C379 C381 1.479 . S
C379 H397 0.929 . S
C380 C377 1.424 . S
C380 C379 1.384 . S
C380 H398 0.928 . S
C381 C378 1.260 . S
C381 C379 1.479 . S
C382 C377 1.245 . S
C382 C378 1.477 . S
C382 H399 0.932 . S
C383 U366 2.882 . S
C383 C377 1.428 . S
C383 O386 1.301 . S
C383 O387 1.282 . S
O384 U366 2.441 . S
O384 C370 1.249 . S
O385 U366 2.420 . S
O385 C370 1.202 . S
O386 U366 2.455 . S
O386 C383 1.301 . S
O387 U366 2.449 . S
O387 C383 1.282 . S
H388 C361 0.931 . S
H389 C363 0.929 . S
H390 C364 0.930 . S
H391 C365 0.931 . S
H392 C372 0.932 . S
H393 C373 0.930 . S
H394 C374 0.929 . S
H395 C376 0.930 . S
H396 C378 0.932 . S
H397 C379 0.929 . S
H398 C380 0.928 . S
H399 C382 0.932 . S
C400 C401 1.264 . S
C400 C405 1.479 . S
C400 C410 1.465 . S
C401 C400 1.264 . S
C401 C403 1.339 . S
C401 H428 0.931 . S
C402 C403 1.395 . S
C402 C404 1.320 . S
C403 C401 1.339 . S
C403 C402 1.395 . S
C403 H429 0.929 . S
C404 C402 1.320 . S
C404 C405 1.405 . S
C404 H430 0.930 . S
C405 C400 1.479 . S
C405 C404 1.405 . S
C405 H431 0.931 . S
U406 O407 2.454 . S
U406 O408 2.458 . S
U406 C409 2.984 . S
U406 C410 2.847 . S
U406 C423 2.882 . S
U406 O424 2.441 . S
U406 O425 2.420 . S
U406 O426 2.455 . S
U406 O427 2.449 . S
O407 U406 2.454 . S
O407 C409 1.353 . S
O408 U406 2.458 . S
O408 C409 1.286 . S
C409 U406 2.984 . S
C409 O407 1.353 . S
C409 O408 1.286 . S
C409 C411 1.363 . S
C410 C400 1.465 . S
C410 U406 2.847 . S
C410 O424 1.249 . S
C410 O425 1.202 . S
C411 C409 1.363 . S
C411 C413 1.408 . S
C411 C416 1.342 . S
C412 C413 1.310 . S
C412 C415 1.461 . S
C412 H432 0.932 . S
C413 C411 1.408 . S
C413 C412 1.310 . S
C413 H433 0.930 . S
C414 C415 1.474 . S
C414 C416 1.285 . S
C414 H434 0.929 . S
C415 C412 1.461 . S
C415 C414 1.474 . S
C416 C411 1.342 . S
C416 C414 1.285 . S
C416 H435 0.930 . S
C417 C420 1.424 . S
C417 C422 1.245 . S
C417 C423 1.428 . S
C418 C421 1.260 . S
C418 C422 1.477 . S
C418 H436 0.932 . S
C419 C420 1.384 . S
C419 C421 1.479 . S
C419 H437 0.929 . S
C420 C417 1.424 . S
C420 C419 1.384 . S
C420 H438 0.928 . S
C421 C418 1.260 . S
C421 C419 1.479 . S
C422 C417 1.245 . S
C422 C418 1.477 . S
C422 H439 0.932 . S
C423 U406 2.882 . S
C423 C417 1.428 . S
C423 O426 1.301 . S
C423 O427 1.282 . S
O424 U406 2.441 . S
O424 C410 1.249 . S
O425 U406 2.420 . S
O425 C410 1.202 . S
O426 U406 2.455 . S
O426 C423 1.301 . S
O427 U406 2.449 . S
O427 C423 1.282 . S
H428 C401 0.931 . S
H429 C403 0.929 . S
H430 C404 0.930 . S
H431 C405 0.931 . S
H432 C412 0.932 . S
H433 C413 0.930 . S
H434 C414 0.929 . S
H435 C416 0.930 . S
H436 C418 0.932 . S
H437 C419 0.929 . S
H438 C420 0.928 . S
H439 C422 0.932 . S
C440 C441 1.264 . S
C440 C445 1.479 . S
C440 C450 1.465 . S
C441 C440 1.264 . S
C441 C443 1.339 . S
C441 H468 0.931 . S
C442 C443 1.395 . S
C442 C444 1.320 . S
C443 C441 1.339 . S
C443 C442 1.395 . S
C443 H469 0.929 . S
C444 C442 1.320 . S
C444 C445 1.405 . S
C444 H470 0.930 . S
C445 C440 1.479 . S
C445 C444 1.405 . S
C445 H471 0.931 . S
U446 O447 2.454 . S
U446 O448 2.458 . S
U446 C449 2.984 . S
U446 C450 2.847 . S
U446 C463 2.882 . S
U446 O464 2.441 . S
U446 O465 2.420 . S
U446 O466 2.455 . S
U446 O467 2.449 . S
O447 U446 2.454 . S
O447 C449 1.353 . S
O448 U446 2.458 . S
O448 C449 1.286 . S
C449 U446 2.984 . S
C449 O447 1.353 . S
C449 O448 1.286 . S
C449 C451 1.363 . S
C450 C440 1.465 . S
C450 U446 2.847 . S
C450 O464 1.249 . S
C450 O465 1.202 . S
C451 C449 1.363 . S
C451 C453 1.408 . S
C451 C456 1.342 . S
C452 C453 1.310 . S
C452 C455 1.461 . S
C452 H472 0.932 . S
C453 C451 1.408 . S
C453 C452 1.310 . S
C453 H473 0.930 . S
C454 C455 1.474 . S
C454 C456 1.285 . S
C454 H474 0.929 . S
C455 C452 1.461 . S
C455 C454 1.474 . S
C456 C451 1.342 . S
C456 C454 1.285 . S
C456 H475 0.930 . S
C457 C460 1.424 . S
C457 C462 1.245 . S
C457 C463 1.428 . S
C458 C461 1.260 . S
C458 C462 1.477 . S
C458 H476 0.932 . S
C459 C460 1.384 . S
C459 C461 1.479 . S
C459 H477 0.929 . S
C460 C457 1.424 . S
C460 C459 1.384 . S
C460 H478 0.928 . S
C461 C458 1.260 . S
C461 C459 1.479 . S
C462 C457 1.245 . S
C462 C458 1.477 . S
C462 H479 0.932 . S
C463 U446 2.882 . S
C463 C457 1.428 . S
C463 O466 1.301 . S
C463 O467 1.282 . S
O464 U446 2.441 . S
O464 C450 1.249 . S
O465 U446 2.420 . S
O465 C450 1.202 . S
O466 U446 2.455 . S
O466 C463 1.301 . S
O467 U446 2.449 . S
O467 C463 1.282 . S
H468 C441 0.931 . S
H469 C443 0.929 . S
H470 C444 0.930 . S
H471 C445 0.931 . S
H472 C452 0.932 . S
H473 C453 0.930 . S
H474 C454 0.929 . S
H475 C456 0.930 . S
H476 C458 0.932 . S
H477 C459 0.929 . S
H478 C460 0.928 . S
H479 C462 0.932 . S
H480 C488 0.950 . S
H481 C493 0.950 . S
H482 C490 0.950 . S
H483 C492 0.950 . S
H484 C494 0.950 . S
H485 C496 0.950 . S
H486 C498 0.950 . S
H487 C499 0.950 . S
C488 H480 0.950 . S
C488 C489 1.386 . S
C488 C490 1.391 . S
C489 C488 1.386 . S
C489 C493 1.393 . S
C490 H482 0.950 . S
C490 C488 1.391 . S
C490 C491 1.400 . S
C491 C490 1.400 . S
C491 C492 1.398 . S
C491 C497 1.491 . S
C492 H483 0.950 . S
C492 C491 1.398 . S
C492 C493 1.391 . S
C493 H481 0.950 . S
C493 C489 1.393 . S
C493 C492 1.391 . S
C494 H484 0.950 . S
C494 C495 1.386 . S
C494 C496 1.391 . S
C495 C494 1.386 . S
C495 C499 1.393 . S
C496 H485 0.950 . S
C496 C494 1.391 . S
C496 C497 1.400 . S
C497 C491 1.491 . S
C497 C496 1.400 . S
C497 C498 1.398 . S
C498 H486 0.950 . S
C498 C497 1.398 . S
C498 C499 1.391 . S
C499 H487 0.950 . S
C499 C495 1.393 . S
C499 C498 1.391 . S
H500 C508 0.950 . S
H501 C513 0.950 . S
H502 C510 0.950 . S
H503 C512 0.950 . S
H504 C514 0.950 . S
H505 C516 0.950 . S
H506 C518 0.950 . S
H507 C519 0.950 . S
C508 H500 0.950 . S
C508 C509 1.386 . S
C508 C510 1.391 . S
C509 C508 1.386 . S
C509 C513 1.393 . S
C510 H502 0.950 . S
C510 C508 1.391 . S
C510 C511 1.400 . S
C511 C510 1.400 . S
C511 C512 1.398 . S
C511 C517 1.491 . S
C512 H503 0.950 . S
C512 C511 1.398 . S
C512 C513 1.391 . S
C513 H501 0.950 . S
C513 C509 1.393 . S
C513 C512 1.391 . S
C514 H504 0.950 . S
C514 C515 1.386 . S
C514 C516 1.391 . S
C515 C514 1.386 . S
C515 C519 1.393 . S
C516 H505 0.950 . S
C516 C514 1.391 . S
C516 C517 1.400 . S
C517 C511 1.491 . S
C517 C516 1.400 . S
C517 C518 1.398 . S
C518 H506 0.950 . S
C518 C517 1.398 . S
C518 C519 1.391 . S
C519 H507 0.950 . S
C519 C515 1.393 . S
C519 C518 1.391 . S
H520 C528 0.950 . S
H521 C533 0.950 . S
H522 C530 0.950 . S
H523 C532 0.950 . S
H524 C534 0.950 . S
H525 C536 0.950 . S
H526 C538 0.950 . S
H527 C539 0.950 . S
C528 H520 0.950 . S
C528 C529 1.386 . S
C528 C530 1.391 . S
C529 C528 1.386 . S
C529 C533 1.393 . S
C530 H522 0.950 . S
C530 C528 1.391 . S
C530 C531 1.400 . S
C531 C530 1.400 . S
C531 C532 1.398 . S
C531 C537 1.491 . S
C532 H523 0.950 . S
C532 C531 1.398 . S
C532 C533 1.391 . S
C533 H521 0.950 . S
C533 C529 1.393 . S
C533 C532 1.391 . S
C534 H524 0.950 . S
C534 C535 1.386 . S
C534 C536 1.391 . S
C535 C534 1.386 . S
C535 C539 1.393 . S
C536 H525 0.950 . S
C536 C534 1.391 . S
C536 C537 1.400 . S
C537 C531 1.491 . S
C537 C536 1.400 . S
C537 C538 1.398 . S
C538 H526 0.950 . S
C538 C537 1.398 . S
C538 C539 1.391 . S
C539 H527 0.950 . S
C539 C535 1.393 . S
C539 C538 1.391 . S
H540 C548 0.950 . S
H541 C553 0.950 . S
H542 C550 0.950 . S
H543 C552 0.950 . S
H544 C554 0.950 . S
H545 C556 0.950 . S
H546 C558 0.950 . S
H547 C559 0.950 . S
C548 H540 0.950 . S
C548 C549 1.386 . S
C548 C550 1.391 . S
C549 C548 1.386 . S
C549 C553 1.393 . S
C550 H542 0.950 . S
C550 C548 1.391 . S
C550 C551 1.400 . S
C551 C550 1.400 . S
C551 C552 1.398 . S
C551 C557 1.491 . S
C552 H543 0.950 . S
C552 C551 1.398 . S
C552 C553 1.391 . S
C553 H541 0.950 . S
C553 C549 1.393 . S
C553 C552 1.391 . S
C554 H544 0.950 . S
C554 C555 1.386 . S
C554 C556 1.391 . S
C555 C554 1.386 . S
C555 C559 1.393 . S
C556 H545 0.950 . S
C556 C554 1.391 . S
C556 C557 1.400 . S
C557 C551 1.491 . S
C557 C556 1.400 . S
C557 C558 1.398 . S
C558 H546 0.950 . S
C558 C557 1.398 . S
C558 C559 1.391 . S
C559 H547 0.950 . S
C559 C555 1.393 . S
C559 C558 1.391 . S
H560 C568 0.950 . S
H561 C573 0.950 . S
H562 C570 0.950 . S
H563 C572 0.950 . S
H564 C574 0.950 . S
H565 C576 0.950 . S
H566 C578 0.950 . S
H567 C579 0.950 . S
C568 H560 0.950 . S
C568 C569 1.386 . S
C568 C570 1.391 . S
C569 C568 1.386 . S
C569 C573 1.393 . S
C570 H562 0.950 . S
C570 C568 1.391 . S
C570 C571 1.400 . S
C571 C570 1.400 . S
C571 C572 1.398 . S
C571 C577 1.491 . S
C572 H563 0.950 . S
C572 C571 1.398 . S
C572 C573 1.391 . S
C573 H561 0.950 . S
C573 C569 1.393 . S
C573 C572 1.391 . S
C574 H564 0.950 . S
C574 C575 1.386 . S
C574 C576 1.391 . S
C575 C574 1.386 . S
C575 C579 1.393 . S
C576 H565 0.950 . S
C576 C574 1.391 . S
C576 C577 1.400 . S
C577 C571 1.491 . S
C577 C576 1.400 . S
C577 C578 1.398 . S
C578 H566 0.950 . S
C578 C577 1.398 . S
C578 C579 1.391 . S
C579 H567 0.950 . S
C579 C575 1.393 . S
C579 C578 1.391 . S
H580 C588 0.950 . S
H581 C593 0.950 . S
H582 C590 0.950 . S
H583 C592 0.950 . S
H584 C594 0.950 . S
H585 C596 0.950 . S
H586 C598 0.950 . S
H587 C599 0.950 . S
C588 H580 0.950 . S
C588 C589 1.386 . S
C588 C590 1.391 . S
C589 C588 1.386 . S
C589 C593 1.393 . S
C590 H582 0.950 . S
C590 C588 1.391 . S
C590 C591 1.400 . S
C591 C590 1.400 . S
C591 C592 1.398 . S
C591 C597 1.491 . S
C592 H583 0.950 . S
C592 C591 1.398 . S
C592 C593 1.391 . S
C593 H581 0.950 . S
C593 C589 1.393 . S
C593 C592 1.391 . S
C594 H584 0.950 . S
C594 C595 1.386 . S
C594 C596 1.391 . S
C595 C594 1.386 . S
C595 C599 1.393 . S
C596 H585 0.950 . S
C596 C594 1.391 . S
C596 C597 1.400 . S
C597 C591 1.491 . S
C597 C596 1.400 . S
C597 C598 1.398 . S
C598 H586 0.950 . S
C598 C597 1.398 . S
C598 C599 1.391 . S
C599 H587 0.950 . S
C599 C595 1.393 . S
C599 C598 1.391 . S
H600 C608 0.950 . S
H601 C613 0.950 . S
H602 C610 0.950 . S
H603 C612 0.950 . S
H604 C614 0.950 . S
H605 C616 0.950 . S
H606 C618 0.950 . S
H607 C619 0.950 . S
C608 H600 0.950 . S
C608 C609 1.386 . S
C608 C610 1.391 . S
C609 C608 1.386 . S
C609 C613 1.393 . S
C610 H602 0.950 . S
C610 C608 1.391 . S
C610 C611 1.400 . S
C611 C610 1.400 . S
C611 C612 1.398 . S
C611 C617 1.491 . S
C612 H603 0.950 . S
C612 C611 1.398 . S
C612 C613 1.391 . S
C613 H601 0.950 . S
C613 C609 1.393 . S
C613 C612 1.391 . S
C614 H604 0.950 . S
C614 C615 1.386 . S
C614 C616 1.391 . S
C615 C614 1.386 . S
C615 C619 1.393 . S
C616 H605 0.950 . S
C616 C614 1.391 . S
C616 C617 1.400 . S
C617 C611 1.491 . S
C617 C616 1.400 . S
C617 C618 1.398 . S
C618 H606 0.950 . S
C618 C617 1.398 . S
C618 C619 1.391 . S
C619 H607 0.950 . S
C619 C615 1.393 . S
C619 C618 1.391 . S
H620 C628 0.950 . S
H621 C633 0.950 . S
H622 C630 0.950 . S
H623 C632 0.950 . S
H624 C634 0.950 . S
H625 C636 0.950 . S
H626 C638 0.950 . S
H627 C639 0.950 . S
C628 H620 0.950 . S
C628 C629 1.386 . S
C628 C630 1.391 . S
C629 C628 1.386 . S
C629 C633 1.393 . S
C630 H622 0.950 . S
C630 C628 1.391 . S
C630 C631 1.400 . S
C631 C630 1.400 . S
C631 C632 1.398 . S
C631 C637 1.491 . S
C632 H623 0.950 . S
C632 C631 1.398 . S
C632 C633 1.391 . S
C633 H621 0.950 . S
C633 C629 1.393 . S
C633 C632 1.391 . S
C634 H624 0.950 . S
C634 C635 1.386 . S
C634 C636 1.391 . S
C635 C634 1.386 . S
C635 C639 1.393 . S
C636 H625 0.950 . S
C636 C634 1.391 . S
C636 C637 1.400 . S
C637 C631 1.491 . S
C637 C636 1.400 . S
C637 C638 1.398 . S
C638 H626 0.950 . S
C638 C637 1.398 . S
C638 C639 1.391 . S
C639 H627 0.950 . S
C639 C635 1.393 . S
C639 C638 1.391 . S
H640 C648 0.950 . S
H641 C653 0.950 . S
H642 C650 0.950 . S
H643 C652 0.950 . S
H644 C654 0.950 . S
H645 C656 0.950 . S
H646 C658 0.950 . S
H647 C659 0.950 . S
C648 H640 0.950 . S
C648 C649 1.386 . S
C648 C650 1.391 . S
C649 C648 1.386 . S
C649 C653 1.393 . S
C650 H642 0.950 . S
C650 C648 1.391 . S
C650 C651 1.400 . S
C651 C650 1.400 . S
C651 C652 1.398 . S
C651 C657 1.491 . S
C652 H643 0.950 . S
C652 C651 1.398 . S
C652 C653 1.391 . S
C653 H641 0.950 . S
C653 C649 1.393 . S
C653 C652 1.391 . S
C654 H644 0.950 . S
C654 C655 1.386 . S
C654 C656 1.391 . S
C655 C654 1.386 . S
C655 C659 1.393 . S
C656 H645 0.950 . S
C656 C654 1.391 . S
C656 C657 1.400 . S
C657 C651 1.491 . S
C657 C656 1.400 . S
C657 C658 1.398 . S
C658 H646 0.950 . S
C658 C657 1.398 . S
C658 C659 1.391 . S
C659 H647 0.950 . S
C659 C655 1.393 . S
C659 C658 1.391 . S
H660 C668 0.950 . S
H661 C673 0.950 . S
H662 C670 0.950 . S
H663 C672 0.950 . S
H664 C674 0.950 . S
H665 C676 0.950 . S
H666 C678 0.950 . S
H667 C679 0.950 . S
C668 H660 0.950 . S
C668 C669 1.386 . S
C668 C670 1.391 . S
C669 C668 1.386 . S
C669 C673 1.393 . S
C670 H662 0.950 . S
C670 C668 1.391 . S
C670 C671 1.400 . S
C671 C670 1.400 . S
C671 C672 1.398 . S
C671 C677 1.491 . S
C672 H663 0.950 . S
C672 C671 1.398 . S
C672 C673 1.391 . S
C673 H661 0.950 . S
C673 C669 1.393 . S
C673 C672 1.391 . S
C674 H664 0.950 . S
C674 C675 1.386 . S
C674 C676 1.391 . S
C675 C674 1.386 . S
C675 C679 1.393 . S
C676 H665 0.950 . S
C676 C674 1.391 . S
C676 C677 1.400 . S
C677 C671 1.491 . S
C677 C676 1.400 . S
C677 C678 1.398 . S
C678 H666 0.950 . S
C678 C677 1.398 . S
C678 C679 1.391 . S
C679 H667 0.950 . S
C679 C675 1.393 . S
C679 C678 1.391 . S
H680 C688 0.950 . S
H681 C693 0.950 . S
H682 C690 0.950 . S
H683 C692 0.950 . S
H684 C694 0.950 . S
H685 C696 0.950 . S
H686 C698 0.950 . S
H687 C699 0.950 . S
C688 H680 0.950 . S
C688 C689 1.386 . S
C688 C690 1.391 . S
C689 C688 1.386 . S
C689 C693 1.393 . S
C690 H682 0.950 . S
C690 C688 1.391 . S
C690 C691 1.400 . S
C691 C690 1.400 . S
C691 C692 1.398 . S
C691 C697 1.491 . S
C692 H683 0.950 . S
C692 C691 1.398 . S
C692 C693 1.391 . S
C693 H681 0.950 . S
C693 C689 1.393 . S
C693 C692 1.391 . S
C694 H684 0.950 . S
C694 C695 1.386 . S
C694 C696 1.391 . S
C695 C694 1.386 . S
C695 C699 1.393 . S
C696 H685 0.950 . S
C696 C694 1.391 . S
C696 C697 1.400 . S
C697 C691 1.491 . S
C697 C696 1.400 . S
C697 C698 1.398 . S
C698 H686 0.950 . S
C698 C697 1.398 . S
C698 C699 1.391 . S
C699 H687 0.950 . S
C699 C695 1.393 . S
C699 C698 1.391 . S
H700 C708 0.950 . S
H701 C713 0.950 . S
H702 C710 0.950 . S
H703 C712 0.950 . S
H704 C714 0.950 . S
H705 C716 0.950 . S
H706 C718 0.950 . S
H707 C719 0.950 . S
C708 H700 0.950 . S
C708 C709 1.386 . S
C708 C710 1.391 . S
C709 C708 1.386 . S
C709 C713 1.393 . S
C710 H702 0.950 . S
C710 C708 1.391 . S
C710 C711 1.400 . S
C711 C710 1.400 . S
C711 C712 1.398 . S
C711 C717 1.491 . S
C712 H703 0.950 . S
C712 C711 1.398 . S
C712 C713 1.391 . S
C713 H701 0.950 . S
C713 C709 1.393 . S
C713 C712 1.391 . S
C714 H704 0.950 . S
C714 C715 1.386 . S
C714 C716 1.391 . S
C715 C714 1.386 . S
C715 C719 1.393 . S
C716 H705 0.950 . S
C716 C714 1.391 . S
C716 C717 1.400 . S
C717 C711 1.491 . S
C717 C716 1.400 . S
C717 C718 1.398 . S
C718 H706 0.950 . S
C718 C717 1.398 . S
C718 C719 1.391 . S
C719 H707 0.950 . S
C719 C715 1.393 . S
C719 C718 1.391 . S
H720 C728 0.950 . S
H721 C733 0.950 . S
H722 C730 0.950 1_565 S
H723 C732 0.950 1_556 S
H724 C734 0.950 . S
H725 C736 0.950 1_545 S
H726 C738 0.950 1_554 S
H727 C739 0.950 . S
C728 H720 0.950 . S
C728 C729 1.386 . S
C728 C730 1.391 . S
C729 C728 1.386 . S
C729 C733 1.393 . S
C730 H722 0.950 1_545 S
C730 C728 1.391 . S
C730 C731 1.400 . S
C731 C730 1.400 . S
C731 C732 1.398 . S
C731 C737 1.491 1_544 S
C732 H723 0.950 1_554 S
C732 C731 1.398 . S
C732 C733 1.391 . S
C733 H721 0.950 . S
C733 C729 1.393 . S
C733 C732 1.391 . S
C734 H724 0.950 . S
C734 C735 1.386 . S
C734 C736 1.391 . S
C735 C734 1.386 . S
C735 C739 1.393 . S
C736 H725 0.950 1_565 S
C736 C734 1.391 . S
C736 C737 1.400 . S
C737 C731 1.491 1_566 S
C737 C736 1.400 . S
C737 C738 1.398 . S
C738 H726 0.950 1_556 S
C738 C737 1.398 . S
C738 C739 1.391 . S
C739 H727 0.950 . S
C739 C735 1.393 . S
C739 C738 1.391 . S
H740 C748 0.950 . S
H741 C753 0.950 . S
H742 C750 0.950 . S
H743 C752 0.950 . S
H744 C754 0.950 . S
H745 C756 0.950 . S
H746 C758 0.950 . S
H747 C759 0.950 . S
C748 H740 0.950 . S
C748 C749 1.386 . S
C748 C750 1.391 . S
C749 C748 1.386 . S
C749 C753 1.393 . S
C750 H742 0.950 . S
C750 C748 1.391 . S
C750 C751 1.400 . S
C751 C750 1.400 . S
C751 C752 1.398 . S
C751 C757 1.491 . S
C752 H743 0.950 . S
C752 C751 1.398 . S
C752 C753 1.391 . S
C753 H741 0.950 . S
C753 C749 1.393 . S
C753 C752 1.391 . S
C754 H744 0.950 . S
C754 C755 1.386 . S
C754 C756 1.391 . S
C755 C754 1.386 . S
C755 C759 1.393 . S
C756 H745 0.950 . S
C756 C754 1.391 . S
C756 C757 1.400 . S
C757 C751 1.491 . S
C757 C756 1.400 . S
C757 C758 1.398 . S
C758 H746 0.950 . S
C758 C757 1.398 . S
C758 C759 1.391 . S
C759 H747 0.950 . S
C759 C755 1.393 . S
C759 C758 1.391 . S
H760 C768 0.950 . S
H761 C773 0.950 . S
H762 C770 0.950 . S
H763 C772 0.950 . S
H764 C774 0.950 . S
H765 C776 0.950 . S
H766 C778 0.950 . S
H767 C779 0.950 . S
C768 H760 0.950 . S
C768 C769 1.386 . S
C768 C770 1.391 . S
C769 C768 1.386 . S
C769 C773 1.393 . S
C770 H762 0.950 . S
C770 C768 1.391 . S
C770 C771 1.400 . S
C771 C770 1.400 . S
C771 C772 1.398 . S
C771 C777 1.491 1_455 S
C772 H763 0.950 . S
C772 C771 1.398 . S
C772 C773 1.391 . S
C773 H761 0.950 . S
C773 C769 1.393 . S
C773 C772 1.391 . S
C774 H764 0.950 . S
C774 C775 1.386 . S
C774 C776 1.391 . S
C775 C774 1.386 . S
C775 C779 1.393 . S
C776 H765 0.950 . S
C776 C774 1.391 . S
C776 C777 1.400 . S
C777 C771 1.491 1_655 S
C777 C776 1.400 . S
C777 C778 1.398 . S
C778 H766 0.950 . S
C778 C777 1.398 . S
C778 C779 1.391 . S
C779 H767 0.950 . S
C779 C775 1.393 . S
C779 C778 1.391 . S
H780 C788 0.950 . S
H781 C793 0.950 . S
H782 C790 0.950 . S
H783 C792 0.950 . S
H784 C794 0.950 . S
H785 C796 0.950 . S
H786 C798 0.950 . S
H787 C799 0.950 . S
C788 H780 0.950 . S
C788 C789 1.386 . S
C788 C790 1.391 . S
C789 C788 1.386 . S
C789 C793 1.393 . S
C790 H782 0.950 . S
C790 C788 1.391 . S
C790 C791 1.400 . S
C791 C790 1.400 . S
C791 C792 1.398 . S
C791 C797 1.491 1_545 S
C792 H783 0.950 . S
C792 C791 1.398 . S
C792 C793 1.391 . S
C793 H781 0.950 . S
C793 C789 1.393 . S
C793 C792 1.391 . S
C794 H784 0.950 . S
C794 C795 1.386 . S
C794 C796 1.391 . S
C795 C794 1.386 . S
C795 C799 1.393 . S
C796 H785 0.950 . S
C796 C794 1.391 . S
C796 C797 1.400 . S
C797 C791 1.491 1_565 S
C797 C796 1.400 . S
C797 C798 1.398 . S
C798 H786 0.950 . S
C798 C797 1.398 . S
C798 C799 1.391 . S
C799 H787 0.950 . S
C799 C795 1.393 . S
C799 C798 1.391 . S
H800 C808 0.950 . S
H801 C813 0.950 . S
H802 C810 0.950 . S
H803 C812 0.950 . S
H804 C814 0.950 . S
H805 C816 0.950 . S
H806 C818 0.950 . S
H807 C819 0.950 . S
C808 H800 0.950 . S
C808 C809 1.386 . S
C808 C810 1.391 . S
C809 C808 1.386 . S
C809 C813 1.393 . S
C810 H802 0.950 . S
C810 C808 1.391 . S
C810 C811 1.400 . S
C811 C810 1.400 . S
C811 C812 1.398 . S
C811 C817 1.491 . S
C812 H803 0.950 . S
C812 C811 1.398 . S
C812 C813 1.391 . S
C813 H801 0.950 . S
C813 C809 1.393 . S
C813 C812 1.391 . S
C814 H804 0.950 . S
C814 C815 1.386 . S
C814 C816 1.391 . S
C815 C814 1.386 . S
C815 C819 1.393 . S
C816 H805 0.950 . S
C816 C814 1.391 . S
C816 C817 1.400 . S
C817 C811 1.491 . S
C817 C816 1.400 . S
C817 C818 1.398 . S
C818 H806 0.950 . S
C818 C817 1.398 . S
C818 C819 1.391 . S
C819 H807 0.950 . S
C819 C815 1.393 . S
C819 C818 1.391 . S
H820 C828 0.950 . S
H821 C833 0.950 . S
H822 C830 0.950 . S
H823 C832 0.950 1_455 S
H824 C834 0.950 . S
H825 C836 0.950 . S
H826 C838 0.950 1_655 S
H827 C839 0.950 . S
C828 H820 0.950 . S
C828 C829 1.386 . S
C828 C830 1.391 . S
C829 C828 1.386 . S
C829 C833 1.393 . S
C830 H822 0.950 . S
C830 C828 1.391 . S
C830 C831 1.400 . S
C831 C830 1.400 . S
C831 C832 1.398 . S
C831 C837 1.491 1_655 S
C832 H823 0.950 1_655 S
C832 C831 1.398 . S
C832 C833 1.391 . S
C833 H821 0.950 . S
C833 C829 1.393 . S
C833 C832 1.391 . S
C834 H824 0.950 . S
C834 C835 1.386 . S
C834 C836 1.391 . S
C835 C834 1.386 . S
C835 C839 1.393 . S
C836 H825 0.950 . S
C836 C834 1.391 . S
C836 C837 1.400 . S
C837 C831 1.491 1_455 S
C837 C836 1.400 . S
C837 C838 1.398 . S
C838 H826 0.950 1_455 S
C838 C837 1.398 . S
C838 C839 1.391 . S
C839 H827 0.950 . S
C839 C835 1.393 . S
C839 C838 1.391 . S
C489 C21 1.556 . S
C495 C421 1.555 . S
C509 C461 1.556 . S
C515 C61 1.556 . S
C529 C261 1.558 . S
C535 C101 1.556 . S
C549 C141 1.557 . S
C555 C301 1.556 . S
C569 C341 1.556 . S
C575 C181 1.556 . S
C589 C221 1.558 . S
C595 C381 1.557 . S
C609 C2 1.537 . S
C615 C322 1.531 . S
C629 C362 1.528 . S
C635 C42 1.535 . S
C649 C82 1.534 . S
C655 C402 1.532 . S
C669 C442 1.537 . S
C675 C122 1.528 . S
C689 C162 1.538 . S
C695 C242 1.528 . S
C709 C202 1.536 . S
C715 C282 1.528 . S
C729 C15 1.541 . S
C735 C295 1.540 . S
C749 C335 1.546 . S
C755 C55 1.547 . S
C769 C375 1.540 . S
C775 C95 1.540 . S
C789 C415 1.541 . S
C795 C135 1.541 . S
C809 C175 1.542 . S
C815 C455 1.543 . S
C829 C255 1.542 . S
C835 C215 1.543 . S
