# Generated by pormake.
# Topology umy, (4)-cn, num edge types: 1
# Building blocks:
#     Node 0, Type 0, BuildingBlock: AZAVOO_clean_sbu_0, # of connection points: 4
#     Node 1, Type 0, BuildingBlock: AZAVOO_clean_sbu_0, # of connection points: 4
#     Node 2, Type 0, BuildingBlock: AZAVOO_clean_sbu_0, # of connection points: 4
#     Node 3, Type 0, BuildingBlock: AZAVOO_clean_sbu_0, # of connection points: 4
#     Node 4, Type 0, BuildingBlock: AZAVOO_clean_sbu_0, # of connection points: 4
#     Node 5, Type 0, BuildingBlock: AZAVOO_clean_sbu_0, # of connection points: 4
#     Node 6, Type 0, BuildingBlock: AZAVOO_clean_sbu_0, # of connection points: 4
#     Node 7, Type 0, BuildingBlock: AZAVOO_clean_sbu_0, # of connection points: 4
#     Node 8, Type 0, BuildingBlock: AZAVOO_clean_sbu_0, # of connection points: 4
#     Node 9, Type 0, BuildingBlock: AZAVOO_clean_sbu_0, # of connection points: 4
#     Node 10, Type 0, BuildingBlock: AZAVOO_clean_sbu_0, # of connection points: 4
#     Node 11, Type 0, BuildingBlock: AZAVOO_clean_sbu_0, # of connection points: 4
#     Edge 12, Type (0, 0), BuildingBlock: XUDNAN_clean_linker_2, # of connection points: 2
#     Edge 13, Type (0, 0), BuildingBlock: XUDNAN_clean_linker_2, # of connection points: 2
#     Edge 14, Type (0, 0), BuildingBlock: XUDNAN_clean_linker_2, # of connection points: 2
#     Edge 15, Type (0, 0), BuildingBlock: XUDNAN_clean_linker_2, # of connection points: 2
#     Edge 16, Type (0, 0), BuildingBlock: XUDNAN_clean_linker_2, # of connection points: 2
#     Edge 17, Type (0, 0), BuildingBlock: XUDNAN_clean_linker_2, # of connection points: 2
#     Edge 18, Type (0, 0), BuildingBlock: XUDNAN_clean_linker_2, # of connection points: 2
#     Edge 19, Type (0, 0), BuildingBlock: XUDNAN_clean_linker_2, # of connection points: 2
#     Edge 20, Type (0, 0), BuildingBlock: XUDNAN_clean_linker_2, # of connection points: 2
#     Edge 21, Type (0, 0), BuildingBlock: XUDNAN_clean_linker_2, # of connection points: 2
#     Edge 22, Type (0, 0), BuildingBlock: XUDNAN_clean_linker_2, # of connection points: 2
#     Edge 23, Type (0, 0), BuildingBlock: XUDNAN_clean_linker_2, # of connection points: 2
#     Edge 24, Type (0, 0), BuildingBlock: XUDNAN_clean_linker_2, # of connection points: 2
#     Edge 25, Type (0, 0), BuildingBlock: XUDNAN_clean_linker_2, # of connection points: 2
#     Edge 26, Type (0, 0), BuildingBlock: XUDNAN_clean_linker_2, # of connection points: 2
#     Edge 27, Type (0, 0), BuildingBlock: XUDNAN_clean_linker_2, # of connection points: 2
#     Edge 28, Type (0, 0), BuildingBlock: XUDNAN_clean_linker_2, # of connection points: 2
#     Edge 29, Type (0, 0), BuildingBlock: XUDNAN_clean_linker_2, # of connection points: 2
#     Edge 30, Type (0, 0), BuildingBlock: XUDNAN_clean_linker_2, # of connection points: 2
#     Edge 31, Type (0, 0), BuildingBlock: XUDNAN_clean_linker_2, # of connection points: 2
#     Edge 32, Type (0, 0), BuildingBlock: XUDNAN_clean_linker_2, # of connection points: 2
#     Edge 33, Type (0, 0), BuildingBlock: XUDNAN_clean_linker_2, # of connection points: 2
#     Edge 34, Type (0, 0), BuildingBlock: XUDNAN_clean_linker_2, # of connection points: 2
#     Edge 35, Type (0, 0), BuildingBlock: XUDNAN_clean_linker_2, # of connection points: 2
# Relax obj value: 0.136
# Max RMSD: 0.150
# Mean RMSD: 0.150
data_MOF--net-umy--node1-AZAVOO_clean_sbu_0--edge1-XUDNAN_clean_linker_2
_symmetry_space_group_name_H-M    P1
_symmetry_Int_Tables_number       1
_symmetry_cell_setting            triclinic
loop_
_symmetry_equiv_pos_as_xyz
'x, y, z'
_cell_length_a     40.430433
_cell_length_b     40.47171
_cell_length_c     45.471686
_cell_angle_alpha  90.018662
_cell_angle_beta   90.013251
_cell_angle_gamma 120.19653
loop_
_atom_site_label
_atom_site_type_symbol
_atom_site_fract_x
_atom_site_fract_y
_atom_site_fract_z
_atom_type_partial_charge
Mg0 Mg 0.12645 0.3563 0.11523 0.0
O1 O 0.16139 0.3804 0.15733 0.0
O2 O 0.22089 0.42545 0.14509 0.0
Mg3 Mg 0.22557 0.42539 0.09482 0.0
C4 C 0.19522 0.40631 0.16426 0.0
C5 C 0.04582 0.33952 0.13764 0.0
O6 O 0.0509 0.36373 0.11651 0.0
O7 O 0.12721 0.41248 0.10778 0.0
O8 O 0.18711 0.45182 0.09251 0.0
O9 O 0.14205 0.31067 0.11322 0.0
O10 O 0.17522 0.36748 0.09241 0.0
C11 C 0.15324 0.44488 0.09814 0.0
C12 C 0.17168 0.33477 0.09819 0.0
O13 O 0.07135 0.33061 0.14234 0.0
Mg14 Mg 0.73805 0.11982 0.25191 0.0
O15 O 0.74976 0.13874 0.29982 0.0
O16 O 0.76789 0.20042 0.30441 0.0
Mg17 Mg 0.76498 0.2206 0.25781 0.0
C18 C 0.7604 0.16846 0.31554 0.0
C19 C 0.73068 0.05017 0.28591 0.0
O20 O 0.7655 0.07666 0.29333 0.0
O21 O 0.68066 0.11753 0.25497 0.0
O22 O 0.69977 0.17981 0.25717 0.0
O23 O 0.80018 0.14028 0.24363 0.0
O24 O 0.77339 0.17573 0.23775 0.0
C25 C 0.67328 0.1447 0.25634 0.0
C26 C 0.80369 0.17298 0.23687 0.0
O27 O 0.71184 0.05853 0.26801 0.0
Mg28 Mg 0.64471 0.75709 0.42647 0.0
O29 O 0.62485 0.77755 0.46619 0.0
O30 O 0.57578 0.78481 0.45255 0.0
Mg31 Mg 0.56617 0.77187 0.40335 0.0
C32 C 0.59881 0.78552 0.47209 0.0
C33 C 0.70184 0.76593 0.47596 0.0
O34 O 0.70525 0.79996 0.47689 0.0
O35 O 0.59146 0.69782 0.43138 0.0
O36 O 0.54599 0.70985 0.41585 0.0
O37 O 0.685 0.81742 0.41217 0.0
O38 O 0.62489 0.78311 0.39778 0.0
C39 C 0.55651 0.68697 0.42563 0.0
C40 C 0.65663 0.81509 0.39722 0.0
O41 O 0.67911 0.7416 0.45738 0.0
Mg42 Mg 0.86973 0.62075 0.5958 0.0
O43 O 0.83161 0.60697 0.63641 0.0
O44 O 0.77049 0.57959 0.62205 0.0
Mg45 Mg 0.77001 0.57895 0.57171 0.0
C46 C 0.796 0.59143 0.64213 0.0
C47 C 0.92854 0.65594 0.64579 0.0
O48 O 0.90754 0.67201 0.6494 0.0
O49 O 0.84937 0.55699 0.59072 0.0
O50 O 0.78954 0.53472 0.57461 0.0
O51 O 0.87488 0.6781 0.59239 0.0
O52 O 0.82966 0.62613 0.57062 0.0
C53 C 0.81719 0.52958 0.5818 0.0
C54 C 0.84392 0.6618 0.57678 0.0
O55 O 0.91976 0.63139 0.62539 0.0
Mg56 Mg 0.24157 0.87499 0.7491 0.0
O57 O 0.23326 0.85481 0.79693 0.0
O58 O 0.21759 0.79347 0.79912 0.0
Mg59 Mg 0.22164 0.77614 0.75183 0.0
C60 C 0.22406 0.82447 0.81149 0.0
C61 C 0.24125 0.94912 0.76044 0.0
O62 O 0.21123 0.92944 0.74354 0.0
O63 O 0.3013 0.88251 0.74992 0.0
O64 O 0.286 0.82117 0.75147 0.0
O65 O 0.17855 0.85046 0.74364 0.0
O66 O 0.2082 0.8185 0.73406 0.0
C67 C 0.31087 0.85687 0.75083 0.0
C68 C 0.17664 0.81892 0.73554 0.0
O69 O 0.2628 0.93547 0.7661 0.0
Mg70 Mg 0.33786 0.23348 0.91386 0.0
O71 O 0.35608 0.20529 0.94813 0.0
O72 O 0.3977 0.19009 0.92954 0.0
Mg73 Mg 0.40093 0.20403 0.88022 0.0
C74 C 0.37852 0.19205 0.95106 0.0
C75 C 0.32453 0.28556 0.96083 0.0
O76 O 0.34866 0.31553 0.94541 0.0
O77 O 0.39669 0.28661 0.91594 0.0
O78 O 0.43359 0.26811 0.89292 0.0
O79 O 0.28805 0.17827 0.90175 0.0
O80 O 0.34487 0.20192 0.88051 0.0
C81 C 0.42906 0.29363 0.90589 0.0
C82 C 0.30994 0.17431 0.88303 0.0
O83 O 0.31568 0.25226 0.95231 0.0
Mg84 Mg 0.64325 0.88073 0.73675 0.0
O85 O 0.62319 0.84566 0.69423 0.0
O86 O 0.57368 0.78792 0.70481 0.0
Mg87 Mg 0.56586 0.78402 0.75479 0.0
C88 C 0.59666 0.81258 0.68639 0.0
C89 C 0.70126 0.93448 0.69092 0.0
O90 O 0.70461 0.9039 0.6889 0.0
O91 O 0.58926 0.88634 0.73643 0.0
O92 O 0.5458 0.8273 0.75079 0.0
O93 O 0.68432 0.8598 0.74643 0.0
O94 O 0.62446 0.83131 0.7615 0.0
C95 C 0.55508 0.86149 0.7439 0.0
C96 C 0.65636 0.83164 0.76022 0.0
O97 O 0.67742 0.93449 0.70915 0.0
Mg98 Mg 0.74641 0.61862 0.91057 0.0
O99 O 0.75978 0.60172 0.86606 0.0
O100 O 0.77076 0.55332 0.87304 0.0
Mg101 Mg 0.77014 0.54361 0.92267 0.0
C102 C 0.76711 0.57657 0.85628 0.0
C103 C 0.73746 0.67366 0.86675 0.0
O104 O 0.77273 0.6831 0.86001 0.0
O105 O 0.68884 0.56322 0.91143 0.0
O106 O 0.70501 0.51895 0.92091 0.0
O107 O 0.80784 0.66232 0.91724 0.0
O108 O 0.7813 0.6021 0.93155 0.0
C109 C 0.67983 0.52861 0.91626 0.0
C110 C 0.81157 0.63529 0.92915 0.0
O111 O 0.71988 0.64893 0.88671 0.0
Mg112 Mg 0.1222 0.74549 0.07477 0.0
O113 O 0.15722 0.76941 0.03255 0.0
O114 O 0.21862 0.78947 0.04259 0.0
Mg115 Mg 0.22204 0.77469 0.09069 0.0
C116 C 0.1922 0.7848 0.02479 0.0
C117 C 0.05814 0.73622 0.02893 0.0
O118 O 0.08083 0.77294 0.02416 0.0
O119 O 0.12449 0.691 0.06965 0.0
O120 O 0.18542 0.71027 0.08077 0.0
O121 O 0.13639 0.80457 0.08932 0.0
O122 O 0.17016 0.77726 0.10045 0.0
C123 C 0.15168 0.6841 0.07357 0.0
C124 C 0.16595 0.80657 0.10218 0.0
O125 O 0.06745 0.7193 0.04789 0.0
Mg126 Mg 0.34801 0.13136 0.2224 0.0
O127 O 0.3652 0.15644 0.17618 0.0
O128 O 0.41636 0.21503 0.18038 0.0
Mg129 Mg 0.42551 0.23059 0.22938 0.0
C130 C 0.39213 0.18696 0.16484 0.0
C131 C 0.31912 0.04523 0.21235 0.0
O132 O 0.34167 0.05208 0.23513 0.0
O133 O 0.40268 0.1277 0.22567 0.0
O134 O 0.44721 0.18849 0.23442 0.0
O135 O 0.30604 0.15191 0.22709 0.0
O136 O 0.36683 0.18514 0.23992 0.0
C137 C 0.43707 0.15321 0.23181 0.0
C138 C 0.33416 0.18313 0.23775 0.0
O139 O 0.31485 0.07203 0.20211 0.0
Mg140 Mg 0.24559 0.36064 0.42306 0.0
O141 O 0.23353 0.38776 0.38404 0.0
O142 O 0.22052 0.43284 0.39817 0.0
Mg143 Mg 0.22335 0.43294 0.44872 0.0
C144 C 0.22505 0.41334 0.37816 0.0
C145 C 0.25141 0.31582 0.36913 0.0
O146 O 0.21506 0.3054 0.36675 0.0
O147 O 0.30406 0.41393 0.42896 0.0
O148 O 0.28807 0.45613 0.44523 0.0
O149 O 0.18328 0.31833 0.42533 0.0
O150 O 0.2115 0.37329 0.44957 0.0
C151 C 0.31322 0.44734 0.43796 0.0
C152 C 0.1805 0.34275 0.44206 0.0
O153 O 0.27079 0.33667 0.39063 0.0
Mg154 Mg 0.87279 0.25039 0.57377 0.0
O155 O 0.83377 0.22025 0.5346 0.0
O156 O 0.77381 0.18112 0.54957 0.0
Mg157 Mg 0.77403 0.19162 0.5991 0.0
C158 C 0.79894 0.19556 0.52928 0.0
C159 C 0.95445 0.3033 0.54777 0.0
O160 O 0.96379 0.30607 0.57571 0.0
O161 O 0.8512 0.29244 0.57468 0.0
O162 O 0.79097 0.25437 0.58984 0.0
O163 O 0.87998 0.2002 0.58075 0.0
O164 O 0.83455 0.20702 0.60198 0.0
C165 C 0.81823 0.28703 0.58158 0.0
C166 C 0.84948 0.18596 0.59685 0.0
O167 O 0.91935 0.28522 0.54063 0.0
H168 H 0.20325 0.65921 0.07279 0.0
H169 H 0.08129 0.61855 0.07237 0.0
H170 H 0.06789 0.55209 0.07673 0.0
H171 H 0.19795 0.57886 0.03102 0.0
H172 H 0.23574 0.57917 0.05227 0.0
H173 H 0.23524 0.62297 0.04656 0.0
H174 H 0.2377 0.6333 0.10298 0.0
H175 H 0.23773 0.58937 0.10889 0.0
H176 H 0.20158 0.59655 0.12593 0.0
H177 H 0.06823 0.49062 0.0862 0.0
H178 H 0.08234 0.4388 0.09576 0.0
H179 H 0.20396 0.5206 0.08891 0.0
C180 C 0.17368 0.63635 0.07313 0.0
C181 C 0.14334 0.64412 0.0723 0.0
C182 C 0.10505 0.61331 0.07283 0.0
C183 C 0.09713 0.57546 0.0754 0.0
C184 C 0.1278 0.56896 0.07703 0.0
C185 C 0.16529 0.59854 0.07548 0.0
C186 C 0.19316 0.58422 0.07863 0.0
C187 C 0.21691 0.59175 0.05044 0.0
C188 C 0.21905 0.60191 0.10572 0.0
C189 C 0.16554 0.54205 0.08291 0.0
C190 C 0.12796 0.53369 0.08191 0.0
C191 C 0.09755 0.49675 0.08663 0.0
C192 C 0.10585 0.46756 0.09223 0.0
C193 C 0.14424 0.47556 0.09294 0.0
C194 C 0.17428 0.51337 0.0882 0.0
H195 H 0.64741 0.19484 0.26318 0.0
H196 H 0.60807 0.07501 0.2466 0.0
H197 H 0.54194 0.06271 0.24056 0.0
H198 H 0.56326 0.18059 0.30349 0.0
H199 H 0.56566 0.22257 0.28766 0.0
H200 H 0.60883 0.22065 0.29291 0.0
H201 H 0.625 0.23546 0.23756 0.0
H202 H 0.5818 0.23712 0.23209 0.0
H203 H 0.59066 0.20514 0.21033 0.0
H204 H 0.48036 0.06512 0.233 0.0
H205 H 0.42968 0.08178 0.22604 0.0
H206 H 0.5116 0.19998 0.24755 0.0
C207 C 0.62495 0.16583 0.25864 0.0
C208 C 0.63302 0.13591 0.25534 0.0
C209 C 0.60261 0.09842 0.24934 0.0
C210 C 0.56496 0.09116 0.24583 0.0
C211 C 0.55826 0.12163 0.2486 0.0
C212 C 0.58749 0.15814 0.25511 0.0
C213 C 0.57351 0.1864 0.25588 0.0
C214 C 0.57808 0.20355 0.28683 0.0
C215 C 0.59395 0.21786 0.23258 0.0
C216 C 0.53192 0.16032 0.24824 0.0
C217 C 0.52339 0.12301 0.24427 0.0
C218 C 0.48672 0.09423 0.23629 0.0
C219 C 0.45815 0.10397 0.23233 0.0
C220 C 0.46658 0.1422 0.23621 0.0
C221 C 0.504 0.17046 0.24438 0.0
H222 H 0.48258 0.66201 0.43948 0.0
H223 H 0.56233 0.62196 0.42356 0.0
H224 H 0.50905 0.55487 0.42809 0.0
H225 H 0.42295 0.58813 0.49306 0.0
H226 H 0.37984 0.58596 0.47989 0.0
H227 H 0.42489 0.63009 0.47762 0.0
H228 H 0.41492 0.63305 0.42154 0.0
H229 H 0.37004 0.58891 0.42358 0.0
H230 H 0.40663 0.59324 0.39861 0.0
H231 H 0.44471 0.492 0.42936 0.0
H232 H 0.37695 0.43998 0.43024 0.0
H233 H 0.34188 0.52354 0.44702 0.0
C234 C 0.489 0.63917 0.43721 0.0
C235 C 0.52641 0.64701 0.43095 0.0
C236 C 0.53377 0.61642 0.42845 0.0
C237 C 0.50372 0.57833 0.43093 0.0
C238 C 0.46686 0.57163 0.43647 0.0
C239 C 0.45968 0.60137 0.44001 0.0
C240 C 0.41774 0.58714 0.44498 0.0
C241 C 0.41097 0.5985 0.47572 0.0
C242 C 0.40139 0.60142 0.42073 0.0
C243 C 0.402 0.54462 0.4428 0.0
C244 C 0.43058 0.536 0.43799 0.0
C245 C 0.42221 0.49846 0.43357 0.0
C246 C 0.38365 0.46912 0.43402 0.0
C247 C 0.35405 0.4776 0.43889 0.0
C248 C 0.3637 0.51589 0.44361 0.0
H249 H 0.87062 0.50604 0.5838 0.0
H250 H 0.74849 0.4636 0.57715 0.0
H251 H 0.73613 0.39764 0.57568 0.0
H252 H 0.87147 0.43616 0.53428 0.0
H253 H 0.90684 0.43149 0.5551 0.0
H254 H 0.9066 0.47587 0.55569 0.0
H255 H 0.90216 0.47284 0.61256 0.0
H256 H 0.90242 0.42847 0.61214 0.0
H257 H 0.86399 0.43103 0.63004 0.0
H258 H 0.73615 0.33645 0.57664 0.0
H259 H 0.74899 0.28306 0.57805 0.0
H260 H 0.87108 0.3641 0.58218 0.0
C261 C 0.8413 0.48287 0.58203 0.0
C262 C 0.81056 0.49012 0.58059 0.0
C263 C 0.7726 0.45893 0.57813 0.0
C264 C 0.7652 0.42127 0.57734 0.0
C265 C 0.79604 0.41512 0.57878 0.0
C266 C 0.83335 0.44493 0.58088 0.0
C267 C 0.86115 0.43012 0.58185 0.0
C268 C 0.8881 0.44425 0.55513 0.0
C269 C 0.88375 0.44128 0.61088 0.0
C270 C 0.8335 0.38739 0.58021 0.0
C271 C 0.7961 0.37948 0.57858 0.0
C272 C 0.76532 0.34221 0.57773 0.0
C273 C 0.77292 0.31209 0.57863 0.0
C274 C 0.81102 0.31938 0.58012 0.0
C275 C 0.84167 0.35762 0.58074 0.0
H276 H 0.48171 0.81573 0.76199 0.0
H277 H 0.55847 0.9292 0.72747 0.0
H278 H 0.50499 0.94277 0.72796 0.0
H279 H 0.40146 0.797 0.72022 0.0
H280 H 0.3678 0.77109 0.74916 0.0
H281 H 0.41275 0.77209 0.74772 0.0
H282 H 0.42804 0.79863 0.80098 0.0
H283 H 0.38308 0.79774 0.8026 0.0
H284 H 0.42712 0.84157 0.80988 0.0
H285 H 0.44066 0.9419 0.73098 0.0
H286 H 0.37301 0.92609 0.73453 0.0
H287 H 0.3413 0.81287 0.76634 0.0
C288 C 0.4877 0.84365 0.75464 0.0
C289 C 0.52441 0.87141 0.74466 0.0
C290 C 0.5306 0.90748 0.73527 0.0
C291 C 0.50041 0.91543 0.73552 0.0
C292 C 0.46445 0.88706 0.74535 0.0
C293 C 0.45823 0.85193 0.75474 0.0
C294 C 0.41705 0.82545 0.76325 0.0
C295 C 0.3987 0.7893 0.74392 0.0
C296 C 0.41364 0.81527 0.79613 0.0
C297 C 0.40057 0.85077 0.75671 0.0
C298 C 0.42818 0.88638 0.74671 0.0
C299 C 0.41894 0.91413 0.73889 0.0
C300 C 0.38049 0.90493 0.74103 0.0
C301 C 0.35183 0.86817 0.75058 0.0
C302 C 0.36239 0.84114 0.7588 0.0
H303 H 0.50496 0.31556 0.90153 0.0
H304 H 0.42863 0.35985 0.91783 0.0
H305 H 0.48442 0.42509 0.92221 0.0
H306 H 0.57775 0.37715 0.95303 0.0
H307 H 0.61661 0.38246 0.93026 0.0
H308 H 0.57058 0.33946 0.9281 0.0
H309 H 0.56849 0.34941 0.87196 0.0
H310 H 0.61447 0.39246 0.87394 0.0
H311 H 0.57412 0.39386 0.85853 0.0
H312 H 0.54888 0.48601 0.92289 0.0
H313 H 0.61697 0.53703 0.92305 0.0
H314 H 0.65043 0.45183 0.90851 0.0
C315 C 0.49991 0.33895 0.90596 0.0
C316 C 0.46241 0.33262 0.90917 0.0
C317 C 0.45711 0.364 0.91532 0.0
C318 C 0.4886 0.40117 0.91776 0.0
C319 C 0.52518 0.4064 0.91433 0.0
C320 C 0.53096 0.37608 0.90884 0.0
C321 C 0.57312 0.38916 0.90663 0.0
C322 C 0.58522 0.37098 0.93096 0.0
C323 C 0.58312 0.38073 0.87594 0.0
C324 C 0.5902 0.43164 0.91153 0.0
C325 C 0.56214 0.44112 0.91572 0.0
C326 C 0.57111 0.47888 0.91985 0.0
C327 C 0.60982 0.50765 0.91982 0.0
C328 C 0.63901 0.49839 0.91602 0.0
C329 C 0.62885 0.45982 0.91184 0.0
H330 H 0.22989 0.3762 0.05982 0.0
H331 H 0.17485 0.26967 0.10866 0.0
H332 H 0.21528 0.2491 0.08288 0.0
H333 H 0.23058 0.33769 0.99366 0.0
H334 H 0.2763 0.37598 0.98137 0.0
H335 H 0.24876 0.38556 0.00742 0.0
H336 H 0.30574 0.41402 0.0439 0.0
H337 H 0.33377 0.40492 0.01777 0.0
H338 H 0.32716 0.38606 0.05456 0.0
H339 H 0.25426 0.2364 0.04699 0.0
H340 H 0.28932 0.23249 0.00408 0.0
H341 H 0.31889 0.34744 0.9784 0.0
C342 C 0.22719 0.34909 0.06587 0.0
C343 C 0.19946 0.32464 0.08644 0.0
C344 C 0.19612 0.28894 0.09313 0.0
C345 C 0.21903 0.27709 0.07866 0.0
C346 C 0.24524 0.30142 0.05777 0.0
C347 C 0.24968 0.33685 0.05159 0.0
C348 C 0.2768 0.35587 0.02607 0.0
C349 C 0.2569 0.36423 0.00064 0.0
C350 C 0.31302 0.39238 0.03619 0.0
C351 C 0.28563 0.32488 0.01796 0.0
C352 C 0.26764 0.29398 0.03683 0.0
C353 C 0.26899 0.26066 0.03239 0.0
C354 C 0.28877 0.25865 0.00782 0.0
C355 C 0.3068 0.28971 0.98791 0.0
C356 C 0.30583 0.32349 0.99345 0.0
H357 H 0.87274 0.17592 0.22925 0.0
H358 H 0.81735 0.24367 0.22072 0.0
H359 H 0.87565 0.2958 0.19857 0.0
H360 H 0.97086 0.25774 0.24431 0.0
H361 H 0.99328 0.23684 0.22299 0.0
H362 H 0.94885 0.20649 0.24181 0.0
H363 H 0.91818 0.17248 0.19263 0.0
H364 H 0.96232 0.20285 0.17364 0.0
H365 H 0.91868 0.20046 0.16161 0.0
H366 H 0.93597 0.33704 0.17181 0.0
H367 H -0.00327 0.36659 0.14425 0.0
H368 H 0.01463 0.27361 0.17045 0.0
C369 C 0.87325 0.20211 0.22341 0.0
C370 C 0.84051 0.20577 0.22706 0.0
C371 C 0.84209 0.24023 0.21859 0.0
C372 C 0.87514 0.2701 0.20588 0.0
C373 C 0.90654 0.26525 0.20192 0.0
C374 C 0.90615 0.23235 0.21067 0.0
C375 C 0.94299 0.2336 0.20203 0.0
C376 C 0.96532 0.23368 0.22942 0.0
C377 C 0.93505 0.20038 0.18124 0.0
C378 C 0.96347 0.27174 0.18624 0.0
C379 C 0.94195 0.28957 0.18662 0.0
C380 C 0.95345 0.32375 0.17177 0.0
C381 C 0.98788 0.34019 0.15605 0.0
C382 C 0.01047 0.32252 0.15539 0.0
C383 C -0.00177 0.28807 0.17098 0.0
H384 H 0.71866 0.888 0.39312 0.0
H385 H 0.60282 0.81513 0.361 0.0
H386 H 0.60905 0.86743 0.32965 0.0
H387 H 0.71569 0.97652 0.3941 0.0
H388 H 0.76452 0.00536 0.38192 0.0
H389 H 0.75044 0.9626 0.40298 0.0
H390 H 0.77609 0.93724 0.36171 0.0
H391 H 0.78999 0.97979 0.34046 0.0
H392 H 0.75854 0.93344 0.32469 0.0
H393 H 0.62817 0.92646 0.30044 0.0
H394 H 0.65868 0.98958 0.27627 0.0
H395 H 0.76228 0.0243 0.32681 0.0
C396 C 0.69449 0.88319 0.37973 0.0
C397 C 0.66011 0.84754 0.3798 0.0
C398 C 0.62927 0.84229 0.36171 0.0
C399 C 0.63255 0.8718 0.34366 0.0
C400 C 0.66688 0.90643 0.34389 0.0
C401 C 0.69728 0.9124 0.36151 0.0
C402 C 0.73123 0.95221 0.35711 0.0
C403 C 0.74103 0.97555 0.38573 0.0
C404 C 0.76601 0.95055 0.34528 0.0
C405 C 0.71519 0.96745 0.33413 0.0
C406 C 0.67802 0.94057 0.32685 0.0
C407 C 0.65724 0.94785 0.306 0.0
C408 C 0.67486 0.98375 0.29234 0.0
C409 C 0.71287 0.01188 0.2996 0.0
C410 C 0.73322 0.00341 0.32072 0.0
H411 H 0.70239 0.69855 0.47889 0.0
H412 H 0.75349 0.81177 0.51775 0.0
H413 H 0.79365 0.79658 0.54948 0.0
H414 H 0.70057 0.64824 0.54577 0.0
H415 H 0.71191 0.61614 0.5267 0.0
H416 H 0.686 0.6354 0.50804 0.0
H417 H 0.7372 0.66184 0.46681 0.0
H418 H 0.76324 0.64269 0.48531 0.0
H419 H 0.78678 0.69284 0.47637 0.0
H420 H 0.83066 0.77006 0.57512 0.0
H421 H 0.86082 0.7338 0.5932 0.0
H422 H 0.78474 0.638 0.53776 0.0
C423 C 0.7218 0.7201 0.49421 0.0
C424 C 0.72485 0.75639 0.49578 0.0
C425 C 0.75069 0.78378 0.51611 0.0
C426 C 0.77358 0.7754 0.53427 0.0
C427 C 0.77012 0.73947 0.53193 0.0
C428 C 0.74475 0.7122 0.51251 0.0
C429 C 0.74718 0.67612 0.5137 0.0
C430 C 0.70915 0.64196 0.52418 0.0
C431 C 0.75934 0.66792 0.48377 0.0
C432 C 0.77829 0.68753 0.53653 0.0
C433 C 0.79109 0.72411 0.54687 0.0
C434 C 0.82064 0.74126 0.56737 0.0
C435 C 0.83763 0.72049 0.57746 0.0
C436 C 0.82495 0.683 0.56705 0.0
C437 C 0.79474 0.66639 0.54645 0.0
H438 H 0.9603 0.71574 0.68442 0.0
H439 H 0.97792 0.62792 0.64534 0.0
H440 H 0.04087 0.65579 0.66993 0.0
H441 H 0.05161 0.79027 0.67342 0.0
H442 H 0.05497 0.81504 0.70723 0.0
H443 H 0.00897 0.78465 0.69076 0.0
H444 H 0.98496 0.74572 0.73909 0.0
H445 H 0.03097 0.77619 0.75581 0.0
H446 H 0.01137 0.72515 0.75499 0.0
H447 H 0.10477 0.69764 0.69378 0.0
H448 H 0.16477 0.75059 0.71393 0.0
H449 H 0.10547 0.81145 0.73681 0.0
C450 C 0.97691 0.70173 0.68159 0.0
C451 C 0.96411 0.66953 0.66305 0.0
C452 C 0.98708 0.65251 0.65954 0.0
C453 C 0.02281 0.66806 0.6735 0.0
C454 C 0.03502 0.70047 0.691 0.0
C455 C 0.01264 0.71699 0.69519 0.0
C456 C 0.03372 0.75374 0.71265 0.0
C457 C 0.03755 0.78792 0.69494 0.0
C458 C 0.01408 0.74996 0.74241 0.0
C459 C 0.07204 0.75617 0.71664 0.0
C460 C 0.07201 0.72483 0.7045 0.0
C461 C 0.10494 0.72198 0.7038 0.0
C462 C 0.13892 0.75224 0.71531 0.0
C463 C 0.13979 0.78508 0.72713 0.0
C464 C 0.10565 0.78656 0.72826 0.0
H465 H 0.306 0.00554 0.78801 0.0
H466 H 0.18776 0.97022 0.76774 0.0
H467 H 0.19332 0.02422 0.79656 0.0
H468 H 0.30691 0.03596 0.8614 0.0
H469 H 0.35435 0.07718 0.85964 0.0
H470 H 0.34197 0.03626 0.83673 0.0
H471 H 0.36203 0.0792 0.79035 0.0
H472 H 0.37477 0.12033 0.81315 0.0
H473 H 0.34107 0.10863 0.78348 0.0
H474 H 0.20913 0.0776 0.83069 0.0
H475 H 0.23704 0.13337 0.86378 0.0
H476 H 0.34676 0.13848 0.85951 0.0
C477 C 0.28146 0.00946 0.78945 0.0
C478 C 0.24641 0.98362 0.77569 0.0
C479 C 0.21494 0.98971 0.77795 0.0
C480 C 0.21773 0.02022 0.79438 0.0
C481 C 0.25239 0.04479 0.80802 0.0
C482 C 0.28396 0.04033 0.80535 0.0
C483 C 0.3179 0.07138 0.82207 0.0
C484 C 0.33104 0.05415 0.8464 0.0
C485 C 0.35089 0.09637 0.801 0.0
C486 C 0.30014 0.09347 0.83491 0.0
C487 C 0.2622 0.07724 0.8267 0.0
C488 C 0.23895 0.09097 0.83695 0.0
C489 C 0.255 0.12247 0.85586 0.0
C490 C 0.29405 0.1403 0.86396 0.0
C491 C 0.31696 0.12567 0.8533 0.0
H492 H 0.76817 0.73234 0.8264 0.0
H493 H 0.66265 0.6546 0.87186 0.0
H494 H 0.6299 0.68395 0.84665 0.0
H495 H 0.7573 0.81387 0.83075 0.0
H496 H 0.77703 0.83202 0.79487 0.0
H497 H 0.79186 0.80333 0.81493 0.0
H498 H 0.77204 0.75637 0.77097 0.0
H499 H 0.75706 0.78492 0.75078 0.0
H500 H 0.72397 0.73479 0.75674 0.0
H501 H 0.60934 0.72316 0.81913 0.0
H502 H 0.6021 0.7712 0.79158 0.0
H503 H 0.72045 0.82409 0.76297 0.0
C504 C 0.7381 0.72128 0.83086 0.0
C505 C 0.71797 0.69112 0.8511 0.0
C506 C 0.67871 0.67769 0.85649 0.0
C507 C 0.65978 0.69406 0.84219 0.0
C508 C 0.68046 0.72381 0.82252 0.0
C509 C 0.71872 0.7374 0.81681 0.0
C510 C 0.73452 0.77088 0.79562 0.0
C511 C 0.7671 0.80717 0.80991 0.0
C512 C 0.74767 0.76114 0.76682 0.0
C513 C 0.69928 0.77434 0.79079 0.0
C514 C 0.66841 0.74661 0.80636 0.0
C515 C 0.63312 0.74472 0.80652 0.0
C516 C 0.62928 0.77215 0.79062 0.0
C517 C 0.66051 0.80117 0.77467 0.0
C518 C 0.6959 0.80198 0.77459 0.0
H519 H 0.87849 0.70413 0.93358 0.0
H520 H 0.8285 0.583 0.952 0.0
H521 H 0.88831 0.59559 0.97587 0.0
H522 H 0.97782 0.72472 0.92105 0.0
H523 H -0.00156 0.77055 0.93905 0.0
H524 H 0.95333 0.75161 0.92009 0.0
H525 H 0.92213 0.7587 0.96764 0.0
H526 H 0.96698 0.77735 0.98679 0.0
H527 H 0.9248 0.73614 0.00104 0.0
H528 H 0.95038 0.62136 0.00184 0.0
H529 H 0.01185 0.65872 0.02763 0.0
H530 H 0.02236 0.76367 0.99311 0.0
C531 C 0.88044 0.68015 0.94202 0.0
C532 C 0.84886 0.64248 0.9406 0.0
C533 C 0.85232 0.61201 0.95247 0.0
C534 C 0.88623 0.61888 0.96613 0.0
C535 C 0.91648 0.65638 0.96774 0.0
C536 C 0.91409 0.68654 0.95589 0.0
C537 C 0.94989 0.72439 0.96248 0.0
C538 C 0.97112 0.74396 0.93397 0.0
C539 C 0.94036 0.75068 0.98057 0.0
C540 C 0.97228 0.71079 0.98051 0.0
C541 C 0.95255 0.67142 0.98302 0.0
C542 C 0.96635 0.65217 0.99977 0.0
C543 C 0.00124 0.67372 0.01446 0.0
C544 C 0.02197 0.71415 0.01238 0.0
C545 C 0.00737 0.73281 0.99492 0.0
H546 H 0.26183 0.01726 0.17079 0.0
H547 H 0.33418 0.98754 0.22156 0.0
H548 H 0.30429 0.92463 0.19721 0.0
H549 H 0.17741 0.92433 0.17387 0.0
H550 H 0.16212 0.92643 0.13702 0.0
H551 H 0.19002 0.96983 0.15766 0.0
H552 H 0.24013 0.9968 0.11571 0.0
H553 H 0.21245 0.9534 0.09498 0.0
H554 H 0.26193 0.96984 0.10333 0.0
H555 H 0.26745 0.86576 0.16792 0.0
H556 H 0.22264 0.81169 0.13732 0.0
H557 H 0.17212 0.87777 0.10574 0.0
C558 C 0.27143 -0.00246 0.17672 0.0
C559 C 0.30042 0.00732 0.19804 0.0
C560 C 0.31199 0.98064 0.20537 0.0
C561 C 0.29531 0.94491 0.19157 0.0
C562 C 0.26695 0.93622 0.17063 0.0
C563 C 0.25482 0.96153 0.16333 0.0
C564 C 0.22288 0.94433 0.14072 0.0
C565 C 0.18592 0.94103 0.15306 0.0
C566 C 0.23509 0.96747 0.11198 0.0
C567 C 0.2189 0.90531 0.1366 0.0
C568 C 0.24494 0.90157 0.15391 0.0
C569 C 0.24697 0.86832 0.1542 0.0
C570 C 0.22143 0.83779 0.13658 0.0
C571 C 0.19397 0.84053 0.11894 0.0
C572 C 0.19285 0.87488 0.11889 0.0
H573 H 0.2662 0.18016 0.24993 0.0
H574 H 0.38938 0.2545 0.25509 0.0
H575 H 0.38067 0.30028 0.28463 0.0
H576 H 0.24185 0.25959 0.24998 0.0
H577 H 0.20014 0.23167 0.27242 0.0
H578 H 0.21555 0.20823 0.24669 0.0
H579 H 0.21809 0.16675 0.28905 0.0
H580 H 0.20335 0.19041 0.31495 0.0
H581 H 0.24714 0.18984 0.32095 0.0
H582 H 0.35997 0.33181 0.32061 0.0
H583 H 0.32781 0.35024 0.35774 0.0
H584 H 0.21761 0.25702 0.32928 0.0
C585 C 0.29126 0.20677 0.25631 0.0
C586 C 0.32849 0.21379 0.25 0.0
C587 C 0.3606 0.24847 0.25942 0.0
C588 C 0.35595 0.27478 0.27625 0.0
C589 C 0.31899 0.26621 0.28329 0.0
C590 C 0.28709 0.23341 0.27323 0.0
C591 C 0.25076 0.22938 0.2864 0.0
C592 C 0.22559 0.23241 0.26244 0.0
C593 C 0.22856 0.19188 0.30387 0.0
C594 C 0.26748 0.26391 0.30654 0.0
C595 C 0.30686 0.28496 0.3041 0.0
C596 C 0.32908 0.31612 0.32226 0.0
C597 C 0.31058 0.32614 0.34347 0.0
C598 C 0.27024 0.30512 0.3463 0.0
C599 C 0.24845 0.27391 0.32731 0.0
H600 H 0.16444 0.36941 0.4917 0.0
H601 H 0.11229 0.30288 0.41294 0.0
H602 H 0.04935 0.29307 0.42879 0.0
H603 H 0.08996 0.30904 0.53896 0.0
H604 H 0.09372 0.3468 0.56229 0.0
H605 H 0.13508 0.35291 0.54273 0.0
H606 H 0.14355 0.41495 0.51901 0.0
H607 H 0.10196 0.40885 0.5384 0.0
H608 H 0.10438 0.41347 0.49892 0.0
H609 H 0.99206 0.28834 0.45426 0.0
H610 H 0.94316 0.28127 0.49003 0.0
H611 H 0.03234 0.34726 0.55384 0.0
C612 C 0.13984 0.35334 0.47757 0.0
C613 C 0.14306 0.3372 0.45099 0.0
C614 C 0.11024 0.3155 0.43338 0.0
C615 C 0.07455 0.31008 0.44208 0.0
C616 C 0.07227 0.32623 0.46857 0.0
C617 C 0.10397 0.347 0.48624 0.0
C618 C 0.0932 0.35773 0.51511 0.0
C619 C 0.10359 0.34058 0.54131 0.0
C620 C 0.11189 0.40135 0.51802 0.0
C621 C 0.05032 0.33901 0.51124 0.0
C622 C 0.03896 0.32187 0.48394 0.0
C623 C 0.00063 0.30179 0.47564 0.0
C624 C 0.97306 0.29804 0.49613 0.0
C625 C 0.98395 0.31364 0.5248 0.0
C626 C 0.02316 0.33516 0.53209 0.0
H627 H 0.78971 0.14992 0.63561 0.0
H628 H 0.86735 0.13152 0.58134 0.0
H629 H 0.83649 0.06463 0.59841 0.0
H630 H 0.78861 0.09404 0.69668 0.0
H631 H 0.7387 0.07539 0.70491 0.0
H632 H 0.76604 0.12146 0.68765 0.0
H633 H 0.71703 0.09914 0.6449 0.0
H634 H 0.68952 0.05297 0.66203 0.0
H635 H 0.70605 0.05645 0.62473 0.0
H636 H 0.79782 0.00015 0.62168 0.0
H637 H 0.75515 0.94281 0.6507 0.0
H638 H 0.70301 0.00332 0.69026 0.0
C639 C 0.80004 0.13177 0.62713 0.0
C640 C 0.83082 0.14588 0.60703 0.0
C641 C 0.84381 0.12132 0.59675 0.0
C642 C 0.8264 0.08326 0.60625 0.0
C643 C 0.79613 0.07026 0.62607 0.0
C644 C 0.7831 0.09375 0.63646 0.0
C645 C 0.75072 0.07293 0.65823 0.0
C646 C 0.76169 0.0921 0.68867 0.0
C647 C 0.71363 0.07021 0.64678 0.0
C648 C 0.74777 0.03412 0.65859 0.0
C649 C 0.77408 0.03315 0.63976 0.0
C650 C 0.77707 0.00054 0.6365 0.0
C651 C 0.75269 0.96811 0.6531 0.0
C652 C 0.72578 0.96857 0.67282 0.0
C653 C 0.72324 0.00203 0.67538 0.0
H654 H 0.19504 0.36059 0.33446 0.0
H655 H 0.24677 0.48205 0.35162 0.0
H656 H 0.24601 0.49392 0.29816 0.0
H657 H 0.24325 0.36641 0.26807 0.0
H658 H 0.20234 0.32722 0.25052 0.0
H659 H 0.20673 0.32849 0.28997 0.0
H660 H 0.14041 0.32329 0.29519 0.0
H661 H 0.13561 0.3216 0.25576 0.0
H662 H 0.1314 0.35727 0.2765 0.0
H663 H 0.2445 0.4924 0.24238 0.0
H664 H 0.23332 0.47702 0.18924 0.0
H665 H 0.17725 0.35611 0.2096 0.0
C666 C 0.20594 0.38966 0.32694 0.0
C667 C 0.22114 0.4205 0.34696 0.0
C668 C 0.23483 0.4581 0.33651 0.0
C669 C 0.23474 0.46507 0.30625 0.0
C670 C 0.22016 0.43401 0.287 0.0
C671 C 0.20523 0.39697 0.29703 0.0
C672 C 0.19019 0.36843 0.27202 0.0
C673 C 0.21193 0.34635 0.27004 0.0
C674 C 0.14683 0.34105 0.27505 0.0
C675 C 0.19933 0.39521 0.24621 0.0
C676 C 0.2172 0.43297 0.25522 0.0
C677 C 0.23006 0.46294 0.23511 0.0
C678 C 0.22384 0.454 0.20505 0.0
C679 C 0.20425 0.41547 0.19559 0.0
C680 C 0.19194 0.38579 0.21643 0.0
H681 H 0.82884 0.23911 0.48003 0.0
H682 H 0.74326 0.12575 0.50922 0.0
H683 H 0.72549 0.10591 0.45739 0.0
H684 H 0.77172 0.24495 0.4219 0.0
H685 H 0.81178 0.27123 0.39755 0.0
H686 H 0.81883 0.27577 0.43677 0.0
H687 H 0.87044 0.25597 0.43231 0.0
H688 H 0.86348 0.25128 0.39307 0.0
H689 H 0.85856 0.21157 0.41446 0.0
H690 H 0.7191 0.098 0.40242 0.0
H691 H 0.71907 0.1042 0.34842 0.0
H692 H 0.80523 0.22436 0.35537 0.0
C693 C 0.80649 0.21004 0.47547 0.0
C694 C 0.78759 0.18377 0.49851 0.0
C695 C 0.75802 0.14624 0.49181 0.0
C696 C 0.7479 0.13471 0.46249 0.0
C697 C 0.7672 0.16131 0.44027 0.0
C698 C 0.79546 0.19836 0.44643 0.0
C699 C 0.81046 0.22192 0.41862 0.0
C700 C 0.80272 0.25544 0.41873 0.0
C701 C 0.85327 0.236 0.41437 0.0
C702 C 0.78631 0.19227 0.39578 0.0
C703 C 0.76198 0.15736 0.40871 0.0
C704 C 0.73776 0.12526 0.39207 0.0
C705 C 0.73807 0.12906 0.36143 0.0
C706 C 0.76194 0.16484 0.34777 0.0
C707 C 0.78639 0.19678 0.36525 0.0
H708 H 0.6502 0.8323 0.64266 0.0
H709 H 0.52793 0.77439 0.65882 0.0
H710 H 0.51574 0.7649 0.60538 0.0
H711 H 0.65187 0.87971 0.5757 0.0
H712 H 0.68722 0.87188 0.55796 0.0
H713 H 0.68676 0.87533 0.59745 0.0
H714 H 0.68178 0.80918 0.60242 0.0
H715 H 0.68266 0.80574 0.56296 0.0
H716 H 0.64383 0.76846 0.58369 0.0
H717 H 0.51684 0.76513 0.5505 0.0
H718 H 0.53032 0.76477 0.49763 0.0
H719 H 0.65156 0.81676 0.51682 0.0
C720 C 0.62091 0.81747 0.63485 0.0
C721 C 0.58993 0.80413 0.65471 0.0
C722 C 0.55197 0.78455 0.64389 0.0
C723 C 0.5448 0.77933 0.61361 0.0
C724 C 0.57591 0.79318 0.59454 0.0
C725 C 0.61319 0.81101 0.60469 0.0
C726 C 0.64125 0.82112 0.57949 0.0
C727 C 0.66837 0.86459 0.57755 0.0
C728 C 0.66369 0.79985 0.58231 0.0
C729 C 0.61387 0.80643 0.55362 0.0
C730 C 0.5764 0.79115 0.56281 0.0
C731 C 0.54601 0.7767 0.54301 0.0
C732 C 0.55399 0.77691 0.51302 0.0
C733 C 0.59195 0.79073 0.50319 0.0
C734 C 0.62227 0.80597 0.52378 0.0
H735 H 0.82914 0.6385 0.68951 0.0
H736 H 0.73616 0.52666 0.66432 0.0
H737 H 0.71966 0.51032 0.71671 0.0
H738 H 0.8584 0.61159 0.75415 0.0
H739 H 0.86714 0.65287 0.77534 0.0
H740 H 0.87171 0.65611 0.7359 0.0
H741 H 0.8229 0.67969 0.73308 0.0
H742 H 0.8185 0.67696 0.77255 0.0
H743 H 0.77648 0.65167 0.74986 0.0
H744 H 0.71745 0.50403 0.77155 0.0
H745 H 0.72218 0.51193 0.82566 0.0
H746 H 0.81159 0.63016 0.81534 0.0
C747 C 0.80508 0.61076 0.69513 0.0
C748 C 0.78389 0.58371 0.67308 0.0
C749 C 0.75247 0.54778 0.68101 0.0
C750 C 0.7431 0.53818 0.71065 0.0
C751 C 0.7649 0.56523 0.73194 0.0
C752 C 0.79459 0.60114 0.72458 0.0
C753 C 0.81247 0.62538 0.75176 0.0
C754 C 0.85495 0.63717 0.75443 0.0
C755 C 0.80726 0.6605 0.75181 0.0
C756 C 0.78867 0.59719 0.77555 0.0
C757 C 0.76184 0.56246 0.76361 0.0
C758 C 0.73791 0.53123 0.78117 0.0
C759 C 0.74097 0.53585 0.81177 0.0
C760 C 0.76713 0.57159 0.82433 0.0
C761 C 0.79124 0.60264 0.80606 0.0
H762 H 0.1743 0.76935 0.84973 0.0
H763 H 0.27316 0.88369 0.84608 0.0
H764 H 0.27574 0.8861 0.9004 0.0
H765 H 0.13054 0.78863 0.91296 0.0
H766 H 0.11187 0.74142 0.92817 0.0
H767 H 0.11804 0.74853 0.88899 0.0
H768 H 0.16012 0.71695 0.8886 0.0
H769 H 0.15422 0.70989 0.92777 0.0
H770 H 0.20157 0.73565 0.91215 0.0
H771 H 0.27094 0.87381 0.95476 0.0
H772 H 0.2538 0.85106 0.00607 0.0
H773 H 0.15406 0.74777 0.97477 0.0
C774 C 0.19635 0.79488 0.86047 0.0
C775 C 0.2237 0.82626 0.84387 0.0
C776 C 0.2519 0.85943 0.85851 0.0
C777 C 0.25368 0.86099 0.88929 0.0
C778 C 0.2265 0.82949 0.90508 0.0
C779 C 0.19786 0.79736 0.89122 0.0
C780 C 0.17141 0.76802 0.91343 0.0
C781 C 0.13055 0.76127 0.91072 0.0
C782 C 0.17188 0.73041 0.91029 0.0
C783 C 0.19014 0.78834 0.94188 0.0
C784 C 0.22217 0.82355 0.93654 0.0
C785 C 0.24557 0.84659 0.95927 0.0
C786 C 0.23577 0.83342 0.98825 0.0
C787 C 0.20248 0.79798 0.99421 0.0
C788 C 0.17933 0.77529 0.97073 0.0
H789 H 0.33688 0.16512 0.12261 0.0
H790 H 0.45874 0.21194 0.13497 0.0
H791 H 0.46716 0.21066 0.08112 0.0
H792 H 0.32348 0.10408 0.06006 0.0
H793 H 0.29071 0.11506 0.0416 0.0
H794 H 0.29361 0.11658 0.08117 0.0
H795 H 0.3079 0.18668 0.08094 0.0
H796 H 0.30434 0.18504 0.04147 0.0
H797 H 0.347 0.22182 0.05906 0.0
H798 H 0.46204 0.20371 0.02598 0.0
H799 H 0.44603 0.20298 0.97339 0.0
H800 H 0.32849 0.16573 0.99706 0.0
C801 C 0.36525 0.17492 0.11388 0.0
C802 C 0.39717 0.18839 0.13272 0.0
C803 C 0.43402 0.20166 0.12071 0.0
C804 C 0.43898 0.20067 0.09026 0.0
C805 C 0.40687 0.18693 0.07219 0.0
C806 C 0.37085 0.17513 0.0835 0.0
C807 C 0.34172 0.1651 0.05919 0.0
C808 C 0.31054 0.12268 0.0606 0.0
C809 C 0.32424 0.19122 0.06023 0.0
C810 C 0.36702 0.17329 0.03246 0.0
C811 C 0.4043 0.18494 0.04041 0.0
C812 C 0.43294 0.1946 0.01948 0.0
C813 C 0.42354 0.19378 0.98966 0.0
C814 C 0.38604 0.18417 0.98124 0.0
C815 C 0.35734 0.17295 0.00292 0.0
loop_
_geom_bond_atom_site_label_1
_geom_bond_atom_site_label_2
_geom_bond_distance
_geom_bond_site_symmetry_2
_ccdc_geom_bond_type
Mg0 O1 2.028 . S
Mg0 O7 1.986 . S
Mg0 O9 2.114 . S
Mg0 O10 2.251 . S
Mg0 O13 2.010 . S
O1 Mg0 2.028 . S
O1 C4 1.250 . S
O2 Mg3 2.028 . S
O2 C4 1.248 . S
Mg3 O2 2.028 . S
Mg3 O8 2.032 . S
Mg3 O10 2.079 . S
C4 O1 1.250 . S
C4 O2 1.248 . S
C5 O6 1.264 . S
C5 O13 1.249 1_655 S
O6 C5 1.264 . S
O7 Mg0 1.986 . S
O7 C11 1.246 . S
O8 Mg3 2.032 . S
O8 C11 1.259 . S
O9 Mg0 2.114 . S
O9 C12 1.252 . S
O10 Mg0 2.251 . S
O10 Mg3 2.079 . S
O10 C12 1.273 . S
C11 O7 1.246 . S
C11 O8 1.259 . S
C12 O9 1.252 . S
C12 O10 1.273 . S
O13 Mg0 2.010 . S
O13 C5 1.249 1_455 S
Mg14 O15 2.028 . S
Mg14 O21 1.986 . S
Mg14 O23 2.114 . S
Mg14 O24 2.251 . S
Mg14 O27 2.010 . S
O15 Mg14 2.028 . S
O15 C18 1.250 . S
O16 Mg17 2.028 . S
O16 C18 1.248 . S
Mg17 O16 2.028 . S
Mg17 O22 2.032 . S
Mg17 O24 2.079 . S
C18 O15 1.250 . S
C18 O16 1.248 . S
C19 O20 1.264 . S
C19 O27 1.249 1_565 S
O20 C19 1.264 . S
O21 Mg14 1.986 . S
O21 C25 1.246 . S
O22 Mg17 2.032 . S
O22 C25 1.259 . S
O23 Mg14 2.114 . S
O23 C26 1.252 . S
O24 Mg14 2.251 . S
O24 Mg17 2.079 . S
O24 C26 1.273 . S
C25 O21 1.246 . S
C25 O22 1.259 . S
C26 O23 1.252 . S
C26 O24 1.273 . S
O27 Mg14 2.010 . S
O27 C19 1.249 1_545 S
Mg28 O29 2.028 . S
Mg28 O35 1.986 . S
Mg28 O37 2.114 . S
Mg28 O38 2.251 . S
Mg28 O41 2.010 . S
O29 Mg28 2.028 . S
O29 C32 1.250 . S
O30 Mg31 2.028 . S
O30 C32 1.248 . S
Mg31 O30 2.028 . S
Mg31 O36 2.032 . S
Mg31 O38 2.079 . S
C32 O29 1.250 . S
C32 O30 1.248 . S
C33 O34 1.264 . S
C33 O41 1.249 . S
O34 C33 1.264 . S
O35 Mg28 1.986 . S
O35 C39 1.246 . S
O36 Mg31 2.032 . S
O36 C39 1.259 . S
O37 Mg28 2.114 . S
O37 C40 1.252 . S
O38 Mg28 2.251 . S
O38 Mg31 2.079 . S
O38 C40 1.273 . S
C39 O35 1.246 . S
C39 O36 1.259 . S
C40 O37 1.252 . S
C40 O38 1.273 . S
O41 Mg28 2.010 . S
O41 C33 1.249 . S
Mg42 O43 2.028 . S
Mg42 O49 1.986 . S
Mg42 O51 2.114 . S
Mg42 O52 2.251 . S
Mg42 O55 2.010 . S
O43 Mg42 2.028 . S
O43 C46 1.250 . S
O44 Mg45 2.028 . S
O44 C46 1.248 . S
Mg45 O44 2.028 . S
Mg45 O50 2.032 . S
Mg45 O52 2.079 . S
C46 O43 1.250 . S
C46 O44 1.248 . S
C47 O48 1.264 . S
C47 O55 1.249 1_455 S
O48 C47 1.264 . S
O49 Mg42 1.986 . S
O49 C53 1.246 . S
O50 Mg45 2.032 . S
O50 C53 1.259 . S
O51 Mg42 2.114 . S
O51 C54 1.252 . S
O52 Mg42 2.251 . S
O52 Mg45 2.079 . S
O52 C54 1.273 . S
C53 O49 1.246 . S
C53 O50 1.259 . S
C54 O51 1.252 . S
C54 O52 1.273 . S
O55 Mg42 2.010 . S
O55 C47 1.249 1_655 S
Mg56 O57 2.028 . S
Mg56 O63 1.986 . S
Mg56 O65 2.114 . S
Mg56 O66 2.251 . S
Mg56 O69 2.010 . S
O57 Mg56 2.028 . S
O57 C60 1.250 . S
O58 Mg59 2.028 . S
O58 C60 1.248 . S
Mg59 O58 2.028 . S
Mg59 O64 2.032 . S
Mg59 O66 2.079 . S
C60 O57 1.250 . S
C60 O58 1.248 . S
C61 O62 1.264 . S
C61 O69 1.249 1_545 S
O62 C61 1.264 . S
O63 Mg56 1.986 . S
O63 C67 1.246 . S
O64 Mg59 2.032 . S
O64 C67 1.259 . S
O65 Mg56 2.114 . S
O65 C68 1.252 . S
O66 Mg56 2.251 . S
O66 Mg59 2.079 . S
O66 C68 1.273 . S
C67 O63 1.246 . S
C67 O64 1.259 . S
C68 O65 1.252 . S
C68 O66 1.273 . S
O69 Mg56 2.010 . S
O69 C61 1.249 1_565 S
Mg70 O71 2.028 . S
Mg70 O77 1.986 . S
Mg70 O79 2.114 . S
Mg70 O80 2.251 . S
Mg70 O83 2.010 . S
O71 Mg70 2.028 . S
O71 C74 1.250 . S
O72 Mg73 2.028 . S
O72 C74 1.248 . S
Mg73 O72 2.028 . S
Mg73 O78 2.032 . S
Mg73 O80 2.079 . S
C74 O71 1.250 . S
C74 O72 1.248 . S
C75 O76 1.264 . S
C75 O83 1.249 . S
O76 C75 1.264 . S
O77 Mg70 1.986 . S
O77 C81 1.246 . S
O78 Mg73 2.032 . S
O78 C81 1.259 . S
O79 Mg70 2.114 . S
O79 C82 1.252 . S
O80 Mg70 2.251 . S
O80 Mg73 2.079 . S
O80 C82 1.273 . S
C81 O77 1.246 . S
C81 O78 1.259 . S
C82 O79 1.252 . S
C82 O80 1.273 . S
O83 Mg70 2.010 . S
O83 C75 1.249 . S
Mg84 O85 2.028 . S
Mg84 O91 1.986 . S
Mg84 O93 2.114 . S
Mg84 O94 2.251 . S
Mg84 O97 2.010 . S
O85 Mg84 2.028 . S
O85 C88 1.250 . S
O86 Mg87 2.028 . S
O86 C88 1.248 . S
Mg87 O86 2.028 . S
Mg87 O92 2.032 . S
Mg87 O94 2.079 . S
C88 O85 1.250 . S
C88 O86 1.248 . S
C89 O90 1.264 . S
C89 O97 1.249 1_545 S
O90 C89 1.264 . S
O91 Mg84 1.986 . S
O91 C95 1.246 . S
O92 Mg87 2.032 . S
O92 C95 1.259 . S
O93 Mg84 2.114 . S
O93 C96 1.252 . S
O94 Mg84 2.251 . S
O94 Mg87 2.079 . S
O94 C96 1.273 . S
C95 O91 1.246 . S
C95 O92 1.259 . S
C96 O93 1.252 . S
C96 O94 1.273 . S
O97 Mg84 2.010 . S
O97 C89 1.249 1_565 S
Mg98 O99 2.028 . S
Mg98 O105 1.986 . S
Mg98 O107 2.114 . S
Mg98 O108 2.251 . S
Mg98 O111 2.010 . S
O99 Mg98 2.028 . S
O99 C102 1.250 . S
O100 Mg101 2.028 . S
O100 C102 1.248 . S
Mg101 O100 2.028 . S
Mg101 O106 2.032 . S
Mg101 O108 2.079 . S
C102 O99 1.250 . S
C102 O100 1.248 . S
C103 O104 1.264 . S
C103 O111 1.249 . S
O104 C103 1.264 . S
O105 Mg98 1.986 . S
O105 C109 1.246 . S
O106 Mg101 2.032 . S
O106 C109 1.259 . S
O107 Mg98 2.114 . S
O107 C110 1.252 . S
O108 Mg98 2.251 . S
O108 Mg101 2.079 . S
O108 C110 1.273 . S
C109 O105 1.246 . S
C109 O106 1.259 . S
C110 O107 1.252 . S
C110 O108 1.273 . S
O111 Mg98 2.010 . S
O111 C103 1.249 . S
Mg112 O113 2.028 . S
Mg112 O119 1.986 . S
Mg112 O121 2.114 . S
Mg112 O122 2.251 . S
Mg112 O125 2.010 . S
O113 Mg112 2.028 . S
O113 C116 1.250 . S
O114 Mg115 2.028 . S
O114 C116 1.248 . S
Mg115 O114 2.028 . S
Mg115 O120 2.032 . S
Mg115 O122 2.079 . S
C116 O113 1.250 . S
C116 O114 1.248 . S
C117 O118 1.264 . S
C117 O125 1.249 1_655 S
O118 C117 1.264 . S
O119 Mg112 1.986 . S
O119 C123 1.246 . S
O120 Mg115 2.032 . S
O120 C123 1.259 . S
O121 Mg112 2.114 . S
O121 C124 1.252 . S
O122 Mg112 2.251 . S
O122 Mg115 2.079 . S
O122 C124 1.273 . S
C123 O119 1.246 . S
C123 O120 1.259 . S
C124 O121 1.252 . S
C124 O122 1.273 . S
O125 Mg112 2.010 . S
O125 C117 1.249 1_455 S
Mg126 O127 2.028 . S
Mg126 O133 1.986 . S
Mg126 O135 2.114 . S
Mg126 O136 2.251 . S
Mg126 O139 2.010 . S
O127 Mg126 2.028 . S
O127 C130 1.250 . S
O128 Mg129 2.028 . S
O128 C130 1.248 . S
Mg129 O128 2.028 . S
Mg129 O134 2.032 . S
Mg129 O136 2.079 . S
C130 O127 1.250 . S
C130 O128 1.248 . S
C131 O132 1.264 . S
C131 O139 1.249 1_565 S
O132 C131 1.264 . S
O133 Mg126 1.986 . S
O133 C137 1.246 . S
O134 Mg129 2.032 . S
O134 C137 1.259 . S
O135 Mg126 2.114 . S
O135 C138 1.252 . S
O136 Mg126 2.251 . S
O136 Mg129 2.079 . S
O136 C138 1.273 . S
C137 O133 1.246 . S
C137 O134 1.259 . S
C138 O135 1.252 . S
C138 O136 1.273 . S
O139 Mg126 2.010 . S
O139 C131 1.249 1_545 S
Mg140 O141 2.028 . S
Mg140 O147 1.986 . S
Mg140 O149 2.114 . S
Mg140 O150 2.251 . S
Mg140 O153 2.010 . S
O141 Mg140 2.028 . S
O141 C144 1.250 . S
O142 Mg143 2.028 . S
O142 C144 1.248 . S
Mg143 O142 2.028 . S
Mg143 O148 2.032 . S
Mg143 O150 2.079 . S
C144 O141 1.250 . S
C144 O142 1.248 . S
C145 O146 1.264 . S
C145 O153 1.249 . S
O146 C145 1.264 . S
O147 Mg140 1.986 . S
O147 C151 1.246 . S
O148 Mg143 2.032 . S
O148 C151 1.259 . S
O149 Mg140 2.114 . S
O149 C152 1.252 . S
O150 Mg140 2.251 . S
O150 Mg143 2.079 . S
O150 C152 1.273 . S
C151 O147 1.246 . S
C151 O148 1.259 . S
C152 O149 1.252 . S
C152 O150 1.273 . S
O153 Mg140 2.010 . S
O153 C145 1.249 . S
Mg154 O155 2.028 . S
Mg154 O161 1.986 . S
Mg154 O163 2.114 . S
Mg154 O164 2.251 . S
Mg154 O167 2.010 . S
O155 Mg154 2.028 . S
O155 C158 1.250 . S
O156 Mg157 2.028 . S
O156 C158 1.248 . S
Mg157 O156 2.028 . S
Mg157 O162 2.032 . S
Mg157 O164 2.079 . S
C158 O155 1.250 . S
C158 O156 1.248 . S
C159 O160 1.264 . S
C159 O167 1.249 1_455 S
O160 C159 1.264 . S
O161 Mg154 1.986 . S
O161 C165 1.246 . S
O162 Mg157 2.032 . S
O162 C165 1.259 . S
O163 Mg154 2.114 . S
O163 C166 1.252 . S
O164 Mg154 2.251 . S
O164 Mg157 2.079 . S
O164 C166 1.273 . S
C165 O161 1.246 . S
C165 O162 1.259 . S
C166 O163 1.252 . S
C166 O164 1.273 . S
O167 Mg154 2.010 . S
O167 C159 1.249 1_655 S
H168 C180 0.930 . S
H169 C182 0.930 . S
H170 C183 0.930 . S
H171 C187 0.959 . S
H172 C187 0.959 . S
H173 C187 0.961 . S
H174 C188 0.960 . S
H175 C188 0.961 . S
H176 C188 0.959 . S
H177 C191 0.929 . S
H178 C192 0.931 . S
H179 C194 0.930 . S
C180 H168 0.930 . S
C180 C181 1.399 . S
C180 C185 1.399 . S
C181 C180 1.399 . S
C181 C182 1.376 . S
C182 H169 0.930 . S
C182 C181 1.376 . S
C182 C183 1.388 . S
C183 H170 0.930 . S
C183 C182 1.388 . S
C183 C184 1.390 . S
C184 C183 1.390 . S
C184 C185 1.394 . S
C184 C190 1.465 . S
C185 C180 1.399 . S
C185 C184 1.394 . S
C185 C186 1.516 . S
C186 C185 1.516 . S
C186 C187 1.502 . S
C186 C188 1.561 . S
C186 C189 1.526 . S
C187 H171 0.959 . S
C187 H172 0.959 . S
C187 H173 0.961 . S
C187 C186 1.502 . S
C188 H174 0.960 . S
C188 H175 0.961 . S
C188 H176 0.959 . S
C188 C186 1.561 . S
C189 C186 1.526 . S
C189 C190 1.396 . S
C189 C194 1.390 . S
C190 C184 1.465 . S
C190 C189 1.396 . S
C190 C191 1.399 . S
C191 H177 0.929 . S
C191 C190 1.399 . S
C191 C192 1.385 . S
C192 H178 0.931 . S
C192 C191 1.385 . S
C192 C193 1.389 . S
C193 C192 1.389 . S
C193 C194 1.387 . S
C194 H179 0.930 . S
C194 C189 1.390 . S
C194 C193 1.387 . S
H195 C207 0.930 . S
H196 C209 0.930 . S
H197 C210 0.930 . S
H198 C214 0.959 . S
H199 C214 0.959 . S
H200 C214 0.961 . S
H201 C215 0.960 . S
H202 C215 0.961 . S
H203 C215 0.959 . S
H204 C218 0.929 . S
H205 C219 0.931 . S
H206 C221 0.930 . S
C207 H195 0.930 . S
C207 C208 1.399 . S
C207 C212 1.399 . S
C208 C207 1.399 . S
C208 C209 1.376 . S
C209 H196 0.930 . S
C209 C208 1.376 . S
C209 C210 1.388 . S
C210 H197 0.930 . S
C210 C209 1.388 . S
C210 C211 1.390 . S
C211 C210 1.390 . S
C211 C212 1.394 . S
C211 C217 1.465 . S
C212 C207 1.399 . S
C212 C211 1.394 . S
C212 C213 1.516 . S
C213 C212 1.516 . S
C213 C214 1.502 . S
C213 C215 1.561 . S
C213 C216 1.526 . S
C214 H198 0.959 . S
C214 H199 0.959 . S
C214 H200 0.961 . S
C214 C213 1.502 . S
C215 H201 0.960 . S
C215 H202 0.961 . S
C215 H203 0.959 . S
C215 C213 1.561 . S
C216 C213 1.526 . S
C216 C217 1.396 . S
C216 C221 1.390 . S
C217 C211 1.465 . S
C217 C216 1.396 . S
C217 C218 1.399 . S
C218 H204 0.929 . S
C218 C217 1.399 . S
C218 C219 1.385 . S
C219 H205 0.931 . S
C219 C218 1.385 . S
C219 C220 1.389 . S
C220 C219 1.389 . S
C220 C221 1.387 . S
C221 H206 0.930 . S
C221 C216 1.390 . S
C221 C220 1.387 . S
H222 C234 0.930 . S
H223 C236 0.930 . S
H224 C237 0.930 . S
H225 C241 0.959 . S
H226 C241 0.959 . S
H227 C241 0.961 . S
H228 C242 0.960 . S
H229 C242 0.961 . S
H230 C242 0.959 . S
H231 C245 0.929 . S
H232 C246 0.931 . S
H233 C248 0.930 . S
C234 H222 0.930 . S
C234 C235 1.399 . S
C234 C239 1.399 . S
C235 C234 1.399 . S
C235 C236 1.376 . S
C236 H223 0.930 . S
C236 C235 1.376 . S
C236 C237 1.388 . S
C237 H224 0.930 . S
C237 C236 1.388 . S
C237 C238 1.390 . S
C238 C237 1.390 . S
C238 C239 1.394 . S
C238 C244 1.465 . S
C239 C234 1.399 . S
C239 C238 1.394 . S
C239 C240 1.516 . S
C240 C239 1.516 . S
C240 C241 1.502 . S
C240 C242 1.561 . S
C240 C243 1.526 . S
C241 H225 0.959 . S
C241 H226 0.959 . S
C241 H227 0.961 . S
C241 C240 1.502 . S
C242 H228 0.960 . S
C242 H229 0.961 . S
C242 H230 0.959 . S
C242 C240 1.561 . S
C243 C240 1.526 . S
C243 C244 1.396 . S
C243 C248 1.390 . S
C244 C238 1.465 . S
C244 C243 1.396 . S
C244 C245 1.399 . S
C245 H231 0.929 . S
C245 C244 1.399 . S
C245 C246 1.385 . S
C246 H232 0.931 . S
C246 C245 1.385 . S
C246 C247 1.389 . S
C247 C246 1.389 . S
C247 C248 1.387 . S
C248 H233 0.930 . S
C248 C243 1.390 . S
C248 C247 1.387 . S
H249 C261 0.930 . S
H250 C263 0.930 . S
H251 C264 0.930 . S
H252 C268 0.959 . S
H253 C268 0.959 . S
H254 C268 0.961 . S
H255 C269 0.960 . S
H256 C269 0.961 . S
H257 C269 0.959 . S
H258 C272 0.929 . S
H259 C273 0.931 . S
H260 C275 0.930 . S
C261 H249 0.930 . S
C261 C262 1.399 . S
C261 C266 1.399 . S
C262 C261 1.399 . S
C262 C263 1.376 . S
C263 H250 0.930 . S
C263 C262 1.376 . S
C263 C264 1.388 . S
C264 H251 0.930 . S
C264 C263 1.388 . S
C264 C265 1.390 . S
C265 C264 1.390 . S
C265 C266 1.394 . S
C265 C271 1.465 . S
C266 C261 1.399 . S
C266 C265 1.394 . S
C266 C267 1.516 . S
C267 C266 1.516 . S
C267 C268 1.502 . S
C267 C269 1.561 . S
C267 C270 1.526 . S
C268 H252 0.959 . S
C268 H253 0.959 . S
C268 H254 0.961 . S
C268 C267 1.502 . S
C269 H255 0.960 . S
C269 H256 0.961 . S
C269 H257 0.959 . S
C269 C267 1.561 . S
C270 C267 1.526 . S
C270 C271 1.396 . S
C270 C275 1.390 . S
C271 C265 1.465 . S
C271 C270 1.396 . S
C271 C272 1.399 . S
C272 H258 0.929 . S
C272 C271 1.399 . S
C272 C273 1.385 . S
C273 H259 0.931 . S
C273 C272 1.385 . S
C273 C274 1.389 . S
C274 C273 1.389 . S
C274 C275 1.387 . S
C275 H260 0.930 . S
C275 C270 1.390 . S
C275 C274 1.387 . S
H276 C288 0.930 . S
H277 C290 0.930 . S
H278 C291 0.930 . S
H279 C295 0.959 . S
H280 C295 0.959 . S
H281 C295 0.961 . S
H282 C296 0.960 . S
H283 C296 0.961 . S
H284 C296 0.959 . S
H285 C299 0.929 . S
H286 C300 0.931 . S
H287 C302 0.930 . S
C288 H276 0.930 . S
C288 C289 1.399 . S
C288 C293 1.399 . S
C289 C288 1.399 . S
C289 C290 1.376 . S
C290 H277 0.930 . S
C290 C289 1.376 . S
C290 C291 1.388 . S
C291 H278 0.930 . S
C291 C290 1.388 . S
C291 C292 1.390 . S
C292 C291 1.390 . S
C292 C293 1.394 . S
C292 C298 1.465 . S
C293 C288 1.399 . S
C293 C292 1.394 . S
C293 C294 1.516 . S
C294 C293 1.516 . S
C294 C295 1.502 . S
C294 C296 1.561 . S
C294 C297 1.526 . S
C295 H279 0.959 . S
C295 H280 0.959 . S
C295 H281 0.961 . S
C295 C294 1.502 . S
C296 H282 0.960 . S
C296 H283 0.961 . S
C296 H284 0.959 . S
C296 C294 1.561 . S
C297 C294 1.526 . S
C297 C298 1.396 . S
C297 C302 1.390 . S
C298 C292 1.465 . S
C298 C297 1.396 . S
C298 C299 1.399 . S
C299 H285 0.929 . S
C299 C298 1.399 . S
C299 C300 1.385 . S
C300 H286 0.931 . S
C300 C299 1.385 . S
C300 C301 1.389 . S
C301 C300 1.389 . S
C301 C302 1.387 . S
C302 H287 0.930 . S
C302 C297 1.390 . S
C302 C301 1.387 . S
H303 C315 0.930 . S
H304 C317 0.930 . S
H305 C318 0.930 . S
H306 C322 0.959 . S
H307 C322 0.959 . S
H308 C322 0.961 . S
H309 C323 0.960 . S
H310 C323 0.961 . S
H311 C323 0.959 . S
H312 C326 0.929 . S
H313 C327 0.931 . S
H314 C329 0.930 . S
C315 H303 0.930 . S
C315 C316 1.399 . S
C315 C320 1.399 . S
C316 C315 1.399 . S
C316 C317 1.376 . S
C317 H304 0.930 . S
C317 C316 1.376 . S
C317 C318 1.388 . S
C318 H305 0.930 . S
C318 C317 1.388 . S
C318 C319 1.390 . S
C319 C318 1.390 . S
C319 C320 1.394 . S
C319 C325 1.465 . S
C320 C315 1.399 . S
C320 C319 1.394 . S
C320 C321 1.516 . S
C321 C320 1.516 . S
C321 C322 1.502 . S
C321 C323 1.561 . S
C321 C324 1.526 . S
C322 H306 0.959 . S
C322 H307 0.959 . S
C322 H308 0.961 . S
C322 C321 1.502 . S
C323 H309 0.960 . S
C323 H310 0.961 . S
C323 H311 0.959 . S
C323 C321 1.561 . S
C324 C321 1.526 . S
C324 C325 1.396 . S
C324 C329 1.390 . S
C325 C319 1.465 . S
C325 C324 1.396 . S
C325 C326 1.399 . S
C326 H312 0.929 . S
C326 C325 1.399 . S
C326 C327 1.385 . S
C327 H313 0.931 . S
C327 C326 1.385 . S
C327 C328 1.389 . S
C328 C327 1.389 . S
C328 C329 1.387 . S
C329 H314 0.930 . S
C329 C324 1.390 . S
C329 C328 1.387 . S
H330 C342 0.930 . S
H331 C344 0.930 . S
H332 C345 0.930 . S
H333 C349 0.959 . S
H334 C349 0.959 . S
H335 C349 0.961 . S
H336 C350 0.960 . S
H337 C350 0.961 1_556 S
H338 C350 0.959 . S
H339 C353 0.929 . S
H340 C354 0.931 . S
H341 C356 0.930 . S
C342 H330 0.930 . S
C342 C343 1.399 . S
C342 C347 1.399 . S
C343 C342 1.399 . S
C343 C344 1.376 . S
C344 H331 0.930 . S
C344 C343 1.376 . S
C344 C345 1.388 . S
C345 H332 0.930 . S
C345 C344 1.388 . S
C345 C346 1.390 . S
C346 C345 1.390 . S
C346 C347 1.394 . S
C346 C352 1.465 . S
C347 C342 1.399 . S
C347 C346 1.394 . S
C347 C348 1.516 . S
C348 C347 1.516 . S
C348 C349 1.502 1_554 S
C348 C350 1.561 . S
C348 C351 1.526 . S
C349 H333 0.959 . S
C349 H334 0.959 . S
C349 H335 0.961 . S
C349 C348 1.502 1_556 S
C350 H336 0.960 . S
C350 H337 0.961 1_554 S
C350 H338 0.959 . S
C350 C348 1.561 . S
C351 C348 1.526 . S
C351 C352 1.396 . S
C351 C356 1.390 1_554 S
C352 C346 1.465 . S
C352 C351 1.396 . S
C352 C353 1.399 . S
C353 H339 0.929 . S
C353 C352 1.399 . S
C353 C354 1.385 . S
C354 H340 0.931 . S
C354 C353 1.385 . S
C354 C355 1.389 1_554 S
C355 C354 1.389 1_556 S
C355 C356 1.387 . S
C356 H341 0.930 . S
C356 C351 1.390 1_556 S
C356 C355 1.387 . S
H357 C369 0.930 . S
H358 C371 0.930 . S
H359 C372 0.930 . S
H360 C376 0.959 . S
H361 C376 0.959 . S
H362 C376 0.961 . S
H363 C377 0.960 . S
H364 C377 0.961 . S
H365 C377 0.959 . S
H366 C380 0.929 . S
H367 C381 0.931 . S
H368 C383 0.930 . S
C369 H357 0.930 . S
C369 C370 1.399 . S
C369 C374 1.399 . S
C370 C369 1.399 . S
C370 C371 1.376 . S
C371 H358 0.930 . S
C371 C370 1.376 . S
C371 C372 1.388 . S
C372 H359 0.930 . S
C372 C371 1.388 . S
C372 C373 1.390 . S
C373 C372 1.390 . S
C373 C374 1.394 . S
C373 C379 1.465 . S
C374 C369 1.399 . S
C374 C373 1.394 . S
C374 C375 1.516 . S
C375 C374 1.516 . S
C375 C376 1.502 . S
C375 C377 1.561 . S
C375 C378 1.526 . S
C376 H360 0.959 . S
C376 H361 0.959 . S
C376 H362 0.961 . S
C376 C375 1.502 . S
C377 H363 0.960 . S
C377 H364 0.961 . S
C377 H365 0.959 . S
C377 C375 1.561 . S
C378 C375 1.526 . S
C378 C379 1.396 . S
C378 C383 1.390 . S
C379 C373 1.465 . S
C379 C378 1.396 . S
C379 C380 1.399 . S
C380 H366 0.929 . S
C380 C379 1.399 . S
C380 C381 1.385 . S
C381 H367 0.931 . S
C381 C380 1.385 . S
C381 C382 1.389 . S
C382 C381 1.389 . S
C382 C383 1.387 . S
C383 H368 0.930 . S
C383 C378 1.390 . S
C383 C382 1.387 . S
H384 C396 0.930 . S
H385 C398 0.930 . S
H386 C399 0.930 . S
H387 C403 0.959 . S
H388 C403 0.959 . S
H389 C403 0.961 . S
H390 C404 0.960 . S
H391 C404 0.961 . S
H392 C404 0.959 . S
H393 C407 0.929 . S
H394 C408 0.931 1_545 S
H395 C410 0.930 . S
C396 H384 0.930 . S
C396 C397 1.399 . S
C396 C401 1.399 . S
C397 C396 1.399 . S
C397 C398 1.376 . S
C398 H385 0.930 . S
C398 C397 1.376 . S
C398 C399 1.388 . S
C399 H386 0.930 . S
C399 C398 1.388 . S
C399 C400 1.390 . S
C400 C399 1.390 . S
C400 C401 1.394 . S
C400 C406 1.465 . S
C401 C396 1.399 . S
C401 C400 1.394 . S
C401 C402 1.516 . S
C402 C401 1.516 . S
C402 C403 1.502 . S
C402 C404 1.561 . S
C402 C405 1.526 . S
C403 H387 0.959 . S
C403 H388 0.959 . S
C403 H389 0.961 . S
C403 C402 1.502 . S
C404 H390 0.960 . S
C404 H391 0.961 . S
C404 H392 0.959 . S
C404 C402 1.561 . S
C405 C402 1.526 . S
C405 C406 1.396 . S
C405 C410 1.390 . S
C406 C400 1.465 . S
C406 C405 1.396 . S
C406 C407 1.399 . S
C407 H393 0.929 . S
C407 C406 1.399 . S
C407 C408 1.385 . S
C408 H394 0.931 1_565 S
C408 C407 1.385 . S
C408 C409 1.389 . S
C409 C408 1.389 . S
C409 C410 1.387 . S
C410 H395 0.930 . S
C410 C405 1.390 . S
C410 C409 1.387 . S
H411 C423 0.930 . S
H412 C425 0.930 . S
H413 C426 0.930 . S
H414 C430 0.959 . S
H415 C430 0.959 . S
H416 C430 0.961 . S
H417 C431 0.960 . S
H418 C431 0.961 . S
H419 C431 0.959 . S
H420 C434 0.929 . S
H421 C435 0.931 . S
H422 C437 0.930 . S
C423 H411 0.930 . S
C423 C424 1.399 . S
C423 C428 1.399 . S
C424 C423 1.399 . S
C424 C425 1.376 . S
C425 H412 0.930 . S
C425 C424 1.376 . S
C425 C426 1.388 . S
C426 H413 0.930 . S
C426 C425 1.388 . S
C426 C427 1.390 . S
C427 C426 1.390 . S
C427 C428 1.394 . S
C427 C433 1.465 . S
C428 C423 1.399 . S
C428 C427 1.394 . S
C428 C429 1.516 . S
C429 C428 1.516 . S
C429 C430 1.502 . S
C429 C431 1.561 . S
C429 C432 1.526 . S
C430 H414 0.959 . S
C430 H415 0.959 . S
C430 H416 0.961 . S
C430 C429 1.502 . S
C431 H417 0.960 . S
C431 H418 0.961 . S
C431 H419 0.959 . S
C431 C429 1.561 . S
C432 C429 1.526 . S
C432 C433 1.396 . S
C432 C437 1.390 . S
C433 C427 1.465 . S
C433 C432 1.396 . S
C433 C434 1.399 . S
C434 H420 0.929 . S
C434 C433 1.399 . S
C434 C435 1.385 . S
C435 H421 0.931 . S
C435 C434 1.385 . S
C435 C436 1.389 . S
C436 C435 1.389 . S
C436 C437 1.387 . S
C437 H422 0.930 . S
C437 C432 1.390 . S
C437 C436 1.387 . S
H438 C450 0.930 . S
H439 C452 0.930 . S
H440 C453 0.930 . S
H441 C457 0.959 . S
H442 C457 0.959 . S
H443 C457 0.961 . S
H444 C458 0.960 . S
H445 C458 0.961 . S
H446 C458 0.959 . S
H447 C461 0.929 . S
H448 C462 0.931 . S
H449 C464 0.930 . S
C450 H438 0.930 . S
C450 C451 1.399 . S
C450 C455 1.399 . S
C451 C450 1.399 . S
C451 C452 1.376 . S
C452 H439 0.930 . S
C452 C451 1.376 . S
C452 C453 1.388 . S
C453 H440 0.930 . S
C453 C452 1.388 . S
C453 C454 1.390 . S
C454 C453 1.390 . S
C454 C455 1.394 . S
C454 C460 1.465 . S
C455 C450 1.399 . S
C455 C454 1.394 . S
C455 C456 1.516 . S
C456 C455 1.516 . S
C456 C457 1.502 . S
C456 C458 1.561 . S
C456 C459 1.526 . S
C457 H441 0.959 . S
C457 H442 0.959 . S
C457 H443 0.961 . S
C457 C456 1.502 . S
C458 H444 0.960 . S
C458 H445 0.961 . S
C458 H446 0.959 . S
C458 C456 1.561 . S
C459 C456 1.526 . S
C459 C460 1.396 . S
C459 C464 1.390 . S
C460 C454 1.465 . S
C460 C459 1.396 . S
C460 C461 1.399 . S
C461 H447 0.929 . S
C461 C460 1.399 . S
C461 C462 1.385 . S
C462 H448 0.931 . S
C462 C461 1.385 . S
C462 C463 1.389 . S
C463 C462 1.389 . S
C463 C464 1.387 . S
C464 H449 0.930 . S
C464 C459 1.390 . S
C464 C463 1.387 . S
H465 C477 0.930 . S
H466 C479 0.930 1_565 S
H467 C480 0.930 . S
H468 C484 0.959 . S
H469 C484 0.959 . S
H470 C484 0.961 . S
H471 C485 0.960 . S
H472 C485 0.961 . S
H473 C485 0.959 . S
H474 C488 0.929 . S
H475 C489 0.931 . S
H476 C491 0.930 . S
C477 H465 0.930 . S
C477 C478 1.399 . S
C477 C482 1.399 . S
C478 C477 1.399 . S
C478 C479 1.376 . S
C479 H466 0.930 1_545 S
C479 C478 1.376 . S
C479 C480 1.388 . S
C480 H467 0.930 . S
C480 C479 1.388 . S
C480 C481 1.390 . S
C481 C480 1.390 . S
C481 C482 1.394 . S
C481 C487 1.465 . S
C482 C477 1.399 . S
C482 C481 1.394 . S
C482 C483 1.516 . S
C483 C482 1.516 . S
C483 C484 1.502 . S
C483 C485 1.561 . S
C483 C486 1.526 . S
C484 H468 0.959 . S
C484 H469 0.959 . S
C484 H470 0.961 . S
C484 C483 1.502 . S
C485 H471 0.960 . S
C485 H472 0.961 . S
C485 H473 0.959 . S
C485 C483 1.561 . S
C486 C483 1.526 . S
C486 C487 1.396 . S
C486 C491 1.390 . S
C487 C481 1.465 . S
C487 C486 1.396 . S
C487 C488 1.399 . S
C488 H474 0.929 . S
C488 C487 1.399 . S
C488 C489 1.385 . S
C489 H475 0.931 . S
C489 C488 1.385 . S
C489 C490 1.389 . S
C490 C489 1.389 . S
C490 C491 1.387 . S
C491 H476 0.930 . S
C491 C486 1.390 . S
C491 C490 1.387 . S
H492 C504 0.930 . S
H493 C506 0.930 . S
H494 C507 0.930 . S
H495 C511 0.959 . S
H496 C511 0.959 . S
H497 C511 0.961 . S
H498 C512 0.960 . S
H499 C512 0.961 . S
H500 C512 0.959 . S
H501 C515 0.929 . S
H502 C516 0.931 . S
H503 C518 0.930 . S
C504 H492 0.930 . S
C504 C505 1.399 . S
C504 C509 1.399 . S
C505 C504 1.399 . S
C505 C506 1.376 . S
C506 H493 0.930 . S
C506 C505 1.376 . S
C506 C507 1.388 . S
C507 H494 0.930 . S
C507 C506 1.388 . S
C507 C508 1.390 . S
C508 C507 1.390 . S
C508 C509 1.394 . S
C508 C514 1.465 . S
C509 C504 1.399 . S
C509 C508 1.394 . S
C509 C510 1.516 . S
C510 C509 1.516 . S
C510 C511 1.502 . S
C510 C512 1.561 . S
C510 C513 1.526 . S
C511 H495 0.959 . S
C511 H496 0.959 . S
C511 H497 0.961 . S
C511 C510 1.502 . S
C512 H498 0.960 . S
C512 H499 0.961 . S
C512 H500 0.959 . S
C512 C510 1.561 . S
C513 C510 1.526 . S
C513 C514 1.396 . S
C513 C518 1.390 . S
C514 C508 1.465 . S
C514 C513 1.396 . S
C514 C515 1.399 . S
C515 H501 0.929 . S
C515 C514 1.399 . S
C515 C516 1.385 . S
C516 H502 0.931 . S
C516 C515 1.385 . S
C516 C517 1.389 . S
C517 C516 1.389 . S
C517 C518 1.387 . S
C518 H503 0.930 . S
C518 C513 1.390 . S
C518 C517 1.387 . S
H519 C531 0.930 . S
H520 C533 0.930 . S
H521 C534 0.930 . S
H522 C538 0.959 . S
H523 C538 0.959 . S
H524 C538 0.961 . S
H525 C539 0.960 . S
H526 C539 0.961 . S
H527 C539 0.959 . S
H528 C542 0.929 . S
H529 C543 0.931 . S
H530 C545 0.930 . S
C531 H519 0.930 . S
C531 C532 1.399 . S
C531 C536 1.399 . S
C532 C531 1.399 . S
C532 C533 1.376 . S
C533 H520 0.930 . S
C533 C532 1.376 . S
C533 C534 1.388 . S
C534 H521 0.930 . S
C534 C533 1.388 . S
C534 C535 1.390 . S
C535 C534 1.390 . S
C535 C536 1.394 . S
C535 C541 1.465 . S
C536 C531 1.399 . S
C536 C535 1.394 . S
C536 C537 1.516 . S
C537 C536 1.516 . S
C537 C538 1.502 . S
C537 C539 1.561 . S
C537 C540 1.526 . S
C538 H522 0.959 . S
C538 H523 0.959 . S
C538 H524 0.961 . S
C538 C537 1.502 . S
C539 H525 0.960 . S
C539 H526 0.961 . S
C539 H527 0.959 . S
C539 C537 1.561 . S
C540 C537 1.526 . S
C540 C541 1.396 . S
C540 C545 1.390 . S
C541 C535 1.465 . S
C541 C540 1.396 . S
C541 C542 1.399 1_556 S
C542 H528 0.929 . S
C542 C541 1.399 1_554 S
C542 C543 1.385 . S
C543 H529 0.931 . S
C543 C542 1.385 . S
C543 C544 1.389 . S
C544 C543 1.389 . S
C544 C545 1.387 1_554 S
C545 H530 0.930 . S
C545 C540 1.390 . S
C545 C544 1.387 1_556 S
H546 C558 0.930 . S
H547 C560 0.930 . S
H548 C561 0.930 . S
H549 C565 0.959 . S
H550 C565 0.959 . S
H551 C565 0.961 . S
H552 C566 0.960 . S
H553 C566 0.961 . S
H554 C566 0.959 . S
H555 C569 0.929 . S
H556 C570 0.931 . S
H557 C572 0.930 . S
C558 H546 0.930 . S
C558 C559 1.399 . S
C558 C563 1.399 . S
C559 C558 1.399 . S
C559 C560 1.376 . S
C560 H547 0.930 . S
C560 C559 1.376 . S
C560 C561 1.388 . S
C561 H548 0.930 . S
C561 C560 1.388 . S
C561 C562 1.390 . S
C562 C561 1.390 . S
C562 C563 1.394 . S
C562 C568 1.465 . S
C563 C558 1.399 . S
C563 C562 1.394 . S
C563 C564 1.516 . S
C564 C563 1.516 . S
C564 C565 1.502 . S
C564 C566 1.561 . S
C564 C567 1.526 . S
C565 H549 0.959 . S
C565 H550 0.959 . S
C565 H551 0.961 . S
C565 C564 1.502 . S
C566 H552 0.960 . S
C566 H553 0.961 . S
C566 H554 0.959 . S
C566 C564 1.561 . S
C567 C564 1.526 . S
C567 C568 1.396 . S
C567 C572 1.390 . S
C568 C562 1.465 . S
C568 C567 1.396 . S
C568 C569 1.399 . S
C569 H555 0.929 . S
C569 C568 1.399 . S
C569 C570 1.385 . S
C570 H556 0.931 . S
C570 C569 1.385 . S
C570 C571 1.389 . S
C571 C570 1.389 . S
C571 C572 1.387 . S
C572 H557 0.930 . S
C572 C567 1.390 . S
C572 C571 1.387 . S
H573 C585 0.930 . S
H574 C587 0.930 . S
H575 C588 0.930 . S
H576 C592 0.959 . S
H577 C592 0.959 . S
H578 C592 0.961 . S
H579 C593 0.960 . S
H580 C593 0.961 . S
H581 C593 0.959 . S
H582 C596 0.929 . S
H583 C597 0.931 . S
H584 C599 0.930 . S
C585 H573 0.930 . S
C585 C586 1.399 . S
C585 C590 1.399 . S
C586 C585 1.399 . S
C586 C587 1.376 . S
C587 H574 0.930 . S
C587 C586 1.376 . S
C587 C588 1.388 . S
C588 H575 0.930 . S
C588 C587 1.388 . S
C588 C589 1.390 . S
C589 C588 1.390 . S
C589 C590 1.394 . S
C589 C595 1.465 . S
C590 C585 1.399 . S
C590 C589 1.394 . S
C590 C591 1.516 . S
C591 C590 1.516 . S
C591 C592 1.502 . S
C591 C593 1.561 . S
C591 C594 1.526 . S
C592 H576 0.959 . S
C592 H577 0.959 . S
C592 H578 0.961 . S
C592 C591 1.502 . S
C593 H579 0.960 . S
C593 H580 0.961 . S
C593 H581 0.959 . S
C593 C591 1.561 . S
C594 C591 1.526 . S
C594 C595 1.396 . S
C594 C599 1.390 . S
C595 C589 1.465 . S
C595 C594 1.396 . S
C595 C596 1.399 . S
C596 H582 0.929 . S
C596 C595 1.399 . S
C596 C597 1.385 . S
C597 H583 0.931 . S
C597 C596 1.385 . S
C597 C598 1.389 . S
C598 C597 1.389 . S
C598 C599 1.387 . S
C599 H584 0.930 . S
C599 C594 1.390 . S
C599 C598 1.387 . S
H600 C612 0.930 . S
H601 C614 0.930 . S
H602 C615 0.930 . S
H603 C619 0.959 . S
H604 C619 0.959 . S
H605 C619 0.961 . S
H606 C620 0.960 . S
H607 C620 0.961 . S
H608 C620 0.959 . S
H609 C623 0.929 . S
H610 C624 0.931 1_655 S
H611 C626 0.930 . S
C612 H600 0.930 . S
C612 C613 1.399 . S
C612 C617 1.399 . S
C613 C612 1.399 . S
C613 C614 1.376 . S
C614 H601 0.930 . S
C614 C613 1.376 . S
C614 C615 1.388 . S
C615 H602 0.930 . S
C615 C614 1.388 . S
C615 C616 1.390 . S
C616 C615 1.390 . S
C616 C617 1.394 . S
C616 C622 1.465 . S
C617 C612 1.399 . S
C617 C616 1.394 . S
C617 C618 1.516 . S
C618 C617 1.516 . S
C618 C619 1.502 . S
C618 C620 1.561 . S
C618 C621 1.526 . S
C619 H603 0.959 . S
C619 H604 0.959 . S
C619 H605 0.961 . S
C619 C618 1.502 . S
C620 H606 0.960 . S
C620 H607 0.961 . S
C620 H608 0.959 . S
C620 C618 1.561 . S
C621 C618 1.526 . S
C621 C622 1.396 . S
C621 C626 1.390 . S
C622 C616 1.465 . S
C622 C621 1.396 . S
C622 C623 1.399 . S
C623 H609 0.929 . S
C623 C622 1.399 . S
C623 C624 1.385 . S
C624 H610 0.931 1_455 S
C624 C623 1.385 . S
C624 C625 1.389 . S
C625 C624 1.389 . S
C625 C626 1.387 . S
C626 H611 0.930 . S
C626 C621 1.390 . S
C626 C625 1.387 . S
H627 C639 0.930 . S
H628 C641 0.930 . S
H629 C642 0.930 . S
H630 C646 0.959 . S
H631 C646 0.959 . S
H632 C646 0.961 . S
H633 C647 0.960 . S
H634 C647 0.961 . S
H635 C647 0.959 . S
H636 C650 0.929 . S
H637 C651 0.931 . S
H638 C653 0.930 . S
C639 H627 0.930 . S
C639 C640 1.399 . S
C639 C644 1.399 . S
C640 C639 1.399 . S
C640 C641 1.376 . S
C641 H628 0.930 . S
C641 C640 1.376 . S
C641 C642 1.388 . S
C642 H629 0.930 . S
C642 C641 1.388 . S
C642 C643 1.390 . S
C643 C642 1.390 . S
C643 C644 1.394 . S
C643 C649 1.465 . S
C644 C639 1.399 . S
C644 C643 1.394 . S
C644 C645 1.516 . S
C645 C644 1.516 . S
C645 C646 1.502 . S
C645 C647 1.561 . S
C645 C648 1.526 . S
C646 H630 0.959 . S
C646 H631 0.959 . S
C646 H632 0.961 . S
C646 C645 1.502 . S
C647 H633 0.960 . S
C647 H634 0.961 . S
C647 H635 0.959 . S
C647 C645 1.561 . S
C648 C645 1.526 . S
C648 C649 1.396 . S
C648 C653 1.390 . S
C649 C643 1.465 . S
C649 C648 1.396 . S
C649 C650 1.399 . S
C650 H636 0.929 . S
C650 C649 1.399 . S
C650 C651 1.385 . S
C651 H637 0.931 . S
C651 C650 1.385 . S
C651 C652 1.389 . S
C652 C651 1.389 . S
C652 C653 1.387 . S
C653 H638 0.930 . S
C653 C648 1.390 . S
C653 C652 1.387 . S
H654 C666 0.930 . S
H655 C668 0.930 . S
H656 C669 0.930 . S
H657 C673 0.959 . S
H658 C673 0.959 . S
H659 C673 0.961 . S
H660 C674 0.960 . S
H661 C674 0.961 . S
H662 C674 0.959 . S
H663 C677 0.929 . S
H664 C678 0.931 . S
H665 C680 0.930 . S
C666 H654 0.930 . S
C666 C667 1.399 . S
C666 C671 1.399 . S
C667 C666 1.399 . S
C667 C668 1.376 . S
C668 H655 0.930 . S
C668 C667 1.376 . S
C668 C669 1.388 . S
C669 H656 0.930 . S
C669 C668 1.388 . S
C669 C670 1.390 . S
C670 C669 1.390 . S
C670 C671 1.394 . S
C670 C676 1.465 . S
C671 C666 1.399 . S
C671 C670 1.394 . S
C671 C672 1.516 . S
C672 C671 1.516 . S
C672 C673 1.502 . S
C672 C674 1.561 . S
C672 C675 1.526 . S
C673 H657 0.959 . S
C673 H658 0.959 . S
C673 H659 0.961 . S
C673 C672 1.502 . S
C674 H660 0.960 . S
C674 H661 0.961 . S
C674 H662 0.959 . S
C674 C672 1.561 . S
C675 C672 1.526 . S
C675 C676 1.396 . S
C675 C680 1.390 . S
C676 C670 1.465 . S
C676 C675 1.396 . S
C676 C677 1.399 . S
C677 H663 0.929 . S
C677 C676 1.399 . S
C677 C678 1.385 . S
C678 H664 0.931 . S
C678 C677 1.385 . S
C678 C679 1.389 . S
C679 C678 1.389 . S
C679 C680 1.387 . S
C680 H665 0.930 . S
C680 C675 1.390 . S
C680 C679 1.387 . S
H681 C693 0.930 . S
H682 C695 0.930 . S
H683 C696 0.930 . S
H684 C700 0.959 . S
H685 C700 0.959 . S
H686 C700 0.961 . S
H687 C701 0.960 . S
H688 C701 0.961 . S
H689 C701 0.959 . S
H690 C704 0.929 . S
H691 C705 0.931 . S
H692 C707 0.930 . S
C693 H681 0.930 . S
C693 C694 1.399 . S
C693 C698 1.399 . S
C694 C693 1.399 . S
C694 C695 1.376 . S
C695 H682 0.930 . S
C695 C694 1.376 . S
C695 C696 1.388 . S
C696 H683 0.930 . S
C696 C695 1.388 . S
C696 C697 1.390 . S
C697 C696 1.390 . S
C697 C698 1.394 . S
C697 C703 1.465 . S
C698 C693 1.399 . S
C698 C697 1.394 . S
C698 C699 1.516 . S
C699 C698 1.516 . S
C699 C700 1.502 . S
C699 C701 1.561 . S
C699 C702 1.526 . S
C700 H684 0.959 . S
C700 H685 0.959 . S
C700 H686 0.961 . S
C700 C699 1.502 . S
C701 H687 0.960 . S
C701 H688 0.961 . S
C701 H689 0.959 . S
C701 C699 1.561 . S
C702 C699 1.526 . S
C702 C703 1.396 . S
C702 C707 1.390 . S
C703 C697 1.465 . S
C703 C702 1.396 . S
C703 C704 1.399 . S
C704 H690 0.929 . S
C704 C703 1.399 . S
C704 C705 1.385 . S
C705 H691 0.931 . S
C705 C704 1.385 . S
C705 C706 1.389 . S
C706 C705 1.389 . S
C706 C707 1.387 . S
C707 H692 0.930 . S
C707 C702 1.390 . S
C707 C706 1.387 . S
H708 C720 0.930 . S
H709 C722 0.930 . S
H710 C723 0.930 . S
H711 C727 0.959 . S
H712 C727 0.959 . S
H713 C727 0.961 . S
H714 C728 0.960 . S
H715 C728 0.961 . S
H716 C728 0.959 . S
H717 C731 0.929 . S
H718 C732 0.931 . S
H719 C734 0.930 . S
C720 H708 0.930 . S
C720 C721 1.399 . S
C720 C725 1.399 . S
C721 C720 1.399 . S
C721 C722 1.376 . S
C722 H709 0.930 . S
C722 C721 1.376 . S
C722 C723 1.388 . S
C723 H710 0.930 . S
C723 C722 1.388 . S
C723 C724 1.390 . S
C724 C723 1.390 . S
C724 C725 1.394 . S
C724 C730 1.465 . S
C725 C720 1.399 . S
C725 C724 1.394 . S
C725 C726 1.516 . S
C726 C725 1.516 . S
C726 C727 1.502 . S
C726 C728 1.561 . S
C726 C729 1.526 . S
C727 H711 0.959 . S
C727 H712 0.959 . S
C727 H713 0.961 . S
C727 C726 1.502 . S
C728 H714 0.960 . S
C728 H715 0.961 . S
C728 H716 0.959 . S
C728 C726 1.561 . S
C729 C726 1.526 . S
C729 C730 1.396 . S
C729 C734 1.390 . S
C730 C724 1.465 . S
C730 C729 1.396 . S
C730 C731 1.399 . S
C731 H717 0.929 . S
C731 C730 1.399 . S
C731 C732 1.385 . S
C732 H718 0.931 . S
C732 C731 1.385 . S
C732 C733 1.389 . S
C733 C732 1.389 . S
C733 C734 1.387 . S
C734 H719 0.930 . S
C734 C729 1.390 . S
C734 C733 1.387 . S
H735 C747 0.930 . S
H736 C749 0.930 . S
H737 C750 0.930 . S
H738 C754 0.959 . S
H739 C754 0.959 . S
H740 C754 0.961 . S
H741 C755 0.960 . S
H742 C755 0.961 . S
H743 C755 0.959 . S
H744 C758 0.929 . S
H745 C759 0.931 . S
H746 C761 0.930 . S
C747 H735 0.930 . S
C747 C748 1.399 . S
C747 C752 1.399 . S
C748 C747 1.399 . S
C748 C749 1.376 . S
C749 H736 0.930 . S
C749 C748 1.376 . S
C749 C750 1.388 . S
C750 H737 0.930 . S
C750 C749 1.388 . S
C750 C751 1.390 . S
C751 C750 1.390 . S
C751 C752 1.394 . S
C751 C757 1.465 . S
C752 C747 1.399 . S
C752 C751 1.394 . S
C752 C753 1.516 . S
C753 C752 1.516 . S
C753 C754 1.502 . S
C753 C755 1.561 . S
C753 C756 1.526 . S
C754 H738 0.959 . S
C754 H739 0.959 . S
C754 H740 0.961 . S
C754 C753 1.502 . S
C755 H741 0.960 . S
C755 H742 0.961 . S
C755 H743 0.959 . S
C755 C753 1.561 . S
C756 C753 1.526 . S
C756 C757 1.396 . S
C756 C761 1.390 . S
C757 C751 1.465 . S
C757 C756 1.396 . S
C757 C758 1.399 . S
C758 H744 0.929 . S
C758 C757 1.399 . S
C758 C759 1.385 . S
C759 H745 0.931 . S
C759 C758 1.385 . S
C759 C760 1.389 . S
C760 C759 1.389 . S
C760 C761 1.387 . S
C761 H746 0.930 . S
C761 C756 1.390 . S
C761 C760 1.387 . S
H762 C774 0.930 . S
H763 C776 0.930 . S
H764 C777 0.930 . S
H765 C781 0.959 . S
H766 C781 0.959 . S
H767 C781 0.961 . S
H768 C782 0.960 . S
H769 C782 0.961 . S
H770 C782 0.959 . S
H771 C785 0.929 . S
H772 C786 0.931 1_554 S
H773 C788 0.930 . S
C774 H762 0.930 . S
C774 C775 1.399 . S
C774 C779 1.399 . S
C775 C774 1.399 . S
C775 C776 1.376 . S
C776 H763 0.930 . S
C776 C775 1.376 . S
C776 C777 1.388 . S
C777 H764 0.930 . S
C777 C776 1.388 . S
C777 C778 1.390 . S
C778 C777 1.390 . S
C778 C779 1.394 . S
C778 C784 1.465 . S
C779 C774 1.399 . S
C779 C778 1.394 . S
C779 C780 1.516 . S
C780 C779 1.516 . S
C780 C781 1.502 . S
C780 C782 1.561 . S
C780 C783 1.526 . S
C781 H765 0.959 . S
C781 H766 0.959 . S
C781 H767 0.961 . S
C781 C780 1.502 . S
C782 H768 0.960 . S
C782 H769 0.961 . S
C782 H770 0.959 . S
C782 C780 1.561 . S
C783 C780 1.526 . S
C783 C784 1.396 . S
C783 C788 1.390 . S
C784 C778 1.465 . S
C784 C783 1.396 . S
C784 C785 1.399 . S
C785 H771 0.929 . S
C785 C784 1.399 . S
C785 C786 1.385 . S
C786 H772 0.931 1_556 S
C786 C785 1.385 . S
C786 C787 1.389 . S
C787 C786 1.389 . S
C787 C788 1.387 . S
C788 H773 0.930 . S
C788 C783 1.390 . S
C788 C787 1.387 . S
H789 C801 0.930 . S
H790 C803 0.930 . S
H791 C804 0.930 . S
H792 C808 0.959 . S
H793 C808 0.959 . S
H794 C808 0.961 . S
H795 C809 0.960 . S
H796 C809 0.961 . S
H797 C809 0.959 . S
H798 C812 0.929 . S
H799 C813 0.931 . S
H800 C815 0.930 . S
C801 H789 0.930 . S
C801 C802 1.399 . S
C801 C806 1.399 . S
C802 C801 1.399 . S
C802 C803 1.376 . S
C803 H790 0.930 . S
C803 C802 1.376 . S
C803 C804 1.388 . S
C804 H791 0.930 . S
C804 C803 1.388 . S
C804 C805 1.390 . S
C805 C804 1.390 . S
C805 C806 1.394 . S
C805 C811 1.465 . S
C806 C801 1.399 . S
C806 C805 1.394 . S
C806 C807 1.516 . S
C807 C806 1.516 . S
C807 C808 1.502 . S
C807 C809 1.561 . S
C807 C810 1.526 . S
C808 H792 0.959 . S
C808 H793 0.959 . S
C808 H794 0.961 . S
C808 C807 1.502 . S
C809 H795 0.960 . S
C809 H796 0.961 . S
C809 H797 0.959 . S
C809 C807 1.561 . S
C810 C807 1.526 . S
C810 C811 1.396 . S
C810 C815 1.390 . S
C811 C805 1.465 . S
C811 C810 1.396 . S
C811 C812 1.399 . S
C812 H798 0.929 . S
C812 C811 1.399 . S
C812 C813 1.385 . S
C813 H799 0.931 . S
C813 C812 1.385 . S
C813 C814 1.389 . S
C814 C813 1.389 . S
C814 C815 1.387 . S
C815 H800 0.930 . S
C815 C810 1.390 . S
C815 C814 1.387 . S
C181 C123 1.322 . S
C193 C11 1.321 . S
C208 C25 1.360 . S
C220 C137 1.358 . S
C235 C39 1.322 . S
C247 C151 1.321 . S
C262 C53 1.322 . S
C274 C165 1.321 . S
C289 C95 1.326 . S
C301 C67 1.328 . S
C316 C81 1.352 . S
C328 C109 1.354 . S
C343 C12 1.354 . S
C355 C75 1.316 . S
C370 C26 1.384 . S
C382 C5 1.194 . S
C397 C40 1.350 . S
C409 C19 1.307 . S
C424 C33 1.240 . S
C436 C54 1.378 . S
C451 C47 1.313 . S
C463 C68 1.350 . S
C478 C61 1.278 . S
C490 C82 1.369 . S
C505 C103 1.259 . S
C517 C96 1.358 . S
C532 C110 1.375 . S
C544 C117 1.201 . S
C559 C131 1.213 . S
C571 C124 1.370 . S
C586 C138 1.355 . S
C598 C145 1.272 . S
C613 C152 1.357 . S
C625 C159 1.311 . S
C640 C166 1.379 . S
C652 C89 1.238 . S
C667 C144 1.217 . S
C679 C4 1.249 . S
C694 C158 1.251 . S
C706 C18 1.269 . S
C721 C88 1.221 . S
C733 C32 1.240 . S
C748 C46 1.217 . S
C760 C102 1.248 . S
C775 C60 1.269 . S
C787 C116 1.218 1_556 S
C802 C130 1.220 . S
C814 C74 1.272 1_554 S
