# Generated by pormake.
# Topology neb, (4)-cn, num edge types: 1
# Building blocks:
#     Node 0, Type 0, BuildingBlock: GALJAG_clean_sbu_0, # of connection points: 4
#     Node 1, Type 0, BuildingBlock: GALJAG_clean_sbu_0, # of connection points: 4
#     Node 2, Type 0, BuildingBlock: GALJAG_clean_sbu_0, # of connection points: 4
#     Node 3, Type 0, BuildingBlock: GALJAG_clean_sbu_0, # of connection points: 4
#     Node 4, Type 0, BuildingBlock: GALJAG_clean_sbu_0, # of connection points: 4
#     Node 5, Type 0, BuildingBlock: GALJAG_clean_sbu_0, # of connection points: 4
#     Node 6, Type 0, BuildingBlock: GALJAG_clean_sbu_0, # of connection points: 4
#     Node 7, Type 0, BuildingBlock: GALJAG_clean_sbu_0, # of connection points: 4
#     Node 8, Type 0, BuildingBlock: GALJAG_clean_sbu_0, # of connection points: 4
#     Node 9, Type 0, BuildingBlock: GALJAG_clean_sbu_0, # of connection points: 4
#     Node 10, Type 0, BuildingBlock: GALJAG_clean_sbu_0, # of connection points: 4
#     Node 11, Type 0, BuildingBlock: GALJAG_clean_sbu_0, # of connection points: 4
#     Node 12, Type 0, BuildingBlock: GALJAG_clean_sbu_0, # of connection points: 4
#     Node 13, Type 0, BuildingBlock: GALJAG_clean_sbu_0, # of connection points: 4
#     Node 14, Type 0, BuildingBlock: GALJAG_clean_sbu_0, # of connection points: 4
#     Node 15, Type 0, BuildingBlock: GALJAG_clean_sbu_0, # of connection points: 4
#     Edge 16, Type (0, 0), BuildingBlock: AJUNOK_clean_linker_0, # of connection points: 2
#     Edge 17, Type (0, 0), BuildingBlock: AJUNOK_clean_linker_0, # of connection points: 2
#     Edge 18, Type (0, 0), BuildingBlock: AJUNOK_clean_linker_0, # of connection points: 2
#     Edge 19, Type (0, 0), BuildingBlock: AJUNOK_clean_linker_0, # of connection points: 2
#     Edge 20, Type (0, 0), BuildingBlock: AJUNOK_clean_linker_0, # of connection points: 2
#     Edge 21, Type (0, 0), BuildingBlock: AJUNOK_clean_linker_0, # of connection points: 2
#     Edge 22, Type (0, 0), BuildingBlock: AJUNOK_clean_linker_0, # of connection points: 2
#     Edge 23, Type (0, 0), BuildingBlock: AJUNOK_clean_linker_0, # of connection points: 2
#     Edge 24, Type (0, 0), BuildingBlock: AJUNOK_clean_linker_0, # of connection points: 2
#     Edge 25, Type (0, 0), BuildingBlock: AJUNOK_clean_linker_0, # of connection points: 2
#     Edge 26, Type (0, 0), BuildingBlock: AJUNOK_clean_linker_0, # of connection points: 2
#     Edge 27, Type (0, 0), BuildingBlock: AJUNOK_clean_linker_0, # of connection points: 2
#     Edge 28, Type (0, 0), BuildingBlock: AJUNOK_clean_linker_0, # of connection points: 2
#     Edge 29, Type (0, 0), BuildingBlock: AJUNOK_clean_linker_0, # of connection points: 2
#     Edge 30, Type (0, 0), BuildingBlock: AJUNOK_clean_linker_0, # of connection points: 2
#     Edge 31, Type (0, 0), BuildingBlock: AJUNOK_clean_linker_0, # of connection points: 2
#     Edge 32, Type (0, 0), BuildingBlock: AJUNOK_clean_linker_0, # of connection points: 2
#     Edge 33, Type (0, 0), BuildingBlock: AJUNOK_clean_linker_0, # of connection points: 2
#     Edge 34, Type (0, 0), BuildingBlock: AJUNOK_clean_linker_0, # of connection points: 2
#     Edge 35, Type (0, 0), BuildingBlock: AJUNOK_clean_linker_0, # of connection points: 2
#     Edge 36, Type (0, 0), BuildingBlock: AJUNOK_clean_linker_0, # of connection points: 2
#     Edge 37, Type (0, 0), BuildingBlock: AJUNOK_clean_linker_0, # of connection points: 2
#     Edge 38, Type (0, 0), BuildingBlock: AJUNOK_clean_linker_0, # of connection points: 2
#     Edge 39, Type (0, 0), BuildingBlock: AJUNOK_clean_linker_0, # of connection points: 2
#     Edge 40, Type (0, 0), BuildingBlock: AJUNOK_clean_linker_0, # of connection points: 2
#     Edge 41, Type (0, 0), BuildingBlock: AJUNOK_clean_linker_0, # of connection points: 2
#     Edge 42, Type (0, 0), BuildingBlock: AJUNOK_clean_linker_0, # of connection points: 2
#     Edge 43, Type (0, 0), BuildingBlock: AJUNOK_clean_linker_0, # of connection points: 2
#     Edge 44, Type (0, 0), BuildingBlock: AJUNOK_clean_linker_0, # of connection points: 2
#     Edge 45, Type (0, 0), BuildingBlock: AJUNOK_clean_linker_0, # of connection points: 2
#     Edge 46, Type (0, 0), BuildingBlock: AJUNOK_clean_linker_0, # of connection points: 2
#     Edge 47, Type (0, 0), BuildingBlock: AJUNOK_clean_linker_0, # of connection points: 2
# Relax obj value: 0.003
# Max RMSD: 0.033
# Mean RMSD: 0.033
data_MOF--net-neb--node1-GALJAG_clean_sbu_0--edge1-AJUNOK_clean_linker_0
_symmetry_space_group_name_H-M    P1
_symmetry_Int_Tables_number       1
_symmetry_cell_setting            triclinic
loop_
_symmetry_equiv_pos_as_xyz
'x, y, z'
_cell_length_a     31.259622
_cell_length_b     18.262266
_cell_length_c     52.015373
_cell_angle_alpha  90.079882
_cell_angle_beta   90.401229
_cell_angle_gamma 89.982743
loop_
_atom_site_label
_atom_site_type_symbol
_atom_site_fract_x
_atom_site_fract_y
_atom_site_fract_z
_atom_type_partial_charge
In0 In 0.12334 0.13146 0.43566 0.0
O1 O 0.15841 0.02474 0.42626 0.0
O2 O 0.11137 0.06331 0.39974 0.0
C3 C 0.1844 0.19822 0.46435 0.0
C4 C 0.06442 0.0698 0.46681 0.0
C5 C 0.1073 0.24605 0.40451 0.0
O6 O 0.19344 0.15103 0.44745 0.0
O7 O 0.145 0.21031 0.46679 0.0
O8 O 0.08776 0.23704 0.42545 0.0
O9 O 0.13422 0.19696 0.39918 0.0
C10 C 0.13851 0.01463 0.40534 0.0
O11 O 0.05392 0.10927 0.44787 0.0
O12 O 0.10415 0.06242 0.46989 0.0
In13 In 0.13171 0.1377 0.81791 0.0
O14 O 0.0955 0.04001 0.83509 0.0
O15 O 0.15825 0.06393 0.84884 0.0
C16 C 0.07009 0.1929 0.78685 0.0
C17 C 0.19195 0.07817 0.78741 0.0
C18 C 0.14336 0.25759 0.84752 0.0
O19 O 0.06141 0.14932 0.80495 0.0
O20 O 0.10935 0.20582 0.78423 0.0
O21 O 0.16151 0.24949 0.82616 0.0
O22 O 0.12019 0.20468 0.85432 0.0
C23 C 0.12611 0.02229 0.84991 0.0
O24 O 0.20033 0.12651 0.80407 0.0
O25 O 0.15295 0.06071 0.78589 0.0
In26 In 0.87965 0.88346 0.56731 0.0
O27 O 0.84169 0.97976 0.58405 0.0
O28 O 0.90647 0.96564 0.59584 0.0
C29 C 0.81492 0.82804 0.53855 0.0
C30 C 0.93871 0.9382 0.53486 0.0
C31 C 0.89357 0.76508 0.59755 0.0
O32 O 0.80835 0.87063 0.55728 0.0
O33 O 0.85381 0.81562 0.53414 0.0
O34 O 0.90809 0.77019 0.57511 0.0
O35 O 0.87323 0.82051 0.60513 0.0
C36 C 0.87267 1.00314 0.59752 0.0
O37 O 0.94792 0.89433 0.55281 0.0
O38 O 0.89948 0.954 0.53315 0.0
In39 In 0.8744 0.88677 0.18805 0.0
O40 O 0.8052 0.88932 0.20246 0.0
O41 O 0.84911 0.96752 0.21731 0.0
C42 C 0.86792 0.76891 0.15695 0.0
C43 C 0.88931 1.00305 0.1573 0.0
C44 C 0.93064 0.83022 0.22222 0.0
O45 O 0.83542 0.79844 0.16696 0.0
O46 O 0.903 0.79972 0.16235 0.0
O47 O 0.94174 0.87175 0.20406 0.0
O48 O 0.891 0.81783 0.22327 0.0
C49 C 0.81142 0.94324 0.21728 0.0
O50 O 0.90689 0.99554 0.179 0.0
O51 O 0.86524 0.95089 0.15066 0.0
In52 In 0.12811 0.63554 0.94108 0.0
O53 O 0.16035 0.52738 0.93062 0.0
O54 O 0.11724 0.57355 0.90341 0.0
C55 C 0.1843 0.69065 0.97547 0.0
C56 C 0.06667 0.57706 0.97084 0.0
C57 C 0.12471 0.75646 0.91159 0.0
O58 O 0.19514 0.64666 0.9579 0.0
O59 O 0.14497 0.70629 0.97574 0.0
O60 O 0.09152 0.73055 0.92204 0.0
O61 O 0.15845 0.72011 0.91551 0.0
C62 C 0.14198 0.52145 0.90908 0.0
O63 O 0.05811 0.62486 0.95398 0.0
O64 O 0.10562 0.56026 0.97246 0.0
In65 In 0.1228 0.631 0.3154 0.0
O66 O 0.09045 0.52057 0.32213 0.0
O67 O 0.13115 0.5625 0.35165 0.0
C68 C 0.05878 0.69262 0.28777 0.0
C69 C 0.18349 0.57209 0.28485 0.0
C70 C 0.14063 0.7495 0.34458 0.0
O71 O 0.05159 0.65331 0.30722 0.0
O72 O 0.09775 0.69976 0.28245 0.0
O73 O 0.15544 0.74138 0.32224 0.0
O74 O 0.11806 0.69704 0.35249 0.0
C75 C 0.10734 0.51105 0.34399 0.0
O76 O 0.19287 0.60907 0.30465 0.0
O77 O 0.14399 0.56565 0.28069 0.0
In78 In 0.87568 0.38368 0.06478 0.0
O79 O 0.83749 0.4808 0.08079 0.0
O80 O 0.90142 0.46471 0.09394 0.0
C81 C 0.81223 0.32995 0.0347 0.0
C82 C 0.93643 0.44006 0.03408 0.0
C83 C 0.88915 0.26616 0.09543 0.0
O84 O 0.80492 0.36936 0.05417 0.0
O85 O 0.85131 0.31945 0.03027 0.0
O86 O 0.90297 0.26953 0.07278 0.0
O87 O 0.86905 0.32212 0.10275 0.0
C88 C 0.86795 0.50328 0.09488 0.0
O89 O 0.94445 0.39352 0.05138 0.0
O90 O 0.89745 0.45716 0.03195 0.0
In91 In 0.87868 0.386 0.69119 0.0
O92 O 0.80819 0.39447 0.70291 0.0
O93 O 0.85409 0.45382 0.72468 0.0
C94 C 0.8721 0.26714 0.6605 0.0
C95 C 0.89167 0.5027 0.66004 0.0
C96 C 0.93918 0.33026 0.72286 0.0
O97 O 0.84027 0.29261 0.67248 0.0
O98 O 0.9065 0.30215 0.66388 0.0
O99 O 0.94712 0.3778 0.70596 0.0
O100 O 0.90038 0.31153 0.72406 0.0
C101 C 0.81524 0.43805 0.72134 0.0
O102 O 0.90642 0.49946 0.6826 0.0
O103 O 0.8708 0.44707 0.65308 0.0
In104 In 0.62115 0.13336 0.93952 0.0
O105 O 0.66085 0.03972 0.92216 0.0
O106 O 0.59519 0.04918 0.91156 0.0
C107 C 0.68179 0.19054 0.9709 0.0
C108 C 0.56174 0.07587 0.97087 0.0
C109 C 0.60773 0.25135 0.90909 0.0
O110 O 0.69108 0.14824 0.95249 0.0
O111 O 0.64237 0.20199 0.97352 0.0
O112 O 0.59102 0.24474 0.93091 0.0
O113 O 0.63018 0.19764 0.90216 0.0
C114 C 0.62972 0.01397 0.90934 0.0
O115 O 0.55256 0.11952 0.95284 0.0
O116 O 0.6011 0.06158 0.97317 0.0
In117 In 0.6278 0.13601 0.31663 0.0
O118 O 0.6928 0.1331 0.2969 0.0
O119 O 0.64671 0.05266 0.2864 0.0
C120 C 0.63282 0.25748 0.34611 0.0
C121 C 0.62398 0.02416 0.35044 0.0
C122 C 0.5674 0.18567 0.28397 0.0
O123 O 0.66522 0.23179 0.33482 0.0
O124 O 0.5991 0.22056 0.34321 0.0
O125 O 0.55953 0.13948 0.30139 0.0
O126 O 0.60606 0.20521 0.28267 0.0
C127 C 0.68394 0.07753 0.28333 0.0
O128 O 0.59332 0.03954 0.33546 0.0
O129 O 0.65562 0.06667 0.34884 0.0
In130 In 0.37617 0.88617 0.06992 0.0
O131 O 0.44588 0.90828 0.05826 0.0
O132 O 0.39596 0.95024 0.0348 0.0
C133 C 0.39406 0.77139 0.10062 0.0
C134 C 0.36174 1.00678 0.09842 0.0
C135 C 0.31241 0.82317 0.04243 0.0
O136 O 0.4105 0.77835 0.07865 0.0
O137 O 0.36924 0.8225 0.10715 0.0
O138 O 0.3051 0.86617 0.06092 0.0
O139 O 0.35147 0.81242 0.03809 0.0
C140 C 0.43561 0.94454 0.03849 0.0
O141 O 0.34379 0.99652 0.0769 0.0
O142 O 0.38619 0.95587 0.10575 0.0
In143 In 0.37564 0.88524 0.68813 0.0
O144 O 0.30932 0.8898 0.70631 0.0
O145 O 0.35754 0.96119 0.72078 0.0
C146 C 0.37051 0.76811 0.65655 0.0
C147 C 0.37763 1.00189 0.65636 0.0
C148 C 0.43675 0.83179 0.71971 0.0
O149 O 0.34015 0.78581 0.67123 0.0
O150 O 0.4021 0.81091 0.65726 0.0
O151 O 0.44398 0.88238 0.70376 0.0
O152 O 0.39849 0.80977 0.72007 0.0
C153 C 0.31916 0.94022 0.72197 0.0
O154 O 0.40982 0.98266 0.66953 0.0
O155 O 0.34543 0.96093 0.65865 0.0
In156 In 0.62655 0.63655 0.44098 0.0
O157 O 0.66141 0.53661 0.42419 0.0
O158 O 0.6029 0.56995 0.40694 0.0
C159 C 0.68366 0.68783 0.47567 0.0
C160 C 0.56435 0.58039 0.47068 0.0
C161 C 0.62402 0.75775 0.41147 0.0
O162 O 0.69346 0.64142 0.45863 0.0
O163 O 0.64476 0.70626 0.47565 0.0
O164 O 0.59114 0.73333 0.42252 0.0
O165 O 0.65729 0.71971 0.41462 0.0
C166 C 0.63313 0.52431 0.40726 0.0
O167 O 0.55852 0.63542 0.45639 0.0
O168 O 0.6019 0.555 0.47041 0.0
In169 In 0.62379 0.63042 0.81617 0.0
O170 O 0.69342 0.6173 0.80297 0.0
O171 O 0.64501 0.55802 0.78318 0.0
C172 C 0.63125 0.74811 0.84731 0.0
C173 C 0.61001 0.51464 0.84737 0.0
C174 C 0.56597 0.69206 0.78414 0.0
O175 O 0.66263 0.72391 0.83459 0.0
O176 O 0.59707 0.71204 0.84456 0.0
O177 O 0.55577 0.64524 0.80088 0.0
O178 O 0.6054 0.70656 0.78336 0.0
C179 C 0.68428 0.57223 0.78528 0.0
O180 O 0.59172 0.52126 0.82583 0.0
O181 O 0.63467 0.56658 0.85333 0.0
In182 In 0.37259 0.3851 0.56337 0.0
O183 O 0.33724 0.48063 0.5826 0.0
O184 O 0.40191 0.46053 0.59325 0.0
C185 C 0.31349 0.33506 0.52969 0.0
C186 C 0.43141 0.44139 0.53138 0.0
C187 C 0.37618 0.26757 0.59476 0.0
O188 O 0.30593 0.38619 0.54541 0.0
O189 O 0.35116 0.31027 0.5307 0.0
O190 O 0.40751 0.28648 0.58107 0.0
O191 O 0.34409 0.30913 0.5931 0.0
C192 C 0.36933 0.50054 0.59574 0.0
O193 O 0.43959 0.38804 0.54609 0.0
O194 O 0.39341 0.46435 0.53241 0.0
In195 In 0.37707 0.38771 0.18997 0.0
O196 O 0.30636 0.40639 0.1992 0.0
O197 O 0.35286 0.45449 0.2238 0.0
C198 C 0.36188 0.2721 0.15899 0.0
C199 C 0.39374 0.50743 0.16154 0.0
C200 C 0.43778 0.32383 0.21959 0.0
O201 O 0.34371 0.27959 0.18044 0.0
O202 O 0.38712 0.32314 0.15307 0.0
O203 O 0.44716 0.36474 0.2009 0.0
O204 O 0.39829 0.3165 0.22324 0.0
C205 C 0.31376 0.44497 0.2189 0.0
O206 O 0.41032 0.49764 0.18348 0.0
O207 O 0.36954 0.45657 0.15386 0.0
C208 C 0.29086 0.24502 0.49593 0.0
C209 C 0.28047 0.3039 0.51226 0.0
C210 C 0.25979 0.21183 0.48021 0.0
C211 C 0.21708 0.23597 0.48031 0.0
H212 H 0.32317 0.22366 0.49548 0.0
H213 H 0.26922 0.16614 0.46821 0.0
S214 S 0.17366 0.39073 0.51854 0.0
N215 N 0.22469 0.38682 0.52677 0.0
N216 N 0.16634 0.32445 0.49736 0.0
C217 C 0.20642 0.29574 0.49617 0.0
C218 C 0.23808 0.32971 0.51209 0.0
C219 C 0.95874 0.01734 0.49752 0.0
C220 C 0.97129 0.96985 0.5175 0.0
C221 C 0.98896 0.04912 0.48112 0.0
C222 C 0.03294 0.03487 0.48413 0.0
H223 H 0.92527 0.03036 0.49451 0.0
H224 H 0.97774 0.08548 0.46608 0.0
S225 S 0.08254 0.91351 0.53328 0.0
N226 N 0.03079 0.90949 0.53917 0.0
N227 N 0.08749 0.96915 0.50851 0.0
C228 C 0.04591 0.98713 0.50396 0.0
C229 C 0.01514 0.95465 0.52059 0.0
C230 C 0.24439 0.95413 0.73814 0.0
C231 C 0.28773 0.97454 0.73947 0.0
C232 C 0.2137 0.98801 0.75369 0.0
C233 C 0.22516 0.04356 0.77121 0.0
H234 H 0.2339 0.91209 0.7248 0.0
H235 H 0.18071 0.97051 0.75187 0.0
S236 S 0.33461 0.11617 0.78256 0.0
N237 N 0.34068 0.05328 0.76007 0.0
N238 N 0.28308 0.11673 0.78926 0.0
C239 C 0.26846 0.06406 0.77292 0.0
C240 C 0.29971 0.02962 0.75708 0.0
C241 C 0.99402 0.20715 0.77197 0.0
C242 C 0.03715 0.22845 0.77043 0.0
C243 C 0.96248 0.24075 0.75668 0.0
C244 C 0.97287 0.2971 0.73934 0.0
H245 H 0.98452 0.16397 0.78499 0.0
H246 H 0.92975 0.22205 0.75838 0.0
S247 S 0.08098 0.37514 0.72874 0.0
N248 N 0.08843 0.31094 0.7506 0.0
N249 N 0.02932 0.37385 0.72202 0.0
C250 C 0.01583 0.31944 0.73783 0.0
C251 C 0.04791 0.28517 0.75332 0.0
C252 C 0.79112 0.74219 0.50396 0.0
C253 C 0.78036 0.79296 0.52326 0.0
C254 C 0.75958 0.70735 0.48914 0.0
C255 C 0.71593 0.72198 0.49291 0.0
H256 H 0.82429 0.72915 0.50016 0.0
H257 H 0.76966 0.6694 0.47434 0.0
S258 S 0.67053 0.84898 0.54144 0.0
N259 N 0.72279 0.85498 0.54574 0.0
N260 N 0.66339 0.78976 0.51778 0.0
C261 C 0.70458 0.77204 0.51234 0.0
C262 C 0.7368 0.80745 0.52752 0.0
C263 C 0.75665 0.07203 0.26386 0.0
C264 C 0.71517 0.04299 0.26577 0.0
C265 C 0.78731 0.03937 0.24805 0.0
C266 C 0.77776 0.97637 0.23347 0.0
H267 H 0.76572 0.12019 0.27479 0.0
H268 H 0.81885 0.06383 0.24735 0.0
S269 S 0.67365 0.87899 0.23139 0.0
N270 N 0.66593 0.94763 0.25152 0.0
N271 N 0.72368 0.88641 0.22178 0.0
C272 C 0.73631 0.94698 0.23501 0.0
C273 C 0.70501 0.98023 0.25116 0.0
C274 C 0.006 0.80627 0.23563 0.0
C275 C 0.96207 0.7964 0.24001 0.0
C276 C 0.03675 0.77272 0.25131 0.0
C277 C 0.02492 0.72802 0.2721 0.0
H278 H 0.0169 0.83953 0.21974 0.0
H279 H 0.07017 0.78174 0.24693 0.0
S280 S 0.91402 0.68661 0.29245 0.0
N281 N 0.90811 0.74008 0.2671 0.0
N282 N 0.96613 0.6771 0.29668 0.0
C283 C 0.9811 0.71849 0.27701 0.0
C284 C 0.94964 0.75263 0.26094 0.0
C285 C 0.29024 0.74072 0.00654 0.0
C286 C 0.27853 0.78866 0.0265 0.0
C287 C 0.25947 0.70862 0.99045 0.0
C288 C 0.21568 0.72322 0.9936 0.0
H289 H 0.32359 0.72814 0.00309 0.0
H290 H 0.27028 0.67273 0.97522 0.0
S291 S 0.16789 0.84301 0.04352 0.0
N292 N 0.21991 0.84781 0.04896 0.0
N293 N 0.16191 0.78752 0.01866 0.0
C294 C 0.20334 0.77024 0.01372 0.0
C295 C 0.23479 0.80292 0.03018 0.0
C296 C 0.9903 0.55751 0.98349 0.0
C297 C 0.03397 0.54213 0.98725 0.0
C298 C 0.95895 0.5239 0.99861 0.0
C299 C 0.9701 0.47367 0.01806 0.0
H300 H 0.98018 0.59557 0.96869 0.0
H301 H 0.92571 0.53751 0.99501 0.0
S302 S 0.08012 0.41564 0.03603 0.0
N303 N 0.08679 0.47385 0.01217 0.0
N304 N 0.02799 0.41094 0.04045 0.0
C305 C 0.01366 0.45801 0.02207 0.0
C306 C 0.04555 0.49218 0.00672 0.0
C307 C 0.29097 0.52098 0.25639 0.0
C308 C 0.27975 0.47657 0.23523 0.0
C309 C 0.25971 0.55152 0.27234 0.0
C310 C 0.21596 0.53893 0.26777 0.0
H311 H 0.32425 0.53243 0.26072 0.0
H312 H 0.26998 0.58539 0.28834 0.0
S313 S 0.16957 0.42573 0.21509 0.0
N314 N 0.22174 0.421 0.21069 0.0
N315 N 0.16295 0.47824 0.2406 0.0
C316 C 0.20424 0.49445 0.2467 0.0
C317 C 0.23612 0.46334 0.23045 0.0
C318 C 0.75806 0.21444 0.98319 0.0
C319 C 0.7143 0.22604 0.98765 0.0
C320 C 0.78937 0.24881 0.99839 0.0
C321 C 0.77817 0.29609 0.01868 0.0
H322 H 0.76832 0.1787 0.96778 0.0
H323 H 0.82266 0.23788 0.9942 0.0
S324 S 0.66794 0.34509 0.03836 0.0
N325 N 0.66129 0.28852 0.01389 0.0
N326 N 0.72016 0.35281 0.0424 0.0
C327 C 0.73453 0.30823 0.02338 0.0
C328 C 0.7026 0.27328 0.00789 0.0
C329 C 0.76049 0.55327 0.77234 0.0
C330 C 0.71688 0.53745 0.76862 0.0
C331 C 0.79193 0.52038 0.75707 0.0
C332 C 0.78106 0.47034 0.73745 0.0
H333 H 0.77054 0.59132 0.78719 0.0
H334 H 0.82507 0.53462 0.76069 0.0
S335 S 0.67136 0.41002 0.71982 0.0
N336 N 0.66439 0.46806 0.74379 0.0
N337 N 0.72349 0.4065 0.71516 0.0
C338 C 0.73758 0.45391 0.73352 0.0
C339 C 0.70551 0.48739 0.74907 0.0
C340 C 0.54162 1.00039 0.00906 0.0
C341 C 0.52902 0.0433 0.98785 0.0
C342 C 0.51128 0.96866 0.02538 0.0
C343 C 0.4672 0.97839 0.02103 0.0
H344 H 0.57521 0.99129 0.01318 0.0
H345 H 0.52252 0.93622 0.04148 0.0
S346 S 0.41742 0.08533 0.96794 0.0
N347 N 0.46936 0.0935 0.96331 0.0
N348 N 0.41244 0.03394 0.9938 0.0
C349 C 0.45416 0.02107 0.99983 0.0
C350 C 0.48503 0.05351 0.98329 0.0
C351 C 0.51403 0.29749 0.23131 0.0
C352 C 0.47021 0.28686 0.23591 0.0
C353 C 0.54523 0.26367 0.24673 0.0
C354 C 0.53378 0.21766 0.26725 0.0
H355 H 0.52441 0.33257 0.21578 0.0
H356 H 0.57859 0.27406 0.24258 0.0
S357 S 0.42333 0.17148 0.28733 0.0
N358 N 0.41692 0.22659 0.26248 0.0
N359 N 0.47551 0.16302 0.29131 0.0
C360 C 0.49007 0.20596 0.27192 0.0
C361 C 0.45831 0.24059 0.2563 0.0
C362 C 0.45923 0.74565 0.75452 0.0
C363 C 0.47045 0.79854 0.73611 0.0
C364 C 0.49034 0.71142 0.76984 0.0
C365 C 0.53397 0.72852 0.76734 0.0
H366 H 0.42607 0.73031 0.75715 0.0
H367 H 0.47999 0.67122 0.78378 0.0
S368 S 0.58038 0.86275 0.72178 0.0
N369 N 0.52839 0.86618 0.71613 0.0
N370 N 0.5869 0.8018 0.74488 0.0
C371 C 0.54572 0.78131 0.74899 0.0
C372 C 0.51397 0.81635 0.73341 0.0
C373 C 0.50668 0.45083 0.51572 0.0
C374 C 0.46431 0.47674 0.5152 0.0
C375 C 0.53877 0.48498 0.50138 0.0
C376 C 0.52979 0.54647 0.48596 0.0
H377 H 0.51528 0.404 0.52742 0.0
H378 H 0.57089 0.46289 0.50243 0.0
S379 S 0.42384 0.63558 0.47768 0.0
N380 N 0.41498 0.56749 0.49778 0.0
N381 N 0.47528 0.63157 0.47088 0.0
C382 C 0.48752 0.57284 0.48517 0.0
C383 C 0.4548 0.53799 0.49976 0.0
C384 C 0.14919 0.81534 0.38638 0.0
C385 C 0.14548 0.81786 0.35944 0.0
C386 C 0.14929 0.87983 0.4011 0.0
C387 C 0.14415 0.9486 0.38937 0.0
H388 H 0.15141 0.76311 0.39616 0.0
H389 H 0.15138 0.87558 0.42184 0.0
S390 S 0.13413 0.98479 0.31949 0.0
N391 N 0.13836 0.89482 0.32157 0.0
N392 N 0.13659 0.01575 0.34931 0.0
C393 C 0.14115 0.95191 0.36245 0.0
C394 C 0.14236 0.88652 0.34744 0.0
C395 C 0.0984 0.38109 0.40034 0.0
C396 C 0.10219 0.31211 0.38855 0.0
C397 C 0.09927 0.44554 0.3857 0.0
C398 C 0.10242 0.44284 0.35877 0.0
H399 H 0.09678 0.38544 0.42109 0.0
H400 H 0.09798 0.49785 0.39553 0.0
S401 S 0.11061 0.27559 0.31865 0.0
N402 N 0.10818 0.24467 0.34844 0.0
N403 N 0.10775 0.36572 0.32082 0.0
C404 C 0.10432 0.37412 0.34669 0.0
C405 C 0.10476 0.30868 0.36163 0.0
C406 C 0.14843 0.32216 0.88966 0.0
C407 C 0.1466 0.3255 0.8627 0.0
C408 C 0.14889 0.38628 0.90452 0.0
C409 C 0.14601 0.4556 0.89289 0.0
H410 H 0.14933 0.26965 0.89932 0.0
H411 H 0.14983 0.38144 0.92527 0.0
S412 S 0.14065 0.49362 0.82298 0.0
N413 N 0.14304 0.40342 0.8249 0.0
N414 N 0.14189 0.52394 0.85291 0.0
C415 C 0.1444 0.45964 0.86595 0.0
C416 C 0.14525 0.39449 0.85081 0.0
C417 C 0.08722 0.85199 0.88498 0.0
C418 C 0.12492 0.82517 0.89652 0.0
C419 C 0.08764 0.91603 0.86998 0.0
C420 C 0.12563 0.95608 0.86641 0.0
H421 H 0.05736 0.82263 0.88715 0.0
H422 H 0.05803 0.93414 0.86111 0.0
S423 S 0.23251 0.9108 0.89381 0.0
N424 N 0.20091 0.84484 0.90407 0.0
N425 N 0.20169 0.96501 0.87637 0.0
C426 C 0.16331 0.93049 0.87836 0.0
C427 C 0.16296 0.86509 0.89328 0.0
C428 C 0.90884 0.16496 0.63783 0.0
C429 C 0.8704 0.20016 0.64439 0.0
C430 C 0.90896 0.1012 0.62289 0.0
C431 C 0.87068 0.07031 0.61354 0.0
H432 H 0.93928 0.18642 0.64449 0.0
H433 H 0.93951 0.0763 0.61847 0.0
S434 S 0.76123 0.14168 0.62487 0.0
N435 N 0.79285 0.19955 0.64034 0.0
N436 N 0.7931 0.08003 0.6118 0.0
C437 C 0.83191 0.1051 0.61976 0.0
C438 C 0.83176 0.16984 0.63532 0.0
C439 C 0.89762 0.6382 0.65512 0.0
C440 C 0.89589 0.56837 0.64373 0.0
C441 C 0.89753 0.7018 0.64002 0.0
C442 C 0.89704 0.69761 0.61304 0.0
H443 H 0.89744 0.64386 0.67586 0.0
H444 H 0.89752 0.75461 0.64954 0.0
S445 S 0.89485 0.52774 0.57387 0.0
N446 N 0.89476 0.49862 0.60391 0.0
N447 N 0.89622 0.61803 0.57552 0.0
C448 C 0.89693 0.62807 0.60141 0.0
C449 C 0.89589 0.56342 0.61678 0.0
C450 C 0.90397 0.59856 0.12161 0.0
C451 C 0.86599 0.57082 0.11069 0.0
C452 C 0.90404 0.66278 0.13628 0.0
C453 C 0.86607 0.70175 0.14095 0.0
H454 H 0.93418 0.57079 0.11867 0.0
H455 H 0.93424 0.68162 0.14422 0.0
S456 S 0.75782 0.65254 0.11684 0.0
N457 N 0.78921 0.58752 0.10546 0.0
N458 N 0.78927 0.70807 0.13347 0.0
C459 C 0.82771 0.67463 0.1303 0.0
C460 C 0.82769 0.60931 0.11505 0.0
C461 C 0.89129 0.06651 0.11486 0.0
C462 C 0.89348 0.07025 0.14183 0.0
C463 C 0.8919 0.13032 0.09989 0.0
C464 C 0.89328 0.19995 0.11145 0.0
H465 H 0.88876 0.01395 0.10529 0.0
H466 H 0.88955 0.12517 0.07917 0.0
S467 S 0.90001 0.23924 0.1813 0.0
N468 N 0.89859 0.14897 0.17947 0.0
N469 N 0.89794 0.26895 0.15134 0.0
C470 C 0.89599 0.20437 0.13836 0.0
C471 C 0.89658 0.13944 0.15357 0.0
C472 C 0.59433 0.84684 0.87165 0.0
C473 C 0.63291 0.81529 0.86337 0.0
C474 C 0.59394 0.91109 0.8863 0.0
C475 C 0.63214 0.94626 0.89364 0.0
H476 H 0.5639 0.82218 0.86656 0.0
H477 H 0.56326 0.93302 0.89208 0.0
S478 S 0.74197 0.88597 0.8772 0.0
N479 N 0.71055 0.82417 0.86357 0.0
N480 N 0.70983 0.9447 0.89162 0.0
C481 C 0.6711 0.91518 0.88573 0.0
C482 C 0.67148 0.84986 0.87045 0.0
C483 C 0.60242 0.31541 0.86683 0.0
C484 C 0.60444 0.31902 0.8938 0.0
C485 C 0.60222 0.3794 0.85192 0.0
C486 C 0.60553 0.44881 0.86351 0.0
H487 H 0.60124 0.26279 0.8572 0.0
H488 H 0.60117 0.37436 0.83117 0.0
S489 S 0.61142 0.48762 0.9334 0.0
N490 N 0.60858 0.39745 0.93153 0.0
N491 N 0.61014 0.51754 0.90345 0.0
C492 C 0.60724 0.45311 0.89044 0.0
C493 C 0.60616 0.38818 0.90563 0.0
C494 C 0.6707 0.35127 0.37326 0.0
C495 C 0.6333 0.32694 0.36074 0.0
C496 C 0.67066 0.41569 0.38811 0.0
C497 C 0.63348 0.45874 0.39042 0.0
H498 H 0.69987 0.31943 0.3721 0.0
H499 H 0.69988 0.43163 0.39792 0.0
S500 S 0.52806 0.42102 0.35974 0.0
N501 N 0.55869 0.35219 0.3507 0.0
N502 N 0.55874 0.4735 0.37798 0.0
C503 C 0.59627 0.43592 0.37728 0.0
C504 C 0.59615 0.36993 0.36261 0.0
C505 C 0.58631 0.85336 0.38531 0.0
C506 C 0.62418 0.82676 0.39666 0.0
C507 C 0.58634 0.91781 0.37062 0.0
C508 C 0.62408 0.95864 0.3672 0.0
H509 H 0.55662 0.8234 0.38735 0.0
H510 H 0.55662 0.93549 0.36178 0.0
S511 S 0.7311 0.91468 0.39457 0.0
N512 N 0.69998 0.84754 0.40445 0.0
N513 N 0.7 0.96902 0.37734 0.0
C514 C 0.6619 0.93355 0.37911 0.0
C515 C 0.66197 0.86749 0.39369 0.0
C516 C 0.35404 0.13689 0.15485 0.0
C517 C 0.35707 0.20586 0.14303 0.0
C518 C 0.35479 0.07239 0.14019 0.0
C519 C 0.35705 0.075 0.11324 0.0
H520 H 0.35303 0.13261 0.17561 0.0
H521 H 0.35405 0.02013 0.15002 0.0
S522 S 0.36304 0.242 0.07304 0.0
N523 N 0.36139 0.27311 0.10285 0.0
N524 N 0.36076 0.15185 0.07523 0.0
C525 C 0.35822 0.14363 0.10114 0.0
C526 C 0.35879 0.20917 0.11608 0.0
C527 C 0.3998 0.57192 0.11954 0.0
C528 C 0.39949 0.57511 0.14655 0.0
C529 C 0.40067 0.63604 0.10475 0.0
C530 C 0.3998 0.70534 0.11652 0.0
H531 H 0.39866 0.5195 0.10978 0.0
H532 H 0.39984 0.63131 0.08399 0.0
S533 S 0.40036 0.74328 0.18653 0.0
N534 N 0.40055 0.653 0.18447 0.0
N535 N 0.40024 0.77362 0.15663 0.0
C536 C 0.40045 0.70927 0.14348 0.0
C537 C 0.40084 0.64403 0.15853 0.0
C538 C 0.33192 0.66375 0.63516 0.0
C539 C 0.37044 0.70045 0.64083 0.0
C540 C 0.33163 0.59909 0.62047 0.0
C541 C 0.36994 0.56808 0.61148 0.0
H542 H 0.30176 0.68545 0.64191 0.0
H543 H 0.30126 0.57287 0.61634 0.0
S544 S 0.47936 0.64257 0.62121 0.0
N545 N 0.44786 0.70098 0.63618 0.0
N546 N 0.44735 0.57926 0.60914 0.0
C547 C 0.40864 0.60401 0.61719 0.0
C548 C 0.40888 0.67027 0.6317 0.0
C549 C 0.41482 0.16598 0.61754 0.0
C550 C 0.37612 0.20032 0.61063 0.0
C551 C 0.41518 0.10187 0.63244 0.0
C552 C 0.37681 0.06905 0.64046 0.0
H553 H 0.44509 0.18912 0.61161 0.0
H554 H 0.44569 0.07754 0.63751 0.0
S555 S 0.26689 0.13695 0.62722 0.0
N556 N 0.29844 0.19665 0.61298 0.0
N557 N 0.29909 0.0759 0.64048 0.0
C558 C 0.33791 0.1026 0.63351 0.0
C559 C 0.33757 0.16832 0.61874 0.0
loop_
_geom_bond_atom_site_label_1
_geom_bond_atom_site_label_2
_geom_bond_distance
_geom_bond_site_symmetry_2
_ccdc_geom_bond_type
In0 O1 2.294 . S
In0 O2 2.326 . S
In0 O6 2.266 . S
In0 O7 2.326 . S
In0 O8 2.266 . S
In0 O9 2.326 . S
In0 O11 2.294 . S
In0 O12 2.326 . S
O1 In0 2.294 . S
O1 C10 1.240 . S
O2 In0 2.326 . S
O2 C10 1.252 . S
C3 O6 1.252 . S
C3 O7 1.260 . S
C4 O11 1.240 . S
C4 O12 1.252 . S
C5 O8 1.252 . S
C5 O9 1.260 . S
O6 In0 2.266 . S
O6 C3 1.252 . S
O7 In0 2.326 . S
O7 C3 1.260 . S
O8 In0 2.266 . S
O8 C5 1.252 . S
O9 In0 2.326 . S
O9 C5 1.260 . S
C10 O1 1.240 . S
C10 O2 1.252 . S
O11 In0 2.294 . S
O11 C4 1.240 . S
O12 In0 2.326 . S
O12 C4 1.252 . S
In13 O14 2.294 . S
In13 O15 2.326 . S
In13 O19 2.266 . S
In13 O20 2.326 . S
In13 O21 2.266 . S
In13 O22 2.326 . S
In13 O24 2.294 . S
In13 O25 2.326 . S
O14 In13 2.294 . S
O14 C23 1.240 . S
O15 In13 2.326 . S
O15 C23 1.252 . S
C16 O19 1.252 . S
C16 O20 1.260 . S
C17 O24 1.240 . S
C17 O25 1.252 . S
C18 O21 1.252 . S
C18 O22 1.260 . S
O19 In13 2.266 . S
O19 C16 1.252 . S
O20 In13 2.326 . S
O20 C16 1.260 . S
O21 In13 2.266 . S
O21 C18 1.252 . S
O22 In13 2.326 . S
O22 C18 1.260 . S
C23 O14 1.240 . S
C23 O15 1.252 . S
O24 In13 2.294 . S
O24 C17 1.240 . S
O25 In13 2.326 . S
O25 C17 1.252 . S
In26 O27 2.294 . S
In26 O28 2.326 . S
In26 O32 2.266 . S
In26 O33 2.326 . S
In26 O34 2.266 . S
In26 O35 2.326 . S
In26 O37 2.294 . S
In26 O38 2.326 . S
O27 In26 2.294 . S
O27 C36 1.240 . S
O28 In26 2.326 . S
O28 C36 1.252 . S
C29 O32 1.252 . S
C29 O33 1.260 . S
C30 O37 1.240 . S
C30 O38 1.252 . S
C31 O34 1.252 . S
C31 O35 1.260 . S
O32 In26 2.266 . S
O32 C29 1.252 . S
O33 In26 2.326 . S
O33 C29 1.260 . S
O34 In26 2.266 . S
O34 C31 1.252 . S
O35 In26 2.326 . S
O35 C31 1.260 . S
C36 O27 1.240 . S
C36 O28 1.252 . S
O37 In26 2.294 . S
O37 C30 1.240 . S
O38 In26 2.326 . S
O38 C30 1.252 . S
In39 O40 2.294 . S
In39 O41 2.326 . S
In39 O45 2.266 . S
In39 O46 2.326 . S
In39 O47 2.266 . S
In39 O48 2.326 . S
In39 O50 2.294 . S
In39 O51 2.326 . S
O40 In39 2.294 . S
O40 C49 1.240 . S
O41 In39 2.326 . S
O41 C49 1.252 . S
C42 O45 1.252 . S
C42 O46 1.260 . S
C43 O50 1.240 . S
C43 O51 1.252 . S
C44 O47 1.252 . S
C44 O48 1.260 . S
O45 In39 2.266 . S
O45 C42 1.252 . S
O46 In39 2.326 . S
O46 C42 1.260 . S
O47 In39 2.266 . S
O47 C44 1.252 . S
O48 In39 2.326 . S
O48 C44 1.260 . S
C49 O40 1.240 . S
C49 O41 1.252 . S
O50 In39 2.294 . S
O50 C43 1.240 . S
O51 In39 2.326 . S
O51 C43 1.252 . S
In52 O53 2.294 . S
In52 O54 2.326 . S
In52 O58 2.266 . S
In52 O59 2.326 . S
In52 O60 2.266 . S
In52 O61 2.326 . S
In52 O63 2.294 . S
In52 O64 2.326 . S
O53 In52 2.294 . S
O53 C62 1.240 . S
O54 In52 2.326 . S
O54 C62 1.252 . S
C55 O58 1.252 . S
C55 O59 1.260 . S
C56 O63 1.240 . S
C56 O64 1.252 . S
C57 O60 1.252 . S
C57 O61 1.260 . S
O58 In52 2.266 . S
O58 C55 1.252 . S
O59 In52 2.326 . S
O59 C55 1.260 . S
O60 In52 2.266 . S
O60 C57 1.252 . S
O61 In52 2.326 . S
O61 C57 1.260 . S
C62 O53 1.240 . S
C62 O54 1.252 . S
O63 In52 2.294 . S
O63 C56 1.240 . S
O64 In52 2.326 . S
O64 C56 1.252 . S
In65 O66 2.294 . S
In65 O67 2.326 . S
In65 O71 2.266 . S
In65 O72 2.326 . S
In65 O73 2.266 . S
In65 O74 2.326 . S
In65 O76 2.294 . S
In65 O77 2.326 . S
O66 In65 2.294 . S
O66 C75 1.240 . S
O67 In65 2.326 . S
O67 C75 1.252 . S
C68 O71 1.252 . S
C68 O72 1.260 . S
C69 O76 1.240 . S
C69 O77 1.252 . S
C70 O73 1.252 . S
C70 O74 1.260 . S
O71 In65 2.266 . S
O71 C68 1.252 . S
O72 In65 2.326 . S
O72 C68 1.260 . S
O73 In65 2.266 . S
O73 C70 1.252 . S
O74 In65 2.326 . S
O74 C70 1.260 . S
C75 O66 1.240 . S
C75 O67 1.252 . S
O76 In65 2.294 . S
O76 C69 1.240 . S
O77 In65 2.326 . S
O77 C69 1.252 . S
In78 O79 2.294 . S
In78 O80 2.326 . S
In78 O84 2.266 . S
In78 O85 2.326 . S
In78 O86 2.266 . S
In78 O87 2.326 . S
In78 O89 2.294 . S
In78 O90 2.326 . S
O79 In78 2.294 . S
O79 C88 1.240 . S
O80 In78 2.326 . S
O80 C88 1.252 . S
C81 O84 1.252 . S
C81 O85 1.260 . S
C82 O89 1.240 . S
C82 O90 1.252 . S
C83 O86 1.252 . S
C83 O87 1.260 . S
O84 In78 2.266 . S
O84 C81 1.252 . S
O85 In78 2.326 . S
O85 C81 1.260 . S
O86 In78 2.266 . S
O86 C83 1.252 . S
O87 In78 2.326 . S
O87 C83 1.260 . S
C88 O79 1.240 . S
C88 O80 1.252 . S
O89 In78 2.294 . S
O89 C82 1.240 . S
O90 In78 2.326 . S
O90 C82 1.252 . S
In91 O92 2.294 . S
In91 O93 2.326 . S
In91 O97 2.266 . S
In91 O98 2.326 . S
In91 O99 2.266 . S
In91 O100 2.326 . S
In91 O102 2.294 . S
In91 O103 2.326 . S
O92 In91 2.294 . S
O92 C101 1.240 . S
O93 In91 2.326 . S
O93 C101 1.252 . S
C94 O97 1.252 . S
C94 O98 1.260 . S
C95 O102 1.240 . S
C95 O103 1.252 . S
C96 O99 1.252 . S
C96 O100 1.260 . S
O97 In91 2.266 . S
O97 C94 1.252 . S
O98 In91 2.326 . S
O98 C94 1.260 . S
O99 In91 2.266 . S
O99 C96 1.252 . S
O100 In91 2.326 . S
O100 C96 1.260 . S
C101 O92 1.240 . S
C101 O93 1.252 . S
O102 In91 2.294 . S
O102 C95 1.240 . S
O103 In91 2.326 . S
O103 C95 1.252 . S
In104 O105 2.294 . S
In104 O106 2.326 . S
In104 O110 2.266 . S
In104 O111 2.326 . S
In104 O112 2.266 . S
In104 O113 2.326 . S
In104 O115 2.294 . S
In104 O116 2.326 . S
O105 In104 2.294 . S
O105 C114 1.240 . S
O106 In104 2.326 . S
O106 C114 1.252 . S
C107 O110 1.252 . S
C107 O111 1.260 . S
C108 O115 1.240 . S
C108 O116 1.252 . S
C109 O112 1.252 . S
C109 O113 1.260 . S
O110 In104 2.266 . S
O110 C107 1.252 . S
O111 In104 2.326 . S
O111 C107 1.260 . S
O112 In104 2.266 . S
O112 C109 1.252 . S
O113 In104 2.326 . S
O113 C109 1.260 . S
C114 O105 1.240 . S
C114 O106 1.252 . S
O115 In104 2.294 . S
O115 C108 1.240 . S
O116 In104 2.326 . S
O116 C108 1.252 . S
In117 O118 2.294 . S
In117 O119 2.326 . S
In117 O123 2.266 . S
In117 O124 2.326 . S
In117 O125 2.266 . S
In117 O126 2.326 . S
In117 O128 2.294 . S
In117 O129 2.326 . S
O118 In117 2.294 . S
O118 C127 1.240 . S
O119 In117 2.326 . S
O119 C127 1.252 . S
C120 O123 1.252 . S
C120 O124 1.260 . S
C121 O128 1.240 . S
C121 O129 1.252 . S
C122 O125 1.252 . S
C122 O126 1.260 . S
O123 In117 2.266 . S
O123 C120 1.252 . S
O124 In117 2.326 . S
O124 C120 1.260 . S
O125 In117 2.266 . S
O125 C122 1.252 . S
O126 In117 2.326 . S
O126 C122 1.260 . S
C127 O118 1.240 . S
C127 O119 1.252 . S
O128 In117 2.294 . S
O128 C121 1.240 . S
O129 In117 2.326 . S
O129 C121 1.252 . S
In130 O131 2.294 . S
In130 O132 2.326 . S
In130 O136 2.266 . S
In130 O137 2.326 . S
In130 O138 2.266 . S
In130 O139 2.326 . S
In130 O141 2.294 . S
In130 O142 2.326 . S
O131 In130 2.294 . S
O131 C140 1.240 . S
O132 In130 2.326 . S
O132 C140 1.252 . S
C133 O136 1.252 . S
C133 O137 1.260 . S
C134 O141 1.240 . S
C134 O142 1.252 . S
C135 O138 1.252 . S
C135 O139 1.260 . S
O136 In130 2.266 . S
O136 C133 1.252 . S
O137 In130 2.326 . S
O137 C133 1.260 . S
O138 In130 2.266 . S
O138 C135 1.252 . S
O139 In130 2.326 . S
O139 C135 1.260 . S
C140 O131 1.240 . S
C140 O132 1.252 . S
O141 In130 2.294 . S
O141 C134 1.240 . S
O142 In130 2.326 . S
O142 C134 1.252 . S
In143 O144 2.294 . S
In143 O145 2.326 . S
In143 O149 2.266 . S
In143 O150 2.326 . S
In143 O151 2.266 . S
In143 O152 2.326 . S
In143 O154 2.294 . S
In143 O155 2.326 . S
O144 In143 2.294 . S
O144 C153 1.240 . S
O145 In143 2.326 . S
O145 C153 1.252 . S
C146 O149 1.252 . S
C146 O150 1.260 . S
C147 O154 1.240 . S
C147 O155 1.252 . S
C148 O151 1.252 . S
C148 O152 1.260 . S
O149 In143 2.266 . S
O149 C146 1.252 . S
O150 In143 2.326 . S
O150 C146 1.260 . S
O151 In143 2.266 . S
O151 C148 1.252 . S
O152 In143 2.326 . S
O152 C148 1.260 . S
C153 O144 1.240 . S
C153 O145 1.252 . S
O154 In143 2.294 . S
O154 C147 1.240 . S
O155 In143 2.326 . S
O155 C147 1.252 . S
In156 O157 2.294 . S
In156 O158 2.326 . S
In156 O162 2.266 . S
In156 O163 2.326 . S
In156 O164 2.266 . S
In156 O165 2.326 . S
In156 O167 2.294 . S
In156 O168 2.326 . S
O157 In156 2.294 . S
O157 C166 1.240 . S
O158 In156 2.326 . S
O158 C166 1.252 . S
C159 O162 1.252 . S
C159 O163 1.260 . S
C160 O167 1.240 . S
C160 O168 1.252 . S
C161 O164 1.252 . S
C161 O165 1.260 . S
O162 In156 2.266 . S
O162 C159 1.252 . S
O163 In156 2.326 . S
O163 C159 1.260 . S
O164 In156 2.266 . S
O164 C161 1.252 . S
O165 In156 2.326 . S
O165 C161 1.260 . S
C166 O157 1.240 . S
C166 O158 1.252 . S
O167 In156 2.294 . S
O167 C160 1.240 . S
O168 In156 2.326 . S
O168 C160 1.252 . S
In169 O170 2.294 . S
In169 O171 2.326 . S
In169 O175 2.266 . S
In169 O176 2.326 . S
In169 O177 2.266 . S
In169 O178 2.326 . S
In169 O180 2.294 . S
In169 O181 2.326 . S
O170 In169 2.294 . S
O170 C179 1.240 . S
O171 In169 2.326 . S
O171 C179 1.252 . S
C172 O175 1.252 . S
C172 O176 1.260 . S
C173 O180 1.240 . S
C173 O181 1.252 . S
C174 O177 1.252 . S
C174 O178 1.260 . S
O175 In169 2.266 . S
O175 C172 1.252 . S
O176 In169 2.326 . S
O176 C172 1.260 . S
O177 In169 2.266 . S
O177 C174 1.252 . S
O178 In169 2.326 . S
O178 C174 1.260 . S
C179 O170 1.240 . S
C179 O171 1.252 . S
O180 In169 2.294 . S
O180 C173 1.240 . S
O181 In169 2.326 . S
O181 C173 1.252 . S
In182 O183 2.294 . S
In182 O184 2.326 . S
In182 O188 2.266 . S
In182 O189 2.326 . S
In182 O190 2.266 . S
In182 O191 2.326 . S
In182 O193 2.294 . S
In182 O194 2.326 . S
O183 In182 2.294 . S
O183 C192 1.240 . S
O184 In182 2.326 . S
O184 C192 1.252 . S
C185 O188 1.252 . S
C185 O189 1.260 . S
C186 O193 1.240 . S
C186 O194 1.252 . S
C187 O190 1.252 . S
C187 O191 1.260 . S
O188 In182 2.266 . S
O188 C185 1.252 . S
O189 In182 2.326 . S
O189 C185 1.260 . S
O190 In182 2.266 . S
O190 C187 1.252 . S
O191 In182 2.326 . S
O191 C187 1.260 . S
C192 O183 1.240 . S
C192 O184 1.252 . S
O193 In182 2.294 . S
O193 C186 1.240 . S
O194 In182 2.326 . S
O194 C186 1.252 . S
In195 O196 2.294 . S
In195 O197 2.326 . S
In195 O201 2.266 . S
In195 O202 2.326 . S
In195 O203 2.266 . S
In195 O204 2.326 . S
In195 O206 2.294 . S
In195 O207 2.326 . S
O196 In195 2.294 . S
O196 C205 1.240 . S
O197 In195 2.326 . S
O197 C205 1.252 . S
C198 O201 1.252 . S
C198 O202 1.260 . S
C199 O206 1.240 . S
C199 O207 1.252 . S
C200 O203 1.252 . S
C200 O204 1.260 . S
O201 In195 2.266 . S
O201 C198 1.252 . S
O202 In195 2.326 . S
O202 C198 1.260 . S
O203 In195 2.266 . S
O203 C200 1.252 . S
O204 In195 2.326 . S
O204 C200 1.260 . S
C205 O196 1.240 . S
C205 O197 1.252 . S
O206 In195 2.294 . S
O206 C199 1.240 . S
O207 In195 2.326 . S
O207 C199 1.252 . S
C208 C209 1.369 . S
C208 C210 1.419 . S
C208 H212 0.930 . S
C209 C208 1.369 . S
C209 C218 1.429 . S
C210 C208 1.419 . S
C210 C211 1.363 . S
C210 H213 0.929 . S
C211 C210 1.363 . S
C211 C217 1.428 . S
H212 C208 0.930 . S
H213 C210 0.929 . S
S214 N215 1.613 . S
S214 N216 1.610 . S
N215 S214 1.613 . S
N215 C218 1.350 . S
N216 S214 1.610 . S
N216 C217 1.351 . S
C217 C211 1.428 . S
C217 N216 1.351 . S
C217 C218 1.434 . S
C218 C209 1.429 . S
C218 N215 1.350 . S
C218 C217 1.434 . S
C219 C220 1.369 1_545 S
C219 C221 1.419 . S
C219 H223 0.930 . S
C220 C219 1.369 1_565 S
C220 C229 1.429 1_655 S
C221 C219 1.419 . S
C221 C222 1.363 1_655 S
C221 H224 0.929 . S
C222 C221 1.363 1_455 S
C222 C228 1.428 1_545 S
H223 C219 0.930 . S
H224 C221 0.929 . S
S225 N226 1.613 . S
S225 N227 1.610 . S
N226 S225 1.613 . S
N226 C229 1.350 . S
N227 S225 1.610 . S
N227 C228 1.351 . S
C228 C222 1.428 1_565 S
C228 N227 1.351 . S
C228 C229 1.434 . S
C229 C220 1.429 1_455 S
C229 N226 1.350 . S
C229 C228 1.434 . S
C230 C231 1.369 . S
C230 C232 1.419 . S
C230 H234 0.930 . S
C231 C230 1.369 . S
C231 C240 1.429 1_565 S
C232 C230 1.419 . S
C232 C233 1.363 1_565 S
C232 H235 0.929 . S
C233 C232 1.363 1_545 S
C233 C239 1.428 . S
H234 C230 0.930 . S
H235 C232 0.929 . S
S236 N237 1.613 . S
S236 N238 1.610 . S
N237 S236 1.613 . S
N237 C240 1.350 . S
N238 S236 1.610 . S
N238 C239 1.351 . S
C239 C233 1.428 . S
C239 N238 1.351 . S
C239 C240 1.434 . S
C240 C231 1.429 1_545 S
C240 N237 1.350 . S
C240 C239 1.434 . S
C241 C242 1.369 . S
C241 C243 1.419 1_455 S
C241 H245 0.930 . S
C242 C241 1.369 . S
C242 C251 1.429 . S
C243 C241 1.419 1_655 S
C243 C244 1.363 . S
C243 H246 0.929 . S
C244 C243 1.363 . S
C244 C250 1.428 . S
H245 C241 0.930 . S
H246 C243 0.929 . S
S247 N248 1.613 . S
S247 N249 1.627 . S
N248 S247 1.613 . S
N248 C251 1.350 . S
N249 S247 1.627 . S
N249 C250 1.350 1_455 S
C250 C244 1.428 . S
C250 N249 1.350 1_655 S
C250 C251 1.434 1_655 S
C251 C242 1.429 . S
C251 N248 1.350 . S
C251 C250 1.434 1_455 S
C252 C253 1.369 . S
C252 C254 1.419 . S
C252 H256 0.930 . S
C253 C252 1.369 . S
C253 C262 1.429 . S
C254 C252 1.419 . S
C254 C255 1.363 . S
C254 H257 0.929 . S
C255 C254 1.363 . S
C255 C261 1.428 . S
H256 C252 0.930 . S
H257 C254 0.929 . S
S258 N259 1.613 . S
S258 N260 1.610 . S
N259 S258 1.613 . S
N259 C262 1.350 . S
N260 S258 1.610 . S
N260 C261 1.351 . S
C261 C255 1.428 . S
C261 N260 1.351 . S
C261 C262 1.434 . S
C262 C253 1.429 . S
C262 N259 1.350 . S
C262 C261 1.434 . S
C263 C264 1.369 . S
C263 C265 1.419 . S
C263 H267 0.930 . S
C264 C263 1.369 . S
C264 C273 1.429 1_545 S
C265 C263 1.419 . S
C265 C266 1.363 1_545 S
C265 H268 0.929 . S
C266 C265 1.363 1_565 S
C266 C272 1.428 . S
H267 C263 0.930 . S
H268 C265 0.929 . S
S269 N270 1.613 . S
S269 N271 1.610 . S
N270 S269 1.613 . S
N270 C273 1.350 . S
N271 S269 1.610 . S
N271 C272 1.351 . S
C272 C266 1.428 . S
C272 N271 1.351 . S
C272 C273 1.434 . S
C273 C264 1.429 1_565 S
C273 N270 1.350 . S
C273 C272 1.434 . S
C274 C275 1.369 1_455 S
C274 C276 1.419 . S
C274 H278 0.930 . S
C275 C274 1.369 1_655 S
C275 C284 1.429 . S
C276 C274 1.419 . S
C276 C277 1.363 . S
C276 H279 0.929 . S
C277 C276 1.363 . S
C277 C283 1.428 1_455 S
H278 C274 0.930 . S
H279 C276 0.929 . S
S280 N281 1.613 . S
S280 N282 1.610 . S
N281 S280 1.613 . S
N281 C284 1.350 . S
N282 S280 1.610 . S
N282 C283 1.351 . S
C283 C277 1.428 1_655 S
C283 N282 1.351 . S
C283 C284 1.434 . S
C284 C275 1.429 . S
C284 N281 1.350 . S
C284 C283 1.434 . S
C285 C286 1.369 1_556 S
C285 C287 1.419 . S
C285 H289 0.930 . S
C286 C285 1.369 1_554 S
C286 C295 1.429 . S
C287 C285 1.419 . S
C287 C288 1.363 . S
C287 H290 0.929 . S
C288 C287 1.363 . S
C288 C294 1.428 1_556 S
H289 C285 0.930 . S
H290 C287 0.929 . S
S291 N292 1.613 . S
S291 N293 1.610 . S
N292 S291 1.613 . S
N292 C295 1.350 . S
N293 S291 1.610 . S
N293 C294 1.351 . S
C294 C288 1.428 1_554 S
C294 N293 1.351 . S
C294 C295 1.434 . S
C295 C286 1.429 . S
C295 N292 1.350 . S
C295 C294 1.434 . S
C296 C297 1.369 1_655 S
C296 C298 1.419 . S
C296 H300 0.930 . S
C297 C296 1.369 1_455 S
C297 C306 1.429 1_556 S
C298 C296 1.419 . S
C298 C299 1.363 1_556 S
C298 H301 0.929 . S
C299 C298 1.363 1_554 S
C299 C305 1.428 1_655 S
H300 C296 0.930 . S
H301 C298 0.929 . S
S302 N303 1.613 . S
S302 N304 1.610 . S
N303 S302 1.613 . S
N303 C306 1.350 . S
N304 S302 1.610 . S
N304 C305 1.351 . S
C305 C299 1.428 1_455 S
C305 N304 1.351 . S
C305 C306 1.434 . S
C306 C297 1.429 1_554 S
C306 N303 1.350 . S
C306 C305 1.434 . S
C307 C308 1.369 . S
C307 C309 1.419 . S
C307 H311 0.930 . S
C308 C307 1.369 . S
C308 C317 1.429 . S
C309 C307 1.419 . S
C309 C310 1.363 . S
C309 H312 0.929 . S
C310 C309 1.363 . S
C310 C316 1.428 . S
H311 C307 0.930 . S
H312 C309 0.929 . S
S313 N314 1.613 . S
S313 N315 1.610 . S
N314 S313 1.613 . S
N314 C317 1.350 . S
N315 S313 1.610 . S
N315 C316 1.351 . S
C316 C310 1.428 . S
C316 N315 1.351 . S
C316 C317 1.434 . S
C317 C308 1.429 . S
C317 N314 1.350 . S
C317 C316 1.434 . S
C318 C319 1.369 . S
C318 C320 1.419 . S
C318 H322 0.930 . S
C319 C318 1.369 . S
C319 C328 1.429 1_556 S
C320 C318 1.419 . S
C320 C321 1.363 1_556 S
C320 H323 0.929 . S
C321 C320 1.363 1_554 S
C321 C327 1.428 . S
H322 C318 0.930 . S
H323 C320 0.929 . S
S324 N325 1.613 . S
S324 N326 1.610 . S
N325 S324 1.613 . S
N325 C328 1.350 . S
N326 S324 1.610 . S
N326 C327 1.351 . S
C327 C321 1.428 . S
C327 N326 1.351 . S
C327 C328 1.434 . S
C328 C319 1.429 1_554 S
C328 N325 1.350 . S
C328 C327 1.434 . S
C329 C330 1.369 . S
C329 C331 1.419 . S
C329 H333 0.930 . S
C330 C329 1.369 . S
C330 C339 1.429 . S
C331 C329 1.419 . S
C331 C332 1.363 . S
C331 H334 0.929 . S
C332 C331 1.363 . S
C332 C338 1.428 . S
H333 C329 0.930 . S
H334 C331 0.929 . S
S335 N336 1.613 . S
S335 N337 1.610 . S
N336 S335 1.613 . S
N336 C339 1.350 . S
N337 S335 1.610 . S
N337 C338 1.351 . S
C338 C332 1.428 . S
C338 N337 1.351 . S
C338 C339 1.434 . S
C339 C330 1.429 . S
C339 N336 1.350 . S
C339 C338 1.434 . S
C340 C341 1.369 1_554 S
C340 C342 1.419 . S
C340 H344 0.930 . S
C341 C340 1.369 1_556 S
C341 C350 1.429 1_545 S
C342 C340 1.419 . S
C342 C343 1.363 1_545 S
C342 H345 0.929 . S
C343 C342 1.363 1_565 S
C343 C349 1.428 1_554 S
H344 C340 0.930 . S
H345 C342 0.929 . S
S346 N347 1.613 . S
S346 N348 1.610 . S
N347 S346 1.613 . S
N347 C350 1.350 . S
N348 S346 1.610 . S
N348 C349 1.351 . S
C349 C343 1.428 1_556 S
C349 N348 1.351 . S
C349 C350 1.434 . S
C350 C341 1.429 1_565 S
C350 N347 1.350 . S
C350 C349 1.434 . S
C351 C352 1.369 . S
C351 C353 1.419 . S
C351 H355 0.930 . S
C352 C351 1.369 . S
C352 C361 1.429 . S
C353 C351 1.419 . S
C353 C354 1.363 . S
C353 H356 0.929 . S
C354 C353 1.363 . S
C354 C360 1.428 . S
H355 C351 0.930 . S
H356 C353 0.929 . S
S357 N358 1.613 . S
S357 N359 1.610 . S
N358 S357 1.613 . S
N358 C361 1.350 . S
N359 S357 1.610 . S
N359 C360 1.351 . S
C360 C354 1.428 . S
C360 N359 1.351 . S
C360 C361 1.434 . S
C361 C352 1.429 . S
C361 N358 1.350 . S
C361 C360 1.434 . S
C362 C363 1.369 . S
C362 C364 1.419 . S
C362 H366 0.930 . S
C363 C362 1.369 . S
C363 C372 1.429 . S
C364 C362 1.419 . S
C364 C365 1.363 . S
C364 H367 0.929 . S
C365 C364 1.363 . S
C365 C371 1.428 . S
H366 C362 0.930 . S
H367 C364 0.929 . S
S368 N369 1.613 . S
S368 N370 1.610 . S
N369 S368 1.613 . S
N369 C372 1.350 . S
N370 S368 1.610 . S
N370 C371 1.351 . S
C371 C365 1.428 . S
C371 N370 1.351 . S
C371 C372 1.434 . S
C372 C363 1.429 . S
C372 N369 1.350 . S
C372 C371 1.434 . S
C373 C374 1.369 . S
C373 C375 1.419 . S
C373 H377 0.930 . S
C374 C373 1.369 . S
C374 C383 1.429 . S
C375 C373 1.419 . S
C375 C376 1.363 . S
C375 H378 0.929 . S
C376 C375 1.363 . S
C376 C382 1.428 . S
H377 C373 0.930 . S
H378 C375 0.929 . S
S379 N380 1.613 . S
S379 N381 1.610 . S
N380 S379 1.613 . S
N380 C383 1.350 . S
N381 S379 1.610 . S
N381 C382 1.351 . S
C382 C376 1.428 . S
C382 N381 1.351 . S
C382 C383 1.434 . S
C383 C374 1.429 . S
C383 N380 1.350 . S
C383 C382 1.434 . S
C384 C385 1.369 . S
C384 C386 1.419 . S
C384 H388 0.930 . S
C385 C384 1.369 . S
C385 C394 1.429 . S
C386 C384 1.419 . S
C386 C387 1.363 . S
C386 H389 0.929 . S
C387 C386 1.363 . S
C387 C393 1.428 . S
H388 C384 0.930 . S
H389 C386 0.929 . S
S390 N391 1.613 . S
S390 N392 1.610 1_565 S
N391 S390 1.613 . S
N391 C394 1.350 . S
N392 S390 1.610 1_545 S
N392 C393 1.351 1_545 S
C393 C387 1.428 . S
C393 N392 1.351 1_565 S
C393 C394 1.434 . S
C394 C385 1.429 . S
C394 N391 1.350 . S
C394 C393 1.434 . S
C395 C396 1.369 . S
C395 C397 1.419 . S
C395 H399 0.930 . S
C396 C395 1.369 . S
C396 C405 1.429 . S
C397 C395 1.419 . S
C397 C398 1.363 . S
C397 H400 0.929 . S
C398 C397 1.363 . S
C398 C404 1.428 . S
H399 C395 0.930 . S
H400 C397 0.929 . S
S401 N402 1.613 . S
S401 N403 1.610 . S
N402 S401 1.613 . S
N402 C405 1.350 . S
N403 S401 1.610 . S
N403 C404 1.351 . S
C404 C398 1.428 . S
C404 N403 1.351 . S
C404 C405 1.434 . S
C405 C396 1.429 . S
C405 N402 1.350 . S
C405 C404 1.434 . S
C406 C407 1.369 . S
C406 C408 1.419 . S
C406 H410 0.930 . S
C407 C406 1.369 . S
C407 C416 1.429 . S
C408 C406 1.419 . S
C408 C409 1.363 . S
C408 H411 0.929 . S
C409 C408 1.363 . S
C409 C415 1.428 . S
H410 C406 0.930 . S
H411 C408 0.929 . S
S412 N413 1.613 . S
S412 N414 1.610 . S
N413 S412 1.613 . S
N413 C416 1.350 . S
N414 S412 1.610 . S
N414 C415 1.351 . S
C415 C409 1.428 . S
C415 N414 1.351 . S
C415 C416 1.434 . S
C416 C407 1.429 . S
C416 N413 1.350 . S
C416 C415 1.434 . S
C417 C418 1.369 . S
C417 C419 1.419 . S
C417 H421 0.930 . S
C418 C417 1.369 . S
C418 C427 1.429 . S
C419 C417 1.419 . S
C419 C420 1.363 . S
C419 H422 0.929 . S
C420 C419 1.363 . S
C420 C426 1.428 . S
H421 C417 0.930 . S
H422 C419 0.929 . S
S423 N424 1.613 . S
S423 N425 1.610 . S
N424 S423 1.613 . S
N424 C427 1.350 . S
N425 S423 1.610 . S
N425 C426 1.351 . S
C426 C420 1.428 . S
C426 N425 1.351 . S
C426 C427 1.434 . S
C427 C418 1.429 . S
C427 N424 1.350 . S
C427 C426 1.434 . S
C428 C429 1.369 . S
C428 C430 1.419 . S
C428 H432 0.930 . S
C429 C428 1.369 . S
C429 C438 1.429 . S
C430 C428 1.419 . S
C430 C431 1.363 . S
C430 H433 0.929 . S
C431 C430 1.363 . S
C431 C437 1.428 . S
H432 C428 0.930 . S
H433 C430 0.929 . S
S434 N435 1.613 . S
S434 N436 1.610 . S
N435 S434 1.613 . S
N435 C438 1.350 . S
N436 S434 1.610 . S
N436 C437 1.351 . S
C437 C431 1.428 . S
C437 N436 1.351 . S
C437 C438 1.434 . S
C438 C429 1.429 . S
C438 N435 1.350 . S
C438 C437 1.434 . S
C439 C440 1.369 . S
C439 C441 1.419 . S
C439 H443 0.930 . S
C440 C439 1.369 . S
C440 C449 1.429 . S
C441 C439 1.419 . S
C441 C442 1.363 . S
C441 H444 0.929 . S
C442 C441 1.363 . S
C442 C448 1.428 . S
H443 C439 0.930 . S
H444 C441 0.929 . S
S445 N446 1.613 . S
S445 N447 1.610 . S
N446 S445 1.613 . S
N446 C449 1.350 . S
N447 S445 1.610 . S
N447 C448 1.351 . S
C448 C442 1.428 . S
C448 N447 1.351 . S
C448 C449 1.434 . S
C449 C440 1.429 . S
C449 N446 1.350 . S
C449 C448 1.434 . S
C450 C451 1.369 . S
C450 C452 1.419 . S
C450 H454 0.930 . S
C451 C450 1.369 . S
C451 C460 1.429 . S
C452 C450 1.419 . S
C452 C453 1.363 . S
C452 H455 0.929 . S
C453 C452 1.363 . S
C453 C459 1.428 . S
H454 C450 0.930 . S
H455 C452 0.929 . S
S456 N457 1.613 . S
S456 N458 1.610 . S
N457 S456 1.613 . S
N457 C460 1.350 . S
N458 S456 1.610 . S
N458 C459 1.351 . S
C459 C453 1.428 . S
C459 N458 1.351 . S
C459 C460 1.434 . S
C460 C451 1.429 . S
C460 N457 1.350 . S
C460 C459 1.434 . S
C461 C462 1.369 . S
C461 C463 1.419 . S
C461 H465 0.930 . S
C462 C461 1.369 . S
C462 C471 1.429 . S
C463 C461 1.419 . S
C463 C464 1.363 . S
C463 H466 0.929 . S
C464 C463 1.363 . S
C464 C470 1.428 . S
H465 C461 0.930 . S
H466 C463 0.929 . S
S467 N468 1.613 . S
S467 N469 1.610 . S
N468 S467 1.613 . S
N468 C471 1.350 . S
N469 S467 1.610 . S
N469 C470 1.351 . S
C470 C464 1.428 . S
C470 N469 1.351 . S
C470 C471 1.434 . S
C471 C462 1.429 . S
C471 N468 1.350 . S
C471 C470 1.434 . S
C472 C473 1.369 . S
C472 C474 1.419 . S
C472 H476 0.930 . S
C473 C472 1.369 . S
C473 C482 1.429 . S
C474 C472 1.419 . S
C474 C475 1.363 . S
C474 H477 0.929 . S
C475 C474 1.363 . S
C475 C481 1.428 . S
H476 C472 0.930 . S
H477 C474 0.929 . S
S478 N479 1.613 . S
S478 N480 1.610 . S
N479 S478 1.613 . S
N479 C482 1.350 . S
N480 S478 1.610 . S
N480 C481 1.351 . S
C481 C475 1.428 . S
C481 N480 1.351 . S
C481 C482 1.434 . S
C482 C473 1.429 . S
C482 N479 1.350 . S
C482 C481 1.434 . S
C483 C484 1.369 . S
C483 C485 1.419 . S
C483 H487 0.930 . S
C484 C483 1.369 . S
C484 C493 1.429 . S
C485 C483 1.419 . S
C485 C486 1.363 . S
C485 H488 0.929 . S
C486 C485 1.363 . S
C486 C492 1.428 . S
H487 C483 0.930 . S
H488 C485 0.929 . S
S489 N490 1.613 . S
S489 N491 1.610 . S
N490 S489 1.613 . S
N490 C493 1.350 . S
N491 S489 1.610 . S
N491 C492 1.351 . S
C492 C486 1.428 . S
C492 N491 1.351 . S
C492 C493 1.434 . S
C493 C484 1.429 . S
C493 N490 1.350 . S
C493 C492 1.434 . S
C494 C495 1.369 . S
C494 C496 1.419 . S
C494 H498 0.930 . S
C495 C494 1.369 . S
C495 C504 1.429 . S
C496 C494 1.419 . S
C496 C497 1.363 . S
C496 H499 0.929 . S
C497 C496 1.363 . S
C497 C503 1.428 . S
H498 C494 0.930 . S
H499 C496 0.929 . S
S500 N501 1.613 . S
S500 N502 1.610 . S
N501 S500 1.613 . S
N501 C504 1.350 . S
N502 S500 1.610 . S
N502 C503 1.351 . S
C503 C497 1.428 . S
C503 N502 1.351 . S
C503 C504 1.434 . S
C504 C495 1.429 . S
C504 N501 1.350 . S
C504 C503 1.434 . S
C505 C506 1.369 . S
C505 C507 1.419 . S
C505 H509 0.930 . S
C506 C505 1.369 . S
C506 C515 1.429 . S
C507 C505 1.419 . S
C507 C508 1.363 . S
C507 H510 0.929 . S
C508 C507 1.363 . S
C508 C514 1.428 . S
H509 C505 0.930 . S
H510 C507 0.929 . S
S511 N512 1.613 . S
S511 N513 1.610 . S
N512 S511 1.613 . S
N512 C515 1.350 . S
N513 S511 1.610 . S
N513 C514 1.351 . S
C514 C508 1.428 . S
C514 N513 1.351 . S
C514 C515 1.434 . S
C515 C506 1.429 . S
C515 N512 1.350 . S
C515 C514 1.434 . S
C516 C517 1.369 . S
C516 C518 1.419 . S
C516 H520 0.930 . S
C517 C516 1.369 . S
C517 C526 1.429 . S
C518 C516 1.419 . S
C518 C519 1.363 . S
C518 H521 0.929 . S
C519 C518 1.363 . S
C519 C525 1.428 . S
H520 C516 0.930 . S
H521 C518 0.929 . S
S522 N523 1.613 . S
S522 N524 1.610 . S
N523 S522 1.613 . S
N523 C526 1.350 . S
N524 S522 1.610 . S
N524 C525 1.351 . S
C525 C519 1.428 . S
C525 N524 1.351 . S
C525 C526 1.434 . S
C526 C517 1.429 . S
C526 N523 1.350 . S
C526 C525 1.434 . S
C527 C528 1.369 . S
C527 C529 1.419 . S
C527 H531 0.930 . S
C528 C527 1.369 . S
C528 C537 1.429 . S
C529 C527 1.419 . S
C529 C530 1.363 . S
C529 H532 0.929 . S
C530 C529 1.363 . S
C530 C536 1.428 . S
H531 C527 0.930 . S
H532 C529 0.929 . S
S533 N534 1.613 . S
S533 N535 1.610 . S
N534 S533 1.613 . S
N534 C537 1.350 . S
N535 S533 1.610 . S
N535 C536 1.351 . S
C536 C530 1.428 . S
C536 N535 1.351 . S
C536 C537 1.434 . S
C537 C528 1.429 . S
C537 N534 1.350 . S
C537 C536 1.434 . S
C538 C539 1.369 . S
C538 C540 1.419 . S
C538 H542 0.930 . S
C539 C538 1.369 . S
C539 C548 1.429 . S
C540 C538 1.419 . S
C540 C541 1.363 . S
C540 H543 0.929 . S
C541 C540 1.363 . S
C541 C547 1.428 . S
H542 C538 0.930 . S
H543 C540 0.929 . S
S544 N545 1.613 . S
S544 N546 1.610 . S
N545 S544 1.613 . S
N545 C548 1.350 . S
N546 S544 1.610 . S
N546 C547 1.351 . S
C547 C541 1.428 . S
C547 N546 1.351 . S
C547 C548 1.434 . S
C548 C539 1.429 . S
C548 N545 1.350 . S
C548 C547 1.434 . S
C549 C550 1.369 . S
C549 C551 1.419 . S
C549 H553 0.930 . S
C550 C549 1.369 . S
C550 C559 1.429 . S
C551 C549 1.419 . S
C551 C552 1.363 . S
C551 H554 0.929 . S
C552 C551 1.363 . S
C552 C558 1.428 . S
H553 C549 0.930 . S
H554 C551 0.929 . S
S555 N556 1.613 . S
S555 N557 1.610 . S
N556 S555 1.613 . S
N556 C559 1.350 . S
N557 S555 1.610 . S
N557 C558 1.351 . S
C558 C552 1.428 . S
C558 N557 1.351 . S
C558 C559 1.434 . S
C559 C550 1.429 . S
C559 N556 1.350 . S
C559 C558 1.434 . S
C209 C185 1.507 . S
C211 C3 1.508 . S
C220 C30 1.507 . S
C222 C4 1.508 . S
C231 C153 1.508 . S
C233 C17 1.507 . S
C242 C16 1.508 . S
C244 C96 1.507 . S
C253 C29 1.507 . S
C255 C159 1.507 . S
C264 C127 1.507 . S
C266 C49 1.507 . S
C275 C44 1.507 . S
C277 C68 1.507 . S
C286 C135 1.507 . S
C288 C55 1.507 . S
C297 C56 1.508 . S
C299 C82 1.507 . S
C308 C205 1.507 . S
C310 C69 1.507 . S
C319 C107 1.508 . S
C321 C81 1.507 . S
C330 C179 1.508 . S
C332 C101 1.507 . S
C341 C108 1.507 . S
C343 C140 1.508 . S
C352 C200 1.507 . S
C354 C122 1.507 . S
C363 C148 1.507 . S
C365 C174 1.507 . S
C374 C186 1.508 . S
C376 C160 1.507 . S
C385 C70 1.556 . S
C387 C10 1.556 1_565 S
C396 C5 1.557 . S
C398 C75 1.555 . S
C407 C18 1.556 . S
C409 C62 1.556 . S
C418 C57 1.556 . S
C420 C23 1.556 1_565 S
C429 C94 1.557 . S
C431 C36 1.556 1_545 S
C440 C95 1.556 . S
C442 C31 1.556 . S
C451 C88 1.555 . S
C453 C42 1.557 . S
C462 C43 1.555 1_545 S
C464 C83 1.557 . S
C473 C172 1.557 . S
C475 C114 1.556 1_565 S
C484 C109 1.556 . S
C486 C173 1.556 . S
C495 C120 1.556 . S
C497 C166 1.556 . S
C506 C161 1.556 . S
C508 C121 1.556 1_565 S
C517 C198 1.557 . S
C519 C134 1.555 1_545 S
C528 C199 1.555 . S
C530 C133 1.557 . S
C539 C146 1.557 . S
C541 C192 1.555 . S
C550 C187 1.557 . S
C552 C147 1.555 1_545 S
