# Generated by pormake.
# Topology pcu-i, (5)-cn, num edge types: 1
# Building blocks:
#     Node 0, Type 0, BuildingBlock: XOMCOT_clean_sbu_0, # of connection points: 5
#     Node 1, Type 0, BuildingBlock: XOMCOT_clean_sbu_0, # of connection points: 5
#     Node 2, Type 0, BuildingBlock: XOMCOT_clean_sbu_0, # of connection points: 5
#     Node 3, Type 0, BuildingBlock: XOMCOT_clean_sbu_0, # of connection points: 5
#     Node 4, Type 0, BuildingBlock: XOMCOT_clean_sbu_0, # of connection points: 5
#     Node 5, Type 0, BuildingBlock: XOMCOT_clean_sbu_0, # of connection points: 5
#     Node 6, Type 0, BuildingBlock: XOMCOT_clean_sbu_0, # of connection points: 5
#     Node 7, Type 0, BuildingBlock: XOMCOT_clean_sbu_0, # of connection points: 5
#     Node 8, Type 0, BuildingBlock: XOMCOT_clean_sbu_0, # of connection points: 5
#     Node 9, Type 0, BuildingBlock: XOMCOT_clean_sbu_0, # of connection points: 5
#     Node 10, Type 0, BuildingBlock: XOMCOT_clean_sbu_0, # of connection points: 5
#     Node 11, Type 0, BuildingBlock: XOMCOT_clean_sbu_0, # of connection points: 5
#     Node 12, Type 0, BuildingBlock: XOMCOT_clean_sbu_0, # of connection points: 5
#     Node 13, Type 0, BuildingBlock: XOMCOT_clean_sbu_0, # of connection points: 5
#     Node 14, Type 0, BuildingBlock: XOMCOT_clean_sbu_0, # of connection points: 5
#     Node 15, Type 0, BuildingBlock: XOMCOT_clean_sbu_0, # of connection points: 5
#     Node 16, Type 0, BuildingBlock: XOMCOT_clean_sbu_0, # of connection points: 5
#     Node 17, Type 0, BuildingBlock: XOMCOT_clean_sbu_0, # of connection points: 5
#     Node 18, Type 0, BuildingBlock: XOMCOT_clean_sbu_0, # of connection points: 5
#     Node 19, Type 0, BuildingBlock: XOMCOT_clean_sbu_0, # of connection points: 5
#     Node 20, Type 0, BuildingBlock: XOMCOT_clean_sbu_0, # of connection points: 5
#     Node 21, Type 0, BuildingBlock: XOMCOT_clean_sbu_0, # of connection points: 5
#     Node 22, Type 0, BuildingBlock: XOMCOT_clean_sbu_0, # of connection points: 5
#     Node 23, Type 0, BuildingBlock: XOMCOT_clean_sbu_0, # of connection points: 5
#     Edge 24, Type (0, 0), BuildingBlock: EZIPEK_clean_linker_0, # of connection points: 2
#     Edge 25, Type (0, 0), BuildingBlock: EZIPEK_clean_linker_0, # of connection points: 2
#     Edge 26, Type (0, 0), BuildingBlock: EZIPEK_clean_linker_0, # of connection points: 2
#     Edge 27, Type (0, 0), BuildingBlock: EZIPEK_clean_linker_0, # of connection points: 2
#     Edge 28, Type (0, 0), BuildingBlock: EZIPEK_clean_linker_0, # of connection points: 2
#     Edge 29, Type (0, 0), BuildingBlock: EZIPEK_clean_linker_0, # of connection points: 2
#     Edge 30, Type (0, 0), BuildingBlock: EZIPEK_clean_linker_0, # of connection points: 2
#     Edge 31, Type (0, 0), BuildingBlock: EZIPEK_clean_linker_0, # of connection points: 2
#     Edge 32, Type (0, 0), BuildingBlock: EZIPEK_clean_linker_0, # of connection points: 2
#     Edge 33, Type (0, 0), BuildingBlock: EZIPEK_clean_linker_0, # of connection points: 2
#     Edge 34, Type (0, 0), BuildingBlock: EZIPEK_clean_linker_0, # of connection points: 2
#     Edge 35, Type (0, 0), BuildingBlock: EZIPEK_clean_linker_0, # of connection points: 2
#     Edge 36, Type (0, 0), BuildingBlock: EZIPEK_clean_linker_0, # of connection points: 2
#     Edge 37, Type (0, 0), BuildingBlock: EZIPEK_clean_linker_0, # of connection points: 2
#     Edge 38, Type (0, 0), BuildingBlock: EZIPEK_clean_linker_0, # of connection points: 2
#     Edge 39, Type (0, 0), BuildingBlock: EZIPEK_clean_linker_0, # of connection points: 2
#     Edge 40, Type (0, 0), BuildingBlock: EZIPEK_clean_linker_0, # of connection points: 2
#     Edge 41, Type (0, 0), BuildingBlock: EZIPEK_clean_linker_0, # of connection points: 2
#     Edge 42, Type (0, 0), BuildingBlock: EZIPEK_clean_linker_0, # of connection points: 2
#     Edge 43, Type (0, 0), BuildingBlock: EZIPEK_clean_linker_0, # of connection points: 2
#     Edge 44, Type (0, 0), BuildingBlock: EZIPEK_clean_linker_0, # of connection points: 2
#     Edge 45, Type (0, 0), BuildingBlock: EZIPEK_clean_linker_0, # of connection points: 2
#     Edge 46, Type (0, 0), BuildingBlock: EZIPEK_clean_linker_0, # of connection points: 2
#     Edge 47, Type (0, 0), BuildingBlock: EZIPEK_clean_linker_0, # of connection points: 2
#     Edge 48, Type (0, 0), BuildingBlock: EZIPEK_clean_linker_0, # of connection points: 2
#     Edge 49, Type (0, 0), BuildingBlock: EZIPEK_clean_linker_0, # of connection points: 2
#     Edge 50, Type (0, 0), BuildingBlock: EZIPEK_clean_linker_0, # of connection points: 2
#     Edge 51, Type (0, 0), BuildingBlock: EZIPEK_clean_linker_0, # of connection points: 2
#     Edge 52, Type (0, 0), BuildingBlock: EZIPEK_clean_linker_0, # of connection points: 2
#     Edge 53, Type (0, 0), BuildingBlock: EZIPEK_clean_linker_0, # of connection points: 2
#     Edge 54, Type (0, 0), BuildingBlock: EZIPEK_clean_linker_0, # of connection points: 2
#     Edge 55, Type (0, 0), BuildingBlock: EZIPEK_clean_linker_0, # of connection points: 2
#     Edge 56, Type (0, 0), BuildingBlock: EZIPEK_clean_linker_0, # of connection points: 2
#     Edge 57, Type (0, 0), BuildingBlock: EZIPEK_clean_linker_0, # of connection points: 2
#     Edge 58, Type (0, 0), BuildingBlock: EZIPEK_clean_linker_0, # of connection points: 2
#     Edge 59, Type (0, 0), BuildingBlock: EZIPEK_clean_linker_0, # of connection points: 2
#     Edge 60, Type (0, 0), BuildingBlock: EZIPEK_clean_linker_0, # of connection points: 2
#     Edge 61, Type (0, 0), BuildingBlock: EZIPEK_clean_linker_0, # of connection points: 2
#     Edge 62, Type (0, 0), BuildingBlock: EZIPEK_clean_linker_0, # of connection points: 2
#     Edge 63, Type (0, 0), BuildingBlock: EZIPEK_clean_linker_0, # of connection points: 2
#     Edge 64, Type (0, 0), BuildingBlock: EZIPEK_clean_linker_0, # of connection points: 2
#     Edge 65, Type (0, 0), BuildingBlock: EZIPEK_clean_linker_0, # of connection points: 2
#     Edge 66, Type (0, 0), BuildingBlock: EZIPEK_clean_linker_0, # of connection points: 2
#     Edge 67, Type (0, 0), BuildingBlock: EZIPEK_clean_linker_0, # of connection points: 2
#     Edge 68, Type (0, 0), BuildingBlock: EZIPEK_clean_linker_0, # of connection points: 2
#     Edge 69, Type (0, 0), BuildingBlock: EZIPEK_clean_linker_0, # of connection points: 2
#     Edge 70, Type (0, 0), BuildingBlock: EZIPEK_clean_linker_0, # of connection points: 2
#     Edge 71, Type (0, 0), BuildingBlock: EZIPEK_clean_linker_0, # of connection points: 2
#     Edge 72, Type (0, 0), BuildingBlock: EZIPEK_clean_linker_0, # of connection points: 2
#     Edge 73, Type (0, 0), BuildingBlock: EZIPEK_clean_linker_0, # of connection points: 2
#     Edge 74, Type (0, 0), BuildingBlock: EZIPEK_clean_linker_0, # of connection points: 2
#     Edge 75, Type (0, 0), BuildingBlock: EZIPEK_clean_linker_0, # of connection points: 2
#     Edge 76, Type (0, 0), BuildingBlock: EZIPEK_clean_linker_0, # of connection points: 2
#     Edge 77, Type (0, 0), BuildingBlock: EZIPEK_clean_linker_0, # of connection points: 2
#     Edge 78, Type (0, 0), BuildingBlock: EZIPEK_clean_linker_0, # of connection points: 2
#     Edge 79, Type (0, 0), BuildingBlock: EZIPEK_clean_linker_0, # of connection points: 2
#     Edge 80, Type (0, 0), BuildingBlock: EZIPEK_clean_linker_0, # of connection points: 2
#     Edge 81, Type (0, 0), BuildingBlock: EZIPEK_clean_linker_0, # of connection points: 2
#     Edge 82, Type (0, 0), BuildingBlock: EZIPEK_clean_linker_0, # of connection points: 2
#     Edge 83, Type (0, 0), BuildingBlock: EZIPEK_clean_linker_0, # of connection points: 2
# Relax obj value: 0.310
# Max RMSD: 0.282
# Mean RMSD: 0.282
data_MOF--net-pcu-i--node1-XOMCOT_clean_sbu_0--edge1-EZIPEK_clean_linker_0
_symmetry_space_group_name_H-M    P1
_symmetry_Int_Tables_number       1
_symmetry_cell_setting            triclinic
loop_
_symmetry_equiv_pos_as_xyz
'x, y, z'
_cell_length_a     42.853826
_cell_length_b     42.912703
_cell_length_c     43.160468
_cell_angle_alpha  89.643648
_cell_angle_beta   89.6362
_cell_angle_gamma 90.428051
loop_
_atom_site_label
_atom_site_type_symbol
_atom_site_fract_x
_atom_site_fract_y
_atom_site_fract_z
_atom_type_partial_charge
Co0 Co 0.14048 0.15054 0.33665 0.0
C1 C 0.07175 0.13377 0.3377 0.0
C2 C 0.08106 0.18288 0.33517 0.0
C3 C 0.04959 0.17838 0.33287 0.0
N4 N 0.0953 0.1551 0.33774 0.0
N5 N 0.04369 0.1476 0.33426 0.0
H6 H 0.07473 0.10899 0.34097 0.0
H7 H 0.09262 0.20516 0.33532 0.0
C8 C 0.16348 0.20921 0.30228 0.0
O9 O 0.19182 0.2059 0.31273 0.0
N10 N 0.18554 0.14613 0.33329 0.0
C11 C 0.20788 0.14523 0.35519 0.0
C12 C 0.2367 0.14289 0.34068 0.0
C13 C 0.20094 0.14317 0.30607 0.0
N14 N 0.23205 0.14188 0.30984 0.0
C15 C 0.12676 0.16046 0.3993 0.0
C16 C 0.17239 0.20401 0.41245 0.0
C17 C 0.15831 0.1872 0.43675 0.0
C18 C 0.13405 0.16658 0.43003 0.0
C19 C 0.16448 0.19695 0.38176 0.0
N20 N 0.14336 0.17378 0.37546 0.0
H21 H 0.10948 0.14264 0.39478 0.0
H22 H 0.17737 0.20841 0.36378 0.0
H23 H 0.20366 0.14622 0.37984 0.0
H24 H 0.18965 0.14389 0.28371 0.0
O25 O 0.13821 0.11038 0.35635 0.0
O26 O 0.13642 0.1174 0.30563 0.0
O27 O 0.14178 0.1896 0.30921 0.0
C28 C 0.13676 0.09805 0.3292 0.0
H29 H 0.03206 0.19639 0.3316 0.0
H30 H 0.25929 0.1431 0.35176 0.0
H31 H 0.19088 0.22066 0.41705 0.0
H32 H 0.12218 0.15372 0.44836 0.0
Co33 Co 0.85912 0.13544 0.35052 0.0
C34 C 0.87091 0.06638 0.34525 0.0
C35 C 0.82689 0.07618 0.36665 0.0
C36 C 0.82882 0.04473 0.36224 0.0
N37 N 0.85291 0.09027 0.3555 0.0
N38 N 0.85654 0.03833 0.34899 0.0
H39 H 0.89411 0.06913 0.33569 0.0
H40 H 0.80799 0.08741 0.37845 0.0
C41 C 0.79123 0.13517 0.33103 0.0
O42 O 0.78211 0.13086 0.35972 0.0
N43 N 0.86497 0.17982 0.34289 0.0
C44 C 0.87356 0.20292 0.36221 0.0
C45 C 0.87599 0.2304 0.34541 0.0
C46 C 0.8625 0.19348 0.31472 0.0
N47 N 0.86905 0.22422 0.31566 0.0
C48 C 0.84741 0.12775 0.41461 0.0
C49 C 0.81104 0.17992 0.42349 0.0
C50 C 0.82321 0.16436 0.44933 0.0
C51 C 0.8407 0.13744 0.4446 0.0
C52 C 0.81877 0.16967 0.39362 0.0
N53 N 0.83705 0.14393 0.38938 0.0
H54 H 0.86301 0.10831 0.41169 0.0
H55 H 0.81137 0.18336 0.37395 0.0
H56 H 0.87792 0.20004 0.38672 0.0
H57 H 0.85653 0.18105 0.2938 0.0
O58 O 0.89918 0.13268 0.36954 0.0
O59 O 0.892 0.1287 0.31929 0.0
O60 O 0.82023 0.13718 0.32363 0.0
C61 C 0.91166 0.1302 0.34238 0.0
H62 H 0.8117 0.02752 0.36969 0.0
H63 H 0.88269 0.25303 0.35419 0.0
H64 H 0.79734 0.20082 0.42637 0.0
H65 H 0.85051 0.12486 0.46404 0.0
Co66 Co 0.87155 0.85294 0.34194 0.0
C67 C 0.94058 0.86308 0.33484 0.0
C68 C 0.92782 0.81678 0.34937 0.0
C69 C 0.95899 0.8172 0.34262 0.0
N70 N 0.91595 0.84525 0.34414 0.0
N71 N 0.96719 0.84631 0.33376 0.0
H72 H 0.93926 0.88758 0.329 0.0
H73 H 0.91476 0.79701 0.35791 0.0
C74 C 0.84628 0.79725 0.3048 0.0
O75 O 0.81767 0.80249 0.31414 0.0
N76 N 0.82747 0.86068 0.33713 0.0
C77 C 0.80383 0.86349 0.35769 0.0
C78 C 0.77653 0.86879 0.34143 0.0
C79 C 0.81465 0.86553 0.30913 0.0
N80 N 0.78373 0.86955 0.31096 0.0
C81 C 0.84161 0.80601 0.38381 0.0
C82 C 0.8696 0.83217 0.43501 0.0
C83 C 0.84338 0.81312 0.43931 0.0
C84 C 0.83054 0.79828 0.41355 0.0
C85 C 0.88006 0.83897 0.40509 0.0
N86 N 0.8647 0.82791 0.3797 0.0
H87 H 0.82972 0.79596 0.36475 0.0
H88 H 0.89899 0.85555 0.40234 0.0
H89 H 0.8062 0.86189 0.38251 0.0
H90 H 0.82759 0.86451 0.28752 0.0
O91 O 0.8762 0.89132 0.36369 0.0
O92 O 0.87829 0.88862 0.3131 0.0
O93 O 0.86896 0.81513 0.31302 0.0
C94 C 0.8775 0.90627 0.33779 0.0
H95 H 0.97492 0.79792 0.34544 0.0
H96 H 0.75331 0.87126 0.35105 0.0
H97 H 0.88066 0.84342 0.45454 0.0
H98 H 0.81068 0.78271 0.41622 0.0
Co99 Co 0.15069 0.87013 0.33475 0.0
C100 C 0.14032 0.93934 0.34275 0.0
C101 C 0.16808 0.92671 0.30327 0.0
C102 C 0.16321 0.95798 0.30183 0.0
N103 N 0.15435 0.91477 0.32906 0.0
N104 N 0.14574 0.96597 0.32634 0.0
H105 H 0.12616 0.93781 0.36356 0.0
H106 H 0.17956 0.91349 0.28537 0.0
C107 C 0.21522 0.84964 0.31594 0.0
O108 O 0.21628 0.83097 0.34011 0.0
N109 N 0.14808 0.82459 0.33543 0.0
C110 C 0.15657 0.80237 0.35616 0.0
C111 C 0.15888 0.77406 0.34109 0.0
C112 C 0.14558 0.80913 0.30837 0.0
N113 N 0.15216 0.77874 0.31103 0.0
C114 C 0.1524 0.86065 0.39915 0.0
C115 C 0.21097 0.88352 0.41266 0.0
C116 C 0.19206 0.87129 0.43679 0.0
C117 C 0.16244 0.86028 0.42952 0.0
C118 C 0.19953 0.88401 0.38191 0.0
N119 N 0.17088 0.87143 0.37539 0.0
H120 H 0.12978 0.85054 0.39478 0.0
H121 H 0.21362 0.89424 0.36359 0.0
H122 H 0.16392 0.80623 0.37965 0.0
H123 H 0.14202 0.82042 0.28623 0.0
O124 O 0.10967 0.87457 0.35135 0.0
O125 O 0.11881 0.86937 0.30158 0.0
O126 O 0.19104 0.86603 0.31087 0.0
C127 C 0.09837 0.87106 0.32413 0.0
H128 H 0.17138 0.9738 0.28383 0.0
H129 H 0.16754 0.7525 0.35078 0.0
H130 H 0.234 0.89269 0.41755 0.0
H131 H 0.14708 0.85084 0.44736 0.0
Co132 Co 0.13113 0.87151 0.66455 0.0
C133 C 0.06159 0.87507 0.66546 0.0
C134 C 0.07768 0.83787 0.63672 0.0
C135 C 0.04573 0.83677 0.63778 0.0
N136 N 0.08791 0.86183 0.65414 0.0
N137 N 0.03563 0.86023 0.65571 0.0
H138 H 0.06107 0.8951 0.68048 0.0
H139 H 0.09215 0.82245 0.6234 0.0
C140 C 0.13413 0.80152 0.67654 0.0
O141 O 0.13566 0.79616 0.64672 0.0
N142 N 0.17328 0.88086 0.67686 0.0
C143 C 0.19432 0.89977 0.66274 0.0
C144 C 0.2199 0.90276 0.6818 0.0
C145 C 0.18587 0.87308 0.7043 0.0
N146 N 0.21431 0.88599 0.70778 0.0
C147 C 0.17488 0.84317 0.62043 0.0
C148 C 0.14493 0.86824 0.56951 0.0
C149 C 0.1747 0.85582 0.56534 0.0
C150 C 0.18963 0.84268 0.59116 0.0
C151 C 0.13153 0.86907 0.59899 0.0
N152 N 0.14629 0.85681 0.62423 0.0
H153 H 0.18733 0.83437 0.64034 0.0
H154 H 0.10998 0.88168 0.60181 0.0
H155 H 0.19099 0.91107 0.64054 0.0
H156 H 0.17405 0.85926 0.7219 0.0
O157 O 0.12627 0.91381 0.65112 0.0
O158 O 0.11714 0.89744 0.699 0.0
O159 O 0.13348 0.82947 0.68683 0.0
C160 C 0.11862 0.92069 0.67931 0.0
H161 H 0.03087 0.82069 0.62534 0.0
H162 H 0.24073 0.9165 0.67725 0.0
H163 H 0.13281 0.87897 0.55028 0.0
H164 H 0.21287 0.83318 0.58892 0.0
Co165 Co 0.15307 0.14134 0.66895 0.0
C166 C 0.14272 0.07393 0.68376 0.0
C167 C 0.17652 0.08044 0.64747 0.0
C168 C 0.17235 0.04898 0.65231 0.0
N169 N 0.15706 0.09622 0.66639 0.0
N170 N 0.15093 0.04505 0.67491 0.0
H171 H 0.12591 0.0784 0.70194 0.0
H172 H 0.19245 0.09085 0.63082 0.0
C173 C 0.21697 0.1617 0.6939 0.0
O174 O 0.2139 0.18979 0.68222 0.0
N175 N 0.14967 0.1862 0.67254 0.0
C176 C 0.1433 0.20727 0.65015 0.0
C177 C 0.14397 0.23672 0.66292 0.0
C178 C 0.15298 0.2029 0.69873 0.0
N179 N 0.15038 0.23372 0.6933 0.0
C180 C 0.15017 0.13466 0.60405 0.0
C181 C 0.20033 0.17169 0.58693 0.0
C182 C 0.17842 0.16317 0.56459 0.0
C183 C 0.1539 0.14336 0.57313 0.0
C184 C 0.19578 0.16223 0.61781 0.0
N185 N 0.16971 0.14566 0.62652 0.0
H186 H 0.13059 0.11982 0.61005 0.0
H187 H 0.21307 0.16894 0.63405 0.0
H188 H 0.13875 0.20172 0.62621 0.0
H189 H 0.15831 0.19279 0.72111 0.0
O190 O 0.10981 0.13957 0.65677 0.0
O191 O 0.12516 0.13697 0.70534 0.0
O192 O 0.19555 0.14108 0.6901 0.0
C193 C 0.10213 0.13718 0.6856 0.0
H194 H 0.1831 0.03037 0.63931 0.0
H195 H 0.14047 0.2586 0.65088 0.0
H196 H 0.22024 0.18617 0.58072 0.0
H197 H 0.13709 0.13553 0.55617 0.0
Co198 Co 0.87799 0.14952 0.67156 0.0
C199 C 0.94605 0.1565 0.68213 0.0
C200 C 0.93639 0.14057 0.6363 0.0
C201 C 0.96793 0.13924 0.64077 0.0
N202 N 0.92245 0.1528 0.6616 0.0
N203 N 0.97407 0.14888 0.66969 0.0
H204 H 0.94245 0.16163 0.70639 0.0
H205 H 0.92418 0.13118 0.61653 0.0
C206 C 0.89231 0.21368 0.69301 0.0
O207 O 0.90683 0.21802 0.66647 0.0
N208 N 0.83459 0.14337 0.68363 0.0
C209 C 0.81265 0.12758 0.66759 0.0
C210 C 0.78582 0.12558 0.6852 0.0
C211 C 0.8211 0.14986 0.71122 0.0
N212 N 0.79128 0.13949 0.71253 0.0
C213 C 0.83474 0.18602 0.63305 0.0
C214 C 0.87306 0.18768 0.58173 0.0
C215 C 0.84091 0.18964 0.57743 0.0
C216 C 0.82185 0.19179 0.60377 0.0
C217 C 0.88475 0.18259 0.61137 0.0
N218 N 0.86522 0.17676 0.63603 0.0
H219 H 0.81937 0.18739 0.65282 0.0
H220 H 0.90951 0.18376 0.61373 0.0
H221 H 0.81604 0.11793 0.64473 0.0
H222 H 0.83304 0.16095 0.73027 0.0
O223 O 0.87667 0.10972 0.6509 0.0
O224 O 0.88856 0.11599 0.70023 0.0
O225 O 0.88047 0.18702 0.69979 0.0
C226 C 0.88376 0.09692 0.67728 0.0
H227 H 0.98481 0.12915 0.62506 0.0
H228 H 0.7643 0.11389 0.67897 0.0
H229 H 0.88903 0.18895 0.56218 0.0
H230 H 0.79704 0.19581 0.60159 0.0
Co231 Co 0.84885 0.87378 0.65781 0.0
C232 C 0.86483 0.94094 0.6661 0.0
C233 C 0.82262 0.93561 0.64025 0.0
C234 C 0.82785 0.96688 0.64482 0.0
N235 N 0.8459 0.91909 0.65338 0.0
N236 N 0.85425 0.97005 0.66111 0.0
H237 H 0.8857 0.93598 0.6791 0.0
H238 H 0.8031 0.92596 0.62783 0.0
C239 C 0.78347 0.88026 0.68281 0.0
O240 O 0.77309 0.88565 0.65483 0.0
N241 N 0.85168 0.82912 0.66458 0.0
C242 C 0.86727 0.80763 0.64805 0.0
C243 C 0.86678 0.77979 0.66432 0.0
C244 C 0.84134 0.81392 0.69014 0.0
N245 N 0.85033 0.78389 0.69072 0.0
C246 C 0.83445 0.88111 0.59467 0.0
C247 C 0.79915 0.82722 0.58955 0.0
C248 C 0.81237 0.8408 0.56292 0.0
C249 C 0.82871 0.86886 0.56551 0.0
C250 C 0.80518 0.84053 0.61852 0.0
N251 N 0.82382 0.86647 0.62095 0.0
H252 H 0.85053 0.90053 0.59615 0.0
H253 H 0.79751 0.82816 0.63904 0.0
H254 H 0.87858 0.81187 0.62604 0.0
H255 H 0.82868 0.82482 0.70887 0.0
O256 O 0.88748 0.8745 0.63573 0.0
O257 O 0.88429 0.87793 0.68617 0.0
O258 O 0.81233 0.87498 0.68775 0.0
C259 C 0.90222 0.87601 0.66158 0.0
H260 H 0.81349 0.9859 0.63677 0.0
H261 H 0.87805 0.75836 0.65757 0.0
H262 H 0.78645 0.80537 0.58819 0.0
H263 H 0.83935 0.8798 0.54531 0.0
Co264 Co 0.34043 0.13705 0.14145 0.0
C265 C 0.35212 0.06628 0.13773 0.0
C266 C 0.30477 0.08114 0.14366 0.0
C267 C 0.30456 0.04952 0.14101 0.0
N268 N 0.33428 0.09209 0.14135 0.0
N269 N 0.33413 0.03998 0.13741 0.0
H270 H 0.37724 0.06643 0.13551 0.0
H271 H 0.28439 0.09554 0.14667 0.0
C272 C 0.31252 0.15731 0.20334 0.0
O273 O 0.3298 0.18274 0.20275 0.0
N274 N 0.34186 0.18216 0.14137 0.0
C275 C 0.3656 0.20292 0.14013 0.0
C276 C 0.3531 0.23273 0.13994 0.0
C277 C 0.31561 0.19939 0.14131 0.0
N278 N 0.32167 0.23014 0.14088 0.0
C279 C 0.40557 0.12589 0.14339 0.0
C280 C 0.41884 0.15412 0.19895 0.0
C281 C 0.44301 0.1499 0.17739 0.0
C282 C 0.43632 0.13405 0.15014 0.0
C283 C 0.38813 0.14529 0.19126 0.0
N284 N 0.38128 0.13402 0.16242 0.0
H285 H 0.40147 0.11461 0.12156 0.0
H286 H 0.37055 0.14786 0.20863 0.0
H287 H 0.38996 0.19689 0.13889 0.0
H288 H 0.2923 0.1895 0.14218 0.0
O289 O 0.35767 0.13688 0.10022 0.0
O290 O 0.30728 0.13988 0.11004 0.0
O291 O 0.3146 0.13737 0.18141 0.0
C292 C 0.32984 0.13895 0.08959 0.0
H293 H 0.28423 0.0344 0.14222 0.0
H294 H 0.36599 0.25451 0.13909 0.0
H295 H 0.42351 0.16482 0.22112 0.0
H296 H 0.45462 0.12915 0.13346 0.0
Co297 Co 0.87852 0.33961 0.1507 0.0
C298 C 0.94733 0.34014 0.13391 0.0
C299 C 0.93879 0.34273 0.18277 0.0
C300 C 0.97028 0.3408 0.17805 0.0
N301 N 0.92397 0.34165 0.1553 0.0
N302 N 0.97573 0.33897 0.14744 0.0
H303 H 0.94401 0.3411 0.10917 0.0
H304 H 0.92791 0.34551 0.20501 0.0
C305 C 0.87503 0.31624 0.21811 0.0
O306 O 0.87679 0.34464 0.22901 0.0
N307 N 0.83365 0.33505 0.14703 0.0
C308 C 0.81143 0.35596 0.13971 0.0
C309 C 0.78279 0.34093 0.13963 0.0
C310 C 0.81835 0.30774 0.15098 0.0
N311 N 0.78745 0.31073 0.14679 0.0
C312 C 0.89277 0.40267 0.16147 0.0
C313 C 0.83857 0.41807 0.19252 0.0
C314 C 0.85616 0.4417 0.17789 0.0
C315 C 0.88433 0.43383 0.16376 0.0
C316 C 0.84787 0.38683 0.1896 0.0
N317 N 0.87391 0.37926 0.17268 0.0
H318 H 0.9128 0.39744 0.1472 0.0
H319 H 0.8324 0.36874 0.19829 0.0
H320 H 0.81585 0.38009 0.13374 0.0
H321 H 0.82971 0.28586 0.15605 0.0
O322 O 0.88075 0.35872 0.11015 0.0
O323 O 0.88301 0.30793 0.11838 0.0
O324 O 0.87594 0.3112 0.18887 0.0
C325 C 0.88259 0.33106 0.0985 0.0
H326 H 0.98809 0.34205 0.1957 0.0
H327 H 0.76053 0.351 0.13363 0.0
H328 H 0.81673 0.42346 0.20398 0.0
H329 H 0.89864 0.45153 0.15248 0.0
Co330 Co 0.6795 0.86553 0.14179 0.0
C331 C 0.67339 0.93651 0.1481 0.0
C332 C 0.71815 0.91905 0.13445 0.0
C333 C 0.72075 0.95058 0.13709 0.0
N334 N 0.68861 0.90987 0.14106 0.0
N335 N 0.69282 0.96144 0.14572 0.0
H336 H 0.64936 0.93802 0.15548 0.0
H337 H 0.73711 0.90351 0.12894 0.0
C338 C 0.7089 0.87784 0.20189 0.0
O339 O 0.68722 0.89905 0.20508 0.0
N340 N 0.67554 0.82089 0.14181 0.0
C341 C 0.65122 0.80134 0.13737 0.0
C342 C 0.66276 0.77132 0.13455 0.0
C343 C 0.70108 0.80294 0.14156 0.0
N344 N 0.69411 0.77285 0.1371 0.0
C345 C 0.61801 0.88319 0.15884 0.0
C346 C 0.61082 0.8405 0.20664 0.0
C347 C 0.5842 0.85344 0.19309 0.0
C348 C 0.58817 0.87616 0.17007 0.0
C349 C 0.64044 0.84806 0.19453 0.0
N350 N 0.64375 0.8684 0.1701 0.0
H351 H 0.61985 0.89811 0.13869 0.0
H352 H 0.66017 0.83501 0.20267 0.0
H353 H 0.62725 0.8085 0.13489 0.0
H354 H 0.72466 0.81202 0.14305 0.0
O355 O 0.65531 0.86907 0.10495 0.0
O356 O 0.7058 0.86115 0.10418 0.0
O357 O 0.71038 0.86177 0.177 0.0
C358 C 0.68001 0.86448 0.08851 0.0
H359 H 0.74153 0.96461 0.13322 0.0
H360 H 0.64947 0.75038 0.12974 0.0
H361 H 0.60855 0.82278 0.2245 0.0
H362 H 0.56811 0.88664 0.15908 0.0
Co363 Co 0.14604 0.68036 0.13976 0.0
C364 C 0.07456 0.67395 0.13927 0.0
C365 C 0.09368 0.71891 0.15006 0.0
C366 C 0.06205 0.72152 0.14961 0.0
N367 N 0.10193 0.68926 0.14391 0.0
N368 N 0.04999 0.69349 0.14285 0.0
H369 H 0.07244 0.64974 0.13284 0.0
H370 H 0.1099 0.73795 0.15364 0.0
C371 C 0.17267 0.709 0.19952 0.0
O372 O 0.19904 0.69381 0.19715 0.0
N373 N 0.19079 0.67623 0.13571 0.0
C374 C 0.20972 0.6513 0.13452 0.0
C375 C 0.24042 0.66194 0.13366 0.0
C376 C 0.20991 0.70132 0.13474 0.0
N377 N 0.24018 0.69341 0.13437 0.0
C378 C 0.13067 0.61599 0.14574 0.0
C379 C 0.16541 0.60271 0.19761 0.0
C380 C 0.1573 0.57835 0.17773 0.0
C381 C 0.13821 0.5851 0.15254 0.0
C382 C 0.1577 0.63352 0.18965 0.0
N383 N 0.14258 0.64027 0.16254 0.0
H384 H 0.11716 0.62018 0.1252 0.0
H385 H 0.16513 0.65131 0.20506 0.0
H386 H 0.2019 0.62732 0.13456 0.0
H387 H 0.20178 0.72511 0.13606 0.0
O388 O 0.14041 0.66245 0.09954 0.0
O389 O 0.14798 0.71259 0.10657 0.0
O390 O 0.15137 0.70613 0.17902 0.0
C391 C 0.14343 0.68967 0.08723 0.0
H392 H 0.04874 0.74252 0.1534 0.0
H393 H 0.26121 0.64778 0.13347 0.0
H394 H 0.179 0.59816 0.2182 0.0
H395 H 0.13036 0.56671 0.1373 0.0
Co396 Co 0.32613 0.85735 0.8691 0.0
C397 C 0.33377 0.92853 0.86695 0.0
C398 C 0.29253 0.9114 0.88975 0.0
C399 C 0.29087 0.94311 0.88872 0.0
N400 N 0.31954 0.90175 0.87662 0.0
N401 N 0.31654 0.9538 0.87427 0.0
H402 H 0.35517 0.92985 0.85366 0.0
H403 H 0.27388 0.89641 0.89796 0.0
C404 C 0.29875 0.87946 0.81014 0.0
O405 O 0.32172 0.89978 0.80881 0.0
N406 N 0.32754 0.81287 0.8622 0.0
C407 C 0.35049 0.79227 0.85666 0.0
C408 C 0.33685 0.76414 0.84811 0.0
C409 C 0.30081 0.79672 0.85871 0.0
N410 N 0.3055 0.76719 0.84963 0.0
C411 C 0.38792 0.87785 0.85648 0.0
C412 C 0.39722 0.84258 0.80391 0.0
C413 C 0.42317 0.85437 0.81976 0.0
C414 C 0.41815 0.87338 0.84541 0.0
C415 C 0.36714 0.84738 0.81604 0.0
N416 N 0.36282 0.86405 0.84264 0.0
H417 H 0.38504 0.89016 0.87806 0.0
H418 H 0.34783 0.83463 0.80619 0.0
H419 H 0.37514 0.79755 0.85748 0.0
H420 H 0.27796 0.80706 0.86123 0.0
O421 O 0.34968 0.85352 0.90613 0.0
O422 O 0.29875 0.84758 0.90505 0.0
O423 O 0.29613 0.86055 0.83313 0.0
C424 C 0.32437 0.84755 0.92132 0.0
H425 H 0.27182 0.95732 0.897 0.0
H426 H 0.34896 0.74345 0.84058 0.0
H427 H 0.40034 0.82762 0.78403 0.0
H428 H 0.43767 0.88299 0.85813 0.0
Co429 Co 0.15958 0.33344 0.85948 0.0
C430 C 0.08807 0.3388 0.86316 0.0
C431 C 0.10772 0.29452 0.85138 0.0
C432 C 0.07636 0.29068 0.85349 0.0
N433 N 0.11549 0.32446 0.85715 0.0
N434 N 0.06387 0.31825 0.86075 0.0
H435 H 0.08585 0.36302 0.86962 0.0
H436 H 0.12423 0.27616 0.84676 0.0
C437 C 0.17123 0.32054 0.79179 0.0
O438 O 0.18047 0.34945 0.78752 0.0
N439 N 0.20534 0.33621 0.86051 0.0
C440 C 0.22554 0.35318 0.84273 0.0
C441 C 0.25485 0.3401 0.84411 0.0
C442 C 0.22298 0.31252 0.87131 0.0
N443 N 0.25276 0.31426 0.86178 0.0
C444 C 0.17344 0.39685 0.85763 0.0
C445 C 0.13194 0.41796 0.8141 0.0
C446 C 0.15057 0.43955 0.83033 0.0
C447 C 0.1717 0.42842 0.85181 0.0
C448 C 0.13506 0.38565 0.82025 0.0
N449 N 0.15638 0.37539 0.84143 0.0
H450 H 0.18841 0.38973 0.87632 0.0
H451 H 0.11981 0.36929 0.80885 0.0
H452 H 0.21934 0.37196 0.82726 0.0
H453 H 0.21402 0.29215 0.88323 0.0
O454 O 0.15491 0.34968 0.90011 0.0
O455 O 0.1617 0.2999 0.8915 0.0
O456 O 0.16375 0.31049 0.8188 0.0
C457 C 0.15906 0.32244 0.91159 0.0
H458 H 0.06345 0.26916 0.85018 0.0
H459 H 0.27511 0.34698 0.83053 0.0
H460 H 0.1145 0.426 0.79793 0.0
H461 H 0.1857 0.44431 0.86547 0.0
Co462 Co 0.67796 0.1537 0.87527 0.0
C463 C 0.66793 0.08211 0.877 0.0
C464 C 0.71503 0.09909 0.87736 0.0
C465 C 0.71594 0.06732 0.87816 0.0
N466 N 0.68511 0.10884 0.87673 0.0
N467 N 0.68647 0.05665 0.87807 0.0
H468 H 0.64289 0.08054 0.87567 0.0
H469 H 0.73521 0.11436 0.87674 0.0
C470 C 0.70113 0.1387 0.81199 0.0
O471 O 0.67672 0.12026 0.80917 0.0
N472 N 0.67593 0.19878 0.87333 0.0
C473 C 0.65958 0.21852 0.8913 0.0
C474 C 0.67568 0.24668 0.89258 0.0
C475 C 0.7007 0.21556 0.86309 0.0
N476 N 0.70186 0.2443 0.87521 0.0
C477 C 0.61509 0.13564 0.86751 0.0
C478 C 0.60158 0.17617 0.81959 0.0
C479 C 0.57709 0.16163 0.836 0.0
C480 C 0.58419 0.14031 0.85931 0.0
C481 C 0.63259 0.17028 0.82821 0.0
N482 N 0.63903 0.15056 0.85237 0.0
H483 H 0.61926 0.12259 0.88844 0.0
H484 H 0.65113 0.18358 0.81729 0.0
H485 H 0.63983 0.21184 0.90566 0.0
H486 H 0.72035 0.20557 0.85101 0.0
O487 O 0.65835 0.15303 0.91543 0.0
O488 O 0.70923 0.15795 0.90815 0.0
O489 O 0.705 0.15444 0.8367 0.0
C490 C 0.68563 0.15605 0.92741 0.0
H491 H 0.73663 0.05298 0.87831 0.0
H492 H 0.67039 0.26597 0.90772 0.0
H493 H 0.59674 0.19325 0.80172 0.0
H494 H 0.56579 0.12929 0.87291 0.0
Co495 Co 0.85522 0.67746 0.85486 0.0
C496 C 0.92647 0.67704 0.8635 0.0
C497 C 0.91105 0.69119 0.81868 0.0
C498 C 0.94137 0.69963 0.82145 0.0
N499 N 0.90046 0.67804 0.8453 0.0
N500 N 0.95211 0.69008 0.84909 0.0
H501 H 0.9264 0.66773 0.88685 0.0
H502 H 0.89783 0.69585 0.79807 0.0
C503 C 0.8312 0.69727 0.79217 0.0
O504 O 0.812 0.67335 0.79144 0.0
N505 N 0.80981 0.68158 0.86203 0.0
C506 C 0.78533 0.66437 0.85148 0.0
C507 C 0.75827 0.68111 0.85381 0.0
C508 C 0.79655 0.70923 0.86946 0.0
N509 N 0.76549 0.70935 0.8648 0.0
C510 C 0.83424 0.61599 0.85566 0.0
C511 C 0.86992 0.5917 0.80868 0.0
C512 C 0.85294 0.57139 0.82846 0.0
C513 C 0.83307 0.5844 0.85038 0.0
C514 C 0.86748 0.62435 0.81262 0.0
N515 N 0.85018 0.63613 0.83657 0.0
H516 H 0.82277 0.62419 0.87636 0.0
H517 H 0.88123 0.63968 0.79797 0.0
H518 H 0.78652 0.64277 0.83898 0.0
H519 H 0.80959 0.73005 0.87515 0.0
O520 O 0.862 0.66075 0.89556 0.0
O521 O 0.86163 0.71106 0.88502 0.0
O522 O 0.84842 0.70185 0.8157 0.0
C523 C 0.86295 0.68881 0.90584 0.0
H524 H 0.95467 0.71223 0.80394 0.0
H525 H 0.73562 0.67431 0.84504 0.0
H526 H 0.88595 0.58251 0.7916 0.0
H527 H 0.81966 0.56979 0.86625 0.0
Co528 Co 0.16006 0.34918 0.13563 0.0
C529 C 0.15636 0.33959 0.06694 0.0
C530 C 0.20036 0.35832 0.08148 0.0
C531 C 0.203 0.34997 0.05116 0.0
N532 N 0.17142 0.35129 0.09193 0.0
N533 N 0.17531 0.33859 0.04174 0.0
H534 H 0.13227 0.33196 0.06701 0.0
H535 H 0.21857 0.36915 0.0947 0.0
C536 C 0.22653 0.32461 0.14358 0.0
O537 O 0.23803 0.35298 0.1431 0.0
N538 N 0.14945 0.34355 0.17903 0.0
C539 C 0.14367 0.3633 0.20256 0.0
C540 C 0.14241 0.34627 0.2299 0.0
C541 C 0.14957 0.31501 0.19206 0.0
N542 N 0.14617 0.31588 0.22303 0.0
C543 C 0.17464 0.41229 0.12495 0.0
C544 C 0.2007 0.42535 0.18177 0.0
C545 C 0.18884 0.44986 0.16374 0.0
C546 C 0.17733 0.44313 0.1344 0.0
C547 C 0.19758 0.39443 0.17134 0.0
N548 N 0.183 0.38807 0.14388 0.0
H549 H 0.16239 0.40791 0.10361 0.0
H550 H 0.20409 0.37563 0.18675 0.0
H551 H 0.14189 0.38829 0.20038 0.0
H552 H 0.15407 0.29392 0.17918 0.0
O553 O 0.1215 0.37013 0.12803 0.0
O554 O 0.12609 0.3192 0.12732 0.0
O555 O 0.19696 0.31975 0.14202 0.0
C556 C 0.10765 0.34341 0.12645 0.0
H557 H 0.22336 0.35346 0.03652 0.0
H558 H 0.13999 0.35556 0.25305 0.0
H559 H 0.21007 0.42983 0.20457 0.0
H560 H 0.16824 0.46149 0.11974 0.0
Co561 Co 0.12939 0.681 0.85906 0.0
C562 C 0.12634 0.68049 0.92976 0.0
C563 C 0.17276 0.68355 0.91129 0.0
C564 C 0.17438 0.6872 0.94256 0.0
N565 N 0.14267 0.67972 0.90259 0.0
N566 N 0.1454 0.68537 0.95439 0.0
H567 H 0.10136 0.67751 0.93163 0.0
H568 H 0.19292 0.68411 0.89626 0.0
C569 C 0.19456 0.69321 0.83067 0.0
O570 O 0.19165 0.67006 0.81111 0.0
N571 N 0.1178 0.6841 0.815 0.0
C572 C 0.09406 0.67086 0.7994 0.0
C573 C 0.0942 0.68191 0.76936 0.0
C574 C 0.13104 0.70365 0.79394 0.0
N575 N 0.1186 0.70179 0.76518 0.0
C576 C 0.11777 0.61791 0.84458 0.0
C577 C 0.17578 0.59264 0.85362 0.0
C578 C 0.15126 0.57339 0.84327 0.0
C579 C 0.12216 0.58657 0.8388 0.0
C580 C 0.17037 0.62473 0.85862 0.0
N581 N 0.14168 0.63731 0.85302 0.0
H582 H 0.0943 0.62598 0.84307 0.0
H583 H 0.1889 0.63899 0.86754 0.0
H584 H 0.07562 0.6568 0.80942 0.0
H585 H 0.14792 0.72079 0.80009 0.0
O586 O 0.08684 0.67164 0.87081 0.0
O587 O 0.10554 0.71937 0.86648 0.0
O588 O 0.17207 0.70014 0.84895 0.0
C589 C 0.08147 0.70114 0.87171 0.0
H590 H 0.19547 0.69036 0.95592 0.0
H591 H 0.07552 0.67748 0.75335 0.0
H592 H 0.19849 0.5829 0.85843 0.0
H593 H 0.10237 0.57232 0.83203 0.0
Co594 Co 0.34174 0.13757 0.86133 0.0
C595 C 0.3476 0.13776 0.93342 0.0
C596 C 0.30267 0.1451 0.91333 0.0
C597 C 0.29895 0.14513 0.94463 0.0
N598 N 0.33295 0.14054 0.90568 0.0
N599 N 0.32694 0.14044 0.95732 0.0
H600 H 0.37214 0.13344 0.93652 0.0
H601 H 0.28407 0.14806 0.89678 0.0
C602 C 0.3265 0.20348 0.87235 0.0
O603 O 0.34982 0.203 0.89196 0.0
N604 N 0.34432 0.13513 0.81678 0.0
C605 C 0.36564 0.12345 0.79698 0.0
C606 C 0.35317 0.12434 0.76727 0.0
C607 C 0.31947 0.14224 0.79933 0.0
N608 N 0.324 0.13593 0.76924 0.0
C609 C 0.39064 0.18006 0.84106 0.0
C610 C 0.43696 0.15034 0.87395 0.0
C611 C 0.44543 0.17176 0.85081 0.0
C612 C 0.42194 0.18743 0.83482 0.0
C613 C 0.40546 0.14351 0.87928 0.0
N614 N 0.38261 0.15792 0.86271 0.0
H615 H 0.37309 0.19013 0.8265 0.0
H616 H 0.39976 0.12433 0.89455 0.0
H617 H 0.38816 0.11445 0.80362 0.0
H618 H 0.29783 0.15117 0.80869 0.0
O619 O 0.35752 0.09616 0.86538 0.0
O620 O 0.3075 0.10694 0.85951 0.0
O621 O 0.31956 0.17895 0.85691 0.0
C622 C 0.32926 0.08602 0.86306 0.0
H623 H 0.27732 0.1482 0.95731 0.0
H624 H 0.36437 0.11675 0.74611 0.0
H625 H 0.45463 0.13735 0.88626 0.0
H626 H 0.42779 0.20372 0.81637 0.0
Co627 Co 0.88179 0.33393 0.86956 0.0
C628 C 0.8859 0.34185 0.94034 0.0
C629 C 0.86713 0.29863 0.92412 0.0
C630 C 0.86864 0.2969 0.95559 0.0
N631 N 0.87704 0.32691 0.9141 0.0
N632 N 0.88059 0.32382 0.96589 0.0
H633 H 0.89665 0.36463 0.94112 0.0
H634 H 0.86041 0.27971 0.90926 0.0
C635 C 0.81445 0.3183 0.87804 0.0
O636 O 0.81398 0.33935 0.90001 0.0
N637 N 0.886 0.33634 0.82507 0.0
C638 C 0.89341 0.3598 0.80537 0.0
C639 C 0.89392 0.34796 0.7755 0.0
C640 C 0.8825 0.31093 0.80729 0.0
N641 N 0.8874 0.31714 0.77712 0.0
C642 C 0.88247 0.3979 0.88343 0.0
C643 C 0.83552 0.41608 0.8439 0.0
C644 C 0.85643 0.43873 0.85504 0.0
C645 C 0.87987 0.42907 0.87527 0.0
C646 C 0.84044 0.38443 0.85091 0.0
N647 N 0.86402 0.37563 0.8703 0.0
H648 H 0.90176 0.39162 0.89792 0.0
H649 H 0.82696 0.3671 0.83874 0.0
H650 H 0.89849 0.38352 0.81213 0.0
H651 H 0.8772 0.28792 0.81643 0.0
O652 O 0.92407 0.34739 0.87448 0.0
O653 O 0.90995 0.29807 0.86895 0.0
O654 O 0.8397 0.31338 0.86296 0.0
C655 C 0.93225 0.31871 0.87238 0.0
H656 H 0.86228 0.27704 0.96996 0.0
H657 H 0.89971 0.36064 0.75446 0.0
H658 H 0.8169 0.42254 0.82834 0.0
H659 H 0.89674 0.44555 0.88433 0.0
Co660 Co 0.65239 0.87305 0.8628 0.0
C661 C 0.65935 0.87552 0.93217 0.0
C662 C 0.63036 0.83765 0.91752 0.0
C663 C 0.63573 0.83422 0.94849 0.0
N664 N 0.64564 0.86318 0.90672 0.0
N665 N 0.65381 0.85806 0.95789 0.0
H666 H 0.67314 0.89654 0.93213 0.0
H667 H 0.6161 0.8221 0.90408 0.0
C668 C 0.67383 0.80546 0.86236 0.0
O669 O 0.64547 0.79457 0.86639 0.0
N670 N 0.66059 0.88159 0.81944 0.0
C671 C 0.64078 0.89011 0.79675 0.0
C672 C 0.6573 0.89253 0.76927 0.0
C673 C 0.6887 0.87898 0.80559 0.0
N674 N 0.68727 0.88554 0.77512 0.0
C675 C 0.5874 0.86485 0.86658 0.0
C676 C 0.57929 0.82715 0.81553 0.0
C677 C 0.55314 0.84056 0.82981 0.0
C678 C 0.55743 0.85883 0.85604 0.0
C679 C 0.60926 0.83368 0.82706 0.0
N680 N 0.613 0.85279 0.85208 0.0
H681 H 0.59019 0.88066 0.88577 0.0
H682 H 0.62944 0.82515 0.81468 0.0
H683 H 0.61609 0.89423 0.79992 0.0
H684 H 0.70973 0.87202 0.81747 0.0
O685 O 0.63539 0.9143 0.8679 0.0
O686 O 0.68528 0.90296 0.87253 0.0
O687 O 0.67929 0.83461 0.85938 0.0
C688 C 0.66369 0.92425 0.87203 0.0
H689 H 0.62651 0.81582 0.96329 0.0
H690 H 0.64809 0.89861 0.74675 0.0
H691 H 0.57664 0.813 0.79502 0.0
H692 H 0.53772 0.86952 0.86756 0.0
Co693 Co 0.86565 0.6748 0.13391 0.0
C694 C 0.86789 0.67059 0.06197 0.0
C695 C 0.85943 0.71495 0.08276 0.0
C696 C 0.86051 0.71933 0.05156 0.0
N697 N 0.8638 0.68459 0.08985 0.0
N698 N 0.86583 0.6917 0.03838 0.0
H699 H 0.87213 0.64609 0.05861 0.0
H700 H 0.85564 0.7331 0.09961 0.0
C701 C 0.79907 0.69139 0.12307 0.0
O702 O 0.7989 0.66893 0.10252 0.0
N703 N 0.86704 0.67126 0.17833 0.0
C704 C 0.87575 0.64895 0.19854 0.0
C705 C 0.87374 0.66118 0.22829 0.0
C706 C 0.86093 0.69644 0.19556 0.0
N707 N 0.86479 0.69127 0.22597 0.0
C708 C 0.86218 0.61109 0.11591 0.0
C709 C 0.81753 0.59357 0.15924 0.0
C710 C 0.83643 0.57062 0.14615 0.0
C711 C 0.85797 0.57951 0.12321 0.0
C712 C 0.82299 0.62499 0.15173 0.0
N713 N 0.84579 0.63366 0.13101 0.0
H714 H 0.8813 0.61736 0.10072 0.0
H715 H 0.81145 0.64225 0.16532 0.0
H716 H 0.88347 0.62595 0.19216 0.0
H717 H 0.85435 0.71873 0.1858 0.0
O718 O 0.90748 0.65947 0.13034 0.0
O719 O 0.89613 0.70909 0.13749 0.0
O720 O 0.82391 0.69705 0.13858 0.0
C721 C 0.91733 0.6876 0.13414 0.0
H722 H 0.85726 0.74113 0.03926 0.0
H723 H 0.87885 0.64914 0.24975 0.0
H724 H 0.8007 0.58753 0.17716 0.0
H725 H 0.87293 0.56235 0.11252 0.0
Co726 Co 0.35718 0.85584 0.14353 0.0
C727 C 0.35214 0.85673 0.07427 0.0
C728 C 0.37969 0.81893 0.09124 0.0
C729 C 0.3738 0.81391 0.06061 0.0
N730 N 0.36591 0.84561 0.1003 0.0
N731 N 0.35666 0.83768 0.04972 0.0
H732 H 0.33785 0.87737 0.07346 0.0
H733 H 0.39193 0.80296 0.1061 0.0
C734 C 0.33607 0.78754 0.14657 0.0
O735 O 0.36478 0.77778 0.14975 0.0
N736 N 0.34651 0.86456 0.18636 0.0
C737 C 0.35945 0.88569 0.2055 0.0
C738 C 0.34154 0.88712 0.2322 0.0
C739 C 0.32156 0.85293 0.20194 0.0
N740 N 0.31777 0.86647 0.2298 0.0
C741 C 0.39926 0.82168 0.18498 0.0
C742 C 0.45174 0.84266 0.15313 0.0
C743 C 0.4555 0.82879 0.18211 0.0
C744 C 0.42901 0.81748 0.19799 0.0
C745 C 0.42199 0.84674 0.14131 0.0
N746 N 0.396 0.83646 0.15696 0.0
H747 H 0.37888 0.8146 0.19821 0.0
H748 H 0.41978 0.86029 0.12029 0.0
H749 H 0.37962 0.90001 0.19996 0.0
H750 H 0.30541 0.83597 0.19265 0.0
O751 O 0.37544 0.89695 0.13893 0.0
O752 O 0.32564 0.88617 0.13099 0.0
O753 O 0.32997 0.81668 0.1452 0.0
C754 C 0.34792 0.90712 0.13242 0.0
H755 H 0.38106 0.79386 0.04735 0.0
H756 H 0.34518 0.90266 0.25152 0.0
H757 H 0.47166 0.85203 0.14047 0.0
H758 H 0.4312 0.80686 0.22069 0.0
Co759 Co 0.67511 0.1455 0.15468 0.0
C760 C 0.66837 0.15299 0.08394 0.0
C761 C 0.71377 0.14103 0.10057 0.0
C762 C 0.71549 0.14317 0.06913 0.0
N763 N 0.68423 0.14646 0.11031 0.0
N764 N 0.68718 0.15073 0.05873 0.0
H765 H 0.64424 0.15982 0.08273 0.0
H766 H 0.73344 0.13667 0.11546 0.0
C767 C 0.69865 0.20966 0.14265 0.0
O768 O 0.67638 0.21215 0.12205 0.0
N769 N 0.67075 0.14449 0.19893 0.0
C770 C 0.64734 0.13489 0.21775 0.0
C771 C 0.65857 0.13379 0.24782 0.0
C772 C 0.69566 0.14831 0.21723 0.0
N773 N 0.6891 0.14179 0.24696 0.0
C774 C 0.61282 0.15212 0.13539 0.0
C775 C 0.59593 0.19574 0.17907 0.0
C776 C 0.57263 0.17773 0.16485 0.0
C777 C 0.58135 0.15693 0.14174 0.0
C778 C 0.62751 0.19037 0.17176 0.0
N779 N 0.63567 0.16771 0.15109 0.0
H780 H 0.61868 0.13308 0.12027 0.0
H781 H 0.64527 0.20187 0.18523 0.0
H782 H 0.62457 0.1275 0.20998 0.0
H783 H 0.71884 0.15388 0.20862 0.0
O784 O 0.6566 0.10479 0.15192 0.0
O785 O 0.707 0.11331 0.1589 0.0
O786 O 0.70129 0.18468 0.15864 0.0
C787 C 0.68415 0.09342 0.15521 0.0
H788 H 0.73608 0.13998 0.05484 0.0
H789 H 0.64601 0.1258 0.26824 0.0
H790 H 0.58992 0.21201 0.19719 0.0
H791 H 0.56399 0.1426 0.13036 0.0
C792 C 0.19782 0.15967 0.5097 0.0
C793 C 0.17988 0.17538 0.53233 0.0
C794 C 0.15313 0.20507 0.49177 0.0
C795 C 0.17006 0.18836 0.46907 0.0
N796 N 0.21376 0.15587 0.45582 0.0
N797 N 0.14651 0.21804 0.54614 0.0
C798 C 0.19434 0.16783 0.47791 0.0
C799 C 0.15959 0.19989 0.52369 0.0
N800 N 0.21684 0.13579 0.51849 0.0
N801 N 0.13 0.22483 0.4827 0.0
H802 H 0.15095 0.21471 0.56966 0.0
H803 H 0.1335 0.2379 0.54153 0.0
H804 H 0.12595 0.23026 0.45947 0.0
H805 H 0.11409 0.23488 0.4979 0.0
H806 H 0.22757 0.12071 0.50301 0.0
H807 H 0.22067 0.12992 0.54164 0.0
H808 H 0.23364 0.14307 0.46084 0.0
H809 H 0.21159 0.16109 0.43235 0.0
C810 C 0.80424 0.15736 0.5038 0.0
C811 C 0.81976 0.17635 0.48152 0.0
C812 C 0.8376 0.21063 0.52322 0.0
C813 C 0.82813 0.18791 0.54539 0.0
N814 N 0.80436 0.1376 0.55632 0.0
N815 N 0.85345 0.2205 0.47015 0.0
C816 C 0.81136 0.16097 0.5357 0.0
C817 C 0.83657 0.20325 0.49115 0.0
N818 N 0.78309 0.13552 0.49429 0.0
N819 N 0.84793 0.23909 0.53296 0.0
H820 H 0.85379 0.21586 0.44649 0.0
H821 H 0.86902 0.23804 0.47651 0.0
H822 H 0.84864 0.24501 0.55637 0.0
H823 H 0.85267 0.25761 0.51789 0.0
H824 H 0.76896 0.12277 0.50957 0.0
H825 H 0.77747 0.13255 0.47099 0.0
H826 H 0.79556 0.11598 0.54964 0.0
H827 H 0.80962 0.1386 0.57981 0.0
C828 C 0.80226 0.83035 0.4774 0.0
C829 C 0.82855 0.81145 0.47058 0.0
C830 C 0.83823 0.80408 0.52598 0.0
C831 C 0.81321 0.82456 0.53266 0.0
N832 N 0.76622 0.84971 0.51644 0.0
N833 N 0.86559 0.77331 0.48742 0.0
C834 C 0.79333 0.83497 0.50882 0.0
C835 C 0.84441 0.7958 0.49469 0.0
N836 N 0.78716 0.84555 0.45406 0.0
N837 N 0.85723 0.7942 0.54933 0.0
H838 H 0.87031 0.76698 0.46455 0.0
H839 H 0.87625 0.7591 0.5038 0.0
H840 H 0.85277 0.79892 0.5726 0.0
H841 H 0.87813 0.78256 0.54565 0.0
H842 H 0.77065 0.86283 0.45772 0.0
H843 H 0.79214 0.84193 0.43075 0.0
H844 H 0.74919 0.85566 0.5004 0.0
H845 H 0.75951 0.85335 0.53942 0.0
C846 C 0.19489 0.83334 0.51471 0.0
C847 C 0.19024 0.85942 0.53424 0.0
C848 C 0.19867 0.89483 0.48984 0.0
C849 C 0.20147 0.86874 0.47006 0.0
N850 N 0.21274 0.81436 0.46469 0.0
N851 N 0.19828 0.91431 0.54258 0.0
C852 C 0.20353 0.8384 0.4831 0.0
C853 C 0.19589 0.88998 0.52246 0.0
N854 N 0.18886 0.80394 0.52561 0.0
N855 N 0.1965 0.92404 0.47735 0.0
H856 H 0.19668 0.91123 0.56655 0.0
H857 H 0.20487 0.93676 0.53581 0.0
H858 H 0.1994 0.92847 0.45372 0.0
H859 H 0.19038 0.94359 0.49015 0.0
H860 H 0.18828 0.78435 0.51152 0.0
H861 H 0.18244 0.79929 0.54851 0.0
H862 H 0.2171 0.792 0.47303 0.0
H863 H 0.21895 0.81783 0.44147 0.0
C864 C 0.49762 0.14479 0.19839 0.0
C865 C 0.47527 0.16246 0.18196 0.0
C866 C 0.51702 0.19576 0.16018 0.0
C867 C 0.53944 0.17734 0.17563 0.0
N868 N 0.55109 0.14057 0.21616 0.0
N869 N 0.46251 0.20979 0.15488 0.0
C870 C 0.52964 0.15397 0.19711 0.0
C871 C 0.48467 0.18971 0.16541 0.0
N872 N 0.48845 0.11838 0.2139 0.0
N873 N 0.52673 0.2181 0.13951 0.0
H874 H 0.43881 0.2062 0.15927 0.0
H875 H 0.46762 0.2313 0.1447 0.0
H876 H 0.55022 0.22394 0.13633 0.0
H877 H 0.51177 0.2298 0.12459 0.0
H878 H 0.50397 0.10233 0.22317 0.0
H879 H 0.46511 0.11162 0.21609 0.0
H880 H 0.54532 0.12519 0.23408 0.0
H881 H 0.57448 0.14737 0.21598 0.0
C882 C 0.82193 0.51392 0.13998 0.0
C883 C 0.83595 0.53774 0.15796 0.0
C884 C 0.85788 0.49818 0.19309 0.0
C885 C 0.84476 0.47438 0.17451 0.0
N886 N 0.80954 0.45892 0.13402 0.0
N887 N 0.86212 0.55328 0.20483 0.0
C888 C 0.82508 0.48211 0.14923 0.0
C889 C 0.85213 0.53006 0.18567 0.0
N890 N 0.80648 0.5218 0.11346 0.0
N891 N 0.87695 0.49015 0.2171 0.0
H892 H 0.85944 0.57683 0.19973 0.0
H893 H 0.87112 0.54946 0.22684 0.0
H894 H 0.88007 0.4671 0.22421 0.0
H895 H 0.8907 0.50593 0.22923 0.0
H896 H 0.79896 0.50581 0.09705 0.0
H897 H 0.80221 0.54486 0.10705 0.0
H898 H 0.7926 0.4628 0.11731 0.0
H899 H 0.81185 0.43545 0.13972 0.0
C900 C 0.53061 0.86105 0.21538 0.0
C901 C 0.55203 0.84145 0.19987 0.0
C902 C 0.50887 0.80628 0.18582 0.0
C903 C 0.48738 0.82906 0.19568 0.0
N904 N 0.47678 0.87751 0.22133 0.0
N905 N 0.56204 0.79465 0.17072 0.0
C906 C 0.49796 0.85597 0.21157 0.0
C907 C 0.54138 0.81339 0.18585 0.0
N908 N 0.54172 0.88464 0.23344 0.0
N909 N 0.49791 0.77811 0.1759 0.0
H910 H 0.58606 0.79835 0.17106 0.0
H911 H 0.5554 0.77623 0.15659 0.0
H912 H 0.47412 0.77271 0.17562 0.0
H913 H 0.51219 0.75928 0.17078 0.0
H914 H 0.52765 0.89843 0.24741 0.0
H915 H 0.56557 0.88857 0.23649 0.0
H916 H 0.48287 0.89944 0.2296 0.0
H917 H 0.45274 0.87379 0.22 0.0
C918 C 0.20657 0.50588 0.16589 0.0
C919 C 0.18525 0.48231 0.17563 0.0
C920 C 0.14838 0.52227 0.19334 0.0
C921 C 0.169 0.54584 0.18211 0.0
N922 N 0.22049 0.56087 0.16449 0.0
N923 N 0.13924 0.46736 0.20457 0.0
C924 C 0.19912 0.53784 0.17076 0.0
C925 C 0.15732 0.49036 0.19151 0.0
N926 N 0.23331 0.49757 0.15069 0.0
N927 N 0.11975 0.53051 0.20466 0.0
H928 H 0.14491 0.44385 0.20319 0.0
H929 H 0.12001 0.47142 0.21875 0.0
H930 H 0.11335 0.55367 0.20799 0.0
H931 H 0.10187 0.51472 0.20972 0.0
H932 H 0.24812 0.51328 0.13936 0.0
H933 H 0.24011 0.4744 0.14834 0.0
H934 H 0.24371 0.55676 0.15879 0.0
H935 H 0.21573 0.58442 0.16746 0.0
C936 C 0.47622 0.86689 0.79762 0.0
C937 C 0.45584 0.84507 0.81223 0.0
C938 C 0.50067 0.81437 0.8297 0.0
C939 C 0.52096 0.83755 0.81734 0.0
N940 N 0.52944 0.8811 0.78296 0.0
N941 N 0.44786 0.79394 0.83446 0.0
C942 C 0.50908 0.86212 0.79882 0.0
C943 C 0.46787 0.81727 0.82549 0.0
N944 N 0.46402 0.89285 0.78393 0.0
N945 N 0.51277 0.79063 0.84702 0.0
H946 H 0.42381 0.79545 0.83176 0.0
H947 H 0.45503 0.77207 0.84198 0.0
H948 H 0.53675 0.78721 0.8492 0.0
H949 H 0.49935 0.77508 0.86015 0.0
H950 H 0.47733 0.91164 0.77591 0.0
H951 H 0.44003 0.89596 0.78141 0.0
H952 H 0.52264 0.8982 0.76726 0.0
H953 H 0.55355 0.87799 0.78371 0.0
C954 C 0.16471 0.49254 0.80852 0.0
C955 C 0.14648 0.47402 0.82925 0.0
C956 C 0.1373 0.51976 0.86178 0.0
C957 C 0.15357 0.53886 0.83999 0.0
N958 N 0.1789 0.54448 0.79025 0.0
N959 N 0.1103 0.47088 0.87203 0.0
C960 C 0.16623 0.52554 0.81263 0.0
C961 C 0.13105 0.48806 0.85468 0.0
N962 N 0.18135 0.47843 0.78551 0.0
N963 N 0.12859 0.53186 0.88975 0.0
H964 H 0.10515 0.4476 0.86725 0.0
H965 H 0.09604 0.48039 0.8891 0.0
H966 H 0.1334 0.55484 0.89598 0.0
H967 H 0.1194 0.51846 0.90786 0.0
H968 H 0.198 0.48997 0.77192 0.0
H969 H 0.17954 0.45461 0.78109 0.0
H970 H 0.18536 0.53668 0.76835 0.0
H971 H 0.18123 0.56853 0.79295 0.0
C972 C 0.49842 0.19655 0.85584 0.0
C973 C 0.47874 0.17456 0.84115 0.0
C974 C 0.52399 0.1525 0.81398 0.0
C975 C 0.54391 0.17092 0.83254 0.0
N976 N 0.55113 0.21116 0.87056 0.0
N977 N 0.47174 0.13211 0.80545 0.0
C978 C 0.53139 0.19363 0.85288 0.0
C979 C 0.4912 0.153 0.81954 0.0
N980 N 0.48545 0.22006 0.87271 0.0
N981 N 0.53668 0.13444 0.79125 0.0
H982 H 0.44753 0.13262 0.808 0.0
H983 H 0.47944 0.11341 0.79231 0.0
H984 H 0.56066 0.1338 0.78697 0.0
H985 H 0.52361 0.12222 0.77505 0.0
H986 H 0.49815 0.23859 0.88181 0.0
H987 H 0.46139 0.22238 0.8756 0.0
H988 H 0.54379 0.22531 0.88865 0.0
H989 H 0.57533 0.21061 0.86793 0.0
C990 C 0.86592 0.52594 0.86186 0.0
C991 C 0.85895 0.5372 0.83175 0.0
C992 C 0.8545 0.48287 0.81468 0.0
C993 C 0.85484 0.47257 0.84621 0.0
N994 N 0.85127 0.48752 0.90009 0.0
N995 N 0.84233 0.52558 0.77974 0.0
C996 C 0.85768 0.4951 0.86992 0.0
C997 C 0.85205 0.51546 0.80806 0.0
N998 N 0.88004 0.54488 0.88296 0.0
N999 N 0.85805 0.46211 0.79111 0.0
H1000 H 0.84028 0.54914 0.77415 0.0
H1001 H 0.83408 0.51047 0.76278 0.0
H1002 H 0.86202 0.43847 0.79482 0.0
H1003 H 0.86051 0.46903 0.76803 0.0
H1004 H 0.8872 0.53684 0.90462 0.0
H1005 H 0.88763 0.5674 0.87732 0.0
H1006 H 0.85102 0.50408 0.91768 0.0
H1007 H 0.84259 0.46569 0.90676 0.0
C1008 C 0.11552 0.01264 0.31334 0.0
C1009 C 0.13762 0.99771 0.33261 0.0
C1010 C 0.16142 0.04784 0.34448 0.0
C1011 C 0.13825 0.06345 0.32682 0.0
N1012 N 0.09097 0.06077 0.2968 0.0
N1013 N 0.17703 1.0009 0.37149 0.0
C1014 C 0.11455 0.04588 0.31186 0.0
C1015 C 0.1587 0.01544 0.35016 0.0
N1016 N 0.09629 0.99467 0.29564 0.0
N1017 N 0.18744 0.06362 0.35384 0.0
H1018 H 0.17592 0.97693 0.37547 0.0
H1019 H 0.19094 0.01287 0.38724 0.0
H1020 H 0.19171 0.08661 0.3475 0.0
H1021 H 0.20651 0.05303 0.36427 0.0
H1022 H 0.08201 1.0035 0.27831 0.0
H1023 H 0.09571 0.97041 0.29773 0.0
H1024 H 0.07116 0.04945 0.28857 0.0
H1025 H 0.09051 0.08484 0.2937 0.0
C1026 C 0.96375 0.14778 0.36282 0.0
C1027 C 0.94663 0.1318 0.33933 0.0
C1028 C 0.99671 0.12137 0.31309 0.0
C1029 C 0.01281 0.13479 0.33829 0.0
N1030 N 0.01208 0.15103 0.39115 0.0
N1031 N 0.94891 0.09712 0.29512 0.0
C1032 C 0.99626 0.14388 0.36477 0.0
C1033 C 0.96365 0.11661 0.31525 0.0
N1034 N 0.9499 0.16948 0.38126 0.0
N1035 N 0.01286 0.11421 0.2868 0.0
H1036 H 0.92515 0.09218 0.29617 0.0
H1037 H 0.96089 0.08353 0.27912 0.0
H1038 H 0.03707 0.11673 0.28529 0.0
H1039 H 1.00209 0.10756 0.26627 0.0
H1040 H 0.96225 0.183 0.39707 0.0
H1041 H 0.92759 0.17773 0.37736 0.0
H1042 H 1.00081 0.15585 0.41205 0.0
H1043 H 0.03628 0.1488 0.39264 0.0
C1044 C 0.88452 0.96188 0.31431 0.0
C1045 C 0.87402 0.94128 0.3384 0.0
C1046 C 0.86523 0.98675 0.37114 0.0
C1047 C 0.86871 0.00708 0.34571 0.0
N1048 N 0.87865 0.01332 0.29099 0.0
N1049 N 0.84139 0.93832 0.38493 0.0
C1050 C 0.87772 0.99456 0.31657 0.0
C1051 C 0.8609 0.9548 0.36566 0.0
N1052 N 0.90152 0.9509 0.28995 0.0
N1053 N 0.86425 0.99822 0.40052 0.0
H1054 H 0.83194 0.91677 0.3791 0.0
H1055 H 0.83043 0.9484 0.40403 0.0
H1056 H 0.86812 0.02179 0.4051 0.0
H1057 H 0.86312 0.9837 0.42 0.0
H1058 H 0.91164 0.96554 0.2733 0.0
H1059 H 0.90826 0.92774 0.28813 0.0
H1060 H 0.88209 1.00476 0.26869 0.0
H1061 H 0.87365 0.03702 0.29193 0.0
C1062 C 0.01109 0.87003 0.30263 0.0
C1063 C 0.9991 0.85691 0.33067 0.0
C1064 C 0.05162 0.84607 0.34749 0.0
C1065 C 0.06444 0.86336 0.32219 0.0
N1066 N 0.05531 0.89577 0.27729 0.0
N1067 N 0.0089 0.84299 0.38372 0.0
C1068 C 0.04391 0.87654 0.30001 0.0
C1069 C 0.01978 0.84864 0.35443 0.0
N1070 N 0.99155 0.87525 0.27839 0.0
N1071 N 0.0695 0.82591 0.3642 0.0
H1072 H 0.98555 0.84627 0.38982 0.0
H1073 H 0.02372 0.83872 0.40233 0.0
H1074 H 0.09228 0.8206 0.35786 0.0
H1075 H 0.06026 0.81147 0.38156 0.0
H1076 H 0.99945 0.88209 0.25648 0.0
H1077 H 0.96769 0.87052 0.27972 0.0
H1078 H 0.04097 0.90827 0.26237 0.0
H1079 H 0.07902 0.90087 0.27487 0.0
C1080 C 0.11246 1.00479 0.66076 0.0
C1081 C 0.13474 0.01635 0.68199 0.0
C1082 C 0.13129 0.96767 0.71187 0.0
C1083 C 0.1144 0.95416 0.68721 0.0
N1084 N 0.07867 0.96187 0.64538 0.0
N1085 N 0.16437 0.01063 0.72858 0.0
C1086 C 0.10144 0.97364 0.66407 0.0
C1087 C 0.14328 0.99855 0.70827 0.0
N1088 N 0.10353 0.02314 0.63644 0.0
N1089 N 0.13506 0.95138 0.73878 0.0
H1090 H 0.17293 0.03337 0.72649 0.0
H1091 H 0.1745 0.99776 0.74636 0.0
H1092 H 0.12478 0.9296 0.74248 0.0
H1093 H 0.14516 0.96078 0.75853 0.0
H1094 H 0.08973 0.01553 0.61822 0.0
H1095 H 0.11088 0.04622 0.63392 0.0
H1096 H 0.06656 0.97484 0.62901 0.0
H1097 H 0.07006 0.93925 0.6482 0.0
C1098 C 0.05369 0.16394 0.70346 0.0
C1099 C 0.06832 0.13606 0.69397 0.0
C1100 C 0.01643 0.11388 0.68443 0.0
C1101 C 1.00352 0.14398 0.685 0.0
N1102 N 0.01107 0.19896 0.6926 0.0
N1103 N 0.06226 0.08482 0.6714 0.0
C1104 C 0.02221 0.16939 0.69465 0.0
C1105 C 0.04929 0.11077 0.68392 0.0
N1106 N 0.07 0.18556 0.71978 0.0
N1107 N 0.99718 0.08851 0.68283 0.0
H1108 H 0.08609 0.08246 0.66854 0.0
H1109 H 0.04917 0.06719 0.66105 0.0
H1110 H 0.97294 0.0907 0.68365 0.0
H1111 H 1.00527 0.06569 0.68423 0.0
H1112 H 0.05919 0.20475 0.72977 0.0
H1113 H 0.09312 0.18213 0.72628 0.0
H1114 H 0.0248 0.21863 0.69681 0.0
H1115 H 0.98907 0.20365 0.68368 0.0
C1116 C 0.85945 0.01342 0.69806 0.0
C1117 C 0.8684 0.99916 0.66995 0.0
C1118 C 0.8988 0.04537 0.65554 0.0
C1119 C 0.88459 0.06211 0.68006 0.0
N1120 N 0.85553 0.06086 0.72832 0.0
N1121 N 0.89708 1.0002 0.6221 0.0
C1122 C 0.86661 0.04565 0.70286 0.0
C1123 C 0.88865 0.01461 0.64897 0.0
N1124 N 0.84352 0.99597 0.71961 0.0
N1125 N 0.92282 0.05874 0.63927 0.0
H1126 H 0.89078 0.97721 0.61731 0.0
H1127 H 0.90878 0.01147 0.60396 0.0
H1128 H 0.93205 0.08025 0.64548 0.0
H1129 H 0.93591 0.04714 0.62258 0.0
H1130 H 0.83718 1.00366 0.74154 0.0
H1131 H 0.83813 0.97254 0.71603 0.0
H1132 H 0.84093 0.05083 0.74495 0.0
H1133 H 0.86079 0.08394 0.73327 0.0
C1134 C 0.98603 0.8728 0.63146 0.0
C1135 C 1.00358 0.86987 0.6586 0.0
C1136 C 0.95588 0.87968 0.68859 0.0
C1137 C 0.93743 0.87431 0.66155 0.0
N1138 N 0.93964 0.85349 0.60858 0.0
N1139 N 1.0043 0.86656 0.71434 0.0
C1140 C 0.95365 0.86772 0.63314 0.0
C1141 C 0.98835 0.87227 0.68771 0.0
N1142 N 1.00047 0.87888 0.6038 0.0
N1143 N 0.94347 0.89288 0.71453 0.0
H1144 H 0.0278 0.86051 0.7144 0.0
H1145 H 0.99337 0.86518 0.73597 0.0
H1146 H 0.92112 0.90201 0.71558 0.0
H1147 H 0.95701 0.89875 0.73364 0.0
H1148 H 0.98799 0.88289 0.58349 0.0
H1149 H 0.02439 0.88345 0.60223 0.0
H1150 H 0.95189 0.84774 0.58846 0.0
H1151 H 0.91833 0.84199 0.60994 0.0
C1152 C 0.34014 0.16619 0.00618 0.0
C1153 C 0.33146 0.13886 0.99026 0.0
C1154 C 0.31527 0.11402 0.03937 0.0
C1155 C 0.32572 0.14076 0.05555 0.0
N1156 N 0.35109 0.19121 0.05502 0.0
N1157 N 0.31345 0.0859 0.9906 0.0
C1158 C 0.33903 0.16654 0.03909 0.0
C1159 C 0.31985 0.11247 0.00668 0.0
N1160 N 0.34802 0.19232 0.98956 0.0
N1161 N 0.30093 0.09023 0.0553 0.0
H1162 H 0.31631 0.08465 0.96665 0.0
H1163 H 0.30738 0.06467 1.00079 0.0
H1164 H 0.29733 0.09074 0.07917 0.0
H1165 H 0.29063 0.07095 0.04493 0.0
H1166 H 0.35078 0.21429 0.9993 0.0
H1167 H 0.35007 0.19235 0.96547 0.0
H1168 H 0.36469 0.20875 0.04487 0.0
H1169 H 0.34858 0.1935 0.07887 0.0
C1170 C 0.9068 0.31169 0.0481 0.0
C1171 C 0.88242 0.32735 0.06401 0.0
C1172 C 0.86287 0.34758 0.01427 0.0
C1173 C 0.88544 0.33008 0.99829 0.0
N1174 N 0.9281 0.29424 0.9988 0.0
N1175 N 0.83266 0.35299 0.06111 0.0
C1176 C 0.90736 0.31196 0.01498 0.0
C1177 C 0.8594 0.34363 0.04675 0.0
N1178 N 0.9296 0.29696 0.06447 0.0
N1179 N 0.844 0.36733 0.99817 0.0
H1180 H 0.8279 0.34727 0.084 0.0
H1181 H 0.81361 0.36239 0.0496 0.0
H1182 H 0.84504 0.36974 0.97416 0.0
H1183 H 0.8293 0.38333 0.00879 0.0
H1184 H 0.95012 0.2887 0.0546 0.0
H1185 H 0.92858 0.29381 0.08837 0.0
H1186 H 0.94238 0.27752 0.00883 0.0
H1187 H 0.93006 0.29553 0.97473 0.0
C1188 C 0.63831 0.86026 0.01239 0.0
C1189 C 0.66195 0.86381 0.98985 0.0
C1190 C 0.69977 0.87104 0.03202 0.0
C1191 C 0.67652 0.86164 0.05405 0.0
N1192 N 0.62676 0.83474 0.06046 0.0
N1193 N 0.71717 0.86674 0.97854 0.0
C1194 C 0.64665 0.85257 0.04287 0.0
C1195 C 0.69339 0.86766 0.99964 0.0
N1196 N 0.60774 0.86384 0.00464 0.0
N1197 N 0.72721 0.88408 0.04143 0.0
H1198 H 0.71348 0.86314 0.955 0.0
H1199 H 0.74058 0.86659 0.98494 0.0
H1200 H 0.7325 0.88808 0.06456 0.0
H1201 H 0.74341 0.89369 0.02592 0.0
H1202 H 0.58981 0.86304 0.02112 0.0
H1203 H 0.601 0.87122 0.98259 0.0
H1204 H 0.60552 0.82641 0.05206 0.0
H1205 H 0.63354 0.82447 0.08121 0.0
C1206 C 0.16142 0.66859 0.03668 0.0
C1207 C 0.1444 0.69191 0.05263 0.0
C1208 C 0.12473 0.71054 1.0023 0.0
C1209 C 0.13919 0.68497 0.98737 0.0
N1210 N 0.16386 0.63524 0.99183 0.0
N1211 N 0.10524 0.73201 0.05071 0.0
C1212 C 0.15485 0.66246 0.00526 0.0
C1213 C 0.12469 0.71216 0.0355 0.0
N1214 N 0.18513 0.65329 0.05112 0.0
N1215 N 0.11206 0.73372 0.98481 0.0
H1216 H 0.10466 0.73376 0.07478 0.0
H1217 H 0.08816 0.74497 0.03953 0.0
H1218 H 0.11147 0.73279 0.96068 0.0
H1219 H 0.10401 0.75453 0.99413 0.0
H1220 H 0.19989 0.63787 0.03971 0.0
H1221 H 0.19252 0.65903 0.07331 0.0
H1222 H 0.17324 0.61674 0.00436 0.0
H1223 H 0.15872 0.6301 0.96879 0.0
C1224 C 0.36753 0.83343 0.99397 0.0
C1225 C 0.34632 0.84073 0.01797 0.0
C1226 C 0.30641 0.85096 0.97839 0.0
C1227 C 0.32723 0.84008 0.95506 0.0
N1228 N 0.37229 0.80802 0.94481 0.0
N1229 N 0.29234 0.84771 0.03288 0.0
C1230 C 0.35599 0.82695 0.96429 0.0
C1231 C 0.31469 0.84704 0.01028 0.0
N1232 N 0.39892 0.83385 0.99907 0.0
N1233 N 0.27946 0.86568 0.97064 0.0
H1234 H 0.29707 0.84277 0.05602 0.0
H1235 H 0.26863 0.84963 0.02805 0.0
H1236 H 0.27203 0.8684 0.94791 0.0
H1237 H 0.26549 0.87689 0.98692 0.0
H1238 H 0.41518 0.83045 0.98134 0.0
H1239 H 0.40851 0.84149 0.01987 0.0
H1240 H 0.39263 0.7967 0.95158 0.0
H1241 H 0.36328 0.8007 0.92363 0.0
C1242 C 0.15194 0.29942 0.96635 0.0
C1243 C 0.16617 0.32089 0.94531 0.0
C1244 C 0.17732 0.35585 0.98799 0.0
C1245 C 0.1677 0.33311 0.00969 0.0
N1246 N 0.1501 0.28045 0.01965 0.0
N1247 N 0.20361 0.36317 0.93947 0.0
C1248 C 0.15611 0.30393 0.99901 0.0
C1249 C 0.18253 0.347 0.95727 0.0
N1250 N 0.13393 0.27561 0.95551 0.0
N1251 N 0.18125 0.38613 0.99671 0.0
H1252 H 0.21014 0.35583 0.91745 0.0
H1253 H 0.21727 0.38127 0.94822 0.0
H1254 H 0.17549 0.39378 0.01892 0.0
H1255 H 0.1865 0.4039 0.98085 0.0
H1256 H 0.12062 0.26115 0.96998 0.0
H1257 H 0.13087 0.27167 0.9319 0.0
H1258 H 0.1442 0.25791 0.01287 0.0
H1259 H 0.15344 0.28301 0.0434 0.0
C1260 C 0.67377 0.12725 0.00936 0.0
C1261 C 0.68033 0.15432 0.02647 0.0
C1262 C 0.69168 0.18323 0.97856 0.0
C1263 C 0.68834 0.15514 0.96159 0.0
N1264 N 0.67974 0.09958 0.96108 0.0
N1265 N 0.69507 0.20806 0.02893 0.0
C1266 C 0.6802 0.12691 0.97711 0.0
C1267 C 0.68894 0.18241 0.0114 0.0
N1268 N 0.66142 0.10189 0.02437 0.0
N1269 N 0.69647 0.21074 0.96323 0.0
H1270 H 0.69018 0.20843 0.05262 0.0
H1271 H 0.70537 0.22843 0.02038 0.0
H1272 H 0.69992 0.21174 0.93946 0.0
H1273 H 0.69569 0.23252 0.97366 0.0
H1274 H 0.65355 0.08189 0.01327 0.0
H1275 H 0.65622 0.10225 0.04798 0.0
H1276 H 0.67646 0.07779 0.97135 0.0
H1277 H 0.6856 0.09844 0.93771 0.0
C1278 C 0.88576 0.70898 0.95566 0.0
C1279 C 0.86139 0.69333 0.94004 0.0
C1280 C 0.83977 0.67569 0.99035 0.0
C1281 C 0.86644 0.68771 0.0053 0.0
N1282 N 0.91672 0.7125 1.0024 0.0
N1283 N 0.81451 0.66148 0.94261 0.0
C1284 C 0.89002 0.70334 0.98788 0.0
C1285 C 0.83826 0.6765 0.95747 0.0
N1286 N 0.90419 0.72993 0.94007 0.0
N1287 N 0.81498 0.66533 0.00774 0.0
H1288 H 0.80982 0.66473 0.91923 0.0
H1289 H 0.79993 0.64508 0.95333 0.0
H1290 H 0.81537 0.66423 0.03186 0.0
H1291 H 0.79321 0.65996 0.99854 0.0
H1292 H 0.92048 0.74424 0.95091 0.0
H1293 H 0.90117 0.73514 0.91669 0.0
H1294 H 0.9362 0.72139 0.99071 0.0
H1295 H 0.92028 0.70841 0.02596 0.0
C1296 C 0.02179 0.31562 0.12119 0.0
C1297 C 1.00641 0.34182 0.13375 0.0
C1298 C 0.05628 0.36686 0.14321 0.0
C1299 C 0.07255 0.34202 0.12824 0.0
N1300 N 0.06848 0.29612 0.09603 0.0
N1301 N 0.00829 0.39596 0.14629 0.0
C1302 C 0.05465 0.31732 0.11502 0.0
C1303 C 0.02359 0.36884 0.14045 0.0
N1304 N 1.00524 0.28889 0.11622 0.0
N1305 N 0.07106 0.3867 0.16306 0.0
H1306 H 0.98404 0.39754 0.14477 0.0
H1307 H 0.01992 0.41717 0.14924 0.0
H1308 H 0.09362 0.38334 0.17088 0.0
H1309 H 0.05929 0.40355 0.17581 0.0
H1310 H 0.01566 0.26789 0.11022 0.0
H1311 H 0.98119 0.28752 0.11996 0.0
H1312 H 0.0559 0.2793 0.08396 0.0
H1313 H 0.09195 0.29734 0.08975 0.0
C1314 C 0.99454 0.70321 0.88834 0.0
C1315 C 0.98482 0.69419 0.85802 0.0
C1316 C 0.03638 0.71002 0.83901 0.0
C1317 C 0.04838 0.71099 0.86909 0.0
N1318 N 0.03834 0.70808 0.9238 0.0
N1319 N 1.00362 0.67806 0.8075 0.0
C1320 C 0.02725 0.70726 0.89432 0.0
C1321 C 0.0079 0.69438 0.83415 0.0
N1322 N 0.97313 0.70969 0.91073 0.0
N1323 N 0.05254 0.72301 0.81492 0.0
H1324 H 0.98482 0.66275 0.80468 0.0
H1325 H 0.02076 0.67698 0.79025 0.0
H1326 H 0.07329 0.73538 0.81839 0.0
H1327 H 0.04349 0.72377 0.79252 0.0
H1328 H 0.97917 0.71838 0.93239 0.0
H1329 H 0.94942 0.70992 0.90629 0.0
H1330 H 0.02472 0.70228 0.94312 0.0
H1331 H 0.06154 0.71391 0.92836 0.0
C1332 C 0.33644 0.03616 0.89195 0.0
C1333 C 0.32346 0.052 0.86603 0.0
C1334 C 0.30796 1.00174 0.84386 0.0
C1335 C 0.32283 0.98625 0.86873 0.0
N1336 N 0.35501 0.98754 0.91384 0.0
N1337 N 0.30108 0.04987 0.8149 0.0
C1338 C 0.33844 1.00322 0.89184 0.0
C1339 C 0.31019 0.03482 0.84129 0.0
N1340 N 0.34561 0.05265 0.91734 0.0
N1341 N 0.2912 0.98465 0.82311 0.0
H1342 H 0.30217 0.074 0.81226 0.0
H1343 H 0.29438 0.03836 0.79481 0.0
H1344 H 0.29055 0.96034 0.82376 0.0
H1345 H 0.27678 0.99446 0.80641 0.0
H1346 H 0.35242 0.04244 0.93814 0.0
H1347 H 0.34347 0.07671 0.91874 0.0
H1348 H 0.36971 0.9984 0.92964 0.0
H1349 H 0.35611 0.96328 0.91459 0.0
C1350 C 0.9803 0.30639 0.84292 0.0
C1351 C 0.96599 0.312 0.87188 0.0
C1352 C 0.01737 0.32382 0.89418 0.0
C1353 C 0.03079 0.32213 0.86422 0.0
N1354 N 0.02455 0.31724 0.8093 0.0
N1355 N 0.97023 0.32778 0.92518 0.0
C1356 C 0.01193 0.31514 0.83836 0.0
C1357 C 0.98441 0.32123 0.8976 0.0
N1358 N 0.96389 0.29219 0.81993 0.0
N1359 N 0.03626 0.32643 0.9194 0.0
H1360 H 0.94654 0.32364 0.92899 0.0
H1361 H 0.98165 0.33824 0.94369 0.0
H1362 H 0.06042 0.32877 0.9175 0.0
H1363 H 0.02823 0.32432 0.94215 0.0
H1364 H 0.97439 0.28422 0.79968 0.0
H1365 H 0.94082 0.28492 0.82278 0.0
H1366 H 0.01146 0.31497 0.78916 0.0
H1367 H 0.0476 0.32441 0.80554 0.0
C1368 C 0.6647 0.01123 0.85066 0.0
C1369 C 0.67803 0.02413 0.8775 0.0
C1370 C 0.68792 0.97165 0.89779 0.0
C1371 C 0.67061 0.95852 0.87298 0.0
N1372 N 0.6399 0.96735 0.82654 0.0
N1373 N 0.69705 0.01737 0.92922 0.0
C1374 C 0.65796 0.9788 0.84983 0.0
C1375 C 0.68792 1.00447 0.90189 0.0
N1376 N 0.66042 0.02957 0.82505 0.0
N1377 N 0.70534 0.95329 0.91687 0.0
H1378 H 0.69709 0.04135 0.93277 0.0
H1379 H 0.70148 1.00429 0.94913 0.0
H1380 H 0.70809 0.92954 0.91372 0.0
H1381 H 0.72034 0.96226 0.93355 0.0
H1382 H 0.65443 0.02076 0.80343 0.0
H1383 H 0.66573 0.05328 0.82452 0.0
H1384 H 0.62654 0.98147 0.81214 0.0
H1385 H 0.63702 0.94384 0.82229 0.0
C1386 C 0.99848 0.68969 0.16734 0.0
C1387 C 0.01698 0.68799 0.14016 0.0
C1388 C 0.96982 0.68903 0.10836 0.0
C1389 C 0.95144 0.69321 0.13555 0.0
N1390 N 0.94846 0.70224 0.1905 0.0
N1391 N 0.02143 0.69051 0.08475 0.0
C1392 C 0.96587 0.69502 0.16496 0.0
C1393 C 1.00294 0.68871 0.1106 0.0
N1394 N 0.01245 0.68585 0.19545 0.0
N1395 N 0.95552 0.685 0.08046 0.0
H1396 H 0.04572 0.68969 0.08578 0.0
H1397 H 0.01291 0.69469 0.06258 0.0
H1398 H 0.93149 0.6872 0.07769 0.0
H1399 H 0.9672 0.67813 0.06044 0.0
H1400 H 1.00027 0.68404 0.21633 0.0
H1401 H 0.03632 0.68167 0.19747 0.0
H1402 H 0.95793 0.70658 0.2122 0.0
H1403 H 0.92468 0.70684 0.18933 0.0
C1404 C 0.33318 0.9885 0.16213 0.0
C1405 C 0.34254 0.00744 0.13678 0.0
C1406 C 0.35598 0.96028 0.10766 0.0
C1407 C 0.34252 0.94145 0.1316 0.0
N1408 N 0.31256 0.93874 0.17909 0.0
N1409 N 0.35896 0.01164 0.0836 0.0
C1410 C 0.32938 0.95591 0.15808 0.0
C1411 C 0.3531 0.99343 0.10903 0.0
N1412 N 0.3281 1.00196 0.19027 0.0
N1413 N 0.37158 0.94659 0.08373 0.0
H1414 H 0.35721 0.03585 0.08408 0.0
H1415 H 0.36343 1.00265 0.06167 0.0
H1416 H 0.373 0.92249 0.0813 0.0
H1417 H 0.38465 0.95913 0.0674 0.0
H1418 H 0.32388 0.98922 0.21052 0.0
H1419 H 0.33149 0.02579 0.19382 0.0
H1420 H 0.30021 0.94849 0.19744 0.0
H1421 H 0.30817 0.91513 0.17618 0.0
C1422 C 0.67751 0.04444 0.125 0.0
C1423 C 0.68839 0.0594 0.1523 0.0
C1424 C 0.69552 0.00855 0.17726 0.0
C1425 C 0.68638 0.99387 0.14951 0.0
N1426 N 0.67173 0.99639 0.0961 0.0
N1427 N 0.71126 0.05614 0.20311 0.0
C1428 C 0.67789 0.01147 0.12322 0.0
C1429 C 0.69853 0.04157 0.17808 0.0
N1430 N 0.66691 0.06184 0.10066 0.0
N1431 N 0.70077 0.99055 0.20287 0.0
H1432 H 0.71299 0.08027 0.20492 0.0
H1433 H 0.72215 0.04439 0.22117 0.0
H1434 H 0.69811 0.96638 0.20253 0.0
H1435 H 0.70513 0.99941 0.22483 0.0
H1436 H 0.65465 0.0526 0.08207 0.0
H1437 H 0.66952 0.08593 0.09943 0.0
H1438 H 0.66918 0.00757 0.07481 0.0
H1439 H 0.6707 0.97217 0.09459 0.0
C1440 C 0.17653 0.24051 0.25494 0.0
C1441 C 0.15744 0.23608 0.28151 0.0
C1442 C 0.12866 0.28329 0.26797 0.0
C1443 C 0.15049 0.28983 0.24393 0.0
N1444 N 0.20114 0.2789 0.22179 0.0
N1445 N 0.12169 0.25895 0.3182 0.0
C1446 C 0.17618 0.26962 0.23944 0.0
C1447 C 0.13513 0.25901 0.28948 0.0
N1448 N 0.19454 0.21683 0.24402 0.0
N1449 N 0.1014 0.29937 0.26977 0.0
H1450 H 0.12838 0.24342 0.33555 0.0
H1451 H 0.10701 0.27665 0.32579 0.0
H1452 H 0.09515 0.31616 0.25346 0.0
H1453 H 0.08372 0.29356 0.28554 0.0
H1454 H 0.20625 0.21822 0.22279 0.0
H1455 H 0.19493 0.1948 0.25433 0.0
H1456 H 0.22137 0.26571 0.21969 0.0
H1457 H 0.20319 0.30137 0.21269 0.0
C1458 C 0.72713 0.16811 0.28039 0.0
C1459 C 0.71236 0.14015 0.27081 0.0
C1460 C 0.75298 0.10939 0.29622 0.0
C1461 C 0.76669 0.13728 0.30728 0.0
N1462 N 0.7664 0.19313 0.31227 0.0
N1463 N 0.70846 0.08417 0.27241 0.0
C1464 C 0.75369 0.16669 0.29994 0.0
C1465 C 0.72442 0.11076 0.27971 0.0
N1466 N 0.71581 0.19599 0.27014 0.0
N1467 N 0.768 0.08171 0.3006 0.0
H1468 H 0.68817 0.08414 0.25932 0.0
H1469 H 0.714 0.06222 0.28106 0.0
H1470 H 0.78927 0.08013 0.31207 0.0
H1471 H 0.76106 0.06079 0.2906 0.0
H1472 H 0.7273 0.21724 0.27284 0.0
H1473 H 0.69507 0.19767 0.2577 0.0
H1474 H 0.75621 0.21502 0.31082 0.0
H1475 H 0.78688 0.19297 0.32517 0.0
C1476 C 0.83019 0.76185 0.26149 0.0
C1477 C 0.85167 0.76922 0.28526 0.0
C1478 C 0.88254 0.7235 0.27079 0.0
C1479 C 0.85919 0.71452 0.24945 0.0
N1480 N 0.80594 0.71979 0.23346 0.0
N1481 N 0.89115 0.74925 0.31955 0.0
C1482 C 0.83141 0.73206 0.24775 0.0
C1483 C 0.87602 0.74791 0.29195 0.0
N1484 N 0.80943 0.78347 0.25107 0.0
N1485 N 0.91107 0.70968 0.27049 0.0
H1486 H 0.88324 0.76344 0.33736 0.0
H1487 H 0.90786 0.73302 0.3262 0.0
H1488 H 0.91711 0.6924 0.25479 0.0
H1489 H 0.92952 0.71761 0.28407 0.0
H1490 H 0.79486 0.77947 0.23221 0.0
H1491 H 0.80936 0.80646 0.25874 0.0
H1492 H 0.7843 0.73075 0.2334 0.0
H1493 H 0.80582 0.69692 0.22543 0.0
C1494 C 0.2609 0.86276 0.2412 0.0
C1495 C 0.29226 0.8614 0.25144 0.0
C1496 C 0.27336 0.85442 0.3048 0.0
C1497 C 0.24214 0.85197 0.29393 0.0
N1498 N 0.20824 0.84455 0.2499 0.0
N1499 N 0.32794 0.84744 0.29204 0.0
C1500 C 0.2365 0.85335 0.26155 0.0
C1501 C 0.2984 0.85468 0.283 0.0
N1502 N 0.25408 0.87443 0.21258 0.0
N1503 N 0.2793 0.85822 0.33561 0.0
H1504 H 0.34647 0.8458 0.2764 0.0
H1505 H 0.33314 0.83965 0.31434 0.0
H1506 H 0.26187 0.86014 0.35236 0.0
H1507 H 0.30158 0.86298 0.34403 0.0
H1508 H 0.23129 0.87853 0.20534 0.0
H1509 H 0.27098 0.88338 0.19758 0.0
H1510 H 0.20416 0.84245 0.2262 0.0
H1511 H 0.19026 0.83562 0.26368 0.0
C1512 C 0.10651 0.75282 0.6953 0.0
C1513 C 0.13175 0.77429 0.6982 0.0
C1514 C 0.15445 0.74011 0.738 0.0
C1515 C 0.12663 0.72177 0.73844 0.0
N1516 N 0.09164 0.69897 0.70148 0.0
N1517 N 0.18118 0.78747 0.72138 0.0
C1518 C 0.10659 0.72463 0.71266 0.0
C1519 C 0.15617 0.76769 0.71934 0.0
N1520 N 0.08191 0.75943 0.67651 0.0
N1521 N 0.18061 0.72857 0.75164 0.0
H1522 H 0.18482 0.80601 0.70605 0.0
H1523 H 0.19753 0.78625 0.7391 0.0
H1524 H 0.1812 0.70592 0.7605 0.0
H1525 H 0.20248 0.73923 0.75028 0.0
H1526 H 0.06169 0.74576 0.67613 0.0
H1527 H 0.08048 0.77992 0.66361 0.0
H1528 H 0.07832 0.69932 0.68135 0.0
H1529 H 0.09765 0.67661 0.70882 0.0
C1530 C 0.26063 0.12459 0.70957 0.0
C1531 C 0.24596 0.15428 0.71164 0.0
C1532 C 0.29026 0.17273 0.74212 0.0
C1533 C 0.30131 0.14205 0.74539 0.0
N1534 N 0.29427 0.08737 0.73527 0.0
N1535 N 0.24416 0.20398 0.73816 0.0
C1536 C 0.2858 0.11748 0.72989 0.0
C1537 C 0.26014 0.1778 0.73002 0.0
N1538 N 0.25184 0.10377 0.68743 0.0
N1539 N 0.30864 0.1971 0.75087 0.0
H1540 H 0.22056 0.20706 0.73347 0.0
H1541 H 0.25322 0.22053 0.7533 0.0
H1542 H 0.33113 0.19378 0.75939 0.0
H1543 H 0.3028 0.22016 0.74604 0.0
H1544 H 0.26349 0.08288 0.68372 0.0
H1545 H 0.23561 0.10897 0.67034 0.0
H1546 H 0.28152 0.06838 0.72709 0.0
H1547 H 0.3126 0.08148 0.74988 0.0
C1548 C 0.91721 0.28289 0.74212 0.0
C1549 C 0.88813 0.29389 0.75307 0.0
C1550 C 0.86108 0.2529 0.72366 0.0
C1551 C 0.89043 0.24017 0.71516 0.0
N1552 N 0.94609 0.2392 0.722 0.0
N1553 N 0.83242 0.28865 0.75659 0.0
C1554 C 0.91842 0.2543 0.72574 0.0
C1555 C 0.86006 0.2786 0.74447 0.0
N1556 N 0.94379 0.29963 0.74761 0.0
N1557 N 0.83432 0.24124 0.71095 0.0
H1558 H 0.83084 0.30873 0.77002 0.0
H1559 H 0.81143 0.27647 0.75459 0.0
H1560 H 0.83414 0.22248 0.69575 0.0
H1561 H 0.81251 0.25141 0.71369 0.0
H1562 H 0.96518 0.29472 0.73721 0.0
H1563 H 0.94413 0.31983 0.76082 0.0
H1564 H 0.96699 0.24656 0.73185 0.0
H1565 H 0.94735 0.21726 0.71201 0.0
C1566 C 0.7172 0.85557 0.73683 0.0
C1567 C 0.71243 0.88367 0.75308 0.0
C1568 C 0.75766 0.90769 0.72702 0.0
C1569 C 0.76096 0.88036 0.70894 0.0
N1570 N 0.74474 0.82818 0.696 0.0
N1571 N 0.72603 0.93677 0.76378 0.0
C1572 C 0.74104 0.85415 0.71381 0.0
C1573 C 0.73228 0.90978 0.74835 0.0
N1574 N 0.69899 0.83022 0.74398 0.0
N1575 N 0.77891 0.93145 0.72376 0.0
H1576 H 0.70783 0.93851 0.77982 0.0
H1577 H 0.73758 0.95783 0.75975 0.0
H1578 H 0.79734 0.93081 0.70791 0.0
H1579 H 0.77961 0.95103 0.73783 0.0
H1580 H 0.70266 0.80794 0.73541 0.0
H1581 H 0.68069 0.83119 0.75995 0.0
H1582 H 0.72925 0.80941 0.69581 0.0
H1583 H 0.76322 0.82565 0.68047 0.0
C1584 C 0.26647 0.11831 0.27019 0.0
C1585 C 0.2549 0.145 0.28532 0.0
C1586 C 0.27626 0.17803 0.24405 0.0
C1587 C 0.29132 0.15194 0.23057 0.0
N1588 N 0.30628 0.09772 0.23614 0.0
N1589 N 0.25708 0.20052 0.29161 0.0
C1590 C 0.28792 0.12203 0.24497 0.0
C1591 C 0.26254 0.17497 0.27384 0.0
N1592 N 0.25692 0.08948 0.27996 0.0
N1593 N 0.27355 0.20531 0.22785 0.0
H1594 H 0.24904 0.19858 0.31438 0.0
H1595 H 0.26421 0.22293 0.28519 0.0
H1596 H 0.2797 0.20738 0.20452 0.0
H1597 H 0.26162 0.22457 0.23632 0.0
H1598 H 0.26192 0.06915 0.26786 0.0
H1599 H 0.24218 0.08631 0.29909 0.0
H1600 H 0.30632 0.07636 0.24775 0.0
H1601 H 0.32396 0.09971 0.21959 0.0
C1602 C 0.89715 0.26876 0.2449 0.0
C1603 C 0.872 0.28981 0.24062 0.0
C1604 C 0.84339 0.26449 0.28375 0.0
C1605 C 0.86973 0.24579 0.28984 0.0
N1606 N 0.92227 0.23075 0.27844 0.0
N1607 N 0.82088 0.30785 0.25534 0.0
C1608 C 0.89669 0.24794 0.27082 0.0
C1609 C 0.84495 0.2876 0.25985 0.0
N1610 N 0.92139 0.26859 0.22417 0.0
N1611 N 0.81675 0.25955 0.30069 0.0
H1612 H 0.8202 0.32346 0.23674 0.0
H1613 H 0.80194 0.31001 0.27035 0.0
H1614 H 0.81557 0.24342 0.31883 0.0
H1615 H 0.79543 0.26989 0.29588 0.0
H1616 H 0.93891 0.25194 0.22413 0.0
H1617 H 0.92292 0.28376 0.20533 0.0
H1618 H 0.94404 0.23333 0.26787 0.0
H1619 H 0.92227 0.21506 0.29699 0.0
C1620 C 0.73329 0.84519 0.24417 0.0
C1621 C 0.73147 0.8739 0.22764 0.0
C1622 C 0.76271 0.89989 0.26762 0.0
C1623 C 0.76347 0.87169 0.2846 0.0
N1624 N 0.74793 0.81829 0.29168 0.0
N1625 N 0.75015 0.9264 0.21951 0.0
C1626 C 0.74839 0.8445 0.27352 0.0
C1627 C 0.74773 0.90072 0.23833 0.0
N1628 N 0.72134 0.81854 0.23154 0.0
N1629 N 0.77577 0.92603 0.28021 0.0
H1630 H 0.74101 0.92693 0.1972 0.0
H1631 H 0.7634 0.9461 0.22453 0.0
H1632 H 0.78678 0.92576 0.30172 0.0
H1633 H 0.77394 0.94828 0.27076 0.0
H1634 H 0.72427 0.79636 0.24086 0.0
H1635 H 0.71049 0.81789 0.2101 0.0
H1636 H 0.73527 0.79819 0.28677 0.0
H1637 H 0.75873 0.81731 0.31321 0.0
C1638 C 0.19 0.74778 0.23923 0.0
C1639 C 0.16659 0.72705 0.22827 0.0
C1640 C 0.13344 0.74043 0.27294 0.0
C1641 C 0.15806 0.7585 0.28516 0.0
N1642 N 0.21189 0.77434 0.28346 0.0
N1643 N 0.11819 0.69894 0.23844 0.0
C1644 C 0.18705 0.76051 0.26937 0.0
C1645 C 0.13877 0.7221 0.24606 0.0
N1646 N 0.21428 0.75656 0.22031 0.0
N1647 N 0.10478 0.74127 0.28687 0.0
H1648 H 0.12131 0.68408 0.21975 0.0
H1649 H 0.09933 0.69244 0.25245 0.0
H1650 H 0.10072 0.75362 0.30725 0.0
H1651 H 0.08477 0.73158 0.27715 0.0
H1652 H 0.23032 0.77391 0.22605 0.0
H1653 H 0.21653 0.74901 0.19748 0.0
H1654 H 0.23445 0.77428 0.27434 0.0
H1655 H 0.2104 0.78306 0.30586 0.0
C1656 C 0.28534 0.86837 0.7546 0.0
C1657 C 0.276 0.8789 0.78444 0.0
C1658 C 0.22606 0.89576 0.76296 0.0
C1659 C 0.23451 0.88271 0.73407 0.0
N1660 N 0.26855 0.85022 0.7043 0.0
N1661 N 0.23589 0.89918 0.81811 0.0
C1662 C 0.26307 0.86702 0.73052 0.0
C1663 C 0.24569 0.89125 0.78904 0.0
N1664 N 0.3157 0.86086 0.74873 0.0
N1665 N 0.20014 0.91392 0.7649 0.0
H1666 H 0.2501 0.89759 0.83755 0.0
H1667 H 0.21298 0.90528 0.82333 0.0
H1668 H 0.18607 0.9183 0.74582 0.0
H1669 H 0.1942 0.92682 0.7844 0.0
H1670 H 0.32419 0.85605 0.72661 0.0
H1671 H 0.33314 0.8626 0.7652 0.0
H1672 H 0.28767 0.83559 0.70166 0.0
H1673 H 0.2523 0.84849 0.68649 0.0
C1674 C 0.13469 0.2901 0.75787 0.0
C1675 C 0.16561 0.30039 0.76439 0.0
C1676 C 0.18517 0.27126 0.71947 0.0
C1677 C 0.15503 0.25824 0.71548 0.0
N1678 N 0.10077 0.25575 0.72844 0.0
N1679 N 0.2203 0.3023 0.7509 0.0
C1680 C 0.12969 0.26794 0.734 0.0
C1681 C 0.19085 0.29165 0.74481 0.0
N1682 N 0.11003 0.30282 0.77342 0.0
N1683 N 0.20803 0.26448 0.69842 0.0
H1684 H 0.22501 0.31883 0.76784 0.0
H1685 H 0.24037 0.29412 0.7401 0.0
H1686 H 0.20411 0.24988 0.67961 0.0
H1687 H 0.2301 0.27471 0.69808 0.0
H1688 H 0.08675 0.29841 0.76832 0.0
H1689 H 0.11271 0.31998 0.79012 0.0
H1690 H 0.08156 0.25849 0.74299 0.0
H1691 H 0.0963 0.24193 0.70917 0.0
C1692 C 0.73298 0.16794 0.77161 0.0
C1693 C 0.72547 0.13945 0.78719 0.0
C1694 C 0.76443 0.11212 0.75554 0.0
C1695 C 0.77026 0.13998 0.73873 0.0
N1696 N 0.75931 0.19363 0.72815 0.0
N1697 N 0.7332 0.08401 0.79363 0.0
C1698 C 0.75456 0.1678 0.74631 0.0
C1699 C 0.74097 0.1114 0.77901 0.0
N1700 N 0.71917 0.19502 0.78071 0.0
N1701 N 0.78226 0.0866 0.74948 0.0
H1702 H 0.71834 0.08266 0.81273 0.0
H1703 H 0.74044 0.06219 0.78621 0.0
H1704 H 0.79913 0.08655 0.73204 0.0
H1705 H 0.78202 0.06627 0.76274 0.0
H1706 H 0.72624 0.21704 0.77313 0.0
H1707 H 0.70121 0.19579 0.797 0.0
H1708 H 0.7466 0.2141 0.73005 0.0
H1709 H 0.77502 0.19399 0.7096 0.0
C1710 C 0.83998 0.75152 0.77127 0.0
C1711 C 0.8338 0.71949 0.76547 0.0
C1712 C 0.83355 0.73147 0.7098 0.0
C1713 C 0.84524 0.76182 0.71576 0.0
N1714 N 0.86825 0.79682 0.75293 0.0
N1715 N 0.83298 0.67802 0.72741 0.0
C1716 C 0.85099 0.77077 0.74675 0.0
C1717 C 0.83276 0.70906 0.73421 0.0
N1718 N 0.83435 0.76404 0.79977 0.0
N1719 N 0.82223 0.72422 0.68125 0.0
H1720 H 0.83532 0.66059 0.74408 0.0
H1721 H 0.83479 0.66985 0.70477 0.0
H1722 H 0.82068 0.74058 0.6634 0.0
H1723 H 0.81111 0.70306 0.67665 0.0
H1724 H 0.83655 0.78785 0.80405 0.0
H1725 H 0.82367 0.75156 0.81776 0.0
H1726 H 0.87488 0.80282 0.77535 0.0
H1727 H 0.8792 0.80999 0.7356 0.0
C1728 C 0.29365 0.27196 0.1688 0.0
C1729 C 0.29844 0.25443 0.14151 0.0
C1730 C 0.25223 0.27849 0.11802 0.0
C1731 C 0.24906 0.2982 0.14425 0.0
N1732 N 0.26811 0.31542 0.19387 0.0
N1733 N 0.28553 0.24362 0.08869 0.0
C1734 C 0.27024 0.29543 0.16941 0.0
C1735 C 0.27846 0.25834 0.11579 0.0
N1736 N 0.3107 0.26518 0.19457 0.0
N1737 N 0.2303 0.27899 0.09516 0.0
H1738 H 0.30489 0.22925 0.08638 0.0
H1739 H 0.27411 0.24769 0.06786 0.0
H1740 H 0.21135 0.29397 0.09513 0.0
H1741 H 0.22943 0.26288 0.07725 0.0
H1742 H 0.30611 0.27438 0.21638 0.0
H1743 H 0.32804 0.24828 0.19472 0.0
H1744 H 0.28501 0.3173 0.21099 0.0
H1745 H 0.25 0.33131 0.19643 0.0
C1746 C 0.22686 0.74259 0.82312 0.0
C1747 C 0.22479 0.7109 0.83279 0.0
C1748 C 0.27806 0.71552 0.8534 0.0
C1749 C 0.28089 0.74588 0.84042 0.0
N1750 N 0.26146 0.78261 0.80295 0.0
N1751 N 0.25257 0.66515 0.85027 0.0
C1752 C 0.25646 0.75736 0.82175 0.0
C1753 C 0.25182 0.69657 0.84545 0.0
N1754 N 0.20079 0.75951 0.81712 0.0
N1755 N 0.29905 0.70541 0.87479 0.0
H1756 H 0.23435 0.65035 0.84415 0.0
H1757 H 0.27267 0.65354 0.85719 0.0
H1758 H 0.31762 0.71906 0.88238 0.0
H1759 H 0.29612 0.68467 0.88721 0.0
H1760 H 0.20161 0.78321 0.81166 0.0
H1761 H 0.17855 0.75136 0.82229 0.0
H1762 H 0.24478 0.79063 0.78737 0.0
H1763 H 0.28346 0.79296 0.80043 0.0
C1764 C 0.2976 0.24832 0.89631 0.0
C1765 C 0.30794 0.23246 0.86927 0.0
C1766 C 0.28114 0.27087 0.8371 0.0
C1767 C 0.27409 0.28858 0.86374 0.0
N1768 N 0.2797 0.29704 0.91828 0.0
N1769 N 0.31568 0.23391 0.8137 0.0
C1770 C 0.28382 0.2782 0.89323 0.0
C1771 C 0.30156 0.24525 0.8396 0.0
N1772 N 0.29916 0.2342 0.92473 0.0
N1773 N 0.26663 0.277 0.80973 0.0
H1774 H 0.33027 0.21473 0.81388 0.0
H1775 H 0.31527 0.24585 0.7926 0.0
H1776 H 0.24971 0.29404 0.80754 0.0
H1777 H 0.26881 0.2628 0.79033 0.0
H1778 H 0.28929 0.24354 0.9447 0.0
H1779 H 0.30728 0.21161 0.92791 0.0
H1780 H 0.28883 0.29213 0.94007 0.0
H1781 H 0.2696 0.31902 0.9164 0.0
C1782 C 0.72881 0.29519 0.86614 0.0
C1783 C 0.72967 0.26371 0.87611 0.0
C1784 C 0.78679 0.26642 0.8773 0.0
C1785 C 0.78586 0.29912 0.87257 0.0
N1786 N 0.75525 0.34531 0.86335 0.0
N1787 N 0.75969 0.22248 0.89965 0.0
C1788 C 0.75657 0.31377 0.86741 0.0
C1789 C 0.75873 0.25024 0.88413 0.0
N1790 N 0.70188 0.30689 0.85419 0.0
N1791 N 0.81405 0.25031 0.87479 0.0
H1792 H 0.73975 0.21056 0.90676 0.0
H1793 H 0.78021 0.21332 0.90871 0.0
H1794 H 0.83501 0.26025 0.86753 0.0
H1795 H 0.81486 0.22603 0.87571 0.0
H1796 H 0.7005 0.32873 0.84363 0.0
H1797 H 0.68151 0.29363 0.85243 0.0
H1798 H 0.73441 0.35766 0.86327 0.0
H1799 H 0.77511 0.35935 0.86133 0.0
C1800 C 0.71275 0.77367 0.89159 0.0
C1801 C 0.70024 0.78344 0.86276 0.0
C1802 C 0.73636 0.74906 0.83543 0.0
C1803 C 0.74544 0.73611 0.86425 0.0
N1804 N 0.74186 0.73432 0.9197 0.0
N1805 N 0.69878 0.78001 0.8071 0.0
C1806 C 0.73373 0.74816 0.89237 0.0
C1807 C 0.71185 0.77119 0.83457 0.0
N1808 N 0.70504 0.78923 0.91805 0.0
N1809 N 0.75179 0.7406 0.80905 0.0
H1810 H 0.68135 0.79677 0.80566 0.0
H1811 H 0.70379 0.76942 0.78602 0.0
H1812 H 0.77001 0.72465 0.80922 0.0
H1813 H 0.74856 0.75129 0.7876 0.0
H1814 H 0.71548 0.78515 0.93939 0.0
H1815 H 0.69015 0.8083 0.91807 0.0
H1816 H 0.73166 0.73967 0.94095 0.0
H1817 H 0.75754 0.71586 0.92079 0.0
C1818 C 0.72971 0.73422 0.15925 0.0
C1819 C 0.71698 0.74886 0.13293 0.0
C1820 C 0.7585 0.72719 0.10029 0.0
C1821 C 0.77071 0.71123 0.12659 0.0
N1822 N 0.76338 0.69447 0.17967 0.0
N1823 N 0.71577 0.75672 0.07797 0.0
C1824 C 0.75506 0.71337 0.1557 0.0
C1825 C 0.73025 0.7443 0.10325 0.0
N1826 N 0.71813 0.74124 0.18791 0.0
N1827 N 0.77472 0.72739 0.0729 0.0
H1828 H 0.69562 0.77009 0.0798 0.0
H1829 H 0.72212 0.7519 0.05519 0.0
H1830 H 0.79548 0.71543 0.06963 0.0
H1831 H 0.769 0.74129 0.05395 0.0
H1832 H 0.72885 0.7346 0.2085 0.0
H1833 H 0.69874 0.75547 0.19102 0.0
H1834 H 0.75015 0.69185 0.19987 0.0
H1835 H 0.78233 0.67969 0.17854 0.0
C1836 C 0.28133 0.71923 0.1655 0.0
C1837 C 0.26598 0.71518 0.13672 0.0
C1838 C 0.2956 0.75942 0.11456 0.0
C1839 C 0.31044 0.76399 0.14362 0.0
N1840 N 0.31413 0.75191 0.19797 0.0
N1841 N 0.25641 0.73172 0.08453 0.0
C1842 C 0.30251 0.74474 0.16941 0.0
C1843 C 0.27264 0.73542 0.11144 0.0
N1844 N 0.27549 0.69861 0.1891 0.0
N1845 N 0.30404 0.77761 0.08975 0.0
H1846 H 0.2413 0.71295 0.08091 0.0
H1847 H 0.25692 0.74752 0.06615 0.0
H1848 H 0.31893 0.79668 0.09168 0.0
H1849 H 0.2972 0.77349 0.06706 0.0
H1850 H 0.28794 0.69802 0.20971 0.0
H1851 H 0.25926 0.68056 0.18742 0.0
H1852 H 0.30707 0.74104 0.21848 0.0
H1853 H 0.32924 0.77067 0.20166 0.0
C1854 C 0.74014 0.24313 0.11769 0.0
C1855 C 0.72271 0.2348 0.14469 0.0
C1856 C 0.75034 0.27547 0.17385 0.0
C1857 C 0.76499 0.28566 0.14607 0.0
N1858 N 0.77244 0.28164 0.0911 0.0
N1859 N 0.70962 0.24409 0.19832 0.0
C1860 C 0.75936 0.27021 0.11784 0.0
C1861 C 0.72755 0.2511 0.17288 0.0
N1862 N 0.73981 0.22403 0.09251 0.0
N1863 N 0.7587 0.289 0.20115 0.0
H1864 H 0.69311 0.22617 0.19866 0.0
H1865 H 0.70969 0.25713 0.21857 0.0
H1866 H 0.77437 0.30767 0.20209 0.0
H1867 H 0.75174 0.28067 0.22285 0.0
H1868 H 0.75431 0.22702 0.07325 0.0
H1869 H 0.72728 0.20324 0.09219 0.0
H1870 H 0.76649 0.27374 0.06913 0.0
H1871 H 0.78773 0.30063 0.09072 0.0
loop_
_geom_bond_atom_site_label_1
_geom_bond_atom_site_label_2
_geom_bond_distance
_geom_bond_site_symmetry_2
_ccdc_geom_bond_type
Co0 N4 2.148 . S
Co0 N10 2.128 . S
Co0 N20 2.194 . S
Co0 O25 2.351 . S
Co0 O26 2.155 . S
Co0 O27 2.096 . S
C1 N4 1.301 . S
C1 N5 1.328 . S
C1 H6 0.930 . S
C2 C3 1.333 . S
C2 N4 1.317 . S
C2 H7 0.930 . S
C3 C2 1.333 . S
C3 N5 1.350 . S
C3 H29 0.931 . S
N4 Co0 2.148 . S
N4 C1 1.301 . S
N4 C2 1.317 . S
N5 C1 1.328 . S
N5 C3 1.350 . S
H6 C1 0.930 . S
H7 C2 0.930 . S
C8 O9 1.224 . S
C8 O27 1.247 . S
O9 C8 1.224 . S
N10 Co0 2.128 . S
N10 C11 1.355 . S
N10 C13 1.311 . S
C11 N10 1.355 . S
C11 C12 1.363 . S
C11 H23 0.929 . S
C12 C11 1.363 . S
C12 N14 1.375 . S
C12 H30 0.931 . S
C13 N10 1.311 . S
C13 N14 1.347 . S
C13 H24 0.929 . S
N14 C12 1.375 . S
N14 C13 1.347 . S
C15 C18 1.365 . S
C15 N20 1.328 . S
C15 H21 0.929 . S
C16 C17 1.362 . S
C16 C19 1.378 . S
C16 H31 0.929 . S
C17 C16 1.362 . S
C17 C18 1.366 . S
C18 C15 1.365 . S
C18 C17 1.366 . S
C18 H32 0.930 . S
C19 C16 1.378 . S
C19 N20 1.315 . S
C19 H22 0.930 . S
N20 Co0 2.194 . S
N20 C15 1.328 . S
N20 C19 1.315 . S
H21 C15 0.929 . S
H22 C19 0.930 . S
H23 C11 0.929 . S
H24 C13 0.929 . S
O25 Co0 2.351 . S
O25 C28 1.244 . S
O26 Co0 2.155 . S
O26 C28 1.240 . S
O27 Co0 2.096 . S
O27 C8 1.247 . S
C28 O25 1.244 . S
C28 O26 1.240 . S
H29 C3 0.931 . S
H30 C12 0.931 . S
H31 C16 0.929 . S
H32 C18 0.930 . S
Co33 N37 2.148 . S
Co33 N43 2.128 . S
Co33 N53 2.194 . S
Co33 O58 2.351 . S
Co33 O59 2.155 . S
Co33 O60 2.096 . S
C34 N37 1.301 . S
C34 N38 1.328 . S
C34 H39 0.930 . S
C35 C36 1.333 . S
C35 N37 1.317 . S
C35 H40 0.930 . S
C36 C35 1.333 . S
C36 N38 1.350 . S
C36 H62 0.931 . S
N37 Co33 2.148 . S
N37 C34 1.301 . S
N37 C35 1.317 . S
N38 C34 1.328 . S
N38 C36 1.350 . S
H39 C34 0.930 . S
H40 C35 0.930 . S
C41 O42 1.224 . S
C41 O60 1.247 . S
O42 C41 1.224 . S
N43 Co33 2.128 . S
N43 C44 1.355 . S
N43 C46 1.311 . S
C44 N43 1.355 . S
C44 C45 1.363 . S
C44 H56 0.929 . S
C45 C44 1.363 . S
C45 N47 1.375 . S
C45 H63 0.931 . S
C46 N43 1.311 . S
C46 N47 1.347 . S
C46 H57 0.929 . S
N47 C45 1.375 . S
N47 C46 1.347 . S
C48 C51 1.365 . S
C48 N53 1.328 . S
C48 H54 0.929 . S
C49 C50 1.362 . S
C49 C52 1.378 . S
C49 H64 0.929 . S
C50 C49 1.362 . S
C50 C51 1.366 . S
C51 C48 1.365 . S
C51 C50 1.366 . S
C51 H65 0.930 . S
C52 C49 1.378 . S
C52 N53 1.315 . S
C52 H55 0.930 . S
N53 Co33 2.194 . S
N53 C48 1.328 . S
N53 C52 1.315 . S
H54 C48 0.929 . S
H55 C52 0.930 . S
H56 C44 0.929 . S
H57 C46 0.929 . S
O58 Co33 2.351 . S
O58 C61 1.244 . S
O59 Co33 2.155 . S
O59 C61 1.240 . S
O60 Co33 2.096 . S
O60 C41 1.247 . S
C61 O58 1.244 . S
C61 O59 1.240 . S
H62 C36 0.931 . S
H63 C45 0.931 . S
H64 C49 0.929 . S
H65 C51 0.930 . S
Co66 N70 2.148 . S
Co66 N76 2.128 . S
Co66 N86 2.194 . S
Co66 O91 2.351 . S
Co66 O92 2.155 . S
Co66 O93 2.096 . S
C67 N70 1.301 . S
C67 N71 1.328 . S
C67 H72 0.930 . S
C68 C69 1.333 . S
C68 N70 1.317 . S
C68 H73 0.930 . S
C69 C68 1.333 . S
C69 N71 1.350 . S
C69 H95 0.931 . S
N70 Co66 2.148 . S
N70 C67 1.301 . S
N70 C68 1.317 . S
N71 C67 1.328 . S
N71 C69 1.350 . S
H72 C67 0.930 . S
H73 C68 0.930 . S
C74 O75 1.224 . S
C74 O93 1.247 . S
O75 C74 1.224 . S
N76 Co66 2.128 . S
N76 C77 1.355 . S
N76 C79 1.311 . S
C77 N76 1.355 . S
C77 C78 1.363 . S
C77 H89 0.929 . S
C78 C77 1.363 . S
C78 N80 1.375 . S
C78 H96 0.931 . S
C79 N76 1.311 . S
C79 N80 1.347 . S
C79 H90 0.929 . S
N80 C78 1.375 . S
N80 C79 1.347 . S
C81 C84 1.365 . S
C81 N86 1.328 . S
C81 H87 0.929 . S
C82 C83 1.362 . S
C82 C85 1.378 . S
C82 H97 0.929 . S
C83 C82 1.362 . S
C83 C84 1.366 . S
C84 C81 1.365 . S
C84 C83 1.366 . S
C84 H98 0.930 . S
C85 C82 1.378 . S
C85 N86 1.315 . S
C85 H88 0.930 . S
N86 Co66 2.194 . S
N86 C81 1.328 . S
N86 C85 1.315 . S
H87 C81 0.929 . S
H88 C85 0.930 . S
H89 C77 0.929 . S
H90 C79 0.929 . S
O91 Co66 2.351 . S
O91 C94 1.244 . S
O92 Co66 2.155 . S
O92 C94 1.240 . S
O93 Co66 2.096 . S
O93 C74 1.247 . S
C94 O91 1.244 . S
C94 O92 1.240 . S
H95 C69 0.931 . S
H96 C78 0.931 . S
H97 C82 0.929 . S
H98 C84 0.930 . S
Co99 N103 2.148 . S
Co99 N109 2.128 . S
Co99 N119 2.194 . S
Co99 O124 2.351 . S
Co99 O125 2.155 . S
Co99 O126 2.096 . S
C100 N103 1.301 . S
C100 N104 1.328 . S
C100 H105 0.930 . S
C101 C102 1.333 . S
C101 N103 1.317 . S
C101 H106 0.930 . S
C102 C101 1.333 . S
C102 N104 1.350 . S
C102 H128 0.931 . S
N103 Co99 2.148 . S
N103 C100 1.301 . S
N103 C101 1.317 . S
N104 C100 1.328 . S
N104 C102 1.350 . S
H105 C100 0.930 . S
H106 C101 0.930 . S
C107 O108 1.224 . S
C107 O126 1.247 . S
O108 C107 1.224 . S
N109 Co99 2.128 . S
N109 C110 1.355 . S
N109 C112 1.311 . S
C110 N109 1.355 . S
C110 C111 1.363 . S
C110 H122 0.929 . S
C111 C110 1.363 . S
C111 N113 1.375 . S
C111 H129 0.931 . S
C112 N109 1.311 . S
C112 N113 1.347 . S
C112 H123 0.929 . S
N113 C111 1.375 . S
N113 C112 1.347 . S
C114 C117 1.365 . S
C114 N119 1.328 . S
C114 H120 0.929 . S
C115 C116 1.362 . S
C115 C118 1.378 . S
C115 H130 0.929 . S
C116 C115 1.362 . S
C116 C117 1.366 . S
C117 C114 1.365 . S
C117 C116 1.366 . S
C117 H131 0.930 . S
C118 C115 1.378 . S
C118 N119 1.315 . S
C118 H121 0.930 . S
N119 Co99 2.194 . S
N119 C114 1.328 . S
N119 C118 1.315 . S
H120 C114 0.929 . S
H121 C118 0.930 . S
H122 C110 0.929 . S
H123 C112 0.929 . S
O124 Co99 2.351 . S
O124 C127 1.244 . S
O125 Co99 2.155 . S
O125 C127 1.240 . S
O126 Co99 2.096 . S
O126 C107 1.247 . S
C127 O124 1.244 . S
C127 O125 1.240 . S
H128 C102 0.931 . S
H129 C111 0.931 . S
H130 C115 0.929 . S
H131 C117 0.930 . S
Co132 N136 2.148 . S
Co132 N142 2.128 . S
Co132 N152 2.194 . S
Co132 O157 2.351 . S
Co132 O158 2.155 . S
Co132 O159 2.096 . S
C133 N136 1.301 . S
C133 N137 1.328 . S
C133 H138 0.930 . S
C134 C135 1.333 . S
C134 N136 1.317 . S
C134 H139 0.930 . S
C135 C134 1.333 . S
C135 N137 1.350 . S
C135 H161 0.931 . S
N136 Co132 2.148 . S
N136 C133 1.301 . S
N136 C134 1.317 . S
N137 C133 1.328 . S
N137 C135 1.350 . S
H138 C133 0.930 . S
H139 C134 0.930 . S
C140 O141 1.224 . S
C140 O159 1.247 . S
O141 C140 1.224 . S
N142 Co132 2.128 . S
N142 C143 1.355 . S
N142 C145 1.311 . S
C143 N142 1.355 . S
C143 C144 1.363 . S
C143 H155 0.929 . S
C144 C143 1.363 . S
C144 N146 1.375 . S
C144 H162 0.931 . S
C145 N142 1.311 . S
C145 N146 1.347 . S
C145 H156 0.929 . S
N146 C144 1.375 . S
N146 C145 1.347 . S
C147 C150 1.365 . S
C147 N152 1.328 . S
C147 H153 0.929 . S
C148 C149 1.362 . S
C148 C151 1.378 . S
C148 H163 0.929 . S
C149 C148 1.362 . S
C149 C150 1.366 . S
C150 C147 1.365 . S
C150 C149 1.366 . S
C150 H164 0.930 . S
C151 C148 1.378 . S
C151 N152 1.315 . S
C151 H154 0.930 . S
N152 Co132 2.194 . S
N152 C147 1.328 . S
N152 C151 1.315 . S
H153 C147 0.929 . S
H154 C151 0.930 . S
H155 C143 0.929 . S
H156 C145 0.929 . S
O157 Co132 2.351 . S
O157 C160 1.244 . S
O158 Co132 2.155 . S
O158 C160 1.240 . S
O159 Co132 2.096 . S
O159 C140 1.247 . S
C160 O157 1.244 . S
C160 O158 1.240 . S
H161 C135 0.931 . S
H162 C144 0.931 . S
H163 C148 0.929 . S
H164 C150 0.930 . S
Co165 N169 2.148 . S
Co165 N175 2.128 . S
Co165 N185 2.194 . S
Co165 O190 2.351 . S
Co165 O191 2.155 . S
Co165 O192 2.096 . S
C166 N169 1.301 . S
C166 N170 1.328 . S
C166 H171 0.930 . S
C167 C168 1.333 . S
C167 N169 1.317 . S
C167 H172 0.930 . S
C168 C167 1.333 . S
C168 N170 1.350 . S
C168 H194 0.931 . S
N169 Co165 2.148 . S
N169 C166 1.301 . S
N169 C167 1.317 . S
N170 C166 1.328 . S
N170 C168 1.350 . S
H171 C166 0.930 . S
H172 C167 0.930 . S
C173 O174 1.224 . S
C173 O192 1.247 . S
O174 C173 1.224 . S
N175 Co165 2.128 . S
N175 C176 1.355 . S
N175 C178 1.311 . S
C176 N175 1.355 . S
C176 C177 1.363 . S
C176 H188 0.929 . S
C177 C176 1.363 . S
C177 N179 1.375 . S
C177 H195 0.931 . S
C178 N175 1.311 . S
C178 N179 1.347 . S
C178 H189 0.929 . S
N179 C177 1.375 . S
N179 C178 1.347 . S
C180 C183 1.365 . S
C180 N185 1.328 . S
C180 H186 0.929 . S
C181 C182 1.362 . S
C181 C184 1.378 . S
C181 H196 0.929 . S
C182 C181 1.362 . S
C182 C183 1.366 . S
C183 C180 1.365 . S
C183 C182 1.366 . S
C183 H197 0.930 . S
C184 C181 1.378 . S
C184 N185 1.315 . S
C184 H187 0.930 . S
N185 Co165 2.194 . S
N185 C180 1.328 . S
N185 C184 1.315 . S
H186 C180 0.929 . S
H187 C184 0.930 . S
H188 C176 0.929 . S
H189 C178 0.929 . S
O190 Co165 2.351 . S
O190 C193 1.244 . S
O191 Co165 2.155 . S
O191 C193 1.240 . S
O192 Co165 2.096 . S
O192 C173 1.247 . S
C193 O190 1.244 . S
C193 O191 1.240 . S
H194 C168 0.931 . S
H195 C177 0.931 . S
H196 C181 0.929 . S
H197 C183 0.930 . S
Co198 N202 2.148 . S
Co198 N208 2.128 . S
Co198 N218 2.194 . S
Co198 O223 2.351 . S
Co198 O224 2.155 . S
Co198 O225 2.096 . S
C199 N202 1.301 . S
C199 N203 1.328 . S
C199 H204 0.930 . S
C200 C201 1.333 . S
C200 N202 1.317 . S
C200 H205 0.930 . S
C201 C200 1.333 . S
C201 N203 1.350 . S
C201 H227 0.931 . S
N202 Co198 2.148 . S
N202 C199 1.301 . S
N202 C200 1.317 . S
N203 C199 1.328 . S
N203 C201 1.350 . S
H204 C199 0.930 . S
H205 C200 0.930 . S
C206 O207 1.224 . S
C206 O225 1.247 . S
O207 C206 1.224 . S
N208 Co198 2.128 . S
N208 C209 1.355 . S
N208 C211 1.311 . S
C209 N208 1.355 . S
C209 C210 1.363 . S
C209 H221 0.929 . S
C210 C209 1.363 . S
C210 N212 1.375 . S
C210 H228 0.931 . S
C211 N208 1.311 . S
C211 N212 1.347 . S
C211 H222 0.929 . S
N212 C210 1.375 . S
N212 C211 1.347 . S
C213 C216 1.365 . S
C213 N218 1.328 . S
C213 H219 0.929 . S
C214 C215 1.362 . S
C214 C217 1.378 . S
C214 H229 0.929 . S
C215 C214 1.362 . S
C215 C216 1.366 . S
C216 C213 1.365 . S
C216 C215 1.366 . S
C216 H230 0.930 . S
C217 C214 1.378 . S
C217 N218 1.315 . S
C217 H220 0.930 . S
N218 Co198 2.194 . S
N218 C213 1.328 . S
N218 C217 1.315 . S
H219 C213 0.929 . S
H220 C217 0.930 . S
H221 C209 0.929 . S
H222 C211 0.929 . S
O223 Co198 2.351 . S
O223 C226 1.244 . S
O224 Co198 2.155 . S
O224 C226 1.240 . S
O225 Co198 2.096 . S
O225 C206 1.247 . S
C226 O223 1.244 . S
C226 O224 1.240 . S
H227 C201 0.931 . S
H228 C210 0.931 . S
H229 C214 0.929 . S
H230 C216 0.930 . S
Co231 N235 2.148 . S
Co231 N241 2.128 . S
Co231 N251 2.194 . S
Co231 O256 2.351 . S
Co231 O257 2.155 . S
Co231 O258 2.096 . S
C232 N235 1.301 . S
C232 N236 1.328 . S
C232 H237 0.930 . S
C233 C234 1.333 . S
C233 N235 1.317 . S
C233 H238 0.930 . S
C234 C233 1.333 . S
C234 N236 1.350 . S
C234 H260 0.931 . S
N235 Co231 2.148 . S
N235 C232 1.301 . S
N235 C233 1.317 . S
N236 C232 1.328 . S
N236 C234 1.350 . S
H237 C232 0.930 . S
H238 C233 0.930 . S
C239 O240 1.224 . S
C239 O258 1.247 . S
O240 C239 1.224 . S
N241 Co231 2.128 . S
N241 C242 1.355 . S
N241 C244 1.311 . S
C242 N241 1.355 . S
C242 C243 1.363 . S
C242 H254 0.929 . S
C243 C242 1.363 . S
C243 N245 1.375 . S
C243 H261 0.931 . S
C244 N241 1.311 . S
C244 N245 1.347 . S
C244 H255 0.929 . S
N245 C243 1.375 . S
N245 C244 1.347 . S
C246 C249 1.365 . S
C246 N251 1.328 . S
C246 H252 0.929 . S
C247 C248 1.362 . S
C247 C250 1.378 . S
C247 H262 0.929 . S
C248 C247 1.362 . S
C248 C249 1.366 . S
C249 C246 1.365 . S
C249 C248 1.366 . S
C249 H263 0.930 . S
C250 C247 1.378 . S
C250 N251 1.315 . S
C250 H253 0.930 . S
N251 Co231 2.194 . S
N251 C246 1.328 . S
N251 C250 1.315 . S
H252 C246 0.929 . S
H253 C250 0.930 . S
H254 C242 0.929 . S
H255 C244 0.929 . S
O256 Co231 2.351 . S
O256 C259 1.244 . S
O257 Co231 2.155 . S
O257 C259 1.240 . S
O258 Co231 2.096 . S
O258 C239 1.247 . S
C259 O256 1.244 . S
C259 O257 1.240 . S
H260 C234 0.931 . S
H261 C243 0.931 . S
H262 C247 0.929 . S
H263 C249 0.930 . S
Co264 N268 2.148 . S
Co264 N274 2.128 . S
Co264 N284 2.194 . S
Co264 O289 2.351 . S
Co264 O290 2.155 . S
Co264 O291 2.096 . S
C265 N268 1.301 . S
C265 N269 1.328 . S
C265 H270 0.930 . S
C266 C267 1.333 . S
C266 N268 1.317 . S
C266 H271 0.930 . S
C267 C266 1.333 . S
C267 N269 1.350 . S
C267 H293 0.931 . S
N268 Co264 2.148 . S
N268 C265 1.301 . S
N268 C266 1.317 . S
N269 C265 1.328 . S
N269 C267 1.350 . S
H270 C265 0.930 . S
H271 C266 0.930 . S
C272 O273 1.224 . S
C272 O291 1.247 . S
O273 C272 1.224 . S
N274 Co264 2.128 . S
N274 C275 1.355 . S
N274 C277 1.311 . S
C275 N274 1.355 . S
C275 C276 1.363 . S
C275 H287 0.929 . S
C276 C275 1.363 . S
C276 N278 1.375 . S
C276 H294 0.931 . S
C277 N274 1.311 . S
C277 N278 1.347 . S
C277 H288 0.929 . S
N278 C276 1.375 . S
N278 C277 1.347 . S
C279 C282 1.365 . S
C279 N284 1.328 . S
C279 H285 0.929 . S
C280 C281 1.362 . S
C280 C283 1.378 . S
C280 H295 0.929 . S
C281 C280 1.362 . S
C281 C282 1.366 . S
C282 C279 1.365 . S
C282 C281 1.366 . S
C282 H296 0.930 . S
C283 C280 1.378 . S
C283 N284 1.315 . S
C283 H286 0.930 . S
N284 Co264 2.194 . S
N284 C279 1.328 . S
N284 C283 1.315 . S
H285 C279 0.929 . S
H286 C283 0.930 . S
H287 C275 0.929 . S
H288 C277 0.929 . S
O289 Co264 2.351 . S
O289 C292 1.244 . S
O290 Co264 2.155 . S
O290 C292 1.240 . S
O291 Co264 2.096 . S
O291 C272 1.247 . S
C292 O289 1.244 . S
C292 O290 1.240 . S
H293 C267 0.931 . S
H294 C276 0.931 . S
H295 C280 0.929 . S
H296 C282 0.930 . S
Co297 N301 2.148 . S
Co297 N307 2.128 . S
Co297 N317 2.194 . S
Co297 O322 2.351 . S
Co297 O323 2.155 . S
Co297 O324 2.096 . S
C298 N301 1.301 . S
C298 N302 1.328 . S
C298 H303 0.930 . S
C299 C300 1.333 . S
C299 N301 1.317 . S
C299 H304 0.930 . S
C300 C299 1.333 . S
C300 N302 1.350 . S
C300 H326 0.931 . S
N301 Co297 2.148 . S
N301 C298 1.301 . S
N301 C299 1.317 . S
N302 C298 1.328 . S
N302 C300 1.350 . S
H303 C298 0.930 . S
H304 C299 0.930 . S
C305 O306 1.224 . S
C305 O324 1.247 . S
O306 C305 1.224 . S
N307 Co297 2.128 . S
N307 C308 1.355 . S
N307 C310 1.311 . S
C308 N307 1.355 . S
C308 C309 1.363 . S
C308 H320 0.929 . S
C309 C308 1.363 . S
C309 N311 1.375 . S
C309 H327 0.931 . S
C310 N307 1.311 . S
C310 N311 1.347 . S
C310 H321 0.929 . S
N311 C309 1.375 . S
N311 C310 1.347 . S
C312 C315 1.365 . S
C312 N317 1.328 . S
C312 H318 0.929 . S
C313 C314 1.362 . S
C313 C316 1.378 . S
C313 H328 0.929 . S
C314 C313 1.362 . S
C314 C315 1.366 . S
C315 C312 1.365 . S
C315 C314 1.366 . S
C315 H329 0.930 . S
C316 C313 1.378 . S
C316 N317 1.315 . S
C316 H319 0.930 . S
N317 Co297 2.194 . S
N317 C312 1.328 . S
N317 C316 1.315 . S
H318 C312 0.929 . S
H319 C316 0.930 . S
H320 C308 0.929 . S
H321 C310 0.929 . S
O322 Co297 2.351 . S
O322 C325 1.244 . S
O323 Co297 2.155 . S
O323 C325 1.240 . S
O324 Co297 2.096 . S
O324 C305 1.247 . S
C325 O322 1.244 . S
C325 O323 1.240 . S
H326 C300 0.931 . S
H327 C309 0.931 . S
H328 C313 0.929 . S
H329 C315 0.930 . S
Co330 N334 2.148 . S
Co330 N340 2.128 . S
Co330 N350 2.194 . S
Co330 O355 2.351 . S
Co330 O356 2.155 . S
Co330 O357 2.096 . S
C331 N334 1.301 . S
C331 N335 1.328 . S
C331 H336 0.930 . S
C332 C333 1.333 . S
C332 N334 1.317 . S
C332 H337 0.930 . S
C333 C332 1.333 . S
C333 N335 1.350 . S
C333 H359 0.931 . S
N334 Co330 2.148 . S
N334 C331 1.301 . S
N334 C332 1.317 . S
N335 C331 1.328 . S
N335 C333 1.350 . S
H336 C331 0.930 . S
H337 C332 0.930 . S
C338 O339 1.224 . S
C338 O357 1.247 . S
O339 C338 1.224 . S
N340 Co330 2.128 . S
N340 C341 1.355 . S
N340 C343 1.311 . S
C341 N340 1.355 . S
C341 C342 1.363 . S
C341 H353 0.929 . S
C342 C341 1.363 . S
C342 N344 1.375 . S
C342 H360 0.931 . S
C343 N340 1.311 . S
C343 N344 1.347 . S
C343 H354 0.929 . S
N344 C342 1.375 . S
N344 C343 1.347 . S
C345 C348 1.365 . S
C345 N350 1.328 . S
C345 H351 0.929 . S
C346 C347 1.362 . S
C346 C349 1.378 . S
C346 H361 0.929 . S
C347 C346 1.362 . S
C347 C348 1.366 . S
C348 C345 1.365 . S
C348 C347 1.366 . S
C348 H362 0.930 . S
C349 C346 1.378 . S
C349 N350 1.315 . S
C349 H352 0.930 . S
N350 Co330 2.194 . S
N350 C345 1.328 . S
N350 C349 1.315 . S
H351 C345 0.929 . S
H352 C349 0.930 . S
H353 C341 0.929 . S
H354 C343 0.929 . S
O355 Co330 2.351 . S
O355 C358 1.244 . S
O356 Co330 2.155 . S
O356 C358 1.240 . S
O357 Co330 2.096 . S
O357 C338 1.247 . S
C358 O355 1.244 . S
C358 O356 1.240 . S
H359 C333 0.931 . S
H360 C342 0.931 . S
H361 C346 0.929 . S
H362 C348 0.930 . S
Co363 N367 2.148 . S
Co363 N373 2.128 . S
Co363 N383 2.194 . S
Co363 O388 2.351 . S
Co363 O389 2.155 . S
Co363 O390 2.096 . S
C364 N367 1.301 . S
C364 N368 1.328 . S
C364 H369 0.930 . S
C365 C366 1.333 . S
C365 N367 1.317 . S
C365 H370 0.930 . S
C366 C365 1.333 . S
C366 N368 1.350 . S
C366 H392 0.931 . S
N367 Co363 2.148 . S
N367 C364 1.301 . S
N367 C365 1.317 . S
N368 C364 1.328 . S
N368 C366 1.350 . S
H369 C364 0.930 . S
H370 C365 0.930 . S
C371 O372 1.224 . S
C371 O390 1.247 . S
O372 C371 1.224 . S
N373 Co363 2.128 . S
N373 C374 1.355 . S
N373 C376 1.311 . S
C374 N373 1.355 . S
C374 C375 1.363 . S
C374 H386 0.929 . S
C375 C374 1.363 . S
C375 N377 1.375 . S
C375 H393 0.931 . S
C376 N373 1.311 . S
C376 N377 1.347 . S
C376 H387 0.929 . S
N377 C375 1.375 . S
N377 C376 1.347 . S
C378 C381 1.365 . S
C378 N383 1.328 . S
C378 H384 0.929 . S
C379 C380 1.362 . S
C379 C382 1.378 . S
C379 H394 0.929 . S
C380 C379 1.362 . S
C380 C381 1.366 . S
C381 C378 1.365 . S
C381 C380 1.366 . S
C381 H395 0.930 . S
C382 C379 1.378 . S
C382 N383 1.315 . S
C382 H385 0.930 . S
N383 Co363 2.194 . S
N383 C378 1.328 . S
N383 C382 1.315 . S
H384 C378 0.929 . S
H385 C382 0.930 . S
H386 C374 0.929 . S
H387 C376 0.929 . S
O388 Co363 2.351 . S
O388 C391 1.244 . S
O389 Co363 2.155 . S
O389 C391 1.240 . S
O390 Co363 2.096 . S
O390 C371 1.247 . S
C391 O388 1.244 . S
C391 O389 1.240 . S
H392 C366 0.931 . S
H393 C375 0.931 . S
H394 C379 0.929 . S
H395 C381 0.930 . S
Co396 N400 2.148 . S
Co396 N406 2.128 . S
Co396 N416 2.194 . S
Co396 O421 2.351 . S
Co396 O422 2.155 . S
Co396 O423 2.096 . S
C397 N400 1.301 . S
C397 N401 1.328 . S
C397 H402 0.930 . S
C398 C399 1.333 . S
C398 N400 1.317 . S
C398 H403 0.930 . S
C399 C398 1.333 . S
C399 N401 1.350 . S
C399 H425 0.931 . S
N400 Co396 2.148 . S
N400 C397 1.301 . S
N400 C398 1.317 . S
N401 C397 1.328 . S
N401 C399 1.350 . S
H402 C397 0.930 . S
H403 C398 0.930 . S
C404 O405 1.224 . S
C404 O423 1.247 . S
O405 C404 1.224 . S
N406 Co396 2.128 . S
N406 C407 1.355 . S
N406 C409 1.311 . S
C407 N406 1.355 . S
C407 C408 1.363 . S
C407 H419 0.929 . S
C408 C407 1.363 . S
C408 N410 1.375 . S
C408 H426 0.931 . S
C409 N406 1.311 . S
C409 N410 1.347 . S
C409 H420 0.929 . S
N410 C408 1.375 . S
N410 C409 1.347 . S
C411 C414 1.365 . S
C411 N416 1.328 . S
C411 H417 0.929 . S
C412 C413 1.362 . S
C412 C415 1.378 . S
C412 H427 0.929 . S
C413 C412 1.362 . S
C413 C414 1.366 . S
C414 C411 1.365 . S
C414 C413 1.366 . S
C414 H428 0.930 . S
C415 C412 1.378 . S
C415 N416 1.315 . S
C415 H418 0.930 . S
N416 Co396 2.194 . S
N416 C411 1.328 . S
N416 C415 1.315 . S
H417 C411 0.929 . S
H418 C415 0.930 . S
H419 C407 0.929 . S
H420 C409 0.929 . S
O421 Co396 2.351 . S
O421 C424 1.244 . S
O422 Co396 2.155 . S
O422 C424 1.240 . S
O423 Co396 2.096 . S
O423 C404 1.247 . S
C424 O421 1.244 . S
C424 O422 1.240 . S
H425 C399 0.931 . S
H426 C408 0.931 . S
H427 C412 0.929 . S
H428 C414 0.930 . S
Co429 N433 2.148 . S
Co429 N439 2.128 . S
Co429 N449 2.194 . S
Co429 O454 2.351 . S
Co429 O455 2.155 . S
Co429 O456 2.096 . S
C430 N433 1.301 . S
C430 N434 1.328 . S
C430 H435 0.930 . S
C431 C432 1.333 . S
C431 N433 1.317 . S
C431 H436 0.930 . S
C432 C431 1.333 . S
C432 N434 1.350 . S
C432 H458 0.931 . S
N433 Co429 2.148 . S
N433 C430 1.301 . S
N433 C431 1.317 . S
N434 C430 1.328 . S
N434 C432 1.350 . S
H435 C430 0.930 . S
H436 C431 0.930 . S
C437 O438 1.224 . S
C437 O456 1.247 . S
O438 C437 1.224 . S
N439 Co429 2.128 . S
N439 C440 1.355 . S
N439 C442 1.311 . S
C440 N439 1.355 . S
C440 C441 1.363 . S
C440 H452 0.929 . S
C441 C440 1.363 . S
C441 N443 1.375 . S
C441 H459 0.931 . S
C442 N439 1.311 . S
C442 N443 1.347 . S
C442 H453 0.929 . S
N443 C441 1.375 . S
N443 C442 1.347 . S
C444 C447 1.365 . S
C444 N449 1.328 . S
C444 H450 0.929 . S
C445 C446 1.362 . S
C445 C448 1.378 . S
C445 H460 0.929 . S
C446 C445 1.362 . S
C446 C447 1.366 . S
C447 C444 1.365 . S
C447 C446 1.366 . S
C447 H461 0.930 . S
C448 C445 1.378 . S
C448 N449 1.315 . S
C448 H451 0.930 . S
N449 Co429 2.194 . S
N449 C444 1.328 . S
N449 C448 1.315 . S
H450 C444 0.929 . S
H451 C448 0.930 . S
H452 C440 0.929 . S
H453 C442 0.929 . S
O454 Co429 2.351 . S
O454 C457 1.244 . S
O455 Co429 2.155 . S
O455 C457 1.240 . S
O456 Co429 2.096 . S
O456 C437 1.247 . S
C457 O454 1.244 . S
C457 O455 1.240 . S
H458 C432 0.931 . S
H459 C441 0.931 . S
H460 C445 0.929 . S
H461 C447 0.930 . S
Co462 N466 2.148 . S
Co462 N472 2.128 . S
Co462 N482 2.194 . S
Co462 O487 2.351 . S
Co462 O488 2.155 . S
Co462 O489 2.096 . S
C463 N466 1.301 . S
C463 N467 1.328 . S
C463 H468 0.930 . S
C464 C465 1.333 . S
C464 N466 1.317 . S
C464 H469 0.930 . S
C465 C464 1.333 . S
C465 N467 1.350 . S
C465 H491 0.931 . S
N466 Co462 2.148 . S
N466 C463 1.301 . S
N466 C464 1.317 . S
N467 C463 1.328 . S
N467 C465 1.350 . S
H468 C463 0.930 . S
H469 C464 0.930 . S
C470 O471 1.224 . S
C470 O489 1.247 . S
O471 C470 1.224 . S
N472 Co462 2.128 . S
N472 C473 1.355 . S
N472 C475 1.311 . S
C473 N472 1.355 . S
C473 C474 1.363 . S
C473 H485 0.929 . S
C474 C473 1.363 . S
C474 N476 1.375 . S
C474 H492 0.931 . S
C475 N472 1.311 . S
C475 N476 1.347 . S
C475 H486 0.929 . S
N476 C474 1.375 . S
N476 C475 1.347 . S
C477 C480 1.365 . S
C477 N482 1.328 . S
C477 H483 0.929 . S
C478 C479 1.362 . S
C478 C481 1.378 . S
C478 H493 0.929 . S
C479 C478 1.362 . S
C479 C480 1.366 . S
C480 C477 1.365 . S
C480 C479 1.366 . S
C480 H494 0.930 . S
C481 C478 1.378 . S
C481 N482 1.315 . S
C481 H484 0.930 . S
N482 Co462 2.194 . S
N482 C477 1.328 . S
N482 C481 1.315 . S
H483 C477 0.929 . S
H484 C481 0.930 . S
H485 C473 0.929 . S
H486 C475 0.929 . S
O487 Co462 2.351 . S
O487 C490 1.244 . S
O488 Co462 2.155 . S
O488 C490 1.240 . S
O489 Co462 2.096 . S
O489 C470 1.247 . S
C490 O487 1.244 . S
C490 O488 1.240 . S
H491 C465 0.931 . S
H492 C474 0.931 . S
H493 C478 0.929 . S
H494 C480 0.930 . S
Co495 N499 2.148 . S
Co495 N505 2.128 . S
Co495 N515 2.194 . S
Co495 O520 2.351 . S
Co495 O521 2.155 . S
Co495 O522 2.096 . S
C496 N499 1.301 . S
C496 N500 1.328 . S
C496 H501 0.930 . S
C497 C498 1.333 . S
C497 N499 1.317 . S
C497 H502 0.930 . S
C498 C497 1.333 . S
C498 N500 1.350 . S
C498 H524 0.931 . S
N499 Co495 2.148 . S
N499 C496 1.301 . S
N499 C497 1.317 . S
N500 C496 1.328 . S
N500 C498 1.350 . S
H501 C496 0.930 . S
H502 C497 0.930 . S
C503 O504 1.224 . S
C503 O522 1.247 . S
O504 C503 1.224 . S
N505 Co495 2.128 . S
N505 C506 1.355 . S
N505 C508 1.311 . S
C506 N505 1.355 . S
C506 C507 1.363 . S
C506 H518 0.929 . S
C507 C506 1.363 . S
C507 N509 1.375 . S
C507 H525 0.931 . S
C508 N505 1.311 . S
C508 N509 1.347 . S
C508 H519 0.929 . S
N509 C507 1.375 . S
N509 C508 1.347 . S
C510 C513 1.365 . S
C510 N515 1.328 . S
C510 H516 0.929 . S
C511 C512 1.362 . S
C511 C514 1.378 . S
C511 H526 0.929 . S
C512 C511 1.362 . S
C512 C513 1.366 . S
C513 C510 1.365 . S
C513 C512 1.366 . S
C513 H527 0.930 . S
C514 C511 1.378 . S
C514 N515 1.315 . S
C514 H517 0.930 . S
N515 Co495 2.194 . S
N515 C510 1.328 . S
N515 C514 1.315 . S
H516 C510 0.929 . S
H517 C514 0.930 . S
H518 C506 0.929 . S
H519 C508 0.929 . S
O520 Co495 2.351 . S
O520 C523 1.244 . S
O521 Co495 2.155 . S
O521 C523 1.240 . S
O522 Co495 2.096 . S
O522 C503 1.247 . S
C523 O520 1.244 . S
C523 O521 1.240 . S
H524 C498 0.931 . S
H525 C507 0.931 . S
H526 C511 0.929 . S
H527 C513 0.930 . S
Co528 N532 2.148 . S
Co528 N538 2.128 . S
Co528 N548 2.194 . S
Co528 O553 2.351 . S
Co528 O554 2.155 . S
Co528 O555 2.096 . S
C529 N532 1.301 . S
C529 N533 1.328 . S
C529 H534 0.930 . S
C530 C531 1.333 . S
C530 N532 1.317 . S
C530 H535 0.930 . S
C531 C530 1.333 . S
C531 N533 1.350 . S
C531 H557 0.931 . S
N532 Co528 2.148 . S
N532 C529 1.301 . S
N532 C530 1.317 . S
N533 C529 1.328 . S
N533 C531 1.350 . S
H534 C529 0.930 . S
H535 C530 0.930 . S
C536 O537 1.224 . S
C536 O555 1.247 . S
O537 C536 1.224 . S
N538 Co528 2.128 . S
N538 C539 1.355 . S
N538 C541 1.311 . S
C539 N538 1.355 . S
C539 C540 1.363 . S
C539 H551 0.929 . S
C540 C539 1.363 . S
C540 N542 1.375 . S
C540 H558 0.931 . S
C541 N538 1.311 . S
C541 N542 1.347 . S
C541 H552 0.929 . S
N542 C540 1.375 . S
N542 C541 1.347 . S
C543 C546 1.365 . S
C543 N548 1.328 . S
C543 H549 0.929 . S
C544 C545 1.362 . S
C544 C547 1.378 . S
C544 H559 0.929 . S
C545 C544 1.362 . S
C545 C546 1.366 . S
C546 C543 1.365 . S
C546 C545 1.366 . S
C546 H560 0.930 . S
C547 C544 1.378 . S
C547 N548 1.315 . S
C547 H550 0.930 . S
N548 Co528 2.194 . S
N548 C543 1.328 . S
N548 C547 1.315 . S
H549 C543 0.929 . S
H550 C547 0.930 . S
H551 C539 0.929 . S
H552 C541 0.929 . S
O553 Co528 2.351 . S
O553 C556 1.244 . S
O554 Co528 2.155 . S
O554 C556 1.240 . S
O555 Co528 2.096 . S
O555 C536 1.247 . S
C556 O553 1.244 . S
C556 O554 1.240 . S
H557 C531 0.931 . S
H558 C540 0.931 . S
H559 C544 0.929 . S
H560 C546 0.930 . S
Co561 N565 2.148 . S
Co561 N571 2.128 . S
Co561 N581 2.194 . S
Co561 O586 2.351 . S
Co561 O587 2.155 . S
Co561 O588 2.096 . S
C562 N565 1.301 . S
C562 N566 1.328 . S
C562 H567 0.930 . S
C563 C564 1.333 . S
C563 N565 1.317 . S
C563 H568 0.930 . S
C564 C563 1.333 . S
C564 N566 1.350 . S
C564 H590 0.931 . S
N565 Co561 2.148 . S
N565 C562 1.301 . S
N565 C563 1.317 . S
N566 C562 1.328 . S
N566 C564 1.350 . S
H567 C562 0.930 . S
H568 C563 0.930 . S
C569 O570 1.224 . S
C569 O588 1.247 . S
O570 C569 1.224 . S
N571 Co561 2.128 . S
N571 C572 1.355 . S
N571 C574 1.311 . S
C572 N571 1.355 . S
C572 C573 1.363 . S
C572 H584 0.929 . S
C573 C572 1.363 . S
C573 N575 1.375 . S
C573 H591 0.931 . S
C574 N571 1.311 . S
C574 N575 1.347 . S
C574 H585 0.929 . S
N575 C573 1.375 . S
N575 C574 1.347 . S
C576 C579 1.365 . S
C576 N581 1.328 . S
C576 H582 0.929 . S
C577 C578 1.362 . S
C577 C580 1.378 . S
C577 H592 0.929 . S
C578 C577 1.362 . S
C578 C579 1.366 . S
C579 C576 1.365 . S
C579 C578 1.366 . S
C579 H593 0.930 . S
C580 C577 1.378 . S
C580 N581 1.315 . S
C580 H583 0.930 . S
N581 Co561 2.194 . S
N581 C576 1.328 . S
N581 C580 1.315 . S
H582 C576 0.929 . S
H583 C580 0.930 . S
H584 C572 0.929 . S
H585 C574 0.929 . S
O586 Co561 2.351 . S
O586 C589 1.244 . S
O587 Co561 2.155 . S
O587 C589 1.240 . S
O588 Co561 2.096 . S
O588 C569 1.247 . S
C589 O586 1.244 . S
C589 O587 1.240 . S
H590 C564 0.931 . S
H591 C573 0.931 . S
H592 C577 0.929 . S
H593 C579 0.930 . S
Co594 N598 2.148 . S
Co594 N604 2.128 . S
Co594 N614 2.194 . S
Co594 O619 2.351 . S
Co594 O620 2.155 . S
Co594 O621 2.096 . S
C595 N598 1.301 . S
C595 N599 1.328 . S
C595 H600 0.930 . S
C596 C597 1.333 . S
C596 N598 1.317 . S
C596 H601 0.930 . S
C597 C596 1.333 . S
C597 N599 1.350 . S
C597 H623 0.931 . S
N598 Co594 2.148 . S
N598 C595 1.301 . S
N598 C596 1.317 . S
N599 C595 1.328 . S
N599 C597 1.350 . S
H600 C595 0.930 . S
H601 C596 0.930 . S
C602 O603 1.224 . S
C602 O621 1.247 . S
O603 C602 1.224 . S
N604 Co594 2.128 . S
N604 C605 1.355 . S
N604 C607 1.311 . S
C605 N604 1.355 . S
C605 C606 1.363 . S
C605 H617 0.929 . S
C606 C605 1.363 . S
C606 N608 1.375 . S
C606 H624 0.931 . S
C607 N604 1.311 . S
C607 N608 1.347 . S
C607 H618 0.929 . S
N608 C606 1.375 . S
N608 C607 1.347 . S
C609 C612 1.365 . S
C609 N614 1.328 . S
C609 H615 0.929 . S
C610 C611 1.362 . S
C610 C613 1.378 . S
C610 H625 0.929 . S
C611 C610 1.362 . S
C611 C612 1.366 . S
C612 C609 1.365 . S
C612 C611 1.366 . S
C612 H626 0.930 . S
C613 C610 1.378 . S
C613 N614 1.315 . S
C613 H616 0.930 . S
N614 Co594 2.194 . S
N614 C609 1.328 . S
N614 C613 1.315 . S
H615 C609 0.929 . S
H616 C613 0.930 . S
H617 C605 0.929 . S
H618 C607 0.929 . S
O619 Co594 2.351 . S
O619 C622 1.244 . S
O620 Co594 2.155 . S
O620 C622 1.240 . S
O621 Co594 2.096 . S
O621 C602 1.247 . S
C622 O619 1.244 . S
C622 O620 1.240 . S
H623 C597 0.931 . S
H624 C606 0.931 . S
H625 C610 0.929 . S
H626 C612 0.930 . S
Co627 N631 2.148 . S
Co627 N637 2.128 . S
Co627 N647 2.194 . S
Co627 O652 2.351 . S
Co627 O653 2.155 . S
Co627 O654 2.096 . S
C628 N631 1.301 . S
C628 N632 1.328 . S
C628 H633 0.930 . S
C629 C630 1.333 . S
C629 N631 1.317 . S
C629 H634 0.930 . S
C630 C629 1.333 . S
C630 N632 1.350 . S
C630 H656 0.931 . S
N631 Co627 2.148 . S
N631 C628 1.301 . S
N631 C629 1.317 . S
N632 C628 1.328 . S
N632 C630 1.350 . S
H633 C628 0.930 . S
H634 C629 0.930 . S
C635 O636 1.224 . S
C635 O654 1.247 . S
O636 C635 1.224 . S
N637 Co627 2.128 . S
N637 C638 1.355 . S
N637 C640 1.311 . S
C638 N637 1.355 . S
C638 C639 1.363 . S
C638 H650 0.929 . S
C639 C638 1.363 . S
C639 N641 1.375 . S
C639 H657 0.931 . S
C640 N637 1.311 . S
C640 N641 1.347 . S
C640 H651 0.929 . S
N641 C639 1.375 . S
N641 C640 1.347 . S
C642 C645 1.365 . S
C642 N647 1.328 . S
C642 H648 0.929 . S
C643 C644 1.362 . S
C643 C646 1.378 . S
C643 H658 0.929 . S
C644 C643 1.362 . S
C644 C645 1.366 . S
C645 C642 1.365 . S
C645 C644 1.366 . S
C645 H659 0.930 . S
C646 C643 1.378 . S
C646 N647 1.315 . S
C646 H649 0.930 . S
N647 Co627 2.194 . S
N647 C642 1.328 . S
N647 C646 1.315 . S
H648 C642 0.929 . S
H649 C646 0.930 . S
H650 C638 0.929 . S
H651 C640 0.929 . S
O652 Co627 2.351 . S
O652 C655 1.244 . S
O653 Co627 2.155 . S
O653 C655 1.240 . S
O654 Co627 2.096 . S
O654 C635 1.247 . S
C655 O652 1.244 . S
C655 O653 1.240 . S
H656 C630 0.931 . S
H657 C639 0.931 . S
H658 C643 0.929 . S
H659 C645 0.930 . S
Co660 N664 2.148 . S
Co660 N670 2.128 . S
Co660 N680 2.194 . S
Co660 O685 2.351 . S
Co660 O686 2.155 . S
Co660 O687 2.096 . S
C661 N664 1.301 . S
C661 N665 1.328 . S
C661 H666 0.930 . S
C662 C663 1.333 . S
C662 N664 1.317 . S
C662 H667 0.930 . S
C663 C662 1.333 . S
C663 N665 1.350 . S
C663 H689 0.931 . S
N664 Co660 2.148 . S
N664 C661 1.301 . S
N664 C662 1.317 . S
N665 C661 1.328 . S
N665 C663 1.350 . S
H666 C661 0.930 . S
H667 C662 0.930 . S
C668 O669 1.224 . S
C668 O687 1.247 . S
O669 C668 1.224 . S
N670 Co660 2.128 . S
N670 C671 1.355 . S
N670 C673 1.311 . S
C671 N670 1.355 . S
C671 C672 1.363 . S
C671 H683 0.929 . S
C672 C671 1.363 . S
C672 N674 1.375 . S
C672 H690 0.931 . S
C673 N670 1.311 . S
C673 N674 1.347 . S
C673 H684 0.929 . S
N674 C672 1.375 . S
N674 C673 1.347 . S
C675 C678 1.365 . S
C675 N680 1.328 . S
C675 H681 0.929 . S
C676 C677 1.362 . S
C676 C679 1.378 . S
C676 H691 0.929 . S
C677 C676 1.362 . S
C677 C678 1.366 . S
C678 C675 1.365 . S
C678 C677 1.366 . S
C678 H692 0.930 . S
C679 C676 1.378 . S
C679 N680 1.315 . S
C679 H682 0.930 . S
N680 Co660 2.194 . S
N680 C675 1.328 . S
N680 C679 1.315 . S
H681 C675 0.929 . S
H682 C679 0.930 . S
H683 C671 0.929 . S
H684 C673 0.929 . S
O685 Co660 2.351 . S
O685 C688 1.244 . S
O686 Co660 2.155 . S
O686 C688 1.240 . S
O687 Co660 2.096 . S
O687 C668 1.247 . S
C688 O685 1.244 . S
C688 O686 1.240 . S
H689 C663 0.931 . S
H690 C672 0.931 . S
H691 C676 0.929 . S
H692 C678 0.930 . S
Co693 N697 2.148 . S
Co693 N703 2.128 . S
Co693 N713 2.194 . S
Co693 O718 2.351 . S
Co693 O719 2.155 . S
Co693 O720 2.096 . S
C694 N697 1.301 . S
C694 N698 1.328 . S
C694 H699 0.930 . S
C695 C696 1.333 . S
C695 N697 1.317 . S
C695 H700 0.930 . S
C696 C695 1.333 . S
C696 N698 1.350 . S
C696 H722 0.931 . S
N697 Co693 2.148 . S
N697 C694 1.301 . S
N697 C695 1.317 . S
N698 C694 1.328 . S
N698 C696 1.350 . S
H699 C694 0.930 . S
H700 C695 0.930 . S
C701 O702 1.224 . S
C701 O720 1.247 . S
O702 C701 1.224 . S
N703 Co693 2.128 . S
N703 C704 1.355 . S
N703 C706 1.311 . S
C704 N703 1.355 . S
C704 C705 1.363 . S
C704 H716 0.929 . S
C705 C704 1.363 . S
C705 N707 1.375 . S
C705 H723 0.931 . S
C706 N703 1.311 . S
C706 N707 1.347 . S
C706 H717 0.929 . S
N707 C705 1.375 . S
N707 C706 1.347 . S
C708 C711 1.365 . S
C708 N713 1.328 . S
C708 H714 0.929 . S
C709 C710 1.362 . S
C709 C712 1.378 . S
C709 H724 0.929 . S
C710 C709 1.362 . S
C710 C711 1.366 . S
C711 C708 1.365 . S
C711 C710 1.366 . S
C711 H725 0.930 . S
C712 C709 1.378 . S
C712 N713 1.315 . S
C712 H715 0.930 . S
N713 Co693 2.194 . S
N713 C708 1.328 . S
N713 C712 1.315 . S
H714 C708 0.929 . S
H715 C712 0.930 . S
H716 C704 0.929 . S
H717 C706 0.929 . S
O718 Co693 2.351 . S
O718 C721 1.244 . S
O719 Co693 2.155 . S
O719 C721 1.240 . S
O720 Co693 2.096 . S
O720 C701 1.247 . S
C721 O718 1.244 . S
C721 O719 1.240 . S
H722 C696 0.931 . S
H723 C705 0.931 . S
H724 C709 0.929 . S
H725 C711 0.930 . S
Co726 N730 2.148 . S
Co726 N736 2.128 . S
Co726 N746 2.194 . S
Co726 O751 2.351 . S
Co726 O752 2.155 . S
Co726 O753 2.096 . S
C727 N730 1.301 . S
C727 N731 1.328 . S
C727 H732 0.930 . S
C728 C729 1.333 . S
C728 N730 1.317 . S
C728 H733 0.930 . S
C729 C728 1.333 . S
C729 N731 1.350 . S
C729 H755 0.931 . S
N730 Co726 2.148 . S
N730 C727 1.301 . S
N730 C728 1.317 . S
N731 C727 1.328 . S
N731 C729 1.350 . S
H732 C727 0.930 . S
H733 C728 0.930 . S
C734 O735 1.224 . S
C734 O753 1.247 . S
O735 C734 1.224 . S
N736 Co726 2.128 . S
N736 C737 1.355 . S
N736 C739 1.311 . S
C737 N736 1.355 . S
C737 C738 1.363 . S
C737 H749 0.929 . S
C738 C737 1.363 . S
C738 N740 1.375 . S
C738 H756 0.931 . S
C739 N736 1.311 . S
C739 N740 1.347 . S
C739 H750 0.929 . S
N740 C738 1.375 . S
N740 C739 1.347 . S
C741 C744 1.365 . S
C741 N746 1.328 . S
C741 H747 0.929 . S
C742 C743 1.362 . S
C742 C745 1.378 . S
C742 H757 0.929 . S
C743 C742 1.362 . S
C743 C744 1.366 . S
C744 C741 1.365 . S
C744 C743 1.366 . S
C744 H758 0.930 . S
C745 C742 1.378 . S
C745 N746 1.315 . S
C745 H748 0.930 . S
N746 Co726 2.194 . S
N746 C741 1.328 . S
N746 C745 1.315 . S
H747 C741 0.929 . S
H748 C745 0.930 . S
H749 C737 0.929 . S
H750 C739 0.929 . S
O751 Co726 2.351 . S
O751 C754 1.244 . S
O752 Co726 2.155 . S
O752 C754 1.240 . S
O753 Co726 2.096 . S
O753 C734 1.247 . S
C754 O751 1.244 . S
C754 O752 1.240 . S
H755 C729 0.931 . S
H756 C738 0.931 . S
H757 C742 0.929 . S
H758 C744 0.930 . S
Co759 N763 2.148 . S
Co759 N769 2.128 . S
Co759 N779 2.194 . S
Co759 O784 2.351 . S
Co759 O785 2.155 . S
Co759 O786 2.096 . S
C760 N763 1.301 . S
C760 N764 1.328 . S
C760 H765 0.930 . S
C761 C762 1.333 . S
C761 N763 1.317 . S
C761 H766 0.930 . S
C762 C761 1.333 . S
C762 N764 1.350 . S
C762 H788 0.931 . S
N763 Co759 2.148 . S
N763 C760 1.301 . S
N763 C761 1.317 . S
N764 C760 1.328 . S
N764 C762 1.350 . S
H765 C760 0.930 . S
H766 C761 0.930 . S
C767 O768 1.224 . S
C767 O786 1.247 . S
O768 C767 1.224 . S
N769 Co759 2.128 . S
N769 C770 1.355 . S
N769 C772 1.311 . S
C770 N769 1.355 . S
C770 C771 1.363 . S
C770 H782 0.929 . S
C771 C770 1.363 . S
C771 N773 1.375 . S
C771 H789 0.931 . S
C772 N769 1.311 . S
C772 N773 1.347 . S
C772 H783 0.929 . S
N773 C771 1.375 . S
N773 C772 1.347 . S
C774 C777 1.365 . S
C774 N779 1.328 . S
C774 H780 0.929 . S
C775 C776 1.362 . S
C775 C778 1.378 . S
C775 H790 0.929 . S
C776 C775 1.362 . S
C776 C777 1.366 . S
C777 C774 1.365 . S
C777 C776 1.366 . S
C777 H791 0.930 . S
C778 C775 1.378 . S
C778 N779 1.315 . S
C778 H781 0.930 . S
N779 Co759 2.194 . S
N779 C774 1.328 . S
N779 C778 1.315 . S
H780 C774 0.929 . S
H781 C778 0.930 . S
H782 C770 0.929 . S
H783 C772 0.929 . S
O784 Co759 2.351 . S
O784 C787 1.244 . S
O785 Co759 2.155 . S
O785 C787 1.240 . S
O786 Co759 2.096 . S
O786 C767 1.247 . S
C787 O784 1.244 . S
C787 O785 1.240 . S
H788 C762 0.931 . S
H789 C771 0.931 . S
H790 C775 0.929 . S
H791 C777 0.930 . S
C792 C793 1.363 . S
C792 C798 1.379 . S
C792 N800 1.356 . S
C793 C792 1.363 . S
C793 C799 1.363 . S
C794 C795 1.363 . S
C794 C799 1.379 . S
C794 N801 1.356 . S
C795 C794 1.363 . S
C795 C798 1.363 . S
N796 C798 1.356 . S
N796 H808 0.984 . S
N796 H809 0.985 . S
N797 C799 1.356 . S
N797 H802 0.984 . S
N797 H803 0.985 . S
C798 C792 1.379 . S
C798 C795 1.363 . S
C798 N796 1.356 . S
C799 C793 1.363 . S
C799 C794 1.379 . S
C799 N797 1.356 . S
N800 C792 1.356 . S
N800 H806 0.984 . S
N800 H807 0.984 . S
N801 C794 1.356 . S
N801 H804 0.984 . S
N801 H805 0.985 . S
H802 N797 0.984 . S
H803 N797 0.985 . S
H804 N801 0.984 . S
H805 N801 0.985 . S
H806 N800 0.984 . S
H807 N800 0.984 . S
H808 N796 0.984 . S
H809 N796 0.985 . S
C810 C811 1.363 . S
C810 C816 1.379 . S
C810 N818 1.356 . S
C811 C810 1.363 . S
C811 C817 1.363 . S
C812 C813 1.363 . S
C812 C817 1.379 . S
C812 N819 1.356 . S
C813 C812 1.363 . S
C813 C816 1.363 . S
N814 C816 1.356 . S
N814 H826 0.984 . S
N814 H827 0.985 . S
N815 C817 1.356 . S
N815 H820 0.984 . S
N815 H821 0.985 . S
C816 C810 1.379 . S
C816 C813 1.363 . S
C816 N814 1.356 . S
C817 C811 1.363 . S
C817 C812 1.379 . S
C817 N815 1.356 . S
N818 C810 1.356 . S
N818 H824 0.984 . S
N818 H825 0.984 . S
N819 C812 1.356 . S
N819 H822 0.984 . S
N819 H823 0.985 . S
H820 N815 0.984 . S
H821 N815 0.985 . S
H822 N819 0.984 . S
H823 N819 0.985 . S
H824 N818 0.984 . S
H825 N818 0.984 . S
H826 N814 0.984 . S
H827 N814 0.985 . S
C828 C829 1.363 . S
C828 C834 1.379 . S
C828 N836 1.356 . S
C829 C828 1.363 . S
C829 C835 1.363 . S
C830 C831 1.363 . S
C830 C835 1.379 . S
C830 N837 1.356 . S
C831 C830 1.363 . S
C831 C834 1.363 . S
N832 C834 1.356 . S
N832 H844 0.984 . S
N832 H845 0.985 . S
N833 C835 1.356 . S
N833 H838 0.984 . S
N833 H839 0.985 . S
C834 C828 1.379 . S
C834 C831 1.363 . S
C834 N832 1.356 . S
C835 C829 1.363 . S
C835 C830 1.379 . S
C835 N833 1.356 . S
N836 C828 1.356 . S
N836 H842 0.984 . S
N836 H843 0.984 . S
N837 C830 1.356 . S
N837 H840 0.984 . S
N837 H841 0.985 . S
H838 N833 0.984 . S
H839 N833 0.985 . S
H840 N837 0.984 . S
H841 N837 0.985 . S
H842 N836 0.984 . S
H843 N836 0.984 . S
H844 N832 0.984 . S
H845 N832 0.985 . S
C846 C847 1.363 . S
C846 C852 1.379 . S
C846 N854 1.356 . S
C847 C846 1.363 . S
C847 C853 1.363 . S
C848 C849 1.363 . S
C848 C853 1.379 . S
C848 N855 1.356 . S
C849 C848 1.363 . S
C849 C852 1.363 . S
N850 C852 1.356 . S
N850 H862 0.984 . S
N850 H863 0.985 . S
N851 C853 1.356 . S
N851 H856 0.984 . S
N851 H857 0.985 . S
C852 C846 1.379 . S
C852 C849 1.363 . S
C852 N850 1.356 . S
C853 C847 1.363 . S
C853 C848 1.379 . S
C853 N851 1.356 . S
N854 C846 1.356 . S
N854 H860 0.984 . S
N854 H861 0.984 . S
N855 C848 1.356 . S
N855 H858 0.984 . S
N855 H859 0.985 . S
H856 N851 0.984 . S
H857 N851 0.985 . S
H858 N855 0.984 . S
H859 N855 0.985 . S
H860 N854 0.984 . S
H861 N854 0.984 . S
H862 N850 0.984 . S
H863 N850 0.985 . S
C864 C865 1.363 . S
C864 C870 1.379 . S
C864 N872 1.356 . S
C865 C864 1.363 . S
C865 C871 1.363 . S
C866 C867 1.363 . S
C866 C871 1.379 . S
C866 N873 1.356 . S
C867 C866 1.363 . S
C867 C870 1.363 . S
N868 C870 1.356 . S
N868 H880 0.984 . S
N868 H881 0.985 . S
N869 C871 1.356 . S
N869 H874 0.984 . S
N869 H875 0.985 . S
C870 C864 1.379 . S
C870 C867 1.363 . S
C870 N868 1.356 . S
C871 C865 1.363 . S
C871 C866 1.379 . S
C871 N869 1.356 . S
N872 C864 1.356 . S
N872 H878 0.984 . S
N872 H879 0.984 . S
N873 C866 1.356 . S
N873 H876 0.984 . S
N873 H877 0.985 . S
H874 N869 0.984 . S
H875 N869 0.985 . S
H876 N873 0.984 . S
H877 N873 0.985 . S
H878 N872 0.984 . S
H879 N872 0.984 . S
H880 N868 0.984 . S
H881 N868 0.985 . S
C882 C883 1.363 . S
C882 C888 1.379 . S
C882 N890 1.356 . S
C883 C882 1.363 . S
C883 C889 1.363 . S
C884 C885 1.363 . S
C884 C889 1.379 . S
C884 N891 1.356 . S
C885 C884 1.363 . S
C885 C888 1.363 . S
N886 C888 1.356 . S
N886 H898 0.984 . S
N886 H899 0.985 . S
N887 C889 1.356 . S
N887 H892 0.984 . S
N887 H893 0.985 . S
C888 C882 1.379 . S
C888 C885 1.363 . S
C888 N886 1.356 . S
C889 C883 1.363 . S
C889 C884 1.379 . S
C889 N887 1.356 . S
N890 C882 1.356 . S
N890 H896 0.984 . S
N890 H897 0.984 . S
N891 C884 1.356 . S
N891 H894 0.984 . S
N891 H895 0.985 . S
H892 N887 0.984 . S
H893 N887 0.985 . S
H894 N891 0.984 . S
H895 N891 0.985 . S
H896 N890 0.984 . S
H897 N890 0.984 . S
H898 N886 0.984 . S
H899 N886 0.985 . S
C900 C901 1.363 . S
C900 C906 1.379 . S
C900 N908 1.356 . S
C901 C900 1.363 . S
C901 C907 1.363 . S
C902 C903 1.363 . S
C902 C907 1.379 . S
C902 N909 1.356 . S
C903 C902 1.363 . S
C903 C906 1.363 . S
N904 C906 1.356 . S
N904 H916 0.984 . S
N904 H917 0.985 . S
N905 C907 1.356 . S
N905 H910 0.984 . S
N905 H911 0.985 . S
C906 C900 1.379 . S
C906 C903 1.363 . S
C906 N904 1.356 . S
C907 C901 1.363 . S
C907 C902 1.379 . S
C907 N905 1.356 . S
N908 C900 1.356 . S
N908 H914 0.984 . S
N908 H915 0.984 . S
N909 C902 1.356 . S
N909 H912 0.984 . S
N909 H913 0.985 . S
H910 N905 0.984 . S
H911 N905 0.985 . S
H912 N909 0.984 . S
H913 N909 0.985 . S
H914 N908 0.984 . S
H915 N908 0.984 . S
H916 N904 0.984 . S
H917 N904 0.985 . S
C918 C919 1.363 . S
C918 C924 1.379 . S
C918 N926 1.356 . S
C919 C918 1.363 . S
C919 C925 1.363 . S
C920 C921 1.363 . S
C920 C925 1.379 . S
C920 N927 1.356 . S
C921 C920 1.363 . S
C921 C924 1.363 . S
N922 C924 1.356 . S
N922 H934 0.984 . S
N922 H935 0.985 . S
N923 C925 1.356 . S
N923 H928 0.984 . S
N923 H929 0.985 . S
C924 C918 1.379 . S
C924 C921 1.363 . S
C924 N922 1.356 . S
C925 C919 1.363 . S
C925 C920 1.379 . S
C925 N923 1.356 . S
N926 C918 1.356 . S
N926 H932 0.984 . S
N926 H933 0.984 . S
N927 C920 1.356 . S
N927 H930 0.984 . S
N927 H931 0.985 . S
H928 N923 0.984 . S
H929 N923 0.985 . S
H930 N927 0.984 . S
H931 N927 0.985 . S
H932 N926 0.984 . S
H933 N926 0.984 . S
H934 N922 0.984 . S
H935 N922 0.985 . S
C936 C937 1.363 . S
C936 C942 1.379 . S
C936 N944 1.356 . S
C937 C936 1.363 . S
C937 C943 1.363 . S
C938 C939 1.363 . S
C938 C943 1.379 . S
C938 N945 1.356 . S
C939 C938 1.363 . S
C939 C942 1.363 . S
N940 C942 1.356 . S
N940 H952 0.984 . S
N940 H953 0.985 . S
N941 C943 1.356 . S
N941 H946 0.984 . S
N941 H947 0.985 . S
C942 C936 1.379 . S
C942 C939 1.363 . S
C942 N940 1.356 . S
C943 C937 1.363 . S
C943 C938 1.379 . S
C943 N941 1.356 . S
N944 C936 1.356 . S
N944 H950 0.984 . S
N944 H951 0.984 . S
N945 C938 1.356 . S
N945 H948 0.984 . S
N945 H949 0.985 . S
H946 N941 0.984 . S
H947 N941 0.985 . S
H948 N945 0.984 . S
H949 N945 0.985 . S
H950 N944 0.984 . S
H951 N944 0.984 . S
H952 N940 0.984 . S
H953 N940 0.985 . S
C954 C955 1.363 . S
C954 C960 1.379 . S
C954 N962 1.356 . S
C955 C954 1.363 . S
C955 C961 1.363 . S
C956 C957 1.363 . S
C956 C961 1.379 . S
C956 N963 1.356 . S
C957 C956 1.363 . S
C957 C960 1.363 . S
N958 C960 1.356 . S
N958 H970 0.984 . S
N958 H971 0.985 . S
N959 C961 1.356 . S
N959 H964 0.984 . S
N959 H965 0.985 . S
C960 C954 1.379 . S
C960 C957 1.363 . S
C960 N958 1.356 . S
C961 C955 1.363 . S
C961 C956 1.379 . S
C961 N959 1.356 . S
N962 C954 1.356 . S
N962 H968 0.984 . S
N962 H969 0.984 . S
N963 C956 1.356 . S
N963 H966 0.984 . S
N963 H967 0.985 . S
H964 N959 0.984 . S
H965 N959 0.985 . S
H966 N963 0.984 . S
H967 N963 0.985 . S
H968 N962 0.984 . S
H969 N962 0.984 . S
H970 N958 0.984 . S
H971 N958 0.985 . S
C972 C973 1.363 . S
C972 C978 1.379 . S
C972 N980 1.356 . S
C973 C972 1.363 . S
C973 C979 1.363 . S
C974 C975 1.363 . S
C974 C979 1.379 . S
C974 N981 1.356 . S
C975 C974 1.363 . S
C975 C978 1.363 . S
N976 C978 1.356 . S
N976 H988 0.984 . S
N976 H989 0.985 . S
N977 C979 1.356 . S
N977 H982 0.984 . S
N977 H983 0.985 . S
C978 C972 1.379 . S
C978 C975 1.363 . S
C978 N976 1.356 . S
C979 C973 1.363 . S
C979 C974 1.379 . S
C979 N977 1.356 . S
N980 C972 1.356 . S
N980 H986 0.984 . S
N980 H987 0.984 . S
N981 C974 1.356 . S
N981 H984 0.984 . S
N981 H985 0.985 . S
H982 N977 0.984 . S
H983 N977 0.985 . S
H984 N981 0.984 . S
H985 N981 0.985 . S
H986 N980 0.984 . S
H987 N980 0.984 . S
H988 N976 0.984 . S
H989 N976 0.985 . S
C990 C991 1.363 . S
C990 C996 1.379 . S
C990 N998 1.356 . S
C991 C990 1.363 . S
C991 C997 1.363 . S
C992 C993 1.363 . S
C992 C997 1.379 . S
C992 N999 1.356 . S
C993 C992 1.363 . S
C993 C996 1.363 . S
N994 C996 1.356 . S
N994 H1006 0.984 . S
N994 H1007 0.985 . S
N995 C997 1.356 . S
N995 H1000 0.984 . S
N995 H1001 0.985 . S
C996 C990 1.379 . S
C996 C993 1.363 . S
C996 N994 1.356 . S
C997 C991 1.363 . S
C997 C992 1.379 . S
C997 N995 1.356 . S
N998 C990 1.356 . S
N998 H1004 0.984 . S
N998 H1005 0.984 . S
N999 C992 1.356 . S
N999 H1002 0.984 . S
N999 H1003 0.985 . S
H1000 N995 0.984 . S
H1001 N995 0.985 . S
H1002 N999 0.984 . S
H1003 N999 0.985 . S
H1004 N998 0.984 . S
H1005 N998 0.984 . S
H1006 N994 0.984 . S
H1007 N994 0.985 . S
C1008 C1009 1.363 1_545 S
C1008 C1014 1.379 . S
C1008 N1016 1.356 1_545 S
C1009 C1008 1.363 1_565 S
C1009 C1015 1.363 1_565 S
C1010 C1011 1.363 . S
C1010 C1015 1.379 . S
C1010 N1017 1.356 . S
C1011 C1010 1.363 . S
C1011 C1014 1.363 . S
N1012 C1014 1.356 . S
N1012 H1024 0.984 . S
N1012 H1025 0.985 . S
N1013 C1015 1.356 1_565 S
N1013 H1018 0.984 . S
N1013 H1019 0.985 . S
C1014 C1008 1.379 . S
C1014 C1011 1.363 . S
C1014 N1012 1.356 . S
C1015 C1009 1.363 1_545 S
C1015 C1010 1.379 . S
C1015 N1013 1.356 1_545 S
N1016 C1008 1.356 1_565 S
N1016 H1022 0.984 . S
N1016 H1023 0.984 . S
N1017 C1010 1.356 . S
N1017 H1020 0.984 . S
N1017 H1021 0.985 . S
H1018 N1013 0.984 . S
H1019 N1013 0.985 . S
H1020 N1017 0.984 . S
H1021 N1017 0.985 . S
H1022 N1016 0.984 . S
H1023 N1016 0.984 . S
H1024 N1012 0.984 . S
H1025 N1012 0.985 . S
C1026 C1027 1.363 . S
C1026 C1032 1.379 . S
C1026 N1034 1.356 . S
C1027 C1026 1.363 . S
C1027 C1033 1.363 . S
C1028 C1029 1.363 1_655 S
C1028 C1033 1.379 . S
C1028 N1035 1.356 1_655 S
C1029 C1028 1.363 1_455 S
C1029 C1032 1.363 1_455 S
N1030 C1032 1.356 1_455 S
N1030 H1042 0.984 . S
N1030 H1043 0.985 . S
N1031 C1033 1.356 . S
N1031 H1036 0.984 . S
N1031 H1037 0.985 . S
C1032 C1026 1.379 . S
C1032 C1029 1.363 1_655 S
C1032 N1030 1.356 1_655 S
C1033 C1027 1.363 . S
C1033 C1028 1.379 . S
C1033 N1031 1.356 . S
N1034 C1026 1.356 . S
N1034 H1040 0.984 . S
N1034 H1041 0.984 . S
N1035 C1028 1.356 1_455 S
N1035 H1038 0.984 . S
N1035 H1039 0.985 . S
H1036 N1031 0.984 . S
H1037 N1031 0.985 . S
H1038 N1035 0.984 . S
H1039 N1035 0.985 . S
H1040 N1034 0.984 . S
H1041 N1034 0.984 . S
H1042 N1030 0.984 . S
H1043 N1030 0.985 . S
C1044 C1045 1.363 . S
C1044 C1050 1.379 1_565 S
C1044 N1052 1.356 . S
C1045 C1044 1.363 . S
C1045 C1051 1.363 . S
C1046 C1047 1.363 1_565 S
C1046 C1051 1.379 . S
C1046 N1053 1.356 . S
C1047 C1046 1.363 1_545 S
C1047 C1050 1.363 . S
N1048 C1050 1.356 . S
N1048 H1060 0.984 . S
N1048 H1061 0.985 . S
N1049 C1051 1.356 . S
N1049 H1054 0.984 . S
N1049 H1055 0.985 . S
C1050 C1044 1.379 1_545 S
C1050 C1047 1.363 . S
C1050 N1048 1.356 . S
C1051 C1045 1.363 . S
C1051 C1046 1.379 . S
C1051 N1049 1.356 . S
N1052 C1044 1.356 . S
N1052 H1058 0.984 . S
N1052 H1059 0.984 . S
N1053 C1046 1.356 . S
N1053 H1056 0.984 1_565 S
N1053 H1057 0.985 . S
H1054 N1049 0.984 . S
H1055 N1049 0.985 . S
H1056 N1053 0.984 1_545 S
H1057 N1053 0.985 . S
H1058 N1052 0.984 . S
H1059 N1052 0.984 . S
H1060 N1048 0.984 . S
H1061 N1048 0.985 . S
C1062 C1063 1.371 . S
C1062 C1068 1.353 1_655 S
C1062 N1070 1.380 . S
C1063 C1062 1.371 . S
C1063 C1069 1.363 1_655 S
C1064 C1065 1.363 . S
C1064 C1069 1.379 . S
C1064 N1071 1.356 . S
C1065 C1064 1.363 . S
C1065 C1068 1.363 . S
N1066 C1068 1.356 . S
N1066 H1078 0.984 . S
N1066 H1079 0.985 . S
N1067 C1069 1.356 1_655 S
N1067 H1072 0.984 . S
N1067 H1073 0.985 1_655 S
C1068 C1062 1.353 1_455 S
C1068 C1065 1.363 . S
C1068 N1066 1.356 . S
C1069 C1063 1.363 1_455 S
C1069 C1064 1.379 . S
C1069 N1067 1.356 1_455 S
N1070 C1062 1.380 . S
N1070 H1076 0.984 . S
N1070 H1077 0.984 . S
N1071 C1064 1.356 . S
N1071 H1074 0.984 . S
N1071 H1075 0.985 . S
H1072 N1067 0.984 . S
H1073 N1067 0.985 1_455 S
H1074 N1071 0.984 . S
H1075 N1071 0.985 . S
H1076 N1070 0.984 . S
H1077 N1070 0.984 . S
H1078 N1066 0.984 . S
H1079 N1066 0.985 . S
C1080 C1081 1.363 1_565 S
C1080 C1086 1.379 . S
C1080 N1088 1.356 1_565 S
C1081 C1080 1.363 1_545 S
C1081 C1087 1.363 . S
C1082 C1083 1.363 . S
C1082 C1087 1.379 1_565 S
C1082 N1089 1.356 . S
C1083 C1082 1.363 . S
C1083 C1086 1.363 . S
N1084 C1086 1.356 . S
N1084 H1096 0.984 . S
N1084 H1097 0.985 . S
N1085 C1087 1.356 . S
N1085 H1090 0.984 . S
N1085 H1091 0.985 . S
C1086 C1080 1.379 . S
C1086 C1083 1.363 . S
C1086 N1084 1.356 . S
C1087 C1081 1.363 . S
C1087 C1082 1.379 1_545 S
C1087 N1085 1.356 . S
N1088 C1080 1.356 1_545 S
N1088 H1094 0.984 1_545 S
N1088 H1095 0.984 . S
N1089 C1082 1.356 . S
N1089 H1092 0.984 . S
N1089 H1093 0.985 . S
H1090 N1085 0.984 . S
H1091 N1085 0.985 . S
H1092 N1089 0.984 . S
H1093 N1089 0.985 . S
H1094 N1088 0.984 1_565 S
H1095 N1088 0.984 . S
H1096 N1084 0.984 . S
H1097 N1084 0.985 . S
C1098 C1099 1.363 . S
C1098 C1104 1.361 1_455 S
C1098 N1106 1.356 . S
C1099 C1098 1.363 . S
C1099 C1105 1.363 . S
C1100 C1101 1.363 1_455 S
C1100 C1105 1.379 . S
C1100 N1107 1.356 1_455 S
C1101 C1100 1.363 1_655 S
C1101 C1104 1.369 . S
N1102 C1104 1.372 . S
N1102 H1114 0.984 . S
N1102 H1115 0.985 . S
N1103 C1105 1.356 . S
N1103 H1108 0.984 . S
N1103 H1109 0.985 . S
C1104 C1098 1.361 1_655 S
C1104 C1101 1.369 . S
C1104 N1102 1.372 . S
C1105 C1099 1.363 . S
C1105 C1100 1.379 . S
C1105 N1103 1.356 . S
N1106 C1098 1.356 . S
N1106 H1112 0.984 . S
N1106 H1113 0.984 . S
N1107 C1100 1.356 1_655 S
N1107 H1110 0.984 . S
N1107 H1111 0.985 1_655 S
H1108 N1103 0.984 . S
H1109 N1103 0.985 . S
H1110 N1107 0.984 . S
H1111 N1107 0.985 1_455 S
H1112 N1106 0.984 . S
H1113 N1106 0.984 . S
H1114 N1102 0.984 . S
H1115 N1102 0.985 . S
C1116 C1117 1.365 . S
C1116 C1122 1.372 1_565 S
C1116 N1124 1.362 . S
C1117 C1116 1.365 . S
C1117 C1123 1.363 1_565 S
C1118 C1119 1.363 . S
C1118 C1123 1.379 . S
C1118 N1125 1.356 . S
C1119 C1118 1.363 . S
C1119 C1122 1.363 . S
N1120 C1122 1.356 . S
N1120 H1132 0.984 . S
N1120 H1133 0.985 . S
N1121 C1123 1.356 1_565 S
N1121 H1126 0.984 . S
N1121 H1127 0.985 1_565 S
C1122 C1116 1.372 1_545 S
C1122 C1119 1.363 . S
C1122 N1120 1.356 . S
C1123 C1117 1.363 1_545 S
C1123 C1118 1.379 . S
C1123 N1121 1.356 1_545 S
N1124 C1116 1.362 . S
N1124 H1130 0.984 . S
N1124 H1131 0.984 . S
N1125 C1118 1.356 . S
N1125 H1128 0.984 . S
N1125 H1129 0.985 . S
H1126 N1121 0.984 . S
H1127 N1121 0.985 1_545 S
H1128 N1125 0.984 . S
H1129 N1125 0.985 . S
H1130 N1124 0.984 . S
H1131 N1124 0.984 . S
H1132 N1120 0.984 . S
H1133 N1120 0.985 . S
C1134 C1135 1.363 1_655 S
C1134 C1140 1.379 . S
C1134 N1142 1.356 . S
C1135 C1134 1.363 1_455 S
C1135 C1141 1.363 . S
C1136 C1137 1.363 . S
C1136 C1141 1.379 1_655 S
C1136 N1143 1.356 . S
C1137 C1136 1.363 . S
C1137 C1140 1.363 . S
N1138 C1140 1.356 . S
N1138 H1150 0.984 . S
N1138 H1151 0.985 . S
N1139 C1141 1.356 . S
N1139 H1144 0.984 . S
N1139 H1145 0.985 . S
C1140 C1134 1.379 . S
C1140 C1137 1.363 . S
C1140 N1138 1.356 . S
C1141 C1135 1.363 . S
C1141 C1136 1.379 1_455 S
C1141 N1139 1.356 . S
N1142 C1134 1.356 . S
N1142 H1148 0.984 . S
N1142 H1149 0.984 1_655 S
N1143 C1136 1.356 . S
N1143 H1146 0.984 . S
N1143 H1147 0.985 . S
H1144 N1139 0.984 . S
H1145 N1139 0.985 . S
H1146 N1143 0.984 . S
H1147 N1143 0.985 . S
H1148 N1142 0.984 . S
H1149 N1142 0.984 1_455 S
H1150 N1138 0.984 . S
H1151 N1138 0.985 . S
C1152 C1153 1.363 1_554 S
C1152 C1158 1.379 . S
C1152 N1160 1.356 1_554 S
C1153 C1152 1.363 1_556 S
C1153 C1159 1.363 . S
C1154 C1155 1.363 . S
C1154 C1159 1.379 1_554 S
C1154 N1161 1.356 . S
C1155 C1154 1.363 . S
C1155 C1158 1.363 . S
N1156 C1158 1.356 . S
N1156 H1168 0.984 . S
N1156 H1169 0.985 . S
N1157 C1159 1.356 . S
N1157 H1162 0.984 . S
N1157 H1163 0.985 . S
C1158 C1152 1.379 . S
C1158 C1155 1.363 . S
C1158 N1156 1.356 . S
C1159 C1153 1.363 . S
C1159 C1154 1.379 1_556 S
C1159 N1157 1.356 . S
N1160 C1152 1.356 1_556 S
N1160 H1166 0.984 1_556 S
N1160 H1167 0.984 . S
N1161 C1154 1.356 . S
N1161 H1164 0.984 . S
N1161 H1165 0.985 . S
H1162 N1157 0.984 . S
H1163 N1157 0.985 . S
H1164 N1161 0.984 . S
H1165 N1161 0.985 . S
H1166 N1160 0.984 1_554 S
H1167 N1160 0.984 . S
H1168 N1156 0.984 . S
H1169 N1156 0.985 . S
C1170 C1171 1.363 . S
C1170 C1176 1.379 1_554 S
C1170 N1178 1.356 . S
C1171 C1170 1.363 . S
C1171 C1177 1.363 . S
C1172 C1173 1.363 1_554 S
C1172 C1177 1.379 . S
C1172 N1179 1.361 . S
C1173 C1172 1.363 1_556 S
C1173 C1176 1.363 . S
N1174 C1176 1.356 . S
N1174 H1186 0.984 . S
N1174 H1187 0.985 . S
N1175 C1177 1.356 . S
N1175 H1180 0.984 . S
N1175 H1181 0.985 . S
C1176 C1170 1.379 1_556 S
C1176 C1173 1.363 . S
C1176 N1174 1.356 . S
C1177 C1171 1.363 . S
C1177 C1172 1.379 . S
C1177 N1175 1.356 . S
N1178 C1170 1.356 . S
N1178 H1184 0.984 . S
N1178 H1185 0.984 . S
N1179 C1172 1.361 . S
N1179 H1182 0.974 1_554 S
N1179 H1183 0.990 . S
H1180 N1175 0.984 . S
H1181 N1175 0.985 . S
H1182 N1179 0.974 1_556 S
H1183 N1179 0.990 . S
H1184 N1178 0.984 . S
H1185 N1178 0.984 . S
H1186 N1174 0.984 . S
H1187 N1174 0.985 . S
C1188 C1189 1.363 1_554 S
C1188 C1194 1.379 . S
C1188 N1196 1.356 1_554 S
C1189 C1188 1.363 1_556 S
C1189 C1195 1.363 . S
C1190 C1191 1.363 . S
C1190 C1195 1.379 1_554 S
C1190 N1197 1.356 . S
C1191 C1190 1.363 . S
C1191 C1194 1.363 . S
N1192 C1194 1.356 . S
N1192 H1204 0.984 . S
N1192 H1205 0.985 . S
N1193 C1195 1.356 . S
N1193 H1198 0.984 . S
N1193 H1199 0.985 . S
C1194 C1188 1.379 . S
C1194 C1191 1.363 . S
C1194 N1192 1.356 . S
C1195 C1189 1.363 . S
C1195 C1190 1.379 1_556 S
C1195 N1193 1.356 . S
N1196 C1188 1.356 1_556 S
N1196 H1202 0.984 1_556 S
N1196 H1203 0.984 . S
N1197 C1190 1.356 . S
N1197 H1200 0.984 . S
N1197 H1201 0.985 . S
H1198 N1193 0.984 . S
H1199 N1193 0.985 . S
H1200 N1197 0.984 . S
H1201 N1197 0.985 . S
H1202 N1196 0.984 1_554 S
H1203 N1196 0.984 . S
H1204 N1192 0.984 . S
H1205 N1192 0.985 . S
C1206 C1207 1.363 . S
C1206 C1212 1.379 . S
C1206 N1214 1.356 . S
C1207 C1206 1.363 . S
C1207 C1213 1.363 . S
C1208 C1209 1.363 . S
C1208 C1213 1.379 1_556 S
C1208 N1215 1.356 . S
C1209 C1208 1.363 . S
C1209 C1212 1.363 1_556 S
N1210 C1212 1.347 1_556 S
N1210 H1222 0.974 1_556 S
N1210 H1223 1.004 . S
N1211 C1213 1.356 . S
N1211 H1216 0.984 . S
N1211 H1217 0.985 . S
C1212 C1206 1.379 . S
C1212 C1209 1.363 1_554 S
C1212 N1210 1.347 1_554 S
C1213 C1207 1.363 . S
C1213 C1208 1.379 1_554 S
C1213 N1211 1.356 . S
N1214 C1206 1.356 . S
N1214 H1220 0.984 . S
N1214 H1221 0.984 . S
N1215 C1208 1.356 . S
N1215 H1218 0.984 . S
N1215 H1219 0.985 . S
H1216 N1211 0.984 . S
H1217 N1211 0.985 . S
H1218 N1215 0.984 . S
H1219 N1215 0.985 . S
H1220 N1214 0.984 . S
H1221 N1214 0.984 . S
H1222 N1210 0.974 1_554 S
H1223 N1210 1.004 . S
C1224 C1225 1.363 1_556 S
C1224 C1230 1.379 . S
C1224 N1232 1.356 1_556 S
C1225 C1224 1.363 1_554 S
C1225 C1231 1.363 . S
C1226 C1227 1.363 . S
C1226 C1231 1.379 1_556 S
C1226 N1233 1.356 . S
C1227 C1226 1.363 . S
C1227 C1230 1.363 . S
N1228 C1230 1.356 . S
N1228 H1240 0.984 . S
N1228 H1241 0.985 . S
N1229 C1231 1.356 . S
N1229 H1234 0.984 . S
N1229 H1235 0.985 . S
C1230 C1224 1.379 . S
C1230 C1227 1.363 . S
C1230 N1228 1.356 . S
C1231 C1225 1.363 . S
C1231 C1226 1.379 1_554 S
C1231 N1229 1.356 . S
N1232 C1224 1.356 1_554 S
N1232 H1238 0.984 1_554 S
N1232 H1239 0.984 . S
N1233 C1226 1.356 . S
N1233 H1236 0.984 . S
N1233 H1237 0.985 . S
H1234 N1229 0.984 . S
H1235 N1229 0.985 . S
H1236 N1233 0.984 . S
H1237 N1233 0.985 . S
H1238 N1232 0.984 1_556 S
H1239 N1232 0.984 . S
H1240 N1228 0.984 . S
H1241 N1228 0.985 . S
C1242 C1243 1.363 . S
C1242 C1248 1.379 1_556 S
C1242 N1250 1.356 . S
C1243 C1242 1.363 . S
C1243 C1249 1.363 . S
C1244 C1245 1.363 1_556 S
C1244 C1249 1.379 . S
C1244 N1251 1.364 . S
C1245 C1244 1.363 1_554 S
C1245 C1248 1.363 . S
N1246 C1248 1.356 . S
N1246 H1258 0.984 . S
N1246 H1259 0.985 . S
N1247 C1249 1.356 . S
N1247 H1252 0.984 . S
N1247 H1253 0.985 . S
C1248 C1242 1.379 1_554 S
C1248 C1245 1.363 . S
C1248 N1246 1.356 . S
C1249 C1243 1.363 . S
C1249 C1244 1.379 . S
C1249 N1247 1.356 . S
N1250 C1242 1.356 . S
N1250 H1256 0.984 . S
N1250 H1257 0.984 . S
N1251 C1244 1.364 . S
N1251 H1254 0.968 1_556 S
N1251 H1255 0.994 . S
H1252 N1247 0.984 . S
H1253 N1247 0.985 . S
H1254 N1251 0.968 1_554 S
H1255 N1251 0.994 . S
H1256 N1250 0.984 . S
H1257 N1250 0.984 . S
H1258 N1246 0.984 . S
H1259 N1246 0.985 . S
C1260 C1261 1.363 . S
C1260 C1266 1.379 1_554 S
C1260 N1268 1.356 . S
C1261 C1260 1.363 . S
C1261 C1267 1.363 1_554 S
C1262 C1263 1.363 . S
C1262 C1267 1.379 . S
C1262 N1269 1.356 . S
C1263 C1262 1.363 . S
C1263 C1266 1.363 . S
N1264 C1266 1.356 . S
N1264 H1276 0.984 . S
N1264 H1277 0.985 . S
N1265 C1267 1.356 1_554 S
N1265 H1270 0.984 . S
N1265 H1271 0.985 1_554 S
C1266 C1260 1.379 1_556 S
C1266 C1263 1.363 . S
C1266 N1264 1.356 . S
C1267 C1261 1.363 1_556 S
C1267 C1262 1.379 . S
C1267 N1265 1.356 1_556 S
N1268 C1260 1.356 . S
N1268 H1274 0.984 . S
N1268 H1275 0.984 . S
N1269 C1262 1.356 . S
N1269 H1272 0.984 . S
N1269 H1273 0.985 . S
H1270 N1265 0.984 . S
H1271 N1265 0.985 1_556 S
H1272 N1269 0.984 . S
H1273 N1269 0.985 . S
H1274 N1268 0.984 . S
H1275 N1268 0.984 . S
H1276 N1264 0.984 . S
H1277 N1264 0.985 . S
C1278 C1279 1.363 . S
C1278 C1284 1.379 1_556 S
C1278 N1286 1.356 . S
C1279 C1278 1.363 . S
C1279 C1285 1.363 . S
C1280 C1281 1.363 1_556 S
C1280 C1285 1.379 . S
C1280 N1287 1.356 . S
C1281 C1280 1.363 1_554 S
C1281 C1284 1.363 . S
N1282 C1284 1.356 . S
N1282 H1294 0.984 . S
N1282 H1295 0.985 . S
N1283 C1285 1.356 . S
N1283 H1288 0.984 . S
N1283 H1289 0.985 . S
C1284 C1278 1.379 1_554 S
C1284 C1281 1.363 . S
C1284 N1282 1.356 . S
C1285 C1279 1.363 . S
C1285 C1280 1.379 . S
C1285 N1283 1.356 . S
N1286 C1278 1.356 . S
N1286 H1292 0.984 . S
N1286 H1293 0.984 . S
N1287 C1280 1.356 . S
N1287 H1290 0.984 1_556 S
N1287 H1291 0.985 . S
H1288 N1283 0.984 . S
H1289 N1283 0.985 . S
H1290 N1287 0.984 1_554 S
H1291 N1287 0.985 . S
H1292 N1286 0.984 . S
H1293 N1286 0.984 . S
H1294 N1282 0.984 . S
H1295 N1282 0.985 . S
C1296 C1297 1.358 1_455 S
C1296 C1302 1.393 . S
C1296 N1304 1.344 1_455 S
C1297 C1296 1.358 1_655 S
C1297 C1303 1.363 1_655 S
C1298 C1299 1.363 . S
C1298 C1303 1.379 . S
C1298 N1305 1.356 . S
C1299 C1298 1.363 . S
C1299 C1302 1.363 . S
N1300 C1302 1.356 . S
N1300 H1312 0.984 . S
N1300 H1313 0.985 . S
N1301 C1303 1.356 1_655 S
N1301 H1306 0.984 . S
N1301 H1307 0.985 1_655 S
C1302 C1296 1.393 . S
C1302 C1299 1.363 . S
C1302 N1300 1.356 . S
C1303 C1297 1.363 1_455 S
C1303 C1298 1.379 . S
C1303 N1301 1.356 1_455 S
N1304 C1296 1.344 1_655 S
N1304 H1310 0.984 . S
N1304 H1311 0.984 . S
N1305 C1298 1.356 . S
N1305 H1308 0.984 . S
N1305 H1309 0.985 . S
H1306 N1301 0.984 . S
H1307 N1301 0.985 1_455 S
H1308 N1305 0.984 . S
H1309 N1305 0.985 . S
H1310 N1304 0.984 . S
H1311 N1304 0.984 . S
H1312 N1300 0.984 . S
H1313 N1300 0.985 . S
C1314 C1315 1.366 . S
C1314 C1320 1.369 1_655 S
C1314 N1322 1.365 . S
C1315 C1314 1.366 . S
C1315 C1321 1.363 1_655 S
C1316 C1317 1.363 . S
C1316 C1321 1.379 . S
C1316 N1323 1.356 . S
C1317 C1316 1.363 . S
C1317 C1320 1.363 . S
N1318 C1320 1.356 . S
N1318 H1330 0.984 . S
N1318 H1331 0.985 . S
N1319 C1321 1.356 1_655 S
N1319 H1324 0.984 . S
N1319 H1325 0.985 1_655 S
C1320 C1314 1.369 1_455 S
C1320 C1317 1.363 . S
C1320 N1318 1.356 . S
C1321 C1315 1.363 1_455 S
C1321 C1316 1.379 . S
C1321 N1319 1.356 1_455 S
N1322 C1314 1.365 . S
N1322 H1328 0.984 . S
N1322 H1329 0.984 . S
N1323 C1316 1.356 . S
N1323 H1326 0.984 . S
N1323 H1327 0.985 . S
H1324 N1319 0.984 . S
H1325 N1319 0.985 1_455 S
H1326 N1323 0.984 . S
H1327 N1323 0.985 . S
H1328 N1322 0.984 . S
H1329 N1322 0.984 . S
H1330 N1318 0.984 . S
H1331 N1318 0.985 . S
C1332 C1333 1.363 . S
C1332 C1338 1.379 . S
C1332 N1340 1.356 . S
C1333 C1332 1.363 . S
C1333 C1339 1.363 . S
C1334 C1335 1.363 1_545 S
C1334 C1339 1.379 . S
C1334 N1341 1.356 1_545 S
C1335 C1334 1.363 1_565 S
C1335 C1338 1.363 1_565 S
N1336 C1338 1.356 1_565 S
N1336 H1348 0.987 . S
N1336 H1349 0.985 . S
N1337 C1339 1.356 . S
N1337 H1342 0.984 . S
N1337 H1343 0.985 . S
C1338 C1332 1.379 . S
C1338 C1335 1.363 1_545 S
C1338 N1336 1.356 1_545 S
C1339 C1333 1.363 . S
C1339 C1334 1.379 . S
C1339 N1337 1.356 . S
N1340 C1332 1.356 . S
N1340 H1346 0.984 . S
N1340 H1347 0.984 . S
N1341 C1334 1.356 1_565 S
N1341 H1344 0.984 . S
N1341 H1345 0.985 . S
H1342 N1337 0.984 . S
H1343 N1337 0.985 . S
H1344 N1341 0.984 . S
H1345 N1341 0.985 . S
H1346 N1340 0.984 . S
H1347 N1340 0.984 . S
H1348 N1336 0.987 . S
H1349 N1336 0.985 . S
C1350 C1351 1.363 . S
C1350 C1356 1.379 . S
C1350 N1358 1.356 . S
C1351 C1350 1.363 . S
C1351 C1357 1.363 . S
C1352 C1353 1.363 1_655 S
C1352 C1357 1.379 . S
C1352 N1359 1.356 1_655 S
C1353 C1352 1.363 1_455 S
C1353 C1356 1.363 1_455 S
N1354 C1356 1.356 1_455 S
N1354 H1366 0.984 . S
N1354 H1367 0.985 . S
N1355 C1357 1.356 . S
N1355 H1360 0.984 . S
N1355 H1361 0.985 . S
C1356 C1350 1.379 . S
C1356 C1353 1.363 1_655 S
C1356 N1354 1.356 1_655 S
C1357 C1351 1.363 . S
C1357 C1352 1.379 . S
C1357 N1355 1.356 . S
N1358 C1350 1.356 . S
N1358 H1364 0.984 . S
N1358 H1365 0.984 . S
N1359 C1352 1.356 1_455 S
N1359 H1362 0.984 . S
N1359 H1363 0.985 . S
H1360 N1355 0.984 . S
H1361 N1355 0.985 . S
H1362 N1359 0.984 . S
H1363 N1359 0.985 . S
H1364 N1358 0.984 . S
H1365 N1358 0.984 . S
H1366 N1354 0.984 . S
H1367 N1354 0.985 . S
C1368 C1369 1.363 1_565 S
C1368 C1374 1.379 . S
C1368 N1376 1.356 1_565 S
C1369 C1368 1.363 1_545 S
C1369 C1375 1.363 . S
C1370 C1371 1.363 . S
C1370 C1375 1.379 1_565 S
C1370 N1377 1.356 . S
C1371 C1370 1.363 . S
C1371 C1374 1.363 . S
N1372 C1374 1.356 . S
N1372 H1384 0.984 . S
N1372 H1385 0.985 . S
N1373 C1375 1.356 . S
N1373 H1378 0.984 . S
N1373 H1379 0.985 . S
C1374 C1368 1.379 . S
C1374 C1371 1.363 . S
C1374 N1372 1.356 . S
C1375 C1369 1.363 . S
C1375 C1370 1.379 1_545 S
C1375 N1373 1.356 . S
N1376 C1368 1.356 1_545 S
N1376 H1382 0.984 1_545 S
N1376 H1383 0.984 . S
N1377 C1370 1.356 . S
N1377 H1380 0.984 . S
N1377 H1381 0.985 . S
H1378 N1373 0.984 . S
H1379 N1373 0.985 . S
H1380 N1377 0.984 . S
H1381 N1377 0.985 . S
H1382 N1376 0.984 1_565 S
H1383 N1376 0.984 . S
H1384 N1372 0.984 . S
H1385 N1372 0.985 . S
C1386 C1387 1.363 1_655 S
C1386 C1392 1.379 . S
C1386 N1394 1.356 1_655 S
C1387 C1386 1.363 1_455 S
C1387 C1393 1.363 1_455 S
C1388 C1389 1.363 . S
C1388 C1393 1.379 . S
C1388 N1395 1.356 . S
C1389 C1388 1.363 . S
C1389 C1392 1.363 . S
N1390 C1392 1.356 . S
N1390 H1402 0.984 . S
N1390 H1403 0.985 . S
N1391 C1393 1.356 1_455 S
N1391 H1396 0.984 . S
N1391 H1397 0.985 . S
C1392 C1386 1.379 . S
C1392 C1389 1.363 . S
C1392 N1390 1.356 . S
C1393 C1387 1.363 1_655 S
C1393 C1388 1.379 . S
C1393 N1391 1.356 1_655 S
N1394 C1386 1.356 1_455 S
N1394 H1400 0.996 . S
N1394 H1401 0.984 . S
N1395 C1388 1.356 . S
N1395 H1398 0.984 . S
N1395 H1399 0.985 . S
H1396 N1391 0.984 . S
H1397 N1391 0.985 . S
H1398 N1395 0.984 . S
H1399 N1395 0.985 . S
H1400 N1394 0.996 . S
H1401 N1394 0.984 . S
H1402 N1390 0.984 . S
H1403 N1390 0.985 . S
C1404 C1405 1.363 1_565 S
C1404 C1410 1.379 . S
C1404 N1412 1.356 1_565 S
C1405 C1404 1.363 1_545 S
C1405 C1411 1.363 . S
C1406 C1407 1.363 . S
C1406 C1411 1.379 1_565 S
C1406 N1413 1.356 . S
C1407 C1406 1.363 . S
C1407 C1410 1.363 . S
N1408 C1410 1.356 . S
N1408 H1420 0.984 . S
N1408 H1421 0.985 . S
N1409 C1411 1.356 . S
N1409 H1414 0.984 . S
N1409 H1415 0.985 . S
C1410 C1404 1.379 . S
C1410 C1407 1.363 . S
C1410 N1408 1.356 . S
C1411 C1405 1.363 . S
C1411 C1406 1.379 1_545 S
C1411 N1409 1.356 . S
N1412 C1404 1.356 1_545 S
N1412 H1418 0.984 1_545 S
N1412 H1419 0.984 . S
N1413 C1406 1.356 . S
N1413 H1416 0.984 . S
N1413 H1417 0.985 . S
H1414 N1409 0.984 . S
H1415 N1409 0.985 . S
H1416 N1413 0.984 . S
H1417 N1413 0.985 . S
H1418 N1412 0.984 1_565 S
H1419 N1412 0.984 . S
H1420 N1408 0.984 . S
H1421 N1408 0.985 . S
C1422 C1423 1.363 . S
C1422 C1428 1.379 . S
C1422 N1430 1.356 . S
C1423 C1422 1.363 . S
C1423 C1429 1.363 . S
C1424 C1425 1.363 1_545 S
C1424 C1429 1.379 . S
C1424 N1431 1.356 1_545 S
C1425 C1424 1.363 1_565 S
C1425 C1428 1.363 1_565 S
N1426 C1428 1.356 1_565 S
N1426 H1438 0.984 . S
N1426 H1439 0.985 . S
N1427 C1429 1.356 . S
N1427 H1432 0.984 . S
N1427 H1433 0.985 . S
C1428 C1422 1.379 . S
C1428 C1425 1.363 1_545 S
C1428 N1426 1.356 1_545 S
C1429 C1423 1.363 . S
C1429 C1424 1.379 . S
C1429 N1427 1.356 . S
N1430 C1422 1.356 . S
N1430 H1436 0.984 . S
N1430 H1437 0.984 . S
N1431 C1424 1.356 1_565 S
N1431 H1434 0.984 . S
N1431 H1435 0.985 . S
H1432 N1427 0.984 . S
H1433 N1427 0.985 . S
H1434 N1431 0.984 . S
H1435 N1431 0.985 . S
H1436 N1430 0.984 . S
H1437 N1430 0.984 . S
H1438 N1426 0.984 . S
H1439 N1426 0.985 . S
C1440 C1441 1.363 . S
C1440 C1446 1.379 . S
C1440 N1448 1.356 . S
C1441 C1440 1.363 . S
C1441 C1447 1.363 . S
C1442 C1443 1.363 . S
C1442 C1447 1.379 . S
C1442 N1449 1.356 . S
C1443 C1442 1.363 . S
C1443 C1446 1.363 . S
N1444 C1446 1.356 . S
N1444 H1456 0.984 . S
N1444 H1457 0.985 . S
N1445 C1447 1.356 . S
N1445 H1450 0.984 . S
N1445 H1451 0.985 . S
C1446 C1440 1.379 . S
C1446 C1443 1.363 . S
C1446 N1444 1.356 . S
C1447 C1441 1.363 . S
C1447 C1442 1.379 . S
C1447 N1445 1.356 . S
N1448 C1440 1.356 . S
N1448 H1454 0.984 . S
N1448 H1455 0.984 . S
N1449 C1442 1.356 . S
N1449 H1452 0.984 . S
N1449 H1453 0.985 . S
H1450 N1445 0.984 . S
H1451 N1445 0.985 . S
H1452 N1449 0.984 . S
H1453 N1449 0.985 . S
H1454 N1448 0.984 . S
H1455 N1448 0.984 . S
H1456 N1444 0.984 . S
H1457 N1444 0.985 . S
C1458 C1459 1.363 . S
C1458 C1464 1.379 . S
C1458 N1466 1.356 . S
C1459 C1458 1.363 . S
C1459 C1465 1.363 . S
C1460 C1461 1.363 . S
C1460 C1465 1.379 . S
C1460 N1467 1.356 . S
C1461 C1460 1.363 . S
C1461 C1464 1.363 . S
N1462 C1464 1.356 . S
N1462 H1474 0.984 . S
N1462 H1475 0.985 . S
N1463 C1465 1.356 . S
N1463 H1468 0.984 . S
N1463 H1469 0.985 . S
C1464 C1458 1.379 . S
C1464 C1461 1.363 . S
C1464 N1462 1.356 . S
C1465 C1459 1.363 . S
C1465 C1460 1.379 . S
C1465 N1463 1.356 . S
N1466 C1458 1.356 . S
N1466 H1472 0.984 . S
N1466 H1473 0.984 . S
N1467 C1460 1.356 . S
N1467 H1470 0.984 . S
N1467 H1471 0.985 . S
H1468 N1463 0.984 . S
H1469 N1463 0.985 . S
H1470 N1467 0.984 . S
H1471 N1467 0.985 . S
H1472 N1466 0.984 . S
H1473 N1466 0.984 . S
H1474 N1462 0.984 . S
H1475 N1462 0.985 . S
C1476 C1477 1.363 . S
C1476 C1482 1.379 . S
C1476 N1484 1.356 . S
C1477 C1476 1.363 . S
C1477 C1483 1.363 . S
C1478 C1479 1.363 . S
C1478 C1483 1.379 . S
C1478 N1485 1.356 . S
C1479 C1478 1.363 . S
C1479 C1482 1.363 . S
N1480 C1482 1.356 . S
N1480 H1492 0.984 . S
N1480 H1493 0.985 . S
N1481 C1483 1.356 . S
N1481 H1486 0.984 . S
N1481 H1487 0.985 . S
C1482 C1476 1.379 . S
C1482 C1479 1.363 . S
C1482 N1480 1.356 . S
C1483 C1477 1.363 . S
C1483 C1478 1.379 . S
C1483 N1481 1.356 . S
N1484 C1476 1.356 . S
N1484 H1490 0.984 . S
N1484 H1491 0.984 . S
N1485 C1478 1.356 . S
N1485 H1488 0.984 . S
N1485 H1489 0.985 . S
H1486 N1481 0.984 . S
H1487 N1481 0.985 . S
H1488 N1485 0.984 . S
H1489 N1485 0.985 . S
H1490 N1484 0.984 . S
H1491 N1484 0.984 . S
H1492 N1480 0.984 . S
H1493 N1480 0.985 . S
C1494 C1495 1.363 . S
C1494 C1500 1.379 . S
C1494 N1502 1.356 . S
C1495 C1494 1.363 . S
C1495 C1501 1.363 . S
C1496 C1497 1.363 . S
C1496 C1501 1.379 . S
C1496 N1503 1.356 . S
C1497 C1496 1.363 . S
C1497 C1500 1.363 . S
N1498 C1500 1.356 . S
N1498 H1510 0.984 . S
N1498 H1511 0.985 . S
N1499 C1501 1.356 . S
N1499 H1504 0.984 . S
N1499 H1505 0.985 . S
C1500 C1494 1.379 . S
C1500 C1497 1.363 . S
C1500 N1498 1.356 . S
C1501 C1495 1.363 . S
C1501 C1496 1.379 . S
C1501 N1499 1.356 . S
N1502 C1494 1.356 . S
N1502 H1508 0.984 . S
N1502 H1509 0.984 . S
N1503 C1496 1.356 . S
N1503 H1506 0.984 . S
N1503 H1507 0.985 . S
H1504 N1499 0.984 . S
H1505 N1499 0.985 . S
H1506 N1503 0.984 . S
H1507 N1503 0.985 . S
H1508 N1502 0.984 . S
H1509 N1502 0.984 . S
H1510 N1498 0.984 . S
H1511 N1498 0.985 . S
C1512 C1513 1.363 . S
C1512 C1518 1.379 . S
C1512 N1520 1.356 . S
C1513 C1512 1.363 . S
C1513 C1519 1.363 . S
C1514 C1515 1.363 . S
C1514 C1519 1.379 . S
C1514 N1521 1.356 . S
C1515 C1514 1.363 . S
C1515 C1518 1.363 . S
N1516 C1518 1.356 . S
N1516 H1528 0.984 . S
N1516 H1529 0.985 . S
N1517 C1519 1.356 . S
N1517 H1522 0.984 . S
N1517 H1523 0.985 . S
C1518 C1512 1.379 . S
C1518 C1515 1.363 . S
C1518 N1516 1.356 . S
C1519 C1513 1.363 . S
C1519 C1514 1.379 . S
C1519 N1517 1.356 . S
N1520 C1512 1.356 . S
N1520 H1526 0.984 . S
N1520 H1527 0.984 . S
N1521 C1514 1.356 . S
N1521 H1524 0.984 . S
N1521 H1525 0.985 . S
H1522 N1517 0.984 . S
H1523 N1517 0.985 . S
H1524 N1521 0.984 . S
H1525 N1521 0.985 . S
H1526 N1520 0.984 . S
H1527 N1520 0.984 . S
H1528 N1516 0.984 . S
H1529 N1516 0.985 . S
C1530 C1531 1.363 . S
C1530 C1536 1.379 . S
C1530 N1538 1.356 . S
C1531 C1530 1.363 . S
C1531 C1537 1.363 . S
C1532 C1533 1.363 . S
C1532 C1537 1.379 . S
C1532 N1539 1.356 . S
C1533 C1532 1.363 . S
C1533 C1536 1.363 . S
N1534 C1536 1.356 . S
N1534 H1546 0.984 . S
N1534 H1547 0.985 . S
N1535 C1537 1.356 . S
N1535 H1540 0.984 . S
N1535 H1541 0.985 . S
C1536 C1530 1.379 . S
C1536 C1533 1.363 . S
C1536 N1534 1.356 . S
C1537 C1531 1.363 . S
C1537 C1532 1.379 . S
C1537 N1535 1.356 . S
N1538 C1530 1.356 . S
N1538 H1544 0.984 . S
N1538 H1545 0.984 . S
N1539 C1532 1.356 . S
N1539 H1542 0.984 . S
N1539 H1543 0.985 . S
H1540 N1535 0.984 . S
H1541 N1535 0.985 . S
H1542 N1539 0.984 . S
H1543 N1539 0.985 . S
H1544 N1538 0.984 . S
H1545 N1538 0.984 . S
H1546 N1534 0.984 . S
H1547 N1534 0.985 . S
C1548 C1549 1.363 . S
C1548 C1554 1.379 . S
C1548 N1556 1.356 . S
C1549 C1548 1.363 . S
C1549 C1555 1.363 . S
C1550 C1551 1.363 . S
C1550 C1555 1.379 . S
C1550 N1557 1.356 . S
C1551 C1550 1.363 . S
C1551 C1554 1.363 . S
N1552 C1554 1.356 . S
N1552 H1564 0.984 . S
N1552 H1565 0.985 . S
N1553 C1555 1.356 . S
N1553 H1558 0.984 . S
N1553 H1559 0.985 . S
C1554 C1548 1.379 . S
C1554 C1551 1.363 . S
C1554 N1552 1.356 . S
C1555 C1549 1.363 . S
C1555 C1550 1.379 . S
C1555 N1553 1.356 . S
N1556 C1548 1.356 . S
N1556 H1562 0.984 . S
N1556 H1563 0.984 . S
N1557 C1550 1.356 . S
N1557 H1560 0.984 . S
N1557 H1561 0.985 . S
H1558 N1553 0.984 . S
H1559 N1553 0.985 . S
H1560 N1557 0.984 . S
H1561 N1557 0.985 . S
H1562 N1556 0.984 . S
H1563 N1556 0.984 . S
H1564 N1552 0.984 . S
H1565 N1552 0.985 . S
C1566 C1567 1.363 . S
C1566 C1572 1.379 . S
C1566 N1574 1.356 . S
C1567 C1566 1.363 . S
C1567 C1573 1.363 . S
C1568 C1569 1.363 . S
C1568 C1573 1.379 . S
C1568 N1575 1.356 . S
C1569 C1568 1.363 . S
C1569 C1572 1.363 . S
N1570 C1572 1.356 . S
N1570 H1582 0.984 . S
N1570 H1583 0.985 . S
N1571 C1573 1.356 . S
N1571 H1576 0.984 . S
N1571 H1577 0.985 . S
C1572 C1566 1.379 . S
C1572 C1569 1.363 . S
C1572 N1570 1.356 . S
C1573 C1567 1.363 . S
C1573 C1568 1.379 . S
C1573 N1571 1.356 . S
N1574 C1566 1.356 . S
N1574 H1580 0.984 . S
N1574 H1581 0.984 . S
N1575 C1568 1.356 . S
N1575 H1578 0.984 . S
N1575 H1579 0.985 . S
H1576 N1571 0.984 . S
H1577 N1571 0.985 . S
H1578 N1575 0.984 . S
H1579 N1575 0.985 . S
H1580 N1574 0.984 . S
H1581 N1574 0.984 . S
H1582 N1570 0.984 . S
H1583 N1570 0.985 . S
C1584 C1585 1.363 . S
C1584 C1590 1.379 . S
C1584 N1592 1.356 . S
C1585 C1584 1.363 . S
C1585 C1591 1.363 . S
C1586 C1587 1.363 . S
C1586 C1591 1.379 . S
C1586 N1593 1.356 . S
C1587 C1586 1.363 . S
C1587 C1590 1.363 . S
N1588 C1590 1.356 . S
N1588 H1600 0.984 . S
N1588 H1601 0.985 . S
N1589 C1591 1.356 . S
N1589 H1594 0.984 . S
N1589 H1595 0.985 . S
C1590 C1584 1.379 . S
C1590 C1587 1.363 . S
C1590 N1588 1.356 . S
C1591 C1585 1.363 . S
C1591 C1586 1.379 . S
C1591 N1589 1.356 . S
N1592 C1584 1.356 . S
N1592 H1598 0.984 . S
N1592 H1599 0.984 . S
N1593 C1586 1.356 . S
N1593 H1596 0.984 . S
N1593 H1597 0.985 . S
H1594 N1589 0.984 . S
H1595 N1589 0.985 . S
H1596 N1593 0.984 . S
H1597 N1593 0.985 . S
H1598 N1592 0.984 . S
H1599 N1592 0.984 . S
H1600 N1588 0.984 . S
H1601 N1588 0.985 . S
C1602 C1603 1.363 . S
C1602 C1608 1.379 . S
C1602 N1610 1.356 . S
C1603 C1602 1.363 . S
C1603 C1609 1.363 . S
C1604 C1605 1.363 . S
C1604 C1609 1.379 . S
C1604 N1611 1.356 . S
C1605 C1604 1.363 . S
C1605 C1608 1.363 . S
N1606 C1608 1.356 . S
N1606 H1618 0.984 . S
N1606 H1619 0.985 . S
N1607 C1609 1.356 . S
N1607 H1612 0.984 . S
N1607 H1613 0.985 . S
C1608 C1602 1.379 . S
C1608 C1605 1.363 . S
C1608 N1606 1.356 . S
C1609 C1603 1.363 . S
C1609 C1604 1.379 . S
C1609 N1607 1.356 . S
N1610 C1602 1.356 . S
N1610 H1616 0.984 . S
N1610 H1617 0.984 . S
N1611 C1604 1.356 . S
N1611 H1614 0.984 . S
N1611 H1615 0.985 . S
H1612 N1607 0.984 . S
H1613 N1607 0.985 . S
H1614 N1611 0.984 . S
H1615 N1611 0.985 . S
H1616 N1610 0.984 . S
H1617 N1610 0.984 . S
H1618 N1606 0.984 . S
H1619 N1606 0.985 . S
C1620 C1621 1.363 . S
C1620 C1626 1.379 . S
C1620 N1628 1.356 . S
C1621 C1620 1.363 . S
C1621 C1627 1.363 . S
C1622 C1623 1.363 . S
C1622 C1627 1.379 . S
C1622 N1629 1.356 . S
C1623 C1622 1.363 . S
C1623 C1626 1.363 . S
N1624 C1626 1.356 . S
N1624 H1636 0.984 . S
N1624 H1637 0.985 . S
N1625 C1627 1.356 . S
N1625 H1630 0.984 . S
N1625 H1631 0.985 . S
C1626 C1620 1.379 . S
C1626 C1623 1.363 . S
C1626 N1624 1.356 . S
C1627 C1621 1.363 . S
C1627 C1622 1.379 . S
C1627 N1625 1.356 . S
N1628 C1620 1.356 . S
N1628 H1634 0.984 . S
N1628 H1635 0.984 . S
N1629 C1622 1.356 . S
N1629 H1632 0.984 . S
N1629 H1633 0.985 . S
H1630 N1625 0.984 . S
H1631 N1625 0.985 . S
H1632 N1629 0.984 . S
H1633 N1629 0.985 . S
H1634 N1628 0.984 . S
H1635 N1628 0.984 . S
H1636 N1624 0.984 . S
H1637 N1624 0.985 . S
C1638 C1639 1.363 . S
C1638 C1644 1.379 . S
C1638 N1646 1.356 . S
C1639 C1638 1.363 . S
C1639 C1645 1.363 . S
C1640 C1641 1.363 . S
C1640 C1645 1.379 . S
C1640 N1647 1.356 . S
C1641 C1640 1.363 . S
C1641 C1644 1.363 . S
N1642 C1644 1.356 . S
N1642 H1654 0.984 . S
N1642 H1655 0.985 . S
N1643 C1645 1.356 . S
N1643 H1648 0.984 . S
N1643 H1649 0.985 . S
C1644 C1638 1.379 . S
C1644 C1641 1.363 . S
C1644 N1642 1.356 . S
C1645 C1639 1.363 . S
C1645 C1640 1.379 . S
C1645 N1643 1.356 . S
N1646 C1638 1.356 . S
N1646 H1652 0.984 . S
N1646 H1653 0.984 . S
N1647 C1640 1.356 . S
N1647 H1650 0.984 . S
N1647 H1651 0.985 . S
H1648 N1643 0.984 . S
H1649 N1643 0.985 . S
H1650 N1647 0.984 . S
H1651 N1647 0.985 . S
H1652 N1646 0.984 . S
H1653 N1646 0.984 . S
H1654 N1642 0.984 . S
H1655 N1642 0.985 . S
C1656 C1657 1.363 . S
C1656 C1662 1.379 . S
C1656 N1664 1.356 . S
C1657 C1656 1.363 . S
C1657 C1663 1.363 . S
C1658 C1659 1.363 . S
C1658 C1663 1.379 . S
C1658 N1665 1.356 . S
C1659 C1658 1.363 . S
C1659 C1662 1.363 . S
N1660 C1662 1.356 . S
N1660 H1672 0.984 . S
N1660 H1673 0.985 . S
N1661 C1663 1.356 . S
N1661 H1666 0.984 . S
N1661 H1667 0.985 . S
C1662 C1656 1.379 . S
C1662 C1659 1.363 . S
C1662 N1660 1.356 . S
C1663 C1657 1.363 . S
C1663 C1658 1.379 . S
C1663 N1661 1.356 . S
N1664 C1656 1.356 . S
N1664 H1670 0.984 . S
N1664 H1671 0.984 . S
N1665 C1658 1.356 . S
N1665 H1668 0.984 . S
N1665 H1669 0.985 . S
H1666 N1661 0.984 . S
H1667 N1661 0.985 . S
H1668 N1665 0.984 . S
H1669 N1665 0.985 . S
H1670 N1664 0.984 . S
H1671 N1664 0.984 . S
H1672 N1660 0.984 . S
H1673 N1660 0.985 . S
C1674 C1675 1.363 . S
C1674 C1680 1.379 . S
C1674 N1682 1.356 . S
C1675 C1674 1.363 . S
C1675 C1681 1.363 . S
C1676 C1677 1.363 . S
C1676 C1681 1.379 . S
C1676 N1683 1.356 . S
C1677 C1676 1.363 . S
C1677 C1680 1.363 . S
N1678 C1680 1.356 . S
N1678 H1690 0.984 . S
N1678 H1691 0.985 . S
N1679 C1681 1.356 . S
N1679 H1684 0.984 . S
N1679 H1685 0.985 . S
C1680 C1674 1.379 . S
C1680 C1677 1.363 . S
C1680 N1678 1.356 . S
C1681 C1675 1.363 . S
C1681 C1676 1.379 . S
C1681 N1679 1.356 . S
N1682 C1674 1.356 . S
N1682 H1688 0.984 . S
N1682 H1689 0.984 . S
N1683 C1676 1.356 . S
N1683 H1686 0.984 . S
N1683 H1687 0.985 . S
H1684 N1679 0.984 . S
H1685 N1679 0.985 . S
H1686 N1683 0.984 . S
H1687 N1683 0.985 . S
H1688 N1682 0.984 . S
H1689 N1682 0.984 . S
H1690 N1678 0.984 . S
H1691 N1678 0.985 . S
C1692 C1693 1.363 . S
C1692 C1698 1.379 . S
C1692 N1700 1.356 . S
C1693 C1692 1.363 . S
C1693 C1699 1.363 . S
C1694 C1695 1.363 . S
C1694 C1699 1.379 . S
C1694 N1701 1.356 . S
C1695 C1694 1.363 . S
C1695 C1698 1.363 . S
N1696 C1698 1.356 . S
N1696 H1708 0.984 . S
N1696 H1709 0.985 . S
N1697 C1699 1.356 . S
N1697 H1702 0.984 . S
N1697 H1703 0.985 . S
C1698 C1692 1.379 . S
C1698 C1695 1.363 . S
C1698 N1696 1.356 . S
C1699 C1693 1.363 . S
C1699 C1694 1.379 . S
C1699 N1697 1.356 . S
N1700 C1692 1.356 . S
N1700 H1706 0.984 . S
N1700 H1707 0.984 . S
N1701 C1694 1.356 . S
N1701 H1704 0.984 . S
N1701 H1705 0.985 . S
H1702 N1697 0.984 . S
H1703 N1697 0.985 . S
H1704 N1701 0.984 . S
H1705 N1701 0.985 . S
H1706 N1700 0.984 . S
H1707 N1700 0.984 . S
H1708 N1696 0.984 . S
H1709 N1696 0.985 . S
C1710 C1711 1.363 . S
C1710 C1716 1.379 . S
C1710 N1718 1.356 . S
C1711 C1710 1.363 . S
C1711 C1717 1.363 . S
C1712 C1713 1.363 . S
C1712 C1717 1.379 . S
C1712 N1719 1.356 . S
C1713 C1712 1.363 . S
C1713 C1716 1.363 . S
N1714 C1716 1.356 . S
N1714 H1726 0.984 . S
N1714 H1727 0.985 . S
N1715 C1717 1.356 . S
N1715 H1720 0.984 . S
N1715 H1721 0.985 . S
C1716 C1710 1.379 . S
C1716 C1713 1.363 . S
C1716 N1714 1.356 . S
C1717 C1711 1.363 . S
C1717 C1712 1.379 . S
C1717 N1715 1.356 . S
N1718 C1710 1.356 . S
N1718 H1724 0.984 . S
N1718 H1725 0.984 . S
N1719 C1712 1.356 . S
N1719 H1722 0.984 . S
N1719 H1723 0.985 . S
H1720 N1715 0.984 . S
H1721 N1715 0.985 . S
H1722 N1719 0.984 . S
H1723 N1719 0.985 . S
H1724 N1718 0.984 . S
H1725 N1718 0.984 . S
H1726 N1714 0.984 . S
H1727 N1714 0.985 . S
C1728 C1729 1.363 . S
C1728 C1734 1.379 . S
C1728 N1736 1.356 . S
C1729 C1728 1.363 . S
C1729 C1735 1.363 . S
C1730 C1731 1.363 . S
C1730 C1735 1.379 . S
C1730 N1737 1.356 . S
C1731 C1730 1.363 . S
C1731 C1734 1.363 . S
N1732 C1734 1.356 . S
N1732 H1744 0.984 . S
N1732 H1745 0.985 . S
N1733 C1735 1.356 . S
N1733 H1738 0.984 . S
N1733 H1739 0.985 . S
C1734 C1728 1.379 . S
C1734 C1731 1.363 . S
C1734 N1732 1.356 . S
C1735 C1729 1.363 . S
C1735 C1730 1.379 . S
C1735 N1733 1.356 . S
N1736 C1728 1.356 . S
N1736 H1742 0.984 . S
N1736 H1743 0.984 . S
N1737 C1730 1.356 . S
N1737 H1740 0.984 . S
N1737 H1741 0.985 . S
H1738 N1733 0.984 . S
H1739 N1733 0.985 . S
H1740 N1737 0.984 . S
H1741 N1737 0.985 . S
H1742 N1736 0.984 . S
H1743 N1736 0.984 . S
H1744 N1732 0.984 . S
H1745 N1732 0.985 . S
C1746 C1747 1.363 . S
C1746 C1752 1.379 . S
C1746 N1754 1.356 . S
C1747 C1746 1.363 . S
C1747 C1753 1.363 . S
C1748 C1749 1.363 . S
C1748 C1753 1.379 . S
C1748 N1755 1.356 . S
C1749 C1748 1.363 . S
C1749 C1752 1.363 . S
N1750 C1752 1.356 . S
N1750 H1762 0.984 . S
N1750 H1763 0.985 . S
N1751 C1753 1.356 . S
N1751 H1756 0.984 . S
N1751 H1757 0.985 . S
C1752 C1746 1.379 . S
C1752 C1749 1.363 . S
C1752 N1750 1.356 . S
C1753 C1747 1.363 . S
C1753 C1748 1.379 . S
C1753 N1751 1.356 . S
N1754 C1746 1.356 . S
N1754 H1760 0.984 . S
N1754 H1761 0.984 . S
N1755 C1748 1.356 . S
N1755 H1758 0.984 . S
N1755 H1759 0.985 . S
H1756 N1751 0.984 . S
H1757 N1751 0.985 . S
H1758 N1755 0.984 . S
H1759 N1755 0.985 . S
H1760 N1754 0.984 . S
H1761 N1754 0.984 . S
H1762 N1750 0.984 . S
H1763 N1750 0.985 . S
C1764 C1765 1.363 . S
C1764 C1770 1.379 . S
C1764 N1772 1.356 . S
C1765 C1764 1.363 . S
C1765 C1771 1.363 . S
C1766 C1767 1.363 . S
C1766 C1771 1.379 . S
C1766 N1773 1.356 . S
C1767 C1766 1.363 . S
C1767 C1770 1.363 . S
N1768 C1770 1.356 . S
N1768 H1780 0.984 . S
N1768 H1781 0.985 . S
N1769 C1771 1.356 . S
N1769 H1774 0.984 . S
N1769 H1775 0.985 . S
C1770 C1764 1.379 . S
C1770 C1767 1.363 . S
C1770 N1768 1.356 . S
C1771 C1765 1.363 . S
C1771 C1766 1.379 . S
C1771 N1769 1.356 . S
N1772 C1764 1.356 . S
N1772 H1778 0.984 . S
N1772 H1779 0.984 . S
N1773 C1766 1.356 . S
N1773 H1776 0.984 . S
N1773 H1777 0.985 . S
H1774 N1769 0.984 . S
H1775 N1769 0.985 . S
H1776 N1773 0.984 . S
H1777 N1773 0.985 . S
H1778 N1772 0.984 . S
H1779 N1772 0.984 . S
H1780 N1768 0.984 . S
H1781 N1768 0.985 . S
C1782 C1783 1.363 . S
C1782 C1788 1.379 . S
C1782 N1790 1.356 . S
C1783 C1782 1.363 . S
C1783 C1789 1.363 . S
C1784 C1785 1.363 . S
C1784 C1789 1.379 . S
C1784 N1791 1.356 . S
C1785 C1784 1.363 . S
C1785 C1788 1.363 . S
N1786 C1788 1.356 . S
N1786 H1798 0.984 . S
N1786 H1799 0.985 . S
N1787 C1789 1.356 . S
N1787 H1792 0.984 . S
N1787 H1793 0.985 . S
C1788 C1782 1.379 . S
C1788 C1785 1.363 . S
C1788 N1786 1.356 . S
C1789 C1783 1.363 . S
C1789 C1784 1.379 . S
C1789 N1787 1.356 . S
N1790 C1782 1.356 . S
N1790 H1796 0.984 . S
N1790 H1797 0.984 . S
N1791 C1784 1.356 . S
N1791 H1794 0.984 . S
N1791 H1795 0.985 . S
H1792 N1787 0.984 . S
H1793 N1787 0.985 . S
H1794 N1791 0.984 . S
H1795 N1791 0.985 . S
H1796 N1790 0.984 . S
H1797 N1790 0.984 . S
H1798 N1786 0.984 . S
H1799 N1786 0.985 . S
C1800 C1801 1.363 . S
C1800 C1806 1.379 . S
C1800 N1808 1.356 . S
C1801 C1800 1.363 . S
C1801 C1807 1.363 . S
C1802 C1803 1.363 . S
C1802 C1807 1.379 . S
C1802 N1809 1.356 . S
C1803 C1802 1.363 . S
C1803 C1806 1.363 . S
N1804 C1806 1.356 . S
N1804 H1816 0.984 . S
N1804 H1817 0.985 . S
N1805 C1807 1.356 . S
N1805 H1810 0.984 . S
N1805 H1811 0.985 . S
C1806 C1800 1.379 . S
C1806 C1803 1.363 . S
C1806 N1804 1.356 . S
C1807 C1801 1.363 . S
C1807 C1802 1.379 . S
C1807 N1805 1.356 . S
N1808 C1800 1.356 . S
N1808 H1814 0.984 . S
N1808 H1815 0.984 . S
N1809 C1802 1.356 . S
N1809 H1812 0.984 . S
N1809 H1813 0.985 . S
H1810 N1805 0.984 . S
H1811 N1805 0.985 . S
H1812 N1809 0.984 . S
H1813 N1809 0.985 . S
H1814 N1808 0.984 . S
H1815 N1808 0.984 . S
H1816 N1804 0.984 . S
H1817 N1804 0.985 . S
C1818 C1819 1.363 . S
C1818 C1824 1.379 . S
C1818 N1826 1.356 . S
C1819 C1818 1.363 . S
C1819 C1825 1.363 . S
C1820 C1821 1.363 . S
C1820 C1825 1.379 . S
C1820 N1827 1.356 . S
C1821 C1820 1.363 . S
C1821 C1824 1.363 . S
N1822 C1824 1.356 . S
N1822 H1834 0.984 . S
N1822 H1835 0.985 . S
N1823 C1825 1.356 . S
N1823 H1828 0.984 . S
N1823 H1829 0.985 . S
C1824 C1818 1.379 . S
C1824 C1821 1.363 . S
C1824 N1822 1.356 . S
C1825 C1819 1.363 . S
C1825 C1820 1.379 . S
C1825 N1823 1.356 . S
N1826 C1818 1.356 . S
N1826 H1832 0.984 . S
N1826 H1833 0.984 . S
N1827 C1820 1.356 . S
N1827 H1830 0.984 . S
N1827 H1831 0.985 . S
H1828 N1823 0.984 . S
H1829 N1823 0.985 . S
H1830 N1827 0.984 . S
H1831 N1827 0.985 . S
H1832 N1826 0.984 . S
H1833 N1826 0.984 . S
H1834 N1822 0.984 . S
H1835 N1822 0.985 . S
C1836 C1837 1.363 . S
C1836 C1842 1.379 . S
C1836 N1844 1.356 . S
C1837 C1836 1.363 . S
C1837 C1843 1.363 . S
C1838 C1839 1.363 . S
C1838 C1843 1.379 . S
C1838 N1845 1.356 . S
C1839 C1838 1.363 . S
C1839 C1842 1.363 . S
N1840 C1842 1.356 . S
N1840 H1852 0.984 . S
N1840 H1853 0.985 . S
N1841 C1843 1.356 . S
N1841 H1846 0.984 . S
N1841 H1847 0.985 . S
C1842 C1836 1.379 . S
C1842 C1839 1.363 . S
C1842 N1840 1.356 . S
C1843 C1837 1.363 . S
C1843 C1838 1.379 . S
C1843 N1841 1.356 . S
N1844 C1836 1.356 . S
N1844 H1850 0.984 . S
N1844 H1851 0.984 . S
N1845 C1838 1.356 . S
N1845 H1848 0.984 . S
N1845 H1849 0.985 . S
H1846 N1841 0.984 . S
H1847 N1841 0.985 . S
H1848 N1845 0.984 . S
H1849 N1845 0.985 . S
H1850 N1844 0.984 . S
H1851 N1844 0.984 . S
H1852 N1840 0.984 . S
H1853 N1840 0.985 . S
C1854 C1855 1.363 . S
C1854 C1860 1.379 . S
C1854 N1862 1.356 . S
C1855 C1854 1.363 . S
C1855 C1861 1.363 . S
C1856 C1857 1.363 . S
C1856 C1861 1.379 . S
C1856 N1863 1.356 . S
C1857 C1856 1.363 . S
C1857 C1860 1.363 . S
N1858 C1860 1.356 . S
N1858 H1870 0.984 . S
N1858 H1871 0.985 . S
N1859 C1861 1.356 . S
N1859 H1864 0.984 . S
N1859 H1865 0.985 . S
C1860 C1854 1.379 . S
C1860 C1857 1.363 . S
C1860 N1858 1.356 . S
C1861 C1855 1.363 . S
C1861 C1856 1.379 . S
C1861 N1859 1.356 . S
N1862 C1854 1.356 . S
N1862 H1868 0.984 . S
N1862 H1869 0.984 . S
N1863 C1856 1.356 . S
N1863 H1866 0.984 . S
N1863 H1867 0.985 . S
H1864 N1859 0.984 . S
H1865 N1859 0.985 . S
H1866 N1863 0.984 . S
H1867 N1863 0.985 . S
H1868 N1862 0.984 . S
H1869 N1862 0.984 . S
H1870 N1858 0.984 . S
H1871 N1858 0.985 . S
C793 C182 1.245 . S
C795 C17 1.245 . S
C811 C50 1.245 . S
C813 C215 1.245 . S
C829 C83 1.245 . S
C831 C248 1.245 . S
C847 C149 1.245 . S
C849 C116 1.245 . S
C865 C281 1.245 . S
C867 C776 1.245 . S
C883 C710 1.245 . S
C885 C314 1.245 . S
C901 C347 1.245 . S
C903 C743 1.245 . S
C919 C545 1.245 . S
C921 C380 1.245 . S
C937 C413 1.245 . S
C939 C677 1.245 . S
C955 C446 1.245 . S
C957 C578 1.245 . S
C973 C611 1.245 . S
C975 C479 1.245 . S
C991 C512 1.245 . S
C993 C644 1.245 . S
C1009 N104 1.666 . S
C1011 C28 1.763 . S
C1027 C61 1.763 . S
C1029 N5 1.666 . S
C1045 C94 1.763 . S
C1047 N38 1.666 . S
C1063 N71 1.666 . S
C1065 C127 1.763 . S
C1081 N170 1.666 . S
C1083 C160 1.763 . S
C1099 C193 1.763 . S
C1101 N203 1.666 . S
C1117 N236 1.666 . S
C1119 C226 1.763 . S
C1135 N137 1.666 . S
C1137 C259 1.763 . S
C1153 N599 1.666 . S
C1155 C292 1.763 . S
C1171 C325 1.763 . S
C1173 N632 1.666 . S
C1189 N665 1.666 . S
C1191 C358 1.763 . S
C1207 C391 1.763 . S
C1209 N566 1.666 . S
C1225 N731 1.666 . S
C1227 C424 1.763 . S
C1243 C457 1.763 . S
C1245 N533 1.666 . S
C1261 N764 1.666 . S
C1263 C490 1.763 . S
C1279 C523 1.763 . S
C1281 N698 1.666 . S
C1297 N302 1.666 . S
C1299 C556 1.763 . S
C1315 N500 1.666 . S
C1317 C589 1.763 . S
C1333 C622 1.763 . S
C1335 N401 1.666 . S
C1351 C655 1.763 . S
C1353 N434 1.666 . S
C1369 N467 1.666 . S
C1371 C688 1.763 . S
C1387 N368 1.666 . S
C1389 C721 1.763 . S
C1405 N269 1.666 . S
C1407 C754 1.763 . S
C1423 C787 1.763 . S
C1425 N335 1.666 . S
C1441 C8 1.453 . S
C1443 N542 1.379 . S
C1459 N773 1.379 . S
C1461 C41 1.453 . S
C1477 C74 1.453 . S
C1479 N707 1.379 . S
C1495 N740 1.379 . S
C1497 C107 1.453 . S
C1513 C140 1.453 . S
C1515 N575 1.379 . S
C1531 C173 1.453 . S
C1533 N608 1.379 . S
C1549 N641 1.379 . S
C1551 C206 1.453 . S
C1567 N674 1.379 . S
C1569 C239 1.453 . S
C1585 N14 1.379 . S
C1587 C272 1.453 . S
C1603 C305 1.453 . S
C1605 N47 1.379 . S
C1621 C338 1.453 . S
C1623 N80 1.379 . S
C1639 C371 1.453 . S
C1641 N113 1.379 . S
C1657 C404 1.453 . S
C1659 N146 1.379 . S
C1675 C437 1.453 . S
C1677 N179 1.379 . S
C1693 C470 1.453 . S
C1695 N212 1.379 . S
C1711 C503 1.453 . S
C1713 N245 1.379 . S
C1729 N278 1.379 . S
C1731 C536 1.453 . S
C1747 C569 1.453 . S
C1749 N410 1.379 . S
C1765 C602 1.453 . S
C1767 N443 1.379 . S
C1783 N476 1.379 . S
C1785 C635 1.453 . S
C1801 C668 1.453 . S
C1803 N509 1.379 . S
C1819 N344 1.379 . S
C1821 C701 1.453 . S
C1837 N377 1.379 . S
C1839 C734 1.453 . S
C1855 C767 1.453 . S
C1857 N311 1.379 . S
