# Generated by pormake.
# Topology uko, (4)-cn, num edge types: 1
# Building blocks:
#     Node 0, Type 0, BuildingBlock: CEKHIL_clean_sbu_0, # of connection points: 4
#     Node 1, Type 0, BuildingBlock: CEKHIL_clean_sbu_0, # of connection points: 4
#     Node 2, Type 0, BuildingBlock: CEKHIL_clean_sbu_0, # of connection points: 4
#     Node 3, Type 0, BuildingBlock: CEKHIL_clean_sbu_0, # of connection points: 4
#     Node 4, Type 0, BuildingBlock: CEKHIL_clean_sbu_0, # of connection points: 4
#     Node 5, Type 0, BuildingBlock: CEKHIL_clean_sbu_0, # of connection points: 4
#     Node 6, Type 0, BuildingBlock: CEKHIL_clean_sbu_0, # of connection points: 4
#     Node 7, Type 0, BuildingBlock: CEKHIL_clean_sbu_0, # of connection points: 4
#     Node 8, Type 0, BuildingBlock: CEKHIL_clean_sbu_0, # of connection points: 4
#     Node 9, Type 0, BuildingBlock: CEKHIL_clean_sbu_0, # of connection points: 4
#     Node 10, Type 0, BuildingBlock: CEKHIL_clean_sbu_0, # of connection points: 4
#     Node 11, Type 0, BuildingBlock: CEKHIL_clean_sbu_0, # of connection points: 4
#     Node 12, Type 0, BuildingBlock: CEKHIL_clean_sbu_0, # of connection points: 4
#     Node 13, Type 0, BuildingBlock: CEKHIL_clean_sbu_0, # of connection points: 4
#     Node 14, Type 0, BuildingBlock: CEKHIL_clean_sbu_0, # of connection points: 4
#     Node 15, Type 0, BuildingBlock: CEKHIL_clean_sbu_0, # of connection points: 4
#     Node 16, Type 0, BuildingBlock: CEKHIL_clean_sbu_0, # of connection points: 4
#     Node 17, Type 0, BuildingBlock: CEKHIL_clean_sbu_0, # of connection points: 4
#     Node 18, Type 0, BuildingBlock: CEKHIL_clean_sbu_0, # of connection points: 4
#     Node 19, Type 0, BuildingBlock: CEKHIL_clean_sbu_0, # of connection points: 4
#     Node 20, Type 0, BuildingBlock: CEKHIL_clean_sbu_0, # of connection points: 4
#     Node 21, Type 0, BuildingBlock: CEKHIL_clean_sbu_0, # of connection points: 4
#     Node 22, Type 0, BuildingBlock: CEKHIL_clean_sbu_0, # of connection points: 4
#     Node 23, Type 0, BuildingBlock: CEKHIL_clean_sbu_0, # of connection points: 4
#     Node 24, Type 0, BuildingBlock: CEKHIL_clean_sbu_0, # of connection points: 4
#     Node 25, Type 0, BuildingBlock: CEKHIL_clean_sbu_0, # of connection points: 4
#     Node 26, Type 0, BuildingBlock: CEKHIL_clean_sbu_0, # of connection points: 4
#     Node 27, Type 0, BuildingBlock: CEKHIL_clean_sbu_0, # of connection points: 4
#     Node 28, Type 0, BuildingBlock: CEKHIL_clean_sbu_0, # of connection points: 4
#     Node 29, Type 0, BuildingBlock: CEKHIL_clean_sbu_0, # of connection points: 4
#     Node 30, Type 0, BuildingBlock: CEKHIL_clean_sbu_0, # of connection points: 4
#     Node 31, Type 0, BuildingBlock: CEKHIL_clean_sbu_0, # of connection points: 4
#     Node 32, Type 0, BuildingBlock: CEKHIL_clean_sbu_0, # of connection points: 4
#     Node 33, Type 0, BuildingBlock: CEKHIL_clean_sbu_0, # of connection points: 4
#     Node 34, Type 0, BuildingBlock: CEKHIL_clean_sbu_0, # of connection points: 4
#     Node 35, Type 0, BuildingBlock: CEKHIL_clean_sbu_0, # of connection points: 4
#     Node 36, Type 0, BuildingBlock: CEKHIL_clean_sbu_0, # of connection points: 4
#     Node 37, Type 0, BuildingBlock: CEKHIL_clean_sbu_0, # of connection points: 4
#     Node 38, Type 0, BuildingBlock: CEKHIL_clean_sbu_0, # of connection points: 4
#     Node 39, Type 0, BuildingBlock: CEKHIL_clean_sbu_0, # of connection points: 4
#     Node 40, Type 0, BuildingBlock: CEKHIL_clean_sbu_0, # of connection points: 4
#     Node 41, Type 0, BuildingBlock: CEKHIL_clean_sbu_0, # of connection points: 4
#     Node 42, Type 0, BuildingBlock: CEKHIL_clean_sbu_0, # of connection points: 4
#     Node 43, Type 0, BuildingBlock: CEKHIL_clean_sbu_0, # of connection points: 4
#     Node 44, Type 0, BuildingBlock: CEKHIL_clean_sbu_0, # of connection points: 4
#     Node 45, Type 0, BuildingBlock: CEKHIL_clean_sbu_0, # of connection points: 4
#     Node 46, Type 0, BuildingBlock: CEKHIL_clean_sbu_0, # of connection points: 4
#     Node 47, Type 0, BuildingBlock: CEKHIL_clean_sbu_0, # of connection points: 4
#     Edge 48, Type (0, 0), BuildingBlock: KIFKEQ_clean_linker_1, # of connection points: 2
#     Edge 49, Type (0, 0), BuildingBlock: KIFKEQ_clean_linker_1, # of connection points: 2
#     Edge 50, Type (0, 0), BuildingBlock: KIFKEQ_clean_linker_1, # of connection points: 2
#     Edge 51, Type (0, 0), BuildingBlock: KIFKEQ_clean_linker_1, # of connection points: 2
#     Edge 52, Type (0, 0), BuildingBlock: KIFKEQ_clean_linker_1, # of connection points: 2
#     Edge 53, Type (0, 0), BuildingBlock: KIFKEQ_clean_linker_1, # of connection points: 2
#     Edge 54, Type (0, 0), BuildingBlock: KIFKEQ_clean_linker_1, # of connection points: 2
#     Edge 55, Type (0, 0), BuildingBlock: KIFKEQ_clean_linker_1, # of connection points: 2
#     Edge 56, Type (0, 0), BuildingBlock: KIFKEQ_clean_linker_1, # of connection points: 2
#     Edge 57, Type (0, 0), BuildingBlock: KIFKEQ_clean_linker_1, # of connection points: 2
#     Edge 58, Type (0, 0), BuildingBlock: KIFKEQ_clean_linker_1, # of connection points: 2
#     Edge 59, Type (0, 0), BuildingBlock: KIFKEQ_clean_linker_1, # of connection points: 2
#     Edge 60, Type (0, 0), BuildingBlock: KIFKEQ_clean_linker_1, # of connection points: 2
#     Edge 61, Type (0, 0), BuildingBlock: KIFKEQ_clean_linker_1, # of connection points: 2
#     Edge 62, Type (0, 0), BuildingBlock: KIFKEQ_clean_linker_1, # of connection points: 2
#     Edge 63, Type (0, 0), BuildingBlock: KIFKEQ_clean_linker_1, # of connection points: 2
#     Edge 64, Type (0, 0), BuildingBlock: KIFKEQ_clean_linker_1, # of connection points: 2
#     Edge 65, Type (0, 0), BuildingBlock: KIFKEQ_clean_linker_1, # of connection points: 2
#     Edge 66, Type (0, 0), BuildingBlock: KIFKEQ_clean_linker_1, # of connection points: 2
#     Edge 67, Type (0, 0), BuildingBlock: KIFKEQ_clean_linker_1, # of connection points: 2
#     Edge 68, Type (0, 0), BuildingBlock: KIFKEQ_clean_linker_1, # of connection points: 2
#     Edge 69, Type (0, 0), BuildingBlock: KIFKEQ_clean_linker_1, # of connection points: 2
#     Edge 70, Type (0, 0), BuildingBlock: KIFKEQ_clean_linker_1, # of connection points: 2
#     Edge 71, Type (0, 0), BuildingBlock: KIFKEQ_clean_linker_1, # of connection points: 2
#     Edge 72, Type (0, 0), BuildingBlock: KIFKEQ_clean_linker_1, # of connection points: 2
#     Edge 73, Type (0, 0), BuildingBlock: KIFKEQ_clean_linker_1, # of connection points: 2
#     Edge 74, Type (0, 0), BuildingBlock: KIFKEQ_clean_linker_1, # of connection points: 2
#     Edge 75, Type (0, 0), BuildingBlock: KIFKEQ_clean_linker_1, # of connection points: 2
#     Edge 76, Type (0, 0), BuildingBlock: KIFKEQ_clean_linker_1, # of connection points: 2
#     Edge 77, Type (0, 0), BuildingBlock: KIFKEQ_clean_linker_1, # of connection points: 2
#     Edge 78, Type (0, 0), BuildingBlock: KIFKEQ_clean_linker_1, # of connection points: 2
#     Edge 79, Type (0, 0), BuildingBlock: KIFKEQ_clean_linker_1, # of connection points: 2
#     Edge 80, Type (0, 0), BuildingBlock: KIFKEQ_clean_linker_1, # of connection points: 2
#     Edge 81, Type (0, 0), BuildingBlock: KIFKEQ_clean_linker_1, # of connection points: 2
#     Edge 82, Type (0, 0), BuildingBlock: KIFKEQ_clean_linker_1, # of connection points: 2
#     Edge 83, Type (0, 0), BuildingBlock: KIFKEQ_clean_linker_1, # of connection points: 2
#     Edge 84, Type (0, 0), BuildingBlock: KIFKEQ_clean_linker_1, # of connection points: 2
#     Edge 85, Type (0, 0), BuildingBlock: KIFKEQ_clean_linker_1, # of connection points: 2
#     Edge 86, Type (0, 0), BuildingBlock: KIFKEQ_clean_linker_1, # of connection points: 2
#     Edge 87, Type (0, 0), BuildingBlock: KIFKEQ_clean_linker_1, # of connection points: 2
#     Edge 88, Type (0, 0), BuildingBlock: KIFKEQ_clean_linker_1, # of connection points: 2
#     Edge 89, Type (0, 0), BuildingBlock: KIFKEQ_clean_linker_1, # of connection points: 2
#     Edge 90, Type (0, 0), BuildingBlock: KIFKEQ_clean_linker_1, # of connection points: 2
#     Edge 91, Type (0, 0), BuildingBlock: KIFKEQ_clean_linker_1, # of connection points: 2
#     Edge 92, Type (0, 0), BuildingBlock: KIFKEQ_clean_linker_1, # of connection points: 2
#     Edge 93, Type (0, 0), BuildingBlock: KIFKEQ_clean_linker_1, # of connection points: 2
#     Edge 94, Type (0, 0), BuildingBlock: KIFKEQ_clean_linker_1, # of connection points: 2
#     Edge 95, Type (0, 0), BuildingBlock: KIFKEQ_clean_linker_1, # of connection points: 2
#     Edge 96, Type (0, 0), BuildingBlock: KIFKEQ_clean_linker_1, # of connection points: 2
#     Edge 97, Type (0, 0), BuildingBlock: KIFKEQ_clean_linker_1, # of connection points: 2
#     Edge 98, Type (0, 0), BuildingBlock: KIFKEQ_clean_linker_1, # of connection points: 2
#     Edge 99, Type (0, 0), BuildingBlock: KIFKEQ_clean_linker_1, # of connection points: 2
#     Edge 100, Type (0, 0), BuildingBlock: KIFKEQ_clean_linker_1, # of connection points: 2
#     Edge 101, Type (0, 0), BuildingBlock: KIFKEQ_clean_linker_1, # of connection points: 2
#     Edge 102, Type (0, 0), BuildingBlock: KIFKEQ_clean_linker_1, # of connection points: 2
#     Edge 103, Type (0, 0), BuildingBlock: KIFKEQ_clean_linker_1, # of connection points: 2
#     Edge 104, Type (0, 0), BuildingBlock: KIFKEQ_clean_linker_1, # of connection points: 2
#     Edge 105, Type (0, 0), BuildingBlock: KIFKEQ_clean_linker_1, # of connection points: 2
#     Edge 106, Type (0, 0), BuildingBlock: KIFKEQ_clean_linker_1, # of connection points: 2
#     Edge 107, Type (0, 0), BuildingBlock: KIFKEQ_clean_linker_1, # of connection points: 2
#     Edge 108, Type (0, 0), BuildingBlock: KIFKEQ_clean_linker_1, # of connection points: 2
#     Edge 109, Type (0, 0), BuildingBlock: KIFKEQ_clean_linker_1, # of connection points: 2
#     Edge 110, Type (0, 0), BuildingBlock: KIFKEQ_clean_linker_1, # of connection points: 2
#     Edge 111, Type (0, 0), BuildingBlock: KIFKEQ_clean_linker_1, # of connection points: 2
#     Edge 112, Type (0, 0), BuildingBlock: KIFKEQ_clean_linker_1, # of connection points: 2
#     Edge 113, Type (0, 0), BuildingBlock: KIFKEQ_clean_linker_1, # of connection points: 2
#     Edge 114, Type (0, 0), BuildingBlock: KIFKEQ_clean_linker_1, # of connection points: 2
#     Edge 115, Type (0, 0), BuildingBlock: KIFKEQ_clean_linker_1, # of connection points: 2
#     Edge 116, Type (0, 0), BuildingBlock: KIFKEQ_clean_linker_1, # of connection points: 2
#     Edge 117, Type (0, 0), BuildingBlock: KIFKEQ_clean_linker_1, # of connection points: 2
#     Edge 118, Type (0, 0), BuildingBlock: KIFKEQ_clean_linker_1, # of connection points: 2
#     Edge 119, Type (0, 0), BuildingBlock: KIFKEQ_clean_linker_1, # of connection points: 2
#     Edge 120, Type (0, 0), BuildingBlock: KIFKEQ_clean_linker_1, # of connection points: 2
#     Edge 121, Type (0, 0), BuildingBlock: KIFKEQ_clean_linker_1, # of connection points: 2
#     Edge 122, Type (0, 0), BuildingBlock: KIFKEQ_clean_linker_1, # of connection points: 2
#     Edge 123, Type (0, 0), BuildingBlock: KIFKEQ_clean_linker_1, # of connection points: 2
#     Edge 124, Type (0, 0), BuildingBlock: KIFKEQ_clean_linker_1, # of connection points: 2
#     Edge 125, Type (0, 0), BuildingBlock: KIFKEQ_clean_linker_1, # of connection points: 2
#     Edge 126, Type (0, 0), BuildingBlock: KIFKEQ_clean_linker_1, # of connection points: 2
#     Edge 127, Type (0, 0), BuildingBlock: KIFKEQ_clean_linker_1, # of connection points: 2
#     Edge 128, Type (0, 0), BuildingBlock: KIFKEQ_clean_linker_1, # of connection points: 2
#     Edge 129, Type (0, 0), BuildingBlock: KIFKEQ_clean_linker_1, # of connection points: 2
#     Edge 130, Type (0, 0), BuildingBlock: KIFKEQ_clean_linker_1, # of connection points: 2
#     Edge 131, Type (0, 0), BuildingBlock: KIFKEQ_clean_linker_1, # of connection points: 2
#     Edge 132, Type (0, 0), BuildingBlock: KIFKEQ_clean_linker_1, # of connection points: 2
#     Edge 133, Type (0, 0), BuildingBlock: KIFKEQ_clean_linker_1, # of connection points: 2
#     Edge 134, Type (0, 0), BuildingBlock: KIFKEQ_clean_linker_1, # of connection points: 2
#     Edge 135, Type (0, 0), BuildingBlock: KIFKEQ_clean_linker_1, # of connection points: 2
#     Edge 136, Type (0, 0), BuildingBlock: KIFKEQ_clean_linker_1, # of connection points: 2
#     Edge 137, Type (0, 0), BuildingBlock: KIFKEQ_clean_linker_1, # of connection points: 2
#     Edge 138, Type (0, 0), BuildingBlock: KIFKEQ_clean_linker_1, # of connection points: 2
#     Edge 139, Type (0, 0), BuildingBlock: KIFKEQ_clean_linker_1, # of connection points: 2
#     Edge 140, Type (0, 0), BuildingBlock: KIFKEQ_clean_linker_1, # of connection points: 2
#     Edge 141, Type (0, 0), BuildingBlock: KIFKEQ_clean_linker_1, # of connection points: 2
#     Edge 142, Type (0, 0), BuildingBlock: KIFKEQ_clean_linker_1, # of connection points: 2
#     Edge 143, Type (0, 0), BuildingBlock: KIFKEQ_clean_linker_1, # of connection points: 2
# Relax obj value: 0.299
# Max RMSD: 0.162
# Mean RMSD: 0.162
data_MOF--net-uko--node1-CEKHIL_clean_sbu_0--edge1-KIFKEQ_clean_linker_1
_symmetry_space_group_name_H-M    P1
_symmetry_Int_Tables_number       1
_symmetry_cell_setting            triclinic
loop_
_symmetry_equiv_pos_as_xyz
'x, y, z'
_cell_length_a     56.071841
_cell_length_b     56.07613
_cell_length_c     56.100932
_cell_angle_alpha  89.987463
_cell_angle_beta   89.997939
_cell_angle_gamma 90.00843
loop_
_atom_site_label
_atom_site_type_symbol
_atom_site_fract_x
_atom_site_fract_y
_atom_site_fract_z
_atom_type_partial_charge
Co0 Co 0.04411 0.36879 0.25104 0.0
O1 O 0.05183 0.33581 0.24592 0.0
O2 O 0.01518 0.35031 0.24945 0.0
C3 C 0.06915 0.38391 0.22357 0.0
O4 O 0.0291 0.4015 0.25564 0.0
Co5 Co 0.08266 0.40449 0.26912 0.0
O6 O 0.05894 0.42826 0.25821 0.0
C7 C 0.06248 0.36868 0.30199 0.0
C8 C 0.029 0.33193 0.2465 0.0
C9 C 0.03699 0.423 0.25567 0.0
O10 O 0.04632 0.36341 0.28655 0.0
O11 O 0.07948 0.38333 0.29774 0.0
O12 O 0.04841 0.37581 0.21707 0.0
O13 O 0.07465 0.38058 0.24563 0.0
Co14 Co 0.94764 0.12928 0.26595 0.0
O15 O 0.93947 0.16192 0.25928 0.0
O16 O 0.97633 0.14774 0.26191 0.0
C17 C 0.92193 0.11228 0.24033 0.0
O18 O 0.96317 0.09689 0.27113 0.0
Co19 Co 0.91056 0.095 0.2885 0.0
O20 O 0.93521 0.07055 0.2828 0.0
C21 C 0.93245 0.13205 0.31809 0.0
C22 C 0.96228 0.16584 0.25834 0.0
C23 C 0.95643 0.07565 0.27653 0.0
O24 O 0.94717 0.13684 0.30115 0.0
O25 O 0.91544 0.11701 0.31608 0.0
O26 O 0.94231 0.12042 0.23285 0.0
O27 O 0.91679 0.11686 0.26233 0.0
Co28 Co 0.05212 0.63529 0.25424 0.0
O29 O 0.05807 0.66914 0.25317 0.0
O30 O 0.02231 0.65231 0.25455 0.0
C31 C 0.0797 0.62651 0.28218 0.0
O32 O 0.03848 0.60173 0.25625 0.0
Co33 Co 0.09072 0.59757 0.24128 0.0
O34 O 0.069 0.57592 0.25884 0.0
C35 C 0.06771 0.62608 0.2033 0.0
C36 C 0.03502 0.67166 0.25363 0.0
C37 C 0.04694 0.58094 0.26077 0.0
O38 O 0.05227 0.63424 0.21826 0.0
O39 O 0.08513 0.61264 0.2094 0.0
O40 O 0.05892 0.63459 0.28863 0.0
O41 O 0.08349 0.62586 0.25955 0.0
Co42 Co 0.93953 0.86945 0.2368 0.0
O43 O 0.93377 0.83593 0.24193 0.0
O44 O 0.96937 0.85248 0.23716 0.0
C45 C 0.91513 0.88345 0.26549 0.0
O46 O 0.95298 0.90281 0.23237 0.0
Co47 Co 0.89896 0.90358 0.22035 0.0
O48 O 0.92336 0.92871 0.22444 0.0
C49 C 0.91919 0.86905 0.18654 0.0
C50 C 0.95678 0.83336 0.24079 0.0
C51 C 0.94522 0.92402 0.2285 0.0
O52 O 0.93626 0.86448 0.20123 0.0
O53 O 0.90151 0.88247 0.1918 0.0
O54 O 0.93638 0.87592 0.27094 0.0
O55 O 0.90866 0.88 0.24368 0.0
Co56 Co 0.26136 0.01894 0.36801 0.0
O57 O 0.2628 0.03163 0.33614 0.0
O58 O 0.26244 0.99318 0.34537 0.0
C59 C 0.23213 0.04335 0.38072 0.0
O60 O 0.2591 -0.00119 0.39811 0.0
Co61 Co 0.27136 0.04945 0.41314 0.0
O62 O 0.25235 0.02392 0.42845 0.0
C63 C 0.31139 0.03355 0.3825 0.0
C64 C 0.26282 0.00959 0.32901 0.0
C65 C 0.25211 0.00308 0.41946 0.0
O66 O 0.29726 0.0202 0.37021 0.0
O67 O 0.30422 0.04723 0.39933 0.0
O68 O 0.22678 0.02417 0.36882 0.0
O69 O 0.25455 0.0477 0.38315 0.0
Co70 Co 0.74817 0.45871 0.36967 0.0
O71 O 0.7515 0.44893 0.33702 0.0
O72 O 0.7461 0.48619 0.34922 0.0
C73 C 0.77836 0.4368 0.38429 0.0
O74 O 0.74513 0.47587 0.40141 0.0
Co75 Co 0.73609 0.42257 0.40998 0.0
O76 O 0.75054 0.44811 0.42974 0.0
C77 C 0.69818 0.43873 0.3773 0.0
C78 C 0.74904 0.47134 0.33166 0.0
C79 C 0.75012 0.46977 0.42288 0.0
O80 O 0.71261 0.45382 0.36769 0.0
O81 O 0.70441 0.42395 0.39354 0.0
O82 O 0.78281 0.45723 0.3742 0.0
O83 O 0.75656 0.42964 0.38315 0.0
Co84 Co 0.24324 0.96072 0.11558 0.0
O85 O 0.24358 0.94833 0.14751 0.0
O86 O 0.24647 0.98662 0.13796 0.0
C87 C 0.21236 0.9387 0.10249 0.0
O88 O 0.24306 0.98022 0.085 0.0
Co89 Co 0.25244 0.92777 0.07189 0.0
O90 O 0.23728 0.95471 0.0547 0.0
C91 C 0.29219 0.94102 0.10373 0.0
C92 C 0.24607 0.97029 0.15442 0.0
C93 C 0.23778 0.97578 0.06317 0.0
O94 O 0.2789 0.95672 0.11394 0.0
O95 O 0.28448 0.92662 0.08777 0.0
O96 O 0.20831 0.95824 0.11433 0.0
O97 O 0.2344 0.93245 0.10083 0.0
Co98 Co 0.74708 0.53748 0.12224 0.0
O99 O 0.75168 0.54749 0.1547 0.0
O100 O 0.74459 0.51034 0.14304 0.0
C101 C 0.77762 0.55827 0.10659 0.0
O102 O 0.74239 0.52002 0.0909 0.0
Co103 Co 0.73514 0.57366 0.08187 0.0
O104 O 0.74677 0.54707 0.06169 0.0
C105 C 0.69807 0.56007 0.11663 0.0
C106 C 0.74851 0.52524 0.16036 0.0
C107 C 0.74597 0.52559 0.06902 0.0
O108 O 0.71178 0.54372 0.12517 0.0
O109 O 0.70468 0.57478 0.10047 0.0
O110 O 0.78169 0.5378 0.11675 0.0
O111 O 0.75607 0.56605 0.10815 0.0
Co112 Co 0.37067 0.25221 0.04488 0.0
O113 O 0.33775 0.25433 0.0544 0.0
O114 O 0.35076 0.25278 0.01706 0.0
C115 C 0.381 0.22369 0.07114 0.0
O116 O 0.40231 0.24917 0.02765 0.0
Co117 Co 0.41288 0.26328 0.07893 0.0
O118 O 0.43123 0.24491 0.05492 0.0
C119 C 0.38304 0.30251 0.06002 0.0
C120 C 0.33289 0.254 0.03174 0.0
C121 C 0.42366 0.24353 0.03357 0.0
O122 O 0.37302 0.28809 0.0452 0.0
O123 O 0.39808 0.2957 0.07582 0.0
O124 O 0.37066 0.2178 0.05124 0.0
O125 O 0.38316 0.24624 0.07502 0.0
Co126 Co 0.37374 0.75526 0.4592 0.0
O127 O 0.34136 0.75289 0.44782 0.0
O128 O 0.3525 0.75187 0.48576 0.0
C129 C 0.38461 0.78608 0.43596 0.0
O130 O 0.40431 0.75791 0.47848 0.0
Co131 Co 0.418 0.74787 0.42668 0.0
O132 O 0.43506 0.76332 0.45348 0.0
C133 C 0.3885 0.70655 0.44103 0.0
C134 C 0.3354 0.75127 0.47017 0.0
C135 C 0.42609 0.76354 0.47432 0.0
O136 O 0.37726 0.71957 0.45627 0.0
O137 O 0.40412 0.7149 0.4266 0.0
O138 O 0.37278 0.79007 0.45549 0.0
O139 O 0.38776 0.76403 0.43036 0.0
Co140 Co 0.62331 0.73715 0.46728 0.0
O141 O 0.65589 0.73534 0.45647 0.0
O142 O 0.64447 0.74249 0.49365 0.0
C143 C 0.60992 0.7047 0.44793 0.0
O144 O 0.59226 0.73959 0.48575 0.0
Co145 Co 0.58121 0.74482 0.43189 0.0
O146 O 0.56167 0.73628 0.46006 0.0
C147 C 0.61379 0.78456 0.44286 0.0
C148 C 0.66174 0.73996 0.47842 0.0
C149 C 0.57002 0.73687 0.48115 0.0
O150 O 0.62291 0.77235 0.46002 0.0
O151 O 0.5983 0.77607 0.42839 0.0
O152 O 0.62119 0.70217 0.46804 0.0
O153 O 0.60912 0.726 0.43941 0.0
Co154 Co 0.12634 0.75289 0.53665 0.0
O155 O 0.15908 0.7501 0.54664 0.0
O156 O 0.14653 0.75004 0.50913 0.0
C157 C 0.11679 0.78317 0.56109 0.0
O158 O 0.09491 0.75612 0.5189 0.0
Co159 Co 0.08382 0.74465 0.57132 0.0
O160 O 0.06538 0.76035 0.54562 0.0
C161 C 0.11335 0.70405 0.5553 0.0
C162 C 0.1642 0.74898 0.52407 0.0
C163 C 0.07332 0.76133 0.5244 0.0
O164 O 0.12282 0.71719 0.539 0.0
O165 O 0.09883 0.71217 0.57095 0.0
O166 O 0.12769 0.78759 0.54111 0.0
O167 O 0.11376 0.76101 0.5663 0.0
Co168 Co 0.94731 0.6237 0.7438 0.0
O169 O 0.94156 0.65714 0.74872 0.0
O170 O 0.97697 0.6409 0.74187 0.0
C171 C 0.92448 0.61062 0.77411 0.0
O172 O 0.9605 0.5903 0.7389 0.0
Co173 Co 0.90617 0.58864 0.73117 0.0
O174 O 0.92977 0.56478 0.7423 0.0
C175 C 0.925 0.62122 0.69436 0.0
C176 C 0.9644 0.65994 0.74604 0.0
C177 C 0.95203 0.56923 0.74175 0.0
O178 O 0.94195 0.62771 0.70846 0.0
O179 O 0.90819 0.6071 0.70066 0.0
O180 O 0.94607 0.61803 0.77831 0.0
O181 O 0.91703 0.61336 0.75255 0.0
Co182 Co 0.06074 0.8568 0.76327 0.0
O183 O 0.06447 0.82294 0.76683 0.0
O184 O 0.03076 0.84118 0.75706 0.0
C185 C 0.08051 0.86688 0.7965 0.0
O186 O 0.04961 0.89098 0.75884 0.0
Co187 Co 0.10423 0.89042 0.75706 0.0
O188 O 0.08068 0.91499 0.7667 0.0
C189 C 0.08729 0.86218 0.71606 0.0
C190 C 0.04204 0.82135 0.76129 0.0
C191 C 0.05845 0.91155 0.76357 0.0
O192 O 0.06969 0.85439 0.72859 0.0
O193 O 0.1036 0.87582 0.7244 0.0
O194 O 0.05818 0.8608 0.79786 0.0
O195 O 0.09043 0.86495 0.77586 0.0
Co196 Co 0.94187 0.35653 0.73413 0.0
O197 O 0.93772 0.32261 0.73667 0.0
O198 O 0.9724 0.34155 0.73901 0.0
C199 C 0.91834 0.36139 0.70219 0.0
O200 O 0.95347 0.3907 0.73172 0.0
Co201 Co 0.89941 0.39167 0.7393 0.0
O202 O 0.92201 0.41425 0.72405 0.0
C203 C 0.91967 0.36848 0.7821 0.0
C204 C 0.96069 0.32153 0.73937 0.0
C205 C 0.94442 0.41069 0.72523 0.0
O206 O 0.93687 0.35988 0.76955 0.0
O207 O 0.90222 0.38017 0.77308 0.0
O208 O 0.94038 0.35484 0.69929 0.0
O209 O 0.91092 0.36308 0.72385 0.0
Co210 Co 0.05973 0.1256 0.74676 0.0
O211 O 0.06447 0.15954 0.74553 0.0
O212 O 0.02939 0.14152 0.74893 0.0
C213 C 0.08402 0.11604 0.71632 0.0
O214 O 0.04764 0.09146 0.74783 0.0
Co215 Co 0.10159 0.09086 0.75771 0.0
O216 O 0.0794 0.0675 0.74306 0.0
C217 C 0.0803 0.11926 0.79659 0.0
C218 C 0.04145 0.16127 0.74742 0.0
C219 C 0.05697 0.07109 0.74311 0.0
O220 O 0.06357 0.12634 0.78251 0.0
O221 O 0.09786 0.1064 0.78968 0.0
O222 O 0.06241 0.12327 0.712 0.0
O223 O 0.09068 0.11715 0.73829 0.0
Co224 Co 0.75714 0.95924 0.62683 0.0
O225 O 0.76029 0.95098 0.65997 0.0
O226 O 0.74885 0.98629 0.64614 0.0
C227 C 0.79203 0.94352 0.61496 0.0
O228 O 0.75251 0.97503 0.59462 0.0
Co229 Co 0.75521 0.92064 0.58704 0.0
O230 O 0.7611 0.94838 0.56599 0.0
C231 C 0.71313 0.9288 0.61777 0.0
C232 C 0.75372 0.97278 0.66431 0.0
C233 C 0.757 0.96962 0.57288 0.0
O234 O 0.72309 0.94736 0.62699 0.0
O235 O 0.72371 0.91504 0.60293 0.0
O236 O 0.79166 0.96465 0.62443 0.0
O237 O 0.77211 0.93209 0.61476 0.0
Co238 Co 0.24216 0.54959 0.62986 0.0
O239 O 0.24045 0.55795 0.66308 0.0
O240 O 0.2431 0.5211 0.64885 0.0
C241 C 0.21276 0.57378 0.61718 0.0
O242 O 0.24345 0.5336 0.59747 0.0
Co243 Co 0.2549 0.58646 0.59051 0.0
O244 O 0.23958 0.56221 0.56978 0.0
C245 C 0.29242 0.56856 0.62287 0.0
C246 C 0.24165 0.53516 0.66719 0.0
C247 C 0.23896 0.54041 0.57611 0.0
O248 O 0.27801 0.55263 0.63106 0.0
O249 O 0.28612 0.58455 0.60783 0.0
O250 O 0.2075 0.5532 0.62651 0.0
O251 O 0.23498 0.57963 0.61781 0.0
Co252 Co 0.75289 0.04927 0.87001 0.0
O253 O 0.75403 0.05831 0.83696 0.0
O254 O 0.75344 0.0211 0.85054 0.0
C255 C 0.781 0.07469 0.88308 0.0
O256 O 0.75249 0.03272 0.90218 0.0
Co257 Co 0.73798 0.08483 0.90977 0.0
O258 O 0.75471 0.06124 0.93016 0.0
C259 C 0.70139 0.0645 0.8779 0.0
C260 C 0.75397 0.03558 0.83246 0.0
C261 C 0.75655 0.03958 0.92359 0.0
O262 O 0.717 0.0503 0.86882 0.0
O263 O 0.70642 0.08037 0.89353 0.0
O264 O 0.78724 0.05455 0.87339 0.0
O265 O 0.75851 0.0795 0.88254 0.0
Co266 Co 0.2429 0.45672 0.87227 0.0
O267 O 0.24161 0.44774 0.83916 0.0
O268 O 0.24344 0.48486 0.85282 0.0
C269 C 0.21385 0.43211 0.88502 0.0
O270 O 0.24359 0.47344 0.90432 0.0
Co271 Co 0.25564 0.42112 0.91275 0.0
O272 O 0.2395 0.44551 0.93265 0.0
C273 C 0.29332 0.43881 0.88031 0.0
C274 C 0.24233 0.47049 0.83471 0.0
C275 C 0.23874 0.46713 0.92574 0.0
O276 O 0.27881 0.45427 0.87143 0.0
O277 O 0.28703 0.42323 0.8958 0.0
O278 O 0.20829 0.45247 0.87535 0.0
O279 O 0.23619 0.42677 0.88486 0.0
Co280 Co 0.62575 0.76472 0.94807 0.0
O281 O 0.65895 0.76526 0.93973 0.0
O282 O 0.64469 0.75842 0.97599 0.0
C283 C 0.6154 0.7978 0.92812 0.0
O284 O 0.59319 0.76371 0.96383 0.0
Co285 Co 0.58673 0.75868 0.90926 0.0
O286 O 0.56558 0.76965 0.93539 0.0
C287 C 0.6162 0.7175 0.92299 0.0
C288 C 0.66307 0.76041 0.96199 0.0
C289 C 0.5718 0.76844 0.9572 0.0
O290 O 0.62449 0.72956 0.94068 0.0
O291 O 0.60228 0.72648 0.90727 0.0
O292 O 0.62498 0.79967 0.94913 0.0
O293 O 0.6145 0.77665 0.91918 0.0
Co294 Co 0.62793 0.24739 0.54277 0.0
O295 O 0.65994 0.2498 0.5553 0.0
O296 O 0.65025 0.25192 0.51707 0.0
C297 C 0.61666 0.21561 0.56471 0.0
O298 O 0.59779 0.24506 0.52252 0.0
Co299 Co 0.58282 0.25318 0.57481 0.0
O300 O 0.56628 0.23971 0.54672 0.0
C301 C 0.61182 0.29536 0.56204 0.0
C302 C 0.66678 0.25227 0.53329 0.0
C303 C 0.57575 0.23991 0.52611 0.0
O304 O 0.62377 0.28299 0.54677 0.0
O305 O 0.59614 0.28627 0.57594 0.0
O306 O 0.62915 0.21241 0.54545 0.0
O307 O 0.61318 0.23744 0.57087 0.0
Co308 Co 0.37207 0.24672 0.53126 0.0
O309 O 0.3393 0.24753 0.54166 0.0
O310 O 0.35123 0.24723 0.50397 0.0
C311 C 0.38585 0.27477 0.55642 0.0
O312 O 0.40371 0.24668 0.5133 0.0
Co313 Co 0.41324 0.23163 0.56535 0.0
O314 O 0.43326 0.24652 0.54039 0.0
C315 C 0.37977 0.19546 0.54705 0.0
C316 C 0.33374 0.24745 0.51917 0.0
C317 C 0.42571 0.2492 0.51917 0.0
O318 O 0.37102 0.21078 0.53233 0.0
O319 O 0.39568 0.20062 0.56257 0.0
O320 O 0.3752 0.28112 0.53682 0.0
O321 O 0.3859 0.25224 0.56099 0.0
Co322 Co 0.87881 0.26981 0.47551 0.0
O323 O 0.84622 0.26888 0.46462 0.0
O324 O 0.85742 0.27002 0.50248 0.0
C325 C 0.89293 0.24083 0.45167 0.0
O326 O 0.91028 0.26952 0.49375 0.0
Co327 Co 0.91982 0.28432 0.4408 0.0
O328 O 0.94046 0.27652 0.46813 0.0
C329 C 0.88546 0.3202 0.45716 0.0
C330 C 0.8402 0.26912 0.48698 0.0
C331 C 0.93259 0.27166 0.48887 0.0
O332 O 0.87808 0.30582 0.47351 0.0
O333 O 0.90047 0.31412 0.44112 0.0
O334 O 0.88171 0.23532 0.47119 0.0
O335 O 0.89302 0.26315 0.44612 0.0
Co336 Co 0.54782 0.86455 0.73531 0.0
O337 O 0.55555 0.83128 0.73885 0.0
O338 O 0.51914 0.84664 0.74096 0.0
C339 C 0.57055 0.87114 0.70305 0.0
O340 O 0.53231 0.89708 0.73197 0.0
Co341 Co 0.58589 0.90456 0.73916 0.0
O342 O 0.56065 0.92424 0.72415 0.0
C343 C 0.56924 0.87984 0.78265 0.0
C344 C 0.53282 0.82797 0.74193 0.0
C345 C 0.53886 0.91793 0.72522 0.0
O346 O 0.55275 0.86932 0.7706 0.0
O347 O 0.58504 0.89331 0.7731 0.0
O348 O 0.54944 0.86191 0.70049 0.0
O349 O 0.57776 0.87436 0.72461 0.0
Co350 Co 0.44861 0.62634 0.75962 0.0
O351 O 0.4415 0.65993 0.76055 0.0
O352 O 0.47778 0.64419 0.76192 0.0
C353 C 0.42388 0.61733 0.72926 0.0
O354 O 0.46347 0.59333 0.7581 0.0
Co355 Co 0.41054 0.58692 0.76818 0.0
O356 O 0.43404 0.56733 0.7505 0.0
C357 C 0.42971 0.61456 0.80895 0.0
C358 C 0.46443 0.66313 0.76162 0.0
C359 C 0.45604 0.57291 0.75095 0.0
O360 O 0.44544 0.62455 0.79546 0.0
O361 O 0.41372 0.60025 0.80111 0.0
O362 O 0.44489 0.62611 0.7248 0.0
O363 O 0.41813 0.61606 0.75145 0.0
Co364 Co 0.54164 0.12147 0.7512 0.0
O365 O 0.55046 0.15424 0.7568 0.0
O366 O 0.51413 0.1415 0.74767 0.0
C367 C 0.56111 0.10595 0.78259 0.0
O368 O 0.52488 0.0899 0.74526 0.0
Co369 Co 0.57906 0.08208 0.74016 0.0
O370 O 0.55204 0.06055 0.74755 0.0
C371 C 0.56653 0.11712 0.70307 0.0
C372 C 0.52817 0.15921 0.75274 0.0
C373 C 0.53057 0.06782 0.74688 0.0
O374 O 0.54959 0.1252 0.71632 0.0
O375 O 0.58114 0.10094 0.70985 0.0
O376 O 0.54032 0.11574 0.78566 0.0
O377 O 0.57013 0.10769 0.76152 0.0
Co378 Co 0.4481 0.36357 0.75175 0.0
O379 O 0.44046 0.33047 0.75667 0.0
O380 O 0.47692 0.34505 0.75177 0.0
C381 C 0.4241 0.37834 0.78032 0.0
O382 O 0.46348 0.39607 0.74746 0.0
Co383 Co 0.41037 0.40103 0.73609 0.0
O384 O 0.43423 0.42333 0.74963 0.0
C385 C 0.42967 0.36721 0.70074 0.0
C386 C 0.46328 0.32663 0.75518 0.0
C387 C 0.45616 0.41752 0.75048 0.0
O388 O 0.44461 0.35916 0.71622 0.0
O389 O 0.41395 0.38309 0.70543 0.0
O390 O 0.44496 0.36988 0.78599 0.0
O391 O 0.41789 0.3757 0.75835 0.0
Co392 Co 0.74017 0.54978 0.86584 0.0
O393 O 0.74115 0.55774 0.83243 0.0
O394 O 0.74083 0.52107 0.84733 0.0
C395 C 0.71167 0.57614 0.87612 0.0
O396 O 0.73822 0.53393 0.89822 0.0
Co397 Co 0.7525 0.58569 0.90606 0.0
O398 O 0.73491 0.56239 0.92609 0.0
C399 C 0.79094 0.56532 0.87634 0.0
C400 C 0.74145 0.53484 0.82873 0.0
C401 C 0.73327 0.54074 0.91945 0.0
O402 O 0.77608 0.55041 0.86714 0.0
O403 O 0.78469 0.58175 0.89093 0.0
O404 O 0.70569 0.55579 0.86668 0.0
O405 O 0.73423 0.58038 0.87725 0.0
Co406 Co 0.26304 0.95793 0.86469 0.0
O407 O 0.26151 0.9482 0.8318 0.0
O408 O 0.25649 0.98519 0.84489 0.0
C409 C 0.29644 0.93751 0.8734 0.0
O410 O 0.26392 0.97548 0.89638 0.0
Co411 Co 0.26086 0.92227 0.90704 0.0
O412 O 0.27293 0.94974 0.92564 0.0
C413 C 0.21701 0.93397 0.8798 0.0
C414 C 0.25755 0.97053 0.82699 0.0
C415 C 0.27018 0.9709 0.91791 0.0
O416 O 0.22793 0.95076 0.86849 0.0
O417 O 0.22747 0.91994 0.89449 0.0
O418 O 0.29806 0.95827 0.86321 0.0
O419 O 0.27524 0.92933 0.87658 0.0
Co420 Co 0.7333 0.44983 0.62694 0.0
O421 O 0.73185 0.4425 0.66039 0.0
O422 O 0.74275 0.47732 0.64508 0.0
C423 C 0.69795 0.43356 0.61751 0.0
O424 O 0.73593 0.46489 0.59419 0.0
Co425 Co 0.73327 0.41068 0.58779 0.0
O426 O 0.72488 0.43787 0.56682 0.0
C427 C 0.77687 0.41942 0.61614 0.0
C428 C 0.73877 0.46434 0.66386 0.0
C429 C 0.72946 0.45923 0.57302 0.0
O430 O 0.76734 0.4381 0.62554 0.0
O431 O 0.76561 0.40541 0.60205 0.0
O432 O 0.69866 0.455 0.62627 0.0
O433 O 0.71793 0.4223 0.61639 0.0
Co434 Co 0.25726 0.03287 0.61638 0.0
O435 O 0.25839 0.04541 0.64844 0.0
O436 O 0.25707 0.00706 0.63878 0.0
C437 C 0.28592 0.0562 0.60075 0.0
O438 O 0.25675 0.0125 0.58646 0.0
Co439 Co 0.24321 0.06369 0.57247 0.0
O440 O 0.25689 0.03655 0.55443 0.0
C441 C 0.20696 0.0504 0.60822 0.0
C442 C 0.25785 0.02324 0.65529 0.0
C443 C 0.25915 0.01611 0.56402 0.0
O444 O 0.22139 0.03494 0.61719 0.0
O445 O 0.21294 0.06476 0.5915 0.0
O446 O 0.29179 0.03731 0.61287 0.0
O447 O 0.26352 0.06131 0.60029 0.0
Co448 Co 0.87189 0.7593 0.53911 0.0
O449 O 0.83954 0.75803 0.55041 0.0
O450 O 0.85027 0.76212 0.51259 0.0
C451 C 0.88496 0.72837 0.56114 0.0
O452 O 0.90285 0.76015 0.52025 0.0
Co453 Co 0.91516 0.76827 0.57254 0.0
O454 O 0.93252 0.75266 0.546 0.0
C455 C 0.88374 0.80842 0.55869 0.0
C456 C 0.83328 0.75999 0.5282 0.0
C457 C 0.92435 0.75383 0.52486 0.0
O458 O 0.87249 0.79502 0.54376 0.0
O459 O 0.90019 0.80069 0.57252 0.0
O460 O 0.87401 0.7244 0.54109 0.0
O461 O 0.88617 0.75035 0.56768 0.0
Co462 Co 0.87261 0.25714 0.95705 0.0
O463 O 0.84003 0.25719 0.94623 0.0
O464 O 0.85167 0.25712 0.98408 0.0
C465 C 0.88573 0.28551 0.93189 0.0
O466 O 0.90368 0.25778 0.97552 0.0
Co467 Co 0.91524 0.24405 0.92424 0.0
O468 O 0.93379 0.26063 0.94935 0.0
C469 C 0.88203 0.20657 0.9409 0.0
C470 C 0.83435 0.25713 0.9687 0.0
C471 C 0.92554 0.2621 0.97045 0.0
O472 O 0.87269 0.22122 0.95593 0.0
O473 O 0.898 0.21273 0.92576 0.0
O474 O 0.87496 0.29164 0.9515 0.0
O475 O 0.88661 0.26297 0.92757 0.0
Co476 Co 0.12531 0.24912 0.96045 0.0
O477 O 0.15818 0.2493 0.95057 0.0
O478 O 0.14548 0.25124 0.98801 0.0
C479 C 0.11357 0.21899 0.9367 0.0
O480 O 0.09372 0.2487 0.97803 0.0
Co481 Co 0.0834 0.25919 0.92569 0.0
O482 O 0.0646 0.24338 0.95116 0.0
C483 C 0.11468 0.29861 0.94154 0.0
C484 C 0.16323 0.25076 0.97314 0.0
C485 C 0.07218 0.24338 0.97255 0.0
O486 O 0.12428 0.28492 0.95731 0.0
O487 O 0.09931 0.29125 0.92632 0.0
O488 O 0.12394 0.21432 0.95692 0.0
O489 O 0.11233 0.24121 0.93098 0.0
Co490 Co 0.62537 0.2555 0.03572 0.0
O491 O 0.65807 0.25659 0.04606 0.0
O492 O 0.64598 0.25361 0.00848 0.0
C493 C 0.61234 0.28567 0.05865 0.0
O494 O 0.59399 0.25456 0.01768 0.0
Co495 Co 0.58382 0.24417 0.07074 0.0
O496 O 0.5639 0.25601 0.0441 0.0
C497 C 0.6167 0.20593 0.05549 0.0
C498 C 0.66349 0.25499 0.02359 0.0
C499 C 0.57188 0.25712 0.0229 0.0
O500 O 0.62555 0.21973 0.0394 0.0
O501 O 0.60124 0.21292 0.07078 0.0
O502 O 0.62299 0.2903 0.03859 0.0
O503 O 0.6117 0.26358 0.06492 0.0
Co504 Co 0.45062 0.12929 0.26013 0.0
O505 O 0.44547 0.16255 0.26568 0.0
O506 O 0.4799 0.14646 0.25463 0.0
C507 C 0.43149 0.11647 0.29283 0.0
O508 O 0.46284 0.09591 0.25372 0.0
Co509 Co 0.40796 0.09466 0.25262 0.0
O510 O 0.4326 0.07085 0.26168 0.0
C511 C 0.42278 0.12665 0.21354 0.0
C512 C 0.46776 0.16545 0.26014 0.0
C513 C 0.45469 0.07504 0.2583 0.0
O514 O 0.4411 0.1333 0.2257 0.0
O515 O 0.40672 0.11261 0.22172 0.0
O516 O 0.4536 0.12331 0.29448 0.0
O517 O 0.42153 0.11941 0.27236 0.0
Co518 Co 0.54229 0.37132 0.25111 0.0
O519 O 0.55259 0.33887 0.25559 0.0
O520 O 0.51563 0.35032 0.24722 0.0
C521 C 0.56117 0.38691 0.2827 0.0
O522 O 0.52429 0.40236 0.24636 0.0
Co523 Co 0.57862 0.41189 0.24036 0.0
O524 O 0.55073 0.43255 0.24671 0.0
C525 C 0.56644 0.37752 0.20276 0.0
C526 C 0.53051 0.33308 0.25151 0.0
C527 C 0.52947 0.42461 0.24698 0.0
O528 O 0.54986 0.36888 0.21609 0.0
O529 O 0.58093 0.39375 0.20967 0.0
O530 O 0.54093 0.37602 0.28567 0.0
O531 O 0.57028 0.38593 0.26161 0.0
Co532 Co 0.44089 0.86553 0.23796 0.0
O533 O 0.43491 0.83178 0.23631 0.0
O534 O 0.47045 0.8486 0.24108 0.0
C535 C 0.41758 0.87631 0.20719 0.0
O536 O 0.45461 0.89895 0.23947 0.0
Co537 Co 0.40111 0.9026 0.2483 0.0
O538 O 0.42455 0.92463 0.2335 0.0
C539 C 0.42023 0.87343 0.28762 0.0
C540 C 0.45778 0.82928 0.23925 0.0
C541 C 0.44672 0.91973 0.23413 0.0
O542 O 0.43617 0.86472 0.27357 0.0
O543 O 0.40395 0.88789 0.28075 0.0
O544 O 0.43895 0.86817 0.20315 0.0
O545 O 0.41056 0.87551 0.22907 0.0
Co546 Co 0.54694 0.62941 0.2537 0.0
O547 O 0.55438 0.66291 0.25332 0.0
O548 O 0.51799 0.64754 0.25593 0.0
C549 C 0.57118 0.61911 0.22349 0.0
O550 O 0.53172 0.59657 0.2532 0.0
Co551 Co 0.58452 0.59001 0.26366 0.0
O552 O 0.56099 0.5703 0.24604 0.0
C553 C 0.56545 0.61863 0.30357 0.0
C554 C 0.53149 0.66633 0.25469 0.0
C555 C 0.53903 0.57607 0.24618 0.0
O556 O 0.55028 0.62869 0.28952 0.0
O557 O 0.5812 0.6037 0.29645 0.0
O558 O 0.55026 0.62806 0.21894 0.0
O559 O 0.57722 0.61854 0.24565 0.0
Co560 Co 0.255 0.4581 0.12931 0.0
O561 O 0.25945 0.44901 0.1621 0.0
O562 O 0.25405 0.486 0.1491 0.0
C563 C 0.28442 0.43536 0.11418 0.0
O564 O 0.2509 0.47491 0.09757 0.0
Co565 Co 0.24118 0.42185 0.08978 0.0
O566 O 0.25426 0.44723 0.06888 0.0
C567 C 0.2049 0.43789 0.12449 0.0
C568 C 0.25751 0.4716 0.16691 0.0
C569 C 0.25437 0.46885 0.07582 0.0
O570 O 0.21944 0.45366 0.13275 0.0
O571 O 0.21072 0.4227 0.10846 0.0
O572 O 0.28949 0.45595 0.12362 0.0
O573 O 0.26251 0.42868 0.11599 0.0
Co574 Co 0.73953 0.04572 0.1306 0.0
O575 O 0.733 0.05379 0.16323 0.0
O576 O 0.73741 0.01703 0.1491 0.0
C577 C 0.71249 0.07033 0.1141 0.0
O578 O 0.74546 0.03005 0.09856 0.0
Co579 Co 0.75856 0.08312 0.09441 0.0
O580 O 0.74751 0.05906 0.07099 0.0
C581 C 0.79034 0.06426 0.13195 0.0
C582 C 0.7335 0.03096 0.16719 0.0
C583 C 0.74527 0.03724 0.07688 0.0
O584 O 0.77476 0.04828 0.13734 0.0
O585 O 0.7866 0.08062 0.11646 0.0
O586 O 0.70583 0.04965 0.12225 0.0
O587 O 0.73442 0.07604 0.11802 0.0
Co588 Co 0.2676 0.54883 0.37211 0.0
O589 O 0.27188 0.55654 0.33898 0.0
O590 O 0.26192 0.52092 0.35308 0.0
C591 C 0.30052 0.56733 0.38543 0.0
O592 O 0.26253 0.53345 0.4044 0.0
Co593 Co 0.26007 0.58802 0.41046 0.0
O594 O 0.26749 0.56146 0.43259 0.0
C595 C 0.2207 0.57576 0.37787 0.0
C596 C 0.26659 0.53436 0.33479 0.0
C597 C 0.26553 0.53978 0.42614 0.0
O598 O 0.23286 0.55796 0.36993 0.0
O599 O 0.22904 0.59085 0.39284 0.0
O600 O 0.3022 0.54608 0.37635 0.0
O601 O 0.27985 0.57731 0.38427 0.0
Co602 Co 0.73397 0.94931 0.37009 0.0
O603 O 0.73138 0.94064 0.33704 0.0
O604 O 0.73194 0.97767 0.35114 0.0
C605 C 0.70701 0.92305 0.3839 0.0
O606 O 0.73545 0.96565 0.4023 0.0
Co607 Co 0.75111 0.91406 0.40907 0.0
O608 O 0.7349 0.9372 0.43039 0.0
C609 C 0.78551 0.93368 0.37424 0.0
C610 C 0.73068 0.96345 0.33291 0.0
C611 C 0.73231 0.9588 0.42387 0.0
O612 O 0.76982 0.94887 0.36711 0.0
O613 O 0.78102 0.91746 0.38969 0.0
O614 O 0.69991 0.94322 0.37489 0.0
O615 O 0.72958 0.91885 0.38254 0.0
Co616 Co 0.12577 0.22579 0.44991 0.0
O617 O 0.15816 0.23187 0.44 0.0
O618 O 0.1465 0.22585 0.47729 0.0
C619 C 0.10851 0.25485 0.42818 0.0
O620 O 0.09456 0.22022 0.46749 0.0
Co621 Co 0.08679 0.20982 0.4139 0.0
O622 O 0.06501 0.21262 0.44148 0.0
C623 C 0.12472 0.17644 0.42781 0.0
C624 C 0.16371 0.23035 0.46244 0.0
C625 C 0.07255 0.2161 0.46262 0.0
O626 O 0.13096 0.19048 0.4449 0.0
O627 O 0.10902 0.18203 0.41224 0.0
O628 O 0.11838 0.25985 0.44856 0.0
O629 O 0.11126 0.23323 0.42083 0.0
Co630 Co 0.12123 0.75525 0.04163 0.0
O631 O 0.15388 0.75613 0.05239 0.0
O632 O 0.1421 0.75677 0.01463 0.0
C633 C 0.10891 0.72597 0.06614 0.0
O634 O 0.09029 0.75348 0.02313 0.0
Co635 Co 0.07813 0.76636 0.07461 0.0
O636 O 0.06059 0.7486 0.04947 0.0
C637 C 0.1092 0.80542 0.05783 0.0
C638 C 0.1595 0.75699 0.02991 0.0
C639 C 0.06886 0.74757 0.02835 0.0
O640 O 0.11954 0.7911 0.04315 0.0
O641 O 0.09351 0.79863 0.07298 0.0
O642 O 0.12009 0.72062 0.04652 0.0
O643 O 0.10737 0.74838 0.07096 0.0
Co644 Co 0.8708 0.73344 0.02654 0.0
O645 O 0.83852 0.73469 0.03815 0.0
O646 O 0.84905 0.73228 0.0001 0.0
C647 C 0.8847 0.76296 0.04993 0.0
O648 O 0.90143 0.73305 0.00731 0.0
Co649 Co 0.9139 0.72154 0.05928 0.0
O650 O 0.93173 0.73725 0.03312 0.0
C651 C 0.88101 0.68326 0.04406 0.0
C652 C 0.83216 0.73382 0.01589 0.0
C653 C 0.92323 0.73794 0.01209 0.0
O654 O 0.87073 0.69759 0.02932 0.0
O655 O 0.89742 0.68984 0.05852 0.0
O656 O 0.87362 0.76811 0.03021 0.0
O657 O 0.88548 0.74066 0.05543 0.0
Co658 Co 0.36559 0.7462 0.95545 0.0
O659 O 0.33229 0.74364 0.94809 0.0
O660 O 0.34699 0.7559 0.98268 0.0
C661 C 0.37604 0.71063 0.94036 0.0
O662 O 0.39849 0.75011 0.97006 0.0
Co663 Co 0.40384 0.74649 0.91538 0.0
O664 O 0.42531 0.73903 0.94244 0.0
C665 C 0.37546 0.78988 0.92441 0.0
C666 C 0.32842 0.75106 0.96966 0.0
C667 C 0.41964 0.74394 0.96387 0.0
O668 O 0.36607 0.77999 0.94292 0.0
O669 O 0.38973 0.77895 0.91032 0.0
O670 O 0.36722 0.71182 0.96174 0.0
O671 O 0.37635 0.73022 0.92834 0.0
H672 H 0.00644 0.178 0.24209 0.0
H673 H 0.93943 0.20801 0.26516 0.0
H674 H 0.02232 0.21798 0.23596 0.0
H675 H 0.95558 0.24797 0.26051 0.0
H676 H 0.98382 0.31822 0.23473 0.0
H677 H 0.96766 0.27784 0.23453 0.0
H678 H 0.03624 0.25059 0.25714 0.0
H679 H 0.05252 0.29068 0.25585 0.0
C680 C 0.99518 0.1932 0.24598 0.0
C681 C 0.97176 0.18997 0.25412 0.0
C682 C 0.0043 0.21615 0.24263 0.0
C683 C 0.99034 0.23636 0.24786 0.0
C684 C 0.96677 0.23296 0.25583 0.0
C685 C 0.95753 0.21003 0.25869 0.0
C686 C 0.99541 0.30349 0.2394 0.0
C687 C 0.01938 0.30752 0.2453 0.0
C688 C 0.98615 0.28035 0.23948 0.0
C689 C 0.00055 0.26082 0.24598 0.0
C690 C 0.02465 0.265 0.25159 0.0
C691 C 0.034 0.28805 0.25102 0.0
H692 H 0.98976 0.68357 0.26669 0.0
H693 H 0.05484 0.71326 0.23826 0.0
H694 H 0.97102 0.7227 0.26489 0.0
H695 H 0.03584 0.75214 0.23509 0.0
H696 H 0.00317 0.82384 0.25159 0.0
H697 H 0.02199 0.785 0.25611 0.0
H698 H 0.95499 0.75076 0.23894 0.0
H699 H 0.93602 0.78968 0.23583 0.0
C700 C -2e-05 0.69848 0.25987 0.0
C701 C 0.02375 0.69541 0.25266 0.0
C702 C 0.9892 0.72092 0.25865 0.0
C703 C 0.0018 0.74074 0.24975 0.0
C704 C 0.02564 0.73751 0.24249 0.0
C705 C 0.03654 0.71516 0.24414 0.0
C706 C 0.9925 0.80797 0.24887 0.0
C707 C 0.96815 0.80976 0.24337 0.0
C708 C 0.00331 0.78565 0.25128 0.0
C709 C 0.99012 0.76456 0.24781 0.0
C710 C 0.9657 0.76648 0.24222 0.0
C711 C 0.95481 0.78882 0.24024 0.0
H712 H 0.23932 0.01334 0.1761 0.0
H713 H 0.26 0.9405 0.18997 0.0
H714 H 0.24391 0.0227 0.2183 0.0
H715 H 0.26594 0.94999 0.23181 0.0
H716 H 0.24962 0.9674 0.30904 0.0
H717 H 0.24555 0.95819 0.2669 0.0
H718 H 0.27134 0.02871 0.24909 0.0
H719 H 0.27408 0.03823 0.29138 0.0
C720 C 0.24507 -0.00059 0.18818 0.0
C721 C 0.24913 0.97618 0.17984 0.0
C722 C 0.24791 0.00478 0.21235 0.0
C723 C 0.25531 0.98712 0.22861 0.0
C724 C 0.25971 0.96395 0.22003 0.0
C725 C 0.25644 0.95851 0.19598 0.0
C726 C 0.25452 0.98087 0.29609 0.0
C727 C 0.26212 0.00353 0.30345 0.0
C728 C 0.25232 0.97557 0.27187 0.0
C729 C 0.25809 0.99269 0.25443 0.0
C730 C 0.26624 0.01522 0.26192 0.0
C731 C 0.26803 0.02064 0.28617 0.0
H732 H 0.76227 0.55089 0.19926 0.0
H733 H 0.73556 0.48184 0.17798 0.0
H734 H 0.76293 0.53789 0.24069 0.0
H735 H 0.73536 0.46907 0.21947 0.0
H736 H 0.73739 0.51536 0.31451 0.0
H737 H 0.73698 0.52835 0.27304 0.0
H738 H 0.76169 0.45869 0.25109 0.0
H739 H 0.76123 0.44552 0.29242 0.0
C740 C 0.75641 0.53297 0.20347 0.0
C741 C 0.74893 0.51734 0.18541 0.0
C742 C 0.75663 0.52557 0.22723 0.0
C743 C 0.74918 0.50244 0.23344 0.0
C744 C 0.7416 0.48687 0.2153 0.0
C745 C 0.74159 0.49421 0.19152 0.0
C746 C 0.74274 0.50286 0.3008 0.0
C747 C 0.74931 0.47943 0.30667 0.0
C748 C 0.74264 0.51033 0.27704 0.0
C749 C 0.74931 0.49457 0.25871 0.0
C750 C 0.75606 0.47117 0.2647 0.0
C751 C 0.75595 0.46366 0.28841 0.0
H752 H 0.29316 0.26778 0.05606 0.0
H753 H 0.31693 0.24142 0.98775 0.0
H754 H 0.25219 0.26838 0.04163 0.0
H755 H 0.27593 0.24076 0.97363 0.0
H756 H 0.20281 0.26227 0.94744 0.0
H757 H 0.24381 0.2646 0.96161 0.0
H758 H 0.22055 0.24288 0.03188 0.0
H759 H 0.17951 0.24183 0.01791 0.0
C760 C 0.28955 0.26195 0.038 0.0
C761 C 0.30815 0.25456 0.02301 0.0
C762 C 0.26607 0.26213 0.02975 0.0
C763 C 0.26066 0.25452 0.00646 0.0
C764 C 0.2794 0.24716 0.99151 0.0
C765 C 0.30291 0.24737 -0.00036 0.0
C766 C 0.20653 0.25805 0.96592 0.0
C767 C 0.18805 0.25188 0.98159 0.0
C768 C 0.23004 0.25925 0.97404 0.0
C769 C 0.23558 0.25389 0.99792 0.0
C770 C 0.21696 0.2476 0.01351 0.0
C771 C 0.19343 0.2468 0.00548 0.0
H772 H 0.29696 0.7383 0.44322 0.0
H773 H 0.31736 0.75989 0.51422 0.0
H774 H 0.25549 0.73528 0.45604 0.0
H775 H 0.27597 0.75817 0.52679 0.0
H776 H 0.20305 0.7347 0.54946 0.0
H777 H 0.24429 0.73287 0.53597 0.0
H778 H 0.22258 0.75872 0.46661 0.0
H779 H 0.18126 0.75923 0.47984 0.0
C780 C 0.29251 0.74255 0.46152 0.0
C781 C 0.31032 0.7493 0.47774 0.0
C782 C 0.26874 0.74096 0.46887 0.0
C783 C 0.26228 0.74648 0.49249 0.0
C784 C 0.28025 0.75326 0.50863 0.0
C785 C 0.304 0.75444 0.50138 0.0
C786 C 0.20715 0.73983 0.5313 0.0
C787 C 0.18903 0.74718 0.51571 0.0
C788 C 0.2308 0.73894 0.52357 0.0
C789 C 0.2369 0.74584 0.50022 0.0
C790 C 0.2186 0.75291 0.48458 0.0
C791 C 0.1949 0.75337 0.49219 0.0
H792 H 0.81427 0.7686 0.4842 0.0
H793 H 0.79533 0.74781 0.55589 0.0
H794 H 0.77269 0.76457 0.47206 0.0
H795 H 0.75404 0.74286 0.54365 0.0
H796 H 0.67833 0.75788 0.52032 0.0
H797 H 0.7196 0.76422 0.53203 0.0
H798 H 0.74318 0.73484 0.46478 0.0
H799 H 0.70174 0.7294 0.45272 0.0
C800 C 0.80121 0.76315 0.49734 0.0
C801 C 0.80802 0.75858 0.52099 0.0
C802 C 0.77742 0.76065 0.49036 0.0
C803 C 0.75999 0.7533 0.50685 0.0
C804 C 0.76687 0.74892 0.53056 0.0
C805 C 0.79059 0.75165 0.53757 0.0
C806 C 0.69233 0.75274 0.50806 0.0
C807 C 0.68683 0.74308 0.48564 0.0
C808 C 0.71602 0.75628 0.51481 0.0
C809 C 0.73477 0.74999 0.49939 0.0
C810 C 0.7292 0.74024 0.47695 0.0
C811 C 0.70547 0.73694 0.4701 0.0
H812 H 0.06011 0.77806 0.77371 0.0
H813 H 0.99728 0.81178 0.74453 0.0
H814 H 0.04106 0.73925 0.77008 0.0
H815 H 0.97842 0.7728 0.74018 0.0
H816 H 0.9432 0.70166 0.7592 0.0
H817 H 0.96171 0.74076 0.7632 0.0
H818 H 0.02909 0.71114 0.74026 0.0
H819 H 0.0107 0.6719 0.73699 0.0
C820 C 0.04225 0.77716 0.76642 0.0
C821 C 0.03018 0.79795 0.7594 0.0
C822 C 0.03138 0.75489 0.76418 0.0
C823 C 0.00826 0.75288 0.75471 0.0
C824 C 0.99614 0.77374 0.74781 0.0
C825 C 0.00697 0.79606 0.7502 0.0
C826 C 0.96196 0.70352 0.755 0.0
C827 C 0.97553 0.68372 0.74785 0.0
C828 C 0.97254 0.72596 0.75715 0.0
C829 C 0.99689 0.7291 0.75208 0.0
C830 C 0.01038 0.70928 0.74469 0.0
C831 C -0.00017 0.68681 0.74267 0.0
H832 H 0.06114 0.20423 0.75839 0.0
H833 H 0.99505 0.17105 0.73701 0.0
H834 H 0.04173 0.24306 0.75855 0.0
H835 H 0.97585 0.20994 0.73572 0.0
H836 H 0.94127 0.27972 0.75434 0.0
H837 H 0.96088 0.24124 0.75827 0.0
H838 H 0.02693 0.27261 0.73353 0.0
H839 H 0.00747 0.31135 0.73103 0.0
C840 C 0.04248 0.20532 0.75353 0.0
C841 C 0.02957 0.18469 0.74768 0.0
C842 C 0.03135 0.2276 0.75345 0.0
C843 C 0.00718 0.22979 0.74705 0.0
C844 C 0.99434 0.20901 0.74121 0.0
C845 C 0.00536 0.18669 0.74177 0.0
C846 C 0.96002 0.27835 0.7499 0.0
C847 C 0.97287 0.29845 0.74235 0.0
C848 C 0.97126 0.25625 0.75197 0.0
C849 C 0.99551 0.25363 0.74604 0.0
C850 C 0.00836 0.27392 0.73865 0.0
C851 C 0.9972 0.29613 0.73706 0.0
H852 H 0.73763 0.05822 0.79289 0.0
H853 H 0.76996 0.99261 0.81678 0.0
H854 H 0.73609 0.04284 0.75236 0.0
H855 H 0.77003 0.97767 0.77606 0.0
H856 H 0.74748 0.94745 0.7052 0.0
H857 H 0.74647 0.96268 0.74582 0.0
H858 H 0.75854 0.0341 0.71907 0.0
H859 H 0.75787 0.01888 0.6785 0.0
C860 C 0.74474 0.04061 0.78933 0.0
C861 C 0.7539 0.02657 0.80786 0.0
C862 C 0.74401 0.0318 0.76607 0.0
C863 C 0.75297 0.00895 0.76076 0.0
C864 C 0.76245 0.99509 0.77943 0.0
C865 C 0.76264 0.00371 0.80277 0.0
C866 C 0.74973 0.96642 0.70811 0.0
C867 C 0.75267 0.98203 0.68881 0.0
C868 C 0.74938 0.97517 0.7314 0.0
C869 C 0.75255 -0.00032 0.7359 0.0
C870 C 0.75554 0.01522 0.71641 0.0
C871 C 0.75531 0.00651 0.69312 0.0
H872 H 0.25386 0.4467 0.79398 0.0
H873 H 0.2301 0.51506 0.8202 0.0
H874 H 0.25437 0.46237 0.75347 0.0
H875 H 0.22922 0.53045 0.77969 0.0
H876 H 0.25262 0.55884 0.70806 0.0
H877 H 0.25348 0.54295 0.74842 0.0
H878 H 0.23024 0.47435 0.72178 0.0
H879 H 0.23077 0.49004 0.68132 0.0
C880 C 0.24847 0.46501 0.79099 0.0
C881 C 0.24201 0.4797 0.81015 0.0
C882 C 0.24861 0.47399 0.76777 0.0
C883 C 0.24183 0.49773 0.7632 0.0
C884 C 0.23505 0.51226 0.78249 0.0
C885 C 0.23537 0.50341 0.80573 0.0
C886 C 0.24772 0.54037 0.71091 0.0
C887 C 0.24163 0.52565 0.69164 0.0
C888 C 0.24805 0.53126 0.73405 0.0
C889 C 0.24183 0.50733 0.73848 0.0
C890 C 0.23557 0.49271 0.71908 0.0
C891 C 0.23569 0.50172 0.69589 0.0
H892 H 0.70445 0.7703 0.93874 0.0
H893 H 0.67692 0.7416 0.0047 0.0
H894 H 0.74496 0.76303 0.95238 0.0
H895 H 0.71751 0.73344 0.01808 0.0
H896 H 0.81321 0.7258 0.97193 0.0
H897 H 0.77197 0.7312 0.9595 0.0
H898 H 0.75319 0.75261 0.03113 0.0
H899 H 0.79429 0.74628 0.04371 0.0
C900 C 0.70708 0.76232 0.95613 0.0
C901 C 0.68756 0.75653 0.97067 0.0
C902 C 0.7303 0.75796 0.96389 0.0
C903 C 0.73451 0.74745 0.98625 0.0
C904 C 0.71492 0.74179 0.00087 0.0
C905 C 0.69167 0.74639 0.99319 0.0
C906 C 0.80021 0.73148 0.98504 0.0
C907 C 0.80695 0.73569 0.00876 0.0
C908 C 0.77661 0.73475 0.97789 0.0
C909 C 0.75929 0.7426 0.99425 0.0
C910 C 0.76599 0.74632 0.01812 0.0
C911 C 0.78957 0.74279 0.02532 0.0
H912 H 0.70354 0.26574 0.56226 0.0
H913 H 0.6873 0.24539 0.48987 0.0
H914 H 0.74529 0.27126 0.55141 0.0
H915 H 0.72911 0.24952 0.4792 0.0
H916 H 0.80105 0.27948 0.46021 0.0
H917 H 0.75934 0.27667 0.4718 0.0
H918 H 0.78061 0.25176 0.54164 0.0
H919 H 0.82235 0.25595 0.53029 0.0
C920 C 0.70898 0.26223 0.54407 0.0
C921 C 0.69217 0.25523 0.52689 0.0
C922 C 0.73296 0.26523 0.53784 0.0
C923 C 0.74077 0.26089 0.51437 0.0
C924 C 0.72384 0.2536 0.49731 0.0
C925 C 0.69982 0.25103 0.50345 0.0
C926 C 0.79676 0.27353 0.47807 0.0
C927 C 0.81493 0.26792 0.49434 0.0
C928 C 0.77281 0.27172 0.48471 0.0
C929 C 0.7664 0.26378 0.50766 0.0
C930 C 0.78471 0.25831 0.52396 0.0
C931 C 0.80869 0.26056 0.51743 0.0
H932 H 0.17861 0.24195 0.50716 0.0
H933 H 0.20457 0.22652 0.4364 0.0
H934 H 0.21933 0.24809 0.52086 0.0
H935 H 0.24544 0.23118 0.45026 0.0
H936 H 0.31586 0.26027 0.47584 0.0
H937 H 0.27464 0.25779 0.46234 0.0
H938 H 0.25424 0.22853 0.53076 0.0
H939 H 0.29518 0.23246 0.54453 0.0
C940 C 0.19311 0.23961 0.4946 0.0
C941 C 0.18846 0.23373 0.47074 0.0
C942 C 0.21651 0.24298 0.50247 0.0
C943 C 0.23589 0.24005 0.48676 0.0
C944 C 0.23109 0.23407 0.46284 0.0
C945 C 0.20765 0.23119 0.45488 0.0
C946 C 0.30246 0.25349 0.48799 0.0
C947 C 0.30867 0.2466 0.51122 0.0
C948 C 0.27883 0.25186 0.48022 0.0
C949 C 0.26094 0.24281 0.49535 0.0
C950 C 0.2673 0.23602 0.51868 0.0
C951 C 0.29084 0.23812 0.52658 0.0
H952 H 0.55644 0.78868 0.75797 0.0
H953 H 0.48693 0.8134 0.73596 0.0
H954 H 0.54009 0.74913 0.7654 0.0
H955 H 0.47075 0.77362 0.742 0.0
H956 H 0.4426 0.70516 0.7725 0.0
H957 H 0.45943 0.74514 0.77001 0.0
H958 H 0.52634 0.71525 0.74584 0.0
H959 H 0.50982 0.67536 0.74971 0.0
C960 C 0.53768 0.78555 0.75453 0.0
C961 C 0.52294 0.80404 0.74637 0.0
C962 C 0.52831 0.76285 0.75865 0.0
C963 C 0.50406 0.75803 0.75425 0.0
C964 C 0.48937 0.77667 0.74607 0.0
C965 C 0.49867 0.79947 0.7424 0.0
C966 C 0.46097 0.70721 0.76688 0.0
C967 C 0.47491 0.68722 0.76128 0.0
C968 C 0.47059 0.73013 0.76525 0.0
C969 C 0.49424 0.73357 0.75753 0.0
C970 C 0.50822 0.7134 0.75225 0.0
C971 C 0.49872 0.69048 0.75432 0.0
H972 H 0.44004 0.28568 0.76734 0.0
H973 H 0.50894 0.31273 0.74594 0.0
H974 H 0.45613 0.24534 0.76818 0.0
H975 H 0.52486 0.27233 0.74593 0.0
H976 H 0.55139 0.19897 0.76868 0.0
H977 H 0.53584 0.23956 0.77097 0.0
H978 H 0.46908 0.21556 0.74077 0.0
H979 H 0.48433 0.17501 0.73927 0.0
C980 C 0.45862 0.28298 0.76276 0.0
C981 C 0.47322 0.30232 0.75651 0.0
C982 C 0.46781 0.25985 0.7631 0.0
C983 C 0.49175 0.25555 0.75696 0.0
C984 C 0.50643 0.27501 0.75105 0.0
C985 C 0.49727 0.29816 0.75091 0.0
C986 C 0.53339 0.20242 0.76257 0.0
C987 C 0.51905 0.18384 0.75384 0.0
C988 C 0.52451 0.22567 0.76378 0.0
C989 C 0.50118 0.23082 0.75611 0.0
C990 C 0.48695 0.21218 0.74726 0.0
C991 C 0.49575 0.18894 0.74623 0.0
H992 H 0.73494 0.55803 0.78643 0.0
H993 H 0.75071 0.48886 0.81646 0.0
H994 H 0.73545 0.54079 0.74652 0.0
H995 H 0.75217 0.47179 0.77664 0.0
H996 H 0.7243 0.44414 0.70553 0.0
H997 H 0.72583 0.46144 0.74524 0.0
H998 H 0.76071 0.52401 0.71667 0.0
H999 H 0.75832 0.507 0.67675 0.0
C1000 C 0.73875 0.5392 0.78446 0.0
C1001 C 0.7426 0.52475 0.80452 0.0
C1002 C 0.7392 0.52933 0.7616 0.0
C1003 C 0.74378 0.50487 0.75836 0.0
C1004 C 0.74813 0.49059 0.77849 0.0
C1005 C 0.74741 0.50039 0.80132 0.0
C1006 C 0.7324 0.46153 0.70776 0.0
C1007 C 0.74113 0.47425 0.68806 0.0
C1008 C 0.73341 0.47142 0.73055 0.0
C1009 C 0.74339 0.49414 0.73417 0.0
C1010 C 0.75255 0.50665 0.71446 0.0
C1011 C 0.75133 0.49684 0.69162 0.0
H1012 H 0.27106 0.9808 0.67424 0.0
H1013 H 0.24413 0.0503 0.69341 0.0
H1014 H 0.27026 0.9688 0.7158 0.0
H1015 H 0.24192 0.03794 0.73509 0.0
H1016 H 0.26421 0.01572 0.81046 0.0
H1017 H 0.26419 0.02904 0.76914 0.0
H1018 H 0.24486 0.95785 0.7465 0.0
H1019 H 0.24633 0.9444 0.78771 0.0
C1020 C 0.26475 0.99345 0.68741 0.0
C1021 C 0.25768 0.01647 0.68066 0.0
C1022 C 0.26405 0.98651 0.71126 0.0
C1023 C 0.25576 0.00226 0.72893 0.0
C1024 C 0.24872 0.0254 0.7221 0.0
C1025 C 0.24988 0.03249 0.69821 0.0
C1026 C 0.25985 0.00299 0.7966 0.0
C1027 C 0.25545 0.979 0.80222 0.0
C1028 C 0.25971 0.01064 0.77289 0.0
C1029 C 0.25473 0.99452 0.75432 0.0
C1030 C 0.24943 0.97067 0.76018 0.0
C1031 C 0.25005 0.96295 0.78383 0.0
H1032 H 0.70305 0.2448 0.0498 0.0
H1033 H 0.68004 0.26492 0.97915 0.0
H1034 H 0.74432 0.24438 0.0363 0.0
H1035 H 0.72132 0.26584 0.96586 0.0
H1036 H 0.79547 0.24359 0.94299 0.0
H1037 H 0.75417 0.24199 0.95637 0.0
H1038 H 0.7756 0.26956 0.02515 0.0
H1039 H 0.81696 0.26984 0.01208 0.0
C1040 C 0.70689 0.24936 0.03142 0.0
C1041 C 0.68843 0.25488 0.0155 0.0
C1042 C 0.73055 0.24928 0.0237 0.0
C1043 C 0.73625 0.25517 -3e-05 0.0
C1044 C 0.71764 0.26078 0.98411 0.0
C1045 C 0.69397 0.26042 0.99175 0.0
C1046 C 0.79127 0.24928 0.96095 0.0
C1047 C 0.80933 0.25681 0.97652 0.0
C1048 C 0.7676 0.24851 0.96861 0.0
C1049 C 0.76147 0.25567 0.99187 0.0
C1050 C 0.77965 0.26344 0.0073 0.0
C1051 C 0.80335 0.26378 -0.00023 0.0
H1052 H 0.48673 0.31616 0.23954 0.0
H1053 H 0.55619 0.29361 0.26419 0.0
H1054 H 0.47276 0.27517 0.24123 0.0
H1055 H 0.54196 0.25246 0.26645 0.0
H1056 H 0.51216 0.17842 0.24442 0.0
H1057 H 0.52834 0.21886 0.24164 0.0
H1058 H 0.46338 0.24677 0.27232 0.0
H1059 H 0.44712 0.20673 0.27457 0.0
C1060 C 0.499 0.30243 0.24539 0.0
C1061 C 0.52249 0.30808 0.25189 0.0
C1062 C 0.49096 0.27896 0.24647 0.0
C1063 C 0.50619 0.26064 0.25422 0.0
C1064 C 0.52987 0.26619 0.26026 0.0
C1065 C 0.53797 0.28974 0.25908 0.0
C1066 C 0.50144 0.19324 0.25063 0.0
C1067 C 0.47834 0.18947 0.25956 0.0
C1068 C 0.51071 0.21634 0.24912 0.0
C1069 C 0.49702 0.23599 0.25654 0.0
C1070 C 0.47416 0.23205 0.26598 0.0
C1071 C 0.46491 0.20907 0.26741 0.0
H1072 H 0.43785 0.78621 0.22867 0.0
H1073 H 0.50259 0.81886 0.2547 0.0
H1074 H 0.45603 0.74696 0.23266 0.0
H1075 H 0.52046 0.77964 0.25969 0.0
H1076 H 0.55376 0.70763 0.2421 0.0
H1077 H 0.536 0.74703 0.23794 0.0
H1078 H 0.46825 0.71891 0.26182 0.0
H1079 H 0.48584 0.67934 0.26496 0.0
C1080 C 0.45593 0.78496 0.23537 0.0
C1081 C 0.46884 0.80555 0.24131 0.0
C1082 C 0.4663 0.76247 0.23784 0.0
C1083 C 0.4897 0.7601 0.2466 0.0
C1084 C 0.50256 0.78079 0.25254 0.0
C1085 C 0.49228 0.80328 0.24979 0.0
C1086 C 0.5351 0.70993 0.24657 0.0
C1087 C 0.52115 0.69045 0.25379 0.0
C1088 C 0.52493 0.73253 0.24428 0.0
C1089 C 0.50065 0.73616 0.24946 0.0
C1090 C 0.48687 0.71669 0.2572 0.0
C1091 C 0.49698 0.69404 0.2592 0.0
H1092 H 0.28061 0.55664 0.29397 0.0
H1093 H 0.25052 0.4908 0.32038 0.0
H1094 H 0.27905 0.54113 0.25346 0.0
H1095 H 0.2482 0.47554 0.27979 0.0
H1096 H 0.26989 0.44678 0.20688 0.0
H1097 H 0.27277 0.46185 0.24754 0.0
H1098 H 0.25055 0.53156 0.2232 0.0
H1099 H 0.24846 0.51667 0.18251 0.0
C1100 C 0.27355 0.53889 0.29109 0.0
C1101 C 0.26569 0.52492 0.31031 0.0
C1102 C 0.27251 0.53005 0.26787 0.0
C1103 C 0.26342 0.50712 0.26337 0.0
C1104 C 0.25561 0.49314 0.28266 0.0
C1105 C 0.25681 0.50193 0.3059 0.0
C1106 C 0.26566 0.46532 0.21025 0.0
C1107 C 0.25901 0.48057 0.19155 0.0
C1108 C 0.26717 0.47393 0.23355 0.0
C1109 C 0.26191 0.49792 0.23862 0.0
C1110 C 0.25513 0.51309 0.21986 0.0
C1111 C 0.25378 0.50453 0.19656 0.0
H1112 H 0.72113 0.98575 0.17965 0.0
H1113 H 0.7401 0.05433 0.20907 0.0
H1114 H 0.71812 0.96928 0.21972 0.0
H1115 H 0.73846 0.0377 0.24907 0.0
H1116 H 0.71524 0.0073 0.31937 0.0
H1117 H 0.71345 0.02345 0.27914 0.0
H1118 H 0.74226 0.95737 0.25159 0.0
H1119 H 0.74269 0.9409 0.29173 0.0
C1120 C 0.72474 0.99725 0.19475 0.0
C1121 C 0.73081 0.02127 0.19136 0.0
C1122 C 0.7232 0.9878 0.2177 0.0
C1123 C 0.72816 0.0021 0.23769 0.0
C1124 C 0.73407 0.02624 0.23418 0.0
C1125 C 0.73515 0.03578 0.21125 0.0
C1126 C 0.72102 0.99623 0.30463 0.0
C1127 C 0.72909 0.97289 0.30855 0.0
C1128 C 0.72016 0.00551 0.28159 0.0
C1129 C 0.72783 0.99179 0.26206 0.0
C1130 C 0.73578 0.96833 0.2661 0.0
C1131 C 0.73619 0.9589 0.28911 0.0
H1132 H 0.19978 0.74951 0.05635 0.0
H1133 H 0.17558 0.76686 0.98532 0.0
H1134 H 0.24097 0.74907 0.04218 0.0
H1135 H 0.2166 0.76729 0.97136 0.0
H1136 H 0.28754 0.73661 0.94812 0.0
H1137 H 0.24713 0.73899 0.96342 0.0
H1138 H 0.27323 0.77338 0.02727 0.0
H1139 H 0.31401 0.77023 0.01218 0.0
C1140 C 0.2033 0.75349 0.03778 0.0
C1141 C 0.1845 0.758 0.02188 0.0
C1142 C 0.22689 0.75338 0.02969 0.0
C1143 C 0.23207 0.75796 0.00558 0.0
C1144 C 0.21322 0.76317 0.98991 0.0
C1145 C 0.1897 0.76305 0.99794 0.0
C1146 C 0.28468 0.74475 0.9654 0.0
C1147 C 0.30392 0.75328 0.97894 0.0
C1148 C 0.26147 0.74626 0.97412 0.0
C1149 C 0.2569 0.75653 0.99651 0.0
C1150 C 0.27617 0.76514 0.01006 0.0
C1151 C 0.29949 0.76347 0.00137 0.0
H1152 H 0.08573 0.2476 0.38609 0.0
H1153 H 0.10278 0.30252 0.43732 0.0
H1154 H 0.06923 0.2774 0.35944 0.0
H1155 H 0.08562 0.33254 0.41073 0.0
H1156 H 0.0928 0.37553 0.33952 0.0
H1157 H 0.09873 0.3495 0.37348 0.0
H1158 H 0.0388 0.30648 0.35119 0.0
H1159 H 0.03324 0.33221 0.31659 0.0
C1160 C 0.08555 0.26604 0.39185 0.0
C1161 C 0.09585 0.27277 0.41365 0.0
C1162 C 0.07584 0.28314 0.37665 0.0
C1163 C 0.07616 0.30741 0.38289 0.0
C1164 C 0.08537 0.31402 0.40527 0.0
C1165 C 0.09512 0.29684 0.42053 0.0
C1166 C 0.08058 0.36077 0.342 0.0
C1167 C 0.06285 0.3557 0.325 0.0
C1168 C 0.08387 0.34592 0.36168 0.0
C1169 C 0.06946 0.32568 0.3649 0.0
C1170 C 0.05051 0.32167 0.34894 0.0
C1171 C 0.04725 0.33651 0.32918 0.0
H1172 H 0.87829 0.19523 0.44462 0.0
H1173 H 0.93204 0.24603 0.42354 0.0
H1174 H 0.89245 0.16754 0.41449 0.0
H1175 H 0.94769 0.21774 0.3946 0.0
H1176 H 0.94403 0.17881 0.32276 0.0
H1177 H 0.93836 0.20369 0.35766 0.0
H1178 H 0.91924 0.14123 0.39889 0.0
H1179 H 0.92317 0.1168 0.36322 0.0
C1180 C 0.89361 0.20014 0.43393 0.0
C1181 C 0.90387 0.22281 0.43608 0.0
C1182 C 0.90195 0.18419 0.41671 0.0
C1183 C 0.92118 0.19035 0.4017 0.0
C1184 C 0.93241 0.21254 0.40517 0.0
C1185 C 0.92359 0.22874 0.42191 0.0
C1186 C 0.93903 0.17041 0.33943 0.0
C1187 C 0.93378 0.14598 0.3403 0.0
C1188 C 0.93587 0.18465 0.3596 0.0
C1189 C 0.92795 0.17466 0.38128 0.0
C1190 C 0.92456 0.1498 0.38244 0.0
C1191 C 0.92707 0.13569 0.36208 0.0
H1192 H 0.10931 0.67703 0.06214 0.0
H1193 H 0.08246 0.73478 0.10547 0.0
H1194 H 0.09286 0.64826 0.09066 0.0
H1195 H 0.06681 0.70655 0.13388 0.0
H1196 H 0.03502 0.65592 0.18223 0.0
H1197 H 0.03924 0.67616 0.14402 0.0
H1198 H 0.10381 0.63644 0.13012 0.0
H1199 H 0.09908 0.61555 0.16754 0.0
C1200 C 0.09972 0.68355 0.07758 0.0
C1201 C 0.09744 0.70813 0.08173 0.0
C1202 C 0.09032 0.66712 0.09391 0.0
C1203 C 0.0785 0.67505 0.11462 0.0
C1204 C 0.07535 0.69967 0.118 0.0
C1205 C 0.08465 0.71595 0.10178 0.0
C1206 C 0.04976 0.65105 0.17073 0.0
C1207 C 0.06705 0.63457 0.17829 0.0
C1208 C 0.05225 0.66274 0.14886 0.0
C1209 C 0.07221 0.65839 0.13426 0.0
C1210 C 0.08819 0.64026 0.14081 0.0
C1211 C 0.08558 0.62841 0.16251 0.0
H1212 H 0.95242 0.83839 0.16758 0.0
H1213 H 0.88562 0.8735 0.15157 0.0
H1214 H 0.94931 0.81596 0.13044 0.0
H1215 H 0.88217 0.85062 0.11519 0.0
H1216 H 0.88217 0.81173 0.04635 0.0
H1217 H 0.89579 0.84087 0.07587 0.0
H1218 H 0.92423 0.78358 0.11892 0.0
H1219 H 0.91134 0.75491 0.0894 0.0
C1220 C 0.93722 0.84153 0.15608 0.0
C1221 C 0.9191 0.85748 0.16279 0.0
C1222 C 0.93539 0.82862 0.13483 0.0
C1223 C 0.91536 0.8313 0.11993 0.0
C1224 C 0.89798 0.84826 0.12602 0.0
C1225 C 0.89986 0.86123 0.14712 0.0
C1226 C 0.89175 0.80552 0.06192 0.0
C1227 C 0.8954 0.78106 0.06574 0.0
C1228 C 0.89946 0.82215 0.07887 0.0
C1229 C 0.91094 0.81456 0.09988 0.0
C1230 C 0.91574 0.79016 0.10288 0.0
C1231 C 0.9081 0.77364 0.08601 0.0
H1232 H 0.33148 0.01838 0.34072 0.0
H1233 H 0.34794 0.05559 0.40624 0.0
H1234 H 0.36736 0.03492 0.32261 0.0
H1235 H 0.38374 0.07208 0.38781 0.0
H1236 H 0.38442 0.11633 0.3005 0.0
H1237 H 0.36178 0.08943 0.3259 0.0
H1238 H 0.42712 0.05827 0.35195 0.0
H1239 H 0.45023 0.08554 0.3261 0.0
C1240 C 0.34322 0.02916 0.35163 0.0
C1241 C 0.33646 0.03625 0.37468 0.0
C1242 C 0.36382 0.03851 0.34126 0.0
C1243 C 0.37804 0.05479 0.35388 0.0
C1244 C 0.37307 0.05939 0.37788 0.0
C1245 C 0.35243 0.05011 0.38828 0.0
C1246 C 0.39402 0.10398 0.31185 0.0
C1247 C 0.41898 0.10292 0.3114 0.0
C1248 C 0.38109 0.08855 0.32622 0.0
C1249 C 0.39283 0.07166 0.34037 0.0
C1250 C 0.41785 0.07117 0.34096 0.0
C1251 C 0.43096 0.08682 0.32645 0.0
H1252 H 0.57719 0.36681 0.32351 0.0
H1253 H 0.57453 0.43327 0.28505 0.0
H1254 H 0.6068 0.38363 0.35056 0.0
H1255 H 0.60268 0.45088 0.31289 0.0
H1256 H 0.6815 0.45553 0.33488 0.0
H1257 H 0.64361 0.4466 0.31633 0.0
H1258 H 0.62082 0.40964 0.3801 0.0
H1259 H 0.65945 0.4177 0.39829 0.0
C1260 C 0.58229 0.38534 0.3215 0.0
C1261 C 0.57393 0.39872 0.30217 0.0
C1262 C 0.59918 0.39509 0.33703 0.0
C1263 C 0.60759 0.41855 0.33365 0.0
C1264 C 0.59726 0.43254 0.31558 0.0
C1265 C 0.58094 0.42256 0.29972 0.0
C1266 C 0.66827 0.44588 0.34514 0.0
C1267 C 0.67363 0.437 0.36789 0.0
C1268 C 0.64635 0.44087 0.33455 0.0
C1269 C 0.62908 0.42716 0.34661 0.0
C1270 C 0.63385 0.41976 0.37007 0.0
C1271 C 0.65596 0.42449 0.38054 0.0
H1272 H 0.31573 0.96748 0.13734 0.0
H1273 H 0.32421 0.9063 0.09112 0.0
H1274 H 0.35133 0.95571 0.15919 0.0
H1275 H 0.3595 0.8944 0.11338 0.0
H1276 H 0.42633 0.88123 0.15907 0.0
H1277 H 0.40111 0.90199 0.12977 0.0
H1278 H 0.35162 0.92039 0.18584 0.0
H1279 H 0.37619 0.89985 0.21455 0.0
C1280 C 0.32545 0.95186 0.13145 0.0
C1281 C 0.31671 0.93747 0.1129 0.0
C1282 C 0.34584 0.94512 0.14399 0.0
C1283 C 0.35781 0.92384 0.13831 0.0
C1284 C 0.35062 0.91087 0.11817 0.0
C1285 C 0.33025 0.91764 0.10554 0.0
C1286 C 0.41012 0.88988 0.16502 0.0
C1287 C 0.40323 0.88888 0.18908 0.0
C1288 C 0.39578 0.90178 0.14832 0.0
C1289 C 0.37462 0.91313 0.15561 0.0
C1290 C 0.3681 0.91237 0.17974 0.0
C1291 C 0.38213 0.90032 0.1962 0.0
H1292 H 0.61263 0.59572 0.23105 0.0
H1293 H 0.5637 0.616 0.17507 0.0
H1294 H 0.63843 0.57704 0.2021 0.0
H1295 H 0.58994 0.59692 0.14563 0.0
H1296 H 0.66543 0.59494 0.10651 0.0
H1297 H 0.63055 0.6056 0.1299 0.0
H1298 H 0.64133 0.54362 0.17432 0.0
H1299 H 0.67666 0.53317 0.15136 0.0
C1300 C 0.60722 0.59598 0.21252 0.0
C1301 C 0.58615 0.60742 0.20532 0.0
C1302 C 0.62195 0.585 0.19592 0.0
C1303 C 0.61608 0.58523 0.17161 0.0
C1304 C 0.59485 0.59645 0.16429 0.0
C1305 C 0.5799 0.60737 0.18108 0.0
C1306 C 0.66015 0.58327 0.12097 0.0
C1307 C 0.67425 0.56354 0.12747 0.0
C1308 C 0.63998 0.58932 0.13424 0.0
C1309 C 0.6335 0.5757 0.1542 0.0
C1310 C 0.64626 0.55473 0.1593 0.0
C1311 C 0.66648 0.54873 0.14611 0.0
H1312 H 0.27485 0.39624 0.08769 0.0
H1313 H 0.33302 0.44138 0.11037 0.0
H1314 H 0.30263 0.36949 0.06871 0.0
H1315 H 0.36134 0.41431 0.0908 0.0
H1316 H 0.3957 0.33699 0.09212 0.0
H1317 H 0.37484 0.37404 0.09989 0.0
H1318 H 0.33111 0.36261 0.03752 0.0
H1319 H 0.35143 0.32494 0.03014 0.0
C1320 C 0.29363 0.4007 0.08827 0.0
C1321 C 0.30177 0.42081 0.10077 0.0
C1322 C 0.30961 0.38543 0.07708 0.0
C1323 C 0.33425 0.38977 0.0781 0.0
C1324 C 0.34244 0.41044 0.08979 0.0
C1325 C 0.32628 0.42592 0.10096 0.0
C1326 C 0.38201 0.34257 0.07968 0.0
C1327 C 0.37475 0.32759 0.0609 0.0
C1328 C 0.37016 0.36401 0.08407 0.0
C1329 C 0.35093 0.37101 0.06965 0.0
C1330 C 0.34547 0.35736 0.04932 0.0
C1331 C 0.35718 0.3358 0.04504 0.0
H1332 H 0.35077 0.68327 0.46163 0.0
H1333 H 0.41026 0.6724 0.41378 0.0
H1334 H 0.33499 0.64437 0.45072 0.0
H1335 H 0.39458 0.63334 0.40318 0.0
H1336 H 0.3332 0.59337 0.36179 0.0
H1337 H 0.35981 0.62321 0.37901 0.0
H1338 H 0.33889 0.60089 0.44975 0.0
H1339 H 0.31225 0.57112 0.43227 0.0
C1340 C 0.36084 0.67235 0.44928 0.0
C1341 C 0.38155 0.68119 0.43827 0.0
C1342 C 0.35184 0.64995 0.4431 0.0
C1343 C 0.3634 0.63588 0.42584 0.0
C1344 C 0.38506 0.64394 0.41622 0.0
C1345 C 0.39406 0.66633 0.42237 0.0
C1346 C 0.33502 0.59435 0.381 0.0
C1347 C 0.32078 0.58014 0.39577 0.0
C1348 C 0.35023 0.6114 0.39091 0.0
C1349 C 0.35127 0.6146 0.41579 0.0
C1350 C 0.3382 0.5991 0.43054 0.0
C1351 C 0.32304 0.58201 0.42058 0.0
H1352 H 0.65805 0.92385 0.38592 0.0
H1353 H 0.71975 0.88413 0.40946 0.0
H1354 H 0.63199 0.89381 0.40423 0.0
H1355 H 0.69407 0.85442 0.42734 0.0
H1356 H 0.64585 0.80981 0.46971 0.0
H1357 H 0.66542 0.84708 0.45911 0.0
H1358 H 0.62257 0.8516 0.39529 0.0
H1359 H 0.60255 0.81466 0.40606 0.0
C1360 C 0.66601 0.90889 0.39519 0.0
C1361 C 0.6909 0.90625 0.39615 0.0
C1362 C 0.65114 0.89171 0.4056 0.0
C1363 C 0.66099 0.87181 0.41732 0.0
C1364 C 0.68589 0.86972 0.41885 0.0
C1365 C 0.70064 0.88669 0.40836 0.0
C1366 C 0.64025 0.81894 0.45364 0.0
C1367 C 0.62291 0.80898 0.43853 0.0
C1368 C 0.65152 0.84028 0.44755 0.0
C1369 C 0.64579 0.85207 0.42618 0.0
C1370 C 0.6273 0.84302 0.41193 0.0
C1371 C 0.61595 0.82171 0.41806 0.0
H1372 H 0.10037 0.67163 0.58944 0.0
H1373 H 0.14602 0.68015 0.52785 0.0
H1374 H 0.12171 0.63555 0.6003 0.0
H1375 H 0.1669 0.64358 0.53847 0.0
H1376 H 0.22222 0.61368 0.59177 0.0
H1377 H 0.19448 0.63982 0.57178 0.0
H1378 H 0.13592 0.59439 0.59291 0.0
H1379 H 0.16415 0.5678 0.61332 0.0
C1380 C 0.11447 0.66546 0.57777 0.0
C1381 C 0.12191 0.6792 0.55812 0.0
C1382 C 0.1266 0.64461 0.58395 0.0
C1383 C 0.14632 0.63702 0.57054 0.0
C1384 C 0.15209 0.64933 0.54946 0.0
C1385 C 0.14005 0.67025 0.54333 0.0
C1386 C 0.20349 0.60898 0.59199 0.0
C1387 C 0.19536 0.58871 0.60425 0.0
C1388 C 0.18756 0.6239 0.58025 0.0
C1389 C 0.163 0.61907 0.58051 0.0
C1390 C 0.15478 0.59854 0.5924 0.0
C1391 C 0.17088 0.58337 0.60408 0.0
H1392 H 0.95815 0.64963 0.67228 0.0
H1393 H 0.88928 0.61659 0.6615 0.0
H1394 H 0.95332 0.67154 0.6351 0.0
H1395 H 0.88417 0.63906 0.62492 0.0
H1396 H 0.88064 0.67972 0.55647 0.0
H1397 H 0.89526 0.64939 0.58441 0.0
H1398 H 0.92791 0.70477 0.62694 0.0
H1399 H 0.91391 0.73452 0.59918 0.0
C1400 C 0.94212 0.64681 0.66189 0.0
C1401 C 0.92389 0.63174 0.67017 0.0
C1402 C 0.93933 0.6594 0.64059 0.0
C1403 C 0.91818 0.65737 0.62724 0.0
C1404 C 0.90076 0.64096 0.63463 0.0
C1405 C 0.90361 0.62823 0.65581 0.0
C1406 C 0.89134 0.68523 0.57157 0.0
C1407 C 0.8959 0.70948 0.5758 0.0
C1408 C 0.89964 0.66792 0.58759 0.0
C1409 C 0.91271 0.67465 0.60795 0.0
C1410 C 0.91826 0.69883 0.6113 0.0
C1411 C 0.90996 0.71599 0.59545 0.0
H1412 H 0.11183 0.88378 0.67979 0.0
H1413 H 0.06696 0.82317 0.69558 0.0
H1414 H 0.11607 0.87 0.63877 0.0
H1415 H 0.07213 0.80873 0.65526 0.0
H1416 H 0.0732 0.78916 0.58069 0.0
H1417 H 0.06334 0.81312 0.61535 0.0
H1418 H 0.13549 0.84051 0.61652 0.0
H1419 H 0.14453 0.81775 0.58052 0.0
C1420 C 0.10291 0.86748 0.67449 0.0
C1421 C 0.08911 0.85451 0.69093 0.0
C1422 C 0.10541 0.85953 0.65099 0.0
C1423 C 0.09445 0.83823 0.64352 0.0
C1424 C 0.08038 0.82552 0.66001 0.0
C1425 C 0.07756 0.83368 0.68331 0.0
C1426 C 0.08664 0.80097 0.58789 0.0
C1427 C 0.10957 0.80172 0.57803 0.0
C1428 C 0.08114 0.81446 0.608 0.0
C1429 C 0.09879 0.82825 0.61929 0.0
C1430 C 0.12135 0.83023 0.60835 0.0
C1431 C 0.12661 0.81721 0.58771 0.0
H1432 H 0.95515 0.34929 0.80967 0.0
H1433 H 0.88288 0.37597 0.81324 0.0
H1434 H 0.95181 0.33507 0.85056 0.0
H1435 H 0.87932 0.36105 0.8537 0.0
H1436 H 0.87745 0.33371 0.92826 0.0
H1437 H 0.89031 0.35992 0.89564 0.0
H1438 H 0.92984 0.30141 0.8647 0.0
H1439 H 0.91749 0.27582 0.89701 0.0
C1440 C 0.93865 0.35238 0.81924 0.0
C1441 C 0.9191 0.36328 0.80797 0.0
C1442 C 0.93674 0.34423 0.84268 0.0
C1443 C 0.91515 0.34654 0.85526 0.0
C1444 C 0.89626 0.35909 0.84463 0.0
C1445 C 0.89825 0.36745 0.82127 0.0
C1446 C 0.88936 0.32675 0.91474 0.0
C1447 C 0.89622 0.30268 0.91497 0.0
C1448 C 0.89662 0.34168 0.89603 0.0
C1449 C 0.91101 0.33274 0.87748 0.0
C1450 C 0.91906 0.30907 0.87878 0.0
C1451 C 0.91174 0.29425 0.89725 0.0
H1452 H 0.04537 0.14444 0.81979 0.0
H1453 H 0.11525 0.11346 0.83011 0.0
H1454 H 0.04846 0.16395 0.85846 0.0
H1455 H 0.11859 0.13356 0.86824 0.0
H1456 H 0.11936 0.17033 0.93889 0.0
H1457 H 0.1063 0.1411 0.90907 0.0
H1458 H 0.07245 0.1976 0.86901 0.0
H1459 H 0.08496 0.22624 0.89858 0.0
C1460 C 0.06125 0.14152 0.8304 0.0
C1461 C 0.08028 0.12781 0.82157 0.0
C1462 C 0.06303 0.15273 0.85255 0.0
C1463 C 0.08396 0.15068 0.86624 0.0
C1464 C 0.10217 0.13545 0.85826 0.0
C1465 C 0.10032 0.12408 0.83621 0.0
C1466 C 0.10872 0.17629 0.92392 0.0
C1467 C 0.10343 0.20057 0.9209 0.0
C1468 C 0.10131 0.15962 0.90683 0.0
C1469 C 0.08837 0.16701 0.88661 0.0
C1470 C 0.08203 0.19114 0.88448 0.0
C1471 C 0.08947 0.20768 0.90138 0.0
H1472 H 0.57007 0.91344 0.6794 0.0
H1473 H 0.60599 0.84561 0.68338 0.0
H1474 H 0.60231 0.92913 0.65434 0.0
H1475 H 0.63792 0.86091 0.65801 0.0
H1476 H 0.68661 0.89083 0.60254 0.0
H1477 H 0.64831 0.87732 0.61771 0.0
H1478 H 0.64557 0.93791 0.66508 0.0
H1479 H 0.68401 0.95166 0.64991 0.0
C1480 C 0.58452 0.90173 0.67427 0.0
C1481 C 0.58567 0.87834 0.68306 0.0
C1482 C 0.60299 0.91071 0.6601 0.0
C1483 C 0.62267 0.89628 0.65436 0.0
C1484 C 0.62287 0.87237 0.66193 0.0
C1485 C 0.60461 0.86356 0.67635 0.0
C1486 C 0.6778 0.90151 0.616 0.0
C1487 C 0.68862 0.92221 0.62523 0.0
C1488 C 0.65583 0.89371 0.62466 0.0
C1489 C 0.64404 0.90648 0.64264 0.0
C1490 C 0.65417 0.92782 0.65104 0.0
C1491 C 0.67628 0.9356 0.64246 0.0
H1492 H 0.38211 0.59444 0.73663 0.0
H1493 H 0.4303 0.61612 0.68054 0.0
H1494 H 0.35509 0.578 0.70748 0.0
H1495 H 0.40284 0.59924 0.65085 0.0
H1496 H 0.32681 0.60188 0.61323 0.0
H1497 H 0.36265 0.60977 0.63622 0.0
H1498 H 0.34959 0.54659 0.6783 0.0
H1499 H 0.31325 0.53898 0.65577 0.0
C1500 C 0.38711 0.59545 0.71802 0.0
C1501 C 0.40832 0.60669 0.71089 0.0
C1502 C 0.37167 0.58573 0.70126 0.0
C1503 C 0.37691 0.58705 0.67684 0.0
C1504 C 0.39834 0.59797 0.66958 0.0
C1505 C 0.41401 0.60763 0.68652 0.0
C1506 C 0.33178 0.58935 0.62706 0.0
C1507 C 0.31676 0.57013 0.63307 0.0
C1508 C 0.3525 0.59381 0.64012 0.0
C1509 C 0.35868 0.57909 0.65939 0.0
C1510 C 0.34495 0.55857 0.66387 0.0
C1511 C 0.32415 0.55417 0.65091 0.0
H1512 H 0.66041 0.08073 0.89893 0.0
H1513 H 0.68721 0.04785 0.83467 0.0
H1514 H 0.62142 0.08551 0.88028 0.0
H1515 H 0.64908 0.05379 0.81559 0.0
H1516 H 0.58032 0.06165 0.78256 0.0
H1517 H 0.6095 0.04583 0.81027 0.0
H1518 H 0.60406 0.11042 0.85218 0.0
H1519 H 0.57315 0.12506 0.82533 0.0
C1520 C 0.65788 0.07432 0.88089 0.0
C1521 C 0.67691 0.06407 0.8682 0.0
C1522 C 0.63558 0.07722 0.87012 0.0
C1523 C 0.63197 0.07033 0.84627 0.0
C1524 C 0.65079 0.05897 0.83409 0.0
C1525 C 0.67288 0.05566 0.84501 0.0
C1526 C 0.58478 0.07204 0.79816 0.0
C1527 C 0.57461 0.09454 0.80186 0.0
C1528 C 0.60178 0.06314 0.81393 0.0
C1529 C 0.60983 0.07708 0.83317 0.0
C1530 C 0.59834 0.09899 0.83773 0.0
C1531 C 0.58066 0.10751 0.82231 0.0
H1532 H 0.3289 0.40832 0.89393 0.0
H1533 H 0.31315 0.46493 0.84396 0.0
H1534 H 0.3647 0.39859 0.87172 0.0
H1535 H 0.34955 0.45558 0.82216 0.0
H1536 H 0.38277 0.40101 0.76998 0.0
H1537 H 0.35602 0.42136 0.7969 0.0
H1538 H 0.40411 0.40751 0.8555 0.0
H1539 H 0.43114 0.38659 0.82817 0.0
C1540 C 0.33338 0.41916 0.87858 0.0
C1541 C 0.31774 0.43699 0.87035 0.0
C1542 C 0.35411 0.41366 0.86595 0.0
C1543 C 0.35971 0.42596 0.84488 0.0
C1544 C 0.34538 0.4454 0.83804 0.0
C1545 C 0.32456 0.45083 0.85061 0.0
C1546 C 0.38788 0.40248 0.78853 0.0
C1547 C 0.40898 0.39199 0.79699 0.0
C1548 C 0.37261 0.41445 0.80398 0.0
C1549 C 0.37797 0.41623 0.82836 0.0
C1550 C 0.39946 0.40635 0.8368 0.0
C1551 C 0.41491 0.39438 0.8212 0.0
H1552 H 0.60862 0.68795 0.88478 0.0
H1553 H 0.64295 0.69067 0.95376 0.0
H1554 H 0.62829 0.65013 0.87653 0.0
H1555 H 0.66212 0.6526 0.94564 0.0
H1556 H 0.72163 0.61452 0.90355 0.0
H1557 H 0.69457 0.64479 0.91794 0.0
H1558 H 0.63522 0.60728 0.8862 0.0
H1559 H 0.66277 0.57654 0.87146 0.0
C1560 C 0.6199 0.68025 0.89843 0.0
C1561 C 0.6246 0.69265 0.91974 0.0
C1562 C 0.63104 0.65845 0.89373 0.0
C1563 C 0.64704 0.64857 0.91028 0.0
C1564 C 0.65024 0.66003 0.93234 0.0
C1565 C 0.63921 0.68184 0.937 0.0
C1566 C 0.7028 0.61245 0.89982 0.0
C1567 C 0.69434 0.59318 0.88625 0.0
C1568 C 0.68721 0.62976 0.9083 0.0
C1569 C 0.66271 0.62839 0.90335 0.0
C1570 C 0.65405 0.60882 0.89023 0.0
C1571 C 0.66975 0.59123 0.88187 0.0
H1572 H 0.64728 0.32145 0.54052 0.0
H1573 H 0.58967 0.32726 0.5915 0.0
H1574 H 0.66121 0.36101 0.55204 0.0
H1575 H 0.60373 0.36666 0.60291 0.0
H1576 H 0.66909 0.40456 0.64241 0.0
H1577 H 0.64177 0.37523 0.62549 0.0
H1578 H 0.65245 0.40564 0.55554 0.0
H1579 H 0.67933 0.43546 0.57281 0.0
C1580 C 0.63724 0.33133 0.55372 0.0
C1581 C 0.61765 0.32093 0.5654 0.0
C1582 C 0.64514 0.35408 0.56022 0.0
C1583 C 0.63365 0.36678 0.57854 0.0
C1584 C 0.61304 0.35714 0.58892 0.0
C1585 C 0.60506 0.33452 0.58235 0.0
C1586 C 0.66465 0.40563 0.62364 0.0
C1587 C 0.67615 0.42214 0.60887 0.0
C1588 C 0.64911 0.38882 0.6139 0.0
C1589 C 0.64522 0.38802 0.58914 0.0
C1590 C 0.65534 0.40576 0.57464 0.0
C1591 C 0.67061 0.42283 0.5845 0.0
H1592 H 0.33038 0.06917 0.6155 0.0
H1593 H 0.2803 0.07751 0.55778 0.0
H1594 H 0.3555 0.10014 0.59815 0.0
H1595 H 0.30613 0.10674 0.53917 0.0
H1596 H 0.33448 0.18292 0.53536 0.0
H1597 H 0.31437 0.14599 0.54491 0.0
H1598 H 0.38097 0.11616 0.57015 0.0
H1599 H 0.40069 0.15403 0.56195 0.0
C1600 C 0.32521 0.07708 0.59865 0.0
C1601 C 0.30333 0.07122 0.58811 0.0
C1602 C 0.33965 0.09478 0.58855 0.0
C1603 C 0.33274 0.10645 0.56734 0.0
C1604 C 0.31173 0.09891 0.5559 0.0
C1605 C 0.29698 0.08188 0.56642 0.0
C1606 C 0.34493 0.1683 0.54247 0.0
C1607 C 0.3691 0.17142 0.54808 0.0
C1608 C 0.33341 0.14692 0.5479 0.0
C1609 C 0.34591 0.12789 0.55858 0.0
C1610 C 0.37055 0.13053 0.56256 0.0
C1611 C 0.38196 0.15215 0.55763 0.0
H1612 H 0.82451 0.4495 0.39519 0.0
H1613 H 0.77135 0.39501 0.40721 0.0
H1614 H 0.85282 0.42701 0.41984 0.0
H1615 H 0.79928 0.3727 0.43121 0.0
H1616 H 0.8459 0.33729 0.48034 0.0
H1617 H 0.82159 0.37111 0.46794 0.0
H1618 H 0.87435 0.38969 0.41496 0.0
H1619 H 0.899 0.35664 0.42787 0.0
C1620 C 0.81888 0.43283 0.40314 0.0
C1621 C 0.79581 0.42393 0.39915 0.0
C1622 C 0.835 0.42002 0.4173 0.0
C1623 C 0.82821 0.3982 0.42773 0.0
C1624 C 0.80495 0.38971 0.42402 0.0
C1625 C 0.78899 0.40239 0.40993 0.0
C1626 C 0.8527 0.34907 0.46663 0.0
C1627 C 0.87406 0.34385 0.45463 0.0
C1628 C 0.83869 0.36836 0.4594 0.0
C1629 C 0.84574 0.38264 0.43999 0.0
C1630 C 0.86834 0.37903 0.4299 0.0
C1631 C 0.8824 0.35987 0.4372 0.0
H1632 H 0.5985 0.90156 0.81514 0.0
H1633 H 0.54516 0.84623 0.80864 0.0
H1634 H 0.60721 0.8884 0.85557 0.0
H1635 H 0.55422 0.83287 0.84883 0.0
H1636 H 0.56989 0.81365 0.92317 0.0
H1637 H 0.55522 0.83987 0.89159 0.0
H1638 H 0.62786 0.85285 0.86919 0.0
H1639 H 0.64226 0.8268 0.9009 0.0
C1640 C 0.58836 0.88682 0.82242 0.0
C1641 C 0.57142 0.87467 0.80845 0.0
C1642 C 0.59341 0.87927 0.8456 0.0
C1643 C 0.58166 0.85941 0.85531 0.0
C1644 C 0.56348 0.84837 0.84199 0.0
C1645 C 0.55838 0.85595 0.81883 0.0
C1646 C 0.58265 0.82268 0.91187 0.0
C1647 C 0.60713 0.8183 0.91426 0.0
C1648 C 0.57428 0.83759 0.89376 0.0
C1649 C 0.59034 0.84819 0.87767 0.0
C1650 C 0.61499 0.84519 0.88139 0.0
C1651 C 0.6233 0.83029 0.89952 0.0
H1652 H 0.40248 0.59403 0.84371 0.0
H1653 H 0.4528 0.65126 0.83171 0.0
H1654 H 0.39207 0.61119 0.88214 0.0
H1655 H 0.44233 0.66829 0.87033 0.0
H1656 H 0.35183 0.67972 0.91294 0.0
H1657 H 0.36912 0.65 0.88627 0.0
H1658 H 0.43889 0.66393 0.91585 0.0
H1659 H 0.42123 0.69322 0.94308 0.0
C1660 C 0.41176 0.60995 0.84947 0.0
C1661 C 0.42806 0.62162 0.83434 0.0
C1662 C 0.40579 0.61971 0.87153 0.0
C1663 C 0.41612 0.64121 0.87901 0.0
C1664 C 0.43415 0.65162 0.86502 0.0
C1665 C 0.44007 0.64191 0.84283 0.0
C1666 C 0.37067 0.67564 0.91438 0.0
C1667 C 0.38527 0.68862 0.92987 0.0
C1668 C 0.38061 0.65869 0.89915 0.0
C1669 C 0.4054 0.65482 0.8989 0.0
C1670 C 0.41977 0.66672 0.9156 0.0
C1671 C 0.4097 0.68342 0.93113 0.0
H1672 H 0.55155 0.16073 0.68801 0.0
H1673 H 0.59061 0.09853 0.66483 0.0
H1674 H 0.56184 0.18097 0.65137 0.0
H1675 H 0.59995 0.11836 0.62725 0.0
H1676 H 0.63891 0.17529 0.58048 0.0
H1677 H 0.62448 0.1484 0.61165 0.0
H1678 H 0.55644 0.18481 0.61108 0.0
H1679 H 0.5717 0.21256 0.58186 0.0
C1680 C 0.56184 0.15114 0.67477 0.0
C1681 C 0.57034 0.12808 0.67939 0.0
C1682 C 0.56766 0.1627 0.65355 0.0
C1683 C 0.58174 0.15134 0.6361 0.0
C1684 C 0.58944 0.12785 0.64036 0.0
C1685 C 0.58394 0.11641 0.66184 0.0
C1686 C 0.62075 0.17711 0.58679 0.0
C1687 C 0.60647 0.19606 0.57893 0.0
C1688 C 0.61238 0.16169 0.60462 0.0
C1689 C 0.58939 0.16472 0.61442 0.0
C1690 C 0.57451 0.18241 0.60473 0.0
C1691 C 0.58314 0.19818 0.58762 0.0
H1692 H 0.41661 0.38808 0.65877 0.0
H1693 H 0.44098 0.32163 0.68898 0.0
H1694 H 0.41081 0.36863 0.62036 0.0
H1695 H 0.43367 0.30171 0.65141 0.0
H1696 H 0.42664 0.26858 0.58154 0.0
H1697 H 0.44255 0.29386 0.61274 0.0
H1698 H 0.38442 0.34348 0.60167 0.0
H1699 H 0.36997 0.31897 0.56882 0.0
C1700 C 0.42084 0.36931 0.6571 0.0
C1701 C 0.42918 0.35632 0.67682 0.0
C1702 C 0.4173 0.35807 0.63514 0.0
C1703 C 0.42145 0.33344 0.6326 0.0
C1704 C 0.43067 0.32075 0.65226 0.0
C1705 C 0.43476 0.33213 0.674 0.0
C1706 C 0.41765 0.28521 0.5854 0.0
C1707 C 0.39704 0.29182 0.57289 0.0
C1708 C 0.42658 0.29962 0.60355 0.0
C1709 C 0.41452 0.32054 0.61037 0.0
C1710 C 0.39446 0.3277 0.59695 0.0
C1711 C 0.38601 0.3136 0.57816 0.0
H1712 H 0.88362 0.5863 0.76604 0.0
H1713 H 0.9314 0.60763 0.82257 0.0
H1714 H 0.8565 0.56949 0.79491 0.0
H1715 H 0.90382 0.59047 0.85198 0.0
H1716 H 0.82646 0.59711 0.88697 0.0
H1717 H 0.86358 0.60269 0.8654 0.0
H1718 H 0.84962 0.53879 0.82475 0.0
H1719 H 0.81205 0.53348 0.84585 0.0
C1720 C 0.88855 0.58706 0.78468 0.0
C1721 C 0.90956 0.59849 0.79205 0.0
C1722 C 0.87305 0.57713 0.80128 0.0
C1723 C 0.87804 0.5785 0.82576 0.0
C1724 C 0.89951 0.58919 0.8332 0.0
C1725 C 0.91526 0.59898 0.81643 0.0
C1726 C 0.8315 0.58389 0.87384 0.0
C1727 C 0.81589 0.56523 0.86765 0.0
C1728 C 0.85296 0.58701 0.8616 0.0
C1729 C 0.85927 0.57147 0.84302 0.0
C1730 C 0.84493 0.55137 0.83863 0.0
C1731 C 0.8234 0.54831 0.85076 0.0
H1732 H 0.18776 0.9016 0.90148 0.0
H1733 H 0.18874 0.95457 0.84539 0.0
H1734 H 0.14946 0.88716 0.88721 0.0
H1735 H 0.1501 0.94005 0.83136 0.0
H1736 H 0.07533 0.91085 0.81634 0.0
H1737 H 0.10463 0.93098 0.84207 0.0
H1738 H 0.14526 0.86569 0.84626 0.0
H1739 H 0.11662 0.84612 0.81997 0.0
C1740 C 0.17962 0.91056 0.88643 0.0
C1741 C 0.19165 0.92892 0.87423 0.0
C1742 C 0.15761 0.90228 0.87836 0.0
C1743 C 0.14702 0.91234 0.85809 0.0
C1744 C 0.15789 0.93209 0.84714 0.0
C1745 C 0.18008 0.9403 0.85511 0.0
C1746 C 0.09022 0.90077 0.82339 0.0
C1747 C 0.09385 0.87701 0.81648 0.0
C1748 C 0.10695 0.91226 0.83794 0.0
C1749 C 0.12712 0.89985 0.84613 0.0
C1750 C 0.12972 0.87558 0.84044 0.0
C1751 C 0.11338 0.86436 0.82547 0.0
H1752 H 0.87919 0.33816 0.6876 0.0
H1753 H 0.92161 0.40087 0.67418 0.0
H1754 H 0.84805 0.35338 0.66125 0.0
H1755 H 0.89 0.41666 0.64815 0.0
H1756 H 0.80172 0.37975 0.60256 0.0
H1757 H 0.83987 0.36588 0.61779 0.0
H1758 H 0.84649 0.42981 0.66006 0.0
H1759 H 0.80809 0.44388 0.64497 0.0
C1760 C 0.88205 0.3549 0.67837 0.0
C1761 C 0.90272 0.36826 0.68249 0.0
C1762 C 0.86429 0.36364 0.66336 0.0
C1763 C 0.86667 0.38619 0.6527 0.0
C1764 C 0.88781 0.39922 0.65616 0.0
C1765 C 0.90589 0.39016 0.67083 0.0
C1766 C 0.81138 0.39112 0.61481 0.0
C1767 C 0.80158 0.4128 0.62285 0.0
C1768 C 0.83327 0.38312 0.62348 0.0
C1769 C 0.846 0.39671 0.64016 0.0
C1770 C 0.83707 0.41908 0.64705 0.0
C1771 C 0.815 0.42703 0.63854 0.0
H1772 H 0.07406 0.1076 0.66904 0.0
H1773 H 0.12776 0.09685 0.72324 0.0
H1774 H 0.09943 0.08669 0.64011 0.0
H1775 H 0.15274 0.07628 0.69472 0.0
H1776 H 0.18871 0.02697 0.64702 0.0
H1777 H 0.15484 0.03936 0.67118 0.0
H1778 H 0.1385 0.09476 0.62027 0.0
H1779 H 0.17197 0.08215 0.59577 0.0
C1780 C 0.09119 0.10075 0.67476 0.0
C1781 C 0.09894 0.10388 0.69838 0.0
C1782 C 0.10564 0.08876 0.65827 0.0
C1783 C 0.1279 0.07953 0.66525 0.0
C1784 C 0.13544 0.08262 0.68891 0.0
C1785 C 0.12119 0.09467 0.70522 0.0
C1786 C 0.17755 0.04137 0.6406 0.0
C1787 C 0.18343 0.05391 0.61972 0.0
C1788 C 0.1582 0.04853 0.65452 0.0
C1789 C 0.14439 0.06838 0.64787 0.0
C1790 C 0.14883 0.07943 0.62587 0.0
C1791 C 0.16815 0.07225 0.6119 0.0
H1792 H 0.80591 0.9428 0.56855 0.0
H1793 H 0.82523 0.91836 0.63877 0.0
H1794 H 0.8335 0.91407 0.5508 0.0
H1795 H 0.85309 0.88987 0.62126 0.0
H1796 H 0.90512 0.84289 0.58576 0.0
H1797 H 0.88892 0.88162 0.59663 0.0
H1798 H 0.82901 0.86975 0.54974 0.0
H1799 H 0.84519 0.83099 0.53868 0.0
C1800 C 0.81661 0.93175 0.58017 0.0
C1801 C 0.8135 0.93257 0.60495 0.0
C1802 C 0.83233 0.9153 0.57004 0.0
C1803 C 0.84522 0.89953 0.58462 0.0
C1804 C 0.84358 0.90191 0.60954 0.0
C1805 C 0.8277 0.91823 0.61961 0.0
C1806 C 0.8887 0.84866 0.57739 0.0
C1807 C 0.87619 0.83357 0.56168 0.0
C1808 C 0.87946 0.87089 0.58365 0.0
C1809 C 0.85759 0.87859 0.57427 0.0
C1810 C 0.84601 0.86437 0.55715 0.0
C1811 C 0.85522 0.84206 0.55091 0.0
H1812 H 0.82931 0.06896 0.88893 0.0
H1813 H 0.77063 0.11583 0.90613 0.0
H1814 H 0.85688 0.09646 0.90878 0.0
H1815 H 0.79787 0.14321 0.92533 0.0
H1816 H 0.84625 0.18647 0.96757 0.0
H1817 H 0.82421 0.1502 0.95835 0.0
H1818 H 0.8723 0.13581 0.89991 0.0
H1819 H 0.89478 0.17146 0.90954 0.0
C1820 C 0.82231 0.08502 0.89705 0.0
C1821 C 0.79787 0.09035 0.89581 0.0
C1822 C 0.83805 0.10074 0.9084 0.0
C1823 C 0.82957 0.12199 0.91875 0.0
C1824 C 0.805 0.12682 0.91803 0.0
C1825 C 0.78937 0.11121 0.90673 0.0
C1826 C 0.85252 0.17526 0.95316 0.0
C1827 C 0.87197 0.18221 0.93897 0.0
C1828 C 0.83979 0.15452 0.94778 0.0
C1829 C 0.84616 0.14042 0.92804 0.0
C1830 C 0.8669 0.14621 0.91525 0.0
C1831 C 0.87971 0.16684 0.92071 0.0
H1832 H 0.10282 0.33145 0.90743 0.0
H1833 H 0.14702 0.32188 0.96989 0.0
H1834 H 0.124 0.368 0.89799 0.0
H1835 H 0.1677 0.35897 0.96076 0.0
H1836 H 0.22371 0.39243 0.91057 0.0
H1837 H 0.19615 0.36503 0.92905 0.0
H1838 H 0.13694 0.40893 0.90652 0.0
H1839 H 0.16499 0.43669 0.88752 0.0
C1840 C 0.1166 0.33745 0.91955 0.0
C1841 C 0.12364 0.32335 0.93909 0.0
C1842 C 0.12863 0.35859 0.9142 0.0
C1843 C 0.14785 0.36613 0.92835 0.0
C1844 C 0.15331 0.35329 0.9492 0.0
C1845 C 0.14139 0.33206 0.95447 0.0
C1846 C 0.20486 0.39652 0.90973 0.0
C1847 C 0.19651 0.41666 0.89742 0.0
C1848 C 0.18901 0.38087 0.92061 0.0
C1849 C 0.16432 0.38485 0.91945 0.0
C1850 C 0.15589 0.40537 0.90766 0.0
C1851 C 0.17189 0.42123 0.89681 0.0
H1852 H 0.60367 0.17181 0.08785 0.0
H1853 H 0.65187 0.1846 0.02901 0.0
H1854 H 0.62483 0.13526 0.09729 0.0
H1855 H 0.67264 0.14755 0.03817 0.0
H1856 H 0.72492 0.11073 0.0907 0.0
H1857 H 0.69899 0.13935 0.07143 0.0
H1858 H 0.63799 0.09488 0.08705 0.0
H1859 H 0.66425 0.06605 0.10682 0.0
C1860 C 0.61841 0.16656 0.07654 0.0
C1861 C 0.62639 0.18147 0.05799 0.0
C1862 C 0.63044 0.14543 0.08186 0.0
C1863 C 0.65065 0.13869 0.06871 0.0
C1864 C 0.6574 0.15254 0.04892 0.0
C1865 C 0.64542 0.17373 0.04362 0.0
C1866 C 0.70603 0.10683 0.08981 0.0
C1867 C 0.69658 0.08626 0.10049 0.0
C1868 C 0.69115 0.12317 0.07849 0.0
C1869 C 0.66641 0.11939 0.07763 0.0
C1870 C 0.65698 0.09834 0.08756 0.0
C1871 C 0.67198 0.08184 0.09882 0.0
H1872 H 0.37339 0.17526 0.07285 0.0
H1873 H 0.40982 0.23294 0.10866 0.0
H1874 H 0.38653 0.14775 0.1043 0.0
H1875 H 0.42252 0.20596 0.13973 0.0
H1876 H 0.45463 0.15266 0.18724 0.0
H1877 H 0.44764 0.17221 0.14912 0.0
H1878 H 0.37651 0.1427 0.14687 0.0
H1879 H 0.38362 0.12261 0.18464 0.0
C1880 C 0.38443 0.18196 0.08721 0.0
C1881 C 0.39047 0.20624 0.08838 0.0
C1882 C 0.39186 0.1663 0.10522 0.0
C1883 C 0.40562 0.17468 0.12447 0.0
C1884 C 0.41232 0.19879 0.12499 0.0
C1885 C 0.40481 0.21435 0.10722 0.0
C1886 C 0.4376 0.15007 0.17849 0.0
C1887 C 0.41955 0.1364 0.18923 0.0
C1888 C 0.4336 0.16128 0.15664 0.0
C1889 C 0.41142 0.15924 0.14513 0.0
C1890 C 0.39386 0.14447 0.15517 0.0
C1891 C 0.3979 0.13313 0.17697 0.0
H1892 H 0.55258 0.33374 0.18737 0.0
H1893 H 0.58816 0.39798 0.16409 0.0
H1894 H 0.56145 0.31499 0.1496 0.0
H1895 H 0.59593 0.37969 0.12541 0.0
H1896 H 0.63377 0.32618 0.07444 0.0
H1897 H 0.6203 0.35129 0.10737 0.0
H1898 H 0.55384 0.31205 0.10964 0.0
H1899 H 0.56839 0.28596 0.07841 0.0
C1900 C 0.5618 0.34408 0.1739 0.0
C1901 C 0.56973 0.36729 0.17874 0.0
C1902 C 0.56677 0.33339 0.15204 0.0
C1903 C 0.57935 0.34581 0.13418 0.0
C1904 C 0.58655 0.36941 0.13878 0.0
C1905 C 0.58197 0.37996 0.1609 0.0
C1906 C 0.61612 0.32337 0.08178 0.0
C1907 C 0.60214 0.30413 0.07412 0.0
C1908 C 0.6083 0.33777 0.10062 0.0
C1909 C 0.58612 0.33343 0.11166 0.0
C1910 C 0.57137 0.31543 0.10229 0.0
C1911 C 0.57953 0.30063 0.0841 0.0
H1912 H 0.39954 0.89525 0.32609 0.0
H1913 H 0.43907 0.83246 0.30544 0.0
H1914 H 0.39475 0.87909 0.36617 0.0
H1915 H 0.43324 0.81573 0.34471 0.0
H1916 H 0.42865 0.78921 0.4166 0.0
H1917 H 0.44146 0.81535 0.3847 0.0
H1918 H 0.37247 0.84996 0.38583 0.0
H1919 H 0.36064 0.82491 0.41943 0.0
C1920 C 0.40731 0.87805 0.33017 0.0
C1921 C 0.41959 0.86506 0.31259 0.0
C1922 C 0.40444 0.8687 0.35311 0.0
C1923 C 0.41346 0.846 0.35884 0.0
C1924 C 0.42645 0.83348 0.34135 0.0
C1925 C 0.42968 0.843 0.31862 0.0
C1926 C 0.41656 0.80296 0.41058 0.0
C1927 C 0.39368 0.80507 0.42038 0.0
C1928 C 0.42375 0.81777 0.392 0.0
C1929 C 0.40779 0.83435 0.38204 0.0
C1930 C 0.38537 0.83753 0.39301 0.0
C1931 C 0.37849 0.82315 0.41224 0.0
H1932 H 0.63296 0.66655 0.4293 0.0
H1933 H 0.56365 0.69914 0.43531 0.0
H1934 H 0.6181 0.64094 0.3974 0.0
H1935 H 0.54822 0.67283 0.40458 0.0
H1936 H 0.54598 0.65847 0.32363 0.0
H1937 H 0.55342 0.67406 0.36322 0.0
H1938 H 0.59375 0.61072 0.38083 0.0
H1939 H 0.58702 0.59552 0.34072 0.0
C1940 C 0.61426 0.66743 0.4245 0.0
C1941 C 0.59945 0.68482 0.43457 0.0
C1942 C 0.60567 0.65278 0.40622 0.0
C1943 C 0.58201 0.65516 0.398 0.0
C1944 C 0.56669 0.671 0.40992 0.0
C1945 C 0.57544 0.68594 0.42774 0.0
C1946 C 0.55603 0.64764 0.33608 0.0
C1947 C 0.5662 0.62594 0.32889 0.0
C1948 C 0.56021 0.65651 0.35894 0.0
C1949 C 0.57441 0.64375 0.37528 0.0
C1950 C 0.58318 0.62125 0.36859 0.0
C1951 C 0.57921 0.6125 0.34561 0.0
H1952 H 0.16956 0.4064 0.11269 0.0
H1953 H 0.18564 0.46457 0.16071 0.0
H1954 H 0.13333 0.39807 0.13479 0.0
H1955 H 0.14886 0.45656 0.18244 0.0
H1956 H 0.11054 0.4059 0.23532 0.0
H1957 H 0.13953 0.42394 0.20893 0.0
H1958 H 0.09378 0.40954 0.14861 0.0
H1959 H 0.06461 0.39093 0.17533 0.0
C1960 C 0.16513 0.41779 0.12764 0.0
C1961 C 0.18084 0.43584 0.13523 0.0
C1962 C 0.14417 0.41311 0.1402 0.0
C1963 C 0.13837 0.42642 0.16059 0.0
C1964 C 0.1531 0.44567 0.16707 0.0
C1965 C 0.17414 0.45032 0.15455 0.0
C1966 C 0.10646 0.4068 0.21648 0.0
C1967 C 0.0854 0.39677 0.20736 0.0
C1968 C 0.12301 0.41741 0.20133 0.0
C1969 C 0.11898 0.41824 0.17664 0.0
C1970 C 0.09747 0.409 0.16755 0.0
C1971 C 0.08077 0.3984 0.18281 0.0
H1972 H 0.80232 0.03914 0.17222 0.0
H1973 H 0.8295 0.09174 0.1228 0.0
H1974 H 0.83686 0.04562 0.19789 0.0
H1975 H 0.8635 0.09853 0.14862 0.0
H1976 H 0.92873 0.10043 0.19366 0.0
H1977 H 0.8997 0.08313 0.16627 0.0
H1978 H 0.84836 0.07873 0.22356 0.0
H1979 H 0.87754 0.09551 0.251 0.0
C1980 C 0.81581 0.05177 0.1666 0.0
C1981 C 0.81296 0.06514 0.14558 0.0
C1982 C 0.83551 0.0556 0.18141 0.0
C1983 C 0.85279 0.07278 0.17544 0.0
C1984 C 0.85065 0.08502 0.15369 0.0
C1985 C 0.831 0.08125 0.13894 0.0
C1986 C 0.91134 0.09547 0.20045 0.0
C1987 C 0.90527 0.09961 0.22439 0.0
C1988 C 0.8947 0.08561 0.18475 0.0
C1989 C 0.87165 0.07973 0.19268 0.0
C1990 C 0.86602 0.08281 0.21691 0.0
C1991 C 0.88268 0.09263 0.23261 0.0
H1992 H 0.07944 0.62744 0.33135 0.0
H1993 H 0.12027 0.60312 0.27071 0.0
H1994 H 0.11055 0.61195 0.3581 0.0
H1995 H 0.15079 0.5879 0.29699 0.0
H1996 H 0.19577 0.54761 0.34671 0.0
H1997 H 0.15832 0.55698 0.32686 0.0
H1998 H 0.1532 0.62252 0.36692 0.0
H1999 H 0.19042 0.61304 0.3872 0.0
C2000 C 0.09487 0.61865 0.32377 0.0
C2001 C 0.0974 0.61654 0.29894 0.0
C2002 C 0.11265 0.60983 0.33903 0.0
C2003 C 0.133 0.59851 0.32964 0.0
C2004 C 0.13514 0.59606 0.30485 0.0
C2005 C 0.11765 0.60501 0.28973 0.0
C2006 C 0.18652 0.56385 0.3516 0.0
C2007 C 0.1964 0.57978 0.36824 0.0
C2008 C 0.16506 0.56922 0.34019 0.0
C2009 C 0.15301 0.59066 0.34508 0.0
C2010 C 0.162 0.60582 0.36285 0.0
C2011 C 0.18347 0.60044 0.37432 0.0
H2012 H 0.80067 0.96058 0.33626 0.0
H2013 H 0.82363 0.90498 0.38452 0.0
H2014 H 0.8357 0.95342 0.31157 0.0
H2015 H 0.85813 0.89746 0.35953 0.0
H2016 H 0.92314 0.8918 0.31298 0.0
H2017 H 0.89558 0.90983 0.34164 0.0
H2018 H 0.84411 0.92033 0.28525 0.0
H2019 H 0.87161 0.90284 0.25682 0.0
C2020 C 0.81338 0.94716 0.34189 0.0
C2021 C 0.80903 0.93304 0.36215 0.0
C2022 C 0.83339 0.94295 0.32763 0.0
C2023 C 0.84945 0.92453 0.3333 0.0
C2024 C 0.84617 0.91182 0.35463 0.0
C2025 C 0.82622 0.91605 0.36891 0.0
C2026 C 0.90603 0.89824 0.30674 0.0
C2027 C 0.89944 0.89572 0.28271 0.0
C2028 C 0.89025 0.90852 0.32313 0.0
C2029 C 0.86764 0.91655 0.31575 0.0
C2030 C 0.86151 0.91474 0.29152 0.0
C2031 C 0.8772 0.90446 0.27522 0.0
H2032 H 0.11941 0.14425 0.39169 0.0
H2033 H 0.15784 0.15595 0.45751 0.0
H2034 H 0.14306 0.10895 0.38403 0.0
H2035 H 0.18102 0.1199 0.45018 0.0
H2036 H 0.24064 0.08245 0.4077 0.0
H2037 H 0.21219 0.11114 0.42268 0.0
H2038 H 0.15434 0.0689 0.39414 0.0
H2039 H 0.18326 0.0402 0.37838 0.0
C2040 C 0.13259 0.13905 0.40482 0.0
C2041 C 0.13699 0.15322 0.42505 0.0
C2042 C 0.14602 0.11859 0.40049 0.0
C2043 C 0.16409 0.11167 0.41637 0.0
C2044 C 0.16752 0.12501 0.43735 0.0
C2045 C 0.15418 0.14563 0.44161 0.0
C2046 C 0.22185 0.07907 0.40479 0.0
C2047 C 0.21418 0.05919 0.39162 0.0
C2048 C 0.20546 0.09546 0.41364 0.0
C2049 C 0.18094 0.09237 0.40965 0.0
C2050 C 0.17315 0.07193 0.39729 0.0
C2051 C 0.18966 0.05546 0.38834 0.0
H2052 H 0.16364 0.94315 0.10669 0.0
H2053 H 0.21873 0.90166 0.07237 0.0
H2054 H 0.1334 0.91589 0.09059 0.0
H2055 H 0.18914 0.8746 0.05694 0.0
H2056 H 0.13608 0.82956 0.02499 0.0
H2057 H 0.15649 0.86744 0.03084 0.0
H2058 H 0.12258 0.87508 0.0996 0.0
H2059 H 0.10147 0.83782 0.09336 0.0
C2060 C 0.16924 0.92847 0.09547 0.0
C2061 C 0.19353 0.92439 0.091 0.0
C2062 C 0.15199 0.91286 0.0863 0.0
C2063 C 0.15883 0.89306 0.07244 0.0
C2064 C 0.18308 0.88985 0.06711 0.0
C2065 C 0.20017 0.90529 0.07625 0.0
C2066 C 0.13253 0.83962 0.04109 0.0
C2067 C 0.1176 0.8304 0.05895 0.0
C2068 C 0.14426 0.86131 0.04448 0.0
C2069 C 0.14162 0.874 0.06595 0.0
C2070 C 0.125 0.86585 0.08282 0.0
C2071 C 0.11301 0.84432 0.0793 0.0
H2072 H 0.89297 0.64989 0.07757 0.0
H2073 H 0.84786 0.66081 0.01598 0.0
H2074 H 0.87081 0.61413 0.08754 0.0
H2075 H 0.8262 0.62441 0.02559 0.0
H2076 H 0.76968 0.59697 0.07903 0.0
H2077 H 0.79836 0.62114 0.05814 0.0
H2078 H 0.85502 0.57394 0.08058 0.0
H2079 H 0.82574 0.54936 0.10205 0.0
C2080 C 0.8788 0.6443 0.0657 0.0
C2081 C 0.87169 0.65867 0.04639 0.0
C2082 C 0.86621 0.62359 0.07134 0.0
C2083 C 0.84639 0.61675 0.05768 0.0
C2084 C 0.84105 0.6296 0.03681 0.0
C2085 C 0.85348 0.65045 0.03128 0.0
C2086 C 0.78816 0.59139 0.0793 0.0
C2087 C 0.79548 0.57134 0.09238 0.0
C2088 C 0.80465 0.60518 0.067 0.0
C2089 C 0.82899 0.5994 0.06749 0.0
C2090 C 0.83635 0.57884 0.07991 0.0
C2091 C 0.81966 0.56481 0.09218 0.0
H2092 H 0.31589 0.93346 0.91746 0.0
H2093 H 0.32136 0.90759 0.84537 0.0
H2094 H 0.34029 0.90015 0.93143 0.0
H2095 H 0.34547 0.87407 0.8591 0.0
H2096 H 0.39371 0.81804 0.88889 0.0
H2097 H 0.38113 0.85798 0.87747 0.0
H2098 H 0.32997 0.85826 0.93505 0.0
H2099 H 0.34281 0.81854 0.94682 0.0
C2100 C 0.32303 0.92105 0.90454 0.0
C2101 C 0.31702 0.92305 0.88038 0.0
C2102 C 0.33677 0.90185 0.91252 0.0
C2103 C 0.3445 0.88422 0.89645 0.0
C2104 C 0.34001 0.88739 0.87196 0.0
C2105 C 0.3263 0.90663 0.86402 0.0
C2106 C 0.37994 0.82668 0.8993 0.0
C2107 C 0.3691 0.81491 0.91866 0.0
C2108 C 0.37273 0.8496 0.8927 0.0
C2109 C 0.35451 0.86131 0.90527 0.0
C2110 C 0.34431 0.84992 0.92517 0.0
C2111 C 0.35154 0.82701 0.93181 0.0
H2112 H 0.00752 0.56881 0.23528 0.0
H2113 H 0.05036 0.548 0.29565 0.0
H2114 H 0.98893 0.5292 0.23486 0.0
H2115 H 0.03148 0.50897 0.29579 0.0
H2116 H 0.02988 0.453 0.21887 0.0
H2117 H 0.01668 0.49413 0.22296 0.0
H2118 H 0.99566 0.48014 0.2957 0.0
H2119 H 0.00859 0.43867 0.29128 0.0
C2120 C 0.01204 0.55616 0.24917 0.0
C2121 C 0.03055 0.56108 0.26529 0.0
C2122 C 0.00139 0.53358 0.24895 0.0
C2123 C 0.00886 0.516 0.26517 0.0
C2124 C 0.02516 0.52219 0.28319 0.0
C2125 C 0.03617 0.54445 0.28303 0.0
C2126 C 0.02106 0.4584 0.2352 0.0
C2127 C 0.02029 0.44298 0.25481 0.0
C2128 C 0.0134 0.48193 0.23757 0.0
C2129 C 0.00552 0.4904 0.25981 0.0
C2130 C 0.00174 0.47403 0.27841 0.0
C2131 C 0.00909 0.45035 0.2759 0.0
H2132 H 0.94475 0.96508 0.20308 0.0
H2133 H 0.9824 0.92877 0.25953 0.0
H2134 H 0.96374 0.00233 0.21418 0.0
H2135 H 0.00137 0.96641 0.271 0.0
H2136 H 0.96247 0.03664 0.30429 0.0
H2137 H 0.97518 0.99784 0.28995 0.0
H2138 H 0.99816 0.02979 0.22375 0.0
H2139 H 0.9856 0.0689 0.23841 0.0
C2140 C 0.95778 0.96496 0.21735 0.0
C2141 C 0.96173 0.94428 0.23081 0.0
C2142 C 0.96893 0.98626 0.22356 0.0
C2143 C 0.98386 0.98734 0.24367 0.0
C2144 C 0.98988 0.96605 0.25547 0.0
C2145 C 0.97899 0.94457 0.24895 0.0
C2146 C 0.9714 0.03553 0.28719 0.0
C2147 C 0.97261 0.05551 0.27221 0.0
C2148 C 0.97887 0.01331 0.27899 0.0
C2149 C 0.98714 0.01073 0.25548 0.0
C2150 C 0.99162 0.03131 0.24185 0.0
C2151 C 0.98447 0.05368 0.25026 0.0
H2152 H 0.29478 0.00952 0.53257 0.0
H2153 H 0.22995 0.97779 0.559 0.0
H2154 H 0.2925 0.98509 0.49704 0.0
H2155 H 0.22709 0.95345 0.52283 0.0
H2156 H 0.21379 0.9959 0.44765 0.0
H2157 H 0.21658 0.97856 0.48706 0.0
H2158 H 0.28597 0.94999 0.46963 0.0
H2159 H 0.28276 0.96714 0.42974 0.0
C2160 C 0.28065 0.99639 0.53118 0.0
C2161 C 0.2623 0.99574 0.54803 0.0
C2162 C 0.2794 0.98213 0.51092 0.0
C2163 C 0.25926 0.96768 0.50686 0.0
C2164 C 0.2427 0.96453 0.52544 0.0
C2165 C 0.24427 0.97851 0.54604 0.0
C2166 C 0.22888 0.98454 0.45173 0.0
C2167 C 0.24835 0.98336 0.43615 0.0
C2168 C 0.23051 0.97441 0.47434 0.0
C2169 C 0.25201 0.96379 0.48176 0.0
C2170 C 0.2694 0.9585 0.46448 0.0
C2171 C 0.26759 0.96834 0.44164 0.0
H2172 H 0.69753 0.46417 0.53734 0.0
H2173 H 0.76152 0.49526 0.56665 0.0
H2174 H 0.70352 0.48609 0.50061 0.0
H2175 H 0.76797 0.51709 0.52937 0.0
H2176 H 0.78536 0.47448 0.45514 0.0
H2177 H 0.7798 0.49063 0.49481 0.0
H2178 H 0.71229 0.52079 0.47313 0.0
H2179 H 0.71827 0.50478 0.43302 0.0
C2180 C 0.71243 0.47643 0.53615 0.0
C2181 C 0.72946 0.47756 0.55436 0.0
C2182 C 0.71573 0.48933 0.51523 0.0
C2183 C 0.73649 0.50304 0.51195 0.0
C2184 C 0.75189 0.50658 0.53142 0.0
C2185 C 0.74829 0.49398 0.55264 0.0
C2186 C 0.77006 0.4858 0.45851 0.0
C2187 C 0.75193 0.48794 0.44149 0.0
C2188 C 0.76689 0.49528 0.48122 0.0
C2189 C 0.74518 0.50628 0.48726 0.0
C2190 C 0.72902 0.51207 0.46897 0.0
C2191 C 0.7324 0.50288 0.44605 0.0
H2192 H 0.30062 0.97658 0.95493 0.0
H2193 H 0.23895 0.00793 0.92128 0.0
H2194 H 0.29151 0.99765 0.99151 0.0
H2195 H 0.22938 0.02886 0.95829 0.0
H2196 H 0.20541 0.98225 0.02806 0.0
H2197 H 0.21469 0.00057 0.99007 0.0
H2198 H 0.27917 0.03025 0.02001 0.0
H2199 H 0.26943 0.01211 0.05839 0.0
C2200 C 0.28573 0.98891 0.95509 0.0
C2201 C 0.2701 0.99017 0.93566 0.0
C2202 C 0.28058 0.00125 0.97601 0.0
C2203 C 0.25933 0.01447 0.97798 0.0
C2204 C 0.24574 0.01861 0.95732 0.0
C2205 C 0.25118 0.00658 0.93617 0.0
C2206 C 0.22077 0.99394 0.0269 0.0
C2207 C 0.23706 0.99529 0.04577 0.0
C2208 C 0.2261 0.00463 0.00512 0.0
C2209 C 0.24815 0.01616 0.00185 0.0
C2210 C 0.26225 0.02114 0.02198 0.0
C2211 C 0.25667 0.01075 0.04396 0.0
H2212 H 0.78102 0.51498 0.03796 0.0
H2213 H 0.7093 0.49619 0.0582 0.0
H2214 H 0.77378 0.50021 0.99798 0.0
H2215 H 0.70163 0.48188 0.01776 0.0
H2216 H 0.70049 0.5428 0.95469 0.0
H2217 H 0.70093 0.51961 0.99121 0.0
H2218 H 0.75726 0.47542 0.96272 0.0
H2219 H 0.75617 0.49841 0.9256 0.0
C2220 C 0.76417 0.5063 0.03416 0.0
C2221 C 0.74554 0.50708 0.05073 0.0
C2222 C 0.75999 0.49766 0.01127 0.0
C2223 C 0.73686 0.4906 0.00461 0.0
C2224 C 0.71952 0.48746 0.02245 0.0
C2225 C 0.72388 0.4957 0.04554 0.0
C2226 C 0.71218 0.52745 0.95586 0.0
C2227 C 0.72868 0.52267 0.93778 0.0
C2228 C 0.71225 0.5139 0.97664 0.0
C2229 C 0.72939 0.49586 0.97991 0.0
C2230 C 0.74388 0.4892 0.9606 0.0
C2231 C 0.74337 0.50245 0.93949 0.0
H2232 H 0.4578 0.2095 0.0332 0.0
H2233 H 0.42967 0.2683 0.99236 0.0
H2234 H 0.49463 0.21125 0.01059 0.0
H2235 H 0.46709 0.27067 0.97001 0.0
H2236 H 0.54043 0.29235 0.01393 0.0
H2237 H 0.50109 0.2856 0.99726 0.0
H2238 H 0.52278 0.21532 0.97443 0.0
H2239 H 0.5626 0.22257 0.99063 0.0
C2240 C 0.45919 0.2221 0.01861 0.0
C2241 C 0.44135 0.23913 0.01483 0.0
C2242 C 0.48018 0.22298 0.0054 0.0
C2243 C 0.4839 0.24144 0.98881 0.0
C2244 C 0.46467 0.25633 0.98273 0.0
C2245 C 0.44336 0.25505 0.99561 0.0
C2246 C 0.53723 0.27614 0.0039 0.0
C2247 C 0.55413 0.2578 0.00384 0.0
C2248 C 0.51471 0.27225 0.99418 0.0
C2249 C 0.5087 0.24961 0.98517 0.0
C2250 C 0.52694 0.23282 0.98146 0.0
C2251 C 0.54969 0.23695 0.99078 0.0
H2252 H 0.5353 0.70484 0.49006 0.0
H2253 H 0.56502 0.77125 0.51481 0.0
H2254 H 0.49764 0.71444 0.50885 0.0
H2255 H 0.52688 0.78139 0.53339 0.0
H2256 H 0.46083 0.79667 0.47874 0.0
H2257 H 0.49726 0.79108 0.5012 0.0
H2258 H 0.46617 0.73012 0.53665 0.0
H2259 H 0.42926 0.73619 0.51425 0.0
C2260 C 0.53407 0.72092 0.50072 0.0
C2261 C 0.55262 0.7376 0.5006 0.0
C2262 C 0.51251 0.72643 0.51172 0.0
C2263 C 0.50904 0.7491 0.52194 0.0
C2264 C 0.52898 0.76395 0.52534 0.0
C2265 C 0.55078 0.75819 0.51467 0.0
C2266 C 0.46134 0.78291 0.49231 0.0
C2267 C 0.44272 0.7664 0.49431 0.0
C2268 C 0.48217 0.77978 0.50544 0.0
C2269 C 0.48486 0.7596 0.52013 0.0
C2270 C 0.46467 0.7456 0.52519 0.0
C2271 C 0.44358 0.74902 0.5123 0.0
H2272 H 0.04282 0.7983 0.52073 0.0
H2273 H 0.06374 0.73271 0.48657 0.0
H2274 H 0.00442 0.79657 0.50099 0.0
H2275 H 0.02479 0.73048 0.46702 0.0
H2276 H 0.93357 0.78585 0.48971 0.0
H2277 H 0.97231 0.78983 0.47 0.0
H2278 H 0.99292 0.72086 0.4975 0.0
H2279 H 0.95473 0.71734 0.51742 0.0
C2280 C 0.03956 0.78418 0.50794 0.0
C2281 C 0.05579 0.76538 0.50548 0.0
C2282 C 0.01761 0.78322 0.4964 0.0
C2283 C 0.01133 0.76299 0.48294 0.0
C2284 C 0.0291 0.74614 0.47748 0.0
C2285 C 0.05134 0.74738 0.4887 0.0
C2286 C 0.94596 0.77104 0.49035 0.0
C2287 C 0.94167 0.75156 0.50545 0.0
C2288 C 0.96808 0.77328 0.47903 0.0
C2289 C 0.98587 0.75598 0.48273 0.0
C2290 C 0.97971 0.73459 0.49432 0.0
C2291 C 0.95788 0.73259 0.50596 0.0
H2292 H 0.98334 0.42218 0.7518 0.0
H2293 H 0.94029 0.44612 0.69269 0.0
H2294 H 0.00098 0.46201 0.75505 0.0
H2295 H 0.9583 0.4855 0.69543 0.0
H2296 H 0.98137 0.55611 0.70577 0.0
H2297 H 0.9945 0.51508 0.6984 0.0
H2298 H 0.97079 0.49511 0.76888 0.0
H2299 H 0.9571 0.53571 0.77579 0.0
C2300 C 0.97853 0.43563 0.7388 0.0
C2301 C 0.96013 0.43143 0.72233 0.0
C2302 C 0.98869 0.45833 0.74061 0.0
C2303 C 0.98088 0.4768 0.72562 0.0
C2304 C 0.96481 0.47155 0.70711 0.0
C2305 C 0.95428 0.4491 0.70568 0.0
C2306 C 0.98019 0.54315 0.72006 0.0
C2307 C 0.96806 0.54869 0.74121 0.0
C2308 C 0.9877 0.51975 0.71586 0.0
C2309 C 0.98341 0.50195 0.73296 0.0
C2310 C 0.97448 0.5085 0.75544 0.0
C2311 C 0.9665 0.53168 0.75939 0.0
H2312 H 0.02071 0.05806 0.77245 0.0
H2313 H 0.05968 0.03649 0.70976 0.0
H2314 H 0.00607 0.01718 0.77737 0.0
H2315 H 0.04457 0.99604 0.71415 0.0
H2316 H 0.02666 0.92329 0.72895 0.0
H2317 H 0.01123 0.96352 0.72132 0.0
H2318 H 0.04062 0.98719 0.78843 0.0
H2319 H 0.05663 0.9475 0.79551 0.0
C2320 C 0.02504 0.04487 0.75902 0.0
C2321 C 0.04161 0.05006 0.741 0.0
C2322 C 0.01664 0.02156 0.7618 0.0
C2323 C 0.0244 0.00348 0.74629 0.0
C2324 C 0.03817 0.00964 0.72629 0.0
C2325 C 0.047 0.03272 0.72386 0.0
C2326 C 0.02887 0.93692 0.74245 0.0
C2327 C 0.04308 0.93265 0.76261 0.0
C2328 C 0.02 0.95983 0.73813 0.0
C2329 C 0.02482 0.9784 0.75424 0.0
C2330 C 0.03641 0.97317 0.77583 0.0
C2331 C 0.04579 0.95053 0.77981 0.0
H2332 H 0.70111 0.95642 0.46042 0.0
H2333 H 0.75562 0.00102 0.42948 0.0
H2334 H 0.70398 0.97839 0.49753 0.0
H2335 H 0.75912 0.02285 0.46714 0.0
H2336 H 0.71878 0.99827 0.56528 0.0
H2337 H 0.70758 0.01387 0.52612 0.0
H2338 H 0.77782 0.9966 0.49959 0.0
H2339 H 0.78855 0.98056 0.53828 0.0
C2340 C 0.71302 0.97162 0.46135 0.0
C2341 C 0.72862 0.97669 0.44255 0.0
C2342 C 0.71448 0.98448 0.4825 0.0
C2343 C 0.73215 0.00207 0.48538 0.0
C2344 C 0.74544 0.00931 0.46539 0.0
C2345 C 0.74355 0.99673 0.44394 0.0
C2346 C 0.73216 -0.0009 0.55137 0.0
C2347 C 0.75424 0.98773 0.55431 0.0
C2348 C 0.7258 0.00811 0.52902 0.0
C2349 C 0.7416 0.00584 0.50968 0.0
C2350 C 0.76518 -0.00148 0.51407 0.0
C2351 C 0.77133 0.98909 0.53618 0.0
H2352 H 0.29661 0.53321 0.46219 0.0
H2353 H 0.23071 0.50676 0.43269 0.0
H2354 H 0.28743 0.51434 0.50002 0.0
H2355 H 0.22094 0.48829 0.47105 0.0
H2356 H 0.20642 0.53986 0.54066 0.0
H2357 H 0.21185 0.52065 0.5023 0.0
H2358 H 0.27291 0.4826 0.52986 0.0
H2359 H 0.26691 0.50152 0.56871 0.0
C2360 C 0.28065 0.52238 0.46359 0.0
C2361 C 0.26407 0.52179 0.44498 0.0
C2362 C 0.27545 0.51129 0.48517 0.0
C2363 C 0.2532 0.50023 0.4886 0.0
C2364 C 0.23816 0.49678 0.46885 0.0
C2365 C 0.24367 0.50745 0.447 0.0
C2366 C 0.22019 0.52641 0.53884 0.0
C2367 C 0.23665 0.52257 0.55719 0.0
C2368 C 0.22319 0.51515 0.51694 0.0
C2369 C 0.2432 0.50056 0.51297 0.0
C2370 C 0.25745 0.49389 0.53248 0.0
C2371 C 0.2541 0.50481 0.55462 0.0
H2372 H 0.72843 0.0016 0.934 0.0
H2373 H 0.79226 0.03857 0.9557 0.0
H2374 H 0.72583 0.98294 0.97339 0.0
H2375 H 0.79022 0.01961 0.99454 0.0
H2376 H 0.77887 0.00437 0.06573 0.0
H2377 H 0.7842 0.98691 0.02603 0.0
H2378 H 0.71524 0.01428 0.00519 0.0
H2379 H 0.71041 0.03204 0.04439 0.0
C2380 C 0.74263 0.0046 0.94674 0.0
C2381 C 0.76025 0.0218 0.9423 0.0
C2382 C 0.74121 0.99388 0.9692 0.0
C2383 C 0.75755 0.00017 0.98714 0.0
C2384 C 0.77735 0.01435 0.98113 0.0
C2385 C 0.77846 0.02543 0.95896 0.0
C2386 C 0.76443 0.00551 0.05294 0.0
C2387 C 0.74443 0.01975 0.05763 0.0
C2388 C 0.76742 0.99545 0.03033 0.0
C2389 C 0.75032 -0.00046 0.01245 0.0
C2390 C 0.7287 0.0107 0.01858 0.0
C2391 C 0.72597 0.0211 0.04094 0.0
H2392 H 0.20413 0.46916 0.95907 0.0
H2393 H 0.26714 0.50547 0.93406 0.0
H2394 H 0.20753 0.48921 0.99722 0.0
H2395 H 0.27114 0.52519 0.97279 0.0
H2396 H 0.28856 0.47461 0.04259 0.0
H2397 H 0.28287 0.49372 0.00421 0.0
H2398 H 0.21543 0.52218 0.02826 0.0
H2399 H 0.2217 0.50347 0.06721 0.0
C2400 C 0.21805 0.48235 0.96146 0.0
C2401 C 0.23572 0.48541 0.94411 0.0
C2402 C 0.21991 0.4941 0.98322 0.0
C2403 C 0.23997 0.50835 0.98815 0.0
C2404 C 0.25561 0.51419 0.96944 0.0
C2405 C 0.2534 0.50281 0.94738 0.0
C2406 C 0.27321 0.48608 0.04006 0.0
C2407 C 0.2553 0.48725 0.05738 0.0
C2408 C 0.27 0.49728 0.01816 0.0
C2409 C 0.2484 0.509 0.01309 0.0
C2410 C 0.23216 0.51315 0.03173 0.0
C2411 C 0.23567 0.50235 0.05391 0.0
H2412 H 0.45443 0.71144 0.97071 0.0
H2413 H 0.42898 0.7797 0.99532 0.0
H2414 H 0.4935 0.71985 0.98714 0.0
H2415 H 0.46853 0.78852 0.01159 0.0
H2416 H 0.53645 0.80101 0.95882 0.0
H2417 H 0.49847 0.79597 0.97884 0.0
H2418 H 0.52577 0.73376 0.01523 0.0
H2419 H 0.56425 0.73925 0.99527 0.0
C2420 C 0.45699 0.7278 0.98067 0.0
C2421 C 0.43911 0.74522 0.98125 0.0
C2422 C 0.47933 0.73258 0.99036 0.0
C2423 C 0.48424 0.75514 0.00012 0.0
C2424 C 0.46524 0.77109 0.00393 0.0
C2425 C 0.44267 0.76609 0.99457 0.0
C2426 C 0.53466 0.78695 0.97196 0.0
C2427 C 0.55284 0.77013 0.97511 0.0
C2428 C 0.51298 0.78418 0.98371 0.0
C2429 C 0.50898 0.76413 -0.00176 0.0
C2430 C 0.52836 0.74925 0.00398 0.0
C2431 C 0.5503 0.75233 0.99251 0.0
H2432 H 0.4372 0.21881 0.48333 0.0
H2433 H 0.45616 0.2861 0.51518 0.0
H2434 H 0.47727 0.21558 0.46632 0.0
H2435 H 0.49579 0.28326 0.49818 0.0
H2436 H 0.56768 0.27182 0.49061 0.0
H2437 H 0.52939 0.27588 0.47009 0.0
H2438 H 0.50814 0.20684 0.49696 0.0
H2439 H 0.54597 0.20317 0.51749 0.0
C2440 C 0.44948 0.23359 0.48542 0.0
C2441 C 0.44395 0.25253 0.50077 0.0
C2442 C 0.47242 0.23173 0.47574 0.0
C2443 C 0.48991 0.24883 0.48141 0.0
C2444 C 0.48287 0.26971 0.49343 0.0
C2445 C 0.46014 0.27136 0.50333 0.0
C2446 C 0.55531 0.25697 0.49087 0.0
C2447 C 0.55938 0.23738 0.50589 0.0
C2448 C 0.53337 0.25931 0.47918 0.0
C2449 C 0.51547 0.242 0.48243 0.0
C2450 C 0.52141 0.22058 0.49408 0.0
C2451 C 0.54309 0.21845 0.50601 0.0
H2452 H 0.97181 0.29666 0.50138 0.0
H2453 H 0.93456 0.23075 0.51466 0.0
H2454 H 0.00925 0.27783 0.51162 0.0
H2455 H 0.97225 0.21158 0.52511 0.0
H2456 H 0.02996 0.19324 0.46476 0.0
H2457 H 0.99632 0.20399 0.48948 0.0
H2458 H 0.04077 0.2531 0.52892 0.0
H2459 H 0.07472 0.24221 0.50381 0.0
C2460 C 0.97151 0.2785 0.508 0.0
C2461 C 0.95058 0.26491 0.50661 0.0
C2462 C 0.99303 0.26761 0.51397 0.0
C2463 C 0.99384 0.24289 0.51816 0.0
C2464 C 0.9722 0.23053 0.52134 0.0
C2465 C 0.95058 0.24153 0.51551 0.0
C2466 C 0.03277 0.20573 0.47923 0.0
C2467 C 0.05469 0.21746 0.48188 0.0
C2468 C 0.01352 0.21169 0.49373 0.0
C2469 C 0.01571 0.22981 0.51095 0.0
C2470 C 0.03847 0.23929 0.51562 0.0
C2471 C 0.05789 0.2331 0.5012 0.0
H2472 H 0.52043 0.03435 0.77973 0.0
H2473 H 0.5005 0.05958 0.70995 0.0
H2474 H 0.50387 0.99546 0.77064 0.0
H2475 H 0.4842 0.02023 0.7004 0.0
H2476 H 0.53915 0.95318 0.69228 0.0
H2477 H 0.51799 0.99073 0.69548 0.0
H2478 H 0.47711 0.96284 0.75454 0.0
H2479 H 0.49819 0.92482 0.75091 0.0
C2480 C 0.51125 0.03185 0.76291 0.0
C2481 C 0.51205 0.04954 0.74534 0.0
C2482 C 0.50156 0.00959 0.75768 0.0
C2483 C 0.49335 0.00461 0.73451 0.0
C2484 C 0.49066 0.02356 0.71829 0.0
C2485 C 0.50001 0.04603 0.72372 0.0
C2486 C 0.52486 0.95473 0.7052 0.0
C2487 C 0.52074 0.93654 0.72181 0.0
C2488 C 0.51245 0.97616 0.70689 0.0
C2489 C 0.49624 0.97991 0.72567 0.0
C2490 C 0.48965 0.96046 0.74004 0.0
C2491 C 0.5018 0.93877 0.73803 0.0
H2492 H 0.49284 0.55895 0.77921 0.0
H2493 H 0.45696 0.54344 0.71302 0.0
H2494 H 0.51036 0.51894 0.77907 0.0
H2495 H 0.47477 0.50399 0.71242 0.0
H2496 H 0.46066 0.44733 0.78771 0.0
H2497 H 0.47843 0.48681 0.78627 0.0
H2498 H 0.50686 0.47156 0.71632 0.0
H2499 H 0.48939 0.43151 0.71822 0.0
C2500 C 0.48982 0.54745 0.76399 0.0
C2501 C 0.47322 0.55379 0.74639 0.0
C2502 C 0.49989 0.52463 0.76387 0.0
C2503 C 0.49359 0.50824 0.74597 0.0
C2504 C 0.48003 0.51619 0.72644 0.0
C2505 C 0.46959 0.5387 0.72685 0.0
C2506 C 0.4718 0.45203 0.77262 0.0
C2507 C 0.47348 0.43682 0.75294 0.0
C2508 C 0.4822 0.47455 0.77183 0.0
C2509 C 0.49374 0.48237 0.75099 0.0
C2510 C 0.49803 0.46593 0.73255 0.0
C2511 C 0.48799 0.44312 0.73359 0.0
H2512 H 0.03818 0.20955 0.97719 0.0
H2513 H 0.06553 0.27365 0.00967 0.0
H2514 H 0.00031 0.21537 0.99723 0.0
H2515 H 0.02709 0.28011 0.02925 0.0
H2516 H 0.95937 0.29609 0.9749 0.0
H2517 H 0.99674 0.29088 0.99604 0.0
H2518 H 0.96913 0.22711 0.02932 0.0
H2519 H 0.93119 0.23299 0.00861 0.0
C2520 C 0.03639 0.22422 0.98963 0.0
C2521 C 0.05431 0.24149 0.99149 0.0
C2522 C 0.01477 0.2275 0.00137 0.0
C2523 C 0.01057 0.2486 0.01429 0.0
C2524 C 0.02986 0.26381 0.01926 0.0
C2525 C 0.05178 0.26018 0.00794 0.0
C2526 C 0.96084 0.28181 0.98784 0.0
C2527 C 0.94287 0.26461 0.98979 0.0
C2528 C 0.98217 0.27888 0.00019 0.0
C2529 C 0.98603 0.25819 0.01385 0.0
C2530 C 0.96662 0.24312 0.01879 0.0
C2531 C 0.94499 0.24641 0.00683 0.0
H2532 H 0.48517 0.06432 0.22228 0.0
H2533 H 0.45895 0.03923 0.29008 0.0
H2534 H 0.49963 0.02413 0.21305 0.0
H2535 H 0.47393 -0.00049 0.28134 0.0
H2536 H 0.44505 0.9559 0.20234 0.0
H2537 H 0.46424 0.99449 0.20688 0.0
H2538 H 0.50452 0.96757 0.26674 0.0
H2539 H 0.48567 0.92851 0.26166 0.0
C2540 C 0.48371 0.05049 0.2357 0.0
C2541 C 0.47058 0.05443 0.25662 0.0
C2542 C 0.49206 0.0276 0.23047 0.0
C2543 C 0.48763 0.00872 0.24634 0.0
C2544 C 0.47772 0.01372 0.26881 0.0
C2545 C 0.4689 0.03638 0.27376 0.0
C2546 C 0.45883 0.95796 0.21573 0.0
C2547 C 0.46353 0.93963 0.23203 0.0
C2548 C 0.47007 0.97995 0.21818 0.0
C2549 C 0.48561 0.98406 0.2374 0.0
C2550 C 0.49259 0.96478 0.25181 0.0
C2551 C 0.48172 0.94254 0.24898 0.0
H2552 H 0.50218 0.43821 0.2096 0.0
H2553 H 0.51571 0.45172 0.28397 0.0
H2554 H 0.4863 0.47857 0.20512 0.0
H2555 H 0.49994 0.49176 0.27978 0.0
H2556 H 0.49768 0.56549 0.26958 0.0
H2557 H 0.47628 0.52745 0.26707 0.0
H2558 H 0.52016 0.50731 0.20698 0.0
H2559 H 0.54148 0.54475 0.20987 0.0
C2560 C 0.5003 0.44933 0.22528 0.0
C2561 C 0.51042 0.44233 0.24701 0.0
C2562 C 0.49123 0.4724 0.22275 0.0
C2563 C 0.49264 0.48857 0.24188 0.0
C2564 C 0.49872 0.47987 0.26461 0.0
C2565 C 0.50791 0.45693 0.26707 0.0
C2566 C 0.50196 0.55324 0.25528 0.0
C2567 C 0.5216 0.55747 0.24036 0.0
C2568 C 0.48965 0.53158 0.25376 0.0
C2569 C 0.49678 0.51421 0.23713 0.0
C2570 C 0.5141 0.52023 0.22 0.0
C2571 C 0.52662 0.54155 0.22182 0.0
H2572 H 0.06107 0.77202 0.98718 0.0
H2573 H 0.03945 0.70966 0.02663 0.0
H2574 H 0.02531 0.76864 0.96225 0.0
H2575 H 0.00448 0.70568 0.00158 0.0
H2576 H 0.93817 0.70516 0.98004 0.0
H2577 H 0.97869 0.70487 0.96404 0.0
H2578 H 0.9874 0.77826 0.98573 0.0
H2579 H 0.94737 0.77821 0.002 0.0
C2580 C 0.04924 0.75695 0.9897 0.0
C2581 C 0.05234 0.74147 0.00911 0.0
C2582 C 0.02896 0.75489 0.97533 0.0
C2583 C 0.01191 0.73714 0.98015 0.0
C2584 C 0.01722 0.71956 0.99727 0.0
C2585 C 0.03706 0.72197 0.01193 0.0
C2586 C 0.94829 0.72162 0.97992 0.0
C2587 C 0.94023 0.74151 0.99272 0.0
C2588 C 0.97143 0.72151 0.97067 0.0
C2589 C 0.98647 0.7412 0.97454 0.0
C2590 C 0.9764 0.76266 0.98276 0.0
C2591 C 0.95347 0.76265 0.99229 0.0
loop_
_geom_bond_atom_site_label_1
_geom_bond_atom_site_label_2
_geom_bond_distance
_geom_bond_site_symmetry_2
_ccdc_geom_bond_type
Co0 O1 2.216 . S
Co0 O2 2.091 . S
Co0 O4 2.004 . S
Co0 O10 2.021 . S
Co0 O12 2.137 . S
Co0 O13 2.244 . S
O1 Co0 2.216 . S
O1 C8 1.247 . S
O2 Co0 2.091 . S
O2 C8 1.261 . S
C3 O12 1.247 . S
C3 O13 1.272 . S
O4 Co0 2.004 . S
O4 C9 1.259 . S
Co5 O6 2.061 . S
Co5 O11 2.052 . S
Co5 O13 2.135 . S
O6 Co5 2.061 . S
O6 C9 1.235 . S
C7 O10 1.238 . S
C7 O11 1.241 . S
C8 O1 1.247 . S
C8 O2 1.261 . S
C9 O4 1.259 . S
C9 O6 1.235 . S
O10 Co0 2.021 . S
O10 C7 1.238 . S
O11 Co5 2.052 . S
O11 C7 1.241 . S
O12 Co0 2.137 . S
O12 C3 1.247 . S
O13 Co0 2.244 . S
O13 C3 1.272 . S
O13 Co5 2.135 . S
Co14 O15 2.216 . S
Co14 O16 2.091 . S
Co14 O18 2.004 . S
Co14 O24 2.021 . S
Co14 O26 2.137 . S
Co14 O27 2.244 . S
O15 Co14 2.216 . S
O15 C22 1.247 . S
O16 Co14 2.091 . S
O16 C22 1.261 . S
C17 O26 1.247 . S
C17 O27 1.272 . S
O18 Co14 2.004 . S
O18 C23 1.259 . S
Co19 O20 2.061 . S
Co19 O25 2.052 . S
Co19 O27 2.135 . S
O20 Co19 2.061 . S
O20 C23 1.235 . S
C21 O24 1.238 . S
C21 O25 1.241 . S
C22 O15 1.247 . S
C22 O16 1.261 . S
C23 O18 1.259 . S
C23 O20 1.235 . S
O24 Co14 2.021 . S
O24 C21 1.238 . S
O25 Co19 2.052 . S
O25 C21 1.241 . S
O26 Co14 2.137 . S
O26 C17 1.247 . S
O27 Co14 2.244 . S
O27 C17 1.272 . S
O27 Co19 2.135 . S
Co28 O29 2.216 . S
Co28 O30 2.091 . S
Co28 O32 2.004 . S
Co28 O38 2.021 . S
Co28 O40 2.137 . S
Co28 O41 2.244 . S
O29 Co28 2.216 . S
O29 C36 1.247 . S
O30 Co28 2.091 . S
O30 C36 1.261 . S
C31 O40 1.247 . S
C31 O41 1.272 . S
O32 Co28 2.004 . S
O32 C37 1.259 . S
Co33 O34 2.061 . S
Co33 O39 2.052 . S
Co33 O41 2.135 . S
O34 Co33 2.061 . S
O34 C37 1.235 . S
C35 O38 1.238 . S
C35 O39 1.241 . S
C36 O29 1.247 . S
C36 O30 1.261 . S
C37 O32 1.259 . S
C37 O34 1.235 . S
O38 Co28 2.021 . S
O38 C35 1.238 . S
O39 Co33 2.052 . S
O39 C35 1.241 . S
O40 Co28 2.137 . S
O40 C31 1.247 . S
O41 Co28 2.244 . S
O41 C31 1.272 . S
O41 Co33 2.135 . S
Co42 O43 2.216 . S
Co42 O44 2.091 . S
Co42 O46 2.004 . S
Co42 O52 2.021 . S
Co42 O54 2.137 . S
Co42 O55 2.244 . S
O43 Co42 2.216 . S
O43 C50 1.247 . S
O44 Co42 2.091 . S
O44 C50 1.261 . S
C45 O54 1.247 . S
C45 O55 1.272 . S
O46 Co42 2.004 . S
O46 C51 1.259 . S
Co47 O48 2.061 . S
Co47 O53 2.052 . S
Co47 O55 2.135 . S
O48 Co47 2.061 . S
O48 C51 1.235 . S
C49 O52 1.238 . S
C49 O53 1.241 . S
C50 O43 1.247 . S
C50 O44 1.261 . S
C51 O46 1.259 . S
C51 O48 1.235 . S
O52 Co42 2.021 . S
O52 C49 1.238 . S
O53 Co47 2.052 . S
O53 C49 1.241 . S
O54 Co42 2.137 . S
O54 C45 1.247 . S
O55 Co42 2.244 . S
O55 C45 1.272 . S
O55 Co47 2.135 . S
Co56 O57 2.216 . S
Co56 O58 2.091 . S
Co56 O60 2.004 . S
Co56 O66 2.021 . S
Co56 O68 2.137 . S
Co56 O69 2.244 . S
O57 Co56 2.216 . S
O57 C64 1.247 . S
O58 Co56 2.091 . S
O58 C64 1.261 . S
C59 O68 1.247 . S
C59 O69 1.272 . S
O60 Co56 2.004 . S
O60 C65 1.259 . S
Co61 O62 2.061 . S
Co61 O67 2.052 . S
Co61 O69 2.135 . S
O62 Co61 2.061 . S
O62 C65 1.235 . S
C63 O66 1.238 . S
C63 O67 1.241 . S
C64 O57 1.247 . S
C64 O58 1.261 . S
C65 O60 1.259 . S
C65 O62 1.235 . S
O66 Co56 2.021 . S
O66 C63 1.238 . S
O67 Co61 2.052 . S
O67 C63 1.241 . S
O68 Co56 2.137 . S
O68 C59 1.247 . S
O69 Co56 2.244 . S
O69 C59 1.272 . S
O69 Co61 2.135 . S
Co70 O71 2.216 . S
Co70 O72 2.091 . S
Co70 O74 2.004 . S
Co70 O80 2.021 . S
Co70 O82 2.137 . S
Co70 O83 2.244 . S
O71 Co70 2.216 . S
O71 C78 1.247 . S
O72 Co70 2.091 . S
O72 C78 1.261 . S
C73 O82 1.247 . S
C73 O83 1.272 . S
O74 Co70 2.004 . S
O74 C79 1.259 . S
Co75 O76 2.061 . S
Co75 O81 2.052 . S
Co75 O83 2.135 . S
O76 Co75 2.061 . S
O76 C79 1.235 . S
C77 O80 1.238 . S
C77 O81 1.241 . S
C78 O71 1.247 . S
C78 O72 1.261 . S
C79 O74 1.259 . S
C79 O76 1.235 . S
O80 Co70 2.021 . S
O80 C77 1.238 . S
O81 Co75 2.052 . S
O81 C77 1.241 . S
O82 Co70 2.137 . S
O82 C73 1.247 . S
O83 Co70 2.244 . S
O83 C73 1.272 . S
O83 Co75 2.135 . S
Co84 O85 2.216 . S
Co84 O86 2.091 . S
Co84 O88 2.004 . S
Co84 O94 2.021 . S
Co84 O96 2.137 . S
Co84 O97 2.244 . S
O85 Co84 2.216 . S
O85 C92 1.247 . S
O86 Co84 2.091 . S
O86 C92 1.261 . S
C87 O96 1.247 . S
C87 O97 1.272 . S
O88 Co84 2.004 . S
O88 C93 1.259 . S
Co89 O90 2.061 . S
Co89 O95 2.052 . S
Co89 O97 2.135 . S
O90 Co89 2.061 . S
O90 C93 1.235 . S
C91 O94 1.238 . S
C91 O95 1.241 . S
C92 O85 1.247 . S
C92 O86 1.261 . S
C93 O88 1.259 . S
C93 O90 1.235 . S
O94 Co84 2.021 . S
O94 C91 1.238 . S
O95 Co89 2.052 . S
O95 C91 1.241 . S
O96 Co84 2.137 . S
O96 C87 1.247 . S
O97 Co84 2.244 . S
O97 C87 1.272 . S
O97 Co89 2.135 . S
Co98 O99 2.216 . S
Co98 O100 2.091 . S
Co98 O102 2.004 . S
Co98 O108 2.021 . S
Co98 O110 2.137 . S
Co98 O111 2.244 . S
O99 Co98 2.216 . S
O99 C106 1.247 . S
O100 Co98 2.091 . S
O100 C106 1.261 . S
C101 O110 1.247 . S
C101 O111 1.272 . S
O102 Co98 2.004 . S
O102 C107 1.259 . S
Co103 O104 2.061 . S
Co103 O109 2.052 . S
Co103 O111 2.135 . S
O104 Co103 2.061 . S
O104 C107 1.235 . S
C105 O108 1.238 . S
C105 O109 1.241 . S
C106 O99 1.247 . S
C106 O100 1.261 . S
C107 O102 1.259 . S
C107 O104 1.235 . S
O108 Co98 2.021 . S
O108 C105 1.238 . S
O109 Co103 2.052 . S
O109 C105 1.241 . S
O110 Co98 2.137 . S
O110 C101 1.247 . S
O111 Co98 2.244 . S
O111 C101 1.272 . S
O111 Co103 2.135 . S
Co112 O113 2.216 . S
Co112 O114 2.091 . S
Co112 O116 2.004 . S
Co112 O122 2.021 . S
Co112 O124 2.137 . S
Co112 O125 2.244 . S
O113 Co112 2.216 . S
O113 C120 1.247 . S
O114 Co112 2.091 . S
O114 C120 1.261 . S
C115 O124 1.247 . S
C115 O125 1.272 . S
O116 Co112 2.004 . S
O116 C121 1.259 . S
Co117 O118 2.061 . S
Co117 O123 2.052 . S
Co117 O125 2.135 . S
O118 Co117 2.061 . S
O118 C121 1.235 . S
C119 O122 1.238 . S
C119 O123 1.241 . S
C120 O113 1.247 . S
C120 O114 1.261 . S
C121 O116 1.259 . S
C121 O118 1.235 . S
O122 Co112 2.021 . S
O122 C119 1.238 . S
O123 Co117 2.052 . S
O123 C119 1.241 . S
O124 Co112 2.137 . S
O124 C115 1.247 . S
O125 Co112 2.244 . S
O125 C115 1.272 . S
O125 Co117 2.135 . S
Co126 O127 2.216 . S
Co126 O128 2.091 . S
Co126 O130 2.004 . S
Co126 O136 2.021 . S
Co126 O138 2.137 . S
Co126 O139 2.244 . S
O127 Co126 2.216 . S
O127 C134 1.247 . S
O128 Co126 2.091 . S
O128 C134 1.261 . S
C129 O138 1.247 . S
C129 O139 1.272 . S
O130 Co126 2.004 . S
O130 C135 1.259 . S
Co131 O132 2.061 . S
Co131 O137 2.052 . S
Co131 O139 2.135 . S
O132 Co131 2.061 . S
O132 C135 1.235 . S
C133 O136 1.238 . S
C133 O137 1.241 . S
C134 O127 1.247 . S
C134 O128 1.261 . S
C135 O130 1.259 . S
C135 O132 1.235 . S
O136 Co126 2.021 . S
O136 C133 1.238 . S
O137 Co131 2.052 . S
O137 C133 1.241 . S
O138 Co126 2.137 . S
O138 C129 1.247 . S
O139 Co126 2.244 . S
O139 C129 1.272 . S
O139 Co131 2.135 . S
Co140 O141 2.216 . S
Co140 O142 2.091 . S
Co140 O144 2.004 . S
Co140 O150 2.021 . S
Co140 O152 2.137 . S
Co140 O153 2.244 . S
O141 Co140 2.216 . S
O141 C148 1.247 . S
O142 Co140 2.091 . S
O142 C148 1.261 . S
C143 O152 1.247 . S
C143 O153 1.272 . S
O144 Co140 2.004 . S
O144 C149 1.259 . S
Co145 O146 2.061 . S
Co145 O151 2.052 . S
Co145 O153 2.135 . S
O146 Co145 2.061 . S
O146 C149 1.235 . S
C147 O150 1.238 . S
C147 O151 1.241 . S
C148 O141 1.247 . S
C148 O142 1.261 . S
C149 O144 1.259 . S
C149 O146 1.235 . S
O150 Co140 2.021 . S
O150 C147 1.238 . S
O151 Co145 2.052 . S
O151 C147 1.241 . S
O152 Co140 2.137 . S
O152 C143 1.247 . S
O153 Co140 2.244 . S
O153 C143 1.272 . S
O153 Co145 2.135 . S
Co154 O155 2.216 . S
Co154 O156 2.091 . S
Co154 O158 2.004 . S
Co154 O164 2.021 . S
Co154 O166 2.137 . S
Co154 O167 2.244 . S
O155 Co154 2.216 . S
O155 C162 1.247 . S
O156 Co154 2.091 . S
O156 C162 1.261 . S
C157 O166 1.247 . S
C157 O167 1.272 . S
O158 Co154 2.004 . S
O158 C163 1.259 . S
Co159 O160 2.061 . S
Co159 O165 2.052 . S
Co159 O167 2.135 . S
O160 Co159 2.061 . S
O160 C163 1.235 . S
C161 O164 1.238 . S
C161 O165 1.241 . S
C162 O155 1.247 . S
C162 O156 1.261 . S
C163 O158 1.259 . S
C163 O160 1.235 . S
O164 Co154 2.021 . S
O164 C161 1.238 . S
O165 Co159 2.052 . S
O165 C161 1.241 . S
O166 Co154 2.137 . S
O166 C157 1.247 . S
O167 Co154 2.244 . S
O167 C157 1.272 . S
O167 Co159 2.135 . S
Co168 O169 2.216 . S
Co168 O170 2.091 . S
Co168 O172 2.004 . S
Co168 O178 2.021 . S
Co168 O180 2.137 . S
Co168 O181 2.244 . S
O169 Co168 2.216 . S
O169 C176 1.247 . S
O170 Co168 2.091 . S
O170 C176 1.261 . S
C171 O180 1.247 . S
C171 O181 1.272 . S
O172 Co168 2.004 . S
O172 C177 1.259 . S
Co173 O174 2.061 . S
Co173 O179 2.052 . S
Co173 O181 2.135 . S
O174 Co173 2.061 . S
O174 C177 1.235 . S
C175 O178 1.238 . S
C175 O179 1.241 . S
C176 O169 1.247 . S
C176 O170 1.261 . S
C177 O172 1.259 . S
C177 O174 1.235 . S
O178 Co168 2.021 . S
O178 C175 1.238 . S
O179 Co173 2.052 . S
O179 C175 1.241 . S
O180 Co168 2.137 . S
O180 C171 1.247 . S
O181 Co168 2.244 . S
O181 C171 1.272 . S
O181 Co173 2.135 . S
Co182 O183 2.216 . S
Co182 O184 2.091 . S
Co182 O186 2.004 . S
Co182 O192 2.021 . S
Co182 O194 2.137 . S
Co182 O195 2.244 . S
O183 Co182 2.216 . S
O183 C190 1.247 . S
O184 Co182 2.091 . S
O184 C190 1.261 . S
C185 O194 1.247 . S
C185 O195 1.272 . S
O186 Co182 2.004 . S
O186 C191 1.259 . S
Co187 O188 2.061 . S
Co187 O193 2.052 . S
Co187 O195 2.135 . S
O188 Co187 2.061 . S
O188 C191 1.235 . S
C189 O192 1.238 . S
C189 O193 1.241 . S
C190 O183 1.247 . S
C190 O184 1.261 . S
C191 O186 1.259 . S
C191 O188 1.235 . S
O192 Co182 2.021 . S
O192 C189 1.238 . S
O193 Co187 2.052 . S
O193 C189 1.241 . S
O194 Co182 2.137 . S
O194 C185 1.247 . S
O195 Co182 2.244 . S
O195 C185 1.272 . S
O195 Co187 2.135 . S
Co196 O197 2.216 . S
Co196 O198 2.091 . S
Co196 O200 2.004 . S
Co196 O206 2.021 . S
Co196 O208 2.137 . S
Co196 O209 2.244 . S
O197 Co196 2.216 . S
O197 C204 1.247 . S
O198 Co196 2.091 . S
O198 C204 1.261 . S
C199 O208 1.247 . S
C199 O209 1.272 . S
O200 Co196 2.004 . S
O200 C205 1.259 . S
Co201 O202 2.061 . S
Co201 O207 2.052 . S
Co201 O209 2.135 . S
O202 Co201 2.061 . S
O202 C205 1.235 . S
C203 O206 1.238 . S
C203 O207 1.241 . S
C204 O197 1.247 . S
C204 O198 1.261 . S
C205 O200 1.259 . S
C205 O202 1.235 . S
O206 Co196 2.021 . S
O206 C203 1.238 . S
O207 Co201 2.052 . S
O207 C203 1.241 . S
O208 Co196 2.137 . S
O208 C199 1.247 . S
O209 Co196 2.244 . S
O209 C199 1.272 . S
O209 Co201 2.135 . S
Co210 O211 2.216 . S
Co210 O212 2.091 . S
Co210 O214 2.004 . S
Co210 O220 2.021 . S
Co210 O222 2.137 . S
Co210 O223 2.244 . S
O211 Co210 2.216 . S
O211 C218 1.247 . S
O212 Co210 2.091 . S
O212 C218 1.261 . S
C213 O222 1.247 . S
C213 O223 1.272 . S
O214 Co210 2.004 . S
O214 C219 1.259 . S
Co215 O216 2.061 . S
Co215 O221 2.052 . S
Co215 O223 2.135 . S
O216 Co215 2.061 . S
O216 C219 1.235 . S
C217 O220 1.238 . S
C217 O221 1.241 . S
C218 O211 1.247 . S
C218 O212 1.261 . S
C219 O214 1.259 . S
C219 O216 1.235 . S
O220 Co210 2.021 . S
O220 C217 1.238 . S
O221 Co215 2.052 . S
O221 C217 1.241 . S
O222 Co210 2.137 . S
O222 C213 1.247 . S
O223 Co210 2.244 . S
O223 C213 1.272 . S
O223 Co215 2.135 . S
Co224 O225 2.216 . S
Co224 O226 2.091 . S
Co224 O228 2.004 . S
Co224 O234 2.021 . S
Co224 O236 2.137 . S
Co224 O237 2.244 . S
O225 Co224 2.216 . S
O225 C232 1.247 . S
O226 Co224 2.091 . S
O226 C232 1.261 . S
C227 O236 1.247 . S
C227 O237 1.272 . S
O228 Co224 2.004 . S
O228 C233 1.259 . S
Co229 O230 2.061 . S
Co229 O235 2.052 . S
Co229 O237 2.135 . S
O230 Co229 2.061 . S
O230 C233 1.235 . S
C231 O234 1.238 . S
C231 O235 1.241 . S
C232 O225 1.247 . S
C232 O226 1.261 . S
C233 O228 1.259 . S
C233 O230 1.235 . S
O234 Co224 2.021 . S
O234 C231 1.238 . S
O235 Co229 2.052 . S
O235 C231 1.241 . S
O236 Co224 2.137 . S
O236 C227 1.247 . S
O237 Co224 2.244 . S
O237 C227 1.272 . S
O237 Co229 2.135 . S
Co238 O239 2.216 . S
Co238 O240 2.091 . S
Co238 O242 2.004 . S
Co238 O248 2.021 . S
Co238 O250 2.137 . S
Co238 O251 2.244 . S
O239 Co238 2.216 . S
O239 C246 1.247 . S
O240 Co238 2.091 . S
O240 C246 1.261 . S
C241 O250 1.247 . S
C241 O251 1.272 . S
O242 Co238 2.004 . S
O242 C247 1.259 . S
Co243 O244 2.061 . S
Co243 O249 2.052 . S
Co243 O251 2.135 . S
O244 Co243 2.061 . S
O244 C247 1.235 . S
C245 O248 1.238 . S
C245 O249 1.241 . S
C246 O239 1.247 . S
C246 O240 1.261 . S
C247 O242 1.259 . S
C247 O244 1.235 . S
O248 Co238 2.021 . S
O248 C245 1.238 . S
O249 Co243 2.052 . S
O249 C245 1.241 . S
O250 Co238 2.137 . S
O250 C241 1.247 . S
O251 Co238 2.244 . S
O251 C241 1.272 . S
O251 Co243 2.135 . S
Co252 O253 2.216 . S
Co252 O254 2.091 . S
Co252 O256 2.004 . S
Co252 O262 2.021 . S
Co252 O264 2.137 . S
Co252 O265 2.244 . S
O253 Co252 2.216 . S
O253 C260 1.247 . S
O254 Co252 2.091 . S
O254 C260 1.261 . S
C255 O264 1.247 . S
C255 O265 1.272 . S
O256 Co252 2.004 . S
O256 C261 1.259 . S
Co257 O258 2.061 . S
Co257 O263 2.052 . S
Co257 O265 2.135 . S
O258 Co257 2.061 . S
O258 C261 1.235 . S
C259 O262 1.238 . S
C259 O263 1.241 . S
C260 O253 1.247 . S
C260 O254 1.261 . S
C261 O256 1.259 . S
C261 O258 1.235 . S
O262 Co252 2.021 . S
O262 C259 1.238 . S
O263 Co257 2.052 . S
O263 C259 1.241 . S
O264 Co252 2.137 . S
O264 C255 1.247 . S
O265 Co252 2.244 . S
O265 C255 1.272 . S
O265 Co257 2.135 . S
Co266 O267 2.216 . S
Co266 O268 2.091 . S
Co266 O270 2.004 . S
Co266 O276 2.021 . S
Co266 O278 2.137 . S
Co266 O279 2.244 . S
O267 Co266 2.216 . S
O267 C274 1.247 . S
O268 Co266 2.091 . S
O268 C274 1.261 . S
C269 O278 1.247 . S
C269 O279 1.272 . S
O270 Co266 2.004 . S
O270 C275 1.259 . S
Co271 O272 2.061 . S
Co271 O277 2.052 . S
Co271 O279 2.135 . S
O272 Co271 2.061 . S
O272 C275 1.235 . S
C273 O276 1.238 . S
C273 O277 1.241 . S
C274 O267 1.247 . S
C274 O268 1.261 . S
C275 O270 1.259 . S
C275 O272 1.235 . S
O276 Co266 2.021 . S
O276 C273 1.238 . S
O277 Co271 2.052 . S
O277 C273 1.241 . S
O278 Co266 2.137 . S
O278 C269 1.247 . S
O279 Co266 2.244 . S
O279 C269 1.272 . S
O279 Co271 2.135 . S
Co280 O281 2.216 . S
Co280 O282 2.091 . S
Co280 O284 2.004 . S
Co280 O290 2.021 . S
Co280 O292 2.137 . S
Co280 O293 2.244 . S
O281 Co280 2.216 . S
O281 C288 1.247 . S
O282 Co280 2.091 . S
O282 C288 1.261 . S
C283 O292 1.247 . S
C283 O293 1.272 . S
O284 Co280 2.004 . S
O284 C289 1.259 . S
Co285 O286 2.061 . S
Co285 O291 2.052 . S
Co285 O293 2.135 . S
O286 Co285 2.061 . S
O286 C289 1.235 . S
C287 O290 1.238 . S
C287 O291 1.241 . S
C288 O281 1.247 . S
C288 O282 1.261 . S
C289 O284 1.259 . S
C289 O286 1.235 . S
O290 Co280 2.021 . S
O290 C287 1.238 . S
O291 Co285 2.052 . S
O291 C287 1.241 . S
O292 Co280 2.137 . S
O292 C283 1.247 . S
O293 Co280 2.244 . S
O293 C283 1.272 . S
O293 Co285 2.135 . S
Co294 O295 2.216 . S
Co294 O296 2.091 . S
Co294 O298 2.004 . S
Co294 O304 2.021 . S
Co294 O306 2.137 . S
Co294 O307 2.244 . S
O295 Co294 2.216 . S
O295 C302 1.247 . S
O296 Co294 2.091 . S
O296 C302 1.261 . S
C297 O306 1.247 . S
C297 O307 1.272 . S
O298 Co294 2.004 . S
O298 C303 1.259 . S
Co299 O300 2.061 . S
Co299 O305 2.052 . S
Co299 O307 2.135 . S
O300 Co299 2.061 . S
O300 C303 1.235 . S
C301 O304 1.238 . S
C301 O305 1.241 . S
C302 O295 1.247 . S
C302 O296 1.261 . S
C303 O298 1.259 . S
C303 O300 1.235 . S
O304 Co294 2.021 . S
O304 C301 1.238 . S
O305 Co299 2.052 . S
O305 C301 1.241 . S
O306 Co294 2.137 . S
O306 C297 1.247 . S
O307 Co294 2.244 . S
O307 C297 1.272 . S
O307 Co299 2.135 . S
Co308 O309 2.216 . S
Co308 O310 2.091 . S
Co308 O312 2.004 . S
Co308 O318 2.021 . S
Co308 O320 2.137 . S
Co308 O321 2.244 . S
O309 Co308 2.216 . S
O309 C316 1.247 . S
O310 Co308 2.091 . S
O310 C316 1.261 . S
C311 O320 1.247 . S
C311 O321 1.272 . S
O312 Co308 2.004 . S
O312 C317 1.259 . S
Co313 O314 2.061 . S
Co313 O319 2.052 . S
Co313 O321 2.135 . S
O314 Co313 2.061 . S
O314 C317 1.235 . S
C315 O318 1.238 . S
C315 O319 1.241 . S
C316 O309 1.247 . S
C316 O310 1.261 . S
C317 O312 1.259 . S
C317 O314 1.235 . S
O318 Co308 2.021 . S
O318 C315 1.238 . S
O319 Co313 2.052 . S
O319 C315 1.241 . S
O320 Co308 2.137 . S
O320 C311 1.247 . S
O321 Co308 2.244 . S
O321 C311 1.272 . S
O321 Co313 2.135 . S
Co322 O323 2.216 . S
Co322 O324 2.091 . S
Co322 O326 2.004 . S
Co322 O332 2.021 . S
Co322 O334 2.137 . S
Co322 O335 2.244 . S
O323 Co322 2.216 . S
O323 C330 1.247 . S
O324 Co322 2.091 . S
O324 C330 1.261 . S
C325 O334 1.247 . S
C325 O335 1.272 . S
O326 Co322 2.004 . S
O326 C331 1.259 . S
Co327 O328 2.061 . S
Co327 O333 2.052 . S
Co327 O335 2.135 . S
O328 Co327 2.061 . S
O328 C331 1.235 . S
C329 O332 1.238 . S
C329 O333 1.241 . S
C330 O323 1.247 . S
C330 O324 1.261 . S
C331 O326 1.259 . S
C331 O328 1.235 . S
O332 Co322 2.021 . S
O332 C329 1.238 . S
O333 Co327 2.052 . S
O333 C329 1.241 . S
O334 Co322 2.137 . S
O334 C325 1.247 . S
O335 Co322 2.244 . S
O335 C325 1.272 . S
O335 Co327 2.135 . S
Co336 O337 2.216 . S
Co336 O338 2.091 . S
Co336 O340 2.004 . S
Co336 O346 2.021 . S
Co336 O348 2.137 . S
Co336 O349 2.244 . S
O337 Co336 2.216 . S
O337 C344 1.247 . S
O338 Co336 2.091 . S
O338 C344 1.261 . S
C339 O348 1.247 . S
C339 O349 1.272 . S
O340 Co336 2.004 . S
O340 C345 1.259 . S
Co341 O342 2.061 . S
Co341 O347 2.052 . S
Co341 O349 2.135 . S
O342 Co341 2.061 . S
O342 C345 1.235 . S
C343 O346 1.238 . S
C343 O347 1.241 . S
C344 O337 1.247 . S
C344 O338 1.261 . S
C345 O340 1.259 . S
C345 O342 1.235 . S
O346 Co336 2.021 . S
O346 C343 1.238 . S
O347 Co341 2.052 . S
O347 C343 1.241 . S
O348 Co336 2.137 . S
O348 C339 1.247 . S
O349 Co336 2.244 . S
O349 C339 1.272 . S
O349 Co341 2.135 . S
Co350 O351 2.216 . S
Co350 O352 2.091 . S
Co350 O354 2.004 . S
Co350 O360 2.021 . S
Co350 O362 2.137 . S
Co350 O363 2.244 . S
O351 Co350 2.216 . S
O351 C358 1.247 . S
O352 Co350 2.091 . S
O352 C358 1.261 . S
C353 O362 1.247 . S
C353 O363 1.272 . S
O354 Co350 2.004 . S
O354 C359 1.259 . S
Co355 O356 2.061 . S
Co355 O361 2.052 . S
Co355 O363 2.135 . S
O356 Co355 2.061 . S
O356 C359 1.235 . S
C357 O360 1.238 . S
C357 O361 1.241 . S
C358 O351 1.247 . S
C358 O352 1.261 . S
C359 O354 1.259 . S
C359 O356 1.235 . S
O360 Co350 2.021 . S
O360 C357 1.238 . S
O361 Co355 2.052 . S
O361 C357 1.241 . S
O362 Co350 2.137 . S
O362 C353 1.247 . S
O363 Co350 2.244 . S
O363 C353 1.272 . S
O363 Co355 2.135 . S
Co364 O365 2.216 . S
Co364 O366 2.091 . S
Co364 O368 2.004 . S
Co364 O374 2.021 . S
Co364 O376 2.137 . S
Co364 O377 2.244 . S
O365 Co364 2.216 . S
O365 C372 1.247 . S
O366 Co364 2.091 . S
O366 C372 1.261 . S
C367 O376 1.247 . S
C367 O377 1.272 . S
O368 Co364 2.004 . S
O368 C373 1.259 . S
Co369 O370 2.061 . S
Co369 O375 2.052 . S
Co369 O377 2.135 . S
O370 Co369 2.061 . S
O370 C373 1.235 . S
C371 O374 1.238 . S
C371 O375 1.241 . S
C372 O365 1.247 . S
C372 O366 1.261 . S
C373 O368 1.259 . S
C373 O370 1.235 . S
O374 Co364 2.021 . S
O374 C371 1.238 . S
O375 Co369 2.052 . S
O375 C371 1.241 . S
O376 Co364 2.137 . S
O376 C367 1.247 . S
O377 Co364 2.244 . S
O377 C367 1.272 . S
O377 Co369 2.135 . S
Co378 O379 2.216 . S
Co378 O380 2.091 . S
Co378 O382 2.004 . S
Co378 O388 2.021 . S
Co378 O390 2.137 . S
Co378 O391 2.244 . S
O379 Co378 2.216 . S
O379 C386 1.247 . S
O380 Co378 2.091 . S
O380 C386 1.261 . S
C381 O390 1.247 . S
C381 O391 1.272 . S
O382 Co378 2.004 . S
O382 C387 1.259 . S
Co383 O384 2.061 . S
Co383 O389 2.052 . S
Co383 O391 2.135 . S
O384 Co383 2.061 . S
O384 C387 1.235 . S
C385 O388 1.238 . S
C385 O389 1.241 . S
C386 O379 1.247 . S
C386 O380 1.261 . S
C387 O382 1.259 . S
C387 O384 1.235 . S
O388 Co378 2.021 . S
O388 C385 1.238 . S
O389 Co383 2.052 . S
O389 C385 1.241 . S
O390 Co378 2.137 . S
O390 C381 1.247 . S
O391 Co378 2.244 . S
O391 C381 1.272 . S
O391 Co383 2.135 . S
Co392 O393 2.216 . S
Co392 O394 2.091 . S
Co392 O396 2.004 . S
Co392 O402 2.021 . S
Co392 O404 2.137 . S
Co392 O405 2.244 . S
O393 Co392 2.216 . S
O393 C400 1.247 . S
O394 Co392 2.091 . S
O394 C400 1.261 . S
C395 O404 1.247 . S
C395 O405 1.272 . S
O396 Co392 2.004 . S
O396 C401 1.259 . S
Co397 O398 2.061 . S
Co397 O403 2.052 . S
Co397 O405 2.135 . S
O398 Co397 2.061 . S
O398 C401 1.235 . S
C399 O402 1.238 . S
C399 O403 1.241 . S
C400 O393 1.247 . S
C400 O394 1.261 . S
C401 O396 1.259 . S
C401 O398 1.235 . S
O402 Co392 2.021 . S
O402 C399 1.238 . S
O403 Co397 2.052 . S
O403 C399 1.241 . S
O404 Co392 2.137 . S
O404 C395 1.247 . S
O405 Co392 2.244 . S
O405 C395 1.272 . S
O405 Co397 2.135 . S
Co406 O407 2.216 . S
Co406 O408 2.091 . S
Co406 O410 2.004 . S
Co406 O416 2.021 . S
Co406 O418 2.137 . S
Co406 O419 2.244 . S
O407 Co406 2.216 . S
O407 C414 1.247 . S
O408 Co406 2.091 . S
O408 C414 1.261 . S
C409 O418 1.247 . S
C409 O419 1.272 . S
O410 Co406 2.004 . S
O410 C415 1.259 . S
Co411 O412 2.061 . S
Co411 O417 2.052 . S
Co411 O419 2.135 . S
O412 Co411 2.061 . S
O412 C415 1.235 . S
C413 O416 1.238 . S
C413 O417 1.241 . S
C414 O407 1.247 . S
C414 O408 1.261 . S
C415 O410 1.259 . S
C415 O412 1.235 . S
O416 Co406 2.021 . S
O416 C413 1.238 . S
O417 Co411 2.052 . S
O417 C413 1.241 . S
O418 Co406 2.137 . S
O418 C409 1.247 . S
O419 Co406 2.244 . S
O419 C409 1.272 . S
O419 Co411 2.135 . S
Co420 O421 2.216 . S
Co420 O422 2.091 . S
Co420 O424 2.004 . S
Co420 O430 2.021 . S
Co420 O432 2.137 . S
Co420 O433 2.244 . S
O421 Co420 2.216 . S
O421 C428 1.247 . S
O422 Co420 2.091 . S
O422 C428 1.261 . S
C423 O432 1.247 . S
C423 O433 1.272 . S
O424 Co420 2.004 . S
O424 C429 1.259 . S
Co425 O426 2.061 . S
Co425 O431 2.052 . S
Co425 O433 2.135 . S
O426 Co425 2.061 . S
O426 C429 1.235 . S
C427 O430 1.238 . S
C427 O431 1.241 . S
C428 O421 1.247 . S
C428 O422 1.261 . S
C429 O424 1.259 . S
C429 O426 1.235 . S
O430 Co420 2.021 . S
O430 C427 1.238 . S
O431 Co425 2.052 . S
O431 C427 1.241 . S
O432 Co420 2.137 . S
O432 C423 1.247 . S
O433 Co420 2.244 . S
O433 C423 1.272 . S
O433 Co425 2.135 . S
Co434 O435 2.216 . S
Co434 O436 2.091 . S
Co434 O438 2.004 . S
Co434 O444 2.021 . S
Co434 O446 2.137 . S
Co434 O447 2.244 . S
O435 Co434 2.216 . S
O435 C442 1.247 . S
O436 Co434 2.091 . S
O436 C442 1.261 . S
C437 O446 1.247 . S
C437 O447 1.272 . S
O438 Co434 2.004 . S
O438 C443 1.259 . S
Co439 O440 2.061 . S
Co439 O445 2.052 . S
Co439 O447 2.135 . S
O440 Co439 2.061 . S
O440 C443 1.235 . S
C441 O444 1.238 . S
C441 O445 1.241 . S
C442 O435 1.247 . S
C442 O436 1.261 . S
C443 O438 1.259 . S
C443 O440 1.235 . S
O444 Co434 2.021 . S
O444 C441 1.238 . S
O445 Co439 2.052 . S
O445 C441 1.241 . S
O446 Co434 2.137 . S
O446 C437 1.247 . S
O447 Co434 2.244 . S
O447 C437 1.272 . S
O447 Co439 2.135 . S
Co448 O449 2.216 . S
Co448 O450 2.091 . S
Co448 O452 2.004 . S
Co448 O458 2.021 . S
Co448 O460 2.137 . S
Co448 O461 2.244 . S
O449 Co448 2.216 . S
O449 C456 1.247 . S
O450 Co448 2.091 . S
O450 C456 1.261 . S
C451 O460 1.247 . S
C451 O461 1.272 . S
O452 Co448 2.004 . S
O452 C457 1.259 . S
Co453 O454 2.061 . S
Co453 O459 2.052 . S
Co453 O461 2.135 . S
O454 Co453 2.061 . S
O454 C457 1.235 . S
C455 O458 1.238 . S
C455 O459 1.241 . S
C456 O449 1.247 . S
C456 O450 1.261 . S
C457 O452 1.259 . S
C457 O454 1.235 . S
O458 Co448 2.021 . S
O458 C455 1.238 . S
O459 Co453 2.052 . S
O459 C455 1.241 . S
O460 Co448 2.137 . S
O460 C451 1.247 . S
O461 Co448 2.244 . S
O461 C451 1.272 . S
O461 Co453 2.135 . S
Co462 O463 2.216 . S
Co462 O464 2.091 . S
Co462 O466 2.004 . S
Co462 O472 2.021 . S
Co462 O474 2.137 . S
Co462 O475 2.244 . S
O463 Co462 2.216 . S
O463 C470 1.247 . S
O464 Co462 2.091 . S
O464 C470 1.261 . S
C465 O474 1.247 . S
C465 O475 1.272 . S
O466 Co462 2.004 . S
O466 C471 1.259 . S
Co467 O468 2.061 . S
Co467 O473 2.052 . S
Co467 O475 2.135 . S
O468 Co467 2.061 . S
O468 C471 1.235 . S
C469 O472 1.238 . S
C469 O473 1.241 . S
C470 O463 1.247 . S
C470 O464 1.261 . S
C471 O466 1.259 . S
C471 O468 1.235 . S
O472 Co462 2.021 . S
O472 C469 1.238 . S
O473 Co467 2.052 . S
O473 C469 1.241 . S
O474 Co462 2.137 . S
O474 C465 1.247 . S
O475 Co462 2.244 . S
O475 C465 1.272 . S
O475 Co467 2.135 . S
Co476 O477 2.216 . S
Co476 O478 2.091 . S
Co476 O480 2.004 . S
Co476 O486 2.021 . S
Co476 O488 2.137 . S
Co476 O489 2.244 . S
O477 Co476 2.216 . S
O477 C484 1.247 . S
O478 Co476 2.091 . S
O478 C484 1.261 . S
C479 O488 1.247 . S
C479 O489 1.272 . S
O480 Co476 2.004 . S
O480 C485 1.259 . S
Co481 O482 2.061 . S
Co481 O487 2.052 . S
Co481 O489 2.135 . S
O482 Co481 2.061 . S
O482 C485 1.235 . S
C483 O486 1.238 . S
C483 O487 1.241 . S
C484 O477 1.247 . S
C484 O478 1.261 . S
C485 O480 1.259 . S
C485 O482 1.235 . S
O486 Co476 2.021 . S
O486 C483 1.238 . S
O487 Co481 2.052 . S
O487 C483 1.241 . S
O488 Co476 2.137 . S
O488 C479 1.247 . S
O489 Co476 2.244 . S
O489 C479 1.272 . S
O489 Co481 2.135 . S
Co490 O491 2.216 . S
Co490 O492 2.091 . S
Co490 O494 2.004 . S
Co490 O500 2.021 . S
Co490 O502 2.137 . S
Co490 O503 2.244 . S
O491 Co490 2.216 . S
O491 C498 1.247 . S
O492 Co490 2.091 . S
O492 C498 1.261 . S
C493 O502 1.247 . S
C493 O503 1.272 . S
O494 Co490 2.004 . S
O494 C499 1.259 . S
Co495 O496 2.061 . S
Co495 O501 2.052 . S
Co495 O503 2.135 . S
O496 Co495 2.061 . S
O496 C499 1.235 . S
C497 O500 1.238 . S
C497 O501 1.241 . S
C498 O491 1.247 . S
C498 O492 1.261 . S
C499 O494 1.259 . S
C499 O496 1.235 . S
O500 Co490 2.021 . S
O500 C497 1.238 . S
O501 Co495 2.052 . S
O501 C497 1.241 . S
O502 Co490 2.137 . S
O502 C493 1.247 . S
O503 Co490 2.244 . S
O503 C493 1.272 . S
O503 Co495 2.135 . S
Co504 O505 2.216 . S
Co504 O506 2.091 . S
Co504 O508 2.004 . S
Co504 O514 2.021 . S
Co504 O516 2.137 . S
Co504 O517 2.244 . S
O505 Co504 2.216 . S
O505 C512 1.247 . S
O506 Co504 2.091 . S
O506 C512 1.261 . S
C507 O516 1.247 . S
C507 O517 1.272 . S
O508 Co504 2.004 . S
O508 C513 1.259 . S
Co509 O510 2.061 . S
Co509 O515 2.052 . S
Co509 O517 2.135 . S
O510 Co509 2.061 . S
O510 C513 1.235 . S
C511 O514 1.238 . S
C511 O515 1.241 . S
C512 O505 1.247 . S
C512 O506 1.261 . S
C513 O508 1.259 . S
C513 O510 1.235 . S
O514 Co504 2.021 . S
O514 C511 1.238 . S
O515 Co509 2.052 . S
O515 C511 1.241 . S
O516 Co504 2.137 . S
O516 C507 1.247 . S
O517 Co504 2.244 . S
O517 C507 1.272 . S
O517 Co509 2.135 . S
Co518 O519 2.216 . S
Co518 O520 2.091 . S
Co518 O522 2.004 . S
Co518 O528 2.021 . S
Co518 O530 2.137 . S
Co518 O531 2.244 . S
O519 Co518 2.216 . S
O519 C526 1.247 . S
O520 Co518 2.091 . S
O520 C526 1.261 . S
C521 O530 1.247 . S
C521 O531 1.272 . S
O522 Co518 2.004 . S
O522 C527 1.259 . S
Co523 O524 2.061 . S
Co523 O529 2.052 . S
Co523 O531 2.135 . S
O524 Co523 2.061 . S
O524 C527 1.235 . S
C525 O528 1.238 . S
C525 O529 1.241 . S
C526 O519 1.247 . S
C526 O520 1.261 . S
C527 O522 1.259 . S
C527 O524 1.235 . S
O528 Co518 2.021 . S
O528 C525 1.238 . S
O529 Co523 2.052 . S
O529 C525 1.241 . S
O530 Co518 2.137 . S
O530 C521 1.247 . S
O531 Co518 2.244 . S
O531 C521 1.272 . S
O531 Co523 2.135 . S
Co532 O533 2.216 . S
Co532 O534 2.091 . S
Co532 O536 2.004 . S
Co532 O542 2.021 . S
Co532 O544 2.137 . S
Co532 O545 2.244 . S
O533 Co532 2.216 . S
O533 C540 1.247 . S
O534 Co532 2.091 . S
O534 C540 1.261 . S
C535 O544 1.247 . S
C535 O545 1.272 . S
O536 Co532 2.004 . S
O536 C541 1.259 . S
Co537 O538 2.061 . S
Co537 O543 2.052 . S
Co537 O545 2.135 . S
O538 Co537 2.061 . S
O538 C541 1.235 . S
C539 O542 1.238 . S
C539 O543 1.241 . S
C540 O533 1.247 . S
C540 O534 1.261 . S
C541 O536 1.259 . S
C541 O538 1.235 . S
O542 Co532 2.021 . S
O542 C539 1.238 . S
O543 Co537 2.052 . S
O543 C539 1.241 . S
O544 Co532 2.137 . S
O544 C535 1.247 . S
O545 Co532 2.244 . S
O545 C535 1.272 . S
O545 Co537 2.135 . S
Co546 O547 2.216 . S
Co546 O548 2.091 . S
Co546 O550 2.004 . S
Co546 O556 2.021 . S
Co546 O558 2.137 . S
Co546 O559 2.244 . S
O547 Co546 2.216 . S
O547 C554 1.247 . S
O548 Co546 2.091 . S
O548 C554 1.261 . S
C549 O558 1.247 . S
C549 O559 1.272 . S
O550 Co546 2.004 . S
O550 C555 1.259 . S
Co551 O552 2.061 . S
Co551 O557 2.052 . S
Co551 O559 2.135 . S
O552 Co551 2.061 . S
O552 C555 1.235 . S
C553 O556 1.238 . S
C553 O557 1.241 . S
C554 O547 1.247 . S
C554 O548 1.261 . S
C555 O550 1.259 . S
C555 O552 1.235 . S
O556 Co546 2.021 . S
O556 C553 1.238 . S
O557 Co551 2.052 . S
O557 C553 1.241 . S
O558 Co546 2.137 . S
O558 C549 1.247 . S
O559 Co546 2.244 . S
O559 C549 1.272 . S
O559 Co551 2.135 . S
Co560 O561 2.216 . S
Co560 O562 2.091 . S
Co560 O564 2.004 . S
Co560 O570 2.021 . S
Co560 O572 2.137 . S
Co560 O573 2.244 . S
O561 Co560 2.216 . S
O561 C568 1.247 . S
O562 Co560 2.091 . S
O562 C568 1.261 . S
C563 O572 1.247 . S
C563 O573 1.272 . S
O564 Co560 2.004 . S
O564 C569 1.259 . S
Co565 O566 2.061 . S
Co565 O571 2.052 . S
Co565 O573 2.135 . S
O566 Co565 2.061 . S
O566 C569 1.235 . S
C567 O570 1.238 . S
C567 O571 1.241 . S
C568 O561 1.247 . S
C568 O562 1.261 . S
C569 O564 1.259 . S
C569 O566 1.235 . S
O570 Co560 2.021 . S
O570 C567 1.238 . S
O571 Co565 2.052 . S
O571 C567 1.241 . S
O572 Co560 2.137 . S
O572 C563 1.247 . S
O573 Co560 2.244 . S
O573 C563 1.272 . S
O573 Co565 2.135 . S
Co574 O575 2.216 . S
Co574 O576 2.091 . S
Co574 O578 2.004 . S
Co574 O584 2.021 . S
Co574 O586 2.137 . S
Co574 O587 2.244 . S
O575 Co574 2.216 . S
O575 C582 1.247 . S
O576 Co574 2.091 . S
O576 C582 1.261 . S
C577 O586 1.247 . S
C577 O587 1.272 . S
O578 Co574 2.004 . S
O578 C583 1.259 . S
Co579 O580 2.061 . S
Co579 O585 2.052 . S
Co579 O587 2.135 . S
O580 Co579 2.061 . S
O580 C583 1.235 . S
C581 O584 1.238 . S
C581 O585 1.241 . S
C582 O575 1.247 . S
C582 O576 1.261 . S
C583 O578 1.259 . S
C583 O580 1.235 . S
O584 Co574 2.021 . S
O584 C581 1.238 . S
O585 Co579 2.052 . S
O585 C581 1.241 . S
O586 Co574 2.137 . S
O586 C577 1.247 . S
O587 Co574 2.244 . S
O587 C577 1.272 . S
O587 Co579 2.135 . S
Co588 O589 2.216 . S
Co588 O590 2.091 . S
Co588 O592 2.004 . S
Co588 O598 2.021 . S
Co588 O600 2.137 . S
Co588 O601 2.244 . S
O589 Co588 2.216 . S
O589 C596 1.247 . S
O590 Co588 2.091 . S
O590 C596 1.261 . S
C591 O600 1.247 . S
C591 O601 1.272 . S
O592 Co588 2.004 . S
O592 C597 1.259 . S
Co593 O594 2.061 . S
Co593 O599 2.052 . S
Co593 O601 2.135 . S
O594 Co593 2.061 . S
O594 C597 1.235 . S
C595 O598 1.238 . S
C595 O599 1.241 . S
C596 O589 1.247 . S
C596 O590 1.261 . S
C597 O592 1.259 . S
C597 O594 1.235 . S
O598 Co588 2.021 . S
O598 C595 1.238 . S
O599 Co593 2.052 . S
O599 C595 1.241 . S
O600 Co588 2.137 . S
O600 C591 1.247 . S
O601 Co588 2.244 . S
O601 C591 1.272 . S
O601 Co593 2.135 . S
Co602 O603 2.216 . S
Co602 O604 2.091 . S
Co602 O606 2.004 . S
Co602 O612 2.021 . S
Co602 O614 2.137 . S
Co602 O615 2.244 . S
O603 Co602 2.216 . S
O603 C610 1.247 . S
O604 Co602 2.091 . S
O604 C610 1.261 . S
C605 O614 1.247 . S
C605 O615 1.272 . S
O606 Co602 2.004 . S
O606 C611 1.259 . S
Co607 O608 2.061 . S
Co607 O613 2.052 . S
Co607 O615 2.135 . S
O608 Co607 2.061 . S
O608 C611 1.235 . S
C609 O612 1.238 . S
C609 O613 1.241 . S
C610 O603 1.247 . S
C610 O604 1.261 . S
C611 O606 1.259 . S
C611 O608 1.235 . S
O612 Co602 2.021 . S
O612 C609 1.238 . S
O613 Co607 2.052 . S
O613 C609 1.241 . S
O614 Co602 2.137 . S
O614 C605 1.247 . S
O615 Co602 2.244 . S
O615 C605 1.272 . S
O615 Co607 2.135 . S
Co616 O617 2.216 . S
Co616 O618 2.091 . S
Co616 O620 2.004 . S
Co616 O626 2.021 . S
Co616 O628 2.137 . S
Co616 O629 2.244 . S
O617 Co616 2.216 . S
O617 C624 1.247 . S
O618 Co616 2.091 . S
O618 C624 1.261 . S
C619 O628 1.247 . S
C619 O629 1.272 . S
O620 Co616 2.004 . S
O620 C625 1.259 . S
Co621 O622 2.061 . S
Co621 O627 2.052 . S
Co621 O629 2.135 . S
O622 Co621 2.061 . S
O622 C625 1.235 . S
C623 O626 1.238 . S
C623 O627 1.241 . S
C624 O617 1.247 . S
C624 O618 1.261 . S
C625 O620 1.259 . S
C625 O622 1.235 . S
O626 Co616 2.021 . S
O626 C623 1.238 . S
O627 Co621 2.052 . S
O627 C623 1.241 . S
O628 Co616 2.137 . S
O628 C619 1.247 . S
O629 Co616 2.244 . S
O629 C619 1.272 . S
O629 Co621 2.135 . S
Co630 O631 2.216 . S
Co630 O632 2.091 . S
Co630 O634 2.004 . S
Co630 O640 2.021 . S
Co630 O642 2.137 . S
Co630 O643 2.244 . S
O631 Co630 2.216 . S
O631 C638 1.247 . S
O632 Co630 2.091 . S
O632 C638 1.261 . S
C633 O642 1.247 . S
C633 O643 1.272 . S
O634 Co630 2.004 . S
O634 C639 1.259 . S
Co635 O636 2.061 . S
Co635 O641 2.052 . S
Co635 O643 2.135 . S
O636 Co635 2.061 . S
O636 C639 1.235 . S
C637 O640 1.238 . S
C637 O641 1.241 . S
C638 O631 1.247 . S
C638 O632 1.261 . S
C639 O634 1.259 . S
C639 O636 1.235 . S
O640 Co630 2.021 . S
O640 C637 1.238 . S
O641 Co635 2.052 . S
O641 C637 1.241 . S
O642 Co630 2.137 . S
O642 C633 1.247 . S
O643 Co630 2.244 . S
O643 C633 1.272 . S
O643 Co635 2.135 . S
Co644 O645 2.216 . S
Co644 O646 2.091 . S
Co644 O648 2.004 . S
Co644 O654 2.021 . S
Co644 O656 2.137 . S
Co644 O657 2.244 . S
O645 Co644 2.216 . S
O645 C652 1.247 . S
O646 Co644 2.091 . S
O646 C652 1.261 . S
C647 O656 1.247 . S
C647 O657 1.272 . S
O648 Co644 2.004 . S
O648 C653 1.259 . S
Co649 O650 2.061 . S
Co649 O655 2.052 . S
Co649 O657 2.135 . S
O650 Co649 2.061 . S
O650 C653 1.235 . S
C651 O654 1.238 . S
C651 O655 1.241 . S
C652 O645 1.247 . S
C652 O646 1.261 . S
C653 O648 1.259 . S
C653 O650 1.235 . S
O654 Co644 2.021 . S
O654 C651 1.238 . S
O655 Co649 2.052 . S
O655 C651 1.241 . S
O656 Co644 2.137 . S
O656 C647 1.247 . S
O657 Co644 2.244 . S
O657 C647 1.272 . S
O657 Co649 2.135 . S
Co658 O659 2.216 . S
Co658 O660 2.091 . S
Co658 O662 2.004 . S
Co658 O668 2.021 . S
Co658 O670 2.137 . S
Co658 O671 2.244 . S
O659 Co658 2.216 . S
O659 C666 1.247 . S
O660 Co658 2.091 . S
O660 C666 1.261 . S
C661 O670 1.247 . S
C661 O671 1.272 . S
O662 Co658 2.004 . S
O662 C667 1.259 . S
Co663 O664 2.061 . S
Co663 O669 2.052 . S
Co663 O671 2.135 . S
O664 Co663 2.061 . S
O664 C667 1.235 . S
C665 O668 1.238 . S
C665 O669 1.241 . S
C666 O659 1.247 . S
C666 O660 1.261 . S
C667 O662 1.259 . S
C667 O664 1.235 . S
O668 Co658 2.021 . S
O668 C665 1.238 . S
O669 Co663 2.052 . S
O669 C665 1.241 . S
O670 Co658 2.137 . S
O670 C661 1.247 . S
O671 Co658 2.244 . S
O671 C661 1.272 . S
O671 Co663 2.135 . S
H672 C680 0.936 1_455 S
H673 C685 0.950 . S
H674 C682 0.950 . S
H675 C684 0.950 . S
H676 C686 0.935 1_655 S
H677 C688 0.950 . S
H678 C690 0.950 . S
H679 C691 0.950 . S
C680 H672 0.936 1_655 S
C680 C681 1.410 . S
C680 C682 1.382 1_655 S
C681 C680 1.410 . S
C681 C685 1.393 . S
C682 H674 0.950 . S
C682 C680 1.382 1_455 S
C682 C683 1.400 1_455 S
C683 C682 1.400 1_655 S
C683 C684 1.398 . S
C683 C689 1.491 1_655 S
C684 H675 0.950 . S
C684 C683 1.398 . S
C684 C685 1.391 . S
C685 H673 0.950 . S
C685 C681 1.393 . S
C685 C684 1.391 . S
C686 H676 0.935 1_455 S
C686 C687 1.410 . S
C686 C688 1.382 1_455 S
C687 C686 1.410 . S
C687 C691 1.393 . S
C688 H677 0.950 . S
C688 C686 1.382 1_655 S
C688 C689 1.400 1_655 S
C689 C683 1.491 1_455 S
C689 C688 1.400 1_455 S
C689 C690 1.398 . S
C690 H678 0.950 . S
C690 C689 1.398 . S
C690 C691 1.391 . S
C691 H679 0.950 . S
C691 C687 1.393 . S
C691 C690 1.391 . S
H692 C700 0.950 . S
H693 C705 0.950 . S
H694 C702 0.935 1_655 S
H695 C704 0.950 . S
H696 C706 0.950 . S
H697 C708 0.935 1_455 S
H698 C710 0.950 . S
H699 C711 0.950 . S
C700 H692 0.950 . S
C700 C701 1.386 . S
C700 C702 1.401 . S
C701 C700 1.386 . S
C701 C705 1.393 . S
C702 H694 0.935 1_455 S
C702 C700 1.401 . S
C702 C703 1.405 . S
C703 C702 1.405 . S
C703 C704 1.398 . S
C703 C709 1.491 1_455 S
C704 H695 0.950 . S
C704 C703 1.398 . S
C704 C705 1.391 . S
C705 H693 0.950 . S
C705 C701 1.393 . S
C705 C704 1.391 . S
C706 H696 0.950 . S
C706 C707 1.386 . S
C706 C708 1.402 . S
C707 C706 1.386 . S
C707 C711 1.393 . S
C708 H697 0.935 1_655 S
C708 C706 1.402 . S
C708 C709 1.405 . S
C709 C703 1.491 1_655 S
C709 C708 1.405 . S
C709 C710 1.398 . S
C710 H698 0.950 . S
C710 C709 1.398 . S
C710 C711 1.391 . S
C711 H699 0.950 . S
C711 C707 1.393 . S
C711 C710 1.391 . S
H712 C720 0.950 1_545 S
H713 C725 0.950 . S
H714 C722 0.950 . S
H715 C724 0.950 . S
H716 C726 0.950 1_565 S
H717 C728 0.950 . S
H718 C730 0.950 . S
H719 C731 0.950 . S
C720 H712 0.950 1_565 S
C720 C721 1.386 . S
C720 C722 1.391 1_565 S
C721 C720 1.386 . S
C721 C725 1.393 . S
C722 H714 0.950 . S
C722 C720 1.391 1_545 S
C722 C723 1.400 1_545 S
C723 C722 1.400 1_565 S
C723 C724 1.398 . S
C723 C729 1.491 1_565 S
C724 H715 0.950 . S
C724 C723 1.398 . S
C724 C725 1.391 . S
C725 H713 0.950 . S
C725 C721 1.393 . S
C725 C724 1.391 . S
C726 H716 0.950 1_545 S
C726 C727 1.386 . S
C726 C728 1.391 1_545 S
C727 C726 1.386 . S
C727 C731 1.393 . S
C728 H717 0.950 . S
C728 C726 1.391 1_565 S
C728 C729 1.400 1_565 S
C729 C723 1.491 1_545 S
C729 C728 1.400 1_545 S
C729 C730 1.398 . S
C730 H718 0.950 . S
C730 C729 1.398 . S
C730 C731 1.391 . S
C731 H719 0.950 . S
C731 C727 1.393 . S
C731 C730 1.391 . S
H732 C740 0.950 . S
H733 C745 0.950 . S
H734 C742 0.950 . S
H735 C744 0.950 . S
H736 C746 0.950 . S
H737 C748 0.950 . S
H738 C750 0.950 . S
H739 C751 0.950 . S
C740 H732 0.950 . S
C740 C741 1.386 . S
C740 C742 1.391 . S
C741 C740 1.386 . S
C741 C745 1.393 . S
C742 H734 0.950 . S
C742 C740 1.391 . S
C742 C743 1.400 . S
C743 C742 1.400 . S
C743 C744 1.398 . S
C743 C749 1.491 . S
C744 H735 0.950 . S
C744 C743 1.398 . S
C744 C745 1.391 . S
C745 H733 0.950 . S
C745 C741 1.393 . S
C745 C744 1.391 . S
C746 H736 0.950 . S
C746 C747 1.386 . S
C746 C748 1.391 . S
C747 C746 1.386 . S
C747 C751 1.393 . S
C748 H737 0.950 . S
C748 C746 1.391 . S
C748 C749 1.400 . S
C749 C743 1.491 . S
C749 C748 1.400 . S
C749 C750 1.398 . S
C750 H738 0.950 . S
C750 C749 1.398 . S
C750 C751 1.391 . S
C751 H739 0.950 . S
C751 C747 1.393 . S
C751 C750 1.391 . S
H752 C760 0.950 . S
H753 C765 0.953 . S
H754 C762 0.950 . S
H755 C764 0.950 . S
H756 C766 0.950 . S
H757 C768 0.950 . S
H758 C770 0.950 . S
H759 C771 0.953 . S
C760 H752 0.950 . S
C760 C761 1.386 . S
C760 C762 1.391 . S
C761 C760 1.386 . S
C761 C765 1.388 1_554 S
C762 H754 0.950 . S
C762 C760 1.391 . S
C762 C763 1.400 . S
C763 C762 1.400 . S
C763 C764 1.398 1_554 S
C763 C769 1.491 1_554 S
C764 H755 0.950 . S
C764 C763 1.398 1_556 S
C764 C765 1.393 . S
C765 H753 0.953 . S
C765 C761 1.388 1_556 S
C765 C764 1.393 . S
C766 H756 0.950 . S
C766 C767 1.386 . S
C766 C768 1.391 . S
C767 C766 1.386 . S
C767 C771 1.387 1_556 S
C768 H757 0.950 . S
C768 C766 1.391 . S
C768 C769 1.400 . S
C769 C763 1.491 1_556 S
C769 C768 1.400 . S
C769 C770 1.398 1_556 S
C770 H758 0.950 . S
C770 C769 1.398 1_554 S
C770 C771 1.393 . S
C771 H759 0.953 . S
C771 C767 1.387 1_554 S
C771 C770 1.393 . S
H772 C780 0.950 . S
H773 C785 0.950 . S
H774 C782 0.950 . S
H775 C784 0.950 . S
H776 C786 0.950 . S
H777 C788 0.950 . S
H778 C790 0.950 . S
H779 C791 0.950 . S
C780 H772 0.950 . S
C780 C781 1.386 . S
C780 C782 1.391 . S
C781 C780 1.386 . S
C781 C785 1.393 . S
C782 H774 0.950 . S
C782 C780 1.391 . S
C782 C783 1.400 . S
C783 C782 1.400 . S
C783 C784 1.398 . S
C783 C789 1.491 . S
C784 H775 0.950 . S
C784 C783 1.398 . S
C784 C785 1.391 . S
C785 H773 0.950 . S
C785 C781 1.393 . S
C785 C784 1.391 . S
C786 H776 0.950 . S
C786 C787 1.386 . S
C786 C788 1.391 . S
C787 C786 1.386 . S
C787 C791 1.393 . S
C788 H777 0.950 . S
C788 C786 1.391 . S
C788 C789 1.400 . S
C789 C783 1.491 . S
C789 C788 1.400 . S
C789 C790 1.398 . S
C790 H778 0.950 . S
C790 C789 1.398 . S
C790 C791 1.391 . S
C791 H779 0.950 . S
C791 C787 1.393 . S
C791 C790 1.391 . S
H792 C800 0.950 . S
H793 C805 0.950 . S
H794 C802 0.950 . S
H795 C804 0.950 . S
H796 C806 0.950 . S
H797 C808 0.950 . S
H798 C810 0.950 . S
H799 C811 0.950 . S
C800 H792 0.950 . S
C800 C801 1.386 . S
C800 C802 1.391 . S
C801 C800 1.386 . S
C801 C805 1.393 . S
C802 H794 0.950 . S
C802 C800 1.391 . S
C802 C803 1.400 . S
C803 C802 1.400 . S
C803 C804 1.398 . S
C803 C809 1.491 . S
C804 H795 0.950 . S
C804 C803 1.398 . S
C804 C805 1.391 . S
C805 H793 0.950 . S
C805 C801 1.393 . S
C805 C804 1.391 . S
C806 H796 0.950 . S
C806 C807 1.386 . S
C806 C808 1.391 . S
C807 C806 1.386 . S
C807 C811 1.393 . S
C808 H797 0.950 . S
C808 C806 1.391 . S
C808 C809 1.400 . S
C809 C803 1.491 . S
C809 C808 1.400 . S
C809 C810 1.398 . S
C810 H798 0.950 . S
C810 C809 1.398 . S
C810 C811 1.391 . S
C811 H799 0.950 . S
C811 C807 1.393 . S
C811 C810 1.391 . S
H812 C820 0.950 . S
H813 C825 0.950 . S
H814 C822 0.950 . S
H815 C824 0.950 . S
H816 C826 0.950 . S
H817 C828 0.950 . S
H818 C830 0.950 . S
H819 C831 0.950 . S
C820 H812 0.950 . S
C820 C821 1.386 . S
C820 C822 1.391 . S
C821 C820 1.386 . S
C821 C825 1.393 1_455 S
C822 H814 0.950 . S
C822 C820 1.391 . S
C822 C823 1.400 . S
C823 C822 1.400 . S
C823 C824 1.398 1_455 S
C823 C829 1.491 1_455 S
C824 H815 0.950 . S
C824 C823 1.398 1_655 S
C824 C825 1.391 . S
C825 H813 0.950 . S
C825 C821 1.393 1_655 S
C825 C824 1.391 . S
C826 H816 0.950 . S
C826 C827 1.386 . S
C826 C828 1.391 . S
C827 C826 1.386 . S
C827 C831 1.393 1_655 S
C828 H817 0.950 . S
C828 C826 1.391 . S
C828 C829 1.400 . S
C829 C823 1.491 1_655 S
C829 C828 1.400 . S
C829 C830 1.398 1_655 S
C830 H818 0.950 . S
C830 C829 1.398 1_455 S
C830 C831 1.391 . S
C831 H819 0.950 . S
C831 C827 1.393 1_455 S
C831 C830 1.391 . S
H832 C840 0.950 . S
H833 C845 0.950 . S
H834 C842 0.950 . S
H835 C844 0.950 . S
H836 C846 0.950 . S
H837 C848 0.950 . S
H838 C850 0.950 . S
H839 C851 0.950 . S
C840 H832 0.950 . S
C840 C841 1.386 . S
C840 C842 1.391 . S
C841 C840 1.386 . S
C841 C845 1.393 . S
C842 H834 0.950 . S
C842 C840 1.391 . S
C842 C843 1.400 . S
C843 C842 1.400 . S
C843 C844 1.398 1_455 S
C843 C849 1.491 1_455 S
C844 H835 0.950 . S
C844 C843 1.398 1_655 S
C844 C845 1.391 1_655 S
C845 H833 0.950 . S
C845 C841 1.393 . S
C845 C844 1.391 1_455 S
C846 H836 0.950 . S
C846 C847 1.386 . S
C846 C848 1.391 . S
C847 C846 1.386 . S
C847 C851 1.393 . S
C848 H837 0.950 . S
C848 C846 1.391 . S
C848 C849 1.400 . S
C849 C843 1.491 1_655 S
C849 C848 1.400 . S
C849 C850 1.398 1_655 S
C850 H838 0.950 . S
C850 C849 1.398 1_455 S
C850 C851 1.391 1_455 S
C851 H839 0.950 . S
C851 C847 1.393 . S
C851 C850 1.391 1_655 S
H852 C860 0.950 . S
H853 C865 0.950 1_565 S
H854 C862 0.950 . S
H855 C864 0.950 . S
H856 C866 0.950 . S
H857 C868 0.950 . S
H858 C870 0.950 . S
H859 C871 0.950 1_545 S
C860 H852 0.950 . S
C860 C861 1.386 . S
C860 C862 1.391 . S
C861 C860 1.386 . S
C861 C865 1.393 . S
C862 H854 0.950 . S
C862 C860 1.391 . S
C862 C863 1.400 . S
C863 C862 1.400 . S
C863 C864 1.398 1_545 S
C863 C869 1.491 1_545 S
C864 H855 0.950 . S
C864 C863 1.398 1_565 S
C864 C865 1.391 1_565 S
C865 H853 0.950 1_545 S
C865 C861 1.393 . S
C865 C864 1.391 1_545 S
C866 H856 0.950 . S
C866 C867 1.386 . S
C866 C868 1.391 . S
C867 C866 1.386 . S
C867 C871 1.393 . S
C868 H857 0.950 . S
C868 C866 1.391 . S
C868 C869 1.400 . S
C869 C863 1.491 1_565 S
C869 C868 1.400 . S
C869 C870 1.398 1_565 S
C870 H858 0.950 . S
C870 C869 1.398 1_545 S
C870 C871 1.391 1_545 S
C871 H859 0.950 1_565 S
C871 C867 1.393 . S
C871 C870 1.391 1_565 S
H872 C880 0.950 . S
H873 C885 0.950 . S
H874 C882 0.950 . S
H875 C884 0.950 . S
H876 C886 0.950 . S
H877 C888 0.950 . S
H878 C890 0.950 . S
H879 C891 0.950 . S
C880 H872 0.950 . S
C880 C881 1.386 . S
C880 C882 1.391 . S
C881 C880 1.386 . S
C881 C885 1.393 . S
C882 H874 0.950 . S
C882 C880 1.391 . S
C882 C883 1.400 . S
C883 C882 1.400 . S
C883 C884 1.398 . S
C883 C889 1.491 . S
C884 H875 0.950 . S
C884 C883 1.398 . S
C884 C885 1.391 . S
C885 H873 0.950 . S
C885 C881 1.393 . S
C885 C884 1.391 . S
C886 H876 0.950 . S
C886 C887 1.386 . S
C886 C888 1.391 . S
C887 C886 1.386 . S
C887 C891 1.393 . S
C888 H877 0.950 . S
C888 C886 1.391 . S
C888 C889 1.400 . S
C889 C883 1.491 . S
C889 C888 1.400 . S
C889 C890 1.398 . S
C890 H878 0.950 . S
C890 C889 1.398 . S
C890 C891 1.391 . S
C891 H879 0.950 . S
C891 C887 1.393 . S
C891 C890 1.391 . S
H892 C900 0.950 . S
H893 C905 0.950 . S
H894 C902 0.950 . S
H895 C904 0.950 . S
H896 C906 0.950 . S
H897 C908 0.950 . S
H898 C910 0.950 . S
H899 C911 0.950 . S
C900 H892 0.950 . S
C900 C901 1.386 . S
C900 C902 1.391 . S
C901 C900 1.386 . S
C901 C905 1.393 . S
C902 H894 0.950 . S
C902 C900 1.391 . S
C902 C903 1.400 . S
C903 C902 1.400 . S
C903 C904 1.398 . S
C903 C909 1.491 1_556 S
C904 H895 0.950 . S
C904 C903 1.398 . S
C904 C905 1.391 . S
C905 H893 0.950 . S
C905 C901 1.393 . S
C905 C904 1.391 . S
C906 H896 0.950 . S
C906 C907 1.386 . S
C906 C908 1.391 . S
C907 C906 1.386 . S
C907 C911 1.393 . S
C908 H897 0.950 . S
C908 C906 1.391 . S
C908 C909 1.400 . S
C909 C903 1.491 1_554 S
C909 C908 1.400 . S
C909 C910 1.398 . S
C910 H898 0.950 . S
C910 C909 1.398 . S
C910 C911 1.391 . S
C911 H899 0.950 . S
C911 C907 1.393 . S
C911 C910 1.391 . S
H912 C920 0.950 . S
H913 C925 0.950 . S
H914 C922 0.950 . S
H915 C924 0.950 . S
H916 C926 0.950 . S
H917 C928 0.950 . S
H918 C930 0.950 . S
H919 C931 0.950 . S
C920 H912 0.950 . S
C920 C921 1.386 . S
C920 C922 1.391 . S
C921 C920 1.386 . S
C921 C925 1.393 . S
C922 H914 0.950 . S
C922 C920 1.391 . S
C922 C923 1.400 . S
C923 C922 1.400 . S
C923 C924 1.398 . S
C923 C929 1.491 . S
C924 H915 0.950 . S
C924 C923 1.398 . S
C924 C925 1.391 . S
C925 H913 0.950 . S
C925 C921 1.393 . S
C925 C924 1.391 . S
C926 H916 0.950 . S
C926 C927 1.386 . S
C926 C928 1.391 . S
C927 C926 1.386 . S
C927 C931 1.393 . S
C928 H917 0.950 . S
C928 C926 1.391 . S
C928 C929 1.400 . S
C929 C923 1.491 . S
C929 C928 1.400 . S
C929 C930 1.398 . S
C930 H918 0.950 . S
C930 C929 1.398 . S
C930 C931 1.391 . S
C931 H919 0.950 . S
C931 C927 1.393 . S
C931 C930 1.391 . S
H932 C940 0.950 . S
H933 C945 0.950 . S
H934 C942 0.950 . S
H935 C944 0.950 . S
H936 C946 0.950 . S
H937 C948 0.950 . S
H938 C950 0.950 . S
H939 C951 0.950 . S
C940 H932 0.950 . S
C940 C941 1.386 . S
C940 C942 1.391 . S
C941 C940 1.386 . S
C941 C945 1.393 . S
C942 H934 0.950 . S
C942 C940 1.391 . S
C942 C943 1.400 . S
C943 C942 1.400 . S
C943 C944 1.398 . S
C943 C949 1.491 . S
C944 H935 0.950 . S
C944 C943 1.398 . S
C944 C945 1.391 . S
C945 H933 0.950 . S
C945 C941 1.393 . S
C945 C944 1.391 . S
C946 H936 0.950 . S
C946 C947 1.386 . S
C946 C948 1.391 . S
C947 C946 1.386 . S
C947 C951 1.393 . S
C948 H937 0.950 . S
C948 C946 1.391 . S
C948 C949 1.400 . S
C949 C943 1.491 . S
C949 C948 1.400 . S
C949 C950 1.398 . S
C950 H938 0.950 . S
C950 C949 1.398 . S
C950 C951 1.391 . S
C951 H939 0.950 . S
C951 C947 1.393 . S
C951 C950 1.391 . S
H952 C960 0.950 . S
H953 C965 0.950 . S
H954 C962 0.950 . S
H955 C964 0.950 . S
H956 C966 0.950 . S
H957 C968 0.950 . S
H958 C970 0.950 . S
H959 C971 0.950 . S
C960 H952 0.950 . S
C960 C961 1.386 . S
C960 C962 1.391 . S
C961 C960 1.386 . S
C961 C965 1.393 . S
C962 H954 0.950 . S
C962 C960 1.391 . S
C962 C963 1.400 . S
C963 C962 1.400 . S
C963 C964 1.398 . S
C963 C969 1.491 . S
C964 H955 0.950 . S
C964 C963 1.398 . S
C964 C965 1.391 . S
C965 H953 0.950 . S
C965 C961 1.393 . S
C965 C964 1.391 . S
C966 H956 0.950 . S
C966 C967 1.386 . S
C966 C968 1.391 . S
C967 C966 1.386 . S
C967 C971 1.393 . S
C968 H957 0.950 . S
C968 C966 1.391 . S
C968 C969 1.400 . S
C969 C963 1.491 . S
C969 C968 1.400 . S
C969 C970 1.398 . S
C970 H958 0.950 . S
C970 C969 1.398 . S
C970 C971 1.391 . S
C971 H959 0.950 . S
C971 C967 1.393 . S
C971 C970 1.391 . S
H972 C980 0.950 . S
H973 C985 0.950 . S
H974 C982 0.950 . S
H975 C984 0.950 . S
H976 C986 0.950 . S
H977 C988 0.950 . S
H978 C990 0.950 . S
H979 C991 0.950 . S
C980 H972 0.950 . S
C980 C981 1.386 . S
C980 C982 1.391 . S
C981 C980 1.386 . S
C981 C985 1.393 . S
C982 H974 0.950 . S
C982 C980 1.391 . S
C982 C983 1.400 . S
C983 C982 1.400 . S
C983 C984 1.398 . S
C983 C989 1.491 . S
C984 H975 0.950 . S
C984 C983 1.398 . S
C984 C985 1.391 . S
C985 H973 0.950 . S
C985 C981 1.393 . S
C985 C984 1.391 . S
C986 H976 0.950 . S
C986 C987 1.386 . S
C986 C988 1.391 . S
C987 C986 1.386 . S
C987 C991 1.393 . S
C988 H977 0.950 . S
C988 C986 1.391 . S
C988 C989 1.400 . S
C989 C983 1.491 . S
C989 C988 1.400 . S
C989 C990 1.398 . S
C990 H978 0.950 . S
C990 C989 1.398 . S
C990 C991 1.391 . S
C991 H979 0.950 . S
C991 C987 1.393 . S
C991 C990 1.391 . S
H992 C1000 0.950 . S
H993 C1005 0.950 . S
H994 C1002 0.950 . S
H995 C1004 0.950 . S
H996 C1006 0.950 . S
H997 C1008 0.950 . S
H998 C1010 0.950 . S
H999 C1011 0.950 . S
C1000 H992 0.950 . S
C1000 C1001 1.386 . S
C1000 C1002 1.391 . S
C1001 C1000 1.386 . S
C1001 C1005 1.393 . S
C1002 H994 0.950 . S
C1002 C1000 1.391 . S
C1002 C1003 1.400 . S
C1003 C1002 1.400 . S
C1003 C1004 1.398 . S
C1003 C1009 1.491 . S
C1004 H995 0.950 . S
C1004 C1003 1.398 . S
C1004 C1005 1.391 . S
C1005 H993 0.950 . S
C1005 C1001 1.393 . S
C1005 C1004 1.391 . S
C1006 H996 0.950 . S
C1006 C1007 1.386 . S
C1006 C1008 1.391 . S
C1007 C1006 1.386 . S
C1007 C1011 1.393 . S
C1008 H997 0.950 . S
C1008 C1006 1.391 . S
C1008 C1009 1.400 . S
C1009 C1003 1.491 . S
C1009 C1008 1.400 . S
C1009 C1010 1.398 . S
C1010 H998 0.950 . S
C1010 C1009 1.398 . S
C1010 C1011 1.391 . S
C1011 H999 0.950 . S
C1011 C1007 1.393 . S
C1011 C1010 1.391 . S
H1012 C1020 0.950 . S
H1013 C1025 0.950 . S
H1014 C1022 0.950 1_565 S
H1015 C1024 0.950 . S
H1016 C1026 0.950 . S
H1017 C1028 0.950 1_545 S
H1018 C1030 0.950 . S
H1019 C1031 0.950 . S
C1020 H1012 0.950 . S
C1020 C1021 1.386 . S
C1020 C1022 1.391 . S
C1021 C1020 1.386 . S
C1021 C1025 1.393 . S
C1022 H1014 0.950 1_545 S
C1022 C1020 1.391 . S
C1022 C1023 1.400 . S
C1023 C1022 1.400 . S
C1023 C1024 1.398 . S
C1023 C1029 1.491 1_545 S
C1024 H1015 0.950 . S
C1024 C1023 1.398 . S
C1024 C1025 1.391 . S
C1025 H1013 0.950 . S
C1025 C1021 1.393 . S
C1025 C1024 1.391 . S
C1026 H1016 0.950 . S
C1026 C1027 1.386 . S
C1026 C1028 1.391 . S
C1027 C1026 1.386 . S
C1027 C1031 1.393 . S
C1028 H1017 0.950 1_565 S
C1028 C1026 1.391 . S
C1028 C1029 1.400 . S
C1029 C1023 1.491 1_565 S
C1029 C1028 1.400 . S
C1029 C1030 1.398 . S
C1030 H1018 0.950 . S
C1030 C1029 1.398 . S
C1030 C1031 1.391 . S
C1031 H1019 0.950 . S
C1031 C1027 1.393 . S
C1031 C1030 1.391 . S
H1032 C1040 0.950 . S
H1033 C1045 0.950 . S
H1034 C1042 0.950 . S
H1035 C1044 0.950 . S
H1036 C1046 0.950 . S
H1037 C1048 0.950 . S
H1038 C1050 0.950 . S
H1039 C1051 0.950 . S
C1040 H1032 0.950 . S
C1040 C1041 1.386 . S
C1040 C1042 1.391 . S
C1041 C1040 1.386 . S
C1041 C1045 1.393 1_554 S
C1042 H1034 0.950 . S
C1042 C1040 1.391 . S
C1042 C1043 1.400 . S
C1043 C1042 1.400 . S
C1043 C1044 1.398 1_554 S
C1043 C1049 1.491 1_554 S
C1044 H1035 0.950 . S
C1044 C1043 1.398 1_556 S
C1044 C1045 1.391 . S
C1045 H1033 0.950 . S
C1045 C1041 1.393 1_556 S
C1045 C1044 1.391 . S
C1046 H1036 0.950 . S
C1046 C1047 1.386 . S
C1046 C1048 1.391 . S
C1047 C1046 1.386 . S
C1047 C1051 1.393 1_556 S
C1048 H1037 0.950 . S
C1048 C1046 1.391 . S
C1048 C1049 1.400 . S
C1049 C1043 1.491 1_556 S
C1049 C1048 1.400 . S
C1049 C1050 1.398 1_556 S
C1050 H1038 0.950 . S
C1050 C1049 1.398 1_554 S
C1050 C1051 1.391 . S
C1051 H1039 0.950 . S
C1051 C1047 1.393 1_554 S
C1051 C1050 1.391 . S
H1052 C1060 0.950 . S
H1053 C1065 0.950 . S
H1054 C1062 0.950 . S
H1055 C1064 0.950 . S
H1056 C1066 0.950 . S
H1057 C1068 0.950 . S
H1058 C1070 0.950 . S
H1059 C1071 0.950 . S
C1060 H1052 0.950 . S
C1060 C1061 1.386 . S
C1060 C1062 1.391 . S
C1061 C1060 1.386 . S
C1061 C1065 1.393 . S
C1062 H1054 0.950 . S
C1062 C1060 1.391 . S
C1062 C1063 1.400 . S
C1063 C1062 1.400 . S
C1063 C1064 1.398 . S
C1063 C1069 1.491 . S
C1064 H1055 0.950 . S
C1064 C1063 1.398 . S
C1064 C1065 1.391 . S
C1065 H1053 0.950 . S
C1065 C1061 1.393 . S
C1065 C1064 1.391 . S
C1066 H1056 0.950 . S
C1066 C1067 1.386 . S
C1066 C1068 1.391 . S
C1067 C1066 1.386 . S
C1067 C1071 1.393 . S
C1068 H1057 0.950 . S
C1068 C1066 1.391 . S
C1068 C1069 1.400 . S
C1069 C1063 1.491 . S
C1069 C1068 1.400 . S
C1069 C1070 1.398 . S
C1070 H1058 0.950 . S
C1070 C1069 1.398 . S
C1070 C1071 1.391 . S
C1071 H1059 0.950 . S
C1071 C1067 1.393 . S
C1071 C1070 1.391 . S
H1072 C1080 0.950 . S
H1073 C1085 0.950 . S
H1074 C1082 0.950 . S
H1075 C1084 0.950 . S
H1076 C1086 0.950 . S
H1077 C1088 0.950 . S
H1078 C1090 0.950 . S
H1079 C1091 0.950 . S
C1080 H1072 0.950 . S
C1080 C1081 1.386 . S
C1080 C1082 1.391 . S
C1081 C1080 1.386 . S
C1081 C1085 1.393 . S
C1082 H1074 0.950 . S
C1082 C1080 1.391 . S
C1082 C1083 1.400 . S
C1083 C1082 1.400 . S
C1083 C1084 1.398 . S
C1083 C1089 1.491 . S
C1084 H1075 0.950 . S
C1084 C1083 1.398 . S
C1084 C1085 1.391 . S
C1085 H1073 0.950 . S
C1085 C1081 1.393 . S
C1085 C1084 1.391 . S
C1086 H1076 0.950 . S
C1086 C1087 1.386 . S
C1086 C1088 1.391 . S
C1087 C1086 1.386 . S
C1087 C1091 1.393 . S
C1088 H1077 0.950 . S
C1088 C1086 1.391 . S
C1088 C1089 1.400 . S
C1089 C1083 1.491 . S
C1089 C1088 1.400 . S
C1089 C1090 1.398 . S
C1090 H1078 0.950 . S
C1090 C1089 1.398 . S
C1090 C1091 1.391 . S
C1091 H1079 0.950 . S
C1091 C1087 1.393 . S
C1091 C1090 1.391 . S
H1092 C1100 0.950 . S
H1093 C1105 0.950 . S
H1094 C1102 0.950 . S
H1095 C1104 0.950 . S
H1096 C1106 0.950 . S
H1097 C1108 0.950 . S
H1098 C1110 0.950 . S
H1099 C1111 0.950 . S
C1100 H1092 0.950 . S
C1100 C1101 1.386 . S
C1100 C1102 1.391 . S
C1101 C1100 1.386 . S
C1101 C1105 1.393 . S
C1102 H1094 0.950 . S
C1102 C1100 1.391 . S
C1102 C1103 1.400 . S
C1103 C1102 1.400 . S
C1103 C1104 1.398 . S
C1103 C1109 1.491 . S
C1104 H1095 0.950 . S
C1104 C1103 1.398 . S
C1104 C1105 1.391 . S
C1105 H1093 0.950 . S
C1105 C1101 1.393 . S
C1105 C1104 1.391 . S
C1106 H1096 0.950 . S
C1106 C1107 1.386 . S
C1106 C1108 1.391 . S
C1107 C1106 1.386 . S
C1107 C1111 1.393 . S
C1108 H1097 0.950 . S
C1108 C1106 1.391 . S
C1108 C1109 1.400 . S
C1109 C1103 1.491 . S
C1109 C1108 1.400 . S
C1109 C1110 1.398 . S
C1110 H1098 0.950 . S
C1110 C1109 1.398 . S
C1110 C1111 1.391 . S
C1111 H1099 0.950 . S
C1111 C1107 1.393 . S
C1111 C1110 1.391 . S
H1112 C1120 0.957 . S
H1113 C1125 0.950 . S
H1114 C1122 0.950 . S
H1115 C1124 0.950 . S
H1116 C1126 0.957 . S
H1117 C1128 0.950 . S
H1118 C1130 0.950 . S
H1119 C1131 0.950 . S
C1120 H1112 0.957 . S
C1120 C1121 1.386 . S
C1120 C1122 1.391 1_545 S
C1121 C1120 1.386 . S
C1121 C1125 1.393 . S
C1122 H1114 0.950 . S
C1122 C1120 1.391 1_565 S
C1122 C1123 1.400 1_565 S
C1123 C1122 1.400 1_545 S
C1123 C1124 1.398 . S
C1123 C1129 1.491 1_545 S
C1124 H1115 0.950 . S
C1124 C1123 1.398 . S
C1124 C1125 1.391 . S
C1125 H1113 0.950 . S
C1125 C1121 1.393 . S
C1125 C1124 1.391 . S
C1126 H1116 0.957 . S
C1126 C1127 1.386 . S
C1126 C1128 1.391 1_565 S
C1127 C1126 1.386 . S
C1127 C1131 1.393 . S
C1128 H1117 0.950 . S
C1128 C1126 1.391 1_545 S
C1128 C1129 1.400 1_545 S
C1129 C1123 1.491 1_565 S
C1129 C1128 1.400 1_565 S
C1129 C1130 1.398 . S
C1130 H1118 0.950 . S
C1130 C1129 1.398 . S
C1130 C1131 1.391 . S
C1131 H1119 0.950 . S
C1131 C1127 1.393 . S
C1131 C1130 1.391 . S
H1132 C1140 0.950 . S
H1133 C1145 0.950 . S
H1134 C1142 0.950 . S
H1135 C1144 0.950 . S
H1136 C1146 0.950 . S
H1137 C1148 0.950 . S
H1138 C1150 0.950 . S
H1139 C1151 0.950 . S
C1140 H1132 0.950 . S
C1140 C1141 1.386 . S
C1140 C1142 1.391 . S
C1141 C1140 1.386 . S
C1141 C1145 1.393 1_554 S
C1142 H1134 0.950 . S
C1142 C1140 1.391 . S
C1142 C1143 1.400 . S
C1143 C1142 1.400 . S
C1143 C1144 1.398 1_554 S
C1143 C1149 1.491 1_554 S
C1144 H1135 0.950 . S
C1144 C1143 1.398 1_556 S
C1144 C1145 1.391 . S
C1145 H1133 0.950 . S
C1145 C1141 1.393 1_556 S
C1145 C1144 1.391 . S
C1146 H1136 0.950 . S
C1146 C1147 1.386 . S
C1146 C1148 1.391 . S
C1147 C1146 1.386 . S
C1147 C1151 1.393 1_556 S
C1148 H1137 0.950 . S
C1148 C1146 1.391 . S
C1148 C1149 1.400 . S
C1149 C1143 1.491 1_556 S
C1149 C1148 1.400 . S
C1149 C1150 1.398 1_556 S
C1150 H1138 0.950 . S
C1150 C1149 1.398 1_554 S
C1150 C1151 1.391 . S
C1151 H1139 0.950 . S
C1151 C1147 1.393 1_554 S
C1151 C1150 1.391 . S
H1152 C1160 0.950 . S
H1153 C1165 0.950 . S
H1154 C1162 0.950 . S
H1155 C1164 0.950 . S
H1156 C1166 0.950 . S
H1157 C1168 0.950 . S
H1158 C1170 0.950 . S
H1159 C1171 0.950 . S
C1160 H1152 0.950 . S
C1160 C1161 1.386 . S
C1160 C1162 1.391 . S
C1161 C1160 1.386 . S
C1161 C1165 1.393 . S
C1162 H1154 0.950 . S
C1162 C1160 1.391 . S
C1162 C1163 1.400 . S
C1163 C1162 1.400 . S
C1163 C1164 1.398 . S
C1163 C1169 1.491 . S
C1164 H1155 0.950 . S
C1164 C1163 1.398 . S
C1164 C1165 1.391 . S
C1165 H1153 0.950 . S
C1165 C1161 1.393 . S
C1165 C1164 1.391 . S
C1166 H1156 0.950 . S
C1166 C1167 1.386 . S
C1166 C1168 1.391 . S
C1167 C1166 1.386 . S
C1167 C1171 1.393 . S
C1168 H1157 0.950 . S
C1168 C1166 1.391 . S
C1168 C1169 1.400 . S
C1169 C1163 1.491 . S
C1169 C1168 1.400 . S
C1169 C1170 1.398 . S
C1170 H1158 0.950 . S
C1170 C1169 1.398 . S
C1170 C1171 1.391 . S
C1171 H1159 0.950 . S
C1171 C1167 1.393 . S
C1171 C1170 1.391 . S
H1172 C1180 0.950 . S
H1173 C1185 0.950 . S
H1174 C1182 0.950 . S
H1175 C1184 0.950 . S
H1176 C1186 0.950 . S
H1177 C1188 0.950 . S
H1178 C1190 0.950 . S
H1179 C1191 0.950 . S
C1180 H1172 0.950 . S
C1180 C1181 1.386 . S
C1180 C1182 1.391 . S
C1181 C1180 1.386 . S
C1181 C1185 1.393 . S
C1182 H1174 0.950 . S
C1182 C1180 1.391 . S
C1182 C1183 1.400 . S
C1183 C1182 1.400 . S
C1183 C1184 1.398 . S
C1183 C1189 1.491 . S
C1184 H1175 0.950 . S
C1184 C1183 1.398 . S
C1184 C1185 1.391 . S
C1185 H1173 0.950 . S
C1185 C1181 1.393 . S
C1185 C1184 1.391 . S
C1186 H1176 0.950 . S
C1186 C1187 1.386 . S
C1186 C1188 1.391 . S
C1187 C1186 1.386 . S
C1187 C1191 1.393 . S
C1188 H1177 0.950 . S
C1188 C1186 1.391 . S
C1188 C1189 1.400 . S
C1189 C1183 1.491 . S
C1189 C1188 1.400 . S
C1189 C1190 1.398 . S
C1190 H1178 0.950 . S
C1190 C1189 1.398 . S
C1190 C1191 1.391 . S
C1191 H1179 0.950 . S
C1191 C1187 1.393 . S
C1191 C1190 1.391 . S
H1192 C1200 0.950 . S
H1193 C1205 0.950 . S
H1194 C1202 0.950 . S
H1195 C1204 0.950 . S
H1196 C1206 0.950 . S
H1197 C1208 0.950 . S
H1198 C1210 0.950 . S
H1199 C1211 0.950 . S
C1200 H1192 0.950 . S
C1200 C1201 1.386 . S
C1200 C1202 1.391 . S
C1201 C1200 1.386 . S
C1201 C1205 1.393 . S
C1202 H1194 0.950 . S
C1202 C1200 1.391 . S
C1202 C1203 1.400 . S
C1203 C1202 1.400 . S
C1203 C1204 1.398 . S
C1203 C1209 1.491 . S
C1204 H1195 0.950 . S
C1204 C1203 1.398 . S
C1204 C1205 1.391 . S
C1205 H1193 0.950 . S
C1205 C1201 1.393 . S
C1205 C1204 1.391 . S
C1206 H1196 0.950 . S
C1206 C1207 1.386 . S
C1206 C1208 1.391 . S
C1207 C1206 1.386 . S
C1207 C1211 1.393 . S
C1208 H1197 0.950 . S
C1208 C1206 1.391 . S
C1208 C1209 1.400 . S
C1209 C1203 1.491 . S
C1209 C1208 1.400 . S
C1209 C1210 1.398 . S
C1210 H1198 0.950 . S
C1210 C1209 1.398 . S
C1210 C1211 1.391 . S
C1211 H1199 0.950 . S
C1211 C1207 1.393 . S
C1211 C1210 1.391 . S
H1212 C1220 0.950 . S
H1213 C1225 0.950 . S
H1214 C1222 0.950 . S
H1215 C1224 0.950 . S
H1216 C1226 0.950 . S
H1217 C1228 0.950 . S
H1218 C1230 0.950 . S
H1219 C1231 0.950 . S
C1220 H1212 0.950 . S
C1220 C1221 1.386 . S
C1220 C1222 1.391 . S
C1221 C1220 1.386 . S
C1221 C1225 1.393 . S
C1222 H1214 0.950 . S
C1222 C1220 1.391 . S
C1222 C1223 1.400 . S
C1223 C1222 1.400 . S
C1223 C1224 1.398 . S
C1223 C1229 1.491 . S
C1224 H1215 0.950 . S
C1224 C1223 1.398 . S
C1224 C1225 1.391 . S
C1225 H1213 0.950 . S
C1225 C1221 1.393 . S
C1225 C1224 1.391 . S
C1226 H1216 0.950 . S
C1226 C1227 1.386 . S
C1226 C1228 1.391 . S
C1227 C1226 1.386 . S
C1227 C1231 1.393 . S
C1228 H1217 0.950 . S
C1228 C1226 1.391 . S
C1228 C1229 1.400 . S
C1229 C1223 1.491 . S
C1229 C1228 1.400 . S
C1229 C1230 1.398 . S
C1230 H1218 0.950 . S
C1230 C1229 1.398 . S
C1230 C1231 1.391 . S
C1231 H1219 0.950 . S
C1231 C1227 1.393 . S
C1231 C1230 1.391 . S
H1232 C1240 0.950 . S
H1233 C1245 0.950 . S
H1234 C1242 0.950 . S
H1235 C1244 0.950 . S
H1236 C1246 0.950 . S
H1237 C1248 0.950 . S
H1238 C1250 0.950 . S
H1239 C1251 0.950 . S
C1240 H1232 0.950 . S
C1240 C1241 1.386 . S
C1240 C1242 1.391 . S
C1241 C1240 1.386 . S
C1241 C1245 1.393 . S
C1242 H1234 0.950 . S
C1242 C1240 1.391 . S
C1242 C1243 1.400 . S
C1243 C1242 1.400 . S
C1243 C1244 1.398 . S
C1243 C1249 1.491 . S
C1244 H1235 0.950 . S
C1244 C1243 1.398 . S
C1244 C1245 1.391 . S
C1245 H1233 0.950 . S
C1245 C1241 1.393 . S
C1245 C1244 1.391 . S
C1246 H1236 0.950 . S
C1246 C1247 1.386 . S
C1246 C1248 1.391 . S
C1247 C1246 1.386 . S
C1247 C1251 1.393 . S
C1248 H1237 0.950 . S
C1248 C1246 1.391 . S
C1248 C1249 1.400 . S
C1249 C1243 1.491 . S
C1249 C1248 1.400 . S
C1249 C1250 1.398 . S
C1250 H1238 0.950 . S
C1250 C1249 1.398 . S
C1250 C1251 1.391 . S
C1251 H1239 0.950 . S
C1251 C1247 1.393 . S
C1251 C1250 1.391 . S
H1252 C1260 0.950 . S
H1253 C1265 0.950 . S
H1254 C1262 0.950 . S
H1255 C1264 0.950 . S
H1256 C1266 0.950 . S
H1257 C1268 0.950 . S
H1258 C1270 0.950 . S
H1259 C1271 0.950 . S
C1260 H1252 0.950 . S
C1260 C1261 1.386 . S
C1260 C1262 1.391 . S
C1261 C1260 1.386 . S
C1261 C1265 1.393 . S
C1262 H1254 0.950 . S
C1262 C1260 1.391 . S
C1262 C1263 1.400 . S
C1263 C1262 1.400 . S
C1263 C1264 1.398 . S
C1263 C1269 1.491 . S
C1264 H1255 0.950 . S
C1264 C1263 1.398 . S
C1264 C1265 1.391 . S
C1265 H1253 0.950 . S
C1265 C1261 1.393 . S
C1265 C1264 1.391 . S
C1266 H1256 0.950 . S
C1266 C1267 1.386 . S
C1266 C1268 1.391 . S
C1267 C1266 1.386 . S
C1267 C1271 1.393 . S
C1268 H1257 0.950 . S
C1268 C1266 1.391 . S
C1268 C1269 1.400 . S
C1269 C1263 1.491 . S
C1269 C1268 1.400 . S
C1269 C1270 1.398 . S
C1270 H1258 0.950 . S
C1270 C1269 1.398 . S
C1270 C1271 1.391 . S
C1271 H1259 0.950 . S
C1271 C1267 1.393 . S
C1271 C1270 1.391 . S
H1272 C1280 0.950 . S
H1273 C1285 0.950 . S
H1274 C1282 0.950 . S
H1275 C1284 0.950 . S
H1276 C1286 0.950 . S
H1277 C1288 0.950 . S
H1278 C1290 0.950 . S
H1279 C1291 0.950 . S
C1280 H1272 0.950 . S
C1280 C1281 1.386 . S
C1280 C1282 1.391 . S
C1281 C1280 1.386 . S
C1281 C1285 1.393 . S
C1282 H1274 0.950 . S
C1282 C1280 1.391 . S
C1282 C1283 1.400 . S
C1283 C1282 1.400 . S
C1283 C1284 1.398 . S
C1283 C1289 1.491 . S
C1284 H1275 0.950 . S
C1284 C1283 1.398 . S
C1284 C1285 1.391 . S
C1285 H1273 0.950 . S
C1285 C1281 1.393 . S
C1285 C1284 1.391 . S
C1286 H1276 0.950 . S
C1286 C1287 1.386 . S
C1286 C1288 1.391 . S
C1287 C1286 1.386 . S
C1287 C1291 1.393 . S
C1288 H1277 0.950 . S
C1288 C1286 1.391 . S
C1288 C1289 1.400 . S
C1289 C1283 1.491 . S
C1289 C1288 1.400 . S
C1289 C1290 1.398 . S
C1290 H1278 0.950 . S
C1290 C1289 1.398 . S
C1290 C1291 1.391 . S
C1291 H1279 0.950 . S
C1291 C1287 1.393 . S
C1291 C1290 1.391 . S
H1292 C1300 0.950 . S
H1293 C1305 0.950 . S
H1294 C1302 0.950 . S
H1295 C1304 0.950 . S
H1296 C1306 0.950 . S
H1297 C1308 0.950 . S
H1298 C1310 0.950 . S
H1299 C1311 0.950 . S
C1300 H1292 0.950 . S
C1300 C1301 1.386 . S
C1300 C1302 1.391 . S
C1301 C1300 1.386 . S
C1301 C1305 1.393 . S
C1302 H1294 0.950 . S
C1302 C1300 1.391 . S
C1302 C1303 1.400 . S
C1303 C1302 1.400 . S
C1303 C1304 1.398 . S
C1303 C1309 1.491 . S
C1304 H1295 0.950 . S
C1304 C1303 1.398 . S
C1304 C1305 1.391 . S
C1305 H1293 0.950 . S
C1305 C1301 1.393 . S
C1305 C1304 1.391 . S
C1306 H1296 0.950 . S
C1306 C1307 1.386 . S
C1306 C1308 1.391 . S
C1307 C1306 1.386 . S
C1307 C1311 1.393 . S
C1308 H1297 0.950 . S
C1308 C1306 1.391 . S
C1308 C1309 1.400 . S
C1309 C1303 1.491 . S
C1309 C1308 1.400 . S
C1309 C1310 1.398 . S
C1310 H1298 0.950 . S
C1310 C1309 1.398 . S
C1310 C1311 1.391 . S
C1311 H1299 0.950 . S
C1311 C1307 1.393 . S
C1311 C1310 1.391 . S
H1312 C1320 0.950 . S
H1313 C1325 0.950 . S
H1314 C1322 0.950 . S
H1315 C1324 0.950 . S
H1316 C1326 0.950 . S
H1317 C1328 0.950 . S
H1318 C1330 0.950 . S
H1319 C1331 0.950 . S
C1320 H1312 0.950 . S
C1320 C1321 1.386 . S
C1320 C1322 1.391 . S
C1321 C1320 1.386 . S
C1321 C1325 1.393 . S
C1322 H1314 0.950 . S
C1322 C1320 1.391 . S
C1322 C1323 1.400 . S
C1323 C1322 1.400 . S
C1323 C1324 1.398 . S
C1323 C1329 1.491 . S
C1324 H1315 0.950 . S
C1324 C1323 1.398 . S
C1324 C1325 1.391 . S
C1325 H1313 0.950 . S
C1325 C1321 1.393 . S
C1325 C1324 1.391 . S
C1326 H1316 0.950 . S
C1326 C1327 1.386 . S
C1326 C1328 1.391 . S
C1327 C1326 1.386 . S
C1327 C1331 1.393 . S
C1328 H1317 0.950 . S
C1328 C1326 1.391 . S
C1328 C1329 1.400 . S
C1329 C1323 1.491 . S
C1329 C1328 1.400 . S
C1329 C1330 1.398 . S
C1330 H1318 0.950 . S
C1330 C1329 1.398 . S
C1330 C1331 1.391 . S
C1331 H1319 0.950 . S
C1331 C1327 1.393 . S
C1331 C1330 1.391 . S
H1332 C1340 0.950 . S
H1333 C1345 0.950 . S
H1334 C1342 0.950 . S
H1335 C1344 0.950 . S
H1336 C1346 0.950 . S
H1337 C1348 0.950 . S
H1338 C1350 0.950 . S
H1339 C1351 0.950 . S
C1340 H1332 0.950 . S
C1340 C1341 1.386 . S
C1340 C1342 1.391 . S
C1341 C1340 1.386 . S
C1341 C1345 1.393 . S
C1342 H1334 0.950 . S
C1342 C1340 1.391 . S
C1342 C1343 1.400 . S
C1343 C1342 1.400 . S
C1343 C1344 1.398 . S
C1343 C1349 1.491 . S
C1344 H1335 0.950 . S
C1344 C1343 1.398 . S
C1344 C1345 1.391 . S
C1345 H1333 0.950 . S
C1345 C1341 1.393 . S
C1345 C1344 1.391 . S
C1346 H1336 0.950 . S
C1346 C1347 1.386 . S
C1346 C1348 1.391 . S
C1347 C1346 1.386 . S
C1347 C1351 1.393 . S
C1348 H1337 0.950 . S
C1348 C1346 1.391 . S
C1348 C1349 1.400 . S
C1349 C1343 1.491 . S
C1349 C1348 1.400 . S
C1349 C1350 1.398 . S
C1350 H1338 0.950 . S
C1350 C1349 1.398 . S
C1350 C1351 1.391 . S
C1351 H1339 0.950 . S
C1351 C1347 1.393 . S
C1351 C1350 1.391 . S
H1352 C1360 0.950 . S
H1353 C1365 0.950 . S
H1354 C1362 0.950 . S
H1355 C1364 0.950 . S
H1356 C1366 0.950 . S
H1357 C1368 0.950 . S
H1358 C1370 0.950 . S
H1359 C1371 0.950 . S
C1360 H1352 0.950 . S
C1360 C1361 1.386 . S
C1360 C1362 1.391 . S
C1361 C1360 1.386 . S
C1361 C1365 1.393 . S
C1362 H1354 0.950 . S
C1362 C1360 1.391 . S
C1362 C1363 1.400 . S
C1363 C1362 1.400 . S
C1363 C1364 1.398 . S
C1363 C1369 1.491 . S
C1364 H1355 0.950 . S
C1364 C1363 1.398 . S
C1364 C1365 1.391 . S
C1365 H1353 0.950 . S
C1365 C1361 1.393 . S
C1365 C1364 1.391 . S
C1366 H1356 0.950 . S
C1366 C1367 1.386 . S
C1366 C1368 1.391 . S
C1367 C1366 1.386 . S
C1367 C1371 1.393 . S
C1368 H1357 0.950 . S
C1368 C1366 1.391 . S
C1368 C1369 1.400 . S
C1369 C1363 1.491 . S
C1369 C1368 1.400 . S
C1369 C1370 1.398 . S
C1370 H1358 0.950 . S
C1370 C1369 1.398 . S
C1370 C1371 1.391 . S
C1371 H1359 0.950 . S
C1371 C1367 1.393 . S
C1371 C1370 1.391 . S
H1372 C1380 0.950 . S
H1373 C1385 0.950 . S
H1374 C1382 0.950 . S
H1375 C1384 0.950 . S
H1376 C1386 0.950 . S
H1377 C1388 0.950 . S
H1378 C1390 0.950 . S
H1379 C1391 0.950 . S
C1380 H1372 0.950 . S
C1380 C1381 1.386 . S
C1380 C1382 1.391 . S
C1381 C1380 1.386 . S
C1381 C1385 1.393 . S
C1382 H1374 0.950 . S
C1382 C1380 1.391 . S
C1382 C1383 1.400 . S
C1383 C1382 1.400 . S
C1383 C1384 1.398 . S
C1383 C1389 1.491 . S
C1384 H1375 0.950 . S
C1384 C1383 1.398 . S
C1384 C1385 1.391 . S
C1385 H1373 0.950 . S
C1385 C1381 1.393 . S
C1385 C1384 1.391 . S
C1386 H1376 0.950 . S
C1386 C1387 1.386 . S
C1386 C1388 1.391 . S
C1387 C1386 1.386 . S
C1387 C1391 1.393 . S
C1388 H1377 0.950 . S
C1388 C1386 1.391 . S
C1388 C1389 1.400 . S
C1389 C1383 1.491 . S
C1389 C1388 1.400 . S
C1389 C1390 1.398 . S
C1390 H1378 0.950 . S
C1390 C1389 1.398 . S
C1390 C1391 1.391 . S
C1391 H1379 0.950 . S
C1391 C1387 1.393 . S
C1391 C1390 1.391 . S
H1392 C1400 0.950 . S
H1393 C1405 0.950 . S
H1394 C1402 0.950 . S
H1395 C1404 0.950 . S
H1396 C1406 0.950 . S
H1397 C1408 0.950 . S
H1398 C1410 0.950 . S
H1399 C1411 0.950 . S
C1400 H1392 0.950 . S
C1400 C1401 1.386 . S
C1400 C1402 1.391 . S
C1401 C1400 1.386 . S
C1401 C1405 1.393 . S
C1402 H1394 0.950 . S
C1402 C1400 1.391 . S
C1402 C1403 1.400 . S
C1403 C1402 1.400 . S
C1403 C1404 1.398 . S
C1403 C1409 1.491 . S
C1404 H1395 0.950 . S
C1404 C1403 1.398 . S
C1404 C1405 1.391 . S
C1405 H1393 0.950 . S
C1405 C1401 1.393 . S
C1405 C1404 1.391 . S
C1406 H1396 0.950 . S
C1406 C1407 1.386 . S
C1406 C1408 1.391 . S
C1407 C1406 1.386 . S
C1407 C1411 1.393 . S
C1408 H1397 0.950 . S
C1408 C1406 1.391 . S
C1408 C1409 1.400 . S
C1409 C1403 1.491 . S
C1409 C1408 1.400 . S
C1409 C1410 1.398 . S
C1410 H1398 0.950 . S
C1410 C1409 1.398 . S
C1410 C1411 1.391 . S
C1411 H1399 0.950 . S
C1411 C1407 1.393 . S
C1411 C1410 1.391 . S
H1412 C1420 0.950 . S
H1413 C1425 0.950 . S
H1414 C1422 0.950 . S
H1415 C1424 0.950 . S
H1416 C1426 0.950 . S
H1417 C1428 0.950 . S
H1418 C1430 0.950 . S
H1419 C1431 0.950 . S
C1420 H1412 0.950 . S
C1420 C1421 1.386 . S
C1420 C1422 1.391 . S
C1421 C1420 1.386 . S
C1421 C1425 1.393 . S
C1422 H1414 0.950 . S
C1422 C1420 1.391 . S
C1422 C1423 1.400 . S
C1423 C1422 1.400 . S
C1423 C1424 1.398 . S
C1423 C1429 1.491 . S
C1424 H1415 0.950 . S
C1424 C1423 1.398 . S
C1424 C1425 1.391 . S
C1425 H1413 0.950 . S
C1425 C1421 1.393 . S
C1425 C1424 1.391 . S
C1426 H1416 0.950 . S
C1426 C1427 1.386 . S
C1426 C1428 1.391 . S
C1427 C1426 1.386 . S
C1427 C1431 1.393 . S
C1428 H1417 0.950 . S
C1428 C1426 1.391 . S
C1428 C1429 1.400 . S
C1429 C1423 1.491 . S
C1429 C1428 1.400 . S
C1429 C1430 1.398 . S
C1430 H1418 0.950 . S
C1430 C1429 1.398 . S
C1430 C1431 1.391 . S
C1431 H1419 0.950 . S
C1431 C1427 1.393 . S
C1431 C1430 1.391 . S
H1432 C1440 0.950 . S
H1433 C1445 0.950 . S
H1434 C1442 0.950 . S
H1435 C1444 0.950 . S
H1436 C1446 0.950 . S
H1437 C1448 0.950 . S
H1438 C1450 0.950 . S
H1439 C1451 0.950 . S
C1440 H1432 0.950 . S
C1440 C1441 1.386 . S
C1440 C1442 1.391 . S
C1441 C1440 1.386 . S
C1441 C1445 1.393 . S
C1442 H1434 0.950 . S
C1442 C1440 1.391 . S
C1442 C1443 1.400 . S
C1443 C1442 1.400 . S
C1443 C1444 1.398 . S
C1443 C1449 1.491 . S
C1444 H1435 0.950 . S
C1444 C1443 1.398 . S
C1444 C1445 1.391 . S
C1445 H1433 0.950 . S
C1445 C1441 1.393 . S
C1445 C1444 1.391 . S
C1446 H1436 0.950 . S
C1446 C1447 1.386 . S
C1446 C1448 1.391 . S
C1447 C1446 1.386 . S
C1447 C1451 1.393 . S
C1448 H1437 0.950 . S
C1448 C1446 1.391 . S
C1448 C1449 1.400 . S
C1449 C1443 1.491 . S
C1449 C1448 1.400 . S
C1449 C1450 1.398 . S
C1450 H1438 0.950 . S
C1450 C1449 1.398 . S
C1450 C1451 1.391 . S
C1451 H1439 0.950 . S
C1451 C1447 1.393 . S
C1451 C1450 1.391 . S
H1452 C1460 0.950 . S
H1453 C1465 0.950 . S
H1454 C1462 0.950 . S
H1455 C1464 0.950 . S
H1456 C1466 0.950 . S
H1457 C1468 0.950 . S
H1458 C1470 0.950 . S
H1459 C1471 0.950 . S
C1460 H1452 0.950 . S
C1460 C1461 1.386 . S
C1460 C1462 1.391 . S
C1461 C1460 1.386 . S
C1461 C1465 1.393 . S
C1462 H1454 0.950 . S
C1462 C1460 1.391 . S
C1462 C1463 1.400 . S
C1463 C1462 1.400 . S
C1463 C1464 1.398 . S
C1463 C1469 1.491 . S
C1464 H1455 0.950 . S
C1464 C1463 1.398 . S
C1464 C1465 1.391 . S
C1465 H1453 0.950 . S
C1465 C1461 1.393 . S
C1465 C1464 1.391 . S
C1466 H1456 0.950 . S
C1466 C1467 1.386 . S
C1466 C1468 1.391 . S
C1467 C1466 1.386 . S
C1467 C1471 1.393 . S
C1468 H1457 0.950 . S
C1468 C1466 1.391 . S
C1468 C1469 1.400 . S
C1469 C1463 1.491 . S
C1469 C1468 1.400 . S
C1469 C1470 1.398 . S
C1470 H1458 0.950 . S
C1470 C1469 1.398 . S
C1470 C1471 1.391 . S
C1471 H1459 0.950 . S
C1471 C1467 1.393 . S
C1471 C1470 1.391 . S
H1472 C1480 0.950 . S
H1473 C1485 0.950 . S
H1474 C1482 0.950 . S
H1475 C1484 0.950 . S
H1476 C1486 0.950 . S
H1477 C1488 0.950 . S
H1478 C1490 0.950 . S
H1479 C1491 0.950 . S
C1480 H1472 0.950 . S
C1480 C1481 1.386 . S
C1480 C1482 1.391 . S
C1481 C1480 1.386 . S
C1481 C1485 1.393 . S
C1482 H1474 0.950 . S
C1482 C1480 1.391 . S
C1482 C1483 1.400 . S
C1483 C1482 1.400 . S
C1483 C1484 1.398 . S
C1483 C1489 1.491 . S
C1484 H1475 0.950 . S
C1484 C1483 1.398 . S
C1484 C1485 1.391 . S
C1485 H1473 0.950 . S
C1485 C1481 1.393 . S
C1485 C1484 1.391 . S
C1486 H1476 0.950 . S
C1486 C1487 1.386 . S
C1486 C1488 1.391 . S
C1487 C1486 1.386 . S
C1487 C1491 1.393 . S
C1488 H1477 0.950 . S
C1488 C1486 1.391 . S
C1488 C1489 1.400 . S
C1489 C1483 1.491 . S
C1489 C1488 1.400 . S
C1489 C1490 1.398 . S
C1490 H1478 0.950 . S
C1490 C1489 1.398 . S
C1490 C1491 1.391 . S
C1491 H1479 0.950 . S
C1491 C1487 1.393 . S
C1491 C1490 1.391 . S
H1492 C1500 0.950 . S
H1493 C1505 0.950 . S
H1494 C1502 0.950 . S
H1495 C1504 0.950 . S
H1496 C1506 0.950 . S
H1497 C1508 0.950 . S
H1498 C1510 0.950 . S
H1499 C1511 0.950 . S
C1500 H1492 0.950 . S
C1500 C1501 1.386 . S
C1500 C1502 1.391 . S
C1501 C1500 1.386 . S
C1501 C1505 1.393 . S
C1502 H1494 0.950 . S
C1502 C1500 1.391 . S
C1502 C1503 1.400 . S
C1503 C1502 1.400 . S
C1503 C1504 1.398 . S
C1503 C1509 1.491 . S
C1504 H1495 0.950 . S
C1504 C1503 1.398 . S
C1504 C1505 1.391 . S
C1505 H1493 0.950 . S
C1505 C1501 1.393 . S
C1505 C1504 1.391 . S
C1506 H1496 0.950 . S
C1506 C1507 1.386 . S
C1506 C1508 1.391 . S
C1507 C1506 1.386 . S
C1507 C1511 1.393 . S
C1508 H1497 0.950 . S
C1508 C1506 1.391 . S
C1508 C1509 1.400 . S
C1509 C1503 1.491 . S
C1509 C1508 1.400 . S
C1509 C1510 1.398 . S
C1510 H1498 0.950 . S
C1510 C1509 1.398 . S
C1510 C1511 1.391 . S
C1511 H1499 0.950 . S
C1511 C1507 1.393 . S
C1511 C1510 1.391 . S
H1512 C1520 0.950 . S
H1513 C1525 0.950 . S
H1514 C1522 0.950 . S
H1515 C1524 0.950 . S
H1516 C1526 0.950 . S
H1517 C1528 0.950 . S
H1518 C1530 0.950 . S
H1519 C1531 0.950 . S
C1520 H1512 0.950 . S
C1520 C1521 1.386 . S
C1520 C1522 1.391 . S
C1521 C1520 1.386 . S
C1521 C1525 1.393 . S
C1522 H1514 0.950 . S
C1522 C1520 1.391 . S
C1522 C1523 1.400 . S
C1523 C1522 1.400 . S
C1523 C1524 1.398 . S
C1523 C1529 1.491 . S
C1524 H1515 0.950 . S
C1524 C1523 1.398 . S
C1524 C1525 1.391 . S
C1525 H1513 0.950 . S
C1525 C1521 1.393 . S
C1525 C1524 1.391 . S
C1526 H1516 0.950 . S
C1526 C1527 1.386 . S
C1526 C1528 1.391 . S
C1527 C1526 1.386 . S
C1527 C1531 1.393 . S
C1528 H1517 0.950 . S
C1528 C1526 1.391 . S
C1528 C1529 1.400 . S
C1529 C1523 1.491 . S
C1529 C1528 1.400 . S
C1529 C1530 1.398 . S
C1530 H1518 0.950 . S
C1530 C1529 1.398 . S
C1530 C1531 1.391 . S
C1531 H1519 0.950 . S
C1531 C1527 1.393 . S
C1531 C1530 1.391 . S
H1532 C1540 0.950 . S
H1533 C1545 0.950 . S
H1534 C1542 0.950 . S
H1535 C1544 0.950 . S
H1536 C1546 0.950 . S
H1537 C1548 0.950 . S
H1538 C1550 0.950 . S
H1539 C1551 0.950 . S
C1540 H1532 0.950 . S
C1540 C1541 1.386 . S
C1540 C1542 1.391 . S
C1541 C1540 1.386 . S
C1541 C1545 1.393 . S
C1542 H1534 0.950 . S
C1542 C1540 1.391 . S
C1542 C1543 1.400 . S
C1543 C1542 1.400 . S
C1543 C1544 1.398 . S
C1543 C1549 1.491 . S
C1544 H1535 0.950 . S
C1544 C1543 1.398 . S
C1544 C1545 1.391 . S
C1545 H1533 0.950 . S
C1545 C1541 1.393 . S
C1545 C1544 1.391 . S
C1546 H1536 0.950 . S
C1546 C1547 1.386 . S
C1546 C1548 1.391 . S
C1547 C1546 1.386 . S
C1547 C1551 1.393 . S
C1548 H1537 0.950 . S
C1548 C1546 1.391 . S
C1548 C1549 1.400 . S
C1549 C1543 1.491 . S
C1549 C1548 1.400 . S
C1549 C1550 1.398 . S
C1550 H1538 0.950 . S
C1550 C1549 1.398 . S
C1550 C1551 1.391 . S
C1551 H1539 0.950 . S
C1551 C1547 1.393 . S
C1551 C1550 1.391 . S
H1552 C1560 0.950 . S
H1553 C1565 0.950 . S
H1554 C1562 0.950 . S
H1555 C1564 0.950 . S
H1556 C1566 0.950 . S
H1557 C1568 0.950 . S
H1558 C1570 0.950 . S
H1559 C1571 0.950 . S
C1560 H1552 0.950 . S
C1560 C1561 1.386 . S
C1560 C1562 1.391 . S
C1561 C1560 1.386 . S
C1561 C1565 1.393 . S
C1562 H1554 0.950 . S
C1562 C1560 1.391 . S
C1562 C1563 1.400 . S
C1563 C1562 1.400 . S
C1563 C1564 1.398 . S
C1563 C1569 1.491 . S
C1564 H1555 0.950 . S
C1564 C1563 1.398 . S
C1564 C1565 1.391 . S
C1565 H1553 0.950 . S
C1565 C1561 1.393 . S
C1565 C1564 1.391 . S
C1566 H1556 0.950 . S
C1566 C1567 1.386 . S
C1566 C1568 1.391 . S
C1567 C1566 1.386 . S
C1567 C1571 1.393 . S
C1568 H1557 0.950 . S
C1568 C1566 1.391 . S
C1568 C1569 1.400 . S
C1569 C1563 1.491 . S
C1569 C1568 1.400 . S
C1569 C1570 1.398 . S
C1570 H1558 0.950 . S
C1570 C1569 1.398 . S
C1570 C1571 1.391 . S
C1571 H1559 0.950 . S
C1571 C1567 1.393 . S
C1571 C1570 1.391 . S
H1572 C1580 0.950 . S
H1573 C1585 0.950 . S
H1574 C1582 0.950 . S
H1575 C1584 0.950 . S
H1576 C1586 0.950 . S
H1577 C1588 0.950 . S
H1578 C1590 0.950 . S
H1579 C1591 0.950 . S
C1580 H1572 0.950 . S
C1580 C1581 1.386 . S
C1580 C1582 1.391 . S
C1581 C1580 1.386 . S
C1581 C1585 1.393 . S
C1582 H1574 0.950 . S
C1582 C1580 1.391 . S
C1582 C1583 1.400 . S
C1583 C1582 1.400 . S
C1583 C1584 1.398 . S
C1583 C1589 1.491 . S
C1584 H1575 0.950 . S
C1584 C1583 1.398 . S
C1584 C1585 1.391 . S
C1585 H1573 0.950 . S
C1585 C1581 1.393 . S
C1585 C1584 1.391 . S
C1586 H1576 0.950 . S
C1586 C1587 1.386 . S
C1586 C1588 1.391 . S
C1587 C1586 1.386 . S
C1587 C1591 1.393 . S
C1588 H1577 0.950 . S
C1588 C1586 1.391 . S
C1588 C1589 1.400 . S
C1589 C1583 1.491 . S
C1589 C1588 1.400 . S
C1589 C1590 1.398 . S
C1590 H1578 0.950 . S
C1590 C1589 1.398 . S
C1590 C1591 1.391 . S
C1591 H1579 0.950 . S
C1591 C1587 1.393 . S
C1591 C1590 1.391 . S
H1592 C1600 0.950 . S
H1593 C1605 0.950 . S
H1594 C1602 0.950 . S
H1595 C1604 0.950 . S
H1596 C1606 0.950 . S
H1597 C1608 0.950 . S
H1598 C1610 0.950 . S
H1599 C1611 0.950 . S
C1600 H1592 0.950 . S
C1600 C1601 1.386 . S
C1600 C1602 1.391 . S
C1601 C1600 1.386 . S
C1601 C1605 1.393 . S
C1602 H1594 0.950 . S
C1602 C1600 1.391 . S
C1602 C1603 1.400 . S
C1603 C1602 1.400 . S
C1603 C1604 1.398 . S
C1603 C1609 1.491 . S
C1604 H1595 0.950 . S
C1604 C1603 1.398 . S
C1604 C1605 1.391 . S
C1605 H1593 0.950 . S
C1605 C1601 1.393 . S
C1605 C1604 1.391 . S
C1606 H1596 0.950 . S
C1606 C1607 1.386 . S
C1606 C1608 1.391 . S
C1607 C1606 1.386 . S
C1607 C1611 1.393 . S
C1608 H1597 0.950 . S
C1608 C1606 1.391 . S
C1608 C1609 1.400 . S
C1609 C1603 1.491 . S
C1609 C1608 1.400 . S
C1609 C1610 1.398 . S
C1610 H1598 0.950 . S
C1610 C1609 1.398 . S
C1610 C1611 1.391 . S
C1611 H1599 0.950 . S
C1611 C1607 1.393 . S
C1611 C1610 1.391 . S
H1612 C1620 0.950 . S
H1613 C1625 0.950 . S
H1614 C1622 0.950 . S
H1615 C1624 0.950 . S
H1616 C1626 0.950 . S
H1617 C1628 0.950 . S
H1618 C1630 0.950 . S
H1619 C1631 0.950 . S
C1620 H1612 0.950 . S
C1620 C1621 1.386 . S
C1620 C1622 1.391 . S
C1621 C1620 1.386 . S
C1621 C1625 1.393 . S
C1622 H1614 0.950 . S
C1622 C1620 1.391 . S
C1622 C1623 1.400 . S
C1623 C1622 1.400 . S
C1623 C1624 1.398 . S
C1623 C1629 1.491 . S
C1624 H1615 0.950 . S
C1624 C1623 1.398 . S
C1624 C1625 1.391 . S
C1625 H1613 0.950 . S
C1625 C1621 1.393 . S
C1625 C1624 1.391 . S
C1626 H1616 0.950 . S
C1626 C1627 1.386 . S
C1626 C1628 1.391 . S
C1627 C1626 1.386 . S
C1627 C1631 1.393 . S
C1628 H1617 0.950 . S
C1628 C1626 1.391 . S
C1628 C1629 1.400 . S
C1629 C1623 1.491 . S
C1629 C1628 1.400 . S
C1629 C1630 1.398 . S
C1630 H1618 0.950 . S
C1630 C1629 1.398 . S
C1630 C1631 1.391 . S
C1631 H1619 0.950 . S
C1631 C1627 1.393 . S
C1631 C1630 1.391 . S
H1632 C1640 0.950 . S
H1633 C1645 0.950 . S
H1634 C1642 0.950 . S
H1635 C1644 0.950 . S
H1636 C1646 0.950 . S
H1637 C1648 0.950 . S
H1638 C1650 0.950 . S
H1639 C1651 0.950 . S
C1640 H1632 0.950 . S
C1640 C1641 1.386 . S
C1640 C1642 1.391 . S
C1641 C1640 1.386 . S
C1641 C1645 1.393 . S
C1642 H1634 0.950 . S
C1642 C1640 1.391 . S
C1642 C1643 1.400 . S
C1643 C1642 1.400 . S
C1643 C1644 1.398 . S
C1643 C1649 1.491 . S
C1644 H1635 0.950 . S
C1644 C1643 1.398 . S
C1644 C1645 1.391 . S
C1645 H1633 0.950 . S
C1645 C1641 1.393 . S
C1645 C1644 1.391 . S
C1646 H1636 0.950 . S
C1646 C1647 1.386 . S
C1646 C1648 1.391 . S
C1647 C1646 1.386 . S
C1647 C1651 1.393 . S
C1648 H1637 0.950 . S
C1648 C1646 1.391 . S
C1648 C1649 1.400 . S
C1649 C1643 1.491 . S
C1649 C1648 1.400 . S
C1649 C1650 1.398 . S
C1650 H1638 0.950 . S
C1650 C1649 1.398 . S
C1650 C1651 1.391 . S
C1651 H1639 0.950 . S
C1651 C1647 1.393 . S
C1651 C1650 1.391 . S
H1652 C1660 0.950 . S
H1653 C1665 0.950 . S
H1654 C1662 0.950 . S
H1655 C1664 0.950 . S
H1656 C1666 0.950 . S
H1657 C1668 0.950 . S
H1658 C1670 0.950 . S
H1659 C1671 0.950 . S
C1660 H1652 0.950 . S
C1660 C1661 1.386 . S
C1660 C1662 1.391 . S
C1661 C1660 1.386 . S
C1661 C1665 1.393 . S
C1662 H1654 0.950 . S
C1662 C1660 1.391 . S
C1662 C1663 1.400 . S
C1663 C1662 1.400 . S
C1663 C1664 1.398 . S
C1663 C1669 1.491 . S
C1664 H1655 0.950 . S
C1664 C1663 1.398 . S
C1664 C1665 1.391 . S
C1665 H1653 0.950 . S
C1665 C1661 1.393 . S
C1665 C1664 1.391 . S
C1666 H1656 0.950 . S
C1666 C1667 1.386 . S
C1666 C1668 1.391 . S
C1667 C1666 1.386 . S
C1667 C1671 1.393 . S
C1668 H1657 0.950 . S
C1668 C1666 1.391 . S
C1668 C1669 1.400 . S
C1669 C1663 1.491 . S
C1669 C1668 1.400 . S
C1669 C1670 1.398 . S
C1670 H1658 0.950 . S
C1670 C1669 1.398 . S
C1670 C1671 1.391 . S
C1671 H1659 0.950 . S
C1671 C1667 1.393 . S
C1671 C1670 1.391 . S
H1672 C1680 0.950 . S
H1673 C1685 0.950 . S
H1674 C1682 0.950 . S
H1675 C1684 0.950 . S
H1676 C1686 0.950 . S
H1677 C1688 0.950 . S
H1678 C1690 0.950 . S
H1679 C1691 0.950 . S
C1680 H1672 0.950 . S
C1680 C1681 1.386 . S
C1680 C1682 1.391 . S
C1681 C1680 1.386 . S
C1681 C1685 1.393 . S
C1682 H1674 0.950 . S
C1682 C1680 1.391 . S
C1682 C1683 1.400 . S
C1683 C1682 1.400 . S
C1683 C1684 1.398 . S
C1683 C1689 1.491 . S
C1684 H1675 0.950 . S
C1684 C1683 1.398 . S
C1684 C1685 1.391 . S
C1685 H1673 0.950 . S
C1685 C1681 1.393 . S
C1685 C1684 1.391 . S
C1686 H1676 0.950 . S
C1686 C1687 1.386 . S
C1686 C1688 1.391 . S
C1687 C1686 1.386 . S
C1687 C1691 1.393 . S
C1688 H1677 0.950 . S
C1688 C1686 1.391 . S
C1688 C1689 1.400 . S
C1689 C1683 1.491 . S
C1689 C1688 1.400 . S
C1689 C1690 1.398 . S
C1690 H1678 0.950 . S
C1690 C1689 1.398 . S
C1690 C1691 1.391 . S
C1691 H1679 0.950 . S
C1691 C1687 1.393 . S
C1691 C1690 1.391 . S
H1692 C1700 0.950 . S
H1693 C1705 0.950 . S
H1694 C1702 0.950 . S
H1695 C1704 0.950 . S
H1696 C1706 0.950 . S
H1697 C1708 0.950 . S
H1698 C1710 0.950 . S
H1699 C1711 0.950 . S
C1700 H1692 0.950 . S
C1700 C1701 1.386 . S
C1700 C1702 1.391 . S
C1701 C1700 1.386 . S
C1701 C1705 1.393 . S
C1702 H1694 0.950 . S
C1702 C1700 1.391 . S
C1702 C1703 1.400 . S
C1703 C1702 1.400 . S
C1703 C1704 1.398 . S
C1703 C1709 1.491 . S
C1704 H1695 0.950 . S
C1704 C1703 1.398 . S
C1704 C1705 1.391 . S
C1705 H1693 0.950 . S
C1705 C1701 1.393 . S
C1705 C1704 1.391 . S
C1706 H1696 0.950 . S
C1706 C1707 1.386 . S
C1706 C1708 1.391 . S
C1707 C1706 1.386 . S
C1707 C1711 1.393 . S
C1708 H1697 0.950 . S
C1708 C1706 1.391 . S
C1708 C1709 1.400 . S
C1709 C1703 1.491 . S
C1709 C1708 1.400 . S
C1709 C1710 1.398 . S
C1710 H1698 0.950 . S
C1710 C1709 1.398 . S
C1710 C1711 1.391 . S
C1711 H1699 0.950 . S
C1711 C1707 1.393 . S
C1711 C1710 1.391 . S
H1712 C1720 0.950 . S
H1713 C1725 0.950 . S
H1714 C1722 0.950 . S
H1715 C1724 0.950 . S
H1716 C1726 0.950 . S
H1717 C1728 0.950 . S
H1718 C1730 0.950 . S
H1719 C1731 0.950 . S
C1720 H1712 0.950 . S
C1720 C1721 1.386 . S
C1720 C1722 1.391 . S
C1721 C1720 1.386 . S
C1721 C1725 1.393 . S
C1722 H1714 0.950 . S
C1722 C1720 1.391 . S
C1722 C1723 1.400 . S
C1723 C1722 1.400 . S
C1723 C1724 1.398 . S
C1723 C1729 1.491 . S
C1724 H1715 0.950 . S
C1724 C1723 1.398 . S
C1724 C1725 1.391 . S
C1725 H1713 0.950 . S
C1725 C1721 1.393 . S
C1725 C1724 1.391 . S
C1726 H1716 0.950 . S
C1726 C1727 1.386 . S
C1726 C1728 1.391 . S
C1727 C1726 1.386 . S
C1727 C1731 1.393 . S
C1728 H1717 0.950 . S
C1728 C1726 1.391 . S
C1728 C1729 1.400 . S
C1729 C1723 1.491 . S
C1729 C1728 1.400 . S
C1729 C1730 1.398 . S
C1730 H1718 0.950 . S
C1730 C1729 1.398 . S
C1730 C1731 1.391 . S
C1731 H1719 0.950 . S
C1731 C1727 1.393 . S
C1731 C1730 1.391 . S
H1732 C1740 0.950 . S
H1733 C1745 0.950 . S
H1734 C1742 0.950 . S
H1735 C1744 0.950 . S
H1736 C1746 0.950 . S
H1737 C1748 0.950 . S
H1738 C1750 0.950 . S
H1739 C1751 0.950 . S
C1740 H1732 0.950 . S
C1740 C1741 1.386 . S
C1740 C1742 1.391 . S
C1741 C1740 1.386 . S
C1741 C1745 1.393 . S
C1742 H1734 0.950 . S
C1742 C1740 1.391 . S
C1742 C1743 1.400 . S
C1743 C1742 1.400 . S
C1743 C1744 1.398 . S
C1743 C1749 1.491 . S
C1744 H1735 0.950 . S
C1744 C1743 1.398 . S
C1744 C1745 1.391 . S
C1745 H1733 0.950 . S
C1745 C1741 1.393 . S
C1745 C1744 1.391 . S
C1746 H1736 0.950 . S
C1746 C1747 1.386 . S
C1746 C1748 1.391 . S
C1747 C1746 1.386 . S
C1747 C1751 1.393 . S
C1748 H1737 0.950 . S
C1748 C1746 1.391 . S
C1748 C1749 1.400 . S
C1749 C1743 1.491 . S
C1749 C1748 1.400 . S
C1749 C1750 1.398 . S
C1750 H1738 0.950 . S
C1750 C1749 1.398 . S
C1750 C1751 1.391 . S
C1751 H1739 0.950 . S
C1751 C1747 1.393 . S
C1751 C1750 1.391 . S
H1752 C1760 0.950 . S
H1753 C1765 0.950 . S
H1754 C1762 0.950 . S
H1755 C1764 0.950 . S
H1756 C1766 0.950 . S
H1757 C1768 0.950 . S
H1758 C1770 0.950 . S
H1759 C1771 0.950 . S
C1760 H1752 0.950 . S
C1760 C1761 1.386 . S
C1760 C1762 1.391 . S
C1761 C1760 1.386 . S
C1761 C1765 1.393 . S
C1762 H1754 0.950 . S
C1762 C1760 1.391 . S
C1762 C1763 1.400 . S
C1763 C1762 1.400 . S
C1763 C1764 1.398 . S
C1763 C1769 1.491 . S
C1764 H1755 0.950 . S
C1764 C1763 1.398 . S
C1764 C1765 1.391 . S
C1765 H1753 0.950 . S
C1765 C1761 1.393 . S
C1765 C1764 1.391 . S
C1766 H1756 0.950 . S
C1766 C1767 1.386 . S
C1766 C1768 1.391 . S
C1767 C1766 1.386 . S
C1767 C1771 1.393 . S
C1768 H1757 0.950 . S
C1768 C1766 1.391 . S
C1768 C1769 1.400 . S
C1769 C1763 1.491 . S
C1769 C1768 1.400 . S
C1769 C1770 1.398 . S
C1770 H1758 0.950 . S
C1770 C1769 1.398 . S
C1770 C1771 1.391 . S
C1771 H1759 0.950 . S
C1771 C1767 1.393 . S
C1771 C1770 1.391 . S
H1772 C1780 0.950 . S
H1773 C1785 0.950 . S
H1774 C1782 0.950 . S
H1775 C1784 0.950 . S
H1776 C1786 0.950 . S
H1777 C1788 0.950 . S
H1778 C1790 0.950 . S
H1779 C1791 0.950 . S
C1780 H1772 0.950 . S
C1780 C1781 1.386 . S
C1780 C1782 1.391 . S
C1781 C1780 1.386 . S
C1781 C1785 1.393 . S
C1782 H1774 0.950 . S
C1782 C1780 1.391 . S
C1782 C1783 1.400 . S
C1783 C1782 1.400 . S
C1783 C1784 1.398 . S
C1783 C1789 1.491 . S
C1784 H1775 0.950 . S
C1784 C1783 1.398 . S
C1784 C1785 1.391 . S
C1785 H1773 0.950 . S
C1785 C1781 1.393 . S
C1785 C1784 1.391 . S
C1786 H1776 0.950 . S
C1786 C1787 1.386 . S
C1786 C1788 1.391 . S
C1787 C1786 1.386 . S
C1787 C1791 1.393 . S
C1788 H1777 0.950 . S
C1788 C1786 1.391 . S
C1788 C1789 1.400 . S
C1789 C1783 1.491 . S
C1789 C1788 1.400 . S
C1789 C1790 1.398 . S
C1790 H1778 0.950 . S
C1790 C1789 1.398 . S
C1790 C1791 1.391 . S
C1791 H1779 0.950 . S
C1791 C1787 1.393 . S
C1791 C1790 1.391 . S
H1792 C1800 0.950 . S
H1793 C1805 0.950 . S
H1794 C1802 0.950 . S
H1795 C1804 0.950 . S
H1796 C1806 0.950 . S
H1797 C1808 0.950 . S
H1798 C1810 0.950 . S
H1799 C1811 0.950 . S
C1800 H1792 0.950 . S
C1800 C1801 1.386 . S
C1800 C1802 1.391 . S
C1801 C1800 1.386 . S
C1801 C1805 1.393 . S
C1802 H1794 0.950 . S
C1802 C1800 1.391 . S
C1802 C1803 1.400 . S
C1803 C1802 1.400 . S
C1803 C1804 1.398 . S
C1803 C1809 1.491 . S
C1804 H1795 0.950 . S
C1804 C1803 1.398 . S
C1804 C1805 1.391 . S
C1805 H1793 0.950 . S
C1805 C1801 1.393 . S
C1805 C1804 1.391 . S
C1806 H1796 0.950 . S
C1806 C1807 1.386 . S
C1806 C1808 1.391 . S
C1807 C1806 1.386 . S
C1807 C1811 1.393 . S
C1808 H1797 0.950 . S
C1808 C1806 1.391 . S
C1808 C1809 1.400 . S
C1809 C1803 1.491 . S
C1809 C1808 1.400 . S
C1809 C1810 1.398 . S
C1810 H1798 0.950 . S
C1810 C1809 1.398 . S
C1810 C1811 1.391 . S
C1811 H1799 0.950 . S
C1811 C1807 1.393 . S
C1811 C1810 1.391 . S
H1812 C1820 0.950 . S
H1813 C1825 0.950 . S
H1814 C1822 0.950 . S
H1815 C1824 0.950 . S
H1816 C1826 0.950 . S
H1817 C1828 0.950 . S
H1818 C1830 0.950 . S
H1819 C1831 0.950 . S
C1820 H1812 0.950 . S
C1820 C1821 1.386 . S
C1820 C1822 1.391 . S
C1821 C1820 1.386 . S
C1821 C1825 1.393 . S
C1822 H1814 0.950 . S
C1822 C1820 1.391 . S
C1822 C1823 1.400 . S
C1823 C1822 1.400 . S
C1823 C1824 1.398 . S
C1823 C1829 1.491 . S
C1824 H1815 0.950 . S
C1824 C1823 1.398 . S
C1824 C1825 1.391 . S
C1825 H1813 0.950 . S
C1825 C1821 1.393 . S
C1825 C1824 1.391 . S
C1826 H1816 0.950 . S
C1826 C1827 1.386 . S
C1826 C1828 1.391 . S
C1827 C1826 1.386 . S
C1827 C1831 1.393 . S
C1828 H1817 0.950 . S
C1828 C1826 1.391 . S
C1828 C1829 1.400 . S
C1829 C1823 1.491 . S
C1829 C1828 1.400 . S
C1829 C1830 1.398 . S
C1830 H1818 0.950 . S
C1830 C1829 1.398 . S
C1830 C1831 1.391 . S
C1831 H1819 0.950 . S
C1831 C1827 1.393 . S
C1831 C1830 1.391 . S
H1832 C1840 0.950 . S
H1833 C1845 0.950 . S
H1834 C1842 0.950 . S
H1835 C1844 0.950 . S
H1836 C1846 0.950 . S
H1837 C1848 0.950 . S
H1838 C1850 0.950 . S
H1839 C1851 0.950 . S
C1840 H1832 0.950 . S
C1840 C1841 1.386 . S
C1840 C1842 1.391 . S
C1841 C1840 1.386 . S
C1841 C1845 1.393 . S
C1842 H1834 0.950 . S
C1842 C1840 1.391 . S
C1842 C1843 1.400 . S
C1843 C1842 1.400 . S
C1843 C1844 1.398 . S
C1843 C1849 1.491 . S
C1844 H1835 0.950 . S
C1844 C1843 1.398 . S
C1844 C1845 1.391 . S
C1845 H1833 0.950 . S
C1845 C1841 1.393 . S
C1845 C1844 1.391 . S
C1846 H1836 0.950 . S
C1846 C1847 1.386 . S
C1846 C1848 1.391 . S
C1847 C1846 1.386 . S
C1847 C1851 1.393 . S
C1848 H1837 0.950 . S
C1848 C1846 1.391 . S
C1848 C1849 1.400 . S
C1849 C1843 1.491 . S
C1849 C1848 1.400 . S
C1849 C1850 1.398 . S
C1850 H1838 0.950 . S
C1850 C1849 1.398 . S
C1850 C1851 1.391 . S
C1851 H1839 0.950 . S
C1851 C1847 1.393 . S
C1851 C1850 1.391 . S
H1852 C1860 0.950 . S
H1853 C1865 0.950 . S
H1854 C1862 0.950 . S
H1855 C1864 0.950 . S
H1856 C1866 0.950 . S
H1857 C1868 0.950 . S
H1858 C1870 0.950 . S
H1859 C1871 0.950 . S
C1860 H1852 0.950 . S
C1860 C1861 1.386 . S
C1860 C1862 1.391 . S
C1861 C1860 1.386 . S
C1861 C1865 1.393 . S
C1862 H1854 0.950 . S
C1862 C1860 1.391 . S
C1862 C1863 1.400 . S
C1863 C1862 1.400 . S
C1863 C1864 1.398 . S
C1863 C1869 1.491 . S
C1864 H1855 0.950 . S
C1864 C1863 1.398 . S
C1864 C1865 1.391 . S
C1865 H1853 0.950 . S
C1865 C1861 1.393 . S
C1865 C1864 1.391 . S
C1866 H1856 0.950 . S
C1866 C1867 1.386 . S
C1866 C1868 1.391 . S
C1867 C1866 1.386 . S
C1867 C1871 1.393 . S
C1868 H1857 0.950 . S
C1868 C1866 1.391 . S
C1868 C1869 1.400 . S
C1869 C1863 1.491 . S
C1869 C1868 1.400 . S
C1869 C1870 1.398 . S
C1870 H1858 0.950 . S
C1870 C1869 1.398 . S
C1870 C1871 1.391 . S
C1871 H1859 0.950 . S
C1871 C1867 1.393 . S
C1871 C1870 1.391 . S
H1872 C1880 0.950 . S
H1873 C1885 0.950 . S
H1874 C1882 0.950 . S
H1875 C1884 0.950 . S
H1876 C1886 0.950 . S
H1877 C1888 0.950 . S
H1878 C1890 0.950 . S
H1879 C1891 0.950 . S
C1880 H1872 0.950 . S
C1880 C1881 1.386 . S
C1880 C1882 1.391 . S
C1881 C1880 1.386 . S
C1881 C1885 1.393 . S
C1882 H1874 0.950 . S
C1882 C1880 1.391 . S
C1882 C1883 1.400 . S
C1883 C1882 1.400 . S
C1883 C1884 1.398 . S
C1883 C1889 1.491 . S
C1884 H1875 0.950 . S
C1884 C1883 1.398 . S
C1884 C1885 1.391 . S
C1885 H1873 0.950 . S
C1885 C1881 1.393 . S
C1885 C1884 1.391 . S
C1886 H1876 0.950 . S
C1886 C1887 1.386 . S
C1886 C1888 1.391 . S
C1887 C1886 1.386 . S
C1887 C1891 1.393 . S
C1888 H1877 0.950 . S
C1888 C1886 1.391 . S
C1888 C1889 1.400 . S
C1889 C1883 1.491 . S
C1889 C1888 1.400 . S
C1889 C1890 1.398 . S
C1890 H1878 0.950 . S
C1890 C1889 1.398 . S
C1890 C1891 1.391 . S
C1891 H1879 0.950 . S
C1891 C1887 1.393 . S
C1891 C1890 1.391 . S
H1892 C1900 0.950 . S
H1893 C1905 0.950 . S
H1894 C1902 0.950 . S
H1895 C1904 0.950 . S
H1896 C1906 0.950 . S
H1897 C1908 0.950 . S
H1898 C1910 0.950 . S
H1899 C1911 0.950 . S
C1900 H1892 0.950 . S
C1900 C1901 1.386 . S
C1900 C1902 1.391 . S
C1901 C1900 1.386 . S
C1901 C1905 1.393 . S
C1902 H1894 0.950 . S
C1902 C1900 1.391 . S
C1902 C1903 1.400 . S
C1903 C1902 1.400 . S
C1903 C1904 1.398 . S
C1903 C1909 1.491 . S
C1904 H1895 0.950 . S
C1904 C1903 1.398 . S
C1904 C1905 1.391 . S
C1905 H1893 0.950 . S
C1905 C1901 1.393 . S
C1905 C1904 1.391 . S
C1906 H1896 0.950 . S
C1906 C1907 1.386 . S
C1906 C1908 1.391 . S
C1907 C1906 1.386 . S
C1907 C1911 1.393 . S
C1908 H1897 0.950 . S
C1908 C1906 1.391 . S
C1908 C1909 1.400 . S
C1909 C1903 1.491 . S
C1909 C1908 1.400 . S
C1909 C1910 1.398 . S
C1910 H1898 0.950 . S
C1910 C1909 1.398 . S
C1910 C1911 1.391 . S
C1911 H1899 0.950 . S
C1911 C1907 1.393 . S
C1911 C1910 1.391 . S
H1912 C1920 0.950 . S
H1913 C1925 0.950 . S
H1914 C1922 0.950 . S
H1915 C1924 0.950 . S
H1916 C1926 0.950 . S
H1917 C1928 0.950 . S
H1918 C1930 0.950 . S
H1919 C1931 0.950 . S
C1920 H1912 0.950 . S
C1920 C1921 1.386 . S
C1920 C1922 1.391 . S
C1921 C1920 1.386 . S
C1921 C1925 1.393 . S
C1922 H1914 0.950 . S
C1922 C1920 1.391 . S
C1922 C1923 1.400 . S
C1923 C1922 1.400 . S
C1923 C1924 1.398 . S
C1923 C1929 1.491 . S
C1924 H1915 0.950 . S
C1924 C1923 1.398 . S
C1924 C1925 1.391 . S
C1925 H1913 0.950 . S
C1925 C1921 1.393 . S
C1925 C1924 1.391 . S
C1926 H1916 0.950 . S
C1926 C1927 1.386 . S
C1926 C1928 1.391 . S
C1927 C1926 1.386 . S
C1927 C1931 1.393 . S
C1928 H1917 0.950 . S
C1928 C1926 1.391 . S
C1928 C1929 1.400 . S
C1929 C1923 1.491 . S
C1929 C1928 1.400 . S
C1929 C1930 1.398 . S
C1930 H1918 0.950 . S
C1930 C1929 1.398 . S
C1930 C1931 1.391 . S
C1931 H1919 0.950 . S
C1931 C1927 1.393 . S
C1931 C1930 1.391 . S
H1932 C1940 0.950 . S
H1933 C1945 0.950 . S
H1934 C1942 0.950 . S
H1935 C1944 0.950 . S
H1936 C1946 0.950 . S
H1937 C1948 0.950 . S
H1938 C1950 0.950 . S
H1939 C1951 0.950 . S
C1940 H1932 0.950 . S
C1940 C1941 1.386 . S
C1940 C1942 1.391 . S
C1941 C1940 1.386 . S
C1941 C1945 1.393 . S
C1942 H1934 0.950 . S
C1942 C1940 1.391 . S
C1942 C1943 1.400 . S
C1943 C1942 1.400 . S
C1943 C1944 1.398 . S
C1943 C1949 1.491 . S
C1944 H1935 0.950 . S
C1944 C1943 1.398 . S
C1944 C1945 1.391 . S
C1945 H1933 0.950 . S
C1945 C1941 1.393 . S
C1945 C1944 1.391 . S
C1946 H1936 0.950 . S
C1946 C1947 1.386 . S
C1946 C1948 1.391 . S
C1947 C1946 1.386 . S
C1947 C1951 1.393 . S
C1948 H1937 0.950 . S
C1948 C1946 1.391 . S
C1948 C1949 1.400 . S
C1949 C1943 1.491 . S
C1949 C1948 1.400 . S
C1949 C1950 1.398 . S
C1950 H1938 0.950 . S
C1950 C1949 1.398 . S
C1950 C1951 1.391 . S
C1951 H1939 0.950 . S
C1951 C1947 1.393 . S
C1951 C1950 1.391 . S
H1952 C1960 0.950 . S
H1953 C1965 0.950 . S
H1954 C1962 0.950 . S
H1955 C1964 0.950 . S
H1956 C1966 0.950 . S
H1957 C1968 0.950 . S
H1958 C1970 0.950 . S
H1959 C1971 0.950 . S
C1960 H1952 0.950 . S
C1960 C1961 1.386 . S
C1960 C1962 1.391 . S
C1961 C1960 1.386 . S
C1961 C1965 1.393 . S
C1962 H1954 0.950 . S
C1962 C1960 1.391 . S
C1962 C1963 1.400 . S
C1963 C1962 1.400 . S
C1963 C1964 1.398 . S
C1963 C1969 1.491 . S
C1964 H1955 0.950 . S
C1964 C1963 1.398 . S
C1964 C1965 1.391 . S
C1965 H1953 0.950 . S
C1965 C1961 1.393 . S
C1965 C1964 1.391 . S
C1966 H1956 0.950 . S
C1966 C1967 1.386 . S
C1966 C1968 1.391 . S
C1967 C1966 1.386 . S
C1967 C1971 1.393 . S
C1968 H1957 0.950 . S
C1968 C1966 1.391 . S
C1968 C1969 1.400 . S
C1969 C1963 1.491 . S
C1969 C1968 1.400 . S
C1969 C1970 1.398 . S
C1970 H1958 0.950 . S
C1970 C1969 1.398 . S
C1970 C1971 1.391 . S
C1971 H1959 0.950 . S
C1971 C1967 1.393 . S
C1971 C1970 1.391 . S
H1972 C1980 0.950 . S
H1973 C1985 0.950 . S
H1974 C1982 0.950 . S
H1975 C1984 0.950 . S
H1976 C1986 0.950 . S
H1977 C1988 0.950 . S
H1978 C1990 0.950 . S
H1979 C1991 0.950 . S
C1980 H1972 0.950 . S
C1980 C1981 1.386 . S
C1980 C1982 1.391 . S
C1981 C1980 1.386 . S
C1981 C1985 1.393 . S
C1982 H1974 0.950 . S
C1982 C1980 1.391 . S
C1982 C1983 1.400 . S
C1983 C1982 1.400 . S
C1983 C1984 1.398 . S
C1983 C1989 1.491 . S
C1984 H1975 0.950 . S
C1984 C1983 1.398 . S
C1984 C1985 1.391 . S
C1985 H1973 0.950 . S
C1985 C1981 1.393 . S
C1985 C1984 1.391 . S
C1986 H1976 0.950 . S
C1986 C1987 1.386 . S
C1986 C1988 1.391 . S
C1987 C1986 1.386 . S
C1987 C1991 1.393 . S
C1988 H1977 0.950 . S
C1988 C1986 1.391 . S
C1988 C1989 1.400 . S
C1989 C1983 1.491 . S
C1989 C1988 1.400 . S
C1989 C1990 1.398 . S
C1990 H1978 0.950 . S
C1990 C1989 1.398 . S
C1990 C1991 1.391 . S
C1991 H1979 0.950 . S
C1991 C1987 1.393 . S
C1991 C1990 1.391 . S
H1992 C2000 0.950 . S
H1993 C2005 0.950 . S
H1994 C2002 0.950 . S
H1995 C2004 0.950 . S
H1996 C2006 0.950 . S
H1997 C2008 0.950 . S
H1998 C2010 0.950 . S
H1999 C2011 0.950 . S
C2000 H1992 0.950 . S
C2000 C2001 1.386 . S
C2000 C2002 1.391 . S
C2001 C2000 1.386 . S
C2001 C2005 1.393 . S
C2002 H1994 0.950 . S
C2002 C2000 1.391 . S
C2002 C2003 1.400 . S
C2003 C2002 1.400 . S
C2003 C2004 1.398 . S
C2003 C2009 1.491 . S
C2004 H1995 0.950 . S
C2004 C2003 1.398 . S
C2004 C2005 1.391 . S
C2005 H1993 0.950 . S
C2005 C2001 1.393 . S
C2005 C2004 1.391 . S
C2006 H1996 0.950 . S
C2006 C2007 1.386 . S
C2006 C2008 1.391 . S
C2007 C2006 1.386 . S
C2007 C2011 1.393 . S
C2008 H1997 0.950 . S
C2008 C2006 1.391 . S
C2008 C2009 1.400 . S
C2009 C2003 1.491 . S
C2009 C2008 1.400 . S
C2009 C2010 1.398 . S
C2010 H1998 0.950 . S
C2010 C2009 1.398 . S
C2010 C2011 1.391 . S
C2011 H1999 0.950 . S
C2011 C2007 1.393 . S
C2011 C2010 1.391 . S
H2012 C2020 0.950 . S
H2013 C2025 0.950 . S
H2014 C2022 0.950 . S
H2015 C2024 0.950 . S
H2016 C2026 0.950 . S
H2017 C2028 0.950 . S
H2018 C2030 0.950 . S
H2019 C2031 0.950 . S
C2020 H2012 0.950 . S
C2020 C2021 1.386 . S
C2020 C2022 1.391 . S
C2021 C2020 1.386 . S
C2021 C2025 1.393 . S
C2022 H2014 0.950 . S
C2022 C2020 1.391 . S
C2022 C2023 1.400 . S
C2023 C2022 1.400 . S
C2023 C2024 1.398 . S
C2023 C2029 1.491 . S
C2024 H2015 0.950 . S
C2024 C2023 1.398 . S
C2024 C2025 1.391 . S
C2025 H2013 0.950 . S
C2025 C2021 1.393 . S
C2025 C2024 1.391 . S
C2026 H2016 0.950 . S
C2026 C2027 1.386 . S
C2026 C2028 1.391 . S
C2027 C2026 1.386 . S
C2027 C2031 1.393 . S
C2028 H2017 0.950 . S
C2028 C2026 1.391 . S
C2028 C2029 1.400 . S
C2029 C2023 1.491 . S
C2029 C2028 1.400 . S
C2029 C2030 1.398 . S
C2030 H2018 0.950 . S
C2030 C2029 1.398 . S
C2030 C2031 1.391 . S
C2031 H2019 0.950 . S
C2031 C2027 1.393 . S
C2031 C2030 1.391 . S
H2032 C2040 0.950 . S
H2033 C2045 0.950 . S
H2034 C2042 0.950 . S
H2035 C2044 0.950 . S
H2036 C2046 0.950 . S
H2037 C2048 0.950 . S
H2038 C2050 0.950 . S
H2039 C2051 0.950 . S
C2040 H2032 0.950 . S
C2040 C2041 1.386 . S
C2040 C2042 1.391 . S
C2041 C2040 1.386 . S
C2041 C2045 1.393 . S
C2042 H2034 0.950 . S
C2042 C2040 1.391 . S
C2042 C2043 1.400 . S
C2043 C2042 1.400 . S
C2043 C2044 1.398 . S
C2043 C2049 1.491 . S
C2044 H2035 0.950 . S
C2044 C2043 1.398 . S
C2044 C2045 1.391 . S
C2045 H2033 0.950 . S
C2045 C2041 1.393 . S
C2045 C2044 1.391 . S
C2046 H2036 0.950 . S
C2046 C2047 1.386 . S
C2046 C2048 1.391 . S
C2047 C2046 1.386 . S
C2047 C2051 1.393 . S
C2048 H2037 0.950 . S
C2048 C2046 1.391 . S
C2048 C2049 1.400 . S
C2049 C2043 1.491 . S
C2049 C2048 1.400 . S
C2049 C2050 1.398 . S
C2050 H2038 0.950 . S
C2050 C2049 1.398 . S
C2050 C2051 1.391 . S
C2051 H2039 0.950 . S
C2051 C2047 1.393 . S
C2051 C2050 1.391 . S
H2052 C2060 0.950 . S
H2053 C2065 0.950 . S
H2054 C2062 0.950 . S
H2055 C2064 0.950 . S
H2056 C2066 0.950 . S
H2057 C2068 0.950 . S
H2058 C2070 0.950 . S
H2059 C2071 0.950 . S
C2060 H2052 0.950 . S
C2060 C2061 1.386 . S
C2060 C2062 1.391 . S
C2061 C2060 1.386 . S
C2061 C2065 1.393 . S
C2062 H2054 0.950 . S
C2062 C2060 1.391 . S
C2062 C2063 1.400 . S
C2063 C2062 1.400 . S
C2063 C2064 1.398 . S
C2063 C2069 1.491 . S
C2064 H2055 0.950 . S
C2064 C2063 1.398 . S
C2064 C2065 1.391 . S
C2065 H2053 0.950 . S
C2065 C2061 1.393 . S
C2065 C2064 1.391 . S
C2066 H2056 0.950 . S
C2066 C2067 1.386 . S
C2066 C2068 1.391 . S
C2067 C2066 1.386 . S
C2067 C2071 1.393 . S
C2068 H2057 0.950 . S
C2068 C2066 1.391 . S
C2068 C2069 1.400 . S
C2069 C2063 1.491 . S
C2069 C2068 1.400 . S
C2069 C2070 1.398 . S
C2070 H2058 0.950 . S
C2070 C2069 1.398 . S
C2070 C2071 1.391 . S
C2071 H2059 0.950 . S
C2071 C2067 1.393 . S
C2071 C2070 1.391 . S
H2072 C2080 0.950 . S
H2073 C2085 0.950 . S
H2074 C2082 0.950 . S
H2075 C2084 0.950 . S
H2076 C2086 0.950 . S
H2077 C2088 0.950 . S
H2078 C2090 0.950 . S
H2079 C2091 0.950 . S
C2080 H2072 0.950 . S
C2080 C2081 1.386 . S
C2080 C2082 1.391 . S
C2081 C2080 1.386 . S
C2081 C2085 1.393 . S
C2082 H2074 0.950 . S
C2082 C2080 1.391 . S
C2082 C2083 1.400 . S
C2083 C2082 1.400 . S
C2083 C2084 1.398 . S
C2083 C2089 1.491 . S
C2084 H2075 0.950 . S
C2084 C2083 1.398 . S
C2084 C2085 1.391 . S
C2085 H2073 0.950 . S
C2085 C2081 1.393 . S
C2085 C2084 1.391 . S
C2086 H2076 0.950 . S
C2086 C2087 1.386 . S
C2086 C2088 1.391 . S
C2087 C2086 1.386 . S
C2087 C2091 1.393 . S
C2088 H2077 0.950 . S
C2088 C2086 1.391 . S
C2088 C2089 1.400 . S
C2089 C2083 1.491 . S
C2089 C2088 1.400 . S
C2089 C2090 1.398 . S
C2090 H2078 0.950 . S
C2090 C2089 1.398 . S
C2090 C2091 1.391 . S
C2091 H2079 0.950 . S
C2091 C2087 1.393 . S
C2091 C2090 1.391 . S
H2092 C2100 0.950 . S
H2093 C2105 0.950 . S
H2094 C2102 0.950 . S
H2095 C2104 0.950 . S
H2096 C2106 0.950 . S
H2097 C2108 0.950 . S
H2098 C2110 0.950 . S
H2099 C2111 0.950 . S
C2100 H2092 0.950 . S
C2100 C2101 1.386 . S
C2100 C2102 1.391 . S
C2101 C2100 1.386 . S
C2101 C2105 1.393 . S
C2102 H2094 0.950 . S
C2102 C2100 1.391 . S
C2102 C2103 1.400 . S
C2103 C2102 1.400 . S
C2103 C2104 1.398 . S
C2103 C2109 1.491 . S
C2104 H2095 0.950 . S
C2104 C2103 1.398 . S
C2104 C2105 1.391 . S
C2105 H2093 0.950 . S
C2105 C2101 1.393 . S
C2105 C2104 1.391 . S
C2106 H2096 0.950 . S
C2106 C2107 1.386 . S
C2106 C2108 1.391 . S
C2107 C2106 1.386 . S
C2107 C2111 1.393 . S
C2108 H2097 0.950 . S
C2108 C2106 1.391 . S
C2108 C2109 1.400 . S
C2109 C2103 1.491 . S
C2109 C2108 1.400 . S
C2109 C2110 1.398 . S
C2110 H2098 0.950 . S
C2110 C2109 1.398 . S
C2110 C2111 1.391 . S
C2111 H2099 0.950 . S
C2111 C2107 1.393 . S
C2111 C2110 1.391 . S
H2112 C2120 0.950 . S
H2113 C2125 0.950 . S
H2114 C2122 0.950 . S
H2115 C2124 0.950 . S
H2116 C2126 0.950 . S
H2117 C2128 0.950 . S
H2118 C2130 0.950 . S
H2119 C2131 0.950 . S
C2120 H2112 0.950 . S
C2120 C2121 1.386 . S
C2120 C2122 1.391 . S
C2121 C2120 1.386 . S
C2121 C2125 1.393 . S
C2122 H2114 0.950 . S
C2122 C2120 1.391 . S
C2122 C2123 1.400 . S
C2123 C2122 1.400 . S
C2123 C2124 1.398 . S
C2123 C2129 1.491 . S
C2124 H2115 0.950 . S
C2124 C2123 1.398 . S
C2124 C2125 1.391 . S
C2125 H2113 0.950 . S
C2125 C2121 1.393 . S
C2125 C2124 1.391 . S
C2126 H2116 0.950 . S
C2126 C2127 1.386 . S
C2126 C2128 1.391 . S
C2127 C2126 1.386 . S
C2127 C2131 1.393 . S
C2128 H2117 0.950 . S
C2128 C2126 1.391 . S
C2128 C2129 1.400 . S
C2129 C2123 1.491 . S
C2129 C2128 1.400 . S
C2129 C2130 1.398 . S
C2130 H2118 0.950 . S
C2130 C2129 1.398 . S
C2130 C2131 1.391 . S
C2131 H2119 0.950 . S
C2131 C2127 1.393 . S
C2131 C2130 1.391 . S
H2132 C2140 0.950 . S
H2133 C2145 0.950 . S
H2134 C2142 0.950 . S
H2135 C2144 0.950 . S
H2136 C2146 0.950 . S
H2137 C2148 0.950 . S
H2138 C2150 0.950 . S
H2139 C2151 0.950 . S
C2140 H2132 0.950 . S
C2140 C2141 1.386 . S
C2140 C2142 1.391 . S
C2141 C2140 1.386 . S
C2141 C2145 1.393 . S
C2142 H2134 0.950 . S
C2142 C2140 1.391 . S
C2142 C2143 1.400 . S
C2143 C2142 1.400 . S
C2143 C2144 1.398 . S
C2143 C2149 1.491 1_565 S
C2144 H2135 0.950 . S
C2144 C2143 1.398 . S
C2144 C2145 1.391 . S
C2145 H2133 0.950 . S
C2145 C2141 1.393 . S
C2145 C2144 1.391 . S
C2146 H2136 0.950 . S
C2146 C2147 1.386 . S
C2146 C2148 1.391 . S
C2147 C2146 1.386 . S
C2147 C2151 1.393 . S
C2148 H2137 0.950 . S
C2148 C2146 1.391 . S
C2148 C2149 1.400 . S
C2149 C2143 1.491 1_545 S
C2149 C2148 1.400 . S
C2149 C2150 1.398 . S
C2150 H2138 0.950 . S
C2150 C2149 1.398 . S
C2150 C2151 1.391 . S
C2151 H2139 0.950 . S
C2151 C2147 1.393 . S
C2151 C2150 1.391 . S
H2152 C2160 0.950 . S
H2153 C2165 0.950 . S
H2154 C2162 0.950 . S
H2155 C2164 0.950 . S
H2156 C2166 0.950 . S
H2157 C2168 0.950 . S
H2158 C2170 0.950 . S
H2159 C2171 0.950 . S
C2160 H2152 0.950 . S
C2160 C2161 1.386 . S
C2160 C2162 1.391 . S
C2161 C2160 1.386 . S
C2161 C2165 1.393 . S
C2162 H2154 0.950 . S
C2162 C2160 1.391 . S
C2162 C2163 1.400 . S
C2163 C2162 1.400 . S
C2163 C2164 1.398 . S
C2163 C2169 1.491 . S
C2164 H2155 0.950 . S
C2164 C2163 1.398 . S
C2164 C2165 1.391 . S
C2165 H2153 0.950 . S
C2165 C2161 1.393 . S
C2165 C2164 1.391 . S
C2166 H2156 0.950 . S
C2166 C2167 1.386 . S
C2166 C2168 1.391 . S
C2167 C2166 1.386 . S
C2167 C2171 1.393 . S
C2168 H2157 0.950 . S
C2168 C2166 1.391 . S
C2168 C2169 1.400 . S
C2169 C2163 1.491 . S
C2169 C2168 1.400 . S
C2169 C2170 1.398 . S
C2170 H2158 0.950 . S
C2170 C2169 1.398 . S
C2170 C2171 1.391 . S
C2171 H2159 0.950 . S
C2171 C2167 1.393 . S
C2171 C2170 1.391 . S
H2172 C2180 0.950 . S
H2173 C2185 0.950 . S
H2174 C2182 0.950 . S
H2175 C2184 0.950 . S
H2176 C2186 0.950 . S
H2177 C2188 0.950 . S
H2178 C2190 0.950 . S
H2179 C2191 0.950 . S
C2180 H2172 0.950 . S
C2180 C2181 1.386 . S
C2180 C2182 1.391 . S
C2181 C2180 1.386 . S
C2181 C2185 1.393 . S
C2182 H2174 0.950 . S
C2182 C2180 1.391 . S
C2182 C2183 1.400 . S
C2183 C2182 1.400 . S
C2183 C2184 1.398 . S
C2183 C2189 1.491 . S
C2184 H2175 0.950 . S
C2184 C2183 1.398 . S
C2184 C2185 1.391 . S
C2185 H2173 0.950 . S
C2185 C2181 1.393 . S
C2185 C2184 1.391 . S
C2186 H2176 0.950 . S
C2186 C2187 1.386 . S
C2186 C2188 1.391 . S
C2187 C2186 1.386 . S
C2187 C2191 1.393 . S
C2188 H2177 0.950 . S
C2188 C2186 1.391 . S
C2188 C2189 1.400 . S
C2189 C2183 1.491 . S
C2189 C2188 1.400 . S
C2189 C2190 1.398 . S
C2190 H2178 0.950 . S
C2190 C2189 1.398 . S
C2190 C2191 1.391 . S
C2191 H2179 0.950 . S
C2191 C2187 1.393 . S
C2191 C2190 1.391 . S
H2192 C2200 0.950 . S
H2193 C2205 0.950 . S
H2194 C2202 0.950 . S
H2195 C2204 0.950 . S
H2196 C2206 0.950 . S
H2197 C2208 0.950 . S
H2198 C2210 0.950 . S
H2199 C2211 0.950 . S
C2200 H2192 0.950 . S
C2200 C2201 1.386 . S
C2200 C2202 1.391 . S
C2201 C2200 1.386 . S
C2201 C2205 1.393 . S
C2202 H2194 0.950 . S
C2202 C2200 1.391 . S
C2202 C2203 1.400 . S
C2203 C2202 1.400 . S
C2203 C2204 1.398 . S
C2203 C2209 1.491 1_556 S
C2204 H2195 0.950 . S
C2204 C2203 1.398 . S
C2204 C2205 1.391 . S
C2205 H2193 0.950 . S
C2205 C2201 1.393 . S
C2205 C2204 1.391 . S
C2206 H2196 0.950 . S
C2206 C2207 1.386 . S
C2206 C2208 1.391 . S
C2207 C2206 1.386 . S
C2207 C2211 1.393 . S
C2208 H2197 0.950 . S
C2208 C2206 1.391 . S
C2208 C2209 1.400 . S
C2209 C2203 1.491 1_554 S
C2209 C2208 1.400 . S
C2209 C2210 1.398 . S
C2210 H2198 0.950 . S
C2210 C2209 1.398 . S
C2210 C2211 1.391 . S
C2211 H2199 0.950 . S
C2211 C2207 1.393 . S
C2211 C2210 1.391 . S
H2212 C2220 0.950 . S
H2213 C2225 0.950 . S
H2214 C2222 0.950 . S
H2215 C2224 0.950 . S
H2216 C2226 0.950 . S
H2217 C2228 0.950 . S
H2218 C2230 0.950 . S
H2219 C2231 0.950 . S
C2220 H2212 0.950 . S
C2220 C2221 1.386 . S
C2220 C2222 1.391 . S
C2221 C2220 1.386 . S
C2221 C2225 1.393 . S
C2222 H2214 0.950 . S
C2222 C2220 1.391 . S
C2222 C2223 1.400 . S
C2223 C2222 1.400 . S
C2223 C2224 1.398 . S
C2223 C2229 1.491 1_554 S
C2224 H2215 0.950 . S
C2224 C2223 1.398 . S
C2224 C2225 1.391 . S
C2225 H2213 0.950 . S
C2225 C2221 1.393 . S
C2225 C2224 1.391 . S
C2226 H2216 0.950 . S
C2226 C2227 1.386 . S
C2226 C2228 1.391 . S
C2227 C2226 1.386 . S
C2227 C2231 1.393 . S
C2228 H2217 0.950 . S
C2228 C2226 1.391 . S
C2228 C2229 1.400 . S
C2229 C2223 1.491 1_556 S
C2229 C2228 1.400 . S
C2229 C2230 1.398 . S
C2230 H2218 0.950 . S
C2230 C2229 1.398 . S
C2230 C2231 1.391 . S
C2231 H2219 0.950 . S
C2231 C2227 1.393 . S
C2231 C2230 1.391 . S
H2232 C2240 0.950 . S
H2233 C2245 0.950 . S
H2234 C2242 0.950 . S
H2235 C2244 0.950 . S
H2236 C2246 0.950 . S
H2237 C2248 0.950 . S
H2238 C2250 0.950 . S
H2239 C2251 0.950 . S
C2240 H2232 0.950 . S
C2240 C2241 1.386 . S
C2240 C2242 1.391 . S
C2241 C2240 1.386 . S
C2241 C2245 1.393 . S
C2242 H2234 0.950 . S
C2242 C2240 1.391 . S
C2242 C2243 1.400 . S
C2243 C2242 1.400 . S
C2243 C2244 1.398 . S
C2243 C2249 1.491 . S
C2244 H2235 0.950 . S
C2244 C2243 1.398 . S
C2244 C2245 1.391 . S
C2245 H2233 0.950 . S
C2245 C2241 1.393 . S
C2245 C2244 1.391 . S
C2246 H2236 0.950 . S
C2246 C2247 1.386 . S
C2246 C2248 1.391 . S
C2247 C2246 1.386 . S
C2247 C2251 1.393 . S
C2248 H2237 0.950 . S
C2248 C2246 1.391 . S
C2248 C2249 1.400 . S
C2249 C2243 1.491 . S
C2249 C2248 1.400 . S
C2249 C2250 1.398 . S
C2250 H2238 0.950 . S
C2250 C2249 1.398 . S
C2250 C2251 1.391 . S
C2251 H2239 0.950 . S
C2251 C2247 1.393 . S
C2251 C2250 1.391 . S
H2252 C2260 0.950 . S
H2253 C2265 0.950 . S
H2254 C2262 0.950 . S
H2255 C2264 0.950 . S
H2256 C2266 0.950 . S
H2257 C2268 0.950 . S
H2258 C2270 0.950 . S
H2259 C2271 0.950 . S
C2260 H2252 0.950 . S
C2260 C2261 1.386 . S
C2260 C2262 1.391 . S
C2261 C2260 1.386 . S
C2261 C2265 1.393 . S
C2262 H2254 0.950 . S
C2262 C2260 1.391 . S
C2262 C2263 1.400 . S
C2263 C2262 1.400 . S
C2263 C2264 1.398 . S
C2263 C2269 1.491 . S
C2264 H2255 0.950 . S
C2264 C2263 1.398 . S
C2264 C2265 1.391 . S
C2265 H2253 0.950 . S
C2265 C2261 1.393 . S
C2265 C2264 1.391 . S
C2266 H2256 0.950 . S
C2266 C2267 1.386 . S
C2266 C2268 1.391 . S
C2267 C2266 1.386 . S
C2267 C2271 1.393 . S
C2268 H2257 0.950 . S
C2268 C2266 1.391 . S
C2268 C2269 1.400 . S
C2269 C2263 1.491 . S
C2269 C2268 1.400 . S
C2269 C2270 1.398 . S
C2270 H2258 0.950 . S
C2270 C2269 1.398 . S
C2270 C2271 1.391 . S
C2271 H2259 0.950 . S
C2271 C2267 1.393 . S
C2271 C2270 1.391 . S
H2272 C2280 0.950 . S
H2273 C2285 0.950 . S
H2274 C2282 0.950 . S
H2275 C2284 0.950 . S
H2276 C2286 0.950 . S
H2277 C2288 0.950 . S
H2278 C2290 0.950 . S
H2279 C2291 0.950 . S
C2280 H2272 0.950 . S
C2280 C2281 1.386 . S
C2280 C2282 1.391 . S
C2281 C2280 1.386 . S
C2281 C2285 1.393 . S
C2282 H2274 0.950 . S
C2282 C2280 1.391 . S
C2282 C2283 1.400 . S
C2283 C2282 1.400 . S
C2283 C2284 1.398 . S
C2283 C2289 1.491 1_455 S
C2284 H2275 0.950 . S
C2284 C2283 1.398 . S
C2284 C2285 1.391 . S
C2285 H2273 0.950 . S
C2285 C2281 1.393 . S
C2285 C2284 1.391 . S
C2286 H2276 0.950 . S
C2286 C2287 1.386 . S
C2286 C2288 1.391 . S
C2287 C2286 1.386 . S
C2287 C2291 1.393 . S
C2288 H2277 0.950 . S
C2288 C2286 1.391 . S
C2288 C2289 1.400 . S
C2289 C2283 1.491 1_655 S
C2289 C2288 1.400 . S
C2289 C2290 1.398 . S
C2290 H2278 0.950 . S
C2290 C2289 1.398 . S
C2290 C2291 1.391 . S
C2291 H2279 0.950 . S
C2291 C2287 1.393 . S
C2291 C2290 1.391 . S
H2292 C2300 0.950 . S
H2293 C2305 0.950 . S
H2294 C2302 0.950 . S
H2295 C2304 0.950 . S
H2296 C2306 0.950 . S
H2297 C2308 0.950 . S
H2298 C2310 0.950 . S
H2299 C2311 0.950 . S
C2300 H2292 0.950 . S
C2300 C2301 1.386 . S
C2300 C2302 1.391 . S
C2301 C2300 1.386 . S
C2301 C2305 1.393 . S
C2302 H2294 0.950 . S
C2302 C2300 1.391 . S
C2302 C2303 1.400 . S
C2303 C2302 1.400 . S
C2303 C2304 1.398 . S
C2303 C2309 1.491 . S
C2304 H2295 0.950 . S
C2304 C2303 1.398 . S
C2304 C2305 1.391 . S
C2305 H2293 0.950 . S
C2305 C2301 1.393 . S
C2305 C2304 1.391 . S
C2306 H2296 0.950 . S
C2306 C2307 1.386 . S
C2306 C2308 1.391 . S
C2307 C2306 1.386 . S
C2307 C2311 1.393 . S
C2308 H2297 0.950 . S
C2308 C2306 1.391 . S
C2308 C2309 1.400 . S
C2309 C2303 1.491 . S
C2309 C2308 1.400 . S
C2309 C2310 1.398 . S
C2310 H2298 0.950 . S
C2310 C2309 1.398 . S
C2310 C2311 1.391 . S
C2311 H2299 0.950 . S
C2311 C2307 1.393 . S
C2311 C2310 1.391 . S
H2312 C2320 0.950 . S
H2313 C2325 0.950 . S
H2314 C2322 0.950 . S
H2315 C2324 0.950 . S
H2316 C2326 0.950 . S
H2317 C2328 0.950 . S
H2318 C2330 0.950 . S
H2319 C2331 0.950 . S
C2320 H2312 0.950 . S
C2320 C2321 1.386 . S
C2320 C2322 1.391 . S
C2321 C2320 1.386 . S
C2321 C2325 1.393 . S
C2322 H2314 0.950 . S
C2322 C2320 1.391 . S
C2322 C2323 1.400 . S
C2323 C2322 1.400 . S
C2323 C2324 1.398 . S
C2323 C2329 1.491 1_545 S
C2324 H2315 0.950 . S
C2324 C2323 1.398 . S
C2324 C2325 1.391 . S
C2325 H2313 0.950 . S
C2325 C2321 1.393 . S
C2325 C2324 1.391 . S
C2326 H2316 0.950 . S
C2326 C2327 1.386 . S
C2326 C2328 1.391 . S
C2327 C2326 1.386 . S
C2327 C2331 1.393 . S
C2328 H2317 0.950 . S
C2328 C2326 1.391 . S
C2328 C2329 1.400 . S
C2329 C2323 1.491 1_565 S
C2329 C2328 1.400 . S
C2329 C2330 1.398 . S
C2330 H2318 0.950 . S
C2330 C2329 1.398 . S
C2330 C2331 1.391 . S
C2331 H2319 0.950 . S
C2331 C2327 1.393 . S
C2331 C2330 1.391 . S
H2332 C2340 0.950 . S
H2333 C2345 0.950 . S
H2334 C2342 0.950 . S
H2335 C2344 0.950 . S
H2336 C2346 0.950 . S
H2337 C2348 0.950 . S
H2338 C2350 0.950 . S
H2339 C2351 0.950 . S
C2340 H2332 0.950 . S
C2340 C2341 1.386 . S
C2340 C2342 1.391 . S
C2341 C2340 1.386 . S
C2341 C2345 1.393 . S
C2342 H2334 0.950 . S
C2342 C2340 1.391 . S
C2342 C2343 1.400 . S
C2343 C2342 1.400 . S
C2343 C2344 1.398 . S
C2343 C2349 1.491 . S
C2344 H2335 0.950 . S
C2344 C2343 1.398 . S
C2344 C2345 1.391 . S
C2345 H2333 0.950 . S
C2345 C2341 1.393 . S
C2345 C2344 1.391 . S
C2346 H2336 0.950 . S
C2346 C2347 1.386 . S
C2346 C2348 1.391 . S
C2347 C2346 1.386 . S
C2347 C2351 1.393 . S
C2348 H2337 0.950 . S
C2348 C2346 1.391 . S
C2348 C2349 1.400 . S
C2349 C2343 1.491 . S
C2349 C2348 1.400 . S
C2349 C2350 1.398 . S
C2350 H2338 0.950 . S
C2350 C2349 1.398 . S
C2350 C2351 1.391 . S
C2351 H2339 0.950 . S
C2351 C2347 1.393 . S
C2351 C2350 1.391 . S
H2352 C2360 0.950 . S
H2353 C2365 0.950 . S
H2354 C2362 0.950 . S
H2355 C2364 0.950 . S
H2356 C2366 0.950 . S
H2357 C2368 0.950 . S
H2358 C2370 0.950 . S
H2359 C2371 0.950 . S
C2360 H2352 0.950 . S
C2360 C2361 1.386 . S
C2360 C2362 1.391 . S
C2361 C2360 1.386 . S
C2361 C2365 1.393 . S
C2362 H2354 0.950 . S
C2362 C2360 1.391 . S
C2362 C2363 1.400 . S
C2363 C2362 1.400 . S
C2363 C2364 1.398 . S
C2363 C2369 1.491 . S
C2364 H2355 0.950 . S
C2364 C2363 1.398 . S
C2364 C2365 1.391 . S
C2365 H2353 0.950 . S
C2365 C2361 1.393 . S
C2365 C2364 1.391 . S
C2366 H2356 0.950 . S
C2366 C2367 1.386 . S
C2366 C2368 1.391 . S
C2367 C2366 1.386 . S
C2367 C2371 1.393 . S
C2368 H2357 0.950 . S
C2368 C2366 1.391 . S
C2368 C2369 1.400 . S
C2369 C2363 1.491 . S
C2369 C2368 1.400 . S
C2369 C2370 1.398 . S
C2370 H2358 0.950 . S
C2370 C2369 1.398 . S
C2370 C2371 1.391 . S
C2371 H2359 0.950 . S
C2371 C2367 1.393 . S
C2371 C2370 1.391 . S
H2372 C2380 0.950 . S
H2373 C2385 0.950 . S
H2374 C2382 0.950 . S
H2375 C2384 0.950 . S
H2376 C2386 0.950 . S
H2377 C2388 0.950 . S
H2378 C2390 0.950 . S
H2379 C2391 0.950 . S
C2380 H2372 0.950 . S
C2380 C2381 1.386 . S
C2380 C2382 1.391 . S
C2381 C2380 1.386 . S
C2381 C2385 1.393 . S
C2382 H2374 0.950 . S
C2382 C2380 1.391 . S
C2382 C2383 1.400 . S
C2383 C2382 1.400 . S
C2383 C2384 1.398 . S
C2383 C2389 1.491 1_556 S
C2384 H2375 0.950 . S
C2384 C2383 1.398 . S
C2384 C2385 1.391 . S
C2385 H2373 0.950 . S
C2385 C2381 1.393 . S
C2385 C2384 1.391 . S
C2386 H2376 0.950 . S
C2386 C2387 1.386 . S
C2386 C2388 1.391 . S
C2387 C2386 1.386 . S
C2387 C2391 1.393 . S
C2388 H2377 0.950 . S
C2388 C2386 1.391 . S
C2388 C2389 1.400 . S
C2389 C2383 1.491 1_554 S
C2389 C2388 1.400 . S
C2389 C2390 1.398 . S
C2390 H2378 0.950 . S
C2390 C2389 1.398 . S
C2390 C2391 1.391 . S
C2391 H2379 0.950 . S
C2391 C2387 1.393 . S
C2391 C2390 1.391 . S
H2392 C2400 0.950 . S
H2393 C2405 0.950 . S
H2394 C2402 0.950 . S
H2395 C2404 0.950 . S
H2396 C2406 0.950 . S
H2397 C2408 0.950 . S
H2398 C2410 0.950 . S
H2399 C2411 0.950 . S
C2400 H2392 0.950 . S
C2400 C2401 1.386 . S
C2400 C2402 1.391 . S
C2401 C2400 1.386 . S
C2401 C2405 1.393 . S
C2402 H2394 0.950 . S
C2402 C2400 1.391 . S
C2402 C2403 1.400 . S
C2403 C2402 1.400 . S
C2403 C2404 1.398 . S
C2403 C2409 1.491 1_556 S
C2404 H2395 0.950 . S
C2404 C2403 1.398 . S
C2404 C2405 1.391 . S
C2405 H2393 0.950 . S
C2405 C2401 1.393 . S
C2405 C2404 1.391 . S
C2406 H2396 0.950 . S
C2406 C2407 1.386 . S
C2406 C2408 1.391 . S
C2407 C2406 1.386 . S
C2407 C2411 1.393 . S
C2408 H2397 0.950 . S
C2408 C2406 1.391 . S
C2408 C2409 1.400 . S
C2409 C2403 1.491 1_554 S
C2409 C2408 1.400 . S
C2409 C2410 1.398 . S
C2410 H2398 0.950 . S
C2410 C2409 1.398 . S
C2410 C2411 1.391 . S
C2411 H2399 0.950 . S
C2411 C2407 1.393 . S
C2411 C2410 1.391 . S
H2412 C2420 0.950 . S
H2413 C2425 0.950 . S
H2414 C2422 0.950 . S
H2415 C2424 0.950 . S
H2416 C2426 0.950 . S
H2417 C2428 0.950 . S
H2418 C2430 0.950 . S
H2419 C2431 0.950 . S
C2420 H2412 0.950 . S
C2420 C2421 1.386 . S
C2420 C2422 1.391 . S
C2421 C2420 1.386 . S
C2421 C2425 1.393 . S
C2422 H2414 0.950 . S
C2422 C2420 1.391 . S
C2422 C2423 1.400 . S
C2423 C2422 1.400 . S
C2423 C2424 1.398 . S
C2423 C2429 1.491 . S
C2424 H2415 0.950 . S
C2424 C2423 1.398 . S
C2424 C2425 1.391 . S
C2425 H2413 0.950 . S
C2425 C2421 1.393 . S
C2425 C2424 1.391 . S
C2426 H2416 0.950 . S
C2426 C2427 1.386 . S
C2426 C2428 1.391 . S
C2427 C2426 1.386 . S
C2427 C2431 1.393 . S
C2428 H2417 0.950 . S
C2428 C2426 1.391 . S
C2428 C2429 1.400 . S
C2429 C2423 1.491 . S
C2429 C2428 1.400 . S
C2429 C2430 1.398 . S
C2430 H2418 0.950 . S
C2430 C2429 1.398 . S
C2430 C2431 1.391 . S
C2431 H2419 0.950 . S
C2431 C2427 1.393 . S
C2431 C2430 1.391 . S
H2432 C2440 0.950 . S
H2433 C2445 0.950 . S
H2434 C2442 0.950 . S
H2435 C2444 0.950 . S
H2436 C2446 0.950 . S
H2437 C2448 0.950 . S
H2438 C2450 0.950 . S
H2439 C2451 0.950 . S
C2440 H2432 0.950 . S
C2440 C2441 1.386 . S
C2440 C2442 1.391 . S
C2441 C2440 1.386 . S
C2441 C2445 1.393 . S
C2442 H2434 0.950 . S
C2442 C2440 1.391 . S
C2442 C2443 1.400 . S
C2443 C2442 1.400 . S
C2443 C2444 1.398 . S
C2443 C2449 1.491 . S
C2444 H2435 0.950 . S
C2444 C2443 1.398 . S
C2444 C2445 1.391 . S
C2445 H2433 0.950 . S
C2445 C2441 1.393 . S
C2445 C2444 1.391 . S
C2446 H2436 0.950 . S
C2446 C2447 1.386 . S
C2446 C2448 1.391 . S
C2447 C2446 1.386 . S
C2447 C2451 1.393 . S
C2448 H2437 0.950 . S
C2448 C2446 1.391 . S
C2448 C2449 1.400 . S
C2449 C2443 1.491 . S
C2449 C2448 1.400 . S
C2449 C2450 1.398 . S
C2450 H2438 0.950 . S
C2450 C2449 1.398 . S
C2450 C2451 1.391 . S
C2451 H2439 0.950 . S
C2451 C2447 1.393 . S
C2451 C2450 1.391 . S
H2452 C2460 0.950 . S
H2453 C2465 0.950 . S
H2454 C2462 0.950 . S
H2455 C2464 0.950 . S
H2456 C2466 0.950 . S
H2457 C2468 0.950 . S
H2458 C2470 0.950 . S
H2459 C2471 0.950 . S
C2460 H2452 0.950 . S
C2460 C2461 1.386 . S
C2460 C2462 1.391 . S
C2461 C2460 1.386 . S
C2461 C2465 1.393 . S
C2462 H2454 0.950 . S
C2462 C2460 1.391 . S
C2462 C2463 1.400 . S
C2463 C2462 1.400 . S
C2463 C2464 1.398 . S
C2463 C2469 1.491 1_655 S
C2464 H2455 0.950 . S
C2464 C2463 1.398 . S
C2464 C2465 1.391 . S
C2465 H2453 0.950 . S
C2465 C2461 1.393 . S
C2465 C2464 1.391 . S
C2466 H2456 0.950 . S
C2466 C2467 1.386 . S
C2466 C2468 1.391 . S
C2467 C2466 1.386 . S
C2467 C2471 1.393 . S
C2468 H2457 0.950 . S
C2468 C2466 1.391 . S
C2468 C2469 1.400 . S
C2469 C2463 1.491 1_455 S
C2469 C2468 1.400 . S
C2469 C2470 1.398 . S
C2470 H2458 0.950 . S
C2470 C2469 1.398 . S
C2470 C2471 1.391 . S
C2471 H2459 0.950 . S
C2471 C2467 1.393 . S
C2471 C2470 1.391 . S
H2472 C2480 0.950 . S
H2473 C2485 0.950 . S
H2474 C2482 0.950 . S
H2475 C2484 0.950 . S
H2476 C2486 0.950 . S
H2477 C2488 0.950 . S
H2478 C2490 0.950 . S
H2479 C2491 0.950 . S
C2480 H2472 0.950 . S
C2480 C2481 1.386 . S
C2480 C2482 1.391 . S
C2481 C2480 1.386 . S
C2481 C2485 1.393 . S
C2482 H2474 0.950 . S
C2482 C2480 1.391 . S
C2482 C2483 1.400 . S
C2483 C2482 1.400 . S
C2483 C2484 1.398 . S
C2483 C2489 1.491 1_545 S
C2484 H2475 0.950 . S
C2484 C2483 1.398 . S
C2484 C2485 1.391 . S
C2485 H2473 0.950 . S
C2485 C2481 1.393 . S
C2485 C2484 1.391 . S
C2486 H2476 0.950 . S
C2486 C2487 1.386 . S
C2486 C2488 1.391 . S
C2487 C2486 1.386 . S
C2487 C2491 1.393 . S
C2488 H2477 0.950 . S
C2488 C2486 1.391 . S
C2488 C2489 1.400 . S
C2489 C2483 1.491 1_565 S
C2489 C2488 1.400 . S
C2489 C2490 1.398 . S
C2490 H2478 0.950 . S
C2490 C2489 1.398 . S
C2490 C2491 1.391 . S
C2491 H2479 0.950 . S
C2491 C2487 1.393 . S
C2491 C2490 1.391 . S
H2492 C2500 0.950 . S
H2493 C2505 0.950 . S
H2494 C2502 0.950 . S
H2495 C2504 0.950 . S
H2496 C2506 0.950 . S
H2497 C2508 0.950 . S
H2498 C2510 0.950 . S
H2499 C2511 0.950 . S
C2500 H2492 0.950 . S
C2500 C2501 1.386 . S
C2500 C2502 1.391 . S
C2501 C2500 1.386 . S
C2501 C2505 1.393 . S
C2502 H2494 0.950 . S
C2502 C2500 1.391 . S
C2502 C2503 1.400 . S
C2503 C2502 1.400 . S
C2503 C2504 1.398 . S
C2503 C2509 1.491 . S
C2504 H2495 0.950 . S
C2504 C2503 1.398 . S
C2504 C2505 1.391 . S
C2505 H2493 0.950 . S
C2505 C2501 1.393 . S
C2505 C2504 1.391 . S
C2506 H2496 0.950 . S
C2506 C2507 1.386 . S
C2506 C2508 1.391 . S
C2507 C2506 1.386 . S
C2507 C2511 1.393 . S
C2508 H2497 0.950 . S
C2508 C2506 1.391 . S
C2508 C2509 1.400 . S
C2509 C2503 1.491 . S
C2509 C2508 1.400 . S
C2509 C2510 1.398 . S
C2510 H2498 0.950 . S
C2510 C2509 1.398 . S
C2510 C2511 1.391 . S
C2511 H2499 0.950 . S
C2511 C2507 1.393 . S
C2511 C2510 1.391 . S
H2512 C2520 0.950 . S
H2513 C2525 0.950 . S
H2514 C2522 0.950 . S
H2515 C2524 0.950 . S
H2516 C2526 0.950 . S
H2517 C2528 0.950 . S
H2518 C2530 0.950 . S
H2519 C2531 0.950 . S
C2520 H2512 0.950 . S
C2520 C2521 1.386 . S
C2520 C2522 1.391 . S
C2521 C2520 1.386 . S
C2521 C2525 1.393 . S
C2522 H2514 0.950 . S
C2522 C2520 1.391 . S
C2522 C2523 1.400 . S
C2523 C2522 1.400 . S
C2523 C2524 1.398 . S
C2523 C2529 1.491 1_455 S
C2524 H2515 0.950 . S
C2524 C2523 1.398 . S
C2524 C2525 1.391 . S
C2525 H2513 0.950 . S
C2525 C2521 1.393 . S
C2525 C2524 1.391 . S
C2526 H2516 0.950 . S
C2526 C2527 1.386 . S
C2526 C2528 1.391 . S
C2527 C2526 1.386 . S
C2527 C2531 1.393 . S
C2528 H2517 0.950 . S
C2528 C2526 1.391 . S
C2528 C2529 1.400 . S
C2529 C2523 1.491 1_655 S
C2529 C2528 1.400 . S
C2529 C2530 1.398 . S
C2530 H2518 0.950 . S
C2530 C2529 1.398 . S
C2530 C2531 1.391 . S
C2531 H2519 0.950 . S
C2531 C2527 1.393 . S
C2531 C2530 1.391 . S
H2532 C2540 0.950 . S
H2533 C2545 0.950 . S
H2534 C2542 0.950 . S
H2535 C2544 0.950 . S
H2536 C2546 0.950 . S
H2537 C2548 0.950 . S
H2538 C2550 0.950 . S
H2539 C2551 0.950 . S
C2540 H2532 0.950 . S
C2540 C2541 1.386 . S
C2540 C2542 1.391 . S
C2541 C2540 1.386 . S
C2541 C2545 1.393 . S
C2542 H2534 0.950 . S
C2542 C2540 1.391 . S
C2542 C2543 1.400 . S
C2543 C2542 1.400 . S
C2543 C2544 1.398 . S
C2543 C2549 1.491 1_545 S
C2544 H2535 0.950 . S
C2544 C2543 1.398 . S
C2544 C2545 1.391 . S
C2545 H2533 0.950 . S
C2545 C2541 1.393 . S
C2545 C2544 1.391 . S
C2546 H2536 0.950 . S
C2546 C2547 1.386 . S
C2546 C2548 1.391 . S
C2547 C2546 1.386 . S
C2547 C2551 1.393 . S
C2548 H2537 0.950 . S
C2548 C2546 1.391 . S
C2548 C2549 1.400 . S
C2549 C2543 1.491 1_565 S
C2549 C2548 1.400 . S
C2549 C2550 1.398 . S
C2550 H2538 0.950 . S
C2550 C2549 1.398 . S
C2550 C2551 1.391 . S
C2551 H2539 0.950 . S
C2551 C2547 1.393 . S
C2551 C2550 1.391 . S
H2552 C2560 0.950 . S
H2553 C2565 0.950 . S
H2554 C2562 0.950 . S
H2555 C2564 0.950 . S
H2556 C2566 0.950 . S
H2557 C2568 0.950 . S
H2558 C2570 0.950 . S
H2559 C2571 0.950 . S
C2560 H2552 0.950 . S
C2560 C2561 1.386 . S
C2560 C2562 1.391 . S
C2561 C2560 1.386 . S
C2561 C2565 1.393 . S
C2562 H2554 0.950 . S
C2562 C2560 1.391 . S
C2562 C2563 1.400 . S
C2563 C2562 1.400 . S
C2563 C2564 1.398 . S
C2563 C2569 1.491 . S
C2564 H2555 0.950 . S
C2564 C2563 1.398 . S
C2564 C2565 1.391 . S
C2565 H2553 0.950 . S
C2565 C2561 1.393 . S
C2565 C2564 1.391 . S
C2566 H2556 0.950 . S
C2566 C2567 1.386 . S
C2566 C2568 1.391 . S
C2567 C2566 1.386 . S
C2567 C2571 1.393 . S
C2568 H2557 0.950 . S
C2568 C2566 1.391 . S
C2568 C2569 1.400 . S
C2569 C2563 1.491 . S
C2569 C2568 1.400 . S
C2569 C2570 1.398 . S
C2570 H2558 0.950 . S
C2570 C2569 1.398 . S
C2570 C2571 1.391 . S
C2571 H2559 0.950 . S
C2571 C2567 1.393 . S
C2571 C2570 1.391 . S
H2572 C2580 0.950 . S
H2573 C2585 0.950 . S
H2574 C2582 0.950 . S
H2575 C2584 0.950 . S
H2576 C2586 0.950 . S
H2577 C2588 0.950 . S
H2578 C2590 0.950 . S
H2579 C2591 0.950 . S
C2580 H2572 0.950 . S
C2580 C2581 1.386 . S
C2580 C2582 1.391 . S
C2581 C2580 1.386 . S
C2581 C2585 1.393 . S
C2582 H2574 0.950 . S
C2582 C2580 1.391 . S
C2582 C2583 1.400 . S
C2583 C2582 1.400 . S
C2583 C2584 1.398 . S
C2583 C2589 1.491 1_455 S
C2584 H2575 0.950 . S
C2584 C2583 1.398 . S
C2584 C2585 1.391 . S
C2585 H2573 0.950 . S
C2585 C2581 1.393 . S
C2585 C2584 1.391 . S
C2586 H2576 0.950 . S
C2586 C2587 1.386 . S
C2586 C2588 1.391 . S
C2587 C2586 1.386 . S
C2587 C2591 1.393 . S
C2588 H2577 0.950 . S
C2588 C2586 1.391 . S
C2588 C2589 1.400 . S
C2589 C2583 1.491 1_655 S
C2589 C2588 1.400 . S
C2589 C2590 1.398 . S
C2590 H2578 0.950 . S
C2590 C2589 1.398 . S
C2590 C2591 1.391 . S
C2591 H2579 0.950 . S
C2591 C2587 1.393 . S
C2591 C2590 1.391 . S
C681 C22 1.715 . S
C687 C8 1.707 . S
C701 C36 1.712 . S
C707 C50 1.709 . S
C721 C92 1.714 . S
C727 C64 1.707 . S
C741 C106 1.709 . S
C747 C78 1.711 . S
C761 C120 1.714 . S
C767 C484 1.722 . S
C781 C134 1.714 . S
C787 C162 1.722 . S
C801 C456 1.720 . S
C807 C148 1.707 . S
C821 C190 1.722 . S
C827 C176 1.710 . S
C841 C218 1.720 . S
C847 C204 1.717 . S
C861 C260 1.716 . S
C867 C232 1.707 . S
C881 C274 1.722 . S
C887 C246 1.713 . S
C901 C288 1.718 . S
C907 C652 1.720 . S
C921 C302 1.720 . S
C927 C330 1.717 . S
C941 C624 1.708 . S
C947 C316 1.713 . S
C961 C344 1.713 . S
C967 C358 1.722 . S
C981 C386 1.707 . S
C987 C372 1.719 . S
C1001 C400 1.710 . S
C1007 C428 1.722 . S
C1021 C442 1.711 . S
C1027 C414 1.709 . S
C1041 C498 1.713 . S
C1047 C470 1.722 . S
C1061 C526 1.707 . S
C1067 C512 1.720 . S
C1081 C540 1.721 . S
C1087 C554 1.708 . S
C1101 C596 1.722 . S
C1107 C568 1.709 . S
C1121 C582 1.708 . S
C1127 C610 1.713 . S
C1141 C638 1.721 . S
C1147 C666 1.709 . S
C1161 C619 1.314 . S
C1167 C7 1.275 . S
C1181 C325 1.309 . S
C1187 C21 1.285 . S
C1201 C633 1.305 . S
C1207 C35 1.272 . S
C1221 C49 1.290 . S
C1227 C647 1.324 . S
C1241 C63 1.280 . S
C1247 C507 1.317 . S
C1261 C521 1.308 . S
C1267 C77 1.283 . S
C1281 C91 1.297 . S
C1287 C535 1.327 . S
C1301 C549 1.306 . S
C1307 C105 1.271 . S
C1321 C563 1.328 . S
C1327 C119 1.302 . S
C1341 C133 1.277 . S
C1347 C591 1.315 . S
C1361 C605 1.307 . S
C1367 C147 1.280 . S
C1381 C161 1.303 . S
C1387 C241 1.325 . S
C1401 C175 1.298 . S
C1407 C451 1.318 . S
C1421 C189 1.280 . S
C1427 C157 1.318 . S
C1441 C203 1.281 . S
C1447 C465 1.307 . S
C1461 C217 1.273 . S
C1467 C479 1.305 . S
C1481 C339 1.310 . S
C1487 C231 1.287 . S
C1501 C353 1.328 . S
C1507 C245 1.300 . S
C1521 C259 1.278 . S
C1527 C367 1.316 . S
C1541 C273 1.271 . S
C1547 C381 1.308 . S
C1561 C287 1.277 . S
C1567 C395 1.315 . S
C1581 C301 1.290 . S
C1587 C423 1.312 . S
C1601 C437 1.319 . S
C1607 C315 1.282 . S
C1621 C73 1.311 . S
C1627 C329 1.273 . S
C1641 C343 1.291 . S
C1647 C283 1.313 . S
C1661 C357 1.301 . S
C1667 C661 1.328 . S
C1681 C371 1.282 . S
C1687 C297 1.320 . S
C1701 C385 1.290 . S
C1707 C311 1.312 . S
C1721 C171 1.312 . S
C1727 C399 1.274 . S
C1741 C413 1.287 . S
C1747 C185 1.310 . S
C1761 C199 1.306 . S
C1767 C427 1.271 . S
C1781 C213 1.327 . S
C1787 C441 1.303 . S
C1801 C227 1.320 . S
C1807 C455 1.284 . S
C1821 C255 1.317 . S
C1827 C469 1.297 . S
C1841 C483 1.283 . S
C1847 C269 1.308 . S
C1861 C497 1.303 . S
C1867 C577 1.324 . S
C1881 C115 1.324 . S
C1887 C511 1.289 . S
C1901 C525 1.293 . S
C1907 C493 1.315 . S
C1921 C539 1.284 . S
C1927 C129 1.321 . S
C1941 C143 1.316 . S
C1947 C553 1.277 . S
C1961 C567 1.301 . S
C1967 C3 1.328 . S
C1981 C581 1.297 . S
C1987 C17 1.318 . S
C2001 C31 1.326 . S
C2007 C595 1.293 . S
C2021 C609 1.303 . S
C2027 C45 1.324 . S
C2041 C623 1.300 . S
C2047 C59 1.328 . S
C2061 C87 1.325 . S
C2067 C637 1.292 . S
C2081 C651 1.274 . S
C2087 C101 1.312 . S
C2101 C409 1.317 . S
C2107 C665 1.296 . S
C2121 C37 0.899 . S
C2127 C9 0.913 . S
C2141 C51 0.914 . S
C2147 C23 0.934 . S
C2161 C443 0.937 . S
C2167 C65 0.896 . S
C2181 C429 0.936 . S
C2187 C79 0.894 . S
C2201 C415 0.938 . S
C2207 C93 0.906 . S
C2221 C107 0.921 . S
C2227 C401 0.894 . S
C2241 C121 0.932 . S
C2247 C499 0.893 . S
C2261 C149 0.936 . S
C2267 C135 0.895 . S
C2281 C163 0.922 . S
C2287 C457 0.929 . S
C2301 C205 0.938 . S
C2307 C177 0.902 . S
C2321 C219 0.926 . S
C2327 C191 0.893 . S
C2341 C611 0.906 . S
C2347 C233 0.905 . S
C2361 C597 0.893 . S
C2367 C247 0.933 . S
C2381 C261 0.929 . S
C2387 C583 0.892 . S
C2401 C275 0.896 . S
C2407 C569 0.937 . S
C2421 C667 0.893 . S
C2427 C289 0.925 . S
C2441 C317 0.933 . S
C2447 C303 0.893 . S
C2461 C331 0.934 . S
C2467 C625 0.916 . S
C2481 C373 0.938 . S
C2487 C345 0.904 . S
C2501 C359 0.896 . S
C2507 C387 0.918 . S
C2521 C485 0.922 . S
C2527 C471 0.894 . S
C2541 C513 0.928 . S
C2547 C541 0.923 . S
C2561 C527 0.936 . S
C2567 C555 0.911 . S
C2581 C639 0.928 . S
C2587 C653 0.892 . S
