# Generated by pormake.
# Topology yfg, (5)-cn, num edge types: 1
# Building blocks:
#     Node 0, Type 0, BuildingBlock: BEQFEK_clean_sbu_0, # of connection points: 5
#     Node 1, Type 0, BuildingBlock: BEQFEK_clean_sbu_0, # of connection points: 5
#     Node 2, Type 0, BuildingBlock: BEQFEK_clean_sbu_0, # of connection points: 5
#     Node 3, Type 0, BuildingBlock: BEQFEK_clean_sbu_0, # of connection points: 5
#     Node 4, Type 0, BuildingBlock: BEQFEK_clean_sbu_0, # of connection points: 5
#     Node 5, Type 0, BuildingBlock: BEQFEK_clean_sbu_0, # of connection points: 5
#     Node 6, Type 0, BuildingBlock: BEQFEK_clean_sbu_0, # of connection points: 5
#     Node 7, Type 0, BuildingBlock: BEQFEK_clean_sbu_0, # of connection points: 5
#     Edge 8, Type (0, 0), BuildingBlock: EYOCIG_clean_linker_4, # of connection points: 2
#     Edge 9, Type (0, 0), BuildingBlock: EYOCIG_clean_linker_4, # of connection points: 2
#     Edge 10, Type (0, 0), BuildingBlock: EYOCIG_clean_linker_4, # of connection points: 2
#     Edge 11, Type (0, 0), BuildingBlock: EYOCIG_clean_linker_4, # of connection points: 2
#     Edge 12, Type (0, 0), BuildingBlock: EYOCIG_clean_linker_4, # of connection points: 2
#     Edge 13, Type (0, 0), BuildingBlock: EYOCIG_clean_linker_4, # of connection points: 2
#     Edge 14, Type (0, 0), BuildingBlock: EYOCIG_clean_linker_4, # of connection points: 2
#     Edge 15, Type (0, 0), BuildingBlock: EYOCIG_clean_linker_4, # of connection points: 2
#     Edge 16, Type (0, 0), BuildingBlock: EYOCIG_clean_linker_4, # of connection points: 2
#     Edge 17, Type (0, 0), BuildingBlock: EYOCIG_clean_linker_4, # of connection points: 2
#     Edge 18, Type (0, 0), BuildingBlock: EYOCIG_clean_linker_4, # of connection points: 2
#     Edge 19, Type (0, 0), BuildingBlock: EYOCIG_clean_linker_4, # of connection points: 2
#     Edge 20, Type (0, 0), BuildingBlock: EYOCIG_clean_linker_4, # of connection points: 2
#     Edge 21, Type (0, 0), BuildingBlock: EYOCIG_clean_linker_4, # of connection points: 2
#     Edge 22, Type (0, 0), BuildingBlock: EYOCIG_clean_linker_4, # of connection points: 2
#     Edge 23, Type (0, 0), BuildingBlock: EYOCIG_clean_linker_4, # of connection points: 2
#     Edge 24, Type (0, 0), BuildingBlock: EYOCIG_clean_linker_4, # of connection points: 2
#     Edge 25, Type (0, 0), BuildingBlock: EYOCIG_clean_linker_4, # of connection points: 2
#     Edge 26, Type (0, 0), BuildingBlock: EYOCIG_clean_linker_4, # of connection points: 2
#     Edge 27, Type (0, 0), BuildingBlock: EYOCIG_clean_linker_4, # of connection points: 2
# Relax obj value: 0.525
# Max RMSD: 0.224
# Mean RMSD: 0.224
data_MOF--net-yfg--node1-BEQFEK_clean_sbu_0--edge1-EYOCIG_clean_linker_4
_symmetry_space_group_name_H-M    P1
_symmetry_Int_Tables_number       1
_symmetry_cell_setting            triclinic
loop_
_symmetry_equiv_pos_as_xyz
'x, y, z'
_cell_length_a     27.82444
_cell_length_b     27.807954
_cell_length_c     36.571278
_cell_angle_alpha  90.013757
_cell_angle_beta   90.001042
_cell_angle_gamma 90.081121
loop_
_atom_site_label
_atom_site_type_symbol
_atom_site_fract_x
_atom_site_fract_y
_atom_site_fract_z
_atom_type_partial_charge
Co0 Co 0.20512 0.47282 0.10639 0.0
Co1 Co 0.24842 0.49073 0.02791 0.0
C2 C 0.26127 0.56158 0.08855 0.0
O3 O 0.23726 0.53559 0.11044 0.0
O4 O 0.2686 0.54928 0.0555 0.0
C5 C 0.14562 0.49862 0.1658 0.0
O6 O 0.14033 0.5386 0.1472 0.0
C7 C 0.2779 0.53909 0.95943 0.0
C8 C 0.28396 0.47818 0.92095 0.0
C9 C 0.29005 0.52735 0.92383 0.0
N10 N 0.26518 0.49857 0.97713 0.0
N11 N 0.2686 0.46234 0.95382 0.0
C12 C 0.27987 0.58783 0.97666 0.0
H13 H 0.3113 0.5896 0.9953 0.0
H14 H 0.24693 0.59383 0.99315 0.0
H15 H 0.28332 0.61655 0.95575 0.0
C16 C 0.11577 0.46362 0.06361 0.0
N17 N 0.16359 0.47035 0.06582 0.0
N18 N 0.18072 0.48003 0.03304 0.0
C19 C 0.14374 0.48114 0.00912 0.0
C20 C 0.10164 0.47086 0.02791 0.0
C21 C 0.08382 0.45115 0.09514 0.0
H22 H 0.10288 0.42702 0.11439 0.0
H23 H 0.07359 0.48459 0.10968 0.0
H24 H 0.05041 0.43327 0.08558 0.0
O25 O 0.25559 0.42386 0.10345 0.0
O26 O 0.28718 0.43541 0.04816 0.0
H27 H 0.16773 0.46435 0.95521 0.0
H28 H 0.11271 0.4987 0.95654 0.0
C29 C 0.14841 0.49369 0.96952 0.0
H30 H 0.16994 0.52708 0.9666 0.0
H31 H 0.26125 0.4266 0.96054 0.0
O32 O 0.17058 0.46447 0.15286 0.0
C33 C 0.28602 0.41348 0.07881 0.0
Co34 Co 0.49829 0.20571 0.35657 0.0
Co35 Co 0.48044 0.24878 0.27803 0.0
C36 C 0.40956 0.26153 0.3386 0.0
O37 O 0.43553 0.23765 0.36054 0.0
O38 O 0.42188 0.26883 0.30555 0.0
C39 C 0.47251 0.14614 0.416 0.0
O40 O 0.43259 0.14063 0.39736 0.0
C41 C 0.43219 0.278 0.20947 0.0
C42 C 0.49311 0.28408 0.17103 0.0
C43 C 0.44396 0.29008 0.17387 0.0
N44 N 0.47265 0.26541 0.22722 0.0
N45 N 0.50889 0.26882 0.20393 0.0
C46 C 0.38347 0.27993 0.22667 0.0
H47 H 0.38172 0.3114 0.24528 0.0
H48 H 0.3774 0.24699 0.24317 0.0
H49 H 0.35479 0.28331 0.20573 0.0
C50 C 0.50766 0.11624 0.3139 0.0
N51 N 0.50083 0.16406 0.31605 0.0
N52 N 0.49117 0.18109 0.28325 0.0
C53 C 0.49018 0.14403 0.25936 0.0
C54 C 0.5005 0.102 0.2782 0.0
C55 C 0.52019 0.08441 0.34546 0.0
H56 H 0.54424 0.10364 0.36471 0.0
H57 H 0.48678 0.07401 0.35999 0.0
H58 H 0.53814 0.05105 0.33595 0.0
O59 O 0.54721 0.25635 0.35361 0.0
O60 O 0.5357 0.28779 0.29827 0.0
H61 H 0.50707 0.16792 0.20544 0.0
H62 H 0.47271 0.1128 0.20681 0.0
C63 C 0.47771 0.14857 0.21974 0.0
H64 H 0.44436 0.17003 0.21674 0.0
H65 H 0.54459 0.26157 0.21069 0.0
O66 O 0.50661 0.17126 0.40308 0.0
C67 C 0.5576 0.28677 0.32894 0.0
Co68 Co 0.76612 0.49964 0.60641 0.0
Co69 Co 0.72285 0.48175 0.52791 0.0
C70 C 0.70996 0.41089 0.58852 0.0
O71 O 0.73397 0.43687 0.61042 0.0
O72 O 0.70264 0.4232 0.55547 0.0
C73 C 0.82561 0.47384 0.66582 0.0
O74 O 0.83091 0.43385 0.6472 0.0
C75 C 0.69343 0.4334 0.45939 0.0
C76 C 0.68732 0.49433 0.42096 0.0
C77 C 0.68127 0.44515 0.4238 0.0
N78 N 0.70611 0.47392 0.47712 0.0
N79 N 0.70267 0.51016 0.45383 0.0
C80 C 0.6915 0.38465 0.47659 0.0
H81 H 0.66005 0.38282 0.4952 0.0
H82 H 0.72442 0.37868 0.4931 0.0
H83 H 0.68812 0.35594 0.45565 0.0
C84 C 0.85549 0.50883 0.56365 0.0
N85 N 0.80767 0.5021 0.56585 0.0
N86 N 0.79055 0.49243 0.53306 0.0
C87 C 0.82754 0.49133 0.50914 0.0
C88 C 0.86963 0.5016 0.52794 0.0
C89 C 0.88743 0.5213 0.59519 0.0
H90 H 0.86838 0.54543 0.61445 0.0
H91 H 0.89766 0.48786 0.60971 0.0
H92 H 0.92086 0.53917 0.58564 0.0
O93 O 0.71566 0.5486 0.60348 0.0
O94 O 0.6841 0.53707 0.54817 0.0
H95 H 0.80353 0.50813 0.45524 0.0
H96 H 0.85858 0.47381 0.45655 0.0
C97 C 0.82287 0.47879 0.46954 0.0
H98 H 0.80136 0.44539 0.4666 0.0
H99 H 0.70998 0.5459 0.46058 0.0
O100 O 0.80066 0.50798 0.65289 0.0
C101 C 0.68525 0.559 0.57884 0.0
Co102 Co 0.47302 0.76684 0.85666 0.0
Co103 Co 0.49087 0.72373 0.77812 0.0
C104 C 0.56176 0.71102 0.83868 0.0
O105 O 0.53578 0.7349 0.86062 0.0
O106 O 0.54944 0.70369 0.80563 0.0
C107 C 0.4988 0.82642 0.9161 0.0
O108 O 0.53873 0.83194 0.89747 0.0
C109 C 0.53911 0.69447 0.70955 0.0
C110 C 0.47818 0.68841 0.67111 0.0
C111 C 0.52733 0.68239 0.67394 0.0
N112 N 0.49865 0.70708 0.72731 0.0
N113 N 0.46241 0.70367 0.70402 0.0
C114 C 0.58783 0.69252 0.72674 0.0
H115 H 0.58956 0.66107 0.74536 0.0
H116 H 0.59391 0.72547 0.74325 0.0
H117 H 0.61651 0.68911 0.7058 0.0
C118 C 0.46365 0.85628 0.81399 0.0
N119 N 0.47048 0.80846 0.81614 0.0
N120 N 0.48013 0.79142 0.78334 0.0
C121 C 0.48113 0.82846 0.75945 0.0
C122 C 0.4708 0.8705 0.77829 0.0
C123 C 0.45114 0.88814 0.84556 0.0
H124 H 0.42708 0.86892 0.86481 0.0
H125 H 0.48455 0.89853 0.86009 0.0
H126 H 0.43319 0.9215 0.83604 0.0
O127 O 0.42411 0.71619 0.8537 0.0
O128 O 0.43563 0.68472 0.79836 0.0
H129 H 0.46422 0.80455 0.70552 0.0
H130 H 0.49861 0.85967 0.7069 0.0
C131 C 0.4936 0.8239 0.71983 0.0
H132 H 0.52694 0.80243 0.71683 0.0
H133 H 0.42671 0.71094 0.71078 0.0
O134 O 0.46471 0.80131 0.90317 0.0
C135 C 0.41373 0.68575 0.82903 0.0
Co136 Co 0.2049 0.49952 0.40098 0.0
Co137 Co 0.24799 0.48149 0.47951 0.0
C138 C 0.26061 0.41065 0.41887 0.0
O139 O 0.23676 0.43669 0.39696 0.0
O140 O 0.26794 0.42291 0.45193 0.0
C141 C 0.14539 0.47386 0.3415 0.0
O142 O 0.13988 0.43387 0.36008 0.0
C143 C 0.27725 0.43313 0.54802 0.0
C144 C 0.28328 0.49404 0.58652 0.0
C145 C 0.28932 0.44487 0.58364 0.0
N146 N 0.26463 0.47364 0.5303 0.0
N147 N 0.26802 0.50987 0.55363 0.0
C148 C 0.27921 0.38441 0.53077 0.0
H149 H 0.31063 0.38273 0.51213 0.0
H150 H 0.24627 0.37832 0.51429 0.0
H151 H 0.28266 0.35568 0.55168 0.0
C152 C 0.11552 0.50884 0.44368 0.0
N153 N 0.16331 0.50204 0.44151 0.0
N154 N 0.18035 0.49231 0.4743 0.0
C155 C 0.14331 0.49122 0.49819 0.0
C156 C 0.1013 0.50157 0.47936 0.0
C157 C 0.08368 0.52137 0.41212 0.0
H158 H 0.10286 0.54548 0.39289 0.0
H159 H 0.07332 0.48795 0.39756 0.0
H160 H 0.05032 0.53929 0.42166 0.0
O161 O 0.25559 0.54839 0.40398 0.0
O162 O 0.28704 0.53675 0.4593 0.0
H163 H 0.16719 0.50792 0.55216 0.0
H164 H 0.11211 0.47352 0.55069 0.0
C165 C 0.14786 0.47858 0.53777 0.0
H166 H 0.16932 0.44521 0.54069 0.0
H167 H 0.26074 0.54559 0.54691 0.0
O168 O 0.17048 0.50795 0.35448 0.0
C169 C 0.28603 0.5587 0.42865 0.0
Co170 Co 0.47182 0.20573 0.65109 0.0
Co171 Co 0.48984 0.24911 0.72955 0.0
C172 C 0.56061 0.26183 0.66889 0.0
O173 O 0.53459 0.23781 0.64702 0.0
O174 O 0.54836 0.26922 0.70194 0.0
C175 C 0.49746 0.14615 0.59166 0.0
O176 O 0.53746 0.14083 0.61022 0.0
C177 C 0.53828 0.27847 0.79804 0.0
C178 C 0.47742 0.28477 0.8365 0.0
C179 C 0.52659 0.29067 0.83364 0.0
N180 N 0.49773 0.26591 0.78032 0.0
N181 N 0.46153 0.26946 0.80363 0.0
C182 C 0.58699 0.28023 0.78082 0.0
H183 H 0.58892 0.3117 0.76222 0.0
H184 H 0.59284 0.24728 0.7643 0.0
H185 H 0.61571 0.28351 0.80175 0.0
C186 C 0.46268 0.11636 0.69391 0.0
N187 N 0.46937 0.16421 0.69168 0.0
N188 N 0.4791 0.18138 0.72444 0.0
C189 C 0.48028 0.14439 0.74838 0.0
C190 C 0.47001 0.10225 0.72961 0.0
C191 C 0.45022 0.08435 0.6624 0.0
H192 H 0.42608 0.10337 0.64314 0.0
H193 H 0.48365 0.07412 0.64786 0.0
H194 H 0.4324 0.0509 0.67198 0.0
O195 O 0.42295 0.25628 0.65403 0.0
O196 O 0.43457 0.28794 0.70931 0.0
H197 H 0.46373 0.16855 0.80229 0.0
H198 H 0.49791 0.1134 0.80096 0.0
C199 C 0.49296 0.14911 0.78795 0.0
H200 H 0.52639 0.17057 0.7908 0.0
H201 H 0.42579 0.26225 0.7969 0.0
O202 O 0.46337 0.17114 0.60464 0.0
C203 C 0.41262 0.28677 0.67866 0.0
Co204 Co 0.76634 0.47301 0.90098 0.0
Co205 Co 0.72327 0.49101 0.97951 0.0
C206 C 0.71066 0.56189 0.91892 0.0
O207 O 0.7345 0.53584 0.897 0.0
O208 O 0.70334 0.54962 0.95198 0.0
C209 C 0.82586 0.49868 0.84151 0.0
O210 O 0.83139 0.53866 0.86012 0.0
C211 C 0.69394 0.5393 0.04807 0.0
C212 C 0.68812 0.47837 0.08654 0.0
C213 C 0.68194 0.52752 0.08368 0.0
N214 N 0.70664 0.49883 0.03032 0.0
N215 N 0.70337 0.46258 0.05364 0.0
C216 C 0.69183 0.58802 0.03084 0.0
H217 H 0.66044 0.58959 0.01216 0.0
H218 H 0.72478 0.59423 0.0144 0.0
H219 H 0.68824 0.61672 0.05176 0.0
C220 C 0.85573 0.46365 0.94366 0.0
N221 N 0.80794 0.47045 0.94151 0.0
N222 N 0.79092 0.48019 0.9743 0.0
C223 C 0.82796 0.48128 0.99818 0.0
C224 C 0.86997 0.47092 0.97934 0.0
C225 C 0.88756 0.45112 0.9121 0.0
H226 H 0.86836 0.42702 0.89285 0.0
H227 H 0.89793 0.48454 0.89756 0.0
H228 H 0.92092 0.43318 0.92162 0.0
O229 O 0.71565 0.42415 0.90394 0.0
O230 O 0.6842 0.43578 0.95927 0.0
H231 H 0.80418 0.46455 0.05216 0.0
H232 H 0.85918 0.49907 0.05067 0.0
C233 C 0.82343 0.49392 0.03777 0.0
H234 H 0.8019 0.52725 0.04071 0.0
H235 H 0.71075 0.42688 0.0469 0.0
O236 O 0.80077 0.46459 0.85447 0.0
C237 C 0.68521 0.41383 0.92861 0.0
Co238 Co 0.49946 0.76661 0.15119 0.0
Co239 Co 0.4814 0.72332 0.22965 0.0
C240 C 0.41063 0.7106 0.16899 0.0
O241 O 0.43667 0.73457 0.14711 0.0
O242 O 0.42287 0.70323 0.20204 0.0
C243 C 0.47385 0.82617 0.09177 0.0
O244 O 0.43386 0.83151 0.11033 0.0
C245 C 0.43296 0.69401 0.29814 0.0
C246 C 0.4938 0.68785 0.33663 0.0
C247 C 0.44464 0.68188 0.33375 0.0
N248 N 0.4735 0.70659 0.28043 0.0
N249 N 0.50969 0.70312 0.30375 0.0
C250 C 0.38426 0.69215 0.2809 0.0
H251 H 0.38241 0.66068 0.26228 0.0
H252 H 0.37836 0.7251 0.2644 0.0
H253 H 0.35553 0.6888 0.30182 0.0
C254 C 0.50866 0.85602 0.19398 0.0
N255 N 0.50195 0.80817 0.19176 0.0
N256 N 0.49218 0.79104 0.22453 0.0
C257 C 0.491 0.82806 0.24845 0.0
C258 C 0.5013 0.87017 0.22967 0.0
C259 C 0.52116 0.88799 0.16246 0.0
H260 H 0.54529 0.86892 0.14321 0.0
H261 H 0.48776 0.89824 0.14792 0.0
H262 H 0.53902 0.92142 0.17204 0.0
O263 O 0.5483 0.71603 0.15414 0.0
O264 O 0.53665 0.68444 0.20942 0.0
H265 H 0.5075 0.80403 0.30239 0.0
H266 H 0.47327 0.85914 0.30099 0.0
C267 C 0.47827 0.82341 0.28801 0.0
H268 H 0.44485 0.80192 0.29085 0.0
H269 H 0.54543 0.71038 0.29703 0.0
O270 O 0.50793 0.80117 0.10473 0.0
C271 C 0.55861 0.68557 0.17878 0.0
C272 C 0.12037 0.48243 0.27262 0.0
C273 C 0.13058 0.47617 0.30417 0.0
C274 C 0.12043 0.49012 0.23466 0.0
C275 C 0.13072 0.49636 0.20311 0.0
C276 C 0.48106 0.12097 0.48485 0.0
C277 C 0.47479 0.13123 0.45331 0.0
C278 C 0.4888 0.12097 0.5228 0.0
C279 C 0.49511 0.13126 0.55434 0.0
C280 C 0.85083 0.48237 0.73467 0.0
C281 C 0.84053 0.47612 0.70313 0.0
C282 C 0.85089 0.49009 0.77263 0.0
C283 C 0.84069 0.49637 0.80418 0.0
C284 C 0.49028 0.8515 0.98498 0.0
C285 C 0.49655 0.84128 0.95343 0.0
C286 C 0.48253 0.85143 0.02293 0.0
C287 C 0.47622 0.84111 0.05446 0.0
C288 C 0.01072 0.47088 0.00722 0.0
C289 C 0.05285 0.47141 0.01482 0.0
C290 C 0.96093 0.47089 0.99994 0.0
C291 C 0.91879 0.47144 0.99237 0.0
C292 C 0.50083 0.011 0.25758 0.0
C293 C 0.50014 0.05316 0.26516 0.0
C294 C 0.501 0.96117 0.25031 0.0
C295 C 0.5006 0.91901 0.24273 0.0
C296 C 0.01034 0.50159 0.49997 0.0
C297 C 0.05248 0.50104 0.49239 0.0
C298 C 0.96055 0.5016 0.50726 0.0
C299 C 0.91842 0.50106 0.51486 0.0
C300 C 0.47031 0.01129 0.75032 0.0
C301 C 0.47071 0.05344 0.74269 0.0
C302 C 0.47048 0.96148 0.75764 0.0
C303 C 0.47116 0.91933 0.76524 0.0
C304 C 0.3377 0.66522 0.13862 0.0
C305 C 0.37044 0.68514 0.15396 0.0
C306 C 0.30684 0.63443 0.1189 0.0
C307 C 0.28684 0.60172 0.10357 0.0
C308 C 0.33668 0.30692 0.36886 0.0
C309 C 0.3694 0.287 0.35356 0.0
C310 C 0.3059 0.33773 0.38854 0.0
C311 C 0.28602 0.37047 0.40386 0.0
C312 C 0.63351 0.30725 0.63852 0.0
C313 C 0.60078 0.28731 0.65386 0.0
C314 C 0.66437 0.33804 0.61883 0.0
C315 C 0.68438 0.37075 0.60351 0.0
C316 C 0.66539 0.63483 0.88863 0.0
C317 C 0.68527 0.60209 0.90395 0.0
C318 C 0.63463 0.66564 0.86895 0.0
C319 C 0.60191 0.68556 0.85364 0.0
C320 C 0.35234 0.35356 0.10251 0.0
C321 C 0.32396 0.38086 0.08864 0.0
C322 C 0.38532 0.32783 0.12454 0.0
C323 C 0.41286 0.3107 0.14649 0.0
C324 C 0.61755 0.3533 0.35256 0.0
C325 C 0.59024 0.32481 0.33872 0.0
C326 C 0.64334 0.38637 0.37455 0.0
C327 C 0.66056 0.41397 0.39646 0.0
C328 C 0.58596 0.64465 0.6246 0.0
C329 C 0.55842 0.66178 0.64655 0.0
C330 C 0.61894 0.61892 0.60255 0.0
C331 C 0.64732 0.59163 0.58867 0.0
C332 C 0.32801 0.58614 0.87461 0.0
C333 C 0.31078 0.55853 0.89651 0.0
C334 C 0.3538 0.61921 0.85264 0.0
C335 C 0.3811 0.6477 0.83881 0.0
C336 C 0.35266 0.6185 0.40502 0.0
C337 C 0.32413 0.59126 0.41886 0.0
C338 C 0.38578 0.64418 0.38302 0.0
C339 C 0.41342 0.66129 0.36109 0.0
C340 C 0.32707 0.38616 0.63293 0.0
C341 C 0.30993 0.41373 0.61099 0.0
C342 C 0.35278 0.35316 0.65495 0.0
C343 C 0.38005 0.32474 0.66882 0.0
C344 C 0.61857 0.35405 0.90494 0.0
C345 C 0.6471 0.38129 0.9188 0.0
C346 C 0.58546 0.32837 0.88292 0.0
C347 C 0.55782 0.31126 0.86098 0.0
C348 C 0.61843 0.61915 0.15507 0.0
C349 C 0.59117 0.64757 0.16895 0.0
C350 C 0.64415 0.58616 0.13303 0.0
C351 C 0.66131 0.55862 0.11107 0.0
loop_
_geom_bond_atom_site_label_1
_geom_bond_atom_site_label_2
_geom_bond_distance
_geom_bond_site_symmetry_2
_ccdc_geom_bond_type
Co0 O3 1.970 . S
Co0 N17 1.989 . S
Co0 O25 1.967 . S
Co0 O32 1.920 . S
Co1 O4 1.966 . S
Co1 N10 2.022 1_554 S
Co1 N18 1.993 . S
Co1 O26 1.941 . S
C2 O3 1.258 . S
C2 O4 1.263 . S
O3 Co0 1.970 . S
O3 C2 1.258 . S
O4 Co1 1.966 . S
O4 C2 1.263 . S
C5 O6 1.235 . S
C5 O32 1.289 . S
O6 C5 1.235 . S
C7 C9 1.400 . S
C7 N10 1.351 . S
C7 C12 1.501 . S
C8 C9 1.387 . S
C8 N11 1.341 . S
C9 C7 1.400 . S
C9 C8 1.387 . S
N10 Co1 2.022 1_556 S
N10 C7 1.351 . S
N10 N11 1.365 . S
N11 C8 1.341 . S
N11 N10 1.365 . S
N11 H31 0.862 . S
C12 C7 1.501 . S
C12 H13 0.952 1_556 S
C12 H14 0.961 . S
C12 H15 0.960 . S
H13 C12 0.952 1_554 S
H14 C12 0.961 . S
H15 C12 0.960 . S
C16 N17 1.342 . S
C16 C20 1.401 . S
C16 C21 1.499 . S
N17 Co0 1.989 . S
N17 C16 1.342 . S
N17 N18 1.388 . S
N18 Co1 1.993 . S
N18 N17 1.388 . S
N18 C19 1.346 . S
C19 N18 1.346 . S
C19 C20 1.396 . S
C19 C29 1.510 1_554 S
C20 C16 1.401 . S
C20 C19 1.396 . S
C21 C16 1.499 . S
C21 H22 0.959 . S
C21 H23 0.960 . S
C21 H24 0.961 . S
H22 C21 0.959 . S
H23 C21 0.960 . S
H24 C21 0.961 . S
O25 Co0 1.967 . S
O25 C33 1.258 . S
O26 Co1 1.941 . S
O26 C33 1.266 . S
H27 C29 0.959 . S
H28 C29 0.961 . S
C29 C19 1.510 1_556 S
C29 H27 0.959 . S
C29 H28 0.961 . S
C29 H30 0.960 . S
H30 C29 0.960 . S
H31 N11 0.862 . S
O32 Co0 1.920 . S
O32 C5 1.289 . S
C33 O25 1.258 . S
C33 O26 1.266 . S
Co34 O37 1.970 . S
Co34 N51 1.989 . S
Co34 O59 1.967 . S
Co34 O66 1.920 . S
Co35 O38 1.966 . S
Co35 N44 2.022 . S
Co35 N52 1.993 . S
Co35 O60 1.941 . S
C36 O37 1.258 . S
C36 O38 1.263 . S
O37 Co34 1.970 . S
O37 C36 1.258 . S
O38 Co35 1.966 . S
O38 C36 1.263 . S
C39 O40 1.235 . S
C39 O66 1.289 . S
O40 C39 1.235 . S
C41 C43 1.400 . S
C41 N44 1.351 . S
C41 C46 1.501 . S
C42 C43 1.387 . S
C42 N45 1.341 . S
C43 C41 1.400 . S
C43 C42 1.387 . S
N44 Co35 2.022 . S
N44 C41 1.351 . S
N44 N45 1.365 . S
N45 C42 1.341 . S
N45 N44 1.365 . S
N45 H65 0.862 . S
C46 C41 1.501 . S
C46 H47 0.961 . S
C46 H48 0.961 . S
C46 H49 0.960 . S
H47 C46 0.961 . S
H48 C46 0.961 . S
H49 C46 0.960 . S
C50 N51 1.342 . S
C50 C54 1.401 . S
C50 C55 1.499 . S
N51 Co34 1.989 . S
N51 C50 1.342 . S
N51 N52 1.388 . S
N52 Co35 1.993 . S
N52 N51 1.388 . S
N52 C53 1.346 . S
C53 N52 1.346 . S
C53 C54 1.396 . S
C53 C63 1.510 . S
C54 C50 1.401 . S
C54 C53 1.396 . S
C55 C50 1.499 . S
C55 H56 0.959 . S
C55 H57 0.960 . S
C55 H58 0.961 . S
H56 C55 0.959 . S
H57 C55 0.960 . S
H58 C55 0.961 . S
O59 Co34 1.967 . S
O59 C67 1.258 . S
O60 Co35 1.941 . S
O60 C67 1.266 . S
H61 C63 0.959 . S
H62 C63 0.961 . S
C63 C53 1.510 . S
C63 H61 0.959 . S
C63 H62 0.961 . S
C63 H64 0.960 . S
H64 C63 0.960 . S
H65 N45 0.862 . S
O66 Co34 1.920 . S
O66 C39 1.289 . S
C67 O59 1.258 . S
C67 O60 1.266 . S
Co68 O71 1.970 . S
Co68 N85 1.989 . S
Co68 O93 1.967 . S
Co68 O100 1.920 . S
Co69 O72 1.966 . S
Co69 N78 2.022 . S
Co69 N86 1.993 . S
Co69 O94 1.941 . S
C70 O71 1.258 . S
C70 O72 1.263 . S
O71 Co68 1.970 . S
O71 C70 1.258 . S
O72 Co69 1.966 . S
O72 C70 1.263 . S
C73 O74 1.235 . S
C73 O100 1.289 . S
O74 C73 1.235 . S
C75 C77 1.400 . S
C75 N78 1.351 . S
C75 C80 1.501 . S
C76 C77 1.387 . S
C76 N79 1.341 . S
C77 C75 1.400 . S
C77 C76 1.387 . S
N78 Co69 2.022 . S
N78 C75 1.351 . S
N78 N79 1.365 . S
N79 C76 1.341 . S
N79 N78 1.365 . S
N79 H99 0.862 . S
C80 C75 1.501 . S
C80 H81 0.961 . S
C80 H82 0.961 . S
C80 H83 0.960 . S
H81 C80 0.961 . S
H82 C80 0.961 . S
H83 C80 0.960 . S
C84 N85 1.342 . S
C84 C88 1.401 . S
C84 C89 1.499 . S
N85 Co68 1.989 . S
N85 C84 1.342 . S
N85 N86 1.388 . S
N86 Co69 1.993 . S
N86 N85 1.388 . S
N86 C87 1.346 . S
C87 N86 1.346 . S
C87 C88 1.396 . S
C87 C97 1.510 . S
C88 C84 1.401 . S
C88 C87 1.396 . S
C89 C84 1.499 . S
C89 H90 0.959 . S
C89 H91 0.960 . S
C89 H92 0.961 . S
H90 C89 0.959 . S
H91 C89 0.960 . S
H92 C89 0.961 . S
O93 Co68 1.967 . S
O93 C101 1.258 . S
O94 Co69 1.941 . S
O94 C101 1.266 . S
H95 C97 0.959 . S
H96 C97 0.961 . S
C97 C87 1.510 . S
C97 H95 0.959 . S
C97 H96 0.961 . S
C97 H98 0.960 . S
H98 C97 0.960 . S
H99 N79 0.862 . S
O100 Co68 1.920 . S
O100 C73 1.289 . S
C101 O93 1.258 . S
C101 O94 1.266 . S
Co102 O105 1.970 . S
Co102 N119 1.989 . S
Co102 O127 1.967 . S
Co102 O134 1.920 . S
Co103 O106 1.966 . S
Co103 N112 2.022 . S
Co103 N120 1.993 . S
Co103 O128 1.941 . S
C104 O105 1.258 . S
C104 O106 1.263 . S
O105 Co102 1.970 . S
O105 C104 1.258 . S
O106 Co103 1.966 . S
O106 C104 1.263 . S
C107 O108 1.235 . S
C107 O134 1.289 . S
O108 C107 1.235 . S
C109 C111 1.400 . S
C109 N112 1.351 . S
C109 C114 1.501 . S
C110 C111 1.387 . S
C110 N113 1.341 . S
C111 C109 1.400 . S
C111 C110 1.387 . S
N112 Co103 2.022 . S
N112 C109 1.351 . S
N112 N113 1.365 . S
N113 C110 1.341 . S
N113 N112 1.365 . S
N113 H133 0.862 . S
C114 C109 1.501 . S
C114 H115 0.961 . S
C114 H116 0.961 . S
C114 H117 0.960 . S
H115 C114 0.961 . S
H116 C114 0.961 . S
H117 C114 0.960 . S
C118 N119 1.342 . S
C118 C122 1.401 . S
C118 C123 1.499 . S
N119 Co102 1.989 . S
N119 C118 1.342 . S
N119 N120 1.388 . S
N120 Co103 1.993 . S
N120 N119 1.388 . S
N120 C121 1.346 . S
C121 N120 1.346 . S
C121 C122 1.396 . S
C121 C131 1.510 . S
C122 C118 1.401 . S
C122 C121 1.396 . S
C123 C118 1.499 . S
C123 H124 0.959 . S
C123 H125 0.960 . S
C123 H126 0.961 . S
H124 C123 0.959 . S
H125 C123 0.960 . S
H126 C123 0.961 . S
O127 Co102 1.967 . S
O127 C135 1.258 . S
O128 Co103 1.941 . S
O128 C135 1.266 . S
H129 C131 0.959 . S
H130 C131 0.961 . S
C131 C121 1.510 . S
C131 H129 0.959 . S
C131 H130 0.961 . S
C131 H132 0.960 . S
H132 C131 0.960 . S
H133 N113 0.862 . S
O134 Co102 1.920 . S
O134 C107 1.289 . S
C135 O127 1.258 . S
C135 O128 1.266 . S
Co136 O139 1.970 . S
Co136 N153 1.989 . S
Co136 O161 1.967 . S
Co136 O168 1.920 . S
Co137 O140 1.966 . S
Co137 N146 2.022 . S
Co137 N154 1.993 . S
Co137 O162 1.941 . S
C138 O139 1.258 . S
C138 O140 1.263 . S
O139 Co136 1.970 . S
O139 C138 1.258 . S
O140 Co137 1.966 . S
O140 C138 1.263 . S
C141 O142 1.235 . S
C141 O168 1.289 . S
O142 C141 1.235 . S
C143 C145 1.400 . S
C143 N146 1.351 . S
C143 C148 1.501 . S
C144 C145 1.387 . S
C144 N147 1.341 . S
C145 C143 1.400 . S
C145 C144 1.387 . S
N146 Co137 2.022 . S
N146 C143 1.351 . S
N146 N147 1.365 . S
N147 C144 1.341 . S
N147 N146 1.365 . S
N147 H167 0.862 . S
C148 C143 1.501 . S
C148 H149 0.961 . S
C148 H150 0.961 . S
C148 H151 0.960 . S
H149 C148 0.961 . S
H150 C148 0.961 . S
H151 C148 0.960 . S
C152 N153 1.342 . S
C152 C156 1.401 . S
C152 C157 1.499 . S
N153 Co136 1.989 . S
N153 C152 1.342 . S
N153 N154 1.388 . S
N154 Co137 1.993 . S
N154 N153 1.388 . S
N154 C155 1.346 . S
C155 N154 1.346 . S
C155 C156 1.396 . S
C155 C165 1.510 . S
C156 C152 1.401 . S
C156 C155 1.396 . S
C157 C152 1.499 . S
C157 H158 0.959 . S
C157 H159 0.960 . S
C157 H160 0.961 . S
H158 C157 0.959 . S
H159 C157 0.960 . S
H160 C157 0.961 . S
O161 Co136 1.967 . S
O161 C169 1.258 . S
O162 Co137 1.941 . S
O162 C169 1.266 . S
H163 C165 0.959 . S
H164 C165 0.961 . S
C165 C155 1.510 . S
C165 H163 0.959 . S
C165 H164 0.961 . S
C165 H166 0.960 . S
H166 C165 0.960 . S
H167 N147 0.862 . S
O168 Co136 1.920 . S
O168 C141 1.289 . S
C169 O161 1.258 . S
C169 O162 1.266 . S
Co170 O173 1.970 . S
Co170 N187 1.989 . S
Co170 O195 1.967 . S
Co170 O202 1.920 . S
Co171 O174 1.966 . S
Co171 N180 2.022 . S
Co171 N188 1.993 . S
Co171 O196 1.941 . S
C172 O173 1.258 . S
C172 O174 1.263 . S
O173 Co170 1.970 . S
O173 C172 1.258 . S
O174 Co171 1.966 . S
O174 C172 1.263 . S
C175 O176 1.235 . S
C175 O202 1.289 . S
O176 C175 1.235 . S
C177 C179 1.400 . S
C177 N180 1.351 . S
C177 C182 1.501 . S
C178 C179 1.387 . S
C178 N181 1.341 . S
C179 C177 1.400 . S
C179 C178 1.387 . S
N180 Co171 2.022 . S
N180 C177 1.351 . S
N180 N181 1.365 . S
N181 C178 1.341 . S
N181 N180 1.365 . S
N181 H201 0.862 . S
C182 C177 1.501 . S
C182 H183 0.961 . S
C182 H184 0.961 . S
C182 H185 0.960 . S
H183 C182 0.961 . S
H184 C182 0.961 . S
H185 C182 0.960 . S
C186 N187 1.342 . S
C186 C190 1.401 . S
C186 C191 1.499 . S
N187 Co170 1.989 . S
N187 C186 1.342 . S
N187 N188 1.388 . S
N188 Co171 1.993 . S
N188 N187 1.388 . S
N188 C189 1.346 . S
C189 N188 1.346 . S
C189 C190 1.396 . S
C189 C199 1.510 . S
C190 C186 1.401 . S
C190 C189 1.396 . S
C191 C186 1.499 . S
C191 H192 0.959 . S
C191 H193 0.960 . S
C191 H194 0.961 . S
H192 C191 0.959 . S
H193 C191 0.960 . S
H194 C191 0.961 . S
O195 Co170 1.967 . S
O195 C203 1.258 . S
O196 Co171 1.941 . S
O196 C203 1.266 . S
H197 C199 0.959 . S
H198 C199 0.961 . S
C199 C189 1.510 . S
C199 H197 0.959 . S
C199 H198 0.961 . S
C199 H200 0.960 . S
H200 C199 0.960 . S
H201 N181 0.862 . S
O202 Co170 1.920 . S
O202 C175 1.289 . S
C203 O195 1.258 . S
C203 O196 1.266 . S
Co204 O207 1.970 . S
Co204 N221 1.989 . S
Co204 O229 1.967 . S
Co204 O236 1.920 . S
Co205 O208 1.966 . S
Co205 N214 2.022 1_556 S
Co205 N222 1.993 . S
Co205 O230 1.941 . S
C206 O207 1.258 . S
C206 O208 1.263 . S
O207 Co204 1.970 . S
O207 C206 1.258 . S
O208 Co205 1.966 . S
O208 C206 1.263 . S
C209 O210 1.235 . S
C209 O236 1.289 . S
O210 C209 1.235 . S
C211 C213 1.400 . S
C211 N214 1.351 . S
C211 C216 1.501 . S
C212 C213 1.387 . S
C212 N215 1.341 . S
C213 C211 1.400 . S
C213 C212 1.387 . S
N214 Co205 2.022 1_554 S
N214 C211 1.351 . S
N214 N215 1.365 . S
N215 C212 1.341 . S
N215 N214 1.365 . S
N215 H235 0.862 . S
C216 C211 1.501 . S
C216 H217 0.952 1_554 S
C216 H218 0.961 . S
C216 H219 0.960 . S
H217 C216 0.952 1_556 S
H218 C216 0.961 . S
H219 C216 0.960 . S
C220 N221 1.342 . S
C220 C224 1.401 . S
C220 C225 1.499 . S
N221 Co204 1.989 . S
N221 C220 1.342 . S
N221 N222 1.388 . S
N222 Co205 1.993 . S
N222 N221 1.388 . S
N222 C223 1.346 . S
C223 N222 1.346 . S
C223 C224 1.396 . S
C223 C233 1.510 1_556 S
C224 C220 1.401 . S
C224 C223 1.396 . S
C225 C220 1.499 . S
C225 H226 0.959 . S
C225 H227 0.960 . S
C225 H228 0.961 . S
H226 C225 0.959 . S
H227 C225 0.960 . S
H228 C225 0.961 . S
O229 Co204 1.967 . S
O229 C237 1.258 . S
O230 Co205 1.941 . S
O230 C237 1.266 . S
H231 C233 0.959 . S
H232 C233 0.961 . S
C233 C223 1.510 1_554 S
C233 H231 0.959 . S
C233 H232 0.961 . S
C233 H234 0.960 . S
H234 C233 0.960 . S
H235 N215 0.862 . S
O236 Co204 1.920 . S
O236 C209 1.289 . S
C237 O229 1.258 . S
C237 O230 1.266 . S
Co238 O241 1.970 . S
Co238 N255 1.989 . S
Co238 O263 1.967 . S
Co238 O270 1.920 . S
Co239 O242 1.966 . S
Co239 N248 2.022 . S
Co239 N256 1.993 . S
Co239 O264 1.941 . S
C240 O241 1.258 . S
C240 O242 1.263 . S
O241 Co238 1.970 . S
O241 C240 1.258 . S
O242 Co239 1.966 . S
O242 C240 1.263 . S
C243 O244 1.235 . S
C243 O270 1.289 . S
O244 C243 1.235 . S
C245 C247 1.400 . S
C245 N248 1.351 . S
C245 C250 1.501 . S
C246 C247 1.387 . S
C246 N249 1.341 . S
C247 C245 1.400 . S
C247 C246 1.387 . S
N248 Co239 2.022 . S
N248 C245 1.351 . S
N248 N249 1.365 . S
N249 C246 1.341 . S
N249 N248 1.365 . S
N249 H269 0.862 . S
C250 C245 1.501 . S
C250 H251 0.961 . S
C250 H252 0.961 . S
C250 H253 0.960 . S
H251 C250 0.961 . S
H252 C250 0.961 . S
H253 C250 0.960 . S
C254 N255 1.342 . S
C254 C258 1.401 . S
C254 C259 1.499 . S
N255 Co238 1.989 . S
N255 C254 1.342 . S
N255 N256 1.388 . S
N256 Co239 1.993 . S
N256 N255 1.388 . S
N256 C257 1.346 . S
C257 N256 1.346 . S
C257 C258 1.396 . S
C257 C267 1.510 . S
C258 C254 1.401 . S
C258 C257 1.396 . S
C259 C254 1.499 . S
C259 H260 0.959 . S
C259 H261 0.960 . S
C259 H262 0.961 . S
H260 C259 0.959 . S
H261 C259 0.960 . S
H262 C259 0.961 . S
O263 Co238 1.967 . S
O263 C271 1.258 . S
O264 Co239 1.941 . S
O264 C271 1.266 . S
H265 C267 0.959 . S
H266 C267 0.961 . S
C267 C257 1.510 . S
C267 H265 0.959 . S
C267 H266 0.961 . S
C267 H268 0.960 . S
H268 C267 0.960 . S
H269 N249 0.862 . S
O270 Co238 1.920 . S
O270 C243 1.289 . S
C271 O263 1.258 . S
C271 O264 1.266 . S
C272 C273 1.170 . S
C272 C274 1.380 . S
C273 C272 1.170 . S
C274 C272 1.380 . S
C274 C275 1.170 . S
C275 C274 1.170 . S
C276 C277 1.170 . S
C276 C278 1.380 . S
C277 C276 1.170 . S
C278 C276 1.380 . S
C278 C279 1.170 . S
C279 C278 1.170 . S
C280 C281 1.170 . S
C280 C282 1.380 . S
C281 C280 1.170 . S
C282 C280 1.380 . S
C282 C283 1.170 . S
C283 C282 1.170 . S
C284 C285 1.170 . S
C284 C286 1.380 1_556 S
C285 C284 1.170 . S
C286 C284 1.380 1_554 S
C286 C287 1.170 . S
C287 C286 1.170 . S
C288 C289 1.171 1_556 S
C288 C290 1.380 1_455 S
C289 C288 1.171 1_554 S
C290 C288 1.380 1_655 S
C290 C291 1.170 . S
C291 C290 1.170 . S
C292 C293 1.170 . S
C292 C294 1.380 1_545 S
C293 C292 1.170 . S
C294 C292 1.380 1_565 S
C294 C295 1.170 . S
C295 C294 1.170 . S
C296 C297 1.170 . S
C296 C298 1.380 1_455 S
C297 C296 1.170 . S
C298 C296 1.380 1_655 S
C298 C299 1.170 . S
C299 C298 1.170 . S
C300 C301 1.170 . S
C300 C302 1.380 1_545 S
C301 C300 1.170 . S
C302 C300 1.380 1_565 S
C302 C303 1.170 . S
C303 C302 1.170 . S
C304 C305 1.170 . S
C304 C306 1.380 . S
C305 C304 1.170 . S
C306 C304 1.380 . S
C306 C307 1.170 . S
C307 C306 1.170 . S
C308 C309 1.170 . S
C308 C310 1.380 . S
C309 C308 1.170 . S
C310 C308 1.380 . S
C310 C311 1.170 . S
C311 C310 1.170 . S
C312 C313 1.170 . S
C312 C314 1.380 . S
C313 C312 1.170 . S
C314 C312 1.380 . S
C314 C315 1.170 . S
C315 C314 1.170 . S
C316 C317 1.170 . S
C316 C318 1.380 . S
C317 C316 1.170 . S
C318 C316 1.380 . S
C318 C319 1.170 . S
C319 C318 1.170 . S
C320 C321 1.170 . S
C320 C322 1.380 . S
C321 C320 1.170 . S
C322 C320 1.380 . S
C322 C323 1.170 . S
C323 C322 1.170 . S
C324 C325 1.170 . S
C324 C326 1.380 . S
C325 C324 1.170 . S
C326 C324 1.380 . S
C326 C327 1.170 . S
C327 C326 1.170 . S
C328 C329 1.170 . S
C328 C330 1.380 . S
C329 C328 1.170 . S
C330 C328 1.380 . S
C330 C331 1.170 . S
C331 C330 1.170 . S
C332 C333 1.170 . S
C332 C334 1.380 . S
C333 C332 1.170 . S
C334 C332 1.380 . S
C334 C335 1.170 . S
C335 C334 1.170 . S
C336 C337 1.170 . S
C336 C338 1.380 . S
C337 C336 1.170 . S
C338 C336 1.380 . S
C338 C339 1.170 . S
C339 C338 1.170 . S
C340 C341 1.170 . S
C340 C342 1.380 . S
C341 C340 1.170 . S
C342 C340 1.380 . S
C342 C343 1.170 . S
C343 C342 1.170 . S
C344 C345 1.170 . S
C344 C346 1.380 . S
C345 C344 1.170 . S
C346 C344 1.380 . S
C346 C347 1.170 . S
C347 C346 1.170 . S
C348 C349 1.170 . S
C348 C350 1.380 . S
C349 C348 1.170 . S
C350 C348 1.380 . S
C350 C351 1.170 . S
C351 C350 1.170 . S
C273 C141 1.354 . S
C275 C5 1.351 . S
C277 C39 1.346 . S
C279 C175 1.349 . S
C281 C73 1.328 . S
C283 C209 1.329 . S
C285 C107 1.338 . S
C287 C243 1.342 . S
C289 C20 1.245 . S
C291 C224 1.215 . S
C293 C54 1.221 . S
C295 C258 1.233 . S
C297 C156 1.238 . S
C299 C88 1.235 . S
C301 C190 1.241 . S
C303 C122 1.216 . S
C305 C240 1.125 . S
C307 C2 1.138 . S
C309 C36 1.143 . S
C311 C138 1.115 . S
C313 C172 1.128 . S
C315 C70 1.135 . S
C317 C206 1.121 . S
C319 C104 1.131 . S
C321 C33 1.494 . S
C323 C43 1.476 . S
C325 C67 1.475 . S
C327 C77 1.458 . S
C329 C111 1.491 . S
C331 C101 1.499 . S
C333 C9 1.460 . S
C335 C135 1.478 . S
C337 C169 1.500 . S
C339 C247 1.489 . S
C341 C145 1.487 . S
C343 C203 1.499 . S
C345 C237 1.474 . S
C347 C179 1.458 . S
C349 C271 1.471 . S
C351 C213 1.458 . S
