# Generated by pormake.
# Topology vmv, (8)-cn, num edge types: 1
# Building blocks:
#     Node 0, Type 0, BuildingBlock: TAGTUT_clean_sbu_1, # of connection points: 8
#     Node 1, Type 0, BuildingBlock: TAGTUT_clean_sbu_1, # of connection points: 8
#     Node 2, Type 0, BuildingBlock: TAGTUT_clean_sbu_1, # of connection points: 8
#     Node 3, Type 0, BuildingBlock: TAGTUT_clean_sbu_1, # of connection points: 8
#     Edge 4, Type (0, 0), BuildingBlock: FUNLAD_clean_linker_0, # of connection points: 2
#     Edge 5, Type (0, 0), BuildingBlock: FUNLAD_clean_linker_0, # of connection points: 2
#     Edge 6, Type (0, 0), BuildingBlock: FUNLAD_clean_linker_0, # of connection points: 2
#     Edge 7, Type (0, 0), BuildingBlock: FUNLAD_clean_linker_0, # of connection points: 2
#     Edge 8, Type (0, 0), BuildingBlock: FUNLAD_clean_linker_0, # of connection points: 2
#     Edge 9, Type (0, 0), BuildingBlock: FUNLAD_clean_linker_0, # of connection points: 2
#     Edge 10, Type (0, 0), BuildingBlock: FUNLAD_clean_linker_0, # of connection points: 2
#     Edge 11, Type (0, 0), BuildingBlock: FUNLAD_clean_linker_0, # of connection points: 2
#     Edge 12, Type (0, 0), BuildingBlock: FUNLAD_clean_linker_0, # of connection points: 2
#     Edge 13, Type (0, 0), BuildingBlock: FUNLAD_clean_linker_0, # of connection points: 2
#     Edge 14, Type (0, 0), BuildingBlock: FUNLAD_clean_linker_0, # of connection points: 2
#     Edge 15, Type (0, 0), BuildingBlock: FUNLAD_clean_linker_0, # of connection points: 2
#     Edge 16, Type (0, 0), BuildingBlock: FUNLAD_clean_linker_0, # of connection points: 2
#     Edge 17, Type (0, 0), BuildingBlock: FUNLAD_clean_linker_0, # of connection points: 2
#     Edge 18, Type (0, 0), BuildingBlock: FUNLAD_clean_linker_0, # of connection points: 2
#     Edge 19, Type (0, 0), BuildingBlock: FUNLAD_clean_linker_0, # of connection points: 2
# Relax obj value: 0.283
# Max RMSD: 0.288
# Mean RMSD: 0.281
data_MOF--net-vmv--node1-TAGTUT_clean_sbu_1--edge1-FUNLAD_clean_linker_0
_symmetry_space_group_name_H-M    P1
_symmetry_Int_Tables_number       1
_symmetry_cell_setting            triclinic
loop_
_symmetry_equiv_pos_as_xyz
'x, y, z'
_cell_length_a     18.52592
_cell_length_b     35.394067
_cell_length_c     36.249722
_cell_angle_alpha  90.779875
_cell_angle_beta   104.60706
_cell_angle_gamma 89.457729
loop_
_atom_site_label
_atom_site_type_symbol
_atom_site_fract_x
_atom_site_fract_y
_atom_site_fract_z
_atom_type_partial_charge
C0 C 0.33119 0.20366 0.75436 0.0
C1 C 0.51322 0.28286 0.78256 0.0
C2 C 0.31975 0.39216 0.77857 0.0
Mg3 Mg 0.40197 0.25958 0.70774 0.0
O4 O 0.3277 0.28969 0.72125 0.0
Mg5 Mg 0.33077 0.29677 0.77639 0.0
Mg6 Mg 0.32525 0.34332 0.70736 0.0
O7 O 0.32014 0.39761 0.69227 0.0
Mg8 Mg 0.24982 0.43108 0.70634 0.0
Mg9 Mg 0.31596 0.38997 0.63704 0.0
C10 C 0.32955 0.29942 0.62734 0.0
C11 C 0.48058 0.3614 0.68397 0.0
O12 O 0.31689 0.23086 0.77556 0.0
O13 O 0.3623 0.20892 0.72701 0.0
O14 O 0.45525 0.29002 0.79419 0.0
O15 O 0.50911 0.27224 0.7482 0.0
O16 O 0.3701 0.27252 0.64575 0.0
O17 O 0.303 0.32592 0.64474 0.0
C18 C 0.16744 0.3248 0.72902 0.0
O19 O 0.19855 0.34172 0.70604 0.0
O20 O 0.20616 0.30616 0.75717 0.0
O21 O 0.33432 0.45366 0.63946 0.0
O22 O 0.30607 0.48051 0.69127 0.0
O23 O 0.19036 0.40149 0.61761 0.0
C24 C 0.33172 0.48211 0.66146 0.0
O25 O 0.14634 0.42642 0.66426 0.0
O26 O 0.25411 0.39964 0.75885 0.0
C27 C 0.13681 0.41542 0.62979 0.0
O28 O 0.3513 0.36174 0.77068 0.0
O29 O 0.45123 0.34484 0.70788 0.0
O30 O 0.44042 0.37958 0.6559 0.0
C31 C 0.05753 0.73026 0.69628 0.0
C32 C 0.27224 0.70539 0.77991 0.0
C33 C 0.13024 0.74513 0.88871 0.0
Mg34 Mg 0.1915 0.77675 0.74329 0.0
O35 O 0.12964 0.77515 0.77761 0.0
Mg36 Mg 0.10166 0.7256 0.79414 0.0
Mg37 Mg 0.16291 0.80009 0.82776 0.0
O38 O 0.19646 0.8277 0.87807 0.0
Mg39 Mg 0.13749 0.8278 0.91365 0.0
Mg40 Mg 0.21785 0.87803 0.85795 0.0
C41 C 0.1977 0.86333 0.76996 0.0
C42 C 0.34031 0.81728 0.84295 0.0
O43 O 0.04745 0.71624 0.72737 0.0
O44 O 0.1098 0.75365 0.69614 0.0
O45 O 0.21326 0.69912 0.79092 0.0
O46 O 0.2797 0.73507 0.76162 0.0
O47 O 0.21306 0.83817 0.74702 0.0
O48 O 0.16903 0.85488 0.79745 0.0
C49 C 0.9831 0.7862 0.81117 0.0
O50 O 0.03643 0.80934 0.82454 0.0
O51 O 0.99522 0.75354 0.79869 0.0
O52 O 0.26818 0.89283 0.91993 0.0
O53 O 0.22809 0.85316 0.95887 0.0
O54 O 0.10969 0.90734 0.86422 0.0
C55 C 0.2694 0.8805 0.95311 0.0
O56 O 0.05592 0.87105 0.89904 0.0
O57 O 0.088 0.77299 0.89177 0.0
C58 C 0.05855 0.9016 0.88141 0.0
O59 O 0.15856 0.74337 0.85957 0.0
O60 O 0.28931 0.79256 0.83057 0.0
O61 O 0.32519 0.85009 0.85409 0.0
C62 C 0.62667 0.58576 0.4334 0.0
C63 C 0.82722 0.63632 0.41848 0.0
C64 C 0.6507 0.75478 0.37871 0.0
Mg65 Mg 0.69614 0.59574 0.36462 0.0
O66 O 0.64091 0.64017 0.35981 0.0
Mg67 Mg 0.65476 0.6732 0.40683 0.0
Mg68 Mg 0.64946 0.68084 0.32328 0.0
O69 O 0.65441 0.72316 0.28933 0.0
Mg70 Mg 0.58345 0.76256 0.28929 0.0
Mg71 Mg 0.65373 0.69521 0.24125 0.0
C72 C 0.64602 0.60278 0.27255 0.0
C73 C 0.81044 0.67477 0.30091 0.0
O74 O 0.62791 0.62172 0.43694 0.0
O75 O 0.64845 0.56816 0.40688 0.0
O76 O 0.78013 0.65874 0.42791 0.0
O77 O 0.80732 0.61226 0.39139 0.0
O78 O 0.66921 0.58404 0.30354 0.0
O79 O 0.62914 0.6385 0.27243 0.0
C80 C 0.49331 0.69105 0.34909 0.0
O81 O 0.52304 0.69011 0.32056 0.0
O82 O 0.53216 0.6861 0.38328 0.0
O83 O 0.67927 0.75741 0.22044 0.0
O84 O 0.63175 0.79894 0.2564 0.0
O85 O 0.5308 0.70604 0.2168 0.0
C86 C 0.66638 0.79158 0.23076 0.0
O87 O 0.47657 0.7461 0.24964 0.0
O88 O 0.61067 0.77552 0.3522 0.0
C89 C 0.47318 0.72354 0.22125 0.0
O90 O 0.67393 0.72213 0.37182 0.0
O91 O 0.77674 0.67179 0.32769 0.0
O92 O 0.77542 0.68363 0.26705 0.0
C93 C 0.76755 0.09534 0.05477 0.0
C94 C 0.98724 0.09048 0.12537 0.0
C95 C 0.83915 0.12628 0.23348 0.0
Mg96 Mg 0.88828 0.15665 0.08696 0.0
O97 O 0.83246 0.15584 0.124 0.0
Mg98 Mg 0.82505 0.10599 0.14917 0.0
Mg99 Mg 0.86127 0.18819 0.17181 0.0
O100 O 0.88869 0.21766 0.21937 0.0
Mg101 Mg 0.82577 0.21519 0.25336 0.0
Mg102 Mg 0.90909 0.26716 0.19909 0.0
C103 C 0.8786 0.23951 0.10628 0.0
C104 C 0.037 0.21104 0.18386 0.0
O105 O 0.77511 0.08458 0.08911 0.0
O106 O 0.8004 0.12464 0.04599 0.0
O107 O 0.93931 0.08267 0.14401 0.0
O108 O 0.97936 0.11905 0.10385 0.0
O109 O 0.92664 0.21353 0.10701 0.0
O110 O 0.8519 0.24407 0.13566 0.0
C111 C 0.69047 0.16039 0.16231 0.0
O112 O 0.73492 0.1887 0.17019 0.0
O113 O 0.71288 0.12798 0.15365 0.0
O114 O 0.96226 0.28142 0.26461 0.0
O115 O 0.90899 0.24165 0.29812 0.0
O116 O 0.79891 0.29215 0.20345 0.0
C117 C 0.95653 0.26737 0.29651 0.0
O118 O 0.73545 0.25814 0.23565 0.0
O119 O 0.81374 0.15152 0.2532 0.0
C120 C 0.74173 0.28742 0.2162 0.0
O121 O 0.86949 0.1352 0.2068 0.0
O122 O 0.98884 0.18462 0.17431 0.0
O123 O 0.01831 0.24347 0.19398 0.0
C124 C 0.90634 0.63841 0.48487 0.0
C125 C 0.89925 0.62926 0.44621 0.0
C126 C 0.94925 0.61535 0.51319 0.0
C127 C 0.98523 0.58338 0.5029 0.0
C128 C 0.99035 0.57908 0.46509 0.0
C129 C 0.94821 0.60231 0.43686 0.0
C130 C 0.00632 0.55226 0.53027 0.0
C131 C 0.98939 0.51611 0.51945 0.0
C132 C 0.00658 0.48456 0.54653 0.0
C133 C 1.00136 0.48884 0.58431 0.0
C134 C 0.03325 0.46189 0.61136 0.0
C135 C 0.07253 0.43092 0.60106 0.0
H136 H 0.03569 0.44607 0.50562 0.0
C137 C 0.06663 0.42372 0.56213 0.0
C138 C 0.03362 0.45046 0.53499 0.0
H139 H 0.09483 0.39967 0.55312 0.0
H140 H 0.87095 0.65975 0.49314 0.0
H141 H 0.94686 0.61988 0.54249 0.0
H142 H 0.02114 0.55564 0.45683 0.0
H143 H 0.94615 0.59562 0.40735 0.0
H144 H 0.02971 0.55945 0.56011 0.0
H145 H 0.96558 0.50914 0.48958 0.0
H146 H 0.97696 0.51409 0.59348 0.0
H147 H 0.03482 0.46785 0.64094 0.0
C148 C 0.63629 0.08273 0.02348 0.0
C149 C 0.71166 0.07424 0.02633 0.0
C150 C 0.58191 0.05479 0.0126 0.0
C151 C 0.60217 0.01782 1.00437 0.0
C152 C 0.67629 0.01053 1.00326 0.0
C153 C 0.73086 0.03838 0.01469 0.0
C154 C 0.54831 0.98604 0.99843 0.0
C155 C 0.49298 0.98394 0.01653 0.0
C156 C 0.43805 0.95258 0.0099 0.0
C157 C 0.36427 0.96031 0.01138 0.0
C158 C 0.30819 0.93355 0.99816 0.0
C159 C 0.32547 0.89838 0.98412 0.0
H160 H 0.51323 0.90838 0.99986 0.0
C161 C 0.4005 0.88902 0.98706 0.0
C162 C 0.45644 0.91585 0.99986 0.0
H163 H 0.41496 0.86237 0.9756 0.0
H164 H 0.62045 0.10991 0.03326 0.0
H165 H 0.52479 0.06178 0.01236 0.0
H166 H 0.69313 0.98243 0.99643 0.0
H167 H 0.7889 0.03083 0.01779 0.0
H168 H 0.55658 0.96311 0.97968 0.0
H169 H 0.48486 0.00691 0.03527 0.0
H170 H 0.34882 0.98818 0.01962 0.0
H171 H 0.25052 0.94181 0.99517 0.0
C172 C 0.52181 0.57615 0.46211 0.0
C173 C 0.59398 0.56568 0.46023 0.0
C174 C 0.49615 0.56727 0.49385 0.0
C175 C 0.54285 0.54824 0.52471 0.0
C176 C 0.61297 0.53515 0.52148 0.0
C177 C 0.63874 0.54407 0.48948 0.0
C178 C 0.51927 0.5415 0.56025 0.0
C179 C 0.47106 0.5644 0.57244 0.0
C180 C 0.43862 0.5537 0.60412 0.0
C181 C 0.36164 0.55859 0.59978 0.0
C182 C 0.32578 0.53953 0.62358 0.0
C183 C 0.36702 0.51622 0.65239 0.0
H184 H 0.54069 0.53126 0.64073 0.0
C185 C 0.44514 0.51592 0.66016 0.0
C186 C 0.48087 0.53446 0.63607 0.0
H187 H 0.4778 0.49756 0.68187 0.0
H188 H 0.48665 0.59308 0.43983 0.0
H189 H 0.44038 0.57617 0.49439 0.0
H190 H 0.64935 0.51973 0.54458 0.0
H191 H 0.69517 0.5364 0.48883 0.0
H192 H 0.54153 0.51652 0.57644 0.0
H193 H 0.44838 0.58934 0.55637 0.0
H194 H 0.32817 0.57376 0.57558 0.0
H195 H 0.26535 0.53946 0.61662 0.0
C196 C 0.0866 0.06929 0.09524 0.0
C197 C 0.03606 0.06013 0.11689 0.0
C198 C 0.09687 0.04457 0.06667 0.0
C199 C 0.0589 0.01 0.06062 0.0
C200 C 0.02242 0.99765 0.08773 0.0
C201 C 0.01125 0.02261 0.11601 0.0
C202 C 0.04786 0.98893 0.02414 0.0
C203 C 0.03531 0.00671 0.99037 0.0
C204 C 0.01894 0.98551 0.95384 0.0
C205 C 0.05461 0.99557 0.92563 0.0
C206 C 0.05585 0.97032 0.89579 0.0
C207 C 0.02173 0.93474 0.89428 0.0
H208 H 0.94182 0.94618 0.96844 0.0
C209 C 0.97352 0.92853 0.918 0.0
C210 C 0.97325 0.95345 0.9481 0.0
H211 H 0.94433 0.90196 0.91675 0.0
H212 H 0.10886 0.09761 0.09629 0.0
H213 H 0.12896 0.05388 0.04734 0.0
H214 H 0.99498 0.97046 0.08437 0.0
H215 H 0.97373 0.01425 0.13298 0.0
H216 H 0.04277 0.95839 0.02478 0.0
H217 H 0.04025 0.03722 0.98943 0.0
H218 H 0.08794 0.02096 0.92883 0.0
H219 H 0.092 0.97657 0.8774 0.0
C220 C 0.59129 0.31471 0.83954 0.0
C221 C 0.58465 0.28609 0.8116 0.0
C222 C 0.64416 0.31186 0.87436 0.0
C223 C 0.69162 0.28027 0.88193 0.0
C224 C 0.69076 0.25386 0.85241 0.0
C225 C 0.63723 0.25661 0.81741 0.0
C226 C 0.73921 0.27308 0.92079 0.0
C227 C 0.71726 0.28193 0.95284 0.0
C228 C 0.75903 0.27109 0.99219 0.0
C229 C 0.73795 0.28667 0.02401 0.0
C230 C 0.77537 0.27643 0.06136 0.0
C231 C 0.83459 0.2503 0.06752 0.0
H232 H 0.83471 0.23056 0.97561 0.0
C233 C 0.85478 0.23463 0.03553 0.0
C234 C 0.81742 0.24451 0.99865 0.0
H235 H 0.89999 0.21434 0.03869 0.0
H236 H 0.55181 0.33803 0.83548 0.0
H237 H 0.64557 0.33358 0.89585 0.0
H238 H 0.72792 0.2296 0.85737 0.0
H239 H 0.63293 0.2341 0.79644 0.0
H240 H 0.79065 0.25772 0.9223 0.0
H241 H 0.66467 0.29681 0.95021 0.0
H242 H 0.69256 0.30696 0.01999 0.0
H243 H 0.7585 0.28915 0.08525 0.0
C244 C 0.74757 0.77883 0.43322 0.0
C245 C 0.67354 0.76704 0.41896 0.0
C246 C 0.78323 0.77533 0.47195 0.0
C247 C 0.74564 0.7597 0.49733 0.0
C248 C 0.6695 0.7512 0.48371 0.0
C249 C 0.63397 0.75436 0.44474 0.0
C250 C 0.78586 0.75079 0.53749 0.0
C251 C 0.85667 0.73734 0.54637 0.0
C252 C 0.90392 0.72979 0.58567 0.0
C253 C 0.9806 0.72352 0.58989 0.0
C254 C 0.0297 0.7207 0.62599 0.0
C255 C 1.00346 0.72324 0.65905 0.0
H256 H 0.81806 0.73407 0.61695 0.0
C257 C 0.92618 0.72667 0.65509 0.0
C258 C 0.87675 0.73011 0.61874 0.0
H259 H 0.90448 0.72922 0.68012 0.0
H260 H 0.77995 0.78776 0.41385 0.0
H261 H 0.84124 0.78338 0.48165 0.0
H262 H 0.63889 0.73958 0.5027 0.0
H263 H 0.5775 0.7441 0.43437 0.0
H264 H 0.75567 0.75432 0.55934 0.0
H265 H 0.88334 0.73265 0.52318 0.0
H266 H 1.00345 0.72261 0.56515 0.0
H267 H 0.08896 0.71824 0.62812 0.0
C268 C 0.13333 0.72692 0.95488 0.0
C269 C 0.1718 0.73003 0.92615 0.0
C270 C 0.17149 0.72066 0.99272 0.0
C271 C 0.24949 0.71714 1.00298 0.0
C272 C 0.28781 0.71761 0.97396 0.0
C273 C 0.24942 0.72426 0.93583 0.0
C274 C 0.29153 0.71264 0.04363 0.0
C275 C 0.26878 0.7281 0.07324 0.0
C276 C 0.31215 0.72438 0.11372 0.0
C277 C 0.31309 0.75429 0.13987 0.0
C278 C 0.36027 0.75291 0.17691 0.0
C279 C 0.40643 0.72128 0.18847 0.0
H280 H 0.35161 0.66734 0.1077 0.0
C281 C 0.39954 0.68996 0.16342 0.0
C282 C 0.35336 0.69153 0.12651 0.0
H283 H 0.43367 0.66492 0.17156 0.0
H284 H 0.07336 0.73085 0.94825 0.0
H285 H 0.13966 0.71897 0.01391 0.0
H286 H 0.34792 0.71434 0.98101 0.0
H287 H 0.28076 0.72671 0.91448 0.0
H288 H 0.34489 0.69797 0.0491 0.0
H289 H 0.2196 0.74617 0.06762 0.0
H290 H 0.2806 0.77968 0.13094 0.0
H291 H 0.36461 0.77759 0.19531 0.0
C292 C 0.01504 0.25678 0.36573 0.0
C293 C 0.00953 0.27879 0.33304 0.0
C294 C 0.06599 0.26574 0.40008 0.0
C295 C 0.11305 0.29711 0.40298 0.0
C296 C 0.10676 0.31974 0.3707 0.0
C297 C 0.05614 0.31043 0.33589 0.0
C298 C 0.16548 0.30753 0.44009 0.0
C299 C 0.19883 0.28122 0.46556 0.0
C300 C 0.24189 0.28958 0.50545 0.0
C301 C 0.28851 0.26129 0.52583 0.0
C302 C 0.32087 0.26544 0.56497 0.0
C303 C 0.30662 0.2979 0.58488 0.0
H304 H 0.19437 0.34519 0.51057 0.0
C305 C 0.2629 0.32701 0.56408 0.0
C306 C 0.2309 0.32296 0.52489 0.0
H307 H 0.25051 0.35239 0.57827 0.0
H308 H 0.98026 0.2322 0.36487 0.0
H309 H 0.06729 0.24834 0.42459 0.0
H310 H 0.14161 0.34442 0.3723 0.0
H311 H 0.05329 0.32806 0.31137 0.0
H312 H 0.1763 0.33732 0.44636 0.0
H313 H 0.19287 0.2516 0.45713 0.0
H314 H 0.29783 0.23519 0.51169 0.0
H315 H 0.35406 0.24237 0.57988 0.0
C316 C 0.03869 0.3477 0.69456 0.0
C317 C 0.08533 0.3269 0.72408 0.0
C318 C 0.96151 0.34971 0.69101 0.0
C319 C 0.92938 0.33095 0.71705 0.0
C320 C 0.97611 0.30979 0.74607 0.0
C321 C 0.0528 0.30787 0.74963 0.0
C322 C 0.84784 0.33166 0.71497 0.0
C323 C 0.79913 0.35713 0.69523 0.0
C324 C 0.71788 0.35722 0.69353 0.0
C325 C 0.66851 0.37352 0.66189 0.0
C326 C 0.59194 0.37459 0.65895 0.0
C327 C 0.56241 0.35974 0.68787 0.0
H328 H 0.72517 0.33109 0.74838 0.0
C329 C 0.61188 0.34405 0.72001 0.0
C330 C 0.68881 0.34272 0.72284 0.0
H331 H 0.59146 0.33332 0.74321 0.0
H332 H 0.06165 0.36235 0.67416 0.0
H333 H 0.92769 0.36552 0.66752 0.0
H334 H 0.95329 0.29481 0.76638 0.0
H335 H 0.0866 0.29137 0.7727 0.0
H336 H 0.82753 0.31023 0.73093 0.0
H337 H 0.81836 0.37842 0.67876 0.0
H338 H 0.68917 0.38522 0.63907 0.0
H339 H 0.55588 0.38713 0.63378 0.0
C340 C 0.44106 0.78809 0.81646 0.0
C341 C 0.41943 0.80901 0.84505 0.0
C342 C 0.51651 0.78577 0.81618 0.0
C343 C 0.57135 0.80413 0.84476 0.0
C344 C 0.54976 0.82299 0.87449 0.0
C345 C 0.47463 0.82578 0.87444 0.0
C346 C 0.65137 0.80442 0.84453 0.0
C347 C 0.67433 0.80413 0.81216 0.0
C348 C 0.75415 0.80352 0.81152 0.0
C349 C 0.77345 0.78548 0.7807 0.0
C350 C 0.848 0.78142 0.78011 0.0
C351 C 0.90504 0.79606 0.80995 0.0
H352 H 0.79784 0.83513 0.86421 0.0
C353 C 0.88599 0.81634 0.8397 0.0
C354 C 0.81097 0.81989 0.84063 0.0
H355 H 0.929 0.8279 0.863 0.0
H356 H 0.39967 0.77502 0.79348 0.0
H357 H 0.53157 0.76987 0.79349 0.0
H358 H 0.59088 0.83684 0.89713 0.0
H359 H 0.45951 0.84182 0.89708 0.0
H360 H 0.69211 0.80622 0.8719 0.0
H361 H 0.63327 0.80249 0.78487 0.0
H362 H 0.73086 0.77316 0.75766 0.0
H363 H 0.86118 0.76597 0.7566 0.0
C364 C 0.94136 0.67883 0.34297 0.0
C365 C 0.89195 0.66872 0.30811 0.0
C366 C 0.01871 0.67836 0.34666 0.0
C367 C 0.04762 0.66727 0.31564 0.0
C368 C 0.9981 0.65486 0.28184 0.0
C369 C 0.92132 0.65592 0.27796 0.0
C370 C 0.12854 0.66829 0.31694 0.0
C371 C 0.17634 0.69328 0.33823 0.0
C372 C 0.25682 0.69496 0.33856 0.0
C373 C 0.30737 0.70827 0.37163 0.0
C374 C 0.38379 0.7084 0.3742 0.0
C375 C 0.4117 0.69581 0.34346 0.0
H376 H 0.24663 0.67486 0.28048 0.0
C377 C 0.361 0.68458 0.30941 0.0
C378 C 0.28417 0.68399 0.307 0.0
H379 H 0.38079 0.6749 0.2852 0.0
H380 H 0.92022 0.68859 0.36673 0.0
H381 H 0.05546 0.6869 0.37363 0.0
H382 H 0.01872 0.64558 0.25774 0.0
H383 H 0.88466 0.64745 0.25088 0.0
H384 H 0.14831 0.64881 0.29819 0.0
H385 H 0.15663 0.71273 0.35703 0.0
H386 H 0.28793 0.7175 0.3961 0.0
H387 H 0.4213 0.71766 0.40073 0.0
C388 C 0.14203 0.17133 0.17041 0.0
C389 C 0.11511 0.20597 0.18115 0.0
C390 C 0.21547 0.1683 0.16661 0.0
C391 C 0.26301 0.19994 0.17346 0.0
C392 C 0.23575 0.23431 0.18408 0.0
C393 C 0.16324 0.23726 0.18814 0.0
C394 C 0.34048 0.19917 0.16888 0.0
C395 C 0.3834 0.16792 0.17283 0.0
C396 C 0.46189 0.16777 0.16954 0.0
C397 C 0.49248 0.13348 0.16085 0.0
C398 C 0.56608 0.1315 0.15808 0.0
C399 C 0.61166 0.16378 0.16429 0.0
H400 H 0.48685 0.22702 0.18396 0.0
C401 C 0.58147 0.19822 0.17327 0.0
C402 C 0.50735 0.20021 0.17598 0.0
H403 H 0.61512 0.22349 0.17853 0.0
H404 H 0.10636 0.14681 0.16459 0.0
H405 H 0.23392 0.14148 0.15744 0.0
H406 H 0.27085 0.25913 0.18939 0.0
H407 H 0.14479 0.26454 0.19633 0.0
H408 H 0.36335 0.22595 0.16316 0.0
H409 H 0.36037 0.14111 0.17839 0.0
H410 H 0.45921 0.10802 0.15606 0.0
H411 H 0.5873 0.10431 0.15134 0.0
C412 C 0.30642 0.13724 0.73176 0.0
C413 C 0.31073 0.1645 0.76078 0.0
C414 C 0.28976 0.09985 0.73731 0.0
C415 C 0.27825 0.08848 0.77238 0.0
C416 C 0.28047 0.11587 0.80111 0.0
C417 C 0.29655 0.15361 0.79539 0.0
C418 C 0.26096 0.04866 0.77913 0.0
C419 C 0.2799 0.01925 0.7593 0.0
C420 C 0.25878 0.97939 0.76322 0.0
C421 C 0.29319 0.95063 0.74645 0.0
C422 C 0.27315 0.91284 0.74817 0.0
C423 C 0.21839 0.90309 0.76687 0.0
H424 H 0.17291 0.99056 0.79354 0.0
C425 C 0.18348 0.93182 0.78333 0.0
C426 C 0.20301 0.96952 0.78138 0.0
H427 H 0.13995 0.92524 0.79726 0.0
H428 H 0.31537 0.1448 0.7044 0.0
H429 H 0.28496 0.08023 0.7137 0.0
H430 H 0.27053 0.10799 0.82817 0.0
H431 H 0.29911 0.17403 0.8182 0.0
H432 H 0.23344 0.04378 0.8017 0.0
H433 H 0.31358 0.02426 0.73934 0.0
H434 H 0.33576 0.9574 0.73191 0.0
H435 H 0.30109 0.8913 0.73526 0.0
C436 C 0.41947 0.4353 0.76807 0.0
C437 C 0.36647 0.42614 0.78825 0.0
C438 C 0.44524 0.4725 0.76862 0.0
C439 C 0.42035 0.50064 0.79028 0.0
C440 C 0.37261 0.49036 0.81312 0.0
C441 C 0.34565 0.45361 0.81185 0.0
C442 C 0.4326 0.54121 0.78375 0.0
C443 C 0.4347 0.56761 0.81114 0.0
C444 C 0.41149 0.60783 0.80367 0.0
C445 C 0.39172 0.62814 0.83326 0.0
C446 C 0.35147 0.66185 0.82593 0.0
C447 C 0.33167 0.67657 0.78903 0.0
H448 H 0.41348 0.61043 0.74388 0.0
C449 C 0.35827 0.65879 0.76018 0.0
C450 C 0.39774 0.62449 0.76735 0.0
H451 H 0.34345 0.66972 0.73146 0.0
H452 H 0.43623 0.41467 0.74948 0.0
H453 H 0.48146 0.47972 0.75057 0.0
H454 H 0.35062 0.51133 0.82946 0.0
H455 H 0.30418 0.4473 0.82725 0.0
H456 H 0.42934 0.54926 0.75462 0.0
H457 H 0.44172 0.55796 0.8402 0.0
H458 H 0.40204 0.61641 0.86159 0.0
H459 H 0.33177 0.67524 0.84867 0.0
C460 C 0.76505 0.83907 0.23295 0.0
C461 C 0.69386 0.82527 0.21505 0.0
C462 C 0.78156 0.87761 0.23135 0.0
C463 C 0.72681 0.90333 0.21177 0.0
C464 C 0.65767 0.88865 0.19141 0.0
C465 C 0.64124 0.85025 0.19323 0.0
C466 C 0.73632 0.94556 0.21399 0.0
C467 C 0.79982 0.96366 0.23169 0.0
C468 C 0.80747 1.00575 0.23399 0.0
C469 C 0.87736 0.0213 0.2351 0.0
C470 C 0.88748 0.06041 0.23653 0.0
C471 C 0.82857 0.08523 0.23802 0.0
H472 H 0.69409 0.0195 0.23627 0.0
C473 C 0.75903 0.06994 0.23843 0.0
C474 C 0.74837 0.0305 0.23619 0.0
H475 H 0.71232 0.08843 0.23889 0.0
H476 H 0.80579 0.82076 0.2511 0.0
H477 H 0.83573 0.88702 0.2475 0.0
H478 H 0.61428 0.90736 0.17586 0.0
H479 H 0.58509 0.84069 0.18019 0.0
H480 H 0.68807 0.96259 0.20041 0.0
H481 H 0.85009 0.94748 0.24343 0.0
H482 H 0.92406 1.00311 0.23379 0.0
H483 H 0.94151 0.07138 0.23579 0.0
C484 C 0.68209 0.34362 0.17981 0.0
C485 C 0.68895 0.32002 0.21154 0.0
C486 C 0.65316 0.38031 0.17961 0.0
C487 C 0.63042 0.39458 0.21129 0.0
C488 C 0.63056 0.36979 0.24146 0.0
C489 C 0.6598 0.33289 0.24169 0.0
C490 C 0.61003 0.4354 0.21457 0.0
C491 C 0.63862 0.46379 0.19792 0.0
C492 C 0.63019 0.50472 0.20704 0.0
C493 C 0.69008 0.52937 0.20856 0.0
C494 C 0.69037 0.56584 0.22433 0.0
C495 C 0.6299 0.57875 0.23797 0.0
H496 H 0.51822 0.50139 0.21487 0.0
C497 C 0.56608 0.55589 0.23176 0.0
C498 C 0.56634 0.51913 0.21677 0.0
H499 H 0.51933 0.56466 0.24284 0.0
H500 H 0.70343 0.33446 0.15592 0.0
H501 H 0.65111 0.39778 0.1551 0.0
H502 H 0.61228 0.37973 0.26604 0.0
H503 H 0.66488 0.31567 0.2667 0.0
H504 H 0.57721 0.4425 0.23468 0.0
H505 H 0.67747 0.45695 0.18082 0.0
H506 H 0.73967 0.51927 0.20075 0.0
H507 H 0.74116 0.58223 0.22975 0.0
loop_
_geom_bond_atom_site_label_1
_geom_bond_atom_site_label_2
_geom_bond_distance
_geom_bond_site_symmetry_2
_ccdc_geom_bond_type
C0 O12 1.241 . S
C0 O13 1.280 . S
C1 O14 1.277 . S
C1 O15 1.245 . S
C2 O26 1.247 . S
C2 O28 1.289 . S
Mg3 O4 1.926 . S
Mg3 O13 1.984 . S
Mg3 O15 1.988 . S
Mg3 O16 2.061 . S
O4 Mg3 1.926 . S
O4 Mg5 1.986 . S
O4 Mg6 1.917 . S
Mg5 O4 1.986 . S
Mg5 O12 2.042 . S
Mg5 O14 2.041 . S
Mg5 O20 2.038 . S
Mg5 O28 2.238 . S
Mg6 O4 1.917 . S
Mg6 O7 1.917 . S
Mg6 O17 2.106 . S
Mg6 O19 2.079 . S
Mg6 O28 2.106 . S
Mg6 O29 2.079 . S
O7 Mg6 1.917 . S
O7 Mg8 1.926 . S
O7 Mg9 1.986 . S
Mg8 O7 1.926 . S
Mg8 O22 1.984 . S
Mg8 O25 1.988 . S
Mg8 O26 2.061 . S
Mg9 O7 1.986 . S
Mg9 O17 2.238 . S
Mg9 O21 2.042 . S
Mg9 O23 2.041 . S
Mg9 O30 2.038 . S
C10 O16 1.247 . S
C10 O17 1.289 . S
C11 O29 1.245 . S
C11 O30 1.274 . S
O12 C0 1.241 . S
O12 Mg5 2.042 . S
O13 C0 1.280 . S
O13 Mg3 1.984 . S
O14 C1 1.277 . S
O14 Mg5 2.041 . S
O15 C1 1.245 . S
O15 Mg3 1.988 . S
O16 Mg3 2.061 . S
O16 C10 1.247 . S
O17 Mg6 2.106 . S
O17 Mg9 2.238 . S
O17 C10 1.289 . S
C18 O19 1.245 . S
C18 O20 1.274 . S
O19 Mg6 2.079 . S
O19 C18 1.245 . S
O20 Mg5 2.038 . S
O20 C18 1.274 . S
O21 Mg9 2.042 . S
O21 C24 1.241 . S
O22 Mg8 1.984 . S
O22 C24 1.280 . S
O23 Mg9 2.041 . S
O23 C27 1.277 . S
C24 O21 1.241 . S
C24 O22 1.280 . S
O25 Mg8 1.988 . S
O25 C27 1.245 . S
O26 C2 1.247 . S
O26 Mg8 2.061 . S
C27 O23 1.277 . S
C27 O25 1.245 . S
O28 C2 1.289 . S
O28 Mg5 2.238 . S
O28 Mg6 2.106 . S
O29 Mg6 2.079 . S
O29 C11 1.245 . S
O30 Mg9 2.038 . S
O30 C11 1.274 . S
C31 O43 1.241 . S
C31 O44 1.280 . S
C32 O45 1.277 . S
C32 O46 1.245 . S
C33 O57 1.247 . S
C33 O59 1.289 . S
Mg34 O35 1.926 . S
Mg34 O44 1.984 . S
Mg34 O46 1.988 . S
Mg34 O47 2.061 . S
O35 Mg34 1.926 . S
O35 Mg36 1.986 . S
O35 Mg37 1.917 . S
Mg36 O35 1.986 . S
Mg36 O43 2.042 . S
Mg36 O45 2.041 . S
Mg36 O51 2.038 . S
Mg36 O59 2.238 . S
Mg37 O35 1.917 . S
Mg37 O38 1.917 . S
Mg37 O48 2.106 . S
Mg37 O50 2.079 . S
Mg37 O59 2.106 . S
Mg37 O60 2.079 . S
O38 Mg37 1.917 . S
O38 Mg39 1.926 . S
O38 Mg40 1.986 . S
Mg39 O38 1.926 . S
Mg39 O53 1.984 . S
Mg39 O56 1.988 . S
Mg39 O57 2.061 . S
Mg40 O38 1.986 . S
Mg40 O48 2.238 . S
Mg40 O52 2.042 . S
Mg40 O54 2.041 . S
Mg40 O61 2.038 . S
C41 O47 1.247 . S
C41 O48 1.289 . S
C42 O60 1.245 . S
C42 O61 1.274 . S
O43 C31 1.241 . S
O43 Mg36 2.042 . S
O44 C31 1.280 . S
O44 Mg34 1.984 . S
O45 C32 1.277 . S
O45 Mg36 2.041 . S
O46 C32 1.245 . S
O46 Mg34 1.988 . S
O47 Mg34 2.061 . S
O47 C41 1.247 . S
O48 Mg37 2.106 . S
O48 Mg40 2.238 . S
O48 C41 1.289 . S
C49 O50 1.245 . S
C49 O51 1.274 . S
O50 Mg37 2.079 . S
O50 C49 1.245 . S
O51 Mg36 2.038 . S
O51 C49 1.274 . S
O52 Mg40 2.042 . S
O52 C55 1.241 . S
O53 Mg39 1.984 . S
O53 C55 1.280 . S
O54 Mg40 2.041 . S
O54 C58 1.277 . S
C55 O52 1.241 . S
C55 O53 1.280 . S
O56 Mg39 1.988 . S
O56 C58 1.245 . S
O57 C33 1.247 . S
O57 Mg39 2.061 . S
C58 O54 1.277 . S
C58 O56 1.245 . S
O59 C33 1.289 . S
O59 Mg36 2.238 . S
O59 Mg37 2.106 . S
O60 Mg37 2.079 . S
O60 C42 1.245 . S
O61 Mg40 2.038 . S
O61 C42 1.274 . S
C62 O74 1.241 . S
C62 O75 1.280 . S
C63 O76 1.277 . S
C63 O77 1.245 . S
C64 O88 1.247 . S
C64 O90 1.289 . S
Mg65 O66 1.926 . S
Mg65 O75 1.984 . S
Mg65 O77 1.988 . S
Mg65 O78 2.061 . S
O66 Mg65 1.926 . S
O66 Mg67 1.986 . S
O66 Mg68 1.917 . S
Mg67 O66 1.986 . S
Mg67 O74 2.042 . S
Mg67 O76 2.041 . S
Mg67 O82 2.038 . S
Mg67 O90 2.238 . S
Mg68 O66 1.917 . S
Mg68 O69 1.917 . S
Mg68 O79 2.106 . S
Mg68 O81 2.079 . S
Mg68 O90 2.106 . S
Mg68 O91 2.079 . S
O69 Mg68 1.917 . S
O69 Mg70 1.926 . S
O69 Mg71 1.986 . S
Mg70 O69 1.926 . S
Mg70 O84 1.984 . S
Mg70 O87 1.988 . S
Mg70 O88 2.061 . S
Mg71 O69 1.986 . S
Mg71 O79 2.238 . S
Mg71 O83 2.042 . S
Mg71 O85 2.041 . S
Mg71 O92 2.038 . S
C72 O78 1.247 . S
C72 O79 1.289 . S
C73 O91 1.245 . S
C73 O92 1.274 . S
O74 C62 1.241 . S
O74 Mg67 2.042 . S
O75 C62 1.280 . S
O75 Mg65 1.984 . S
O76 C63 1.277 . S
O76 Mg67 2.041 . S
O77 C63 1.245 . S
O77 Mg65 1.988 . S
O78 Mg65 2.061 . S
O78 C72 1.247 . S
O79 Mg68 2.106 . S
O79 Mg71 2.238 . S
O79 C72 1.289 . S
C80 O81 1.245 . S
C80 O82 1.274 . S
O81 Mg68 2.079 . S
O81 C80 1.245 . S
O82 Mg67 2.038 . S
O82 C80 1.274 . S
O83 Mg71 2.042 . S
O83 C86 1.241 . S
O84 Mg70 1.984 . S
O84 C86 1.280 . S
O85 Mg71 2.041 . S
O85 C89 1.277 . S
C86 O83 1.241 . S
C86 O84 1.280 . S
O87 Mg70 1.988 . S
O87 C89 1.245 . S
O88 C64 1.247 . S
O88 Mg70 2.061 . S
C89 O85 1.277 . S
C89 O87 1.245 . S
O90 C64 1.289 . S
O90 Mg67 2.238 . S
O90 Mg68 2.106 . S
O91 Mg68 2.079 . S
O91 C73 1.245 . S
O92 Mg71 2.038 . S
O92 C73 1.274 . S
C93 O105 1.241 . S
C93 O106 1.280 . S
C94 O107 1.277 . S
C94 O108 1.245 . S
C95 O119 1.247 . S
C95 O121 1.289 . S
Mg96 O97 1.926 . S
Mg96 O106 1.984 . S
Mg96 O108 1.988 . S
Mg96 O109 2.061 . S
O97 Mg96 1.926 . S
O97 Mg98 1.986 . S
O97 Mg99 1.917 . S
Mg98 O97 1.986 . S
Mg98 O105 2.042 . S
Mg98 O107 2.041 . S
Mg98 O113 2.038 . S
Mg98 O121 2.238 . S
Mg99 O97 1.917 . S
Mg99 O100 1.917 . S
Mg99 O110 2.106 . S
Mg99 O112 2.079 . S
Mg99 O121 2.106 . S
Mg99 O122 2.079 . S
O100 Mg99 1.917 . S
O100 Mg101 1.926 . S
O100 Mg102 1.986 . S
Mg101 O100 1.926 . S
Mg101 O115 1.984 . S
Mg101 O118 1.988 . S
Mg101 O119 2.061 . S
Mg102 O100 1.986 . S
Mg102 O110 2.238 . S
Mg102 O114 2.042 . S
Mg102 O116 2.041 . S
Mg102 O123 2.038 . S
C103 O109 1.247 . S
C103 O110 1.289 . S
C104 O122 1.245 . S
C104 O123 1.274 . S
O105 C93 1.241 . S
O105 Mg98 2.042 . S
O106 C93 1.280 . S
O106 Mg96 1.984 . S
O107 C94 1.277 . S
O107 Mg98 2.041 . S
O108 C94 1.245 . S
O108 Mg96 1.988 . S
O109 Mg96 2.061 . S
O109 C103 1.247 . S
O110 Mg99 2.106 . S
O110 Mg102 2.238 . S
O110 C103 1.289 . S
C111 O112 1.245 . S
C111 O113 1.274 . S
O112 Mg99 2.079 . S
O112 C111 1.245 . S
O113 Mg98 2.038 . S
O113 C111 1.274 . S
O114 Mg102 2.042 . S
O114 C117 1.241 . S
O115 Mg101 1.984 . S
O115 C117 1.280 . S
O116 Mg102 2.041 . S
O116 C120 1.277 . S
C117 O114 1.241 . S
C117 O115 1.280 . S
O118 Mg101 1.988 . S
O118 C120 1.245 . S
O119 C95 1.247 . S
O119 Mg101 2.061 . S
C120 O116 1.277 . S
C120 O118 1.245 . S
O121 C95 1.289 . S
O121 Mg98 2.238 . S
O121 Mg99 2.106 . S
O122 Mg99 2.079 . S
O122 C104 1.245 . S
O123 Mg102 2.038 . S
O123 C104 1.274 . S
C124 C125 1.386 . S
C124 C126 1.383 . S
C124 H140 0.951 . S
C125 C124 1.386 . S
C125 C129 1.383 . S
C126 C124 1.383 . S
C126 C127 1.402 . S
C126 H141 0.951 . S
C127 C126 1.402 . S
C127 C128 1.375 . S
C127 C130 1.481 1_655 S
C128 C127 1.375 . S
C128 C129 1.367 . S
C128 H142 0.951 1_655 S
C129 C125 1.383 . S
C129 C128 1.367 . S
C129 H143 0.950 . S
C130 C127 1.481 1_455 S
C130 C131 1.297 . S
C130 H144 0.950 . S
C131 C130 1.297 . S
C131 C132 1.479 . S
C131 H145 0.950 1_455 S
C132 C131 1.479 . S
C132 C133 1.375 . S
C132 C138 1.404 . S
C133 C132 1.375 . S
C133 C134 1.369 . S
C133 H146 0.950 . S
C134 C133 1.369 . S
C134 C135 1.392 . S
C134 H147 0.951 . S
C135 C134 1.392 . S
C135 C137 1.384 . S
H136 C138 0.949 . S
C137 C135 1.384 . S
C137 C138 1.385 . S
C137 H139 0.950 . S
C138 C132 1.404 . S
C138 H136 0.949 . S
C138 C137 1.385 . S
H139 C137 0.950 . S
H140 C124 0.951 . S
H141 C126 0.951 . S
H142 C128 0.951 1_455 S
H143 C129 0.950 . S
H144 C130 0.950 . S
H145 C131 0.950 1_655 S
H146 C133 0.950 . S
H147 C134 0.951 . S
C148 C149 1.386 . S
C148 C150 1.383 . S
C148 H164 0.951 . S
C149 C148 1.386 . S
C149 C153 1.383 . S
C150 C148 1.383 . S
C150 C151 1.402 1_554 S
C150 H165 0.951 . S
C151 C150 1.402 1_556 S
C151 C152 1.375 . S
C151 C154 1.481 . S
C152 C151 1.375 . S
C152 C153 1.367 1_556 S
C152 H166 0.951 . S
C153 C149 1.383 . S
C153 C152 1.367 1_554 S
C153 H167 0.941 1_554 S
C154 C151 1.481 . S
C154 C155 1.296 . S
C154 H168 0.950 1_545 S
C155 C154 1.296 . S
C155 C156 1.482 1_545 S
C155 H169 0.948 . S
C156 C155 1.482 1_565 S
C156 C157 1.375 . S
C156 C162 1.404 . S
C157 C156 1.375 . S
C157 C158 1.369 . S
C157 H170 0.950 1_556 S
C158 C157 1.369 . S
C158 C159 1.392 . S
C158 H171 0.951 . S
C159 C158 1.392 . S
C159 C161 1.384 . S
H160 C162 0.949 . S
C161 C159 1.384 . S
C161 C162 1.385 . S
C161 H163 0.950 . S
C162 C156 1.404 . S
C162 H160 0.949 . S
C162 C161 1.385 . S
H163 C161 0.950 . S
H164 C148 0.951 . S
H165 C150 0.951 . S
H166 C152 0.951 . S
H167 C153 0.941 1_556 S
H168 C154 0.950 1_565 S
H169 C155 0.948 . S
H170 C157 0.950 1_554 S
H171 C158 0.951 . S
C172 C173 1.386 . S
C172 C174 1.383 . S
C172 H188 0.951 . S
C173 C172 1.386 . S
C173 C177 1.383 . S
C174 C172 1.383 . S
C174 C175 1.402 . S
C174 H189 0.951 . S
C175 C174 1.402 . S
C175 C176 1.375 . S
C175 C178 1.481 . S
C176 C175 1.375 . S
C176 C177 1.367 . S
C176 H190 0.951 . S
C177 C173 1.383 . S
C177 C176 1.367 . S
C177 H191 0.950 . S
C178 C175 1.481 . S
C178 C179 1.297 . S
C178 H192 0.950 . S
C179 C178 1.297 . S
C179 C180 1.479 . S
C179 H193 0.950 . S
C180 C179 1.479 . S
C180 C181 1.375 . S
C180 C186 1.404 . S
C181 C180 1.375 . S
C181 C182 1.369 . S
C181 H194 0.950 . S
C182 C181 1.369 . S
C182 C183 1.392 . S
C182 H195 0.951 . S
C183 C182 1.392 . S
C183 C185 1.384 . S
H184 C186 0.949 . S
C185 C183 1.384 . S
C185 C186 1.385 . S
C185 H187 0.950 . S
C186 C180 1.404 . S
C186 H184 0.949 . S
C186 C185 1.385 . S
H187 C185 0.950 . S
H188 C172 0.951 . S
H189 C174 0.951 . S
H190 C176 0.951 . S
H191 C177 0.950 . S
H192 C178 0.950 . S
H193 C179 0.950 . S
H194 C181 0.950 . S
H195 C182 0.951 . S
C196 C197 1.386 . S
C196 C198 1.383 . S
C196 H212 0.951 . S
C197 C196 1.386 . S
C197 C201 1.383 . S
C198 C196 1.383 . S
C198 C199 1.402 . S
C198 H213 0.951 1_655 S
C199 C198 1.402 . S
C199 C200 1.375 1_545 S
C199 C202 1.481 1_545 S
C200 C199 1.375 1_565 S
C200 C201 1.367 1_565 S
C200 H214 0.951 . S
C201 C197 1.383 . S
C201 C200 1.367 1_545 S
C201 H215 0.950 1_545 S
C202 C199 1.481 1_565 S
C202 C203 1.297 1_655 S
C202 H216 0.950 . S
C203 C202 1.297 1_455 S
C203 C204 1.479 1_554 S
C203 H217 0.950 1_565 S
C204 C203 1.479 1_556 S
C204 C205 1.375 1_565 S
C204 C210 1.404 . S
C205 C204 1.375 1_545 S
C205 C206 1.369 1_545 S
C205 H218 0.950 . S
C206 C205 1.369 1_565 S
C206 C207 1.392 . S
C206 H219 0.951 1_565 S
C207 C206 1.392 . S
C207 C209 1.384 . S
H208 C210 0.949 . S
C209 C207 1.384 . S
C209 C210 1.385 . S
C209 H211 0.950 . S
C210 C204 1.404 . S
C210 H208 0.949 . S
C210 C209 1.385 . S
H211 C209 0.950 . S
H212 C196 0.951 . S
H213 C198 0.951 1_455 S
H214 C200 0.951 . S
H215 C201 0.950 1_565 S
H216 C202 0.950 . S
H217 C203 0.950 1_545 S
H218 C205 0.950 . S
H219 C206 0.951 1_545 S
C220 C221 1.386 . S
C220 C222 1.383 . S
C220 H236 0.951 . S
C221 C220 1.386 . S
C221 C225 1.383 . S
C222 C220 1.383 . S
C222 C223 1.402 . S
C222 H237 0.951 . S
C223 C222 1.402 . S
C223 C224 1.375 . S
C223 C226 1.481 . S
C224 C223 1.375 . S
C224 C225 1.367 . S
C224 H238 0.951 . S
C225 C221 1.383 . S
C225 C224 1.367 . S
C225 H239 0.950 . S
C226 C223 1.481 . S
C226 C227 1.297 . S
C226 H240 0.950 . S
C227 C226 1.297 . S
C227 C228 1.479 . S
C227 H241 0.950 . S
C228 C227 1.479 . S
C228 C229 1.375 1_556 S
C228 C234 1.404 . S
C229 C228 1.375 1_554 S
C229 C230 1.369 . S
C229 H242 0.950 1_554 S
C230 C229 1.369 . S
C230 C231 1.392 . S
C230 H243 0.951 . S
C231 C230 1.392 . S
C231 C233 1.384 . S
H232 C234 0.949 . S
C233 C231 1.384 . S
C233 C234 1.385 1_554 S
C233 H235 0.950 . S
C234 C228 1.404 . S
C234 H232 0.949 . S
C234 C233 1.385 1_556 S
H235 C233 0.950 . S
H236 C220 0.951 . S
H237 C222 0.951 . S
H238 C224 0.951 . S
H239 C225 0.950 . S
H240 C226 0.950 . S
H241 C227 0.950 . S
H242 C229 0.950 1_556 S
H243 C230 0.951 . S
C244 C245 1.386 . S
C244 C246 1.383 . S
C244 H260 0.951 . S
C245 C244 1.386 . S
C245 C249 1.383 . S
C246 C244 1.383 . S
C246 C247 1.402 . S
C246 H261 0.951 . S
C247 C246 1.402 . S
C247 C248 1.375 . S
C247 C250 1.481 . S
C248 C247 1.375 . S
C248 C249 1.367 . S
C248 H262 0.951 . S
C249 C245 1.383 . S
C249 C248 1.367 . S
C249 H263 0.950 . S
C250 C247 1.481 . S
C250 C251 1.297 . S
C250 H264 0.950 . S
C251 C250 1.297 . S
C251 C252 1.479 . S
C251 H265 0.950 . S
C252 C251 1.479 . S
C252 C253 1.375 . S
C252 C258 1.404 . S
C253 C252 1.375 . S
C253 C254 1.369 . S
C253 H266 0.950 . S
C254 C253 1.369 . S
C254 C255 1.392 . S
C254 H267 0.951 . S
C255 C254 1.392 . S
C255 C257 1.384 . S
H256 C258 0.949 . S
C257 C255 1.384 . S
C257 C258 1.385 . S
C257 H259 0.950 . S
C258 C252 1.404 . S
C258 H256 0.949 . S
C258 C257 1.385 . S
H259 C257 0.950 . S
H260 C244 0.951 . S
H261 C246 0.951 . S
H262 C248 0.951 . S
H263 C249 0.950 . S
H264 C250 0.950 . S
H265 C251 0.950 . S
H266 C253 0.950 . S
H267 C254 0.951 . S
C268 C269 1.386 . S
C268 C270 1.383 1_556 S
C268 H284 0.951 . S
C269 C268 1.386 . S
C269 C273 1.383 . S
C270 C268 1.383 1_554 S
C270 C271 1.402 . S
C270 H285 0.951 . S
C271 C270 1.402 . S
C271 C272 1.375 1_554 S
C271 C274 1.481 . S
C272 C271 1.375 1_556 S
C272 C273 1.367 . S
C272 H286 0.951 1_556 S
C273 C269 1.383 . S
C273 C272 1.367 . S
C273 H287 0.950 . S
C274 C271 1.481 . S
C274 C275 1.297 . S
C274 H288 0.950 . S
C275 C274 1.297 . S
C275 C276 1.479 . S
C275 H289 0.950 . S
C276 C275 1.479 . S
C276 C277 1.375 . S
C276 C282 1.404 . S
C277 C276 1.375 . S
C277 C278 1.369 . S
C277 H290 0.950 . S
C278 C277 1.369 . S
C278 C279 1.392 . S
C278 H291 0.951 . S
C279 C278 1.392 . S
C279 C281 1.384 . S
H280 C282 0.949 . S
C281 C279 1.384 . S
C281 C282 1.385 . S
C281 H283 0.950 . S
C282 C276 1.404 . S
C282 H280 0.949 . S
C282 C281 1.385 . S
H283 C281 0.950 . S
H284 C268 0.951 . S
H285 C270 0.951 . S
H286 C272 0.951 1_554 S
H287 C273 0.950 . S
H288 C274 0.950 . S
H289 C275 0.950 . S
H290 C277 0.950 . S
H291 C278 0.951 . S
C292 C293 1.386 . S
C292 C294 1.383 . S
C292 H308 0.951 . S
C293 C292 1.386 . S
C293 C297 1.383 1_455 S
C294 C292 1.383 . S
C294 C295 1.402 . S
C294 H309 0.951 . S
C295 C294 1.402 . S
C295 C296 1.380 . S
C295 C298 1.481 . S
C296 C295 1.380 . S
C296 C297 1.366 1_455 S
C296 H310 0.947 1_455 S
C297 C293 1.383 1_655 S
C297 C296 1.366 1_655 S
C297 H311 0.950 . S
C298 C295 1.481 . S
C298 C299 1.297 . S
C298 H312 0.950 . S
C299 C298 1.297 . S
C299 C300 1.479 . S
C299 H313 0.950 . S
C300 C299 1.479 . S
C300 C301 1.375 . S
C300 C306 1.404 . S
C301 C300 1.375 . S
C301 C302 1.369 . S
C301 H314 0.950 . S
C302 C301 1.369 . S
C302 C303 1.392 . S
C302 H315 0.951 . S
C303 C302 1.392 . S
C303 C305 1.384 . S
H304 C306 0.949 . S
C305 C303 1.384 . S
C305 C306 1.385 . S
C305 H307 0.950 . S
C306 C300 1.404 . S
C306 H304 0.949 . S
C306 C305 1.385 . S
H307 C305 0.950 . S
H308 C292 0.951 . S
H309 C294 0.951 . S
H310 C296 0.947 1_655 S
H311 C297 0.950 . S
H312 C298 0.950 . S
H313 C299 0.950 . S
H314 C301 0.950 . S
H315 C302 0.951 . S
C316 C317 1.386 1_655 S
C316 C318 1.383 . S
C316 H332 0.951 . S
C317 C316 1.386 1_455 S
C317 C321 1.383 . S
C318 C316 1.383 . S
C318 C319 1.402 . S
C318 H333 0.951 . S
C319 C318 1.402 . S
C319 C320 1.375 . S
C319 C322 1.481 . S
C320 C319 1.375 . S
C320 C321 1.367 1_655 S
C320 H334 0.951 . S
C321 C317 1.383 . S
C321 C320 1.367 1_455 S
C321 H335 0.950 . S
C322 C319 1.481 . S
C322 C323 1.297 . S
C322 H336 0.950 . S
C323 C322 1.297 . S
C323 C324 1.479 . S
C323 H337 0.950 . S
C324 C323 1.479 . S
C324 C325 1.375 . S
C324 C330 1.404 . S
C325 C324 1.375 . S
C325 C326 1.369 . S
C325 H338 0.950 . S
C326 C325 1.369 . S
C326 C327 1.392 . S
C326 H339 0.951 . S
C327 C326 1.392 . S
C327 C329 1.384 . S
H328 C330 0.949 . S
C329 C327 1.384 . S
C329 C330 1.385 . S
C329 H331 0.950 . S
C330 C324 1.404 . S
C330 H328 0.949 . S
C330 C329 1.385 . S
H331 C329 0.950 . S
H332 C316 0.951 . S
H333 C318 0.951 . S
H334 C320 0.951 . S
H335 C321 0.950 . S
H336 C322 0.950 . S
H337 C323 0.950 . S
H338 C325 0.950 . S
H339 C326 0.951 . S
C340 C341 1.386 . S
C340 C342 1.383 . S
C340 H356 0.951 . S
C341 C340 1.386 . S
C341 C345 1.383 . S
C342 C340 1.383 . S
C342 C343 1.402 . S
C342 H357 0.951 . S
C343 C342 1.402 . S
C343 C344 1.375 . S
C343 C346 1.481 . S
C344 C343 1.375 . S
C344 C345 1.367 . S
C344 H358 0.951 . S
C345 C341 1.383 . S
C345 C344 1.367 . S
C345 H359 0.950 . S
C346 C343 1.481 . S
C346 C347 1.297 . S
C346 H360 0.950 . S
C347 C346 1.297 . S
C347 C348 1.479 . S
C347 H361 0.950 . S
C348 C347 1.479 . S
C348 C349 1.375 . S
C348 C354 1.404 . S
C349 C348 1.375 . S
C349 C350 1.369 . S
C349 H362 0.950 . S
C350 C349 1.369 . S
C350 C351 1.392 . S
C350 H363 0.951 . S
C351 C350 1.392 . S
C351 C353 1.384 . S
H352 C354 0.949 . S
C353 C351 1.384 . S
C353 C354 1.385 . S
C353 H355 0.950 . S
C354 C348 1.404 . S
C354 H352 0.949 . S
C354 C353 1.385 . S
H355 C353 0.950 . S
H356 C340 0.951 . S
H357 C342 0.951 . S
H358 C344 0.951 . S
H359 C345 0.950 . S
H360 C346 0.950 . S
H361 C347 0.950 . S
H362 C349 0.950 . S
H363 C350 0.951 . S
C364 C365 1.386 1_455 S
C364 C366 1.383 . S
C364 H380 0.951 . S
C365 C364 1.386 1_655 S
C365 C369 1.383 . S
C366 C364 1.383 . S
C366 C367 1.402 . S
C366 H381 0.951 . S
C367 C366 1.402 . S
C367 C368 1.375 . S
C367 C370 1.481 . S
C368 C367 1.375 . S
C368 C369 1.367 1_455 S
C368 H382 0.951 . S
C369 C365 1.383 . S
C369 C368 1.367 1_655 S
C369 H383 0.950 . S
C370 C367 1.481 . S
C370 C371 1.297 . S
C370 H384 0.950 . S
C371 C370 1.297 . S
C371 C372 1.479 . S
C371 H385 0.950 . S
C372 C371 1.479 . S
C372 C373 1.375 . S
C372 C378 1.404 . S
C373 C372 1.375 . S
C373 C374 1.369 . S
C373 H386 0.950 . S
C374 C373 1.369 . S
C374 C375 1.392 . S
C374 H387 0.951 . S
C375 C374 1.392 . S
C375 C377 1.384 . S
H376 C378 0.949 . S
C377 C375 1.384 . S
C377 C378 1.385 . S
C377 H379 0.950 . S
C378 C372 1.404 . S
C378 H376 0.949 . S
C378 C377 1.385 . S
H379 C377 0.950 . S
H380 C364 0.951 . S
H381 C366 0.951 . S
H382 C368 0.951 . S
H383 C369 0.950 . S
H384 C370 0.950 . S
H385 C371 0.950 . S
H386 C373 0.950 . S
H387 C374 0.951 . S
C388 C389 1.386 . S
C388 C390 1.383 . S
C388 H404 0.951 . S
C389 C388 1.386 . S
C389 C393 1.383 . S
C390 C388 1.383 . S
C390 C391 1.402 . S
C390 H405 0.951 . S
C391 C390 1.402 . S
C391 C392 1.375 . S
C391 C394 1.481 . S
C392 C391 1.375 . S
C392 C393 1.367 . S
C392 H406 0.951 . S
C393 C389 1.383 . S
C393 C392 1.367 . S
C393 H407 0.950 . S
C394 C391 1.481 . S
C394 C395 1.297 . S
C394 H408 0.950 . S
C395 C394 1.297 . S
C395 C396 1.479 . S
C395 H409 0.950 . S
C396 C395 1.479 . S
C396 C397 1.375 . S
C396 C402 1.404 . S
C397 C396 1.375 . S
C397 C398 1.369 . S
C397 H410 0.950 . S
C398 C397 1.369 . S
C398 C399 1.392 . S
C398 H411 0.951 . S
C399 C398 1.392 . S
C399 C401 1.384 . S
H400 C402 0.949 . S
C401 C399 1.384 . S
C401 C402 1.385 . S
C401 H403 0.950 . S
C402 C396 1.404 . S
C402 H400 0.949 . S
C402 C401 1.385 . S
H403 C401 0.950 . S
H404 C388 0.951 . S
H405 C390 0.951 . S
H406 C392 0.951 . S
H407 C393 0.950 . S
H408 C394 0.950 . S
H409 C395 0.950 . S
H410 C397 0.950 . S
H411 C398 0.951 . S
C412 C413 1.386 . S
C412 C414 1.383 . S
C412 H428 0.951 . S
C413 C412 1.386 . S
C413 C417 1.383 . S
C414 C412 1.383 . S
C414 C415 1.402 . S
C414 H429 0.951 . S
C415 C414 1.402 . S
C415 C416 1.375 . S
C415 C418 1.481 . S
C416 C415 1.375 . S
C416 C417 1.367 . S
C416 H430 0.951 . S
C417 C413 1.383 . S
C417 C416 1.367 . S
C417 H431 0.950 . S
C418 C415 1.481 . S
C418 C419 1.297 . S
C418 H432 0.950 . S
C419 C418 1.297 . S
C419 C420 1.479 . S
C419 H433 0.950 . S
C420 C419 1.479 . S
C420 C421 1.375 1_545 S
C420 C426 1.404 . S
C421 C420 1.375 1_565 S
C421 C422 1.369 . S
C421 H434 0.950 1_565 S
C422 C421 1.369 . S
C422 C423 1.392 . S
C422 H435 0.951 . S
C423 C422 1.392 . S
C423 C425 1.384 . S
H424 C426 0.949 . S
C425 C423 1.384 . S
C425 C426 1.385 1_565 S
C425 H427 0.950 . S
C426 C420 1.404 . S
C426 H424 0.949 . S
C426 C425 1.385 1_545 S
H427 C425 0.950 . S
H428 C412 0.951 . S
H429 C414 0.951 . S
H430 C416 0.951 . S
H431 C417 0.950 . S
H432 C418 0.950 . S
H433 C419 0.950 . S
H434 C421 0.950 1_545 S
H435 C422 0.951 . S
C436 C437 1.386 . S
C436 C438 1.383 . S
C436 H452 0.951 . S
C437 C436 1.386 . S
C437 C441 1.383 . S
C438 C436 1.383 . S
C438 C439 1.402 . S
C438 H453 0.951 . S
C439 C438 1.402 . S
C439 C440 1.375 . S
C439 C442 1.481 . S
C440 C439 1.375 . S
C440 C441 1.367 . S
C440 H454 0.951 . S
C441 C437 1.383 . S
C441 C440 1.367 . S
C441 H455 0.950 . S
C442 C439 1.481 . S
C442 C443 1.297 . S
C442 H456 0.950 . S
C443 C442 1.297 . S
C443 C444 1.479 . S
C443 H457 0.950 . S
C444 C443 1.479 . S
C444 C445 1.375 . S
C444 C450 1.404 . S
C445 C444 1.375 . S
C445 C446 1.369 . S
C445 H458 0.950 . S
C446 C445 1.369 . S
C446 C447 1.392 . S
C446 H459 0.951 . S
C447 C446 1.392 . S
C447 C449 1.384 . S
H448 C450 0.949 . S
C449 C447 1.384 . S
C449 C450 1.385 . S
C449 H451 0.950 . S
C450 C444 1.404 . S
C450 H448 0.949 . S
C450 C449 1.385 . S
H451 C449 0.950 . S
H452 C436 0.951 . S
H453 C438 0.951 . S
H454 C440 0.951 . S
H455 C441 0.950 . S
H456 C442 0.950 . S
H457 C443 0.950 . S
H458 C445 0.950 . S
H459 C446 0.951 . S
C460 C461 1.386 . S
C460 C462 1.383 . S
C460 H476 0.951 . S
C461 C460 1.386 . S
C461 C465 1.383 . S
C462 C460 1.383 . S
C462 C463 1.402 . S
C462 H477 0.951 . S
C463 C462 1.402 . S
C463 C464 1.375 . S
C463 C466 1.481 . S
C464 C463 1.375 . S
C464 C465 1.367 . S
C464 H478 0.951 . S
C465 C461 1.383 . S
C465 C464 1.367 . S
C465 H479 0.950 . S
C466 C463 1.481 . S
C466 C467 1.297 . S
C466 H480 0.950 . S
C467 C466 1.297 . S
C467 C468 1.479 . S
C467 H481 0.950 . S
C468 C467 1.479 . S
C468 C469 1.375 . S
C468 C474 1.404 . S
C469 C468 1.375 . S
C469 C470 1.369 1_565 S
C469 H482 0.950 . S
C470 C469 1.369 1_545 S
C470 C471 1.392 . S
C470 H483 0.951 . S
C471 C470 1.392 . S
C471 C473 1.384 . S
H472 C474 0.949 . S
C473 C471 1.384 . S
C473 C474 1.385 1_545 S
C473 H475 0.950 . S
C474 C468 1.404 . S
C474 H472 0.949 . S
C474 C473 1.385 1_565 S
H475 C473 0.950 . S
H476 C460 0.951 . S
H477 C462 0.951 . S
H478 C464 0.951 . S
H479 C465 0.950 . S
H480 C466 0.950 . S
H481 C467 0.950 . S
H482 C469 0.950 . S
H483 C470 0.951 . S
C484 C485 1.386 . S
C484 C486 1.383 . S
C484 H500 0.951 . S
C485 C484 1.386 . S
C485 C489 1.383 . S
C486 C484 1.383 . S
C486 C487 1.402 . S
C486 H501 0.951 . S
C487 C486 1.402 . S
C487 C488 1.375 . S
C487 C490 1.481 . S
C488 C487 1.375 . S
C488 C489 1.367 . S
C488 H502 0.951 . S
C489 C485 1.383 . S
C489 C488 1.367 . S
C489 H503 0.950 . S
C490 C487 1.481 . S
C490 C491 1.297 . S
C490 H504 0.950 . S
C491 C490 1.297 . S
C491 C492 1.479 . S
C491 H505 0.950 . S
C492 C491 1.479 . S
C492 C493 1.375 . S
C492 C498 1.404 . S
C493 C492 1.375 . S
C493 C494 1.369 . S
C493 H506 0.950 . S
C494 C493 1.369 . S
C494 C495 1.392 . S
C494 H507 0.951 . S
C495 C494 1.392 . S
C495 C497 1.384 . S
H496 C498 0.949 . S
C497 C495 1.384 . S
C497 C498 1.385 . S
C497 H499 0.950 . S
C498 C492 1.404 . S
C498 H496 0.949 . S
C498 C497 1.385 . S
H499 C497 0.950 . S
H500 C484 0.951 . S
H501 C486 0.951 . S
H502 C488 0.951 . S
H503 C489 0.950 . S
H504 C490 0.950 . S
H505 C491 0.950 . S
H506 C493 0.950 . S
H507 C494 0.951 . S
C125 C63 0.809 . S
C135 C27 0.771 . S
C149 C93 0.779 . S
C159 C55 0.629 . S
C173 C62 0.644 . S
C183 C24 0.449 . S
C197 C94 0.678 . S
C207 C58 0.434 . S
C221 C1 1.737 . S
C231 C103 1.628 . S
C245 C64 1.978 . S
C255 C31 1.909 1_655 S
C269 C33 1.668 . S
C279 C89 1.785 . S
C293 C117 1.854 1_455 S
C303 C10 1.961 . S
C317 C18 1.697 . S
C327 C11 1.667 . S
C341 C42 1.680 . S
C351 C49 1.710 1_655 S
C365 C73 1.694 . S
C375 C80 1.671 . S
C389 C104 1.685 1_455 S
C399 C111 1.687 . S
C413 C0 1.905 . S
C423 C41 1.948 . S
C437 C2 1.523 . S
C447 C32 1.713 . S
C461 C86 1.884 . S
C471 C95 1.977 . S
C485 C120 1.681 . S
C495 C72 1.584 . S
