# Generated by pormake.
# Topology umk, (4)-cn, num edge types: 1
# Building blocks:
#     Node 0, Type 0, BuildingBlock: NAHDIM_clean_sbu_0, # of connection points: 4
#     Node 1, Type 0, BuildingBlock: NAHDIM_clean_sbu_0, # of connection points: 4
#     Node 2, Type 0, BuildingBlock: NAHDIM_clean_sbu_0, # of connection points: 4
#     Node 3, Type 0, BuildingBlock: NAHDIM_clean_sbu_0, # of connection points: 4
#     Node 4, Type 0, BuildingBlock: NAHDIM_clean_sbu_0, # of connection points: 4
#     Node 5, Type 0, BuildingBlock: NAHDIM_clean_sbu_0, # of connection points: 4
#     Node 6, Type 0, BuildingBlock: NAHDIM_clean_sbu_0, # of connection points: 4
#     Node 7, Type 0, BuildingBlock: NAHDIM_clean_sbu_0, # of connection points: 4
#     Node 8, Type 0, BuildingBlock: NAHDIM_clean_sbu_0, # of connection points: 4
#     Node 9, Type 0, BuildingBlock: NAHDIM_clean_sbu_0, # of connection points: 4
#     Node 10, Type 0, BuildingBlock: NAHDIM_clean_sbu_0, # of connection points: 4
#     Node 11, Type 0, BuildingBlock: NAHDIM_clean_sbu_0, # of connection points: 4
#     Node 12, Type 0, BuildingBlock: NAHDIM_clean_sbu_0, # of connection points: 4
#     Node 13, Type 0, BuildingBlock: NAHDIM_clean_sbu_0, # of connection points: 4
#     Node 14, Type 0, BuildingBlock: NAHDIM_clean_sbu_0, # of connection points: 4
#     Node 15, Type 0, BuildingBlock: NAHDIM_clean_sbu_0, # of connection points: 4
#     Node 16, Type 0, BuildingBlock: NAHDIM_clean_sbu_0, # of connection points: 4
#     Node 17, Type 0, BuildingBlock: NAHDIM_clean_sbu_0, # of connection points: 4
#     Node 18, Type 0, BuildingBlock: NAHDIM_clean_sbu_0, # of connection points: 4
#     Node 19, Type 0, BuildingBlock: NAHDIM_clean_sbu_0, # of connection points: 4
#     Node 20, Type 0, BuildingBlock: NAHDIM_clean_sbu_0, # of connection points: 4
#     Node 21, Type 0, BuildingBlock: NAHDIM_clean_sbu_0, # of connection points: 4
#     Node 22, Type 0, BuildingBlock: NAHDIM_clean_sbu_0, # of connection points: 4
#     Node 23, Type 0, BuildingBlock: NAHDIM_clean_sbu_0, # of connection points: 4
#     Edge 24, Type (0, 0), BuildingBlock: XIVTED_clean_linker_0, # of connection points: 2
#     Edge 25, Type (0, 0), BuildingBlock: XIVTED_clean_linker_0, # of connection points: 2
#     Edge 26, Type (0, 0), BuildingBlock: XIVTED_clean_linker_0, # of connection points: 2
#     Edge 27, Type (0, 0), BuildingBlock: XIVTED_clean_linker_0, # of connection points: 2
#     Edge 28, Type (0, 0), BuildingBlock: XIVTED_clean_linker_0, # of connection points: 2
#     Edge 29, Type (0, 0), BuildingBlock: XIVTED_clean_linker_0, # of connection points: 2
#     Edge 30, Type (0, 0), BuildingBlock: XIVTED_clean_linker_0, # of connection points: 2
#     Edge 31, Type (0, 0), BuildingBlock: XIVTED_clean_linker_0, # of connection points: 2
#     Edge 32, Type (0, 0), BuildingBlock: XIVTED_clean_linker_0, # of connection points: 2
#     Edge 33, Type (0, 0), BuildingBlock: XIVTED_clean_linker_0, # of connection points: 2
#     Edge 34, Type (0, 0), BuildingBlock: XIVTED_clean_linker_0, # of connection points: 2
#     Edge 35, Type (0, 0), BuildingBlock: XIVTED_clean_linker_0, # of connection points: 2
#     Edge 36, Type (0, 0), BuildingBlock: XIVTED_clean_linker_0, # of connection points: 2
#     Edge 37, Type (0, 0), BuildingBlock: XIVTED_clean_linker_0, # of connection points: 2
#     Edge 38, Type (0, 0), BuildingBlock: XIVTED_clean_linker_0, # of connection points: 2
#     Edge 39, Type (0, 0), BuildingBlock: XIVTED_clean_linker_0, # of connection points: 2
#     Edge 40, Type (0, 0), BuildingBlock: XIVTED_clean_linker_0, # of connection points: 2
#     Edge 41, Type (0, 0), BuildingBlock: XIVTED_clean_linker_0, # of connection points: 2
#     Edge 42, Type (0, 0), BuildingBlock: XIVTED_clean_linker_0, # of connection points: 2
#     Edge 43, Type (0, 0), BuildingBlock: XIVTED_clean_linker_0, # of connection points: 2
#     Edge 44, Type (0, 0), BuildingBlock: XIVTED_clean_linker_0, # of connection points: 2
#     Edge 45, Type (0, 0), BuildingBlock: XIVTED_clean_linker_0, # of connection points: 2
#     Edge 46, Type (0, 0), BuildingBlock: XIVTED_clean_linker_0, # of connection points: 2
#     Edge 47, Type (0, 0), BuildingBlock: XIVTED_clean_linker_0, # of connection points: 2
#     Edge 48, Type (0, 0), BuildingBlock: XIVTED_clean_linker_0, # of connection points: 2
#     Edge 49, Type (0, 0), BuildingBlock: XIVTED_clean_linker_0, # of connection points: 2
#     Edge 50, Type (0, 0), BuildingBlock: XIVTED_clean_linker_0, # of connection points: 2
#     Edge 51, Type (0, 0), BuildingBlock: XIVTED_clean_linker_0, # of connection points: 2
#     Edge 52, Type (0, 0), BuildingBlock: XIVTED_clean_linker_0, # of connection points: 2
#     Edge 53, Type (0, 0), BuildingBlock: XIVTED_clean_linker_0, # of connection points: 2
#     Edge 54, Type (0, 0), BuildingBlock: XIVTED_clean_linker_0, # of connection points: 2
#     Edge 55, Type (0, 0), BuildingBlock: XIVTED_clean_linker_0, # of connection points: 2
#     Edge 56, Type (0, 0), BuildingBlock: XIVTED_clean_linker_0, # of connection points: 2
#     Edge 57, Type (0, 0), BuildingBlock: XIVTED_clean_linker_0, # of connection points: 2
#     Edge 58, Type (0, 0), BuildingBlock: XIVTED_clean_linker_0, # of connection points: 2
#     Edge 59, Type (0, 0), BuildingBlock: XIVTED_clean_linker_0, # of connection points: 2
#     Edge 60, Type (0, 0), BuildingBlock: XIVTED_clean_linker_0, # of connection points: 2
#     Edge 61, Type (0, 0), BuildingBlock: XIVTED_clean_linker_0, # of connection points: 2
#     Edge 62, Type (0, 0), BuildingBlock: XIVTED_clean_linker_0, # of connection points: 2
#     Edge 63, Type (0, 0), BuildingBlock: XIVTED_clean_linker_0, # of connection points: 2
#     Edge 64, Type (0, 0), BuildingBlock: XIVTED_clean_linker_0, # of connection points: 2
#     Edge 65, Type (0, 0), BuildingBlock: XIVTED_clean_linker_0, # of connection points: 2
#     Edge 66, Type (0, 0), BuildingBlock: XIVTED_clean_linker_0, # of connection points: 2
#     Edge 67, Type (0, 0), BuildingBlock: XIVTED_clean_linker_0, # of connection points: 2
#     Edge 68, Type (0, 0), BuildingBlock: XIVTED_clean_linker_0, # of connection points: 2
#     Edge 69, Type (0, 0), BuildingBlock: XIVTED_clean_linker_0, # of connection points: 2
#     Edge 70, Type (0, 0), BuildingBlock: XIVTED_clean_linker_0, # of connection points: 2
#     Edge 71, Type (0, 0), BuildingBlock: XIVTED_clean_linker_0, # of connection points: 2
# Relax obj value: 0.112
# Max RMSD: 0.131
# Mean RMSD: 0.131
data_MOF--net-umk--node1-NAHDIM_clean_sbu_0--edge1-XIVTED_clean_linker_0
_symmetry_space_group_name_H-M    P1
_symmetry_Int_Tables_number       1
_symmetry_cell_setting            triclinic
loop_
_symmetry_equiv_pos_as_xyz
'x, y, z'
_cell_length_a     67.349081
_cell_length_b     67.267011
_cell_length_c     42.203312
_cell_angle_alpha  89.980304
_cell_angle_beta   89.980175
_cell_angle_gamma 119.9815
loop_
_atom_site_label
_atom_site_type_symbol
_atom_site_fract_x
_atom_site_fract_y
_atom_site_fract_z
_atom_type_partial_charge
C0 C 0.29582 0.46396 0.0438 0.0
O1 O 0.31402 0.48349 0.05148 0.0
O2 O 0.32396 0.4494 0.1132 0.0
Zn3 Zn 0.32448 0.44727 0.06575 0.0
O4 O 0.3522 0.47515 0.04847 0.0
C5 C 0.31652 0.401 0.06971 0.0
O6 O 0.30343 0.39947 0.09375 0.0
O7 O 0.29609 0.44538 0.0477 0.0
C8 C 0.37186 0.47694 0.04998 0.0
O9 O 0.3739 0.46033 0.06309 0.0
C10 C 0.3314 0.46847 0.12742 0.0
O11 O 0.33974 0.48746 0.11074 0.0
O12 O 0.32651 0.41952 0.05386 0.0
C13 C 0.82815 0.27904 0.55536 0.0
O14 O 0.82453 0.28567 0.58297 0.0
O15 O 0.86879 0.32128 0.60733 0.0
Zn16 Zn 0.87218 0.3204 0.56008 0.0
O17 O 0.87141 0.3471 0.53991 0.0
C18 C 0.91085 0.31368 0.56839 0.0
O19 O 0.8988 0.30108 0.59253 0.0
O20 O 0.84727 0.29111 0.54154 0.0
C21 C 0.88953 0.36662 0.53868 0.0
O22 O 0.90859 0.36909 0.55085 0.0
C23 C 0.85888 0.33103 0.62037 0.0
O24 O 0.85001 0.34063 0.60254 0.0
O25 O 0.90255 0.32306 0.55082 0.0
C26 C 0.54639 0.83588 0.06662 0.0
O27 O 0.55072 0.83801 0.09716 0.0
O28 O 0.5358 0.86916 0.12286 0.0
Zn29 Zn 0.53722 0.87345 0.0756 0.0
O30 O 0.50848 0.87245 0.05983 0.0
C31 C 0.58268 0.91298 0.08144 0.0
O32 O 0.58442 0.90143 0.10536 0.0
O33 O 0.54051 0.84902 0.05315 0.0
C34 C 0.50809 0.89076 0.05368 0.0
O35 O 0.52657 0.9107 0.05865 0.0
C36 C 0.51831 0.85391 0.13751 0.0
O37 O 0.49992 0.83978 0.12137 0.0
O38 O 0.56437 0.90411 0.06517 0.0
C39 C 0.71286 0.55263 0.54426 0.0
O40 O 0.71161 0.5518 0.57533 0.0
O41 O 0.66567 0.53975 0.59461 0.0
Zn42 Zn 0.66597 0.54363 0.54734 0.0
O43 O 0.64027 0.51553 0.52703 0.0
C44 C 0.6709 0.58816 0.55515 0.0
O45 O 0.6851 0.5898 0.57768 0.0
O46 O 0.69572 0.54982 0.52817 0.0
C47 C 0.62091 0.50391 0.54048 0.0
O48 O 0.61768 0.51015 0.56863 0.0
C49 C 0.66305 0.52191 0.60872 0.0
O50 O 0.66063 0.50438 0.59196 0.0
O51 O 0.6611 0.57004 0.53848 0.0
C52 C 0.15499 0.68868 0.05357 0.0
O53 O 0.15598 0.67116 0.06548 0.0
O54 O 0.11206 0.65747 0.11758 0.0
Zn55 Zn 0.10863 0.65998 0.07057 0.0
O56 O 0.10636 0.63239 0.0485 0.0
C57 C 0.07071 0.6685 0.08042 0.0
O58 O 0.08172 0.67883 0.10645 0.0
O59 O 0.13588 0.68817 0.05324 0.0
C60 C 0.11216 0.61907 0.06167 0.0
O61 O 0.11999 0.62327 0.09084 0.0
C62 C 0.12393 0.67482 0.13507 0.0
O63 O 0.13436 0.6954 0.12233 0.0
O64 O 0.07943 0.66014 0.06172 0.0
C65 C 0.43161 0.15705 0.56667 0.0
O66 O 0.42414 0.15029 0.59565 0.0
O67 O 0.44654 0.12432 0.61741 0.0
Zn68 Zn 0.44428 0.12196 0.56999 0.0
O69 O 0.47231 0.12302 0.55156 0.0
C70 C 0.39892 0.08247 0.57516 0.0
O71 O 0.39707 0.0938 0.59926 0.0
O72 O 0.44073 0.14735 0.5515 0.0
C73 C 0.47359 0.1048 0.55073 0.0
O74 O 0.45681 0.0858 0.56281 0.0
C75 C 0.46537 0.13382 0.63249 0.0
O76 O 0.48478 0.14315 0.6167 0.0
O77 O 0.41716 0.09164 0.55874 0.0
C78 C 0.54374 0.70786 0.94227 0.0
O79 O 0.54569 0.70916 0.91126 0.0
O80 O 0.52951 0.66381 0.88604 0.0
Zn81 Zn 0.53463 0.66147 0.93257 0.0
O82 O 0.50709 0.63352 0.95061 0.0
C83 C 0.58007 0.66795 0.92061 0.0
O84 O 0.58114 0.68213 0.89838 0.0
O85 O 0.53919 0.6893 0.95614 0.0
C86 C 0.50753 0.61519 0.95634 0.0
O87 O 0.52623 0.61438 0.95012 0.0
C88 C 0.52943 0.64896 0.86738 0.0
O89 O 0.5323 0.63248 0.87915 0.0
O90 O 0.56239 0.6581 0.93813 0.0
C91 C 0.83789 0.54531 0.42786 0.0
O92 O 0.8446 0.55442 0.39958 0.0
O93 O 0.85684 0.52101 0.368 0.0
Zn94 Zn 0.86655 0.52643 0.41362 0.0
O95 O 0.86747 0.49938 0.43238 0.0
C96 C 0.90783 0.56344 0.44083 0.0
O97 O 0.89771 0.55421 0.46785 0.0
O98 O 0.84503 0.53245 0.43884 0.0
C99 C 0.88587 0.49849 0.43348 0.0
O100 O 0.90479 0.51547 0.42156 0.0
C101 C 0.8537 0.5037 0.35195 0.0
O102 O 0.85587 0.48739 0.36577 0.0
O103 O 0.89765 0.55444 0.415 0.0
C104 C 0.2946 0.82236 0.95964 0.0
O105 O 0.31263 0.82041 0.95318 0.0
O106 O 0.32324 0.86458 0.88817 0.0
Zn107 Zn 0.32381 0.86739 0.93556 0.0
O108 O 0.35159 0.86756 0.95338 0.0
C109 C 0.31554 0.90541 0.93049 0.0
O110 O 0.30222 0.89328 0.90696 0.0
O111 O 0.29529 0.84124 0.95399 0.0
C112 C 0.37104 0.88573 0.95182 0.0
O113 O 0.37267 0.90398 0.93795 0.0
C114 C 0.33059 0.85313 0.8733 0.0
O115 O 0.339 0.84225 0.88931 0.0
O116 O 0.32581 0.89732 0.94662 0.0
C117 C 0.43323 0.29415 0.47167 0.0
O118 O 0.42944 0.30818 0.48893 0.0
O119 O 0.44804 0.3297 0.3785 0.0
Zn120 Zn 0.44545 0.32951 0.42591 0.0
O121 O 0.47399 0.35505 0.44565 0.0
C122 C 0.40033 0.32411 0.42231 0.0
O123 O 0.39769 0.30985 0.39929 0.0
O124 O 0.44006 0.2996 0.44328 0.0
C125 C 0.48825 0.37289 0.43058 0.0
O126 O 0.48468 0.37496 0.40048 0.0
C127 C 0.46325 0.32725 0.36409 0.0
O128 O 0.47824 0.3245 0.3806 0.0
O129 O 0.4192 0.33413 0.43726 0.0
C130 C 0.15496 0.46178 0.9628 0.0
O131 O 0.15505 0.48131 0.96099 0.0
O132 O 0.11217 0.44911 0.89039 0.0
Zn133 Zn 0.11039 0.44575 0.93783 0.0
O134 O 0.11065 0.47282 0.95826 0.0
C135 C 0.07231 0.39957 0.93266 0.0
O136 O 0.0842 0.39838 0.90878 0.0
O137 O 0.1372 0.44341 0.95409 0.0
C138 C 0.10266 0.48446 0.94557 0.0
O139 O 0.09341 0.47882 0.91724 0.0
C140 C 0.1305 0.46271 0.87575 0.0
O141 O 0.14928 0.47559 0.89196 0.0
O142 O 0.08065 0.41782 0.94906 0.0
C143 C 0.69983 0.15292 0.43379 0.0
O144 O 0.70307 0.14419 0.40776 0.0
O145 O 0.65618 0.133 0.37168 0.0
Zn146 Zn 0.65228 0.12446 0.41777 0.0
O147 O 0.62441 0.12376 0.4363 0.0
C148 C 0.64689 0.08342 0.44761 0.0
O149 O 0.64618 0.0936 0.4738 0.0
O150 O 0.67956 0.14701 0.44237 0.0
C151 C 0.60508 0.10547 0.43822 0.0
O152 O 0.60277 0.08624 0.42688 0.0
C153 C 0.64195 0.13601 0.35562 0.0
O154 O 0.62385 0.13451 0.3697 0.0
O155 O 0.64952 0.09352 0.42123 0.0
C156 C 0.68137 0.51704 0.9353 0.0
O157 O 0.66264 0.49723 0.93073 0.0
O158 O 0.65496 0.53217 0.86077 0.0
Zn159 Zn 0.65364 0.5337 0.90815 0.0
O160 O 0.62562 0.5058 0.92504 0.0
C161 C 0.65994 0.5795 0.90323 0.0
O162 O 0.67101 0.58051 0.87709 0.0
O163 O 0.68172 0.53541 0.92723 0.0
C164 C 0.60683 0.50558 0.92928 0.0
O165 O 0.60539 0.52372 0.9214 0.0
C166 C 0.65238 0.51459 0.84598 0.0
O167 O 0.64843 0.49623 0.86203 0.0
O168 O 0.65183 0.56159 0.92034 0.0
C169 C 0.15206 0.71372 0.44425 0.0
O170 O 0.14925 0.7152 0.41371 0.0
O171 O 0.12598 0.66891 0.38823 0.0
Zn172 Zn 0.1194 0.66554 0.43519 0.0
O173 O 0.12268 0.63976 0.4537 0.0
C174 C 0.07575 0.66302 0.42343 0.0
O175 O 0.08536 0.67343 0.39672 0.0
O176 O 0.14103 0.6944 0.45799 0.0
C177 C 0.10553 0.61956 0.45534 0.0
O178 O 0.08575 0.61543 0.44366 0.0
C179 C 0.11899 0.65168 0.36996 0.0
O180 O 0.10776 0.63093 0.38203 0.0
O181 O 0.08727 0.65864 0.44318 0.0
C182 C 0.46106 0.15853 0.95227 0.0
O183 O 0.47991 0.15952 0.94182 0.0
O184 O 0.44524 0.11596 0.88432 0.0
Zn185 Zn 0.44325 0.11282 0.93178 0.0
O186 O 0.47106 0.11255 0.94835 0.0
C187 C 0.39743 0.07364 0.92691 0.0
O188 O 0.39634 0.08417 0.90132 0.0
O189 O 0.44227 0.13965 0.95057 0.0
C190 C 0.47187 0.09415 0.95086 0.0
O191 O 0.45401 0.07457 0.94242 0.0
C192 C 0.46434 0.12553 0.86981 0.0
O193 O 0.48343 0.13359 0.88614 0.0
O194 O 0.41539 0.08314 0.9439 0.0
C195 C 0.29242 0.46852 0.44735 0.0
O196 O 0.3102 0.48816 0.43892 0.0
O197 O 0.32347 0.45596 0.38023 0.0
Zn198 Zn 0.32266 0.45346 0.42774 0.0
O199 O 0.34881 0.48127 0.44781 0.0
C200 C 0.31546 0.40762 0.42385 0.0
O201 O 0.3019 0.40585 0.40031 0.0
O202 O 0.29337 0.45022 0.44439 0.0
C203 C 0.36921 0.49122 0.43731 0.0
O204 O 0.37392 0.48338 0.41156 0.0
C205 C 0.32961 0.47437 0.36486 0.0
O206 O 0.33606 0.49359 0.38032 0.0
O207 O 0.3255 0.42619 0.43955 0.0
C208 C 0.82168 0.30296 0.94208 0.0
O209 O 0.82037 0.32104 0.93351 0.0
O210 O 0.86681 0.32999 0.87407 0.0
Zn211 Zn 0.86785 0.33121 0.92157 0.0
O212 O 0.86778 0.35945 0.93694 0.0
C213 C 0.90518 0.3218 0.92189 0.0
O214 O 0.89422 0.30882 0.89748 0.0
O215 O 0.8406 0.30327 0.9391 0.0
C216 C 0.88624 0.37862 0.93892 0.0
O217 O 0.90566 0.38001 0.93037 0.0
C218 C 0.85648 0.33789 0.85768 0.0
O219 O 0.84598 0.34735 0.87209 0.0
O220 O 0.89673 0.33245 0.93629 0.0
C221 C 0.5513 0.83901 0.44556 0.0
O222 O 0.55645 0.84291 0.41533 0.0
O223 O 0.5349 0.8674 0.38961 0.0
Zn224 Zn 0.53555 0.87144 0.43694 0.0
O225 O 0.50526 0.86696 0.45164 0.0
C226 C 0.57725 0.91508 0.43132 0.0
O227 O 0.58069 0.90544 0.40645 0.0
O228 O 0.54231 0.8493 0.45951 0.0
C229 C 0.49666 0.87754 0.43745 0.0
O230 O 0.50756 0.89063 0.41306 0.0
C231 C 0.51784 0.8514 0.37517 0.0
O232 O 0.49995 0.83652 0.39156 0.0
O233 O 0.5594 0.90358 0.44805 0.0
C234 C 0.46503 0.29894 0.03975 0.0
O235 O 0.48477 0.3181 0.04196 0.0
O236 O 0.45096 0.32883 0.11154 0.0
Zn237 Zn 0.44848 0.3276 0.06409 0.0
O238 O 0.47561 0.35514 0.04483 0.0
C239 C 0.40197 0.31873 0.06846 0.0
O240 O 0.40124 0.30678 0.09352 0.0
O241 O 0.4468 0.29877 0.04799 0.0
C242 C 0.47568 0.37395 0.04153 0.0
O243 O 0.45804 0.37546 0.0517 0.0
C244 C 0.46785 0.32987 0.12642 0.0
O245 O 0.48485 0.33043 0.1104 0.0
O246 O 0.42011 0.32834 0.05182 0.0
C247 C 0.15781 0.46927 0.54688 0.0
O248 O 0.15756 0.48857 0.54985 0.0
O249 O 0.11547 0.45273 0.62311 0.0
Zn250 Zn 0.11331 0.45056 0.57559 0.0
O251 O 0.10994 0.47644 0.55758 0.0
C252 C 0.07748 0.40297 0.57977 0.0
O253 O 0.08909 0.40252 0.6045 0.0
O254 O 0.14075 0.45069 0.5566 0.0
C255 C 0.11878 0.49627 0.56998 0.0
O256 O 0.1308 0.50058 0.59614 0.0
C257 C 0.13429 0.463 0.63819 0.0
O258 O 0.1537 0.47302 0.62241 0.0
O259 O 0.08499 0.42138 0.56385 0.0
C260 C 0.68678 0.16463 0.03619 0.0
O261 O 0.66891 0.16599 0.04566 0.0
O262 O 0.65942 0.12535 0.10648 0.0
Zn263 Zn 0.65909 0.11969 0.05965 0.0
O264 O 0.63079 0.11738 0.04025 0.0
C265 C 0.66627 0.08135 0.07187 0.0
O266 O 0.67665 0.09297 0.09752 0.0
O267 O 0.68672 0.14585 0.0397 0.0
C268 C 0.61188 0.09855 0.04037 0.0
O269 O 0.61093 0.0803 0.05323 0.0
C270 C 0.64736 0.13293 0.11908 0.0
O271 O 0.63415 0.1374 0.10109 0.0
O272 O 0.65841 0.08993 0.05212 0.0
C273 C 0.5533 0.71148 0.56348 0.0
O274 O 0.56197 0.71325 0.59191 0.0
O275 O 0.53498 0.66015 0.61511 0.0
Zn276 Zn 0.53834 0.66247 0.56762 0.0
O277 O 0.51119 0.63631 0.54627 0.0
C278 C 0.58424 0.66946 0.57145 0.0
O279 O 0.58623 0.68253 0.59574 0.0
O280 O 0.5427 0.69201 0.55006 0.0
C281 C 0.49184 0.62368 0.55927 0.0
O282 O 0.48858 0.62765 0.58875 0.0
C283 C 0.52505 0.66808 0.63232 0.0
O284 O 0.51565 0.67905 0.61904 0.0
O285 O 0.56558 0.65968 0.556 0.0
C286 C 0.81942 0.52421 0.03635 0.0
O287 O 0.81787 0.50536 0.04801 0.0
O288 O 0.85908 0.53476 0.1034 0.0
Zn289 Zn 0.86469 0.5408 0.05662 0.0
O290 O 0.86655 0.51488 0.03585 0.0
C291 C 0.90296 0.58594 0.07022 0.0
O292 O 0.8912 0.58409 0.09598 0.0
O293 O 0.83859 0.54272 0.03737 0.0
C294 C 0.88535 0.51482 0.03383 0.0
O295 O 0.90411 0.53217 0.04546 0.0
C296 C 0.853 0.51535 0.11594 0.0
O297 O 0.84996 0.49815 0.0979 0.0
O298 O 0.89452 0.56997 0.04975 0.0
C299 C 0.27909 0.83902 0.56769 0.0
O300 O 0.27837 0.84116 0.59854 0.0
O301 O 0.32491 0.86985 0.62144 0.0
Zn302 Zn 0.32682 0.87412 0.5742 0.0
O303 O 0.35288 0.87115 0.5566 0.0
C304 C 0.32155 0.9139 0.57845 0.0
O305 O 0.30613 0.90155 0.59993 0.0
O306 O 0.2978 0.85119 0.55296 0.0
C307 C 0.35896 0.87721 0.52809 0.0
O308 O 0.34797 0.8851 0.51124 0.0
C309 C 0.3307 0.85688 0.63567 0.0
O310 O 0.33811 0.84537 0.61909 0.0
O311 O 0.33241 0.90557 0.56436 0.0
H312 H 0.31669 0.43258 0.16893 0.0
H313 H 0.34221 0.51042 0.32386 0.0
H314 H 0.34459 0.50597 0.16562 0.0
H315 H 0.31715 0.43749 0.32603 0.0
H316 H 0.34239 0.50919 0.26592 0.0
H317 H 0.31593 0.4341 0.22661 0.0
C318 C 0.32265 0.44904 0.18032 0.0
C319 C 0.33075 0.46919 0.16239 0.0
C320 C 0.33686 0.49347 0.27911 0.0
C321 C 0.32992 0.47105 0.22855 0.0
C322 C 0.33674 0.49415 0.31218 0.0
C323 C 0.32968 0.47403 0.32984 0.0
C324 C 0.32986 0.47252 0.2636 0.0
C325 C 0.32275 0.45344 0.31342 0.0
C326 C 0.32222 0.44989 0.2133 0.0
C327 C 0.33824 0.49001 0.17849 0.0
N328 N 0.32302 0.45323 0.28127 0.0
N329 N 0.33765 0.4904 0.21067 0.0
H330 H 0.83862 0.3499 0.65647 0.0
H331 H 0.87613 0.31896 0.82086 0.0
H332 H 0.87635 0.31374 0.66387 0.0
H333 H 0.83677 0.3535 0.81484 0.0
H334 H 0.87616 0.31688 0.76323 0.0
H335 H 0.83748 0.35131 0.71432 0.0
C336 C 0.84664 0.34223 0.67024 0.0
C337 C 0.85763 0.33171 0.65529 0.0
C338 C 0.86749 0.3249 0.77446 0.0
C339 C 0.85641 0.33331 0.72146 0.0
C340 C 0.86747 0.3261 0.80742 0.0
C341 C 0.85644 0.33645 0.82273 0.0
C342 C 0.85643 0.33412 0.75657 0.0
C343 C 0.8455 0.34539 0.80404 0.0
C344 C 0.84597 0.34305 0.70326 0.0
C345 C 0.8677 0.32204 0.67434 0.0
N346 N 0.84579 0.34404 0.77191 0.0
N347 N 0.86687 0.32311 0.70639 0.0
H348 H 0.48341 0.82124 0.33596 0.0
H349 H 0.55375 0.8804 0.17746 0.0
H350 H 0.55243 0.87894 0.33457 0.0
H351 H 0.48383 0.82435 0.17729 0.0
H352 H 0.55394 0.87876 0.23511 0.0
H353 H 0.48362 0.82074 0.27798 0.0
C354 C 0.49864 0.83375 0.32349 0.0
C355 C 0.5179 0.85021 0.34017 0.0
C356 C 0.53854 0.86677 0.22252 0.0
C357 C 0.51824 0.84975 0.27385 0.0
C358 C 0.53842 0.86769 0.18954 0.0
C359 C 0.5187 0.85254 0.17248 0.0
C360 C 0.51881 0.85058 0.23871 0.0
C361 C 0.49939 0.8364 0.18947 0.0
C362 C 0.49873 0.83346 0.29039 0.0
C363 C 0.53715 0.86598 0.32275 0.0
N364 N 0.49991 0.83588 0.22167 0.0
N365 N 0.5368 0.86538 0.29059 0.0
H366 H 0.64829 0.48045 0.80615 0.0
H367 H 0.66804 0.55549 0.6497 0.0
H368 H 0.66038 0.54983 0.80612 0.0
H369 H 0.65599 0.48613 0.64754 0.0
H370 H 0.66571 0.55355 0.70724 0.0
H371 H 0.65133 0.48198 0.74828 0.0
C372 C 0.65157 0.49599 0.79401 0.0
C373 C 0.65406 0.51504 0.81102 0.0
C374 C 0.6636 0.53873 0.69426 0.0
C375 C 0.65758 0.5169 0.7449 0.0
C376 C 0.66494 0.53983 0.66133 0.0
C377 C 0.66217 0.52092 0.64372 0.0
C378 C 0.65943 0.51857 0.70987 0.0
C379 C 0.65822 0.50112 0.66016 0.0
C380 C 0.65332 0.49685 0.76098 0.0
C381 C 0.65832 0.53472 0.79404 0.0
N382 N 0.65693 0.50044 0.69235 0.0
N383 N 0.65993 0.53512 0.76197 0.0
H384 H 0.10508 0.61865 0.32408 0.0
H385 H 0.14501 0.7082 0.18026 0.0
H386 H 0.13964 0.69214 0.33678 0.0
H387 H 0.106 0.63464 0.16849 0.0
H388 H 0.14583 0.70276 0.23742 0.0
H389 H 0.10803 0.62431 0.26677 0.0
C390 C 0.1134 0.63599 0.31484 0.0
C391 C 0.12201 0.65494 0.33529 0.0
C392 C 0.13715 0.68782 0.22231 0.0
C393 C 0.12537 0.66155 0.26963 0.0
C394 C 0.13669 0.69091 0.18966 0.0
C395 C 0.1253 0.67185 0.16956 0.0
C396 C 0.12619 0.66551 0.23496 0.0
C397 C 0.11486 0.64984 0.18309 0.0
C398 C 0.11505 0.63921 0.28208 0.0
C399 C 0.13269 0.67702 0.32192 0.0
N400 N 0.11551 0.64728 0.21492 0.0
N401 N 0.13398 0.67971 0.28993 0.0
H402 H 0.50208 0.14511 0.83112 0.0
H403 H 0.42818 0.11621 0.67188 0.0
H404 H 0.42813 0.11057 0.82894 0.0
H405 H 0.50215 0.15074 0.67294 0.0
H406 H 0.42805 0.1148 0.72957 0.0
H407 H 0.50266 0.14801 0.77335 0.0
C408 C 0.48597 0.13815 0.81852 0.0
C409 C 0.46502 0.12755 0.8349 0.0
C410 C 0.44433 0.12273 0.71723 0.0
C411 C 0.46557 0.13083 0.7688 0.0
C412 C 0.44443 0.12356 0.68424 0.0
C413 C 0.46522 0.13357 0.66751 0.0
C414 C 0.46518 0.13195 0.73373 0.0
C415 C 0.48572 0.14283 0.68485 0.0
C416 C 0.48632 0.13982 0.78553 0.0
C417 C 0.44468 0.11886 0.81732 0.0
N418 N 0.48518 0.14175 0.71704 0.0
N419 N 0.44548 0.12068 0.78524 0.0
H420 H 0.5105 0.68713 0.67785 0.0
H421 H 0.53359 0.62307 0.82084 0.0
H422 H 0.53783 0.64162 0.66594 0.0
H423 H 0.52035 0.67896 0.83508 0.0
H424 H 0.53129 0.62705 0.76373 0.0
H425 H 0.51025 0.68186 0.73536 0.0
C426 C 0.51637 0.67599 0.68729 0.0
C427 C 0.52426 0.66486 0.66705 0.0
C428 C 0.52886 0.63843 0.77933 0.0
C429 C 0.52395 0.65871 0.73266 0.0
C430 C 0.53011 0.63613 0.81198 0.0
C431 C 0.52724 0.65076 0.83279 0.0
C432 C 0.52458 0.65541 0.76731 0.0
C433 C 0.52276 0.66737 0.81988 0.0
C434 C 0.51628 0.67304 0.72009 0.0
C435 C 0.53169 0.65064 0.6806 0.0
N436 N 0.52157 0.66926 0.78794 0.0
N437 N 0.53133 0.64797 0.7125 0.0
H438 H 0.84818 0.47056 0.30924 0.0
H439 H 0.85482 0.54632 0.15947 0.0
H440 H 0.85075 0.53587 0.31584 0.0
H441 H 0.84492 0.47795 0.15155 0.0
H442 H 0.85203 0.54205 0.21692 0.0
H443 H 0.84538 0.47203 0.25158 0.0
C444 C 0.84797 0.48511 0.29862 0.0
C445 C 0.84989 0.5032 0.3174 0.0
C446 C 0.85033 0.52791 0.20265 0.0
C447 C 0.84684 0.50506 0.25148 0.0
C448 C 0.85197 0.53036 0.1698 0.0
C449 C 0.85024 0.51251 0.15067 0.0
C450 C 0.84709 0.50752 0.21656 0.0
C451 C 0.84643 0.49218 0.1654 0.0
C452 C 0.84638 0.48594 0.2657 0.0
C453 C 0.84944 0.52159 0.30233 0.0
N454 N 0.84514 0.49029 0.1975 0.0
N455 N 0.84814 0.52211 0.27028 0.0
H456 H 0.31492 0.8774 0.67649 0.0
H457 H 0.34511 0.83078 0.83328 0.0
H458 H 0.34405 0.83297 0.67459 0.0
H459 H 0.31468 0.87408 0.83346 0.0
H460 H 0.34442 0.83071 0.77529 0.0
H461 H 0.3142 0.87567 0.73415 0.0
C462 C 0.32114 0.86723 0.68819 0.0
C463 C 0.32962 0.85536 0.67065 0.0
C464 C 0.33786 0.84018 0.78806 0.0
C465 C 0.32887 0.85334 0.73687 0.0
C466 C 0.33825 0.84023 0.82116 0.0
C467 C 0.32998 0.85249 0.83828 0.0
C468 C 0.32916 0.85249 0.77198 0.0
C469 C 0.32127 0.86441 0.8213 0.0
C470 C 0.32071 0.86625 0.72118 0.0
C471 C 0.33739 0.84242 0.68716 0.0
N472 N 0.32113 0.86414 0.78915 0.0
N473 N 0.33688 0.8418 0.71938 0.0
H474 H 0.43356 0.33062 0.32334 0.0
H475 H 0.50011 0.33009 0.16639 0.0
H476 H 0.49485 0.32532 0.32501 0.0
H477 H 0.43592 0.32994 0.16633 0.0
H478 H 0.49946 0.32971 0.22438 0.0
H479 H 0.43509 0.3317 0.26568 0.0
C480 C 0.44737 0.32969 0.31159 0.0
C481 C 0.4641 0.32785 0.32907 0.0
C482 C 0.48553 0.32976 0.21164 0.0
C483 C 0.46597 0.32911 0.26285 0.0
C484 C 0.4859 0.33001 0.17854 0.0
C485 C 0.46803 0.33002 0.16145 0.0
C486 C 0.46718 0.32958 0.22774 0.0
C487 C 0.45006 0.32992 0.17847 0.0
C488 C 0.44822 0.33029 0.2786 0.0
C489 C 0.48157 0.3267 0.31249 0.0
N490 N 0.45011 0.3297 0.21062 0.0
N491 N 0.48206 0.32736 0.28027 0.0
H492 H 0.17095 0.48561 0.67825 0.0
H493 H 0.09442 0.43939 0.83524 0.0
H494 H 0.09734 0.442 0.67788 0.0
H495 H 0.16719 0.48757 0.83647 0.0
H496 H 0.09536 0.43995 0.77748 0.0
H497 H 0.17015 0.48627 0.73617 0.0
C498 C 0.15462 0.47618 0.69032 0.0
C499 C 0.13418 0.46371 0.67318 0.0
C500 C 0.11113 0.45045 0.79035 0.0
C501 C 0.13315 0.46439 0.73941 0.0
C502 C 0.11061 0.45014 0.82337 0.0
C503 C 0.13077 0.46343 0.84074 0.0
C504 C 0.13198 0.46409 0.7745 0.0
C505 C 0.15123 0.47704 0.82404 0.0
C506 C 0.15418 0.4766 0.72339 0.0
C507 C 0.11353 0.45185 0.69009 0.0
N508 N 0.15132 0.47697 0.79184 0.0
N509 N 0.11356 0.45245 0.72224 0.0
H510 H 0.67612 0.13744 0.31899 0.0
H511 H 0.62028 0.14401 0.15481 0.0
H512 H 0.61411 0.14128 0.31307 0.0
H513 H 0.67535 0.12893 0.1624 0.0
H514 H 0.62035 0.14755 0.2125 0.0
H515 H 0.6788 0.13912 0.26136 0.0
C516 C 0.66314 0.1388 0.3056 0.0
C517 C 0.64475 0.13902 0.3209 0.0
C518 C 0.63246 0.14355 0.2015 0.0
C519 C 0.6477 0.14088 0.25479 0.0
C520 C 0.63246 0.14155 0.16857 0.0
C521 C 0.64775 0.13604 0.15377 0.0
C522 C 0.64794 0.14012 0.21971 0.0
C523 C 0.66316 0.13307 0.1728 0.0
C524 C 0.66466 0.1397 0.27265 0.0
C525 C 0.62851 0.14092 0.30226 0.0
N526 N 0.66283 0.13511 0.20476 0.0
N527 N 0.6303 0.14166 0.27014 0.0
H528 H 0.16094 0.42458 0.97043 0.0
H529 H 0.28975 0.50059 0.03304 0.0
H530 H 0.19571 0.49823 0.98138 0.0
H531 H 0.25503 0.4267 0.0259 0.0
H532 H 0.25552 0.4999 0.0129 0.0
H533 H 0.19534 0.42481 0.98963 0.0
C534 C 0.17579 0.44078 0.97687 0.0
C535 C 0.17545 0.46141 0.97435 0.0
C536 C 0.25535 0.48382 0.01572 0.0
C537 C 0.21479 0.46181 0.99624 0.0
C538 C 0.27492 0.4842 0.02721 0.0
C539 C 0.27524 0.46367 0.03121 0.0
C540 C 0.23592 0.46274 0.00813 0.0
C541 C 0.25552 0.44295 0.02322 0.0
C542 C 0.19541 0.44091 0.98782 0.0
C543 C 0.19517 0.48191 0.98298 0.0
N544 N 0.23663 0.44301 0.01207 0.0
N545 N 0.21402 0.48157 0.99353 0.0
H546 H 0.7456 0.17357 0.41936 0.0
H547 H 0.7843 0.25086 0.57614 0.0
H548 H 0.69871 0.17066 0.49148 0.0
H549 H 0.83009 0.26049 0.49853 0.0
H550 H 0.75347 0.21846 0.54794 0.0
H551 H 0.77755 0.20267 0.45053 0.0
C552 C 0.74203 0.17897 0.44179 0.0
C553 C 0.71945 0.16981 0.45273 0.0
C554 C 0.77029 0.22761 0.53713 0.0
C555 C 0.75585 0.20299 0.48847 0.0
C556 C 0.78791 0.2461 0.55325 0.0
C557 C 0.80975 0.25852 0.53955 0.0
C558 C 0.77454 0.22149 0.50713 0.0
C559 C 0.81347 0.25149 0.50989 0.0
C560 C 0.76026 0.19559 0.45955 0.0
C561 C 0.71582 0.17739 0.482 0.0
N562 N 0.796 0.2335 0.4946 0.0
N563 N 0.73383 0.19357 0.4988 0.0
H564 H 0.54313 0.83007 0.00238 0.0
H565 H 0.54494 0.71239 0.00677 0.0
H566 H 0.55272 0.80102 0.08832 0.0
H567 H 0.54764 0.74795 0.92025 0.0
H568 H 0.54718 0.74433 0.03716 0.0
H569 H 0.5441 0.79974 0.972 0.0
C570 C 0.54549 0.81733 0.01488 0.0
C571 C 0.54776 0.81803 0.04798 0.0
C572 C 0.5474 0.74519 0.01154 0.0
C573 C 0.54881 0.7832 0.01327 0.0
C574 C 0.54607 0.72695 0.99415 0.0
C575 C 0.54601 0.72747 0.9609 0.0
C576 C 0.54849 0.76403 0.99558 0.0
C577 C 0.54761 0.74681 0.94583 0.0
C578 C 0.5461 0.80005 -0.00252 0.0
C579 C 0.55088 0.80113 0.06285 0.0
N580 N 0.54865 0.76427 0.9633 0.0
N581 N 0.55119 0.78431 0.04539 0.0
H582 H 0.72377 0.56164 0.48157 0.0
H583 H 0.82605 0.53503 0.49012 0.0
H584 H 0.7485 0.54928 0.56956 0.0
H585 H 0.81271 0.56464 0.40776 0.0
H586 H 0.79756 0.53986 0.51962 0.0
H587 H 0.75614 0.56272 0.454 0.0
C588 C 0.73609 0.55929 0.49513 0.0
C589 C 0.73335 0.55518 0.52787 0.0
C590 C 0.80099 0.54546 0.49517 0.0
C591 C 0.77034 0.55624 0.49642 0.0
C592 C 0.81718 0.54263 0.47827 0.0
C593 C 0.82162 0.54929 0.44636 0.0
C594 C 0.78895 0.55477 0.47994 0.0
C595 C 0.80977 0.55921 0.43228 0.0
C596 C 0.75461 0.55997 0.47938 0.0
C597 C 0.74993 0.55243 0.54428 0.0
N598 N 0.7938 0.56145 0.4491 0.0
N599 N 0.76761 0.55277 0.5283 0.0
H600 H 0.25347 0.81968 0.97251 0.0
H601 H 0.19753 0.69355 0.04664 0.0
H602 H 0.28847 0.78075 0.97844 0.0
H603 H 0.15973 0.72886 0.03023 0.0
H604 H 0.23156 0.72614 0.02396 0.0
H605 H 0.21943 0.7873 0.99573 0.0
C606 C 0.254 0.80433 0.97869 0.0
C607 C 0.27385 0.80291 0.97352 0.0
C608 C 0.21583 0.72677 0.0253 0.0
C609 C 0.23497 0.76583 0.00016 0.0
C610 C 0.19639 0.70818 0.03832 0.0
C611 C 0.17574 0.70847 0.0403 0.0
C612 C 0.21466 0.74586 0.01429 0.0
C613 C 0.17528 0.72788 0.02911 0.0
C614 C 0.23455 0.78584 0.99192 0.0
C615 C 0.27355 0.78259 0.98197 0.0
N616 N 0.19447 0.74582 0.0166 0.0
N617 N 0.25443 0.76486 0.99492 0.0
H618 H 0.44284 0.17305 0.50608 0.0
H619 H 0.41955 0.27739 0.53178 0.0
H620 H 0.41686 0.1845 0.59362 0.0
H621 H 0.44129 0.26243 0.44305 0.0
H622 H 0.41742 0.24298 0.55471 0.0
H623 H 0.44144 0.20534 0.48245 0.0
C624 C 0.43678 0.18233 0.52034 0.0
C625 C 0.43005 0.17612 0.55194 0.0
C626 C 0.42255 0.24719 0.53018 0.0
C627 C 0.42844 0.21323 0.52498 0.0
C628 C 0.42378 0.26682 0.51708 0.0
C629 C 0.43072 0.27286 0.48549 0.0
C630 C 0.42838 0.23355 0.51158 0.0
C631 C 0.43593 0.25851 0.46753 0.0
C632 C 0.43596 0.20078 0.5068 0.0
C633 C 0.42225 0.18873 0.5692 0.0
N634 N 0.43475 0.23959 0.48088 0.0
N635 N 0.42176 0.20677 0.55552 0.0
H636 H 0.81624 0.56011 0.01132 0.0
H637 H 0.68563 0.4812 0.95761 0.0
H638 H 0.77668 0.48707 0.02802 0.0
H639 H 0.72333 0.55489 0.94667 0.0
H640 H 0.71921 0.483 0.98239 0.0
H641 H 0.78268 0.55856 0.98662 0.0
C642 C 0.8005 0.54375 0.00982 0.0
C643 C 0.79926 0.52368 0.02173 0.0
C644 C 0.72015 0.49879 0.97458 0.0
C645 C 0.76084 0.52178 0.99345 0.0
C646 C 0.70098 0.49777 0.96038 0.0
C647 C 0.70167 0.51793 0.95006 0.0
C648 C 0.74019 0.52012 0.97844 0.0
C649 C 0.72203 0.53892 0.9543 0.0
C650 C 0.78135 0.54288 0.99573 0.0
C651 C 0.77842 0.50297 0.01917 0.0
N652 N 0.74049 0.53946 0.96816 0.0
N653 N 0.76005 0.50256 0.00527 0.0
H654 H 0.18432 0.7557 0.42125 0.0
H655 H 0.23844 0.80501 0.59182 0.0
H656 H 0.15814 0.71773 0.5084 0.0
H657 H 0.27319 0.83457 0.50355 0.0
H658 H 0.20566 0.77587 0.56192 0.0
H659 H 0.21385 0.78788 0.45161 0.0
C660 C 0.18466 0.7542 0.44677 0.0
C661 C 0.1689 0.73394 0.4623 0.0
C662 C 0.22044 0.78882 0.54914 0.0
C663 C 0.20254 0.77062 0.49709 0.0
C664 C 0.23912 0.80546 0.56618 0.0
C665 C 0.25864 0.8221 0.55015 0.0
C666 C 0.22126 0.78894 0.51588 0.0
C667 C 0.25857 0.82192 0.51688 0.0
C668 C 0.20155 0.77253 0.46406 0.0
C669 C 0.1701 0.73295 0.49543 0.0
N670 N 0.24019 0.80556 0.50085 0.0
N671 N 0.18669 0.75101 0.51172 0.0
H672 H 0.49857 0.20108 0.96025 0.0
H673 H 0.42719 0.25634 0.0323 0.0
H674 H 0.42531 0.163 0.97482 0.0
H675 H 0.50063 0.2936 0.01942 0.0
H676 H 0.42606 0.2219 0.01152 0.0
H677 H 0.49956 0.23511 0.98207 0.0
C678 C 0.48267 0.19986 0.96805 0.0
C679 C 0.46181 0.17916 0.96567 0.0
C680 C 0.44242 0.23761 0.01327 0.0
C681 C 0.46283 0.21811 0.99069 0.0
C682 C 0.44308 0.25728 0.02513 0.0
C683 C 0.46404 0.2779 0.02756 0.0
C684 C 0.46286 0.23856 0.00375 0.0
C685 C 0.48409 0.2781 0.01794 0.0
C686 C 0.48326 0.21932 0.98053 0.0
C687 C 0.44177 0.17861 0.9762 0.0
N688 N 0.48299 0.25874 0.00643 0.0
N689 N 0.44278 0.19782 0.98823 0.0
H690 H 0.19688 0.50595 0.52398 0.0
H691 H 0.25291 0.43112 0.46858 0.0
H692 H 0.16386 0.43246 0.53605 0.0
H693 H 0.28552 0.50467 0.45765 0.0
H694 H 0.21983 0.431 0.49266 0.0
H695 H 0.22936 0.50559 0.49914 0.0
C696 C 0.19646 0.48972 0.52143 0.0
C697 C 0.17763 0.4692 0.53211 0.0
C698 C 0.23422 0.44715 0.48494 0.0
C699 C 0.21478 0.46866 0.50362 0.0
C700 C 0.25309 0.44723 0.47117 0.0
C701 C 0.27201 0.46794 0.46113 0.0
C702 C 0.2343 0.46794 0.4887 0.0
C703 C 0.27132 0.4883 0.46506 0.0
C704 C 0.21502 0.48953 0.50721 0.0
C705 C 0.17804 0.44869 0.52816 0.0
N706 N 0.25279 0.48778 0.47857 0.0
N707 N 0.19634 0.44894 0.51421 0.0
H708 H 0.77946 0.29753 0.95521 0.0
H709 H 0.7274 0.16846 0.01707 0.0
H710 H 0.81791 0.26195 0.95914 0.0
H711 H 0.69146 0.2065 0.02251 0.0
H712 H 0.76016 0.202 0.99359 0.0
H713 H 0.7464 0.26372 0.97765 0.0
C714 C 0.78095 0.2826 0.96075 0.0
C715 C 0.80149 0.28257 0.95533 0.0
C716 C 0.74511 0.20301 -7e-05 0.0
C717 C 0.76372 0.24383 0.98099 0.0
C718 C 0.72639 0.18386 0.0133 0.0
C719 C 0.70668 0.1847 0.0218 0.0
C720 C 0.74409 0.22312 0.99491 0.0
C721 C 0.70632 0.2051 0.01638 0.0
C722 C 0.76207 0.26332 0.9736 0.0
C723 C 0.80243 0.26275 0.96298 0.0
N724 N 0.72476 0.22351 0.00326 0.0
N725 N 0.7838 0.24417 0.9754 0.0
H726 H 0.56084 0.80709 0.42102 0.0
H727 H 0.56346 0.7531 0.58868 0.0
H728 H 0.54971 0.83214 0.50961 0.0
H729 H 0.54879 0.71615 0.50025 0.0
H730 H 0.56573 0.78596 0.56007 0.0
H731 H 0.56401 0.77734 0.45008 0.0
C732 C 0.55924 0.80645 0.44659 0.0
C733 C 0.55479 0.82195 0.46291 0.0
C734 C 0.5621 0.77065 0.54702 0.0
C735 C 0.55849 0.7881 0.49622 0.0
C736 C 0.56088 0.75197 0.56327 0.0
C737 C 0.55575 0.73185 0.54682 0.0
C738 C 0.55854 0.76924 0.51411 0.0
C739 C 0.55255 0.73126 0.5139 0.0
C740 C 0.56097 0.78943 0.46313 0.0
C741 C 0.55292 0.82036 0.49608 0.0
N742 N 0.55402 0.74969 0.49863 0.0
N743 N 0.55475 0.80368 0.51167 0.0
H744 H 0.30524 0.36281 0.1057 0.0
H745 H 0.39743 0.34138 0.01771 0.0
H746 H 0.34162 0.39816 0.02087 0.0
H747 H 0.36482 0.30879 0.10585 0.0
H748 H 0.37104 0.35609 0.01279 0.0
H749 H 0.3208 0.337 0.10041 0.0
C750 C 0.31618 0.36492 0.08568 0.0
C751 C 0.32249 0.38295 0.06403 0.0
C752 C 0.36943 0.34547 0.03301 0.0
C753 C 0.34042 0.35358 0.05794 0.0
C754 C 0.3845 0.33704 0.03583 0.0
C755 C 0.38361 0.3242 0.06255 0.0
C756 C 0.35348 0.34122 0.05722 0.0
C757 C 0.3663 0.31886 0.08504 0.0
C758 C 0.3251 0.3502 0.08271 0.0
C759 C 0.33659 0.38474 0.03842 0.0
N760 N 0.35213 0.32771 0.08213 0.0
N761 N 0.3453 0.37044 0.03632 0.0
H762 H 0.05114 0.36512 0.61664 0.0
H763 H 0.93909 0.33585 0.51842 0.0
H764 H 0.05092 0.39688 0.52783 0.0
H765 H 0.93781 0.30589 0.60942 0.0
H766 H 0.98047 0.35191 0.51629 0.0
H767 H 0.01046 0.33724 0.60922 0.0
C768 C 0.04265 0.36599 0.59532 0.0
C769 C 0.05429 0.38364 0.57314 0.0
C770 C 0.97114 0.34157 0.53656 0.0
C771 C 0.00783 0.35193 0.56461 0.0
C772 C 0.94748 0.33239 0.53778 0.0
C773 C 0.93506 0.31991 0.56444 0.0
C774 C 0.98251 0.3385 0.56234 0.0
C775 C 0.94677 0.31566 0.58859 0.0
C776 C 0.01942 0.35009 0.59113 0.0
C777 C 0.0425 0.38383 0.54584 0.0
N778 N 0.96994 0.32529 0.58723 0.0
N779 N 0.01987 0.36842 0.54256 0.0
H780 H 0.61977 0.94068 0.11863 0.0
H781 H 0.64546 0.05284 0.02157 0.0
H782 H 0.58598 0.94032 0.03154 0.0
H783 H 0.67335 0.0546 0.11431 0.0
H784 H 0.63003 0.01148 0.01983 0.0
H785 H 0.64558 0.98201 0.1124 0.0
C786 C 0.61799 0.94921 0.09796 0.0
C787 C 0.60046 0.93711 0.07583 0.0
C788 C 0.63976 0.02093 0.04042 0.0
C789 C 0.62985 0.98431 0.06862 0.0
C790 C 0.64862 0.04458 0.04142 0.0
C791 C 0.66036 0.05715 0.06839 0.0
C792 C 0.64252 0.0097 0.06666 0.0
C793 C 0.66417 0.04555 0.0932 0.0
C794 C 0.6327 0.9728 0.09447 0.0
C795 C 0.59904 0.94902 0.04943 0.0
N796 N 0.65498 0.0224 0.09194 0.0
N797 N 0.61338 0.97198 0.04674 0.0
H798 H 0.64514 0.59193 0.50814 0.0
H799 H 0.62275 0.67998 0.60612 0.0
H800 H 0.68046 0.62404 0.59501 0.0
H801 H 0.58669 0.6457 0.52065 0.0
H802 H 0.64897 0.66521 0.59762 0.0
H803 H 0.62877 0.61704 0.50742 0.0
C804 C 0.64967 0.60446 0.52689 0.0
C805 C 0.66386 0.60562 0.55198 0.0
C806 C 0.6355 0.66119 0.58052 0.0
C807 C 0.64496 0.6343 0.55149 0.0
C808 C 0.62055 0.66964 0.58533 0.0
C809 C 0.60225 0.6637 0.56437 0.0
C810 C 0.63207 0.64671 0.55459 0.0
C811 C 0.60032 0.65039 0.53771 0.0
C812 C 0.64031 0.61882 0.52647 0.0
C813 C 0.66939 0.6224 0.57539 0.0
N814 N 0.61486 0.64214 0.5338 0.0
N815 N 0.65964 0.63587 0.57484 0.0
H816 H 0.93158 0.59544 0.01947 0.0
H817 H 0.04309 0.67576 0.12095 0.0
H818 H 0.92955 0.61822 0.11444 0.0
H819 H 0.044 0.64935 0.02806 0.0
H820 H 0.00197 0.66123 0.11504 0.0
H821 H 0.97288 0.62147 0.01831 0.0
C822 C 0.93977 0.60615 0.03995 0.0
C823 C 0.92714 0.60434 0.06732 0.0
C824 C 0.01125 0.65891 0.09578 0.0
C825 C 0.97454 0.63404 0.06626 0.0
C826 C 0.03474 0.66725 0.0991 0.0
C827 C 0.04692 0.66339 0.0752 0.0
C828 C -0.0001 0.64663 0.06837 0.0
C829 C 0.03524 0.65239 0.04733 0.0
C830 C 0.96339 0.62102 0.03927 0.0
C831 C 0.93865 0.61886 0.09297 0.0
N832 N 0.01235 0.64416 0.04485 0.0
N833 N 0.96177 0.63286 0.092 0.0
H834 H 0.36154 0.05466 0.61192 0.0
H835 H 0.34807 0.94192 0.53066 0.0
H836 H 0.39768 0.05443 0.52751 0.0
H837 H 0.30936 0.94071 0.61292 0.0
H838 H 0.36205 0.98282 0.5248 0.0
H839 H 0.33785 0.0129 0.60824 0.0
C840 C 0.36424 0.04589 0.59232 0.0
C841 C 0.38189 0.058 0.57032 0.0
C842 C 0.35031 0.97361 0.54396 0.0
C843 C 0.35501 0.01028 0.56612 0.0
C844 C 0.34235 0.95024 0.54736 0.0
C845 C 0.32783 0.93798 0.57262 0.0
C846 C 0.34391 0.98492 0.5662 0.0
C847 C 0.32071 0.94957 0.59326 0.0
C848 C 0.35074 0.02204 0.59027 0.0
C849 C 0.38451 0.04577 0.5453 0.0
N850 N 0.3291 0.9725 0.58987 0.0
N851 N 0.37144 0.02257 0.54413 0.0
H852 H 0.61532 0.67788 0.87928 0.0
H853 H 0.63906 0.5835 0.95641 0.0
H854 H 0.58429 0.64134 0.96594 0.0
H855 H 0.66737 0.61634 0.86665 0.0
H856 H 0.62458 0.60981 0.96479 0.0
H857 H 0.63998 0.66079 0.87882 0.0
C858 C 0.61394 0.66657 0.89847 0.0
C859 C 0.59747 0.66075 0.92242 0.0
C860 C 0.63417 0.61146 0.9434 0.0
C861 C 0.62551 0.64108 0.92195 0.0
C862 C 0.64247 0.59643 0.9386 0.0
C863 C 0.65413 0.59748 0.91054 0.0
C864 C 0.63737 0.62757 0.91987 0.0
C865 C 0.65827 0.61477 0.88849 0.0
C866 C 0.62798 0.65677 0.89815 0.0
C867 C 0.59651 0.64607 0.94676 0.0
N868 N 0.64962 0.62895 0.89343 0.0
N869 N 0.61014 0.63656 0.9457 0.0
H870 H 0.93151 0.58965 0.38992 0.0
H871 H 0.05154 0.6441 0.47781 0.0
H872 H 0.93844 0.58104 0.48993 0.0
H873 H 0.04358 0.66049 0.38142 0.0
H874 H 0.01 0.62401 0.48421 0.0
H875 H 0.9721 0.61847 0.38764 0.0
C876 C 0.94154 0.59397 0.41149 0.0
C877 C 0.93166 0.5827 0.44009 0.0
C878 C 0.01733 0.63224 0.46178 0.0
C879 C 0.9782 0.6156 0.43759 0.0
C880 C 0.04106 0.64371 0.45809 0.0
C881 C 0.05102 0.65372 0.42888 0.0
C882 C 0.00342 0.63055 0.43598 0.0
C883 C 0.03662 0.65287 0.40427 0.0
C884 C 0.96472 0.61049 0.41018 0.0
C885 C 0.9454 0.58919 0.46734 0.0
N886 N 0.01351 0.64118 0.40824 0.0
N887 N 0.96807 0.60501 0.46534 0.0
H888 H 0.39415 0.04735 0.97823 0.0
H889 H 0.30319 0.93116 0.89382 0.0
H890 H 0.36064 0.04493 0.88994 0.0
H891 H 0.34127 0.9346 0.97792 0.0
H892 H 0.31811 0.97251 0.89767 0.0
H893 H 0.36894 0.00608 0.98408 0.0
C894 C 0.38128 0.03819 0.96026 0.0
C895 C 0.37979 0.04955 0.93325 0.0
C896 C 0.32294 0.96415 0.91552 0.0
C897 C 0.35098 0.00219 0.93967 0.0
C898 C 0.31439 0.94052 0.91338 0.0
C899 C 0.32132 0.92948 0.93527 0.0
C900 C 0.33851 0.97676 0.93971 0.0
C901 C 0.33574 0.94245 0.96024 0.0
C902 C 0.36689 0.0146 0.96361 0.0
C903 C 0.36258 0.03683 0.91096 0.0
N904 N 0.34406 0.96544 0.96155 0.0
N905 N 0.34905 0.01375 0.91443 0.0
H906 H 0.3039 0.36936 0.38794 0.0
H907 H 0.39849 0.34946 0.47154 0.0
H908 H 0.34172 0.40541 0.47151 0.0
H909 H 0.36234 0.31395 0.38674 0.0
H910 H 0.37276 0.3649 0.47709 0.0
H911 H 0.31991 0.34388 0.39235 0.0
C912 C 0.31527 0.3717 0.40751 0.0
C913 C 0.32182 0.38981 0.42906 0.0
C914 C 0.37025 0.35352 0.45744 0.0
C915 C 0.34027 0.36084 0.43411 0.0
C916 C 0.38497 0.34471 0.45424 0.0
C917 C 0.38281 0.33073 0.42831 0.0
C918 C 0.35338 0.34853 0.43437 0.0
C919 C 0.36477 0.32487 0.40691 0.0
C920 C 0.32444 0.35717 0.40997 0.0
C921 C 0.33648 0.39191 0.45405 0.0
N922 N 0.35094 0.33409 0.41015 0.0
N923 N 0.34542 0.37779 0.45565 0.0
H924 H 0.04594 0.36211 0.89523 0.0
H925 H 0.93104 0.34496 0.97331 0.0
H926 H 0.04329 0.39657 0.98006 0.0
H927 H 0.93269 0.31006 0.88838 0.0
H928 H 0.97158 0.35827 0.98159 0.0
H929 H 0.00432 0.33732 0.89784 0.0
C930 C 0.03668 0.36421 0.91472 0.0
C931 C 0.04805 0.38176 0.9371 0.0
C932 C 0.96304 0.34745 0.96135 0.0
C933 C 0.00047 0.35359 0.94007 0.0
C934 C 0.93986 0.33985 0.9566 0.0
C935 C 0.92857 0.32674 0.92979 0.0
C936 C 0.97511 0.34214 0.93894 0.0
C937 C 0.94079 0.32037 0.90918 0.0
C938 C 0.0129 0.35007 0.91615 0.0
C939 C 0.0352 0.38354 0.96197 0.0
N940 N 0.96352 0.32845 0.91391 0.0
N941 N 0.01207 0.36987 0.96252 0.0
H942 H 0.57768 0.9392 0.48368 0.0
H943 H 0.65275 0.05965 0.39956 0.0
H944 H 0.61111 0.94724 0.39344 0.0
H945 H 0.62991 0.05262 0.49663 0.0
H946 H 0.64031 0.01883 0.39853 0.0
H947 H 0.59923 0.98075 0.49076 0.0
C948 C 0.58975 0.9497 0.4655 0.0
C949 C 0.59238 0.93978 0.43772 0.0
C950 C 0.63827 0.02624 0.4202 0.0
C951 C 0.61695 0.98737 0.44556 0.0
C952 C 0.64531 0.04955 0.42078 0.0
C953 C 0.64207 0.05947 0.44811 0.0
C954 C 0.62763 0.01267 0.44699 0.0
C955 C 0.63259 0.04563 0.475 0.0
C956 C 0.60208 0.97343 0.46959 0.0
C957 C 0.60841 0.95418 0.41512 0.0
N958 N 0.6254 0.02284 0.47363 0.0
N959 N 0.61987 0.97729 0.41934 0.0
H960 H 0.4651 0.60973 0.96853 0.0
H961 H 0.41567 0.48468 0.04447 0.0
H962 H 0.50398 0.57474 0.97581 0.0
H963 H 0.37418 0.51572 0.02539 0.0
H964 H 0.44878 0.51841 0.02191 0.0
H965 H 0.43209 0.57622 0.99174 0.0
C966 C 0.46671 0.59501 0.975 0.0
C967 C 0.48734 0.59503 0.97019 0.0
C968 C 0.43243 0.51783 0.02264 0.0
C969 C 0.44963 0.55666 0.99684 0.0
C970 C 0.41352 0.4986 0.03559 0.0
C971 C 0.39211 0.49735 0.03677 0.0
C972 C 0.42995 0.53603 0.01093 0.0
C973 C 0.39035 0.51591 0.02489 0.0
C974 C 0.44784 0.57587 0.98822 0.0
C975 C 0.48841 0.57547 0.97902 0.0
N976 N 0.40902 0.53448 0.01249 0.0
N977 N 0.46984 0.55709 0.99196 0.0
H978 H 0.92602 0.40911 0.52565 0.0
H979 H 0.84919 0.45848 0.45466 0.0
H980 H 0.85238 0.36886 0.51689 0.0
H981 H 0.92297 0.4936 0.44691 0.0
H982 H 0.84998 0.42634 0.4804 0.0
H983 H 0.92519 0.44121 0.49988 0.0
C984 C 0.90967 0.40702 0.51835 0.0
C985 C 0.88924 0.38625 0.5234 0.0
C986 C 0.86599 0.44106 0.473 0.0
C987 C 0.88818 0.42295 0.49393 0.0
C988 C 0.86556 0.45943 0.45835 0.0
C989 C 0.88605 0.47876 0.4486 0.0
C990 C 0.88707 0.44207 0.47817 0.0
C991 C 0.90675 0.47903 0.45396 0.0
C992 C 0.90922 0.42534 0.50356 0.0
C993 C 0.86856 0.38453 0.5134 0.0
N994 N 0.90673 0.46098 0.46848 0.0
N995 N 0.86855 0.40266 0.4992 0.0
H996 H 0.41429 0.92276 0.95709 0.0
H997 H 0.46605 0.85267 0.04341 0.0
H998 H 0.37421 0.85064 0.97979 0.0
H999 H 0.50312 0.92629 0.03167 0.0
H1000 H 0.4326 0.85125 0.0185 0.0
H1001 H 0.44751 0.924 0.98227 0.0
C1002 C 0.41247 0.90716 0.9673 0.0
C1003 C 0.39141 0.88656 0.96635 0.0
C1004 C 0.44804 0.86771 0.02145 0.0
C1005 C 0.42942 0.88788 0.99528 0.0
C1006 C 0.46715 0.86854 0.03567 0.0
C1007 C 0.48743 0.88963 0.03963 0.0
C1008 C 0.44925 0.88811 0.01094 0.0
C1009 C 0.48785 0.90965 0.02916 0.0
C1010 C 0.43145 0.9079 0.98177 0.0
C1011 C 0.3901 0.8669 0.98002 0.0
N1012 N 0.46907 0.90838 0.01521 0.0
N1013 N 0.40885 0.86805 0.9939 0.0
H1014 H 0.49652 0.37789 0.49437 0.0
H1015 H 0.61882 0.49145 0.47833 0.0
H1016 H 0.52555 0.41012 0.40455 0.0
H1017 H 0.58006 0.47102 0.5655 0.0
H1018 H 0.58695 0.45898 0.45149 0.0
H1019 H 0.52929 0.40925 0.5214 0.0
C1020 C 0.50983 0.39151 0.48031 0.0
C1021 C 0.50827 0.39143 0.44714 0.0
C1022 C 0.58545 0.46162 0.47649 0.0
C1023 C 0.54582 0.42728 0.47795 0.0
C1024 C 0.60365 0.48008 0.49186 0.0
C1025 C 0.60205 0.48399 0.52419 0.0
C1026 C 0.56562 0.44679 0.49364 0.0
C1027 C 0.58197 0.46872 0.54052 0.0
C1028 C 0.52848 0.40944 0.49578 0.0
C1029 C 0.526 0.40955 0.43016 0.0
N1030 N 0.56455 0.45075 0.52508 0.0
N1031 N 0.54409 0.42674 0.44576 0.0
H1032 H 0.12025 0.50003 0.00457 0.0
H1033 H 0.09569 0.60476 0.00164 0.0
H1034 H 0.08802 0.51391 0.92585 0.0
H1035 H 0.12454 0.58811 0.08177 0.0
H1036 H 0.09312 0.57194 0.97313 0.0
H1037 H 0.12237 0.53262 0.03276 0.0
C1038 C 0.11359 0.50992 0.99319 0.0
C1039 C 0.10392 0.5042 0.96277 0.0
C1040 C 0.09999 0.57546 0.99695 0.0
C1041 C 0.10633 0.54166 0.99502 0.0
C1042 C 0.10148 0.5942 0.01326 0.0
C1043 C 0.11035 0.5992 0.04417 0.0
C1044 C 0.10748 0.56163 0.01162 0.0
C1045 C 0.11758 0.58492 0.05801 0.0
C1046 C 0.1148 0.52856 0.00934 0.0
C1047 C 0.0956 0.51769 0.94925 0.0
N1048 N 0.116 0.56681 0.04163 0.0
N1049 N 0.09701 0.53581 0.96548 0.0
H1050 H 0.47901 0.06789 0.53817 0.0
H1051 H 0.60267 0.14275 0.45896 0.0
H1052 H 0.51273 0.14151 0.52743 0.0
H1053 H 0.56342 0.06877 0.45424 0.0
H1054 H 0.57088 0.14271 0.48685 0.0
H1055 H 0.51096 0.06799 0.51063 0.0
C1056 C 0.49317 0.0841 0.53013 0.0
C1057 C 0.49318 0.10473 0.53506 0.0
C1058 C 0.5692 0.12649 0.47964 0.0
C1059 C 0.52979 0.10494 0.50348 0.0
C1060 C 0.58735 0.12649 0.46373 0.0
C1061 C 0.5857 0.10572 0.45424 0.0
C1062 C 0.54929 0.10557 0.48633 0.0
C1063 C 0.56542 0.08519 0.46104 0.0
C1064 C 0.51136 0.08412 0.51429 0.0
C1065 C 0.51197 0.12519 0.52407 0.0
N1066 N 0.54804 0.08563 0.47677 0.0
N1067 N 0.52953 0.12478 0.50882 0.0
H1068 H 0.47994 0.41554 0.02671 0.0
H1069 H 0.60363 0.46491 0.94696 0.0
H1070 H 0.51533 0.37706 0.01918 0.0
H1071 H 0.56552 0.50087 0.94675 0.0
H1072 H 0.57174 0.43282 0.97424 0.0
H1073 H 0.51158 0.4474 -0.00131 0.0
C1074 C 0.49438 0.4138 0.01925 0.0
C1075 C 0.49497 0.39359 0.02531 0.0
C1076 C 0.57032 0.4477 0.96815 0.0
C1077 C 0.53125 0.43 0.99314 0.0
C1078 C 0.58853 0.46604 0.95255 0.0
C1079 C 0.58726 0.48563 0.94458 0.0
C1080 C 0.55072 0.44898 0.97598 0.0
C1081 C 0.56725 0.48611 0.95241 0.0
C1082 C 0.51242 0.43199 0.00316 0.0
C1083 C 0.51413 0.39231 0.01501 0.0
N1084 N 0.5498 0.46809 0.96777 0.0
N1085 N 0.5315 0.41027 -0.00055 0.0
H1086 H 0.07504 0.57347 0.45427 0.0
H1087 H 0.14276 0.54244 0.5819 0.0
H1088 H 0.14045 0.62372 0.4931 0.0
H1089 H 0.09006 0.49188 0.52135 0.0
H1090 H 0.13974 0.5726 0.55364 0.0
H1091 H 0.07805 0.54333 0.48248 0.0
C1092 C 0.09005 0.57816 0.46869 0.0
C1093 C 0.10753 0.60113 0.47134 0.0
C1094 C 0.12887 0.55489 0.54656 0.0
C1095 C 0.11096 0.56678 0.50386 0.0
C1096 C 0.13049 0.53767 0.56277 0.0
C1097 C 0.11665 0.51462 0.55392 0.0
C1098 C 0.11312 0.54898 0.52161 0.0
C1099 C 0.10111 0.50944 0.52888 0.0
C1100 C 0.09177 0.56095 0.48472 0.0
C1101 C 0.12662 0.60621 0.4903 0.0
N1102 N 0.09971 0.52648 0.51366 0.0
N1103 N 0.12777 0.58918 0.50599 0.0
H1104 H 0.56954 0.06053 0.03204 0.0
H1105 H 0.51302 0.13204 0.96493 0.0
H1106 H 0.60697 0.13388 0.01746 0.0
H1107 H 0.47819 0.05797 0.96541 0.0
H1108 H 0.54714 0.13299 0.98623 0.0
H1109 H 0.53539 0.05918 0.0097 0.0
C1110 C 0.57059 0.07634 0.02413 0.0
C1111 C 0.59114 0.09735 0.02663 0.0
C1112 C 0.53206 0.11652 0.98162 0.0
C1113 C 0.55214 0.09593 0.00114 0.0
C1114 C 0.51254 0.11596 0.96951 0.0
C1115 C 0.4927 0.09488 0.9634 0.0
C1116 C 0.53174 0.09586 0.98787 0.0
C1117 C 0.49311 0.0746 0.96973 0.0
C1118 C 0.5511 0.07555 0.01133 0.0
C1119 C 0.59151 0.1173 0.01596 0.0
N1120 N 0.51231 0.0756 0.98172 0.0
N1121 N 0.57229 0.1161 0.00377 0.0
H1122 H 0.4481 0.59346 0.57896 0.0
H1123 H 0.41392 0.51927 0.41937 0.0
H1124 H 0.49356 0.60997 0.49878 0.0
H1125 H 0.36596 0.50859 0.49438 0.0
H1126 H 0.44376 0.55184 0.44878 0.0
H1127 H 0.41812 0.56143 0.549 0.0
C1128 C 0.45177 0.59039 0.55505 0.0
C1129 C 0.47338 0.60443 0.54138 0.0
C1130 C 0.42669 0.54238 0.45876 0.0
C1131 C 0.43916 0.56777 0.50697 0.0
C1132 C 0.40966 0.52376 0.442 0.0
C1133 C 0.38742 0.51117 0.45444 0.0
C1134 C 0.42146 0.54835 0.48825 0.0
C1135 C 0.38286 0.51782 0.48384 0.0
C1136 C 0.43464 0.57211 0.53794 0.0
C1137 C 0.47716 0.5996 0.5103 0.0
N1138 N 0.39974 0.5359 0.49978 0.0
N1139 N 0.46024 0.58166 0.49418 0.0
H1140 H 0.84886 0.3824 0.95473 0.0
H1141 H 0.92287 0.51035 0.02151 0.0
H1142 H 0.92283 0.42106 0.95216 0.0
H1143 H 0.84916 0.47465 0.01233 0.0
H1144 H 0.92328 0.47751 -0.00259 0.0
H1145 H 0.84869 0.41578 0.97703 0.0
C1146 C 0.86508 0.39793 0.9588 0.0
C1147 C 0.88591 0.39892 0.95161 0.0
C1148 C 0.90703 0.4769 0.0006 0.0
C1149 C 0.88583 0.43721 0.97726 0.0
C1150 C 0.90677 0.49562 0.01441 0.0
C1151 C 0.88595 0.49524 0.01897 0.0
C1152 C 0.8863 0.4576 0.99143 0.0
C1153 C 0.86563 0.47571 0.00926 0.0
C1154 C 0.86497 0.417 0.97151 0.0
C1155 C 0.90638 0.41952 0.95733 0.0
N1156 N 0.86631 0.45766 0.99604 0.0
N1157 N 0.90583 0.43783 0.96993 0.0
H1158 H 0.47253 0.8962 0.41111 0.0
H1159 H 0.38359 0.85922 0.55488 0.0
H1160 H 0.47219 0.85566 0.49068 0.0
H1161 H 0.37866 0.89216 0.4698 0.0
H1162 H 0.41627 0.85801 0.53194 0.0
H1163 H 0.43823 0.89506 0.43231 0.0
C1164 C 0.4652 0.88699 0.43298 0.0
C1165 C 0.4753 0.87608 0.44921 0.0
C1166 C 0.40799 0.86543 0.51824 0.0
C1167 C 0.43609 0.8748 0.47368 0.0
C1168 C 0.38935 0.86617 0.53135 0.0
C1169 C 0.37841 0.87587 0.51426 0.0
C1170 C 0.41584 0.87457 0.48788 0.0
C1171 C 0.38658 0.88454 0.48384 0.0
C1172 C 0.4456 0.88633 0.44506 0.0
C1173 C 0.46501 0.86434 0.4774 0.0
N1174 N 0.40486 0.88377 0.47167 0.0
N1175 N 0.44604 0.86411 0.48881 0.0
loop_
_geom_bond_atom_site_label_1
_geom_bond_atom_site_label_2
_geom_bond_distance
_geom_bond_site_symmetry_2
_ccdc_geom_bond_type
C0 O1 1.160 . S
C0 O7 1.185 . S
O1 C0 1.160 . S
O2 Zn3 1.899 . S
O2 C10 1.284 . S
Zn3 O2 1.899 . S
Zn3 O4 2.032 . S
Zn3 O7 2.086 . S
Zn3 O12 1.977 . S
O4 Zn3 2.032 . S
O4 C8 1.278 . S
C5 O6 1.203 . S
C5 O12 1.267 . S
O6 C5 1.203 . S
O7 C0 1.185 . S
O7 Zn3 2.086 . S
C8 O4 1.278 . S
C8 O9 1.211 . S
O9 C8 1.211 . S
C10 O2 1.284 . S
C10 O11 1.273 . S
O11 C10 1.273 . S
O12 Zn3 1.977 . S
O12 C5 1.267 . S
C13 O14 1.160 . S
C13 O20 1.185 . S
O14 C13 1.160 . S
O15 Zn16 1.899 . S
O15 C23 1.284 . S
Zn16 O15 1.899 . S
Zn16 O17 2.032 . S
Zn16 O20 2.086 . S
Zn16 O25 1.977 . S
O17 Zn16 2.032 . S
O17 C21 1.278 . S
C18 O19 1.203 . S
C18 O25 1.267 . S
O19 C18 1.203 . S
O20 C13 1.185 . S
O20 Zn16 2.086 . S
C21 O17 1.278 . S
C21 O22 1.211 . S
O22 C21 1.211 . S
C23 O15 1.284 . S
C23 O24 1.273 . S
O24 C23 1.273 . S
O25 Zn16 1.977 . S
O25 C18 1.267 . S
C26 O27 1.160 . S
C26 O33 1.185 . S
O27 C26 1.160 . S
O28 Zn29 1.899 . S
O28 C36 1.284 . S
Zn29 O28 1.899 . S
Zn29 O30 2.032 . S
Zn29 O33 2.086 . S
Zn29 O38 1.977 . S
O30 Zn29 2.032 . S
O30 C34 1.278 . S
C31 O32 1.203 . S
C31 O38 1.267 . S
O32 C31 1.203 . S
O33 C26 1.185 . S
O33 Zn29 2.086 . S
C34 O30 1.278 . S
C34 O35 1.211 . S
O35 C34 1.211 . S
C36 O28 1.284 . S
C36 O37 1.273 . S
O37 C36 1.273 . S
O38 Zn29 1.977 . S
O38 C31 1.267 . S
C39 O40 1.160 . S
C39 O46 1.185 . S
O40 C39 1.160 . S
O41 Zn42 1.899 . S
O41 C49 1.284 . S
Zn42 O41 1.899 . S
Zn42 O43 2.032 . S
Zn42 O46 2.086 . S
Zn42 O51 1.977 . S
O43 Zn42 2.032 . S
O43 C47 1.278 . S
C44 O45 1.203 . S
C44 O51 1.267 . S
O45 C44 1.203 . S
O46 C39 1.185 . S
O46 Zn42 2.086 . S
C47 O43 1.278 . S
C47 O48 1.211 . S
O48 C47 1.211 . S
C49 O41 1.284 . S
C49 O50 1.273 . S
O50 C49 1.273 . S
O51 Zn42 1.977 . S
O51 C44 1.267 . S
C52 O53 1.160 . S
C52 O59 1.185 . S
O53 C52 1.160 . S
O54 Zn55 1.899 . S
O54 C62 1.284 . S
Zn55 O54 1.899 . S
Zn55 O56 2.032 . S
Zn55 O59 2.086 . S
Zn55 O64 1.977 . S
O56 Zn55 2.032 . S
O56 C60 1.278 . S
C57 O58 1.203 . S
C57 O64 1.267 . S
O58 C57 1.203 . S
O59 C52 1.185 . S
O59 Zn55 2.086 . S
C60 O56 1.278 . S
C60 O61 1.211 . S
O61 C60 1.211 . S
C62 O54 1.284 . S
C62 O63 1.273 . S
O63 C62 1.273 . S
O64 Zn55 1.977 . S
O64 C57 1.267 . S
C65 O66 1.160 . S
C65 O72 1.185 . S
O66 C65 1.160 . S
O67 Zn68 1.899 . S
O67 C75 1.284 . S
Zn68 O67 1.899 . S
Zn68 O69 2.032 . S
Zn68 O72 2.086 . S
Zn68 O77 1.977 . S
O69 Zn68 2.032 . S
O69 C73 1.278 . S
C70 O71 1.203 . S
C70 O77 1.267 . S
O71 C70 1.203 . S
O72 C65 1.185 . S
O72 Zn68 2.086 . S
C73 O69 1.278 . S
C73 O74 1.211 . S
O74 C73 1.211 . S
C75 O67 1.284 . S
C75 O76 1.273 . S
O76 C75 1.273 . S
O77 Zn68 1.977 . S
O77 C70 1.267 . S
C78 O79 1.160 . S
C78 O85 1.185 . S
O79 C78 1.160 . S
O80 Zn81 1.899 . S
O80 C88 1.284 . S
Zn81 O80 1.899 . S
Zn81 O82 2.032 . S
Zn81 O85 2.086 . S
Zn81 O90 1.977 . S
O82 Zn81 2.032 . S
O82 C86 1.278 . S
C83 O84 1.203 . S
C83 O90 1.267 . S
O84 C83 1.203 . S
O85 C78 1.185 . S
O85 Zn81 2.086 . S
C86 O82 1.278 . S
C86 O87 1.211 . S
O87 C86 1.211 . S
C88 O80 1.284 . S
C88 O89 1.273 . S
O89 C88 1.273 . S
O90 Zn81 1.977 . S
O90 C83 1.267 . S
C91 O92 1.160 . S
C91 O98 1.185 . S
O92 C91 1.160 . S
O93 Zn94 1.899 . S
O93 C101 1.284 . S
Zn94 O93 1.899 . S
Zn94 O95 2.032 . S
Zn94 O98 2.086 . S
Zn94 O103 1.977 . S
O95 Zn94 2.032 . S
O95 C99 1.278 . S
C96 O97 1.203 . S
C96 O103 1.267 . S
O97 C96 1.203 . S
O98 C91 1.185 . S
O98 Zn94 2.086 . S
C99 O95 1.278 . S
C99 O100 1.211 . S
O100 C99 1.211 . S
C101 O93 1.284 . S
C101 O102 1.273 . S
O102 C101 1.273 . S
O103 Zn94 1.977 . S
O103 C96 1.267 . S
C104 O105 1.160 . S
C104 O111 1.185 . S
O105 C104 1.160 . S
O106 Zn107 1.899 . S
O106 C114 1.284 . S
Zn107 O106 1.899 . S
Zn107 O108 2.032 . S
Zn107 O111 2.086 . S
Zn107 O116 1.977 . S
O108 Zn107 2.032 . S
O108 C112 1.278 . S
C109 O110 1.203 . S
C109 O116 1.267 . S
O110 C109 1.203 . S
O111 C104 1.185 . S
O111 Zn107 2.086 . S
C112 O108 1.278 . S
C112 O113 1.211 . S
O113 C112 1.211 . S
C114 O106 1.284 . S
C114 O115 1.273 . S
O115 C114 1.273 . S
O116 Zn107 1.977 . S
O116 C109 1.267 . S
C117 O118 1.160 . S
C117 O124 1.185 . S
O118 C117 1.160 . S
O119 Zn120 1.899 . S
O119 C127 1.284 . S
Zn120 O119 1.899 . S
Zn120 O121 2.032 . S
Zn120 O124 2.086 . S
Zn120 O129 1.977 . S
O121 Zn120 2.032 . S
O121 C125 1.278 . S
C122 O123 1.203 . S
C122 O129 1.267 . S
O123 C122 1.203 . S
O124 C117 1.185 . S
O124 Zn120 2.086 . S
C125 O121 1.278 . S
C125 O126 1.211 . S
O126 C125 1.211 . S
C127 O119 1.284 . S
C127 O128 1.273 . S
O128 C127 1.273 . S
O129 Zn120 1.977 . S
O129 C122 1.267 . S
C130 O131 1.160 . S
C130 O137 1.185 . S
O131 C130 1.160 . S
O132 Zn133 1.899 . S
O132 C140 1.284 . S
Zn133 O132 1.899 . S
Zn133 O134 2.032 . S
Zn133 O137 2.086 . S
Zn133 O142 1.977 . S
O134 Zn133 2.032 . S
O134 C138 1.278 . S
C135 O136 1.203 . S
C135 O142 1.267 . S
O136 C135 1.203 . S
O137 C130 1.185 . S
O137 Zn133 2.086 . S
C138 O134 1.278 . S
C138 O139 1.211 . S
O139 C138 1.211 . S
C140 O132 1.284 . S
C140 O141 1.273 . S
O141 C140 1.273 . S
O142 Zn133 1.977 . S
O142 C135 1.267 . S
C143 O144 1.160 . S
C143 O150 1.185 . S
O144 C143 1.160 . S
O145 Zn146 1.899 . S
O145 C153 1.284 . S
Zn146 O145 1.899 . S
Zn146 O147 2.032 . S
Zn146 O150 2.086 . S
Zn146 O155 1.977 . S
O147 Zn146 2.032 . S
O147 C151 1.278 . S
C148 O149 1.203 . S
C148 O155 1.267 . S
O149 C148 1.203 . S
O150 C143 1.185 . S
O150 Zn146 2.086 . S
C151 O147 1.278 . S
C151 O152 1.211 . S
O152 C151 1.211 . S
C153 O145 1.284 . S
C153 O154 1.273 . S
O154 C153 1.273 . S
O155 Zn146 1.977 . S
O155 C148 1.267 . S
C156 O157 1.160 . S
C156 O163 1.185 . S
O157 C156 1.160 . S
O158 Zn159 1.899 . S
O158 C166 1.284 . S
Zn159 O158 1.899 . S
Zn159 O160 2.032 . S
Zn159 O163 2.086 . S
Zn159 O168 1.977 . S
O160 Zn159 2.032 . S
O160 C164 1.278 . S
C161 O162 1.203 . S
C161 O168 1.267 . S
O162 C161 1.203 . S
O163 C156 1.185 . S
O163 Zn159 2.086 . S
C164 O160 1.278 . S
C164 O165 1.211 . S
O165 C164 1.211 . S
C166 O158 1.284 . S
C166 O167 1.273 . S
O167 C166 1.273 . S
O168 Zn159 1.977 . S
O168 C161 1.267 . S
C169 O170 1.160 . S
C169 O176 1.185 . S
O170 C169 1.160 . S
O171 Zn172 1.899 . S
O171 C179 1.284 . S
Zn172 O171 1.899 . S
Zn172 O173 2.032 . S
Zn172 O176 2.086 . S
Zn172 O181 1.977 . S
O173 Zn172 2.032 . S
O173 C177 1.278 . S
C174 O175 1.203 . S
C174 O181 1.267 . S
O175 C174 1.203 . S
O176 C169 1.185 . S
O176 Zn172 2.086 . S
C177 O173 1.278 . S
C177 O178 1.211 . S
O178 C177 1.211 . S
C179 O171 1.284 . S
C179 O180 1.273 . S
O180 C179 1.273 . S
O181 Zn172 1.977 . S
O181 C174 1.267 . S
C182 O183 1.160 . S
C182 O189 1.185 . S
O183 C182 1.160 . S
O184 Zn185 1.899 . S
O184 C192 1.284 . S
Zn185 O184 1.899 . S
Zn185 O186 2.032 . S
Zn185 O189 2.086 . S
Zn185 O194 1.977 . S
O186 Zn185 2.032 . S
O186 C190 1.278 . S
C187 O188 1.203 . S
C187 O194 1.267 . S
O188 C187 1.203 . S
O189 C182 1.185 . S
O189 Zn185 2.086 . S
C190 O186 1.278 . S
C190 O191 1.211 . S
O191 C190 1.211 . S
C192 O184 1.284 . S
C192 O193 1.273 . S
O193 C192 1.273 . S
O194 Zn185 1.977 . S
O194 C187 1.267 . S
C195 O196 1.160 . S
C195 O202 1.185 . S
O196 C195 1.160 . S
O197 Zn198 1.899 . S
O197 C205 1.284 . S
Zn198 O197 1.899 . S
Zn198 O199 2.032 . S
Zn198 O202 2.086 . S
Zn198 O207 1.977 . S
O199 Zn198 2.032 . S
O199 C203 1.278 . S
C200 O201 1.203 . S
C200 O207 1.267 . S
O201 C200 1.203 . S
O202 C195 1.185 . S
O202 Zn198 2.086 . S
C203 O199 1.278 . S
C203 O204 1.211 . S
O204 C203 1.211 . S
C205 O197 1.284 . S
C205 O206 1.273 . S
O206 C205 1.273 . S
O207 Zn198 1.977 . S
O207 C200 1.267 . S
C208 O209 1.160 . S
C208 O215 1.185 . S
O209 C208 1.160 . S
O210 Zn211 1.899 . S
O210 C218 1.284 . S
Zn211 O210 1.899 . S
Zn211 O212 2.032 . S
Zn211 O215 2.086 . S
Zn211 O220 1.977 . S
O212 Zn211 2.032 . S
O212 C216 1.278 . S
C213 O214 1.203 . S
C213 O220 1.267 . S
O214 C213 1.203 . S
O215 C208 1.185 . S
O215 Zn211 2.086 . S
C216 O212 1.278 . S
C216 O217 1.211 . S
O217 C216 1.211 . S
C218 O210 1.284 . S
C218 O219 1.273 . S
O219 C218 1.273 . S
O220 Zn211 1.977 . S
O220 C213 1.267 . S
C221 O222 1.160 . S
C221 O228 1.185 . S
O222 C221 1.160 . S
O223 Zn224 1.899 . S
O223 C231 1.284 . S
Zn224 O223 1.899 . S
Zn224 O225 2.032 . S
Zn224 O228 2.086 . S
Zn224 O233 1.977 . S
O225 Zn224 2.032 . S
O225 C229 1.278 . S
C226 O227 1.203 . S
C226 O233 1.267 . S
O227 C226 1.203 . S
O228 C221 1.185 . S
O228 Zn224 2.086 . S
C229 O225 1.278 . S
C229 O230 1.211 . S
O230 C229 1.211 . S
C231 O223 1.284 . S
C231 O232 1.273 . S
O232 C231 1.273 . S
O233 Zn224 1.977 . S
O233 C226 1.267 . S
C234 O235 1.160 . S
C234 O241 1.185 . S
O235 C234 1.160 . S
O236 Zn237 1.899 . S
O236 C244 1.284 . S
Zn237 O236 1.899 . S
Zn237 O238 2.032 . S
Zn237 O241 2.086 . S
Zn237 O246 1.977 . S
O238 Zn237 2.032 . S
O238 C242 1.278 . S
C239 O240 1.203 . S
C239 O246 1.267 . S
O240 C239 1.203 . S
O241 C234 1.185 . S
O241 Zn237 2.086 . S
C242 O238 1.278 . S
C242 O243 1.211 . S
O243 C242 1.211 . S
C244 O236 1.284 . S
C244 O245 1.273 . S
O245 C244 1.273 . S
O246 Zn237 1.977 . S
O246 C239 1.267 . S
C247 O248 1.160 . S
C247 O254 1.185 . S
O248 C247 1.160 . S
O249 Zn250 1.899 . S
O249 C257 1.284 . S
Zn250 O249 1.899 . S
Zn250 O251 2.032 . S
Zn250 O254 2.086 . S
Zn250 O259 1.977 . S
O251 Zn250 2.032 . S
O251 C255 1.278 . S
C252 O253 1.203 . S
C252 O259 1.267 . S
O253 C252 1.203 . S
O254 C247 1.185 . S
O254 Zn250 2.086 . S
C255 O251 1.278 . S
C255 O256 1.211 . S
O256 C255 1.211 . S
C257 O249 1.284 . S
C257 O258 1.273 . S
O258 C257 1.273 . S
O259 Zn250 1.977 . S
O259 C252 1.267 . S
C260 O261 1.160 . S
C260 O267 1.185 . S
O261 C260 1.160 . S
O262 Zn263 1.899 . S
O262 C270 1.284 . S
Zn263 O262 1.899 . S
Zn263 O264 2.032 . S
Zn263 O267 2.086 . S
Zn263 O272 1.977 . S
O264 Zn263 2.032 . S
O264 C268 1.278 . S
C265 O266 1.203 . S
C265 O272 1.267 . S
O266 C265 1.203 . S
O267 C260 1.185 . S
O267 Zn263 2.086 . S
C268 O264 1.278 . S
C268 O269 1.211 . S
O269 C268 1.211 . S
C270 O262 1.284 . S
C270 O271 1.273 . S
O271 C270 1.273 . S
O272 Zn263 1.977 . S
O272 C265 1.267 . S
C273 O274 1.160 . S
C273 O280 1.185 . S
O274 C273 1.160 . S
O275 Zn276 1.899 . S
O275 C283 1.284 . S
Zn276 O275 1.899 . S
Zn276 O277 2.032 . S
Zn276 O280 2.086 . S
Zn276 O285 1.977 . S
O277 Zn276 2.032 . S
O277 C281 1.278 . S
C278 O279 1.203 . S
C278 O285 1.267 . S
O279 C278 1.203 . S
O280 C273 1.185 . S
O280 Zn276 2.086 . S
C281 O277 1.278 . S
C281 O282 1.211 . S
O282 C281 1.211 . S
C283 O275 1.284 . S
C283 O284 1.273 . S
O284 C283 1.273 . S
O285 Zn276 1.977 . S
O285 C278 1.267 . S
C286 O287 1.160 . S
C286 O293 1.185 . S
O287 C286 1.160 . S
O288 Zn289 1.899 . S
O288 C296 1.284 . S
Zn289 O288 1.899 . S
Zn289 O290 2.032 . S
Zn289 O293 2.086 . S
Zn289 O298 1.977 . S
O290 Zn289 2.032 . S
O290 C294 1.278 . S
C291 O292 1.203 . S
C291 O298 1.267 . S
O292 C291 1.203 . S
O293 C286 1.185 . S
O293 Zn289 2.086 . S
C294 O290 1.278 . S
C294 O295 1.211 . S
O295 C294 1.211 . S
C296 O288 1.284 . S
C296 O297 1.273 . S
O297 C296 1.273 . S
O298 Zn289 1.977 . S
O298 C291 1.267 . S
C299 O300 1.160 . S
C299 O306 1.185 . S
O300 C299 1.160 . S
O301 Zn302 1.899 . S
O301 C309 1.284 . S
Zn302 O301 1.899 . S
Zn302 O303 2.032 . S
Zn302 O306 2.086 . S
Zn302 O311 1.977 . S
O303 Zn302 2.032 . S
O303 C307 1.278 . S
C304 O305 1.203 . S
C304 O311 1.267 . S
O305 C304 1.203 . S
O306 C299 1.185 . S
O306 Zn302 2.086 . S
C307 O303 1.278 . S
C307 O308 1.211 . S
O308 C307 1.211 . S
C309 O301 1.284 . S
C309 O310 1.273 . S
O310 C309 1.273 . S
O311 Zn302 1.977 . S
O311 C304 1.267 . S
H312 C318 0.930 . S
H313 C322 0.930 . S
H314 C327 0.929 . S
H315 C325 0.929 . S
H316 C320 0.929 . S
H317 C326 0.929 . S
C318 H312 0.930 . S
C318 C319 1.367 . S
C318 C326 1.378 . S
C319 C318 1.367 . S
C319 C327 1.433 . S
C320 H316 0.929 . S
C320 C322 1.378 . S
C320 C324 1.350 . S
C321 C324 1.463 . S
C321 C326 1.350 . S
C321 N329 1.427 . S
C322 H313 0.930 . S
C322 C320 1.378 . S
C322 C323 1.367 . S
C323 C322 1.367 . S
C323 C325 1.433 . S
C324 C320 1.350 . S
C324 C321 1.463 . S
C324 N328 1.427 . S
C325 H315 0.929 . S
C325 C323 1.433 . S
C325 N328 1.384 . S
C326 H317 0.929 . S
C326 C318 1.378 . S
C326 C321 1.350 . S
C327 H314 0.929 . S
C327 C319 1.433 . S
C327 N329 1.384 . S
N328 C324 1.427 . S
N328 C325 1.384 . S
N329 C321 1.427 . S
N329 C327 1.384 . S
H330 C336 0.930 . S
H331 C340 0.930 . S
H332 C345 0.929 . S
H333 C343 0.929 . S
H334 C338 0.929 . S
H335 C344 0.929 . S
C336 H330 0.930 . S
C336 C337 1.367 . S
C336 C344 1.378 . S
C337 C336 1.367 . S
C337 C345 1.433 . S
C338 H334 0.929 . S
C338 C340 1.378 . S
C338 C342 1.350 . S
C339 C342 1.463 . S
C339 C344 1.350 . S
C339 N347 1.427 . S
C340 H331 0.930 . S
C340 C338 1.378 . S
C340 C341 1.367 . S
C341 C340 1.367 . S
C341 C343 1.433 . S
C342 C338 1.350 . S
C342 C339 1.463 . S
C342 N346 1.427 . S
C343 H333 0.929 . S
C343 C341 1.433 . S
C343 N346 1.384 . S
C344 H335 0.929 . S
C344 C336 1.378 . S
C344 C339 1.350 . S
C345 H332 0.929 . S
C345 C337 1.433 . S
C345 N347 1.384 . S
N346 C342 1.427 . S
N346 C343 1.384 . S
N347 C339 1.427 . S
N347 C345 1.384 . S
H348 C354 0.930 . S
H349 C358 0.930 . S
H350 C363 0.929 . S
H351 C361 0.929 . S
H352 C356 0.929 . S
H353 C362 0.929 . S
C354 H348 0.930 . S
C354 C355 1.367 . S
C354 C362 1.378 . S
C355 C354 1.367 . S
C355 C363 1.433 . S
C356 H352 0.929 . S
C356 C358 1.378 . S
C356 C360 1.350 . S
C357 C360 1.463 . S
C357 C362 1.350 . S
C357 N365 1.427 . S
C358 H349 0.930 . S
C358 C356 1.378 . S
C358 C359 1.367 . S
C359 C358 1.367 . S
C359 C361 1.433 . S
C360 C356 1.350 . S
C360 C357 1.463 . S
C360 N364 1.427 . S
C361 H351 0.929 . S
C361 C359 1.433 . S
C361 N364 1.384 . S
C362 H353 0.929 . S
C362 C354 1.378 . S
C362 C357 1.350 . S
C363 H350 0.929 . S
C363 C355 1.433 . S
C363 N365 1.384 . S
N364 C360 1.427 . S
N364 C361 1.384 . S
N365 C357 1.427 . S
N365 C363 1.384 . S
H366 C372 0.930 . S
H367 C376 0.930 . S
H368 C381 0.929 . S
H369 C379 0.929 . S
H370 C374 0.929 . S
H371 C380 0.929 . S
C372 H366 0.930 . S
C372 C373 1.367 . S
C372 C380 1.378 . S
C373 C372 1.367 . S
C373 C381 1.433 . S
C374 H370 0.929 . S
C374 C376 1.378 . S
C374 C378 1.350 . S
C375 C378 1.463 . S
C375 C380 1.350 . S
C375 N383 1.427 . S
C376 H367 0.930 . S
C376 C374 1.378 . S
C376 C377 1.367 . S
C377 C376 1.367 . S
C377 C379 1.433 . S
C378 C374 1.350 . S
C378 C375 1.463 . S
C378 N382 1.427 . S
C379 H369 0.929 . S
C379 C377 1.433 . S
C379 N382 1.384 . S
C380 H371 0.929 . S
C380 C372 1.378 . S
C380 C375 1.350 . S
C381 H368 0.929 . S
C381 C373 1.433 . S
C381 N383 1.384 . S
N382 C378 1.427 . S
N382 C379 1.384 . S
N383 C375 1.427 . S
N383 C381 1.384 . S
H384 C390 0.930 . S
H385 C394 0.930 . S
H386 C399 0.929 . S
H387 C397 0.929 . S
H388 C392 0.929 . S
H389 C398 0.929 . S
C390 H384 0.930 . S
C390 C391 1.367 . S
C390 C398 1.378 . S
C391 C390 1.367 . S
C391 C399 1.433 . S
C392 H388 0.929 . S
C392 C394 1.378 . S
C392 C396 1.350 . S
C393 C396 1.463 . S
C393 C398 1.350 . S
C393 N401 1.427 . S
C394 H385 0.930 . S
C394 C392 1.378 . S
C394 C395 1.367 . S
C395 C394 1.367 . S
C395 C397 1.433 . S
C396 C392 1.350 . S
C396 C393 1.463 . S
C396 N400 1.427 . S
C397 H387 0.929 . S
C397 C395 1.433 . S
C397 N400 1.384 . S
C398 H389 0.929 . S
C398 C390 1.378 . S
C398 C393 1.350 . S
C399 H386 0.929 . S
C399 C391 1.433 . S
C399 N401 1.384 . S
N400 C396 1.427 . S
N400 C397 1.384 . S
N401 C393 1.427 . S
N401 C399 1.384 . S
H402 C408 0.930 . S
H403 C412 0.930 . S
H404 C417 0.929 . S
H405 C415 0.929 . S
H406 C410 0.929 . S
H407 C416 0.929 . S
C408 H402 0.930 . S
C408 C409 1.367 . S
C408 C416 1.378 . S
C409 C408 1.367 . S
C409 C417 1.433 . S
C410 H406 0.929 . S
C410 C412 1.378 . S
C410 C414 1.350 . S
C411 C414 1.463 . S
C411 C416 1.350 . S
C411 N419 1.427 . S
C412 H403 0.930 . S
C412 C410 1.378 . S
C412 C413 1.367 . S
C413 C412 1.367 . S
C413 C415 1.433 . S
C414 C410 1.350 . S
C414 C411 1.463 . S
C414 N418 1.427 . S
C415 H405 0.929 . S
C415 C413 1.433 . S
C415 N418 1.384 . S
C416 H407 0.929 . S
C416 C408 1.378 . S
C416 C411 1.350 . S
C417 H404 0.929 . S
C417 C409 1.433 . S
C417 N419 1.384 . S
N418 C414 1.427 . S
N418 C415 1.384 . S
N419 C411 1.427 . S
N419 C417 1.384 . S
H420 C426 0.930 . S
H421 C430 0.930 . S
H422 C435 0.929 . S
H423 C433 0.929 . S
H424 C428 0.929 . S
H425 C434 0.929 . S
C426 H420 0.930 . S
C426 C427 1.367 . S
C426 C434 1.378 . S
C427 C426 1.367 . S
C427 C435 1.433 . S
C428 H424 0.929 . S
C428 C430 1.378 . S
C428 C432 1.350 . S
C429 C432 1.463 . S
C429 C434 1.350 . S
C429 N437 1.427 . S
C430 H421 0.930 . S
C430 C428 1.378 . S
C430 C431 1.367 . S
C431 C430 1.367 . S
C431 C433 1.433 . S
C432 C428 1.350 . S
C432 C429 1.463 . S
C432 N436 1.427 . S
C433 H423 0.929 . S
C433 C431 1.433 . S
C433 N436 1.384 . S
C434 H425 0.929 . S
C434 C426 1.378 . S
C434 C429 1.350 . S
C435 H422 0.929 . S
C435 C427 1.433 . S
C435 N437 1.384 . S
N436 C432 1.427 . S
N436 C433 1.384 . S
N437 C429 1.427 . S
N437 C435 1.384 . S
H438 C444 0.930 . S
H439 C448 0.930 . S
H440 C453 0.929 . S
H441 C451 0.929 . S
H442 C446 0.929 . S
H443 C452 0.929 . S
C444 H438 0.930 . S
C444 C445 1.367 . S
C444 C452 1.378 . S
C445 C444 1.367 . S
C445 C453 1.433 . S
C446 H442 0.929 . S
C446 C448 1.378 . S
C446 C450 1.350 . S
C447 C450 1.463 . S
C447 C452 1.350 . S
C447 N455 1.427 . S
C448 H439 0.930 . S
C448 C446 1.378 . S
C448 C449 1.367 . S
C449 C448 1.367 . S
C449 C451 1.433 . S
C450 C446 1.350 . S
C450 C447 1.463 . S
C450 N454 1.427 . S
C451 H441 0.929 . S
C451 C449 1.433 . S
C451 N454 1.384 . S
C452 H443 0.929 . S
C452 C444 1.378 . S
C452 C447 1.350 . S
C453 H440 0.929 . S
C453 C445 1.433 . S
C453 N455 1.384 . S
N454 C450 1.427 . S
N454 C451 1.384 . S
N455 C447 1.427 . S
N455 C453 1.384 . S
H456 C462 0.930 . S
H457 C466 0.930 . S
H458 C471 0.929 . S
H459 C469 0.929 . S
H460 C464 0.929 . S
H461 C470 0.929 . S
C462 H456 0.930 . S
C462 C463 1.367 . S
C462 C470 1.378 . S
C463 C462 1.367 . S
C463 C471 1.433 . S
C464 H460 0.929 . S
C464 C466 1.378 . S
C464 C468 1.350 . S
C465 C468 1.463 . S
C465 C470 1.350 . S
C465 N473 1.427 . S
C466 H457 0.930 . S
C466 C464 1.378 . S
C466 C467 1.367 . S
C467 C466 1.367 . S
C467 C469 1.433 . S
C468 C464 1.350 . S
C468 C465 1.463 . S
C468 N472 1.427 . S
C469 H459 0.929 . S
C469 C467 1.433 . S
C469 N472 1.384 . S
C470 H461 0.929 . S
C470 C462 1.378 . S
C470 C465 1.350 . S
C471 H458 0.929 . S
C471 C463 1.433 . S
C471 N473 1.384 . S
N472 C468 1.427 . S
N472 C469 1.384 . S
N473 C465 1.427 . S
N473 C471 1.384 . S
H474 C480 0.930 . S
H475 C484 0.930 . S
H476 C489 0.929 . S
H477 C487 0.929 . S
H478 C482 0.929 . S
H479 C488 0.929 . S
C480 H474 0.930 . S
C480 C481 1.367 . S
C480 C488 1.378 . S
C481 C480 1.367 . S
C481 C489 1.433 . S
C482 H478 0.929 . S
C482 C484 1.378 . S
C482 C486 1.350 . S
C483 C486 1.463 . S
C483 C488 1.350 . S
C483 N491 1.427 . S
C484 H475 0.930 . S
C484 C482 1.378 . S
C484 C485 1.367 . S
C485 C484 1.367 . S
C485 C487 1.433 . S
C486 C482 1.350 . S
C486 C483 1.463 . S
C486 N490 1.427 . S
C487 H477 0.929 . S
C487 C485 1.433 . S
C487 N490 1.384 . S
C488 H479 0.929 . S
C488 C480 1.378 . S
C488 C483 1.350 . S
C489 H476 0.929 . S
C489 C481 1.433 . S
C489 N491 1.384 . S
N490 C486 1.427 . S
N490 C487 1.384 . S
N491 C483 1.427 . S
N491 C489 1.384 . S
H492 C498 0.930 . S
H493 C502 0.930 . S
H494 C507 0.929 . S
H495 C505 0.929 . S
H496 C500 0.929 . S
H497 C506 0.929 . S
C498 H492 0.930 . S
C498 C499 1.367 . S
C498 C506 1.378 . S
C499 C498 1.367 . S
C499 C507 1.433 . S
C500 H496 0.929 . S
C500 C502 1.378 . S
C500 C504 1.350 . S
C501 C504 1.463 . S
C501 C506 1.350 . S
C501 N509 1.427 . S
C502 H493 0.930 . S
C502 C500 1.378 . S
C502 C503 1.367 . S
C503 C502 1.367 . S
C503 C505 1.433 . S
C504 C500 1.350 . S
C504 C501 1.463 . S
C504 N508 1.427 . S
C505 H495 0.929 . S
C505 C503 1.433 . S
C505 N508 1.384 . S
C506 H497 0.929 . S
C506 C498 1.378 . S
C506 C501 1.350 . S
C507 H494 0.929 . S
C507 C499 1.433 . S
C507 N509 1.384 . S
N508 C504 1.427 . S
N508 C505 1.384 . S
N509 C501 1.427 . S
N509 C507 1.384 . S
H510 C516 0.930 . S
H511 C520 0.930 . S
H512 C525 0.929 . S
H513 C523 0.929 . S
H514 C518 0.929 . S
H515 C524 0.929 . S
C516 H510 0.930 . S
C516 C517 1.367 . S
C516 C524 1.378 . S
C517 C516 1.367 . S
C517 C525 1.433 . S
C518 H514 0.929 . S
C518 C520 1.378 . S
C518 C522 1.350 . S
C519 C522 1.463 . S
C519 C524 1.350 . S
C519 N527 1.427 . S
C520 H511 0.930 . S
C520 C518 1.378 . S
C520 C521 1.367 . S
C521 C520 1.367 . S
C521 C523 1.433 . S
C522 C518 1.350 . S
C522 C519 1.463 . S
C522 N526 1.427 . S
C523 H513 0.929 . S
C523 C521 1.433 . S
C523 N526 1.384 . S
C524 H515 0.929 . S
C524 C516 1.378 . S
C524 C519 1.350 . S
C525 H512 0.929 . S
C525 C517 1.433 . S
C525 N527 1.384 . S
N526 C522 1.427 . S
N526 C523 1.384 . S
N527 C519 1.427 . S
N527 C525 1.384 . S
H528 C534 0.930 . S
H529 C538 0.930 . S
H530 C543 0.929 . S
H531 C541 0.929 . S
H532 C536 0.929 . S
H533 C542 0.929 . S
C534 H528 0.930 . S
C534 C535 1.367 . S
C534 C542 1.378 . S
C535 C534 1.367 . S
C535 C543 1.433 . S
C536 H532 0.929 . S
C536 C538 1.378 . S
C536 C540 1.350 . S
C537 C540 1.463 1_556 S
C537 C542 1.350 . S
C537 N545 1.427 . S
C538 H529 0.930 . S
C538 C536 1.378 . S
C538 C539 1.367 . S
C539 C538 1.367 . S
C539 C541 1.433 . S
C540 C536 1.350 . S
C540 C537 1.463 1_554 S
C540 N544 1.427 . S
C541 H531 0.929 . S
C541 C539 1.433 . S
C541 N544 1.384 . S
C542 H533 0.929 . S
C542 C534 1.378 . S
C542 C537 1.350 . S
C543 H530 0.929 . S
C543 C535 1.433 . S
C543 N545 1.384 . S
N544 C540 1.427 . S
N544 C541 1.384 . S
N545 C537 1.427 . S
N545 C543 1.384 . S
H546 C552 0.930 . S
H547 C556 0.930 . S
H548 C561 0.929 . S
H549 C559 0.929 . S
H550 C554 0.929 . S
H551 C560 0.929 . S
C552 H546 0.930 . S
C552 C553 1.367 . S
C552 C560 1.378 . S
C553 C552 1.367 . S
C553 C561 1.433 . S
C554 H550 0.929 . S
C554 C556 1.378 . S
C554 C558 1.350 . S
C555 C558 1.463 . S
C555 C560 1.350 . S
C555 N563 1.427 . S
C556 H547 0.930 . S
C556 C554 1.378 . S
C556 C557 1.367 . S
C557 C556 1.367 . S
C557 C559 1.433 . S
C558 C554 1.350 . S
C558 C555 1.463 . S
C558 N562 1.427 . S
C559 H549 0.929 . S
C559 C557 1.433 . S
C559 N562 1.384 . S
C560 H551 0.929 . S
C560 C552 1.378 . S
C560 C555 1.350 . S
C561 H548 0.929 . S
C561 C553 1.433 . S
C561 N563 1.384 . S
N562 C558 1.427 . S
N562 C559 1.384 . S
N563 C555 1.427 . S
N563 C561 1.384 . S
H564 C570 0.930 . S
H565 C574 0.930 . S
H566 C579 0.929 . S
H567 C577 0.929 . S
H568 C572 0.929 . S
H569 C578 0.929 . S
C570 H564 0.930 . S
C570 C571 1.367 1_556 S
C570 C578 1.378 . S
C571 C570 1.367 1_554 S
C571 C579 1.433 . S
C572 H568 0.929 . S
C572 C574 1.378 . S
C572 C576 1.350 1_554 S
C573 C576 1.463 1_554 S
C573 C578 1.350 1_554 S
C573 N581 1.427 . S
C574 H565 0.930 . S
C574 C572 1.378 . S
C574 C575 1.367 1_554 S
C575 C574 1.367 1_556 S
C575 C577 1.433 . S
C576 C572 1.350 1_556 S
C576 C573 1.463 1_556 S
C576 N580 1.427 . S
C577 H567 0.929 . S
C577 C575 1.433 . S
C577 N580 1.384 . S
C578 H569 0.929 . S
C578 C570 1.378 . S
C578 C573 1.350 1_556 S
C579 H566 0.929 . S
C579 C571 1.433 . S
C579 N581 1.384 . S
N580 C576 1.427 . S
N580 C577 1.384 . S
N581 C573 1.427 . S
N581 C579 1.384 . S
H582 C588 0.930 . S
H583 C592 0.930 . S
H584 C597 0.929 . S
H585 C595 0.929 . S
H586 C590 0.929 . S
H587 C596 0.929 . S
C588 H582 0.930 . S
C588 C589 1.367 . S
C588 C596 1.378 . S
C589 C588 1.367 . S
C589 C597 1.433 . S
C590 H586 0.929 . S
C590 C592 1.378 . S
C590 C594 1.350 . S
C591 C594 1.463 . S
C591 C596 1.350 . S
C591 N599 1.427 . S
C592 H583 0.930 . S
C592 C590 1.378 . S
C592 C593 1.367 . S
C593 C592 1.367 . S
C593 C595 1.433 . S
C594 C590 1.350 . S
C594 C591 1.463 . S
C594 N598 1.427 . S
C595 H585 0.929 . S
C595 C593 1.433 . S
C595 N598 1.384 . S
C596 H587 0.929 . S
C596 C588 1.378 . S
C596 C591 1.350 . S
C597 H584 0.929 . S
C597 C589 1.433 . S
C597 N599 1.384 . S
N598 C594 1.427 . S
N598 C595 1.384 . S
N599 C591 1.427 . S
N599 C597 1.384 . S
H600 C606 0.930 . S
H601 C610 0.930 . S
H602 C615 0.929 . S
H603 C613 0.929 . S
H604 C608 0.929 1_556 S
H605 C614 0.929 1_554 S
C606 H600 0.930 . S
C606 C607 1.367 . S
C606 C614 1.378 . S
C607 C606 1.367 . S
C607 C615 1.433 . S
C608 H604 0.929 1_554 S
C608 C610 1.378 . S
C608 C612 1.350 . S
C609 C612 1.463 1_556 S
C609 C614 1.350 . S
C609 N617 1.427 . S
C610 H601 0.930 . S
C610 C608 1.378 . S
C610 C611 1.367 . S
C611 C610 1.367 . S
C611 C613 1.433 . S
C612 C608 1.350 . S
C612 C609 1.463 1_554 S
C612 N616 1.427 . S
C613 H603 0.929 . S
C613 C611 1.433 . S
C613 N616 1.384 . S
C614 H605 0.929 1_556 S
C614 C606 1.378 . S
C614 C609 1.350 . S
C615 H602 0.929 . S
C615 C607 1.433 . S
C615 N617 1.384 . S
N616 C612 1.427 . S
N616 C613 1.384 . S
N617 C609 1.427 . S
N617 C615 1.384 . S
H618 C624 0.930 . S
H619 C628 0.930 . S
H620 C633 0.929 . S
H621 C631 0.929 . S
H622 C626 0.929 . S
H623 C632 0.929 . S
C624 H618 0.930 . S
C624 C625 1.367 . S
C624 C632 1.378 . S
C625 C624 1.367 . S
C625 C633 1.433 . S
C626 H622 0.929 . S
C626 C628 1.378 . S
C626 C630 1.350 . S
C627 C630 1.463 . S
C627 C632 1.350 . S
C627 N635 1.427 . S
C628 H619 0.930 . S
C628 C626 1.378 . S
C628 C629 1.367 . S
C629 C628 1.367 . S
C629 C631 1.433 . S
C630 C626 1.350 . S
C630 C627 1.463 . S
C630 N634 1.427 . S
C631 H621 0.929 . S
C631 C629 1.433 . S
C631 N634 1.384 . S
C632 H623 0.929 . S
C632 C624 1.378 . S
C632 C627 1.350 . S
C633 H620 0.929 . S
C633 C625 1.433 . S
C633 N635 1.384 . S
N634 C630 1.427 . S
N634 C631 1.384 . S
N635 C627 1.427 . S
N635 C633 1.384 . S
H636 C642 0.930 . S
H637 C646 0.930 . S
H638 C651 0.929 . S
H639 C649 0.929 . S
H640 C644 0.929 . S
H641 C650 0.929 . S
C642 H636 0.930 . S
C642 C643 1.367 . S
C642 C650 1.378 . S
C643 C642 1.367 . S
C643 C651 1.433 . S
C644 H640 0.929 . S
C644 C646 1.378 . S
C644 C648 1.350 . S
C645 C648 1.463 1_554 S
C645 C650 1.350 . S
C645 N653 1.427 . S
C646 H637 0.930 . S
C646 C644 1.378 . S
C646 C647 1.367 . S
C647 C646 1.367 . S
C647 C649 1.433 . S
C648 C644 1.350 . S
C648 C645 1.463 1_556 S
C648 N652 1.427 . S
C649 H639 0.929 . S
C649 C647 1.433 . S
C649 N652 1.384 . S
C650 H641 0.929 . S
C650 C642 1.378 . S
C650 C645 1.350 . S
C651 H638 0.929 . S
C651 C643 1.433 . S
C651 N653 1.384 . S
N652 C648 1.427 . S
N652 C649 1.384 . S
N653 C645 1.427 . S
N653 C651 1.384 . S
H654 C660 0.930 . S
H655 C664 0.930 . S
H656 C669 0.929 . S
H657 C667 0.929 . S
H658 C662 0.929 . S
H659 C668 0.929 . S
C660 H654 0.930 . S
C660 C661 1.367 . S
C660 C668 1.378 . S
C661 C660 1.367 . S
C661 C669 1.433 . S
C662 H658 0.929 . S
C662 C664 1.378 . S
C662 C666 1.350 . S
C663 C666 1.463 . S
C663 C668 1.350 . S
C663 N671 1.427 . S
C664 H655 0.930 . S
C664 C662 1.378 . S
C664 C665 1.367 . S
C665 C664 1.367 . S
C665 C667 1.433 . S
C666 C662 1.350 . S
C666 C663 1.463 . S
C666 N670 1.427 . S
C667 H657 0.929 . S
C667 C665 1.433 . S
C667 N670 1.384 . S
C668 H659 0.929 . S
C668 C660 1.378 . S
C668 C663 1.350 . S
C669 H656 0.929 . S
C669 C661 1.433 . S
C669 N671 1.384 . S
N670 C666 1.427 . S
N670 C667 1.384 . S
N671 C663 1.427 . S
N671 C669 1.384 . S
H672 C678 0.930 . S
H673 C682 0.930 . S
H674 C687 0.929 . S
H675 C685 0.929 . S
H676 C680 0.929 . S
H677 C686 0.929 . S
C678 H672 0.930 . S
C678 C679 1.367 . S
C678 C686 1.378 1_556 S
C679 C678 1.367 . S
C679 C687 1.433 . S
C680 H676 0.929 . S
C680 C682 1.378 1_556 S
C680 C684 1.350 1_556 S
C681 C684 1.463 1_556 S
C681 C686 1.350 1_556 S
C681 N689 1.427 . S
C682 H673 0.930 . S
C682 C680 1.378 1_554 S
C682 C683 1.367 . S
C683 C682 1.367 . S
C683 C685 1.433 . S
C684 C680 1.350 1_554 S
C684 C681 1.463 1_554 S
C684 N688 1.427 . S
C685 H675 0.929 . S
C685 C683 1.433 . S
C685 N688 1.384 . S
C686 H677 0.929 . S
C686 C678 1.378 1_554 S
C686 C681 1.350 1_554 S
C687 H674 0.929 . S
C687 C679 1.433 . S
C687 N689 1.384 . S
N688 C684 1.427 . S
N688 C685 1.384 . S
N689 C681 1.427 . S
N689 C687 1.384 . S
H690 C696 0.930 . S
H691 C700 0.930 . S
H692 C705 0.929 . S
H693 C703 0.929 . S
H694 C698 0.929 . S
H695 C704 0.929 . S
C696 H690 0.930 . S
C696 C697 1.367 . S
C696 C704 1.378 . S
C697 C696 1.367 . S
C697 C705 1.433 . S
C698 H694 0.929 . S
C698 C700 1.378 . S
C698 C702 1.350 . S
C699 C702 1.463 . S
C699 C704 1.350 . S
C699 N707 1.427 . S
C700 H691 0.930 . S
C700 C698 1.378 . S
C700 C701 1.367 . S
C701 C700 1.367 . S
C701 C703 1.433 . S
C702 C698 1.350 . S
C702 C699 1.463 . S
C702 N706 1.427 . S
C703 H693 0.929 . S
C703 C701 1.433 . S
C703 N706 1.384 . S
C704 H695 0.929 . S
C704 C696 1.378 . S
C704 C699 1.350 . S
C705 H692 0.929 . S
C705 C697 1.433 . S
C705 N707 1.384 . S
N706 C702 1.427 . S
N706 C703 1.384 . S
N707 C699 1.427 . S
N707 C705 1.384 . S
H708 C714 0.930 . S
H709 C718 0.930 . S
H710 C723 0.929 . S
H711 C721 0.929 . S
H712 C716 0.929 . S
H713 C722 0.929 . S
C714 H708 0.930 . S
C714 C715 1.367 . S
C714 C722 1.378 . S
C715 C714 1.367 . S
C715 C723 1.433 . S
C716 H712 0.929 . S
C716 C718 1.378 . S
C716 C720 1.350 . S
C717 C720 1.463 1_556 S
C717 C722 1.350 . S
C717 N725 1.427 . S
C718 H709 0.930 . S
C718 C716 1.378 . S
C718 C719 1.367 . S
C719 C718 1.367 . S
C719 C721 1.433 . S
C720 C716 1.350 . S
C720 C717 1.463 1_554 S
C720 N724 1.427 . S
C721 H711 0.929 . S
C721 C719 1.433 . S
C721 N724 1.384 . S
C722 H713 0.929 . S
C722 C714 1.378 . S
C722 C717 1.350 . S
C723 H710 0.929 . S
C723 C715 1.433 . S
C723 N725 1.384 . S
N724 C720 1.427 . S
N724 C721 1.384 . S
N725 C717 1.427 . S
N725 C723 1.384 . S
H726 C732 0.930 . S
H727 C736 0.930 . S
H728 C741 0.929 . S
H729 C739 0.929 . S
H730 C734 0.929 . S
H731 C740 0.929 . S
C732 H726 0.930 . S
C732 C733 1.367 . S
C732 C740 1.378 . S
C733 C732 1.367 . S
C733 C741 1.433 . S
C734 H730 0.929 . S
C734 C736 1.378 . S
C734 C738 1.350 . S
C735 C738 1.463 . S
C735 C740 1.350 . S
C735 N743 1.427 . S
C736 H727 0.930 . S
C736 C734 1.378 . S
C736 C737 1.367 . S
C737 C736 1.367 . S
C737 C739 1.433 . S
C738 C734 1.350 . S
C738 C735 1.463 . S
C738 N742 1.427 . S
C739 H729 0.929 . S
C739 C737 1.433 . S
C739 N742 1.384 . S
C740 H731 0.929 . S
C740 C732 1.378 . S
C740 C735 1.350 . S
C741 H728 0.929 . S
C741 C733 1.433 . S
C741 N743 1.384 . S
N742 C738 1.427 . S
N742 C739 1.384 . S
N743 C735 1.427 . S
N743 C741 1.384 . S
H744 C750 0.930 . S
H745 C754 0.930 . S
H746 C759 0.929 . S
H747 C757 0.929 . S
H748 C752 0.929 . S
H749 C758 0.929 . S
C750 H744 0.930 . S
C750 C751 1.367 . S
C750 C758 1.378 . S
C751 C750 1.367 . S
C751 C759 1.433 . S
C752 H748 0.929 . S
C752 C754 1.378 . S
C752 C756 1.350 . S
C753 C756 1.463 . S
C753 C758 1.350 . S
C753 N761 1.427 . S
C754 H745 0.930 . S
C754 C752 1.378 . S
C754 C755 1.367 . S
C755 C754 1.367 . S
C755 C757 1.433 . S
C756 C752 1.350 . S
C756 C753 1.463 . S
C756 N760 1.427 . S
C757 H747 0.929 . S
C757 C755 1.433 . S
C757 N760 1.384 . S
C758 H749 0.929 . S
C758 C750 1.378 . S
C758 C753 1.350 . S
C759 H746 0.929 . S
C759 C751 1.433 . S
C759 N761 1.384 . S
N760 C756 1.427 . S
N760 C757 1.384 . S
N761 C753 1.427 . S
N761 C759 1.384 . S
H762 C768 0.930 . S
H763 C772 0.930 . S
H764 C777 0.929 . S
H765 C775 0.929 . S
H766 C770 0.929 . S
H767 C776 0.929 . S
C768 H762 0.930 . S
C768 C769 1.367 . S
C768 C776 1.378 . S
C769 C768 1.367 . S
C769 C777 1.433 . S
C770 H766 0.929 . S
C770 C772 1.378 . S
C770 C774 1.350 . S
C771 C774 1.463 1_455 S
C771 C776 1.350 . S
C771 N779 1.427 . S
C772 H763 0.930 . S
C772 C770 1.378 . S
C772 C773 1.367 . S
C773 C772 1.367 . S
C773 C775 1.433 . S
C774 C770 1.350 . S
C774 C771 1.463 1_655 S
C774 N778 1.427 . S
C775 H765 0.929 . S
C775 C773 1.433 . S
C775 N778 1.384 . S
C776 H767 0.929 . S
C776 C768 1.378 . S
C776 C771 1.350 . S
C777 H764 0.929 . S
C777 C769 1.433 . S
C777 N779 1.384 . S
N778 C774 1.427 . S
N778 C775 1.384 . S
N779 C771 1.427 . S
N779 C777 1.384 . S
H780 C786 0.930 . S
H781 C790 0.930 . S
H782 C795 0.929 . S
H783 C793 0.929 . S
H784 C788 0.929 . S
H785 C794 0.929 . S
C786 H780 0.930 . S
C786 C787 1.367 . S
C786 C794 1.378 . S
C787 C786 1.367 . S
C787 C795 1.433 . S
C788 H784 0.929 . S
C788 C790 1.378 . S
C788 C792 1.350 . S
C789 C792 1.463 1_565 S
C789 C794 1.350 . S
C789 N797 1.427 . S
C790 H781 0.930 . S
C790 C788 1.378 . S
C790 C791 1.367 . S
C791 C790 1.367 . S
C791 C793 1.433 . S
C792 C788 1.350 . S
C792 C789 1.463 1_545 S
C792 N796 1.427 . S
C793 H783 0.929 . S
C793 C791 1.433 . S
C793 N796 1.384 . S
C794 H785 0.929 . S
C794 C786 1.378 . S
C794 C789 1.350 . S
C795 H782 0.929 . S
C795 C787 1.433 . S
C795 N797 1.384 . S
N796 C792 1.427 . S
N796 C793 1.384 . S
N797 C789 1.427 . S
N797 C795 1.384 . S
H798 C804 0.930 . S
H799 C808 0.930 . S
H800 C813 0.929 . S
H801 C811 0.929 . S
H802 C806 0.929 . S
H803 C812 0.929 . S
C804 H798 0.930 . S
C804 C805 1.367 . S
C804 C812 1.378 . S
C805 C804 1.367 . S
C805 C813 1.433 . S
C806 H802 0.929 . S
C806 C808 1.378 . S
C806 C810 1.350 . S
C807 C810 1.463 . S
C807 C812 1.350 . S
C807 N815 1.427 . S
C808 H799 0.930 . S
C808 C806 1.378 . S
C808 C809 1.367 . S
C809 C808 1.367 . S
C809 C811 1.433 . S
C810 C806 1.350 . S
C810 C807 1.463 . S
C810 N814 1.427 . S
C811 H801 0.929 . S
C811 C809 1.433 . S
C811 N814 1.384 . S
C812 H803 0.929 . S
C812 C804 1.378 . S
C812 C807 1.350 . S
C813 H800 0.929 . S
C813 C805 1.433 . S
C813 N815 1.384 . S
N814 C810 1.427 . S
N814 C811 1.384 . S
N815 C807 1.427 . S
N815 C813 1.384 . S
H816 C822 0.930 . S
H817 C826 0.930 . S
H818 C831 0.929 . S
H819 C829 0.929 . S
H820 C824 0.929 . S
H821 C830 0.929 . S
C822 H816 0.930 . S
C822 C823 1.367 . S
C822 C830 1.378 . S
C823 C822 1.367 . S
C823 C831 1.433 . S
C824 H820 0.929 . S
C824 C826 1.378 . S
C824 C828 1.350 . S
C825 C828 1.463 1_655 S
C825 C830 1.350 . S
C825 N833 1.427 . S
C826 H817 0.930 . S
C826 C824 1.378 . S
C826 C827 1.367 . S
C827 C826 1.367 . S
C827 C829 1.433 . S
C828 C824 1.350 . S
C828 C825 1.463 1_455 S
C828 N832 1.427 . S
C829 H819 0.929 . S
C829 C827 1.433 . S
C829 N832 1.384 . S
C830 H821 0.929 . S
C830 C822 1.378 . S
C830 C825 1.350 . S
C831 H818 0.929 . S
C831 C823 1.433 . S
C831 N833 1.384 . S
N832 C828 1.427 . S
N832 C829 1.384 . S
N833 C825 1.427 . S
N833 C831 1.384 . S
H834 C840 0.930 . S
H835 C844 0.930 . S
H836 C849 0.929 . S
H837 C847 0.929 . S
H838 C842 0.929 . S
H839 C848 0.929 . S
C840 H834 0.930 . S
C840 C841 1.367 . S
C840 C848 1.378 . S
C841 C840 1.367 . S
C841 C849 1.433 . S
C842 H838 0.929 . S
C842 C844 1.378 . S
C842 C846 1.350 . S
C843 C846 1.463 1_545 S
C843 C848 1.350 . S
C843 N851 1.427 . S
C844 H835 0.930 . S
C844 C842 1.378 . S
C844 C845 1.367 . S
C845 C844 1.367 . S
C845 C847 1.433 . S
C846 C842 1.350 . S
C846 C843 1.463 1_565 S
C846 N850 1.427 . S
C847 H837 0.929 . S
C847 C845 1.433 . S
C847 N850 1.384 . S
C848 H839 0.929 . S
C848 C840 1.378 . S
C848 C843 1.350 . S
C849 H836 0.929 . S
C849 C841 1.433 . S
C849 N851 1.384 . S
N850 C846 1.427 . S
N850 C847 1.384 . S
N851 C843 1.427 . S
N851 C849 1.384 . S
H852 C858 0.930 . S
H853 C862 0.930 . S
H854 C867 0.929 . S
H855 C865 0.929 . S
H856 C860 0.929 . S
H857 C866 0.929 . S
C858 H852 0.930 . S
C858 C859 1.367 . S
C858 C866 1.378 . S
C859 C858 1.367 . S
C859 C867 1.433 . S
C860 H856 0.929 . S
C860 C862 1.378 . S
C860 C864 1.350 . S
C861 C864 1.463 . S
C861 C866 1.350 . S
C861 N869 1.427 . S
C862 H853 0.930 . S
C862 C860 1.378 . S
C862 C863 1.367 . S
C863 C862 1.367 . S
C863 C865 1.433 . S
C864 C860 1.350 . S
C864 C861 1.463 . S
C864 N868 1.427 . S
C865 H855 0.929 . S
C865 C863 1.433 . S
C865 N868 1.384 . S
C866 H857 0.929 . S
C866 C858 1.378 . S
C866 C861 1.350 . S
C867 H854 0.929 . S
C867 C859 1.433 . S
C867 N869 1.384 . S
N868 C864 1.427 . S
N868 C865 1.384 . S
N869 C861 1.427 . S
N869 C867 1.384 . S
H870 C876 0.930 . S
H871 C880 0.930 . S
H872 C885 0.929 . S
H873 C883 0.929 . S
H874 C878 0.929 . S
H875 C884 0.929 . S
C876 H870 0.930 . S
C876 C877 1.367 . S
C876 C884 1.378 . S
C877 C876 1.367 . S
C877 C885 1.433 . S
C878 H874 0.929 . S
C878 C880 1.378 . S
C878 C882 1.350 . S
C879 C882 1.463 1_655 S
C879 C884 1.350 . S
C879 N887 1.427 . S
C880 H871 0.930 . S
C880 C878 1.378 . S
C880 C881 1.367 . S
C881 C880 1.367 . S
C881 C883 1.433 . S
C882 C878 1.350 . S
C882 C879 1.463 1_455 S
C882 N886 1.427 . S
C883 H873 0.929 . S
C883 C881 1.433 . S
C883 N886 1.384 . S
C884 H875 0.929 . S
C884 C876 1.378 . S
C884 C879 1.350 . S
C885 H872 0.929 . S
C885 C877 1.433 . S
C885 N887 1.384 . S
N886 C882 1.427 . S
N886 C883 1.384 . S
N887 C879 1.427 . S
N887 C885 1.384 . S
H888 C894 0.930 . S
H889 C898 0.930 . S
H890 C903 0.929 . S
H891 C901 0.929 . S
H892 C896 0.929 . S
H893 C902 0.929 . S
C894 H888 0.930 . S
C894 C895 1.367 . S
C894 C902 1.378 . S
C895 C894 1.367 . S
C895 C903 1.433 . S
C896 H892 0.929 . S
C896 C898 1.378 . S
C896 C900 1.350 . S
C897 C900 1.463 1_545 S
C897 C902 1.350 . S
C897 N905 1.427 . S
C898 H889 0.930 . S
C898 C896 1.378 . S
C898 C899 1.367 . S
C899 C898 1.367 . S
C899 C901 1.433 . S
C900 C896 1.350 . S
C900 C897 1.463 1_565 S
C900 N904 1.427 . S
C901 H891 0.929 . S
C901 C899 1.433 . S
C901 N904 1.384 . S
C902 H893 0.929 . S
C902 C894 1.378 . S
C902 C897 1.350 . S
C903 H890 0.929 . S
C903 C895 1.433 . S
C903 N905 1.384 . S
N904 C900 1.427 . S
N904 C901 1.384 . S
N905 C897 1.427 . S
N905 C903 1.384 . S
H906 C912 0.930 . S
H907 C916 0.930 . S
H908 C921 0.929 . S
H909 C919 0.929 . S
H910 C914 0.929 . S
H911 C920 0.929 . S
C912 H906 0.930 . S
C912 C913 1.367 . S
C912 C920 1.378 . S
C913 C912 1.367 . S
C913 C921 1.433 . S
C914 H910 0.929 . S
C914 C916 1.378 . S
C914 C918 1.350 . S
C915 C918 1.463 . S
C915 C920 1.350 . S
C915 N923 1.427 . S
C916 H907 0.930 . S
C916 C914 1.378 . S
C916 C917 1.367 . S
C917 C916 1.367 . S
C917 C919 1.433 . S
C918 C914 1.350 . S
C918 C915 1.463 . S
C918 N922 1.427 . S
C919 H909 0.929 . S
C919 C917 1.433 . S
C919 N922 1.384 . S
C920 H911 0.929 . S
C920 C912 1.378 . S
C920 C915 1.350 . S
C921 H908 0.929 . S
C921 C913 1.433 . S
C921 N923 1.384 . S
N922 C918 1.427 . S
N922 C919 1.384 . S
N923 C915 1.427 . S
N923 C921 1.384 . S
H924 C930 0.930 . S
H925 C934 0.930 . S
H926 C939 0.929 . S
H927 C937 0.929 . S
H928 C932 0.929 . S
H929 C938 0.929 . S
C930 H924 0.930 . S
C930 C931 1.367 . S
C930 C938 1.378 . S
C931 C930 1.367 . S
C931 C939 1.433 . S
C932 H928 0.929 . S
C932 C934 1.378 . S
C932 C936 1.350 . S
C933 C936 1.463 1_455 S
C933 C938 1.350 . S
C933 N941 1.427 . S
C934 H925 0.930 . S
C934 C932 1.378 . S
C934 C935 1.367 . S
C935 C934 1.367 . S
C935 C937 1.433 . S
C936 C932 1.350 . S
C936 C933 1.463 1_655 S
C936 N940 1.427 . S
C937 H927 0.929 . S
C937 C935 1.433 . S
C937 N940 1.384 . S
C938 H929 0.929 . S
C938 C930 1.378 . S
C938 C933 1.350 . S
C939 H926 0.929 . S
C939 C931 1.433 . S
C939 N941 1.384 . S
N940 C936 1.427 . S
N940 C937 1.384 . S
N941 C933 1.427 . S
N941 C939 1.384 . S
H942 C948 0.930 . S
H943 C952 0.930 . S
H944 C957 0.929 . S
H945 C955 0.929 . S
H946 C950 0.929 . S
H947 C956 0.929 . S
C948 H942 0.930 . S
C948 C949 1.367 . S
C948 C956 1.378 . S
C949 C948 1.367 . S
C949 C957 1.433 . S
C950 H946 0.929 . S
C950 C952 1.378 . S
C950 C954 1.350 . S
C951 C954 1.463 1_565 S
C951 C956 1.350 . S
C951 N959 1.427 . S
C952 H943 0.930 . S
C952 C950 1.378 . S
C952 C953 1.367 . S
C953 C952 1.367 . S
C953 C955 1.433 . S
C954 C950 1.350 . S
C954 C951 1.463 1_545 S
C954 N958 1.427 . S
C955 H945 0.929 . S
C955 C953 1.433 . S
C955 N958 1.384 . S
C956 H947 0.929 . S
C956 C948 1.378 . S
C956 C951 1.350 . S
C957 H944 0.929 . S
C957 C949 1.433 . S
C957 N959 1.384 . S
N958 C954 1.427 . S
N958 C955 1.384 . S
N959 C951 1.427 . S
N959 C957 1.384 . S
H960 C966 0.930 . S
H961 C970 0.930 . S
H962 C975 0.929 . S
H963 C973 0.929 . S
H964 C968 0.929 1_556 S
H965 C974 0.929 1_554 S
C966 H960 0.930 . S
C966 C967 1.367 . S
C966 C974 1.378 . S
C967 C966 1.367 . S
C967 C975 1.433 . S
C968 H964 0.929 1_554 S
C968 C970 1.378 . S
C968 C972 1.350 . S
C969 C972 1.463 1_556 S
C969 C974 1.350 . S
C969 N977 1.427 . S
C970 H961 0.930 . S
C970 C968 1.378 . S
C970 C971 1.367 . S
C971 C970 1.367 . S
C971 C973 1.433 . S
C972 C968 1.350 . S
C972 C969 1.463 1_554 S
C972 N976 1.427 . S
C973 H963 0.929 . S
C973 C971 1.433 . S
C973 N976 1.384 . S
C974 H965 0.929 1_556 S
C974 C966 1.378 . S
C974 C969 1.350 . S
C975 H962 0.929 . S
C975 C967 1.433 . S
C975 N977 1.384 . S
N976 C972 1.427 . S
N976 C973 1.384 . S
N977 C969 1.427 . S
N977 C975 1.384 . S
H978 C984 0.930 . S
H979 C988 0.930 . S
H980 C993 0.929 . S
H981 C991 0.929 . S
H982 C986 0.929 . S
H983 C992 0.929 . S
C984 H978 0.930 . S
C984 C985 1.367 . S
C984 C992 1.378 . S
C985 C984 1.367 . S
C985 C993 1.433 . S
C986 H982 0.929 . S
C986 C988 1.378 . S
C986 C990 1.350 . S
C987 C990 1.463 . S
C987 C992 1.350 . S
C987 N995 1.427 . S
C988 H979 0.930 . S
C988 C986 1.378 . S
C988 C989 1.367 . S
C989 C988 1.367 . S
C989 C991 1.433 . S
C990 C986 1.350 . S
C990 C987 1.463 . S
C990 N994 1.427 . S
C991 H981 0.929 . S
C991 C989 1.433 . S
C991 N994 1.384 . S
C992 H983 0.929 . S
C992 C984 1.378 . S
C992 C987 1.350 . S
C993 H980 0.929 . S
C993 C985 1.433 . S
C993 N995 1.384 . S
N994 C990 1.427 . S
N994 C991 1.384 . S
N995 C987 1.427 . S
N995 C993 1.384 . S
H996 C1002 0.930 . S
H997 C1006 0.930 . S
H998 C1011 0.934 . S
H999 C1009 0.933 . S
H1000 C1004 0.929 . S
H1001 C1010 0.929 . S
C1002 H996 0.930 . S
C1002 C1003 1.367 . S
C1002 C1010 1.378 . S
C1003 C1002 1.367 . S
C1003 C1011 1.433 . S
C1004 H1000 0.929 . S
C1004 C1006 1.378 . S
C1004 C1008 1.350 . S
C1005 C1008 1.463 1_556 S
C1005 C1010 1.350 . S
C1005 N1013 1.427 1_556 S
C1006 H997 0.930 . S
C1006 C1004 1.378 . S
C1006 C1007 1.367 . S
C1007 C1006 1.367 . S
C1007 C1009 1.433 . S
C1008 C1004 1.350 . S
C1008 C1005 1.463 1_554 S
C1008 N1012 1.427 1_554 S
C1009 H999 0.933 . S
C1009 C1007 1.433 . S
C1009 N1012 1.384 1_554 S
C1010 H1001 0.929 . S
C1010 C1002 1.378 . S
C1010 C1005 1.350 . S
C1011 H998 0.934 . S
C1011 C1003 1.433 . S
C1011 N1013 1.384 1_556 S
N1012 C1008 1.427 1_556 S
N1012 C1009 1.384 1_556 S
N1013 C1005 1.427 1_554 S
N1013 C1011 1.384 1_554 S
H1014 C1020 0.930 . S
H1015 C1024 0.930 . S
H1016 C1029 0.929 . S
H1017 C1027 0.929 . S
H1018 C1022 0.929 . S
H1019 C1028 0.929 . S
C1020 H1014 0.930 . S
C1020 C1021 1.367 . S
C1020 C1028 1.378 . S
C1021 C1020 1.367 . S
C1021 C1029 1.433 . S
C1022 H1018 0.929 . S
C1022 C1024 1.378 . S
C1022 C1026 1.350 . S
C1023 C1026 1.463 . S
C1023 C1028 1.350 . S
C1023 N1031 1.427 . S
C1024 H1015 0.930 . S
C1024 C1022 1.378 . S
C1024 C1025 1.367 . S
C1025 C1024 1.367 . S
C1025 C1027 1.433 . S
C1026 C1022 1.350 . S
C1026 C1023 1.463 . S
C1026 N1030 1.427 . S
C1027 H1017 0.929 . S
C1027 C1025 1.433 . S
C1027 N1030 1.384 . S
C1028 H1019 0.929 . S
C1028 C1020 1.378 . S
C1028 C1023 1.350 . S
C1029 H1016 0.929 . S
C1029 C1021 1.433 . S
C1029 N1031 1.384 . S
N1030 C1026 1.427 . S
N1030 C1027 1.384 . S
N1031 C1023 1.427 . S
N1031 C1029 1.384 . S
H1032 C1038 0.930 1_554 S
H1033 C1042 0.930 1_556 S
H1034 C1047 0.929 . S
H1035 C1045 0.929 . S
H1036 C1040 0.929 . S
H1037 C1046 0.929 . S
C1038 H1032 0.930 1_556 S
C1038 C1039 1.367 . S
C1038 C1046 1.378 1_556 S
C1039 C1038 1.367 . S
C1039 C1047 1.433 . S
C1040 H1036 0.929 . S
C1040 C1042 1.378 1_556 S
C1040 C1044 1.350 1_556 S
C1041 C1044 1.463 1_556 S
C1041 C1046 1.350 1_556 S
C1041 N1049 1.427 . S
C1042 H1033 0.930 1_554 S
C1042 C1040 1.378 1_554 S
C1042 C1043 1.367 . S
C1043 C1042 1.367 . S
C1043 C1045 1.433 . S
C1044 C1040 1.350 1_554 S
C1044 C1041 1.463 1_554 S
C1044 N1048 1.427 . S
C1045 H1035 0.929 . S
C1045 C1043 1.433 . S
C1045 N1048 1.384 . S
C1046 H1037 0.929 . S
C1046 C1038 1.378 1_554 S
C1046 C1041 1.350 1_554 S
C1047 H1034 0.929 . S
C1047 C1039 1.433 . S
C1047 N1049 1.384 . S
N1048 C1044 1.427 . S
N1048 C1045 1.384 . S
N1049 C1041 1.427 . S
N1049 C1047 1.384 . S
H1050 C1056 0.930 . S
H1051 C1060 0.930 . S
H1052 C1065 0.929 . S
H1053 C1063 0.929 . S
H1054 C1058 0.929 . S
H1055 C1064 0.929 . S
C1056 H1050 0.930 . S
C1056 C1057 1.367 . S
C1056 C1064 1.378 . S
C1057 C1056 1.367 . S
C1057 C1065 1.433 . S
C1058 H1054 0.929 . S
C1058 C1060 1.378 . S
C1058 C1062 1.350 . S
C1059 C1062 1.463 . S
C1059 C1064 1.350 . S
C1059 N1067 1.427 . S
C1060 H1051 0.930 . S
C1060 C1058 1.378 . S
C1060 C1061 1.367 . S
C1061 C1060 1.367 . S
C1061 C1063 1.433 . S
C1062 C1058 1.350 . S
C1062 C1059 1.463 . S
C1062 N1066 1.427 . S
C1063 H1053 0.929 . S
C1063 C1061 1.433 . S
C1063 N1066 1.384 . S
C1064 H1055 0.929 . S
C1064 C1056 1.378 . S
C1064 C1059 1.350 . S
C1065 H1052 0.929 . S
C1065 C1057 1.433 . S
C1065 N1067 1.384 . S
N1066 C1062 1.427 . S
N1066 C1063 1.384 . S
N1067 C1059 1.427 . S
N1067 C1065 1.384 . S
H1068 C1074 0.930 . S
H1069 C1078 0.930 . S
H1070 C1083 0.929 . S
H1071 C1081 0.929 . S
H1072 C1076 0.928 1_554 S
H1073 C1082 0.928 1_556 S
C1074 H1068 0.930 . S
C1074 C1075 1.367 . S
C1074 C1082 1.378 . S
C1075 C1074 1.367 . S
C1075 C1083 1.433 . S
C1076 H1072 0.928 1_556 S
C1076 C1078 1.378 . S
C1076 C1080 1.350 . S
C1077 C1080 1.463 1_554 S
C1077 C1082 1.350 . S
C1077 N1085 1.427 . S
C1078 H1069 0.930 . S
C1078 C1076 1.378 . S
C1078 C1079 1.367 . S
C1079 C1078 1.367 . S
C1079 C1081 1.433 . S
C1080 C1076 1.350 . S
C1080 C1077 1.463 1_556 S
C1080 N1084 1.427 . S
C1081 H1071 0.929 . S
C1081 C1079 1.433 . S
C1081 N1084 1.384 . S
C1082 H1073 0.928 1_554 S
C1082 C1074 1.378 . S
C1082 C1077 1.350 . S
C1083 H1070 0.929 . S
C1083 C1075 1.433 . S
C1083 N1085 1.384 . S
N1084 C1080 1.427 . S
N1084 C1081 1.384 . S
N1085 C1077 1.427 . S
N1085 C1083 1.384 . S
H1086 C1092 0.930 . S
H1087 C1096 0.930 . S
H1088 C1101 0.929 . S
H1089 C1099 0.929 . S
H1090 C1094 0.929 . S
H1091 C1100 0.929 . S
C1092 H1086 0.930 . S
C1092 C1093 1.367 . S
C1092 C1100 1.378 . S
C1093 C1092 1.367 . S
C1093 C1101 1.433 . S
C1094 H1090 0.929 . S
C1094 C1096 1.378 . S
C1094 C1098 1.350 . S
C1095 C1098 1.463 . S
C1095 C1100 1.350 . S
C1095 N1103 1.427 . S
C1096 H1087 0.930 . S
C1096 C1094 1.378 . S
C1096 C1097 1.367 . S
C1097 C1096 1.367 . S
C1097 C1099 1.433 . S
C1098 C1094 1.350 . S
C1098 C1095 1.463 . S
C1098 N1102 1.427 . S
C1099 H1089 0.929 . S
C1099 C1097 1.433 . S
C1099 N1102 1.384 . S
C1100 H1091 0.929 . S
C1100 C1092 1.378 . S
C1100 C1095 1.350 . S
C1101 H1088 0.929 . S
C1101 C1093 1.433 . S
C1101 N1103 1.384 . S
N1102 C1098 1.427 . S
N1102 C1099 1.384 . S
N1103 C1095 1.427 . S
N1103 C1101 1.384 . S
H1104 C1110 0.930 . S
H1105 C1114 0.930 . S
H1106 C1119 0.929 . S
H1107 C1117 0.929 . S
H1108 C1112 0.929 . S
H1109 C1118 0.929 . S
C1110 H1104 0.930 . S
C1110 C1111 1.367 . S
C1110 C1118 1.378 . S
C1111 C1110 1.367 . S
C1111 C1119 1.433 . S
C1112 H1108 0.929 . S
C1112 C1114 1.378 . S
C1112 C1116 1.350 . S
C1113 C1116 1.463 1_554 S
C1113 C1118 1.350 . S
C1113 N1121 1.427 . S
C1114 H1105 0.930 . S
C1114 C1112 1.378 . S
C1114 C1115 1.367 . S
C1115 C1114 1.367 . S
C1115 C1117 1.433 . S
C1116 C1112 1.350 . S
C1116 C1113 1.463 1_556 S
C1116 N1120 1.427 . S
C1117 H1107 0.929 . S
C1117 C1115 1.433 . S
C1117 N1120 1.384 . S
C1118 H1109 0.929 . S
C1118 C1110 1.378 . S
C1118 C1113 1.350 . S
C1119 H1106 0.929 . S
C1119 C1111 1.433 . S
C1119 N1121 1.384 . S
N1120 C1116 1.427 . S
N1120 C1117 1.384 . S
N1121 C1113 1.427 . S
N1121 C1119 1.384 . S
H1122 C1128 0.930 . S
H1123 C1132 0.930 . S
H1124 C1137 0.929 . S
H1125 C1135 0.929 . S
H1126 C1130 0.929 . S
H1127 C1136 0.929 . S
C1128 H1122 0.930 . S
C1128 C1129 1.367 . S
C1128 C1136 1.378 . S
C1129 C1128 1.367 . S
C1129 C1137 1.433 . S
C1130 H1126 0.929 . S
C1130 C1132 1.378 . S
C1130 C1134 1.350 . S
C1131 C1134 1.463 . S
C1131 C1136 1.350 . S
C1131 N1139 1.427 . S
C1132 H1123 0.930 . S
C1132 C1130 1.378 . S
C1132 C1133 1.367 . S
C1133 C1132 1.367 . S
C1133 C1135 1.433 . S
C1134 C1130 1.350 . S
C1134 C1131 1.463 . S
C1134 N1138 1.427 . S
C1135 H1125 0.929 . S
C1135 C1133 1.433 . S
C1135 N1138 1.384 . S
C1136 H1127 0.929 . S
C1136 C1128 1.378 . S
C1136 C1131 1.350 . S
C1137 H1124 0.929 . S
C1137 C1129 1.433 . S
C1137 N1139 1.384 . S
N1138 C1134 1.427 . S
N1138 C1135 1.384 . S
N1139 C1131 1.427 . S
N1139 C1137 1.384 . S
H1140 C1146 0.930 . S
H1141 C1150 0.930 . S
H1142 C1155 0.929 . S
H1143 C1153 0.929 . S
H1144 C1148 0.929 . S
H1145 C1154 0.929 . S
C1146 H1140 0.930 . S
C1146 C1147 1.367 . S
C1146 C1154 1.378 1_556 S
C1147 C1146 1.367 . S
C1147 C1155 1.433 . S
C1148 H1144 0.929 . S
C1148 C1150 1.378 1_556 S
C1148 C1152 1.350 1_556 S
C1149 C1152 1.463 1_556 S
C1149 C1154 1.350 1_556 S
C1149 N1157 1.427 . S
C1150 H1141 0.930 . S
C1150 C1148 1.378 1_554 S
C1150 C1151 1.367 . S
C1151 C1150 1.367 . S
C1151 C1153 1.433 . S
C1152 C1148 1.350 1_554 S
C1152 C1149 1.463 1_554 S
C1152 N1156 1.427 . S
C1153 H1143 0.929 . S
C1153 C1151 1.433 . S
C1153 N1156 1.384 . S
C1154 H1145 0.929 . S
C1154 C1146 1.378 1_554 S
C1154 C1149 1.350 1_554 S
C1155 H1142 0.929 . S
C1155 C1147 1.433 . S
C1155 N1157 1.384 . S
N1156 C1152 1.427 . S
N1156 C1153 1.384 . S
N1157 C1149 1.427 . S
N1157 C1155 1.384 . S
H1158 C1164 0.930 . S
H1159 C1168 0.930 . S
H1160 C1173 0.929 . S
H1161 C1171 0.929 . S
H1162 C1166 0.929 . S
H1163 C1172 0.929 . S
C1164 H1158 0.930 . S
C1164 C1165 1.367 . S
C1164 C1172 1.378 . S
C1165 C1164 1.367 . S
C1165 C1173 1.433 . S
C1166 H1162 0.929 . S
C1166 C1168 1.378 . S
C1166 C1170 1.350 . S
C1167 C1170 1.463 . S
C1167 C1172 1.350 . S
C1167 N1175 1.427 . S
C1168 H1159 0.930 . S
C1168 C1166 1.378 . S
C1168 C1169 1.367 . S
C1169 C1168 1.367 . S
C1169 C1171 1.433 . S
C1170 C1166 1.350 . S
C1170 C1167 1.463 . S
C1170 N1174 1.427 . S
C1171 H1161 0.929 . S
C1171 C1169 1.433 . S
C1171 N1174 1.384 . S
C1172 H1163 0.929 . S
C1172 C1164 1.378 . S
C1172 C1167 1.350 . S
C1173 H1160 0.929 . S
C1173 C1165 1.433 . S
C1173 N1175 1.384 . S
N1174 C1170 1.427 . S
N1174 C1171 1.384 . S
N1175 C1167 1.427 . S
N1175 C1173 1.384 . S
C319 C10 1.455 . S
C323 C205 1.454 . S
C337 C23 1.450 . S
C341 C218 1.458 . S
C355 C231 1.453 . S
C359 C36 1.455 . S
C373 C166 1.451 . S
C377 C49 1.458 . S
C391 C179 1.452 . S
C395 C62 1.456 . S
C409 C192 1.453 . S
C413 C75 1.456 . S
C427 C283 1.456 . S
C431 C88 1.452 . S
C445 C101 1.453 . S
C449 C296 1.455 . S
C463 C309 1.455 . S
C467 C114 1.453 . S
C481 C127 1.458 . S
C485 C244 1.450 . S
C499 C257 1.450 . S
C503 C140 1.458 . S
C517 C153 1.457 . S
C521 C270 1.451 . S
C535 C130 1.108 . S
C539 C0 1.103 . S
C553 C143 1.098 . S
C557 C13 1.100 . S
C571 C26 1.115 . S
C575 C78 1.116 . S
C589 C39 1.113 . S
C593 C91 1.116 . S
C607 C104 1.112 . S
C611 C52 1.107 . S
C625 C65 1.116 . S
C629 C117 1.112 . S
C643 C286 1.110 . S
C647 C156 1.105 . S
C661 C169 1.099 . S
C665 C299 1.102 . S
C679 C182 1.110 . S
C683 C234 1.114 . S
C697 C247 1.103 . S
C701 C195 1.108 . S
C715 C208 1.106 . S
C719 C260 1.111 . S
C733 C221 1.102 . S
C737 C273 1.099 . S
C751 C5 1.193 . S
C755 C239 1.192 . S
C769 C252 1.188 . S
C773 C18 1.198 . S
C787 C31 1.194 . S
C791 C265 1.192 . S
C805 C44 1.197 . S
C809 C278 1.188 . S
C823 C291 1.198 . S
C827 C57 1.187 . S
C841 C70 1.188 . S
C845 C304 1.198 . S
C859 C83 1.191 . S
C863 C161 1.194 . S
C877 C96 1.183 . S
C881 C174 1.202 . S
C895 C187 1.202 . S
C899 C109 1.183 . S
C913 C200 1.183 . S
C917 C122 1.202 . S
C931 C135 1.197 . S
C935 C213 1.189 . S
C949 C226 1.201 . S
C953 C148 1.184 . S
C967 C86 1.505 . S
C971 C8 1.492 . S
C985 C21 1.491 . S
C989 C99 1.505 . S
C1003 C112 1.494 . S
C1007 C34 1.504 . S
C1021 C125 1.500 . S
C1025 C47 1.496 . S
C1039 C138 1.496 . S
C1043 C60 1.499 . S
C1057 C73 1.491 . S
C1061 C151 1.505 . S
C1075 C242 1.492 . S
C1079 C164 1.504 . S
C1093 C177 1.496 . S
C1097 C255 1.502 . S
C1111 C268 1.492 . S
C1115 C190 1.505 . S
C1129 C281 1.500 . S
C1133 C203 1.499 . S
C1147 C216 1.503 . S
C1151 C294 1.493 . S
C1165 C229 1.492 . S
C1169 C307 1.505 . S
