# Generated by pormake.
# Topology ana-e, (6)-cn, num edge types: 1
# Building blocks:
#     Node 0, Type 0, BuildingBlock: MAKGUD_clean_sbu_1, # of connection points: 6
#     Node 1, Type 0, BuildingBlock: MAKGUD_clean_sbu_1, # of connection points: 6
#     Node 2, Type 0, BuildingBlock: MAKGUD_clean_sbu_1, # of connection points: 6
#     Node 3, Type 0, BuildingBlock: MAKGUD_clean_sbu_1, # of connection points: 6
#     Node 4, Type 0, BuildingBlock: MAKGUD_clean_sbu_1, # of connection points: 6
#     Node 5, Type 0, BuildingBlock: MAKGUD_clean_sbu_1, # of connection points: 6
#     Node 6, Type 0, BuildingBlock: MAKGUD_clean_sbu_1, # of connection points: 6
#     Node 7, Type 0, BuildingBlock: MAKGUD_clean_sbu_1, # of connection points: 6
#     Node 8, Type 0, BuildingBlock: MAKGUD_clean_sbu_1, # of connection points: 6
#     Node 9, Type 0, BuildingBlock: MAKGUD_clean_sbu_1, # of connection points: 6
#     Node 10, Type 0, BuildingBlock: MAKGUD_clean_sbu_1, # of connection points: 6
#     Node 11, Type 0, BuildingBlock: MAKGUD_clean_sbu_1, # of connection points: 6
#     Node 12, Type 0, BuildingBlock: MAKGUD_clean_sbu_1, # of connection points: 6
#     Node 13, Type 0, BuildingBlock: MAKGUD_clean_sbu_1, # of connection points: 6
#     Node 14, Type 0, BuildingBlock: MAKGUD_clean_sbu_1, # of connection points: 6
#     Node 15, Type 0, BuildingBlock: MAKGUD_clean_sbu_1, # of connection points: 6
#     Node 16, Type 0, BuildingBlock: MAKGUD_clean_sbu_1, # of connection points: 6
#     Node 17, Type 0, BuildingBlock: MAKGUD_clean_sbu_1, # of connection points: 6
#     Node 18, Type 0, BuildingBlock: MAKGUD_clean_sbu_1, # of connection points: 6
#     Node 19, Type 0, BuildingBlock: MAKGUD_clean_sbu_1, # of connection points: 6
#     Node 20, Type 0, BuildingBlock: MAKGUD_clean_sbu_1, # of connection points: 6
#     Node 21, Type 0, BuildingBlock: MAKGUD_clean_sbu_1, # of connection points: 6
#     Node 22, Type 0, BuildingBlock: MAKGUD_clean_sbu_1, # of connection points: 6
#     Node 23, Type 0, BuildingBlock: MAKGUD_clean_sbu_1, # of connection points: 6
#     Node 24, Type 0, BuildingBlock: MAKGUD_clean_sbu_1, # of connection points: 6
#     Node 25, Type 0, BuildingBlock: MAKGUD_clean_sbu_1, # of connection points: 6
#     Node 26, Type 0, BuildingBlock: MAKGUD_clean_sbu_1, # of connection points: 6
#     Node 27, Type 0, BuildingBlock: MAKGUD_clean_sbu_1, # of connection points: 6
#     Node 28, Type 0, BuildingBlock: MAKGUD_clean_sbu_1, # of connection points: 6
#     Node 29, Type 0, BuildingBlock: MAKGUD_clean_sbu_1, # of connection points: 6
#     Node 30, Type 0, BuildingBlock: MAKGUD_clean_sbu_1, # of connection points: 6
#     Node 31, Type 0, BuildingBlock: MAKGUD_clean_sbu_1, # of connection points: 6
#     Node 32, Type 0, BuildingBlock: MAKGUD_clean_sbu_1, # of connection points: 6
#     Node 33, Type 0, BuildingBlock: MAKGUD_clean_sbu_1, # of connection points: 6
#     Node 34, Type 0, BuildingBlock: MAKGUD_clean_sbu_1, # of connection points: 6
#     Node 35, Type 0, BuildingBlock: MAKGUD_clean_sbu_1, # of connection points: 6
#     Node 36, Type 0, BuildingBlock: MAKGUD_clean_sbu_1, # of connection points: 6
#     Node 37, Type 0, BuildingBlock: MAKGUD_clean_sbu_1, # of connection points: 6
#     Node 38, Type 0, BuildingBlock: MAKGUD_clean_sbu_1, # of connection points: 6
#     Node 39, Type 0, BuildingBlock: MAKGUD_clean_sbu_1, # of connection points: 6
#     Node 40, Type 0, BuildingBlock: MAKGUD_clean_sbu_1, # of connection points: 6
#     Node 41, Type 0, BuildingBlock: MAKGUD_clean_sbu_1, # of connection points: 6
#     Node 42, Type 0, BuildingBlock: MAKGUD_clean_sbu_1, # of connection points: 6
#     Node 43, Type 0, BuildingBlock: MAKGUD_clean_sbu_1, # of connection points: 6
#     Node 44, Type 0, BuildingBlock: MAKGUD_clean_sbu_1, # of connection points: 6
#     Node 45, Type 0, BuildingBlock: MAKGUD_clean_sbu_1, # of connection points: 6
#     Node 46, Type 0, BuildingBlock: MAKGUD_clean_sbu_1, # of connection points: 6
#     Node 47, Type 0, BuildingBlock: MAKGUD_clean_sbu_1, # of connection points: 6
#     Node 48, Type 0, BuildingBlock: MAKGUD_clean_sbu_1, # of connection points: 6
#     Node 49, Type 0, BuildingBlock: MAKGUD_clean_sbu_1, # of connection points: 6
#     Node 50, Type 0, BuildingBlock: MAKGUD_clean_sbu_1, # of connection points: 6
#     Node 51, Type 0, BuildingBlock: MAKGUD_clean_sbu_1, # of connection points: 6
#     Node 52, Type 0, BuildingBlock: MAKGUD_clean_sbu_1, # of connection points: 6
#     Node 53, Type 0, BuildingBlock: MAKGUD_clean_sbu_1, # of connection points: 6
#     Node 54, Type 0, BuildingBlock: MAKGUD_clean_sbu_1, # of connection points: 6
#     Node 55, Type 0, BuildingBlock: MAKGUD_clean_sbu_1, # of connection points: 6
#     Node 56, Type 0, BuildingBlock: MAKGUD_clean_sbu_1, # of connection points: 6
#     Node 57, Type 0, BuildingBlock: MAKGUD_clean_sbu_1, # of connection points: 6
#     Node 58, Type 0, BuildingBlock: MAKGUD_clean_sbu_1, # of connection points: 6
#     Node 59, Type 0, BuildingBlock: MAKGUD_clean_sbu_1, # of connection points: 6
#     Node 60, Type 0, BuildingBlock: MAKGUD_clean_sbu_1, # of connection points: 6
#     Node 61, Type 0, BuildingBlock: MAKGUD_clean_sbu_1, # of connection points: 6
#     Node 62, Type 0, BuildingBlock: MAKGUD_clean_sbu_1, # of connection points: 6
#     Node 63, Type 0, BuildingBlock: MAKGUD_clean_sbu_1, # of connection points: 6
#     Node 64, Type 0, BuildingBlock: MAKGUD_clean_sbu_1, # of connection points: 6
#     Node 65, Type 0, BuildingBlock: MAKGUD_clean_sbu_1, # of connection points: 6
#     Node 66, Type 0, BuildingBlock: MAKGUD_clean_sbu_1, # of connection points: 6
#     Node 67, Type 0, BuildingBlock: MAKGUD_clean_sbu_1, # of connection points: 6
#     Node 68, Type 0, BuildingBlock: MAKGUD_clean_sbu_1, # of connection points: 6
#     Node 69, Type 0, BuildingBlock: MAKGUD_clean_sbu_1, # of connection points: 6
#     Node 70, Type 0, BuildingBlock: MAKGUD_clean_sbu_1, # of connection points: 6
#     Node 71, Type 0, BuildingBlock: MAKGUD_clean_sbu_1, # of connection points: 6
#     Node 72, Type 0, BuildingBlock: MAKGUD_clean_sbu_1, # of connection points: 6
#     Node 73, Type 0, BuildingBlock: MAKGUD_clean_sbu_1, # of connection points: 6
#     Node 74, Type 0, BuildingBlock: MAKGUD_clean_sbu_1, # of connection points: 6
#     Node 75, Type 0, BuildingBlock: MAKGUD_clean_sbu_1, # of connection points: 6
#     Node 76, Type 0, BuildingBlock: MAKGUD_clean_sbu_1, # of connection points: 6
#     Node 77, Type 0, BuildingBlock: MAKGUD_clean_sbu_1, # of connection points: 6
#     Node 78, Type 0, BuildingBlock: MAKGUD_clean_sbu_1, # of connection points: 6
#     Node 79, Type 0, BuildingBlock: MAKGUD_clean_sbu_1, # of connection points: 6
#     Node 80, Type 0, BuildingBlock: MAKGUD_clean_sbu_1, # of connection points: 6
#     Node 81, Type 0, BuildingBlock: MAKGUD_clean_sbu_1, # of connection points: 6
#     Node 82, Type 0, BuildingBlock: MAKGUD_clean_sbu_1, # of connection points: 6
#     Node 83, Type 0, BuildingBlock: MAKGUD_clean_sbu_1, # of connection points: 6
#     Node 84, Type 0, BuildingBlock: MAKGUD_clean_sbu_1, # of connection points: 6
#     Node 85, Type 0, BuildingBlock: MAKGUD_clean_sbu_1, # of connection points: 6
#     Node 86, Type 0, BuildingBlock: MAKGUD_clean_sbu_1, # of connection points: 6
#     Node 87, Type 0, BuildingBlock: MAKGUD_clean_sbu_1, # of connection points: 6
#     Node 88, Type 0, BuildingBlock: MAKGUD_clean_sbu_1, # of connection points: 6
#     Node 89, Type 0, BuildingBlock: MAKGUD_clean_sbu_1, # of connection points: 6
#     Node 90, Type 0, BuildingBlock: MAKGUD_clean_sbu_1, # of connection points: 6
#     Node 91, Type 0, BuildingBlock: MAKGUD_clean_sbu_1, # of connection points: 6
#     Node 92, Type 0, BuildingBlock: MAKGUD_clean_sbu_1, # of connection points: 6
#     Node 93, Type 0, BuildingBlock: MAKGUD_clean_sbu_1, # of connection points: 6
#     Node 94, Type 0, BuildingBlock: MAKGUD_clean_sbu_1, # of connection points: 6
#     Node 95, Type 0, BuildingBlock: MAKGUD_clean_sbu_1, # of connection points: 6
#     Edge 96, Type (0, 0), None
#     Edge 97, Type (0, 0), None
#     Edge 98, Type (0, 0), None
#     Edge 99, Type (0, 0), None
#     Edge 100, Type (0, 0), None
#     Edge 101, Type (0, 0), None
#     Edge 102, Type (0, 0), None
#     Edge 103, Type (0, 0), None
#     Edge 104, Type (0, 0), None
#     Edge 105, Type (0, 0), None
#     Edge 106, Type (0, 0), None
#     Edge 107, Type (0, 0), None
#     Edge 108, Type (0, 0), None
#     Edge 109, Type (0, 0), None
#     Edge 110, Type (0, 0), None
#     Edge 111, Type (0, 0), None
#     Edge 112, Type (0, 0), None
#     Edge 113, Type (0, 0), None
#     Edge 114, Type (0, 0), None
#     Edge 115, Type (0, 0), None
#     Edge 116, Type (0, 0), None
#     Edge 117, Type (0, 0), None
#     Edge 118, Type (0, 0), None
#     Edge 119, Type (0, 0), None
#     Edge 120, Type (0, 0), None
#     Edge 121, Type (0, 0), None
#     Edge 122, Type (0, 0), None
#     Edge 123, Type (0, 0), None
#     Edge 124, Type (0, 0), None
#     Edge 125, Type (0, 0), None
#     Edge 126, Type (0, 0), None
#     Edge 127, Type (0, 0), None
#     Edge 128, Type (0, 0), None
#     Edge 129, Type (0, 0), None
#     Edge 130, Type (0, 0), None
#     Edge 131, Type (0, 0), None
#     Edge 132, Type (0, 0), None
#     Edge 133, Type (0, 0), None
#     Edge 134, Type (0, 0), None
#     Edge 135, Type (0, 0), None
#     Edge 136, Type (0, 0), None
#     Edge 137, Type (0, 0), None
#     Edge 138, Type (0, 0), None
#     Edge 139, Type (0, 0), None
#     Edge 140, Type (0, 0), None
#     Edge 141, Type (0, 0), None
#     Edge 142, Type (0, 0), None
#     Edge 143, Type (0, 0), None
#     Edge 144, Type (0, 0), None
#     Edge 145, Type (0, 0), None
#     Edge 146, Type (0, 0), None
#     Edge 147, Type (0, 0), None
#     Edge 148, Type (0, 0), None
#     Edge 149, Type (0, 0), None
#     Edge 150, Type (0, 0), None
#     Edge 151, Type (0, 0), None
#     Edge 152, Type (0, 0), None
#     Edge 153, Type (0, 0), None
#     Edge 154, Type (0, 0), None
#     Edge 155, Type (0, 0), None
#     Edge 156, Type (0, 0), None
#     Edge 157, Type (0, 0), None
#     Edge 158, Type (0, 0), None
#     Edge 159, Type (0, 0), None
#     Edge 160, Type (0, 0), None
#     Edge 161, Type (0, 0), None
#     Edge 162, Type (0, 0), None
#     Edge 163, Type (0, 0), None
#     Edge 164, Type (0, 0), None
#     Edge 165, Type (0, 0), None
#     Edge 166, Type (0, 0), None
#     Edge 167, Type (0, 0), None
#     Edge 168, Type (0, 0), None
#     Edge 169, Type (0, 0), None
#     Edge 170, Type (0, 0), None
#     Edge 171, Type (0, 0), None
#     Edge 172, Type (0, 0), None
#     Edge 173, Type (0, 0), None
#     Edge 174, Type (0, 0), None
#     Edge 175, Type (0, 0), None
#     Edge 176, Type (0, 0), None
#     Edge 177, Type (0, 0), None
#     Edge 178, Type (0, 0), None
#     Edge 179, Type (0, 0), None
#     Edge 180, Type (0, 0), None
#     Edge 181, Type (0, 0), None
#     Edge 182, Type (0, 0), None
#     Edge 183, Type (0, 0), None
#     Edge 184, Type (0, 0), None
#     Edge 185, Type (0, 0), None
#     Edge 186, Type (0, 0), None
#     Edge 187, Type (0, 0), None
#     Edge 188, Type (0, 0), None
#     Edge 189, Type (0, 0), None
#     Edge 190, Type (0, 0), None
#     Edge 191, Type (0, 0), None
#     Edge 192, Type (0, 0), None
#     Edge 193, Type (0, 0), None
#     Edge 194, Type (0, 0), None
#     Edge 195, Type (0, 0), None
#     Edge 196, Type (0, 0), None
#     Edge 197, Type (0, 0), None
#     Edge 198, Type (0, 0), None
#     Edge 199, Type (0, 0), None
#     Edge 200, Type (0, 0), None
#     Edge 201, Type (0, 0), None
#     Edge 202, Type (0, 0), None
#     Edge 203, Type (0, 0), None
#     Edge 204, Type (0, 0), None
#     Edge 205, Type (0, 0), None
#     Edge 206, Type (0, 0), None
#     Edge 207, Type (0, 0), None
#     Edge 208, Type (0, 0), None
#     Edge 209, Type (0, 0), None
#     Edge 210, Type (0, 0), None
#     Edge 211, Type (0, 0), None
#     Edge 212, Type (0, 0), None
#     Edge 213, Type (0, 0), None
#     Edge 214, Type (0, 0), None
#     Edge 215, Type (0, 0), None
#     Edge 216, Type (0, 0), None
#     Edge 217, Type (0, 0), None
#     Edge 218, Type (0, 0), None
#     Edge 219, Type (0, 0), None
#     Edge 220, Type (0, 0), None
#     Edge 221, Type (0, 0), None
#     Edge 222, Type (0, 0), None
#     Edge 223, Type (0, 0), None
#     Edge 224, Type (0, 0), None
#     Edge 225, Type (0, 0), None
#     Edge 226, Type (0, 0), None
#     Edge 227, Type (0, 0), None
#     Edge 228, Type (0, 0), None
#     Edge 229, Type (0, 0), None
#     Edge 230, Type (0, 0), None
#     Edge 231, Type (0, 0), None
#     Edge 232, Type (0, 0), None
#     Edge 233, Type (0, 0), None
#     Edge 234, Type (0, 0), None
#     Edge 235, Type (0, 0), None
#     Edge 236, Type (0, 0), None
#     Edge 237, Type (0, 0), None
#     Edge 238, Type (0, 0), None
#     Edge 239, Type (0, 0), None
#     Edge 240, Type (0, 0), None
#     Edge 241, Type (0, 0), None
#     Edge 242, Type (0, 0), None
#     Edge 243, Type (0, 0), None
#     Edge 244, Type (0, 0), None
#     Edge 245, Type (0, 0), None
#     Edge 246, Type (0, 0), None
#     Edge 247, Type (0, 0), None
#     Edge 248, Type (0, 0), None
#     Edge 249, Type (0, 0), None
#     Edge 250, Type (0, 0), None
#     Edge 251, Type (0, 0), None
#     Edge 252, Type (0, 0), None
#     Edge 253, Type (0, 0), None
#     Edge 254, Type (0, 0), None
#     Edge 255, Type (0, 0), None
#     Edge 256, Type (0, 0), None
#     Edge 257, Type (0, 0), None
#     Edge 258, Type (0, 0), None
#     Edge 259, Type (0, 0), None
#     Edge 260, Type (0, 0), None
#     Edge 261, Type (0, 0), None
#     Edge 262, Type (0, 0), None
#     Edge 263, Type (0, 0), None
#     Edge 264, Type (0, 0), None
#     Edge 265, Type (0, 0), None
#     Edge 266, Type (0, 0), None
#     Edge 267, Type (0, 0), None
#     Edge 268, Type (0, 0), None
#     Edge 269, Type (0, 0), None
#     Edge 270, Type (0, 0), None
#     Edge 271, Type (0, 0), None
#     Edge 272, Type (0, 0), None
#     Edge 273, Type (0, 0), None
#     Edge 274, Type (0, 0), None
#     Edge 275, Type (0, 0), None
#     Edge 276, Type (0, 0), None
#     Edge 277, Type (0, 0), None
#     Edge 278, Type (0, 0), None
#     Edge 279, Type (0, 0), None
#     Edge 280, Type (0, 0), None
#     Edge 281, Type (0, 0), None
#     Edge 282, Type (0, 0), None
#     Edge 283, Type (0, 0), None
#     Edge 284, Type (0, 0), None
#     Edge 285, Type (0, 0), None
#     Edge 286, Type (0, 0), None
#     Edge 287, Type (0, 0), None
#     Edge 288, Type (0, 0), None
#     Edge 289, Type (0, 0), None
#     Edge 290, Type (0, 0), None
#     Edge 291, Type (0, 0), None
#     Edge 292, Type (0, 0), None
#     Edge 293, Type (0, 0), None
#     Edge 294, Type (0, 0), None
#     Edge 295, Type (0, 0), None
#     Edge 296, Type (0, 0), None
#     Edge 297, Type (0, 0), None
#     Edge 298, Type (0, 0), None
#     Edge 299, Type (0, 0), None
#     Edge 300, Type (0, 0), None
#     Edge 301, Type (0, 0), None
#     Edge 302, Type (0, 0), None
#     Edge 303, Type (0, 0), None
#     Edge 304, Type (0, 0), None
#     Edge 305, Type (0, 0), None
#     Edge 306, Type (0, 0), None
#     Edge 307, Type (0, 0), None
#     Edge 308, Type (0, 0), None
#     Edge 309, Type (0, 0), None
#     Edge 310, Type (0, 0), None
#     Edge 311, Type (0, 0), None
#     Edge 312, Type (0, 0), None
#     Edge 313, Type (0, 0), None
#     Edge 314, Type (0, 0), None
#     Edge 315, Type (0, 0), None
#     Edge 316, Type (0, 0), None
#     Edge 317, Type (0, 0), None
#     Edge 318, Type (0, 0), None
#     Edge 319, Type (0, 0), None
#     Edge 320, Type (0, 0), None
#     Edge 321, Type (0, 0), None
#     Edge 322, Type (0, 0), None
#     Edge 323, Type (0, 0), None
#     Edge 324, Type (0, 0), None
#     Edge 325, Type (0, 0), None
#     Edge 326, Type (0, 0), None
#     Edge 327, Type (0, 0), None
#     Edge 328, Type (0, 0), None
#     Edge 329, Type (0, 0), None
#     Edge 330, Type (0, 0), None
#     Edge 331, Type (0, 0), None
#     Edge 332, Type (0, 0), None
#     Edge 333, Type (0, 0), None
#     Edge 334, Type (0, 0), None
#     Edge 335, Type (0, 0), None
#     Edge 336, Type (0, 0), None
#     Edge 337, Type (0, 0), None
#     Edge 338, Type (0, 0), None
#     Edge 339, Type (0, 0), None
#     Edge 340, Type (0, 0), None
#     Edge 341, Type (0, 0), None
#     Edge 342, Type (0, 0), None
#     Edge 343, Type (0, 0), None
#     Edge 344, Type (0, 0), None
#     Edge 345, Type (0, 0), None
#     Edge 346, Type (0, 0), None
#     Edge 347, Type (0, 0), None
#     Edge 348, Type (0, 0), None
#     Edge 349, Type (0, 0), None
#     Edge 350, Type (0, 0), None
#     Edge 351, Type (0, 0), None
#     Edge 352, Type (0, 0), None
#     Edge 353, Type (0, 0), None
#     Edge 354, Type (0, 0), None
#     Edge 355, Type (0, 0), None
#     Edge 356, Type (0, 0), None
#     Edge 357, Type (0, 0), None
#     Edge 358, Type (0, 0), None
#     Edge 359, Type (0, 0), None
#     Edge 360, Type (0, 0), None
#     Edge 361, Type (0, 0), None
#     Edge 362, Type (0, 0), None
#     Edge 363, Type (0, 0), None
#     Edge 364, Type (0, 0), None
#     Edge 365, Type (0, 0), None
#     Edge 366, Type (0, 0), None
#     Edge 367, Type (0, 0), None
#     Edge 368, Type (0, 0), None
#     Edge 369, Type (0, 0), None
#     Edge 370, Type (0, 0), None
#     Edge 371, Type (0, 0), None
#     Edge 372, Type (0, 0), None
#     Edge 373, Type (0, 0), None
#     Edge 374, Type (0, 0), None
#     Edge 375, Type (0, 0), None
#     Edge 376, Type (0, 0), None
#     Edge 377, Type (0, 0), None
#     Edge 378, Type (0, 0), None
#     Edge 379, Type (0, 0), None
#     Edge 380, Type (0, 0), None
#     Edge 381, Type (0, 0), None
#     Edge 382, Type (0, 0), None
#     Edge 383, Type (0, 0), None
# Relax obj value: 0.044
# Max RMSD: 0.134
# Mean RMSD: 0.134
data_MOF--net-ana-e--node1-MAKGUD_clean_sbu_1--edge1-none
_symmetry_space_group_name_H-M    P1
_symmetry_Int_Tables_number       1
_symmetry_cell_setting            triclinic
loop_
_symmetry_equiv_pos_as_xyz
'x, y, z'
_cell_length_a     44.516432
_cell_length_b     44.514394
_cell_length_c     44.515818
_cell_angle_alpha  90.000251
_cell_angle_beta   90.000604
_cell_angle_gamma 90.000162
loop_
_atom_site_label
_atom_site_type_symbol
_atom_site_fract_x
_atom_site_fract_y
_atom_site_fract_z
_atom_type_partial_charge
O0 O 1.03094 0.23208 0.43663 0.0
Tb1 Tb 1.055 0.20611 0.40258 0.0
C2 C 0.05958 0.14908 0.44251 0.0
O3 O 0.09953 0.21353 0.45499 0.0
Tb4 Tb 0.11861 0.17097 0.47139 0.0
C5 C 0.13755 0.17173 0.52849 0.0
O6 O 0.09388 0.23454 0.40909 0.0
O7 O 0.1565 0.15412 0.44563 0.0
C8 C 0.16562 0.16689 0.4207 0.0
O9 O 0.14728 0.18471 0.40608 0.0
O10 O 0.07103 0.16328 0.41939 0.0
O11 O 0.07659 0.14552 0.46648 0.0
O12 O 1.05218 0.20689 0.35413 0.0
C13 C 0.11043 0.23075 0.43332 0.0
C14 C 1.00494 0.23204 0.42322 0.0
O15 O 0.13961 0.19411 0.50974 0.0
O16 O 0.12385 0.14948 0.51543 0.0
C17 C 1.0473 0.18171 0.33969 0.0
O18 O 1.05312 0.15623 0.3534 0.0
O19 O 1.0068 0.2162 0.39878 0.0
O20 O 0.21427 0.87387 0.76544 0.0
Tb21 Tb 0.19278 0.86862 0.72139 0.0
C22 C 0.133 0.86045 0.68332 0.0
O23 O 0.20048 0.82105 0.6694 0.0
Tb24 Tb 0.15764 0.80501 0.65259 0.0
C25 C 0.13172 0.75496 0.67322 0.0
O26 O 0.21823 0.82661 0.71649 0.0
O27 O 0.15686 0.8022 0.60413 0.0
C28 C 0.18205 0.79731 0.5897 0.0
O29 O 0.20752 0.80312 0.60341 0.0
O30 O 0.15022 0.84955 0.705 0.0
O31 O 0.12922 0.84389 0.65909 0.0
O32 O 0.20963 0.90652 0.69564 0.0
C33 C 0.21466 0.8096 0.69252 0.0
C34 C 0.19202 0.88757 0.77849 0.0
O35 O 0.14756 0.75681 0.64879 0.0
O36 O 0.13167 0.78096 0.68664 0.0
C37 C 0.19687 0.91564 0.67071 0.0
O38 O 0.17905 0.8973 0.65608 0.0
O39 O 0.16964 0.88963 0.75975 0.0
O40 O 0.48988 0.9643 1.01542 0.0
Tb41 Tb 0.49513 0.94281 0.97138 0.0
C42 C 0.50329 0.88302 0.93332 0.0
O43 O 0.5427 0.95052 0.91937 0.0
Tb44 Tb 0.55872 0.90767 0.90257 0.0
C45 C 0.60877 0.88174 0.9232 0.0
O46 O 0.53715 0.96825 0.96648 0.0
O47 O 0.56152 0.90688 0.85412 0.0
C48 C 0.5664 0.93206 0.83968 0.0
O49 O 0.56059 0.95754 0.85338 0.0
O50 O 0.51419 0.90024 0.95499 0.0
O51 O 0.51984 0.87924 0.90909 0.0
O52 O 0.45723 0.95966 0.94562 0.0
C53 C 0.55415 0.9647 0.94249 0.0
C54 C 0.47619 0.94205 1.02848 0.0
O55 O 0.60691 0.89757 0.89875 0.0
O56 O 0.58278 0.88171 0.93663 0.0
C57 C 0.44811 0.94689 0.9207 0.0
O58 O 0.46645 0.92907 0.90607 0.0
O59 O 0.47413 0.91967 1.00973 0.0
O60 O 0.39946 0.23991 0.26544 0.0
Tb61 Tb 0.42095 0.24515 0.22139 0.0
C62 C 0.48073 0.25332 0.18333 0.0
O63 O 0.41325 0.29273 0.1694 0.0
Tb64 Tb 0.45609 0.30876 0.15259 0.0
C65 C 0.48202 0.35882 0.17322 0.0
O66 O 0.3955 0.28717 0.2165 0.0
O67 O 0.45686 0.31158 0.10413 0.0
C68 C 0.43168 0.31646 0.0897 0.0
O69 O 0.4062 0.31066 0.10341 0.0
O70 O 0.46351 0.26423 0.205 0.0
O71 O 0.48451 0.26988 0.1591 0.0
O72 O 0.4041 0.20725 0.19564 0.0
C73 C 0.39907 0.30417 0.19252 0.0
C74 C 0.42171 0.22621 0.2785 0.0
O75 O 0.46618 0.35696 0.14879 0.0
O76 O 0.48206 0.33281 0.18664 0.0
C77 C 0.41686 0.19813 0.17071 0.0
O78 O 0.43468 0.21648 0.15608 0.0
O79 O 0.44409 0.22415 0.25975 0.0
O80 O 0.12385 0.96429 0.09832 0.0
Tb81 Tb 0.1186 0.9428 0.14236 0.0
C82 C 0.11044 0.88302 0.18042 0.0
O83 O 0.07103 0.9505 0.19436 0.0
Tb84 Tb 1.055 0.90766 0.21116 0.0
C85 C 1.00495 0.88173 0.19052 0.0
O86 O 0.07658 0.96825 0.14726 0.0
O87 O 1.05219 0.90687 0.25961 0.0
C88 C 1.04732 0.93205 0.27405 0.0
O89 O 1.05313 0.95753 0.26035 0.0
O90 O 0.09953 0.90023 0.15875 0.0
O91 O 0.09388 0.87923 0.20465 0.0
O92 O 0.1565 0.95965 0.16811 0.0
C93 C 0.05958 0.96468 0.17124 0.0
C94 C 0.13754 0.94204 0.08525 0.0
O95 O 1.00681 0.89756 0.21497 0.0
O96 O 1.03095 0.88169 0.1771 0.0
C97 C 0.16563 0.94688 0.19304 0.0
O98 O 0.14729 0.92906 0.20766 0.0
O99 O 0.1396 0.91966 0.104 0.0
O100 O 0.39946 0.87386 0.3483 0.0
Tb101 Tb 0.42095 0.86862 0.39234 0.0
C102 C 0.48073 0.86045 0.43041 0.0
O103 O 0.41326 0.82104 0.44434 0.0
Tb104 Tb 0.45609 0.80501 0.46115 0.0
C105 C 0.48201 0.75495 0.44052 0.0
O106 O 0.3955 0.8266 0.39724 0.0
O107 O 0.45687 0.8022 0.5096 0.0
C108 C 0.43168 0.79731 0.52404 0.0
O109 O 0.40621 0.80312 0.51032 0.0
O110 O 0.46351 0.84954 0.40874 0.0
O111 O 0.48452 0.84389 0.45464 0.0
O112 O 0.4041 0.90652 0.41809 0.0
C113 C 0.39907 0.8096 0.42122 0.0
C114 C 0.42172 0.88756 0.33524 0.0
O115 O 0.46617 0.75681 0.46495 0.0
O116 O 0.48206 0.78095 0.4271 0.0
C117 C 0.41687 0.91564 0.44303 0.0
O118 O 0.43469 0.8973 0.45765 0.0
O119 O 0.44409 0.88962 0.35399 0.0
O120 O 0.58278 0.23209 0.67711 0.0
Tb121 Tb 0.55873 0.20612 0.71116 0.0
C122 C 0.55414 0.14909 0.67124 0.0
O123 O 0.5142 0.21354 0.65875 0.0
Tb124 Tb 0.49512 0.17098 0.64236 0.0
C125 C 0.47618 0.17174 0.58526 0.0
O126 O 0.51985 0.23455 0.70465 0.0
O127 O 0.45723 0.15413 0.66811 0.0
C128 C 0.4481 0.1669 0.69304 0.0
O129 O 0.46644 0.18472 0.70766 0.0
O130 O 0.54269 0.16328 0.69436 0.0
O131 O 0.53714 0.14553 0.64726 0.0
O132 O 0.56153 0.20691 0.75962 0.0
C133 C 0.50329 0.23076 0.68042 0.0
C134 C 0.60879 0.23204 0.69053 0.0
O135 O 0.47412 0.19411 0.604 0.0
O136 O 0.48988 0.14948 0.59832 0.0
C137 C 0.5664 0.18173 0.77406 0.0
O138 O 0.56058 0.15625 0.76036 0.0
O139 O 0.60693 0.2162 0.71497 0.0
O140 O 0.21426 0.23991 0.8483 0.0
Tb141 Tb 0.19277 0.24516 0.89234 0.0
C142 C 0.133 0.25333 0.93041 0.0
O143 O 0.20047 0.29273 0.94434 0.0
Tb144 Tb 0.15764 0.30877 0.96115 0.0
C145 C 0.13171 0.35882 0.94052 0.0
O146 O 0.21822 0.28718 0.89724 0.0
O147 O 0.15686 0.31158 1.0096 0.0
C148 C 0.18204 0.31646 1.02404 0.0
O149 O 0.20752 0.31065 1.01033 0.0
O150 O 0.15021 0.26423 0.90874 0.0
O151 O 0.12921 0.26988 0.95464 0.0
O152 O 0.20963 0.20726 0.9181 0.0
C153 C 0.21466 0.30418 0.92122 0.0
C154 C 0.19201 0.22621 0.83524 0.0
O155 O 0.14755 0.35697 0.96495 0.0
O156 O 0.13167 0.33282 0.9271 0.0
C157 C 0.19686 0.19813 0.94303 0.0
O158 O 0.17904 0.21648 0.95765 0.0
O159 O 0.16964 0.22415 0.85399 0.0
O160 O 0.51543 0.12387 0.14946 0.0
Tb161 Tb 0.47139 0.11862 0.17096 0.0
C162 C 0.43333 0.11045 0.23074 0.0
O163 O 0.41939 0.07104 0.16324 0.0
Tb164 Tb 0.40259 1.05502 0.20608 0.0
C165 C 0.42323 1.00496 0.232 0.0
O166 O 0.4665 0.0766 0.14551 0.0
O167 O 0.35414 1.0522 0.20687 0.0
C168 C 0.3397 1.04731 0.18168 0.0
O169 O 0.35341 1.05312 0.15621 0.0
O170 O 0.45501 0.09955 0.21352 0.0
O171 O 0.4091 0.0939 0.23452 0.0
O172 O 0.44563 0.15651 0.1541 0.0
C173 C 0.44251 0.0596 0.14906 0.0
C174 C 0.52849 0.13756 0.17172 0.0
O175 O 0.39878 1.00682 0.21618 0.0
O176 O 0.43665 1.03096 0.23204 0.0
C177 C 0.42069 0.16562 0.16686 0.0
O178 O 0.40606 0.14729 0.18469 0.0
O179 O 0.50974 0.13962 0.19409 0.0
O180 O 0.23989 0.26545 0.39945 0.0
Tb181 Tb 0.24514 0.2214 0.42094 0.0
C182 C 0.2533 0.18334 0.48073 0.0
O183 O 0.29272 0.16941 0.41324 0.0
Tb184 Tb 0.30874 0.1526 0.45608 0.0
C185 C 0.35879 0.17324 0.48201 0.0
O186 O 0.28716 0.21651 0.3955 0.0
O187 O 0.31156 0.10415 0.45686 0.0
C188 C 0.31645 0.08971 0.43168 0.0
O189 O 0.31064 0.10342 0.4062 0.0
O190 O 0.26421 0.20501 0.46351 0.0
O191 O 0.26986 0.15911 0.48451 0.0
O192 O 0.20725 0.19564 0.40409 0.0
C193 C 0.30416 0.19253 0.39906 0.0
C194 C 0.22619 0.27851 0.42171 0.0
O195 O 0.35694 0.1488 0.46618 0.0
O196 O 0.33279 0.18666 0.48204 0.0
C197 C 0.19814 0.17071 0.41685 0.0
O198 O 0.21646 0.15607 0.43468 0.0
O199 O 0.22414 0.25976 0.44408 0.0
O200 O 0.17708 0.08283 0.73204 0.0
Tb201 Tb 0.21113 0.05877 0.70609 0.0
C202 C 0.17122 1.05418 0.64906 0.0
O203 O 0.15873 1.01423 0.71351 0.0
Tb204 Tb 0.14234 0.99516 0.67095 0.0
C205 C 0.08524 0.97621 0.67171 0.0
O206 O 0.20463 1.01989 0.73452 0.0
O207 O 0.1681 0.95727 0.6541 0.0
C208 C 0.19304 0.94816 0.66686 0.0
O209 O 0.20767 0.96649 0.68469 0.0
O210 O 0.19433 1.04274 0.66325 0.0
O211 O 0.14724 1.03718 0.6455 0.0
O212 O 0.25959 0.06159 0.70687 0.0
C213 C 0.1804 1.00333 0.73073 0.0
C214 C 0.1905 0.10883 0.732 0.0
O215 O 0.10399 0.97416 0.69408 0.0
O216 O 0.0983 0.98991 0.64945 0.0
C217 C 0.27403 0.06647 0.68169 0.0
O218 O 0.26032 0.06065 0.65621 0.0
O219 O 0.21494 0.10697 0.71617 0.0
O220 O 0.37384 0.84832 0.89946 0.0
Tb221 Tb 0.36859 0.89236 0.92095 0.0
C222 C 0.36043 0.93043 0.98073 0.0
O223 O 0.32102 0.94436 0.91324 0.0
Tb224 Tb 0.30499 0.96117 0.95608 0.0
C225 C 0.25494 0.94053 0.982 0.0
O226 O 0.32657 0.89726 0.8955 0.0
O227 O 0.30218 1.00963 0.95686 0.0
C228 C 0.29728 1.02406 0.93168 0.0
O229 O 0.30309 1.01035 0.9062 0.0
O230 O 0.34952 0.90876 0.96351 0.0
O231 O 0.34387 0.95466 0.98451 0.0
O232 O 0.40648 0.91812 0.90409 0.0
C233 C 0.30957 0.92124 0.89906 0.0
C234 C 0.38754 0.83526 0.92171 0.0
O235 O 0.2568 0.96498 0.96617 0.0
O236 O 0.28094 0.92711 0.98204 0.0
C237 C 0.41559 0.94306 0.91685 0.0
O238 O 0.39727 0.9577 0.93468 0.0
O239 O 0.38959 0.85401 0.94409 0.0
O240 O 0.51543 0.98991 0.46428 0.0
Tb241 Tb 0.47139 0.99516 0.44279 0.0
C242 C 0.43334 1.00332 0.383 0.0
O243 O 0.41939 1.04273 0.4505 0.0
Tb244 Tb 0.4026 0.05875 0.40765 0.0
C245 C 0.42322 0.10881 0.38174 0.0
O246 O 0.4665 1.03718 0.46823 0.0
O247 O 0.35414 0.06156 0.40687 0.0
C248 C 0.3397 0.06642 0.43205 0.0
O249 O 0.35338 0.0606 0.45754 0.0
O250 O 0.45501 1.01422 0.40021 0.0
O251 O 0.40911 1.01987 0.37922 0.0
O252 O 0.44563 0.95727 0.45964 0.0
C253 C 0.44251 1.05418 0.46468 0.0
C254 C 0.52849 0.97621 0.44203 0.0
O255 O 0.39878 0.10694 0.39755 0.0
O256 O 0.43665 0.08281 0.38171 0.0
C257 C 0.42069 0.94815 0.44687 0.0
O258 O 0.40606 0.96649 0.42905 0.0
O259 O 0.50975 0.97415 0.41965 0.0
O260 O 0.28092 0.18667 0.63169 0.0
Tb261 Tb 0.30499 0.15261 0.65765 0.0
C262 C 0.30956 0.19254 0.71467 0.0
O263 O 0.34952 0.20503 0.65022 0.0
Tb264 Tb 0.36858 0.22141 0.69279 0.0
C265 C 0.38753 0.27851 0.69203 0.0
O266 O 0.34387 0.15912 0.62922 0.0
O267 O 0.40647 0.19565 0.70965 0.0
C268 C 0.41559 0.17072 0.69688 0.0
O269 O 0.39726 0.15608 0.67905 0.0
O270 O 0.321 0.16942 0.70049 0.0
O271 O 0.32656 0.21652 0.71823 0.0
O272 O 0.30218 0.10416 0.65687 0.0
C273 C 0.36042 0.18335 0.63301 0.0
C274 C 0.25493 0.17324 0.63173 0.0
O275 O 0.38959 0.25977 0.66965 0.0
O276 O 0.37383 0.26546 0.71428 0.0
C277 C 0.29732 0.08972 0.68206 0.0
O278 O 0.30314 0.1034 0.70755 0.0
O279 O 0.25679 0.1488 0.64756 0.0
O280 O 0.0983 0.12387 0.96428 0.0
Tb281 Tb 0.14234 0.11862 0.94279 0.0
C282 C 0.18039 0.11046 0.883 0.0
O283 O 0.19434 0.07104 0.9505 0.0
Tb284 Tb 0.21113 1.05502 0.90765 0.0
C285 C 0.1905 1.00496 0.88173 0.0
O286 O 0.14723 0.07659 0.96823 0.0
O287 O 0.25959 1.05221 0.90687 0.0
C288 C 0.27403 1.04735 0.93205 0.0
O289 O 0.26035 1.05317 0.95754 0.0
O290 O 0.15872 0.09955 0.90022 0.0
O291 O 0.20462 0.0939 0.87922 0.0
O292 O 0.1681 0.15651 0.95964 0.0
C293 C 0.17121 0.05959 0.96467 0.0
C294 C 0.08524 0.13756 0.94203 0.0
O295 O 0.21495 1.00682 0.89755 0.0
O296 O 0.17708 1.03096 0.8817 0.0
C297 C 0.19304 0.16562 0.94688 0.0
O298 O 0.20767 0.14729 0.92905 0.0
O299 O 0.10398 0.13962 0.91965 0.0
O300 O 0.2399 0.84832 0.21428 0.0
Tb301 Tb 0.24515 0.89236 0.19278 0.0
C302 C 0.2533 0.93042 0.133 0.0
O303 O 0.29272 0.94436 0.20049 0.0
Tb304 Tb 0.30873 0.96116 0.15765 0.0
C305 C 0.35879 0.94054 0.13172 0.0
O306 O 0.28717 0.89725 0.21822 0.0
O307 O 0.31154 1.00962 0.15687 0.0
C308 C 0.31641 1.02406 0.18205 0.0
O309 O 0.31059 1.01038 0.20754 0.0
O310 O 0.2642 0.90874 0.15021 0.0
O311 O 0.26985 0.95465 0.12922 0.0
O312 O 0.20726 0.91812 0.20964 0.0
C313 C 0.30417 0.92124 0.21467 0.0
C314 C 0.2262 0.83526 0.19202 0.0
O315 O 0.35692 0.96499 0.14754 0.0
O316 O 0.33279 0.92711 0.13169 0.0
C317 C 0.19814 0.94306 0.19688 0.0
O318 O 0.21647 0.95769 0.17905 0.0
O319 O 0.22414 0.854 0.16965 0.0
O320 O 0.14946 0.51545 0.12385 0.0
Tb321 Tb 0.17095 0.47141 0.11861 0.0
C322 C 0.23074 0.43334 0.11044 0.0
O323 O 0.16324 0.4194 0.07103 0.0
Tb324 Tb 0.20608 0.40261 1.05501 0.0
C325 C 0.232 0.42324 1.00495 0.0
O326 O 0.14551 0.46651 0.07659 0.0
O327 O 0.20686 0.35415 1.0522 0.0
C328 C 0.18168 0.33971 1.04733 0.0
O329 O 0.15619 0.35339 1.05316 0.0
O330 O 0.21352 0.45502 0.09954 0.0
O331 O 0.23452 0.40911 0.09389 0.0
O332 O 0.1541 0.44565 0.1565 0.0
C333 C 0.14906 0.44253 0.05958 0.0
C334 C 0.17171 0.52851 0.13755 0.0
O335 O 0.21618 0.39879 1.00681 0.0
O336 O 0.23203 0.43667 1.03095 0.0
C337 C 0.16687 0.42072 0.16563 0.0
O338 O 0.18469 0.4061 0.14728 0.0
O339 O 0.19409 0.50977 0.13961 0.0
O340 O 0.64944 0.09835 0.9899 0.0
Tb341 Tb 0.67093 0.14239 0.99515 0.0
C342 C 0.73072 0.18044 1.00331 0.0
O343 O 0.66324 0.19439 1.04273 0.0
Tb344 Tb 0.70609 0.21118 0.05874 0.0
C345 C 0.73203 0.19055 0.10879 0.0
O346 O 0.6455 0.14729 1.03717 0.0
O347 O 0.70688 0.25964 0.06156 0.0
C348 C 0.68169 0.27408 0.06644 0.0
O349 O 0.65622 0.26038 0.06062 0.0
O350 O 0.7135 0.15877 1.01421 0.0
O351 O 0.73451 0.20467 1.01986 0.0
O352 O 0.65409 0.16815 0.95726 0.0
C353 C 0.64906 0.17127 1.05418 0.0
C354 C 0.67169 0.08528 0.97621 0.0
O355 O 0.7162 0.215 0.10694 0.0
O356 O 0.73205 0.17713 0.08279 0.0
C357 C 0.66684 0.19309 0.94815 0.0
O358 O 0.68466 0.20771 0.9665 0.0
O359 O 0.69407 0.10403 0.97415 0.0
O360 O 0.26544 0.39947 0.23989 0.0
Tb361 Tb 0.2214 0.42097 0.24514 0.0
C362 C 0.18333 0.48076 0.2533 0.0
O363 O 0.1694 0.41326 0.29271 0.0
Tb364 Tb 0.15259 0.4561 0.30873 0.0
C365 C 0.17322 0.48202 0.35879 0.0
O366 O 0.2165 0.39553 0.28717 0.0
O367 O 0.10414 0.45689 0.31154 0.0
C368 C 0.0897 0.4317 0.31644 0.0
O369 O 0.10341 0.40622 0.31063 0.0
O370 O 0.20501 0.46354 0.2642 0.0
O371 O 0.15911 0.48453 0.26985 0.0
O372 O 0.19564 0.40411 0.20725 0.0
C373 C 0.19252 0.39908 0.30416 0.0
C374 C 0.27849 0.42173 0.22619 0.0
O375 O 0.14878 0.46619 0.35693 0.0
O376 O 0.18665 0.48206 0.3328 0.0
C377 C 0.1707 0.41687 0.19814 0.0
O378 O 0.15606 0.4347 0.21647 0.0
O379 O 0.25975 0.4441 0.22414 0.0
O380 O 0.96429 1.01544 0.48989 0.0
Tb381 Tb 0.94279 0.9714 0.49514 0.0
C382 C 0.883 0.93334 0.50329 0.0
O383 O 0.95048 0.9194 0.54272 0.0
Tb384 Tb 0.90764 0.9026 0.55873 0.0
C385 C 0.8817 0.92324 0.60878 0.0
O386 O 0.96823 0.9665 0.53716 0.0
O387 O 0.90685 0.85415 0.56155 0.0
C388 C 0.93203 0.83971 0.56642 0.0
O389 O 0.95751 0.85341 0.56061 0.0
O390 O 0.90022 0.95502 0.5142 0.0
O391 O 0.87922 0.90911 0.51985 0.0
O392 O 0.95964 0.94564 0.45724 0.0
C393 C 0.96467 0.94252 0.55416 0.0
C394 C 0.94204 1.0285 0.47619 0.0
O395 O 0.89753 0.8988 0.60693 0.0
O396 O 0.88167 0.93666 0.58278 0.0
C397 C 0.94688 0.9207 0.44813 0.0
O398 O 0.92906 0.90608 0.46648 0.0
O399 O 0.91966 1.00976 0.47413 0.0
O400 O 0.84832 0.21431 0.23989 0.0
Tb401 Tb 0.89236 0.19281 0.24513 0.0
C402 C 0.93043 0.13303 0.25329 0.0
O403 O 0.94436 0.20051 0.29271 0.0
Tb404 Tb 0.96116 0.15767 0.30872 0.0
C405 C 0.94054 0.13173 0.35878 0.0
O406 O 0.89726 0.21826 0.28715 0.0
O407 O 1.00962 0.15689 0.31153 0.0
C408 C 1.02406 0.18207 0.3164 0.0
O409 O 1.01038 0.20757 0.31057 0.0
O410 O 0.90875 0.15024 0.26419 0.0
O411 O 0.95466 0.12925 0.26984 0.0
O412 O 0.91812 0.20966 0.20724 0.0
C413 C 0.92124 0.2147 0.30416 0.0
C414 C 0.83526 0.19205 0.22619 0.0
O415 O 0.96498 0.14756 0.35692 0.0
O416 O 0.92712 0.1317 0.33278 0.0
C417 C 0.94306 0.1969 0.19812 0.0
O418 O 0.95768 0.17909 0.21647 0.0
O419 O 0.854 0.16968 0.22413 0.0
O420 O 0.46427 0.59833 0.62385 0.0
Tb421 Tb 0.44278 0.64237 0.61861 0.0
C422 C 0.38299 0.68043 0.61044 0.0
O423 O 0.45049 0.69437 0.57103 0.0
Tb424 Tb 0.40765 0.71117 0.55501 0.0
C425 C 0.38173 0.69054 0.50495 0.0
O426 O 0.46822 0.64726 0.57659 0.0
O427 O 0.40687 0.75963 0.5522 0.0
C428 C 0.43205 0.77406 0.54733 0.0
O429 O 0.45754 0.76038 0.55315 0.0
O430 O 0.40021 0.65875 0.59954 0.0
O431 O 0.37922 0.70466 0.59389 0.0
O432 O 0.45963 0.66812 0.6565 0.0
C433 C 0.46467 0.67124 0.55958 0.0
C434 C 0.44202 0.58526 0.63755 0.0
O435 O 0.39755 0.71499 0.50681 0.0
O436 O 0.3817 0.67711 0.53094 0.0
C437 C 0.44686 0.69305 0.66563 0.0
O438 O 0.42904 0.70768 0.64728 0.0
O439 O 0.41964 0.60401 0.6396 0.0
O440 O 0.26544 0.7143 0.37385 0.0
Tb441 Tb 0.2214 0.6928 0.3686 0.0
C442 C 0.18333 0.63302 0.36044 0.0
O443 O 0.1694 0.70051 0.32103 0.0
Tb444 Tb 0.15259 0.65767 0.30501 0.0
C445 C 0.17322 0.63176 0.25494 0.0
O446 O 0.2165 0.71825 0.32658 0.0
O447 O 0.10414 0.65689 0.30219 0.0
C448 C 0.08971 0.68207 0.2973 0.0
O449 O 0.10341 0.70755 0.30311 0.0
O450 O 0.20501 0.65023 0.34953 0.0
O451 O 0.1591 0.62924 0.34388 0.0
O452 O 0.19564 0.70966 0.40649 0.0
C453 C 0.19252 0.71469 0.30958 0.0
C454 C 0.2785 0.69204 0.38754 0.0
O455 O 0.14878 0.64758 0.25681 0.0
O456 O 0.18665 0.63172 0.28094 0.0
C457 C 0.17071 0.69689 0.41561 0.0
O458 O 0.15609 0.67907 0.39727 0.0
O459 O 0.25975 0.66966 0.3896 0.0
O460 O 0.34829 0.39948 0.87385 0.0
Tb461 Tb 0.39233 0.42097 0.8686 0.0
C462 C 0.4304 0.48076 0.86044 0.0
O463 O 0.44433 0.41326 0.82103 0.0
Tb464 Tb 0.46113 0.45611 0.80501 0.0
C465 C 0.44051 0.48202 0.75495 0.0
O466 O 0.39723 0.39553 0.82658 0.0
O467 O 0.50959 0.45689 0.8022 0.0
C468 C 0.52402 0.43171 0.79731 0.0
O469 O 0.51032 0.40623 0.80312 0.0
O470 O 0.40872 0.46354 0.84954 0.0
O471 O 0.45462 0.48454 0.84389 0.0
O472 O 0.41808 0.40412 0.9065 0.0
C473 C 0.42121 0.39908 0.80958 0.0
C474 C 0.33523 0.42173 0.88755 0.0
O475 O 0.46495 0.46619 0.75681 0.0
O476 O 0.42708 0.48206 0.78094 0.0
C477 C 0.44302 0.41689 0.91562 0.0
O478 O 0.45764 0.43471 0.89728 0.0
O479 O 0.35398 0.44411 0.88961 0.0
O480 O 0.98988 0.96432 0.59832 0.0
Tb481 Tb 0.99512 0.94283 0.64236 0.0
C482 C 1.00327 0.88305 0.68044 0.0
O483 O 1.0427 0.95051 0.69436 0.0
Tb484 Tb 0.05871 0.90767 0.71118 0.0
C485 C 0.10873 0.88167 0.69058 0.0
O486 O 1.03714 0.96827 0.64726 0.0
O487 O 0.06151 0.90689 0.75963 0.0
C488 C 0.06639 0.93207 0.77407 0.0
O489 O 0.06058 0.95755 0.76036 0.0
O490 O 1.01418 0.90026 0.65876 0.0
O491 O 1.01981 0.87926 0.70467 0.0
O492 O 0.95722 0.95968 0.66811 0.0
C493 C 1.05415 0.9647 0.67124 0.0
C494 C 0.97618 0.94206 0.58526 0.0
O495 O 0.10691 0.89757 0.71498 0.0
O496 O 0.08273 0.88164 0.67715 0.0
C497 C 0.94811 0.94692 0.69305 0.0
O498 O 0.96646 0.92911 0.70768 0.0
O499 O 0.97413 0.91968 0.60401 0.0
O500 O 0.89944 0.2399 0.34831 0.0
Tb501 Tb 0.92093 0.24514 0.39236 0.0
C502 C 0.9807 0.25331 0.43045 0.0
O503 O 0.91326 0.29272 0.44436 0.0
Tb504 Tb 0.95609 0.30876 0.46118 0.0
C505 C 0.98203 0.3588 0.44054 0.0
O506 O 0.89549 0.28716 0.39727 0.0
O507 O 0.95688 0.31157 0.50963 0.0
C508 C 0.93169 0.31645 0.52407 0.0
O509 O 0.90622 0.31064 0.51037 0.0
O510 O 0.9635 0.2642 0.40875 0.0
O511 O 0.9845 0.26986 0.45468 0.0
O512 O 0.90409 0.20724 0.41811 0.0
C513 C 0.89907 0.30417 0.42124 0.0
C514 C 0.9217 0.22621 0.33525 0.0
O515 O 0.96617 0.35696 0.46496 0.0
O516 O 0.9821 0.33279 0.42714 0.0
C517 C 0.91684 0.19813 0.44305 0.0
O518 O 0.93464 0.21648 0.45769 0.0
O519 O 0.94408 0.22415 0.354 0.0
O520 O 0.62385 0.14947 0.09833 0.0
Tb521 Tb 0.61861 0.17096 0.14238 0.0
C522 C 0.61046 0.23074 0.18045 0.0
O523 O 0.57103 0.16326 0.19438 0.0
Tb524 Tb 0.55502 0.20611 0.21119 0.0
C525 C 0.50501 0.23211 0.19059 0.0
O526 O 0.57659 0.14552 0.14728 0.0
O527 O 0.55222 0.20689 0.25965 0.0
C528 C 0.54734 0.18171 0.27408 0.0
O529 O 0.55315 0.15623 0.26037 0.0
O530 O 0.59955 0.21352 0.15877 0.0
O531 O 0.59392 0.23452 0.20468 0.0
O532 O 0.65651 0.1541 0.16813 0.0
C533 C 0.55958 0.14908 0.17125 0.0
C534 C 0.63755 0.17173 0.08527 0.0
O535 O 0.50682 0.21621 0.21499 0.0
O536 O 0.531 0.23213 0.17716 0.0
C537 C 0.66562 0.16686 0.19306 0.0
O538 O 0.64728 0.18467 0.2077 0.0
O539 O 0.6396 0.1941 0.10402 0.0
O540 O 0.71428 0.87388 0.8483 0.0
Tb541 Tb 0.69279 0.86864 0.89234 0.0
C542 C 0.63303 0.86048 0.93043 0.0
O543 O 0.70048 0.82105 0.94434 0.0
Tb544 Tb 0.65764 0.80503 0.96116 0.0
C545 C 0.63169 0.75499 0.94053 0.0
O546 O 0.71823 0.82661 0.89725 0.0
O547 O 0.65686 0.80222 1.00961 0.0
C548 C 0.68204 0.79734 1.02405 0.0
O549 O 0.70752 0.80315 1.01035 0.0
O550 O 0.65021 0.84959 0.90873 0.0
O551 O 0.62924 0.84393 0.95466 0.0
O552 O 0.70964 0.90654 0.91809 0.0
C553 C 0.71466 0.80961 0.92122 0.0
C554 C 0.69203 0.88758 0.83524 0.0
O555 O 0.64755 0.75683 0.96495 0.0
O556 O 0.63163 0.78099 0.92712 0.0
C557 C 0.69689 0.91566 0.94303 0.0
O558 O 0.67908 0.89731 0.95766 0.0
O559 O 0.66966 0.88963 0.85398 0.0
O560 O 0.98987 0.14946 1.01542 0.0
Tb561 Tb 0.99512 0.17095 0.97137 0.0
C562 C 1.00326 0.23073 0.9333 0.0
O563 O 1.04269 0.16326 0.91937 0.0
Tb564 Tb 0.0587 0.2061 0.90256 0.0
C565 C 0.10872 0.23211 0.92315 0.0
O566 O 1.03714 0.14552 0.96647 0.0
O567 O 0.0615 0.20689 0.8541 0.0
C568 C 0.06638 0.18171 0.83966 0.0
O569 O 0.06057 0.15623 0.85337 0.0
O570 O 1.01418 0.21352 0.95498 0.0
O571 O 1.0198 0.23451 0.90906 0.0
O572 O 0.95722 0.1541 0.94563 0.0
C573 C 1.05414 0.14908 0.9425 0.0
C574 C 0.97618 0.17172 1.02848 0.0
O575 O 0.1069 0.21621 0.89875 0.0
O576 O 0.08272 0.23214 0.93658 0.0
C577 C 0.9481 0.16686 0.92069 0.0
O578 O 0.96645 0.18467 0.90605 0.0
O579 O 0.97413 0.1941 1.00973 0.0
O580 O 0.71428 0.23989 0.76544 0.0
Tb581 Tb 0.69279 0.24513 0.72139 0.0
C582 C 0.63303 0.2533 0.6833 0.0
O583 O 0.70046 0.29271 0.6694 0.0
Tb584 Tb 0.65764 0.30876 0.65257 0.0
C585 C 0.63169 0.3588 0.67321 0.0
O586 O 0.71824 0.28715 0.71649 0.0
O587 O 0.65686 0.31157 0.60412 0.0
C588 C 0.68204 0.31645 0.58968 0.0
O589 O 0.70752 0.31064 0.60339 0.0
O590 O 0.65023 0.2642 0.705 0.0
O591 O 0.62923 0.26986 0.65907 0.0
O592 O 0.70964 0.20723 0.69565 0.0
C593 C 0.71466 0.30416 0.69251 0.0
C594 C 0.69203 0.2262 0.7785 0.0
O595 O 0.64757 0.35696 0.64879 0.0
O596 O 0.63163 0.33279 0.6866 0.0
C597 C 0.69689 0.19811 0.67071 0.0
O598 O 0.67909 0.21647 0.65607 0.0
O599 O 0.66965 0.22414 0.75975 0.0
O600 O 0.62385 0.9643 0.51541 0.0
Tb601 Tb 0.61861 0.94281 0.47137 0.0
C602 C 0.61046 0.88304 0.43329 0.0
O603 O 0.57103 0.95051 0.41937 0.0
Tb604 Tb 0.55503 0.90767 0.40255 0.0
C605 C 0.50501 0.88166 0.42315 0.0
O606 O 0.57659 0.96825 0.46647 0.0
O607 O 0.55223 0.90688 0.3541 0.0
C608 C 0.54734 0.93207 0.33966 0.0
O609 O 0.55315 0.95754 0.35337 0.0
O610 O 0.59955 0.90025 0.45497 0.0
O611 O 0.59392 0.87926 0.40906 0.0
O612 O 0.65651 0.95967 0.44562 0.0
C613 C 0.55959 0.96469 0.44249 0.0
C614 C 0.63754 0.94205 0.52847 0.0
O615 O 0.50683 0.89756 0.39875 0.0
O616 O 0.531 0.88164 0.43658 0.0
C617 C 0.66562 0.94691 0.42068 0.0
O618 O 0.64727 0.9291 0.40605 0.0
O619 O 0.6396 0.91967 0.50973 0.0
O620 O 0.89944 0.87388 0.26542 0.0
Tb621 Tb 0.92093 0.86863 0.22138 0.0
C622 C 0.9807 0.86047 0.18329 0.0
O623 O 0.91326 0.82105 0.16939 0.0
Tb624 Tb 0.95609 0.80501 0.15257 0.0
C625 C 0.98204 0.75497 0.1732 0.0
O626 O 0.89549 0.82661 0.21648 0.0
O627 O 0.95687 0.8022 0.10411 0.0
C628 C 0.93168 0.79732 0.08968 0.0
O629 O 0.90621 0.80313 0.10339 0.0
O630 O 0.9635 0.84958 0.20499 0.0
O631 O 0.98449 0.84391 0.15906 0.0
O632 O 0.90409 0.90653 0.19563 0.0
C633 C 0.89907 0.8096 0.1925 0.0
C634 C 0.9217 0.88757 0.27849 0.0
O635 O 0.96617 0.75681 0.14878 0.0
O636 O 0.9821 0.78098 0.1866 0.0
C637 C 0.91684 0.91565 0.17069 0.0
O638 O 0.93464 0.89729 0.15605 0.0
O639 O 0.94407 0.88962 0.25974 0.0
O640 O 0.59831 0.98991 0.96428 0.0
Tb641 Tb 0.64234 0.99517 0.94279 0.0
C642 C 0.6804 1.00333 0.883 0.0
O643 O 0.69435 1.04274 0.9505 0.0
Tb644 Tb 0.71114 0.05876 0.90765 0.0
C645 C 0.6905 0.10882 0.88174 0.0
O646 O 0.64724 1.03719 0.96823 0.0
O647 O 0.75959 0.06157 0.90686 0.0
C648 C 0.77403 0.06645 0.93204 0.0
O649 O 0.76033 0.06063 0.95752 0.0
O650 O 0.65872 1.01423 0.90021 0.0
O651 O 0.70463 1.01988 0.87922 0.0
O652 O 0.66811 0.95728 0.95963 0.0
C653 C 0.67123 1.05419 0.96468 0.0
C654 C 0.58524 0.97622 0.94203 0.0
O655 O 0.71495 0.10696 0.89756 0.0
O656 O 0.67707 0.08282 0.88171 0.0
C657 C 0.69305 0.94817 0.94687 0.0
O658 O 0.70768 0.96651 0.92905 0.0
O659 O 0.60399 0.97417 0.91965 0.0
O660 O 0.87385 0.84834 0.71429 0.0
Tb661 Tb 0.8686 0.89238 0.6928 0.0
C662 C 0.86044 0.93047 0.63303 0.0
O663 O 0.82101 0.94437 0.70048 0.0
Tb664 Tb 0.80498 0.96119 0.65764 0.0
C665 C 0.75494 0.94054 0.6317 0.0
O666 O 0.82657 0.89728 0.71823 0.0
O667 O 0.80216 1.00965 0.65686 0.0
C668 C 0.79727 1.02408 0.68205 0.0
O669 O 0.80309 1.01037 0.70753 0.0
O670 O 0.84955 0.90877 0.65022 0.0
O671 O 0.84388 0.95469 0.62923 0.0
O672 O 0.90649 0.91814 0.70965 0.0
C673 C 0.80957 0.92125 0.71466 0.0
C674 C 0.88754 0.83528 0.69203 0.0
O675 O 0.75678 0.96497 0.64756 0.0
O676 O 0.78095 0.92714 0.63165 0.0
C677 C 0.9156 0.94309 0.6969 0.0
O678 O 0.89726 0.95773 0.67909 0.0
O679 O 0.88959 0.85402 0.66966 0.0
O680 O 1.01543 0.12387 0.4643 0.0
Tb681 Tb 0.97139 0.11862 0.4428 0.0
C682 C 0.93331 0.11047 0.38303 0.0
O683 O 0.91939 0.07105 0.45049 0.0
Tb684 Tb 0.90258 1.05502 0.40765 0.0
C685 C 0.92322 1.00497 0.38172 0.0
O686 O 0.96648 0.0766 0.46824 0.0
O687 O 0.85413 1.0522 0.40685 0.0
C688 C 0.83968 1.04733 0.43203 0.0
O689 O 0.85338 1.05314 0.45751 0.0
O690 O 0.95501 0.09958 0.40022 0.0
O691 O 0.90908 0.09392 0.37924 0.0
O692 O 0.94563 0.15651 0.45965 0.0
C693 C 0.9425 0.0596 0.46467 0.0
C694 C 1.02849 0.13757 0.44205 0.0
O695 O 0.89879 1.00682 0.39757 0.0
O696 O 0.93662 1.03098 0.38166 0.0
C697 C 0.92067 0.16561 0.44691 0.0
O698 O 0.90604 0.14727 0.4291 0.0
O699 O 1.00974 0.13963 0.41967 0.0
O700 O 0.73989 0.26544 0.21431 0.0
Tb701 Tb 0.74513 0.2214 0.19281 0.0
C702 C 0.75329 0.18332 0.13304 0.0
O703 O 0.79271 0.1694 0.20049 0.0
Tb704 Tb 0.80874 0.15259 0.15765 0.0
C705 C 0.85878 0.17323 0.13172 0.0
O706 O 0.78716 0.2165 0.21825 0.0
O707 O 0.81155 0.10413 0.15686 0.0
C708 C 0.81643 0.08969 0.18204 0.0
O709 O 0.81062 0.10339 0.20752 0.0
O710 O 0.76418 0.20502 0.15023 0.0
O711 O 0.76984 0.15909 0.12925 0.0
O712 O 0.70724 0.19564 0.20966 0.0
C713 C 0.80416 0.19252 0.21468 0.0
C714 C 0.7262 0.27851 0.19205 0.0
O715 O 0.85694 0.1488 0.14757 0.0
O716 O 0.83277 0.18663 0.13166 0.0
C717 C 0.69814 0.17069 0.19692 0.0
O718 O 0.71647 0.15605 0.1791 0.0
O719 O 0.72414 0.25976 0.16967 0.0
O720 O 0.59829 0.12387 0.64946 0.0
Tb721 Tb 0.64233 0.11861 0.67095 0.0
C722 C 0.68038 0.11046 0.73074 0.0
O723 O 0.69433 0.07104 0.66323 0.0
Tb724 Tb 0.71113 1.05503 0.70609 0.0
C725 C 0.6905 1.00496 0.732 0.0
O726 O 0.64722 0.07659 0.64551 0.0
O727 O 0.75958 1.05222 0.70687 0.0
C728 C 0.77402 1.04737 0.68169 0.0
O729 O 0.76034 1.0532 0.6562 0.0
O730 O 0.6587 0.09956 0.71353 0.0
O731 O 0.70461 0.09391 0.73452 0.0
O732 O 0.6681 0.1565 0.6541 0.0
C733 C 0.67121 0.05959 0.64906 0.0
C734 C 0.58523 0.13757 0.67171 0.0
O735 O 0.71495 1.00683 0.71619 0.0
O736 O 0.67707 1.03096 0.73203 0.0
C737 C 0.69305 0.1656 0.66686 0.0
O738 O 0.70768 0.14726 0.68468 0.0
O739 O 0.60398 0.13962 0.69409 0.0
O740 O 0.73988 0.84833 0.39943 0.0
Tb741 Tb 0.74513 0.89237 0.42093 0.0
C742 C 0.75327 0.93045 0.4807 0.0
O743 O 0.79271 0.94437 0.41323 0.0
Tb744 Tb 0.80871 0.96119 0.45607 0.0
C745 C 0.85873 0.9406 0.48208 0.0
O746 O 0.78716 0.89727 0.3955 0.0
O747 O 0.81151 1.00965 0.45685 0.0
C748 C 0.81638 1.02409 0.43166 0.0
O749 O 0.81057 1.0104 0.40617 0.0
O750 O 0.76418 0.90877 0.4635 0.0
O751 O 0.76981 0.95469 0.48448 0.0
O752 O 0.70724 0.91813 0.40407 0.0
C753 C 0.80416 0.92125 0.39906 0.0
C754 C 0.72619 0.83527 0.42169 0.0
O755 O 0.8569 0.96501 0.46618 0.0
O756 O 0.83273 0.92717 0.4821 0.0
C757 C 0.69813 0.94308 0.41682 0.0
O758 O 0.71647 0.95772 0.43464 0.0
O759 O 0.72414 0.85401 0.44407 0.0
O760 O 1.01543 0.98989 0.14944 0.0
Tb761 Tb 0.97139 0.99515 0.17094 0.0
C762 C 0.93332 1.00329 0.23071 0.0
O763 O 0.91939 1.04272 0.16323 0.0
Tb764 Tb 0.90257 0.05873 0.20607 0.0
C765 C 0.92316 0.10875 0.23207 0.0
O766 O 0.9665 1.03718 0.1455 0.0
O767 O 0.85412 0.06152 0.20685 0.0
C768 C 0.83968 0.06639 0.18167 0.0
O769 O 0.85336 0.06058 0.15618 0.0
O770 O 0.955 1.0142 0.21351 0.0
O771 O 0.90908 1.01983 0.23448 0.0
O772 O 0.94563 0.95726 0.15408 0.0
C773 C 0.94251 1.05418 0.14906 0.0
C774 C 1.02849 0.9762 0.1717 0.0
O775 O 0.89876 0.10692 0.21618 0.0
O776 O 0.9366 0.08276 0.2321 0.0
C777 C 0.92067 0.94816 0.16683 0.0
O778 O 0.90604 0.9665 0.18464 0.0
O779 O 1.00974 0.97415 0.19408 0.0
O780 O 0.87385 0.26544 0.89945 0.0
Tb781 Tb 0.86859 0.2214 0.92094 0.0
C782 C 0.86045 0.18332 0.98072 0.0
O783 O 0.82101 0.1694 0.91324 0.0
Tb784 Tb 0.80501 0.15258 0.95609 0.0
C785 C 0.755 0.17318 0.98209 0.0
O786 O 0.82657 0.2165 0.89551 0.0
O787 O 0.80221 0.10412 0.95686 0.0
C788 C 0.79733 0.08969 0.93167 0.0
O789 O 0.80315 0.10338 0.90618 0.0
O790 O 0.84954 0.205 0.96351 0.0
O791 O 0.84391 0.15908 0.98449 0.0
O792 O 0.90648 0.19564 0.90408 0.0
C793 C 0.80956 0.19253 0.89907 0.0
C794 C 0.88753 0.2785 0.9217 0.0
O795 O 0.75682 0.14877 0.9662 0.0
O796 O 0.78099 0.18661 0.98211 0.0
C797 C 0.91559 0.17069 0.91683 0.0
O798 O 0.89726 0.15605 0.93465 0.0
O799 O 0.88959 0.25975 0.94408 0.0
O800 O 0.96427 0.59833 0.98988 0.0
Tb801 Tb 0.94278 0.64237 0.99512 0.0
C802 C 0.883 0.68044 1.00327 0.0
O803 O 0.95048 0.69438 1.0427 0.0
Tb804 Tb 0.90764 0.71118 0.05871 0.0
C805 C 0.8817 0.69056 0.10876 0.0
O806 O 0.96822 0.64727 1.03714 0.0
O807 O 0.90686 0.75964 0.06152 0.0
C808 C 0.93204 0.77407 0.06638 0.0
O809 O 0.95753 0.76039 0.06055 0.0
O810 O 0.90021 0.65876 1.01418 0.0
O811 O 0.87922 0.70467 1.01982 0.0
O812 O 0.95963 0.66812 0.95723 0.0
C813 C 0.96466 0.67125 1.05414 0.0
C814 C 0.94202 0.58526 0.97618 0.0
O815 O 0.89754 0.715 0.1069 0.0
O816 O 0.88167 0.67713 0.08277 0.0
C817 C 0.94687 0.69305 0.9481 0.0
O818 O 0.92905 0.70768 0.96645 0.0
O819 O 0.91964 0.60401 0.97413 0.0
O820 O 0.46431 1.01543 0.12386 0.0
Tb821 Tb 0.44281 0.97139 0.11861 0.0
C822 C 0.38305 0.93331 0.11047 0.0
O823 O 0.45049 0.91939 0.07102 0.0
Tb824 Tb 0.40765 0.90257 1.05502 0.0
C825 C 0.38164 0.92317 1.00501 0.0
O826 O 0.46824 0.96649 0.07658 0.0
O827 O 0.40686 0.85411 1.05222 0.0
C828 C 0.43205 0.83968 1.04734 0.0
O829 O 0.45752 0.85338 1.05315 0.0
O830 O 0.40023 0.95501 0.09957 0.0
O831 O 0.37926 0.90907 0.09393 0.0
O832 O 0.45966 0.94564 0.1565 0.0
C833 C 0.46467 0.94252 0.05957 0.0
C834 C 0.44205 1.0285 0.13755 0.0
O835 O 0.39756 0.89878 1.00682 0.0
O836 O 0.3816 0.93659 1.03101 0.0
C837 C 0.44692 0.92069 0.16561 0.0
O838 O 0.42912 0.90605 0.14725 0.0
O839 O 0.41967 1.00975 0.1396 0.0
O840 O 0.8483 0.71431 0.87384 0.0
Tb841 Tb 0.89234 0.69281 0.86859 0.0
C842 C 0.93039 0.63302 0.86044 0.0
O843 O 0.94435 0.70052 0.82102 0.0
Tb844 Tb 0.96114 0.65767 0.805 0.0
C845 C 0.94051 0.63176 0.75494 0.0
O846 O 0.89724 0.71825 0.82656 0.0
O847 O 1.00959 0.65688 0.8022 0.0
C848 C 1.02403 0.68206 0.79732 0.0
O849 O 1.01033 0.70754 0.80313 0.0
O850 O 0.90871 0.65023 0.84953 0.0
O851 O 0.95462 0.62924 0.84388 0.0
O852 O 0.9181 0.70966 0.90648 0.0
C853 C 0.92122 0.7147 0.80957 0.0
C854 C 0.83524 0.69206 0.88753 0.0
O855 O 0.96496 0.64757 0.75681 0.0
O856 O 0.92708 0.63173 0.78093 0.0
C857 C 0.94304 0.6969 0.91559 0.0
O858 O 0.95767 0.67907 0.89726 0.0
O859 O 0.85398 0.66968 0.88958 0.0
O860 O 0.14942 0.09834 0.62386 0.0
Tb861 Tb 0.17091 0.14239 0.61862 0.0
C862 C 0.23068 0.18048 0.61047 0.0
O863 O 0.16325 0.19438 0.57103 0.0
Tb864 Tb 0.20608 0.21121 0.55501 0.0
C865 C 0.23209 0.1906 0.50501 0.0
O866 O 0.14548 0.14729 0.57659 0.0
O867 O 0.20687 0.25966 0.55221 0.0
C868 C 0.18169 0.2741 0.54733 0.0
O869 O 0.15621 0.2604 0.55315 0.0
O870 O 0.21349 0.15878 0.59957 0.0
O871 O 0.23447 0.20471 0.59392 0.0
O872 O 0.15406 0.16814 0.65651 0.0
C873 C 0.14906 0.17127 0.55958 0.0
C874 C 0.17168 0.08528 0.63755 0.0
O875 O 0.21617 0.21499 0.50681 0.0
O876 O 0.23214 0.17719 0.53101 0.0
C877 C 0.1668 0.19309 0.66561 0.0
O878 O 0.1846 0.20773 0.64725 0.0
O879 O 0.19405 0.10403 0.63961 0.0
O880 O 0.2654 0.89944 0.87387 0.0
Tb881 Tb 0.22136 0.92094 0.86862 0.0
C882 C 0.18327 0.9807 0.86048 0.0
O883 O 0.16936 0.91327 0.82104 0.0
Tb884 Tb 0.15254 0.9561 0.80502 0.0
C885 C 0.17314 0.98212 0.75502 0.0
O886 O 0.21646 0.89551 0.82659 0.0
O887 O 0.10408 0.95689 0.80222 0.0
C888 C 0.08964 0.9317 0.79736 0.0
O889 O 0.10332 0.90621 0.80319 0.0
O890 O 0.20498 0.96352 0.84958 0.0
O891 O 0.15904 0.98449 0.84393 0.0
O892 O 0.19561 0.90409 0.90652 0.0
C893 C 0.19248 0.89908 0.80959 0.0
C894 C 0.27847 0.9217 0.88755 0.0
O895 O 0.14876 0.96619 0.75682 0.0
O896 O 0.18655 0.98217 0.78102 0.0
C897 C 0.17066 0.91683 0.91563 0.0
O898 O 0.15603 0.93463 0.89727 0.0
O899 O 0.25973 0.94408 0.88961 0.0
O900 O 0.64945 0.51544 0.48988 0.0
Tb901 Tb 0.67095 0.4714 0.49513 0.0
C902 C 0.73073 0.43333 0.50328 0.0
O903 O 0.66323 0.41939 0.54271 0.0
Tb904 Tb 0.70608 0.40259 0.55871 0.0
C905 C 0.73201 0.42321 0.60877 0.0
O906 O 0.64551 0.4665 0.53715 0.0
O907 O 0.70686 0.35413 0.56152 0.0
C908 C 0.68167 0.33969 0.56638 0.0
O909 O 0.65618 0.35337 0.56056 0.0
O910 O 0.71352 0.45501 0.51419 0.0
O911 O 0.7345 0.4091 0.51983 0.0
O912 O 0.6541 0.44564 0.45723 0.0
C913 C 0.64906 0.44252 0.55415 0.0
C914 C 0.6717 0.5285 0.47619 0.0
O915 O 0.71618 0.39876 0.60691 0.0
O916 O 0.73204 0.43664 0.58277 0.0
C917 C 0.66685 0.4207 0.44812 0.0
O918 O 0.68466 0.40607 0.46648 0.0
O919 O 0.69408 0.50976 0.47414 0.0
O920 O 0.8483 0.39947 0.73989 0.0
Tb921 Tb 0.89234 0.42097 0.74514 0.0
C922 C 0.93039 0.48076 0.7533 0.0
O923 O 0.94434 0.41326 0.79271 0.0
Tb924 Tb 0.96113 0.45611 0.80873 0.0
C925 C 0.9405 0.48202 0.8588 0.0
O926 O 0.89724 0.39553 0.78716 0.0
O927 O 1.00959 0.4569 0.81154 0.0
C928 C 1.02403 0.43172 0.81642 0.0
O929 O 1.01033 0.40624 0.81061 0.0
O930 O 0.90871 0.46354 0.7642 0.0
O931 O 0.95462 0.48454 0.76986 0.0
O932 O 0.9181 0.40412 0.70725 0.0
C933 C 0.92122 0.39908 0.80416 0.0
C934 C 0.83524 0.42172 0.72619 0.0
O935 O 0.96495 0.4662 0.85693 0.0
O936 O 0.92707 0.48205 0.8328 0.0
C937 C 0.94304 0.41689 0.69814 0.0
O938 O 0.95766 0.4347 0.71649 0.0
O939 O 0.85398 0.4441 0.72414 0.0
O940 O 0.76543 0.71431 0.23988 0.0
Tb941 Tb 0.72138 0.69282 0.24513 0.0
C942 C 0.68332 0.63303 0.25329 0.0
O943 O 0.66938 0.7005 0.2927 0.0
Tb944 Tb 0.65258 0.65766 0.30873 0.0
C945 C 0.67321 0.63173 0.35878 0.0
O946 O 0.71648 0.71826 0.28715 0.0
O947 O 0.60412 0.65687 0.31153 0.0
C948 C 0.58968 0.68205 0.31641 0.0
O949 O 0.60338 0.70753 0.3106 0.0
O950 O 0.70499 0.65025 0.2642 0.0
O951 O 0.65909 0.62924 0.26984 0.0
O952 O 0.69563 0.70966 0.20723 0.0
C953 C 0.6925 0.71469 0.30415 0.0
C954 C 0.77849 0.69205 0.22619 0.0
O955 O 0.64877 0.64758 0.35693 0.0
O956 O 0.68662 0.63169 0.33278 0.0
C957 C 0.67068 0.69691 0.19812 0.0
O958 O 0.65606 0.6791 0.21648 0.0
O959 O 0.75974 0.66968 0.22413 0.0
O960 O 0.53094 0.73209 0.93662 0.0
Tb961 Tb 0.55498 0.7061 0.90258 0.0
C962 C 0.55958 0.64908 0.94251 0.0
O963 O 0.59955 0.71353 0.95501 0.0
Tb964 Tb 0.61861 0.67096 0.97139 0.0
C965 C 0.63755 0.67172 1.02849 0.0
O966 O 0.59387 0.73452 0.90908 0.0
O967 O 0.6565 0.65411 0.94563 0.0
C968 C 0.66562 0.66687 0.92069 0.0
O969 O 0.64727 0.68468 0.90606 0.0
O970 O 0.57103 0.66327 0.9194 0.0
O971 O 0.57659 0.64551 0.96649 0.0
O972 O 0.55216 0.70689 0.85412 0.0
C973 C 0.61043 0.73073 0.9333 0.0
C974 C 0.50493 0.73202 0.92322 0.0
O975 O 0.6396 0.6941 1.00974 0.0
O976 O 0.62386 0.64947 1.01543 0.0
C977 C 0.54728 0.6817 0.83969 0.0
O978 O 0.55309 0.65622 0.8534 0.0
O979 O 0.50678 0.71616 0.8988 0.0
O980 O 0.7143 0.37388 0.26543 0.0
Tb981 Tb 0.6928 0.36863 0.22139 0.0
C982 C 0.63302 0.36048 0.18332 0.0
O983 O 0.7005 0.32105 0.16939 0.0
Tb984 Tb 0.65766 0.30504 0.15258 0.0
C985 C 0.63167 0.25502 0.17318 0.0
O986 O 0.71824 0.32661 0.21649 0.0
O987 O 0.65688 0.30224 0.10412 0.0
C988 C 0.68206 0.29737 0.08968 0.0
O989 O 0.70755 0.3032 0.10336 0.0
O990 O 0.65023 0.34957 0.205 0.0
O991 O 0.62925 0.34393 0.15908 0.0
O992 O 0.70965 0.40653 0.19563 0.0
C993 C 0.71468 0.3096 0.19251 0.0
C994 C 0.69205 0.38757 0.27849 0.0
O995 O 0.64756 0.25684 0.14877 0.0
O996 O 0.63165 0.28101 0.18662 0.0
C997 C 0.69689 0.41564 0.17069 0.0
O998 O 0.67909 0.39729 0.15606 0.0
O999 O 0.66967 0.38962 0.25975 0.0
O1000 O 0.98987 0.46433 0.51544 0.0
Tb1001 Tb 0.99512 0.44283 0.4714 0.0
C1002 C 1.00329 0.38306 0.43331 0.0
O1003 O 1.0427 0.45051 0.4194 0.0
Tb1004 Tb 0.05873 0.40768 0.40258 0.0
C1005 C 0.10878 0.38175 0.42322 0.0
O1006 O 1.03715 0.46827 0.4665 0.0
O1007 O 0.06154 0.4069 0.35413 0.0
C1008 C 0.06642 0.43208 0.33969 0.0
O1009 O 0.0606 0.45757 0.35337 0.0
O1010 O 1.01418 0.40025 0.45502 0.0
O1011 O 1.01984 0.37927 0.40909 0.0
O1012 O 0.95723 0.45968 0.44564 0.0
C1013 C 1.05415 0.4647 0.44252 0.0
C1014 C 0.97618 0.44207 0.5285 0.0
O1015 O 0.10693 0.39761 0.39879 0.0
O1016 O 0.08277 0.38169 0.43662 0.0
C1017 C 0.94811 0.44692 0.4207 0.0
O1018 O 0.96647 0.42911 0.40607 0.0
O1019 O 0.97413 0.41969 0.50976 0.0
O1020 O 0.89943 0.7399 0.76541 0.0
Tb1021 Tb 0.92093 0.74515 0.72137 0.0
C1022 C 0.98071 0.7533 0.6833 0.0
O1023 O 0.91323 0.79273 0.66937 0.0
Tb1024 Tb 0.95607 0.80874 0.65256 0.0
C1025 C 0.98206 0.85877 0.67316 0.0
O1026 O 0.89549 0.78718 0.71647 0.0
O1027 O 0.95685 0.81155 0.60411 0.0
C1028 C 0.93167 0.81641 0.58967 0.0
O1029 O 0.90618 0.81059 0.60335 0.0
O1030 O 0.9635 0.76421 0.70498 0.0
O1031 O 0.98449 0.76985 0.65907 0.0
O1032 O 0.90408 0.70726 0.69561 0.0
C1033 C 0.89905 0.80418 0.69249 0.0
C1034 C 0.92169 0.72621 0.77847 0.0
O1035 O 0.96617 0.85694 0.64876 0.0
O1036 O 0.98208 0.83277 0.6866 0.0
C1037 C 0.91684 0.69815 0.67066 0.0
O1038 O 0.93464 0.71651 0.65604 0.0
O1039 O 0.94407 0.72416 0.75973 0.0
O1040 O 0.62386 0.46432 0.59831 0.0
Tb1041 Tb 0.6186 0.44282 0.64235 0.0
C1042 C 0.61044 0.38305 0.68044 0.0
O1043 O 0.57102 0.45051 0.69434 0.0
Tb1044 Tb 0.55499 0.40768 0.71116 0.0
C1045 C 0.50494 0.38175 0.69052 0.0
O1046 O 0.57658 0.46826 0.64725 0.0
O1047 O 0.55218 0.40689 0.75962 0.0
C1048 C 0.54731 0.43208 0.77406 0.0
O1049 O 0.55313 0.45757 0.76038 0.0
O1050 O 0.59955 0.40025 0.65873 0.0
O1051 O 0.59388 0.37926 0.70466 0.0
O1052 O 0.6565 0.45967 0.6681 0.0
C1053 C 0.55957 0.4647 0.67123 0.0
C1054 C 0.63754 0.44206 0.58525 0.0
O1055 O 0.50679 0.39761 0.71495 0.0
O1056 O 0.53095 0.38169 0.67712 0.0
C1057 C 0.66561 0.44691 0.69304 0.0
O1058 O 0.64726 0.42911 0.70768 0.0
O1059 O 0.63959 0.41968 0.60399 0.0
O1060 O 0.89943 0.37388 0.84832 0.0
Tb1061 Tb 0.92093 0.36862 0.89236 0.0
C1062 C 0.98071 0.36048 0.93043 0.0
O1063 O 0.91322 0.32105 0.94436 0.0
Tb1064 Tb 0.95607 0.30504 0.96117 0.0
C1065 C 0.98205 0.25502 0.94057 0.0
O1066 O 0.89549 0.3266 0.89726 0.0
O1067 O 0.95686 0.30224 1.00963 0.0
C1068 C 0.93168 0.29735 1.02406 0.0
O1069 O 0.9062 0.30316 1.01036 0.0
O1070 O 0.9635 0.34957 0.90875 0.0
O1071 O 0.98448 0.34393 0.95466 0.0
O1072 O 0.90408 0.40652 0.91812 0.0
C1073 C 0.89905 0.3096 0.92124 0.0
C1074 C 0.92168 0.38756 0.83526 0.0
O1075 O 0.96617 0.25684 0.96498 0.0
O1076 O 0.98207 0.28101 0.92713 0.0
C1077 C 0.91683 0.41562 0.94307 0.0
O1078 O 0.93464 0.39727 0.95769 0.0
O1079 O 0.94406 0.38961 0.854 0.0
O1080 O 0.08279 0.73209 0.17711 0.0
Tb1081 Tb 0.05875 0.7061 0.21115 0.0
C1082 C 1.05415 0.64908 0.17122 0.0
O1083 O 1.01418 0.71352 0.15872 0.0
Tb1084 Tb 0.99512 0.67095 0.14234 0.0
C1085 C 0.97618 0.67171 0.08524 0.0
O1086 O 1.01986 0.73452 0.20465 0.0
O1087 O 0.95723 0.6541 0.16809 0.0
C1088 C 0.94811 0.66686 0.19303 0.0
O1089 O 0.96646 0.68467 0.20766 0.0
O1090 O 1.0427 0.66327 0.19433 0.0
O1091 O 1.03715 0.64551 0.14724 0.0
O1092 O 0.06156 0.70689 0.25961 0.0
C1093 C 1.0033 0.73072 0.18043 0.0
C1094 C 0.1088 0.73202 0.19051 0.0
O1095 O 0.97413 0.69409 0.10399 0.0
O1096 O 0.98987 0.64946 0.0983 0.0
C1097 C 0.06642 0.6817 0.27405 0.0
O1098 O 0.0606 0.65621 0.26037 0.0
O1099 O 0.10695 0.71616 0.21494 0.0
O1100 O 0.71429 0.7399 0.34831 0.0
Tb1101 Tb 0.6928 0.74515 0.39235 0.0
C1102 C 0.63302 0.75329 0.43042 0.0
O1103 O 0.7005 0.79272 0.44435 0.0
Tb1104 Tb 0.65766 0.80873 0.46116 0.0
C1105 C 0.63167 0.85875 0.44056 0.0
O1106 O 0.71823 0.78717 0.39725 0.0
O1107 O 0.65687 0.81153 0.50962 0.0
C1108 C 0.68205 0.81642 0.52405 0.0
O1109 O 0.70753 0.81061 0.51035 0.0
O1110 O 0.65022 0.7642 0.40874 0.0
O1111 O 0.62924 0.76983 0.45465 0.0
O1112 O 0.70965 0.70725 0.4181 0.0
C1113 C 0.71468 0.80417 0.42123 0.0
C1114 C 0.69204 0.7262 0.33525 0.0
O1115 O 0.64756 0.85693 0.46497 0.0
O1116 O 0.63165 0.83276 0.42712 0.0
C1117 C 0.69689 0.69814 0.44305 0.0
O1118 O 0.67909 0.71649 0.45768 0.0
O1119 O 0.66966 0.72415 0.35399 0.0
O1120 O 1.01542 0.62389 0.64943 0.0
Tb1121 Tb 0.97138 0.61865 0.67092 0.0
C1122 C 0.93327 0.61051 0.73068 0.0
O1123 O 0.91939 0.57107 0.66325 0.0
Tb1124 Tb 0.90254 0.55505 0.70607 0.0
C1125 C 0.92313 0.50505 0.73209 0.0
O1126 O 0.96648 0.57662 0.64549 0.0
O1127 O 0.85408 0.55225 0.70684 0.0
C1128 C 0.83966 0.54734 0.68166 0.0
O1129 O 0.85337 0.55314 0.65618 0.0
O1130 O 0.95498 0.59961 0.7135 0.0
O1131 O 0.90904 0.59397 0.73446 0.0
O1132 O 0.94563 0.65654 0.65406 0.0
C1133 C 0.9425 0.55961 0.64907 0.0
C1134 C 1.02848 0.63758 0.67169 0.0
O1135 O 0.89876 0.50685 0.71616 0.0
O1136 O 0.93654 0.53105 0.73215 0.0
C1137 C 0.92067 0.66564 0.6668 0.0
O1138 O 0.90602 0.6473 0.68459 0.0
O1139 O 1.00974 0.63964 0.69406 0.0
O1140 O 0.73987 0.76545 0.89943 0.0
Tb1141 Tb 0.74512 0.72141 0.92093 0.0
C1142 C 0.75326 0.68334 0.98071 0.0
O1143 O 0.79269 0.6694 0.91322 0.0
Tb1144 Tb 0.80869 0.65259 0.95607 0.0
C1145 C 0.85871 0.67318 0.98206 0.0
O1146 O 0.78715 0.71651 0.8955 0.0
O1147 O 0.81149 0.60413 0.95686 0.0
C1148 C 0.81638 0.58969 0.93168 0.0
O1149 O 0.81058 0.60339 0.90619 0.0
O1150 O 0.76417 0.70502 0.96351 0.0
O1151 O 0.7698 0.6591 0.98448 0.0
O1152 O 0.70723 0.69564 0.90408 0.0
C1153 C 0.80415 0.69252 0.89905 0.0
C1154 C 0.72617 0.77851 0.92169 0.0
O1155 O 0.85689 0.64877 0.96617 0.0
O1156 O 0.83272 0.68661 0.98208 0.0
C1157 C 0.69813 0.6707 0.91683 0.0
O1158 O 0.71647 0.65606 0.93464 0.0
O1159 O 0.72412 0.75976 0.94407 0.0
O1160 O 0.67715 0.58276 0.2321 0.0
Tb1161 Tb 0.71117 0.55873 0.20607 0.0
C1162 C 0.67122 0.55417 0.14906 0.0
O1163 O 0.65875 0.5142 0.21351 0.0
Tb1164 Tb 0.64235 0.49515 0.17094 0.0
C1165 C 0.58525 0.47621 0.1717 0.0
O1166 O 0.70467 0.51984 0.23449 0.0
O1167 O 0.66811 0.45725 0.15409 0.0
C1168 C 0.69306 0.44815 0.16683 0.0
O1169 O 0.7077 0.46649 0.18465 0.0
O1170 O 0.69435 0.54272 0.16324 0.0
O1171 O 0.64724 0.53717 0.1455 0.0
O1172 O 0.75963 0.56153 0.20684 0.0
C1173 C 0.68043 0.50329 0.23072 0.0
C1174 C 0.69058 0.60876 0.23207 0.0
O1175 O 0.60399 0.47415 0.19408 0.0
O1176 O 0.59831 0.4899 0.14945 0.0
C1177 C 0.77406 0.56643 0.18166 0.0
O1178 O 0.76034 0.56063 0.15618 0.0
O1179 O 0.71498 0.60693 0.21617 0.0
O1180 O 0.87386 0.34833 0.39946 0.0
Tb1181 Tb 0.86861 0.39237 0.42095 0.0
C1182 C 0.86047 0.43044 0.48073 0.0
O1183 O 0.82104 0.44437 0.41324 0.0
Tb1184 Tb 0.80503 0.46119 0.45608 0.0
C1185 C 0.75501 0.4406 0.48207 0.0
O1186 O 0.82659 0.39726 0.39551 0.0
O1187 O 0.80223 0.50965 0.45686 0.0
C1188 C 0.79733 0.52408 0.43167 0.0
O1189 O 0.80313 0.51036 0.4062 0.0
O1190 O 0.84956 0.40876 0.46352 0.0
O1191 O 0.84393 0.45468 0.4845 0.0
O1192 O 0.9065 0.41813 0.4041 0.0
C1193 C 0.80959 0.42124 0.39907 0.0
C1194 C 0.88756 0.33527 0.42171 0.0
O1195 O 0.75684 0.465 0.46618 0.0
O1196 O 0.781 0.42716 0.4821 0.0
C1197 C 0.9156 0.44308 0.41685 0.0
O1198 O 0.89726 0.45772 0.43466 0.0
O1199 O 0.88962 0.35401 0.44408 0.0
O1200 O 1.01541 0.48989 0.96431 0.0
Tb1201 Tb 0.97137 0.49513 0.94282 0.0
C1202 C 0.93327 0.50327 0.88306 0.0
O1203 O 0.91936 0.54271 0.95049 0.0
Tb1204 Tb 0.90253 0.55872 0.90766 0.0
C1205 C 0.92313 0.60873 0.88164 0.0
O1206 O 0.96646 0.53717 0.96825 0.0
O1207 O 0.85408 0.56153 0.90687 0.0
C1208 C 0.83964 0.5664 0.93205 0.0
O1209 O 0.85331 0.56058 0.95755 0.0
O1210 O 0.95498 0.51417 0.90024 0.0
O1211 O 0.90903 0.51981 0.87927 0.0
O1212 O 0.94562 0.45724 0.95967 0.0
C1213 C 0.94248 0.55417 0.96467 0.0
C1214 C 1.02847 0.4762 0.94205 0.0
O1215 O 0.89875 0.60693 0.89758 0.0
O1216 O 0.93654 0.58273 0.88159 0.0
C1217 C 0.92066 0.44814 0.94693 0.0
O1218 O 0.90601 0.46648 0.92914 0.0
O1219 O 1.00973 0.47414 0.91968 0.0
O1220 O 0.78095 0.68664 0.13166 0.0
Tb1221 Tb 0.805 0.65259 0.15764 0.0
C1222 C 0.80958 0.69252 0.21467 0.0
O1223 O 0.84956 0.70503 0.15021 0.0
Tb1224 Tb 0.86861 0.7214 0.19279 0.0
C1225 C 0.88756 0.7785 0.19204 0.0
O1226 O 0.84389 0.6591 0.12923 0.0
O1227 O 0.9065 0.69564 0.20964 0.0
C1228 C 0.9156 0.67069 0.19689 0.0
O1229 O 0.89726 0.65605 0.17907 0.0
O1230 O 0.82103 0.6694 0.20048 0.0
O1231 O 0.82658 0.7165 0.21823 0.0
O1232 O 0.80219 0.60414 0.15685 0.0
C1233 C 0.86045 0.68333 0.13302 0.0
C1234 C 0.75494 0.67323 0.13172 0.0
O1235 O 0.88962 0.75976 0.16966 0.0
O1236 O 0.87385 0.76544 0.21429 0.0
C1237 C 0.79734 0.58969 0.18203 0.0
O1238 O 0.80317 0.60336 0.20752 0.0
O1239 O 0.7568 0.6488 0.14757 0.0
O1240 O 0.59831 0.62387 0.4643 0.0
Tb1241 Tb 0.64235 0.61863 0.4428 0.0
C1242 C 0.68044 0.61048 0.38304 0.0
O1243 O 0.69436 0.57105 0.4505 0.0
Tb1244 Tb 0.71117 0.55503 0.40766 0.0
C1245 C 0.69054 0.50498 0.38172 0.0
O1246 O 0.64726 0.5766 0.46824 0.0
O1247 O 0.75962 0.55222 0.40687 0.0
C1248 C 0.77407 0.54736 0.43205 0.0
O1249 O 0.7604 0.55318 0.45754 0.0
O1250 O 0.65873 0.59959 0.40022 0.0
O1251 O 0.70467 0.59393 0.37925 0.0
O1252 O 0.66811 0.65653 0.45965 0.0
C1253 C 0.67124 0.5596 0.46468 0.0
C1254 C 0.58525 0.63757 0.44205 0.0
O1255 O 0.71496 0.50683 0.39758 0.0
O1256 O 0.67713 0.53099 0.38167 0.0
C1257 C 0.69306 0.66563 0.44691 0.0
O1258 O 0.7077 0.64729 0.4291 0.0
O1259 O 0.60399 0.63962 0.41967 0.0
O1260 O 0.73987 0.34832 0.7143 0.0
Tb1261 Tb 0.74512 0.39236 0.6928 0.0
C1262 C 0.75327 0.43044 0.63303 0.0
O1263 O 0.79269 0.44438 0.7005 0.0
Tb1264 Tb 0.80871 0.46118 0.65765 0.0
C1265 C 0.85876 0.44055 0.63173 0.0
O1266 O 0.78714 0.39727 0.71823 0.0
O1267 O 0.81151 0.50964 0.65685 0.0
C1268 C 0.81637 0.52409 0.68203 0.0
O1269 O 0.81055 0.51042 0.70753 0.0
O1270 O 0.76416 0.40873 0.65021 0.0
O1271 O 0.76981 0.45467 0.62924 0.0
O1272 O 0.70723 0.41813 0.70965 0.0
C1273 C 0.80414 0.42125 0.71468 0.0
C1274 C 0.72617 0.33526 0.69205 0.0
O1275 O 0.85691 0.46498 0.64758 0.0
O1276 O 0.83276 0.42714 0.63167 0.0
C1277 C 0.69812 0.44308 0.6969 0.0
O1278 O 0.71646 0.45772 0.67909 0.0
O1279 O 0.72411 0.35401 0.66967 0.0
O1280 O 0.64941 1.01543 0.62386 0.0
Tb1281 Tb 0.67091 0.97139 0.6186 0.0
C1282 C 0.73068 0.93331 0.61045 0.0
O1283 O 0.66324 0.91939 0.57102 0.0
Tb1284 Tb 0.70607 0.90257 0.555 0.0
C1285 C 0.73206 0.92318 0.50499 0.0
O1286 O 0.64548 0.96649 0.57658 0.0
O1287 O 0.70687 0.85412 0.5522 0.0
C1288 C 0.68168 0.83967 0.54734 0.0
O1289 O 0.65619 0.85335 0.55316 0.0
O1290 O 0.71349 0.95501 0.59956 0.0
O1291 O 0.73447 0.90908 0.59391 0.0
O1292 O 0.65407 0.94563 0.6565 0.0
C1293 C 0.64905 0.94251 0.55957 0.0
C1294 C 0.67167 1.02849 0.63755 0.0
O1295 O 0.71615 0.89879 0.5068 0.0
O1296 O 0.73211 0.9366 0.53099 0.0
C1297 C 0.66682 0.92068 0.66561 0.0
O1298 O 0.68462 0.90605 0.64725 0.0
O1299 O 0.69405 1.00975 0.63959 0.0
O1300 O 0.14945 0.59833 0.48988 0.0
Tb1301 Tb 0.17095 0.64237 0.49513 0.0
C1302 C 0.23074 0.68043 0.50329 0.0
O1303 O 0.16324 0.69437 0.54271 0.0
Tb1304 Tb 0.20608 0.71117 0.55872 0.0
C1305 C 0.232 0.69054 0.60878 0.0
O1306 O 0.14551 0.64726 0.53715 0.0
O1307 O 0.20686 0.75963 0.56153 0.0
C1308 C 0.18168 0.77407 0.5664 0.0
O1309 O 0.15619 0.76039 0.56058 0.0
O1310 O 0.21352 0.65875 0.51419 0.0
O1311 O 0.23451 0.70466 0.51984 0.0
O1312 O 0.1541 0.66813 0.45724 0.0
C1313 C 0.14906 0.67125 0.55415 0.0
C1314 C 0.1717 0.58527 0.47619 0.0
O1315 O 0.21618 0.71499 0.60692 0.0
O1316 O 0.23203 0.67711 0.58279 0.0
C1317 C 0.16686 0.69307 0.44813 0.0
O1318 O 0.18469 0.7077 0.46646 0.0
O1319 O 0.19408 0.60401 0.47413 0.0
O1320 O 0.76541 0.89945 0.73986 0.0
Tb1321 Tb 0.72137 0.92094 0.74511 0.0
C1322 C 0.68327 0.9807 0.75325 0.0
O1323 O 0.66938 0.91327 0.79269 0.0
Tb1324 Tb 0.65254 0.9561 0.80871 0.0
C1325 C 0.67314 0.98212 0.85871 0.0
O1326 O 0.71647 0.89551 0.78714 0.0
O1327 O 0.60408 0.95688 0.81151 0.0
C1328 C 0.58965 0.93169 0.81638 0.0
O1329 O 0.60333 0.9062 0.81057 0.0
O1330 O 0.70498 0.96352 0.76415 0.0
O1331 O 0.65903 0.98449 0.76979 0.0
O1332 O 0.69561 0.90409 0.70722 0.0
C1333 C 0.6925 0.89909 0.80414 0.0
C1334 C 0.77847 0.92171 0.72617 0.0
O1335 O 0.64876 0.96618 0.85691 0.0
O1336 O 0.68655 0.98217 0.83271 0.0
C1337 C 0.67066 0.91682 0.69812 0.0
O1338 O 0.65601 0.93463 0.71646 0.0
O1339 O 0.75972 0.94409 0.72411 0.0
O1340 O 0.46428 0.51544 0.98989 0.0
Tb1341 Tb 0.44278 0.47141 0.99514 0.0
C1342 C 0.383 0.43335 1.00329 0.0
O1343 O 0.4505 0.4194 1.04271 0.0
Tb1344 Tb 0.40765 0.40261 0.05873 0.0
C1345 C 0.38173 0.42323 0.10879 0.0
O1346 O 0.46822 0.46651 1.03716 0.0
O1347 O 0.40687 0.35415 0.06154 0.0
C1348 C 0.43205 0.33971 0.06641 0.0
O1349 O 0.45754 0.35339 0.06058 0.0
O1350 O 0.40021 0.45503 1.0142 0.0
O1351 O 0.37922 0.40912 1.01985 0.0
O1352 O 0.45963 0.44565 0.95725 0.0
C1353 C 0.46467 0.44253 1.05416 0.0
C1354 C 0.44203 0.52851 0.97619 0.0
O1355 O 0.39755 0.39879 0.10692 0.0
O1356 O 0.3817 0.43667 0.08279 0.0
C1357 C 0.44687 0.42071 0.94813 0.0
O1358 O 0.42904 0.40607 0.96646 0.0
O1359 O 0.41965 0.50977 0.97414 0.0
O1360 O 0.3483 0.7143 0.73989 0.0
Tb1361 Tb 0.39233 0.6928 0.74514 0.0
C1362 C 0.43039 0.63302 0.75329 0.0
O1363 O 0.44434 0.70052 0.79272 0.0
Tb1364 Tb 0.46113 0.65767 0.80872 0.0
C1365 C 0.44052 0.63175 0.85879 0.0
O1366 O 0.39723 0.71824 0.78717 0.0
O1367 O 0.50959 0.65689 0.81153 0.0
C1368 C 0.52403 0.68207 0.81639 0.0
O1369 O 0.51035 0.70756 0.81057 0.0
O1370 O 0.40871 0.65023 0.7642 0.0
O1371 O 0.45462 0.62924 0.76984 0.0
O1372 O 0.4181 0.70966 0.70725 0.0
C1373 C 0.42121 0.71469 0.80416 0.0
C1374 C 0.33524 0.69205 0.72619 0.0
O1375 O 0.46496 0.64757 0.85692 0.0
O1376 O 0.42708 0.63172 0.8328 0.0
C1377 C 0.44304 0.6969 0.69814 0.0
O1378 O 0.45767 0.67907 0.71647 0.0
O1379 O 0.35398 0.66967 0.72413 0.0
O1380 O 0.96431 0.09834 0.12386 0.0
Tb1381 Tb 0.94281 0.14238 0.11861 0.0
C1382 C 0.88304 0.18046 0.11047 0.0
O1383 O 0.9505 0.19438 0.07103 0.0
Tb1384 Tb 0.90766 0.2112 1.05502 0.0
C1385 C 0.88166 0.19059 1.005 0.0
O1386 O 0.96824 0.14728 0.07658 0.0
O1387 O 0.90686 0.25965 1.05221 0.0
C1388 C 0.93205 0.2741 1.04735 0.0
O1389 O 0.95754 0.26042 1.05317 0.0
O1390 O 0.90023 0.15876 0.09957 0.0
O1391 O 0.87926 0.2047 0.09392 0.0
O1392 O 0.95966 0.16813 0.1565 0.0
C1393 C 0.96467 0.17126 0.05958 0.0
C1394 C 0.94205 0.08528 0.13755 0.0
O1395 O 0.89757 0.21498 1.00681 0.0
O1396 O 0.88162 0.17717 1.031 0.0
C1397 C 0.94692 0.19308 0.16561 0.0
O1398 O 0.92911 0.20773 0.14727 0.0
O1399 O 0.91967 0.10402 0.1396 0.0
O1400 O 0.7654 0.21433 0.87388 0.0
Tb1401 Tb 0.72136 0.19284 0.86863 0.0
C1402 C 0.68326 0.13308 0.86049 0.0
O1403 O 0.66937 0.20052 0.82105 0.0
Tb1404 Tb 0.65253 0.15768 0.80504 0.0
C1405 C 0.67312 0.13167 0.75503 0.0
O1406 O 0.71646 0.21827 0.8266 0.0
O1407 O 0.60407 0.15691 0.80223 0.0
C1408 C 0.58964 0.1821 0.79736 0.0
O1409 O 0.60333 0.20759 0.80318 0.0
O1410 O 0.70496 0.15026 0.84959 0.0
O1411 O 0.65903 0.12929 0.84395 0.0
O1412 O 0.69562 0.2097 0.90653 0.0
C1413 C 0.69249 0.2147 0.8096 0.0
C1414 C 0.77846 0.19207 0.88756 0.0
O1415 O 0.64874 0.1476 0.75683 0.0
O1416 O 0.68654 0.13162 0.78103 0.0
C1417 C 0.67067 0.19695 0.91564 0.0
O1418 O 0.65601 0.17915 0.8973 0.0
O1419 O 0.75972 0.16969 0.88962 0.0
O1420 O 0.84832 0.89945 0.37386 0.0
Tb1421 Tb 0.89236 0.92094 0.36861 0.0
C1422 C 0.93045 0.98071 0.36047 0.0
O1423 O 0.94435 0.91325 0.32104 0.0
Tb1424 Tb 0.96118 0.95609 0.30502 0.0
C1425 C 0.94058 0.98208 0.255 0.0
O1426 O 0.89726 0.89551 0.32658 0.0
O1427 O 1.00964 0.95687 0.30222 0.0
C1428 C 1.02407 0.93168 0.29735 0.0
O1429 O 1.01039 0.90619 0.30317 0.0
O1430 O 0.90874 0.96352 0.34957 0.0
O1431 O 0.95468 0.98449 0.34392 0.0
O1432 O 0.91811 0.90409 0.40651 0.0
C1433 C 0.92123 0.89908 0.30958 0.0
C1434 C 0.83526 0.92171 0.38755 0.0
O1435 O 0.96497 0.96617 0.25682 0.0
O1436 O 0.92716 0.98213 0.281 0.0
C1437 C 0.94306 0.91683 0.41562 0.0
O1438 O 0.9577 0.93464 0.39728 0.0
O1439 O 0.854 0.94408 0.3896 0.0
O1440 O 0.48987 0.46433 0.09832 0.0
Tb1441 Tb 0.49512 0.44283 0.14236 0.0
C1442 C 0.50327 0.38307 0.18046 0.0
O1443 O 0.5427 0.45052 0.19436 0.0
Tb1444 Tb 0.55872 0.40768 0.21119 0.0
C1445 C 0.60874 0.38169 0.19058 0.0
O1446 O 0.53715 0.46827 0.14726 0.0
O1447 O 0.56153 0.4069 0.25964 0.0
C1448 C 0.56642 0.43208 0.27408 0.0
O1449 O 0.56061 0.45756 0.26037 0.0
O1450 O 0.51417 0.40026 0.15875 0.0
O1451 O 0.51982 0.37928 0.20469 0.0
O1452 O 0.45722 0.45968 0.16811 0.0
C1453 C 0.55415 0.4647 0.17124 0.0
C1454 C 0.47618 0.44207 0.08526 0.0
O1455 O 0.60693 0.39761 0.21497 0.0
O1456 O 0.58273 0.38163 0.17717 0.0
C1457 C 0.44812 0.44694 0.19306 0.0
O1458 O 0.46647 0.42914 0.2077 0.0
O1459 O 0.47414 0.41969 0.104 0.0
O1460 O 0.39941 0.73988 0.84833 0.0
Tb1461 Tb 0.42091 0.74513 0.89237 0.0
C1462 C 0.48068 0.75328 0.93046 0.0
O1463 O 0.41323 0.79272 0.94437 0.0
Tb1464 Tb 0.45607 0.80873 0.96119 0.0
C1465 C 0.48208 0.85874 0.94059 0.0
O1466 O 0.39548 0.78716 0.89727 0.0
O1467 O 0.45686 0.81153 1.00965 0.0
C1468 C 0.43168 0.81638 1.02409 0.0
O1469 O 0.40619 0.81055 1.01041 0.0
O1470 O 0.46349 0.76417 0.90875 0.0
O1471 O 0.48447 0.76982 0.95469 0.0
O1472 O 0.40407 0.70723 0.91812 0.0
C1473 C 0.39905 0.80417 0.92125 0.0
C1474 C 0.42167 0.7262 0.83526 0.0
O1475 O 0.46617 0.85693 0.96498 0.0
O1476 O 0.48212 0.83274 0.92717 0.0
C1477 C 0.41681 0.69813 0.94307 0.0
O1478 O 0.4346 0.71649 0.95771 0.0
O1479 O 0.44405 0.72415 0.85401 0.0
O1480 O 0.12387 0.64945 0.59831 0.0
Tb1481 Tb 0.11862 0.67094 0.64235 0.0
C1482 C 0.11046 0.7307 0.68045 0.0
O1483 O 0.07104 0.66327 0.69434 0.0
Tb1484 Tb 1.055 0.70609 0.71118 0.0
C1485 C 1.00499 0.7321 0.69057 0.0
O1486 O 0.07659 0.6455 0.64725 0.0
O1487 O 1.0522 0.70688 0.75963 0.0
C1488 C 1.04733 0.68169 0.77407 0.0
O1489 O 1.05314 0.6562 0.76039 0.0
O1490 O 0.09957 0.71351 0.65875 0.0
O1491 O 0.09391 0.73449 0.70468 0.0
O1492 O 0.15651 0.65409 0.66811 0.0
C1493 C 0.05958 0.64908 0.67123 0.0
C1494 C 0.13755 0.67171 0.58525 0.0
O1495 O 1.0068 0.71617 0.71495 0.0
O1496 O 1.031 0.73215 0.67716 0.0
C1497 C 0.16562 0.66684 0.69306 0.0
O1498 O 0.14726 0.68463 0.70769 0.0
O1499 O 0.1396 0.69409 0.604 0.0
O1500 O 0.21431 0.37389 0.34833 0.0
Tb1501 Tb 0.19281 0.36864 0.39237 0.0
C1502 C 0.13304 0.3605 0.43045 0.0
O1503 O 0.2005 0.32105 0.44437 0.0
Tb1504 Tb 0.15765 0.30505 0.46118 0.0
C1505 C 0.13164 0.25504 0.44059 0.0
O1506 O 0.21824 0.3266 0.39727 0.0
O1507 O 0.15687 0.30225 0.50964 0.0
C1508 C 0.18205 0.2974 0.52408 0.0
O1509 O 0.20754 0.30323 0.51041 0.0
O1510 O 0.15022 0.3496 0.40874 0.0
O1511 O 0.12926 0.34396 0.45469 0.0
O1512 O 0.20966 0.40653 0.41812 0.0
C1513 C 0.21467 0.3096 0.42124 0.0
C1514 C 0.19206 0.38757 0.33526 0.0
O1515 O 0.14755 0.25685 0.46498 0.0
O1516 O 0.13161 0.28103 0.42716 0.0
C1517 C 0.19691 0.41564 0.44307 0.0
O1518 O 0.17912 0.39728 0.45771 0.0
O1519 O 0.16968 0.38962 0.354 0.0
O1520 O 0.48986 0.64944 0.51543 0.0
Tb1521 Tb 0.49512 0.67093 0.47138 0.0
C1522 C 0.50326 0.73069 0.43329 0.0
O1523 O 0.5427 0.66325 0.41939 0.0
Tb1524 Tb 0.55871 0.70608 0.40256 0.0
C1525 C 0.60873 0.73208 0.42315 0.0
O1526 O 0.53715 0.6455 0.46649 0.0
O1527 O 0.56152 0.70686 0.3541 0.0
C1528 C 0.56639 0.68168 0.33966 0.0
O1529 O 0.56057 0.65619 0.35334 0.0
O1530 O 0.51416 0.71351 0.45499 0.0
O1531 O 0.51981 0.73448 0.40905 0.0
O1532 O 0.45722 0.65408 0.44563 0.0
C1533 C 0.55415 0.64907 0.44251 0.0
C1534 C 0.47618 0.6717 0.52849 0.0
O1535 O 0.60692 0.71616 0.39877 0.0
O1536 O 0.58273 0.73214 0.43657 0.0
C1537 C 0.44812 0.66683 0.42068 0.0
O1538 O 0.46648 0.68462 0.40604 0.0
O1539 O 0.47413 0.69408 0.50974 0.0
O1540 O 0.21432 0.73988 0.26541 0.0
Tb1541 Tb 0.19282 0.74513 0.22137 0.0
C1542 C 0.13306 0.75327 0.18328 0.0
O1543 O 0.2005 0.79271 0.16937 0.0
Tb1544 Tb 0.15766 0.80873 0.15255 0.0
C1545 C 0.13165 0.85873 0.17315 0.0
O1546 O 0.21825 0.78716 0.21647 0.0
O1547 O 0.15687 0.81153 0.10409 0.0
C1548 C 0.18205 0.81641 0.08965 0.0
O1549 O 0.20753 0.8106 0.10336 0.0
O1550 O 0.15024 0.76417 0.20498 0.0
O1551 O 0.12927 0.76982 0.15905 0.0
O1552 O 0.20967 0.70723 0.19562 0.0
C1553 C 0.21468 0.80416 0.19249 0.0
C1554 C 0.19206 0.7262 0.27848 0.0
O1555 O 0.14757 0.85693 0.14877 0.0
O1556 O 0.13161 0.83273 0.18657 0.0
C1557 C 0.19692 0.69813 0.17067 0.0
O1558 O 0.17914 0.71649 0.15603 0.0
O1559 O 0.16968 0.72415 0.25974 0.0
O1560 O 0.12386 0.46433 1.01543 0.0
Tb1561 Tb 0.11861 0.44284 0.97138 0.0
C1562 C 0.11046 0.38308 0.93329 0.0
O1563 O 0.07103 0.45052 0.91939 0.0
Tb1564 Tb 1.05501 0.40769 0.90256 0.0
C1565 C 1.00499 0.38169 0.92316 0.0
O1566 O 0.07658 0.46827 0.96649 0.0
O1567 O 1.0522 0.40691 0.8541 0.0
C1568 C 1.04733 0.4321 0.83967 0.0
O1569 O 1.05314 0.45759 0.85335 0.0
O1570 O 0.09956 0.40027 0.95499 0.0
O1571 O 0.09391 0.37929 0.90905 0.0
O1572 O 0.15651 0.45969 0.94563 0.0
C1573 C 0.05957 0.4647 0.94251 0.0
C1574 C 0.13755 0.44207 1.02849 0.0
O1575 O 1.0068 0.39761 0.89878 0.0
O1576 O 1.031 0.38163 0.93657 0.0
C1577 C 0.16561 0.44695 0.92068 0.0
O1578 O 0.14725 0.42915 0.90604 0.0
O1579 O 0.13959 0.41969 1.00974 0.0
O1580 O 0.39941 0.37389 0.76542 0.0
Tb1581 Tb 0.42091 0.36864 0.72138 0.0
C1582 C 0.48068 0.3605 0.68329 0.0
O1583 O 0.41323 0.32106 0.66938 0.0
Tb1584 Tb 0.45607 0.30505 0.65255 0.0
C1585 C 0.48208 0.25504 0.67316 0.0
O1586 O 0.39548 0.32661 0.71648 0.0
O1587 O 0.45685 0.30225 0.6041 0.0
C1588 C 0.43167 0.29737 0.58966 0.0
O1589 O 0.40619 0.30318 0.60337 0.0
O1590 O 0.46349 0.34961 0.705 0.0
O1591 O 0.48446 0.34396 0.65905 0.0
O1592 O 0.40406 0.40654 0.69562 0.0
C1593 C 0.39905 0.30961 0.6925 0.0
C1594 C 0.42167 0.38758 0.77848 0.0
O1595 O 0.46616 0.25685 0.64876 0.0
O1596 O 0.48211 0.28104 0.68657 0.0
C1597 C 0.41681 0.41564 0.67067 0.0
O1598 O 0.43459 0.39728 0.65603 0.0
O1599 O 0.44405 0.38963 0.75974 0.0
O1600 O 0.09832 0.48989 0.46431 0.0
Tb1601 Tb 0.14236 0.49514 0.44282 0.0
C1602 C 0.18045 0.50327 0.38305 0.0
O1603 O 0.19436 0.54271 0.4505 0.0
Tb1604 Tb 0.21119 0.55872 0.40766 0.0
C1605 C 0.19059 0.60873 0.38165 0.0
O1606 O 0.14726 0.53717 0.46824 0.0
O1607 O 0.25964 0.56152 0.40688 0.0
C1608 C 0.27408 0.56641 0.43206 0.0
O1609 O 0.26037 0.56061 0.45754 0.0
O1610 O 0.15874 0.51417 0.40023 0.0
O1611 O 0.20469 0.51981 0.37927 0.0
O1612 O 0.16811 0.45724 0.45967 0.0
C1613 C 0.17124 0.55417 0.46467 0.0
C1614 C 0.08525 0.4762 0.44206 0.0
O1615 O 0.21498 0.60693 0.39757 0.0
O1616 O 0.17718 0.58273 0.3816 0.0
C1617 C 0.19307 0.44815 0.44694 0.0
O1618 O 0.20772 0.4665 0.42914 0.0
O1619 O 0.10399 0.47414 0.41968 0.0
O1620 O 0.37387 0.34834 0.21431 0.0
Tb1621 Tb 0.36862 0.39238 0.19281 0.0
C1622 C 0.36048 0.43047 0.13305 0.0
O1623 O 0.32104 0.44438 0.2005 0.0
Tb1624 Tb 0.30503 0.46121 0.15766 0.0
C1625 C 0.25502 0.44061 0.13165 0.0
O1626 O 0.32659 0.39728 0.21824 0.0
O1627 O 0.30223 0.50966 0.15687 0.0
C1628 C 0.29734 0.5241 0.18205 0.0
O1629 O 0.30315 0.5104 0.20753 0.0
O1630 O 0.34958 0.40876 0.15023 0.0
O1631 O 0.34394 0.45471 0.12927 0.0
O1632 O 0.40651 0.41814 0.20967 0.0
C1633 C 0.30959 0.42126 0.21467 0.0
C1634 C 0.38756 0.33528 0.19206 0.0
O1635 O 0.25683 0.465 0.14757 0.0
O1636 O 0.28102 0.42719 0.1316 0.0
C1637 C 0.41561 0.4431 0.19693 0.0
O1638 O 0.39726 0.45774 0.17912 0.0
O1639 O 0.38961 0.35402 0.16968 0.0
O1640 O 0.51542 0.62388 0.96431 0.0
Tb1641 Tb 0.47138 0.61864 0.94281 0.0
C1642 C 0.43328 0.61051 0.88305 0.0
O1643 O 0.41937 0.57106 0.9505 0.0
Tb1644 Tb 0.40254 0.55506 0.90767 0.0
C1645 C 0.42313 0.50504 0.88165 0.0
O1646 O 0.46648 0.5766 0.96824 0.0
O1647 O 0.35409 0.55225 0.90688 0.0
C1648 C 0.33965 0.54736 0.93207 0.0
O1649 O 0.35336 0.55317 0.95755 0.0
O1650 O 0.45499 0.59961 0.90023 0.0
O1651 O 0.40904 0.59397 0.87928 0.0
O1652 O 0.44562 0.65653 0.95967 0.0
C1653 C 0.4425 0.5596 0.96467 0.0
C1654 C 0.52848 0.63758 0.94205 0.0
O1655 O 0.39875 0.50685 0.89757 0.0
O1656 O 0.43655 0.53105 0.88161 0.0
C1657 C 0.42066 0.66562 0.94694 0.0
O1658 O 0.40601 0.64727 0.92914 0.0
O1659 O 0.50974 0.63964 0.91968 0.0
O1660 O 0.23987 0.76544 0.71431 0.0
Tb1661 Tb 0.24511 0.7214 0.69281 0.0
C1662 C 0.25325 0.68331 0.63304 0.0
O1663 O 0.29269 0.66939 0.70049 0.0
Tb1664 Tb 0.3087 0.65257 0.65765 0.0
C1665 C 0.35871 0.67317 0.63165 0.0
O1666 O 0.28714 0.7165 0.71824 0.0
O1667 O 0.3115 0.60411 0.65687 0.0
C1668 C 0.31639 0.58967 0.68205 0.0
O1669 O 0.31058 0.60338 0.70753 0.0
O1670 O 0.26415 0.70502 0.65022 0.0
O1671 O 0.26979 0.65907 0.62926 0.0
O1672 O 0.20722 0.69564 0.70966 0.0
C1673 C 0.30414 0.69252 0.71467 0.0
C1674 C 0.22617 0.7785 0.69205 0.0
O1675 O 0.3569 0.64878 0.64757 0.0
O1676 O 0.33271 0.68659 0.6316 0.0
C1677 C 0.19813 0.67068 0.69692 0.0
O1678 O 0.21647 0.65603 0.67912 0.0
O1679 O 0.22411 0.75976 0.66968 0.0
O1680 O 0.09832 0.62388 0.14942 0.0
Tb1681 Tb 0.14236 0.61864 0.17092 0.0
C1682 C 0.18045 0.61051 0.23068 0.0
O1683 O 0.19436 0.57106 0.16324 0.0
Tb1684 Tb 0.21119 0.55505 0.20607 0.0
C1685 C 0.1906 0.50504 0.23209 0.0
O1686 O 0.14726 0.57661 0.14549 0.0
O1687 O 0.25965 0.55226 0.20686 0.0
C1688 C 0.27409 0.54739 0.18168 0.0
O1689 O 0.26041 0.55321 0.15619 0.0
O1690 O 0.15874 0.59961 0.2135 0.0
O1691 O 0.20469 0.59397 0.23446 0.0
O1692 O 0.16812 0.65653 0.15407 0.0
C1693 C 0.17124 0.55961 0.14906 0.0
C1694 C 0.08525 0.63758 0.17168 0.0
O1695 O 0.21498 0.50685 0.21616 0.0
O1696 O 0.17718 0.53104 0.23214 0.0
C1697 C 0.19308 0.66562 0.1668 0.0
O1698 O 0.20773 0.64727 0.18459 0.0
O1699 O 0.104 0.63963 0.19405 0.0
O1700 O 0.23986 0.34834 0.89943 0.0
Tb1701 Tb 0.24511 0.39239 0.92092 0.0
C1702 C 0.25325 0.43047 0.98069 0.0
O1703 O 0.29268 0.44439 0.91324 0.0
Tb1704 Tb 0.3087 0.46121 0.95608 0.0
C1705 C 0.35871 0.44061 0.98209 0.0
O1706 O 0.28713 0.39729 0.89549 0.0
O1707 O 0.3115 0.50967 0.95688 0.0
C1708 C 0.31636 0.52411 0.93169 0.0
O1709 O 0.31054 0.51044 0.9062 0.0
O1710 O 0.26414 0.40877 0.96351 0.0
O1711 O 0.26979 0.45471 0.98447 0.0
O1712 O 0.20721 0.41815 0.90408 0.0
C1713 C 0.30414 0.42127 0.89906 0.0
C1714 C 0.22617 0.33528 0.92168 0.0
O1715 O 0.3569 0.465 0.96617 0.0
O1716 O 0.33271 0.4272 0.98214 0.0
C1717 C 0.19812 0.4431 0.91682 0.0
O1718 O 0.21647 0.45775 0.93462 0.0
O1719 O 0.22411 0.35402 0.94406 0.0
O1720 O 0.51541 0.48989 0.64943 0.0
Tb1721 Tb 0.47137 0.49513 0.67092 0.0
C1722 C 0.43327 0.50327 0.73068 0.0
O1723 O 0.41936 0.54271 0.66323 0.0
Tb1724 Tb 0.40253 0.55872 0.70607 0.0
C1725 C 0.42313 0.60873 0.73209 0.0
O1726 O 0.46647 0.53717 0.6455 0.0
O1727 O 0.35408 0.56152 0.70686 0.0
C1728 C 0.33964 0.56638 0.68167 0.0
O1729 O 0.35332 0.56056 0.65618 0.0
O1730 O 0.45498 0.51417 0.71351 0.0
O1731 O 0.40903 0.5198 0.73446 0.0
O1732 O 0.44561 0.45724 0.65407 0.0
C1733 C 0.44248 0.55417 0.64906 0.0
C1734 C 0.52847 0.4762 0.67168 0.0
O1735 O 0.39874 0.60692 0.71616 0.0
O1736 O 0.43655 0.58273 0.73213 0.0
C1737 C 0.42065 0.44815 0.6668 0.0
O1738 O 0.406 0.4665 0.68459 0.0
O1739 O 0.50973 0.47414 0.69406 0.0
O1740 O 0.37387 0.76543 0.39942 0.0
Tb1741 Tb 0.36862 0.72139 0.42092 0.0
C1742 C 0.36048 0.68331 0.48069 0.0
O1743 O 0.32104 0.66939 0.41324 0.0
Tb1744 Tb 0.30504 0.65257 0.45608 0.0
C1745 C 0.25502 0.67316 0.48208 0.0
O1746 O 0.32659 0.71649 0.39549 0.0
O1747 O 0.30223 0.60411 0.45687 0.0
C1748 C 0.29737 0.58966 0.43169 0.0
O1749 O 0.30319 0.60334 0.4062 0.0
O1750 O 0.34959 0.70501 0.46351 0.0
O1751 O 0.34394 0.65907 0.48447 0.0
O1752 O 0.40652 0.69563 0.40407 0.0
C1753 C 0.30959 0.69251 0.39906 0.0
C1754 C 0.38756 0.7785 0.42168 0.0
O1755 O 0.25683 0.64878 0.46616 0.0
O1756 O 0.28102 0.68658 0.48213 0.0
C1757 C 0.41561 0.67067 0.41681 0.0
O1758 O 0.39726 0.65602 0.43461 0.0
O1759 O 0.38962 0.75975 0.44406 0.0
O1760 O 0.46431 0.09834 0.48988 0.0
Tb1761 Tb 0.44281 0.14239 0.49513 0.0
C1762 C 0.38305 0.18047 0.50326 0.0
O1763 O 0.45049 0.19439 0.54271 0.0
Tb1764 Tb 0.40765 0.21121 0.55872 0.0
C1765 C 0.38163 0.19061 0.60872 0.0
O1766 O 0.46824 0.14729 0.53716 0.0
O1767 O 0.40686 0.25967 0.56151 0.0
C1768 C 0.43204 0.27411 0.56637 0.0
O1769 O 0.45753 0.26044 0.56054 0.0
O1770 O 0.40023 0.15877 0.51416 0.0
O1771 O 0.37926 0.20471 0.5198 0.0
O1772 O 0.45967 0.16814 0.45723 0.0
C1773 C 0.46467 0.17127 0.55416 0.0
C1774 C 0.44205 0.08528 0.47619 0.0
O1775 O 0.39756 0.215 0.60692 0.0
O1776 O 0.38159 0.1772 0.58272 0.0
C1777 C 0.44692 0.19309 0.44812 0.0
O1778 O 0.42913 0.20773 0.46648 0.0
O1779 O 0.41968 0.10402 0.47414 0.0
O1780 O 0.96429 0.51545 0.62387 0.0
Tb1781 Tb 0.94279 0.47141 0.61862 0.0
C1782 C 0.88303 0.43332 0.61049 0.0
O1783 O 0.9505 0.41941 0.57105 0.0
Tb1784 Tb 0.90766 0.40259 0.55504 0.0
C1785 C 0.88167 0.42318 0.50502 0.0
O1786 O 0.96822 0.46652 0.57659 0.0
O1787 O 0.90688 0.35413 0.55224 0.0
C1788 C 0.93206 0.33969 0.54737 0.0
O1789 O 0.95755 0.35337 0.5532 0.0
O1790 O 0.90021 0.45504 0.59959 0.0
O1791 O 0.87926 0.40908 0.59395 0.0
O1792 O 0.95965 0.44566 0.65652 0.0
C1793 C 0.96467 0.44253 0.55959 0.0
C1794 C 0.94204 0.52851 0.63757 0.0
O1795 O 0.89757 0.39878 0.50684 0.0
O1796 O 0.88163 0.43661 0.53102 0.0
C1797 C 0.9469 0.42071 0.66563 0.0
O1798 O 0.9291 0.40606 0.64729 0.0
O1799 O 0.91966 0.50977 0.63962 0.0
O1800 O 0.34833 0.21433 0.37387 0.0
Tb1801 Tb 0.39237 0.19283 0.36862 0.0
C1802 C 0.43046 0.13307 0.36048 0.0
O1803 O 0.44437 0.20051 0.32104 0.0
Tb1804 Tb 0.46119 0.15767 0.30503 0.0
C1805 C 0.44059 0.13166 0.25502 0.0
O1806 O 0.39727 0.21826 0.32659 0.0
O1807 O 0.50965 0.15689 0.30223 0.0
C1808 C 0.52409 0.18207 0.29737 0.0
O1809 O 0.51041 0.20756 0.3032 0.0
O1810 O 0.40875 0.15025 0.34959 0.0
O1811 O 0.45469 0.12928 0.34394 0.0
O1812 O 0.41812 0.20969 0.40652 0.0
C1813 C 0.42125 0.21469 0.30959 0.0
C1814 C 0.33526 0.19207 0.38756 0.0
O1815 O 0.46498 0.14759 0.25683 0.0
O1816 O 0.42718 0.13162 0.28102 0.0
C1817 C 0.44308 0.19695 0.41561 0.0
O1818 O 0.45773 0.17915 0.39727 0.0
O1819 O 0.35401 0.16969 0.38961 0.0
O1820 O 0.64943 0.59834 0.12386 0.0
Tb1821 Tb 0.67093 0.64238 0.11862 0.0
C1822 C 0.73069 0.68047 0.11047 0.0
O1823 O 0.66324 0.69438 0.07104 0.0
Tb1824 Tb 0.70607 0.7112 1.05502 0.0
C1825 C 0.73206 0.6906 1.005 0.0
O1826 O 0.64549 0.64728 0.07659 0.0
O1827 O 0.70686 0.75966 1.05222 0.0
C1828 C 0.68167 0.7741 1.04735 0.0
O1829 O 0.65618 0.76042 1.05318 0.0
O1830 O 0.7135 0.65876 0.09957 0.0
O1831 O 0.73447 0.7047 0.09393 0.0
O1832 O 0.65407 0.66813 0.15651 0.0
C1833 C 0.64906 0.67126 0.05959 0.0
C1834 C 0.67168 0.58527 0.13755 0.0
O1835 O 0.71615 0.715 1.00682 0.0
O1836 O 0.73211 0.67718 1.031 0.0
C1837 C 0.66682 0.69308 0.16561 0.0
O1838 O 0.68462 0.70773 0.14727 0.0
O1839 O 0.69406 0.60402 0.13961 0.0
O1840 O 0.76543 0.39945 0.37387 0.0
Tb1841 Tb 0.72139 0.42095 0.36862 0.0
C1842 C 0.6833 0.48072 0.36048 0.0
O1843 O 0.66939 0.41326 0.32104 0.0
Tb1844 Tb 0.65257 0.4561 0.30503 0.0
C1845 C 0.67317 0.48209 0.25501 0.0
O1846 O 0.71649 0.39552 0.32658 0.0
O1847 O 0.60411 0.45689 0.30223 0.0
C1848 C 0.58967 0.43171 0.29737 0.0
O1849 O 0.60335 0.40621 0.30319 0.0
O1850 O 0.70501 0.46353 0.34958 0.0
O1851 O 0.65907 0.4845 0.34393 0.0
O1852 O 0.69563 0.40409 0.40651 0.0
C1853 C 0.69251 0.39909 0.30959 0.0
C1854 C 0.77849 0.42171 0.38756 0.0
O1855 O 0.64877 0.46618 0.25682 0.0
O1856 O 0.68659 0.48214 0.28101 0.0
C1857 C 0.67068 0.41684 0.41561 0.0
O1858 O 0.65604 0.43465 0.39727 0.0
O1859 O 0.75975 0.44409 0.38961 0.0
O1860 O 0.14942 1.01543 0.98987 0.0
Tb1861 Tb 0.17091 0.97139 0.99513 0.0
C1862 C 0.23068 0.9333 1.00325 0.0
O1863 O 0.16323 0.91938 1.04271 0.0
Tb1864 Tb 0.20607 0.90256 0.0587 0.0
C1865 C 0.23209 0.92316 0.10871 0.0
O1866 O 0.14549 0.96649 1.03716 0.0
O1867 O 0.20687 0.8541 0.0615 0.0
C1868 C 0.18168 0.83966 0.06636 0.0
O1869 O 0.15619 0.85334 0.06053 0.0
O1870 O 0.2135 0.95501 1.01415 0.0
O1871 O 0.23446 0.90906 1.01979 0.0
O1872 O 0.15406 0.94563 0.95723 0.0
C1873 C 0.14906 0.9425 1.05416 0.0
C1874 C 0.17167 1.02849 0.97618 0.0
O1875 O 0.21617 0.89877 0.1069 0.0
O1876 O 0.23213 0.93658 0.08271 0.0
C1877 C 0.1668 0.92067 0.94814 0.0
O1878 O 0.1846 0.90602 0.96648 0.0
O1879 O 0.19405 1.00975 0.97413 0.0
O1880 O 0.34833 0.89944 0.23986 0.0
Tb1881 Tb 0.39237 0.92093 0.24511 0.0
C1882 C 0.43046 0.9807 0.25325 0.0
O1883 O 0.44437 0.91326 0.29269 0.0
Tb1884 Tb 0.4612 0.95609 0.30871 0.0
C1885 C 0.4406 0.98211 0.35871 0.0
O1886 O 0.39728 0.8955 0.28714 0.0
O1887 O 0.50965 0.95688 0.31151 0.0
C1888 C 0.52409 0.9317 0.31637 0.0
O1889 O 0.51042 0.90621 0.31054 0.0
O1890 O 0.40876 0.96351 0.26415 0.0
O1891 O 0.4547 0.98448 0.26979 0.0
O1892 O 0.41813 0.90408 0.20721 0.0
C1893 C 0.42125 0.89908 0.30414 0.0
C1894 C 0.33527 0.9217 0.22618 0.0
O1895 O 0.46498 0.96618 0.35691 0.0
O1896 O 0.42719 0.98215 0.33271 0.0
C1897 C 0.44308 0.91682 0.19812 0.0
O1898 O 0.45773 0.93462 0.21646 0.0
O1899 O 0.35401 0.94408 0.22413 0.0
O1900 O 0.2654 0.21434 0.73987 0.0
Tb1901 Tb 0.22135 0.19285 0.74511 0.0
C1902 C 0.18326 0.13308 0.75326 0.0
O1903 O 0.16936 0.20052 0.79269 0.0
Tb1904 Tb 0.15253 0.15768 0.80871 0.0
C1905 C 0.17313 0.13167 0.85872 0.0
O1906 O 0.21645 0.21828 0.78714 0.0
O1907 O 0.10407 0.15689 0.81151 0.0
C1908 C 0.08963 0.18208 0.81637 0.0
O1909 O 0.10331 0.20757 0.81055 0.0
O1910 O 0.20496 0.15027 0.76416 0.0
O1911 O 0.15903 0.12929 0.7698 0.0
O1912 O 0.1956 0.2097 0.70722 0.0
C1913 C 0.19247 0.2147 0.80415 0.0
C1914 C 0.27846 0.19208 0.72618 0.0
O1915 O 0.14875 0.1476 0.85692 0.0
O1916 O 0.18654 0.13162 0.83272 0.0
C1917 C 0.17064 0.19696 0.69812 0.0
O1918 O 0.15599 0.17916 0.71647 0.0
O1919 O 0.25971 0.1697 0.72413 0.0
loop_
_geom_bond_atom_site_label_1
_geom_bond_atom_site_label_2
_geom_bond_distance
_geom_bond_site_symmetry_2
_ccdc_geom_bond_type
O0 Tb1 2.506 . S
O0 C14 1.265 . S
Tb1 O0 2.506 . S
Tb1 O6 2.312 1_655 S
Tb1 O10 2.271 . S
Tb1 O12 2.338 . S
Tb1 O19 2.441 . S
C2 O10 1.252 . S
C2 O11 1.253 1_655 S
O3 Tb4 2.271 . S
O3 C13 1.252 . S
Tb4 O3 2.271 . S
Tb4 O7 2.338 . S
Tb4 O11 2.312 . S
Tb4 O15 2.441 . S
Tb4 O16 2.506 . S
C5 O15 1.244 . S
C5 O16 1.265 . S
O6 Tb1 2.312 1_455 S
O6 C13 1.253 . S
O7 Tb4 2.338 . S
O7 C8 1.258 . S
C8 O7 1.258 . S
C8 O9 1.251 . S
O9 C8 1.251 . S
O10 Tb1 2.271 . S
O10 C2 1.252 . S
O11 C2 1.253 1_455 S
O11 Tb4 2.312 . S
O12 Tb1 2.338 . S
O12 C17 1.258 . S
C13 O3 1.252 . S
C13 O6 1.253 . S
C14 O0 1.265 . S
C14 O19 1.244 . S
O15 Tb4 2.441 . S
O15 C5 1.244 . S
O16 Tb4 2.506 . S
O16 C5 1.265 . S
C17 O12 1.258 . S
C17 O18 1.251 . S
O18 C17 1.251 . S
O19 Tb1 2.441 . S
O19 C14 1.244 . S
O20 Tb21 2.506 . S
O20 C34 1.265 . S
Tb21 O20 2.506 . S
Tb21 O26 2.312 . S
Tb21 O30 2.271 . S
Tb21 O32 2.338 . S
Tb21 O39 2.441 . S
C22 O30 1.252 . S
C22 O31 1.253 . S
O23 Tb24 2.271 . S
O23 C33 1.252 . S
Tb24 O23 2.271 . S
Tb24 O27 2.338 . S
Tb24 O31 2.312 . S
Tb24 O35 2.441 . S
Tb24 O36 2.506 . S
C25 O35 1.244 . S
C25 O36 1.265 . S
O26 Tb21 2.312 . S
O26 C33 1.253 . S
O27 Tb24 2.338 . S
O27 C28 1.258 . S
C28 O27 1.258 . S
C28 O29 1.251 . S
O29 C28 1.251 . S
O30 Tb21 2.271 . S
O30 C22 1.252 . S
O31 C22 1.253 . S
O31 Tb24 2.312 . S
O32 Tb21 2.338 . S
O32 C37 1.258 . S
C33 O23 1.252 . S
C33 O26 1.253 . S
C34 O20 1.265 . S
C34 O39 1.244 . S
O35 Tb24 2.441 . S
O35 C25 1.244 . S
O36 Tb24 2.506 . S
O36 C25 1.265 . S
C37 O32 1.258 . S
C37 O38 1.251 . S
O38 C37 1.251 . S
O39 Tb21 2.441 . S
O39 C34 1.244 . S
O40 Tb41 2.506 . S
O40 C54 1.265 . S
Tb41 O40 2.506 . S
Tb41 O46 2.312 . S
Tb41 O50 2.271 . S
Tb41 O52 2.338 . S
Tb41 O59 2.441 . S
C42 O50 1.252 . S
C42 O51 1.253 . S
O43 Tb44 2.271 . S
O43 C53 1.252 . S
Tb44 O43 2.271 . S
Tb44 O47 2.338 . S
Tb44 O51 2.312 . S
Tb44 O55 2.441 . S
Tb44 O56 2.506 . S
C45 O55 1.244 . S
C45 O56 1.265 . S
O46 Tb41 2.312 . S
O46 C53 1.253 . S
O47 Tb44 2.338 . S
O47 C48 1.258 . S
C48 O47 1.258 . S
C48 O49 1.251 . S
O49 C48 1.251 . S
O50 Tb41 2.271 . S
O50 C42 1.252 . S
O51 C42 1.253 . S
O51 Tb44 2.312 . S
O52 Tb41 2.338 . S
O52 C57 1.258 . S
C53 O43 1.252 . S
C53 O46 1.253 . S
C54 O40 1.265 . S
C54 O59 1.244 . S
O55 Tb44 2.441 . S
O55 C45 1.244 . S
O56 Tb44 2.506 . S
O56 C45 1.265 . S
C57 O52 1.258 . S
C57 O58 1.251 . S
O58 C57 1.251 . S
O59 Tb41 2.441 . S
O59 C54 1.244 . S
O60 Tb61 2.506 . S
O60 C74 1.265 . S
Tb61 O60 2.506 . S
Tb61 O66 2.312 . S
Tb61 O70 2.271 . S
Tb61 O72 2.338 . S
Tb61 O79 2.441 . S
C62 O70 1.252 . S
C62 O71 1.253 . S
O63 Tb64 2.271 . S
O63 C73 1.252 . S
Tb64 O63 2.271 . S
Tb64 O67 2.338 . S
Tb64 O71 2.312 . S
Tb64 O75 2.441 . S
Tb64 O76 2.506 . S
C65 O75 1.244 . S
C65 O76 1.265 . S
O66 Tb61 2.312 . S
O66 C73 1.253 . S
O67 Tb64 2.338 . S
O67 C68 1.258 . S
C68 O67 1.258 . S
C68 O69 1.251 . S
O69 C68 1.251 . S
O70 Tb61 2.271 . S
O70 C62 1.252 . S
O71 C62 1.253 . S
O71 Tb64 2.312 . S
O72 Tb61 2.338 . S
O72 C77 1.258 . S
C73 O63 1.252 . S
C73 O66 1.253 . S
C74 O60 1.265 . S
C74 O79 1.244 . S
O75 Tb64 2.441 . S
O75 C65 1.244 . S
O76 Tb64 2.506 . S
O76 C65 1.265 . S
C77 O72 1.258 . S
C77 O78 1.251 . S
O78 C77 1.251 . S
O79 Tb61 2.441 . S
O79 C74 1.244 . S
O80 Tb81 2.506 . S
O80 C94 1.265 . S
Tb81 O80 2.506 . S
Tb81 O86 2.312 . S
Tb81 O90 2.271 . S
Tb81 O92 2.338 . S
Tb81 O99 2.441 . S
C82 O90 1.252 . S
C82 O91 1.253 . S
O83 Tb84 2.271 . S
O83 C93 1.252 . S
Tb84 O83 2.271 . S
Tb84 O87 2.338 . S
Tb84 O91 2.312 1_655 S
Tb84 O95 2.441 . S
Tb84 O96 2.506 . S
C85 O95 1.244 . S
C85 O96 1.265 . S
O86 Tb81 2.312 . S
O86 C93 1.253 1_455 S
O87 Tb84 2.338 . S
O87 C88 1.258 . S
C88 O87 1.258 . S
C88 O89 1.251 . S
O89 C88 1.251 . S
O90 Tb81 2.271 . S
O90 C82 1.252 . S
O91 C82 1.253 . S
O91 Tb84 2.312 1_455 S
O92 Tb81 2.338 . S
O92 C97 1.258 . S
C93 O83 1.252 . S
C93 O86 1.253 1_655 S
C94 O80 1.265 . S
C94 O99 1.244 . S
O95 Tb84 2.441 . S
O95 C85 1.244 . S
O96 Tb84 2.506 . S
O96 C85 1.265 . S
C97 O92 1.258 . S
C97 O98 1.251 . S
O98 C97 1.251 . S
O99 Tb81 2.441 . S
O99 C94 1.244 . S
O100 Tb101 2.506 . S
O100 C114 1.265 . S
Tb101 O100 2.506 . S
Tb101 O106 2.312 . S
Tb101 O110 2.271 . S
Tb101 O112 2.338 . S
Tb101 O119 2.441 . S
C102 O110 1.252 . S
C102 O111 1.253 . S
O103 Tb104 2.271 . S
O103 C113 1.252 . S
Tb104 O103 2.271 . S
Tb104 O107 2.338 . S
Tb104 O111 2.312 . S
Tb104 O115 2.441 . S
Tb104 O116 2.506 . S
C105 O115 1.244 . S
C105 O116 1.265 . S
O106 Tb101 2.312 . S
O106 C113 1.253 . S
O107 Tb104 2.338 . S
O107 C108 1.258 . S
C108 O107 1.258 . S
C108 O109 1.251 . S
O109 C108 1.251 . S
O110 Tb101 2.271 . S
O110 C102 1.252 . S
O111 C102 1.253 . S
O111 Tb104 2.312 . S
O112 Tb101 2.338 . S
O112 C117 1.258 . S
C113 O103 1.252 . S
C113 O106 1.253 . S
C114 O100 1.265 . S
C114 O119 1.244 . S
O115 Tb104 2.441 . S
O115 C105 1.244 . S
O116 Tb104 2.506 . S
O116 C105 1.265 . S
C117 O112 1.258 . S
C117 O118 1.251 . S
O118 C117 1.251 . S
O119 Tb101 2.441 . S
O119 C114 1.244 . S
O120 Tb121 2.506 . S
O120 C134 1.265 . S
Tb121 O120 2.506 . S
Tb121 O126 2.312 . S
Tb121 O130 2.271 . S
Tb121 O132 2.338 . S
Tb121 O139 2.441 . S
C122 O130 1.252 . S
C122 O131 1.253 . S
O123 Tb124 2.271 . S
O123 C133 1.252 . S
Tb124 O123 2.271 . S
Tb124 O127 2.338 . S
Tb124 O131 2.312 . S
Tb124 O135 2.441 . S
Tb124 O136 2.506 . S
C125 O135 1.244 . S
C125 O136 1.265 . S
O126 Tb121 2.312 . S
O126 C133 1.253 . S
O127 Tb124 2.338 . S
O127 C128 1.258 . S
C128 O127 1.258 . S
C128 O129 1.251 . S
O129 C128 1.251 . S
O130 Tb121 2.271 . S
O130 C122 1.252 . S
O131 C122 1.253 . S
O131 Tb124 2.312 . S
O132 Tb121 2.338 . S
O132 C137 1.258 . S
C133 O123 1.252 . S
C133 O126 1.253 . S
C134 O120 1.265 . S
C134 O139 1.244 . S
O135 Tb124 2.441 . S
O135 C125 1.244 . S
O136 Tb124 2.506 . S
O136 C125 1.265 . S
C137 O132 1.258 . S
C137 O138 1.251 . S
O138 C137 1.251 . S
O139 Tb121 2.441 . S
O139 C134 1.244 . S
O140 Tb141 2.506 . S
O140 C154 1.265 . S
Tb141 O140 2.506 . S
Tb141 O146 2.312 . S
Tb141 O150 2.271 . S
Tb141 O152 2.338 . S
Tb141 O159 2.441 . S
C142 O150 1.252 . S
C142 O151 1.253 . S
O143 Tb144 2.271 . S
O143 C153 1.252 . S
Tb144 O143 2.271 . S
Tb144 O147 2.338 . S
Tb144 O151 2.312 . S
Tb144 O155 2.441 . S
Tb144 O156 2.506 . S
C145 O155 1.244 . S
C145 O156 1.265 . S
O146 Tb141 2.312 . S
O146 C153 1.253 . S
O147 Tb144 2.338 . S
O147 C148 1.258 . S
C148 O147 1.258 . S
C148 O149 1.251 . S
O149 C148 1.251 . S
O150 Tb141 2.271 . S
O150 C142 1.252 . S
O151 C142 1.253 . S
O151 Tb144 2.312 . S
O152 Tb141 2.338 . S
O152 C157 1.258 . S
C153 O143 1.252 . S
C153 O146 1.253 . S
C154 O140 1.265 . S
C154 O159 1.244 . S
O155 Tb144 2.441 . S
O155 C145 1.244 . S
O156 Tb144 2.506 . S
O156 C145 1.265 . S
C157 O152 1.258 . S
C157 O158 1.251 . S
O158 C157 1.251 . S
O159 Tb141 2.441 . S
O159 C154 1.244 . S
O160 Tb161 2.506 . S
O160 C174 1.265 . S
Tb161 O160 2.506 . S
Tb161 O166 2.312 . S
Tb161 O170 2.271 . S
Tb161 O172 2.338 . S
Tb161 O179 2.441 . S
C162 O170 1.252 . S
C162 O171 1.253 . S
O163 Tb164 2.271 . S
O163 C173 1.252 . S
Tb164 O163 2.271 . S
Tb164 O167 2.338 . S
Tb164 O171 2.312 1_565 S
Tb164 O175 2.441 . S
Tb164 O176 2.506 . S
C165 O175 1.244 . S
C165 O176 1.265 . S
O166 Tb161 2.312 . S
O166 C173 1.253 1_545 S
O167 Tb164 2.338 . S
O167 C168 1.258 . S
C168 O167 1.258 . S
C168 O169 1.251 . S
O169 C168 1.251 . S
O170 Tb161 2.271 . S
O170 C162 1.252 . S
O171 C162 1.253 . S
O171 Tb164 2.312 1_545 S
O172 Tb161 2.338 . S
O172 C177 1.258 . S
C173 O163 1.252 . S
C173 O166 1.253 1_565 S
C174 O160 1.265 . S
C174 O179 1.244 . S
O175 Tb164 2.441 . S
O175 C165 1.244 . S
O176 Tb164 2.506 . S
O176 C165 1.265 . S
C177 O172 1.258 . S
C177 O178 1.251 . S
O178 C177 1.251 . S
O179 Tb161 2.441 . S
O179 C174 1.244 . S
O180 Tb181 2.506 . S
O180 C194 1.265 . S
Tb181 O180 2.506 . S
Tb181 O186 2.312 . S
Tb181 O190 2.271 . S
Tb181 O192 2.338 . S
Tb181 O199 2.441 . S
C182 O190 1.252 . S
C182 O191 1.253 . S
O183 Tb184 2.271 . S
O183 C193 1.252 . S
Tb184 O183 2.271 . S
Tb184 O187 2.338 . S
Tb184 O191 2.312 . S
Tb184 O195 2.441 . S
Tb184 O196 2.506 . S
C185 O195 1.244 . S
C185 O196 1.265 . S
O186 Tb181 2.312 . S
O186 C193 1.253 . S
O187 Tb184 2.338 . S
O187 C188 1.258 . S
C188 O187 1.258 . S
C188 O189 1.251 . S
O189 C188 1.251 . S
O190 Tb181 2.271 . S
O190 C182 1.252 . S
O191 C182 1.253 . S
O191 Tb184 2.312 . S
O192 Tb181 2.338 . S
O192 C197 1.258 . S
C193 O183 1.252 . S
C193 O186 1.253 . S
C194 O180 1.265 . S
C194 O199 1.244 . S
O195 Tb184 2.441 . S
O195 C185 1.244 . S
O196 Tb184 2.506 . S
O196 C185 1.265 . S
C197 O192 1.258 . S
C197 O198 1.251 . S
O198 C197 1.251 . S
O199 Tb181 2.441 . S
O199 C194 1.244 . S
O200 Tb201 2.506 . S
O200 C214 1.265 . S
Tb201 O200 2.506 . S
Tb201 O206 2.312 1_545 S
Tb201 O210 2.271 . S
Tb201 O212 2.338 . S
Tb201 O219 2.441 . S
C202 O210 1.252 . S
C202 O211 1.253 1_545 S
O203 Tb204 2.271 . S
O203 C213 1.252 . S
Tb204 O203 2.271 . S
Tb204 O207 2.338 . S
Tb204 O211 2.312 . S
Tb204 O215 2.441 . S
Tb204 O216 2.506 . S
C205 O215 1.244 . S
C205 O216 1.265 . S
O206 Tb201 2.312 1_565 S
O206 C213 1.253 . S
O207 Tb204 2.338 . S
O207 C208 1.258 . S
C208 O207 1.258 . S
C208 O209 1.251 . S
O209 C208 1.251 . S
O210 Tb201 2.271 . S
O210 C202 1.252 . S
O211 C202 1.253 1_565 S
O211 Tb204 2.312 . S
O212 Tb201 2.338 . S
O212 C217 1.258 . S
C213 O203 1.252 . S
C213 O206 1.253 . S
C214 O200 1.265 . S
C214 O219 1.244 . S
O215 Tb204 2.441 . S
O215 C205 1.244 . S
O216 Tb204 2.506 . S
O216 C205 1.265 . S
C217 O212 1.258 . S
C217 O218 1.251 . S
O218 C217 1.251 . S
O219 Tb201 2.441 . S
O219 C214 1.244 . S
O220 Tb221 2.506 . S
O220 C234 1.265 . S
Tb221 O220 2.506 . S
Tb221 O226 2.312 . S
Tb221 O230 2.271 . S
Tb221 O232 2.338 . S
Tb221 O239 2.441 . S
C222 O230 1.252 . S
C222 O231 1.253 . S
O223 Tb224 2.271 . S
O223 C233 1.252 . S
Tb224 O223 2.271 . S
Tb224 O227 2.338 . S
Tb224 O231 2.312 . S
Tb224 O235 2.441 . S
Tb224 O236 2.506 . S
C225 O235 1.244 . S
C225 O236 1.265 . S
O226 Tb221 2.312 . S
O226 C233 1.253 . S
O227 Tb224 2.338 . S
O227 C228 1.258 . S
C228 O227 1.258 . S
C228 O229 1.251 . S
O229 C228 1.251 . S
O230 Tb221 2.271 . S
O230 C222 1.252 . S
O231 C222 1.253 . S
O231 Tb224 2.312 . S
O232 Tb221 2.338 . S
O232 C237 1.258 . S
C233 O223 1.252 . S
C233 O226 1.253 . S
C234 O220 1.265 . S
C234 O239 1.244 . S
O235 Tb224 2.441 . S
O235 C225 1.244 . S
O236 Tb224 2.506 . S
O236 C225 1.265 . S
C237 O232 1.258 . S
C237 O238 1.251 . S
O238 C237 1.251 . S
O239 Tb221 2.441 . S
O239 C234 1.244 . S
O240 Tb241 2.506 . S
O240 C254 1.265 . S
Tb241 O240 2.506 . S
Tb241 O246 2.312 . S
Tb241 O250 2.271 . S
Tb241 O252 2.338 . S
Tb241 O259 2.441 . S
C242 O250 1.252 . S
C242 O251 1.253 . S
O243 Tb244 2.271 . S
O243 C253 1.252 . S
Tb244 O243 2.271 . S
Tb244 O247 2.338 . S
Tb244 O251 2.312 1_545 S
Tb244 O255 2.441 . S
Tb244 O256 2.506 . S
C245 O255 1.244 . S
C245 O256 1.265 . S
O246 Tb241 2.312 . S
O246 C253 1.253 1_565 S
O247 Tb244 2.338 . S
O247 C248 1.258 . S
C248 O247 1.258 . S
C248 O249 1.251 . S
O249 C248 1.251 . S
O250 Tb241 2.271 . S
O250 C242 1.252 . S
O251 C242 1.253 . S
O251 Tb244 2.312 1_565 S
O252 Tb241 2.338 . S
O252 C257 1.258 . S
C253 O243 1.252 . S
C253 O246 1.253 1_545 S
C254 O240 1.265 . S
C254 O259 1.244 . S
O255 Tb244 2.441 . S
O255 C245 1.244 . S
O256 Tb244 2.506 . S
O256 C245 1.265 . S
C257 O252 1.258 . S
C257 O258 1.251 . S
O258 C257 1.251 . S
O259 Tb241 2.441 . S
O259 C254 1.244 . S
O260 Tb261 2.506 . S
O260 C274 1.265 . S
Tb261 O260 2.506 . S
Tb261 O266 2.312 . S
Tb261 O270 2.271 . S
Tb261 O272 2.338 . S
Tb261 O279 2.441 . S
C262 O270 1.252 . S
C262 O271 1.253 . S
O263 Tb264 2.271 . S
O263 C273 1.252 . S
Tb264 O263 2.271 . S
Tb264 O267 2.338 . S
Tb264 O271 2.312 . S
Tb264 O275 2.441 . S
Tb264 O276 2.506 . S
C265 O275 1.244 . S
C265 O276 1.265 . S
O266 Tb261 2.312 . S
O266 C273 1.253 . S
O267 Tb264 2.338 . S
O267 C268 1.258 . S
C268 O267 1.258 . S
C268 O269 1.251 . S
O269 C268 1.251 . S
O270 Tb261 2.271 . S
O270 C262 1.252 . S
O271 C262 1.253 . S
O271 Tb264 2.312 . S
O272 Tb261 2.338 . S
O272 C277 1.258 . S
C273 O263 1.252 . S
C273 O266 1.253 . S
C274 O260 1.265 . S
C274 O279 1.244 . S
O275 Tb264 2.441 . S
O275 C265 1.244 . S
O276 Tb264 2.506 . S
O276 C265 1.265 . S
C277 O272 1.258 . S
C277 O278 1.251 . S
O278 C277 1.251 . S
O279 Tb261 2.441 . S
O279 C274 1.244 . S
O280 Tb281 2.506 . S
O280 C294 1.265 . S
Tb281 O280 2.506 . S
Tb281 O286 2.312 . S
Tb281 O290 2.271 . S
Tb281 O292 2.338 . S
Tb281 O299 2.441 . S
C282 O290 1.252 . S
C282 O291 1.253 . S
O283 Tb284 2.271 . S
O283 C293 1.252 . S
Tb284 O283 2.271 . S
Tb284 O287 2.338 . S
Tb284 O291 2.312 1_565 S
Tb284 O295 2.441 . S
Tb284 O296 2.506 . S
C285 O295 1.244 . S
C285 O296 1.265 . S
O286 Tb281 2.312 . S
O286 C293 1.253 1_545 S
O287 Tb284 2.338 . S
O287 C288 1.258 . S
C288 O287 1.258 . S
C288 O289 1.251 . S
O289 C288 1.251 . S
O290 Tb281 2.271 . S
O290 C282 1.252 . S
O291 C282 1.253 . S
O291 Tb284 2.312 1_545 S
O292 Tb281 2.338 . S
O292 C297 1.258 . S
C293 O283 1.252 . S
C293 O286 1.253 1_565 S
C294 O280 1.265 . S
C294 O299 1.244 . S
O295 Tb284 2.441 . S
O295 C285 1.244 . S
O296 Tb284 2.506 . S
O296 C285 1.265 . S
C297 O292 1.258 . S
C297 O298 1.251 . S
O298 C297 1.251 . S
O299 Tb281 2.441 . S
O299 C294 1.244 . S
O300 Tb301 2.506 . S
O300 C314 1.265 . S
Tb301 O300 2.506 . S
Tb301 O306 2.312 . S
Tb301 O310 2.271 . S
Tb301 O312 2.338 . S
Tb301 O319 2.441 . S
C302 O310 1.252 . S
C302 O311 1.253 . S
O303 Tb304 2.271 . S
O303 C313 1.252 . S
Tb304 O303 2.271 . S
Tb304 O307 2.338 . S
Tb304 O311 2.312 . S
Tb304 O315 2.441 . S
Tb304 O316 2.506 . S
C305 O315 1.244 . S
C305 O316 1.265 . S
O306 Tb301 2.312 . S
O306 C313 1.253 . S
O307 Tb304 2.338 . S
O307 C308 1.258 . S
C308 O307 1.258 . S
C308 O309 1.251 . S
O309 C308 1.251 . S
O310 Tb301 2.271 . S
O310 C302 1.252 . S
O311 C302 1.253 . S
O311 Tb304 2.312 . S
O312 Tb301 2.338 . S
O312 C317 1.258 . S
C313 O303 1.252 . S
C313 O306 1.253 . S
C314 O300 1.265 . S
C314 O319 1.244 . S
O315 Tb304 2.441 . S
O315 C305 1.244 . S
O316 Tb304 2.506 . S
O316 C305 1.265 . S
C317 O312 1.258 . S
C317 O318 1.251 . S
O318 C317 1.251 . S
O319 Tb301 2.441 . S
O319 C314 1.244 . S
O320 Tb321 2.506 . S
O320 C334 1.265 . S
Tb321 O320 2.506 . S
Tb321 O326 2.312 . S
Tb321 O330 2.271 . S
Tb321 O332 2.338 . S
Tb321 O339 2.441 . S
C322 O330 1.252 . S
C322 O331 1.253 . S
O323 Tb324 2.271 . S
O323 C333 1.252 . S
Tb324 O323 2.271 . S
Tb324 O327 2.338 . S
Tb324 O331 2.312 1_556 S
Tb324 O335 2.441 . S
Tb324 O336 2.506 . S
C325 O335 1.244 . S
C325 O336 1.265 . S
O326 Tb321 2.312 . S
O326 C333 1.253 1_554 S
O327 Tb324 2.338 . S
O327 C328 1.258 . S
C328 O327 1.258 . S
C328 O329 1.251 . S
O329 C328 1.251 . S
O330 Tb321 2.271 . S
O330 C322 1.252 . S
O331 C322 1.253 . S
O331 Tb324 2.312 1_554 S
O332 Tb321 2.338 . S
O332 C337 1.258 . S
C333 O323 1.252 . S
C333 O326 1.253 1_556 S
C334 O320 1.265 . S
C334 O339 1.244 . S
O335 Tb324 2.441 . S
O335 C325 1.244 . S
O336 Tb324 2.506 . S
O336 C325 1.265 . S
C337 O332 1.258 . S
C337 O338 1.251 . S
O338 C337 1.251 . S
O339 Tb321 2.441 . S
O339 C334 1.244 . S
O340 Tb341 2.506 . S
O340 C354 1.265 . S
Tb341 O340 2.506 . S
Tb341 O346 2.312 . S
Tb341 O350 2.271 . S
Tb341 O352 2.338 . S
Tb341 O359 2.441 . S
C342 O350 1.252 . S
C342 O351 1.253 . S
O343 Tb344 2.271 . S
O343 C353 1.252 . S
Tb344 O343 2.271 . S
Tb344 O347 2.338 . S
Tb344 O351 2.312 1_554 S
Tb344 O355 2.441 . S
Tb344 O356 2.506 . S
C345 O355 1.244 . S
C345 O356 1.265 . S
O346 Tb341 2.312 . S
O346 C353 1.253 1_556 S
O347 Tb344 2.338 . S
O347 C348 1.258 . S
C348 O347 1.258 . S
C348 O349 1.251 . S
O349 C348 1.251 . S
O350 Tb341 2.271 . S
O350 C342 1.252 . S
O351 C342 1.253 . S
O351 Tb344 2.312 1_556 S
O352 Tb341 2.338 . S
O352 C357 1.258 . S
C353 O343 1.252 . S
C353 O346 1.253 1_554 S
C354 O340 1.265 . S
C354 O359 1.244 . S
O355 Tb344 2.441 . S
O355 C345 1.244 . S
O356 Tb344 2.506 . S
O356 C345 1.265 . S
C357 O352 1.258 . S
C357 O358 1.251 . S
O358 C357 1.251 . S
O359 Tb341 2.441 . S
O359 C354 1.244 . S
O360 Tb361 2.506 . S
O360 C374 1.265 . S
Tb361 O360 2.506 . S
Tb361 O366 2.312 . S
Tb361 O370 2.271 . S
Tb361 O372 2.338 . S
Tb361 O379 2.441 . S
C362 O370 1.252 . S
C362 O371 1.253 . S
O363 Tb364 2.271 . S
O363 C373 1.252 . S
Tb364 O363 2.271 . S
Tb364 O367 2.338 . S
Tb364 O371 2.312 . S
Tb364 O375 2.441 . S
Tb364 O376 2.506 . S
C365 O375 1.244 . S
C365 O376 1.265 . S
O366 Tb361 2.312 . S
O366 C373 1.253 . S
O367 Tb364 2.338 . S
O367 C368 1.258 . S
C368 O367 1.258 . S
C368 O369 1.251 . S
O369 C368 1.251 . S
O370 Tb361 2.271 . S
O370 C362 1.252 . S
O371 C362 1.253 . S
O371 Tb364 2.312 . S
O372 Tb361 2.338 . S
O372 C377 1.258 . S
C373 O363 1.252 . S
C373 O366 1.253 . S
C374 O360 1.265 . S
C374 O379 1.244 . S
O375 Tb364 2.441 . S
O375 C365 1.244 . S
O376 Tb364 2.506 . S
O376 C365 1.265 . S
C377 O372 1.258 . S
C377 O378 1.251 . S
O378 C377 1.251 . S
O379 Tb361 2.441 . S
O379 C374 1.244 . S
O380 Tb381 2.506 . S
O380 C394 1.265 . S
Tb381 O380 2.506 . S
Tb381 O386 2.312 . S
Tb381 O390 2.271 . S
Tb381 O392 2.338 . S
Tb381 O399 2.441 . S
C382 O390 1.252 . S
C382 O391 1.253 . S
O383 Tb384 2.271 . S
O383 C393 1.252 . S
Tb384 O383 2.271 . S
Tb384 O387 2.338 . S
Tb384 O391 2.312 . S
Tb384 O395 2.441 . S
Tb384 O396 2.506 . S
C385 O395 1.244 . S
C385 O396 1.265 . S
O386 Tb381 2.312 . S
O386 C393 1.253 . S
O387 Tb384 2.338 . S
O387 C388 1.258 . S
C388 O387 1.258 . S
C388 O389 1.251 . S
O389 C388 1.251 . S
O390 Tb381 2.271 . S
O390 C382 1.252 . S
O391 C382 1.253 . S
O391 Tb384 2.312 . S
O392 Tb381 2.338 . S
O392 C397 1.258 . S
C393 O383 1.252 . S
C393 O386 1.253 . S
C394 O380 1.265 . S
C394 O399 1.244 . S
O395 Tb384 2.441 . S
O395 C385 1.244 . S
O396 Tb384 2.506 . S
O396 C385 1.265 . S
C397 O392 1.258 . S
C397 O398 1.251 . S
O398 C397 1.251 . S
O399 Tb381 2.441 . S
O399 C394 1.244 . S
O400 Tb401 2.506 . S
O400 C414 1.265 . S
Tb401 O400 2.506 . S
Tb401 O406 2.312 . S
Tb401 O410 2.271 . S
Tb401 O412 2.338 . S
Tb401 O419 2.441 . S
C402 O410 1.252 . S
C402 O411 1.253 . S
O403 Tb404 2.271 . S
O403 C413 1.252 . S
Tb404 O403 2.271 . S
Tb404 O407 2.338 . S
Tb404 O411 2.312 . S
Tb404 O415 2.441 . S
Tb404 O416 2.506 . S
C405 O415 1.244 . S
C405 O416 1.265 . S
O406 Tb401 2.312 . S
O406 C413 1.253 . S
O407 Tb404 2.338 . S
O407 C408 1.258 . S
C408 O407 1.258 . S
C408 O409 1.251 . S
O409 C408 1.251 . S
O410 Tb401 2.271 . S
O410 C402 1.252 . S
O411 C402 1.253 . S
O411 Tb404 2.312 . S
O412 Tb401 2.338 . S
O412 C417 1.258 . S
C413 O403 1.252 . S
C413 O406 1.253 . S
C414 O400 1.265 . S
C414 O419 1.244 . S
O415 Tb404 2.441 . S
O415 C405 1.244 . S
O416 Tb404 2.506 . S
O416 C405 1.265 . S
C417 O412 1.258 . S
C417 O418 1.251 . S
O418 C417 1.251 . S
O419 Tb401 2.441 . S
O419 C414 1.244 . S
O420 Tb421 2.506 . S
O420 C434 1.265 . S
Tb421 O420 2.506 . S
Tb421 O426 2.312 . S
Tb421 O430 2.271 . S
Tb421 O432 2.338 . S
Tb421 O439 2.441 . S
C422 O430 1.252 . S
C422 O431 1.253 . S
O423 Tb424 2.271 . S
O423 C433 1.252 . S
Tb424 O423 2.271 . S
Tb424 O427 2.338 . S
Tb424 O431 2.312 . S
Tb424 O435 2.441 . S
Tb424 O436 2.506 . S
C425 O435 1.244 . S
C425 O436 1.265 . S
O426 Tb421 2.312 . S
O426 C433 1.253 . S
O427 Tb424 2.338 . S
O427 C428 1.258 . S
C428 O427 1.258 . S
C428 O429 1.251 . S
O429 C428 1.251 . S
O430 Tb421 2.271 . S
O430 C422 1.252 . S
O431 C422 1.253 . S
O431 Tb424 2.312 . S
O432 Tb421 2.338 . S
O432 C437 1.258 . S
C433 O423 1.252 . S
C433 O426 1.253 . S
C434 O420 1.265 . S
C434 O439 1.244 . S
O435 Tb424 2.441 . S
O435 C425 1.244 . S
O436 Tb424 2.506 . S
O436 C425 1.265 . S
C437 O432 1.258 . S
C437 O438 1.251 . S
O438 C437 1.251 . S
O439 Tb421 2.441 . S
O439 C434 1.244 . S
O440 Tb441 2.506 . S
O440 C454 1.265 . S
Tb441 O440 2.506 . S
Tb441 O446 2.312 . S
Tb441 O450 2.271 . S
Tb441 O452 2.338 . S
Tb441 O459 2.441 . S
C442 O450 1.252 . S
C442 O451 1.253 . S
O443 Tb444 2.271 . S
O443 C453 1.252 . S
Tb444 O443 2.271 . S
Tb444 O447 2.338 . S
Tb444 O451 2.312 . S
Tb444 O455 2.441 . S
Tb444 O456 2.506 . S
C445 O455 1.244 . S
C445 O456 1.265 . S
O446 Tb441 2.312 . S
O446 C453 1.253 . S
O447 Tb444 2.338 . S
O447 C448 1.258 . S
C448 O447 1.258 . S
C448 O449 1.251 . S
O449 C448 1.251 . S
O450 Tb441 2.271 . S
O450 C442 1.252 . S
O451 C442 1.253 . S
O451 Tb444 2.312 . S
O452 Tb441 2.338 . S
O452 C457 1.258 . S
C453 O443 1.252 . S
C453 O446 1.253 . S
C454 O440 1.265 . S
C454 O459 1.244 . S
O455 Tb444 2.441 . S
O455 C445 1.244 . S
O456 Tb444 2.506 . S
O456 C445 1.265 . S
C457 O452 1.258 . S
C457 O458 1.251 . S
O458 C457 1.251 . S
O459 Tb441 2.441 . S
O459 C454 1.244 . S
O460 Tb461 2.506 . S
O460 C474 1.265 . S
Tb461 O460 2.506 . S
Tb461 O466 2.312 . S
Tb461 O470 2.271 . S
Tb461 O472 2.338 . S
Tb461 O479 2.441 . S
C462 O470 1.252 . S
C462 O471 1.253 . S
O463 Tb464 2.271 . S
O463 C473 1.252 . S
Tb464 O463 2.271 . S
Tb464 O467 2.338 . S
Tb464 O471 2.312 . S
Tb464 O475 2.441 . S
Tb464 O476 2.506 . S
C465 O475 1.244 . S
C465 O476 1.265 . S
O466 Tb461 2.312 . S
O466 C473 1.253 . S
O467 Tb464 2.338 . S
O467 C468 1.258 . S
C468 O467 1.258 . S
C468 O469 1.251 . S
O469 C468 1.251 . S
O470 Tb461 2.271 . S
O470 C462 1.252 . S
O471 C462 1.253 . S
O471 Tb464 2.312 . S
O472 Tb461 2.338 . S
O472 C477 1.258 . S
C473 O463 1.252 . S
C473 O466 1.253 . S
C474 O460 1.265 . S
C474 O479 1.244 . S
O475 Tb464 2.441 . S
O475 C465 1.244 . S
O476 Tb464 2.506 . S
O476 C465 1.265 . S
C477 O472 1.258 . S
C477 O478 1.251 . S
O478 C477 1.251 . S
O479 Tb461 2.441 . S
O479 C474 1.244 . S
O480 Tb481 2.506 . S
O480 C494 1.265 . S
Tb481 O480 2.506 . S
Tb481 O486 2.312 . S
Tb481 O490 2.271 . S
Tb481 O492 2.338 . S
Tb481 O499 2.441 . S
C482 O490 1.252 . S
C482 O491 1.253 . S
O483 Tb484 2.271 . S
O483 C493 1.252 . S
Tb484 O483 2.271 . S
Tb484 O487 2.338 . S
Tb484 O491 2.312 1_455 S
Tb484 O495 2.441 . S
Tb484 O496 2.506 . S
C485 O495 1.244 . S
C485 O496 1.265 . S
O486 Tb481 2.312 . S
O486 C493 1.253 1_655 S
O487 Tb484 2.338 . S
O487 C488 1.258 . S
C488 O487 1.258 . S
C488 O489 1.251 . S
O489 C488 1.251 . S
O490 Tb481 2.271 . S
O490 C482 1.252 . S
O491 C482 1.253 . S
O491 Tb484 2.312 1_655 S
O492 Tb481 2.338 . S
O492 C497 1.258 . S
C493 O483 1.252 . S
C493 O486 1.253 1_455 S
C494 O480 1.265 . S
C494 O499 1.244 . S
O495 Tb484 2.441 . S
O495 C485 1.244 . S
O496 Tb484 2.506 . S
O496 C485 1.265 . S
C497 O492 1.258 . S
C497 O498 1.251 . S
O498 C497 1.251 . S
O499 Tb481 2.441 . S
O499 C494 1.244 . S
O500 Tb501 2.506 . S
O500 C514 1.265 . S
Tb501 O500 2.506 . S
Tb501 O506 2.312 . S
Tb501 O510 2.271 . S
Tb501 O512 2.338 . S
Tb501 O519 2.441 . S
C502 O510 1.252 . S
C502 O511 1.253 . S
O503 Tb504 2.271 . S
O503 C513 1.252 . S
Tb504 O503 2.271 . S
Tb504 O507 2.338 . S
Tb504 O511 2.312 . S
Tb504 O515 2.441 . S
Tb504 O516 2.506 . S
C505 O515 1.244 . S
C505 O516 1.265 . S
O506 Tb501 2.312 . S
O506 C513 1.253 . S
O507 Tb504 2.338 . S
O507 C508 1.258 . S
C508 O507 1.258 . S
C508 O509 1.251 . S
O509 C508 1.251 . S
O510 Tb501 2.271 . S
O510 C502 1.252 . S
O511 C502 1.253 . S
O511 Tb504 2.312 . S
O512 Tb501 2.338 . S
O512 C517 1.258 . S
C513 O503 1.252 . S
C513 O506 1.253 . S
C514 O500 1.265 . S
C514 O519 1.244 . S
O515 Tb504 2.441 . S
O515 C505 1.244 . S
O516 Tb504 2.506 . S
O516 C505 1.265 . S
C517 O512 1.258 . S
C517 O518 1.251 . S
O518 C517 1.251 . S
O519 Tb501 2.441 . S
O519 C514 1.244 . S
O520 Tb521 2.506 . S
O520 C534 1.265 . S
Tb521 O520 2.506 . S
Tb521 O526 2.312 . S
Tb521 O530 2.271 . S
Tb521 O532 2.338 . S
Tb521 O539 2.441 . S
C522 O530 1.252 . S
C522 O531 1.253 . S
O523 Tb524 2.271 . S
O523 C533 1.252 . S
Tb524 O523 2.271 . S
Tb524 O527 2.338 . S
Tb524 O531 2.312 . S
Tb524 O535 2.441 . S
Tb524 O536 2.506 . S
C525 O535 1.244 . S
C525 O536 1.265 . S
O526 Tb521 2.312 . S
O526 C533 1.253 . S
O527 Tb524 2.338 . S
O527 C528 1.258 . S
C528 O527 1.258 . S
C528 O529 1.251 . S
O529 C528 1.251 . S
O530 Tb521 2.271 . S
O530 C522 1.252 . S
O531 C522 1.253 . S
O531 Tb524 2.312 . S
O532 Tb521 2.338 . S
O532 C537 1.258 . S
C533 O523 1.252 . S
C533 O526 1.253 . S
C534 O520 1.265 . S
C534 O539 1.244 . S
O535 Tb524 2.441 . S
O535 C525 1.244 . S
O536 Tb524 2.506 . S
O536 C525 1.265 . S
C537 O532 1.258 . S
C537 O538 1.251 . S
O538 C537 1.251 . S
O539 Tb521 2.441 . S
O539 C534 1.244 . S
O540 Tb541 2.506 . S
O540 C554 1.265 . S
Tb541 O540 2.506 . S
Tb541 O546 2.312 . S
Tb541 O550 2.271 . S
Tb541 O552 2.338 . S
Tb541 O559 2.441 . S
C542 O550 1.252 . S
C542 O551 1.253 . S
O543 Tb544 2.271 . S
O543 C553 1.252 . S
Tb544 O543 2.271 . S
Tb544 O547 2.338 . S
Tb544 O551 2.312 . S
Tb544 O555 2.441 . S
Tb544 O556 2.506 . S
C545 O555 1.244 . S
C545 O556 1.265 . S
O546 Tb541 2.312 . S
O546 C553 1.253 . S
O547 Tb544 2.338 . S
O547 C548 1.258 . S
C548 O547 1.258 . S
C548 O549 1.251 . S
O549 C548 1.251 . S
O550 Tb541 2.271 . S
O550 C542 1.252 . S
O551 C542 1.253 . S
O551 Tb544 2.312 . S
O552 Tb541 2.338 . S
O552 C557 1.258 . S
C553 O543 1.252 . S
C553 O546 1.253 . S
C554 O540 1.265 . S
C554 O559 1.244 . S
O555 Tb544 2.441 . S
O555 C545 1.244 . S
O556 Tb544 2.506 . S
O556 C545 1.265 . S
C557 O552 1.258 . S
C557 O558 1.251 . S
O558 C557 1.251 . S
O559 Tb541 2.441 . S
O559 C554 1.244 . S
O560 Tb561 2.506 . S
O560 C574 1.265 . S
Tb561 O560 2.506 . S
Tb561 O566 2.312 . S
Tb561 O570 2.271 . S
Tb561 O572 2.338 . S
Tb561 O579 2.441 . S
C562 O570 1.252 . S
C562 O571 1.253 . S
O563 Tb564 2.271 . S
O563 C573 1.252 . S
Tb564 O563 2.271 . S
Tb564 O567 2.338 . S
Tb564 O571 2.312 1_455 S
Tb564 O575 2.441 . S
Tb564 O576 2.506 . S
C565 O575 1.244 . S
C565 O576 1.265 . S
O566 Tb561 2.312 . S
O566 C573 1.253 1_655 S
O567 Tb564 2.338 . S
O567 C568 1.258 . S
C568 O567 1.258 . S
C568 O569 1.251 . S
O569 C568 1.251 . S
O570 Tb561 2.271 . S
O570 C562 1.252 . S
O571 C562 1.253 . S
O571 Tb564 2.312 1_655 S
O572 Tb561 2.338 . S
O572 C577 1.258 . S
C573 O563 1.252 . S
C573 O566 1.253 1_455 S
C574 O560 1.265 . S
C574 O579 1.244 . S
O575 Tb564 2.441 . S
O575 C565 1.244 . S
O576 Tb564 2.506 . S
O576 C565 1.265 . S
C577 O572 1.258 . S
C577 O578 1.251 . S
O578 C577 1.251 . S
O579 Tb561 2.441 . S
O579 C574 1.244 . S
O580 Tb581 2.506 . S
O580 C594 1.265 . S
Tb581 O580 2.506 . S
Tb581 O586 2.312 . S
Tb581 O590 2.271 . S
Tb581 O592 2.338 . S
Tb581 O599 2.441 . S
C582 O590 1.252 . S
C582 O591 1.253 . S
O583 Tb584 2.271 . S
O583 C593 1.252 . S
Tb584 O583 2.271 . S
Tb584 O587 2.338 . S
Tb584 O591 2.312 . S
Tb584 O595 2.441 . S
Tb584 O596 2.506 . S
C585 O595 1.244 . S
C585 O596 1.265 . S
O586 Tb581 2.312 . S
O586 C593 1.253 . S
O587 Tb584 2.338 . S
O587 C588 1.258 . S
C588 O587 1.258 . S
C588 O589 1.251 . S
O589 C588 1.251 . S
O590 Tb581 2.271 . S
O590 C582 1.252 . S
O591 C582 1.253 . S
O591 Tb584 2.312 . S
O592 Tb581 2.338 . S
O592 C597 1.258 . S
C593 O583 1.252 . S
C593 O586 1.253 . S
C594 O580 1.265 . S
C594 O599 1.244 . S
O595 Tb584 2.441 . S
O595 C585 1.244 . S
O596 Tb584 2.506 . S
O596 C585 1.265 . S
C597 O592 1.258 . S
C597 O598 1.251 . S
O598 C597 1.251 . S
O599 Tb581 2.441 . S
O599 C594 1.244 . S
O600 Tb601 2.506 . S
O600 C614 1.265 . S
Tb601 O600 2.506 . S
Tb601 O606 2.312 . S
Tb601 O610 2.271 . S
Tb601 O612 2.338 . S
Tb601 O619 2.441 . S
C602 O610 1.252 . S
C602 O611 1.253 . S
O603 Tb604 2.271 . S
O603 C613 1.252 . S
Tb604 O603 2.271 . S
Tb604 O607 2.338 . S
Tb604 O611 2.312 . S
Tb604 O615 2.441 . S
Tb604 O616 2.506 . S
C605 O615 1.244 . S
C605 O616 1.265 . S
O606 Tb601 2.312 . S
O606 C613 1.253 . S
O607 Tb604 2.338 . S
O607 C608 1.258 . S
C608 O607 1.258 . S
C608 O609 1.251 . S
O609 C608 1.251 . S
O610 Tb601 2.271 . S
O610 C602 1.252 . S
O611 C602 1.253 . S
O611 Tb604 2.312 . S
O612 Tb601 2.338 . S
O612 C617 1.258 . S
C613 O603 1.252 . S
C613 O606 1.253 . S
C614 O600 1.265 . S
C614 O619 1.244 . S
O615 Tb604 2.441 . S
O615 C605 1.244 . S
O616 Tb604 2.506 . S
O616 C605 1.265 . S
C617 O612 1.258 . S
C617 O618 1.251 . S
O618 C617 1.251 . S
O619 Tb601 2.441 . S
O619 C614 1.244 . S
O620 Tb621 2.506 . S
O620 C634 1.265 . S
Tb621 O620 2.506 . S
Tb621 O626 2.312 . S
Tb621 O630 2.271 . S
Tb621 O632 2.338 . S
Tb621 O639 2.441 . S
C622 O630 1.252 . S
C622 O631 1.253 . S
O623 Tb624 2.271 . S
O623 C633 1.252 . S
Tb624 O623 2.271 . S
Tb624 O627 2.338 . S
Tb624 O631 2.312 . S
Tb624 O635 2.441 . S
Tb624 O636 2.506 . S
C625 O635 1.244 . S
C625 O636 1.265 . S
O626 Tb621 2.312 . S
O626 C633 1.253 . S
O627 Tb624 2.338 . S
O627 C628 1.258 . S
C628 O627 1.258 . S
C628 O629 1.251 . S
O629 C628 1.251 . S
O630 Tb621 2.271 . S
O630 C622 1.252 . S
O631 C622 1.253 . S
O631 Tb624 2.312 . S
O632 Tb621 2.338 . S
O632 C637 1.258 . S
C633 O623 1.252 . S
C633 O626 1.253 . S
C634 O620 1.265 . S
C634 O639 1.244 . S
O635 Tb624 2.441 . S
O635 C625 1.244 . S
O636 Tb624 2.506 . S
O636 C625 1.265 . S
C637 O632 1.258 . S
C637 O638 1.251 . S
O638 C637 1.251 . S
O639 Tb621 2.441 . S
O639 C634 1.244 . S
O640 Tb641 2.506 . S
O640 C654 1.265 . S
Tb641 O640 2.506 . S
Tb641 O646 2.312 . S
Tb641 O650 2.271 . S
Tb641 O652 2.338 . S
Tb641 O659 2.441 . S
C642 O650 1.252 . S
C642 O651 1.253 . S
O643 Tb644 2.271 . S
O643 C653 1.252 . S
Tb644 O643 2.271 . S
Tb644 O647 2.338 . S
Tb644 O651 2.312 1_545 S
Tb644 O655 2.441 . S
Tb644 O656 2.506 . S
C645 O655 1.244 . S
C645 O656 1.265 . S
O646 Tb641 2.312 . S
O646 C653 1.253 1_565 S
O647 Tb644 2.338 . S
O647 C648 1.258 . S
C648 O647 1.258 . S
C648 O649 1.251 . S
O649 C648 1.251 . S
O650 Tb641 2.271 . S
O650 C642 1.252 . S
O651 C642 1.253 . S
O651 Tb644 2.312 1_565 S
O652 Tb641 2.338 . S
O652 C657 1.258 . S
C653 O643 1.252 . S
C653 O646 1.253 1_545 S
C654 O640 1.265 . S
C654 O659 1.244 . S
O655 Tb644 2.441 . S
O655 C645 1.244 . S
O656 Tb644 2.506 . S
O656 C645 1.265 . S
C657 O652 1.258 . S
C657 O658 1.251 . S
O658 C657 1.251 . S
O659 Tb641 2.441 . S
O659 C654 1.244 . S
O660 Tb661 2.506 . S
O660 C674 1.265 . S
Tb661 O660 2.506 . S
Tb661 O666 2.312 . S
Tb661 O670 2.271 . S
Tb661 O672 2.338 . S
Tb661 O679 2.441 . S
C662 O670 1.252 . S
C662 O671 1.253 . S
O663 Tb664 2.271 . S
O663 C673 1.252 . S
Tb664 O663 2.271 . S
Tb664 O667 2.338 . S
Tb664 O671 2.312 . S
Tb664 O675 2.441 . S
Tb664 O676 2.506 . S
C665 O675 1.244 . S
C665 O676 1.265 . S
O666 Tb661 2.312 . S
O666 C673 1.253 . S
O667 Tb664 2.338 . S
O667 C668 1.258 . S
C668 O667 1.258 . S
C668 O669 1.251 . S
O669 C668 1.251 . S
O670 Tb661 2.271 . S
O670 C662 1.252 . S
O671 C662 1.253 . S
O671 Tb664 2.312 . S
O672 Tb661 2.338 . S
O672 C677 1.258 . S
C673 O663 1.252 . S
C673 O666 1.253 . S
C674 O660 1.265 . S
C674 O679 1.244 . S
O675 Tb664 2.441 . S
O675 C665 1.244 . S
O676 Tb664 2.506 . S
O676 C665 1.265 . S
C677 O672 1.258 . S
C677 O678 1.251 . S
O678 C677 1.251 . S
O679 Tb661 2.441 . S
O679 C674 1.244 . S
O680 Tb681 2.506 . S
O680 C694 1.265 . S
Tb681 O680 2.506 . S
Tb681 O686 2.312 . S
Tb681 O690 2.271 . S
Tb681 O692 2.338 . S
Tb681 O699 2.441 . S
C682 O690 1.252 . S
C682 O691 1.253 . S
O683 Tb684 2.271 . S
O683 C693 1.252 . S
Tb684 O683 2.271 . S
Tb684 O687 2.338 . S
Tb684 O691 2.312 1_565 S
Tb684 O695 2.441 . S
Tb684 O696 2.506 . S
C685 O695 1.244 . S
C685 O696 1.265 . S
O686 Tb681 2.312 . S
O686 C693 1.253 1_545 S
O687 Tb684 2.338 . S
O687 C688 1.258 . S
C688 O687 1.258 . S
C688 O689 1.251 . S
O689 C688 1.251 . S
O690 Tb681 2.271 . S
O690 C682 1.252 . S
O691 C682 1.253 . S
O691 Tb684 2.312 1_545 S
O692 Tb681 2.338 . S
O692 C697 1.258 . S
C693 O683 1.252 . S
C693 O686 1.253 1_565 S
C694 O680 1.265 . S
C694 O699 1.244 . S
O695 Tb684 2.441 . S
O695 C685 1.244 . S
O696 Tb684 2.506 . S
O696 C685 1.265 . S
C697 O692 1.258 . S
C697 O698 1.251 . S
O698 C697 1.251 . S
O699 Tb681 2.441 . S
O699 C694 1.244 . S
O700 Tb701 2.506 . S
O700 C714 1.265 . S
Tb701 O700 2.506 . S
Tb701 O706 2.312 . S
Tb701 O710 2.271 . S
Tb701 O712 2.338 . S
Tb701 O719 2.441 . S
C702 O710 1.252 . S
C702 O711 1.253 . S
O703 Tb704 2.271 . S
O703 C713 1.252 . S
Tb704 O703 2.271 . S
Tb704 O707 2.338 . S
Tb704 O711 2.312 . S
Tb704 O715 2.441 . S
Tb704 O716 2.506 . S
C705 O715 1.244 . S
C705 O716 1.265 . S
O706 Tb701 2.312 . S
O706 C713 1.253 . S
O707 Tb704 2.338 . S
O707 C708 1.258 . S
C708 O707 1.258 . S
C708 O709 1.251 . S
O709 C708 1.251 . S
O710 Tb701 2.271 . S
O710 C702 1.252 . S
O711 C702 1.253 . S
O711 Tb704 2.312 . S
O712 Tb701 2.338 . S
O712 C717 1.258 . S
C713 O703 1.252 . S
C713 O706 1.253 . S
C714 O700 1.265 . S
C714 O719 1.244 . S
O715 Tb704 2.441 . S
O715 C705 1.244 . S
O716 Tb704 2.506 . S
O716 C705 1.265 . S
C717 O712 1.258 . S
C717 O718 1.251 . S
O718 C717 1.251 . S
O719 Tb701 2.441 . S
O719 C714 1.244 . S
O720 Tb721 2.506 . S
O720 C734 1.265 . S
Tb721 O720 2.506 . S
Tb721 O726 2.312 . S
Tb721 O730 2.271 . S
Tb721 O732 2.338 . S
Tb721 O739 2.441 . S
C722 O730 1.252 . S
C722 O731 1.253 . S
O723 Tb724 2.271 . S
O723 C733 1.252 . S
Tb724 O723 2.271 . S
Tb724 O727 2.338 . S
Tb724 O731 2.312 1_565 S
Tb724 O735 2.441 . S
Tb724 O736 2.506 . S
C725 O735 1.244 . S
C725 O736 1.265 . S
O726 Tb721 2.312 . S
O726 C733 1.253 1_545 S
O727 Tb724 2.338 . S
O727 C728 1.258 . S
C728 O727 1.258 . S
C728 O729 1.251 . S
O729 C728 1.251 . S
O730 Tb721 2.271 . S
O730 C722 1.252 . S
O731 C722 1.253 . S
O731 Tb724 2.312 1_545 S
O732 Tb721 2.338 . S
O732 C737 1.258 . S
C733 O723 1.252 . S
C733 O726 1.253 1_565 S
C734 O720 1.265 . S
C734 O739 1.244 . S
O735 Tb724 2.441 . S
O735 C725 1.244 . S
O736 Tb724 2.506 . S
O736 C725 1.265 . S
C737 O732 1.258 . S
C737 O738 1.251 . S
O738 C737 1.251 . S
O739 Tb721 2.441 . S
O739 C734 1.244 . S
O740 Tb741 2.506 . S
O740 C754 1.265 . S
Tb741 O740 2.506 . S
Tb741 O746 2.312 . S
Tb741 O750 2.271 . S
Tb741 O752 2.338 . S
Tb741 O759 2.441 . S
C742 O750 1.252 . S
C742 O751 1.253 . S
O743 Tb744 2.271 . S
O743 C753 1.252 . S
Tb744 O743 2.271 . S
Tb744 O747 2.338 . S
Tb744 O751 2.312 . S
Tb744 O755 2.441 . S
Tb744 O756 2.506 . S
C745 O755 1.244 . S
C745 O756 1.265 . S
O746 Tb741 2.312 . S
O746 C753 1.253 . S
O747 Tb744 2.338 . S
O747 C748 1.258 . S
C748 O747 1.258 . S
C748 O749 1.251 . S
O749 C748 1.251 . S
O750 Tb741 2.271 . S
O750 C742 1.252 . S
O751 C742 1.253 . S
O751 Tb744 2.312 . S
O752 Tb741 2.338 . S
O752 C757 1.258 . S
C753 O743 1.252 . S
C753 O746 1.253 . S
C754 O740 1.265 . S
C754 O759 1.244 . S
O755 Tb744 2.441 . S
O755 C745 1.244 . S
O756 Tb744 2.506 . S
O756 C745 1.265 . S
C757 O752 1.258 . S
C757 O758 1.251 . S
O758 C757 1.251 . S
O759 Tb741 2.441 . S
O759 C754 1.244 . S
O760 Tb761 2.506 . S
O760 C774 1.265 . S
Tb761 O760 2.506 . S
Tb761 O766 2.312 . S
Tb761 O770 2.271 . S
Tb761 O772 2.338 . S
Tb761 O779 2.441 . S
C762 O770 1.252 . S
C762 O771 1.253 . S
O763 Tb764 2.271 . S
O763 C773 1.252 . S
Tb764 O763 2.271 . S
Tb764 O767 2.338 . S
Tb764 O771 2.312 1_545 S
Tb764 O775 2.441 . S
Tb764 O776 2.506 . S
C765 O775 1.244 . S
C765 O776 1.265 . S
O766 Tb761 2.312 . S
O766 C773 1.253 1_565 S
O767 Tb764 2.338 . S
O767 C768 1.258 . S
C768 O767 1.258 . S
C768 O769 1.251 . S
O769 C768 1.251 . S
O770 Tb761 2.271 . S
O770 C762 1.252 . S
O771 C762 1.253 . S
O771 Tb764 2.312 1_565 S
O772 Tb761 2.338 . S
O772 C777 1.258 . S
C773 O763 1.252 . S
C773 O766 1.253 1_545 S
C774 O760 1.265 . S
C774 O779 1.244 . S
O775 Tb764 2.441 . S
O775 C765 1.244 . S
O776 Tb764 2.506 . S
O776 C765 1.265 . S
C777 O772 1.258 . S
C777 O778 1.251 . S
O778 C777 1.251 . S
O779 Tb761 2.441 . S
O779 C774 1.244 . S
O780 Tb781 2.506 . S
O780 C794 1.265 . S
Tb781 O780 2.506 . S
Tb781 O786 2.312 . S
Tb781 O790 2.271 . S
Tb781 O792 2.338 . S
Tb781 O799 2.441 . S
C782 O790 1.252 . S
C782 O791 1.253 . S
O783 Tb784 2.271 . S
O783 C793 1.252 . S
Tb784 O783 2.271 . S
Tb784 O787 2.338 . S
Tb784 O791 2.312 . S
Tb784 O795 2.441 . S
Tb784 O796 2.506 . S
C785 O795 1.244 . S
C785 O796 1.265 . S
O786 Tb781 2.312 . S
O786 C793 1.253 . S
O787 Tb784 2.338 . S
O787 C788 1.258 . S
C788 O787 1.258 . S
C788 O789 1.251 . S
O789 C788 1.251 . S
O790 Tb781 2.271 . S
O790 C782 1.252 . S
O791 C782 1.253 . S
O791 Tb784 2.312 . S
O792 Tb781 2.338 . S
O792 C797 1.258 . S
C793 O783 1.252 . S
C793 O786 1.253 . S
C794 O780 1.265 . S
C794 O799 1.244 . S
O795 Tb784 2.441 . S
O795 C785 1.244 . S
O796 Tb784 2.506 . S
O796 C785 1.265 . S
C797 O792 1.258 . S
C797 O798 1.251 . S
O798 C797 1.251 . S
O799 Tb781 2.441 . S
O799 C794 1.244 . S
O800 Tb801 2.506 . S
O800 C814 1.265 . S
Tb801 O800 2.506 . S
Tb801 O806 2.312 . S
Tb801 O810 2.271 . S
Tb801 O812 2.338 . S
Tb801 O819 2.441 . S
C802 O810 1.252 . S
C802 O811 1.253 . S
O803 Tb804 2.271 . S
O803 C813 1.252 . S
Tb804 O803 2.271 . S
Tb804 O807 2.338 . S
Tb804 O811 2.312 1_554 S
Tb804 O815 2.441 . S
Tb804 O816 2.506 . S
C805 O815 1.244 . S
C805 O816 1.265 . S
O806 Tb801 2.312 . S
O806 C813 1.253 1_556 S
O807 Tb804 2.338 . S
O807 C808 1.258 . S
C808 O807 1.258 . S
C808 O809 1.251 . S
O809 C808 1.251 . S
O810 Tb801 2.271 . S
O810 C802 1.252 . S
O811 C802 1.253 . S
O811 Tb804 2.312 1_556 S
O812 Tb801 2.338 . S
O812 C817 1.258 . S
C813 O803 1.252 . S
C813 O806 1.253 1_554 S
C814 O800 1.265 . S
C814 O819 1.244 . S
O815 Tb804 2.441 . S
O815 C805 1.244 . S
O816 Tb804 2.506 . S
O816 C805 1.265 . S
C817 O812 1.258 . S
C817 O818 1.251 . S
O818 C817 1.251 . S
O819 Tb801 2.441 . S
O819 C814 1.244 . S
O820 Tb821 2.506 . S
O820 C834 1.265 . S
Tb821 O820 2.506 . S
Tb821 O826 2.312 . S
Tb821 O830 2.271 . S
Tb821 O832 2.338 . S
Tb821 O839 2.441 . S
C822 O830 1.252 . S
C822 O831 1.253 . S
O823 Tb824 2.271 . S
O823 C833 1.252 . S
Tb824 O823 2.271 . S
Tb824 O827 2.338 . S
Tb824 O831 2.312 1_556 S
Tb824 O835 2.441 . S
Tb824 O836 2.506 . S
C825 O835 1.244 . S
C825 O836 1.265 . S
O826 Tb821 2.312 . S
O826 C833 1.253 1_554 S
O827 Tb824 2.338 . S
O827 C828 1.258 . S
C828 O827 1.258 . S
C828 O829 1.251 . S
O829 C828 1.251 . S
O830 Tb821 2.271 . S
O830 C822 1.252 . S
O831 C822 1.253 . S
O831 Tb824 2.312 1_554 S
O832 Tb821 2.338 . S
O832 C837 1.258 . S
C833 O823 1.252 . S
C833 O826 1.253 1_556 S
C834 O820 1.265 . S
C834 O839 1.244 . S
O835 Tb824 2.441 . S
O835 C825 1.244 . S
O836 Tb824 2.506 . S
O836 C825 1.265 . S
C837 O832 1.258 . S
C837 O838 1.251 . S
O838 C837 1.251 . S
O839 Tb821 2.441 . S
O839 C834 1.244 . S
O840 Tb841 2.506 . S
O840 C854 1.265 . S
Tb841 O840 2.506 . S
Tb841 O846 2.312 . S
Tb841 O850 2.271 . S
Tb841 O852 2.338 . S
Tb841 O859 2.441 . S
C842 O850 1.252 . S
C842 O851 1.253 . S
O843 Tb844 2.271 . S
O843 C853 1.252 . S
Tb844 O843 2.271 . S
Tb844 O847 2.338 . S
Tb844 O851 2.312 . S
Tb844 O855 2.441 . S
Tb844 O856 2.506 . S
C845 O855 1.244 . S
C845 O856 1.265 . S
O846 Tb841 2.312 . S
O846 C853 1.253 . S
O847 Tb844 2.338 . S
O847 C848 1.258 . S
C848 O847 1.258 . S
C848 O849 1.251 . S
O849 C848 1.251 . S
O850 Tb841 2.271 . S
O850 C842 1.252 . S
O851 C842 1.253 . S
O851 Tb844 2.312 . S
O852 Tb841 2.338 . S
O852 C857 1.258 . S
C853 O843 1.252 . S
C853 O846 1.253 . S
C854 O840 1.265 . S
C854 O859 1.244 . S
O855 Tb844 2.441 . S
O855 C845 1.244 . S
O856 Tb844 2.506 . S
O856 C845 1.265 . S
C857 O852 1.258 . S
C857 O858 1.251 . S
O858 C857 1.251 . S
O859 Tb841 2.441 . S
O859 C854 1.244 . S
O860 Tb861 2.506 . S
O860 C874 1.265 . S
Tb861 O860 2.506 . S
Tb861 O866 2.312 . S
Tb861 O870 2.271 . S
Tb861 O872 2.338 . S
Tb861 O879 2.441 . S
C862 O870 1.252 . S
C862 O871 1.253 . S
O863 Tb864 2.271 . S
O863 C873 1.252 . S
Tb864 O863 2.271 . S
Tb864 O867 2.338 . S
Tb864 O871 2.312 . S
Tb864 O875 2.441 . S
Tb864 O876 2.506 . S
C865 O875 1.244 . S
C865 O876 1.265 . S
O866 Tb861 2.312 . S
O866 C873 1.253 . S
O867 Tb864 2.338 . S
O867 C868 1.258 . S
C868 O867 1.258 . S
C868 O869 1.251 . S
O869 C868 1.251 . S
O870 Tb861 2.271 . S
O870 C862 1.252 . S
O871 C862 1.253 . S
O871 Tb864 2.312 . S
O872 Tb861 2.338 . S
O872 C877 1.258 . S
C873 O863 1.252 . S
C873 O866 1.253 . S
C874 O860 1.265 . S
C874 O879 1.244 . S
O875 Tb864 2.441 . S
O875 C865 1.244 . S
O876 Tb864 2.506 . S
O876 C865 1.265 . S
C877 O872 1.258 . S
C877 O878 1.251 . S
O878 C877 1.251 . S
O879 Tb861 2.441 . S
O879 C874 1.244 . S
O880 Tb881 2.506 . S
O880 C894 1.265 . S
Tb881 O880 2.506 . S
Tb881 O886 2.312 . S
Tb881 O890 2.271 . S
Tb881 O892 2.338 . S
Tb881 O899 2.441 . S
C882 O890 1.252 . S
C882 O891 1.253 . S
O883 Tb884 2.271 . S
O883 C893 1.252 . S
Tb884 O883 2.271 . S
Tb884 O887 2.338 . S
Tb884 O891 2.312 . S
Tb884 O895 2.441 . S
Tb884 O896 2.506 . S
C885 O895 1.244 . S
C885 O896 1.265 . S
O886 Tb881 2.312 . S
O886 C893 1.253 . S
O887 Tb884 2.338 . S
O887 C888 1.258 . S
C888 O887 1.258 . S
C888 O889 1.251 . S
O889 C888 1.251 . S
O890 Tb881 2.271 . S
O890 C882 1.252 . S
O891 C882 1.253 . S
O891 Tb884 2.312 . S
O892 Tb881 2.338 . S
O892 C897 1.258 . S
C893 O883 1.252 . S
C893 O886 1.253 . S
C894 O880 1.265 . S
C894 O899 1.244 . S
O895 Tb884 2.441 . S
O895 C885 1.244 . S
O896 Tb884 2.506 . S
O896 C885 1.265 . S
C897 O892 1.258 . S
C897 O898 1.251 . S
O898 C897 1.251 . S
O899 Tb881 2.441 . S
O899 C894 1.244 . S
O900 Tb901 2.506 . S
O900 C914 1.265 . S
Tb901 O900 2.506 . S
Tb901 O906 2.312 . S
Tb901 O910 2.271 . S
Tb901 O912 2.338 . S
Tb901 O919 2.441 . S
C902 O910 1.252 . S
C902 O911 1.253 . S
O903 Tb904 2.271 . S
O903 C913 1.252 . S
Tb904 O903 2.271 . S
Tb904 O907 2.338 . S
Tb904 O911 2.312 . S
Tb904 O915 2.441 . S
Tb904 O916 2.506 . S
C905 O915 1.244 . S
C905 O916 1.265 . S
O906 Tb901 2.312 . S
O906 C913 1.253 . S
O907 Tb904 2.338 . S
O907 C908 1.258 . S
C908 O907 1.258 . S
C908 O909 1.251 . S
O909 C908 1.251 . S
O910 Tb901 2.271 . S
O910 C902 1.252 . S
O911 C902 1.253 . S
O911 Tb904 2.312 . S
O912 Tb901 2.338 . S
O912 C917 1.258 . S
C913 O903 1.252 . S
C913 O906 1.253 . S
C914 O900 1.265 . S
C914 O919 1.244 . S
O915 Tb904 2.441 . S
O915 C905 1.244 . S
O916 Tb904 2.506 . S
O916 C905 1.265 . S
C917 O912 1.258 . S
C917 O918 1.251 . S
O918 C917 1.251 . S
O919 Tb901 2.441 . S
O919 C914 1.244 . S
O920 Tb921 2.506 . S
O920 C934 1.265 . S
Tb921 O920 2.506 . S
Tb921 O926 2.312 . S
Tb921 O930 2.271 . S
Tb921 O932 2.338 . S
Tb921 O939 2.441 . S
C922 O930 1.252 . S
C922 O931 1.253 . S
O923 Tb924 2.271 . S
O923 C933 1.252 . S
Tb924 O923 2.271 . S
Tb924 O927 2.338 . S
Tb924 O931 2.312 . S
Tb924 O935 2.441 . S
Tb924 O936 2.506 . S
C925 O935 1.244 . S
C925 O936 1.265 . S
O926 Tb921 2.312 . S
O926 C933 1.253 . S
O927 Tb924 2.338 . S
O927 C928 1.258 . S
C928 O927 1.258 . S
C928 O929 1.251 . S
O929 C928 1.251 . S
O930 Tb921 2.271 . S
O930 C922 1.252 . S
O931 C922 1.253 . S
O931 Tb924 2.312 . S
O932 Tb921 2.338 . S
O932 C937 1.258 . S
C933 O923 1.252 . S
C933 O926 1.253 . S
C934 O920 1.265 . S
C934 O939 1.244 . S
O935 Tb924 2.441 . S
O935 C925 1.244 . S
O936 Tb924 2.506 . S
O936 C925 1.265 . S
C937 O932 1.258 . S
C937 O938 1.251 . S
O938 C937 1.251 . S
O939 Tb921 2.441 . S
O939 C934 1.244 . S
O940 Tb941 2.506 . S
O940 C954 1.265 . S
Tb941 O940 2.506 . S
Tb941 O946 2.312 . S
Tb941 O950 2.271 . S
Tb941 O952 2.338 . S
Tb941 O959 2.441 . S
C942 O950 1.252 . S
C942 O951 1.253 . S
O943 Tb944 2.271 . S
O943 C953 1.252 . S
Tb944 O943 2.271 . S
Tb944 O947 2.338 . S
Tb944 O951 2.312 . S
Tb944 O955 2.441 . S
Tb944 O956 2.506 . S
C945 O955 1.244 . S
C945 O956 1.265 . S
O946 Tb941 2.312 . S
O946 C953 1.253 . S
O947 Tb944 2.338 . S
O947 C948 1.258 . S
C948 O947 1.258 . S
C948 O949 1.251 . S
O949 C948 1.251 . S
O950 Tb941 2.271 . S
O950 C942 1.252 . S
O951 C942 1.253 . S
O951 Tb944 2.312 . S
O952 Tb941 2.338 . S
O952 C957 1.258 . S
C953 O943 1.252 . S
C953 O946 1.253 . S
C954 O940 1.265 . S
C954 O959 1.244 . S
O955 Tb944 2.441 . S
O955 C945 1.244 . S
O956 Tb944 2.506 . S
O956 C945 1.265 . S
C957 O952 1.258 . S
C957 O958 1.251 . S
O958 C957 1.251 . S
O959 Tb941 2.441 . S
O959 C954 1.244 . S
O960 Tb961 2.506 . S
O960 C974 1.265 . S
Tb961 O960 2.506 . S
Tb961 O966 2.312 . S
Tb961 O970 2.271 . S
Tb961 O972 2.338 . S
Tb961 O979 2.441 . S
C962 O970 1.252 . S
C962 O971 1.253 . S
O963 Tb964 2.271 . S
O963 C973 1.252 . S
Tb964 O963 2.271 . S
Tb964 O967 2.338 . S
Tb964 O971 2.312 . S
Tb964 O975 2.441 . S
Tb964 O976 2.506 . S
C965 O975 1.244 . S
C965 O976 1.265 . S
O966 Tb961 2.312 . S
O966 C973 1.253 . S
O967 Tb964 2.338 . S
O967 C968 1.258 . S
C968 O967 1.258 . S
C968 O969 1.251 . S
O969 C968 1.251 . S
O970 Tb961 2.271 . S
O970 C962 1.252 . S
O971 C962 1.253 . S
O971 Tb964 2.312 . S
O972 Tb961 2.338 . S
O972 C977 1.258 . S
C973 O963 1.252 . S
C973 O966 1.253 . S
C974 O960 1.265 . S
C974 O979 1.244 . S
O975 Tb964 2.441 . S
O975 C965 1.244 . S
O976 Tb964 2.506 . S
O976 C965 1.265 . S
C977 O972 1.258 . S
C977 O978 1.251 . S
O978 C977 1.251 . S
O979 Tb961 2.441 . S
O979 C974 1.244 . S
O980 Tb981 2.506 . S
O980 C994 1.265 . S
Tb981 O980 2.506 . S
Tb981 O986 2.312 . S
Tb981 O990 2.271 . S
Tb981 O992 2.338 . S
Tb981 O999 2.441 . S
C982 O990 1.252 . S
C982 O991 1.253 . S
O983 Tb984 2.271 . S
O983 C993 1.252 . S
Tb984 O983 2.271 . S
Tb984 O987 2.338 . S
Tb984 O991 2.312 . S
Tb984 O995 2.441 . S
Tb984 O996 2.506 . S
C985 O995 1.244 . S
C985 O996 1.265 . S
O986 Tb981 2.312 . S
O986 C993 1.253 . S
O987 Tb984 2.338 . S
O987 C988 1.258 . S
C988 O987 1.258 . S
C988 O989 1.251 . S
O989 C988 1.251 . S
O990 Tb981 2.271 . S
O990 C982 1.252 . S
O991 C982 1.253 . S
O991 Tb984 2.312 . S
O992 Tb981 2.338 . S
O992 C997 1.258 . S
C993 O983 1.252 . S
C993 O986 1.253 . S
C994 O980 1.265 . S
C994 O999 1.244 . S
O995 Tb984 2.441 . S
O995 C985 1.244 . S
O996 Tb984 2.506 . S
O996 C985 1.265 . S
C997 O992 1.258 . S
C997 O998 1.251 . S
O998 C997 1.251 . S
O999 Tb981 2.441 . S
O999 C994 1.244 . S
O1000 Tb1001 2.506 . S
O1000 C1014 1.265 . S
Tb1001 O1000 2.506 . S
Tb1001 O1006 2.312 . S
Tb1001 O1010 2.271 . S
Tb1001 O1012 2.338 . S
Tb1001 O1019 2.441 . S
C1002 O1010 1.252 . S
C1002 O1011 1.253 . S
O1003 Tb1004 2.271 . S
O1003 C1013 1.252 . S
Tb1004 O1003 2.271 . S
Tb1004 O1007 2.338 . S
Tb1004 O1011 2.312 1_455 S
Tb1004 O1015 2.441 . S
Tb1004 O1016 2.506 . S
C1005 O1015 1.244 . S
C1005 O1016 1.265 . S
O1006 Tb1001 2.312 . S
O1006 C1013 1.253 1_655 S
O1007 Tb1004 2.338 . S
O1007 C1008 1.258 . S
C1008 O1007 1.258 . S
C1008 O1009 1.251 . S
O1009 C1008 1.251 . S
O1010 Tb1001 2.271 . S
O1010 C1002 1.252 . S
O1011 C1002 1.253 . S
O1011 Tb1004 2.312 1_655 S
O1012 Tb1001 2.338 . S
O1012 C1017 1.258 . S
C1013 O1003 1.252 . S
C1013 O1006 1.253 1_455 S
C1014 O1000 1.265 . S
C1014 O1019 1.244 . S
O1015 Tb1004 2.441 . S
O1015 C1005 1.244 . S
O1016 Tb1004 2.506 . S
O1016 C1005 1.265 . S
C1017 O1012 1.258 . S
C1017 O1018 1.251 . S
O1018 C1017 1.251 . S
O1019 Tb1001 2.441 . S
O1019 C1014 1.244 . S
O1020 Tb1021 2.506 . S
O1020 C1034 1.265 . S
Tb1021 O1020 2.506 . S
Tb1021 O1026 2.312 . S
Tb1021 O1030 2.271 . S
Tb1021 O1032 2.338 . S
Tb1021 O1039 2.441 . S
C1022 O1030 1.252 . S
C1022 O1031 1.253 . S
O1023 Tb1024 2.271 . S
O1023 C1033 1.252 . S
Tb1024 O1023 2.271 . S
Tb1024 O1027 2.338 . S
Tb1024 O1031 2.312 . S
Tb1024 O1035 2.441 . S
Tb1024 O1036 2.506 . S
C1025 O1035 1.244 . S
C1025 O1036 1.265 . S
O1026 Tb1021 2.312 . S
O1026 C1033 1.253 . S
O1027 Tb1024 2.338 . S
O1027 C1028 1.258 . S
C1028 O1027 1.258 . S
C1028 O1029 1.251 . S
O1029 C1028 1.251 . S
O1030 Tb1021 2.271 . S
O1030 C1022 1.252 . S
O1031 C1022 1.253 . S
O1031 Tb1024 2.312 . S
O1032 Tb1021 2.338 . S
O1032 C1037 1.258 . S
C1033 O1023 1.252 . S
C1033 O1026 1.253 . S
C1034 O1020 1.265 . S
C1034 O1039 1.244 . S
O1035 Tb1024 2.441 . S
O1035 C1025 1.244 . S
O1036 Tb1024 2.506 . S
O1036 C1025 1.265 . S
C1037 O1032 1.258 . S
C1037 O1038 1.251 . S
O1038 C1037 1.251 . S
O1039 Tb1021 2.441 . S
O1039 C1034 1.244 . S
O1040 Tb1041 2.506 . S
O1040 C1054 1.265 . S
Tb1041 O1040 2.506 . S
Tb1041 O1046 2.312 . S
Tb1041 O1050 2.271 . S
Tb1041 O1052 2.338 . S
Tb1041 O1059 2.441 . S
C1042 O1050 1.252 . S
C1042 O1051 1.253 . S
O1043 Tb1044 2.271 . S
O1043 C1053 1.252 . S
Tb1044 O1043 2.271 . S
Tb1044 O1047 2.338 . S
Tb1044 O1051 2.312 . S
Tb1044 O1055 2.441 . S
Tb1044 O1056 2.506 . S
C1045 O1055 1.244 . S
C1045 O1056 1.265 . S
O1046 Tb1041 2.312 . S
O1046 C1053 1.253 . S
O1047 Tb1044 2.338 . S
O1047 C1048 1.258 . S
C1048 O1047 1.258 . S
C1048 O1049 1.251 . S
O1049 C1048 1.251 . S
O1050 Tb1041 2.271 . S
O1050 C1042 1.252 . S
O1051 C1042 1.253 . S
O1051 Tb1044 2.312 . S
O1052 Tb1041 2.338 . S
O1052 C1057 1.258 . S
C1053 O1043 1.252 . S
C1053 O1046 1.253 . S
C1054 O1040 1.265 . S
C1054 O1059 1.244 . S
O1055 Tb1044 2.441 . S
O1055 C1045 1.244 . S
O1056 Tb1044 2.506 . S
O1056 C1045 1.265 . S
C1057 O1052 1.258 . S
C1057 O1058 1.251 . S
O1058 C1057 1.251 . S
O1059 Tb1041 2.441 . S
O1059 C1054 1.244 . S
O1060 Tb1061 2.506 . S
O1060 C1074 1.265 . S
Tb1061 O1060 2.506 . S
Tb1061 O1066 2.312 . S
Tb1061 O1070 2.271 . S
Tb1061 O1072 2.338 . S
Tb1061 O1079 2.441 . S
C1062 O1070 1.252 . S
C1062 O1071 1.253 . S
O1063 Tb1064 2.271 . S
O1063 C1073 1.252 . S
Tb1064 O1063 2.271 . S
Tb1064 O1067 2.338 . S
Tb1064 O1071 2.312 . S
Tb1064 O1075 2.441 . S
Tb1064 O1076 2.506 . S
C1065 O1075 1.244 . S
C1065 O1076 1.265 . S
O1066 Tb1061 2.312 . S
O1066 C1073 1.253 . S
O1067 Tb1064 2.338 . S
O1067 C1068 1.258 . S
C1068 O1067 1.258 . S
C1068 O1069 1.251 . S
O1069 C1068 1.251 . S
O1070 Tb1061 2.271 . S
O1070 C1062 1.252 . S
O1071 C1062 1.253 . S
O1071 Tb1064 2.312 . S
O1072 Tb1061 2.338 . S
O1072 C1077 1.258 . S
C1073 O1063 1.252 . S
C1073 O1066 1.253 . S
C1074 O1060 1.265 . S
C1074 O1079 1.244 . S
O1075 Tb1064 2.441 . S
O1075 C1065 1.244 . S
O1076 Tb1064 2.506 . S
O1076 C1065 1.265 . S
C1077 O1072 1.258 . S
C1077 O1078 1.251 . S
O1078 C1077 1.251 . S
O1079 Tb1061 2.441 . S
O1079 C1074 1.244 . S
O1080 Tb1081 2.506 . S
O1080 C1094 1.265 . S
Tb1081 O1080 2.506 . S
Tb1081 O1086 2.312 1_455 S
Tb1081 O1090 2.271 . S
Tb1081 O1092 2.338 . S
Tb1081 O1099 2.441 . S
C1082 O1090 1.252 . S
C1082 O1091 1.253 1_455 S
O1083 Tb1084 2.271 . S
O1083 C1093 1.252 . S
Tb1084 O1083 2.271 . S
Tb1084 O1087 2.338 . S
Tb1084 O1091 2.312 . S
Tb1084 O1095 2.441 . S
Tb1084 O1096 2.506 . S
C1085 O1095 1.244 . S
C1085 O1096 1.265 . S
O1086 Tb1081 2.312 1_655 S
O1086 C1093 1.253 . S
O1087 Tb1084 2.338 . S
O1087 C1088 1.258 . S
C1088 O1087 1.258 . S
C1088 O1089 1.251 . S
O1089 C1088 1.251 . S
O1090 Tb1081 2.271 . S
O1090 C1082 1.252 . S
O1091 C1082 1.253 1_655 S
O1091 Tb1084 2.312 . S
O1092 Tb1081 2.338 . S
O1092 C1097 1.258 . S
C1093 O1083 1.252 . S
C1093 O1086 1.253 . S
C1094 O1080 1.265 . S
C1094 O1099 1.244 . S
O1095 Tb1084 2.441 . S
O1095 C1085 1.244 . S
O1096 Tb1084 2.506 . S
O1096 C1085 1.265 . S
C1097 O1092 1.258 . S
C1097 O1098 1.251 . S
O1098 C1097 1.251 . S
O1099 Tb1081 2.441 . S
O1099 C1094 1.244 . S
O1100 Tb1101 2.506 . S
O1100 C1114 1.265 . S
Tb1101 O1100 2.506 . S
Tb1101 O1106 2.312 . S
Tb1101 O1110 2.271 . S
Tb1101 O1112 2.338 . S
Tb1101 O1119 2.441 . S
C1102 O1110 1.252 . S
C1102 O1111 1.253 . S
O1103 Tb1104 2.271 . S
O1103 C1113 1.252 . S
Tb1104 O1103 2.271 . S
Tb1104 O1107 2.338 . S
Tb1104 O1111 2.312 . S
Tb1104 O1115 2.441 . S
Tb1104 O1116 2.506 . S
C1105 O1115 1.244 . S
C1105 O1116 1.265 . S
O1106 Tb1101 2.312 . S
O1106 C1113 1.253 . S
O1107 Tb1104 2.338 . S
O1107 C1108 1.258 . S
C1108 O1107 1.258 . S
C1108 O1109 1.251 . S
O1109 C1108 1.251 . S
O1110 Tb1101 2.271 . S
O1110 C1102 1.252 . S
O1111 C1102 1.253 . S
O1111 Tb1104 2.312 . S
O1112 Tb1101 2.338 . S
O1112 C1117 1.258 . S
C1113 O1103 1.252 . S
C1113 O1106 1.253 . S
C1114 O1100 1.265 . S
C1114 O1119 1.244 . S
O1115 Tb1104 2.441 . S
O1115 C1105 1.244 . S
O1116 Tb1104 2.506 . S
O1116 C1105 1.265 . S
C1117 O1112 1.258 . S
C1117 O1118 1.251 . S
O1118 C1117 1.251 . S
O1119 Tb1101 2.441 . S
O1119 C1114 1.244 . S
O1120 Tb1121 2.506 . S
O1120 C1134 1.265 . S
Tb1121 O1120 2.506 . S
Tb1121 O1126 2.312 . S
Tb1121 O1130 2.271 . S
Tb1121 O1132 2.338 . S
Tb1121 O1139 2.441 . S
C1122 O1130 1.252 . S
C1122 O1131 1.253 . S
O1123 Tb1124 2.271 . S
O1123 C1133 1.252 . S
Tb1124 O1123 2.271 . S
Tb1124 O1127 2.338 . S
Tb1124 O1131 2.312 . S
Tb1124 O1135 2.441 . S
Tb1124 O1136 2.506 . S
C1125 O1135 1.244 . S
C1125 O1136 1.265 . S
O1126 Tb1121 2.312 . S
O1126 C1133 1.253 . S
O1127 Tb1124 2.338 . S
O1127 C1128 1.258 . S
C1128 O1127 1.258 . S
C1128 O1129 1.251 . S
O1129 C1128 1.251 . S
O1130 Tb1121 2.271 . S
O1130 C1122 1.252 . S
O1131 C1122 1.253 . S
O1131 Tb1124 2.312 . S
O1132 Tb1121 2.338 . S
O1132 C1137 1.258 . S
C1133 O1123 1.252 . S
C1133 O1126 1.253 . S
C1134 O1120 1.265 . S
C1134 O1139 1.244 . S
O1135 Tb1124 2.441 . S
O1135 C1125 1.244 . S
O1136 Tb1124 2.506 . S
O1136 C1125 1.265 . S
C1137 O1132 1.258 . S
C1137 O1138 1.251 . S
O1138 C1137 1.251 . S
O1139 Tb1121 2.441 . S
O1139 C1134 1.244 . S
O1140 Tb1141 2.506 . S
O1140 C1154 1.265 . S
Tb1141 O1140 2.506 . S
Tb1141 O1146 2.312 . S
Tb1141 O1150 2.271 . S
Tb1141 O1152 2.338 . S
Tb1141 O1159 2.441 . S
C1142 O1150 1.252 . S
C1142 O1151 1.253 . S
O1143 Tb1144 2.271 . S
O1143 C1153 1.252 . S
Tb1144 O1143 2.271 . S
Tb1144 O1147 2.338 . S
Tb1144 O1151 2.312 . S
Tb1144 O1155 2.441 . S
Tb1144 O1156 2.506 . S
C1145 O1155 1.244 . S
C1145 O1156 1.265 . S
O1146 Tb1141 2.312 . S
O1146 C1153 1.253 . S
O1147 Tb1144 2.338 . S
O1147 C1148 1.258 . S
C1148 O1147 1.258 . S
C1148 O1149 1.251 . S
O1149 C1148 1.251 . S
O1150 Tb1141 2.271 . S
O1150 C1142 1.252 . S
O1151 C1142 1.253 . S
O1151 Tb1144 2.312 . S
O1152 Tb1141 2.338 . S
O1152 C1157 1.258 . S
C1153 O1143 1.252 . S
C1153 O1146 1.253 . S
C1154 O1140 1.265 . S
C1154 O1159 1.244 . S
O1155 Tb1144 2.441 . S
O1155 C1145 1.244 . S
O1156 Tb1144 2.506 . S
O1156 C1145 1.265 . S
C1157 O1152 1.258 . S
C1157 O1158 1.251 . S
O1158 C1157 1.251 . S
O1159 Tb1141 2.441 . S
O1159 C1154 1.244 . S
O1160 Tb1161 2.506 . S
O1160 C1174 1.265 . S
Tb1161 O1160 2.506 . S
Tb1161 O1166 2.312 . S
Tb1161 O1170 2.271 . S
Tb1161 O1172 2.338 . S
Tb1161 O1179 2.441 . S
C1162 O1170 1.252 . S
C1162 O1171 1.253 . S
O1163 Tb1164 2.271 . S
O1163 C1173 1.252 . S
Tb1164 O1163 2.271 . S
Tb1164 O1167 2.338 . S
Tb1164 O1171 2.312 . S
Tb1164 O1175 2.441 . S
Tb1164 O1176 2.506 . S
C1165 O1175 1.244 . S
C1165 O1176 1.265 . S
O1166 Tb1161 2.312 . S
O1166 C1173 1.253 . S
O1167 Tb1164 2.338 . S
O1167 C1168 1.258 . S
C1168 O1167 1.258 . S
C1168 O1169 1.251 . S
O1169 C1168 1.251 . S
O1170 Tb1161 2.271 . S
O1170 C1162 1.252 . S
O1171 C1162 1.253 . S
O1171 Tb1164 2.312 . S
O1172 Tb1161 2.338 . S
O1172 C1177 1.258 . S
C1173 O1163 1.252 . S
C1173 O1166 1.253 . S
C1174 O1160 1.265 . S
C1174 O1179 1.244 . S
O1175 Tb1164 2.441 . S
O1175 C1165 1.244 . S
O1176 Tb1164 2.506 . S
O1176 C1165 1.265 . S
C1177 O1172 1.258 . S
C1177 O1178 1.251 . S
O1178 C1177 1.251 . S
O1179 Tb1161 2.441 . S
O1179 C1174 1.244 . S
O1180 Tb1181 2.506 . S
O1180 C1194 1.265 . S
Tb1181 O1180 2.506 . S
Tb1181 O1186 2.312 . S
Tb1181 O1190 2.271 . S
Tb1181 O1192 2.338 . S
Tb1181 O1199 2.441 . S
C1182 O1190 1.252 . S
C1182 O1191 1.253 . S
O1183 Tb1184 2.271 . S
O1183 C1193 1.252 . S
Tb1184 O1183 2.271 . S
Tb1184 O1187 2.338 . S
Tb1184 O1191 2.312 . S
Tb1184 O1195 2.441 . S
Tb1184 O1196 2.506 . S
C1185 O1195 1.244 . S
C1185 O1196 1.265 . S
O1186 Tb1181 2.312 . S
O1186 C1193 1.253 . S
O1187 Tb1184 2.338 . S
O1187 C1188 1.258 . S
C1188 O1187 1.258 . S
C1188 O1189 1.251 . S
O1189 C1188 1.251 . S
O1190 Tb1181 2.271 . S
O1190 C1182 1.252 . S
O1191 C1182 1.253 . S
O1191 Tb1184 2.312 . S
O1192 Tb1181 2.338 . S
O1192 C1197 1.258 . S
C1193 O1183 1.252 . S
C1193 O1186 1.253 . S
C1194 O1180 1.265 . S
C1194 O1199 1.244 . S
O1195 Tb1184 2.441 . S
O1195 C1185 1.244 . S
O1196 Tb1184 2.506 . S
O1196 C1185 1.265 . S
C1197 O1192 1.258 . S
C1197 O1198 1.251 . S
O1198 C1197 1.251 . S
O1199 Tb1181 2.441 . S
O1199 C1194 1.244 . S
O1200 Tb1201 2.506 . S
O1200 C1214 1.265 . S
Tb1201 O1200 2.506 . S
Tb1201 O1206 2.312 . S
Tb1201 O1210 2.271 . S
Tb1201 O1212 2.338 . S
Tb1201 O1219 2.441 . S
C1202 O1210 1.252 . S
C1202 O1211 1.253 . S
O1203 Tb1204 2.271 . S
O1203 C1213 1.252 . S
Tb1204 O1203 2.271 . S
Tb1204 O1207 2.338 . S
Tb1204 O1211 2.312 . S
Tb1204 O1215 2.441 . S
Tb1204 O1216 2.506 . S
C1205 O1215 1.244 . S
C1205 O1216 1.265 . S
O1206 Tb1201 2.312 . S
O1206 C1213 1.253 . S
O1207 Tb1204 2.338 . S
O1207 C1208 1.258 . S
C1208 O1207 1.258 . S
C1208 O1209 1.251 . S
O1209 C1208 1.251 . S
O1210 Tb1201 2.271 . S
O1210 C1202 1.252 . S
O1211 C1202 1.253 . S
O1211 Tb1204 2.312 . S
O1212 Tb1201 2.338 . S
O1212 C1217 1.258 . S
C1213 O1203 1.252 . S
C1213 O1206 1.253 . S
C1214 O1200 1.265 . S
C1214 O1219 1.244 . S
O1215 Tb1204 2.441 . S
O1215 C1205 1.244 . S
O1216 Tb1204 2.506 . S
O1216 C1205 1.265 . S
C1217 O1212 1.258 . S
C1217 O1218 1.251 . S
O1218 C1217 1.251 . S
O1219 Tb1201 2.441 . S
O1219 C1214 1.244 . S
O1220 Tb1221 2.506 . S
O1220 C1234 1.265 . S
Tb1221 O1220 2.506 . S
Tb1221 O1226 2.312 . S
Tb1221 O1230 2.271 . S
Tb1221 O1232 2.338 . S
Tb1221 O1239 2.441 . S
C1222 O1230 1.252 . S
C1222 O1231 1.253 . S
O1223 Tb1224 2.271 . S
O1223 C1233 1.252 . S
Tb1224 O1223 2.271 . S
Tb1224 O1227 2.338 . S
Tb1224 O1231 2.312 . S
Tb1224 O1235 2.441 . S
Tb1224 O1236 2.506 . S
C1225 O1235 1.244 . S
C1225 O1236 1.265 . S
O1226 Tb1221 2.312 . S
O1226 C1233 1.253 . S
O1227 Tb1224 2.338 . S
O1227 C1228 1.258 . S
C1228 O1227 1.258 . S
C1228 O1229 1.251 . S
O1229 C1228 1.251 . S
O1230 Tb1221 2.271 . S
O1230 C1222 1.252 . S
O1231 C1222 1.253 . S
O1231 Tb1224 2.312 . S
O1232 Tb1221 2.338 . S
O1232 C1237 1.258 . S
C1233 O1223 1.252 . S
C1233 O1226 1.253 . S
C1234 O1220 1.265 . S
C1234 O1239 1.244 . S
O1235 Tb1224 2.441 . S
O1235 C1225 1.244 . S
O1236 Tb1224 2.506 . S
O1236 C1225 1.265 . S
C1237 O1232 1.258 . S
C1237 O1238 1.251 . S
O1238 C1237 1.251 . S
O1239 Tb1221 2.441 . S
O1239 C1234 1.244 . S
O1240 Tb1241 2.506 . S
O1240 C1254 1.265 . S
Tb1241 O1240 2.506 . S
Tb1241 O1246 2.312 . S
Tb1241 O1250 2.271 . S
Tb1241 O1252 2.338 . S
Tb1241 O1259 2.441 . S
C1242 O1250 1.252 . S
C1242 O1251 1.253 . S
O1243 Tb1244 2.271 . S
O1243 C1253 1.252 . S
Tb1244 O1243 2.271 . S
Tb1244 O1247 2.338 . S
Tb1244 O1251 2.312 . S
Tb1244 O1255 2.441 . S
Tb1244 O1256 2.506 . S
C1245 O1255 1.244 . S
C1245 O1256 1.265 . S
O1246 Tb1241 2.312 . S
O1246 C1253 1.253 . S
O1247 Tb1244 2.338 . S
O1247 C1248 1.258 . S
C1248 O1247 1.258 . S
C1248 O1249 1.251 . S
O1249 C1248 1.251 . S
O1250 Tb1241 2.271 . S
O1250 C1242 1.252 . S
O1251 C1242 1.253 . S
O1251 Tb1244 2.312 . S
O1252 Tb1241 2.338 . S
O1252 C1257 1.258 . S
C1253 O1243 1.252 . S
C1253 O1246 1.253 . S
C1254 O1240 1.265 . S
C1254 O1259 1.244 . S
O1255 Tb1244 2.441 . S
O1255 C1245 1.244 . S
O1256 Tb1244 2.506 . S
O1256 C1245 1.265 . S
C1257 O1252 1.258 . S
C1257 O1258 1.251 . S
O1258 C1257 1.251 . S
O1259 Tb1241 2.441 . S
O1259 C1254 1.244 . S
O1260 Tb1261 2.506 . S
O1260 C1274 1.265 . S
Tb1261 O1260 2.506 . S
Tb1261 O1266 2.312 . S
Tb1261 O1270 2.271 . S
Tb1261 O1272 2.338 . S
Tb1261 O1279 2.441 . S
C1262 O1270 1.252 . S
C1262 O1271 1.253 . S
O1263 Tb1264 2.271 . S
O1263 C1273 1.252 . S
Tb1264 O1263 2.271 . S
Tb1264 O1267 2.338 . S
Tb1264 O1271 2.312 . S
Tb1264 O1275 2.441 . S
Tb1264 O1276 2.506 . S
C1265 O1275 1.244 . S
C1265 O1276 1.265 . S
O1266 Tb1261 2.312 . S
O1266 C1273 1.253 . S
O1267 Tb1264 2.338 . S
O1267 C1268 1.258 . S
C1268 O1267 1.258 . S
C1268 O1269 1.251 . S
O1269 C1268 1.251 . S
O1270 Tb1261 2.271 . S
O1270 C1262 1.252 . S
O1271 C1262 1.253 . S
O1271 Tb1264 2.312 . S
O1272 Tb1261 2.338 . S
O1272 C1277 1.258 . S
C1273 O1263 1.252 . S
C1273 O1266 1.253 . S
C1274 O1260 1.265 . S
C1274 O1279 1.244 . S
O1275 Tb1264 2.441 . S
O1275 C1265 1.244 . S
O1276 Tb1264 2.506 . S
O1276 C1265 1.265 . S
C1277 O1272 1.258 . S
C1277 O1278 1.251 . S
O1278 C1277 1.251 . S
O1279 Tb1261 2.441 . S
O1279 C1274 1.244 . S
O1280 Tb1281 2.506 . S
O1280 C1294 1.265 . S
Tb1281 O1280 2.506 . S
Tb1281 O1286 2.312 . S
Tb1281 O1290 2.271 . S
Tb1281 O1292 2.338 . S
Tb1281 O1299 2.441 . S
C1282 O1290 1.252 . S
C1282 O1291 1.253 . S
O1283 Tb1284 2.271 . S
O1283 C1293 1.252 . S
Tb1284 O1283 2.271 . S
Tb1284 O1287 2.338 . S
Tb1284 O1291 2.312 . S
Tb1284 O1295 2.441 . S
Tb1284 O1296 2.506 . S
C1285 O1295 1.244 . S
C1285 O1296 1.265 . S
O1286 Tb1281 2.312 . S
O1286 C1293 1.253 . S
O1287 Tb1284 2.338 . S
O1287 C1288 1.258 . S
C1288 O1287 1.258 . S
C1288 O1289 1.251 . S
O1289 C1288 1.251 . S
O1290 Tb1281 2.271 . S
O1290 C1282 1.252 . S
O1291 C1282 1.253 . S
O1291 Tb1284 2.312 . S
O1292 Tb1281 2.338 . S
O1292 C1297 1.258 . S
C1293 O1283 1.252 . S
C1293 O1286 1.253 . S
C1294 O1280 1.265 . S
C1294 O1299 1.244 . S
O1295 Tb1284 2.441 . S
O1295 C1285 1.244 . S
O1296 Tb1284 2.506 . S
O1296 C1285 1.265 . S
C1297 O1292 1.258 . S
C1297 O1298 1.251 . S
O1298 C1297 1.251 . S
O1299 Tb1281 2.441 . S
O1299 C1294 1.244 . S
O1300 Tb1301 2.506 . S
O1300 C1314 1.265 . S
Tb1301 O1300 2.506 . S
Tb1301 O1306 2.312 . S
Tb1301 O1310 2.271 . S
Tb1301 O1312 2.338 . S
Tb1301 O1319 2.441 . S
C1302 O1310 1.252 . S
C1302 O1311 1.253 . S
O1303 Tb1304 2.271 . S
O1303 C1313 1.252 . S
Tb1304 O1303 2.271 . S
Tb1304 O1307 2.338 . S
Tb1304 O1311 2.312 . S
Tb1304 O1315 2.441 . S
Tb1304 O1316 2.506 . S
C1305 O1315 1.244 . S
C1305 O1316 1.265 . S
O1306 Tb1301 2.312 . S
O1306 C1313 1.253 . S
O1307 Tb1304 2.338 . S
O1307 C1308 1.258 . S
C1308 O1307 1.258 . S
C1308 O1309 1.251 . S
O1309 C1308 1.251 . S
O1310 Tb1301 2.271 . S
O1310 C1302 1.252 . S
O1311 C1302 1.253 . S
O1311 Tb1304 2.312 . S
O1312 Tb1301 2.338 . S
O1312 C1317 1.258 . S
C1313 O1303 1.252 . S
C1313 O1306 1.253 . S
C1314 O1300 1.265 . S
C1314 O1319 1.244 . S
O1315 Tb1304 2.441 . S
O1315 C1305 1.244 . S
O1316 Tb1304 2.506 . S
O1316 C1305 1.265 . S
C1317 O1312 1.258 . S
C1317 O1318 1.251 . S
O1318 C1317 1.251 . S
O1319 Tb1301 2.441 . S
O1319 C1314 1.244 . S
O1320 Tb1321 2.506 . S
O1320 C1334 1.265 . S
Tb1321 O1320 2.506 . S
Tb1321 O1326 2.312 . S
Tb1321 O1330 2.271 . S
Tb1321 O1332 2.338 . S
Tb1321 O1339 2.441 . S
C1322 O1330 1.252 . S
C1322 O1331 1.253 . S
O1323 Tb1324 2.271 . S
O1323 C1333 1.252 . S
Tb1324 O1323 2.271 . S
Tb1324 O1327 2.338 . S
Tb1324 O1331 2.312 . S
Tb1324 O1335 2.441 . S
Tb1324 O1336 2.506 . S
C1325 O1335 1.244 . S
C1325 O1336 1.265 . S
O1326 Tb1321 2.312 . S
O1326 C1333 1.253 . S
O1327 Tb1324 2.338 . S
O1327 C1328 1.258 . S
C1328 O1327 1.258 . S
C1328 O1329 1.251 . S
O1329 C1328 1.251 . S
O1330 Tb1321 2.271 . S
O1330 C1322 1.252 . S
O1331 C1322 1.253 . S
O1331 Tb1324 2.312 . S
O1332 Tb1321 2.338 . S
O1332 C1337 1.258 . S
C1333 O1323 1.252 . S
C1333 O1326 1.253 . S
C1334 O1320 1.265 . S
C1334 O1339 1.244 . S
O1335 Tb1324 2.441 . S
O1335 C1325 1.244 . S
O1336 Tb1324 2.506 . S
O1336 C1325 1.265 . S
C1337 O1332 1.258 . S
C1337 O1338 1.251 . S
O1338 C1337 1.251 . S
O1339 Tb1321 2.441 . S
O1339 C1334 1.244 . S
O1340 Tb1341 2.506 . S
O1340 C1354 1.265 . S
Tb1341 O1340 2.506 . S
Tb1341 O1346 2.312 . S
Tb1341 O1350 2.271 . S
Tb1341 O1352 2.338 . S
Tb1341 O1359 2.441 . S
C1342 O1350 1.252 . S
C1342 O1351 1.253 . S
O1343 Tb1344 2.271 . S
O1343 C1353 1.252 . S
Tb1344 O1343 2.271 . S
Tb1344 O1347 2.338 . S
Tb1344 O1351 2.312 1_554 S
Tb1344 O1355 2.441 . S
Tb1344 O1356 2.506 . S
C1345 O1355 1.244 . S
C1345 O1356 1.265 . S
O1346 Tb1341 2.312 . S
O1346 C1353 1.253 1_556 S
O1347 Tb1344 2.338 . S
O1347 C1348 1.258 . S
C1348 O1347 1.258 . S
C1348 O1349 1.251 . S
O1349 C1348 1.251 . S
O1350 Tb1341 2.271 . S
O1350 C1342 1.252 . S
O1351 C1342 1.253 . S
O1351 Tb1344 2.312 1_556 S
O1352 Tb1341 2.338 . S
O1352 C1357 1.258 . S
C1353 O1343 1.252 . S
C1353 O1346 1.253 1_554 S
C1354 O1340 1.265 . S
C1354 O1359 1.244 . S
O1355 Tb1344 2.441 . S
O1355 C1345 1.244 . S
O1356 Tb1344 2.506 . S
O1356 C1345 1.265 . S
C1357 O1352 1.258 . S
C1357 O1358 1.251 . S
O1358 C1357 1.251 . S
O1359 Tb1341 2.441 . S
O1359 C1354 1.244 . S
O1360 Tb1361 2.506 . S
O1360 C1374 1.265 . S
Tb1361 O1360 2.506 . S
Tb1361 O1366 2.312 . S
Tb1361 O1370 2.271 . S
Tb1361 O1372 2.338 . S
Tb1361 O1379 2.441 . S
C1362 O1370 1.252 . S
C1362 O1371 1.253 . S
O1363 Tb1364 2.271 . S
O1363 C1373 1.252 . S
Tb1364 O1363 2.271 . S
Tb1364 O1367 2.338 . S
Tb1364 O1371 2.312 . S
Tb1364 O1375 2.441 . S
Tb1364 O1376 2.506 . S
C1365 O1375 1.244 . S
C1365 O1376 1.265 . S
O1366 Tb1361 2.312 . S
O1366 C1373 1.253 . S
O1367 Tb1364 2.338 . S
O1367 C1368 1.258 . S
C1368 O1367 1.258 . S
C1368 O1369 1.251 . S
O1369 C1368 1.251 . S
O1370 Tb1361 2.271 . S
O1370 C1362 1.252 . S
O1371 C1362 1.253 . S
O1371 Tb1364 2.312 . S
O1372 Tb1361 2.338 . S
O1372 C1377 1.258 . S
C1373 O1363 1.252 . S
C1373 O1366 1.253 . S
C1374 O1360 1.265 . S
C1374 O1379 1.244 . S
O1375 Tb1364 2.441 . S
O1375 C1365 1.244 . S
O1376 Tb1364 2.506 . S
O1376 C1365 1.265 . S
C1377 O1372 1.258 . S
C1377 O1378 1.251 . S
O1378 C1377 1.251 . S
O1379 Tb1361 2.441 . S
O1379 C1374 1.244 . S
O1380 Tb1381 2.506 . S
O1380 C1394 1.265 . S
Tb1381 O1380 2.506 . S
Tb1381 O1386 2.312 . S
Tb1381 O1390 2.271 . S
Tb1381 O1392 2.338 . S
Tb1381 O1399 2.441 . S
C1382 O1390 1.252 . S
C1382 O1391 1.253 . S
O1383 Tb1384 2.271 . S
O1383 C1393 1.252 . S
Tb1384 O1383 2.271 . S
Tb1384 O1387 2.338 . S
Tb1384 O1391 2.312 1_556 S
Tb1384 O1395 2.441 . S
Tb1384 O1396 2.506 . S
C1385 O1395 1.244 . S
C1385 O1396 1.265 . S
O1386 Tb1381 2.312 . S
O1386 C1393 1.253 1_554 S
O1387 Tb1384 2.338 . S
O1387 C1388 1.258 . S
C1388 O1387 1.258 . S
C1388 O1389 1.251 . S
O1389 C1388 1.251 . S
O1390 Tb1381 2.271 . S
O1390 C1382 1.252 . S
O1391 C1382 1.253 . S
O1391 Tb1384 2.312 1_554 S
O1392 Tb1381 2.338 . S
O1392 C1397 1.258 . S
C1393 O1383 1.252 . S
C1393 O1386 1.253 1_556 S
C1394 O1380 1.265 . S
C1394 O1399 1.244 . S
O1395 Tb1384 2.441 . S
O1395 C1385 1.244 . S
O1396 Tb1384 2.506 . S
O1396 C1385 1.265 . S
C1397 O1392 1.258 . S
C1397 O1398 1.251 . S
O1398 C1397 1.251 . S
O1399 Tb1381 2.441 . S
O1399 C1394 1.244 . S
O1400 Tb1401 2.506 . S
O1400 C1414 1.265 . S
Tb1401 O1400 2.506 . S
Tb1401 O1406 2.312 . S
Tb1401 O1410 2.271 . S
Tb1401 O1412 2.338 . S
Tb1401 O1419 2.441 . S
C1402 O1410 1.252 . S
C1402 O1411 1.253 . S
O1403 Tb1404 2.271 . S
O1403 C1413 1.252 . S
Tb1404 O1403 2.271 . S
Tb1404 O1407 2.338 . S
Tb1404 O1411 2.312 . S
Tb1404 O1415 2.441 . S
Tb1404 O1416 2.506 . S
C1405 O1415 1.244 . S
C1405 O1416 1.265 . S
O1406 Tb1401 2.312 . S
O1406 C1413 1.253 . S
O1407 Tb1404 2.338 . S
O1407 C1408 1.258 . S
C1408 O1407 1.258 . S
C1408 O1409 1.251 . S
O1409 C1408 1.251 . S
O1410 Tb1401 2.271 . S
O1410 C1402 1.252 . S
O1411 C1402 1.253 . S
O1411 Tb1404 2.312 . S
O1412 Tb1401 2.338 . S
O1412 C1417 1.258 . S
C1413 O1403 1.252 . S
C1413 O1406 1.253 . S
C1414 O1400 1.265 . S
C1414 O1419 1.244 . S
O1415 Tb1404 2.441 . S
O1415 C1405 1.244 . S
O1416 Tb1404 2.506 . S
O1416 C1405 1.265 . S
C1417 O1412 1.258 . S
C1417 O1418 1.251 . S
O1418 C1417 1.251 . S
O1419 Tb1401 2.441 . S
O1419 C1414 1.244 . S
O1420 Tb1421 2.506 . S
O1420 C1434 1.265 . S
Tb1421 O1420 2.506 . S
Tb1421 O1426 2.312 . S
Tb1421 O1430 2.271 . S
Tb1421 O1432 2.338 . S
Tb1421 O1439 2.441 . S
C1422 O1430 1.252 . S
C1422 O1431 1.253 . S
O1423 Tb1424 2.271 . S
O1423 C1433 1.252 . S
Tb1424 O1423 2.271 . S
Tb1424 O1427 2.338 . S
Tb1424 O1431 2.312 . S
Tb1424 O1435 2.441 . S
Tb1424 O1436 2.506 . S
C1425 O1435 1.244 . S
C1425 O1436 1.265 . S
O1426 Tb1421 2.312 . S
O1426 C1433 1.253 . S
O1427 Tb1424 2.338 . S
O1427 C1428 1.258 . S
C1428 O1427 1.258 . S
C1428 O1429 1.251 . S
O1429 C1428 1.251 . S
O1430 Tb1421 2.271 . S
O1430 C1422 1.252 . S
O1431 C1422 1.253 . S
O1431 Tb1424 2.312 . S
O1432 Tb1421 2.338 . S
O1432 C1437 1.258 . S
C1433 O1423 1.252 . S
C1433 O1426 1.253 . S
C1434 O1420 1.265 . S
C1434 O1439 1.244 . S
O1435 Tb1424 2.441 . S
O1435 C1425 1.244 . S
O1436 Tb1424 2.506 . S
O1436 C1425 1.265 . S
C1437 O1432 1.258 . S
C1437 O1438 1.251 . S
O1438 C1437 1.251 . S
O1439 Tb1421 2.441 . S
O1439 C1434 1.244 . S
O1440 Tb1441 2.506 . S
O1440 C1454 1.265 . S
Tb1441 O1440 2.506 . S
Tb1441 O1446 2.312 . S
Tb1441 O1450 2.271 . S
Tb1441 O1452 2.338 . S
Tb1441 O1459 2.441 . S
C1442 O1450 1.252 . S
C1442 O1451 1.253 . S
O1443 Tb1444 2.271 . S
O1443 C1453 1.252 . S
Tb1444 O1443 2.271 . S
Tb1444 O1447 2.338 . S
Tb1444 O1451 2.312 . S
Tb1444 O1455 2.441 . S
Tb1444 O1456 2.506 . S
C1445 O1455 1.244 . S
C1445 O1456 1.265 . S
O1446 Tb1441 2.312 . S
O1446 C1453 1.253 . S
O1447 Tb1444 2.338 . S
O1447 C1448 1.258 . S
C1448 O1447 1.258 . S
C1448 O1449 1.251 . S
O1449 C1448 1.251 . S
O1450 Tb1441 2.271 . S
O1450 C1442 1.252 . S
O1451 C1442 1.253 . S
O1451 Tb1444 2.312 . S
O1452 Tb1441 2.338 . S
O1452 C1457 1.258 . S
C1453 O1443 1.252 . S
C1453 O1446 1.253 . S
C1454 O1440 1.265 . S
C1454 O1459 1.244 . S
O1455 Tb1444 2.441 . S
O1455 C1445 1.244 . S
O1456 Tb1444 2.506 . S
O1456 C1445 1.265 . S
C1457 O1452 1.258 . S
C1457 O1458 1.251 . S
O1458 C1457 1.251 . S
O1459 Tb1441 2.441 . S
O1459 C1454 1.244 . S
O1460 Tb1461 2.506 . S
O1460 C1474 1.265 . S
Tb1461 O1460 2.506 . S
Tb1461 O1466 2.312 . S
Tb1461 O1470 2.271 . S
Tb1461 O1472 2.338 . S
Tb1461 O1479 2.441 . S
C1462 O1470 1.252 . S
C1462 O1471 1.253 . S
O1463 Tb1464 2.271 . S
O1463 C1473 1.252 . S
Tb1464 O1463 2.271 . S
Tb1464 O1467 2.338 . S
Tb1464 O1471 2.312 . S
Tb1464 O1475 2.441 . S
Tb1464 O1476 2.506 . S
C1465 O1475 1.244 . S
C1465 O1476 1.265 . S
O1466 Tb1461 2.312 . S
O1466 C1473 1.253 . S
O1467 Tb1464 2.338 . S
O1467 C1468 1.258 . S
C1468 O1467 1.258 . S
C1468 O1469 1.251 . S
O1469 C1468 1.251 . S
O1470 Tb1461 2.271 . S
O1470 C1462 1.252 . S
O1471 C1462 1.253 . S
O1471 Tb1464 2.312 . S
O1472 Tb1461 2.338 . S
O1472 C1477 1.258 . S
C1473 O1463 1.252 . S
C1473 O1466 1.253 . S
C1474 O1460 1.265 . S
C1474 O1479 1.244 . S
O1475 Tb1464 2.441 . S
O1475 C1465 1.244 . S
O1476 Tb1464 2.506 . S
O1476 C1465 1.265 . S
C1477 O1472 1.258 . S
C1477 O1478 1.251 . S
O1478 C1477 1.251 . S
O1479 Tb1461 2.441 . S
O1479 C1474 1.244 . S
O1480 Tb1481 2.506 . S
O1480 C1494 1.265 . S
Tb1481 O1480 2.506 . S
Tb1481 O1486 2.312 . S
Tb1481 O1490 2.271 . S
Tb1481 O1492 2.338 . S
Tb1481 O1499 2.441 . S
C1482 O1490 1.252 . S
C1482 O1491 1.253 . S
O1483 Tb1484 2.271 . S
O1483 C1493 1.252 . S
Tb1484 O1483 2.271 . S
Tb1484 O1487 2.338 . S
Tb1484 O1491 2.312 1_655 S
Tb1484 O1495 2.441 . S
Tb1484 O1496 2.506 . S
C1485 O1495 1.244 . S
C1485 O1496 1.265 . S
O1486 Tb1481 2.312 . S
O1486 C1493 1.253 1_455 S
O1487 Tb1484 2.338 . S
O1487 C1488 1.258 . S
C1488 O1487 1.258 . S
C1488 O1489 1.251 . S
O1489 C1488 1.251 . S
O1490 Tb1481 2.271 . S
O1490 C1482 1.252 . S
O1491 C1482 1.253 . S
O1491 Tb1484 2.312 1_455 S
O1492 Tb1481 2.338 . S
O1492 C1497 1.258 . S
C1493 O1483 1.252 . S
C1493 O1486 1.253 1_655 S
C1494 O1480 1.265 . S
C1494 O1499 1.244 . S
O1495 Tb1484 2.441 . S
O1495 C1485 1.244 . S
O1496 Tb1484 2.506 . S
O1496 C1485 1.265 . S
C1497 O1492 1.258 . S
C1497 O1498 1.251 . S
O1498 C1497 1.251 . S
O1499 Tb1481 2.441 . S
O1499 C1494 1.244 . S
O1500 Tb1501 2.506 . S
O1500 C1514 1.265 . S
Tb1501 O1500 2.506 . S
Tb1501 O1506 2.312 . S
Tb1501 O1510 2.271 . S
Tb1501 O1512 2.338 . S
Tb1501 O1519 2.441 . S
C1502 O1510 1.252 . S
C1502 O1511 1.253 . S
O1503 Tb1504 2.271 . S
O1503 C1513 1.252 . S
Tb1504 O1503 2.271 . S
Tb1504 O1507 2.338 . S
Tb1504 O1511 2.312 . S
Tb1504 O1515 2.441 . S
Tb1504 O1516 2.506 . S
C1505 O1515 1.244 . S
C1505 O1516 1.265 . S
O1506 Tb1501 2.312 . S
O1506 C1513 1.253 . S
O1507 Tb1504 2.338 . S
O1507 C1508 1.258 . S
C1508 O1507 1.258 . S
C1508 O1509 1.251 . S
O1509 C1508 1.251 . S
O1510 Tb1501 2.271 . S
O1510 C1502 1.252 . S
O1511 C1502 1.253 . S
O1511 Tb1504 2.312 . S
O1512 Tb1501 2.338 . S
O1512 C1517 1.258 . S
C1513 O1503 1.252 . S
C1513 O1506 1.253 . S
C1514 O1500 1.265 . S
C1514 O1519 1.244 . S
O1515 Tb1504 2.441 . S
O1515 C1505 1.244 . S
O1516 Tb1504 2.506 . S
O1516 C1505 1.265 . S
C1517 O1512 1.258 . S
C1517 O1518 1.251 . S
O1518 C1517 1.251 . S
O1519 Tb1501 2.441 . S
O1519 C1514 1.244 . S
O1520 Tb1521 2.506 . S
O1520 C1534 1.265 . S
Tb1521 O1520 2.506 . S
Tb1521 O1526 2.312 . S
Tb1521 O1530 2.271 . S
Tb1521 O1532 2.338 . S
Tb1521 O1539 2.441 . S
C1522 O1530 1.252 . S
C1522 O1531 1.253 . S
O1523 Tb1524 2.271 . S
O1523 C1533 1.252 . S
Tb1524 O1523 2.271 . S
Tb1524 O1527 2.338 . S
Tb1524 O1531 2.312 . S
Tb1524 O1535 2.441 . S
Tb1524 O1536 2.506 . S
C1525 O1535 1.244 . S
C1525 O1536 1.265 . S
O1526 Tb1521 2.312 . S
O1526 C1533 1.253 . S
O1527 Tb1524 2.338 . S
O1527 C1528 1.258 . S
C1528 O1527 1.258 . S
C1528 O1529 1.251 . S
O1529 C1528 1.251 . S
O1530 Tb1521 2.271 . S
O1530 C1522 1.252 . S
O1531 C1522 1.253 . S
O1531 Tb1524 2.312 . S
O1532 Tb1521 2.338 . S
O1532 C1537 1.258 . S
C1533 O1523 1.252 . S
C1533 O1526 1.253 . S
C1534 O1520 1.265 . S
C1534 O1539 1.244 . S
O1535 Tb1524 2.441 . S
O1535 C1525 1.244 . S
O1536 Tb1524 2.506 . S
O1536 C1525 1.265 . S
C1537 O1532 1.258 . S
C1537 O1538 1.251 . S
O1538 C1537 1.251 . S
O1539 Tb1521 2.441 . S
O1539 C1534 1.244 . S
O1540 Tb1541 2.506 . S
O1540 C1554 1.265 . S
Tb1541 O1540 2.506 . S
Tb1541 O1546 2.312 . S
Tb1541 O1550 2.271 . S
Tb1541 O1552 2.338 . S
Tb1541 O1559 2.441 . S
C1542 O1550 1.252 . S
C1542 O1551 1.253 . S
O1543 Tb1544 2.271 . S
O1543 C1553 1.252 . S
Tb1544 O1543 2.271 . S
Tb1544 O1547 2.338 . S
Tb1544 O1551 2.312 . S
Tb1544 O1555 2.441 . S
Tb1544 O1556 2.506 . S
C1545 O1555 1.244 . S
C1545 O1556 1.265 . S
O1546 Tb1541 2.312 . S
O1546 C1553 1.253 . S
O1547 Tb1544 2.338 . S
O1547 C1548 1.258 . S
C1548 O1547 1.258 . S
C1548 O1549 1.251 . S
O1549 C1548 1.251 . S
O1550 Tb1541 2.271 . S
O1550 C1542 1.252 . S
O1551 C1542 1.253 . S
O1551 Tb1544 2.312 . S
O1552 Tb1541 2.338 . S
O1552 C1557 1.258 . S
C1553 O1543 1.252 . S
C1553 O1546 1.253 . S
C1554 O1540 1.265 . S
C1554 O1559 1.244 . S
O1555 Tb1544 2.441 . S
O1555 C1545 1.244 . S
O1556 Tb1544 2.506 . S
O1556 C1545 1.265 . S
C1557 O1552 1.258 . S
C1557 O1558 1.251 . S
O1558 C1557 1.251 . S
O1559 Tb1541 2.441 . S
O1559 C1554 1.244 . S
O1560 Tb1561 2.506 . S
O1560 C1574 1.265 . S
Tb1561 O1560 2.506 . S
Tb1561 O1566 2.312 . S
Tb1561 O1570 2.271 . S
Tb1561 O1572 2.338 . S
Tb1561 O1579 2.441 . S
C1562 O1570 1.252 . S
C1562 O1571 1.253 . S
O1563 Tb1564 2.271 . S
O1563 C1573 1.252 . S
Tb1564 O1563 2.271 . S
Tb1564 O1567 2.338 . S
Tb1564 O1571 2.312 1_655 S
Tb1564 O1575 2.441 . S
Tb1564 O1576 2.506 . S
C1565 O1575 1.244 . S
C1565 O1576 1.265 . S
O1566 Tb1561 2.312 . S
O1566 C1573 1.253 1_455 S
O1567 Tb1564 2.338 . S
O1567 C1568 1.258 . S
C1568 O1567 1.258 . S
C1568 O1569 1.251 . S
O1569 C1568 1.251 . S
O1570 Tb1561 2.271 . S
O1570 C1562 1.252 . S
O1571 C1562 1.253 . S
O1571 Tb1564 2.312 1_455 S
O1572 Tb1561 2.338 . S
O1572 C1577 1.258 . S
C1573 O1563 1.252 . S
C1573 O1566 1.253 1_655 S
C1574 O1560 1.265 . S
C1574 O1579 1.244 . S
O1575 Tb1564 2.441 . S
O1575 C1565 1.244 . S
O1576 Tb1564 2.506 . S
O1576 C1565 1.265 . S
C1577 O1572 1.258 . S
C1577 O1578 1.251 . S
O1578 C1577 1.251 . S
O1579 Tb1561 2.441 . S
O1579 C1574 1.244 . S
O1580 Tb1581 2.506 . S
O1580 C1594 1.265 . S
Tb1581 O1580 2.506 . S
Tb1581 O1586 2.312 . S
Tb1581 O1590 2.271 . S
Tb1581 O1592 2.338 . S
Tb1581 O1599 2.441 . S
C1582 O1590 1.252 . S
C1582 O1591 1.253 . S
O1583 Tb1584 2.271 . S
O1583 C1593 1.252 . S
Tb1584 O1583 2.271 . S
Tb1584 O1587 2.338 . S
Tb1584 O1591 2.312 . S
Tb1584 O1595 2.441 . S
Tb1584 O1596 2.506 . S
C1585 O1595 1.244 . S
C1585 O1596 1.265 . S
O1586 Tb1581 2.312 . S
O1586 C1593 1.253 . S
O1587 Tb1584 2.338 . S
O1587 C1588 1.258 . S
C1588 O1587 1.258 . S
C1588 O1589 1.251 . S
O1589 C1588 1.251 . S
O1590 Tb1581 2.271 . S
O1590 C1582 1.252 . S
O1591 C1582 1.253 . S
O1591 Tb1584 2.312 . S
O1592 Tb1581 2.338 . S
O1592 C1597 1.258 . S
C1593 O1583 1.252 . S
C1593 O1586 1.253 . S
C1594 O1580 1.265 . S
C1594 O1599 1.244 . S
O1595 Tb1584 2.441 . S
O1595 C1585 1.244 . S
O1596 Tb1584 2.506 . S
O1596 C1585 1.265 . S
C1597 O1592 1.258 . S
C1597 O1598 1.251 . S
O1598 C1597 1.251 . S
O1599 Tb1581 2.441 . S
O1599 C1594 1.244 . S
O1600 Tb1601 2.506 . S
O1600 C1614 1.265 . S
Tb1601 O1600 2.506 . S
Tb1601 O1606 2.312 . S
Tb1601 O1610 2.271 . S
Tb1601 O1612 2.338 . S
Tb1601 O1619 2.441 . S
C1602 O1610 1.252 . S
C1602 O1611 1.253 . S
O1603 Tb1604 2.271 . S
O1603 C1613 1.252 . S
Tb1604 O1603 2.271 . S
Tb1604 O1607 2.338 . S
Tb1604 O1611 2.312 . S
Tb1604 O1615 2.441 . S
Tb1604 O1616 2.506 . S
C1605 O1615 1.244 . S
C1605 O1616 1.265 . S
O1606 Tb1601 2.312 . S
O1606 C1613 1.253 . S
O1607 Tb1604 2.338 . S
O1607 C1608 1.258 . S
C1608 O1607 1.258 . S
C1608 O1609 1.251 . S
O1609 C1608 1.251 . S
O1610 Tb1601 2.271 . S
O1610 C1602 1.252 . S
O1611 C1602 1.253 . S
O1611 Tb1604 2.312 . S
O1612 Tb1601 2.338 . S
O1612 C1617 1.258 . S
C1613 O1603 1.252 . S
C1613 O1606 1.253 . S
C1614 O1600 1.265 . S
C1614 O1619 1.244 . S
O1615 Tb1604 2.441 . S
O1615 C1605 1.244 . S
O1616 Tb1604 2.506 . S
O1616 C1605 1.265 . S
C1617 O1612 1.258 . S
C1617 O1618 1.251 . S
O1618 C1617 1.251 . S
O1619 Tb1601 2.441 . S
O1619 C1614 1.244 . S
O1620 Tb1621 2.506 . S
O1620 C1634 1.265 . S
Tb1621 O1620 2.506 . S
Tb1621 O1626 2.312 . S
Tb1621 O1630 2.271 . S
Tb1621 O1632 2.338 . S
Tb1621 O1639 2.441 . S
C1622 O1630 1.252 . S
C1622 O1631 1.253 . S
O1623 Tb1624 2.271 . S
O1623 C1633 1.252 . S
Tb1624 O1623 2.271 . S
Tb1624 O1627 2.338 . S
Tb1624 O1631 2.312 . S
Tb1624 O1635 2.441 . S
Tb1624 O1636 2.506 . S
C1625 O1635 1.244 . S
C1625 O1636 1.265 . S
O1626 Tb1621 2.312 . S
O1626 C1633 1.253 . S
O1627 Tb1624 2.338 . S
O1627 C1628 1.258 . S
C1628 O1627 1.258 . S
C1628 O1629 1.251 . S
O1629 C1628 1.251 . S
O1630 Tb1621 2.271 . S
O1630 C1622 1.252 . S
O1631 C1622 1.253 . S
O1631 Tb1624 2.312 . S
O1632 Tb1621 2.338 . S
O1632 C1637 1.258 . S
C1633 O1623 1.252 . S
C1633 O1626 1.253 . S
C1634 O1620 1.265 . S
C1634 O1639 1.244 . S
O1635 Tb1624 2.441 . S
O1635 C1625 1.244 . S
O1636 Tb1624 2.506 . S
O1636 C1625 1.265 . S
C1637 O1632 1.258 . S
C1637 O1638 1.251 . S
O1638 C1637 1.251 . S
O1639 Tb1621 2.441 . S
O1639 C1634 1.244 . S
O1640 Tb1641 2.506 . S
O1640 C1654 1.265 . S
Tb1641 O1640 2.506 . S
Tb1641 O1646 2.312 . S
Tb1641 O1650 2.271 . S
Tb1641 O1652 2.338 . S
Tb1641 O1659 2.441 . S
C1642 O1650 1.252 . S
C1642 O1651 1.253 . S
O1643 Tb1644 2.271 . S
O1643 C1653 1.252 . S
Tb1644 O1643 2.271 . S
Tb1644 O1647 2.338 . S
Tb1644 O1651 2.312 . S
Tb1644 O1655 2.441 . S
Tb1644 O1656 2.506 . S
C1645 O1655 1.244 . S
C1645 O1656 1.265 . S
O1646 Tb1641 2.312 . S
O1646 C1653 1.253 . S
O1647 Tb1644 2.338 . S
O1647 C1648 1.258 . S
C1648 O1647 1.258 . S
C1648 O1649 1.251 . S
O1649 C1648 1.251 . S
O1650 Tb1641 2.271 . S
O1650 C1642 1.252 . S
O1651 C1642 1.253 . S
O1651 Tb1644 2.312 . S
O1652 Tb1641 2.338 . S
O1652 C1657 1.258 . S
C1653 O1643 1.252 . S
C1653 O1646 1.253 . S
C1654 O1640 1.265 . S
C1654 O1659 1.244 . S
O1655 Tb1644 2.441 . S
O1655 C1645 1.244 . S
O1656 Tb1644 2.506 . S
O1656 C1645 1.265 . S
C1657 O1652 1.258 . S
C1657 O1658 1.251 . S
O1658 C1657 1.251 . S
O1659 Tb1641 2.441 . S
O1659 C1654 1.244 . S
O1660 Tb1661 2.506 . S
O1660 C1674 1.265 . S
Tb1661 O1660 2.506 . S
Tb1661 O1666 2.312 . S
Tb1661 O1670 2.271 . S
Tb1661 O1672 2.338 . S
Tb1661 O1679 2.441 . S
C1662 O1670 1.252 . S
C1662 O1671 1.253 . S
O1663 Tb1664 2.271 . S
O1663 C1673 1.252 . S
Tb1664 O1663 2.271 . S
Tb1664 O1667 2.338 . S
Tb1664 O1671 2.312 . S
Tb1664 O1675 2.441 . S
Tb1664 O1676 2.506 . S
C1665 O1675 1.244 . S
C1665 O1676 1.265 . S
O1666 Tb1661 2.312 . S
O1666 C1673 1.253 . S
O1667 Tb1664 2.338 . S
O1667 C1668 1.258 . S
C1668 O1667 1.258 . S
C1668 O1669 1.251 . S
O1669 C1668 1.251 . S
O1670 Tb1661 2.271 . S
O1670 C1662 1.252 . S
O1671 C1662 1.253 . S
O1671 Tb1664 2.312 . S
O1672 Tb1661 2.338 . S
O1672 C1677 1.258 . S
C1673 O1663 1.252 . S
C1673 O1666 1.253 . S
C1674 O1660 1.265 . S
C1674 O1679 1.244 . S
O1675 Tb1664 2.441 . S
O1675 C1665 1.244 . S
O1676 Tb1664 2.506 . S
O1676 C1665 1.265 . S
C1677 O1672 1.258 . S
C1677 O1678 1.251 . S
O1678 C1677 1.251 . S
O1679 Tb1661 2.441 . S
O1679 C1674 1.244 . S
O1680 Tb1681 2.506 . S
O1680 C1694 1.265 . S
Tb1681 O1680 2.506 . S
Tb1681 O1686 2.312 . S
Tb1681 O1690 2.271 . S
Tb1681 O1692 2.338 . S
Tb1681 O1699 2.441 . S
C1682 O1690 1.252 . S
C1682 O1691 1.253 . S
O1683 Tb1684 2.271 . S
O1683 C1693 1.252 . S
Tb1684 O1683 2.271 . S
Tb1684 O1687 2.338 . S
Tb1684 O1691 2.312 . S
Tb1684 O1695 2.441 . S
Tb1684 O1696 2.506 . S
C1685 O1695 1.244 . S
C1685 O1696 1.265 . S
O1686 Tb1681 2.312 . S
O1686 C1693 1.253 . S
O1687 Tb1684 2.338 . S
O1687 C1688 1.258 . S
C1688 O1687 1.258 . S
C1688 O1689 1.251 . S
O1689 C1688 1.251 . S
O1690 Tb1681 2.271 . S
O1690 C1682 1.252 . S
O1691 C1682 1.253 . S
O1691 Tb1684 2.312 . S
O1692 Tb1681 2.338 . S
O1692 C1697 1.258 . S
C1693 O1683 1.252 . S
C1693 O1686 1.253 . S
C1694 O1680 1.265 . S
C1694 O1699 1.244 . S
O1695 Tb1684 2.441 . S
O1695 C1685 1.244 . S
O1696 Tb1684 2.506 . S
O1696 C1685 1.265 . S
C1697 O1692 1.258 . S
C1697 O1698 1.251 . S
O1698 C1697 1.251 . S
O1699 Tb1681 2.441 . S
O1699 C1694 1.244 . S
O1700 Tb1701 2.506 . S
O1700 C1714 1.265 . S
Tb1701 O1700 2.506 . S
Tb1701 O1706 2.312 . S
Tb1701 O1710 2.271 . S
Tb1701 O1712 2.338 . S
Tb1701 O1719 2.441 . S
C1702 O1710 1.252 . S
C1702 O1711 1.253 . S
O1703 Tb1704 2.271 . S
O1703 C1713 1.252 . S
Tb1704 O1703 2.271 . S
Tb1704 O1707 2.338 . S
Tb1704 O1711 2.312 . S
Tb1704 O1715 2.441 . S
Tb1704 O1716 2.506 . S
C1705 O1715 1.244 . S
C1705 O1716 1.265 . S
O1706 Tb1701 2.312 . S
O1706 C1713 1.253 . S
O1707 Tb1704 2.338 . S
O1707 C1708 1.258 . S
C1708 O1707 1.258 . S
C1708 O1709 1.251 . S
O1709 C1708 1.251 . S
O1710 Tb1701 2.271 . S
O1710 C1702 1.252 . S
O1711 C1702 1.253 . S
O1711 Tb1704 2.312 . S
O1712 Tb1701 2.338 . S
O1712 C1717 1.258 . S
C1713 O1703 1.252 . S
C1713 O1706 1.253 . S
C1714 O1700 1.265 . S
C1714 O1719 1.244 . S
O1715 Tb1704 2.441 . S
O1715 C1705 1.244 . S
O1716 Tb1704 2.506 . S
O1716 C1705 1.265 . S
C1717 O1712 1.258 . S
C1717 O1718 1.251 . S
O1718 C1717 1.251 . S
O1719 Tb1701 2.441 . S
O1719 C1714 1.244 . S
O1720 Tb1721 2.506 . S
O1720 C1734 1.265 . S
Tb1721 O1720 2.506 . S
Tb1721 O1726 2.312 . S
Tb1721 O1730 2.271 . S
Tb1721 O1732 2.338 . S
Tb1721 O1739 2.441 . S
C1722 O1730 1.252 . S
C1722 O1731 1.253 . S
O1723 Tb1724 2.271 . S
O1723 C1733 1.252 . S
Tb1724 O1723 2.271 . S
Tb1724 O1727 2.338 . S
Tb1724 O1731 2.312 . S
Tb1724 O1735 2.441 . S
Tb1724 O1736 2.506 . S
C1725 O1735 1.244 . S
C1725 O1736 1.265 . S
O1726 Tb1721 2.312 . S
O1726 C1733 1.253 . S
O1727 Tb1724 2.338 . S
O1727 C1728 1.258 . S
C1728 O1727 1.258 . S
C1728 O1729 1.251 . S
O1729 C1728 1.251 . S
O1730 Tb1721 2.271 . S
O1730 C1722 1.252 . S
O1731 C1722 1.253 . S
O1731 Tb1724 2.312 . S
O1732 Tb1721 2.338 . S
O1732 C1737 1.258 . S
C1733 O1723 1.252 . S
C1733 O1726 1.253 . S
C1734 O1720 1.265 . S
C1734 O1739 1.244 . S
O1735 Tb1724 2.441 . S
O1735 C1725 1.244 . S
O1736 Tb1724 2.506 . S
O1736 C1725 1.265 . S
C1737 O1732 1.258 . S
C1737 O1738 1.251 . S
O1738 C1737 1.251 . S
O1739 Tb1721 2.441 . S
O1739 C1734 1.244 . S
O1740 Tb1741 2.506 . S
O1740 C1754 1.265 . S
Tb1741 O1740 2.506 . S
Tb1741 O1746 2.312 . S
Tb1741 O1750 2.271 . S
Tb1741 O1752 2.338 . S
Tb1741 O1759 2.441 . S
C1742 O1750 1.252 . S
C1742 O1751 1.253 . S
O1743 Tb1744 2.271 . S
O1743 C1753 1.252 . S
Tb1744 O1743 2.271 . S
Tb1744 O1747 2.338 . S
Tb1744 O1751 2.312 . S
Tb1744 O1755 2.441 . S
Tb1744 O1756 2.506 . S
C1745 O1755 1.244 . S
C1745 O1756 1.265 . S
O1746 Tb1741 2.312 . S
O1746 C1753 1.253 . S
O1747 Tb1744 2.338 . S
O1747 C1748 1.258 . S
C1748 O1747 1.258 . S
C1748 O1749 1.251 . S
O1749 C1748 1.251 . S
O1750 Tb1741 2.271 . S
O1750 C1742 1.252 . S
O1751 C1742 1.253 . S
O1751 Tb1744 2.312 . S
O1752 Tb1741 2.338 . S
O1752 C1757 1.258 . S
C1753 O1743 1.252 . S
C1753 O1746 1.253 . S
C1754 O1740 1.265 . S
C1754 O1759 1.244 . S
O1755 Tb1744 2.441 . S
O1755 C1745 1.244 . S
O1756 Tb1744 2.506 . S
O1756 C1745 1.265 . S
C1757 O1752 1.258 . S
C1757 O1758 1.251 . S
O1758 C1757 1.251 . S
O1759 Tb1741 2.441 . S
O1759 C1754 1.244 . S
O1760 Tb1761 2.506 . S
O1760 C1774 1.265 . S
Tb1761 O1760 2.506 . S
Tb1761 O1766 2.312 . S
Tb1761 O1770 2.271 . S
Tb1761 O1772 2.338 . S
Tb1761 O1779 2.441 . S
C1762 O1770 1.252 . S
C1762 O1771 1.253 . S
O1763 Tb1764 2.271 . S
O1763 C1773 1.252 . S
Tb1764 O1763 2.271 . S
Tb1764 O1767 2.338 . S
Tb1764 O1771 2.312 . S
Tb1764 O1775 2.441 . S
Tb1764 O1776 2.506 . S
C1765 O1775 1.244 . S
C1765 O1776 1.265 . S
O1766 Tb1761 2.312 . S
O1766 C1773 1.253 . S
O1767 Tb1764 2.338 . S
O1767 C1768 1.258 . S
C1768 O1767 1.258 . S
C1768 O1769 1.251 . S
O1769 C1768 1.251 . S
O1770 Tb1761 2.271 . S
O1770 C1762 1.252 . S
O1771 C1762 1.253 . S
O1771 Tb1764 2.312 . S
O1772 Tb1761 2.338 . S
O1772 C1777 1.258 . S
C1773 O1763 1.252 . S
C1773 O1766 1.253 . S
C1774 O1760 1.265 . S
C1774 O1779 1.244 . S
O1775 Tb1764 2.441 . S
O1775 C1765 1.244 . S
O1776 Tb1764 2.506 . S
O1776 C1765 1.265 . S
C1777 O1772 1.258 . S
C1777 O1778 1.251 . S
O1778 C1777 1.251 . S
O1779 Tb1761 2.441 . S
O1779 C1774 1.244 . S
O1780 Tb1781 2.506 . S
O1780 C1794 1.265 . S
Tb1781 O1780 2.506 . S
Tb1781 O1786 2.312 . S
Tb1781 O1790 2.271 . S
Tb1781 O1792 2.338 . S
Tb1781 O1799 2.441 . S
C1782 O1790 1.252 . S
C1782 O1791 1.253 . S
O1783 Tb1784 2.271 . S
O1783 C1793 1.252 . S
Tb1784 O1783 2.271 . S
Tb1784 O1787 2.338 . S
Tb1784 O1791 2.312 . S
Tb1784 O1795 2.441 . S
Tb1784 O1796 2.506 . S
C1785 O1795 1.244 . S
C1785 O1796 1.265 . S
O1786 Tb1781 2.312 . S
O1786 C1793 1.253 . S
O1787 Tb1784 2.338 . S
O1787 C1788 1.258 . S
C1788 O1787 1.258 . S
C1788 O1789 1.251 . S
O1789 C1788 1.251 . S
O1790 Tb1781 2.271 . S
O1790 C1782 1.252 . S
O1791 C1782 1.253 . S
O1791 Tb1784 2.312 . S
O1792 Tb1781 2.338 . S
O1792 C1797 1.258 . S
C1793 O1783 1.252 . S
C1793 O1786 1.253 . S
C1794 O1780 1.265 . S
C1794 O1799 1.244 . S
O1795 Tb1784 2.441 . S
O1795 C1785 1.244 . S
O1796 Tb1784 2.506 . S
O1796 C1785 1.265 . S
C1797 O1792 1.258 . S
C1797 O1798 1.251 . S
O1798 C1797 1.251 . S
O1799 Tb1781 2.441 . S
O1799 C1794 1.244 . S
O1800 Tb1801 2.506 . S
O1800 C1814 1.265 . S
Tb1801 O1800 2.506 . S
Tb1801 O1806 2.312 . S
Tb1801 O1810 2.271 . S
Tb1801 O1812 2.338 . S
Tb1801 O1819 2.441 . S
C1802 O1810 1.252 . S
C1802 O1811 1.253 . S
O1803 Tb1804 2.271 . S
O1803 C1813 1.252 . S
Tb1804 O1803 2.271 . S
Tb1804 O1807 2.338 . S
Tb1804 O1811 2.312 . S
Tb1804 O1815 2.441 . S
Tb1804 O1816 2.506 . S
C1805 O1815 1.244 . S
C1805 O1816 1.265 . S
O1806 Tb1801 2.312 . S
O1806 C1813 1.253 . S
O1807 Tb1804 2.338 . S
O1807 C1808 1.258 . S
C1808 O1807 1.258 . S
C1808 O1809 1.251 . S
O1809 C1808 1.251 . S
O1810 Tb1801 2.271 . S
O1810 C1802 1.252 . S
O1811 C1802 1.253 . S
O1811 Tb1804 2.312 . S
O1812 Tb1801 2.338 . S
O1812 C1817 1.258 . S
C1813 O1803 1.252 . S
C1813 O1806 1.253 . S
C1814 O1800 1.265 . S
C1814 O1819 1.244 . S
O1815 Tb1804 2.441 . S
O1815 C1805 1.244 . S
O1816 Tb1804 2.506 . S
O1816 C1805 1.265 . S
C1817 O1812 1.258 . S
C1817 O1818 1.251 . S
O1818 C1817 1.251 . S
O1819 Tb1801 2.441 . S
O1819 C1814 1.244 . S
O1820 Tb1821 2.506 . S
O1820 C1834 1.265 . S
Tb1821 O1820 2.506 . S
Tb1821 O1826 2.312 . S
Tb1821 O1830 2.271 . S
Tb1821 O1832 2.338 . S
Tb1821 O1839 2.441 . S
C1822 O1830 1.252 . S
C1822 O1831 1.253 . S
O1823 Tb1824 2.271 . S
O1823 C1833 1.252 . S
Tb1824 O1823 2.271 . S
Tb1824 O1827 2.338 . S
Tb1824 O1831 2.312 1_556 S
Tb1824 O1835 2.441 . S
Tb1824 O1836 2.506 . S
C1825 O1835 1.244 . S
C1825 O1836 1.265 . S
O1826 Tb1821 2.312 . S
O1826 C1833 1.253 1_554 S
O1827 Tb1824 2.338 . S
O1827 C1828 1.258 . S
C1828 O1827 1.258 . S
C1828 O1829 1.251 . S
O1829 C1828 1.251 . S
O1830 Tb1821 2.271 . S
O1830 C1822 1.252 . S
O1831 C1822 1.253 . S
O1831 Tb1824 2.312 1_554 S
O1832 Tb1821 2.338 . S
O1832 C1837 1.258 . S
C1833 O1823 1.252 . S
C1833 O1826 1.253 1_556 S
C1834 O1820 1.265 . S
C1834 O1839 1.244 . S
O1835 Tb1824 2.441 . S
O1835 C1825 1.244 . S
O1836 Tb1824 2.506 . S
O1836 C1825 1.265 . S
C1837 O1832 1.258 . S
C1837 O1838 1.251 . S
O1838 C1837 1.251 . S
O1839 Tb1821 2.441 . S
O1839 C1834 1.244 . S
O1840 Tb1841 2.506 . S
O1840 C1854 1.265 . S
Tb1841 O1840 2.506 . S
Tb1841 O1846 2.312 . S
Tb1841 O1850 2.271 . S
Tb1841 O1852 2.338 . S
Tb1841 O1859 2.441 . S
C1842 O1850 1.252 . S
C1842 O1851 1.253 . S
O1843 Tb1844 2.271 . S
O1843 C1853 1.252 . S
Tb1844 O1843 2.271 . S
Tb1844 O1847 2.338 . S
Tb1844 O1851 2.312 . S
Tb1844 O1855 2.441 . S
Tb1844 O1856 2.506 . S
C1845 O1855 1.244 . S
C1845 O1856 1.265 . S
O1846 Tb1841 2.312 . S
O1846 C1853 1.253 . S
O1847 Tb1844 2.338 . S
O1847 C1848 1.258 . S
C1848 O1847 1.258 . S
C1848 O1849 1.251 . S
O1849 C1848 1.251 . S
O1850 Tb1841 2.271 . S
O1850 C1842 1.252 . S
O1851 C1842 1.253 . S
O1851 Tb1844 2.312 . S
O1852 Tb1841 2.338 . S
O1852 C1857 1.258 . S
C1853 O1843 1.252 . S
C1853 O1846 1.253 . S
C1854 O1840 1.265 . S
C1854 O1859 1.244 . S
O1855 Tb1844 2.441 . S
O1855 C1845 1.244 . S
O1856 Tb1844 2.506 . S
O1856 C1845 1.265 . S
C1857 O1852 1.258 . S
C1857 O1858 1.251 . S
O1858 C1857 1.251 . S
O1859 Tb1841 2.441 . S
O1859 C1854 1.244 . S
O1860 Tb1861 2.506 . S
O1860 C1874 1.265 . S
Tb1861 O1860 2.506 . S
Tb1861 O1866 2.312 . S
Tb1861 O1870 2.271 . S
Tb1861 O1872 2.338 . S
Tb1861 O1879 2.441 . S
C1862 O1870 1.252 . S
C1862 O1871 1.253 . S
O1863 Tb1864 2.271 . S
O1863 C1873 1.252 . S
Tb1864 O1863 2.271 . S
Tb1864 O1867 2.338 . S
Tb1864 O1871 2.312 1_554 S
Tb1864 O1875 2.441 . S
Tb1864 O1876 2.506 . S
C1865 O1875 1.244 . S
C1865 O1876 1.265 . S
O1866 Tb1861 2.312 . S
O1866 C1873 1.253 1_556 S
O1867 Tb1864 2.338 . S
O1867 C1868 1.258 . S
C1868 O1867 1.258 . S
C1868 O1869 1.251 . S
O1869 C1868 1.251 . S
O1870 Tb1861 2.271 . S
O1870 C1862 1.252 . S
O1871 C1862 1.253 . S
O1871 Tb1864 2.312 1_556 S
O1872 Tb1861 2.338 . S
O1872 C1877 1.258 . S
C1873 O1863 1.252 . S
C1873 O1866 1.253 1_554 S
C1874 O1860 1.265 . S
C1874 O1879 1.244 . S
O1875 Tb1864 2.441 . S
O1875 C1865 1.244 . S
O1876 Tb1864 2.506 . S
O1876 C1865 1.265 . S
C1877 O1872 1.258 . S
C1877 O1878 1.251 . S
O1878 C1877 1.251 . S
O1879 Tb1861 2.441 . S
O1879 C1874 1.244 . S
O1880 Tb1881 2.506 . S
O1880 C1894 1.265 . S
Tb1881 O1880 2.506 . S
Tb1881 O1886 2.312 . S
Tb1881 O1890 2.271 . S
Tb1881 O1892 2.338 . S
Tb1881 O1899 2.441 . S
C1882 O1890 1.252 . S
C1882 O1891 1.253 . S
O1883 Tb1884 2.271 . S
O1883 C1893 1.252 . S
Tb1884 O1883 2.271 . S
Tb1884 O1887 2.338 . S
Tb1884 O1891 2.312 . S
Tb1884 O1895 2.441 . S
Tb1884 O1896 2.506 . S
C1885 O1895 1.244 . S
C1885 O1896 1.265 . S
O1886 Tb1881 2.312 . S
O1886 C1893 1.253 . S
O1887 Tb1884 2.338 . S
O1887 C1888 1.258 . S
C1888 O1887 1.258 . S
C1888 O1889 1.251 . S
O1889 C1888 1.251 . S
O1890 Tb1881 2.271 . S
O1890 C1882 1.252 . S
O1891 C1882 1.253 . S
O1891 Tb1884 2.312 . S
O1892 Tb1881 2.338 . S
O1892 C1897 1.258 . S
C1893 O1883 1.252 . S
C1893 O1886 1.253 . S
C1894 O1880 1.265 . S
C1894 O1899 1.244 . S
O1895 Tb1884 2.441 . S
O1895 C1885 1.244 . S
O1896 Tb1884 2.506 . S
O1896 C1885 1.265 . S
C1897 O1892 1.258 . S
C1897 O1898 1.251 . S
O1898 C1897 1.251 . S
O1899 Tb1881 2.441 . S
O1899 C1894 1.244 . S
O1900 Tb1901 2.506 . S
O1900 C1914 1.265 . S
Tb1901 O1900 2.506 . S
Tb1901 O1906 2.312 . S
Tb1901 O1910 2.271 . S
Tb1901 O1912 2.338 . S
Tb1901 O1919 2.441 . S
C1902 O1910 1.252 . S
C1902 O1911 1.253 . S
O1903 Tb1904 2.271 . S
O1903 C1913 1.252 . S
Tb1904 O1903 2.271 . S
Tb1904 O1907 2.338 . S
Tb1904 O1911 2.312 . S
Tb1904 O1915 2.441 . S
Tb1904 O1916 2.506 . S
C1905 O1915 1.244 . S
C1905 O1916 1.265 . S
O1906 Tb1901 2.312 . S
O1906 C1913 1.253 . S
O1907 Tb1904 2.338 . S
O1907 C1908 1.258 . S
C1908 O1907 1.258 . S
C1908 O1909 1.251 . S
O1909 C1908 1.251 . S
O1910 Tb1901 2.271 . S
O1910 C1902 1.252 . S
O1911 C1902 1.253 . S
O1911 Tb1904 2.312 . S
O1912 Tb1901 2.338 . S
O1912 C1917 1.258 . S
C1913 O1903 1.252 . S
C1913 O1906 1.253 . S
C1914 O1900 1.265 . S
C1914 O1919 1.244 . S
O1915 Tb1904 2.441 . S
O1915 C1905 1.244 . S
O1916 Tb1904 2.506 . S
O1916 C1905 1.265 . S
C1917 O1912 1.258 . S
C1917 O1918 1.251 . S
O1918 C1917 1.251 . S
O1919 Tb1901 2.441 . S
O1919 C1914 1.244 . S
C1505 C13 1.700 . S
C485 C22 1.700 . S
C42 C1465 1.700 . S
C62 C525 1.700 . S
C82 C1545 1.700 . S
C605 C102 1.700 . S
C133 C1585 1.700 . S
C142 C565 1.700 . S
C162 C1805 1.700 . S
C865 C182 1.700 . S
C885 C213 1.700 . S
C825 C222 1.700 . S
C242 C1885 1.700 . S
C273 C1765 1.700 . S
C1905 C282 1.700 . S
C302 C1865 1.700 . S
C322 C1625 1.700 . S
C785 C342 1.700 . S
C1685 C362 1.700 . S
C382 C745 1.700 . S
C402 C765 1.700 . S
C422 C1665 1.700 . S
C442 C1605 1.700 . S
C1645 C462 1.700 . S
C482 C1025 1.700 . S
C502 C14 1.700 . S
C522 C985 1.700 . S
C45 C542 1.700 . S
C1065 C562 1.700 . S
C582 C134 1.700 . S
C1105 C602 1.700 . S
C622 C85 1.700 . S
C642 C1325 1.700 . S
C662 C385 1.700 . S
C682 C405 1.700 . S
C345 C702 1.700 . S
C1405 C722 1.700 . S
C742 C1285 1.700 . S
C762 C1425 1.700 . S
C1385 C782 1.700 . S
C802 C1145 1.700 . S
C822 C305 1.700 . S
C1205 C842 1.700 . S
C862 C274 1.700 . S
C882 C285 1.700 . S
C1185 C902 1.700 . S
C1125 C922 1.700 . S
C1174 C942 1.700 . S
C973 C545 1.700 . S
C1445 C982 1.700 . S
C505 C1002 1.700 . S
C1485 C1022 1.700 . S
C1042 C585 1.700 . S
C1062 C1565 1.700 . S
C625 C1093 1.700 . S
C1525 C1102 1.700 . S
C845 C1122 1.700 . S
C1142 C1825 1.700 . S
C1173 C1845 1.700 . S
C1785 C1182 1.700 . S
C925 C1202 1.700 . S
C805 C1233 1.700 . S
C945 C1242 1.700 . S
C905 C1262 1.700 . S
C665 C1282 1.700 . S
C1745 C1302 1.700 . S
C1322 C725 1.700 . S
C1705 C1342 1.700 . S
C1725 C1362 1.700 . S
C1382 C705 1.700 . S
C1402 C645 1.700 . S
C1422 C685 1.700 . S
C1442 C65 1.700 . S
C974 C1462 1.700 . S
C1482 C25 1.700 . S
C1502 C1005 1.700 . S
C1522 C105 1.700 . S
C1094 C1542 1.700 . S
C145 C1562 1.700 . S
C1582 C1045 1.700 . S
C365 C1602 1.700 . S
C1345 C1622 1.700 . S
C1642 C1365 1.700 . S
C1662 C1305 1.700 . S
C1682 C445 1.700 . S
C1702 C325 1.700 . S
C1722 C465 1.700 . S
C425 C1742 1.700 . S
C185 C1762 1.700 . S
C1782 C1265 1.700 . S
C1802 C245 1.700 . S
C1822 C1234 1.700 . S
C1245 C1842 1.700 . S
C225 C1862 1.700 . S
C165 C1882 1.700 . S
C1902 C214 1.700 . S
C17 C408 1.815 . S
C1308 C28 1.815 . S
C48 C1328 1.815 . S
C68 C1348 1.815 . S
C88 C1428 1.815 . S
C108 C428 1.815 . S
C1408 C137 1.815 . S
C328 C148 1.815 . S
C168 C308 1.815 . S
C248 C188 1.815 . S
C217 C277 1.815 . S
C228 C288 1.815 . S
C348 C988 1.815 . S
C368 C1008 1.815 . S
C388 C1028 1.815 . S
C448 C1097 1.815 . S
C1048 C468 1.815 . S
C488 C888 1.815 . S
C508 C1788 1.815 . S
C1808 C528 1.815 . S
C1828 C548 1.815 . S
C568 C1908 1.815 . S
C588 C908 1.815 . S
C1888 C608 1.815 . S
C628 C808 1.815 . S
C788 C648 1.815 . S
C728 C668 1.815 . S
C748 C688 1.815 . S
C708 C768 1.815 . S
C828 C1468 1.815 . S
C1488 C848 1.815 . S
C1508 C868 1.815 . S
C928 C1568 1.815 . S
C1528 C948 1.815 . S
C1368 C977 1.815 . S
C1388 C1068 1.815 . S
C1288 C1108 1.815 . S
C1128 C1268 1.815 . S
C1148 C1208 1.815 . S
C1237 C1177 1.815 . S
C1248 C1188 1.815 . S
C1448 C1848 1.815 . S
C1868 C1548 1.815 . S
C1588 C1768 1.815 . S
C1608 C1748 1.815 . S
C1688 C1628 1.815 . S
C1708 C1648 1.815 . S
C1668 C1728 1.815 . S
C5 C873 1.991 . S
C893 C34 1.991 . S
C833 C54 1.991 . S
C1813 C74 1.991 . S
C94 C1873 1.991 . S
C1893 C114 1.991 . S
C125 C1773 1.991 . S
C1913 C154 1.991 . S
C533 C174 1.991 . S
C1513 C194 1.991 . S
C205 C493 1.991 . S
C1473 C234 1.991 . S
C254 C613 1.991 . S
C265 C1593 1.991 . S
C294 C573 1.991 . S
C314 C1553 1.991 . S
C334 C1693 1.991 . S
C653 C354 1.991 . S
C1633 C374 1.991 . S
C394 C693 1.991 . S
C414 C713 1.991 . S
C434 C1733 1.991 . S
C454 C1753 1.991 . S
C474 C1713 1.991 . S
C393 C494 1.991 . S
C514 C413 1.991 . S
C353 C534 1.991 . S
C554 C1333 1.991 . S
C574 C1393 1.991 . S
C1413 C594 1.991 . S
C1293 C614 1.991 . S
C634 C1433 1.991 . S
C53 C654 1.991 . S
C674 C1033 1.991 . S
C694 C2 1.991 . S
C993 C714 1.991 . S
C122 C734 1.991 . S
C754 C1113 1.991 . S
C774 C93 1.991 . S
C1073 C794 1.991 . S
C814 C1213 1.991 . S
C834 C173 1.991 . S
C1153 C854 1.991 . S
C874 C202 1.991 . S
C233 C894 1.991 . S
C914 C1253 1.991 . S
C1273 C934 1.991 . S
C1222 C954 1.991 . S
C1833 C965 1.991 . S
C1853 C994 1.991 . S
C1014 C1793 1.991 . S
C1034 C853 1.991 . S
C1054 C913 1.991 . S
C1074 C933 1.991 . S
C813 C1085 1.991 . S
C953 C1114 1.991 . S
C1134 C1493 1.991 . S
C1154 C553 1.991 . S
C1165 C1453 1.991 . S
C1194 C513 1.991 . S
C1214 C1573 1.991 . S
C1225 C633 1.991 . S
C1254 C1533 1.991 . S
C1274 C593 1.991 . S
C733 C1294 1.991 . S
C1613 C1314 1.991 . S
C673 C1334 1.991 . S
C1653 C1354 1.991 . S
C1374 C1673 1.991 . S
C1394 C773 1.991 . S
C1414 C793 1.991 . S
C1434 C753 1.991 . S
C1353 C1454 1.991 . S
C1373 C1474 1.991 . S
C1494 C1313 1.991 . S
C1514 C373 1.991 . S
C433 C1534 1.991 . S
C1554 C453 1.991 . S
C333 C1574 1.991 . S
C473 C1594 1.991 . S
C1614 C1013 1.991 . S
C1634 C73 1.991 . S
C1654 C962 1.991 . S
C1674 C33 1.991 . S
C1082 C1694 1.991 . S
C153 C1714 1.991 . S
C1053 C1734 1.991 . S
C1754 C113 1.991 . S
C253 C1774 1.991 . S
C1794 C1133 1.991 . S
C1814 C193 1.991 . S
C1162 C1834 1.991 . S
C1854 C1193 1.991 . S
C1874 C293 1.991 . S
C313 C1894 1.991 . S
C1914 C262 1.991 . S
C8 C197 2.152 . S
C208 C37 2.152 . S
C57 C237 2.152 . S
C177 C77 2.152 . S
C317 C97 2.152 . S
C257 C117 2.152 . S
C128 C268 2.152 . S
C157 C297 2.152 . S
C337 C377 2.152 . S
C1417 C357 2.152 . S
C397 C1437 2.152 . S
C1397 C417 2.152 . S
C1377 C437 2.152 . S
C457 C1317 2.152 . S
C477 C1357 2.152 . S
C677 C497 2.152 . S
C517 C697 2.152 . S
C537 C717 2.152 . S
C657 C557 2.152 . S
C797 C577 2.152 . S
C737 C597 2.152 . S
C757 C617 2.152 . S
C777 C637 2.152 . S
C857 C817 2.152 . S
C837 C1897 2.152 . S
C877 C1917 2.152 . S
C897 C1877 2.152 . S
C1857 C917 2.152 . S
C1797 C937 2.152 . S
C1837 C957 2.152 . S
C968 C1157 2.152 . S
C997 C1168 2.152 . S
C1017 C1197 2.152 . S
C1037 C1137 2.152 . S
C1277 C1057 2.152 . S
C1077 C1217 2.152 . S
C1228 C1088 2.152 . S
C1257 C1117 2.152 . S
C1337 C1297 2.152 . S
C1457 C1637 2.152 . S
C1657 C1477 2.152 . S
C1497 C1677 2.152 . S
C1617 C1517 2.152 . S
C1537 C1757 2.152 . S
C1697 C1557 2.152 . S
C1577 C1717 2.152 . S
C1597 C1737 2.152 . S
C1777 C1817 2.152 . S
