# Generated by pormake.
# Topology upd, (4)-cn, num edge types: 1
# Building blocks:
#     Node 0, Type 0, BuildingBlock: NAWXER_clean_sbu_0, # of connection points: 4
#     Node 1, Type 0, BuildingBlock: NAWXER_clean_sbu_0, # of connection points: 4
#     Node 2, Type 0, BuildingBlock: NAWXER_clean_sbu_0, # of connection points: 4
#     Node 3, Type 0, BuildingBlock: NAWXER_clean_sbu_0, # of connection points: 4
#     Node 4, Type 0, BuildingBlock: NAWXER_clean_sbu_0, # of connection points: 4
#     Node 5, Type 0, BuildingBlock: NAWXER_clean_sbu_0, # of connection points: 4
#     Node 6, Type 0, BuildingBlock: NAWXER_clean_sbu_0, # of connection points: 4
#     Node 7, Type 0, BuildingBlock: NAWXER_clean_sbu_0, # of connection points: 4
#     Node 8, Type 0, BuildingBlock: NAWXER_clean_sbu_0, # of connection points: 4
#     Node 9, Type 0, BuildingBlock: NAWXER_clean_sbu_0, # of connection points: 4
#     Node 10, Type 0, BuildingBlock: NAWXER_clean_sbu_0, # of connection points: 4
#     Node 11, Type 0, BuildingBlock: NAWXER_clean_sbu_0, # of connection points: 4
#     Node 12, Type 0, BuildingBlock: NAWXER_clean_sbu_0, # of connection points: 4
#     Node 13, Type 0, BuildingBlock: NAWXER_clean_sbu_0, # of connection points: 4
#     Node 14, Type 0, BuildingBlock: NAWXER_clean_sbu_0, # of connection points: 4
#     Node 15, Type 0, BuildingBlock: NAWXER_clean_sbu_0, # of connection points: 4
#     Node 16, Type 0, BuildingBlock: NAWXER_clean_sbu_0, # of connection points: 4
#     Node 17, Type 0, BuildingBlock: NAWXER_clean_sbu_0, # of connection points: 4
#     Node 18, Type 0, BuildingBlock: NAWXER_clean_sbu_0, # of connection points: 4
#     Node 19, Type 0, BuildingBlock: NAWXER_clean_sbu_0, # of connection points: 4
#     Node 20, Type 0, BuildingBlock: NAWXER_clean_sbu_0, # of connection points: 4
#     Node 21, Type 0, BuildingBlock: NAWXER_clean_sbu_0, # of connection points: 4
#     Node 22, Type 0, BuildingBlock: NAWXER_clean_sbu_0, # of connection points: 4
#     Node 23, Type 0, BuildingBlock: NAWXER_clean_sbu_0, # of connection points: 4
#     Node 24, Type 0, BuildingBlock: NAWXER_clean_sbu_0, # of connection points: 4
#     Node 25, Type 0, BuildingBlock: NAWXER_clean_sbu_0, # of connection points: 4
#     Node 26, Type 0, BuildingBlock: NAWXER_clean_sbu_0, # of connection points: 4
#     Node 27, Type 0, BuildingBlock: NAWXER_clean_sbu_0, # of connection points: 4
#     Node 28, Type 0, BuildingBlock: NAWXER_clean_sbu_0, # of connection points: 4
#     Node 29, Type 0, BuildingBlock: NAWXER_clean_sbu_0, # of connection points: 4
#     Node 30, Type 0, BuildingBlock: NAWXER_clean_sbu_0, # of connection points: 4
#     Node 31, Type 0, BuildingBlock: NAWXER_clean_sbu_0, # of connection points: 4
#     Edge 32, Type (0, 0), BuildingBlock: ZUJKAS_clean_linker_0, # of connection points: 2
#     Edge 33, Type (0, 0), BuildingBlock: ZUJKAS_clean_linker_0, # of connection points: 2
#     Edge 34, Type (0, 0), BuildingBlock: ZUJKAS_clean_linker_0, # of connection points: 2
#     Edge 35, Type (0, 0), BuildingBlock: ZUJKAS_clean_linker_0, # of connection points: 2
#     Edge 36, Type (0, 0), BuildingBlock: ZUJKAS_clean_linker_0, # of connection points: 2
#     Edge 37, Type (0, 0), BuildingBlock: ZUJKAS_clean_linker_0, # of connection points: 2
#     Edge 38, Type (0, 0), BuildingBlock: ZUJKAS_clean_linker_0, # of connection points: 2
#     Edge 39, Type (0, 0), BuildingBlock: ZUJKAS_clean_linker_0, # of connection points: 2
#     Edge 40, Type (0, 0), BuildingBlock: ZUJKAS_clean_linker_0, # of connection points: 2
#     Edge 41, Type (0, 0), BuildingBlock: ZUJKAS_clean_linker_0, # of connection points: 2
#     Edge 42, Type (0, 0), BuildingBlock: ZUJKAS_clean_linker_0, # of connection points: 2
#     Edge 43, Type (0, 0), BuildingBlock: ZUJKAS_clean_linker_0, # of connection points: 2
#     Edge 44, Type (0, 0), BuildingBlock: ZUJKAS_clean_linker_0, # of connection points: 2
#     Edge 45, Type (0, 0), BuildingBlock: ZUJKAS_clean_linker_0, # of connection points: 2
#     Edge 46, Type (0, 0), BuildingBlock: ZUJKAS_clean_linker_0, # of connection points: 2
#     Edge 47, Type (0, 0), BuildingBlock: ZUJKAS_clean_linker_0, # of connection points: 2
#     Edge 48, Type (0, 0), BuildingBlock: ZUJKAS_clean_linker_0, # of connection points: 2
#     Edge 49, Type (0, 0), BuildingBlock: ZUJKAS_clean_linker_0, # of connection points: 2
#     Edge 50, Type (0, 0), BuildingBlock: ZUJKAS_clean_linker_0, # of connection points: 2
#     Edge 51, Type (0, 0), BuildingBlock: ZUJKAS_clean_linker_0, # of connection points: 2
#     Edge 52, Type (0, 0), BuildingBlock: ZUJKAS_clean_linker_0, # of connection points: 2
#     Edge 53, Type (0, 0), BuildingBlock: ZUJKAS_clean_linker_0, # of connection points: 2
#     Edge 54, Type (0, 0), BuildingBlock: ZUJKAS_clean_linker_0, # of connection points: 2
#     Edge 55, Type (0, 0), BuildingBlock: ZUJKAS_clean_linker_0, # of connection points: 2
#     Edge 56, Type (0, 0), BuildingBlock: ZUJKAS_clean_linker_0, # of connection points: 2
#     Edge 57, Type (0, 0), BuildingBlock: ZUJKAS_clean_linker_0, # of connection points: 2
#     Edge 58, Type (0, 0), BuildingBlock: ZUJKAS_clean_linker_0, # of connection points: 2
#     Edge 59, Type (0, 0), BuildingBlock: ZUJKAS_clean_linker_0, # of connection points: 2
#     Edge 60, Type (0, 0), BuildingBlock: ZUJKAS_clean_linker_0, # of connection points: 2
#     Edge 61, Type (0, 0), BuildingBlock: ZUJKAS_clean_linker_0, # of connection points: 2
#     Edge 62, Type (0, 0), BuildingBlock: ZUJKAS_clean_linker_0, # of connection points: 2
#     Edge 63, Type (0, 0), BuildingBlock: ZUJKAS_clean_linker_0, # of connection points: 2
#     Edge 64, Type (0, 0), BuildingBlock: ZUJKAS_clean_linker_0, # of connection points: 2
#     Edge 65, Type (0, 0), BuildingBlock: ZUJKAS_clean_linker_0, # of connection points: 2
#     Edge 66, Type (0, 0), BuildingBlock: ZUJKAS_clean_linker_0, # of connection points: 2
#     Edge 67, Type (0, 0), BuildingBlock: ZUJKAS_clean_linker_0, # of connection points: 2
#     Edge 68, Type (0, 0), BuildingBlock: ZUJKAS_clean_linker_0, # of connection points: 2
#     Edge 69, Type (0, 0), BuildingBlock: ZUJKAS_clean_linker_0, # of connection points: 2
#     Edge 70, Type (0, 0), BuildingBlock: ZUJKAS_clean_linker_0, # of connection points: 2
#     Edge 71, Type (0, 0), BuildingBlock: ZUJKAS_clean_linker_0, # of connection points: 2
#     Edge 72, Type (0, 0), BuildingBlock: ZUJKAS_clean_linker_0, # of connection points: 2
#     Edge 73, Type (0, 0), BuildingBlock: ZUJKAS_clean_linker_0, # of connection points: 2
#     Edge 74, Type (0, 0), BuildingBlock: ZUJKAS_clean_linker_0, # of connection points: 2
#     Edge 75, Type (0, 0), BuildingBlock: ZUJKAS_clean_linker_0, # of connection points: 2
#     Edge 76, Type (0, 0), BuildingBlock: ZUJKAS_clean_linker_0, # of connection points: 2
#     Edge 77, Type (0, 0), BuildingBlock: ZUJKAS_clean_linker_0, # of connection points: 2
#     Edge 78, Type (0, 0), BuildingBlock: ZUJKAS_clean_linker_0, # of connection points: 2
#     Edge 79, Type (0, 0), BuildingBlock: ZUJKAS_clean_linker_0, # of connection points: 2
#     Edge 80, Type (0, 0), BuildingBlock: ZUJKAS_clean_linker_0, # of connection points: 2
#     Edge 81, Type (0, 0), BuildingBlock: ZUJKAS_clean_linker_0, # of connection points: 2
#     Edge 82, Type (0, 0), BuildingBlock: ZUJKAS_clean_linker_0, # of connection points: 2
#     Edge 83, Type (0, 0), BuildingBlock: ZUJKAS_clean_linker_0, # of connection points: 2
#     Edge 84, Type (0, 0), BuildingBlock: ZUJKAS_clean_linker_0, # of connection points: 2
#     Edge 85, Type (0, 0), BuildingBlock: ZUJKAS_clean_linker_0, # of connection points: 2
#     Edge 86, Type (0, 0), BuildingBlock: ZUJKAS_clean_linker_0, # of connection points: 2
#     Edge 87, Type (0, 0), BuildingBlock: ZUJKAS_clean_linker_0, # of connection points: 2
#     Edge 88, Type (0, 0), BuildingBlock: ZUJKAS_clean_linker_0, # of connection points: 2
#     Edge 89, Type (0, 0), BuildingBlock: ZUJKAS_clean_linker_0, # of connection points: 2
#     Edge 90, Type (0, 0), BuildingBlock: ZUJKAS_clean_linker_0, # of connection points: 2
#     Edge 91, Type (0, 0), BuildingBlock: ZUJKAS_clean_linker_0, # of connection points: 2
#     Edge 92, Type (0, 0), BuildingBlock: ZUJKAS_clean_linker_0, # of connection points: 2
#     Edge 93, Type (0, 0), BuildingBlock: ZUJKAS_clean_linker_0, # of connection points: 2
#     Edge 94, Type (0, 0), BuildingBlock: ZUJKAS_clean_linker_0, # of connection points: 2
#     Edge 95, Type (0, 0), BuildingBlock: ZUJKAS_clean_linker_0, # of connection points: 2
# Relax obj value: 0.044
# Max RMSD: 0.097
# Mean RMSD: 0.097
data_MOF--net-upd--node1-NAWXER_clean_sbu_0--edge1-ZUJKAS_clean_linker_0
_symmetry_space_group_name_H-M    P1
_symmetry_Int_Tables_number       1
_symmetry_cell_setting            triclinic
loop_
_symmetry_equiv_pos_as_xyz
'x, y, z'
_cell_length_a     52.334172
_cell_length_b     52.348403
_cell_length_c     100.1248
_cell_angle_alpha  90.014871
_cell_angle_beta   90.072927
_cell_angle_gamma 89.99988
loop_
_atom_site_label
_atom_site_type_symbol
_atom_site_fract_x
_atom_site_fract_y
_atom_site_fract_z
_atom_type_partial_charge
C0 C 0.16438 0.09674 0.29841 0.0
C1 C 0.15533 0.16028 0.33383 0.0
O2 O 0.14629 0.11272 0.29623 0.0
Zn3 Zn 0.12945 0.14529 0.30572 0.0
O4 O 0.17763 0.09867 0.30901 0.0
Zn5 Zn 0.16029 0.12831 0.31622 0.0
O6 O 0.12294 0.11363 0.32104 0.0
O7 O 0.0949 0.13425 0.30858 0.0
O8 O 0.17153 0.14223 0.33316 0.0
O9 O 0.13909 0.16321 0.32434 0.0
O10 O 0.13523 0.17199 0.29292 0.0
O11 O 0.17072 0.15771 0.30221 0.0
C12 C 0.09972 0.1175 0.3174 0.0
C13 C 0.15941 0.17274 0.29398 0.0
C14 C 0.08288 0.9147 0.54364 0.0
C15 C 0.13113 0.85665 0.57192 0.0
O16 O 0.09734 0.92662 0.55192 0.0
Zn17 Zn 0.12472 0.91723 0.56723 0.0
O18 O 0.08307 0.89044 0.5434 0.0
Zn19 Zn 0.10804 0.88563 0.55725 0.0
O20 O 0.08808 0.89889 0.5747 0.0
O21 O 0.10887 0.93206 0.58293 0.0
O22 O 0.11667 0.85126 0.56213 0.0
O23 O 0.13574 0.88015 0.57472 0.0
O24 O 0.15608 0.93202 0.5604 0.0
O25 O 0.1422 0.89976 0.54826 0.0
C26 C 0.09026 0.91648 0.58356 0.0
C27 C 0.15861 0.91751 0.55032 0.0
C28 C 0.36423 0.8146 0.8206 0.0
C29 C 0.35801 0.88618 0.78937 0.0
O30 O 0.37876 0.81867 0.81064 0.0
Zn31 Zn 0.36244 0.85024 0.80479 0.0
O32 O 0.34644 0.8305 0.82338 0.0
Zn33 Zn 0.33133 0.8657 0.81629 0.0
O34 O 0.29634 0.8561 0.81209 0.0
O35 O 0.32503 0.83784 0.79904 0.0
O36 O 0.34184 0.88721 0.79897 0.0
O37 O 0.37398 0.86787 0.78887 0.0
O38 O 0.37343 0.876 0.82016 0.0
O39 O 0.33913 0.8886 0.83116 0.0
C40 C 0.30164 0.84122 0.80241 0.0
C41 C 0.36322 0.88911 0.82954 0.0
C42 C 0.41349 0.09177 0.08575 0.0
C43 C 0.34749 0.08335 0.05135 0.0
O44 O 0.41697 0.10651 0.07569 0.0
Zn45 Zn 0.39879 0.11537 0.05705 0.0
O46 O 0.39428 0.07689 0.08591 0.0
Zn47 Zn 0.38016 0.08702 0.06876 0.0
O48 O 0.40799 0.07283 0.05485 0.0
O49 O 0.42434 0.10581 0.04413 0.0
O50 O 0.34896 0.07116 0.06231 0.0
O51 O 0.3646 0.09999 0.04849 0.0
O52 O 0.39046 0.15106 0.05921 0.0
O53 O 0.36866 0.12578 0.07265 0.0
C54 C 0.42337 0.08183 0.04606 0.0
C55 C 0.374 0.14829 0.06842 0.0
C56 C 0.16096 0.83557 0.16521 0.0
C57 C 0.16436 0.90031 0.20015 0.0
O58 O 0.14454 0.83173 0.17449 0.0
Zn59 Zn 0.13309 0.84924 0.19297 0.0
O60 O 0.17609 0.8545 0.16603 0.0
Zn61 Zn 0.16284 0.868 0.18262 0.0
O62 O 0.17512 0.83982 0.19694 0.0
O63 O 0.14056 0.82321 0.20603 0.0
O64 O 0.17781 0.89887 0.18962 0.0
O65 O 0.14721 0.88333 0.20239 0.0
O66 O 0.09782 0.857 0.18941 0.0
O67 O 0.12452 0.87941 0.17702 0.0
C68 C 0.16476 0.8242 0.20519 0.0
C69 C 0.10155 0.87352 0.18033 0.0
C70 C 0.35385 0.915 0.45115 0.0
C71 C 0.4193 0.90914 0.41647 0.0
O72 O 0.37086 0.89803 0.45364 0.0
Zn73 Zn 0.40484 0.88319 0.44467 0.0
O74 O 0.35532 0.92796 0.44044 0.0
Zn75 Zn 0.38647 0.91265 0.43367 0.0
O76 O 0.37516 0.87418 0.42854 0.0
O77 O 0.39639 0.84779 0.44167 0.0
O78 O 0.40062 0.92466 0.4169 0.0
O79 O 0.42268 0.8933 0.42609 0.0
O80 O 0.43075 0.89148 0.45774 0.0
O81 O 0.4145 0.92547 0.44788 0.0
C82 C 0.38044 0.8513 0.43226 0.0
C83 C 0.42993 0.91561 0.45641 0.0
C84 C 0.33708 0.17595 0.70686 0.0
C85 C 0.40334 0.13456 0.68035 0.0
O86 O 0.32773 0.1601 0.69838 0.0
Zn87 Zn 0.3419 0.13439 0.68334 0.0
O88 O 0.36112 0.17904 0.70746 0.0
Zn89 Zn 0.37057 0.15537 0.69358 0.0
O90 O 0.35646 0.1729 0.67571 0.0
O91 O 0.32732 0.14757 0.66688 0.0
O92 O 0.40629 0.15164 0.68926 0.0
O93 O 0.3808 0.12674 0.67739 0.0
O94 O 0.33114 0.10127 0.68979 0.0
O95 O 0.36182 0.1186 0.70192 0.0
C96 C 0.34034 0.16805 0.66639 0.0
C97 C 0.34665 0.09989 0.69954 0.0
C98 C 0.12386 0.14467 0.93425 0.0
C99 C 0.07415 0.08121 0.95852 0.0
O100 O 0.12909 0.12177 0.93056 0.0
Zn101 Zn 0.11756 0.08343 0.93579 0.0
O102 O 0.1078 0.14831 0.94357 0.0
Zn103 Zn 0.09929 0.11308 0.94661 0.0
O104 O 0.13326 0.0983 0.9557 0.0
O105 O 0.1486 0.06803 0.94266 0.0
O106 O 0.07348 0.10537 0.95971 0.0
O107 O 0.0895 0.07103 0.95007 0.0
O108 O 0.10336 0.0711 0.9191 0.0
O109 O 0.08118 0.10251 0.92813 0.0
C110 C 0.15018 0.08121 0.9533 0.0
C111 C 0.08453 0.08642 0.91862 0.0
C112 C 0.89689 0.87526 0.67953 0.0
C113 C 0.83324 0.82684 0.70441 0.0
O114 O 0.90056 0.85835 0.68843 0.0
Zn115 Zn 0.86524 0.85106 0.69205 0.0
O116 O 0.87397 0.8814 0.67625 0.0
Zn117 Zn 0.83559 0.87025 0.68166 0.0
O118 O 0.82109 0.9014 0.68865 0.0
O119 O 0.85187 0.88552 0.70125 0.0
O120 O 0.82307 0.84246 0.69608 0.0
O121 O 0.85742 0.82553 0.70529 0.0
O122 O 0.8532 0.83338 0.6738 0.0
O123 O 0.82223 0.85664 0.66508 0.0
C124 C 0.83498 0.90278 0.69904 0.0
C125 C 0.83684 0.83728 0.66447 0.0
C126 C 0.88849 0.12178 0.42301 0.0
C127 C 0.92691 0.06176 0.45407 0.0
O128 O 0.90304 0.12646 0.43287 0.0
Zn129 Zn 0.90614 0.09201 0.43923 0.0
O130 O 0.88042 0.09891 0.4211 0.0
Zn131 Zn 0.88559 0.06184 0.43018 0.0
O132 O 0.85233 0.05256 0.43703 0.0
O133 O 0.86997 0.08425 0.4482 0.0
O134 O 0.9113 0.05068 0.44603 0.0
O135 O 0.92968 0.08584 0.45352 0.0
O136 O 0.9245 0.0736 0.42257 0.0
O137 O 0.899 0.04311 0.41509 0.0
C138 C 0.85138 0.06866 0.4465 0.0
C139 C 0.9198 0.05559 0.41423 0.0
C140 C 0.64713 0.20006 0.18488 0.0
C141 C 0.64689 0.12467 0.21342 0.0
O142 O 0.66243 0.18122 0.18475 0.0
Zn143 Zn 0.64635 0.16207 0.19883 0.0
O144 O 0.62821 0.20005 0.19303 0.0
Zn145 Zn 0.61299 0.17501 0.20834 0.0
O146 O 0.61409 0.19659 0.22386 0.0
O147 O 0.65218 0.18676 0.21595 0.0
O148 O 0.62782 0.13937 0.21585 0.0
O149 O 0.66247 0.13062 0.20423 0.0
O150 O 0.61112 0.14998 0.18949 0.0
O151 O 0.57981 0.166 0.20157 0.0
C152 C 0.63825 0.19855 0.22452 0.0
C153 C 0.5871 0.15294 0.1916 0.0
C154 C 0.56658 0.91451 0.9606 0.0
C155 C 0.60972 0.85403 0.9311 0.0
O156 O 0.56539 0.89025 0.961 0.0
Zn157 Zn 0.58767 0.88396 0.94596 0.0
O158 O 0.58026 0.92541 0.95164 0.0
Zn159 Zn 0.60465 0.91473 0.93529 0.0
O160 O 0.58701 0.92954 0.92007 0.0
O161 O 0.56527 0.89861 0.92977 0.0
O162 O 0.615 0.87734 0.92829 0.0
O163 O 0.59438 0.84913 0.94058 0.0
O164 O 0.62379 0.89696 0.95359 0.0
O165 O 0.63704 0.92894 0.94101 0.0
C166 C 0.56697 0.91587 0.92073 0.0
C167 C 0.64046 0.9142 0.95095 0.0
C168 C 0.836 0.16356 0.83336 0.0
C169 C 0.83511 0.09862 0.79856 0.0
O170 O 0.8219 0.14384 0.83271 0.0
Zn171 Zn 0.83524 0.13102 0.816 0.0
O172 O 0.85208 0.16808 0.824 0.0
Zn173 Zn 0.86453 0.15077 0.80572 0.0
O174 O 0.85641 0.17629 0.79254 0.0
O175 O 0.82223 0.1588 0.80159 0.0
O176 O 0.85173 0.11614 0.79638 0.0
O177 O 0.8213 0.09971 0.80898 0.0
O178 O 0.87374 0.1206 0.82155 0.0
O179 O 0.90002 0.14414 0.8095 0.0
C180 C 0.83224 0.17462 0.79332 0.0
C181 C 0.89658 0.12722 0.81841 0.0
C182 C 0.588 0.08945 0.57976 0.0
C183 C 0.65436 0.08651 0.54562 0.0
O184 O 0.60729 0.07471 0.5794 0.0
Zn185 Zn 0.62121 0.08748 0.5628 0.0
O186 O 0.58424 0.10534 0.5702 0.0
Zn187 Zn 0.60225 0.11656 0.55184 0.0
O188 O 0.57695 0.10781 0.53855 0.0
O189 O 0.59378 0.07409 0.54839 0.0
O190 O 0.63696 0.10305 0.54306 0.0
O191 O 0.65288 0.07322 0.55621 0.0
O192 O 0.63117 0.12613 0.56825 0.0
O193 O 0.60943 0.15214 0.55514 0.0
C194 C 0.57829 0.08369 0.53981 0.0
C195 C 0.62523 0.14891 0.56464 0.0
C196 C 0.66659 0.90129 0.29636 0.0
C197 C 0.66858 0.83356 0.32992 0.0
O198 O 0.68102 0.8996 0.30654 0.0
Zn199 Zn 0.66858 0.86711 0.31298 0.0
O200 O 0.65073 0.88324 0.29382 0.0
Zn201 Zn 0.63981 0.84718 0.30235 0.0
O202 O 0.60407 0.85216 0.30629 0.0
O203 O 0.62974 0.87578 0.3187 0.0
O204 O 0.65268 0.82917 0.32043 0.0
O205 O 0.68219 0.85367 0.32959 0.0
O206 O 0.68254 0.84043 0.2983 0.0
O207 O 0.64893 0.82275 0.28876 0.0
C208 C 0.6071 0.86864 0.31548 0.0
C209 C 0.67304 0.82477 0.28976 0.0
C210 C 0.92033 0.91781 0.04125 0.0
C211 C 0.87217 0.85376 0.06592 0.0
O212 O 0.92154 0.89365 0.04021 0.0
Zn213 Zn 0.896 0.88557 0.05339 0.0
O214 O 0.90478 0.92782 0.04965 0.0
Zn215 Zn 0.8771 0.91512 0.06403 0.0
O216 O 0.89125 0.92795 0.08072 0.0
O217 O 0.9138 0.89675 0.07177 0.0
O218 O 0.86614 0.87661 0.06935 0.0
O219 O 0.88872 0.85022 0.05683 0.0
O220 O 0.86144 0.89914 0.04435 0.0
O221 O 0.8457 0.92965 0.05712 0.0
C222 C 0.91026 0.91285 0.08124 0.0
C223 C 0.84417 0.91595 0.04666 0.0
C224 C 0.67672 0.60176 0.79701 0.0
C225 C 0.66887 0.66833 0.83121 0.0
O226 O 0.65901 0.61804 0.79464 0.0
Zn227 Zn 0.64274 0.6513 0.80347 0.0
O228 O 0.69014 0.60392 0.80756 0.0
Zn229 Zn 0.67403 0.63494 0.81426 0.0
O230 O 0.63676 0.62174 0.81993 0.0
O231 O 0.60807 0.64068 0.80715 0.0
O232 O 0.68567 0.65076 0.83085 0.0
O233 O 0.6526 0.67021 0.82168 0.0
O234 O 0.64897 0.67711 0.7901 0.0
O235 O 0.68433 0.6629 0.79955 0.0
C236 C 0.61336 0.62532 0.8166 0.0
C237 C 0.67319 0.67749 0.79105 0.0
C238 C 0.59442 0.44871 0.05687 0.0
C239 C 0.6439 0.39254 0.08612 0.0
O240 O 0.60868 0.45554 0.06653 0.0
Zn241 Zn 0.62047 0.42166 0.07132 0.0
O242 O 0.59274 0.42497 0.0538 0.0
Zn243 Zn 0.60766 0.3889 0.06031 0.0
O244 O 0.57689 0.37081 0.06576 0.0
O245 O 0.58603 0.40435 0.07828 0.0
O246 O 0.6322 0.38065 0.07675 0.0
O247 O 0.64264 0.41677 0.08672 0.0
O248 O 0.64347 0.41174 0.05448 0.0
O249 O 0.62702 0.37745 0.04496 0.0
C250 C 0.57151 0.38534 0.07555 0.0
C251 C 0.64399 0.39482 0.04522 0.0
C252 C 0.86334 0.31808 0.32373 0.0
C253 C 0.85776 0.38742 0.29111 0.0
O254 O 0.87597 0.31983 0.31291 0.0
Zn255 Zn 0.86164 0.35236 0.3071 0.0
O256 O 0.84728 0.33558 0.32678 0.0
Zn257 Zn 0.83296 0.37074 0.31918 0.0
O258 O 0.797 0.36274 0.31629 0.0
O259 O 0.82306 0.34233 0.30264 0.0
O260 O 0.8427 0.3901 0.3011 0.0
O261 O 0.87272 0.36828 0.2906 0.0
O262 O 0.87591 0.37795 0.32187 0.0
O263 O 0.84362 0.39442 0.33314 0.0
C264 C 0.80034 0.34725 0.30664 0.0
C265 C 0.86757 0.39259 0.33115 0.0
C266 C 0.91218 0.58598 0.5854 0.0
C267 C 0.8482 0.58213 0.54981 0.0
O268 O 0.9168 0.60125 0.57569 0.0
Zn269 Zn 0.90009 0.61206 0.55699 0.0
O270 O 0.8924 0.57189 0.58498 0.0
Zn271 Zn 0.87986 0.58361 0.56776 0.0
O272 O 0.90842 0.56953 0.55417 0.0
O273 O 0.92615 0.60286 0.54438 0.0
O274 O 0.84879 0.56902 0.5605 0.0
O275 O 0.86589 0.59851 0.54755 0.0
O276 O 0.89324 0.64774 0.55974 0.0
O277 O 0.86901 0.6225 0.57205 0.0
C278 C 0.92463 0.57881 0.54588 0.0
C279 C 0.8757 0.64503 0.56839 0.0
C280 C 0.66916 0.32124 0.7065 0.0
C281 C 0.60442 0.36978 0.6823 0.0
O282 O 0.67905 0.3372 0.69825 0.0
Zn283 Zn 0.66574 0.36543 0.68408 0.0
O284 O 0.645 0.31972 0.70747 0.0
Zn285 Zn 0.6368 0.3458 0.69465 0.0
O286 O 0.64822 0.32861 0.67605 0.0
O287 O 0.67855 0.35254 0.66725 0.0
O288 O 0.60123 0.35346 0.69153 0.0
O289 O 0.62719 0.37583 0.67876 0.0
O290 O 0.67992 0.39685 0.69114 0.0
O291 O 0.65097 0.37954 0.70431 0.0
C292 C 0.66411 0.33305 0.66658 0.0
C293 C 0.66736 0.39719 0.702 0.0
C294 C 0.85298 0.40534 0.95254 0.0
C295 C 0.9213 0.40774 0.91934 0.0
O296 O 0.87134 0.38993 0.95516 0.0
Zn297 Zn 0.90748 0.37932 0.94694 0.0
O298 O 0.8545 0.41986 0.9424 0.0
Zn299 Zn 0.88745 0.40794 0.93611 0.0
O300 O 0.87939 0.36898 0.93047 0.0
O301 O 0.90233 0.34353 0.94337 0.0
O302 O 0.90138 0.42164 0.91965 0.0
O303 O 0.92545 0.39179 0.92882 0.0
O304 O 0.93159 0.38895 0.9606 0.0
O305 O 0.91363 0.4222 0.95089 0.0
C306 C 0.88622 0.34639 0.93397 0.0
C307 C 0.92927 0.413 0.95951 0.0
C308 C 0.84096 0.67467 0.20707 0.0
C309 C 0.90606 0.63297 0.17983 0.0
O310 O 0.83125 0.65888 0.19868 0.0
Zn311 Zn 0.84469 0.63302 0.18355 0.0
O312 O 0.86506 0.67738 0.20755 0.0
Zn313 Zn 0.8739 0.65348 0.19362 0.0
O314 O 0.85947 0.67116 0.17582 0.0
O315 O 0.82916 0.6466 0.16745 0.0
O316 O 0.90939 0.6495 0.18898 0.0
O317 O 0.88335 0.62538 0.177 0.0
O318 O 0.8338 0.6 0.18998 0.0
O319 O 0.86494 0.61682 0.20197 0.0
C320 C 0.84272 0.6667 0.16676 0.0
C321 C 0.84946 0.59835 0.19965 0.0
C322 C 0.65049 0.58738 0.45103 0.0
C323 C 0.58354 0.59192 0.41707 0.0
O324 O 0.6337 0.60456 0.45352 0.0
Zn325 Zn 0.59921 0.61897 0.44482 0.0
O326 O 0.64833 0.5738 0.44056 0.0
Zn327 Zn 0.61698 0.58898 0.43399 0.0
O328 O 0.62821 0.6272 0.42832 0.0
O329 O 0.60754 0.6542 0.44134 0.0
O330 O 0.60216 0.57634 0.41751 0.0
O331 O 0.58057 0.60816 0.42653 0.0
O332 O 0.57389 0.61133 0.45827 0.0
O333 O 0.58956 0.57686 0.44864 0.0
C334 C 0.62311 0.65024 0.43183 0.0
C335 C 0.57455 0.58715 0.45722 0.0
C336 C 0.38558 0.35638 0.17885 0.0
C337 C 0.31928 0.32059 0.20702 0.0
O338 O 0.38808 0.34142 0.18875 0.0
Zn339 Zn 0.35263 0.3402 0.19371 0.0
O340 O 0.36355 0.3659 0.17621 0.0
Zn341 Zn 0.32508 0.36268 0.18373 0.0
O342 O 0.317 0.39637 0.19047 0.0
O343 O 0.34532 0.37634 0.20294 0.0
O344 O 0.31016 0.33711 0.19881 0.0
O345 O 0.34317 0.31645 0.20729 0.0
O346 O 0.33607 0.32357 0.17601 0.0
O347 O 0.30807 0.35084 0.16768 0.0
C348 C 0.33126 0.39595 0.20073 0.0
C349 C 0.31977 0.32958 0.16695 0.0
C350 C 0.44379 0.58005 0.92359 0.0
C351 C 0.3727 0.5878 0.95458 0.0
O352 O 0.42498 0.56497 0.92507 0.0
Zn353 Zn 0.40868 0.58385 0.93919 0.0
O354 O 0.4459 0.59969 0.93119 0.0
Zn355 Zn 0.42444 0.61751 0.94711 0.0
O356 O 0.44783 0.61684 0.96185 0.0
O357 O 0.43436 0.57854 0.95594 0.0
O358 O 0.38878 0.6061 0.95603 0.0
O359 O 0.37669 0.57091 0.94573 0.0
O360 O 0.39877 0.61857 0.92865 0.0
O361 O 0.41723 0.65031 0.93946 0.0
C362 C 0.4479 0.59283 0.96361 0.0
C363 C 0.40374 0.6425 0.92973 0.0
C364 C 0.15132 0.61062 0.7122 0.0
C365 C 0.14896 0.67784 0.67887 0.0
O366 O 0.16601 0.61442 0.70234 0.0
Zn367 Zn 0.14965 0.64451 0.69557 0.0
O368 O 0.13252 0.62586 0.71423 0.0
Zn369 Zn 0.11724 0.6597 0.70488 0.0
O370 O 0.08342 0.64953 0.69974 0.0
O371 O 0.11344 0.63104 0.68772 0.0
O372 O 0.13069 0.68017 0.68735 0.0
O373 O 0.16472 0.65954 0.68005 0.0
O374 O 0.15718 0.67292 0.71083 0.0
O375 O 0.11976 0.6849 0.71875 0.0
C376 C 0.08967 0.63467 0.69027 0.0
C377 C 0.14394 0.68671 0.71887 0.0
C378 C 0.147 0.4092 0.45274 0.0
C379 C 0.0722 0.41035 0.42344 0.0
O380 O 0.14336 0.42321 0.44254 0.0
Zn381 Zn 0.11032 0.40938 0.43752 0.0
O382 O 0.13017 0.3925 0.45594 0.0
Zn383 Zn 0.09367 0.37966 0.44901 0.0
O384 O 0.09963 0.34447 0.44441 0.0
O385 O 0.11873 0.37127 0.43067 0.0
O386 O 0.07077 0.39349 0.43271 0.0
O387 O 0.09224 0.42395 0.42243 0.0
O388 O 0.08662 0.42148 0.45391 0.0
O389 O 0.07203 0.38704 0.46408 0.0
C390 C 0.11345 0.34828 0.43419 0.0
C391 C 0.0732 0.41124 0.46318 0.0
C392 C 0.33458 0.66718 0.33108 0.0
C393 C 0.33589 0.60164 0.29626 0.0
O394 O 0.3212 0.64692 0.33059 0.0
Zn395 Zn 0.33466 0.63424 0.31376 0.0
O396 O 0.35027 0.6721 0.3216 0.0
Zn397 Zn 0.36306 0.6551 0.3033 0.0
O398 O 0.35374 0.68027 0.29018 0.0
O399 O 0.32037 0.66149 0.29938 0.0
O400 O 0.35146 0.62005 0.29397 0.0
O401 O 0.32238 0.60199 0.30681 0.0
O402 O 0.3735 0.62546 0.31917 0.0
O403 O 0.39888 0.64975 0.30701 0.0
C404 C 0.32966 0.67771 0.29108 0.0
C405 C 0.39606 0.63279 0.31596 0.0
C406 C 0.09252 0.59119 0.07846 0.0
C407 C 0.15922 0.58797 0.04443 0.0
O408 O 0.1117 0.57628 0.07815 0.0
Zn409 Zn 0.12561 0.58858 0.06137 0.0
O410 O 0.08877 0.60679 0.06878 0.0
Zn411 Zn 0.10656 0.61743 0.05031 0.0
O412 O 0.08128 0.60833 0.03711 0.0
O413 O 0.09819 0.5748 0.04709 0.0
O414 O 0.14172 0.60433 0.04173 0.0
O415 O 0.15744 0.5745 0.05494 0.0
O416 O 0.13568 0.62743 0.06644 0.0
O417 O 0.11307 0.6531 0.0535 0.0
C418 C 0.0826 0.58425 0.03851 0.0
C419 C 0.12937 0.65008 0.06279 0.0
C420 C 0.16833 0.32929 0.83423 0.0
C421 C 0.16819 0.39572 0.80015 0.0
O422 O 0.18251 0.34895 0.83362 0.0
Zn423 Zn 0.169 0.36225 0.81703 0.0
O424 O 0.15211 0.32502 0.82487 0.0
Zn425 Zn 0.13961 0.34275 0.80668 0.0
O426 O 0.1478 0.31771 0.79324 0.0
O427 O 0.18201 0.33501 0.80239 0.0
O428 O 0.15174 0.37811 0.79778 0.0
O429 O 0.1825 0.39401 0.81037 0.0
O430 O 0.13049 0.37254 0.82263 0.0
O431 O 0.10409 0.34905 0.81056 0.0
C432 C 0.17197 0.31938 0.79402 0.0
C433 C 0.10763 0.36597 0.81948 0.0
C434 C 0.41818 0.41404 0.58208 0.0
C435 C 0.35249 0.41586 0.54732 0.0
O436 O 0.39849 0.42824 0.58162 0.0
Zn437 Zn 0.38529 0.41558 0.56477 0.0
O438 O 0.42254 0.39836 0.57249 0.0
Zn439 Zn 0.40508 0.38686 0.55399 0.0
O440 O 0.43045 0.39596 0.54089 0.0
O441 O 0.41286 0.42947 0.55056 0.0
O442 O 0.37028 0.39966 0.54493 0.0
O443 O 0.3535 0.4293 0.55788 0.0
O444 O 0.37558 0.37675 0.56996 0.0
O445 O 0.3984 0.35115 0.55717 0.0
C446 C 0.42868 0.42006 0.5421 0.0
C447 C 0.38199 0.35408 0.56639 0.0
H448 H 0.10883 0.2971 0.43948 0.0
H449 H 0.12122 0.26141 0.42507 0.0
H450 H 0.1498 0.31457 0.39577 0.0
H451 H 0.13812 0.35021 0.41019 0.0
H452 H 0.10273 0.25101 0.40099 0.0
H453 H 0.20717 0.26357 0.3966 0.0
H454 H 0.18853 0.27987 0.40914 0.0
H455 H 0.19053 0.29242 0.39242 0.0
C456 C 0.11812 0.30118 0.43005 0.0
C457 C 0.12249 0.32652 0.42599 0.0
C458 C 0.12521 0.28075 0.42184 0.0
C459 C 0.13684 0.28526 0.40943 0.0
C460 C 0.14154 0.31054 0.40545 0.0
H461 H 0.1252 0.20223 0.33702 0.0
H462 H 0.12216 0.23017 0.35639 0.0
C463 C 0.13462 0.33094 0.41368 0.0
C464 C 0.14183 0.26383 0.40007 0.0
H465 H 0.18687 0.23886 0.37912 0.0
C466 C 0.12126 0.24811 0.39639 0.0
C467 C 0.16608 0.25969 0.39419 0.0
C468 C 0.18938 0.27462 0.3984 0.0
C469 C 0.12391 0.22935 0.38649 0.0
C470 C 0.14762 0.2266 0.37987 0.0
C471 C 0.16859 0.24128 0.38405 0.0
C472 C 0.15042 0.20981 0.36804 0.0
C473 C 0.10116 0.21286 0.38309 0.0
C474 C 0.16806 0.1896 0.36795 0.0
C475 C 0.17003 0.17358 0.35678 0.0
C476 C 0.15445 0.17764 0.34551 0.0
C477 C 0.13731 0.19835 0.34556 0.0
C478 C 0.13543 0.2143 0.35666 0.0
H479 H 0.08762 0.21159 0.3916 0.0
H480 H 0.09077 0.22143 0.37452 0.0
H481 H 0.10715 0.19324 0.38026 0.0
H482 H 0.17998 0.18598 0.3766 0.0
H483 H 0.18347 0.15786 0.35704 0.0
H484 H 0.05278 0.88213 0.58902 0.0
H485 H 0.02127 0.88354 0.60681 0.0
H486 H 0.05256 0.95496 0.62075 0.0
H487 H 0.08487 0.95347 0.60295 0.0
H488 H 0.04224 0.92122 0.64136 0.0
H489 H 0.95855 0.92878 0.60796 0.0
H490 H 0.97826 0.90215 0.60345 0.0
H491 H 0.99076 0.93413 0.60218 0.0
C492 C 0.05299 0.89828 0.59579 0.0
C493 C 0.07123 0.91785 0.59447 0.0
C494 C 0.03483 0.89909 0.60594 0.0
C495 C 0.03417 0.91964 0.61491 0.0
C496 C 0.05259 0.93905 0.61383 0.0
H497 H 0.8972 0.91894 0.66466 0.0
H498 H 0.93183 0.93517 0.65068 0.0
C499 C 0.07099 0.93819 0.60366 0.0
C500 C 0.01441 0.92016 0.6255 0.0
H501 H 0.95034 0.91251 0.63006 0.0
C502 C 0.02208 0.91978 0.63894 0.0
C503 C 0.98808 0.9189 0.62235 0.0
C504 C 0.97841 0.9213 0.6082 0.0
C505 C 0.0042 0.91652 0.64926 0.0
C506 C 0.9781 0.91289 0.64601 0.0
C507 C 0.97035 0.9149 0.63261 0.0
C508 C 0.95864 0.90538 0.65607 0.0
C509 C 0.01355 0.91682 0.66352 0.0
C510 C 0.96225 0.88348 0.66397 0.0
C511 C 0.94258 0.87439 0.67213 0.0
C512 C 0.91871 0.88668 0.67231 0.0
C513 C 0.91534 0.90898 0.66469 0.0
C514 C 0.93514 0.91829 0.6567 0.0
H515 H 0.03085 0.92895 0.66458 0.0
H516 H 0.99864 0.92398 0.67046 0.0
H517 H 0.01887 0.89712 0.66653 0.0
H518 H 0.97986 0.8727 0.66339 0.0
H519 H 0.94569 0.85704 0.67779 0.0
H520 H 0.4176 0.69255 0.92675 0.0
H521 H 0.40994 0.72002 0.90746 0.0
H522 H 0.36591 0.66023 0.88875 0.0
H523 H 0.37396 0.63235 0.90789 0.0
H524 H 0.40112 0.68091 0.87174 0.0
H525 H 0.34583 0.75774 0.89653 0.0
H526 H 0.37607 0.75175 0.90439 0.0
H527 H 0.35187 0.72732 0.9044 0.0
C528 C 0.40593 0.68535 0.91864 0.0
C529 C 0.39631 0.66027 0.9189 0.0
C530 C 0.40153 0.70112 0.90762 0.0
C531 C 0.38715 0.69227 0.89672 0.0
C532 C 0.37706 0.66744 0.89706 0.0
H533 H 0.32787 0.7907 0.8351 0.0
H534 H 0.33387 0.75862 0.85245 0.0
C535 C 0.38156 0.65159 0.90805 0.0
C536 C 0.38347 0.70854 0.88475 0.0
H537 H 0.36079 0.76643 0.87459 0.0
C538 C 0.39215 0.69956 0.87233 0.0
C539 C 0.3716 0.73275 0.88552 0.0
C540 C 0.36058 0.74288 0.8984 0.0
C541 C 0.3895 0.71427 0.86067 0.0
C542 C 0.37833 0.73881 0.86153 0.0
C543 C 0.36951 0.74767 0.87394 0.0
C544 C 0.37477 0.75555 0.8497 0.0
C545 C 0.3982 0.70318 0.84753 0.0
C546 C 0.39569 0.76399 0.84208 0.0
C547 C 0.39222 0.78216 0.83195 0.0
C548 C 0.36786 0.79244 0.82952 0.0
C549 C 0.3469 0.78322 0.83682 0.0
C550 C 0.3503 0.76491 0.84676 0.0
H551 H 0.39964 0.68202 0.84797 0.0
H552 H 0.38493 0.70846 0.83932 0.0
H553 H 0.41741 0.71082 0.84509 0.0
H554 H 0.41482 0.75742 0.84434 0.0
H555 H 0.40872 0.78915 0.82655 0.0
H556 H 0.45846 0.11775 0.0869 0.0
H557 H 0.48659 0.12342 0.10605 0.0
H558 H 0.43738 0.07565 0.12987 0.0
H559 H 0.40903 0.06955 0.11057 0.0
H560 H 0.47209 0.14564 0.13003 0.0
H561 H 0.50945 0.04728 0.13777 0.0
H562 H 0.49419 0.05712 0.12241 0.0
H563 H 0.47526 0.05031 0.13692 0.0
C564 C 0.45365 0.10818 0.09615 0.0
C565 C 0.4314 0.09324 0.0972 0.0
C566 C 0.4698 0.11146 0.1071 0.0
C567 C 0.46417 0.09987 0.11936 0.0
C568 C 0.44229 0.08446 0.12044 0.0
H569 H 0.53489 0.15513 0.19317 0.0
H570 H 0.50383 0.14034 0.17661 0.0
C571 C 0.42607 0.08107 0.10942 0.0
C572 C 0.48053 0.10545 0.13112 0.0
H573 H 0.52222 0.07873 0.15338 0.0
C574 C 0.48295 0.13099 0.13519 0.0
C575 C 0.49481 0.08632 0.13774 0.0
C576 C 0.49356 0.05872 0.13347 0.0
C577 C 0.49949 0.13802 0.14559 0.0
C578 C 0.51368 0.1189 0.15228 0.0
C579 C 0.51114 0.0933 0.1483 0.0
C580 C 0.5322 0.12547 0.16296 0.0
C581 C 0.5023 0.16598 0.149 0.0
C582 C 0.55839 0.12116 0.16101 0.0
C583 C 0.5762 0.12949 0.17048 0.0
C584 C 0.56814 0.14223 0.18211 0.0
C585 C 0.54179 0.14559 0.18428 0.0
C586 C 0.524 0.13721 0.17481 0.0
H587 H 0.49454 0.17851 0.14101 0.0
H588 H 0.49166 0.17009 0.15833 0.0
H589 H 0.52267 0.17099 0.15067 0.0
H590 H 0.56511 0.11208 0.15195 0.0
H591 H 0.59633 0.12647 0.16851 0.0
H592 H 0.19813 0.83106 0.14595 0.0
H593 H 0.19858 0.8014 0.12696 0.0
H594 H 0.12509 0.77206 0.13899 0.0
H595 H 0.12486 0.80086 0.15807 0.0
H596 H 0.15764 0.73437 0.13366 0.0
H597 H 0.15917 0.80486 0.0922 0.0
H598 H 0.18494 0.80793 0.10396 0.0
H599 H 0.15269 0.81386 0.10926 0.0
C600 C 0.18205 0.81833 0.14449 0.0
C601 C 0.1615 0.81825 0.15353 0.0
C602 C 0.18225 0.80152 0.13359 0.0
C603 C 0.16171 0.78473 0.13145 0.0
C604 C 0.14115 0.78483 0.14043 0.0
H605 H 0.10829 0.69771 0.06469 0.0
H606 H 0.11988 0.73126 0.0806 0.0
C607 C 0.14107 0.80132 0.15136 0.0
C608 C 0.16166 0.7662 0.12023 0.0
H609 H 0.16114 0.76121 0.0862 0.0
C610 C 0.15854 0.74023 0.12328 0.0
C611 C 0.16263 0.77393 0.10669 0.0
C612 C 0.16481 0.80167 0.10277 0.0
C613 C 0.15565 0.72183 0.11323 0.0
C614 C 0.15687 0.72946 0.09968 0.0
C615 C 0.16051 0.75538 0.09659 0.0
C616 C 0.15249 0.71099 0.08867 0.0
C617 C 0.15011 0.69459 0.11728 0.0
C618 C 0.16765 0.68899 0.08749 0.0
C619 C 0.16082 0.66963 0.07857 0.0
C620 C 0.13905 0.67221 0.07044 0.0
C621 C 0.12514 0.69517 0.07084 0.0
C622 C 0.13175 0.71435 0.07993 0.0
H623 H 0.14335 0.6933 0.12777 0.0
H624 H 0.1354 0.6859 0.11069 0.0
H625 H 0.16786 0.68311 0.11646 0.0
H626 H 0.18417 0.68632 0.09386 0.0
H627 H 0.17212 0.6523 0.07835 0.0
H628 H 0.4249 0.94453 0.39632 0.0
H629 H 0.45505 0.94277 0.37756 0.0
H630 H 0.48271 0.86991 0.39159 0.0
H631 H 0.45346 0.87186 0.41041 0.0
H632 H 0.52117 0.90123 0.38586 0.0
H633 H 0.45205 0.90049 0.3437 0.0
H634 H 0.4491 0.92727 0.35482 0.0
H635 H 0.44238 0.89561 0.36081 0.0
C636 C 0.43737 0.92812 0.39535 0.0
C637 C 0.43685 0.90839 0.40489 0.0
C638 C 0.45445 0.92705 0.38458 0.0
C639 C 0.47094 0.90605 0.38307 0.0
C640 C 0.47021 0.88632 0.39253 0.0
H641 H 0.55965 0.84711 0.31783 0.0
H642 H 0.52591 0.85933 0.33351 0.0
C643 C 0.45345 0.88749 0.40332 0.0
C644 C 0.48984 0.90468 0.37203 0.0
H645 H 0.49595 0.90116 0.33809 0.0
C646 C 0.51566 0.90135 0.37541 0.0
C647 C 0.48258 0.90459 0.35841 0.0
C648 C 0.45501 0.90695 0.35416 0.0
C649 C 0.53435 0.89731 0.36562 0.0
C650 C 0.52719 0.89751 0.35197 0.0
C651 C 0.50143 0.90128 0.34855 0.0
C652 C 0.54605 0.8923 0.34124 0.0
C653 C 0.56137 0.89173 0.37007 0.0
C654 C 0.56811 0.90735 0.33998 0.0
C655 C 0.58756 0.90018 0.3312 0.0
C656 C 0.58506 0.87814 0.32328 0.0
C657 C 0.56215 0.86416 0.32382 0.0
C658 C 0.54285 0.87113 0.33278 0.0
H659 H 0.56217 0.88562 0.38069 0.0
H660 H 0.57014 0.87652 0.36384 0.0
H661 H 0.57308 0.90929 0.36907 0.0
H662 H 0.57068 0.92418 0.34614 0.0
H663 H 0.60483 0.91156 0.33086 0.0
H664 H 0.31603 0.16037 0.6423 0.0
H665 H 0.3182 0.1879 0.62244 0.0
H666 H 0.36293 0.24268 0.64455 0.0
H667 H 0.36109 0.21549 0.66425 0.0
H668 H 0.3045 0.24092 0.61801 0.0
H669 H 0.40828 0.22351 0.61223 0.0
H670 H 0.38813 0.20374 0.62258 0.0
H671 H 0.39979 0.23387 0.62873 0.0
C672 C 0.32607 0.17842 0.64296 0.0
C673 C 0.33865 0.18559 0.65482 0.0
C674 C 0.32732 0.19408 0.63161 0.0
C675 C 0.3412 0.21702 0.63197 0.0
C676 C 0.3526 0.22477 0.64398 0.0
H677 H 0.35011 0.35445 0.58794 0.0
H678 H 0.33739 0.31836 0.60175 0.0
C679 C 0.35143 0.20921 0.65526 0.0
C680 C 0.34467 0.23278 0.61982 0.0
H681 H 0.39125 0.25973 0.60065 0.0
C682 C 0.32339 0.24477 0.61405 0.0
C683 C 0.36927 0.23733 0.61449 0.0
C684 C 0.39265 0.22373 0.61973 0.0
C685 C 0.32628 0.26244 0.60358 0.0
C686 C 0.35114 0.26852 0.59897 0.0
C687 C 0.3722 0.25531 0.60424 0.0
C688 C 0.35614 0.28985 0.58954 0.0
C689 C 0.30271 0.2746 0.59767 0.0
C690 C 0.37117 0.28598 0.5781 0.0
C691 C 0.37883 0.30672 0.57024 0.0
C692 C 0.37167 0.33175 0.57372 0.0
C693 C 0.35589 0.33544 0.58492 0.0
C694 C 0.34837 0.31474 0.59279 0.0
H695 H 0.28585 0.26184 0.59865 0.0
H696 H 0.29842 0.29251 0.60316 0.0
H697 H 0.30545 0.27929 0.58695 0.0
H698 H 0.37755 0.26695 0.57545 0.0
H699 H 0.39096 0.3032 0.56168 0.0
H700 H 0.04784 0.12164 0.91302 0.0
H701 H 0.01773 0.1219 0.89448 0.0
H702 H 0.04976 0.05145 0.87972 0.0
H703 H 0.08065 0.05133 0.89822 0.0
H704 H 0.04085 0.08599 0.8596 0.0
H705 H 0.95496 0.07745 0.8913 0.0
H706 H 0.97441 0.10394 0.89634 0.0
H707 H 0.98675 0.07191 0.89766 0.0
C708 C 0.0485 0.10609 0.90589 0.0
C709 C 0.06651 0.0863 0.90719 0.0
C710 C 0.03115 0.10622 0.89531 0.0
C711 C 0.03107 0.08639 0.88589 0.0
C712 C 0.04934 0.06683 0.88696 0.0
H713 H 0.89764 0.08384 0.8335 0.0
H714 H 0.93187 0.06933 0.84829 0.0
C715 C 0.06694 0.06677 0.89753 0.0
C716 C 0.01199 0.08657 0.87491 0.0
H717 H 0.94815 0.09343 0.86908 0.0
C718 C 0.02053 0.08723 0.86163 0.0
C719 C 0.98545 0.08759 0.87754 0.0
C720 C 0.97484 0.0849 0.89148 0.0
C721 C 0.00331 0.09027 0.85095 0.0
C722 C 0.97694 0.09338 0.85369 0.0
C723 C 0.96836 0.09138 0.86694 0.0
C724 C 0.95791 0.09995 0.84319 0.0
C725 C 0.0136 0.09013 0.83689 0.0
C726 C 0.96126 0.12171 0.83515 0.0
C727 C 0.94184 0.12981 0.82652 0.0
C728 C 0.91845 0.11664 0.82599 0.0
C729 C 0.91541 0.09445 0.83373 0.0
C730 C 0.93497 0.08614 0.84219 0.0
H731 H 0.03139 0.07861 0.8362 0.0
H732 H 0.99942 0.08235 0.82971 0.0
H733 H 0.01839 0.10997 0.8339 0.0
H734 H 0.97841 0.13316 0.83599 0.0
H735 H 0.94467 0.14712 0.82079 0.0
H736 H 0.83045 0.64743 0.58178 0.0
H737 H 0.81435 0.68284 0.59527 0.0
H738 H 0.87998 0.72804 0.58423 0.0
H739 H 0.89553 0.69313 0.57028 0.0
H740 H 0.83625 0.69968 0.61642 0.0
H741 H 0.82649 0.78177 0.58234 0.0
H742 H 0.83036 0.74953 0.57626 0.0
H743 H 0.85785 0.76834 0.58091 0.0
C744 C 0.84111 0.66516 0.58198 0.0
C745 C 0.86429 0.6675 0.57501 0.0
C746 C 0.83188 0.6854 0.58968 0.0
C747 C 0.84577 0.70828 0.59068 0.0
C748 C 0.86848 0.71094 0.58334 0.0
H749 H 0.86991 0.79873 0.65891 0.0
H750 H 0.86799 0.76818 0.64065 0.0
C751 C 0.8775 0.69085 0.57544 0.0
C752 C 0.83847 0.72784 0.60073 0.0
H753 H 0.83352 0.79218 0.6058 0.0
C754 C 0.83513 0.71985 0.614 0.0
C755 C 0.83653 0.75417 0.59764 0.0
C756 C 0.83771 0.76388 0.58347 0.0
C757 C 0.83149 0.7375 0.62434 0.0
C758 C 0.83199 0.76391 0.62141 0.0
C759 C 0.83364 0.77192 0.60806 0.0
C760 C 0.83305 0.78327 0.63218 0.0
C761 C 0.82766 0.72762 0.63836 0.0
C762 C 0.81454 0.8026 0.63319 0.0
C763 C 0.81572 0.82043 0.64363 0.0
C764 C 0.83547 0.81915 0.65315 0.0
C765 C 0.85423 0.80009 0.65187 0.0
C766 C 0.85312 0.78249 0.64146 0.0
H767 H 0.81908 0.70821 0.6383 0.0
H768 H 0.84647 0.72628 0.64344 0.0
H769 H 0.81516 0.74052 0.64426 0.0
H770 H 0.79904 0.80365 0.62604 0.0
H771 H 0.80106 0.83497 0.64431 0.0
H772 H 0.10345 0.08463 0.33845 0.0
H773 H 0.06871 0.06539 0.35107 0.0
H774 H 0.01379 0.09889 0.3241 0.0
H775 H 0.04856 0.11886 0.31155 0.0
H776 H 0.00306 0.1101 0.34917 0.0
H777 H 0.02072 0.00632 0.34636 0.0
H778 H 0.04903 0.02286 0.35154 0.0
H779 H 0.0359 0.02872 0.33517 0.0
C780 C 0.08401 0.08757 0.33503 0.0
C781 C 0.07876 0.10344 0.32404 0.0
C782 C 0.06415 0.07628 0.34219 0.0
C783 C 0.03864 0.08029 0.33841 0.0
C784 C 0.03336 0.09535 0.32713 0.0
H785 H 0.91021 0.03249 0.3901 0.0
H786 H 0.93734 0.03452 0.37009 0.0
C787 C 0.05324 0.10682 0.31999 0.0
C788 C 0.0177 0.07176 0.34731 0.0
H789 H 0.99704 0.02107 0.36591 0.0
C790 C 0.00135 0.09049 0.35255 0.0
C791 C 0.01529 0.04614 0.3517 0.0
C792 C 0.03102 0.02485 0.34577 0.0
C793 C 0.98391 0.08465 0.36269 0.0
C794 C 0.98302 0.05954 0.36781 0.0
C795 C 0.99807 0.04038 0.36203 0.0
C796 C 0.96845 0.05393 0.38006 0.0
C797 C 0.96733 0.10566 0.36831 0.0
C798 C 0.97753 0.06328 0.39228 0.0
C799 C 0.9622 0.06223 0.40362 0.0
C800 C 0.93752 0.05172 0.40295 0.0
C801 C 0.92917 0.04064 0.39091 0.0
C802 C 0.94457 0.04182 0.37948 0.0
H803 H 0.96625 0.12234 0.36147 0.0
H804 H 0.94768 0.09856 0.37023 0.0
H805 H 0.97548 0.11221 0.37796 0.0
H806 H 0.99601 0.07256 0.39288 0.0
H807 H 0.96928 0.07072 0.41278 0.0
H808 H 0.64812 0.40539 0.11252 0.0
H809 H 0.65571 0.37563 0.13107 0.0
H810 H 0.67162 0.31536 0.10297 0.0
H811 H 0.66373 0.34473 0.08443 0.0
H812 H 0.62202 0.32204 0.12751 0.0
H813 H 0.72633 0.3156 0.13814 0.0
H814 H 0.71162 0.34513 0.13274 0.0
H815 H 0.71541 0.31936 0.12114 0.0
C816 C 0.65419 0.38606 0.11031 0.0
C817 C 0.65523 0.37732 0.09704 0.0
C818 C 0.65841 0.36909 0.1209 0.0
C819 C 0.66425 0.34339 0.11833 0.0
C820 C 0.66733 0.33519 0.10512 0.0
H821 H 0.67728 0.20228 0.16255 0.0
H822 H 0.68189 0.2381 0.147 0.0
C823 C 0.66279 0.35198 0.09456 0.0
C824 C 0.66292 0.32419 0.12911 0.0
H825 H 0.6993 0.28666 0.14949 0.0
C826 C 0.63884 0.31445 0.13246 0.0
C827 C 0.68499 0.31412 0.13525 0.0
C828 C 0.71116 0.324 0.13173 0.0
C829 C 0.6362 0.29444 0.14167 0.0
C830 C 0.65825 0.28446 0.14802 0.0
C831 C 0.6824 0.2944 0.1447 0.0
C832 C 0.65657 0.26331 0.15787 0.0
C833 C 0.60987 0.28355 0.14405 0.0
C834 C 0.64124 0.26573 0.16929 0.0
C835 C 0.63824 0.24519 0.17806 0.0
C836 C 0.65096 0.22196 0.17574 0.0
C837 C 0.66714 0.21989 0.16458 0.0
C838 C 0.66985 0.24036 0.15571 0.0
H839 H 0.59661 0.28807 0.13571 0.0
H840 H 0.61058 0.26248 0.1453 0.0
H841 H 0.6018 0.29202 0.15329 0.0
H842 H 0.63138 0.28347 0.17138 0.0
H843 H 0.62597 0.24755 0.18667 0.0
H844 H 0.51896 0.89623 0.92275 0.0
H845 H 0.48363 0.90048 0.90697 0.0
H846 H 0.53029 0.94791 0.88165 0.0
H847 H 0.56598 0.94395 0.89751 0.0
H848 H 0.46057 0.95074 0.89484 0.0
H849 H 0.50497 0.88105 0.8597 0.0
H850 H 0.51298 0.88153 0.87725 0.0
H851 H 0.52443 0.90634 0.86648 0.0
C852 C 0.52177 0.90771 0.91387 0.0
C853 C 0.54539 0.9196 0.91133 0.0
C854 C 0.50147 0.91022 0.90491 0.0
C855 C 0.50441 0.92447 0.89319 0.0
C856 C 0.52772 0.93684 0.89069 0.0
H857 H 0.40713 0.91361 0.82337 0.0
H858 H 0.44029 0.92794 0.83882 0.0
C859 C 0.54806 0.93453 0.89973 0.0
C860 C 0.48349 0.92483 0.88324 0.0
H861 H 0.46419 0.89624 0.85437 0.0
C862 C 0.46136 0.93909 0.88589 0.0
C863 C 0.48468 0.90957 0.87164 0.0
C864 C 0.50793 0.8936 0.86852 0.0
C865 C 0.44022 0.93839 0.8772 0.0
C866 C 0.44107 0.92243 0.86578 0.0
C867 C 0.46349 0.90856 0.86308 0.0
C868 C 0.41887 0.91883 0.85667 0.0
C869 C 0.41736 0.95488 0.8803 0.0
C870 C 0.39527 0.9099 0.86153 0.0
C871 C 0.37599 0.90223 0.85266 0.0
C872 C 0.38031 0.9028 0.83883 0.0
C873 C 0.40334 0.91297 0.834 0.0
C874 C 0.42233 0.92108 0.84282 0.0
H875 H 0.42287 0.97179 0.88636 0.0
H876 H 0.40782 0.96159 0.87103 0.0
H877 H 0.4034 0.94361 0.88619 0.0
H878 H 0.39229 0.90737 0.87214 0.0
H879 H 0.35855 0.89408 0.85662 0.0
H880 H 0.89491 0.29545 0.93878 0.0
H881 H 0.88134 0.25922 0.92496 0.0
H882 H 0.84215 0.31087 0.89835 0.0
H883 H 0.85498 0.34692 0.91219 0.0
H884 H 0.81498 0.26635 0.90268 0.0
H885 H 0.91625 0.24622 0.8893 0.0
H886 H 0.90887 0.24498 0.9068 0.0
H887 H 0.90687 0.27485 0.89802 0.0
C888 C 0.88317 0.29903 0.93007 0.0
C889 C 0.87631 0.3241 0.92649 0.0
C890 C 0.8755 0.27834 0.92217 0.0
C891 C 0.86112 0.28243 0.91051 0.0
C892 C 0.85328 0.30729 0.90729 0.0
H893 H 0.85698 0.21083 0.83545 0.0
H894 H 0.86045 0.23737 0.85534 0.0
C895 C 0.86075 0.3279 0.9152 0.0
C896 C 0.85571 0.2614 0.90103 0.0
H897 H 0.8848 0.22166 0.87873 0.0
C898 C 0.8302 0.25628 0.89754 0.0
C899 C 0.87566 0.24853 0.89428 0.0
C900 C 0.90346 0.25398 0.89717 0.0
C901 C 0.82413 0.23929 0.88714 0.0
C902 C 0.84413 0.2269 0.88023 0.0
C903 C 0.86955 0.23122 0.88409 0.0
C904 C 0.83955 0.2114 0.8681 0.0
C905 C 0.79655 0.2357 0.88318 0.0
C906 C 0.82617 0.18818 0.86863 0.0
C907 C 0.82397 0.17294 0.85717 0.0
C908 C 0.83539 0.18063 0.84511 0.0
C909 C 0.8481 0.20426 0.84459 0.0
C910 C 0.85013 0.21946 0.85596 0.0
H911 H 0.7838 0.24989 0.88805 0.0
H912 H 0.79433 0.23733 0.87218 0.0
H913 H 0.79019 0.21631 0.88616 0.0
H914 H 0.81815 0.18148 0.87795 0.0
H915 H 0.8142 0.15475 0.85789 0.0
H916 H 0.40644 0.08893 0.66751 0.0
H917 H 0.44075 0.07382 0.65302 0.0
H918 H 0.48355 0.14258 0.66113 0.0
H919 H 0.44971 0.15726 0.67612 0.0
H920 H 0.45391 0.09488 0.63085 0.0
H921 H 0.53998 0.09154 0.66273 0.0
H922 H 0.50825 0.09449 0.66961 0.0
H923 H 0.52506 0.1223 0.66366 0.0
C924 C 0.42342 0.10058 0.66641 0.0
C925 C 0.4254 0.12431 0.6729 0.0
C926 C 0.44303 0.09191 0.65814 0.0
C927 C 0.46491 0.1069 0.65606 0.0
C928 C 0.46724 0.1303 0.66285 0.0
H929 H 0.54891 0.12246 0.58442 0.0
H930 H 0.51976 0.12324 0.60329 0.0
C931 C 0.44779 0.13879 0.67133 0.0
C932 C 0.48363 0.09952 0.64561 0.0
H933 H 0.54744 0.09478 0.6389 0.0
C934 C 0.47434 0.09444 0.63271 0.0
C935 C 0.51029 0.09848 0.648 0.0
C936 C 0.52143 0.10172 0.66179 0.0
C937 C 0.49093 0.08961 0.62204 0.0
C938 C 0.51761 0.09067 0.62421 0.0
C939 C 0.52697 0.09438 0.63722 0.0
C940 C 0.53587 0.08993 0.61293 0.0
C941 C 0.47965 0.08371 0.6085 0.0
C942 C 0.55524 0.07139 0.61229 0.0
C943 C 0.57226 0.07102 0.60149 0.0
C944 C 0.57016 0.08923 0.59122 0.0
C945 C 0.55092 0.10792 0.59204 0.0
C946 C 0.53412 0.10836 0.60282 0.0
H947 H 0.46031 0.07514 0.60943 0.0
H948 H 0.47771 0.10171 0.60274 0.0
H949 H 0.49199 0.0704 0.60277 0.0
H950 H 0.55703 0.05713 0.62007 0.0
H951 H 0.58696 0.05647 0.60118 0.0
H952 H 0.69186 0.84064 0.35431 0.0
H953 H 0.689 0.81268 0.37394 0.0
H954 H 0.64454 0.75869 0.35114 0.0
H955 H 0.64695 0.78644 0.33167 0.0
H956 H 0.6221 0.77231 0.37516 0.0
H957 H 0.7236 0.74377 0.38232 0.0
H958 H 0.7174 0.7775 0.38126 0.0
H959 H 0.71204 0.75758 0.36693 0.0
C960 C 0.68181 0.82263 0.35344 0.0
C961 C 0.66956 0.81582 0.34144 0.0
C962 C 0.68026 0.80665 0.36466 0.0
C963 C 0.66664 0.78356 0.36398 0.0
C964 C 0.65509 0.77645 0.35189 0.0
H965 H 0.65347 0.64776 0.40971 0.0
H966 H 0.66583 0.68272 0.39498 0.0
C967 C 0.65653 0.79236 0.34076 0.0
C968 C 0.66288 0.76727 0.37594 0.0
H969 H 0.69366 0.72769 0.39779 0.0
C970 C 0.63775 0.76272 0.3802 0.0
C971 C 0.68335 0.75474 0.38243 0.0
C972 C 0.71064 0.7584 0.37799 0.0
C973 C 0.63241 0.74538 0.3905 0.0
C974 C 0.65285 0.73263 0.39694 0.0
C975 C 0.67807 0.73767 0.39292 0.0
C976 C 0.64814 0.71224 0.40693 0.0
C977 C 0.60485 0.73993 0.39392 0.0
C978 C 0.63481 0.71731 0.41881 0.0
C979 C 0.62749 0.69728 0.42724 0.0
C980 C 0.6336 0.67185 0.42399 0.0
C981 C 0.6483 0.66707 0.4125 0.0
C982 C 0.65547 0.68707 0.40406 0.0
H983 H 0.59153 0.74719 0.38615 0.0
H984 H 0.60161 0.7191 0.39513 0.0
H985 H 0.60001 0.74944 0.40349 0.0
H986 H 0.6294 0.73668 0.42135 0.0
H987 H 0.61639 0.70165 0.43607 0.0
H988 H 0.05285 0.85488 0.17878 0.0
H989 H 0.01914 0.86831 0.16339 0.0
H990 H 0.06687 0.92991 0.14942 0.0
H991 H 0.10109 0.91593 0.16441 0.0
H992 H 0.99119 0.91073 0.15869 0.0
H993 H 0.0545 0.89124 0.11539 0.0
H994 H 0.06309 0.88249 0.13221 0.0
H995 H 0.06672 0.91497 0.12663 0.0
C996 C 0.05607 0.87149 0.17256 0.0
C997 C 0.07979 0.8841 0.17265 0.0
C998 C 0.03676 0.87917 0.16377 0.0
C999 C 0.0407 0.89973 0.155 0.0
C1000 C 0.06367 0.91352 0.1558 0.0
H1001 H 0.91681 0.94992 0.10051 0.0
H1002 H 0.94803 0.94978 0.11887 0.0
C1003 C 0.08315 0.9056 0.16443 0.0
C1004 C 0.02152 0.90542 0.14445 0.0
H1005 H 0.01353 0.90714 0.11062 0.0
C1006 C 0.99606 0.91009 0.14817 0.0
C1007 C 0.02785 0.90428 0.13071 0.0
C1008 C 0.05445 0.89774 0.12596 0.0
C1009 C 0.97669 0.91313 0.13854 0.0
C1010 C 0.9831 0.91206 0.12482 0.0
C1011 C 0.00866 0.9081 0.12114 0.0
C1012 C 0.96352 0.91253 0.11406 0.0
C1013 C 0.94943 0.91629 0.14315 0.0
C1014 C 0.96213 0.89192 0.10513 0.0
C1015 C 0.94477 0.89218 0.09457 0.0
C1016 C 0.92817 0.91299 0.0927 0.0
C1017 C 0.92926 0.93356 0.10173 0.0
C1018 C 0.94697 0.93342 0.11227 0.0
H1019 H 0.94704 0.91089 0.1538 0.0
H1020 H 0.94373 0.9366 0.14205 0.0
H1021 H 0.93626 0.90451 0.13701 0.0
H1022 H 0.97462 0.87556 0.10631 0.0
H1023 H 0.94434 0.87592 0.08788 0.0
H1024 H 0.70383 0.67761 0.85134 0.0
H1025 H 0.69945 0.70819 0.86986 0.0
H1026 H 0.62444 0.72886 0.85559 0.0
H1027 H 0.6289 0.69928 0.83707 0.0
H1028 H 0.6525 0.77016 0.86083 0.0
H1029 H 0.65715 0.70299 0.90376 0.0
H1030 H 0.68406 0.70201 0.89264 0.0
H1031 H 0.65312 0.69221 0.88676 0.0
C1032 C 0.68641 0.68866 0.85221 0.0
C1033 C 0.6668 0.68611 0.84268 0.0
C1034 C 0.68386 0.70598 0.86284 0.0
C1035 C 0.66149 0.72066 0.86419 0.0
C1036 C 0.64189 0.71783 0.85475 0.0
H1037 H 0.59242 0.80491 0.92833 0.0
H1038 H 0.60809 0.77241 0.91274 0.0
C1039 C 0.64452 0.70087 0.84413 0.0
C1040 C 0.65836 0.73983 0.87502 0.0
H1041 H 0.65272 0.74684 0.90883 0.0
C1042 C 0.65272 0.76508 0.87134 0.0
C1043 C 0.6584 0.73312 0.88872 0.0
C1044 C 0.66329 0.70609 0.89326 0.0
C1045 C 0.64637 0.78363 0.88087 0.0
C1046 C 0.64656 0.77703 0.89459 0.0
C1047 C 0.65276 0.75191 0.89833 0.0
C1048 C 0.63897 0.79566 0.90506 0.0
C1049 C 0.63834 0.80978 0.87606 0.0
C1050 C 0.65161 0.81921 0.90626 0.0
C1051 C 0.64242 0.83793 0.91496 0.0
C1052 C 0.62076 0.83326 0.92289 0.0
C1053 C 0.60909 0.8091 0.92232 0.0
C1054 C 0.61807 0.7905 0.91343 0.0
H1055 H 0.6326 0.80952 0.86537 0.0
H1056 H 0.6221 0.81726 0.88202 0.0
H1057 H 0.65463 0.82319 0.87709 0.0
H1058 H 0.66822 0.82336 0.90019 0.0
H1059 H 0.65208 0.85622 0.91533 0.0
H1060 H 0.54799 0.41899 0.09198 0.0
H1061 H 0.51656 0.40992 0.10924 0.0
H1062 H 0.51459 0.33086 0.09716 0.0
H1063 H 0.54613 0.33992 0.07956 0.0
H1064 H 0.46583 0.35203 0.10345 0.0
H1065 H 0.53674 0.37099 0.14331 0.0
H1066 H 0.53439 0.39678 0.13157 0.0
H1067 H 0.54571 0.36605 0.1261 0.0
C1068 C 0.54074 0.39968 0.09288 0.0
C1069 C 0.54976 0.38008 0.08452 0.0
C1070 C 0.52286 0.39452 0.1028 0.0
C1071 C 0.51383 0.36961 0.1047 0.0
C1072 C 0.52161 0.35018 0.09592 0.0
H1073 H 0.43201 0.33216 0.17851 0.0
H1074 H 0.46365 0.33292 0.16052 0.0
C1075 C 0.5395 0.35538 0.08586 0.0
C1076 C 0.49678 0.36416 0.11613 0.0
H1077 H 0.49272 0.37124 0.14995 0.0
C1078 C 0.47175 0.3559 0.11364 0.0
C1079 C 0.50475 0.36869 0.12944 0.0
C1080 C 0.53195 0.37585 0.1328 0.0
C1081 C 0.45403 0.35339 0.12408 0.0
C1082 C 0.46149 0.35987 0.13726 0.0
C1083 C 0.48691 0.36676 0.13982 0.0
C1084 C 0.44303 0.36034 0.14845 0.0
C1085 C 0.42747 0.3439 0.1209 0.0
C1086 C 0.42155 0.37632 0.14788 0.0
C1087 C 0.40351 0.37601 0.15813 0.0
C1088 C 0.40672 0.35985 0.16923 0.0
C1089 C 0.42897 0.34486 0.17011 0.0
C1090 C 0.44699 0.34513 0.15981 0.0
H1091 H 0.42716 0.3326 0.11151 0.0
H1092 H 0.41983 0.33188 0.12911 0.0
H1093 H 0.41454 0.36051 0.11955 0.0
H1094 H 0.41854 0.38879 0.13939 0.0
H1095 H 0.38668 0.38792 0.15716 0.0
H1096 H 0.9009 0.17257 0.42414 0.0
H1097 H 0.89604 0.2044 0.40643 0.0
H1098 H 0.86073 0.14778 0.38112 0.0
H1099 H 0.86496 0.11604 0.39883 0.0
H1100 H 0.91693 0.20309 0.38124 0.0
H1101 H 0.81108 0.20695 0.37824 0.0
H1102 H 0.82769 0.19215 0.39202 0.0
H1103 H 0.82406 0.1754 0.37645 0.0
C1104 C 0.89172 0.16699 0.41489 0.0
C1105 C 0.88317 0.1418 0.41294 0.0
C1106 C 0.88908 0.18517 0.40475 0.0
C1107 C 0.87784 0.17851 0.3925 0.0
C1108 C 0.869 0.15348 0.39059 0.0
H1109 H 0.89095 0.2737 0.32007 0.0
H1110 H 0.89545 0.23814 0.33595 0.0
C1111 C 0.87148 0.13534 0.40074 0.0
C1112 C 0.87616 0.19755 0.38158 0.0
H1113 H 0.83399 0.22904 0.36145 0.0
C1114 C 0.89881 0.2088 0.3769 0.0
C1115 C 0.85248 0.20497 0.37598 0.0
C1116 C 0.82741 0.19444 0.38099 0.0
C1117 C 0.8984 0.2275 0.36684 0.0
C1118 C 0.87473 0.23475 0.36117 0.0
C1119 C 0.85213 0.22324 0.36574 0.0
C1120 C 0.87258 0.25589 0.35139 0.0
C1121 C 0.92316 0.23996 0.36272 0.0
C1122 C 0.85796 0.27736 0.35472 0.0
C1123 C 0.85516 0.29739 0.3457 0.0
C1124 C 0.86696 0.29649 0.33309 0.0
C1125 C 0.88173 0.275 0.32973 0.0
C1126 C 0.88441 0.25475 0.3388 0.0
H1127 H 0.93879 0.23609 0.36997 0.0
H1128 H 0.92909 0.23236 0.35286 0.0
H1129 H 0.92077 0.26096 0.36176 0.0
H1130 H 0.84871 0.27867 0.36438 0.0
H1131 H 0.84373 0.31366 0.34869 0.0
H1132 H 0.09644 0.60786 0.66708 0.0
H1133 H 0.06352 0.5944 0.65122 0.0
H1134 H 0.00499 0.62204 0.67782 0.0
H1135 H 0.03777 0.63603 0.69365 0.0
H1136 H 0.02016 0.56223 0.65247 0.0
H1137 H 0.99397 0.66383 0.64369 0.0
H1138 H 0.02243 0.65468 0.65267 0.0
H1139 H 0.99182 0.65347 0.66075 0.0
C1140 C 0.07656 0.6108 0.66966 0.0
C1141 C 0.06975 0.62336 0.68156 0.0
C1142 C 0.05777 0.60303 0.66059 0.0
C1143 C 0.03186 0.60763 0.66325 0.0
C1144 C 0.02492 0.61875 0.67547 0.0
H1145 H 0.90614 0.56135 0.60952 0.0
H1146 H 0.93419 0.56429 0.62916 0.0
C1147 C 0.04369 0.62667 0.68452 0.0
C1148 C 0.01241 0.60262 0.65279 0.0
H1149 H 0.97061 0.63281 0.63189 0.0
C1150 C 0.00915 0.57759 0.64802 0.0
C1151 C 0.99833 0.62278 0.64691 0.0
C1152 C 0.00188 0.65024 0.65115 0.0
C1153 C 0.99233 0.57224 0.63741 0.0
C1154 C 0.97831 0.59243 0.63155 0.0
C1155 C 0.98129 0.61735 0.63648 0.0
C1156 C 0.96201 0.58876 0.61958 0.0
C1157 C 0.99037 0.54527 0.63221 0.0
C1158 C 0.96834 0.60154 0.60775 0.0
C1159 C 0.9524 0.60005 0.59662 0.0
C1160 C 0.92965 0.58576 0.59706 0.0
C1161 C 0.92356 0.57244 0.60884 0.0
C1162 C 0.9396 0.57401 0.62005 0.0
H1163 H 0.00573 0.5328 0.63625 0.0
H1164 H 0.97167 0.53706 0.63517 0.0
H1165 H 0.99138 0.54505 0.62113 0.0
H1166 H 0.98554 0.61301 0.60717 0.0
H1167 H 0.95779 0.61046 0.58771 0.0
H1168 H 0.61744 0.19997 0.55986 0.0
H1169 H 0.6298 0.23586 0.57418 0.0
H1170 H 0.66648 0.18358 0.60142 0.0
H1171 H 0.65487 0.14787 0.58708 0.0
H1172 H 0.61375 0.24329 0.5989 0.0
H1173 H 0.7191 0.23913 0.60005 0.0
H1174 H 0.70045 0.22202 0.58778 0.0
H1175 H 0.70557 0.20868 0.60416 0.0
C1176 C 0.62861 0.19619 0.56876 0.0
C1177 C 0.63513 0.17103 0.57232 0.0
C1178 C 0.63566 0.21672 0.57693 0.0
C1179 C 0.6494 0.2125 0.5888 0.0
C1180 C 0.65652 0.18747 0.59216 0.0
H1181 H 0.63848 0.28818 0.66336 0.0
H1182 H 0.63636 0.26137 0.64351 0.0
C1183 C 0.64965 0.16699 0.58397 0.0
C1184 C 0.65378 0.23366 0.59843 0.0
H1185 H 0.69889 0.26026 0.61886 0.0
C1186 C 0.63246 0.24729 0.60307 0.0
C1187 C 0.67822 0.23923 0.60378 0.0
C1188 C 0.70215 0.22666 0.59857 0.0
C1189 C 0.63468 0.26524 0.61341 0.0
C1190 C 0.65876 0.26927 0.61949 0.0
C1191 C 0.68036 0.25681 0.61434 0.0
C1192 C 0.66145 0.28514 0.63168 0.0
C1193 C 0.61109 0.27946 0.61785 0.0
C1194 C 0.67716 0.30688 0.63182 0.0
C1195 C 0.67862 0.32226 0.64326 0.0
C1196 C 0.66444 0.31603 0.65474 0.0
C1197 C 0.64945 0.29373 0.65466 0.0
C1198 C 0.64809 0.27842 0.64328 0.0
H1199 H 0.59656 0.28035 0.60976 0.0
H1200 H 0.6024 0.26931 0.62645 0.0
H1201 H 0.61579 0.29924 0.62103 0.0
H1202 H 0.68783 0.31225 0.62299 0.0
H1203 H 0.69039 0.33927 0.643 0.0
H1204 H 0.06003 0.34551 0.82283 0.0
H1205 H 0.02646 0.36069 0.83777 0.0
H1206 H 0.07219 0.42666 0.84767 0.0
H1207 H 0.10631 0.4109 0.83321 0.0
H1208 H 0.05702 0.40557 0.86923 0.0
H1209 H 0.97228 0.41363 0.83675 0.0
H1210 H 0.98576 0.3823 0.83538 0.0
H1211 H 0.00405 0.40967 0.83007 0.0
C1212 C 0.0627 0.36352 0.82798 0.0
C1213 C 0.08583 0.37696 0.8269 0.0
C1214 C 0.04337 0.37232 0.83646 0.0
C1215 C 0.04654 0.39507 0.84374 0.0
C1216 C 0.06923 0.40909 0.84216 0.0
H1217 H 0.92253 0.44211 0.89849 0.0
H1218 H 0.95314 0.44315 0.87989 0.0
C1219 C 0.08873 0.40006 0.83389 0.0
C1220 C 0.02769 0.40254 0.85415 0.0
H1221 H 0.96377 0.40797 0.86045 0.0
C1222 C 0.03667 0.40656 0.86721 0.0
C1223 C 0.00113 0.40437 0.85158 0.0
C1224 C 0.99031 0.40255 0.83764 0.0
C1225 C 0.01983 0.41091 0.87784 0.0
C1226 C 0.99319 0.41037 0.87547 0.0
C1227 C 0.98419 0.4079 0.86231 0.0
C1228 C 0.97457 0.41022 0.88663 0.0
C1229 C 0.03084 0.41572 0.89156 0.0
C1230 C 0.9762 0.39115 0.89643 0.0
C1231 C 0.95903 0.39064 0.90704 0.0
C1232 C 0.93948 0.40897 0.90802 0.0
C1233 C 0.93746 0.42781 0.89806 0.0
C1234 C 0.95489 0.42841 0.88743 0.0
H1235 H 0.05014 0.42448 0.89091 0.0
H1236 H 0.01834 0.42846 0.89754 0.0
H1237 H 0.03284 0.39726 0.8969 0.0
H1238 H 0.99073 0.37646 0.89582 0.0
H1239 H 0.96098 0.37562 0.91441 0.0
H1240 H 0.82832 0.85227 0.08063 0.0
H1241 H 0.81453 0.81834 0.0958 0.0
H1242 H 0.87937 0.77269 0.08408 0.0
H1243 H 0.89258 0.80602 0.06846 0.0
H1244 H 0.83832 0.74306 0.0886 0.0
H1245 H 0.85115 0.81097 0.13076 0.0
H1246 H 0.82754 0.82071 0.1188 0.0
H1247 H 0.86058 0.81865 0.11394 0.0
C1248 C 0.83937 0.8348 0.08113 0.0
C1249 C 0.86172 0.83192 0.0735 0.0
C1250 C 0.83156 0.8155 0.08986 0.0
C1251 C 0.84634 0.79331 0.09138 0.0
C1252 C 0.86775 0.78973 0.08314 0.0
H1253 H 0.87583 0.70435 0.15991 0.0
H1254 H 0.87311 0.73375 0.1412 0.0
C1255 C 0.8753 0.80881 0.07422 0.0
C1256 C 0.84092 0.77477 0.10223 0.0
H1257 H 0.83814 0.76941 0.13618 0.0
C1258 C 0.83808 0.7488 0.09901 0.0
C1259 C 0.84088 0.78229 0.11583 0.0
C1260 C 0.84543 0.80961 0.12009 0.0
C1261 C 0.83599 0.73006 0.10901 0.0
C1262 C 0.83609 0.73763 0.12258 0.0
C1263 C 0.83794 0.76367 0.12576 0.0
C1264 C 0.83722 0.71895 0.13372 0.0
C1265 C 0.83503 0.7023 0.10497 0.0
C1266 C 0.8179 0.70073 0.13578 0.0
C1267 C 0.81956 0.68352 0.14649 0.0
C1268 C 0.84035 0.68461 0.15539 0.0
C1269 C 0.85946 0.70305 0.15332 0.0
C1270 C 0.85795 0.71992 0.1426 0.0
H1271 H 0.84064 0.6995 0.09438 0.0
H1272 H 0.84783 0.69062 0.11138 0.0
H1273 H 0.81524 0.69508 0.10621 0.0
H1274 H 0.80146 0.69996 0.12922 0.0
H1275 H 0.80448 0.6696 0.14787 0.0
H1276 H 0.57826 0.55655 0.39687 0.0
H1277 H 0.54812 0.55808 0.37807 0.0
H1278 H 0.51917 0.63022 0.39238 0.0
H1279 H 0.54844 0.6285 0.41123 0.0
H1280 H 0.48125 0.59827 0.38621 0.0
H1281 H 0.55119 0.60142 0.34454 0.0
H1282 H 0.5544 0.57445 0.3555 0.0
H1283 H 0.56041 0.60609 0.36174 0.0
C1284 C 0.56548 0.57273 0.39597 0.0
C1285 C 0.5657 0.59236 0.40557 0.0
C1286 C 0.54841 0.57368 0.38517 0.0
C1287 C 0.53161 0.59444 0.38371 0.0
C1288 C 0.53194 0.61401 0.39328 0.0
H1289 H 0.44327 0.65468 0.31872 0.0
H1290 H 0.47698 0.64209 0.33437 0.0
C1291 C 0.54871 0.61297 0.40409 0.0
C1292 C 0.5129 0.59578 0.37257 0.0
H1293 H 0.50744 0.60039 0.33864 0.0
C1294 C 0.48697 0.59859 0.3758 0.0
C1295 C 0.52044 0.59645 0.359 0.0
C1296 C 0.54813 0.59467 0.35494 0.0
C1297 C 0.46843 0.60267 0.36592 0.0
C1298 C 0.47587 0.60308 0.35233 0.0
C1299 C 0.50175 0.59982 0.34904 0.0
C1300 C 0.45718 0.60848 0.34153 0.0
C1301 C 0.44123 0.60768 0.37023 0.0
C1302 C 0.43536 0.59318 0.33994 0.0
C1303 C 0.41593 0.60054 0.33117 0.0
C1304 C 0.41822 0.62304 0.3236 0.0
C1305 C 0.44094 0.63727 0.32443 0.0
C1306 C 0.46022 0.63009 0.33337 0.0
H1307 H 0.4401 0.61331 0.38091 0.0
H1308 H 0.43239 0.62304 0.36412 0.0
H1309 H 0.42979 0.59001 0.36892 0.0
H1310 H 0.43293 0.57603 0.34585 0.0
H1311 H 0.39879 0.58898 0.3306 0.0
H1312 H 0.3398 0.14826 0.08893 0.0
H1313 H 0.32415 0.18472 0.10154 0.0
H1314 H 0.36536 0.23582 0.07552 0.0
H1315 H 0.38172 0.19915 0.06294 0.0
H1316 H 0.3758 0.24529 0.10096 0.0
H1317 H 0.27108 0.2389 0.09592 0.0
H1318 H 0.28393 0.20879 0.10114 0.0
H1319 H 0.29253 0.22164 0.08505 0.0
C1320 C 0.34523 0.16725 0.0857 0.0
C1321 C 0.36214 0.17076 0.07495 0.0
C1322 C 0.336 0.18816 0.09286 0.0
C1323 C 0.34317 0.21309 0.08935 0.0
C1324 C 0.35938 0.21676 0.07834 0.0
H1325 H 0.29785 0.34066 0.14263 0.0
H1326 H 0.30116 0.31513 0.12207 0.0
C1327 C 0.36874 0.19578 0.07117 0.0
C1328 C 0.33632 0.23471 0.09824 0.0
H1329 H 0.28676 0.25978 0.11618 0.0
C1330 C 0.35625 0.24887 0.10402 0.0
C1331 C 0.31079 0.2397 0.10216 0.0
C1332 C 0.28838 0.22661 0.09561 0.0
C1333 C 0.35154 0.26642 0.1143 0.0
C1334 C 0.32632 0.26958 0.11905 0.0
C1335 C 0.30613 0.25695 0.11264 0.0
C1336 C 0.32126 0.28386 0.13151 0.0
C1337 C 0.37374 0.28073 0.12038 0.0
C1338 C 0.33051 0.27416 0.14362 0.0
C1339 C 0.32859 0.2885 0.15529 0.0
C1340 C 0.31732 0.31288 0.1551 0.0
C1341 C 0.3066 0.32194 0.14309 0.0
C1342 C 0.30856 0.30746 0.13135 0.0
H1343 H 0.39035 0.28146 0.11349 0.0
H1344 H 0.36816 0.30056 0.12304 0.0
H1345 H 0.37989 0.27087 0.12966 0.0
H1346 H 0.34003 0.25578 0.14395 0.0
H1347 H 0.33684 0.28084 0.16437 0.0
H1348 H 0.43709 0.55167 0.90085 0.0
H1349 H 0.46326 0.55316 0.8806 0.0
H1350 H 0.51665 0.60321 0.90046 0.0
H1351 H 0.49037 0.60233 0.92055 0.0
H1352 H 0.49952 0.62254 0.87687 0.0
H1353 H 0.53185 0.52224 0.87007 0.0
H1354 H 0.49795 0.52643 0.87187 0.0
H1355 H 0.51878 0.53378 0.88562 0.0
C1356 C 0.45473 0.5625 0.90099 0.0
C1357 C 0.46163 0.57698 0.91227 0.0
C1358 C 0.46968 0.56328 0.88941 0.0
C1359 C 0.49194 0.57824 0.88903 0.0
C1360 C 0.49949 0.59161 0.90053 0.0
H1361 H 0.61925 0.59399 0.83809 0.0
H1362 H 0.58659 0.58032 0.85379 0.0
C1363 C 0.48448 0.59104 0.91202 0.0
C1364 C 0.50629 0.582 0.87644 0.0
H1365 H 0.5429 0.55166 0.85311 0.0
C1366 C 0.5089 0.60703 0.87162 0.0
C1367 C 0.51842 0.56169 0.86962 0.0
C1368 C 0.51685 0.53453 0.87458 0.0
C1369 C 0.52408 0.61252 0.86047 0.0
C1370 C 0.53642 0.59227 0.85368 0.0
C1371 C 0.53318 0.56709 0.85825 0.0
C1372 C 0.55516 0.59729 0.8429 0.0
C1373 C 0.52782 0.64012 0.85652 0.0
C1374 C 0.54822 0.61054 0.83125 0.0
C1375 C 0.56699 0.61874 0.82226 0.0
C1376 C 0.59293 0.6135 0.82473 0.0
C1377 C 0.5995 0.59859 0.83591 0.0
C1378 C 0.58081 0.59062 0.84491 0.0
H1379 H 0.52137 0.65349 0.86444 0.0
H1380 H 0.54823 0.6441 0.85433 0.0
H1381 H 0.51654 0.64418 0.84737 0.0
H1382 H 0.52843 0.61538 0.82936 0.0
H1383 H 0.56128 0.62995 0.81367 0.0
H1384 H 0.17978 0.67404 0.65688 0.0
H1385 H 0.18124 0.70269 0.63761 0.0
H1386 H 0.1247 0.75116 0.65604 0.0
H1387 H 0.12263 0.7223 0.67517 0.0
H1388 H 0.11293 0.74027 0.63046 0.0
H1389 H 0.2138 0.77247 0.63372 0.0
H1390 H 0.21002 0.73841 0.63304 0.0
H1391 H 0.19806 0.75586 0.64719 0.0
C1392 C 0.16783 0.69093 0.65689 0.0
C1393 C 0.15108 0.6959 0.66756 0.0
C1394 C 0.16881 0.70737 0.6459 0.0
C1395 C 0.15334 0.72925 0.64547 0.0
C1396 C 0.13686 0.7344 0.65618 0.0
H1397 H 0.15496 0.86243 0.596 0.0
H1398 H 0.1626 0.82954 0.61279 0.0
C1399 C 0.1357 0.71789 0.66711 0.0
C1400 C 0.1532 0.74615 0.63359 0.0
H1401 H 0.19053 0.78523 0.6145 0.0
C1402 C 0.12991 0.75007 0.62695 0.0
C1403 C 0.17536 0.75901 0.6291 0.0
C1404 C 0.20069 0.75646 0.63619 0.0
C1405 C 0.12802 0.76677 0.61606 0.0
C1406 C 0.15024 0.77936 0.61142 0.0
C1407 C 0.17362 0.77527 0.61797 0.0
C1408 C 0.14903 0.79838 0.60048 0.0
C1409 C 0.10203 0.7715 0.60997 0.0
C1410 C 0.13989 0.79161 0.58777 0.0
C1411 C 0.13525 0.81043 0.57817 0.0
C1412 C 0.14001 0.83629 0.58106 0.0
C1413 C 0.15096 0.84272 0.59345 0.0
C1414 C 0.15537 0.82393 0.60308 0.0
H1415 H 0.08634 0.76515 0.61666 0.0
H1416 H 0.09927 0.79208 0.60771 0.0
H1417 H 0.1004 0.76065 0.60048 0.0
H1418 H 0.13547 0.77189 0.58546 0.0
H1419 H 0.12707 0.80482 0.56867 0.0
H1420 H 0.0686 0.44188 0.4015 0.0
H1421 H 0.03239 0.44574 0.38602 0.0
H1422 H 0.99016 0.39067 0.40919 0.0
H1423 H 0.02606 0.38643 0.42451 0.0
H1424 H 0.99189 0.3793 0.38235 0.0
H1425 H 0.96185 0.47996 0.39044 0.0
H1426 H 0.99516 0.47543 0.38676 0.0
H1427 H 0.98219 0.463 0.40202 0.0
C1428 C 0.05152 0.43075 0.40334 0.0
C1429 C 0.0503 0.41375 0.41421 0.0
C1430 C 0.03078 0.43313 0.39455 0.0
C1431 C 0.00847 0.41872 0.39656 0.0
C1432 C 0.00714 0.40206 0.40749 0.0
H1433 H 0.86085 0.40838 0.35709 0.0
H1434 H 0.89493 0.41887 0.3731 0.0
C1435 C 0.02777 0.39962 0.41622 0.0
C1436 C 0.98716 0.41926 0.38679 0.0
H1437 H 0.94127 0.45739 0.37281 0.0
C1438 C 0.98083 0.39638 0.38029 0.0
C1439 C 0.97263 0.44153 0.3842 0.0
C1440 C 0.97808 0.46637 0.39128 0.0
C1441 C 0.96049 0.39515 0.37121 0.0
C1442 C 0.94628 0.41748 0.36841 0.0
C1443 C 0.95236 0.44038 0.37496 0.0
C1444 C 0.92531 0.41692 0.35851 0.0
C1445 C 0.95422 0.36987 0.36471 0.0
C1446 C 0.9311 0.41351 0.34497 0.0
C1447 C 0.91184 0.40742 0.33589 0.0
C1448 C 0.88638 0.40477 0.34015 0.0
C1449 C 0.88028 0.41036 0.35351 0.0
C1450 C 0.8997 0.41632 0.36266 0.0
H1451 H 0.96381 0.35362 0.36979 0.0
H1452 H 0.93327 0.36648 0.36475 0.0
H1453 H 0.96064 0.37023 0.35415 0.0
H1454 H 0.95076 0.41405 0.34159 0.0
H1455 H 0.91711 0.40348 0.32563 0.0
H1456 H 0.3121 0.65903 0.35558 0.0
H1457 H 0.31487 0.68666 0.37538 0.0
H1458 H 0.35751 0.74207 0.35264 0.0
H1459 H 0.35516 0.7147 0.33302 0.0
H1460 H 0.38095 0.72805 0.3765 0.0
H1461 H 0.27919 0.75504 0.38431 0.0
H1462 H 0.28605 0.72147 0.3829 0.0
H1463 H 0.29062 0.74195 0.36873 0.0
C1464 C 0.32172 0.67728 0.35477 0.0
C1465 C 0.33351 0.6846 0.34274 0.0
C1466 C 0.32323 0.69306 0.36608 0.0
C1467 C 0.33633 0.71645 0.36546 0.0
C1468 C 0.34737 0.72407 0.35335 0.0
H1469 H 0.34918 0.85279 0.41042 0.0
H1470 H 0.33661 0.81725 0.39611 0.0
C1471 C 0.34598 0.70836 0.34213 0.0
C1472 C 0.34014 0.7326 0.37748 0.0
H1473 H 0.30937 0.77198 0.39941 0.0
C1474 C 0.3653 0.73746 0.38162 0.0
C1475 C 0.31966 0.74488 0.38406 0.0
C1476 C 0.29232 0.74081 0.37977 0.0
C1477 C 0.37066 0.75496 0.39185 0.0
C1478 C 0.35022 0.76755 0.39835 0.0
C1479 C 0.32497 0.76212 0.39448 0.0
C1480 C 0.35494 0.78827 0.40818 0.0
C1481 C 0.39824 0.7608 0.3951 0.0
C1482 C 0.36869 0.7837 0.41999 0.0
C1483 C 0.37615 0.80408 0.42818 0.0
C1484 C 0.36975 0.82934 0.42475 0.0
C1485 C 0.35459 0.83361 0.41335 0.0
C1486 C 0.34729 0.81328 0.40515 0.0
H1487 H 0.41148 0.75349 0.38732 0.0
H1488 H 0.40126 0.7817 0.39616 0.0
H1489 H 0.40339 0.7516 0.40472 0.0
H1490 H 0.37436 0.76447 0.42266 0.0
H1491 H 0.3876 0.80009 0.43695 0.0
H1492 H 0.05712 0.62745 0.08414 0.0
H1493 H 0.02799 0.62924 0.103 0.0
H1494 H 0.05802 0.55786 0.11775 0.0
H1495 H 0.08807 0.55629 0.09893 0.0
H1496 H 0.99057 0.5969 0.10927 0.0
H1497 H 0.06045 0.60202 0.15103 0.0
H1498 H 0.06963 0.60639 0.13381 0.0
H1499 H 0.06394 0.57484 0.14022 0.0
C1500 C 0.05766 0.6121 0.09139 0.0
C1501 C 0.07491 0.59168 0.09001 0.0
C1502 C 0.04097 0.61318 0.10219 0.0
C1503 C 0.04095 0.59384 0.11187 0.0
C1504 C 0.05805 0.57328 0.11055 0.0
H1505 H 0.90831 0.58933 0.16505 0.0
H1506 H 0.94217 0.57619 0.14972 0.0
C1507 C 0.07507 0.57231 0.09975 0.0
C1508 C 0.02224 0.5952 0.12298 0.0
H1509 H 0.01672 0.60103 0.15685 0.0
C1510 C 0.99628 0.59764 0.11968 0.0
C1511 C 0.02976 0.59641 0.13655 0.0
C1512 C 0.05747 0.595 0.14067 0.0
C1513 C 0.9777 0.60199 0.12949 0.0
C1514 C 0.98514 0.60301 0.14308 0.0
C1515 C 0.01104 0.60001 0.14644 0.0
C1516 C 0.96644 0.60876 0.1538 0.0
C1517 C 0.95048 0.60667 0.12509 0.0
C1518 C 0.96955 0.63057 0.16182 0.0
C1519 C 0.95044 0.63785 0.17081 0.0
C1520 C 0.92781 0.62354 0.17182 0.0
C1521 C 0.92537 0.60097 0.16432 0.0
C1522 C 0.94465 0.59349 0.15551 0.0
H1523 H 0.94934 0.61192 0.11435 0.0
H1524 H 0.93916 0.58896 0.12652 0.0
H1525 H 0.94152 0.62217 0.13103 0.0
H1526 H 0.98629 0.64256 0.16072 0.0
H1527 H 0.95288 0.65531 0.17648 0.0
H1528 H 0.14331 0.28408 0.83719 0.0
H1529 H 0.1412 0.2572 0.857 0.0
H1530 H 0.19249 0.30811 0.8777 0.0
H1531 H 0.19496 0.33528 0.85774 0.0
H1532 H 0.20292 0.25476 0.88162 0.0
H1533 H 0.10133 0.2784 0.89074 0.0
H1534 H 0.10703 0.26768 0.87397 0.0
H1535 H 0.12135 0.29695 0.87972 0.0
C1536 C 0.15429 0.28959 0.84591 0.0
C1537 C 0.16911 0.312 0.84592 0.0
C1538 C 0.15296 0.27423 0.85725 0.0
C1539 C 0.16624 0.28098 0.86889 0.0
C1540 C 0.18192 0.30273 0.86883 0.0
H1541 H 0.11864 0.19572 0.93978 0.0
H1542 H 0.13301 0.23167 0.92608 0.0
C1543 C 0.18332 0.31819 0.85742 0.0
C1544 C 0.16316 0.2653 0.88108 0.0
H1545 H 0.11725 0.24068 0.90148 0.0
C1546 C 0.1843 0.25195 0.88613 0.0
C1547 C 0.13898 0.26212 0.88713 0.0
C1548 C 0.11592 0.27725 0.88271 0.0
C1549 C 0.18152 0.23422 0.89657 0.0
C1550 C 0.15689 0.22947 0.90187 0.0
C1551 C 0.1361 0.24407 0.89735 0.0
C1552 C 0.15165 0.20813 0.91122 0.0
C1553 C 0.20493 0.22055 0.90169 0.0
C1554 C 0.1576 0.18296 0.90752 0.0
C1555 C 0.14955 0.16243 0.91535 0.0
C1556 C 0.13502 0.16659 0.92696 0.0
C1557 C 0.12975 0.19185 0.93089 0.0
C1558 C 0.13798 0.21241 0.92308 0.0
H1559 H 0.22235 0.23241 0.90035 0.0
H1560 H 0.20304 0.21559 0.91243 0.0
H1561 H 0.20766 0.20266 0.89592 0.0
H1562 H 0.16747 0.17908 0.89824 0.0
H1563 H 0.15384 0.14324 0.91199 0.0
H1564 H 0.46355 0.38911 0.58467 0.0
H1565 H 0.49076 0.3863 0.60436 0.0
H1566 H 0.43967 0.43607 0.62586 0.0
H1567 H 0.41218 0.43928 0.60601 0.0
H1568 H 0.49235 0.44715 0.62986 0.0
H1569 H 0.47171 0.34454 0.63759 0.0
H1570 H 0.48225 0.35128 0.62092 0.0
H1571 H 0.45259 0.36452 0.6268 0.0
C1572 C 0.45805 0.39959 0.59355 0.0
C1573 C 0.43552 0.41424 0.59379 0.0
C1574 C 0.4736 0.39784 0.60482 0.0
C1575 C 0.46693 0.4105 0.61665 0.0
C1576 C 0.445 0.42596 0.61685 0.0
H1577 H 0.5534 0.36229 0.68727 0.0
H1578 H 0.51728 0.37574 0.67339 0.0
C1579 C 0.42936 0.42779 0.6055 0.0
C1580 C 0.48297 0.40716 0.62874 0.0
H1581 H 0.50909 0.36094 0.64851 0.0
C1582 C 0.49575 0.42838 0.6341 0.0
C1583 C 0.48694 0.38276 0.63445 0.0
C1584 C 0.47244 0.35952 0.62974 0.0
C1585 C 0.51361 0.42558 0.6445 0.0
C1586 C 0.51911 0.40084 0.64947 0.0
C1587 C 0.50514 0.37989 0.64463 0.0
C1588 C 0.54048 0.3958 0.6589 0.0
C1589 C 0.52656 0.44912 0.64996 0.0
C1590 C 0.56551 0.40281 0.65547 0.0
C1591 C 0.58614 0.3953 0.66342 0.0
C1592 C 0.58223 0.38026 0.67488 0.0
C1593 C 0.55709 0.37385 0.67851 0.0
C1594 C 0.53642 0.38152 0.67059 0.0
H1595 H 0.51423 0.46625 0.64878 0.0
H1596 H 0.53146 0.44686 0.66069 0.0
H1597 H 0.54443 0.45261 0.6443 0.0
H1598 H 0.56927 0.41318 0.64632 0.0
H1599 H 0.60524 0.40046 0.66026 0.0
H1600 H 0.33241 0.28605 0.22631 0.0
H1601 H 0.30386 0.2622 0.24101 0.0
H1602 H 0.23866 0.29873 0.22284 0.0
H1603 H 0.26709 0.32303 0.20819 0.0
H1604 H 0.23653 0.29734 0.25075 0.0
H1605 H 0.25912 0.20186 0.22979 0.0
H1606 H 0.28678 0.21946 0.23508 0.0
H1607 H 0.2677 0.23119 0.22144 0.0
C1608 C 0.31201 0.28901 0.22541 0.0
C1609 C 0.30202 0.30633 0.21602 0.0
C1610 C 0.29571 0.27526 0.23377 0.0
C1611 C 0.26915 0.27839 0.23283 0.0
C1612 C 0.25911 0.29595 0.22364 0.0
H1613 H 0.1422 0.20713 0.27537 0.0
H1614 H 0.168 0.234 0.26058 0.0
C1615 C 0.2754 0.30978 0.21528 0.0
C1616 C 0.2519 0.26348 0.24155 0.0
H1617 H 0.23526 0.20258 0.24999 0.0
C1618 C 0.23607 0.27663 0.25053 0.0
C1619 C 0.25133 0.23648 0.24118 0.0
C1620 C 0.26695 0.22139 0.23127 0.0
C1621 C 0.2202 0.2634 0.25947 0.0
C1622 C 0.22003 0.23641 0.25925 0.0
C1623 C 0.23558 0.2233 0.25014 0.0
C1624 C 0.20426 0.22126 0.26857 0.0
C1625 C 0.20429 0.27832 0.26931 0.0
C1626 C 0.21615 0.20512 0.27786 0.0
C1627 C 0.20152 0.18974 0.28627 0.0
C1628 C 0.17469 0.19008 0.28549 0.0
C1629 C 0.1628 0.20648 0.27625 0.0
C1630 C 0.1775 0.22192 0.26784 0.0
H1631 H 0.21051 0.29857 0.27003 0.0
H1632 H 0.18402 0.27804 0.26604 0.0
H1633 H 0.20532 0.26954 0.27939 0.0
H1634 H 0.2368 0.20431 0.27852 0.0
H1635 H 0.21132 0.17732 0.29326 0.0
H1636 H 0.04895 0.89612 0.52515 0.0
H1637 H 0.0219 0.92082 0.50989 0.0
H1638 H 0.0519 0.99088 0.52626 0.0
H1639 H 0.07908 0.96651 0.54144 0.0
H1640 H 0.98431 0.95873 0.51654 0.0
H1641 H 0.06302 0.99814 0.4856 0.0
H1642 H 0.0673 0.97104 0.49653 0.0
H1643 H 0.06674 0.00286 0.50327 0.0
C1644 C 0.04984 0.91678 0.52548 0.0
C1645 C 0.06627 0.92935 0.53446 0.0
C1646 C 0.03436 0.93083 0.51678 0.0
C1647 C 0.03523 0.95762 0.51685 0.0
C1648 C 0.05133 0.9702 0.5259 0.0
H1649 H 0.96107 0.07891 0.47275 0.0
H1650 H 0.98632 0.05329 0.48836 0.0
C1651 C 0.06676 0.95621 0.53461 0.0
C1652 C 0.01904 0.97252 0.50759 0.0
H1653 H 0.02168 0.01534 0.48195 0.0
C1654 C 0.99241 0.971 0.50891 0.0
C1655 C 0.02978 0.98854 0.49772 0.0
C1656 C 0.05827 0.99016 0.49557 0.0
C1657 C 0.97615 0.98557 0.50077 0.0
C1658 C 0.98689 0.00164 0.49091 0.0
C1659 C 0.01354 0.00305 0.48956 0.0
C1660 C 0.97087 0.01706 0.48178 0.0
C1661 C 0.94768 0.98409 0.50299 0.0
C1662 C 0.95396 0.00513 0.47288 0.0
C1663 C 0.93948 0.01968 0.46397 0.0
C1664 C 0.9418 0.04645 0.46374 0.0
C1665 C 0.9588 0.05834 0.47268 0.0
C1666 C 0.97325 0.04375 0.4816 0.0
H1667 H 0.94301 0.97633 0.51302 0.0
H1668 H 0.93868 0.00321 0.50195 0.0
H1669 H 0.9391 0.97123 0.4954 0.0
H1670 H 0.95226 0.98451 0.47267 0.0
H1671 H 0.92668 0.00991 0.45717 0.0
H1672 H 0.12218 0.71677 0.7382 0.0
H1673 H 0.14377 0.74688 0.7532 0.0
H1674 H 0.21623 0.72736 0.73549 0.0
H1675 H 0.19494 0.69738 0.72046 0.0
H1676 H 0.18423 0.73675 0.77192 0.0
H1677 H 0.2131 0.80618 0.73298 0.0
H1678 H 0.18855 0.78248 0.73027 0.0
H1679 H 0.22173 0.77381 0.72912 0.0
C1680 C 0.14271 0.71893 0.73747 0.0
C1681 C 0.15683 0.70475 0.72808 0.0
C1682 C 0.15498 0.73612 0.74606 0.0
C1683 C 0.18151 0.7396 0.7453 0.0
C1684 C 0.19567 0.72528 0.73606 0.0
H1685 H 0.30816 0.80892 0.78145 0.0
H1686 H 0.2757 0.7866 0.7686 0.0
C1687 C 0.18347 0.70805 0.72752 0.0
C1688 C 0.19471 0.75779 0.75429 0.0
H1689 H 0.23473 0.80922 0.754 0.0
C1690 C 0.19494 0.75289 0.76808 0.0
C1691 C 0.20845 0.77891 0.74922 0.0
C1692 C 0.20779 0.78586 0.7346 0.0
C1693 C 0.20993 0.76763 0.77683 0.0
C1694 C 0.22471 0.78793 0.77163 0.0
C1695 C 0.22342 0.79359 0.75795 0.0
C1696 C 0.24383 0.80167 0.77985 0.0
C1697 C 0.21099 0.76055 0.79142 0.0
C1698 C 0.23666 0.81765 0.79047 0.0
C1699 C 0.25533 0.83058 0.79794 0.0
C1700 C 0.2814 0.8277 0.79483 0.0
C1701 C 0.28832 0.81164 0.78416 0.0
C1702 C 0.26977 0.79885 0.77676 0.0
H1703 H 0.20112 0.74219 0.7935 0.0
H1704 H 0.23115 0.75902 0.79481 0.0
H1705 H 0.20167 0.77576 0.79741 0.0
H1706 H 0.21668 0.82031 0.7929 0.0
H1707 H 0.24937 0.84286 0.80607 0.0
H1708 H 0.45751 0.09357 0.0262 0.0
H1709 H 0.48225 0.06367 0.01252 0.0
H1710 H 0.44997 0.00028 0.0342 0.0
H1711 H 0.42507 0.02983 0.04782 0.0
H1712 H 0.51831 0.02576 0.02088 0.0
H1713 H 0.43477 0.98315 0.99476 0.0
H1714 H 0.43284 0.01292 0.00382 0.0
H1715 H 0.43288 0.98308 0.01268 0.0
C1716 C 0.45569 0.07327 0.02807 0.0
C1717 C 0.43919 0.0641 0.03805 0.0
C1718 C 0.46983 0.05624 0.02025 0.0
C1719 C 0.46759 0.02979 0.02223 0.0
C1720 C 0.45158 0.02061 0.03235 0.0
H1721 H 0.53481 0.89889 0.98088 0.0
H1722 H 0.51147 0.92609 0.99668 0.0
C1723 C 0.43747 0.03757 0.04017 0.0
C1724 C 0.48211 0.01176 0.01375 0.0
H1725 H 0.47503 0.96414 0.99072 0.0
C1726 C 0.50889 0.0123 0.01427 0.0
C1727 C 0.4697 0.99414 0.00521 0.0
C1728 C 0.44097 0.99332 0.00395 0.0
C1729 C 0.52364 0.99557 0.0065 0.0
C1730 C 0.51123 0.9782 0.99782 0.0
C1731 C 0.48445 0.97743 0.99743 0.0
C1732 C 0.52571 0.96163 0.98854 0.0
C1733 C 0.55236 0.99646 0.00776 0.0
C1734 C 0.54111 0.97265 0.97866 0.0
C1735 C 0.55439 0.95726 0.96967 0.0
C1736 C 0.55242 0.93048 0.9703 0.0
C1737 C 0.5368 0.91944 0.98015 0.0
C1738 C 0.52346 0.93492 0.98918 0.0
H1739 H 0.55843 0.00518 0.01737 0.0
H1740 H 0.56076 0.97703 0.00701 0.0
H1741 H 0.56027 0.00828 0.99954 0.0
H1742 H 0.54265 0.99322 0.97781 0.0
H1743 H 0.56612 0.96645 0.96217 0.0
H1744 H 0.34256 0.71275 0.2719 0.0
H1745 H 0.31365 0.73729 0.25756 0.0
H1746 H 0.24879 0.70143 0.27631 0.0
H1747 H 0.27743 0.67702 0.29076 0.0
H1748 H 0.27688 0.71799 0.23946 0.0
H1749 H 0.23195 0.77798 0.27873 0.0
H1750 H 0.26126 0.76055 0.28148 0.0
H1751 H 0.23107 0.74422 0.28191 0.0
C1752 C 0.32214 0.71019 0.27304 0.0
C1753 C 0.31232 0.69299 0.28252 0.0
C1754 C 0.30566 0.7242 0.26482 0.0
C1755 C 0.27909 0.72142 0.266 0.0
C1756 C 0.26922 0.70422 0.27542 0.0
H1757 H 0.14972 0.78956 0.22419 0.0
H1758 H 0.17715 0.76353 0.23864 0.0
C1759 C 0.28565 0.69019 0.28362 0.0
C1760 C 0.26172 0.73593 0.2571 0.0
H1761 H 0.21399 0.78043 0.25703 0.0
C1762 C 0.26318 0.73171 0.24328 0.0
C1763 C 0.24378 0.75369 0.26214 0.0
C1764 C 0.24197 0.75961 0.27686 0.0
C1765 C 0.247 0.74461 0.23436 0.0
C1766 C 0.22921 0.76254 0.23938 0.0
C1767 C 0.22761 0.76663 0.25321 0.0
C1768 C 0.2126 0.77782 0.23042 0.0
C1769 C 0.2488 0.73862 0.21965 0.0
C1770 C 0.22345 0.79462 0.22111 0.0
C1771 C 0.20788 0.80945 0.21285 0.0
C1772 C 0.18109 0.80792 0.21379 0.0
C1773 C 0.17026 0.79113 0.22318 0.0
C1774 C 0.18589 0.77628 0.23145 0.0
H1775 H 0.25798 0.71979 0.21785 0.0
H1776 H 0.2296 0.73858 0.21491 0.0
H1777 H 0.26057 0.75344 0.21467 0.0
H1778 H 0.244 0.79651 0.22035 0.0
H1779 H 0.21689 0.82229 0.2058 0.0
H1780 H 0.43241 0.96768 0.45573 0.0
H1781 H 0.45802 0.99583 0.4698 0.0
H1782 H 0.48975 0.93044 0.49008 0.0
H1783 H 0.46387 0.90196 0.4761 0.0
H1784 H 0.47245 0.96928 0.50732 0.0
H1785 H 0.53507 0.00872 0.46767 0.0
H1786 H 0.50153 0.01128 0.46411 0.0
H1787 H 0.51611 0.98026 0.4653 0.0
C1788 C 0.44493 0.95919 0.46311 0.0
C1789 C 0.44615 0.93251 0.46474 0.0
C1790 C 0.45967 0.97536 0.47111 0.0
C1791 C 0.47608 0.96522 0.48084 0.0
C1792 C 0.47731 0.93863 0.48256 0.0
H1793 H 0.57662 0.03157 0.54044 0.0
H1794 H 0.55137 0.00309 0.52636 0.0
C1795 C 0.46255 0.92239 0.47455 0.0
C1796 C 0.49125 0.98249 0.4895 0.0
H1797 H 0.53676 0.02923 0.48884 0.0
C1798 C 0.48664 0.98228 0.50331 0.0
C1799 C 0.50963 0.99951 0.48421 0.0
C1800 C 0.5161 0.99988 0.46953 0.0
C1801 C 0.49961 0.99898 0.51195 0.0
C1802 C 0.51796 0.01603 0.50665 0.0
C1803 C 0.5226 0.01622 0.49285 0.0
C1804 C 0.53297 0.03347 0.5153 0.0
C1805 C 0.49316 0.99862 0.52663 0.0
C1806 C 0.53142 0.06003 0.51358 0.0
C1807 C 0.54595 0.07646 0.52159 0.0
C1808 C 0.56245 0.06655 0.53141 0.0
C1809 C 0.56402 0.03989 0.53304 0.0
C1810 C 0.54949 0.02354 0.52504 0.0
H1811 H 0.4743 0.98957 0.52852 0.0
H1812 H 0.50787 0.98744 0.53207 0.0
H1813 H 0.49293 0.01827 0.53082 0.0
H1814 H 0.51888 0.06806 0.50605 0.0
H1815 H 0.54435 0.09687 0.52005 0.0
H1816 H 0.15746 0.28454 0.77499 0.0
H1817 H 0.18521 0.25913 0.76046 0.0
H1818 H 0.25162 0.2937 0.77848 0.0
H1819 H 0.22416 0.31891 0.79313 0.0
H1820 H 0.22126 0.27654 0.74192 0.0
H1821 H 0.26736 0.21734 0.78109 0.0
H1822 H 0.23866 0.23557 0.78411 0.0
H1823 H 0.26931 0.25109 0.78411 0.0
C1824 C 0.17797 0.28663 0.77592 0.0
C1825 C 0.18857 0.30368 0.78527 0.0
C1826 C 0.19379 0.27211 0.7676 0.0
C1827 C 0.22047 0.27424 0.76854 0.0
C1828 C 0.23109 0.29135 0.77779 0.0
H1829 H 0.35019 0.21064 0.72621 0.0
H1830 H 0.32149 0.23457 0.7409 0.0
C1831 C 0.21533 0.30586 0.7861 0.0
C1832 C 0.23723 0.2592 0.75955 0.0
H1833 H 0.28552 0.21531 0.75935 0.0
C1834 C 0.23519 0.26302 0.74571 0.0
C1835 C 0.25543 0.24163 0.76454 0.0
C1836 C 0.25773 0.23593 0.77926 0.0
C1837 C 0.25127 0.25013 0.73674 0.0
C1838 C 0.26957 0.23268 0.74173 0.0
C1839 C 0.27153 0.22877 0.75556 0.0
C1840 C 0.28685 0.21821 0.73277 0.0
C1841 C 0.24895 0.25578 0.72201 0.0
C1842 C 0.27689 0.20086 0.72344 0.0
C1843 C 0.29321 0.18717 0.71503 0.0
C1844 C 0.31985 0.19047 0.71583 0.0
C1845 C 0.32978 0.20769 0.72529 0.0
C1846 C 0.31342 0.22137 0.73371 0.0
H1847 H 0.2387 0.27402 0.72013 0.0
H1848 H 0.26808 0.25682 0.71725 0.0
H1849 H 0.23803 0.24021 0.71711 0.0
H1850 H 0.25647 0.19776 0.72272 0.0
H1851 H 0.2849 0.17396 0.70791 0.0
H1852 H 0.03977 0.09577 0.97774 0.0
H1853 H 0.0138 0.06793 0.99197 0.0
H1854 H 0.04539 0.00165 0.97247 0.0
H1855 H 0.07154 0.02914 0.95833 0.0
H1856 H 0.97715 0.03077 0.98423 0.0
H1857 H 0.05769 0.98733 0.01234 0.0
H1858 H 0.06121 0.01609 0.00256 0.0
H1859 H 0.06069 0.98541 0.9945 0.0
C1860 C 0.04122 0.07527 0.97649 0.0
C1861 C 0.05784 0.06468 0.96695 0.0
C1862 C 0.02637 0.05941 0.98462 0.0
C1863 C 0.02802 0.03276 0.98341 0.0
C1864 C 0.04424 0.02216 0.97375 0.0
H1865 H 0.95483 0.90357 0.02203 0.0
H1866 H 0.98054 0.93163 0.0078 0.0
C1867 C 0.05906 0.03795 0.96563 0.0
C1868 C 0.01247 0.01595 0.99206 0.0
H1869 H 0.01675 0.9688 0.01552 0.0
C1870 C 0.98576 0.01732 0.99113 0.0
C1871 C 0.02383 0.99837 0.00101 0.0
C1872 C 0.05243 0.99678 0.00279 0.0
C1873 C 0.97006 0.00121 0.99874 0.0
C1874 C 0.98142 0.98361 0.00768 0.0
C1875 C 0.00813 0.98226 0.00862 0.0
C1876 C 0.96589 0.96669 0.0163 0.0
C1877 C 0.94146 0.00277 0.99695 0.0
C1878 C 0.94949 0.97714 0.02591 0.0
C1879 C 0.9348 0.96123 0.03403 0.0
C1880 C 0.93635 0.9345 0.03276 0.0
C1881 C 0.95313 0.92406 0.02324 0.0
C1882 C 0.96783 0.94004 0.01511 0.0
H1883 H 0.93622 0.01219 0.98738 0.0
H1884 H 0.93268 0.98347 0.99719 0.0
H1885 H 0.93318 0.01418 0.00522 0.0
H1886 H 0.94812 0.99765 0.02717 0.0
H1887 H 0.9222 0.96992 0.04131 0.0
H1888 H 0.84781 0.79327 0.72401 0.0
H1889 H 0.82005 0.76794 0.73855 0.0
H1890 H 0.75363 0.79896 0.71884 0.0
H1891 H 0.78112 0.82458 0.70441 0.0
H1892 H 0.75026 0.80009 0.74656 0.0
H1893 H 0.77924 0.70404 0.7286 0.0
H1894 H 0.80537 0.72386 0.73388 0.0
H1895 H 0.78668 0.73294 0.71957 0.0
C1896 C 0.82731 0.7946 0.72272 0.0
C1897 C 0.8167 0.81089 0.71302 0.0
C1898 C 0.81148 0.78001 0.73099 0.0
C1899 C 0.7848 0.78132 0.72964 0.0
C1900 C 0.77417 0.7976 0.72001 0.0
H1901 H 0.65676 0.70999 0.7713 0.0
H1902 H 0.68322 0.73592 0.75635 0.0
C1903 C 0.78995 0.8122 0.71175 0.0
C1904 C 0.76789 0.76627 0.7385 0.0
H1905 H 0.75295 0.70541 0.74789 0.0
C1906 C 0.75072 0.77938 0.74681 0.0
C1907 C 0.76854 0.73927 0.73878 0.0
C1908 C 0.78577 0.72414 0.72965 0.0
C1909 C 0.73456 0.76621 0.75562 0.0
C1910 C 0.73537 0.73923 0.75596 0.0
C1911 C 0.75242 0.72611 0.7476 0.0
C1912 C 0.71913 0.72417 0.76515 0.0
C1913 C 0.71723 0.78127 0.76473 0.0
C1914 C 0.73059 0.70877 0.77491 0.0
C1915 C 0.71559 0.69391 0.78341 0.0
C1916 C 0.68879 0.69403 0.78227 0.0
C1917 C 0.67732 0.70956 0.77249 0.0
C1918 C 0.6924 0.72446 0.76398 0.0
H1919 H 0.72305 0.80165 0.76539 0.0
H1920 H 0.69742 0.78055 0.76078 0.0
H1921 H 0.71713 0.77299 0.77493 0.0
H1922 H 0.75119 0.70823 0.77595 0.0
H1923 H 0.72508 0.68216 0.79081 0.0
H1924 H 0.68895 0.20933 0.22731 0.0
H1925 H 0.70902 0.23808 0.24339 0.0
H1926 H 0.63556 0.25419 0.26089 0.0
H1927 H 0.61511 0.22533 0.24477 0.0
H1928 H 0.69381 0.29296 0.24664 0.0
H1929 H 0.68555 0.23404 0.29285 0.0
H1930 H 0.68491 0.21972 0.27643 0.0
H1931 H 0.65801 0.23779 0.28219 0.0
C1932 C 0.677 0.21879 0.23462 0.0
C1933 C 0.6504 0.21502 0.23475 0.0
C1934 C 0.68852 0.23525 0.24379 0.0
C1935 C 0.67376 0.24812 0.25333 0.0
C1936 C 0.64726 0.24422 0.25365 0.0
H1937 H 0.74904 0.34837 0.31315 0.0
H1938 H 0.71381 0.32732 0.30105 0.0
C1939 C 0.63564 0.22779 0.24442 0.0
C1940 C 0.68637 0.26628 0.26252 0.0
H1941 H 0.70983 0.27179 0.29423 0.0
C1942 C 0.69694 0.2886 0.25711 0.0
C1943 C 0.69016 0.26059 0.27618 0.0
C1944 C 0.67919 0.23672 0.28235 0.0
C1945 C 0.7123 0.30477 0.26486 0.0
C1946 C 0.71755 0.2982 0.27827 0.0
C1947 C 0.70571 0.27674 0.28394 0.0
C1948 C 0.73817 0.31113 0.2858 0.0
C1949 C 0.72364 0.32828 0.25847 0.0
C1950 C 0.76337 0.30859 0.28132 0.0
C1951 C 0.78331 0.32034 0.28815 0.0
C1952 C 0.77858 0.33494 0.29969 0.0
C1953 C 0.75328 0.33735 0.30427 0.0
C1954 C 0.73318 0.32535 0.2974 0.0
H1955 H 0.71207 0.33475 0.2498 0.0
H1956 H 0.72514 0.34419 0.26577 0.0
H1957 H 0.74314 0.32376 0.25482 0.0
H1958 H 0.76763 0.29736 0.27251 0.0
H1959 H 0.80251 0.31798 0.28432 0.0
H1960 H 0.78005 0.1754 0.79259 0.0
H1961 H 0.75253 0.20014 0.77773 0.0
H1962 H 0.81888 0.23368 0.75922 0.0
H1963 H 0.84668 0.20918 0.77418 0.0
H1964 H 0.78026 0.26912 0.76564 0.0
H1965 H 0.741 0.18608 0.73787 0.0
H1966 H 0.73781 0.1839 0.75568 0.0
H1967 H 0.76909 0.18381 0.74829 0.0
C1968 C 0.78885 0.18802 0.78537 0.0
C1969 C 0.8156 0.1902 0.78453 0.0
C1970 C 0.77306 0.20203 0.77682 0.0
C1971 C 0.78368 0.21838 0.76722 0.0
C1972 C 0.81033 0.22101 0.76651 0.0
H1973 H 0.72137 0.32024 0.70691 0.0
H1974 H 0.7491 0.29532 0.7216 0.0
C1975 C 0.82617 0.207 0.77507 0.0
C1976 C 0.76692 0.23302 0.75806 0.0
H1977 H 0.7216 0.2263 0.73373 0.0
C1978 C 0.76753 0.2598 0.75861 0.0
C1979 C 0.7503 0.22075 0.74893 0.0
C1980 C 0.74959 0.19206 0.74753 0.0
C1981 C 0.75158 0.27467 0.75043 0.0
C1982 C 0.73494 0.2624 0.74131 0.0
C1983 C 0.73435 0.23563 0.74075 0.0
C1984 C 0.71808 0.27705 0.7322 0.0
C1985 C 0.75227 0.30336 0.75184 0.0
C1986 C 0.69144 0.27444 0.73301 0.0
C1987 C 0.67549 0.28856 0.72457 0.0
C1988 C 0.68593 0.30543 0.7151 0.0
C1989 C 0.71267 0.30755 0.71414 0.0
C1990 C 0.72858 0.29344 0.72258 0.0
H1991 H 0.76097 0.30935 0.76147 0.0
H1992 H 0.76393 0.31155 0.74364 0.0
H1993 H 0.73275 0.31159 0.75115 0.0
H1994 H 0.68299 0.26174 0.74032 0.0
H1995 H 0.655 0.28642 0.72555 0.0
H1996 H 0.6597 0.78929 0.27083 0.0
H1997 H 0.68827 0.7635 0.25696 0.0
H1998 H 0.75363 0.79885 0.27561 0.0
H1999 H 0.72529 0.8249 0.28941 0.0
H2000 H 0.75675 0.7966 0.24767 0.0
H2001 H 0.73127 0.70218 0.26914 0.0
H2002 H 0.70454 0.72061 0.26331 0.0
H2003 H 0.72313 0.73194 0.2772 0.0
C2004 C 0.68015 0.79155 0.27201 0.0
C2005 C 0.69019 0.80911 0.28128 0.0
C2006 C 0.69645 0.77668 0.26413 0.0
C2007 C 0.72307 0.77898 0.2654 0.0
C2008 C 0.73314 0.79668 0.27452 0.0
H2009 H 0.85472 0.70985 0.22609 0.0
H2010 H 0.82645 0.73523 0.24033 0.0
C2011 C 0.71689 0.81154 0.28241 0.0
C2012 C 0.74048 0.76337 0.25704 0.0
H2013 H 0.75793 0.70194 0.25001 0.0
C2014 C 0.75711 0.77591 0.24821 0.0
C2015 C 0.74088 0.73638 0.25777 0.0
C2016 C 0.72418 0.72192 0.26744 0.0
C2017 C 0.7738 0.76217 0.23991 0.0
C2018 C 0.7742 0.73517 0.24064 0.0
C2019 C 0.75759 0.72264 0.24947 0.0
C2020 C 0.79147 0.71956 0.23219 0.0
C2021 C 0.7904 0.77664 0.2302 0.0
C2022 C 0.78123 0.70181 0.22315 0.0
C2023 C 0.79732 0.68716 0.21506 0.0
C2024 C 0.82403 0.68986 0.2159 0.0
C2025 C 0.83426 0.70739 0.22513 0.0
C2026 C 0.81812 0.72203 0.23322 0.0
H2027 H 0.78323 0.79635 0.22848 0.0
H2028 H 0.81005 0.77806 0.2343 0.0
H2029 H 0.79144 0.76661 0.22044 0.0
H2030 H 0.76072 0.6995 0.22224 0.0
H2031 H 0.78877 0.67381 0.2081 0.0
H2032 H 0.55962 0.43879 0.03737 0.0
H2033 H 0.5355 0.46917 0.02399 0.0
H2034 H 0.57092 0.53176 0.045 0.0
H2035 H 0.59553 0.50125 0.05857 0.0
H2036 H 0.50107 0.50854 0.03356 0.0
H2037 H 0.58337 0.54639 0.00431 0.0
H2038 H 0.58516 0.5165 0.01327 0.0
H2039 H 0.58588 0.54614 0.02225 0.0
C2040 C 0.56241 0.45899 0.0392 0.0
C2041 C 0.57962 0.46759 0.04902 0.0
C2042 C 0.54851 0.47632 0.03154 0.0
C2043 C 0.55158 0.50265 0.03345 0.0
C2044 C 0.56853 0.51147 0.0433 0.0
H2045 H 0.47955 0.61723 0.98134 0.0
H2046 H 0.50427 0.59807 0.99956 0.0
C2047 C 0.58247 0.49404 0.05106 0.0
C2048 C 0.53681 0.52045 0.02496 0.0
H2049 H 0.54233 0.56004 0.99803 0.0
C2050 C 0.51007 0.52009 0.0259 0.0
C2051 C 0.54867 0.53554 0.01504 0.0
C2052 C 0.57734 0.53622 0.01352 0.0
C2053 C 0.4948 0.53376 0.01688 0.0
C2054 C 0.50661 0.54774 0.0065 0.0
C2055 C 0.53337 0.54915 0.00596 0.0
C2056 C 0.49151 0.5595 0.99561 0.0
C2057 C 0.46614 0.53281 0.01842 0.0
C2058 C 0.47651 0.54408 0.98723 0.0
C2059 C 0.46242 0.55491 0.97683 0.0
C2060 C 0.46317 0.58139 0.97454 0.0
C2061 C 0.47848 0.59678 0.98286 0.0
C2062 C 0.49262 0.58589 0.99327 0.0
H2063 H 0.46055 0.52808 0.02884 0.0
H2064 H 0.45725 0.55131 0.01561 0.0
H2065 H 0.45831 0.51774 0.01178 0.0
H2066 H 0.47583 0.52359 0.98869 0.0
H2067 H 0.45095 0.54249 0.97058 0.0
H2068 H 0.04078 0.39683 0.48337 0.0
H2069 H 0.01574 0.42489 0.49797 0.0
H2070 H 0.0483 0.49094 0.4787 0.0
H2071 H 0.0731 0.46327 0.46404 0.0
H2072 H 0.0328 0.46413 0.51575 0.0
H2073 H 0.97072 0.5023 0.47542 0.0
H2074 H 0.98988 0.47389 0.47337 0.0
H2075 H 0.00433 0.50495 0.47211 0.0
C2076 C 0.04262 0.41733 0.48226 0.0
C2077 C 0.05878 0.4278 0.47247 0.0
C2078 C 0.02833 0.4333 0.4906 0.0
C2079 C 0.02989 0.45993 0.48923 0.0
C2080 C 0.04646 0.47042 0.47972 0.0
H2081 H 0.95985 0.59142 0.52676 0.0
H2082 H 0.9862 0.56222 0.51352 0.0
C2083 C 0.0607 0.45453 0.47139 0.0
C2084 C 0.01428 0.47692 0.49774 0.0
H2085 H 0.96823 0.52302 0.49647 0.0
C2086 C 0.01855 0.47691 0.51158 0.0
C2087 C 0.99578 0.49356 0.49222 0.0
C2088 C 0.98968 0.4936 0.47748 0.0
C2089 C 0.00517 0.49358 0.52003 0.0
C2090 C 0.98681 0.51034 0.51449 0.0
C2091 C 0.98244 0.51023 0.50066 0.0
C2092 C 0.9716 0.52794 0.52286 0.0
C2093 C 0.01117 0.49353 0.53478 0.0
C2094 C 0.95458 0.51826 0.53239 0.0
C2095 C 0.93951 0.53483 0.53995 0.0
C2096 C 0.9411 0.56142 0.53805 0.0
C2097 C 0.95821 0.57106 0.52848 0.0
C2098 C 0.97326 0.55443 0.52091 0.0
H2099 H 0.0299 0.48439 0.53691 0.0
H2100 H 0.01141 0.51329 0.53882 0.0
H2101 H 0.99619 0.48263 0.54015 0.0
H2102 H 0.95265 0.49785 0.53385 0.0
H2103 H 0.92646 0.52675 0.54719 0.0
H2104 H 0.04712 0.59731 0.0195 0.0
H2105 H 0.02051 0.56847 0.00616 0.0
H2106 H 0.05451 0.50356 0.02585 0.0
H2107 H 0.08135 0.53211 0.03911 0.0
H2108 H 0.05232 0.49904 0.99794 0.0
H2109 H 0.95837 0.52728 0.0191 0.0
H2110 H 0.97736 0.55326 0.01287 0.0
H2111 H 0.98831 0.53528 0.02705 0.0
C2112 C 0.04889 0.5769 0.02102 0.0
C2113 C 0.06632 0.56704 0.03041 0.0
C2114 C 0.03356 0.56046 0.01345 0.0
C2115 C 0.0353 0.5339 0.01517 0.0
C2116 C 0.0528 0.52401 0.02443 0.0
H2117 H 0.96429 0.40046 0.97882 0.0
H2118 H 0.99006 0.42964 0.99239 0.0
C2119 C 0.0681 0.54039 0.032 0.0
C2120 C 0.01936 0.5163 0.00709 0.0
H2121 H 0.95766 0.49907 1.00059 0.0
C2122 C 0.03163 0.49896 0.99854 0.0
C2123 C 0.99239 0.5163 0.00791 0.0
C2124 C 0.97826 0.53386 0.0173 0.0
C2125 C 0.01761 0.48185 0.99061 0.0
C2126 C 0.99063 0.48179 0.99145 0.0
C2127 C 0.97836 0.49916 0.99998 0.0
C2128 C 0.97476 0.46402 0.98344 0.0
C2129 C 0.03176 0.46438 0.98118 0.0
C2130 C 0.95713 0.4737 0.97417 0.0
C2131 C 0.94228 0.4571 0.96647 0.0
C2132 C 0.94468 0.43048 0.96793 0.0
C2133 C 0.96208 0.42084 0.97739 0.0
C2134 C 0.97693 0.43748 0.9851 0.0
H2135 H 0.05154 0.47118 0.97928 0.0
H2136 H 0.03299 0.44503 0.98566 0.0
H2137 H 0.02158 0.46276 0.97148 0.0
H2138 H 0.95508 0.49412 0.97279 0.0
H2139 H 0.92902 0.4652 0.95931 0.0
H2140 H 0.57213 0.53507 0.45732 0.0
H2141 H 0.54681 0.50768 0.47193 0.0
H2142 H 0.51609 0.57415 0.49164 0.0
H2143 H 0.54121 0.60185 0.47694 0.0
H2144 H 0.54874 0.50503 0.49989 0.0
H2145 H 0.45204 0.53255 0.48197 0.0
H2146 H 0.48073 0.53982 0.47273 0.0
H2147 H 0.47207 0.55872 0.487 0.0
C2148 C 0.55988 0.54395 0.4647 0.0
C2149 C 0.55864 0.5707 0.46592 0.0
C2150 C 0.54546 0.52822 0.47305 0.0
C2151 C 0.52937 0.53887 0.48276 0.0
C2152 C 0.52805 0.56555 0.48405 0.0
H2153 H 0.42951 0.47224 0.54251 0.0
H2154 H 0.45464 0.50088 0.52844 0.0
C2155 C 0.54251 0.58135 0.47568 0.0
C2156 C 0.51459 0.5219 0.49174 0.0
H2157 H 0.45396 0.50509 0.50072 0.0
C2158 C 0.52801 0.50498 0.50006 0.0
C2159 C 0.48757 0.52194 0.49194 0.0
C2160 C 0.47217 0.53905 0.48286 0.0
C2161 C 0.51513 0.48827 0.50871 0.0
C2162 C 0.48811 0.48817 0.50885 0.0
C2163 C 0.47469 0.5052 0.50058 0.0
C2164 C 0.47335 0.47057 0.51751 0.0
C2165 C 0.53058 0.47121 0.5178 0.0
C2166 C 0.47541 0.44399 0.51596 0.0
C2167 C 0.4611 0.42751 0.52401 0.0
C2168 C 0.44433 0.43734 0.53371 0.0
C2169 C 0.44227 0.464 0.53517 0.0
C2170 C 0.45659 0.48043 0.52713 0.0
H2171 H 0.55048 0.47825 0.519 0.0
H2172 H 0.52162 0.46979 0.52782 0.0
H2173 H 0.53146 0.45174 0.51344 0.0
H2174 H 0.48786 0.43599 0.50841 0.0
H2175 H 0.46302 0.4071 0.52256 0.0
H2176 H 0.20377 0.06189 0.298 0.0
H2177 H 0.21176 0.02889 0.28107 0.0
H2178 H 0.14411 0.0525 0.25974 0.0
H2179 H 0.1363 0.08554 0.2763 0.0
H2180 H 0.18238 0.98851 0.27366 0.0
H2181 H 0.19641 0.05167 0.23015 0.0
H2182 H 0.19689 0.06346 0.2471 0.0
H2183 H 0.16698 0.05888 0.23849 0.0
C2184 C 0.19071 0.06011 0.28965 0.0
C2185 C 0.1695 0.07646 0.28846 0.0
C2186 C 0.19532 0.0413 0.27999 0.0
C2187 C 0.17887 0.03866 0.26897 0.0
C2188 C 0.15751 0.0547 0.26792 0.0
H2189 H 0.13504 0.91202 0.22177 0.0
H2190 H 0.14263 0.94492 0.23852 0.0
C2191 C 0.15296 0.07347 0.27749 0.0
C2192 C 0.18293 0.01837 0.25887 0.0
H2193 H 0.18361 0.00825 0.2252 0.0
C2194 C 0.18312 0.99281 0.26307 0.0
C2195 C 0.18448 0.02397 0.24506 0.0
C2196 C 0.18648 0.05101 0.23995 0.0
C2197 C 0.1831 0.9727 0.2538 0.0
C2198 C 0.18222 0.97837 0.23998 0.0
C2199 C 0.18378 0.00389 0.23579 0.0
C2200 C 0.178 0.95827 0.22976 0.0
C2201 C 0.1837 0.94561 0.25892 0.0
C2202 C 0.1948 0.9555 0.21893 0.0
C2203 C 0.19026 0.9369 0.20916 0.0
C2204 C 0.16882 0.92079 0.21007 0.0
C2205 C 0.15186 0.92393 0.22082 0.0
C2206 C 0.15631 0.94259 0.2305 0.0
H2207 H 0.19322 0.94452 0.26883 0.0
H2208 H 0.16382 0.93862 0.26016 0.0
H2209 H 0.19382 0.9327 0.2519 0.0
H2210 H 0.2115 0.96761 0.21809 0.0
H2211 H 0.20369 0.93497 0.201 0.0
H2212 H 0.1929 0.95726 0.54887 0.0
H2213 H 0.22563 0.96421 0.5317 0.0
H2214 H 0.20437 0.89329 0.51278 0.0
H2215 H 0.17157 0.88645 0.52961 0.0
H2216 H 0.26714 0.93576 0.52476 0.0
H2217 H 0.20158 0.94246 0.48164 0.0
H2218 H 0.19052 0.9443 0.49869 0.0
H2219 H 0.19616 0.91373 0.49096 0.0
C2220 C 0.19524 0.94317 0.54105 0.0
C2221 C 0.17949 0.9214 0.54056 0.0
C2222 C 0.21387 0.9472 0.53123 0.0
C2223 C 0.21698 0.9296 0.52076 0.0
C2224 C 0.20178 0.90754 0.52051 0.0
H2225 H 0.34327 0.88699 0.47335 0.0
H2226 H 0.31052 0.89476 0.49009 0.0
C2227 C 0.18316 0.90355 0.53023 0.0
C2228 C 0.23668 0.93348 0.51032 0.0
H2229 H 0.24544 0.93183 0.47654 0.0
C2230 C 0.26237 0.93534 0.51422 0.0
C2231 C 0.23046 0.93355 0.49655 0.0
C2232 C 0.20314 0.93369 0.49171 0.0
C2233 C 0.28208 0.93555 0.50472 0.0
C2234 C 0.27593 0.93325 0.49099 0.0
C2235 C 0.25019 0.93314 0.48707 0.0
C2236 C 0.29584 0.92898 0.4807 0.0
C2237 C 0.30933 0.93788 0.50951 0.0
C2238 C 0.29784 0.94506 0.46951 0.0
C2239 C 0.31646 0.94045 0.45975 0.0
C2240 C 0.33329 0.91963 0.46101 0.0
C2241 C 0.33083 0.90335 0.47211 0.0
C2242 C 0.31222 0.90789 0.48178 0.0
H2243 H 0.31036 0.94818 0.5192 0.0
H2244 H 0.31737 0.9185 0.51107 0.0
H2245 H 0.3214 0.94809 0.50213 0.0
H2246 H 0.28516 0.96128 0.4684 0.0
H2247 H 0.31784 0.95333 0.45131 0.0
H2248 H 0.38315 0.08828 0.71794 0.0
H2249 H 0.38641 0.05014 0.73176 0.0
H2250 H 0.31687 0.02089 0.71435 0.0
H2251 H 0.31381 0.05891 0.70014 0.0
H2252 H 0.3544 0.0339 0.75049 0.0
H2253 H 0.36349 0.95949 0.71136 0.0
H2254 H 0.36671 0.99314 0.70779 0.0
H2255 H 0.33554 0.97904 0.70949 0.0
C2256 C 0.36855 0.07372 0.71698 0.0
C2257 C 0.34819 0.07665 0.70793 0.0
C2258 C 0.3705 0.05188 0.72488 0.0
C2259 C 0.35211 0.03247 0.72396 0.0
C2260 C 0.33163 0.03533 0.715 0.0
H2261 H 0.32155 0.92253 0.78577 0.0
H2262 H 0.32092 0.95701 0.76947 0.0
C2263 C 0.32978 0.05716 0.70696 0.0
C2264 C 0.35385 0.01002 0.73297 0.0
H2265 H 0.35667 0.9448 0.73363 0.0
C2266 C 0.35502 0.01444 0.74678 0.0
C2267 C 0.35506 0.98463 0.72812 0.0
C2268 C 0.3554 0.97873 0.71338 0.0
C2269 C 0.35692 0.99422 0.7559 0.0
C2270 C 0.35699 0.9688 0.7511 0.0
C2271 C 0.35637 0.96431 0.73728 0.0
C2272 C 0.35693 0.94674 0.76036 0.0
C2273 C 0.35913 0.00033 0.77059 0.0
C2274 C 0.37695 0.92887 0.76031 0.0
C2275 C 0.3773 0.90883 0.76959 0.0
C2276 C 0.35759 0.90644 0.77905 0.0
C2277 C 0.33724 0.92399 0.77876 0.0
C2278 C 0.33685 0.9438 0.76947 0.0
H2279 H 0.36636 0.02004 0.77225 0.0
H2280 H 0.33997 0.99894 0.77526 0.0
H2281 H 0.37209 0.9867 0.77573 0.0
H2282 H 0.39256 0.93074 0.75328 0.0
H2283 H 0.39316 0.89555 0.76952 0.0
H2284 H 0.31194 0.04457 0.0515 0.0
H2285 H 0.27879 0.03619 0.03467 0.0
H2286 H 0.30264 0.10297 0.01276 0.0
H2287 H 0.33588 0.11111 0.02921 0.0
H2288 H 0.23848 0.06459 0.02682 0.0
H2289 H 0.3021 0.05008 0.98358 0.0
H2290 H 0.31383 0.05035 1.00054 0.0
H2291 H 0.30893 0.07988 0.99164 0.0
C2292 C 0.31013 0.05739 0.04307 0.0
C2293 C 0.32669 0.07838 0.04165 0.0
C2294 C 0.29124 0.05255 0.03345 0.0
C2295 C 0.28869 0.06857 0.02226 0.0
C2296 C 0.30479 0.08985 0.02105 0.0
H2297 H 0.16206 0.11058 0.97485 0.0
H2298 H 0.19505 0.10321 0.99155 0.0
C2299 C 0.32368 0.09459 0.03056 0.0
C2300 C 0.26849 0.06409 0.01211 0.0
H2301 H 0.25858 0.06242 0.97841 0.0
C2302 C 0.24289 0.06365 0.01625 0.0
C2303 C 0.27419 0.06222 0.99832 0.0
C2304 C 0.30129 0.06036 0.99328 0.0
C2305 C 0.22284 0.06317 0.00692 0.0
C2306 C 0.22857 0.06381 0.9931 0.0
C2307 C 0.25416 0.06244 0.98899 0.0
C2308 C 0.20848 0.06784 0.98284 0.0
C2309 C 0.19572 0.06233 0.01199 0.0
C2310 C 0.20573 0.05098 0.97201 0.0
C2311 C 0.18703 0.05538 0.96224 0.0
C2312 C 0.17082 0.07675 0.96316 0.0
C2313 C 0.174 0.09378 0.9739 0.0
C2314 C 0.19273 0.08947 0.98355 0.0
H2315 H 0.19467 0.05287 0.02191 0.0
H2316 H 0.18852 0.08214 0.01319 0.0
H2317 H 0.18294 0.05203 0.00495 0.0
H2318 H 0.21791 0.03432 0.97117 0.0
H2319 H 0.18507 0.04192 0.95409 0.0
H2320 H 0.79645 0.06331 0.79707 0.0
H2321 H 0.79068 0.03012 0.78005 0.0
H2322 H 0.86071 0.05369 0.761 0.0
H2323 H 0.86628 0.08714 0.77768 0.0
H2324 H 0.82197 0.0469 0.74312 0.0
H2325 H 0.82968 0.96329 0.77715 0.0
H2326 H 0.80519 0.98592 0.78137 0.0
H2327 H 0.83821 0.99519 0.7823 0.0
C2328 C 0.81068 0.06129 0.78929 0.0
C2329 C 0.83186 0.07779 0.78874 0.0
C2330 C 0.80739 0.04229 0.77961 0.0
C2331 C 0.82541 0.03929 0.76935 0.0
C2332 C 0.84655 0.05571 0.76882 0.0
H2333 H 0.86644 0.91485 0.71973 0.0
H2334 H 0.86087 0.94835 0.73635 0.0
C2335 C 0.84974 0.07477 0.7784 0.0
C2336 C 0.82249 0.01923 0.75902 0.0
H2337 H 0.82239 0.95467 0.75438 0.0
C2338 C 0.82186 0.02671 0.74556 0.0
C2339 C 0.82249 0.99295 0.76228 0.0
C2340 C 0.82413 0.98374 0.77654 0.0
C2341 C 0.82208 0.00861 0.73522 0.0
C2342 C 0.82233 0.98233 0.73847 0.0
C2343 C 0.82209 0.97485 0.75194 0.0
C2344 C 0.82523 0.96229 0.72815 0.0
C2345 C 0.82328 0.01781 0.72095 0.0
C2346 C 0.80701 0.95901 0.71798 0.0
C2347 C 0.81029 0.93995 0.70831 0.0
C2348 C 0.83166 0.92369 0.70881 0.0
C2349 C 0.84974 0.92701 0.71906 0.0
C2350 C 0.84657 0.94612 0.7286 0.0
H2351 H 0.82854 0.03833 0.7203 0.0
H2352 H 0.83736 0.00653 0.71512 0.0
H2353 H 0.80425 0.01537 0.71621 0.0
H2354 H 0.79017 0.971 0.71759 0.0
H2355 H 0.79592 0.9377 0.70061 0.0
H2356 H 0.68991 0.04791 0.54497 0.0
H2357 H 0.72319 0.04107 0.52812 0.0
H2358 H 0.69967 0.10979 0.50777 0.0
H2359 H 0.66618 0.11643 0.52429 0.0
H2360 H 0.70601 0.06989 0.49063 0.0
H2361 H 0.79028 0.07938 0.52411 0.0
H2362 H 0.76761 0.05541 0.52902 0.0
H2363 H 0.75852 0.08852 0.52921 0.0
C2364 C 0.69198 0.06165 0.53696 0.0
C2365 C 0.67544 0.08274 0.53598 0.0
C2366 C 0.71105 0.05776 0.52737 0.0
C2367 C 0.71406 0.07507 0.51677 0.0
C2368 C 0.69766 0.09618 0.51585 0.0
H2369 H 0.84078 0.10467 0.46533 0.0
H2370 H 0.80673 0.10416 0.48192 0.0
C2371 C 0.67856 0.09997 0.52534 0.0
C2372 C 0.73395 0.07127 0.50642 0.0
H2373 H 0.79844 0.06914 0.50157 0.0
C2374 C 0.72624 0.0696 0.49301 0.0
C2375 C 0.7603 0.0711 0.50957 0.0
C2376 C 0.76978 0.07391 0.52374 0.0
C2377 C 0.74416 0.06828 0.48262 0.0
C2378 C 0.77051 0.06806 0.48576 0.0
C2379 C 0.77821 0.0692 0.4992 0.0
C2380 C 0.7905 0.06831 0.47529 0.0
C2381 C 0.73473 0.06817 0.46836 0.0
C2382 C 0.7926 0.04837 0.46597 0.0
C2383 C 0.81196 0.04873 0.45633 0.0
C2384 C 0.82972 0.06888 0.45599 0.0
C2385 C 0.82744 0.08884 0.46531 0.0
C2386 C 0.80803 0.08856 0.47484 0.0
H2387 H 0.71453 0.07455 0.46761 0.0
H2388 H 0.74668 0.08075 0.46199 0.0
H2389 H 0.73591 0.04846 0.46433 0.0
H2390 H 0.77957 0.03232 0.46629 0.0
H2391 H 0.81337 0.03295 0.44937 0.0
H2392 H 0.68816 0.09237 0.21332 0.0
H2393 H 0.69484 0.05447 0.2272 0.0
H2394 H 0.6212 0.06597 0.24553 0.0
H2395 H 0.61461 0.10414 0.23195 0.0
H2396 H 0.65815 0.05596 0.26389 0.0
H2397 H 0.66217 0.98473 0.22285 0.0
H2398 H 0.68491 0.01025 0.22133 0.0
H2399 H 0.65129 0.01707 0.22028 0.0
C2400 C 0.67332 0.08675 0.22025 0.0
C2401 C 0.6508 0.10124 0.22148 0.0
C2402 C 0.67713 0.065 0.22814 0.0
C2403 C 0.65836 0.05717 0.23728 0.0
C2404 C 0.63592 0.07163 0.23853 0.0
H2405 H 0.6348 0.91256 0.27557 0.0
H2406 H 0.6349 0.95059 0.26153 0.0
C2407 C 0.63216 0.09343 0.23073 0.0
C2408 C 0.66215 0.03422 0.24576 0.0
H2409 H 0.67083 0.9696 0.24464 0.0
C2410 C 0.66099 0.03707 0.2597 0.0
C2411 C 0.66564 0.00957 0.24025 0.0
C2412 C 0.66586 0.00508 0.22536 0.0
C2413 C 0.66292 0.01594 0.26827 0.0
C2414 C 0.66671 0.99133 0.26277 0.0
C2415 C 0.66815 0.98851 0.24884 0.0
C2416 C 0.66749 0.96804 0.27122 0.0
C2417 C 0.65995 0.02008 0.28311 0.0
C2418 C 0.68602 0.965 0.28126 0.0
C2419 C 0.6859 0.94328 0.28943 0.0
C2420 C 0.66742 0.92408 0.28758 0.0
C2421 C 0.6493 0.92696 0.2773 0.0
C2422 C 0.64934 0.94869 0.26923 0.0
H2423 H 0.65103 0.03885 0.28539 0.0
H2424 H 0.64811 0.00479 0.28766 0.0
H2425 H 0.67907 0.01967 0.28791 0.0
H2426 H 0.70056 0.97942 0.28279 0.0
H2427 H 0.70025 0.94155 0.29718 0.0
H2428 H 0.67487 0.95388 0.952 0.0
H2429 H 0.70985 0.95959 0.96807 0.0
H2430 H 0.69141 0.8871 0.98611 0.0
H2431 H 0.6563 0.88152 0.97039 0.0
H2432 H 0.69759 0.92486 0.00464 0.0
H2433 H 0.77898 0.92397 0.96899 0.0
H2434 H 0.75471 0.94741 0.96567 0.0
H2435 H 0.74721 0.91402 0.96427 0.0
C2436 C 0.67845 0.93906 0.95931 0.0
C2437 C 0.66281 0.91723 0.9599 0.0
C2438 C 0.69848 0.94232 0.96847 0.0
C2439 C 0.70336 0.92367 0.97823 0.0
C2440 C 0.68795 0.90177 0.97869 0.0
H2441 H 0.83304 0.8858 0.02528 0.0
H2442 H 0.79868 0.89094 0.00908 0.0
C2443 C 0.66791 0.89858 0.96966 0.0
C2444 C 0.72406 0.92685 0.98823 0.0
H2445 H 0.78888 0.92998 0.99174 0.0
C2446 C 0.71756 0.92617 0.00184 0.0
C2447 C 0.75008 0.92844 0.98453 0.0
C2448 C 0.7583 0.9283 0.97009 0.0
C2449 C 0.73638 0.92625 0.01184 0.0
C2450 C 0.76242 0.92762 0.00814 0.0
C2451 C 0.76889 0.92907 0.99454 0.0
C2452 C 0.78331 0.92521 0.0181 0.0
C2453 C 0.72825 0.92363 0.02624 0.0
C2454 C 0.78618 0.94284 0.02857 0.0
C2455 C 0.80577 0.93981 0.038 0.0
C2456 C 0.82298 0.91925 0.03699 0.0
C2457 C 0.82015 0.90185 0.02638 0.0
C2458 C 0.80055 0.90479 0.01706 0.0
H2459 H 0.7081 0.91718 0.02714 0.0
H2460 H 0.74068 0.90984 0.03161 0.0
H2461 H 0.72995 0.94245 0.03126 0.0
H2462 H 0.77339 0.95901 0.02942 0.0
H2463 H 0.80759 0.95367 0.04598 0.0
H2464 H 0.69421 0.44203 0.69934 0.0
H2465 H 0.69992 0.47554 0.71619 0.0
H2466 H 0.65678 0.43089 0.74449 0.0
H2467 H 0.6504 0.39782 0.72769 0.0
H2468 H 0.64016 0.47855 0.74373 0.0
H2469 H 0.74563 0.47947 0.74869 0.0
H2470 H 0.73496 0.48395 0.73181 0.0
H2471 H 0.72867 0.4542 0.74019 0.0
C2472 C 0.6861 0.43931 0.70918 0.0
C2473 C 0.67175 0.41731 0.71215 0.0
C2474 C 0.68957 0.45837 0.71885 0.0
C2475 C 0.67912 0.45556 0.73169 0.0
C2476 C 0.6651 0.43345 0.73468 0.0
H2477 H 0.70217 0.55626 0.8009 0.0
H2478 H 0.70432 0.51999 0.7853 0.0
C2479 C 0.66141 0.41458 0.72502 0.0
C2480 C 0.68109 0.47631 0.74176 0.0
H2481 H 0.72316 0.51435 0.75874 0.0
C2482 C 0.65835 0.48621 0.74707 0.0
C2483 C 0.70481 0.48609 0.74627 0.0
C2484 C 0.72992 0.47522 0.74155 0.0
C2485 C 0.6586 0.50595 0.75652 0.0
C2486 C 0.68223 0.51661 0.76053 0.0
C2487 C 0.70506 0.50632 0.75552 0.0
C2488 C 0.68328 0.53903 0.76956 0.0
C2489 C 0.63348 0.5151 0.76218 0.0
C2490 C 0.67153 0.56192 0.7657 0.0
C2491 C 0.67008 0.58239 0.77455 0.0
C2492 C 0.68069 0.5806 0.78743 0.0
C2493 C 0.69373 0.55816 0.79106 0.0
C2494 C 0.69498 0.53747 0.78218 0.0
H2495 H 0.61831 0.50037 0.76116 0.0
H2496 H 0.63539 0.52023 0.77289 0.0
H2497 H 0.62715 0.53233 0.75662 0.0
H2498 H 0.66293 0.56375 0.75589 0.0
H2499 H 0.66027 0.59956 0.77134 0.0
H2500 H 0.81156 0.43773 0.95176 0.0
H2501 H 0.77443 0.4376 0.96675 0.0
H2502 H 0.80552 0.37261 0.98765 0.0
H2503 H 0.8426 0.37283 0.97301 0.0
H2504 H 0.73813 0.39927 0.97213 0.0
H2505 H 0.79342 0.42408 0.01754 0.0
H2506 H 0.80636 0.42739 0.00094 0.0
H2507 H 0.80589 0.39666 0.00899 0.0
C2508 C 0.81048 0.42348 0.95958 0.0
C2509 C 0.83018 0.40549 0.96128 0.0
C2510 C 0.78926 0.42339 0.9681 0.0
C2511 C 0.78749 0.40537 0.97845 0.0
C2512 C 0.8068 0.38704 0.97993 0.0
H2513 H 0.65647 0.35914 0.02615 0.0
H2514 H 0.69029 0.36226 0.00929 0.0
C2515 C 0.82797 0.38718 0.9715 0.0
C2516 C 0.76561 0.40555 0.98781 0.0
H2517 H 0.75111 0.40864 0.02097 0.0
C2518 C 0.74087 0.40153 0.9828 0.0
C2519 C 0.76923 0.40881 0.00171 0.0
C2520 C 0.79512 0.41474 0.00762 0.0
C2521 C 0.71969 0.40002 0.99139 0.0
C2522 C 0.72353 0.40211 0.00535 0.0
C2523 C 0.74821 0.40673 0.01029 0.0
C2524 C 0.70226 0.4003 0.01509 0.0
C2525 C 0.69343 0.39658 0.98543 0.0
C2526 C 0.69813 0.42034 0.02412 0.0
C2527 C 0.67923 0.41842 0.03386 0.0
C2528 C 0.66392 0.39641 0.03478 0.0
C2529 C 0.66788 0.37638 0.02566 0.0
C2530 C 0.68705 0.37823 0.01595 0.0
H2531 H 0.6929 0.40248 0.97477 0.0
H2532 H 0.68805 0.3761 0.98594 0.0
H2533 H 0.67893 0.40778 0.99101 0.0
H2534 H 0.70967 0.43751 0.02367 0.0
H2535 H 0.67661 0.4343 0.04067 0.0
H2536 H 0.82047 0.42231 0.28648 0.0
H2537 H 0.8193 0.45547 0.26948 0.0
H2538 H 0.89221 0.43007 0.25441 0.0
H2539 H 0.8932 0.3961 0.27132 0.0
H2540 H 0.85213 0.49422 0.26708 0.0
H2541 H 0.851 0.43751 0.22022 0.0
H2542 H 0.84493 0.42348 0.23638 0.0
H2543 H 0.87713 0.43015 0.23121 0.0
C2544 C 0.83622 0.42358 0.2795 0.0
C2545 C 0.85702 0.40664 0.28029 0.0
C2546 C 0.83548 0.44255 0.26976 0.0
C2547 C 0.85554 0.44515 0.2606 0.0
C2548 C 0.87625 0.42809 0.26121 0.0
H2549 H 0.88501 0.58665 0.21858 0.0
H2550 H 0.88684 0.54891 0.23279 0.0
C2551 C 0.87689 0.40881 0.27092 0.0
C2552 C 0.85523 0.46686 0.25109 0.0
H2553 H 0.85599 0.48247 0.21797 0.0
C2554 C 0.85294 0.49162 0.25634 0.0
C2555 C 0.85596 0.46342 0.23708 0.0
C2556 C 0.85715 0.4372 0.23085 0.0
C2557 C 0.85141 0.51304 0.248 0.0
C2558 C 0.85293 0.50971 0.234 0.0
C2559 C 0.85504 0.48496 0.22871 0.0
C2560 C 0.85246 0.53181 0.22478 0.0
C2561 C 0.84763 0.53901 0.25427 0.0
C2562 C 0.83296 0.53431 0.21522 0.0
C2563 C 0.83195 0.55585 0.20695 0.0
C2564 C 0.85045 0.57521 0.20813 0.0
C2565 C 0.87025 0.57229 0.21752 0.0
C2566 C 0.87132 0.55074 0.22569 0.0
H2567 H 0.83968 0.5375 0.26452 0.0
H2568 H 0.86635 0.54887 0.25498 0.0
H2569 H 0.8346 0.55101 0.24816 0.0
H2570 H 0.81828 0.51981 0.21433 0.0
H2571 H 0.81654 0.55747 0.19977 0.0
H2572 H 0.66441 0.61828 0.47163 0.0
H2573 H 0.6982 0.61146 0.48798 0.0
H2574 H 0.71786 0.54018 0.46897 0.0
H2575 H 0.68428 0.54722 0.45224 0.0
H2576 H 0.70362 0.57314 0.50597 0.0
H2577 H 0.78673 0.57536 0.47144 0.0
H2578 H 0.75519 0.58535 0.46637 0.0
H2579 H 0.76277 0.55195 0.46755 0.0
C2580 C 0.67599 0.6012 0.47084 0.0
C2581 C 0.67172 0.58333 0.46059 0.0
C2582 C 0.69527 0.5973 0.48023 0.0
C2583 C 0.7107 0.57542 0.47966 0.0
C2584 C 0.7065 0.55744 0.46947 0.0
H2585 H 0.81171 0.54437 0.54868 0.0
H2586 H 0.77829 0.53897 0.53169 0.0
C2587 C 0.68727 0.56145 0.45994 0.0
C2588 C 0.73088 0.5717 0.4899 0.0
H2589 H 0.79551 0.56849 0.49422 0.0
C2590 C 0.72373 0.57192 0.50342 0.0
C2591 C 0.75707 0.57023 0.48652 0.0
C2592 C 0.76603 0.57091 0.4722 0.0
C2593 C 0.74206 0.57161 0.51366 0.0
C2594 C 0.76827 0.5704 0.51029 0.0
C2595 C 0.77539 0.56929 0.49677 0.0
C2596 C 0.7887 0.57279 0.5205 0.0
C2597 C 0.73322 0.57387 0.52796 0.0
C2598 C 0.80597 0.59321 0.51969 0.0
C2599 C 0.82516 0.59615 0.52923 0.0
C2600 C 0.8275 0.57876 0.53987 0.0
C2601 C 0.81025 0.55821 0.54068 0.0
C2602 C 0.7911 0.55516 0.53101 0.0
H2603 H 0.71302 0.58027 0.52864 0.0
H2604 H 0.7347 0.55494 0.53288 0.0
H2605 H 0.74536 0.58754 0.53359 0.0
H2606 H 0.80446 0.60707 0.51169 0.0
H2607 H 0.83809 0.61221 0.52829 0.0
H2608 H 0.31109 0.55572 0.29925 0.0
H2609 H 0.30955 0.52024 0.28325 0.0
H2610 H 0.35389 0.56441 0.25527 0.0
H2611 H 0.35608 0.59952 0.27122 0.0
H2612 H 0.29067 0.51695 0.25779 0.0
H2613 H 0.395 0.49921 0.25759 0.0
H2614 H 0.3798 0.51941 0.26983 0.0
H2615 H 0.38711 0.5316 0.25346 0.0
C2616 C 0.32055 0.55783 0.28969 0.0
C2617 C 0.33395 0.58033 0.28658 0.0
C2618 C 0.31963 0.53757 0.28057 0.0
C2619 C 0.33206 0.53948 0.26818 0.0
C2620 C 0.34476 0.56222 0.26491 0.0
H2621 H 0.30859 0.44301 0.19816 0.0
H2622 H 0.30814 0.47776 0.21455 0.0
C2623 C 0.34587 0.58234 0.27403 0.0
C2624 C 0.33177 0.51782 0.25861 0.0
H2625 H 0.37082 0.47881 0.24047 0.0
C2626 C 0.30817 0.50848 0.25405 0.0
C2627 C 0.35463 0.50655 0.25389 0.0
C2628 C 0.38055 0.51451 0.25904 0.0
C2629 C 0.30682 0.48851 0.24469 0.0
C2630 C 0.32971 0.47802 0.23953 0.0
C2631 C 0.35328 0.48707 0.24429 0.0
C2632 C 0.3298 0.45712 0.2295 0.0
C2633 C 0.28089 0.47853 0.24064 0.0
C2634 C 0.34282 0.43428 0.23225 0.0
C2635 C 0.34349 0.41462 0.22284 0.0
C2636 C 0.33108 0.41731 0.21045 0.0
C2637 C 0.31819 0.44027 0.20764 0.0
C2638 C 0.31773 0.46007 0.21705 0.0
H2639 H 0.26605 0.48335 0.24816 0.0
H2640 H 0.2752 0.48741 0.23103 0.0
H2641 H 0.28124 0.45748 0.23929 0.0
H2642 H 0.35237 0.4316 0.24176 0.0
H2643 H 0.35354 0.39718 0.22536 0.0
H2644 H 0.35647 0.62266 0.97304 0.0
H2645 H 0.32043 0.61886 0.98838 0.0
H2646 H 0.30247 0.54475 0.97205 0.0
H2647 H 0.33819 0.54861 0.95644 0.0
H2648 H 0.26016 0.57373 0.97515 0.0
H2649 H 0.31706 0.57549 0.02177 0.0
H2650 H 0.32325 0.60269 0.01138 0.0
H2651 H 0.33142 0.5712 0.00555 0.0
C2652 C 0.34488 0.60553 0.9727 0.0
C2653 C 0.35029 0.58588 0.96355 0.0
C2654 C 0.3244 0.60331 0.98156 0.0
C2655 C 0.30912 0.58127 0.98158 0.0
C2656 C 0.31415 0.56183 0.97229 0.0
H2657 H 0.19817 0.55283 0.04557 0.0
H2658 H 0.23421 0.54848 0.0301 0.0
C2659 C 0.33456 0.56409 0.96336 0.0
C2660 C 0.28747 0.57888 0.99104 0.0
H2661 H 0.27202 0.58241 0.02412 0.0
C2662 C 0.26278 0.57538 0.98587 0.0
C2663 C 0.29094 0.58049 0.00504 0.0
C2664 C 0.31713 0.5824 0.01128 0.0
C2665 C 0.24136 0.57451 0.99427 0.0
C2666 C 0.24468 0.57781 0.0082 0.0
C2667 C 0.26946 0.58022 0.01342 0.0
C2668 C 0.22265 0.57994 0.01743 0.0
C2669 C 0.21539 0.57001 0.98814 0.0
C2670 C 0.20446 0.59928 0.01556 0.0
C2671 C 0.18388 0.60174 0.02431 0.0
C2672 C 0.1812 0.58509 0.03524 0.0
C2673 C 0.19965 0.56592 0.03723 0.0
C2674 C 0.22024 0.56341 0.02841 0.0
H2675 H 0.21691 0.55984 0.97843 0.0
H2676 H 0.20294 0.55871 0.9949 0.0
H2677 H 0.20605 0.58869 0.98624 0.0
H2678 H 0.20631 0.6127 0.00739 0.0
H2679 H 0.17018 0.61687 0.02254 0.0
H2680 H 0.13722 0.40691 0.77905 0.0
H2681 H 0.13941 0.44372 0.76422 0.0
H2682 H 0.20541 0.47159 0.78556 0.0
H2683 H 0.20305 0.4349 0.80072 0.0
H2684 H 0.17045 0.50901 0.7811 0.0
H2685 H 0.18889 0.45691 0.73405 0.0
H2686 H 0.16106 0.44504 0.74243 0.0
H2687 H 0.19195 0.44201 0.75023 0.0
C2688 C 0.15234 0.42074 0.78057 0.0
C2689 C 0.17005 0.41789 0.79104 0.0
C2690 C 0.15366 0.44171 0.77201 0.0
C2691 C 0.1729 0.46011 0.77361 0.0
C2692 C 0.19055 0.45747 0.78409 0.0
H2693 H 0.19246 0.57835 0.71269 0.0
H2694 H 0.20027 0.54295 0.7281 0.0
C2695 C 0.18917 0.4365 0.79273 0.0
C2696 C 0.17368 0.48265 0.76467 0.0
H2697 H 0.17336 0.49991 0.73181 0.0
C2698 C 0.17141 0.50707 0.77033 0.0
C2699 C 0.17542 0.48013 0.75063 0.0
C2700 C 0.17975 0.45462 0.74398 0.0
C2701 C 0.16966 0.52896 0.76229 0.0
C2702 C 0.16956 0.52624 0.74823 0.0
C2703 C 0.17302 0.50194 0.74259 0.0
C2704 C 0.16518 0.54821 0.73917 0.0
C2705 C 0.16795 0.55476 0.76896 0.0
C2706 C 0.1427 0.5627 0.74017 0.0
C2707 C 0.13823 0.58303 0.73144 0.0
C2708 C 0.15602 0.58901 0.72141 0.0
C2709 C 0.17837 0.57424 0.72031 0.0
C2710 C 0.18289 0.55402 0.72911 0.0
H2711 H 0.17644 0.55435 0.77914 0.0
H2712 H 0.17782 0.56967 0.76301 0.0
H2713 H 0.14756 0.56022 0.76998 0.0
H2714 H 0.12842 0.55811 0.74762 0.0
H2715 H 0.12073 0.59388 0.73249 0.0
H2716 H 0.18125 0.44904 0.45306 0.0
H2717 H 0.21664 0.45553 0.4688 0.0
H2718 H 0.19939 0.38341 0.48756 0.0
H2719 H 0.16386 0.37709 0.47218 0.0
H2720 H 0.20542 0.42154 0.50572 0.0
H2721 H 0.28625 0.42116 0.46974 0.0
H2722 H 0.26166 0.44423 0.46639 0.0
H2723 H 0.25455 0.41073 0.4652 0.0
C2724 C 0.18521 0.43446 0.46045 0.0
C2725 C 0.16975 0.41255 0.46137 0.0
C2726 C 0.20547 0.43817 0.46942 0.0
C2727 C 0.21078 0.41986 0.4793 0.0
C2728 C 0.19561 0.39783 0.48005 0.0
H2729 H 0.34198 0.38543 0.52596 0.0
H2730 H 0.3074 0.3897 0.50982 0.0
C2731 C 0.17532 0.39422 0.47121 0.0
C2732 C 0.2316 0.42361 0.48919 0.0
H2733 H 0.2964 0.42798 0.4924 0.0
C2734 C 0.22532 0.42313 0.50282 0.0
C2735 C 0.25753 0.42558 0.48536 0.0
C2736 C 0.26553 0.42526 0.47089 0.0
C2737 C 0.24428 0.42372 0.51275 0.0
C2738 C 0.27024 0.42549 0.50893 0.0
C2739 C 0.27647 0.42677 0.4953 0.0
C2740 C 0.29132 0.42366 0.51881 0.0
C2741 C 0.23639 0.42123 0.52718 0.0
C2742 C 0.29389 0.44143 0.52925 0.0
C2743 C 0.31359 0.43888 0.53865 0.0
C2744 C 0.33124 0.4187 0.53764 0.0
C2745 C 0.32875 0.4012 0.52706 0.0
C2746 C 0.30901 0.40365 0.51777 0.0
H2747 H 0.21641 0.41431 0.52819 0.0
H2748 H 0.24921 0.40787 0.5326 0.0
H2749 H 0.23767 0.44019 0.53209 0.0
H2750 H 0.28074 0.45732 0.5301 0.0
H2751 H 0.31513 0.45281 0.54661 0.0
loop_
_geom_bond_atom_site_label_1
_geom_bond_atom_site_label_2
_geom_bond_distance
_geom_bond_site_symmetry_2
_ccdc_geom_bond_type
C0 O2 1.247 . S
C0 O4 1.258 . S
C1 O8 1.247 . S
C1 O9 1.258 . S
O2 C0 1.247 . S
O2 Zn3 2.028 . S
Zn3 O2 2.028 . S
Zn3 O7 2.035 . S
Zn3 O9 2.035 . S
Zn3 O10 2.028 . S
O4 C0 1.258 . S
O4 Zn5 2.035 . S
Zn5 O4 2.035 . S
Zn5 O6 2.028 . S
Zn5 O8 2.028 . S
Zn5 O11 2.035 . S
O6 Zn5 2.028 . S
O6 C12 1.247 . S
O7 Zn3 2.035 . S
O7 C12 1.258 . S
O8 C1 1.247 . S
O8 Zn5 2.028 . S
O9 C1 1.258 . S
O9 Zn3 2.035 . S
O10 Zn3 2.028 . S
O10 C13 1.247 . S
O11 Zn5 2.035 . S
O11 C13 1.258 . S
C12 O6 1.247 . S
C12 O7 1.258 . S
C13 O10 1.247 . S
C13 O11 1.258 . S
C14 O16 1.247 . S
C14 O18 1.258 . S
C15 O22 1.247 . S
C15 O23 1.258 . S
O16 C14 1.247 . S
O16 Zn17 2.028 . S
Zn17 O16 2.028 . S
Zn17 O21 2.035 . S
Zn17 O23 2.035 . S
Zn17 O24 2.028 . S
O18 C14 1.258 . S
O18 Zn19 2.035 . S
Zn19 O18 2.035 . S
Zn19 O20 2.028 . S
Zn19 O22 2.028 . S
Zn19 O25 2.035 . S
O20 Zn19 2.028 . S
O20 C26 1.247 . S
O21 Zn17 2.035 . S
O21 C26 1.258 . S
O22 C15 1.247 . S
O22 Zn19 2.028 . S
O23 C15 1.258 . S
O23 Zn17 2.035 . S
O24 Zn17 2.028 . S
O24 C27 1.247 . S
O25 Zn19 2.035 . S
O25 C27 1.258 . S
C26 O20 1.247 . S
C26 O21 1.258 . S
C27 O24 1.247 . S
C27 O25 1.258 . S
C28 O30 1.247 . S
C28 O32 1.258 . S
C29 O36 1.247 . S
C29 O37 1.258 . S
O30 C28 1.247 . S
O30 Zn31 2.028 . S
Zn31 O30 2.028 . S
Zn31 O35 2.035 . S
Zn31 O37 2.035 . S
Zn31 O38 2.028 . S
O32 C28 1.258 . S
O32 Zn33 2.035 . S
Zn33 O32 2.035 . S
Zn33 O34 2.028 . S
Zn33 O36 2.028 . S
Zn33 O39 2.035 . S
O34 Zn33 2.028 . S
O34 C40 1.247 . S
O35 Zn31 2.035 . S
O35 C40 1.258 . S
O36 C29 1.247 . S
O36 Zn33 2.028 . S
O37 C29 1.258 . S
O37 Zn31 2.035 . S
O38 Zn31 2.028 . S
O38 C41 1.247 . S
O39 Zn33 2.035 . S
O39 C41 1.258 . S
C40 O34 1.247 . S
C40 O35 1.258 . S
C41 O38 1.247 . S
C41 O39 1.258 . S
C42 O44 1.247 . S
C42 O46 1.258 . S
C43 O50 1.247 . S
C43 O51 1.258 . S
O44 C42 1.247 . S
O44 Zn45 2.028 . S
Zn45 O44 2.028 . S
Zn45 O49 2.035 . S
Zn45 O51 2.035 . S
Zn45 O52 2.028 . S
O46 C42 1.258 . S
O46 Zn47 2.035 . S
Zn47 O46 2.035 . S
Zn47 O48 2.028 . S
Zn47 O50 2.028 . S
Zn47 O53 2.035 . S
O48 Zn47 2.028 . S
O48 C54 1.247 . S
O49 Zn45 2.035 . S
O49 C54 1.258 . S
O50 C43 1.247 . S
O50 Zn47 2.028 . S
O51 C43 1.258 . S
O51 Zn45 2.035 . S
O52 Zn45 2.028 . S
O52 C55 1.247 . S
O53 Zn47 2.035 . S
O53 C55 1.258 . S
C54 O48 1.247 . S
C54 O49 1.258 . S
C55 O52 1.247 . S
C55 O53 1.258 . S
C56 O58 1.247 . S
C56 O60 1.258 . S
C57 O64 1.247 . S
C57 O65 1.258 . S
O58 C56 1.247 . S
O58 Zn59 2.028 . S
Zn59 O58 2.028 . S
Zn59 O63 2.035 . S
Zn59 O65 2.035 . S
Zn59 O66 2.028 . S
O60 C56 1.258 . S
O60 Zn61 2.035 . S
Zn61 O60 2.035 . S
Zn61 O62 2.028 . S
Zn61 O64 2.028 . S
Zn61 O67 2.035 . S
O62 Zn61 2.028 . S
O62 C68 1.247 . S
O63 Zn59 2.035 . S
O63 C68 1.258 . S
O64 C57 1.247 . S
O64 Zn61 2.028 . S
O65 C57 1.258 . S
O65 Zn59 2.035 . S
O66 Zn59 2.028 . S
O66 C69 1.247 . S
O67 Zn61 2.035 . S
O67 C69 1.258 . S
C68 O62 1.247 . S
C68 O63 1.258 . S
C69 O66 1.247 . S
C69 O67 1.258 . S
C70 O72 1.247 . S
C70 O74 1.258 . S
C71 O78 1.247 . S
C71 O79 1.258 . S
O72 C70 1.247 . S
O72 Zn73 2.028 . S
Zn73 O72 2.028 . S
Zn73 O77 2.035 . S
Zn73 O79 2.035 . S
Zn73 O80 2.028 . S
O74 C70 1.258 . S
O74 Zn75 2.035 . S
Zn75 O74 2.035 . S
Zn75 O76 2.028 . S
Zn75 O78 2.028 . S
Zn75 O81 2.035 . S
O76 Zn75 2.028 . S
O76 C82 1.247 . S
O77 Zn73 2.035 . S
O77 C82 1.258 . S
O78 C71 1.247 . S
O78 Zn75 2.028 . S
O79 C71 1.258 . S
O79 Zn73 2.035 . S
O80 Zn73 2.028 . S
O80 C83 1.247 . S
O81 Zn75 2.035 . S
O81 C83 1.258 . S
C82 O76 1.247 . S
C82 O77 1.258 . S
C83 O80 1.247 . S
C83 O81 1.258 . S
C84 O86 1.247 . S
C84 O88 1.258 . S
C85 O92 1.247 . S
C85 O93 1.258 . S
O86 C84 1.247 . S
O86 Zn87 2.028 . S
Zn87 O86 2.028 . S
Zn87 O91 2.035 . S
Zn87 O93 2.035 . S
Zn87 O94 2.028 . S
O88 C84 1.258 . S
O88 Zn89 2.035 . S
Zn89 O88 2.035 . S
Zn89 O90 2.028 . S
Zn89 O92 2.028 . S
Zn89 O95 2.035 . S
O90 Zn89 2.028 . S
O90 C96 1.247 . S
O91 Zn87 2.035 . S
O91 C96 1.258 . S
O92 C85 1.247 . S
O92 Zn89 2.028 . S
O93 C85 1.258 . S
O93 Zn87 2.035 . S
O94 Zn87 2.028 . S
O94 C97 1.247 . S
O95 Zn89 2.035 . S
O95 C97 1.258 . S
C96 O90 1.247 . S
C96 O91 1.258 . S
C97 O94 1.247 . S
C97 O95 1.258 . S
C98 O100 1.247 . S
C98 O102 1.258 . S
C99 O106 1.247 . S
C99 O107 1.258 . S
O100 C98 1.247 . S
O100 Zn101 2.028 . S
Zn101 O100 2.028 . S
Zn101 O105 2.035 . S
Zn101 O107 2.035 . S
Zn101 O108 2.028 . S
O102 C98 1.258 . S
O102 Zn103 2.035 . S
Zn103 O102 2.035 . S
Zn103 O104 2.028 . S
Zn103 O106 2.028 . S
Zn103 O109 2.035 . S
O104 Zn103 2.028 . S
O104 C110 1.247 . S
O105 Zn101 2.035 . S
O105 C110 1.258 . S
O106 C99 1.247 . S
O106 Zn103 2.028 . S
O107 C99 1.258 . S
O107 Zn101 2.035 . S
O108 Zn101 2.028 . S
O108 C111 1.247 . S
O109 Zn103 2.035 . S
O109 C111 1.258 . S
C110 O104 1.247 . S
C110 O105 1.258 . S
C111 O108 1.247 . S
C111 O109 1.258 . S
C112 O114 1.247 . S
C112 O116 1.258 . S
C113 O120 1.247 . S
C113 O121 1.258 . S
O114 C112 1.247 . S
O114 Zn115 2.028 . S
Zn115 O114 2.028 . S
Zn115 O119 2.035 . S
Zn115 O121 2.035 . S
Zn115 O122 2.028 . S
O116 C112 1.258 . S
O116 Zn117 2.035 . S
Zn117 O116 2.035 . S
Zn117 O118 2.028 . S
Zn117 O120 2.028 . S
Zn117 O123 2.035 . S
O118 Zn117 2.028 . S
O118 C124 1.247 . S
O119 Zn115 2.035 . S
O119 C124 1.258 . S
O120 C113 1.247 . S
O120 Zn117 2.028 . S
O121 C113 1.258 . S
O121 Zn115 2.035 . S
O122 Zn115 2.028 . S
O122 C125 1.247 . S
O123 Zn117 2.035 . S
O123 C125 1.258 . S
C124 O118 1.247 . S
C124 O119 1.258 . S
C125 O122 1.247 . S
C125 O123 1.258 . S
C126 O128 1.247 . S
C126 O130 1.258 . S
C127 O134 1.247 . S
C127 O135 1.258 . S
O128 C126 1.247 . S
O128 Zn129 2.028 . S
Zn129 O128 2.028 . S
Zn129 O133 2.035 . S
Zn129 O135 2.035 . S
Zn129 O136 2.028 . S
O130 C126 1.258 . S
O130 Zn131 2.035 . S
Zn131 O130 2.035 . S
Zn131 O132 2.028 . S
Zn131 O134 2.028 . S
Zn131 O137 2.035 . S
O132 Zn131 2.028 . S
O132 C138 1.247 . S
O133 Zn129 2.035 . S
O133 C138 1.258 . S
O134 C127 1.247 . S
O134 Zn131 2.028 . S
O135 C127 1.258 . S
O135 Zn129 2.035 . S
O136 Zn129 2.028 . S
O136 C139 1.247 . S
O137 Zn131 2.035 . S
O137 C139 1.258 . S
C138 O132 1.247 . S
C138 O133 1.258 . S
C139 O136 1.247 . S
C139 O137 1.258 . S
C140 O142 1.247 . S
C140 O144 1.258 . S
C141 O148 1.247 . S
C141 O149 1.258 . S
O142 C140 1.247 . S
O142 Zn143 2.028 . S
Zn143 O142 2.028 . S
Zn143 O147 2.035 . S
Zn143 O149 2.035 . S
Zn143 O150 2.028 . S
O144 C140 1.258 . S
O144 Zn145 2.035 . S
Zn145 O144 2.035 . S
Zn145 O146 2.028 . S
Zn145 O148 2.028 . S
Zn145 O151 2.035 . S
O146 Zn145 2.028 . S
O146 C152 1.247 . S
O147 Zn143 2.035 . S
O147 C152 1.258 . S
O148 C141 1.247 . S
O148 Zn145 2.028 . S
O149 C141 1.258 . S
O149 Zn143 2.035 . S
O150 Zn143 2.028 . S
O150 C153 1.247 . S
O151 Zn145 2.035 . S
O151 C153 1.258 . S
C152 O146 1.247 . S
C152 O147 1.258 . S
C153 O150 1.247 . S
C153 O151 1.258 . S
C154 O156 1.247 . S
C154 O158 1.258 . S
C155 O162 1.247 . S
C155 O163 1.258 . S
O156 C154 1.247 . S
O156 Zn157 2.028 . S
Zn157 O156 2.028 . S
Zn157 O161 2.035 . S
Zn157 O163 2.035 . S
Zn157 O164 2.028 . S
O158 C154 1.258 . S
O158 Zn159 2.035 . S
Zn159 O158 2.035 . S
Zn159 O160 2.028 . S
Zn159 O162 2.028 . S
Zn159 O165 2.035 . S
O160 Zn159 2.028 . S
O160 C166 1.247 . S
O161 Zn157 2.035 . S
O161 C166 1.258 . S
O162 C155 1.247 . S
O162 Zn159 2.028 . S
O163 C155 1.258 . S
O163 Zn157 2.035 . S
O164 Zn157 2.028 . S
O164 C167 1.247 . S
O165 Zn159 2.035 . S
O165 C167 1.258 . S
C166 O160 1.247 . S
C166 O161 1.258 . S
C167 O164 1.247 . S
C167 O165 1.258 . S
C168 O170 1.247 . S
C168 O172 1.258 . S
C169 O176 1.247 . S
C169 O177 1.258 . S
O170 C168 1.247 . S
O170 Zn171 2.028 . S
Zn171 O170 2.028 . S
Zn171 O175 2.035 . S
Zn171 O177 2.035 . S
Zn171 O178 2.028 . S
O172 C168 1.258 . S
O172 Zn173 2.035 . S
Zn173 O172 2.035 . S
Zn173 O174 2.028 . S
Zn173 O176 2.028 . S
Zn173 O179 2.035 . S
O174 Zn173 2.028 . S
O174 C180 1.247 . S
O175 Zn171 2.035 . S
O175 C180 1.258 . S
O176 C169 1.247 . S
O176 Zn173 2.028 . S
O177 C169 1.258 . S
O177 Zn171 2.035 . S
O178 Zn171 2.028 . S
O178 C181 1.247 . S
O179 Zn173 2.035 . S
O179 C181 1.258 . S
C180 O174 1.247 . S
C180 O175 1.258 . S
C181 O178 1.247 . S
C181 O179 1.258 . S
C182 O184 1.247 . S
C182 O186 1.258 . S
C183 O190 1.247 . S
C183 O191 1.258 . S
O184 C182 1.247 . S
O184 Zn185 2.028 . S
Zn185 O184 2.028 . S
Zn185 O189 2.035 . S
Zn185 O191 2.035 . S
Zn185 O192 2.028 . S
O186 C182 1.258 . S
O186 Zn187 2.035 . S
Zn187 O186 2.035 . S
Zn187 O188 2.028 . S
Zn187 O190 2.028 . S
Zn187 O193 2.035 . S
O188 Zn187 2.028 . S
O188 C194 1.247 . S
O189 Zn185 2.035 . S
O189 C194 1.258 . S
O190 C183 1.247 . S
O190 Zn187 2.028 . S
O191 C183 1.258 . S
O191 Zn185 2.035 . S
O192 Zn185 2.028 . S
O192 C195 1.247 . S
O193 Zn187 2.035 . S
O193 C195 1.258 . S
C194 O188 1.247 . S
C194 O189 1.258 . S
C195 O192 1.247 . S
C195 O193 1.258 . S
C196 O198 1.247 . S
C196 O200 1.258 . S
C197 O204 1.247 . S
C197 O205 1.258 . S
O198 C196 1.247 . S
O198 Zn199 2.028 . S
Zn199 O198 2.028 . S
Zn199 O203 2.035 . S
Zn199 O205 2.035 . S
Zn199 O206 2.028 . S
O200 C196 1.258 . S
O200 Zn201 2.035 . S
Zn201 O200 2.035 . S
Zn201 O202 2.028 . S
Zn201 O204 2.028 . S
Zn201 O207 2.035 . S
O202 Zn201 2.028 . S
O202 C208 1.247 . S
O203 Zn199 2.035 . S
O203 C208 1.258 . S
O204 C197 1.247 . S
O204 Zn201 2.028 . S
O205 C197 1.258 . S
O205 Zn199 2.035 . S
O206 Zn199 2.028 . S
O206 C209 1.247 . S
O207 Zn201 2.035 . S
O207 C209 1.258 . S
C208 O202 1.247 . S
C208 O203 1.258 . S
C209 O206 1.247 . S
C209 O207 1.258 . S
C210 O212 1.247 . S
C210 O214 1.258 . S
C211 O218 1.247 . S
C211 O219 1.258 . S
O212 C210 1.247 . S
O212 Zn213 2.028 . S
Zn213 O212 2.028 . S
Zn213 O217 2.035 . S
Zn213 O219 2.035 . S
Zn213 O220 2.028 . S
O214 C210 1.258 . S
O214 Zn215 2.035 . S
Zn215 O214 2.035 . S
Zn215 O216 2.028 . S
Zn215 O218 2.028 . S
Zn215 O221 2.035 . S
O216 Zn215 2.028 . S
O216 C222 1.247 . S
O217 Zn213 2.035 . S
O217 C222 1.258 . S
O218 C211 1.247 . S
O218 Zn215 2.028 . S
O219 C211 1.258 . S
O219 Zn213 2.035 . S
O220 Zn213 2.028 . S
O220 C223 1.247 . S
O221 Zn215 2.035 . S
O221 C223 1.258 . S
C222 O216 1.247 . S
C222 O217 1.258 . S
C223 O220 1.247 . S
C223 O221 1.258 . S
C224 O226 1.247 . S
C224 O228 1.258 . S
C225 O232 1.247 . S
C225 O233 1.258 . S
O226 C224 1.247 . S
O226 Zn227 2.028 . S
Zn227 O226 2.028 . S
Zn227 O231 2.035 . S
Zn227 O233 2.035 . S
Zn227 O234 2.028 . S
O228 C224 1.258 . S
O228 Zn229 2.035 . S
Zn229 O228 2.035 . S
Zn229 O230 2.028 . S
Zn229 O232 2.028 . S
Zn229 O235 2.035 . S
O230 Zn229 2.028 . S
O230 C236 1.247 . S
O231 Zn227 2.035 . S
O231 C236 1.258 . S
O232 C225 1.247 . S
O232 Zn229 2.028 . S
O233 C225 1.258 . S
O233 Zn227 2.035 . S
O234 Zn227 2.028 . S
O234 C237 1.247 . S
O235 Zn229 2.035 . S
O235 C237 1.258 . S
C236 O230 1.247 . S
C236 O231 1.258 . S
C237 O234 1.247 . S
C237 O235 1.258 . S
C238 O240 1.247 . S
C238 O242 1.258 . S
C239 O246 1.247 . S
C239 O247 1.258 . S
O240 C238 1.247 . S
O240 Zn241 2.028 . S
Zn241 O240 2.028 . S
Zn241 O245 2.035 . S
Zn241 O247 2.035 . S
Zn241 O248 2.028 . S
O242 C238 1.258 . S
O242 Zn243 2.035 . S
Zn243 O242 2.035 . S
Zn243 O244 2.028 . S
Zn243 O246 2.028 . S
Zn243 O249 2.035 . S
O244 Zn243 2.028 . S
O244 C250 1.247 . S
O245 Zn241 2.035 . S
O245 C250 1.258 . S
O246 C239 1.247 . S
O246 Zn243 2.028 . S
O247 C239 1.258 . S
O247 Zn241 2.035 . S
O248 Zn241 2.028 . S
O248 C251 1.247 . S
O249 Zn243 2.035 . S
O249 C251 1.258 . S
C250 O244 1.247 . S
C250 O245 1.258 . S
C251 O248 1.247 . S
C251 O249 1.258 . S
C252 O254 1.247 . S
C252 O256 1.258 . S
C253 O260 1.247 . S
C253 O261 1.258 . S
O254 C252 1.247 . S
O254 Zn255 2.028 . S
Zn255 O254 2.028 . S
Zn255 O259 2.035 . S
Zn255 O261 2.035 . S
Zn255 O262 2.028 . S
O256 C252 1.258 . S
O256 Zn257 2.035 . S
Zn257 O256 2.035 . S
Zn257 O258 2.028 . S
Zn257 O260 2.028 . S
Zn257 O263 2.035 . S
O258 Zn257 2.028 . S
O258 C264 1.247 . S
O259 Zn255 2.035 . S
O259 C264 1.258 . S
O260 C253 1.247 . S
O260 Zn257 2.028 . S
O261 C253 1.258 . S
O261 Zn255 2.035 . S
O262 Zn255 2.028 . S
O262 C265 1.247 . S
O263 Zn257 2.035 . S
O263 C265 1.258 . S
C264 O258 1.247 . S
C264 O259 1.258 . S
C265 O262 1.247 . S
C265 O263 1.258 . S
C266 O268 1.247 . S
C266 O270 1.258 . S
C267 O274 1.247 . S
C267 O275 1.258 . S
O268 C266 1.247 . S
O268 Zn269 2.028 . S
Zn269 O268 2.028 . S
Zn269 O273 2.035 . S
Zn269 O275 2.035 . S
Zn269 O276 2.028 . S
O270 C266 1.258 . S
O270 Zn271 2.035 . S
Zn271 O270 2.035 . S
Zn271 O272 2.028 . S
Zn271 O274 2.028 . S
Zn271 O277 2.035 . S
O272 Zn271 2.028 . S
O272 C278 1.247 . S
O273 Zn269 2.035 . S
O273 C278 1.258 . S
O274 C267 1.247 . S
O274 Zn271 2.028 . S
O275 C267 1.258 . S
O275 Zn269 2.035 . S
O276 Zn269 2.028 . S
O276 C279 1.247 . S
O277 Zn271 2.035 . S
O277 C279 1.258 . S
C278 O272 1.247 . S
C278 O273 1.258 . S
C279 O276 1.247 . S
C279 O277 1.258 . S
C280 O282 1.247 . S
C280 O284 1.258 . S
C281 O288 1.247 . S
C281 O289 1.258 . S
O282 C280 1.247 . S
O282 Zn283 2.028 . S
Zn283 O282 2.028 . S
Zn283 O287 2.035 . S
Zn283 O289 2.035 . S
Zn283 O290 2.028 . S
O284 C280 1.258 . S
O284 Zn285 2.035 . S
Zn285 O284 2.035 . S
Zn285 O286 2.028 . S
Zn285 O288 2.028 . S
Zn285 O291 2.035 . S
O286 Zn285 2.028 . S
O286 C292 1.247 . S
O287 Zn283 2.035 . S
O287 C292 1.258 . S
O288 C281 1.247 . S
O288 Zn285 2.028 . S
O289 C281 1.258 . S
O289 Zn283 2.035 . S
O290 Zn283 2.028 . S
O290 C293 1.247 . S
O291 Zn285 2.035 . S
O291 C293 1.258 . S
C292 O286 1.247 . S
C292 O287 1.258 . S
C293 O290 1.247 . S
C293 O291 1.258 . S
C294 O296 1.247 . S
C294 O298 1.258 . S
C295 O302 1.247 . S
C295 O303 1.258 . S
O296 C294 1.247 . S
O296 Zn297 2.028 . S
Zn297 O296 2.028 . S
Zn297 O301 2.035 . S
Zn297 O303 2.035 . S
Zn297 O304 2.028 . S
O298 C294 1.258 . S
O298 Zn299 2.035 . S
Zn299 O298 2.035 . S
Zn299 O300 2.028 . S
Zn299 O302 2.028 . S
Zn299 O305 2.035 . S
O300 Zn299 2.028 . S
O300 C306 1.247 . S
O301 Zn297 2.035 . S
O301 C306 1.258 . S
O302 C295 1.247 . S
O302 Zn299 2.028 . S
O303 C295 1.258 . S
O303 Zn297 2.035 . S
O304 Zn297 2.028 . S
O304 C307 1.247 . S
O305 Zn299 2.035 . S
O305 C307 1.258 . S
C306 O300 1.247 . S
C306 O301 1.258 . S
C307 O304 1.247 . S
C307 O305 1.258 . S
C308 O310 1.247 . S
C308 O312 1.258 . S
C309 O316 1.247 . S
C309 O317 1.258 . S
O310 C308 1.247 . S
O310 Zn311 2.028 . S
Zn311 O310 2.028 . S
Zn311 O315 2.035 . S
Zn311 O317 2.035 . S
Zn311 O318 2.028 . S
O312 C308 1.258 . S
O312 Zn313 2.035 . S
Zn313 O312 2.035 . S
Zn313 O314 2.028 . S
Zn313 O316 2.028 . S
Zn313 O319 2.035 . S
O314 Zn313 2.028 . S
O314 C320 1.247 . S
O315 Zn311 2.035 . S
O315 C320 1.258 . S
O316 C309 1.247 . S
O316 Zn313 2.028 . S
O317 C309 1.258 . S
O317 Zn311 2.035 . S
O318 Zn311 2.028 . S
O318 C321 1.247 . S
O319 Zn313 2.035 . S
O319 C321 1.258 . S
C320 O314 1.247 . S
C320 O315 1.258 . S
C321 O318 1.247 . S
C321 O319 1.258 . S
C322 O324 1.247 . S
C322 O326 1.258 . S
C323 O330 1.247 . S
C323 O331 1.258 . S
O324 C322 1.247 . S
O324 Zn325 2.028 . S
Zn325 O324 2.028 . S
Zn325 O329 2.035 . S
Zn325 O331 2.035 . S
Zn325 O332 2.028 . S
O326 C322 1.258 . S
O326 Zn327 2.035 . S
Zn327 O326 2.035 . S
Zn327 O328 2.028 . S
Zn327 O330 2.028 . S
Zn327 O333 2.035 . S
O328 Zn327 2.028 . S
O328 C334 1.247 . S
O329 Zn325 2.035 . S
O329 C334 1.258 . S
O330 C323 1.247 . S
O330 Zn327 2.028 . S
O331 C323 1.258 . S
O331 Zn325 2.035 . S
O332 Zn325 2.028 . S
O332 C335 1.247 . S
O333 Zn327 2.035 . S
O333 C335 1.258 . S
C334 O328 1.247 . S
C334 O329 1.258 . S
C335 O332 1.247 . S
C335 O333 1.258 . S
C336 O338 1.247 . S
C336 O340 1.258 . S
C337 O344 1.247 . S
C337 O345 1.258 . S
O338 C336 1.247 . S
O338 Zn339 2.028 . S
Zn339 O338 2.028 . S
Zn339 O343 2.035 . S
Zn339 O345 2.035 . S
Zn339 O346 2.028 . S
O340 C336 1.258 . S
O340 Zn341 2.035 . S
Zn341 O340 2.035 . S
Zn341 O342 2.028 . S
Zn341 O344 2.028 . S
Zn341 O347 2.035 . S
O342 Zn341 2.028 . S
O342 C348 1.247 . S
O343 Zn339 2.035 . S
O343 C348 1.258 . S
O344 C337 1.247 . S
O344 Zn341 2.028 . S
O345 C337 1.258 . S
O345 Zn339 2.035 . S
O346 Zn339 2.028 . S
O346 C349 1.247 . S
O347 Zn341 2.035 . S
O347 C349 1.258 . S
C348 O342 1.247 . S
C348 O343 1.258 . S
C349 O346 1.247 . S
C349 O347 1.258 . S
C350 O352 1.247 . S
C350 O354 1.258 . S
C351 O358 1.247 . S
C351 O359 1.258 . S
O352 C350 1.247 . S
O352 Zn353 2.028 . S
Zn353 O352 2.028 . S
Zn353 O357 2.035 . S
Zn353 O359 2.035 . S
Zn353 O360 2.028 . S
O354 C350 1.258 . S
O354 Zn355 2.035 . S
Zn355 O354 2.035 . S
Zn355 O356 2.028 . S
Zn355 O358 2.028 . S
Zn355 O361 2.035 . S
O356 Zn355 2.028 . S
O356 C362 1.247 . S
O357 Zn353 2.035 . S
O357 C362 1.258 . S
O358 C351 1.247 . S
O358 Zn355 2.028 . S
O359 C351 1.258 . S
O359 Zn353 2.035 . S
O360 Zn353 2.028 . S
O360 C363 1.247 . S
O361 Zn355 2.035 . S
O361 C363 1.258 . S
C362 O356 1.247 . S
C362 O357 1.258 . S
C363 O360 1.247 . S
C363 O361 1.258 . S
C364 O366 1.247 . S
C364 O368 1.258 . S
C365 O372 1.247 . S
C365 O373 1.258 . S
O366 C364 1.247 . S
O366 Zn367 2.028 . S
Zn367 O366 2.028 . S
Zn367 O371 2.035 . S
Zn367 O373 2.035 . S
Zn367 O374 2.028 . S
O368 C364 1.258 . S
O368 Zn369 2.035 . S
Zn369 O368 2.035 . S
Zn369 O370 2.028 . S
Zn369 O372 2.028 . S
Zn369 O375 2.035 . S
O370 Zn369 2.028 . S
O370 C376 1.247 . S
O371 Zn367 2.035 . S
O371 C376 1.258 . S
O372 C365 1.247 . S
O372 Zn369 2.028 . S
O373 C365 1.258 . S
O373 Zn367 2.035 . S
O374 Zn367 2.028 . S
O374 C377 1.247 . S
O375 Zn369 2.035 . S
O375 C377 1.258 . S
C376 O370 1.247 . S
C376 O371 1.258 . S
C377 O374 1.247 . S
C377 O375 1.258 . S
C378 O380 1.247 . S
C378 O382 1.258 . S
C379 O386 1.247 . S
C379 O387 1.258 . S
O380 C378 1.247 . S
O380 Zn381 2.028 . S
Zn381 O380 2.028 . S
Zn381 O385 2.035 . S
Zn381 O387 2.035 . S
Zn381 O388 2.028 . S
O382 C378 1.258 . S
O382 Zn383 2.035 . S
Zn383 O382 2.035 . S
Zn383 O384 2.028 . S
Zn383 O386 2.028 . S
Zn383 O389 2.035 . S
O384 Zn383 2.028 . S
O384 C390 1.247 . S
O385 Zn381 2.035 . S
O385 C390 1.258 . S
O386 C379 1.247 . S
O386 Zn383 2.028 . S
O387 C379 1.258 . S
O387 Zn381 2.035 . S
O388 Zn381 2.028 . S
O388 C391 1.247 . S
O389 Zn383 2.035 . S
O389 C391 1.258 . S
C390 O384 1.247 . S
C390 O385 1.258 . S
C391 O388 1.247 . S
C391 O389 1.258 . S
C392 O394 1.247 . S
C392 O396 1.258 . S
C393 O400 1.247 . S
C393 O401 1.258 . S
O394 C392 1.247 . S
O394 Zn395 2.028 . S
Zn395 O394 2.028 . S
Zn395 O399 2.035 . S
Zn395 O401 2.035 . S
Zn395 O402 2.028 . S
O396 C392 1.258 . S
O396 Zn397 2.035 . S
Zn397 O396 2.035 . S
Zn397 O398 2.028 . S
Zn397 O400 2.028 . S
Zn397 O403 2.035 . S
O398 Zn397 2.028 . S
O398 C404 1.247 . S
O399 Zn395 2.035 . S
O399 C404 1.258 . S
O400 C393 1.247 . S
O400 Zn397 2.028 . S
O401 C393 1.258 . S
O401 Zn395 2.035 . S
O402 Zn395 2.028 . S
O402 C405 1.247 . S
O403 Zn397 2.035 . S
O403 C405 1.258 . S
C404 O398 1.247 . S
C404 O399 1.258 . S
C405 O402 1.247 . S
C405 O403 1.258 . S
C406 O408 1.247 . S
C406 O410 1.258 . S
C407 O414 1.247 . S
C407 O415 1.258 . S
O408 C406 1.247 . S
O408 Zn409 2.028 . S
Zn409 O408 2.028 . S
Zn409 O413 2.035 . S
Zn409 O415 2.035 . S
Zn409 O416 2.028 . S
O410 C406 1.258 . S
O410 Zn411 2.035 . S
Zn411 O410 2.035 . S
Zn411 O412 2.028 . S
Zn411 O414 2.028 . S
Zn411 O417 2.035 . S
O412 Zn411 2.028 . S
O412 C418 1.247 . S
O413 Zn409 2.035 . S
O413 C418 1.258 . S
O414 C407 1.247 . S
O414 Zn411 2.028 . S
O415 C407 1.258 . S
O415 Zn409 2.035 . S
O416 Zn409 2.028 . S
O416 C419 1.247 . S
O417 Zn411 2.035 . S
O417 C419 1.258 . S
C418 O412 1.247 . S
C418 O413 1.258 . S
C419 O416 1.247 . S
C419 O417 1.258 . S
C420 O422 1.247 . S
C420 O424 1.258 . S
C421 O428 1.247 . S
C421 O429 1.258 . S
O422 C420 1.247 . S
O422 Zn423 2.028 . S
Zn423 O422 2.028 . S
Zn423 O427 2.035 . S
Zn423 O429 2.035 . S
Zn423 O430 2.028 . S
O424 C420 1.258 . S
O424 Zn425 2.035 . S
Zn425 O424 2.035 . S
Zn425 O426 2.028 . S
Zn425 O428 2.028 . S
Zn425 O431 2.035 . S
O426 Zn425 2.028 . S
O426 C432 1.247 . S
O427 Zn423 2.035 . S
O427 C432 1.258 . S
O428 C421 1.247 . S
O428 Zn425 2.028 . S
O429 C421 1.258 . S
O429 Zn423 2.035 . S
O430 Zn423 2.028 . S
O430 C433 1.247 . S
O431 Zn425 2.035 . S
O431 C433 1.258 . S
C432 O426 1.247 . S
C432 O427 1.258 . S
C433 O430 1.247 . S
C433 O431 1.258 . S
C434 O436 1.247 . S
C434 O438 1.258 . S
C435 O442 1.247 . S
C435 O443 1.258 . S
O436 C434 1.247 . S
O436 Zn437 2.028 . S
Zn437 O436 2.028 . S
Zn437 O441 2.035 . S
Zn437 O443 2.035 . S
Zn437 O444 2.028 . S
O438 C434 1.258 . S
O438 Zn439 2.035 . S
Zn439 O438 2.035 . S
Zn439 O440 2.028 . S
Zn439 O442 2.028 . S
Zn439 O445 2.035 . S
O440 Zn439 2.028 . S
O440 C446 1.247 . S
O441 Zn437 2.035 . S
O441 C446 1.258 . S
O442 C435 1.247 . S
O442 Zn439 2.028 . S
O443 C435 1.258 . S
O443 Zn437 2.035 . S
O444 Zn437 2.028 . S
O444 C447 1.247 . S
O445 Zn439 2.035 . S
O445 C447 1.258 . S
C446 O440 1.247 . S
C446 O441 1.258 . S
C447 O444 1.247 . S
C447 O445 1.258 . S
H448 C456 0.929 . S
H449 C458 0.930 . S
H450 C460 0.930 . S
H451 C463 0.929 . S
H452 C466 0.930 . S
H453 C468 0.960 . S
H454 C468 0.960 . S
H455 C468 0.960 . S
C456 H448 0.929 . S
C456 C457 1.377 . S
C456 C458 1.384 . S
C457 C456 1.377 . S
C457 C463 1.390 . S
C458 H449 0.930 . S
C458 C456 1.384 . S
C458 C459 1.372 . S
C459 C458 1.372 . S
C459 C460 1.400 . S
C459 C464 1.490 . S
C460 H450 0.930 . S
C460 C459 1.400 . S
C460 C463 1.386 . S
H461 C477 0.930 . S
H462 C478 0.931 . S
C463 H451 0.929 . S
C463 C457 1.390 . S
C463 C460 1.386 . S
C464 C459 1.490 . S
C464 C466 1.395 . S
C464 C467 1.403 . S
H465 C471 0.930 . S
C466 H452 0.930 . S
C466 C464 1.395 . S
C466 C469 1.403 . S
C467 C464 1.403 . S
C467 C468 1.524 . S
C467 C471 1.400 . S
C468 H453 0.960 . S
C468 H454 0.960 . S
C468 H455 0.960 . S
C468 C467 1.524 . S
C469 C466 1.403 . S
C469 C470 1.392 . S
C469 C473 1.495 . S
C470 C469 1.392 . S
C470 C471 1.385 . S
C470 C472 1.478 . S
C471 H465 0.930 . S
C471 C467 1.400 . S
C471 C470 1.385 . S
C472 C470 1.478 . S
C472 C474 1.381 . S
C472 C478 1.383 . S
C473 C469 1.495 . S
C473 H479 0.959 . S
C473 H480 0.961 . S
C473 H481 0.960 . S
C474 C472 1.381 . S
C474 C475 1.394 . S
C474 H482 0.930 . S
C475 C474 1.394 . S
C475 C476 1.383 . S
C475 H483 0.929 . S
C476 C475 1.383 . S
C476 C477 1.377 . S
C477 H461 0.930 . S
C477 C476 1.377 . S
C477 C478 1.379 . S
C478 H462 0.931 . S
C478 C472 1.383 . S
C478 C477 1.379 . S
H479 C473 0.959 . S
H480 C473 0.961 . S
H481 C473 0.960 . S
H482 C474 0.930 . S
H483 C475 0.929 . S
H484 C492 0.929 . S
H485 C494 0.930 . S
H486 C496 0.930 1_655 S
H487 C499 0.929 . S
H488 C502 0.930 . S
H489 C504 0.960 . S
H490 C504 0.960 . S
H491 C504 0.960 . S
C492 H484 0.929 . S
C492 C493 1.377 . S
C492 C494 1.384 . S
C493 C492 1.377 . S
C493 C499 1.390 . S
C494 H485 0.930 . S
C494 C492 1.384 . S
C494 C495 1.372 . S
C495 C494 1.372 . S
C495 C496 1.400 . S
C495 C500 1.490 1_455 S
C496 H486 0.930 1_455 S
C496 C495 1.400 . S
C496 C499 1.386 . S
H497 C513 0.930 . S
H498 C514 0.931 . S
C499 H487 0.929 . S
C499 C493 1.390 . S
C499 C496 1.386 . S
C500 C495 1.490 1_655 S
C500 C502 1.395 . S
C500 C503 1.403 . S
H501 C507 0.930 . S
C502 H488 0.930 . S
C502 C500 1.395 . S
C502 C505 1.403 . S
C503 C500 1.403 . S
C503 C504 1.524 . S
C503 C507 1.400 . S
C504 H489 0.960 . S
C504 H490 0.960 . S
C504 H491 0.960 . S
C504 C503 1.524 . S
C505 C502 1.403 . S
C505 C506 1.392 . S
C505 C509 1.495 . S
C506 C505 1.392 . S
C506 C507 1.385 . S
C506 C508 1.478 . S
C507 H501 0.930 . S
C507 C503 1.400 . S
C507 C506 1.385 . S
C508 C506 1.478 . S
C508 C510 1.381 . S
C508 C514 1.383 . S
C509 C505 1.495 . S
C509 H515 0.959 . S
C509 H516 0.961 . S
C509 H517 0.960 . S
C510 C508 1.381 . S
C510 C511 1.394 . S
C510 H518 0.930 . S
C511 C510 1.394 . S
C511 C512 1.383 . S
C511 H519 0.929 . S
C512 C511 1.383 . S
C512 C513 1.377 . S
C513 H497 0.930 . S
C513 C512 1.377 . S
C513 C514 1.379 . S
C514 H498 0.931 . S
C514 C508 1.383 . S
C514 C513 1.379 . S
H515 C509 0.959 . S
H516 C509 0.961 . S
H517 C509 0.960 . S
H518 C510 0.930 . S
H519 C511 0.929 . S
H520 C528 0.929 . S
H521 C530 0.930 . S
H522 C532 0.930 . S
H523 C535 0.929 . S
H524 C538 0.930 . S
H525 C540 0.960 . S
H526 C540 0.960 . S
H527 C540 0.960 . S
C528 H520 0.929 . S
C528 C529 1.377 . S
C528 C530 1.384 . S
C529 C528 1.377 . S
C529 C535 1.390 . S
C530 H521 0.930 . S
C530 C528 1.384 . S
C530 C531 1.372 . S
C531 C530 1.372 . S
C531 C532 1.400 . S
C531 C536 1.490 . S
C532 H522 0.930 . S
C532 C531 1.400 . S
C532 C535 1.386 . S
H533 C549 0.930 . S
H534 C550 0.931 . S
C535 H523 0.929 . S
C535 C529 1.390 . S
C535 C532 1.386 . S
C536 C531 1.490 . S
C536 C538 1.395 . S
C536 C539 1.403 . S
H537 C543 0.930 . S
C538 H524 0.930 . S
C538 C536 1.395 . S
C538 C541 1.403 . S
C539 C536 1.403 . S
C539 C540 1.524 . S
C539 C543 1.400 . S
C540 H525 0.960 . S
C540 H526 0.960 . S
C540 H527 0.960 . S
C540 C539 1.524 . S
C541 C538 1.403 . S
C541 C542 1.392 . S
C541 C545 1.495 . S
C542 C541 1.392 . S
C542 C543 1.385 . S
C542 C544 1.478 . S
C543 H537 0.930 . S
C543 C539 1.400 . S
C543 C542 1.385 . S
C544 C542 1.478 . S
C544 C546 1.381 . S
C544 C550 1.383 . S
C545 C541 1.495 . S
C545 H551 0.959 . S
C545 H552 0.961 . S
C545 H553 0.960 . S
C546 C544 1.381 . S
C546 C547 1.394 . S
C546 H554 0.930 . S
C547 C546 1.394 . S
C547 C548 1.383 . S
C547 H555 0.929 . S
C548 C547 1.383 . S
C548 C549 1.377 . S
C549 H533 0.930 . S
C549 C548 1.377 . S
C549 C550 1.379 . S
C550 H534 0.931 . S
C550 C544 1.383 . S
C550 C549 1.379 . S
H551 C545 0.959 . S
H552 C545 0.961 . S
H553 C545 0.960 . S
H554 C546 0.930 . S
H555 C547 0.929 . S
H556 C564 0.929 . S
H557 C566 0.930 . S
H558 C568 0.930 . S
H559 C571 0.929 . S
H560 C574 0.930 . S
H561 C576 0.960 . S
H562 C576 0.960 . S
H563 C576 0.960 . S
C564 H556 0.929 . S
C564 C565 1.377 . S
C564 C566 1.384 . S
C565 C564 1.377 . S
C565 C571 1.390 . S
C566 H557 0.930 . S
C566 C564 1.384 . S
C566 C567 1.372 . S
C567 C566 1.372 . S
C567 C568 1.400 . S
C567 C572 1.490 . S
C568 H558 0.930 . S
C568 C567 1.400 . S
C568 C571 1.386 . S
H569 C585 0.930 . S
H570 C586 0.931 . S
C571 H559 0.929 . S
C571 C565 1.390 . S
C571 C568 1.386 . S
C572 C567 1.490 . S
C572 C574 1.395 . S
C572 C575 1.403 . S
H573 C579 0.930 . S
C574 H560 0.930 . S
C574 C572 1.395 . S
C574 C577 1.403 . S
C575 C572 1.403 . S
C575 C576 1.524 . S
C575 C579 1.400 . S
C576 H561 0.960 . S
C576 H562 0.960 . S
C576 H563 0.960 . S
C576 C575 1.524 . S
C577 C574 1.403 . S
C577 C578 1.392 . S
C577 C581 1.495 . S
C578 C577 1.392 . S
C578 C579 1.385 . S
C578 C580 1.478 . S
C579 H573 0.930 . S
C579 C575 1.400 . S
C579 C578 1.385 . S
C580 C578 1.478 . S
C580 C582 1.381 . S
C580 C586 1.383 . S
C581 C577 1.495 . S
C581 H587 0.959 . S
C581 H588 0.961 . S
C581 H589 0.960 . S
C582 C580 1.381 . S
C582 C583 1.394 . S
C582 H590 0.930 . S
C583 C582 1.394 . S
C583 C584 1.383 . S
C583 H591 0.929 . S
C584 C583 1.383 . S
C584 C585 1.377 . S
C585 H569 0.930 . S
C585 C584 1.377 . S
C585 C586 1.379 . S
C586 H570 0.931 . S
C586 C580 1.383 . S
C586 C585 1.379 . S
H587 C581 0.959 . S
H588 C581 0.961 . S
H589 C581 0.960 . S
H590 C582 0.930 . S
H591 C583 0.929 . S
H592 C600 0.929 . S
H593 C602 0.930 . S
H594 C604 0.930 . S
H595 C607 0.929 . S
H596 C610 0.930 . S
H597 C612 0.960 . S
H598 C612 0.960 . S
H599 C612 0.960 . S
C600 H592 0.929 . S
C600 C601 1.377 . S
C600 C602 1.384 . S
C601 C600 1.377 . S
C601 C607 1.390 . S
C602 H593 0.930 . S
C602 C600 1.384 . S
C602 C603 1.372 . S
C603 C602 1.372 . S
C603 C604 1.400 . S
C603 C608 1.490 . S
C604 H594 0.930 . S
C604 C603 1.400 . S
C604 C607 1.386 . S
H605 C621 0.930 . S
H606 C622 0.931 . S
C607 H595 0.929 . S
C607 C601 1.390 . S
C607 C604 1.386 . S
C608 C603 1.490 . S
C608 C610 1.395 . S
C608 C611 1.403 . S
H609 C615 0.930 . S
C610 H596 0.930 . S
C610 C608 1.395 . S
C610 C613 1.403 . S
C611 C608 1.403 . S
C611 C612 1.524 . S
C611 C615 1.400 . S
C612 H597 0.960 . S
C612 H598 0.960 . S
C612 H599 0.960 . S
C612 C611 1.524 . S
C613 C610 1.403 . S
C613 C614 1.392 . S
C613 C617 1.495 . S
C614 C613 1.392 . S
C614 C615 1.385 . S
C614 C616 1.478 . S
C615 H609 0.930 . S
C615 C611 1.400 . S
C615 C614 1.385 . S
C616 C614 1.478 . S
C616 C618 1.381 . S
C616 C622 1.383 . S
C617 C613 1.495 . S
C617 H623 0.959 . S
C617 H624 0.961 . S
C617 H625 0.960 . S
C618 C616 1.381 . S
C618 C619 1.394 . S
C618 H626 0.930 . S
C619 C618 1.394 . S
C619 C620 1.383 . S
C619 H627 0.929 . S
C620 C619 1.383 . S
C620 C621 1.377 . S
C621 H605 0.930 . S
C621 C620 1.377 . S
C621 C622 1.379 . S
C622 H606 0.931 . S
C622 C616 1.383 . S
C622 C621 1.379 . S
H623 C617 0.959 . S
H624 C617 0.961 . S
H625 C617 0.960 . S
H626 C618 0.930 . S
H627 C619 0.929 . S
H628 C636 0.929 . S
H629 C638 0.930 . S
H630 C640 0.930 . S
H631 C643 0.929 . S
H632 C646 0.930 . S
H633 C648 0.960 . S
H634 C648 0.960 . S
H635 C648 0.960 . S
C636 H628 0.929 . S
C636 C637 1.377 . S
C636 C638 1.384 . S
C637 C636 1.377 . S
C637 C643 1.390 . S
C638 H629 0.930 . S
C638 C636 1.384 . S
C638 C639 1.372 . S
C639 C638 1.372 . S
C639 C640 1.400 . S
C639 C644 1.490 . S
C640 H630 0.930 . S
C640 C639 1.400 . S
C640 C643 1.386 . S
H641 C657 0.930 . S
H642 C658 0.931 . S
C643 H631 0.929 . S
C643 C637 1.390 . S
C643 C640 1.386 . S
C644 C639 1.490 . S
C644 C646 1.395 . S
C644 C647 1.403 . S
H645 C651 0.930 . S
C646 H632 0.930 . S
C646 C644 1.395 . S
C646 C649 1.403 . S
C647 C644 1.403 . S
C647 C648 1.524 . S
C647 C651 1.400 . S
C648 H633 0.960 . S
C648 H634 0.960 . S
C648 H635 0.960 . S
C648 C647 1.524 . S
C649 C646 1.403 . S
C649 C650 1.392 . S
C649 C653 1.495 . S
C650 C649 1.392 . S
C650 C651 1.385 . S
C650 C652 1.478 . S
C651 H645 0.930 . S
C651 C647 1.400 . S
C651 C650 1.385 . S
C652 C650 1.478 . S
C652 C654 1.381 . S
C652 C658 1.383 . S
C653 C649 1.495 . S
C653 H659 0.959 . S
C653 H660 0.961 . S
C653 H661 0.960 . S
C654 C652 1.381 . S
C654 C655 1.394 . S
C654 H662 0.930 . S
C655 C654 1.394 . S
C655 C656 1.383 . S
C655 H663 0.929 . S
C656 C655 1.383 . S
C656 C657 1.377 . S
C657 H641 0.930 . S
C657 C656 1.377 . S
C657 C658 1.379 . S
C658 H642 0.931 . S
C658 C652 1.383 . S
C658 C657 1.379 . S
H659 C653 0.959 . S
H660 C653 0.961 . S
H661 C653 0.960 . S
H662 C654 0.930 . S
H663 C655 0.929 . S
H664 C672 0.929 . S
H665 C674 0.930 . S
H666 C676 0.930 . S
H667 C679 0.929 . S
H668 C682 0.930 . S
H669 C684 0.960 . S
H670 C684 0.960 . S
H671 C684 0.960 . S
C672 H664 0.929 . S
C672 C673 1.377 . S
C672 C674 1.384 . S
C673 C672 1.377 . S
C673 C679 1.390 . S
C674 H665 0.930 . S
C674 C672 1.384 . S
C674 C675 1.372 . S
C675 C674 1.372 . S
C675 C676 1.400 . S
C675 C680 1.490 . S
C676 H666 0.930 . S
C676 C675 1.400 . S
C676 C679 1.386 . S
H677 C693 0.930 . S
H678 C694 0.931 . S
C679 H667 0.929 . S
C679 C673 1.390 . S
C679 C676 1.386 . S
C680 C675 1.490 . S
C680 C682 1.395 . S
C680 C683 1.403 . S
H681 C687 0.930 . S
C682 H668 0.930 . S
C682 C680 1.395 . S
C682 C685 1.403 . S
C683 C680 1.403 . S
C683 C684 1.524 . S
C683 C687 1.400 . S
C684 H669 0.960 . S
C684 H670 0.960 . S
C684 H671 0.960 . S
C684 C683 1.524 . S
C685 C682 1.403 . S
C685 C686 1.392 . S
C685 C689 1.495 . S
C686 C685 1.392 . S
C686 C687 1.385 . S
C686 C688 1.478 . S
C687 H681 0.930 . S
C687 C683 1.400 . S
C687 C686 1.385 . S
C688 C686 1.478 . S
C688 C690 1.381 . S
C688 C694 1.383 . S
C689 C685 1.495 . S
C689 H695 0.959 . S
C689 H696 0.961 . S
C689 H697 0.960 . S
C690 C688 1.381 . S
C690 C691 1.394 . S
C690 H698 0.930 . S
C691 C690 1.394 . S
C691 C692 1.383 . S
C691 H699 0.929 . S
C692 C691 1.383 . S
C692 C693 1.377 . S
C693 H677 0.930 . S
C693 C692 1.377 . S
C693 C694 1.379 . S
C694 H678 0.931 . S
C694 C688 1.383 . S
C694 C693 1.379 . S
H695 C689 0.959 . S
H696 C689 0.961 . S
H697 C689 0.960 . S
H698 C690 0.930 . S
H699 C691 0.929 . S
H700 C708 0.929 . S
H701 C710 0.930 . S
H702 C712 0.930 1_655 S
H703 C715 0.929 . S
H704 C718 0.930 . S
H705 C720 0.960 . S
H706 C720 0.960 . S
H707 C720 0.960 . S
C708 H700 0.929 . S
C708 C709 1.377 . S
C708 C710 1.384 . S
C709 C708 1.377 . S
C709 C715 1.390 . S
C710 H701 0.930 . S
C710 C708 1.384 . S
C710 C711 1.372 . S
C711 C710 1.372 . S
C711 C712 1.400 . S
C711 C716 1.490 1_455 S
C712 H702 0.930 1_455 S
C712 C711 1.400 . S
C712 C715 1.386 . S
H713 C729 0.930 . S
H714 C730 0.931 . S
C715 H703 0.929 . S
C715 C709 1.390 . S
C715 C712 1.386 . S
C716 C711 1.490 1_655 S
C716 C718 1.395 . S
C716 C719 1.403 . S
H717 C723 0.930 . S
C718 H704 0.930 . S
C718 C716 1.395 . S
C718 C721 1.403 . S
C719 C716 1.403 . S
C719 C720 1.524 . S
C719 C723 1.400 . S
C720 H705 0.960 . S
C720 H706 0.960 . S
C720 H707 0.960 . S
C720 C719 1.524 . S
C721 C718 1.403 . S
C721 C722 1.392 . S
C721 C725 1.495 . S
C722 C721 1.392 . S
C722 C723 1.385 . S
C722 C724 1.478 . S
C723 H717 0.930 . S
C723 C719 1.400 . S
C723 C722 1.385 . S
C724 C722 1.478 . S
C724 C726 1.381 . S
C724 C730 1.383 . S
C725 C721 1.495 . S
C725 H731 0.959 . S
C725 H732 0.961 . S
C725 H733 0.960 . S
C726 C724 1.381 . S
C726 C727 1.394 . S
C726 H734 0.930 . S
C727 C726 1.394 . S
C727 C728 1.383 . S
C727 H735 0.929 . S
C728 C727 1.383 . S
C728 C729 1.377 . S
C729 H713 0.930 . S
C729 C728 1.377 . S
C729 C730 1.379 . S
C730 H714 0.931 . S
C730 C724 1.383 . S
C730 C729 1.379 . S
H731 C725 0.959 . S
H732 C725 0.961 . S
H733 C725 0.960 . S
H734 C726 0.930 . S
H735 C727 0.929 . S
H736 C744 0.929 . S
H737 C746 0.930 . S
H738 C748 0.930 . S
H739 C751 0.929 . S
H740 C754 0.930 . S
H741 C756 0.960 . S
H742 C756 0.960 . S
H743 C756 0.960 . S
C744 H736 0.929 . S
C744 C745 1.377 . S
C744 C746 1.384 . S
C745 C744 1.377 . S
C745 C751 1.390 . S
C746 H737 0.930 . S
C746 C744 1.384 . S
C746 C747 1.372 . S
C747 C746 1.372 . S
C747 C748 1.400 . S
C747 C752 1.490 . S
C748 H738 0.930 . S
C748 C747 1.400 . S
C748 C751 1.386 . S
H749 C765 0.930 . S
H750 C766 0.931 . S
C751 H739 0.929 . S
C751 C745 1.390 . S
C751 C748 1.386 . S
C752 C747 1.490 . S
C752 C754 1.395 . S
C752 C755 1.403 . S
H753 C759 0.930 . S
C754 H740 0.930 . S
C754 C752 1.395 . S
C754 C757 1.403 . S
C755 C752 1.403 . S
C755 C756 1.524 . S
C755 C759 1.400 . S
C756 H741 0.960 . S
C756 H742 0.960 . S
C756 H743 0.960 . S
C756 C755 1.524 . S
C757 C754 1.403 . S
C757 C758 1.392 . S
C757 C761 1.495 . S
C758 C757 1.392 . S
C758 C759 1.385 . S
C758 C760 1.478 . S
C759 H753 0.930 . S
C759 C755 1.400 . S
C759 C758 1.385 . S
C760 C758 1.478 . S
C760 C762 1.381 . S
C760 C766 1.383 . S
C761 C757 1.495 . S
C761 H767 0.959 . S
C761 H768 0.961 . S
C761 H769 0.960 . S
C762 C760 1.381 . S
C762 C763 1.394 . S
C762 H770 0.930 . S
C763 C762 1.394 . S
C763 C764 1.383 . S
C763 H771 0.929 . S
C764 C763 1.383 . S
C764 C765 1.377 . S
C765 H749 0.930 . S
C765 C764 1.377 . S
C765 C766 1.379 . S
C766 H750 0.931 . S
C766 C760 1.383 . S
C766 C765 1.379 . S
H767 C761 0.959 . S
H768 C761 0.961 . S
H769 C761 0.960 . S
H770 C762 0.930 . S
H771 C763 0.929 . S
H772 C780 0.929 . S
H773 C782 0.930 . S
H774 C784 0.930 . S
H775 C787 0.929 . S
H776 C790 0.930 . S
H777 C792 0.960 . S
H778 C792 0.960 . S
H779 C792 0.960 . S
C780 H772 0.929 . S
C780 C781 1.377 . S
C780 C782 1.384 . S
C781 C780 1.377 . S
C781 C787 1.390 . S
C782 H773 0.930 . S
C782 C780 1.384 . S
C782 C783 1.372 . S
C783 C782 1.372 . S
C783 C784 1.400 . S
C783 C788 1.490 . S
C784 H774 0.930 . S
C784 C783 1.400 . S
C784 C787 1.386 . S
H785 C801 0.930 . S
H786 C802 0.931 . S
C787 H775 0.929 . S
C787 C781 1.390 . S
C787 C784 1.386 . S
C788 C783 1.490 . S
C788 C790 1.395 . S
C788 C791 1.403 . S
H789 C795 0.930 . S
C790 H776 0.930 . S
C790 C788 1.395 . S
C790 C793 1.403 . S
C791 C788 1.403 . S
C791 C792 1.524 . S
C791 C795 1.400 . S
C792 H777 0.960 . S
C792 H778 0.960 . S
C792 H779 0.960 . S
C792 C791 1.524 . S
C793 C790 1.403 . S
C793 C794 1.392 . S
C793 C797 1.495 . S
C794 C793 1.392 . S
C794 C795 1.385 . S
C794 C796 1.478 1_455 S
C795 H789 0.930 . S
C795 C791 1.400 . S
C795 C794 1.385 . S
C796 C794 1.478 1_655 S
C796 C798 1.381 . S
C796 C802 1.383 . S
C797 C793 1.495 . S
C797 H803 0.959 . S
C797 H804 0.961 1_455 S
C797 H805 0.960 1_455 S
C798 C796 1.381 . S
C798 C799 1.394 . S
C798 H806 0.930 . S
C799 C798 1.394 . S
C799 C800 1.383 . S
C799 H807 0.929 . S
C800 C799 1.383 . S
C800 C801 1.377 . S
C801 H785 0.930 . S
C801 C800 1.377 . S
C801 C802 1.379 . S
C802 H786 0.931 . S
C802 C796 1.383 . S
C802 C801 1.379 . S
H803 C797 0.959 . S
H804 C797 0.961 1_655 S
H805 C797 0.960 1_655 S
H806 C798 0.930 . S
H807 C799 0.929 . S
H808 C816 0.929 . S
H809 C818 0.930 . S
H810 C820 0.930 . S
H811 C823 0.929 . S
H812 C826 0.930 . S
H813 C828 0.960 . S
H814 C828 0.960 . S
H815 C828 0.960 . S
C816 H808 0.929 . S
C816 C817 1.377 . S
C816 C818 1.384 . S
C817 C816 1.377 . S
C817 C823 1.390 . S
C818 H809 0.930 . S
C818 C816 1.384 . S
C818 C819 1.372 . S
C819 C818 1.372 . S
C819 C820 1.400 . S
C819 C824 1.490 . S
C820 H810 0.930 . S
C820 C819 1.400 . S
C820 C823 1.386 . S
H821 C837 0.930 . S
H822 C838 0.931 . S
C823 H811 0.929 . S
C823 C817 1.390 . S
C823 C820 1.386 . S
C824 C819 1.490 . S
C824 C826 1.395 . S
C824 C827 1.403 . S
H825 C831 0.930 . S
C826 H812 0.930 . S
C826 C824 1.395 . S
C826 C829 1.403 . S
C827 C824 1.403 . S
C827 C828 1.524 . S
C827 C831 1.400 . S
C828 H813 0.960 . S
C828 H814 0.960 . S
C828 H815 0.960 . S
C828 C827 1.524 . S
C829 C826 1.403 . S
C829 C830 1.392 . S
C829 C833 1.495 . S
C830 C829 1.392 . S
C830 C831 1.385 . S
C830 C832 1.478 . S
C831 H825 0.930 . S
C831 C827 1.400 . S
C831 C830 1.385 . S
C832 C830 1.478 . S
C832 C834 1.381 . S
C832 C838 1.383 . S
C833 C829 1.495 . S
C833 H839 0.959 . S
C833 H840 0.961 . S
C833 H841 0.960 . S
C834 C832 1.381 . S
C834 C835 1.394 . S
C834 H842 0.930 . S
C835 C834 1.394 . S
C835 C836 1.383 . S
C835 H843 0.929 . S
C836 C835 1.383 . S
C836 C837 1.377 . S
C837 H821 0.930 . S
C837 C836 1.377 . S
C837 C838 1.379 . S
C838 H822 0.931 . S
C838 C832 1.383 . S
C838 C837 1.379 . S
H839 C833 0.959 . S
H840 C833 0.961 . S
H841 C833 0.960 . S
H842 C834 0.930 . S
H843 C835 0.929 . S
H844 C852 0.929 . S
H845 C854 0.930 . S
H846 C856 0.930 . S
H847 C859 0.929 . S
H848 C862 0.930 . S
H849 C864 0.960 . S
H850 C864 0.960 . S
H851 C864 0.960 . S
C852 H844 0.929 . S
C852 C853 1.377 . S
C852 C854 1.384 . S
C853 C852 1.377 . S
C853 C859 1.390 . S
C854 H845 0.930 . S
C854 C852 1.384 . S
C854 C855 1.372 . S
C855 C854 1.372 . S
C855 C856 1.400 . S
C855 C860 1.490 . S
C856 H846 0.930 . S
C856 C855 1.400 . S
C856 C859 1.386 . S
H857 C873 0.930 . S
H858 C874 0.931 . S
C859 H847 0.929 . S
C859 C853 1.390 . S
C859 C856 1.386 . S
C860 C855 1.490 . S
C860 C862 1.395 . S
C860 C863 1.403 . S
H861 C867 0.930 . S
C862 H848 0.930 . S
C862 C860 1.395 . S
C862 C865 1.403 . S
C863 C860 1.403 . S
C863 C864 1.524 . S
C863 C867 1.400 . S
C864 H849 0.960 . S
C864 H850 0.960 . S
C864 H851 0.960 . S
C864 C863 1.524 . S
C865 C862 1.403 . S
C865 C866 1.392 . S
C865 C869 1.495 . S
C866 C865 1.392 . S
C866 C867 1.385 . S
C866 C868 1.478 . S
C867 H861 0.930 . S
C867 C863 1.400 . S
C867 C866 1.385 . S
C868 C866 1.478 . S
C868 C870 1.381 . S
C868 C874 1.383 . S
C869 C865 1.495 . S
C869 H875 0.959 . S
C869 H876 0.961 . S
C869 H877 0.960 . S
C870 C868 1.381 . S
C870 C871 1.394 . S
C870 H878 0.930 . S
C871 C870 1.394 . S
C871 C872 1.383 . S
C871 H879 0.929 . S
C872 C871 1.383 . S
C872 C873 1.377 . S
C873 H857 0.930 . S
C873 C872 1.377 . S
C873 C874 1.379 . S
C874 H858 0.931 . S
C874 C868 1.383 . S
C874 C873 1.379 . S
H875 C869 0.959 . S
H876 C869 0.961 . S
H877 C869 0.960 . S
H878 C870 0.930 . S
H879 C871 0.929 . S
H880 C888 0.929 . S
H881 C890 0.930 . S
H882 C892 0.930 . S
H883 C895 0.929 . S
H884 C898 0.930 . S
H885 C900 0.960 . S
H886 C900 0.960 . S
H887 C900 0.960 . S
C888 H880 0.929 . S
C888 C889 1.377 . S
C888 C890 1.384 . S
C889 C888 1.377 . S
C889 C895 1.390 . S
C890 H881 0.930 . S
C890 C888 1.384 . S
C890 C891 1.372 . S
C891 C890 1.372 . S
C891 C892 1.400 . S
C891 C896 1.490 . S
C892 H882 0.930 . S
C892 C891 1.400 . S
C892 C895 1.386 . S
H893 C909 0.930 . S
H894 C910 0.931 . S
C895 H883 0.929 . S
C895 C889 1.390 . S
C895 C892 1.386 . S
C896 C891 1.490 . S
C896 C898 1.395 . S
C896 C899 1.403 . S
H897 C903 0.930 . S
C898 H884 0.930 . S
C898 C896 1.395 . S
C898 C901 1.403 . S
C899 C896 1.403 . S
C899 C900 1.524 . S
C899 C903 1.400 . S
C900 H885 0.960 . S
C900 H886 0.960 . S
C900 H887 0.960 . S
C900 C899 1.524 . S
C901 C898 1.403 . S
C901 C902 1.392 . S
C901 C905 1.495 . S
C902 C901 1.392 . S
C902 C903 1.385 . S
C902 C904 1.478 . S
C903 H897 0.930 . S
C903 C899 1.400 . S
C903 C902 1.385 . S
C904 C902 1.478 . S
C904 C906 1.381 . S
C904 C910 1.383 . S
C905 C901 1.495 . S
C905 H911 0.959 . S
C905 H912 0.961 . S
C905 H913 0.960 . S
C906 C904 1.381 . S
C906 C907 1.394 . S
C906 H914 0.930 . S
C907 C906 1.394 . S
C907 C908 1.383 . S
C907 H915 0.929 . S
C908 C907 1.383 . S
C908 C909 1.377 . S
C909 H893 0.930 . S
C909 C908 1.377 . S
C909 C910 1.379 . S
C910 H894 0.931 . S
C910 C904 1.383 . S
C910 C909 1.379 . S
H911 C905 0.959 . S
H912 C905 0.961 . S
H913 C905 0.960 . S
H914 C906 0.930 . S
H915 C907 0.929 . S
H916 C924 0.929 . S
H917 C926 0.930 . S
H918 C928 0.930 . S
H919 C931 0.929 . S
H920 C934 0.930 . S
H921 C936 0.960 . S
H922 C936 0.960 . S
H923 C936 0.960 . S
C924 H916 0.929 . S
C924 C925 1.377 . S
C924 C926 1.384 . S
C925 C924 1.377 . S
C925 C931 1.390 . S
C926 H917 0.930 . S
C926 C924 1.384 . S
C926 C927 1.372 . S
C927 C926 1.372 . S
C927 C928 1.400 . S
C927 C932 1.490 . S
C928 H918 0.930 . S
C928 C927 1.400 . S
C928 C931 1.386 . S
H929 C945 0.930 . S
H930 C946 0.931 . S
C931 H919 0.929 . S
C931 C925 1.390 . S
C931 C928 1.386 . S
C932 C927 1.490 . S
C932 C934 1.395 . S
C932 C935 1.403 . S
H933 C939 0.930 . S
C934 H920 0.930 . S
C934 C932 1.395 . S
C934 C937 1.403 . S
C935 C932 1.403 . S
C935 C936 1.524 . S
C935 C939 1.400 . S
C936 H921 0.960 . S
C936 H922 0.960 . S
C936 H923 0.960 . S
C936 C935 1.524 . S
C937 C934 1.403 . S
C937 C938 1.392 . S
C937 C941 1.495 . S
C938 C937 1.392 . S
C938 C939 1.385 . S
C938 C940 1.478 . S
C939 H933 0.930 . S
C939 C935 1.400 . S
C939 C938 1.385 . S
C940 C938 1.478 . S
C940 C942 1.381 . S
C940 C946 1.383 . S
C941 C937 1.495 . S
C941 H947 0.959 . S
C941 H948 0.961 . S
C941 H949 0.960 . S
C942 C940 1.381 . S
C942 C943 1.394 . S
C942 H950 0.930 . S
C943 C942 1.394 . S
C943 C944 1.383 . S
C943 H951 0.929 . S
C944 C943 1.383 . S
C944 C945 1.377 . S
C945 H929 0.930 . S
C945 C944 1.377 . S
C945 C946 1.379 . S
C946 H930 0.931 . S
C946 C940 1.383 . S
C946 C945 1.379 . S
H947 C941 0.959 . S
H948 C941 0.961 . S
H949 C941 0.960 . S
H950 C942 0.930 . S
H951 C943 0.929 . S
H952 C960 0.929 . S
H953 C962 0.930 . S
H954 C964 0.930 . S
H955 C967 0.929 . S
H956 C970 0.930 . S
H957 C972 0.960 . S
H958 C972 0.960 . S
H959 C972 0.960 . S
C960 H952 0.929 . S
C960 C961 1.377 . S
C960 C962 1.384 . S
C961 C960 1.377 . S
C961 C967 1.390 . S
C962 H953 0.930 . S
C962 C960 1.384 . S
C962 C963 1.372 . S
C963 C962 1.372 . S
C963 C964 1.400 . S
C963 C968 1.490 . S
C964 H954 0.930 . S
C964 C963 1.400 . S
C964 C967 1.386 . S
H965 C981 0.930 . S
H966 C982 0.931 . S
C967 H955 0.929 . S
C967 C961 1.390 . S
C967 C964 1.386 . S
C968 C963 1.490 . S
C968 C970 1.395 . S
C968 C971 1.403 . S
H969 C975 0.930 . S
C970 H956 0.930 . S
C970 C968 1.395 . S
C970 C973 1.403 . S
C971 C968 1.403 . S
C971 C972 1.524 . S
C971 C975 1.400 . S
C972 H957 0.960 . S
C972 H958 0.960 . S
C972 H959 0.960 . S
C972 C971 1.524 . S
C973 C970 1.403 . S
C973 C974 1.392 . S
C973 C977 1.495 . S
C974 C973 1.392 . S
C974 C975 1.385 . S
C974 C976 1.478 . S
C975 H969 0.930 . S
C975 C971 1.400 . S
C975 C974 1.385 . S
C976 C974 1.478 . S
C976 C978 1.381 . S
C976 C982 1.383 . S
C977 C973 1.495 . S
C977 H983 0.959 . S
C977 H984 0.961 . S
C977 H985 0.960 . S
C978 C976 1.381 . S
C978 C979 1.394 . S
C978 H986 0.930 . S
C979 C978 1.394 . S
C979 C980 1.383 . S
C979 H987 0.929 . S
C980 C979 1.383 . S
C980 C981 1.377 . S
C981 H965 0.930 . S
C981 C980 1.377 . S
C981 C982 1.379 . S
C982 H966 0.931 . S
C982 C976 1.383 . S
C982 C981 1.379 . S
H983 C977 0.959 . S
H984 C977 0.961 . S
H985 C977 0.960 . S
H986 C978 0.930 . S
H987 C979 0.929 . S
H988 C996 0.929 . S
H989 C998 0.930 . S
H990 C1000 0.930 . S
H991 C1003 0.929 . S
H992 C1006 0.930 . S
H993 C1008 0.960 . S
H994 C1008 0.960 . S
H995 C1008 0.960 . S
C996 H988 0.929 . S
C996 C997 1.377 . S
C996 C998 1.384 . S
C997 C996 1.377 . S
C997 C1003 1.390 . S
C998 H989 0.930 . S
C998 C996 1.384 . S
C998 C999 1.372 . S
C999 C998 1.372 . S
C999 C1000 1.400 . S
C999 C1004 1.490 . S
C1000 H990 0.930 . S
C1000 C999 1.400 . S
C1000 C1003 1.386 . S
H1001 C1017 0.930 . S
H1002 C1018 0.931 . S
C1003 H991 0.929 . S
C1003 C997 1.390 . S
C1003 C1000 1.386 . S
C1004 C999 1.490 . S
C1004 C1006 1.395 . S
C1004 C1007 1.403 . S
H1005 C1011 0.930 . S
C1006 H992 0.930 . S
C1006 C1004 1.395 . S
C1006 C1009 1.403 . S
C1007 C1004 1.403 . S
C1007 C1008 1.524 . S
C1007 C1011 1.400 . S
C1008 H993 0.960 . S
C1008 H994 0.960 . S
C1008 H995 0.960 . S
C1008 C1007 1.524 . S
C1009 C1006 1.403 . S
C1009 C1010 1.392 . S
C1009 C1013 1.495 1_455 S
C1010 C1009 1.392 . S
C1010 C1011 1.385 . S
C1010 C1012 1.478 1_455 S
C1011 H1005 0.930 . S
C1011 C1007 1.400 . S
C1011 C1010 1.385 . S
C1012 C1010 1.478 1_655 S
C1012 C1014 1.381 . S
C1012 C1018 1.383 . S
C1013 C1009 1.495 1_655 S
C1013 H1019 0.954 1_655 S
C1013 H1020 0.961 . S
C1013 H1021 0.960 . S
C1014 C1012 1.381 . S
C1014 C1015 1.394 . S
C1014 H1022 0.930 . S
C1015 C1014 1.394 . S
C1015 C1016 1.383 . S
C1015 H1023 0.929 . S
C1016 C1015 1.383 . S
C1016 C1017 1.377 . S
C1017 H1001 0.930 . S
C1017 C1016 1.377 . S
C1017 C1018 1.379 . S
C1018 H1002 0.931 . S
C1018 C1012 1.383 . S
C1018 C1017 1.379 . S
H1019 C1013 0.954 1_455 S
H1020 C1013 0.961 . S
H1021 C1013 0.960 . S
H1022 C1014 0.930 . S
H1023 C1015 0.929 . S
H1024 C1032 0.929 . S
H1025 C1034 0.930 . S
H1026 C1036 0.930 . S
H1027 C1039 0.929 . S
H1028 C1042 0.930 . S
H1029 C1044 0.960 . S
H1030 C1044 0.960 . S
H1031 C1044 0.960 . S
C1032 H1024 0.929 . S
C1032 C1033 1.377 . S
C1032 C1034 1.384 . S
C1033 C1032 1.377 . S
C1033 C1039 1.390 . S
C1034 H1025 0.930 . S
C1034 C1032 1.384 . S
C1034 C1035 1.372 . S
C1035 C1034 1.372 . S
C1035 C1036 1.400 . S
C1035 C1040 1.490 . S
C1036 H1026 0.930 . S
C1036 C1035 1.400 . S
C1036 C1039 1.386 . S
H1037 C1053 0.930 . S
H1038 C1054 0.931 . S
C1039 H1027 0.929 . S
C1039 C1033 1.390 . S
C1039 C1036 1.386 . S
C1040 C1035 1.490 . S
C1040 C1042 1.395 . S
C1040 C1043 1.403 . S
H1041 C1047 0.930 . S
C1042 H1028 0.930 . S
C1042 C1040 1.395 . S
C1042 C1045 1.403 . S
C1043 C1040 1.403 . S
C1043 C1044 1.524 . S
C1043 C1047 1.400 . S
C1044 H1029 0.960 . S
C1044 H1030 0.960 . S
C1044 H1031 0.960 . S
C1044 C1043 1.524 . S
C1045 C1042 1.403 . S
C1045 C1046 1.392 . S
C1045 C1049 1.495 . S
C1046 C1045 1.392 . S
C1046 C1047 1.385 . S
C1046 C1048 1.478 . S
C1047 H1041 0.930 . S
C1047 C1043 1.400 . S
C1047 C1046 1.385 . S
C1048 C1046 1.478 . S
C1048 C1050 1.381 . S
C1048 C1054 1.383 . S
C1049 C1045 1.495 . S
C1049 H1055 0.959 . S
C1049 H1056 0.961 . S
C1049 H1057 0.960 . S
C1050 C1048 1.381 . S
C1050 C1051 1.394 . S
C1050 H1058 0.930 . S
C1051 C1050 1.394 . S
C1051 C1052 1.383 . S
C1051 H1059 0.929 . S
C1052 C1051 1.383 . S
C1052 C1053 1.377 . S
C1053 H1037 0.930 . S
C1053 C1052 1.377 . S
C1053 C1054 1.379 . S
C1054 H1038 0.931 . S
C1054 C1048 1.383 . S
C1054 C1053 1.379 . S
H1055 C1049 0.959 . S
H1056 C1049 0.961 . S
H1057 C1049 0.960 . S
H1058 C1050 0.930 . S
H1059 C1051 0.929 . S
H1060 C1068 0.929 . S
H1061 C1070 0.930 . S
H1062 C1072 0.930 . S
H1063 C1075 0.929 . S
H1064 C1078 0.930 . S
H1065 C1080 0.960 . S
H1066 C1080 0.960 . S
H1067 C1080 0.960 . S
C1068 H1060 0.929 . S
C1068 C1069 1.377 . S
C1068 C1070 1.384 . S
C1069 C1068 1.377 . S
C1069 C1075 1.390 . S
C1070 H1061 0.930 . S
C1070 C1068 1.384 . S
C1070 C1071 1.372 . S
C1071 C1070 1.372 . S
C1071 C1072 1.400 . S
C1071 C1076 1.490 . S
C1072 H1062 0.930 . S
C1072 C1071 1.400 . S
C1072 C1075 1.386 . S
H1073 C1089 0.930 . S
H1074 C1090 0.931 . S
C1075 H1063 0.929 . S
C1075 C1069 1.390 . S
C1075 C1072 1.386 . S
C1076 C1071 1.490 . S
C1076 C1078 1.395 . S
C1076 C1079 1.403 . S
H1077 C1083 0.930 . S
C1078 H1064 0.930 . S
C1078 C1076 1.395 . S
C1078 C1081 1.403 . S
C1079 C1076 1.403 . S
C1079 C1080 1.524 . S
C1079 C1083 1.400 . S
C1080 H1065 0.960 . S
C1080 H1066 0.960 . S
C1080 H1067 0.960 . S
C1080 C1079 1.524 . S
C1081 C1078 1.403 . S
C1081 C1082 1.392 . S
C1081 C1085 1.495 . S
C1082 C1081 1.392 . S
C1082 C1083 1.385 . S
C1082 C1084 1.478 . S
C1083 H1077 0.930 . S
C1083 C1079 1.400 . S
C1083 C1082 1.385 . S
C1084 C1082 1.478 . S
C1084 C1086 1.381 . S
C1084 C1090 1.383 . S
C1085 C1081 1.495 . S
C1085 H1091 0.959 . S
C1085 H1092 0.961 . S
C1085 H1093 0.960 . S
C1086 C1084 1.381 . S
C1086 C1087 1.394 . S
C1086 H1094 0.930 . S
C1087 C1086 1.394 . S
C1087 C1088 1.383 . S
C1087 H1095 0.929 . S
C1088 C1087 1.383 . S
C1088 C1089 1.377 . S
C1089 H1073 0.930 . S
C1089 C1088 1.377 . S
C1089 C1090 1.379 . S
C1090 H1074 0.931 . S
C1090 C1084 1.383 . S
C1090 C1089 1.379 . S
H1091 C1085 0.959 . S
H1092 C1085 0.961 . S
H1093 C1085 0.960 . S
H1094 C1086 0.930 . S
H1095 C1087 0.929 . S
H1096 C1104 0.929 . S
H1097 C1106 0.930 . S
H1098 C1108 0.930 . S
H1099 C1111 0.929 . S
H1100 C1114 0.930 . S
H1101 C1116 0.960 . S
H1102 C1116 0.960 . S
H1103 C1116 0.960 . S
C1104 H1096 0.929 . S
C1104 C1105 1.377 . S
C1104 C1106 1.384 . S
C1105 C1104 1.377 . S
C1105 C1111 1.390 . S
C1106 H1097 0.930 . S
C1106 C1104 1.384 . S
C1106 C1107 1.372 . S
C1107 C1106 1.372 . S
C1107 C1108 1.400 . S
C1107 C1112 1.490 . S
C1108 H1098 0.930 . S
C1108 C1107 1.400 . S
C1108 C1111 1.386 . S
H1109 C1125 0.930 . S
H1110 C1126 0.931 . S
C1111 H1099 0.929 . S
C1111 C1105 1.390 . S
C1111 C1108 1.386 . S
C1112 C1107 1.490 . S
C1112 C1114 1.395 . S
C1112 C1115 1.403 . S
H1113 C1119 0.930 . S
C1114 H1100 0.930 . S
C1114 C1112 1.395 . S
C1114 C1117 1.403 . S
C1115 C1112 1.403 . S
C1115 C1116 1.524 . S
C1115 C1119 1.400 . S
C1116 H1101 0.960 . S
C1116 H1102 0.960 . S
C1116 H1103 0.960 . S
C1116 C1115 1.524 . S
C1117 C1114 1.403 . S
C1117 C1118 1.392 . S
C1117 C1121 1.495 . S
C1118 C1117 1.392 . S
C1118 C1119 1.385 . S
C1118 C1120 1.478 . S
C1119 H1113 0.930 . S
C1119 C1115 1.400 . S
C1119 C1118 1.385 . S
C1120 C1118 1.478 . S
C1120 C1122 1.381 . S
C1120 C1126 1.383 . S
C1121 C1117 1.495 . S
C1121 H1127 0.959 . S
C1121 H1128 0.961 . S
C1121 H1129 0.960 . S
C1122 C1120 1.381 . S
C1122 C1123 1.394 . S
C1122 H1130 0.930 . S
C1123 C1122 1.394 . S
C1123 C1124 1.383 . S
C1123 H1131 0.929 . S
C1124 C1123 1.383 . S
C1124 C1125 1.377 . S
C1125 H1109 0.930 . S
C1125 C1124 1.377 . S
C1125 C1126 1.379 . S
C1126 H1110 0.931 . S
C1126 C1120 1.383 . S
C1126 C1125 1.379 . S
H1127 C1121 0.959 . S
H1128 C1121 0.961 . S
H1129 C1121 0.960 . S
H1130 C1122 0.930 . S
H1131 C1123 0.929 . S
H1132 C1140 0.929 . S
H1133 C1142 0.930 . S
H1134 C1144 0.930 . S
H1135 C1147 0.929 . S
H1136 C1150 0.930 . S
H1137 C1152 0.960 . S
H1138 C1152 0.960 . S
H1139 C1152 0.960 . S
C1140 H1132 0.929 . S
C1140 C1141 1.377 . S
C1140 C1142 1.384 . S
C1141 C1140 1.377 . S
C1141 C1147 1.390 . S
C1142 H1133 0.930 . S
C1142 C1140 1.384 . S
C1142 C1143 1.372 . S
C1143 C1142 1.372 . S
C1143 C1144 1.400 . S
C1143 C1148 1.490 . S
C1144 H1134 0.930 . S
C1144 C1143 1.400 . S
C1144 C1147 1.386 . S
H1145 C1161 0.930 . S
H1146 C1162 0.931 . S
C1147 H1135 0.929 . S
C1147 C1141 1.390 . S
C1147 C1144 1.386 . S
C1148 C1143 1.490 . S
C1148 C1150 1.395 . S
C1148 C1151 1.403 . S
H1149 C1155 0.930 . S
C1150 H1136 0.930 . S
C1150 C1148 1.395 . S
C1150 C1153 1.403 . S
C1151 C1148 1.403 . S
C1151 C1152 1.524 . S
C1151 C1155 1.400 . S
C1152 H1137 0.960 . S
C1152 H1138 0.960 . S
C1152 H1139 0.960 . S
C1152 C1151 1.524 . S
C1153 C1150 1.403 . S
C1153 C1154 1.392 . S
C1153 C1157 1.495 . S
C1154 C1153 1.392 . S
C1154 C1155 1.385 . S
C1154 C1156 1.462 1_455 S
C1155 H1149 0.930 . S
C1155 C1151 1.400 . S
C1155 C1154 1.385 . S
C1156 C1154 1.462 1_655 S
C1156 C1158 1.388 . S
C1156 C1162 1.392 . S
C1157 C1153 1.495 . S
C1157 H1163 0.959 . S
C1157 H1164 0.961 . S
C1157 H1165 0.960 . S
C1158 C1156 1.388 . S
C1158 C1159 1.394 . S
C1158 H1166 0.930 . S
C1159 C1158 1.394 . S
C1159 C1160 1.383 . S
C1159 H1167 0.929 . S
C1160 C1159 1.383 . S
C1160 C1161 1.377 . S
C1161 H1145 0.930 . S
C1161 C1160 1.377 . S
C1161 C1162 1.379 . S
C1162 H1146 0.931 . S
C1162 C1156 1.392 . S
C1162 C1161 1.379 . S
H1163 C1157 0.959 . S
H1164 C1157 0.961 . S
H1165 C1157 0.960 . S
H1166 C1158 0.930 . S
H1167 C1159 0.929 . S
H1168 C1176 0.929 . S
H1169 C1178 0.930 . S
H1170 C1180 0.930 . S
H1171 C1183 0.929 . S
H1172 C1186 0.930 . S
H1173 C1188 0.960 . S
H1174 C1188 0.960 . S
H1175 C1188 0.960 . S
C1176 H1168 0.929 . S
C1176 C1177 1.377 . S
C1176 C1178 1.384 . S
C1177 C1176 1.377 . S
C1177 C1183 1.390 . S
C1178 H1169 0.930 . S
C1178 C1176 1.384 . S
C1178 C1179 1.372 . S
C1179 C1178 1.372 . S
C1179 C1180 1.400 . S
C1179 C1184 1.490 . S
C1180 H1170 0.930 . S
C1180 C1179 1.400 . S
C1180 C1183 1.386 . S
H1181 C1197 0.930 . S
H1182 C1198 0.931 . S
C1183 H1171 0.929 . S
C1183 C1177 1.390 . S
C1183 C1180 1.386 . S
C1184 C1179 1.490 . S
C1184 C1186 1.395 . S
C1184 C1187 1.403 . S
H1185 C1191 0.930 . S
C1186 H1172 0.930 . S
C1186 C1184 1.395 . S
C1186 C1189 1.403 . S
C1187 C1184 1.403 . S
C1187 C1188 1.524 . S
C1187 C1191 1.400 . S
C1188 H1173 0.960 . S
C1188 H1174 0.960 . S
C1188 H1175 0.960 . S
C1188 C1187 1.524 . S
C1189 C1186 1.403 . S
C1189 C1190 1.392 . S
C1189 C1193 1.495 . S
C1190 C1189 1.392 . S
C1190 C1191 1.385 . S
C1190 C1192 1.478 . S
C1191 H1185 0.930 . S
C1191 C1187 1.400 . S
C1191 C1190 1.385 . S
C1192 C1190 1.478 . S
C1192 C1194 1.381 . S
C1192 C1198 1.383 . S
C1193 C1189 1.495 . S
C1193 H1199 0.959 . S
C1193 H1200 0.961 . S
C1193 H1201 0.960 . S
C1194 C1192 1.381 . S
C1194 C1195 1.394 . S
C1194 H1202 0.930 . S
C1195 C1194 1.394 . S
C1195 C1196 1.383 . S
C1195 H1203 0.929 . S
C1196 C1195 1.383 . S
C1196 C1197 1.377 . S
C1197 H1181 0.930 . S
C1197 C1196 1.377 . S
C1197 C1198 1.379 . S
C1198 H1182 0.931 . S
C1198 C1192 1.383 . S
C1198 C1197 1.379 . S
H1199 C1193 0.959 . S
H1200 C1193 0.961 . S
H1201 C1193 0.960 . S
H1202 C1194 0.930 . S
H1203 C1195 0.929 . S
H1204 C1212 0.929 . S
H1205 C1214 0.930 . S
H1206 C1216 0.930 . S
H1207 C1219 0.929 . S
H1208 C1222 0.930 . S
H1209 C1224 0.960 . S
H1210 C1224 0.960 . S
H1211 C1224 0.960 . S
C1212 H1204 0.929 . S
C1212 C1213 1.377 . S
C1212 C1214 1.384 . S
C1213 C1212 1.377 . S
C1213 C1219 1.390 . S
C1214 H1205 0.930 . S
C1214 C1212 1.384 . S
C1214 C1215 1.372 . S
C1215 C1214 1.372 . S
C1215 C1216 1.400 . S
C1215 C1220 1.490 . S
C1216 H1206 0.930 . S
C1216 C1215 1.400 . S
C1216 C1219 1.386 . S
H1217 C1233 0.930 . S
H1218 C1234 0.931 . S
C1219 H1207 0.929 . S
C1219 C1213 1.390 . S
C1219 C1216 1.386 . S
C1220 C1215 1.490 . S
C1220 C1222 1.395 . S
C1220 C1223 1.403 . S
H1221 C1227 0.930 . S
C1222 H1208 0.930 . S
C1222 C1220 1.395 . S
C1222 C1225 1.403 . S
C1223 C1220 1.403 . S
C1223 C1224 1.524 . S
C1223 C1227 1.400 . S
C1224 H1209 0.960 . S
C1224 H1210 0.960 . S
C1224 H1211 0.960 . S
C1224 C1223 1.524 . S
C1225 C1222 1.403 . S
C1225 C1226 1.392 . S
C1225 C1229 1.495 . S
C1226 C1225 1.392 . S
C1226 C1227 1.385 . S
C1226 C1228 1.460 1_455 S
C1227 H1221 0.930 . S
C1227 C1223 1.400 . S
C1227 C1226 1.385 . S
C1228 C1226 1.460 1_655 S
C1228 C1230 1.390 . S
C1228 C1234 1.393 . S
C1229 C1225 1.495 . S
C1229 H1235 0.959 . S
C1229 H1236 0.961 . S
C1229 H1237 0.960 . S
C1230 C1228 1.390 . S
C1230 C1231 1.394 . S
C1230 H1238 0.930 . S
C1231 C1230 1.394 . S
C1231 C1232 1.383 . S
C1231 H1239 0.929 . S
C1232 C1231 1.383 . S
C1232 C1233 1.377 . S
C1233 H1217 0.930 . S
C1233 C1232 1.377 . S
C1233 C1234 1.379 . S
C1234 H1218 0.931 . S
C1234 C1228 1.393 . S
C1234 C1233 1.379 . S
H1235 C1229 0.959 . S
H1236 C1229 0.961 . S
H1237 C1229 0.960 . S
H1238 C1230 0.930 . S
H1239 C1231 0.929 . S
H1240 C1248 0.929 . S
H1241 C1250 0.930 . S
H1242 C1252 0.930 . S
H1243 C1255 0.929 . S
H1244 C1258 0.930 . S
H1245 C1260 0.960 . S
H1246 C1260 0.960 . S
H1247 C1260 0.960 . S
C1248 H1240 0.929 . S
C1248 C1249 1.377 . S
C1248 C1250 1.384 . S
C1249 C1248 1.377 . S
C1249 C1255 1.390 . S
C1250 H1241 0.930 . S
C1250 C1248 1.384 . S
C1250 C1251 1.372 . S
C1251 C1250 1.372 . S
C1251 C1252 1.400 . S
C1251 C1256 1.490 . S
C1252 H1242 0.930 . S
C1252 C1251 1.400 . S
C1252 C1255 1.386 . S
H1253 C1269 0.930 . S
H1254 C1270 0.931 . S
C1255 H1243 0.929 . S
C1255 C1249 1.390 . S
C1255 C1252 1.386 . S
C1256 C1251 1.490 . S
C1256 C1258 1.395 . S
C1256 C1259 1.403 . S
H1257 C1263 0.930 . S
C1258 H1244 0.930 . S
C1258 C1256 1.395 . S
C1258 C1261 1.403 . S
C1259 C1256 1.403 . S
C1259 C1260 1.524 . S
C1259 C1263 1.400 . S
C1260 H1245 0.960 . S
C1260 H1246 0.960 . S
C1260 H1247 0.960 . S
C1260 C1259 1.524 . S
C1261 C1258 1.403 . S
C1261 C1262 1.392 . S
C1261 C1265 1.495 . S
C1262 C1261 1.392 . S
C1262 C1263 1.385 . S
C1262 C1264 1.478 . S
C1263 H1257 0.930 . S
C1263 C1259 1.400 . S
C1263 C1262 1.385 . S
C1264 C1262 1.478 . S
C1264 C1266 1.381 . S
C1264 C1270 1.383 . S
C1265 C1261 1.495 . S
C1265 H1271 0.959 . S
C1265 H1272 0.961 . S
C1265 H1273 0.960 . S
C1266 C1264 1.381 . S
C1266 C1267 1.394 . S
C1266 H1274 0.930 . S
C1267 C1266 1.394 . S
C1267 C1268 1.383 . S
C1267 H1275 0.929 . S
C1268 C1267 1.383 . S
C1268 C1269 1.377 . S
C1269 H1253 0.930 . S
C1269 C1268 1.377 . S
C1269 C1270 1.379 . S
C1270 H1254 0.931 . S
C1270 C1264 1.383 . S
C1270 C1269 1.379 . S
H1271 C1265 0.959 . S
H1272 C1265 0.961 . S
H1273 C1265 0.960 . S
H1274 C1266 0.930 . S
H1275 C1267 0.929 . S
H1276 C1284 0.929 . S
H1277 C1286 0.930 . S
H1278 C1288 0.930 . S
H1279 C1291 0.929 . S
H1280 C1294 0.930 . S
H1281 C1296 0.960 . S
H1282 C1296 0.960 . S
H1283 C1296 0.960 . S
C1284 H1276 0.929 . S
C1284 C1285 1.377 . S
C1284 C1286 1.384 . S
C1285 C1284 1.377 . S
C1285 C1291 1.390 . S
C1286 H1277 0.930 . S
C1286 C1284 1.384 . S
C1286 C1287 1.372 . S
C1287 C1286 1.372 . S
C1287 C1288 1.400 . S
C1287 C1292 1.490 . S
C1288 H1278 0.930 . S
C1288 C1287 1.400 . S
C1288 C1291 1.386 . S
H1289 C1305 0.930 . S
H1290 C1306 0.931 . S
C1291 H1279 0.929 . S
C1291 C1285 1.390 . S
C1291 C1288 1.386 . S
C1292 C1287 1.490 . S
C1292 C1294 1.395 . S
C1292 C1295 1.403 . S
H1293 C1299 0.930 . S
C1294 H1280 0.930 . S
C1294 C1292 1.395 . S
C1294 C1297 1.403 . S
C1295 C1292 1.403 . S
C1295 C1296 1.524 . S
C1295 C1299 1.400 . S
C1296 H1281 0.960 . S
C1296 H1282 0.960 . S
C1296 H1283 0.960 . S
C1296 C1295 1.524 . S
C1297 C1294 1.403 . S
C1297 C1298 1.392 . S
C1297 C1301 1.495 . S
C1298 C1297 1.392 . S
C1298 C1299 1.385 . S
C1298 C1300 1.478 . S
C1299 H1293 0.930 . S
C1299 C1295 1.400 . S
C1299 C1298 1.385 . S
C1300 C1298 1.478 . S
C1300 C1302 1.381 . S
C1300 C1306 1.383 . S
C1301 C1297 1.495 . S
C1301 H1307 0.959 . S
C1301 H1308 0.961 . S
C1301 H1309 0.960 . S
C1302 C1300 1.381 . S
C1302 C1303 1.394 . S
C1302 H1310 0.930 . S
C1303 C1302 1.394 . S
C1303 C1304 1.383 . S
C1303 H1311 0.929 . S
C1304 C1303 1.383 . S
C1304 C1305 1.377 . S
C1305 H1289 0.930 . S
C1305 C1304 1.377 . S
C1305 C1306 1.379 . S
C1306 H1290 0.931 . S
C1306 C1300 1.383 . S
C1306 C1305 1.379 . S
H1307 C1301 0.959 . S
H1308 C1301 0.961 . S
H1309 C1301 0.960 . S
H1310 C1302 0.930 . S
H1311 C1303 0.929 . S
H1312 C1320 0.929 . S
H1313 C1322 0.930 . S
H1314 C1324 0.930 . S
H1315 C1327 0.929 . S
H1316 C1330 0.930 . S
H1317 C1332 0.960 . S
H1318 C1332 0.960 . S
H1319 C1332 0.960 . S
C1320 H1312 0.929 . S
C1320 C1321 1.377 . S
C1320 C1322 1.384 . S
C1321 C1320 1.377 . S
C1321 C1327 1.390 . S
C1322 H1313 0.930 . S
C1322 C1320 1.384 . S
C1322 C1323 1.372 . S
C1323 C1322 1.372 . S
C1323 C1324 1.400 . S
C1323 C1328 1.490 . S
C1324 H1314 0.930 . S
C1324 C1323 1.400 . S
C1324 C1327 1.386 . S
H1325 C1341 0.930 . S
H1326 C1342 0.931 . S
C1327 H1315 0.929 . S
C1327 C1321 1.390 . S
C1327 C1324 1.386 . S
C1328 C1323 1.490 . S
C1328 C1330 1.395 . S
C1328 C1331 1.403 . S
H1329 C1335 0.930 . S
C1330 H1316 0.930 . S
C1330 C1328 1.395 . S
C1330 C1333 1.403 . S
C1331 C1328 1.403 . S
C1331 C1332 1.524 . S
C1331 C1335 1.400 . S
C1332 H1317 0.960 . S
C1332 H1318 0.960 . S
C1332 H1319 0.960 . S
C1332 C1331 1.524 . S
C1333 C1330 1.403 . S
C1333 C1334 1.392 . S
C1333 C1337 1.495 . S
C1334 C1333 1.392 . S
C1334 C1335 1.385 . S
C1334 C1336 1.478 . S
C1335 H1329 0.930 . S
C1335 C1331 1.400 . S
C1335 C1334 1.385 . S
C1336 C1334 1.478 . S
C1336 C1338 1.381 . S
C1336 C1342 1.383 . S
C1337 C1333 1.495 . S
C1337 H1343 0.959 . S
C1337 H1344 0.961 . S
C1337 H1345 0.960 . S
C1338 C1336 1.381 . S
C1338 C1339 1.394 . S
C1338 H1346 0.930 . S
C1339 C1338 1.394 . S
C1339 C1340 1.383 . S
C1339 H1347 0.929 . S
C1340 C1339 1.383 . S
C1340 C1341 1.377 . S
C1341 H1325 0.930 . S
C1341 C1340 1.377 . S
C1341 C1342 1.379 . S
C1342 H1326 0.931 . S
C1342 C1336 1.383 . S
C1342 C1341 1.379 . S
H1343 C1337 0.959 . S
H1344 C1337 0.961 . S
H1345 C1337 0.960 . S
H1346 C1338 0.930 . S
H1347 C1339 0.929 . S
H1348 C1356 0.929 . S
H1349 C1358 0.930 . S
H1350 C1360 0.930 . S
H1351 C1363 0.929 . S
H1352 C1366 0.930 . S
H1353 C1368 0.960 . S
H1354 C1368 0.960 . S
H1355 C1368 0.960 . S
C1356 H1348 0.929 . S
C1356 C1357 1.377 . S
C1356 C1358 1.384 . S
C1357 C1356 1.377 . S
C1357 C1363 1.390 . S
C1358 H1349 0.930 . S
C1358 C1356 1.384 . S
C1358 C1359 1.372 . S
C1359 C1358 1.372 . S
C1359 C1360 1.400 . S
C1359 C1364 1.490 . S
C1360 H1350 0.930 . S
C1360 C1359 1.400 . S
C1360 C1363 1.386 . S
H1361 C1377 0.930 . S
H1362 C1378 0.931 . S
C1363 H1351 0.929 . S
C1363 C1357 1.390 . S
C1363 C1360 1.386 . S
C1364 C1359 1.490 . S
C1364 C1366 1.395 . S
C1364 C1367 1.403 . S
H1365 C1371 0.930 . S
C1366 H1352 0.930 . S
C1366 C1364 1.395 . S
C1366 C1369 1.403 . S
C1367 C1364 1.403 . S
C1367 C1368 1.524 . S
C1367 C1371 1.400 . S
C1368 H1353 0.960 . S
C1368 H1354 0.960 . S
C1368 H1355 0.960 . S
C1368 C1367 1.524 . S
C1369 C1366 1.403 . S
C1369 C1370 1.392 . S
C1369 C1373 1.495 . S
C1370 C1369 1.392 . S
C1370 C1371 1.385 . S
C1370 C1372 1.478 . S
C1371 H1365 0.930 . S
C1371 C1367 1.400 . S
C1371 C1370 1.385 . S
C1372 C1370 1.478 . S
C1372 C1374 1.381 . S
C1372 C1378 1.383 . S
C1373 C1369 1.495 . S
C1373 H1379 0.959 . S
C1373 H1380 0.961 . S
C1373 H1381 0.960 . S
C1374 C1372 1.381 . S
C1374 C1375 1.394 . S
C1374 H1382 0.930 . S
C1375 C1374 1.394 . S
C1375 C1376 1.383 . S
C1375 H1383 0.929 . S
C1376 C1375 1.383 . S
C1376 C1377 1.377 . S
C1377 H1361 0.930 . S
C1377 C1376 1.377 . S
C1377 C1378 1.379 . S
C1378 H1362 0.931 . S
C1378 C1372 1.383 . S
C1378 C1377 1.379 . S
H1379 C1373 0.959 . S
H1380 C1373 0.961 . S
H1381 C1373 0.960 . S
H1382 C1374 0.930 . S
H1383 C1375 0.929 . S
H1384 C1392 0.929 . S
H1385 C1394 0.930 . S
H1386 C1396 0.930 . S
H1387 C1399 0.929 . S
H1388 C1402 0.930 . S
H1389 C1404 0.960 . S
H1390 C1404 0.960 . S
H1391 C1404 0.960 . S
C1392 H1384 0.929 . S
C1392 C1393 1.377 . S
C1392 C1394 1.384 . S
C1393 C1392 1.377 . S
C1393 C1399 1.390 . S
C1394 H1385 0.930 . S
C1394 C1392 1.384 . S
C1394 C1395 1.372 . S
C1395 C1394 1.372 . S
C1395 C1396 1.400 . S
C1395 C1400 1.490 . S
C1396 H1386 0.930 . S
C1396 C1395 1.400 . S
C1396 C1399 1.386 . S
H1397 C1413 0.930 . S
H1398 C1414 0.931 . S
C1399 H1387 0.929 . S
C1399 C1393 1.390 . S
C1399 C1396 1.386 . S
C1400 C1395 1.490 . S
C1400 C1402 1.395 . S
C1400 C1403 1.403 . S
H1401 C1407 0.930 . S
C1402 H1388 0.930 . S
C1402 C1400 1.395 . S
C1402 C1405 1.403 . S
C1403 C1400 1.403 . S
C1403 C1404 1.524 . S
C1403 C1407 1.400 . S
C1404 H1389 0.960 . S
C1404 H1390 0.960 . S
C1404 H1391 0.960 . S
C1404 C1403 1.524 . S
C1405 C1402 1.403 . S
C1405 C1406 1.392 . S
C1405 C1409 1.495 . S
C1406 C1405 1.392 . S
C1406 C1407 1.385 . S
C1406 C1408 1.478 . S
C1407 H1401 0.930 . S
C1407 C1403 1.400 . S
C1407 C1406 1.385 . S
C1408 C1406 1.478 . S
C1408 C1410 1.381 . S
C1408 C1414 1.383 . S
C1409 C1405 1.495 . S
C1409 H1415 0.959 . S
C1409 H1416 0.961 . S
C1409 H1417 0.960 . S
C1410 C1408 1.381 . S
C1410 C1411 1.394 . S
C1410 H1418 0.930 . S
C1411 C1410 1.394 . S
C1411 C1412 1.383 . S
C1411 H1419 0.929 . S
C1412 C1411 1.383 . S
C1412 C1413 1.377 . S
C1413 H1397 0.930 . S
C1413 C1412 1.377 . S
C1413 C1414 1.379 . S
C1414 H1398 0.931 . S
C1414 C1408 1.383 . S
C1414 C1413 1.379 . S
H1415 C1409 0.959 . S
H1416 C1409 0.961 . S
H1417 C1409 0.960 . S
H1418 C1410 0.930 . S
H1419 C1411 0.929 . S
H1420 C1428 0.929 . S
H1421 C1430 0.930 . S
H1422 C1432 0.930 1_655 S
H1423 C1435 0.929 . S
H1424 C1438 0.930 . S
H1425 C1440 0.960 . S
H1426 C1440 0.960 . S
H1427 C1440 0.960 . S
C1428 H1420 0.929 . S
C1428 C1429 1.377 . S
C1428 C1430 1.384 . S
C1429 C1428 1.377 . S
C1429 C1435 1.390 . S
C1430 H1421 0.930 . S
C1430 C1428 1.384 . S
C1430 C1431 1.372 . S
C1431 C1430 1.372 . S
C1431 C1432 1.400 . S
C1431 C1436 1.490 1_455 S
C1432 H1422 0.930 1_455 S
C1432 C1431 1.400 . S
C1432 C1435 1.386 . S
H1433 C1449 0.930 . S
H1434 C1450 0.931 . S
C1435 H1423 0.929 . S
C1435 C1429 1.390 . S
C1435 C1432 1.386 . S
C1436 C1431 1.490 1_655 S
C1436 C1438 1.395 . S
C1436 C1439 1.403 . S
H1437 C1443 0.930 . S
C1438 H1424 0.930 . S
C1438 C1436 1.395 . S
C1438 C1441 1.403 . S
C1439 C1436 1.403 . S
C1439 C1440 1.524 . S
C1439 C1443 1.400 . S
C1440 H1425 0.960 . S
C1440 H1426 0.960 . S
C1440 H1427 0.960 . S
C1440 C1439 1.524 . S
C1441 C1438 1.403 . S
C1441 C1442 1.392 . S
C1441 C1445 1.495 . S
C1442 C1441 1.392 . S
C1442 C1443 1.385 . S
C1442 C1444 1.478 . S
C1443 H1437 0.930 . S
C1443 C1439 1.400 . S
C1443 C1442 1.385 . S
C1444 C1442 1.478 . S
C1444 C1446 1.381 . S
C1444 C1450 1.383 . S
C1445 C1441 1.495 . S
C1445 H1451 0.959 . S
C1445 H1452 0.961 . S
C1445 H1453 0.960 . S
C1446 C1444 1.381 . S
C1446 C1447 1.394 . S
C1446 H1454 0.930 . S
C1447 C1446 1.394 . S
C1447 C1448 1.383 . S
C1447 H1455 0.929 . S
C1448 C1447 1.383 . S
C1448 C1449 1.377 . S
C1449 H1433 0.930 . S
C1449 C1448 1.377 . S
C1449 C1450 1.379 . S
C1450 H1434 0.931 . S
C1450 C1444 1.383 . S
C1450 C1449 1.379 . S
H1451 C1445 0.959 . S
H1452 C1445 0.961 . S
H1453 C1445 0.960 . S
H1454 C1446 0.930 . S
H1455 C1447 0.929 . S
H1456 C1464 0.929 . S
H1457 C1466 0.930 . S
H1458 C1468 0.930 . S
H1459 C1471 0.929 . S
H1460 C1474 0.930 . S
H1461 C1476 0.960 . S
H1462 C1476 0.960 . S
H1463 C1476 0.960 . S
C1464 H1456 0.929 . S
C1464 C1465 1.377 . S
C1464 C1466 1.384 . S
C1465 C1464 1.377 . S
C1465 C1471 1.390 . S
C1466 H1457 0.930 . S
C1466 C1464 1.384 . S
C1466 C1467 1.372 . S
C1467 C1466 1.372 . S
C1467 C1468 1.400 . S
C1467 C1472 1.490 . S
C1468 H1458 0.930 . S
C1468 C1467 1.400 . S
C1468 C1471 1.386 . S
H1469 C1485 0.930 . S
H1470 C1486 0.931 . S
C1471 H1459 0.929 . S
C1471 C1465 1.390 . S
C1471 C1468 1.386 . S
C1472 C1467 1.490 . S
C1472 C1474 1.395 . S
C1472 C1475 1.403 . S
H1473 C1479 0.930 . S
C1474 H1460 0.930 . S
C1474 C1472 1.395 . S
C1474 C1477 1.403 . S
C1475 C1472 1.403 . S
C1475 C1476 1.524 . S
C1475 C1479 1.400 . S
C1476 H1461 0.960 . S
C1476 H1462 0.960 . S
C1476 H1463 0.960 . S
C1476 C1475 1.524 . S
C1477 C1474 1.403 . S
C1477 C1478 1.392 . S
C1477 C1481 1.495 . S
C1478 C1477 1.392 . S
C1478 C1479 1.385 . S
C1478 C1480 1.478 . S
C1479 H1473 0.930 . S
C1479 C1475 1.400 . S
C1479 C1478 1.385 . S
C1480 C1478 1.478 . S
C1480 C1482 1.381 . S
C1480 C1486 1.383 . S
C1481 C1477 1.495 . S
C1481 H1487 0.959 . S
C1481 H1488 0.961 . S
C1481 H1489 0.960 . S
C1482 C1480 1.381 . S
C1482 C1483 1.394 . S
C1482 H1490 0.930 . S
C1483 C1482 1.394 . S
C1483 C1484 1.383 . S
C1483 H1491 0.929 . S
C1484 C1483 1.383 . S
C1484 C1485 1.377 . S
C1485 H1469 0.930 . S
C1485 C1484 1.377 . S
C1485 C1486 1.379 . S
C1486 H1470 0.931 . S
C1486 C1480 1.383 . S
C1486 C1485 1.379 . S
H1487 C1481 0.959 . S
H1488 C1481 0.961 . S
H1489 C1481 0.960 . S
H1490 C1482 0.930 . S
H1491 C1483 0.929 . S
H1492 C1500 0.929 . S
H1493 C1502 0.930 . S
H1494 C1504 0.930 . S
H1495 C1507 0.929 . S
H1496 C1510 0.930 . S
H1497 C1512 0.960 1_655 S
H1498 C1512 0.960 . S
H1499 C1512 0.960 . S
C1500 H1492 0.929 . S
C1500 C1501 1.377 . S
C1500 C1502 1.384 . S
C1501 C1500 1.377 . S
C1501 C1507 1.390 . S
C1502 H1493 0.930 . S
C1502 C1500 1.384 . S
C1502 C1503 1.372 . S
C1503 C1502 1.372 . S
C1503 C1504 1.400 . S
C1503 C1508 1.490 1_455 S
C1504 H1494 0.930 . S
C1504 C1503 1.400 . S
C1504 C1507 1.386 . S
H1505 C1521 0.930 . S
H1506 C1522 0.931 . S
C1507 H1495 0.929 . S
C1507 C1501 1.390 . S
C1507 C1504 1.386 . S
C1508 C1503 1.490 1_655 S
C1508 C1510 1.395 . S
C1508 C1511 1.403 . S
H1509 C1515 0.930 . S
C1510 H1496 0.930 . S
C1510 C1508 1.395 . S
C1510 C1513 1.403 . S
C1511 C1508 1.403 . S
C1511 C1512 1.524 1_655 S
C1511 C1515 1.400 . S
C1512 H1497 0.960 1_455 S
C1512 H1498 0.960 . S
C1512 H1499 0.960 . S
C1512 C1511 1.524 1_455 S
C1513 C1510 1.403 . S
C1513 C1514 1.392 . S
C1513 C1517 1.495 . S
C1514 C1513 1.392 . S
C1514 C1515 1.385 . S
C1514 C1516 1.478 . S
C1515 H1509 0.930 . S
C1515 C1511 1.400 . S
C1515 C1514 1.385 . S
C1516 C1514 1.478 . S
C1516 C1518 1.381 . S
C1516 C1522 1.383 . S
C1517 C1513 1.495 . S
C1517 H1523 0.959 . S
C1517 H1524 0.961 . S
C1517 H1525 0.960 . S
C1518 C1516 1.381 . S
C1518 C1519 1.394 . S
C1518 H1526 0.930 . S
C1519 C1518 1.394 . S
C1519 C1520 1.383 . S
C1519 H1527 0.929 . S
C1520 C1519 1.383 . S
C1520 C1521 1.377 . S
C1521 H1505 0.930 . S
C1521 C1520 1.377 . S
C1521 C1522 1.379 . S
C1522 H1506 0.931 . S
C1522 C1516 1.383 . S
C1522 C1521 1.379 . S
H1523 C1517 0.959 . S
H1524 C1517 0.961 . S
H1525 C1517 0.960 . S
H1526 C1518 0.930 . S
H1527 C1519 0.929 . S
H1528 C1536 0.929 . S
H1529 C1538 0.930 . S
H1530 C1540 0.930 . S
H1531 C1543 0.929 . S
H1532 C1546 0.930 . S
H1533 C1548 0.960 . S
H1534 C1548 0.960 . S
H1535 C1548 0.960 . S
C1536 H1528 0.929 . S
C1536 C1537 1.377 . S
C1536 C1538 1.384 . S
C1537 C1536 1.377 . S
C1537 C1543 1.390 . S
C1538 H1529 0.930 . S
C1538 C1536 1.384 . S
C1538 C1539 1.372 . S
C1539 C1538 1.372 . S
C1539 C1540 1.400 . S
C1539 C1544 1.490 . S
C1540 H1530 0.930 . S
C1540 C1539 1.400 . S
C1540 C1543 1.386 . S
H1541 C1557 0.930 . S
H1542 C1558 0.931 . S
C1543 H1531 0.929 . S
C1543 C1537 1.390 . S
C1543 C1540 1.386 . S
C1544 C1539 1.490 . S
C1544 C1546 1.395 . S
C1544 C1547 1.403 . S
H1545 C1551 0.930 . S
C1546 H1532 0.930 . S
C1546 C1544 1.395 . S
C1546 C1549 1.403 . S
C1547 C1544 1.403 . S
C1547 C1548 1.524 . S
C1547 C1551 1.400 . S
C1548 H1533 0.960 . S
C1548 H1534 0.960 . S
C1548 H1535 0.960 . S
C1548 C1547 1.524 . S
C1549 C1546 1.403 . S
C1549 C1550 1.392 . S
C1549 C1553 1.495 . S
C1550 C1549 1.392 . S
C1550 C1551 1.385 . S
C1550 C1552 1.478 . S
C1551 H1545 0.930 . S
C1551 C1547 1.400 . S
C1551 C1550 1.385 . S
C1552 C1550 1.478 . S
C1552 C1554 1.381 . S
C1552 C1558 1.383 . S
C1553 C1549 1.495 . S
C1553 H1559 0.959 . S
C1553 H1560 0.961 . S
C1553 H1561 0.960 . S
C1554 C1552 1.381 . S
C1554 C1555 1.394 . S
C1554 H1562 0.930 . S
C1555 C1554 1.394 . S
C1555 C1556 1.383 . S
C1555 H1563 0.929 . S
C1556 C1555 1.383 . S
C1556 C1557 1.377 . S
C1557 H1541 0.930 . S
C1557 C1556 1.377 . S
C1557 C1558 1.379 . S
C1558 H1542 0.931 . S
C1558 C1552 1.383 . S
C1558 C1557 1.379 . S
H1559 C1553 0.959 . S
H1560 C1553 0.961 . S
H1561 C1553 0.960 . S
H1562 C1554 0.930 . S
H1563 C1555 0.929 . S
H1564 C1572 0.929 . S
H1565 C1574 0.930 . S
H1566 C1576 0.930 . S
H1567 C1579 0.929 . S
H1568 C1582 0.930 . S
H1569 C1584 0.960 . S
H1570 C1584 0.960 . S
H1571 C1584 0.960 . S
C1572 H1564 0.929 . S
C1572 C1573 1.377 . S
C1572 C1574 1.384 . S
C1573 C1572 1.377 . S
C1573 C1579 1.390 . S
C1574 H1565 0.930 . S
C1574 C1572 1.384 . S
C1574 C1575 1.372 . S
C1575 C1574 1.372 . S
C1575 C1576 1.400 . S
C1575 C1580 1.490 . S
C1576 H1566 0.930 . S
C1576 C1575 1.400 . S
C1576 C1579 1.386 . S
H1577 C1593 0.930 . S
H1578 C1594 0.931 . S
C1579 H1567 0.929 . S
C1579 C1573 1.390 . S
C1579 C1576 1.386 . S
C1580 C1575 1.490 . S
C1580 C1582 1.395 . S
C1580 C1583 1.403 . S
H1581 C1587 0.930 . S
C1582 H1568 0.930 . S
C1582 C1580 1.395 . S
C1582 C1585 1.403 . S
C1583 C1580 1.403 . S
C1583 C1584 1.524 . S
C1583 C1587 1.400 . S
C1584 H1569 0.960 . S
C1584 H1570 0.960 . S
C1584 H1571 0.960 . S
C1584 C1583 1.524 . S
C1585 C1582 1.403 . S
C1585 C1586 1.392 . S
C1585 C1589 1.495 . S
C1586 C1585 1.392 . S
C1586 C1587 1.385 . S
C1586 C1588 1.478 . S
C1587 H1581 0.930 . S
C1587 C1583 1.400 . S
C1587 C1586 1.385 . S
C1588 C1586 1.478 . S
C1588 C1590 1.381 . S
C1588 C1594 1.383 . S
C1589 C1585 1.495 . S
C1589 H1595 0.959 . S
C1589 H1596 0.961 . S
C1589 H1597 0.960 . S
C1590 C1588 1.381 . S
C1590 C1591 1.394 . S
C1590 H1598 0.930 . S
C1591 C1590 1.394 . S
C1591 C1592 1.383 . S
C1591 H1599 0.929 . S
C1592 C1591 1.383 . S
C1592 C1593 1.377 . S
C1593 H1577 0.930 . S
C1593 C1592 1.377 . S
C1593 C1594 1.379 . S
C1594 H1578 0.931 . S
C1594 C1588 1.383 . S
C1594 C1593 1.379 . S
H1595 C1589 0.959 . S
H1596 C1589 0.961 . S
H1597 C1589 0.960 . S
H1598 C1590 0.930 . S
H1599 C1591 0.929 . S
H1600 C1608 0.929 . S
H1601 C1610 0.930 . S
H1602 C1612 0.930 . S
H1603 C1615 0.929 . S
H1604 C1618 0.930 . S
H1605 C1620 0.960 . S
H1606 C1620 0.960 . S
H1607 C1620 0.960 . S
C1608 H1600 0.929 . S
C1608 C1609 1.377 . S
C1608 C1610 1.384 . S
C1609 C1608 1.377 . S
C1609 C1615 1.390 . S
C1610 H1601 0.930 . S
C1610 C1608 1.384 . S
C1610 C1611 1.372 . S
C1611 C1610 1.372 . S
C1611 C1612 1.400 . S
C1611 C1616 1.490 . S
C1612 H1602 0.930 . S
C1612 C1611 1.400 . S
C1612 C1615 1.386 . S
H1613 C1629 0.930 . S
H1614 C1630 0.931 . S
C1615 H1603 0.929 . S
C1615 C1609 1.390 . S
C1615 C1612 1.386 . S
C1616 C1611 1.490 . S
C1616 C1618 1.395 . S
C1616 C1619 1.403 . S
H1617 C1623 0.930 . S
C1618 H1604 0.930 . S
C1618 C1616 1.395 . S
C1618 C1621 1.403 . S
C1619 C1616 1.403 . S
C1619 C1620 1.524 . S
C1619 C1623 1.400 . S
C1620 H1605 0.960 . S
C1620 H1606 0.960 . S
C1620 H1607 0.960 . S
C1620 C1619 1.524 . S
C1621 C1618 1.403 . S
C1621 C1622 1.392 . S
C1621 C1625 1.495 . S
C1622 C1621 1.392 . S
C1622 C1623 1.385 . S
C1622 C1624 1.478 . S
C1623 H1617 0.930 . S
C1623 C1619 1.400 . S
C1623 C1622 1.385 . S
C1624 C1622 1.478 . S
C1624 C1626 1.381 . S
C1624 C1630 1.383 . S
C1625 C1621 1.495 . S
C1625 H1631 0.959 . S
C1625 H1632 0.961 . S
C1625 H1633 0.960 . S
C1626 C1624 1.381 . S
C1626 C1627 1.394 . S
C1626 H1634 0.930 . S
C1627 C1626 1.394 . S
C1627 C1628 1.383 . S
C1627 H1635 0.929 . S
C1628 C1627 1.383 . S
C1628 C1629 1.377 . S
C1629 H1613 0.930 . S
C1629 C1628 1.377 . S
C1629 C1630 1.379 . S
C1630 H1614 0.931 . S
C1630 C1624 1.383 . S
C1630 C1629 1.379 . S
H1631 C1625 0.959 . S
H1632 C1625 0.961 . S
H1633 C1625 0.960 . S
H1634 C1626 0.930 . S
H1635 C1627 0.929 . S
H1636 C1644 0.929 . S
H1637 C1646 0.930 . S
H1638 C1648 0.930 . S
H1639 C1651 0.929 1_545 S
H1640 C1654 0.930 . S
H1641 C1656 0.960 . S
H1642 C1656 0.960 . S
H1643 C1656 0.960 . S
C1644 H1636 0.929 . S
C1644 C1645 1.377 . S
C1644 C1646 1.384 . S
C1645 C1644 1.377 . S
C1645 C1651 1.390 . S
C1646 H1637 0.930 . S
C1646 C1644 1.384 . S
C1646 C1647 1.372 . S
C1647 C1646 1.372 . S
C1647 C1648 1.400 1_565 S
C1647 C1652 1.490 . S
C1648 H1638 0.930 . S
C1648 C1647 1.400 1_545 S
C1648 C1651 1.386 1_545 S
H1649 C1665 0.930 . S
H1650 C1666 0.931 . S
C1651 H1639 0.929 1_565 S
C1651 C1645 1.390 . S
C1651 C1648 1.386 1_565 S
C1652 C1647 1.490 . S
C1652 C1654 1.395 1_455 S
C1652 C1655 1.403 1_565 S
H1653 C1659 0.930 . S
C1654 H1640 0.930 . S
C1654 C1652 1.395 1_655 S
C1654 C1657 1.403 . S
C1655 C1652 1.403 1_545 S
C1655 C1656 1.524 . S
C1655 C1659 1.387 1_455 S
C1656 H1641 0.960 . S
C1656 H1642 0.960 . S
C1656 H1643 0.960 . S
C1656 C1655 1.524 . S
C1657 C1654 1.403 . S
C1657 C1658 1.392 1_565 S
C1657 C1661 1.495 . S
C1658 C1657 1.392 1_545 S
C1658 C1659 1.398 . S
C1658 C1660 1.478 . S
C1659 H1653 0.930 . S
C1659 C1655 1.387 1_655 S
C1659 C1658 1.398 . S
C1660 C1658 1.478 . S
C1660 C1662 1.381 1_545 S
C1660 C1666 1.383 . S
C1661 C1657 1.495 . S
C1661 H1667 0.959 . S
C1661 H1668 0.961 . S
C1661 H1669 0.960 . S
C1662 C1660 1.381 1_565 S
C1662 C1663 1.394 1_565 S
C1662 H1670 0.930 . S
C1663 C1662 1.394 1_545 S
C1663 C1664 1.383 . S
C1663 H1671 0.929 1_545 S
C1664 C1663 1.383 . S
C1664 C1665 1.377 . S
C1665 H1649 0.930 . S
C1665 C1664 1.377 . S
C1665 C1666 1.379 . S
C1666 H1650 0.931 . S
C1666 C1660 1.383 . S
C1666 C1665 1.379 . S
H1667 C1661 0.959 . S
H1668 C1661 0.961 . S
H1669 C1661 0.960 . S
H1670 C1662 0.930 . S
H1671 C1663 0.929 1_565 S
H1672 C1680 0.929 . S
H1673 C1682 0.930 . S
H1674 C1684 0.930 . S
H1675 C1687 0.929 . S
H1676 C1690 0.930 . S
H1677 C1692 0.960 . S
H1678 C1692 0.960 . S
H1679 C1692 0.960 . S
C1680 H1672 0.929 . S
C1680 C1681 1.377 . S
C1680 C1682 1.384 . S
C1681 C1680 1.377 . S
C1681 C1687 1.390 . S
C1682 H1673 0.930 . S
C1682 C1680 1.384 . S
C1682 C1683 1.372 . S
C1683 C1682 1.372 . S
C1683 C1684 1.400 . S
C1683 C1688 1.490 . S
C1684 H1674 0.930 . S
C1684 C1683 1.400 . S
C1684 C1687 1.386 . S
H1685 C1701 0.930 . S
H1686 C1702 0.931 . S
C1687 H1675 0.929 . S
C1687 C1681 1.390 . S
C1687 C1684 1.386 . S
C1688 C1683 1.490 . S
C1688 C1690 1.395 . S
C1688 C1691 1.403 . S
H1689 C1695 0.930 . S
C1690 H1676 0.930 . S
C1690 C1688 1.395 . S
C1690 C1693 1.403 . S
C1691 C1688 1.403 . S
C1691 C1692 1.524 . S
C1691 C1695 1.400 . S
C1692 H1677 0.960 . S
C1692 H1678 0.960 . S
C1692 H1679 0.960 . S
C1692 C1691 1.524 . S
C1693 C1690 1.403 . S
C1693 C1694 1.392 . S
C1693 C1697 1.495 . S
C1694 C1693 1.392 . S
C1694 C1695 1.385 . S
C1694 C1696 1.478 . S
C1695 H1689 0.930 . S
C1695 C1691 1.400 . S
C1695 C1694 1.385 . S
C1696 C1694 1.478 . S
C1696 C1698 1.381 . S
C1696 C1702 1.383 . S
C1697 C1693 1.495 . S
C1697 H1703 0.959 . S
C1697 H1704 0.961 . S
C1697 H1705 0.960 . S
C1698 C1696 1.381 . S
C1698 C1699 1.394 . S
C1698 H1706 0.930 . S
C1699 C1698 1.394 . S
C1699 C1700 1.383 . S
C1699 H1707 0.929 . S
C1700 C1699 1.383 . S
C1700 C1701 1.377 . S
C1701 H1685 0.930 . S
C1701 C1700 1.377 . S
C1701 C1702 1.379 . S
C1702 H1686 0.931 . S
C1702 C1696 1.383 . S
C1702 C1701 1.379 . S
H1703 C1697 0.959 . S
H1704 C1697 0.961 . S
H1705 C1697 0.960 . S
H1706 C1698 0.930 . S
H1707 C1699 0.929 . S
H1708 C1716 0.929 . S
H1709 C1718 0.930 . S
H1710 C1720 0.930 . S
H1711 C1723 0.929 . S
H1712 C1726 0.930 . S
H1713 C1728 0.960 . S
H1714 C1728 0.960 . S
H1715 C1728 0.960 1_554 S
C1716 H1708 0.929 . S
C1716 C1717 1.377 . S
C1716 C1718 1.384 . S
C1717 C1716 1.377 . S
C1717 C1723 1.390 1_545 S
C1718 H1709 0.930 . S
C1718 C1716 1.384 . S
C1718 C1719 1.372 . S
C1719 C1718 1.372 . S
C1719 C1720 1.400 1_545 S
C1719 C1724 1.490 . S
C1720 H1710 0.930 . S
C1720 C1719 1.400 1_565 S
C1720 C1723 1.386 . S
H1721 C1737 0.930 . S
H1722 C1738 0.931 . S
C1723 H1711 0.929 . S
C1723 C1717 1.390 1_565 S
C1723 C1720 1.386 . S
C1724 C1719 1.490 . S
C1724 C1726 1.395 . S
C1724 C1727 1.403 1_544 S
H1725 C1731 0.930 . S
C1726 H1712 0.930 . S
C1726 C1724 1.395 . S
C1726 C1729 1.403 . S
C1727 C1724 1.403 1_566 S
C1727 C1728 1.524 . S
C1727 C1731 1.400 . S
C1728 H1713 0.960 . S
C1728 H1714 0.960 . S
C1728 H1715 0.960 1_556 S
C1728 C1727 1.524 . S
C1729 C1726 1.403 . S
C1729 C1730 1.392 1_544 S
C1729 C1733 1.495 . S
C1730 C1729 1.392 1_566 S
C1730 C1731 1.385 . S
C1730 C1732 1.478 . S
C1731 H1725 0.930 . S
C1731 C1727 1.400 . S
C1731 C1730 1.385 . S
C1732 C1730 1.478 . S
C1732 C1734 1.381 1_565 S
C1732 C1738 1.383 . S
C1733 C1729 1.495 . S
C1733 H1739 0.959 . S
C1733 H1740 0.961 . S
C1733 H1741 0.960 1_554 S
C1734 C1732 1.381 1_545 S
C1734 C1735 1.394 . S
C1734 H1742 0.930 . S
C1735 C1734 1.394 . S
C1735 C1736 1.383 1_545 S
C1735 H1743 0.929 . S
C1736 C1735 1.383 1_565 S
C1736 C1737 1.377 . S
C1737 H1721 0.930 . S
C1737 C1736 1.377 . S
C1737 C1738 1.379 . S
C1738 H1722 0.931 . S
C1738 C1732 1.383 . S
C1738 C1737 1.379 . S
H1739 C1733 0.959 . S
H1740 C1733 0.961 . S
H1741 C1733 0.960 1_556 S
H1742 C1734 0.930 . S
H1743 C1735 0.929 . S
H1744 C1752 0.929 . S
H1745 C1754 0.930 . S
H1746 C1756 0.930 . S
H1747 C1759 0.929 . S
H1748 C1762 0.930 . S
H1749 C1764 0.960 . S
H1750 C1764 0.960 . S
H1751 C1764 0.960 . S
C1752 H1744 0.929 . S
C1752 C1753 1.377 . S
C1752 C1754 1.384 . S
C1753 C1752 1.377 . S
C1753 C1759 1.390 . S
C1754 H1745 0.930 . S
C1754 C1752 1.384 . S
C1754 C1755 1.372 . S
C1755 C1754 1.372 . S
C1755 C1756 1.400 . S
C1755 C1760 1.490 . S
C1756 H1746 0.930 . S
C1756 C1755 1.400 . S
C1756 C1759 1.386 . S
H1757 C1773 0.930 . S
H1758 C1774 0.931 . S
C1759 H1747 0.929 . S
C1759 C1753 1.390 . S
C1759 C1756 1.386 . S
C1760 C1755 1.490 . S
C1760 C1762 1.395 . S
C1760 C1763 1.403 . S
H1761 C1767 0.930 . S
C1762 H1748 0.930 . S
C1762 C1760 1.395 . S
C1762 C1765 1.403 . S
C1763 C1760 1.403 . S
C1763 C1764 1.524 . S
C1763 C1767 1.400 . S
C1764 H1749 0.960 . S
C1764 H1750 0.960 . S
C1764 H1751 0.960 . S
C1764 C1763 1.524 . S
C1765 C1762 1.403 . S
C1765 C1766 1.392 . S
C1765 C1769 1.495 . S
C1766 C1765 1.392 . S
C1766 C1767 1.385 . S
C1766 C1768 1.478 . S
C1767 H1761 0.930 . S
C1767 C1763 1.400 . S
C1767 C1766 1.385 . S
C1768 C1766 1.478 . S
C1768 C1770 1.381 . S
C1768 C1774 1.383 . S
C1769 C1765 1.495 . S
C1769 H1775 0.959 . S
C1769 H1776 0.961 . S
C1769 H1777 0.960 . S
C1770 C1768 1.381 . S
C1770 C1771 1.394 . S
C1770 H1778 0.930 . S
C1771 C1770 1.394 . S
C1771 C1772 1.383 . S
C1771 H1779 0.929 . S
C1772 C1771 1.383 . S
C1772 C1773 1.377 . S
C1773 H1757 0.930 . S
C1773 C1772 1.377 . S
C1773 C1774 1.379 . S
C1774 H1758 0.931 . S
C1774 C1768 1.383 . S
C1774 C1773 1.379 . S
H1775 C1769 0.959 . S
H1776 C1769 0.961 . S
H1777 C1769 0.960 . S
H1778 C1770 0.930 . S
H1779 C1771 0.929 . S
H1780 C1788 0.929 . S
H1781 C1790 0.924 1_545 S
H1782 C1792 0.930 . S
H1783 C1795 0.929 . S
H1784 C1798 0.930 . S
H1785 C1800 0.960 . S
H1786 C1800 0.960 . S
H1787 C1800 0.960 . S
C1788 H1780 0.929 . S
C1788 C1789 1.377 . S
C1788 C1790 1.384 . S
C1789 C1788 1.377 . S
C1789 C1795 1.390 . S
C1790 H1781 0.924 1_565 S
C1790 C1788 1.384 . S
C1790 C1791 1.372 . S
C1791 C1790 1.372 . S
C1791 C1792 1.400 . S
C1791 C1796 1.490 . S
C1792 H1782 0.930 . S
C1792 C1791 1.400 . S
C1792 C1795 1.386 . S
H1793 C1809 0.930 . S
H1794 C1810 0.931 1_565 S
C1795 H1783 0.929 . S
C1795 C1789 1.390 . S
C1795 C1792 1.386 . S
C1796 C1791 1.490 . S
C1796 C1798 1.395 . S
C1796 C1799 1.403 1_565 S
H1797 C1803 0.930 . S
C1798 H1784 0.930 . S
C1798 C1796 1.395 . S
C1798 C1801 1.403 . S
C1799 C1796 1.403 1_545 S
C1799 C1800 1.524 . S
C1799 C1803 1.400 . S
C1800 H1785 0.960 . S
C1800 H1786 0.960 . S
C1800 H1787 0.960 . S
C1800 C1799 1.524 . S
C1801 C1798 1.403 . S
C1801 C1802 1.392 1_565 S
C1801 C1805 1.495 . S
C1802 C1801 1.392 1_545 S
C1802 C1803 1.385 . S
C1802 C1804 1.478 . S
C1803 H1797 0.930 . S
C1803 C1799 1.400 . S
C1803 C1802 1.385 . S
C1804 C1802 1.478 . S
C1804 C1806 1.381 . S
C1804 C1810 1.383 . S
C1805 C1801 1.495 . S
C1805 H1811 0.959 . S
C1805 H1812 0.961 . S
C1805 H1813 0.960 . S
C1806 C1804 1.381 . S
C1806 C1807 1.394 . S
C1806 H1814 0.930 . S
C1807 C1806 1.394 . S
C1807 C1808 1.383 . S
C1807 H1815 0.929 . S
C1808 C1807 1.383 . S
C1808 C1809 1.377 . S
C1809 H1793 0.930 . S
C1809 C1808 1.377 . S
C1809 C1810 1.379 . S
C1810 H1794 0.931 1_545 S
C1810 C1804 1.383 . S
C1810 C1809 1.379 . S
H1811 C1805 0.959 . S
H1812 C1805 0.961 . S
H1813 C1805 0.960 . S
H1814 C1806 0.930 . S
H1815 C1807 0.929 . S
H1816 C1824 0.929 . S
H1817 C1826 0.930 . S
H1818 C1828 0.930 . S
H1819 C1831 0.929 . S
H1820 C1834 0.930 . S
H1821 C1836 0.960 . S
H1822 C1836 0.960 . S
H1823 C1836 0.960 . S
C1824 H1816 0.929 . S
C1824 C1825 1.377 . S
C1824 C1826 1.384 . S
C1825 C1824 1.377 . S
C1825 C1831 1.390 . S
C1826 H1817 0.930 . S
C1826 C1824 1.384 . S
C1826 C1827 1.372 . S
C1827 C1826 1.372 . S
C1827 C1828 1.400 . S
C1827 C1832 1.490 . S
C1828 H1818 0.930 . S
C1828 C1827 1.400 . S
C1828 C1831 1.386 . S
H1829 C1845 0.930 . S
H1830 C1846 0.931 . S
C1831 H1819 0.929 . S
C1831 C1825 1.390 . S
C1831 C1828 1.386 . S
C1832 C1827 1.490 . S
C1832 C1834 1.395 . S
C1832 C1835 1.403 . S
H1833 C1839 0.930 . S
C1834 H1820 0.930 . S
C1834 C1832 1.395 . S
C1834 C1837 1.403 . S
C1835 C1832 1.403 . S
C1835 C1836 1.524 . S
C1835 C1839 1.400 . S
C1836 H1821 0.960 . S
C1836 H1822 0.960 . S
C1836 H1823 0.960 . S
C1836 C1835 1.524 . S
C1837 C1834 1.403 . S
C1837 C1838 1.392 . S
C1837 C1841 1.495 . S
C1838 C1837 1.392 . S
C1838 C1839 1.385 . S
C1838 C1840 1.478 . S
C1839 H1833 0.930 . S
C1839 C1835 1.400 . S
C1839 C1838 1.385 . S
C1840 C1838 1.478 . S
C1840 C1842 1.381 . S
C1840 C1846 1.383 . S
C1841 C1837 1.495 . S
C1841 H1847 0.959 . S
C1841 H1848 0.961 . S
C1841 H1849 0.960 . S
C1842 C1840 1.381 . S
C1842 C1843 1.394 . S
C1842 H1850 0.930 . S
C1843 C1842 1.394 . S
C1843 C1844 1.383 . S
C1843 H1851 0.929 . S
C1844 C1843 1.383 . S
C1844 C1845 1.377 . S
C1845 H1829 0.930 . S
C1845 C1844 1.377 . S
C1845 C1846 1.379 . S
C1846 H1830 0.931 . S
C1846 C1840 1.383 . S
C1846 C1845 1.379 . S
H1847 C1841 0.959 . S
H1848 C1841 0.961 . S
H1849 C1841 0.960 . S
H1850 C1842 0.930 . S
H1851 C1843 0.929 . S
H1852 C1860 0.929 . S
H1853 C1862 0.930 . S
H1854 C1864 0.930 . S
H1855 C1867 0.923 1_565 S
H1856 C1870 0.930 . S
H1857 C1872 0.960 1_554 S
H1858 C1872 0.960 1_554 S
H1859 C1872 0.960 . S
C1860 H1852 0.929 . S
C1860 C1861 1.377 . S
C1860 C1862 1.384 . S
C1861 C1860 1.377 . S
C1861 C1867 1.397 . S
C1862 H1853 0.930 . S
C1862 C1860 1.384 . S
C1862 C1863 1.372 . S
C1863 C1862 1.372 . S
C1863 C1864 1.400 1_545 S
C1863 C1868 1.490 . S
C1864 H1854 0.930 . S
C1864 C1863 1.400 1_565 S
C1864 C1867 1.384 1_565 S
H1865 C1881 0.930 . S
H1866 C1882 0.931 . S
C1867 H1855 0.923 1_545 S
C1867 C1861 1.397 . S
C1867 C1864 1.384 1_545 S
C1868 C1863 1.490 . S
C1868 C1870 1.395 1_455 S
C1868 C1871 1.403 1_545 S
H1869 C1875 0.930 . S
C1870 H1856 0.930 . S
C1870 C1868 1.395 1_655 S
C1870 C1873 1.403 1_556 S
C1871 C1868 1.403 1_565 S
C1871 C1872 1.524 . S
C1871 C1875 1.400 1_556 S
C1872 H1857 0.960 1_556 S
C1872 H1858 0.960 1_556 S
C1872 H1859 0.960 . S
C1872 C1871 1.524 . S
C1873 C1870 1.403 1_554 S
C1873 C1874 1.392 1_545 S
C1873 C1877 1.495 . S
C1874 C1873 1.392 1_565 S
C1874 C1875 1.385 1_655 S
C1874 C1876 1.478 . S
C1875 H1869 0.930 . S
C1875 C1871 1.400 1_554 S
C1875 C1874 1.385 1_455 S
C1876 C1874 1.478 . S
C1876 C1878 1.381 1_565 S
C1876 C1882 1.383 . S
C1877 C1873 1.495 . S
C1877 H1883 0.959 1_554 S
C1877 H1884 0.974 . S
C1877 H1885 0.960 . S
C1878 C1876 1.381 1_545 S
C1878 C1879 1.401 . S
C1878 H1886 0.930 . S
C1879 C1878 1.401 . S
C1879 C1880 1.362 1_545 S
C1879 H1887 0.944 . S
C1880 C1879 1.362 1_565 S
C1880 C1881 1.377 . S
C1881 H1865 0.930 . S
C1881 C1880 1.377 . S
C1881 C1882 1.379 . S
C1882 H1866 0.931 . S
C1882 C1876 1.383 . S
C1882 C1881 1.379 . S
H1883 C1877 0.959 1_556 S
H1884 C1877 0.974 . S
H1885 C1877 0.960 . S
H1886 C1878 0.930 . S
H1887 C1879 0.944 . S
H1888 C1896 0.929 . S
H1889 C1898 0.930 . S
H1890 C1900 0.930 . S
H1891 C1903 0.929 . S
H1892 C1906 0.930 . S
H1893 C1908 0.960 . S
H1894 C1908 0.960 . S
H1895 C1908 0.960 . S
C1896 H1888 0.929 . S
C1896 C1897 1.377 . S
C1896 C1898 1.384 . S
C1897 C1896 1.377 . S
C1897 C1903 1.390 . S
C1898 H1889 0.930 . S
C1898 C1896 1.384 . S
C1898 C1899 1.372 . S
C1899 C1898 1.372 . S
C1899 C1900 1.400 . S
C1899 C1904 1.490 . S
C1900 H1890 0.930 . S
C1900 C1899 1.400 . S
C1900 C1903 1.386 . S
H1901 C1917 0.930 . S
H1902 C1918 0.931 . S
C1903 H1891 0.929 . S
C1903 C1897 1.390 . S
C1903 C1900 1.386 . S
C1904 C1899 1.490 . S
C1904 C1906 1.395 . S
C1904 C1907 1.403 . S
H1905 C1911 0.930 . S
C1906 H1892 0.930 . S
C1906 C1904 1.395 . S
C1906 C1909 1.403 . S
C1907 C1904 1.403 . S
C1907 C1908 1.524 . S
C1907 C1911 1.400 . S
C1908 H1893 0.960 . S
C1908 H1894 0.960 . S
C1908 H1895 0.960 . S
C1908 C1907 1.524 . S
C1909 C1906 1.403 . S
C1909 C1910 1.392 . S
C1909 C1913 1.495 . S
C1910 C1909 1.392 . S
C1910 C1911 1.385 . S
C1910 C1912 1.478 . S
C1911 H1905 0.930 . S
C1911 C1907 1.400 . S
C1911 C1910 1.385 . S
C1912 C1910 1.478 . S
C1912 C1914 1.381 . S
C1912 C1918 1.383 . S
C1913 C1909 1.495 . S
C1913 H1919 0.959 . S
C1913 H1920 0.961 . S
C1913 H1921 0.960 . S
C1914 C1912 1.381 . S
C1914 C1915 1.394 . S
C1914 H1922 0.930 . S
C1915 C1914 1.394 . S
C1915 C1916 1.383 . S
C1915 H1923 0.929 . S
C1916 C1915 1.383 . S
C1916 C1917 1.377 . S
C1917 H1901 0.930 . S
C1917 C1916 1.377 . S
C1917 C1918 1.379 . S
C1918 H1902 0.931 . S
C1918 C1912 1.383 . S
C1918 C1917 1.379 . S
H1919 C1913 0.959 . S
H1920 C1913 0.961 . S
H1921 C1913 0.960 . S
H1922 C1914 0.930 . S
H1923 C1915 0.929 . S
H1924 C1932 0.929 . S
H1925 C1934 0.930 . S
H1926 C1936 0.930 . S
H1927 C1939 0.929 . S
H1928 C1942 0.930 . S
H1929 C1944 0.960 . S
H1930 C1944 0.960 . S
H1931 C1944 0.960 . S
C1932 H1924 0.929 . S
C1932 C1933 1.377 . S
C1932 C1934 1.384 . S
C1933 C1932 1.377 . S
C1933 C1939 1.390 . S
C1934 H1925 0.930 . S
C1934 C1932 1.384 . S
C1934 C1935 1.372 . S
C1935 C1934 1.372 . S
C1935 C1936 1.400 . S
C1935 C1940 1.490 . S
C1936 H1926 0.930 . S
C1936 C1935 1.400 . S
C1936 C1939 1.386 . S
H1937 C1953 0.930 . S
H1938 C1954 0.931 . S
C1939 H1927 0.929 . S
C1939 C1933 1.390 . S
C1939 C1936 1.386 . S
C1940 C1935 1.490 . S
C1940 C1942 1.395 . S
C1940 C1943 1.403 . S
H1941 C1947 0.930 . S
C1942 H1928 0.930 . S
C1942 C1940 1.395 . S
C1942 C1945 1.403 . S
C1943 C1940 1.403 . S
C1943 C1944 1.524 . S
C1943 C1947 1.400 . S
C1944 H1929 0.960 . S
C1944 H1930 0.960 . S
C1944 H1931 0.960 . S
C1944 C1943 1.524 . S
C1945 C1942 1.403 . S
C1945 C1946 1.392 . S
C1945 C1949 1.495 . S
C1946 C1945 1.392 . S
C1946 C1947 1.385 . S
C1946 C1948 1.478 . S
C1947 H1941 0.930 . S
C1947 C1943 1.400 . S
C1947 C1946 1.385 . S
C1948 C1946 1.478 . S
C1948 C1950 1.381 . S
C1948 C1954 1.383 . S
C1949 C1945 1.495 . S
C1949 H1955 0.959 . S
C1949 H1956 0.961 . S
C1949 H1957 0.960 . S
C1950 C1948 1.381 . S
C1950 C1951 1.394 . S
C1950 H1958 0.930 . S
C1951 C1950 1.394 . S
C1951 C1952 1.383 . S
C1951 H1959 0.929 . S
C1952 C1951 1.383 . S
C1952 C1953 1.377 . S
C1953 H1937 0.930 . S
C1953 C1952 1.377 . S
C1953 C1954 1.379 . S
C1954 H1938 0.931 . S
C1954 C1948 1.383 . S
C1954 C1953 1.379 . S
H1955 C1949 0.959 . S
H1956 C1949 0.961 . S
H1957 C1949 0.960 . S
H1958 C1950 0.930 . S
H1959 C1951 0.929 . S
H1960 C1968 0.929 . S
H1961 C1970 0.930 . S
H1962 C1972 0.930 . S
H1963 C1975 0.929 . S
H1964 C1978 0.930 . S
H1965 C1980 0.960 . S
H1966 C1980 0.960 . S
H1967 C1980 0.960 . S
C1968 H1960 0.929 . S
C1968 C1969 1.377 . S
C1968 C1970 1.384 . S
C1969 C1968 1.377 . S
C1969 C1975 1.390 . S
C1970 H1961 0.930 . S
C1970 C1968 1.384 . S
C1970 C1971 1.372 . S
C1971 C1970 1.372 . S
C1971 C1972 1.400 . S
C1971 C1976 1.490 . S
C1972 H1962 0.930 . S
C1972 C1971 1.400 . S
C1972 C1975 1.386 . S
H1973 C1989 0.930 . S
H1974 C1990 0.931 . S
C1975 H1963 0.929 . S
C1975 C1969 1.390 . S
C1975 C1972 1.386 . S
C1976 C1971 1.490 . S
C1976 C1978 1.395 . S
C1976 C1979 1.403 . S
H1977 C1983 0.930 . S
C1978 H1964 0.930 . S
C1978 C1976 1.395 . S
C1978 C1981 1.403 . S
C1979 C1976 1.403 . S
C1979 C1980 1.524 . S
C1979 C1983 1.400 . S
C1980 H1965 0.960 . S
C1980 H1966 0.960 . S
C1980 H1967 0.960 . S
C1980 C1979 1.524 . S
C1981 C1978 1.403 . S
C1981 C1982 1.392 . S
C1981 C1985 1.495 . S
C1982 C1981 1.392 . S
C1982 C1983 1.385 . S
C1982 C1984 1.478 . S
C1983 H1977 0.930 . S
C1983 C1979 1.400 . S
C1983 C1982 1.385 . S
C1984 C1982 1.478 . S
C1984 C1986 1.381 . S
C1984 C1990 1.383 . S
C1985 C1981 1.495 . S
C1985 H1991 0.959 . S
C1985 H1992 0.961 . S
C1985 H1993 0.960 . S
C1986 C1984 1.381 . S
C1986 C1987 1.394 . S
C1986 H1994 0.930 . S
C1987 C1986 1.394 . S
C1987 C1988 1.383 . S
C1987 H1995 0.929 . S
C1988 C1987 1.383 . S
C1988 C1989 1.377 . S
C1989 H1973 0.930 . S
C1989 C1988 1.377 . S
C1989 C1990 1.379 . S
C1990 H1974 0.931 . S
C1990 C1984 1.383 . S
C1990 C1989 1.379 . S
H1991 C1985 0.959 . S
H1992 C1985 0.961 . S
H1993 C1985 0.960 . S
H1994 C1986 0.930 . S
H1995 C1987 0.929 . S
H1996 C2004 0.929 . S
H1997 C2006 0.930 . S
H1998 C2008 0.930 . S
H1999 C2011 0.929 . S
H2000 C2014 0.930 . S
H2001 C2016 0.960 . S
H2002 C2016 0.960 . S
H2003 C2016 0.960 . S
C2004 H1996 0.929 . S
C2004 C2005 1.377 . S
C2004 C2006 1.384 . S
C2005 C2004 1.377 . S
C2005 C2011 1.390 . S
C2006 H1997 0.930 . S
C2006 C2004 1.384 . S
C2006 C2007 1.372 . S
C2007 C2006 1.372 . S
C2007 C2008 1.400 . S
C2007 C2012 1.490 . S
C2008 H1998 0.930 . S
C2008 C2007 1.400 . S
C2008 C2011 1.386 . S
H2009 C2025 0.930 . S
H2010 C2026 0.931 . S
C2011 H1999 0.929 . S
C2011 C2005 1.390 . S
C2011 C2008 1.386 . S
C2012 C2007 1.490 . S
C2012 C2014 1.395 . S
C2012 C2015 1.403 . S
H2013 C2019 0.930 . S
C2014 H2000 0.930 . S
C2014 C2012 1.395 . S
C2014 C2017 1.403 . S
C2015 C2012 1.403 . S
C2015 C2016 1.524 . S
C2015 C2019 1.400 . S
C2016 H2001 0.960 . S
C2016 H2002 0.960 . S
C2016 H2003 0.960 . S
C2016 C2015 1.524 . S
C2017 C2014 1.403 . S
C2017 C2018 1.392 . S
C2017 C2021 1.495 . S
C2018 C2017 1.392 . S
C2018 C2019 1.385 . S
C2018 C2020 1.478 . S
C2019 H2013 0.930 . S
C2019 C2015 1.400 . S
C2019 C2018 1.385 . S
C2020 C2018 1.478 . S
C2020 C2022 1.381 . S
C2020 C2026 1.383 . S
C2021 C2017 1.495 . S
C2021 H2027 0.959 . S
C2021 H2028 0.961 . S
C2021 H2029 0.960 . S
C2022 C2020 1.381 . S
C2022 C2023 1.394 . S
C2022 H2030 0.930 . S
C2023 C2022 1.394 . S
C2023 C2024 1.383 . S
C2023 H2031 0.929 . S
C2024 C2023 1.383 . S
C2024 C2025 1.377 . S
C2025 H2009 0.930 . S
C2025 C2024 1.377 . S
C2025 C2026 1.379 . S
C2026 H2010 0.931 . S
C2026 C2020 1.383 . S
C2026 C2025 1.379 . S
H2027 C2021 0.959 . S
H2028 C2021 0.961 . S
H2029 C2021 0.960 . S
H2030 C2022 0.930 . S
H2031 C2023 0.929 . S
H2032 C2040 0.929 . S
H2033 C2042 0.930 . S
H2034 C2044 0.930 . S
H2035 C2047 0.929 . S
H2036 C2050 0.930 . S
H2037 C2052 0.960 . S
H2038 C2052 0.960 . S
H2039 C2052 0.960 . S
C2040 H2032 0.929 . S
C2040 C2041 1.377 . S
C2040 C2042 1.384 . S
C2041 C2040 1.377 . S
C2041 C2047 1.390 . S
C2042 H2033 0.930 . S
C2042 C2040 1.384 . S
C2042 C2043 1.372 . S
C2043 C2042 1.372 . S
C2043 C2044 1.400 . S
C2043 C2048 1.490 . S
C2044 H2034 0.930 . S
C2044 C2043 1.400 . S
C2044 C2047 1.386 . S
H2045 C2061 0.930 . S
H2046 C2062 0.931 . S
C2047 H2035 0.929 . S
C2047 C2041 1.390 . S
C2047 C2044 1.386 . S
C2048 C2043 1.490 . S
C2048 C2050 1.395 . S
C2048 C2051 1.403 1_554 S
H2049 C2055 0.930 . S
C2050 H2036 0.930 . S
C2050 C2048 1.395 . S
C2050 C2053 1.403 . S
C2051 C2048 1.403 1_556 S
C2051 C2052 1.524 . S
C2051 C2055 1.400 . S
C2052 H2037 0.960 . S
C2052 H2038 0.960 . S
C2052 H2039 0.960 . S
C2052 C2051 1.524 . S
C2053 C2050 1.403 . S
C2053 C2054 1.392 1_554 S
C2053 C2057 1.495 . S
C2054 C2053 1.392 1_556 S
C2054 C2055 1.385 . S
C2054 C2056 1.478 . S
C2055 H2049 0.930 . S
C2055 C2051 1.400 . S
C2055 C2054 1.385 . S
C2056 C2054 1.478 . S
C2056 C2058 1.381 . S
C2056 C2062 1.383 . S
C2057 C2053 1.495 . S
C2057 H2063 0.959 . S
C2057 H2064 0.961 . S
C2057 H2065 0.960 . S
C2058 C2056 1.381 . S
C2058 C2059 1.394 . S
C2058 H2066 0.930 . S
C2059 C2058 1.394 . S
C2059 C2060 1.383 . S
C2059 H2067 0.929 . S
C2060 C2059 1.383 . S
C2060 C2061 1.377 . S
C2061 H2045 0.930 . S
C2061 C2060 1.377 . S
C2061 C2062 1.379 . S
C2062 H2046 0.931 . S
C2062 C2056 1.383 . S
C2062 C2061 1.379 . S
H2063 C2057 0.959 . S
H2064 C2057 0.961 . S
H2065 C2057 0.960 . S
H2066 C2058 0.930 . S
H2067 C2059 0.929 . S
H2068 C2076 0.929 . S
H2069 C2078 0.930 . S
H2070 C2080 0.930 . S
H2071 C2083 0.929 . S
H2072 C2086 0.930 . S
H2073 C2088 0.960 . S
H2074 C2088 0.960 . S
H2075 C2088 0.960 . S
C2076 H2068 0.929 . S
C2076 C2077 1.377 . S
C2076 C2078 1.384 . S
C2077 C2076 1.377 . S
C2077 C2083 1.390 . S
C2078 H2069 0.930 . S
C2078 C2076 1.384 . S
C2078 C2079 1.372 . S
C2079 C2078 1.372 . S
C2079 C2080 1.400 . S
C2079 C2084 1.490 . S
C2080 H2070 0.930 . S
C2080 C2079 1.400 . S
C2080 C2083 1.386 . S
H2081 C2097 0.930 . S
H2082 C2098 0.931 . S
C2083 H2071 0.929 . S
C2083 C2077 1.390 . S
C2083 C2080 1.386 . S
C2084 C2079 1.490 . S
C2084 C2086 1.395 . S
C2084 C2087 1.403 1_455 S
H2085 C2091 0.930 . S
C2086 H2072 0.930 . S
C2086 C2084 1.395 . S
C2086 C2089 1.403 . S
C2087 C2084 1.403 1_655 S
C2087 C2088 1.524 . S
C2087 C2091 1.400 . S
C2088 H2073 0.960 . S
C2088 H2074 0.960 . S
C2088 H2075 0.960 . S
C2088 C2087 1.524 . S
C2089 C2086 1.403 . S
C2089 C2090 1.392 1_455 S
C2089 C2093 1.495 . S
C2090 C2089 1.392 1_655 S
C2090 C2091 1.385 . S
C2090 C2092 1.478 . S
C2091 H2085 0.930 . S
C2091 C2087 1.400 . S
C2091 C2090 1.385 . S
C2092 C2090 1.478 . S
C2092 C2094 1.381 . S
C2092 C2098 1.383 . S
C2093 C2089 1.495 . S
C2093 H2099 0.959 . S
C2093 H2100 0.961 . S
C2093 H2101 0.960 . S
C2094 C2092 1.381 . S
C2094 C2095 1.394 . S
C2094 H2102 0.930 . S
C2095 C2094 1.394 . S
C2095 C2096 1.383 . S
C2095 H2103 0.929 . S
C2096 C2095 1.383 . S
C2096 C2097 1.377 . S
C2097 H2081 0.930 . S
C2097 C2096 1.377 . S
C2097 C2098 1.379 . S
C2098 H2082 0.931 . S
C2098 C2092 1.383 . S
C2098 C2097 1.379 . S
H2099 C2093 0.959 . S
H2100 C2093 0.961 . S
H2101 C2093 0.960 . S
H2102 C2094 0.930 . S
H2103 C2095 0.929 . S
H2104 C2112 0.929 . S
H2105 C2114 0.930 . S
H2106 C2116 0.930 . S
H2107 C2119 0.929 . S
H2108 C2122 0.927 1_554 S
H2109 C2124 0.960 . S
H2110 C2124 0.960 . S
H2111 C2124 0.960 . S
C2112 H2104 0.929 . S
C2112 C2113 1.377 . S
C2112 C2114 1.384 . S
C2113 C2112 1.377 . S
C2113 C2119 1.390 . S
C2114 H2105 0.930 . S
C2114 C2112 1.384 . S
C2114 C2115 1.372 . S
C2115 C2114 1.372 . S
C2115 C2116 1.400 . S
C2115 C2120 1.490 . S
C2116 H2106 0.930 . S
C2116 C2115 1.400 . S
C2116 C2119 1.386 . S
H2117 C2133 0.930 . S
H2118 C2134 0.931 . S
C2119 H2107 0.929 . S
C2119 C2113 1.390 . S
C2119 C2116 1.386 . S
C2120 C2115 1.490 . S
C2120 C2122 1.395 1_554 S
C2120 C2123 1.403 1_455 S
H2121 C2127 0.930 . S
C2122 H2108 0.927 1_556 S
C2122 C2120 1.395 1_556 S
C2122 C2125 1.403 . S
C2123 C2120 1.403 1_655 S
C2123 C2124 1.524 . S
C2123 C2127 1.400 1_554 S
C2124 H2109 0.960 . S
C2124 H2110 0.960 . S
C2124 H2111 0.960 . S
C2124 C2123 1.524 . S
C2125 C2122 1.403 . S
C2125 C2126 1.392 1_455 S
C2125 C2129 1.495 . S
C2126 C2125 1.392 1_655 S
C2126 C2127 1.385 . S
C2126 C2128 1.478 . S
C2127 H2121 0.930 . S
C2127 C2123 1.400 1_556 S
C2127 C2126 1.385 . S
C2128 C2126 1.478 . S
C2128 C2130 1.381 . S
C2128 C2134 1.383 . S
C2129 C2125 1.495 . S
C2129 H2135 0.959 . S
C2129 H2136 0.961 . S
C2129 H2137 0.960 . S
C2130 C2128 1.381 . S
C2130 C2131 1.394 . S
C2130 H2138 0.930 . S
C2131 C2130 1.394 . S
C2131 C2132 1.383 . S
C2131 H2139 0.929 . S
C2132 C2131 1.383 . S
C2132 C2133 1.377 . S
C2133 H2117 0.930 . S
C2133 C2132 1.377 . S
C2133 C2134 1.379 . S
C2134 H2118 0.931 . S
C2134 C2128 1.383 . S
C2134 C2133 1.379 . S
H2135 C2129 0.959 . S
H2136 C2129 0.961 . S
H2137 C2129 0.960 . S
H2138 C2130 0.930 . S
H2139 C2131 0.929 . S
H2140 C2148 0.929 . S
H2141 C2150 0.930 . S
H2142 C2152 0.930 . S
H2143 C2155 0.929 . S
H2144 C2158 0.930 . S
H2145 C2160 0.960 . S
H2146 C2160 0.960 . S
H2147 C2160 0.960 . S
C2148 H2140 0.929 . S
C2148 C2149 1.377 . S
C2148 C2150 1.384 . S
C2149 C2148 1.377 . S
C2149 C2155 1.390 . S
C2150 H2141 0.930 . S
C2150 C2148 1.384 . S
C2150 C2151 1.372 . S
C2151 C2150 1.372 . S
C2151 C2152 1.400 . S
C2151 C2156 1.490 . S
C2152 H2142 0.930 . S
C2152 C2151 1.400 . S
C2152 C2155 1.386 . S
H2153 C2169 0.930 . S
H2154 C2170 0.931 . S
C2155 H2143 0.929 . S
C2155 C2149 1.390 . S
C2155 C2152 1.386 . S
C2156 C2151 1.490 . S
C2156 C2158 1.395 . S
C2156 C2159 1.403 . S
H2157 C2163 0.930 . S
C2158 H2144 0.930 . S
C2158 C2156 1.395 . S
C2158 C2161 1.403 . S
C2159 C2156 1.403 . S
C2159 C2160 1.524 . S
C2159 C2163 1.400 . S
C2160 H2145 0.960 . S
C2160 H2146 0.960 . S
C2160 H2147 0.960 . S
C2160 C2159 1.524 . S
C2161 C2158 1.403 . S
C2161 C2162 1.392 . S
C2161 C2165 1.495 . S
C2162 C2161 1.392 . S
C2162 C2163 1.385 . S
C2162 C2164 1.478 . S
C2163 H2157 0.930 . S
C2163 C2159 1.400 . S
C2163 C2162 1.385 . S
C2164 C2162 1.478 . S
C2164 C2166 1.381 . S
C2164 C2170 1.383 . S
C2165 C2161 1.495 . S
C2165 H2171 0.959 . S
C2165 H2172 0.961 . S
C2165 H2173 0.960 . S
C2166 C2164 1.381 . S
C2166 C2167 1.394 . S
C2166 H2174 0.930 . S
C2167 C2166 1.394 . S
C2167 C2168 1.383 . S
C2167 H2175 0.929 . S
C2168 C2167 1.383 . S
C2168 C2169 1.377 . S
C2169 H2153 0.930 . S
C2169 C2168 1.377 . S
C2169 C2170 1.379 . S
C2170 H2154 0.931 . S
C2170 C2164 1.383 . S
C2170 C2169 1.379 . S
H2171 C2165 0.959 . S
H2172 C2165 0.961 . S
H2173 C2165 0.960 . S
H2174 C2166 0.930 . S
H2175 C2167 0.929 . S
H2176 C2184 0.929 . S
H2177 C2186 0.930 . S
H2178 C2188 0.930 . S
H2179 C2191 0.929 . S
H2180 C2194 0.930 . S
H2181 C2196 0.960 . S
H2182 C2196 0.960 . S
H2183 C2196 0.960 . S
C2184 H2176 0.929 . S
C2184 C2185 1.377 . S
C2184 C2186 1.384 . S
C2185 C2184 1.377 . S
C2185 C2191 1.390 . S
C2186 H2177 0.930 . S
C2186 C2184 1.384 . S
C2186 C2187 1.372 . S
C2187 C2186 1.372 . S
C2187 C2188 1.400 . S
C2187 C2192 1.490 . S
C2188 H2178 0.930 . S
C2188 C2187 1.400 . S
C2188 C2191 1.386 . S
H2189 C2205 0.930 . S
H2190 C2206 0.931 . S
C2191 H2179 0.929 . S
C2191 C2185 1.390 . S
C2191 C2188 1.386 . S
C2192 C2187 1.490 . S
C2192 C2194 1.395 1_545 S
C2192 C2195 1.403 . S
H2193 C2199 0.930 . S
C2194 H2180 0.930 . S
C2194 C2192 1.395 1_565 S
C2194 C2197 1.403 . S
C2195 C2192 1.403 . S
C2195 C2196 1.524 . S
C2195 C2199 1.400 . S
C2196 H2181 0.960 . S
C2196 H2182 0.960 . S
C2196 H2183 0.960 . S
C2196 C2195 1.524 . S
C2197 C2194 1.403 . S
C2197 C2198 1.392 . S
C2197 C2201 1.495 . S
C2198 C2197 1.392 . S
C2198 C2199 1.385 1_565 S
C2198 C2200 1.478 . S
C2199 H2193 0.930 . S
C2199 C2195 1.400 . S
C2199 C2198 1.385 1_545 S
C2200 C2198 1.478 . S
C2200 C2202 1.381 . S
C2200 C2206 1.383 . S
C2201 C2197 1.495 . S
C2201 H2207 0.959 . S
C2201 H2208 0.961 . S
C2201 H2209 0.960 . S
C2202 C2200 1.381 . S
C2202 C2203 1.394 . S
C2202 H2210 0.930 . S
C2203 C2202 1.394 . S
C2203 C2204 1.383 . S
C2203 H2211 0.929 . S
C2204 C2203 1.383 . S
C2204 C2205 1.377 . S
C2205 H2189 0.930 . S
C2205 C2204 1.377 . S
C2205 C2206 1.379 . S
C2206 H2190 0.931 . S
C2206 C2200 1.383 . S
C2206 C2205 1.379 . S
H2207 C2201 0.959 . S
H2208 C2201 0.961 . S
H2209 C2201 0.960 . S
H2210 C2202 0.930 . S
H2211 C2203 0.929 . S
H2212 C2220 0.929 . S
H2213 C2222 0.930 . S
H2214 C2224 0.930 . S
H2215 C2227 0.929 . S
H2216 C2230 0.930 . S
H2217 C2232 0.960 . S
H2218 C2232 0.960 . S
H2219 C2232 0.960 . S
C2220 H2212 0.929 . S
C2220 C2221 1.377 . S
C2220 C2222 1.384 . S
C2221 C2220 1.377 . S
C2221 C2227 1.390 . S
C2222 H2213 0.930 . S
C2222 C2220 1.384 . S
C2222 C2223 1.372 . S
C2223 C2222 1.372 . S
C2223 C2224 1.400 . S
C2223 C2228 1.490 . S
C2224 H2214 0.930 . S
C2224 C2223 1.400 . S
C2224 C2227 1.386 . S
H2225 C2241 0.930 . S
H2226 C2242 0.931 . S
C2227 H2215 0.929 . S
C2227 C2221 1.390 . S
C2227 C2224 1.386 . S
C2228 C2223 1.490 . S
C2228 C2230 1.395 . S
C2228 C2231 1.403 . S
H2229 C2235 0.930 . S
C2230 H2216 0.930 . S
C2230 C2228 1.395 . S
C2230 C2233 1.403 . S
C2231 C2228 1.403 . S
C2231 C2232 1.524 . S
C2231 C2235 1.400 . S
C2232 H2217 0.960 . S
C2232 H2218 0.960 . S
C2232 H2219 0.960 . S
C2232 C2231 1.524 . S
C2233 C2230 1.403 . S
C2233 C2234 1.392 . S
C2233 C2237 1.495 . S
C2234 C2233 1.392 . S
C2234 C2235 1.385 . S
C2234 C2236 1.478 . S
C2235 H2229 0.930 . S
C2235 C2231 1.400 . S
C2235 C2234 1.385 . S
C2236 C2234 1.478 . S
C2236 C2238 1.381 . S
C2236 C2242 1.383 . S
C2237 C2233 1.495 . S
C2237 H2243 0.959 . S
C2237 H2244 0.961 . S
C2237 H2245 0.960 . S
C2238 C2236 1.381 . S
C2238 C2239 1.394 . S
C2238 H2246 0.930 . S
C2239 C2238 1.394 . S
C2239 C2240 1.383 . S
C2239 H2247 0.929 . S
C2240 C2239 1.383 . S
C2240 C2241 1.377 . S
C2241 H2225 0.930 . S
C2241 C2240 1.377 . S
C2241 C2242 1.379 . S
C2242 H2226 0.931 . S
C2242 C2236 1.383 . S
C2242 C2241 1.379 . S
H2243 C2237 0.959 . S
H2244 C2237 0.961 . S
H2245 C2237 0.960 . S
H2246 C2238 0.930 . S
H2247 C2239 0.929 . S
H2248 C2256 0.929 . S
H2249 C2258 0.930 . S
H2250 C2260 0.930 . S
H2251 C2263 0.929 . S
H2252 C2266 0.930 . S
H2253 C2268 0.960 . S
H2254 C2268 0.960 . S
H2255 C2268 0.960 1_545 S
C2256 H2248 0.929 . S
C2256 C2257 1.377 . S
C2256 C2258 1.384 . S
C2257 C2256 1.377 . S
C2257 C2263 1.390 . S
C2258 H2249 0.930 . S
C2258 C2256 1.384 . S
C2258 C2259 1.372 . S
C2259 C2258 1.372 . S
C2259 C2260 1.400 . S
C2259 C2264 1.490 . S
C2260 H2250 0.930 . S
C2260 C2259 1.400 . S
C2260 C2263 1.386 . S
H2261 C2277 0.930 . S
H2262 C2278 0.931 . S
C2263 H2251 0.929 . S
C2263 C2257 1.390 . S
C2263 C2260 1.386 . S
C2264 C2259 1.490 . S
C2264 C2266 1.395 . S
C2264 C2267 1.403 1_545 S
H2265 C2271 0.930 . S
C2266 H2252 0.930 . S
C2266 C2264 1.395 . S
C2266 C2269 1.403 . S
C2267 C2264 1.403 1_565 S
C2267 C2268 1.524 . S
C2267 C2271 1.400 . S
C2268 H2253 0.960 . S
C2268 H2254 0.960 . S
C2268 H2255 0.960 1_565 S
C2268 C2267 1.524 . S
C2269 C2266 1.403 . S
C2269 C2270 1.392 1_545 S
C2269 C2273 1.495 . S
C2270 C2269 1.392 1_565 S
C2270 C2271 1.385 . S
C2270 C2272 1.478 . S
C2271 H2265 0.930 . S
C2271 C2267 1.400 . S
C2271 C2270 1.385 . S
C2272 C2270 1.478 . S
C2272 C2274 1.381 . S
C2272 C2278 1.383 . S
C2273 C2269 1.495 . S
C2273 H2279 0.959 . S
C2273 H2280 0.961 . S
C2273 H2281 0.960 1_545 S
C2274 C2272 1.381 . S
C2274 C2275 1.394 . S
C2274 H2282 0.930 . S
C2275 C2274 1.394 . S
C2275 C2276 1.383 . S
C2275 H2283 0.929 . S
C2276 C2275 1.383 . S
C2276 C2277 1.377 . S
C2277 H2261 0.930 . S
C2277 C2276 1.377 . S
C2277 C2278 1.379 . S
C2278 H2262 0.931 . S
C2278 C2272 1.383 . S
C2278 C2277 1.379 . S
H2279 C2273 0.959 . S
H2280 C2273 0.961 . S
H2281 C2273 0.960 1_565 S
H2282 C2274 0.930 . S
H2283 C2275 0.929 . S
H2284 C2292 0.929 . S
H2285 C2294 0.930 . S
H2286 C2296 0.930 . S
H2287 C2299 0.929 . S
H2288 C2302 0.930 . S
H2289 C2304 0.960 . S
H2290 C2304 0.960 . S
H2291 C2304 0.945 1_554 S
C2292 H2284 0.929 . S
C2292 C2293 1.377 . S
C2292 C2294 1.384 . S
C2293 C2292 1.377 . S
C2293 C2299 1.390 . S
C2294 H2285 0.930 . S
C2294 C2292 1.384 . S
C2294 C2295 1.372 . S
C2295 C2294 1.372 . S
C2295 C2296 1.400 . S
C2295 C2300 1.490 . S
C2296 H2286 0.930 . S
C2296 C2295 1.400 . S
C2296 C2299 1.386 . S
H2297 C2313 0.930 . S
H2298 C2314 0.931 . S
C2299 H2287 0.929 . S
C2299 C2293 1.390 . S
C2299 C2296 1.386 . S
C2300 C2295 1.490 . S
C2300 C2302 1.395 . S
C2300 C2303 1.403 1_554 S
H2301 C2307 0.930 . S
C2302 H2288 0.930 . S
C2302 C2300 1.395 . S
C2302 C2305 1.403 . S
C2303 C2300 1.403 1_556 S
C2303 C2304 1.524 . S
C2303 C2307 1.400 . S
C2304 H2289 0.960 . S
C2304 H2290 0.960 . S
C2304 H2291 0.945 1_556 S
C2304 C2303 1.524 . S
C2305 C2302 1.403 . S
C2305 C2306 1.392 1_554 S
C2305 C2309 1.495 . S
C2306 C2305 1.392 1_556 S
C2306 C2307 1.385 . S
C2306 C2308 1.478 . S
C2307 H2301 0.930 . S
C2307 C2303 1.400 . S
C2307 C2306 1.385 . S
C2308 C2306 1.478 . S
C2308 C2310 1.381 . S
C2308 C2314 1.383 . S
C2309 C2305 1.495 . S
C2309 H2315 0.959 . S
C2309 H2316 0.961 . S
C2309 H2317 0.966 . S
C2310 C2308 1.381 . S
C2310 C2311 1.394 . S
C2310 H2318 0.930 . S
C2311 C2310 1.394 . S
C2311 C2312 1.383 . S
C2311 H2319 0.929 . S
C2312 C2311 1.383 . S
C2312 C2313 1.377 . S
C2313 H2297 0.930 . S
C2313 C2312 1.377 . S
C2313 C2314 1.379 . S
C2314 H2298 0.931 . S
C2314 C2308 1.383 . S
C2314 C2313 1.379 . S
H2315 C2309 0.959 . S
H2316 C2309 0.961 . S
H2317 C2309 0.966 . S
H2318 C2310 0.930 . S
H2319 C2311 0.929 . S
H2320 C2328 0.929 . S
H2321 C2330 0.930 . S
H2322 C2332 0.930 . S
H2323 C2335 0.929 . S
H2324 C2338 0.930 . S
H2325 C2340 0.960 . S
H2326 C2340 0.960 . S
H2327 C2340 0.960 . S
C2328 H2320 0.929 . S
C2328 C2329 1.377 . S
C2328 C2330 1.384 . S
C2329 C2328 1.377 . S
C2329 C2335 1.390 . S
C2330 H2321 0.930 . S
C2330 C2328 1.384 . S
C2330 C2331 1.372 . S
C2331 C2330 1.372 . S
C2331 C2332 1.400 . S
C2331 C2336 1.490 . S
C2332 H2322 0.930 . S
C2332 C2331 1.400 . S
C2332 C2335 1.386 . S
H2333 C2349 0.930 . S
H2334 C2350 0.931 . S
C2335 H2323 0.929 . S
C2335 C2329 1.390 . S
C2335 C2332 1.386 . S
C2336 C2331 1.490 . S
C2336 C2338 1.395 . S
C2336 C2339 1.403 1_545 S
H2337 C2343 0.930 . S
C2338 H2324 0.930 . S
C2338 C2336 1.395 . S
C2338 C2341 1.403 . S
C2339 C2336 1.403 1_565 S
C2339 C2340 1.524 . S
C2339 C2343 1.400 . S
C2340 H2325 0.960 . S
C2340 H2326 0.960 . S
C2340 H2327 0.960 . S
C2340 C2339 1.524 . S
C2341 C2338 1.403 . S
C2341 C2342 1.392 1_545 S
C2341 C2345 1.495 . S
C2342 C2341 1.392 1_565 S
C2342 C2343 1.385 . S
C2342 C2344 1.478 . S
C2343 H2337 0.930 . S
C2343 C2339 1.400 . S
C2343 C2342 1.385 . S
C2344 C2342 1.478 . S
C2344 C2346 1.381 . S
C2344 C2350 1.383 . S
C2345 C2341 1.495 . S
C2345 H2351 0.959 . S
C2345 H2352 0.961 . S
C2345 H2353 0.960 . S
C2346 C2344 1.381 . S
C2346 C2347 1.394 . S
C2346 H2354 0.930 . S
C2347 C2346 1.394 . S
C2347 C2348 1.383 . S
C2347 H2355 0.929 . S
C2348 C2347 1.383 . S
C2348 C2349 1.377 . S
C2349 H2333 0.930 . S
C2349 C2348 1.377 . S
C2349 C2350 1.379 . S
C2350 H2334 0.931 . S
C2350 C2344 1.383 . S
C2350 C2349 1.379 . S
H2351 C2345 0.959 . S
H2352 C2345 0.961 . S
H2353 C2345 0.960 . S
H2354 C2346 0.930 . S
H2355 C2347 0.929 . S
H2356 C2364 0.929 . S
H2357 C2366 0.930 . S
H2358 C2368 0.930 . S
H2359 C2371 0.929 . S
H2360 C2374 0.930 . S
H2361 C2376 0.960 . S
H2362 C2376 0.960 . S
H2363 C2376 0.960 . S
C2364 H2356 0.929 . S
C2364 C2365 1.377 . S
C2364 C2366 1.384 . S
C2365 C2364 1.377 . S
C2365 C2371 1.390 . S
C2366 H2357 0.930 . S
C2366 C2364 1.384 . S
C2366 C2367 1.372 . S
C2367 C2366 1.372 . S
C2367 C2368 1.400 . S
C2367 C2372 1.490 . S
C2368 H2358 0.930 . S
C2368 C2367 1.400 . S
C2368 C2371 1.386 . S
H2369 C2385 0.930 . S
H2370 C2386 0.931 . S
C2371 H2359 0.929 . S
C2371 C2365 1.390 . S
C2371 C2368 1.386 . S
C2372 C2367 1.490 . S
C2372 C2374 1.395 . S
C2372 C2375 1.403 . S
H2373 C2379 0.930 . S
C2374 H2360 0.930 . S
C2374 C2372 1.395 . S
C2374 C2377 1.403 . S
C2375 C2372 1.403 . S
C2375 C2376 1.524 . S
C2375 C2379 1.400 . S
C2376 H2361 0.960 . S
C2376 H2362 0.960 . S
C2376 H2363 0.960 . S
C2376 C2375 1.524 . S
C2377 C2374 1.403 . S
C2377 C2378 1.392 . S
C2377 C2381 1.495 . S
C2378 C2377 1.392 . S
C2378 C2379 1.385 . S
C2378 C2380 1.478 . S
C2379 H2373 0.930 . S
C2379 C2375 1.400 . S
C2379 C2378 1.385 . S
C2380 C2378 1.478 . S
C2380 C2382 1.381 . S
C2380 C2386 1.383 . S
C2381 C2377 1.495 . S
C2381 H2387 0.959 . S
C2381 H2388 0.961 . S
C2381 H2389 0.960 . S
C2382 C2380 1.381 . S
C2382 C2383 1.394 . S
C2382 H2390 0.930 . S
C2383 C2382 1.394 . S
C2383 C2384 1.383 . S
C2383 H2391 0.929 . S
C2384 C2383 1.383 . S
C2384 C2385 1.377 . S
C2385 H2369 0.930 . S
C2385 C2384 1.377 . S
C2385 C2386 1.379 . S
C2386 H2370 0.931 . S
C2386 C2380 1.383 . S
C2386 C2385 1.379 . S
H2387 C2381 0.959 . S
H2388 C2381 0.961 . S
H2389 C2381 0.960 . S
H2390 C2382 0.930 . S
H2391 C2383 0.929 . S
H2392 C2400 0.929 . S
H2393 C2402 0.930 . S
H2394 C2404 0.930 . S
H2395 C2407 0.929 . S
H2396 C2410 0.930 . S
H2397 C2412 0.960 1_565 S
H2398 C2412 0.972 . S
H2399 C2412 0.960 . S
C2400 H2392 0.929 . S
C2400 C2401 1.377 . S
C2400 C2402 1.384 . S
C2401 C2400 1.377 . S
C2401 C2407 1.390 . S
C2402 H2393 0.930 . S
C2402 C2400 1.384 . S
C2402 C2403 1.372 . S
C2403 C2402 1.372 . S
C2403 C2404 1.400 . S
C2403 C2408 1.490 . S
C2404 H2394 0.930 . S
C2404 C2403 1.400 . S
C2404 C2407 1.386 . S
H2405 C2421 0.930 . S
H2406 C2422 0.931 . S
C2407 H2395 0.929 . S
C2407 C2401 1.390 . S
C2407 C2404 1.386 . S
C2408 C2403 1.490 . S
C2408 C2410 1.395 . S
C2408 C2411 1.403 . S
H2409 C2415 0.930 . S
C2410 H2396 0.930 . S
C2410 C2408 1.395 . S
C2410 C2413 1.403 1_545 S
C2411 C2408 1.403 . S
C2411 C2412 1.524 . S
C2411 C2415 1.400 1_545 S
C2412 H2397 0.960 1_545 S
C2412 H2398 0.972 . S
C2412 H2399 0.960 . S
C2412 C2411 1.524 . S
C2413 C2410 1.403 1_565 S
C2413 C2414 1.392 . S
C2413 C2417 1.495 . S
C2414 C2413 1.392 . S
C2414 C2415 1.385 . S
C2414 C2416 1.478 . S
C2415 H2409 0.930 . S
C2415 C2411 1.400 1_565 S
C2415 C2414 1.385 . S
C2416 C2414 1.478 . S
C2416 C2418 1.381 . S
C2416 C2422 1.383 . S
C2417 C2413 1.495 . S
C2417 H2423 0.959 1_565 S
C2417 H2424 0.961 . S
C2417 H2425 0.960 . S
C2418 C2416 1.381 . S
C2418 C2419 1.394 . S
C2418 H2426 0.930 . S
C2419 C2418 1.394 . S
C2419 C2420 1.383 . S
C2419 H2427 0.929 . S
C2420 C2419 1.383 . S
C2420 C2421 1.377 . S
C2421 H2405 0.930 . S
C2421 C2420 1.377 . S
C2421 C2422 1.379 . S
C2422 H2406 0.931 . S
C2422 C2416 1.383 . S
C2422 C2421 1.379 . S
H2423 C2417 0.959 1_545 S
H2424 C2417 0.961 . S
H2425 C2417 0.960 . S
H2426 C2418 0.930 . S
H2427 C2419 0.929 . S
H2428 C2436 0.929 . S
H2429 C2438 0.930 . S
H2430 C2440 0.930 . S
H2431 C2443 0.929 . S
H2432 C2446 0.930 . S
H2433 C2448 0.960 . S
H2434 C2448 0.960 . S
H2435 C2448 0.960 . S
C2436 H2428 0.929 . S
C2436 C2437 1.377 . S
C2436 C2438 1.384 . S
C2437 C2436 1.377 . S
C2437 C2443 1.390 . S
C2438 H2429 0.930 . S
C2438 C2436 1.384 . S
C2438 C2439 1.372 . S
C2439 C2438 1.372 . S
C2439 C2440 1.400 . S
C2439 C2444 1.490 . S
C2440 H2430 0.930 . S
C2440 C2439 1.400 . S
C2440 C2443 1.386 . S
H2441 C2457 0.930 . S
H2442 C2458 0.931 . S
C2443 H2431 0.929 . S
C2443 C2437 1.390 . S
C2443 C2440 1.386 . S
C2444 C2439 1.490 . S
C2444 C2446 1.395 1_556 S
C2444 C2447 1.403 . S
H2445 C2451 0.930 . S
C2446 H2432 0.930 . S
C2446 C2444 1.395 1_554 S
C2446 C2449 1.403 . S
C2447 C2444 1.403 . S
C2447 C2448 1.524 . S
C2447 C2451 1.400 . S
C2448 H2433 0.960 . S
C2448 H2434 0.960 . S
C2448 H2435 0.960 . S
C2448 C2447 1.524 . S
C2449 C2446 1.403 . S
C2449 C2450 1.392 . S
C2449 C2453 1.495 . S
C2450 C2449 1.392 . S
C2450 C2451 1.385 1_554 S
C2450 C2452 1.478 . S
C2451 H2445 0.930 . S
C2451 C2447 1.400 . S
C2451 C2450 1.385 1_556 S
C2452 C2450 1.478 . S
C2452 C2454 1.381 . S
C2452 C2458 1.383 . S
C2453 C2449 1.495 . S
C2453 H2459 0.959 . S
C2453 H2460 0.961 . S
C2453 H2461 0.960 . S
C2454 C2452 1.381 . S
C2454 C2455 1.394 . S
C2454 H2462 0.930 . S
C2455 C2454 1.394 . S
C2455 C2456 1.383 . S
C2455 H2463 0.929 . S
C2456 C2455 1.383 . S
C2456 C2457 1.377 . S
C2457 H2441 0.930 . S
C2457 C2456 1.377 . S
C2457 C2458 1.379 . S
C2458 H2442 0.931 . S
C2458 C2452 1.383 . S
C2458 C2457 1.379 . S
H2459 C2453 0.959 . S
H2460 C2453 0.961 . S
H2461 C2453 0.960 . S
H2462 C2454 0.930 . S
H2463 C2455 0.929 . S
H2464 C2472 0.929 . S
H2465 C2474 0.930 . S
H2466 C2476 0.930 . S
H2467 C2479 0.929 . S
H2468 C2482 0.930 . S
H2469 C2484 0.960 . S
H2470 C2484 0.960 . S
H2471 C2484 0.960 . S
C2472 H2464 0.929 . S
C2472 C2473 1.377 . S
C2472 C2474 1.384 . S
C2473 C2472 1.377 . S
C2473 C2479 1.390 . S
C2474 H2465 0.930 . S
C2474 C2472 1.384 . S
C2474 C2475 1.372 . S
C2475 C2474 1.372 . S
C2475 C2476 1.400 . S
C2475 C2480 1.490 . S
C2476 H2466 0.930 . S
C2476 C2475 1.400 . S
C2476 C2479 1.386 . S
H2477 C2493 0.930 . S
H2478 C2494 0.931 . S
C2479 H2467 0.929 . S
C2479 C2473 1.390 . S
C2479 C2476 1.386 . S
C2480 C2475 1.490 . S
C2480 C2482 1.395 . S
C2480 C2483 1.403 . S
H2481 C2487 0.930 . S
C2482 H2468 0.930 . S
C2482 C2480 1.395 . S
C2482 C2485 1.403 . S
C2483 C2480 1.403 . S
C2483 C2484 1.524 . S
C2483 C2487 1.400 . S
C2484 H2469 0.960 . S
C2484 H2470 0.960 . S
C2484 H2471 0.960 . S
C2484 C2483 1.524 . S
C2485 C2482 1.403 . S
C2485 C2486 1.392 . S
C2485 C2489 1.495 . S
C2486 C2485 1.392 . S
C2486 C2487 1.385 . S
C2486 C2488 1.478 . S
C2487 H2481 0.930 . S
C2487 C2483 1.400 . S
C2487 C2486 1.385 . S
C2488 C2486 1.478 . S
C2488 C2490 1.381 . S
C2488 C2494 1.383 . S
C2489 C2485 1.495 . S
C2489 H2495 0.959 . S
C2489 H2496 0.961 . S
C2489 H2497 0.960 . S
C2490 C2488 1.381 . S
C2490 C2491 1.394 . S
C2490 H2498 0.930 . S
C2491 C2490 1.394 . S
C2491 C2492 1.383 . S
C2491 H2499 0.929 . S
C2492 C2491 1.383 . S
C2492 C2493 1.377 . S
C2493 H2477 0.930 . S
C2493 C2492 1.377 . S
C2493 C2494 1.379 . S
C2494 H2478 0.931 . S
C2494 C2488 1.383 . S
C2494 C2493 1.379 . S
H2495 C2489 0.959 . S
H2496 C2489 0.961 . S
H2497 C2489 0.960 . S
H2498 C2490 0.930 . S
H2499 C2491 0.929 . S
H2500 C2508 0.929 . S
H2501 C2510 0.930 . S
H2502 C2512 0.930 . S
H2503 C2515 0.929 . S
H2504 C2518 0.930 . S
H2505 C2520 0.960 . S
H2506 C2520 0.960 . S
H2507 C2520 0.960 . S
C2508 H2500 0.929 . S
C2508 C2509 1.377 . S
C2508 C2510 1.384 . S
C2509 C2508 1.377 . S
C2509 C2515 1.390 . S
C2510 H2501 0.930 . S
C2510 C2508 1.384 . S
C2510 C2511 1.372 . S
C2511 C2510 1.372 . S
C2511 C2512 1.400 . S
C2511 C2516 1.490 . S
C2512 H2502 0.930 . S
C2512 C2511 1.400 . S
C2512 C2515 1.386 . S
H2513 C2529 0.930 . S
H2514 C2530 0.931 . S
C2515 H2503 0.929 . S
C2515 C2509 1.390 . S
C2515 C2512 1.386 . S
C2516 C2511 1.490 . S
C2516 C2518 1.395 . S
C2516 C2519 1.403 1_556 S
H2517 C2523 0.930 . S
C2518 H2504 0.930 . S
C2518 C2516 1.395 . S
C2518 C2521 1.403 . S
C2519 C2516 1.403 1_554 S
C2519 C2520 1.524 . S
C2519 C2523 1.400 . S
C2520 H2505 0.960 . S
C2520 H2506 0.960 . S
C2520 H2507 0.960 . S
C2520 C2519 1.524 . S
C2521 C2518 1.403 . S
C2521 C2522 1.392 1_556 S
C2521 C2525 1.495 . S
C2522 C2521 1.392 1_554 S
C2522 C2523 1.385 . S
C2522 C2524 1.478 . S
C2523 H2517 0.930 . S
C2523 C2519 1.400 . S
C2523 C2522 1.385 . S
C2524 C2522 1.478 . S
C2524 C2526 1.381 . S
C2524 C2530 1.383 . S
C2525 C2521 1.495 . S
C2525 H2531 0.959 . S
C2525 H2532 0.961 . S
C2525 H2533 0.960 . S
C2526 C2524 1.381 . S
C2526 C2527 1.394 . S
C2526 H2534 0.930 . S
C2527 C2526 1.394 . S
C2527 C2528 1.383 . S
C2527 H2535 0.929 . S
C2528 C2527 1.383 . S
C2528 C2529 1.377 . S
C2529 H2513 0.930 . S
C2529 C2528 1.377 . S
C2529 C2530 1.379 . S
C2530 H2514 0.931 . S
C2530 C2524 1.383 . S
C2530 C2529 1.379 . S
H2531 C2525 0.959 . S
H2532 C2525 0.961 . S
H2533 C2525 0.960 . S
H2534 C2526 0.930 . S
H2535 C2527 0.929 . S
H2536 C2544 0.929 . S
H2537 C2546 0.930 . S
H2538 C2548 0.930 . S
H2539 C2551 0.929 . S
H2540 C2554 0.930 . S
H2541 C2556 0.960 . S
H2542 C2556 0.960 . S
H2543 C2556 0.960 . S
C2544 H2536 0.929 . S
C2544 C2545 1.377 . S
C2544 C2546 1.384 . S
C2545 C2544 1.377 . S
C2545 C2551 1.390 . S
C2546 H2537 0.930 . S
C2546 C2544 1.384 . S
C2546 C2547 1.372 . S
C2547 C2546 1.372 . S
C2547 C2548 1.400 . S
C2547 C2552 1.490 . S
C2548 H2538 0.930 . S
C2548 C2547 1.400 . S
C2548 C2551 1.386 . S
H2549 C2565 0.930 . S
H2550 C2566 0.931 . S
C2551 H2539 0.929 . S
C2551 C2545 1.390 . S
C2551 C2548 1.386 . S
C2552 C2547 1.490 . S
C2552 C2554 1.395 . S
C2552 C2555 1.403 . S
H2553 C2559 0.930 . S
C2554 H2540 0.930 . S
C2554 C2552 1.395 . S
C2554 C2557 1.403 . S
C2555 C2552 1.403 . S
C2555 C2556 1.524 . S
C2555 C2559 1.400 . S
C2556 H2541 0.960 . S
C2556 H2542 0.960 . S
C2556 H2543 0.960 . S
C2556 C2555 1.524 . S
C2557 C2554 1.403 . S
C2557 C2558 1.392 . S
C2557 C2561 1.495 . S
C2558 C2557 1.392 . S
C2558 C2559 1.385 . S
C2558 C2560 1.478 . S
C2559 H2553 0.930 . S
C2559 C2555 1.400 . S
C2559 C2558 1.385 . S
C2560 C2558 1.478 . S
C2560 C2562 1.381 . S
C2560 C2566 1.383 . S
C2561 C2557 1.495 . S
C2561 H2567 0.959 . S
C2561 H2568 0.961 . S
C2561 H2569 0.960 . S
C2562 C2560 1.381 . S
C2562 C2563 1.394 . S
C2562 H2570 0.930 . S
C2563 C2562 1.394 . S
C2563 C2564 1.383 . S
C2563 H2571 0.929 . S
C2564 C2563 1.383 . S
C2564 C2565 1.377 . S
C2565 H2549 0.930 . S
C2565 C2564 1.377 . S
C2565 C2566 1.379 . S
C2566 H2550 0.931 . S
C2566 C2560 1.383 . S
C2566 C2565 1.379 . S
H2567 C2561 0.959 . S
H2568 C2561 0.961 . S
H2569 C2561 0.960 . S
H2570 C2562 0.930 . S
H2571 C2563 0.929 . S
H2572 C2580 0.929 . S
H2573 C2582 0.930 . S
H2574 C2584 0.930 . S
H2575 C2587 0.929 . S
H2576 C2590 0.930 . S
H2577 C2592 0.960 . S
H2578 C2592 0.960 . S
H2579 C2592 0.960 . S
C2580 H2572 0.929 . S
C2580 C2581 1.377 . S
C2580 C2582 1.384 . S
C2581 C2580 1.377 . S
C2581 C2587 1.390 . S
C2582 H2573 0.930 . S
C2582 C2580 1.384 . S
C2582 C2583 1.372 . S
C2583 C2582 1.372 . S
C2583 C2584 1.400 . S
C2583 C2588 1.490 . S
C2584 H2574 0.930 . S
C2584 C2583 1.400 . S
C2584 C2587 1.386 . S
H2585 C2601 0.930 . S
H2586 C2602 0.931 . S
C2587 H2575 0.929 . S
C2587 C2581 1.390 . S
C2587 C2584 1.386 . S
C2588 C2583 1.490 . S
C2588 C2590 1.395 . S
C2588 C2591 1.403 . S
H2589 C2595 0.930 . S
C2590 H2576 0.930 . S
C2590 C2588 1.395 . S
C2590 C2593 1.403 . S
C2591 C2588 1.403 . S
C2591 C2592 1.524 . S
C2591 C2595 1.400 . S
C2592 H2577 0.960 . S
C2592 H2578 0.960 . S
C2592 H2579 0.960 . S
C2592 C2591 1.524 . S
C2593 C2590 1.403 . S
C2593 C2594 1.392 . S
C2593 C2597 1.495 . S
C2594 C2593 1.392 . S
C2594 C2595 1.385 . S
C2594 C2596 1.478 . S
C2595 H2589 0.930 . S
C2595 C2591 1.400 . S
C2595 C2594 1.385 . S
C2596 C2594 1.478 . S
C2596 C2598 1.381 . S
C2596 C2602 1.383 . S
C2597 C2593 1.495 . S
C2597 H2603 0.959 . S
C2597 H2604 0.961 . S
C2597 H2605 0.960 . S
C2598 C2596 1.381 . S
C2598 C2599 1.394 . S
C2598 H2606 0.930 . S
C2599 C2598 1.394 . S
C2599 C2600 1.383 . S
C2599 H2607 0.929 . S
C2600 C2599 1.383 . S
C2600 C2601 1.377 . S
C2601 H2585 0.930 . S
C2601 C2600 1.377 . S
C2601 C2602 1.379 . S
C2602 H2586 0.931 . S
C2602 C2596 1.383 . S
C2602 C2601 1.379 . S
H2603 C2597 0.959 . S
H2604 C2597 0.961 . S
H2605 C2597 0.960 . S
H2606 C2598 0.930 . S
H2607 C2599 0.929 . S
H2608 C2616 0.929 . S
H2609 C2618 0.930 . S
H2610 C2620 0.930 . S
H2611 C2623 0.929 . S
H2612 C2626 0.930 . S
H2613 C2628 0.960 . S
H2614 C2628 0.960 . S
H2615 C2628 0.960 . S
C2616 H2608 0.929 . S
C2616 C2617 1.377 . S
C2616 C2618 1.384 . S
C2617 C2616 1.377 . S
C2617 C2623 1.390 . S
C2618 H2609 0.930 . S
C2618 C2616 1.384 . S
C2618 C2619 1.372 . S
C2619 C2618 1.372 . S
C2619 C2620 1.400 . S
C2619 C2624 1.490 . S
C2620 H2610 0.930 . S
C2620 C2619 1.400 . S
C2620 C2623 1.386 . S
H2621 C2637 0.930 . S
H2622 C2638 0.931 . S
C2623 H2611 0.929 . S
C2623 C2617 1.390 . S
C2623 C2620 1.386 . S
C2624 C2619 1.490 . S
C2624 C2626 1.395 . S
C2624 C2627 1.403 . S
H2625 C2631 0.930 . S
C2626 H2612 0.930 . S
C2626 C2624 1.395 . S
C2626 C2629 1.403 . S
C2627 C2624 1.403 . S
C2627 C2628 1.524 . S
C2627 C2631 1.400 . S
C2628 H2613 0.960 . S
C2628 H2614 0.960 . S
C2628 H2615 0.960 . S
C2628 C2627 1.524 . S
C2629 C2626 1.403 . S
C2629 C2630 1.392 . S
C2629 C2633 1.495 . S
C2630 C2629 1.392 . S
C2630 C2631 1.385 . S
C2630 C2632 1.478 . S
C2631 H2625 0.930 . S
C2631 C2627 1.400 . S
C2631 C2630 1.385 . S
C2632 C2630 1.478 . S
C2632 C2634 1.381 . S
C2632 C2638 1.383 . S
C2633 C2629 1.495 . S
C2633 H2639 0.959 . S
C2633 H2640 0.961 . S
C2633 H2641 0.960 . S
C2634 C2632 1.381 . S
C2634 C2635 1.394 . S
C2634 H2642 0.930 . S
C2635 C2634 1.394 . S
C2635 C2636 1.383 . S
C2635 H2643 0.929 . S
C2636 C2635 1.383 . S
C2636 C2637 1.377 . S
C2637 H2621 0.930 . S
C2637 C2636 1.377 . S
C2637 C2638 1.379 . S
C2638 H2622 0.931 . S
C2638 C2632 1.383 . S
C2638 C2637 1.379 . S
H2639 C2633 0.959 . S
H2640 C2633 0.961 . S
H2641 C2633 0.960 . S
H2642 C2634 0.930 . S
H2643 C2635 0.929 . S
H2644 C2652 0.929 . S
H2645 C2654 0.930 . S
H2646 C2656 0.930 . S
H2647 C2659 0.929 . S
H2648 C2662 0.930 . S
H2649 C2664 0.960 . S
H2650 C2664 0.960 . S
H2651 C2664 0.960 . S
C2652 H2644 0.929 . S
C2652 C2653 1.377 . S
C2652 C2654 1.384 . S
C2653 C2652 1.377 . S
C2653 C2659 1.390 . S
C2654 H2645 0.930 . S
C2654 C2652 1.384 . S
C2654 C2655 1.372 . S
C2655 C2654 1.372 . S
C2655 C2656 1.400 . S
C2655 C2660 1.490 . S
C2656 H2646 0.930 . S
C2656 C2655 1.400 . S
C2656 C2659 1.386 . S
H2657 C2673 0.930 . S
H2658 C2674 0.931 . S
C2659 H2647 0.929 . S
C2659 C2653 1.390 . S
C2659 C2656 1.386 . S
C2660 C2655 1.490 . S
C2660 C2662 1.395 . S
C2660 C2663 1.403 1_556 S
H2661 C2667 0.930 . S
C2662 H2648 0.930 . S
C2662 C2660 1.395 . S
C2662 C2665 1.403 . S
C2663 C2660 1.403 1_554 S
C2663 C2664 1.524 . S
C2663 C2667 1.400 . S
C2664 H2649 0.960 . S
C2664 H2650 0.960 . S
C2664 H2651 0.960 . S
C2664 C2663 1.524 . S
C2665 C2662 1.403 . S
C2665 C2666 1.392 1_556 S
C2665 C2669 1.495 . S
C2666 C2665 1.392 1_554 S
C2666 C2667 1.385 . S
C2666 C2668 1.478 . S
C2667 H2661 0.930 . S
C2667 C2663 1.400 . S
C2667 C2666 1.385 . S
C2668 C2666 1.478 . S
C2668 C2670 1.381 . S
C2668 C2674 1.383 . S
C2669 C2665 1.495 . S
C2669 H2675 0.959 . S
C2669 H2676 0.961 . S
C2669 H2677 0.960 . S
C2670 C2668 1.381 . S
C2670 C2671 1.394 . S
C2670 H2678 0.930 . S
C2671 C2670 1.394 . S
C2671 C2672 1.383 . S
C2671 H2679 0.929 . S
C2672 C2671 1.383 . S
C2672 C2673 1.377 . S
C2673 H2657 0.930 . S
C2673 C2672 1.377 . S
C2673 C2674 1.379 . S
C2674 H2658 0.931 . S
C2674 C2668 1.383 . S
C2674 C2673 1.379 . S
H2675 C2669 0.959 . S
H2676 C2669 0.961 . S
H2677 C2669 0.960 . S
H2678 C2670 0.930 . S
H2679 C2671 0.929 . S
H2680 C2688 0.929 . S
H2681 C2690 0.930 . S
H2682 C2692 0.930 . S
H2683 C2695 0.929 . S
H2684 C2698 0.930 . S
H2685 C2700 0.960 . S
H2686 C2700 0.960 . S
H2687 C2700 0.960 . S
C2688 H2680 0.929 . S
C2688 C2689 1.377 . S
C2688 C2690 1.384 . S
C2689 C2688 1.377 . S
C2689 C2695 1.390 . S
C2690 H2681 0.930 . S
C2690 C2688 1.384 . S
C2690 C2691 1.372 . S
C2691 C2690 1.372 . S
C2691 C2692 1.400 . S
C2691 C2696 1.490 . S
C2692 H2682 0.930 . S
C2692 C2691 1.400 . S
C2692 C2695 1.386 . S
H2693 C2709 0.930 . S
H2694 C2710 0.931 . S
C2695 H2683 0.929 . S
C2695 C2689 1.390 . S
C2695 C2692 1.386 . S
C2696 C2691 1.490 . S
C2696 C2698 1.395 . S
C2696 C2699 1.403 . S
H2697 C2703 0.930 . S
C2698 H2684 0.930 . S
C2698 C2696 1.395 . S
C2698 C2701 1.403 . S
C2699 C2696 1.403 . S
C2699 C2700 1.524 . S
C2699 C2703 1.400 . S
C2700 H2685 0.960 . S
C2700 H2686 0.960 . S
C2700 H2687 0.960 . S
C2700 C2699 1.524 . S
C2701 C2698 1.403 . S
C2701 C2702 1.392 . S
C2701 C2705 1.495 . S
C2702 C2701 1.392 . S
C2702 C2703 1.385 . S
C2702 C2704 1.478 . S
C2703 H2697 0.930 . S
C2703 C2699 1.400 . S
C2703 C2702 1.385 . S
C2704 C2702 1.478 . S
C2704 C2706 1.381 . S
C2704 C2710 1.383 . S
C2705 C2701 1.495 . S
C2705 H2711 0.959 . S
C2705 H2712 0.961 . S
C2705 H2713 0.960 . S
C2706 C2704 1.381 . S
C2706 C2707 1.394 . S
C2706 H2714 0.930 . S
C2707 C2706 1.394 . S
C2707 C2708 1.383 . S
C2707 H2715 0.929 . S
C2708 C2707 1.383 . S
C2708 C2709 1.377 . S
C2709 H2693 0.930 . S
C2709 C2708 1.377 . S
C2709 C2710 1.379 . S
C2710 H2694 0.931 . S
C2710 C2704 1.383 . S
C2710 C2709 1.379 . S
H2711 C2705 0.959 . S
H2712 C2705 0.961 . S
H2713 C2705 0.960 . S
H2714 C2706 0.930 . S
H2715 C2707 0.929 . S
H2716 C2724 0.929 . S
H2717 C2726 0.930 . S
H2718 C2728 0.930 . S
H2719 C2731 0.929 . S
H2720 C2734 0.930 . S
H2721 C2736 0.960 . S
H2722 C2736 0.960 . S
H2723 C2736 0.960 . S
C2724 H2716 0.929 . S
C2724 C2725 1.377 . S
C2724 C2726 1.384 . S
C2725 C2724 1.377 . S
C2725 C2731 1.390 . S
C2726 H2717 0.930 . S
C2726 C2724 1.384 . S
C2726 C2727 1.372 . S
C2727 C2726 1.372 . S
C2727 C2728 1.400 . S
C2727 C2732 1.490 . S
C2728 H2718 0.930 . S
C2728 C2727 1.400 . S
C2728 C2731 1.386 . S
H2729 C2745 0.930 . S
H2730 C2746 0.931 . S
C2731 H2719 0.929 . S
C2731 C2725 1.390 . S
C2731 C2728 1.386 . S
C2732 C2727 1.490 . S
C2732 C2734 1.395 . S
C2732 C2735 1.403 . S
H2733 C2739 0.930 . S
C2734 H2720 0.930 . S
C2734 C2732 1.395 . S
C2734 C2737 1.403 . S
C2735 C2732 1.403 . S
C2735 C2736 1.524 . S
C2735 C2739 1.400 . S
C2736 H2721 0.960 . S
C2736 H2722 0.960 . S
C2736 H2723 0.960 . S
C2736 C2735 1.524 . S
C2737 C2734 1.403 . S
C2737 C2738 1.392 . S
C2737 C2741 1.495 . S
C2738 C2737 1.392 . S
C2738 C2739 1.385 . S
C2738 C2740 1.478 . S
C2739 H2733 0.930 . S
C2739 C2735 1.400 . S
C2739 C2738 1.385 . S
C2740 C2738 1.478 . S
C2740 C2742 1.381 . S
C2740 C2746 1.383 . S
C2741 C2737 1.495 . S
C2741 H2747 0.959 . S
C2741 H2748 0.961 . S
C2741 H2749 0.960 . S
C2742 C2740 1.381 . S
C2742 C2743 1.394 . S
C2742 H2750 0.930 . S
C2743 C2742 1.394 . S
C2743 C2744 1.383 . S
C2743 H2751 0.929 . S
C2744 C2743 1.383 . S
C2744 C2745 1.377 . S
C2745 H2729 0.930 . S
C2745 C2744 1.377 . S
C2745 C2746 1.379 . S
C2746 H2730 0.931 . S
C2746 C2740 1.383 . S
C2746 C2745 1.379 . S
H2747 C2741 0.959 . S
H2748 C2741 0.961 . S
H2749 C2741 0.960 . S
H2750 C2742 0.930 . S
H2751 C2743 0.929 . S
C457 C390 1.456 . S
C476 C1 1.474 . S
C493 C26 1.472 . S
C512 C112 1.441 . S
C529 C363 1.454 . S
C548 C28 1.460 . S
C565 C42 1.473 . S
C584 C153 1.461 . S
C601 C56 1.475 . S
C620 C419 1.473 . S
C637 C71 1.476 . S
C656 C208 1.472 . S
C673 C96 1.473 . S
C692 C447 1.446 . S
C709 C111 1.473 . S
C728 C181 1.439 . S
C745 C279 1.457 . S
C764 C125 1.459 . S
C781 C12 1.461 . S
C800 C139 1.474 . S
C817 C239 1.459 . S
C836 C140 1.463 . S
C853 C166 1.473 . S
C872 C41 1.472 . S
C889 C306 1.455 . S
C908 C168 1.466 . S
C925 C85 1.456 . S
C944 C182 1.461 . S
C961 C197 1.474 . S
C980 C334 1.437 . S
C997 C69 1.458 . S
C1016 C222 1.479 . S
C1033 C225 1.476 . S
C1052 C155 1.473 . S
C1069 C250 1.475 . S
C1088 C336 1.471 . S
C1105 C126 1.454 . S
C1124 C252 1.467 . S
C1141 C376 1.453 . S
C1160 C266 1.460 . S
C1177 C195 1.459 . S
C1196 C292 1.477 . S
C1213 C433 1.455 . S
C1232 C295 1.461 . S
C1249 C211 1.462 . S
C1268 C320 1.481 . S
C1285 C323 1.475 . S
C1304 C405 1.470 . S
C1321 C55 1.460 . S
C1340 C349 1.468 . S
C1357 C350 1.474 . S
C1376 C236 1.437 . S
C1393 C365 1.475 . S
C1412 C15 1.436 . S
C1429 C379 1.476 . S
C1448 C265 1.443 . S
C1465 C392 1.476 . S
C1484 C82 1.449 . S
C1501 C406 1.475 . S
C1520 C309 1.469 . S
C1537 C420 1.473 . S
C1556 C98 1.472 . S
C1573 C434 1.474 . S
C1592 C281 1.472 . S
C1609 C337 1.674 . S
C1628 C13 1.650 . S
C1645 C14 1.678 . S
C1664 C127 1.693 . S
C1681 C377 1.677 . S
C1700 C40 1.692 . S
C1717 C54 1.676 . S
C1736 C154 1.687 . S
C1753 C404 1.671 . S
C1772 C68 1.677 . S
C1789 C83 1.679 . S
C1808 C194 1.678 . S
C1825 C432 1.672 . S
C1844 C84 1.682 . S
C1861 C99 1.675 . S
C1880 C210 1.691 . S
C1897 C113 1.675 . S
C1916 C237 1.650 . S
C1933 C152 1.679 . S
C1952 C264 1.682 . S
C1969 C180 1.678 . S
C1988 C280 1.693 . S
C2005 C209 1.674 . S
C2024 C308 1.653 . S
C2041 C238 1.674 . S
C2060 C362 1.681 . S
C2077 C391 1.672 . S
C2096 C278 1.662 . S
C2113 C418 1.671 . S
C2132 C307 1.651 . S
C2149 C335 1.678 . S
C2168 C446 1.666 . S
C2185 C0 2.057 . S
C2204 C57 2.049 . S
C2221 C27 2.057 . S
C2240 C70 2.050 . S
C2257 C97 2.057 . S
C2276 C29 2.050 . S
C2293 C43 2.057 . S
C2312 C110 2.052 . S
C2329 C169 2.057 . S
C2348 C124 2.053 . S
C2365 C183 2.057 . S
C2384 C138 2.054 . S
C2401 C141 2.056 . S
C2420 C196 2.058 . S
C2437 C167 2.057 . S
C2456 C223 2.053 . S
C2473 C293 2.058 . S
C2492 C224 2.047 . S
C2509 C294 2.057 . S
C2528 C251 2.049 . S
C2545 C253 2.057 . S
C2564 C321 2.052 . S
C2581 C322 2.056 . S
C2600 C267 2.049 . S
C2617 C393 2.055 . S
C2636 C348 2.057 . S
C2653 C351 2.055 . S
C2672 C407 2.050 . S
C2689 C421 2.055 . S
C2708 C364 2.048 . S
C2725 C378 2.057 . S
C2744 C435 2.057 . S
