# Generated by pormake.
# Topology bcs, (6)-cn, num edge types: 1
# Building blocks:
#     Node 0, Type 0, BuildingBlock: KUMBUR_clean_sbu_1, # of connection points: 6
#     Node 1, Type 0, BuildingBlock: KUMBUR_clean_sbu_1, # of connection points: 6
#     Node 2, Type 0, BuildingBlock: KUMBUR_clean_sbu_1, # of connection points: 6
#     Node 3, Type 0, BuildingBlock: KUMBUR_clean_sbu_1, # of connection points: 6
#     Node 4, Type 0, BuildingBlock: KUMBUR_clean_sbu_1, # of connection points: 6
#     Node 5, Type 0, BuildingBlock: KUMBUR_clean_sbu_1, # of connection points: 6
#     Node 6, Type 0, BuildingBlock: KUMBUR_clean_sbu_1, # of connection points: 6
#     Node 7, Type 0, BuildingBlock: KUMBUR_clean_sbu_1, # of connection points: 6
#     Node 8, Type 0, BuildingBlock: KUMBUR_clean_sbu_1, # of connection points: 6
#     Node 9, Type 0, BuildingBlock: KUMBUR_clean_sbu_1, # of connection points: 6
#     Node 10, Type 0, BuildingBlock: KUMBUR_clean_sbu_1, # of connection points: 6
#     Node 11, Type 0, BuildingBlock: KUMBUR_clean_sbu_1, # of connection points: 6
#     Node 12, Type 0, BuildingBlock: KUMBUR_clean_sbu_1, # of connection points: 6
#     Node 13, Type 0, BuildingBlock: KUMBUR_clean_sbu_1, # of connection points: 6
#     Node 14, Type 0, BuildingBlock: KUMBUR_clean_sbu_1, # of connection points: 6
#     Node 15, Type 0, BuildingBlock: KUMBUR_clean_sbu_1, # of connection points: 6
#     Edge 16, Type (0, 0), BuildingBlock: OJICUG_clean_linker_0, # of connection points: 2
#     Edge 17, Type (0, 0), BuildingBlock: OJICUG_clean_linker_0, # of connection points: 2
#     Edge 18, Type (0, 0), BuildingBlock: OJICUG_clean_linker_0, # of connection points: 2
#     Edge 19, Type (0, 0), BuildingBlock: OJICUG_clean_linker_0, # of connection points: 2
#     Edge 20, Type (0, 0), BuildingBlock: OJICUG_clean_linker_0, # of connection points: 2
#     Edge 21, Type (0, 0), BuildingBlock: OJICUG_clean_linker_0, # of connection points: 2
#     Edge 22, Type (0, 0), BuildingBlock: OJICUG_clean_linker_0, # of connection points: 2
#     Edge 23, Type (0, 0), BuildingBlock: OJICUG_clean_linker_0, # of connection points: 2
#     Edge 24, Type (0, 0), BuildingBlock: OJICUG_clean_linker_0, # of connection points: 2
#     Edge 25, Type (0, 0), BuildingBlock: OJICUG_clean_linker_0, # of connection points: 2
#     Edge 26, Type (0, 0), BuildingBlock: OJICUG_clean_linker_0, # of connection points: 2
#     Edge 27, Type (0, 0), BuildingBlock: OJICUG_clean_linker_0, # of connection points: 2
#     Edge 28, Type (0, 0), BuildingBlock: OJICUG_clean_linker_0, # of connection points: 2
#     Edge 29, Type (0, 0), BuildingBlock: OJICUG_clean_linker_0, # of connection points: 2
#     Edge 30, Type (0, 0), BuildingBlock: OJICUG_clean_linker_0, # of connection points: 2
#     Edge 31, Type (0, 0), BuildingBlock: OJICUG_clean_linker_0, # of connection points: 2
#     Edge 32, Type (0, 0), BuildingBlock: OJICUG_clean_linker_0, # of connection points: 2
#     Edge 33, Type (0, 0), BuildingBlock: OJICUG_clean_linker_0, # of connection points: 2
#     Edge 34, Type (0, 0), BuildingBlock: OJICUG_clean_linker_0, # of connection points: 2
#     Edge 35, Type (0, 0), BuildingBlock: OJICUG_clean_linker_0, # of connection points: 2
#     Edge 36, Type (0, 0), BuildingBlock: OJICUG_clean_linker_0, # of connection points: 2
#     Edge 37, Type (0, 0), BuildingBlock: OJICUG_clean_linker_0, # of connection points: 2
#     Edge 38, Type (0, 0), BuildingBlock: OJICUG_clean_linker_0, # of connection points: 2
#     Edge 39, Type (0, 0), BuildingBlock: OJICUG_clean_linker_0, # of connection points: 2
#     Edge 40, Type (0, 0), BuildingBlock: OJICUG_clean_linker_0, # of connection points: 2
#     Edge 41, Type (0, 0), BuildingBlock: OJICUG_clean_linker_0, # of connection points: 2
#     Edge 42, Type (0, 0), BuildingBlock: OJICUG_clean_linker_0, # of connection points: 2
#     Edge 43, Type (0, 0), BuildingBlock: OJICUG_clean_linker_0, # of connection points: 2
#     Edge 44, Type (0, 0), BuildingBlock: OJICUG_clean_linker_0, # of connection points: 2
#     Edge 45, Type (0, 0), BuildingBlock: OJICUG_clean_linker_0, # of connection points: 2
#     Edge 46, Type (0, 0), BuildingBlock: OJICUG_clean_linker_0, # of connection points: 2
#     Edge 47, Type (0, 0), BuildingBlock: OJICUG_clean_linker_0, # of connection points: 2
#     Edge 48, Type (0, 0), BuildingBlock: OJICUG_clean_linker_0, # of connection points: 2
#     Edge 49, Type (0, 0), BuildingBlock: OJICUG_clean_linker_0, # of connection points: 2
#     Edge 50, Type (0, 0), BuildingBlock: OJICUG_clean_linker_0, # of connection points: 2
#     Edge 51, Type (0, 0), BuildingBlock: OJICUG_clean_linker_0, # of connection points: 2
#     Edge 52, Type (0, 0), BuildingBlock: OJICUG_clean_linker_0, # of connection points: 2
#     Edge 53, Type (0, 0), BuildingBlock: OJICUG_clean_linker_0, # of connection points: 2
#     Edge 54, Type (0, 0), BuildingBlock: OJICUG_clean_linker_0, # of connection points: 2
#     Edge 55, Type (0, 0), BuildingBlock: OJICUG_clean_linker_0, # of connection points: 2
#     Edge 56, Type (0, 0), BuildingBlock: OJICUG_clean_linker_0, # of connection points: 2
#     Edge 57, Type (0, 0), BuildingBlock: OJICUG_clean_linker_0, # of connection points: 2
#     Edge 58, Type (0, 0), BuildingBlock: OJICUG_clean_linker_0, # of connection points: 2
#     Edge 59, Type (0, 0), BuildingBlock: OJICUG_clean_linker_0, # of connection points: 2
#     Edge 60, Type (0, 0), BuildingBlock: OJICUG_clean_linker_0, # of connection points: 2
#     Edge 61, Type (0, 0), BuildingBlock: OJICUG_clean_linker_0, # of connection points: 2
#     Edge 62, Type (0, 0), BuildingBlock: OJICUG_clean_linker_0, # of connection points: 2
#     Edge 63, Type (0, 0), BuildingBlock: OJICUG_clean_linker_0, # of connection points: 2
# Relax obj value: 0.105
# Max RMSD: 0.201
# Mean RMSD: 0.151
data_MOF--net-bcs--node1-KUMBUR_clean_sbu_1--edge1-OJICUG_clean_linker_0
_symmetry_space_group_name_H-M    P1
_symmetry_Int_Tables_number       1
_symmetry_cell_setting            triclinic
loop_
_symmetry_equiv_pos_as_xyz
'x, y, z'
_cell_length_a     32.166484
_cell_length_b     32.266947
_cell_length_c     34.035771
_cell_angle_alpha  110.91183
_cell_angle_beta   69.492046
_cell_angle_gamma 126.36814
loop_
_atom_site_label
_atom_site_type_symbol
_atom_site_fract_x
_atom_site_fract_y
_atom_site_fract_z
_atom_type_partial_charge
Tb0 Tb 0.99856 0.98877 0.99283 0.0
C1 C 0.17268 0.16988 0.07288 0.0
N2 N 0.17083 0.13091 0.03905 0.0
C3 C 0.25714 0.19214 1.00559 0.0
C4 C 0.21625 0.22198 0.07378 0.0
C5 C 0.2137 0.14091 1.00667 0.0
C6 C 0.25808 0.23308 0.039 0.0
C7 C 0.1358 0.19434 0.14593 0.0
C8 C 0.13314 0.15644 0.10844 0.0
C9 C 0.17833 0.24652 0.14639 0.0
C10 C 0.21811 0.26056 0.11037 0.0
Tb11 Tb 0.09602 0.0492 0.04401 0.0
N12 N 0.09381 0.10525 0.10719 0.0
C13 C 0.09706 0.17802 0.18226 0.0
C14 C 0.05896 0.08831 0.14363 0.0
C15 C 0.05841 0.12478 0.1811 0.0
H16 H 0.21508 0.1094 0.98171 0.0
H17 H 1.02926 0.11176 0.20939 0.0
H18 H 0.87791 0.91593 0.04694 0.0
H19 H 0.0842 0.95143 0.82694 0.0
H20 H 1.02989 0.04697 0.14284 0.0
H21 H 0.09767 0.20565 0.21185 0.0
H22 H 0.07762 1.00585 0.89813 0.0
H23 H 0.2903 0.19982 0.97941 0.0
H24 H 0.1829 0.27572 0.17506 0.0
H25 H 0.25148 0.30072 0.112 0.0
H26 H 0.80653 0.82279 0.04024 0.0
H27 H 0.29226 0.27262 0.03858 0.0
H28 H 1.01639 0.85661 0.81359 0.0
N29 N 0.92786 0.90398 0.98971 0.0
C30 C 0.92994 0.87033 0.95235 0.0
C31 C 0.84151 0.8353 1.01567 0.0
C32 C 0.88812 0.81739 0.94561 0.0
C33 C 0.88301 0.88786 0.02017 0.0
C34 C 0.84442 0.79962 0.97843 0.0
N35 N 1.01061 0.94181 0.92646 0.0
C36 C 0.04924 0.9644 0.89336 0.0
C37 C 0.97272 0.85845 0.87857 0.0
C38 C 0.97187 0.89027 0.91926 0.0
C39 C 1.01452 0.88022 0.84538 0.0
C40 C 0.0528 0.93366 0.85276 0.0
H41 H 0.81145 0.75929 0.97432 0.0
H42 H 0.85668 0.74504 0.89867 0.0
H43 H 0.92818 0.78448 0.83987 0.0
O44 O 1.00739 0.0359 0.95725 0.0
O45 O 0.04936 0.94314 0.96385 0.0
O46 O 0.12723 1.00161 0.98453 0.0
O47 O 0.93141 0.96875 0.9759 0.0
O48 O 0.06359 0.0692 0.98064 0.0
O49 O 0.12523 0.05788 0.97604 0.0
O50 O 0.08463 1.00161 0.08038 0.0
O51 O 0.04082 0.09097 0.07637 0.0
O52 O 0.96523 0.03527 0.05166 0.0
O53 O 0.16221 0.06525 0.06032 0.0
O54 O 1.03083 0.97104 0.05893 0.0
O55 O 0.96551 0.97586 0.0597 0.0
C56 C 0.10011 0.95415 0.95939 0.0
C57 C 0.93419 0.04408 0.97548 0.0
C58 C 0.92365 0.10211 0.95484 0.0
C59 C 0.8804 0.09274 0.98896 0.0
C60 C 0.8896 0.03334 1.00783 0.0
C61 C 0.8643 0.05942 1.01562 0.0
C62 C 0.95356 0.08212 0.95219 0.0
C63 C 0.11115 0.08004 0.96276 0.0
C64 C 0.95683 1.01131 0.96087 0.0
C65 C 0.88918 0.78528 0.90516 0.0
C66 C 0.93031 0.80681 0.8716 0.0
C67 C 0.99033 0.08053 0.07973 0.0
C68 C 0.15307 0.98633 0.06215 0.0
C69 C 0.15226 0.91798 0.07975 0.0
C70 C 0.1945 0.92452 0.04491 0.0
C71 C 0.19571 0.99263 0.02871 0.0
C72 C 0.12968 0.94672 0.08525 0.0
C73 C 0.215 0.96056 1.01932 0.0
C74 C 0.98287 0.95928 0.07596 0.0
C75 C 0.13462 0.02293 0.07622 0.0
H76 H 0.857 0.10868 0.99428 0.0
H77 H 0.87398 1.00456 0.02668 0.0
H78 H 0.83049 0.05185 0.04114 0.0
H79 H 0.98975 0.09202 0.92921 0.0
H80 H 0.21374 0.9037 0.03756 0.0
H81 H 0.21434 0.02241 1.01003 0.0
H82 H 0.09509 0.9407 0.10891 0.0
H83 H 0.24761 0.96521 0.99311 0.0
Tb84 Tb 0.25654 0.80535 0.29421 0.0
C85 C 0.38417 0.70903 0.16381 0.0
N86 N 0.33316 0.68551 0.18409 0.0
C87 C 0.30791 0.6194 0.12044 0.0
C88 C 0.39903 0.68841 0.12097 0.0
C89 C 0.29532 0.64043 0.16329 0.0
C90 C 0.36003 0.64348 0.09914 0.0
C91 C 0.47518 0.77902 0.16643 0.0
C92 C 0.42167 0.75413 0.18612 0.0
C93 C 0.49025 0.75774 0.12429 0.0
C94 C 0.45225 0.71283 0.10148 0.0
Tb95 Tb 0.31801 0.72297 0.25459 0.0
N96 N 0.40553 0.77409 0.22677 0.0
C97 C 0.512 0.82461 0.18965 0.0
C98 C 0.4419 0.81746 0.24996 0.0
C99 C 0.49525 0.84381 0.23164 0.0
H100 H 0.25594 0.61887 0.18014 0.0
H101 H 0.52357 0.87837 0.2503 0.0
H102 H 0.32396 0.91702 0.36104 0.0
H103 H 0.0509 0.65001 0.31109 0.0
H104 H 0.431 0.83127 0.28297 0.0
H105 H 0.55343 0.84491 0.17566 0.0
H106 H 0.14241 0.69421 0.27399 0.0
H107 H 0.27762 0.58359 0.10434 0.0
H108 H 0.53121 0.7758 0.10913 0.0
H109 H 0.46443 0.69719 0.06885 0.0
H110 H 0.30786 0.9584 0.43618 0.0
H111 H 0.36988 0.62645 0.06625 0.0
H112 H 1.02571 0.69008 0.38474 0.0
N113 N 0.24641 0.84944 0.36299 0.0
C114 C 0.19675 0.82708 0.38603 0.0
C115 C 0.27638 0.92107 0.42269 0.0
C116 C 0.18487 0.85133 0.42824 0.0
C117 C 0.28581 0.89669 0.38032 0.0
C118 C 0.22564 0.89832 0.4468 0.0
N119 N 0.1709 0.75687 0.32677 0.0
C120 C 0.13303 0.71125 0.30648 0.0
C121 C 0.10503 0.75674 0.38908 0.0
C122 C 0.15748 0.77996 0.36697 0.0
C123 C 0.06646 0.70921 0.36882 0.0
C124 C 0.08057 0.68637 0.32734 0.0
H125 H 0.21807 0.91807 0.47918 0.0
H126 H 0.1227 0.84728 0.48224 0.0
H127 H 0.05255 0.76613 0.4472 0.0
O128 O 0.2142 0.80371 0.25708 0.0
O129 O 0.2319 0.75403 0.33927 0.0
O130 O 0.23905 0.6848 0.29551 0.0
O131 O 0.26283 0.87532 0.29899 0.0
O132 O 0.23943 0.74672 0.23337 0.0
O133 O 0.23891 0.67827 0.23943 0.0
O134 O 0.35693 0.71879 0.29054 0.0
O135 O 0.3425 0.77439 0.20972 0.0
O136 O 0.33468 0.84346 0.25302 0.0
O137 O 0.3101 0.65096 0.24504 0.0
O138 O 0.33403 0.77967 0.31646 0.0
O139 O 0.33531 0.84865 0.31048 0.0
C140 C 0.22094 0.70568 0.33292 0.0
C141 C 0.21735 0.88278 0.2603 0.0
C142 C 0.16418 0.88601 0.22595 0.0
C143 C 0.17512 0.93434 0.25376 0.0
C144 C 0.23513 0.93506 0.28113 0.0
C145 C 0.21128 0.9591 0.28044 0.0
C146 C 0.18332 0.85884 0.23108 0.0
C147 C 0.22253 0.69636 0.22315 0.0
C148 C 0.23132 0.85327 0.27228 0.0
C149 C 0.13267 0.82868 0.45016 0.0
C150 C 0.09276 0.78202 0.43037 0.0
C151 C 0.35225 0.82219 0.21564 0.0
C152 C 0.35231 0.63798 0.28223 0.0
C153 C 0.4037 0.63138 0.3152 0.0
C154 C 0.39187 0.58307 0.28684 0.0
C155 C 0.33441 0.58633 0.25962 0.0
C156 C 0.38593 0.66003 0.31107 0.0
C157 C 0.35738 0.56088 0.25918 0.0
C158 C 0.35023 0.82989 0.32773 0.0
C159 C 0.33995 0.66983 0.27234 0.0
H160 H 0.15958 0.95556 0.25225 0.0
H161 H 0.26603 0.95685 0.29953 0.0
H162 H 0.22223 0.99789 0.29964 0.0
H163 H 0.17252 0.81997 0.21206 0.0
H164 H 0.40553 0.56015 0.28838 0.0
H165 H 0.30419 0.56628 0.24082 0.0
H166 H 0.39758 0.69883 0.33066 0.0
H167 H 0.34676 0.52289 0.23847 0.0
Tb168 Tb 0.50667 0.94197 0.53998 0.0
C169 C 0.65623 0.18956 0.50495 0.0
N170 N 0.61293 0.17248 0.5361 0.0
C171 C 0.65851 0.25273 0.58505 0.0
C172 C 0.70429 0.23585 0.51403 0.0
C173 C 0.61296 0.20404 0.57553 0.0
C174 C 0.70475 0.26838 0.55439 0.0
C175 C 0.69976 0.16379 0.43667 0.0
C176 C 0.65346 0.1576 0.4649 0.0
C177 C 0.74853 0.20846 0.44591 0.0
C178 C 0.75052 0.2459 0.48362 0.0
Tb179 Tb 0.5457 0.08714 0.51939 0.0
N180 N 0.60636 0.11215 0.45852 0.0
C181 C 0.69517 0.12153 0.40305 0.0
C182 C 0.60145 0.07866 0.41954 0.0
C183 C 0.64639 0.08173 0.39165 0.0
H184 H 0.57852 0.19095 0.60041 0.0
H185 H 0.64317 0.051 0.36373 0.0
H186 H 0.46468 0.83231 0.4666 0.0
H187 H 0.42079 0.99775 0.69826 0.0
H188 H 0.56372 0.04522 0.41265 0.0
H189 H 0.72834 0.11764 0.38714 0.0
H190 H 0.49563 1.00159 0.64426 0.0
H191 H 0.65845 0.27675 0.61675 0.0
H192 H 0.78473 0.21445 0.42433 0.0
H193 H 0.7882 0.28061 0.49016 0.0
H194 H 0.38161 0.74722 0.45739 0.0
H195 H 0.74071 0.3047 0.56257 0.0
H196 H 0.33179 0.92589 0.68663 0.0
N197 N 0.43623 0.85818 0.53095 0.0
C198 C 0.39481 0.84695 0.56369 0.0
C199 C 0.38474 0.7748 0.48752 0.0
C200 C 0.34524 0.80089 0.55837 0.0
C201 C 0.43207 0.82296 0.49311 0.0
C202 C 0.34082 0.76387 0.52019 0.0
N203 N 0.44946 0.92944 0.60361 0.0
C204 C 0.45746 0.96768 0.63981 0.0
C205 C 0.35716 0.88027 0.63189 0.0
C206 C 0.40122 0.88462 0.60101 0.0
C207 C 0.36452 0.92339 0.6656 0.0
C208 C 0.41493 0.96553 0.67116 0.0
H209 H 0.30345 0.72771 0.5151 0.0
H210 H 0.26242 0.76122 0.5859 0.0
H211 H 0.27242 0.83274 0.64685 0.0
O212 O 0.55158 0.93263 0.56439 0.0
O213 O 0.43775 0.94202 0.54282 0.0
O214 O 0.48474 0.02982 0.56048 0.0
O215 O 0.54114 0.89933 0.49914 0.0
O216 O 0.5582 0.01794 0.58277 0.0
O217 O 0.56728 0.09603 0.57968 0.0
O218 O 0.50517 0.09573 0.48922 0.0
O219 O 0.61288 0.07728 0.49249 0.0
O220 O 0.55387 1.01185 0.51916 0.0
O221 O 0.51074 0.13084 0.55534 0.0
O222 O 0.50056 1.01149 0.47369 0.0
O223 O 0.49814 0.93649 0.47523 0.0
C224 C 0.44129 0.98621 0.54919 0.0
C225 C 0.55963 0.85847 0.5319 0.0
C226 C 0.58063 0.82291 0.56985 0.0
C227 C 0.54737 0.77203 0.54805 0.0
C228 C 0.52654 0.80728 0.51106 0.0
C229 C 0.5216 0.76459 0.51833 0.0
C230 C 0.58874 0.86606 0.55938 0.0
C231 C 0.57575 0.06973 0.59604 0.0
C232 C 0.56115 0.90404 0.52886 0.0
C233 C 0.30134 0.79526 0.58991 0.0
C234 C 0.30715 0.83588 0.62544 0.0
C235 C 0.60067 0.03441 0.4978 0.0
C236 C 0.50129 0.17203 0.51595 0.0
C237 C 0.49026 0.20802 0.47074 0.0
C238 C 0.52241 0.25889 0.4934 0.0
C239 C 0.53167 0.22274 0.5388 0.0
C240 C 0.47739 0.16485 0.48456 0.0
C241 C 0.54137 0.26583 0.52789 0.0
C242 C 0.48801 0.96137 0.45882 0.0
C243 C 0.49473 0.12581 0.52289 0.0
H244 H 0.53883 0.7374 0.55531 0.0
H245 H 0.50269 0.79976 0.49065 0.0
H246 H 0.49541 0.72524 0.50259 0.0
H247 H 0.61516 0.90565 0.57468 0.0
H248 H 0.53465 0.2938 0.48405 0.0
H249 H 0.54871 0.22931 0.5644 0.0
H250 H 0.4513 0.12519 0.46915 0.0
H251 H 0.56541 0.30494 0.54517 0.0
Tb252 Tb 0.25736 0.29728 0.78756 0.0
C253 C 0.35485 0.17958 0.78565 0.0
N254 N 0.37395 0.2304 0.7866 0.0
C255 C 0.42813 0.25914 0.83625 0.0
C256 C 0.37138 0.16666 0.8104 0.0
C257 C 0.41254 0.27002 0.80964 0.0
C258 C 0.40732 0.20721 0.83684 0.0
C259 C 0.30161 0.08734 0.75479 0.0
C260 C 0.31992 0.14032 0.7586 0.0
C261 C 0.31852 0.07449 0.77894 0.0
C262 C 0.35268 0.1139 0.80715 0.0
Tb263 Tb 0.34375 0.24261 0.74227 0.0
N264 N 0.30448 0.15422 0.73559 0.0
C265 C 0.26765 0.04892 0.72623 0.0
C266 C 0.27233 0.11673 0.70679 0.0
C267 C 0.25308 0.0637 0.70205 0.0
H268 H 0.43314 0.31023 0.80672 0.0
H269 H 0.22781 0.03434 0.67909 0.0
H270 H 0.18316 0.25616 0.71963 0.0
H271 H 0.40009 0.49767 0.85745 0.0
H272 H 0.26255 0.12697 0.68604 0.0
H273 H 0.25334 1.00794 0.72196 0.0
H274 H 0.33126 0.40553 0.85955 0.0
H275 H 0.45704 0.29095 0.85559 0.0
H276 H 0.30606 0.0343 0.77557 0.0
H277 H 0.36535 0.10328 0.82556 0.0
H278 H 0.17905 0.29221 0.6688 0.0
H279 H 0.42049 0.19892 0.85674 0.0
H280 H 0.41783 0.5358 0.79774 0.0
N281 N 0.25025 0.32774 0.74086 0.0
C282 C 0.28376 0.37973 0.74026 0.0
C283 C 0.2091 0.31713 0.68837 0.0
C284 C 0.28418 0.40167 0.71091 0.0
C285 C 0.21169 0.29671 0.71687 0.0
C286 C 0.24608 0.36967 0.68483 0.0
N287 N 0.31454 0.38779 0.7979 0.0
C288 C 0.34026 0.41982 0.83167 0.0
C289 C 0.35666 0.46353 0.76658 0.0
C290 C 0.3188 0.41017 0.76827 0.0
C291 C 0.38814 0.49461 0.79785 0.0
C292 C 0.37849 0.47309 0.83142 0.0
H293 H 0.24494 0.38506 0.66192 0.0
H294 H 0.32654 0.47094 0.68364 0.0
H295 H 0.39217 0.5237 0.73021 0.0
O296 O 0.21713 0.33397 0.82357 0.0
O297 O 0.30501 0.30629 0.72181 0.0
O298 O 0.3776 0.32209 0.73347 0.0
O299 O 0.17474 0.24966 0.80138 0.0
O300 O 0.30447 0.3176 0.83432 0.0
O301 O 0.37589 0.3193 0.7873 0.0
O302 O 0.37015 0.22624 0.67608 0.0
O303 O 0.27199 0.19727 0.78993 0.0
O304 O 0.24524 0.25425 0.83282 0.0
O305 O 0.42028 0.25858 0.72098 0.0
O306 O 0.28837 0.21531 0.69985 0.0
O307 O 0.21928 0.21725 0.74866 0.0
C308 C 0.35623 0.32929 0.71222 0.0
C309 C 0.13423 0.28465 0.86404 0.0
C310 C 0.10786 0.34306 0.91214 0.0
C311 C 0.05533 0.30408 0.90836 0.0
C312 C 0.08162 0.24389 0.86265 0.0
C313 C 0.04203 0.25362 0.88599 0.0
C314 C 0.14594 0.33076 0.89471 0.0
C315 C 0.35346 0.33001 0.82675 0.0
C316 C 0.17166 0.29004 0.824 0.0
C317 C 0.32382 0.45387 0.70738 0.0
C318 C 0.36089 0.4842 0.73434 0.0
C319 C 0.24398 0.2104 0.82554 0.0
C320 C 0.42614 0.19627 0.66284 0.0
C321 C 0.39685 0.1052 0.63187 0.0
C322 C 0.44001 0.11312 0.64253 0.0
C323 C 0.47018 0.20427 0.67173 0.0
C324 C 0.39068 0.14707 0.64125 0.0
C325 C 0.47685 0.16263 0.66175 0.0
C326 C 0.23834 0.20062 0.70993 0.0
C327 C 0.41398 0.23707 0.68159 0.0
H328 H 1.02523 0.31335 0.9208 0.0
H329 H 0.07165 0.20746 0.83949 0.0
H330 H 1.00196 0.22436 0.88261 0.0
H331 H 0.18652 0.36211 0.89668 0.0
H332 H 0.4463 0.08137 0.63459 0.0
H333 H 0.49822 0.24224 0.68796 0.0
H334 H 0.35752 0.14069 0.63282 0.0
H335 H 0.51031 0.1686 0.66924 0.0
Tb336 Tb 1.00786 0.05501 0.54164 0.0
C337 C 0.14084 0.95199 0.42721 0.0
N338 N 0.08837 0.9306 0.44156 0.0
C339 C 0.07034 0.85601 0.3838 0.0
C340 C 0.15988 0.92442 0.39215 0.0
C341 C 0.05289 0.88385 0.41983 0.0
C342 C 0.12404 0.87587 0.37039 0.0
C343 C 0.23042 0.0241 0.43453 0.0
C344 C 0.17576 1.00104 0.44876 0.0
C345 C 0.24933 0.99562 0.40074 0.0
C346 C 0.21393 0.94538 0.38081 0.0
Tb347 Tb 0.06859 0.97249 0.50788 0.0
N348 N 0.1561 0.0261 0.48342 0.0
C349 C 0.26443 0.07437 0.45551 0.0
C350 C 0.18929 0.07515 0.50418 0.0
C351 C 0.24367 0.10028 0.49014 0.0
H352 H 1.01118 0.86594 0.43178 0.0
H353 H 0.26957 0.13931 0.50656 0.0
H354 H 0.05939 0.15335 0.62499 0.0
H355 H 0.80843 0.88655 0.53506 0.0
H356 H 0.17469 0.09582 0.53096 0.0
H357 H 0.30665 0.09342 0.44528 0.0
H358 H 0.90389 0.92929 0.51642 0.0
H359 H 0.04237 0.81829 0.36741 0.0
H360 H 0.29113 1.01146 0.39043 0.0
H361 H 0.2286 0.9224 0.35722 0.0
H362 H 1.02542 0.20151 0.68626 0.0
H363 H 0.13738 0.85341 0.34331 0.0
H364 H 0.76875 0.93394 0.59096 0.0
N365 N 0.98403 0.09244 0.60865 0.0
C366 C 0.93163 0.07271 0.61886 0.0
C367 C 0.9987 0.16529 0.66754 0.0
C368 C 0.91142 0.10107 0.65142 0.0
C369 C 1.01762 0.13704 0.63338 0.0
C370 C 0.94566 0.14813 0.67573 0.0
N371 N 0.91972 0.99969 0.56252 0.0
C372 C 0.88798 0.95041 0.54117 0.0
C373 C 0.8437 1.0027 0.60552 0.0
C374 C 0.89835 0.02468 0.59529 0.0
C375 C 0.81104 0.95244 0.58361 0.0
C376 C 0.8333 0.92572 0.55194 0.0
H377 H 0.93159 0.17131 0.70096 0.0
H378 H 0.84277 0.10551 0.67986 0.0
H379 H 0.78217 0.01742 0.64334 0.0
O380 O 0.9737 0.0629 0.50383 0.0
O381 O 0.97524 1.0005 0.58639 0.0
O382 O 0.9865 0.93342 0.54249 0.0
O383 O 1.01574 0.12731 0.55159 0.0
O384 O 0.99838 1.00291 0.47695 0.0
O385 O 0.99586 0.93238 0.48196 0.0
O386 O 0.10207 0.96884 0.54936 0.0
O387 O 0.1014 0.02742 0.4632 0.0
O388 O 0.08901 0.09407 0.50599 0.0
O389 O 0.06484 0.9029 0.50049 0.0
O390 O 0.07745 0.02488 0.57204 0.0
O391 O 0.08159 0.09583 0.56639 0.0
C392 C 0.96587 0.95259 0.57937 0.0
C393 C 1.01036 0.14904 0.49462 0.0
C394 C 0.99572 0.17514 0.44386 0.0
C395 C 0.04737 0.21929 0.4425 0.0
C396 C 0.06095 0.19482 0.49428 0.0
C397 C 0.07949 0.22918 0.46783 0.0
C398 C 0.97758 0.14002 0.46996 0.0
C399 C 0.98564 0.95367 0.46262 0.0
C400 C 0.98993 0.11175 0.5221 0.0
C401 C 0.85803 0.08211 0.65783 0.0
C402 C 0.82377 0.0323 0.63632 0.0
C403 C 0.10945 0.07462 0.46936 0.0
C404 C 0.06707 0.88382 0.56087 0.0
C405 C 0.07625 0.86177 0.61832 0.0
C406 C 1.02738 0.81412 0.61448 0.0
C407 C 1.02014 0.83441 0.5562 0.0
C408 C 0.09543 0.89685 0.59155 0.0
C409 C 0.99995 0.80056 0.58353 0.0
C410 C 0.09348 0.07495 0.58458 0.0
C411 C 0.08838 0.92034 0.5321 0.0
H412 H 0.06251 0.24692 0.42264 0.0
H413 H 0.08668 0.20345 0.51361 0.0
H414 H 0.11884 0.2638 0.4671 0.0
H415 H 0.93816 0.10534 0.47073 0.0
H416 H 1.01133 0.78579 0.6339 0.0
H417 H 0.99807 0.82245 0.53225 0.0
H418 H 0.13241 0.93419 0.59443 0.0
H419 H 0.9632 0.76312 0.58024 0.0
Tb420 Tb 0.25772 0.71064 0.79359 0.0
C421 C 0.43638 0.89613 0.72582 0.0
N422 N 0.39597 0.8907 0.75873 0.0
C423 C 0.45216 0.97768 0.79566 0.0
C424 C 0.48694 0.94191 0.72703 0.0
C425 C 0.40254 0.9317 0.79267 0.0
C426 C 0.49484 0.98252 0.76295 0.0
C427 C 0.46506 0.86231 0.6533 0.0
C428 C 0.42568 0.85731 0.68939 0.0
C429 C 0.51608 0.90677 0.65486 0.0
C430 C 0.52722 0.94638 0.69164 0.0
Tb431 Tb 0.31817 0.81193 0.75063 0.0
N432 N 0.37565 0.8158 0.68862 0.0
C433 C 0.45128 0.82306 0.61662 0.0
C434 C 0.36084 0.78087 0.65143 0.0
C435 C 0.399 0.78258 0.61523 0.0
H436 H 0.36965 0.92951 0.81747 0.0
H437 H 0.38819 0.75331 0.58625 0.0
H438 H 0.20174 0.59009 0.73217 0.0
H439 H 0.19223 0.77769 0.95753 0.0
H440 H 0.3202 0.75006 0.65062 0.0
H441 H 0.48008 0.82428 0.58886 0.0
H442 H 0.2582 0.77789 0.89223 0.0
H443 H 0.45729 1.00957 0.82292 0.0
H444 H 0.54702 0.91179 0.62765 0.0
H445 H 0.56665 0.98079 0.69199 0.0
H446 H 0.11223 0.51224 0.72834 0.0
H447 H 0.53314 0.01842 0.765 0.0
H448 H 0.09898 0.70864 0.95703 0.0
N449 N 0.17748 0.63418 0.78741 0.0
C450 C 0.13782 0.6319 0.82028 0.0
C451 C 0.11863 0.54599 0.75398 0.0
C452 C 0.0864 0.58709 0.82063 0.0
C453 C 0.16916 0.59081 0.75565 0.0
C454 C 0.07678 0.54446 0.78627 0.0
N455 N 0.20095 0.71281 0.85537 0.0
C456 C 0.21711 0.74831 0.8921 0.0
C457 C 0.11172 0.66948 0.89235 0.0
C458 C 0.15017 0.67232 0.85573 0.0
C459 C 0.12711 0.70914 0.92859 0.0
C460 C 0.18003 0.74828 0.92887 0.0
H461 H 1.03783 0.50926 0.78548 0.0
H462 H 1.0074 0.55095 0.85753 0.0
H463 H 1.03035 0.6219 0.9203 0.0
O464 O 0.30735 0.72249 0.829 0.0
O465 O 0.21225 0.76283 0.82292 0.0
O466 O 0.27631 0.84389 0.81364 0.0
O467 O 0.24105 0.64561 0.8114 0.0
O468 O 0.33626 0.77532 0.80977 0.0
O469 O 0.3245 0.83763 0.81823 0.0
O470 O 0.25668 0.79822 0.72844 0.0
O471 O 0.36472 0.76078 0.71814 0.0
O472 O 0.30433 0.68048 0.73233 0.0
O473 O 0.33033 0.87319 0.73102 0.0
O474 O 0.24526 0.74579 0.72631 0.0
O475 O 0.24986 0.68048 0.72569 0.0
C476 C 0.22622 0.81587 0.83349 0.0
C477 C 0.31849 0.65171 0.81221 0.0
C478 C 0.3826 0.64486 0.82771 0.0
C479 C 0.38364 0.61234 0.78749 0.0
C480 C 0.31774 0.61655 0.77307 0.0
C481 C 0.35109 0.59795 0.76043 0.0
C482 C 0.35151 0.66594 0.83911 0.0
C483 C 0.34496 0.82148 0.83066 0.0
C484 C 0.2842 0.6727 0.82645 0.0
C485 C 0.04717 0.58502 0.8564 0.0
C486 C 0.06008 0.62589 0.89224 0.0
C487 C 0.35295 0.70873 0.70967 0.0
C488 C 0.25237 0.87341 0.74314 0.0
C489 C 0.19409 0.8926 0.7332 0.0
C490 C 0.20175 0.92909 0.77195 0.0
C491 C 0.26198 0.91234 0.78064 0.0
C492 C 0.21682 0.86272 0.72042 0.0
C493 C 0.23516 0.93842 0.79575 0.0
C494 C 0.23492 0.6984 0.70858 0.0
C495 C 0.28209 0.84688 0.72496 0.0
H496 H 0.40914 0.59765 0.77761 0.0
H497 H 0.29173 0.6036 0.75218 0.0
H498 H 0.35123 0.57185 0.7298 0.0
H499 H 0.35384 0.69374 0.86887 0.0
H500 H 0.18351 0.95167 0.78294 0.0
H501 H 0.29036 0.92299 0.79815 0.0
H502 H 0.20709 0.83184 0.6923 0.0
H503 H 0.24214 0.96776 0.82504 0.0
Tb504 Tb 0.50115 0.04776 0.05082 0.0
C505 C 0.62332 0.93254 1.01652 0.0
N506 N 0.63924 0.97628 1.00416 0.0
C507 C 0.7283 1.01169 1.00613 0.0
C508 C 0.65947 0.92732 0.02531 0.0
C509 C 0.69109 0.01489 0.99734 0.0
C510 C 0.71243 0.96813 0.02077 0.0
C511 C 0.55477 0.84281 0.02442 0.0
C512 C 0.57152 0.89088 1.01626 0.0
C513 C 0.58973 0.83877 0.03623 0.0
C514 C 0.642 0.88081 0.03656 0.0
Tb515 Tb 0.57473 0.97792 0.99307 0.0
N516 N 0.53879 0.8964 1.00481 0.0
C517 C 0.50419 0.79978 1.01879 0.0
C518 C 0.49006 0.85396 0.99766 0.0
C519 C 0.4721 0.80515 1.00458 0.0
H520 H 0.70341 0.04839 0.98569 0.0
H521 H 0.43331 0.77185 0.99938 0.0
H522 H 0.38185 0.99618 0.03336 0.0
H523 H 0.67569 0.2465 0.05452 0.0
H524 H 0.46429 0.85741 0.98744 0.0
H525 H 0.49003 0.76201 0.0243 0.0
H526 H 0.62459 0.15668 0.06423 0.0
H527 H 0.76909 0.0427 1.00137 0.0
H528 H 0.5773 0.80265 0.04363 0.0
H529 H 0.66898 0.87626 0.04407 0.0
H530 H 0.3405 0.02271 1.00662 0.0
H531 H 0.74151 0.96557 0.02709 0.0
H532 H 0.63958 0.27766 0.02676 0.0
N533 N 0.45674 0.06741 0.0285 0.0
C534 C 0.48536 0.11649 1.01984 0.0
C535 C 0.3813 0.04925 1.0099 0.0
C536 C 0.4629 0.13328 1.00494 0.0
C537 C 0.40495 0.03427 0.02483 0.0
C538 C 0.41052 0.09871 0.99946 0.0
N539 N 0.55678 0.13446 0.04406 0.0
C540 C 0.60641 0.16845 0.0533 0.0
C541 C 0.56564 0.203 0.02172 0.0
C542 C 0.53636 0.15116 0.02848 0.0
C543 C 0.61607 0.23753 0.03141 0.0
C544 C 0.63647 0.22014 0.04724 0.0
H545 H 0.39191 0.11028 0.98816 0.0
H546 H 0.47614 0.19804 0.98578 0.0
H547 H 0.56549 0.25913 1.0016 0.0
O548 O 0.47154 0.03596 0.11419 0.0
O549 O 0.54926 0.06366 0.9862 0.0
O550 O 0.61887 0.06126 0.98474 0.0
O551 O 0.45919 0.08235 0.0931 0.0
O552 O 0.56468 0.07421 0.08242 0.0
O553 O 0.62048 0.04506 0.04085 0.0
O554 O 0.58392 0.98241 0.92979 0.0
O555 O 0.52334 0.953 0.05479 0.0
O556 O 0.4588 0.966 0.06112 0.0
O557 O 0.60569 0.93783 0.94308 0.0
O558 O 0.501 0.93965 0.97072 0.0
O559 O 0.45657 0.98285 1.00174 0.0
C560 C 0.59936 0.08001 0.97221 0.0
C561 C 0.38872 0.02655 0.13727 0.0
C562 C 0.31194 0.03112 0.1717 0.0
C563 C 0.27978 0.97925 0.15206 0.0
C564 C 0.35677 0.97486 0.11612 0.0
C565 C 0.30229 0.95067 0.12483 0.0
C566 C 0.36567 0.05327 0.16665 0.0
C567 C 0.60655 0.07233 0.07604 0.0
C568 C 0.44534 0.0578 0.12257 0.0
C569 C 0.49269 0.18444 0.99728 0.0
C570 C 0.54369 0.21918 1.00595 0.0
C571 C 0.47693 0.94628 0.07407 0.0
C572 C 0.66022 0.98179 0.88728 0.0
C573 C 0.74104 0.9829 0.8607 0.0
C574 C 0.76848 0.03527 0.85707 0.0
C575 C 0.68722 0.03322 0.8811 0.0
C576 C 0.68672 0.95587 0.87406 0.0
C577 C 0.74145 0.06003 0.86602 0.0
C578 C 0.46368 0.94642 0.97277 0.0
C579 C 0.60815 0.95722 0.91423 0.0
H580 H 0.23847 0.96294 0.15514 0.0
H581 H 0.37347 0.95378 0.09167 0.0
H582 H 0.27825 0.91132 0.10787 0.0
H583 H 0.39044 0.09413 0.18115 0.0
H584 H 0.81046 0.05686 0.84849 0.0
H585 H 0.66668 0.05276 0.88907 0.0
H586 H 0.66533 0.91529 0.87723 0.0
H587 H 0.76272 0.10044 0.86279 0.0
Tb588 Tb 0.21039 0.24643 0.26991 0.0
C589 C 0.45386 0.39066 0.29502 0.0
N590 N 0.43932 0.3484 0.26231 0.0
C591 C 0.51595 0.40063 0.21451 0.0
C592 C 0.49863 0.44033 0.28804 0.0
C593 C 0.46904 0.3532 0.22211 0.0
C594 C 0.53102 0.44442 0.2477 0.0
C595 C 0.42475 0.43073 0.36433 0.0
C596 C 0.41966 0.38555 0.33406 0.0
C597 C 0.46859 0.48036 0.35716 0.0
C598 C 0.50671 0.48498 0.32005 0.0
Tb599 Tb 0.35514 0.27835 0.2747 0.0
N600 N 0.375 0.33743 0.3381 0.0
C601 C 0.38284 0.42473 0.39847 0.0
C602 C 0.33892 0.33119 0.37541 0.0
C603 C 0.34182 0.37487 0.40581 0.0
H604 H 0.45592 0.32092 0.1953 0.0
H605 H 0.31067 0.3701 0.43344 0.0
H606 H 0.10587 0.19332 0.34298 0.0
H607 H 0.27115 0.1739 0.10821 0.0
H608 H 0.30531 0.29339 0.38076 0.0
H609 H 0.38064 0.45803 0.41873 0.0
H610 H 0.26365 0.24365 0.16307 0.0
H611 H 0.53919 0.40405 0.18259 0.0
H612 H 0.47278 0.5156 0.37927 0.0
H613 H 0.54013 0.52365 0.31502 0.0
H614 H 1.02954 0.10452 0.35119 0.0
H615 H 0.56597 0.48179 0.24122 0.0
H616 H 0.21053 0.08259 0.11848 0.0
N617 N 0.1288 0.17135 0.27608 0.0
C618 C 0.11974 0.13108 0.24174 0.0
C619 C 0.05413 0.11157 0.32005 0.0
C620 C 0.07982 0.07885 0.24624 0.0
C621 C 0.09692 0.16215 0.31503 0.0
C622 C 0.04563 0.06965 0.28549 0.0
N623 N 0.19765 0.19215 0.20345 0.0
C624 C 0.23504 0.204 0.16717 0.0
C625 C 0.15916 0.10001 0.17309 0.0
C626 C 0.15673 0.14149 0.20427 0.0
C627 C 0.2032 0.11241 0.14014 0.0
C628 C 0.23895 0.16428 0.13526 0.0
H629 H 1.01501 0.03005 0.2902 0.0
H630 H 0.05045 0.99693 0.21693 0.0
H631 H 0.12362 0.01601 0.15648 0.0
O632 O 0.20447 0.29923 0.25301 0.0
O633 O 0.21603 0.17892 0.25721 0.0
O634 O 0.29844 0.23331 0.23494 0.0
O635 O 0.15762 0.26971 0.31043 0.0
O636 O 0.28334 0.30332 0.22806 0.0
O637 O 0.35422 0.29309 0.21523 0.0
O638 O 0.3545 0.2211 0.29159 0.0
O639 O 0.34865 0.34639 0.29122 0.0
O640 O 0.26507 0.29213 0.31194 0.0
O641 O 0.40397 0.25027 0.23422 0.0
O642 O 0.28405 0.22564 0.32003 0.0
O643 O 0.20909 0.22877 0.32934 0.0
C644 C 0.26159 0.18627 0.23943 0.0
C645 C 0.1224 0.29322 0.2765 0.0
C646 C 0.08422 0.29729 0.22814 0.0
C647 C 1.03498 0.27431 0.25483 0.0
C648 C 0.07296 0.27167 0.30343 0.0
C649 C 1.0299 0.26358 0.29309 0.0
C650 C 0.12839 0.31028 0.24087 0.0
C651 C 0.3327 0.3149 0.20879 0.0
C652 C 0.16741 0.29801 0.28537 0.0
C653 C 0.07953 0.03736 0.21352 0.0
C654 C 0.12071 0.04809 0.17832 0.0
C655 C 0.30288 0.33926 0.30857 0.0
C656 C 0.4295 0.21275 0.26347 0.0
C657 C 0.46476 0.19773 0.30656 0.0
C658 C 0.50654 0.20235 0.27252 0.0
C659 C 0.47125 0.2164 0.22951 0.0
C660 C 0.42496 0.20004 0.30097 0.0
C661 C 0.50919 0.21074 0.23393 0.0
C662 C 0.23384 0.21177 0.33832 0.0
C663 C 0.38937 0.21876 0.25828 0.0
H664 H 1.00046 0.26439 0.24588 0.0
H665 H 0.06758 0.26101 0.33237 0.0
H666 H 0.99203 0.24743 0.31409 0.0
H667 H 0.16691 0.33161 0.22201 0.0
H668 H 0.53767 0.20074 0.27616 0.0
H669 H 0.47441 0.22333 0.19943 0.0
H670 H 0.39166 0.19424 0.32679 0.0
H671 H 0.54145 0.21415 0.20768 0.0
Tb672 Tb 0.50712 0.55498 0.04047 0.0
C673 C 0.63953 0.4531 0.9243 0.0
N674 N 0.5871 0.43107 0.93971 0.0
C675 C 0.56865 0.35969 0.87896 0.0
C676 C 0.65835 0.42816 0.88623 0.0
C677 C 0.55144 0.38538 0.9172 0.0
C678 C 0.62229 0.3809 0.86358 0.0
C679 C 0.72929 0.52419 0.93192 0.0
C680 C 0.67468 0.50037 0.94731 0.0
C681 C 0.74799 0.49866 0.89454 0.0
C682 C 0.71249 0.45037 0.87245 0.0
Tb683 Tb 0.56694 0.47072 1.00753 0.0
N684 N 0.65527 0.52328 0.98433 0.0
C685 C 0.76352 0.57254 0.95489 0.0
C686 C 0.68882 0.57005 1.00724 0.0
C687 C 0.74312 0.59571 0.99256 0.0
H688 H 0.50984 0.36663 0.92995 0.0
H689 H 0.76928 0.63297 1.01078 0.0
H690 H 0.56003 0.65481 0.12249 0.0
H691 H 0.30714 0.3867 0.03555 0.0
H692 H 0.67471 0.5881 0.03685 0.0
H693 H 0.80568 0.59214 0.94395 0.0
H694 H 0.40239 0.43014 1.01491 0.0
H695 H 0.54074 0.32263 0.86199 0.0
H696 H 0.78978 0.51544 0.88283 0.0
H697 H 0.72702 0.42971 0.84526 0.0
H698 H 0.5265 0.70155 0.18565 0.0
H699 H 0.63546 0.36035 0.83437 0.0
H700 H 0.26787 0.4329 0.09381 0.0
N701 N 0.48411 0.59297 0.10763 0.0
C702 C 0.43158 0.57254 0.11909 0.0
C703 C 0.49946 0.66524 0.16722 0.0
C704 C 0.41144 0.59999 0.15307 0.0
C705 C 0.51817 0.63777 0.13194 0.0
C706 C 0.44605 0.64707 0.17711 0.0
N707 N 0.41894 0.50003 0.06188 0.0
C708 C 0.38685 0.45091 0.04052 0.0
C709 C 0.34314 0.50194 0.1073 0.0
C710 C 0.39792 0.52458 0.09565 0.0
C711 C 0.3102 0.45183 0.08541 0.0
C712 C 0.33222 0.42577 0.05244 0.0
H713 H 0.43198 0.66951 0.20341 0.0
H714 H 0.34243 0.60316 0.184 0.0
H715 H 0.2815 0.5153 0.14775 0.0
O716 O 0.47578 0.56347 1.00046 0.0
O717 O 0.47442 0.50064 0.0853 0.0
O718 O 0.48462 0.433 0.04147 0.0
O719 O 0.51308 0.62634 0.05092 0.0
O720 O 0.49828 0.50271 0.97603 0.0
O721 O 0.49385 0.43177 0.9825 0.0
O722 O 0.59344 0.46129 0.05099 0.0
O723 O 0.60095 0.52623 0.96343 0.0
O724 O 0.58907 0.59337 1.00589 0.0
O725 O 0.56411 0.401 0.99662 0.0
O726 O 0.57847 0.52552 0.07117 0.0
O727 O 0.58037 0.59538 0.06526 0.0
C728 C 0.46481 0.45271 0.0785 0.0
C729 C 0.51296 0.65073 0.99313 0.0
C730 C 0.50312 0.68141 0.94257 0.0
C731 C 0.55463 0.7254 0.94384 0.0
C732 C 0.56358 0.6961 0.99496 0.0
C733 C 0.58459 0.73237 0.96961 0.0
C734 C 0.48265 0.64401 0.9673 0.0
C735 C 0.48451 0.45318 0.96249 0.0
C736 C 0.49013 0.6117 1.0197 0.0
C737 C 0.3577 0.58022 0.16115 0.0
C738 C 0.32325 0.53063 0.13962 0.0
C739 C 0.60996 0.57374 0.96962 0.0
C740 C 0.55848 0.37292 0.05481 0.0
C741 C 0.56574 0.33802 0.10377 0.0
C742 C 0.51595 0.29257 0.09842 0.0
C743 C 0.50989 0.32595 0.04858 0.0
C744 C 0.5865 0.37837 0.08207 0.0
C745 C 0.48832 0.28678 0.07112 0.0
C746 C 0.59132 0.57491 0.0847 0.0
C747 C 0.58265 0.41438 0.03026 0.0
H748 H 0.57162 0.75498 0.92539 0.0
H749 H 0.58757 0.70288 1.01503 0.0
H750 H 0.62413 0.76646 0.97037 0.0
H751 H 0.44338 0.60938 0.96614 0.0
H752 H 0.49888 0.2608 0.11448 0.0
H753 H 0.48795 0.31994 0.02702 0.0
H754 H 0.62448 0.41403 0.08629 0.0
H755 H 0.45035 0.25128 0.06681 0.0
Tb756 Tb 0.75825 0.21399 0.29627 0.0
C757 C 0.93943 0.38947 0.2217 0.0
N758 N 0.89975 0.38816 0.25398 0.0
C759 C 0.96031 0.47413 0.28915 0.0
C760 C 0.9918 0.43176 0.2229 0.0
C761 C 0.90896 0.43126 0.2862 0.0
C762 C 1.00216 0.47387 0.25781 0.0
C763 C 0.96514 0.35161 0.14983 0.0
C764 C 0.92651 0.35064 0.18554 0.0
C765 C 1.01794 0.39169 0.15173 0.0
C766 C 1.0314 0.43174 0.18816 0.0
Tb767 Tb 0.81889 0.31274 0.24697 0.0
N768 N 0.8752 0.31262 0.18488 0.0
C769 C 0.94888 0.31302 0.1132 0.0
C770 C 0.85866 0.27921 0.14765 0.0
C771 C 0.89562 0.2777 0.11139 0.0
H772 H 0.87674 0.43285 0.3096 0.0
H773 H 0.88324 0.24931 0.08235 0.0
H774 H 0.69758 0.09492 0.23236 0.0
H775 H 0.69351 0.28745 0.45897 0.0
H776 H 0.81725 0.25158 0.14707 0.0
H777 H 0.97669 0.31061 0.08594 0.0
H778 H 0.7595 0.28473 0.39446 0.0
H779 H 0.96749 0.50756 0.31528 0.0
H780 H 0.04847 0.39366 0.12476 0.0
H781 H 0.07209 0.46351 0.18837 0.0
H782 H 0.60701 0.01998 0.22946 0.0
H783 H 0.04186 0.50734 0.25979 0.0
H784 H 0.59945 0.21935 0.45919 0.0
N785 N 0.67642 0.1403 0.28911 0.0
C786 C 0.63746 0.13941 0.32249 0.0
C787 C 0.61487 0.05365 0.25545 0.0
C788 C 0.58532 0.09588 0.32302 0.0
C789 C 0.6662 0.09698 0.2568 0.0
C790 C 0.57408 0.05335 0.28844 0.0
N791 N 0.70197 0.21978 0.35771 0.0
C792 C 0.71821 0.25577 0.39432 0.0
C793 C 0.61239 0.17862 0.39461 0.0
C794 C 0.65076 0.18005 0.3581 0.0
C795 C 0.62785 0.21895 0.43061 0.0
C796 C 0.68107 0.25741 0.43066 0.0
H797 H 0.53449 0.01918 0.28783 0.0
H798 H 0.50651 0.0615 0.36037 0.0
H799 H 0.53117 0.13253 0.42295 0.0
O800 O 0.80314 0.22288 0.33477 0.0
O801 O 0.71483 0.26771 0.32431 0.0
O802 O 0.77549 0.34654 0.30734 0.0
O803 O 0.73458 0.14797 0.31675 0.0
O804 O 0.83725 0.2779 0.30989 0.0
O805 O 0.82781 0.34104 0.31462 0.0
O806 O 0.76847 0.29882 0.21109 0.0
O807 O 0.86254 0.25928 0.21415 0.0
O808 O 0.80937 0.18428 0.23905 0.0
O809 O 0.83226 0.37666 0.2305 0.0
O810 O 0.74018 0.24557 0.23434 0.0
O811 O 0.7531 0.18456 0.22791 0.0
C812 C 0.72739 0.31958 0.33082 0.0
C813 C 0.80647 0.14736 0.31991 0.0
C814 C 0.86534 0.13342 0.33553 0.0
C815 C 0.86226 0.09817 0.29615 0.0
C816 C 0.80236 0.11039 0.2815 0.0
C817 C 0.83058 0.08648 0.26957 0.0
C818 C 0.83774 0.15845 0.34702 0.0
C819 C 0.84737 0.32486 0.32858 0.0
C820 C 0.77648 0.17267 0.33295 0.0
C821 C 0.5467 0.09481 0.35905 0.0
C822 C 0.56049 0.13577 0.39473 0.0
C823 C 0.85431 0.21005 0.21125 0.0
C824 C 0.75227 0.36653 0.23068 0.0
C825 C 0.68272 0.36755 0.21797 0.0
C826 C 0.6844 0.40319 0.25681 0.0
C827 C 0.75549 0.40458 0.26822 0.0
C828 C 0.7144 0.34695 0.20644 0.0
C829 C 0.72042 0.42124 0.28187 0.0
C830 C 0.73321 0.20001 0.21369 0.0
C831 C 0.78933 0.34854 0.21495 0.0
H832 H 0.88395 0.07933 0.28623 0.0
H833 H 0.77742 0.09986 0.26056 0.0
H834 H 0.82792 0.05913 0.23942 0.0
H835 H 0.84085 0.18664 0.37685 0.0
H836 H 0.65937 0.41861 0.26689 0.0
H837 H 0.785 0.42154 0.28703 0.0
H838 H 0.71183 0.31801 0.17711 0.0
H839 H 0.72206 0.44929 0.31144 0.0
Tb840 Tb 0.99862 0.54591 0.55091 0.0
C841 C 0.12829 0.44462 0.52242 0.0
N842 N 0.13709 0.48553 0.51056 0.0
C843 C 0.22734 0.53499 0.51779 0.0
C844 C 0.16805 0.44817 0.53457 0.0
C845 C 0.18659 0.52934 0.50574 0.0
C846 C 0.21777 0.4946 0.53303 0.0
C847 C 0.07077 0.35283 0.5276 0.0
C848 C 0.08065 0.39757 0.51858 0.0
C849 C 0.1089 0.35695 0.54253 0.0
C850 C 0.15755 0.40453 0.54589 0.0
Tb851 Tb 0.06664 0.47219 0.49361 0.0
N852 N 0.04592 0.39466 0.50227 0.0
C853 C 1.02395 0.30494 0.51947 0.0
C854 C 1.00209 0.34731 0.49126 0.0
C855 C 0.99005 0.30189 0.50029 0.0
H856 H 0.1938 0.56072 0.49433 0.0
H857 H 0.95462 0.26466 0.49259 0.0
H858 H 0.92975 0.53897 0.49299 0.0
H859 H 0.08666 0.70411 0.68131 0.0
H860 H 0.97567 0.34477 0.47654 0.0
H861 H 1.0146 0.26974 0.52628 0.0
H862 H 1.03072 0.61088 0.64868 0.0
H863 H 0.26604 0.57041 0.51532 0.0
H864 H 0.10205 0.32311 0.54984 0.0
H865 H 0.18737 0.4066 0.55582 0.0
H866 H 0.93581 0.60069 0.46098 0.0
H867 H 0.2494 0.49884 0.54206 0.0
H868 H 0.11896 0.77455 0.64406 0.0
N869 N 0.98996 0.5987 0.52861 0.0
C870 C 1.02294 0.65069 0.54091 0.0
C871 C 0.96115 0.6153 0.48306 0.0
C872 C 1.0297 0.68748 0.52265 0.0
C873 C 0.95751 0.5804 0.50131 0.0
C874 C 0.9983 0.66907 0.49304 0.0
N875 N 1.03323 0.62854 0.59308 0.0
C876 C 0.04319 0.64142 0.63305 0.0
C877 C 0.07807 0.71992 0.59143 0.0
C878 C 0.04619 0.66641 0.57459 0.0
C879 C 0.09382 0.73378 0.63003 0.0
C880 C 0.07482 0.69427 0.65159 0.0
H881 H 1.00087 0.69584 0.479 0.0
H882 H 0.07446 0.77015 0.52076 0.0
H883 H 0.1191 0.79835 0.57985 0.0
O884 O 0.93798 0.55129 0.59674 0.0
O885 O 0.0421 0.56543 0.48701 0.0
O886 O 0.10777 0.55517 0.48328 0.0
O887 O 0.92403 0.47617 0.55749 0.0
O888 O 0.07597 0.58566 0.57001 0.0
O889 O 0.09904 0.52495 0.55204 0.0
O890 O 0.08159 0.48348 0.43168 0.0
O891 O 0.99228 0.43144 0.53941 0.0
O892 O 0.99899 0.5029 0.58957 0.0
O893 O 0.09605 0.43127 0.44165 0.0
O894 O 0.98604 0.43088 0.48321 0.0
O895 O 0.98246 0.49981 0.4855 0.0
C896 C 0.09029 0.57631 0.47074 0.0
C897 C 0.85428 0.49085 0.58038 0.0
C898 C 0.79312 0.51952 0.60746 0.0
C899 C 0.77974 0.50055 0.56698 0.0
C900 C 0.8386 0.46893 0.54045 0.0
C901 C 0.80103 0.47355 0.53395 0.0
C902 C 0.82867 0.51256 0.61435 0.0
C903 C 0.10441 0.5703 0.57352 0.0
C904 C 0.90304 0.50152 0.58614 0.0
C905 C 0.06652 0.74098 0.53558 0.0
C906 C 0.09146 0.75712 0.56961 0.0
C907 C 0.98218 0.45246 0.57997 0.0
C908 C 0.16096 0.48689 0.39437 0.0
C909 C 0.23855 0.48265 0.36166 0.0
C910 C 0.27072 0.53744 0.36966 0.0
C911 C 0.19378 0.54208 0.40391 0.0
C912 C 0.18388 0.45776 0.37149 0.0
C913 C 0.2481 0.5672 0.3901 0.0
C914 C 0.96971 0.45085 0.46908 0.0
C915 C 0.10552 0.4582 0.41548 0.0
H916 H 0.75505 0.5089 0.56058 0.0
H917 H 0.85757 0.45139 0.51374 0.0
H918 H 0.79078 0.45892 0.50263 0.0
H919 H 0.84146 0.53032 0.64501 0.0
H920 H 0.31296 0.55676 0.36292 0.0
H921 H 0.17875 0.56615 0.42407 0.0
H922 H 0.15933 0.41516 0.36544 0.0
H923 H 0.27284 0.60957 0.39801 0.0
Tb924 Tb 0.75583 0.80277 0.29236 0.0
C925 C 0.84108 0.67668 0.28952 0.0
N926 N 0.86782 0.72703 0.28445 0.0
C927 C 0.92746 0.75306 0.32806 0.0
C928 C 0.85564 0.66288 0.31516 0.0
C929 C 0.91144 0.76496 0.30253 0.0
C930 C 0.89922 0.7019 0.33471 0.0
C931 C 0.76843 0.58664 0.27501 0.0
C932 C 0.7979 0.63911 0.26986 0.0
C933 C 0.78226 0.57297 0.30108 0.0
C934 C 0.82578 0.61088 0.32103 0.0
Tb935 Tb 0.83422 0.74265 0.24572 0.0
N936 N 0.78401 0.65443 0.24668 0.0
C937 C 0.7259 0.54953 0.25389 0.0
C938 C 0.74513 0.6174 0.22333 0.0
C939 C 0.7149 0.56482 0.22724 0.0
H940 H 0.93476 0.80444 0.29683 0.0
H941 H 0.68347 0.536 0.20929 0.0
H942 H 0.65876 0.74748 0.23924 0.0
H943 H 0.92557 1.00129 0.31653 0.0
H944 H 0.73774 0.62712 0.20056 0.0
H945 H 0.70223 0.50886 0.25704 0.0
H946 H 0.85895 0.91435 0.3337 0.0
H947 H 0.96161 0.78345 0.34259 0.0
H948 H 0.75952 0.53325 0.30606 0.0
H949 H 0.83592 0.59961 0.34102 0.0
H950 H 0.63807 0.77238 0.1915 0.0
H951 H 0.91155 0.69291 0.35476 0.0
H952 H 0.91861 0.02768 0.26046 0.0
N953 N 0.72954 0.82179 0.24997 0.0
C954 C 0.76158 0.87159 0.24242 0.0
C955 C 0.67311 0.80056 0.2054 0.0
C956 C 0.75176 0.88701 0.21444 0.0
C957 C 0.68536 0.78642 0.23218 0.0
C958 C 0.7066 0.85093 0.19625 0.0
N959 N 0.81607 0.88886 0.28569 0.0
C960 C 0.85613 0.92385 0.30805 0.0
C961 C 0.84361 0.95599 0.24978 0.0
C962 C 0.80672 0.90591 0.26026 0.0
C963 C 0.88847 0.98944 0.26844 0.0
C964 C 0.89341 0.97418 0.29921 0.0
H965 H 0.69762 0.86131 0.17467 0.0
H966 H 0.78247 0.94889 0.1815 0.0
H967 H 0.86405 1.00805 0.21085 0.0
O968 O 0.74675 0.84187 0.35592 0.0
O969 O 0.80487 0.81545 0.22683 0.0
O970 O 0.87555 0.82218 0.2335 0.0
O971 O 0.68857 0.80546 0.31625 0.0
O972 O 0.80636 0.81918 0.33473 0.0
O973 O 0.87603 0.82076 0.28593 0.0
O974 O 0.84763 0.71701 0.17907 0.0
O975 O 0.77958 0.71825 0.30729 0.0
O976 O 0.71183 0.72601 0.31177 0.0
O977 O 0.90545 0.74697 0.21814 0.0
O978 O 0.77565 0.71825 0.20755 0.0
O979 O 0.70811 0.72283 0.25696 0.0
C980 C 0.85523 0.83291 0.21417 0.0
C981 C 0.65933 0.81497 0.39034 0.0
C982 C 0.6222 0.86665 0.42568 0.0
C983 C 0.57281 0.82309 0.41637 0.0
C984 C 0.6097 0.76944 0.38445 0.0
C985 C 0.56583 0.77362 0.39863 0.0
C986 C 0.6628 0.85957 0.41879 0.0
C987 C 0.85563 0.83222 0.3258 0.0
C988 C 0.70116 0.82982 0.35371 0.0
C989 C 0.78866 0.93679 0.20375 0.0
C990 C 0.83495 0.97066 0.22066 0.0
C991 C 0.73104 0.7071 0.32413 0.0
C992 C 0.9298 0.72411 0.14249 0.0
C993 C 0.93612 0.64885 0.11636 0.0
C994 C 0.98724 0.68025 0.12581 0.0
C995 C 0.98331 0.75708 0.14497 0.0
C996 C 0.9094 0.67214 0.1209 0.0
C997 C 1.01204 0.73468 0.13716 0.0
C998 C 0.72596 0.70478 0.21819 0.0
C999 C 0.89421 0.73044 0.18029 0.0
H1000 H 0.54029 0.82753 0.4219 0.0
H1001 H 0.60624 0.73369 0.36326 0.0
H1002 H 0.52798 0.74024 0.39158 0.0
H1003 H 0.70137 0.89389 0.4241 0.0
H1004 H 1.00751 0.66269 0.12523 0.0
H1005 H 0.99963 0.79802 0.16049 0.0
H1006 H 0.86826 0.64715 0.11804 0.0
H1007 H 0.0517 0.75878 0.14336 0.0
Tb1008 Tb 0.7608 0.3104 0.79494 0.0
C1009 C 0.87698 0.20608 0.66059 0.0
N1010 N 0.82673 0.18279 0.68252 0.0
C1011 C 0.79819 0.11571 0.62002 0.0
C1012 C 0.88974 0.18485 0.61738 0.0
C1013 C 0.78764 0.13748 0.66308 0.0
C1014 C 0.84949 0.13949 0.59702 0.0
C1015 C 0.96848 0.27645 0.6599 0.0
C1016 C 0.91583 0.25155 0.68154 0.0
C1017 C 0.98146 0.25469 0.61725 0.0
C1018 C 0.94217 0.20916 0.596 0.0
Tb1019 Tb 0.81519 0.22132 0.75314 0.0
N1020 N 0.90178 0.27174 0.72289 0.0
C1021 C 1.00662 0.32236 0.68181 0.0
C1022 C 0.93942 0.31557 0.74471 0.0
C1023 C 0.992 0.34189 0.72443 0.0
H1024 H 0.74883 0.11639 0.68114 0.0
H1025 H 1.02139 0.37684 0.74196 0.0
H1026 H 0.82923 0.42069 0.86182 0.0
H1027 H 0.55204 0.16342 0.80859 0.0
H1028 H 0.93003 0.3301 0.77792 0.0
H1029 H 0.04747 0.34267 0.66629 0.0
H1030 H 0.64372 0.20371 0.77301 0.0
H1031 H 0.767 0.07971 0.60497 0.0
H1032 H 1.02178 0.27285 0.60041 0.0
H1033 H 0.95268 0.193 0.56303 0.0
H1034 H 0.8124 0.46548 0.93547 0.0
H1035 H 0.85776 0.12198 0.5639 0.0
H1036 H 0.52735 0.20476 0.88172 0.0
N1037 N 0.75006 0.35627 0.86275 0.0
C1038 C 0.70002 0.33598 0.88495 0.0
C1039 C 0.7805 0.42871 0.92187 0.0
C1040 C 0.68825 0.36138 0.92659 0.0
C1041 C 0.79014 0.40255 0.88038 0.0
C1042 C 0.7293 0.40795 0.94518 0.0
N1043 N 0.67351 0.26582 0.82587 0.0
C1044 C 0.63494 0.22151 0.80519 0.0
C1045 C 0.60753 0.26857 0.88699 0.0
C1046 C 0.66032 0.28978 0.86564 0.0
C1047 C 0.56832 0.22228 0.86637 0.0
C1048 C 0.58214 0.19876 0.82522 0.0
H1049 H 0.72174 0.42871 0.97705 0.0
H1050 H 0.62646 0.35871 0.9801 0.0
H1051 H 0.55517 0.2792 0.94459 0.0
O1052 O 0.73057 0.31652 0.75229 0.0
O1053 O 0.73138 0.25743 0.84017 0.0
O1054 O 0.74 0.18756 0.79899 0.0
O1055 O 0.77341 0.3836 0.80005 0.0
O1056 O 0.73721 0.25005 0.73522 0.0
O1057 O 0.73571 0.17974 0.73896 0.0
O1058 O 0.85812 0.21498 0.78314 0.0
O1059 O 0.83751 0.27267 0.70911 0.0
O1060 O 0.84121 0.34444 0.7568 0.0
O1061 O 0.80249 0.1468 0.74355 0.0
O1062 O 0.83488 0.27676 0.81532 0.0
O1063 O 0.83756 0.34832 0.81301 0.0
C1064 C 0.72238 0.21013 0.8355 0.0
C1065 C 0.74419 0.40041 0.75394 0.0
C1066 C 0.70638 0.41255 0.71144 0.0
C1067 C 0.73145 0.46625 0.72994 0.0
C1068 C 0.77181 0.45493 0.76979 0.0
C1069 C 0.76443 0.48737 0.75862 0.0
C1070 C 0.71243 0.37947 0.72371 0.0
C1071 C 0.71993 0.19939 0.72359 0.0
C1072 C 0.74965 0.36627 0.76861 0.0
C1073 C 0.63593 0.34006 0.94804 0.0
C1074 C 0.59553 0.29441 0.92799 0.0
C1075 C 0.85351 0.32289 0.71737 0.0
C1076 C 0.84854 0.13171 0.77504 0.0
C1077 C 0.89951 0.12178 0.80572 0.0
C1078 C 0.88568 0.07329 0.77701 0.0
C1079 C 0.82802 0.0796 0.75283 0.0
C1080 C 0.88331 0.15235 0.80254 0.0
C1081 C 0.84941 0.0521 0.75126 0.0
C1082 C 0.85091 0.32694 0.82901 0.0
C1083 C 0.83633 0.16498 0.76705 0.0
H1084 H 0.72729 0.49226 0.7208 0.0
H1085 H 0.79852 0.47251 0.7915 0.0
H1086 H 0.78492 0.52911 0.77175 0.0
H1087 H 0.693 0.33797 0.70944 0.0
H1088 H 0.89814 0.04891 0.77758 0.0
H1089 H 0.79724 0.06089 0.73486 0.0
H1090 H 0.89636 0.19124 0.82234 0.0
H1091 H 0.83623 1.01334 0.7313 0.0
Tb1092 Tb 0.71549 0.74444 0.77039 0.0
C1093 C 0.94874 0.892 0.80058 0.0
N1094 N 0.93836 0.85113 0.76679 0.0
C1095 C 1.01164 0.90955 0.7211 0.0
C1096 C 0.98922 0.9438 0.79517 0.0
C1097 C 0.9687 0.85945 0.7272 0.0
C1098 C 1.02223 0.95197 0.75534 0.0
C1099 C 0.9137 0.92496 0.87076 0.0
C1100 C 0.91352 0.88267 0.83898 0.0
C1101 C 0.9519 0.97636 0.86415 0.0
C1102 C 0.99133 0.98598 0.82777 0.0
Tb1103 Tb 0.85701 0.77658 0.77573 0.0
N1104 N 0.87211 0.83249 0.84103 0.0
C1105 C 0.87235 0.914 0.90601 0.0
C1106 C 0.83588 0.82167 0.87805 0.0
C1107 C 0.83538 0.86231 0.91104 0.0
H1108 H 0.95906 0.8276 0.69978 0.0
H1109 H 0.80471 0.85366 0.9392 0.0
H1110 H 0.614 0.69745 0.84829 0.0
H1111 H 0.76225 0.66001 0.60889 0.0
H1112 H 0.80567 0.7822 0.88196 0.0
H1113 H 0.86795 0.94486 0.92934 0.0
H1114 H 0.76816 0.73445 0.66538 0.0
H1115 H 1.03511 0.91585 0.68957 0.0
H1116 H 0.94993 1.00893 0.88574 0.0
H1117 H 1.02043 0.02612 0.82356 0.0
H1118 H 0.53135 0.61257 0.85856 0.0
H1119 H 0.05384 0.99115 0.75003 0.0
H1120 H 0.69155 0.57122 0.62042 0.0
N1121 N 0.63219 0.67283 0.78115 0.0
C1122 C 0.61802 0.63249 0.74708 0.0
C1123 C 0.55505 0.61777 0.82692 0.0
C1124 C 0.57258 0.58248 0.75198 0.0
C1125 C 0.60184 0.66589 0.8209 0.0
C1126 C 0.54011 0.5759 0.7922 0.0
N1127 N 0.69785 0.68788 0.7061 0.0
C1128 C 0.73414 0.69632 0.66897 0.0
C1129 C 0.64655 0.59625 0.67553 0.0
C1130 C 0.65272 0.63979 0.70837 0.0
C1131 C 0.68862 0.60372 0.64129 0.0
C1132 C 0.73068 0.65408 0.63631 0.0
H1133 H 0.50491 0.53809 0.79721 0.0
H1134 H 0.52897 0.501 0.72065 0.0
H1135 H 0.59489 0.51268 0.65517 0.0
O1136 O 0.7146 0.79935 0.75126 0.0
O1137 O 0.72457 0.67671 0.75066 0.0
O1138 O 0.80835 0.72931 0.72918 0.0
O1139 O 0.66099 0.76669 0.80626 0.0
O1140 O 0.78728 0.80131 0.72864 0.0
O1141 O 0.85843 0.79223 0.71576 0.0
O1142 O 0.85831 0.71953 0.79116 0.0
O1143 O 0.84573 0.84158 0.79159 0.0
O1144 O 0.76203 0.79235 0.81928 0.0
O1145 O 0.91358 0.75743 0.73902 0.0
O1146 O 0.78555 0.71959 0.81719 0.0
O1147 O 0.71408 0.72806 0.82966 0.0
C1148 C 0.76999 0.68223 0.73281 0.0
C1149 C 0.63495 0.79903 0.77217 0.0
C1150 C 0.60452 0.81633 0.7266 0.0
C1151 C 0.55633 0.80059 0.75508 0.0
C1152 C 0.58677 0.78469 0.80071 0.0
C1153 C 0.54798 0.78587 0.79235 0.0
C1154 C 0.64455 0.81795 0.73639 0.0
C1155 C 0.83637 0.81316 0.70897 0.0
C1156 C 0.67593 0.79799 0.78188 0.0
C1157 C 0.56344 0.53983 0.71761 0.0
C1158 C 0.60125 0.54645 0.6801 0.0
C1159 C 0.80232 0.83811 0.81379 0.0
C1160 C 0.93898 0.72186 0.77018 0.0
C1161 C 0.96999 0.7066 0.81667 0.0
C1162 C 1.0197 0.72683 0.79035 0.0
C1163 C 0.98873 0.74055 0.74361 0.0
C1164 C 0.92911 0.70222 0.80566 0.0
C1165 C 1.0288 0.74341 0.75395 0.0
C1166 C 0.73629 0.70733 0.83636 0.0
C1167 C 0.89813 0.72342 0.76086 0.0
H1168 H 0.52492 0.79895 0.74815 0.0
H1169 H 0.57934 0.7732 0.82982 0.0
H1170 H 0.51093 0.77449 0.81449 0.0
H1171 H 0.68295 0.83417 0.71618 0.0
H1172 H 0.05199 0.73165 0.79888 0.0
H1173 H 0.99694 0.75381 0.71522 0.0
H1174 H 0.89097 0.6874 0.82656 0.0
H1175 H 0.0677 0.76051 0.73463 0.0
Tb1176 Tb 0.49347 0.48463 0.49271 0.0
C1177 C 0.67612 0.66701 0.57128 0.0
N1178 N 0.67185 0.62773 0.53712 0.0
C1179 C 0.7602 0.68528 0.50395 0.0
C1180 C 0.72254 0.71742 0.5729 0.0
C1181 C 0.71407 0.63558 0.50449 0.0
C1182 C 0.76426 0.72666 0.53812 0.0
C1183 C 0.64064 0.6928 0.64432 0.0
C1184 C 0.63575 0.65507 0.60634 0.0
C1185 C 0.68673 0.74307 0.64595 0.0
C1186 C 0.7271 0.75581 0.61019 0.0
Tb1187 Tb 0.59409 0.54822 0.54104 0.0
N1188 N 0.59354 0.60508 0.60428 0.0
C1189 C 0.6001 0.67819 0.67996 0.0
C1190 C 0.55669 0.58916 0.64023 0.0
C1191 C 0.55802 0.62601 0.67798 0.0
H1192 H 0.71286 0.6032 0.47924 0.0
H1193 H 0.52757 0.6139 0.70585 0.0
H1194 H 0.37186 0.4133 0.5453 0.0
H1195 H 0.5834 0.44683 0.32827 0.0
H1196 H 0.52501 0.54848 0.63894 0.0
H1197 H 0.60204 0.70611 0.70972 0.0
H1198 H 0.57556 0.50129 0.39904 0.0
H1199 H 0.79304 0.69129 0.47768 0.0
H1200 H 0.69287 0.77149 0.67523 0.0
H1201 H 0.76276 0.79449 0.61252 0.0
H1202 H 0.29824 0.32092 0.53712 0.0
H1203 H 0.80053 0.76485 0.53823 0.0
H1204 H 0.5141 0.35268 0.31382 0.0
N1205 N 0.4215 0.40057 0.48823 0.0
C1206 C 0.42354 0.36704 0.45082 0.0
C1207 C 0.33365 0.333 0.51295 0.0
C1208 C 0.38076 0.31473 0.44326 0.0
C1209 C 0.37625 0.38497 0.51827 0.0
C1210 C 0.33616 0.29743 0.47545 0.0
N1211 N 0.50614 0.43773 0.4264 0.0
C1212 C 0.54624 0.46012 0.39385 0.0
C1213 C 0.46813 0.35496 0.37785 0.0
C1214 C 0.46672 0.38662 0.41854 0.0
C1215 C 0.51158 0.37626 0.34551 0.0
C1216 C 0.55067 0.42933 0.3535 0.0
H1217 H 0.30245 0.25761 0.47072 0.0
H1218 H 0.34906 0.24319 0.39558 0.0
H1219 H 0.42385 0.2821 0.33791 0.0
O1220 O 0.50291 0.53176 0.45701 0.0
O1221 O 0.5442 0.43921 0.46472 0.0
O1222 O 0.62439 0.50352 0.47792 0.0
O1223 O 0.42601 0.46731 0.47787 0.0
O1224 O 0.55669 0.5653 0.47978 0.0
O1225 O 0.62219 0.55884 0.47414 0.0
O1226 O 0.58079 0.49623 0.57382 0.0
O1227 O 0.54074 0.59188 0.57156 0.0
O1228 O 0.4613 0.5293 0.55477 0.0
O1229 O 0.65916 0.55967 0.5559 0.0
O1230 O 0.52912 0.47148 0.55958 0.0
O1231 O 0.4604 0.47046 0.55883 0.0
C1232 C 0.59681 0.45361 0.4563 0.0
C1233 C 0.43334 0.54557 0.47826 0.0
C1234 C 0.42945 0.61071 0.46112 0.0
C1235 C 0.39 0.60602 0.49811 0.0
C1236 C 0.39293 0.54026 0.51375 0.0
C1237 C 0.37291 0.57196 0.52448 0.0
C1238 C 0.45358 0.58324 0.45443 0.0
C1239 C 0.60505 0.57876 0.46174 0.0
C1240 C 0.45255 0.50976 0.46248 0.0
C1241 C 0.38218 0.28286 0.40271 0.0
C1242 C 0.42487 0.30405 0.36991 0.0
C1243 C 0.48813 0.57798 0.57871 0.0
C1244 C 0.64715 0.4785 0.55604 0.0
C1245 C 0.64969 0.41178 0.57242 0.0
C1246 C 0.67001 0.39978 0.52896 0.0
C1247 C 0.67362 0.47022 0.51436 0.0
C1248 C 0.63628 0.44975 0.58494 0.0
C1249 C 0.68322 0.42982 0.5006 0.0
C1250 C 0.48018 0.45714 0.57579 0.0
C1251 C 0.63029 0.51646 0.57072 0.0
H1252 H 0.37035 0.62668 0.50662 0.0
H1253 H 0.37668 0.51163 0.53296 0.0
H1254 H 0.34223 0.56841 0.55229 0.0
H1255 H 0.48672 0.58834 0.42923 0.0
H1256 H 0.67899 0.36953 0.51727 0.0
H1257 H 0.68732 0.49502 0.49255 0.0
H1258 H 0.6202 0.45931 0.61786 0.0
H1259 H 0.70295 0.42288 0.4683 0.0
Tb1260 Tb 1.01131 0.43593 0.03984 0.0
C1261 C 0.16948 0.68161 0.99644 0.0
N1262 N 0.12722 0.66603 0.02839 0.0
C1263 C 0.17637 0.74504 0.07653 0.0
C1264 C 0.21842 0.7273 1.00415 0.0
C1265 C 0.12934 0.69798 0.06774 0.0
C1266 C 0.22136 0.75981 0.04469 0.0
C1267 C 0.20918 0.65455 0.92655 0.0
C1268 C 0.16444 0.64898 0.95678 0.0
C1269 C 0.25866 0.69912 0.93421 0.0
C1270 C 0.26307 0.73669 0.97214 0.0
Tb1271 Tb 0.05848 0.58164 1.01342 0.0
N1272 N 0.11649 0.60469 0.95162 0.0
C1273 C 0.20236 0.61226 0.89217 0.0
C1274 C 0.10883 0.57109 0.91279 0.0
C1275 C 0.15231 0.57316 0.88284 0.0
H1276 H 0.09543 0.68614 0.09313 0.0
H1277 H 0.14715 0.54236 0.85464 0.0
H1278 H 0.95122 0.32081 0.97476 0.0
H1279 H 0.95466 0.50248 0.20679 0.0
H1280 H 0.07012 0.53802 0.90772 0.0
H1281 H 0.23487 0.60804 0.87355 0.0
H1282 H 1.0183 0.49013 0.14632 0.0
H1283 H 0.17836 0.7681 0.10853 0.0
H1284 H 0.29368 0.70535 0.91134 0.0
H1285 H 0.30144 0.77107 0.97736 0.0
H1286 H 0.85885 0.25041 0.96946 0.0
H1287 H 0.25827 0.79524 0.0521 0.0
H1288 H 0.8621 0.45492 0.19896 0.0
N1289 N 0.9324 0.35787 0.03779 0.0
C1290 C 0.89391 0.35665 0.07136 0.0
C1291 C 0.86815 0.28033 0.9983 0.0
C1292 C 0.84082 0.32257 0.06729 0.0
C1293 C 0.92061 0.31963 1.00177 0.0
C1294 C 0.8279 0.28273 0.03074 0.0
N1295 N 0.96093 0.43039 0.1072 0.0
C1296 C 0.97753 0.46596 0.14373 0.0
C1297 C 0.87195 0.40524 0.1384 0.0
C1298 C 0.90885 0.39563 0.10721 0.0
C1299 C 0.88895 0.44522 0.17431 0.0
C1300 C 0.94141 0.47298 0.17842 0.0
H1301 H 0.78739 0.25505 0.02656 0.0
H1302 H 0.76353 0.3111 0.09298 0.0
H1303 H 0.79443 0.39025 0.15037 0.0
O1304 O 0.05323 0.41935 0.06088 0.0
O1305 O 0.94794 0.44666 0.04533 0.0
O1306 O 1.00472 0.5323 0.06007 0.0
O1307 O 0.03805 0.3873 0.99688 0.0
O1308 O 0.06717 0.51178 0.07991 0.0
O1309 O 0.08108 0.59075 0.07315 0.0
O1310 O 1.01339 0.58766 0.98523 0.0
O1311 O 0.1208 0.56467 0.98236 0.0
O1312 O 0.06424 0.50466 1.01625 0.0
O1313 O 1.02583 0.62635 0.04937 0.0
O1314 O 1.00773 0.50492 0.97172 0.0
O1315 O 0.99865 0.4275 0.97597 0.0
C1316 C 0.9575 0.49387 0.05445 0.0
C1317 C 0.05288 0.34073 0.02648 0.0
C1318 C 0.06579 0.29812 0.06464 0.0
C1319 C 1.03044 0.24908 0.04185 0.0
C1320 C 1.01678 0.29128 1.00579 0.0
C1321 C 1.00726 0.24601 1.0123 0.0
C1322 C 0.08004 0.34376 0.05325 0.0
C1323 C 0.08679 0.56403 0.09152 0.0
C1324 C 0.05865 0.38918 0.02473 0.0
C1325 C 0.80395 0.33367 0.09717 0.0
C1326 C 0.82069 0.37736 0.13084 0.0
C1327 C 0.10865 0.52311 0.99077 0.0
C1328 C 1.01223 0.66645 1.01301 0.0
C1329 C 0.99467 0.70381 0.97422 0.0
C1330 C 1.02994 0.75448 0.99504 0.0
C1331 C 0.04664 0.71733 0.03353 0.0
C1332 C 0.98372 0.66002 0.98581 0.0
C1333 C 0.05443 0.76091 0.02524 0.0
C1334 C 0.99095 0.45359 0.95877 0.0
C1335 C 1.00619 0.61982 1.01885 0.0
H1336 H 1.01785 0.21226 0.04769 0.0
H1337 H 0.99383 0.28717 0.98639 0.0
H1338 H 0.97903 0.20809 0.99645 0.0
H1339 H 0.10926 0.38227 0.06748 0.0
H1340 H 0.04099 0.78962 0.98682 0.0
H1341 H 0.0691 0.7238 0.05471 0.0
H1342 H 0.95553 0.62063 0.97162 0.0
H1343 H 0.08179 0.79997 0.04054 0.0
C1344 C 0.16678 0.178 0.88895 0.0
C1345 C 0.20996 0.17577 0.85995 0.0
H1346 H 0.10245 0.1504 0.94202 0.0
C1347 C 0.21992 0.14109 0.86554 0.0
H1348 H 0.1568 0.20354 0.88642 0.0
C1349 C 0.18901 0.11116 0.89871 0.0
C1350 C 0.14563 0.11324 0.92743 0.0
H1351 H 0.25235 0.13758 0.84467 0.0
H1352 H 0.19888 0.08567 0.90149 0.0
C1353 C 0.13514 0.14714 0.9213 0.0
C1354 C 0.10533 0.89399 0.1537 0.0
C1355 C 0.13787 0.88911 0.11383 0.0
H1356 H 0.08511 0.89316 0.22046 0.0
C1357 C 0.16356 0.86413 0.11042 0.0
H1358 H 0.08123 0.90911 0.15903 0.0
C1359 C 0.16664 0.85643 0.14706 0.0
C1360 C 0.14208 0.87085 0.18763 0.0
H1361 H 0.18594 0.85501 0.08057 0.0
H1362 H 0.19419 0.84625 0.14419 0.0
C1363 C 0.10704 0.88439 0.18986 0.0
C1364 C 0.44512 0.95157 0.40194 0.0
C1365 C 0.45618 0.92907 0.42277 0.0
H1366 H 0.40662 0.94002 0.35494 0.0
C1367 C 0.43323 0.8742 0.41045 0.0
H1368 H 0.4619 0.99353 0.40973 0.0
C1369 C 0.39932 0.84302 0.38035 0.0
C1370 C 0.38725 0.86511 0.36014 0.0
H1371 H 0.44065 0.85467 0.42454 0.0
H1372 H 0.38236 0.80103 0.37301 0.0
C1373 C 0.41216 0.9204 0.37078 0.0
C1374 C 0.34363 1.00983 0.62127 0.0
C1375 C 0.36284 0.05448 0.60639 0.0
H1376 H 0.352 0.94555 0.6088 0.0
C1377 C 0.37691 0.05171 0.56201 0.0
H1378 H 0.32851 1.00865 0.65499 0.0
C1379 C 0.39394 0.01765 0.5368 0.0
C1380 C 0.39342 0.98617 0.55666 0.0
H1381 H 0.38643 0.083 0.54886 0.0
H1382 H 0.41405 0.02134 0.50417 0.0
C1383 C 0.35887 0.97479 0.59546 0.0
C1384 C 0.16248 0.8976 0.6381 0.0
C1385 C 0.10745 0.87313 0.64898 0.0
H1386 H 0.23268 0.92116 0.65577 0.0
C1387 C 0.08207 0.85628 0.68837 0.0
H1388 H 0.18359 0.91 0.60771 0.0
C1389 C 0.11037 0.86479 0.71653 0.0
C1390 C 0.16463 0.88732 0.70486 0.0
H1391 H 0.04007 0.83592 0.69755 0.0
H1392 H 0.08968 0.85233 0.74692 0.0
C1393 C 0.19061 0.90369 0.66542 0.0
C1394 C 0.40279 0.83788 0.87699 0.0
C1395 C 0.37352 0.85198 0.86816 0.0
H1396 H 0.45354 0.85568 0.91599 0.0
C1397 C 0.37175 0.89575 0.89582 0.0
H1398 H 0.40524 0.80452 0.85673 0.0
C1399 C 0.39897 0.92489 0.9305 0.0
C1400 C 0.42938 0.91169 0.93882 0.0
H1401 H 0.34937 0.9078 0.89058 0.0
H1402 H 0.39734 0.95882 0.94998 0.0
C1403 C 0.4305 0.86737 0.91138 0.0
C1404 C 0.25623 0.06334 0.22477 0.0
C1405 C 0.29376 0.06692 0.1875 0.0
H1406 H 0.2155 0.09929 0.27104 0.0
C1407 C 0.31805 0.10802 0.16614 0.0
H1408 H 0.23857 0.0327 0.24167 0.0
C1409 C 0.30703 0.1469 0.1834 0.0
C1410 C 0.27057 0.14408 0.22144 0.0
H1411 H 0.34688 0.11092 0.1369 0.0
H1412 H 0.32722 0.1793 0.16718 0.0
C1413 C 0.24386 0.10158 0.24158 0.0
C1414 C 0.12415 0.13367 0.42593 0.0
C1415 C 0.14237 0.108 0.43455 0.0
H1416 H 0.13724 0.18593 0.39157 0.0
C1417 C 0.19178 0.11642 0.41038 0.0
H1418 H 0.08561 0.12637 0.44185 0.0
C1419 C 0.22188 0.15039 0.38008 0.0
C1420 C 0.20364 0.17697 0.37224 0.0
H1421 H 0.20766 0.09737 0.41523 0.0
H1422 H 0.25941 0.15543 0.36249 0.0
C1423 C 0.15385 0.16739 0.39602 0.0
C1424 C 0.90539 0.16575 0.1297 0.0
C1425 C 0.89266 0.18069 0.17729 0.0
H1426 H 0.93795 0.13084 0.06767 0.0
C1427 C 0.91699 0.16041 0.18961 0.0
H1428 H 0.89136 0.17579 0.11207 0.0
C1429 C 0.94697 0.13266 0.16152 0.0
C1430 C 0.95915 0.11717 0.1139 0.0
H1431 H 0.91347 0.16666 0.2237 0.0
H1432 H 0.96052 0.1221 0.17913 0.0
C1433 C 0.93434 0.13698 0.1017 0.0
C1434 C 0.14427 0.66458 0.44469 0.0
C1435 C 0.12352 0.60993 0.43565 0.0
H1436 H 0.18978 0.73693 0.42101 0.0
C1437 C 0.13237 0.58733 0.39184 0.0
H1438 H 0.13739 0.68397 0.47738 0.0
C1439 C 0.16362 0.61798 0.35942 0.0
C1440 C 0.18588 0.67286 0.36846 0.0
H1441 H 0.11541 0.54542 0.38227 0.0
H1442 H 0.16991 0.59815 0.32679 0.0
C1443 C 0.17454 0.69524 0.41196 0.0
C1444 C 0.60849 0.79213 0.60878 0.0
C1445 C 0.60022 0.8296 0.60712 0.0
H1446 H 0.61278 0.75717 0.64853 0.0
C1447 C 0.60333 0.86884 0.64406 0.0
H1448 H 0.60847 0.7623 0.58096 0.0
C1449 C 0.60746 0.86643 0.68272 0.0
C1450 C 0.61047 0.8258 0.6849 0.0
H1451 H 0.59987 0.90003 0.64421 0.0
H1452 H 0.60614 0.89501 0.71125 0.0
C1453 C 0.61255 0.78982 0.64737 0.0
C1454 C 0.46281 0.44146 0.89221 0.0
C1455 C 0.45154 0.42023 0.92717 0.0
H1456 H 0.44277 0.43003 0.83328 0.0
C1457 C 0.40678 0.36889 0.92884 0.0
H1458 H 0.49658 0.48067 0.88942 0.0
C1459 C 0.37406 0.34075 0.89755 0.0
C1460 C 0.38595 0.36184 0.8623 0.0
H1461 H 0.39615 0.35085 0.95505 0.0
H1462 H 0.33998 0.30169 0.90035 0.0
C1463 C 0.43154 0.41243 0.85996 0.0
C1464 C 0.93546 0.91308 0.3584 0.0
C1465 C 0.88921 0.86281 0.36067 0.0
H1466 H 1.00024 0.981 0.38847 0.0
C1467 C 0.87635 0.84172 0.39623 0.0
H1468 H 0.94748 0.93081 0.33159 0.0
C1469 C 0.90841 0.86965 0.42803 0.0
C1470 C 0.95355 0.92085 0.42662 0.0
H1471 H 0.84168 0.803 0.39914 0.0
H1472 H 0.89685 0.85164 0.45453 0.0
C1473 C 0.96609 0.94194 0.39116 0.0
C1474 C 0.39887 0.59284 0.62911 0.0
C1475 C 0.45617 0.61392 0.61273 0.0
H1476 H 0.32756 0.5957 0.66509 0.0
C1477 C 0.47711 0.67107 0.63124 0.0
H1478 H 0.37365 0.55069 0.62 0.0
C1479 C 0.44786 0.69991 0.65879 0.0
C1480 C 0.39028 0.67829 0.67549 0.0
H1481 H 0.51925 0.69603 0.6238 0.0
H1482 H 0.47299 0.74211 0.66776 0.0
C1483 C 0.36979 0.62125 0.65737 0.0
C1484 C 0.68739 0.14731 0.93068 0.0
C1485 C 0.63173 0.1164 0.93912 0.0
H1486 H 0.75871 0.19961 0.89227 0.0
C1487 C 0.60667 0.12002 0.9145 0.0
H1488 H 0.70895 0.14688 0.9487 0.0
C1489 C 0.63546 0.15095 0.88217 0.0
C1490 C 0.69097 0.18025 0.87276 0.0
H1491 H 0.56419 0.09771 0.9195 0.0
H1492 H 0.61397 0.15091 0.86377 0.0
C1493 C 0.7162 0.17792 0.89804 0.0
C1494 C 0.0696 0.25562 0.11265 0.0
C1495 C 0.08085 0.30116 0.10364 0.0
H1496 H 0.05829 0.21837 0.15945 0.0
C1497 C 0.10052 0.34781 0.13527 0.0
H1498 H 0.05781 0.21926 0.08951 0.0
C1499 C 0.1038 0.34745 0.17522 0.0
C1500 C 0.08756 0.30061 0.18471 0.0
H1501 H 0.1118 0.38474 0.1306 0.0
H1502 H 0.117 0.3833 0.19927 0.0
C1503 C 0.07127 0.25508 0.15288 0.0
C1504 C 0.62842 0.63568 0.92746 0.0
C1505 C 0.64383 0.60674 0.93469 0.0
H1506 H 0.64472 0.69043 0.89431 0.0
C1507 C 0.6909 0.61079 0.90846 0.0
H1508 H 0.5915 0.63153 0.94489 0.0
C1509 C 0.72144 0.6436 0.87728 0.0
C1510 C 0.70589 0.67332 0.87076 0.0
H1511 H 0.70456 0.5891 0.91225 0.0
H1512 H 0.75712 0.64532 0.85806 0.0
C1513 C 0.65872 0.66855 0.89702 0.0
C1514 C 0.59791 0.33497 0.19976 0.0
C1515 C 0.65211 0.35631 0.18768 0.0
H1516 H 0.52795 0.30993 0.1818 0.0
C1517 C 0.67785 0.37027 0.14734 0.0
H1518 H 0.57739 0.32436 0.23085 0.0
C1519 C 0.64996 0.36436 0.12003 0.0
C1520 C 0.59556 0.34324 0.13215 0.0
H1521 H 0.71984 0.38727 0.1375 0.0
H1522 H 0.67093 0.37607 0.08937 0.0
C1523 C 0.56979 0.32728 0.17182 0.0
C1524 C 0.91659 0.43733 0.4195 0.0
C1525 C 0.93785 0.41835 0.43337 0.0
H1526 H 0.87066 0.4232 0.37771 0.0
C1527 C 0.92881 0.36801 0.41207 0.0
H1528 H 0.92262 0.47571 0.43426 0.0
C1529 C 0.90003 0.33819 0.37829 0.0
C1530 C 0.87855 0.35717 0.36465 0.0
H1531 H 0.94446 0.35161 0.42116 0.0
H1532 H 0.89476 0.30007 0.36281 0.0
C1533 C 0.887 0.40714 0.38629 0.0
C1534 C 0.68853 0.62358 0.40606 0.0
C1535 C 0.63709 0.61174 0.4265 0.0
H1536 H 0.75792 0.663 0.36045 0.0
C1537 C 0.61674 0.63139 0.41213 0.0
H1538 H 0.70619 0.60909 0.41491 0.0
C1539 C 0.64628 0.66124 0.37908 0.0
C1540 C 0.69805 0.67362 0.35904 0.0
H1541 H 0.57766 0.62376 0.42647 0.0
H1542 H 0.6284 0.67491 0.36943 0.0
C1543 C 0.71838 0.65427 0.37375 0.0
C1544 C 0.914 0.41565 0.87263 0.0
C1545 C 0.88831 0.36031 0.8612 0.0
H1546 H 0.96497 0.48775 0.91152 0.0
C1547 C 0.89981 0.33683 0.88051 0.0
H1548 H 0.90875 0.43627 0.85764 0.0
C1549 C 0.93405 0.36689 0.91049 0.0
C1550 C 0.95799 0.42194 0.92337 0.0
H1551 H 0.88212 0.2947 0.87256 0.0
H1552 H 0.94125 0.34646 0.92384 0.0
C1553 C 0.94744 0.44566 0.90337 0.0
C1554 C 0.86531 0.87503 0.15727 0.0
C1555 C 0.8882 0.86502 0.17864 0.0
H1556 H 0.87573 0.91453 0.11229 0.0
C1557 C 0.94276 0.88617 0.16526 0.0
H1558 H 0.82348 0.85833 0.16489 0.0
C1559 C 0.97267 0.91584 0.13225 0.0
C1560 C 0.94996 0.92702 0.11159 0.0
H1561 H 0.96259 0.87957 0.18014 0.0
H1562 H 1.01404 0.93042 0.12328 0.0
C1563 C 0.89557 0.90658 0.12567 0.0
C1564 C 0.8986 0.15157 0.88478 0.0
C1565 C 0.92009 0.13361 0.84378 0.0
H1566 H 0.88662 0.16057 0.95207 0.0
C1567 C 0.95282 0.11692 0.84065 0.0
H1568 H 0.87355 0.16535 0.88867 0.0
C1569 C 0.95785 0.11111 0.87705 0.0
C1570 C 0.9313 0.1231 0.91814 0.0
H1571 H 0.97154 0.10453 0.80969 0.0
H1572 H 0.9796 0.09332 0.87153 0.0
C1573 C 0.90503 0.14736 0.92148 0.0
C1574 C 0.66744 0.18702 0.67401 0.0
C1575 C 0.68122 0.16458 0.6922 0.0
H1576 H 0.62332 0.17616 0.63276 0.0
C1577 C 0.65682 0.10927 0.68011 0.0
H1578 H 0.68377 0.22891 0.68243 0.0
C1579 C 0.62287 0.0787 0.64954 0.0
C1580 C 0.60999 0.10158 0.6308 0.0
H1581 H 0.66364 0.08917 0.69429 0.0
H1582 H 0.60679 0.03688 0.64048 0.0
C1583 C 0.63243 0.15633 0.64468 0.0
C1584 C 0.61123 0.97684 0.43162 0.0
C1585 C 0.62681 1.00725 0.47092 0.0
H1586 H 0.59688 0.90618 0.38625 0.0
C1587 C 0.65586 1.00078 0.48794 0.0
H1588 H 0.59019 0.98268 0.41749 0.0
C1589 C 0.66096 0.95755 0.46938 0.0
C1590 C 0.63438 0.92031 0.4356 0.0
H1591 H 0.66878 0.02492 0.51805 0.0
H1592 H 0.67827 0.94927 0.48543 0.0
C1593 C 0.61451 0.93287 0.41407 0.0
C1594 C 0.87797 0.14169 0.40754 0.0
C1595 C 0.89814 0.14455 0.36398 0.0
H1596 H 0.89271 0.14789 0.46698 0.0
C1597 C 0.95009 0.15766 0.34734 0.0
H1598 H 0.8378 0.13129 0.42111 0.0
C1599 C 0.98181 0.16948 0.37386 0.0
C1600 C 0.96167 0.16507 0.41695 0.0
H1601 H 0.96656 0.15967 0.31385 0.0
H1602 H 1.02214 0.18171 0.36049 0.0
C1603 C 0.90921 0.15093 0.43366 0.0
C1604 C 0.70613 0.12601 0.14761 0.0
C1605 C 0.70137 0.16696 0.17813 0.0
H1606 H 0.68162 0.06516 0.0915 0.0
C1607 C 0.66598 0.17675 0.17397 0.0
H1608 H 0.73302 0.11724 0.14942 0.0
C1609 C 0.63579 0.14629 0.14125 0.0
C1610 C 0.64071 0.1056 0.11028 0.0
H1611 H 0.66088 0.20769 0.19659 0.0
H1612 H 0.60846 0.155 0.1403 0.0
C1613 C 0.67677 0.09624 0.11403 0.0
C1614 C 0.76761 0.88897 0.86942 0.0
C1615 C 0.79687 0.88295 0.8287 0.0
H1616 H 0.72992 0.92891 0.91272 0.0
C1617 C 0.81524 0.91607 0.80107 0.0
H1618 H 0.75336 0.86359 0.8911 0.0
C1619 C 0.79949 0.95139 0.81253 0.0
C1620 C 0.76776 0.95555 0.85235 0.0
H1621 H 0.83769 0.91147 0.7694 0.0
H1622 H 0.80818 0.97186 0.78905 0.0
C1623 C 0.7542 0.92604 0.88163 0.0
C1624 C 0.9453 0.8874 0.6193 0.0
C1625 C 0.93105 0.91813 0.61346 0.0
H1626 H 0.92778 0.83036 0.65065 0.0
C1627 C 0.88397 0.91398 0.6399 0.0
H1628 H 0.98178 0.89106 0.60137 0.0
C1629 C 0.85262 0.87963 0.67001 0.0
C1630 C 0.86732 0.84846 0.67534 0.0
H1631 H 0.8709 0.93674 0.63703 0.0
H1632 H 0.81699 0.8779 0.68941 0.0
C1633 C 0.91439 0.85326 0.64883 0.0
C1634 C 0.21342 0.90403 0.88821 0.0
C1635 C 0.19063 0.84778 0.86661 0.0
H1636 H 0.21249 0.97539 0.92771 0.0
C1637 C 0.13354 0.82892 0.87827 0.0
H1638 H 0.25581 0.92723 0.88426 0.0
C1639 C 0.10633 0.85974 0.90487 0.0
C1640 C 0.12959 0.91613 0.92675 0.0
H1641 H 0.10743 0.78783 0.86579 0.0
H1642 H 0.06411 0.83716 0.90843 0.0
C1643 C 0.18626 0.93431 0.91534 0.0
C1644 C 0.9318 0.36515 0.60666 0.0
C1645 C 0.94971 0.41906 0.61512 0.0
H1646 H 0.88901 0.29351 0.63049 0.0
C1647 C 0.93557 0.44055 0.65808 0.0
H1648 H 0.94088 0.34616 0.57456 0.0
C1649 C 0.90516 0.40991 0.69059 0.0
C1650 C 0.88729 0.35603 0.68212 0.0
H1651 H 0.94779 0.48147 0.66677 0.0
H1652 H 0.89542 0.42877 0.72267 0.0
C1653 C 0.90156 0.33452 0.63922 0.0
C1654 C 0.47359 0.23991 0.42357 0.0
C1655 C 0.47519 0.20054 0.43051 0.0
H1656 H 0.47614 0.27252 0.37789 0.0
C1657 C 0.46748 0.15674 0.3967 0.0
H1658 H 0.47653 0.27304 0.44876 0.0
C1659 C 0.4631 0.15496 0.3565 0.0
C1660 C 0.46561 0.19653 0.34933 0.0
H1661 H 0.46625 0.12418 0.40031 0.0
H1662 H 0.45874 0.12165 0.33087 0.0
C1663 C 0.471 0.23881 0.38318 0.0
C1664 C 0.61673 0.58858 0.15402 0.0
C1665 C 0.62448 0.60923 0.11994 0.0
H1666 H 0.64039 0.60198 0.21178 0.0
C1667 C 0.6659 0.66215 0.11915 0.0
H1668 H 0.58558 0.54825 0.15616 0.0
C1669 C 0.69891 0.69244 0.1503 0.0
C1670 C 0.69072 0.67187 0.18456 0.0
H1671 H 0.67386 0.67982 0.09358 0.0
H1672 H 0.73079 0.73247 0.14779 0.0
C1673 C 0.64842 0.61953 0.1861 0.0
C1674 C 0.16059 0.11588 0.67849 0.0
C1675 C 0.20298 0.16802 0.67652 0.0
H1676 H 0.09447 0.04611 0.65139 0.0
C1677 C 0.20821 0.18984 0.64437 0.0
H1678 H 0.15461 0.09758 0.7028 0.0
C1679 C 0.17194 0.16099 0.61591 0.0
C1680 C 0.13006 0.10836 0.61733 0.0
H1681 H 0.23993 0.22987 0.64176 0.0
H1682 H 0.17756 0.17958 0.59198 0.0
C1683 C 0.12565 0.08638 0.649 0.0
C1684 C 0.63441 0.32967 0.38286 0.0
C1685 C 0.6912 0.35097 0.36354 0.0
H1686 H 0.56434 0.33496 0.41976 0.0
C1687 C 0.71231 0.40833 0.37733 0.0
H1688 H 0.60939 0.28727 0.37726 0.0
C1689 C 0.68404 0.43768 0.40388 0.0
C1690 C 0.62754 0.41686 0.42324 0.0
H1691 H 0.75422 0.43335 0.36723 0.0
H1692 H 0.70917 0.48006 0.40955 0.0
C1693 C 0.606 0.35932 0.40931 0.0
C1694 C 0.40958 0.92415 0.14537 0.0
C1695 C 0.44408 0.91375 0.11007 0.0
H1696 H 0.35554 0.90583 0.20513 0.0
C1697 C 0.44891 0.87333 0.11127 0.0
H1698 H 0.40594 0.95612 0.14832 0.0
C1699 C 0.41882 0.84312 0.14409 0.0
C1700 C 0.38431 0.85363 0.17923 0.0
H1701 H 0.47629 0.86481 0.08674 0.0
H1702 H 0.42351 0.81194 0.14205 0.0
C1703 C 0.3809 0.89534 0.17906 0.0
C1704 C 0.96717 0.65503 0.90176 0.0
C1705 C 0.97542 0.69743 0.93699 0.0
H1706 H 0.95914 0.62472 0.8356 0.0
C1707 C 0.97239 0.73763 0.93351 0.0
H1708 H 0.9675 0.62226 0.90286 0.0
C1709 C 0.96842 0.73899 0.89465 0.0
C1710 C 0.96421 0.69894 0.8589 0.0
H1711 H 0.97634 0.77005 0.95995 0.0
H1712 H 0.97301 0.77364 0.89185 0.0
C1713 C 0.96209 0.65605 0.86295 0.0
C1714 C 0.44079 0.38464 0.11697 0.0
C1715 C 0.42934 0.41842 0.11256 0.0
H1716 H 0.4207 0.32613 0.14804 0.0
C1717 C 0.38447 0.4178 0.14065 0.0
H1718 H 0.47561 0.38539 0.09766 0.0
C1719 C 0.35232 0.38381 0.17096 0.0
C1720 C 0.36424 0.34973 0.17496 0.0
H1721 H 0.37377 0.44314 0.13899 0.0
H1722 H 0.31847 0.38484 0.19169 0.0
C1723 C 0.4093 0.35114 0.14697 0.0
C1724 C 0.496 0.68474 0.87284 0.0
C1725 C 0.47188 0.67387 0.91422 0.0
H1726 H 0.48638 0.68131 0.81239 0.0
C1727 C 0.41803 0.65533 0.92769 0.0
H1728 H 0.5374 0.70035 0.86187 0.0
C1729 C 0.3892 0.64727 0.9 0.0
C1730 C 0.41338 0.6561 0.85798 0.0
H1731 H 0.39836 0.64755 0.95969 0.0
H1732 H 0.34775 0.6329 0.91102 0.0
C1733 C 0.46692 0.67449 0.84463 0.0
C1734 C 0.16071 0.65792 0.62038 0.0
C1735 C 0.1413 0.60387 0.60564 0.0
H1736 H 0.20343 0.7291 0.66401 0.0
C1737 C 0.15662 0.58208 0.62298 0.0
H1738 H 0.15295 0.67722 0.60617 0.0
C1739 C 0.18788 0.61257 0.65517 0.0
C1740 C 0.20417 0.66583 0.67208 0.0
H1741 H 0.14375 0.54097 0.61215 0.0
H1742 H 0.19882 0.59397 0.66693 0.0
C1743 C 0.19068 0.68805 0.65334 0.0
C1744 C 0.36391 0.36321 0.65098 0.0
C1745 C 0.38853 0.36121 0.67679 0.0
H1746 H 0.37132 0.39683 0.60311 0.0
C1747 C 0.44398 0.39026 0.66808 0.0
H1748 H 0.32162 0.33968 0.65467 0.0
C1749 C 0.47315 0.4203 0.63536 0.0
C1750 C 0.44838 0.42418 0.61077 0.0
H1751 H 0.46509 0.38975 0.68649 0.0
H1752 H 0.51542 0.44101 0.62984 0.0
C1753 C 0.39296 0.39537 0.61999 0.0
C1754 C 0.17177 0.68174 0.17188 0.0
C1755 C 0.18554 0.66048 0.19112 0.0
H1756 H 0.1286 0.66883 0.12928 0.0
C1757 C 0.163 0.60546 0.17937 0.0
H1758 H 0.18647 0.7233 0.18035 0.0
C1759 C 0.13125 0.574 0.14737 0.0
C1760 C 0.11889 0.59597 0.12726 0.0
H1761 H 0.1697 0.58639 0.1948 0.0
H1762 H 0.11642 0.53241 0.13848 0.0
C1763 C 0.13866 0.65014 0.14146 0.0
C1764 C 0.63544 0.39479 0.68162 0.0
C1765 C 0.68034 0.39388 0.67539 0.0
H1766 H 0.58711 0.39641 0.65304 0.0
C1767 C 0.70691 0.38594 0.63379 0.0
H1768 H 0.61418 0.40051 0.71365 0.0
C1769 C 0.69248 0.38489 0.59915 0.0
C1770 C 0.65175 0.39289 0.60561 0.0
H1771 H 0.74175 0.38518 0.62839 0.0
H1772 H 0.71706 0.38314 0.56817 0.0
C1773 C 0.62055 0.39317 0.64684 0.0
C1774 C 0.91014 0.56958 0.13559 0.0
C1775 C 0.90861 0.59158 0.10798 0.0
H1776 H 0.93095 0.52024 0.13724 0.0
C1777 C 0.89562 0.56184 0.06758 0.0
H1778 H 0.91844 0.59144 0.16743 0.0
C1779 C 0.89953 0.5176 0.05083 0.0
C1780 C 0.91586 0.50437 0.07513 0.0
H1781 H 0.89222 0.57768 0.04646 0.0
H1782 H 0.89992 0.50081 1.01696 0.0
C1783 C 0.91484 0.52653 0.11881 0.0
C1784 C 0.73635 0.54655 0.66781 0.0
C1785 C 0.78368 0.55943 0.63856 0.0
H1786 H 0.69514 0.57581 0.72269 0.0
C1787 C 0.8261 0.61151 0.64158 0.0
H1788 H 0.70349 0.50625 0.6659 0.0
C1789 C 0.82165 0.65057 0.67333 0.0
C1790 C 0.77444 0.63853 0.70277 0.0
H1791 H 0.86315 0.62188 0.61948 0.0
H1792 H 0.85526 0.69048 0.6741 0.0
C1793 C 0.73191 0.58603 0.70031 0.0
C1794 C 0.46885 0.62852 0.38522 0.0
C1795 C 0.43875 0.6354 0.4261 0.0
H1796 H 0.4829 0.62383 0.31807 0.0
C1797 C 0.41035 0.65774 0.43007 0.0
H1798 H 0.49474 0.61526 0.37911 0.0
C1799 C 0.4037 0.66243 0.39377 0.0
C1800 C 0.42642 0.64633 0.35276 0.0
H1801 H 0.3895 0.66801 0.46046 0.0
H1802 H 0.3764 0.67352 0.39778 0.0
C1803 C 0.46261 0.63385 0.3492 0.0
C1804 C 0.10794 0.41615 0.90509 0.0
C1805 C 0.1249 0.39828 0.92439 0.0
H1806 H 0.09203 0.47353 0.91145 0.0
C1807 C 0.15399 0.43208 0.95728 0.0
H1808 H 0.0882 0.39161 0.87797 0.0
C1809 C 0.15479 0.4785 0.97731 0.0
C1810 C 0.12914 0.49126 0.96237 0.0
H1811 H 0.16916 0.41931 0.97123 0.0
H1812 H 0.16982 0.50076 1.00686 0.0
C1813 C 0.11076 0.46318 0.92385 0.0
C1814 C 0.31541 0.41891 0.30025 0.0
C1815 C 0.29333 0.38108 0.32436 0.0
H1816 H 0.31179 0.47927 0.29262 0.0
C1817 C 0.25761 0.38003 0.36262 0.0
H1818 H 0.34301 0.41971 0.27054 0.0
C1819 C 0.24196 0.41529 0.37581 0.0
C1820 C 0.26084 0.45076 0.35011 0.0
H1821 H 0.24086 0.35109 0.38172 0.0
H1822 H 0.21364 0.41361 0.40522 0.0
C1823 C 0.29828 0.45317 0.31288 0.0
loop_
_geom_bond_atom_site_label_1
_geom_bond_atom_site_label_2
_geom_bond_distance
_geom_bond_site_symmetry_2
_ccdc_geom_bond_type
Tb0 N29 2.617 . S
Tb0 N35 2.572 . S
Tb0 O44 2.465 1_565 S
Tb0 O45 2.387 . S
Tb0 O47 2.428 . S
Tb0 O48 2.308 1_665 S
Tb0 O52 2.349 1_566 S
Tb0 O55 2.393 1_556 S
Tb0 C64 2.802 . S
C1 N2 1.379 . S
C1 C4 1.416 . S
C1 C8 1.424 . S
N2 C1 1.379 . S
N2 C5 1.334 . S
N2 Tb11 2.617 . S
C3 C5 1.390 . S
C3 C6 1.339 . S
C3 H23 0.930 . S
C4 C1 1.416 . S
C4 C6 1.416 . S
C4 C10 1.448 . S
C5 N2 1.334 . S
C5 C3 1.390 . S
C5 H16 0.930 . S
C6 C3 1.339 . S
C6 C4 1.416 . S
C6 H27 0.930 . S
C7 C8 1.413 . S
C7 C9 1.427 . S
C7 C13 1.416 . S
C8 C1 1.424 . S
C8 C7 1.413 . S
C8 N12 1.361 . S
C9 C7 1.427 . S
C9 C10 1.328 . S
C9 H24 0.929 . S
C10 C4 1.448 . S
C10 C9 1.328 . S
C10 H25 0.930 . S
Tb11 N2 2.617 . S
Tb11 N12 2.572 . S
Tb11 O46 2.349 1_544 S
Tb11 O49 2.393 1_554 S
Tb11 O50 2.465 1_545 S
Tb11 O51 2.387 . S
Tb11 O53 2.428 . S
Tb11 O54 2.308 1_445 S
Tb11 C75 2.802 . S
N12 C8 1.361 . S
N12 Tb11 2.572 . S
N12 C14 1.340 . S
C13 C7 1.416 . S
C13 C15 1.332 1_455 S
C13 H21 0.931 . S
C14 N12 1.340 . S
C14 C15 1.404 1_455 S
C14 H20 0.930 1_455 S
C15 C13 1.332 1_655 S
C15 C14 1.404 1_655 S
C15 H17 0.933 . S
H16 C5 0.930 . S
H17 C15 0.933 . S
H18 C33 0.930 . S
H19 C40 0.929 . S
H20 C14 0.930 1_655 S
H21 C13 0.931 . S
H22 C36 0.930 1_455 S
H23 C3 0.930 . S
H24 C9 0.929 . S
H25 C10 0.930 . S
H26 C31 0.930 . S
H27 C6 0.930 . S
H28 C39 0.931 . S
N29 Tb0 2.617 . S
N29 C30 1.379 . S
N29 C33 1.334 . S
C30 N29 1.379 . S
C30 C32 1.416 . S
C30 C38 1.424 . S
C31 H26 0.930 . S
C31 C33 1.390 . S
C31 C34 1.339 . S
C32 C30 1.416 . S
C32 C34 1.416 . S
C32 C65 1.448 . S
C33 H18 0.930 . S
C33 N29 1.334 . S
C33 C31 1.390 . S
C34 C31 1.339 . S
C34 C32 1.416 . S
C34 H41 0.930 . S
N35 Tb0 2.572 . S
N35 C36 1.340 . S
N35 C38 1.361 . S
C36 H22 0.930 1_655 S
C36 N35 1.340 . S
C36 C40 1.407 1_655 S
C37 C38 1.413 . S
C37 C39 1.416 . S
C37 C66 1.427 . S
C38 C30 1.424 . S
C38 N35 1.361 . S
C38 C37 1.413 . S
C39 H28 0.931 . S
C39 C37 1.416 . S
C39 C40 1.332 1_655 S
C40 H19 0.929 . S
C40 C36 1.407 1_455 S
C40 C39 1.332 1_455 S
H41 C34 0.930 . S
H42 C65 0.930 . S
H43 C66 0.929 . S
O44 Tb0 2.465 1_545 S
O44 C64 1.264 1_545 S
O45 Tb0 2.387 . S
O45 C56 1.264 1_655 S
O46 Tb11 2.349 1_566 S
O46 C56 1.243 . S
O47 Tb0 2.428 . S
O47 C64 1.256 . S
O48 Tb0 2.308 1_445 S
O48 C63 1.266 . S
O49 Tb11 2.393 1_556 S
O49 C63 1.248 . S
O50 Tb11 2.465 1_565 S
O50 C75 1.264 1_565 S
O51 Tb11 2.387 . S
O51 C67 1.264 1_455 S
O52 Tb0 2.349 1_544 S
O52 C67 1.243 . S
O53 Tb11 2.428 . S
O53 C75 1.256 . S
O54 Tb11 2.308 1_665 S
O54 C74 1.266 . S
O55 Tb0 2.393 1_554 S
O55 C74 1.248 . S
C56 O45 1.264 1_455 S
C56 O46 1.243 . S
C57 C60 1.399 . S
C57 C62 1.383 1_565 S
C57 C64 1.496 . S
C58 C59 1.399 1_545 S
C58 C62 1.389 . S
C59 C58 1.399 1_565 S
C59 C61 1.380 . S
C59 H76 0.929 . S
C60 C57 1.399 . S
C60 C61 1.392 . S
C60 H77 0.929 . S
C61 C59 1.380 . S
C61 C60 1.392 . S
C61 H78 0.929 . S
C62 C57 1.383 1_545 S
C62 C58 1.389 . S
C62 H79 0.931 . S
C63 O48 1.266 . S
C63 O49 1.248 . S
C64 Tb0 2.802 . S
C64 O44 1.264 1_565 S
C64 O47 1.256 . S
C64 C57 1.496 . S
C65 C32 1.448 . S
C65 H42 0.930 . S
C65 C66 1.328 . S
C66 C37 1.427 . S
C66 H43 0.929 . S
C66 C65 1.328 . S
C67 O51 1.264 1_655 S
C67 O52 1.243 . S
C68 C71 1.399 . S
C68 C72 1.383 1_545 S
C68 C75 1.496 . S
C69 C70 1.399 1_565 S
C69 C72 1.389 . S
C70 C69 1.399 1_545 S
C70 C73 1.380 . S
C70 H80 0.929 . S
C71 C68 1.399 . S
C71 C73 1.392 . S
C71 H81 0.929 . S
C72 C68 1.383 1_565 S
C72 C69 1.389 . S
C72 H82 0.931 . S
C73 C70 1.380 . S
C73 C71 1.392 . S
C73 H83 0.929 . S
C74 O54 1.266 . S
C74 O55 1.248 . S
C75 Tb11 2.802 . S
C75 O50 1.264 1_545 S
C75 O53 1.256 . S
C75 C68 1.496 . S
H76 C59 0.929 . S
H77 C60 0.929 . S
H78 C61 0.929 . S
H79 C62 0.931 . S
H80 C70 0.929 . S
H81 C71 0.929 . S
H82 C72 0.931 . S
H83 C73 0.929 . S
Tb84 N113 2.617 . S
Tb84 N119 2.572 . S
Tb84 O128 2.465 . S
Tb84 O129 2.387 . S
Tb84 O131 2.428 . S
Tb84 O132 2.308 . S
Tb84 O136 2.349 . S
Tb84 O139 2.393 . S
Tb84 C148 2.802 . S
C85 N86 1.379 . S
C85 C88 1.416 . S
C85 C92 1.424 . S
N86 C85 1.379 . S
N86 C89 1.334 . S
N86 Tb95 2.617 . S
C87 C89 1.390 . S
C87 C90 1.339 . S
C87 H107 0.930 . S
C88 C85 1.416 . S
C88 C90 1.416 . S
C88 C94 1.448 . S
C89 N86 1.334 . S
C89 C87 1.390 . S
C89 H100 0.930 . S
C90 C87 1.339 . S
C90 C88 1.416 . S
C90 H111 0.930 . S
C91 C92 1.413 . S
C91 C93 1.427 . S
C91 C97 1.416 . S
C92 C85 1.424 . S
C92 C91 1.413 . S
C92 N96 1.361 . S
C93 C91 1.427 . S
C93 C94 1.328 . S
C93 H108 0.929 . S
C94 C88 1.448 . S
C94 C93 1.328 . S
C94 H109 0.930 . S
Tb95 N86 2.617 . S
Tb95 N96 2.572 . S
Tb95 O130 2.349 . S
Tb95 O133 2.393 . S
Tb95 O134 2.465 . S
Tb95 O135 2.387 . S
Tb95 O137 2.428 . S
Tb95 O138 2.308 . S
Tb95 C159 2.802 . S
N96 C92 1.361 . S
N96 Tb95 2.572 . S
N96 C98 1.340 . S
C97 C91 1.416 . S
C97 C99 1.332 . S
C97 H105 0.931 . S
C98 N96 1.340 . S
C98 C99 1.407 . S
C98 H104 0.930 . S
C99 C97 1.332 . S
C99 C98 1.407 . S
C99 H101 0.929 . S
H100 C89 0.930 . S
H101 C99 0.929 . S
H102 C117 0.930 . S
H103 C124 0.929 . S
H104 C98 0.930 . S
H105 C97 0.931 . S
H106 C120 0.930 . S
H107 C87 0.930 . S
H108 C93 0.929 . S
H109 C94 0.930 . S
H110 C115 0.930 . S
H111 C90 0.930 . S
H112 C123 0.931 1_655 S
N113 Tb84 2.617 . S
N113 C114 1.379 . S
N113 C117 1.334 . S
C114 N113 1.379 . S
C114 C116 1.416 . S
C114 C122 1.424 . S
C115 H110 0.930 . S
C115 C117 1.390 . S
C115 C118 1.339 . S
C116 C114 1.416 . S
C116 C118 1.416 . S
C116 C149 1.448 . S
C117 H102 0.930 . S
C117 N113 1.334 . S
C117 C115 1.390 . S
C118 C115 1.339 . S
C118 C116 1.416 . S
C118 H125 0.930 . S
N119 Tb84 2.572 . S
N119 C120 1.340 . S
N119 C122 1.361 . S
C120 H106 0.930 . S
C120 N119 1.340 . S
C120 C124 1.407 . S
C121 C122 1.413 . S
C121 C123 1.416 . S
C121 C150 1.427 . S
C122 C114 1.424 . S
C122 N119 1.361 . S
C122 C121 1.413 . S
C123 H112 0.931 1_455 S
C123 C121 1.416 . S
C123 C124 1.332 . S
C124 H103 0.929 . S
C124 C120 1.407 . S
C124 C123 1.332 . S
H125 C118 0.930 . S
H126 C149 0.930 . S
H127 C150 0.929 . S
O128 Tb84 2.465 . S
O128 C148 1.264 . S
O129 Tb84 2.387 . S
O129 C140 1.264 . S
O130 Tb95 2.349 . S
O130 C140 1.243 . S
O131 Tb84 2.428 . S
O131 C148 1.256 . S
O132 Tb84 2.308 . S
O132 C147 1.266 . S
O133 Tb95 2.393 . S
O133 C147 1.248 . S
O134 Tb95 2.465 . S
O134 C159 1.264 . S
O135 Tb95 2.387 . S
O135 C151 1.264 . S
O136 Tb84 2.349 . S
O136 C151 1.243 . S
O137 Tb95 2.428 . S
O137 C159 1.256 . S
O138 Tb95 2.308 . S
O138 C158 1.266 . S
O139 Tb84 2.393 . S
O139 C158 1.248 . S
C140 O129 1.264 . S
C140 O130 1.243 . S
C141 C144 1.399 . S
C141 C146 1.383 . S
C141 C148 1.496 . S
C142 C143 1.399 . S
C142 C146 1.389 . S
C143 C142 1.399 . S
C143 C145 1.380 . S
C143 H160 0.929 . S
C144 C141 1.399 . S
C144 C145 1.392 . S
C144 H161 0.929 . S
C145 C143 1.380 . S
C145 C144 1.392 . S
C145 H162 0.929 . S
C146 C141 1.383 . S
C146 C142 1.389 . S
C146 H163 0.931 . S
C147 O132 1.266 . S
C147 O133 1.248 . S
C148 Tb84 2.802 . S
C148 O128 1.264 . S
C148 O131 1.256 . S
C148 C141 1.496 . S
C149 C116 1.448 . S
C149 H126 0.930 . S
C149 C150 1.328 . S
C150 C121 1.427 . S
C150 H127 0.929 . S
C150 C149 1.328 . S
C151 O135 1.264 . S
C151 O136 1.243 . S
C152 C155 1.399 . S
C152 C156 1.383 . S
C152 C159 1.496 . S
C153 C154 1.399 . S
C153 C156 1.389 . S
C154 C153 1.399 . S
C154 C157 1.380 . S
C154 H164 0.929 . S
C155 C152 1.399 . S
C155 C157 1.392 . S
C155 H165 0.929 . S
C156 C152 1.383 . S
C156 C153 1.389 . S
C156 H166 0.931 . S
C157 C154 1.380 . S
C157 C155 1.392 . S
C157 H167 0.929 . S
C158 O138 1.266 . S
C158 O139 1.248 . S
C159 Tb95 2.802 . S
C159 O134 1.264 . S
C159 O137 1.256 . S
C159 C152 1.496 . S
H160 C143 0.929 . S
H161 C144 0.929 . S
H162 C145 0.929 . S
H163 C146 0.931 . S
H164 C154 0.929 . S
H165 C155 0.929 . S
H166 C156 0.931 . S
H167 C157 0.929 . S
Tb168 N197 2.617 . S
Tb168 N203 2.572 . S
Tb168 O212 2.465 . S
Tb168 O213 2.387 . S
Tb168 O215 2.428 . S
Tb168 O216 2.308 1_565 S
Tb168 O220 2.349 . S
Tb168 O223 2.393 . S
Tb168 C232 2.802 . S
C169 N170 1.379 . S
C169 C172 1.416 . S
C169 C176 1.424 . S
N170 C169 1.379 . S
N170 C173 1.334 . S
N170 Tb179 2.617 . S
C171 C173 1.390 . S
C171 C174 1.339 . S
C171 H191 0.930 . S
C172 C169 1.416 . S
C172 C174 1.416 . S
C172 C178 1.448 . S
C173 N170 1.334 . S
C173 C171 1.390 . S
C173 H184 0.930 . S
C174 C171 1.339 . S
C174 C172 1.416 . S
C174 H195 0.930 . S
C175 C176 1.413 . S
C175 C177 1.427 . S
C175 C181 1.416 . S
C176 C169 1.424 . S
C176 C175 1.413 . S
C176 N180 1.361 . S
C177 C175 1.427 . S
C177 C178 1.328 . S
C177 H192 0.929 . S
C178 C172 1.448 . S
C178 C177 1.328 . S
C178 H193 0.930 . S
Tb179 N170 2.617 . S
Tb179 N180 2.572 . S
Tb179 O214 2.349 . S
Tb179 O217 2.393 . S
Tb179 O218 2.465 . S
Tb179 O219 2.387 . S
Tb179 O221 2.428 . S
Tb179 O222 2.308 1_545 S
Tb179 C243 2.802 . S
N180 C176 1.361 . S
N180 Tb179 2.572 . S
N180 C182 1.340 . S
C181 C175 1.416 . S
C181 C183 1.332 1_545 S
C181 H189 0.931 . S
C182 N180 1.340 . S
C182 C183 1.407 1_545 S
C182 H188 0.930 1_545 S
C183 C181 1.332 1_565 S
C183 C182 1.407 1_565 S
C183 H185 0.929 . S
H184 C173 0.930 . S
H185 C183 0.929 . S
H186 C201 0.930 . S
H187 C208 0.929 . S
H188 C182 0.930 1_565 S
H189 C181 0.931 . S
H190 C204 0.930 1_545 S
H191 C171 0.930 . S
H192 C177 0.929 . S
H193 C178 0.930 . S
H194 C199 0.930 . S
H195 C174 0.930 . S
H196 C207 0.931 . S
N197 Tb168 2.617 . S
N197 C198 1.379 . S
N197 C201 1.334 . S
C198 N197 1.379 . S
C198 C200 1.416 . S
C198 C206 1.424 . S
C199 H194 0.930 . S
C199 C201 1.390 . S
C199 C202 1.339 . S
C200 C198 1.416 . S
C200 C202 1.416 . S
C200 C233 1.448 . S
C201 H186 0.930 . S
C201 N197 1.334 . S
C201 C199 1.390 . S
C202 C199 1.339 . S
C202 C200 1.416 . S
C202 H209 0.930 . S
N203 Tb168 2.572 . S
N203 C204 1.340 . S
N203 C206 1.361 . S
C204 H190 0.930 1_565 S
C204 N203 1.340 . S
C204 C208 1.407 1_565 S
C205 C206 1.413 . S
C205 C207 1.416 . S
C205 C234 1.427 . S
C206 C198 1.424 . S
C206 N203 1.361 . S
C206 C205 1.413 . S
C207 H196 0.931 . S
C207 C205 1.416 . S
C207 C208 1.332 1_565 S
C208 H187 0.929 . S
C208 C204 1.407 1_545 S
C208 C207 1.332 1_545 S
H209 C202 0.930 . S
H210 C233 0.930 . S
H211 C234 0.929 . S
O212 Tb168 2.465 . S
O212 C232 1.264 . S
O213 Tb168 2.387 . S
O213 C224 1.264 1_565 S
O214 Tb179 2.349 . S
O214 C224 1.243 . S
O215 Tb168 2.428 . S
O215 C232 1.256 . S
O216 Tb168 2.308 1_545 S
O216 C231 1.266 . S
O217 Tb179 2.393 . S
O217 C231 1.248 . S
O218 Tb179 2.465 . S
O218 C243 1.264 . S
O219 Tb179 2.387 . S
O219 C235 1.264 1_545 S
O220 Tb168 2.349 . S
O220 C235 1.243 . S
O221 Tb179 2.428 . S
O221 C243 1.256 . S
O222 Tb179 2.308 1_565 S
O222 C242 1.266 . S
O223 Tb168 2.393 . S
O223 C242 1.248 . S
C224 O213 1.264 1_545 S
C224 O214 1.243 . S
C225 C228 1.399 . S
C225 C230 1.383 . S
C225 C232 1.496 . S
C226 C227 1.399 . S
C226 C230 1.389 . S
C227 C226 1.399 . S
C227 C229 1.380 . S
C227 H244 0.929 . S
C228 C225 1.399 . S
C228 C229 1.392 . S
C228 H245 0.929 . S
C229 C227 1.380 . S
C229 C228 1.392 . S
C229 H246 0.929 . S
C230 C225 1.383 . S
C230 C226 1.389 . S
C230 H247 0.931 . S
C231 O216 1.266 . S
C231 O217 1.248 . S
C232 Tb168 2.802 . S
C232 O212 1.264 . S
C232 O215 1.256 . S
C232 C225 1.496 . S
C233 C200 1.448 . S
C233 H210 0.930 . S
C233 C234 1.328 . S
C234 C205 1.427 . S
C234 H211 0.929 . S
C234 C233 1.328 . S
C235 O219 1.264 1_565 S
C235 O220 1.243 . S
C236 C239 1.399 . S
C236 C240 1.383 . S
C236 C243 1.496 . S
C237 C238 1.399 . S
C237 C240 1.389 . S
C238 C237 1.399 . S
C238 C241 1.380 . S
C238 H248 0.929 . S
C239 C236 1.399 . S
C239 C241 1.392 . S
C239 H249 0.929 . S
C240 C236 1.383 . S
C240 C237 1.389 . S
C240 H250 0.931 . S
C241 C238 1.380 . S
C241 C239 1.392 . S
C241 H251 0.929 . S
C242 O222 1.266 . S
C242 O223 1.248 . S
C243 Tb179 2.802 . S
C243 O218 1.264 . S
C243 O221 1.256 . S
C243 C236 1.496 . S
H244 C227 0.929 . S
H245 C228 0.929 . S
H246 C229 0.929 . S
H247 C230 0.931 . S
H248 C238 0.929 . S
H249 C239 0.929 . S
H250 C240 0.931 . S
H251 C241 0.929 . S
Tb252 N281 2.617 . S
Tb252 N287 2.572 . S
Tb252 O296 2.465 . S
Tb252 O297 2.387 . S
Tb252 O299 2.428 . S
Tb252 O300 2.308 . S
Tb252 O304 2.349 . S
Tb252 O307 2.393 . S
Tb252 C316 2.802 . S
C253 N254 1.379 . S
C253 C256 1.416 . S
C253 C260 1.424 . S
N254 C253 1.379 . S
N254 C257 1.334 . S
N254 Tb263 2.617 . S
C255 C257 1.390 . S
C255 C258 1.339 . S
C255 H275 0.930 . S
C256 C253 1.416 . S
C256 C258 1.416 . S
C256 C262 1.448 . S
C257 N254 1.334 . S
C257 C255 1.390 . S
C257 H268 0.930 . S
C258 C255 1.339 . S
C258 C256 1.416 . S
C258 H279 0.930 . S
C259 C260 1.413 . S
C259 C261 1.427 . S
C259 C265 1.416 . S
C260 C253 1.424 . S
C260 C259 1.413 . S
C260 N264 1.361 . S
C261 C259 1.427 . S
C261 C262 1.328 . S
C261 H276 0.929 . S
C262 C256 1.448 . S
C262 C261 1.328 . S
C262 H277 0.930 . S
Tb263 N254 2.617 . S
Tb263 N264 2.572 . S
Tb263 O298 2.349 . S
Tb263 O301 2.393 . S
Tb263 O302 2.465 . S
Tb263 O303 2.387 . S
Tb263 O305 2.428 . S
Tb263 O306 2.308 . S
Tb263 C327 2.802 . S
N264 C260 1.361 . S
N264 Tb263 2.572 . S
N264 C266 1.340 . S
C265 C259 1.416 . S
C265 C267 1.332 . S
C265 H273 0.931 1_545 S
C266 N264 1.340 . S
C266 C267 1.407 . S
C266 H272 0.930 . S
C267 C265 1.332 . S
C267 C266 1.407 . S
C267 H269 0.929 . S
H268 C257 0.930 . S
H269 C267 0.929 . S
H270 C285 0.930 . S
H271 C292 0.929 . S
H272 C266 0.930 . S
H273 C265 0.931 1_565 S
H274 C288 0.930 . S
H275 C255 0.930 . S
H276 C261 0.929 . S
H277 C262 0.930 . S
H278 C283 0.930 . S
H279 C258 0.930 . S
H280 C291 0.931 . S
N281 Tb252 2.617 . S
N281 C282 1.379 . S
N281 C285 1.334 . S
C282 N281 1.379 . S
C282 C284 1.416 . S
C282 C290 1.424 . S
C283 H278 0.930 . S
C283 C285 1.390 . S
C283 C286 1.339 . S
C284 C282 1.416 . S
C284 C286 1.416 . S
C284 C317 1.448 . S
C285 H270 0.930 . S
C285 N281 1.334 . S
C285 C283 1.390 . S
C286 C283 1.339 . S
C286 C284 1.416 . S
C286 H293 0.930 . S
N287 Tb252 2.572 . S
N287 C288 1.340 . S
N287 C290 1.361 . S
C288 H274 0.930 . S
C288 N287 1.340 . S
C288 C292 1.407 . S
C289 C290 1.413 . S
C289 C291 1.416 . S
C289 C318 1.427 . S
C290 C282 1.424 . S
C290 N287 1.361 . S
C290 C289 1.413 . S
C291 H280 0.931 . S
C291 C289 1.416 . S
C291 C292 1.332 . S
C292 H271 0.929 . S
C292 C288 1.407 . S
C292 C291 1.332 . S
H293 C286 0.930 . S
H294 C317 0.930 . S
H295 C318 0.929 . S
O296 Tb252 2.465 . S
O296 C316 1.264 . S
O297 Tb252 2.387 . S
O297 C308 1.264 . S
O298 Tb263 2.349 . S
O298 C308 1.243 . S
O299 Tb252 2.428 . S
O299 C316 1.256 . S
O300 Tb252 2.308 . S
O300 C315 1.266 . S
O301 Tb263 2.393 . S
O301 C315 1.248 . S
O302 Tb263 2.465 . S
O302 C327 1.264 . S
O303 Tb263 2.387 . S
O303 C319 1.264 . S
O304 Tb252 2.349 . S
O304 C319 1.243 . S
O305 Tb263 2.428 . S
O305 C327 1.256 . S
O306 Tb263 2.308 . S
O306 C326 1.266 . S
O307 Tb252 2.393 . S
O307 C326 1.248 . S
C308 O297 1.264 . S
C308 O298 1.243 . S
C309 C312 1.399 . S
C309 C314 1.383 . S
C309 C316 1.496 . S
C310 C311 1.399 . S
C310 C314 1.389 . S
C311 C310 1.399 . S
C311 C313 1.380 . S
C311 H328 0.929 . S
C312 C309 1.399 . S
C312 C313 1.392 . S
C312 H329 0.929 . S
C313 C311 1.380 . S
C313 C312 1.392 . S
C313 H330 0.929 . S
C314 C309 1.383 . S
C314 C310 1.389 . S
C314 H331 0.931 . S
C315 O300 1.266 . S
C315 O301 1.248 . S
C316 Tb252 2.802 . S
C316 O296 1.264 . S
C316 O299 1.256 . S
C316 C309 1.496 . S
C317 C284 1.448 . S
C317 H294 0.930 . S
C317 C318 1.328 . S
C318 C289 1.427 . S
C318 H295 0.929 . S
C318 C317 1.328 . S
C319 O303 1.264 . S
C319 O304 1.243 . S
C320 C323 1.399 . S
C320 C324 1.383 . S
C320 C327 1.496 . S
C321 C322 1.399 . S
C321 C324 1.389 . S
C322 C321 1.399 . S
C322 C325 1.380 . S
C322 H332 0.929 . S
C323 C320 1.399 . S
C323 C325 1.392 . S
C323 H333 0.929 . S
C324 C320 1.383 . S
C324 C321 1.389 . S
C324 H334 0.931 . S
C325 C322 1.380 . S
C325 C323 1.392 . S
C325 H335 0.929 . S
C326 O306 1.266 . S
C326 O307 1.248 . S
C327 Tb263 2.802 . S
C327 O302 1.264 . S
C327 O305 1.256 . S
C327 C320 1.496 . S
H328 C311 0.929 . S
H329 C312 0.929 . S
H330 C313 0.929 . S
H331 C314 0.931 . S
H332 C322 0.929 . S
H333 C323 0.929 . S
H334 C324 0.931 . S
H335 C325 0.929 . S
Tb336 N365 2.617 . S
Tb336 N371 2.572 1_545 S
Tb336 O380 2.465 . S
Tb336 O381 2.387 1_545 S
Tb336 O383 2.428 . S
Tb336 O384 2.308 1_545 S
Tb336 O388 2.349 1_655 S
Tb336 O391 2.393 1_655 S
Tb336 C400 2.802 . S
C337 N338 1.379 . S
C337 C340 1.416 . S
C337 C344 1.424 . S
N338 C337 1.379 . S
N338 C341 1.334 . S
N338 Tb347 2.617 . S
C339 C341 1.390 . S
C339 C342 1.339 . S
C339 H359 0.930 . S
C340 C337 1.416 . S
C340 C342 1.416 . S
C340 C346 1.448 . S
C341 N338 1.334 . S
C341 C339 1.390 . S
C341 H352 0.930 1_455 S
C342 C339 1.339 . S
C342 C340 1.416 . S
C342 H363 0.930 . S
C343 C344 1.413 1_545 S
C343 C345 1.427 . S
C343 C349 1.416 . S
C344 C337 1.424 . S
C344 C343 1.413 1_565 S
C344 N348 1.361 1_565 S
C345 C343 1.427 . S
C345 C346 1.328 1_545 S
C345 H360 0.929 . S
C346 C340 1.448 . S
C346 C345 1.328 1_565 S
C346 H361 0.930 . S
Tb347 N338 2.617 . S
Tb347 N348 2.572 1_565 S
Tb347 O382 2.349 1_455 S
Tb347 O385 2.393 1_455 S
Tb347 O386 2.465 . S
Tb347 O387 2.387 1_565 S
Tb347 O389 2.428 . S
Tb347 O390 2.308 1_565 S
Tb347 C411 2.802 . S
N348 C344 1.361 1_545 S
N348 Tb347 2.572 1_545 S
N348 C350 1.340 . S
C349 C343 1.416 . S
C349 C351 1.332 . S
C349 H357 0.931 . S
C350 N348 1.340 . S
C350 C351 1.407 . S
C350 H356 0.930 . S
C351 C349 1.332 . S
C351 C350 1.407 . S
C351 H353 0.929 . S
H352 C341 0.930 1_655 S
H353 C351 0.929 . S
H354 C369 0.930 1_455 S
H355 C376 0.929 . S
H356 C350 0.930 . S
H357 C349 0.931 . S
H358 C372 0.930 . S
H359 C339 0.930 . S
H360 C345 0.929 . S
H361 C346 0.930 . S
H362 C367 0.930 . S
H363 C342 0.930 . S
H364 C375 0.931 . S
N365 Tb336 2.617 . S
N365 C366 1.379 . S
N365 C369 1.334 . S
C366 N365 1.379 . S
C366 C368 1.416 . S
C366 C374 1.424 . S
C367 H362 0.930 . S
C367 C369 1.390 . S
C367 C370 1.339 . S
C368 C366 1.416 . S
C368 C370 1.416 . S
C368 C401 1.448 . S
C369 H354 0.930 1_655 S
C369 N365 1.334 . S
C369 C367 1.390 . S
C370 C367 1.339 . S
C370 C368 1.416 . S
C370 H377 0.930 . S
N371 Tb336 2.572 1_565 S
N371 C372 1.340 . S
N371 C374 1.361 1_565 S
C372 H358 0.930 . S
C372 N371 1.340 . S
C372 C376 1.407 . S
C373 C374 1.413 1_565 S
C373 C375 1.416 . S
C373 C402 1.427 . S
C374 C366 1.424 . S
C374 N371 1.361 1_545 S
C374 C373 1.413 1_545 S
C375 H364 0.931 . S
C375 C373 1.416 . S
C375 C376 1.332 . S
C376 H355 0.929 . S
C376 C372 1.407 . S
C376 C375 1.332 . S
H377 C370 0.930 . S
H378 C401 0.930 . S
H379 C402 0.929 . S
O380 Tb336 2.465 . S
O380 C400 1.264 . S
O381 Tb336 2.387 1_565 S
O381 C392 1.264 . S
O382 Tb347 2.349 1_655 S
O382 C392 1.243 . S
O383 Tb336 2.428 . S
O383 C400 1.256 . S
O384 Tb336 2.308 1_565 S
O384 C399 1.266 . S
O385 Tb347 2.393 1_655 S
O385 C399 1.248 . S
O386 Tb347 2.465 . S
O386 C411 1.264 . S
O387 Tb347 2.387 1_545 S
O387 C403 1.264 . S
O388 Tb336 2.349 1_455 S
O388 C403 1.243 . S
O389 Tb347 2.428 . S
O389 C411 1.256 . S
O390 Tb347 2.308 1_545 S
O390 C410 1.266 . S
O391 Tb336 2.393 1_455 S
O391 C410 1.248 . S
C392 O381 1.264 . S
C392 O382 1.243 . S
C393 C396 1.399 . S
C393 C398 1.383 . S
C393 C400 1.496 . S
C394 C395 1.399 . S
C394 C398 1.389 . S
C395 C394 1.399 . S
C395 C397 1.380 . S
C395 H412 0.929 . S
C396 C393 1.399 . S
C396 C397 1.392 . S
C396 H413 0.929 . S
C397 C395 1.380 . S
C397 C396 1.392 . S
C397 H414 0.929 . S
C398 C393 1.383 . S
C398 C394 1.389 . S
C398 H415 0.931 . S
C399 O384 1.266 . S
C399 O385 1.248 . S
C400 Tb336 2.802 . S
C400 O380 1.264 . S
C400 O383 1.256 . S
C400 C393 1.496 . S
C401 C368 1.448 . S
C401 H378 0.930 . S
C401 C402 1.328 1_545 S
C402 C373 1.427 . S
C402 H379 0.929 . S
C402 C401 1.328 1_565 S
C403 O387 1.264 . S
C403 O388 1.243 . S
C404 C407 1.399 . S
C404 C408 1.383 . S
C404 C411 1.496 . S
C405 C406 1.399 . S
C405 C408 1.389 . S
C406 C405 1.399 . S
C406 C409 1.380 . S
C406 H416 0.929 . S
C407 C404 1.399 . S
C407 C409 1.392 . S
C407 H417 0.929 . S
C408 C404 1.383 . S
C408 C405 1.389 . S
C408 H418 0.931 . S
C409 C406 1.380 . S
C409 C407 1.392 . S
C409 H419 0.929 . S
C410 O390 1.266 . S
C410 O391 1.248 . S
C411 Tb347 2.802 . S
C411 O386 1.264 . S
C411 O389 1.256 . S
C411 C404 1.496 . S
H412 C395 0.929 . S
H413 C396 0.929 . S
H414 C397 0.929 . S
H415 C398 0.931 . S
H416 C406 0.929 . S
H417 C407 0.929 . S
H418 C408 0.931 . S
H419 C409 0.929 . S
Tb420 N449 2.617 . S
Tb420 N455 2.572 . S
Tb420 O464 2.465 . S
Tb420 O465 2.387 . S
Tb420 O467 2.428 . S
Tb420 O468 2.308 . S
Tb420 O472 2.349 . S
Tb420 O475 2.393 . S
Tb420 C484 2.802 . S
C421 N422 1.379 . S
C421 C424 1.416 . S
C421 C428 1.424 . S
N422 C421 1.379 . S
N422 C425 1.334 . S
N422 Tb431 2.617 . S
C423 C425 1.390 . S
C423 C426 1.339 . S
C423 H443 0.930 . S
C424 C421 1.416 . S
C424 C426 1.416 . S
C424 C430 1.448 . S
C425 N422 1.334 . S
C425 C423 1.390 . S
C425 H436 0.930 . S
C426 C423 1.339 . S
C426 C424 1.416 . S
C426 H447 0.930 . S
C427 C428 1.413 . S
C427 C429 1.427 . S
C427 C433 1.416 . S
C428 C421 1.424 . S
C428 C427 1.413 . S
C428 N432 1.361 . S
C429 C427 1.427 . S
C429 C430 1.328 . S
C429 H444 0.929 . S
C430 C424 1.448 . S
C430 C429 1.328 . S
C430 H445 0.930 . S
Tb431 N422 2.617 . S
Tb431 N432 2.572 . S
Tb431 O466 2.349 . S
Tb431 O469 2.393 . S
Tb431 O470 2.465 . S
Tb431 O471 2.387 . S
Tb431 O473 2.428 . S
Tb431 O474 2.308 . S
Tb431 C495 2.802 . S
N432 C428 1.361 . S
N432 Tb431 2.572 . S
N432 C434 1.340 . S
C433 C427 1.416 . S
C433 C435 1.332 . S
C433 H441 0.931 . S
C434 N432 1.340 . S
C434 C435 1.407 . S
C434 H440 0.930 . S
C435 C433 1.332 . S
C435 C434 1.407 . S
C435 H437 0.929 . S
H436 C425 0.930 . S
H437 C435 0.929 . S
H438 C453 0.930 . S
H439 C460 0.929 . S
H440 C434 0.930 . S
H441 C433 0.931 . S
H442 C456 0.930 . S
H443 C423 0.930 . S
H444 C429 0.929 . S
H445 C430 0.930 . S
H446 C451 0.930 . S
H447 C426 0.930 . S
H448 C459 0.931 . S
N449 Tb420 2.617 . S
N449 C450 1.379 . S
N449 C453 1.334 . S
C450 N449 1.379 . S
C450 C452 1.416 . S
C450 C458 1.424 . S
C451 H446 0.930 . S
C451 C453 1.390 . S
C451 C454 1.339 . S
C452 C450 1.416 . S
C452 C454 1.416 . S
C452 C485 1.448 . S
C453 H438 0.930 . S
C453 N449 1.334 . S
C453 C451 1.390 . S
C454 C451 1.339 . S
C454 C452 1.416 . S
C454 H461 0.930 1_455 S
N455 Tb420 2.572 . S
N455 C456 1.340 . S
N455 C458 1.361 . S
C456 H442 0.930 . S
C456 N455 1.340 . S
C456 C460 1.407 . S
C457 C458 1.413 . S
C457 C459 1.416 . S
C457 C486 1.427 . S
C458 C450 1.424 . S
C458 N455 1.361 . S
C458 C457 1.413 . S
C459 H448 0.931 . S
C459 C457 1.416 . S
C459 C460 1.332 . S
C460 H439 0.929 . S
C460 C456 1.407 . S
C460 C459 1.332 . S
H461 C454 0.930 1_655 S
H462 C485 0.930 1_655 S
H463 C486 0.929 . S
O464 Tb420 2.465 . S
O464 C484 1.264 . S
O465 Tb420 2.387 . S
O465 C476 1.264 . S
O466 Tb431 2.349 . S
O466 C476 1.243 . S
O467 Tb420 2.428 . S
O467 C484 1.256 . S
O468 Tb420 2.308 . S
O468 C483 1.266 . S
O469 Tb431 2.393 . S
O469 C483 1.248 . S
O470 Tb431 2.465 . S
O470 C495 1.264 . S
O471 Tb431 2.387 . S
O471 C487 1.264 . S
O472 Tb420 2.349 . S
O472 C487 1.243 . S
O473 Tb431 2.428 . S
O473 C495 1.256 . S
O474 Tb431 2.308 . S
O474 C494 1.266 . S
O475 Tb420 2.393 . S
O475 C494 1.248 . S
C476 O465 1.264 . S
C476 O466 1.243 . S
C477 C480 1.399 . S
C477 C482 1.383 . S
C477 C484 1.496 . S
C478 C479 1.399 . S
C478 C482 1.389 . S
C479 C478 1.399 . S
C479 C481 1.380 . S
C479 H496 0.929 . S
C480 C477 1.399 . S
C480 C481 1.392 . S
C480 H497 0.929 . S
C481 C479 1.380 . S
C481 C480 1.392 . S
C481 H498 0.929 . S
C482 C477 1.383 . S
C482 C478 1.389 . S
C482 H499 0.931 . S
C483 O468 1.266 . S
C483 O469 1.248 . S
C484 Tb420 2.802 . S
C484 O464 1.264 . S
C484 O467 1.256 . S
C484 C477 1.496 . S
C485 C452 1.448 . S
C485 H462 0.930 1_455 S
C485 C486 1.328 . S
C486 C457 1.427 . S
C486 H463 0.929 . S
C486 C485 1.328 . S
C487 O471 1.264 . S
C487 O472 1.243 . S
C488 C491 1.399 . S
C488 C492 1.383 . S
C488 C495 1.496 . S
C489 C490 1.399 . S
C489 C492 1.389 . S
C490 C489 1.399 . S
C490 C493 1.380 . S
C490 H500 0.929 . S
C491 C488 1.399 . S
C491 C493 1.392 . S
C491 H501 0.929 . S
C492 C488 1.383 . S
C492 C489 1.389 . S
C492 H502 0.931 . S
C493 C490 1.380 . S
C493 C491 1.392 . S
C493 H503 0.929 1_565 S
C494 O474 1.266 . S
C494 O475 1.248 . S
C495 Tb431 2.802 . S
C495 O470 1.264 . S
C495 O473 1.256 . S
C495 C488 1.496 . S
H496 C479 0.929 . S
H497 C480 0.929 . S
H498 C481 0.929 . S
H499 C482 0.931 . S
H500 C490 0.929 . S
H501 C491 0.929 . S
H502 C492 0.931 . S
H503 C493 0.929 1_545 S
Tb504 N533 2.617 1_554 S
Tb504 N539 2.572 . S
Tb504 O548 2.465 . S
Tb504 O549 2.387 1_554 S
Tb504 O551 2.428 . S
Tb504 O552 2.308 . S
Tb504 O556 2.349 1_545 S
Tb504 O559 2.393 1_544 S
Tb504 C568 2.802 . S
C505 N506 1.379 . S
C505 C508 1.416 . S
C505 C512 1.424 . S
N506 C505 1.379 . S
N506 C509 1.334 . S
N506 Tb515 2.617 1_554 S
C507 C509 1.390 . S
C507 C510 1.339 . S
C507 H527 0.930 1_565 S
C508 C505 1.416 . S
C508 C510 1.416 . S
C508 C514 1.448 . S
C509 N506 1.334 . S
C509 C507 1.390 . S
C509 H520 0.930 1_565 S
C510 C507 1.339 . S
C510 C508 1.416 . S
C510 H531 0.930 . S
C511 C512 1.413 . S
C511 C513 1.427 . S
C511 C517 1.416 . S
C512 C505 1.424 . S
C512 C511 1.413 . S
C512 N516 1.361 1_554 S
C513 C511 1.427 . S
C513 C514 1.328 . S
C513 H528 0.929 . S
C514 C508 1.448 . S
C514 C513 1.328 . S
C514 H529 0.930 . S
Tb515 N506 2.617 1_556 S
Tb515 N516 2.572 . S
Tb515 O550 2.349 1_565 S
Tb515 O553 2.393 1_566 S
Tb515 O554 2.465 . S
Tb515 O555 2.387 1_556 S
Tb515 O557 2.428 . S
Tb515 O558 2.308 . S
Tb515 C579 2.802 . S
N516 C512 1.361 1_556 S
N516 Tb515 2.572 . S
N516 C518 1.340 . S
C517 C511 1.416 . S
C517 C519 1.332 1_554 S
C517 H525 0.931 . S
C518 N516 1.340 . S
C518 C519 1.407 . S
C518 H524 0.930 . S
C519 C517 1.332 1_556 S
C519 C518 1.407 . S
C519 H521 0.929 . S
H520 C509 0.930 1_545 S
H521 C519 0.929 . S
H522 C537 0.930 1_565 S
H523 C544 0.929 . S
H524 C518 0.930 . S
H525 C517 0.931 . S
H526 C540 0.930 . S
H527 C507 0.930 1_545 S
H528 C513 0.929 . S
H529 C514 0.930 . S
H530 C535 0.930 1_565 S
H531 C510 0.930 . S
H532 C543 0.931 . S
N533 Tb504 2.617 1_556 S
N533 C534 1.379 . S
N533 C537 1.334 . S
C534 N533 1.379 . S
C534 C536 1.416 . S
C534 C542 1.424 . S
C535 H530 0.930 1_545 S
C535 C537 1.390 . S
C535 C538 1.339 . S
C536 C534 1.416 . S
C536 C538 1.416 . S
C536 C569 1.448 . S
C537 H522 0.930 1_545 S
C537 N533 1.334 . S
C537 C535 1.390 . S
C538 C535 1.339 . S
C538 C536 1.416 . S
C538 H545 0.930 . S
N539 Tb504 2.572 . S
N539 C540 1.340 . S
N539 C542 1.361 1_554 S
C540 H526 0.930 . S
C540 N539 1.340 . S
C540 C544 1.407 . S
C541 C542 1.413 . S
C541 C543 1.416 . S
C541 C570 1.427 . S
C542 C534 1.424 . S
C542 N539 1.361 1_556 S
C542 C541 1.413 . S
C543 H532 0.931 . S
C543 C541 1.416 . S
C543 C544 1.332 1_556 S
C544 H523 0.929 . S
C544 C540 1.407 . S
C544 C543 1.332 1_554 S
H545 C538 0.930 . S
H546 C569 0.930 . S
H547 C570 0.929 . S
O548 Tb504 2.465 . S
O548 C568 1.264 . S
O549 Tb504 2.387 1_556 S
O549 C560 1.264 . S
O550 Tb515 2.349 1_545 S
O550 C560 1.243 . S
O551 Tb504 2.428 . S
O551 C568 1.256 . S
O552 Tb504 2.308 . S
O552 C567 1.266 . S
O553 Tb515 2.393 1_544 S
O553 C567 1.248 . S
O554 Tb515 2.465 . S
O554 C579 1.264 . S
O555 Tb515 2.387 1_554 S
O555 C571 1.264 . S
O556 Tb504 2.349 1_565 S
O556 C571 1.243 . S
O557 Tb515 2.428 . S
O557 C579 1.256 . S
O558 Tb515 2.308 . S
O558 C578 1.266 . S
O559 Tb504 2.393 1_566 S
O559 C578 1.248 . S
C560 O549 1.264 . S
C560 O550 1.243 . S
C561 C564 1.399 . S
C561 C566 1.383 . S
C561 C568 1.496 . S
C562 C563 1.399 . S
C562 C566 1.389 . S
C563 C562 1.399 . S
C563 C565 1.380 . S
C563 H580 0.929 . S
C564 C561 1.399 . S
C564 C565 1.392 . S
C564 H581 0.929 . S
C565 C563 1.380 . S
C565 C564 1.392 . S
C565 H582 0.929 . S
C566 C561 1.383 . S
C566 C562 1.389 . S
C566 H583 0.931 . S
C567 O552 1.266 . S
C567 O553 1.248 . S
C568 Tb504 2.802 . S
C568 O548 1.264 . S
C568 O551 1.256 . S
C568 C561 1.496 . S
C569 C536 1.448 . S
C569 H546 0.930 . S
C569 C570 1.328 . S
C570 C541 1.427 . S
C570 H547 0.929 . S
C570 C569 1.328 . S
C571 O555 1.264 . S
C571 O556 1.243 . S
C572 C575 1.399 . S
C572 C576 1.383 . S
C572 C579 1.496 . S
C573 C574 1.399 . S
C573 C576 1.389 . S
C574 C573 1.399 . S
C574 C577 1.380 . S
C574 H584 0.929 . S
C575 C572 1.399 . S
C575 C577 1.392 . S
C575 H585 0.929 . S
C576 C572 1.383 . S
C576 C573 1.389 . S
C576 H586 0.931 . S
C577 C574 1.380 . S
C577 C575 1.392 . S
C577 H587 0.929 . S
C578 O558 1.266 . S
C578 O559 1.248 . S
C579 Tb515 2.802 . S
C579 O554 1.264 . S
C579 O557 1.256 . S
C579 C572 1.496 . S
H580 C563 0.929 . S
H581 C564 0.929 . S
H582 C565 0.929 . S
H583 C566 0.931 . S
H584 C574 0.929 . S
H585 C575 0.929 . S
H586 C576 0.931 . S
H587 C577 0.929 . S
Tb588 N617 2.617 . S
Tb588 N623 2.572 . S
Tb588 O632 2.465 . S
Tb588 O633 2.387 . S
Tb588 O635 2.428 . S
Tb588 O636 2.308 . S
Tb588 O640 2.349 . S
Tb588 O643 2.393 . S
Tb588 C652 2.802 . S
C589 N590 1.379 . S
C589 C592 1.416 . S
C589 C596 1.424 . S
N590 C589 1.379 . S
N590 C593 1.334 . S
N590 Tb599 2.617 . S
C591 C593 1.390 . S
C591 C594 1.339 . S
C591 H611 0.930 . S
C592 C589 1.416 . S
C592 C594 1.416 . S
C592 C598 1.448 . S
C593 N590 1.334 . S
C593 C591 1.390 . S
C593 H604 0.930 . S
C594 C591 1.339 . S
C594 C592 1.416 . S
C594 H615 0.930 . S
C595 C596 1.413 . S
C595 C597 1.427 . S
C595 C601 1.416 . S
C596 C589 1.424 . S
C596 C595 1.413 . S
C596 N600 1.361 . S
C597 C595 1.427 . S
C597 C598 1.328 . S
C597 H612 0.929 . S
C598 C592 1.448 . S
C598 C597 1.328 . S
C598 H613 0.930 . S
Tb599 N590 2.617 . S
Tb599 N600 2.572 . S
Tb599 O634 2.349 . S
Tb599 O637 2.393 . S
Tb599 O638 2.465 . S
Tb599 O639 2.387 . S
Tb599 O641 2.428 . S
Tb599 O642 2.308 . S
Tb599 C663 2.802 . S
N600 C596 1.361 . S
N600 Tb599 2.572 . S
N600 C602 1.340 . S
C601 C595 1.416 . S
C601 C603 1.332 . S
C601 H609 0.931 . S
C602 N600 1.340 . S
C602 C603 1.407 . S
C602 H608 0.930 . S
C603 C601 1.332 . S
C603 C602 1.407 . S
C603 H605 0.929 . S
H604 C593 0.930 . S
H605 C603 0.929 . S
H606 C621 0.930 . S
H607 C628 0.929 . S
H608 C602 0.930 . S
H609 C601 0.931 . S
H610 C624 0.930 . S
H611 C591 0.930 . S
H612 C597 0.929 . S
H613 C598 0.930 . S
H614 C619 0.930 . S
H615 C594 0.930 . S
H616 C627 0.931 . S
N617 Tb588 2.617 . S
N617 C618 1.379 . S
N617 C621 1.334 . S
C618 N617 1.379 . S
C618 C620 1.416 . S
C618 C626 1.424 . S
C619 H614 0.930 . S
C619 C621 1.390 . S
C619 C622 1.339 . S
C620 C618 1.416 . S
C620 C622 1.416 . S
C620 C653 1.448 . S
C621 H606 0.930 . S
C621 N617 1.334 . S
C621 C619 1.390 . S
C622 C619 1.339 . S
C622 C620 1.416 . S
C622 H629 0.930 1_545 S
N623 Tb588 2.572 . S
N623 C624 1.340 . S
N623 C626 1.361 . S
C624 H610 0.930 . S
C624 N623 1.340 . S
C624 C628 1.407 . S
C625 C626 1.413 . S
C625 C627 1.416 . S
C625 C654 1.427 . S
C626 C618 1.424 . S
C626 N623 1.361 . S
C626 C625 1.413 . S
C627 H616 0.931 . S
C627 C625 1.416 . S
C627 C628 1.332 . S
C628 H607 0.929 . S
C628 C624 1.407 . S
C628 C627 1.332 . S
H629 C622 0.930 1_565 S
H630 C653 0.930 1_565 S
H631 C654 0.929 . S
O632 Tb588 2.465 . S
O632 C652 1.264 . S
O633 Tb588 2.387 . S
O633 C644 1.264 . S
O634 Tb599 2.349 . S
O634 C644 1.243 . S
O635 Tb588 2.428 . S
O635 C652 1.256 . S
O636 Tb588 2.308 . S
O636 C651 1.266 . S
O637 Tb599 2.393 . S
O637 C651 1.248 . S
O638 Tb599 2.465 . S
O638 C663 1.264 . S
O639 Tb599 2.387 . S
O639 C655 1.264 . S
O640 Tb588 2.349 . S
O640 C655 1.243 . S
O641 Tb599 2.428 . S
O641 C663 1.256 . S
O642 Tb599 2.308 . S
O642 C662 1.266 . S
O643 Tb588 2.393 . S
O643 C662 1.248 . S
C644 O633 1.264 . S
C644 O634 1.243 . S
C645 C648 1.399 . S
C645 C650 1.383 . S
C645 C652 1.496 . S
C646 C647 1.399 . S
C646 C650 1.389 . S
C647 C646 1.399 . S
C647 C649 1.380 . S
C647 H664 0.929 . S
C648 C645 1.399 . S
C648 C649 1.392 . S
C648 H665 0.929 . S
C649 C647 1.380 . S
C649 C648 1.392 . S
C649 H666 0.929 1_455 S
C650 C645 1.383 . S
C650 C646 1.389 . S
C650 H667 0.931 . S
C651 O636 1.266 . S
C651 O637 1.248 . S
C652 Tb588 2.802 . S
C652 O632 1.264 . S
C652 O635 1.256 . S
C652 C645 1.496 . S
C653 C620 1.448 . S
C653 H630 0.930 1_545 S
C653 C654 1.328 . S
C654 C625 1.427 . S
C654 H631 0.929 . S
C654 C653 1.328 . S
C655 O639 1.264 . S
C655 O640 1.243 . S
C656 C659 1.399 . S
C656 C660 1.383 . S
C656 C663 1.496 . S
C657 C658 1.399 . S
C657 C660 1.389 . S
C658 C657 1.399 . S
C658 C661 1.380 . S
C658 H668 0.929 . S
C659 C656 1.399 . S
C659 C661 1.392 . S
C659 H669 0.929 . S
C660 C656 1.383 . S
C660 C657 1.389 . S
C660 H670 0.931 . S
C661 C658 1.380 . S
C661 C659 1.392 . S
C661 H671 0.929 . S
C662 O642 1.266 . S
C662 O643 1.248 . S
C663 Tb599 2.802 . S
C663 O638 1.264 . S
C663 O641 1.256 . S
C663 C656 1.496 . S
H664 C647 0.929 . S
H665 C648 0.929 . S
H666 C649 0.929 1_655 S
H667 C650 0.931 . S
H668 C658 0.929 . S
H669 C659 0.929 . S
H670 C660 0.931 . S
H671 C661 0.929 . S
Tb672 N701 2.617 . S
Tb672 N707 2.572 . S
Tb672 O716 2.465 1_554 S
Tb672 O717 2.387 . S
Tb672 O719 2.428 . S
Tb672 O720 2.308 1_554 S
Tb672 O724 2.349 1_554 S
Tb672 O727 2.393 . S
Tb672 C736 2.802 1_554 S
C673 N674 1.379 . S
C673 C676 1.416 . S
C673 C680 1.424 . S
N674 C673 1.379 . S
N674 C677 1.334 . S
N674 Tb683 2.617 . S
C675 C677 1.390 . S
C675 C678 1.339 . S
C675 H695 0.930 . S
C676 C673 1.416 . S
C676 C678 1.416 . S
C676 C682 1.448 . S
C677 N674 1.334 . S
C677 C675 1.390 . S
C677 H688 0.930 . S
C678 C675 1.339 . S
C678 C676 1.416 . S
C678 H699 0.930 . S
C679 C680 1.413 . S
C679 C681 1.427 . S
C679 C685 1.416 . S
C680 C673 1.424 . S
C680 C679 1.413 . S
C680 N684 1.361 . S
C681 C679 1.427 . S
C681 C682 1.328 . S
C681 H696 0.929 . S
C682 C676 1.448 . S
C682 C681 1.328 . S
C682 H697 0.930 . S
Tb683 N674 2.617 . S
Tb683 N684 2.572 . S
Tb683 O718 2.349 1_556 S
Tb683 O721 2.393 . S
Tb683 O722 2.465 1_556 S
Tb683 O723 2.387 . S
Tb683 O725 2.428 . S
Tb683 O726 2.308 1_556 S
Tb683 C747 2.802 1_556 S
N684 C680 1.361 . S
N684 Tb683 2.572 . S
N684 C686 1.340 . S
C685 C679 1.416 . S
C685 C687 1.332 . S
C685 H693 0.931 . S
C686 N684 1.340 . S
C686 C687 1.407 . S
C686 H692 0.930 1_556 S
C687 C685 1.332 . S
C687 C686 1.407 . S
C687 H689 0.929 . S
H688 C677 0.930 . S
H689 C687 0.929 . S
H690 C705 0.930 . S
H691 C712 0.929 . S
H692 C686 0.930 1_554 S
H693 C685 0.931 . S
H694 C708 0.911 1_556 S
H695 C675 0.930 . S
H696 C681 0.929 . S
H697 C682 0.930 . S
H698 C703 0.930 . S
H699 C678 0.930 . S
H700 C711 0.931 . S
N701 Tb672 2.617 . S
N701 C702 1.379 . S
N701 C705 1.334 . S
C702 N701 1.379 . S
C702 C704 1.416 . S
C702 C710 1.424 . S
C703 H698 0.930 . S
C703 C705 1.390 . S
C703 C706 1.339 . S
C704 C702 1.416 . S
C704 C706 1.416 . S
C704 C737 1.448 . S
C705 H690 0.930 . S
C705 N701 1.334 . S
C705 C703 1.390 . S
C706 C703 1.339 . S
C706 C704 1.416 . S
C706 H713 0.930 . S
N707 Tb672 2.572 . S
N707 C708 1.340 . S
N707 C710 1.361 . S
C708 H694 0.911 1_554 S
C708 N707 1.340 . S
C708 C712 1.407 . S
C709 C710 1.413 . S
C709 C711 1.416 . S
C709 C738 1.427 . S
C710 C702 1.424 . S
C710 N707 1.361 . S
C710 C709 1.413 . S
C711 H700 0.931 . S
C711 C709 1.416 . S
C711 C712 1.332 . S
C712 H691 0.929 . S
C712 C708 1.407 . S
C712 C711 1.332 . S
H713 C706 0.930 . S
H714 C737 0.930 . S
H715 C738 0.929 . S
O716 Tb672 2.465 1_556 S
O716 C736 1.264 . S
O717 Tb672 2.387 . S
O717 C728 1.264 . S
O718 Tb683 2.349 1_554 S
O718 C728 1.243 . S
O719 Tb672 2.428 . S
O719 C736 1.256 1_554 S
O720 Tb672 2.308 1_556 S
O720 C735 1.266 . S
O721 Tb683 2.393 . S
O721 C735 1.248 . S
O722 Tb683 2.465 1_554 S
O722 C747 1.264 . S
O723 Tb683 2.387 . S
O723 C739 1.264 . S
O724 Tb672 2.349 1_556 S
O724 C739 1.243 . S
O725 Tb683 2.428 . S
O725 C747 1.256 1_556 S
O726 Tb683 2.308 1_554 S
O726 C746 1.266 . S
O727 Tb672 2.393 . S
O727 C746 1.248 . S
C728 O717 1.264 . S
C728 O718 1.243 . S
C729 C732 1.399 . S
C729 C734 1.383 . S
C729 C736 1.496 . S
C730 C731 1.399 . S
C730 C734 1.389 . S
C731 C730 1.399 . S
C731 C733 1.380 . S
C731 H748 0.929 . S
C732 C729 1.399 . S
C732 C733 1.392 . S
C732 H749 0.929 1_556 S
C733 C731 1.380 . S
C733 C732 1.392 . S
C733 H750 0.934 . S
C734 C729 1.383 . S
C734 C730 1.389 . S
C734 H751 0.931 . S
C735 O720 1.266 . S
C735 O721 1.248 . S
C736 Tb672 2.802 1_556 S
C736 O716 1.264 . S
C736 O719 1.256 1_556 S
C736 C729 1.496 . S
C737 C704 1.448 . S
C737 H714 0.930 . S
C737 C738 1.328 . S
C738 C709 1.427 . S
C738 H715 0.929 . S
C738 C737 1.328 . S
C739 O723 1.264 . S
C739 O724 1.243 . S
C740 C743 1.399 . S
C740 C744 1.383 . S
C740 C747 1.496 . S
C741 C742 1.399 . S
C741 C744 1.389 . S
C742 C741 1.399 . S
C742 C745 1.380 . S
C742 H752 0.929 . S
C743 C740 1.399 . S
C743 C745 1.392 . S
C743 H753 0.929 1_554 S
C744 C740 1.383 . S
C744 C741 1.389 . S
C744 H754 0.931 . S
C745 C742 1.380 . S
C745 C743 1.392 . S
C745 H755 0.929 . S
C746 O726 1.266 . S
C746 O727 1.248 . S
C747 Tb683 2.802 1_554 S
C747 O722 1.264 . S
C747 O725 1.256 1_554 S
C747 C740 1.496 . S
H748 C731 0.929 . S
H749 C732 0.929 1_554 S
H750 C733 0.934 . S
H751 C734 0.931 . S
H752 C742 0.929 . S
H753 C743 0.929 1_556 S
H754 C744 0.931 . S
H755 C745 0.929 . S
Tb756 N785 2.617 . S
Tb756 N791 2.572 . S
Tb756 O800 2.465 . S
Tb756 O801 2.387 . S
Tb756 O803 2.428 . S
Tb756 O804 2.308 . S
Tb756 O808 2.349 . S
Tb756 O811 2.393 . S
Tb756 C820 2.802 . S
C757 N758 1.379 . S
C757 C760 1.416 . S
C757 C764 1.424 . S
N758 C757 1.379 . S
N758 C761 1.334 . S
N758 Tb767 2.617 . S
C759 C761 1.390 . S
C759 C762 1.339 . S
C759 H779 0.930 . S
C760 C757 1.416 . S
C760 C762 1.416 . S
C760 C766 1.448 . S
C761 N758 1.334 . S
C761 C759 1.390 . S
C761 H772 0.930 . S
C762 C759 1.339 . S
C762 C760 1.416 . S
C762 H783 0.930 1_655 S
C763 C764 1.413 . S
C763 C765 1.427 . S
C763 C769 1.416 . S
C764 C757 1.424 . S
C764 C763 1.413 . S
C764 N768 1.361 . S
C765 C763 1.427 . S
C765 C766 1.328 . S
C765 H780 0.929 . S
C766 C760 1.448 . S
C766 C765 1.328 . S
C766 H781 0.930 1_655 S
Tb767 N758 2.617 . S
Tb767 N768 2.572 . S
Tb767 O802 2.349 . S
Tb767 O805 2.393 . S
Tb767 O806 2.465 . S
Tb767 O807 2.387 . S
Tb767 O809 2.428 . S
Tb767 O810 2.308 . S
Tb767 C831 2.802 . S
N768 C764 1.361 . S
N768 Tb767 2.572 . S
N768 C770 1.340 . S
C769 C763 1.416 . S
C769 C771 1.332 . S
C769 H777 0.931 . S
C770 N768 1.340 . S
C770 C771 1.407 . S
C770 H776 0.930 . S
C771 C769 1.332 . S
C771 C770 1.407 . S
C771 H773 0.929 . S
H772 C761 0.930 . S
H773 C771 0.929 . S
H774 C789 0.930 . S
H775 C796 0.929 . S
H776 C770 0.930 . S
H777 C769 0.931 . S
H778 C792 0.930 . S
H779 C759 0.930 . S
H780 C765 0.929 . S
H781 C766 0.930 1_455 S
H782 C787 0.930 . S
H783 C762 0.930 1_455 S
H784 C795 0.931 . S
N785 Tb756 2.617 . S
N785 C786 1.379 . S
N785 C789 1.334 . S
C786 N785 1.379 . S
C786 C788 1.416 . S
C786 C794 1.424 . S
C787 H782 0.930 . S
C787 C789 1.390 . S
C787 C790 1.339 . S
C788 C786 1.416 . S
C788 C790 1.416 . S
C788 C821 1.448 . S
C789 H774 0.930 . S
C789 N785 1.334 . S
C789 C787 1.390 . S
C790 C787 1.339 . S
C790 C788 1.416 . S
C790 H797 0.930 . S
N791 Tb756 2.572 . S
N791 C792 1.340 . S
N791 C794 1.361 . S
C792 H778 0.930 . S
C792 N791 1.340 . S
C792 C796 1.407 . S
C793 C794 1.413 . S
C793 C795 1.416 . S
C793 C822 1.427 . S
C794 C786 1.424 . S
C794 N791 1.361 . S
C794 C793 1.413 . S
C795 H784 0.931 . S
C795 C793 1.416 . S
C795 C796 1.332 . S
C796 H775 0.929 . S
C796 C792 1.407 . S
C796 C795 1.332 . S
H797 C790 0.930 . S
H798 C821 0.930 . S
H799 C822 0.929 . S
O800 Tb756 2.465 . S
O800 C820 1.264 . S
O801 Tb756 2.387 . S
O801 C812 1.264 . S
O802 Tb767 2.349 . S
O802 C812 1.243 . S
O803 Tb756 2.428 . S
O803 C820 1.256 . S
O804 Tb756 2.308 . S
O804 C819 1.266 . S
O805 Tb767 2.393 . S
O805 C819 1.248 . S
O806 Tb767 2.465 . S
O806 C831 1.264 . S
O807 Tb767 2.387 . S
O807 C823 1.264 . S
O808 Tb756 2.349 . S
O808 C823 1.243 . S
O809 Tb767 2.428 . S
O809 C831 1.256 . S
O810 Tb767 2.308 . S
O810 C830 1.266 . S
O811 Tb756 2.393 . S
O811 C830 1.248 . S
C812 O801 1.264 . S
C812 O802 1.243 . S
C813 C816 1.399 . S
C813 C818 1.383 . S
C813 C820 1.496 . S
C814 C815 1.399 . S
C814 C818 1.389 . S
C815 C814 1.399 . S
C815 C817 1.380 . S
C815 H832 0.929 . S
C816 C813 1.399 . S
C816 C817 1.392 . S
C816 H833 0.929 . S
C817 C815 1.380 . S
C817 C816 1.392 . S
C817 H834 0.929 1_545 S
C818 C813 1.383 . S
C818 C814 1.389 . S
C818 H835 0.931 . S
C819 O804 1.266 . S
C819 O805 1.248 . S
C820 Tb756 2.802 . S
C820 O800 1.264 . S
C820 O803 1.256 . S
C820 C813 1.496 . S
C821 C788 1.448 . S
C821 H798 0.930 . S
C821 C822 1.328 . S
C822 C793 1.427 . S
C822 H799 0.929 . S
C822 C821 1.328 . S
C823 O807 1.264 . S
C823 O808 1.243 . S
C824 C827 1.399 . S
C824 C828 1.383 . S
C824 C831 1.496 . S
C825 C826 1.399 . S
C825 C828 1.389 . S
C826 C825 1.399 . S
C826 C829 1.380 . S
C826 H836 0.929 . S
C827 C824 1.399 . S
C827 C829 1.392 . S
C827 H837 0.929 . S
C828 C824 1.383 . S
C828 C825 1.389 . S
C828 H838 0.931 . S
C829 C826 1.380 . S
C829 C827 1.392 . S
C829 H839 0.929 . S
C830 O810 1.266 . S
C830 O811 1.248 . S
C831 Tb767 2.802 . S
C831 O806 1.264 . S
C831 O809 1.256 . S
C831 C824 1.496 . S
H832 C815 0.929 . S
H833 C816 0.929 . S
H834 C817 0.929 1_565 S
H835 C818 0.931 . S
H836 C826 0.929 . S
H837 C827 0.929 . S
H838 C828 0.931 . S
H839 C829 0.929 . S
Tb840 N869 2.617 . S
Tb840 N875 2.572 1_655 S
Tb840 O884 2.465 . S
Tb840 O885 2.387 1_655 S
Tb840 O887 2.428 . S
Tb840 O888 2.308 1_655 S
Tb840 O892 2.349 . S
Tb840 O895 2.393 . S
Tb840 C904 2.802 . S
C841 N842 1.379 . S
C841 C844 1.416 . S
C841 C848 1.424 1_455 S
N842 C841 1.379 . S
N842 C845 1.334 . S
N842 Tb851 2.617 . S
C843 C845 1.390 . S
C843 C846 1.339 . S
C843 H863 0.930 . S
C844 C841 1.416 . S
C844 C846 1.416 . S
C844 C850 1.448 . S
C845 N842 1.334 . S
C845 C843 1.390 . S
C845 H856 0.930 . S
C846 C843 1.339 . S
C846 C844 1.416 . S
C846 H867 0.930 . S
C847 C848 1.413 . S
C847 C849 1.427 . S
C847 C853 1.416 . S
C848 C841 1.424 1_655 S
C848 C847 1.413 . S
C848 N852 1.361 . S
C849 C847 1.427 . S
C849 C850 1.328 1_655 S
C849 H864 0.929 . S
C850 C844 1.448 . S
C850 C849 1.328 1_455 S
C850 H865 0.930 . S
Tb851 N842 2.617 . S
Tb851 N852 2.572 1_455 S
Tb851 O886 2.349 . S
Tb851 O889 2.393 . S
Tb851 O890 2.465 . S
Tb851 O891 2.387 1_455 S
Tb851 O893 2.428 . S
Tb851 O894 2.308 1_455 S
Tb851 C915 2.802 . S
N852 C848 1.361 . S
N852 Tb851 2.572 1_655 S
N852 C854 1.340 . S
C853 C847 1.416 . S
C853 C855 1.332 . S
C853 H861 0.931 . S
C854 N852 1.340 . S
C854 C855 1.407 . S
C854 H860 0.930 . S
C855 C853 1.332 . S
C855 C854 1.407 . S
C855 H857 0.929 . S
H856 C845 0.930 . S
H857 C855 0.929 . S
H858 C873 0.930 . S
H859 C880 0.929 . S
H860 C854 0.930 . S
H861 C853 0.931 . S
H862 C876 0.930 . S
H863 C843 0.930 . S
H864 C849 0.929 . S
H865 C850 0.930 . S
H866 C871 0.930 . S
H867 C846 0.930 . S
H868 C879 0.931 . S
N869 Tb840 2.617 . S
N869 C870 1.379 . S
N869 C873 1.334 . S
C870 N869 1.379 . S
C870 C872 1.416 . S
C870 C878 1.424 1_655 S
C871 H866 0.930 . S
C871 C873 1.390 . S
C871 C874 1.339 . S
C872 C870 1.416 . S
C872 C874 1.416 . S
C872 C905 1.448 . S
C873 H858 0.930 . S
C873 N869 1.334 . S
C873 C871 1.390 . S
C874 C871 1.339 . S
C874 C872 1.416 . S
C874 H881 0.930 . S
N875 Tb840 2.572 1_455 S
N875 C876 1.340 . S
N875 C878 1.361 . S
C876 H862 0.930 . S
C876 N875 1.340 . S
C876 C880 1.407 . S
C877 C878 1.413 . S
C877 C879 1.416 . S
C877 C906 1.427 . S
C878 C870 1.424 1_455 S
C878 N875 1.361 . S
C878 C877 1.413 . S
C879 H868 0.931 . S
C879 C877 1.416 . S
C879 C880 1.332 . S
C880 H859 0.929 . S
C880 C876 1.407 . S
C880 C879 1.332 . S
H881 C874 0.930 . S
H882 C905 0.930 . S
H883 C906 0.929 . S
O884 Tb840 2.465 . S
O884 C904 1.264 . S
O885 Tb840 2.387 1_455 S
O885 C896 1.264 . S
O886 Tb851 2.349 . S
O886 C896 1.243 . S
O887 Tb840 2.428 . S
O887 C904 1.256 . S
O888 Tb840 2.308 1_455 S
O888 C903 1.266 . S
O889 Tb851 2.393 . S
O889 C903 1.248 . S
O890 Tb851 2.465 . S
O890 C915 1.264 . S
O891 Tb851 2.387 1_655 S
O891 C907 1.264 . S
O892 Tb840 2.349 . S
O892 C907 1.243 . S
O893 Tb851 2.428 . S
O893 C915 1.256 . S
O894 Tb851 2.308 1_655 S
O894 C914 1.266 . S
O895 Tb840 2.393 . S
O895 C914 1.248 . S
C896 O885 1.264 . S
C896 O886 1.243 . S
C897 C900 1.399 . S
C897 C902 1.383 . S
C897 C904 1.496 . S
C898 C899 1.399 . S
C898 C902 1.389 . S
C899 C898 1.399 . S
C899 C901 1.380 . S
C899 H916 0.929 . S
C900 C897 1.399 . S
C900 C901 1.392 . S
C900 H917 0.929 . S
C901 C899 1.380 . S
C901 C900 1.392 . S
C901 H918 0.929 . S
C902 C897 1.383 . S
C902 C898 1.389 . S
C902 H919 0.931 . S
C903 O888 1.266 . S
C903 O889 1.248 . S
C904 Tb840 2.802 . S
C904 O884 1.264 . S
C904 O887 1.256 . S
C904 C897 1.496 . S
C905 C872 1.448 . S
C905 H882 0.930 . S
C905 C906 1.328 1_655 S
C906 C877 1.427 . S
C906 H883 0.929 . S
C906 C905 1.328 1_455 S
C907 O891 1.264 . S
C907 O892 1.243 . S
C908 C911 1.399 . S
C908 C912 1.383 . S
C908 C915 1.496 . S
C909 C910 1.399 . S
C909 C912 1.389 . S
C910 C909 1.399 . S
C910 C913 1.380 . S
C910 H920 0.929 . S
C911 C908 1.399 . S
C911 C913 1.392 . S
C911 H921 0.929 . S
C912 C908 1.383 . S
C912 C909 1.389 . S
C912 H922 0.931 . S
C913 C910 1.380 . S
C913 C911 1.392 . S
C913 H923 0.929 . S
C914 O894 1.266 . S
C914 O895 1.248 . S
C915 Tb851 2.802 . S
C915 O890 1.264 . S
C915 O893 1.256 . S
C915 C908 1.496 . S
H916 C899 0.929 . S
H917 C900 0.929 . S
H918 C901 0.929 . S
H919 C902 0.931 . S
H920 C910 0.929 . S
H921 C911 0.929 . S
H922 C912 0.931 . S
H923 C913 0.929 . S
Tb924 N953 2.617 . S
Tb924 N959 2.572 . S
Tb924 O968 2.465 . S
Tb924 O969 2.387 . S
Tb924 O971 2.428 . S
Tb924 O972 2.308 . S
Tb924 O976 2.349 . S
Tb924 O979 2.393 . S
Tb924 C988 2.802 . S
C925 N926 1.379 . S
C925 C928 1.416 . S
C925 C932 1.424 . S
N926 C925 1.379 . S
N926 C929 1.334 . S
N926 Tb935 2.617 . S
C927 C929 1.390 . S
C927 C930 1.339 . S
C927 H947 0.930 . S
C928 C925 1.416 . S
C928 C930 1.416 . S
C928 C934 1.448 . S
C929 N926 1.334 . S
C929 C927 1.390 . S
C929 H940 0.930 . S
C930 C927 1.339 . S
C930 C928 1.416 . S
C930 H951 0.930 . S
C931 C932 1.413 . S
C931 C933 1.427 . S
C931 C937 1.416 . S
C932 C925 1.424 . S
C932 C931 1.413 . S
C932 N936 1.361 . S
C933 C931 1.427 . S
C933 C934 1.328 . S
C933 H948 0.929 . S
C934 C928 1.448 . S
C934 C933 1.328 . S
C934 H949 0.930 . S
Tb935 N926 2.617 . S
Tb935 N936 2.572 . S
Tb935 O970 2.349 . S
Tb935 O973 2.393 . S
Tb935 O974 2.465 . S
Tb935 O975 2.387 . S
Tb935 O977 2.428 . S
Tb935 O978 2.308 . S
Tb935 C999 2.802 . S
N936 C932 1.361 . S
N936 Tb935 2.572 . S
N936 C938 1.340 . S
C937 C931 1.416 . S
C937 C939 1.332 . S
C937 H945 0.931 . S
C938 N936 1.340 . S
C938 C939 1.407 . S
C938 H944 0.930 . S
C939 C937 1.332 . S
C939 C938 1.407 . S
C939 H941 0.929 . S
H940 C929 0.930 . S
H941 C939 0.929 . S
H942 C957 0.930 . S
H943 C964 0.929 . S
H944 C938 0.930 . S
H945 C937 0.931 . S
H946 C960 0.930 . S
H947 C927 0.930 . S
H948 C933 0.929 . S
H949 C934 0.930 . S
H950 C955 0.930 . S
H951 C930 0.930 . S
H952 C963 0.931 1_545 S
N953 Tb924 2.617 . S
N953 C954 1.379 . S
N953 C957 1.334 . S
C954 N953 1.379 . S
C954 C956 1.416 . S
C954 C962 1.424 . S
C955 H950 0.930 . S
C955 C957 1.390 . S
C955 C958 1.339 . S
C956 C954 1.416 . S
C956 C958 1.416 . S
C956 C989 1.448 . S
C957 H942 0.930 . S
C957 N953 1.334 . S
C957 C955 1.390 . S
C958 C955 1.339 . S
C958 C956 1.416 . S
C958 H965 0.930 . S
N959 Tb924 2.572 . S
N959 C960 1.340 . S
N959 C962 1.361 . S
C960 H946 0.930 . S
C960 N959 1.340 . S
C960 C964 1.407 . S
C961 C962 1.413 . S
C961 C963 1.416 . S
C961 C990 1.427 . S
C962 C954 1.424 . S
C962 N959 1.361 . S
C962 C961 1.413 . S
C963 H952 0.931 1_565 S
C963 C961 1.416 . S
C963 C964 1.332 . S
C964 H943 0.929 . S
C964 C960 1.407 . S
C964 C963 1.332 . S
H965 C958 0.930 . S
H966 C989 0.930 . S
H967 C990 0.929 . S
O968 Tb924 2.465 . S
O968 C988 1.264 . S
O969 Tb924 2.387 . S
O969 C980 1.264 . S
O970 Tb935 2.349 . S
O970 C980 1.243 . S
O971 Tb924 2.428 . S
O971 C988 1.256 . S
O972 Tb924 2.308 . S
O972 C987 1.266 . S
O973 Tb935 2.393 . S
O973 C987 1.248 . S
O974 Tb935 2.465 . S
O974 C999 1.264 . S
O975 Tb935 2.387 . S
O975 C991 1.264 . S
O976 Tb924 2.349 . S
O976 C991 1.243 . S
O977 Tb935 2.428 . S
O977 C999 1.256 . S
O978 Tb935 2.308 . S
O978 C998 1.266 . S
O979 Tb924 2.393 . S
O979 C998 1.248 . S
C980 O969 1.264 . S
C980 O970 1.243 . S
C981 C984 1.399 . S
C981 C986 1.383 . S
C981 C988 1.496 . S
C982 C983 1.399 . S
C982 C986 1.389 . S
C983 C982 1.399 . S
C983 C985 1.380 . S
C983 H1000 0.929 . S
C984 C981 1.399 . S
C984 C985 1.392 . S
C984 H1001 0.929 . S
C985 C983 1.380 . S
C985 C984 1.392 . S
C985 H1002 0.929 . S
C986 C981 1.383 . S
C986 C982 1.389 . S
C986 H1003 0.931 . S
C987 O972 1.266 . S
C987 O973 1.248 . S
C988 Tb924 2.802 . S
C988 O968 1.264 . S
C988 O971 1.256 . S
C988 C981 1.496 . S
C989 C956 1.448 . S
C989 H966 0.930 . S
C989 C990 1.328 . S
C990 C961 1.427 . S
C990 H967 0.929 . S
C990 C989 1.328 . S
C991 O975 1.264 . S
C991 O976 1.243 . S
C992 C995 1.399 . S
C992 C996 1.383 . S
C992 C999 1.496 . S
C993 C994 1.399 . S
C993 C996 1.389 . S
C994 C993 1.399 . S
C994 C997 1.380 . S
C994 H1004 0.929 . S
C995 C992 1.399 . S
C995 C997 1.392 . S
C995 H1005 0.929 . S
C996 C992 1.383 . S
C996 C993 1.389 . S
C996 H1006 0.931 . S
C997 C994 1.380 . S
C997 C995 1.392 . S
C997 H1007 0.929 . S
C998 O978 1.266 . S
C998 O979 1.248 . S
C999 Tb935 2.802 . S
C999 O974 1.264 . S
C999 O977 1.256 . S
C999 C992 1.496 . S
H1000 C983 0.929 . S
H1001 C984 0.929 . S
H1002 C985 0.929 . S
H1003 C986 0.931 . S
H1004 C994 0.929 . S
H1005 C995 0.929 . S
H1006 C996 0.931 . S
H1007 C997 0.929 . S
Tb1008 N1037 2.617 . S
Tb1008 N1043 2.572 . S
Tb1008 O1052 2.465 . S
Tb1008 O1053 2.387 . S
Tb1008 O1055 2.428 . S
Tb1008 O1056 2.308 . S
Tb1008 O1060 2.349 . S
Tb1008 O1063 2.393 . S
Tb1008 C1072 2.802 . S
C1009 N1010 1.379 . S
C1009 C1012 1.416 . S
C1009 C1016 1.424 . S
N1010 C1009 1.379 . S
N1010 C1013 1.334 . S
N1010 Tb1019 2.617 . S
C1011 C1013 1.390 . S
C1011 C1014 1.339 . S
C1011 H1031 0.930 . S
C1012 C1009 1.416 . S
C1012 C1014 1.416 . S
C1012 C1018 1.448 . S
C1013 N1010 1.334 . S
C1013 C1011 1.390 . S
C1013 H1024 0.930 . S
C1014 C1011 1.339 . S
C1014 C1012 1.416 . S
C1014 H1035 0.930 . S
C1015 C1016 1.413 . S
C1015 C1017 1.427 . S
C1015 C1021 1.416 . S
C1016 C1009 1.424 . S
C1016 C1015 1.413 . S
C1016 N1020 1.361 . S
C1017 C1015 1.427 . S
C1017 C1018 1.328 . S
C1017 H1032 0.929 1_655 S
C1018 C1012 1.448 . S
C1018 C1017 1.328 . S
C1018 H1033 0.930 . S
Tb1019 N1010 2.617 . S
Tb1019 N1020 2.572 . S
Tb1019 O1054 2.349 . S
Tb1019 O1057 2.393 . S
Tb1019 O1058 2.465 . S
Tb1019 O1059 2.387 . S
Tb1019 O1061 2.428 . S
Tb1019 O1062 2.308 . S
Tb1019 C1083 2.802 . S
N1020 C1016 1.361 . S
N1020 Tb1019 2.572 . S
N1020 C1022 1.340 . S
C1021 C1015 1.416 . S
C1021 C1023 1.332 . S
C1021 H1029 0.931 1_655 S
C1022 N1020 1.340 . S
C1022 C1023 1.407 . S
C1022 H1028 0.930 . S
C1023 C1021 1.332 . S
C1023 C1022 1.407 . S
C1023 H1025 0.929 . S
H1024 C1013 0.930 . S
H1025 C1023 0.929 . S
H1026 C1041 0.930 . S
H1027 C1048 0.929 . S
H1028 C1022 0.930 . S
H1029 C1021 0.931 1_455 S
H1030 C1044 0.930 . S
H1031 C1011 0.930 . S
H1032 C1017 0.929 1_455 S
H1033 C1018 0.930 . S
H1034 C1039 0.930 . S
H1035 C1014 0.930 . S
H1036 C1047 0.931 . S
N1037 Tb1008 2.617 . S
N1037 C1038 1.379 . S
N1037 C1041 1.334 . S
C1038 N1037 1.379 . S
C1038 C1040 1.416 . S
C1038 C1046 1.424 . S
C1039 H1034 0.930 . S
C1039 C1041 1.390 . S
C1039 C1042 1.339 . S
C1040 C1038 1.416 . S
C1040 C1042 1.416 . S
C1040 C1073 1.448 . S
C1041 H1026 0.930 . S
C1041 N1037 1.334 . S
C1041 C1039 1.390 . S
C1042 C1039 1.339 . S
C1042 C1040 1.416 . S
C1042 H1049 0.930 . S
N1043 Tb1008 2.572 . S
N1043 C1044 1.340 . S
N1043 C1046 1.361 . S
C1044 H1030 0.930 . S
C1044 N1043 1.340 . S
C1044 C1048 1.407 . S
C1045 C1046 1.413 . S
C1045 C1047 1.416 . S
C1045 C1074 1.427 . S
C1046 C1038 1.424 . S
C1046 N1043 1.361 . S
C1046 C1045 1.413 . S
C1047 H1036 0.931 . S
C1047 C1045 1.416 . S
C1047 C1048 1.332 . S
C1048 H1027 0.929 . S
C1048 C1044 1.407 . S
C1048 C1047 1.332 . S
H1049 C1042 0.930 . S
H1050 C1073 0.930 . S
H1051 C1074 0.929 . S
O1052 Tb1008 2.465 . S
O1052 C1072 1.264 . S
O1053 Tb1008 2.387 . S
O1053 C1064 1.264 . S
O1054 Tb1019 2.349 . S
O1054 C1064 1.243 . S
O1055 Tb1008 2.428 . S
O1055 C1072 1.256 . S
O1056 Tb1008 2.308 . S
O1056 C1071 1.266 . S
O1057 Tb1019 2.393 . S
O1057 C1071 1.248 . S
O1058 Tb1019 2.465 . S
O1058 C1083 1.264 . S
O1059 Tb1019 2.387 . S
O1059 C1075 1.264 . S
O1060 Tb1008 2.349 . S
O1060 C1075 1.243 . S
O1061 Tb1019 2.428 . S
O1061 C1083 1.256 . S
O1062 Tb1019 2.308 . S
O1062 C1082 1.266 . S
O1063 Tb1008 2.393 . S
O1063 C1082 1.248 . S
C1064 O1053 1.264 . S
C1064 O1054 1.243 . S
C1065 C1068 1.399 . S
C1065 C1070 1.383 . S
C1065 C1072 1.496 . S
C1066 C1067 1.399 . S
C1066 C1070 1.389 . S
C1067 C1066 1.399 . S
C1067 C1069 1.380 . S
C1067 H1084 0.929 . S
C1068 C1065 1.399 . S
C1068 C1069 1.392 . S
C1068 H1085 0.929 . S
C1069 C1067 1.380 . S
C1069 C1068 1.392 . S
C1069 H1086 0.929 . S
C1070 C1065 1.383 . S
C1070 C1066 1.389 . S
C1070 H1087 0.931 . S
C1071 O1056 1.266 . S
C1071 O1057 1.248 . S
C1072 Tb1008 2.802 . S
C1072 O1052 1.264 . S
C1072 O1055 1.256 . S
C1072 C1065 1.496 . S
C1073 C1040 1.448 . S
C1073 H1050 0.930 . S
C1073 C1074 1.328 . S
C1074 C1045 1.427 . S
C1074 H1051 0.929 . S
C1074 C1073 1.328 . S
C1075 O1059 1.264 . S
C1075 O1060 1.243 . S
C1076 C1079 1.399 . S
C1076 C1080 1.383 . S
C1076 C1083 1.496 . S
C1077 C1078 1.399 . S
C1077 C1080 1.389 . S
C1078 C1077 1.399 . S
C1078 C1081 1.380 . S
C1078 H1088 0.929 . S
C1079 C1076 1.399 . S
C1079 C1081 1.392 . S
C1079 H1089 0.929 . S
C1080 C1076 1.383 . S
C1080 C1077 1.389 . S
C1080 H1090 0.931 . S
C1081 C1078 1.380 . S
C1081 C1079 1.392 . S
C1081 H1091 0.929 . S
C1082 O1062 1.266 . S
C1082 O1063 1.248 . S
C1083 Tb1019 2.802 . S
C1083 O1058 1.264 . S
C1083 O1061 1.256 . S
C1083 C1076 1.496 . S
H1084 C1067 0.929 . S
H1085 C1068 0.929 . S
H1086 C1069 0.929 . S
H1087 C1070 0.931 . S
H1088 C1078 0.929 . S
H1089 C1079 0.929 . S
H1090 C1080 0.931 . S
H1091 C1081 0.929 . S
Tb1092 N1121 2.617 . S
Tb1092 N1127 2.572 . S
Tb1092 O1136 2.465 . S
Tb1092 O1137 2.387 . S
Tb1092 O1139 2.428 . S
Tb1092 O1140 2.308 . S
Tb1092 O1144 2.349 . S
Tb1092 O1147 2.393 . S
Tb1092 C1156 2.802 . S
C1093 N1094 1.379 . S
C1093 C1096 1.416 . S
C1093 C1100 1.424 . S
N1094 C1093 1.379 . S
N1094 C1097 1.334 . S
N1094 Tb1103 2.617 . S
C1095 C1097 1.390 . S
C1095 C1098 1.339 . S
C1095 H1115 0.930 . S
C1096 C1093 1.416 . S
C1096 C1098 1.416 . S
C1096 C1102 1.448 . S
C1097 N1094 1.334 . S
C1097 C1095 1.390 . S
C1097 H1108 0.930 . S
C1098 C1095 1.339 . S
C1098 C1096 1.416 . S
C1098 H1119 0.930 1_565 S
C1099 C1100 1.413 . S
C1099 C1101 1.427 . S
C1099 C1105 1.416 . S
C1100 C1093 1.424 . S
C1100 C1099 1.413 . S
C1100 N1104 1.361 . S
C1101 C1099 1.427 . S
C1101 C1102 1.328 . S
C1101 H1116 0.929 . S
C1102 C1096 1.448 . S
C1102 C1101 1.328 . S
C1102 H1117 0.930 1_565 S
Tb1103 N1094 2.617 . S
Tb1103 N1104 2.572 . S
Tb1103 O1138 2.349 . S
Tb1103 O1141 2.393 . S
Tb1103 O1142 2.465 . S
Tb1103 O1143 2.387 . S
Tb1103 O1145 2.428 . S
Tb1103 O1146 2.308 . S
Tb1103 C1167 2.802 . S
N1104 C1100 1.361 . S
N1104 Tb1103 2.572 . S
N1104 C1106 1.340 . S
C1105 C1099 1.416 . S
C1105 C1107 1.332 . S
C1105 H1113 0.931 . S
C1106 N1104 1.340 . S
C1106 C1107 1.407 . S
C1106 H1112 0.930 . S
C1107 C1105 1.332 . S
C1107 C1106 1.407 . S
C1107 H1109 0.929 . S
H1108 C1097 0.930 . S
H1109 C1107 0.929 . S
H1110 C1125 0.930 . S
H1111 C1132 0.929 . S
H1112 C1106 0.930 . S
H1113 C1105 0.931 . S
H1114 C1128 0.930 . S
H1115 C1095 0.930 . S
H1116 C1101 0.929 . S
H1117 C1102 0.930 1_545 S
H1118 C1123 0.930 . S
H1119 C1098 0.930 1_545 S
H1120 C1131 0.931 . S
N1121 Tb1092 2.617 . S
N1121 C1122 1.379 . S
N1121 C1125 1.334 . S
C1122 N1121 1.379 . S
C1122 C1124 1.416 . S
C1122 C1130 1.424 . S
C1123 H1118 0.930 . S
C1123 C1125 1.390 . S
C1123 C1126 1.339 . S
C1124 C1122 1.416 . S
C1124 C1126 1.416 . S
C1124 C1157 1.448 . S
C1125 H1110 0.930 . S
C1125 N1121 1.334 . S
C1125 C1123 1.390 . S
C1126 C1123 1.339 . S
C1126 C1124 1.416 . S
C1126 H1133 0.930 . S
N1127 Tb1092 2.572 . S
N1127 C1128 1.340 . S
N1127 C1130 1.361 . S
C1128 H1114 0.930 . S
C1128 N1127 1.340 . S
C1128 C1132 1.407 . S
C1129 C1130 1.413 . S
C1129 C1131 1.416 . S
C1129 C1158 1.427 . S
C1130 C1122 1.424 . S
C1130 N1127 1.361 . S
C1130 C1129 1.413 . S
C1131 H1120 0.931 . S
C1131 C1129 1.416 . S
C1131 C1132 1.332 . S
C1132 H1111 0.929 . S
C1132 C1128 1.407 . S
C1132 C1131 1.332 . S
H1133 C1126 0.930 . S
H1134 C1157 0.930 . S
H1135 C1158 0.929 . S
O1136 Tb1092 2.465 . S
O1136 C1156 1.264 . S
O1137 Tb1092 2.387 . S
O1137 C1148 1.264 . S
O1138 Tb1103 2.349 . S
O1138 C1148 1.243 . S
O1139 Tb1092 2.428 . S
O1139 C1156 1.256 . S
O1140 Tb1092 2.308 . S
O1140 C1155 1.266 . S
O1141 Tb1103 2.393 . S
O1141 C1155 1.248 . S
O1142 Tb1103 2.465 . S
O1142 C1167 1.264 . S
O1143 Tb1103 2.387 . S
O1143 C1159 1.264 . S
O1144 Tb1092 2.349 . S
O1144 C1159 1.243 . S
O1145 Tb1103 2.428 . S
O1145 C1167 1.256 . S
O1146 Tb1103 2.308 . S
O1146 C1166 1.266 . S
O1147 Tb1092 2.393 . S
O1147 C1166 1.248 . S
C1148 O1137 1.264 . S
C1148 O1138 1.243 . S
C1149 C1152 1.399 . S
C1149 C1154 1.383 . S
C1149 C1156 1.496 . S
C1150 C1151 1.399 . S
C1150 C1154 1.389 . S
C1151 C1150 1.399 . S
C1151 C1153 1.380 . S
C1151 H1168 0.929 . S
C1152 C1149 1.399 . S
C1152 C1153 1.392 . S
C1152 H1169 0.929 . S
C1153 C1151 1.380 . S
C1153 C1152 1.392 . S
C1153 H1170 0.929 . S
C1154 C1149 1.383 . S
C1154 C1150 1.389 . S
C1154 H1171 0.931 . S
C1155 O1140 1.266 . S
C1155 O1141 1.248 . S
C1156 Tb1092 2.802 . S
C1156 O1136 1.264 . S
C1156 O1139 1.256 . S
C1156 C1149 1.496 . S
C1157 C1124 1.448 . S
C1157 H1134 0.930 . S
C1157 C1158 1.328 . S
C1158 C1129 1.427 . S
C1158 H1135 0.929 . S
C1158 C1157 1.328 . S
C1159 O1143 1.264 . S
C1159 O1144 1.243 . S
C1160 C1163 1.399 . S
C1160 C1164 1.383 . S
C1160 C1167 1.496 . S
C1161 C1162 1.399 . S
C1161 C1164 1.389 . S
C1162 C1161 1.399 . S
C1162 C1165 1.380 . S
C1162 H1172 0.929 . S
C1163 C1160 1.399 . S
C1163 C1165 1.392 . S
C1163 H1173 0.929 . S
C1164 C1160 1.383 . S
C1164 C1161 1.389 . S
C1164 H1174 0.931 . S
C1165 C1162 1.380 . S
C1165 C1163 1.392 . S
C1165 H1175 0.929 1_655 S
C1166 O1146 1.266 . S
C1166 O1147 1.248 . S
C1167 Tb1103 2.802 . S
C1167 O1142 1.264 . S
C1167 O1145 1.256 . S
C1167 C1160 1.496 . S
H1168 C1151 0.929 . S
H1169 C1152 0.929 . S
H1170 C1153 0.929 . S
H1171 C1154 0.931 . S
H1172 C1162 0.929 . S
H1173 C1163 0.929 . S
H1174 C1164 0.931 . S
H1175 C1165 0.929 1_455 S
Tb1176 N1205 2.617 . S
Tb1176 N1211 2.572 . S
Tb1176 O1220 2.465 . S
Tb1176 O1221 2.387 . S
Tb1176 O1223 2.428 . S
Tb1176 O1224 2.308 . S
Tb1176 O1228 2.349 . S
Tb1176 O1231 2.393 . S
Tb1176 C1240 2.802 . S
C1177 N1178 1.379 . S
C1177 C1180 1.416 . S
C1177 C1184 1.424 . S
N1178 C1177 1.379 . S
N1178 C1181 1.334 . S
N1178 Tb1187 2.617 . S
C1179 C1181 1.390 . S
C1179 C1182 1.339 . S
C1179 H1199 0.930 . S
C1180 C1177 1.416 . S
C1180 C1182 1.416 . S
C1180 C1186 1.448 . S
C1181 N1178 1.334 . S
C1181 C1179 1.390 . S
C1181 H1192 0.930 . S
C1182 C1179 1.339 . S
C1182 C1180 1.416 . S
C1182 H1203 0.930 . S
C1183 C1184 1.413 . S
C1183 C1185 1.427 . S
C1183 C1189 1.416 . S
C1184 C1177 1.424 . S
C1184 C1183 1.413 . S
C1184 N1188 1.361 . S
C1185 C1183 1.427 . S
C1185 C1186 1.328 . S
C1185 H1200 0.929 . S
C1186 C1180 1.448 . S
C1186 C1185 1.328 . S
C1186 H1201 0.930 . S
Tb1187 N1178 2.617 . S
Tb1187 N1188 2.572 . S
Tb1187 O1222 2.349 . S
Tb1187 O1225 2.393 . S
Tb1187 O1226 2.465 . S
Tb1187 O1227 2.387 . S
Tb1187 O1229 2.428 . S
Tb1187 O1230 2.308 . S
Tb1187 C1251 2.802 . S
N1188 C1184 1.361 . S
N1188 Tb1187 2.572 . S
N1188 C1190 1.340 . S
C1189 C1183 1.416 . S
C1189 C1191 1.332 . S
C1189 H1197 0.931 . S
C1190 N1188 1.340 . S
C1190 C1191 1.407 . S
C1190 H1196 0.930 . S
C1191 C1189 1.332 . S
C1191 C1190 1.407 . S
C1191 H1193 0.929 . S
H1192 C1181 0.930 . S
H1193 C1191 0.929 . S
H1194 C1209 0.930 . S
H1195 C1216 0.929 . S
H1196 C1190 0.930 . S
H1197 C1189 0.931 . S
H1198 C1212 0.930 . S
H1199 C1179 0.930 . S
H1200 C1185 0.929 . S
H1201 C1186 0.930 . S
H1202 C1207 0.930 . S
H1203 C1182 0.930 . S
H1204 C1215 0.931 . S
N1205 Tb1176 2.617 . S
N1205 C1206 1.379 . S
N1205 C1209 1.334 . S
C1206 N1205 1.379 . S
C1206 C1208 1.416 . S
C1206 C1214 1.424 . S
C1207 H1202 0.930 . S
C1207 C1209 1.390 . S
C1207 C1210 1.339 . S
C1208 C1206 1.416 . S
C1208 C1210 1.416 . S
C1208 C1241 1.448 . S
C1209 H1194 0.930 . S
C1209 N1205 1.334 . S
C1209 C1207 1.390 . S
C1210 C1207 1.339 . S
C1210 C1208 1.416 . S
C1210 H1217 0.930 . S
N1211 Tb1176 2.572 . S
N1211 C1212 1.340 . S
N1211 C1214 1.361 . S
C1212 H1198 0.930 . S
C1212 N1211 1.340 . S
C1212 C1216 1.407 . S
C1213 C1214 1.413 . S
C1213 C1215 1.416 . S
C1213 C1242 1.427 . S
C1214 C1206 1.424 . S
C1214 N1211 1.361 . S
C1214 C1213 1.413 . S
C1215 H1204 0.931 . S
C1215 C1213 1.416 . S
C1215 C1216 1.332 . S
C1216 H1195 0.929 . S
C1216 C1212 1.407 . S
C1216 C1215 1.332 . S
H1217 C1210 0.930 . S
H1218 C1241 0.930 . S
H1219 C1242 0.929 . S
O1220 Tb1176 2.465 . S
O1220 C1240 1.264 . S
O1221 Tb1176 2.387 . S
O1221 C1232 1.264 . S
O1222 Tb1187 2.349 . S
O1222 C1232 1.243 . S
O1223 Tb1176 2.428 . S
O1223 C1240 1.256 . S
O1224 Tb1176 2.308 . S
O1224 C1239 1.266 . S
O1225 Tb1187 2.393 . S
O1225 C1239 1.248 . S
O1226 Tb1187 2.465 . S
O1226 C1251 1.264 . S
O1227 Tb1187 2.387 . S
O1227 C1243 1.264 . S
O1228 Tb1176 2.349 . S
O1228 C1243 1.243 . S
O1229 Tb1187 2.428 . S
O1229 C1251 1.256 . S
O1230 Tb1187 2.308 . S
O1230 C1250 1.266 . S
O1231 Tb1176 2.393 . S
O1231 C1250 1.248 . S
C1232 O1221 1.264 . S
C1232 O1222 1.243 . S
C1233 C1236 1.399 . S
C1233 C1238 1.383 . S
C1233 C1240 1.496 . S
C1234 C1235 1.399 . S
C1234 C1238 1.389 . S
C1235 C1234 1.399 . S
C1235 C1237 1.380 . S
C1235 H1252 0.929 . S
C1236 C1233 1.399 . S
C1236 C1237 1.392 . S
C1236 H1253 0.929 . S
C1237 C1235 1.380 . S
C1237 C1236 1.392 . S
C1237 H1254 0.929 . S
C1238 C1233 1.383 . S
C1238 C1234 1.389 . S
C1238 H1255 0.931 . S
C1239 O1224 1.266 . S
C1239 O1225 1.248 . S
C1240 Tb1176 2.802 . S
C1240 O1220 1.264 . S
C1240 O1223 1.256 . S
C1240 C1233 1.496 . S
C1241 C1208 1.448 . S
C1241 H1218 0.930 . S
C1241 C1242 1.328 . S
C1242 C1213 1.427 . S
C1242 H1219 0.929 . S
C1242 C1241 1.328 . S
C1243 O1227 1.264 . S
C1243 O1228 1.243 . S
C1244 C1247 1.399 . S
C1244 C1248 1.383 . S
C1244 C1251 1.496 . S
C1245 C1246 1.399 . S
C1245 C1248 1.389 . S
C1246 C1245 1.399 . S
C1246 C1249 1.380 . S
C1246 H1256 0.929 . S
C1247 C1244 1.399 . S
C1247 C1249 1.392 . S
C1247 H1257 0.929 . S
C1248 C1244 1.383 . S
C1248 C1245 1.389 . S
C1248 H1258 0.931 . S
C1249 C1246 1.380 . S
C1249 C1247 1.392 . S
C1249 H1259 0.929 . S
C1250 O1230 1.266 . S
C1250 O1231 1.248 . S
C1251 Tb1187 2.802 . S
C1251 O1226 1.264 . S
C1251 O1229 1.256 . S
C1251 C1244 1.496 . S
H1252 C1235 0.929 . S
H1253 C1236 0.929 . S
H1254 C1237 0.929 . S
H1255 C1238 0.931 . S
H1256 C1246 0.929 . S
H1257 C1247 0.929 . S
H1258 C1248 0.931 . S
H1259 C1249 0.929 . S
Tb1260 N1289 2.617 . S
Tb1260 N1295 2.572 . S
Tb1260 O1304 2.465 1_655 S
Tb1260 O1305 2.387 . S
Tb1260 O1307 2.428 . S
Tb1260 O1308 2.308 1_655 S
Tb1260 O1312 2.349 1_654 S
Tb1260 O1315 2.393 1_554 S
Tb1260 C1324 2.802 . S
C1261 N1262 1.379 . S
C1261 C1264 1.416 . S
C1261 C1268 1.424 . S
N1262 C1261 1.379 . S
N1262 C1265 1.334 . S
N1262 Tb1271 2.617 . S
C1263 C1265 1.390 . S
C1263 C1266 1.339 . S
C1263 H1283 0.930 . S
C1264 C1261 1.416 . S
C1264 C1266 1.416 . S
C1264 C1270 1.448 . S
C1265 N1262 1.334 . S
C1265 C1263 1.390 . S
C1265 H1276 0.930 . S
C1266 C1263 1.339 . S
C1266 C1264 1.416 . S
C1266 H1287 0.930 . S
C1267 C1268 1.413 . S
C1267 C1269 1.427 . S
C1267 C1273 1.416 . S
C1268 C1261 1.424 . S
C1268 C1267 1.413 . S
C1268 N1272 1.361 . S
C1269 C1267 1.427 . S
C1269 C1270 1.328 . S
C1269 H1284 0.929 . S
C1270 C1264 1.448 . S
C1270 C1269 1.328 . S
C1270 H1285 0.930 . S
Tb1271 N1262 2.617 . S
Tb1271 N1272 2.572 . S
Tb1271 O1306 2.349 1_456 S
Tb1271 O1309 2.393 1_556 S
Tb1271 O1310 2.465 1_455 S
Tb1271 O1311 2.387 . S
Tb1271 O1313 2.428 . S
Tb1271 O1314 2.308 1_455 S
Tb1271 C1335 2.802 . S
N1272 C1268 1.361 . S
N1272 Tb1271 2.572 . S
N1272 C1274 1.340 . S
C1273 C1267 1.416 . S
C1273 C1275 1.332 . S
C1273 H1281 0.931 . S
C1274 N1272 1.340 . S
C1274 C1275 1.407 . S
C1274 H1280 0.930 . S
C1275 C1273 1.332 . S
C1275 C1274 1.407 . S
C1275 H1277 0.929 . S
H1276 C1265 0.930 . S
H1277 C1275 0.929 . S
H1278 C1293 0.930 . S
H1279 C1300 0.929 . S
H1280 C1274 0.930 . S
H1281 C1273 0.931 . S
H1282 C1296 0.930 . S
H1283 C1263 0.930 . S
H1284 C1269 0.929 . S
H1285 C1270 0.930 . S
H1286 C1291 0.930 . S
H1287 C1266 0.930 . S
H1288 C1299 0.931 . S
N1289 Tb1260 2.617 . S
N1289 C1290 1.379 . S
N1289 C1293 1.334 . S
C1290 N1289 1.379 . S
C1290 C1292 1.416 . S
C1290 C1298 1.424 . S
C1291 H1286 0.930 . S
C1291 C1293 1.390 . S
C1291 C1294 1.339 . S
C1292 C1290 1.416 . S
C1292 C1294 1.416 . S
C1292 C1325 1.448 . S
C1293 H1278 0.930 . S
C1293 N1289 1.334 . S
C1293 C1291 1.390 . S
C1294 C1291 1.339 . S
C1294 C1292 1.416 . S
C1294 H1301 0.930 . S
N1295 Tb1260 2.572 . S
N1295 C1296 1.340 . S
N1295 C1298 1.361 . S
C1296 H1282 0.930 . S
C1296 N1295 1.340 . S
C1296 C1300 1.407 . S
C1297 C1298 1.413 . S
C1297 C1299 1.416 . S
C1297 C1326 1.427 . S
C1298 C1290 1.424 . S
C1298 N1295 1.361 . S
C1298 C1297 1.413 . S
C1299 H1288 0.931 . S
C1299 C1297 1.416 . S
C1299 C1300 1.332 . S
C1300 H1279 0.929 . S
C1300 C1296 1.407 . S
C1300 C1299 1.332 . S
H1301 C1294 0.930 . S
H1302 C1325 0.930 . S
H1303 C1326 0.929 . S
O1304 Tb1260 2.465 1_455 S
O1304 C1324 1.264 1_455 S
O1305 Tb1260 2.387 . S
O1305 C1316 1.264 . S
O1306 Tb1271 2.349 1_654 S
O1306 C1316 1.243 . S
O1307 Tb1260 2.428 . S
O1307 C1324 1.256 . S
O1308 Tb1260 2.308 1_455 S
O1308 C1323 1.266 . S
O1309 Tb1271 2.393 1_554 S
O1309 C1323 1.248 . S
O1310 Tb1271 2.465 1_655 S
O1310 C1335 1.264 1_655 S
O1311 Tb1271 2.387 . S
O1311 C1327 1.264 . S
O1312 Tb1260 2.349 1_456 S
O1312 C1327 1.243 . S
O1313 Tb1271 2.428 . S
O1313 C1335 1.256 . S
O1314 Tb1271 2.308 1_655 S
O1314 C1334 1.266 . S
O1315 Tb1260 2.393 1_556 S
O1315 C1334 1.248 . S
C1316 O1305 1.264 . S
C1316 O1306 1.243 . S
C1317 C1320 1.399 . S
C1317 C1322 1.383 1_655 S
C1317 C1324 1.496 . S
C1318 C1319 1.399 1_455 S
C1318 C1322 1.389 . S
C1319 C1318 1.399 1_655 S
C1319 C1321 1.380 . S
C1319 H1336 0.913 1_655 S
C1320 C1317 1.399 . S
C1320 C1321 1.392 . S
C1320 H1337 0.929 . S
C1321 C1319 1.380 . S
C1321 C1320 1.392 . S
C1321 H1338 0.929 . S
C1322 C1317 1.383 1_455 S
C1322 C1318 1.389 . S
C1322 H1339 0.931 . S
C1323 O1308 1.266 . S
C1323 O1309 1.248 . S
C1324 Tb1260 2.802 . S
C1324 O1304 1.264 1_655 S
C1324 O1307 1.256 . S
C1324 C1317 1.496 . S
C1325 C1292 1.448 . S
C1325 H1302 0.930 . S
C1325 C1326 1.328 . S
C1326 C1297 1.427 . S
C1326 H1303 0.929 . S
C1326 C1325 1.328 . S
C1327 O1311 1.264 . S
C1327 O1312 1.243 . S
C1328 C1331 1.399 . S
C1328 C1332 1.383 1_455 S
C1328 C1335 1.496 . S
C1329 C1330 1.399 1_655 S
C1329 C1332 1.389 . S
C1330 C1329 1.399 1_455 S
C1330 C1333 1.380 . S
C1330 H1340 0.929 . S
C1331 C1328 1.399 . S
C1331 C1333 1.392 . S
C1331 H1341 0.929 . S
C1332 C1328 1.383 1_655 S
C1332 C1329 1.389 . S
C1332 H1342 0.931 . S
C1333 C1330 1.380 . S
C1333 C1331 1.392 . S
C1333 H1343 0.929 . S
C1334 O1314 1.266 . S
C1334 O1315 1.248 . S
C1335 Tb1271 2.802 . S
C1335 O1310 1.264 1_455 S
C1335 O1313 1.256 . S
C1335 C1328 1.496 . S
H1336 C1319 0.913 1_455 S
H1337 C1320 0.929 . S
H1338 C1321 0.929 . S
H1339 C1322 0.931 . S
H1340 C1330 0.929 . S
H1341 C1331 0.929 . S
H1342 C1332 0.931 . S
H1343 C1333 0.929 . S
C1344 C1345 1.387 . S
C1344 H1348 0.950 . S
C1344 C1353 1.390 . S
C1345 C1344 1.387 . S
C1345 C1347 1.387 . S
H1346 C1353 0.950 . S
C1347 C1345 1.387 . S
C1347 C1349 1.390 . S
C1347 H1351 0.950 . S
H1348 C1344 0.950 . S
C1349 C1347 1.390 . S
C1349 C1350 1.387 . S
C1349 H1352 0.950 . S
C1350 C1349 1.387 . S
C1350 C1353 1.387 . S
H1351 C1347 0.950 . S
H1352 C1349 0.950 . S
C1353 C1344 1.390 . S
C1353 H1346 0.950 . S
C1353 C1350 1.387 . S
C1354 C1355 1.387 . S
C1354 H1358 0.950 . S
C1354 C1363 1.390 . S
C1355 C1354 1.387 . S
C1355 C1357 1.387 . S
H1356 C1363 0.950 . S
C1357 C1355 1.387 . S
C1357 C1359 1.390 . S
C1357 H1361 0.950 . S
H1358 C1354 0.950 . S
C1359 C1357 1.390 . S
C1359 C1360 1.387 . S
C1359 H1362 0.950 . S
C1360 C1359 1.387 . S
C1360 C1363 1.387 . S
H1361 C1357 0.950 . S
H1362 C1359 0.950 . S
C1363 C1354 1.390 . S
C1363 H1356 0.950 . S
C1363 C1360 1.387 . S
C1364 C1365 1.387 . S
C1364 H1368 0.950 . S
C1364 C1373 1.390 . S
C1365 C1364 1.387 . S
C1365 C1367 1.387 . S
H1366 C1373 0.950 . S
C1367 C1365 1.387 . S
C1367 C1369 1.390 . S
C1367 H1371 0.950 . S
H1368 C1364 0.950 . S
C1369 C1367 1.390 . S
C1369 C1370 1.387 . S
C1369 H1372 0.950 . S
C1370 C1369 1.387 . S
C1370 C1373 1.387 . S
H1371 C1367 0.950 . S
H1372 C1369 0.950 . S
C1373 C1364 1.390 . S
C1373 H1366 0.950 . S
C1373 C1370 1.387 . S
C1374 C1375 1.387 . S
C1374 H1378 0.950 . S
C1374 C1383 1.390 . S
C1375 C1374 1.387 . S
C1375 C1377 1.387 . S
H1376 C1383 0.950 . S
C1377 C1375 1.387 . S
C1377 C1379 1.390 . S
C1377 H1381 0.950 . S
H1378 C1374 0.950 . S
C1379 C1377 1.390 . S
C1379 C1380 1.387 . S
C1379 H1382 0.950 . S
C1380 C1379 1.387 . S
C1380 C1383 1.387 . S
H1381 C1377 0.950 . S
H1382 C1379 0.950 . S
C1383 C1374 1.390 . S
C1383 H1376 0.950 . S
C1383 C1380 1.387 . S
C1384 C1385 1.387 . S
C1384 H1388 0.950 . S
C1384 C1393 1.390 . S
C1385 C1384 1.387 . S
C1385 C1387 1.387 . S
H1386 C1393 0.950 . S
C1387 C1385 1.387 . S
C1387 C1389 1.390 . S
C1387 H1391 0.950 . S
H1388 C1384 0.950 . S
C1389 C1387 1.390 . S
C1389 C1390 1.387 . S
C1389 H1392 0.950 . S
C1390 C1389 1.387 . S
C1390 C1393 1.387 . S
H1391 C1387 0.950 . S
H1392 C1389 0.950 . S
C1393 C1384 1.390 . S
C1393 H1386 0.950 . S
C1393 C1390 1.387 . S
C1394 C1395 1.387 . S
C1394 H1398 0.950 . S
C1394 C1403 1.390 . S
C1395 C1394 1.387 . S
C1395 C1397 1.387 . S
H1396 C1403 0.950 . S
C1397 C1395 1.387 . S
C1397 C1399 1.390 . S
C1397 H1401 0.950 . S
H1398 C1394 0.950 . S
C1399 C1397 1.390 . S
C1399 C1400 1.387 . S
C1399 H1402 0.950 . S
C1400 C1399 1.387 . S
C1400 C1403 1.387 . S
H1401 C1397 0.950 . S
H1402 C1399 0.950 . S
C1403 C1394 1.390 . S
C1403 H1396 0.950 . S
C1403 C1400 1.387 . S
C1404 C1405 1.387 . S
C1404 H1408 0.950 . S
C1404 C1413 1.390 . S
C1405 C1404 1.387 . S
C1405 C1407 1.387 . S
H1406 C1413 0.950 . S
C1407 C1405 1.387 . S
C1407 C1409 1.390 . S
C1407 H1411 0.950 . S
H1408 C1404 0.950 . S
C1409 C1407 1.390 . S
C1409 C1410 1.387 . S
C1409 H1412 0.950 . S
C1410 C1409 1.387 . S
C1410 C1413 1.387 . S
H1411 C1407 0.950 . S
H1412 C1409 0.950 . S
C1413 C1404 1.390 . S
C1413 H1406 0.950 . S
C1413 C1410 1.387 . S
C1414 C1415 1.387 . S
C1414 H1418 0.950 . S
C1414 C1423 1.390 . S
C1415 C1414 1.387 . S
C1415 C1417 1.387 . S
H1416 C1423 0.950 . S
C1417 C1415 1.387 . S
C1417 C1419 1.390 . S
C1417 H1421 0.950 . S
H1418 C1414 0.950 . S
C1419 C1417 1.390 . S
C1419 C1420 1.387 . S
C1419 H1422 0.950 . S
C1420 C1419 1.387 . S
C1420 C1423 1.387 . S
H1421 C1417 0.950 . S
H1422 C1419 0.950 . S
C1423 C1414 1.390 . S
C1423 H1416 0.950 . S
C1423 C1420 1.387 . S
C1424 C1425 1.387 . S
C1424 H1428 0.950 . S
C1424 C1433 1.390 . S
C1425 C1424 1.387 . S
C1425 C1427 1.387 . S
H1426 C1433 0.950 . S
C1427 C1425 1.387 . S
C1427 C1429 1.390 . S
C1427 H1431 0.950 . S
H1428 C1424 0.950 . S
C1429 C1427 1.390 . S
C1429 C1430 1.387 . S
C1429 H1432 0.950 . S
C1430 C1429 1.387 . S
C1430 C1433 1.387 . S
H1431 C1427 0.950 . S
H1432 C1429 0.950 . S
C1433 C1424 1.390 . S
C1433 H1426 0.950 . S
C1433 C1430 1.387 . S
C1434 C1435 1.387 . S
C1434 H1438 0.950 . S
C1434 C1443 1.390 . S
C1435 C1434 1.387 . S
C1435 C1437 1.387 . S
H1436 C1443 0.950 . S
C1437 C1435 1.387 . S
C1437 C1439 1.390 . S
C1437 H1441 0.950 . S
H1438 C1434 0.950 . S
C1439 C1437 1.390 . S
C1439 C1440 1.387 . S
C1439 H1442 0.950 . S
C1440 C1439 1.387 . S
C1440 C1443 1.387 . S
H1441 C1437 0.950 . S
H1442 C1439 0.950 . S
C1443 C1434 1.390 . S
C1443 H1436 0.950 . S
C1443 C1440 1.387 . S
C1444 C1445 1.387 . S
C1444 H1448 0.950 . S
C1444 C1453 1.390 . S
C1445 C1444 1.387 . S
C1445 C1447 1.387 . S
H1446 C1453 0.950 . S
C1447 C1445 1.387 . S
C1447 C1449 1.390 . S
C1447 H1451 0.950 . S
H1448 C1444 0.950 . S
C1449 C1447 1.390 . S
C1449 C1450 1.387 . S
C1449 H1452 0.950 . S
C1450 C1449 1.387 . S
C1450 C1453 1.387 . S
H1451 C1447 0.950 . S
H1452 C1449 0.950 . S
C1453 C1444 1.390 . S
C1453 H1446 0.950 . S
C1453 C1450 1.387 . S
C1454 C1455 1.387 . S
C1454 H1458 0.950 . S
C1454 C1463 1.390 . S
C1455 C1454 1.387 . S
C1455 C1457 1.387 . S
H1456 C1463 0.950 . S
C1457 C1455 1.387 . S
C1457 C1459 1.390 . S
C1457 H1461 0.950 . S
H1458 C1454 0.950 . S
C1459 C1457 1.390 . S
C1459 C1460 1.387 . S
C1459 H1462 0.950 . S
C1460 C1459 1.387 . S
C1460 C1463 1.387 . S
H1461 C1457 0.950 . S
H1462 C1459 0.950 . S
C1463 C1454 1.390 . S
C1463 H1456 0.950 . S
C1463 C1460 1.387 . S
C1464 C1465 1.387 . S
C1464 H1468 0.950 . S
C1464 C1473 1.390 . S
C1465 C1464 1.387 . S
C1465 C1467 1.387 . S
H1466 C1473 0.950 . S
C1467 C1465 1.387 . S
C1467 C1469 1.390 . S
C1467 H1471 0.950 . S
H1468 C1464 0.950 . S
C1469 C1467 1.390 . S
C1469 C1470 1.387 . S
C1469 H1472 0.950 . S
C1470 C1469 1.387 . S
C1470 C1473 1.387 . S
H1471 C1467 0.950 . S
H1472 C1469 0.950 . S
C1473 C1464 1.390 . S
C1473 H1466 0.950 . S
C1473 C1470 1.387 . S
C1474 C1475 1.387 . S
C1474 H1478 0.950 . S
C1474 C1483 1.390 . S
C1475 C1474 1.387 . S
C1475 C1477 1.387 . S
H1476 C1483 0.950 . S
C1477 C1475 1.387 . S
C1477 C1479 1.390 . S
C1477 H1481 0.950 . S
H1478 C1474 0.950 . S
C1479 C1477 1.390 . S
C1479 C1480 1.387 . S
C1479 H1482 0.950 . S
C1480 C1479 1.387 . S
C1480 C1483 1.387 . S
H1481 C1477 0.950 . S
H1482 C1479 0.950 . S
C1483 C1474 1.390 . S
C1483 H1476 0.950 . S
C1483 C1480 1.387 . S
C1484 C1485 1.387 . S
C1484 H1488 0.950 . S
C1484 C1493 1.390 . S
C1485 C1484 1.387 . S
C1485 C1487 1.387 . S
H1486 C1493 0.950 . S
C1487 C1485 1.387 . S
C1487 C1489 1.390 . S
C1487 H1491 0.950 . S
H1488 C1484 0.950 . S
C1489 C1487 1.390 . S
C1489 C1490 1.387 . S
C1489 H1492 0.950 . S
C1490 C1489 1.387 . S
C1490 C1493 1.387 . S
H1491 C1487 0.950 . S
H1492 C1489 0.950 . S
C1493 C1484 1.390 . S
C1493 H1486 0.950 . S
C1493 C1490 1.387 . S
C1494 C1495 1.387 . S
C1494 H1498 0.950 . S
C1494 C1503 1.390 . S
C1495 C1494 1.387 . S
C1495 C1497 1.387 . S
H1496 C1503 0.950 . S
C1497 C1495 1.387 . S
C1497 C1499 1.390 . S
C1497 H1501 0.950 . S
H1498 C1494 0.950 . S
C1499 C1497 1.390 . S
C1499 C1500 1.387 . S
C1499 H1502 0.950 . S
C1500 C1499 1.387 . S
C1500 C1503 1.387 . S
H1501 C1497 0.950 . S
H1502 C1499 0.950 . S
C1503 C1494 1.390 . S
C1503 H1496 0.950 . S
C1503 C1500 1.387 . S
C1504 C1505 1.387 . S
C1504 H1508 0.950 . S
C1504 C1513 1.390 . S
C1505 C1504 1.387 . S
C1505 C1507 1.387 . S
H1506 C1513 0.950 . S
C1507 C1505 1.387 . S
C1507 C1509 1.390 . S
C1507 H1511 0.950 . S
H1508 C1504 0.950 . S
C1509 C1507 1.390 . S
C1509 C1510 1.387 . S
C1509 H1512 0.950 . S
C1510 C1509 1.387 . S
C1510 C1513 1.387 . S
H1511 C1507 0.950 . S
H1512 C1509 0.950 . S
C1513 C1504 1.390 . S
C1513 H1506 0.950 . S
C1513 C1510 1.387 . S
C1514 C1515 1.387 . S
C1514 H1518 0.950 . S
C1514 C1523 1.390 . S
C1515 C1514 1.387 . S
C1515 C1517 1.387 . S
H1516 C1523 0.950 . S
C1517 C1515 1.387 . S
C1517 C1519 1.390 . S
C1517 H1521 0.950 . S
H1518 C1514 0.950 . S
C1519 C1517 1.390 . S
C1519 C1520 1.387 . S
C1519 H1522 0.950 . S
C1520 C1519 1.387 . S
C1520 C1523 1.387 . S
H1521 C1517 0.950 . S
H1522 C1519 0.950 . S
C1523 C1514 1.390 . S
C1523 H1516 0.950 . S
C1523 C1520 1.387 . S
C1524 C1525 1.387 . S
C1524 H1528 0.950 . S
C1524 C1533 1.390 . S
C1525 C1524 1.387 . S
C1525 C1527 1.387 . S
H1526 C1533 0.950 . S
C1527 C1525 1.387 . S
C1527 C1529 1.390 . S
C1527 H1531 0.950 . S
H1528 C1524 0.950 . S
C1529 C1527 1.390 . S
C1529 C1530 1.387 . S
C1529 H1532 0.950 . S
C1530 C1529 1.387 . S
C1530 C1533 1.387 . S
H1531 C1527 0.950 . S
H1532 C1529 0.950 . S
C1533 C1524 1.390 . S
C1533 H1526 0.950 . S
C1533 C1530 1.387 . S
C1534 C1535 1.387 . S
C1534 H1538 0.950 . S
C1534 C1543 1.390 . S
C1535 C1534 1.387 . S
C1535 C1537 1.387 . S
H1536 C1543 0.950 . S
C1537 C1535 1.387 . S
C1537 C1539 1.390 . S
C1537 H1541 0.950 . S
H1538 C1534 0.950 . S
C1539 C1537 1.390 . S
C1539 C1540 1.387 . S
C1539 H1542 0.950 . S
C1540 C1539 1.387 . S
C1540 C1543 1.387 . S
H1541 C1537 0.950 . S
H1542 C1539 0.950 . S
C1543 C1534 1.390 . S
C1543 H1536 0.950 . S
C1543 C1540 1.387 . S
C1544 C1545 1.387 . S
C1544 H1548 0.950 . S
C1544 C1553 1.390 . S
C1545 C1544 1.387 . S
C1545 C1547 1.387 . S
H1546 C1553 0.950 . S
C1547 C1545 1.387 . S
C1547 C1549 1.390 . S
C1547 H1551 0.950 . S
H1548 C1544 0.950 . S
C1549 C1547 1.390 . S
C1549 C1550 1.387 . S
C1549 H1552 0.950 . S
C1550 C1549 1.387 . S
C1550 C1553 1.387 . S
H1551 C1547 0.950 . S
H1552 C1549 0.950 . S
C1553 C1544 1.390 . S
C1553 H1546 0.950 . S
C1553 C1550 1.387 . S
C1554 C1555 1.387 . S
C1554 H1558 0.950 . S
C1554 C1563 1.390 . S
C1555 C1554 1.387 . S
C1555 C1557 1.387 . S
H1556 C1563 0.950 . S
C1557 C1555 1.387 . S
C1557 C1559 1.390 . S
C1557 H1561 0.950 . S
H1558 C1554 0.950 . S
C1559 C1557 1.390 . S
C1559 C1560 1.387 . S
C1559 H1562 0.950 . S
C1560 C1559 1.387 . S
C1560 C1563 1.387 . S
H1561 C1557 0.950 . S
H1562 C1559 0.950 . S
C1563 C1554 1.390 . S
C1563 H1556 0.950 . S
C1563 C1560 1.387 . S
C1564 C1565 1.387 . S
C1564 H1568 0.950 . S
C1564 C1573 1.390 . S
C1565 C1564 1.387 . S
C1565 C1567 1.387 . S
H1566 C1573 0.950 . S
C1567 C1565 1.387 . S
C1567 C1569 1.390 . S
C1567 H1571 0.950 . S
H1568 C1564 0.950 . S
C1569 C1567 1.390 . S
C1569 C1570 1.387 . S
C1569 H1572 0.950 . S
C1570 C1569 1.387 . S
C1570 C1573 1.387 . S
H1571 C1567 0.950 . S
H1572 C1569 0.950 . S
C1573 C1564 1.390 . S
C1573 H1566 0.950 . S
C1573 C1570 1.387 . S
C1574 C1575 1.387 . S
C1574 H1578 0.950 . S
C1574 C1583 1.390 . S
C1575 C1574 1.387 . S
C1575 C1577 1.387 . S
H1576 C1583 0.950 . S
C1577 C1575 1.387 . S
C1577 C1579 1.390 . S
C1577 H1581 0.950 . S
H1578 C1574 0.950 . S
C1579 C1577 1.390 . S
C1579 C1580 1.387 . S
C1579 H1582 0.950 . S
C1580 C1579 1.387 . S
C1580 C1583 1.387 . S
H1581 C1577 0.950 . S
H1582 C1579 0.950 . S
C1583 C1574 1.390 . S
C1583 H1576 0.950 . S
C1583 C1580 1.387 . S
C1584 C1585 1.387 . S
C1584 H1588 0.950 . S
C1584 C1593 1.390 . S
C1585 C1584 1.387 . S
C1585 C1587 1.387 . S
H1586 C1593 0.950 . S
C1587 C1585 1.387 . S
C1587 C1589 1.390 . S
C1587 H1591 0.950 . S
H1588 C1584 0.950 . S
C1589 C1587 1.390 . S
C1589 C1590 1.387 . S
C1589 H1592 0.950 . S
C1590 C1589 1.387 . S
C1590 C1593 1.387 . S
H1591 C1587 0.950 . S
H1592 C1589 0.950 . S
C1593 C1584 1.390 . S
C1593 H1586 0.950 . S
C1593 C1590 1.387 . S
C1594 C1595 1.387 . S
C1594 H1598 0.950 . S
C1594 C1603 1.390 . S
C1595 C1594 1.387 . S
C1595 C1597 1.387 . S
H1596 C1603 0.950 . S
C1597 C1595 1.387 . S
C1597 C1599 1.390 . S
C1597 H1601 0.950 . S
H1598 C1594 0.950 . S
C1599 C1597 1.390 . S
C1599 C1600 1.387 . S
C1599 H1602 0.950 . S
C1600 C1599 1.387 . S
C1600 C1603 1.387 . S
H1601 C1597 0.950 . S
H1602 C1599 0.950 . S
C1603 C1594 1.390 . S
C1603 H1596 0.950 . S
C1603 C1600 1.387 . S
C1604 C1605 1.387 . S
C1604 H1608 0.950 . S
C1604 C1613 1.390 . S
C1605 C1604 1.387 . S
C1605 C1607 1.387 . S
H1606 C1613 0.950 . S
C1607 C1605 1.387 . S
C1607 C1609 1.390 . S
C1607 H1611 0.950 . S
H1608 C1604 0.950 . S
C1609 C1607 1.390 . S
C1609 C1610 1.387 . S
C1609 H1612 0.950 . S
C1610 C1609 1.387 . S
C1610 C1613 1.387 . S
H1611 C1607 0.950 . S
H1612 C1609 0.950 . S
C1613 C1604 1.390 . S
C1613 H1606 0.950 . S
C1613 C1610 1.387 . S
C1614 C1615 1.387 . S
C1614 H1618 0.950 . S
C1614 C1623 1.390 . S
C1615 C1614 1.387 . S
C1615 C1617 1.387 . S
H1616 C1623 0.950 . S
C1617 C1615 1.387 . S
C1617 C1619 1.390 . S
C1617 H1621 0.950 . S
H1618 C1614 0.950 . S
C1619 C1617 1.390 . S
C1619 C1620 1.387 . S
C1619 H1622 0.950 . S
C1620 C1619 1.387 . S
C1620 C1623 1.387 . S
H1621 C1617 0.950 . S
H1622 C1619 0.950 . S
C1623 C1614 1.390 . S
C1623 H1616 0.950 . S
C1623 C1620 1.387 . S
C1624 C1625 1.387 . S
C1624 H1628 0.950 . S
C1624 C1633 1.390 . S
C1625 C1624 1.387 . S
C1625 C1627 1.387 . S
H1626 C1633 0.950 . S
C1627 C1625 1.387 . S
C1627 C1629 1.390 . S
C1627 H1631 0.950 . S
H1628 C1624 0.950 . S
C1629 C1627 1.390 . S
C1629 C1630 1.387 . S
C1629 H1632 0.950 . S
C1630 C1629 1.387 . S
C1630 C1633 1.387 . S
H1631 C1627 0.950 . S
H1632 C1629 0.950 . S
C1633 C1624 1.390 . S
C1633 H1626 0.950 . S
C1633 C1630 1.387 . S
C1634 C1635 1.387 . S
C1634 H1638 0.950 . S
C1634 C1643 1.390 . S
C1635 C1634 1.387 . S
C1635 C1637 1.387 . S
H1636 C1643 0.950 . S
C1637 C1635 1.387 . S
C1637 C1639 1.390 . S
C1637 H1641 0.950 . S
H1638 C1634 0.950 . S
C1639 C1637 1.390 . S
C1639 C1640 1.387 . S
C1639 H1642 0.950 . S
C1640 C1639 1.387 . S
C1640 C1643 1.387 . S
H1641 C1637 0.950 . S
H1642 C1639 0.950 . S
C1643 C1634 1.390 . S
C1643 H1636 0.950 . S
C1643 C1640 1.387 . S
C1644 C1645 1.387 . S
C1644 H1648 0.950 . S
C1644 C1653 1.390 . S
C1645 C1644 1.387 . S
C1645 C1647 1.387 . S
H1646 C1653 0.950 . S
C1647 C1645 1.387 . S
C1647 C1649 1.390 . S
C1647 H1651 0.950 . S
H1648 C1644 0.950 . S
C1649 C1647 1.390 . S
C1649 C1650 1.387 . S
C1649 H1652 0.950 . S
C1650 C1649 1.387 . S
C1650 C1653 1.387 . S
H1651 C1647 0.950 . S
H1652 C1649 0.950 . S
C1653 C1644 1.390 . S
C1653 H1646 0.950 . S
C1653 C1650 1.387 . S
C1654 C1655 1.387 . S
C1654 H1658 0.950 . S
C1654 C1663 1.390 . S
C1655 C1654 1.387 . S
C1655 C1657 1.387 . S
H1656 C1663 0.950 . S
C1657 C1655 1.387 . S
C1657 C1659 1.390 . S
C1657 H1661 0.950 . S
H1658 C1654 0.950 . S
C1659 C1657 1.390 . S
C1659 C1660 1.387 . S
C1659 H1662 0.950 . S
C1660 C1659 1.387 . S
C1660 C1663 1.387 . S
H1661 C1657 0.950 . S
H1662 C1659 0.950 . S
C1663 C1654 1.390 . S
C1663 H1656 0.950 . S
C1663 C1660 1.387 . S
C1664 C1665 1.387 . S
C1664 H1668 0.950 . S
C1664 C1673 1.390 . S
C1665 C1664 1.387 . S
C1665 C1667 1.387 . S
H1666 C1673 0.950 . S
C1667 C1665 1.387 . S
C1667 C1669 1.390 . S
C1667 H1671 0.950 . S
H1668 C1664 0.950 . S
C1669 C1667 1.390 . S
C1669 C1670 1.387 . S
C1669 H1672 0.950 . S
C1670 C1669 1.387 . S
C1670 C1673 1.387 . S
H1671 C1667 0.950 . S
H1672 C1669 0.950 . S
C1673 C1664 1.390 . S
C1673 H1666 0.950 . S
C1673 C1670 1.387 . S
C1674 C1675 1.387 . S
C1674 H1678 0.950 . S
C1674 C1683 1.390 . S
C1675 C1674 1.387 . S
C1675 C1677 1.387 . S
H1676 C1683 0.950 . S
C1677 C1675 1.387 . S
C1677 C1679 1.390 . S
C1677 H1681 0.950 . S
H1678 C1674 0.950 . S
C1679 C1677 1.390 . S
C1679 C1680 1.387 . S
C1679 H1682 0.950 . S
C1680 C1679 1.387 . S
C1680 C1683 1.387 . S
H1681 C1677 0.950 . S
H1682 C1679 0.950 . S
C1683 C1674 1.390 . S
C1683 H1676 0.950 . S
C1683 C1680 1.387 . S
C1684 C1685 1.387 . S
C1684 H1688 0.950 . S
C1684 C1693 1.390 . S
C1685 C1684 1.387 . S
C1685 C1687 1.387 . S
H1686 C1693 0.950 . S
C1687 C1685 1.387 . S
C1687 C1689 1.390 . S
C1687 H1691 0.950 . S
H1688 C1684 0.950 . S
C1689 C1687 1.390 . S
C1689 C1690 1.387 . S
C1689 H1692 0.950 . S
C1690 C1689 1.387 . S
C1690 C1693 1.387 . S
H1691 C1687 0.950 . S
H1692 C1689 0.950 . S
C1693 C1684 1.390 . S
C1693 H1686 0.950 . S
C1693 C1690 1.387 . S
C1694 C1695 1.387 . S
C1694 H1698 0.950 . S
C1694 C1703 1.390 . S
C1695 C1694 1.387 . S
C1695 C1697 1.387 . S
H1696 C1703 0.950 . S
C1697 C1695 1.387 . S
C1697 C1699 1.390 . S
C1697 H1701 0.950 . S
H1698 C1694 0.950 . S
C1699 C1697 1.390 . S
C1699 C1700 1.387 . S
C1699 H1702 0.950 . S
C1700 C1699 1.387 . S
C1700 C1703 1.387 . S
H1701 C1697 0.950 . S
H1702 C1699 0.950 . S
C1703 C1694 1.390 . S
C1703 H1696 0.950 . S
C1703 C1700 1.387 . S
C1704 C1705 1.387 . S
C1704 H1708 0.950 . S
C1704 C1713 1.390 . S
C1705 C1704 1.387 . S
C1705 C1707 1.387 . S
H1706 C1713 0.950 . S
C1707 C1705 1.387 . S
C1707 C1709 1.390 . S
C1707 H1711 0.950 . S
H1708 C1704 0.950 . S
C1709 C1707 1.390 . S
C1709 C1710 1.387 . S
C1709 H1712 0.950 . S
C1710 C1709 1.387 . S
C1710 C1713 1.387 . S
H1711 C1707 0.950 . S
H1712 C1709 0.950 . S
C1713 C1704 1.390 . S
C1713 H1706 0.950 . S
C1713 C1710 1.387 . S
C1714 C1715 1.387 . S
C1714 H1718 0.950 . S
C1714 C1723 1.390 . S
C1715 C1714 1.387 . S
C1715 C1717 1.387 . S
H1716 C1723 0.950 . S
C1717 C1715 1.387 . S
C1717 C1719 1.390 . S
C1717 H1721 0.950 . S
H1718 C1714 0.950 . S
C1719 C1717 1.390 . S
C1719 C1720 1.387 . S
C1719 H1722 0.950 . S
C1720 C1719 1.387 . S
C1720 C1723 1.387 . S
H1721 C1717 0.950 . S
H1722 C1719 0.950 . S
C1723 C1714 1.390 . S
C1723 H1716 0.950 . S
C1723 C1720 1.387 . S
C1724 C1725 1.387 . S
C1724 H1728 0.950 . S
C1724 C1733 1.390 . S
C1725 C1724 1.387 . S
C1725 C1727 1.387 . S
H1726 C1733 0.950 . S
C1727 C1725 1.387 . S
C1727 C1729 1.390 . S
C1727 H1731 0.950 . S
H1728 C1724 0.950 . S
C1729 C1727 1.390 . S
C1729 C1730 1.387 . S
C1729 H1732 0.950 . S
C1730 C1729 1.387 . S
C1730 C1733 1.387 . S
H1731 C1727 0.950 . S
H1732 C1729 0.950 . S
C1733 C1724 1.390 . S
C1733 H1726 0.950 . S
C1733 C1730 1.387 . S
C1734 C1735 1.387 . S
C1734 H1738 0.950 . S
C1734 C1743 1.390 . S
C1735 C1734 1.387 . S
C1735 C1737 1.387 . S
H1736 C1743 0.950 . S
C1737 C1735 1.387 . S
C1737 C1739 1.390 . S
C1737 H1741 0.950 . S
H1738 C1734 0.950 . S
C1739 C1737 1.390 . S
C1739 C1740 1.387 . S
C1739 H1742 0.950 . S
C1740 C1739 1.387 . S
C1740 C1743 1.387 . S
H1741 C1737 0.950 . S
H1742 C1739 0.950 . S
C1743 C1734 1.390 . S
C1743 H1736 0.950 . S
C1743 C1740 1.387 . S
C1744 C1745 1.387 . S
C1744 H1748 0.950 . S
C1744 C1753 1.390 . S
C1745 C1744 1.387 . S
C1745 C1747 1.387 . S
H1746 C1753 0.950 . S
C1747 C1745 1.387 . S
C1747 C1749 1.390 . S
C1747 H1751 0.950 . S
H1748 C1744 0.950 . S
C1749 C1747 1.390 . S
C1749 C1750 1.387 . S
C1749 H1752 0.950 . S
C1750 C1749 1.387 . S
C1750 C1753 1.387 . S
H1751 C1747 0.950 . S
H1752 C1749 0.950 . S
C1753 C1744 1.390 . S
C1753 H1746 0.950 . S
C1753 C1750 1.387 . S
C1754 C1755 1.387 . S
C1754 H1758 0.950 . S
C1754 C1763 1.390 . S
C1755 C1754 1.387 . S
C1755 C1757 1.387 . S
H1756 C1763 0.950 . S
C1757 C1755 1.387 . S
C1757 C1759 1.390 . S
C1757 H1761 0.950 . S
H1758 C1754 0.950 . S
C1759 C1757 1.390 . S
C1759 C1760 1.387 . S
C1759 H1762 0.950 . S
C1760 C1759 1.387 . S
C1760 C1763 1.387 . S
H1761 C1757 0.950 . S
H1762 C1759 0.950 . S
C1763 C1754 1.390 . S
C1763 H1756 0.950 . S
C1763 C1760 1.387 . S
C1764 C1765 1.387 . S
C1764 H1768 0.950 . S
C1764 C1773 1.390 . S
C1765 C1764 1.387 . S
C1765 C1767 1.387 . S
H1766 C1773 0.950 . S
C1767 C1765 1.387 . S
C1767 C1769 1.390 . S
C1767 H1771 0.950 . S
H1768 C1764 0.950 . S
C1769 C1767 1.390 . S
C1769 C1770 1.387 . S
C1769 H1772 0.950 . S
C1770 C1769 1.387 . S
C1770 C1773 1.387 . S
H1771 C1767 0.950 . S
H1772 C1769 0.950 . S
C1773 C1764 1.390 . S
C1773 H1766 0.950 . S
C1773 C1770 1.387 . S
C1774 C1775 1.387 . S
C1774 H1778 0.950 . S
C1774 C1783 1.390 . S
C1775 C1774 1.387 . S
C1775 C1777 1.387 . S
H1776 C1783 0.950 . S
C1777 C1775 1.387 . S
C1777 C1779 1.390 . S
C1777 H1781 0.950 1_554 S
H1778 C1774 0.950 . S
C1779 C1777 1.390 . S
C1779 C1780 1.387 . S
C1779 H1782 0.950 1_554 S
C1780 C1779 1.387 . S
C1780 C1783 1.387 . S
H1781 C1777 0.950 1_556 S
H1782 C1779 0.950 1_556 S
C1783 C1774 1.390 . S
C1783 H1776 0.950 . S
C1783 C1780 1.387 . S
C1784 C1785 1.387 . S
C1784 H1788 0.950 . S
C1784 C1793 1.390 . S
C1785 C1784 1.387 . S
C1785 C1787 1.387 . S
H1786 C1793 0.950 . S
C1787 C1785 1.387 . S
C1787 C1789 1.390 . S
C1787 H1791 0.950 . S
H1788 C1784 0.950 . S
C1789 C1787 1.390 . S
C1789 C1790 1.387 . S
C1789 H1792 0.950 . S
C1790 C1789 1.387 . S
C1790 C1793 1.387 . S
H1791 C1787 0.950 . S
H1792 C1789 0.950 . S
C1793 C1784 1.390 . S
C1793 H1786 0.950 . S
C1793 C1790 1.387 . S
C1794 C1795 1.387 . S
C1794 H1798 0.950 . S
C1794 C1803 1.390 . S
C1795 C1794 1.387 . S
C1795 C1797 1.387 . S
H1796 C1803 0.950 . S
C1797 C1795 1.387 . S
C1797 C1799 1.390 . S
C1797 H1801 0.950 . S
H1798 C1794 0.950 . S
C1799 C1797 1.390 . S
C1799 C1800 1.387 . S
C1799 H1802 0.950 . S
C1800 C1799 1.387 . S
C1800 C1803 1.387 . S
H1801 C1797 0.950 . S
H1802 C1799 0.950 . S
C1803 C1794 1.390 . S
C1803 H1796 0.950 . S
C1803 C1800 1.387 . S
C1804 C1805 1.387 . S
C1804 H1808 0.950 . S
C1804 C1813 1.390 . S
C1805 C1804 1.387 . S
C1805 C1807 1.387 . S
H1806 C1813 0.950 . S
C1807 C1805 1.387 . S
C1807 C1809 1.390 . S
C1807 H1811 0.950 1_556 S
H1808 C1804 0.950 . S
C1809 C1807 1.390 . S
C1809 C1810 1.387 . S
C1809 H1812 0.950 1_556 S
C1810 C1809 1.387 . S
C1810 C1813 1.387 . S
H1811 C1807 0.950 1_554 S
H1812 C1809 0.950 1_554 S
C1813 C1804 1.390 . S
C1813 H1806 0.950 . S
C1813 C1810 1.387 . S
C1814 C1815 1.387 . S
C1814 H1818 0.950 . S
C1814 C1823 1.390 . S
C1815 C1814 1.387 . S
C1815 C1817 1.387 . S
H1816 C1823 0.950 . S
C1817 C1815 1.387 . S
C1817 C1819 1.390 . S
C1817 H1821 0.950 . S
H1818 C1814 0.950 . S
C1819 C1817 1.390 . S
C1819 C1820 1.387 . S
C1819 H1822 0.950 . S
C1820 C1819 1.387 . S
C1820 C1823 1.387 . S
H1821 C1817 0.950 . S
H1822 C1819 0.950 . S
C1823 C1814 1.390 . S
C1823 H1816 0.950 . S
C1823 C1820 1.387 . S
C1345 C319 1.780 . S
C1350 C63 1.807 . S
C1355 C69 1.245 . S
C1360 C142 1.109 . S
C1365 C242 1.726 . S
C1370 C158 1.746 . S
C1375 C321 0.926 . S
C1380 C224 1.159 . S
C1385 C405 1.240 . S
C1390 C489 1.268 . S
C1395 C483 1.756 . S
C1400 C578 1.728 . S
C1405 C562 0.869 . S
C1410 C644 1.154 . S
C1415 C403 1.761 . S
C1420 C662 1.765 . S
C1425 C823 3.381 . S
C1430 C67 3.380 . S
C1435 C896 1.727 . S
C1440 C140 1.737 . S
C1445 C226 1.162 . S
C1450 C1150 1.173 . S
C1455 C735 1.772 . S
C1460 C315 1.707 . S
C1465 C987 1.706 . S
C1470 C399 1.771 . S
C1475 C1243 3.381 . S
C1480 C487 3.381 . S
C1485 C560 1.727 . S
C1490 C1064 1.736 . S
C1495 C1318 1.162 . S
C1500 C646 1.171 . S
C1505 C739 1.761 . S
C1510 C1166 1.767 . S
C1515 C825 1.269 . S
C1520 C741 1.244 . S
C1525 C914 1.727 . S
C1530 C819 1.758 . S
C1535 C1239 1.809 . S
C1540 C991 1.782 . S
C1545 C1082 1.747 . S
C1550 C1334 1.727 . S
C1555 C980 1.781 . S
C1560 C74 1.809 . S
C1565 C1077 1.106 . S
C1570 C58 1.244 . S
C1575 C1071 1.747 . S
C1580 C231 1.727 . S
C1585 C235 1.160 . S
C1590 C982 0.933 . S
C1595 C814 1.269 . S
C1600 C394 1.241 . S
C1605 C830 1.757 . S
C1610 C567 1.728 . S
C1615 C1159 1.155 . S
C1620 C573 0.869 . S
C1625 C392 1.762 . S
C1630 C1155 1.769 . S
C1635 C476 3.381 . S
C1640 C56 3.382 . S
C1645 C907 1.727 . S
C1650 C1075 1.737 . S
C1655 C237 1.164 . S
C1660 C657 1.164 . S
C1665 C746 1.772 . S
C1670 C998 1.709 . S
C1675 C326 1.709 . S
C1680 C410 1.772 . S
C1685 C812 3.381 . S
C1690 C1232 3.381 . S
C1695 C571 1.727 . S
C1700 C151 1.738 . S
C1705 C1329 1.162 . S
C1710 C1161 1.171 . S
C1715 C728 1.762 . S
C1720 C651 1.766 . S
C1725 C730 1.243 . S
C1730 C478 1.268 . S
C1735 C903 1.726 . S
C1740 C494 1.758 . S
C1745 C308 1.782 . S
C1750 C1250 1.808 . S
C1755 C147 1.747 . S
C1760 C1323 1.727 . S
C1765 C1066 1.107 . S
C1770 C1245 1.247 . S
C1775 C993 0.927 . S
C1780 C1316 1.161 . S
C1785 C898 0.865 . S
C1790 C1148 1.153 . S
C1795 C1234 1.247 . S
C1800 C153 1.102 . S
C1805 C310 0.931 . S
C1810 C1327 1.159 . S
C1815 C655 1.156 . S
C1820 C909 0.872 . S
