# Generated by pormake.
# Topology qtz-x, (6)-cn, num edge types: 1
# Building blocks:
#     Node 0, Type 0, BuildingBlock: KUMBUR_clean_sbu_1, # of connection points: 6
#     Node 1, Type 0, BuildingBlock: KUMBUR_clean_sbu_1, # of connection points: 6
#     Node 2, Type 0, BuildingBlock: KUMBUR_clean_sbu_1, # of connection points: 6
#     Edge 3, Type (0, 0), BuildingBlock: XUDNAN_clean_linker_2, # of connection points: 2
#     Edge 4, Type (0, 0), BuildingBlock: XUDNAN_clean_linker_2, # of connection points: 2
#     Edge 5, Type (0, 0), BuildingBlock: XUDNAN_clean_linker_2, # of connection points: 2
#     Edge 6, Type (0, 0), BuildingBlock: XUDNAN_clean_linker_2, # of connection points: 2
#     Edge 7, Type (0, 0), BuildingBlock: XUDNAN_clean_linker_2, # of connection points: 2
#     Edge 8, Type (0, 0), BuildingBlock: XUDNAN_clean_linker_2, # of connection points: 2
#     Edge 9, Type (0, 0), BuildingBlock: XUDNAN_clean_linker_2, # of connection points: 2
#     Edge 10, Type (0, 0), BuildingBlock: XUDNAN_clean_linker_2, # of connection points: 2
#     Edge 11, Type (0, 0), BuildingBlock: XUDNAN_clean_linker_2, # of connection points: 2
# Relax obj value: 0.202
# Max RMSD: 0.279
# Mean RMSD: 0.279
data_MOF--net-qtz-x--node1-KUMBUR_clean_sbu_1--edge1-XUDNAN_clean_linker_2
_symmetry_space_group_name_H-M    P1
_symmetry_Int_Tables_number       1
_symmetry_cell_setting            triclinic
loop_
_symmetry_equiv_pos_as_xyz
'x, y, z'
_cell_length_a     14.812977
_cell_length_b     14.829047
_cell_length_c     52.833082
_cell_angle_alpha  90.196357
_cell_angle_beta   89.915359
_cell_angle_gamma 119.87763
loop_
_atom_site_label
_atom_site_type_symbol
_atom_site_fract_x
_atom_site_fract_y
_atom_site_fract_z
_atom_type_partial_charge
Tb0 Tb 0.95016 0.43621 0.14241 0.0
C1 C 0.42561 0.66127 0.15191 0.0
N2 N 0.3528 0.56816 0.16162 0.0
C3 C 0.44752 0.48769 0.14569 0.0
C4 C 0.51189 0.67068 0.13836 0.0
C5 C 0.36459 0.48255 0.15953 0.0
C6 C 0.52119 0.58199 0.13494 0.0
C7 C 0.48911 0.84561 0.14666 0.0
C8 C 0.41294 0.74708 0.15565 0.0
C9 C 0.57487 0.85534 0.13297 0.0
C10 C 0.58635 0.76814 0.1289 0.0
Tb11 Tb 0.21869 0.56886 0.18296 0.0
N12 N 0.33 0.73538 0.16945 0.0
C13 C 0.47935 0.93224 0.1527 0.0
C14 C 0.32867 0.82184 0.17808 0.0
C15 C 0.40016 0.92062 0.169 0.0
H16 H 0.30956 0.41032 0.16838 0.0
H17 H 0.39581 0.98805 0.17515 0.0
H18 H 0.8731 0.61031 0.14288 0.0
H19 H 0.7708 0.04001 0.17747 0.0
H20 H 0.27401 0.81589 0.19239 0.0
H21 H 0.53581 0.0091 0.14607 0.0
H22 H 0.89867 0.19036 0.15352 0.0
H23 H 0.45521 0.41921 0.14355 0.0
H24 H 0.63387 0.93038 0.12589 0.0
H25 H 0.65346 0.77704 0.11852 0.0
H26 H 0.72633 0.62523 0.16046 0.0
H27 H 0.58579 0.58584 0.12439 0.0
H28 H 0.62389 0.04438 0.19848 0.0
N29 N 0.81635 0.45664 0.15655 0.0
C30 C 0.7395 0.37445 0.16916 0.0
C31 C 0.72892 0.55413 0.16294 0.0
C32 C 0.65367 0.379 0.17921 0.0
C33 C 0.81222 0.54574 0.15315 0.0
C34 C 0.64934 0.47048 0.17604 0.0
N35 N 0.83571 0.28751 0.16358 0.0
C36 C 0.84046 0.19774 0.16397 0.0
C37 C 0.67207 0.20102 0.18616 0.0
C38 C 0.75007 0.28762 0.17304 0.0
C39 C 0.68213 0.11259 0.18858 0.0
C40 C 0.76547 0.11019 0.17694 0.0
H41 H 0.58556 0.47766 0.18385 0.0
H42 H 0.50997 0.29535 0.20042 0.0
H43 H 0.52523 0.13889 0.20618 0.0
O44 O 0.91398 0.33452 0.11161 0.0
O45 O 0.94524 0.47805 0.18196 0.0
O46 O 0.0717 0.45539 0.20067 0.0
O47 O 0.85856 0.44359 0.11274 0.0
O48 O 0.04244 0.35771 0.14458 0.0
O49 O 0.13308 0.39807 0.18263 0.0
O50 O 0.25387 0.64286 0.21877 0.0
O51 O 0.22298 0.53505 0.14243 0.0
O52 O 0.09224 0.55155 0.12363 0.0
O53 O 0.32634 0.55667 0.20627 0.0
O54 O 0.13078 0.65386 0.18007 0.0
O55 O 0.04281 0.60602 0.14157 0.0
C56 C 0.98846 0.46489 0.20219 0.0
C57 C 0.76158 0.28986 0.08849 0.0
C58 C 0.66209 0.21765 0.04966 0.0
C59 C 0.58757 0.13157 0.0634 0.0
C60 C 0.68612 0.20416 0.10208 0.0
C61 C 0.59923 0.12556 0.08952 0.0
C62 C 0.74851 0.29678 0.06244 0.0
C63 C 0.09197 0.33814 0.16258 0.0
C64 C 0.85932 0.36864 0.10018 0.0
C65 C 0.57667 0.29348 0.19259 0.0
C66 C 0.58569 0.2046 0.19599 0.0
C67 C 0.1805 0.55154 0.12253 0.0
C68 C 0.30256 0.56104 0.25003 0.0
C69 C 0.35017 0.58421 0.29476 0.0
C70 C 0.29485 0.47548 0.29779 0.0
C71 C 0.24722 0.45279 0.25341 0.0
C72 C 0.35302 0.62617 0.27073 0.0
C73 C 0.24338 0.41045 0.27722 0.0
C74 C 0.08971 0.6736 0.1601 0.0
C75 C 0.31552 0.60759 0.22484 0.0
H76 H 0.52035 0.0694 0.05397 0.0
H77 H 0.69526 0.197 0.12215 0.0
H78 H 0.54146 0.05904 0.09996 0.0
H79 H 0.80802 0.36212 0.0519 0.0
H80 H 0.29219 0.44064 0.31595 0.0
H81 H 0.20805 0.40114 0.23761 0.0
H82 H 0.39512 0.70972 0.26801 0.0
H83 H 0.20109 0.32694 0.27972 0.0
Tb84 Tb 0.73662 0.15952 0.47637 0.0
C85 C 0.48895 0.68039 0.48554 0.0
N86 N 0.46835 0.7532 0.4951 0.0
C87 C 0.29104 0.65375 0.4812 0.0
C88 C 0.41181 0.59216 0.47272 0.0
C89 C 0.37025 0.7399 0.49381 0.0
C90 C 0.31195 0.57966 0.47056 0.0
C91 C 0.61265 0.62096 0.47929 0.0
C92 C 0.5876 0.69456 0.48899 0.0
C93 C 0.53721 0.53418 0.46579 0.0
C94 C 0.43672 0.51942 0.46267 0.0
Tb95 Tb 0.59988 0.88815 0.51653 0.0
N96 N 0.65707 0.77757 0.50293 0.0
C97 C 0.71159 0.63505 0.48417 0.0
C98 C 0.74967 0.78516 0.50981 0.0
C99 C 0.77958 0.71632 0.49992 0.0
H100 H 0.3539 0.79683 0.5022 0.0
H101 H 0.85414 0.72453 0.50496 0.0
H102 H 0.98717 0.22351 0.47024 0.0
H103 H 0.56843 0.38811 0.50958 0.0
H104 H 0.80037 0.84227 0.52339 0.0
H105 H 0.7345 0.58115 0.4768 0.0
H106 H 0.57053 0.24401 0.48653 0.0
H107 H 0.21387 0.64424 0.47981 0.0
H108 H 0.55501 0.47677 0.45824 0.0
H109 H 0.3787 0.45121 0.45263 0.0
H110 H 0.15437 0.34836 0.48974 0.0
H111 H 0.25049 0.51309 0.46077 0.0
H112 H 0.72794 0.52176 0.53111 0.0
N113 N 0.90022 0.2808 0.4899 0.0
C114 C 0.90639 0.3613 0.50363 0.0
C115 C 0.08491 0.35213 0.49412 0.0
C116 C 1.0015 0.43824 0.51407 0.0
C117 C 0.98913 0.27949 0.48363 0.0
C118 C 0.09078 0.43075 0.50984 0.0
N119 N 0.72793 0.29286 0.4959 0.0
C120 C 0.63978 0.30067 0.49625 0.0
C121 C 0.82066 0.45317 0.5194 0.0
C122 C 0.8177 0.36895 0.50625 0.0
C123 C 0.72916 0.45863 0.52103 0.0
C124 C 0.63876 0.38293 0.50905 0.0
H125 H 0.16512 0.48735 0.51784 0.0
H126 H 0.07704 0.58078 0.53608 0.0
H127 H 0.91835 0.5938 0.54076 0.0
O128 O 0.66127 0.16733 0.44331 0.0
O129 O 0.69707 0.16234 0.51645 0.0
O130 O 0.71363 0.03178 0.53566 0.0
O131 O 0.82729 0.25761 0.44678 0.0
O132 O 0.5642 0.07323 0.47827 0.0
O133 O 0.52437 0.98211 0.51625 0.0
O134 O 0.59428 0.79771 0.54809 0.0
O135 O 0.56122 0.88843 0.47628 0.0
O136 O 0.71925 0.01322 0.46316 0.0
O137 O 0.48015 0.84446 0.543 0.0
O138 O 0.77125 0.98279 0.51785 0.0
O139 O 0.82336 0.07379 0.47999 0.0
C140 C 0.7208 0.12389 0.53606 0.0
C141 C 0.74787 0.32261 0.41939 0.0
C142 C 0.76372 0.41353 0.37972 0.0
C143 C 0.7491 0.48733 0.39314 0.0
C144 C 0.73539 0.39806 0.4325 0.0
C145 C 0.73545 0.47967 0.41937 0.0
C146 C 0.76278 0.33109 0.39306 0.0
C147 C 0.5029 0.02894 0.49803 0.0
C148 C 0.74757 0.23522 0.43255 0.0
C149 C 1.00475 0.52114 0.52782 0.0
C150 C 0.91451 0.52873 0.53043 0.0
C151 C 0.62786 0.93476 0.45795 0.0
C152 C 0.53308 0.84363 0.58471 0.0
C153 C 0.5368 0.81594 0.63022 0.0
C154 C 0.54945 0.91523 0.63464 0.0
C155 C 0.54838 0.94355 0.58969 0.0
C156 C 0.52816 0.78042 0.60504 0.0
C157 C 0.55619 0.97874 0.61449 0.0
C158 C 0.84281 0.03547 0.50053 0.0
C159 C 0.51807 0.80411 0.55847 0.0
H160 H 0.75013 0.55202 0.38341 0.0
H161 H 0.72631 0.39457 0.45276 0.0
H162 H 0.72557 0.53762 0.42955 0.0
H163 H 0.77273 0.27289 0.38293 0.0
H164 H 0.55378 0.94396 0.65373 0.0
H165 H 0.55257 0.99401 0.57442 0.0
H166 H 0.51783 0.70401 0.60119 0.0
H167 H 0.56702 0.05542 0.61812 0.0
Tb168 Tb 0.69403 0.40068 0.8107 0.0
C169 C 0.49947 0.67045 0.81506 0.0
N170 N 0.58725 0.68475 0.82688 0.0
C171 C 0.68062 0.86168 0.81272 0.0
C172 C 0.49972 0.7515 0.80116 0.0
C173 C 0.6771 0.77897 0.82616 0.0
C174 C 0.59147 0.84806 0.80029 0.0
C175 C 0.31793 0.55611 0.80432 0.0
C176 C 0.40989 0.57322 0.81655 0.0
C177 C 0.31827 0.63631 0.79015 0.0
C178 C 0.40879 0.73375 0.78863 0.0
Tb179 Tb 0.56917 0.54649 0.84968 0.0
N180 N 0.41181 0.49712 0.83063 0.0
C181 C 0.22737 0.45994 0.80731 0.0
C182 C 0.32065 0.40723 0.83553 0.0
C183 C 0.22835 0.38595 0.82333 0.0
H184 H 0.74554 0.7901 0.83615 0.0
H185 H 0.15717 0.31362 0.82691 0.0
H186 H 0.52052 0.14884 0.81166 0.0
H187 H 0.10795 0.60665 0.83164 0.0
H188 H 0.31637 0.35244 0.84946 0.0
H189 H 0.1552 0.44389 0.79829 0.0
H190 H 0.94865 0.58328 0.81163 0.0
H191 H 0.75175 0.93615 0.81214 0.0
H192 H 0.24831 0.62426 0.78064 0.0
H193 H 0.40751 0.79506 0.77781 0.0
H194 H 0.50762 0.98892 0.82925 0.0
H195 H 0.59439 0.91257 0.79001 0.0
H196 H 0.10576 0.46103 0.85482 0.0
N197 N 0.67642 0.24649 0.82403 0.0
C198 C 0.7612 0.25161 0.83531 0.0
C199 C 0.57927 0.06243 0.83119 0.0
C200 C 0.75798 0.16199 0.84526 0.0
C201 C 0.58649 0.1534 0.82145 0.0
C202 C 0.66511 0.06684 0.84333 0.0
N203 N 0.85108 0.43171 0.82679 0.0
C204 C 0.94358 0.52175 0.82334 0.0
C205 C 0.94213 0.35552 0.84764 0.0
C206 C 0.85118 0.34755 0.83696 0.0
C207 C 0.03425 0.45148 0.84678 0.0
C208 C 0.03557 0.53415 0.83394 0.0
H209 H 0.65912 0.99636 0.85097 0.0
H210 H 0.8462 0.10239 0.86464 0.0
H211 H 1.00811 0.27168 0.86635 0.0
O212 O 0.7702 0.46759 0.77649 0.0
O213 O 0.66757 0.36258 0.85106 0.0
O214 O 0.66673 0.50113 0.87145 0.0
O215 O 0.68826 0.30151 0.78136 0.0
O216 O 0.78586 0.57281 0.81571 0.0
O217 O 0.73632 0.61369 0.85372 0.0
O218 O 0.47837 0.51929 0.88282 0.0
O219 O 0.61623 0.57939 0.80969 0.0
O220 O 0.56853 0.41868 0.79505 0.0
O221 O 0.59042 0.6735 0.87159 0.0
O222 O 0.48409 0.37544 0.85113 0.0
O223 O 0.52229 0.31705 0.81388 0.0
C224 C 0.66903 0.41329 0.87168 0.0
C225 C 0.82689 0.37208 0.75196 0.0
C226 C 0.89715 0.36611 0.71054 0.0
C227 C 0.98015 0.36303 0.72262 0.0
C228 C 0.90981 0.36866 0.76376 0.0
C229 C 0.98617 0.36426 0.74907 0.0
C230 C 0.82072 0.37023 0.72552 0.0
C231 C 0.80629 0.63152 0.83619 0.0
C232 C 0.74521 0.37811 0.76631 0.0
C233 C 0.84715 0.17033 0.85683 0.0
C234 C 0.93915 0.26683 0.85794 0.0
C235 C 0.57937 0.51032 0.79152 0.0
C236 C 0.57041 0.64264 0.91524 0.0
C237 C 0.54242 0.64804 0.96066 0.0
C238 C 0.65085 0.7014 0.9644 0.0
C239 C 0.67851 0.69415 0.91949 0.0
C240 C 0.50282 0.61955 0.9359 0.0
C241 C 0.71819 0.72376 0.94392 0.0
C242 C 0.46531 0.30138 0.83448 0.0
C243 C 0.52788 0.61686 0.88933 0.0
H244 H 0.04059 0.36029 0.71166 0.0
H245 H 0.91544 0.36903 0.78415 0.0
H246 H 0.0502 0.36166 0.75819 0.0
H247 H 0.75472 0.3702 0.71666 0.0
H248 H 0.68355 0.72269 0.98325 0.0
H249 H 0.73247 0.71226 0.90392 0.0
H250 H 0.4195 0.58001 0.93265 0.0
H251 H 0.80147 0.7634 0.94701 0.0
H252 H 0.10326 0.81533 0.19673 0.0
H253 H 0.1027 0.76831 0.11553 0.0
H254 H 0.11591 0.93782 0.10817 0.0
H255 H 0.94907 0.93621 0.19626 0.0
H256 H 0.0203 0.0303 0.22068 0.0
H257 H 0.01826 0.90788 0.22012 0.0
H258 H 0.22006 1.00528 0.21932 0.0
H259 H 0.22271 0.1282 0.2199 0.0
H260 H 0.28867 0.10029 0.19502 0.0
H261 H 0.11718 0.10333 0.1088 0.0
H262 H 0.10611 0.26016 0.1174 0.0
H263 H 0.11025 0.21032 0.19823 0.0
C264 C 0.10759 0.84178 0.17745 0.0
C265 C 0.10212 0.77845 0.15669 0.0
C266 C 0.10614 0.81488 0.13174 0.0
C267 C 0.11439 0.91154 0.12733 0.0
C268 C 0.11902 0.97174 0.14805 0.0
C269 C 0.11626 0.93913 0.17265 0.0
C270 C 0.11856 0.01872 0.19131 0.0
C271 C 0.02071 0.97036 0.20808 0.0
C272 C 0.21844 0.06592 0.20734 0.0
C273 C 0.1193 0.09884 0.17326 0.0
C274 C 0.12071 0.06994 0.14843 0.0
C275 C 0.11696 0.12743 0.12815 0.0
C276 C 0.11014 0.21629 0.13326 0.0
C277 C 0.1071 0.24755 0.15846 0.0
C278 C 0.11355 0.18887 0.17878 0.0
H279 H 0.37688 0.05214 0.46275 0.0
H280 H 0.42332 0.03815 0.54349 0.0
H281 H 0.26757 0.05113 0.55231 0.0
H282 H 0.27229 0.23402 0.4675 0.0
H283 H 0.17833 0.16978 0.44264 0.0
H284 H 0.29997 0.16959 0.44219 0.0
H285 H 0.19923 0.96798 0.43986 0.0
H286 H 0.07758 0.96774 0.44032 0.0
H287 H 0.10313 0.89498 0.46369 0.0
H288 H 0.10308 0.05391 0.55307 0.0
H289 H 0.93457 0.04417 0.54547 0.0
H290 H 0.98625 0.05251 0.4644 0.0
C291 C 0.35483 0.05344 0.48224 0.0
C292 C 0.41216 0.04362 0.5024 0.0
C293 C 0.38029 0.04445 0.52768 0.0
C294 C 0.29216 0.05255 0.53295 0.0
C295 C 0.23615 0.05997 0.51278 0.0
C296 C 0.2658 0.0608 0.48791 0.0
C297 C 0.18722 0.0637 0.46993 0.0
C298 C 0.23747 0.16531 0.45466 0.0
C299 C 0.13895 0.96788 0.45242 0.0
C300 C 0.1077 0.06085 0.48862 0.0
C301 C 0.13885 0.06043 0.51322 0.0
C302 C 0.07801 0.05494 0.5339 0.0
C303 C 0.98217 0.04893 0.52938 0.0
C304 C 0.94739 0.04778 0.50438 0.0
C305 C 1.01153 0.05462 0.48373 0.0
H306 H 0.95289 0.75682 0.80015 0.0
H307 H 0.89446 0.71979 0.88106 0.0
H308 H 0.0591 0.88121 0.88892 0.0
H309 H 0.23886 0.86747 0.80497 0.0
H310 H 0.26653 0.95701 0.77924 0.0
H311 H 0.14625 0.83446 0.77961 0.0
H312 H 0.0422 0.93182 0.77579 0.0
H313 H 0.16199 0.05454 0.77549 0.0
H314 H 0.06329 0.03091 0.79869 0.0
H315 H 0.22251 0.05001 0.88857 0.0
H316 H 0.37993 0.21776 0.87991 0.0
H317 H 0.34069 0.15054 0.79935 0.0
C318 C 0.97587 0.78198 0.8195 0.0
C319 C 0.91042 0.72525 0.83999 0.0
C320 C 0.94256 0.76182 0.86502 0.0
C321 C 0.03641 0.85339 0.86973 0.0
C322 C 0.0984 0.90811 0.84925 0.0
C323 C 0.07033 0.87394 0.82462 0.0
C324 C 0.15091 0.95048 0.80616 0.0
C325 C 0.20376 0.8993 0.79163 0.0
C326 C 0.10163 0.99453 0.78796 0.0
C327 C 0.22676 0.03372 0.82431 0.0
C328 C 0.19473 1.00678 0.84906 0.0
C329 C 0.24893 0.07174 0.86928 0.0
C330 C 0.33808 0.16718 0.86415 0.0
C331 C 0.37278 0.19743 0.83898 0.0
C332 C 0.31666 0.12909 0.8188 0.0
H333 H 0.55788 0.76471 0.00273 0.0
H334 H 0.36748 0.46022 0.9687 0.0
H335 H 0.25297 0.40469 0.00619 0.0
H336 H 0.54668 0.67748 0.06698 0.0
H337 H 0.5436 0.7894 0.07943 0.0
H338 H 0.60538 0.79811 0.0496 0.0
H339 H 0.4846 0.8633 0.03086 0.0
H340 H 0.4203 0.84522 0.06092 0.0
H341 H 0.34534 0.78082 0.03307 0.0
H342 H 0.1609 0.38104 0.04726 0.0
H343 H 0.09766 0.39004 0.08998 0.0
H344 H 0.35183 0.70619 0.09866 0.0
C345 C 0.49201 0.68639 0.00317 0.0
C346 C 0.47111 0.61696 0.98272 0.0
C347 C 0.38379 0.51534 0.98393 0.0
C348 C 0.31874 0.48287 0.00521 0.0
C349 C 0.34203 0.55295 0.0251 0.0
C350 C 0.4263 0.65264 0.02429 0.0
C351 C 0.43483 0.71195 0.04843 0.0
C352 C 0.53882 0.74597 0.0619 0.0
C353 C 0.42036 0.80585 0.04298 0.0
C354 C 0.34362 0.62895 0.06324 0.0
C355 C 0.29042 0.53836 0.04921 0.0
C356 C 0.20201 0.45128 0.05846 0.0
C357 C 0.16676 0.45692 0.08268 0.0
C358 C 0.22065 0.54818 0.09742 0.0
C359 C 0.3103 0.63524 0.08769 0.0
H360 H 0.91207 0.39581 0.35242 0.0
H361 H 0.654 0.45393 0.34433 0.0
H362 H 0.68337 0.47287 0.29811 0.0
H363 H 0.07024 0.58223 0.30673 0.0
H364 H 0.12696 0.51142 0.29293 0.0
H365 H 0.08915 0.49233 0.3258 0.0
H366 H 0.96746 0.29637 0.32061 0.0
H367 H 1.00937 0.30675 0.28821 0.0
H368 H 0.87264 0.24787 0.29544 0.0
H369 H 0.7435 0.4897 0.25308 0.0
H370 H 0.82785 0.50077 0.21226 0.0
H371 H 0.04329 0.4251 0.24905 0.0
C372 C 0.86089 0.41112 0.34086 0.0
C373 C 0.78035 0.42289 0.35192 0.0
C374 C 0.71653 0.4453 0.33625 0.0
C375 C 0.73234 0.45573 0.30999 0.0
C376 C 0.81261 0.44401 0.29971 0.0
C377 C 0.87591 0.42232 0.31463 0.0
C378 C 0.95929 0.41781 0.29893 0.0
C379 C 0.06782 0.50606 0.30661 0.0
C380 C 0.95169 0.31082 0.30092 0.0
C381 C 0.93042 0.43601 0.27271 0.0
C382 C 0.84657 0.45257 0.27368 0.0
C383 C 0.80819 0.47524 0.25207 0.0
C384 C 0.85619 0.48029 0.22885 0.0
C385 C 0.94051 0.46073 0.22718 0.0
C386 C 0.97832 0.43908 0.24955 0.0
H387 H 0.67019 0.70248 0.76906 0.0
H388 H 0.43957 0.37816 0.75708 0.0
H389 H 0.40406 0.42014 0.71431 0.0
H390 H 0.54119 0.8153 0.7369 0.0
H391 H 0.65429 0.91786 0.72144 0.0
H392 H 0.66829 0.86821 0.75123 0.0
H393 H 0.80065 0.82184 0.73375 0.0
H394 H 0.79574 0.87701 0.70381 0.0
H395 H 0.77172 0.7454 0.7052 0.0
H396 H 0.39268 0.4977 0.67298 0.0
H397 H 0.40714 0.60537 0.63595 0.0
H398 H 0.65265 0.87709 0.67394 0.0
C399 C 0.61161 0.64064 0.75749 0.0
C400 C 0.55707 0.53718 0.76633 0.0
C401 C 0.48226 0.45789 0.75055 0.0
C402 C 0.46147 0.48098 0.72629 0.0
C403 C 0.51724 0.58355 0.71798 0.0
C404 C 0.59124 0.66205 0.73302 0.0
C405 C 0.6429 0.76501 0.71914 0.0
C406 C 0.62534 0.84627 0.73301 0.0
C407 C 0.75966 0.8046 0.71524 0.0
C408 C 0.58442 0.7326 0.69427 0.0
C409 C 0.51264 0.62759 0.69391 0.0
C410 C 0.44903 0.58 0.67299 0.0
C411 C 0.45835 0.64167 0.65196 0.0
C412 C 0.53091 0.74979 0.65198 0.0
C413 C 0.59532 0.79504 0.67341 0.0
H414 H 0.68999 0.49878 0.91911 0.0
H415 H 0.6422 0.21925 0.88063 0.0
H416 H 0.63338 0.13774 0.92174 0.0
H417 H 0.84743 0.49837 0.97008 0.0
H418 H 0.78694 0.54059 0.99329 0.0
H419 H 0.79122 0.57643 0.96062 0.0
H420 H 0.58564 0.48769 0.95919 0.0
H421 H 0.58932 0.46532 0.99261 0.0
H422 H 0.5094 0.3589 0.97162 0.0
H423 H 0.6235 0.08404 0.96759 0.0
H424 H 0.62539 0.06806 0.01424 0.0
H425 H 0.67928 0.38217 0.0225 0.0
C426 C 0.67857 0.4208 0.91926 0.0
C427 C 0.66894 0.3665 0.89648 0.0
C428 C 0.65261 0.26385 0.89768 0.0
C429 C 0.64635 0.21625 0.92102 0.0
C430 C 0.65567 0.27185 0.94309 0.0
C431 C 0.67153 0.37186 0.94239 0.0
C432 C 0.67678 0.41398 0.9688 0.0
C433 C 0.78185 0.51321 0.97347 0.0
C434 C 0.5849 0.43265 0.9734 0.0
C435 C 0.6655 0.32379 0.98448 0.0
C436 C 0.65109 0.24151 0.96933 0.0
C437 C 0.63519 0.14819 0.97962 0.0
C438 C 0.63568 0.13952 0.00609 0.0
C439 C 0.65303 0.22405 0.02187 0.0
C440 C 0.66714 0.31682 0.01084 0.0
H441 H 0.28465 0.56712 0.34414 0.0
H442 H 0.54415 0.75773 0.29446 0.0
H443 H 0.63947 0.87194 0.33047 0.0
H444 H 0.30278 0.77415 0.38438 0.0
H445 H 0.27184 0.69744 0.41281 0.0
H446 H 0.2215 0.63471 0.38275 0.0
H447 H 0.30486 0.51799 0.38948 0.0
H448 H 0.35151 0.57938 0.41966 0.0
H449 H 0.4417 0.57859 0.39695 0.0
H450 H 0.70886 0.96189 0.37194 0.0
H451 H 0.74929 0.02078 0.41621 0.0
H452 H 0.44599 0.7703 0.43929 0.0
C453 C 0.36153 0.63286 0.34082 0.0
C454 C 0.40662 0.65374 0.31642 0.0
C455 C 0.50718 0.74107 0.31287 0.0
C456 C 0.56218 0.80618 0.33323 0.0
C457 C 0.51563 0.78299 0.35703 0.0
C458 C 0.4176 0.69862 0.36092 0.0
C459 C 0.38713 0.68842 0.38857 0.0
C460 C 0.29006 0.69937 0.39234 0.0
C461 C 0.37045 0.58497 0.39928 0.0
C462 C 0.48339 0.78048 0.39966 0.0
C463 C 0.55641 0.83398 0.38109 0.0
C464 C 0.65225 0.92078 0.38665 0.0
C465 C 0.67443 0.95356 0.4119 0.0
C466 C 0.60108 0.89979 0.43134 0.0
C467 C 0.50399 0.81259 0.42499 0.0
H468 H 0.93664 0.24693 0.67713 0.0
H469 H 0.83213 0.4732 0.68047 0.0
H470 H 0.78717 0.44443 0.63519 0.0
H471 H 0.04451 0.31637 0.6101 0.0
H472 H 1.00516 0.18248 0.6034 0.0
H473 H 0.04384 0.23335 0.63502 0.0
H474 H 0.87204 0.08379 0.65089 0.0
H475 H 0.82089 0.03489 0.61984 0.0
H476 H 0.75139 0.07389 0.64123 0.0
H477 H 0.73095 0.37412 0.59161 0.0
H478 H 0.67896 0.27524 0.55156 0.0
H479 H 0.82887 0.10223 0.57536 0.0
C480 C 0.90788 0.29326 0.66817 0.0
C481 C 0.88684 0.36145 0.68249 0.0
C482 C 0.84694 0.41887 0.67006 0.0
C483 C 0.82204 0.40386 0.64427 0.0
C484 C 0.83972 0.33298 0.63097 0.0
C485 C 0.88411 0.28044 0.64229 0.0
C486 C 0.88888 0.20378 0.62405 0.0
C487 C 1.00235 0.23596 0.61777 0.0
C488 C 0.82975 0.0924 0.63457 0.0
C489 C 0.83459 0.2172 0.60128 0.0
C490 C 0.80866 0.29348 0.60552 0.0
C491 C 0.75347 0.31631 0.58778 0.0
C492 C 0.725 0.26043 0.56497 0.0
C493 C 0.75259 0.18351 0.55999 0.0
C494 C 0.80788 0.16165 0.57848 0.0
loop_
_geom_bond_atom_site_label_1
_geom_bond_atom_site_label_2
_geom_bond_distance
_geom_bond_site_symmetry_2
_ccdc_geom_bond_type
Tb0 N29 2.617 . S
Tb0 N35 2.572 . S
Tb0 O44 2.465 . S
Tb0 O45 2.387 . S
Tb0 O47 2.428 . S
Tb0 O48 2.308 . S
Tb0 O52 2.349 1_655 S
Tb0 O55 2.393 . S
Tb0 C64 2.802 . S
C1 N2 1.379 . S
C1 C4 1.416 . S
C1 C8 1.424 . S
N2 C1 1.379 . S
N2 C5 1.334 . S
N2 Tb11 2.617 . S
C3 C5 1.390 . S
C3 C6 1.339 . S
C3 H23 0.930 . S
C4 C1 1.416 . S
C4 C6 1.416 . S
C4 C10 1.448 . S
C5 N2 1.334 . S
C5 C3 1.390 . S
C5 H16 0.930 . S
C6 C3 1.339 . S
C6 C4 1.416 . S
C6 H27 0.930 . S
C7 C8 1.413 . S
C7 C9 1.427 . S
C7 C13 1.416 . S
C8 C1 1.424 . S
C8 C7 1.413 . S
C8 N12 1.361 . S
C9 C7 1.427 . S
C9 C10 1.328 . S
C9 H24 0.929 . S
C10 C4 1.448 . S
C10 C9 1.328 . S
C10 H25 0.930 . S
Tb11 N2 2.617 . S
Tb11 N12 2.572 . S
Tb11 O46 2.349 1_455 S
Tb11 O49 2.393 . S
Tb11 O50 2.465 . S
Tb11 O51 2.387 . S
Tb11 O53 2.428 . S
Tb11 O54 2.308 . S
Tb11 C75 2.802 . S
N12 C8 1.361 . S
N12 Tb11 2.572 . S
N12 C14 1.340 . S
C13 C7 1.416 . S
C13 C15 1.332 . S
C13 H21 0.931 . S
C14 N12 1.340 . S
C14 C15 1.407 . S
C14 H20 0.930 . S
C15 C13 1.332 . S
C15 C14 1.407 . S
C15 H17 0.929 . S
H16 C5 0.930 . S
H17 C15 0.929 . S
H18 C33 0.930 . S
H19 C40 0.929 . S
H20 C14 0.930 . S
H21 C13 0.931 . S
H22 C36 0.930 . S
H23 C3 0.930 . S
H24 C9 0.929 . S
H25 C10 0.930 . S
H26 C31 0.930 . S
H27 C6 0.930 . S
H28 C39 0.931 . S
N29 Tb0 2.617 . S
N29 C30 1.379 . S
N29 C33 1.334 . S
C30 N29 1.379 . S
C30 C32 1.416 . S
C30 C38 1.424 . S
C31 H26 0.930 . S
C31 C33 1.390 . S
C31 C34 1.339 . S
C32 C30 1.416 . S
C32 C34 1.416 . S
C32 C65 1.448 . S
C33 H18 0.930 . S
C33 N29 1.334 . S
C33 C31 1.390 . S
C34 C31 1.339 . S
C34 C32 1.416 . S
C34 H41 0.930 . S
N35 Tb0 2.572 . S
N35 C36 1.340 . S
N35 C38 1.361 . S
C36 H22 0.930 . S
C36 N35 1.340 . S
C36 C40 1.407 . S
C37 C38 1.413 . S
C37 C39 1.416 . S
C37 C66 1.427 . S
C38 C30 1.424 . S
C38 N35 1.361 . S
C38 C37 1.413 . S
C39 H28 0.931 . S
C39 C37 1.416 . S
C39 C40 1.332 . S
C40 H19 0.929 . S
C40 C36 1.407 . S
C40 C39 1.332 . S
H41 C34 0.930 . S
H42 C65 0.930 . S
H43 C66 0.929 . S
O44 Tb0 2.465 . S
O44 C64 1.264 . S
O45 Tb0 2.387 . S
O45 C56 1.264 . S
O46 Tb11 2.349 1_655 S
O46 C56 1.243 . S
O47 Tb0 2.428 . S
O47 C64 1.256 . S
O48 Tb0 2.308 . S
O48 C63 1.266 . S
O49 Tb11 2.393 . S
O49 C63 1.248 1_455 S
O50 Tb11 2.465 . S
O50 C75 1.264 . S
O51 Tb11 2.387 . S
O51 C67 1.264 . S
O52 Tb0 2.349 1_455 S
O52 C67 1.243 . S
O53 Tb11 2.428 . S
O53 C75 1.256 . S
O54 Tb11 2.308 . S
O54 C74 1.266 . S
O55 Tb0 2.393 . S
O55 C74 1.248 1_655 S
C56 O45 1.264 . S
C56 O46 1.243 . S
C57 C60 1.399 . S
C57 C62 1.383 . S
C57 C64 1.496 . S
C58 C59 1.399 . S
C58 C62 1.389 . S
C59 C58 1.399 . S
C59 C61 1.380 . S
C59 H76 0.929 . S
C60 C57 1.399 . S
C60 C61 1.392 . S
C60 H77 0.929 . S
C61 C59 1.380 . S
C61 C60 1.392 . S
C61 H78 0.929 . S
C62 C57 1.383 . S
C62 C58 1.389 . S
C62 H79 0.931 . S
C63 O48 1.266 . S
C63 O49 1.248 1_655 S
C64 Tb0 2.802 . S
C64 O44 1.264 . S
C64 O47 1.256 . S
C64 C57 1.496 . S
C65 C32 1.448 . S
C65 H42 0.930 . S
C65 C66 1.328 . S
C66 C37 1.427 . S
C66 H43 0.929 . S
C66 C65 1.328 . S
C67 O51 1.264 . S
C67 O52 1.243 . S
C68 C71 1.399 . S
C68 C72 1.383 . S
C68 C75 1.496 . S
C69 C70 1.399 . S
C69 C72 1.389 . S
C70 C69 1.399 . S
C70 C73 1.380 . S
C70 H80 0.929 . S
C71 C68 1.399 . S
C71 C73 1.392 . S
C71 H81 0.929 . S
C72 C68 1.383 . S
C72 C69 1.389 . S
C72 H82 0.931 . S
C73 C70 1.380 . S
C73 C71 1.392 . S
C73 H83 0.929 . S
C74 O54 1.266 . S
C74 O55 1.248 1_455 S
C75 Tb11 2.802 . S
C75 O50 1.264 . S
C75 O53 1.256 . S
C75 C68 1.496 . S
H76 C59 0.929 . S
H77 C60 0.929 . S
H78 C61 0.929 . S
H79 C62 0.931 . S
H80 C70 0.929 . S
H81 C71 0.929 . S
H82 C72 0.931 . S
H83 C73 0.929 . S
Tb84 N113 2.617 . S
Tb84 N119 2.572 . S
Tb84 O128 2.465 . S
Tb84 O129 2.387 . S
Tb84 O131 2.428 . S
Tb84 O132 2.308 . S
Tb84 O136 2.349 . S
Tb84 O139 2.393 . S
Tb84 C148 2.802 . S
C85 N86 1.379 . S
C85 C88 1.416 . S
C85 C92 1.424 . S
N86 C85 1.379 . S
N86 C89 1.334 . S
N86 Tb95 2.617 . S
C87 C89 1.390 . S
C87 C90 1.339 . S
C87 H107 0.930 . S
C88 C85 1.416 . S
C88 C90 1.416 . S
C88 C94 1.448 . S
C89 N86 1.334 . S
C89 C87 1.390 . S
C89 H100 0.930 . S
C90 C87 1.339 . S
C90 C88 1.416 . S
C90 H111 0.930 . S
C91 C92 1.413 . S
C91 C93 1.427 . S
C91 C97 1.416 . S
C92 C85 1.424 . S
C92 C91 1.413 . S
C92 N96 1.361 . S
C93 C91 1.427 . S
C93 C94 1.328 . S
C93 H108 0.929 . S
C94 C88 1.448 . S
C94 C93 1.328 . S
C94 H109 0.930 . S
Tb95 N86 2.617 . S
Tb95 N96 2.572 . S
Tb95 O130 2.349 1_565 S
Tb95 O133 2.393 1_565 S
Tb95 O134 2.465 . S
Tb95 O135 2.387 . S
Tb95 O137 2.428 . S
Tb95 O138 2.308 1_565 S
Tb95 C159 2.802 . S
N96 C92 1.361 . S
N96 Tb95 2.572 . S
N96 C98 1.340 . S
C97 C91 1.416 . S
C97 C99 1.332 . S
C97 H105 0.931 . S
C98 N96 1.340 . S
C98 C99 1.407 . S
C98 H104 0.930 . S
C99 C97 1.332 . S
C99 C98 1.407 . S
C99 H101 0.929 . S
H100 C89 0.930 . S
H101 C99 0.929 . S
H102 C117 0.930 . S
H103 C124 0.929 . S
H104 C98 0.930 . S
H105 C97 0.931 . S
H106 C120 0.930 . S
H107 C87 0.930 . S
H108 C93 0.929 . S
H109 C94 0.930 . S
H110 C115 0.930 . S
H111 C90 0.930 . S
H112 C123 0.931 . S
N113 Tb84 2.617 . S
N113 C114 1.379 . S
N113 C117 1.334 1_655 S
C114 N113 1.379 . S
C114 C116 1.416 1_655 S
C114 C122 1.424 . S
C115 H110 0.930 . S
C115 C117 1.390 . S
C115 C118 1.339 . S
C116 C114 1.416 1_455 S
C116 C118 1.416 . S
C116 C149 1.448 . S
C117 H102 0.930 . S
C117 N113 1.334 1_455 S
C117 C115 1.390 . S
C118 C115 1.339 . S
C118 C116 1.416 . S
C118 H125 0.930 . S
N119 Tb84 2.572 . S
N119 C120 1.340 . S
N119 C122 1.361 . S
C120 H106 0.930 . S
C120 N119 1.340 . S
C120 C124 1.407 . S
C121 C122 1.413 . S
C121 C123 1.416 . S
C121 C150 1.427 1_655 S
C122 C114 1.424 . S
C122 N119 1.361 . S
C122 C121 1.413 . S
C123 H112 0.931 . S
C123 C121 1.416 . S
C123 C124 1.332 . S
C124 H103 0.929 . S
C124 C120 1.407 . S
C124 C123 1.332 . S
H125 C118 0.930 . S
H126 C149 0.930 . S
H127 C150 0.929 . S
O128 Tb84 2.465 . S
O128 C148 1.264 . S
O129 Tb84 2.387 . S
O129 C140 1.264 . S
O130 Tb95 2.349 1_545 S
O130 C140 1.243 . S
O131 Tb84 2.428 . S
O131 C148 1.256 . S
O132 Tb84 2.308 . S
O132 C147 1.266 . S
O133 Tb95 2.393 1_545 S
O133 C147 1.248 . S
O134 Tb95 2.465 . S
O134 C159 1.264 . S
O135 Tb95 2.387 . S
O135 C151 1.264 1_565 S
O136 Tb84 2.349 . S
O136 C151 1.243 . S
O137 Tb95 2.428 . S
O137 C159 1.256 . S
O138 Tb95 2.308 1_545 S
O138 C158 1.266 . S
O139 Tb84 2.393 . S
O139 C158 1.248 . S
C140 O129 1.264 . S
C140 O130 1.243 . S
C141 C144 1.399 . S
C141 C146 1.383 . S
C141 C148 1.496 . S
C142 C143 1.399 . S
C142 C146 1.389 . S
C143 C142 1.399 . S
C143 C145 1.380 . S
C143 H160 0.929 . S
C144 C141 1.399 . S
C144 C145 1.392 . S
C144 H161 0.929 . S
C145 C143 1.380 . S
C145 C144 1.392 . S
C145 H162 0.929 . S
C146 C141 1.383 . S
C146 C142 1.389 . S
C146 H163 0.931 . S
C147 O132 1.266 . S
C147 O133 1.248 . S
C148 Tb84 2.802 . S
C148 O128 1.264 . S
C148 O131 1.256 . S
C148 C141 1.496 . S
C149 C116 1.448 . S
C149 H126 0.930 . S
C149 C150 1.328 . S
C150 C121 1.427 1_455 S
C150 H127 0.929 . S
C150 C149 1.328 . S
C151 O135 1.264 1_545 S
C151 O136 1.243 . S
C152 C155 1.399 . S
C152 C156 1.383 . S
C152 C159 1.496 . S
C153 C154 1.399 . S
C153 C156 1.389 . S
C154 C153 1.399 . S
C154 C157 1.380 . S
C154 H164 0.929 . S
C155 C152 1.399 . S
C155 C157 1.392 . S
C155 H165 0.929 . S
C156 C152 1.383 . S
C156 C153 1.389 . S
C156 H166 0.931 . S
C157 C154 1.380 . S
C157 C155 1.392 . S
C157 H167 0.929 . S
C158 O138 1.266 . S
C158 O139 1.248 . S
C159 Tb95 2.802 . S
C159 O134 1.264 . S
C159 O137 1.256 . S
C159 C152 1.496 . S
H160 C143 0.929 . S
H161 C144 0.929 . S
H162 C145 0.929 . S
H163 C146 0.931 . S
H164 C154 0.929 . S
H165 C155 0.929 . S
H166 C156 0.931 . S
H167 C157 0.929 . S
Tb168 N197 2.617 . S
Tb168 N203 2.572 . S
Tb168 O212 2.465 . S
Tb168 O213 2.387 . S
Tb168 O215 2.428 . S
Tb168 O216 2.308 . S
Tb168 O220 2.349 . S
Tb168 O223 2.393 . S
Tb168 C232 2.802 . S
C169 N170 1.379 . S
C169 C172 1.416 . S
C169 C176 1.424 . S
N170 C169 1.379 . S
N170 C173 1.334 . S
N170 Tb179 2.617 . S
C171 C173 1.390 . S
C171 C174 1.339 . S
C171 H191 0.930 . S
C172 C169 1.416 . S
C172 C174 1.416 . S
C172 C178 1.448 . S
C173 N170 1.334 . S
C173 C171 1.390 . S
C173 H184 0.930 . S
C174 C171 1.339 . S
C174 C172 1.416 . S
C174 H195 0.930 . S
C175 C176 1.413 . S
C175 C177 1.427 . S
C175 C181 1.416 . S
C176 C169 1.424 . S
C176 C175 1.413 . S
C176 N180 1.361 . S
C177 C175 1.427 . S
C177 C178 1.328 . S
C177 H192 0.929 . S
C178 C172 1.448 . S
C178 C177 1.328 . S
C178 H193 0.930 . S
Tb179 N170 2.617 . S
Tb179 N180 2.572 . S
Tb179 O214 2.349 . S
Tb179 O217 2.393 . S
Tb179 O218 2.465 . S
Tb179 O219 2.387 . S
Tb179 O221 2.428 . S
Tb179 O222 2.308 . S
Tb179 C243 2.802 . S
N180 C176 1.361 . S
N180 Tb179 2.572 . S
N180 C182 1.340 . S
C181 C175 1.416 . S
C181 C183 1.332 . S
C181 H189 0.931 . S
C182 N180 1.340 . S
C182 C183 1.407 . S
C182 H188 0.930 . S
C183 C181 1.332 . S
C183 C182 1.407 . S
C183 H185 0.929 . S
H184 C173 0.930 . S
H185 C183 0.929 . S
H186 C201 0.930 . S
H187 C208 0.929 . S
H188 C182 0.930 . S
H189 C181 0.931 . S
H190 C204 0.930 . S
H191 C171 0.930 . S
H192 C177 0.929 . S
H193 C178 0.930 . S
H194 C199 0.930 . S
H195 C174 0.930 . S
H196 C207 0.931 . S
N197 Tb168 2.617 . S
N197 C198 1.379 . S
N197 C201 1.334 . S
C198 N197 1.379 . S
C198 C200 1.416 . S
C198 C206 1.424 . S
C199 H194 0.930 . S
C199 C201 1.390 1_565 S
C199 C202 1.339 . S
C200 C198 1.416 . S
C200 C202 1.416 1_545 S
C200 C233 1.448 . S
C201 H186 0.930 . S
C201 N197 1.334 . S
C201 C199 1.390 1_545 S
C202 C199 1.339 . S
C202 C200 1.416 1_565 S
C202 H209 0.930 . S
N203 Tb168 2.572 . S
N203 C204 1.340 . S
N203 C206 1.361 . S
C204 H190 0.930 . S
C204 N203 1.340 . S
C204 C208 1.407 1_655 S
C205 C206 1.413 . S
C205 C207 1.416 1_655 S
C205 C234 1.427 . S
C206 C198 1.424 . S
C206 N203 1.361 . S
C206 C205 1.413 . S
C207 H196 0.931 . S
C207 C205 1.416 1_455 S
C207 C208 1.332 . S
C208 H187 0.929 . S
C208 C204 1.407 1_455 S
C208 C207 1.332 . S
H209 C202 0.930 . S
H210 C233 0.930 1_565 S
H211 C234 0.929 . S
O212 Tb168 2.465 . S
O212 C232 1.264 . S
O213 Tb168 2.387 . S
O213 C224 1.264 . S
O214 Tb179 2.349 . S
O214 C224 1.243 . S
O215 Tb168 2.428 . S
O215 C232 1.256 . S
O216 Tb168 2.308 . S
O216 C231 1.266 . S
O217 Tb179 2.393 . S
O217 C231 1.248 . S
O218 Tb179 2.465 . S
O218 C243 1.264 . S
O219 Tb179 2.387 . S
O219 C235 1.264 . S
O220 Tb168 2.349 . S
O220 C235 1.243 . S
O221 Tb179 2.428 . S
O221 C243 1.256 . S
O222 Tb179 2.308 . S
O222 C242 1.266 . S
O223 Tb168 2.393 . S
O223 C242 1.248 . S
C224 O213 1.264 . S
C224 O214 1.243 . S
C225 C228 1.399 . S
C225 C230 1.383 . S
C225 C232 1.496 . S
C226 C227 1.399 . S
C226 C230 1.389 . S
C227 C226 1.399 . S
C227 C229 1.380 . S
C227 H244 0.929 . S
C228 C225 1.399 . S
C228 C229 1.392 . S
C228 H245 0.929 . S
C229 C227 1.380 . S
C229 C228 1.392 . S
C229 H246 0.929 . S
C230 C225 1.383 . S
C230 C226 1.389 . S
C230 H247 0.931 . S
C231 O216 1.266 . S
C231 O217 1.248 . S
C232 Tb168 2.802 . S
C232 O212 1.264 . S
C232 O215 1.256 . S
C232 C225 1.496 . S
C233 C200 1.448 . S
C233 H210 0.930 1_545 S
C233 C234 1.328 . S
C234 C205 1.427 . S
C234 H211 0.929 . S
C234 C233 1.328 . S
C235 O219 1.264 . S
C235 O220 1.243 . S
C236 C239 1.399 . S
C236 C240 1.383 . S
C236 C243 1.496 . S
C237 C238 1.399 . S
C237 C240 1.389 . S
C238 C237 1.399 . S
C238 C241 1.380 . S
C238 H248 0.929 . S
C239 C236 1.399 . S
C239 C241 1.392 . S
C239 H249 0.929 . S
C240 C236 1.383 . S
C240 C237 1.389 . S
C240 H250 0.931 . S
C241 C238 1.380 . S
C241 C239 1.392 . S
C241 H251 0.929 . S
C242 O222 1.266 . S
C242 O223 1.248 . S
C243 Tb179 2.802 . S
C243 O218 1.264 . S
C243 O221 1.256 . S
C243 C236 1.496 . S
H244 C227 0.929 . S
H245 C228 0.929 . S
H246 C229 0.929 . S
H247 C230 0.931 . S
H248 C238 0.929 . S
H249 C239 0.929 . S
H250 C240 0.931 . S
H251 C241 0.929 . S
H252 C264 0.930 . S
H253 C266 0.930 . S
H254 C267 0.930 . S
H255 C271 0.959 . S
H256 C271 0.959 . S
H257 C271 0.961 . S
H258 C272 0.960 . S
H259 C272 0.961 . S
H260 C272 0.959 1_455 S
H261 C275 0.929 . S
H262 C276 0.931 . S
H263 C278 0.930 . S
C264 H252 0.930 . S
C264 C265 1.399 1_655 S
C264 C269 1.399 . S
C265 C264 1.399 1_455 S
C265 C266 1.376 . S
C266 H253 0.930 . S
C266 C265 1.376 . S
C266 C267 1.388 . S
C267 H254 0.930 . S
C267 C266 1.388 . S
C267 C268 1.390 . S
C268 C267 1.390 . S
C268 C269 1.394 1_455 S
C268 C274 1.465 1_565 S
C269 C264 1.399 . S
C269 C268 1.394 1_655 S
C269 C270 1.516 . S
C270 C269 1.516 . S
C270 C271 1.502 . S
C270 C272 1.561 . S
C270 C273 1.526 . S
C271 H255 0.959 . S
C271 H256 0.959 . S
C271 H257 0.961 . S
C271 C270 1.502 . S
C272 H258 0.960 . S
C272 H259 0.961 . S
C272 H260 0.959 1_655 S
C272 C270 1.561 . S
C273 C270 1.526 . S
C273 C274 1.396 1_665 S
C273 C278 1.390 1_565 S
C274 C268 1.465 1_545 S
C274 C273 1.396 1_445 S
C274 C275 1.399 . S
C275 H261 0.929 . S
C275 C274 1.399 . S
C275 C276 1.385 . S
C276 H262 0.931 . S
C276 C275 1.385 . S
C276 C277 1.389 1_455 S
C277 C276 1.389 1_655 S
C277 C278 1.387 . S
C278 H263 0.930 . S
C278 C273 1.390 1_545 S
C278 C277 1.387 . S
H279 C291 0.930 . S
H280 C293 0.930 . S
H281 C294 0.930 . S
H282 C298 0.959 . S
H283 C298 0.959 . S
H284 C298 0.961 . S
H285 C299 0.960 . S
H286 C299 0.961 . S
H287 C299 0.959 . S
H288 C302 0.929 . S
H289 C303 0.931 1_655 S
H290 C305 0.930 . S
C291 H279 0.930 . S
C291 C292 1.399 . S
C291 C296 1.399 . S
C292 C291 1.399 . S
C292 C293 1.376 . S
C293 H280 0.930 . S
C293 C292 1.376 . S
C293 C294 1.388 . S
C294 H281 0.930 . S
C294 C293 1.388 . S
C294 C295 1.390 . S
C295 C294 1.390 . S
C295 C296 1.394 . S
C295 C301 1.465 . S
C296 C291 1.399 . S
C296 C295 1.394 . S
C296 C297 1.516 . S
C297 C296 1.516 . S
C297 C298 1.502 . S
C297 C299 1.561 1_545 S
C297 C300 1.526 . S
C298 H282 0.959 . S
C298 H283 0.959 . S
C298 H284 0.961 . S
C298 C297 1.502 . S
C299 H285 0.960 . S
C299 H286 0.961 . S
C299 H287 0.959 . S
C299 C297 1.561 1_565 S
C300 C297 1.526 . S
C300 C301 1.396 . S
C300 C305 1.390 1_455 S
C301 C295 1.465 . S
C301 C300 1.396 . S
C301 C302 1.399 . S
C302 H288 0.929 . S
C302 C301 1.399 . S
C302 C303 1.385 . S
C303 H289 0.931 1_455 S
C303 C302 1.385 . S
C303 C304 1.389 1_455 S
C304 C303 1.389 1_655 S
C304 C305 1.387 . S
C305 H290 0.930 . S
C305 C300 1.390 1_655 S
C305 C304 1.387 . S
H306 C318 0.930 . S
H307 C320 0.930 . S
H308 C321 0.930 . S
H309 C325 0.959 . S
H310 C325 0.959 1_545 S
H311 C325 0.961 . S
H312 C326 0.960 1_565 S
H313 C326 0.961 . S
H314 C326 0.959 . S
H315 C329 0.929 . S
H316 C330 0.931 . S
H317 C332 0.930 . S
C318 H306 0.930 . S
C318 C319 1.399 1_455 S
C318 C323 1.399 . S
C319 C318 1.399 1_655 S
C319 C320 1.376 . S
C320 H307 0.930 . S
C320 C319 1.376 . S
C320 C321 1.388 1_655 S
C321 H308 0.930 . S
C321 C320 1.388 1_455 S
C321 C322 1.390 . S
C322 C321 1.390 . S
C322 C323 1.394 . S
C322 C328 1.465 . S
C323 C318 1.399 . S
C323 C322 1.394 . S
C323 C324 1.516 . S
C324 C323 1.516 . S
C324 C325 1.502 . S
C324 C326 1.561 1_565 S
C324 C327 1.526 1_565 S
C325 H309 0.959 . S
C325 H310 0.959 1_565 S
C325 H311 0.961 . S
C325 C324 1.502 . S
C326 H312 0.960 1_545 S
C326 H313 0.961 . S
C326 H314 0.959 . S
C326 C324 1.561 1_545 S
C327 C324 1.526 1_545 S
C327 C328 1.396 1_545 S
C327 C332 1.390 . S
C328 C322 1.465 . S
C328 C327 1.396 1_565 S
C328 C329 1.399 1_565 S
C329 H315 0.929 . S
C329 C328 1.399 1_545 S
C329 C330 1.385 . S
C330 H316 0.931 . S
C330 C329 1.385 . S
C330 C331 1.389 . S
C331 C330 1.389 . S
C331 C332 1.387 . S
C332 H317 0.930 . S
C332 C327 1.390 . S
C332 C331 1.387 . S
H333 C345 0.930 . S
H334 C347 0.930 . S
H335 C348 0.930 . S
H336 C352 0.959 . S
H337 C352 0.959 . S
H338 C352 0.961 . S
H339 C353 0.960 . S
H340 C353 0.961 . S
H341 C353 0.959 . S
H342 C356 0.929 . S
H343 C357 0.931 . S
H344 C359 0.930 . S
C345 H333 0.930 . S
C345 C346 1.399 . S
C345 C350 1.399 1_556 S
C346 C345 1.399 . S
C346 C347 1.376 . S
C347 H334 0.930 . S
C347 C346 1.376 . S
C347 C348 1.388 1_556 S
C348 H335 0.930 . S
C348 C347 1.388 1_554 S
C348 C349 1.390 . S
C349 C348 1.390 . S
C349 C350 1.394 . S
C349 C355 1.465 . S
C350 C345 1.399 1_554 S
C350 C349 1.394 . S
C350 C351 1.516 . S
C351 C350 1.516 . S
C351 C352 1.502 . S
C351 C353 1.561 . S
C351 C354 1.526 . S
C352 H336 0.959 . S
C352 H337 0.959 . S
C352 H338 0.961 . S
C352 C351 1.502 . S
C353 H339 0.960 . S
C353 H340 0.961 . S
C353 H341 0.959 . S
C353 C351 1.561 . S
C354 C351 1.526 . S
C354 C355 1.396 . S
C354 C359 1.390 . S
C355 C349 1.465 . S
C355 C354 1.396 . S
C355 C356 1.399 . S
C356 H342 0.929 . S
C356 C355 1.399 . S
C356 C357 1.385 . S
C357 H343 0.931 . S
C357 C356 1.385 . S
C357 C358 1.389 . S
C358 C357 1.389 . S
C358 C359 1.387 . S
C359 H344 0.930 . S
C359 C354 1.390 . S
C359 C358 1.387 . S
H360 C372 0.930 . S
H361 C374 0.930 . S
H362 C375 0.930 . S
H363 C379 0.959 . S
H364 C379 0.959 . S
H365 C379 0.961 . S
H366 C380 0.960 . S
H367 C380 0.961 . S
H368 C380 0.959 . S
H369 C383 0.929 . S
H370 C384 0.931 . S
H371 C386 0.930 . S
C372 H360 0.930 . S
C372 C373 1.399 . S
C372 C377 1.399 . S
C373 C372 1.399 . S
C373 C374 1.376 . S
C374 H361 0.930 . S
C374 C373 1.376 . S
C374 C375 1.388 . S
C375 H362 0.930 . S
C375 C374 1.388 . S
C375 C376 1.390 . S
C376 C375 1.390 . S
C376 C377 1.394 . S
C376 C382 1.465 . S
C377 C372 1.399 . S
C377 C376 1.394 . S
C377 C378 1.516 . S
C378 C377 1.516 . S
C378 C379 1.502 . S
C378 C380 1.561 . S
C378 C381 1.526 . S
C379 H363 0.959 . S
C379 H364 0.959 . S
C379 H365 0.961 . S
C379 C378 1.502 . S
C380 H366 0.960 . S
C380 H367 0.961 . S
C380 H368 0.959 . S
C380 C378 1.561 . S
C381 C378 1.526 . S
C381 C382 1.396 . S
C381 C386 1.390 . S
C382 C376 1.465 . S
C382 C381 1.396 . S
C382 C383 1.399 . S
C383 H369 0.929 . S
C383 C382 1.399 . S
C383 C384 1.385 . S
C384 H370 0.931 . S
C384 C383 1.385 . S
C384 C385 1.389 . S
C385 C384 1.389 . S
C385 C386 1.387 . S
C386 H371 0.930 . S
C386 C381 1.390 . S
C386 C385 1.387 . S
H387 C399 0.930 . S
H388 C401 0.930 . S
H389 C402 0.930 . S
H390 C406 0.959 . S
H391 C406 0.959 . S
H392 C406 0.961 . S
H393 C407 0.960 . S
H394 C407 0.961 . S
H395 C407 0.959 . S
H396 C410 0.929 . S
H397 C411 0.931 . S
H398 C413 0.930 . S
C399 H387 0.930 . S
C399 C400 1.399 . S
C399 C404 1.399 . S
C400 C399 1.399 . S
C400 C401 1.376 . S
C401 H388 0.930 . S
C401 C400 1.376 . S
C401 C402 1.388 . S
C402 H389 0.930 . S
C402 C401 1.388 . S
C402 C403 1.390 . S
C403 C402 1.390 . S
C403 C404 1.394 . S
C403 C409 1.465 . S
C404 C399 1.399 . S
C404 C403 1.394 . S
C404 C405 1.516 . S
C405 C404 1.516 . S
C405 C406 1.502 . S
C405 C407 1.561 . S
C405 C408 1.526 . S
C406 H390 0.959 . S
C406 H391 0.959 . S
C406 H392 0.961 . S
C406 C405 1.502 . S
C407 H393 0.960 . S
C407 H394 0.961 . S
C407 H395 0.959 . S
C407 C405 1.561 . S
C408 C405 1.526 . S
C408 C409 1.396 . S
C408 C413 1.390 . S
C409 C403 1.465 . S
C409 C408 1.396 . S
C409 C410 1.399 . S
C410 H396 0.929 . S
C410 C409 1.399 . S
C410 C411 1.385 . S
C411 H397 0.931 . S
C411 C410 1.385 . S
C411 C412 1.389 . S
C412 C411 1.389 . S
C412 C413 1.387 . S
C413 H398 0.930 . S
C413 C408 1.390 . S
C413 C412 1.387 . S
H414 C426 0.930 . S
H415 C428 0.930 . S
H416 C429 0.930 . S
H417 C433 0.959 . S
H418 C433 0.959 . S
H419 C433 0.961 . S
H420 C434 0.960 . S
H421 C434 0.961 . S
H422 C434 0.959 . S
H423 C437 0.929 . S
H424 C438 0.931 . S
H425 C440 0.930 . S
C426 H414 0.930 . S
C426 C427 1.399 . S
C426 C431 1.399 . S
C427 C426 1.399 . S
C427 C428 1.376 . S
C428 H415 0.930 . S
C428 C427 1.376 . S
C428 C429 1.388 . S
C429 H416 0.930 . S
C429 C428 1.388 . S
C429 C430 1.390 . S
C430 C429 1.390 . S
C430 C431 1.394 . S
C430 C436 1.465 . S
C431 C426 1.399 . S
C431 C430 1.394 . S
C431 C432 1.516 . S
C432 C431 1.516 . S
C432 C433 1.502 . S
C432 C434 1.561 . S
C432 C435 1.526 . S
C433 H417 0.959 . S
C433 H418 0.959 . S
C433 H419 0.961 . S
C433 C432 1.502 . S
C434 H420 0.960 . S
C434 H421 0.961 . S
C434 H422 0.959 . S
C434 C432 1.561 . S
C435 C432 1.526 . S
C435 C436 1.396 . S
C435 C440 1.390 1_556 S
C436 C430 1.465 . S
C436 C435 1.396 . S
C436 C437 1.399 . S
C437 H423 0.929 . S
C437 C436 1.399 . S
C437 C438 1.385 1_556 S
C438 H424 0.931 . S
C438 C437 1.385 1_554 S
C438 C439 1.389 . S
C439 C438 1.389 . S
C439 C440 1.387 . S
C440 H425 0.930 . S
C440 C435 1.390 1_554 S
C440 C439 1.387 . S
H441 C453 0.930 . S
H442 C455 0.930 . S
H443 C456 0.930 . S
H444 C460 0.959 . S
H445 C460 0.959 . S
H446 C460 0.961 . S
H447 C461 0.960 . S
H448 C461 0.961 . S
H449 C461 0.959 . S
H450 C464 0.929 . S
H451 C465 0.931 . S
H452 C467 0.930 . S
C453 H441 0.930 . S
C453 C454 1.399 . S
C453 C458 1.399 . S
C454 C453 1.399 . S
C454 C455 1.376 . S
C455 H442 0.930 . S
C455 C454 1.376 . S
C455 C456 1.388 . S
C456 H443 0.930 . S
C456 C455 1.388 . S
C456 C457 1.390 . S
C457 C456 1.390 . S
C457 C458 1.394 . S
C457 C463 1.465 . S
C458 C453 1.399 . S
C458 C457 1.394 . S
C458 C459 1.516 . S
C459 C458 1.516 . S
C459 C460 1.502 . S
C459 C461 1.561 . S
C459 C462 1.526 . S
C460 H444 0.959 . S
C460 H445 0.959 . S
C460 H446 0.961 . S
C460 C459 1.502 . S
C461 H447 0.960 . S
C461 H448 0.961 . S
C461 H449 0.959 . S
C461 C459 1.561 . S
C462 C459 1.526 . S
C462 C463 1.396 . S
C462 C467 1.390 . S
C463 C457 1.465 . S
C463 C462 1.396 . S
C463 C464 1.399 1_565 S
C464 H450 0.929 . S
C464 C463 1.399 1_545 S
C464 C465 1.385 . S
C465 H451 0.931 . S
C465 C464 1.385 . S
C465 C466 1.389 1_545 S
C466 C465 1.389 1_565 S
C466 C467 1.387 . S
C467 H452 0.930 . S
C467 C462 1.390 . S
C467 C466 1.387 . S
H468 C480 0.930 . S
H469 C482 0.930 . S
H470 C483 0.930 . S
H471 C487 0.959 . S
H472 C487 0.959 . S
H473 C487 0.961 . S
H474 C488 0.960 . S
H475 C488 0.961 . S
H476 C488 0.959 . S
H477 C491 0.929 . S
H478 C492 0.931 . S
H479 C494 0.930 . S
C480 H468 0.930 . S
C480 C481 1.399 . S
C480 C485 1.399 . S
C481 C480 1.399 . S
C481 C482 1.376 1_655 S
C482 H469 0.930 . S
C482 C481 1.376 1_455 S
C482 C483 1.388 1_455 S
C483 H470 0.930 . S
C483 C482 1.388 1_655 S
C483 C484 1.390 . S
C484 C483 1.390 . S
C484 C485 1.394 . S
C484 C490 1.465 . S
C485 C480 1.399 . S
C485 C484 1.394 . S
C485 C486 1.516 . S
C486 C485 1.516 . S
C486 C487 1.502 . S
C486 C488 1.561 . S
C486 C489 1.526 . S
C487 H471 0.959 . S
C487 H472 0.959 . S
C487 H473 0.961 . S
C487 C486 1.502 . S
C488 H474 0.960 . S
C488 H475 0.961 . S
C488 H476 0.959 . S
C488 C486 1.561 . S
C489 C486 1.526 . S
C489 C490 1.396 . S
C489 C494 1.390 . S
C490 C484 1.465 . S
C490 C489 1.396 . S
C490 C491 1.399 . S
C491 H477 0.929 . S
C491 C490 1.399 . S
C491 C492 1.385 . S
C492 H478 0.931 . S
C492 C491 1.385 . S
C492 C493 1.389 . S
C493 C492 1.389 . S
C493 C494 1.387 . S
C494 H479 0.930 . S
C494 C489 1.390 . S
C494 C493 1.387 . S
C265 C74 1.544 . S
C277 C63 1.542 . S
C292 C147 1.502 . S
C304 C158 1.563 . S
C319 C231 1.497 . S
C331 C242 1.571 . S
C346 C237 1.477 . S
C358 C67 1.529 . S
C373 C142 1.104 . S
C385 C56 1.367 . S
C400 C235 1.551 . S
C412 C153 1.444 . S
C427 C224 1.363 . S
C439 C58 1.063 . S
C454 C69 1.412 . S
C466 C151 1.569 1_565 S
C481 C226 1.076 . S
C493 C140 1.434 . S
