# Generated by pormake.
# Topology zfj, (5)-cn, num edge types: 1
# Building blocks:
#     Node 0, Type 0, BuildingBlock: BEQFEK_clean_sbu_0, # of connection points: 5
#     Node 1, Type 0, BuildingBlock: BEQFEK_clean_sbu_0, # of connection points: 5
#     Node 2, Type 0, BuildingBlock: BEQFEK_clean_sbu_0, # of connection points: 5
#     Node 3, Type 0, BuildingBlock: BEQFEK_clean_sbu_0, # of connection points: 5
#     Node 4, Type 0, BuildingBlock: BEQFEK_clean_sbu_0, # of connection points: 5
#     Node 5, Type 0, BuildingBlock: BEQFEK_clean_sbu_0, # of connection points: 5
#     Node 6, Type 0, BuildingBlock: BEQFEK_clean_sbu_0, # of connection points: 5
#     Node 7, Type 0, BuildingBlock: BEQFEK_clean_sbu_0, # of connection points: 5
#     Node 8, Type 0, BuildingBlock: BEQFEK_clean_sbu_0, # of connection points: 5
#     Node 9, Type 0, BuildingBlock: BEQFEK_clean_sbu_0, # of connection points: 5
#     Node 10, Type 0, BuildingBlock: BEQFEK_clean_sbu_0, # of connection points: 5
#     Node 11, Type 0, BuildingBlock: BEQFEK_clean_sbu_0, # of connection points: 5
#     Node 12, Type 0, BuildingBlock: BEQFEK_clean_sbu_0, # of connection points: 5
#     Node 13, Type 0, BuildingBlock: BEQFEK_clean_sbu_0, # of connection points: 5
#     Node 14, Type 0, BuildingBlock: BEQFEK_clean_sbu_0, # of connection points: 5
#     Node 15, Type 0, BuildingBlock: BEQFEK_clean_sbu_0, # of connection points: 5
#     Edge 16, Type (0, 0), None
#     Edge 17, Type (0, 0), None
#     Edge 18, Type (0, 0), None
#     Edge 19, Type (0, 0), None
#     Edge 20, Type (0, 0), None
#     Edge 21, Type (0, 0), None
#     Edge 22, Type (0, 0), None
#     Edge 23, Type (0, 0), None
#     Edge 24, Type (0, 0), None
#     Edge 25, Type (0, 0), None
#     Edge 26, Type (0, 0), None
#     Edge 27, Type (0, 0), None
#     Edge 28, Type (0, 0), None
#     Edge 29, Type (0, 0), None
#     Edge 30, Type (0, 0), None
#     Edge 31, Type (0, 0), None
#     Edge 32, Type (0, 0), None
#     Edge 33, Type (0, 0), None
#     Edge 34, Type (0, 0), None
#     Edge 35, Type (0, 0), None
#     Edge 36, Type (0, 0), None
#     Edge 37, Type (0, 0), None
#     Edge 38, Type (0, 0), None
#     Edge 39, Type (0, 0), None
#     Edge 40, Type (0, 0), None
#     Edge 41, Type (0, 0), None
#     Edge 42, Type (0, 0), None
#     Edge 43, Type (0, 0), None
#     Edge 44, Type (0, 0), None
#     Edge 45, Type (0, 0), None
#     Edge 46, Type (0, 0), None
#     Edge 47, Type (0, 0), None
#     Edge 48, Type (0, 0), None
#     Edge 49, Type (0, 0), None
#     Edge 50, Type (0, 0), None
#     Edge 51, Type (0, 0), None
#     Edge 52, Type (0, 0), None
#     Edge 53, Type (0, 0), None
#     Edge 54, Type (0, 0), None
#     Edge 55, Type (0, 0), None
# Relax obj value: 0.491
# Max RMSD: 0.215
# Mean RMSD: 0.215
data_MOF--net-zfj--node1-BEQFEK_clean_sbu_0--edge1-none
_symmetry_space_group_name_H-M    P1
_symmetry_Int_Tables_number       1
_symmetry_cell_setting            triclinic
loop_
_symmetry_equiv_pos_as_xyz
'x, y, z'
_cell_length_a     18.897679
_cell_length_b     18.897709
_cell_length_c     22.571994
_cell_angle_alpha  90.000053
_cell_angle_beta   89.99995
_cell_angle_gamma 90.0
loop_
_atom_site_label
_atom_site_type_symbol
_atom_site_fract_x
_atom_site_fract_y
_atom_site_fract_z
_atom_type_partial_charge
Co0 Co 0.5866 0.29622 0.19813 0.0
Co1 Co 0.63021 0.15458 0.1505 0.0
C2 C 0.60277 0.25813 0.06397 0.0
O3 O 0.59463 0.29746 0.10914 0.0
O4 O 0.61314 0.19167 0.06971 0.0
C5 C 0.47232 0.38523 0.17181 0.0
O6 O 0.46314 0.34099 0.1277 0.0
C7 C 0.63409 0.9991 0.13335 0.0
C8 C 0.63504 0.97981 0.22986 0.0
C9 C 0.62155 0.94792 0.17649 0.0
N10 N 0.65314 0.059 0.16147 0.0
N11 N 0.65689 0.04564 0.21873 0.0
C12 C 0.61315 0.99553 0.06942 0.0
H13 H 0.61193 0.04915 0.04946 0.0
H14 H 0.56085 0.96948 0.06444 0.0
H15 H 0.65238 0.96278 0.0452 0.0
C16 C 0.48836 0.20015 0.2728 0.0
N17 N 0.53749 0.21534 0.23047 0.0
N18 N 0.54489 0.15959 0.19694 0.0
C19 C 0.49695 0.11004 0.21376 0.0
C20 C 0.46158 0.13253 0.26401 0.0
C21 C 0.46148 0.25067 0.31764 0.0
H22 H 0.44009 0.29715 0.29388 0.0
H23 H 0.41859 0.22719 0.3449 0.0
H24 H 0.50576 0.2658 0.34705 0.0
O25 O 0.68856 0.30906 0.22381 0.0
O26 O 0.71853 0.20731 0.18215 0.0
H27 H 0.48414 0.99917 0.20238 0.0
H28 H 0.41703 0.051 0.16896 0.0
C29 C 0.47485 0.04828 0.17718 0.0
H30 H 0.50184 0.04844 0.13384 0.0
H31 H 0.66476 0.08452 0.2509 0.0
O32 O 0.5223 0.37588 0.20914 0.0
C33 C 0.73628 0.26447 0.20878 0.0
Co34 Co 0.25333 0.5866 0.69813 0.0
Co35 Co 0.39496 0.63021 0.6505 0.0
C36 C 0.29141 0.60277 0.56397 0.0
O37 O 0.25209 0.59463 0.60914 0.0
O38 O 0.35787 0.61314 0.56971 0.0
C39 C 0.16432 0.47232 0.67181 0.0
O40 O 0.20856 0.46314 0.6277 0.0
C41 C 0.55044 0.63409 0.63335 0.0
C42 C 0.56974 0.63504 0.72986 0.0
C43 C 0.60162 0.62155 0.67649 0.0
N44 N 0.49055 0.65314 0.66147 0.0
N45 N 0.50391 0.65689 0.71873 0.0
C46 C 0.55402 0.61315 0.56942 0.0
H47 H 0.5004 0.61193 0.54946 0.0
H48 H 0.58007 0.56085 0.56444 0.0
H49 H 0.58676 0.65237 0.5452 0.0
C50 C 0.3494 0.48836 0.7728 0.0
N51 N 0.33421 0.53749 0.73047 0.0
N52 N 0.38996 0.54489 0.69694 0.0
C53 C 0.43951 0.49695 0.71376 0.0
C54 C 0.41701 0.46158 0.76401 0.0
C55 C 0.29887 0.46148 0.81764 0.0
H56 H 0.2524 0.44009 0.79387 0.0
H57 H 0.32236 0.41859 0.8449 0.0
H58 H 0.28375 0.50576 0.84705 0.0
O59 O 0.24049 0.68856 0.72381 0.0
O60 O 0.34223 0.71853 0.68215 0.0
H61 H 0.55037 0.48414 0.70238 0.0
H62 H 0.49854 0.41703 0.66896 0.0
C63 C 0.50126 0.47485 0.67718 0.0
H64 H 0.5011 0.50184 0.63384 0.0
H65 H 0.46503 0.66476 0.7509 0.0
O66 O 0.17366 0.5223 0.70914 0.0
C67 C 0.28508 0.73628 0.70878 0.0
Co68 Co 0.96294 0.25333 0.19813 0.0
Co69 Co 0.91933 0.39497 0.1505 0.0
C70 C 0.94677 0.29141 0.06397 0.0
O71 O 0.95491 0.25209 0.10914 0.0
O72 O 0.9364 0.35787 0.0697 0.0
C73 C 0.07722 0.16432 0.17181 0.0
O74 O 0.0864 0.20856 0.1277 0.0
C75 C 0.91546 0.55045 0.13334 0.0
C76 C 0.91451 0.56974 0.22985 0.0
C77 C 0.92799 0.60163 0.17648 0.0
N78 N 0.89641 0.49055 0.16146 0.0
N79 N 0.89266 0.50391 0.21873 0.0
C80 C 0.9364 0.55402 0.06942 0.0
H81 H 0.93762 0.5004 0.04946 0.0
H82 H 0.9887 0.58007 0.06444 0.0
H83 H 0.89717 0.58677 0.0452 0.0
C84 C 0.06118 0.3494 0.2728 0.0
N85 N 1.01205 0.33421 0.23047 0.0
N86 N 1.00465 0.38996 0.19694 0.0
C87 C 0.0526 0.43951 0.21376 0.0
C88 C 0.08797 0.41701 0.26401 0.0
C89 C 0.08806 0.29887 0.31764 0.0
H90 H 0.10945 0.2524 0.29387 0.0
H91 H 0.13095 0.32235 0.3449 0.0
H92 H 0.04378 0.28374 0.34705 0.0
O93 O 0.86098 0.24049 0.22381 0.0
O94 O 0.83101 0.34224 0.18215 0.0
H95 H 0.06541 0.55037 0.20238 0.0
H96 H 0.13252 0.49854 0.16896 0.0
C97 C 0.0747 0.50126 0.17718 0.0
H98 H 0.0477 0.5011 0.13384 0.0
H99 H 0.88479 0.46503 0.25089 0.0
O100 O 0.02724 0.17366 0.20913 0.0
C101 C 0.81326 0.28509 0.20878 0.0
Co102 Co 0.29622 0.96295 0.69813 0.0
Co103 Co 0.15458 0.91933 0.6505 0.0
C104 C 0.25813 0.94677 0.56397 0.0
O105 O 0.29746 0.95491 0.60914 0.0
O106 O 0.19167 0.9364 0.5697 0.0
C107 C 0.38522 0.07722 0.67181 0.0
O108 O 0.34098 0.0864 0.6277 0.0
C109 C 0.9991 0.91546 0.63334 0.0
C110 C 0.97981 0.91451 0.72985 0.0
C111 C 0.94792 0.928 0.67649 0.0
N112 N 0.059 0.89641 0.66146 0.0
N113 N 0.04563 0.89266 0.71873 0.0
C114 C 0.99552 0.9364 0.56942 0.0
H115 H 0.04915 0.93762 0.54946 0.0
H116 H 0.96948 0.9887 0.56444 0.0
H117 H 0.96278 0.89717 0.5452 0.0
C118 C 0.20015 0.06118 0.7728 0.0
N119 N 0.21534 1.01206 0.73047 0.0
N120 N 0.15959 1.00466 0.69694 0.0
C121 C 0.11004 0.0526 0.71376 0.0
C122 C 0.13253 0.08797 0.76401 0.0
C123 C 0.25068 0.08806 0.81764 0.0
H124 H 0.29715 0.10945 0.79387 0.0
H125 H 0.22719 0.13095 0.8449 0.0
H126 H 0.2658 0.04378 0.84705 0.0
O127 O 0.30906 0.86098 0.72381 0.0
O128 O 0.2073 0.83101 0.68215 0.0
H129 H 0.99917 0.06541 0.70238 0.0
H130 H 0.05101 0.13252 0.66896 0.0
C131 C 0.04828 0.0747 0.67718 0.0
H132 H 0.04844 0.0477 0.63384 0.0
H133 H 0.08451 0.88479 0.7509 0.0
O134 O 0.37588 0.02725 0.70913 0.0
C135 C 0.26446 0.81327 0.70878 0.0
Co136 Co 0.58658 0.25331 0.87063 0.0
Co137 Co 0.63019 0.39497 0.91823 0.0
C138 C 0.60276 0.29142 1.00478 0.0
O139 O 0.59462 0.25209 0.95961 0.0
O140 O 0.61312 0.35788 0.99903 0.0
C141 C 0.4723 0.16431 0.89695 0.0
O142 O 0.46312 0.20857 0.94105 0.0
C143 C 0.63407 0.55044 0.93539 0.0
C144 C 0.63498 0.56974 0.83888 0.0
C145 C 0.62152 0.60163 0.89225 0.0
N146 N 0.65311 0.49055 0.90726 0.0
N147 N 0.65684 0.50391 0.84999 0.0
C148 C 0.61314 0.55401 0.99931 0.0
H149 H 0.61196 0.50039 1.01928 0.0
H150 H 0.56081 0.58001 1.00429 0.0
H151 H 0.65233 0.58679 1.02353 0.0
C152 C 0.48839 0.34935 0.7959 0.0
N153 N 0.53748 0.33418 0.83826 0.0
N154 N 0.54487 0.38996 0.87176 0.0
C155 C 0.49698 0.43953 0.85487 0.0
C156 C 0.46172 0.41702 0.80457 0.0
C157 C 0.46148 0.29878 0.75111 0.0
H158 H 0.44013 0.25231 0.77492 0.0
H159 H 0.41854 0.32222 0.72387 0.0
H160 H 0.50572 0.28366 0.72167 0.0
O161 O 0.68856 0.24047 0.84496 0.0
O162 O 0.71852 0.34224 0.88658 0.0
H163 H 0.48409 0.5504 0.86615 0.0
H164 H 0.41703 0.49855 0.89963 0.0
C165 C 0.47485 0.50131 0.89139 0.0
H166 H 0.50184 0.50123 0.93473 0.0
H167 H 0.66469 0.46503 0.81783 0.0
O168 O 0.52228 0.17363 0.85963 0.0
C169 C 0.73628 0.28507 0.85997 0.0
Co170 Co 0.29624 0.58658 0.37063 0.0
Co171 Co 0.15458 0.63019 0.41823 0.0
C172 C 0.25812 0.60276 0.50477 0.0
O173 O 0.29746 0.59462 0.45961 0.0
O174 O 0.19166 0.61312 0.49903 0.0
C175 C 0.38523 0.4723 0.39695 0.0
O176 O 0.34098 0.46312 0.44106 0.0
C177 C 0.9991 0.63407 0.43539 0.0
C178 C 0.97981 0.63498 0.33888 0.0
C179 C 0.94792 0.62152 0.39225 0.0
N180 N 0.059 0.65311 0.40726 0.0
N181 N 0.04564 0.65683 0.34999 0.0
C182 C 0.99554 0.61314 0.49931 0.0
H183 H 0.04916 0.61196 0.51928 0.0
H184 H 0.96953 0.56081 0.50429 0.0
H185 H 0.96275 0.65233 0.52353 0.0
C186 C 0.2002 0.48839 0.2959 0.0
N187 N 0.21537 0.53747 0.33826 0.0
N188 N 0.15959 0.54487 0.37176 0.0
C189 C 0.11002 0.49698 0.35487 0.0
C190 C 0.13252 0.46172 0.30457 0.0
C191 C 0.25077 0.46147 0.25111 0.0
H192 H 0.29723 0.44013 0.27492 0.0
H193 H 0.22732 0.41854 0.22386 0.0
H194 H 0.26589 0.50572 0.22167 0.0
O195 O 0.30907 0.68856 0.34496 0.0
O196 O 0.20731 0.71852 0.38658 0.0
H197 H 0.99915 0.48409 0.36615 0.0
H198 H 0.05099 0.41703 0.39963 0.0
C199 C 0.04823 0.47484 0.39139 0.0
H200 H 0.04832 0.50184 0.43473 0.0
H201 H 0.08451 0.66469 0.31783 0.0
O202 O 0.37591 0.52228 0.35963 0.0
C203 C 0.26447 0.73628 0.35997 0.0
Co204 Co 0.96296 0.29623 0.87063 0.0
Co205 Co 0.91936 0.15458 0.91823 0.0
C206 C 0.94678 0.25812 1.00477 0.0
O207 O 0.95492 0.29746 0.95961 0.0
O208 O 0.93642 0.19166 0.99903 0.0
C209 C 0.07724 0.38523 0.89696 0.0
O210 O 0.08643 0.34097 0.94106 0.0
C211 C 0.91548 0.9991 0.93539 0.0
C212 C 0.91457 0.9798 0.83888 0.0
C213 C 0.92803 0.94792 0.89225 0.0
N214 N 0.89644 0.05899 0.90726 0.0
N215 N 0.89271 0.04563 0.85 0.0
C216 C 0.93641 0.99553 0.99932 0.0
H217 H 0.93759 0.04915 1.01928 0.0
H218 H 0.98874 0.96953 1.00429 0.0
H219 H 0.89722 0.96275 1.02353 0.0
C220 C 0.06115 0.2002 0.7959 0.0
N221 N 1.01207 0.21536 0.83826 0.0
N222 N 1.00467 0.15959 0.87176 0.0
C223 C 0.05256 0.11002 0.85487 0.0
C224 C 0.08783 0.13252 0.80457 0.0
C225 C 0.08807 0.25077 0.75111 0.0
H226 H 0.10941 0.29723 0.77492 0.0
H227 H 0.131 0.22732 0.72386 0.0
H228 H 0.04382 0.26589 0.72167 0.0
O229 O 0.86098 0.30907 0.84496 0.0
O230 O 0.83102 0.2073 0.88658 0.0
H231 H 0.06546 0.99915 0.86615 0.0
H232 H 0.13251 0.05099 0.89963 0.0
C233 C 0.0747 0.04823 0.89139 0.0
H234 H 0.04771 0.04832 0.93473 0.0
H235 H 0.88486 0.08451 0.81783 0.0
O236 O 0.02726 0.37591 0.85963 0.0
C237 C 0.81327 0.26446 0.85997 0.0
Co238 Co 0.25331 0.96296 0.37063 0.0
Co239 Co 0.39497 0.91936 0.41823 0.0
C240 C 0.29142 0.94678 0.50478 0.0
O241 O 0.25209 0.95492 0.45961 0.0
O242 O 0.35789 0.93642 0.49903 0.0
C243 C 0.16432 0.07724 0.39696 0.0
O244 O 0.20857 0.08642 0.44106 0.0
C245 C 0.55045 0.91547 0.43539 0.0
C246 C 0.56974 0.91456 0.33888 0.0
C247 C 0.60163 0.92803 0.39226 0.0
N248 N 0.49055 0.89644 0.40726 0.0
N249 N 0.50392 0.89271 0.35 0.0
C250 C 0.55401 0.93641 0.49932 0.0
H251 H 0.50039 0.93759 0.51928 0.0
H252 H 0.58001 0.98874 0.50429 0.0
H253 H 0.5868 0.89722 0.52353 0.0
C254 C 0.34935 0.06115 0.2959 0.0
N255 N 0.33418 1.01207 0.33827 0.0
N256 N 0.38996 1.00467 0.37176 0.0
C257 C 0.43953 0.05256 0.35487 0.0
C258 C 0.41702 0.08783 0.30457 0.0
C259 C 0.29878 0.08806 0.25111 0.0
H260 H 0.25231 0.10941 0.27492 0.0
H261 H 0.32222 0.131 0.22387 0.0
H262 H 0.28366 0.04382 0.22167 0.0
O263 O 0.24048 0.86098 0.34496 0.0
O264 O 0.34225 0.83102 0.38658 0.0
H265 H 0.5504 0.06546 0.36615 0.0
H266 H 0.49855 0.13251 0.39963 0.0
C267 C 0.50131 0.0747 0.39139 0.0
H268 H 0.50123 0.04771 0.43473 0.0
H269 H 0.46504 0.88485 0.31783 0.0
O270 O 0.17364 0.02726 0.35963 0.0
C271 C 0.28508 0.81327 0.35997 0.0
Co272 Co 0.46294 0.75334 0.87063 0.0
Co273 Co 0.41931 0.89495 0.91829 0.0
C274 C 0.44674 0.79142 1.0048 0.0
O275 O 0.45488 0.75211 0.95961 0.0
O276 O 0.43637 0.85788 0.99908 0.0
C277 C 0.57729 0.66442 0.897 0.0
O278 O 0.58642 0.70869 0.9411 0.0
C279 C 0.41548 0.05038 0.93542 0.0
C280 C 0.41458 0.06958 0.83887 0.0
C281 C 0.42822 0.10143 0.89223 0.0
N282 N 0.39631 0.9905 0.90733 0.0
N283 N 0.39258 1.00382 0.85005 0.0
C284 C 0.43638 0.05398 0.99935 0.0
H285 H 0.43759 1.00036 1.01932 0.0
H286 H 0.48867 0.08005 1.00435 0.0
H287 H 0.39712 0.08672 1.02354 0.0
C288 C 0.56108 0.84948 0.79593 0.0
N289 N 0.512 0.83426 0.83828 0.0
N290 N 0.50464 0.88997 0.87185 0.0
C291 C 0.55257 0.93954 0.85504 0.0
C292 C 0.58788 0.91708 0.80474 0.0
C293 C 0.58792 0.79898 0.75105 0.0
H294 H 0.60944 0.75255 0.7748 0.0
H295 H 0.63071 0.82251 0.72371 0.0
H296 H 0.54359 0.78377 0.72173 0.0
O297 O 0.36098 0.74048 0.84494 0.0
O298 O 0.33102 0.84221 0.88662 0.0
H299 H 0.56568 0.05037 0.86652 0.0
H300 H 0.63257 0.99829 0.89998 0.0
C301 C 0.57478 1.0012 0.89168 0.0
H302 H 0.54772 1.00107 0.93499 0.0
H303 H 0.38462 0.96493 0.81791 0.0
O304 O 0.52732 0.67371 0.85966 0.0
C305 C 0.31326 0.78507 0.85997 0.0
Co306 Co 0.7962 0.46294 0.37063 0.0
Co307 Co 0.6546 0.4193 0.41829 0.0
C308 C 0.75813 0.44674 0.5048 0.0
O309 O 0.79744 0.45488 0.45961 0.0
O310 O 0.69167 0.43637 0.49908 0.0
C311 C 0.88512 0.57729 0.397 0.0
O312 O 0.84085 0.58642 0.4411 0.0
C313 C 0.49917 0.41548 0.43542 0.0
C314 C 0.47996 0.41458 0.33887 0.0
C315 C 0.44812 0.42821 0.39223 0.0
N316 N 0.55905 0.39631 0.40733 0.0
N317 N 0.54573 0.39257 0.35005 0.0
C318 C 0.49556 0.43637 0.49935 0.0
H319 H 0.54918 0.43759 0.51932 0.0
H320 H 0.4695 0.48866 0.50436 0.0
H321 H 0.46283 0.39712 0.52354 0.0
C322 C 0.70007 0.56108 0.29593 0.0
N323 N 0.71529 0.512 0.33828 0.0
N324 N 0.65957 0.50464 0.37185 0.0
C325 C 0.61001 0.55257 0.35504 0.0
C326 C 0.63246 0.58788 0.30474 0.0
C327 C 0.75057 0.58792 0.25105 0.0
H328 H 0.797 0.60944 0.2748 0.0
H329 H 0.72704 0.63071 0.22371 0.0
H330 H 0.76578 0.54358 0.22173 0.0
O331 O 0.80906 0.36098 0.34494 0.0
O332 O 0.70734 0.33102 0.38662 0.0
H333 H 0.49918 0.56568 0.36652 0.0
H334 H 0.55125 0.63257 0.39998 0.0
C335 C 0.54835 0.57477 0.39168 0.0
H336 H 0.54848 0.54771 0.43499 0.0
H337 H 0.58462 0.38461 0.31791 0.0
O338 O 0.87584 0.52732 0.35966 0.0
C339 C 0.76447 0.31326 0.35997 0.0
Co340 Co 0.08661 0.7962 0.87063 0.0
Co341 Co 0.13024 0.65459 0.91829 0.0
C342 C 0.10281 0.75813 1.0048 0.0
O343 O 0.09467 0.79744 0.95961 0.0
O344 O 0.11318 0.69166 0.99908 0.0
C345 C 0.97226 0.88512 0.897 0.0
O346 O 0.96313 0.84085 0.9411 0.0
C347 C 0.13407 0.49916 0.93542 0.0
C348 C 0.13496 0.47996 0.83888 0.0
C349 C 0.12133 0.44811 0.89223 0.0
N350 N 0.15323 0.55904 0.90733 0.0
N351 N 0.15697 0.54572 0.85005 0.0
C352 C 0.11317 0.49556 0.99935 0.0
H353 H 0.11195 0.54918 1.01933 0.0
H354 H 0.06088 0.4695 1.00436 0.0
H355 H 0.15242 0.46283 1.02355 0.0
C356 C 0.98847 0.70007 0.79593 0.0
N357 N 0.03755 0.71529 0.83828 0.0
N358 N 0.04491 0.65957 0.87185 0.0
C359 C 0.99698 0.61001 0.85504 0.0
C360 C 0.96167 0.63246 0.80474 0.0
C361 C 0.96163 0.75057 0.75105 0.0
H362 H 0.94011 0.797 0.7748 0.0
H363 H 0.91884 0.72704 0.72371 0.0
H364 H 1.00597 0.76578 0.72173 0.0
O365 O 0.18857 0.80906 0.84494 0.0
O366 O 0.21853 0.70733 0.88662 0.0
H367 H 0.98387 0.49918 0.86652 0.0
H368 H 0.91698 0.55125 0.89998 0.0
C369 C 0.97477 0.54835 0.89168 0.0
H370 H 1.00183 0.54848 0.93499 0.0
H371 H 0.16493 0.58461 0.81791 0.0
O372 O 1.02223 0.87584 0.85966 0.0
C373 C 0.23628 0.76447 0.85997 0.0
Co374 Co 0.75335 0.08661 0.37063 0.0
Co375 Co 0.89495 0.13024 0.41829 0.0
C376 C 0.79142 0.10281 0.5048 0.0
O377 O 0.75211 0.09467 0.45961 0.0
O378 O 0.85788 0.11318 0.49908 0.0
C379 C 0.66443 0.97226 0.397 0.0
O380 O 0.7087 0.96313 0.4411 0.0
C381 C 0.05038 0.13406 0.43542 0.0
C382 C 0.06959 0.13496 0.33888 0.0
C383 C 0.10143 0.12133 0.39223 0.0
N384 N 0.99051 0.15323 0.40733 0.0
N385 N 1.00383 0.15697 0.35005 0.0
C386 C 0.05399 0.11317 0.49935 0.0
H387 H 1.00037 0.11195 0.51933 0.0
H388 H 0.08005 0.06088 0.50436 0.0
H389 H 0.08672 0.15242 0.52355 0.0
C390 C 0.84948 0.98847 0.29593 0.0
N391 N 0.83426 0.03755 0.33828 0.0
N392 N 0.88997 0.04491 0.37185 0.0
C393 C 0.93954 0.99698 0.35504 0.0
C394 C 0.91708 0.96166 0.30474 0.0
C395 C 0.79898 0.96163 0.25105 0.0
H396 H 0.75255 0.94011 0.2748 0.0
H397 H 0.82251 0.91884 0.22371 0.0
H398 H 0.78377 1.00597 0.22173 0.0
O399 O 0.74048 0.18857 0.34494 0.0
O400 O 0.84222 0.21853 0.38662 0.0
H401 H 0.05037 0.98386 0.36652 0.0
H402 H 0.99829 0.91698 0.39998 0.0
C403 C 1.0012 0.97477 0.39168 0.0
H404 H 1.00107 1.00183 0.43499 0.0
H405 H 0.96494 0.16493 0.31791 0.0
O406 O 0.67371 1.02223 0.35966 0.0
C407 C 0.78508 0.23628 0.35997 0.0
Co408 Co 0.46296 0.79622 0.19813 0.0
Co409 Co 0.41933 0.65459 0.1505 0.0
C410 C 0.44676 0.75812 0.06398 0.0
O411 O 0.45489 0.79743 0.10916 0.0
O412 O 0.43639 0.69165 0.06971 0.0
C413 C 0.57732 0.88513 0.17175 0.0
O414 O 0.58645 0.84084 0.12767 0.0
C415 C 0.4155 0.49917 0.13336 0.0
C416 C 0.41464 0.47996 0.22991 0.0
C417 C 0.42825 0.44812 0.17655 0.0
N418 N 0.39634 0.55904 0.16146 0.0
N419 N 0.39263 0.54572 0.21874 0.0
C420 C 0.43639 0.49557 0.06943 0.0
H421 H 0.43756 0.54919 0.04945 0.0
H422 H 0.4887 0.46955 0.06443 0.0
H423 H 0.39716 0.4628 0.04524 0.0
C424 C 0.56105 0.70011 0.27289 0.0
N425 N 0.51201 0.71532 0.2305 0.0
N426 N 0.50465 0.65957 0.19696 0.0
C427 C 0.55254 0.60999 0.21385 0.0
C428 C 0.58775 0.63245 0.2642 0.0
C429 C 0.58792 0.75066 0.31772 0.0
H430 H 0.6094 0.79708 0.29393 0.0
H431 H 0.63076 0.72716 0.34504 0.0
H432 H 0.54362 0.76586 0.34707 0.0
O433 O 0.36098 0.80908 0.22381 0.0
O434 O 0.33103 0.70733 0.18216 0.0
H435 H 0.56573 0.49915 0.20247 0.0
H436 H 0.63257 0.55124 0.16894 0.0
C437 C 0.57478 0.5483 0.17725 0.0
H438 H 0.54772 0.54836 0.13394 0.0
H439 H 0.38468 0.58461 0.25088 0.0
O440 O 0.52734 0.87587 0.20909 0.0
C441 C 0.31326 0.76448 0.20879 0.0
Co442 Co 0.75333 0.46296 0.69813 0.0
Co443 Co 0.89495 0.41933 0.6505 0.0
C444 C 0.79143 0.44675 0.56398 0.0
O445 O 0.75211 0.45489 0.60916 0.0
O446 O 0.85789 0.43639 0.56971 0.0
C447 C 0.66442 0.57732 0.67175 0.0
O448 O 0.7087 0.58645 0.62767 0.0
C449 C 0.05038 0.4155 0.63336 0.0
C450 C 0.06959 0.41464 0.72991 0.0
C451 C 0.10143 0.42825 0.67655 0.0
N452 N 0.9905 0.39634 0.66146 0.0
N453 N 1.00382 0.39263 0.71874 0.0
C454 C 0.05397 0.43639 0.56943 0.0
H455 H 1.00036 0.43756 0.54945 0.0
H456 H 0.07999 0.4887 0.56443 0.0
H457 H 0.08675 0.39716 0.54524 0.0
C458 C 0.84943 0.56105 0.77289 0.0
N459 N 0.83423 0.51201 0.7305 0.0
N460 N 0.88997 0.50465 0.69696 0.0
C461 C 0.93956 0.55254 0.71385 0.0
C462 C 0.9171 0.58775 0.7642 0.0
C463 C 0.79889 0.58792 0.81772 0.0
H464 H 0.75247 0.6094 0.79393 0.0
H465 H 0.82238 0.63075 0.84505 0.0
H466 H 0.78368 0.54362 0.84707 0.0
O467 O 0.74047 0.36098 0.72381 0.0
O468 O 0.84222 0.33103 0.68216 0.0
H469 H 0.05039 0.56573 0.70247 0.0
H470 H 0.99831 0.63257 0.66894 0.0
C471 C 1.00125 0.57478 0.67725 0.0
H472 H 1.00119 0.54772 0.63394 0.0
H473 H 0.96493 0.38468 0.75088 0.0
O474 O 0.67368 0.52734 0.70909 0.0
C475 C 0.78507 0.31327 0.70879 0.0
Co476 Co 0.08659 0.75333 0.19813 0.0
Co477 Co 0.13022 0.89495 0.1505 0.0
C478 C 0.1028 0.79143 0.06398 0.0
O479 O 0.09466 0.75211 0.10916 0.0
O480 O 0.11316 0.85789 0.06971 0.0
C481 C 0.97223 0.66442 0.17175 0.0
O482 O 0.96311 0.70871 0.12766 0.0
C483 C 0.13405 0.05038 0.13336 0.0
C484 C 0.1349 0.06959 0.22991 0.0
C485 C 0.1213 0.10143 0.17655 0.0
N486 N 0.1532 0.99051 0.16146 0.0
N487 N 0.15692 1.00383 0.21874 0.0
C488 C 0.11315 0.05398 0.06943 0.0
H489 H 0.11198 1.00036 0.04945 0.0
H490 H 0.06084 0.07999 0.06442 0.0
H491 H 0.15238 0.08675 0.04524 0.0
C492 C 0.9885 0.84943 0.27289 0.0
N493 N 0.03754 0.83423 0.2305 0.0
N494 N 0.0449 0.88997 0.19696 0.0
C495 C 0.99701 0.93956 0.21385 0.0
C496 C 0.9618 0.91709 0.2642 0.0
C497 C 0.96163 0.79889 0.31772 0.0
H498 H 0.94015 0.75247 0.29393 0.0
H499 H 0.9188 0.82238 0.34505 0.0
H500 H 1.00593 0.78368 0.34707 0.0
O501 O 0.18857 0.74047 0.22381 0.0
O502 O 0.21852 0.84222 0.18216 0.0
H503 H 0.98381 0.05039 0.20247 0.0
H504 H 0.91698 0.99831 0.16894 0.0
C505 C 0.97477 1.00124 0.17725 0.0
H506 H 1.00183 1.00119 0.13394 0.0
H507 H 0.16486 0.96494 0.25088 0.0
O508 O 1.02221 0.67368 0.20909 0.0
C509 C 0.23628 0.78508 0.20879 0.0
Co510 Co 0.79622 0.08659 0.69813 0.0
Co511 Co 0.65459 0.13022 0.6505 0.0
C512 C 0.75812 0.1028 0.56398 0.0
O513 O 0.79743 0.09466 0.60916 0.0
O514 O 0.69165 0.11316 0.56971 0.0
C515 C 0.88513 0.97223 0.67175 0.0
O516 O 0.84084 0.96311 0.62767 0.0
C517 C 0.49916 0.13405 0.63336 0.0
C518 C 0.47995 0.1349 0.72991 0.0
C519 C 0.44811 0.1213 0.67655 0.0
N520 N 0.55904 0.1532 0.66146 0.0
N521 N 0.54572 0.15692 0.71874 0.0
C522 C 0.49557 0.11315 0.56943 0.0
H523 H 0.54918 0.11198 0.54945 0.0
H524 H 0.46955 0.06084 0.56442 0.0
H525 H 0.4628 0.15238 0.54524 0.0
C526 C 0.70012 0.9885 0.77289 0.0
N527 N 0.71532 0.03754 0.7305 0.0
N528 N 0.65957 0.0449 0.69696 0.0
C529 C 0.60999 0.99701 0.71385 0.0
C530 C 0.63245 0.9618 0.76419 0.0
C531 C 0.75066 0.96163 0.81772 0.0
H532 H 0.79708 0.94015 0.79393 0.0
H533 H 0.72717 0.9188 0.84504 0.0
H534 H 0.76587 1.00593 0.84707 0.0
O535 O 0.80908 0.18857 0.72381 0.0
O536 O 0.70732 0.21852 0.68216 0.0
H537 H 0.49916 0.98382 0.70247 0.0
H538 H 0.55124 0.91698 0.66894 0.0
C539 C 0.5483 0.97477 0.67725 0.0
H540 H 0.54836 1.00183 0.63394 0.0
H541 H 0.58461 0.16487 0.75088 0.0
O542 O 0.87587 1.02221 0.70909 0.0
C543 C 0.76447 0.23628 0.70879 0.0
loop_
_geom_bond_atom_site_label_1
_geom_bond_atom_site_label_2
_geom_bond_distance
_geom_bond_site_symmetry_2
_ccdc_geom_bond_type
Co0 O3 1.970 . S
Co0 N17 1.989 . S
Co0 O25 1.967 . S
Co0 O32 1.920 . S
Co1 O4 1.966 . S
Co1 N10 2.022 . S
Co1 N18 1.993 . S
Co1 O26 1.941 . S
C2 O3 1.258 . S
C2 O4 1.263 . S
O3 Co0 1.970 . S
O3 C2 1.258 . S
O4 Co1 1.966 . S
O4 C2 1.263 . S
C5 O6 1.235 . S
C5 O32 1.289 . S
O6 C5 1.235 . S
C7 C9 1.400 1_545 S
C7 N10 1.351 . S
C7 C12 1.501 . S
C8 C9 1.387 . S
C8 N11 1.345 . S
C9 C7 1.400 1_565 S
C9 C8 1.387 . S
N10 Co1 2.022 . S
N10 C7 1.351 . S
N10 N11 1.363 1_545 S
N11 C8 1.345 . S
N11 N10 1.363 1_565 S
N11 H31 0.861 1_565 S
C12 C7 1.501 . S
C12 H13 0.961 . S
C12 H14 0.961 . S
C12 H15 0.960 1_554 S
H13 C12 0.961 . S
H14 C12 0.961 . S
H15 C12 0.960 1_556 S
C16 N17 1.342 . S
C16 C20 1.401 . S
C16 C21 1.499 . S
N17 Co0 1.989 . S
N17 C16 1.342 . S
N17 N18 1.388 . S
N18 Co1 1.993 . S
N18 N17 1.388 . S
N18 C19 1.346 . S
C19 N18 1.346 . S
C19 C20 1.396 . S
C19 C29 1.510 . S
C20 C16 1.401 . S
C20 C19 1.396 . S
C21 C16 1.499 . S
C21 H22 0.959 . S
C21 H23 0.960 . S
C21 H24 0.961 . S
H22 C21 0.959 . S
H23 C21 0.960 . S
H24 C21 0.961 . S
O25 Co0 1.967 . S
O25 C33 1.258 . S
O26 Co1 1.941 . S
O26 C33 1.266 . S
H27 C29 0.959 . S
H28 C29 0.961 . S
C29 C19 1.510 . S
C29 H27 0.959 . S
C29 H28 0.961 . S
C29 H30 0.960 . S
H30 C29 0.960 . S
H31 N11 0.861 1_545 S
O32 Co0 1.920 . S
O32 C5 1.289 . S
C33 O25 1.258 . S
C33 O26 1.266 . S
Co34 O37 1.970 . S
Co34 N51 1.989 . S
Co34 O59 1.967 . S
Co34 O66 1.920 . S
Co35 O38 1.966 . S
Co35 N44 2.022 . S
Co35 N52 1.993 . S
Co35 O60 1.941 . S
C36 O37 1.258 . S
C36 O38 1.263 . S
O37 Co34 1.970 . S
O37 C36 1.258 . S
O38 Co35 1.966 . S
O38 C36 1.263 . S
C39 O40 1.235 . S
C39 O66 1.289 . S
O40 C39 1.235 . S
C41 C43 1.400 . S
C41 N44 1.351 . S
C41 C46 1.501 . S
C42 C43 1.387 . S
C42 N45 1.341 . S
C43 C41 1.400 . S
C43 C42 1.387 . S
N44 Co35 2.022 . S
N44 C41 1.351 . S
N44 N45 1.365 . S
N45 C42 1.341 . S
N45 N44 1.365 . S
N45 H65 0.862 . S
C46 C41 1.501 . S
C46 H47 0.961 . S
C46 H48 0.961 . S
C46 H49 0.960 . S
H47 C46 0.961 . S
H48 C46 0.961 . S
H49 C46 0.960 . S
C50 N51 1.342 . S
C50 C54 1.401 . S
C50 C55 1.499 . S
N51 Co34 1.989 . S
N51 C50 1.342 . S
N51 N52 1.388 . S
N52 Co35 1.993 . S
N52 N51 1.388 . S
N52 C53 1.346 . S
C53 N52 1.346 . S
C53 C54 1.396 . S
C53 C63 1.510 . S
C54 C50 1.401 . S
C54 C53 1.396 . S
C55 C50 1.499 . S
C55 H56 0.959 . S
C55 H57 0.960 . S
C55 H58 0.961 . S
H56 C55 0.959 . S
H57 C55 0.960 . S
H58 C55 0.961 . S
O59 Co34 1.967 . S
O59 C67 1.258 . S
O60 Co35 1.941 . S
O60 C67 1.266 . S
H61 C63 0.959 . S
H62 C63 0.961 . S
C63 C53 1.510 . S
C63 H61 0.959 . S
C63 H62 0.961 . S
C63 H64 0.960 . S
H64 C63 0.960 . S
H65 N45 0.862 . S
O66 Co34 1.920 . S
O66 C39 1.289 . S
C67 O59 1.258 . S
C67 O60 1.266 . S
Co68 O71 1.970 . S
Co68 N85 1.989 1_655 S
Co68 O93 1.967 . S
Co68 O100 1.920 . S
Co69 O72 1.966 . S
Co69 N78 2.022 . S
Co69 N86 1.993 1_655 S
Co69 O94 1.941 . S
C70 O71 1.258 . S
C70 O72 1.263 . S
O71 Co68 1.970 . S
O71 C70 1.258 . S
O72 Co69 1.966 . S
O72 C70 1.263 . S
C73 O74 1.235 . S
C73 O100 1.289 1_455 S
O74 C73 1.235 . S
C75 C77 1.400 . S
C75 N78 1.351 . S
C75 C80 1.501 . S
C76 C77 1.387 . S
C76 N79 1.341 . S
C77 C75 1.400 . S
C77 C76 1.387 . S
N78 Co69 2.022 . S
N78 C75 1.351 . S
N78 N79 1.365 . S
N79 C76 1.341 . S
N79 N78 1.365 . S
N79 H99 0.862 . S
C80 C75 1.501 . S
C80 H81 0.961 . S
C80 H82 0.961 1_655 S
C80 H83 0.960 1_554 S
H81 C80 0.961 . S
H82 C80 0.961 1_455 S
H83 C80 0.960 1_556 S
C84 N85 1.342 . S
C84 C88 1.401 . S
C84 C89 1.499 . S
N85 Co68 1.989 1_455 S
N85 C84 1.342 . S
N85 N86 1.388 . S
N86 Co69 1.993 1_455 S
N86 N85 1.388 . S
N86 C87 1.346 . S
C87 N86 1.346 . S
C87 C88 1.396 . S
C87 C97 1.510 . S
C88 C84 1.401 . S
C88 C87 1.396 . S
C89 C84 1.499 . S
C89 H90 0.959 . S
C89 H91 0.960 . S
C89 H92 0.961 . S
H90 C89 0.959 . S
H91 C89 0.960 . S
H92 C89 0.961 . S
O93 Co68 1.967 . S
O93 C101 1.258 . S
O94 Co69 1.941 . S
O94 C101 1.266 . S
H95 C97 0.959 . S
H96 C97 0.961 . S
C97 C87 1.510 . S
C97 H95 0.959 . S
C97 H96 0.961 . S
C97 H98 0.960 . S
H98 C97 0.960 . S
H99 N79 0.862 . S
O100 Co68 1.920 . S
O100 C73 1.289 1_655 S
C101 O93 1.258 . S
C101 O94 1.266 . S
Co102 O105 1.970 . S
Co102 N119 1.989 1_565 S
Co102 O127 1.967 . S
Co102 O134 1.920 . S
Co103 O106 1.966 . S
Co103 N112 2.022 . S
Co103 N120 1.993 1_565 S
Co103 O128 1.941 . S
C104 O105 1.258 . S
C104 O106 1.263 . S
O105 Co102 1.970 . S
O105 C104 1.258 . S
O106 Co103 1.966 . S
O106 C104 1.263 . S
C107 O108 1.235 . S
C107 O134 1.289 1_545 S
O108 C107 1.235 . S
C109 C111 1.400 1_455 S
C109 N112 1.351 . S
C109 C114 1.501 . S
C110 C111 1.387 . S
C110 N113 1.345 . S
C111 C109 1.400 1_655 S
C111 C110 1.387 . S
N112 Co103 2.022 . S
N112 C109 1.351 . S
N112 N113 1.363 1_455 S
N113 C110 1.345 . S
N113 N112 1.363 1_655 S
N113 H133 0.861 1_655 S
C114 C109 1.501 . S
C114 H115 0.961 . S
C114 H116 0.961 1_565 S
C114 H117 0.960 . S
H115 C114 0.961 . S
H116 C114 0.961 1_545 S
H117 C114 0.960 . S
C118 N119 1.342 . S
C118 C122 1.401 . S
C118 C123 1.499 . S
N119 Co102 1.989 1_545 S
N119 C118 1.342 . S
N119 N120 1.388 . S
N120 Co103 1.993 1_545 S
N120 N119 1.388 . S
N120 C121 1.346 . S
C121 N120 1.346 . S
C121 C122 1.396 . S
C121 C131 1.510 . S
C122 C118 1.401 . S
C122 C121 1.396 . S
C123 C118 1.499 . S
C123 H124 0.959 . S
C123 H125 0.960 . S
C123 H126 0.961 . S
H124 C123 0.959 . S
H125 C123 0.960 . S
H126 C123 0.961 . S
O127 Co102 1.967 . S
O127 C135 1.258 . S
O128 Co103 1.941 . S
O128 C135 1.266 . S
H129 C131 0.959 . S
H130 C131 0.961 . S
C131 C121 1.510 . S
C131 H129 0.959 . S
C131 H130 0.961 . S
C131 H132 0.960 . S
H132 C131 0.960 . S
H133 N113 0.861 1_455 S
O134 Co102 1.920 . S
O134 C107 1.289 1_565 S
C135 O127 1.258 . S
C135 O128 1.266 . S
Co136 O139 1.970 . S
Co136 N153 1.989 . S
Co136 O161 1.967 . S
Co136 O168 1.920 . S
Co137 O140 1.966 . S
Co137 N146 2.022 . S
Co137 N154 1.993 . S
Co137 O162 1.941 . S
C138 O139 1.258 . S
C138 O140 1.263 . S
O139 Co136 1.970 . S
O139 C138 1.258 . S
O140 Co137 1.966 . S
O140 C138 1.263 . S
C141 O142 1.235 . S
C141 O168 1.289 . S
O142 C141 1.235 . S
C143 C145 1.400 . S
C143 N146 1.351 . S
C143 C148 1.501 . S
C144 C145 1.387 . S
C144 N147 1.341 . S
C145 C143 1.400 . S
C145 C144 1.387 . S
N146 Co137 2.022 . S
N146 C143 1.351 . S
N146 N147 1.365 . S
N147 C144 1.341 . S
N147 N146 1.365 . S
N147 H167 0.862 . S
C148 C143 1.501 . S
C148 H149 0.961 . S
C148 H150 0.961 . S
C148 H151 0.960 1_556 S
H149 C148 0.961 . S
H150 C148 0.961 . S
H151 C148 0.960 1_554 S
C152 N153 1.342 . S
C152 C156 1.401 . S
C152 C157 1.499 . S
N153 Co136 1.989 . S
N153 C152 1.342 . S
N153 N154 1.388 . S
N154 Co137 1.993 . S
N154 N153 1.388 . S
N154 C155 1.346 . S
C155 N154 1.346 . S
C155 C156 1.396 . S
C155 C165 1.510 . S
C156 C152 1.401 . S
C156 C155 1.396 . S
C157 C152 1.499 . S
C157 H158 0.959 . S
C157 H159 0.960 . S
C157 H160 0.961 . S
H158 C157 0.959 . S
H159 C157 0.960 . S
H160 C157 0.961 . S
O161 Co136 1.967 . S
O161 C169 1.258 . S
O162 Co137 1.941 . S
O162 C169 1.266 . S
H163 C165 0.959 . S
H164 C165 0.961 . S
C165 C155 1.510 . S
C165 H163 0.959 . S
C165 H164 0.961 . S
C165 H166 0.960 . S
H166 C165 0.960 . S
H167 N147 0.862 . S
O168 Co136 1.920 . S
O168 C141 1.289 . S
C169 O161 1.258 . S
C169 O162 1.266 . S
Co170 O173 1.970 . S
Co170 N187 1.989 . S
Co170 O195 1.967 . S
Co170 O202 1.920 . S
Co171 O174 1.966 . S
Co171 N180 2.022 . S
Co171 N188 1.993 . S
Co171 O196 1.941 . S
C172 O173 1.258 . S
C172 O174 1.263 . S
O173 Co170 1.970 . S
O173 C172 1.258 . S
O174 Co171 1.966 . S
O174 C172 1.263 . S
C175 O176 1.235 . S
C175 O202 1.289 . S
O176 C175 1.235 . S
C177 C179 1.400 1_455 S
C177 N180 1.351 . S
C177 C182 1.501 . S
C178 C179 1.387 . S
C178 N181 1.345 . S
C179 C177 1.400 1_655 S
C179 C178 1.387 . S
N180 Co171 2.022 . S
N180 C177 1.351 . S
N180 N181 1.363 1_455 S
N181 C178 1.345 . S
N181 N180 1.363 1_655 S
N181 H201 0.861 1_655 S
C182 C177 1.501 . S
C182 H183 0.961 . S
C182 H184 0.961 . S
C182 H185 0.960 . S
H183 C182 0.961 . S
H184 C182 0.961 . S
H185 C182 0.960 . S
C186 N187 1.342 . S
C186 C190 1.401 . S
C186 C191 1.499 . S
N187 Co170 1.989 . S
N187 C186 1.342 . S
N187 N188 1.388 . S
N188 Co171 1.993 . S
N188 N187 1.388 . S
N188 C189 1.346 . S
C189 N188 1.346 . S
C189 C190 1.396 . S
C189 C199 1.510 . S
C190 C186 1.401 . S
C190 C189 1.396 . S
C191 C186 1.499 . S
C191 H192 0.959 . S
C191 H193 0.960 . S
C191 H194 0.961 . S
H192 C191 0.959 . S
H193 C191 0.960 . S
H194 C191 0.961 . S
O195 Co170 1.967 . S
O195 C203 1.258 . S
O196 Co171 1.941 . S
O196 C203 1.266 . S
H197 C199 0.959 . S
H198 C199 0.961 . S
C199 C189 1.510 . S
C199 H197 0.959 . S
C199 H198 0.961 . S
C199 H200 0.960 . S
H200 C199 0.960 . S
H201 N181 0.861 1_455 S
O202 Co170 1.920 . S
O202 C175 1.289 . S
C203 O195 1.258 . S
C203 O196 1.266 . S
Co204 O207 1.970 . S
Co204 N221 1.989 1_655 S
Co204 O229 1.967 . S
Co204 O236 1.920 . S
Co205 O208 1.966 . S
Co205 N214 2.022 . S
Co205 N222 1.993 1_655 S
Co205 O230 1.941 . S
C206 O207 1.258 . S
C206 O208 1.263 . S
O207 Co204 1.970 . S
O207 C206 1.258 . S
O208 Co205 1.966 . S
O208 C206 1.263 . S
C209 O210 1.235 . S
C209 O236 1.289 1_455 S
O210 C209 1.235 . S
C211 C213 1.400 1_545 S
C211 N214 1.351 . S
C211 C216 1.501 . S
C212 C213 1.387 . S
C212 N215 1.345 . S
C213 C211 1.400 1_565 S
C213 C212 1.387 . S
N214 Co205 2.022 . S
N214 C211 1.351 . S
N214 N215 1.363 1_545 S
N215 C212 1.345 . S
N215 N214 1.363 1_565 S
N215 H235 0.861 1_565 S
C216 C211 1.501 . S
C216 H217 0.961 . S
C216 H218 0.961 1_655 S
C216 H219 0.960 1_556 S
H217 C216 0.961 . S
H218 C216 0.961 1_455 S
H219 C216 0.960 1_554 S
C220 N221 1.342 . S
C220 C224 1.401 . S
C220 C225 1.499 . S
N221 Co204 1.989 1_455 S
N221 C220 1.342 . S
N221 N222 1.388 . S
N222 Co205 1.993 1_455 S
N222 N221 1.388 . S
N222 C223 1.346 . S
C223 N222 1.346 . S
C223 C224 1.396 . S
C223 C233 1.510 . S
C224 C220 1.401 . S
C224 C223 1.396 . S
C225 C220 1.499 . S
C225 H226 0.959 . S
C225 H227 0.960 . S
C225 H228 0.961 . S
H226 C225 0.959 . S
H227 C225 0.960 . S
H228 C225 0.961 . S
O229 Co204 1.967 . S
O229 C237 1.258 . S
O230 Co205 1.941 . S
O230 C237 1.266 . S
H231 C233 0.959 . S
H232 C233 0.961 . S
C233 C223 1.510 . S
C233 H231 0.959 . S
C233 H232 0.961 . S
C233 H234 0.960 . S
H234 C233 0.960 . S
H235 N215 0.861 1_545 S
O236 Co204 1.920 . S
O236 C209 1.289 1_655 S
C237 O229 1.258 . S
C237 O230 1.266 . S
Co238 O241 1.970 . S
Co238 N255 1.989 1_565 S
Co238 O263 1.967 . S
Co238 O270 1.920 . S
Co239 O242 1.966 . S
Co239 N248 2.022 . S
Co239 N256 1.993 1_565 S
Co239 O264 1.941 . S
C240 O241 1.258 . S
C240 O242 1.263 . S
O241 Co238 1.970 . S
O241 C240 1.258 . S
O242 Co239 1.966 . S
O242 C240 1.263 . S
C243 O244 1.235 . S
C243 O270 1.289 1_545 S
O244 C243 1.235 . S
C245 C247 1.400 . S
C245 N248 1.351 . S
C245 C250 1.501 . S
C246 C247 1.387 . S
C246 N249 1.341 . S
C247 C245 1.400 . S
C247 C246 1.387 . S
N248 Co239 2.022 . S
N248 C245 1.351 . S
N248 N249 1.365 . S
N249 C246 1.341 . S
N249 N248 1.365 . S
N249 H269 0.862 . S
C250 C245 1.501 . S
C250 H251 0.961 . S
C250 H252 0.961 1_565 S
C250 H253 0.960 . S
H251 C250 0.961 . S
H252 C250 0.961 1_545 S
H253 C250 0.960 . S
C254 N255 1.342 . S
C254 C258 1.401 . S
C254 C259 1.499 . S
N255 Co238 1.989 1_545 S
N255 C254 1.342 . S
N255 N256 1.388 . S
N256 Co239 1.993 1_545 S
N256 N255 1.388 . S
N256 C257 1.346 . S
C257 N256 1.346 . S
C257 C258 1.396 . S
C257 C267 1.510 . S
C258 C254 1.401 . S
C258 C257 1.396 . S
C259 C254 1.499 . S
C259 H260 0.959 . S
C259 H261 0.960 . S
C259 H262 0.961 . S
H260 C259 0.959 . S
H261 C259 0.960 . S
H262 C259 0.961 . S
O263 Co238 1.967 . S
O263 C271 1.258 . S
O264 Co239 1.941 . S
O264 C271 1.266 . S
H265 C267 0.959 . S
H266 C267 0.961 . S
C267 C257 1.510 . S
C267 H265 0.959 . S
C267 H266 0.961 . S
C267 H268 0.960 . S
H268 C267 0.960 . S
H269 N249 0.862 . S
O270 Co238 1.920 . S
O270 C243 1.289 1_565 S
C271 O263 1.258 . S
C271 O264 1.266 . S
Co272 O275 1.970 . S
Co272 N289 1.989 . S
Co272 O297 1.967 . S
Co272 O304 1.920 . S
Co273 O276 1.966 . S
Co273 N282 2.022 . S
Co273 N290 1.993 . S
Co273 O298 1.941 . S
C274 O275 1.258 . S
C274 O276 1.263 . S
O275 Co272 1.970 . S
O275 C274 1.258 . S
O276 Co273 1.966 . S
O276 C274 1.263 . S
C277 O278 1.235 . S
C277 O304 1.289 . S
O278 C277 1.235 . S
C279 C281 1.400 1_565 S
C279 N282 1.351 . S
C279 C284 1.501 . S
C280 C281 1.387 . S
C280 N283 1.345 . S
C281 C279 1.400 1_545 S
C281 C280 1.387 . S
N282 Co273 2.022 . S
N282 C279 1.351 . S
N282 N283 1.363 1_565 S
N283 C280 1.345 . S
N283 N282 1.363 1_545 S
N283 H303 0.861 1_545 S
C284 C279 1.501 . S
C284 H285 0.961 . S
C284 H286 0.961 . S
C284 H287 0.960 1_556 S
H285 C284 0.961 . S
H286 C284 0.961 . S
H287 C284 0.960 1_554 S
C288 N289 1.342 . S
C288 C292 1.401 . S
C288 C293 1.499 . S
N289 Co272 1.989 . S
N289 C288 1.342 . S
N289 N290 1.388 . S
N290 Co273 1.993 . S
N290 N289 1.388 . S
N290 C291 1.346 . S
C291 N290 1.346 . S
C291 C292 1.396 . S
C291 C301 1.510 . S
C292 C288 1.401 . S
C292 C291 1.396 . S
C293 C288 1.499 . S
C293 H294 0.959 . S
C293 H295 0.960 . S
C293 H296 0.961 . S
H294 C293 0.959 . S
H295 C293 0.960 . S
H296 C293 0.961 . S
O297 Co272 1.967 . S
O297 C305 1.258 . S
O298 Co273 1.941 . S
O298 C305 1.266 . S
H299 C301 0.959 . S
H300 C301 0.961 . S
C301 C291 1.510 . S
C301 H299 0.959 . S
C301 H300 0.961 . S
C301 H302 0.960 . S
H302 C301 0.960 . S
H303 N283 0.861 1_565 S
O304 Co272 1.920 . S
O304 C277 1.289 . S
C305 O297 1.258 . S
C305 O298 1.266 . S
Co306 O309 1.970 . S
Co306 N323 1.989 . S
Co306 O331 1.967 . S
Co306 O338 1.920 . S
Co307 O310 1.966 . S
Co307 N316 2.022 . S
Co307 N324 1.993 . S
Co307 O332 1.941 . S
C308 O309 1.258 . S
C308 O310 1.263 . S
O309 Co306 1.970 . S
O309 C308 1.258 . S
O310 Co307 1.966 . S
O310 C308 1.263 . S
C311 O312 1.235 . S
C311 O338 1.289 . S
O312 C311 1.235 . S
C313 C315 1.400 . S
C313 N316 1.351 . S
C313 C318 1.501 . S
C314 C315 1.387 . S
C314 N317 1.341 . S
C315 C313 1.400 . S
C315 C314 1.387 . S
N316 Co307 2.022 . S
N316 C313 1.351 . S
N316 N317 1.365 . S
N317 C314 1.341 . S
N317 N316 1.365 . S
N317 H337 0.862 . S
C318 C313 1.501 . S
C318 H319 0.961 . S
C318 H320 0.961 . S
C318 H321 0.960 . S
H319 C318 0.961 . S
H320 C318 0.961 . S
H321 C318 0.960 . S
C322 N323 1.342 . S
C322 C326 1.401 . S
C322 C327 1.499 . S
N323 Co306 1.989 . S
N323 C322 1.342 . S
N323 N324 1.388 . S
N324 Co307 1.993 . S
N324 N323 1.388 . S
N324 C325 1.346 . S
C325 N324 1.346 . S
C325 C326 1.396 . S
C325 C335 1.510 . S
C326 C322 1.401 . S
C326 C325 1.396 . S
C327 C322 1.499 . S
C327 H328 0.959 . S
C327 H329 0.960 . S
C327 H330 0.961 . S
H328 C327 0.959 . S
H329 C327 0.960 . S
H330 C327 0.961 . S
O331 Co306 1.967 . S
O331 C339 1.258 . S
O332 Co307 1.941 . S
O332 C339 1.266 . S
H333 C335 0.959 . S
H334 C335 0.961 . S
C335 C325 1.510 . S
C335 H333 0.959 . S
C335 H334 0.961 . S
C335 H336 0.960 . S
H336 C335 0.960 . S
H337 N317 0.862 . S
O338 Co306 1.920 . S
O338 C311 1.289 . S
C339 O331 1.258 . S
C339 O332 1.266 . S
Co340 O343 1.970 . S
Co340 N357 1.989 1_455 S
Co340 O365 1.967 . S
Co340 O372 1.920 . S
Co341 O344 1.966 . S
Co341 N350 2.022 . S
Co341 N358 1.993 1_455 S
Co341 O366 1.941 . S
C342 O343 1.258 . S
C342 O344 1.263 . S
O343 Co340 1.970 . S
O343 C342 1.258 . S
O344 Co341 1.966 . S
O344 C342 1.263 . S
C345 O346 1.235 . S
C345 O372 1.289 1_655 S
O346 C345 1.235 . S
C347 C349 1.400 . S
C347 N350 1.351 . S
C347 C352 1.501 . S
C348 C349 1.387 . S
C348 N351 1.341 . S
C349 C347 1.400 . S
C349 C348 1.387 . S
N350 Co341 2.022 . S
N350 C347 1.351 . S
N350 N351 1.365 . S
N351 C348 1.341 . S
N351 N350 1.365 . S
N351 H371 0.862 . S
C352 C347 1.501 . S
C352 H353 0.961 . S
C352 H354 0.961 1_455 S
C352 H355 0.960 1_556 S
H353 C352 0.961 . S
H354 C352 0.961 1_655 S
H355 C352 0.960 1_554 S
C356 N357 1.342 . S
C356 C360 1.401 . S
C356 C361 1.499 . S
N357 Co340 1.989 1_655 S
N357 C356 1.342 . S
N357 N358 1.388 . S
N358 Co341 1.993 1_655 S
N358 N357 1.388 . S
N358 C359 1.346 . S
C359 N358 1.346 . S
C359 C360 1.396 . S
C359 C369 1.510 . S
C360 C356 1.401 . S
C360 C359 1.396 . S
C361 C356 1.499 . S
C361 H362 0.959 . S
C361 H363 0.960 . S
C361 H364 0.961 . S
H362 C361 0.959 . S
H363 C361 0.960 . S
H364 C361 0.961 . S
O365 Co340 1.967 . S
O365 C373 1.258 . S
O366 Co341 1.941 . S
O366 C373 1.266 . S
H367 C369 0.959 . S
H368 C369 0.961 . S
C369 C359 1.510 . S
C369 H367 0.959 . S
C369 H368 0.961 . S
C369 H370 0.960 . S
H370 C369 0.960 . S
H371 N351 0.862 . S
O372 Co340 1.920 . S
O372 C345 1.289 1_455 S
C373 O365 1.258 . S
C373 O366 1.266 . S
Co374 O377 1.970 . S
Co374 N391 1.989 1_545 S
Co374 O399 1.967 . S
Co374 O406 1.920 . S
Co375 O378 1.966 . S
Co375 N384 2.022 . S
Co375 N392 1.993 1_545 S
Co375 O400 1.941 . S
C376 O377 1.258 . S
C376 O378 1.263 . S
O377 Co374 1.970 . S
O377 C376 1.258 . S
O378 Co375 1.966 . S
O378 C376 1.263 . S
C379 O380 1.235 . S
C379 O406 1.289 1_565 S
O380 C379 1.235 . S
C381 C383 1.400 1_655 S
C381 N384 1.351 . S
C381 C386 1.501 . S
C382 C383 1.387 . S
C382 N385 1.345 . S
C383 C381 1.400 1_455 S
C383 C382 1.387 . S
N384 Co375 2.022 . S
N384 C381 1.351 . S
N384 N385 1.363 1_655 S
N385 C382 1.345 . S
N385 N384 1.363 1_455 S
N385 H405 0.861 1_455 S
C386 C381 1.501 . S
C386 H387 0.961 . S
C386 H388 0.961 1_545 S
C386 H389 0.960 . S
H387 C386 0.961 . S
H388 C386 0.961 1_565 S
H389 C386 0.960 . S
C390 N391 1.342 . S
C390 C394 1.401 . S
C390 C395 1.499 . S
N391 Co374 1.989 1_565 S
N391 C390 1.342 . S
N391 N392 1.388 . S
N392 Co375 1.993 1_565 S
N392 N391 1.388 . S
N392 C393 1.346 . S
C393 N392 1.346 . S
C393 C394 1.396 . S
C393 C403 1.510 . S
C394 C390 1.401 . S
C394 C393 1.396 . S
C395 C390 1.499 . S
C395 H396 0.959 . S
C395 H397 0.960 . S
C395 H398 0.961 . S
H396 C395 0.959 . S
H397 C395 0.960 . S
H398 C395 0.961 . S
O399 Co374 1.967 . S
O399 C407 1.258 . S
O400 Co375 1.941 . S
O400 C407 1.266 . S
H401 C403 0.959 . S
H402 C403 0.961 . S
C403 C393 1.510 . S
C403 H401 0.959 . S
C403 H402 0.961 . S
C403 H404 0.960 . S
H404 C403 0.960 . S
H405 N385 0.861 1_655 S
O406 Co374 1.920 . S
O406 C379 1.289 1_545 S
C407 O399 1.258 . S
C407 O400 1.266 . S
Co408 O411 1.970 . S
Co408 N425 1.989 . S
Co408 O433 1.967 . S
Co408 O440 1.920 . S
Co409 O412 1.966 . S
Co409 N418 2.022 . S
Co409 N426 1.993 . S
Co409 O434 1.941 . S
C410 O411 1.258 . S
C410 O412 1.263 . S
O411 Co408 1.970 . S
O411 C410 1.258 . S
O412 Co409 1.966 . S
O412 C410 1.263 . S
C413 O414 1.235 . S
C413 O440 1.289 . S
O414 C413 1.235 . S
C415 C417 1.400 . S
C415 N418 1.351 . S
C415 C420 1.501 . S
C416 C417 1.387 . S
C416 N419 1.341 . S
C417 C415 1.400 . S
C417 C416 1.387 . S
N418 Co409 2.022 . S
N418 C415 1.351 . S
N418 N419 1.365 . S
N419 C416 1.341 . S
N419 N418 1.365 . S
N419 H439 0.862 . S
C420 C415 1.501 . S
C420 H421 0.961 . S
C420 H422 0.961 . S
C420 H423 0.960 1_554 S
H421 C420 0.961 . S
H422 C420 0.961 . S
H423 C420 0.960 1_556 S
C424 N425 1.342 . S
C424 C428 1.401 . S
C424 C429 1.499 . S
N425 Co408 1.989 . S
N425 C424 1.342 . S
N425 N426 1.388 . S
N426 Co409 1.993 . S
N426 N425 1.388 . S
N426 C427 1.346 . S
C427 N426 1.346 . S
C427 C428 1.396 . S
C427 C437 1.510 . S
C428 C424 1.401 . S
C428 C427 1.396 . S
C429 C424 1.499 . S
C429 H430 0.959 . S
C429 H431 0.960 . S
C429 H432 0.961 . S
H430 C429 0.959 . S
H431 C429 0.960 . S
H432 C429 0.961 . S
O433 Co408 1.967 . S
O433 C441 1.258 . S
O434 Co409 1.941 . S
O434 C441 1.266 . S
H435 C437 0.959 . S
H436 C437 0.961 . S
C437 C427 1.510 . S
C437 H435 0.959 . S
C437 H436 0.961 . S
C437 H438 0.960 . S
H438 C437 0.960 . S
H439 N419 0.862 . S
O440 Co408 1.920 . S
O440 C413 1.289 . S
C441 O433 1.258 . S
C441 O434 1.266 . S
Co442 O445 1.970 . S
Co442 N459 1.989 . S
Co442 O467 1.967 . S
Co442 O474 1.920 . S
Co443 O446 1.966 . S
Co443 N452 2.022 . S
Co443 N460 1.993 . S
Co443 O468 1.941 . S
C444 O445 1.258 . S
C444 O446 1.263 . S
O445 Co442 1.970 . S
O445 C444 1.258 . S
O446 Co443 1.966 . S
O446 C444 1.263 . S
C447 O448 1.235 . S
C447 O474 1.289 . S
O448 C447 1.235 . S
C449 C451 1.400 1_655 S
C449 N452 1.351 . S
C449 C454 1.501 . S
C450 C451 1.387 . S
C450 N453 1.345 . S
C451 C449 1.400 1_455 S
C451 C450 1.387 . S
N452 Co443 2.022 . S
N452 C449 1.351 . S
N452 N453 1.363 1_655 S
N453 C450 1.345 . S
N453 N452 1.363 1_455 S
N453 H473 0.861 1_455 S
C454 C449 1.501 . S
C454 H455 0.961 . S
C454 H456 0.961 . S
C454 H457 0.960 . S
H455 C454 0.961 . S
H456 C454 0.961 . S
H457 C454 0.960 . S
C458 N459 1.342 . S
C458 C462 1.401 . S
C458 C463 1.499 . S
N459 Co442 1.989 . S
N459 C458 1.342 . S
N459 N460 1.388 . S
N460 Co443 1.993 . S
N460 N459 1.388 . S
N460 C461 1.346 . S
C461 N460 1.346 . S
C461 C462 1.396 . S
C461 C471 1.510 . S
C462 C458 1.401 . S
C462 C461 1.396 . S
C463 C458 1.499 . S
C463 H464 0.959 . S
C463 H465 0.960 . S
C463 H466 0.961 . S
H464 C463 0.959 . S
H465 C463 0.960 . S
H466 C463 0.961 . S
O467 Co442 1.967 . S
O467 C475 1.258 . S
O468 Co443 1.941 . S
O468 C475 1.266 . S
H469 C471 0.959 . S
H470 C471 0.961 . S
C471 C461 1.510 . S
C471 H469 0.959 . S
C471 H470 0.961 . S
C471 H472 0.960 . S
H472 C471 0.960 . S
H473 N453 0.861 1_655 S
O474 Co442 1.920 . S
O474 C447 1.289 . S
C475 O467 1.258 . S
C475 O468 1.266 . S
Co476 O479 1.970 . S
Co476 N493 1.989 1_455 S
Co476 O501 1.967 . S
Co476 O508 1.920 . S
Co477 O480 1.966 . S
Co477 N486 2.022 . S
Co477 N494 1.993 1_455 S
Co477 O502 1.941 . S
C478 O479 1.258 . S
C478 O480 1.263 . S
O479 Co476 1.970 . S
O479 C478 1.258 . S
O480 Co477 1.966 . S
O480 C478 1.263 . S
C481 O482 1.235 . S
C481 O508 1.289 1_655 S
O482 C481 1.235 . S
C483 C485 1.400 1_565 S
C483 N486 1.351 . S
C483 C488 1.501 . S
C484 C485 1.387 . S
C484 N487 1.345 . S
C485 C483 1.400 1_545 S
C485 C484 1.387 . S
N486 Co477 2.022 . S
N486 C483 1.351 . S
N486 N487 1.363 1_565 S
N487 C484 1.345 . S
N487 N486 1.363 1_545 S
N487 H507 0.861 1_545 S
C488 C483 1.501 . S
C488 H489 0.961 . S
C488 H490 0.961 1_455 S
C488 H491 0.960 1_554 S
H489 C488 0.961 . S
H490 C488 0.961 1_655 S
H491 C488 0.960 1_556 S
C492 N493 1.342 . S
C492 C496 1.401 . S
C492 C497 1.499 . S
N493 Co476 1.989 1_655 S
N493 C492 1.342 . S
N493 N494 1.388 . S
N494 Co477 1.993 1_655 S
N494 N493 1.388 . S
N494 C495 1.346 . S
C495 N494 1.346 . S
C495 C496 1.396 . S
C495 C505 1.510 . S
C496 C492 1.401 . S
C496 C495 1.396 . S
C497 C492 1.499 . S
C497 H498 0.959 . S
C497 H499 0.960 . S
C497 H500 0.961 . S
H498 C497 0.959 . S
H499 C497 0.960 . S
H500 C497 0.961 . S
O501 Co476 1.967 . S
O501 C509 1.258 . S
O502 Co477 1.941 . S
O502 C509 1.266 . S
H503 C505 0.959 . S
H504 C505 0.961 . S
C505 C495 1.510 . S
C505 H503 0.959 . S
C505 H504 0.961 . S
C505 H506 0.960 . S
H506 C505 0.960 . S
H507 N487 0.861 1_565 S
O508 Co476 1.920 . S
O508 C481 1.289 1_455 S
C509 O501 1.258 . S
C509 O502 1.266 . S
Co510 O513 1.970 . S
Co510 N527 1.989 1_545 S
Co510 O535 1.967 . S
Co510 O542 1.920 . S
Co511 O514 1.966 . S
Co511 N520 2.022 . S
Co511 N528 1.993 1_545 S
Co511 O536 1.941 . S
C512 O513 1.258 . S
C512 O514 1.263 . S
O513 Co510 1.970 . S
O513 C512 1.258 . S
O514 Co511 1.966 . S
O514 C512 1.263 . S
C515 O516 1.235 . S
C515 O542 1.289 1_565 S
O516 C515 1.235 . S
C517 C519 1.400 . S
C517 N520 1.351 . S
C517 C522 1.501 . S
C518 C519 1.387 . S
C518 N521 1.341 . S
C519 C517 1.400 . S
C519 C518 1.387 . S
N520 Co511 2.022 . S
N520 C517 1.351 . S
N520 N521 1.365 . S
N521 C518 1.341 . S
N521 N520 1.365 . S
N521 H541 0.862 . S
C522 C517 1.501 . S
C522 H523 0.961 . S
C522 H524 0.961 1_545 S
C522 H525 0.960 . S
H523 C522 0.961 . S
H524 C522 0.961 1_565 S
H525 C522 0.960 . S
C526 N527 1.342 . S
C526 C530 1.401 . S
C526 C531 1.499 . S
N527 Co510 1.989 1_565 S
N527 C526 1.342 . S
N527 N528 1.388 . S
N528 Co511 1.993 1_565 S
N528 N527 1.388 . S
N528 C529 1.346 . S
C529 N528 1.346 . S
C529 C530 1.396 . S
C529 C539 1.510 . S
C530 C526 1.401 . S
C530 C529 1.396 . S
C531 C526 1.499 . S
C531 H532 0.959 . S
C531 H533 0.960 . S
C531 H534 0.961 . S
H532 C531 0.959 . S
H533 C531 0.960 . S
H534 C531 0.961 . S
O535 Co510 1.967 . S
O535 C543 1.258 . S
O536 Co511 1.941 . S
O536 C543 1.266 . S
H537 C539 0.959 . S
H538 C539 0.961 . S
C539 C529 1.510 . S
C539 H537 0.959 . S
C539 H538 0.961 . S
C539 H540 0.960 . S
H540 C539 0.960 . S
H541 N521 0.862 . S
O542 Co510 1.920 . S
O542 C515 1.289 1_545 S
C543 O535 1.258 . S
C543 O536 1.266 . S
C2 C138 1.583 1_554 S
C172 C36 1.583 . S
C206 C70 1.583 1_556 S
C240 C104 1.583 . S
C274 C410 1.583 1_556 S
C308 C444 1.583 . S
C478 C342 1.583 1_554 S
C376 C512 1.583 . S
C413 C9 1.510 . S
C447 C43 1.510 . S
C77 C481 1.510 . S
C515 C111 1.510 . S
C277 C145 1.510 . S
C311 C179 1.510 . S
C213 C345 1.510 . S
C247 C379 1.510 . S
C141 C281 1.510 . S
C175 C315 1.510 . S
C209 C349 1.510 . S
C383 C243 1.510 . S
C5 C417 1.510 . S
C39 C451 1.510 . S
C485 C73 1.510 . S
C107 C519 1.510 . S
C101 C33 3.071 . S
C67 C135 3.072 . S
C237 C169 3.072 . S
C271 C203 3.071 . S
C373 C305 3.071 . S
C407 C339 3.072 . S
C441 C509 3.072 . S
C543 C475 3.071 . S
C258 C20 3.040 . S
C156 C54 3.040 . S
C190 C88 3.040 . S
C224 C122 3.040 . S
C530 C292 3.040 . S
C428 C326 3.040 . S
C462 C360 3.040 . S
C496 C394 3.040 . S
