# Generated by pormake.
# Topology wfe, (8)-cn, num edge types: 1
# Building blocks:
#     Node 0, Type 0, BuildingBlock: TAGTUT_clean_sbu_1, # of connection points: 8
#     Node 1, Type 0, BuildingBlock: TAGTUT_clean_sbu_1, # of connection points: 8
#     Node 2, Type 0, BuildingBlock: TAGTUT_clean_sbu_1, # of connection points: 8
#     Node 3, Type 0, BuildingBlock: TAGTUT_clean_sbu_1, # of connection points: 8
#     Node 4, Type 0, BuildingBlock: TAGTUT_clean_sbu_1, # of connection points: 8
#     Node 5, Type 0, BuildingBlock: TAGTUT_clean_sbu_1, # of connection points: 8
#     Node 6, Type 0, BuildingBlock: TAGTUT_clean_sbu_1, # of connection points: 8
#     Node 7, Type 0, BuildingBlock: TAGTUT_clean_sbu_1, # of connection points: 8
#     Edge 8, Type (0, 0), None
#     Edge 9, Type (0, 0), None
#     Edge 10, Type (0, 0), None
#     Edge 11, Type (0, 0), None
#     Edge 12, Type (0, 0), None
#     Edge 13, Type (0, 0), None
#     Edge 14, Type (0, 0), None
#     Edge 15, Type (0, 0), None
#     Edge 16, Type (0, 0), None
#     Edge 17, Type (0, 0), None
#     Edge 18, Type (0, 0), None
#     Edge 19, Type (0, 0), None
#     Edge 20, Type (0, 0), None
#     Edge 21, Type (0, 0), None
#     Edge 22, Type (0, 0), None
#     Edge 23, Type (0, 0), None
#     Edge 24, Type (0, 0), None
#     Edge 25, Type (0, 0), None
#     Edge 26, Type (0, 0), None
#     Edge 27, Type (0, 0), None
#     Edge 28, Type (0, 0), None
#     Edge 29, Type (0, 0), None
#     Edge 30, Type (0, 0), None
#     Edge 31, Type (0, 0), None
#     Edge 32, Type (0, 0), None
#     Edge 33, Type (0, 0), None
#     Edge 34, Type (0, 0), None
#     Edge 35, Type (0, 0), None
#     Edge 36, Type (0, 0), None
#     Edge 37, Type (0, 0), None
#     Edge 38, Type (0, 0), None
#     Edge 39, Type (0, 0), None
# Relax obj value: 0.316
# Max RMSD: 0.311
# Mean RMSD: 0.311
data_MOF--net-wfe--node1-TAGTUT_clean_sbu_1--edge1-none
_symmetry_space_group_name_H-M    P1
_symmetry_Int_Tables_number       1
_symmetry_cell_setting            triclinic
loop_
_symmetry_equiv_pos_as_xyz
'x, y, z'
_cell_length_a     20.277474
_cell_length_b     20.277894
_cell_length_c     12.319398
_cell_angle_alpha  89.998248
_cell_angle_beta   89.998942
_cell_angle_gamma 90.001211
loop_
_atom_site_label
_atom_site_type_symbol
_atom_site_fract_x
_atom_site_fract_y
_atom_site_fract_z
_atom_type_partial_charge
C0 C 0.48911 0.46512 0.05759 0.0
C1 C 0.36928 0.37342 0.17616 0.0
C2 C 0.63633 0.37656 0.4948 0.0
Mg3 Mg 0.46142 0.30931 0.07787 0.0
O4 O 0.4797 0.33159 0.23724 0.0
Mg5 Mg 0.51542 0.42546 0.30703 0.0
Mg6 Mg 0.53836 0.2689 0.31273 0.0
O7 O 0.58829 0.20994 0.39561 0.0
Mg8 Mg 0.6757 0.23317 0.43242 0.0
Mg9 Mg 0.59407 0.13439 0.2906 0.0
C10 C 0.54521 0.17199 0.05123 0.0
C11 C 0.43876 0.14785 0.36153 0.0
O12 O 0.48977 0.47964 0.15847 0.0
O13 O 0.48715 0.40651 1.01754 0.0
O14 O 0.42468 0.36317 0.22865 0.0
O15 O 0.35609 0.33209 0.10034 0.0
O16 O 0.51474 0.21754 0.99768 0.0
O17 O 0.54452 0.18234 0.15608 0.0
C18 C 0.60294 0.34795 0.15867 0.0
O19 O 0.62009 0.31279 0.23774 0.0
O20 O 0.58694 0.40673 0.17635 0.0
O21 O 0.62988 0.10165 0.46685 0.0
O22 O 0.68011 0.18268 0.55941 0.0
O23 O 0.67796 0.19271 0.20196 0.0
C24 C 0.65244 0.12788 0.5551 0.0
O25 O 0.74018 0.17783 0.33282 0.0
O26 O 0.67796 0.33043 0.49348 0.0
C27 C 0.73169 0.20677 0.24564 0.0
O28 O 0.57688 0.3655 0.4462 0.0
O29 O 0.44499 0.21064 0.37621 0.0
O30 O 0.48803 0.11216 0.33447 0.0
C31 C 0.51852 0.98909 0.55759 0.0
C32 C 0.61023 0.86924 0.67617 0.0
C33 C 0.60707 0.1363 0.99476 0.0
Mg34 Mg 0.67433 0.96139 0.57787 0.0
O35 O 0.65205 0.97967 0.73724 0.0
Mg36 Mg 0.55818 0.01536 0.80706 0.0
Mg37 Mg 0.71475 0.03834 0.81272 0.0
O38 O 0.77371 0.08827 0.89559 0.0
Mg39 Mg 0.75047 0.17567 0.93241 0.0
Mg40 Mg 0.84926 0.09405 0.79059 0.0
C41 C 0.81164 0.0452 0.55121 0.0
C42 C 0.8358 0.93874 0.86155 0.0
O43 O 0.504 0.98973 0.65847 0.0
O44 O 0.57713 0.98713 0.51754 0.0
O45 O 0.62049 0.92464 0.72867 0.0
O46 O 0.65156 0.85606 0.60034 0.0
O47 O 0.76608 0.01473 0.49767 0.0
O48 O 0.80131 0.0445 0.65607 0.0
C49 C 0.63568 0.10291 0.65869 0.0
O50 O 0.67089 0.12005 0.73769 0.0
O51 O 0.5769 0.08688 0.67638 0.0
O52 O 0.882 0.12987 0.96684 0.0
O53 O 0.80095 0.18008 0.05941 0.0
O54 O 0.79096 0.17796 0.70194 0.0
C55 C 0.85576 0.15242 0.05508 0.0
O56 O 0.80582 0.24016 0.83282 0.0
O57 O 0.65321 0.17793 0.99347 0.0
C58 C 0.77689 0.23167 0.74563 0.0
O59 O 0.61814 0.07684 0.94621 0.0
O60 O 0.773 0.94497 0.87622 0.0
O61 O 0.87149 0.98801 0.83447 0.0
C62 C -0.00545 0.01851 0.05758 0.0
C63 C 0.1144 0.11022 0.17615 0.0
C64 C 0.84732 0.10707 0.49473 0.0
Mg65 Mg 0.02224 0.17432 0.07785 0.0
O66 O 0.00397 0.15205 0.23723 0.0
Mg67 Mg 0.96827 0.05818 0.30705 0.0
Mg68 Mg 0.9453 0.21474 0.3127 0.0
O69 O 0.89536 0.2737 0.39556 0.0
Mg70 Mg 0.80796 0.25046 0.43238 0.0
Mg71 Mg 0.88962 0.34926 0.29057 0.0
C72 C 0.93844 0.31163 0.05119 0.0
C73 C 0.04491 0.33579 0.36155 0.0
O74 O -0.00609 0.004 0.15847 0.0
O75 O -0.00349 0.07712 1.01753 0.0
O76 O 0.059 0.12048 0.22865 0.0
O77 O 0.12758 0.15155 0.10031 0.0
O78 O 0.96889 0.26606 0.99765 0.0
O79 O 0.93916 0.30131 0.15605 0.0
C80 C 0.88073 0.13567 0.15867 0.0
O81 O 0.86358 0.17089 0.23767 0.0
O82 O 0.89675 0.0769 0.17638 0.0
O83 O 0.85378 0.38198 0.46683 0.0
O84 O 0.80359 0.30092 0.5594 0.0
O85 O 0.80571 0.29098 0.20192 0.0
C86 C 0.83124 0.35574 0.55508 0.0
O87 O 0.74344 0.30584 0.33288 0.0
O88 O 0.80568 0.15319 0.49341 0.0
C89 C 0.752 0.27697 0.24566 0.0
O90 O 0.90679 0.11814 0.4462 0.0
O91 O 0.03867 0.27299 0.37621 0.0
O92 O -0.00435 0.37148 0.33447 0.0
C93 C 0.96513 0.49455 0.55758 0.0
C94 C 0.8734 0.61439 0.67615 0.0
C95 C 0.87657 0.34731 0.99473 0.0
Mg96 Mg 0.80931 0.52224 0.57783 0.0
O97 O 0.83157 0.50396 0.73722 0.0
Mg98 Mg 0.92545 0.46827 0.80706 0.0
Mg99 Mg 0.76888 0.44528 0.81272 0.0
O100 O 0.70992 0.39533 0.8956 0.0
Mg101 Mg 0.73316 0.30791 0.93239 0.0
Mg102 Mg 0.63436 0.38958 0.7906 0.0
C103 C 0.67204 0.43843 0.55123 0.0
C104 C 0.64783 0.54488 0.86156 0.0
O105 O 0.97964 0.4939 0.65847 0.0
O106 O 0.90652 0.49651 0.51752 0.0
O107 O 0.86314 0.55899 0.72864 0.0
O108 O 0.83209 0.62757 0.6003 0.0
O109 O 0.71757 0.46889 0.49762 0.0
O110 O 0.68231 0.43915 0.6561 0.0
C111 C 0.84797 0.38072 0.65867 0.0
O112 O 0.81274 0.36357 0.73766 0.0
O113 O 0.90674 0.39675 0.67639 0.0
O114 O 0.60165 0.35374 0.96685 0.0
O115 O 0.68267 0.30349 0.0594 0.0
O116 O 0.69269 0.30571 0.70194 0.0
C117 C 0.62785 0.33111 0.05507 0.0
O118 O 0.67781 0.24339 0.83285 0.0
O119 O 0.83045 0.30566 0.9934 0.0
C120 C 0.70669 0.25199 0.74565 0.0
O121 O 0.86549 0.40677 0.9462 0.0
O122 O 0.71062 0.53864 0.87623 0.0
O123 O 0.61214 0.49561 0.83449 0.0
C124 C 0.33123 0.85571 0.48647 0.0
C125 C 0.25196 0.77686 0.79596 0.0
C126 C 0.43849 0.81177 0.99039 0.0
Mg127 Mg 0.30797 0.75043 0.60915 0.0
O128 O 0.39534 0.77361 0.646 0.0
Mg129 Mg 0.3895 0.84917 0.75109 0.0
Mg130 Mg 0.44525 0.71462 0.72894 0.0
O131 O 0.50396 0.65209 0.80463 0.0
Mg132 Mg 0.52235 0.67453 0.96395 0.0
Mg133 Mg 0.46843 0.55817 0.73489 0.0
C134 C 0.34748 0.60695 0.54702 0.0
C135 C 0.38065 0.63557 0.88291 0.0
O136 O 0.35383 0.88189 0.57473 0.0
O137 O 0.30348 0.80094 0.48214 0.0
O138 O 0.30562 0.79092 0.8398 0.0
O139 O 0.24355 0.80578 0.70876 0.0
O140 O 0.30588 0.65311 0.54846 0.0
O141 O 0.40706 0.61788 0.59524 0.0
C142 C 0.54484 0.83579 0.6804 0.0
O143 O 0.53864 0.773 0.6657 0.0
O144 O 0.49555 0.87145 0.70744 0.0
O145 O 0.49394 0.50424 0.88378 0.0
O146 O 0.4966 0.57741 0.02463 0.0
O147 O 0.55905 0.62057 0.81323 0.0
C148 C 0.49464 0.51879 0.98464 0.0
O149 O 0.62767 0.65166 0.94151 0.0
O150 O 0.4692 0.76643 0.04405 0.0
C151 C 0.61441 0.61029 0.86579 0.0
O152 O 0.43876 0.80102 0.88565 0.0
O153 O 0.36349 0.67062 0.80371 0.0
O154 O 0.39679 0.57681 0.86541 0.0
C155 C 0.12794 0.83123 0.98648 0.0
C156 C 0.20677 0.75196 0.29597 0.0
C157 C 0.17188 0.93848 0.49041 0.0
Mg158 Mg 0.23321 0.80798 0.10917 0.0
O159 O 0.21003 0.89535 0.14601 0.0
Mg160 Mg 0.13447 0.8895 0.25111 0.0
Mg161 Mg 0.26902 0.94526 0.22894 0.0
O162 O 0.33155 0.00397 0.30462 0.0
Mg163 Mg 0.30911 0.02235 0.46395 0.0
Mg164 Mg 0.42548 0.96847 0.23487 0.0
C165 C 0.3767 0.84749 0.04705 0.0
C166 C 0.34809 0.88066 0.38289 0.0
O167 O 0.10175 0.85382 0.07474 0.0
O168 O 0.18271 0.80349 0.98215 0.0
O169 O 0.1927 0.80561 0.33981 0.0
O170 O 0.17785 0.74356 0.20875 0.0
O171 O 0.33054 0.80589 0.04847 0.0
O172 O 0.36576 0.90708 0.09524 0.0
C173 C 0.14786 0.04484 0.18039 0.0
O174 O 0.21065 0.03863 0.16568 0.0
O175 O 0.11219 -0.00445 0.20744 0.0
O176 O 0.47941 -0.00605 0.38377 0.0
O177 O 0.40623 -0.0034 0.52463 0.0
O178 O 0.36306 0.05906 0.31321 0.0
C179 C 0.46485 -0.00535 0.48464 0.0
O180 O 0.33198 0.12768 0.44151 0.0
O181 O 0.21722 0.96919 0.54406 0.0
C182 C 0.37335 0.11442 0.36578 0.0
O183 O 0.18261 0.93877 0.38566 0.0
O184 O 0.31298 0.8635 0.30376 0.0
O185 O 0.40684 0.89683 0.36537 0.0
C186 C 0.1524 0.62794 0.48649 0.0
C187 C 0.23165 0.70667 0.79594 0.0
C188 C 0.04517 0.67188 0.99043 0.0
Mg189 Mg 0.17568 0.7332 0.60919 0.0
O190 O 0.08831 0.71002 0.64605 0.0
Mg191 Mg 0.09412 0.63445 0.75112 0.0
Mg192 Mg 0.03839 0.769 0.72896 0.0
O193 O 0.97967 0.83153 0.80464 0.0
Mg194 Mg 0.96129 0.80911 0.96397 0.0
Mg195 Mg 0.01518 0.92545 0.73487 0.0
C196 C 0.13617 0.87669 0.54707 0.0
C197 C 0.10298 0.84807 0.8829 0.0
O198 O 0.12981 0.60174 0.57475 0.0
O199 O 0.18012 0.68272 0.48216 0.0
O200 O 0.178 0.69266 0.83984 0.0
O201 O 0.24013 0.67782 0.70869 0.0
O202 O 0.17778 0.83054 0.54853 0.0
O203 O 0.07657 0.86574 0.59525 0.0
C204 C 0.93879 0.64785 0.68039 0.0
O205 O 0.945 0.71064 0.66569 0.0
O206 O 0.98808 0.61218 0.70744 0.0
O207 O 0.98969 0.97939 0.88378 0.0
O208 O 0.98704 0.90622 0.02464 0.0
O209 O 0.92458 0.86305 0.81323 0.0
C210 C 0.989 0.96484 0.98464 0.0
O211 O 0.85597 0.83197 0.94154 0.0
O212 O 0.01447 0.71722 0.04408 0.0
C213 C 0.86922 0.87333 0.8658 0.0
O214 O 0.04486 0.68259 0.88568 0.0
O215 O 0.12015 0.81297 0.80378 0.0
O216 O 0.08682 0.90682 0.86538 0.0
C217 C 0.35575 0.6525 0.9865 0.0
C218 C 0.27695 0.73165 0.29595 0.0
C219 C 0.31174 0.54516 0.49039 0.0
Mg220 Mg 0.25046 0.6757 0.10918 0.0
O221 O 0.27364 0.58832 0.14601 0.0
Mg222 Mg 0.34921 0.59414 0.2511 0.0
Mg223 Mg 0.21466 0.53839 0.22895 0.0
O224 O 0.15213 0.47967 0.30465 0.0
Mg225 Mg 0.17455 0.46128 0.46399 0.0
Mg226 Mg 0.05821 0.51516 0.23487 0.0
C227 C 0.10696 0.63617 0.04708 0.0
C228 C 0.13557 0.60297 0.38291 0.0
O229 O 0.38191 0.62984 0.07473 0.0
O230 O 0.30097 0.6802 0.98215 0.0
O231 O 0.29096 0.67799 0.33981 0.0
O232 O 0.30582 0.74015 0.20873 0.0
O233 O 0.15311 0.67778 0.04853 0.0
O234 O 0.11792 0.57657 0.09525 0.0
C235 C 0.33582 0.43881 0.18038 0.0
O236 O 0.27303 0.44501 0.16567 0.0
O237 O 0.37148 0.4881 0.20742 0.0
O238 O 0.00426 0.48968 0.38378 0.0
O239 O 0.07743 0.48703 0.52465 0.0
O240 O 0.12061 0.42457 0.31324 0.0
C241 C 0.0188 0.48898 0.48465 0.0
O242 O 0.15168 0.35596 0.44155 0.0
O243 O 0.26643 0.51445 0.54411 0.0
C244 C 0.11032 0.36921 0.3658 0.0
O245 O 0.30107 0.54485 0.38563 0.0
O246 O 0.17069 0.62014 0.3038 0.0
O247 O 0.07683 0.5868 0.36537 0.0
loop_
_geom_bond_atom_site_label_1
_geom_bond_atom_site_label_2
_geom_bond_distance
_geom_bond_site_symmetry_2
_ccdc_geom_bond_type
C0 O12 1.241 1_556 S
C0 O13 1.280 . S
C1 O14 1.277 . S
C1 O15 1.245 . S
C2 O26 1.247 . S
C2 O28 1.289 . S
Mg3 O4 1.926 . S
Mg3 O13 1.984 1_554 S
Mg3 O15 1.988 . S
Mg3 O16 2.061 1_554 S
O4 Mg3 1.926 . S
O4 Mg5 1.986 . S
O4 Mg6 1.917 . S
Mg5 O4 1.986 . S
Mg5 O12 2.042 . S
Mg5 O14 2.041 . S
Mg5 O20 2.038 . S
Mg5 O28 2.238 . S
Mg6 O4 1.917 . S
Mg6 O7 1.917 . S
Mg6 O17 2.106 . S
Mg6 O19 2.079 . S
Mg6 O28 2.106 . S
Mg6 O29 2.079 . S
O7 Mg6 1.917 . S
O7 Mg8 1.926 . S
O7 Mg9 1.986 . S
Mg8 O7 1.926 . S
Mg8 O22 1.984 . S
Mg8 O25 1.988 . S
Mg8 O26 2.061 . S
Mg9 O7 1.986 . S
Mg9 O17 2.238 . S
Mg9 O21 2.042 . S
Mg9 O23 2.041 . S
Mg9 O30 2.038 . S
C10 O16 1.247 1_554 S
C10 O17 1.289 . S
C11 O29 1.245 . S
C11 O30 1.274 . S
O12 C0 1.241 1_554 S
O12 Mg5 2.042 . S
O13 C0 1.280 . S
O13 Mg3 1.984 1_556 S
O14 C1 1.277 . S
O14 Mg5 2.041 . S
O15 C1 1.245 . S
O15 Mg3 1.988 . S
O16 Mg3 2.061 1_556 S
O16 C10 1.247 1_556 S
O17 Mg6 2.106 . S
O17 Mg9 2.238 . S
O17 C10 1.289 . S
C18 O19 1.245 . S
C18 O20 1.274 . S
O19 Mg6 2.079 . S
O19 C18 1.245 . S
O20 Mg5 2.038 . S
O20 C18 1.274 . S
O21 Mg9 2.042 . S
O21 C24 1.241 . S
O22 Mg8 1.984 . S
O22 C24 1.280 . S
O23 Mg9 2.041 . S
O23 C27 1.277 . S
C24 O21 1.241 . S
C24 O22 1.280 . S
O25 Mg8 1.988 . S
O25 C27 1.245 . S
O26 C2 1.247 . S
O26 Mg8 2.061 . S
C27 O23 1.277 . S
C27 O25 1.245 . S
O28 C2 1.289 . S
O28 Mg5 2.238 . S
O28 Mg6 2.106 . S
O29 Mg6 2.079 . S
O29 C11 1.245 . S
O30 Mg9 2.038 . S
O30 C11 1.274 . S
C31 O43 1.241 . S
C31 O44 1.280 . S
C32 O45 1.277 . S
C32 O46 1.245 . S
C33 O57 1.247 . S
C33 O59 1.289 . S
Mg34 O35 1.926 . S
Mg34 O44 1.984 . S
Mg34 O46 1.988 . S
Mg34 O47 2.061 . S
O35 Mg34 1.926 . S
O35 Mg36 1.986 1_565 S
O35 Mg37 1.917 1_565 S
Mg36 O35 1.986 1_545 S
Mg36 O43 2.042 1_545 S
Mg36 O45 2.041 1_545 S
Mg36 O51 2.038 . S
Mg36 O59 2.238 . S
Mg37 O35 1.917 1_545 S
Mg37 O38 1.917 . S
Mg37 O48 2.106 . S
Mg37 O50 2.079 . S
Mg37 O59 2.106 . S
Mg37 O60 2.079 1_545 S
O38 Mg37 1.917 . S
O38 Mg39 1.926 . S
O38 Mg40 1.986 . S
Mg39 O38 1.926 . S
Mg39 O53 1.984 . S
Mg39 O56 1.988 . S
Mg39 O57 2.061 . S
Mg40 O38 1.986 . S
Mg40 O48 2.238 . S
Mg40 O52 2.042 . S
Mg40 O54 2.041 . S
Mg40 O61 2.038 . S
C41 O47 1.247 1_545 S
C41 O48 1.289 . S
C42 O60 1.245 . S
C42 O61 1.274 1_565 S
O43 C31 1.241 . S
O43 Mg36 2.042 1_565 S
O44 C31 1.280 . S
O44 Mg34 1.984 . S
O45 C32 1.277 . S
O45 Mg36 2.041 1_565 S
O46 C32 1.245 . S
O46 Mg34 1.988 . S
O47 Mg34 2.061 . S
O47 C41 1.247 1_565 S
O48 Mg37 2.106 . S
O48 Mg40 2.238 . S
O48 C41 1.289 . S
C49 O50 1.245 . S
C49 O51 1.274 . S
O50 Mg37 2.079 . S
O50 C49 1.245 . S
O51 Mg36 2.038 . S
O51 C49 1.274 . S
O52 Mg40 2.042 . S
O52 C55 1.241 . S
O53 Mg39 1.984 . S
O53 C55 1.280 . S
O54 Mg40 2.041 . S
O54 C58 1.277 . S
C55 O52 1.241 . S
C55 O53 1.280 . S
O56 Mg39 1.988 . S
O56 C58 1.245 . S
O57 C33 1.247 . S
O57 Mg39 2.061 . S
C58 O54 1.277 . S
C58 O56 1.245 . S
O59 C33 1.289 . S
O59 Mg36 2.238 . S
O59 Mg37 2.106 . S
O60 Mg37 2.079 1_565 S
O60 C42 1.245 . S
O61 Mg40 2.038 . S
O61 C42 1.274 1_545 S
C62 O74 1.241 1_556 S
C62 O75 1.280 . S
C63 O76 1.277 . S
C63 O77 1.245 . S
C64 O88 1.247 . S
C64 O90 1.289 . S
Mg65 O66 1.926 . S
Mg65 O75 1.984 1_554 S
Mg65 O77 1.988 . S
Mg65 O78 2.061 1_554 S
O66 Mg65 1.926 . S
O66 Mg67 1.986 1_455 S
O66 Mg68 1.917 1_455 S
Mg67 O66 1.986 1_655 S
Mg67 O74 2.042 1_655 S
Mg67 O76 2.041 1_655 S
Mg67 O82 2.038 . S
Mg67 O90 2.238 . S
Mg68 O66 1.917 1_655 S
Mg68 O69 1.917 . S
Mg68 O79 2.106 . S
Mg68 O81 2.079 . S
Mg68 O90 2.106 . S
Mg68 O91 2.079 1_655 S
O69 Mg68 1.917 . S
O69 Mg70 1.926 . S
O69 Mg71 1.986 . S
Mg70 O69 1.926 . S
Mg70 O84 1.984 . S
Mg70 O87 1.988 . S
Mg70 O88 2.061 . S
Mg71 O69 1.986 . S
Mg71 O79 2.238 . S
Mg71 O83 2.042 . S
Mg71 O85 2.041 . S
Mg71 O92 2.038 . S
C72 O78 1.247 1_654 S
C72 O79 1.289 . S
C73 O91 1.245 . S
C73 O92 1.274 1_455 S
O74 C62 1.241 1_554 S
O74 Mg67 2.042 1_455 S
O75 C62 1.280 . S
O75 Mg65 1.984 1_556 S
O76 C63 1.277 . S
O76 Mg67 2.041 1_455 S
O77 C63 1.245 . S
O77 Mg65 1.988 . S
O78 Mg65 2.061 1_556 S
O78 C72 1.247 1_456 S
O79 Mg68 2.106 . S
O79 Mg71 2.238 . S
O79 C72 1.289 . S
C80 O81 1.245 . S
C80 O82 1.274 . S
O81 Mg68 2.079 . S
O81 C80 1.245 . S
O82 Mg67 2.038 . S
O82 C80 1.274 . S
O83 Mg71 2.042 . S
O83 C86 1.241 . S
O84 Mg70 1.984 . S
O84 C86 1.280 . S
O85 Mg71 2.041 . S
O85 C89 1.277 . S
C86 O83 1.241 . S
C86 O84 1.280 . S
O87 Mg70 1.988 . S
O87 C89 1.245 . S
O88 C64 1.247 . S
O88 Mg70 2.061 . S
C89 O85 1.277 . S
C89 O87 1.245 . S
O90 C64 1.289 . S
O90 Mg67 2.238 . S
O90 Mg68 2.106 . S
O91 Mg68 2.079 1_455 S
O91 C73 1.245 . S
O92 Mg71 2.038 . S
O92 C73 1.274 1_655 S
C93 O105 1.241 . S
C93 O106 1.280 . S
C94 O107 1.277 . S
C94 O108 1.245 . S
C95 O119 1.247 . S
C95 O121 1.289 . S
Mg96 O97 1.926 . S
Mg96 O106 1.984 . S
Mg96 O108 1.988 . S
Mg96 O109 2.061 . S
O97 Mg96 1.926 . S
O97 Mg98 1.986 . S
O97 Mg99 1.917 . S
Mg98 O97 1.986 . S
Mg98 O105 2.042 . S
Mg98 O107 2.041 . S
Mg98 O113 2.038 . S
Mg98 O121 2.238 . S
Mg99 O97 1.917 . S
Mg99 O100 1.917 . S
Mg99 O110 2.106 . S
Mg99 O112 2.079 . S
Mg99 O121 2.106 . S
Mg99 O122 2.079 . S
O100 Mg99 1.917 . S
O100 Mg101 1.926 . S
O100 Mg102 1.986 . S
Mg101 O100 1.926 . S
Mg101 O115 1.984 . S
Mg101 O118 1.988 . S
Mg101 O119 2.061 . S
Mg102 O100 1.986 . S
Mg102 O110 2.238 . S
Mg102 O114 2.042 . S
Mg102 O116 2.041 . S
Mg102 O123 2.038 . S
C103 O109 1.247 . S
C103 O110 1.289 . S
C104 O122 1.245 . S
C104 O123 1.274 . S
O105 C93 1.241 . S
O105 Mg98 2.042 . S
O106 C93 1.280 . S
O106 Mg96 1.984 . S
O107 C94 1.277 . S
O107 Mg98 2.041 . S
O108 C94 1.245 . S
O108 Mg96 1.988 . S
O109 Mg96 2.061 . S
O109 C103 1.247 . S
O110 Mg99 2.106 . S
O110 Mg102 2.238 . S
O110 C103 1.289 . S
C111 O112 1.245 . S
C111 O113 1.274 . S
O112 Mg99 2.079 . S
O112 C111 1.245 . S
O113 Mg98 2.038 . S
O113 C111 1.274 . S
O114 Mg102 2.042 . S
O114 C117 1.241 . S
O115 Mg101 1.984 . S
O115 C117 1.280 . S
O116 Mg102 2.041 . S
O116 C120 1.277 . S
C117 O114 1.241 . S
C117 O115 1.280 . S
O118 Mg101 1.988 . S
O118 C120 1.245 . S
O119 C95 1.247 . S
O119 Mg101 2.061 . S
C120 O116 1.277 . S
C120 O118 1.245 . S
O121 C95 1.289 . S
O121 Mg98 2.238 . S
O121 Mg99 2.106 . S
O122 Mg99 2.079 . S
O122 C104 1.245 . S
O123 Mg102 2.038 . S
O123 C104 1.274 . S
C124 O136 1.241 . S
C124 O137 1.280 . S
C125 O138 1.277 . S
C125 O139 1.245 . S
C126 O150 1.247 1_556 S
C126 O152 1.289 . S
Mg127 O128 1.926 . S
Mg127 O137 1.984 . S
Mg127 O139 1.988 . S
Mg127 O140 2.061 . S
O128 Mg127 1.926 . S
O128 Mg129 1.986 . S
O128 Mg130 1.917 . S
Mg129 O128 1.986 . S
Mg129 O136 2.042 . S
Mg129 O138 2.041 . S
Mg129 O144 2.038 . S
Mg129 O152 2.238 . S
Mg130 O128 1.917 . S
Mg130 O131 1.917 . S
Mg130 O141 2.106 . S
Mg130 O143 2.079 . S
Mg130 O152 2.106 . S
Mg130 O153 2.079 . S
O131 Mg130 1.917 . S
O131 Mg132 1.926 . S
O131 Mg133 1.986 . S
Mg132 O131 1.926 . S
Mg132 O146 1.984 1_556 S
Mg132 O149 1.988 . S
Mg132 O150 2.061 1_556 S
Mg133 O131 1.986 . S
Mg133 O141 2.238 . S
Mg133 O145 2.042 . S
Mg133 O147 2.041 . S
Mg133 O154 2.038 . S
C134 O140 1.247 . S
C134 O141 1.289 . S
C135 O153 1.245 . S
C135 O154 1.274 . S
O136 C124 1.241 . S
O136 Mg129 2.042 . S
O137 C124 1.280 . S
O137 Mg127 1.984 . S
O138 C125 1.277 . S
O138 Mg129 2.041 . S
O139 C125 1.245 . S
O139 Mg127 1.988 . S
O140 Mg127 2.061 . S
O140 C134 1.247 . S
O141 Mg130 2.106 . S
O141 Mg133 2.238 . S
O141 C134 1.289 . S
C142 O143 1.245 . S
C142 O144 1.274 . S
O143 Mg130 2.079 . S
O143 C142 1.245 . S
O144 Mg129 2.038 . S
O144 C142 1.274 . S
O145 Mg133 2.042 . S
O145 C148 1.241 1_556 S
O146 Mg132 1.984 1_554 S
O146 C148 1.280 . S
O147 Mg133 2.041 . S
O147 C151 1.277 . S
C148 O145 1.241 1_554 S
C148 O146 1.280 . S
O149 Mg132 1.988 . S
O149 C151 1.245 . S
O150 C126 1.247 1_554 S
O150 Mg132 2.061 1_554 S
C151 O147 1.277 . S
C151 O149 1.245 . S
O152 C126 1.289 . S
O152 Mg129 2.238 . S
O152 Mg130 2.106 . S
O153 Mg130 2.079 . S
O153 C135 1.245 . S
O154 Mg133 2.038 . S
O154 C135 1.274 . S
C155 O167 1.241 . S
C155 O168 1.280 . S
C156 O169 1.277 . S
C156 O170 1.245 . S
C157 O181 1.247 1_565 S
C157 O183 1.289 . S
Mg158 O159 1.926 . S
Mg158 O168 1.984 . S
Mg158 O170 1.988 . S
Mg158 O171 2.061 . S
O159 Mg158 1.926 . S
O159 Mg160 1.986 . S
O159 Mg161 1.917 . S
Mg160 O159 1.986 . S
Mg160 O167 2.042 . S
Mg160 O169 2.041 . S
Mg160 O175 2.038 . S
Mg160 O183 2.238 . S
Mg161 O159 1.917 . S
Mg161 O162 1.917 1_565 S
Mg161 O172 2.106 . S
Mg161 O174 2.079 1_565 S
Mg161 O183 2.106 . S
Mg161 O184 2.079 . S
O162 Mg161 1.917 1_545 S
O162 Mg163 1.926 . S
O162 Mg164 1.986 1_545 S
Mg163 O162 1.926 . S
Mg163 O177 1.984 . S
Mg163 O180 1.988 . S
Mg163 O181 2.061 . S
Mg164 O162 1.986 1_565 S
Mg164 O172 2.238 . S
Mg164 O176 2.042 1_565 S
Mg164 O178 2.041 1_565 S
Mg164 O185 2.038 . S
C165 O171 1.247 . S
C165 O172 1.289 . S
C166 O184 1.245 . S
C166 O185 1.274 . S
O167 C155 1.241 . S
O167 Mg160 2.042 . S
O168 C155 1.280 . S
O168 Mg158 1.984 . S
O169 C156 1.277 . S
O169 Mg160 2.041 . S
O170 C156 1.245 . S
O170 Mg158 1.988 . S
O171 Mg158 2.061 . S
O171 C165 1.247 . S
O172 Mg161 2.106 . S
O172 Mg164 2.238 . S
O172 C165 1.289 . S
C173 O174 1.245 . S
C173 O175 1.274 1_545 S
O174 Mg161 2.079 1_545 S
O174 C173 1.245 . S
O175 Mg160 2.038 . S
O175 C173 1.274 1_565 S
O176 Mg164 2.042 1_545 S
O176 C179 1.241 . S
O177 Mg163 1.984 . S
O177 C179 1.280 . S
O178 Mg164 2.041 1_545 S
O178 C182 1.277 . S
C179 O176 1.241 . S
C179 O177 1.280 . S
O180 Mg163 1.988 . S
O180 C182 1.245 . S
O181 C157 1.247 1_545 S
O181 Mg163 2.061 . S
C182 O178 1.277 . S
C182 O180 1.245 . S
O183 C157 1.289 . S
O183 Mg160 2.238 . S
O183 Mg161 2.106 . S
O184 Mg161 2.079 . S
O184 C166 1.245 . S
O185 Mg164 2.038 . S
O185 C166 1.274 . S
C186 O198 1.241 . S
C186 O199 1.280 . S
C187 O200 1.277 . S
C187 O201 1.245 . S
C188 O212 1.247 1_456 S
C188 O214 1.289 . S
Mg189 O190 1.926 . S
Mg189 O199 1.984 . S
Mg189 O201 1.988 . S
Mg189 O202 2.061 . S
O190 Mg189 1.926 . S
O190 Mg191 1.986 . S
O190 Mg192 1.917 . S
Mg191 O190 1.986 . S
Mg191 O198 2.042 . S
Mg191 O200 2.041 . S
Mg191 O206 2.038 . S
Mg191 O214 2.238 . S
Mg192 O190 1.917 . S
Mg192 O193 1.917 1_455 S
Mg192 O203 2.106 . S
Mg192 O205 2.079 1_455 S
Mg192 O214 2.106 . S
Mg192 O215 2.079 . S
O193 Mg192 1.917 1_655 S
O193 Mg194 1.926 . S
O193 Mg195 1.986 1_655 S
Mg194 O193 1.926 . S
Mg194 O208 1.984 1_556 S
Mg194 O211 1.988 . S
Mg194 O212 2.061 1_556 S
Mg195 O193 1.986 1_455 S
Mg195 O203 2.238 . S
Mg195 O207 2.042 1_455 S
Mg195 O209 2.041 1_455 S
Mg195 O216 2.038 . S
C196 O202 1.247 . S
C196 O203 1.289 . S
C197 O215 1.245 . S
C197 O216 1.274 . S
O198 C186 1.241 . S
O198 Mg191 2.042 . S
O199 C186 1.280 . S
O199 Mg189 1.984 . S
O200 C187 1.277 . S
O200 Mg191 2.041 . S
O201 C187 1.245 . S
O201 Mg189 1.988 . S
O202 Mg189 2.061 . S
O202 C196 1.247 . S
O203 Mg192 2.106 . S
O203 Mg195 2.238 . S
O203 C196 1.289 . S
C204 O205 1.245 . S
C204 O206 1.274 1_655 S
O205 Mg192 2.079 1_655 S
O205 C204 1.245 . S
O206 Mg191 2.038 . S
O206 C204 1.274 1_455 S
O207 Mg195 2.042 1_655 S
O207 C210 1.241 1_556 S
O208 Mg194 1.984 1_554 S
O208 C210 1.280 . S
O209 Mg195 2.041 1_655 S
O209 C213 1.277 . S
C210 O207 1.241 1_554 S
C210 O208 1.280 . S
O211 Mg194 1.988 . S
O211 C213 1.245 . S
O212 C188 1.247 1_654 S
O212 Mg194 2.061 1_554 S
C213 O209 1.277 . S
C213 O211 1.245 . S
O214 C188 1.289 . S
O214 Mg191 2.238 . S
O214 Mg192 2.106 . S
O215 Mg192 2.079 . S
O215 C197 1.245 . S
O216 Mg195 2.038 . S
O216 C197 1.274 . S
C217 O229 1.241 . S
C217 O230 1.280 . S
C218 O231 1.277 . S
C218 O232 1.245 . S
C219 O243 1.247 . S
C219 O245 1.289 . S
Mg220 O221 1.926 . S
Mg220 O230 1.984 . S
Mg220 O232 1.988 . S
Mg220 O233 2.061 . S
O221 Mg220 1.926 . S
O221 Mg222 1.986 . S
O221 Mg223 1.917 . S
Mg222 O221 1.986 . S
Mg222 O229 2.042 . S
Mg222 O231 2.041 . S
Mg222 O237 2.038 . S
Mg222 O245 2.238 . S
Mg223 O221 1.917 . S
Mg223 O224 1.917 . S
Mg223 O234 2.106 . S
Mg223 O236 2.079 . S
Mg223 O245 2.106 . S
Mg223 O246 2.079 . S
O224 Mg223 1.917 . S
O224 Mg225 1.926 . S
O224 Mg226 1.986 . S
Mg225 O224 1.926 . S
Mg225 O239 1.984 . S
Mg225 O242 1.988 . S
Mg225 O243 2.061 . S
Mg226 O224 1.986 . S
Mg226 O234 2.238 . S
Mg226 O238 2.042 . S
Mg226 O240 2.041 . S
Mg226 O247 2.038 . S
C227 O233 1.247 . S
C227 O234 1.289 . S
C228 O246 1.245 . S
C228 O247 1.274 . S
O229 C217 1.241 . S
O229 Mg222 2.042 . S
O230 C217 1.280 . S
O230 Mg220 1.984 . S
O231 C218 1.277 . S
O231 Mg222 2.041 . S
O232 C218 1.245 . S
O232 Mg220 1.988 . S
O233 Mg220 2.061 . S
O233 C227 1.247 . S
O234 Mg223 2.106 . S
O234 Mg226 2.238 . S
O234 C227 1.289 . S
C235 O236 1.245 . S
C235 O237 1.274 . S
O236 Mg223 2.079 . S
O236 C235 1.245 . S
O237 Mg222 2.038 . S
O237 C235 1.274 . S
O238 Mg226 2.042 . S
O238 C241 1.241 . S
O239 Mg225 1.984 . S
O239 C241 1.280 . S
O240 Mg226 2.041 . S
O240 C244 1.277 . S
C241 O238 1.241 . S
C241 O239 1.280 . S
O242 Mg225 1.988 . S
O242 C244 1.245 . S
O243 C219 1.247 . S
O243 Mg225 2.061 . S
C244 O240 1.277 . S
C244 O242 1.245 . S
O245 C219 1.289 . S
O245 Mg222 2.238 . S
O245 Mg223 2.106 . S
O246 Mg223 2.079 . S
O246 C228 1.245 . S
O247 Mg226 2.038 . S
O247 C228 1.274 . S
C24 C49 2.348 . S
C55 C80 2.348 1_556 S
C86 C111 2.349 . S
C18 C117 2.348 1_554 S
C124 C166 2.348 . S
C155 C197 2.348 1_554 S
C186 C228 2.349 . S
C217 C135 2.348 1_554 S
C0 C148 2.716 1_556 S
C31 C179 2.716 1_565 S
C62 C210 2.716 1_446 S
C93 C241 2.716 1_655 S
C27 C89 2.537 . S
C120 C58 2.536 . S
C125 C187 2.537 . S
C156 C218 2.536 . S
C10 C33 3.547 1_554 S
C41 C64 3.547 . S
C95 C72 3.547 1_556 S
C103 C2 3.547 . S
C126 C165 3.547 1_556 S
C196 C157 3.547 . S
C227 C188 3.547 1_554 S
C134 C219 3.547 . S
C11 C182 1.831 . S
C42 C213 1.830 . S
C244 C73 1.831 . S
C151 C104 1.831 . S
C32 C142 1.831 . S
C173 C63 1.830 . S
C204 C94 1.831 . S
C1 C235 1.831 . S
