# Generated by pormake.
# Topology whz, (6)-cn, num edge types: 1
# Building blocks:
#     Node 0, Type 0, BuildingBlock: OJICUG_clean_sbu_0, # of connection points: 6
#     Node 1, Type 0, BuildingBlock: OJICUG_clean_sbu_0, # of connection points: 6
#     Node 2, Type 0, BuildingBlock: OJICUG_clean_sbu_0, # of connection points: 6
#     Node 3, Type 0, BuildingBlock: OJICUG_clean_sbu_0, # of connection points: 6
#     Node 4, Type 0, BuildingBlock: OJICUG_clean_sbu_0, # of connection points: 6
#     Node 5, Type 0, BuildingBlock: OJICUG_clean_sbu_0, # of connection points: 6
#     Node 6, Type 0, BuildingBlock: OJICUG_clean_sbu_0, # of connection points: 6
#     Node 7, Type 0, BuildingBlock: OJICUG_clean_sbu_0, # of connection points: 6
#     Node 8, Type 0, BuildingBlock: OJICUG_clean_sbu_0, # of connection points: 6
#     Node 9, Type 0, BuildingBlock: OJICUG_clean_sbu_0, # of connection points: 6
#     Node 10, Type 0, BuildingBlock: OJICUG_clean_sbu_0, # of connection points: 6
#     Node 11, Type 0, BuildingBlock: OJICUG_clean_sbu_0, # of connection points: 6
#     Node 12, Type 0, BuildingBlock: OJICUG_clean_sbu_0, # of connection points: 6
#     Node 13, Type 0, BuildingBlock: OJICUG_clean_sbu_0, # of connection points: 6
#     Node 14, Type 0, BuildingBlock: OJICUG_clean_sbu_0, # of connection points: 6
#     Node 15, Type 0, BuildingBlock: OJICUG_clean_sbu_0, # of connection points: 6
#     Edge 16, Type (0, 0), BuildingBlock: TEMPAE_clean_linker_10, # of connection points: 2
#     Edge 17, Type (0, 0), BuildingBlock: TEMPAE_clean_linker_10, # of connection points: 2
#     Edge 18, Type (0, 0), BuildingBlock: TEMPAE_clean_linker_10, # of connection points: 2
#     Edge 19, Type (0, 0), BuildingBlock: TEMPAE_clean_linker_10, # of connection points: 2
#     Edge 20, Type (0, 0), BuildingBlock: TEMPAE_clean_linker_10, # of connection points: 2
#     Edge 21, Type (0, 0), BuildingBlock: TEMPAE_clean_linker_10, # of connection points: 2
#     Edge 22, Type (0, 0), BuildingBlock: TEMPAE_clean_linker_10, # of connection points: 2
#     Edge 23, Type (0, 0), BuildingBlock: TEMPAE_clean_linker_10, # of connection points: 2
#     Edge 24, Type (0, 0), BuildingBlock: TEMPAE_clean_linker_10, # of connection points: 2
#     Edge 25, Type (0, 0), BuildingBlock: TEMPAE_clean_linker_10, # of connection points: 2
#     Edge 26, Type (0, 0), BuildingBlock: TEMPAE_clean_linker_10, # of connection points: 2
#     Edge 27, Type (0, 0), BuildingBlock: TEMPAE_clean_linker_10, # of connection points: 2
#     Edge 28, Type (0, 0), BuildingBlock: TEMPAE_clean_linker_10, # of connection points: 2
#     Edge 29, Type (0, 0), BuildingBlock: TEMPAE_clean_linker_10, # of connection points: 2
#     Edge 30, Type (0, 0), BuildingBlock: TEMPAE_clean_linker_10, # of connection points: 2
#     Edge 31, Type (0, 0), BuildingBlock: TEMPAE_clean_linker_10, # of connection points: 2
#     Edge 32, Type (0, 0), BuildingBlock: TEMPAE_clean_linker_10, # of connection points: 2
#     Edge 33, Type (0, 0), BuildingBlock: TEMPAE_clean_linker_10, # of connection points: 2
#     Edge 34, Type (0, 0), BuildingBlock: TEMPAE_clean_linker_10, # of connection points: 2
#     Edge 35, Type (0, 0), BuildingBlock: TEMPAE_clean_linker_10, # of connection points: 2
#     Edge 36, Type (0, 0), BuildingBlock: TEMPAE_clean_linker_10, # of connection points: 2
#     Edge 37, Type (0, 0), BuildingBlock: TEMPAE_clean_linker_10, # of connection points: 2
#     Edge 38, Type (0, 0), BuildingBlock: TEMPAE_clean_linker_10, # of connection points: 2
#     Edge 39, Type (0, 0), BuildingBlock: TEMPAE_clean_linker_10, # of connection points: 2
#     Edge 40, Type (0, 0), BuildingBlock: TEMPAE_clean_linker_10, # of connection points: 2
#     Edge 41, Type (0, 0), BuildingBlock: TEMPAE_clean_linker_10, # of connection points: 2
#     Edge 42, Type (0, 0), BuildingBlock: TEMPAE_clean_linker_10, # of connection points: 2
#     Edge 43, Type (0, 0), BuildingBlock: TEMPAE_clean_linker_10, # of connection points: 2
#     Edge 44, Type (0, 0), BuildingBlock: TEMPAE_clean_linker_10, # of connection points: 2
#     Edge 45, Type (0, 0), BuildingBlock: TEMPAE_clean_linker_10, # of connection points: 2
#     Edge 46, Type (0, 0), BuildingBlock: TEMPAE_clean_linker_10, # of connection points: 2
#     Edge 47, Type (0, 0), BuildingBlock: TEMPAE_clean_linker_10, # of connection points: 2
#     Edge 48, Type (0, 0), BuildingBlock: TEMPAE_clean_linker_10, # of connection points: 2
#     Edge 49, Type (0, 0), BuildingBlock: TEMPAE_clean_linker_10, # of connection points: 2
#     Edge 50, Type (0, 0), BuildingBlock: TEMPAE_clean_linker_10, # of connection points: 2
#     Edge 51, Type (0, 0), BuildingBlock: TEMPAE_clean_linker_10, # of connection points: 2
#     Edge 52, Type (0, 0), BuildingBlock: TEMPAE_clean_linker_10, # of connection points: 2
#     Edge 53, Type (0, 0), BuildingBlock: TEMPAE_clean_linker_10, # of connection points: 2
#     Edge 54, Type (0, 0), BuildingBlock: TEMPAE_clean_linker_10, # of connection points: 2
#     Edge 55, Type (0, 0), BuildingBlock: TEMPAE_clean_linker_10, # of connection points: 2
#     Edge 56, Type (0, 0), BuildingBlock: TEMPAE_clean_linker_10, # of connection points: 2
#     Edge 57, Type (0, 0), BuildingBlock: TEMPAE_clean_linker_10, # of connection points: 2
#     Edge 58, Type (0, 0), BuildingBlock: TEMPAE_clean_linker_10, # of connection points: 2
#     Edge 59, Type (0, 0), BuildingBlock: TEMPAE_clean_linker_10, # of connection points: 2
#     Edge 60, Type (0, 0), BuildingBlock: TEMPAE_clean_linker_10, # of connection points: 2
#     Edge 61, Type (0, 0), BuildingBlock: TEMPAE_clean_linker_10, # of connection points: 2
#     Edge 62, Type (0, 0), BuildingBlock: TEMPAE_clean_linker_10, # of connection points: 2
#     Edge 63, Type (0, 0), BuildingBlock: TEMPAE_clean_linker_10, # of connection points: 2
# Relax obj value: 0.452
# Max RMSD: 0.271
# Mean RMSD: 0.271
data_MOF--net-whz--node1-OJICUG_clean_sbu_0--edge1-TEMPAE_clean_linker_10
_symmetry_space_group_name_H-M    P1
_symmetry_Int_Tables_number       1
_symmetry_cell_setting            triclinic
loop_
_symmetry_equiv_pos_as_xyz
'x, y, z'
_cell_length_a     33.898449
_cell_length_b     33.903464
_cell_length_c     55.391995
_cell_angle_alpha  90.015253
_cell_angle_beta   90.004378
_cell_angle_gamma 90.021526
loop_
_atom_site_label
_atom_site_type_symbol
_atom_site_fract_x
_atom_site_fract_y
_atom_site_fract_z
_atom_type_partial_charge
Sc0 Sc 0.34465 0.18705 0.13111 0.0
Sc1 Sc 0.24791 0.16554 0.11522 0.0
Sc2 Sc 0.32345 0.09892 0.09971 0.0
O3 O 0.30538 0.15034 0.11525 0.0
C4 C 0.39368 0.15618 0.08588 0.0
C5 C 0.28971 0.24991 0.10797 0.0
C6 C 0.26205 0.13497 0.06179 0.0
C7 C 0.27121 0.19267 0.16731 0.0
C8 C 0.37016 0.10206 0.1499 0.0
C9 C 0.24136 0.07166 0.12091 0.0
O10 O 0.38834 0.17816 0.10406 0.0
O11 O 0.26027 0.22705 0.11033 0.0
O12 O 0.28803 0.10962 0.06781 0.0
O13 O 0.30574 0.20147 0.16025 0.0
O14 O 0.35922 0.08372 0.13092 0.0
O15 O 0.22714 0.10627 0.12015 0.0
O16 O 0.36626 0.13914 0.15246 0.0
O17 O 0.24669 0.17401 0.1541 0.0
O18 O 0.27713 0.06419 0.11593 0.0
O19 O 0.32492 0.23842 0.11154 0.0
O20 O 0.37175 0.12703 0.08076 0.0
O21 O 0.2461 0.15902 0.07652 0.0
Sc22 Sc 0.55762 0.60659 0.38316 0.0
Sc23 Sc 0.56887 0.50828 0.36484 0.0
Sc24 Sc 0.64168 0.57864 0.34941 0.0
O25 O 0.58941 0.56445 0.36577 0.0
C26 C 0.58701 0.65178 0.33613 0.0
C27 C 0.48885 0.55694 0.35893 0.0
C28 C 0.60136 0.52023 0.31126 0.0
C29 C 0.54917 0.53382 0.41906 0.0
C30 C 0.64595 0.62682 0.39895 0.0
C31 C 0.66165 0.49446 0.37154 0.0
O32 O 0.56395 0.6468 0.35389 0.0
O33 O 0.50972 0.52609 0.3569 0.0
O34 O 0.62684 0.54628 0.31692 0.0
O35 O 0.5484 0.57036 0.41417 0.0
O36 O 0.66256 0.61112 0.38071 0.0
O37 O 0.62589 0.48323 0.3722 0.0
O38 O 0.60877 0.62835 0.4013 0.0
O39 O 0.55635 0.50726 0.40336 0.0
O40 O 0.67212 0.52849 0.3644 0.0
O41 O 0.50169 0.58882 0.36804 0.0
O42 O 0.61683 0.63016 0.33192 0.0
O43 O 0.57818 0.50441 0.32649 0.0
Sc44 Sc 0.16291 0.89452 0.60105 0.0
Sc45 Sc 0.23482 0.8247 0.61863 0.0
Sc46 Sc 0.13561 0.80828 0.63288 0.0
O47 O 0.17782 0.84248 0.61744 0.0
C48 C 0.11047 0.89539 0.6488 0.0
C49 C 0.24341 0.91729 0.6276 0.0
C50 C 0.20431 0.80045 0.67134 0.0
C51 C 0.22676 0.85941 0.56487 0.0
C52 C 0.09354 0.83698 0.58478 0.0
C53 C 0.19146 0.74285 0.60943 0.0
O54 O 0.1287 0.91327 0.63196 0.0
O55 O 0.25489 0.88184 0.63015 0.0
O56 O 0.16813 0.80078 0.66557 0.0
O57 O 0.19696 0.88106 0.56924 0.0
O58 O 0.09913 0.81249 0.60172 0.0
O59 O 0.2209 0.76578 0.60743 0.0
O60 O 0.11269 0.86896 0.5825 0.0
O61 O 0.24375 0.83862 0.58094 0.0
O62 O 0.15884 0.75358 0.61868 0.0
O63 O 0.2117 0.92647 0.61672 0.0
O64 O 0.1085 0.85804 0.65005 0.0
O65 O 0.23196 0.80758 0.65638 0.0
Sc66 Sc 0.85459 0.41553 0.84921 0.0
Sc67 Sc 0.93279 0.48073 0.86214 0.0
Sc68 Sc 0.93502 0.38416 0.88509 0.0
O69 O 0.90747 0.42683 0.86547 0.0
C70 C 0.84501 0.3709 0.89963 0.0
C71 C 0.84194 0.50219 0.86975 0.0
C72 C 0.95095 0.45939 0.91749 0.0
C73 C 0.89735 0.46817 0.80924 0.0
C74 C 0.90424 0.33769 0.83879 0.0
C75 C 0.00832 0.42586 0.85913 0.0
O76 O 0.83087 0.38793 0.88114 0.0
O77 O 0.87848 0.51065 0.87023 0.0
O78 O 0.94504 0.42262 0.91511 0.0
O79 O 0.87112 0.44355 0.81572 0.0
O80 O 0.92724 0.34234 0.85667 0.0
O81 O 0.98929 0.45673 0.85353 0.0
O82 O 0.87618 0.36109 0.83363 0.0
O83 O 0.92154 0.4837 0.82395 0.0
O84 O 0.99321 0.39758 0.87106 0.0
O85 O 0.82861 0.46907 0.86275 0.0
O86 O 0.8817 0.36599 0.90286 0.0
O87 O 0.94854 0.4838 0.90007 0.0
Sc88 Sc 0.6609 0.8943 0.8996 0.0
Sc89 Sc 0.73524 0.82517 0.88513 0.0
Sc90 Sc 0.63798 0.80875 0.8664 0.0
O91 O 0.67815 0.84281 0.88375 0.0
C92 C 0.59076 0.83545 0.91279 0.0
C93 C 0.7209 0.85997 0.93821 0.0
C94 C 0.69171 0.74336 0.89171 0.0
C95 C 0.74502 0.91726 0.87729 0.0
C96 C 0.61349 0.89573 0.85018 0.0
C97 C 0.71038 0.80216 0.83088 0.0
O98 O 0.60805 0.8685 0.91514 0.0
O99 O 0.74106 0.84097 0.92273 0.0
O100 O 0.66121 0.75393 0.88007 0.0
O101 O 0.71202 0.92638 0.88669 0.0
O102 O 0.61046 0.85843 0.84942 0.0
O103 O 0.73617 0.80702 0.84738 0.0
O104 O 0.63142 0.91369 0.8671 0.0
O105 O 0.75655 0.88192 0.87449 0.0
O106 O 0.67357 0.80417 0.83475 0.0
O107 O 0.68993 0.87936 0.93303 0.0
O108 O 0.5993 0.81045 0.8966 0.0
O109 O 0.72 0.76666 0.89643 0.0
Sc110 Sc 0.36246 0.41765 0.65171 0.0
Sc111 Sc 0.43593 0.48893 0.64121 0.0
Sc112 Sc 0.45029 0.39245 0.62114 0.0
O113 O 0.4162 0.43299 0.63812 0.0
C114 C 0.41354 0.34264 0.66457 0.0
C115 C 0.3988 0.47366 0.69287 0.0
C116 C 0.51567 0.43919 0.64894 0.0
C117 C 0.34365 0.50296 0.63202 0.0
C118 C 0.36484 0.3742 0.60036 0.0
C119 C 0.46419 0.46878 0.58843 0.0
O120 O 0.38629 0.36667 0.67008 0.0
O121 O 0.4256 0.48843 0.67955 0.0
O122 O 0.50242 0.40613 0.64177 0.0
O123 O 0.33301 0.46747 0.63543 0.0
O124 O 0.40208 0.37648 0.59825 0.0
O125 O 0.44822 0.49339 0.60282 0.0
O126 O 0.34658 0.38452 0.61947 0.0
O127 O 0.37896 0.51465 0.63481 0.0
O128 O 0.469 0.43265 0.59362 0.0
O129 O 0.37246 0.45012 0.68492 0.0
O130 O 0.43642 0.34733 0.64669 0.0
O131 O 0.49554 0.47078 0.64827 0.0
Sc132 Sc 0.86328 0.19119 0.36731 0.0
Sc133 Sc 0.76709 0.18162 0.38978 0.0
Sc134 Sc 0.83707 0.10674 0.4012 0.0
O135 O 0.82245 0.15984 0.3861 0.0
C136 C 0.88128 0.10325 0.3502 0.0
C137 C 0.78655 0.20302 0.33499 0.0
C138 C 0.75106 0.08934 0.38151 0.0
C139 C 0.81806 0.26054 0.39413 0.0
C140 C 0.91205 0.15962 0.41265 0.0
C141 C 0.78303 0.14623 0.44201 0.0
O142 O 0.88157 0.14037 0.34758 0.0
O143 O 0.76184 0.19552 0.35171 0.0
O144 O 0.7858 0.07788 0.38647 0.0
O145 O 0.8487 0.24704 0.38383 0.0
O146 O 0.88934 0.13106 0.41791 0.0
O147 O 0.76742 0.17145 0.42802 0.0
O148 O 0.90672 0.18238 0.39474 0.0
O149 O 0.78705 0.24025 0.39733 0.0
O150 O 0.80678 0.11969 0.43475 0.0
O151 O 0.82364 0.20271 0.33811 0.0
O152 O 0.86811 0.08658 0.36915 0.0
O153 O 0.74016 0.12517 0.38287 0.0
Sc154 Sc 0.05345 0.6016 0.12237 0.0
Sc155 Sc 0.08015 0.50378 0.13408 0.0
Sc156 Sc 0.14095 0.58139 0.15461 0.0
O157 O 0.0914 0.56222 0.13711 0.0
C158 C 0.13905 0.63199 0.10619 0.0
C159 C 0.05066 0.53389 0.08258 0.0
C160 C 0.17284 0.50456 0.12757 0.0
C161 C 0.99414 0.53887 0.14466 0.0
C162 C 0.07895 0.64694 0.16999 0.0
C163 C 0.10988 0.51374 0.18898 0.0
O164 O 0.10154 0.63142 0.10474 0.0
O165 O 0.06412 0.50688 0.09623 0.0
O166 O 0.17816 0.53485 0.14064 0.0
O167 O 0.00215 0.57382 0.13786 0.0
O168 O 0.11226 0.63049 0.17236 0.0
O169 O 0.09468 0.49373 0.17182 0.0
O170 O 0.05512 0.63892 0.15315 0.0
O171 O 0.01941 0.51109 0.14445 0.0
O172 O 0.1262 0.54719 0.18603 0.0
O173 O 0.0455 0.56901 0.08973 0.0
O174 O 0.15802 0.61589 0.12346 0.0
O175 O 0.13901 0.49093 0.12253 0.0
Sc176 Sc 0.86191 0.69578 0.63168 0.0
Sc177 Sc 0.76549 0.68371 0.6111 0.0
Sc178 Sc 0.83575 0.60985 0.59977 0.0
O179 O 0.82103 0.6631 0.61409 0.0
C180 C 0.91126 0.65989 0.58777 0.0
C181 C 0.81738 0.76245 0.60391 0.0
C182 C 0.77994 0.64768 0.55915 0.0
C183 C 0.78527 0.71103 0.66399 0.0
C184 C 0.87845 0.60979 0.65137 0.0
C185 C 0.75097 0.59132 0.62007 0.0
O186 O 0.90768 0.68081 0.60665 0.0
O187 O 0.78514 0.74323 0.6046 0.0
O188 O 0.80256 0.62043 0.56687 0.0
O189 O 0.8215 0.71561 0.65892 0.0
O190 O 0.86966 0.59279 0.63153 0.0
O191 O 0.73911 0.6266 0.61713 0.0
O192 O 0.87551 0.6468 0.65439 0.0
O193 O 0.76078 0.69513 0.64952 0.0
O194 O 0.7864 0.58071 0.61644 0.0
O195 O 0.85009 0.74817 0.61094 0.0
O196 O 0.88597 0.63449 0.58121 0.0
O197 O 0.76609 0.67465 0.57268 0.0
Sc198 Sc 0.04942 0.11324 0.88189 0.0
Sc199 Sc 0.05789 0.01554 0.86223 0.0
Sc200 Sc 0.13336 0.0832 0.84886 0.0
O201 O 0.08022 0.07068 0.86429 0.0
C202 C 0.08362 0.15903 0.83602 0.0
C203 C 0.98006 0.06861 0.85598 0.0
C204 C 0.09218 0.02714 0.80957 0.0
C205 C 0.03561 0.03834 0.91597 0.0
C206 C 0.13716 0.1296 0.89922 0.0
C207 C 0.15004 0.99859 0.87006 0.0
O208 O 0.06218 0.15626 0.85473 0.0
O209 O -0.00113 0.0362 0.85581 0.0
O210 O 0.12005 0.04972 0.81647 0.0
O211 O 0.03269 0.07482 0.91101 0.0
O212 O 0.15326 0.11689 0.87994 0.0
O213 O 0.11425 0.9878 0.86811 0.0
O214 O 0.10013 0.12915 0.90254 0.0
O215 O 0.04761 0.01278 0.90079 0.0
O216 O 0.1617 0.03336 0.86544 0.0
O217 O 0.9948 0.10073 0.86359 0.0
O218 O 0.10968 0.13387 0.83028 0.0
O219 O 0.06575 0.01409 0.82376 0.0
Sc220 Sc 0.65742 0.39023 0.09996 0.0
Sc221 Sc 0.73466 0.32685 0.11722 0.0
Sc222 Sc 0.63738 0.30316 0.13255 0.0
O223 O 0.67649 0.33993 0.1165 0.0
C224 C 0.61042 0.38938 0.14962 0.0
C225 C 0.7376 0.41868 0.12494 0.0
C226 C 0.70802 0.29748 0.16971 0.0
C227 C 0.72119 0.35943 0.06323 0.0
C228 C 0.58899 0.32975 0.08651 0.0
C229 C 0.69662 0.24259 0.10746 0.0
O230 O 0.627 0.40819 0.13247 0.0
O231 O 0.74974 0.38434 0.13004 0.0
O232 O 0.67171 0.29579 0.16445 0.0
O233 O 0.68758 0.37484 0.06712 0.0
O234 O 0.59857 0.30485 0.10245 0.0
O235 O 0.72447 0.26747 0.10504 0.0
O236 O 0.60527 0.36326 0.08436 0.0
O237 O 0.74252 0.34433 0.07979 0.0
O238 O 0.66374 0.25092 0.11731 0.0
O239 O 0.70719 0.42526 0.11214 0.0
O240 O 0.60892 0.35186 0.15046 0.0
O241 O 0.73438 0.30787 0.15465 0.0
Sc242 Sc 0.36096 0.91643 0.35227 0.0
Sc243 Sc 0.43275 0.98958 0.3619 0.0
Sc244 Sc 0.44947 0.89417 0.38258 0.0
O245 O 0.4143 0.93341 0.36547 0.0
C246 C 0.36524 0.87677 0.40478 0.0
C247 C 0.34008 0.00166 0.37132 0.0
C248 C 0.46429 0.97202 0.41374 0.0
C249 C 0.39608 0.97168 0.3105 0.0
C250 C 0.41245 0.84158 0.34063 0.0
C251 C 0.51286 0.94035 0.35352 0.0
O252 O 0.34658 0.88414 0.38525 0.0
O253 O 0.37507 0.01431 0.36833 0.0
O254 O 0.4704 0.93613 0.40848 0.0
O255 O 0.36989 0.94809 0.3186 0.0
O256 O 0.43438 0.84671 0.35889 0.0
O257 O 0.49276 0.97196 0.35492 0.0
O258 O 0.38596 0.86581 0.33425 0.0
O259 O 0.42239 0.98744 0.32373 0.0
O260 O 0.49976 0.90696 0.36024 0.0
O261 O 0.33052 0.96583 0.36809 0.0
O262 O 0.40241 0.88038 0.40672 0.0
O263 O 0.44534 0.99547 0.40007 0.0
Sc264 Sc 0.16772 0.3881 0.40315 0.0
Sc265 Sc 0.23414 0.31169 0.3885 0.0
Sc266 Sc 0.13514 0.30511 0.36998 0.0
O267 O 0.17905 0.33493 0.38725 0.0
C268 C 0.09207 0.33734 0.41704 0.0
C269 C 0.22514 0.34792 0.4416 0.0
C270 C 0.18194 0.23446 0.39515 0.0
C271 C 0.25221 0.40304 0.37983 0.0
C272 C 0.11914 0.39401 0.35392 0.0
C273 C 0.20708 0.29061 0.3345 0.0
O274 O 0.11499 0.36635 0.42081 0.0
O275 O 0.24029 0.32393 0.42656 0.0
O276 O 0.15132 0.24824 0.38489 0.0
O277 O 0.21935 0.41534 0.38785 0.0
O278 O 0.11441 0.35707 0.35168 0.0
O279 O 0.23373 0.29558 0.35047 0.0
O280 O 0.13715 0.40952 0.37166 0.0
O281 O 0.26161 0.36676 0.3791 0.0
O282 O 0.17052 0.29409 0.33886 0.0
O283 O 0.19899 0.37306 0.43577 0.0
O284 O 0.09591 0.31342 0.39959 0.0
O285 O 0.21316 0.25445 0.39827 0.0
Sc286 Sc 0.85692 0.91274 0.15158 0.0
Sc287 Sc 0.93738 0.97517 0.13877 0.0
Sc288 Sc 0.93571 0.87878 0.11527 0.0
O289 O 0.91002 0.92225 0.13522 0.0
C290 C 0.90356 0.83296 0.16152 0.0
C291 C 0.90174 0.96374 0.19165 0.0
C292 C 0.01063 0.9168 0.14149 0.0
C293 C 0.84723 -0.00014 0.13128 0.0
C294 C 0.84518 0.86862 0.10116 0.0
C295 C 0.95349 0.95413 0.08312 0.0
O296 O 0.87708 0.85782 0.16728 0.0
O297 O 0.92716 0.97784 0.17716 0.0
O298 O 0.99429 0.88909 0.12966 0.0
O299 O 0.83273 0.96689 0.13767 0.0
O300 O 0.88169 0.86341 0.09737 0.0
O301 O 0.95185 0.97851 0.10061 0.0
O302 O 0.83191 0.88527 0.12 0.0
O303 O 0.884 0.00732 0.13141 0.0
O304 O 0.94729 0.91742 0.08554 0.0
O305 O 0.87426 0.94075 0.18489 0.0
O306 O 0.92593 0.83662 0.14325 0.0
O307 O 0.99316 0.94878 0.14669 0.0
Sc308 Sc 0.34567 0.69487 0.8716 0.0
Sc309 Sc 0.2496 0.67862 0.89161 0.0
Sc310 Sc 0.3233 0.60836 0.90419 0.0
O311 O 0.30617 0.66053 0.88922 0.0
C312 C 0.36547 0.60903 0.85228 0.0
C313 C 0.26883 0.70614 0.83885 0.0
C314 C 0.23876 0.58529 0.88456 0.0
C315 C 0.29756 0.75976 0.89858 0.0
C316 C 0.39727 0.66178 0.91525 0.0
C317 C 0.26641 0.64598 0.9443 0.0
O318 O 0.36208 0.64606 0.84944 0.0
O319 O 0.24479 0.68912 0.85311 0.0
O320 O 0.27438 0.57632 0.88903 0.0
O321 O 0.33103 0.74693 0.89187 0.0
O322 O 0.37377 0.63468 0.92173 0.0
O323 O 0.2503 0.67055 0.93004 0.0
O324 O 0.39186 0.68311 0.89677 0.0
O325 O 0.26625 0.7391 0.89775 0.0
O326 O 0.29102 0.61985 0.93737 0.0
O327 O 0.30473 0.71224 0.84414 0.0
O328 O 0.35626 0.59155 0.87192 0.0
O329 O 0.22574 0.62038 0.88598 0.0
Sc330 Sc 0.56155 0.10737 0.61709 0.0
Sc331 Sc 0.57866 0.00968 0.63376 0.0
Sc332 Sc 0.6465 0.08316 0.65085 0.0
O333 O 0.59562 0.0668 0.63395 0.0
C334 C 0.64875 0.13223 0.60164 0.0
C335 C 0.56101 0.03476 0.58013 0.0
C336 C 0.67252 0.00054 0.63044 0.0
C337 C 0.49461 0.05263 0.6365 0.0
C338 C 0.58856 0.15338 0.6644 0.0
C339 C 0.60548 0.0229 0.68785 0.0
O340 O 0.61171 0.13037 0.59851 0.0
O341 O 0.57388 0.00874 0.59478 0.0
O342 O 0.68078 0.0363 0.6349 0.0
O343 O 0.50686 0.08757 0.63316 0.0
O344 O 0.61808 0.13178 0.66933 0.0
O345 O 0.58142 0.00823 0.67261 0.0
O346 O 0.56704 0.14868 0.64591 0.0
O347 O 0.51714 0.02284 0.63588 0.0
O348 O 0.63247 0.04749 0.68221 0.0
O349 O 0.55294 0.06994 0.58634 0.0
O350 O 0.66565 0.1189 0.62049 0.0
O351 O 0.63763 0.98706 0.63113 0.0
C352 C 0.27825 0.2405 0.20099 0.0
C353 C 0.25971 0.20677 0.19158 0.0
C354 C 0.26964 0.25434 0.22418 0.0
C355 C 0.24214 0.23369 0.23858 0.0
C356 C 0.22302 0.19973 0.22922 0.0
C357 C 0.23178 0.18683 0.20566 0.0
C358 C 0.29006 0.29111 0.23325 0.0
C359 C 0.19375 0.17683 0.24422 0.0
C360 C 0.24931 0.25171 0.30619 0.0
C361 C 0.21816 0.27815 0.3099 0.0
C362 C 0.25689 0.23622 0.28312 0.0
C363 C 0.23328 0.24821 0.26331 0.0
C364 C 0.20239 0.27565 0.26693 0.0
C365 C 0.19497 0.28997 0.29022 0.0
C366 C 0.28986 0.20673 0.27997 0.0
C367 C 0.17727 0.29004 0.24619 0.0
H368 H 0.29951 0.25641 0.19007 0.0
H369 H 0.21753 0.1607 0.19849 0.0
H370 H 0.26785 0.3136 0.23844 0.0
H371 H 0.30755 0.28416 0.24963 0.0
H372 H 0.3101 0.30417 0.21954 0.0
H373 H 0.18177 0.15086 0.23443 0.0
H374 H 0.20804 0.16653 0.2611 0.0
H375 H 0.16885 0.19621 0.24951 0.0
H376 H 0.26684 0.24209 0.32147 0.0
H377 H 0.17091 0.31053 0.29307 0.0
H378 H 0.31243 0.2187 0.26745 0.0
H379 H 0.27824 0.17922 0.27178 0.0
H380 H 0.30442 0.19927 0.29735 0.0
H381 H 0.19607 0.30519 0.23267 0.0
H382 H 0.15389 0.31081 0.25218 0.0
H383 H 0.16309 0.26468 0.23697 0.0
C384 C 0.4572 0.50836 0.55046 0.0
C385 C 0.47867 0.48175 0.56461 0.0
C386 C 0.46912 0.51696 0.52671 0.0
C387 C 0.50373 0.49919 0.51728 0.0
C388 C 0.52625 0.47353 0.53192 0.0
C389 C 0.51321 0.46481 0.5553 0.0
C390 C 0.44414 0.54414 0.51149 0.0
C391 C 0.56386 0.45483 0.52281 0.0
C392 C 0.5168 0.48964 0.44931 0.0
C393 C 0.54023 0.52261 0.4442 0.0
C394 C 0.50431 0.48186 0.47303 0.0
C395 C 0.51643 0.50715 0.49205 0.0
C396 C 0.54125 0.53967 0.48702 0.0
C397 C 0.55245 0.54727 0.46312 0.0
C398 C 0.47747 0.44714 0.4777 0.0
C399 C 0.55574 0.56664 0.50684 0.0
H400 H 0.43034 0.52118 0.55762 0.0
H401 H 0.53005 0.44448 0.56636 0.0
H402 H 0.4621 0.56939 0.50505 0.0
H403 H 0.43342 0.52814 0.49528 0.0
H404 H 0.41828 0.55577 0.52154 0.0
H405 H 0.57898 0.43719 0.53695 0.0
H406 H 0.55723 0.43524 0.50729 0.0
H407 H 0.58447 0.47792 0.51628 0.0
H408 H 0.50696 0.47089 0.43464 0.0
H409 H 0.57077 0.5727 0.45917 0.0
H410 H 0.44959 0.45745 0.48609 0.0
H411 H 0.49158 0.4265 0.4906 0.0
H412 H 0.47022 0.43074 0.4609 0.0
H413 H 0.53033 0.58143 0.51562 0.0
H414 H 0.57625 0.58963 0.5 0.0
H415 H 0.57114 0.54926 0.52095 0.0
C416 C 0.24792 0.76736 0.70155 0.0
C417 C 0.21405 0.78947 0.69643 0.0
C418 C 0.25515 0.7534 0.725 0.0
C419 C 0.22833 0.76262 0.74381 0.0
C420 C 0.19466 0.78589 0.73882 0.0
C421 C 0.1877 0.79866 0.71513 0.0
C422 C 0.29117 0.7283 0.7296 0.0
C423 C 0.16598 0.79728 0.75849 0.0
C424 C 0.22997 0.69935 0.80058 0.0
C425 C 0.25513 0.72137 0.8154 0.0
C426 C 0.22067 0.71253 0.77718 0.0
C427 C 0.23621 0.74892 0.76883 0.0
C428 C 0.26022 0.77196 0.78423 0.0
C429 C 0.26973 0.75768 0.8072 0.0
C430 C 0.19534 0.68698 0.76112 0.0
C431 C 0.27651 0.81137 0.7763 0.0
H432 H 0.26805 0.75983 0.68705 0.0
H433 H 0.16156 0.81596 0.71122 0.0
H434 H 0.31064 0.74297 0.74296 0.0
H435 H 0.28223 0.69951 0.7374 0.0
H436 H 0.30842 0.72278 0.71288 0.0
H437 H 0.14172 0.8163 0.75169 0.0
H438 H 0.15291 0.77042 0.76665 0.0
H439 H 0.1817 0.81329 0.77309 0.0
H440 H 0.21891 0.67118 0.80692 0.0
H441 H 0.28887 0.77494 0.81882 0.0
H442 H 0.21243 0.67804 0.74493 0.0
H443 H 0.16937 0.70387 0.75469 0.0
H444 H 0.18483 0.65999 0.7705 0.0
H445 H 0.29715 0.80712 0.76098 0.0
H446 H 0.29246 0.82679 0.79106 0.0
H447 H 0.25228 0.83069 0.76985 0.0
C448 C 0.99403 0.50157 0.94328 0.0
C449 C 0.96387 0.47349 0.94138 0.0
C450 C 0.00982 0.51172 0.96588 0.0
C451 C 0.99424 0.49412 0.98703 0.0
C452 C 0.96292 0.46663 0.9852 0.0
C453 C 0.94851 0.45621 0.96235 0.0
C454 C 0.0437 0.54059 0.96708 0.0
C455 C 0.94475 0.44806 0.00735 0.0
C456 C 0.05356 0.49172 0.04533 0.0
C457 C 0.03777 0.52405 0.05777 0.0
C458 C 0.0404 0.48218 0.02197 0.0
C459 C 0.01012 0.50496 0.01115 0.0
C460 C 0.99411 0.53758 0.02367 0.0
C461 C 0.0084 0.54695 0.04669 0.0
C462 C 0.05868 0.44763 0.00893 0.0
C463 C 0.96121 0.56206 0.01299 0.0
H464 H 0.00635 0.51441 0.92701 0.0
H465 H 0.92514 0.43448 0.96084 0.0
H466 H 0.03519 0.56665 0.97801 0.0
H467 H 0.06934 0.52666 0.97616 0.0
H468 H 0.05307 0.55083 0.94891 0.0
H469 H 0.91974 0.42819 0.00282 0.0
H470 H 0.96733 0.4308 0.01727 0.0
H471 H 0.93392 0.47136 0.01977 0.0
H472 H 0.07639 0.47408 0.05378 0.0
H473 H 0.99572 0.57175 0.0563 0.0
H474 H 0.06994 0.45718 0.99105 0.0
H475 H 0.03602 0.42464 0.00564 0.0
H476 H 0.08335 0.43425 0.01928 0.0
H477 H 0.97059 0.57471 0.99544 0.0
H478 H 0.95209 0.58658 0.02507 0.0
H479 H 0.93515 0.5431 0.00944 0.0
C480 C 0.75535 0.76705 0.80228 0.0
C481 C 0.72299 0.79192 0.80614 0.0
C482 C 0.76466 0.75365 0.77896 0.0
C483 C 0.74161 0.76628 0.75905 0.0
C484 C 0.70967 0.79243 0.76282 0.0
C485 C 0.70045 0.80454 0.78636 0.0
C486 C 0.79862 0.72534 0.77567 0.0
C487 C 0.68509 0.80746 0.74202 0.0
C488 C 0.78947 0.75985 0.69733 0.0
C489 C 0.77182 0.72592 0.68764 0.0
C490 C 0.77926 0.77373 0.7203 0.0
C491 C 0.75133 0.75267 0.73421 0.0
C492 C 0.73304 0.71857 0.72445 0.0
C493 C 0.74317 0.70584 0.70108 0.0
C494 C 0.79863 0.81079 0.72976 0.0
C495 C 0.70353 0.69506 0.7389 0.0
H496 H 0.77246 0.75687 0.8176 0.0
H497 H 0.67547 0.82394 0.78932 0.0
H498 H 0.78797 0.69776 0.76706 0.0
H499 H 0.82103 0.73839 0.76346 0.0
H500 H 0.81308 0.71772 0.79306 0.0
H501 H 0.66228 0.82889 0.74795 0.0
H502 H 0.7043 0.82195 0.72844 0.0
H503 H 0.6702 0.78242 0.7329 0.0
H504 H 0.81133 0.77569 0.68682 0.0
H505 H 0.72971 0.67948 0.69365 0.0
H506 H 0.81632 0.80383 0.74606 0.0
H507 H 0.77582 0.83251 0.7352 0.0
H508 H 0.81828 0.82475 0.71618 0.0
H509 H 0.7175 0.68431 0.75579 0.0
H510 H 0.69196 0.6693 0.72872 0.0
H511 H 0.67836 0.71408 0.74421 0.0
C512 C 0.69903 0.25272 0.20471 0.0
C513 C 0.71967 0.284 0.194 0.0
C514 C 0.70924 0.23877 0.22766 0.0
C515 C 0.74018 0.25728 0.24051 0.0
C516 C 0.76088 0.28925 0.22991 0.0
C517 C 0.75076 0.30187 0.20654 0.0
C518 C 0.68726 0.20388 0.238 0.0
C519 C 0.79347 0.31024 0.24333 0.0
C520 C 0.74174 0.24196 0.30847 0.0
C521 C 0.77221 0.2144 0.31091 0.0
C522 C 0.73137 0.2567 0.28564 0.0
C523 C 0.75121 0.24256 0.26485 0.0
C524 C 0.78115 0.21372 0.26725 0.0
C525 C 0.79172 0.20046 0.29032 0.0
C526 C 0.69988 0.28806 0.28382 0.0
C527 C 0.80216 0.19699 0.24548 0.0
H528 H 0.67527 0.23853 0.19488 0.0
H529 H 0.76654 0.3262 0.19828 0.0
H530 H 0.70829 0.17977 0.24223 0.0
H531 H 0.67265 0.21233 0.25515 0.0
H532 H 0.66449 0.19232 0.22542 0.0
H533 H 0.80553 0.33557 0.23297 0.0
H534 H 0.78229 0.32119 0.26093 0.0
H535 H 0.81785 0.28939 0.24723 0.0
H536 H 0.72719 0.25318 0.3245 0.0
H537 H 0.81534 0.17912 0.2923 0.0
H538 H 0.6751 0.27734 0.27252 0.0
H539 H 0.71208 0.31468 0.27486 0.0
H540 H 0.6881 0.29669 0.30178 0.0
H541 H 0.78038 0.1846 0.23258 0.0
H542 H 0.82348 0.17345 0.25042 0.0
H543 H 0.81833 0.22077 0.23594 0.0
C544 C 0.94708 0.95096 0.0384 0.0
C545 C 0.96415 0.96843 0.05882 0.0
C546 C 0.9584 0.96232 0.01507 0.0
C547 C 0.98829 0.9911 0.01212 0.0
C548 C 0.00571 0.0088 0.03272 0.0
C549 C 0.993 0.99762 0.05587 0.0
C550 C 0.93831 0.94357 0.99359 0.0
C551 C 0.03821 0.039 0.03029 0.0
C552 C 0.04138 0.99306 0.95158 0.0
C553 C 0.02356 0.02556 0.9404 0.0
C554 C 0.03068 0.98188 0.97513 0.0
C555 C 0.00079 0.00311 0.98745 0.0
C556 C 0.98232 0.03553 0.97603 0.0
C557 C 0.99424 0.04662 0.95278 0.0
C558 C 0.05155 0.94759 0.98692 0.0
C559 C 0.94969 0.05831 0.9883 0.0
H560 H 0.92461 0.92849 0.0407 0.0
H561 H 0.00657 0.01073 0.07169 0.0
H562 H 0.92416 0.96668 0.98236 0.0
H563 H 0.96038 0.92841 0.98209 0.0
H564 H 0.91546 0.92183 0.99903 0.0
H565 H 0.04944 0.04911 0.0481 0.0
H566 H 0.06314 0.02635 0.01987 0.0
H567 H 0.02735 0.065 0.02013 0.0
H568 H 0.06425 0.97692 0.94212 0.0
H569 H 0.98011 0.07155 0.9441 0.0
H570 H 0.03002 0.92399 0.99126 0.0
H571 H 0.06508 0.95721 0.00419 0.0
H572 H 0.07499 0.93497 0.97522 0.0
H573 H 0.92515 0.0381 0.99308 0.0
H574 H 0.93783 0.08232 0.97674 0.0
H575 H 0.96069 0.07146 0.00536 0.0
C576 C 0.51951 0.97388 0.44285 0.0
C577 C 0.48143 0.98621 0.43651 0.0
C578 C 0.53539 0.98269 0.46554 0.0
C579 C 0.51219 0.00354 0.48247 0.0
C580 C 0.47406 0.01706 0.47591 0.0
C581 C 0.45923 0.00857 0.45279 0.0
C582 C 0.57653 0.9687 0.47158 0.0
C583 C 0.4484 0.03912 0.49362 0.0
C584 C 0.53436 0.98867 0.54907 0.0
C585 C 0.55311 0.02421 0.55482 0.0
C586 C 0.52099 0.98145 0.52548 0.0
C587 C 0.52742 0.01014 0.50728 0.0
C588 C 0.54808 0.04523 0.51283 0.0
C589 C 0.56028 0.05204 0.53662 0.0
C590 C 0.49875 0.94381 0.52023 0.0
C591 C 0.5565 0.07599 0.49378 0.0
H592 H 0.53676 0.95681 0.43007 0.0
H593 H 0.42967 0.01776 0.44785 0.0
H594 H 0.59452 0.99352 0.4786 0.0
H595 H 0.57509 0.94602 0.48599 0.0
H596 H 0.59181 0.95579 0.45569 0.0
H597 H 0.41998 0.04856 0.48548 0.0
H598 H 0.44203 0.02004 0.50943 0.0
H599 H 0.46411 0.06559 0.50042 0.0
H600 H 0.5284 0.96743 0.56324 0.0
H601 H 0.57499 0.07951 0.54112 0.0
H602 H 0.51351 0.92727 0.5055 0.0
H603 H 0.46849 0.95093 0.51395 0.0
H604 H 0.49658 0.92437 0.53632 0.0
H605 H 0.57175 0.06234 0.47815 0.0
H606 H 0.57505 0.10047 0.50078 0.0
H607 H 0.52836 0.08851 0.48702 0.0
C608 C 0.20139 0.12722 0.92175 0.0
C609 C 0.16218 0.1403 0.9202 0.0
C610 C 0.22226 0.12942 0.94365 0.0
C611 C 0.20337 0.14489 0.9644 0.0
C612 C 0.16489 0.16072 0.96246 0.0
C613 C 0.1449 0.15844 0.94038 0.0
C614 C 0.26353 0.11287 0.94492 0.0
C615 C 0.14363 0.17746 0.98414 0.0
C616 C 0.22962 0.10453 0.02623 0.0
C617 C 0.24958 0.1365 0.03645 0.0
C618 C 0.21509 0.10662 0.00255 0.0
C619 C 0.22187 0.14108 0.98864 0.0
C620 C 0.24364 0.17277 0.99865 0.0
C621 C 0.25666 0.17037 0.02267 0.0
C622 C 0.19114 0.07259 0.99277 0.0
C623 C 0.25245 0.20944 0.98418 0.0
H624 H 0.21503 0.11312 0.90629 0.0
H625 H 0.11479 0.16905 0.93931 0.0
H626 H 0.28324 0.13307 0.95508 0.0
H627 H 0.26301 0.08432 0.9547 0.0
H628 H 0.27621 0.10777 0.92669 0.0
H629 H 0.11514 0.19149 0.97918 0.0
H630 H 0.13762 0.15348 0.99727 0.0
H631 H 0.16226 0.19969 0.9934 0.0
H632 H 0.22417 0.07848 0.03709 0.0
H633 H 0.27246 0.1949 0.03071 0.0
H634 H 0.20416 0.06178 0.97563 0.0
H635 H 0.16071 0.08268 0.9887 0.0
H636 H 0.18942 0.04759 0.00568 0.0
H637 H 0.26538 0.20138 0.96644 0.0
H638 H 0.27317 0.22952 0.99371 0.0
H639 H 0.22469 0.2257 0.98055 0.0
C640 C 0.63274 0.50359 0.27172 0.0
C641 C 0.59869 0.50705 0.28588 0.0
C642 C 0.63094 0.48742 0.2484 0.0
C643 C 0.59401 0.47555 0.2388 0.0
C644 C 0.55926 0.48117 0.25253 0.0
C645 C 0.56209 0.49626 0.27607 0.0
C646 C 0.66881 0.48108 0.23457 0.0
C647 C 0.51925 0.47002 0.24269 0.0
C648 C 0.59452 0.4525 0.17151 0.0
C649 C 0.59881 0.41133 0.17171 0.0
C650 C 0.59072 0.47381 0.1932 0.0
C651 C 0.59245 0.45355 0.21555 0.0
C652 C 0.59519 0.41192 0.21578 0.0
C653 C 0.59773 0.39135 0.19391 0.0
C654 C 0.58652 0.51809 0.19222 0.0
C655 C 0.59791 0.38914 0.23919 0.0
H656 H 0.66105 0.51182 0.27931 0.0
H657 H 0.53562 0.49945 0.28689 0.0
H658 H 0.67377 0.44901 0.23194 0.0
H659 H 0.66675 0.49466 0.2164 0.0
H660 H 0.6948 0.49367 0.24405 0.0
H661 H 0.49485 0.48099 0.25428 0.0
H662 H 0.51537 0.48202 0.2242 0.0
H663 H 0.51688 0.43746 0.24143 0.0
H664 H 0.59525 0.46819 0.15447 0.0
H665 H 0.60139 0.3596 0.19439 0.0
H666 H 0.61426 0.53212 0.19848 0.0
H667 H 0.56259 0.52803 0.20446 0.0
H668 H 0.58009 0.52873 0.17367 0.0
H669 H 0.62496 0.39801 0.24909 0.0
H670 H 0.59885 0.35673 0.23625 0.0
H671 H 0.57236 0.39605 0.25094 0.0
C672 C 0.26239 0.82487 0.53146 0.0
C673 C 0.24266 0.85846 0.53998 0.0
C674 C 0.27899 0.82408 0.50824 0.0
C675 C 0.27669 0.85806 0.49345 0.0
C676 C 0.25597 0.89172 0.50175 0.0
C677 C 0.23878 0.89133 0.52482 0.0
C678 C 0.30006 0.78733 0.49985 0.0
C679 C 0.25362 0.92887 0.48678 0.0
C680 C 0.36055 0.87596 0.44964 0.0
C681 C 0.34284 0.8682 0.4272 0.0
C682 C 0.33936 0.87249 0.47122 0.0
C683 C 0.29956 0.86002 0.47054 0.0
C684 C 0.28175 0.85077 0.44808 0.0
C685 C 0.30347 0.85548 0.42659 0.0
C686 C 0.35931 0.88346 0.49469 0.0
C687 C 0.23963 0.83652 0.44675 0.0
H688 H 0.26493 0.79915 0.54298 0.0
H689 H 0.2236 0.91737 0.53135 0.0
H690 H 0.29005 0.77901 0.48146 0.0
H691 H 0.33223 0.79307 0.49884 0.0
H692 H 0.29507 0.76198 0.51219 0.0
H693 H 0.23432 0.95155 0.49514 0.0
H694 H 0.28361 0.94152 0.48457 0.0
H695 H 0.24227 0.9221 0.46846 0.0
H696 H 0.39078 0.88632 0.45038 0.0
H697 H 0.28959 0.84944 0.40935 0.0
H698 H 0.35886 0.85805 0.50729 0.0
H699 H 0.34302 0.90794 0.5035 0.0
H700 H 0.39043 0.89282 0.49207 0.0
H701 H 0.23532 0.811 0.45902 0.0
H702 H 0.23111 0.82764 0.42816 0.0
H703 H 0.21941 0.86021 0.45286 0.0
C704 C 0.88529 0.60243 0.69594 0.0
C705 C 0.8882 0.58551 0.67286 0.0
C706 C 0.88929 0.57959 0.71683 0.0
C707 C 0.89731 0.53879 0.71475 0.0
C708 C 0.90204 0.52168 0.69159 0.0
C709 C 0.89697 0.54517 0.67086 0.0
C710 C 0.88341 0.59898 0.74115 0.0
C711 C 0.91151 0.47845 0.68872 0.0
C712 C 0.9337 0.49608 0.77385 0.0
C713 C 0.89867 0.48101 0.78371 0.0
C714 C 0.93441 0.51228 0.75054 0.0
C715 C 0.89904 0.51432 0.73702 0.0
C716 C 0.86402 0.49743 0.74641 0.0
C717 C 0.86437 0.48059 0.76957 0.0
C718 C 0.97255 0.52907 0.74093 0.0
C719 C 0.82554 0.49956 0.73274 0.0
H720 H 0.87822 0.63346 0.6978 0.0
H721 H 0.89934 0.53185 0.65313 0.0
H722 H 0.85825 0.58496 0.75068 0.0
H723 H 0.90998 0.5948 0.75255 0.0
H724 H 0.87746 0.63111 0.73963 0.0
H725 H 0.91825 0.47057 0.66969 0.0
H726 H 0.93712 0.47037 0.70018 0.0
H727 H 0.88608 0.46045 0.69484 0.0
H728 H 0.96047 0.49591 0.78457 0.0
H729 H 0.83721 0.469 0.77709 0.0
H730 H 0.97104 0.56176 0.7411 0.0
H731 H 0.9773 0.51972 0.72196 0.0
H732 H 0.99837 0.5198 0.7519 0.0
H733 H 0.81558 0.53071 0.73179 0.0
H734 H 0.80194 0.48181 0.74144 0.0
H735 H 0.82948 0.48905 0.71394 0.0
C736 C 0.79049 0.89024 0.07451 0.0
C737 C 0.81803 0.86122 0.08087 0.0
C738 C 0.77085 0.88879 0.05223 0.0
C739 C 0.77802 0.85684 0.03635 0.0
C740 C 0.80338 0.82582 0.04361 0.0
C741 C 0.82376 0.8288 0.0656 0.0
C742 C 0.74508 0.92309 0.04491 0.0
C743 C 0.81071 0.79057 0.02758 0.0
C744 C 0.71073 0.84513 0.98179 0.0
C745 C 0.73472 0.85994 0.96334 0.0
C746 C 0.72457 0.84331 0.00569 0.0
C747 C 0.76265 0.85804 0.0112 0.0
C748 C 0.7865 0.87395 0.99256 0.0
C749 C 0.77249 0.87396 0.96874 0.0
C750 C 0.69888 0.82495 0.0249 0.0
C751 C 0.82677 0.89109 0.99776 0.0
H752 H 0.78657 0.9157 0.08613 0.0
H753 H 0.84512 0.8064 0.07054 0.0
H754 H 0.75981 0.93984 0.03024 0.0
H755 H 0.71641 0.91253 0.03776 0.0
H756 H 0.73937 0.94355 0.06019 0.0
H757 H 0.82604 0.76641 0.03735 0.0
H758 H 0.78248 0.77908 0.02026 0.0
H759 H 0.82927 0.79949 0.01201 0.0
H760 H 0.68161 0.83398 0.97739 0.0
H761 H 0.79081 0.88552 0.95433 0.0
H762 H 0.69294 0.8466 0.03946 0.0
H763 H 0.71452 0.79964 0.03325 0.0
H764 H 0.67025 0.81439 0.01757 0.0
H765 H 0.82458 0.91395 0.01204 0.0
H766 H 0.84042 0.90456 0.9815 0.0
H767 H 0.84672 0.86769 0.00458 0.0
C768 C 0.37647 0.60343 0.80788 0.0
C769 C 0.37668 0.58541 0.83073 0.0
C770 C 0.38222 0.58152 0.78677 0.0
C771 C 0.38922 0.54049 0.78838 0.0
C772 C 0.39112 0.52219 0.81135 0.0
C773 C 0.38441 0.54481 0.83229 0.0
C774 C 0.3794 0.60221 0.76265 0.0
C775 C 0.39935 0.47863 0.81375 0.0
C776 C 0.36147 0.4857 0.73116 0.0
C777 C 0.39733 0.48588 0.71854 0.0
C778 C 0.3588 0.50149 0.75454 0.0
C779 C 0.39299 0.5171 0.76574 0.0
C780 C 0.42976 0.51493 0.75371 0.0
C781 C 0.43142 0.49977 0.73014 0.0
C782 C 0.3189 0.50381 0.76658 0.0
C783 C 0.46703 0.53046 0.76522 0.0
H784 H 0.37032 0.63469 0.80631 0.0
H785 H 0.38469 0.5306 0.84982 0.0
H786 H 0.40708 0.59802 0.75229 0.0
H787 H 0.35508 0.58919 0.75185 0.0
H788 H 0.3739 0.63436 0.76455 0.0
H789 H 0.40358 0.46963 0.83286 0.0
H790 H 0.37439 0.46153 0.80612 0.0
H791 H 0.42611 0.47059 0.80333 0.0
H792 H 0.33501 0.47502 0.72231 0.0
H793 H 0.45937 0.49942 0.72063 0.0
H794 H 0.30949 0.53511 0.76771 0.0
H795 H 0.32049 0.4923 0.78529 0.0
H796 H 0.29601 0.48702 0.75656 0.0
H797 H 0.46608 0.56316 0.76572 0.0
H798 H 0.49385 0.52132 0.75515 0.0
H799 H 0.46952 0.51995 0.78413 0.0
C800 C 0.76568 0.11254 0.48066 0.0
C801 C 0.77188 0.1475 0.46776 0.0
C802 C 0.75001 0.11344 0.50413 0.0
C803 C 0.74148 0.15024 0.51511 0.0
C804 C 0.75044 0.18566 0.50276 0.0
C805 C 0.76493 0.18386 0.47906 0.0
C806 C 0.74013 0.07499 0.51649 0.0
C807 C 0.74289 0.22544 0.51409 0.0
C808 C 0.65468 0.14943 0.55802 0.0
C809 C 0.67305 0.14432 0.58056 0.0
C810 C 0.67674 0.15246 0.53675 0.0
C811 C 0.7184 0.15147 0.53795 0.0
C812 C 0.73733 0.14927 0.56072 0.0
C813 C 0.71442 0.14526 0.58178 0.0
C814 C 0.65522 0.15417 0.51286 0.0
C815 C 0.78172 0.14936 0.56275 0.0
H816 H 0.77098 0.08443 0.4719 0.0
H817 H 0.77027 0.21096 0.46918 0.0
H818 H 0.75279 0.07435 0.53494 0.0
H819 H 0.70764 0.07224 0.51832 0.0
H820 H 0.75127 0.04903 0.50632 0.0
H821 H 0.757 0.24973 0.50376 0.0
H822 H 0.71067 0.23104 0.5148 0.0
H823 H 0.75406 0.22608 0.53292 0.0
H824 H 0.62279 0.14877 0.55669 0.0
H825 H 0.72896 0.14146 0.59905 0.0
H826 H 0.66126 0.12687 0.50243 0.0
H827 H 0.66587 0.17941 0.50194 0.0
H828 H 0.62279 0.15705 0.51515 0.0
H829 H 0.79353 0.12081 0.55616 0.0
H830 H 0.7917 0.15369 0.58167 0.0
H831 H 0.7946 0.17296 0.55132 0.0
C832 C 0.07841 0.41022 0.31759 0.0
C833 C 0.11052 0.41877 0.33264 0.0
C834 C 0.07465 0.42833 0.29488 0.0
C835 C 0.10464 0.45419 0.28668 0.0
C836 C 0.13643 0.46389 0.30218 0.0
C837 C 0.13857 0.4466 0.32515 0.0
C838 C 0.0395 0.41845 0.27928 0.0
C839 C 0.16968 0.49033 0.29392 0.0
C840 C 0.12178 0.46021 0.21892 0.0
C841 C 0.10751 0.49795 0.21369 0.0
C842 C 0.12117 0.44565 0.24266 0.0
C843 C 0.10441 0.46889 0.26134 0.0
C844 C 0.08871 0.50655 0.25587 0.0
C845 C 0.09121 0.52097 0.23216 0.0
C846 C 0.13935 0.40587 0.24785 0.0
C847 C 0.06927 0.53154 0.27504 0.0
H848 H 0.0568 0.38857 0.32333 0.0
H849 H 0.16388 0.45267 0.33654 0.0
H850 H 0.02662 0.44571 0.27148 0.0
H851 H 0.04897 0.39949 0.26402 0.0
H852 H 0.01623 0.4026 0.28954 0.0
H853 H 0.19139 0.49622 0.30851 0.0
H854 H 0.18533 0.47624 0.27857 0.0
H855 H 0.15794 0.5189 0.28737 0.0
H856 H 0.13453 0.44261 0.20455 0.0
H857 H 0.07983 0.55006 0.22794 0.0
H858 H 0.11683 0.38564 0.25544 0.0
H859 H 0.163 0.409 0.26158 0.0
H860 H 0.15213 0.39202 0.23144 0.0
H861 H 0.0458 0.51437 0.28424 0.0
H862 H 0.05606 0.55885 0.26747 0.0
H863 H 0.0912 0.53999 0.28897 0.0
C864 C 0.76235 0.61177 0.52123 0.0
C865 C 0.76801 0.6475 0.53347 0.0
C866 C 0.74671 0.61115 0.49775 0.0
C867 C 0.73757 0.64718 0.48604 0.0
C868 C 0.74573 0.68338 0.49776 0.0
C869 C 0.76028 0.6831 0.52149 0.0
C870 C 0.73766 0.57189 0.48611 0.0
C871 C 0.7374 0.72239 0.48567 0.0
C872 C 0.71146 0.63923 0.41926 0.0
C873 C 0.67009 0.63822 0.42025 0.0
C874 C 0.73404 0.64399 0.44041 0.0
C875 C 0.71477 0.64677 0.46306 0.0
C876 C 0.67309 0.64712 0.46404 0.0
C877 C 0.65137 0.64338 0.44268 0.0
C878 C 0.77844 0.64463 0.43862 0.0
C879 C 0.65123 0.64927 0.4878 0.0
H880 H 0.76823 0.58421 0.53048 0.0
H881 H 0.76518 0.71082 0.5308 0.0
H882 H 0.70524 0.56841 0.48429 0.0
H883 H 0.75042 0.57055 0.4677 0.0
H884 H 0.74925 0.54669 0.49679 0.0
H885 H 0.7507 0.74753 0.49565 0.0
H886 H 0.74894 0.72239 0.46692 0.0
H887 H 0.70507 0.72713 0.48462 0.0
H888 H 0.72622 0.63532 0.40207 0.0
H889 H 0.61947 0.64242 0.44384 0.0
H890 H 0.79064 0.61691 0.44618 0.0
H891 H 0.79071 0.66938 0.44938 0.0
H892 H 0.78869 0.64756 0.41966 0.0
H893 H 0.65806 0.62274 0.49877 0.0
H894 H 0.61875 0.65095 0.48533 0.0
H895 H 0.66091 0.6754 0.49828 0.0
C896 C 0.05468 0.00619 0.7729 0.0
C897 C 0.09093 0.01429 0.78408 0.0
C898 C 0.05312 0.99119 0.74929 0.0
C899 C 0.08868 0.983 0.73688 0.0
C900 C 0.12533 0.99222 0.74784 0.0
C901 C 0.12598 0.00828 0.7712 0.0
C902 C 0.01348 0.98277 0.73799 0.0
C903 C 0.16396 0.98314 0.73544 0.0
C904 C 0.09214 0.89843 0.69233 0.0
C905 C 0.09722 0.91814 0.67023 0.0
C906 C 0.08807 0.91926 0.71401 0.0
C907 C 0.08793 0.96098 0.71363 0.0
C908 C 0.09007 0.98114 0.69127 0.0
C909 C 0.09523 0.95949 0.66982 0.0
C910 C 0.08665 0.8965 0.73746 0.0
C911 C 0.08878 0.02559 0.69011 0.0
H912 H 0.02749 0.01131 0.78272 0.0
H913 H 0.15403 0.0144 0.77983 0.0
H914 H 0.01229 0.9948 0.71937 0.0
H915 H 0.00896 0.95043 0.7367 0.0
H916 H 0.98881 0.99555 0.74863 0.0
H917 H 0.18979 0.99392 0.74587 0.0
H918 H 0.16689 0.95077 0.73299 0.0
H919 H 0.16465 0.99672 0.71723 0.0
H920 H 0.09388 0.86652 0.69301 0.0
H921 H 0.099 0.97499 0.65286 0.0
H922 H 0.06112 0.90604 0.74852 0.0
H923 H 0.11375 0.90261 0.74807 0.0
H924 H 0.0845 0.86416 0.73452 0.0
H925 H 0.06437 0.03714 0.70143 0.0
H926 H 0.08487 0.03644 0.67134 0.0
H927 H 0.11671 0.03788 0.69735 0.0
C928 C 0.77413 0.37285 0.03323 0.0
C929 C 0.7362 0.35887 0.03829 0.0
C930 C 0.78859 0.37318 0.00948 0.0
C931 C 0.76507 0.35762 0.99056 0.0
C932 C 0.72699 0.34263 0.99576 0.0
C933 C 0.71268 0.34418 0.01954 0.0
C934 C 0.82883 0.39065 0.00462 0.0
C935 C 0.70166 0.32451 0.97627 0.0
C936 C 0.79135 0.39171 0.92731 0.0
C937 C 0.81875 0.36296 0.9203 0.0
C938 C 0.7726 0.38975 0.94986 0.0
C939 C 0.78046 0.35749 0.96539 0.0
C940 C 0.80582 0.32683 0.95755 0.0
C941 C 0.82536 0.33036 0.93529 0.0
C942 C 0.7468 0.42368 0.95777 0.0
C943 C 0.81382 0.29124 0.97317 0.0
H944 H 0.79211 0.38441 0.04781 0.0
H945 H 0.68343 0.33304 0.02362 0.0
H946 H 0.84885 0.36766 0.99737 0.0
H947 H 0.82654 0.41417 0.99076 0.0
H948 H 0.84244 0.40339 0.02112 0.0
H949 H 0.67336 0.31287 0.98347 0.0
H950 H 0.69503 0.34671 0.96215 0.0
H951 H 0.71787 0.30003 0.9674 0.0
H952 H 0.78679 0.41734 0.91592 0.0
H953 H 0.84666 0.30819 0.92989 0.0
H954 H 0.76109 0.43932 0.97306 0.0
H955 H 0.71789 0.41273 0.96429 0.0
H956 H 0.7416 0.44523 0.943 0.0
H957 H 0.83239 0.29996 0.98877 0.0
H958 H 0.82935 0.26756 0.96308 0.0
H959 H 0.78581 0.27917 0.98046 0.0
C960 C 0.38688 0.0379 0.17042 0.0
C961 C 0.38274 0.07908 0.17139 0.0
C962 C 0.39241 0.0157 0.19161 0.0
C963 C 0.39303 0.03512 0.21425 0.0
C964 C 0.3905 0.07673 0.21523 0.0
C965 C 0.38588 0.09815 0.19383 0.0
C966 C 0.39606 0.97144 0.18986 0.0
C967 C 0.39065 0.09863 0.23901 0.0
C968 C 0.3598 0.98567 0.27216 0.0
C969 C 0.39556 0.98254 0.28468 0.0
C970 C 0.35871 0.00094 0.24861 0.0
C971 C 0.39435 0.01239 0.23719 0.0
C972 C 0.43075 0.0066 0.24916 0.0
C973 C 0.43088 0.99223 0.2729 0.0
C974 C 0.31923 0.00726 0.23659 0.0
C975 C 0.46943 0.01744 0.23738 0.0
H976 H 0.38462 0.02284 0.15321 0.0
H977 H 0.38275 0.12991 0.19493 0.0
H978 H 0.42124 0.96086 0.2009 0.0
H979 H 0.36897 0.95741 0.19711 0.0
H980 H 0.40023 0.9614 0.17093 0.0
H981 H 0.38915 0.13113 0.2366 0.0
H982 H 0.36504 0.0892 0.25008 0.0
H983 H 0.41772 0.0915 0.24937 0.0
H984 H 0.33246 0.97822 0.28125 0.0
H985 H 0.45867 0.98923 0.28243 0.0
H986 H 0.3193 0.99462 0.21813 0.0
H987 H 0.31351 0.03936 0.23484 0.0
H988 H 0.29464 0.99379 0.24698 0.0
H989 H 0.47055 0.00608 0.2186 0.0
H990 H 0.49514 0.00568 0.24753 0.0
H991 H 0.47217 0.05001 0.23646 0.0
C992 C 0.35985 0.36642 0.55571 0.0
C993 C 0.34194 0.36333 0.5785 0.0
C994 C 0.33816 0.36118 0.53445 0.0
C995 C 0.29759 0.35168 0.53587 0.0
C996 C 0.27958 0.34675 0.55876 0.0
C997 C 0.30187 0.35313 0.57986 0.0
C998 C 0.35841 0.36745 0.51044 0.0
C999 C 0.2366 0.33572 0.56095 0.0
C1000 C 0.23873 0.3821 0.48072 0.0
C1001 C 0.23983 0.3476 0.46677 0.0
C1002 C 0.25601 0.38338 0.50373 0.0
C1003 C 0.27405 0.34906 0.51324 0.0
C1004 C 0.27324 0.31353 0.49982 0.0
C1005 C 0.25658 0.31334 0.4766 0.0
C1006 C 0.25692 0.42207 0.51725 0.0
C1007 C 0.29131 0.2761 0.50958 0.0
H1008 H 0.39067 0.37465 0.55438 0.0
H1009 H 0.28783 0.35059 0.59737 0.0
H1010 H 0.35541 0.34075 0.49902 0.0
H1011 H 0.34412 0.39218 0.50065 0.0
H1012 H 0.3903 0.3743 0.51247 0.0
H1013 H 0.22808 0.32906 0.57988 0.0
H1014 H 0.21797 0.36034 0.55433 0.0
H1015 H 0.23 0.30962 0.54955 0.0
H1016 H 0.22591 0.40869 0.4732 0.0
H1017 H 0.25702 0.28642 0.46603 0.0
H1018 H 0.28785 0.43255 0.51875 0.0
H1019 H 0.24554 0.41813 0.53586 0.0
H1020 H 0.23922 0.44529 0.50814 0.0
H1021 H 0.3239 0.27905 0.50996 0.0
H1022 H 0.28362 0.24996 0.49843 0.0
H1023 H 0.28138 0.27083 0.52839 0.0
C1024 C 0.93828 0.9893 0.22773 0.0
C1025 C 0.90286 0.97652 0.21721 0.0
C1026 C 0.93892 0.00504 0.25119 0.0
C1027 C 0.90313 0.00907 0.26415 0.0
C1028 C 0.86757 0.99467 0.254 0.0
C1029 C 0.86796 0.97814 0.23076 0.0
C1030 C 0.97758 0.01909 0.26163 0.0
C1031 C 0.82864 -0.00089 0.26697 0.0
C1032 C 0.89816 0.0382 0.33058 0.0
C1033 C 0.89186 0.07901 0.32882 0.0
C1034 C 0.90371 0.01506 0.30972 0.0
C1035 C 0.90182 0.03306 0.28665 0.0
C1036 C 0.89637 0.07431 0.28486 0.0
C1037 C 0.89197 0.09673 0.30589 0.0
C1038 C 0.91045 0.97128 0.31233 0.0
C1039 C 0.89333 0.0947 0.26065 0.0
H1040 H 0.96545 0.98759 0.21746 0.0
H1041 H 0.84048 0.96838 0.22272 0.0
H1042 H 0.9782 0.0518 0.26178 0.0
H1043 H 0.98079 0.00899 0.28058 0.0
H1044 H 0.00326 0.00841 0.25102 0.0
H1045 H 0.80427 0.98347 0.25757 0.0
H1046 H 0.83083 0.98761 0.28566 0.0
H1047 H 0.82092 0.03086 0.26824 0.0
H1048 H 0.89816 0.02427 0.34819 0.0
H1049 H 0.88675 0.12815 0.30419 0.0
H1050 H 0.93593 0.96187 0.30115 0.0
H1051 H 0.88419 0.95501 0.30573 0.0
H1052 H 0.91596 0.96264 0.33137 0.0
H1053 H 0.92009 0.08881 0.24972 0.0
H1054 H 0.88971 0.12714 0.26242 0.0
H1055 H 0.86769 0.08286 0.2505 0.0
C1056 C 0.14127 0.64911 0.06243 0.0
C1057 C 0.16124 0.64527 0.08454 0.0
C1058 C 0.16189 0.65229 0.04062 0.0
C1059 C 0.20362 0.65288 0.04084 0.0
C1060 C 0.224 0.65222 0.06316 0.0
C1061 C 0.20258 0.64792 0.08477 0.0
C1062 C 0.13894 0.65238 0.01721 0.0
C1063 C 0.26844 0.65411 0.06416 0.0
C1064 C 0.25032 0.6132 0.98349 0.0
C1065 C 0.25513 0.64781 0.97003 0.0
C1066 C 0.235 0.61453 0.00704 0.0
C1067 C 0.22542 0.65147 0.01754 0.0
C1068 C 0.23273 0.68664 0.00454 0.0
C1069 C 0.24691 0.68435 0.98078 0.0
C1070 C 0.22689 0.5763 0.02012 0.0
C1071 C 0.22407 0.7266 0.01533 0.0
H1072 H 0.10938 0.647 0.06189 0.0
H1073 H 0.21832 0.64516 0.10172 0.0
H1074 H 0.14731 0.6782 0.00606 0.0
H1075 H 0.14618 0.62549 0.00667 0.0
H1076 H 0.10654 0.65313 0.02019 0.0
H1077 H 0.27939 0.65936 0.08279 0.0
H1078 H 0.28098 0.62587 0.05757 0.0
H1079 H 0.27966 0.67788 0.05222 0.0
H1080 H 0.25657 0.58494 0.97515 0.0
H1081 H 0.25116 0.71122 0.97048 0.0
H1082 H 0.19461 0.57274 0.02269 0.0
H1083 H 0.2406 0.57672 0.03829 0.0
H1084 H 0.23817 0.55026 0.01008 0.0
H1085 H 0.19171 0.73091 0.0166 0.0
H1086 H 0.23662 0.75097 0.00434 0.0
H1087 H 0.23617 0.72858 0.03391 0.0
C1088 C 0.56556 0.00195 0.72351 0.0
C1089 C 0.60248 0.01005 0.71324 0.0
C1090 C 0.5625 0.98789 0.74728 0.0
C1091 C 0.59725 0.9805 0.7607 0.0
C1092 C 0.63456 0.98952 0.75056 0.0
C1093 C 0.63667 0.00479 0.72706 0.0
C1094 C 0.52218 0.97978 0.75773 0.0
C1095 C 0.67239 0.9811 0.76403 0.0
C1096 C 0.59995 0.95924 0.82812 0.0
C1097 C 0.60188 0.9179 0.82821 0.0
C1098 C 0.59596 0.98019 0.80632 0.0
C1099 C 0.59511 0.9593 0.78417 0.0
C1100 C 0.59539 0.91759 0.78427 0.0
C1101 C 0.59814 0.89747 0.80625 0.0
C1102 C 0.59448 0.02466 0.80694 0.0
C1103 C 0.59549 0.89409 0.76107 0.0
H1104 H 0.53906 0.00658 0.71292 0.0
H1105 H 0.66523 0.01095 0.71909 0.0
H1106 H 0.51767 0.94749 0.7594 0.0
H1107 H 0.51977 0.99257 0.77611 0.0
H1108 H 0.4982 0.99202 0.7463 0.0
H1109 H 0.69886 0.99147 0.75405 0.0
H1110 H 0.67192 0.99549 0.782 0.0
H1111 H 0.67522 0.94886 0.76708 0.0
H1112 H 0.60272 0.97525 0.84498 0.0
H1113 H 0.59992 0.86555 0.80598 0.0
H1114 H 0.57095 0.03579 0.7948 0.0
H1115 H 0.62291 0.03681 0.80038 0.0
H1116 H 0.58913 0.03606 0.82546 0.0
H1117 H 0.57014 0.90263 0.74956 0.0
H1118 H 0.59406 0.86178 0.76432 0.0
H1119 H 0.6228 0.9006 0.75075 0.0
C1120 C 0.41672 0.19204 0.04988 0.0
C1121 C 0.42566 0.16813 0.06976 0.0
C1122 C 0.44405 0.22016 0.04164 0.0
C1123 C 0.48032 0.2245 0.05401 0.0
C1124 C 0.49151 0.19605 0.07152 0.0
C1125 C 0.46385 0.16811 0.07917 0.0
C1126 C 0.43194 0.24812 0.02183 0.0
C1127 C 0.53034 0.19865 0.08484 0.0
C1128 C 0.56578 0.29399 0.0505 0.0
C1129 C 0.55695 0.31792 0.0704 0.0
C1130 C 0.53799 0.26671 0.04185 0.0
C1131 C 0.50148 0.26289 0.05398 0.0
C1132 C 0.49052 0.29135 0.07155 0.0
C1133 C 0.51863 0.31862 0.07958 0.0
C1134 C 0.54978 0.23884 0.02191 0.0
C1135 C 0.45137 0.28931 0.08454 0.0
H1136 H 0.38699 0.19203 0.04264 0.0
H1137 H 0.47046 0.14953 0.0946 0.0
H1138 H 0.4579 0.26078 0.01239 0.0
H1139 H 0.41287 0.23286 0.00844 0.0
H1140 H 0.41455 0.27269 0.02967 0.0
H1141 H 0.53594 0.17213 0.09611 0.0
H1142 H 0.55512 0.20203 0.07197 0.0
H1143 H 0.53021 0.22491 0.09683 0.0
H1144 H 0.59562 0.29355 0.04344 0.0
H1145 H 0.5121 0.33716 0.09504 0.0
H1146 H 0.52367 0.22781 0.01187 0.0
H1147 H 0.56545 0.21314 0.02975 0.0
H1148 H 0.57023 0.25352 0.00907 0.0
H1149 H 0.42685 0.28602 0.07147 0.0
H1150 H 0.44581 0.31604 0.09565 0.0
H1151 H 0.45097 0.2632 0.09663 0.0
C1152 C 0.54937 0.67189 0.30037 0.0
C1153 C 0.57522 0.6824 0.31904 0.0
C1154 C 0.52043 0.6985 0.29243 0.0
C1155 C 0.51744 0.7357 0.30382 0.0
C1156 C 0.54819 0.7486 0.31932 0.0
C1157 C 0.57674 0.72148 0.32689 0.0
C1158 C 0.48987 0.68458 0.27459 0.0
C1159 C 0.54728 0.78874 0.33116 0.0
C1160 C 0.44243 0.81699 0.30295 0.0
C1161 C 0.42344 0.80875 0.32485 0.0
C1162 C 0.46998 0.7903 0.29334 0.0
C1163 C 0.4784 0.75522 0.30617 0.0
C1164 C 0.45425 0.74421 0.326 0.0
C1165 C 0.42713 0.77141 0.33519 0.0
C1166 C 0.49327 0.80215 0.27133 0.0
C1167 C 0.46098 0.70636 0.33982 0.0
H1168 H 0.54836 0.6415 0.29427 0.0
H1169 H 0.5969 0.72941 0.34131 0.0
H1170 H 0.46593 0.66899 0.28436 0.0
H1171 H 0.47663 0.70963 0.26456 0.0
H1172 H 0.50298 0.66348 0.26151 0.0
H1173 H 0.57583 0.79606 0.33995 0.0
H1174 H 0.54043 0.81196 0.31773 0.0
H1175 H 0.52384 0.78932 0.34516 0.0
H1176 H 0.43945 0.84602 0.29494 0.0
H1177 H 0.41217 0.76523 0.35209 0.0
H1178 H 0.5058 0.77619 0.26184 0.0
H1179 H 0.51791 0.82172 0.27684 0.0
H1180 H 0.47441 0.81898 0.25857 0.0
H1181 H 0.46313 0.68096 0.32731 0.0
H1182 H 0.43691 0.70037 0.35294 0.0
H1183 H 0.48918 0.70833 0.34995 0.0
C1184 C 0.98099 0.67573 0.58153 0.0
C1185 C 0.94346 0.67113 0.57156 0.0
C1186 C 0.00728 0.70345 0.57205 0.0
C1187 C 0.99521 0.72712 0.55223 0.0
C1188 C 0.96025 0.71743 0.5396 0.0
C1189 C 0.9344 0.6894 0.54956 0.0
C1190 C 0.04512 0.7114 0.58568 0.0
C1191 C 0.94756 0.73981 0.51742 0.0
C1192 C 0.02467 0.82597 0.57386 0.0
C1193 C 0.06419 0.82544 0.56681 0.0
C1194 C 0.99861 0.79699 0.56552 0.0
C1195 C 0.01303 0.76697 0.54998 0.0
C1196 C 0.05053 0.77138 0.53915 0.0
C1197 C 0.07615 0.80054 0.548 0.0
C1198 C 0.95801 0.79471 0.57669 0.0
C1199 C 0.0658 0.74198 0.52102 0.0
H1200 H 0.98789 0.66112 0.59844 0.0
H1201 H 0.90531 0.68555 0.54174 0.0
H1202 H 0.07035 0.71376 0.57305 0.0
H1203 H 0.04264 0.73979 0.59555 0.0
H1204 H 0.0518 0.68782 0.59899 0.0
H1205 H 0.93249 0.71973 0.50452 0.0
H1206 H 0.92607 0.76297 0.52262 0.0
H1207 H 0.97288 0.75407 0.50819 0.0
H1208 H 0.0156 0.84549 0.58836 0.0
H1209 H 0.10684 0.80041 0.54243 0.0
H1210 H 0.95731 0.77065 0.59028 0.0
H1211 H 0.93553 0.78797 0.56276 0.0
H1212 H 0.9497 0.82269 0.58581 0.0
H1213 H 0.08242 0.71847 0.53053 0.0
H1214 H 0.08638 0.75643 0.50815 0.0
H1215 H 0.04138 0.728 0.51077 0.0
C1216 C 0.91927 0.26827 0.83092 0.0
C1217 C 0.91532 0.30648 0.82189 0.0
C1218 C 0.94753 0.24266 0.82132 0.0
C1219 C 0.97264 0.25634 0.80258 0.0
C1220 C 0.9636 0.29205 0.79062 0.0
C1221 C 0.93486 0.31706 0.80056 0.0
C1222 C 0.95463 0.2038 0.83397 0.0
C1223 C 0.98766 0.30649 0.76952 0.0
C1224 C 0.06999 0.22842 0.8273 0.0
C1225 C 0.07203 0.18968 0.81887 0.0
C1226 C 0.04093 0.25404 0.81866 0.0
C1227 C 0.01318 0.23985 0.80153 0.0
C1228 C 0.02022 0.20357 0.78971 0.0
C1229 C 0.0498 0.17854 0.79866 0.0
C1230 C 0.03597 0.29354 0.83095 0.0
C1231 C 0.99321 0.18859 0.77014 0.0
H1232 H 0.90377 0.26022 0.84733 0.0
H1233 H 0.93152 0.34671 0.79349 0.0
H1234 H 0.95907 0.17981 0.82067 0.0
H1235 H 0.98169 0.20591 0.84519 0.0
H1236 H 0.92964 0.19556 0.84594 0.0
H1237 H 0.96875 0.32313 0.75669 0.0
H1238 H 0.01083 0.32697 0.77608 0.0
H1239 H 0.00215 0.28183 0.75977 0.0
H1240 H 0.08761 0.23694 0.84281 0.0
H1241 H 0.0517 0.1485 0.792 0.0
H1242 H 0.01067 0.29219 0.84365 0.0
H1243 H 0.02972 0.31692 0.81751 0.0
H1244 H 0.06269 0.30211 0.84133 0.0
H1245 H 0.97034 0.16928 0.77824 0.0
H1246 H 0.00997 0.17061 0.75687 0.0
H1247 H 0.97824 0.2131 0.76053 0.0
C1248 C 0.52091 0.82432 0.92138 0.0
C1249 C 0.55979 0.82365 0.92963 0.0
C1250 C 0.49353 0.7967 0.92987 0.0
C1251 C 0.5059 0.7678 0.9468 0.0
C1252 C 0.54307 0.77167 0.95814 0.0
C1253 C 0.57001 0.79948 0.94915 0.0
C1254 C 0.45358 0.79469 0.91783 0.0
C1255 C 0.55649 0.7432 0.97735 0.0
C1256 C 0.42255 0.69559 0.95146 0.0
C1257 C 0.43031 0.67332 0.93069 0.0
C1258 C 0.45008 0.72351 0.9597 0.0
C1259 C 0.48542 0.72908 0.94654 0.0
C1260 C 0.49577 0.70191 0.9281 0.0
C1261 C 0.46781 0.67437 0.92033 0.0
C1262 C 0.43894 0.75013 0.9804 0.0
C1263 C 0.53377 0.70569 0.91402 0.0
H1264 H 0.51329 0.84309 0.90622 0.0
H1265 H 0.60029 0.7991 0.9555 0.0
H1266 H 0.45285 0.76933 0.90515 0.0
H1267 H 0.43002 0.79014 0.93141 0.0
H1268 H 0.44686 0.82195 0.90749 0.0
H1269 H 0.57745 0.75772 0.98997 0.0
H1270 H 0.5312 0.73129 0.98778 0.0
H1271 H 0.57213 0.71812 0.96876 0.0
H1272 H 0.39336 0.69468 0.95947 0.0
H1273 H 0.47357 0.65694 0.90428 0.0
H1274 H 0.42083 0.77495 0.97351 0.0
H1275 H 0.46534 0.76254 0.9895 0.0
H1276 H 0.42089 0.73388 0.99386 0.0
H1277 H 0.53255 0.73242 0.90246 0.0
H1278 H 0.5391 0.67973 0.90221 0.0
H1279 H 0.55923 0.70893 0.9264 0.0
C1280 C 0.42466 0.27206 0.67063 0.0
C1281 C 0.4234 0.30984 0.68062 0.0
C1282 C 0.45166 0.24416 0.67916 0.0
C1283 C 0.47811 0.25492 0.6979 0.0
C1284 C 0.47179 0.29037 0.7108 0.0
C1285 C 0.44444 0.31784 0.70184 0.0
C1286 C 0.45598 0.20585 0.66546 0.0
C1287 C 0.49736 0.30175 0.73195 0.0
C1288 C 0.55129 0.17251 0.7007 0.0
C1289 C 0.5754 0.18371 0.68134 0.0
C1290 C 0.52229 0.19836 0.70953 0.0
C1291 C 0.51739 0.2355 0.69829 0.0
C1292 C 0.54619 0.249 0.68161 0.0
C1293 C 0.57484 0.22267 0.67324 0.0
C1294 C 0.494 0.18377 0.72852 0.0
C1295 C 0.54317 0.28899 0.66969 0.0
H1296 H 0.40809 0.26604 0.65428 0.0
H1297 H 0.44327 0.34718 0.70963 0.0
H1298 H 0.48302 0.20691 0.65417 0.0
H1299 H 0.45896 0.18072 0.67811 0.0
H1300 H 0.43036 0.20012 0.65344 0.0
H1301 H 0.48051 0.3201 0.74497 0.0
H1302 H 0.50911 0.27541 0.74143 0.0
H1303 H 0.52267 0.31959 0.72546 0.0
H1304 H 0.55184 0.14219 0.70697 0.0
H1305 H 0.59365 0.23108 0.65825 0.0
H1306 H 0.47065 0.16573 0.71984 0.0
H1307 H 0.47971 0.20848 0.73832 0.0
H1308 H 0.50953 0.1646 0.74172 0.0
H1309 H 0.51775 0.28923 0.65705 0.0
H1310 H 0.57022 0.2965 0.65933 0.0
H1311 H 0.53816 0.31233 0.68335 0.0
C1312 C 0.07277 0.3034 0.45428 0.0
C1313 C 0.06171 0.32702 0.43467 0.0
C1314 C 0.04712 0.27412 0.46294 0.0
C1315 C 0.01042 0.26859 0.45129 0.0
C1316 C 0.99648 0.29774 0.435 0.0
C1317 C 0.02264 0.32666 0.42674 0.0
C1318 C 0.06179 0.24565 0.48179 0.0
C1319 C 0.95659 0.2944 0.42301 0.0
C1320 C 0.98127 0.17621 0.42001 0.0
C1321 C 0.94335 0.17135 0.42933 0.0
C1322 C 0.0068 0.20434 0.42983 0.0
C1323 C 0.99341 0.22837 0.44918 0.0
C1324 C 0.9579 0.21861 0.46119 0.0
C1325 C 0.93293 0.19005 0.45097 0.0
C1326 C 0.04532 0.21233 0.41696 0.0
C1327 C 0.9437 0.24148 0.48284 0.0
H1328 H 0.10308 0.30399 0.46056 0.0
H1329 H 0.01421 0.3453 0.41167 0.0
H1330 H 0.03701 0.23153 0.49164 0.0
H1331 H 0.07942 0.22215 0.47297 0.0
H1332 H 0.08127 0.26093 0.49493 0.0
H1333 H 0.94834 0.32197 0.41341 0.0
H1334 H 0.95708 0.26996 0.40967 0.0
H1335 H 0.93344 0.28769 0.43652 0.0
H1336 H 0.98915 0.16139 0.40333 0.0
H1337 H 0.90347 0.18605 0.45822 0.0
H1338 H 0.06971 0.21582 0.43011 0.0
H1339 H 0.04293 0.24015 0.4065 0.0
H1340 H 0.05323 0.18823 0.40426 0.0
H1341 H 0.9683 0.25631 0.49246 0.0
H1342 H 0.92809 0.22161 0.49561 0.0
H1343 H 0.92228 0.26425 0.47692 0.0
C1344 C 0.06744 0.71617 0.17979 0.0
C1345 C 0.06574 0.67685 0.18715 0.0
C1346 C 0.03812 0.74279 0.18694 0.0
C1347 C 0.00667 0.7292 0.20169 0.0
C1348 C 0.0095 0.69182 0.21286 0.0
C1349 C 0.03893 0.66559 0.20512 0.0
C1350 C 0.03737 0.78313 0.17536 0.0
C1351 C 0.97844 0.67738 0.23019 0.0
C1352 C 0.93088 0.80954 0.20025 0.0
C1353 C 0.9135 0.80066 0.17795 0.0
C1354 C 0.95786 0.78323 0.2108 0.0
C1355 C 0.96746 0.74798 0.19845 0.0
C1356 C 0.94463 0.73627 0.17818 0.0
C1357 C 0.91794 0.76302 0.16811 0.0
C1358 C 0.97933 0.7956 0.23339 0.0
C1359 C 0.95249 0.69815 0.16484 0.0
H1360 H 0.08836 0.72466 0.16591 0.0
H1361 H 0.03787 0.63504 0.21091 0.0
H1362 H 0.01427 0.7839 0.16115 0.0
H1363 H 0.0301 0.80606 0.18889 0.0
H1364 H 0.0661 0.79074 0.1669 0.0
H1365 H 0.99152 0.65688 0.24363 0.0
H1366 H 0.96404 0.70221 0.23983 0.0
H1367 H 0.95546 0.66089 0.22011 0.0
H1368 H 0.92719 0.83874 0.20793 0.0
H1369 H 0.90407 0.7563 0.15094 0.0
H1370 H 0.00358 0.81613 0.22857 0.0
H1371 H 0.99211 0.76999 0.24311 0.0
H1372 H 0.95907 0.81165 0.24572 0.0
H1373 H 0.98158 0.69982 0.15569 0.0
H1374 H 0.92964 0.69194 0.15096 0.0
H1375 H 0.95336 0.67298 0.17757 0.0
C1376 C 0.31158 0.32003 0.10039 0.0
C1377 C 0.28137 0.29238 0.10423 0.0
C1378 C 0.30338 0.36077 0.10025 0.0
C1379 C 0.26442 0.37387 0.1049 0.0
C1380 C 0.23372 0.34594 0.10782 0.0
C1381 C 0.24248 0.30578 0.10701 0.0
C1382 C 0.33674 0.38941 0.09607 0.0
C1383 C 0.19165 0.35829 0.11306 0.0
C1384 C 0.23127 0.46431 0.1378 0.0
C1385 C 0.20694 0.48087 0.12013 0.0
C1386 C 0.25506 0.43166 0.13233 0.0
C1387 C 0.25487 0.41621 0.10855 0.0
C1388 C 0.23515 0.43698 0.08997 0.0
C1389 C 0.21042 0.46857 0.0961 0.0
C1390 C 0.27581 0.41056 0.15267 0.0
C1391 C 0.2363 0.42293 0.06415 0.0
H1392 H 0.3417 0.30999 0.09802 0.0
H1393 H 0.21877 0.28484 0.10988 0.0
H1394 H 0.32631 0.41695 0.08733 0.0
H1395 H 0.35026 0.39728 0.11365 0.0
H1396 H 0.36012 0.376 0.08465 0.0
H1397 H 0.17165 0.33269 0.11567 0.0
H1398 H 0.19065 0.37669 0.12963 0.0
H1399 H 0.17998 0.37631 0.09797 0.0
H1400 H 0.22849 0.47405 0.15638 0.0
H1401 H 0.1919 0.48195 0.0824 0.0
H1402 H 0.30592 0.40164 0.14714 0.0
H1403 H 0.25921 0.38335 0.1573 0.0
H1404 H 0.27794 0.42917 0.16913 0.0
H1405 H 0.26591 0.41118 0.05952 0.0
H1406 H 0.22873 0.44708 0.0514 0.0
H1407 H 0.21455 0.39881 0.06167 0.0
C1408 C 0.27121 0.46748 0.36103 0.0
C1409 C 0.28205 0.43228 0.37255 0.0
C1410 C 0.29986 0.49559 0.35461 0.0
C1411 C 0.33981 0.48881 0.3608 0.0
C1412 C 0.35066 0.45332 0.3726 0.0
C1413 C 0.32172 0.42528 0.37796 0.0
C1414 C 0.28728 0.53247 0.34145 0.0
C1415 C 0.39284 0.44507 0.37995 0.0
C1416 C 0.43364 0.52888 0.33511 0.0
C1417 C 0.44637 0.55242 0.35437 0.0
C1418 C 0.3958 0.51224 0.33517 0.0
C1419 C 0.37103 0.51825 0.35541 0.0
C1420 C 0.38198 0.54598 0.37334 0.0
C1421 C 0.41958 0.56321 0.37243 0.0
C1422 C 0.38442 0.48436 0.31511 0.0
C1423 C 0.35651 0.55324 0.39523 0.0
H1424 H 0.24044 0.47276 0.35676 0.0
H1425 H 0.33 0.39823 0.3871 0.0
H1426 H 0.28705 0.55768 0.35421 0.0
H1427 H 0.30829 0.53971 0.32674 0.0
H1428 H 0.25723 0.52947 0.33364 0.0
H1429 H 0.39588 0.41683 0.38993 0.0
H1430 H 0.41192 0.44372 0.3637 0.0
H1431 H 0.40406 0.46926 0.39158 0.0
H1432 H 0.45434 0.52093 0.32099 0.0
H1433 H 0.42951 0.58141 0.38735 0.0
H1434 H 0.35261 0.48718 0.3107 0.0
H1435 H 0.3898 0.45355 0.321 0.0
H1436 H 0.40202 0.48983 0.29853 0.0
H1437 H 0.325 0.55571 0.39011 0.0
H1438 H 0.36541 0.58047 0.40498 0.0
H1439 H 0.35936 0.5279 0.4078 0.0
C1440 C 0.18292 0.67224 0.62047 0.0
C1441 C 0.19847 0.70058 0.6047 0.0
C1442 C 0.19953 0.63437 0.62181 0.0
C1443 C 0.23179 0.6247 0.60667 0.0
C1444 C 0.2436 0.65139 0.58839 0.0
C1445 C 0.2271 0.68929 0.58781 0.0
C1446 C 0.18594 0.60684 0.64152 0.0
C1447 C 0.27695 0.64178 0.57133 0.0
C1448 C 0.31798 0.57118 0.63494 0.0
C1449 C 0.31371 0.5329 0.62584 0.0
C1450 C 0.29078 0.60075 0.62931 0.0
C1451 C 0.25887 0.59215 0.61364 0.0
C1452 C 0.25412 0.55341 0.60447 0.0
C1453 C 0.28147 0.52398 0.61093 0.0
C1454 C 0.29658 0.6414 0.63999 0.0
C1455 C 0.22101 0.54338 0.58733 0.0
H1456 H 0.16069 0.68081 0.63353 0.0
H1457 H 0.23873 0.71101 0.57532 0.0
H1458 H 0.18581 0.57578 0.63524 0.0
H1459 H 0.20666 0.60887 0.65699 0.0
H1460 H 0.15594 0.6146 0.64806 0.0
H1461 H 0.27682 0.6614 0.55527 0.0
H1462 H 0.3055 0.64568 0.58085 0.0
H1463 H 0.27519 0.61067 0.56521 0.0
H1464 H 0.34259 0.57797 0.64675 0.0
H1465 H 0.27829 0.49437 0.6038 0.0
H1466 H 0.26943 0.65095 0.64954 0.0
H1467 H 0.30236 0.66301 0.62538 0.0
H1468 H 0.32159 0.64248 0.65293 0.0
H1469 H 0.19243 0.55447 0.59433 0.0
H1470 H 0.21856 0.51111 0.58418 0.0
H1471 H 0.22632 0.55808 0.56974 0.0
C1472 C 0.06718 0.44991 0.83701 0.0
C1473 C 0.05149 0.42804 0.85621 0.0
C1474 C 0.10463 0.4672 0.83883 0.0
C1475 C 0.12629 0.46293 0.86052 0.0
C1476 C 0.113 0.43612 0.87837 0.0
C1477 C 0.07569 0.4186 0.87588 0.0
C1478 C 0.11826 0.49448 0.81899 0.0
C1479 C 0.13528 0.43038 0.90168 0.0
C1480 C 0.22367 0.51778 0.86821 0.0
C1481 C 0.21065 0.55348 0.87831 0.0
C1482 C 0.19673 0.48769 0.86229 0.0
C1483 C 0.15608 0.49337 0.86696 0.0
C1484 C 0.143 0.52912 0.87756 0.0
C1485 C 0.17037 0.55877 0.88286 0.0
C1486 C 0.21165 0.45027 0.85072 0.0
C1487 C 0.09995 0.53621 0.8833 0.0
H1488 H 0.04863 0.45681 0.82162 0.0
H1489 H 0.06368 0.40163 0.89076 0.0
H1490 H 0.11121 0.52537 0.82403 0.0
H1491 H 0.15062 0.49242 0.81638 0.0
H1492 H 0.10333 0.4878 0.8016 0.0
H1493 H 0.12653 0.40255 0.91083 0.0
H1494 H 0.16759 0.43 0.89857 0.0
H1495 H 0.12865 0.45531 0.91403 0.0
H1496 H 0.25481 0.51361 0.86457 0.0
H1497 H 0.16018 0.58606 0.89095 0.0
H1498 H 0.20076 0.44851 0.83186 0.0
H1499 H 0.20014 0.42404 0.8604 0.0
H1500 H 0.24439 0.44884 0.85045 0.0
H1501 H 0.08227 0.53543 0.86645 0.0
H1502 H 0.09495 0.56508 0.89228 0.0
H1503 H 0.08867 0.51258 0.89532 0.0
C1504 C 0.68572 0.67354 0.87876 0.0
C1505 C 0.69839 0.70099 0.89602 0.0
C1506 C 0.70263 0.63587 0.87767 0.0
C1507 C 0.73205 0.62539 0.89464 0.0
C1508 C 0.74056 0.65098 0.91415 0.0
C1509 C 0.72401 0.68885 0.91442 0.0
C1510 C 0.69285 0.60966 0.85646 0.0
C1511 C 0.77063 0.64028 0.93314 0.0
C1512 C 0.77939 0.524 0.8896 0.0
C1513 C 0.81369 0.53312 0.8766 0.0
C1514 C 0.75262 0.55378 0.89615 0.0
C1515 C 0.75996 0.59309 0.88881 0.0
C1516 C 0.79441 0.60215 0.8754 0.0
C1517 C 0.82113 0.57212 0.86981 0.0
C1518 C 0.71688 0.54334 0.91109 0.0
C1519 C 0.80299 0.64356 0.86671 0.0
H1520 H 0.66579 0.68279 0.86453 0.0
H1521 H 0.73333 0.70988 0.92804 0.0
H1522 H 0.71646 0.61245 0.84268 0.0
H1523 H 0.69136 0.57825 0.86193 0.0
H1524 H 0.66437 0.61804 0.84796 0.0
H1525 H 0.76712 0.65855 0.94966 0.0
H1526 H 0.76828 0.60869 0.93814 0.0
H1527 H 0.80071 0.64532 0.92586 0.0
H1528 H 0.77393 0.49374 0.895 0.0
H1529 H 0.84751 0.57901 0.85956 0.0
H1530 H 0.68953 0.55206 0.9015 0.0
H1531 H 0.71754 0.55996 0.92834 0.0
H1532 H 0.71538 0.5113 0.91521 0.0
H1533 H 0.77795 0.65469 0.85574 0.0
H1534 H 0.83023 0.64516 0.8556 0.0
H1535 H 0.80648 0.66364 0.88237 0.0
C1536 C 0.73266 0.52882 0.64155 0.0
C1537 C 0.72176 0.56131 0.62734 0.0
C1538 C 0.70442 0.50092 0.64896 0.0
C1539 C 0.66473 0.50535 0.64148 0.0
C1540 C 0.65394 0.53763 0.62662 0.0
C1541 C 0.68248 0.56541 0.62001 0.0
C1542 C 0.7168 0.46741 0.6652 0.0
C1543 C 0.61209 0.54311 0.61777 0.0
C1544 C 0.58504 0.42876 0.63664 0.0
C1545 C 0.55817 0.44373 0.65352 0.0
C1546 C 0.62265 0.44562 0.63421 0.0
C1547 C 0.63351 0.47744 0.64941 0.0
C1548 C 0.60869 0.4882 0.66888 0.0
C1549 C 0.57093 0.47156 0.6705 0.0
C1550 C 0.64813 0.43317 0.61322 0.0
C1551 C 0.6197 0.521 0.68603 0.0
H1552 H 0.76306 0.52576 0.64735 0.0
H1553 H 0.67409 0.59023 0.60878 0.0
H1554 H 0.70289 0.47107 0.68319 0.0
H1555 H 0.70648 0.43881 0.65781 0.0
H1556 H 0.74931 0.46614 0.66762 0.0
H1557 H 0.60916 0.56861 0.6053 0.0
H1558 H 0.60191 0.51619 0.60822 0.0
H1559 H 0.59208 0.54791 0.63334 0.0
H1560 H 0.57513 0.4073 0.62343 0.0
H1561 H 0.55018 0.48288 0.68369 0.0
H1562 H 0.67986 0.43382 0.61807 0.0
H1563 H 0.64362 0.45404 0.59803 0.0
H1564 H 0.64039 0.40307 0.60683 0.0
H1565 H 0.65148 0.51971 0.69071 0.0
H1566 H 0.60205 0.5197 0.70291 0.0
H1567 H 0.61405 0.54985 0.67722 0.0
C1568 C 0.82537 0.32925 0.37972 0.0
C1569 C 0.81447 0.30329 0.39822 0.0
C1570 C 0.80812 0.36678 0.37808 0.0
C1571 C 0.78022 0.37856 0.3957 0.0
C1572 C 0.7742 0.35482 0.4164 0.0
C1573 C 0.79099 0.31707 0.41724 0.0
C1574 C 0.81544 0.39107 0.3557 0.0
C1575 C 0.74589 0.3669 0.43607 0.0
C1576 C 0.72766 0.47737 0.38917 0.0
C1577 C 0.6924 0.46557 0.37805 0.0
C1578 C 0.75671 0.44947 0.39533 0.0
C1579 C 0.75056 0.40924 0.38959 0.0
C1580 C 0.71522 0.39748 0.37793 0.0
C1581 C 0.68642 0.4257 0.37264 0.0
C1582 C 0.79348 0.46288 0.40831 0.0
C1583 C 0.70772 0.355 0.37092 0.0
H1584 H 0.84351 0.31862 0.36496 0.0
H1585 H 0.78292 0.29708 0.43172 0.0
H1586 H 0.79104 0.386 0.34269 0.0
H1587 H 0.81616 0.42302 0.35992 0.0
H1588 H 0.84359 0.38273 0.34678 0.0
H1589 H 0.75146 0.35039 0.45306 0.0
H1590 H 0.74808 0.39897 0.43981 0.0
H1591 H 0.71525 0.3606 0.43016 0.0
H1592 H 0.73216 0.50824 0.39348 0.0
H1593 H 0.65939 0.41662 0.36375 0.0
H1594 H 0.82022 0.45203 0.39888 0.0
H1595 H 0.7939 0.45018 0.42677 0.0
H1596 H 0.79518 0.49552 0.40979 0.0
H1597 H 0.73214 0.34391 0.35944 0.0
H1598 H 0.67958 0.35123 0.36091 0.0
H1599 H 0.7066 0.33629 0.38733 0.0
C1600 C 0.78439 0.47107 0.11347 0.0
C1601 C 0.76354 0.45148 0.13162 0.0
C1602 C 0.81819 0.49308 0.11908 0.0
C1603 C 0.83047 0.49621 0.14348 0.0
C1604 C 0.80643 0.48056 0.16205 0.0
C1605 C 0.77365 0.45741 0.15584 0.0
C1606 C 0.84316 0.50885 0.09867 0.0
C1607 C 0.81735 0.485 0.18831 0.0
C1608 C 0.94105 0.48876 0.14965 0.0
C1609 C 0.95242 0.52854 0.14962 0.0
C1610 C 0.90125 0.47798 0.14888 0.0
C1611 C 0.87188 0.50768 0.14878 0.0
C1612 C 0.88294 0.54776 0.15109 0.0
C1613 C 0.92319 0.55782 0.15117 0.0
C1614 C 0.89088 0.43478 0.14636 0.0
C1615 C 0.85252 0.58018 0.15212 0.0
H1616 H 0.77658 0.46597 0.09473 0.0
H1617 H 0.75726 0.44217 0.16983 0.0
H1618 H 0.85221 0.5397 0.10232 0.0
H1619 H 0.87043 0.4909 0.0971 0.0
H1620 H 0.82741 0.50788 0.08109 0.0
H1621 H 0.79135 0.48057 0.20022 0.0
H1622 H 0.83987 0.46261 0.19313 0.0
H1623 H 0.83013 0.51457 0.19189 0.0
H1624 H 0.96328 0.46585 0.14864 0.0
H1625 H 0.93165 0.58866 0.15151 0.0
H1626 H 0.87595 0.42968 0.12879 0.0
H1627 H 0.87011 0.42579 0.1608 0.0
H1628 H 0.91724 0.41539 0.14729 0.0
H1629 H 0.84243 0.58718 0.13356 0.0
H1630 H 0.86485 0.60755 0.16018 0.0
H1631 H 0.82635 0.57091 0.16274 0.0
C1632 C 0.83317 0.83188 0.61443 0.0
C1633 C 0.81441 0.80505 0.59898 0.0
C1634 C 0.8191 0.87067 0.61665 0.0
C1635 C 0.78606 0.88258 0.6028 0.0
C1636 C 0.77151 0.85745 0.58442 0.0
C1637 C 0.78555 0.81867 0.58293 0.0
C1638 C 0.83598 0.89675 0.63614 0.0
C1639 C 0.73735 0.86952 0.56861 0.0
C1640 C 0.70197 0.93419 0.6343 0.0
C1641 C 0.70447 0.97247 0.62502 0.0
C1642 C 0.7297 0.90547 0.6281 0.0
C1643 C 0.76036 0.91499 0.61169 0.0
C1644 C 0.76394 0.95406 0.60288 0.0
C1645 C 0.73599 0.9826 0.60985 0.0
C1646 C 0.7252 0.86445 0.63849 0.0
C1647 C 0.79587 0.96533 0.58521 0.0
H1648 H 0.85568 0.82146 0.62679 0.0
H1649 H 0.77149 0.79804 0.57068 0.0
H1650 H 0.83618 0.92812 0.63046 0.0
H1651 H 0.81734 0.89435 0.65255 0.0
H1652 H 0.86649 0.88779 0.64099 0.0
H1653 H 0.73511 0.85063 0.55227 0.0
H1654 H 0.70946 0.86668 0.57897 0.0
H1655 H 0.74027 0.90074 0.56291 0.0
H1656 H 0.67788 0.92658 0.64632 0.0
H1657 H 0.73779 0.01227 0.60262 0.0
H1658 H 0.75326 0.85471 0.6469 0.0
H1659 H 0.718 0.8433 0.62385 0.0
H1660 H 0.70152 0.86284 0.65232 0.0
H1661 H 0.82422 0.95073 0.58969 0.0
H1662 H 0.80052 0.99776 0.58471 0.0
H1663 H 0.78714 0.95554 0.56686 0.0
C1664 C 0.76157 0.98343 0.85964 0.0
C1665 C 0.7733 0.94873 0.87137 0.0
C1666 C 0.78958 0.01233 0.85329 0.0
C1667 C 0.82964 0.00677 0.85977 0.0
C1668 C 0.84109 0.9722 0.87235 0.0
C1669 C 0.81289 0.94345 0.87762 0.0
C1670 C 0.77638 0.0484 0.83956 0.0
C1671 C 0.88332 0.96521 0.8801 0.0
C1672 C 0.92369 0.04222 0.83254 0.0
C1673 C 0.93748 0.06638 0.85121 0.0
C1674 C 0.88513 0.02734 0.83299 0.0
C1675 C 0.86072 0.03569 0.8531 0.0
C1676 C 0.87277 0.06439 0.87016 0.0
C1677 C 0.91112 0.07985 0.86884 0.0
C1678 C 0.87272 0.99829 0.8138 0.0
C1679 C 0.84773 0.07426 0.89185 0.0
H1680 H 0.73082 0.9874 0.85484 0.0
H1681 H 0.82178 0.91681 0.88701 0.0
H1682 H 0.77687 0.07439 0.85171 0.0
H1683 H 0.79673 0.05466 0.82434 0.0
H1684 H 0.74598 0.04503 0.83234 0.0
H1685 H 0.88661 0.93802 0.89111 0.0
H1686 H 0.9025 0.96243 0.86397 0.0
H1687 H 0.89424 0.99058 0.89086 0.0
H1688 H 0.94407 0.03222 0.81873 0.0
H1689 H 0.92186 0.09859 0.88329 0.0
H1690 H 0.8409 0.00148 0.80953 0.0
H1691 H 0.87759 0.96783 0.8205 0.0
H1692 H 0.89012 0.00217 0.79697 0.0
H1693 H 0.81608 0.07586 0.88696 0.0
H1694 H 0.85675 0.1027 0.90015 0.0
H1695 H 0.85118 0.05068 0.90559 0.0
C1696 C 0.78769 0.02393 0.10919 0.0
C1697 C 0.82016 0.03162 0.12413 0.0
C1698 C 0.76225 0.05454 0.1021 0.0
C1699 C 0.76893 0.09318 0.1109 0.0
C1700 C 0.80149 0.10077 0.12628 0.0
C1701 C 0.82708 0.06999 0.13235 0.0
C1702 C 0.7287 0.04572 0.08501 0.0
C1703 C 0.80912 0.14135 0.1366 0.0
C1704 C 0.73508 0.19061 0.086 0.0
C1705 C 0.70609 0.20079 0.10291 0.0
C1706 C 0.75272 0.15321 0.08644 0.0
C1707 C 0.74191 0.12611 0.10473 0.0
C1708 C 0.70988 0.13485 0.12022 0.0
C1709 C 0.69191 0.172 0.11888 0.0
C1710 C 0.78568 0.14435 0.06895 0.0
C1711 C 0.69776 0.10711 0.14022 0.0
H1712 H 0.78273 0.99419 0.10265 0.0
H1713 H 0.8521 0.07572 0.14404 0.0
H1714 H 0.70019 0.05463 0.09317 0.0
H1715 H 0.73239 0.06317 0.06822 0.0
H1716 H 0.72715 0.01396 0.08018 0.0
H1717 H 0.83473 0.14177 0.14912 0.0
H1718 H 0.81492 0.16258 0.12179 0.0
H1719 H 0.78271 0.15189 0.14653 0.0
H1720 H 0.74573 0.2127 0.07343 0.0
H1721 H 0.66953 0.17976 0.13203 0.0
H1722 H 0.78443 0.1132 0.06286 0.0
H1723 H 0.81447 0.14891 0.07806 0.0
H1724 H 0.78451 0.16395 0.0529 0.0
H1725 H 0.69679 0.07618 0.13377 0.0
H1726 H 0.66845 0.11493 0.14782 0.0
H1727 H 0.71988 0.10864 0.15497 0.0
C1728 C 0.58227 0.92937 0.36546 0.0
C1729 C 0.55531 0.94502 0.34887 0.0
C1730 C 0.62007 0.9458 0.36786 0.0
C1731 C 0.63106 0.97784 0.35289 0.0
C1732 C 0.60598 0.98945 0.33372 0.0
C1733 C 0.56802 0.97328 0.33217 0.0
C1734 C 0.64569 0.93257 0.38861 0.0
C1735 C 0.61711 0.02254 0.31682 0.0
C1736 C 0.68232 0.06443 0.38235 0.0
C1737 C 0.7213 0.05972 0.37459 0.0
C1738 C 0.65316 0.03719 0.37593 0.0
C1739 C 0.66298 0.00498 0.36076 0.0
C1740 C 0.7024 -8e-05 0.3529 0.0
C1741 C 0.73133 0.02719 0.36019 0.0
C1742 C 0.61167 0.0432 0.38529 0.0
C1743 C 0.71374 0.96646 0.33633 0.0
H1744 H 0.57237 0.90763 0.37848 0.0
H1745 H 0.54716 0.98516 0.31923 0.0
H1746 H 0.67738 0.93317 0.38367 0.0
H1747 H 0.64143 0.953 0.40406 0.0
H1748 H 0.63782 0.90234 0.39468 0.0
H1749 H 0.59902 0.02201 0.30009 0.0
H1750 H 0.61219 0.05123 0.32599 0.0
H1751 H 0.64875 0.02084 0.31182 0.0
H1752 H 0.6747 0.08932 0.39373 0.0
H1753 H 0.76153 0.02372 0.3541 0.0
H1754 H 0.60129 0.01624 0.39471 0.0
H1755 H 0.59131 0.04871 0.36998 0.0
H1756 H 0.60957 0.06845 0.39801 0.0
H1757 H 0.70335 0.9379 0.34375 0.0
H1758 H 0.74613 0.96481 0.33344 0.0
H1759 H 0.69916 0.97048 0.31857 0.0
C1760 C 0.20956 0.17794 0.41794 0.0
C1761 C 0.18546 0.19165 0.39919 0.0
C1762 C 0.22694 0.14048 0.41675 0.0
C1763 C 0.22061 0.11679 0.39605 0.0
C1764 C 0.19201 0.12835 0.37879 0.0
C1765 C 0.17438 0.1657 0.38071 0.0
C1766 C 0.2562 0.1288 0.43599 0.0
C1767 C 0.18419 0.10402 0.35649 0.0
C1768 C 0.31408 0.07027 0.37188 0.0
C1769 C 0.30906 0.03045 0.37787 0.0
C1770 C 0.28509 0.09824 0.37735 0.0
C1771 C 0.25037 0.08632 0.38961 0.0
C1772 C 0.24506 0.04618 0.39585 0.0
C1773 C 0.27438 0.01856 0.38968 0.0
C1774 C 0.29178 0.14067 0.36998 0.0
C1775 C 0.20879 0.03257 0.40926 0.0
H1776 H 0.21782 0.19791 0.43239 0.0
H1777 H 0.15577 0.17625 0.36615 0.0
H1778 H 0.25465 0.09671 0.43975 0.0
H1779 H 0.2865 0.13553 0.4296 0.0
H1780 H 0.25111 0.14524 0.45306 0.0
H1781 H 0.15552 0.11189 0.34804 0.0
H1782 H 0.20792 0.10958 0.3431 0.0
H1783 H 0.18423 0.07204 0.36067 0.0
H1784 H 0.34057 0.07957 0.3625 0.0
H1785 H 0.27045 0.9878 0.39443 0.0
H1786 H 0.29286 0.15976 0.38623 0.0
H1787 H 0.26698 0.1511 0.35857 0.0
H1788 H 0.31969 0.14468 0.35975 0.0
H1789 H 0.20747 0.04716 0.42717 0.0
H1790 H 0.20843 0.00011 0.41199 0.0
H1791 H 0.18179 0.04125 0.39928 0.0
C1792 C 0.0784 0.9057 0.12612 0.0
C1793 C 0.05364 0.91627 0.14531 0.0
C1794 C 0.11678 0.92109 0.12461 0.0
C1795 C 0.13036 0.94702 0.14287 0.0
C1796 C 0.10799 0.9516 0.16426 0.0
C1797 C 0.06953 0.9365 0.16512 0.0
C1798 C 0.14011 0.91455 0.10177 0.0
C1799 C 0.12213 0.97747 0.18465 0.0
C1800 C 0.22747 0.00305 0.13618 0.0
C1801 C 0.21405 0.03884 0.12644 0.0
C1802 C 0.20085 0.97234 0.14152 0.0
C1803 C 0.16015 0.97761 0.1367 0.0
C1804 C 0.14679 0.01343 0.12634 0.0
C1805 C 0.1738 0.04355 0.12156 0.0
C1806 C 0.21622 0.93497 0.15291 0.0
C1807 C 0.10375 0.02026 0.1204 0.0
H1808 H 0.06629 0.88975 0.11085 0.0
H1809 H 0.05057 0.94404 0.1802 0.0
H1810 H 0.13539 0.9399 0.08942 0.0
H1811 H 0.17216 0.91262 0.10564 0.0
H1812 H 0.13061 0.88725 0.09231 0.0
H1813 H 0.1062 0.97093 0.20172 0.0
H1814 H 0.15425 0.97366 0.18767 0.0
H1815 H 0.11681 0.00885 0.17994 0.0
H1816 H 0.2586 -0.00067 0.14005 0.0
H1817 H 0.1633 0.07088 0.11368 0.0
H1818 H 0.20091 0.90858 0.14567 0.0
H1819 H 0.21067 0.93602 0.17264 0.0
H1820 H 0.24848 0.93152 0.15005 0.0
H1821 H 0.09274 0.99665 0.10827 0.0
H1822 H 0.09865 0.04914 0.11146 0.0
H1823 H 0.08587 0.01933 0.13716 0.0
C1824 C 0.21167 0.97865 0.89181 0.0
C1825 C 0.17934 0.96874 0.87721 0.0
C1826 C 0.2387 0.94963 0.89924 0.0
C1827 C 0.23358 0.91025 0.89133 0.0
C1828 C 0.20153 0.90053 0.87599 0.0
C1829 C 0.17455 0.92979 0.86942 0.0
C1830 C 0.27195 0.96085 0.91601 0.0
C1831 C 0.19543 0.85907 0.86661 0.0
C1832 C 0.30864 0.82923 0.88664 0.0
C1833 C 0.29255 0.80222 0.90304 0.0
C1834 C 0.2926 0.86718 0.88437 0.0
C1835 C 0.26049 0.87824 0.89927 0.0
C1836 C 0.24843 0.85306 0.91827 0.0
C1837 C 0.26422 0.81495 0.91969 0.0
C1838 C 0.30632 0.89298 0.86382 0.0
C1839 C 0.2153 0.86428 0.93512 0.0
H1840 H 0.21518 0.00883 0.89793 0.0
H1841 H 0.14981 0.92226 0.85789 0.0
H1842 H 0.26721 0.94679 0.93386 0.0
H1843 H 0.30053 0.94986 0.90897 0.0
H1844 H 0.27403 0.99328 0.91864 0.0
H1845 H 0.17039 0.85708 0.85373 0.0
H1846 H 0.22249 0.84852 0.85737 0.0
H1847 H 0.18951 0.83876 0.88189 0.0
H1848 H 0.33052 0.81933 0.8737 0.0
H1849 H 0.2521 0.79407 0.93255 0.0
H1850 H 0.30616 0.92457 0.86899 0.0
H1851 H 0.28589 0.88931 0.84832 0.0
H1852 H 0.33647 0.88481 0.85775 0.0
H1853 H 0.2172 0.89587 0.94021 0.0
H1854 H 0.21558 0.84608 0.95179 0.0
H1855 H 0.18664 0.85961 0.92586 0.0
C1856 C 0.27075 0.9856 0.62383 0.0
C1857 C 0.27029 0.94903 0.63568 0.0
C1858 C 0.30213 0.01209 0.62725 0.0
C1859 C 0.33337 0.00169 0.64296 0.0
C1860 C 0.33018 0.96729 0.65732 0.0
C1861 C 0.29883 0.94116 0.65334 0.0
C1862 C 0.30404 0.04884 0.61195 0.0
C1863 C 0.36225 0.95567 0.67483 0.0
C1864 C 0.43798 0.01469 0.62168 0.0
C1865 C 0.45205 0.04444 0.63691 0.0
C1866 C 0.39881 0.00229 0.62268 0.0
C1867 C 0.37293 0.01977 0.63965 0.0
C1868 C 0.38638 0.05137 0.65431 0.0
C1869 C 0.42606 0.06362 0.65266 0.0
C1870 C 0.38577 0.96907 0.60627 0.0
C1871 C 0.35972 0.07082 0.67255 0.0
H1872 H 0.24843 0.99217 0.61039 0.0
H1873 H 0.298 0.91341 0.66306 0.0
H1874 H 0.31682 0.07384 0.62225 0.0
H1875 H 0.32337 0.0433 0.59614 0.0
H1876 H 0.27441 0.05745 0.60519 0.0
H1877 H 0.35204 0.93274 0.68772 0.0
H1878 H 0.38777 0.9437 0.66463 0.0
H1879 H 0.3727 0.98166 0.68518 0.0
H1880 H 0.45807 0.00046 0.60915 0.0
H1881 H 0.43708 0.08679 0.66435 0.0
H1882 H 0.35881 0.97762 0.5962 0.0
H1883 H 0.37848 0.94265 0.61721 0.0
H1884 H 0.40888 0.96073 0.59299 0.0
H1885 H 0.3292 0.07373 0.66554 0.0
H1886 H 0.3708 0.10048 0.67775 0.0
H1887 H 0.35848 0.05232 0.68905 0.0
loop_
_geom_bond_atom_site_label_1
_geom_bond_atom_site_label_2
_geom_bond_distance
_geom_bond_site_symmetry_2
_ccdc_geom_bond_type
Sc0 O3 2.025 . S
Sc0 O10 2.105 . S
Sc0 O13 2.105 . S
Sc0 O16 2.105 . S
Sc0 O19 2.105 . S
Sc1 O3 2.025 . S
Sc1 O11 2.105 . S
Sc1 O15 2.105 . S
Sc1 O17 2.105 . S
Sc1 O21 2.105 . S
Sc2 O3 2.025 . S
Sc2 O12 2.105 . S
Sc2 O14 2.105 . S
Sc2 O18 2.105 . S
Sc2 O20 2.105 . S
O3 Sc0 2.025 . S
O3 Sc1 2.025 . S
O3 Sc2 2.025 . S
C4 O10 1.268 . S
C4 O20 1.268 . S
C5 O11 1.268 . S
C5 O19 1.268 . S
C6 O12 1.268 . S
C6 O21 1.268 . S
C7 O13 1.268 . S
C7 O17 1.268 . S
C8 O14 1.268 . S
C8 O16 1.268 . S
C9 O15 1.268 . S
C9 O18 1.268 . S
O10 Sc0 2.105 . S
O10 C4 1.268 . S
O11 Sc1 2.105 . S
O11 C5 1.268 . S
O12 Sc2 2.105 . S
O12 C6 1.268 . S
O13 Sc0 2.105 . S
O13 C7 1.268 . S
O14 Sc2 2.105 . S
O14 C8 1.268 . S
O15 Sc1 2.105 . S
O15 C9 1.268 . S
O16 Sc0 2.105 . S
O16 C8 1.268 . S
O17 Sc1 2.105 . S
O17 C7 1.268 . S
O18 Sc2 2.105 . S
O18 C9 1.268 . S
O19 Sc0 2.105 . S
O19 C5 1.268 . S
O20 Sc2 2.105 . S
O20 C4 1.268 . S
O21 Sc1 2.105 . S
O21 C6 1.268 . S
Sc22 O25 2.025 . S
Sc22 O32 2.105 . S
Sc22 O35 2.105 . S
Sc22 O38 2.105 . S
Sc22 O41 2.105 . S
Sc23 O25 2.025 . S
Sc23 O33 2.105 . S
Sc23 O37 2.105 . S
Sc23 O39 2.105 . S
Sc23 O43 2.105 . S
Sc24 O25 2.025 . S
Sc24 O34 2.105 . S
Sc24 O36 2.105 . S
Sc24 O40 2.105 . S
Sc24 O42 2.105 . S
O25 Sc22 2.025 . S
O25 Sc23 2.025 . S
O25 Sc24 2.025 . S
C26 O32 1.268 . S
C26 O42 1.268 . S
C27 O33 1.268 . S
C27 O41 1.268 . S
C28 O34 1.268 . S
C28 O43 1.268 . S
C29 O35 1.268 . S
C29 O39 1.268 . S
C30 O36 1.268 . S
C30 O38 1.268 . S
C31 O37 1.268 . S
C31 O40 1.268 . S
O32 Sc22 2.105 . S
O32 C26 1.268 . S
O33 Sc23 2.105 . S
O33 C27 1.268 . S
O34 Sc24 2.105 . S
O34 C28 1.268 . S
O35 Sc22 2.105 . S
O35 C29 1.268 . S
O36 Sc24 2.105 . S
O36 C30 1.268 . S
O37 Sc23 2.105 . S
O37 C31 1.268 . S
O38 Sc22 2.105 . S
O38 C30 1.268 . S
O39 Sc23 2.105 . S
O39 C29 1.268 . S
O40 Sc24 2.105 . S
O40 C31 1.268 . S
O41 Sc22 2.105 . S
O41 C27 1.268 . S
O42 Sc24 2.105 . S
O42 C26 1.268 . S
O43 Sc23 2.105 . S
O43 C28 1.268 . S
Sc44 O47 2.025 . S
Sc44 O54 2.105 . S
Sc44 O57 2.105 . S
Sc44 O60 2.105 . S
Sc44 O63 2.105 . S
Sc45 O47 2.025 . S
Sc45 O55 2.105 . S
Sc45 O59 2.105 . S
Sc45 O61 2.105 . S
Sc45 O65 2.105 . S
Sc46 O47 2.025 . S
Sc46 O56 2.105 . S
Sc46 O58 2.105 . S
Sc46 O62 2.105 . S
Sc46 O64 2.105 . S
O47 Sc44 2.025 . S
O47 Sc45 2.025 . S
O47 Sc46 2.025 . S
C48 O54 1.268 . S
C48 O64 1.268 . S
C49 O55 1.268 . S
C49 O63 1.268 . S
C50 O56 1.268 . S
C50 O65 1.268 . S
C51 O57 1.268 . S
C51 O61 1.268 . S
C52 O58 1.268 . S
C52 O60 1.268 . S
C53 O59 1.268 . S
C53 O62 1.268 . S
O54 Sc44 2.105 . S
O54 C48 1.268 . S
O55 Sc45 2.105 . S
O55 C49 1.268 . S
O56 Sc46 2.105 . S
O56 C50 1.268 . S
O57 Sc44 2.105 . S
O57 C51 1.268 . S
O58 Sc46 2.105 . S
O58 C52 1.268 . S
O59 Sc45 2.105 . S
O59 C53 1.268 . S
O60 Sc44 2.105 . S
O60 C52 1.268 . S
O61 Sc45 2.105 . S
O61 C51 1.268 . S
O62 Sc46 2.105 . S
O62 C53 1.268 . S
O63 Sc44 2.105 . S
O63 C49 1.268 . S
O64 Sc46 2.105 . S
O64 C48 1.268 . S
O65 Sc45 2.105 . S
O65 C50 1.268 . S
Sc66 O69 2.025 . S
Sc66 O76 2.105 . S
Sc66 O79 2.105 . S
Sc66 O82 2.105 . S
Sc66 O85 2.105 . S
Sc67 O69 2.025 . S
Sc67 O77 2.105 . S
Sc67 O81 2.105 . S
Sc67 O83 2.105 . S
Sc67 O87 2.105 . S
Sc68 O69 2.025 . S
Sc68 O78 2.105 . S
Sc68 O80 2.105 . S
Sc68 O84 2.105 . S
Sc68 O86 2.105 . S
O69 Sc66 2.025 . S
O69 Sc67 2.025 . S
O69 Sc68 2.025 . S
C70 O76 1.268 . S
C70 O86 1.268 . S
C71 O77 1.268 . S
C71 O85 1.268 . S
C72 O78 1.268 . S
C72 O87 1.268 . S
C73 O79 1.268 . S
C73 O83 1.268 . S
C74 O80 1.268 . S
C74 O82 1.268 . S
C75 O81 1.268 1_455 S
C75 O84 1.268 1_455 S
O76 Sc66 2.105 . S
O76 C70 1.268 . S
O77 Sc67 2.105 . S
O77 C71 1.268 . S
O78 Sc68 2.105 . S
O78 C72 1.268 . S
O79 Sc66 2.105 . S
O79 C73 1.268 . S
O80 Sc68 2.105 . S
O80 C74 1.268 . S
O81 Sc67 2.105 . S
O81 C75 1.268 1_655 S
O82 Sc66 2.105 . S
O82 C74 1.268 . S
O83 Sc67 2.105 . S
O83 C73 1.268 . S
O84 Sc68 2.105 . S
O84 C75 1.268 1_655 S
O85 Sc66 2.105 . S
O85 C71 1.268 . S
O86 Sc68 2.105 . S
O86 C70 1.268 . S
O87 Sc67 2.105 . S
O87 C72 1.268 . S
Sc88 O91 2.025 . S
Sc88 O98 2.105 . S
Sc88 O101 2.105 . S
Sc88 O104 2.105 . S
Sc88 O107 2.105 . S
Sc89 O91 2.025 . S
Sc89 O99 2.105 . S
Sc89 O103 2.105 . S
Sc89 O105 2.105 . S
Sc89 O109 2.105 . S
Sc90 O91 2.025 . S
Sc90 O100 2.105 . S
Sc90 O102 2.105 . S
Sc90 O106 2.105 . S
Sc90 O108 2.105 . S
O91 Sc88 2.025 . S
O91 Sc89 2.025 . S
O91 Sc90 2.025 . S
C92 O98 1.268 . S
C92 O108 1.268 . S
C93 O99 1.268 . S
C93 O107 1.268 . S
C94 O100 1.268 . S
C94 O109 1.268 . S
C95 O101 1.268 . S
C95 O105 1.268 . S
C96 O102 1.268 . S
C96 O104 1.268 . S
C97 O103 1.268 . S
C97 O106 1.268 . S
O98 Sc88 2.105 . S
O98 C92 1.268 . S
O99 Sc89 2.105 . S
O99 C93 1.268 . S
O100 Sc90 2.105 . S
O100 C94 1.268 . S
O101 Sc88 2.105 . S
O101 C95 1.268 . S
O102 Sc90 2.105 . S
O102 C96 1.268 . S
O103 Sc89 2.105 . S
O103 C97 1.268 . S
O104 Sc88 2.105 . S
O104 C96 1.268 . S
O105 Sc89 2.105 . S
O105 C95 1.268 . S
O106 Sc90 2.105 . S
O106 C97 1.268 . S
O107 Sc88 2.105 . S
O107 C93 1.268 . S
O108 Sc90 2.105 . S
O108 C92 1.268 . S
O109 Sc89 2.105 . S
O109 C94 1.268 . S
Sc110 O113 2.025 . S
Sc110 O120 2.105 . S
Sc110 O123 2.105 . S
Sc110 O126 2.105 . S
Sc110 O129 2.105 . S
Sc111 O113 2.025 . S
Sc111 O121 2.105 . S
Sc111 O125 2.105 . S
Sc111 O127 2.105 . S
Sc111 O131 2.105 . S
Sc112 O113 2.025 . S
Sc112 O122 2.105 . S
Sc112 O124 2.105 . S
Sc112 O128 2.105 . S
Sc112 O130 2.105 . S
O113 Sc110 2.025 . S
O113 Sc111 2.025 . S
O113 Sc112 2.025 . S
C114 O120 1.268 . S
C114 O130 1.268 . S
C115 O121 1.268 . S
C115 O129 1.268 . S
C116 O122 1.268 . S
C116 O131 1.268 . S
C117 O123 1.268 . S
C117 O127 1.268 . S
C118 O124 1.268 . S
C118 O126 1.268 . S
C119 O125 1.268 . S
C119 O128 1.268 . S
O120 Sc110 2.105 . S
O120 C114 1.268 . S
O121 Sc111 2.105 . S
O121 C115 1.268 . S
O122 Sc112 2.105 . S
O122 C116 1.268 . S
O123 Sc110 2.105 . S
O123 C117 1.268 . S
O124 Sc112 2.105 . S
O124 C118 1.268 . S
O125 Sc111 2.105 . S
O125 C119 1.268 . S
O126 Sc110 2.105 . S
O126 C118 1.268 . S
O127 Sc111 2.105 . S
O127 C117 1.268 . S
O128 Sc112 2.105 . S
O128 C119 1.268 . S
O129 Sc110 2.105 . S
O129 C115 1.268 . S
O130 Sc112 2.105 . S
O130 C114 1.268 . S
O131 Sc111 2.105 . S
O131 C116 1.268 . S
Sc132 O135 2.025 . S
Sc132 O142 2.105 . S
Sc132 O145 2.105 . S
Sc132 O148 2.105 . S
Sc132 O151 2.105 . S
Sc133 O135 2.025 . S
Sc133 O143 2.105 . S
Sc133 O147 2.105 . S
Sc133 O149 2.105 . S
Sc133 O153 2.105 . S
Sc134 O135 2.025 . S
Sc134 O144 2.105 . S
Sc134 O146 2.105 . S
Sc134 O150 2.105 . S
Sc134 O152 2.105 . S
O135 Sc132 2.025 . S
O135 Sc133 2.025 . S
O135 Sc134 2.025 . S
C136 O142 1.268 . S
C136 O152 1.268 . S
C137 O143 1.268 . S
C137 O151 1.268 . S
C138 O144 1.268 . S
C138 O153 1.268 . S
C139 O145 1.268 . S
C139 O149 1.268 . S
C140 O146 1.268 . S
C140 O148 1.268 . S
C141 O147 1.268 . S
C141 O150 1.268 . S
O142 Sc132 2.105 . S
O142 C136 1.268 . S
O143 Sc133 2.105 . S
O143 C137 1.268 . S
O144 Sc134 2.105 . S
O144 C138 1.268 . S
O145 Sc132 2.105 . S
O145 C139 1.268 . S
O146 Sc134 2.105 . S
O146 C140 1.268 . S
O147 Sc133 2.105 . S
O147 C141 1.268 . S
O148 Sc132 2.105 . S
O148 C140 1.268 . S
O149 Sc133 2.105 . S
O149 C139 1.268 . S
O150 Sc134 2.105 . S
O150 C141 1.268 . S
O151 Sc132 2.105 . S
O151 C137 1.268 . S
O152 Sc134 2.105 . S
O152 C136 1.268 . S
O153 Sc133 2.105 . S
O153 C138 1.268 . S
Sc154 O157 2.025 . S
Sc154 O164 2.105 . S
Sc154 O167 2.105 . S
Sc154 O170 2.105 . S
Sc154 O173 2.105 . S
Sc155 O157 2.025 . S
Sc155 O165 2.105 . S
Sc155 O169 2.105 . S
Sc155 O171 2.105 . S
Sc155 O175 2.105 . S
Sc156 O157 2.025 . S
Sc156 O166 2.105 . S
Sc156 O168 2.105 . S
Sc156 O172 2.105 . S
Sc156 O174 2.105 . S
O157 Sc154 2.025 . S
O157 Sc155 2.025 . S
O157 Sc156 2.025 . S
C158 O164 1.268 . S
C158 O174 1.268 . S
C159 O165 1.268 . S
C159 O173 1.268 . S
C160 O166 1.268 . S
C160 O175 1.268 . S
C161 O167 1.268 1_655 S
C161 O171 1.268 1_655 S
C162 O168 1.268 . S
C162 O170 1.268 . S
C163 O169 1.268 . S
C163 O172 1.268 . S
O164 Sc154 2.105 . S
O164 C158 1.268 . S
O165 Sc155 2.105 . S
O165 C159 1.268 . S
O166 Sc156 2.105 . S
O166 C160 1.268 . S
O167 Sc154 2.105 . S
O167 C161 1.268 1_455 S
O168 Sc156 2.105 . S
O168 C162 1.268 . S
O169 Sc155 2.105 . S
O169 C163 1.268 . S
O170 Sc154 2.105 . S
O170 C162 1.268 . S
O171 Sc155 2.105 . S
O171 C161 1.268 1_455 S
O172 Sc156 2.105 . S
O172 C163 1.268 . S
O173 Sc154 2.105 . S
O173 C159 1.268 . S
O174 Sc156 2.105 . S
O174 C158 1.268 . S
O175 Sc155 2.105 . S
O175 C160 1.268 . S
Sc176 O179 2.025 . S
Sc176 O186 2.105 . S
Sc176 O189 2.105 . S
Sc176 O192 2.105 . S
Sc176 O195 2.105 . S
Sc177 O179 2.025 . S
Sc177 O187 2.105 . S
Sc177 O191 2.105 . S
Sc177 O193 2.105 . S
Sc177 O197 2.105 . S
Sc178 O179 2.025 . S
Sc178 O188 2.105 . S
Sc178 O190 2.105 . S
Sc178 O194 2.105 . S
Sc178 O196 2.105 . S
O179 Sc176 2.025 . S
O179 Sc177 2.025 . S
O179 Sc178 2.025 . S
C180 O186 1.268 . S
C180 O196 1.268 . S
C181 O187 1.268 . S
C181 O195 1.268 . S
C182 O188 1.268 . S
C182 O197 1.268 . S
C183 O189 1.268 . S
C183 O193 1.268 . S
C184 O190 1.268 . S
C184 O192 1.268 . S
C185 O191 1.268 . S
C185 O194 1.268 . S
O186 Sc176 2.105 . S
O186 C180 1.268 . S
O187 Sc177 2.105 . S
O187 C181 1.268 . S
O188 Sc178 2.105 . S
O188 C182 1.268 . S
O189 Sc176 2.105 . S
O189 C183 1.268 . S
O190 Sc178 2.105 . S
O190 C184 1.268 . S
O191 Sc177 2.105 . S
O191 C185 1.268 . S
O192 Sc176 2.105 . S
O192 C184 1.268 . S
O193 Sc177 2.105 . S
O193 C183 1.268 . S
O194 Sc178 2.105 . S
O194 C185 1.268 . S
O195 Sc176 2.105 . S
O195 C181 1.268 . S
O196 Sc178 2.105 . S
O196 C180 1.268 . S
O197 Sc177 2.105 . S
O197 C182 1.268 . S
Sc198 O201 2.025 . S
Sc198 O208 2.105 . S
Sc198 O211 2.105 . S
Sc198 O214 2.105 . S
Sc198 O217 2.105 . S
Sc199 O201 2.025 . S
Sc199 O209 2.105 . S
Sc199 O213 2.105 1_545 S
Sc199 O215 2.105 . S
Sc199 O219 2.105 . S
Sc200 O201 2.025 . S
Sc200 O210 2.105 . S
Sc200 O212 2.105 . S
Sc200 O216 2.105 . S
Sc200 O218 2.105 . S
O201 Sc198 2.025 . S
O201 Sc199 2.025 . S
O201 Sc200 2.025 . S
C202 O208 1.268 . S
C202 O218 1.268 . S
C203 O209 1.268 1_655 S
C203 O217 1.268 1_655 S
C204 O210 1.268 . S
C204 O219 1.268 . S
C205 O211 1.268 . S
C205 O215 1.268 . S
C206 O212 1.268 . S
C206 O214 1.268 . S
C207 O213 1.268 1_545 S
C207 O216 1.268 . S
O208 Sc198 2.105 . S
O208 C202 1.268 . S
O209 Sc199 2.105 . S
O209 C203 1.268 1_455 S
O210 Sc200 2.105 . S
O210 C204 1.268 . S
O211 Sc198 2.105 . S
O211 C205 1.268 . S
O212 Sc200 2.105 . S
O212 C206 1.268 . S
O213 Sc199 2.105 1_565 S
O213 C207 1.268 1_565 S
O214 Sc198 2.105 . S
O214 C206 1.268 . S
O215 Sc199 2.105 . S
O215 C205 1.268 . S
O216 Sc200 2.105 . S
O216 C207 1.268 . S
O217 Sc198 2.105 . S
O217 C203 1.268 1_455 S
O218 Sc200 2.105 . S
O218 C202 1.268 . S
O219 Sc199 2.105 . S
O219 C204 1.268 . S
Sc220 O223 2.025 . S
Sc220 O230 2.105 . S
Sc220 O233 2.105 . S
Sc220 O236 2.105 . S
Sc220 O239 2.105 . S
Sc221 O223 2.025 . S
Sc221 O231 2.105 . S
Sc221 O235 2.105 . S
Sc221 O237 2.105 . S
Sc221 O241 2.105 . S
Sc222 O223 2.025 . S
Sc222 O232 2.105 . S
Sc222 O234 2.105 . S
Sc222 O238 2.105 . S
Sc222 O240 2.105 . S
O223 Sc220 2.025 . S
O223 Sc221 2.025 . S
O223 Sc222 2.025 . S
C224 O230 1.268 . S
C224 O240 1.268 . S
C225 O231 1.268 . S
C225 O239 1.268 . S
C226 O232 1.268 . S
C226 O241 1.268 . S
C227 O233 1.268 . S
C227 O237 1.268 . S
C228 O234 1.268 . S
C228 O236 1.268 . S
C229 O235 1.268 . S
C229 O238 1.268 . S
O230 Sc220 2.105 . S
O230 C224 1.268 . S
O231 Sc221 2.105 . S
O231 C225 1.268 . S
O232 Sc222 2.105 . S
O232 C226 1.268 . S
O233 Sc220 2.105 . S
O233 C227 1.268 . S
O234 Sc222 2.105 . S
O234 C228 1.268 . S
O235 Sc221 2.105 . S
O235 C229 1.268 . S
O236 Sc220 2.105 . S
O236 C228 1.268 . S
O237 Sc221 2.105 . S
O237 C227 1.268 . S
O238 Sc222 2.105 . S
O238 C229 1.268 . S
O239 Sc220 2.105 . S
O239 C225 1.268 . S
O240 Sc222 2.105 . S
O240 C224 1.268 . S
O241 Sc221 2.105 . S
O241 C226 1.268 . S
Sc242 O245 2.025 . S
Sc242 O252 2.105 . S
Sc242 O255 2.105 . S
Sc242 O258 2.105 . S
Sc242 O261 2.105 . S
Sc243 O245 2.025 . S
Sc243 O253 2.105 1_565 S
Sc243 O257 2.105 . S
Sc243 O259 2.105 . S
Sc243 O263 2.105 . S
Sc244 O245 2.025 . S
Sc244 O254 2.105 . S
Sc244 O256 2.105 . S
Sc244 O260 2.105 . S
Sc244 O262 2.105 . S
O245 Sc242 2.025 . S
O245 Sc243 2.025 . S
O245 Sc244 2.025 . S
C246 O252 1.268 . S
C246 O262 1.268 . S
C247 O253 1.268 1_565 S
C247 O261 1.268 . S
C248 O254 1.268 . S
C248 O263 1.268 . S
C249 O255 1.268 . S
C249 O259 1.268 . S
C250 O256 1.268 . S
C250 O258 1.268 . S
C251 O257 1.268 . S
C251 O260 1.268 . S
O252 Sc242 2.105 . S
O252 C246 1.268 . S
O253 Sc243 2.105 1_545 S
O253 C247 1.268 1_545 S
O254 Sc244 2.105 . S
O254 C248 1.268 . S
O255 Sc242 2.105 . S
O255 C249 1.268 . S
O256 Sc244 2.105 . S
O256 C250 1.268 . S
O257 Sc243 2.105 . S
O257 C251 1.268 . S
O258 Sc242 2.105 . S
O258 C250 1.268 . S
O259 Sc243 2.105 . S
O259 C249 1.268 . S
O260 Sc244 2.105 . S
O260 C251 1.268 . S
O261 Sc242 2.105 . S
O261 C247 1.268 . S
O262 Sc244 2.105 . S
O262 C246 1.268 . S
O263 Sc243 2.105 . S
O263 C248 1.268 . S
Sc264 O267 2.025 . S
Sc264 O274 2.105 . S
Sc264 O277 2.105 . S
Sc264 O280 2.105 . S
Sc264 O283 2.105 . S
Sc265 O267 2.025 . S
Sc265 O275 2.105 . S
Sc265 O279 2.105 . S
Sc265 O281 2.105 . S
Sc265 O285 2.105 . S
Sc266 O267 2.025 . S
Sc266 O276 2.105 . S
Sc266 O278 2.105 . S
Sc266 O282 2.105 . S
Sc266 O284 2.105 . S
O267 Sc264 2.025 . S
O267 Sc265 2.025 . S
O267 Sc266 2.025 . S
C268 O274 1.268 . S
C268 O284 1.268 . S
C269 O275 1.268 . S
C269 O283 1.268 . S
C270 O276 1.268 . S
C270 O285 1.268 . S
C271 O277 1.268 . S
C271 O281 1.268 . S
C272 O278 1.268 . S
C272 O280 1.268 . S
C273 O279 1.268 . S
C273 O282 1.268 . S
O274 Sc264 2.105 . S
O274 C268 1.268 . S
O275 Sc265 2.105 . S
O275 C269 1.268 . S
O276 Sc266 2.105 . S
O276 C270 1.268 . S
O277 Sc264 2.105 . S
O277 C271 1.268 . S
O278 Sc266 2.105 . S
O278 C272 1.268 . S
O279 Sc265 2.105 . S
O279 C273 1.268 . S
O280 Sc264 2.105 . S
O280 C272 1.268 . S
O281 Sc265 2.105 . S
O281 C271 1.268 . S
O282 Sc266 2.105 . S
O282 C273 1.268 . S
O283 Sc264 2.105 . S
O283 C269 1.268 . S
O284 Sc266 2.105 . S
O284 C268 1.268 . S
O285 Sc265 2.105 . S
O285 C270 1.268 . S
Sc286 O289 2.025 . S
Sc286 O296 2.105 . S
Sc286 O299 2.105 . S
Sc286 O302 2.105 . S
Sc286 O305 2.105 . S
Sc287 O289 2.025 . S
Sc287 O297 2.105 . S
Sc287 O301 2.105 . S
Sc287 O303 2.105 1_565 S
Sc287 O307 2.105 . S
Sc288 O289 2.025 . S
Sc288 O298 2.105 . S
Sc288 O300 2.105 . S
Sc288 O304 2.105 . S
Sc288 O306 2.105 . S
O289 Sc286 2.025 . S
O289 Sc287 2.025 . S
O289 Sc288 2.025 . S
C290 O296 1.268 . S
C290 O306 1.268 . S
C291 O297 1.268 . S
C291 O305 1.268 . S
C292 O298 1.268 1_455 S
C292 O307 1.268 1_455 S
C293 O299 1.268 . S
C293 O303 1.268 1_565 S
C294 O300 1.268 . S
C294 O302 1.268 . S
C295 O301 1.268 . S
C295 O304 1.268 . S
O296 Sc286 2.105 . S
O296 C290 1.268 . S
O297 Sc287 2.105 . S
O297 C291 1.268 . S
O298 Sc288 2.105 . S
O298 C292 1.268 1_655 S
O299 Sc286 2.105 . S
O299 C293 1.268 . S
O300 Sc288 2.105 . S
O300 C294 1.268 . S
O301 Sc287 2.105 . S
O301 C295 1.268 . S
O302 Sc286 2.105 . S
O302 C294 1.268 . S
O303 Sc287 2.105 1_545 S
O303 C293 1.268 1_545 S
O304 Sc288 2.105 . S
O304 C295 1.268 . S
O305 Sc286 2.105 . S
O305 C291 1.268 . S
O306 Sc288 2.105 . S
O306 C290 1.268 . S
O307 Sc287 2.105 . S
O307 C292 1.268 1_655 S
Sc308 O311 2.025 . S
Sc308 O318 2.105 . S
Sc308 O321 2.105 . S
Sc308 O324 2.105 . S
Sc308 O327 2.105 . S
Sc309 O311 2.025 . S
Sc309 O319 2.105 . S
Sc309 O323 2.105 . S
Sc309 O325 2.105 . S
Sc309 O329 2.105 . S
Sc310 O311 2.025 . S
Sc310 O320 2.105 . S
Sc310 O322 2.105 . S
Sc310 O326 2.105 . S
Sc310 O328 2.105 . S
O311 Sc308 2.025 . S
O311 Sc309 2.025 . S
O311 Sc310 2.025 . S
C312 O318 1.268 . S
C312 O328 1.268 . S
C313 O319 1.268 . S
C313 O327 1.268 . S
C314 O320 1.268 . S
C314 O329 1.268 . S
C315 O321 1.268 . S
C315 O325 1.268 . S
C316 O322 1.268 . S
C316 O324 1.268 . S
C317 O323 1.268 . S
C317 O326 1.268 . S
O318 Sc308 2.105 . S
O318 C312 1.268 . S
O319 Sc309 2.105 . S
O319 C313 1.268 . S
O320 Sc310 2.105 . S
O320 C314 1.268 . S
O321 Sc308 2.105 . S
O321 C315 1.268 . S
O322 Sc310 2.105 . S
O322 C316 1.268 . S
O323 Sc309 2.105 . S
O323 C317 1.268 . S
O324 Sc308 2.105 . S
O324 C316 1.268 . S
O325 Sc309 2.105 . S
O325 C315 1.268 . S
O326 Sc310 2.105 . S
O326 C317 1.268 . S
O327 Sc308 2.105 . S
O327 C313 1.268 . S
O328 Sc310 2.105 . S
O328 C312 1.268 . S
O329 Sc309 2.105 . S
O329 C314 1.268 . S
Sc330 O333 2.025 . S
Sc330 O340 2.105 . S
Sc330 O343 2.105 . S
Sc330 O346 2.105 . S
Sc330 O349 2.105 . S
Sc331 O333 2.025 . S
Sc331 O341 2.105 . S
Sc331 O345 2.105 . S
Sc331 O347 2.105 . S
Sc331 O351 2.105 1_545 S
Sc332 O333 2.025 . S
Sc332 O342 2.105 . S
Sc332 O344 2.105 . S
Sc332 O348 2.105 . S
Sc332 O350 2.105 . S
O333 Sc330 2.025 . S
O333 Sc331 2.025 . S
O333 Sc332 2.025 . S
C334 O340 1.268 . S
C334 O350 1.268 . S
C335 O341 1.268 . S
C335 O349 1.268 . S
C336 O342 1.268 . S
C336 O351 1.268 1_545 S
C337 O343 1.268 . S
C337 O347 1.268 . S
C338 O344 1.268 . S
C338 O346 1.268 . S
C339 O345 1.268 . S
C339 O348 1.268 . S
O340 Sc330 2.105 . S
O340 C334 1.268 . S
O341 Sc331 2.105 . S
O341 C335 1.268 . S
O342 Sc332 2.105 . S
O342 C336 1.268 . S
O343 Sc330 2.105 . S
O343 C337 1.268 . S
O344 Sc332 2.105 . S
O344 C338 1.268 . S
O345 Sc331 2.105 . S
O345 C339 1.268 . S
O346 Sc330 2.105 . S
O346 C338 1.268 . S
O347 Sc331 2.105 . S
O347 C337 1.268 . S
O348 Sc332 2.105 . S
O348 C339 1.268 . S
O349 Sc330 2.105 . S
O349 C335 1.268 . S
O350 Sc332 2.105 . S
O350 C334 1.268 . S
O351 Sc331 2.105 1_565 S
O351 C336 1.268 1_565 S
C352 C353 1.391 . S
C352 C354 1.394 . S
C352 H368 0.931 . S
C353 C352 1.391 . S
C353 C357 1.376 . S
C354 C352 1.394 . S
C354 C355 1.369 . S
C354 C358 1.531 . S
C355 C354 1.369 . S
C355 C356 1.410 . S
C355 C363 1.503 . S
C356 C355 1.410 . S
C356 C357 1.392 . S
C356 C359 1.511 . S
C357 C353 1.376 . S
C357 C356 1.392 . S
C357 H369 0.929 . S
C358 C354 1.531 . S
C358 H370 0.960 . S
C358 H371 0.962 . S
C358 H372 0.960 . S
C359 C356 1.511 . S
C359 H373 0.961 . S
C359 H374 0.961 . S
C359 H375 0.961 . S
C360 C361 1.370 . S
C360 C362 1.363 . S
C360 H376 0.931 . S
C361 C360 1.370 . S
C361 C365 1.408 . S
C362 C360 1.363 . S
C362 C363 1.370 . S
C362 C366 1.524 . S
C363 C355 1.503 . S
C363 C362 1.370 . S
C363 C364 1.403 . S
C364 C363 1.403 . S
C364 C365 1.404 . S
C364 C367 1.539 . S
C365 C361 1.408 . S
C365 C364 1.404 . S
C365 H377 0.930 . S
C366 C362 1.524 . S
C366 H378 0.956 . S
C366 H379 0.961 . S
C366 H380 0.961 . S
C367 C364 1.539 . S
C367 H381 0.958 . S
C367 H382 0.961 . S
C367 H383 0.960 . S
H368 C352 0.931 . S
H369 C357 0.929 . S
H370 C358 0.960 . S
H371 C358 0.962 . S
H372 C358 0.960 . S
H373 C359 0.961 . S
H374 C359 0.961 . S
H375 C359 0.961 . S
H376 C360 0.931 . S
H377 C365 0.930 . S
H378 C366 0.956 . S
H379 C366 0.961 . S
H380 C366 0.961 . S
H381 C367 0.958 . S
H382 C367 0.961 . S
H383 C367 0.960 . S
C384 C385 1.391 . S
C384 C386 1.394 . S
C384 H400 0.931 . S
C385 C384 1.391 . S
C385 C389 1.376 . S
C386 C384 1.394 . S
C386 C387 1.369 . S
C386 C390 1.531 . S
C387 C386 1.369 . S
C387 C388 1.410 . S
C387 C395 1.503 . S
C388 C387 1.410 . S
C388 C389 1.392 . S
C388 C391 1.511 . S
C389 C385 1.376 . S
C389 C388 1.392 . S
C389 H401 0.929 . S
C390 C386 1.531 . S
C390 H402 0.960 . S
C390 H403 0.962 . S
C390 H404 0.960 . S
C391 C388 1.511 . S
C391 H405 0.961 . S
C391 H406 0.961 . S
C391 H407 0.961 . S
C392 C393 1.370 . S
C392 C394 1.363 . S
C392 H408 0.931 . S
C393 C392 1.370 . S
C393 C397 1.408 . S
C394 C392 1.363 . S
C394 C395 1.370 . S
C394 C398 1.524 . S
C395 C387 1.503 . S
C395 C394 1.370 . S
C395 C396 1.403 . S
C396 C395 1.403 . S
C396 C397 1.404 . S
C396 C399 1.539 . S
C397 C393 1.408 . S
C397 C396 1.404 . S
C397 H409 0.930 . S
C398 C394 1.524 . S
C398 H410 0.956 . S
C398 H411 0.961 . S
C398 H412 0.961 . S
C399 C396 1.539 . S
C399 H413 0.958 . S
C399 H414 0.961 . S
C399 H415 0.960 . S
H400 C384 0.931 . S
H401 C389 0.929 . S
H402 C390 0.960 . S
H403 C390 0.962 . S
H404 C390 0.960 . S
H405 C391 0.961 . S
H406 C391 0.961 . S
H407 C391 0.961 . S
H408 C392 0.931 . S
H409 C397 0.930 . S
H410 C398 0.956 . S
H411 C398 0.961 . S
H412 C398 0.961 . S
H413 C399 0.958 . S
H414 C399 0.961 . S
H415 C399 0.960 . S
C416 C417 1.391 . S
C416 C418 1.394 . S
C416 H432 0.931 . S
C417 C416 1.391 . S
C417 C421 1.376 . S
C418 C416 1.394 . S
C418 C419 1.369 . S
C418 C422 1.531 . S
C419 C418 1.369 . S
C419 C420 1.410 . S
C419 C427 1.503 . S
C420 C419 1.410 . S
C420 C421 1.392 . S
C420 C423 1.511 . S
C421 C417 1.376 . S
C421 C420 1.392 . S
C421 H433 0.929 . S
C422 C418 1.531 . S
C422 H434 0.960 . S
C422 H435 0.962 . S
C422 H436 0.960 . S
C423 C420 1.511 . S
C423 H437 0.961 . S
C423 H438 0.961 . S
C423 H439 0.961 . S
C424 C425 1.370 . S
C424 C426 1.363 . S
C424 H440 0.931 . S
C425 C424 1.370 . S
C425 C429 1.408 . S
C426 C424 1.363 . S
C426 C427 1.370 . S
C426 C430 1.524 . S
C427 C419 1.503 . S
C427 C426 1.370 . S
C427 C428 1.403 . S
C428 C427 1.403 . S
C428 C429 1.404 . S
C428 C431 1.539 . S
C429 C425 1.408 . S
C429 C428 1.404 . S
C429 H441 0.930 . S
C430 C426 1.524 . S
C430 H442 0.956 . S
C430 H443 0.961 . S
C430 H444 0.961 . S
C431 C428 1.539 . S
C431 H445 0.958 . S
C431 H446 0.961 . S
C431 H447 0.960 . S
H432 C416 0.931 . S
H433 C421 0.929 . S
H434 C422 0.960 . S
H435 C422 0.962 . S
H436 C422 0.960 . S
H437 C423 0.961 . S
H438 C423 0.961 . S
H439 C423 0.961 . S
H440 C424 0.931 . S
H441 C429 0.930 . S
H442 C430 0.956 . S
H443 C430 0.961 . S
H444 C430 0.961 . S
H445 C431 0.958 . S
H446 C431 0.961 . S
H447 C431 0.960 . S
C448 C449 1.391 . S
C448 C450 1.394 . S
C448 H464 0.931 . S
C449 C448 1.391 . S
C449 C453 1.376 . S
C450 C448 1.394 . S
C450 C451 1.369 . S
C450 C454 1.531 1_655 S
C451 C450 1.369 . S
C451 C452 1.410 . S
C451 C459 1.503 1_656 S
C452 C451 1.410 . S
C452 C453 1.392 . S
C452 C455 1.511 1_556 S
C453 C449 1.376 . S
C453 C452 1.392 . S
C453 H465 0.929 . S
C454 C450 1.531 1_455 S
C454 H466 0.960 . S
C454 H467 0.962 . S
C454 H468 0.960 1_455 S
C455 C452 1.511 1_554 S
C455 H469 0.961 1_554 S
C455 H470 0.961 . S
C455 H471 0.961 . S
C456 C457 1.370 . S
C456 C458 1.363 . S
C456 H472 0.931 . S
C457 C456 1.370 . S
C457 C461 1.408 . S
C458 C456 1.363 . S
C458 C459 1.370 . S
C458 C462 1.524 1_554 S
C459 C451 1.503 1_454 S
C459 C458 1.370 . S
C459 C460 1.403 1_455 S
C460 C459 1.403 1_655 S
C460 C461 1.404 1_655 S
C460 C463 1.539 . S
C461 C457 1.408 . S
C461 C460 1.404 1_455 S
C461 H473 0.937 . S
C462 C458 1.524 1_556 S
C462 H474 0.956 . S
C462 H475 0.961 . S
C462 H476 0.961 . S
C463 C460 1.539 . S
C463 H477 0.958 . S
C463 H478 0.961 . S
C463 H479 0.960 . S
H464 C448 0.931 . S
H465 C453 0.929 . S
H466 C454 0.960 . S
H467 C454 0.962 . S
H468 C454 0.960 1_655 S
H469 C455 0.961 1_556 S
H470 C455 0.961 . S
H471 C455 0.961 . S
H472 C456 0.931 . S
H473 C461 0.937 . S
H474 C462 0.956 . S
H475 C462 0.961 . S
H476 C462 0.961 . S
H477 C463 0.958 . S
H478 C463 0.961 . S
H479 C463 0.960 . S
C480 C481 1.391 . S
C480 C482 1.394 . S
C480 H496 0.931 . S
C481 C480 1.391 . S
C481 C485 1.376 . S
C482 C480 1.394 . S
C482 C483 1.369 . S
C482 C486 1.531 . S
C483 C482 1.369 . S
C483 C484 1.410 . S
C483 C491 1.503 . S
C484 C483 1.410 . S
C484 C485 1.392 . S
C484 C487 1.511 . S
C485 C481 1.376 . S
C485 C484 1.392 . S
C485 H497 0.929 . S
C486 C482 1.531 . S
C486 H498 0.960 . S
C486 H499 0.962 . S
C486 H500 0.960 . S
C487 C484 1.511 . S
C487 H501 0.961 . S
C487 H502 0.961 . S
C487 H503 0.961 . S
C488 C489 1.370 . S
C488 C490 1.363 . S
C488 H504 0.931 . S
C489 C488 1.370 . S
C489 C493 1.408 . S
C490 C488 1.363 . S
C490 C491 1.370 . S
C490 C494 1.524 . S
C491 C483 1.503 . S
C491 C490 1.370 . S
C491 C492 1.403 . S
C492 C491 1.403 . S
C492 C493 1.404 . S
C492 C495 1.539 . S
C493 C489 1.408 . S
C493 C492 1.404 . S
C493 H505 0.930 . S
C494 C490 1.524 . S
C494 H506 0.956 . S
C494 H507 0.961 . S
C494 H508 0.961 . S
C495 C492 1.539 . S
C495 H509 0.958 . S
C495 H510 0.961 . S
C495 H511 0.960 . S
H496 C480 0.931 . S
H497 C485 0.929 . S
H498 C486 0.960 . S
H499 C486 0.962 . S
H500 C486 0.960 . S
H501 C487 0.961 . S
H502 C487 0.961 . S
H503 C487 0.961 . S
H504 C488 0.931 . S
H505 C493 0.930 . S
H506 C494 0.956 . S
H507 C494 0.961 . S
H508 C494 0.961 . S
H509 C495 0.958 . S
H510 C495 0.961 . S
H511 C495 0.960 . S
C512 C513 1.391 . S
C512 C514 1.394 . S
C512 H528 0.931 . S
C513 C512 1.391 . S
C513 C517 1.376 . S
C514 C512 1.394 . S
C514 C515 1.369 . S
C514 C518 1.531 . S
C515 C514 1.369 . S
C515 C516 1.410 . S
C515 C523 1.503 . S
C516 C515 1.410 . S
C516 C517 1.392 . S
C516 C519 1.511 . S
C517 C513 1.376 . S
C517 C516 1.392 . S
C517 H529 0.929 . S
C518 C514 1.531 . S
C518 H530 0.960 . S
C518 H531 0.962 . S
C518 H532 0.960 . S
C519 C516 1.511 . S
C519 H533 0.961 . S
C519 H534 0.961 . S
C519 H535 0.961 . S
C520 C521 1.370 . S
C520 C522 1.363 . S
C520 H536 0.931 . S
C521 C520 1.370 . S
C521 C525 1.408 . S
C522 C520 1.363 . S
C522 C523 1.370 . S
C522 C526 1.524 . S
C523 C515 1.503 . S
C523 C522 1.370 . S
C523 C524 1.403 . S
C524 C523 1.403 . S
C524 C525 1.404 . S
C524 C527 1.539 . S
C525 C521 1.408 . S
C525 C524 1.404 . S
C525 H537 0.930 . S
C526 C522 1.524 . S
C526 H538 0.956 . S
C526 H539 0.961 . S
C526 H540 0.961 . S
C527 C524 1.539 . S
C527 H541 0.958 . S
C527 H542 0.961 . S
C527 H543 0.960 . S
H528 C512 0.931 . S
H529 C517 0.929 . S
H530 C518 0.960 . S
H531 C518 0.962 . S
H532 C518 0.960 . S
H533 C519 0.961 . S
H534 C519 0.961 . S
H535 C519 0.961 . S
H536 C520 0.931 . S
H537 C525 0.930 . S
H538 C526 0.956 . S
H539 C526 0.961 . S
H540 C526 0.961 . S
H541 C527 0.958 . S
H542 C527 0.961 . S
H543 C527 0.960 . S
C544 C545 1.391 . S
C544 C546 1.394 . S
C544 H560 0.931 . S
C545 C544 1.391 . S
C545 C549 1.376 1_565 S
C546 C544 1.394 . S
C546 C547 1.369 1_565 S
C546 C550 1.531 1_554 S
C547 C546 1.369 1_545 S
C547 C548 1.410 1_655 S
C547 C555 1.503 1_654 S
C548 C547 1.410 1_455 S
C548 C549 1.392 1_455 S
C548 C551 1.511 . S
C549 C545 1.376 1_545 S
C549 C548 1.392 1_655 S
C549 H561 0.929 . S
C550 C546 1.531 1_556 S
C550 H562 0.960 . S
C550 H563 0.962 . S
C550 H564 0.960 . S
C551 C548 1.511 . S
C551 H565 0.961 . S
C551 H566 0.961 . S
C551 H567 0.961 . S
C552 C553 1.370 1_565 S
C552 C554 1.363 . S
C552 H568 0.931 . S
C553 C552 1.370 1_545 S
C553 C557 1.408 . S
C554 C552 1.363 . S
C554 C555 1.370 1_565 S
C554 C558 1.524 . S
C555 C547 1.503 1_456 S
C555 C554 1.370 1_545 S
C555 C556 1.403 . S
C556 C555 1.403 . S
C556 C557 1.404 . S
C556 C559 1.539 1_455 S
C557 C553 1.408 . S
C557 C556 1.404 . S
C557 H569 0.930 . S
C558 C554 1.524 . S
C558 H570 0.956 . S
C558 H571 0.961 1_556 S
C558 H572 0.961 . S
C559 C556 1.539 1_655 S
C559 H573 0.958 . S
C559 H574 0.961 . S
C559 H575 0.960 . S
H560 C544 0.931 . S
H561 C549 0.929 . S
H562 C550 0.960 . S
H563 C550 0.962 . S
H564 C550 0.960 . S
H565 C551 0.961 . S
H566 C551 0.961 . S
H567 C551 0.961 . S
H568 C552 0.931 . S
H569 C557 0.930 . S
H570 C558 0.956 . S
H571 C558 0.961 1_554 S
H572 C558 0.961 . S
H573 C559 0.958 . S
H574 C559 0.961 . S
H575 C559 0.960 . S
C576 C577 1.391 . S
C576 C578 1.394 . S
C576 H592 0.931 . S
C577 C576 1.391 . S
C577 C581 1.376 1_565 S
C578 C576 1.394 . S
C578 C579 1.369 1_565 S
C578 C582 1.531 . S
C579 C578 1.369 1_545 S
C579 C580 1.410 . S
C579 C587 1.503 . S
C580 C579 1.410 . S
C580 C581 1.392 . S
C580 C583 1.511 . S
C581 C577 1.376 1_545 S
C581 C580 1.392 . S
C581 H593 0.929 . S
C582 C578 1.531 . S
C582 H594 0.960 1_565 S
C582 H595 0.962 . S
C582 H596 0.960 . S
C583 C580 1.511 . S
C583 H597 0.961 . S
C583 H598 0.961 . S
C583 H599 0.961 . S
C584 C585 1.370 1_565 S
C584 C586 1.363 . S
C584 H600 0.931 . S
C585 C584 1.370 1_545 S
C585 C589 1.408 . S
C586 C584 1.363 . S
C586 C587 1.370 1_565 S
C586 C590 1.524 . S
C587 C579 1.503 . S
C587 C586 1.370 1_545 S
C587 C588 1.403 . S
C588 C587 1.403 . S
C588 C589 1.404 . S
C588 C591 1.539 . S
C589 C585 1.408 . S
C589 C588 1.404 . S
C589 H601 0.930 . S
C590 C586 1.524 . S
C590 H602 0.956 . S
C590 H603 0.961 . S
C590 H604 0.961 . S
C591 C588 1.539 . S
C591 H605 0.958 . S
C591 H606 0.961 . S
C591 H607 0.960 . S
H592 C576 0.931 . S
H593 C581 0.929 . S
H594 C582 0.960 1_545 S
H595 C582 0.962 . S
H596 C582 0.960 . S
H597 C583 0.961 . S
H598 C583 0.961 . S
H599 C583 0.961 . S
H600 C584 0.931 . S
H601 C589 0.930 . S
H602 C590 0.956 . S
H603 C590 0.961 . S
H604 C590 0.961 . S
H605 C591 0.958 . S
H606 C591 0.961 . S
H607 C591 0.960 . S
C608 C609 1.391 . S
C608 C610 1.394 . S
C608 H624 0.931 . S
C609 C608 1.391 . S
C609 C613 1.376 . S
C610 C608 1.394 . S
C610 C611 1.369 . S
C610 C614 1.531 . S
C611 C610 1.369 . S
C611 C612 1.410 . S
C611 C619 1.493 1_556 S
C612 C611 1.410 . S
C612 C613 1.392 . S
C612 C615 1.511 . S
C613 C609 1.376 . S
C613 C612 1.392 . S
C613 H625 0.929 . S
C614 C610 1.531 . S
C614 H626 0.960 . S
C614 H627 0.962 . S
C614 H628 0.960 . S
C615 C612 1.511 . S
C615 H629 0.961 . S
C615 H630 0.961 . S
C615 H631 0.961 . S
C616 C617 1.370 . S
C616 C618 1.363 . S
C616 H632 0.931 . S
C617 C616 1.370 . S
C617 C621 1.408 . S
C618 C616 1.363 . S
C618 C619 1.380 . S
C618 C622 1.524 . S
C619 C611 1.493 1_554 S
C619 C618 1.380 . S
C619 C620 1.403 . S
C620 C619 1.403 . S
C620 C621 1.407 . S
C620 C623 1.536 1_554 S
C621 C617 1.408 . S
C621 C620 1.407 . S
C621 H633 0.930 . S
C622 C618 1.524 . S
C622 H634 0.956 . S
C622 H635 0.961 . S
C622 H636 0.961 . S
C623 C620 1.536 1_556 S
C623 H637 0.958 . S
C623 H638 0.961 . S
C623 H639 0.960 . S
H624 C608 0.931 . S
H625 C613 0.929 . S
H626 C614 0.960 . S
H627 C614 0.962 . S
H628 C614 0.960 . S
H629 C615 0.961 . S
H630 C615 0.961 . S
H631 C615 0.961 . S
H632 C616 0.931 . S
H633 C621 0.930 . S
H634 C622 0.956 . S
H635 C622 0.961 . S
H636 C622 0.961 . S
H637 C623 0.958 . S
H638 C623 0.961 . S
H639 C623 0.960 . S
C640 C641 1.391 . S
C640 C642 1.394 . S
C640 H656 0.931 . S
C641 C640 1.391 . S
C641 C645 1.376 . S
C642 C640 1.394 . S
C642 C643 1.369 . S
C642 C646 1.531 . S
C643 C642 1.369 . S
C643 C644 1.410 . S
C643 C651 1.503 . S
C644 C643 1.410 . S
C644 C645 1.392 . S
C644 C647 1.511 . S
C645 C641 1.376 . S
C645 C644 1.392 . S
C645 H657 0.929 . S
C646 C642 1.531 . S
C646 H658 0.960 . S
C646 H659 0.962 . S
C646 H660 0.960 . S
C647 C644 1.511 . S
C647 H661 0.961 . S
C647 H662 0.961 . S
C647 H663 0.961 . S
C648 C649 1.370 . S
C648 C650 1.363 . S
C648 H664 0.931 . S
C649 C648 1.370 . S
C649 C653 1.408 . S
C650 C648 1.363 . S
C650 C651 1.370 . S
C650 C654 1.524 . S
C651 C643 1.503 . S
C651 C650 1.370 . S
C651 C652 1.403 . S
C652 C651 1.403 . S
C652 C653 1.404 . S
C652 C655 1.539 . S
C653 C649 1.408 . S
C653 C652 1.404 . S
C653 H665 0.930 . S
C654 C650 1.524 . S
C654 H666 0.956 . S
C654 H667 0.961 . S
C654 H668 0.961 . S
C655 C652 1.539 . S
C655 H669 0.958 . S
C655 H670 0.961 . S
C655 H671 0.960 . S
H656 C640 0.931 . S
H657 C645 0.929 . S
H658 C646 0.960 . S
H659 C646 0.962 . S
H660 C646 0.960 . S
H661 C647 0.961 . S
H662 C647 0.961 . S
H663 C647 0.961 . S
H664 C648 0.931 . S
H665 C653 0.930 . S
H666 C654 0.956 . S
H667 C654 0.961 . S
H668 C654 0.961 . S
H669 C655 0.958 . S
H670 C655 0.961 . S
H671 C655 0.960 . S
C672 C673 1.391 . S
C672 C674 1.394 . S
C672 H688 0.931 . S
C673 C672 1.391 . S
C673 C677 1.376 . S
C674 C672 1.394 . S
C674 C675 1.369 . S
C674 C678 1.531 . S
C675 C674 1.369 . S
C675 C676 1.410 . S
C675 C683 1.503 . S
C676 C675 1.410 . S
C676 C677 1.392 . S
C676 C679 1.511 . S
C677 C673 1.376 . S
C677 C676 1.392 . S
C677 H689 0.929 . S
C678 C674 1.531 . S
C678 H690 0.960 . S
C678 H691 0.962 . S
C678 H692 0.960 . S
C679 C676 1.511 . S
C679 H693 0.961 . S
C679 H694 0.961 . S
C679 H695 0.961 . S
C680 C681 1.370 . S
C680 C682 1.363 . S
C680 H696 0.931 . S
C681 C680 1.370 . S
C681 C685 1.408 . S
C682 C680 1.363 . S
C682 C683 1.370 . S
C682 C686 1.524 . S
C683 C675 1.503 . S
C683 C682 1.370 . S
C683 C684 1.403 . S
C684 C683 1.403 . S
C684 C685 1.404 . S
C684 C687 1.539 . S
C685 C681 1.408 . S
C685 C684 1.404 . S
C685 H697 0.930 . S
C686 C682 1.524 . S
C686 H698 0.956 . S
C686 H699 0.961 . S
C686 H700 0.961 . S
C687 C684 1.539 . S
C687 H701 0.958 . S
C687 H702 0.961 . S
C687 H703 0.960 . S
H688 C672 0.931 . S
H689 C677 0.929 . S
H690 C678 0.960 . S
H691 C678 0.962 . S
H692 C678 0.960 . S
H693 C679 0.961 . S
H694 C679 0.961 . S
H695 C679 0.961 . S
H696 C680 0.931 . S
H697 C685 0.930 . S
H698 C686 0.956 . S
H699 C686 0.961 . S
H700 C686 0.961 . S
H701 C687 0.958 . S
H702 C687 0.961 . S
H703 C687 0.960 . S
C704 C705 1.391 . S
C704 C706 1.394 . S
C704 H720 0.931 . S
C705 C704 1.391 . S
C705 C709 1.376 . S
C706 C704 1.394 . S
C706 C707 1.369 . S
C706 C710 1.531 . S
C707 C706 1.369 . S
C707 C708 1.410 . S
C707 C715 1.503 . S
C708 C707 1.410 . S
C708 C709 1.392 . S
C708 C711 1.511 . S
C709 C705 1.376 . S
C709 C708 1.392 . S
C709 H721 0.929 . S
C710 C706 1.531 . S
C710 H722 0.960 . S
C710 H723 0.962 . S
C710 H724 0.960 . S
C711 C708 1.511 . S
C711 H725 0.961 . S
C711 H726 0.961 . S
C711 H727 0.961 . S
C712 C713 1.370 . S
C712 C714 1.363 . S
C712 H728 0.931 . S
C713 C712 1.370 . S
C713 C717 1.408 . S
C714 C712 1.363 . S
C714 C715 1.370 . S
C714 C718 1.524 . S
C715 C707 1.503 . S
C715 C714 1.370 . S
C715 C716 1.403 . S
C716 C715 1.403 . S
C716 C717 1.404 . S
C716 C719 1.539 . S
C717 C713 1.408 . S
C717 C716 1.404 . S
C717 H729 0.930 . S
C718 C714 1.524 . S
C718 H730 0.956 . S
C718 H731 0.961 . S
C718 H732 0.961 . S
C719 C716 1.539 . S
C719 H733 0.958 . S
C719 H734 0.961 . S
C719 H735 0.960 . S
H720 C704 0.931 . S
H721 C709 0.929 . S
H722 C710 0.960 . S
H723 C710 0.962 . S
H724 C710 0.960 . S
H725 C711 0.961 . S
H726 C711 0.961 . S
H727 C711 0.961 . S
H728 C712 0.931 . S
H729 C717 0.930 . S
H730 C718 0.956 . S
H731 C718 0.961 . S
H732 C718 0.961 . S
H733 C719 0.958 . S
H734 C719 0.961 . S
H735 C719 0.960 . S
C736 C737 1.391 . S
C736 C738 1.394 . S
C736 H752 0.931 . S
C737 C736 1.391 . S
C737 C741 1.376 . S
C738 C736 1.394 . S
C738 C739 1.369 . S
C738 C742 1.531 . S
C739 C738 1.369 . S
C739 C740 1.410 . S
C739 C747 1.503 1_554 S
C740 C739 1.410 . S
C740 C741 1.392 . S
C740 C743 1.511 . S
C741 C737 1.376 . S
C741 C740 1.392 . S
C741 H753 0.929 . S
C742 C738 1.531 . S
C742 H754 0.960 1_554 S
C742 H755 0.962 . S
C742 H756 0.960 . S
C743 C740 1.511 . S
C743 H757 0.961 . S
C743 H758 0.961 . S
C743 H759 0.961 . S
C744 C745 1.370 . S
C744 C746 1.363 . S
C744 H760 0.931 . S
C745 C744 1.370 . S
C745 C749 1.408 . S
C746 C744 1.363 . S
C746 C747 1.370 . S
C746 C750 1.524 1_556 S
C747 C739 1.503 1_556 S
C747 C746 1.370 . S
C747 C748 1.403 . S
C748 C747 1.403 . S
C748 C749 1.404 . S
C748 C751 1.539 . S
C749 C745 1.408 . S
C749 C748 1.404 . S
C749 H761 0.930 . S
C750 C746 1.524 1_554 S
C750 H762 0.956 . S
C750 H763 0.961 . S
C750 H764 0.961 . S
C751 C748 1.539 . S
C751 H765 0.958 . S
C751 H766 0.961 . S
C751 H767 0.960 . S
H752 C736 0.931 . S
H753 C741 0.929 . S
H754 C742 0.960 1_556 S
H755 C742 0.962 . S
H756 C742 0.960 . S
H757 C743 0.961 . S
H758 C743 0.961 . S
H759 C743 0.961 . S
H760 C744 0.931 . S
H761 C749 0.930 . S
H762 C750 0.956 . S
H763 C750 0.961 . S
H764 C750 0.961 . S
H765 C751 0.958 . S
H766 C751 0.961 . S
H767 C751 0.960 . S
C768 C769 1.391 . S
C768 C770 1.394 . S
C768 H784 0.931 . S
C769 C768 1.391 . S
C769 C773 1.376 . S
C770 C768 1.394 . S
C770 C771 1.369 . S
C770 C774 1.531 . S
C771 C770 1.369 . S
C771 C772 1.410 . S
C771 C779 1.503 . S
C772 C771 1.410 . S
C772 C773 1.392 . S
C772 C775 1.511 . S
C773 C769 1.376 . S
C773 C772 1.392 . S
C773 H785 0.929 . S
C774 C770 1.531 . S
C774 H786 0.960 . S
C774 H787 0.962 . S
C774 H788 0.960 . S
C775 C772 1.511 . S
C775 H789 0.961 . S
C775 H790 0.961 . S
C775 H791 0.961 . S
C776 C777 1.370 . S
C776 C778 1.363 . S
C776 H792 0.931 . S
C777 C776 1.370 . S
C777 C781 1.408 . S
C778 C776 1.363 . S
C778 C779 1.370 . S
C778 C782 1.524 . S
C779 C771 1.503 . S
C779 C778 1.370 . S
C779 C780 1.403 . S
C780 C779 1.403 . S
C780 C781 1.404 . S
C780 C783 1.539 . S
C781 C777 1.408 . S
C781 C780 1.404 . S
C781 H793 0.930 . S
C782 C778 1.524 . S
C782 H794 0.956 . S
C782 H795 0.961 . S
C782 H796 0.961 . S
C783 C780 1.539 . S
C783 H797 0.958 . S
C783 H798 0.961 . S
C783 H799 0.960 . S
H784 C768 0.931 . S
H785 C773 0.929 . S
H786 C774 0.960 . S
H787 C774 0.962 . S
H788 C774 0.960 . S
H789 C775 0.961 . S
H790 C775 0.961 . S
H791 C775 0.961 . S
H792 C776 0.931 . S
H793 C781 0.930 . S
H794 C782 0.956 . S
H795 C782 0.961 . S
H796 C782 0.961 . S
H797 C783 0.958 . S
H798 C783 0.961 . S
H799 C783 0.960 . S
C800 C801 1.391 . S
C800 C802 1.394 . S
C800 H816 0.931 . S
C801 C800 1.391 . S
C801 C805 1.376 . S
C802 C800 1.394 . S
C802 C803 1.369 . S
C802 C806 1.531 . S
C803 C802 1.369 . S
C803 C804 1.410 . S
C803 C811 1.503 . S
C804 C803 1.410 . S
C804 C805 1.392 . S
C804 C807 1.511 . S
C805 C801 1.376 . S
C805 C804 1.392 . S
C805 H817 0.929 . S
C806 C802 1.531 . S
C806 H818 0.960 . S
C806 H819 0.962 . S
C806 H820 0.960 . S
C807 C804 1.511 . S
C807 H821 0.961 . S
C807 H822 0.961 . S
C807 H823 0.961 . S
C808 C809 1.370 . S
C808 C810 1.363 . S
C808 H824 0.931 . S
C809 C808 1.370 . S
C809 C813 1.408 . S
C810 C808 1.363 . S
C810 C811 1.370 . S
C810 C814 1.524 . S
C811 C803 1.503 . S
C811 C810 1.370 . S
C811 C812 1.403 . S
C812 C811 1.403 . S
C812 C813 1.404 . S
C812 C815 1.539 . S
C813 C809 1.408 . S
C813 C812 1.404 . S
C813 H825 0.930 . S
C814 C810 1.524 . S
C814 H826 0.956 . S
C814 H827 0.961 . S
C814 H828 0.961 . S
C815 C812 1.539 . S
C815 H829 0.958 . S
C815 H830 0.961 . S
C815 H831 0.960 . S
H816 C800 0.931 . S
H817 C805 0.929 . S
H818 C806 0.960 . S
H819 C806 0.962 . S
H820 C806 0.960 . S
H821 C807 0.961 . S
H822 C807 0.961 . S
H823 C807 0.961 . S
H824 C808 0.931 . S
H825 C813 0.930 . S
H826 C814 0.956 . S
H827 C814 0.961 . S
H828 C814 0.961 . S
H829 C815 0.958 . S
H830 C815 0.961 . S
H831 C815 0.960 . S
C832 C833 1.391 . S
C832 C834 1.394 . S
C832 H848 0.931 . S
C833 C832 1.391 . S
C833 C837 1.376 . S
C834 C832 1.394 . S
C834 C835 1.369 . S
C834 C838 1.531 . S
C835 C834 1.369 . S
C835 C836 1.410 . S
C835 C843 1.503 . S
C836 C835 1.410 . S
C836 C837 1.392 . S
C836 C839 1.511 . S
C837 C833 1.376 . S
C837 C836 1.392 . S
C837 H849 0.929 . S
C838 C834 1.531 . S
C838 H850 0.960 . S
C838 H851 0.962 . S
C838 H852 0.960 . S
C839 C836 1.511 . S
C839 H853 0.961 . S
C839 H854 0.961 . S
C839 H855 0.961 . S
C840 C841 1.370 . S
C840 C842 1.363 . S
C840 H856 0.931 . S
C841 C840 1.370 . S
C841 C845 1.408 . S
C842 C840 1.363 . S
C842 C843 1.370 . S
C842 C846 1.524 . S
C843 C835 1.503 . S
C843 C842 1.370 . S
C843 C844 1.403 . S
C844 C843 1.403 . S
C844 C845 1.404 . S
C844 C847 1.539 . S
C845 C841 1.408 . S
C845 C844 1.404 . S
C845 H857 0.930 . S
C846 C842 1.524 . S
C846 H858 0.956 . S
C846 H859 0.961 . S
C846 H860 0.961 . S
C847 C844 1.539 . S
C847 H861 0.958 . S
C847 H862 0.961 . S
C847 H863 0.960 . S
H848 C832 0.931 . S
H849 C837 0.929 . S
H850 C838 0.960 . S
H851 C838 0.962 . S
H852 C838 0.960 . S
H853 C839 0.961 . S
H854 C839 0.961 . S
H855 C839 0.961 . S
H856 C840 0.931 . S
H857 C845 0.930 . S
H858 C846 0.956 . S
H859 C846 0.961 . S
H860 C846 0.961 . S
H861 C847 0.958 . S
H862 C847 0.961 . S
H863 C847 0.960 . S
C864 C865 1.391 . S
C864 C866 1.394 . S
C864 H880 0.931 . S
C865 C864 1.391 . S
C865 C869 1.376 . S
C866 C864 1.394 . S
C866 C867 1.369 . S
C866 C870 1.531 . S
C867 C866 1.369 . S
C867 C868 1.410 . S
C867 C875 1.503 . S
C868 C867 1.410 . S
C868 C869 1.392 . S
C868 C871 1.511 . S
C869 C865 1.376 . S
C869 C868 1.392 . S
C869 H881 0.929 . S
C870 C866 1.531 . S
C870 H882 0.960 . S
C870 H883 0.962 . S
C870 H884 0.960 . S
C871 C868 1.511 . S
C871 H885 0.961 . S
C871 H886 0.961 . S
C871 H887 0.961 . S
C872 C873 1.370 . S
C872 C874 1.363 . S
C872 H888 0.931 . S
C873 C872 1.370 . S
C873 C877 1.408 . S
C874 C872 1.363 . S
C874 C875 1.370 . S
C874 C878 1.524 . S
C875 C867 1.503 . S
C875 C874 1.370 . S
C875 C876 1.403 . S
C876 C875 1.403 . S
C876 C877 1.404 . S
C876 C879 1.539 . S
C877 C873 1.408 . S
C877 C876 1.404 . S
C877 H889 0.930 . S
C878 C874 1.524 . S
C878 H890 0.956 . S
C878 H891 0.961 . S
C878 H892 0.961 . S
C879 C876 1.539 . S
C879 H893 0.958 . S
C879 H894 0.961 . S
C879 H895 0.960 . S
H880 C864 0.931 . S
H881 C869 0.929 . S
H882 C870 0.960 . S
H883 C870 0.962 . S
H884 C870 0.960 . S
H885 C871 0.961 . S
H886 C871 0.961 . S
H887 C871 0.961 . S
H888 C872 0.931 . S
H889 C877 0.930 . S
H890 C878 0.956 . S
H891 C878 0.961 . S
H892 C878 0.961 . S
H893 C879 0.958 . S
H894 C879 0.961 . S
H895 C879 0.960 . S
C896 C897 1.391 . S
C896 C898 1.394 . S
C896 H912 0.931 . S
C897 C896 1.391 . S
C897 C901 1.376 . S
C898 C896 1.394 . S
C898 C899 1.369 1_545 S
C898 C902 1.531 . S
C899 C898 1.369 1_565 S
C899 C900 1.410 . S
C899 C907 1.503 . S
C900 C899 1.410 . S
C900 C901 1.392 1_565 S
C900 C903 1.511 . S
C901 C897 1.376 . S
C901 C900 1.392 1_545 S
C901 H913 0.929 1_545 S
C902 C898 1.531 . S
C902 H914 0.960 . S
C902 H915 0.962 . S
C902 H916 0.960 . S
C903 C900 1.511 . S
C903 H917 0.961 . S
C903 H918 0.961 . S
C903 H919 0.961 . S
C904 C905 1.370 . S
C904 C906 1.363 . S
C904 H920 0.931 . S
C905 C904 1.370 . S
C905 C909 1.408 . S
C906 C904 1.363 . S
C906 C907 1.370 . S
C906 C910 1.524 . S
C907 C899 1.503 . S
C907 C906 1.370 . S
C907 C908 1.403 . S
C908 C907 1.403 . S
C908 C909 1.404 . S
C908 C911 1.539 1_565 S
C909 C905 1.408 . S
C909 C908 1.404 . S
C909 H921 0.930 . S
C910 C906 1.524 . S
C910 H922 0.956 . S
C910 H923 0.961 . S
C910 H924 0.961 . S
C911 C908 1.539 1_545 S
C911 H925 0.958 . S
C911 H926 0.964 . S
C911 H927 0.960 . S
H912 C896 0.931 . S
H913 C901 0.929 1_565 S
H914 C902 0.960 . S
H915 C902 0.962 . S
H916 C902 0.960 . S
H917 C903 0.961 . S
H918 C903 0.961 . S
H919 C903 0.961 . S
H920 C904 0.931 . S
H921 C909 0.930 . S
H922 C910 0.956 . S
H923 C910 0.961 . S
H924 C910 0.961 . S
H925 C911 0.958 . S
H926 C911 0.964 . S
H927 C911 0.960 . S
C928 C929 1.391 . S
C928 C930 1.394 . S
C928 H944 0.931 . S
C929 C928 1.391 . S
C929 C933 1.376 . S
C930 C928 1.394 . S
C930 C931 1.369 . S
C930 C934 1.531 . S
C931 C930 1.369 . S
C931 C932 1.410 . S
C931 C939 1.503 1_554 S
C932 C931 1.410 . S
C932 C933 1.392 . S
C932 C935 1.511 1_554 S
C933 C929 1.376 . S
C933 C932 1.392 . S
C933 H945 0.929 . S
C934 C930 1.531 . S
C934 H946 0.960 . S
C934 H947 0.962 . S
C934 H948 0.960 . S
C935 C932 1.511 1_556 S
C935 H949 0.961 . S
C935 H950 0.961 . S
C935 H951 0.961 . S
C936 C937 1.370 . S
C936 C938 1.363 . S
C936 H952 0.931 . S
C937 C936 1.370 . S
C937 C941 1.408 . S
C938 C936 1.363 . S
C938 C939 1.370 . S
C938 C942 1.524 . S
C939 C931 1.503 1_556 S
C939 C938 1.370 . S
C939 C940 1.403 . S
C940 C939 1.403 . S
C940 C941 1.404 . S
C940 C943 1.539 . S
C941 C937 1.408 . S
C941 C940 1.404 . S
C941 H953 0.930 . S
C942 C938 1.524 . S
C942 H954 0.956 . S
C942 H955 0.961 . S
C942 H956 0.961 . S
C943 C940 1.539 . S
C943 H957 0.938 1_556 S
C943 H958 0.961 . S
C943 H959 0.960 . S
H944 C928 0.931 . S
H945 C933 0.929 . S
H946 C934 0.960 . S
H947 C934 0.962 . S
H948 C934 0.960 . S
H949 C935 0.961 . S
H950 C935 0.961 . S
H951 C935 0.961 . S
H952 C936 0.931 . S
H953 C941 0.930 . S
H954 C942 0.956 . S
H955 C942 0.961 . S
H956 C942 0.961 . S
H957 C943 0.938 1_554 S
H958 C943 0.961 . S
H959 C943 0.960 . S
C960 C961 1.391 . S
C960 C962 1.394 . S
C960 H976 0.931 . S
C961 C960 1.391 . S
C961 C965 1.376 . S
C962 C960 1.394 . S
C962 C963 1.369 . S
C962 C966 1.531 1_545 S
C963 C962 1.369 . S
C963 C964 1.410 . S
C963 C971 1.503 . S
C964 C963 1.410 . S
C964 C965 1.392 . S
C964 C967 1.511 . S
C965 C961 1.376 . S
C965 C964 1.392 . S
C965 H977 0.929 . S
C966 C962 1.531 1_565 S
C966 H978 0.960 . S
C966 H979 0.962 . S
C966 H980 0.960 . S
C967 C964 1.511 . S
C967 H981 0.961 . S
C967 H982 0.961 . S
C967 H983 0.961 . S
C968 C969 1.370 . S
C968 C970 1.363 1_565 S
C968 H984 0.931 1_565 S
C969 C968 1.370 . S
C969 C973 1.408 . S
C970 C968 1.363 1_545 S
C970 C971 1.370 . S
C970 C974 1.524 . S
C971 C963 1.503 . S
C971 C970 1.370 . S
C971 C972 1.403 1_545 S
C972 C971 1.403 1_565 S
C972 C973 1.404 . S
C972 C975 1.539 . S
C973 C969 1.408 . S
C973 C972 1.404 . S
C973 H985 0.930 . S
C974 C970 1.524 . S
C974 H986 0.956 . S
C974 H987 0.961 . S
C974 H988 0.961 . S
C975 C972 1.539 . S
C975 H989 0.958 . S
C975 H990 0.961 . S
C975 H991 0.960 . S
H976 C960 0.931 . S
H977 C965 0.929 . S
H978 C966 0.960 . S
H979 C966 0.962 . S
H980 C966 0.960 . S
H981 C967 0.961 . S
H982 C967 0.961 . S
H983 C967 0.961 . S
H984 C968 0.931 1_545 S
H985 C973 0.930 . S
H986 C974 0.956 . S
H987 C974 0.961 . S
H988 C974 0.961 . S
H989 C975 0.958 . S
H990 C975 0.961 . S
H991 C975 0.960 . S
C992 C993 1.391 . S
C992 C994 1.394 . S
C992 H1008 0.931 . S
C993 C992 1.391 . S
C993 C997 1.376 . S
C994 C992 1.394 . S
C994 C995 1.369 . S
C994 C998 1.531 . S
C995 C994 1.369 . S
C995 C996 1.410 . S
C995 C1003 1.503 . S
C996 C995 1.410 . S
C996 C997 1.392 . S
C996 C999 1.511 . S
C997 C993 1.376 . S
C997 C996 1.392 . S
C997 H1009 0.929 . S
C998 C994 1.531 . S
C998 H1010 0.960 . S
C998 H1011 0.962 . S
C998 H1012 0.960 . S
C999 C996 1.511 . S
C999 H1013 0.961 . S
C999 H1014 0.961 . S
C999 H1015 0.961 . S
C1000 C1001 1.370 . S
C1000 C1002 1.363 . S
C1000 H1016 0.931 . S
C1001 C1000 1.370 . S
C1001 C1005 1.408 . S
C1002 C1000 1.363 . S
C1002 C1003 1.370 . S
C1002 C1006 1.524 . S
C1003 C995 1.503 . S
C1003 C1002 1.370 . S
C1003 C1004 1.403 . S
C1004 C1003 1.403 . S
C1004 C1005 1.404 . S
C1004 C1007 1.539 . S
C1005 C1001 1.408 . S
C1005 C1004 1.404 . S
C1005 H1017 0.930 . S
C1006 C1002 1.524 . S
C1006 H1018 0.956 . S
C1006 H1019 0.961 . S
C1006 H1020 0.961 . S
C1007 C1004 1.539 . S
C1007 H1021 0.958 . S
C1007 H1022 0.961 . S
C1007 H1023 0.960 . S
H1008 C992 0.931 . S
H1009 C997 0.929 . S
H1010 C998 0.960 . S
H1011 C998 0.962 . S
H1012 C998 0.960 . S
H1013 C999 0.961 . S
H1014 C999 0.961 . S
H1015 C999 0.961 . S
H1016 C1000 0.931 . S
H1017 C1005 0.930 . S
H1018 C1006 0.956 . S
H1019 C1006 0.961 . S
H1020 C1006 0.961 . S
H1021 C1007 0.958 . S
H1022 C1007 0.961 . S
H1023 C1007 0.960 . S
C1024 C1025 1.393 . S
C1024 C1026 1.392 1_565 S
C1024 H1040 0.930 1_565 S
C1025 C1024 1.393 . S
C1025 C1029 1.376 . S
C1026 C1024 1.392 1_545 S
C1026 C1027 1.369 . S
C1026 C1030 1.531 . S
C1027 C1026 1.369 . S
C1027 C1028 1.410 1_545 S
C1027 C1035 1.503 . S
C1028 C1027 1.410 1_565 S
C1028 C1029 1.392 . S
C1028 C1031 1.511 . S
C1029 C1025 1.376 . S
C1029 C1028 1.392 . S
C1029 H1041 0.929 . S
C1030 C1026 1.531 . S
C1030 H1042 0.960 . S
C1030 H1043 0.962 . S
C1030 H1044 0.960 . S
C1031 C1028 1.511 . S
C1031 H1045 0.961 . S
C1031 H1046 0.961 . S
C1031 H1047 0.961 . S
C1032 C1033 1.370 . S
C1032 C1034 1.363 . S
C1032 H1048 0.931 . S
C1033 C1032 1.370 . S
C1033 C1037 1.408 . S
C1034 C1032 1.363 . S
C1034 C1035 1.370 . S
C1034 C1038 1.524 1_545 S
C1035 C1027 1.503 . S
C1035 C1034 1.370 . S
C1035 C1036 1.403 . S
C1036 C1035 1.403 . S
C1036 C1037 1.404 . S
C1036 C1039 1.539 . S
C1037 C1033 1.408 . S
C1037 C1036 1.404 . S
C1037 H1049 0.930 . S
C1038 C1034 1.524 1_565 S
C1038 H1050 0.956 . S
C1038 H1051 0.961 . S
C1038 H1052 0.961 . S
C1039 C1036 1.539 . S
C1039 H1053 0.958 . S
C1039 H1054 0.961 . S
C1039 H1055 0.960 . S
H1040 C1024 0.930 1_545 S
H1041 C1029 0.929 . S
H1042 C1030 0.960 . S
H1043 C1030 0.962 . S
H1044 C1030 0.960 . S
H1045 C1031 0.961 . S
H1046 C1031 0.961 . S
H1047 C1031 0.961 . S
H1048 C1032 0.931 . S
H1049 C1037 0.930 . S
H1050 C1038 0.956 . S
H1051 C1038 0.961 . S
H1052 C1038 0.961 . S
H1053 C1039 0.958 . S
H1054 C1039 0.961 . S
H1055 C1039 0.960 . S
C1056 C1057 1.391 . S
C1056 C1058 1.394 . S
C1056 H1072 0.931 . S
C1057 C1056 1.391 . S
C1057 C1061 1.376 . S
C1058 C1056 1.394 . S
C1058 C1059 1.369 . S
C1058 C1062 1.531 . S
C1059 C1058 1.369 . S
C1059 C1060 1.410 . S
C1059 C1067 1.486 1_554 S
C1060 C1059 1.410 . S
C1060 C1061 1.392 . S
C1060 C1063 1.511 . S
C1061 C1057 1.376 . S
C1061 C1060 1.392 . S
C1061 H1073 0.929 . S
C1062 C1058 1.531 . S
C1062 H1074 0.960 . S
C1062 H1075 0.962 1_554 S
C1062 H1076 0.960 . S
C1063 C1060 1.511 . S
C1063 H1077 0.961 . S
C1063 H1078 0.961 . S
C1063 H1079 0.961 . S
C1064 C1065 1.370 . S
C1064 C1066 1.363 . S
C1064 H1080 0.931 . S
C1065 C1064 1.370 . S
C1065 C1069 1.408 . S
C1066 C1064 1.363 . S
C1066 C1067 1.387 . S
C1066 C1070 1.524 . S
C1067 C1059 1.486 1_556 S
C1067 C1066 1.387 . S
C1067 C1068 1.403 . S
C1068 C1067 1.403 . S
C1068 C1069 1.404 . S
C1068 C1071 1.539 1_556 S
C1069 C1065 1.408 . S
C1069 C1068 1.404 . S
C1069 H1081 0.930 . S
C1070 C1066 1.524 . S
C1070 H1082 0.956 . S
C1070 H1083 0.961 . S
C1070 H1084 0.961 . S
C1071 C1068 1.539 1_554 S
C1071 H1085 0.958 . S
C1071 H1086 0.961 . S
C1071 H1087 0.960 . S
H1072 C1056 0.931 . S
H1073 C1061 0.929 . S
H1074 C1062 0.960 . S
H1075 C1062 0.962 1_556 S
H1076 C1062 0.960 . S
H1077 C1063 0.961 . S
H1078 C1063 0.961 . S
H1079 C1063 0.961 . S
H1080 C1064 0.931 . S
H1081 C1069 0.930 . S
H1082 C1070 0.956 . S
H1083 C1070 0.961 . S
H1084 C1070 0.961 . S
H1085 C1071 0.958 . S
H1086 C1071 0.961 . S
H1087 C1071 0.960 . S
C1088 C1089 1.391 . S
C1088 C1090 1.394 1_545 S
C1088 H1104 0.931 . S
C1089 C1088 1.391 . S
C1089 C1093 1.376 . S
C1090 C1088 1.394 1_565 S
C1090 C1091 1.369 . S
C1090 C1094 1.531 . S
C1091 C1090 1.369 . S
C1091 C1092 1.410 1_565 S
C1091 C1099 1.503 . S
C1092 C1091 1.410 1_545 S
C1092 C1093 1.392 . S
C1092 C1095 1.511 1_545 S
C1093 C1089 1.376 . S
C1093 C1092 1.392 . S
C1093 H1105 0.929 . S
C1094 C1090 1.531 . S
C1094 H1106 0.960 . S
C1094 H1107 0.962 . S
C1094 H1108 0.960 . S
C1095 C1092 1.511 1_565 S
C1095 H1109 0.961 1_565 S
C1095 H1110 0.961 . S
C1095 H1111 0.961 . S
C1096 C1097 1.370 . S
C1096 C1098 1.363 . S
C1096 H1112 0.931 . S
C1097 C1096 1.370 . S
C1097 C1101 1.408 . S
C1098 C1096 1.363 . S
C1098 C1099 1.370 . S
C1098 C1102 1.524 1_565 S
C1099 C1091 1.503 . S
C1099 C1098 1.370 . S
C1099 C1100 1.403 . S
C1100 C1099 1.403 . S
C1100 C1101 1.404 . S
C1100 C1103 1.539 . S
C1101 C1097 1.408 . S
C1101 C1100 1.404 . S
C1101 H1113 0.930 . S
C1102 C1098 1.524 1_545 S
C1102 H1114 0.956 . S
C1102 H1115 0.961 . S
C1102 H1116 0.961 . S
C1103 C1100 1.539 . S
C1103 H1117 0.958 . S
C1103 H1118 0.961 . S
C1103 H1119 0.960 . S
H1104 C1088 0.931 . S
H1105 C1093 0.929 . S
H1106 C1094 0.960 . S
H1107 C1094 0.962 . S
H1108 C1094 0.960 . S
H1109 C1095 0.961 1_545 S
H1110 C1095 0.961 . S
H1111 C1095 0.961 . S
H1112 C1096 0.931 . S
H1113 C1101 0.930 . S
H1114 C1102 0.956 . S
H1115 C1102 0.961 . S
H1116 C1102 0.961 . S
H1117 C1103 0.958 . S
H1118 C1103 0.961 . S
H1119 C1103 0.960 . S
C1120 C1121 1.391 . S
C1120 C1122 1.394 . S
C1120 H1136 0.931 . S
C1121 C1120 1.391 . S
C1121 C1125 1.376 . S
C1122 C1120 1.394 . S
C1122 C1123 1.369 . S
C1122 C1126 1.531 . S
C1123 C1122 1.369 . S
C1123 C1124 1.410 . S
C1123 C1131 1.503 . S
C1124 C1123 1.410 . S
C1124 C1125 1.392 . S
C1124 C1127 1.511 . S
C1125 C1121 1.376 . S
C1125 C1124 1.392 . S
C1125 H1137 0.929 . S
C1126 C1122 1.531 . S
C1126 H1138 0.960 . S
C1126 H1139 0.962 . S
C1126 H1140 0.960 . S
C1127 C1124 1.511 . S
C1127 H1141 0.961 . S
C1127 H1142 0.961 . S
C1127 H1143 0.961 . S
C1128 C1129 1.370 . S
C1128 C1130 1.363 . S
C1128 H1144 0.931 . S
C1129 C1128 1.370 . S
C1129 C1133 1.408 . S
C1130 C1128 1.363 . S
C1130 C1131 1.370 . S
C1130 C1134 1.524 . S
C1131 C1123 1.503 . S
C1131 C1130 1.370 . S
C1131 C1132 1.403 . S
C1132 C1131 1.403 . S
C1132 C1133 1.404 . S
C1132 C1135 1.539 . S
C1133 C1129 1.408 . S
C1133 C1132 1.404 . S
C1133 H1145 0.930 . S
C1134 C1130 1.524 . S
C1134 H1146 0.956 . S
C1134 H1147 0.961 . S
C1134 H1148 0.961 . S
C1135 C1132 1.539 . S
C1135 H1149 0.958 . S
C1135 H1150 0.961 . S
C1135 H1151 0.960 . S
H1136 C1120 0.931 . S
H1137 C1125 0.929 . S
H1138 C1126 0.960 . S
H1139 C1126 0.962 . S
H1140 C1126 0.960 . S
H1141 C1127 0.961 . S
H1142 C1127 0.961 . S
H1143 C1127 0.961 . S
H1144 C1128 0.931 . S
H1145 C1133 0.930 . S
H1146 C1134 0.956 . S
H1147 C1134 0.961 . S
H1148 C1134 0.961 . S
H1149 C1135 0.958 . S
H1150 C1135 0.961 . S
H1151 C1135 0.960 . S
C1152 C1153 1.391 . S
C1152 C1154 1.394 . S
C1152 H1168 0.931 . S
C1153 C1152 1.391 . S
C1153 C1157 1.376 . S
C1154 C1152 1.394 . S
C1154 C1155 1.369 . S
C1154 C1158 1.531 . S
C1155 C1154 1.369 . S
C1155 C1156 1.410 . S
C1155 C1163 1.503 . S
C1156 C1155 1.410 . S
C1156 C1157 1.392 . S
C1156 C1159 1.511 . S
C1157 C1153 1.376 . S
C1157 C1156 1.392 . S
C1157 H1169 0.929 . S
C1158 C1154 1.531 . S
C1158 H1170 0.960 . S
C1158 H1171 0.962 . S
C1158 H1172 0.960 . S
C1159 C1156 1.511 . S
C1159 H1173 0.961 . S
C1159 H1174 0.961 . S
C1159 H1175 0.961 . S
C1160 C1161 1.370 . S
C1160 C1162 1.363 . S
C1160 H1176 0.931 . S
C1161 C1160 1.370 . S
C1161 C1165 1.408 . S
C1162 C1160 1.363 . S
C1162 C1163 1.370 . S
C1162 C1166 1.524 . S
C1163 C1155 1.503 . S
C1163 C1162 1.370 . S
C1163 C1164 1.403 . S
C1164 C1163 1.403 . S
C1164 C1165 1.404 . S
C1164 C1167 1.539 . S
C1165 C1161 1.408 . S
C1165 C1164 1.404 . S
C1165 H1177 0.930 . S
C1166 C1162 1.524 . S
C1166 H1178 0.956 . S
C1166 H1179 0.961 . S
C1166 H1180 0.961 . S
C1167 C1164 1.539 . S
C1167 H1181 0.958 . S
C1167 H1182 0.961 . S
C1167 H1183 0.960 . S
H1168 C1152 0.931 . S
H1169 C1157 0.929 . S
H1170 C1158 0.960 . S
H1171 C1158 0.962 . S
H1172 C1158 0.960 . S
H1173 C1159 0.961 . S
H1174 C1159 0.961 . S
H1175 C1159 0.961 . S
H1176 C1160 0.931 . S
H1177 C1165 0.930 . S
H1178 C1166 0.956 . S
H1179 C1166 0.961 . S
H1180 C1166 0.961 . S
H1181 C1167 0.958 . S
H1182 C1167 0.961 . S
H1183 C1167 0.960 . S
C1184 C1185 1.391 . S
C1184 C1186 1.394 . S
C1184 H1200 0.931 . S
C1185 C1184 1.391 . S
C1185 C1189 1.376 . S
C1186 C1184 1.394 . S
C1186 C1187 1.369 . S
C1186 C1190 1.531 1_655 S
C1187 C1186 1.369 . S
C1187 C1188 1.410 . S
C1187 C1195 1.503 1_655 S
C1188 C1187 1.410 . S
C1188 C1189 1.392 . S
C1188 C1191 1.511 . S
C1189 C1185 1.376 . S
C1189 C1188 1.392 . S
C1189 H1201 0.929 . S
C1190 C1186 1.531 1_455 S
C1190 H1202 0.960 . S
C1190 H1203 0.962 . S
C1190 H1204 0.960 . S
C1191 C1188 1.511 . S
C1191 H1205 0.961 . S
C1191 H1206 0.961 . S
C1191 H1207 0.961 . S
C1192 C1193 1.370 . S
C1192 C1194 1.363 . S
C1192 H1208 0.931 . S
C1193 C1192 1.370 . S
C1193 C1197 1.408 . S
C1194 C1192 1.363 . S
C1194 C1195 1.370 . S
C1194 C1198 1.524 . S
C1195 C1187 1.503 1_455 S
C1195 C1194 1.370 . S
C1195 C1196 1.403 . S
C1196 C1195 1.403 . S
C1196 C1197 1.404 . S
C1196 C1199 1.539 . S
C1197 C1193 1.408 . S
C1197 C1196 1.404 . S
C1197 H1209 0.930 . S
C1198 C1194 1.524 . S
C1198 H1210 0.956 . S
C1198 H1211 0.961 1_455 S
C1198 H1212 0.961 . S
C1199 C1196 1.539 . S
C1199 H1213 0.958 . S
C1199 H1214 0.961 . S
C1199 H1215 0.960 1_455 S
H1200 C1184 0.931 . S
H1201 C1189 0.929 . S
H1202 C1190 0.960 . S
H1203 C1190 0.962 . S
H1204 C1190 0.960 . S
H1205 C1191 0.961 . S
H1206 C1191 0.961 . S
H1207 C1191 0.961 . S
H1208 C1192 0.931 . S
H1209 C1197 0.930 . S
H1210 C1198 0.956 . S
H1211 C1198 0.961 1_655 S
H1212 C1198 0.961 . S
H1213 C1199 0.958 . S
H1214 C1199 0.961 . S
H1215 C1199 0.960 1_655 S
C1216 C1217 1.391 . S
C1216 C1218 1.394 . S
C1216 H1232 0.931 . S
C1217 C1216 1.391 . S
C1217 C1221 1.376 . S
C1218 C1216 1.394 . S
C1218 C1219 1.369 . S
C1218 C1222 1.531 . S
C1219 C1218 1.369 . S
C1219 C1220 1.410 . S
C1219 C1227 1.503 1_655 S
C1220 C1219 1.410 . S
C1220 C1221 1.392 . S
C1220 C1223 1.511 1_655 S
C1221 C1217 1.376 . S
C1221 C1220 1.392 . S
C1221 H1233 0.929 . S
C1222 C1218 1.531 . S
C1222 H1234 0.960 . S
C1222 H1235 0.962 . S
C1222 H1236 0.960 . S
C1223 C1220 1.511 1_455 S
C1223 H1237 0.961 . S
C1223 H1238 0.961 . S
C1223 H1239 0.961 . S
C1224 C1225 1.370 . S
C1224 C1226 1.363 . S
C1224 H1240 0.931 . S
C1225 C1224 1.370 . S
C1225 C1229 1.408 . S
C1226 C1224 1.363 . S
C1226 C1227 1.370 . S
C1226 C1230 1.524 . S
C1227 C1219 1.503 1_455 S
C1227 C1226 1.370 . S
C1227 C1228 1.403 . S
C1228 C1227 1.403 . S
C1228 C1229 1.404 . S
C1228 C1231 1.539 . S
C1229 C1225 1.408 . S
C1229 C1228 1.404 . S
C1229 H1241 0.930 . S
C1230 C1226 1.524 . S
C1230 H1242 0.956 1_455 S
C1230 H1243 0.961 . S
C1230 H1244 0.961 . S
C1231 C1228 1.539 . S
C1231 H1245 0.958 1_455 S
C1231 H1246 0.961 . S
C1231 H1247 0.960 1_455 S
H1232 C1216 0.931 . S
H1233 C1221 0.929 . S
H1234 C1222 0.960 . S
H1235 C1222 0.962 . S
H1236 C1222 0.960 . S
H1237 C1223 0.961 . S
H1238 C1223 0.961 . S
H1239 C1223 0.961 . S
H1240 C1224 0.931 . S
H1241 C1229 0.930 . S
H1242 C1230 0.956 1_655 S
H1243 C1230 0.961 . S
H1244 C1230 0.961 . S
H1245 C1231 0.958 1_655 S
H1246 C1231 0.961 . S
H1247 C1231 0.960 1_655 S
C1248 C1249 1.391 . S
C1248 C1250 1.394 . S
C1248 H1264 0.931 . S
C1249 C1248 1.391 . S
C1249 C1253 1.376 . S
C1250 C1248 1.394 . S
C1250 C1251 1.369 . S
C1250 C1254 1.531 . S
C1251 C1250 1.369 . S
C1251 C1252 1.410 . S
C1251 C1259 1.503 . S
C1252 C1251 1.410 . S
C1252 C1253 1.392 . S
C1252 C1255 1.511 . S
C1253 C1249 1.376 . S
C1253 C1252 1.392 . S
C1253 H1265 0.929 . S
C1254 C1250 1.531 . S
C1254 H1266 0.960 . S
C1254 H1267 0.962 . S
C1254 H1268 0.960 . S
C1255 C1252 1.511 . S
C1255 H1269 0.961 . S
C1255 H1270 0.961 . S
C1255 H1271 0.961 . S
C1256 C1257 1.370 . S
C1256 C1258 1.363 . S
C1256 H1272 0.931 . S
C1257 C1256 1.370 . S
C1257 C1261 1.408 . S
C1258 C1256 1.363 . S
C1258 C1259 1.370 . S
C1258 C1262 1.524 . S
C1259 C1251 1.503 . S
C1259 C1258 1.370 . S
C1259 C1260 1.403 . S
C1260 C1259 1.403 . S
C1260 C1261 1.404 . S
C1260 C1263 1.539 . S
C1261 C1257 1.408 . S
C1261 C1260 1.404 . S
C1261 H1273 0.930 . S
C1262 C1258 1.524 . S
C1262 H1274 0.956 . S
C1262 H1275 0.961 . S
C1262 H1276 0.961 . S
C1263 C1260 1.539 . S
C1263 H1277 0.958 . S
C1263 H1278 0.961 . S
C1263 H1279 0.960 . S
H1264 C1248 0.931 . S
H1265 C1253 0.929 . S
H1266 C1254 0.960 . S
H1267 C1254 0.962 . S
H1268 C1254 0.960 . S
H1269 C1255 0.961 . S
H1270 C1255 0.961 . S
H1271 C1255 0.961 . S
H1272 C1256 0.931 . S
H1273 C1261 0.930 . S
H1274 C1262 0.956 . S
H1275 C1262 0.961 . S
H1276 C1262 0.961 . S
H1277 C1263 0.958 . S
H1278 C1263 0.961 . S
H1279 C1263 0.960 . S
C1280 C1281 1.391 . S
C1280 C1282 1.394 . S
C1280 H1296 0.931 . S
C1281 C1280 1.391 . S
C1281 C1285 1.376 . S
C1282 C1280 1.394 . S
C1282 C1283 1.369 . S
C1282 C1286 1.531 . S
C1283 C1282 1.369 . S
C1283 C1284 1.410 . S
C1283 C1291 1.503 . S
C1284 C1283 1.410 . S
C1284 C1285 1.392 . S
C1284 C1287 1.511 . S
C1285 C1281 1.376 . S
C1285 C1284 1.392 . S
C1285 H1297 0.929 . S
C1286 C1282 1.531 . S
C1286 H1298 0.960 . S
C1286 H1299 0.962 . S
C1286 H1300 0.960 . S
C1287 C1284 1.511 . S
C1287 H1301 0.961 . S
C1287 H1302 0.961 . S
C1287 H1303 0.961 . S
C1288 C1289 1.370 . S
C1288 C1290 1.363 . S
C1288 H1304 0.931 . S
C1289 C1288 1.370 . S
C1289 C1293 1.408 . S
C1290 C1288 1.363 . S
C1290 C1291 1.370 . S
C1290 C1294 1.524 . S
C1291 C1283 1.503 . S
C1291 C1290 1.370 . S
C1291 C1292 1.403 . S
C1292 C1291 1.403 . S
C1292 C1293 1.404 . S
C1292 C1295 1.539 . S
C1293 C1289 1.408 . S
C1293 C1292 1.404 . S
C1293 H1305 0.930 . S
C1294 C1290 1.524 . S
C1294 H1306 0.956 . S
C1294 H1307 0.961 . S
C1294 H1308 0.961 . S
C1295 C1292 1.539 . S
C1295 H1309 0.958 . S
C1295 H1310 0.961 . S
C1295 H1311 0.960 . S
H1296 C1280 0.931 . S
H1297 C1285 0.929 . S
H1298 C1286 0.960 . S
H1299 C1286 0.962 . S
H1300 C1286 0.960 . S
H1301 C1287 0.961 . S
H1302 C1287 0.961 . S
H1303 C1287 0.961 . S
H1304 C1288 0.931 . S
H1305 C1293 0.930 . S
H1306 C1294 0.956 . S
H1307 C1294 0.961 . S
H1308 C1294 0.961 . S
H1309 C1295 0.958 . S
H1310 C1295 0.961 . S
H1311 C1295 0.960 . S
C1312 C1313 1.391 . S
C1312 C1314 1.394 . S
C1312 H1328 0.931 . S
C1313 C1312 1.391 . S
C1313 C1317 1.376 . S
C1314 C1312 1.394 . S
C1314 C1315 1.369 . S
C1314 C1318 1.531 . S
C1315 C1314 1.369 . S
C1315 C1316 1.410 . S
C1315 C1323 1.503 1_455 S
C1316 C1315 1.410 . S
C1316 C1317 1.392 . S
C1316 C1319 1.511 1_455 S
C1317 C1313 1.376 . S
C1317 C1316 1.392 . S
C1317 H1329 0.929 . S
C1318 C1314 1.531 . S
C1318 H1330 0.960 . S
C1318 H1331 0.962 . S
C1318 H1332 0.960 . S
C1319 C1316 1.511 1_655 S
C1319 H1333 0.961 . S
C1319 H1334 0.961 . S
C1319 H1335 0.961 . S
C1320 C1321 1.370 . S
C1320 C1322 1.363 . S
C1320 H1336 0.931 . S
C1321 C1320 1.370 . S
C1321 C1325 1.408 . S
C1322 C1320 1.363 . S
C1322 C1323 1.370 . S
C1322 C1326 1.524 1_655 S
C1323 C1315 1.503 1_655 S
C1323 C1322 1.370 . S
C1323 C1324 1.403 . S
C1324 C1323 1.403 . S
C1324 C1325 1.404 . S
C1324 C1327 1.539 . S
C1325 C1321 1.408 . S
C1325 C1324 1.404 . S
C1325 H1337 0.930 . S
C1326 C1322 1.524 1_455 S
C1326 H1338 0.956 . S
C1326 H1339 0.961 . S
C1326 H1340 0.961 . S
C1327 C1324 1.539 . S
C1327 H1341 0.958 . S
C1327 H1342 0.961 . S
C1327 H1343 0.960 . S
H1328 C1312 0.931 . S
H1329 C1317 0.929 . S
H1330 C1318 0.960 . S
H1331 C1318 0.962 . S
H1332 C1318 0.960 . S
H1333 C1319 0.961 . S
H1334 C1319 0.961 . S
H1335 C1319 0.961 . S
H1336 C1320 0.931 . S
H1337 C1325 0.930 . S
H1338 C1326 0.956 . S
H1339 C1326 0.961 . S
H1340 C1326 0.961 . S
H1341 C1327 0.958 . S
H1342 C1327 0.961 . S
H1343 C1327 0.960 . S
C1344 C1345 1.391 . S
C1344 C1346 1.394 . S
C1344 H1360 0.931 . S
C1345 C1344 1.391 . S
C1345 C1349 1.376 . S
C1346 C1344 1.394 . S
C1346 C1347 1.369 . S
C1346 C1350 1.531 1_455 S
C1347 C1346 1.369 . S
C1347 C1348 1.410 . S
C1347 C1355 1.503 1_455 S
C1348 C1347 1.410 . S
C1348 C1349 1.392 . S
C1348 C1351 1.511 . S
C1349 C1345 1.376 . S
C1349 C1348 1.392 . S
C1349 H1361 0.929 . S
C1350 C1346 1.531 1_655 S
C1350 H1362 0.960 . S
C1350 H1363 0.962 . S
C1350 H1364 0.960 . S
C1351 C1348 1.511 . S
C1351 H1365 0.961 . S
C1351 H1366 0.961 . S
C1351 H1367 0.961 . S
C1352 C1353 1.370 . S
C1352 C1354 1.363 . S
C1352 H1368 0.931 . S
C1353 C1352 1.370 . S
C1353 C1357 1.408 . S
C1354 C1352 1.363 . S
C1354 C1355 1.370 . S
C1354 C1358 1.524 1_655 S
C1355 C1347 1.503 1_655 S
C1355 C1354 1.370 . S
C1355 C1356 1.403 . S
C1356 C1355 1.403 . S
C1356 C1357 1.404 . S
C1356 C1359 1.539 . S
C1357 C1353 1.408 . S
C1357 C1356 1.404 . S
C1357 H1369 0.930 . S
C1358 C1354 1.524 1_455 S
C1358 H1370 0.956 . S
C1358 H1371 0.961 . S
C1358 H1372 0.961 . S
C1359 C1356 1.539 . S
C1359 H1373 0.958 . S
C1359 H1374 0.961 . S
C1359 H1375 0.960 . S
H1360 C1344 0.931 . S
H1361 C1349 0.929 . S
H1362 C1350 0.960 . S
H1363 C1350 0.962 . S
H1364 C1350 0.960 . S
H1365 C1351 0.961 . S
H1366 C1351 0.961 . S
H1367 C1351 0.961 . S
H1368 C1352 0.931 . S
H1369 C1357 0.930 . S
H1370 C1358 0.956 . S
H1371 C1358 0.961 . S
H1372 C1358 0.961 . S
H1373 C1359 0.958 . S
H1374 C1359 0.961 . S
H1375 C1359 0.960 . S
C1376 C1377 1.391 . S
C1376 C1378 1.394 . S
C1376 H1392 0.931 . S
C1377 C1376 1.391 . S
C1377 C1381 1.376 . S
C1378 C1376 1.394 . S
C1378 C1379 1.369 . S
C1378 C1382 1.531 . S
C1379 C1378 1.369 . S
C1379 C1380 1.410 . S
C1379 C1387 1.503 . S
C1380 C1379 1.410 . S
C1380 C1381 1.392 . S
C1380 C1383 1.511 . S
C1381 C1377 1.376 . S
C1381 C1380 1.392 . S
C1381 H1393 0.929 . S
C1382 C1378 1.531 . S
C1382 H1394 0.960 . S
C1382 H1395 0.962 . S
C1382 H1396 0.960 . S
C1383 C1380 1.511 . S
C1383 H1397 0.961 . S
C1383 H1398 0.961 . S
C1383 H1399 0.961 . S
C1384 C1385 1.370 . S
C1384 C1386 1.363 . S
C1384 H1400 0.931 . S
C1385 C1384 1.370 . S
C1385 C1389 1.408 . S
C1386 C1384 1.363 . S
C1386 C1387 1.370 . S
C1386 C1390 1.524 . S
C1387 C1379 1.503 . S
C1387 C1386 1.370 . S
C1387 C1388 1.403 . S
C1388 C1387 1.403 . S
C1388 C1389 1.404 . S
C1388 C1391 1.539 . S
C1389 C1385 1.408 . S
C1389 C1388 1.404 . S
C1389 H1401 0.930 . S
C1390 C1386 1.524 . S
C1390 H1402 0.956 . S
C1390 H1403 0.961 . S
C1390 H1404 0.961 . S
C1391 C1388 1.539 . S
C1391 H1405 0.958 . S
C1391 H1406 0.961 . S
C1391 H1407 0.960 . S
H1392 C1376 0.931 . S
H1393 C1381 0.929 . S
H1394 C1382 0.960 . S
H1395 C1382 0.962 . S
H1396 C1382 0.960 . S
H1397 C1383 0.961 . S
H1398 C1383 0.961 . S
H1399 C1383 0.961 . S
H1400 C1384 0.931 . S
H1401 C1389 0.930 . S
H1402 C1390 0.956 . S
H1403 C1390 0.961 . S
H1404 C1390 0.961 . S
H1405 C1391 0.958 . S
H1406 C1391 0.961 . S
H1407 C1391 0.960 . S
C1408 C1409 1.391 . S
C1408 C1410 1.394 . S
C1408 H1424 0.931 . S
C1409 C1408 1.391 . S
C1409 C1413 1.376 . S
C1410 C1408 1.394 . S
C1410 C1411 1.369 . S
C1410 C1414 1.531 . S
C1411 C1410 1.369 . S
C1411 C1412 1.410 . S
C1411 C1419 1.503 . S
C1412 C1411 1.410 . S
C1412 C1413 1.392 . S
C1412 C1415 1.511 . S
C1413 C1409 1.376 . S
C1413 C1412 1.392 . S
C1413 H1425 0.929 . S
C1414 C1410 1.531 . S
C1414 H1426 0.960 . S
C1414 H1427 0.962 . S
C1414 H1428 0.960 . S
C1415 C1412 1.511 . S
C1415 H1429 0.961 . S
C1415 H1430 0.961 . S
C1415 H1431 0.961 . S
C1416 C1417 1.370 . S
C1416 C1418 1.363 . S
C1416 H1432 0.931 . S
C1417 C1416 1.370 . S
C1417 C1421 1.408 . S
C1418 C1416 1.363 . S
C1418 C1419 1.370 . S
C1418 C1422 1.524 . S
C1419 C1411 1.503 . S
C1419 C1418 1.370 . S
C1419 C1420 1.403 . S
C1420 C1419 1.403 . S
C1420 C1421 1.404 . S
C1420 C1423 1.539 . S
C1421 C1417 1.408 . S
C1421 C1420 1.404 . S
C1421 H1433 0.930 . S
C1422 C1418 1.524 . S
C1422 H1434 0.956 . S
C1422 H1435 0.961 . S
C1422 H1436 0.961 . S
C1423 C1420 1.539 . S
C1423 H1437 0.958 . S
C1423 H1438 0.961 . S
C1423 H1439 0.960 . S
H1424 C1408 0.931 . S
H1425 C1413 0.929 . S
H1426 C1414 0.960 . S
H1427 C1414 0.962 . S
H1428 C1414 0.960 . S
H1429 C1415 0.961 . S
H1430 C1415 0.961 . S
H1431 C1415 0.961 . S
H1432 C1416 0.931 . S
H1433 C1421 0.930 . S
H1434 C1422 0.956 . S
H1435 C1422 0.961 . S
H1436 C1422 0.961 . S
H1437 C1423 0.958 . S
H1438 C1423 0.961 . S
H1439 C1423 0.960 . S
C1440 C1441 1.391 . S
C1440 C1442 1.394 . S
C1440 H1456 0.931 . S
C1441 C1440 1.391 . S
C1441 C1445 1.376 . S
C1442 C1440 1.394 . S
C1442 C1443 1.369 . S
C1442 C1446 1.531 . S
C1443 C1442 1.369 . S
C1443 C1444 1.410 . S
C1443 C1451 1.503 . S
C1444 C1443 1.410 . S
C1444 C1445 1.392 . S
C1444 C1447 1.511 . S
C1445 C1441 1.376 . S
C1445 C1444 1.392 . S
C1445 H1457 0.929 . S
C1446 C1442 1.531 . S
C1446 H1458 0.960 . S
C1446 H1459 0.962 . S
C1446 H1460 0.960 . S
C1447 C1444 1.511 . S
C1447 H1461 0.961 . S
C1447 H1462 0.961 . S
C1447 H1463 0.961 . S
C1448 C1449 1.370 . S
C1448 C1450 1.363 . S
C1448 H1464 0.931 . S
C1449 C1448 1.370 . S
C1449 C1453 1.408 . S
C1450 C1448 1.363 . S
C1450 C1451 1.370 . S
C1450 C1454 1.524 . S
C1451 C1443 1.503 . S
C1451 C1450 1.370 . S
C1451 C1452 1.403 . S
C1452 C1451 1.403 . S
C1452 C1453 1.404 . S
C1452 C1455 1.539 . S
C1453 C1449 1.408 . S
C1453 C1452 1.404 . S
C1453 H1465 0.930 . S
C1454 C1450 1.524 . S
C1454 H1466 0.956 . S
C1454 H1467 0.961 . S
C1454 H1468 0.961 . S
C1455 C1452 1.539 . S
C1455 H1469 0.958 . S
C1455 H1470 0.961 . S
C1455 H1471 0.960 . S
H1456 C1440 0.931 . S
H1457 C1445 0.929 . S
H1458 C1446 0.960 . S
H1459 C1446 0.962 . S
H1460 C1446 0.960 . S
H1461 C1447 0.961 . S
H1462 C1447 0.961 . S
H1463 C1447 0.961 . S
H1464 C1448 0.931 . S
H1465 C1453 0.930 . S
H1466 C1454 0.956 . S
H1467 C1454 0.961 . S
H1468 C1454 0.961 . S
H1469 C1455 0.958 . S
H1470 C1455 0.961 . S
H1471 C1455 0.960 . S
C1472 C1473 1.391 . S
C1472 C1474 1.394 . S
C1472 H1488 0.931 . S
C1473 C1472 1.391 . S
C1473 C1477 1.376 . S
C1474 C1472 1.394 . S
C1474 C1475 1.369 . S
C1474 C1478 1.531 . S
C1475 C1474 1.369 . S
C1475 C1476 1.410 . S
C1475 C1483 1.503 . S
C1476 C1475 1.410 . S
C1476 C1477 1.392 . S
C1476 C1479 1.511 . S
C1477 C1473 1.376 . S
C1477 C1476 1.392 . S
C1477 H1489 0.929 . S
C1478 C1474 1.531 . S
C1478 H1490 0.960 . S
C1478 H1491 0.962 . S
C1478 H1492 0.960 . S
C1479 C1476 1.511 . S
C1479 H1493 0.961 . S
C1479 H1494 0.961 . S
C1479 H1495 0.961 . S
C1480 C1481 1.370 . S
C1480 C1482 1.363 . S
C1480 H1496 0.931 . S
C1481 C1480 1.370 . S
C1481 C1485 1.408 . S
C1482 C1480 1.363 . S
C1482 C1483 1.370 . S
C1482 C1486 1.524 . S
C1483 C1475 1.503 . S
C1483 C1482 1.370 . S
C1483 C1484 1.403 . S
C1484 C1483 1.403 . S
C1484 C1485 1.404 . S
C1484 C1487 1.539 . S
C1485 C1481 1.408 . S
C1485 C1484 1.404 . S
C1485 H1497 0.930 . S
C1486 C1482 1.524 . S
C1486 H1498 0.956 . S
C1486 H1499 0.961 . S
C1486 H1500 0.961 . S
C1487 C1484 1.539 . S
C1487 H1501 0.958 . S
C1487 H1502 0.961 . S
C1487 H1503 0.960 . S
H1488 C1472 0.931 . S
H1489 C1477 0.929 . S
H1490 C1478 0.960 . S
H1491 C1478 0.962 . S
H1492 C1478 0.960 . S
H1493 C1479 0.961 . S
H1494 C1479 0.961 . S
H1495 C1479 0.961 . S
H1496 C1480 0.931 . S
H1497 C1485 0.930 . S
H1498 C1486 0.956 . S
H1499 C1486 0.961 . S
H1500 C1486 0.961 . S
H1501 C1487 0.958 . S
H1502 C1487 0.961 . S
H1503 C1487 0.960 . S
C1504 C1505 1.391 . S
C1504 C1506 1.394 . S
C1504 H1520 0.931 . S
C1505 C1504 1.391 . S
C1505 C1509 1.376 . S
C1506 C1504 1.394 . S
C1506 C1507 1.369 . S
C1506 C1510 1.531 . S
C1507 C1506 1.369 . S
C1507 C1508 1.410 . S
C1507 C1515 1.503 . S
C1508 C1507 1.410 . S
C1508 C1509 1.392 . S
C1508 C1511 1.511 . S
C1509 C1505 1.376 . S
C1509 C1508 1.392 . S
C1509 H1521 0.929 . S
C1510 C1506 1.531 . S
C1510 H1522 0.960 . S
C1510 H1523 0.962 . S
C1510 H1524 0.960 . S
C1511 C1508 1.511 . S
C1511 H1525 0.961 . S
C1511 H1526 0.961 . S
C1511 H1527 0.961 . S
C1512 C1513 1.370 . S
C1512 C1514 1.363 . S
C1512 H1528 0.931 . S
C1513 C1512 1.370 . S
C1513 C1517 1.408 . S
C1514 C1512 1.363 . S
C1514 C1515 1.370 . S
C1514 C1518 1.524 . S
C1515 C1507 1.503 . S
C1515 C1514 1.370 . S
C1515 C1516 1.403 . S
C1516 C1515 1.403 . S
C1516 C1517 1.404 . S
C1516 C1519 1.539 . S
C1517 C1513 1.408 . S
C1517 C1516 1.404 . S
C1517 H1529 0.930 . S
C1518 C1514 1.524 . S
C1518 H1530 0.956 . S
C1518 H1531 0.961 . S
C1518 H1532 0.961 . S
C1519 C1516 1.539 . S
C1519 H1533 0.958 . S
C1519 H1534 0.961 . S
C1519 H1535 0.960 . S
H1520 C1504 0.931 . S
H1521 C1509 0.929 . S
H1522 C1510 0.960 . S
H1523 C1510 0.962 . S
H1524 C1510 0.960 . S
H1525 C1511 0.961 . S
H1526 C1511 0.961 . S
H1527 C1511 0.961 . S
H1528 C1512 0.931 . S
H1529 C1517 0.930 . S
H1530 C1518 0.956 . S
H1531 C1518 0.961 . S
H1532 C1518 0.961 . S
H1533 C1519 0.958 . S
H1534 C1519 0.961 . S
H1535 C1519 0.960 . S
C1536 C1537 1.391 . S
C1536 C1538 1.394 . S
C1536 H1552 0.931 . S
C1537 C1536 1.391 . S
C1537 C1541 1.376 . S
C1538 C1536 1.394 . S
C1538 C1539 1.369 . S
C1538 C1542 1.531 . S
C1539 C1538 1.369 . S
C1539 C1540 1.410 . S
C1539 C1547 1.503 . S
C1540 C1539 1.410 . S
C1540 C1541 1.392 . S
C1540 C1543 1.511 . S
C1541 C1537 1.376 . S
C1541 C1540 1.392 . S
C1541 H1553 0.929 . S
C1542 C1538 1.531 . S
C1542 H1554 0.960 . S
C1542 H1555 0.962 . S
C1542 H1556 0.960 . S
C1543 C1540 1.511 . S
C1543 H1557 0.961 . S
C1543 H1558 0.961 . S
C1543 H1559 0.961 . S
C1544 C1545 1.370 . S
C1544 C1546 1.363 . S
C1544 H1560 0.931 . S
C1545 C1544 1.370 . S
C1545 C1549 1.408 . S
C1546 C1544 1.363 . S
C1546 C1547 1.370 . S
C1546 C1550 1.524 . S
C1547 C1539 1.503 . S
C1547 C1546 1.370 . S
C1547 C1548 1.403 . S
C1548 C1547 1.403 . S
C1548 C1549 1.404 . S
C1548 C1551 1.539 . S
C1549 C1545 1.408 . S
C1549 C1548 1.404 . S
C1549 H1561 0.930 . S
C1550 C1546 1.524 . S
C1550 H1562 0.956 . S
C1550 H1563 0.961 . S
C1550 H1564 0.961 . S
C1551 C1548 1.539 . S
C1551 H1565 0.958 . S
C1551 H1566 0.961 . S
C1551 H1567 0.960 . S
H1552 C1536 0.931 . S
H1553 C1541 0.929 . S
H1554 C1542 0.960 . S
H1555 C1542 0.962 . S
H1556 C1542 0.960 . S
H1557 C1543 0.961 . S
H1558 C1543 0.961 . S
H1559 C1543 0.961 . S
H1560 C1544 0.931 . S
H1561 C1549 0.930 . S
H1562 C1550 0.956 . S
H1563 C1550 0.961 . S
H1564 C1550 0.961 . S
H1565 C1551 0.958 . S
H1566 C1551 0.961 . S
H1567 C1551 0.960 . S
C1568 C1569 1.391 . S
C1568 C1570 1.394 . S
C1568 H1584 0.931 . S
C1569 C1568 1.391 . S
C1569 C1573 1.376 . S
C1570 C1568 1.394 . S
C1570 C1571 1.369 . S
C1570 C1574 1.531 . S
C1571 C1570 1.369 . S
C1571 C1572 1.410 . S
C1571 C1579 1.503 . S
C1572 C1571 1.410 . S
C1572 C1573 1.392 . S
C1572 C1575 1.511 . S
C1573 C1569 1.376 . S
C1573 C1572 1.392 . S
C1573 H1585 0.929 . S
C1574 C1570 1.531 . S
C1574 H1586 0.960 . S
C1574 H1587 0.962 . S
C1574 H1588 0.960 . S
C1575 C1572 1.511 . S
C1575 H1589 0.961 . S
C1575 H1590 0.961 . S
C1575 H1591 0.961 . S
C1576 C1577 1.370 . S
C1576 C1578 1.363 . S
C1576 H1592 0.931 . S
C1577 C1576 1.370 . S
C1577 C1581 1.408 . S
C1578 C1576 1.363 . S
C1578 C1579 1.370 . S
C1578 C1582 1.524 . S
C1579 C1571 1.503 . S
C1579 C1578 1.370 . S
C1579 C1580 1.403 . S
C1580 C1579 1.403 . S
C1580 C1581 1.404 . S
C1580 C1583 1.539 . S
C1581 C1577 1.408 . S
C1581 C1580 1.404 . S
C1581 H1593 0.930 . S
C1582 C1578 1.524 . S
C1582 H1594 0.956 . S
C1582 H1595 0.961 . S
C1582 H1596 0.961 . S
C1583 C1580 1.539 . S
C1583 H1597 0.958 . S
C1583 H1598 0.961 . S
C1583 H1599 0.960 . S
H1584 C1568 0.931 . S
H1585 C1573 0.929 . S
H1586 C1574 0.960 . S
H1587 C1574 0.962 . S
H1588 C1574 0.960 . S
H1589 C1575 0.961 . S
H1590 C1575 0.961 . S
H1591 C1575 0.961 . S
H1592 C1576 0.931 . S
H1593 C1581 0.930 . S
H1594 C1582 0.956 . S
H1595 C1582 0.961 . S
H1596 C1582 0.961 . S
H1597 C1583 0.958 . S
H1598 C1583 0.961 . S
H1599 C1583 0.960 . S
C1600 C1601 1.391 . S
C1600 C1602 1.394 . S
C1600 H1616 0.931 . S
C1601 C1600 1.391 . S
C1601 C1605 1.376 . S
C1602 C1600 1.394 . S
C1602 C1603 1.369 . S
C1602 C1606 1.531 . S
C1603 C1602 1.369 . S
C1603 C1604 1.410 . S
C1603 C1611 1.503 . S
C1604 C1603 1.410 . S
C1604 C1605 1.392 . S
C1604 C1607 1.511 . S
C1605 C1601 1.376 . S
C1605 C1604 1.392 . S
C1605 H1617 0.929 . S
C1606 C1602 1.531 . S
C1606 H1618 0.960 . S
C1606 H1619 0.962 . S
C1606 H1620 0.960 . S
C1607 C1604 1.511 . S
C1607 H1621 0.961 . S
C1607 H1622 0.961 . S
C1607 H1623 0.961 . S
C1608 C1609 1.370 . S
C1608 C1610 1.363 . S
C1608 H1624 0.931 . S
C1609 C1608 1.370 . S
C1609 C1613 1.408 . S
C1610 C1608 1.363 . S
C1610 C1611 1.370 . S
C1610 C1614 1.524 . S
C1611 C1603 1.503 . S
C1611 C1610 1.370 . S
C1611 C1612 1.403 . S
C1612 C1611 1.403 . S
C1612 C1613 1.404 . S
C1612 C1615 1.539 . S
C1613 C1609 1.408 . S
C1613 C1612 1.404 . S
C1613 H1625 0.930 . S
C1614 C1610 1.524 . S
C1614 H1626 0.956 . S
C1614 H1627 0.961 . S
C1614 H1628 0.961 . S
C1615 C1612 1.539 . S
C1615 H1629 0.958 . S
C1615 H1630 0.961 . S
C1615 H1631 0.960 . S
H1616 C1600 0.931 . S
H1617 C1605 0.929 . S
H1618 C1606 0.960 . S
H1619 C1606 0.962 . S
H1620 C1606 0.960 . S
H1621 C1607 0.961 . S
H1622 C1607 0.961 . S
H1623 C1607 0.961 . S
H1624 C1608 0.931 . S
H1625 C1613 0.930 . S
H1626 C1614 0.956 . S
H1627 C1614 0.961 . S
H1628 C1614 0.961 . S
H1629 C1615 0.958 . S
H1630 C1615 0.961 . S
H1631 C1615 0.960 . S
C1632 C1633 1.391 . S
C1632 C1634 1.394 . S
C1632 H1648 0.931 . S
C1633 C1632 1.391 . S
C1633 C1637 1.376 . S
C1634 C1632 1.394 . S
C1634 C1635 1.369 . S
C1634 C1638 1.531 . S
C1635 C1634 1.369 . S
C1635 C1636 1.410 . S
C1635 C1643 1.503 . S
C1636 C1635 1.410 . S
C1636 C1637 1.392 . S
C1636 C1639 1.511 . S
C1637 C1633 1.376 . S
C1637 C1636 1.392 . S
C1637 H1649 0.929 . S
C1638 C1634 1.531 . S
C1638 H1650 0.960 . S
C1638 H1651 0.962 . S
C1638 H1652 0.960 . S
C1639 C1636 1.511 . S
C1639 H1653 0.961 . S
C1639 H1654 0.961 . S
C1639 H1655 0.961 . S
C1640 C1641 1.370 . S
C1640 C1642 1.363 . S
C1640 H1656 0.931 . S
C1641 C1640 1.370 . S
C1641 C1645 1.408 . S
C1642 C1640 1.363 . S
C1642 C1643 1.370 . S
C1642 C1646 1.524 . S
C1643 C1635 1.503 . S
C1643 C1642 1.370 . S
C1643 C1644 1.403 . S
C1644 C1643 1.403 . S
C1644 C1645 1.404 . S
C1644 C1647 1.539 . S
C1645 C1641 1.408 . S
C1645 C1644 1.404 . S
C1645 H1657 0.930 1_565 S
C1646 C1642 1.524 . S
C1646 H1658 0.956 . S
C1646 H1659 0.961 . S
C1646 H1660 0.961 . S
C1647 C1644 1.539 . S
C1647 H1661 0.958 . S
C1647 H1662 0.961 . S
C1647 H1663 0.960 . S
H1648 C1632 0.931 . S
H1649 C1637 0.929 . S
H1650 C1638 0.960 . S
H1651 C1638 0.962 . S
H1652 C1638 0.960 . S
H1653 C1639 0.961 . S
H1654 C1639 0.961 . S
H1655 C1639 0.961 . S
H1656 C1640 0.931 . S
H1657 C1645 0.930 1_545 S
H1658 C1646 0.956 . S
H1659 C1646 0.961 . S
H1660 C1646 0.961 . S
H1661 C1647 0.958 . S
H1662 C1647 0.961 . S
H1663 C1647 0.960 . S
C1664 C1665 1.391 . S
C1664 C1666 1.398 . S
C1664 H1680 0.931 . S
C1665 C1664 1.391 . S
C1665 C1669 1.376 . S
C1666 C1664 1.398 . S
C1666 C1667 1.372 . S
C1666 C1670 1.523 1_565 S
C1667 C1666 1.372 . S
C1667 C1668 1.410 . S
C1667 C1675 1.503 1_565 S
C1668 C1667 1.410 . S
C1668 C1669 1.392 . S
C1668 C1671 1.511 . S
C1669 C1665 1.376 . S
C1669 C1668 1.392 . S
C1669 H1681 0.929 . S
C1670 C1666 1.523 1_545 S
C1670 H1682 0.960 . S
C1670 H1683 0.962 . S
C1670 H1684 0.960 . S
C1671 C1668 1.511 . S
C1671 H1685 0.961 . S
C1671 H1686 0.961 . S
C1671 H1687 0.961 . S
C1672 C1673 1.370 . S
C1672 C1674 1.363 . S
C1672 H1688 0.931 . S
C1673 C1672 1.370 . S
C1673 C1677 1.408 . S
C1674 C1672 1.363 . S
C1674 C1675 1.370 . S
C1674 C1678 1.524 . S
C1675 C1667 1.503 1_545 S
C1675 C1674 1.370 . S
C1675 C1676 1.403 . S
C1676 C1675 1.403 . S
C1676 C1677 1.404 . S
C1676 C1679 1.539 1_545 S
C1677 C1673 1.408 . S
C1677 C1676 1.404 . S
C1677 H1689 0.930 . S
C1678 C1674 1.524 . S
C1678 H1690 0.956 . S
C1678 H1691 0.961 . S
C1678 H1692 0.961 . S
C1679 C1676 1.539 1_565 S
C1679 H1693 0.958 . S
C1679 H1694 0.961 . S
C1679 H1695 0.960 . S
H1680 C1664 0.931 . S
H1681 C1669 0.929 . S
H1682 C1670 0.960 . S
H1683 C1670 0.962 . S
H1684 C1670 0.960 . S
H1685 C1671 0.961 . S
H1686 C1671 0.961 . S
H1687 C1671 0.961 . S
H1688 C1672 0.931 . S
H1689 C1677 0.930 . S
H1690 C1678 0.956 . S
H1691 C1678 0.961 . S
H1692 C1678 0.961 . S
H1693 C1679 0.958 . S
H1694 C1679 0.961 . S
H1695 C1679 0.960 . S
C1696 C1697 1.391 . S
C1696 C1698 1.394 . S
C1696 H1712 0.931 . S
C1697 C1696 1.391 . S
C1697 C1701 1.376 . S
C1698 C1696 1.394 . S
C1698 C1699 1.369 . S
C1698 C1702 1.531 . S
C1699 C1698 1.369 . S
C1699 C1700 1.410 . S
C1699 C1707 1.503 . S
C1700 C1699 1.410 . S
C1700 C1701 1.392 . S
C1700 C1703 1.511 . S
C1701 C1697 1.376 . S
C1701 C1700 1.392 . S
C1701 H1713 0.929 . S
C1702 C1698 1.531 . S
C1702 H1714 0.960 . S
C1702 H1715 0.962 . S
C1702 H1716 0.960 . S
C1703 C1700 1.511 . S
C1703 H1717 0.961 . S
C1703 H1718 0.961 . S
C1703 H1719 0.961 . S
C1704 C1705 1.370 . S
C1704 C1706 1.363 . S
C1704 H1720 0.931 . S
C1705 C1704 1.370 . S
C1705 C1709 1.408 . S
C1706 C1704 1.363 . S
C1706 C1707 1.370 . S
C1706 C1710 1.524 . S
C1707 C1699 1.503 . S
C1707 C1706 1.370 . S
C1707 C1708 1.403 . S
C1708 C1707 1.403 . S
C1708 C1709 1.404 . S
C1708 C1711 1.539 . S
C1709 C1705 1.408 . S
C1709 C1708 1.404 . S
C1709 H1721 0.930 . S
C1710 C1706 1.524 . S
C1710 H1722 0.956 . S
C1710 H1723 0.961 . S
C1710 H1724 0.961 . S
C1711 C1708 1.539 . S
C1711 H1725 0.958 . S
C1711 H1726 0.961 . S
C1711 H1727 0.960 . S
H1712 C1696 0.931 . S
H1713 C1701 0.929 . S
H1714 C1702 0.960 . S
H1715 C1702 0.962 . S
H1716 C1702 0.960 . S
H1717 C1703 0.961 . S
H1718 C1703 0.961 . S
H1719 C1703 0.961 . S
H1720 C1704 0.931 . S
H1721 C1709 0.930 . S
H1722 C1710 0.956 . S
H1723 C1710 0.961 . S
H1724 C1710 0.961 . S
H1725 C1711 0.958 . S
H1726 C1711 0.961 . S
H1727 C1711 0.960 . S
C1728 C1729 1.391 . S
C1728 C1730 1.394 . S
C1728 H1744 0.931 . S
C1729 C1728 1.391 . S
C1729 C1733 1.376 . S
C1730 C1728 1.394 . S
C1730 C1731 1.369 . S
C1730 C1734 1.531 1_565 S
C1731 C1730 1.369 . S
C1731 C1732 1.410 . S
C1731 C1739 1.503 1_565 S
C1732 C1731 1.410 . S
C1732 C1733 1.392 . S
C1732 C1735 1.511 . S
C1733 C1729 1.376 . S
C1733 C1732 1.392 . S
C1733 H1745 0.929 . S
C1734 C1730 1.531 1_545 S
C1734 H1746 0.960 . S
C1734 H1747 0.962 . S
C1734 H1748 0.960 1_545 S
C1735 C1732 1.511 . S
C1735 H1749 0.961 . S
C1735 H1750 0.961 . S
C1735 H1751 0.961 . S
C1736 C1737 1.370 . S
C1736 C1738 1.363 . S
C1736 H1752 0.931 . S
C1737 C1736 1.370 . S
C1737 C1741 1.408 . S
C1738 C1736 1.363 . S
C1738 C1739 1.370 . S
C1738 C1742 1.524 . S
C1739 C1731 1.503 1_545 S
C1739 C1738 1.370 . S
C1739 C1740 1.403 1_545 S
C1740 C1739 1.403 1_565 S
C1740 C1741 1.404 1_565 S
C1740 C1743 1.539 . S
C1741 C1737 1.408 . S
C1741 C1740 1.404 1_545 S
C1741 H1753 0.930 . S
C1742 C1738 1.524 . S
C1742 H1754 0.956 . S
C1742 H1755 0.961 . S
C1742 H1756 0.961 . S
C1743 C1740 1.539 . S
C1743 H1757 0.958 . S
C1743 H1758 0.961 . S
C1743 H1759 0.960 . S
H1744 C1728 0.931 . S
H1745 C1733 0.929 . S
H1746 C1734 0.960 . S
H1747 C1734 0.962 . S
H1748 C1734 0.960 1_565 S
H1749 C1735 0.961 . S
H1750 C1735 0.961 . S
H1751 C1735 0.961 . S
H1752 C1736 0.931 . S
H1753 C1741 0.930 . S
H1754 C1742 0.956 . S
H1755 C1742 0.961 . S
H1756 C1742 0.961 . S
H1757 C1743 0.958 . S
H1758 C1743 0.961 . S
H1759 C1743 0.960 . S
C1760 C1761 1.391 . S
C1760 C1762 1.394 . S
C1760 H1776 0.931 . S
C1761 C1760 1.391 . S
C1761 C1765 1.376 . S
C1762 C1760 1.394 . S
C1762 C1763 1.369 . S
C1762 C1766 1.531 . S
C1763 C1762 1.369 . S
C1763 C1764 1.410 . S
C1763 C1771 1.503 . S
C1764 C1763 1.410 . S
C1764 C1765 1.392 . S
C1764 C1767 1.511 . S
C1765 C1761 1.376 . S
C1765 C1764 1.392 . S
C1765 H1777 0.929 . S
C1766 C1762 1.531 . S
C1766 H1778 0.960 . S
C1766 H1779 0.962 . S
C1766 H1780 0.960 . S
C1767 C1764 1.511 . S
C1767 H1781 0.961 . S
C1767 H1782 0.961 . S
C1767 H1783 0.961 . S
C1768 C1769 1.370 . S
C1768 C1770 1.363 . S
C1768 H1784 0.931 . S
C1769 C1768 1.370 . S
C1769 C1773 1.408 . S
C1770 C1768 1.363 . S
C1770 C1771 1.370 . S
C1770 C1774 1.524 . S
C1771 C1763 1.503 . S
C1771 C1770 1.370 . S
C1771 C1772 1.403 . S
C1772 C1771 1.403 . S
C1772 C1773 1.404 . S
C1772 C1775 1.539 . S
C1773 C1769 1.408 . S
C1773 C1772 1.404 . S
C1773 H1785 0.930 1_545 S
C1774 C1770 1.524 . S
C1774 H1786 0.956 . S
C1774 H1787 0.961 . S
C1774 H1788 0.961 . S
C1775 C1772 1.539 . S
C1775 H1789 0.958 . S
C1775 H1790 0.961 . S
C1775 H1791 0.960 . S
H1776 C1760 0.931 . S
H1777 C1765 0.929 . S
H1778 C1766 0.960 . S
H1779 C1766 0.962 . S
H1780 C1766 0.960 . S
H1781 C1767 0.961 . S
H1782 C1767 0.961 . S
H1783 C1767 0.961 . S
H1784 C1768 0.931 . S
H1785 C1773 0.930 1_565 S
H1786 C1774 0.956 . S
H1787 C1774 0.961 . S
H1788 C1774 0.961 . S
H1789 C1775 0.958 . S
H1790 C1775 0.961 . S
H1791 C1775 0.960 . S
C1792 C1793 1.391 . S
C1792 C1794 1.394 . S
C1792 H1808 0.931 . S
C1793 C1792 1.391 . S
C1793 C1797 1.376 . S
C1794 C1792 1.394 . S
C1794 C1795 1.369 . S
C1794 C1798 1.531 . S
C1795 C1794 1.369 . S
C1795 C1796 1.410 1_565 S
C1795 C1803 1.503 1_565 S
C1796 C1795 1.410 1_545 S
C1796 C1797 1.392 1_545 S
C1796 C1799 1.511 . S
C1797 C1793 1.376 . S
C1797 C1796 1.392 1_565 S
C1797 H1809 0.929 1_565 S
C1798 C1794 1.531 . S
C1798 H1810 0.960 . S
C1798 H1811 0.962 . S
C1798 H1812 0.960 . S
C1799 C1796 1.511 . S
C1799 H1813 0.961 . S
C1799 H1814 0.961 . S
C1799 H1815 0.961 . S
C1800 C1801 1.370 . S
C1800 C1802 1.363 . S
C1800 H1816 0.931 . S
C1801 C1800 1.370 . S
C1801 C1805 1.408 . S
C1802 C1800 1.363 . S
C1802 C1803 1.370 . S
C1802 C1806 1.524 1_545 S
C1803 C1795 1.503 1_545 S
C1803 C1802 1.370 . S
C1803 C1804 1.403 . S
C1804 C1803 1.403 . S
C1804 C1805 1.404 . S
C1804 C1807 1.539 . S
C1805 C1801 1.408 . S
C1805 C1804 1.404 . S
C1805 H1817 0.930 . S
C1806 C1802 1.524 1_565 S
C1806 H1818 0.956 . S
C1806 H1819 0.969 . S
C1806 H1820 0.961 . S
C1807 C1804 1.539 . S
C1807 H1821 0.958 . S
C1807 H1822 0.961 . S
C1807 H1823 0.960 . S
H1808 C1792 0.931 . S
H1809 C1797 0.929 1_545 S
H1810 C1798 0.960 . S
H1811 C1798 0.962 . S
H1812 C1798 0.960 . S
H1813 C1799 0.961 . S
H1814 C1799 0.961 . S
H1815 C1799 0.961 . S
H1816 C1800 0.931 . S
H1817 C1805 0.930 . S
H1818 C1806 0.956 . S
H1819 C1806 0.969 . S
H1820 C1806 0.961 . S
H1821 C1807 0.958 . S
H1822 C1807 0.961 . S
H1823 C1807 0.960 . S
C1824 C1825 1.391 . S
C1824 C1826 1.394 . S
C1824 H1840 0.931 . S
C1825 C1824 1.391 . S
C1825 C1829 1.376 . S
C1826 C1824 1.394 . S
C1826 C1827 1.369 . S
C1826 C1830 1.531 . S
C1827 C1826 1.369 . S
C1827 C1828 1.410 . S
C1827 C1835 1.503 . S
C1828 C1827 1.410 . S
C1828 C1829 1.392 . S
C1828 C1831 1.511 . S
C1829 C1825 1.376 . S
C1829 C1828 1.392 . S
C1829 H1841 0.929 . S
C1830 C1826 1.531 . S
C1830 H1842 0.960 . S
C1830 H1843 0.962 . S
C1830 H1844 0.960 . S
C1831 C1828 1.511 . S
C1831 H1845 0.961 . S
C1831 H1846 0.961 . S
C1831 H1847 0.961 . S
C1832 C1833 1.370 . S
C1832 C1834 1.363 . S
C1832 H1848 0.931 . S
C1833 C1832 1.370 . S
C1833 C1837 1.408 . S
C1834 C1832 1.363 . S
C1834 C1835 1.370 . S
C1834 C1838 1.524 . S
C1835 C1827 1.503 . S
C1835 C1834 1.370 . S
C1835 C1836 1.403 . S
C1836 C1835 1.403 . S
C1836 C1837 1.404 . S
C1836 C1839 1.539 . S
C1837 C1833 1.408 . S
C1837 C1836 1.404 . S
C1837 H1849 0.930 . S
C1838 C1834 1.524 . S
C1838 H1850 0.956 . S
C1838 H1851 0.961 . S
C1838 H1852 0.961 . S
C1839 C1836 1.539 . S
C1839 H1853 0.958 . S
C1839 H1854 0.961 . S
C1839 H1855 0.960 . S
H1840 C1824 0.931 . S
H1841 C1829 0.929 . S
H1842 C1830 0.960 . S
H1843 C1830 0.962 . S
H1844 C1830 0.960 . S
H1845 C1831 0.961 . S
H1846 C1831 0.961 . S
H1847 C1831 0.961 . S
H1848 C1832 0.931 . S
H1849 C1837 0.930 . S
H1850 C1838 0.956 . S
H1851 C1838 0.961 . S
H1852 C1838 0.961 . S
H1853 C1839 0.958 . S
H1854 C1839 0.961 . S
H1855 C1839 0.960 . S
C1856 C1857 1.391 . S
C1856 C1858 1.393 . S
C1856 H1872 0.931 . S
C1857 C1856 1.391 . S
C1857 C1861 1.376 . S
C1858 C1856 1.393 . S
C1858 C1859 1.369 . S
C1858 C1862 1.531 1_565 S
C1859 C1858 1.369 . S
C1859 C1860 1.410 . S
C1859 C1867 1.503 1_565 S
C1860 C1859 1.410 . S
C1860 C1861 1.392 . S
C1860 C1863 1.511 . S
C1861 C1857 1.376 . S
C1861 C1860 1.392 . S
C1861 H1873 0.929 . S
C1862 C1858 1.531 1_545 S
C1862 H1874 0.960 . S
C1862 H1875 0.962 . S
C1862 H1876 0.960 . S
C1863 C1860 1.511 . S
C1863 H1877 0.961 . S
C1863 H1878 0.961 . S
C1863 H1879 0.961 . S
C1864 C1865 1.370 . S
C1864 C1866 1.363 1_545 S
C1864 H1880 0.931 . S
C1865 C1864 1.370 . S
C1865 C1869 1.408 . S
C1866 C1864 1.363 1_565 S
C1866 C1867 1.370 1_565 S
C1866 C1870 1.524 . S
C1867 C1859 1.503 1_545 S
C1867 C1866 1.370 1_545 S
C1867 C1868 1.403 . S
C1868 C1867 1.403 . S
C1868 C1869 1.404 . S
C1868 C1871 1.539 . S
C1869 C1865 1.408 . S
C1869 C1868 1.404 . S
C1869 H1881 0.930 . S
C1870 C1866 1.524 . S
C1870 H1882 0.956 . S
C1870 H1883 0.961 . S
C1870 H1884 0.961 . S
C1871 C1868 1.539 . S
C1871 H1885 0.958 . S
C1871 H1886 0.961 . S
C1871 H1887 0.960 . S
H1872 C1856 0.931 . S
H1873 C1861 0.929 . S
H1874 C1862 0.960 . S
H1875 C1862 0.962 . S
H1876 C1862 0.960 . S
H1877 C1863 0.961 . S
H1878 C1863 0.961 . S
H1879 C1863 0.961 . S
H1880 C1864 0.931 . S
H1881 C1869 0.930 . S
H1882 C1870 0.956 . S
H1883 C1870 0.961 . S
H1884 C1870 0.961 . S
H1885 C1871 0.958 . S
H1886 C1871 0.961 . S
H1887 C1871 0.960 . S
C353 C7 1.181 . S
C361 C273 1.220 . S
C385 C119 1.222 . S
C393 C29 1.209 . S
C417 C50 1.251 . S
C425 C313 1.195 . S
C449 C72 1.253 . S
C457 C159 1.194 . S
C481 C97 1.183 . S
C489 C183 1.220 . S
C513 C226 1.236 . S
C521 C137 1.198 . S
C545 C295 1.249 . S
C553 C205 1.196 . S
C577 C248 1.227 . S
C585 C335 1.201 . S
C609 C206 1.612 . S
C617 C6 1.548 . S
C641 C28 1.495 . S
C649 C224 1.611 . S
C673 C51 1.557 . S
C681 C246 1.616 . S
C705 C184 1.611 . S
C713 C73 1.547 . S
C737 C294 1.607 . S
C745 C93 1.524 . S
C769 C312 1.605 . S
C777 C115 1.522 . S
C801 C141 1.509 . S
C809 C334 1.610 . S
C833 C272 1.611 . S
C841 C163 1.544 . S
C865 C182 1.495 . S
C873 C30 1.611 . S
C897 C204 1.539 . S
C905 C48 1.611 . S
C929 C227 1.527 . S
C937 C70 1.615 . S
C961 C8 1.615 . S
C969 C249 1.547 . S
C993 C118 1.616 . S
C1001 C269 1.548 . S
C1025 C291 1.496 . S
C1033 C136 1.610 . S
C1057 C158 1.615 . S
C1065 C317 1.548 . S
C1089 C339 1.496 . S
C1097 C96 1.610 . S
C1121 C4 0.572 . S
C1129 C228 0.583 . S
C1153 C26 0.644 . S
C1161 C250 0.655 . S
C1185 C180 0.709 . S
C1193 C52 0.657 . S
C1217 C74 0.712 . S
C1225 C202 0.655 . S
C1249 C92 0.587 . S
C1257 C316 0.647 . S
C1281 C114 0.530 . S
C1289 C338 0.599 . S
C1313 C268 0.707 . S
C1321 C140 0.624 . S
C1345 C162 0.644 . S
C1353 C290 0.660 . S
C1377 C5 1.490 . S
C1385 C160 1.557 . S
C1409 C271 1.528 . S
C1417 C27 1.466 . S
C1441 C53 1.512 . S
C1449 C117 1.564 . S
C1473 C75 1.442 . S
C1481 C314 1.547 . S
C1505 C94 1.436 . S
C1513 C71 1.545 . S
C1537 C185 1.535 . S
C1545 C116 1.470 . S
C1569 C139 1.446 . S
C1577 C31 1.549 . S
C1601 C225 1.567 . S
C1609 C161 1.494 . S
C1633 C181 1.509 . S
C1641 C336 1.566 1_565 S
C1665 C95 1.525 . S
C1673 C203 1.465 . S
C1697 C293 1.580 1_545 S
C1705 C229 1.499 . S
C1729 C251 1.496 . S
C1737 C138 1.563 . S
C1761 C270 1.510 . S
C1769 C247 1.563 1_545 S
C1793 C292 1.440 . S
C1801 C9 1.545 . S
C1825 C207 1.560 1_565 S
C1833 C315 1.485 . S
C1857 C49 1.581 . S
C1865 C337 1.501 . S
