# Generated by pormake.
# Topology zfh, (5)-cn, num edge types: 1
# Building blocks:
#     Node 0, Type 0, BuildingBlock: BEQFEK_clean_sbu_0, # of connection points: 5
#     Node 1, Type 0, BuildingBlock: BEQFEK_clean_sbu_0, # of connection points: 5
#     Node 2, Type 0, BuildingBlock: BEQFEK_clean_sbu_0, # of connection points: 5
#     Node 3, Type 0, BuildingBlock: BEQFEK_clean_sbu_0, # of connection points: 5
#     Node 4, Type 0, BuildingBlock: BEQFEK_clean_sbu_0, # of connection points: 5
#     Node 5, Type 0, BuildingBlock: BEQFEK_clean_sbu_0, # of connection points: 5
#     Node 6, Type 0, BuildingBlock: BEQFEK_clean_sbu_0, # of connection points: 5
#     Node 7, Type 0, BuildingBlock: BEQFEK_clean_sbu_0, # of connection points: 5
#     Node 8, Type 0, BuildingBlock: BEQFEK_clean_sbu_0, # of connection points: 5
#     Node 9, Type 0, BuildingBlock: BEQFEK_clean_sbu_0, # of connection points: 5
#     Node 10, Type 0, BuildingBlock: BEQFEK_clean_sbu_0, # of connection points: 5
#     Node 11, Type 0, BuildingBlock: BEQFEK_clean_sbu_0, # of connection points: 5
#     Node 12, Type 0, BuildingBlock: BEQFEK_clean_sbu_0, # of connection points: 5
#     Node 13, Type 0, BuildingBlock: BEQFEK_clean_sbu_0, # of connection points: 5
#     Node 14, Type 0, BuildingBlock: BEQFEK_clean_sbu_0, # of connection points: 5
#     Node 15, Type 0, BuildingBlock: BEQFEK_clean_sbu_0, # of connection points: 5
#     Edge 16, Type (0, 0), BuildingBlock: EZIPEK_clean_linker_0, # of connection points: 2
#     Edge 17, Type (0, 0), BuildingBlock: EZIPEK_clean_linker_0, # of connection points: 2
#     Edge 18, Type (0, 0), BuildingBlock: EZIPEK_clean_linker_0, # of connection points: 2
#     Edge 19, Type (0, 0), BuildingBlock: EZIPEK_clean_linker_0, # of connection points: 2
#     Edge 20, Type (0, 0), BuildingBlock: EZIPEK_clean_linker_0, # of connection points: 2
#     Edge 21, Type (0, 0), BuildingBlock: EZIPEK_clean_linker_0, # of connection points: 2
#     Edge 22, Type (0, 0), BuildingBlock: EZIPEK_clean_linker_0, # of connection points: 2
#     Edge 23, Type (0, 0), BuildingBlock: EZIPEK_clean_linker_0, # of connection points: 2
#     Edge 24, Type (0, 0), BuildingBlock: EZIPEK_clean_linker_0, # of connection points: 2
#     Edge 25, Type (0, 0), BuildingBlock: EZIPEK_clean_linker_0, # of connection points: 2
#     Edge 26, Type (0, 0), BuildingBlock: EZIPEK_clean_linker_0, # of connection points: 2
#     Edge 27, Type (0, 0), BuildingBlock: EZIPEK_clean_linker_0, # of connection points: 2
#     Edge 28, Type (0, 0), BuildingBlock: EZIPEK_clean_linker_0, # of connection points: 2
#     Edge 29, Type (0, 0), BuildingBlock: EZIPEK_clean_linker_0, # of connection points: 2
#     Edge 30, Type (0, 0), BuildingBlock: EZIPEK_clean_linker_0, # of connection points: 2
#     Edge 31, Type (0, 0), BuildingBlock: EZIPEK_clean_linker_0, # of connection points: 2
#     Edge 32, Type (0, 0), BuildingBlock: EZIPEK_clean_linker_0, # of connection points: 2
#     Edge 33, Type (0, 0), BuildingBlock: EZIPEK_clean_linker_0, # of connection points: 2
#     Edge 34, Type (0, 0), BuildingBlock: EZIPEK_clean_linker_0, # of connection points: 2
#     Edge 35, Type (0, 0), BuildingBlock: EZIPEK_clean_linker_0, # of connection points: 2
#     Edge 36, Type (0, 0), BuildingBlock: EZIPEK_clean_linker_0, # of connection points: 2
#     Edge 37, Type (0, 0), BuildingBlock: EZIPEK_clean_linker_0, # of connection points: 2
#     Edge 38, Type (0, 0), BuildingBlock: EZIPEK_clean_linker_0, # of connection points: 2
#     Edge 39, Type (0, 0), BuildingBlock: EZIPEK_clean_linker_0, # of connection points: 2
#     Edge 40, Type (0, 0), BuildingBlock: EZIPEK_clean_linker_0, # of connection points: 2
#     Edge 41, Type (0, 0), BuildingBlock: EZIPEK_clean_linker_0, # of connection points: 2
#     Edge 42, Type (0, 0), BuildingBlock: EZIPEK_clean_linker_0, # of connection points: 2
#     Edge 43, Type (0, 0), BuildingBlock: EZIPEK_clean_linker_0, # of connection points: 2
#     Edge 44, Type (0, 0), BuildingBlock: EZIPEK_clean_linker_0, # of connection points: 2
#     Edge 45, Type (0, 0), BuildingBlock: EZIPEK_clean_linker_0, # of connection points: 2
#     Edge 46, Type (0, 0), BuildingBlock: EZIPEK_clean_linker_0, # of connection points: 2
#     Edge 47, Type (0, 0), BuildingBlock: EZIPEK_clean_linker_0, # of connection points: 2
#     Edge 48, Type (0, 0), BuildingBlock: EZIPEK_clean_linker_0, # of connection points: 2
#     Edge 49, Type (0, 0), BuildingBlock: EZIPEK_clean_linker_0, # of connection points: 2
#     Edge 50, Type (0, 0), BuildingBlock: EZIPEK_clean_linker_0, # of connection points: 2
#     Edge 51, Type (0, 0), BuildingBlock: EZIPEK_clean_linker_0, # of connection points: 2
#     Edge 52, Type (0, 0), BuildingBlock: EZIPEK_clean_linker_0, # of connection points: 2
#     Edge 53, Type (0, 0), BuildingBlock: EZIPEK_clean_linker_0, # of connection points: 2
#     Edge 54, Type (0, 0), BuildingBlock: EZIPEK_clean_linker_0, # of connection points: 2
#     Edge 55, Type (0, 0), BuildingBlock: EZIPEK_clean_linker_0, # of connection points: 2
# Relax obj value: 0.226
# Max RMSD: 0.167
# Mean RMSD: 0.167
data_MOF--net-zfh--node1-BEQFEK_clean_sbu_0--edge1-EZIPEK_clean_linker_0
_symmetry_space_group_name_H-M    P1
_symmetry_Int_Tables_number       1
_symmetry_cell_setting            triclinic
loop_
_symmetry_equiv_pos_as_xyz
'x, y, z'
_cell_length_a     32.594668
_cell_length_b     32.613977
_cell_length_c     32.672804
_cell_angle_alpha  89.831771
_cell_angle_beta   90.039404
_cell_angle_gamma 90.179344
loop_
_atom_site_label
_atom_site_type_symbol
_atom_site_fract_x
_atom_site_fract_y
_atom_site_fract_z
_atom_type_partial_charge
Co0 Co 0.56678 0.18662 0.38781 0.0
Co1 Co 0.5309 0.24878 0.3235 0.0
C2 C 0.48561 0.17117 0.35337 0.0
O3 O 0.51276 0.15985 0.37916 0.0
O4 O 0.48991 0.20397 0.3325 0.0
C5 C 0.59834 0.13832 0.45857 0.0
O6 O 0.56127 0.13701 0.47431 0.0
C7 C 0.47049 0.31314 0.32163 0.0
C8 C 0.48246 0.34684 0.26427 0.0
C9 C 0.45959 0.34809 0.30013 0.0
N10 N 0.49945 0.29292 0.30046 0.0
N11 N 0.50587 0.31273 0.26568 0.0
C12 C 0.45623 0.30125 0.36364 0.0
H13 H 0.47291 0.27402 0.37519 0.0
H14 H 0.46036 0.32732 0.38502 0.0
H15 H 0.42301 0.2939 0.36275 0.0
C16 C 0.57168 0.26477 0.43705 0.0
N17 N 0.56287 0.24299 0.40295 0.0
N18 N 0.55417 0.26884 0.37321 0.0
C19 C 0.55989 0.30753 0.38671 0.0
C20 C 0.57033 0.30618 0.42767 0.0
C21 C 0.58066 0.2472 0.47833 0.0
H22 H 0.57619 0.21376 0.47862 0.0
H23 H 0.56 0.26097 0.50143 0.0
H24 H 0.61249 0.25527 0.48738 0.0
O25 O 0.59595 0.18154 0.33521 0.0
O26 O 0.57465 0.22513 0.2873 0.0
H27 H 0.55873 0.338 0.32809 0.0
H28 H 0.58055 0.36786 0.36888 0.0
C29 C 0.55626 0.3454 0.36104 0.0
H30 H 0.52655 0.36036 0.36765 0.0
H31 H 0.5277 0.30424 0.24397 0.0
O32 O 0.60428 0.15596 0.42447 0.0
C33 C 0.59804 0.19594 0.29906 0.0
Co34 Co 0.34813 0.56225 0.40136 0.0
Co35 Co 0.28391 0.52912 0.33598 0.0
C36 C 0.36127 0.48236 0.36272 0.0
O37 O 0.3728 0.50748 0.39042 0.0
O38 O 0.32889 0.48839 0.34172 0.0
C39 C 0.41478 0.59852 0.45216 0.0
O40 O 0.44115 0.57508 0.43295 0.0
C41 C 0.21686 0.47022 0.33145 0.0
C42 C 0.18472 0.48536 0.27403 0.0
C43 C 0.18223 0.46069 0.30869 0.0
N44 N 0.23834 0.49974 0.31189 0.0
N45 N 0.21928 0.50816 0.27714 0.0
C46 C 0.2274 0.45382 0.37299 0.0
H47 H 0.25553 0.46855 0.38517 0.0
H48 H 0.20138 0.45885 0.39426 0.0
H49 H 0.23247 0.42028 0.37115 0.0
C50 C 0.27154 0.57115 0.449 0.0
N51 N 0.29204 0.55876 0.41545 0.0
N52 N 0.26539 0.54952 0.38669 0.0
C53 C 0.22727 0.55749 0.40045 0.0
C54 C 0.2299 0.57057 0.44049 0.0
C55 C 0.29144 0.58585 0.48744 0.0
H56 H 0.30674 0.61572 0.48154 0.0
H57 H 0.31504 0.56339 0.49695 0.0
H58 H 0.26869 0.58966 0.5124 0.0
O59 O 0.35433 0.59433 0.34992 0.0
O60 O 0.30801 0.57529 0.30311 0.0
H61 H 0.16886 0.58328 0.38383 0.0
H62 H 0.17225 0.52876 0.3799 0.0
C63 C 0.18932 0.55774 0.37471 0.0
H64 H 0.19704 0.56105 0.34187 0.0
H65 H 0.22879 0.53072 0.25649 0.0
O66 O 0.37669 0.59539 0.44423 0.0
C67 C 0.338 0.598 0.31465 0.0
Co68 Co 0.9607 0.33926 0.3829 0.0
Co69 Co 1.00048 0.27936 0.31957 0.0
C70 C 0.04336 0.35695 0.35377 0.0
O71 O 0.01581 0.36576 0.38002 0.0
O72 O 0.03957 0.32582 0.33053 0.0
C73 C 0.92752 0.38597 0.45318 0.0
O74 O 0.96443 0.38564 0.46939 0.0
C75 C 0.0618 0.21546 0.31921 0.0
C76 C 0.05475 0.18561 0.25915 0.0
C77 C 0.07502 0.18231 0.29643 0.0
N78 N 0.03405 0.23663 0.29721 0.0
N79 N 0.03058 0.21914 0.26091 0.0
C80 C 0.07283 0.22476 0.36275 0.0
H81 H 0.055 0.25106 0.37452 0.0
H82 H 0.06753 0.19733 0.38226 0.0
H83 H 0.10593 0.23242 0.36476 0.0
C84 C 0.95152 0.25924 0.42962 0.0
N85 N 0.96327 0.28223 0.39704 0.0
N86 N 0.97476 0.25738 0.36755 0.0
C87 C 0.96806 0.2182 0.37947 0.0
C88 C 0.95392 0.21809 0.41938 0.0
C89 C 0.93828 0.27541 0.4702 0.0
H90 H 0.94375 0.30866 0.47231 0.0
H91 H 0.95552 0.25986 0.49503 0.0
H92 H 0.90536 0.26818 0.47499 0.0
O93 O 0.93506 0.34618 0.3277 0.0
O94 O 0.95796 0.30173 0.28152 0.0
H95 H 0.9734 0.19001 0.32012 0.0
H96 H 0.94864 0.15868 0.35832 0.0
C97 C 0.97349 0.18131 0.35291 0.0
H98 H 1.00269 0.16597 0.36094 0.0
H99 H 1.01031 0.22884 0.23815 0.0
O100 O 0.92154 0.36937 0.4186 0.0
C101 C 0.93442 0.33126 0.29167 0.0
Co102 Co 0.17855 0.96776 0.40241 0.0
Co103 Co 0.2472 0.994 0.33963 0.0
C104 C 0.16951 0.04524 0.35976 0.0
O105 O 0.15594 0.02201 0.38822 0.0
O106 O 0.20238 0.03685 0.3402 0.0
C107 C 0.10948 0.93569 0.45414 0.0
O108 O 0.08411 0.96141 0.43637 0.0
C109 C 0.31206 0.05429 0.33099 0.0
C110 C 0.35834 0.02328 0.29306 0.0
C111 C 0.35218 0.05771 0.31721 0.0
N112 N 0.29577 0.01902 0.31699 0.0
N113 N 0.32338 1.00096 0.29362 0.0
C114 C 0.28945 0.08354 0.3578 0.0
H115 H 0.27625 0.06679 0.38434 0.0
H116 H 0.30932 0.109 0.36851 0.0
H117 H 0.26374 0.09665 0.33988 0.0
C118 C 0.25232 0.96076 0.45564 0.0
N119 N 0.23391 0.97138 0.42022 0.0
N120 N 0.26227 0.97686 0.39224 0.0
C121 C 0.29916 0.96692 0.40796 0.0
C122 C 0.29419 0.95752 0.44891 0.0
C123 C 0.23014 0.95115 0.49437 0.0
H124 H 0.20704 0.97534 0.49987 0.0
H125 H 0.25153 0.94946 0.52077 0.0
H126 H 0.2142 0.92125 0.49111 0.0
O127 O 0.17409 0.93383 0.35152 0.0
O128 O 0.22669 0.94495 0.30987 0.0
H129 H 0.35734 0.93634 0.39908 0.0
H130 H 0.35332 0.98589 0.37577 0.0
C131 C 0.33627 0.95746 0.38273 0.0
H132 H 0.32673 0.9432 0.35345 0.0
H133 H 0.31933 0.97226 0.28013 0.0
O134 O 0.14739 0.93637 0.44493 0.0
C135 C 0.19368 0.92567 0.3187 0.0
Co136 Co 0.07104 0.83974 0.11863 0.0
Co137 Co 0.03133 0.77356 0.1769 0.0
C138 C 0.98725 0.85138 0.15005 0.0
O139 O 0.015 0.86306 0.12509 0.0
O140 O 0.99098 0.81861 0.17087 0.0
C141 C 0.09043 0.89302 0.04845 0.0
O142 O 0.05071 0.89729 0.04328 0.0
C143 C 0.96855 0.7112 0.17935 0.0
C144 C 0.9842 0.67303 0.2329 0.0
C145 C 0.95842 0.6748 0.199 0.0
N146 N 1.00003 0.72894 0.19929 0.0
N147 N 1.00855 0.7066 0.23199 0.0
C148 C 0.95103 0.72721 0.13999 0.0
H149 H 0.97279 0.74845 0.12471 0.0
H150 H 0.94289 0.70167 0.1191 0.0
H151 H 0.92262 0.74457 0.14674 0.0
C152 C 0.09158 0.76471 0.07181 0.0
N153 N 0.07193 0.78377 0.10265 0.0
N154 N 0.05446 0.756 0.12621 0.0
C155 C 0.0616 0.71842 0.11033 0.0
C156 C 0.08517 0.72274 0.0752 0.0
C157 C 0.11933 0.78586 0.04201 0.0
H158 H 0.14112 0.80593 0.0587 0.0
H159 H 0.10054 0.80522 0.02153 0.0
H160 H 0.137 0.76376 0.0233 0.0
O161 O 0.0981 0.84494 0.17234 0.0
O162 O 0.07719 0.79429 0.21312 0.0
H163 H 0.05205 0.67962 0.16253 0.0
H164 H 0.06311 0.65181 0.11632 0.0
C165 C 0.04732 0.67887 0.12898 0.0
H166 H 0.01441 0.67447 0.12211 0.0
H167 H 0.03242 0.71298 0.25233 0.0
O168 O 0.10402 0.87202 0.07833 0.0
C169 C 0.09983 0.82579 0.20639 0.0
Co170 Co 0.68208 0.07187 0.10207 0.0
Co171 Co 0.75126 0.03274 0.15857 0.0
C172 C 0.67333 0.98697 0.13566 0.0
O173 O 0.66031 0.01499 0.11161 0.0
O174 O 0.70737 0.99056 0.15442 0.0
C175 C 0.62868 0.08708 0.03115 0.0
O176 O 0.62733 0.0472 0.02586 0.0
C177 C 0.81268 0.96797 0.17181 0.0
C178 C 0.86352 1.00188 0.2007 0.0
C179 C 0.85392 0.96471 0.18234 0.0
N180 N 0.79934 1.00595 0.18126 0.0
N181 N 0.82965 0.02556 0.19975 0.0
C182 C 0.78686 0.93631 0.15114 0.0
H183 H 0.75966 0.92978 0.17048 0.0
H184 H 0.77599 0.94866 0.1214 0.0
H185 H 0.80398 0.9074 0.14619 0.0
C186 C 0.75514 0.09768 0.05558 0.0
N187 N 0.73743 0.07473 0.08515 0.0
N188 N 0.76618 0.05656 0.10683 0.0
C189 C 0.80302 0.06592 0.0901 0.0
C190 C 0.79725 0.09218 0.05716 0.0
C191 C 0.73288 0.12883 0.03036 0.0
H192 H 0.71188 0.14672 0.0501 0.0
H193 H 0.71439 0.11278 0.00702 0.0
H194 H 0.75434 0.15022 0.01477 0.0
O195 O 0.67754 0.10086 0.15416 0.0
O196 O 0.72737 0.07717 0.19499 0.0
H197 H 0.85159 0.07145 0.1337 0.0
H198 H 0.86828 0.05558 0.08346 0.0
C199 C 0.84359 0.05265 0.10662 0.0
H200 H 0.84172 0.02058 0.11603 0.0
H201 H 0.8282 0.05613 0.20898 0.0
O202 O 0.64805 0.1021 0.06139 0.0
C203 C 0.69688 0.10106 0.188 0.0
Co204 Co 0.46101 0.68963 0.11531 0.0
Co205 Co 0.50219 0.75284 0.17556 0.0
C206 C 0.54579 0.67634 0.14298 0.0
O207 O 0.51637 0.66449 0.12009 0.0
O208 O 0.54343 0.70954 0.16321 0.0
C209 C 0.43313 0.63599 0.04809 0.0
O210 O 0.47111 0.62367 0.04303 0.0
C211 C 0.56586 0.8146 0.17953 0.0
C212 C 0.54923 0.85256 0.23266 0.0
C213 C 0.57539 0.85123 0.19906 0.0
N214 N 0.534 0.79677 0.19893 0.0
N215 N 0.52503 0.8189 0.2315 0.0
C216 C 0.58227 0.79985 0.1393 0.0
H217 H 0.55909 0.78084 0.12321 0.0
H218 H 0.59153 0.82596 0.11947 0.0
H219 H 0.60962 0.78048 0.14498 0.0
C220 C 0.43929 0.7648 0.07195 0.0
N221 N 0.45989 0.74597 0.10223 0.0
N222 N 0.47357 0.77324 0.12821 0.0
C223 C 0.4615 0.81084 0.11537 0.0
C224 C 0.43578 0.80676 0.08094 0.0
C225 C 0.43189 0.74381 0.0318 0.0
H226 H 0.45659 0.72113 0.02654 0.0
H227 H 0.43215 0.76575 0.00582 0.0
H228 H 0.40242 0.72677 0.03256 0.0
O229 O 0.43496 0.6817 0.16878 0.0
O230 O 0.46119 0.72579 0.21403 0.0
H231 H 0.46846 0.85659 0.16207 0.0
H232 H 0.47772 0.87577 0.11014 0.0
C233 C 0.48065 0.84947 0.13121 0.0
H234 H 0.51379 0.84536 0.13339 0.0
H235 H 0.50082 0.81247 0.25141 0.0
O236 O 0.42442 0.66132 0.07612 0.0
C237 C 0.43661 0.69642 0.20477 0.0
Co238 Co 0.8472 0.46389 0.09281 0.0
Co239 Co 0.78041 0.49356 0.156 0.0
C240 C 0.8578 0.54336 0.13224 0.0
O241 O 0.87007 0.51888 0.10447 0.0
O242 O 0.82499 0.53647 0.15251 0.0
C243 C 0.90129 0.44663 0.02211 0.0
O244 O 0.90896 0.48606 0.01889 0.0
C245 C 0.71587 0.55425 0.16158 0.0
C246 C 0.67047 0.52652 0.20326 0.0
C247 C 0.67642 0.55927 0.17659 0.0
N248 N 0.7321 0.51979 0.17758 0.0
N249 N 0.70491 0.50358 0.20294 0.0
C250 C 0.73816 0.58172 0.13244 0.0
H251 H 0.75459 0.56311 0.10931 0.0
H252 H 0.71737 0.60383 0.11717 0.0
H253 H 0.76117 0.59934 0.15016 0.0
C254 C 0.77285 0.45302 0.04197 0.0
N255 N 0.79182 0.46577 0.07634 0.0
N256 N 0.76411 0.4727 0.10457 0.0
C257 C 0.72685 0.46217 0.08991 0.0
C258 C 0.73106 0.4505 0.04945 0.0
C259 C 0.79448 0.44075 0.0037 0.0
H260 H 0.81779 0.46433 0.99623 0.0
H261 H 0.77277 0.43748 0.97771 0.0
H262 H 0.8103 0.4111 0.00877 0.0
O263 O 0.85295 0.43155 0.14469 0.0
O264 O 0.80432 0.44822 0.18982 0.0
H265 H 0.66761 0.43415 0.10103 0.0
H266 H 0.67398 0.48469 0.12142 0.0
C267 C 0.68969 0.45533 0.11597 0.0
H268 H 0.699 0.44236 0.14598 0.0
H269 H 0.70896 0.47583 0.21837 0.0
O270 O 0.87833 0.43322 0.05058 0.0
C271 C 0.83556 0.42695 0.17941 0.0
Co272 Co 0.46277 0.84497 0.61509 0.0
Co273 Co 0.49791 0.77846 0.67419 0.0
C274 C 0.54363 0.85861 0.64965 0.0
O275 O 0.51683 0.87099 0.62403 0.0
O276 O 0.53875 0.82505 0.66933 0.0
C277 C 0.42749 0.89264 0.54577 0.0
O278 O 0.46234 0.88965 0.52588 0.0
C279 C 0.55879 0.71385 0.67448 0.0
C280 C 0.54555 0.67846 0.73057 0.0
C281 C 0.56938 0.67834 0.69531 0.0
N282 N 0.52915 0.73328 0.6955 0.0
N283 N 0.522 0.71244 0.72953 0.0
C284 C 0.57427 0.72735 0.63339 0.0
H285 H 0.55672 0.75394 0.62166 0.0
H286 H 0.57264 0.70157 0.61134 0.0
H287 H 0.60692 0.73658 0.63599 0.0
C288 C 0.45599 0.77056 0.56006 0.0
N289 N 0.46623 0.78966 0.59539 0.0
N290 N 0.47621 0.76162 0.62263 0.0
C291 C 0.47009 0.72404 0.60641 0.0
C292 C 0.45783 0.72841 0.56607 0.0
C293 C 0.44556 0.79181 0.52085 0.0
H294 H 0.47139 0.81213 0.51196 0.0
H295 H 0.43956 0.76972 0.49579 0.0
H296 H 0.418 0.81078 0.52507 0.0
O297 O 0.43378 0.84643 0.66827 0.0
O298 O 0.45092 0.79596 0.71004 0.0
H299 H 0.47142 0.68943 0.66267 0.0
H300 H 0.45083 0.66193 0.61965 0.0
C301 C 0.4744 0.68444 0.6293 0.0
H302 H 0.50461 0.67072 0.62225 0.0
H303 H 0.49967 0.72027 0.75098 0.0
O304 O 0.42441 0.87797 0.58155 0.0
C305 C 0.42895 0.82734 0.70194 0.0
Co306 Co 0.67956 0.46495 0.59305 0.0
Co307 Co 0.74494 0.49331 0.65858 0.0
C308 C 0.6682 0.54359 0.63405 0.0
O309 O 0.65624 0.5193 0.60592 0.0
O310 O 0.70063 0.53651 0.65491 0.0
C311 C 0.61164 0.43654 0.53983 0.0
O312 O 0.58719 0.46284 0.55786 0.0
C313 C 0.80988 0.55353 0.66814 0.0
C314 C 0.85532 0.52247 0.70721 0.0
C315 C 0.84991 0.55672 0.6824 0.0
N316 N 0.79299 0.51857 0.68246 0.0
N317 N 0.8201 0.50054 0.70658 0.0
C318 C 0.78792 0.58274 0.64059 0.0
H319 H 0.77498 0.56589 0.61405 0.0
H320 H 0.80809 0.60801 0.62989 0.0
H321 H 0.76209 0.59614 0.65798 0.0
C322 C 0.7549 0.45617 0.54355 0.0
N323 N 0.73526 0.46809 0.57776 0.0
N324 N 0.7624 0.47424 0.60683 0.0
C325 C 0.79987 0.46382 0.59283 0.0
C326 C 0.79644 0.45321 0.552 0.0
C327 C 0.73405 0.44468 0.50455 0.0
H328 H 0.71151 0.46877 0.49664 0.0
H329 H 0.75639 0.4413 0.47916 0.0
H330 H 0.71746 0.41523 0.50885 0.0
O331 O 0.6734 0.43023 0.64314 0.0
O332 O 0.72071 0.44628 0.68997 0.0
H333 H 0.85793 0.43397 0.60466 0.0
H334 H 0.85266 0.48395 0.62645 0.0
C335 C 0.83611 0.45523 0.61966 0.0
H336 H 0.82562 0.44147 0.64892 0.0
H337 H 0.81564 0.47198 0.72039 0.0
O338 O 0.64939 0.43523 0.54944 0.0
C339 C 0.69033 0.42447 0.67789 0.0
Co340 Co 0.06462 0.68312 0.60604 0.0
Co341 Co 0.032 0.7457 0.67065 0.0
C342 C 0.98501 0.66782 0.64322 0.0
O343 O 1.01099 0.65639 0.61643 0.0
O344 O 0.99052 0.70051 0.66387 0.0
C345 C 0.09444 0.63434 0.53515 0.0
O346 O 0.05704 0.63261 0.52021 0.0
C347 C 0.96799 0.80618 0.67449 0.0
C348 C 0.9934 0.85354 0.71537 0.0
C349 C 0.96213 0.8463 0.6873 0.0
N350 N 1.00214 0.79133 0.6924 0.0
N351 N 0.01658 0.81941 0.71771 0.0
C352 C 0.9427 0.78254 0.64434 0.0
H353 H 0.93049 0.75457 0.65945 0.0
H354 H 0.96237 0.77252 0.61853 0.0
H355 H 0.91655 0.80083 0.63262 0.0
C356 C 0.06767 0.76108 0.55547 0.0
N357 N 0.05992 0.73925 0.58992 0.0
N358 N 0.05381 0.76506 0.62009 0.0
C359 C 0.06097 0.80363 0.60678 0.0
C360 C 0.06884 0.80249 0.56512 0.0
C361 C 0.07401 0.74346 0.51382 0.0
H362 H 0.07005 0.70992 0.51414 0.0
H363 H 0.05146 0.75679 0.49216 0.0
H364 H 0.10495 0.75201 0.50243 0.0
O365 O 0.09574 0.67868 0.65808 0.0
O366 O 0.0768 0.723 0.70599 0.0
H367 H 0.07828 0.83048 0.66412 0.0
H368 H 0.08468 0.86435 0.62083 0.0
C369 C 0.06509 0.8401 0.63433 0.0
H370 H 0.03488 0.85399 0.63976 0.0
H371 H 0.04391 0.81653 0.7341 0.0
O372 O 0.10108 0.65241 0.5688 0.0
C373 C 0.09948 0.6935 0.69389 0.0
Co374 Co 0.85059 0.06247 0.59492 0.0
Co375 Co 0.78446 0.03422 0.66118 0.0
C376 C 0.85938 0.98282 0.63614 0.0
O377 O 0.87325 1.00756 0.60904 0.0
O378 O 0.82646 0.99038 0.65571 0.0
C379 C 0.90517 0.08201 0.52295 0.0
O380 O 0.91446 0.04309 0.51894 0.0
C381 C 0.71953 0.97355 0.67015 0.0
C382 C 0.67502 1.00294 0.71134 0.0
C383 C 0.67998 0.96942 0.68565 0.0
N384 N 0.73645 1.00837 0.68478 0.0
N385 N 0.70991 0.02537 0.7101 0.0
C386 C 0.74068 0.94578 0.64053 0.0
H387 H 0.75012 0.96359 0.61308 0.0
H388 H 0.72089 0.91966 0.63136 0.0
H389 H 0.7689 0.93351 0.65499 0.0
C390 C 0.77435 0.07222 0.54655 0.0
N391 N 0.79439 0.06038 0.58064 0.0
N392 N 0.76748 0.05447 0.61 0.0
C393 C 0.72988 0.06466 0.59628 0.0
C394 C 0.7329 0.07505 0.55539 0.0
C395 C 0.79476 0.08322 0.5072 0.0
H396 H 0.81745 0.05916 0.49989 0.0
H397 H 0.7722 0.08598 0.48188 0.0
H398 H 0.81121 0.11283 0.51074 0.0
O399 O 0.85738 0.09594 0.64518 0.0
O400 O 0.81132 0.07952 0.69322 0.0
H401 H 0.67178 0.09405 0.60865 0.0
H402 H 0.67726 0.04359 0.62959 0.0
C403 C 0.69369 0.07253 0.62329 0.0
H404 H 0.7042 0.08562 0.65279 0.0
H405 H 0.71455 0.0535 0.72456 0.0
O406 O 0.88116 0.09352 0.55133 0.0
C407 C 0.84199 0.10083 0.68072 0.0
Co408 Co 0.9605 0.19352 0.88016 0.0
Co409 Co 1.00503 0.25438 0.81983 0.0
C410 C 0.04505 0.17679 0.85215 0.0
O411 O 0.01616 0.16825 0.87703 0.0
O412 O 0.04348 0.20847 0.82953 0.0
C413 C 0.92793 0.16234 0.95675 0.0
O414 O 0.95631 0.18574 0.97319 0.0
C415 C 0.06865 0.31646 0.8183 0.0
C416 C 0.05962 0.34878 0.75965 0.0
C417 C 0.08172 0.35026 0.79603 0.0
N418 N 0.03914 0.29688 0.79706 0.0
N419 N 0.03457 0.31575 0.76149 0.0
C420 C 0.08151 0.30508 0.86088 0.0
H421 H 0.06072 0.28163 0.87415 0.0
H422 H 0.08242 0.33265 0.88069 0.0
H423 H 0.11298 0.29231 0.86003 0.0
C424 C 0.94077 0.27393 0.92224 0.0
N425 N 0.95989 0.25089 0.89351 0.0
N426 N 0.97913 0.27581 0.86801 0.0
C427 C 0.97324 0.31497 0.88022 0.0
C428 C 0.95009 0.31473 0.91549 0.0
C429 C 0.90785 0.25949 0.95079 0.0
H430 H 0.89198 0.23232 0.93817 0.0
H431 H 0.92133 0.25262 0.98118 0.0
H432 H 0.88472 0.28396 0.9555 0.0
O433 O 0.93491 0.1864 0.82586 0.0
O434 O 0.96202 0.23148 0.78182 0.0
H435 H 0.98402 0.34626 0.82324 0.0
H436 H 0.96397 0.37835 0.86299 0.0
C437 C 0.98496 0.35252 0.85648 0.0
H438 H 0.01606 0.36257 0.86572 0.0
H439 H 1.01293 0.30742 0.73946 0.0
O440 O 0.92675 0.15985 0.91808 0.0
C441 C 0.93675 0.20251 0.79037 0.0
Co442 Co 0.33809 0.95877 0.89559 0.0
Co443 Co 0.27295 0.99153 0.83344 0.0
C444 C 0.35092 0.0388 0.85802 0.0
O445 O 0.3616 0.01428 0.88649 0.0
O446 O 0.31899 0.0321 0.83659 0.0
C447 C 0.37654 0.93341 0.97148 0.0
O448 O 0.36105 0.96756 0.98597 0.0
C449 C 0.2099 0.05377 0.82838 0.0
C450 C 0.17556 0.03912 0.77212 0.0
C451 C 0.17561 0.06487 0.80594 0.0
N452 N 0.22865 0.02228 0.80956 0.0
N453 N 0.20842 0.01416 0.77544 0.0
C454 C 0.22251 0.07061 0.86912 0.0
H455 H 0.24784 0.0525 0.88266 0.0
H456 H 0.19586 0.071 0.89023 0.0
H457 H 0.23299 0.10276 0.86531 0.0
C458 C 0.26 0.94387 0.9453 0.0
N459 N 0.28117 0.95846 0.91253 0.0
N460 N 0.2544 0.97148 0.8852 0.0
C461 C 0.21595 0.96499 0.89942 0.0
C462 C 0.21837 0.94825 0.93819 0.0
C463 C 0.27785 0.92166 0.98115 0.0
H464 H 0.30198 0.90065 0.97065 0.0
H465 H 0.29061 0.94414 0.00309 0.0
H466 H 0.25421 0.90336 -0.00249 0.0
O467 O 0.34383 0.9289 0.8431 0.0
O468 O 0.29319 0.94354 0.8003 0.0
H469 H 0.18308 0.96613 0.84228 0.0
H470 H 0.15274 0.94993 0.88542 0.0
C471 C 0.17737 0.97112 0.87529 0.0
H472 H 0.16596 1.00263 0.88031 0.0
H473 H 0.21596 0.99053 0.75537 0.0
O474 O 0.37307 0.92659 0.93357 0.0
C475 C 0.32548 0.9231 0.80914 0.0
Co476 Co 0.57133 0.33342 0.87703 0.0
Co477 Co 0.52862 0.26994 0.81786 0.0
C478 C 0.48793 0.34964 0.84525 0.0
O479 O 0.5181 0.36139 0.86728 0.0
O480 O 0.48831 0.31479 0.8278 0.0
C481 C 0.60261 0.3832 0.94635 0.0
O482 O 0.5653 0.38297 0.96157 0.0
C483 C 0.46685 0.2059 0.8187 0.0
C484 C 0.47628 0.17231 0.76103 0.0
C485 C 0.45412 0.17152 0.79735 0.0
N486 N 0.49592 0.22553 0.79682 0.0
N487 N 0.50088 0.20573 0.76193 0.0
C488 C 0.45389 0.21794 0.86096 0.0
H489 H 0.47235 0.24409 0.87243 0.0
H490 H 0.45679 0.19138 0.88209 0.0
H491 H 0.42113 0.22698 0.86054 0.0
C492 C 0.57835 0.25612 0.92829 0.0
N493 N 0.56655 0.27733 0.89458 0.0
N494 N 0.55428 0.25086 0.86674 0.0
C495 C 0.56039 0.2124 0.88088 0.0
C496 C 0.57507 0.21455 0.92045 0.0
C497 C 0.59289 0.27422 0.96762 0.0
H498 H 0.58713 0.3074 0.96856 0.0
H499 H 0.57675 0.25943 0.99368 0.0
H500 H 0.62604 0.2677 0.97152 0.0
O501 O 0.59855 0.33645 0.82331 0.0
O502 O 0.57062 0.29314 0.77861 0.0
H503 H 0.57812 0.15101 0.86437 0.0
H504 H 0.52432 0.16027 0.86468 0.0
C505 C 0.55437 0.17402 0.85663 0.0
H506 H 0.55582 0.18053 0.82339 0.0
H507 H 0.5223 0.21391 0.7396 0.0
O508 O 0.60944 0.36562 0.91244 0.0
C509 C 0.59668 0.32115 0.7876 0.0
Co510 Co 0.18546 0.57135 0.89084 0.0
Co511 Co 0.2569 0.53437 0.83651 0.0
C512 C 0.18068 0.48615 0.85623 0.0
O513 O 0.16667 0.51379 0.87993 0.0
O514 O 0.215 0.4904 0.83823 0.0
C515 C 0.15021 0.59611 0.96751 0.0
O516 O 0.17787 0.57091 0.98236 0.0
C517 C 0.32425 0.47523 0.82751 0.0
C518 C 0.3647 0.50383 0.78146 0.0
C519 C 0.36172 0.4707 0.80799 0.0
N520 N 0.30612 0.5098 0.81393 0.0
N521 N 0.3303 0.52644 0.78589 0.0
C522 C 0.30657 0.44775 0.85974 0.0
H523 H 0.28445 0.46484 0.87898 0.0
H524 H 0.33116 0.43454 0.87918 0.0
H525 H 0.2902 0.42206 0.84461 0.0
C526 C 0.25877 0.59815 0.94044 0.0
N527 N 0.24067 0.57653 0.90991 0.0
N528 N 0.26933 0.55679 0.88951 0.0
C529 C 0.30564 0.56304 0.9084 0.0
C530 C 0.29998 0.58861 0.94134 0.0
C531 C 0.24026 0.63384 0.96237 0.0
H532 H 0.21283 0.64523 0.94595 0.0
H533 H 0.23245 0.62491 0.99421 0.0
H534 H 0.26292 0.65925 0.9645 0.0
O535 O 0.18107 0.60086 0.83895 0.0
O536 O 0.2325 0.57865 0.79967 0.0
H537 H 0.35079 0.55508 0.86199 0.0
H538 H 0.37182 0.55875 0.91277 0.0
C539 C 0.34579 0.54677 0.89447 0.0
H540 H 0.34518 0.5131 0.89818 0.0
H541 H 0.32409 0.55402 0.77089 0.0
O542 O 0.14593 0.59754 0.92899 0.0
C543 C 0.20122 0.60169 0.80566 0.0
C544 C 0.40393 0.11047 0.29502 0.0
C545 C 0.38383 0.08946 0.32734 0.0
C546 C 0.42574 0.12793 0.37693 0.0
C547 C 0.44983 0.14399 0.34451 0.0
N548 N 0.46647 0.14292 0.27217 0.0
N549 N 0.38117 0.07334 0.39976 0.0
C550 C 0.44013 0.13335 0.30335 0.0
C551 C 0.39615 0.09689 0.36855 0.0
N552 N 0.38788 0.10958 0.25637 0.0
N553 N 0.42995 0.14328 0.41559 0.0
H554 H 0.35926 0.05058 0.39562 0.0
H555 H 0.39306 0.07429 0.42935 0.0
H556 H 0.45031 0.16694 0.42275 0.0
H557 H 0.41021 0.13562 0.43951 0.0
H558 H 0.39906 0.12774 0.23254 0.0
H559 H 0.36068 0.09425 0.24923 0.0
H560 H 0.46276 0.13188 0.24249 0.0
H561 H 0.4943 0.15803 0.27646 0.0
C562 C 0.42835 0.45531 0.33578 0.0
C563 C 0.38801 0.4476 0.35048 0.0
C564 C 0.39277 0.37658 0.32617 0.0
C565 C 0.43461 0.38298 0.31585 0.0
N566 N 0.49447 0.42707 0.31838 0.0
N567 N 0.33458 0.39891 0.36643 0.0
C568 C 0.45309 0.42192 0.32285 0.0
C569 C 0.37106 0.40757 0.34768 0.0
N570 N 0.44243 0.49467 0.33172 0.0
N571 N 0.37321 0.3416 0.31386 0.0
H572 H 0.31847 0.42063 0.38335 0.0
H573 H 0.3225 0.36938 0.36872 0.0
H574 H 0.3878 0.31876 0.29703 0.0
H575 H 0.34171 0.33706 0.31688 0.0
H576 H 0.46957 0.50207 0.31652 0.0
H577 H 0.4254 0.52037 0.33979 0.0
H578 H 0.50994 0.45335 0.32798 0.0
H579 H 0.51406 0.404 0.30852 0.0
C580 C 0.07318 0.42703 0.33732 0.0
C581 C 0.07926 0.38487 0.34697 0.0
C582 C 0.15199 0.39178 0.32783 0.0
C583 C 0.14668 0.43454 0.32166 0.0
N584 N 0.10369 0.49429 0.32919 0.0
N585 N 0.12658 0.32982 0.36036 0.0
C586 C 0.10773 0.45259 0.32902 0.0
C587 C 0.11937 0.36808 0.34488 0.0
N588 N 0.03439 0.44245 0.3336 0.0
N589 N 0.18757 0.37335 0.31578 0.0
H590 H 0.10377 0.31241 0.37459 0.0
H591 H 0.15583 0.31733 0.36313 0.0
H592 H 0.21178 0.38948 0.30237 0.0
H593 H 0.19154 0.34167 0.31558 0.0
H594 H 0.0283 0.47141 0.32155 0.0
H595 H 1.00791 0.42534 0.33889 0.0
H596 H 0.0773 0.50907 0.33931 0.0
H597 H 0.12777 0.51435 0.32282 0.0
C598 C 0.16022 0.12083 0.34762 0.0
C599 C 0.14429 0.08043 0.34558 0.0
C600 C 0.08118 0.10711 0.3145 0.0
C601 C 0.09938 0.14674 0.31174 0.0
N602 N 0.15993 0.189 0.31815 0.0
N603 N 0.09248 0.03398 0.31995 0.0
C604 C 0.14002 0.15295 0.32616 0.0
C605 C 0.10553 0.07321 0.32706 0.0
N606 N 0.19363 0.12886 0.37152 0.0
N607 N 0.04027 0.10184 0.30689 0.0
H608 H 0.10932 1.00815 0.32835 0.0
H609 H 0.06668 0.02711 0.30238 0.0
H610 H 0.02085 0.12561 0.29822 0.0
H611 H 0.02471 0.07456 0.31307 0.0
H612 H 0.20445 0.15842 0.37709 0.0
H613 H 0.20773 0.10625 0.38922 0.0
H614 H 0.1909 0.19366 0.32463 0.0
H615 H 0.14651 0.2128 0.3015 0.0
C616 C 0.89331 0.91864 0.13271 0.0
C617 C 0.88412 0.93122 0.17356 0.0
C618 C 0.94393 0.89279 0.19828 0.0
C619 C 0.95128 0.87811 0.15804 0.0
N620 N 0.92726 0.86929 0.08895 0.0
N621 N 0.89452 0.92067 0.24588 0.0
C622 C 0.92425 0.88871 0.12585 0.0
C623 C 0.90757 0.91526 0.20653 0.0
N624 N 0.87423 0.9364 0.10002 0.0
N625 N 0.97264 0.88721 0.22831 0.0
H626 H 0.86729 0.93577 0.25307 0.0
H627 H 0.9082 0.90634 0.27093 0.0
H628 H 1.00042 0.87223 0.22347 0.0
H629 H 0.97077 0.90107 0.25693 0.0
H630 H 0.884 0.93258 0.06992 0.0
H631 H 0.85031 0.95697 0.10273 0.0
H632 H 0.90547 0.87231 0.0658 0.0
H633 H 0.94935 0.84705 0.08288 0.0
C634 C 0.58179 0.92552 0.17616 0.0
C635 C 0.59996 0.88622 0.18185 0.0
C636 C 0.66156 0.91141 0.14651 0.0
C637 C 0.64612 0.95198 0.14733 0.0
N638 N 0.59408 0.99845 0.17237 0.0
N639 N 0.66136 0.84501 0.17962 0.0
C640 C 0.6069 0.95935 0.16469 0.0
C641 C 0.64112 0.88005 0.16903 0.0
N642 N 0.54039 0.93067 0.17979 0.0
N643 N 0.69495 0.90252 0.12308 0.0
H644 H 0.64811 0.82221 0.19781 0.0
H645 H 0.69252 0.84071 0.17394 0.0
H646 H 0.70889 0.92447 0.10436 0.0
H647 H 0.70561 0.87274 0.11879 0.0
H648 H 0.52572 0.95795 0.17192 0.0
H649 H 0.52009 0.90678 0.1859 0.0
H650 H 0.5676 1.00481 0.18904 0.0
H651 H 0.61168 0.02441 0.16603 0.0
C652 C 0.59369 0.63964 0.19174 0.0
C653 C 0.5813 0.64847 0.15077 0.0
C654 C 0.63065 0.59748 0.126 0.0
C655 C 0.64572 0.59187 0.16661 0.0
N656 N 0.64843 0.61649 0.23606 0.0
N657 N 0.59515 0.64233 0.07856 0.0
C658 C 0.62937 0.61576 0.19879 0.0
C659 C 0.60189 0.62929 0.11777 0.0
N660 N 0.57022 0.65166 0.22421 0.0
N661 N 0.64234 0.57159 0.09544 0.0
H662 H 0.57539 0.66641 0.07141 0.0
H663 H 0.61236 0.63223 0.05371 0.0
H664 H 0.66372 0.54841 0.09959 0.0
H665 H 0.62847 0.57124 0.06669 0.0
H666 H 0.57587 0.64201 0.25412 0.0
H667 H 0.54256 0.66723 0.22128 0.0
H668 H 0.6401 0.63664 0.2593 0.0
H669 H 0.67533 0.60035 0.24217 0.0
C670 C 0.89126 0.6479 0.17115 0.0
C671 C 0.93282 0.64072 0.18201 0.0
C672 C 0.92503 0.56888 0.16089 0.0
C673 C 0.88504 0.57745 0.14585 0.0
N674 N 0.83518 0.6282 0.12669 0.0
N675 N 0.99201 0.59616 0.17666 0.0
C676 C 0.86959 0.61792 0.14809 0.0
C677 C 0.95057 0.60174 0.17389 0.0
N678 N 0.87196 0.68266 0.18397 0.0
N679 N 0.93833 0.52931 0.16454 0.0
H680 H 1.01249 0.61927 0.18474 0.0
H681 H 1.00655 0.56961 0.16663 0.0
H682 H 0.92091 0.50395 0.1559 0.0
H683 H 0.96526 0.52148 0.17988 0.0
H684 H 0.84064 0.68758 0.17985 0.0
H685 H 0.88635 0.70453 0.20232 0.0
H686 H 0.82436 0.65816 0.12448 0.0
H687 H 0.82043 0.60745 0.10734 0.0
C688 C 0.60408 0.90124 0.62609 0.0
C689 C 0.58022 0.88489 0.65859 0.0
C690 C 0.6275 0.91691 0.70782 0.0
C691 C 0.64747 0.9383 0.67555 0.0
N692 N 0.6481 0.95638 0.60351 0.0
N693 N 0.5645 0.88528 0.731 0.0
C694 C 0.63404 0.93195 0.63449 0.0
C695 C 0.5907 0.89477 0.69969 0.0
N696 N 0.59922 0.88656 0.58725 0.0
N697 N 0.64417 0.91679 0.7462 0.0
H698 H 0.53605 0.87131 0.72656 0.0
H699 H 0.56895 0.89549 0.76087 0.0
H700 H 0.67181 0.9314 0.75314 0.0
H701 H 0.63294 0.89846 0.76989 0.0
H702 H 0.61868 0.89456 0.5632 0.0
H703 H 0.57869 0.86307 0.58001 0.0
H704 H 0.63558 0.956 0.57415 0.0
H705 H 0.66962 0.9795 0.60776 0.0
C706 C 0.65772 0.61879 0.6474 0.0
C707 C 0.64152 0.57845 0.64638 0.0
C708 C 0.57602 0.6046 0.67248 0.0
C709 C 0.59442 0.6436 0.67932 0.0
N710 N 0.65595 0.68495 0.6806 0.0
N711 N 0.58672 0.53171 0.66486 0.0
C712 C 0.63622 0.64992 0.6688 0.0
C713 C 0.60102 0.57096 0.66073 0.0
N714 N 0.69273 0.62781 0.62632 0.0
N715 N 0.53446 0.59975 0.67547 0.0
H716 H 0.60365 0.50594 0.65679 0.0
H717 H 0.55936 0.52456 0.67979 0.0
H718 H 0.51459 0.62346 0.68304 0.0
H719 H 0.51927 0.57315 0.66633 0.0
H720 H 0.70412 0.65755 0.62312 0.0
H721 H 0.70758 0.60614 0.60821 0.0
H722 H 0.68742 0.68933 0.67693 0.0
H723 H 0.64162 0.7078 0.69764 0.0
C724 C 0.90348 0.60829 0.70342 0.0
C725 C 0.88231 0.58764 0.67159 0.0
C726 C 0.92394 0.62548 0.62109 0.0
C727 C 0.94897 0.64114 0.65295 0.0
N728 N 0.96729 0.63929 0.72484 0.0
N729 N 0.87874 0.57108 0.59935 0.0
C730 C 0.93999 0.63047 0.6943 0.0
C731 C 0.8942 0.59473 0.63015 0.0
N732 N 0.88821 0.60775 0.74236 0.0
N733 N 0.9274 0.64091 0.58231 0.0
H734 H 0.85703 0.54819 0.604 0.0
H735 H 0.89017 0.57194 0.56959 0.0
H736 H 0.94771 0.66449 0.57467 0.0
H737 H 0.90704 0.63345 0.55885 0.0
H738 H 0.90031 0.62565 0.76586 0.0
H739 H 0.86081 0.59306 0.7501 0.0
H740 H 0.96395 0.62832 0.75465 0.0
H741 H 0.99548 0.65352 0.71977 0.0
C742 C 0.89062 0.93749 0.69057 0.0
C743 C 0.88371 0.94608 0.64836 0.0
C744 C 0.92888 0.8889 0.63036 0.0
C745 C 0.93212 0.87774 0.67255 0.0
N746 N 0.90562 0.88532 0.74102 0.0
N747 N 0.88801 0.92279 0.57848 0.0
C748 C 0.9096 0.9001 0.70204 0.0
C749 C 0.90035 0.91963 0.61834 0.0
N750 N 0.88154 0.9659 0.71986 0.0
N751 N 0.95415 0.87202 0.60172 0.0
H752 H 0.86607 0.94385 0.56866 0.0
H753 H 0.8962 0.90157 0.55615 0.0
H754 H 0.97548 0.84942 0.60827 0.0
H755 H 0.95616 0.88296 0.57178 0.0
H756 H 0.88985 0.96233 0.75047 0.0
H757 H 0.87026 0.99501 0.71325 0.0
H758 H 0.88633 0.89866 0.76262 0.0
H759 H 0.91778 0.85722 0.75025 0.0
C760 C 0.1019 0.07789 0.82579 0.0
C761 C 0.14218 0.09322 0.81896 0.0
C762 C 0.12003 0.16078 0.84337 0.0
C763 C 0.07873 0.14688 0.84468 0.0
N764 N 0.02965 0.09384 0.82696 0.0
N765 N 0.18743 0.15168 0.81365 0.0
C766 C 0.06939 0.10582 0.83331 0.0
C767 C 0.15072 0.13538 0.82574 0.0
N768 N 0.09458 0.03662 0.82629 0.0
N769 N 0.13012 0.19788 0.85989 0.0
H770 H 0.21011 0.13436 0.79935 0.0
H771 H 0.19374 0.18301 0.8142 0.0
H772 H 0.10861 0.2164 0.87446 0.0
H773 H 0.16028 0.2081 0.86303 0.0
H774 H 0.06663 0.024 0.83548 0.0
H775 H 0.11736 0.01482 0.82163 0.0
H776 H 0.02185 0.06558 0.81427 0.0
H777 H 1.00462 0.11337 0.83002 0.0
C778 C 0.36283 0.11371 0.84325 0.0
C779 C 0.37846 0.07322 0.84569 0.0
C780 C 0.44495 0.09792 0.82003 0.0
C781 C 0.42783 0.13738 0.81312 0.0
N782 N 0.36798 0.18063 0.81115 0.0
N783 N 0.43198 0.02528 0.82781 0.0
C784 C 0.38603 0.14471 0.82286 0.0
C785 C 0.41893 0.06488 0.8319 0.0
N786 N 0.32632 0.12283 0.86151 0.0
N787 N 0.48629 0.09197 0.81649 0.0
H788 H 0.41387 0.99988 0.83501 0.0
H789 H 0.45938 0.01749 0.81343 0.0
H790 H 0.50672 0.11494 0.80766 0.0
H791 H 0.50081 0.06515 0.82596 0.0
H792 H 0.31504 0.15256 0.86407 0.0
H793 H 0.3094 0.10111 0.87788 0.0
H794 H 0.3366 0.18602 0.81369 0.0
H795 H 0.38373 0.20364 0.79535 0.0
C796 C 0.43613 0.38129 0.7957 0.0
C797 C 0.4538 0.37897 0.83583 0.0
C798 C 0.41718 0.44178 0.8534 0.0
C799 C 0.3942 0.43967 0.81666 0.0
N800 N 0.37746 0.40249 0.75527 0.0
N801 N 0.45093 0.40243 0.90604 0.0
C802 C 0.40209 0.40767 0.78869 0.0
C803 C 0.44111 0.40773 0.86575 0.0
N804 N 0.45344 0.36133 0.76332 0.0
N805 N 0.4186 0.4773 0.87512 0.0
H806 H 0.46578 0.37633 0.91699 0.0
H807 H 0.43972 0.42156 0.92895 0.0
H808 H 0.4066 0.50435 0.86324 0.0
H809 H 0.437 0.48111 0.90097 0.0
H810 H 0.44338 0.36534 0.73329 0.0
H811 H 0.48093 0.34532 0.76497 0.0
H812 H 0.37954 0.37701 0.73619 0.0
H813 H 0.35277 0.42174 0.74877 0.0
C814 C 0.16942 0.41046 0.84545 0.0
C815 C 0.15404 0.45108 0.84391 0.0
C816 C 0.0896 0.42502 0.81491 0.0
C817 C 0.107 0.38524 0.81152 0.0
N818 N 0.167 0.34234 0.81614 0.0
N819 N 0.10291 0.49781 0.81715 0.0
C820 C 0.14795 0.37855 0.82477 0.0
C821 C 0.11502 0.45865 0.82598 0.0
N822 N 0.20391 0.40212 0.86767 0.0
N823 N 0.04852 0.43084 0.80901 0.0
H824 H 0.12085 0.52362 0.82303 0.0
H825 H 0.07682 0.50436 0.79989 0.0
H826 H 0.02823 0.40733 0.80157 0.0
H827 H 0.03389 0.45841 0.81564 0.0
H828 H 0.21455 0.37247 0.8729 0.0
H829 H 0.2193 0.42455 0.88447 0.0
H830 H 0.19807 0.33727 0.82162 0.0
H831 H 0.15272 0.31883 0.79983 0.0
C832 C 0.61772 0.13004 0.26573 0.0
C833 C 0.62423 0.17303 0.26969 0.0
C834 C 0.68282 0.16843 0.22258 0.0
C835 C 0.6779 0.12516 0.22131 0.0
N836 N 0.64575 0.06387 0.24746 0.0
N837 N 0.66662 0.23238 0.25701 0.0
C838 C 0.64712 0.10574 0.24502 0.0
C839 C 0.65782 0.19212 0.24948 0.0
N840 N 0.58217 0.11265 0.2799 0.0
N841 N 0.71083 0.18686 0.19739 0.0
H842 H 0.64876 0.25055 0.2762 0.0
H843 H 0.6931 0.24697 0.24661 0.0
H844 H 0.73095 0.17014 0.17908 0.0
H845 H 0.71277 0.21846 0.19317 0.0
H846 H 0.57357 0.08249 0.27385 0.0
H847 H 0.55907 0.12936 0.29416 0.0
H848 H 0.62671 0.04796 0.26761 0.0
H849 H 0.66636 0.04498 0.2321 0.0
C850 C 0.39272 0.60567 0.26226 0.0
C851 C 0.36038 0.6239 0.28466 0.0
C852 C 0.37919 0.69165 0.25686 0.0
C853 C 0.41311 0.67362 0.23658 0.0
N854 N 0.4573 0.6152 0.22695 0.0
N855 N 0.32569 0.68441 0.30832 0.0
C856 C 0.4213 0.63108 0.24135 0.0
C857 C 0.35448 0.66703 0.28351 0.0
N858 N 0.39592 0.56387 0.2606 0.0
N859 N 0.36963 0.73173 0.2494 0.0
H860 H 0.30601 0.66703 0.3267 0.0
H861 H 0.32284 0.71592 0.31244 0.0
H862 H 0.38754 0.75066 0.23077 0.0
H863 H 0.34277 0.74555 0.25957 0.0
H864 H 0.416 0.54862 0.24116 0.0
H865 H 0.37609 0.54407 0.27612 0.0
H866 H 0.46729 0.58558 0.23339 0.0
H867 H 0.47927 0.63285 0.21178 0.0
C868 C 0.89141 0.42032 0.23097 0.0
C869 C 0.85775 0.402 0.2104 0.0
C870 C 0.8741 0.3357 0.24269 0.0
C871 C 0.90973 0.35353 0.2604 0.0
N872 N 0.95733 0.41015 0.2635 0.0
N873 N 0.81925 0.34161 0.19238 0.0
C874 C 0.91976 0.39514 0.25228 0.0
C875 C 0.8497 0.35941 0.215 0.0
N876 N 0.89593 0.46202 0.23071 0.0
N877 N 0.86292 0.29671 0.25335 0.0
H878 H 0.80001 0.35849 0.17319 0.0
H879 H 0.81456 0.31006 0.19085 0.0
H880 H 0.88055 0.27846 0.27282 0.0
H881 H 0.83509 0.28339 0.24503 0.0
H882 H 0.91745 0.47746 0.24856 0.0
H883 H 0.87562 0.48158 0.21562 0.0
H884 H 0.9681 0.43903 0.25494 0.0
H885 H 0.97961 0.39206 0.2776 0.0
C886 C 0.14952 0.86287 0.30675 0.0
C887 C 0.17611 0.8937 0.29051 0.0
C888 C 0.16485 0.86316 0.22315 0.0
C889 C 0.12943 0.84212 0.2376 0.0
N890 N 0.0856 0.82721 0.29614 0.0
N891 N 0.20178 0.92663 0.22832 0.0
C892 C 0.1211 0.84293 0.28034 0.0
C893 C 0.18235 0.89468 0.24734 0.0
N894 N 0.15193 0.85166 0.34697 0.0
N895 N 0.18175 0.85331 0.18626 0.0
H896 H 0.21097 0.95337 0.24293 0.0
H897 H 0.2037 0.92883 0.19651 0.0
H898 H 0.1713 0.82854 0.16892 0.0
H899 H 0.2091 0.86639 0.17587 0.0
H900 H 0.1347 0.82755 0.35918 0.0
H901 H 0.17499 0.86239 0.36637 0.0
H902 H 0.07748 0.83111 0.32677 0.0
H903 H 0.06243 0.81408 0.27865 0.0
C904 C 0.36801 0.85967 0.79781 0.0
C905 C 0.3438 0.89179 0.78065 0.0
C906 C 0.36275 0.8653 0.71322 0.0
C907 C 0.39629 0.84318 0.73042 0.0
N908 N 0.4325 0.82426 0.79287 0.0
N909 N 0.32349 0.92739 0.71816 0.0
C910 C 0.39931 0.84121 0.77383 0.0
C911 C 0.34213 0.89512 0.73722 0.0
N912 N 0.3607 0.84606 0.83669 0.0
N913 N 0.34994 0.85746 0.6742 0.0
H914 H 0.31013 0.95187 0.73333 0.0
H915 H 0.32535 0.93191 0.68659 0.0
H916 H 0.36186 0.83344 0.65689 0.0
H917 H 0.32395 0.87112 0.66152 0.0
H918 H 0.37596 0.82097 0.84935 0.0
H919 H 0.33572 0.85618 0.85385 0.0
H920 H 0.43672 0.82601 0.82447 0.0
H921 H 0.45772 0.81238 0.77761 0.0
C922 C 0.60642 0.38534 0.74771 0.0
C923 C 0.61886 0.34429 0.75514 0.0
C924 C 0.67892 0.35498 0.71076 0.0
C925 C 0.66849 0.39711 0.70707 0.0
N926 N 0.62628 0.45405 0.72748 0.0
N927 N 0.66837 0.29042 0.74702 0.0
C928 C 0.63333 0.41272 0.72712 0.0
C929 C 0.65547 0.32906 0.73738 0.0
N930 N 0.56829 0.39792 0.75971 0.0
N931 N 0.71075 0.33976 0.68834 0.0
H932 H 0.65109 0.27055 0.76528 0.0
H933 H 0.69691 0.27885 0.73878 0.0
H934 H 0.7292 0.35831 0.66984 0.0
H935 H 0.71743 0.30864 0.68626 0.0
H936 H 0.55565 0.42602 0.75139 0.0
H937 H 0.54755 0.37865 0.77469 0.0
H938 H 0.60358 0.46778 0.74512 0.0
H939 H 0.6456 0.47522 0.71315 0.0
C940 C 0.16028 0.69127 0.74261 0.0
C941 C 0.12709 0.67119 0.72269 0.0
C942 C 0.1522 0.60472 0.7478 0.0
C943 C 0.18222 0.62508 0.77163 0.0
N944 N 0.21308 0.68783 0.79516 0.0
N945 N 0.08654 0.6096 0.71385 0.0
C946 C 0.18584 0.66846 0.76994 0.0
C947 C 0.12186 0.62806 0.72715 0.0
N948 N 0.16818 0.73162 0.73443 0.0
N949 N 0.15235 0.56287 0.74532 0.0
H950 H 0.06246 0.62565 0.70032 0.0
H951 H 0.07909 0.57917 0.72022 0.0
H952 H 0.17382 0.5447 0.76052 0.0
H953 H 0.13377 0.54646 0.7252 0.0
H954 H 0.19431 0.74689 0.74473 0.0
H955 H 0.15013 0.74912 0.71468 0.0
H956 H 0.21398 0.7195 0.79907 0.0
H957 H 0.23355 0.67179 0.81381 0.0
C958 C 0.87095 0.18958 0.75194 0.0
C959 C 0.91335 0.18144 0.75766 0.0
C960 C 0.90684 0.11834 0.71765 0.0
C961 C 0.86508 0.12781 0.70932 0.0
N962 N 0.8087 0.1752 0.71339 0.0
N963 N 0.97346 0.14229 0.74053 0.0
C964 C 0.8474 0.16423 0.72509 0.0
C965 C 0.93184 0.14723 0.73856 0.0
N966 N 0.85311 0.221 0.77292 0.0
N967 N 0.92211 0.0807 0.70741 0.0
H968 H 0.99275 0.16245 0.75619 0.0
H969 H 0.98934 0.12041 0.7237 0.0
H970 H 0.9047 0.05815 0.69291 0.0
H971 H 0.95075 0.07017 0.71677 0.0
H972 H 0.82157 0.22581 0.77395 0.0
H973 H 0.86997 0.24119 0.79115 0.0
H974 H 0.79559 0.20341 0.7203 0.0
H975 H 0.7906 0.1571 0.69422 0.0
C976 C 0.63437 0.07952 0.49311 0.0
C977 C 0.63393 0.12161 0.4816 0.0
C978 C 0.69782 0.13319 0.5198 0.0
C979 C 0.69956 0.09085 0.52897 0.0
N980 N 0.67374 0.02224 0.51985 0.0
N981 N 0.67044 0.18658 0.47681 0.0
C982 C 0.66894 0.06356 0.51446 0.0
C983 C 0.66729 0.14782 0.49256 0.0
N984 N 0.60198 0.05466 0.4833 0.0
N985 N 0.72414 0.15988 0.53871 0.0
H986 H 0.64873 0.19989 0.45776 0.0
H987 H 0.6967 0.20462 0.47978 0.0
H988 H 0.74694 0.15052 0.55907 0.0
H989 H 0.72099 0.19162 0.53728 0.0
H990 H 0.59785 0.02538 0.4954 0.0
H991 H 0.57801 0.06385 0.46427 0.0
H992 H 0.65495 1.00026 0.50633 0.0
H993 H 0.69864 1.00954 0.53538 0.0
C994 C 0.40775 0.63361 0.52005 0.0
C995 C 0.42874 0.62998 0.48223 0.0
C996 C 0.47275 0.68799 0.50195 0.0
C997 C 0.44756 0.69505 0.53661 0.0
N998 N 0.38493 0.67971 0.57305 0.0
N999 N 0.47638 0.65983 0.43364 0.0
C1000 C 0.41313 0.66944 0.54395 0.0
C1001 C 0.46015 0.65871 0.47217 0.0
N1002 N 0.38427 0.60191 0.53426 0.0
N1003 N 0.50902 0.70866 0.49771 0.0
H1004 H 0.46689 0.64041 0.4102 0.0
H1005 H 0.49628 0.68289 0.42377 0.0
H1006 H 0.5193 0.73026 0.51889 0.0
H1007 H 0.53048 0.70165 0.47518 0.0
H1008 H 0.37088 0.6018 0.56323 0.0
H1009 H 0.38258 0.57382 0.51918 0.0
H1010 H 0.35733 0.66392 0.57679 0.0
H1011 H 0.38739 0.70619 0.59074 0.0
C1012 C 0.85827 0.37901 0.48726 0.0
C1013 C 0.89247 0.40397 0.47606 0.0
C1014 C 0.86048 0.46275 0.5104 0.0
C1015 C 0.82921 0.43642 0.52542 0.0
N1016 N 0.80263 0.36805 0.53512 0.0
N1017 N 0.92711 0.46954 0.47807 0.0
C1018 C 0.8292 0.39418 0.51571 0.0
C1019 C 0.89394 0.44582 0.48817 0.0
N1020 N 0.85285 0.34102 0.47055 0.0
N1021 N 0.85732 0.50415 0.51609 0.0
H1022 H 0.95027 0.45975 0.45843 0.0
H1023 H 0.93265 0.49839 0.4905 0.0
H1024 H 0.83323 0.51757 0.53218 0.0
H1025 H 0.8766 0.52557 0.50225 0.0
H1026 H 0.82604 0.32392 0.47418 0.0
H1027 H 0.87296 0.32786 0.44982 0.0
H1028 H 0.80453 0.33625 0.53297 0.0
H1029 H 0.78115 0.37776 0.55662 0.0
C1030 C 0.06118 0.87811 0.47595 0.0
C1031 C 0.09478 0.9047 0.48449 0.0
C1032 C 0.11353 0.8615 0.54279 0.0
C1033 C 0.07762 0.83766 0.53722 0.0
N1034 N 1.01164 0.83036 0.50436 0.0
N1035 N 0.14219 0.9293 0.53541 0.0
C1036 C 0.04959 0.84816 0.50562 0.0
C1037 C 0.11785 0.89863 0.52073 0.0
N1038 N 0.04171 0.8796 0.43896 0.0
N1039 N 0.14401 0.8485 0.56836 0.0
H1040 H 0.14249 0.95839 0.52205 0.0
H1041 H 0.15751 0.9273 0.56337 0.0
H1042 H 0.14244 0.82082 0.58439 0.0
H1043 H 0.1722 0.86357 0.57053 0.0
H1044 H 0.01981 0.858 0.43011 0.0
H1045 H 0.05008 0.89972 0.41559 0.0
H1046 H 0.98874 0.83989 0.48421 0.0
H1047 H 1.00184 0.80886 0.52598 0.0
C1048 C 0.17643 0.95775 0.00209 0.0
C1049 C 0.18398 0.9356 0.96553 0.0
C1050 C 0.12429 0.8919 0.97948 0.0
C1051 C 0.11993 0.91049 0.01845 0.0
N1052 N 0.14363 0.95911 0.06873 0.0
N1053 N 0.1703 0.87643 0.92353 0.0
C1054 C 0.1466 0.94285 0.03033 0.0
C1055 C 0.15929 0.90127 0.95528 0.0
N1056 N 0.19695 0.99365 0.00923 0.0
N1057 N 0.09494 0.86553 0.96527 0.0
H1058 H 0.19609 0.88191 0.90541 0.0
H1059 H 0.15604 0.84845 0.91751 0.0
H1060 H 0.06885 0.85767 0.98197 0.0
H1061 H 0.09461 0.85439 0.93542 0.0
H1062 H 0.18987 1.01341 0.03316 0.0
H1063 H 0.21893 1.00553 0.98922 0.0
H1064 H 0.1653 0.97911 0.08103 0.0
H1065 H 0.12054 0.95085 0.08928 0.0
C1066 C 0.63209 0.12187 0.96277 0.0
C1067 C 0.61109 0.11543 0.00027 0.0
C1068 C 0.56228 0.16963 0.98191 0.0
C1069 C 0.58699 0.17991 0.94763 0.0
N1070 N 0.64924 0.17014 0.90901 0.0
N1071 N 0.55745 0.13438 0.04725 0.0
C1072 C 0.62288 0.1571 0.93891 0.0
C1073 C 0.57647 0.13968 0.01034 0.0
N1074 N 0.6607 0.0943 0.94973 0.0
N1075 N 0.52479 0.18768 0.98665 0.0
H1076 H 0.56545 0.11112 0.06772 0.0
H1077 H 0.53527 0.1543 0.0585 0.0
H1078 H 0.51347 0.20967 0.96636 0.0
H1079 H 0.50354 0.17853 0.00866 0.0
H1080 H 0.67381 0.09533 0.92067 0.0
H1081 H 0.66884 0.06836 0.96653 0.0
H1082 H 0.67813 0.15737 0.90445 0.0
H1083 H 0.64386 0.19608 0.89108 0.0
C1084 C 0.36205 0.6315 0.95613 0.0
C1085 C 0.33203 0.60329 0.97014 0.0
C1086 C 0.36779 0.59724 0.03594 0.0
C1087 C 0.39994 0.62228 0.02034 0.0
N1088 N 0.43081 0.6588 0.96374 0.0
N1089 N 0.30784 0.55553 0.02124 0.0
C1090 C 0.39804 0.63806 0.97983 0.0
C1091 C 0.33513 0.5853 0.0096 0.0
N1092 N 0.35558 0.65268 0.92054 0.0
N1093 N 0.36846 0.58494 0.07599 0.0
H1094 H 0.28292 0.54663 0.00329 0.0
H1095 H 0.31126 0.53767 0.04747 0.0
H1096 H 0.39323 0.59047 0.09547 0.0
H1097 H 0.3436 0.57117 0.09064 0.0
H1098 H 0.37414 0.67677 0.91065 0.0
H1099 H 0.32934 0.64868 0.90265 0.0
H1100 H 0.43293 0.66729 0.93307 0.0
H1101 H 0.4576 0.66464 0.98014 0.0
C1102 C 0.94763 0.38764 0.00627 0.0
C1103 C 0.91852 0.4169 0.99257 0.0
C1104 C 0.90867 0.37825 0.92908 0.0
C1105 C 0.93933 0.35024 0.94174 0.0
N1106 N 0.99373 0.33224 0.9885 0.0
N1107 N 0.87909 0.44575 0.93703 0.0
C1108 C 0.96053 0.35609 0.97925 0.0
C1109 C 0.90156 0.41407 0.95266 0.0
N1110 N 0.96261 0.38977 0.04531 0.0
N1111 N 0.88528 0.36982 0.89539 0.0
H1112 H 0.87406 0.47286 0.95301 0.0
H1113 H 0.8691 0.44693 0.90677 0.0
H1114 H 0.88962 0.34379 0.87743 0.0
H1115 H 0.85946 0.38674 0.88724 0.0
H1116 H 0.97972 0.36652 0.05894 0.0
H1117 H 0.95619 0.41407 0.06497 0.0
H1118 H 1.01313 0.33779 0.01321 0.0
H1119 H 1.00406 0.30875 0.96957 0.0
C1120 C 0.32526 0.90086 0.49066 0.0
C1121 C 0.32629 0.94209 0.47716 0.0
C1122 C 0.39311 0.95185 0.51031 0.0
C1123 C 0.39098 0.91109 0.52568 0.0
N1124 N 0.34793 0.85187 0.54094 0.0
N1125 N 0.35623 1.00956 0.48128 0.0
C1126 C 0.35481 0.88722 0.51941 0.0
C1127 C 0.35882 0.96844 0.48906 0.0
N1128 N 0.29748 0.87391 0.47443 0.0
N1129 N 0.42772 0.97486 0.51626 0.0
H1130 H 0.3313 0.02276 0.46619 0.0
H1131 H 0.37677 0.03104 0.49298 0.0
H1132 H 0.45189 0.96544 0.53494 0.0
H1133 H 0.43322 1.00257 0.50129 0.0
H1134 H 0.29857 0.84242 0.47978 0.0
H1135 H 0.27595 0.88219 0.45232 0.0
H1136 H 0.32 0.83623 0.54014 0.0
H1137 H 0.36773 0.84019 0.56296 0.0
C1138 C 0.6137 0.36633 0.44867 0.0
C1139 C 0.57865 0.34142 0.45522 0.0
C1140 C 0.56284 0.38018 0.51737 0.0
C1141 C 0.59608 0.40717 0.50872 0.0
N1142 N 0.64315 0.4336 0.45831 0.0
N1143 N 0.51388 0.33154 0.48964 0.0
C1144 C 0.6185 0.40256 0.47192 0.0
C1145 C 0.55123 0.35055 0.48762 0.0
N1146 N 0.64314 0.3549 0.42129 0.0
N1147 N 0.54382 0.38097 0.5546 0.0
H1148 H 0.50423 0.30997 0.46812 0.0
H1149 H 0.49119 0.33999 0.51039 0.0
H1150 H 0.55193 0.40121 0.57785 0.0
H1151 H 0.52244 0.35894 0.56369 0.0
H1152 H 0.67108 0.37029 0.41845 0.0
H1153 H 0.6412 0.32802 0.40415 0.0
H1154 H 0.65788 0.433 0.43001 0.0
H1155 H 0.64454 0.46186 0.47315 0.0
C1156 C 0.16582 0.55919 0.48142 0.0
C1157 C 0.19583 0.58656 0.4657 0.0
C1158 C 0.16221 0.6442 0.49931 0.0
C1159 C 0.12967 0.61766 0.51178 0.0
N1160 N 0.09898 0.55012 0.51278 0.0
N1161 N 0.2179 0.65583 0.45176 0.0
C1162 C 0.1309 0.57522 0.502 0.0
C1163 C 0.19281 0.62924 0.4725 0.0
N1164 N 0.17154 0.51781 0.47794 0.0
N1165 N 0.16456 0.68362 0.51325 0.0
H1166 H 0.24045 0.64629 0.43131 0.0
H1167 H 0.21374 0.68748 0.45167 0.0
H1168 H 0.14274 0.69707 0.53195 0.0
H1169 H 0.19032 0.70216 0.50914 0.0
H1170 H 0.15318 0.49598 0.49236 0.0
H1171 H 0.19679 0.50507 0.4631 0.0
H1172 H 0.09551 0.5203 0.50202 0.0
H1173 H 0.07464 0.55962 0.53109 0.0
C1174 C 0.908 0.15787 0.43521 0.0
C1175 C 0.94299 0.18183 0.44512 0.0
C1176 C 0.95488 0.13875 0.50576 0.0
C1177 C 0.92159 0.11322 0.49402 0.0
N1178 N 0.87475 0.0917 0.4412 0.0
N1179 N 1.00503 0.18973 0.48463 0.0
C1180 C 0.90072 0.12066 0.45671 0.0
C1181 C 0.96806 0.1707 0.47892 0.0
N1182 N 0.88085 0.17131 0.40629 0.0
N1183 N 0.97355 0.13281 0.54275 0.0
H1184 H 0.01581 0.21294 0.46536 0.0
H1185 H 0.02648 0.18018 0.50626 0.0
H1186 H 0.96601 0.10851 0.56222 0.0
H1187 H 0.99475 0.1533 0.55511 0.0
H1188 H 0.85269 0.15709 0.40092 0.0
H1189 H 0.88478 0.19874 0.39025 0.0
H1190 H 0.86117 0.09412 0.41242 0.0
H1191 H 0.87082 0.06311 0.45499 0.0
C1192 C 0.82747 0.10941 0.98801 0.0
C1193 C 0.82939 0.11194 0.0312 0.0
C1194 C 0.8984 0.14033 0.02546 0.0
C1195 C 0.8939 0.14451 0.98226 0.0
N1196 N 0.84346 0.14667 0.92673 0.0
N1197 N 0.86159 0.14462 0.08927 0.0
C1198 C 0.85542 0.13297 0.96443 0.0
C1199 C 0.86314 0.13229 0.04946 0.0
N1200 N 0.79957 0.08451 0.96917 0.0
N1201 N 0.93601 0.14136 0.04382 0.0
H1202 H 0.83512 0.14156 0.107 0.0
H1203 H 0.88498 0.16187 0.1027 0.0
H1204 H 0.96343 0.14089 0.0275 0.0
H1205 H 0.93973 0.13623 0.07514 0.0
H1206 H 0.7996 0.07987 0.93759 0.0
H1207 H 0.77955 0.06538 0.98525 0.0
H1208 H 0.81454 0.14012 0.91466 0.0
H1209 H 0.8586 0.16969 0.91059 0.0
C1210 C 0.40669 0.91087 0.03886 0.0
C1211 C 0.38936 0.89995 0.00029 0.0
C1212 C 0.38461 0.82894 0.02574 0.0
C1213 C 0.41103 0.83912 0.05821 0.0
N1214 N 0.40473 0.89094 0.10963 0.0
N1215 N 0.36087 0.84406 0.95812 0.0
C1216 C 0.4103 0.88064 0.06967 0.0
C1217 C 0.37805 0.85773 0.99376 0.0
N1218 N 0.42139 0.94938 0.04614 0.0
N1219 N 0.35953 0.79562 0.0296 0.0
H1220 H 0.35111 0.86218 0.93395 0.0
H1221 H 0.3578 0.81283 0.9519 0.0
H1222 H 0.3588 0.77842 0.05661 0.0
H1223 H 0.33604 0.78887 0.00898 0.0
H1224 H 0.43588 0.9569 0.07364 0.0
H1225 H 0.42363 0.97184 0.02348 0.0
H1226 H 0.40006 0.92115 0.11895 0.0
H1227 H 0.40019 0.86849 0.13205 0.0
C1228 C 0.66772 0.45995 0.00659 0.0
C1229 C 0.69866 0.43372 0.02221 0.0
C1230 C 0.67116 0.37664 0.98216 0.0
C1231 C 0.63718 0.40138 0.97014 0.0
N1232 N 0.60223 0.46658 0.97194 0.0
N1233 N 0.72479 0.36539 0.03215 0.0
C1234 C 0.63511 0.44302 0.98289 0.0
C1235 C 0.69905 0.39163 0.01196 0.0
N1236 N 0.67039 0.50128 0.01315 0.0
N1237 N 0.67758 0.33904 0.965 0.0
H1238 H 0.74522 0.37493 0.0548 0.0
H1239 H 0.72299 0.33361 0.02948 0.0
H1240 H 0.65849 0.32584 0.94329 0.0
H1241 H 0.70445 0.32235 0.96937 0.0
H1242 H 0.65141 0.52272 -0.0009 0.0
H1243 H 0.69378 0.51472 0.03036 0.0
H1244 H 0.59606 0.49512 0.98468 0.0
H1245 H 0.57995 0.45696 0.95114 0.0
C1246 C 0.092 0.69143 0.00517 0.0
C1247 C 0.10066 0.68994 0.04758 0.0
C1248 C 0.13147 0.62271 0.03783 0.0
C1249 C 0.13067 0.62784 0.99451 0.0
N1250 N 0.12131 0.67826 0.93938 0.0
N1251 N 0.14097 0.65886 0.10142 0.0
C1252 C 0.11389 0.6652 0.97847 0.0
C1253 C 0.12443 0.65716 0.06309 0.0
N1254 N 0.06329 0.71785 0.99006 0.0
N1255 N 0.13664 0.58503 0.05533 0.0
H1256 H 0.13785 0.68442 0.12028 0.0
H1257 H 0.16093 0.63643 0.11244 0.0
H1258 H 0.13589 0.55793 0.03854 0.0
H1259 H 0.13525 0.58055 0.08694 0.0
H1260 H 0.05405 0.71741 0.95948 0.0
H1261 H 0.04581 0.73688 0.00875 0.0
H1262 H 0.1111 0.70659 0.9286 0.0
H1263 H 0.14278 0.66528 0.91991 0.0
loop_
_geom_bond_atom_site_label_1
_geom_bond_atom_site_label_2
_geom_bond_distance
_geom_bond_site_symmetry_2
_ccdc_geom_bond_type
Co0 O3 1.970 . S
Co0 N17 1.989 . S
Co0 O25 1.967 . S
Co0 O32 1.920 . S
Co1 O4 1.966 . S
Co1 N10 2.022 . S
Co1 N18 1.993 . S
Co1 O26 1.941 . S
C2 O3 1.258 . S
C2 O4 1.263 . S
O3 Co0 1.970 . S
O3 C2 1.258 . S
O4 Co1 1.966 . S
O4 C2 1.263 . S
C5 O6 1.235 . S
C5 O32 1.289 . S
O6 C5 1.235 . S
C7 C9 1.400 . S
C7 N10 1.351 . S
C7 C12 1.501 . S
C8 C9 1.387 . S
C8 N11 1.341 . S
C9 C7 1.400 . S
C9 C8 1.387 . S
N10 Co1 2.022 . S
N10 C7 1.351 . S
N10 N11 1.365 . S
N11 C8 1.341 . S
N11 N10 1.365 . S
N11 H31 0.862 . S
C12 C7 1.501 . S
C12 H13 0.961 . S
C12 H14 0.961 . S
C12 H15 0.960 . S
H13 C12 0.961 . S
H14 C12 0.961 . S
H15 C12 0.960 . S
C16 N17 1.342 . S
C16 C20 1.401 . S
C16 C21 1.499 . S
N17 Co0 1.989 . S
N17 C16 1.342 . S
N17 N18 1.388 . S
N18 Co1 1.993 . S
N18 N17 1.388 . S
N18 C19 1.346 . S
C19 N18 1.346 . S
C19 C20 1.396 . S
C19 C29 1.510 . S
C20 C16 1.401 . S
C20 C19 1.396 . S
C21 C16 1.499 . S
C21 H22 0.959 . S
C21 H23 0.960 . S
C21 H24 0.961 . S
H22 C21 0.959 . S
H23 C21 0.960 . S
H24 C21 0.961 . S
O25 Co0 1.967 . S
O25 C33 1.258 . S
O26 Co1 1.941 . S
O26 C33 1.266 . S
H27 C29 0.959 . S
H28 C29 0.961 . S
C29 C19 1.510 . S
C29 H27 0.959 . S
C29 H28 0.961 . S
C29 H30 0.960 . S
H30 C29 0.960 . S
H31 N11 0.862 . S
O32 Co0 1.920 . S
O32 C5 1.289 . S
C33 O25 1.258 . S
C33 O26 1.266 . S
Co34 O37 1.970 . S
Co34 N51 1.989 . S
Co34 O59 1.967 . S
Co34 O66 1.920 . S
Co35 O38 1.966 . S
Co35 N44 2.022 . S
Co35 N52 1.993 . S
Co35 O60 1.941 . S
C36 O37 1.258 . S
C36 O38 1.263 . S
O37 Co34 1.970 . S
O37 C36 1.258 . S
O38 Co35 1.966 . S
O38 C36 1.263 . S
C39 O40 1.235 . S
C39 O66 1.289 . S
O40 C39 1.235 . S
C41 C43 1.400 . S
C41 N44 1.351 . S
C41 C46 1.501 . S
C42 C43 1.387 . S
C42 N45 1.341 . S
C43 C41 1.400 . S
C43 C42 1.387 . S
N44 Co35 2.022 . S
N44 C41 1.351 . S
N44 N45 1.365 . S
N45 C42 1.341 . S
N45 N44 1.365 . S
N45 H65 0.862 . S
C46 C41 1.501 . S
C46 H47 0.961 . S
C46 H48 0.961 . S
C46 H49 0.960 . S
H47 C46 0.961 . S
H48 C46 0.961 . S
H49 C46 0.960 . S
C50 N51 1.342 . S
C50 C54 1.401 . S
C50 C55 1.499 . S
N51 Co34 1.989 . S
N51 C50 1.342 . S
N51 N52 1.388 . S
N52 Co35 1.993 . S
N52 N51 1.388 . S
N52 C53 1.346 . S
C53 N52 1.346 . S
C53 C54 1.396 . S
C53 C63 1.510 . S
C54 C50 1.401 . S
C54 C53 1.396 . S
C55 C50 1.499 . S
C55 H56 0.959 . S
C55 H57 0.960 . S
C55 H58 0.961 . S
H56 C55 0.959 . S
H57 C55 0.960 . S
H58 C55 0.961 . S
O59 Co34 1.967 . S
O59 C67 1.258 . S
O60 Co35 1.941 . S
O60 C67 1.266 . S
H61 C63 0.959 . S
H62 C63 0.961 . S
C63 C53 1.510 . S
C63 H61 0.959 . S
C63 H62 0.961 . S
C63 H64 0.960 . S
H64 C63 0.960 . S
H65 N45 0.862 . S
O66 Co34 1.920 . S
O66 C39 1.289 . S
C67 O59 1.258 . S
C67 O60 1.266 . S
Co68 O71 1.970 . S
Co68 N85 1.989 . S
Co68 O93 1.967 . S
Co68 O100 1.920 . S
Co69 O72 1.966 1_655 S
Co69 N78 2.022 1_655 S
Co69 N86 1.993 . S
Co69 O94 1.941 . S
C70 O71 1.258 1_455 S
C70 O72 1.263 . S
O71 Co68 1.970 . S
O71 C70 1.258 1_655 S
O72 Co69 1.966 1_455 S
O72 C70 1.263 . S
C73 O74 1.235 . S
C73 O100 1.289 . S
O74 C73 1.235 . S
C75 C77 1.400 . S
C75 N78 1.351 . S
C75 C80 1.501 . S
C76 C77 1.387 . S
C76 N79 1.354 . S
C77 C75 1.400 . S
C77 C76 1.387 . S
N78 Co69 2.022 1_455 S
N78 C75 1.351 . S
N78 N79 1.374 . S
N79 C76 1.354 . S
N79 N78 1.374 . S
N79 H99 0.843 1_455 S
C80 C75 1.501 . S
C80 H81 0.961 . S
C80 H82 0.961 . S
C80 H83 0.960 . S
H81 C80 0.961 . S
H82 C80 0.961 . S
H83 C80 0.960 . S
C84 N85 1.342 . S
C84 C88 1.401 . S
C84 C89 1.499 . S
N85 Co68 1.989 . S
N85 C84 1.342 . S
N85 N86 1.388 . S
N86 Co69 1.993 . S
N86 N85 1.388 . S
N86 C87 1.346 . S
C87 N86 1.346 . S
C87 C88 1.396 . S
C87 C97 1.510 . S
C88 C84 1.401 . S
C88 C87 1.396 . S
C89 C84 1.499 . S
C89 H90 0.959 . S
C89 H91 0.960 . S
C89 H92 0.961 . S
H90 C89 0.959 . S
H91 C89 0.960 . S
H92 C89 0.961 . S
O93 Co68 1.967 . S
O93 C101 1.258 . S
O94 Co69 1.941 . S
O94 C101 1.266 . S
H95 C97 0.959 . S
H96 C97 0.961 . S
C97 C87 1.510 . S
C97 H95 0.959 . S
C97 H96 0.961 . S
C97 H98 0.960 . S
H98 C97 0.960 . S
H99 N79 0.843 1_655 S
O100 Co68 1.920 . S
O100 C73 1.289 . S
C101 O93 1.258 . S
C101 O94 1.266 . S
Co102 O105 1.970 . S
Co102 N119 1.989 . S
Co102 O127 1.967 . S
Co102 O134 1.920 . S
Co103 O106 1.966 1_565 S
Co103 N112 2.022 1_565 S
Co103 N120 1.993 . S
Co103 O128 1.941 . S
C104 O105 1.258 1_545 S
C104 O106 1.263 . S
O105 Co102 1.970 . S
O105 C104 1.258 1_565 S
O106 Co103 1.966 1_545 S
O106 C104 1.263 . S
C107 O108 1.235 . S
C107 O134 1.289 . S
O108 C107 1.235 . S
C109 C111 1.400 . S
C109 N112 1.351 . S
C109 C114 1.501 . S
C110 C111 1.387 . S
C110 N113 1.354 . S
C111 C109 1.400 . S
C111 C110 1.387 . S
N112 Co103 2.022 1_545 S
N112 C109 1.351 . S
N112 N113 1.374 . S
N113 C110 1.354 . S
N113 N112 1.374 . S
N113 H133 0.843 1_545 S
C114 C109 1.501 . S
C114 H115 0.961 . S
C114 H116 0.961 . S
C114 H117 0.960 . S
H115 C114 0.961 . S
H116 C114 0.961 . S
H117 C114 0.960 . S
C118 N119 1.342 . S
C118 C122 1.401 . S
C118 C123 1.499 . S
N119 Co102 1.989 . S
N119 C118 1.342 . S
N119 N120 1.388 . S
N120 Co103 1.993 . S
N120 N119 1.388 . S
N120 C121 1.346 . S
C121 N120 1.346 . S
C121 C122 1.396 . S
C121 C131 1.510 . S
C122 C118 1.401 . S
C122 C121 1.396 . S
C123 C118 1.499 . S
C123 H124 0.959 . S
C123 H125 0.960 . S
C123 H126 0.961 . S
H124 C123 0.959 . S
H125 C123 0.960 . S
H126 C123 0.961 . S
O127 Co102 1.967 . S
O127 C135 1.258 . S
O128 Co103 1.941 . S
O128 C135 1.266 . S
H129 C131 0.959 . S
H130 C131 0.961 . S
C131 C121 1.510 . S
C131 H129 0.959 . S
C131 H130 0.961 . S
C131 H132 0.960 . S
H132 C131 0.960 . S
H133 N113 0.843 1_565 S
O134 Co102 1.920 . S
O134 C107 1.289 . S
C135 O127 1.258 . S
C135 O128 1.266 . S
Co136 O139 1.970 . S
Co136 N153 1.989 . S
Co136 O161 1.967 . S
Co136 O168 1.920 . S
Co137 O140 1.966 1_455 S
Co137 N146 2.022 1_455 S
Co137 N154 1.993 . S
Co137 O162 1.941 . S
C138 O139 1.258 1_655 S
C138 O140 1.263 . S
O139 Co136 1.970 . S
O139 C138 1.258 1_455 S
O140 Co137 1.966 1_655 S
O140 C138 1.263 . S
C141 O142 1.235 . S
C141 O168 1.289 . S
O142 C141 1.235 . S
C143 C145 1.400 . S
C143 N146 1.351 . S
C143 C148 1.501 . S
C144 C145 1.387 . S
C144 N147 1.354 . S
C145 C143 1.400 . S
C145 C144 1.387 . S
N146 Co137 2.022 1_655 S
N146 C143 1.351 . S
N146 N147 1.374 . S
N147 C144 1.354 . S
N147 N146 1.374 . S
N147 H167 0.843 1_655 S
C148 C143 1.501 . S
C148 H149 0.961 . S
C148 H150 0.961 . S
C148 H151 0.960 . S
H149 C148 0.961 . S
H150 C148 0.961 . S
H151 C148 0.960 . S
C152 N153 1.342 . S
C152 C156 1.401 . S
C152 C157 1.499 . S
N153 Co136 1.989 . S
N153 C152 1.342 . S
N153 N154 1.388 . S
N154 Co137 1.993 . S
N154 N153 1.388 . S
N154 C155 1.346 . S
C155 N154 1.346 . S
C155 C156 1.396 . S
C155 C165 1.510 . S
C156 C152 1.401 . S
C156 C155 1.396 . S
C157 C152 1.499 . S
C157 H158 0.959 . S
C157 H159 0.960 . S
C157 H160 0.961 . S
H158 C157 0.959 . S
H159 C157 0.960 . S
H160 C157 0.961 . S
O161 Co136 1.967 . S
O161 C169 1.258 . S
O162 Co137 1.941 . S
O162 C169 1.266 . S
H163 C165 0.959 . S
H164 C165 0.961 . S
C165 C155 1.510 . S
C165 H163 0.959 . S
C165 H164 0.961 . S
C165 H166 0.960 . S
H166 C165 0.960 . S
H167 N147 0.843 1_455 S
O168 Co136 1.920 . S
O168 C141 1.289 . S
C169 O161 1.258 . S
C169 O162 1.266 . S
Co170 O173 1.970 . S
Co170 N187 1.989 . S
Co170 O195 1.967 . S
Co170 O202 1.920 . S
Co171 O174 1.966 1_545 S
Co171 N180 2.022 1_545 S
Co171 N188 1.993 . S
Co171 O196 1.941 . S
C172 O173 1.258 1_565 S
C172 O174 1.263 . S
O173 Co170 1.970 . S
O173 C172 1.258 1_545 S
O174 Co171 1.966 1_565 S
O174 C172 1.263 . S
C175 O176 1.235 . S
C175 O202 1.289 . S
O176 C175 1.235 . S
C177 C179 1.400 . S
C177 N180 1.351 . S
C177 C182 1.501 . S
C178 C179 1.387 . S
C178 N181 1.354 . S
C179 C177 1.400 . S
C179 C178 1.387 . S
N180 Co171 2.022 1_565 S
N180 C177 1.351 . S
N180 N181 1.374 . S
N181 C178 1.354 . S
N181 N180 1.374 . S
N181 H201 0.843 1_565 S
C182 C177 1.501 . S
C182 H183 0.961 . S
C182 H184 0.961 . S
C182 H185 0.960 . S
H183 C182 0.961 . S
H184 C182 0.961 . S
H185 C182 0.960 . S
C186 N187 1.342 . S
C186 C190 1.401 . S
C186 C191 1.499 . S
N187 Co170 1.989 . S
N187 C186 1.342 . S
N187 N188 1.388 . S
N188 Co171 1.993 . S
N188 N187 1.388 . S
N188 C189 1.346 . S
C189 N188 1.346 . S
C189 C190 1.396 . S
C189 C199 1.510 . S
C190 C186 1.401 . S
C190 C189 1.396 . S
C191 C186 1.499 . S
C191 H192 0.959 . S
C191 H193 0.960 . S
C191 H194 0.961 . S
H192 C191 0.959 . S
H193 C191 0.960 . S
H194 C191 0.961 . S
O195 Co170 1.967 . S
O195 C203 1.258 . S
O196 Co171 1.941 . S
O196 C203 1.266 . S
H197 C199 0.959 . S
H198 C199 0.961 . S
C199 C189 1.510 . S
C199 H197 0.959 . S
C199 H198 0.961 . S
C199 H200 0.960 . S
H200 C199 0.960 . S
H201 N181 0.843 1_545 S
O202 Co170 1.920 . S
O202 C175 1.289 . S
C203 O195 1.258 . S
C203 O196 1.266 . S
Co204 O207 1.970 . S
Co204 N221 1.989 . S
Co204 O229 1.967 . S
Co204 O236 1.920 . S
Co205 O208 1.966 . S
Co205 N214 2.022 . S
Co205 N222 1.993 . S
Co205 O230 1.941 . S
C206 O207 1.258 . S
C206 O208 1.263 . S
O207 Co204 1.970 . S
O207 C206 1.258 . S
O208 Co205 1.966 . S
O208 C206 1.263 . S
C209 O210 1.235 . S
C209 O236 1.289 . S
O210 C209 1.235 . S
C211 C213 1.400 . S
C211 N214 1.351 . S
C211 C216 1.501 . S
C212 C213 1.387 . S
C212 N215 1.341 . S
C213 C211 1.400 . S
C213 C212 1.387 . S
N214 Co205 2.022 . S
N214 C211 1.351 . S
N214 N215 1.365 . S
N215 C212 1.341 . S
N215 N214 1.365 . S
N215 H235 0.862 . S
C216 C211 1.501 . S
C216 H217 0.961 . S
C216 H218 0.961 . S
C216 H219 0.960 . S
H217 C216 0.961 . S
H218 C216 0.961 . S
H219 C216 0.960 . S
C220 N221 1.342 . S
C220 C224 1.401 . S
C220 C225 1.499 . S
N221 Co204 1.989 . S
N221 C220 1.342 . S
N221 N222 1.388 . S
N222 Co205 1.993 . S
N222 N221 1.388 . S
N222 C223 1.346 . S
C223 N222 1.346 . S
C223 C224 1.396 . S
C223 C233 1.510 . S
C224 C220 1.401 . S
C224 C223 1.396 . S
C225 C220 1.499 . S
C225 H226 0.959 . S
C225 H227 0.960 . S
C225 H228 0.961 . S
H226 C225 0.959 . S
H227 C225 0.960 . S
H228 C225 0.961 . S
O229 Co204 1.967 . S
O229 C237 1.258 . S
O230 Co205 1.941 . S
O230 C237 1.266 . S
H231 C233 0.959 . S
H232 C233 0.961 . S
C233 C223 1.510 . S
C233 H231 0.959 . S
C233 H232 0.961 . S
C233 H234 0.960 . S
H234 C233 0.960 . S
H235 N215 0.862 . S
O236 Co204 1.920 . S
O236 C209 1.289 . S
C237 O229 1.258 . S
C237 O230 1.266 . S
Co238 O241 1.970 . S
Co238 N255 1.989 . S
Co238 O263 1.967 . S
Co238 O270 1.920 . S
Co239 O242 1.966 . S
Co239 N248 2.022 . S
Co239 N256 1.993 . S
Co239 O264 1.941 . S
C240 O241 1.258 . S
C240 O242 1.263 . S
O241 Co238 1.970 . S
O241 C240 1.258 . S
O242 Co239 1.966 . S
O242 C240 1.263 . S
C243 O244 1.235 . S
C243 O270 1.289 . S
O244 C243 1.235 . S
C245 C247 1.400 . S
C245 N248 1.351 . S
C245 C250 1.501 . S
C246 C247 1.387 . S
C246 N249 1.341 . S
C247 C245 1.400 . S
C247 C246 1.387 . S
N248 Co239 2.022 . S
N248 C245 1.351 . S
N248 N249 1.365 . S
N249 C246 1.341 . S
N249 N248 1.365 . S
N249 H269 0.862 . S
C250 C245 1.501 . S
C250 H251 0.961 . S
C250 H252 0.961 . S
C250 H253 0.960 . S
H251 C250 0.961 . S
H252 C250 0.961 . S
H253 C250 0.960 . S
C254 N255 1.342 . S
C254 C258 1.401 . S
C254 C259 1.499 . S
N255 Co238 1.989 . S
N255 C254 1.342 . S
N255 N256 1.388 . S
N256 Co239 1.993 . S
N256 N255 1.388 . S
N256 C257 1.346 . S
C257 N256 1.346 . S
C257 C258 1.396 . S
C257 C267 1.510 . S
C258 C254 1.401 . S
C258 C257 1.396 . S
C259 C254 1.499 . S
C259 H260 0.959 . S
C259 H261 0.960 . S
C259 H262 0.961 . S
H260 C259 0.959 . S
H261 C259 0.960 . S
H262 C259 0.961 . S
O263 Co238 1.967 . S
O263 C271 1.258 . S
O264 Co239 1.941 . S
O264 C271 1.266 . S
H265 C267 0.959 . S
H266 C267 0.961 . S
C267 C257 1.510 . S
C267 H265 0.959 . S
C267 H266 0.961 . S
C267 H268 0.960 . S
H268 C267 0.960 . S
H269 N249 0.862 . S
O270 Co238 1.920 . S
O270 C243 1.289 . S
C271 O263 1.258 . S
C271 O264 1.266 . S
Co272 O275 1.970 . S
Co272 N289 1.989 . S
Co272 O297 1.967 . S
Co272 O304 1.920 . S
Co273 O276 1.966 . S
Co273 N282 2.022 . S
Co273 N290 1.993 . S
Co273 O298 1.941 . S
C274 O275 1.258 . S
C274 O276 1.263 . S
O275 Co272 1.970 . S
O275 C274 1.258 . S
O276 Co273 1.966 . S
O276 C274 1.263 . S
C277 O278 1.235 . S
C277 O304 1.289 . S
O278 C277 1.235 . S
C279 C281 1.400 . S
C279 N282 1.351 . S
C279 C284 1.501 . S
C280 C281 1.387 . S
C280 N283 1.341 . S
C281 C279 1.400 . S
C281 C280 1.387 . S
N282 Co273 2.022 . S
N282 C279 1.351 . S
N282 N283 1.365 . S
N283 C280 1.341 . S
N283 N282 1.365 . S
N283 H303 0.862 . S
C284 C279 1.501 . S
C284 H285 0.961 . S
C284 H286 0.961 . S
C284 H287 0.960 . S
H285 C284 0.961 . S
H286 C284 0.961 . S
H287 C284 0.960 . S
C288 N289 1.342 . S
C288 C292 1.401 . S
C288 C293 1.499 . S
N289 Co272 1.989 . S
N289 C288 1.342 . S
N289 N290 1.388 . S
N290 Co273 1.993 . S
N290 N289 1.388 . S
N290 C291 1.346 . S
C291 N290 1.346 . S
C291 C292 1.396 . S
C291 C301 1.510 . S
C292 C288 1.401 . S
C292 C291 1.396 . S
C293 C288 1.499 . S
C293 H294 0.959 . S
C293 H295 0.960 . S
C293 H296 0.961 . S
H294 C293 0.959 . S
H295 C293 0.960 . S
H296 C293 0.961 . S
O297 Co272 1.967 . S
O297 C305 1.258 . S
O298 Co273 1.941 . S
O298 C305 1.266 . S
H299 C301 0.959 . S
H300 C301 0.961 . S
C301 C291 1.510 . S
C301 H299 0.959 . S
C301 H300 0.961 . S
C301 H302 0.960 . S
H302 C301 0.960 . S
H303 N283 0.862 . S
O304 Co272 1.920 . S
O304 C277 1.289 . S
C305 O297 1.258 . S
C305 O298 1.266 . S
Co306 O309 1.970 . S
Co306 N323 1.989 . S
Co306 O331 1.967 . S
Co306 O338 1.920 . S
Co307 O310 1.966 . S
Co307 N316 2.022 . S
Co307 N324 1.993 . S
Co307 O332 1.941 . S
C308 O309 1.258 . S
C308 O310 1.263 . S
O309 Co306 1.970 . S
O309 C308 1.258 . S
O310 Co307 1.966 . S
O310 C308 1.263 . S
C311 O312 1.235 . S
C311 O338 1.289 . S
O312 C311 1.235 . S
C313 C315 1.400 . S
C313 N316 1.351 . S
C313 C318 1.501 . S
C314 C315 1.387 . S
C314 N317 1.341 . S
C315 C313 1.400 . S
C315 C314 1.387 . S
N316 Co307 2.022 . S
N316 C313 1.351 . S
N316 N317 1.365 . S
N317 C314 1.341 . S
N317 N316 1.365 . S
N317 H337 0.862 . S
C318 C313 1.501 . S
C318 H319 0.961 . S
C318 H320 0.961 . S
C318 H321 0.960 . S
H319 C318 0.961 . S
H320 C318 0.961 . S
H321 C318 0.960 . S
C322 N323 1.342 . S
C322 C326 1.401 . S
C322 C327 1.499 . S
N323 Co306 1.989 . S
N323 C322 1.342 . S
N323 N324 1.388 . S
N324 Co307 1.993 . S
N324 N323 1.388 . S
N324 C325 1.346 . S
C325 N324 1.346 . S
C325 C326 1.396 . S
C325 C335 1.510 . S
C326 C322 1.401 . S
C326 C325 1.396 . S
C327 C322 1.499 . S
C327 H328 0.959 . S
C327 H329 0.960 . S
C327 H330 0.961 . S
H328 C327 0.959 . S
H329 C327 0.960 . S
H330 C327 0.961 . S
O331 Co306 1.967 . S
O331 C339 1.258 . S
O332 Co307 1.941 . S
O332 C339 1.266 . S
H333 C335 0.959 . S
H334 C335 0.961 . S
C335 C325 1.510 . S
C335 H333 0.959 . S
C335 H334 0.961 . S
C335 H336 0.960 . S
H336 C335 0.960 . S
H337 N317 0.862 . S
O338 Co306 1.920 . S
O338 C311 1.289 . S
C339 O331 1.258 . S
C339 O332 1.266 . S
Co340 O343 1.970 . S
Co340 N357 1.989 . S
Co340 O365 1.967 . S
Co340 O372 1.920 . S
Co341 O344 1.966 1_455 S
Co341 N350 2.022 1_455 S
Co341 N358 1.993 . S
Co341 O366 1.941 . S
C342 O343 1.258 1_655 S
C342 O344 1.263 . S
O343 Co340 1.970 . S
O343 C342 1.258 1_455 S
O344 Co341 1.966 1_655 S
O344 C342 1.263 . S
C345 O346 1.235 . S
C345 O372 1.289 . S
O346 C345 1.235 . S
C347 C349 1.400 . S
C347 N350 1.351 . S
C347 C352 1.501 . S
C348 C349 1.387 . S
C348 N351 1.354 . S
C349 C347 1.400 . S
C349 C348 1.387 . S
N350 Co341 2.022 1_655 S
N350 C347 1.351 . S
N350 N351 1.374 . S
N351 C348 1.354 . S
N351 N350 1.374 . S
N351 H371 0.843 1_655 S
C352 C347 1.501 . S
C352 H353 0.961 . S
C352 H354 0.961 . S
C352 H355 0.960 . S
H353 C352 0.961 . S
H354 C352 0.961 . S
H355 C352 0.960 . S
C356 N357 1.342 . S
C356 C360 1.401 . S
C356 C361 1.499 . S
N357 Co340 1.989 . S
N357 C356 1.342 . S
N357 N358 1.388 . S
N358 Co341 1.993 . S
N358 N357 1.388 . S
N358 C359 1.346 . S
C359 N358 1.346 . S
C359 C360 1.396 . S
C359 C369 1.510 . S
C360 C356 1.401 . S
C360 C359 1.396 . S
C361 C356 1.499 . S
C361 H362 0.959 . S
C361 H363 0.960 . S
C361 H364 0.961 . S
H362 C361 0.959 . S
H363 C361 0.960 . S
H364 C361 0.961 . S
O365 Co340 1.967 . S
O365 C373 1.258 . S
O366 Co341 1.941 . S
O366 C373 1.266 . S
H367 C369 0.959 . S
H368 C369 0.961 . S
C369 C359 1.510 . S
C369 H367 0.959 . S
C369 H368 0.961 . S
C369 H370 0.960 . S
H370 C369 0.960 . S
H371 N351 0.843 1_455 S
O372 Co340 1.920 . S
O372 C345 1.289 . S
C373 O365 1.258 . S
C373 O366 1.266 . S
Co374 O377 1.970 . S
Co374 N391 1.989 . S
Co374 O399 1.967 . S
Co374 O406 1.920 . S
Co375 O378 1.966 1_545 S
Co375 N384 2.022 1_545 S
Co375 N392 1.993 . S
Co375 O400 1.941 . S
C376 O377 1.258 1_565 S
C376 O378 1.263 . S
O377 Co374 1.970 . S
O377 C376 1.258 1_545 S
O378 Co375 1.966 1_565 S
O378 C376 1.263 . S
C379 O380 1.235 . S
C379 O406 1.289 . S
O380 C379 1.235 . S
C381 C383 1.400 . S
C381 N384 1.351 . S
C381 C386 1.501 . S
C382 C383 1.387 . S
C382 N385 1.354 . S
C383 C381 1.400 . S
C383 C382 1.387 . S
N384 Co375 2.022 1_565 S
N384 C381 1.351 . S
N384 N385 1.374 . S
N385 C382 1.354 . S
N385 N384 1.374 . S
N385 H405 0.843 1_565 S
C386 C381 1.501 . S
C386 H387 0.961 . S
C386 H388 0.961 . S
C386 H389 0.960 . S
H387 C386 0.961 . S
H388 C386 0.961 . S
H389 C386 0.960 . S
C390 N391 1.342 . S
C390 C394 1.401 . S
C390 C395 1.499 . S
N391 Co374 1.989 . S
N391 C390 1.342 . S
N391 N392 1.388 . S
N392 Co375 1.993 . S
N392 N391 1.388 . S
N392 C393 1.346 . S
C393 N392 1.346 . S
C393 C394 1.396 . S
C393 C403 1.510 . S
C394 C390 1.401 . S
C394 C393 1.396 . S
C395 C390 1.499 . S
C395 H396 0.959 . S
C395 H397 0.960 . S
C395 H398 0.961 . S
H396 C395 0.959 . S
H397 C395 0.960 . S
H398 C395 0.961 . S
O399 Co374 1.967 . S
O399 C407 1.258 . S
O400 Co375 1.941 . S
O400 C407 1.266 . S
H401 C403 0.959 . S
H402 C403 0.961 . S
C403 C393 1.510 . S
C403 H401 0.959 . S
C403 H402 0.961 . S
C403 H404 0.960 . S
H404 C403 0.960 . S
H405 N385 0.843 1_545 S
O406 Co374 1.920 . S
O406 C379 1.289 . S
C407 O399 1.258 . S
C407 O400 1.266 . S
Co408 O411 1.970 . S
Co408 N425 1.989 . S
Co408 O433 1.967 . S
Co408 O440 1.920 . S
Co409 O412 1.966 1_655 S
Co409 N418 2.022 1_655 S
Co409 N426 1.993 . S
Co409 O434 1.941 . S
C410 O411 1.258 1_455 S
C410 O412 1.263 . S
O411 Co408 1.970 . S
O411 C410 1.258 1_655 S
O412 Co409 1.966 1_455 S
O412 C410 1.263 . S
C413 O414 1.235 . S
C413 O440 1.289 . S
O414 C413 1.235 . S
C415 C417 1.400 . S
C415 N418 1.351 . S
C415 C420 1.501 . S
C416 C417 1.387 . S
C416 N419 1.354 . S
C417 C415 1.400 . S
C417 C416 1.387 . S
N418 Co409 2.022 1_455 S
N418 C415 1.351 . S
N418 N419 1.374 . S
N419 C416 1.354 . S
N419 N418 1.374 . S
N419 H439 0.843 1_455 S
C420 C415 1.501 . S
C420 H421 0.961 . S
C420 H422 0.961 . S
C420 H423 0.960 . S
H421 C420 0.961 . S
H422 C420 0.961 . S
H423 C420 0.960 . S
C424 N425 1.342 . S
C424 C428 1.401 . S
C424 C429 1.499 . S
N425 Co408 1.989 . S
N425 C424 1.342 . S
N425 N426 1.388 . S
N426 Co409 1.993 . S
N426 N425 1.388 . S
N426 C427 1.346 . S
C427 N426 1.346 . S
C427 C428 1.396 . S
C427 C437 1.510 . S
C428 C424 1.401 . S
C428 C427 1.396 . S
C429 C424 1.499 . S
C429 H430 0.959 . S
C429 H431 0.960 . S
C429 H432 0.961 . S
H430 C429 0.959 . S
H431 C429 0.960 . S
H432 C429 0.961 . S
O433 Co408 1.967 . S
O433 C441 1.258 . S
O434 Co409 1.941 . S
O434 C441 1.266 . S
H435 C437 0.959 . S
H436 C437 0.961 . S
C437 C427 1.510 . S
C437 H435 0.959 . S
C437 H436 0.961 . S
C437 H438 0.960 . S
H438 C437 0.960 . S
H439 N419 0.843 1_655 S
O440 Co408 1.920 . S
O440 C413 1.289 . S
C441 O433 1.258 . S
C441 O434 1.266 . S
Co442 O445 1.970 . S
Co442 N459 1.989 . S
Co442 O467 1.967 . S
Co442 O474 1.920 . S
Co443 O446 1.966 1_565 S
Co443 N452 2.022 1_565 S
Co443 N460 1.993 . S
Co443 O468 1.941 . S
C444 O445 1.258 1_545 S
C444 O446 1.263 . S
O445 Co442 1.970 . S
O445 C444 1.258 1_565 S
O446 Co443 1.966 1_545 S
O446 C444 1.263 . S
C447 O448 1.235 . S
C447 O474 1.289 . S
O448 C447 1.235 . S
C449 C451 1.400 . S
C449 N452 1.351 . S
C449 C454 1.501 . S
C450 C451 1.387 . S
C450 N453 1.354 . S
C451 C449 1.400 . S
C451 C450 1.387 . S
N452 Co443 2.022 1_545 S
N452 C449 1.351 . S
N452 N453 1.374 . S
N453 C450 1.354 . S
N453 N452 1.374 . S
N453 H473 0.843 1_545 S
C454 C449 1.501 . S
C454 H455 0.961 . S
C454 H456 0.961 . S
C454 H457 0.960 . S
H455 C454 0.961 . S
H456 C454 0.961 . S
H457 C454 0.960 . S
C458 N459 1.342 . S
C458 C462 1.401 . S
C458 C463 1.499 . S
N459 Co442 1.989 . S
N459 C458 1.342 . S
N459 N460 1.388 . S
N460 Co443 1.993 . S
N460 N459 1.388 . S
N460 C461 1.346 . S
C461 N460 1.346 . S
C461 C462 1.396 . S
C461 C471 1.510 . S
C462 C458 1.401 . S
C462 C461 1.396 . S
C463 C458 1.499 . S
C463 H464 0.959 . S
C463 H465 0.960 . S
C463 H466 0.961 . S
H464 C463 0.959 . S
H465 C463 0.960 . S
H466 C463 0.961 . S
O467 Co442 1.967 . S
O467 C475 1.258 . S
O468 Co443 1.941 . S
O468 C475 1.266 . S
H469 C471 0.959 . S
H470 C471 0.961 . S
C471 C461 1.510 . S
C471 H469 0.959 . S
C471 H470 0.961 . S
C471 H472 0.960 . S
H472 C471 0.960 . S
H473 N453 0.843 1_565 S
O474 Co442 1.920 . S
O474 C447 1.289 . S
C475 O467 1.258 . S
C475 O468 1.266 . S
Co476 O479 1.970 . S
Co476 N493 1.989 . S
Co476 O501 1.967 . S
Co476 O508 1.920 . S
Co477 O480 1.966 . S
Co477 N486 2.022 . S
Co477 N494 1.993 . S
Co477 O502 1.941 . S
C478 O479 1.258 . S
C478 O480 1.263 . S
O479 Co476 1.970 . S
O479 C478 1.258 . S
O480 Co477 1.966 . S
O480 C478 1.263 . S
C481 O482 1.235 . S
C481 O508 1.289 . S
O482 C481 1.235 . S
C483 C485 1.400 . S
C483 N486 1.351 . S
C483 C488 1.501 . S
C484 C485 1.387 . S
C484 N487 1.341 . S
C485 C483 1.400 . S
C485 C484 1.387 . S
N486 Co477 2.022 . S
N486 C483 1.351 . S
N486 N487 1.365 . S
N487 C484 1.341 . S
N487 N486 1.365 . S
N487 H507 0.862 . S
C488 C483 1.501 . S
C488 H489 0.961 . S
C488 H490 0.961 . S
C488 H491 0.960 . S
H489 C488 0.961 . S
H490 C488 0.961 . S
H491 C488 0.960 . S
C492 N493 1.342 . S
C492 C496 1.401 . S
C492 C497 1.499 . S
N493 Co476 1.989 . S
N493 C492 1.342 . S
N493 N494 1.388 . S
N494 Co477 1.993 . S
N494 N493 1.388 . S
N494 C495 1.346 . S
C495 N494 1.346 . S
C495 C496 1.396 . S
C495 C505 1.510 . S
C496 C492 1.401 . S
C496 C495 1.396 . S
C497 C492 1.499 . S
C497 H498 0.959 . S
C497 H499 0.960 . S
C497 H500 0.961 . S
H498 C497 0.959 . S
H499 C497 0.960 . S
H500 C497 0.961 . S
O501 Co476 1.967 . S
O501 C509 1.258 . S
O502 Co477 1.941 . S
O502 C509 1.266 . S
H503 C505 0.959 . S
H504 C505 0.961 . S
C505 C495 1.510 . S
C505 H503 0.959 . S
C505 H504 0.961 . S
C505 H506 0.960 . S
H506 C505 0.960 . S
H507 N487 0.862 . S
O508 Co476 1.920 . S
O508 C481 1.289 . S
C509 O501 1.258 . S
C509 O502 1.266 . S
Co510 O513 1.970 . S
Co510 N527 1.989 . S
Co510 O535 1.967 . S
Co510 O542 1.920 . S
Co511 O514 1.966 . S
Co511 N520 2.022 . S
Co511 N528 1.993 . S
Co511 O536 1.941 . S
C512 O513 1.258 . S
C512 O514 1.263 . S
O513 Co510 1.970 . S
O513 C512 1.258 . S
O514 Co511 1.966 . S
O514 C512 1.263 . S
C515 O516 1.235 . S
C515 O542 1.289 . S
O516 C515 1.235 . S
C517 C519 1.400 . S
C517 N520 1.351 . S
C517 C522 1.501 . S
C518 C519 1.387 . S
C518 N521 1.341 . S
C519 C517 1.400 . S
C519 C518 1.387 . S
N520 Co511 2.022 . S
N520 C517 1.351 . S
N520 N521 1.365 . S
N521 C518 1.341 . S
N521 N520 1.365 . S
N521 H541 0.862 . S
C522 C517 1.501 . S
C522 H523 0.961 . S
C522 H524 0.961 . S
C522 H525 0.960 . S
H523 C522 0.961 . S
H524 C522 0.961 . S
H525 C522 0.960 . S
C526 N527 1.342 . S
C526 C530 1.401 . S
C526 C531 1.499 . S
N527 Co510 1.989 . S
N527 C526 1.342 . S
N527 N528 1.388 . S
N528 Co511 1.993 . S
N528 N527 1.388 . S
N528 C529 1.346 . S
C529 N528 1.346 . S
C529 C530 1.396 . S
C529 C539 1.510 . S
C530 C526 1.401 . S
C530 C529 1.396 . S
C531 C526 1.499 . S
C531 H532 0.959 . S
C531 H533 0.960 . S
C531 H534 0.961 . S
H532 C531 0.959 . S
H533 C531 0.960 . S
H534 C531 0.961 . S
O535 Co510 1.967 . S
O535 C543 1.258 . S
O536 Co511 1.941 . S
O536 C543 1.266 . S
H537 C539 0.959 . S
H538 C539 0.961 . S
C539 C529 1.510 . S
C539 H537 0.959 . S
C539 H538 0.961 . S
C539 H540 0.960 . S
H540 C539 0.960 . S
H541 N521 0.862 . S
O542 Co510 1.920 . S
O542 C515 1.289 . S
C543 O535 1.258 . S
C543 O536 1.266 . S
C544 C545 1.363 . S
C544 C550 1.379 . S
C544 N552 1.356 . S
C545 C544 1.363 . S
C545 C551 1.363 . S
C546 C547 1.363 . S
C546 C551 1.379 . S
C546 N553 1.356 . S
C547 C546 1.363 . S
C547 C550 1.363 . S
N548 C550 1.356 . S
N548 H560 0.984 . S
N548 H561 0.985 . S
N549 C551 1.356 . S
N549 H554 0.984 . S
N549 H555 0.985 . S
C550 C544 1.379 . S
C550 C547 1.363 . S
C550 N548 1.356 . S
C551 C545 1.363 . S
C551 C546 1.379 . S
C551 N549 1.356 . S
N552 C544 1.356 . S
N552 H558 0.984 . S
N552 H559 0.984 . S
N553 C546 1.356 . S
N553 H556 0.984 . S
N553 H557 0.985 . S
H554 N549 0.984 . S
H555 N549 0.985 . S
H556 N553 0.984 . S
H557 N553 0.985 . S
H558 N552 0.984 . S
H559 N552 0.984 . S
H560 N548 0.984 . S
H561 N548 0.985 . S
C562 C563 1.363 . S
C562 C568 1.379 . S
C562 N570 1.356 . S
C563 C562 1.363 . S
C563 C569 1.363 . S
C564 C565 1.363 . S
C564 C569 1.379 . S
C564 N571 1.356 . S
C565 C564 1.363 . S
C565 C568 1.363 . S
N566 C568 1.356 . S
N566 H578 0.984 . S
N566 H579 0.985 . S
N567 C569 1.356 . S
N567 H572 0.984 . S
N567 H573 0.985 . S
C568 C562 1.379 . S
C568 C565 1.363 . S
C568 N566 1.356 . S
C569 C563 1.363 . S
C569 C564 1.379 . S
C569 N567 1.356 . S
N570 C562 1.356 . S
N570 H576 0.984 . S
N570 H577 0.984 . S
N571 C564 1.356 . S
N571 H574 0.984 . S
N571 H575 0.985 . S
H572 N567 0.984 . S
H573 N567 0.985 . S
H574 N571 0.984 . S
H575 N571 0.985 . S
H576 N570 0.984 . S
H577 N570 0.984 . S
H578 N566 0.984 . S
H579 N566 0.985 . S
C580 C581 1.363 . S
C580 C586 1.379 . S
C580 N588 1.356 . S
C581 C580 1.363 . S
C581 C587 1.363 . S
C582 C583 1.363 . S
C582 C587 1.379 . S
C582 N589 1.356 . S
C583 C582 1.363 . S
C583 C586 1.363 . S
N584 C586 1.356 . S
N584 H596 0.984 . S
N584 H597 0.985 . S
N585 C587 1.356 . S
N585 H590 0.984 . S
N585 H591 0.985 . S
C586 C580 1.379 . S
C586 C583 1.363 . S
C586 N584 1.356 . S
C587 C581 1.363 . S
C587 C582 1.379 . S
C587 N585 1.356 . S
N588 C580 1.356 . S
N588 H594 0.984 . S
N588 H595 0.984 . S
N589 C582 1.356 . S
N589 H592 0.984 . S
N589 H593 0.985 . S
H590 N585 0.984 . S
H591 N585 0.985 . S
H592 N589 0.984 . S
H593 N589 0.985 . S
H594 N588 0.984 . S
H595 N588 0.984 . S
H596 N584 0.984 . S
H597 N584 0.985 . S
C598 C599 1.363 . S
C598 C604 1.379 . S
C598 N606 1.356 . S
C599 C598 1.363 . S
C599 C605 1.363 . S
C600 C601 1.363 . S
C600 C605 1.379 . S
C600 N607 1.356 . S
C601 C600 1.363 . S
C601 C604 1.363 . S
N602 C604 1.356 . S
N602 H614 0.984 . S
N602 H615 0.985 . S
N603 C605 1.356 . S
N603 H608 0.984 . S
N603 H609 0.985 . S
C604 C598 1.379 . S
C604 C601 1.363 . S
C604 N602 1.356 . S
C605 C599 1.363 . S
C605 C600 1.379 . S
C605 N603 1.356 . S
N606 C598 1.356 . S
N606 H612 0.984 . S
N606 H613 0.984 . S
N607 C600 1.356 . S
N607 H610 0.984 . S
N607 H611 0.985 . S
H608 N603 0.984 . S
H609 N603 0.985 . S
H610 N607 0.984 . S
H611 N607 0.985 . S
H612 N606 0.984 . S
H613 N606 0.984 . S
H614 N602 0.984 . S
H615 N602 0.985 . S
C616 C617 1.363 . S
C616 C622 1.379 . S
C616 N624 1.356 . S
C617 C616 1.363 . S
C617 C623 1.363 . S
C618 C619 1.363 . S
C618 C623 1.379 . S
C618 N625 1.356 . S
C619 C618 1.363 . S
C619 C622 1.363 . S
N620 C622 1.356 . S
N620 H632 0.984 . S
N620 H633 0.985 . S
N621 C623 1.356 . S
N621 H626 0.984 . S
N621 H627 0.985 . S
C622 C616 1.379 . S
C622 C619 1.363 . S
C622 N620 1.356 . S
C623 C617 1.363 . S
C623 C618 1.379 . S
C623 N621 1.356 . S
N624 C616 1.356 . S
N624 H630 0.984 . S
N624 H631 0.984 . S
N625 C618 1.356 . S
N625 H628 0.984 . S
N625 H629 0.985 . S
H626 N621 0.984 . S
H627 N621 0.985 . S
H628 N625 0.984 . S
H629 N625 0.985 . S
H630 N624 0.984 . S
H631 N624 0.984 . S
H632 N620 0.984 . S
H633 N620 0.985 . S
C634 C635 1.363 . S
C634 C640 1.379 . S
C634 N642 1.356 . S
C635 C634 1.363 . S
C635 C641 1.363 . S
C636 C637 1.363 . S
C636 C641 1.379 . S
C636 N643 1.356 . S
C637 C636 1.363 . S
C637 C640 1.363 . S
N638 C640 1.356 . S
N638 H650 0.984 1_565 S
N638 H651 0.985 1_565 S
N639 C641 1.356 . S
N639 H644 0.984 . S
N639 H645 0.985 . S
C640 C634 1.379 . S
C640 C637 1.363 . S
C640 N638 1.356 . S
C641 C635 1.363 . S
C641 C636 1.379 . S
C641 N639 1.356 . S
N642 C634 1.356 . S
N642 H648 0.984 . S
N642 H649 0.984 . S
N643 C636 1.356 . S
N643 H646 0.984 . S
N643 H647 0.985 . S
H644 N639 0.984 . S
H645 N639 0.985 . S
H646 N643 0.984 . S
H647 N643 0.985 . S
H648 N642 0.984 . S
H649 N642 0.984 . S
H650 N638 0.984 1_545 S
H651 N638 0.985 1_545 S
C652 C653 1.363 . S
C652 C658 1.379 . S
C652 N660 1.356 . S
C653 C652 1.363 . S
C653 C659 1.363 . S
C654 C655 1.363 . S
C654 C659 1.379 . S
C654 N661 1.356 . S
C655 C654 1.363 . S
C655 C658 1.363 . S
N656 C658 1.356 . S
N656 H668 0.984 . S
N656 H669 0.985 . S
N657 C659 1.356 . S
N657 H662 0.984 . S
N657 H663 0.985 . S
C658 C652 1.379 . S
C658 C655 1.363 . S
C658 N656 1.356 . S
C659 C653 1.363 . S
C659 C654 1.379 . S
C659 N657 1.356 . S
N660 C652 1.356 . S
N660 H666 0.984 . S
N660 H667 0.984 . S
N661 C654 1.356 . S
N661 H664 0.984 . S
N661 H665 0.985 . S
H662 N657 0.984 . S
H663 N657 0.985 . S
H664 N661 0.984 . S
H665 N661 0.985 . S
H666 N660 0.984 . S
H667 N660 0.984 . S
H668 N656 0.984 . S
H669 N656 0.985 . S
C670 C671 1.363 . S
C670 C676 1.379 . S
C670 N678 1.356 . S
C671 C670 1.363 . S
C671 C677 1.363 . S
C672 C673 1.363 . S
C672 C677 1.379 . S
C672 N679 1.356 . S
C673 C672 1.363 . S
C673 C676 1.363 . S
N674 C676 1.356 . S
N674 H686 0.984 . S
N674 H687 0.985 . S
N675 C677 1.356 . S
N675 H680 0.984 . S
N675 H681 0.985 . S
C676 C670 1.379 . S
C676 C673 1.363 . S
C676 N674 1.356 . S
C677 C671 1.363 . S
C677 C672 1.379 . S
C677 N675 1.356 . S
N678 C670 1.356 . S
N678 H684 0.984 . S
N678 H685 0.984 . S
N679 C672 1.356 . S
N679 H682 0.984 . S
N679 H683 0.985 . S
H680 N675 0.984 . S
H681 N675 0.985 . S
H682 N679 0.984 . S
H683 N679 0.985 . S
H684 N678 0.984 . S
H685 N678 0.984 . S
H686 N674 0.984 . S
H687 N674 0.985 . S
C688 C689 1.363 . S
C688 C694 1.379 . S
C688 N696 1.356 . S
C689 C688 1.363 . S
C689 C695 1.363 . S
C690 C691 1.363 . S
C690 C695 1.379 . S
C690 N697 1.356 . S
C691 C690 1.363 . S
C691 C694 1.363 . S
N692 C694 1.356 . S
N692 H704 0.984 . S
N692 H705 0.985 . S
N693 C695 1.356 . S
N693 H698 0.984 . S
N693 H699 0.985 . S
C694 C688 1.379 . S
C694 C691 1.363 . S
C694 N692 1.356 . S
C695 C689 1.363 . S
C695 C690 1.379 . S
C695 N693 1.356 . S
N696 C688 1.356 . S
N696 H702 0.984 . S
N696 H703 0.984 . S
N697 C690 1.356 . S
N697 H700 0.984 . S
N697 H701 0.985 . S
H698 N693 0.984 . S
H699 N693 0.985 . S
H700 N697 0.984 . S
H701 N697 0.985 . S
H702 N696 0.984 . S
H703 N696 0.984 . S
H704 N692 0.984 . S
H705 N692 0.985 . S
C706 C707 1.363 . S
C706 C712 1.379 . S
C706 N714 1.356 . S
C707 C706 1.363 . S
C707 C713 1.363 . S
C708 C709 1.363 . S
C708 C713 1.379 . S
C708 N715 1.356 . S
C709 C708 1.363 . S
C709 C712 1.363 . S
N710 C712 1.356 . S
N710 H722 0.984 . S
N710 H723 0.985 . S
N711 C713 1.356 . S
N711 H716 0.984 . S
N711 H717 0.985 . S
C712 C706 1.379 . S
C712 C709 1.363 . S
C712 N710 1.356 . S
C713 C707 1.363 . S
C713 C708 1.379 . S
C713 N711 1.356 . S
N714 C706 1.356 . S
N714 H720 0.984 . S
N714 H721 0.984 . S
N715 C708 1.356 . S
N715 H718 0.984 . S
N715 H719 0.985 . S
H716 N711 0.984 . S
H717 N711 0.985 . S
H718 N715 0.984 . S
H719 N715 0.985 . S
H720 N714 0.984 . S
H721 N714 0.984 . S
H722 N710 0.984 . S
H723 N710 0.985 . S
C724 C725 1.363 . S
C724 C730 1.379 . S
C724 N732 1.356 . S
C725 C724 1.363 . S
C725 C731 1.363 . S
C726 C727 1.363 . S
C726 C731 1.379 . S
C726 N733 1.356 . S
C727 C726 1.363 . S
C727 C730 1.363 . S
N728 C730 1.356 . S
N728 H740 0.984 . S
N728 H741 0.985 . S
N729 C731 1.356 . S
N729 H734 0.984 . S
N729 H735 0.985 . S
C730 C724 1.379 . S
C730 C727 1.363 . S
C730 N728 1.356 . S
C731 C725 1.363 . S
C731 C726 1.379 . S
C731 N729 1.356 . S
N732 C724 1.356 . S
N732 H738 0.984 . S
N732 H739 0.984 . S
N733 C726 1.356 . S
N733 H736 0.984 . S
N733 H737 0.985 . S
H734 N729 0.984 . S
H735 N729 0.985 . S
H736 N733 0.984 . S
H737 N733 0.985 . S
H738 N732 0.984 . S
H739 N732 0.984 . S
H740 N728 0.984 . S
H741 N728 0.985 . S
C742 C743 1.363 . S
C742 C748 1.379 . S
C742 N750 1.356 . S
C743 C742 1.363 . S
C743 C749 1.363 . S
C744 C745 1.363 . S
C744 C749 1.379 . S
C744 N751 1.356 . S
C745 C744 1.363 . S
C745 C748 1.363 . S
N746 C748 1.356 . S
N746 H758 0.984 . S
N746 H759 0.985 . S
N747 C749 1.356 . S
N747 H752 0.984 . S
N747 H753 0.985 . S
C748 C742 1.379 . S
C748 C745 1.363 . S
C748 N746 1.356 . S
C749 C743 1.363 . S
C749 C744 1.379 . S
C749 N747 1.356 . S
N750 C742 1.356 . S
N750 H756 0.984 . S
N750 H757 0.970 1_565 S
N751 C744 1.356 . S
N751 H754 0.984 . S
N751 H755 0.985 . S
H752 N747 0.984 . S
H753 N747 0.985 . S
H754 N751 0.984 . S
H755 N751 0.985 . S
H756 N750 0.984 . S
H757 N750 0.970 1_545 S
H758 N746 0.984 . S
H759 N746 0.985 . S
C760 C761 1.363 . S
C760 C766 1.379 . S
C760 N768 1.356 . S
C761 C760 1.363 . S
C761 C767 1.363 . S
C762 C763 1.363 . S
C762 C767 1.379 . S
C762 N769 1.356 . S
C763 C762 1.363 . S
C763 C766 1.363 . S
N764 C766 1.356 . S
N764 H776 0.984 . S
N764 H777 0.985 . S
N765 C767 1.356 . S
N765 H770 0.984 . S
N765 H771 0.985 . S
C766 C760 1.379 . S
C766 C763 1.363 . S
C766 N764 1.356 . S
C767 C761 1.363 . S
C767 C762 1.379 . S
C767 N765 1.356 . S
N768 C760 1.356 . S
N768 H774 0.984 . S
N768 H775 0.984 . S
N769 C762 1.356 . S
N769 H772 0.984 . S
N769 H773 0.985 . S
H770 N765 0.984 . S
H771 N765 0.985 . S
H772 N769 0.984 . S
H773 N769 0.985 . S
H774 N768 0.984 . S
H775 N768 0.984 . S
H776 N764 0.984 . S
H777 N764 0.985 . S
C778 C779 1.363 . S
C778 C784 1.379 . S
C778 N786 1.356 . S
C779 C778 1.363 . S
C779 C785 1.363 . S
C780 C781 1.363 . S
C780 C785 1.379 . S
C780 N787 1.356 . S
C781 C780 1.363 . S
C781 C784 1.363 . S
N782 C784 1.356 . S
N782 H794 0.984 . S
N782 H795 0.985 . S
N783 C785 1.356 . S
N783 H788 0.984 1_545 S
N783 H789 0.985 . S
C784 C778 1.379 . S
C784 C781 1.363 . S
C784 N782 1.356 . S
C785 C779 1.363 . S
C785 C780 1.379 . S
C785 N783 1.356 . S
N786 C778 1.356 . S
N786 H792 0.984 . S
N786 H793 0.984 . S
N787 C780 1.356 . S
N787 H790 0.984 . S
N787 H791 0.985 . S
H788 N783 0.984 1_565 S
H789 N783 0.985 . S
H790 N787 0.984 . S
H791 N787 0.985 . S
H792 N786 0.984 . S
H793 N786 0.984 . S
H794 N782 0.984 . S
H795 N782 0.985 . S
C796 C797 1.363 . S
C796 C802 1.379 . S
C796 N804 1.356 . S
C797 C796 1.363 . S
C797 C803 1.363 . S
C798 C799 1.363 . S
C798 C803 1.379 . S
C798 N805 1.356 . S
C799 C798 1.363 . S
C799 C802 1.363 . S
N800 C802 1.356 . S
N800 H812 0.984 . S
N800 H813 0.985 . S
N801 C803 1.356 . S
N801 H806 0.984 . S
N801 H807 0.985 . S
C802 C796 1.379 . S
C802 C799 1.363 . S
C802 N800 1.356 . S
C803 C797 1.363 . S
C803 C798 1.379 . S
C803 N801 1.356 . S
N804 C796 1.356 . S
N804 H810 0.984 . S
N804 H811 0.984 . S
N805 C798 1.356 . S
N805 H808 0.984 . S
N805 H809 0.985 . S
H806 N801 0.984 . S
H807 N801 0.985 . S
H808 N805 0.984 . S
H809 N805 0.985 . S
H810 N804 0.984 . S
H811 N804 0.984 . S
H812 N800 0.984 . S
H813 N800 0.985 . S
C814 C815 1.363 . S
C814 C820 1.379 . S
C814 N822 1.356 . S
C815 C814 1.363 . S
C815 C821 1.363 . S
C816 C817 1.363 . S
C816 C821 1.379 . S
C816 N823 1.356 . S
C817 C816 1.363 . S
C817 C820 1.363 . S
N818 C820 1.356 . S
N818 H830 0.984 . S
N818 H831 0.985 . S
N819 C821 1.356 . S
N819 H824 0.984 . S
N819 H825 0.985 . S
C820 C814 1.379 . S
C820 C817 1.363 . S
C820 N818 1.356 . S
C821 C815 1.363 . S
C821 C816 1.379 . S
C821 N819 1.356 . S
N822 C814 1.356 . S
N822 H828 0.984 . S
N822 H829 0.984 . S
N823 C816 1.356 . S
N823 H826 0.984 . S
N823 H827 0.985 . S
H824 N819 0.984 . S
H825 N819 0.985 . S
H826 N823 0.984 . S
H827 N823 0.985 . S
H828 N822 0.984 . S
H829 N822 0.984 . S
H830 N818 0.984 . S
H831 N818 0.985 . S
C832 C833 1.363 . S
C832 C838 1.379 . S
C832 N840 1.356 . S
C833 C832 1.363 . S
C833 C839 1.363 . S
C834 C835 1.363 . S
C834 C839 1.379 . S
C834 N841 1.356 . S
C835 C834 1.363 . S
C835 C838 1.363 . S
N836 C838 1.356 . S
N836 H848 0.984 . S
N836 H849 0.985 . S
N837 C839 1.356 . S
N837 H842 0.984 . S
N837 H843 0.985 . S
C838 C832 1.379 . S
C838 C835 1.363 . S
C838 N836 1.356 . S
C839 C833 1.363 . S
C839 C834 1.379 . S
C839 N837 1.356 . S
N840 C832 1.356 . S
N840 H846 0.984 . S
N840 H847 0.984 . S
N841 C834 1.356 . S
N841 H844 0.984 . S
N841 H845 0.985 . S
H842 N837 0.984 . S
H843 N837 0.985 . S
H844 N841 0.984 . S
H845 N841 0.985 . S
H846 N840 0.984 . S
H847 N840 0.984 . S
H848 N836 0.984 . S
H849 N836 0.985 . S
C850 C851 1.363 . S
C850 C856 1.379 . S
C850 N858 1.356 . S
C851 C850 1.363 . S
C851 C857 1.363 . S
C852 C853 1.363 . S
C852 C857 1.379 . S
C852 N859 1.356 . S
C853 C852 1.363 . S
C853 C856 1.363 . S
N854 C856 1.356 . S
N854 H866 0.984 . S
N854 H867 0.985 . S
N855 C857 1.356 . S
N855 H860 0.984 . S
N855 H861 0.985 . S
C856 C850 1.379 . S
C856 C853 1.363 . S
C856 N854 1.356 . S
C857 C851 1.363 . S
C857 C852 1.379 . S
C857 N855 1.356 . S
N858 C850 1.356 . S
N858 H864 0.984 . S
N858 H865 0.984 . S
N859 C852 1.356 . S
N859 H862 0.984 . S
N859 H863 0.985 . S
H860 N855 0.984 . S
H861 N855 0.985 . S
H862 N859 0.984 . S
H863 N859 0.985 . S
H864 N858 0.984 . S
H865 N858 0.984 . S
H866 N854 0.984 . S
H867 N854 0.985 . S
C868 C869 1.363 . S
C868 C874 1.379 . S
C868 N876 1.356 . S
C869 C868 1.363 . S
C869 C875 1.363 . S
C870 C871 1.363 . S
C870 C875 1.379 . S
C870 N877 1.356 . S
C871 C870 1.363 . S
C871 C874 1.363 . S
N872 C874 1.356 . S
N872 H884 0.984 . S
N872 H885 0.985 . S
N873 C875 1.356 . S
N873 H878 0.984 . S
N873 H879 0.985 . S
C874 C868 1.379 . S
C874 C871 1.363 . S
C874 N872 1.356 . S
C875 C869 1.363 . S
C875 C870 1.379 . S
C875 N873 1.356 . S
N876 C868 1.356 . S
N876 H882 0.984 . S
N876 H883 0.984 . S
N877 C870 1.356 . S
N877 H880 0.984 . S
N877 H881 0.985 . S
H878 N873 0.984 . S
H879 N873 0.985 . S
H880 N877 0.984 . S
H881 N877 0.985 . S
H882 N876 0.984 . S
H883 N876 0.984 . S
H884 N872 0.984 . S
H885 N872 0.985 . S
C886 C887 1.363 . S
C886 C892 1.379 . S
C886 N894 1.356 . S
C887 C886 1.363 . S
C887 C893 1.363 . S
C888 C889 1.363 . S
C888 C893 1.379 . S
C888 N895 1.356 . S
C889 C888 1.363 . S
C889 C892 1.363 . S
N890 C892 1.356 . S
N890 H902 0.984 . S
N890 H903 0.985 . S
N891 C893 1.356 . S
N891 H896 0.984 . S
N891 H897 0.985 . S
C892 C886 1.379 . S
C892 C889 1.363 . S
C892 N890 1.356 . S
C893 C887 1.363 . S
C893 C888 1.379 . S
C893 N891 1.356 . S
N894 C886 1.356 . S
N894 H900 0.984 . S
N894 H901 0.984 . S
N895 C888 1.356 . S
N895 H898 0.984 . S
N895 H899 0.985 . S
H896 N891 0.984 . S
H897 N891 0.985 . S
H898 N895 0.984 . S
H899 N895 0.985 . S
H900 N894 0.984 . S
H901 N894 0.984 . S
H902 N890 0.984 . S
H903 N890 0.985 . S
C904 C905 1.363 . S
C904 C910 1.379 . S
C904 N912 1.356 . S
C905 C904 1.363 . S
C905 C911 1.363 . S
C906 C907 1.363 . S
C906 C911 1.379 . S
C906 N913 1.356 . S
C907 C906 1.363 . S
C907 C910 1.363 . S
N908 C910 1.356 . S
N908 H920 0.984 . S
N908 H921 0.985 . S
N909 C911 1.356 . S
N909 H914 0.984 . S
N909 H915 0.985 . S
C910 C904 1.379 . S
C910 C907 1.363 . S
C910 N908 1.356 . S
C911 C905 1.363 . S
C911 C906 1.379 . S
C911 N909 1.356 . S
N912 C904 1.356 . S
N912 H918 0.984 . S
N912 H919 0.984 . S
N913 C906 1.356 . S
N913 H916 0.984 . S
N913 H917 0.985 . S
H914 N909 0.984 . S
H915 N909 0.985 . S
H916 N913 0.984 . S
H917 N913 0.985 . S
H918 N912 0.984 . S
H919 N912 0.984 . S
H920 N908 0.984 . S
H921 N908 0.985 . S
C922 C923 1.363 . S
C922 C928 1.379 . S
C922 N930 1.356 . S
C923 C922 1.363 . S
C923 C929 1.363 . S
C924 C925 1.363 . S
C924 C929 1.379 . S
C924 N931 1.356 . S
C925 C924 1.363 . S
C925 C928 1.363 . S
N926 C928 1.356 . S
N926 H938 0.984 . S
N926 H939 0.985 . S
N927 C929 1.356 . S
N927 H932 0.984 . S
N927 H933 0.985 . S
C928 C922 1.379 . S
C928 C925 1.363 . S
C928 N926 1.356 . S
C929 C923 1.363 . S
C929 C924 1.379 . S
C929 N927 1.356 . S
N930 C922 1.356 . S
N930 H936 0.984 . S
N930 H937 0.984 . S
N931 C924 1.356 . S
N931 H934 0.984 . S
N931 H935 0.985 . S
H932 N927 0.984 . S
H933 N927 0.985 . S
H934 N931 0.984 . S
H935 N931 0.985 . S
H936 N930 0.984 . S
H937 N930 0.984 . S
H938 N926 0.984 . S
H939 N926 0.985 . S
C940 C941 1.363 . S
C940 C946 1.379 . S
C940 N948 1.356 . S
C941 C940 1.363 . S
C941 C947 1.363 . S
C942 C943 1.363 . S
C942 C947 1.379 . S
C942 N949 1.356 . S
C943 C942 1.363 . S
C943 C946 1.363 . S
N944 C946 1.356 . S
N944 H956 0.984 . S
N944 H957 0.985 . S
N945 C947 1.356 . S
N945 H950 0.984 . S
N945 H951 0.985 . S
C946 C940 1.379 . S
C946 C943 1.363 . S
C946 N944 1.356 . S
C947 C941 1.363 . S
C947 C942 1.379 . S
C947 N945 1.356 . S
N948 C940 1.356 . S
N948 H954 0.984 . S
N948 H955 0.984 . S
N949 C942 1.356 . S
N949 H952 0.984 . S
N949 H953 0.985 . S
H950 N945 0.984 . S
H951 N945 0.985 . S
H952 N949 0.984 . S
H953 N949 0.985 . S
H954 N948 0.984 . S
H955 N948 0.984 . S
H956 N944 0.984 . S
H957 N944 0.985 . S
C958 C959 1.363 . S
C958 C964 1.379 . S
C958 N966 1.356 . S
C959 C958 1.363 . S
C959 C965 1.363 . S
C960 C961 1.363 . S
C960 C965 1.379 . S
C960 N967 1.356 . S
C961 C960 1.363 . S
C961 C964 1.363 . S
N962 C964 1.356 . S
N962 H974 0.984 . S
N962 H975 0.985 . S
N963 C965 1.356 . S
N963 H968 0.984 . S
N963 H969 0.985 . S
C964 C958 1.379 . S
C964 C961 1.363 . S
C964 N962 1.356 . S
C965 C959 1.363 . S
C965 C960 1.379 . S
C965 N963 1.356 . S
N966 C958 1.356 . S
N966 H972 0.984 . S
N966 H973 0.984 . S
N967 C960 1.356 . S
N967 H970 0.984 . S
N967 H971 0.985 . S
H968 N963 0.984 . S
H969 N963 0.985 . S
H970 N967 0.984 . S
H971 N967 0.985 . S
H972 N966 0.984 . S
H973 N966 0.984 . S
H974 N962 0.984 . S
H975 N962 0.985 . S
C976 C977 1.363 . S
C976 C982 1.379 . S
C976 N984 1.356 . S
C977 C976 1.363 . S
C977 C983 1.363 . S
C978 C979 1.363 . S
C978 C983 1.379 . S
C978 N985 1.356 . S
C979 C978 1.363 . S
C979 C982 1.363 . S
N980 C982 1.356 . S
N980 H992 0.984 . S
N980 H993 0.985 . S
N981 C983 1.356 . S
N981 H986 0.984 . S
N981 H987 0.985 . S
C982 C976 1.379 . S
C982 C979 1.363 . S
C982 N980 1.356 . S
C983 C977 1.363 . S
C983 C978 1.379 . S
C983 N981 1.356 . S
N984 C976 1.356 . S
N984 H990 0.984 . S
N984 H991 0.984 . S
N985 C978 1.356 . S
N985 H988 0.984 . S
N985 H989 0.985 . S
H986 N981 0.984 . S
H987 N981 0.985 . S
H988 N985 0.984 . S
H989 N985 0.985 . S
H990 N984 0.984 . S
H991 N984 0.984 . S
H992 N980 0.984 . S
H993 N980 0.985 . S
C994 C995 1.363 . S
C994 C1000 1.379 . S
C994 N1002 1.356 . S
C995 C994 1.363 . S
C995 C1001 1.363 . S
C996 C997 1.363 . S
C996 C1001 1.379 . S
C996 N1003 1.356 . S
C997 C996 1.363 . S
C997 C1000 1.363 . S
N998 C1000 1.356 . S
N998 H1010 0.984 . S
N998 H1011 0.985 . S
N999 C1001 1.356 . S
N999 H1004 0.984 . S
N999 H1005 0.985 . S
C1000 C994 1.379 . S
C1000 C997 1.363 . S
C1000 N998 1.356 . S
C1001 C995 1.363 . S
C1001 C996 1.379 . S
C1001 N999 1.356 . S
N1002 C994 1.356 . S
N1002 H1008 0.984 . S
N1002 H1009 0.984 . S
N1003 C996 1.356 . S
N1003 H1006 0.984 . S
N1003 H1007 0.985 . S
H1004 N999 0.984 . S
H1005 N999 0.985 . S
H1006 N1003 0.984 . S
H1007 N1003 0.985 . S
H1008 N1002 0.984 . S
H1009 N1002 0.984 . S
H1010 N998 0.984 . S
H1011 N998 0.985 . S
C1012 C1013 1.363 . S
C1012 C1018 1.379 . S
C1012 N1020 1.356 . S
C1013 C1012 1.363 . S
C1013 C1019 1.363 . S
C1014 C1015 1.363 . S
C1014 C1019 1.379 . S
C1014 N1021 1.356 . S
C1015 C1014 1.363 . S
C1015 C1018 1.363 . S
N1016 C1018 1.356 . S
N1016 H1028 0.984 . S
N1016 H1029 0.985 . S
N1017 C1019 1.356 . S
N1017 H1022 0.984 . S
N1017 H1023 0.985 . S
C1018 C1012 1.379 . S
C1018 C1015 1.363 . S
C1018 N1016 1.356 . S
C1019 C1013 1.363 . S
C1019 C1014 1.379 . S
C1019 N1017 1.356 . S
N1020 C1012 1.356 . S
N1020 H1026 0.984 . S
N1020 H1027 0.984 . S
N1021 C1014 1.356 . S
N1021 H1024 0.984 . S
N1021 H1025 0.985 . S
H1022 N1017 0.984 . S
H1023 N1017 0.985 . S
H1024 N1021 0.984 . S
H1025 N1021 0.985 . S
H1026 N1020 0.984 . S
H1027 N1020 0.984 . S
H1028 N1016 0.984 . S
H1029 N1016 0.985 . S
C1030 C1031 1.363 . S
C1030 C1036 1.379 . S
C1030 N1038 1.356 . S
C1031 C1030 1.363 . S
C1031 C1037 1.363 . S
C1032 C1033 1.363 . S
C1032 C1037 1.379 . S
C1032 N1039 1.356 . S
C1033 C1032 1.363 . S
C1033 C1036 1.363 . S
N1034 C1036 1.356 . S
N1034 H1046 0.984 . S
N1034 H1047 0.985 . S
N1035 C1037 1.356 . S
N1035 H1040 0.984 . S
N1035 H1041 0.985 . S
C1036 C1030 1.379 . S
C1036 C1033 1.363 . S
C1036 N1034 1.356 . S
C1037 C1031 1.363 . S
C1037 C1032 1.379 . S
C1037 N1035 1.356 . S
N1038 C1030 1.356 . S
N1038 H1044 0.984 . S
N1038 H1045 0.984 . S
N1039 C1032 1.356 . S
N1039 H1042 0.984 . S
N1039 H1043 0.985 . S
H1040 N1035 0.984 . S
H1041 N1035 0.985 . S
H1042 N1039 0.984 . S
H1043 N1039 0.985 . S
H1044 N1038 0.984 . S
H1045 N1038 0.984 . S
H1046 N1034 0.984 . S
H1047 N1034 0.985 . S
C1048 C1049 1.363 . S
C1048 C1054 1.379 1_556 S
C1048 N1056 1.356 . S
C1049 C1048 1.363 . S
C1049 C1055 1.363 . S
C1050 C1051 1.363 1_556 S
C1050 C1055 1.379 . S
C1050 N1057 1.356 1_556 S
C1051 C1050 1.363 1_554 S
C1051 C1054 1.363 . S
N1052 C1054 1.356 . S
N1052 H1064 0.984 . S
N1052 H1065 0.985 . S
N1053 C1055 1.356 . S
N1053 H1058 0.984 . S
N1053 H1059 0.985 . S
C1054 C1048 1.379 1_554 S
C1054 C1051 1.363 . S
C1054 N1052 1.356 . S
C1055 C1049 1.363 . S
C1055 C1050 1.379 . S
C1055 N1053 1.356 . S
N1056 C1048 1.356 . S
N1056 H1062 0.984 . S
N1056 H1063 0.984 . S
N1057 C1050 1.356 1_554 S
N1057 H1060 0.984 . S
N1057 H1061 0.985 1_554 S
H1058 N1053 0.984 . S
H1059 N1053 0.985 . S
H1060 N1057 0.984 . S
H1061 N1057 0.985 1_556 S
H1062 N1056 0.984 . S
H1063 N1056 0.984 . S
H1064 N1052 0.984 . S
H1065 N1052 0.985 . S
C1066 C1067 1.363 1_556 S
C1066 C1072 1.379 . S
C1066 N1074 1.356 1_556 S
C1067 C1066 1.363 1_554 S
C1067 C1073 1.363 . S
C1068 C1069 1.363 . S
C1068 C1073 1.379 1_556 S
C1068 N1075 1.356 . S
C1069 C1068 1.363 . S
C1069 C1072 1.363 . S
N1070 C1072 1.356 . S
N1070 H1082 0.984 . S
N1070 H1083 0.985 . S
N1071 C1073 1.356 . S
N1071 H1076 0.984 . S
N1071 H1077 0.985 . S
C1072 C1066 1.379 . S
C1072 C1069 1.363 . S
C1072 N1070 1.356 . S
C1073 C1067 1.363 . S
C1073 C1068 1.379 1_554 S
C1073 N1071 1.356 . S
N1074 C1066 1.356 1_554 S
N1074 H1080 0.984 1_554 S
N1074 H1081 0.984 . S
N1075 C1068 1.356 . S
N1075 H1078 0.984 . S
N1075 H1079 0.985 1_556 S
H1076 N1071 0.984 . S
H1077 N1071 0.985 . S
H1078 N1075 0.984 . S
H1079 N1075 0.985 1_554 S
H1080 N1074 0.984 1_556 S
H1081 N1074 0.984 . S
H1082 N1070 0.984 . S
H1083 N1070 0.985 . S
C1084 C1085 1.363 . S
C1084 C1090 1.379 . S
C1084 N1092 1.356 . S
C1085 C1084 1.363 . S
C1085 C1091 1.363 . S
C1086 C1087 1.363 . S
C1086 C1091 1.379 1_554 S
C1086 N1093 1.356 . S
C1087 C1086 1.363 . S
C1087 C1090 1.363 1_554 S
N1088 C1090 1.356 1_554 S
N1088 H1100 0.984 1_554 S
N1088 H1101 0.985 . S
N1089 C1091 1.356 . S
N1089 H1094 0.984 . S
N1089 H1095 0.985 . S
C1090 C1084 1.379 . S
C1090 C1087 1.363 1_556 S
C1090 N1088 1.356 1_556 S
C1091 C1085 1.363 . S
C1091 C1086 1.379 1_556 S
C1091 N1089 1.356 . S
N1092 C1084 1.356 . S
N1092 H1098 0.984 . S
N1092 H1099 0.984 . S
N1093 C1086 1.356 . S
N1093 H1096 0.984 . S
N1093 H1097 0.985 . S
H1094 N1089 0.984 . S
H1095 N1089 0.985 . S
H1096 N1093 0.984 . S
H1097 N1093 0.985 . S
H1098 N1092 0.984 . S
H1099 N1092 0.984 . S
H1100 N1088 0.984 1_556 S
H1101 N1088 0.985 . S
C1102 C1103 1.363 . S
C1102 C1108 1.379 1_554 S
C1102 N1110 1.356 . S
C1103 C1102 1.363 . S
C1103 C1109 1.363 1_554 S
C1104 C1105 1.363 . S
C1104 C1109 1.379 . S
C1104 N1111 1.356 . S
C1105 C1104 1.363 . S
C1105 C1108 1.363 . S
N1106 C1108 1.356 . S
N1106 H1118 0.984 1_556 S
N1106 H1119 0.985 . S
N1107 C1109 1.356 . S
N1107 H1112 0.984 1_556 S
N1107 H1113 0.985 . S
C1108 C1102 1.379 1_556 S
C1108 C1105 1.363 . S
C1108 N1106 1.356 . S
C1109 C1103 1.363 1_556 S
C1109 C1104 1.379 . S
C1109 N1107 1.356 . S
N1110 C1102 1.356 . S
N1110 H1116 0.984 . S
N1110 H1117 0.984 . S
N1111 C1104 1.356 . S
N1111 H1114 0.984 . S
N1111 H1115 0.985 . S
H1112 N1107 0.984 1_554 S
H1113 N1107 0.985 . S
H1114 N1111 0.984 . S
H1115 N1111 0.985 . S
H1116 N1110 0.984 . S
H1117 N1110 0.984 . S
H1118 N1106 0.984 1_554 S
H1119 N1106 0.985 . S
C1120 C1121 1.363 . S
C1120 C1126 1.379 . S
C1120 N1128 1.356 . S
C1121 C1120 1.363 . S
C1121 C1127 1.363 . S
C1122 C1123 1.363 . S
C1122 C1127 1.379 . S
C1122 N1129 1.356 . S
C1123 C1122 1.363 . S
C1123 C1126 1.363 . S
N1124 C1126 1.356 . S
N1124 H1136 0.984 . S
N1124 H1137 0.985 . S
N1125 C1127 1.356 . S
N1125 H1130 0.984 . S
N1125 H1131 0.985 . S
C1126 C1120 1.379 . S
C1126 C1123 1.363 . S
C1126 N1124 1.356 . S
C1127 C1121 1.363 . S
C1127 C1122 1.379 . S
C1127 N1125 1.356 . S
N1128 C1120 1.356 . S
N1128 H1134 0.984 . S
N1128 H1135 0.984 . S
N1129 C1122 1.356 . S
N1129 H1132 0.984 . S
N1129 H1133 0.985 . S
H1130 N1125 0.984 . S
H1131 N1125 0.985 . S
H1132 N1129 0.984 . S
H1133 N1129 0.985 . S
H1134 N1128 0.984 . S
H1135 N1128 0.984 . S
H1136 N1124 0.984 . S
H1137 N1124 0.985 . S
C1138 C1139 1.363 . S
C1138 C1144 1.379 . S
C1138 N1146 1.356 . S
C1139 C1138 1.363 . S
C1139 C1145 1.363 . S
C1140 C1141 1.363 . S
C1140 C1145 1.379 . S
C1140 N1147 1.356 . S
C1141 C1140 1.363 . S
C1141 C1144 1.363 . S
N1142 C1144 1.356 . S
N1142 H1154 0.984 . S
N1142 H1155 0.985 . S
N1143 C1145 1.356 . S
N1143 H1148 0.984 . S
N1143 H1149 0.985 . S
C1144 C1138 1.379 . S
C1144 C1141 1.363 . S
C1144 N1142 1.356 . S
C1145 C1139 1.363 . S
C1145 C1140 1.379 . S
C1145 N1143 1.356 . S
N1146 C1138 1.356 . S
N1146 H1152 0.984 . S
N1146 H1153 0.984 . S
N1147 C1140 1.356 . S
N1147 H1150 0.984 . S
N1147 H1151 0.985 . S
H1148 N1143 0.984 . S
H1149 N1143 0.985 . S
H1150 N1147 0.984 . S
H1151 N1147 0.985 . S
H1152 N1146 0.984 . S
H1153 N1146 0.984 . S
H1154 N1142 0.984 . S
H1155 N1142 0.985 . S
C1156 C1157 1.363 . S
C1156 C1162 1.379 . S
C1156 N1164 1.356 . S
C1157 C1156 1.363 . S
C1157 C1163 1.363 . S
C1158 C1159 1.363 . S
C1158 C1163 1.379 . S
C1158 N1165 1.356 . S
C1159 C1158 1.363 . S
C1159 C1162 1.363 . S
N1160 C1162 1.356 . S
N1160 H1172 0.984 . S
N1160 H1173 0.985 . S
N1161 C1163 1.356 . S
N1161 H1166 0.984 . S
N1161 H1167 0.985 . S
C1162 C1156 1.379 . S
C1162 C1159 1.363 . S
C1162 N1160 1.356 . S
C1163 C1157 1.363 . S
C1163 C1158 1.379 . S
C1163 N1161 1.356 . S
N1164 C1156 1.356 . S
N1164 H1170 0.984 . S
N1164 H1171 0.984 . S
N1165 C1158 1.356 . S
N1165 H1168 0.984 . S
N1165 H1169 0.985 . S
H1166 N1161 0.984 . S
H1167 N1161 0.985 . S
H1168 N1165 0.984 . S
H1169 N1165 0.985 . S
H1170 N1164 0.984 . S
H1171 N1164 0.984 . S
H1172 N1160 0.984 . S
H1173 N1160 0.985 . S
C1174 C1175 1.363 . S
C1174 C1180 1.379 . S
C1174 N1182 1.356 . S
C1175 C1174 1.363 . S
C1175 C1181 1.363 . S
C1176 C1177 1.363 . S
C1176 C1181 1.379 . S
C1176 N1183 1.356 . S
C1177 C1176 1.363 . S
C1177 C1180 1.363 . S
N1178 C1180 1.356 . S
N1178 H1190 0.984 . S
N1178 H1191 0.985 . S
N1179 C1181 1.356 . S
N1179 H1184 0.984 . S
N1179 H1185 0.985 . S
C1180 C1174 1.379 . S
C1180 C1177 1.363 . S
C1180 N1178 1.356 . S
C1181 C1175 1.363 . S
C1181 C1176 1.379 . S
C1181 N1179 1.356 . S
N1182 C1174 1.356 . S
N1182 H1188 0.984 . S
N1182 H1189 0.984 . S
N1183 C1176 1.356 . S
N1183 H1186 0.984 . S
N1183 H1187 0.985 . S
H1184 N1179 0.984 . S
H1185 N1179 0.985 . S
H1186 N1183 0.984 . S
H1187 N1183 0.985 . S
H1188 N1182 0.984 . S
H1189 N1182 0.984 . S
H1190 N1178 0.984 . S
H1191 N1178 0.985 . S
C1192 C1193 1.363 . S
C1192 C1198 1.379 1_554 S
C1192 N1200 1.356 . S
C1193 C1192 1.363 . S
C1193 C1199 1.363 . S
C1194 C1195 1.363 1_554 S
C1194 C1199 1.379 . S
C1194 N1201 1.356 1_554 S
C1195 C1194 1.363 1_556 S
C1195 C1198 1.363 . S
N1196 C1198 1.356 . S
N1196 H1208 0.984 . S
N1196 H1209 0.985 . S
N1197 C1199 1.356 . S
N1197 H1202 0.984 . S
N1197 H1203 0.985 . S
C1198 C1192 1.379 1_556 S
C1198 C1195 1.363 . S
C1198 N1196 1.356 . S
C1199 C1193 1.363 . S
C1199 C1194 1.379 . S
C1199 N1197 1.356 . S
N1200 C1192 1.356 . S
N1200 H1206 0.984 1_554 S
N1200 H1207 0.984 . S
N1201 C1194 1.356 1_556 S
N1201 H1204 0.984 . S
N1201 H1205 0.985 1_556 S
H1202 N1197 0.984 . S
H1203 N1197 0.985 . S
H1204 N1201 0.984 . S
H1205 N1201 0.985 1_554 S
H1206 N1200 0.984 1_556 S
H1207 N1200 0.984 . S
H1208 N1196 0.984 . S
H1209 N1196 0.985 . S
C1210 C1211 1.363 1_554 S
C1210 C1216 1.379 . S
C1210 N1218 1.356 1_554 S
C1211 C1210 1.363 1_556 S
C1211 C1217 1.363 . S
C1212 C1213 1.363 . S
C1212 C1217 1.379 1_554 S
C1212 N1219 1.356 . S
C1213 C1212 1.363 . S
C1213 C1216 1.363 . S
N1214 C1216 1.356 . S
N1214 H1226 0.984 . S
N1214 H1227 0.985 . S
N1215 C1217 1.356 . S
N1215 H1220 0.984 . S
N1215 H1221 0.985 . S
C1216 C1210 1.379 . S
C1216 C1213 1.363 . S
C1216 N1214 1.356 . S
C1217 C1211 1.363 . S
C1217 C1212 1.379 1_556 S
C1217 N1215 1.356 . S
N1218 C1210 1.356 1_556 S
N1218 H1224 0.984 1_556 S
N1218 H1225 0.984 . S
N1219 C1212 1.356 . S
N1219 H1222 0.984 . S
N1219 H1223 0.985 . S
H1220 N1215 0.984 . S
H1221 N1215 0.985 . S
H1222 N1219 0.984 . S
H1223 N1219 0.985 . S
H1224 N1218 0.984 1_554 S
H1225 N1218 0.984 . S
H1226 N1214 0.984 . S
H1227 N1214 0.985 . S
C1228 C1229 1.363 . S
C1228 C1234 1.379 1_554 S
C1228 N1236 1.356 . S
C1229 C1228 1.363 . S
C1229 C1235 1.363 . S
C1230 C1231 1.363 . S
C1230 C1235 1.379 1_556 S
C1230 N1237 1.356 . S
C1231 C1230 1.363 . S
C1231 C1234 1.363 . S
N1232 C1234 1.356 . S
N1232 H1244 0.984 . S
N1232 H1245 0.985 . S
N1233 C1235 1.356 . S
N1233 H1238 0.984 . S
N1233 H1239 0.985 . S
C1234 C1228 1.379 1_556 S
C1234 C1231 1.363 . S
C1234 N1232 1.356 . S
C1235 C1229 1.363 . S
C1235 C1230 1.379 1_554 S
C1235 N1233 1.356 . S
N1236 C1228 1.356 . S
N1236 H1242 0.984 . S
N1236 H1243 0.984 . S
N1237 C1230 1.356 . S
N1237 H1240 0.984 . S
N1237 H1241 0.985 . S
H1238 N1233 0.984 . S
H1239 N1233 0.985 . S
H1240 N1237 0.984 . S
H1241 N1237 0.985 . S
H1242 N1236 0.984 . S
H1243 N1236 0.984 . S
H1244 N1232 0.984 . S
H1245 N1232 0.985 . S
C1246 C1247 1.363 . S
C1246 C1252 1.379 1_554 S
C1246 N1254 1.356 . S
C1247 C1246 1.363 . S
C1247 C1253 1.363 . S
C1248 C1249 1.363 1_554 S
C1248 C1253 1.379 . S
C1248 N1255 1.356 . S
C1249 C1248 1.363 1_556 S
C1249 C1252 1.363 . S
N1250 C1252 1.356 . S
N1250 H1262 0.984 . S
N1250 H1263 0.985 . S
N1251 C1253 1.356 . S
N1251 H1256 0.984 . S
N1251 H1257 0.985 . S
C1252 C1246 1.379 1_556 S
C1252 C1249 1.363 . S
C1252 N1250 1.356 . S
C1253 C1247 1.363 . S
C1253 C1248 1.379 . S
C1253 N1251 1.356 . S
N1254 C1246 1.356 . S
N1254 H1260 0.984 1_554 S
N1254 H1261 0.984 . S
N1255 C1248 1.356 . S
N1255 H1258 0.984 1_554 S
N1255 H1259 0.985 . S
H1256 N1251 0.984 . S
H1257 N1251 0.985 . S
H1258 N1255 0.984 1_556 S
H1259 N1255 0.985 . S
H1260 N1254 0.984 1_556 S
H1261 N1254 0.984 . S
H1262 N1250 0.984 . S
H1263 N1250 0.985 . S
C545 C111 1.733 . S
C547 C2 1.752 . S
C563 C36 1.752 . S
C565 C9 1.734 . S
C581 C70 1.752 . S
C583 C43 1.734 . S
C599 C104 1.752 . S
C601 C77 1.734 . S
C617 C179 1.734 . S
C619 C138 1.752 . S
C635 C213 1.734 . S
C637 C172 1.752 . S
C653 C206 1.752 . S
C655 C247 1.734 . S
C671 C145 1.733 . S
C673 C240 1.752 . S
C689 C274 1.752 . S
C691 C383 1.733 . S
C707 C308 1.752 . S
C709 C281 1.734 . S
C725 C315 1.734 . S
C727 C342 1.752 . S
C743 C376 1.752 . S
C745 C349 1.734 . S
C761 C451 1.734 . S
C763 C410 1.752 . S
C779 C444 1.752 . S
C781 C485 1.734 . S
C797 C478 1.752 . S
C799 C519 1.734 . S
C815 C512 1.752 . S
C817 C417 1.733 . S
C833 C33 1.989 . S
C835 C203 1.989 . S
C851 C67 1.989 . S
C853 C237 1.989 . S
C869 C271 1.989 . S
C871 C101 1.989 . S
C887 C135 1.989 . S
C889 C169 1.989 . S
C905 C475 1.989 . S
C907 C305 1.989 . S
C923 C509 1.989 . S
C925 C339 1.989 . S
C941 C373 1.989 . S
C943 C543 1.989 . S
C959 C441 1.989 . S
C961 C407 1.989 . S
C977 C5 1.222 . S
C979 C394 1.262 . S
C995 C39 1.222 . S
C997 C292 1.262 . S
C1013 C73 1.222 . S
C1015 C326 1.262 . S
C1031 C107 1.222 . S
C1033 C360 1.262 . S
C1049 C462 1.262 . S
C1051 C141 1.222 . S
C1067 C175 1.222 . S
C1069 C496 1.262 . S
C1085 C530 1.262 . S
C1087 C209 1.222 . S
C1103 C243 1.222 . S
C1105 C428 1.262 . S
C1121 C122 1.262 . S
C1123 C277 1.222 . S
C1139 C20 1.262 . S
C1141 C311 1.222 . S
C1157 C54 1.262 . S
C1159 C345 1.222 . S
C1175 C88 1.262 . S
C1177 C379 1.222 . S
C1193 C190 1.262 . S
C1195 C413 1.222 . S
C1211 C447 1.222 . S
C1213 C224 1.262 . S
C1229 C258 1.262 . S
C1231 C481 1.222 . S
C1247 C156 1.262 . S
C1249 C515 1.222 . S
