# Generated by pormake.
# Topology wfj, (8)-cn, num edge types: 1
# Building blocks:
#     Node 0, Type 0, BuildingBlock: TAGTUT_clean_sbu_3, # of connection points: 8
#     Node 1, Type 0, BuildingBlock: TAGTUT_clean_sbu_3, # of connection points: 8
#     Node 2, Type 0, BuildingBlock: TAGTUT_clean_sbu_3, # of connection points: 8
#     Node 3, Type 0, BuildingBlock: TAGTUT_clean_sbu_3, # of connection points: 8
#     Node 4, Type 0, BuildingBlock: TAGTUT_clean_sbu_3, # of connection points: 8
#     Node 5, Type 0, BuildingBlock: TAGTUT_clean_sbu_3, # of connection points: 8
#     Node 6, Type 0, BuildingBlock: TAGTUT_clean_sbu_3, # of connection points: 8
#     Node 7, Type 0, BuildingBlock: TAGTUT_clean_sbu_3, # of connection points: 8
#     Node 8, Type 0, BuildingBlock: TAGTUT_clean_sbu_3, # of connection points: 8
#     Node 9, Type 0, BuildingBlock: TAGTUT_clean_sbu_3, # of connection points: 8
#     Node 10, Type 0, BuildingBlock: TAGTUT_clean_sbu_3, # of connection points: 8
#     Node 11, Type 0, BuildingBlock: TAGTUT_clean_sbu_3, # of connection points: 8
#     Node 12, Type 0, BuildingBlock: TAGTUT_clean_sbu_3, # of connection points: 8
#     Node 13, Type 0, BuildingBlock: TAGTUT_clean_sbu_3, # of connection points: 8
#     Node 14, Type 0, BuildingBlock: TAGTUT_clean_sbu_3, # of connection points: 8
#     Node 15, Type 0, BuildingBlock: TAGTUT_clean_sbu_3, # of connection points: 8
#     Edge 16, Type (0, 0), BuildingBlock: XIVTED_clean_linker_0, # of connection points: 2
#     Edge 17, Type (0, 0), BuildingBlock: XIVTED_clean_linker_0, # of connection points: 2
#     Edge 18, Type (0, 0), BuildingBlock: XIVTED_clean_linker_0, # of connection points: 2
#     Edge 19, Type (0, 0), BuildingBlock: XIVTED_clean_linker_0, # of connection points: 2
#     Edge 20, Type (0, 0), BuildingBlock: XIVTED_clean_linker_0, # of connection points: 2
#     Edge 21, Type (0, 0), BuildingBlock: XIVTED_clean_linker_0, # of connection points: 2
#     Edge 22, Type (0, 0), BuildingBlock: XIVTED_clean_linker_0, # of connection points: 2
#     Edge 23, Type (0, 0), BuildingBlock: XIVTED_clean_linker_0, # of connection points: 2
#     Edge 24, Type (0, 0), BuildingBlock: XIVTED_clean_linker_0, # of connection points: 2
#     Edge 25, Type (0, 0), BuildingBlock: XIVTED_clean_linker_0, # of connection points: 2
#     Edge 26, Type (0, 0), BuildingBlock: XIVTED_clean_linker_0, # of connection points: 2
#     Edge 27, Type (0, 0), BuildingBlock: XIVTED_clean_linker_0, # of connection points: 2
#     Edge 28, Type (0, 0), BuildingBlock: XIVTED_clean_linker_0, # of connection points: 2
#     Edge 29, Type (0, 0), BuildingBlock: XIVTED_clean_linker_0, # of connection points: 2
#     Edge 30, Type (0, 0), BuildingBlock: XIVTED_clean_linker_0, # of connection points: 2
#     Edge 31, Type (0, 0), BuildingBlock: XIVTED_clean_linker_0, # of connection points: 2
#     Edge 32, Type (0, 0), BuildingBlock: XIVTED_clean_linker_0, # of connection points: 2
#     Edge 33, Type (0, 0), BuildingBlock: XIVTED_clean_linker_0, # of connection points: 2
#     Edge 34, Type (0, 0), BuildingBlock: XIVTED_clean_linker_0, # of connection points: 2
#     Edge 35, Type (0, 0), BuildingBlock: XIVTED_clean_linker_0, # of connection points: 2
#     Edge 36, Type (0, 0), BuildingBlock: XIVTED_clean_linker_0, # of connection points: 2
#     Edge 37, Type (0, 0), BuildingBlock: XIVTED_clean_linker_0, # of connection points: 2
#     Edge 38, Type (0, 0), BuildingBlock: XIVTED_clean_linker_0, # of connection points: 2
#     Edge 39, Type (0, 0), BuildingBlock: XIVTED_clean_linker_0, # of connection points: 2
#     Edge 40, Type (0, 0), BuildingBlock: XIVTED_clean_linker_0, # of connection points: 2
#     Edge 41, Type (0, 0), BuildingBlock: XIVTED_clean_linker_0, # of connection points: 2
#     Edge 42, Type (0, 0), BuildingBlock: XIVTED_clean_linker_0, # of connection points: 2
#     Edge 43, Type (0, 0), BuildingBlock: XIVTED_clean_linker_0, # of connection points: 2
#     Edge 44, Type (0, 0), BuildingBlock: XIVTED_clean_linker_0, # of connection points: 2
#     Edge 45, Type (0, 0), BuildingBlock: XIVTED_clean_linker_0, # of connection points: 2
#     Edge 46, Type (0, 0), BuildingBlock: XIVTED_clean_linker_0, # of connection points: 2
#     Edge 47, Type (0, 0), BuildingBlock: XIVTED_clean_linker_0, # of connection points: 2
#     Edge 48, Type (0, 0), BuildingBlock: XIVTED_clean_linker_0, # of connection points: 2
#     Edge 49, Type (0, 0), BuildingBlock: XIVTED_clean_linker_0, # of connection points: 2
#     Edge 50, Type (0, 0), BuildingBlock: XIVTED_clean_linker_0, # of connection points: 2
#     Edge 51, Type (0, 0), BuildingBlock: XIVTED_clean_linker_0, # of connection points: 2
#     Edge 52, Type (0, 0), BuildingBlock: XIVTED_clean_linker_0, # of connection points: 2
#     Edge 53, Type (0, 0), BuildingBlock: XIVTED_clean_linker_0, # of connection points: 2
#     Edge 54, Type (0, 0), BuildingBlock: XIVTED_clean_linker_0, # of connection points: 2
#     Edge 55, Type (0, 0), BuildingBlock: XIVTED_clean_linker_0, # of connection points: 2
#     Edge 56, Type (0, 0), BuildingBlock: XIVTED_clean_linker_0, # of connection points: 2
#     Edge 57, Type (0, 0), BuildingBlock: XIVTED_clean_linker_0, # of connection points: 2
#     Edge 58, Type (0, 0), BuildingBlock: XIVTED_clean_linker_0, # of connection points: 2
#     Edge 59, Type (0, 0), BuildingBlock: XIVTED_clean_linker_0, # of connection points: 2
#     Edge 60, Type (0, 0), BuildingBlock: XIVTED_clean_linker_0, # of connection points: 2
#     Edge 61, Type (0, 0), BuildingBlock: XIVTED_clean_linker_0, # of connection points: 2
#     Edge 62, Type (0, 0), BuildingBlock: XIVTED_clean_linker_0, # of connection points: 2
#     Edge 63, Type (0, 0), BuildingBlock: XIVTED_clean_linker_0, # of connection points: 2
#     Edge 64, Type (0, 0), BuildingBlock: XIVTED_clean_linker_0, # of connection points: 2
#     Edge 65, Type (0, 0), BuildingBlock: XIVTED_clean_linker_0, # of connection points: 2
#     Edge 66, Type (0, 0), BuildingBlock: XIVTED_clean_linker_0, # of connection points: 2
#     Edge 67, Type (0, 0), BuildingBlock: XIVTED_clean_linker_0, # of connection points: 2
#     Edge 68, Type (0, 0), BuildingBlock: XIVTED_clean_linker_0, # of connection points: 2
#     Edge 69, Type (0, 0), BuildingBlock: XIVTED_clean_linker_0, # of connection points: 2
#     Edge 70, Type (0, 0), BuildingBlock: XIVTED_clean_linker_0, # of connection points: 2
#     Edge 71, Type (0, 0), BuildingBlock: XIVTED_clean_linker_0, # of connection points: 2
#     Edge 72, Type (0, 0), BuildingBlock: XIVTED_clean_linker_0, # of connection points: 2
#     Edge 73, Type (0, 0), BuildingBlock: XIVTED_clean_linker_0, # of connection points: 2
#     Edge 74, Type (0, 0), BuildingBlock: XIVTED_clean_linker_0, # of connection points: 2
#     Edge 75, Type (0, 0), BuildingBlock: XIVTED_clean_linker_0, # of connection points: 2
#     Edge 76, Type (0, 0), BuildingBlock: XIVTED_clean_linker_0, # of connection points: 2
#     Edge 77, Type (0, 0), BuildingBlock: XIVTED_clean_linker_0, # of connection points: 2
#     Edge 78, Type (0, 0), BuildingBlock: XIVTED_clean_linker_0, # of connection points: 2
#     Edge 79, Type (0, 0), BuildingBlock: XIVTED_clean_linker_0, # of connection points: 2
# Relax obj value: 0.276
# Max RMSD: 0.263
# Mean RMSD: 0.259
data_MOF--net-wfj--node1-TAGTUT_clean_sbu_3--edge1-XIVTED_clean_linker_0
_symmetry_space_group_name_H-M    P1
_symmetry_Int_Tables_number       1
_symmetry_cell_setting            triclinic
loop_
_symmetry_equiv_pos_as_xyz
'x, y, z'
_cell_length_a     63.83261
_cell_length_b     63.777023
_cell_length_c     15.921897
_cell_angle_alpha  89.493702
_cell_angle_beta   89.762417
_cell_angle_gamma 89.98392
loop_
_atom_site_label
_atom_site_type_symbol
_atom_site_fract_x
_atom_site_fract_y
_atom_site_fract_z
_atom_type_partial_charge
C0 C 0.15238 0.33508 0.41527 0.0
C1 C 0.21492 0.29636 0.50705 0.0
C2 C 0.19046 0.30109 0.76064 0.0
Mg3 Mg 0.11942 0.36486 0.5014 0.0
Mg4 Mg 0.1271 0.39292 0.67343 0.0
O5 O 0.12991 0.3673 0.61969 0.0
Mg6 Mg 0.15662 0.35161 0.60548 0.0
O7 O 0.18099 0.33285 0.58139 0.0
Mg8 Mg 0.16605 0.30526 0.57271 0.0
Mg9 Mg 0.20692 0.33271 0.63109 0.0
C10 C 0.15528 0.36759 0.8033 0.0
O11 O 0.17878 0.38049 0.59392 0.0
O12 O 0.0881 0.37809 0.54983 0.0
O13 O 0.21016 0.36612 0.62796 0.0
O14 O 0.13285 0.39855 0.46779 0.0
O15 O 0.0932 0.3941 0.67313 0.0
O16 O 0.14161 0.41413 0.58806 0.0
O17 O 0.13711 0.32272 0.61884 0.0
O18 O 0.10912 0.33075 0.54085 0.0
C19 C 0.11934 0.31798 0.58835 0.0
C20 C 0.08107 0.38725 0.61559 0.0
O21 O 0.16088 0.35387 0.74882 0.0
O22 O 0.19574 0.29113 0.51768 0.0
O23 O 0.14392 0.38361 0.78508 0.0
O24 O 0.17713 0.29486 0.70609 0.0
O25 O 0.22285 0.31258 0.54176 0.0
O26 O 0.20197 0.31713 0.74747 0.0
O27 O 0.15091 0.35048 0.46581 0.0
O28 O 0.15732 0.3167 0.44127 0.0
C29 C 0.14143 0.41367 0.50806 0.0
C30 C 0.19846 0.38188 0.6099 0.0
C31 C 0.36924 0.4403 0.74625 0.0
C32 C 0.335 0.37612 0.69912 0.0
C33 C 0.39174 0.34227 0.79705 0.0
Mg34 Mg 0.41254 0.45793 0.72945 0.0
Mg35 Mg 0.45311 0.43653 0.64123 0.0
O36 O 0.43164 0.43317 0.71909 0.0
Mg37 Mg 0.4095 0.41095 0.70493 0.0
O38 O 0.38555 0.39111 0.70046 0.0
Mg39 Mg 0.37415 0.39267 0.8174 0.0
Mg40 Mg 0.38026 0.36756 0.63633 0.0
C41 C 0.45628 0.38827 0.68992 0.0
O42 O 0.41134 0.40915 0.5618 0.0
O43 O 0.44047 0.47758 0.75963 0.0
O44 O 0.39684 0.37818 0.52468 0.0
O45 O 0.41837 0.46951 0.58986 0.0
O46 O 0.46854 0.46401 0.69453 0.0
O47 O 0.43872 0.44585 0.52796 0.0
O48 O 0.40552 0.41023 0.84454 0.0
O49 O 0.40919 0.44481 0.86604 0.0
C50 C 0.40652 0.42594 0.89375 0.0
C51 C 0.4598 0.47829 0.73905 0.0
O52 O 0.43696 0.38695 0.71364 0.0
O53 O 0.34251 0.38003 0.77184 0.0
O54 O 0.46418 0.40478 0.65543 0.0
O55 O 0.38669 0.35832 0.84118 0.0
O56 O 0.34669 0.37128 0.63668 0.0
O57 O 0.39091 0.34258 0.7168 0.0
O58 O 0.38524 0.43699 0.6998 0.0
O59 O 0.36159 0.42563 0.79194 0.0
C60 C 0.42815 0.46275 0.52483 0.0
C61 C 0.40652 0.39533 0.50696 0.0
C62 C 0.31496 0.61884 0.04136 0.0
C63 C 0.38466 0.58301 0.9846 0.0
C64 C 0.41384 0.63827 0.10187 0.0
Mg65 Mg 0.30223 0.66562 0.02891 0.0
Mg66 Mg 0.32745 0.70257 0.93463 0.0
O67 O 0.32864 0.68215 0.01884 0.0
Mg68 Mg 0.34812 0.65759 0.00347 0.0
O69 O 0.36535 0.63172 -0.00632 0.0
Mg70 Mg 0.36306 0.61958 0.10986 0.0
Mg71 Mg 0.391 0.63018 0.93747 0.0
C72 C 0.37524 0.70212 0.98278 0.0
O73 O 0.35004 0.65984 0.86028 0.0
O74 O 0.28505 0.69594 0.05203 0.0
O75 O 0.38169 0.64672 0.82397 0.0
O76 O 0.29246 0.6698 0.88822 0.0
O77 O 0.30137 0.7216 0.98014 0.0
O78 O 0.31768 0.68791 0.82391 0.0
O79 O 0.34819 0.65245 0.14252 0.0
O80 O 0.31486 0.66195 0.16671 0.0
C81 C 0.33299 0.65595 0.19312 0.0
C82 C 0.2861 0.7149 0.02568 0.0
O83 O 0.37472 0.68303 0.01081 0.0
O84 O 0.37541 0.58825 0.05327 0.0
O85 O 0.3598 0.71084 0.94456 0.0
O86 O 0.39775 0.63042 0.13945 0.0
O87 O 0.39189 0.5966 0.93236 0.0
O88 O 0.41405 0.64145 0.02264 0.0
O89 O 0.31967 0.63592 0.00289 0.0
O90 O 0.32895 0.60873 0.08225 0.0
C91 C 0.30062 0.67768 0.82136 0.0
C92 C 0.36423 0.65561 0.80554 0.0
C93 C 0.09037 0.59513 0.13841 0.0
C94 C 0.04837 0.53252 0.2202 0.0
C95 C 0.05376 0.55117 0.47081 0.0
Mg96 Mg 0.11869 0.6276 0.2358 0.0
Mg97 Mg 0.14793 0.61652 0.40342 0.0
O98 O 0.12251 0.61354 0.34837 0.0
Mg99 Mg 0.10653 0.58719 0.32885 0.0
O100 O 0.08702 0.56373 0.29886 0.0
Mg101 Mg 0.05993 0.5797 0.29293 0.0
Mg102 Mg 0.08566 0.53689 0.34158 0.0
C103 C 0.12286 0.5858 0.52751 0.0
O104 O 0.13473 0.5636 0.31228 0.0
O105 O 0.1304 0.65816 0.29555 0.0
O106 O 0.11877 0.53215 0.33432 0.0
O107 O 0.15311 0.61753 0.1976 0.0
O108 O 0.14722 0.65053 0.41548 0.0
O109 O 0.17003 0.60585 0.31187 0.0
O110 O 0.07774 0.60672 0.34855 0.0
O111 O 0.08425 0.63619 0.2779 0.0
C112 C 0.07215 0.62485 0.32411 0.0
C113 C 0.13948 0.66385 0.36332 0.0
O114 O 0.109 0.58088 0.47238 0.0
O115 O 0.04477 0.55192 0.23241 0.0
O116 O 0.13893 0.59725 0.51051 0.0
O117 O 0.04856 0.56603 0.42024 0.0
O118 O 0.06421 0.52305 0.25197 0.0
O119 O 0.07027 0.54029 0.45906 0.0
O120 O 0.10575 0.59597 0.18953 0.0
O121 O 0.07191 0.5904 0.16386 0.0
C122 C 0.16915 0.60897 0.23264 0.0
C123 C 0.13507 0.5434 0.3198 0.0
C124 C 0.88399 0.68699 0.48606 0.0
C125 C 0.91856 0.61823 0.44419 0.0
C126 C 0.8585 0.59135 0.55716 0.0
Mg127 Mg 0.83898 0.70332 0.49758 0.0
Mg128 Mg 0.79701 0.6799 0.41861 0.0
O129 O 0.82033 0.67719 0.48835 0.0
Mg130 Mg 0.8434 0.65617 0.46532 0.0
O131 O 0.86888 0.63825 0.45154 0.0
Mg132 Mg 0.88107 0.63992 0.56741 0.0
Mg133 Mg 0.87173 0.6134 0.39275 0.0
C134 C 0.79759 0.63067 0.45486 0.0
O135 O 0.83935 0.65435 0.32188 0.0
O136 O 0.80999 0.72022 0.54449 0.0
O137 O 0.85442 0.6237 0.28384 0.0
O138 O 0.83194 0.71662 0.36335 0.0
O139 O 0.78149 0.70362 0.49583 0.0
O140 O 0.8139 0.69099 0.31227 0.0
O141 O 0.84975 0.6559 0.60489 0.0
O142 O 0.84502 0.69005 0.62912 0.0
C143 C 0.84876 0.67137 0.65528 0.0
C144 C 0.7901 0.718 0.53995 0.0
O145 O 0.81715 0.62984 0.47572 0.0
O146 O 0.91231 0.62626 0.51369 0.0
O147 O 0.78856 0.6474 0.4283 0.0
O148 O 0.86694 0.60639 0.59835 0.0
O149 O 0.90565 0.6124 0.38757 0.0
O150 O 0.85814 0.59127 0.47707 0.0
O151 O 0.8661 0.6834 0.45406 0.0
O152 O 0.89319 0.67336 0.53261 0.0
C153 C 0.81662 0.71056 0.31845 0.0
C154 C 0.84394 0.64039 0.26691 0.0
C155 C 0.56024 0.61944 0.28458 0.0
C156 C 0.62856 0.65791 0.24281 0.0
C157 C 0.65792 0.59994 0.35079 0.0
Mg158 Mg 0.54474 0.57353 0.29307 0.0
Mg159 Mg 0.57821 0.53767 0.1766 0.0
O160 O 0.57349 0.55609 0.2735 0.0
Mg161 Mg 0.59316 0.58151 0.25782 0.0
O162 O 0.60956 0.60811 0.24679 0.0
Mg163 Mg 0.6075 0.61917 0.36298 0.0
Mg164 Mg 0.63471 0.61156 0.18879 0.0
C165 C 0.62546 0.54223 0.21928 0.0
O166 O 0.59515 0.57986 0.1146 0.0
O167 O 0.55767 0.54058 0.29256 0.0
O168 O 0.62566 0.59539 0.07638 0.0
O169 O 0.53512 0.56855 0.15217 0.0
O170 O 0.55873 0.51186 0.22151 0.0
O171 O 0.56132 0.55312 0.08019 0.0
O172 O 0.59247 0.58648 0.39692 0.0
O173 O 0.55869 0.57888 0.42526 0.0
C174 C 0.57725 0.58408 0.44889 0.0
C175 C 0.54869 0.52332 0.27287 0.0
O176 O 0.62204 0.55872 0.26327 0.0
O177 O 0.61997 0.65125 0.31121 0.0
O178 O 0.61147 0.53408 0.17267 0.0
O179 O 0.64234 0.60735 0.39295 0.0
O180 O 0.63524 0.64535 0.18639 0.0
O181 O 0.65757 0.5989 0.27089 0.0
O182 O 0.56457 0.60138 0.25505 0.0
O183 O 0.57377 0.62986 0.32635 0.0
C184 C 0.54355 0.56232 0.0831 0.0
C185 C 0.60886 0.5853 0.05927 0.0
C186 C 0.61954 0.31118 0.01936 0.0
C187 C 0.58939 0.38123 0.96521 0.0
C188 C 0.64715 0.40572 0.0958 0.0
Mg189 Mg 0.66372 0.29362 0.03478 0.0
Mg190 Mg 0.70702 0.31573 0.97 0.0
O191 O 0.68291 0.31864 0.03354 0.0
Mg192 Mg 0.66085 0.34042 0.00562 0.0
O193 O 0.63657 0.35916 0.9865 0.0
Mg194 Mg 0.62256 0.35763 0.09969 0.0
Mg195 Mg 0.63741 0.3845 0.92859 0.0
C196 C 0.70663 0.36479 0.00798 0.0
O197 O 0.66635 0.34168 0.86241 0.0
O198 O 0.69112 0.27326 0.07555 0.0
O199 O 0.65479 0.37357 0.82048 0.0
O200 O 0.67179 0.28432 0.89681 0.0
O201 O 0.72089 0.28821 0.02952 0.0
O202 O 0.69664 0.30623 0.8502 0.0
O203 O 0.65292 0.34034 0.14404 0.0
O204 O 0.65713 0.30588 0.16932 0.0
C205 C 0.65337 0.32464 0.19492 0.0
C206 C 0.71103 0.27316 0.06621 0.0
O207 O 0.68664 0.36592 0.01812 0.0
O208 O 0.59314 0.37231 0.03629 0.0
O209 O 0.71637 0.34791 0.98777 0.0
O210 O 0.63683 0.39101 0.13345 0.0
O211 O 0.60408 0.38739 0.91577 0.0
O212 O 0.65033 0.40556 0.01667 0.0
O213 O 0.63791 0.31479 -0.00756 0.0
O214 O 0.60966 0.3246 0.06378 0.0
C215 C 0.68371 0.29136 0.83792 0.0
C216 C 0.66339 0.35579 0.80545 0.0
C217 C 0.91254 0.4064 0.90381 0.0
C218 C 0.9572 0.46775 0.79192 0.0
C219 C 0.94893 0.44331 0.55761 0.0
Mg220 Mg 0.88304 0.37378 0.81106 0.0
Mg221 Mg 0.8545 0.3848 0.64104 0.0
O222 O 0.87979 0.38725 0.69691 0.0
Mg223 Mg 0.89642 0.41319 0.71357 0.0
O224 O 0.91645 0.43656 0.74001 0.0
Mg225 Mg 0.94296 0.41935 0.74558 0.0
Mg226 Mg 0.91838 0.46115 0.67826 0.0
C227 C 0.88023 0.41418 0.51506 0.0
O228 O 0.86906 0.43765 0.72751 0.0
O229 O 0.87078 0.3429 0.7538 0.0
O230 O 0.88556 0.46784 0.68925 0.0
O231 O 0.84958 0.38574 0.84677 0.0
O232 O 0.85521 0.35102 0.63156 0.0
O233 O 0.83277 0.39647 0.73096 0.0
O234 O 0.92414 0.39228 0.69737 0.0
O235 O 0.91666 0.36364 0.77213 0.0
C236 C 0.92905 0.37419 0.72468 0.0
C237 C 0.86247 0.33752 0.68399 0.0
O238 O 0.89423 0.41877 0.56996 0.0
O239 O 0.95941 0.44785 0.79439 0.0
O240 O 0.8638 0.40333 0.53256 0.0
O241 O 0.95452 0.43035 0.61515 0.0
O242 O 0.94206 0.4768 0.75324 0.0
O243 O 0.93106 0.45215 0.56048 0.0
O244 O 0.89709 0.40536 0.85311 0.0
O245 O 0.93103 0.41083 0.87761 0.0
C246 C 0.83384 0.39446 0.81063 0.0
C247 C 0.86917 0.45756 0.71185 0.0
C248 C 0.65517 0.82847 0.92955 0.0
C249 C 0.7189 0.79139 0.01114 0.0
C250 C 0.69612 0.79442 0.26857 0.0
Mg251 Mg 0.62199 0.85736 0.01919 0.0
Mg252 Mg 0.63024 0.88557 0.18979 0.0
O253 O 0.63287 0.85981 0.13685 0.0
Mg254 Mg 0.6598 0.84465 0.1204 0.0
O255 O 0.68447 0.82653 0.09365 0.0
Mg256 Mg 0.67029 0.79856 0.08419 0.0
Mg257 Mg 0.71092 0.82693 0.13845 0.0
C258 C 0.65918 0.86061 0.31797 0.0
O259 O 0.68112 0.8742 0.11066 0.0
O260 O 0.59085 0.87018 0.07008 0.0
O261 O 0.71307 0.8604 0.1394 0.0
O262 O 0.63432 0.8915 0.98432 0.0
O263 O 0.59636 0.88673 0.19195 0.0
O264 O 0.64368 0.90725 0.10334 0.0
O265 O 0.64114 0.81508 0.13388 0.0
O266 O 0.61247 0.82297 0.05978 0.0
C267 C 0.62321 0.81018 0.1054 0.0
C268 C 0.58406 0.87964 0.1355 0.0
O269 O 0.66452 0.84676 0.26356 0.0
O270 O 0.70004 0.78546 0.02485 0.0
O271 O 0.64777 0.87661 0.30006 0.0
O272 O 0.68237 0.78808 0.21595 0.0
O273 O 0.72661 0.8078 0.04518 0.0
O274 O 0.70744 0.81052 0.25379 0.0
O275 O 0.65362 0.84375 0.98067 0.0
O276 O 0.66054 0.81015 0.95464 0.0
C277 C 0.6427 0.90692 0.02344 0.0
C278 C 0.70084 0.876 0.12519 0.0
C279 C 0.86864 0.93313 0.29185 0.0
C280 C 0.83478 0.86807 0.24546 0.0
C281 C 0.89338 0.83575 0.33881 0.0
Mg282 Mg 0.91171 0.95063 0.26667 0.0
Mg283 Mg 0.95099 0.929 0.17083 0.0
O284 O 0.93094 0.92595 0.25494 0.0
Mg285 Mg 0.9085 0.90388 0.24446 0.0
O286 O 0.88445 0.88437 0.24299 0.0
Mg287 Mg 0.87421 0.88564 0.36191 0.0
Mg288 Mg 0.88003 0.86045 0.18028 0.0
C289 C 0.95457 0.88075 0.21852 0.0
O290 O 0.90904 0.90221 0.10082 0.0
O291 O 0.94026 0.97084 0.28765 0.0
O292 O 0.89542 0.87073 0.06597 0.0
O293 O 0.91442 0.96078 0.125 0.0
O294 O 0.96722 0.95688 0.21658 0.0
O295 O 0.93482 0.93754 0.06077 0.0
O296 O 0.90586 0.90336 0.38507 0.0
O297 O 0.91014 0.93802 0.40455 0.0
C298 C 0.90749 0.91924 0.43344 0.0
C299 C 0.95924 0.97147 0.26172 0.0
O300 O 0.9357 0.87966 0.24754 0.0
O301 O 0.84216 0.87297 0.3176 0.0
O302 O 0.9621 0.89722 0.18238 0.0
O303 O 0.88763 0.85135 0.38419 0.0
O304 O 0.84659 0.8627 0.18414 0.0
O305 O 0.89226 0.83632 0.25878 0.0
O306 O 0.88425 0.92961 0.2438 0.0
O307 O 0.86128 0.91867 0.33942 0.0
C308 C 0.92293 0.95353 0.05814 0.0
C309 C 0.90436 0.88815 0.04682 0.0
C310 C 0.81336 0.10916 0.54238 0.0
C311 C 0.88489 0.0793 0.49244 0.0
C312 C 0.90991 0.1383 0.59783 0.0
Mg313 Mg 0.79489 0.15337 0.53188 0.0
Mg314 Mg 0.81658 0.19258 0.43534 0.0
O315 O 0.81973 0.17259 0.51964 0.0
Mg316 Mg 0.84196 0.15054 0.50368 0.0
O317 O 0.86189 0.12665 0.49556 0.0
Mg318 Mg 0.86103 0.11529 0.6131 0.0
Mg319 Mg 0.88711 0.12616 0.43657 0.0
C320 C 0.86452 0.19711 0.47942 0.0
O321 O 0.84363 0.15263 0.36049 0.0
O322 O 0.77502 0.18235 0.55931 0.0
O323 O 0.87595 0.14139 0.32324 0.0
O324 O 0.7839 0.15747 0.39237 0.0
O325 O 0.78937 0.2089 0.48524 0.0
O326 O 0.80774 0.17681 0.32564 0.0
O327 O 0.84252 0.14611 0.64318 0.0
O328 O 0.80805 0.15027 0.66777 0.0
C329 C 0.82692 0.14716 0.69379 0.0
C330 C 0.77492 0.20144 0.53323 0.0
O331 O 0.86596 0.17825 0.50901 0.0
O332 O 0.87611 0.08484 0.56159 0.0
O333 O 0.84802 0.20418 0.44303 0.0
O334 O 0.89474 0.12981 0.63943 0.0
O335 O 0.89032 0.09263 0.43576 0.0
O336 O 0.90945 0.13999 0.51796 0.0
O337 O 0.81613 0.1262 0.50132 0.0
O338 O 0.82819 0.10134 0.58663 0.0
C339 C 0.79116 0.1658 0.32475 0.0
C340 C 0.85795 0.14917 0.30542 0.0
C341 C 0.58815 0.09309 0.65025 0.0
C342 C 0.54388 0.0322 0.72792 0.0
C343 C 0.55058 0.05224 0.98646 0.0
Mg344 Mg 0.61692 0.12544 0.74818 0.0
Mg345 Mg 0.64436 0.1149 0.92117 0.0
O346 O 0.62007 0.11091 0.86006 0.0
Mg347 Mg 0.60342 0.08493 0.84087 0.0
O348 O 0.5832 0.06206 0.81081 0.0
Mg349 Mg 0.55667 0.07893 0.80406 0.0
Mg350 Mg 0.58064 0.03521 0.85291 0.0
C351 C 0.61885 0.0833 0.04026 0.0
O352 O 0.63086 0.0601 0.82674 0.0
O353 O 0.62811 0.15615 0.80935 0.0
O354 O 0.61356 0.0293 0.84754 0.0
O355 O 0.65175 0.1154 0.71456 0.0
O356 O 0.64231 0.14866 0.93467 0.0
O357 O 0.66793 0.10584 0.83363 0.0
O358 O 0.5752 0.10551 0.85844 0.0
O359 O 0.58253 0.13454 0.78632 0.0
C360 C 0.57007 0.12364 0.8324 0.0
C361 C 0.63559 0.16191 0.88013 0.0
O362 O 0.60519 0.07859 0.98411 0.0
O363 O 0.54042 0.05155 0.74251 0.0
O364 O 0.63489 0.09495 0.02522 0.0
O365 O 0.54537 0.06679 0.93449 0.0
O366 O 0.5594 0.02233 0.76027 0.0
O367 O 0.56536 0.03939 0.97036 0.0
O368 O 0.60348 0.09376 0.70175 0.0
O369 O 0.56951 0.08877 0.67509 0.0
C370 C 0.66783 0.10813 0.75386 0.0
C371 C 0.63036 0.03988 0.83432 0.0
C372 C 0.3793 0.1947 0.97316 0.0
C373 C 0.41534 0.12565 0.93247 0.0
C374 C 0.3561 0.09803 0.04129 0.0
Mg375 Mg 0.33354 0.21011 0.98757 0.0
Mg376 Mg 0.29215 0.1859 0.90819 0.0
O377 O 0.31568 0.18344 0.9767 0.0
Mg378 Mg 0.3393 0.16304 0.95187 0.0
O379 O 0.36527 0.14564 0.93691 0.0
Mg380 Mg 0.37731 0.14716 0.05281 0.0
Mg381 Mg 0.36882 0.12094 0.87771 0.0
C382 C 0.29406 0.13651 0.93947 0.0
O383 O 0.33531 0.1615 0.80885 0.0
O384 O 0.30426 0.22603 0.03581 0.0
O385 O 0.35119 0.13131 0.76975 0.0
O386 O 0.32575 0.2239 0.85467 0.0
O387 O 0.27606 0.20894 0.98718 0.0
O388 O 0.30876 0.19772 0.80253 0.0
O389 O 0.34574 0.16252 0.09068 0.0
O390 O 0.34005 0.19639 0.11771 0.0
C391 C 0.3444 0.17772 0.14222 0.0
C392 C 0.28442 0.2234 0.03159 0.0
O393 O 0.31369 0.13594 0.95972 0.0
O394 O 0.40857 0.13366 0.00112 0.0
O395 O 0.28461 0.15322 0.91533 0.0
O396 O 0.36395 0.11327 0.08324 0.0
O397 O 0.4029 0.12015 0.87366 0.0
O398 O 0.35575 0.0982 0.96117 0.0
O399 O 0.36119 0.19112 0.94299 0.0
O400 O 0.38907 0.18077 0.01639 0.0
C401 C 0.3107 0.21736 0.80942 0.0
C402 C 0.34024 0.14775 0.75352 0.0
C403 C 0.0726 0.09551 0.9145 0.0
C404 C 0.02212 0.03873 0.77362 0.0
C405 C 0.04064 0.06998 0.55071 0.0
Mg406 Mg 0.1055 0.12787 0.82992 0.0
Mg407 Mg 0.13177 0.11914 0.6522 0.0
O408 O 0.10715 0.11618 0.7137 0.0
Mg409 Mg 0.08853 0.09122 0.72565 0.0
O410 O 0.06707 0.06847 0.74761 0.0
Mg411 Mg 0.04161 0.08701 0.75202 0.0
Mg412 Mg 0.0646 0.04518 0.68013 0.0
C413 C 0.10391 0.09313 0.52597 0.0
O414 O 0.11436 0.06485 0.7342 0.0
O415 O 0.11956 0.15884 0.77808 0.0
O416 O 0.09655 0.03557 0.69692 0.0
O417 O 0.13973 0.11429 0.85739 0.0
O418 O 0.13269 0.15302 0.64933 0.0
O419 O 0.15486 0.10641 0.73433 0.0
O420 O 0.06196 0.11436 0.71736 0.0
O421 O 0.07222 0.1408 0.79751 0.0
C422 C 0.05844 0.13201 0.75141 0.0
C423 C 0.12736 0.16549 0.70835 0.0
O424 O 0.0902 0.08836 0.58235 0.0
O425 O 0.02187 0.05849 0.78666 0.0
O426 O 0.12105 0.10284 0.54166 0.0
O427 O 0.0328 0.08074 0.61107 0.0
O428 O 0.03733 0.02975 0.73524 0.0
O429 O 0.05585 0.05739 0.56235 0.0
O430 O 0.0883 0.09659 0.86422 0.0
O431 O 0.05387 0.09179 0.88829 0.0
C432 C 0.15524 0.10699 0.81446 0.0
C433 C 0.11333 0.04498 0.71971 0.0
C434 C 0.12616 0.81435 0.50216 0.0
C435 C 0.09098 0.88198 0.45351 0.0
C436 C 0.14718 0.91023 0.57976 0.0
Mg437 Mg 0.17138 0.80005 0.51475 0.0
Mg438 Mg 0.21374 0.82519 0.45696 0.0
O439 O 0.18885 0.82623 0.51643 0.0
Mg440 Mg 0.16537 0.84641 0.4887 0.0
O441 O 0.13979 0.86336 0.4705 0.0
Mg442 Mg 0.12627 0.86056 0.58431 0.0
Mg443 Mg 0.1384 0.88866 0.41239 0.0
C444 C 0.20951 0.874 0.49491 0.0
O445 O 0.17054 0.84826 0.34529 0.0
O446 O 0.19982 0.78139 0.55442 0.0
O447 O 0.15613 0.87894 0.30305 0.0
O448 O 0.18032 0.79276 0.37514 0.0
O449 O 0.22912 0.79825 0.51533 0.0
O450 O 0.20457 0.8162 0.33559 0.0
O451 O 0.1577 0.84534 0.62699 0.0
O452 O 0.16392 0.81112 0.65084 0.0
C453 C 0.1591 0.82957 0.67726 0.0
C454 C 0.21976 0.78241 0.54858 0.0
O455 O 0.1894 0.87373 0.50218 0.0
O456 O 0.09581 0.8733 0.52388 0.0
O457 O 0.22059 0.85782 0.47678 0.0
O458 O 0.13831 0.89463 0.61747 0.0
O459 O 0.10485 0.8891 0.40233 0.0
O460 O 0.14995 0.91058 0.50035 0.0
O461 O 0.14413 0.81934 0.4744 0.0
O462 O 0.11553 0.82689 0.54788 0.0
C463 C 0.19218 0.80117 0.31885 0.0
C464 C 0.16617 0.86192 0.28808 0.0
C465 C 0.41483 0.91207 0.38999 0.0
C466 C 0.46097 0.97068 0.26626 0.0
C467 C 0.45271 0.944 0.04991 0.0
Mg468 Mg 0.38457 0.87864 0.30618 0.0
Mg469 Mg 0.35695 0.88688 0.13128 0.0
O470 O 0.38174 0.8907 0.18946 0.0
Mg471 Mg 0.39906 0.91654 0.19988 0.0
O472 O 0.41976 0.94007 0.22012 0.0
Mg473 Mg 0.44597 0.92167 0.22974 0.0
Mg474 Mg 0.42203 0.96373 0.15072 0.0
C475 C 0.38322 0.91483 0.00193 0.0
O476 O 0.3723 0.94191 0.20816 0.0
O477 O 0.37219 0.84688 0.25683 0.0
O478 O 0.3893 0.97104 0.16121 0.0
O479 O 0.35121 0.89164 0.33674 0.0
O480 O 0.35867 0.853 0.12903 0.0
O481 O 0.33458 0.89954 0.21696 0.0
O482 O 0.42621 0.89447 0.18996 0.0
O483 O 0.41781 0.86724 0.27141 0.0
C484 C 0.43056 0.87671 0.22201 0.0
C485 C 0.36524 0.84037 0.18619 0.0
O486 O 0.39697 0.92005 0.05671 0.0
O487 O 0.46319 0.95077 0.27086 0.0
O488 O 0.36674 0.90411 0.0199 0.0
O489 O 0.45786 0.9279 0.09321 0.0
O490 O 0.44595 0.97947 0.22571 0.0
O491 O 0.43333 0.94789 0.0431 0.0
O492 O 0.3995 0.91057 0.33915 0.0
O493 O 0.43346 0.91615 0.36402 0.0
C494 C 0.33549 0.89936 0.29707 0.0
C495 C 0.37277 0.96152 0.18706 0.0
H496 H 0.11626 0.28776 0.46884 0.0
H497 H 0.12034 0.1971 0.82016 0.0
H498 H 0.11088 0.29849 0.73469 0.0
H499 H 0.13247 0.18605 0.55717 0.0
H500 H 0.11426 0.23399 0.788 0.0
H501 H 0.1178 0.2498 0.49692 0.0
C502 C 0.11448 0.28202 0.53272 0.0
C503 C 0.11298 0.29607 0.59957 0.0
C504 C 0.11834 0.22354 0.73726 0.0
C505 C 0.1157 0.25309 0.63256 0.0
C506 C 0.12198 0.20245 0.75571 0.0
C507 C 0.12698 0.18838 0.69137 0.0
C508 C 0.11959 0.23071 0.65372 0.0
C509 C 0.1288 0.19631 0.60897 0.0
C510 C 0.11579 0.26044 0.54895 0.0
C511 C 0.11163 0.28803 0.68153 0.0
N512 N 0.125 0.21693 0.59244 0.0
N513 N 0.11317 0.2671 0.69581 0.0
H514 H 0.49054 0.37243 0.61107 0.0
H515 H 0.55287 0.36838 0.04422 0.0
H516 H 0.4584 0.37291 0.84955 0.0
H517 H 0.57692 0.39092 0.80592 0.0
H518 H 0.51905 0.3614 0.97645 0.0
H519 H 0.52357 0.36665 0.68416 0.0
C520 C 0.49031 0.37023 0.67865 0.0
C521 C 0.47183 0.37357 0.72447 0.0
C522 C 0.53182 0.36786 0.9395 0.0
C523 C 0.50958 0.36801 0.80866 0.0
C524 C 0.55102 0.37211 0.97818 0.0
C525 C 0.56783 0.38039 0.93099 0.0
C526 C 0.52961 0.37154 0.85292 0.0
C527 C 0.56452 0.38467 0.84536 0.0
C528 C 0.50922 0.36742 0.72053 0.0
C529 C 0.47238 0.37059 0.81198 0.0
N530 N 0.54591 0.38007 0.80924 0.0
N531 N 0.49112 0.36864 0.85179 0.0
H532 H 0.37518 0.80702 0.2903 0.0
H533 H 0.39692 0.73258 0.89921 0.0
H534 H 0.36592 0.82338 0.02932 0.0
H535 H 0.38468 0.70784 0.147 0.0
H536 H 0.3982 0.76785 0.9571 0.0
H537 H 0.38733 0.77214 0.24702 0.0
C538 C 0.37545 0.80324 0.22411 0.0
C539 C 0.36923 0.81816 0.16349 0.0
C540 C 0.3959 0.75465 -0.00059 0.0
C541 C 0.38402 0.77869 0.11378 0.0
C542 C 0.39578 0.73443 0.96668 0.0
C543 C 0.39005 0.71735 0.01796 0.0
C544 C 0.39055 0.75766 0.08411 0.0
C545 C 0.3888 0.72065 0.10499 0.0
C546 C 0.38263 0.78345 0.19956 0.0
C547 C 0.37021 0.81242 0.07858 0.0
N548 N 0.38819 0.74056 0.13519 0.0
N549 N 0.37757 0.79325 0.05642 0.0
H550 H 0.93776 0.61147 0.29187 0.0
H551 H 0.04227 0.63724 0.20968 0.0
H552 H 0.95152 0.62655 0.54962 0.0
H553 H 0.05142 0.62247 0.47151 0.0
H554 H 0.00415 0.63642 0.23309 0.0
H555 H 0.97469 0.61639 0.25648 0.0
C556 C 0.94854 0.6157 0.34127 0.0
C557 C 0.94138 0.6186 0.42405 0.0
C558 C 0.01448 0.63345 0.28555 0.0
C559 C 0.98381 0.62499 0.38306 0.0
C560 C 0.03622 0.63443 0.27246 0.0
C561 C 0.04993 0.63015 0.33898 0.0
C562 C 0.00653 0.62811 0.36572 0.0
C563 C 0.04133 0.62604 0.41876 0.0
C564 C 0.96963 0.6189 0.32054 0.0
C565 C 0.95621 0.62415 0.485 0.0
N566 N 0.02024 0.62509 0.42986 0.0
N567 N 0.97666 0.62706 0.46334 0.0
H568 H 0.89648 0.71443 0.60843 0.0
H569 H 0.8863 0.82158 0.50128 0.0
H570 H 0.88942 0.70823 0.34081 0.0
H571 H 0.9136 0.80318 0.26462 0.0
H572 H 0.8893 0.78512 0.55093 0.0
H573 H 0.90412 0.75208 0.58789 0.0
C574 C 0.89706 0.72093 0.54538 0.0
C575 C 0.89244 0.70835 0.476 0.0
C576 C 0.89521 0.78923 0.48914 0.0
C577 C 0.90076 0.75104 0.45218 0.0
C578 C 0.89347 0.81006 0.46069 0.0
C579 C 0.89936 0.81542 0.3781 0.0
C580 C 0.90282 0.77379 0.43426 0.0
C581 C 0.90846 0.79977 0.32818 0.0
C582 C 0.90111 0.7424 0.53379 0.0
C583 C 0.89296 0.71746 0.39573 0.0
N584 N 0.90949 0.77967 0.35636 0.0
N585 N 0.89707 0.7382 0.38605 0.0
H586 H 0.54621 0.65325 0.19525 0.0
H587 H 0.4254 0.62111 0.25395 0.0
H588 H 0.52493 0.60273 0.35524 0.0
H589 H 0.44827 0.66115 0.05382 0.0
H590 H 0.46075 0.62017 0.31325 0.0
H591 H 0.5095 0.66209 0.16432 0.0
C592 C 0.53376 0.64429 0.22498 0.0
C593 C 0.5385 0.62713 0.27702 0.0
C594 C 0.45795 0.62941 0.25703 0.0
C595 C 0.49663 0.63694 0.24185 0.0
C596 C 0.43771 0.63009 0.22346 0.0
C597 C 0.43384 0.64103 0.14814 0.0
C598 C 0.47444 0.63987 0.21544 0.0
C599 C 0.45052 0.6523 0.11142 0.0
C600 C 0.51286 0.64922 0.20701 0.0
C601 C 0.52189 0.61586 0.31359 0.0
N602 N 0.47007 0.65127 0.14492 0.0
N603 N 0.50171 0.62087 0.29498 0.0
H604 H 0.60475 0.29355 0.87888 0.0
H605 H 0.64211 0.18009 0.0341 0.0
H606 H 0.62136 0.27974 0.13515 0.0
H607 H 0.62299 0.19471 0.78033 0.0
H608 H 0.63324 0.21594 0.07479 0.0
H609 H 0.60766 0.25634 0.8459 0.0
C610 C 0.60801 0.28246 0.92912 0.0
C611 C 0.6123 0.28955 0.01019 0.0
C612 C 0.63102 0.21127 0.01021 0.0
C613 C 0.61703 0.24713 0.97219 0.0
C614 C 0.63631 0.19086 0.98664 0.0
C615 C 0.63333 0.18428 0.90353 0.0
C616 C 0.6227 0.22524 0.95028 0.0
C617 C 0.62557 0.19897 0.84512 0.0
C618 C 0.61013 0.26127 0.91001 0.0
C619 C 0.61739 0.27473 0.0724 0.0
N620 N 0.62051 0.21867 0.86967 0.0
N621 N 0.61994 0.25421 0.05185 0.0
H622 H 0.95892 0.3706 0.84557 0.0
H623 H 0.05021 0.38033 0.50097 0.0
H624 H 0.94898 0.36759 0.57861 0.0
H625 H 0.05993 0.39167 0.76493 0.0
H626 H 0.01343 0.37308 0.53 0.0
H627 H 0.9968 0.37379 0.81996 0.0
C628 C 0.96486 0.36966 0.78187 0.0
C629 C 0.95105 0.36838 0.71402 0.0
C630 C 0.02355 0.37727 0.58164 0.0
C631 C 0.99388 0.37298 0.68397 0.0
C632 C 0.04455 0.38157 0.56498 0.0
C633 C 0.0582 0.38664 0.63058 0.0
C634 C 0.01608 0.37786 0.66465 0.0
C635 C 0.04994 0.38798 0.7123 0.0
C636 C 0.98636 0.37192 0.7671 0.0
C637 C 0.95928 0.36813 0.63243 0.0
N638 N 0.02943 0.38347 0.72715 0.0
N639 N 0.98015 0.37058 0.6196 0.0
H640 H 0.64077 0.67778 0.09703 0.0
H641 H 0.60939 0.79249 0.24964 0.0
H642 H 0.61451 0.69016 0.34208 0.0
H643 H 0.62555 0.77825 -0.00631 0.0
H644 H 0.6099 0.75499 0.28393 0.0
H645 H 0.63572 0.71456 0.05903 0.0
C646 C 0.63415 0.68823 0.14335 0.0
C647 C 0.6281 0.68074 0.22316 0.0
C648 C 0.61284 0.75995 0.21974 0.0
C649 C 0.62198 0.72301 0.17914 0.0
C650 C 0.61223 0.78131 0.19998 0.0
C651 C 0.61683 0.78829 0.1183 0.0
C652 C 0.61863 0.74551 0.1577 0.0
C653 C 0.62131 0.77336 0.05681 0.0
C654 C 0.63108 0.70924 0.12115 0.0
C655 C 0.61948 0.69515 0.27998 0.0
N656 N 0.62232 0.75265 0.07795 0.0
N657 N 0.61669 0.71555 0.25687 0.0
H658 H 0.98591 0.86263 0.12843 0.0
H659 H 0.07554 0.89425 0.30109 0.0
H660 H 0.96044 0.86717 0.37852 0.0
H661 H 0.05698 0.86386 0.53339 0.0
H662 H 0.0421 0.88479 0.24056 0.0
H663 H 0.02085 0.85834 0.18804 0.0
C664 C 0.98757 0.86169 0.19607 0.0
C665 C 0.97045 0.86589 0.24865 0.0
C666 C 0.04544 0.87982 0.3043 0.0
C667 C 0.0103 0.86264 0.31678 0.0
C668 C 0.06441 0.88567 0.33974 0.0
C669 C 0.06924 0.87976 0.42252 0.0
C670 C 0.03101 0.868 0.35175 0.0
C671 C 0.05398 0.86874 0.46928 0.0
C672 C 0.00757 0.8599 0.23004 0.0
C673 C 0.97337 0.86434 0.33584 0.0
N674 N 0.03546 0.8633 0.43332 0.0
N675 N 0.99312 0.86361 0.36751 0.0
H676 H 0.87817 0.20386 0.63826 0.0
H677 H 0.85745 0.322 0.52597 0.0
H678 H 0.88118 0.22897 0.38654 0.0
H679 H 0.87472 0.30308 0.77747 0.0
H680 H 0.86707 0.2874 0.47613 0.0
H681 H 0.88132 0.23943 0.69315 0.0
C682 C 0.88076 0.21672 0.5945 0.0
C683 C 0.87893 0.21357 0.50768 0.0
C684 C 0.86883 0.29078 0.54226 0.0
C685 C 0.88155 0.25421 0.5697 0.0
C686 C 0.86297 0.31049 0.57114 0.0
C687 C 0.86509 0.31551 0.65633 0.0
C688 C 0.87663 0.27571 0.59888 0.0
C689 C 0.87268 0.29989 0.71133 0.0
C690 C 0.88207 0.23711 0.62592 0.0
C691 C 0.88222 0.23081 0.45396 0.0
N692 N 0.87805 0.28064 0.68177 0.0
N693 N 0.88264 0.25048 0.48571 0.0
H694 H 0.54068 0.13552 0.71517 0.0
H695 H 0.44648 0.12812 0.04955 0.0
H696 H 0.54912 0.12314 0.97928 0.0
H697 H 0.43677 0.12264 0.78253 0.0
H698 H 0.48412 0.13079 0.02444 0.0
H699 H 0.50244 0.13647 0.73826 0.0
C700 C 0.5345 0.13372 0.77829 0.0
C701 C 0.54798 0.1296 0.84575 0.0
C702 C 0.47379 0.12893 0.97125 0.0
C703 C 0.50456 0.13008 0.87229 0.0
C704 C 0.45226 0.12732 0.98559 0.0
C705 C 0.43837 0.12502 0.91815 0.0
C706 C 0.48163 0.12851 0.88871 0.0
C707 C 0.44687 0.12417 0.83656 0.0
C708 C 0.51273 0.13391 0.79128 0.0
C709 C 0.53922 0.12664 0.9259 0.0
N710 N 0.46794 0.12604 0.82406 0.0
N711 N 0.51812 0.12691 0.93691 0.0
H712 H 0.38148 0.32962 0.95765 0.0
H713 H 0.41008 0.20927 0.86914 0.0
H714 H 0.41171 0.30809 0.73134 0.0
H715 H 0.36597 0.22907 0.05777 0.0
H716 H 0.41808 0.24625 0.83779 0.0
H717 H 0.38305 0.2938 0.01453 0.0
C718 C 0.38886 0.31749 0.92063 0.0
C719 C 0.39624 0.32186 0.8391 0.0
C720 C 0.40693 0.24251 0.88714 0.0
C721 C 0.398 0.2808 0.90373 0.0
C722 C 0.40253 0.22144 0.9054 0.0
C723 C 0.38746 0.21626 0.96625 0.0
C724 C 0.39615 0.25842 0.93018 0.0
C725 C 0.37774 0.23252 0.01051 0.0
C726 C 0.38962 0.29701 0.95293 0.0
C727 C 0.40558 0.30543 0.79403 0.0
N728 N 0.38215 0.25288 -0.00869 0.0
N729 N 0.40603 0.28565 0.8266 0.0
H730 H 0.92454 0.12519 0.75261 0.0
H731 H 0.04176 0.15831 0.63448 0.0
H732 H 0.9413 0.16349 0.53795 0.0
H733 H 0.02589 0.12248 0.85607 0.0
H734 H 0.0044 0.16489 0.61044 0.0
H735 H 0.96055 0.1285 0.80433 0.0
C736 C 0.93561 0.1347 0.71735 0.0
C737 C 0.92989 0.14383 0.64016 0.0
C738 C 0.00903 0.15593 0.66539 0.0
C739 C 0.97124 0.14744 0.69836 0.0
C740 C 0.03037 0.15235 0.67935 0.0
C741 C 0.03682 0.14009 0.74782 0.0
C742 C 0.99401 0.14682 0.71948 0.0
C743 C 0.02148 0.13221 0.80303 0.0
C744 C 0.95623 0.13647 0.74662 0.0
C745 C 0.94501 0.1559 0.59713 0.0
N746 N 0.00078 0.1355 0.78721 0.0
N747 N 0.96496 0.15712 0.62618 0.0
H748 H 0.1477 0.68211 0.51597 0.0
H749 H 0.11285 0.79645 0.35984 0.0
H750 H 0.12744 0.69681 0.26377 0.0
H751 H 0.12907 0.78255 0.61648 0.0
H752 H 0.11555 0.75922 0.32695 0.0
H753 H 0.14045 0.71843 0.55596 0.0
C754 C 0.14201 0.693 0.4687 0.0
C755 C 0.1382 0.68633 0.38627 0.0
C756 C 0.11803 0.76414 0.39106 0.0
C757 C 0.12945 0.72779 0.43217 0.0
C758 C 0.1161 0.78534 0.41004 0.0
C759 C 0.12016 0.79238 0.49135 0.0
C760 C 0.12456 0.7499 0.45357 0.0
C761 C 0.12522 0.77756 0.55357 0.0
C762 C 0.13764 0.71367 0.49187 0.0
C763 C 0.1306 0.70114 0.32807 0.0
N764 N 0.12755 0.75699 0.53321 0.0
N765 N 0.12646 0.72108 0.35218 0.0
H766 H 0.5628 0.88719 0.28268 0.0
H767 H 0.45072 0.86791 0.07853 0.0
H768 H 0.55324 0.87164 0.02213 0.0
H769 H 0.45974 0.87289 0.34551 0.0
H770 H 0.4886 0.86779 0.05818 0.0
H771 H 0.5252 0.88251 0.308 0.0
C772 C 0.55279 0.88307 0.2306 0.0
C773 C 0.56119 0.87982 0.15011 0.0
C774 C 0.48241 0.86843 0.12153 0.0
C775 C 0.51835 0.87406 0.17904 0.0
C776 C 0.46082 0.86819 0.13308 0.0
C777 C 0.45231 0.86995 0.21378 0.0
C778 C 0.49556 0.87097 0.19118 0.0
C779 C 0.46587 0.87098 0.28253 0.0
C780 C 0.53139 0.88015 0.24536 0.0
C781 C 0.5475 0.87427 0.08524 0.0
N782 N 0.48694 0.87178 0.26961 0.0
N783 N 0.52681 0.87156 0.10119 0.0
H784 H 0.15845 0.30714 0.28786 0.0
H785 H 0.15362 0.39566 0.93108 0.0
H786 H 0.14552 0.37251 0.33492 0.0
H787 H 0.16597 0.33042 0.87966 0.0
H788 H 0.15331 0.38764 0.08066 0.0
H789 H 0.16221 0.31529 0.1386 0.0
C790 C 0.15615 0.32317 0.26679 0.0
C791 C 0.15168 0.33919 0.32411 0.0
C792 C 0.15628 0.37508 0.03682 0.0
C793 C 0.15632 0.34862 0.15364 0.0
C794 C 0.15657 0.37967 0.95135 0.0
C795 C 0.15954 0.36363 0.89282 0.0
C796 C 0.15885 0.35427 0.06404 0.0
C797 C 0.16355 0.34326 0.92266 0.0
C798 C 0.15848 0.32782 0.18162 0.0
C799 C 0.14895 0.35966 0.29316 0.0
N800 N 0.16282 0.33909 0.00642 0.0
N801 N 0.1514 0.36379 0.21004 0.0
H802 H 0.40522 0.43385 0.43386 0.0
H803 H 0.40331 0.38797 0.97219 0.0
H804 H 0.41342 0.36832 0.37806 0.0
H805 H 0.40872 0.45428 0.02216 0.0
H806 H 0.40532 0.38075 0.12169 0.0
H807 H 0.40608 0.44198 0.28408 0.0
C808 C 0.40792 0.42127 0.39006 0.0
C809 C 0.40976 0.40048 0.41808 0.0
C810 C 0.4061 0.39688 0.10006 0.0
C811 C 0.40978 0.40947 0.24698 0.0
C812 C 0.4048 0.40107 0.01463 0.0
C813 C 0.40592 0.4218 0.98461 0.0
C814 C 0.40839 0.41353 0.1561 0.0
C815 C 0.40783 0.43807 0.04267 0.0
C816 C 0.40806 0.42587 0.30458 0.0
C817 C 0.41208 0.38458 0.35873 0.0
N818 N 0.40902 0.43358 0.12598 0.0
N819 N 0.41193 0.38941 0.27568 0.0
H820 H 0.37093 0.65125 0.26891 0.0
H821 H 0.32621 0.65081 0.73371 0.0
H822 H 0.30507 0.65943 0.32377 0.0
H823 H 0.39084 0.66423 0.67476 0.0
H824 H 0.318 0.65158 0.5844 0.0
H825 H 0.37841 0.65266 0.41832 0.0
C826 C 0.35799 0.6532 0.31237 0.0
C827 C 0.3373 0.65525 0.2838 0.0
C828 C 0.33391 0.65472 0.60411 0.0
C829 C 0.34588 0.65699 0.45491 0.0
C830 C 0.33853 0.65464 0.68932 0.0
C831 C 0.35906 0.6582 0.71643 0.0
C832 C 0.35005 0.658 0.54564 0.0
C833 C 0.37474 0.66171 0.65618 0.0
C834 C 0.36234 0.65417 0.39764 0.0
C835 C 0.32123 0.65782 0.34312 0.0
N836 N 0.36992 0.66146 0.57326 0.0
N837 N 0.32587 0.65858 0.42617 0.0
H838 H 0.15101 0.58515 0.65587 0.0
H839 H 0.06222 0.59068 0.01021 0.0
H840 H 0.0851 0.5777 0.60424 0.0
H841 H 0.12829 0.59882 0.058 0.0
H842 H 0.07018 0.58499 0.86216 0.0
H843 H 0.14299 0.58725 0.8052 0.0
C844 C 0.13486 0.58354 0.67612 0.0
C845 C 0.11868 0.58148 0.61733 0.0
C846 C 0.08292 0.58811 0.90499 0.0
C847 C 0.10933 0.58438 0.78842 0.0
C848 C 0.07839 0.59156 -0.01047 0.0
C849 C 0.09462 0.59522 0.04696 0.0
C850 C 0.10383 0.5883 0.87748 0.0
C851 C 0.11525 0.59609 0.01624 0.0
C852 C 0.13028 0.58492 0.76145 0.0
C853 C 0.09807 0.57931 0.64731 0.0
N854 N 0.11925 0.59255 0.93373 0.0
N855 N 0.09395 0.58112 0.73081 0.0
H856 H 0.83993 0.61207 0.14107 0.0
H857 H 0.84585 0.69992 0.78183 0.0
H858 H 0.83926 0.67853 0.19014 0.0
H859 H 0.85105 0.63342 0.73601 0.0
H860 H 0.84134 0.69245 0.9311 0.0
H861 H 0.84033 0.61968 -0.0092 0.0
C862 C 0.83947 0.62828 0.1201 0.0
C863 C 0.83961 0.64472 0.17797 0.0
C864 C 0.84353 0.67951 0.88837 0.0
C865 C 0.84049 0.65353 0.00656 0.0
C866 C 0.84626 0.68376 0.80319 0.0
C867 C 0.84881 0.66726 0.74631 0.0
C868 C 0.84333 0.65863 0.91679 0.0
C869 C 0.84917 0.64663 0.77757 0.0
C870 C 0.83983 0.63261 0.0344 0.0
C871 C 0.8389 0.6654 0.14767 0.0
N872 N 0.84637 0.6429 0.8608 0.0
N873 N 0.83962 0.66924 0.0638 0.0
H874 H 0.61541 0.58894 0.52255 0.0
H875 H 0.5709 0.59087 0.98861 0.0
H876 H 0.54944 0.58278 0.58026 0.0
H877 H 0.63527 0.57649 0.92942 0.0
H878 H 0.56279 0.59138 0.83897 0.0
H879 H 0.62304 0.58857 0.67207 0.0
C880 C 0.60249 0.58769 0.56661 0.0
C881 C 0.58173 0.58581 0.53893 0.0
C882 C 0.57861 0.58777 0.85873 0.0
C883 C 0.59045 0.58523 0.70983 0.0
C884 C 0.58317 0.58719 0.94393 0.0
C885 C 0.6036 0.58296 0.97075 0.0
C886 C 0.59468 0.58425 0.80035 0.0
C887 C 0.61924 0.57943 0.91071 0.0
C888 C 0.60691 0.58732 0.65191 0.0
C889 C 0.56566 0.58419 0.59892 0.0
N890 N 0.61444 0.58014 0.82786 0.0
N891 N 0.57038 0.58392 0.68186 0.0
H892 H 0.66019 0.31712 0.73647 0.0
H893 H 0.65103 0.3627 0.27201 0.0
H894 H 0.67103 0.38202 0.67219 0.0
H895 H 0.65632 0.29635 0.32543 0.0
H896 H 0.65602 0.36987 0.42037 0.0
H897 H 0.65837 0.3088 0.58753 0.0
C898 C 0.66302 0.32947 0.69095 0.0
C899 C 0.66631 0.35017 0.71669 0.0
C900 C 0.65607 0.35374 0.39968 0.0
C901 C 0.66291 0.34106 0.54624 0.0
C902 C 0.65301 0.34959 0.31496 0.0
C903 C 0.65334 0.32886 0.28596 0.0
C904 C 0.65932 0.33707 0.45615 0.0
C905 C 0.65599 0.31257 0.34488 0.0
C906 C 0.66154 0.3248 0.60588 0.0
C907 C 0.66863 0.36581 0.65495 0.0
N908 N 0.65892 0.31703 0.42728 0.0
N909 N 0.6667 0.36096 0.5725 0.0
H910 H 0.85209 0.41534 0.38669 0.0
H911 H 0.94075 0.41118 0.03151 0.0
H912 H 0.91811 0.42156 0.43863 0.0
H913 H 0.87472 0.40251 0.98438 0.0
H914 H 0.93285 0.41639 0.17995 0.0
H915 H 0.86007 0.41383 0.23717 0.0
C916 C 0.86826 0.41679 0.36651 0.0
C917 C 0.88448 0.4184 0.42533 0.0
C918 C 0.92012 0.41327 0.13713 0.0
C919 C 0.89377 0.41623 0.25416 0.0
C920 C 0.92462 0.41011 0.05241 0.0
C921 C 0.90837 0.40641 -0.00483 0.0
C922 C 0.89923 0.41275 0.16489 0.0
C923 C 0.88777 0.40528 0.02603 0.0
C924 C 0.87282 0.41576 0.28109 0.0
C925 C 0.90511 0.42037 0.39553 0.0
N926 N 0.88379 0.40853 0.10871 0.0
N927 N 0.90921 0.41895 0.31193 0.0
H928 H 0.66006 0.80044 0.80193 0.0
H929 H 0.65831 0.88894 0.44493 0.0
H930 H 0.64945 0.86621 0.84958 0.0
H931 H 0.66948 0.82342 0.3949 0.0
H932 H 0.65767 0.88109 0.5947 0.0
H933 H 0.6643 0.80854 0.653 0.0
C934 C 0.65835 0.81656 0.78104 0.0
C935 C 0.65442 0.83269 0.83848 0.0
C936 C 0.66046 0.86844 0.55113 0.0
C937 C 0.65963 0.84206 0.66822 0.0
C938 C 0.66096 0.87293 0.46558 0.0
C939 C 0.66363 0.85675 0.40738 0.0
C940 C 0.66253 0.8476 0.57871 0.0
C941 C 0.66727 0.83636 0.43763 0.0
C942 C 0.66097 0.82117 0.69603 0.0
C943 C 0.65243 0.85326 0.80769 0.0
N944 N 0.66632 0.8323 0.52143 0.0
N945 N 0.65515 0.85736 0.72463 0.0
H946 H 0.91586 0.86146 0.92241 0.0
H947 H 0.90645 0.94828 0.55955 0.0
H948 H 0.898 0.9255 0.96914 0.0
H949 H 0.90792 0.88153 0.51484 0.0
H950 H 0.90739 0.94111 0.7108 0.0
H951 H 0.91745 0.86946 0.77187 0.0
C952 C 0.91258 0.87727 0.90078 0.0
C953 C 0.90732 0.89303 0.95769 0.0
C954 C 0.90745 0.92809 0.66759 0.0
C955 C 0.9087 0.90221 0.78684 0.0
C956 C 0.90691 0.93216 0.58147 0.0
C957 C 0.90708 0.91549 0.52464 0.0
C958 C 0.9083 0.90724 0.69653 0.0
C959 C 0.90768 0.89489 0.55633 0.0
C960 C 0.9134 0.88183 0.8152 0.0
C961 C 0.90289 0.91319 0.92713 0.0
N962 N 0.90834 0.89136 0.64019 0.0
N963 N 0.90363 0.91723 0.84348 0.0
H964 H 0.82019 0.14208 0.23439 0.0
H965 H 0.8651 0.14583 0.76946 0.0
H966 H 0.88385 0.15943 0.17468 0.0
H967 H 0.79873 0.1474 0.82433 0.0
H968 H 0.87237 0.1477 0.91878 0.0
H969 H 0.812 0.14188 0.08503 0.0
C970 C 0.83225 0.14652 0.18978 0.0
C971 C 0.85253 0.1514 0.21657 0.0
C972 C 0.85622 0.14765 0.89815 0.0
C973 C 0.84359 0.15025 0.04601 0.0
C974 C 0.85202 0.14642 0.8129 0.0
C975 C 0.83124 0.14651 0.78436 0.0
C976 C 0.83955 0.1488 0.9554 0.0
C977 C 0.81497 0.14734 0.84366 0.0
C978 C 0.82767 0.14608 0.10459 0.0
C979 C 0.86795 0.15583 0.15624 0.0
N980 N 0.81949 0.14844 0.9267 0.0
N981 N 0.86317 0.1551 0.07343 0.0
H982 H 0.62618 0.09721 0.57169 0.0
H983 H 0.58101 0.07409 0.11426 0.0
H984 H 0.56044 0.08745 0.52143 0.0
H985 H 0.64667 0.08228 0.16941 0.0
H986 H 0.57324 0.07579 0.26463 0.0
H987 H 0.63389 0.09088 0.42416 0.0
C988 C 0.61332 0.09401 0.52952 0.0
C989 C 0.59263 0.09283 0.55921 0.0
C990 C 0.58938 0.07693 0.24379 0.0
C991 C 0.60141 0.08515 0.39024 0.0
C992 C 0.59385 0.07569 0.15804 0.0
C993 C 0.61448 0.07839 0.12926 0.0
C994 C 0.60568 0.0809 0.3006 0.0
C995 C 0.63049 0.08048 0.18879 0.0
C996 C 0.61776 0.09018 0.44532 0.0
C997 C 0.57663 0.08854 0.50144 0.0
N998 N 0.62571 0.08198 0.2715 0.0
N999 N 0.58137 0.08477 0.41976 0.0
H1000 H 0.33324 0.1858 0.67899 0.0
H1001 H 0.34825 0.13948 0.21957 0.0
H1002 H 0.33795 0.11966 0.6262 0.0
H1003 H 0.34048 0.20549 0.27083 0.0
H1004 H 0.34381 0.13188 0.36865 0.0
H1005 H 0.33311 0.1932 0.52872 0.0
C1006 C 0.33364 0.1728 0.63583 0.0
C1007 C 0.33568 0.15211 0.66492 0.0
C1008 C 0.34311 0.14803 0.34725 0.0
C1009 C 0.33633 0.16047 0.49337 0.0
C1010 C 0.34585 0.1524 0.26224 0.0
C1011 C 0.34469 0.17315 0.23274 0.0
C1012 C 0.33925 0.16453 0.40299 0.0
C1013 C 0.34146 0.18926 0.29084 0.0
C1014 C 0.33388 0.17705 0.55001 0.0
C1015 C 0.3366 0.13588 0.6062 0.0
N1016 N 0.33879 0.18459 0.37332 0.0
N1017 N 0.33715 0.14043 0.52303 0.0
H1018 H 0.11046 0.09975 -0.00898 0.0
H1019 H 0.0655 0.09688 0.45607 0.0
H1020 H 0.04437 0.09277 0.04476 0.0
H1021 H 0.13025 0.08499 0.39504 0.0
H1022 H 0.05708 0.09703 0.30671 0.0
H1023 H 0.11774 0.09739 0.14032 0.0
C1024 C 0.09742 0.09788 0.0342 0.0
C1025 C 0.07674 0.09636 0.00525 0.0
C1026 C 0.07306 0.09401 0.32599 0.0
C1027 C 0.08509 0.09348 0.17645 0.0
C1028 C 0.07779 0.09356 0.41117 0.0
C1029 C 0.09845 0.09028 0.43758 0.0
C1030 C 0.08923 0.09157 0.26707 0.0
C1031 C 0.11408 0.08732 0.37693 0.0
C1032 C 0.10165 0.09636 0.11948 0.0
C1033 C 0.06054 0.09397 0.06435 0.0
N1034 N 0.10915 0.08812 0.2942 0.0
N1035 N 0.06507 0.09258 0.14745 0.0
H1036 H 0.16423 0.8231 0.22014 0.0
H1037 H 0.15354 0.86722 0.75468 0.0
H1038 H 0.17267 0.88823 0.15404 0.0
H1039 H 0.16423 0.80153 0.80792 0.0
H1040 H 0.15763 0.87475 0.90307 0.0
H1041 H 0.16321 0.81437 0.07131 0.0
C1042 C 0.16674 0.83544 0.17423 0.0
C1043 C 0.16924 0.8563 0.19939 0.0
C1044 C 0.15907 0.85868 0.88236 0.0
C1045 C 0.16662 0.84668 0.0291 0.0
C1046 C 0.15653 0.8543 0.79758 0.0
C1047 C 0.15863 0.83368 0.76847 0.0
C1048 C 0.16355 0.84234 0.93893 0.0
C1049 C 0.16251 0.81765 0.82745 0.0
C1050 C 0.1657 0.83051 0.08926 0.0
C1051 C 0.17098 0.8719 0.13721 0.0
N1052 N 0.16487 0.82233 0.91002 0.0
N1053 N 0.16947 0.86679 0.05485 0.0
H1054 H 0.37713 0.90542 0.46711 0.0
H1055 H 0.42135 0.92196 0.92871 0.0
H1056 H 0.44223 0.91827 0.51943 0.0
H1057 H 0.35566 0.91524 0.87142 0.0
H1058 H 0.4293 0.92217 0.77907 0.0
H1059 H 0.36917 0.90876 0.61572 0.0
C1060 C 0.38981 0.90876 0.50991 0.0
C1061 C 0.41039 0.9116 0.48072 0.0
C1062 C 0.41312 0.92094 0.79919 0.0
C1063 C 0.4013 0.91572 0.65104 0.0
C1064 C 0.40853 0.92115 0.88469 0.0
C1065 C 0.3878 0.91872 0.91257 0.0
C1066 C 0.39686 0.91809 0.74139 0.0
C1067 C 0.37188 0.91704 0.8526 0.0
C1068 C 0.38521 0.91083 0.59479 0.0
C1069 C 0.42615 0.91593 0.5392 0.0
N1070 N 0.37677 0.91658 0.76974 0.0
N1071 N 0.42125 0.91791 0.62175 0.0
H1072 H 0.25167 0.30786 0.42887 0.0
H1073 H 0.24536 0.2147 0.0954 0.0
H1074 H 0.20473 0.25907 0.43528 0.0
H1075 H 0.2944 0.26129 0.09726 0.0
H1076 H 0.22838 0.23267 0.2127 0.0
H1077 H 0.26714 0.29158 0.30473 0.0
C1078 C 0.24483 0.29355 0.40514 0.0
C1079 C 0.22683 0.28488 0.44239 0.0
C1080 C 0.24277 0.23905 0.18685 0.0
C1081 C 0.24411 0.26648 0.29938 0.0
C1082 C 0.2523 0.22894 0.11928 0.0
C1083 C 0.27145 0.23634 0.0876 0.0
C1084 C 0.25248 0.25665 0.22243 0.0
C1085 C 0.2798 0.25485 0.1209 0.0
C1086 C 0.25351 0.28439 0.33368 0.0
C1087 C 0.21853 0.26641 0.40838 0.0
N1088 N 0.27039 0.26424 0.18708 0.0
N1089 N 0.22715 0.25791 0.33857 0.0
H1090 H 0.52269 0.54544 0.37702 0.0
H1091 H 0.43027 0.50565 0.5311 0.0
H1092 H 0.5236 0.49212 0.21235 0.0
H1093 H 0.44181 0.45358 0.36644 0.0
H1094 H 0.45572 0.52628 0.4525 0.0
H1095 H 0.48686 0.53703 0.41633 0.0
C1096 C 0.51521 0.53208 0.34827 0.0
C1097 C 0.52631 0.51931 0.29219 0.0
C1098 C 0.45261 0.51049 0.43214 0.0
C1099 C 0.48484 0.50938 0.33669 0.0
C1100 C 0.43752 0.4988 0.47616 0.0
C1101 C 0.4343 0.47759 0.45699 0.0
C1102 C 0.46458 0.50079 0.36883 0.0
C1103 C 0.44406 0.46973 0.3846 0.0
C1104 C 0.49454 0.52725 0.37057 0.0
C1105 C 0.51579 0.50225 0.25676 0.0
N1106 N 0.45916 0.48109 0.3448 0.0
N1107 N 0.49579 0.4977 0.28027 0.0
H1108 H 0.25818 0.67228 0.80586 0.0
H1109 H 0.26091 0.77266 0.51447 0.0
H1110 H 0.31291 0.69249 0.66711 0.0
H1111 H 0.20522 0.7486 0.63666 0.0
H1112 H 0.27898 0.73991 0.54976 0.0
H1113 H 0.23665 0.6945 0.71598 0.0
C1114 C 0.26562 0.68065 0.7543 0.0
C1115 C 0.2875 0.68124 0.74645 0.0
C1116 C 0.26274 0.74177 0.56815 0.0
C1117 C 0.2631 0.70721 0.64546 0.0
C1118 C 0.25254 0.76059 0.54913 0.0
C1119 C 0.23165 0.76355 0.57383 0.0
C1120 C 0.25199 0.7259 0.6127 0.0
C1121 C 0.22141 0.74716 0.61703 0.0
C1122 C 0.25332 0.69363 0.70359 0.0
C1123 C 0.29614 0.69207 0.67721 0.0
N1124 N 0.23173 0.72916 0.63559 0.0
N1125 N 0.28402 0.70524 0.63118 0.0
H1126 H 0.00871 0.54372 0.1795 0.0
H1127 H 0.99766 0.45787 0.8226 0.0
H1128 H 0.05633 0.49757 0.12581 0.0
H1129 H 0.95065 0.50473 0.87399 0.0
H1130 H 0.02032 0.47358 0.92727 0.0
H1131 H 0.98747 0.52984 0.06672 0.0
C1132 C 0.01462 0.5305 0.1443 0.0
C1133 C 0.03437 0.52182 0.16154 0.0
C1134 C 0.00515 0.48058 0.91526 0.0
C1135 C 0.01019 0.50604 0.03163 0.0
C1136 C 0.99226 0.4717 0.85529 0.0
C1137 C 0.9722 0.47993 0.84079 0.0
C1138 C 0.99785 0.49771 0.96139 0.0
C1139 C 0.96602 0.49796 0.88362 0.0
C1140 C 0.00251 0.52268 0.07959 0.0
C1141 C 0.04116 0.50463 0.11467 0.0
N1142 N 0.97874 0.50613 0.94309 0.0
N1143 N 0.02909 0.49735 0.05123 0.0
H1144 H 0.74984 0.71129 0.59504 0.0
H1145 H 0.75602 0.80289 0.93533 0.0
H1146 H 0.80131 0.75494 0.61152 0.0
H1147 H 0.7081 0.75506 0.93307 0.0
H1148 H 0.77195 0.78689 0.81142 0.0
H1149 H 0.73222 0.7298 0.70928 0.0
C1150 C 0.75724 0.72499 0.62156 0.0
C1151 C 0.77721 0.73136 0.59488 0.0
C1152 C 0.75798 0.77989 0.83839 0.0
C1153 C 0.75743 0.75233 0.72623 0.0
C1154 C 0.74901 0.78889 0.90963 0.0
C1155 C 0.73068 0.78035 0.94473 0.0
C1156 C 0.74852 0.76226 0.80204 0.0
C1157 C 0.72219 0.76227 0.90815 0.0
C1158 C 0.74731 0.73542 0.68735 0.0
C1159 C 0.78608 0.74925 0.63131 0.0
N1160 N 0.73112 0.75391 0.83869 0.0
N1161 N 0.77623 0.75898 0.69573 0.0
H1162 H 0.75109 0.2614 0.02434 0.0
H1163 H 0.74843 0.16169 0.31936 0.0
H1164 H 0.69611 0.24026 0.15963 0.0
H1165 H 0.80169 0.17962 0.16717 0.0
H1166 H 0.72646 0.18474 0.23461 0.0
H1167 H 0.76809 0.22802 0.05703 0.0
C1168 C 0.74266 0.24983 0.06145 0.0
C1169 C 0.72229 0.25381 0.0905 0.0
C1170 C 0.74285 0.18314 0.21805 0.0
C1171 C 0.74146 0.21537 0.12666 0.0
C1172 C 0.75538 0.16967 0.26574 0.0
C1173 C 0.77713 0.16938 0.25254 0.0
C1174 C 0.75225 0.19626 0.1573 0.0
C1175 C 0.7851 0.17978 0.18109 0.0
C1176 C 0.75224 0.23063 0.07903 0.0
C1177 C 0.71193 0.23801 0.13671 0.0
N1178 N 0.77281 0.1934 0.1379 0.0
N1179 N 0.7217 0.2196 0.15394 0.0
H1180 H 0.0123 0.99796 0.73507 0.0
H1181 H 0.91576 0.99583 0.04461 0.0
H1182 H 0.98853 0.0522 0.86527 0.0
H1183 H 0.93658 0.9425 0.90162 0.0
H1184 H 0.93599 0.01865 0.95146 0.0
H1185 H 0.98042 0.97892 0.77401 0.0
C1186 C 0.00044 0.00584 0.77203 0.0
C1187 C 0.00332 0.02657 0.79828 0.0
C1188 C 0.93563 0.002 0.93884 0.0
C1189 C 0.96663 0.00503 0.84192 0.0
C1190 C 0.92377 0.98895 -0.00857 0.0
C1191 C 0.92511 0.96711 0.98295 0.0
C1192 C 0.94883 0.99303 0.87801 0.0
C1193 C 0.93551 0.9592 0.91192 0.0
C1194 C 0.98211 0.99507 0.79336 0.0
C1195 C 0.98718 0.03614 0.84456 0.0
N1196 N 0.94756 0.97208 0.86383 0.0
N1197 N 0.96967 0.02523 0.86558 0.0
H1198 H 0.50135 0.96147 0.30344 0.0
H1199 H 0.50584 0.04531 0.67138 0.0
H1200 H 0.45324 0.00774 0.34607 0.0
H1201 H 0.55264 0.99733 0.63411 0.0
H1202 H 0.4872 0.03287 0.54859 0.0
H1203 H 0.52213 0.97686 0.41514 0.0
C1204 C 0.49535 0.97516 0.33549 0.0
C1205 C 0.47544 0.98321 0.31668 0.0
C1206 C 0.50149 0.02499 0.56734 0.0
C1207 C 0.49889 1.00057 0.44563 0.0
C1208 C 0.51209 0.03197 0.63787 0.0
C1209 C 0.53087 0.02234 0.663 0.0
C1210 C 0.50971 0.00825 0.52129 0.0
C1211 C 0.53816 0.00511 0.61733 0.0
C1212 C 0.50715 0.98383 0.39961 0.0
C1213 C 0.4685 0.00107 0.35898 0.0
N1214 N 0.5276 0.99867 0.54826 0.0
N1215 N 0.4801 0.00899 0.42264 0.0
H1216 H 0.14809 0.51916 0.19163 0.0
H1217 H 0.16925 0.44196 0.57007 0.0
H1218 H 0.16423 0.53804 0.44168 0.0
H1219 H 0.13677 0.42593 0.34224 0.0
H1220 H 0.18114 0.47444 0.50389 0.0
H1221 H 0.15958 0.48353 0.22473 0.0
C1222 C 0.15544 0.51615 0.25179 0.0
C1223 C 0.15456 0.53133 0.31507 0.0
C1224 C 0.17172 0.46367 0.4678 0.0
C1225 C 0.16708 0.49061 0.35422 0.0
C1226 C 0.16475 0.44516 0.50568 0.0
C1227 C 0.15133 0.43151 0.46258 0.0
C1228 C 0.16517 0.46875 0.38622 0.0
C1229 C 0.14669 0.4362 0.37844 0.0
C1230 C 0.16152 0.49565 0.27132 0.0
C1231 C 0.16427 0.52664 0.39165 0.0
N1232 N 0.15324 0.45466 0.34352 0.0
N1233 N 0.16938 0.50644 0.41047 0.0
H1234 H 0.30587 0.38979 0.81301 0.0
H1235 H 0.21715 0.39964 0.4735 0.0
H1236 H 0.31419 0.37752 0.5485 0.0
H1237 H 0.20722 0.40856 0.73749 0.0
H1238 H 0.2547 0.40412 0.49373 0.0
H1239 H 0.27167 0.40492 0.78296 0.0
C1240 C 0.30044 0.39001 0.74865 0.0
C1241 C 0.31291 0.38202 0.68337 0.0
C1242 C 0.2443 0.40583 0.54716 0.0
C1243 C 0.27381 0.39995 0.6483 0.0
C1244 C 0.22273 0.40395 0.53519 0.0
C1245 C 0.20951 0.40191 0.6053 0.0
C1246 C 0.25209 0.40667 0.6295 0.0
C1247 C 0.21728 0.4087 0.68255 0.0
C1248 C 0.281 0.39899 0.73142 0.0
C1249 C 0.30506 0.38313 0.60114 0.0
N1250 N 0.23833 0.4095 0.69409 0.0
N1251 N 0.28599 0.39184 0.58607 0.0
H1252 H 0.36484 0.54962 0.06166 0.0
H1253 H 0.37796 0.47643 0.65911 0.0
H1254 H 0.40138 0.56613 0.84179 0.0
H1255 H 0.35289 0.45403 0.89557 0.0
H1256 H 0.38193 0.51124 0.71985 0.0
H1257 H 0.35769 0.51539 -0.0003 0.0
C1258 C 0.37167 0.54597 0.00113 0.0
C1259 C 0.38367 0.5609 0.95685 0.0
C1260 C 0.37532 0.49876 0.75814 0.0
C1261 C 0.37502 0.52199 0.88471 0.0
C1262 C 0.37282 0.47895 0.72315 0.0
C1263 C 0.36546 0.46218 0.77263 0.0
C1264 C 0.3702 0.50188 0.84302 0.0
C1265 C 0.35877 0.46642 0.85503 0.0
C1266 C 0.36738 0.5265 0.96543 0.0
C1267 C 0.39196 0.55524 0.87831 0.0
N1268 N 0.36158 0.48579 0.88803 0.0
N1269 N 0.38733 0.53635 0.84456 0.0
H1270 H 0.19926 0.57935 0.26485 0.0
H1271 H 0.28464 0.64414 0.10823 0.0
H1272 H 0.18257 0.62791 0.087 0.0
H1273 H 0.29389 0.581 0.02269 0.0
H1274 H 0.24797 0.63769 0.12522 0.0
H1275 H 0.23404 0.57702 0.19875 0.0
C1276 C 0.20272 0.58915 0.21063 0.0
C1277 C 0.18812 0.60414 0.18221 0.0
C1278 C 0.25788 0.62536 0.10051 0.0
C1279 C 0.22774 0.6015 0.10729 0.0
C1280 C 0.27901 0.62924 0.08825 0.0
C1281 C 0.29245 0.61379 0.05669 0.0
C1282 C 0.24995 0.60539 0.08602 0.0
C1283 C 0.284 0.59365 0.04444 0.0
C1284 C 0.22246 0.58762 0.17261 0.0
C1285 C 0.19336 0.61627 0.11134 0.0
N1286 N 0.26319 0.58989 0.05998 0.0
N1287 N 0.21298 0.61515 0.07799 0.0
H1288 H 0.83851 0.46475 0.59788 0.0
H1289 H 0.86375 0.57886 0.7223 0.0
H1290 H 0.85943 0.48178 0.84439 0.0
H1291 H 0.83227 0.56178 0.49346 0.0
H1292 H 0.85364 0.54497 0.78372 0.0
H1293 H 0.82544 0.50031 0.5766 0.0
C1294 C 0.83915 0.47564 0.64967 0.0
C1295 C 0.85041 0.47052 0.72225 0.0
C1296 C 0.84856 0.54882 0.72064 0.0
C1297 C 0.83686 0.51159 0.69667 0.0
C1298 C 0.85441 0.56817 0.6855 0.0
C1299 C 0.8495 0.57288 0.60164 0.0
C1300 C 0.83787 0.53408 0.67127 0.0
C1301 C 0.83705 0.55856 0.55744 0.0
C1302 C 0.83212 0.49617 0.63691 0.0
C1303 C 0.85101 0.48528 0.78702 0.0
N1304 N 0.83204 0.5397 0.59213 0.0
N1305 N 0.8452 0.50544 0.77152 0.0
H1306 H 0.68838 0.57386 0.29233 0.0
H1307 H 0.77405 0.62326 0.59282 0.0
H1308 H 0.67395 0.61402 0.50134 0.0
H1309 H 0.78636 0.60053 0.34386 0.0
H1310 H 0.73885 0.60807 0.58715 0.0
H1311 H 0.72474 0.57219 0.3383 0.0
C1312 C 0.69274 0.58199 0.34911 0.0
C1313 C 0.67811 0.5945 0.39199 0.0
C1314 C 0.74952 0.60565 0.53507 0.0
C1315 C 0.71998 0.59268 0.44475 0.0
C1316 C 0.76979 0.61394 0.53893 0.0
C1317 C 0.78322 0.61294 0.469 0.0
C1318 C 0.74269 0.59625 0.46067 0.0
C1319 C 0.77663 0.60136 0.39959 0.0
C1320 C 0.71356 0.58102 0.37519 0.0
C1321 C 0.68468 0.60434 0.46592 0.0
N1322 N 0.7567 0.59379 0.39651 0.0
N1323 N 0.70524 0.60355 0.48909 0.0
H1324 H 0.63244 0.51925 0.35922 0.0
H1325 H 0.67712 0.43385 0.04758 0.0
H1326 H 0.65697 0.53195 0.11187 0.0
H1327 H 0.63312 0.42097 0.24796 0.0
H1328 H 0.68255 0.46889 0.10348 0.0
H1329 H 0.6463 0.48349 0.35155 0.0
C1330 C 0.64197 0.51496 0.30556 0.0
C1331 C 0.64346 0.52848 0.23575 0.0
C1332 C 0.67205 0.45826 0.13633 0.0
C1333 C 0.65878 0.48755 0.22554 0.0
C1334 C 0.66887 0.43823 0.10439 0.0
C1335 C 0.65413 0.42462 0.14173 0.0
C1336 C 0.6604 0.46487 0.20607 0.0
C1337 C 0.64436 0.43104 0.21637 0.0
C1338 C 0.64948 0.49439 0.30051 0.0
C1339 C 0.65552 0.52198 0.16702 0.0
N1340 N 0.64733 0.45089 0.24515 0.0
N1341 N 0.66229 0.5018 0.16271 0.0
H1342 H 0.70781 0.39898 0.90521 0.0
H1343 H 0.82767 0.39009 0.98094 0.0
H1344 H 0.73622 0.37159 0.12495 0.0
H1345 H 0.79888 0.41541 0.75698 0.0
H1346 H 0.7949 0.39576 0.05703 0.0
H1347 H 0.74017 0.41843 0.87735 0.0
C1348 C 0.7205 0.39798 0.95009 0.0
C1349 C 0.71971 0.38345 0.01632 0.0
C1350 C 0.79588 0.40047 -0.00838 0.0
C1351 C 0.75688 0.40463 0.98314 0.0
C1352 C 0.81458 0.39712 0.948 0.0
C1353 C 0.81574 0.40142 0.86156 0.0
C1354 C 0.77818 0.4079 0.94815 0.0
C1355 C 0.79847 0.41111 0.82288 0.0
C1356 C 0.7391 0.40883 0.93367 0.0
C1357 C 0.73651 0.3825 0.07244 0.0
N1358 N 0.78027 0.41357 0.86593 0.0
N1359 N 0.7547 0.39244 0.05327 0.0
H1360 H 0.63738 0.91788 0.85641 0.0
H1361 H 0.65922 0.03472 0.95727 0.0
H1362 H 0.66705 0.93846 0.08443 0.0
H1363 H 0.64237 0.01366 0.71079 0.0
H1364 H 0.67166 0.9995 -0.00863 0.0
H1365 H 0.64648 0.95154 0.79031 0.0
C1366 C 0.64607 0.9293 0.89217 0.0
C1367 C 0.65085 0.92554 0.97692 0.0
C1368 C 0.66602 0.00267 0.92848 0.0
C1369 C 0.66134 0.96413 0.90184 0.0
C1370 C 0.65939 0.02301 0.90836 0.0
C1371 C 0.64937 0.02696 0.83176 0.0
C1372 C 0.66228 0.98629 0.87168 0.0
C1373 C 0.6498 0.01111 0.77107 0.0
C1374 C 0.65135 0.94852 0.85435 0.0
C1375 C 0.66244 0.94085 0.01969 0.0
N1376 N 0.65523 0.99122 0.79336 0.0
N1377 N 0.66692 0.95954 0.9823 0.0
H1378 H 0.8154 0.86783 0.09271 0.0
H1379 H 0.70588 0.90052 0.26233 0.0
H1380 H 0.80455 0.88309 0.35318 0.0
H1381 H 0.72126 0.89743 0.00034 0.0
H1382 H 0.74295 0.90389 0.2954 0.0
H1383 H 0.78197 0.88359 0.05701 0.0
C1384 C 0.80587 0.87419 0.14283 0.0
C1385 C 0.81281 0.87385 0.22643 0.0
C1386 C 0.73828 0.90322 0.23017 0.0
C1387 C 0.77445 0.89254 0.18519 0.0
C1388 C 0.71698 0.90196 0.21091 0.0
C1389 C 0.71098 0.89649 0.12933 0.0
C1390 C 0.75306 0.90017 0.16574 0.0
C1391 C 0.72564 0.89997 0.06511 0.0
C1392 C 0.78689 0.88361 0.12201 0.0
C1393 C 0.79978 0.88272 0.28805 0.0
N1394 N 0.74633 0.90014 0.0846 0.0
N1395 N 0.78117 0.89157 0.26626 0.0
H1396 H 0.87441 0.96813 0.19503 0.0
H1397 H 0.8704 0.04587 0.58616 0.0
H1398 H 0.8562 0.94828 0.44464 0.0
H1399 H 0.89829 0.06145 0.34587 0.0
H1400 H 0.86337 0.01055 0.5353 0.0
H1401 H 0.87928 0.00372 0.24671 0.0
C1402 C 0.87091 0.9714 0.26025 0.0
C1403 C 0.86511 0.95518 0.31569 0.0
C1404 C 0.87118 0.02168 0.49404 0.0
C1405 C 0.87104 0.99575 0.37578 0.0
C1406 C 0.8754 0.04181 0.5233 0.0
C1407 C 0.88483 0.0568 0.4701 0.0
C1408 C 0.8763 0.01652 0.4109 0.0
C1409 C 0.8909 0.05054 0.38917 0.0
C1410 C 0.87395 0.99165 0.29 0.0
C1411 C 0.86067 0.96029 0.39955 0.0
N1412 N 0.88634 0.03097 0.36185 0.0
N1413 N 0.86399 0.9801 0.42733 0.0
H1414 H 0.79822 0.08405 0.67005 0.0
H1415 H 0.67981 0.12006 0.59339 0.0
H1416 H 0.77837 0.11864 0.45033 0.0
H1417 H 0.7009 0.08491 0.81001 0.0
H1418 H 0.71453 0.11542 0.52914 0.0
H1419 H 0.76156 0.07938 0.71023 0.0
C1420 C 0.78616 0.09033 0.62927 0.0
C1421 C 0.79145 0.10216 0.55755 0.0
C1422 C 0.71144 0.10851 0.59031 0.0
C1423 C 0.7493 0.09721 0.60415 0.0
C1424 C 0.69159 0.11112 0.6269 0.0
C1425 C 0.6875 0.10317 0.70784 0.0
C1426 C 0.72724 0.09783 0.63493 0.0
C1427 C 0.70339 0.09166 0.74814 0.0
C1428 C 0.76517 0.08779 0.65261 0.0
C1429 C 0.77505 0.10986 0.50724 0.0
N1430 N 0.72254 0.08952 0.71172 0.0
N1431 N 0.75475 0.10754 0.53211 0.0
H1432 H 0.3629 0.08484 0.20466 0.0
H1433 H 0.34238 0.96958 0.07269 0.0
H1434 H 0.33129 0.06736 0.97665 0.0
H1435 H 0.36403 0.98643 0.31848 0.0
H1436 H 0.32858 0.00498 0.05367 0.0
H1437 H 0.35543 0.0499 0.26278 0.0
C1438 C 0.35404 0.07384 0.16746 0.0
C1439 C 0.3483 0.07884 0.08469 0.0
C1440 C 0.3356 0.00081 0.11331 0.0
C1441 C 0.33975 0.03881 0.1505 0.0
C1442 C 0.34308 0.98038 0.12477 0.0
C1443 C 0.35447 0.97518 0.19694 0.0
C1444 C 0.34008 0.01614 0.17377 0.0
C1445 C 0.35532 0.98991 0.26178 0.0
C1446 C 0.34973 0.05387 0.20067 0.0
C1447 C 0.3366 0.06401 0.03985 0.0
N1448 N 0.34897 0.00998 0.24758 0.0
N1449 N 0.33308 0.04461 0.07263 0.0
H1450 H 0.16916 0.11699 0.97347 0.0
H1451 H 0.28575 0.10656 0.82389 0.0
H1452 H 0.18775 0.08451 0.74857 0.0
H1453 H 0.26871 0.12757 0.07088 0.0
H1454 H 0.25098 0.09095 0.80927 0.0
H1455 H 0.20535 0.11459 0.02377 0.0
C1456 C 0.18068 0.1089 0.93557 0.0
C1457 C 0.17542 0.10138 0.85576 0.0
C1458 C 0.25502 0.09827 0.86814 0.0
C1459 C 0.21702 0.0988 0.91241 0.0
C1460 C 0.27509 0.1068 0.87705 0.0
C1461 C 0.28017 0.11821 0.94894 0.0
C1462 C 0.23977 0.10168 0.93079 0.0
C1463 C 0.26547 0.11867 0.01478 0.0
C1464 C 0.20141 0.10758 0.9642 0.0
C1465 C 0.19111 0.09098 0.80968 0.0
N1466 N 0.24574 0.11113 0.00326 0.0
N1467 N 0.21117 0.09037 0.83784 0.0
H1468 H 0.13542 0.92141 0.74009 0.0
H1469 H 0.14624 0.03907 0.61351 0.0
H1470 H 0.171 0.94332 0.52552 0.0
H1471 H 0.11967 0.01809 0.84839 0.0
H1472 H 0.16417 0.00536 0.60023 0.0
H1473 H 0.13747 0.95657 0.79966 0.0
C1474 C 0.14406 0.93346 0.70635 0.0
C1475 C 0.15243 0.92955 0.6264 0.0
C1476 C 0.15509 0.00834 0.65644 0.0
C1477 C 0.15466 0.96992 0.69364 0.0
C1478 C 0.14514 0.02777 0.66453 0.0
C1479 C 0.1315 0.03124 0.73202 0.0
C1480 C 0.15083 0.99224 0.71526 0.0
C1481 C 0.13014 0.01592 0.79548 0.0
C1482 C 0.14523 0.95358 0.74036 0.0
C1483 C 0.16372 0.94574 0.5862 0.0
N1484 N 0.13916 0.99684 0.78448 0.0
N1485 N 0.1641 0.96528 0.61929 0.0
H1486 H 0.20968 0.90673 0.38517 0.0
H1487 H 0.32901 0.89883 0.46799 0.0
H1488 H 0.23727 0.88434 0.61516 0.0
H1489 H 0.30068 0.91912 0.23522 0.0
H1490 H 0.29624 0.9066 0.54105 0.0
H1491 H 0.24197 0.92577 0.35296 0.0
C1492 C 0.22212 0.90686 0.4313 0.0
C1493 C 0.22118 0.89362 0.50173 0.0
C1494 C 0.29732 0.90976 0.47423 0.0
C1495 C 0.25837 0.91424 0.46367 0.0
C1496 C 0.31602 0.90519 0.43237 0.0
C1497 C 0.31731 0.90747 0.34476 0.0
C1498 C 0.27976 0.9164 0.42797 0.0
C1499 C 0.30017 0.91637 0.30238 0.0
C1500 C 0.24073 0.91744 0.41233 0.0
C1501 C 0.23768 0.89417 0.55938 0.0
N1502 N 0.28198 0.92006 0.34405 0.0
N1503 N 0.25594 0.90369 0.53777 0.0
H1504 H 0.21524 0.30868 0.89759 0.0
H1505 H 0.272 0.20449 0.75881 0.0
H1506 H 0.18525 0.25844 0.76432 0.0
H1507 H 0.30327 0.25654 0.87682 0.0
H1508 H 0.23847 0.22094 0.78748 0.0
H1509 H 0.24438 0.28531 0.93048 0.0
C1510 C 0.21428 0.29244 0.8785 0.0
C1511 C 0.1985 0.28588 0.82324 0.0
C1512 C 0.25263 0.22873 0.80766 0.0
C1513 C 0.23184 0.25934 0.85904 0.0
C1514 C 0.27187 0.21946 0.79042 0.0
C1515 C 0.29062 0.22899 0.81622 0.0
C1516 C 0.25194 0.24797 0.84949 0.0
C1517 C 0.28931 0.24854 0.85597 0.0
C1518 C 0.23115 0.27922 0.89599 0.0
C1519 C 0.19761 0.2645 0.80366 0.0
N1520 N 0.27028 0.25738 0.87136 0.0
N1521 N 0.21455 0.25216 0.81845 0.0
H1522 H 0.44423 0.5132 0.81442 0.0
H1523 H 0.55721 0.55227 0.92608 0.0
H1524 H 0.50201 0.48638 0.722 0.0
H1525 H 0.50134 0.56952 0.06313 0.0
H1526 H 0.53574 0.5393 0.81335 0.0
H1527 H 0.46373 0.54269 0.86918 0.0
C1528 C 0.46106 0.5135 0.80525 0.0
C1529 C 0.47164 0.49687 0.76592 0.0
C1530 C 0.52815 0.54645 0.86695 0.0
C1531 C 0.49392 0.53091 0.82782 0.0
C1532 C 0.54042 0.55417 0.93131 0.0
C1533 C 0.53108 0.56164 0.00541 0.0
C1534 C 0.50642 0.54566 0.87766 0.0
C1535 C 0.50922 0.56351 0.00802 0.0
C1536 C 0.47211 0.53051 0.83598 0.0
C1537 C 0.4933 0.49857 0.75369 0.0
N1538 N 0.49755 0.55494 0.94598 0.0
N1539 N 0.5038 0.51516 0.78585 0.0
H1540 H 0.21106 0.81722 0.17806 0.0
H1541 H 0.24728 0.70229 0.07447 0.0
H1542 H 0.18179 0.76101 0.27547 0.0
H1543 H 0.28272 0.75799 0.01163 0.0
H1544 H 0.21733 0.72395 0.10911 0.0
H1545 H 0.22965 0.79626 0.07464 0.0
C1546 C 0.20798 0.80053 0.1759 0.0
C1547 C 0.19556 0.79068 0.2378 0.0
C1548 C 0.23156 0.73148 0.0871 0.0
C1549 C 0.21707 0.76669 0.12082 0.0
C1550 C 0.24882 0.71914 0.06813 0.0
C1551 C 0.26783 0.72841 0.04276 0.0
C1552 C 0.23327 0.75333 0.08188 0.0
C1553 C 0.26854 0.75025 0.03281 0.0
C1554 C 0.21873 0.78858 0.1171 0.0
C1555 C 0.19166 0.76917 0.23043 0.0
N1556 N 0.25157 0.76204 0.05391 0.0
N1557 N 0.20291 0.75776 0.17457 0.0
H1558 H 0.01144 0.55842 0.46159 0.0
H1559 H 0.99148 0.43802 0.57435 0.0
H1560 H 0.05699 0.51852 0.58347 0.0
H1561 H 0.94552 0.47819 0.45604 0.0
H1562 H 0.01622 0.467 0.57232 0.0
H1563 H 0.98593 0.53018 0.47155 0.0
C1564 C 0.01593 0.54403 0.49344 0.0
C1565 C 0.03677 0.54052 0.5181 0.0
C1566 C 0.00078 0.46942 0.54604 0.0
C1567 C 0.00776 0.50794 0.52725 0.0
C1568 C 0.98672 0.4527 0.54542 0.0
C1569 C 0.96598 0.45585 0.51854 0.0
C1570 C 0.99419 0.48928 0.5182 0.0
C1571 C 0.9611 0.47515 0.47988 0.0
C1572 C 0.00142 0.5277 0.49728 0.0
C1573 C 0.04132 0.52169 0.56086 0.0
N1574 N 0.97492 0.4913 0.48274 0.0
N1575 N 0.02713 0.50584 0.56175 0.0
H1576 H 0.69051 0.75183 0.27611 0.0
H1577 H 0.81095 0.75008 0.38501 0.0
H1578 H 0.72209 0.8024 0.40142 0.0
H1579 H 0.77736 0.69927 0.26849 0.0
H1580 H 0.77751 0.76741 0.41305 0.0
H1581 H 0.71969 0.72883 0.30986 0.0
C1582 C 0.70312 0.75793 0.31412 0.0
C1583 C 0.70456 0.77943 0.33108 0.0
C1584 C 0.7775 0.75238 0.38192 0.0
C1585 C 0.73826 0.75343 0.36718 0.0
C1586 C 0.79662 0.74262 0.36475 0.0
C1587 C 0.79705 0.723 0.32529 0.0
C1588 C 0.75869 0.74264 0.35836 0.0
C1589 C 0.77789 0.71423 0.30004 0.0
C1590 C 0.72006 0.74483 0.33194 0.0
C1591 C 0.72092 0.78612 0.38327 0.0
N1592 N 0.75956 0.72406 0.31722 0.0
N1593 N 0.73768 0.77342 0.39626 0.0
H1594 H 0.76806 0.24287 0.49278 0.0
H1595 H 0.67234 0.25062 0.80872 0.0
H1596 H 0.74031 0.19027 0.62498 0.0
H1597 H 0.70255 0.30398 0.69164 0.0
H1598 H 0.68997 0.22776 0.70874 0.0
H1599 H 0.73857 0.26464 0.53691 0.0
C1600 C 0.75578 0.23587 0.53085 0.0
C1601 C 0.75696 0.21483 0.55687 0.0
C1602 C 0.69232 0.24454 0.7035 0.0
C1603 C 0.72303 0.23959 0.60669 0.0
C1604 C 0.68204 0.25764 0.76007 0.0
C1605 C 0.68659 0.27916 0.76039 0.0
C1606 C 0.70719 0.25309 0.64751 0.0
C1607 C 0.69908 0.28738 0.69516 0.0
C1608 C 0.73885 0.24827 0.55546 0.0
C1609 C 0.74034 0.20652 0.60481 0.0
N1610 N 0.70941 0.27428 0.6427 0.0
N1611 N 0.72421 0.21898 0.62891 0.0
H1612 H 0.00056 0.98038 0.22421 0.0
H1613 H 0.99934 0.07885 0.51921 0.0
H1614 H 0.94516 0.00675 0.33914 0.0
H1615 H 0.05516 0.05396 0.4031 0.0
H1616 H 0.97824 0.05946 0.41903 0.0
H1617 H 0.0198 0.01225 0.26052 0.0
C1618 C 0.99244 0.99283 0.25681 0.0
C1619 C 0.97139 0.99059 0.28066 0.0
C1620 C 0.99514 0.05872 0.41382 0.0
C1621 C 0.99313 0.02718 0.3211 0.0
C1622 C 0.00722 0.07006 0.47047 0.0
C1623 C 0.02901 0.06738 0.47154 0.0
C1624 C 0.00503 0.04461 0.35889 0.0
C1625 C 0.03834 0.05599 0.40606 0.0
C1626 C 0.00336 0.01111 0.27681 0.0
C1627 C 0.96152 0.00746 0.32122 0.0
N1628 N 0.02629 0.04446 0.35401 0.0
N1629 N 0.97253 0.02487 0.34093 0.0
H1630 H 0.44347 0.9848 0.0102 0.0
H1631 H 0.55676 0.02519 0.119 0.0
H1632 H 0.4931 0.94591 0.1102 0.0
H1633 H 0.50914 0.06293 -0.00032 0.0
H1634 H 0.52999 0.99986 0.16047 0.0
H1635 H 0.46452 0.01571 0.03762 0.0
C1636 C 0.45882 0.9827 0.03775 0.0
C1637 C 0.4664 0.96262 0.05852 0.0
C1638 C 0.52529 0.01397 0.12717 0.0
C1639 C 0.49065 0.9982 0.09019 0.0
C1640 C 0.54054 0.02864 0.10459 0.0
C1641 C 0.53532 0.04548 0.05114 0.0
C1642 C 0.50487 0.01642 0.09636 0.0
C1643 C 0.51402 0.04963 0.03754 0.0
C1644 C 0.47074 1.00044 0.05429 0.0
C1645 C 0.48653 0.96102 0.09334 0.0
N1646 N 0.4996 0.03471 0.05693 0.0
N1647 N 0.49797 0.97858 0.10786 0.0
loop_
_geom_bond_atom_site_label_1
_geom_bond_atom_site_label_2
_geom_bond_distance
_geom_bond_site_symmetry_2
_ccdc_geom_bond_type
C0 O27 1.312 . S
C0 O28 1.208 . S
C1 O22 1.331 . S
C1 O25 1.244 . S
C2 O24 1.264 . S
C2 O26 1.273 . S
Mg3 O5 1.936 . S
Mg3 O12 2.081 . S
Mg3 O14 2.023 . S
Mg3 O18 2.031 . S
Mg3 O27 2.291 . S
Mg4 O5 1.963 . S
Mg4 O15 1.942 . S
Mg4 O16 1.955 . S
Mg4 O23 1.986 . S
O5 Mg3 1.936 . S
O5 Mg4 1.963 . S
O5 Mg6 1.915 . S
Mg6 O5 1.915 . S
Mg6 O7 1.915 . S
Mg6 O11 2.013 . S
Mg6 O17 2.114 . S
Mg6 O21 2.013 . S
Mg6 O27 2.114 . S
O7 Mg6 1.915 . S
O7 Mg8 1.936 . S
O7 Mg9 1.963 . S
Mg8 O7 1.936 . S
Mg8 O17 2.291 . S
Mg8 O22 2.081 . S
Mg8 O24 2.023 . S
Mg8 O28 2.031 . S
Mg9 O7 1.963 . S
Mg9 O13 1.986 . S
Mg9 O25 1.942 . S
Mg9 O26 1.955 . S
C10 O21 1.191 . S
C10 O23 1.307 . S
O11 Mg6 2.013 . S
O11 C30 1.191 . S
O12 Mg3 2.081 . S
O12 C20 1.331 . S
O13 Mg9 1.986 . S
O13 C30 1.307 . S
O14 Mg3 2.023 . S
O14 C29 1.264 . S
O15 Mg4 1.942 . S
O15 C20 1.244 . S
O16 Mg4 1.955 . S
O16 C29 1.273 . S
O17 Mg6 2.114 . S
O17 Mg8 2.291 . S
O17 C19 1.312 . S
O18 Mg3 2.031 . S
O18 C19 1.208 . S
C19 O17 1.312 . S
C19 O18 1.208 . S
C20 O12 1.331 . S
C20 O15 1.244 . S
O21 Mg6 2.013 . S
O21 C10 1.191 . S
O22 C1 1.331 . S
O22 Mg8 2.081 . S
O23 Mg4 1.986 . S
O23 C10 1.307 . S
O24 C2 1.264 . S
O24 Mg8 2.023 . S
O25 C1 1.244 . S
O25 Mg9 1.942 . S
O26 C2 1.273 . S
O26 Mg9 1.955 . S
O27 C0 1.312 . S
O27 Mg3 2.291 . S
O27 Mg6 2.114 . S
O28 C0 1.208 . S
O28 Mg8 2.031 . S
C29 O14 1.264 . S
C29 O16 1.273 . S
C30 O11 1.191 . S
C30 O13 1.307 . S
C31 O58 1.312 . S
C31 O59 1.208 . S
C32 O53 1.331 . S
C32 O56 1.244 . S
C33 O55 1.264 . S
C33 O57 1.273 . S
Mg34 O36 1.936 . S
Mg34 O43 2.081 . S
Mg34 O45 2.023 . S
Mg34 O49 2.031 . S
Mg34 O58 2.291 . S
Mg35 O36 1.963 . S
Mg35 O46 1.942 . S
Mg35 O47 1.955 . S
Mg35 O54 1.986 . S
O36 Mg34 1.936 . S
O36 Mg35 1.963 . S
O36 Mg37 1.915 . S
Mg37 O36 1.915 . S
Mg37 O38 1.915 . S
Mg37 O42 2.013 . S
Mg37 O48 2.114 . S
Mg37 O52 2.013 . S
Mg37 O58 2.114 . S
O38 Mg37 1.915 . S
O38 Mg39 1.936 . S
O38 Mg40 1.963 . S
Mg39 O38 1.936 . S
Mg39 O48 2.291 . S
Mg39 O53 2.081 . S
Mg39 O55 2.023 . S
Mg39 O59 2.031 . S
Mg40 O38 1.963 . S
Mg40 O44 1.986 . S
Mg40 O56 1.942 . S
Mg40 O57 1.955 . S
C41 O52 1.191 . S
C41 O54 1.307 . S
O42 Mg37 2.013 . S
O42 C61 1.191 . S
O43 Mg34 2.081 . S
O43 C51 1.331 . S
O44 Mg40 1.986 . S
O44 C61 1.307 . S
O45 Mg34 2.023 . S
O45 C60 1.264 . S
O46 Mg35 1.942 . S
O46 C51 1.244 . S
O47 Mg35 1.955 . S
O47 C60 1.273 . S
O48 Mg37 2.114 . S
O48 Mg39 2.291 . S
O48 C50 1.312 . S
O49 Mg34 2.031 . S
O49 C50 1.208 . S
C50 O48 1.312 . S
C50 O49 1.208 . S
C51 O43 1.331 . S
C51 O46 1.244 . S
O52 Mg37 2.013 . S
O52 C41 1.191 . S
O53 C32 1.331 . S
O53 Mg39 2.081 . S
O54 Mg35 1.986 . S
O54 C41 1.307 . S
O55 C33 1.264 . S
O55 Mg39 2.023 . S
O56 C32 1.244 . S
O56 Mg40 1.942 . S
O57 C33 1.273 . S
O57 Mg40 1.955 . S
O58 C31 1.312 . S
O58 Mg34 2.291 . S
O58 Mg37 2.114 . S
O59 C31 1.208 . S
O59 Mg39 2.031 . S
C60 O45 1.264 . S
C60 O47 1.273 . S
C61 O42 1.191 . S
C61 O44 1.307 . S
C62 O89 1.312 . S
C62 O90 1.208 . S
C63 O84 1.331 1_556 S
C63 O87 1.244 . S
C64 O86 1.264 . S
C64 O88 1.273 . S
Mg65 O67 1.936 . S
Mg65 O74 2.081 . S
Mg65 O76 2.014 1_554 S
Mg65 O80 2.031 . S
Mg65 O89 2.291 . S
Mg66 O67 1.963 1_556 S
Mg66 O77 1.942 1_556 S
Mg66 O78 1.955 . S
Mg66 O85 1.986 . S
O67 Mg65 1.936 . S
O67 Mg66 1.963 1_554 S
O67 Mg68 1.915 . S
Mg68 O67 1.915 . S
Mg68 O69 1.915 . S
Mg68 O73 2.013 1_554 S
Mg68 O79 2.114 . S
Mg68 O83 2.013 . S
Mg68 O89 2.114 . S
O69 Mg68 1.915 . S
O69 Mg70 1.935 . S
O69 Mg71 1.964 1_554 S
Mg70 O69 1.935 . S
Mg70 O79 2.291 . S
Mg70 O84 2.081 . S
Mg70 O86 2.023 . S
Mg70 O90 2.031 . S
Mg71 O69 1.964 1_556 S
Mg71 O75 1.986 . S
Mg71 O87 1.942 . S
Mg71 O88 1.955 1_556 S
C72 O83 1.191 . S
C72 O85 1.307 1_554 S
O73 Mg68 2.013 1_556 S
O73 C92 1.191 . S
O74 Mg65 2.081 . S
O74 C82 1.331 . S
O75 Mg71 1.986 . S
O75 C92 1.307 . S
O76 Mg65 2.014 1_556 S
O76 C91 1.274 . S
O77 Mg66 1.942 1_554 S
O77 C82 1.244 . S
O78 Mg66 1.955 . S
O78 C91 1.273 . S
O79 Mg68 2.114 . S
O79 Mg70 2.291 . S
O79 C81 1.312 . S
O80 Mg65 2.031 . S
O80 C81 1.208 . S
C81 O79 1.312 . S
C81 O80 1.208 . S
C82 O74 1.331 . S
C82 O77 1.244 . S
O83 Mg68 2.013 . S
O83 C72 1.191 . S
O84 C63 1.331 1_554 S
O84 Mg70 2.081 . S
O85 Mg66 1.986 . S
O85 C72 1.307 1_556 S
O86 C64 1.264 . S
O86 Mg70 2.023 . S
O87 C63 1.244 . S
O87 Mg71 1.942 . S
O88 C64 1.273 . S
O88 Mg71 1.955 1_554 S
O89 C62 1.312 . S
O89 Mg65 2.291 . S
O89 Mg68 2.114 . S
O90 C62 1.208 . S
O90 Mg70 2.031 . S
C91 O76 1.274 . S
C91 O78 1.273 . S
C92 O73 1.191 . S
C92 O75 1.307 . S
C93 O120 1.312 . S
C93 O121 1.208 . S
C94 O115 1.331 . S
C94 O118 1.244 . S
C95 O117 1.264 . S
C95 O119 1.273 . S
Mg96 O98 1.936 . S
Mg96 O105 2.081 . S
Mg96 O107 2.023 . S
Mg96 O111 2.031 . S
Mg96 O120 2.291 . S
Mg97 O98 1.963 . S
Mg97 O108 1.942 . S
Mg97 O109 1.955 . S
Mg97 O116 1.986 . S
O98 Mg96 1.936 . S
O98 Mg97 1.963 . S
O98 Mg99 1.915 . S
Mg99 O98 1.915 . S
Mg99 O100 1.915 . S
Mg99 O104 2.013 . S
Mg99 O110 2.114 . S
Mg99 O114 2.013 . S
Mg99 O120 2.114 . S
O100 Mg99 1.915 . S
O100 Mg101 1.936 . S
O100 Mg102 1.963 . S
Mg101 O100 1.936 . S
Mg101 O110 2.291 . S
Mg101 O115 2.081 . S
Mg101 O117 2.023 . S
Mg101 O121 2.031 . S
Mg102 O100 1.963 . S
Mg102 O106 1.986 . S
Mg102 O118 1.942 . S
Mg102 O119 1.955 . S
C103 O114 1.191 . S
C103 O116 1.307 . S
O104 Mg99 2.013 . S
O104 C123 1.191 . S
O105 Mg96 2.081 . S
O105 C113 1.331 . S
O106 Mg102 1.986 . S
O106 C123 1.307 . S
O107 Mg96 2.023 . S
O107 C122 1.264 . S
O108 Mg97 1.942 . S
O108 C113 1.244 . S
O109 Mg97 1.955 . S
O109 C122 1.273 . S
O110 Mg99 2.114 . S
O110 Mg101 2.291 . S
O110 C112 1.312 . S
O111 Mg96 2.031 . S
O111 C112 1.208 . S
C112 O110 1.312 . S
C112 O111 1.208 . S
C113 O105 1.331 . S
C113 O108 1.244 . S
O114 Mg99 2.013 . S
O114 C103 1.191 . S
O115 C94 1.331 . S
O115 Mg101 2.081 . S
O116 Mg97 1.986 . S
O116 C103 1.307 . S
O117 C95 1.264 . S
O117 Mg101 2.023 . S
O118 C94 1.244 . S
O118 Mg102 1.942 . S
O119 C95 1.273 . S
O119 Mg102 1.955 . S
O120 C93 1.312 . S
O120 Mg96 2.291 . S
O120 Mg99 2.114 . S
O121 C93 1.208 . S
O121 Mg101 2.031 . S
C122 O107 1.264 . S
C122 O109 1.273 . S
C123 O104 1.191 . S
C123 O106 1.307 . S
C124 O151 1.312 . S
C124 O152 1.208 . S
C125 O146 1.331 . S
C125 O149 1.244 . S
C126 O148 1.264 . S
C126 O150 1.273 . S
Mg127 O129 1.936 . S
Mg127 O136 2.081 . S
Mg127 O138 2.023 . S
Mg127 O142 2.031 . S
Mg127 O151 2.291 . S
Mg128 O129 1.963 . S
Mg128 O139 1.942 . S
Mg128 O140 1.955 . S
Mg128 O147 1.986 . S
O129 Mg127 1.936 . S
O129 Mg128 1.963 . S
O129 Mg130 1.915 . S
Mg130 O129 1.915 . S
Mg130 O131 1.915 . S
Mg130 O135 2.013 . S
Mg130 O141 2.114 . S
Mg130 O145 2.013 . S
Mg130 O151 2.114 . S
O131 Mg130 1.915 . S
O131 Mg132 1.936 . S
O131 Mg133 1.963 . S
Mg132 O131 1.936 . S
Mg132 O141 2.291 . S
Mg132 O146 2.081 . S
Mg132 O148 2.023 . S
Mg132 O152 2.031 . S
Mg133 O131 1.963 . S
Mg133 O137 1.986 . S
Mg133 O149 1.942 . S
Mg133 O150 1.955 . S
C134 O145 1.191 . S
C134 O147 1.307 . S
O135 Mg130 2.013 . S
O135 C154 1.191 . S
O136 Mg127 2.081 . S
O136 C144 1.331 . S
O137 Mg133 1.986 . S
O137 C154 1.307 . S
O138 Mg127 2.023 . S
O138 C153 1.264 . S
O139 Mg128 1.942 . S
O139 C144 1.244 . S
O140 Mg128 1.955 . S
O140 C153 1.273 . S
O141 Mg130 2.114 . S
O141 Mg132 2.291 . S
O141 C143 1.312 . S
O142 Mg127 2.031 . S
O142 C143 1.208 . S
C143 O141 1.312 . S
C143 O142 1.208 . S
C144 O136 1.331 . S
C144 O139 1.244 . S
O145 Mg130 2.013 . S
O145 C134 1.191 . S
O146 C125 1.331 . S
O146 Mg132 2.081 . S
O147 Mg128 1.986 . S
O147 C134 1.307 . S
O148 C126 1.264 . S
O148 Mg132 2.023 . S
O149 C125 1.244 . S
O149 Mg133 1.942 . S
O150 C126 1.273 . S
O150 Mg133 1.955 . S
O151 C124 1.312 . S
O151 Mg127 2.291 . S
O151 Mg130 2.114 . S
O152 C124 1.208 . S
O152 Mg132 2.031 . S
C153 O138 1.264 . S
C153 O140 1.273 . S
C154 O135 1.191 . S
C154 O137 1.307 . S
C155 O182 1.312 . S
C155 O183 1.208 . S
C156 O177 1.331 . S
C156 O180 1.244 . S
C157 O179 1.264 . S
C157 O181 1.273 . S
Mg158 O160 1.936 . S
Mg158 O167 2.081 . S
Mg158 O169 2.023 . S
Mg158 O173 2.031 . S
Mg158 O182 2.291 . S
Mg159 O160 1.963 . S
Mg159 O170 1.942 . S
Mg159 O171 1.955 . S
Mg159 O178 1.986 . S
O160 Mg158 1.936 . S
O160 Mg159 1.963 . S
O160 Mg161 1.915 . S
Mg161 O160 1.915 . S
Mg161 O162 1.915 . S
Mg161 O166 2.013 . S
Mg161 O172 2.114 . S
Mg161 O176 2.013 . S
Mg161 O182 2.114 . S
O162 Mg161 1.915 . S
O162 Mg163 1.936 . S
O162 Mg164 1.963 . S
Mg163 O162 1.936 . S
Mg163 O172 2.291 . S
Mg163 O177 2.081 . S
Mg163 O179 2.023 . S
Mg163 O183 2.031 . S
Mg164 O162 1.963 . S
Mg164 O168 1.986 . S
Mg164 O180 1.942 . S
Mg164 O181 1.955 . S
C165 O176 1.191 . S
C165 O178 1.307 . S
O166 Mg161 2.013 . S
O166 C185 1.191 . S
O167 Mg158 2.081 . S
O167 C175 1.331 . S
O168 Mg164 1.986 . S
O168 C185 1.307 . S
O169 Mg158 2.023 . S
O169 C184 1.264 . S
O170 Mg159 1.942 . S
O170 C175 1.244 . S
O171 Mg159 1.955 . S
O171 C184 1.273 . S
O172 Mg161 2.114 . S
O172 Mg163 2.291 . S
O172 C174 1.312 . S
O173 Mg158 2.031 . S
O173 C174 1.208 . S
C174 O172 1.312 . S
C174 O173 1.208 . S
C175 O167 1.331 . S
C175 O170 1.244 . S
O176 Mg161 2.013 . S
O176 C165 1.191 . S
O177 C156 1.331 . S
O177 Mg163 2.081 . S
O178 Mg159 1.986 . S
O178 C165 1.307 . S
O179 C157 1.264 . S
O179 Mg163 2.023 . S
O180 C156 1.244 . S
O180 Mg164 1.942 . S
O181 C157 1.273 . S
O181 Mg164 1.955 . S
O182 C155 1.312 . S
O182 Mg158 2.291 . S
O182 Mg161 2.114 . S
O183 C155 1.208 . S
O183 Mg163 2.031 . S
C184 O169 1.264 . S
C184 O171 1.273 . S
C185 O166 1.191 . S
C185 O168 1.307 . S
C186 O213 1.312 . S
C186 O214 1.208 . S
C187 O208 1.331 . S
C187 O211 1.244 . S
C188 O210 1.264 . S
C188 O212 1.273 . S
Mg189 O191 1.936 . S
Mg189 O198 2.081 . S
Mg189 O200 2.023 1_554 S
Mg189 O204 2.031 . S
Mg189 O213 2.291 . S
Mg190 O191 1.963 1_556 S
Mg190 O201 1.942 1_556 S
Mg190 O202 1.955 . S
Mg190 O209 1.986 . S
O191 Mg189 1.936 . S
O191 Mg190 1.963 1_554 S
O191 Mg192 1.915 . S
Mg192 O191 1.915 . S
Mg192 O193 1.915 1_554 S
Mg192 O197 2.013 1_554 S
Mg192 O203 2.114 . S
Mg192 O207 2.013 . S
Mg192 O213 2.114 . S
O193 Mg192 1.915 1_556 S
O193 Mg194 1.936 1_556 S
O193 Mg195 1.963 . S
Mg194 O193 1.936 1_554 S
Mg194 O203 2.291 . S
Mg194 O208 2.081 1_554 S
Mg194 O210 2.023 . S
Mg194 O214 2.031 . S
Mg195 O193 1.963 . S
Mg195 O199 1.986 . S
Mg195 O211 1.942 . S
Mg195 O212 1.955 1_556 S
C196 O207 1.191 . S
C196 O209 1.307 1_554 S
O197 Mg192 2.013 1_556 S
O197 C216 1.191 . S
O198 Mg189 2.081 . S
O198 C206 1.331 . S
O199 Mg195 1.986 . S
O199 C216 1.307 . S
O200 Mg189 2.023 1_556 S
O200 C215 1.264 . S
O201 Mg190 1.942 1_554 S
O201 C206 1.244 . S
O202 Mg190 1.955 . S
O202 C215 1.273 . S
O203 Mg192 2.114 . S
O203 Mg194 2.291 . S
O203 C205 1.312 . S
O204 Mg189 2.031 . S
O204 C205 1.208 . S
C205 O203 1.312 . S
C205 O204 1.208 . S
C206 O198 1.331 . S
C206 O201 1.244 . S
O207 Mg192 2.013 . S
O207 C196 1.191 . S
O208 C187 1.331 . S
O208 Mg194 2.081 1_556 S
O209 Mg190 1.986 . S
O209 C196 1.307 1_556 S
O210 C188 1.264 . S
O210 Mg194 2.023 . S
O211 C187 1.244 . S
O211 Mg195 1.942 . S
O212 C188 1.273 . S
O212 Mg195 1.955 1_554 S
O213 C186 1.312 . S
O213 Mg189 2.291 . S
O213 Mg192 2.114 . S
O214 C186 1.208 . S
O214 Mg194 2.031 . S
C215 O200 1.264 . S
C215 O202 1.273 . S
C216 O197 1.191 . S
C216 O199 1.307 . S
C217 O244 1.312 . S
C217 O245 1.208 . S
C218 O239 1.331 . S
C218 O242 1.244 . S
C219 O241 1.264 . S
C219 O243 1.273 . S
Mg220 O222 1.936 . S
Mg220 O229 2.081 . S
Mg220 O231 2.023 . S
Mg220 O235 2.031 . S
Mg220 O244 2.291 . S
Mg221 O222 1.963 . S
Mg221 O232 1.942 . S
Mg221 O233 1.955 . S
Mg221 O240 1.986 . S
O222 Mg220 1.936 . S
O222 Mg221 1.963 . S
O222 Mg223 1.915 . S
Mg223 O222 1.915 . S
Mg223 O224 1.915 . S
Mg223 O228 2.013 . S
Mg223 O234 2.114 . S
Mg223 O238 2.013 . S
Mg223 O244 2.114 . S
O224 Mg223 1.915 . S
O224 Mg225 1.936 . S
O224 Mg226 1.963 . S
Mg225 O224 1.936 . S
Mg225 O234 2.291 . S
Mg225 O239 2.081 . S
Mg225 O241 2.023 . S
Mg225 O245 2.031 . S
Mg226 O224 1.963 . S
Mg226 O230 1.986 . S
Mg226 O242 1.942 . S
Mg226 O243 1.955 . S
C227 O238 1.191 . S
C227 O240 1.307 . S
O228 Mg223 2.013 . S
O228 C247 1.191 . S
O229 Mg220 2.081 . S
O229 C237 1.331 . S
O230 Mg226 1.986 . S
O230 C247 1.307 . S
O231 Mg220 2.023 . S
O231 C246 1.264 . S
O232 Mg221 1.942 . S
O232 C237 1.244 . S
O233 Mg221 1.955 . S
O233 C246 1.273 . S
O234 Mg223 2.114 . S
O234 Mg225 2.291 . S
O234 C236 1.312 . S
O235 Mg220 2.031 . S
O235 C236 1.208 . S
C236 O234 1.312 . S
C236 O235 1.208 . S
C237 O229 1.331 . S
C237 O232 1.244 . S
O238 Mg223 2.013 . S
O238 C227 1.191 . S
O239 C218 1.331 . S
O239 Mg225 2.081 . S
O240 Mg221 1.986 . S
O240 C227 1.307 . S
O241 C219 1.264 . S
O241 Mg225 2.023 . S
O242 C218 1.244 . S
O242 Mg226 1.942 . S
O243 C219 1.273 . S
O243 Mg226 1.955 . S
O244 C217 1.312 . S
O244 Mg220 2.291 . S
O244 Mg223 2.114 . S
O245 C217 1.208 . S
O245 Mg225 2.031 . S
C246 O231 1.264 . S
C246 O233 1.273 . S
C247 O228 1.191 . S
C247 O230 1.307 . S
C248 O275 1.312 . S
C248 O276 1.208 . S
C249 O270 1.331 . S
C249 O273 1.244 . S
C250 O272 1.264 . S
C250 O274 1.273 . S
Mg251 O253 1.936 1_556 S
Mg251 O260 2.081 1_556 S
Mg251 O262 2.023 . S
Mg251 O266 2.031 . S
Mg251 O275 2.291 . S
Mg252 O253 1.963 . S
Mg252 O263 1.942 . S
Mg252 O264 1.955 . S
Mg252 O271 1.986 . S
O253 Mg251 1.936 1_554 S
O253 Mg252 1.963 . S
O253 Mg254 1.915 . S
Mg254 O253 1.915 . S
Mg254 O255 1.915 . S
Mg254 O259 2.013 . S
Mg254 O265 2.114 . S
Mg254 O269 2.013 . S
Mg254 O275 2.114 1_554 S
O255 Mg254 1.915 . S
O255 Mg256 1.936 1_554 S
O255 Mg257 1.963 . S
Mg256 O255 1.936 1_556 S
Mg256 O265 2.291 1_556 S
Mg256 O270 2.081 . S
Mg256 O272 2.023 1_556 S
Mg256 O276 2.031 . S
Mg257 O255 1.963 . S
Mg257 O261 1.986 . S
Mg257 O273 1.942 1_554 S
Mg257 O274 1.955 . S
C258 O269 1.191 . S
C258 O271 1.307 . S
O259 Mg254 2.013 . S
O259 C278 1.191 . S
O260 Mg251 2.081 1_554 S
O260 C268 1.331 . S
O261 Mg257 1.986 . S
O261 C278 1.307 . S
O262 Mg251 2.023 . S
O262 C277 1.264 . S
O263 Mg252 1.942 . S
O263 C268 1.244 . S
O264 Mg252 1.955 . S
O264 C277 1.273 1_554 S
O265 Mg254 2.114 . S
O265 Mg256 2.291 1_554 S
O265 C267 1.312 . S
O266 Mg251 2.031 . S
O266 C267 1.208 1_556 S
C267 O265 1.312 . S
C267 O266 1.208 1_554 S
C268 O260 1.331 . S
C268 O263 1.244 . S
O269 Mg254 2.013 . S
O269 C258 1.191 . S
O270 C249 1.331 . S
O270 Mg256 2.081 . S
O271 Mg252 1.986 . S
O271 C258 1.307 . S
O272 C250 1.264 . S
O272 Mg256 2.023 1_554 S
O273 C249 1.244 . S
O273 Mg257 1.942 1_556 S
O274 C250 1.273 . S
O274 Mg257 1.955 . S
O275 C248 1.312 . S
O275 Mg251 2.291 . S
O275 Mg254 2.114 1_556 S
O276 C248 1.208 . S
O276 Mg256 2.031 . S
C277 O262 1.264 . S
C277 O264 1.273 1_556 S
C278 O259 1.191 . S
C278 O261 1.307 . S
C279 O306 1.312 . S
C279 O307 1.208 . S
C280 O301 1.331 . S
C280 O304 1.244 . S
C281 O303 1.264 . S
C281 O305 1.273 . S
Mg282 O284 1.936 . S
Mg282 O291 2.081 . S
Mg282 O293 2.023 . S
Mg282 O297 2.031 . S
Mg282 O306 2.291 . S
Mg283 O284 1.963 . S
Mg283 O294 1.942 . S
Mg283 O295 1.955 . S
Mg283 O302 1.986 . S
O284 Mg282 1.936 . S
O284 Mg283 1.963 . S
O284 Mg285 1.915 . S
Mg285 O284 1.915 . S
Mg285 O286 1.915 . S
Mg285 O290 2.013 . S
Mg285 O296 2.114 . S
Mg285 O300 2.013 . S
Mg285 O306 2.114 . S
O286 Mg285 1.915 . S
O286 Mg287 1.936 . S
O286 Mg288 1.963 . S
Mg287 O286 1.936 . S
Mg287 O296 2.291 . S
Mg287 O301 2.081 . S
Mg287 O303 2.023 . S
Mg287 O307 2.031 . S
Mg288 O286 1.963 . S
Mg288 O292 1.986 . S
Mg288 O304 1.942 . S
Mg288 O305 1.955 . S
C289 O300 1.191 . S
C289 O302 1.307 . S
O290 Mg285 2.013 . S
O290 C309 1.191 . S
O291 Mg282 2.081 . S
O291 C299 1.331 . S
O292 Mg288 1.986 . S
O292 C309 1.307 . S
O293 Mg282 2.023 . S
O293 C308 1.264 . S
O294 Mg283 1.942 . S
O294 C299 1.244 . S
O295 Mg283 1.955 . S
O295 C308 1.273 . S
O296 Mg285 2.114 . S
O296 Mg287 2.291 . S
O296 C298 1.312 . S
O297 Mg282 2.031 . S
O297 C298 1.208 . S
C298 O296 1.312 . S
C298 O297 1.208 . S
C299 O291 1.331 . S
C299 O294 1.244 . S
O300 Mg285 2.013 . S
O300 C289 1.191 . S
O301 C280 1.331 . S
O301 Mg287 2.081 . S
O302 Mg283 1.986 . S
O302 C289 1.307 . S
O303 C281 1.264 . S
O303 Mg287 2.023 . S
O304 C280 1.244 . S
O304 Mg288 1.942 . S
O305 C281 1.273 . S
O305 Mg288 1.955 . S
O306 C279 1.312 . S
O306 Mg282 2.291 . S
O306 Mg285 2.114 . S
O307 C279 1.208 . S
O307 Mg287 2.031 . S
C308 O293 1.264 . S
C308 O295 1.273 . S
C309 O290 1.191 . S
C309 O292 1.307 . S
C310 O337 1.312 . S
C310 O338 1.208 . S
C311 O332 1.331 . S
C311 O335 1.244 . S
C312 O334 1.264 . S
C312 O336 1.273 . S
Mg313 O315 1.936 . S
Mg313 O322 2.081 . S
Mg313 O324 2.023 . S
Mg313 O328 2.031 . S
Mg313 O337 2.291 . S
Mg314 O315 1.963 . S
Mg314 O325 1.942 . S
Mg314 O326 1.955 . S
Mg314 O333 1.986 . S
O315 Mg313 1.936 . S
O315 Mg314 1.963 . S
O315 Mg316 1.915 . S
Mg316 O315 1.915 . S
Mg316 O317 1.915 . S
Mg316 O321 2.013 . S
Mg316 O327 2.114 . S
Mg316 O331 2.013 . S
Mg316 O337 2.114 . S
O317 Mg316 1.915 . S
O317 Mg318 1.936 . S
O317 Mg319 1.963 . S
Mg318 O317 1.936 . S
Mg318 O327 2.291 . S
Mg318 O332 2.081 . S
Mg318 O334 2.023 . S
Mg318 O338 2.031 . S
Mg319 O317 1.963 . S
Mg319 O323 1.986 . S
Mg319 O335 1.942 . S
Mg319 O336 1.955 . S
C320 O331 1.191 . S
C320 O333 1.307 . S
O321 Mg316 2.013 . S
O321 C340 1.191 . S
O322 Mg313 2.081 . S
O322 C330 1.331 . S
O323 Mg319 1.986 . S
O323 C340 1.307 . S
O324 Mg313 2.023 . S
O324 C339 1.264 . S
O325 Mg314 1.942 . S
O325 C330 1.244 . S
O326 Mg314 1.955 . S
O326 C339 1.273 . S
O327 Mg316 2.114 . S
O327 Mg318 2.291 . S
O327 C329 1.312 . S
O328 Mg313 2.031 . S
O328 C329 1.208 . S
C329 O327 1.312 . S
C329 O328 1.208 . S
C330 O322 1.331 . S
C330 O325 1.244 . S
O331 Mg316 2.013 . S
O331 C320 1.191 . S
O332 C311 1.331 . S
O332 Mg318 2.081 . S
O333 Mg314 1.986 . S
O333 C320 1.307 . S
O334 C312 1.264 . S
O334 Mg318 2.023 . S
O335 C311 1.244 . S
O335 Mg319 1.942 . S
O336 C312 1.273 . S
O336 Mg319 1.955 . S
O337 C310 1.312 . S
O337 Mg313 2.291 . S
O337 Mg316 2.114 . S
O338 C310 1.208 . S
O338 Mg318 2.031 . S
C339 O324 1.264 . S
C339 O326 1.273 . S
C340 O321 1.191 . S
C340 O323 1.307 . S
C341 O368 1.312 . S
C341 O369 1.208 . S
C342 O363 1.331 . S
C342 O366 1.244 . S
C343 O365 1.264 . S
C343 O367 1.273 . S
Mg344 O346 1.936 . S
Mg344 O353 2.081 . S
Mg344 O355 2.023 . S
Mg344 O359 2.031 . S
Mg344 O368 2.291 . S
Mg345 O346 1.963 . S
Mg345 O356 1.942 . S
Mg345 O357 1.955 . S
Mg345 O364 1.986 . S
O346 Mg344 1.936 . S
O346 Mg345 1.963 . S
O346 Mg347 1.915 . S
Mg347 O346 1.915 . S
Mg347 O348 1.915 . S
Mg347 O352 2.013 . S
Mg347 O358 2.114 . S
Mg347 O362 2.013 . S
Mg347 O368 2.114 . S
O348 Mg347 1.915 . S
O348 Mg349 1.936 . S
O348 Mg350 1.963 . S
Mg349 O348 1.936 . S
Mg349 O358 2.291 . S
Mg349 O363 2.081 . S
Mg349 O365 2.023 . S
Mg349 O369 2.031 . S
Mg350 O348 1.963 . S
Mg350 O354 1.986 . S
Mg350 O366 1.942 . S
Mg350 O367 1.955 . S
C351 O362 1.191 . S
C351 O364 1.307 . S
O352 Mg347 2.013 . S
O352 C371 1.191 . S
O353 Mg344 2.081 . S
O353 C361 1.331 . S
O354 Mg350 1.986 . S
O354 C371 1.307 . S
O355 Mg344 2.023 . S
O355 C370 1.264 . S
O356 Mg345 1.942 . S
O356 C361 1.244 . S
O357 Mg345 1.955 . S
O357 C370 1.273 . S
O358 Mg347 2.114 . S
O358 Mg349 2.291 . S
O358 C360 1.312 . S
O359 Mg344 2.031 . S
O359 C360 1.208 . S
C360 O358 1.312 . S
C360 O359 1.208 . S
C361 O353 1.331 . S
C361 O356 1.244 . S
O362 Mg347 2.013 . S
O362 C351 1.191 . S
O363 C342 1.331 . S
O363 Mg349 2.081 . S
O364 Mg345 1.986 . S
O364 C351 1.307 . S
O365 C343 1.264 . S
O365 Mg349 2.023 . S
O366 C342 1.244 . S
O366 Mg350 1.942 . S
O367 C343 1.273 . S
O367 Mg350 1.955 . S
O368 C341 1.312 . S
O368 Mg344 2.291 . S
O368 Mg347 2.114 . S
O369 C341 1.208 . S
O369 Mg349 2.031 . S
C370 O355 1.264 . S
C370 O357 1.273 . S
C371 O352 1.191 . S
C371 O354 1.307 . S
C372 O399 1.312 . S
C372 O400 1.208 . S
C373 O394 1.331 . S
C373 O397 1.244 . S
C374 O396 1.264 . S
C374 O398 1.273 . S
Mg375 O377 1.936 . S
Mg375 O384 2.081 . S
Mg375 O386 2.023 1_554 S
Mg375 O390 2.031 . S
Mg375 O399 2.291 . S
Mg376 O377 1.963 1_556 S
Mg376 O387 1.942 1_556 S
Mg376 O388 1.955 . S
Mg376 O395 1.986 . S
O377 Mg375 1.936 . S
O377 Mg376 1.963 1_554 S
O377 Mg378 1.915 1_554 S
Mg378 O377 1.915 1_556 S
Mg378 O379 1.915 . S
Mg378 O383 2.013 . S
Mg378 O389 2.114 1_556 S
Mg378 O393 2.013 1_556 S
Mg378 O399 2.114 1_556 S
O379 Mg378 1.915 . S
O379 Mg380 1.936 1_556 S
O379 Mg381 1.963 . S
Mg380 O379 1.936 1_554 S
Mg380 O389 2.291 . S
Mg380 O394 2.081 1_554 S
Mg380 O396 2.023 . S
Mg380 O400 2.031 . S
Mg381 O379 1.963 . S
Mg381 O385 1.986 . S
Mg381 O397 1.942 . S
Mg381 O398 1.955 1_556 S
C382 O393 1.191 . S
C382 O395 1.307 1_554 S
O383 Mg378 2.013 . S
O383 C402 1.191 . S
O384 Mg375 2.081 . S
O384 C392 1.331 . S
O385 Mg381 1.986 . S
O385 C402 1.307 . S
O386 Mg375 2.023 1_556 S
O386 C401 1.264 . S
O387 Mg376 1.942 1_554 S
O387 C392 1.244 . S
O388 Mg376 1.955 . S
O388 C401 1.273 . S
O389 Mg378 2.114 1_554 S
O389 Mg380 2.291 . S
O389 C391 1.312 . S
O390 Mg375 2.031 . S
O390 C391 1.208 . S
C391 O389 1.312 . S
C391 O390 1.208 . S
C392 O384 1.331 . S
C392 O387 1.244 . S
O393 Mg378 2.013 1_554 S
O393 C382 1.191 . S
O394 C373 1.331 . S
O394 Mg380 2.081 1_556 S
O395 Mg376 1.986 . S
O395 C382 1.307 1_556 S
O396 C374 1.264 . S
O396 Mg380 2.023 . S
O397 C373 1.244 . S
O397 Mg381 1.942 . S
O398 C374 1.273 . S
O398 Mg381 1.955 1_554 S
O399 C372 1.312 . S
O399 Mg375 2.291 . S
O399 Mg378 2.114 1_554 S
O400 C372 1.208 . S
O400 Mg380 2.031 . S
C401 O386 1.264 . S
C401 O388 1.273 . S
C402 O383 1.191 . S
C402 O385 1.307 . S
C403 O430 1.312 . S
C403 O431 1.208 . S
C404 O425 1.331 . S
C404 O428 1.244 . S
C405 O427 1.264 . S
C405 O429 1.273 . S
Mg406 O408 1.936 . S
Mg406 O415 2.081 . S
Mg406 O417 2.023 . S
Mg406 O421 2.031 . S
Mg406 O430 2.291 . S
Mg407 O408 1.963 . S
Mg407 O418 1.942 . S
Mg407 O419 1.955 . S
Mg407 O426 1.986 . S
O408 Mg406 1.936 . S
O408 Mg407 1.963 . S
O408 Mg409 1.915 . S
Mg409 O408 1.915 . S
Mg409 O410 1.915 . S
Mg409 O414 2.013 . S
Mg409 O420 2.114 . S
Mg409 O424 2.013 . S
Mg409 O430 2.114 . S
O410 Mg409 1.915 . S
O410 Mg411 1.936 . S
O410 Mg412 1.963 . S
Mg411 O410 1.936 . S
Mg411 O420 2.291 . S
Mg411 O425 2.081 . S
Mg411 O427 2.023 . S
Mg411 O431 2.031 . S
Mg412 O410 1.963 . S
Mg412 O416 1.986 . S
Mg412 O428 1.942 . S
Mg412 O429 1.955 . S
C413 O424 1.191 . S
C413 O426 1.307 . S
O414 Mg409 2.013 . S
O414 C433 1.191 . S
O415 Mg406 2.081 . S
O415 C423 1.331 . S
O416 Mg412 1.986 . S
O416 C433 1.307 . S
O417 Mg406 2.023 . S
O417 C432 1.264 . S
O418 Mg407 1.942 . S
O418 C423 1.244 . S
O419 Mg407 1.955 . S
O419 C432 1.273 . S
O420 Mg409 2.114 . S
O420 Mg411 2.291 . S
O420 C422 1.312 . S
O421 Mg406 2.031 . S
O421 C422 1.208 . S
C422 O420 1.312 . S
C422 O421 1.208 . S
C423 O415 1.331 . S
C423 O418 1.244 . S
O424 Mg409 2.013 . S
O424 C413 1.191 . S
O425 C404 1.331 . S
O425 Mg411 2.081 . S
O426 Mg407 1.986 . S
O426 C413 1.307 . S
O427 C405 1.264 . S
O427 Mg411 2.023 . S
O428 C404 1.244 . S
O428 Mg412 1.942 . S
O429 C405 1.273 . S
O429 Mg412 1.955 . S
O430 C403 1.312 . S
O430 Mg406 2.291 . S
O430 Mg409 2.114 . S
O431 C403 1.208 . S
O431 Mg411 2.031 . S
C432 O417 1.264 . S
C432 O419 1.273 . S
C433 O414 1.191 . S
C433 O416 1.307 . S
C434 O461 1.312 . S
C434 O462 1.208 . S
C435 O456 1.331 . S
C435 O459 1.244 . S
C436 O458 1.264 . S
C436 O460 1.273 . S
Mg437 O439 1.936 . S
Mg437 O446 2.081 . S
Mg437 O448 2.023 . S
Mg437 O452 2.031 . S
Mg437 O461 2.291 . S
Mg438 O439 1.963 . S
Mg438 O449 1.942 . S
Mg438 O450 1.955 . S
Mg438 O457 1.986 . S
O439 Mg437 1.936 . S
O439 Mg438 1.963 . S
O439 Mg440 1.915 . S
Mg440 O439 1.915 . S
Mg440 O441 1.915 . S
Mg440 O445 2.013 . S
Mg440 O451 2.114 . S
Mg440 O455 2.013 . S
Mg440 O461 2.114 . S
O441 Mg440 1.915 . S
O441 Mg442 1.936 . S
O441 Mg443 1.963 . S
Mg442 O441 1.936 . S
Mg442 O451 2.291 . S
Mg442 O456 2.081 . S
Mg442 O458 2.023 . S
Mg442 O462 2.031 . S
Mg443 O441 1.963 . S
Mg443 O447 1.986 . S
Mg443 O459 1.942 . S
Mg443 O460 1.955 . S
C444 O455 1.191 . S
C444 O457 1.307 . S
O445 Mg440 2.013 . S
O445 C464 1.191 . S
O446 Mg437 2.081 . S
O446 C454 1.331 . S
O447 Mg443 1.986 . S
O447 C464 1.307 . S
O448 Mg437 2.023 . S
O448 C463 1.264 . S
O449 Mg438 1.942 . S
O449 C454 1.244 . S
O450 Mg438 1.955 . S
O450 C463 1.273 . S
O451 Mg440 2.114 . S
O451 Mg442 2.291 . S
O451 C453 1.312 . S
O452 Mg437 2.031 . S
O452 C453 1.208 . S
C453 O451 1.312 . S
C453 O452 1.208 . S
C454 O446 1.331 . S
C454 O449 1.244 . S
O455 Mg440 2.013 . S
O455 C444 1.191 . S
O456 C435 1.331 . S
O456 Mg442 2.081 . S
O457 Mg438 1.986 . S
O457 C444 1.307 . S
O458 C436 1.264 . S
O458 Mg442 2.023 . S
O459 C435 1.244 . S
O459 Mg443 1.942 . S
O460 C436 1.273 . S
O460 Mg443 1.955 . S
O461 C434 1.312 . S
O461 Mg437 2.291 . S
O461 Mg440 2.114 . S
O462 C434 1.208 . S
O462 Mg442 2.031 . S
C463 O448 1.264 . S
C463 O450 1.273 . S
C464 O445 1.191 . S
C464 O447 1.307 . S
C465 O492 1.312 . S
C465 O493 1.208 . S
C466 O487 1.331 . S
C466 O490 1.244 . S
C467 O489 1.264 . S
C467 O491 1.273 . S
Mg468 O470 1.936 . S
Mg468 O477 2.081 . S
Mg468 O479 2.023 . S
Mg468 O483 2.031 . S
Mg468 O492 2.291 . S
Mg469 O470 1.963 . S
Mg469 O480 1.942 . S
Mg469 O481 1.955 . S
Mg469 O488 1.986 . S
O470 Mg468 1.936 . S
O470 Mg469 1.963 . S
O470 Mg471 1.915 . S
Mg471 O470 1.915 . S
Mg471 O472 1.915 . S
Mg471 O476 2.013 . S
Mg471 O482 2.114 . S
Mg471 O486 2.013 . S
Mg471 O492 2.114 . S
O472 Mg471 1.915 . S
O472 Mg473 1.936 . S
O472 Mg474 1.963 . S
Mg473 O472 1.936 . S
Mg473 O482 2.291 . S
Mg473 O487 2.081 . S
Mg473 O489 2.023 . S
Mg473 O493 2.031 . S
Mg474 O472 1.963 . S
Mg474 O478 1.986 . S
Mg474 O490 1.942 . S
Mg474 O491 1.955 . S
C475 O486 1.191 . S
C475 O488 1.307 . S
O476 Mg471 2.013 . S
O476 C495 1.191 . S
O477 Mg468 2.081 . S
O477 C485 1.331 . S
O478 Mg474 1.986 . S
O478 C495 1.307 . S
O479 Mg468 2.023 . S
O479 C494 1.264 . S
O480 Mg469 1.942 . S
O480 C485 1.244 . S
O481 Mg469 1.955 . S
O481 C494 1.273 . S
O482 Mg471 2.114 . S
O482 Mg473 2.291 . S
O482 C484 1.312 . S
O483 Mg468 2.031 . S
O483 C484 1.208 . S
C484 O482 1.312 . S
C484 O483 1.208 . S
C485 O477 1.331 . S
C485 O480 1.244 . S
O486 Mg471 2.013 . S
O486 C475 1.191 . S
O487 C466 1.331 . S
O487 Mg473 2.081 . S
O488 Mg469 1.986 . S
O488 C475 1.307 . S
O489 C467 1.264 . S
O489 Mg473 2.023 . S
O490 C466 1.244 . S
O490 Mg474 1.942 . S
O491 C467 1.273 . S
O491 Mg474 1.955 . S
O492 C465 1.312 . S
O492 Mg468 2.291 . S
O492 Mg471 2.114 . S
O493 C465 1.208 . S
O493 Mg473 2.031 . S
C494 O479 1.264 . S
C494 O481 1.273 . S
C495 O476 1.191 . S
C495 O478 1.307 . S
H496 C502 0.930 . S
H497 C506 0.930 . S
H498 C511 0.929 . S
H499 C509 0.929 . S
H500 C504 0.929 . S
H501 C510 0.929 . S
C502 H496 0.930 . S
C502 C503 1.367 . S
C502 C510 1.378 . S
C503 C502 1.367 . S
C503 C511 1.433 . S
C504 H500 0.929 . S
C504 C506 1.378 . S
C504 C508 1.350 . S
C505 C508 1.463 . S
C505 C510 1.350 . S
C505 N513 1.427 . S
C506 H497 0.930 . S
C506 C504 1.378 . S
C506 C507 1.367 . S
C507 C506 1.367 . S
C507 C509 1.433 . S
C508 C504 1.350 . S
C508 C505 1.463 . S
C508 N512 1.427 . S
C509 H499 0.929 . S
C509 C507 1.433 . S
C509 N512 1.384 . S
C510 H501 0.929 . S
C510 C502 1.378 . S
C510 C505 1.350 . S
C511 H498 0.929 . S
C511 C503 1.433 . S
C511 N513 1.384 . S
N512 C508 1.427 . S
N512 C509 1.384 . S
N513 C505 1.427 . S
N513 C511 1.384 . S
H514 C520 0.930 . S
H515 C524 0.930 1_554 S
H516 C529 0.929 . S
H517 C527 0.929 . S
H518 C522 0.929 . S
H519 C528 0.929 . S
C520 H514 0.930 . S
C520 C521 1.367 . S
C520 C528 1.378 . S
C521 C520 1.367 . S
C521 C529 1.433 . S
C522 H518 0.929 . S
C522 C524 1.378 . S
C522 C526 1.350 . S
C523 C526 1.463 . S
C523 C528 1.350 . S
C523 N531 1.427 . S
C524 H515 0.930 1_556 S
C524 C522 1.378 . S
C524 C525 1.367 . S
C525 C524 1.367 . S
C525 C527 1.433 . S
C526 C522 1.350 . S
C526 C523 1.463 . S
C526 N530 1.427 . S
C527 H517 0.929 . S
C527 C525 1.433 . S
C527 N530 1.384 . S
C528 H519 0.929 . S
C528 C520 1.378 . S
C528 C523 1.350 . S
C529 H516 0.929 . S
C529 C521 1.433 . S
C529 N531 1.384 . S
N530 C526 1.427 . S
N530 C527 1.384 . S
N531 C523 1.427 . S
N531 C529 1.384 . S
H532 C538 0.930 . S
H533 C542 0.930 . S
H534 C547 0.929 . S
H535 C545 0.929 . S
H536 C540 0.929 1_556 S
H537 C546 0.929 . S
C538 H532 0.930 . S
C538 C539 1.367 . S
C538 C546 1.378 . S
C539 C538 1.367 . S
C539 C547 1.433 . S
C540 H536 0.929 1_554 S
C540 C542 1.378 1_554 S
C540 C544 1.350 . S
C541 C544 1.463 . S
C541 C546 1.350 . S
C541 N549 1.427 . S
C542 H533 0.930 . S
C542 C540 1.378 1_556 S
C542 C543 1.367 1_556 S
C543 C542 1.367 1_554 S
C543 C545 1.433 . S
C544 C540 1.350 . S
C544 C541 1.463 . S
C544 N548 1.427 . S
C545 H535 0.929 . S
C545 C543 1.433 . S
C545 N548 1.384 . S
C546 H537 0.929 . S
C546 C538 1.378 . S
C546 C541 1.350 . S
C547 H534 0.929 . S
C547 C539 1.433 . S
C547 N549 1.384 . S
N548 C544 1.427 . S
N548 C545 1.384 . S
N549 C541 1.427 . S
N549 C547 1.384 . S
H550 C556 0.930 . S
H551 C560 0.930 . S
H552 C565 0.929 . S
H553 C563 0.929 . S
H554 C558 0.929 . S
H555 C564 0.929 . S
C556 H550 0.930 . S
C556 C557 1.367 . S
C556 C564 1.378 . S
C557 C556 1.367 . S
C557 C565 1.433 . S
C558 H554 0.929 . S
C558 C560 1.378 1_655 S
C558 C562 1.350 . S
C559 C562 1.463 . S
C559 C564 1.350 . S
C559 N567 1.427 . S
C560 H551 0.930 . S
C560 C558 1.378 1_455 S
C560 C561 1.367 . S
C561 C560 1.367 . S
C561 C563 1.433 . S
C562 C558 1.350 . S
C562 C559 1.463 . S
C562 N566 1.427 . S
C563 H553 0.929 . S
C563 C561 1.433 . S
C563 N566 1.384 1_455 S
C564 H555 0.929 . S
C564 C556 1.378 . S
C564 C559 1.350 . S
C565 H552 0.929 . S
C565 C557 1.433 . S
C565 N567 1.384 . S
N566 C562 1.427 . S
N566 C563 1.384 1_655 S
N567 C559 1.427 . S
N567 C565 1.384 . S
H568 C574 0.930 . S
H569 C578 0.930 . S
H570 C583 0.929 . S
H571 C581 0.929 . S
H572 C576 0.929 . S
H573 C582 0.929 . S
C574 H568 0.930 . S
C574 C575 1.367 . S
C574 C582 1.378 . S
C575 C574 1.367 . S
C575 C583 1.433 . S
C576 H572 0.929 . S
C576 C578 1.378 . S
C576 C580 1.350 . S
C577 C580 1.463 . S
C577 C582 1.350 . S
C577 N585 1.427 . S
C578 H569 0.930 . S
C578 C576 1.378 . S
C578 C579 1.367 . S
C579 C578 1.367 . S
C579 C581 1.433 . S
C580 C576 1.350 . S
C580 C577 1.463 . S
C580 N584 1.427 . S
C581 H571 0.929 . S
C581 C579 1.433 . S
C581 N584 1.384 . S
C582 H573 0.929 . S
C582 C574 1.378 . S
C582 C577 1.350 . S
C583 H570 0.929 . S
C583 C575 1.433 . S
C583 N585 1.384 . S
N584 C580 1.427 . S
N584 C581 1.384 . S
N585 C577 1.427 . S
N585 C583 1.384 . S
H586 C592 0.930 . S
H587 C596 0.930 . S
H588 C601 0.929 . S
H589 C599 0.929 . S
H590 C594 0.929 . S
H591 C600 0.929 . S
C592 H586 0.930 . S
C592 C593 1.367 . S
C592 C600 1.378 . S
C593 C592 1.367 . S
C593 C601 1.433 . S
C594 H590 0.929 . S
C594 C596 1.378 . S
C594 C598 1.350 . S
C595 C598 1.463 . S
C595 C600 1.350 . S
C595 N603 1.427 . S
C596 H587 0.930 . S
C596 C594 1.378 . S
C596 C597 1.367 . S
C597 C596 1.367 . S
C597 C599 1.433 . S
C598 C594 1.350 . S
C598 C595 1.463 . S
C598 N602 1.427 . S
C599 H589 0.929 . S
C599 C597 1.433 . S
C599 N602 1.384 . S
C600 H591 0.929 . S
C600 C592 1.378 . S
C600 C595 1.350 . S
C601 H588 0.929 . S
C601 C593 1.433 . S
C601 N603 1.384 . S
N602 C598 1.427 . S
N602 C599 1.384 . S
N603 C595 1.427 . S
N603 C601 1.384 . S
H604 C610 0.930 . S
H605 C614 0.930 1_554 S
H606 C619 0.929 . S
H607 C617 0.929 . S
H608 C612 0.929 . S
H609 C618 0.929 . S
C610 H604 0.930 . S
C610 C611 1.367 . S
C610 C618 1.378 . S
C611 C610 1.367 . S
C611 C619 1.433 1_556 S
C612 H608 0.929 . S
C612 C614 1.378 1_554 S
C612 C616 1.350 1_554 S
C613 C616 1.463 . S
C613 C618 1.350 . S
C613 N621 1.427 1_556 S
C614 H605 0.930 1_556 S
C614 C612 1.378 1_556 S
C614 C615 1.367 . S
C615 C614 1.367 . S
C615 C617 1.433 . S
C616 C612 1.350 1_556 S
C616 C613 1.463 . S
C616 N620 1.427 . S
C617 H607 0.929 . S
C617 C615 1.433 . S
C617 N620 1.384 . S
C618 H609 0.929 . S
C618 C610 1.378 . S
C618 C613 1.350 . S
C619 H606 0.929 . S
C619 C611 1.433 1_554 S
C619 N621 1.384 . S
N620 C616 1.427 . S
N620 C617 1.384 . S
N621 C613 1.427 1_554 S
N621 C619 1.384 . S
H622 C628 0.930 . S
H623 C632 0.930 . S
H624 C637 0.929 . S
H625 C635 0.929 . S
H626 C630 0.929 . S
H627 C636 0.929 . S
C628 H622 0.930 . S
C628 C629 1.367 . S
C628 C636 1.378 1_655 S
C629 C628 1.367 . S
C629 C637 1.433 . S
C630 H626 0.929 . S
C630 C632 1.378 . S
C630 C634 1.350 . S
C631 C634 1.463 . S
C631 C636 1.350 . S
C631 N639 1.427 . S
C632 H623 0.930 . S
C632 C630 1.378 . S
C632 C633 1.367 . S
C633 C632 1.367 . S
C633 C635 1.433 . S
C634 C630 1.350 . S
C634 C631 1.463 . S
C634 N638 1.427 . S
C635 H625 0.929 . S
C635 C633 1.433 . S
C635 N638 1.384 . S
C636 H627 0.929 . S
C636 C628 1.378 1_455 S
C636 C631 1.350 . S
C637 H624 0.929 . S
C637 C629 1.433 . S
C637 N639 1.384 1_655 S
N638 C634 1.427 . S
N638 C635 1.384 . S
N639 C631 1.427 . S
N639 C637 1.384 1_455 S
H640 C646 0.930 . S
H641 C650 0.930 . S
H642 C655 0.929 . S
H643 C653 0.929 1_556 S
H644 C648 0.929 . S
H645 C654 0.929 . S
C646 H640 0.930 . S
C646 C647 1.367 . S
C646 C654 1.378 . S
C647 C646 1.367 . S
C647 C655 1.433 . S
C648 H644 0.929 . S
C648 C650 1.378 . S
C648 C652 1.350 . S
C649 C652 1.463 . S
C649 C654 1.350 . S
C649 N657 1.427 . S
C650 H641 0.930 . S
C650 C648 1.378 . S
C650 C651 1.367 . S
C651 C650 1.367 . S
C651 C653 1.433 . S
C652 C648 1.350 . S
C652 C649 1.463 . S
C652 N656 1.427 . S
C653 H643 0.929 1_554 S
C653 C651 1.433 . S
C653 N656 1.384 . S
C654 H645 0.929 . S
C654 C646 1.378 . S
C654 C649 1.350 . S
C655 H642 0.929 . S
C655 C647 1.433 . S
C655 N657 1.384 . S
N656 C652 1.427 . S
N656 C653 1.384 . S
N657 C649 1.427 . S
N657 C655 1.384 . S
H658 C664 0.930 . S
H659 C668 0.930 . S
H660 C673 0.929 . S
H661 C671 0.929 . S
H662 C666 0.929 . S
H663 C672 0.929 . S
C664 H658 0.930 . S
C664 C665 1.367 . S
C664 C672 1.378 1_655 S
C665 C664 1.367 . S
C665 C673 1.433 . S
C666 H662 0.929 . S
C666 C668 1.378 . S
C666 C670 1.350 . S
C667 C670 1.463 . S
C667 C672 1.350 . S
C667 N675 1.427 . S
C668 H659 0.930 . S
C668 C666 1.378 . S
C668 C669 1.367 . S
C669 C668 1.367 . S
C669 C671 1.433 . S
C670 C666 1.350 . S
C670 C667 1.463 . S
C670 N674 1.427 . S
C671 H661 0.929 . S
C671 C669 1.433 . S
C671 N674 1.384 . S
C672 H663 0.929 . S
C672 C664 1.378 1_455 S
C672 C667 1.350 . S
C673 H660 0.929 . S
C673 C665 1.433 . S
C673 N675 1.384 1_655 S
N674 C670 1.427 . S
N674 C671 1.384 . S
N675 C667 1.427 . S
N675 C673 1.384 1_455 S
H676 C682 0.930 . S
H677 C686 0.930 . S
H678 C691 0.929 . S
H679 C689 0.929 . S
H680 C684 0.929 . S
H681 C690 0.929 . S
C682 H676 0.930 . S
C682 C683 1.367 . S
C682 C690 1.378 . S
C683 C682 1.367 . S
C683 C691 1.433 . S
C684 H680 0.929 . S
C684 C686 1.378 . S
C684 C688 1.350 . S
C685 C688 1.463 . S
C685 C690 1.350 . S
C685 N693 1.427 . S
C686 H677 0.930 . S
C686 C684 1.378 . S
C686 C687 1.367 . S
C687 C686 1.367 . S
C687 C689 1.433 . S
C688 C684 1.350 . S
C688 C685 1.463 . S
C688 N692 1.427 . S
C689 H679 0.929 . S
C689 C687 1.433 . S
C689 N692 1.384 . S
C690 H681 0.929 . S
C690 C682 1.378 . S
C690 C685 1.350 . S
C691 H678 0.929 . S
C691 C683 1.433 . S
C691 N693 1.384 . S
N692 C688 1.427 . S
N692 C689 1.384 . S
N693 C685 1.427 . S
N693 C691 1.384 . S
H694 C700 0.930 . S
H695 C704 0.930 . S
H696 C709 0.929 . S
H697 C707 0.929 . S
H698 C702 0.929 . S
H699 C708 0.929 . S
C700 H694 0.930 . S
C700 C701 1.367 . S
C700 C708 1.378 . S
C701 C700 1.367 . S
C701 C709 1.433 . S
C702 H698 0.929 . S
C702 C704 1.378 . S
C702 C706 1.350 . S
C703 C706 1.463 . S
C703 C708 1.350 . S
C703 N711 1.427 . S
C704 H695 0.930 . S
C704 C702 1.378 . S
C704 C705 1.367 . S
C705 C704 1.367 . S
C705 C707 1.433 . S
C706 C702 1.350 . S
C706 C703 1.463 . S
C706 N710 1.427 . S
C707 H697 0.929 . S
C707 C705 1.433 . S
C707 N710 1.384 . S
C708 H699 0.929 . S
C708 C700 1.378 . S
C708 C703 1.350 . S
C709 H696 0.929 . S
C709 C701 1.433 . S
C709 N711 1.384 . S
N710 C706 1.427 . S
N710 C707 1.384 . S
N711 C703 1.427 . S
N711 C709 1.384 . S
H712 C718 0.930 1_554 S
H713 C722 0.930 . S
H714 C727 0.929 . S
H715 C725 0.929 . S
H716 C720 0.929 . S
H717 C726 0.929 1_554 S
C718 H712 0.930 1_556 S
C718 C719 1.367 . S
C718 C726 1.378 . S
C719 C718 1.367 . S
C719 C727 1.433 . S
C720 H716 0.929 . S
C720 C722 1.378 . S
C720 C724 1.350 . S
C721 C724 1.463 . S
C721 C726 1.350 . S
C721 N729 1.427 . S
C722 H713 0.930 . S
C722 C720 1.378 . S
C722 C723 1.367 . S
C723 C722 1.367 . S
C723 C725 1.433 1_556 S
C724 C720 1.350 . S
C724 C721 1.463 . S
C724 N728 1.427 1_556 S
C725 H715 0.929 . S
C725 C723 1.433 1_554 S
C725 N728 1.384 . S
C726 H717 0.929 1_556 S
C726 C718 1.378 . S
C726 C721 1.350 . S
C727 H714 0.929 . S
C727 C719 1.433 . S
C727 N729 1.384 . S
N728 C724 1.427 1_554 S
N728 C725 1.384 . S
N729 C721 1.427 . S
N729 C727 1.384 . S
H730 C736 0.930 . S
H731 C740 0.930 . S
H732 C745 0.929 . S
H733 C743 0.929 . S
H734 C738 0.929 . S
H735 C744 0.929 . S
C736 H730 0.930 . S
C736 C737 1.367 . S
C736 C744 1.378 . S
C737 C736 1.367 . S
C737 C745 1.433 . S
C738 H734 0.929 . S
C738 C740 1.378 1_655 S
C738 C742 1.350 . S
C739 C742 1.463 . S
C739 C744 1.350 . S
C739 N747 1.427 . S
C740 H731 0.930 . S
C740 C738 1.378 1_455 S
C740 C741 1.367 . S
C741 C740 1.367 . S
C741 C743 1.433 . S
C742 C738 1.350 . S
C742 C739 1.463 . S
C742 N746 1.427 . S
C743 H733 0.929 . S
C743 C741 1.433 . S
C743 N746 1.384 1_455 S
C744 H735 0.929 . S
C744 C736 1.378 . S
C744 C739 1.350 . S
C745 H732 0.929 . S
C745 C737 1.433 . S
C745 N747 1.384 . S
N746 C742 1.427 . S
N746 C743 1.384 1_655 S
N747 C739 1.427 . S
N747 C745 1.384 . S
H748 C754 0.930 . S
H749 C758 0.930 . S
H750 C763 0.929 . S
H751 C761 0.929 . S
H752 C756 0.929 . S
H753 C762 0.929 . S
C754 H748 0.930 . S
C754 C755 1.367 . S
C754 C762 1.378 . S
C755 C754 1.367 . S
C755 C763 1.433 . S
C756 H752 0.929 . S
C756 C758 1.378 . S
C756 C760 1.350 . S
C757 C760 1.463 . S
C757 C762 1.350 . S
C757 N765 1.427 . S
C758 H749 0.930 . S
C758 C756 1.378 . S
C758 C759 1.367 . S
C759 C758 1.367 . S
C759 C761 1.433 . S
C760 C756 1.350 . S
C760 C757 1.463 . S
C760 N764 1.427 . S
C761 H751 0.929 . S
C761 C759 1.433 . S
C761 N764 1.384 . S
C762 H753 0.929 . S
C762 C754 1.378 . S
C762 C757 1.350 . S
C763 H750 0.929 . S
C763 C755 1.433 . S
C763 N765 1.384 . S
N764 C760 1.427 . S
N764 C761 1.384 . S
N765 C757 1.427 . S
N765 C763 1.384 . S
H766 C772 0.930 . S
H767 C776 0.930 . S
H768 C781 0.929 . S
H769 C779 0.929 . S
H770 C774 0.929 . S
H771 C780 0.929 . S
C772 H766 0.930 . S
C772 C773 1.367 . S
C772 C780 1.378 . S
C773 C772 1.367 . S
C773 C781 1.433 . S
C774 H770 0.929 . S
C774 C776 1.378 . S
C774 C778 1.350 . S
C775 C778 1.463 . S
C775 C780 1.350 . S
C775 N783 1.427 . S
C776 H767 0.930 . S
C776 C774 1.378 . S
C776 C777 1.367 . S
C777 C776 1.367 . S
C777 C779 1.433 . S
C778 C774 1.350 . S
C778 C775 1.463 . S
C778 N782 1.427 . S
C779 H769 0.929 . S
C779 C777 1.433 . S
C779 N782 1.384 . S
C780 H771 0.929 . S
C780 C772 1.378 . S
C780 C775 1.350 . S
C781 H768 0.929 . S
C781 C773 1.433 . S
C781 N783 1.384 . S
N782 C778 1.427 . S
N782 C779 1.384 . S
N783 C775 1.427 . S
N783 C781 1.384 . S
H784 C790 0.930 . S
H785 C794 0.930 . S
H786 C799 0.929 . S
H787 C797 0.929 . S
H788 C792 0.929 . S
H789 C798 0.929 . S
C790 H784 0.930 . S
C790 C791 1.367 . S
C790 C798 1.378 . S
C791 C790 1.367 . S
C791 C799 1.433 . S
C792 H788 0.929 . S
C792 C794 1.378 . S
C792 C796 1.350 . S
C793 C796 1.463 1_554 S
C793 C798 1.350 . S
C793 N801 1.427 . S
C794 H785 0.930 . S
C794 C792 1.378 . S
C794 C795 1.367 . S
C795 C794 1.367 . S
C795 C797 1.433 . S
C796 C792 1.350 . S
C796 C793 1.463 1_556 S
C796 N800 1.427 . S
C797 H787 0.929 . S
C797 C795 1.433 . S
C797 N800 1.384 . S
C798 H789 0.929 . S
C798 C790 1.378 . S
C798 C793 1.350 . S
C799 H786 0.929 . S
C799 C791 1.433 . S
C799 N801 1.384 . S
N800 C796 1.427 . S
N800 C797 1.384 . S
N801 C793 1.427 . S
N801 C799 1.384 . S
H802 C808 0.930 . S
H803 C812 0.930 . S
H804 C817 0.929 . S
H805 C815 0.929 . S
H806 C810 0.929 . S
H807 C816 0.929 . S
C808 H802 0.930 . S
C808 C809 1.367 . S
C808 C816 1.378 . S
C809 C808 1.367 . S
C809 C817 1.433 . S
C810 H806 0.929 . S
C810 C812 1.378 . S
C810 C814 1.350 . S
C811 C814 1.463 . S
C811 C816 1.350 . S
C811 N819 1.427 . S
C812 H803 0.930 . S
C812 C810 1.378 . S
C812 C813 1.367 . S
C813 C812 1.367 . S
C813 C815 1.433 . S
C814 C810 1.350 . S
C814 C811 1.463 . S
C814 N818 1.427 . S
C815 H805 0.929 . S
C815 C813 1.433 . S
C815 N818 1.384 . S
C816 H807 0.929 . S
C816 C808 1.378 . S
C816 C811 1.350 . S
C817 H804 0.929 . S
C817 C809 1.433 . S
C817 N819 1.384 . S
N818 C814 1.427 . S
N818 C815 1.384 . S
N819 C811 1.427 . S
N819 C817 1.384 . S
H820 C826 0.930 . S
H821 C830 0.930 . S
H822 C835 0.929 . S
H823 C833 0.929 . S
H824 C828 0.929 . S
H825 C834 0.929 . S
C826 H820 0.930 . S
C826 C827 1.367 . S
C826 C834 1.378 . S
C827 C826 1.367 . S
C827 C835 1.433 . S
C828 H824 0.929 . S
C828 C830 1.378 . S
C828 C832 1.350 . S
C829 C832 1.463 . S
C829 C834 1.350 . S
C829 N837 1.427 . S
C830 H821 0.930 . S
C830 C828 1.378 . S
C830 C831 1.367 . S
C831 C830 1.367 . S
C831 C833 1.433 . S
C832 C828 1.350 . S
C832 C829 1.463 . S
C832 N836 1.427 . S
C833 H823 0.929 . S
C833 C831 1.433 . S
C833 N836 1.384 . S
C834 H825 0.929 . S
C834 C826 1.378 . S
C834 C829 1.350 . S
C835 H822 0.929 . S
C835 C827 1.433 . S
C835 N837 1.384 . S
N836 C832 1.427 . S
N836 C833 1.384 . S
N837 C829 1.427 . S
N837 C835 1.384 . S
H838 C844 0.930 . S
H839 C848 0.930 . S
H840 C853 0.929 . S
H841 C851 0.927 1_554 S
H842 C846 0.929 . S
H843 C852 0.929 . S
C844 H838 0.930 . S
C844 C845 1.367 . S
C844 C852 1.378 . S
C845 C844 1.367 . S
C845 C853 1.433 . S
C846 H842 0.929 . S
C846 C848 1.378 . S
C846 C850 1.350 . S
C847 C850 1.463 . S
C847 C852 1.350 . S
C847 N855 1.427 . S
C848 H839 0.930 . S
C848 C846 1.378 . S
C848 C849 1.367 1_556 S
C849 C848 1.367 1_554 S
C849 C851 1.433 1_554 S
C850 C846 1.350 . S
C850 C847 1.463 . S
C850 N854 1.427 . S
C851 H841 0.927 1_556 S
C851 C849 1.433 1_556 S
C851 N854 1.384 . S
C852 H843 0.929 . S
C852 C844 1.378 . S
C852 C847 1.350 . S
C853 H840 0.929 . S
C853 C845 1.433 . S
C853 N855 1.384 . S
N854 C850 1.427 . S
N854 C851 1.384 . S
N855 C847 1.427 . S
N855 C853 1.384 . S
H856 C862 0.930 . S
H857 C866 0.930 . S
H858 C871 0.929 . S
H859 C869 0.929 . S
H860 C864 0.929 . S
H861 C870 0.929 . S
C862 H856 0.930 . S
C862 C863 1.367 . S
C862 C870 1.378 . S
C863 C862 1.367 . S
C863 C871 1.433 . S
C864 H860 0.929 . S
C864 C866 1.378 . S
C864 C868 1.350 . S
C865 C868 1.463 1_554 S
C865 C870 1.350 . S
C865 N873 1.427 . S
C866 H857 0.930 . S
C866 C864 1.378 . S
C866 C867 1.367 . S
C867 C866 1.367 . S
C867 C869 1.433 . S
C868 C864 1.350 . S
C868 C865 1.463 1_556 S
C868 N872 1.427 . S
C869 H859 0.929 . S
C869 C867 1.433 . S
C869 N872 1.384 . S
C870 H861 0.929 . S
C870 C862 1.378 . S
C870 C865 1.350 . S
C871 H858 0.929 . S
C871 C863 1.433 . S
C871 N873 1.384 . S
N872 C868 1.427 . S
N872 C869 1.384 . S
N873 C865 1.427 . S
N873 C871 1.384 . S
H874 C880 0.930 . S
H875 C884 0.930 . S
H876 C889 0.929 . S
H877 C887 0.929 . S
H878 C882 0.929 . S
H879 C888 0.929 . S
C880 H874 0.930 . S
C880 C881 1.367 . S
C880 C888 1.378 . S
C881 C880 1.367 . S
C881 C889 1.433 . S
C882 H878 0.929 . S
C882 C884 1.378 . S
C882 C886 1.350 . S
C883 C886 1.463 . S
C883 C888 1.350 . S
C883 N891 1.427 . S
C884 H875 0.930 . S
C884 C882 1.378 . S
C884 C885 1.367 . S
C885 C884 1.367 . S
C885 C887 1.433 . S
C886 C882 1.350 . S
C886 C883 1.463 . S
C886 N890 1.427 . S
C887 H877 0.929 . S
C887 C885 1.433 . S
C887 N890 1.384 . S
C888 H879 0.929 . S
C888 C880 1.378 . S
C888 C883 1.350 . S
C889 H876 0.929 . S
C889 C881 1.433 . S
C889 N891 1.384 . S
N890 C886 1.427 . S
N890 C887 1.384 . S
N891 C883 1.427 . S
N891 C889 1.384 . S
H892 C898 0.930 . S
H893 C902 0.930 . S
H894 C907 0.929 . S
H895 C905 0.929 . S
H896 C900 0.929 . S
H897 C906 0.929 . S
C898 H892 0.930 . S
C898 C899 1.367 . S
C898 C906 1.378 . S
C899 C898 1.367 . S
C899 C907 1.433 . S
C900 H896 0.929 . S
C900 C902 1.378 . S
C900 C904 1.350 . S
C901 C904 1.463 . S
C901 C906 1.350 . S
C901 N909 1.427 . S
C902 H893 0.930 . S
C902 C900 1.378 . S
C902 C903 1.367 . S
C903 C902 1.367 . S
C903 C905 1.433 . S
C904 C900 1.350 . S
C904 C901 1.463 . S
C904 N908 1.427 . S
C905 H895 0.929 . S
C905 C903 1.433 . S
C905 N908 1.384 . S
C906 H897 0.929 . S
C906 C898 1.378 . S
C906 C901 1.350 . S
C907 H894 0.929 . S
C907 C899 1.433 . S
C907 N909 1.384 . S
N908 C904 1.427 . S
N908 C905 1.384 . S
N909 C901 1.427 . S
N909 C907 1.384 . S
H910 C916 0.930 . S
H911 C920 0.930 . S
H912 C925 0.929 . S
H913 C923 0.929 . S
H914 C918 0.929 . S
H915 C924 0.929 . S
C916 H910 0.930 . S
C916 C917 1.367 . S
C916 C924 1.378 . S
C917 C916 1.367 . S
C917 C925 1.433 . S
C918 H914 0.929 . S
C918 C920 1.378 . S
C918 C922 1.350 . S
C919 C922 1.463 . S
C919 C924 1.350 . S
C919 N927 1.427 . S
C920 H911 0.930 . S
C920 C918 1.378 . S
C920 C921 1.367 . S
C921 C920 1.367 . S
C921 C923 1.433 . S
C922 C918 1.350 . S
C922 C919 1.463 . S
C922 N926 1.427 . S
C923 H913 0.929 . S
C923 C921 1.433 . S
C923 N926 1.384 . S
C924 H915 0.929 . S
C924 C916 1.378 . S
C924 C919 1.350 . S
C925 H912 0.929 . S
C925 C917 1.433 . S
C925 N927 1.384 . S
N926 C922 1.427 . S
N926 C923 1.384 . S
N927 C919 1.427 . S
N927 C925 1.384 . S
H928 C934 0.930 . S
H929 C938 0.930 . S
H930 C943 0.929 . S
H931 C941 0.929 . S
H932 C936 0.929 . S
H933 C942 0.929 . S
C934 H928 0.930 . S
C934 C935 1.367 . S
C934 C942 1.378 . S
C935 C934 1.367 . S
C935 C943 1.433 . S
C936 H932 0.929 . S
C936 C938 1.378 . S
C936 C940 1.350 . S
C937 C940 1.463 . S
C937 C942 1.350 . S
C937 N945 1.427 . S
C938 H929 0.930 . S
C938 C936 1.378 . S
C938 C939 1.367 . S
C939 C938 1.367 . S
C939 C941 1.433 . S
C940 C936 1.350 . S
C940 C937 1.463 . S
C940 N944 1.427 . S
C941 H931 0.929 . S
C941 C939 1.433 . S
C941 N944 1.384 . S
C942 H933 0.929 . S
C942 C934 1.378 . S
C942 C937 1.350 . S
C943 H930 0.929 . S
C943 C935 1.433 . S
C943 N945 1.384 . S
N944 C940 1.427 . S
N944 C941 1.384 . S
N945 C937 1.427 . S
N945 C943 1.384 . S
H946 C952 0.930 . S
H947 C956 0.930 . S
H948 C961 0.929 . S
H949 C959 0.929 . S
H950 C954 0.929 . S
H951 C960 0.929 . S
C952 H946 0.930 . S
C952 C953 1.367 . S
C952 C960 1.378 . S
C953 C952 1.367 . S
C953 C961 1.433 . S
C954 H950 0.929 . S
C954 C956 1.378 . S
C954 C958 1.350 . S
C955 C958 1.463 . S
C955 C960 1.350 . S
C955 N963 1.427 . S
C956 H947 0.930 . S
C956 C954 1.378 . S
C956 C957 1.367 . S
C957 C956 1.367 . S
C957 C959 1.433 . S
C958 C954 1.350 . S
C958 C955 1.463 . S
C958 N962 1.427 . S
C959 H949 0.929 . S
C959 C957 1.433 . S
C959 N962 1.384 . S
C960 H951 0.929 . S
C960 C952 1.378 . S
C960 C955 1.350 . S
C961 H948 0.929 . S
C961 C953 1.433 . S
C961 N963 1.384 . S
N962 C958 1.427 . S
N962 C959 1.384 . S
N963 C955 1.427 . S
N963 C961 1.384 . S
H964 C970 0.930 . S
H965 C974 0.930 . S
H966 C979 0.929 . S
H967 C977 0.929 . S
H968 C972 0.929 . S
H969 C978 0.929 . S
C970 H964 0.930 . S
C970 C971 1.367 . S
C970 C978 1.378 . S
C971 C970 1.367 . S
C971 C979 1.433 . S
C972 H968 0.929 . S
C972 C974 1.378 . S
C972 C976 1.350 . S
C973 C976 1.463 1_554 S
C973 C978 1.350 . S
C973 N981 1.427 . S
C974 H965 0.930 . S
C974 C972 1.378 . S
C974 C975 1.367 . S
C975 C974 1.367 . S
C975 C977 1.433 . S
C976 C972 1.350 . S
C976 C973 1.463 1_556 S
C976 N980 1.427 . S
C977 H967 0.929 . S
C977 C975 1.433 . S
C977 N980 1.384 . S
C978 H969 0.929 . S
C978 C970 1.378 . S
C978 C973 1.350 . S
C979 H966 0.929 . S
C979 C971 1.433 . S
C979 N981 1.384 . S
N980 C976 1.427 . S
N980 C977 1.384 . S
N981 C973 1.427 . S
N981 C979 1.384 . S
H982 C988 0.930 . S
H983 C992 0.930 . S
H984 C997 0.929 . S
H985 C995 0.929 . S
H986 C990 0.929 . S
H987 C996 0.929 . S
C988 H982 0.930 . S
C988 C989 1.367 . S
C988 C996 1.378 . S
C989 C988 1.367 . S
C989 C997 1.433 . S
C990 H986 0.929 . S
C990 C992 1.378 . S
C990 C994 1.350 . S
C991 C994 1.463 . S
C991 C996 1.350 . S
C991 N999 1.427 . S
C992 H983 0.930 . S
C992 C990 1.378 . S
C992 C993 1.367 . S
C993 C992 1.367 . S
C993 C995 1.433 . S
C994 C990 1.350 . S
C994 C991 1.463 . S
C994 N998 1.427 . S
C995 H985 0.929 . S
C995 C993 1.433 . S
C995 N998 1.384 . S
C996 H987 0.929 . S
C996 C988 1.378 . S
C996 C991 1.350 . S
C997 H984 0.929 . S
C997 C989 1.433 . S
C997 N999 1.384 . S
N998 C994 1.427 . S
N998 C995 1.384 . S
N999 C991 1.427 . S
N999 C997 1.384 . S
H1000 C1006 0.930 . S
H1001 C1010 0.930 . S
H1002 C1015 0.929 . S
H1003 C1013 0.929 . S
H1004 C1008 0.929 . S
H1005 C1014 0.929 . S
C1006 H1000 0.930 . S
C1006 C1007 1.367 . S
C1006 C1014 1.378 . S
C1007 C1006 1.367 . S
C1007 C1015 1.433 . S
C1008 H1004 0.929 . S
C1008 C1010 1.378 . S
C1008 C1012 1.350 . S
C1009 C1012 1.463 . S
C1009 C1014 1.350 . S
C1009 N1017 1.427 . S
C1010 H1001 0.930 . S
C1010 C1008 1.378 . S
C1010 C1011 1.367 . S
C1011 C1010 1.367 . S
C1011 C1013 1.433 . S
C1012 C1008 1.350 . S
C1012 C1009 1.463 . S
C1012 N1016 1.427 . S
C1013 H1003 0.929 . S
C1013 C1011 1.433 . S
C1013 N1016 1.384 . S
C1014 H1005 0.929 . S
C1014 C1006 1.378 . S
C1014 C1009 1.350 . S
C1015 H1002 0.929 . S
C1015 C1007 1.433 . S
C1015 N1017 1.384 . S
N1016 C1012 1.427 . S
N1016 C1013 1.384 . S
N1017 C1009 1.427 . S
N1017 C1015 1.384 . S
H1018 C1024 0.930 . S
H1019 C1028 0.930 . S
H1020 C1033 0.929 . S
H1021 C1031 0.929 . S
H1022 C1026 0.929 . S
H1023 C1032 0.929 . S
C1024 H1018 0.930 . S
C1024 C1025 1.367 . S
C1024 C1032 1.378 . S
C1025 C1024 1.367 . S
C1025 C1033 1.433 . S
C1026 H1022 0.929 . S
C1026 C1028 1.378 . S
C1026 C1030 1.350 . S
C1027 C1030 1.463 . S
C1027 C1032 1.350 . S
C1027 N1035 1.427 . S
C1028 H1019 0.930 . S
C1028 C1026 1.378 . S
C1028 C1029 1.367 . S
C1029 C1028 1.367 . S
C1029 C1031 1.433 . S
C1030 C1026 1.350 . S
C1030 C1027 1.463 . S
C1030 N1034 1.427 . S
C1031 H1021 0.929 . S
C1031 C1029 1.433 . S
C1031 N1034 1.384 . S
C1032 H1023 0.929 . S
C1032 C1024 1.378 . S
C1032 C1027 1.350 . S
C1033 H1020 0.929 . S
C1033 C1025 1.433 . S
C1033 N1035 1.384 . S
N1034 C1030 1.427 . S
N1034 C1031 1.384 . S
N1035 C1027 1.427 . S
N1035 C1033 1.384 . S
H1036 C1042 0.930 . S
H1037 C1046 0.930 . S
H1038 C1051 0.929 . S
H1039 C1049 0.929 . S
H1040 C1044 0.929 . S
H1041 C1050 0.929 . S
C1042 H1036 0.930 . S
C1042 C1043 1.367 . S
C1042 C1050 1.378 . S
C1043 C1042 1.367 . S
C1043 C1051 1.433 . S
C1044 H1040 0.929 . S
C1044 C1046 1.378 . S
C1044 C1048 1.350 . S
C1045 C1048 1.463 1_554 S
C1045 C1050 1.350 . S
C1045 N1053 1.427 . S
C1046 H1037 0.930 . S
C1046 C1044 1.378 . S
C1046 C1047 1.367 . S
C1047 C1046 1.367 . S
C1047 C1049 1.433 . S
C1048 C1044 1.350 . S
C1048 C1045 1.463 1_556 S
C1048 N1052 1.427 . S
C1049 H1039 0.929 . S
C1049 C1047 1.433 . S
C1049 N1052 1.384 . S
C1050 H1041 0.929 . S
C1050 C1042 1.378 . S
C1050 C1045 1.350 . S
C1051 H1038 0.929 . S
C1051 C1043 1.433 . S
C1051 N1053 1.384 . S
N1052 C1048 1.427 . S
N1052 C1049 1.384 . S
N1053 C1045 1.427 . S
N1053 C1051 1.384 . S
H1054 C1060 0.930 . S
H1055 C1064 0.930 . S
H1056 C1069 0.929 . S
H1057 C1067 0.929 . S
H1058 C1062 0.929 . S
H1059 C1068 0.929 . S
C1060 H1054 0.930 . S
C1060 C1061 1.367 . S
C1060 C1068 1.378 . S
C1061 C1060 1.367 . S
C1061 C1069 1.433 . S
C1062 H1058 0.929 . S
C1062 C1064 1.378 . S
C1062 C1066 1.350 . S
C1063 C1066 1.463 . S
C1063 C1068 1.350 . S
C1063 N1071 1.427 . S
C1064 H1055 0.930 . S
C1064 C1062 1.378 . S
C1064 C1065 1.367 . S
C1065 C1064 1.367 . S
C1065 C1067 1.433 . S
C1066 C1062 1.350 . S
C1066 C1063 1.463 . S
C1066 N1070 1.427 . S
C1067 H1057 0.929 . S
C1067 C1065 1.433 . S
C1067 N1070 1.384 . S
C1068 H1059 0.929 . S
C1068 C1060 1.378 . S
C1068 C1063 1.350 . S
C1069 H1056 0.929 . S
C1069 C1061 1.433 . S
C1069 N1071 1.384 . S
N1070 C1066 1.427 . S
N1070 C1067 1.384 . S
N1071 C1063 1.427 . S
N1071 C1069 1.384 . S
H1072 C1078 0.930 . S
H1073 C1082 0.930 . S
H1074 C1087 0.929 . S
H1075 C1085 0.929 . S
H1076 C1080 0.929 . S
H1077 C1086 0.929 . S
C1078 H1072 0.930 . S
C1078 C1079 1.367 . S
C1078 C1086 1.378 . S
C1079 C1078 1.367 . S
C1079 C1087 1.433 . S
C1080 H1076 0.929 . S
C1080 C1082 1.378 . S
C1080 C1084 1.350 . S
C1081 C1084 1.463 . S
C1081 C1086 1.350 . S
C1081 N1089 1.427 . S
C1082 H1073 0.930 . S
C1082 C1080 1.378 . S
C1082 C1083 1.367 . S
C1083 C1082 1.367 . S
C1083 C1085 1.433 . S
C1084 C1080 1.350 . S
C1084 C1081 1.463 . S
C1084 N1088 1.427 . S
C1085 H1075 0.929 . S
C1085 C1083 1.433 . S
C1085 N1088 1.384 . S
C1086 H1077 0.929 . S
C1086 C1078 1.378 . S
C1086 C1081 1.350 . S
C1087 H1074 0.929 . S
C1087 C1079 1.433 . S
C1087 N1089 1.384 . S
N1088 C1084 1.427 . S
N1088 C1085 1.384 . S
N1089 C1081 1.427 . S
N1089 C1087 1.384 . S
H1090 C1096 0.930 . S
H1091 C1100 0.930 . S
H1092 C1105 0.929 . S
H1093 C1103 0.929 . S
H1094 C1098 0.929 . S
H1095 C1104 0.929 . S
C1096 H1090 0.930 . S
C1096 C1097 1.367 . S
C1096 C1104 1.378 . S
C1097 C1096 1.367 . S
C1097 C1105 1.433 . S
C1098 H1094 0.929 . S
C1098 C1100 1.378 . S
C1098 C1102 1.350 . S
C1099 C1102 1.463 . S
C1099 C1104 1.350 . S
C1099 N1107 1.427 . S
C1100 H1091 0.930 . S
C1100 C1098 1.378 . S
C1100 C1101 1.367 . S
C1101 C1100 1.367 . S
C1101 C1103 1.433 . S
C1102 C1098 1.350 . S
C1102 C1099 1.463 . S
C1102 N1106 1.427 . S
C1103 H1093 0.929 . S
C1103 C1101 1.433 . S
C1103 N1106 1.384 . S
C1104 H1095 0.929 . S
C1104 C1096 1.378 . S
C1104 C1099 1.350 . S
C1105 H1092 0.929 . S
C1105 C1097 1.433 . S
C1105 N1107 1.384 . S
N1106 C1102 1.427 . S
N1106 C1103 1.384 . S
N1107 C1099 1.427 . S
N1107 C1105 1.384 . S
H1108 C1114 0.930 . S
H1109 C1118 0.930 . S
H1110 C1123 0.929 . S
H1111 C1121 0.929 . S
H1112 C1116 0.929 . S
H1113 C1122 0.929 . S
C1114 H1108 0.930 . S
C1114 C1115 1.367 . S
C1114 C1122 1.378 . S
C1115 C1114 1.367 . S
C1115 C1123 1.433 . S
C1116 H1112 0.929 . S
C1116 C1118 1.378 . S
C1116 C1120 1.350 . S
C1117 C1120 1.463 . S
C1117 C1122 1.350 . S
C1117 N1125 1.427 . S
C1118 H1109 0.930 . S
C1118 C1116 1.378 . S
C1118 C1119 1.367 . S
C1119 C1118 1.367 . S
C1119 C1121 1.433 . S
C1120 C1116 1.350 . S
C1120 C1117 1.463 . S
C1120 N1124 1.427 . S
C1121 H1111 0.929 . S
C1121 C1119 1.433 . S
C1121 N1124 1.384 . S
C1122 H1113 0.929 . S
C1122 C1114 1.378 . S
C1122 C1117 1.350 . S
C1123 H1110 0.929 . S
C1123 C1115 1.433 . S
C1123 N1125 1.384 . S
N1124 C1120 1.427 . S
N1124 C1121 1.384 . S
N1125 C1117 1.427 . S
N1125 C1123 1.384 . S
H1126 C1132 0.930 . S
H1127 C1136 0.930 . S
H1128 C1141 0.929 . S
H1129 C1139 0.929 . S
H1130 C1134 0.929 . S
H1131 C1140 0.929 . S
C1132 H1126 0.930 . S
C1132 C1133 1.367 . S
C1132 C1140 1.378 . S
C1133 C1132 1.367 . S
C1133 C1141 1.433 . S
C1134 H1130 0.929 . S
C1134 C1136 1.378 . S
C1134 C1138 1.350 . S
C1135 C1138 1.463 1_454 S
C1135 C1140 1.350 . S
C1135 N1143 1.427 . S
C1136 H1127 0.930 . S
C1136 C1134 1.378 . S
C1136 C1137 1.367 . S
C1137 C1136 1.367 . S
C1137 C1139 1.433 . S
C1138 C1134 1.350 . S
C1138 C1135 1.463 1_656 S
C1138 N1142 1.426 1_556 S
C1139 H1129 0.929 . S
C1139 C1137 1.433 . S
C1139 N1142 1.378 1_556 S
C1140 H1131 0.929 . S
C1140 C1132 1.378 . S
C1140 C1135 1.350 . S
C1141 H1128 0.929 . S
C1141 C1133 1.433 . S
C1141 N1143 1.384 . S
N1142 C1138 1.426 1_554 S
N1142 C1139 1.378 1_554 S
N1143 C1135 1.427 . S
N1143 C1141 1.384 . S
H1144 C1150 0.930 . S
H1145 C1154 0.930 . S
H1146 C1159 0.929 . S
H1147 C1157 0.929 . S
H1148 C1152 0.929 . S
H1149 C1158 0.929 . S
C1150 H1144 0.930 . S
C1150 C1151 1.367 . S
C1150 C1158 1.378 . S
C1151 C1150 1.367 . S
C1151 C1159 1.433 . S
C1152 H1148 0.929 . S
C1152 C1154 1.378 . S
C1152 C1156 1.350 . S
C1153 C1156 1.463 . S
C1153 C1158 1.350 . S
C1153 N1161 1.427 . S
C1154 H1145 0.930 . S
C1154 C1152 1.378 . S
C1154 C1155 1.367 . S
C1155 C1154 1.367 . S
C1155 C1157 1.433 . S
C1156 C1152 1.350 . S
C1156 C1153 1.463 . S
C1156 N1160 1.427 . S
C1157 H1147 0.929 . S
C1157 C1155 1.433 . S
C1157 N1160 1.384 . S
C1158 H1149 0.929 . S
C1158 C1150 1.378 . S
C1158 C1153 1.350 . S
C1159 H1146 0.929 . S
C1159 C1151 1.433 . S
C1159 N1161 1.384 . S
N1160 C1156 1.427 . S
N1160 C1157 1.384 . S
N1161 C1153 1.427 . S
N1161 C1159 1.384 . S
H1162 C1168 0.930 . S
H1163 C1172 0.930 . S
H1164 C1177 0.929 . S
H1165 C1175 0.929 . S
H1166 C1170 0.929 . S
H1167 C1176 0.929 . S
C1168 H1162 0.930 . S
C1168 C1169 1.367 . S
C1168 C1176 1.378 . S
C1169 C1168 1.367 . S
C1169 C1177 1.433 . S
C1170 H1166 0.929 . S
C1170 C1172 1.378 . S
C1170 C1174 1.350 . S
C1171 C1174 1.463 . S
C1171 C1176 1.350 . S
C1171 N1179 1.427 . S
C1172 H1163 0.930 . S
C1172 C1170 1.378 . S
C1172 C1173 1.367 . S
C1173 C1172 1.367 . S
C1173 C1175 1.433 . S
C1174 C1170 1.350 . S
C1174 C1171 1.463 . S
C1174 N1178 1.427 . S
C1175 H1165 0.929 . S
C1175 C1173 1.433 . S
C1175 N1178 1.384 . S
C1176 H1167 0.929 . S
C1176 C1168 1.378 . S
C1176 C1171 1.350 . S
C1177 H1164 0.929 . S
C1177 C1169 1.433 . S
C1177 N1179 1.384 . S
N1178 C1174 1.427 . S
N1178 C1175 1.384 . S
N1179 C1171 1.427 . S
N1179 C1177 1.384 . S
H1180 C1186 0.930 . S
H1181 C1190 0.930 . S
H1182 C1195 0.929 . S
H1183 C1193 0.929 . S
H1184 C1188 0.929 . S
H1185 C1194 0.929 . S
C1186 H1180 0.930 . S
C1186 C1187 1.367 1_565 S
C1186 C1194 1.378 . S
C1187 C1186 1.367 1_545 S
C1187 C1195 1.433 . S
C1188 H1184 0.929 . S
C1188 C1190 1.378 . S
C1188 C1192 1.350 1_545 S
C1189 C1192 1.463 1_455 S
C1189 C1194 1.350 1_554 S
C1189 N1197 1.427 1_564 S
C1190 H1181 0.930 . S
C1190 C1188 1.378 . S
C1190 C1191 1.367 1_545 S
C1191 C1190 1.367 1_565 S
C1191 C1193 1.433 . S
C1192 C1188 1.350 1_565 S
C1192 C1189 1.463 1_655 S
C1192 N1196 1.427 . S
C1193 H1183 0.929 . S
C1193 C1191 1.433 . S
C1193 N1196 1.384 . S
C1194 H1185 0.929 . S
C1194 C1186 1.378 . S
C1194 C1189 1.350 1_556 S
C1195 H1182 0.929 . S
C1195 C1187 1.433 . S
C1195 N1197 1.384 . S
N1196 C1192 1.427 . S
N1196 C1193 1.384 . S
N1197 C1189 1.427 1_546 S
N1197 C1195 1.384 . S
H1198 C1204 0.930 . S
H1199 C1208 0.930 . S
H1200 C1213 0.929 . S
H1201 C1211 0.929 . S
H1202 C1206 0.933 . S
H1203 C1212 0.925 1_545 S
C1204 H1198 0.930 . S
C1204 C1205 1.367 . S
C1204 C1212 1.381 . S
C1205 C1204 1.367 . S
C1205 C1213 1.433 . S
C1206 H1202 0.933 . S
C1206 C1208 1.378 . S
C1206 C1210 1.350 . S
C1207 C1210 1.461 1_565 S
C1207 C1212 1.350 . S
C1207 N1215 1.429 . S
C1208 H1199 0.930 . S
C1208 C1206 1.378 . S
C1208 C1209 1.367 . S
C1209 C1208 1.367 . S
C1209 C1211 1.433 . S
C1210 C1206 1.350 . S
C1210 C1207 1.461 1_545 S
C1210 N1214 1.427 . S
C1211 H1201 0.929 . S
C1211 C1209 1.433 . S
C1211 N1214 1.384 . S
C1212 H1203 0.925 1_565 S
C1212 C1204 1.381 . S
C1212 C1207 1.350 . S
C1213 H1200 0.929 . S
C1213 C1205 1.433 . S
C1213 N1215 1.384 . S
N1214 C1210 1.427 . S
N1214 C1211 1.384 . S
N1215 C1207 1.429 . S
N1215 C1213 1.384 . S
H1216 C1222 0.930 . S
H1217 C1226 0.930 . S
H1218 C1231 0.929 . S
H1219 C1229 0.929 . S
H1220 C1224 0.929 . S
H1221 C1230 0.929 . S
C1222 H1216 0.930 . S
C1222 C1223 1.367 . S
C1222 C1230 1.378 . S
C1223 C1222 1.367 . S
C1223 C1231 1.433 . S
C1224 H1220 0.929 . S
C1224 C1226 1.378 . S
C1224 C1228 1.350 . S
C1225 C1228 1.463 . S
C1225 C1230 1.350 . S
C1225 N1233 1.427 . S
C1226 H1217 0.930 . S
C1226 C1224 1.378 . S
C1226 C1227 1.367 . S
C1227 C1226 1.367 . S
C1227 C1229 1.433 . S
C1228 C1224 1.350 . S
C1228 C1225 1.463 . S
C1228 N1232 1.427 . S
C1229 H1219 0.929 . S
C1229 C1227 1.433 . S
C1229 N1232 1.384 . S
C1230 H1221 0.929 . S
C1230 C1222 1.378 . S
C1230 C1225 1.350 . S
C1231 H1218 0.929 . S
C1231 C1223 1.433 . S
C1231 N1233 1.384 . S
N1232 C1228 1.427 . S
N1232 C1229 1.384 . S
N1233 C1225 1.427 . S
N1233 C1231 1.384 . S
H1234 C1240 0.930 . S
H1235 C1244 0.930 . S
H1236 C1249 0.929 . S
H1237 C1247 0.929 . S
H1238 C1242 0.929 . S
H1239 C1248 0.929 . S
C1240 H1234 0.930 . S
C1240 C1241 1.367 . S
C1240 C1248 1.378 . S
C1241 C1240 1.367 . S
C1241 C1249 1.433 . S
C1242 H1238 0.929 . S
C1242 C1244 1.378 . S
C1242 C1246 1.350 . S
C1243 C1246 1.463 . S
C1243 C1248 1.350 . S
C1243 N1251 1.427 . S
C1244 H1235 0.930 . S
C1244 C1242 1.378 . S
C1244 C1245 1.367 . S
C1245 C1244 1.367 . S
C1245 C1247 1.433 . S
C1246 C1242 1.350 . S
C1246 C1243 1.463 . S
C1246 N1250 1.427 . S
C1247 H1237 0.929 . S
C1247 C1245 1.433 . S
C1247 N1250 1.384 . S
C1248 H1239 0.929 . S
C1248 C1240 1.378 . S
C1248 C1243 1.350 . S
C1249 H1236 0.929 . S
C1249 C1241 1.433 . S
C1249 N1251 1.384 . S
N1250 C1246 1.427 . S
N1250 C1247 1.384 . S
N1251 C1243 1.427 . S
N1251 C1249 1.384 . S
H1252 C1258 0.935 . S
H1253 C1262 0.930 . S
H1254 C1267 0.929 . S
H1255 C1265 0.929 . S
H1256 C1260 0.929 . S
H1257 C1266 0.929 . S
C1258 H1252 0.935 . S
C1258 C1259 1.367 . S
C1258 C1266 1.378 . S
C1259 C1258 1.367 . S
C1259 C1267 1.433 . S
C1260 H1256 0.929 . S
C1260 C1262 1.378 . S
C1260 C1264 1.350 . S
C1261 C1264 1.463 . S
C1261 C1266 1.350 . S
C1261 N1269 1.427 . S
C1262 H1253 0.930 . S
C1262 C1260 1.378 . S
C1262 C1263 1.367 . S
C1263 C1262 1.367 . S
C1263 C1265 1.433 . S
C1264 C1260 1.350 . S
C1264 C1261 1.463 . S
C1264 N1268 1.427 . S
C1265 H1255 0.929 . S
C1265 C1263 1.433 . S
C1265 N1268 1.384 . S
C1266 H1257 0.929 . S
C1266 C1258 1.378 . S
C1266 C1261 1.350 . S
C1267 H1254 0.929 . S
C1267 C1259 1.433 . S
C1267 N1269 1.384 . S
N1268 C1264 1.427 . S
N1268 C1265 1.384 . S
N1269 C1261 1.427 . S
N1269 C1267 1.384 . S
H1270 C1276 0.930 . S
H1271 C1280 0.930 . S
H1272 C1285 0.929 . S
H1273 C1283 0.929 1_556 S
H1274 C1278 0.929 . S
H1275 C1284 0.929 . S
C1276 H1270 0.930 . S
C1276 C1277 1.367 . S
C1276 C1284 1.378 . S
C1277 C1276 1.367 . S
C1277 C1285 1.433 . S
C1278 H1274 0.929 . S
C1278 C1280 1.378 . S
C1278 C1282 1.350 . S
C1279 C1282 1.463 . S
C1279 C1284 1.350 . S
C1279 N1287 1.427 . S
C1280 H1271 0.930 . S
C1280 C1278 1.378 . S
C1280 C1281 1.367 . S
C1281 C1280 1.367 . S
C1281 C1283 1.433 . S
C1282 C1278 1.350 . S
C1282 C1279 1.463 . S
C1282 N1286 1.427 . S
C1283 H1273 0.929 1_554 S
C1283 C1281 1.433 . S
C1283 N1286 1.384 . S
C1284 H1275 0.929 . S
C1284 C1276 1.378 . S
C1284 C1279 1.350 . S
C1285 H1272 0.929 . S
C1285 C1277 1.433 . S
C1285 N1287 1.384 . S
N1286 C1282 1.427 . S
N1286 C1283 1.384 . S
N1287 C1279 1.427 . S
N1287 C1285 1.384 . S
H1288 C1294 0.930 . S
H1289 C1298 0.930 . S
H1290 C1303 0.929 . S
H1291 C1301 0.929 . S
H1292 C1296 0.929 . S
H1293 C1302 0.929 . S
C1294 H1288 0.930 . S
C1294 C1295 1.367 . S
C1294 C1302 1.378 . S
C1295 C1294 1.367 . S
C1295 C1303 1.433 . S
C1296 H1292 0.929 . S
C1296 C1298 1.378 . S
C1296 C1300 1.350 . S
C1297 C1300 1.463 . S
C1297 C1302 1.350 . S
C1297 N1305 1.427 . S
C1298 H1289 0.930 . S
C1298 C1296 1.378 . S
C1298 C1299 1.367 . S
C1299 C1298 1.367 . S
C1299 C1301 1.433 . S
C1300 C1296 1.350 . S
C1300 C1297 1.463 . S
C1300 N1304 1.427 . S
C1301 H1291 0.929 . S
C1301 C1299 1.433 . S
C1301 N1304 1.384 . S
C1302 H1293 0.929 . S
C1302 C1294 1.378 . S
C1302 C1297 1.350 . S
C1303 H1290 0.929 . S
C1303 C1295 1.433 . S
C1303 N1305 1.384 . S
N1304 C1300 1.427 . S
N1304 C1301 1.384 . S
N1305 C1297 1.427 . S
N1305 C1303 1.384 . S
H1306 C1312 0.930 . S
H1307 C1316 0.930 . S
H1308 C1321 0.929 . S
H1309 C1319 0.929 . S
H1310 C1314 0.929 . S
H1311 C1320 0.929 . S
C1312 H1306 0.930 . S
C1312 C1313 1.367 . S
C1312 C1320 1.378 . S
C1313 C1312 1.367 . S
C1313 C1321 1.433 . S
C1314 H1310 0.929 . S
C1314 C1316 1.378 . S
C1314 C1318 1.350 . S
C1315 C1318 1.463 . S
C1315 C1320 1.350 . S
C1315 N1323 1.427 . S
C1316 H1307 0.930 . S
C1316 C1314 1.378 . S
C1316 C1317 1.367 . S
C1317 C1316 1.367 . S
C1317 C1319 1.433 . S
C1318 C1314 1.350 . S
C1318 C1315 1.463 . S
C1318 N1322 1.427 . S
C1319 H1309 0.929 . S
C1319 C1317 1.433 . S
C1319 N1322 1.384 . S
C1320 H1311 0.929 . S
C1320 C1312 1.378 . S
C1320 C1315 1.350 . S
C1321 H1308 0.929 . S
C1321 C1313 1.433 . S
C1321 N1323 1.384 . S
N1322 C1318 1.427 . S
N1322 C1319 1.384 . S
N1323 C1315 1.427 . S
N1323 C1321 1.384 . S
H1324 C1330 0.930 . S
H1325 C1334 0.930 . S
H1326 C1339 0.929 . S
H1327 C1337 0.929 . S
H1328 C1332 0.929 . S
H1329 C1338 0.929 . S
C1330 H1324 0.930 . S
C1330 C1331 1.367 . S
C1330 C1338 1.378 . S
C1331 C1330 1.367 . S
C1331 C1339 1.433 . S
C1332 H1328 0.929 . S
C1332 C1334 1.378 . S
C1332 C1336 1.350 . S
C1333 C1336 1.463 . S
C1333 C1338 1.350 . S
C1333 N1341 1.427 . S
C1334 H1325 0.930 . S
C1334 C1332 1.378 . S
C1334 C1335 1.367 . S
C1335 C1334 1.367 . S
C1335 C1337 1.433 . S
C1336 C1332 1.350 . S
C1336 C1333 1.463 . S
C1336 N1340 1.427 . S
C1337 H1327 0.929 . S
C1337 C1335 1.433 . S
C1337 N1340 1.384 . S
C1338 H1329 0.929 . S
C1338 C1330 1.378 . S
C1338 C1333 1.350 . S
C1339 H1326 0.929 . S
C1339 C1331 1.433 . S
C1339 N1341 1.384 . S
N1340 C1336 1.427 . S
N1340 C1337 1.384 . S
N1341 C1333 1.427 . S
N1341 C1339 1.384 . S
H1342 C1348 0.930 . S
H1343 C1352 0.930 . S
H1344 C1357 0.929 . S
H1345 C1355 0.929 . S
H1346 C1350 0.929 1_554 S
H1347 C1356 0.929 . S
C1348 H1342 0.930 . S
C1348 C1349 1.366 . S
C1348 C1356 1.378 . S
C1349 C1348 1.366 . S
C1349 C1357 1.434 1_556 S
C1350 H1346 0.929 1_556 S
C1350 C1352 1.378 . S
C1350 C1354 1.350 . S
C1351 C1354 1.463 . S
C1351 C1356 1.350 . S
C1351 N1359 1.427 1_556 S
C1352 H1343 0.930 . S
C1352 C1350 1.378 . S
C1352 C1353 1.367 . S
C1353 C1352 1.367 . S
C1353 C1355 1.433 . S
C1354 C1350 1.350 . S
C1354 C1351 1.463 . S
C1354 N1358 1.427 . S
C1355 H1345 0.929 . S
C1355 C1353 1.433 . S
C1355 N1358 1.384 . S
C1356 H1347 0.929 . S
C1356 C1348 1.378 . S
C1356 C1351 1.350 . S
C1357 H1344 0.929 . S
C1357 C1349 1.434 1_554 S
C1357 N1359 1.384 . S
N1358 C1354 1.427 . S
N1358 C1355 1.384 . S
N1359 C1351 1.427 1_554 S
N1359 C1357 1.384 . S
H1360 C1366 0.930 . S
H1361 C1370 0.930 . S
H1362 C1375 0.929 1_554 S
H1363 C1373 0.929 . S
H1364 C1368 0.929 . S
H1365 C1374 0.929 . S
C1366 H1360 0.930 . S
C1366 C1367 1.367 . S
C1366 C1374 1.378 . S
C1367 C1366 1.367 . S
C1367 C1375 1.433 . S
C1368 H1364 0.929 . S
C1368 C1370 1.378 1_565 S
C1368 C1372 1.350 . S
C1369 C1372 1.463 . S
C1369 C1374 1.350 . S
C1369 N1377 1.427 . S
C1370 H1361 0.930 . S
C1370 C1368 1.378 1_545 S
C1370 C1371 1.367 . S
C1371 C1370 1.367 . S
C1371 C1373 1.433 . S
C1372 C1368 1.350 . S
C1372 C1369 1.463 . S
C1372 N1376 1.427 . S
C1373 H1363 0.929 . S
C1373 C1371 1.433 . S
C1373 N1376 1.384 1_545 S
C1374 H1365 0.929 . S
C1374 C1366 1.378 . S
C1374 C1369 1.350 . S
C1375 H1362 0.929 1_556 S
C1375 C1367 1.433 . S
C1375 N1377 1.384 . S
N1376 C1372 1.427 . S
N1376 C1373 1.384 1_565 S
N1377 C1369 1.427 . S
N1377 C1375 1.384 . S
H1378 C1384 0.930 . S
H1379 C1388 0.930 . S
H1380 C1393 0.929 . S
H1381 C1391 0.929 . S
H1382 C1386 0.929 . S
H1383 C1392 0.929 1_556 S
C1384 H1378 0.930 . S
C1384 C1385 1.367 . S
C1384 C1392 1.378 . S
C1385 C1384 1.367 . S
C1385 C1393 1.433 . S
C1386 H1382 0.929 . S
C1386 C1388 1.378 . S
C1386 C1390 1.350 . S
C1387 C1390 1.463 . S
C1387 C1392 1.350 . S
C1387 N1395 1.427 . S
C1388 H1379 0.930 . S
C1388 C1386 1.378 . S
C1388 C1389 1.367 . S
C1389 C1388 1.367 . S
C1389 C1391 1.433 1_554 S
C1390 C1386 1.350 . S
C1390 C1387 1.463 . S
C1390 N1394 1.427 1_554 S
C1391 H1381 0.929 . S
C1391 C1389 1.433 1_556 S
C1391 N1394 1.384 . S
C1392 H1383 0.929 1_554 S
C1392 C1384 1.378 . S
C1392 C1387 1.350 . S
C1393 H1380 0.929 . S
C1393 C1385 1.433 . S
C1393 N1395 1.384 . S
N1394 C1390 1.427 1_556 S
N1394 C1391 1.384 . S
N1395 C1387 1.427 . S
N1395 C1393 1.384 . S
H1396 C1402 0.930 . S
H1397 C1406 0.930 . S
H1398 C1411 0.929 . S
H1399 C1409 0.929 . S
H1400 C1404 0.929 . S
H1401 C1410 0.929 . S
C1402 H1396 0.930 . S
C1402 C1403 1.367 . S
C1402 C1410 1.378 1_565 S
C1403 C1402 1.367 . S
C1403 C1411 1.433 . S
C1404 H1400 0.929 . S
C1404 C1406 1.378 . S
C1404 C1408 1.350 . S
C1405 C1408 1.463 . S
C1405 C1410 1.350 . S
C1405 N1413 1.427 . S
C1406 H1397 0.930 . S
C1406 C1404 1.378 . S
C1406 C1407 1.367 . S
C1407 C1406 1.367 . S
C1407 C1409 1.433 . S
C1408 C1404 1.350 . S
C1408 C1405 1.463 . S
C1408 N1412 1.427 . S
C1409 H1399 0.929 . S
C1409 C1407 1.433 . S
C1409 N1412 1.384 . S
C1410 H1401 0.929 . S
C1410 C1402 1.378 1_545 S
C1410 C1405 1.350 . S
C1411 H1398 0.929 . S
C1411 C1403 1.433 . S
C1411 N1413 1.384 1_565 S
N1412 C1408 1.427 . S
N1412 C1409 1.384 . S
N1413 C1405 1.427 . S
N1413 C1411 1.384 1_545 S
H1414 C1420 0.930 . S
H1415 C1424 0.930 . S
H1416 C1429 0.929 . S
H1417 C1427 0.929 . S
H1418 C1422 0.929 . S
H1419 C1428 0.929 . S
C1420 H1414 0.930 . S
C1420 C1421 1.367 . S
C1420 C1428 1.378 . S
C1421 C1420 1.367 . S
C1421 C1429 1.433 . S
C1422 H1418 0.929 . S
C1422 C1424 1.378 . S
C1422 C1426 1.350 . S
C1423 C1426 1.463 . S
C1423 C1428 1.350 . S
C1423 N1431 1.427 . S
C1424 H1415 0.930 . S
C1424 C1422 1.378 . S
C1424 C1425 1.367 . S
C1425 C1424 1.367 . S
C1425 C1427 1.433 . S
C1426 C1422 1.350 . S
C1426 C1423 1.463 . S
C1426 N1430 1.427 . S
C1427 H1417 0.929 . S
C1427 C1425 1.433 . S
C1427 N1430 1.384 . S
C1428 H1419 0.929 . S
C1428 C1420 1.378 . S
C1428 C1423 1.350 . S
C1429 H1416 0.929 . S
C1429 C1421 1.433 . S
C1429 N1431 1.384 . S
N1430 C1426 1.427 . S
N1430 C1427 1.384 . S
N1431 C1423 1.427 . S
N1431 C1429 1.384 . S
H1432 C1438 0.930 . S
H1433 C1442 0.930 . S
H1434 C1447 0.929 . S
H1435 C1445 0.923 1_565 S
H1436 C1440 0.929 . S
H1437 C1446 0.929 . S
C1438 H1432 0.930 . S
C1438 C1439 1.367 . S
C1438 C1446 1.378 . S
C1439 C1438 1.367 . S
C1439 C1447 1.433 . S
C1440 H1436 0.929 . S
C1440 C1442 1.378 1_545 S
C1440 C1444 1.350 . S
C1441 C1444 1.463 . S
C1441 C1446 1.350 . S
C1441 N1449 1.427 . S
C1442 H1433 0.930 . S
C1442 C1440 1.378 1_565 S
C1442 C1443 1.367 . S
C1443 C1442 1.367 . S
C1443 C1445 1.415 1_565 S
C1444 C1440 1.350 . S
C1444 C1441 1.463 . S
C1444 N1448 1.427 . S
C1445 H1435 0.923 1_545 S
C1445 C1443 1.415 1_545 S
C1445 N1448 1.409 . S
C1446 H1437 0.929 . S
C1446 C1438 1.378 . S
C1446 C1441 1.350 . S
C1447 H1434 0.929 . S
C1447 C1439 1.433 . S
C1447 N1449 1.384 . S
N1448 C1444 1.427 . S
N1448 C1445 1.409 . S
N1449 C1441 1.427 . S
N1449 C1447 1.384 . S
H1450 C1456 0.930 . S
H1451 C1460 0.930 . S
H1452 C1465 0.929 . S
H1453 C1463 0.929 . S
H1454 C1458 0.929 . S
H1455 C1464 0.929 . S
C1456 H1450 0.930 . S
C1456 C1457 1.367 . S
C1456 C1464 1.378 . S
C1457 C1456 1.367 . S
C1457 C1465 1.433 . S
C1458 H1454 0.929 . S
C1458 C1460 1.378 1_556 S
C1458 C1462 1.350 . S
C1459 C1462 1.463 . S
C1459 C1464 1.350 . S
C1459 N1467 1.427 . S
C1460 H1451 0.930 . S
C1460 C1458 1.378 1_554 S
C1460 C1461 1.367 1_554 S
C1461 C1460 1.367 1_556 S
C1461 C1463 1.433 . S
C1462 C1458 1.350 . S
C1462 C1459 1.463 . S
C1462 N1466 1.427 . S
C1463 H1453 0.929 . S
C1463 C1461 1.433 . S
C1463 N1466 1.384 . S
C1464 H1455 0.929 . S
C1464 C1456 1.378 . S
C1464 C1459 1.350 . S
C1465 H1452 0.929 . S
C1465 C1457 1.433 . S
C1465 N1467 1.384 . S
N1466 C1462 1.427 . S
N1466 C1463 1.384 . S
N1467 C1459 1.427 . S
N1467 C1465 1.384 . S
H1468 C1474 0.930 . S
H1469 C1478 0.930 . S
H1470 C1483 0.929 . S
H1471 C1481 0.929 . S
H1472 C1476 0.929 . S
H1473 C1482 0.929 . S
C1474 H1468 0.930 . S
C1474 C1475 1.367 . S
C1474 C1482 1.378 . S
C1475 C1474 1.367 . S
C1475 C1483 1.433 . S
C1476 H1472 0.929 . S
C1476 C1478 1.378 1_565 S
C1476 C1480 1.350 . S
C1477 C1480 1.463 . S
C1477 C1482 1.350 . S
C1477 N1485 1.427 . S
C1478 H1469 0.930 . S
C1478 C1476 1.378 1_545 S
C1478 C1479 1.367 . S
C1479 C1478 1.367 . S
C1479 C1481 1.433 . S
C1480 C1476 1.350 . S
C1480 C1477 1.463 . S
C1480 N1484 1.427 . S
C1481 H1471 0.929 . S
C1481 C1479 1.433 . S
C1481 N1484 1.384 1_545 S
C1482 H1473 0.929 . S
C1482 C1474 1.378 . S
C1482 C1477 1.350 . S
C1483 H1470 0.929 . S
C1483 C1475 1.433 . S
C1483 N1485 1.384 . S
N1484 C1480 1.427 . S
N1484 C1481 1.384 1_565 S
N1485 C1477 1.427 . S
N1485 C1483 1.384 . S
H1486 C1492 0.930 . S
H1487 C1496 0.930 . S
H1488 C1501 0.929 . S
H1489 C1499 0.929 . S
H1490 C1494 0.929 . S
H1491 C1500 0.929 . S
C1492 H1486 0.930 . S
C1492 C1493 1.367 . S
C1492 C1500 1.378 . S
C1493 C1492 1.367 . S
C1493 C1501 1.433 . S
C1494 H1490 0.929 . S
C1494 C1496 1.378 . S
C1494 C1498 1.350 . S
C1495 C1498 1.463 . S
C1495 C1500 1.350 . S
C1495 N1503 1.427 . S
C1496 H1487 0.930 . S
C1496 C1494 1.378 . S
C1496 C1497 1.367 . S
C1497 C1496 1.367 . S
C1497 C1499 1.433 . S
C1498 C1494 1.350 . S
C1498 C1495 1.463 . S
C1498 N1502 1.427 . S
C1499 H1489 0.929 . S
C1499 C1497 1.433 . S
C1499 N1502 1.384 . S
C1500 H1491 0.929 . S
C1500 C1492 1.378 . S
C1500 C1495 1.350 . S
C1501 H1488 0.929 . S
C1501 C1493 1.433 . S
C1501 N1503 1.384 . S
N1502 C1498 1.427 . S
N1502 C1499 1.384 . S
N1503 C1495 1.427 . S
N1503 C1501 1.384 . S
H1504 C1510 0.930 . S
H1505 C1514 0.930 . S
H1506 C1519 0.929 . S
H1507 C1517 0.929 . S
H1508 C1512 0.929 . S
H1509 C1518 0.929 . S
C1510 H1504 0.930 . S
C1510 C1511 1.367 . S
C1510 C1518 1.378 . S
C1511 C1510 1.367 . S
C1511 C1519 1.433 . S
C1512 H1508 0.929 . S
C1512 C1514 1.378 . S
C1512 C1516 1.350 . S
C1513 C1516 1.463 . S
C1513 C1518 1.350 . S
C1513 N1521 1.427 . S
C1514 H1505 0.930 . S
C1514 C1512 1.378 . S
C1514 C1515 1.367 . S
C1515 C1514 1.367 . S
C1515 C1517 1.433 . S
C1516 C1512 1.350 . S
C1516 C1513 1.463 . S
C1516 N1520 1.427 . S
C1517 H1507 0.929 . S
C1517 C1515 1.433 . S
C1517 N1520 1.384 . S
C1518 H1509 0.929 . S
C1518 C1510 1.378 . S
C1518 C1513 1.350 . S
C1519 H1506 0.929 . S
C1519 C1511 1.433 . S
C1519 N1521 1.384 . S
N1520 C1516 1.427 . S
N1520 C1517 1.384 . S
N1521 C1513 1.427 . S
N1521 C1519 1.384 . S
H1522 C1528 0.930 1_554 S
H1523 C1532 0.930 . S
H1524 C1537 0.929 . S
H1525 C1535 0.929 . S
H1526 C1530 0.929 1_556 S
H1527 C1536 0.929 . S
C1528 H1522 0.930 1_556 S
C1528 C1529 1.367 . S
C1528 C1536 1.378 1_556 S
C1529 C1528 1.367 . S
C1529 C1537 1.433 . S
C1530 H1526 0.929 1_554 S
C1530 C1532 1.378 . S
C1530 C1534 1.350 . S
C1531 C1534 1.463 . S
C1531 C1536 1.350 . S
C1531 N1539 1.427 1_554 S
C1532 H1523 0.930 . S
C1532 C1530 1.378 . S
C1532 C1533 1.367 . S
C1533 C1532 1.367 . S
C1533 C1535 1.433 . S
C1534 C1530 1.350 . S
C1534 C1531 1.463 . S
C1534 N1538 1.427 . S
C1535 H1525 0.929 . S
C1535 C1533 1.433 . S
C1535 N1538 1.384 . S
C1536 H1527 0.929 . S
C1536 C1528 1.378 1_554 S
C1536 C1531 1.350 . S
C1537 H1524 0.929 . S
C1537 C1529 1.433 . S
C1537 N1539 1.384 . S
N1538 C1534 1.427 . S
N1538 C1535 1.384 . S
N1539 C1531 1.427 1_556 S
N1539 C1537 1.384 . S
H1540 C1546 0.930 . S
H1541 C1550 0.930 . S
H1542 C1555 0.929 . S
H1543 C1553 0.929 . S
H1544 C1548 0.929 . S
H1545 C1554 0.929 . S
C1546 H1540 0.930 . S
C1546 C1547 1.367 . S
C1546 C1554 1.378 . S
C1547 C1546 1.367 . S
C1547 C1555 1.433 . S
C1548 H1544 0.929 . S
C1548 C1550 1.378 . S
C1548 C1552 1.350 . S
C1549 C1552 1.463 . S
C1549 C1554 1.350 . S
C1549 N1557 1.427 . S
C1550 H1541 0.930 . S
C1550 C1548 1.378 . S
C1550 C1551 1.367 . S
C1551 C1550 1.367 . S
C1551 C1553 1.433 . S
C1552 C1548 1.350 . S
C1552 C1549 1.463 . S
C1552 N1556 1.427 . S
C1553 H1543 0.929 . S
C1553 C1551 1.433 . S
C1553 N1556 1.384 . S
C1554 H1545 0.929 . S
C1554 C1546 1.378 . S
C1554 C1549 1.350 . S
C1555 H1542 0.929 . S
C1555 C1547 1.433 . S
C1555 N1557 1.384 . S
N1556 C1552 1.427 . S
N1556 C1553 1.384 . S
N1557 C1549 1.427 . S
N1557 C1555 1.384 . S
H1558 C1564 0.930 . S
H1559 C1568 0.930 . S
H1560 C1573 0.942 . S
H1561 C1571 0.929 . S
H1562 C1566 0.929 . S
H1563 C1572 0.929 . S
C1564 H1558 0.930 . S
C1564 C1565 1.367 . S
C1564 C1572 1.378 . S
C1565 C1564 1.367 . S
C1565 C1573 1.413 1_455 S
C1566 H1562 0.929 . S
C1566 C1568 1.378 . S
C1566 C1570 1.350 . S
C1567 C1570 1.463 1_455 S
C1567 C1572 1.350 . S
C1567 N1575 1.427 1_455 S
C1568 H1559 0.930 . S
C1568 C1566 1.378 . S
C1568 C1569 1.367 . S
C1569 C1568 1.367 . S
C1569 C1571 1.433 1_655 S
C1570 C1566 1.350 . S
C1570 C1567 1.463 1_655 S
C1570 N1574 1.427 1_655 S
C1571 H1561 0.929 . S
C1571 C1569 1.433 1_455 S
C1571 N1574 1.384 . S
C1572 H1563 0.929 . S
C1572 C1564 1.378 . S
C1572 C1567 1.350 . S
C1573 H1560 0.942 . S
C1573 C1565 1.413 1_655 S
C1573 N1575 1.391 . S
N1574 C1570 1.427 1_455 S
N1574 C1571 1.384 . S
N1575 C1567 1.427 1_655 S
N1575 C1573 1.391 . S
H1576 C1582 0.930 . S
H1577 C1586 0.930 . S
H1578 C1591 0.929 . S
H1579 C1589 0.929 . S
H1580 C1584 0.929 . S
H1581 C1590 0.929 . S
C1582 H1576 0.930 . S
C1582 C1583 1.367 . S
C1582 C1590 1.378 . S
C1583 C1582 1.367 . S
C1583 C1591 1.433 . S
C1584 H1580 0.929 . S
C1584 C1586 1.378 . S
C1584 C1588 1.350 . S
C1585 C1588 1.463 . S
C1585 C1590 1.350 . S
C1585 N1593 1.427 . S
C1586 H1577 0.930 . S
C1586 C1584 1.378 . S
C1586 C1587 1.367 . S
C1587 C1586 1.367 . S
C1587 C1589 1.433 . S
C1588 C1584 1.350 . S
C1588 C1585 1.463 . S
C1588 N1592 1.427 . S
C1589 H1579 0.929 . S
C1589 C1587 1.433 . S
C1589 N1592 1.384 . S
C1590 H1581 0.929 . S
C1590 C1582 1.378 . S
C1590 C1585 1.350 . S
C1591 H1578 0.929 . S
C1591 C1583 1.433 . S
C1591 N1593 1.384 . S
N1592 C1588 1.427 . S
N1592 C1589 1.384 . S
N1593 C1585 1.427 . S
N1593 C1591 1.384 . S
H1594 C1600 0.930 . S
H1595 C1604 0.930 . S
H1596 C1609 0.929 . S
H1597 C1607 0.929 . S
H1598 C1602 0.929 . S
H1599 C1608 0.929 . S
C1600 H1594 0.930 . S
C1600 C1601 1.367 . S
C1600 C1608 1.378 . S
C1601 C1600 1.367 . S
C1601 C1609 1.433 . S
C1602 H1598 0.929 . S
C1602 C1604 1.378 . S
C1602 C1606 1.350 . S
C1603 C1606 1.463 . S
C1603 C1608 1.350 . S
C1603 N1611 1.427 . S
C1604 H1595 0.930 . S
C1604 C1602 1.378 . S
C1604 C1605 1.367 . S
C1605 C1604 1.367 . S
C1605 C1607 1.433 . S
C1606 C1602 1.350 . S
C1606 C1603 1.463 . S
C1606 N1610 1.427 . S
C1607 H1597 0.929 . S
C1607 C1605 1.433 . S
C1607 N1610 1.384 . S
C1608 H1599 0.929 . S
C1608 C1600 1.378 . S
C1608 C1603 1.350 . S
C1609 H1596 0.929 . S
C1609 C1601 1.433 . S
C1609 N1611 1.384 . S
N1610 C1606 1.427 . S
N1610 C1607 1.384 . S
N1611 C1603 1.427 . S
N1611 C1609 1.384 . S
H1612 C1618 0.930 . S
H1613 C1622 0.930 . S
H1614 C1627 0.929 . S
H1615 C1625 0.929 1_655 S
H1616 C1620 0.929 1_565 S
H1617 C1626 0.929 1_545 S
C1618 H1612 0.930 . S
C1618 C1619 1.367 . S
C1618 C1626 1.378 . S
C1619 C1618 1.367 . S
C1619 C1627 1.433 1_655 S
C1620 H1616 0.929 1_545 S
C1620 C1622 1.378 . S
C1620 C1624 1.350 . S
C1621 C1624 1.470 1_565 S
C1621 C1626 1.335 1_455 S
C1621 N1629 1.438 . S
C1622 H1613 0.930 . S
C1622 C1620 1.378 . S
C1622 C1623 1.367 . S
C1623 C1622 1.367 . S
C1623 C1625 1.433 . S
C1624 C1620 1.350 . S
C1624 C1621 1.470 1_545 S
C1624 N1628 1.427 1_455 S
C1625 H1615 0.929 1_455 S
C1625 C1623 1.433 . S
C1625 N1628 1.384 1_455 S
C1626 H1617 0.929 1_565 S
C1626 C1618 1.378 . S
C1626 C1621 1.335 1_655 S
C1627 H1614 0.929 . S
C1627 C1619 1.433 1_455 S
C1627 N1629 1.384 . S
N1628 C1624 1.427 1_655 S
N1628 C1625 1.384 1_655 S
N1629 C1621 1.438 . S
N1629 C1627 1.384 . S
H1630 C1636 0.930 . S
H1631 C1640 0.930 . S
H1632 C1645 0.929 . S
H1633 C1643 0.929 . S
H1634 C1638 0.940 . S
H1635 C1644 0.929 1_545 S
C1636 H1630 0.930 . S
C1636 C1637 1.367 . S
C1636 C1644 1.378 . S
C1637 C1636 1.367 . S
C1637 C1645 1.433 . S
C1638 H1634 0.940 . S
C1638 C1640 1.378 . S
C1638 C1642 1.350 . S
C1639 C1642 1.463 1_564 S
C1639 C1644 1.350 . S
C1639 N1647 1.427 . S
C1640 H1631 0.930 . S
C1640 C1638 1.378 . S
C1640 C1641 1.367 . S
C1641 C1640 1.367 . S
C1641 C1643 1.433 . S
C1642 C1638 1.350 . S
C1642 C1639 1.463 1_546 S
C1642 N1646 1.427 . S
C1643 H1633 0.929 . S
C1643 C1641 1.433 . S
C1643 N1646 1.384 . S
C1644 H1635 0.929 1_565 S
C1644 C1636 1.378 . S
C1644 C1639 1.350 . S
C1645 H1632 0.929 . S
C1645 C1637 1.433 . S
C1645 N1647 1.384 . S
N1646 C1642 1.427 . S
N1646 C1643 1.384 . S
N1647 C1639 1.427 . S
N1647 C1645 1.384 . S
C503 C19 1.739 . S
C507 C423 1.704 . S
C521 C41 1.579 . S
C525 C187 1.705 . S
C539 C485 1.756 . S
C543 C72 1.639 . S
C557 C125 1.758 . S
C561 C112 1.802 . S
C575 C124 1.926 . S
C579 C281 1.871 . S
C593 C155 1.998 . S
C597 C64 1.949 . S
C611 C186 1.802 1_556 S
C615 C361 1.773 . S
C629 C236 1.730 . S
C633 C20 1.698 . S
C647 C156 1.708 . S
C651 C267 1.746 . S
C665 C289 1.592 . S
C669 C435 1.704 . S
C683 C320 1.642 . S
C687 C237 1.765 . S
C701 C360 1.796 . S
C705 C373 1.762 . S
C719 C33 1.879 . S
C723 C372 1.929 1_556 S
C737 C312 1.954 . S
C741 C422 1.997 . S
C755 C113 1.763 . S
C759 C434 1.803 . S
C773 C268 1.696 . S
C777 C484 1.736 . S
C791 C0 1.457 . S
C795 C10 1.472 . S
C809 C61 1.481 . S
C813 C50 1.469 1_554 S
C827 C81 1.466 . S
C831 C92 1.477 . S
C845 C103 1.474 . S
C849 C93 1.460 . S
C863 C154 1.470 . S
C867 C143 1.457 . S
C881 C174 1.467 . S
C885 C185 1.478 1_556 S
C899 C216 1.480 . S
C903 C205 1.470 . S
C917 C227 1.473 . S
C921 C217 1.462 1_554 S
C935 C248 1.457 . S
C939 C258 1.472 . S
C953 C309 1.471 1_556 S
C957 C298 1.458 . S
C971 C340 1.480 . S
C975 C329 1.470 . S
C989 C341 1.469 . S
C993 C351 1.482 1_554 S
C1007 C402 1.478 . S
C1011 C391 1.468 . S
C1025 C403 1.471 1_554 S
C1029 C413 1.482 . S
C1043 C464 1.485 . S
C1047 C453 1.474 . S
C1061 C465 1.470 . S
C1065 C475 1.482 1_556 S
C1079 C1 0.654 . S
C1083 C392 0.654 . S
C1097 C175 0.685 . S
C1101 C60 0.689 . S
C1115 C91 0.710 . S
C1119 C454 0.709 . S
C1133 C94 0.704 . S
C1137 C218 0.704 . S
C1151 C144 0.656 . S
C1155 C249 0.655 . S
C1169 C206 0.747 . S
C1173 C339 0.751 . S
C1187 C404 0.728 . S
C1191 C308 0.734 . S
C1205 C466 0.678 . S
C1209 C342 0.678 . S
C1223 C123 1.739 . S
C1227 C29 1.929 . S
C1241 C32 1.763 . S
C1245 C30 1.578 . S
C1259 C63 1.810 . S
C1263 C31 1.744 . S
C1277 C122 1.984 . S
C1281 C62 1.907 . S
C1295 C247 1.751 . S
C1299 C126 1.953 . S
C1313 C157 2.016 . S
C1317 C134 1.807 . S
C1331 C165 1.782 . S
C1335 C188 1.993 . S
C1349 C196 1.727 1_556 S
C1353 C246 1.929 . S
C1367 C277 1.939 . S
C1371 C371 1.723 . S
C1385 C280 1.772 . S
C1389 C278 1.558 . S
C1403 C279 1.745 . S
C1407 C311 1.809 . S
C1421 C310 1.912 . S
C1425 C370 1.979 . S
C1439 C374 1.954 . S
C1443 C495 1.748 . S
C1457 C432 2.009 . S
C1461 C382 1.827 1_556 S
C1475 C436 1.995 . S
C1479 C433 1.784 . S
C1493 C444 1.717 . S
C1497 C494 1.932 . S
C1511 C2 0.729 . S
C1515 C401 0.729 . S
C1529 C51 0.701 . S
C1533 C184 0.712 . S
C1547 C463 0.648 . S
C1551 C82 0.635 . S
C1565 C95 0.684 . S
C1569 C219 0.684 . S
C1583 C250 0.755 . S
C1587 C153 0.755 . S
C1601 C330 0.649 . S
C1605 C215 0.665 . S
C1619 C299 0.650 . S
C1623 C405 0.661 . S
C1637 C467 0.685 . S
C1641 C343 0.686 . S
