# Generated by pormake.
# Topology sxb, (6)-cn, num edge types: 1
# Building blocks:
#     Node 0, Type 0, BuildingBlock: CUWYAW_clean_sbu_0, # of connection points: 6
#     Node 1, Type 0, BuildingBlock: CUWYAW_clean_sbu_0, # of connection points: 6
#     Node 2, Type 0, BuildingBlock: CUWYAW_clean_sbu_0, # of connection points: 6
#     Node 3, Type 0, BuildingBlock: CUWYAW_clean_sbu_0, # of connection points: 6
#     Edge 4, Type (0, 0), BuildingBlock: XUDNAN_clean_linker_2, # of connection points: 2
#     Edge 5, Type (0, 0), BuildingBlock: XUDNAN_clean_linker_2, # of connection points: 2
#     Edge 6, Type (0, 0), BuildingBlock: XUDNAN_clean_linker_2, # of connection points: 2
#     Edge 7, Type (0, 0), BuildingBlock: XUDNAN_clean_linker_2, # of connection points: 2
#     Edge 8, Type (0, 0), BuildingBlock: XUDNAN_clean_linker_2, # of connection points: 2
#     Edge 9, Type (0, 0), BuildingBlock: XUDNAN_clean_linker_2, # of connection points: 2
#     Edge 10, Type (0, 0), BuildingBlock: XUDNAN_clean_linker_2, # of connection points: 2
#     Edge 11, Type (0, 0), BuildingBlock: XUDNAN_clean_linker_2, # of connection points: 2
#     Edge 12, Type (0, 0), BuildingBlock: XUDNAN_clean_linker_2, # of connection points: 2
#     Edge 13, Type (0, 0), BuildingBlock: XUDNAN_clean_linker_2, # of connection points: 2
#     Edge 14, Type (0, 0), BuildingBlock: XUDNAN_clean_linker_2, # of connection points: 2
#     Edge 15, Type (0, 0), BuildingBlock: XUDNAN_clean_linker_2, # of connection points: 2
# Relax obj value: 0.437
# Max RMSD: 0.114
# Mean RMSD: 0.091
data_MOF--net-sxb--node1-CUWYAW_clean_sbu_0--edge1-XUDNAN_clean_linker_2
_symmetry_space_group_name_H-M    P1
_symmetry_Int_Tables_number       1
_symmetry_cell_setting            triclinic
loop_
_symmetry_equiv_pos_as_xyz
'x, y, z'
_cell_length_a     16.102267
_cell_length_b     34.91259
_cell_length_c     29.664611
_cell_angle_alpha  97.217233
_cell_angle_beta   94.911854
_cell_angle_gamma 64.878298
loop_
_atom_site_label
_atom_site_type_symbol
_atom_site_fract_x
_atom_site_fract_y
_atom_site_fract_z
_atom_type_partial_charge
C0 C 0.3332 0.09729 0.96875 0.0
Eu1 Eu 0.16765 0.10509 0.97009 0.0
C2 C 0.40869 1.06248 0.99055 0.0
C3 C 0.45355 1.07202 0.03004 0.0
C4 C 0.50479 1.04046 0.05854 0.0
C5 C 0.51179 0.99867 0.04835 0.0
C6 C 0.47015 0.98885 0.00783 0.0
C7 C 0.41982 1.02022 0.97913 0.0
C8 C 0.11457 0.10263 0.05451 0.0
C9 C 0.15346 1.01744 0.96916 0.0
C10 C 0.84808 0.10023 0.99228 0.0
Eu11 Eu 0.98353 0.11356 0.96954 0.0
C12 C 0.85973 1.06585 0.01981 0.0
C13 C 0.81728 1.03859 0.00561 0.0
C14 C 0.83848 1.00252 0.02799 0.0
C15 C 0.90311 0.99282 0.06486 0.0
C16 C 0.94527 1.02027 0.07918 0.0
C17 C 0.92426 1.05625 0.05664 0.0
C18 C 1.03283 0.1144 0.88438 0.0
C19 C 0.99836 0.20077 0.96494 0.0
O20 O 0.29254 0.08606 0.93274 0.0
O21 O 0.27447 0.12531 0.99724 0.0
O22 O 0.19258 1.07708 0.03779 0.0
O23 O 1.06758 0.12816 0.02596 0.0
O24 O 0.20648 1.03407 0.95685 0.0
O25 O 1.06908 1.04316 0.98139 0.0
O26 O 0.88243 0.08729 0.95192 0.0
O27 O 0.86825 0.13069 0.01315 0.0
O28 O 0.95155 0.1374 0.89991 0.0
O29 O 1.08352 0.09011 0.91353 0.0
O30 O 0.9429 0.18476 0.97634 0.0
O31 O 1.08506 0.17505 0.95547 0.0
H32 H 0.44534 0.10434 0.03999 0.0
H33 H 0.53905 1.04888 0.08859 0.0
H34 H 0.47509 0.95707 -0.00135 0.0
H35 H 0.386 1.01159 0.94907 0.0
H36 H 0.76866 1.04489 0.97689 0.0
H37 H 0.80227 0.98279 0.01707 0.0
H38 H 0.99426 1.01394 0.10774 0.0
H39 H 0.95995 1.07611 0.06755 0.0
C40 C 0.97414 0.23131 0.4509 0.0
Eu41 Eu 1.02798 0.1535 0.46954 0.0
C42 C 1.02797 0.25296 0.43795 0.0
C43 C 1.03267 0.28684 0.46712 0.0
C44 C 0.1021 0.29986 0.46292 0.0
C45 C 0.16718 0.27949 0.42905 0.0
C46 C 0.1563 0.24863 0.39699 0.0
C47 C 1.08763 0.23525 0.40153 0.0
C48 C 1.04597 0.12715 0.55377 0.0
C49 C 0.258 0.10834 0.46985 0.0
C50 C 0.17513 0.98461 0.48953 0.0
Eu51 Eu 0.1215 1.06184 0.46911 0.0
C52 C 0.12202 0.96615 0.50925 0.0
C53 C 0.13265 0.92483 0.49387 0.0
C54 C 1.06666 0.9112 0.50336 0.0
C55 C 0.98905 0.93899 0.52794 0.0
C56 C 0.983 0.97904 0.54647 0.0
C57 C 1.04906 0.9925 0.53724 0.0
C58 C 0.10316 0.0878 0.38478 0.0
C59 C 0.88992 0.10922 0.46993 0.0
O60 O 0.96899 0.20117 0.42139 0.0
O61 O 0.99086 0.22028 0.49239 0.0
O62 O 0.97304 0.15775 0.53875 0.0
O63 O 0.10699 0.11278 0.52427 0.0
O64 O 0.17967 0.14246 0.46426 0.0
O65 O 0.25499 1.07176 0.47499 0.0
O66 O 0.19107 1.01378 0.51608 0.0
O67 O 0.14714 0.99574 0.44853 0.0
O68 O 0.17571 1.05688 0.39962 0.0
O69 O 1.04223 0.10245 0.41439 0.0
O70 O 0.96657 1.07442 0.47714 0.0
O71 O 0.8971 0.14394 0.46163 0.0
H72 H 0.98729 0.30091 0.49538 0.0
H73 H 0.10864 0.32362 0.48838 0.0
H74 H 0.20393 0.23314 0.36985 0.0
H75 H 1.08544 0.20915 0.37825 0.0
H76 H 0.18852 0.90417 0.4722 0.0
H77 H 1.07365 0.87984 0.48935 0.0
H78 H 0.92374 1.00127 0.56515 0.0
H79 H 1.03933 1.02468 0.54932 0.0
C80 C 0.80658 0.62225 0.97658 0.0
Eu81 Eu 0.65429 0.61448 0.97038 0.0
C82 C 0.88165 0.59475 0.00593 0.0
C83 C 0.89707 0.55192 0.00532 0.0
C84 C 0.94034 0.52887 0.04209 0.0
C85 C 0.97465 0.54708 0.0798 0.0
C86 C 0.9661 0.58901 0.07859 0.0
C87 C 0.91858 0.61279 0.04249 0.0
C88 C 0.61852 0.60001 0.05436 0.0
C89 C 0.68341 0.51805 0.96263 0.0
C90 C 0.36753 0.58135 0.99368 0.0
Eu91 Eu 0.49184 0.60281 0.96981 0.0
C92 C 0.3684 0.55939 0.03306 0.0
C93 C 0.29267 0.57664 0.06081 0.0
C94 C 0.2953 0.55913 0.10087 0.0
C95 C 0.37416 0.52403 0.11442 0.0
C96 C 0.45004 0.50661 0.08636 0.0
C97 C 0.4474 0.52429 0.04619 0.0
C98 C 0.52433 0.61279 0.88386 0.0
C99 C 0.46367 0.69945 0.96843 0.0
O100 O 0.78323 0.60308 0.94021 0.0
O101 O 0.7351 0.64922 -0.00104 0.0
O102 O 0.69658 0.58188 0.03543 0.0
O103 O 0.56183 0.62463 0.02762 0.0
O104 O 0.71496 0.5435 0.94858 0.0
O105 O 0.6012 0.53519 0.97994 0.0
O106 O 0.42522 0.55928 0.96185 0.0
O107 O 0.36519 0.61921 0.00409 0.0
O108 O 0.44389 0.62581 0.90042 0.0
O109 O 0.58458 0.59179 0.91223 0.0
O110 O 0.42735 0.67492 0.98066 0.0
O111 O 0.55021 0.682 0.95609 0.0
H112 H 0.87003 0.5368 0.97775 0.0
H113 H 0.94403 0.49712 0.04109 0.0
H114 H 0.99499 0.60395 0.10564 0.0
H115 H 0.90695 0.64586 0.0442 0.0
H116 H 0.23142 0.60388 0.05159 0.0
H117 H 0.23393 0.57245 0.12041 0.0
H118 H 0.51117 0.47926 0.09537 0.0
H119 H 0.50739 0.51058 0.02569 0.0
C120 C 0.44882 0.72804 0.47418 0.0
Eu121 Eu 0.54834 0.64686 0.47734 0.0
C122 C 0.46912 0.76418 0.46926 0.0
C123 C 0.40987 0.80513 0.48674 0.0
C124 C 0.4375 0.83831 0.48993 0.0
C125 C 0.5248 0.83063 0.47579 0.0
C126 C 0.58133 0.78994 0.45579 0.0
C127 C 0.55369 0.75701 0.45259 0.0
C128 C 0.59355 0.60974 0.55658 0.0
C129 C 0.76799 0.60762 0.47093 0.0
C130 C 0.73002 0.47645 0.46773 0.0
Eu131 Eu 0.62959 0.55707 0.46174 0.0
C132 C 0.7154 0.44068 0.4804 0.0
C133 C 0.74875 0.40216 0.45256 0.0
C134 C 0.71706 0.37139 0.45696 0.0
C135 C 0.65177 0.37891 0.48939 0.0
C136 C 0.62696 0.41542 0.52064 0.0
C137 C 0.6577 0.44639 0.51586 0.0
C138 C 0.58448 0.59427 0.38265 0.0
C139 C 0.40833 0.59844 0.4652 0.0
O140 O 0.46296 0.70003 0.43869 0.0
O141 O 0.48131 0.71044 0.51189 0.0
O142 O 0.60951 0.64177 0.54914 0.0
O143 O 0.55579 0.59825 0.52163 0.0
O144 O 0.69138 0.64288 0.46944 0.0
O145 O 0.76129 0.57091 0.4714 0.0
O146 O 0.72606 0.50614 0.50025 0.0
O147 O 0.68626 0.49188 0.43039 0.0
O148 O 0.57007 0.56169 0.38958 0.0
O149 O 0.62225 0.60561 0.41763 0.0
O150 O 0.48234 0.56235 0.46998 0.0
O151 O 0.42063 0.63317 0.46192 0.0
H152 H 0.34439 0.81094 0.49991 0.0
H153 H 0.39246 0.86941 0.50519 0.0
H154 H 0.64975 0.78263 0.44542 0.0
H155 H 0.60058 0.72541 0.43944 0.0
H156 H 0.79369 0.39728 0.42516 0.0
H157 H 0.73731 0.34365 0.43232 0.0
H158 H 0.5781 0.42157 0.54654 0.0
H159 H 0.63144 0.47585 0.53791 0.0
H160 H 0.50955 0.76573 0.95054 0.0
H161 H 0.28255 0.74195 0.98871 0.0
H162 H 0.1832 0.81847 0.99279 0.0
H163 H 0.45313 0.86585 0.02366 0.0
H164 H 0.48894 0.88894 0.98234 0.0
H165 H 0.53953 0.83233 0.98383 0.0
H166 H 0.49203 0.82598 0.89797 0.0
H167 H 0.43698 0.88303 0.89853 0.0
H168 H 0.37264 0.85195 0.88058 0.0
H169 H 0.10586 0.89808 0.9938 0.0
H170 H 1.056 0.97474 0.99047 0.0
H171 H 0.32885 0.95123 0.95176 0.0
C172 C 0.43887 0.77657 0.95957 0.0
C173 C 0.40488 0.74691 0.96927 0.0
C174 C 0.31153 0.76318 0.98109 0.0
C175 C 0.25394 0.80697 0.98354 0.0
C176 C 0.28937 0.83515 0.97412 0.0
C177 C 0.37957 0.82074 0.96223 0.0
C178 C 0.39957 0.85843 0.95418 0.0
C179 C 0.47466 0.86159 0.98806 0.0
C180 C 0.42693 0.85461 0.90488 0.0
C181 C 0.30656 0.89609 0.96324 0.0
C182 C 0.24434 0.88159 0.97476 0.0
C183 C 0.15415 0.90968 0.98473 0.0
C184 C 0.12631 0.95353 0.98276 0.0
C185 C 0.18767 0.96989 0.97084 0.0
C186 C 0.27958 0.94029 0.96098 0.0
H187 H 0.64315 0.45197 0.98566 0.0
H188 H 0.85892 0.47538 0.93299 0.0
H189 H 0.95941 0.3989 0.92876 0.0
H190 H 0.7913 0.36734 0.05392 0.0
H191 H 0.72609 0.33598 0.04116 0.0
H192 H 0.66983 0.39292 0.04068 0.0
H193 H 0.60938 0.38392 0.95828 0.0
H194 H 0.66545 0.32694 0.95845 0.0
H195 H 0.68935 0.3522 0.91496 0.0
H196 H 1.03938 0.31925 0.93023 0.0
H197 H 1.09138 0.24271 0.93609 0.0
H198 H 0.82619 0.26719 0.98625 0.0
C199 C 0.71153 0.44107 0.97328 0.0
C200 C 0.74243 0.4706 0.95997 0.0
C201 C 0.83272 0.45425 0.94376 0.0
C202 C 0.8908 0.41049 0.94112 0.0
C203 C 0.85857 0.38246 0.95447 0.0
C204 C 0.7709 0.39697 0.97008 0.0
C205 C 0.75369 0.35951 0.98169 0.0
C206 C 0.73406 0.36423 0.03238 0.0
C207 C 0.67477 0.35541 0.95155 0.0
C208 C 0.84537 0.32189 0.9704 0.0
C209 C 0.90465 0.33612 0.95478 0.0
C210 C 0.99328 0.30786 0.94235 0.0
C211 C 1.02238 0.26411 0.94585 0.0
C212 C 0.96365 0.24809 0.96159 0.0
C213 C 0.8734 0.27786 0.97397 0.0
H214 H 0.18371 0.35481 0.45004 0.0
H215 H 0.34244 0.21989 0.41341 0.0
H216 H 0.48542 0.22971 0.42726 0.0
H217 H 0.33336 0.39068 0.40127 0.0
H218 H 0.31811 0.43264 0.44621 0.0
H219 H 0.22735 0.41574 0.431 0.0
H220 H 0.22469 0.4014 0.51406 0.0
H221 H 0.31536 0.41822 0.53 0.0
H222 H 0.32884 0.36639 0.54165 0.0
H223 H 0.61192 0.2536 0.45034 0.0
H224 H 0.71058 0.29206 0.47124 0.0
H225 H 0.4668 0.41017 0.49337 0.0
C226 C 0.24845 0.32731 0.44481 0.0
C227 C 0.25175 0.28658 0.43096 0.0
C228 C 0.33796 0.25156 0.42361 0.0
C229 C 0.41974 0.25667 0.43195 0.0
C230 C 0.41397 0.29694 0.44758 0.0
C231 C 0.3305 0.33177 0.45318 0.0
C232 C 0.34276 0.37172 0.47001 0.0
C233 C 0.30304 0.40461 0.43501 0.0
C234 C 0.30042 0.3905 0.51671 0.0
C235 C 0.44619 0.35377 0.47353 0.0
C236 C 0.48632 0.31061 0.46061 0.0
C237 C 0.58135 0.28746 0.46042 0.0
C238 C 0.63672 0.30945 0.47242 0.0
C239 C 0.59639 0.35396 0.48443 0.0
C240 C 0.49998 0.37599 0.48563 0.0
H241 H 0.91735 0.90334 0.45763 0.0
H242 H 0.87833 0.95335 0.59954 0.0
H243 H 0.73717 0.94139 0.5979 0.0
H244 H 0.67602 0.94472 0.42089 0.0
H245 H 0.6937 0.89788 0.38264 0.0
H246 H 0.78549 0.91466 0.39518 0.0
H247 H 0.89018 0.83957 0.42088 0.0
H248 H 0.79731 0.82375 0.4086 0.0
H249 H 0.85184 0.81988 0.46453 0.0
H250 H 0.6079 0.91887 0.58199 0.0
H251 H 0.5104 0.88129 0.55564 0.0
H252 H 0.63141 0.84911 0.42322 0.0
C253 C 0.87985 0.91135 0.48858 0.0
C254 C 0.90898 0.92894 0.52883 0.0
C255 C 0.85682 0.9399 0.56831 0.0
C256 C 0.77652 0.93344 0.56762 0.0
C257 C 0.74938 0.91636 0.52711 0.0
C258 C 0.79991 0.90523 0.48844 0.0
C259 C 0.75969 0.88498 0.45006 0.0
C260 C 0.72685 0.91219 0.40978 0.0
C261 C 0.82884 0.83935 0.43518 0.0
C262 C 0.67971 0.88542 0.47349 0.0
C263 C 0.67397 0.90418 0.51771 0.0
C264 C 0.61059 0.90475 0.5472 0.0
C265 C 0.55484 0.88367 0.53177 0.0
C266 C 0.56344 0.86232 0.48735 0.0
C267 C 0.62342 0.86517 0.45733 0.0
H268 H 0.63139 0.91883 0.02029 0.0
H269 H 0.52775 1.00283 0.14164 0.0
H270 H 0.67035 0.96339 0.18325 0.0
H271 H 0.85176 0.82863 0.10434 0.0
H272 H 0.91957 0.81422 0.05469 0.0
H273 H 0.80438 0.81744 0.0498 0.0
H274 H 0.76567 0.8674 0.98813 0.0
H275 H 0.87918 0.86496 0.99307 0.0
H276 H 0.78153 0.91591 -0.00103 0.0
H277 H 0.82105 0.95891 0.1902 0.0
H278 H 0.89512 0.9959 0.15675 0.0
H279 H 0.93307 0.91212 0.0334 0.0
C280 C 0.63727 0.92657 0.05651 0.0
C281 C 0.57176 0.96482 0.07725 0.0
C282 C 0.57933 0.97448 0.12456 0.0
C283 C 0.66031 0.95156 0.14866 0.0
C284 C 0.73355 0.91963 0.12483 0.0
C285 C 0.71995 0.90427 0.08036 0.0
C286 C 0.81167 0.87923 0.05843 0.0
C287 C 0.84901 0.83216 0.06742 0.0
C288 C 0.80923 0.88228 0.00663 0.0
C289 C 0.86667 0.90017 0.08693 0.0
C290 C 0.82737 0.91668 0.12929 0.0
C291 C 0.85067 0.94638 0.15722 0.0
C292 C 0.89318 0.96761 0.1379 0.0
C293 C 0.91447 0.95773 0.09166 0.0
C294 C 0.91421 0.92001 0.06862 0.0
H295 H 0.44439 1.04652 0.45737 0.0
H296 H 0.28125 0.1818 0.48869 0.0
H297 H 0.42166 0.1938 0.49517 0.0
H298 H 0.64633 1.03829 0.53039 0.0
H299 H 0.72981 1.0024 0.49055 0.0
H300 H 0.61765 1.00243 0.48976 0.0
H301 H 0.59051 1.01705 0.40425 0.0
H302 H 0.70553 1.01392 0.40576 0.0
H303 H 0.60983 1.06018 0.38723 0.0
H304 H 0.57777 0.19359 0.49584 0.0
H305 H 0.73819 0.18136 0.49115 0.0
H306 H 0.81477 1.04611 0.45829 0.0
C307 C 0.43808 1.07871 0.46557 0.0
C308 C 0.34905 0.11321 0.47259 0.0
C309 C 0.34627 0.1546 0.48289 0.0
C310 C 0.42656 0.16188 0.48661 0.0
C311 C 0.5119 0.12779 0.47902 0.0
C312 C 0.51884 0.0869 0.46851 0.0
C313 C 0.62051 1.05653 0.4608 0.0
C314 C 0.6556 1.0229 0.49491 0.0
C315 C 0.63239 1.03562 0.41161 0.0
C316 C 0.66917 0.08663 0.46935 0.0
C317 C 0.6039 0.12761 0.47957 0.0
C318 C 0.62896 0.16158 0.48769 0.0
C319 C 0.72165 0.15411 0.48485 0.0
C320 C 0.79212 0.11274 0.47426 0.0
C321 C 0.76445 1.07825 0.46683 0.0
H322 H 0.99359 0.57541 0.16921 0.0
H323 H 1.07132 0.45966 0.07822 0.0
H324 H 0.19152 0.42231 0.13138 0.0
H325 H 0.13287 0.59401 0.18179 0.0
H326 H 0.17276 0.60158 0.23958 0.0
H327 H 1.05712 0.60766 0.22819 0.0
H328 H 1.07624 0.55383 0.28231 0.0
H329 H 0.19211 0.54793 0.29593 0.0
H330 H 0.16995 0.50189 0.27788 0.0
H331 H 0.34212 0.41162 0.15486 0.0
H332 H 0.43425 0.43856 0.11959 0.0
H333 H 0.30191 0.56005 0.19677 0.0
C334 C 1.03501 0.54182 0.16143 0.0
C335 C 1.0254 0.52151 0.1183 0.0
C336 C 1.07661 0.47705 0.11032 0.0
C337 C 0.14599 0.45507 0.14114 0.0
C338 C 0.16755 0.47795 0.17886 0.0
C339 C 0.10888 0.52026 0.19102 0.0
C340 C 0.15967 0.5411 0.22287 0.0
C341 C 0.12899 0.58884 0.21758 0.0
C342 C 0.14893 0.53579 0.27261 0.0
C343 C 0.2568 0.5123 0.20852 0.0
C344 C 0.26173 0.47215 0.19177 0.0
C345 C 0.33672 0.44319 0.16664 0.0
C346 C 0.38967 0.45878 0.1464 0.0
C347 C 0.36936 0.5024 0.15357 0.0
C348 C 0.31464 0.52694 0.19032 0.0
H349 H 0.32956 0.53686 0.46172 0.0
H350 H 0.25504 0.67269 0.47098 0.0
H351 H 1.09345 0.68705 0.47347 0.0
H352 H 0.12391 0.54255 0.38885 0.0
H353 H 0.11064 0.50183 0.41531 0.0
H354 H 0.22261 0.50151 0.41343 0.0
H355 H 0.23928 0.501 0.50143 0.0
H356 H 0.12656 0.50205 0.50237 0.0
H357 H 0.15296 0.54239 0.53618 0.0
H358 H 0.93728 0.68966 0.47559 0.0
H359 H 0.79559 0.67989 0.47624 0.0
H360 H 0.95396 0.54288 0.46511 0.0
C361 C 0.27935 0.56962 0.46429 0.0
C362 C 0.30848 0.6035 0.46612 0.0
C363 C 0.23804 0.64568 0.4693 0.0
C364 C 0.14448 0.65445 0.47085 0.0
C365 C 0.11836 0.621 0.469 0.0
C366 C 0.18309 0.57928 0.46554 0.0
C367 C 0.13291 0.54989 0.46333 0.0
C368 C 0.14845 0.52228 0.41752 0.0
C369 C 0.16484 0.52218 0.5032 0.0
C370 C 1.03109 0.58177 0.46721 0.0
C371 C 1.02564 0.62255 0.47009 0.0
C372 C 0.94101 0.6578 0.47338 0.0
C373 C 0.85987 0.65177 0.47372 0.0
C374 C 0.86068 0.61065 0.47091 0.0
C375 C 0.94904 0.57496 0.4676 0.0
H376 H 0.21896 1.04838 0.31388 0.0
H377 H 0.95075 0.14832 0.34579 0.0
H378 H 0.92353 0.16327 0.26507 0.0
H379 H 0.27484 0.10017 0.23105 0.0
H380 H 0.33102 1.05192 0.19444 0.0
H381 H 0.32936 1.04977 0.25468 0.0
H382 H 0.25578 0.99599 0.23912 0.0
H383 H 0.25723 0.99809 0.17885 0.0
H384 H 0.15098 1.00967 0.20489 0.0
H385 H 0.9265 0.16727 0.17958 0.0
H386 H 0.95919 0.15958 0.09795 0.0
H387 H 0.22349 1.05566 0.12182 0.0
C388 C 0.15455 1.07352 0.30394 0.0
C389 C 1.08707 0.09735 0.33635 0.0
C390 C 1.00363 0.12979 0.32175 0.0
C391 C 0.98753 0.13844 0.27588 0.0
C392 C 1.05531 0.11421 0.24475 0.0
C393 C 0.13714 1.08232 0.25823 0.0
C394 C 0.19843 1.0605 0.21808 0.0
C395 C 0.28874 1.06593 0.22499 0.0
C396 C 0.21665 1.01326 0.20976 0.0
C397 C 0.13876 0.08519 0.17991 0.0
C398 C 1.05643 0.11609 0.1959 0.0
C399 C 0.99075 0.14311 0.16683 0.0
C400 C 1.00987 0.13856 0.12048 0.0
C401 C 1.09376 0.10705 0.1034 0.0
C402 C 0.15859 1.08002 0.13372 0.0
H403 H 0.91979 0.15703 0.81541 0.0
H404 H 0.19369 1.06155 0.8426 0.0
H405 H 0.22708 1.05331 0.76098 0.0
H406 H 0.88095 0.10714 0.70668 0.0
H407 H 0.81872 0.15664 0.682 0.0
H408 H 0.81715 0.15499 0.74236 0.0
H409 H 0.87667 0.21387 0.7576 0.0
H410 H 0.8781 0.21579 0.6973 0.0
H411 H 0.98093 0.20636 0.73217 0.0
H412 H 0.22961 1.05582 0.67498 0.0
H413 H 0.20204 1.0698 0.59393 0.0
H414 H 0.92594 0.16313 0.62336 0.0
C415 C 0.98689 0.13438 0.80425 0.0
C416 C 1.05415 0.10985 0.83551 0.0
C417 C 0.14106 1.08064 0.81937 0.0
C418 C 0.16055 1.07574 0.77301 0.0
C419 C 1.09243 0.10024 0.74302 0.0
C420 C 1.00733 0.12904 0.75812 0.0
C421 C 0.94591 0.15162 0.71916 0.0
C422 C 0.86065 0.14201 0.71215 0.0
C423 C 0.91884 0.19976 0.72704 0.0
C424 C 1.00958 0.13126 0.67972 0.0
C425 C 1.09382 0.10161 0.69406 0.0
C426 C 0.1638 1.07897 0.66354 0.0
C427 C 0.14751 0.08705 0.61749 0.0
C428 C 1.0619 0.11753 0.60216 0.0
C429 C 0.99215 0.13961 0.63389 0.0
H430 H 0.50317 0.57469 0.30325 0.0
H431 H 0.67644 0.63798 0.35723 0.0
H432 H 0.69748 0.64949 0.27922 0.0
H433 H 0.62631 0.52055 0.2081 0.0
H434 H 0.53154 0.52714 0.16851 0.0
H435 H 0.51783 0.52714 0.22804 0.0
H436 H 0.38203 0.6014 0.23261 0.0
H437 H 0.38798 0.60096 0.17201 0.0
H438 H 0.39282 0.6445 0.21001 0.0
H439 H 0.7129 0.64722 0.19477 0.0
H440 H 0.71073 0.63694 0.11064 0.0
H441 H 0.51965 0.57935 0.11078 0.0
C442 C 0.5443 0.59159 0.29866 0.0
C443 C 0.58842 0.60533 0.33635 0.0
C444 C 0.64181 0.62726 0.32894 0.0
C445 C 0.65426 0.63389 0.2847 0.0
C446 C 0.61142 0.61915 0.24817 0.0
C447 C 0.55608 0.59919 0.25473 0.0
C448 C 0.51928 0.58574 0.2096 0.0
C449 C 0.55055 0.53728 0.20324 0.0
C450 C 0.41426 0.60953 0.20582 0.0
C451 C 0.56456 0.6001 0.17649 0.0
C452 C 0.61749 0.61932 0.19954 0.0
C453 C 0.67021 0.63302 0.17646 0.0
C454 C 0.66861 0.62706 0.12874 0.0
C455 C 0.61382 0.60809 0.10444 0.0
C456 C 0.56064 0.5947 0.12863 0.0
H457 H 0.65373 0.63894 0.63774 0.0
H458 H 0.51809 0.55874 0.581 0.0
H459 H 0.49295 0.54806 0.65864 0.0
H460 H 0.76679 0.5778 0.73591 0.0
H461 H 0.75194 0.62482 0.77352 0.0
H462 H 0.76458 0.62392 0.71355 0.0
H463 H 0.61158 0.69122 0.71001 0.0
H464 H 0.59817 0.6922 0.76983 0.0
H465 H 0.50879 0.69098 0.7295 0.0
H466 H 0.46887 0.55184 0.74214 0.0
H467 H 0.45745 0.56552 0.82578 0.0
H468 H 0.61505 0.6403 0.8298 0.0
C469 C 0.62001 0.61859 0.64169 0.0
C470 C 0.5877 0.59971 0.6032 0.0
C471 C 0.54357 0.57347 0.60986 0.0
C472 C 0.52888 0.56727 0.65389 0.0
C473 C 0.55973 0.58706 0.6911 0.0
C474 C 0.60554 0.61172 0.68552 0.0
C475 C 0.62988 0.63014 0.73131 0.0
C476 C 0.73453 0.61315 0.73902 0.0
C477 C 0.58437 0.67903 0.73538 0.0
C478 C 0.58861 0.61286 0.76347 0.0
C479 C 0.54845 0.58809 0.73945 0.0
C480 C 0.50133 0.5706 0.76128 0.0
C481 C 0.49496 0.57861 0.80874 0.0
C482 C 0.53615 0.60352 0.8341 0.0
C483 C 0.58426 0.62057 0.81119 0.0
loop_
_geom_bond_atom_site_label_1
_geom_bond_atom_site_label_2
_geom_bond_distance
_geom_bond_site_symmetry_2
_ccdc_geom_bond_type
C0 Eu1 2.835 1_565 S
C0 C2 1.500 . S
C0 O20 1.257 1_554 S
C0 O21 1.260 1_565 S
Eu1 C0 2.835 1_545 S
Eu1 O20 2.473 1_544 S
Eu1 O21 2.480 . S
Eu1 O22 2.430 . S
Eu1 O23 2.670 1_455 S
Eu1 O24 2.394 1_545 S
Eu1 O29 2.355 1_544 S
Eu1 O31 2.374 1_455 S
C2 C0 1.500 . S
C2 C3 1.377 . S
C2 C7 1.377 1_554 S
C3 C2 1.377 . S
C3 C4 1.395 . S
C3 H32 0.931 . S
C4 C3 1.395 . S
C4 C5 1.383 1_554 S
C4 H33 0.931 . S
C5 C4 1.383 1_556 S
C5 C6 1.394 . S
C6 C5 1.394 . S
C6 C7 1.378 . S
C6 H34 0.931 . S
C7 C2 1.377 1_556 S
C7 C6 1.378 . S
C7 H35 0.931 . S
C8 O22 1.259 . S
C8 O23 1.270 1_455 S
C9 O24 1.251 . S
C9 O25 1.251 1_554 S
C10 Eu11 2.835 1_545 S
C10 C12 1.500 . S
C10 O26 1.257 1_556 S
C10 O27 1.260 1_545 S
Eu11 C10 2.835 1_565 S
Eu11 O23 2.355 1_566 S
Eu11 O25 2.374 1_655 S
Eu11 O26 2.473 1_566 S
Eu11 O27 2.480 . S
Eu11 O28 2.430 . S
Eu11 O29 2.670 1_655 S
Eu11 O30 2.394 1_565 S
C12 C10 1.500 . S
C12 C13 1.377 . S
C12 C17 1.377 1_556 S
C13 C12 1.377 . S
C13 C14 1.395 . S
C13 H36 0.931 . S
C14 C13 1.395 . S
C14 C15 1.383 1_556 S
C14 H37 0.931 . S
C15 C14 1.383 1_554 S
C15 C16 1.394 . S
C16 C15 1.394 . S
C16 C17 1.378 . S
C16 H38 0.931 . S
C17 C12 1.377 1_554 S
C17 C16 1.378 . S
C17 H39 0.931 . S
C18 O28 1.259 . S
C18 O29 1.270 1_655 S
C19 O30 1.251 . S
C19 O31 1.251 1_556 S
O20 C0 1.257 1_556 S
O20 Eu1 2.473 1_566 S
O21 C0 1.260 1_545 S
O21 Eu1 2.480 . S
O22 Eu1 2.430 . S
O22 C8 1.259 . S
O23 Eu1 2.670 1_655 S
O23 C8 1.270 1_655 S
O23 Eu11 2.355 1_544 S
O24 Eu1 2.394 1_565 S
O24 C9 1.251 . S
O25 C9 1.251 1_556 S
O25 Eu11 2.374 1_455 S
O26 C10 1.257 1_554 S
O26 Eu11 2.473 1_544 S
O27 C10 1.260 1_565 S
O27 Eu11 2.480 . S
O28 Eu11 2.430 . S
O28 C18 1.259 . S
O29 Eu1 2.355 1_566 S
O29 Eu11 2.670 1_455 S
O29 C18 1.270 1_455 S
O30 Eu11 2.394 1_545 S
O30 C19 1.251 . S
O31 Eu1 2.374 1_655 S
O31 C19 1.251 1_554 S
H32 C3 0.931 . S
H33 C4 0.931 . S
H34 C6 0.931 . S
H35 C7 0.931 . S
H36 C13 0.931 . S
H37 C14 0.931 . S
H38 C16 0.931 . S
H39 C17 0.931 . S
C40 Eu41 2.835 1_455 S
C40 C42 1.500 . S
C40 O60 1.257 . S
C40 O61 1.260 . S
Eu41 C40 2.835 1_655 S
Eu41 O60 2.473 1_655 S
Eu41 O61 2.480 1_655 S
Eu41 O62 2.430 . S
Eu41 O63 2.670 1_545 S
Eu41 O64 2.394 1_655 S
Eu41 O69 2.355 1_655 S
Eu41 O71 2.374 . S
C42 C40 1.500 . S
C42 C43 1.377 . S
C42 C47 1.377 . S
C43 C42 1.377 . S
C43 C44 1.395 . S
C43 H72 0.931 . S
C44 C43 1.395 . S
C44 C45 1.383 . S
C44 H73 0.931 . S
C45 C44 1.383 . S
C45 C46 1.394 . S
C46 C45 1.394 . S
C46 C47 1.378 . S
C46 H74 0.931 . S
C47 C42 1.377 . S
C47 C46 1.378 . S
C47 H75 0.931 . S
C48 O62 1.260 1_455 S
C48 O63 1.270 1_445 S
C49 O64 1.251 1_565 S
C49 O65 1.251 . S
C50 Eu51 2.835 1_655 S
C50 C52 1.500 . S
C50 O66 1.257 . S
C50 O67 1.260 . S
Eu51 C50 2.835 1_455 S
Eu51 O63 2.355 1_455 S
Eu51 O65 2.374 . S
Eu51 O66 2.473 1_455 S
Eu51 O67 2.480 1_455 S
Eu51 O68 2.430 . S
Eu51 O69 2.670 1_565 S
Eu51 O70 2.394 1_455 S
C52 C50 1.500 . S
C52 C53 1.377 . S
C52 C57 1.377 . S
C53 C52 1.377 . S
C53 C54 1.395 . S
C53 H76 0.931 . S
C54 C53 1.395 . S
C54 C55 1.383 . S
C54 H77 0.931 . S
C55 C54 1.383 . S
C55 C56 1.394 . S
C56 C55 1.394 . S
C56 C57 1.378 . S
C56 H78 0.931 . S
C57 C52 1.377 . S
C57 C56 1.378 . S
C57 H79 0.931 . S
C58 O68 1.257 . S
C58 O69 1.272 1_565 S
C59 O70 1.251 1_545 S
C59 O71 1.251 . S
O60 C40 1.257 . S
O60 Eu41 2.473 1_455 S
O61 C40 1.260 . S
O61 Eu41 2.480 1_455 S
O62 Eu41 2.430 . S
O62 C48 1.260 1_655 S
O63 Eu41 2.670 1_565 S
O63 C48 1.270 1_665 S
O63 Eu51 2.355 1_655 S
O64 Eu41 2.394 1_455 S
O64 C49 1.251 1_545 S
O65 C49 1.251 . S
O65 Eu51 2.374 . S
O66 C50 1.257 . S
O66 Eu51 2.473 1_655 S
O67 C50 1.260 . S
O67 Eu51 2.480 1_655 S
O68 Eu51 2.430 . S
O68 C58 1.257 . S
O69 Eu41 2.355 1_455 S
O69 Eu51 2.670 1_545 S
O69 C58 1.272 1_545 S
O70 Eu51 2.394 1_655 S
O70 C59 1.251 1_565 S
O71 Eu41 2.374 . S
O71 C59 1.251 . S
H72 C43 0.931 . S
H73 C44 0.931 . S
H74 C46 0.931 . S
H75 C47 0.931 . S
H76 C53 0.931 . S
H77 C54 0.931 . S
H78 C56 0.931 . S
H79 C57 0.931 . S
C80 Eu81 2.835 . S
C80 C82 1.500 . S
C80 O100 1.257 1_554 S
C80 O101 1.260 . S
Eu81 C80 2.835 . S
Eu81 O100 2.473 1_554 S
Eu81 O101 2.480 . S
Eu81 O102 2.430 . S
Eu81 O103 2.670 . S
Eu81 O104 2.394 . S
Eu81 O109 2.355 1_554 S
Eu81 O111 2.374 . S
C82 C80 1.500 . S
C82 C83 1.377 . S
C82 C87 1.377 1_554 S
C83 C82 1.377 . S
C83 C84 1.395 . S
C83 H112 0.931 . S
C84 C83 1.395 . S
C84 C85 1.383 1_554 S
C84 H113 0.931 . S
C85 C84 1.383 1_556 S
C85 C86 1.394 . S
C86 C85 1.394 . S
C86 C87 1.378 . S
C86 H114 0.931 . S
C87 C82 1.377 1_556 S
C87 C86 1.378 . S
C87 H115 0.931 . S
C88 O102 1.259 . S
C88 O103 1.270 . S
C89 O104 1.251 . S
C89 O105 1.251 1_554 S
C90 Eu91 2.835 . S
C90 C92 1.500 . S
C90 O106 1.257 1_556 S
C90 O107 1.260 . S
Eu91 C90 2.835 . S
Eu91 O103 2.355 1_556 S
Eu91 O105 2.374 . S
Eu91 O106 2.473 1_556 S
Eu91 O107 2.480 . S
Eu91 O108 2.430 . S
Eu91 O109 2.670 . S
Eu91 O110 2.394 . S
C92 C90 1.500 . S
C92 C93 1.377 . S
C92 C97 1.377 1_556 S
C93 C92 1.377 . S
C93 C94 1.395 . S
C93 H116 0.931 . S
C94 C93 1.395 . S
C94 C95 1.383 1_556 S
C94 H117 0.931 . S
C95 C94 1.383 1_554 S
C95 C96 1.394 . S
C96 C95 1.394 . S
C96 C97 1.378 . S
C96 H118 0.931 . S
C97 C92 1.377 1_554 S
C97 C96 1.378 . S
C97 H119 0.931 . S
C98 O108 1.259 . S
C98 O109 1.270 . S
C99 O110 1.251 . S
C99 O111 1.251 1_556 S
O100 C80 1.257 1_556 S
O100 Eu81 2.473 1_556 S
O101 C80 1.260 . S
O101 Eu81 2.480 . S
O102 Eu81 2.430 . S
O102 C88 1.259 . S
O103 Eu81 2.670 . S
O103 C88 1.270 . S
O103 Eu91 2.355 1_554 S
O104 Eu81 2.394 . S
O104 C89 1.251 . S
O105 C89 1.251 1_556 S
O105 Eu91 2.374 . S
O106 C90 1.257 1_554 S
O106 Eu91 2.473 1_554 S
O107 C90 1.260 . S
O107 Eu91 2.480 . S
O108 Eu91 2.430 . S
O108 C98 1.259 . S
O109 Eu81 2.355 1_556 S
O109 Eu91 2.670 . S
O109 C98 1.270 . S
O110 Eu91 2.394 . S
O110 C99 1.251 . S
O111 Eu81 2.374 . S
O111 C99 1.251 1_554 S
H112 C83 0.931 . S
H113 C84 0.931 . S
H114 C86 0.931 . S
H115 C87 0.931 . S
H116 C93 0.931 . S
H117 C94 0.931 . S
H118 C96 0.931 . S
H119 C97 0.931 . S
C120 Eu121 2.835 . S
C120 C122 1.500 . S
C120 O140 1.257 . S
C120 O141 1.260 . S
Eu121 C120 2.835 . S
Eu121 O140 2.473 . S
Eu121 O141 2.480 . S
Eu121 O142 2.430 . S
Eu121 O143 2.670 . S
Eu121 O144 2.394 . S
Eu121 O149 2.355 . S
Eu121 O151 2.374 . S
C122 C120 1.500 . S
C122 C123 1.377 . S
C122 C127 1.377 . S
C123 C122 1.377 . S
C123 C124 1.395 . S
C123 H152 0.931 . S
C124 C123 1.395 . S
C124 C125 1.383 . S
C124 H153 0.931 . S
C125 C124 1.383 . S
C125 C126 1.394 . S
C126 C125 1.394 . S
C126 C127 1.378 . S
C126 H154 0.931 . S
C127 C122 1.377 . S
C127 C126 1.378 . S
C127 H155 0.931 . S
C128 O142 1.259 . S
C128 O143 1.270 . S
C129 O144 1.251 . S
C129 O145 1.251 . S
C130 Eu131 2.835 . S
C130 C132 1.500 . S
C130 O146 1.257 . S
C130 O147 1.260 . S
Eu131 C130 2.835 . S
Eu131 O143 2.355 . S
Eu131 O145 2.374 . S
Eu131 O146 2.473 . S
Eu131 O147 2.480 . S
Eu131 O148 2.430 . S
Eu131 O149 2.670 . S
Eu131 O150 2.394 . S
C132 C130 1.500 . S
C132 C133 1.377 . S
C132 C137 1.377 . S
C133 C132 1.377 . S
C133 C134 1.395 . S
C133 H156 0.931 . S
C134 C133 1.395 . S
C134 C135 1.383 . S
C134 H157 0.931 . S
C135 C134 1.383 . S
C135 C136 1.394 . S
C136 C135 1.394 . S
C136 C137 1.378 . S
C136 H158 0.931 . S
C137 C132 1.377 . S
C137 C136 1.378 . S
C137 H159 0.931 . S
C138 O148 1.259 . S
C138 O149 1.270 . S
C139 O150 1.251 . S
C139 O151 1.251 . S
O140 C120 1.257 . S
O140 Eu121 2.473 . S
O141 C120 1.260 . S
O141 Eu121 2.480 . S
O142 Eu121 2.430 . S
O142 C128 1.259 . S
O143 Eu121 2.670 . S
O143 C128 1.270 . S
O143 Eu131 2.355 . S
O144 Eu121 2.394 . S
O144 C129 1.251 . S
O145 C129 1.251 . S
O145 Eu131 2.374 . S
O146 C130 1.257 . S
O146 Eu131 2.473 . S
O147 C130 1.260 . S
O147 Eu131 2.480 . S
O148 Eu131 2.430 . S
O148 C138 1.259 . S
O149 Eu121 2.355 . S
O149 Eu131 2.670 . S
O149 C138 1.270 . S
O150 Eu131 2.394 . S
O150 C139 1.251 . S
O151 Eu121 2.374 . S
O151 C139 1.251 . S
H152 C123 0.931 . S
H153 C124 0.931 . S
H154 C126 0.931 . S
H155 C127 0.931 . S
H156 C133 0.931 . S
H157 C134 0.931 . S
H158 C136 0.931 . S
H159 C137 0.931 . S
H160 C172 0.930 . S
H161 C174 0.930 . S
H162 C175 0.930 . S
H163 C179 0.959 . S
H164 C179 0.959 . S
H165 C179 0.961 . S
H166 C180 0.960 . S
H167 C180 0.961 . S
H168 C180 0.959 . S
H169 C183 0.929 . S
H170 C184 0.931 . S
H171 C186 0.930 . S
C172 H160 0.930 . S
C172 C173 1.399 1_556 S
C172 C177 1.399 . S
C173 C172 1.399 1_554 S
C173 C174 1.376 . S
C174 H161 0.930 . S
C174 C173 1.376 . S
C174 C175 1.388 . S
C175 H162 0.930 . S
C175 C174 1.388 . S
C175 C176 1.390 . S
C176 C175 1.390 . S
C176 C177 1.394 1_554 S
C176 C182 1.465 . S
C177 C172 1.399 . S
C177 C176 1.394 1_556 S
C177 C178 1.516 . S
C178 C177 1.516 . S
C178 C179 1.502 . S
C178 C180 1.561 . S
C178 C181 1.526 . S
C179 H163 0.959 . S
C179 H164 0.959 . S
C179 H165 0.961 . S
C179 C178 1.502 . S
C180 H166 0.960 . S
C180 H167 0.961 . S
C180 H168 0.959 . S
C180 C178 1.561 . S
C181 C178 1.526 . S
C181 C182 1.396 1_556 S
C181 C186 1.390 . S
C182 C176 1.465 . S
C182 C181 1.396 1_554 S
C182 C183 1.399 . S
C183 H169 0.929 . S
C183 C182 1.399 . S
C183 C184 1.385 . S
C184 H170 0.931 . S
C184 C183 1.385 . S
C184 C185 1.389 . S
C185 C184 1.389 . S
C185 C186 1.387 1_554 S
C186 H171 0.930 . S
C186 C181 1.390 . S
C186 C185 1.387 1_556 S
H187 C199 0.930 . S
H188 C201 0.930 . S
H189 C202 0.930 . S
H190 C206 0.959 . S
H191 C206 0.959 . S
H192 C206 0.961 . S
H193 C207 0.960 . S
H194 C207 0.961 . S
H195 C207 0.959 . S
H196 C210 0.929 . S
H197 C211 0.931 . S
H198 C213 0.930 . S
C199 H187 0.930 . S
C199 C200 1.399 1_556 S
C199 C204 1.399 . S
C200 C199 1.399 1_554 S
C200 C201 1.376 . S
C201 H188 0.930 . S
C201 C200 1.376 . S
C201 C202 1.388 . S
C202 H189 0.930 . S
C202 C201 1.388 . S
C202 C203 1.390 . S
C203 C202 1.390 . S
C203 C204 1.394 1_554 S
C203 C209 1.465 . S
C204 C199 1.399 . S
C204 C203 1.394 1_556 S
C204 C205 1.516 . S
C205 C204 1.516 . S
C205 C206 1.502 . S
C205 C207 1.561 . S
C205 C208 1.526 . S
C206 H190 0.959 . S
C206 H191 0.959 . S
C206 H192 0.961 . S
C206 C205 1.502 . S
C207 H193 0.960 . S
C207 H194 0.961 . S
C207 H195 0.959 . S
C207 C205 1.561 . S
C208 C205 1.526 . S
C208 C209 1.396 1_556 S
C208 C213 1.390 . S
C209 C203 1.465 . S
C209 C208 1.396 1_554 S
C209 C210 1.399 . S
C210 H196 0.929 . S
C210 C209 1.399 . S
C210 C211 1.385 . S
C211 H197 0.931 . S
C211 C210 1.385 . S
C211 C212 1.389 . S
C212 C211 1.389 . S
C212 C213 1.387 1_554 S
C213 H198 0.930 . S
C213 C208 1.390 . S
C213 C212 1.387 1_556 S
H214 C226 0.930 . S
H215 C228 0.930 . S
H216 C229 0.930 . S
H217 C233 0.959 . S
H218 C233 0.959 . S
H219 C233 0.961 . S
H220 C234 0.960 . S
H221 C234 0.961 . S
H222 C234 0.959 . S
H223 C237 0.929 . S
H224 C238 0.931 . S
H225 C240 0.930 . S
C226 H214 0.930 . S
C226 C227 1.399 . S
C226 C231 1.399 . S
C227 C226 1.399 . S
C227 C228 1.376 . S
C228 H215 0.930 . S
C228 C227 1.376 . S
C228 C229 1.388 . S
C229 H216 0.930 . S
C229 C228 1.388 . S
C229 C230 1.390 . S
C230 C229 1.390 . S
C230 C231 1.394 . S
C230 C236 1.465 . S
C231 C226 1.399 . S
C231 C230 1.394 . S
C231 C232 1.516 . S
C232 C231 1.516 . S
C232 C233 1.502 . S
C232 C234 1.561 . S
C232 C235 1.526 . S
C233 H217 0.959 . S
C233 H218 0.959 . S
C233 H219 0.961 . S
C233 C232 1.502 . S
C234 H220 0.960 . S
C234 H221 0.961 . S
C234 H222 0.959 . S
C234 C232 1.561 . S
C235 C232 1.526 . S
C235 C236 1.396 . S
C235 C240 1.390 . S
C236 C230 1.465 . S
C236 C235 1.396 . S
C236 C237 1.399 . S
C237 H223 0.929 . S
C237 C236 1.399 . S
C237 C238 1.385 . S
C238 H224 0.931 . S
C238 C237 1.385 . S
C238 C239 1.389 . S
C239 C238 1.389 . S
C239 C240 1.387 . S
C240 H225 0.930 . S
C240 C235 1.390 . S
C240 C239 1.387 . S
H241 C253 0.930 . S
H242 C255 0.930 . S
H243 C256 0.930 . S
H244 C260 0.959 . S
H245 C260 0.959 . S
H246 C260 0.961 . S
H247 C261 0.960 . S
H248 C261 0.961 . S
H249 C261 0.959 . S
H250 C264 0.929 . S
H251 C265 0.931 . S
H252 C267 0.930 . S
C253 H241 0.930 . S
C253 C254 1.399 . S
C253 C258 1.399 . S
C254 C253 1.399 . S
C254 C255 1.376 . S
C255 H242 0.930 . S
C255 C254 1.376 . S
C255 C256 1.388 . S
C256 H243 0.930 . S
C256 C255 1.388 . S
C256 C257 1.390 . S
C257 C256 1.390 . S
C257 C258 1.394 . S
C257 C263 1.465 . S
C258 C253 1.399 . S
C258 C257 1.394 . S
C258 C259 1.516 . S
C259 C258 1.516 . S
C259 C260 1.502 . S
C259 C261 1.561 . S
C259 C262 1.526 . S
C260 H244 0.959 . S
C260 H245 0.959 . S
C260 H246 0.961 . S
C260 C259 1.502 . S
C261 H247 0.960 . S
C261 H248 0.961 . S
C261 H249 0.959 . S
C261 C259 1.561 . S
C262 C259 1.526 . S
C262 C263 1.396 . S
C262 C267 1.390 . S
C263 C257 1.465 . S
C263 C262 1.396 . S
C263 C264 1.399 . S
C264 H250 0.929 . S
C264 C263 1.399 . S
C264 C265 1.385 . S
C265 H251 0.931 . S
C265 C264 1.385 . S
C265 C266 1.389 . S
C266 C265 1.389 . S
C266 C267 1.387 . S
C267 H252 0.930 . S
C267 C262 1.390 . S
C267 C266 1.387 . S
H268 C280 0.930 . S
H269 C282 0.930 . S
H270 C283 0.930 . S
H271 C287 0.959 . S
H272 C287 0.959 . S
H273 C287 0.961 . S
H274 C288 0.960 . S
H275 C288 0.961 . S
H276 C288 0.959 . S
H277 C291 0.929 . S
H278 C292 0.931 . S
H279 C294 0.930 . S
C280 H268 0.930 . S
C280 C281 1.399 . S
C280 C285 1.399 . S
C281 C280 1.399 . S
C281 C282 1.376 1_556 S
C282 H269 0.930 . S
C282 C281 1.376 1_554 S
C282 C283 1.388 . S
C283 H270 0.930 . S
C283 C282 1.388 . S
C283 C284 1.390 . S
C284 C283 1.390 . S
C284 C285 1.394 1_554 S
C284 C290 1.465 1_565 S
C285 C280 1.399 . S
C285 C284 1.394 1_556 S
C285 C286 1.516 . S
C286 C285 1.516 . S
C286 C287 1.502 . S
C286 C288 1.561 1_565 S
C286 C289 1.526 1_565 S
C287 H271 0.959 . S
C287 H272 0.959 . S
C287 H273 0.961 . S
C287 C286 1.502 . S
C288 H274 0.960 . S
C288 H275 0.961 . S
C288 H276 0.959 . S
C288 C286 1.561 1_545 S
C289 C286 1.526 1_545 S
C289 C290 1.396 1_556 S
C289 C294 1.390 . S
C290 C284 1.465 1_545 S
C290 C289 1.396 1_554 S
C290 C291 1.399 . S
C291 H277 0.929 . S
C291 C290 1.399 . S
C291 C292 1.385 . S
C292 H278 0.931 . S
C292 C291 1.385 . S
C292 C293 1.389 . S
C293 C292 1.389 . S
C293 C294 1.387 1_554 S
C294 H279 0.930 . S
C294 C289 1.390 . S
C294 C293 1.387 1_556 S
H295 C307 0.930 . S
H296 C309 0.930 . S
H297 C310 0.930 . S
H298 C314 0.959 . S
H299 C314 0.959 . S
H300 C314 0.961 . S
H301 C315 0.960 1_565 S
H302 C315 0.961 1_565 S
H303 C315 0.959 . S
H304 C318 0.929 . S
H305 C319 0.931 . S
H306 C321 0.930 . S
C307 H295 0.930 . S
C307 C308 1.399 1_565 S
C307 C312 1.399 . S
C308 C307 1.399 1_545 S
C308 C309 1.376 . S
C309 H296 0.930 . S
C309 C308 1.376 . S
C309 C310 1.388 . S
C310 H297 0.930 . S
C310 C309 1.388 . S
C310 C311 1.390 . S
C311 C310 1.390 . S
C311 C312 1.394 1_545 S
C311 C317 1.465 . S
C312 C307 1.399 . S
C312 C311 1.394 1_565 S
C312 C313 1.516 . S
C313 C312 1.516 . S
C313 C314 1.502 . S
C313 C315 1.561 1_565 S
C313 C316 1.526 . S
C314 H298 0.959 . S
C314 H299 0.959 . S
C314 H300 0.961 . S
C314 C313 1.502 . S
C315 H301 0.960 1_545 S
C315 H302 0.961 1_545 S
C315 H303 0.959 . S
C315 C313 1.561 1_545 S
C316 C313 1.526 . S
C316 C317 1.396 1_565 S
C316 C321 1.390 . S
C317 C311 1.465 . S
C317 C316 1.396 1_545 S
C317 C318 1.399 . S
C318 H304 0.929 . S
C318 C317 1.399 . S
C318 C319 1.385 . S
C319 H305 0.931 . S
C319 C318 1.385 . S
C319 C320 1.389 . S
C320 C319 1.389 . S
C320 C321 1.387 1_545 S
C321 H306 0.930 . S
C321 C316 1.390 . S
C321 C320 1.387 1_565 S
H322 C334 0.930 . S
H323 C336 0.930 . S
H324 C337 0.930 . S
H325 C341 0.959 . S
H326 C341 0.959 . S
H327 C341 0.961 . S
H328 C342 0.960 1_655 S
H329 C342 0.961 . S
H330 C342 0.959 1_655 S
H331 C345 0.929 1_655 S
H332 C346 0.931 . S
H333 C348 0.930 . S
C334 H322 0.930 . S
C334 C335 1.399 . S
C334 C339 1.399 . S
C335 C334 1.399 . S
C335 C336 1.376 1_556 S
C336 H323 0.930 . S
C336 C335 1.376 1_554 S
C336 C337 1.388 . S
C337 H324 0.930 . S
C337 C336 1.388 . S
C337 C338 1.390 . S
C338 C337 1.390 . S
C338 C339 1.394 1_554 S
C338 C344 1.465 1_655 S
C339 C334 1.399 . S
C339 C338 1.394 1_556 S
C339 C340 1.516 1_655 S
C340 C339 1.516 1_455 S
C340 C341 1.502 . S
C340 C342 1.561 . S
C340 C343 1.526 . S
C341 H325 0.959 . S
C341 H326 0.959 . S
C341 H327 0.961 . S
C341 C340 1.502 . S
C342 H328 0.960 1_455 S
C342 H329 0.961 . S
C342 H330 0.959 1_455 S
C342 C340 1.561 . S
C343 C340 1.526 . S
C343 C344 1.396 1_556 S
C343 C348 1.390 . S
C344 C338 1.465 1_455 S
C344 C343 1.396 1_554 S
C344 C345 1.399 . S
C345 H331 0.929 1_455 S
C345 C344 1.399 . S
C345 C346 1.385 . S
C346 H332 0.931 . S
C346 C345 1.385 . S
C346 C347 1.389 . S
C347 C346 1.389 . S
C347 C348 1.387 1_554 S
C348 H333 0.930 . S
C348 C343 1.390 . S
C348 C347 1.387 1_556 S
H349 C361 0.930 . S
H350 C363 0.930 . S
H351 C364 0.930 . S
H352 C368 0.959 . S
H353 C368 0.959 . S
H354 C368 0.961 1_455 S
H355 C369 0.960 . S
H356 C369 0.961 1_655 S
H357 C369 0.959 . S
H358 C372 0.929 . S
H359 C373 0.931 . S
H360 C375 0.930 . S
C361 H349 0.930 . S
C361 C362 1.399 . S
C361 C366 1.399 . S
C362 C361 1.399 . S
C362 C363 1.376 . S
C363 H350 0.930 . S
C363 C362 1.376 . S
C363 C364 1.388 . S
C364 H351 0.930 . S
C364 C363 1.388 . S
C364 C365 1.390 . S
C365 C364 1.390 . S
C365 C366 1.394 . S
C365 C371 1.465 1_455 S
C366 C361 1.399 . S
C366 C365 1.394 . S
C366 C367 1.516 1_455 S
C367 C366 1.516 1_655 S
C367 C368 1.502 . S
C367 C369 1.561 1_655 S
C367 C370 1.526 . S
C368 H352 0.959 . S
C368 H353 0.959 . S
C368 H354 0.961 1_655 S
C368 C367 1.502 . S
C369 H355 0.960 . S
C369 H356 0.961 1_455 S
C369 H357 0.959 . S
C369 C367 1.561 1_455 S
C370 C367 1.526 . S
C370 C371 1.396 . S
C370 C375 1.390 . S
C371 C365 1.465 1_655 S
C371 C370 1.396 . S
C371 C372 1.399 . S
C372 H358 0.929 . S
C372 C371 1.399 . S
C372 C373 1.385 . S
C373 H359 0.931 . S
C373 C372 1.385 . S
C373 C374 1.389 . S
C374 C373 1.389 . S
C374 C375 1.387 . S
C375 H360 0.930 . S
C375 C370 1.390 . S
C375 C374 1.387 . S
H376 C388 0.930 . S
H377 C390 0.930 . S
H378 C391 0.930 . S
H379 C395 0.959 . S
H380 C395 0.959 . S
H381 C395 0.961 . S
H382 C396 0.960 1_455 S
H383 C396 0.961 1_455 S
H384 C396 0.959 . S
H385 C399 0.929 . S
H386 C400 0.931 . S
H387 C402 0.930 . S
C388 H376 0.930 . S
C388 C389 1.399 1_465 S
C388 C393 1.399 . S
C389 C388 1.399 1_645 S
C389 C390 1.376 . S
C390 H377 0.930 . S
C390 C389 1.376 . S
C390 C391 1.388 . S
C391 H378 0.930 . S
C391 C390 1.388 . S
C391 C392 1.390 . S
C392 C391 1.390 . S
C392 C393 1.394 1_645 S
C392 C398 1.465 . S
C393 C388 1.399 . S
C393 C392 1.394 1_465 S
C393 C394 1.516 . S
C394 C393 1.516 . S
C394 C395 1.502 . S
C394 C396 1.561 1_455 S
C394 C397 1.526 . S
C395 H379 0.959 . S
C395 H380 0.959 . S
C395 H381 0.961 . S
C395 C394 1.502 . S
C396 H382 0.960 1_655 S
C396 H383 0.961 1_655 S
C396 H384 0.959 . S
C396 C394 1.561 1_655 S
C397 C394 1.526 . S
C397 C398 1.396 1_465 S
C397 C402 1.390 . S
C398 C392 1.465 . S
C398 C397 1.396 1_645 S
C398 C399 1.399 . S
C399 H385 0.929 . S
C399 C398 1.399 . S
C399 C400 1.385 . S
C400 H386 0.931 . S
C400 C399 1.385 . S
C400 C401 1.389 . S
C401 C400 1.389 . S
C401 C402 1.387 1_645 S
C402 H387 0.930 . S
C402 C397 1.390 . S
C402 C401 1.387 1_465 S
H403 C415 0.930 . S
H404 C417 0.930 . S
H405 C418 0.930 . S
H406 C422 0.959 . S
H407 C422 0.959 . S
H408 C422 0.961 . S
H409 C423 0.960 . S
H410 C423 0.961 1_655 S
H411 C423 0.959 . S
H412 C426 0.929 . S
H413 C427 0.931 . S
H414 C429 0.930 . S
C415 H403 0.930 . S
C415 C416 1.399 1_645 S
C415 C420 1.399 . S
C416 C415 1.399 1_465 S
C416 C417 1.376 . S
C417 H404 0.930 . S
C417 C416 1.376 . S
C417 C418 1.388 . S
C418 H405 0.930 . S
C418 C417 1.388 . S
C418 C419 1.390 . S
C419 C418 1.390 . S
C419 C420 1.394 1_465 S
C419 C425 1.465 . S
C420 C415 1.399 . S
C420 C419 1.394 1_645 S
C420 C421 1.516 . S
C421 C420 1.516 . S
C421 C422 1.502 . S
C421 C423 1.561 1_655 S
C421 C424 1.526 . S
C422 H406 0.959 . S
C422 H407 0.959 . S
C422 H408 0.961 . S
C422 C421 1.502 . S
C423 H409 0.960 . S
C423 H410 0.961 1_455 S
C423 H411 0.959 . S
C423 C421 1.561 1_455 S
C424 C421 1.526 . S
C424 C425 1.396 1_645 S
C424 C429 1.390 . S
C425 C419 1.465 . S
C425 C424 1.396 1_465 S
C425 C426 1.399 . S
C426 H412 0.929 . S
C426 C425 1.399 . S
C426 C427 1.385 . S
C427 H413 0.931 . S
C427 C426 1.385 . S
C427 C428 1.389 . S
C428 C427 1.389 . S
C428 C429 1.387 1_465 S
C429 H414 0.930 . S
C429 C424 1.390 . S
C429 C428 1.387 1_645 S
H430 C442 0.930 . S
H431 C444 0.930 . S
H432 C445 0.930 . S
H433 C449 0.959 . S
H434 C449 0.959 . S
H435 C449 0.961 . S
H436 C450 0.960 . S
H437 C450 0.961 . S
H438 C450 0.959 . S
H439 C453 0.929 . S
H440 C454 0.931 . S
H441 C456 0.930 . S
C442 H430 0.930 . S
C442 C443 1.399 . S
C442 C447 1.399 . S
C443 C442 1.399 . S
C443 C444 1.376 . S
C444 H431 0.930 . S
C444 C443 1.376 . S
C444 C445 1.388 . S
C445 H432 0.930 . S
C445 C444 1.388 . S
C445 C446 1.390 . S
C446 C445 1.390 . S
C446 C447 1.394 . S
C446 C452 1.465 . S
C447 C442 1.399 . S
C447 C446 1.394 . S
C447 C448 1.516 . S
C448 C447 1.516 . S
C448 C449 1.502 . S
C448 C450 1.561 . S
C448 C451 1.526 . S
C449 H433 0.959 . S
C449 H434 0.959 . S
C449 H435 0.961 . S
C449 C448 1.502 . S
C450 H436 0.960 . S
C450 H437 0.961 . S
C450 H438 0.959 . S
C450 C448 1.561 . S
C451 C448 1.526 . S
C451 C452 1.396 . S
C451 C456 1.390 . S
C452 C446 1.465 . S
C452 C451 1.396 . S
C452 C453 1.399 . S
C453 H439 0.929 . S
C453 C452 1.399 . S
C453 C454 1.385 . S
C454 H440 0.931 . S
C454 C453 1.385 . S
C454 C455 1.389 . S
C455 C454 1.389 . S
C455 C456 1.387 . S
C456 H441 0.930 . S
C456 C451 1.390 . S
C456 C455 1.387 . S
H457 C469 0.930 . S
H458 C471 0.930 . S
H459 C472 0.930 . S
H460 C476 0.959 . S
H461 C476 0.959 . S
H462 C476 0.961 . S
H463 C477 0.960 . S
H464 C477 0.961 . S
H465 C477 0.959 . S
H466 C480 0.929 . S
H467 C481 0.931 . S
H468 C483 0.930 . S
C469 H457 0.930 . S
C469 C470 1.399 . S
C469 C474 1.399 . S
C470 C469 1.399 . S
C470 C471 1.376 . S
C471 H458 0.930 . S
C471 C470 1.376 . S
C471 C472 1.388 . S
C472 H459 0.930 . S
C472 C471 1.388 . S
C472 C473 1.390 . S
C473 C472 1.390 . S
C473 C474 1.394 . S
C473 C479 1.465 . S
C474 C469 1.399 . S
C474 C473 1.394 . S
C474 C475 1.516 . S
C475 C474 1.516 . S
C475 C476 1.502 . S
C475 C477 1.561 . S
C475 C478 1.526 . S
C476 H460 0.959 . S
C476 H461 0.959 . S
C476 H462 0.961 . S
C476 C475 1.502 . S
C477 H463 0.960 . S
C477 H464 0.961 . S
C477 H465 0.959 . S
C477 C475 1.561 . S
C478 C475 1.526 . S
C478 C479 1.396 . S
C478 C483 1.390 . S
C479 C473 1.465 . S
C479 C478 1.396 . S
C479 C480 1.399 . S
C480 H466 0.929 . S
C480 C479 1.399 . S
C480 C481 1.385 . S
C481 H467 0.931 . S
C481 C480 1.385 . S
C481 C482 1.389 . S
C482 C481 1.389 . S
C482 C483 1.387 . S
C483 H468 0.930 . S
C483 C478 1.390 . S
C483 C482 1.387 . S
C173 C99 3.579 1_554 S
C185 C9 3.557 . S
C200 C89 3.570 . S
C212 C19 3.570 1_554 S
C227 C45 0.234 . S
C239 C135 0.305 . S
C254 C55 0.379 . S
C266 C125 0.168 . S
C281 C5 0.954 . S
C293 C15 1.065 . S
C308 C49 4.806 1_545 S
C320 C59 4.810 . S
C335 C85 0.940 . S
C347 C95 1.083 . S
C362 C139 4.810 . S
C374 C129 4.805 . S
C389 C58 1.474 1_645 S
C401 C8 1.439 1_655 S
C416 C18 1.450 1_455 S
C428 C48 1.479 1_565 S
C443 C138 1.408 . S
C455 C88 1.452 . S
C470 C128 1.459 . S
C482 C98 1.409 . S
