# Generated by pormake.
# Topology qtz-e, (6)-cn, num edge types: 1
# Building blocks:
#     Node 0, Type 0, BuildingBlock: BETDAH_clean_sbu_0, # of connection points: 6
#     Node 1, Type 0, BuildingBlock: BETDAH_clean_sbu_0, # of connection points: 6
#     Node 2, Type 0, BuildingBlock: BETDAH_clean_sbu_0, # of connection points: 6
#     Node 3, Type 0, BuildingBlock: BETDAH_clean_sbu_0, # of connection points: 6
#     Node 4, Type 0, BuildingBlock: BETDAH_clean_sbu_0, # of connection points: 6
#     Node 5, Type 0, BuildingBlock: BETDAH_clean_sbu_0, # of connection points: 6
#     Edge 6, Type (0, 0), BuildingBlock: XUDNAN_clean_linker_2, # of connection points: 2
#     Edge 7, Type (0, 0), BuildingBlock: XUDNAN_clean_linker_2, # of connection points: 2
#     Edge 8, Type (0, 0), BuildingBlock: XUDNAN_clean_linker_2, # of connection points: 2
#     Edge 9, Type (0, 0), BuildingBlock: XUDNAN_clean_linker_2, # of connection points: 2
#     Edge 10, Type (0, 0), BuildingBlock: XUDNAN_clean_linker_2, # of connection points: 2
#     Edge 11, Type (0, 0), BuildingBlock: XUDNAN_clean_linker_2, # of connection points: 2
#     Edge 12, Type (0, 0), BuildingBlock: XUDNAN_clean_linker_2, # of connection points: 2
#     Edge 13, Type (0, 0), BuildingBlock: XUDNAN_clean_linker_2, # of connection points: 2
#     Edge 14, Type (0, 0), BuildingBlock: XUDNAN_clean_linker_2, # of connection points: 2
#     Edge 15, Type (0, 0), BuildingBlock: XUDNAN_clean_linker_2, # of connection points: 2
#     Edge 16, Type (0, 0), BuildingBlock: XUDNAN_clean_linker_2, # of connection points: 2
#     Edge 17, Type (0, 0), BuildingBlock: XUDNAN_clean_linker_2, # of connection points: 2
#     Edge 18, Type (0, 0), BuildingBlock: XUDNAN_clean_linker_2, # of connection points: 2
#     Edge 19, Type (0, 0), BuildingBlock: XUDNAN_clean_linker_2, # of connection points: 2
#     Edge 20, Type (0, 0), BuildingBlock: XUDNAN_clean_linker_2, # of connection points: 2
#     Edge 21, Type (0, 0), BuildingBlock: XUDNAN_clean_linker_2, # of connection points: 2
#     Edge 22, Type (0, 0), BuildingBlock: XUDNAN_clean_linker_2, # of connection points: 2
#     Edge 23, Type (0, 0), BuildingBlock: XUDNAN_clean_linker_2, # of connection points: 2
# Relax obj value: 0.096
# Max RMSD: 0.179
# Mean RMSD: 0.179
data_MOF--net-qtz-e--node1-BETDAH_clean_sbu_0--edge1-XUDNAN_clean_linker_2
_symmetry_space_group_name_H-M    P1
_symmetry_Int_Tables_number       1
_symmetry_cell_setting            triclinic
loop_
_symmetry_equiv_pos_as_xyz
'x, y, z'
_cell_length_a     25.585909
_cell_length_b     25.628174
_cell_length_c     51.648806
_cell_angle_alpha  89.934344
_cell_angle_beta   90.234211
_cell_angle_gamma 119.80647
loop_
_atom_site_label
_atom_site_type_symbol
_atom_site_fract_x
_atom_site_fract_y
_atom_site_fract_z
_atom_type_partial_charge
Ho0 Ho 0.18937 0.4903 0.05957 0.0
Ho1 Ho 0.19472 0.37433 0.04984 0.0
C2 C 0.17685 0.40126 0.10826 0.0
C3 C 0.1643 0.56941 0.07713 0.0
C4 C 0.16786 0.59086 0.10382 0.0
C5 C 0.12554 0.60609 0.11273 0.0
C6 C 0.12408 0.619 0.13895 0.0
C7 C 0.16549 0.61751 0.15652 0.0
C8 C 0.20897 0.60398 0.14736 0.0
C9 C 0.20985 0.59032 0.12127 0.0
C10 C 0.30088 0.50597 0.05754 0.0
C11 C 0.20037 0.46195 1.00192 0.0
C12 C 0.22357 0.29808 0.03094 0.0
C13 C 0.24011 0.28515 1.00509 0.0
C14 C 0.27468 0.33097 0.98726 0.0
C15 C 0.28674 0.31693 0.96243 0.0
C16 C 0.26438 0.25663 0.95475 0.0
C17 C 0.23228 0.21134 0.97331 0.0
C18 C 0.22001 0.22539 0.99795 0.0
C19 C 0.08424 0.36232 0.05205 0.0
O20 O 0.17148 0.44654 0.09891 0.0
O21 O 0.19123 0.36785 0.0935 0.0
O22 O 0.21568 0.58357 0.06619 0.0
O23 O 0.12374 0.51319 0.07337 0.0
O24 O 0.2864 0.54473 0.04912 0.0
O25 O 0.25613 0.4618 0.06793 0.0
O26 O 0.2172 0.42418 1.0112 0.0
O27 O 0.17744 0.48682 1.01703 0.0
O28 O 0.16795 0.28635 0.03361 0.0
O29 O 0.26207 0.34859 0.04215 0.0
O30 O 0.09655 0.3232 0.06214 0.0
O31 O 0.13015 0.40362 0.0414 0.0
H32 H 0.09286 0.60667 0.09954 0.0
H33 H 0.09031 0.62966 0.14553 0.0
H34 H 0.24083 0.60171 0.16054 0.0
H35 H 0.24234 0.5777 0.11488 0.0
H36 H 0.29178 0.37764 0.9924 0.0
H37 H 0.31234 0.35341 0.94914 0.0
H38 H 0.21622 0.16451 0.96891 0.0
H39 H 0.19419 0.18923 1.01144 0.0
Ho40 Ho 0.69787 0.17808 0.39771 0.0
Ho41 Ho 0.81517 0.18522 0.3799 0.0
C42 C 0.7847 0.1585 0.43934 0.0
C43 C 0.59623 0.15046 0.41932 0.0
C44 C 0.5829 0.16684 0.44468 0.0
C45 C 0.52369 0.13971 0.45391 0.0
C46 C 0.51167 0.15632 0.47805 0.0
C47 C 0.5588 0.20044 0.4932 0.0
C48 C 0.61816 0.22656 0.48394 0.0
C49 C 0.63008 0.20986 0.45995 0.0
C50 C 0.79142 0.2907 0.39613 0.0
C51 C 0.7278 0.20135 0.33895 0.0
C52 C 0.91484 0.21081 0.35646 0.0
C53 C 0.94552 0.23701 0.33146 0.0
C54 C 0.00619 0.28241 0.33169 0.0
C55 C 0.03727 0.30643 0.30851 0.0
C56 C 0.00854 0.28574 0.28432 0.0
C57 C 0.94764 0.24007 0.28413 0.0
C58 C 0.9164 0.21613 0.30739 0.0
C59 C 0.71645 0.07464 0.38191 0.0
O60 O 0.73112 0.15161 0.43342 0.0
O61 O 0.82912 0.1786 0.42233 0.0
O62 O 0.62371 0.19497 0.40305 0.0
O63 O 0.62048 0.11615 0.42009 0.0
O64 O 0.73605 0.27641 0.39212 0.0
O65 O 0.79457 0.24513 0.40328 0.0
O66 O 0.78402 0.2196 0.34617 0.0
O67 O 0.68248 0.17173 0.35505 0.0
O68 O 0.86632 0.15785 0.35575 0.0
O69 O 0.9101 0.24716 0.37281 0.0
O70 O 0.76886 0.08546 0.3902 0.0
O71 O 0.71983 0.12208 0.37367 0.0
H72 H 0.48683 0.10605 0.4424 0.0
H73 H 0.46547 0.1355 0.48464 0.0
H74 H 0.65558 0.25971 0.49535 0.0
H75 H 0.67622 0.2307 0.45324 0.0
H76 H 0.02991 0.29903 0.34991 0.0
H77 H 0.08431 0.3407 0.30962 0.0
H78 H 0.92393 0.22323 0.26598 0.0
H79 H 0.86958 0.18115 0.3065 0.0
Ho80 Ho 0.50008 0.71342 0.72953 0.0
Ho81 Ho 0.62541 0.80898 0.71085 0.0
C82 C 0.61308 0.77595 0.77097 0.0
C83 C 0.40631 0.61951 0.74745 0.0
C84 C 0.37744 0.59714 0.77265 0.0
C85 C 0.41086 0.59942 0.79471 0.0
C86 C 0.38243 0.58072 0.81868 0.0
C87 C 0.32047 0.56013 0.82092 0.0
C88 C 0.28706 0.5566 0.79871 0.0
C89 C 0.31533 0.57477 0.77475 0.0
C90 C 0.51762 0.82572 0.72794 0.0
C91 C 0.51401 0.74576 0.67021 0.0
C92 C 0.71631 0.89741 0.68783 0.0
C93 C 0.72856 0.92716 0.66222 0.0
C94 C 0.7757 0.98657 0.65977 0.0
C95 C 0.7893 0.01539 0.63567 0.0
C96 C 0.75603 0.98543 0.61337 0.0
C97 C 0.70814 0.92599 0.61597 0.0
C98 C 0.69449 0.89715 0.64015 0.0
C99 C 0.60162 0.69395 0.7127 0.0
O100 O 0.55835 0.73036 0.76561 0.0
O101 O 0.64561 0.8173 0.75342 0.0
O102 O 0.40496 0.66653 0.73849 0.0
O103 O 0.45828 0.62261 0.74389 0.0
O104 O 0.46629 0.77801 0.72349 0.0
O105 O 0.55616 0.81158 0.73499 0.0
O106 O 0.56316 0.79628 0.67685 0.0
O107 O 0.4872 0.70102 0.68681 0.0
O108 O 0.70688 0.84236 0.68827 0.0
O109 O 0.67932 0.90448 0.70289 0.0
O110 O 0.65236 0.73863 0.72069 0.0
O111 O 0.56815 0.71309 0.70473 0.0
H112 H 0.45897 0.61666 0.79356 0.0
H113 H 0.40924 0.58433 0.83559 0.0
H114 H 0.23913 0.54033 0.79993 0.0
H115 H 0.28884 0.57243 0.7579 0.0
H116 H 0.80234 0.0107 0.67653 0.0
H117 H 0.82585 0.06141 0.63454 0.0
H118 H 0.68217 0.90125 0.5992 0.0
H119 H 0.65784 0.85122 0.64152 0.0
Ho120 Ho 0.7768 0.49959 0.06573 0.0
Ho121 Ho 0.80543 0.62625 0.04885 0.0
C122 C 0.84491 0.61459 0.10616 0.0
C123 C 0.78115 0.40809 0.08403 0.0
C124 C 0.76814 0.38166 0.10995 0.0
C125 C 0.74004 0.40032 0.12802 0.0
C126 C 0.72602 0.37464 0.1526 0.0
C127 C 0.74023 0.33013 0.15957 0.0
C128 C 0.76958 0.31241 0.14156 0.0
C129 C 0.78333 0.33799 0.11683 0.0
C130 C 0.68655 0.52227 0.07347 0.0
C131 C 0.73845 0.5109 1.0096 0.0
C132 C 0.80109 0.71248 0.02434 0.0
C133 C 0.78393 0.72 0.99739 0.0
C134 C 0.72329 0.69295 0.98922 0.0
C135 C 0.70829 0.7027 0.96408 0.0
C136 C 0.75347 0.73995 0.94645 0.0
C137 C 0.81403 0.76525 0.95449 0.0
C138 C 0.82893 0.75578 0.97954 0.0
C139 C 0.89256 0.59687 0.04219 0.0
O140 O 0.83115 0.55946 0.09897 0.0
O141 O 0.83239 0.6494 0.09115 0.0
O142 O 0.73455 0.40372 0.07157 0.0
O143 O 0.82825 0.46186 0.08249 0.0
O144 O 0.67893 0.46937 0.06879 0.0
O145 O 0.74165 0.55986 0.07645 0.0
O146 O 0.74399 0.56261 1.01744 0.0
O147 O 0.76019 0.48287 0.02354 0.0
O148 O 0.85039 0.70941 0.02695 0.0
O149 O 0.75822 0.67469 0.0396 0.0
O150 O 0.90332 0.64901 0.05062 0.0
O151 O 0.83739 0.56492 0.0378 0.0
H152 H 0.72869 0.43461 0.12305 0.0
H153 H 0.7045 0.39 0.16624 0.0
H154 H 0.78095 0.27813 0.14646 0.0
H155 H 0.80539 0.3235 0.10307 0.0
H156 H 0.68721 0.66487 1.00234 0.0
H157 H 0.66121 0.68255 0.95878 0.0
H158 H 0.85038 0.79298 0.94143 0.0
H159 H 0.87603 0.77709 0.98501 0.0
Ho160 Ho 0.27006 0.77345 0.39212 0.0
Ho161 Ho 0.17459 0.81095 0.38245 0.0
C162 C 0.22182 0.8261 0.44005 0.0
C163 C 0.36533 0.7741 0.40906 0.0
C164 C 0.37998 0.76428 0.43561 0.0
C165 C 0.43812 0.80022 0.44581 0.0
C166 C 0.45077 0.79287 0.47158 0.0
C167 C 0.40541 0.74927 0.48741 0.0
C168 C 0.34708 0.71432 0.4772 0.0
C169 C 0.33442 0.72193 0.45165 0.0
C170 C 0.15721 0.68257 0.39638 0.0
C171 C 0.21136 0.74498 0.33798 0.0
C172 C 0.08822 0.81851 0.35951 0.0
C173 C 0.05693 0.79365 0.33423 0.0
C174 C 0.03472 0.73298 0.32766 0.0
C175 C 0.01197 0.7117 0.30277 0.0
C176 C 0.01097 0.75037 0.28352 0.0
C177 C 0.03092 0.81055 0.29045 0.0
C178 C 0.05375 0.83189 0.31545 0.0
C179 C 0.29167 0.89695 0.37887 0.0
O180 O 0.26043 0.81057 0.43058 0.0
O181 O 0.17872 0.82611 0.42557 0.0
O182 O 0.32096 0.7275 0.39758 0.0
O183 O 0.36206 0.8229 0.40592 0.0
O184 O 0.20224 0.67637 0.38912 0.0
O185 O 0.17488 0.73599 0.4036 0.0
O186 O 0.16815 0.74949 0.34984 0.0
O187 O 0.26441 0.76411 0.34903 0.0
O188 O 0.14488 0.85996 0.35783 0.0
O189 O 0.07905 0.78032 0.37826 0.0
O190 O 0.25134 0.90541 0.39027 0.0
O191 O 0.26733 0.84432 0.37024 0.0
H192 H 0.47354 0.83411 0.4339 0.0
H193 H 0.4961 0.82046 0.47898 0.0
H194 H 0.31094 0.68128 0.48908 0.0
H195 H 0.28872 0.69494 0.44454 0.0
H196 H 0.0364 0.7021 0.34153 0.0
H197 H -0.00396 0.66479 0.2985 0.0
H198 H 0.03132 0.84185 0.27625 0.0
H199 H 0.07076 0.87894 0.31987 0.0
Ho200 Ho 0.47163 0.28673 0.72969 0.0
Ho201 Ho 0.35772 0.1703 0.71558 0.0
C202 C 0.37092 0.20858 0.77465 0.0
C203 C 0.54856 0.3894 0.74941 0.0
C204 C 0.5715 0.40613 0.77628 0.0
C205 C 0.54647 0.43088 0.79316 0.0
C206 C 0.56137 0.43812 0.81953 0.0
C207 C 0.60163 0.42076 0.82943 0.0
C208 C 0.62936 0.39951 0.81229 0.0
C209 C 0.61462 0.3924 0.78603 0.0
C210 C 0.48746 0.19105 0.72832 0.0
C211 C 0.45738 0.24772 0.67175 0.0
C212 C 0.28057 0.0715 0.69265 0.0
C213 C 0.2787 0.04347 0.66717 0.0
C214 C 0.32685 0.03627 0.6586 0.0
C215 C 0.32413 0.00986 0.63449 0.0
C216 C 0.27354 0.99048 0.61812 0.0
C217 C 0.22591 -0.00125 0.62657 0.0
C218 C 0.22841 0.02468 0.65082 0.0
C219 C 0.34985 0.27147 0.71618 0.0
O220 O 0.41867 0.25966 0.76732 0.0
O221 O 0.34187 0.16278 0.75843 0.0
O222 O 0.56427 0.35502 0.73689 0.0
O223 O 0.49172 0.37225 0.74599 0.0
O224 O 0.52824 0.24519 0.72235 0.0
O225 O 0.44079 0.19024 0.73695 0.0
O226 O 0.41916 0.19365 0.68083 0.0
O227 O 0.47712 0.29589 0.68661 0.0
O228 O 0.27761 0.12091 0.69186 0.0
O229 O 0.31969 0.07432 0.70984 0.0
O230 O 0.30882 0.22128 0.72617 0.0
O231 O 0.3914 0.26472 0.70716 0.0
H232 H 0.51361 0.44245 0.7862 0.0
H233 H 0.53945 0.45475 0.83231 0.0
H234 H 0.6616 0.38705 0.81933 0.0
H235 H 0.63551 0.37405 0.77359 0.0
H236 H 0.36677 0.05114 0.67048 0.0
H237 H 0.36207 0.00505 0.62859 0.0
H238 H 0.18598 0.98391 0.61472 0.0
H239 H 0.19077 0.02992 0.65686 0.0
H240 H 0.28637 0.76303 0.2965 0.0
H241 H 0.1017 0.65642 0.32277 0.0
H242 H 0.07128 0.60895 0.27988 0.0
H243 H 0.25106 0.79346 0.23433 0.0
H244 H 0.30993 0.7881 0.21761 0.0
H245 H 0.31941 0.80982 0.25119 0.0
H246 H 0.33916 0.72264 0.26268 0.0
H247 H 0.33027 0.70095 0.22906 0.0
H248 H 0.28482 0.64686 0.25331 0.0
H249 H 0.05838 0.57941 0.23366 0.0
H250 H 0.06505 0.5658 0.18667 0.0
H251 H 0.2575 0.6905 0.18952 0.0
C252 C 0.23987 0.72891 0.29325 0.0
C253 C 0.19634 0.71349 0.31286 0.0
C254 C 0.13566 0.66931 0.3079 0.0
C255 C 0.11792 0.64191 0.28363 0.0
C256 C 0.16129 0.65934 0.26442 0.0
C257 C 0.2211 0.70139 0.2689 0.0
C258 C 0.25778 0.71379 0.24436 0.0
C259 C 0.2862 0.78023 0.23641 0.0
C260 C 0.30585 0.69492 0.24755 0.0
C261 C 0.20898 0.67306 0.22544 0.0
C262 C 0.15375 0.64194 0.23749 0.0
C263 C 0.1014 0.60323 0.22396 0.0
C264 C 0.10552 0.59611 0.1973 0.0
C265 C 0.1617 0.62713 0.18455 0.0
C266 C 0.21407 0.66588 0.19887 0.0
H267 H 0.42487 0.15759 0.63599 0.0
H268 H 0.53438 0.35107 0.64572 0.0
H269 H 0.56825 0.36018 0.60038 0.0
H270 H 0.52835 0.13827 0.59702 0.0
H271 H 0.47049 0.08057 0.57711 0.0
H272 H 0.45413 0.09084 0.60996 0.0
H273 H 0.36494 0.10434 0.59322 0.0
H274 H 0.38227 0.09338 0.5606 0.0
H275 H 0.37935 0.1602 0.56889 0.0
H276 H 0.5931 0.34789 0.55469 0.0
H277 H 0.60799 0.31526 0.51177 0.0
H278 H 0.48262 0.12962 0.53188 0.0
C279 C 0.45573 0.202 0.62861 0.0
C280 C 0.47709 0.25368 0.64447 0.0
C281 C 0.5175 0.31085 0.63399 0.0
C282 C 0.53685 0.31649 0.60823 0.0
C283 C 0.51515 0.26459 0.5932 0.0
C284 C 0.47536 0.20845 0.60296 0.0
C285 C 0.46011 0.15962 0.58296 0.0
C286 C 0.47944 0.11468 0.59232 0.0
C287 C 0.39268 0.12749 0.576 0.0
C288 C 0.4984 0.19703 0.56053 0.0
C289 C 0.52946 0.25748 0.56681 0.0
C290 C 0.56893 0.30072 0.54953 0.0
C291 C 0.57736 0.28168 0.52526 0.0
C292 C 0.54667 0.21988 0.51849 0.0
C293 C 0.50617 0.17721 0.53634 0.0
H294 H 0.25716 0.43114 0.96482 0.0
H295 H 0.15749 0.52576 0.97591 0.0
H296 H 0.17197 0.55507 0.93001 0.0
H297 H 0.36769 0.53588 0.92398 0.0
H298 H 0.3719 0.48165 0.90318 0.0
H299 H 0.34856 0.4627 0.9363 0.0
H300 H 0.24714 0.36873 0.92099 0.0
H301 H 0.27438 0.38788 0.88829 0.0
H302 H 0.20231 0.37928 0.89695 0.0
H303 H 0.20168 0.57927 0.88405 0.0
H304 H 0.24715 0.59876 0.84057 0.0
H305 H 0.32907 0.49013 0.85909 0.0
C306 C 0.23765 0.45724 0.95753 0.0
C307 C 0.20633 0.47622 0.97401 0.0
C308 C 0.18189 0.51084 0.96373 0.0
C309 C 0.18959 0.52751 0.93763 0.0
C310 C 0.2215 0.50893 0.92203 0.0
C311 C 0.24491 0.4743 0.93148 0.0
C312 C 0.27997 0.46297 0.91079 0.0
C313 C 0.34593 0.48727 0.91906 0.0
C314 C 0.24917 0.39576 0.90385 0.0
C315 C 0.27484 0.49901 0.88869 0.0
C316 C 0.23976 0.52396 0.89544 0.0
C317 C 0.22878 0.55957 0.87841 0.0
C318 C 0.25459 0.57021 0.85378 0.0
C319 C 0.29134 0.54578 0.84656 0.0
C320 C 0.30134 0.50953 0.86422 0.0
H321 H 0.80451 0.23568 0.29773 0.0
H322 H 0.624 0.19306 0.31988 0.0
H323 H 0.60565 0.21648 0.27549 0.0
H324 H 0.83888 0.35833 0.2578 0.0
H325 H 0.87796 0.3402 0.23361 0.0
H326 H 0.87569 0.31631 0.26655 0.0
H327 H 0.82766 0.20417 0.25185 0.0
H328 H 0.83411 0.22991 0.2189 0.0
H329 H 0.7623 0.17292 0.23119 0.0
H330 H 0.60936 0.25044 0.22969 0.0
H331 H 0.63386 0.29035 0.18515 0.0
H332 H 0.81135 0.30902 0.19286 0.0
C333 C 0.76098 0.23096 0.29323 0.0
C334 C 0.71576 0.21293 0.31225 0.0
C335 C 0.65926 0.20682 0.30557 0.0
C336 C 0.64841 0.21995 0.28043 0.0
C337 C 0.69421 0.23818 0.2622 0.0
C338 C 0.74913 0.24304 0.2682 0.0
C339 C 0.79099 0.2641 0.24515 0.0
C340 C 0.8493 0.32326 0.25115 0.0
C341 C 0.8046 0.21488 0.23623 0.0
C342 C 0.75202 0.27303 0.22557 0.0
C343 C 0.69609 0.25706 0.23569 0.0
C344 C 0.65282 0.26271 0.22149 0.0
C345 C 0.66726 0.28568 0.1963 0.0
C346 C 0.72448 0.30276 0.18564 0.0
C347 C 0.76703 0.29563 0.20042 0.0
H348 H 0.5309 0.83067 0.63322 0.0
H349 H 0.44793 0.63823 0.64609 0.0
H350 H 0.41306 0.61938 0.60083 0.0
H351 H 0.40924 0.81846 0.59118 0.0
H352 H 0.45934 0.87995 0.57068 0.0
H353 H 0.47827 0.87897 0.60425 0.0
H354 H 0.58 0.88885 0.59085 0.0
H355 H 0.561 0.89002 0.55739 0.0
H356 H 0.58106 0.83542 0.56841 0.0
H357 H 0.38885 0.62035 0.55454 0.0
H358 H 0.37224 0.64103 0.50956 0.0
H359 H 0.46752 0.83257 0.52587 0.0
C360 C 0.50539 0.78465 0.62644 0.0
C361 C 0.49224 0.7359 0.64315 0.0
C362 C 0.45827 0.67627 0.6337 0.0
C363 C 0.4384 0.66505 0.60798 0.0
C364 C 0.45209 0.71388 0.592 0.0
C365 C 0.48408 0.77248 0.60083 0.0
C366 C 0.49064 0.81638 0.57962 0.0
C367 C 0.45739 0.85043 0.58687 0.0
C368 C 0.55723 0.86019 0.57372 0.0
C369 C 0.45947 0.7733 0.55728 0.0
C370 C 0.43714 0.7144 0.56504 0.0
C371 C 0.40585 0.66624 0.5482 0.0
C372 C 0.39651 0.67843 0.52273 0.0
C373 C 0.41841 0.73831 0.51426 0.0
C374 C 0.45078 0.7864 0.53176 0.0
H375 H 0.70751 0.56425 0.97055 0.0
H376 H 0.70513 0.39883 0.99156 0.0
H377 H 0.66176 0.35577 0.94902 0.0
H378 H 0.56663 0.49185 0.93205 0.0
H379 H 0.59467 0.55054 0.90808 0.0
H380 H 0.62092 0.56786 0.94108 0.0
H381 H 0.7312 0.61396 0.92591 0.0
H382 H 0.70633 0.59758 0.89278 0.0
H383 H 0.75278 0.56969 0.90628 0.0
H384 H 0.62553 0.33243 0.90399 0.0
H385 H 0.60057 0.33094 0.85779 0.0
H386 H 0.62704 0.51124 0.86466 0.0
C387 C 0.69703 0.51867 0.96632 0.0
C388 C 0.7097 0.48488 0.98442 0.0
C389 C 0.696 0.42567 0.97803 0.0
C390 C 0.67103 0.40062 0.95395 0.0
C391 C 0.65982 0.43522 0.93645 0.0
C392 C 0.67221 0.4929 0.94223 0.0
C393 C 0.65881 0.52134 0.91922 0.0
C394 C 0.60721 0.53364 0.92548 0.0
C395 C 0.71566 0.57904 0.91054 0.0
C396 C 0.63928 0.47138 0.89936 0.0
C397 C 0.63927 0.42183 0.90997 0.0
C398 C 0.62509 0.37078 0.89544 0.0
C399 C 0.61147 0.37056 0.86919 0.0
C400 C 0.61251 0.4212 0.85765 0.0
C401 C 0.62551 0.47183 0.87308 0.0
H402 H 0.34268 0.42953 0.06882 0.0
H403 H 0.4 0.61792 0.05716 0.0
H404 H 0.50558 0.64433 0.06546 0.0
H405 H 0.45278 0.44493 0.11694 0.0
H406 H 0.46371 0.38684 0.10276 0.0
H407 H 0.39204 0.3837 0.09956 0.0
H408 H 0.39776 0.37823 0.04957 0.0
H409 H 0.46901 0.38069 0.05263 0.0
H410 H 0.46287 0.43541 0.03286 0.0
H411 H 0.60503 0.64943 0.0754 0.0
H412 H 0.69161 0.6315 0.07814 0.0
H413 H 0.5685 0.43922 0.076 0.0
C414 C 0.37738 0.47619 0.06793 0.0
C415 C 0.3635 0.52158 0.06229 0.0
C416 C 0.41003 0.58242 0.06143 0.0
C417 C 0.46993 0.59789 0.06631 0.0
C418 C 0.48228 0.5518 0.07152 0.0
C419 C 0.4374 0.49209 0.07179 0.0
C420 C 0.46295 0.45054 0.0747 0.0
C421 C 0.4416 0.41439 0.10001 0.0
C422 C 0.44724 0.40879 0.05103 0.0
C423 C 0.5293 0.49619 0.07579 0.0
C424 C 0.5396 0.55441 0.07472 0.0
C425 C 0.5976 0.60402 0.0758 0.0
C426 C 0.64642 0.59357 0.07709 0.0
C427 C 0.63651 0.53424 0.07618 0.0
C428 C 0.57728 0.48515 0.07625 0.0
H429 H 0.12552 0.56527 0.39365 0.0
H430 H 0.05255 0.68381 0.40658 0.0
H431 H 0.94988 0.59508 0.40933 0.0
H432 H 0.00794 0.45779 0.35461 0.0
H433 H 0.01001 0.39413 0.36831 0.0
H434 H 0.07722 0.46674 0.36786 0.0
H435 H 0.08829 0.46164 0.4176 0.0
H436 H 0.02121 0.38882 0.41818 0.0
H437 H 0.02642 0.44867 0.43831 0.0
H438 H 0.85559 0.49386 0.407 0.0
H439 H 0.77653 0.38738 0.40329 0.0
H440 H 0.91335 0.33555 0.39602 0.0
C441 C 0.088 0.57264 0.39723 0.0
C442 C 0.09641 0.63114 0.39966 0.0
C443 C 0.04656 0.63916 0.40448 0.0
C444 C 0.98837 0.58915 0.40611 0.0
C445 C 0.98161 0.53192 0.40335 0.0
C446 C 0.03021 0.52347 0.39937 0.0
C447 C 0.01121 0.45755 0.3971 0.0
C448 C 0.02756 0.44324 0.37039 0.0
C449 C 0.03839 0.43804 0.41912 0.0
C450 C 0.94396 0.42998 0.40006 0.0
C451 C 0.92775 0.47363 0.40341 0.0
C452 C 0.86781 0.45929 0.4048 0.0
C453 C 0.82333 0.39877 0.40259 0.0
C454 C 0.83917 0.35345 0.39945 0.0
C455 C 0.90019 0.36924 0.39856 0.0
H456 H 0.41009 0.06896 0.72818 0.0
H457 H 0.59864 0.20507 0.73458 0.0
H458 H 0.62656 0.12607 0.73704 0.0
H459 H 0.41504 0.95631 0.76994 0.0
H460 H 0.36435 0.89424 0.74968 0.0
H461 H 0.35849 0.96141 0.75094 0.0
H462 H 0.36931 0.97098 0.70117 0.0
H463 H 0.37634 0.9046 0.69955 0.0
H464 H 0.4342 0.97427 0.68597 0.0
H465 H 0.63445 0.03317 0.73889 0.0
H466 H 0.62194 0.93122 0.7367 0.0
H467 H 0.42986 0.85605 0.72455 0.0
C468 C 0.45699 0.08187 0.73041 0.0
C469 C 0.50211 0.14281 0.73138 0.0
C470 C 0.56333 0.1584 0.73389 0.0
C471 C 0.57969 0.11395 0.73537 0.0
C472 C 0.53431 0.0542 0.73394 0.0
C473 C 0.47427 0.03796 0.7313 0.0
C474 C 0.435 0.97057 0.72843 0.0
C475 C 0.3906 0.94408 0.7511 0.0
C476 C 0.4018 0.95418 0.70222 0.0
C477 C 0.48251 0.9518 0.72966 0.0
C478 C 0.53934 0.00065 0.7333 0.0
C479 C 0.59028 -0.0055 0.73577 0.0
C480 C 0.58289 0.93664 0.73433 0.0
C481 C 0.52531 0.88629 0.72988 0.0
C482 C 0.47458 0.89403 0.72761 0.0
H483 H 0.55077 0.60366 0.67903 0.0
H484 H 0.59069 0.64216 0.76058 0.0
H485 H 0.51169 0.53765 0.77124 0.0
H486 H 0.39641 0.5147 0.68267 0.0
H487 H 0.38931 0.46098 0.65842 0.0
H488 H 0.45102 0.5371 0.65704 0.0
H489 H 0.52995 0.50129 0.65797 0.0
H490 H 0.46842 0.42521 0.65714 0.0
H491 H 0.52422 0.44856 0.68249 0.0
H492 H 0.41657 0.43094 0.77209 0.0
H493 H 0.35033 0.32208 0.76317 0.0
H494 H 0.37822 0.3568 0.68099 0.0
C495 C 0.5445 0.58929 0.69908 0.0
C496 C 0.57639 0.63028 0.71899 0.0
C497 C 0.56705 0.61066 0.74506 0.0
C498 C 0.52143 0.55186 0.75126 0.0
C499 C 0.48678 0.51395 0.73106 0.0
C500 C 0.50031 0.53117 0.70546 0.0
C501 C 0.46029 0.48159 0.68705 0.0
C502 C 0.42201 0.49972 0.67032 0.0
C503 C 0.49793 0.46304 0.6702 0.0
C504 C 0.42176 0.43327 0.70617 0.0
C505 C 0.43566 0.45313 0.7315 0.0
C506 C 0.40619 0.4149 0.75233 0.0
C507 C 0.36759 0.35333 0.74713 0.0
C508 C 0.35977 0.33181 0.72139 0.0
C509 C 0.38332 0.37274 0.70077 0.0
H510 H 0.0095 0.3697 1.01797 0.0
H511 H 0.04916 0.37858 0.09984 0.0
H512 H 0.00189 0.44151 0.10676 0.0
H513 H 0.04417 0.50717 1.00778 0.0
H514 H 0.98382 0.49697 0.98647 0.0
H515 H 0.00536 0.44019 0.98825 0.0
H516 H 0.89733 0.35822 1.00084 0.0
H517 H 0.87389 0.41356 0.99726 0.0
H518 H 0.85951 0.37207 0.02708 0.0
H519 H 0.9837 0.53047 0.10095 0.0
H520 H 0.95386 0.60485 0.08685 0.0
H521 H 0.91108 0.5244 1.01059 0.0
C522 C 0.00453 0.38162 0.03756 0.0
C523 C 0.03292 0.37008 0.05835 0.0
C524 C 0.02702 0.38689 0.08376 0.0
C525 C 0.00078 0.42309 0.08778 0.0
C526 C 0.97929 0.43972 0.06623 0.0
C527 C 0.97712 0.41613 0.0419 0.0
C528 C 0.95373 0.44228 1.02174 0.0
C529 C -0.00047 0.47348 0.99979 0.0
C530 C 0.89246 0.39364 1.01111 0.0
C531 C 0.94728 0.48743 0.03808 0.0
C532 C 0.96345 0.48647 0.06357 0.0
C533 C 0.96853 0.52985 0.08131 0.0
C534 C 0.95228 0.57225 0.07315 0.0
C535 C 0.929 0.56885 0.04797 0.0
C536 C 0.92819 0.52719 0.03008 0.0
H537 H 0.38067 0.92384 0.34503 0.0
H538 H 0.34702 0.94087 0.42583 0.0
H539 H 0.4524 0.96816 0.43664 0.0
H540 H 0.47752 0.86403 0.35224 0.0
H541 H 0.52812 0.90809 0.32669 0.0
H542 H 0.45013 0.88873 0.32537 0.0
H543 H 0.47974 0.00145 0.32203 0.0
H544 H 0.55742 0.02036 0.32158 0.0
H545 H 0.53194 0.05418 0.3453 0.0
H546 H 0.5597 0.98288 0.43835 0.0
H547 H 0.66883 0.02787 0.42941 0.0
H548 H 0.63151 0.00967 0.34718 0.0
C549 C 0.39602 0.93469 0.36491 0.0
C550 C 0.35631 0.93007 0.38464 0.0
C551 C 0.37743 0.94485 0.41045 0.0
C552 C 0.43666 0.95905 0.41679 0.0
C553 C 0.47373 0.95919 0.39696 0.0
C554 C 0.45495 0.95044 0.3714 0.0
C555 C 0.50485 0.95984 0.35322 0.0
C556 C 0.48918 0.9017 0.33852 0.0
C557 C 0.51938 0.01207 0.33445 0.0
C558 C 0.55513 0.97565 0.37246 0.0
C559 C 0.53584 0.97234 0.3977 0.0
C560 C 0.5753 0.98618 0.41865 0.0
C561 C 0.6371 0.0108 0.41345 0.0
C562 C 0.65788 0.02226 0.38762 0.0
C563 C 0.61622 0.0005 0.36706 0.0
H564 H 0.41959 0.29228 0.81451 0.0
H565 H 0.26917 0.11562 0.796 0.0
H566 H 0.22707 0.1101 0.8394 0.0
H567 H 0.43522 0.26058 0.88196 0.0
H568 H 0.45349 0.33436 0.89316 0.0
H569 H 0.47227 0.32443 0.86066 0.0
H570 H 0.41323 0.37441 0.8428 0.0
H571 H 0.39351 0.38376 0.87524 0.0
H572 H 0.33523 0.34419 0.85145 0.0
H573 H 0.19779 0.12517 0.88358 0.0
H574 H 0.18617 0.15579 0.92707 0.0
H575 H 0.35837 0.32066 0.9194 0.0
C576 C 0.37799 0.25217 0.81961 0.0
C577 C 0.34782 0.20421 0.8016 0.0
C578 C 0.29341 0.15285 0.80924 0.0
C579 C 0.26896 0.14936 0.83391 0.0
C580 C 0.29938 0.19744 0.85099 0.0
C581 C 0.35298 0.24774 0.84434 0.0
C582 C 0.37639 0.29291 0.86658 0.0
C583 C 0.43798 0.30367 0.87617 0.0
C584 C 0.37978 0.35233 0.85853 0.0
C585 C 0.32747 0.25989 0.88676 0.0
C586 C 0.2834 0.20522 0.87713 0.0
C587 C 0.23261 0.16736 0.89151 0.0
C588 C 0.2268 0.18514 0.91651 0.0
C589 C 0.27195 0.24014 0.9275 0.0
C590 C 0.32282 0.27822 0.91202 0.0
H591 H 0.00103 0.22913 0.23728 0.0
H592 H 0.09146 0.40391 0.27491 0.0
H593 H 0.14924 0.44899 0.23519 0.0
H594 H 0.12783 0.24661 0.19969 0.0
H595 H 0.08363 0.2095 0.17133 0.0
H596 H 0.04986 0.18949 0.20297 0.0
H597 H 0.96642 0.21244 0.18836 0.0
H598 H -0.00048 0.23182 0.1566 0.0
H599 H 0.98737 0.28496 0.17468 0.0
H600 H 0.19544 0.47667 0.19143 0.0
H601 H 0.22379 0.48607 0.14542 0.0
H602 H 0.10448 0.29471 0.13462 0.0
C603 C 0.0328 0.27693 0.23718 0.0
C604 C 0.04204 0.3126 0.25962 0.0
C605 C 0.08433 0.37503 0.25842 0.0
C606 C 0.11731 0.40126 0.23582 0.0
C607 C 0.10775 0.36477 0.21431 0.0
C608 C 0.06628 0.30406 0.21464 0.0
C609 C 0.0636 0.2757 0.18841 0.0
C610 C 0.08235 0.22746 0.19075 0.0
C611 C 0.00048 0.2497 0.1763 0.0
C612 C 0.11004 0.33002 0.17332 0.0
C613 C 0.13489 0.38082 0.1888 0.0
C614 C 0.17675 0.43709 0.17923 0.0
C615 C 0.19273 0.44197 0.15306 0.0
C616 C 0.16733 0.39104 0.13656 0.0
C617 C 0.12606 0.33405 0.14696 0.0
H618 H 0.68002 0.98336 0.57454 0.0
H619 H 0.86914 0.05665 0.59359 0.0
H620 H 0.89722 0.10966 0.55166 0.0
H621 H 0.69511 0.96122 0.50534 0.0
H622 H 0.63915 0.98092 0.496 0.0
H623 H 0.63483 0.94731 0.52709 0.0
H624 H 0.63315 0.03777 0.54904 0.0
H625 H 0.63916 0.07193 0.51789 0.0
H626 H 0.69374 0.11299 0.54286 0.0
H627 H 0.90506 0.15377 0.50701 0.0
H628 H 0.89141 0.18704 0.46375 0.0
H629 H 0.69757 0.0875 0.47433 0.0
C630 C 0.72732 0.01005 0.56981 0.0
C631 C 0.77233 0.01594 0.58757 0.0
C632 C 0.83375 0.05204 0.5806 0.0
C633 C 0.85021 0.0821 0.55672 0.0
C634 C 0.80483 0.07583 0.53983 0.0
C635 C 0.74461 0.04061 0.54602 0.0
C636 C 0.70477 0.04197 0.52447 0.0
C637 C 0.66618 0.97914 0.51252 0.0
C638 C 0.6654 0.06771 0.53415 0.0
C639 C 0.75196 0.08416 0.50546 0.0
C640 C 0.80941 0.10257 0.51449 0.0
C641 C 0.86022 0.13984 0.49982 0.0
C642 C 0.85205 0.1585 0.47524 0.0
C643 C 0.79353 0.14041 0.46565 0.0
C644 C 0.74302 0.10293 0.48116 0.0
H645 H 0.57741 0.6893 0.80976 0.0
H646 H 0.70921 0.87473 0.79214 0.0
H647 H 0.75639 0.88487 0.83482 0.0
H648 H 0.56204 0.71139 0.87858 0.0
H649 H 0.55648 0.64123 0.8883 0.0
H650 H 0.53092 0.64832 0.85661 0.0
H651 H 0.60148 0.6151 0.83552 0.0
H652 H 0.62634 0.60755 0.86723 0.0
H653 H 0.68067 0.65488 0.84346 0.0
H654 H 0.79048 0.87615 0.87893 0.0
H655 H 0.81117 0.84875 0.92176 0.0
H656 H 0.66062 0.6675 0.91192 0.0
C657 C 0.61583 0.73221 0.815 0.0
C658 C 0.6393 0.78137 0.79742 0.0
C659 C 0.69021 0.83636 0.80504 0.0
C660 C 0.71739 0.84266 0.82935 0.0
C661 C 0.69361 0.79351 0.84606 0.0
C662 C 0.64408 0.73922 0.8393 0.0
C663 C 0.62907 0.6932 0.86083 0.0
C664 C 0.56587 0.67231 0.87172 0.0
C665 C 0.63476 0.63953 0.85116 0.0
C666 C 0.6779 0.73029 0.88068 0.0
C667 C 0.71434 0.78803 0.87163 0.0
C668 C 0.76251 0.83093 0.88615 0.0
C669 C 0.77423 0.81461 0.9105 0.0
C670 C 0.73841 0.75552 0.92037 0.0
C671 C 0.68906 0.71301 0.90515 0.0
H672 H 0.94483 0.77651 0.24728 0.0
H673 H 0.03863 0.67551 0.25691 0.0
H674 H 0.00865 0.63501 0.21298 0.0
H675 H 0.82018 0.66491 0.21012 0.0
H676 H 0.81497 0.71726 0.1884 0.0
H677 H 0.84433 0.74061 0.22068 0.0
H678 H 0.94195 0.82877 0.20187 0.0
H679 H 0.91287 0.80569 0.16952 0.0
H680 H 0.98463 0.81351 0.17841 0.0
H681 H 0.96557 0.60005 0.17008 0.0
H682 H 0.91332 0.57384 0.12853 0.0
H683 H 0.85012 0.70063 0.1421 0.0
C684 C 0.95951 0.74628 0.24005 0.0
C685 C -0.00661 0.72846 0.25609 0.0
C686 C 0.01139 0.6887 0.24565 0.0
C687 C -0.00489 0.66582 0.2205 0.0
C688 C 0.96119 0.68332 0.2055 0.0
C689 C 0.94374 0.72289 0.21461 0.0
C690 C 0.90659 0.73306 0.194 0.0
C691 C 0.84272 0.71275 0.2039 0.0
C692 C 0.93842 0.7992 0.18544 0.0
C693 C 0.90547 0.69231 0.17215 0.0
C694 C 0.93746 0.66433 0.17956 0.0
C695 C 0.94113 0.62233 0.16388 0.0
C696 C 0.91114 0.6079 0.14007 0.0
C697 C 0.87819 0.63585 0.13141 0.0
C698 C 0.87581 0.67929 0.14775 0.0
H699 H 0.22765 0.00205 0.5708 0.0
H700 H 0.31049 0.90894 0.60801 0.0
H701 H 0.30405 0.85703 0.56706 0.0
H702 H 0.12245 0.87787 0.53094 0.0
H703 H 0.12975 0.92382 0.50323 0.0
H704 H 0.14153 0.95514 0.53536 0.0
H705 H 0.24743 0.0404 0.52221 0.0
H706 H 0.23596 0.00956 0.49 0.0
H707 H 0.30071 0.0215 0.50865 0.0
H708 H 0.28868 0.81448 0.5227 0.0
H709 H 0.26797 0.78533 0.47696 0.0
H710 H 0.19241 0.90289 0.46693 0.0
C711 C 0.24402 0.9704 0.57039 0.0
C712 C 0.26979 0.95991 0.59285 0.0
C713 C 0.29146 0.91873 0.59119 0.0
C714 C 0.28756 0.88854 0.56799 0.0
C715 C 0.26176 0.89967 0.54639 0.0
C716 C 0.24053 0.93972 0.54725 0.0
C717 C 0.2156 0.94371 0.52092 0.0
C718 C 0.14833 0.92395 0.52273 0.0
C719 C 0.2521 0.00758 0.50979 0.0
C720 C 0.22538 0.89897 0.50526 0.0
C721 C 0.25237 0.87449 0.52049 0.0
C722 C 0.26745 0.83325 0.51063 0.0
C723 C 0.25544 0.817 0.4845 0.0
C724 C 0.22824 0.84148 0.46819 0.0
C725 C 0.21239 0.88267 0.4789 0.0
loop_
_geom_bond_atom_site_label_1
_geom_bond_atom_site_label_2
_geom_bond_distance
_geom_bond_site_symmetry_2
_ccdc_geom_bond_type
Ho0 C3 2.811 . S
Ho0 O20 2.322 . S
Ho0 O22 2.378 . S
Ho0 O23 2.524 . S
Ho0 O24 2.381 . S
Ho0 O25 2.669 . S
Ho0 O27 2.346 . S
Ho0 O31 2.305 . S
Ho1 C12 2.811 1_554 S
Ho1 O21 2.346 . S
Ho1 O25 2.305 . S
Ho1 O26 2.322 1_554 S
Ho1 O28 2.378 1_554 S
Ho1 O29 2.524 1_554 S
Ho1 O30 2.381 . S
Ho1 O31 2.669 . S
C2 O20 1.259 . S
C2 O21 1.268 . S
C3 Ho0 2.811 . S
C3 C4 1.488 . S
C3 O22 1.215 . S
C3 O23 1.289 . S
C4 C3 1.488 . S
C4 C5 1.348 . S
C4 C9 1.413 . S
C5 C4 1.348 . S
C5 C6 1.442 . S
C5 H32 0.930 . S
C6 C5 1.442 . S
C6 C7 1.381 . S
C6 H33 0.931 . S
C7 C6 1.381 . S
C7 C8 1.321 . S
C8 C7 1.321 . S
C8 C9 1.403 . S
C8 H34 0.934 . S
C9 C4 1.413 . S
C9 C8 1.403 . S
C9 H35 0.930 . S
C10 O24 1.275 . S
C10 O25 1.256 . S
C11 O26 1.259 . S
C11 O27 1.268 1_556 S
C12 Ho1 2.811 1_556 S
C12 C13 1.488 . S
C12 O28 1.215 . S
C12 O29 1.289 . S
C13 C12 1.488 . S
C13 C14 1.348 . S
C13 C18 1.413 . S
C14 C13 1.348 . S
C14 C15 1.442 . S
C14 H36 0.930 . S
C15 C14 1.442 . S
C15 C16 1.381 . S
C15 H37 0.931 . S
C16 C15 1.381 . S
C16 C17 1.321 . S
C17 C16 1.321 . S
C17 C18 1.403 . S
C17 H38 0.934 . S
C18 C13 1.413 . S
C18 C17 1.403 . S
C18 H39 0.930 . S
C19 O30 1.275 . S
C19 O31 1.256 . S
O20 Ho0 2.322 . S
O20 C2 1.259 . S
O21 Ho1 2.346 . S
O21 C2 1.268 . S
O22 Ho0 2.378 . S
O22 C3 1.215 . S
O23 Ho0 2.524 . S
O23 C3 1.289 . S
O24 Ho0 2.381 . S
O24 C10 1.275 . S
O25 Ho0 2.669 . S
O25 Ho1 2.305 . S
O25 C10 1.256 . S
O26 Ho1 2.322 1_556 S
O26 C11 1.259 . S
O27 Ho0 2.346 . S
O27 C11 1.268 1_554 S
O28 Ho1 2.378 1_556 S
O28 C12 1.215 . S
O29 Ho1 2.524 1_556 S
O29 C12 1.289 . S
O30 Ho1 2.381 . S
O30 C19 1.275 . S
O31 Ho0 2.305 . S
O31 Ho1 2.669 . S
O31 C19 1.256 . S
H32 C5 0.930 . S
H33 C6 0.931 . S
H34 C8 0.934 . S
H35 C9 0.930 . S
H36 C14 0.930 . S
H37 C15 0.931 . S
H38 C17 0.934 . S
H39 C18 0.930 . S
Ho40 C43 2.811 . S
Ho40 O60 2.322 . S
Ho40 O62 2.378 . S
Ho40 O63 2.524 . S
Ho40 O64 2.381 . S
Ho40 O65 2.669 . S
Ho40 O67 2.346 . S
Ho40 O71 2.305 . S
Ho41 C52 2.811 . S
Ho41 O61 2.346 . S
Ho41 O65 2.305 . S
Ho41 O66 2.322 . S
Ho41 O68 2.378 . S
Ho41 O69 2.524 . S
Ho41 O70 2.381 . S
Ho41 O71 2.669 . S
C42 O60 1.259 . S
C42 O61 1.268 . S
C43 Ho40 2.811 . S
C43 C44 1.488 . S
C43 O62 1.215 . S
C43 O63 1.289 . S
C44 C43 1.488 . S
C44 C45 1.348 . S
C44 C49 1.413 . S
C45 C44 1.348 . S
C45 C46 1.442 . S
C45 H72 0.930 . S
C46 C45 1.442 . S
C46 C47 1.381 . S
C46 H73 0.931 . S
C47 C46 1.381 . S
C47 C48 1.321 . S
C48 C47 1.321 . S
C48 C49 1.403 . S
C48 H74 0.934 . S
C49 C44 1.413 . S
C49 C48 1.403 . S
C49 H75 0.930 . S
C50 O64 1.275 . S
C50 O65 1.256 . S
C51 O66 1.259 . S
C51 O67 1.268 . S
C52 Ho41 2.811 . S
C52 C53 1.488 . S
C52 O68 1.215 . S
C52 O69 1.289 . S
C53 C52 1.488 . S
C53 C54 1.348 . S
C53 C58 1.413 . S
C54 C53 1.348 . S
C54 C55 1.442 . S
C54 H76 0.930 . S
C55 C54 1.442 . S
C55 C56 1.381 . S
C55 H77 0.931 1_655 S
C56 C55 1.381 . S
C56 C57 1.321 . S
C57 C56 1.321 . S
C57 C58 1.403 . S
C57 H78 0.934 . S
C58 C53 1.413 . S
C58 C57 1.403 . S
C58 H79 0.930 . S
C59 O70 1.275 . S
C59 O71 1.256 . S
O60 Ho40 2.322 . S
O60 C42 1.259 . S
O61 Ho41 2.346 . S
O61 C42 1.268 . S
O62 Ho40 2.378 . S
O62 C43 1.215 . S
O63 Ho40 2.524 . S
O63 C43 1.289 . S
O64 Ho40 2.381 . S
O64 C50 1.275 . S
O65 Ho40 2.669 . S
O65 Ho41 2.305 . S
O65 C50 1.256 . S
O66 Ho41 2.322 . S
O66 C51 1.259 . S
O67 Ho40 2.346 . S
O67 C51 1.268 . S
O68 Ho41 2.378 . S
O68 C52 1.215 . S
O69 Ho41 2.524 . S
O69 C52 1.289 . S
O70 Ho41 2.381 . S
O70 C59 1.275 . S
O71 Ho40 2.305 . S
O71 Ho41 2.669 . S
O71 C59 1.256 . S
H72 C45 0.930 . S
H73 C46 0.931 . S
H74 C48 0.934 . S
H75 C49 0.930 . S
H76 C54 0.930 . S
H77 C55 0.931 1_455 S
H78 C57 0.934 . S
H79 C58 0.930 . S
Ho80 C83 2.811 . S
Ho80 O100 2.322 . S
Ho80 O102 2.378 . S
Ho80 O103 2.524 . S
Ho80 O104 2.381 . S
Ho80 O105 2.669 . S
Ho80 O107 2.346 . S
Ho80 O111 2.305 . S
Ho81 C92 2.811 . S
Ho81 O101 2.346 . S
Ho81 O105 2.305 . S
Ho81 O106 2.322 . S
Ho81 O108 2.378 . S
Ho81 O109 2.524 . S
Ho81 O110 2.381 . S
Ho81 O111 2.669 . S
C82 O100 1.259 . S
C82 O101 1.268 . S
C83 Ho80 2.811 . S
C83 C84 1.488 . S
C83 O102 1.215 . S
C83 O103 1.289 . S
C84 C83 1.488 . S
C84 C85 1.348 . S
C84 C89 1.413 . S
C85 C84 1.348 . S
C85 C86 1.442 . S
C85 H112 0.930 . S
C86 C85 1.442 . S
C86 C87 1.381 . S
C86 H113 0.931 . S
C87 C86 1.381 . S
C87 C88 1.321 . S
C88 C87 1.321 . S
C88 C89 1.403 . S
C88 H114 0.934 . S
C89 C84 1.413 . S
C89 C88 1.403 . S
C89 H115 0.930 . S
C90 O104 1.275 . S
C90 O105 1.256 . S
C91 O106 1.259 . S
C91 O107 1.268 . S
C92 Ho81 2.811 . S
C92 C93 1.488 . S
C92 O108 1.215 . S
C92 O109 1.289 . S
C93 C92 1.488 . S
C93 C94 1.348 . S
C93 C98 1.413 . S
C94 C93 1.348 . S
C94 C95 1.442 . S
C94 H116 0.930 . S
C95 C94 1.442 . S
C95 C96 1.381 . S
C95 H117 0.931 1_565 S
C96 C95 1.381 . S
C96 C97 1.321 . S
C97 C96 1.321 . S
C97 C98 1.403 . S
C97 H118 0.934 . S
C98 C93 1.413 . S
C98 C97 1.403 . S
C98 H119 0.930 . S
C99 O110 1.275 . S
C99 O111 1.256 . S
O100 Ho80 2.322 . S
O100 C82 1.259 . S
O101 Ho81 2.346 . S
O101 C82 1.268 . S
O102 Ho80 2.378 . S
O102 C83 1.215 . S
O103 Ho80 2.524 . S
O103 C83 1.289 . S
O104 Ho80 2.381 . S
O104 C90 1.275 . S
O105 Ho80 2.669 . S
O105 Ho81 2.305 . S
O105 C90 1.256 . S
O106 Ho81 2.322 . S
O106 C91 1.259 . S
O107 Ho80 2.346 . S
O107 C91 1.268 . S
O108 Ho81 2.378 . S
O108 C92 1.215 . S
O109 Ho81 2.524 . S
O109 C92 1.289 . S
O110 Ho81 2.381 . S
O110 C99 1.275 . S
O111 Ho80 2.305 . S
O111 Ho81 2.669 . S
O111 C99 1.256 . S
H112 C85 0.930 . S
H113 C86 0.931 . S
H114 C88 0.934 . S
H115 C89 0.930 . S
H116 C94 0.930 . S
H117 C95 0.931 1_545 S
H118 C97 0.934 . S
H119 C98 0.930 . S
Ho120 C123 2.811 . S
Ho120 O140 2.322 . S
Ho120 O142 2.378 . S
Ho120 O143 2.524 . S
Ho120 O144 2.381 . S
Ho120 O145 2.669 . S
Ho120 O147 2.346 . S
Ho120 O151 2.305 . S
Ho121 C132 2.811 1_554 S
Ho121 O141 2.346 . S
Ho121 O145 2.305 . S
Ho121 O146 2.322 1_554 S
Ho121 O148 2.378 1_554 S
Ho121 O149 2.524 1_554 S
Ho121 O150 2.381 . S
Ho121 O151 2.669 . S
C122 O140 1.259 . S
C122 O141 1.268 . S
C123 Ho120 2.811 . S
C123 C124 1.488 . S
C123 O142 1.215 . S
C123 O143 1.289 . S
C124 C123 1.488 . S
C124 C125 1.348 . S
C124 C129 1.413 . S
C125 C124 1.348 . S
C125 C126 1.442 . S
C125 H152 0.930 . S
C126 C125 1.442 . S
C126 C127 1.381 . S
C126 H153 0.931 . S
C127 C126 1.381 . S
C127 C128 1.321 . S
C128 C127 1.321 . S
C128 C129 1.403 . S
C128 H154 0.934 . S
C129 C124 1.413 . S
C129 C128 1.403 . S
C129 H155 0.930 . S
C130 O144 1.275 . S
C130 O145 1.256 . S
C131 O146 1.259 . S
C131 O147 1.268 1_556 S
C132 Ho121 2.811 1_556 S
C132 C133 1.488 . S
C132 O148 1.215 . S
C132 O149 1.289 . S
C133 C132 1.488 . S
C133 C134 1.348 . S
C133 C138 1.413 . S
C134 C133 1.348 . S
C134 C135 1.442 . S
C134 H156 0.930 . S
C135 C134 1.442 . S
C135 C136 1.381 . S
C135 H157 0.931 . S
C136 C135 1.381 . S
C136 C137 1.321 . S
C137 C136 1.321 . S
C137 C138 1.403 . S
C137 H158 0.934 . S
C138 C133 1.413 . S
C138 C137 1.403 . S
C138 H159 0.930 . S
C139 O150 1.275 . S
C139 O151 1.256 . S
O140 Ho120 2.322 . S
O140 C122 1.259 . S
O141 Ho121 2.346 . S
O141 C122 1.268 . S
O142 Ho120 2.378 . S
O142 C123 1.215 . S
O143 Ho120 2.524 . S
O143 C123 1.289 . S
O144 Ho120 2.381 . S
O144 C130 1.275 . S
O145 Ho120 2.669 . S
O145 Ho121 2.305 . S
O145 C130 1.256 . S
O146 Ho121 2.322 1_556 S
O146 C131 1.259 . S
O147 Ho120 2.346 . S
O147 C131 1.268 1_554 S
O148 Ho121 2.378 1_556 S
O148 C132 1.215 . S
O149 Ho121 2.524 1_556 S
O149 C132 1.289 . S
O150 Ho121 2.381 . S
O150 C139 1.275 . S
O151 Ho120 2.305 . S
O151 Ho121 2.669 . S
O151 C139 1.256 . S
H152 C125 0.930 . S
H153 C126 0.931 . S
H154 C128 0.934 . S
H155 C129 0.930 . S
H156 C134 0.930 . S
H157 C135 0.931 . S
H158 C137 0.934 . S
H159 C138 0.930 . S
Ho160 C163 2.811 . S
Ho160 O180 2.322 . S
Ho160 O182 2.378 . S
Ho160 O183 2.524 . S
Ho160 O184 2.381 . S
Ho160 O185 2.669 . S
Ho160 O187 2.346 . S
Ho160 O191 2.305 . S
Ho161 C172 2.811 . S
Ho161 O181 2.346 . S
Ho161 O185 2.305 . S
Ho161 O186 2.322 . S
Ho161 O188 2.378 . S
Ho161 O189 2.524 . S
Ho161 O190 2.381 . S
Ho161 O191 2.669 . S
C162 O180 1.259 . S
C162 O181 1.268 . S
C163 Ho160 2.811 . S
C163 C164 1.488 . S
C163 O182 1.215 . S
C163 O183 1.289 . S
C164 C163 1.488 . S
C164 C165 1.348 . S
C164 C169 1.413 . S
C165 C164 1.348 . S
C165 C166 1.442 . S
C165 H192 0.930 . S
C166 C165 1.442 . S
C166 C167 1.381 . S
C166 H193 0.931 . S
C167 C166 1.381 . S
C167 C168 1.321 . S
C168 C167 1.321 . S
C168 C169 1.403 . S
C168 H194 0.934 . S
C169 C164 1.413 . S
C169 C168 1.403 . S
C169 H195 0.930 . S
C170 O184 1.275 . S
C170 O185 1.256 . S
C171 O186 1.259 . S
C171 O187 1.268 . S
C172 Ho161 2.811 . S
C172 C173 1.488 . S
C172 O188 1.215 . S
C172 O189 1.289 . S
C173 C172 1.488 . S
C173 C174 1.348 . S
C173 C178 1.413 . S
C174 C173 1.348 . S
C174 C175 1.442 . S
C174 H196 0.930 . S
C175 C174 1.442 . S
C175 C176 1.381 . S
C175 H197 0.931 1_455 S
C176 C175 1.381 . S
C176 C177 1.321 . S
C177 C176 1.321 . S
C177 C178 1.403 . S
C177 H198 0.934 . S
C178 C173 1.413 . S
C178 C177 1.403 . S
C178 H199 0.930 . S
C179 O190 1.275 . S
C179 O191 1.256 . S
O180 Ho160 2.322 . S
O180 C162 1.259 . S
O181 Ho161 2.346 . S
O181 C162 1.268 . S
O182 Ho160 2.378 . S
O182 C163 1.215 . S
O183 Ho160 2.524 . S
O183 C163 1.289 . S
O184 Ho160 2.381 . S
O184 C170 1.275 . S
O185 Ho160 2.669 . S
O185 Ho161 2.305 . S
O185 C170 1.256 . S
O186 Ho161 2.322 . S
O186 C171 1.259 . S
O187 Ho160 2.346 . S
O187 C171 1.268 . S
O188 Ho161 2.378 . S
O188 C172 1.215 . S
O189 Ho161 2.524 . S
O189 C172 1.289 . S
O190 Ho161 2.381 . S
O190 C179 1.275 . S
O191 Ho160 2.305 . S
O191 Ho161 2.669 . S
O191 C179 1.256 . S
H192 C165 0.930 . S
H193 C166 0.931 . S
H194 C168 0.934 . S
H195 C169 0.930 . S
H196 C174 0.930 . S
H197 C175 0.931 1_655 S
H198 C177 0.934 . S
H199 C178 0.930 . S
Ho200 C203 2.811 . S
Ho200 O220 2.322 . S
Ho200 O222 2.378 . S
Ho200 O223 2.524 . S
Ho200 O224 2.381 . S
Ho200 O225 2.669 . S
Ho200 O227 2.346 . S
Ho200 O231 2.305 . S
Ho201 C212 2.811 . S
Ho201 O221 2.346 . S
Ho201 O225 2.305 . S
Ho201 O226 2.322 . S
Ho201 O228 2.378 . S
Ho201 O229 2.524 . S
Ho201 O230 2.381 . S
Ho201 O231 2.669 . S
C202 O220 1.259 . S
C202 O221 1.268 . S
C203 Ho200 2.811 . S
C203 C204 1.488 . S
C203 O222 1.215 . S
C203 O223 1.289 . S
C204 C203 1.488 . S
C204 C205 1.348 . S
C204 C209 1.413 . S
C205 C204 1.348 . S
C205 C206 1.442 . S
C205 H232 0.930 . S
C206 C205 1.442 . S
C206 C207 1.381 . S
C206 H233 0.931 . S
C207 C206 1.381 . S
C207 C208 1.321 . S
C208 C207 1.321 . S
C208 C209 1.403 . S
C208 H234 0.934 . S
C209 C204 1.413 . S
C209 C208 1.403 . S
C209 H235 0.930 . S
C210 O224 1.275 . S
C210 O225 1.256 . S
C211 O226 1.259 . S
C211 O227 1.268 . S
C212 Ho201 2.811 . S
C212 C213 1.488 . S
C212 O228 1.215 . S
C212 O229 1.289 . S
C213 C212 1.488 . S
C213 C214 1.348 . S
C213 C218 1.413 . S
C214 C213 1.348 . S
C214 C215 1.442 . S
C214 H236 0.930 . S
C215 C214 1.442 . S
C215 C216 1.381 . S
C215 H237 0.931 1_545 S
C216 C215 1.381 . S
C216 C217 1.321 . S
C217 C216 1.321 . S
C217 C218 1.403 . S
C217 H238 0.934 . S
C218 C213 1.413 . S
C218 C217 1.403 . S
C218 H239 0.930 . S
C219 O230 1.275 . S
C219 O231 1.256 . S
O220 Ho200 2.322 . S
O220 C202 1.259 . S
O221 Ho201 2.346 . S
O221 C202 1.268 . S
O222 Ho200 2.378 . S
O222 C203 1.215 . S
O223 Ho200 2.524 . S
O223 C203 1.289 . S
O224 Ho200 2.381 . S
O224 C210 1.275 . S
O225 Ho200 2.669 . S
O225 Ho201 2.305 . S
O225 C210 1.256 . S
O226 Ho201 2.322 . S
O226 C211 1.259 . S
O227 Ho200 2.346 . S
O227 C211 1.268 . S
O228 Ho201 2.378 . S
O228 C212 1.215 . S
O229 Ho201 2.524 . S
O229 C212 1.289 . S
O230 Ho201 2.381 . S
O230 C219 1.275 . S
O231 Ho200 2.305 . S
O231 Ho201 2.669 . S
O231 C219 1.256 . S
H232 C205 0.930 . S
H233 C206 0.931 . S
H234 C208 0.934 . S
H235 C209 0.930 . S
H236 C214 0.930 . S
H237 C215 0.931 1_565 S
H238 C217 0.934 . S
H239 C218 0.930 . S
H240 C252 0.930 . S
H241 C254 0.930 . S
H242 C255 0.930 . S
H243 C259 0.959 . S
H244 C259 0.959 . S
H245 C259 0.961 . S
H246 C260 0.960 . S
H247 C260 0.961 . S
H248 C260 0.959 . S
H249 C263 0.929 . S
H250 C264 0.931 . S
H251 C266 0.930 . S
C252 H240 0.930 . S
C252 C253 1.399 . S
C252 C257 1.399 . S
C253 C252 1.399 . S
C253 C254 1.376 . S
C254 H241 0.930 . S
C254 C253 1.376 . S
C254 C255 1.388 . S
C255 H242 0.930 . S
C255 C254 1.388 . S
C255 C256 1.390 . S
C256 C255 1.390 . S
C256 C257 1.394 . S
C256 C262 1.465 . S
C257 C252 1.399 . S
C257 C256 1.394 . S
C257 C258 1.516 . S
C258 C257 1.516 . S
C258 C259 1.502 . S
C258 C260 1.561 . S
C258 C261 1.526 . S
C259 H243 0.959 . S
C259 H244 0.959 . S
C259 H245 0.961 . S
C259 C258 1.502 . S
C260 H246 0.960 . S
C260 H247 0.961 . S
C260 H248 0.959 . S
C260 C258 1.561 . S
C261 C258 1.526 . S
C261 C262 1.396 . S
C261 C266 1.390 . S
C262 C256 1.465 . S
C262 C261 1.396 . S
C262 C263 1.399 . S
C263 H249 0.929 . S
C263 C262 1.399 . S
C263 C264 1.385 . S
C264 H250 0.931 . S
C264 C263 1.385 . S
C264 C265 1.389 . S
C265 C264 1.389 . S
C265 C266 1.387 . S
C266 H251 0.930 . S
C266 C261 1.390 . S
C266 C265 1.387 . S
H267 C279 0.930 . S
H268 C281 0.930 . S
H269 C282 0.930 . S
H270 C286 0.959 . S
H271 C286 0.959 . S
H272 C286 0.961 . S
H273 C287 0.960 . S
H274 C287 0.961 . S
H275 C287 0.959 . S
H276 C290 0.929 . S
H277 C291 0.931 . S
H278 C293 0.930 . S
C279 H267 0.930 . S
C279 C280 1.399 . S
C279 C284 1.399 . S
C280 C279 1.399 . S
C280 C281 1.376 . S
C281 H268 0.930 . S
C281 C280 1.376 . S
C281 C282 1.388 . S
C282 H269 0.930 . S
C282 C281 1.388 . S
C282 C283 1.390 . S
C283 C282 1.390 . S
C283 C284 1.394 . S
C283 C289 1.465 . S
C284 C279 1.399 . S
C284 C283 1.394 . S
C284 C285 1.516 . S
C285 C284 1.516 . S
C285 C286 1.502 . S
C285 C287 1.561 . S
C285 C288 1.526 . S
C286 H270 0.959 . S
C286 H271 0.959 . S
C286 H272 0.961 . S
C286 C285 1.502 . S
C287 H273 0.960 . S
C287 H274 0.961 . S
C287 H275 0.959 . S
C287 C285 1.561 . S
C288 C285 1.526 . S
C288 C289 1.396 . S
C288 C293 1.390 . S
C289 C283 1.465 . S
C289 C288 1.396 . S
C289 C290 1.399 . S
C290 H276 0.929 . S
C290 C289 1.399 . S
C290 C291 1.385 . S
C291 H277 0.931 . S
C291 C290 1.385 . S
C291 C292 1.389 . S
C292 C291 1.389 . S
C292 C293 1.387 . S
C293 H278 0.930 . S
C293 C288 1.390 . S
C293 C292 1.387 . S
H294 C306 0.930 . S
H295 C308 0.930 . S
H296 C309 0.930 . S
H297 C313 0.959 . S
H298 C313 0.959 . S
H299 C313 0.961 . S
H300 C314 0.960 . S
H301 C314 0.961 . S
H302 C314 0.959 . S
H303 C317 0.929 . S
H304 C318 0.931 . S
H305 C320 0.930 . S
C306 H294 0.930 . S
C306 C307 1.399 . S
C306 C311 1.399 . S
C307 C306 1.399 . S
C307 C308 1.376 . S
C308 H295 0.930 . S
C308 C307 1.376 . S
C308 C309 1.388 . S
C309 H296 0.930 . S
C309 C308 1.388 . S
C309 C310 1.390 . S
C310 C309 1.390 . S
C310 C311 1.394 . S
C310 C316 1.465 . S
C311 C306 1.399 . S
C311 C310 1.394 . S
C311 C312 1.516 . S
C312 C311 1.516 . S
C312 C313 1.502 . S
C312 C314 1.561 . S
C312 C315 1.526 . S
C313 H297 0.959 . S
C313 H298 0.959 . S
C313 H299 0.961 . S
C313 C312 1.502 . S
C314 H300 0.960 . S
C314 H301 0.961 . S
C314 H302 0.959 . S
C314 C312 1.561 . S
C315 C312 1.526 . S
C315 C316 1.396 . S
C315 C320 1.390 . S
C316 C310 1.465 . S
C316 C315 1.396 . S
C316 C317 1.399 . S
C317 H303 0.929 . S
C317 C316 1.399 . S
C317 C318 1.385 . S
C318 H304 0.931 . S
C318 C317 1.385 . S
C318 C319 1.389 . S
C319 C318 1.389 . S
C319 C320 1.387 . S
C320 H305 0.930 . S
C320 C315 1.390 . S
C320 C319 1.387 . S
H321 C333 0.930 . S
H322 C335 0.930 . S
H323 C336 0.930 . S
H324 C340 0.959 . S
H325 C340 0.959 . S
H326 C340 0.961 . S
H327 C341 0.960 . S
H328 C341 0.961 . S
H329 C341 0.959 . S
H330 C344 0.929 . S
H331 C345 0.931 . S
H332 C347 0.930 . S
C333 H321 0.930 . S
C333 C334 1.399 . S
C333 C338 1.399 . S
C334 C333 1.399 . S
C334 C335 1.376 . S
C335 H322 0.930 . S
C335 C334 1.376 . S
C335 C336 1.388 . S
C336 H323 0.930 . S
C336 C335 1.388 . S
C336 C337 1.390 . S
C337 C336 1.390 . S
C337 C338 1.394 . S
C337 C343 1.465 . S
C338 C333 1.399 . S
C338 C337 1.394 . S
C338 C339 1.516 . S
C339 C338 1.516 . S
C339 C340 1.502 . S
C339 C341 1.561 . S
C339 C342 1.526 . S
C340 H324 0.959 . S
C340 H325 0.959 . S
C340 H326 0.961 . S
C340 C339 1.502 . S
C341 H327 0.960 . S
C341 H328 0.961 . S
C341 H329 0.959 . S
C341 C339 1.561 . S
C342 C339 1.526 . S
C342 C343 1.396 . S
C342 C347 1.390 . S
C343 C337 1.465 . S
C343 C342 1.396 . S
C343 C344 1.399 . S
C344 H330 0.929 . S
C344 C343 1.399 . S
C344 C345 1.385 . S
C345 H331 0.931 . S
C345 C344 1.385 . S
C345 C346 1.389 . S
C346 C345 1.389 . S
C346 C347 1.387 . S
C347 H332 0.930 . S
C347 C342 1.390 . S
C347 C346 1.387 . S
H348 C360 0.930 . S
H349 C362 0.930 . S
H350 C363 0.930 . S
H351 C367 0.959 . S
H352 C367 0.959 . S
H353 C367 0.961 . S
H354 C368 0.960 . S
H355 C368 0.961 . S
H356 C368 0.959 . S
H357 C371 0.929 . S
H358 C372 0.931 . S
H359 C374 0.930 . S
C360 H348 0.930 . S
C360 C361 1.399 . S
C360 C365 1.399 . S
C361 C360 1.399 . S
C361 C362 1.376 . S
C362 H349 0.930 . S
C362 C361 1.376 . S
C362 C363 1.388 . S
C363 H350 0.930 . S
C363 C362 1.388 . S
C363 C364 1.390 . S
C364 C363 1.390 . S
C364 C365 1.394 . S
C364 C370 1.465 . S
C365 C360 1.399 . S
C365 C364 1.394 . S
C365 C366 1.516 . S
C366 C365 1.516 . S
C366 C367 1.502 . S
C366 C368 1.561 . S
C366 C369 1.526 . S
C367 H351 0.959 . S
C367 H352 0.959 . S
C367 H353 0.961 . S
C367 C366 1.502 . S
C368 H354 0.960 . S
C368 H355 0.961 . S
C368 H356 0.959 . S
C368 C366 1.561 . S
C369 C366 1.526 . S
C369 C370 1.396 . S
C369 C374 1.390 . S
C370 C364 1.465 . S
C370 C369 1.396 . S
C370 C371 1.399 . S
C371 H357 0.929 . S
C371 C370 1.399 . S
C371 C372 1.385 . S
C372 H358 0.931 . S
C372 C371 1.385 . S
C372 C373 1.389 . S
C373 C372 1.389 . S
C373 C374 1.387 . S
C374 H359 0.930 . S
C374 C369 1.390 . S
C374 C373 1.387 . S
H375 C387 0.930 . S
H376 C389 0.930 . S
H377 C390 0.930 . S
H378 C394 0.959 . S
H379 C394 0.959 . S
H380 C394 0.961 . S
H381 C395 0.960 . S
H382 C395 0.961 . S
H383 C395 0.959 . S
H384 C398 0.929 . S
H385 C399 0.931 . S
H386 C401 0.930 . S
C387 H375 0.930 . S
C387 C388 1.399 . S
C387 C392 1.399 . S
C388 C387 1.399 . S
C388 C389 1.376 . S
C389 H376 0.930 . S
C389 C388 1.376 . S
C389 C390 1.388 . S
C390 H377 0.930 . S
C390 C389 1.388 . S
C390 C391 1.390 . S
C391 C390 1.390 . S
C391 C392 1.394 . S
C391 C397 1.465 . S
C392 C387 1.399 . S
C392 C391 1.394 . S
C392 C393 1.516 . S
C393 C392 1.516 . S
C393 C394 1.502 . S
C393 C395 1.561 . S
C393 C396 1.526 . S
C394 H378 0.959 . S
C394 H379 0.959 . S
C394 H380 0.961 . S
C394 C393 1.502 . S
C395 H381 0.960 . S
C395 H382 0.961 . S
C395 H383 0.959 . S
C395 C393 1.561 . S
C396 C393 1.526 . S
C396 C397 1.396 . S
C396 C401 1.390 . S
C397 C391 1.465 . S
C397 C396 1.396 . S
C397 C398 1.399 . S
C398 H384 0.929 . S
C398 C397 1.399 . S
C398 C399 1.385 . S
C399 H385 0.931 . S
C399 C398 1.385 . S
C399 C400 1.389 . S
C400 C399 1.389 . S
C400 C401 1.387 . S
C401 H386 0.930 . S
C401 C396 1.390 . S
C401 C400 1.387 . S
H402 C414 0.930 . S
H403 C416 0.930 . S
H404 C417 0.930 . S
H405 C421 0.959 . S
H406 C421 0.959 1_556 S
H407 C421 0.961 1_556 S
H408 C422 0.960 . S
H409 C422 0.961 . S
H410 C422 0.959 . S
H411 C425 0.929 . S
H412 C426 0.931 . S
H413 C428 0.930 . S
C414 H402 0.930 . S
C414 C415 1.399 . S
C414 C419 1.399 . S
C415 C414 1.399 . S
C415 C416 1.376 . S
C416 H403 0.930 . S
C416 C415 1.376 . S
C416 C417 1.388 . S
C417 H404 0.930 . S
C417 C416 1.388 . S
C417 C418 1.390 . S
C418 C417 1.390 . S
C418 C419 1.394 . S
C418 C424 1.465 . S
C419 C414 1.399 . S
C419 C418 1.394 . S
C419 C420 1.516 . S
C420 C419 1.516 . S
C420 C421 1.502 . S
C420 C422 1.561 1_554 S
C420 C423 1.526 . S
C421 H405 0.959 . S
C421 H406 0.959 1_554 S
C421 H407 0.961 1_554 S
C421 C420 1.502 . S
C422 H408 0.960 . S
C422 H409 0.961 . S
C422 H410 0.959 . S
C422 C420 1.561 1_556 S
C423 C420 1.526 . S
C423 C424 1.396 . S
C423 C428 1.390 . S
C424 C418 1.465 . S
C424 C423 1.396 . S
C424 C425 1.399 . S
C425 H411 0.929 . S
C425 C424 1.399 . S
C425 C426 1.385 . S
C426 H412 0.931 . S
C426 C425 1.385 . S
C426 C427 1.389 . S
C427 C426 1.389 . S
C427 C428 1.387 . S
C428 H413 0.930 . S
C428 C423 1.390 . S
C428 C427 1.387 . S
H429 C441 0.930 . S
H430 C443 0.930 . S
H431 C444 0.930 . S
H432 C448 0.959 . S
H433 C448 0.959 . S
H434 C448 0.961 . S
H435 C449 0.960 . S
H436 C449 0.961 . S
H437 C449 0.959 . S
H438 C452 0.929 1_455 S
H439 C453 0.931 . S
H440 C455 0.930 . S
C441 H429 0.930 . S
C441 C442 1.399 . S
C441 C446 1.399 . S
C442 C441 1.399 . S
C442 C443 1.376 . S
C443 H430 0.930 . S
C443 C442 1.376 . S
C443 C444 1.388 . S
C444 H431 0.930 . S
C444 C443 1.388 . S
C444 C445 1.390 . S
C445 C444 1.390 . S
C445 C446 1.394 . S
C445 C451 1.465 1_455 S
C446 C441 1.399 . S
C446 C445 1.394 . S
C446 C447 1.516 1_455 S
C447 C446 1.516 1_655 S
C447 C448 1.502 . S
C447 C449 1.561 1_655 S
C447 C450 1.526 . S
C448 H432 0.959 . S
C448 H433 0.959 . S
C448 H434 0.961 . S
C448 C447 1.502 . S
C449 H435 0.960 . S
C449 H436 0.961 . S
C449 H437 0.959 . S
C449 C447 1.561 1_455 S
C450 C447 1.526 . S
C450 C451 1.398 . S
C450 C455 1.390 . S
C451 C445 1.465 1_655 S
C451 C450 1.398 . S
C451 C452 1.397 . S
C452 H438 0.929 1_655 S
C452 C451 1.397 . S
C452 C453 1.385 . S
C453 H439 0.931 . S
C453 C452 1.385 . S
C453 C454 1.389 . S
C454 C453 1.389 . S
C454 C455 1.387 . S
C455 H440 0.930 . S
C455 C450 1.390 . S
C455 C454 1.387 . S
H456 C468 0.930 . S
H457 C470 0.930 . S
H458 C471 0.930 . S
H459 C475 0.959 1_545 S
H460 C475 0.959 . S
H461 C475 0.961 . S
H462 C476 0.960 . S
H463 C476 0.961 . S
H464 C476 0.959 . S
H465 C479 0.929 1_545 S
H466 C480 0.931 . S
H467 C482 0.930 . S
C468 H456 0.930 . S
C468 C469 1.399 . S
C468 C473 1.399 . S
C469 C468 1.399 . S
C469 C470 1.376 . S
C470 H457 0.930 . S
C470 C469 1.376 . S
C470 C471 1.388 . S
C471 H458 0.930 . S
C471 C470 1.388 . S
C471 C472 1.390 . S
C472 C471 1.390 . S
C472 C473 1.394 . S
C472 C478 1.465 1_545 S
C473 C468 1.399 . S
C473 C472 1.394 . S
C473 C474 1.516 1_545 S
C474 C473 1.516 1_565 S
C474 C475 1.502 . S
C474 C476 1.561 . S
C474 C477 1.526 . S
C475 H459 0.959 1_565 S
C475 H460 0.959 . S
C475 H461 0.961 . S
C475 C474 1.502 . S
C476 H462 0.960 . S
C476 H463 0.961 . S
C476 H464 0.959 . S
C476 C474 1.561 . S
C477 C474 1.526 . S
C477 C478 1.396 . S
C477 C482 1.390 . S
C478 C472 1.465 1_565 S
C478 C477 1.396 . S
C478 C479 1.399 . S
C479 H465 0.929 1_565 S
C479 C478 1.399 . S
C479 C480 1.385 . S
C480 H466 0.931 . S
C480 C479 1.385 . S
C480 C481 1.389 . S
C481 C480 1.389 . S
C481 C482 1.387 . S
C482 H467 0.930 . S
C482 C477 1.390 . S
C482 C481 1.387 . S
H483 C495 0.930 . S
H484 C497 0.930 . S
H485 C498 0.930 . S
H486 C502 0.959 . S
H487 C502 0.959 . S
H488 C502 0.961 . S
H489 C503 0.960 . S
H490 C503 0.961 . S
H491 C503 0.959 . S
H492 C506 0.929 . S
H493 C507 0.931 . S
H494 C509 0.930 . S
C495 H483 0.930 . S
C495 C496 1.399 . S
C495 C500 1.399 . S
C496 C495 1.399 . S
C496 C497 1.376 . S
C497 H484 0.930 . S
C497 C496 1.376 . S
C497 C498 1.388 . S
C498 H485 0.930 . S
C498 C497 1.388 . S
C498 C499 1.390 . S
C499 C498 1.390 . S
C499 C500 1.394 . S
C499 C505 1.465 . S
C500 C495 1.399 . S
C500 C499 1.394 . S
C500 C501 1.516 . S
C501 C500 1.516 . S
C501 C502 1.502 . S
C501 C503 1.561 . S
C501 C504 1.526 . S
C502 H486 0.959 . S
C502 H487 0.959 . S
C502 H488 0.961 . S
C502 C501 1.502 . S
C503 H489 0.960 . S
C503 H490 0.961 . S
C503 H491 0.959 . S
C503 C501 1.561 . S
C504 C501 1.526 . S
C504 C505 1.396 . S
C504 C509 1.390 . S
C505 C499 1.465 . S
C505 C504 1.396 . S
C505 C506 1.399 . S
C506 H492 0.929 . S
C506 C505 1.399 . S
C506 C507 1.385 . S
C507 H493 0.931 . S
C507 C506 1.385 . S
C507 C508 1.389 . S
C508 C507 1.389 . S
C508 C509 1.387 . S
C509 H494 0.930 . S
C509 C504 1.390 . S
C509 C508 1.387 . S
H510 C522 0.930 1_556 S
H511 C524 0.930 . S
H512 C525 0.930 1_655 S
H513 C529 0.959 . S
H514 C529 0.959 . S
H515 C529 0.961 . S
H516 C530 0.960 . S
H517 C530 0.961 . S
H518 C530 0.959 . S
H519 C533 0.929 . S
H520 C534 0.931 . S
H521 C536 0.930 1_556 S
C522 H510 0.930 1_554 S
C522 C523 1.399 . S
C522 C527 1.399 . S
C523 C522 1.399 . S
C523 C524 1.376 . S
C524 H511 0.930 . S
C524 C523 1.376 . S
C524 C525 1.388 . S
C525 H512 0.930 1_455 S
C525 C524 1.388 . S
C525 C526 1.390 . S
C526 C525 1.390 . S
C526 C527 1.394 . S
C526 C532 1.465 1_455 S
C527 C522 1.399 . S
C527 C526 1.394 . S
C527 C528 1.516 1_554 S
C528 C527 1.516 1_556 S
C528 C529 1.502 . S
C528 C530 1.561 1_455 S
C528 C531 1.526 1_456 S
C529 H513 0.959 . S
C529 H514 0.959 . S
C529 H515 0.961 . S
C529 C528 1.502 . S
C530 H516 0.960 . S
C530 H517 0.961 . S
C530 H518 0.959 . S
C530 C528 1.561 1_655 S
C531 C528 1.526 1_654 S
C531 C532 1.396 . S
C531 C536 1.390 . S
C532 C526 1.465 1_655 S
C532 C531 1.396 . S
C532 C533 1.399 . S
C533 H519 0.929 . S
C533 C532 1.399 . S
C533 C534 1.385 . S
C534 H520 0.931 . S
C534 C533 1.385 . S
C534 C535 1.389 . S
C535 C534 1.389 . S
C535 C536 1.387 . S
C536 H521 0.930 1_554 S
C536 C531 1.390 . S
C536 C535 1.387 . S
H537 C549 0.930 . S
H538 C551 0.930 . S
H539 C552 0.930 . S
H540 C556 0.959 . S
H541 C556 0.959 . S
H542 C556 0.961 . S
H543 C557 0.960 . S
H544 C557 0.961 . S
H545 C557 0.959 . S
H546 C560 0.929 . S
H547 C561 0.931 . S
H548 C563 0.930 . S
C549 H537 0.930 . S
C549 C550 1.399 . S
C549 C554 1.399 . S
C550 C549 1.399 . S
C550 C551 1.376 . S
C551 H538 0.930 . S
C551 C550 1.376 . S
C551 C552 1.388 . S
C552 H539 0.930 . S
C552 C551 1.388 . S
C552 C553 1.390 . S
C553 C552 1.390 . S
C553 C554 1.394 . S
C553 C559 1.465 1_565 S
C554 C549 1.399 . S
C554 C553 1.394 . S
C554 C555 1.516 1_565 S
C555 C554 1.516 1_545 S
C555 C556 1.502 1_545 S
C555 C557 1.561 . S
C555 C558 1.526 . S
C556 H540 0.959 . S
C556 H541 0.959 . S
C556 H542 0.961 . S
C556 C555 1.502 1_565 S
C557 H543 0.960 . S
C557 H544 0.961 . S
C557 H545 0.959 . S
C557 C555 1.561 . S
C558 C555 1.526 . S
C558 C559 1.396 . S
C558 C563 1.390 . S
C559 C553 1.465 1_545 S
C559 C558 1.396 . S
C559 C560 1.399 . S
C560 H546 0.929 . S
C560 C559 1.399 . S
C560 C561 1.385 . S
C561 H547 0.931 . S
C561 C560 1.385 . S
C561 C562 1.389 . S
C562 C561 1.389 . S
C562 C563 1.387 . S
C563 H548 0.930 . S
C563 C558 1.390 . S
C563 C562 1.387 . S
H564 C576 0.930 . S
H565 C578 0.930 . S
H566 C579 0.930 . S
H567 C583 0.959 . S
H568 C583 0.959 . S
H569 C583 0.961 . S
H570 C584 0.960 . S
H571 C584 0.961 . S
H572 C584 0.959 . S
H573 C587 0.929 . S
H574 C588 0.931 . S
H575 C590 0.930 . S
C576 H564 0.930 . S
C576 C577 1.399 . S
C576 C581 1.399 . S
C577 C576 1.399 . S
C577 C578 1.376 . S
C578 H565 0.930 . S
C578 C577 1.376 . S
C578 C579 1.388 . S
C579 H566 0.930 . S
C579 C578 1.388 . S
C579 C580 1.390 . S
C580 C579 1.390 . S
C580 C581 1.394 . S
C580 C586 1.465 . S
C581 C576 1.399 . S
C581 C580 1.394 . S
C581 C582 1.516 . S
C582 C581 1.516 . S
C582 C583 1.502 . S
C582 C584 1.561 . S
C582 C585 1.526 . S
C583 H567 0.959 . S
C583 H568 0.959 . S
C583 H569 0.961 . S
C583 C582 1.502 . S
C584 H570 0.960 . S
C584 H571 0.961 . S
C584 H572 0.959 . S
C584 C582 1.561 . S
C585 C582 1.526 . S
C585 C586 1.396 . S
C585 C590 1.390 . S
C586 C580 1.465 . S
C586 C585 1.396 . S
C586 C587 1.399 . S
C587 H573 0.929 . S
C587 C586 1.399 . S
C587 C588 1.385 . S
C588 H574 0.931 . S
C588 C587 1.385 . S
C588 C589 1.389 . S
C589 C588 1.389 . S
C589 C590 1.387 . S
C590 H575 0.930 . S
C590 C585 1.390 . S
C590 C589 1.387 . S
H591 C603 0.930 1_655 S
H592 C605 0.930 . S
H593 C606 0.930 . S
H594 C610 0.959 . S
H595 C610 0.959 . S
H596 C610 0.961 . S
H597 C611 0.960 . S
H598 C611 0.957 1_455 S
H599 C611 0.959 . S
H600 C614 0.929 . S
H601 C615 0.931 . S
H602 C617 0.930 . S
C603 H591 0.930 1_455 S
C603 C604 1.399 1_455 S
C603 C608 1.399 . S
C604 C603 1.399 1_655 S
C604 C605 1.376 . S
C605 H592 0.930 . S
C605 C604 1.376 . S
C605 C606 1.388 1_655 S
C606 H593 0.930 . S
C606 C605 1.388 1_455 S
C606 C607 1.390 . S
C607 C606 1.390 . S
C607 C608 1.394 . S
C607 C613 1.465 . S
C608 C603 1.399 . S
C608 C607 1.394 . S
C608 C609 1.516 . S
C609 C608 1.516 . S
C609 C610 1.502 . S
C609 C611 1.561 1_455 S
C609 C612 1.526 . S
C610 H594 0.959 . S
C610 H595 0.959 . S
C610 H596 0.961 . S
C610 C609 1.502 . S
C611 H597 0.960 . S
C611 H598 0.957 1_655 S
C611 H599 0.959 . S
C611 C609 1.561 1_655 S
C612 C609 1.526 . S
C612 C613 1.396 . S
C612 C617 1.390 . S
C613 C607 1.465 . S
C613 C612 1.396 . S
C613 C614 1.399 . S
C614 H600 0.929 . S
C614 C613 1.399 . S
C614 C615 1.385 . S
C615 H601 0.931 . S
C615 C614 1.385 . S
C615 C616 1.389 . S
C616 C615 1.389 . S
C616 C617 1.387 . S
C617 H602 0.930 . S
C617 C612 1.390 . S
C617 C616 1.387 . S
H618 C630 0.930 . S
H619 C632 0.930 . S
H620 C633 0.930 . S
H621 C637 0.959 1_545 S
H622 C637 0.959 . S
H623 C637 0.961 . S
H624 C638 0.960 . S
H625 C638 0.961 . S
H626 C638 0.959 . S
H627 C641 0.929 . S
H628 C642 0.931 . S
H629 C644 0.930 . S
C630 H618 0.930 . S
C630 C631 1.399 . S
C630 C635 1.399 1_565 S
C631 C630 1.399 . S
C631 C632 1.376 1_565 S
C632 H619 0.930 . S
C632 C631 1.376 1_545 S
C632 C633 1.388 . S
C633 H620 0.930 . S
C633 C632 1.388 . S
C633 C634 1.390 . S
C634 C633 1.390 . S
C634 C635 1.394 . S
C634 C640 1.465 . S
C635 C630 1.399 1_545 S
C635 C634 1.394 . S
C635 C636 1.518 . S
C636 C635 1.518 . S
C636 C637 1.495 1_545 S
C636 C638 1.557 1_545 S
C636 C639 1.536 . S
C637 H621 0.959 1_565 S
C637 H622 0.959 . S
C637 H623 0.961 . S
C637 C636 1.495 1_565 S
C638 H624 0.960 . S
C638 H625 0.961 . S
C638 H626 0.959 . S
C638 C636 1.557 1_565 S
C639 C636 1.536 . S
C639 C640 1.396 . S
C639 C644 1.390 . S
C640 C634 1.465 . S
C640 C639 1.396 . S
C640 C641 1.399 . S
C641 H627 0.929 . S
C641 C640 1.399 . S
C641 C642 1.385 . S
C642 H628 0.931 . S
C642 C641 1.385 . S
C642 C643 1.389 . S
C643 C642 1.389 . S
C643 C644 1.387 . S
C644 H629 0.930 . S
C644 C639 1.390 . S
C644 C643 1.387 . S
H645 C657 0.930 . S
H646 C659 0.930 . S
H647 C660 0.930 . S
H648 C664 0.959 . S
H649 C664 0.959 . S
H650 C664 0.961 . S
H651 C665 0.960 . S
H652 C665 0.961 . S
H653 C665 0.959 . S
H654 C668 0.929 . S
H655 C669 0.931 . S
H656 C671 0.930 . S
C657 H645 0.930 . S
C657 C658 1.399 . S
C657 C662 1.399 . S
C658 C657 1.399 . S
C658 C659 1.376 . S
C659 H646 0.930 . S
C659 C658 1.376 . S
C659 C660 1.388 . S
C660 H647 0.930 . S
C660 C659 1.388 . S
C660 C661 1.390 . S
C661 C660 1.390 . S
C661 C662 1.394 . S
C661 C667 1.465 . S
C662 C657 1.399 . S
C662 C661 1.394 . S
C662 C663 1.516 . S
C663 C662 1.516 . S
C663 C664 1.502 . S
C663 C665 1.561 . S
C663 C666 1.526 . S
C664 H648 0.959 . S
C664 H649 0.959 . S
C664 H650 0.961 . S
C664 C663 1.502 . S
C665 H651 0.960 . S
C665 H652 0.961 . S
C665 H653 0.959 . S
C665 C663 1.561 . S
C666 C663 1.526 . S
C666 C667 1.396 . S
C666 C671 1.390 . S
C667 C661 1.465 . S
C667 C666 1.396 . S
C667 C668 1.399 . S
C668 H654 0.929 . S
C668 C667 1.399 . S
C668 C669 1.385 . S
C669 H655 0.931 . S
C669 C668 1.385 . S
C669 C670 1.389 . S
C670 C669 1.389 . S
C670 C671 1.387 . S
C671 H656 0.930 . S
C671 C666 1.390 . S
C671 C670 1.387 . S
H672 C684 0.937 1_455 S
H673 C686 0.941 . S
H674 C687 0.930 . S
H675 C691 0.959 . S
H676 C691 0.959 . S
H677 C691 0.961 . S
H678 C692 0.960 . S
H679 C692 0.961 . S
H680 C692 0.959 . S
H681 C695 0.929 . S
H682 C696 0.931 . S
H683 C698 0.930 . S
C684 H672 0.937 1_655 S
C684 C685 1.389 1_655 S
C684 C689 1.403 . S
C685 C684 1.389 1_455 S
C685 C686 1.370 . S
C686 H673 0.941 . S
C686 C685 1.370 . S
C686 C687 1.385 1_455 S
C687 H674 0.930 . S
C687 C686 1.385 1_655 S
C687 C688 1.390 . S
C688 C687 1.390 . S
C688 C689 1.394 . S
C688 C694 1.465 . S
C689 C684 1.403 . S
C689 C688 1.394 . S
C689 C690 1.516 . S
C690 C689 1.516 . S
C690 C691 1.502 . S
C690 C692 1.561 1_655 S
C690 C693 1.526 . S
C691 H675 0.959 . S
C691 H676 0.959 . S
C691 H677 0.961 . S
C691 C690 1.502 . S
C692 H678 0.960 . S
C692 H679 0.961 . S
C692 H680 0.959 . S
C692 C690 1.561 1_455 S
C693 C690 1.526 . S
C693 C694 1.396 . S
C693 C698 1.390 . S
C694 C688 1.465 . S
C694 C693 1.396 . S
C694 C695 1.399 . S
C695 H681 0.929 . S
C695 C694 1.399 . S
C695 C696 1.385 . S
C696 H682 0.931 . S
C696 C695 1.385 . S
C696 C697 1.389 . S
C697 C696 1.389 . S
C697 C698 1.387 . S
C698 H683 0.930 . S
C698 C693 1.390 . S
C698 C697 1.387 . S
H699 C711 0.930 . S
H700 C713 0.930 . S
H701 C714 0.930 . S
H702 C718 0.959 . S
H703 C718 0.959 1_545 S
H704 C718 0.961 1_545 S
H705 C719 0.960 . S
H706 C719 0.961 . S
H707 C719 0.959 . S
H708 C722 0.929 . S
H709 C723 0.931 . S
H710 C725 0.930 . S
C711 H699 0.930 . S
C711 C712 1.399 . S
C711 C716 1.399 1_545 S
C712 C711 1.399 . S
C712 C713 1.376 1_545 S
C713 H700 0.930 . S
C713 C712 1.376 1_565 S
C713 C714 1.388 . S
C714 H701 0.930 . S
C714 C713 1.388 . S
C714 C715 1.390 . S
C715 C714 1.390 . S
C715 C716 1.394 . S
C715 C721 1.465 . S
C716 C711 1.399 1_565 S
C716 C715 1.394 . S
C716 C717 1.516 . S
C717 C716 1.516 . S
C717 C718 1.502 . S
C717 C719 1.561 1_565 S
C717 C720 1.526 . S
C718 H702 0.959 . S
C718 H703 0.959 1_565 S
C718 H704 0.961 1_565 S
C718 C717 1.502 . S
C719 H705 0.960 . S
C719 H706 0.961 . S
C719 H707 0.959 . S
C719 C717 1.561 1_545 S
C720 C717 1.526 . S
C720 C721 1.396 . S
C720 C725 1.390 . S
C721 C715 1.465 . S
C721 C720 1.396 . S
C721 C722 1.399 . S
C722 H708 0.929 . S
C722 C721 1.399 . S
C722 C723 1.385 . S
C723 H709 0.931 . S
C723 C722 1.385 . S
C723 C724 1.389 . S
C724 C723 1.389 . S
C724 C725 1.387 . S
C725 H710 0.930 . S
C725 C720 1.390 . S
C725 C724 1.387 . S
C253 C171 1.200 . S
C265 C7 1.187 . S
C280 C211 1.163 . S
C292 C47 1.188 . S
C307 C11 1.165 . S
C319 C87 1.184 . S
C334 C51 1.197 . S
C346 C127 1.185 . S
C361 C91 1.168 . S
C373 C167 1.190 . S
C388 C131 1.162 . S
C400 C207 1.186 . S
C415 C10 0.853 . S
C427 C130 0.973 . S
C442 C170 0.854 . S
C454 C50 0.970 . S
C469 C210 0.939 . S
C481 C90 0.979 . S
C496 C99 1.051 . S
C508 C219 1.026 . S
C523 C19 1.051 . S
C535 C139 1.035 . S
C550 C179 1.049 . S
C562 C59 1.038 . S
C577 C202 1.315 . S
C589 C16 1.252 . S
C604 C56 1.253 . S
C616 C2 1.318 . S
C631 C96 1.257 . S
C643 C42 1.310 . S
C658 C82 1.312 . S
C670 C136 1.315 . S
C685 C176 1.252 . S
C697 C122 1.318 . S
C712 C216 1.255 . S
C724 C162 1.311 . S
