# Generated by pormake.
# Topology fst, (5)-cn, num edge types: 1
# Building blocks:
#     Node 0, Type 0, BuildingBlock: XOMCOT_clean_sbu_0, # of connection points: 5
#     Node 1, Type 0, BuildingBlock: XOMCOT_clean_sbu_0, # of connection points: 5
#     Node 2, Type 0, BuildingBlock: XOMCOT_clean_sbu_0, # of connection points: 5
#     Node 3, Type 0, BuildingBlock: XOMCOT_clean_sbu_0, # of connection points: 5
#     Node 4, Type 0, BuildingBlock: XOMCOT_clean_sbu_0, # of connection points: 5
#     Node 5, Type 0, BuildingBlock: XOMCOT_clean_sbu_0, # of connection points: 5
#     Node 6, Type 0, BuildingBlock: XOMCOT_clean_sbu_0, # of connection points: 5
#     Node 7, Type 0, BuildingBlock: XOMCOT_clean_sbu_0, # of connection points: 5
#     Node 8, Type 0, BuildingBlock: XOMCOT_clean_sbu_0, # of connection points: 5
#     Node 9, Type 0, BuildingBlock: XOMCOT_clean_sbu_0, # of connection points: 5
#     Node 10, Type 0, BuildingBlock: XOMCOT_clean_sbu_0, # of connection points: 5
#     Node 11, Type 0, BuildingBlock: XOMCOT_clean_sbu_0, # of connection points: 5
#     Edge 12, Type (0, 0), BuildingBlock: XUDNAN_clean_linker_2, # of connection points: 2
#     Edge 13, Type (0, 0), BuildingBlock: XUDNAN_clean_linker_2, # of connection points: 2
#     Edge 14, Type (0, 0), BuildingBlock: XUDNAN_clean_linker_2, # of connection points: 2
#     Edge 15, Type (0, 0), BuildingBlock: XUDNAN_clean_linker_2, # of connection points: 2
#     Edge 16, Type (0, 0), BuildingBlock: XUDNAN_clean_linker_2, # of connection points: 2
#     Edge 17, Type (0, 0), BuildingBlock: XUDNAN_clean_linker_2, # of connection points: 2
#     Edge 18, Type (0, 0), BuildingBlock: XUDNAN_clean_linker_2, # of connection points: 2
#     Edge 19, Type (0, 0), BuildingBlock: XUDNAN_clean_linker_2, # of connection points: 2
#     Edge 20, Type (0, 0), BuildingBlock: XUDNAN_clean_linker_2, # of connection points: 2
#     Edge 21, Type (0, 0), BuildingBlock: XUDNAN_clean_linker_2, # of connection points: 2
#     Edge 22, Type (0, 0), BuildingBlock: XUDNAN_clean_linker_2, # of connection points: 2
#     Edge 23, Type (0, 0), BuildingBlock: XUDNAN_clean_linker_2, # of connection points: 2
#     Edge 24, Type (0, 0), BuildingBlock: XUDNAN_clean_linker_2, # of connection points: 2
#     Edge 25, Type (0, 0), BuildingBlock: XUDNAN_clean_linker_2, # of connection points: 2
#     Edge 26, Type (0, 0), BuildingBlock: XUDNAN_clean_linker_2, # of connection points: 2
#     Edge 27, Type (0, 0), BuildingBlock: XUDNAN_clean_linker_2, # of connection points: 2
#     Edge 28, Type (0, 0), BuildingBlock: XUDNAN_clean_linker_2, # of connection points: 2
#     Edge 29, Type (0, 0), BuildingBlock: XUDNAN_clean_linker_2, # of connection points: 2
#     Edge 30, Type (0, 0), BuildingBlock: XUDNAN_clean_linker_2, # of connection points: 2
#     Edge 31, Type (0, 0), BuildingBlock: XUDNAN_clean_linker_2, # of connection points: 2
#     Edge 32, Type (0, 0), BuildingBlock: XUDNAN_clean_linker_2, # of connection points: 2
#     Edge 33, Type (0, 0), BuildingBlock: XUDNAN_clean_linker_2, # of connection points: 2
#     Edge 34, Type (0, 0), BuildingBlock: XUDNAN_clean_linker_2, # of connection points: 2
#     Edge 35, Type (0, 0), BuildingBlock: XUDNAN_clean_linker_2, # of connection points: 2
#     Edge 36, Type (0, 0), BuildingBlock: XUDNAN_clean_linker_2, # of connection points: 2
#     Edge 37, Type (0, 0), BuildingBlock: XUDNAN_clean_linker_2, # of connection points: 2
#     Edge 38, Type (0, 0), BuildingBlock: XUDNAN_clean_linker_2, # of connection points: 2
#     Edge 39, Type (0, 0), BuildingBlock: XUDNAN_clean_linker_2, # of connection points: 2
#     Edge 40, Type (0, 0), BuildingBlock: XUDNAN_clean_linker_2, # of connection points: 2
#     Edge 41, Type (0, 0), BuildingBlock: XUDNAN_clean_linker_2, # of connection points: 2
# Relax obj value: 0.183
# Max RMSD: 0.161
# Mean RMSD: 0.161
data_MOF--net-fst--node1-XOMCOT_clean_sbu_0--edge1-XUDNAN_clean_linker_2
_symmetry_space_group_name_H-M    P1
_symmetry_Int_Tables_number       1
_symmetry_cell_setting            triclinic
loop_
_symmetry_equiv_pos_as_xyz
'x, y, z'
_cell_length_a     73.703443
_cell_length_b     73.717174
_cell_length_c     17.718449
_cell_angle_alpha  89.910235
_cell_angle_beta   89.99944
_cell_angle_gamma 119.93999
loop_
_atom_site_label
_atom_site_type_symbol
_atom_site_fract_x
_atom_site_fract_y
_atom_site_fract_z
_atom_type_partial_charge
Co0 Co 0.1212 0.42915 0.05694 0.0
C1 C 0.11875 0.42631 0.2295 0.0
C2 C 0.11557 0.39911 0.17345 0.0
C3 C 0.11291 0.39505 0.2494 0.0
N4 N 0.11911 0.41864 0.16005 0.0
N5 N 0.11482 0.41206 0.28467 0.0
H6 H 0.11999 0.44127 0.24017 0.0
H7 H 0.11416 0.38814 0.13024 0.0
C8 C 0.07598 0.3996 0.08293 0.0
O9 O 0.07868 0.40872 0.14881 0.0
N10 N 0.12345 0.43871 0.95361 0.0
C11 C 0.13373 0.45868 0.92914 0.0
C12 C 0.13238 0.45874 0.85157 0.0
C13 C 0.11614 0.42689 0.89083 0.0
N14 N 0.12134 0.43874 0.8273 0.0
C15 C 0.12483 0.46567 0.12743 0.0
C16 C 0.09154 0.46514 0.05347 0.0
C17 C 0.10482 0.48261 0.09722 0.0
C18 C 0.12141 0.48255 0.13558 0.0
C19 C 0.09531 0.44837 0.04788 0.0
N20 N 0.11174 0.44866 0.08503 0.0
H21 H 0.13869 0.46676 0.15255 0.0
H22 H 0.08585 0.43588 1.00917 0.0
H23 H 0.14175 0.47225 0.96518 0.0
H24 H 0.10763 0.40996 0.89184 0.0
O25 O 0.15078 0.44771 0.06951 0.0
O26 O 0.13678 0.41509 0.02889 0.0
O27 O 0.09142 0.40589 0.03702 0.0
C28 C 0.15359 0.4327 0.04533 0.0
H29 H 0.10936 0.38048 0.2766 0.0
H30 H 0.13896 0.47252 0.81604 0.0
H31 H 0.07874 0.46472 0.02197 0.0
H32 H 0.13241 0.49599 0.16823 0.0
Co33 Co 0.68946 0.11964 0.06462 0.0
C34 C 0.68836 0.11652 0.2344 0.0
C35 C 0.7086 0.10723 0.18072 0.0
C36 C 0.70865 0.10392 0.25684 0.0
N37 N 0.69586 0.11498 0.16628 0.0
N38 N 0.69591 0.10965 0.29069 0.0
H39 H 0.67709 0.12168 0.2424 0.0
H40 H 0.71689 0.10367 0.13818 0.0
C41 C 0.66732 0.07535 1.0016 0.0
O42 O 0.65429 0.0793 0.96407 0.0
N43 N 0.68378 0.12422 0.96072 0.0
C44 C 0.67705 0.13713 0.93547 0.0
C45 C 0.67647 0.13663 0.85781 0.0
C46 C 0.688 0.11674 0.8974 0.0
N47 N 0.68323 0.12369 0.83374 0.0
C48 C 0.65582 0.12712 0.099 0.0
C49 C 0.62425 0.08598 0.11007 0.0
C50 C 0.61895 0.10172 0.10252 0.0
C51 C 0.63508 0.12256 0.10186 0.0
C52 C 0.64542 0.09139 0.10946 0.0
N53 N 0.66073 0.11155 0.09489 0.0
H54 H 0.6678 0.14333 0.09559 0.0
H55 H 0.64925 0.07922 0.11805 0.0
H56 H 0.67334 0.14685 0.97006 0.0
H57 H 0.6947 0.10661 0.89803 0.0
O58 O 0.70217 0.14913 0.08364 0.0
O59 O 0.71944 0.13405 0.04 0.0
O60 O 0.68195 0.08969 0.04128 0.0
C61 C 0.71973 0.15122 0.05987 0.0
H62 H 0.71719 0.09748 0.28524 0.0
H63 H 0.6713 0.14507 0.82199 0.0
H64 H 0.61219 0.06969 0.11452 0.0
H65 H 0.63174 0.13528 0.09822 0.0
Co66 Co 0.5708 0.69102 0.02574 0.0
C67 C 0.56946 0.68674 0.19223 0.0
C68 C 0.60098 0.70304 0.15017 0.0
C69 C 0.60162 0.70178 0.22767 0.0
N70 N 0.58082 0.69354 0.12816 0.0
N71 N 0.58179 0.69149 0.25413 0.0
H72 H 0.55252 0.67869 0.19328 0.0
H73 H 0.61428 0.71038 0.11248 0.0
C74 C 0.59271 0.66916 0.95878 0.0
O75 O 0.57519 0.65497 0.92723 0.0
N76 N 0.56077 0.68908 0.92159 0.0
C77 C 0.54332 0.68961 0.90153 0.0
C78 C 0.54065 0.68735 0.825 0.0
C79 C 0.56915 0.68777 0.85487 0.0
N80 N 0.5568 0.68611 0.7957 0.0
C81 C 0.5299 0.65475 0.03216 0.0
C82 C 0.54177 0.626 0.07286 0.0
C83 C 0.52085 0.61878 0.0527 0.0
C84 C 0.51489 0.63358 0.03512 0.0
C85 C 0.55628 0.64754 0.07058 0.0
N86 N 0.55058 0.66141 0.04386 0.0
H87 H 0.52475 0.66573 0.01983 0.0
H88 H 0.57226 0.65293 0.08756 0.0
H89 H 0.533 0.69163 0.93943 0.0
H90 H 0.58378 0.6879 0.84895 0.0
O91 O 0.55373 0.70259 0.05725 0.0
O92 O 0.58626 0.72148 1.01564 0.0
O93 O 0.59347 0.68471 0.99367 0.0
C94 C 0.56933 0.72095 0.0404 0.0
H95 H 0.61563 0.70772 0.26166 0.0
H96 H 0.52779 0.68663 0.79301 0.0
H97 H 0.54688 0.61512 0.08964 0.0
H98 H 0.49882 0.62883 0.02109 0.0
Co99 Co 0.883 0.57113 0.03119 0.0
C100 C 0.87979 0.57805 0.19792 0.0
C101 C 0.9082 0.57862 0.16745 0.0
C102 C 0.90818 0.58122 0.2441 0.0
N103 N 0.89047 0.57668 0.13788 0.0
N104 N 0.89033 0.5809 0.26382 0.0
H105 H 0.86454 0.5767 0.19377 0.0
H106 H 0.92013 0.57748 0.13577 0.0
C107 C 0.92759 0.59601 0.95802 0.0
O108 O 0.92278 0.58882 0.88887 0.0
N109 N 0.8753 0.5651 0.92528 0.0
C110 C 0.8608 0.54589 0.90123 0.0
C111 C 0.8568 0.54688 0.82629 0.0
C112 C 0.87967 0.57774 0.86419 0.0
N113 N 0.86866 0.5668 0.80285 0.0
C114 C 0.8758 0.53204 0.09283 0.0
C115 C 0.89912 0.52483 0.98714 0.0
C116 C 0.88899 0.51006 0.04444 0.0
C117 C 0.87726 0.51385 0.09803 0.0
C118 C 0.89754 0.5429 0.98475 0.0
N119 N 0.88611 0.54643 0.03729 0.0
H120 H 0.86634 0.5346 0.13334 0.0
H121 H 0.90496 0.55365 0.939 0.0
H122 H 0.85322 0.5321 0.93662 0.0
H123 H 0.8901 0.59451 0.865 0.0
O124 O 0.85339 0.55857 0.0542 0.0
O125 O 0.87483 0.59223 0.0299 0.0
O126 O 0.91376 0.58995 1.01 0.0
C127 C 0.85596 0.57727 0.04538 0.0
H128 H 0.92013 0.58238 0.28242 0.0
H129 H 0.84592 0.53395 0.79142 0.0
H130 H 0.90835 0.52252 0.94467 0.0
H131 H 0.86899 0.5027 0.14275 0.0
Co132 Co 0.30791 0.88391 0.05861 0.0
C133 C 0.31105 0.8873 0.22979 0.0
C134 C 0.29058 0.89683 0.17977 0.0
C135 C 0.29141 0.90044 0.25579 0.0
N136 N 0.30306 0.88887 0.1627 0.0
N137 N 0.30428 0.89454 0.28714 0.0
H138 H 0.32229 0.8821 0.23671 0.0
H139 H 0.28209 0.90063 0.13887 0.0
C140 C 0.32997 0.92984 0.08043 0.0
O141 O 0.33689 0.92618 0.14365 0.0
N142 N 0.31184 0.87866 0.9547 0.0
C143 C 0.31648 0.86408 0.93125 0.0
C144 C 0.31844 0.86519 0.85401 0.0
C145 C 0.31097 0.88845 0.89154 0.0
N146 N 0.31497 0.88049 0.82889 0.0
C147 C 0.33945 0.87479 0.11436 0.0
C148 C 0.37145 0.9056 0.0291 0.0
C149 C 0.37457 0.89025 0.06269 0.0
C150 C 0.35863 0.87508 0.10824 0.0
C151 C 0.35223 0.90464 0.03584 0.0
N152 N 0.33632 0.88934 0.07765 0.0
H153 H 0.32661 0.8619 0.14362 0.0
H154 H 0.34972 0.91504 1.00033 0.0
H155 H 0.31857 0.85354 0.96799 0.0
H156 H 0.30735 0.90097 0.89155 0.0
O157 O 0.29213 0.85389 0.07648 0.0
O158 O 0.27853 0.87326 0.03917 0.0
O159 O 0.31853 0.91467 0.03586 0.0
C160 C 0.27557 0.8549 0.05773 0.0
H161 H 0.28351 0.90731 0.28577 0.0
H162 H 0.32255 0.85571 0.8193 0.0
H163 H 0.38328 0.91741 0.99265 0.0
H164 H 0.36036 0.86269 0.13392 0.0
Co165 Co 0.4339 0.31558 0.05988 0.0
C166 C 0.42721 0.31075 0.22782 0.0
C167 C 0.43441 0.34104 0.18674 0.0
C168 C 0.43208 0.34076 0.26368 0.0
N169 N 0.43164 0.32236 0.16406 0.0
N170 N 0.42753 0.32174 0.28933 0.0
H171 H 0.42419 0.29482 0.22994 0.0
H172 H 0.43803 0.3541 0.14972 0.0
C173 C 0.39518 0.31711 0.03439 0.0
O174 O 0.38507 0.29681 0.04579 0.0
N175 N 0.43653 0.30935 0.95563 0.0
C176 C 0.45384 0.31002 0.92736 0.0
C177 C 0.45183 0.30758 0.85055 0.0
C178 C 0.42404 0.30633 0.89547 0.0
N179 N 0.43315 0.30521 0.83076 0.0
C180 C 0.47559 0.34911 0.08938 0.0
C181 C 0.47685 0.37415 0.97049 0.0
C182 C 0.49495 0.38047 1.01368 0.0
C183 C 0.49409 0.36794 0.07483 0.0
C184 C 0.45866 0.35545 0.98755 0.0
N185 N 0.45828 0.34307 0.04564 0.0
H186 H 0.47521 0.33911 0.13481 0.0
H187 H 0.44511 0.35051 0.95194 0.0
H188 H 0.46748 0.31313 0.96007 0.0
H189 H 0.40925 0.30607 0.89814 0.0
O190 O 0.44763 0.30003 0.08974 0.0
O191 O 0.41343 0.28638 0.0768 0.0
O192 O 0.41514 0.32713 0.0324 0.0
C193 C 0.42912 0.28346 0.09053 0.0
H194 H 0.43349 0.3535 0.29822 0.0
H195 H 0.46348 0.30825 0.81166 0.0
H196 H 0.47685 0.38345 0.92311 0.0
H197 H 0.50781 0.37224 0.10918 0.0
Co198 Co 0.56705 0.88434 1.0141 0.0
C199 C 0.5718 0.88021 0.84739 0.0
C200 C 0.5879 0.91215 0.88352 0.0
C201 C 0.58994 0.91173 0.8067 0.0
N202 N 0.57666 0.89239 0.90988 0.0
N203 N 0.57966 0.89166 0.78321 0.0
H204 H 0.56192 0.86339 0.84858 0.0
H205 H 0.59364 0.92622 0.91651 0.0
C206 C 0.60605 0.9228 0.05991 0.0
O207 O 0.61537 0.91157 0.06014 0.0
N208 N 0.5572 0.87628 0.11702 0.0
C209 C 0.53733 0.86202 0.13528 0.0
C210 C 0.53623 0.85807 0.21138 0.0
C211 C 0.568 0.88097 0.18272 0.0
N212 N 0.55544 0.86995 0.24117 0.0
C213 C 0.53058 0.88019 0.94299 0.0
C214 C 0.52413 0.90547 0.04177 0.0
C215 C 0.50876 0.89393 0.98753 0.0
C216 C 0.5124 0.88148 0.9369 0.0
C217 C 0.54221 0.90381 0.04574 0.0
N218 N 0.54505 0.89101 0.99744 0.0
H219 H 0.53258 0.86968 0.90606 0.0
H220 H 0.55339 0.91198 0.09018 0.0
H221 H 0.52461 0.8545 0.09533 0.0
H222 H 0.58472 0.89143 0.18722 0.0
O223 O 0.5517 0.85527 0.9871 0.0
O224 O 0.5846 0.87144 0.02585 0.0
O225 O 0.58645 0.91401 0.04697 0.0
C226 C 0.56802 0.85399 1.00606 0.0
H227 H 0.59807 0.92543 0.77122 0.0
H228 H 0.52243 0.84707 0.24252 0.0
H229 H 0.52203 0.9154 0.08165 0.0
H230 H 0.50087 0.87201 0.8949 0.0
Co231 Co 0.69106 0.57522 0.02178 0.0
C232 C 0.68864 0.57794 0.85125 0.0
C233 C 0.71489 0.6047 0.90049 0.0
C234 C 0.71473 0.60827 0.82457 0.0
N235 N 0.69861 0.58564 0.91809 0.0
N236 N 0.69832 0.59147 0.79361 0.0
H237 H 0.67415 0.56337 0.84452 0.0
H238 H 0.72596 0.61579 0.94026 0.0
C239 C 0.68702 0.61264 0.04593 0.0
O240 O 0.70705 0.62247 0.06235 0.0
N241 N 0.68388 0.56554 0.12516 0.0
C242 C 0.67636 0.54577 0.14974 0.0
C243 C 0.67437 0.54542 0.22707 0.0
C244 C 0.68658 0.57701 0.18791 0.0
N245 N 0.68085 0.56509 0.25139 0.0
C246 C 0.66478 0.53568 0.95086 0.0
C247 C 0.62729 0.53043 1.00557 0.0
C248 C 0.62725 0.51399 0.9659 0.0
C249 C 0.64625 0.5169 0.9372 0.0
C250 C 0.6461 0.54907 0.01693 0.0
N251 N 0.66456 0.55154 0.98979 0.0
H252 H 0.67942 0.5374 0.93106 0.0
H253 H 0.64582 0.561 0.05134 0.0
H254 H 0.67278 0.53252 0.11397 0.0
H255 H 0.69316 0.59381 0.18705 0.0
O256 O 0.70851 0.56237 0.01631 0.0
O257 O 0.71944 0.59469 0.05436 0.0
O258 O 0.6776 0.59309 0.03163 0.0
C259 C 0.72383 0.57999 0.04068 0.0
H260 H 0.72571 0.62228 0.79436 0.0
H261 H 0.66853 0.53165 0.26237 0.0
H262 H 0.61294 0.52874 0.02889 0.0
H263 H 0.64691 0.50447 0.90707 0.0
Co264 Co 0.12059 0.68392 0.02157 0.0
C265 C 0.12935 0.68878 0.85603 0.0
C266 C 0.10835 0.69936 0.89249 0.0
C267 C 0.11041 0.70153 0.81564 0.0
N268 N 0.12003 0.69124 0.91769 0.0
N269 N 0.12356 0.69489 0.79285 0.0
H270 H 0.13941 0.68199 0.85694 0.0
H271 H 0.09865 0.70306 0.92767 0.0
C272 C 0.07886 0.67499 0.06592 0.0
O273 O 0.08898 0.68994 0.11552 0.0
N274 N 0.1201 0.67603 0.1265 0.0
C275 C 0.10643 0.65682 0.1535 0.0
C276 C 0.1086 0.65668 0.23016 0.0
C277 C 0.13058 0.68739 0.18778 0.0
N278 N 0.12372 0.67582 0.25157 0.0
C279 C 0.1361 0.65581 0.01864 0.0
C280 C 0.09974 0.62127 0.96821 0.0
C281 C 0.11508 0.61836 1.00394 0.0
C282 C 0.1339 0.63599 0.02523 0.0
C283 C 0.10256 0.64153 0.96278 0.0
N284 N 0.11997 0.6582 0.99289 0.0
H285 H 0.14988 0.66898 0.0422 0.0
H286 H 0.09004 0.64349 0.94004 0.0
H287 H 0.09503 0.64392 0.11996 0.0
H288 H 0.14213 0.70387 0.18678 0.0
O289 O 0.15068 0.70266 0.02448 0.0
O290 O 0.12703 0.71191 0.04974 0.0
O291 O 0.08912 0.66957 0.02255 0.0
C292 C 0.14667 0.71743 0.04198 0.0
H293 H 0.10263 0.70727 0.77895 0.0
H294 H 0.09934 0.6437 0.26783 0.0
H295 H 0.08506 0.60796 0.9505 0.0
H296 H 0.14616 0.63432 0.05235 0.0
Co297 Co 0.43784 0.12507 0.0387 0.0
C298 C 0.44327 0.13519 0.87375 0.0
C299 C 0.41109 0.11765 0.90901 0.0
C300 C 0.41158 0.11976 0.83197 0.0
N301 N 0.43087 0.12714 0.9352 0.0
N302 N 0.43174 0.13075 0.80996 0.0
H303 H 0.4602 0.14304 0.87507 0.0
H304 H 0.39724 0.10898 0.94347 0.0
C305 C 0.40345 0.08256 0.07301 0.0
O306 O 0.39894 0.09079 0.13065 0.0
N307 N 0.4443 0.12203 0.1428 0.0
C308 C 0.44765 0.10657 0.16689 0.0
C309 C 0.45005 0.10782 0.24382 0.0
C310 C 0.44502 0.13273 0.2059 0.0
N311 N 0.44842 0.12423 0.26818 0.0
C312 C 0.48107 0.1372 0.03358 0.0
C313 C 0.47584 0.10126 0.96476 0.0
C314 C 0.49538 0.11508 0.99726 0.0
C315 C 0.49806 0.13378 0.02862 0.0
C316 C 0.4594 0.10554 0.96922 0.0
N317 N 0.46185 0.12273 1.00718 0.0
H318 H 0.48303 0.15089 0.06298 0.0
H319 H 0.44443 0.09441 0.94547 0.0
H320 H 0.44777 0.09478 0.13103 0.0
H321 H 0.44235 0.14588 0.20721 0.0
O322 O 0.45091 0.15524 0.04931 0.0
O323 O 0.41745 0.13264 0.0711 0.0
O324 O 0.4191 0.094 0.03112 0.0
C325 C 0.43243 0.15205 0.06771 0.0
H326 H 0.39819 0.11318 0.79452 0.0
H327 H 0.45253 0.0973 0.27944 0.0
H328 H 0.47276 0.08665 0.93945 0.0
H329 H 0.51295 0.14546 0.05173 0.0
Co330 Co 0.3198 0.43645 1.00305 0.0
C331 C 0.31592 0.43431 0.83338 0.0
C332 C 0.30408 0.40438 0.88747 0.0
C333 C 0.30048 0.4012 0.81149 0.0
N334 N 0.31375 0.42506 0.90164 0.0
N335 N 0.30776 0.41991 0.7772 0.0
H336 H 0.32251 0.451 0.8254 0.0
H337 H 0.29937 0.3923 0.92996 0.0
C338 C 0.3402 0.41391 0.07602 0.0
O339 O 0.35304 0.43093 0.11341 0.0
N340 N 0.32514 0.44703 0.10664 0.0
C341 C 0.33585 0.46698 0.13156 0.0
C342 C 0.33468 0.46707 0.20913 0.0
C343 C 0.3171 0.43537 0.16992 0.0
N344 N 0.32288 0.44719 0.23338 0.0
C345 C 0.35417 0.47669 0.96363 0.0
C346 C 0.38498 0.46586 0.95918 0.0
C347 C 0.39094 0.48716 0.9627 0.0
C348 C 0.37509 0.49238 0.95942 0.0
C349 C 0.36367 0.4506 0.96196 0.0
N350 N 0.34876 0.45622 0.97309 0.0
H351 H 0.34245 0.48136 0.96474 0.0
H352 H 0.35943 0.43439 0.95749 0.0
H353 H 0.34344 0.48081 0.09695 0.0
H354 H 0.30723 0.41851 0.16928 0.0
O355 O 0.30752 0.45356 0.98052 0.0
O356 O 0.28982 0.42131 0.02536 0.0
O357 O 0.32652 0.41387 0.03155 0.0
C358 C 0.28973 0.43813 1.00313 0.0
H359 H 0.29277 0.38614 0.78356 0.0
H360 H 0.34134 0.48082 0.24471 0.0
H361 H 0.39658 0.46094 0.95771 0.0
H362 H 0.37878 0.50854 0.95673 0.0
Co363 Co 0.88505 0.31402 0.99334 0.0
C364 C 0.88085 0.30952 0.82297 0.0
C365 C 0.8954 0.29373 0.87545 0.0
C366 C 0.89377 0.28956 0.79973 0.0
N367 N 0.88737 0.30622 0.89063 0.0
N368 N 0.8846 0.29939 0.76659 0.0
H369 H 0.87293 0.31836 0.81501 0.0
H370 H 0.90157 0.28756 0.91725 0.0
C371 C 0.92404 0.31346 0.04274 0.0
O372 O 0.91313 0.29643 0.08294 0.0
N373 N 0.88288 0.32127 0.09761 0.0
C374 C 0.87788 0.33561 0.12158 0.0
C375 C 0.87632 0.33478 0.19904 0.0
C376 C 0.88365 0.31151 0.16124 0.0
N377 N 0.87987 0.31957 0.22403 0.0
C378 C 0.8795 0.34696 0.93145 0.0
C379 C 0.91535 0.37929 0.9946 0.0
C380 C 0.8996 0.38324 0.97005 0.0
C381 C 0.88205 0.3671 0.93396 0.0
C382 C 0.91226 0.35904 0.99095 0.0
N383 N 0.89395 0.34284 0.9635 0.0
H384 H 0.86485 0.33435 0.91078 0.0
H385 H 0.92379 0.35638 0.01811 0.0
H386 H 0.87477 0.34558 0.08568 0.0
H387 H 0.88628 0.29837 0.1616 0.0
O388 O 0.85534 0.30216 0.98292 0.0
O389 O 0.87043 0.28426 0.02056 0.0
O390 O 0.91514 0.32184 1.00688 0.0
C391 C 0.85321 0.28446 1.00552 0.0
H392 H 0.8988 0.27986 0.77112 0.0
H393 H 0.87194 0.34403 0.23392 0.0
H394 H 0.92929 0.39142 0.02193 0.0
H395 H 0.86948 0.36949 0.91435 0.0
H396 H 0.10557 0.58297 0.92058 0.0
H397 H 0.11469 0.60707 0.14884 0.0
H398 H 0.10956 0.57353 0.19826 0.0
H399 H 0.06613 0.52794 0.96707 0.0
H400 H 0.07667 0.51725 0.90005 0.0
H401 H 0.0788 0.54234 0.88249 0.0
H402 H 0.11902 0.55923 0.8688 0.0
H403 H 0.11701 0.53423 0.8862 0.0
H404 H 0.13386 0.5564 0.9442 0.0
H405 H 0.10649 0.53901 0.22276 0.0
H406 H 0.10616 0.50535 0.22061 0.0
H407 H 0.0993 0.50301 0.97706 0.0
C408 C 0.10608 0.58093 0.98093 0.0
C409 C 0.11049 0.59749 0.03112 0.0
C410 C 0.1114 0.59452 0.10968 0.0
C411 C 0.1084 0.57552 0.13826 0.0
C412 C 0.10448 0.55958 0.08755 0.0
C413 C 0.10329 0.56199 1.01056 0.0
C414 C 0.10036 0.54279 0.96847 0.0
C415 C 0.07923 0.53194 0.92708 0.0
C416 C 0.11866 0.54851 0.9137 0.0
C417 C 0.10059 0.52951 0.03369 0.0
C418 C 0.10276 0.53945 0.10188 0.0
C419 C 0.10454 0.53093 0.16984 0.0
C420 C 0.10442 0.51187 0.16808 0.0
C421 C 0.10255 0.50152 0.09886 0.0
C422 C 0.10028 0.51035 0.03098 0.0
H423 H 0.59695 0.11798 0.17215 0.0
H424 H 0.59264 0.07569 0.99438 0.0
H425 H 0.55976 0.07341 0.94962 0.0
H426 H 0.53942 0.09261 0.20773 0.0
H427 H 0.54105 0.11742 0.2262 0.0
H428 H 0.5629 0.11377 0.24819 0.0
H429 H 0.58693 0.14609 0.16591 0.0
H430 H 0.56511 0.14957 0.1423 0.0
H431 H 0.58027 0.14668 0.06837 0.0
H432 H 0.53037 0.08013 0.91338 0.0
H433 H 0.50391 0.09095 0.89923 0.0
H434 H 0.52571 0.12646 0.10779 0.0
C435 C 0.58873 0.10778 0.12514 0.0
C436 C 0.5972 0.09687 0.08698 0.0
C437 C 0.58619 0.08387 0.02514 0.0
C438 C 0.56762 0.08264 0.99895 0.0
C439 C 0.56009 0.09423 0.0361 0.0
C440 C 0.57002 0.10612 0.09907 0.0
C441 C 0.55902 0.11749 0.12763 0.0
C442 C 0.55006 0.10986 0.20715 0.0
C443 C 0.57371 0.14137 0.12592 0.0
C444 C 0.54174 0.11065 0.06959 0.0
C445 C 0.54267 0.09734 0.01705 0.0
C446 C 0.52915 0.09011 0.95539 0.0
C447 C 0.51405 0.09632 0.94807 0.0
C448 C 0.5123 0.10947 1.00264 0.0
C449 C 0.52651 0.11664 0.06413 0.0
H450 H 0.40528 0.52234 0.04938 0.0
H451 H 0.42705 0.49 0.9028 0.0
H452 H 0.46358 0.51851 0.92198 0.0
H453 H 0.43937 0.57291 0.98002 0.0
H454 H 0.44295 0.58547 0.07034 0.0
H455 H 0.41909 0.56151 0.05069 0.0
H456 H 0.42491 0.54453 0.16968 0.0
H457 H 0.44893 0.56843 0.18933 0.0
H458 H 0.44905 0.54414 0.18001 0.0
H459 H 0.49783 0.55225 0.95171 0.0
H460 H 0.52566 0.5884 0.98188 0.0
H461 H 0.4806 0.59827 0.10567 0.0
C462 C 0.41764 0.52119 0.02075 0.0
C463 C 0.41316 0.5039 0.97401 0.0
C464 C 0.43 0.50295 0.93931 0.0
C465 C 0.45082 0.5191 0.94986 0.0
C466 C 0.45456 0.53603 0.9956 0.0
C467 C 0.43834 0.53712 0.03027 0.0
C468 C 0.44613 0.55744 0.07291 0.0
C469 C 0.4363 0.57007 0.04159 0.0
C470 C 0.44201 0.55338 0.15803 0.0
C471 C 0.46926 0.56795 0.05545 0.0
C472 C 0.47396 0.5553 1.01183 0.0
C473 C 0.4943 0.56217 0.9864 0.0
C474 C 0.51005 0.58267 1.00421 0.0
C475 C 0.50528 0.59611 0.04619 0.0
C476 C 0.48471 0.58836 0.07349 0.0
H477 H 0.891 0.40941 0.88398 0.0
H478 H 0.90831 0.40073 0.10965 0.0
H479 H 0.90712 0.43185 0.15317 0.0
H480 H 0.9214 0.46632 0.88557 0.0
H481 H 0.90216 0.46947 0.83331 0.0
H482 H 0.90448 0.44651 0.81941 0.0
H483 H 0.86513 0.42297 0.85136 0.0
H484 H 0.86273 0.44586 0.86573 0.0
H485 H 0.85519 0.42658 0.93963 0.0
H486 H 0.90267 0.46294 0.17414 0.0
H487 H 0.89791 0.49383 0.16837 0.0
H488 H 0.88449 0.48329 0.92893 0.0
C489 C 0.89464 0.41418 0.94237 0.0
C490 C 0.89997 0.40278 0.99322 0.0
C491 C 0.90459 0.40946 0.06932 0.0
C492 C 0.90379 0.42701 0.09479 0.0
C493 C 0.89845 0.43787 0.04346 0.0
C494 C 0.89416 0.43189 0.96868 0.0
C495 C 0.88912 0.44657 0.92521 0.0
C496 C 0.90526 0.45789 0.86215 0.0
C497 C 0.86671 0.43479 0.89364 0.0
C498 C 0.89114 0.4616 0.98737 0.0
C499 C 0.89636 0.45617 0.05526 0.0
C500 C 0.89868 0.46742 0.12122 0.0
C501 C 0.89583 0.48485 0.11755 0.0
C502 C 0.8909 0.49097 0.04828 0.0
C503 C 0.88847 0.47909 0.98252 0.0
H504 H 0.40467 0.88889 0.1526 0.0
H505 H 0.38616 0.88831 0.91978 0.0
H506 H 0.4184 0.88938 0.87614 0.0
H507 H 0.45909 0.9245 0.12563 0.0
H508 H 0.46804 0.91158 0.18959 0.0
H509 H 0.44291 0.90957 0.20408 0.0
H510 H 0.42488 0.8691 0.20161 0.0
H511 H 0.45 0.87099 0.18807 0.0
H512 H 0.42908 0.85638 0.12216 0.0
H513 H 0.45304 0.89246 0.85665 0.0
H514 H 0.48762 0.89499 0.8623 0.0
H515 H 0.48425 0.89295 0.10716 0.0
C516 C 0.40734 0.88865 0.0926 0.0
C517 C 0.39305 0.88866 0.03945 0.0
C518 C 0.39706 0.88852 0.9613 0.0
C519 C 0.4153 0.88911 0.93595 0.0
C520 C 0.4294 0.88973 0.98941 0.0
C521 C 0.42564 0.88929 0.06607 0.0
C522 C 0.44374 0.89046 0.11098 0.0
C523 C 0.45405 0.9102 0.16049 0.0
C524 C 0.43649 0.87054 0.1585 0.0
C525 C 0.45821 0.8918 0.04749 0.0
C526 C 0.44956 0.89136 0.97794 0.0
C527 C 0.45993 0.89261 0.91074 0.0
C528 C 0.47955 0.894 0.91454 0.0
C529 C 0.48865 0.89405 0.98505 0.0
C530 C 0.47784 0.89315 0.05238 0.0
H531 H 0.59874 0.49115 0.07588 0.0
H532 H 0.61182 0.49071 0.83743 0.0
H533 H 0.57936 0.45647 0.82382 0.0
H534 H 0.57857 0.43618 0.10723 0.0
H535 H 0.55885 0.43355 0.17354 0.0
H536 H 0.5828 0.45821 0.16411 0.0
H537 H 0.5615 0.47676 0.1363 0.0
H538 H 0.53749 0.45217 0.14586 0.0
H539 H 0.54266 0.46735 0.06061 0.0
H540 H 0.54522 0.42274 0.83589 0.0
H541 H 0.51243 0.39102 0.87351 0.0
H542 H 0.52214 0.41277 0.10523 0.0
C543 C 0.59465 0.48391 0.02069 0.0
C544 C 0.60767 0.4936 0.95747 0.0
C545 C 0.60205 0.48349 0.88649 0.0
C546 C 0.58365 0.4641 0.87825 0.0
C547 C 0.57117 0.45496 0.94173 0.0
C548 C 0.57648 0.46446 1.01169 0.0
C549 C 0.56061 0.45107 0.07123 0.0
C550 C 0.57082 0.44436 0.13264 0.0
C551 C 0.54993 0.46252 0.1055 0.0
C552 C 0.54546 0.4326 0.02375 0.0
C553 C 0.55179 0.43523 0.94913 0.0
C554 C 0.54014 0.42048 0.89417 0.0
C555 C 0.52152 0.40258 0.91599 0.0
C556 C 0.51479 0.39948 0.99221 0.0
C557 C 0.52703 0.41467 0.04673 0.0
H558 H 0.24812 0.40747 0.02551 0.0
H559 H 0.28865 0.47406 0.98567 0.0
H560 H 0.2582 0.47916 0.99006 0.0
H561 H 0.20463 0.40238 0.91099 0.0
H562 H 0.18465 0.38383 0.97346 0.0
H563 H 0.20961 0.38497 0.9675 0.0
H564 H 0.21438 0.39067 0.11192 0.0
H565 H 0.18943 0.38954 0.11833 0.0
H566 H 0.21266 0.41199 0.15423 0.0
H567 H 0.22445 0.47791 1.00345 0.0
H568 H 0.18813 0.47006 0.01985 0.0
H569 H 0.16771 0.40402 0.04538 0.0
C570 C 0.25051 0.42308 0.01766 0.0
C571 C 0.27083 0.44038 1.0053 0.0
C572 C 0.27331 0.46055 0.99498 0.0
C573 C 0.25609 0.46365 0.99746 0.0
C574 C 0.23635 0.4464 1.00967 0.0
C575 C 0.23332 0.42647 0.01911 0.0
C576 C 0.21019 0.41075 0.0308 0.0
C577 C 0.20178 0.39452 0.96687 0.0
C578 C 0.20645 0.40011 0.10845 0.0
C579 C 0.20086 0.42507 0.0271 0.0
C580 C 0.21639 0.44557 1.01522 0.0
C581 C 0.21211 0.46191 1.01224 0.0
C582 C 0.19141 0.45729 0.02189 0.0
C583 C 0.17509 0.43645 0.03364 0.0
C584 C 0.17986 0.42006 0.03564 0.0
H585 H 0.84103 0.24209 0.01839 0.0
H586 H 0.81715 0.28537 1.01509 0.0
H587 H 0.78134 0.25603 0.02899 0.0
H588 H 0.79844 0.20142 0.91003 0.0
H589 H 0.79735 0.17997 0.96277 0.0
H590 H 0.8217 0.20434 0.95491 0.0
H591 H 0.82472 0.20684 0.10052 0.0
H592 H 0.8004 0.18246 0.10884 0.0
H593 H 0.8035 0.20557 0.15532 0.0
H594 H 0.74853 0.22324 0.04397 0.0
H595 H 0.71913 0.18744 0.056 0.0
H596 H 0.76211 0.16326 0.04544 0.0
C597 C 0.82822 0.2453 0.02105 0.0
C598 C 0.83195 0.2661 1.01569 0.0
C599 C 0.81477 0.26965 0.01873 0.0
C600 C 0.79431 0.25307 0.02681 0.0
C601 C 0.79109 0.23285 0.03133 0.0
C602 C 0.80741 0.22873 0.02832 0.0
C603 C 0.79908 0.20522 0.03287 0.0
C604 C 0.80446 0.19727 0.96084 0.0
C605 C 0.80743 0.1997 0.1036 0.0
C606 C 0.77561 0.19696 0.03888 0.0
C607 C 0.77159 0.21337 0.03834 0.0
C608 C 0.75142 0.21022 0.04439 0.0
C609 C 0.7348 0.18975 0.05142 0.0
C610 C 0.73824 0.17247 0.05181 0.0
C611 C 0.75898 0.17613 0.04498 0.0
H612 H 0.59859 0.76279 1.01038 0.0
H613 H 0.53412 0.7215 0.07944 0.0
H614 H 0.52791 0.75118 0.08001 0.0
H615 H 0.60611 0.80793 0.12429 0.0
H616 H 0.62194 0.82702 0.05398 0.0
H617 H 0.62203 0.80266 0.06073 0.0
H618 H 0.61159 0.79523 0.91992 0.0
H619 H 0.61137 0.8195 0.91282 0.0
H620 H 0.58843 0.79523 0.88723 0.0
H621 H 0.52721 0.78367 0.06515 0.0
H622 H 0.53278 0.81898 0.04492 0.0
H623 H 0.59817 0.84163 0.99175 0.0
C624 C 0.58327 0.7601 0.02632 0.0
C625 C 0.56684 0.73971 0.04481 0.0
C626 C 0.54699 0.73686 0.06513 0.0
C627 C 0.54325 0.75366 0.06557 0.0
C628 C 0.55955 0.7734 0.04627 0.0
C629 C 0.57925 0.77691 0.02784 0.0
C630 C 0.59379 0.79996 1.00912 0.0
C631 C 0.61205 0.80999 0.0654 0.0
C632 C 0.60176 0.80263 0.92741 0.0
C633 C 0.57899 0.80862 0.01893 0.0
C634 C 0.55932 0.79281 0.03997 0.0
C635 C 0.54257 0.79625 0.04937 0.0
C636 C 0.5459 0.81639 0.03722 0.0
C637 C 0.56589 0.83308 0.01665 0.0
C638 C 0.58277 0.8292 1.00798 0.0
H639 H 0.73665 0.55082 0.03209 0.0
H640 H 0.75961 0.61697 0.06868 0.0
H641 H 0.79572 0.62322 0.07787 0.0
H642 H 0.77295 0.54665 0.16155 0.0
H643 H 0.77597 0.52843 0.10251 0.0
H644 H 0.75183 0.52905 0.10085 0.0
H645 H 0.7554 0.53493 0.95614 0.0
H646 H 0.77955 0.53437 0.95738 0.0
H647 H 0.77893 0.55661 0.91793 0.0
H648 H 0.82951 0.62266 0.07549 0.0
H649 H 0.85853 0.61507 0.06768 0.0
H650 H 0.81373 0.54908 0.03773 0.0
C651 C 0.74926 0.5666 0.04253 0.0
C652 C 0.74531 0.58343 0.04964 0.0
C653 C 0.76224 0.60383 0.0633 0.0
C654 C 0.78282 0.60754 0.06851 0.0
C655 C 0.78621 0.59065 0.06067 0.0
C656 C 0.7699 0.57055 0.04861 0.0
C657 C 0.77786 0.5552 0.04163 0.0
C658 C 0.76913 0.53887 0.10545 0.0
C659 C 0.77262 0.54466 0.96363 0.0
C660 C 0.80122 0.56986 0.05058 0.0
C661 C 0.80568 0.59025 0.06132 0.0
C662 C 0.82619 0.60672 0.06787 0.0
C663 C 0.84257 0.60227 0.06316 0.0
C664 C 0.83838 0.58149 0.05262 0.0
C665 C 0.8174 0.56508 0.04682 0.0
H666 H 0.18925 0.73296 0.04715 0.0
H667 H 0.14213 0.75183 0.05492 0.0
H668 H 0.16999 0.78888 0.06187 0.0
H669 H 0.22552 0.7726 0.17851 0.0
H670 H 0.24848 0.77651 0.12832 0.0
H671 H 0.22482 0.7514 0.12552 0.0
H672 H 0.22528 0.75286 0.97939 0.0
H673 H 0.24888 0.778 0.98172 0.0
H674 H 0.22614 0.775 0.93245 0.0
H675 H 0.20279 0.82387 0.06049 0.0
H676 H 0.23846 0.85454 0.05916 0.0
H677 H 0.26463 0.81327 0.05781 0.0
C678 C 0.18481 0.74489 0.05082 0.0
C679 C 0.1635 0.73951 0.0504 0.0
C680 C 0.15833 0.75557 0.05538 0.0
C681 C 0.17405 0.77667 0.05919 0.0
C682 C 0.19489 0.78147 0.05873 0.0
C683 C 0.20032 0.76606 0.05546 0.0
C684 C 0.22394 0.77552 0.05581 0.0
C685 C 0.23111 0.76859 0.12624 0.0
C686 C 0.2315 0.77001 0.983 0.0
C687 C 0.23091 0.79866 0.05884 0.0
C688 C 0.21387 0.8017 0.06013 0.0
C689 C 0.21625 0.82168 0.06019 0.0
C690 C 0.23658 0.839 0.05915 0.0
C691 C 0.2543 0.8363 0.05875 0.0
C692 C 0.25137 0.81582 0.05889 0.0
H693 H 0.46047 0.19443 0.06243 0.0
H694 H 0.39523 0.14919 0.10646 0.0
H695 H 0.3878 0.17801 0.12544 0.0
H696 H 0.46477 0.23376 0.19913 0.0
H697 H 0.48155 0.25547 0.13889 0.0
H698 H 0.48206 0.23132 0.1332 0.0
H699 H 0.47413 0.22915 0.98998 0.0
H700 H 0.4736 0.25327 0.99522 0.0
H701 H 0.45138 0.23008 0.95803 0.0
H702 H 0.38685 0.21157 0.13067 0.0
H703 H 0.39264 0.24757 0.12353 0.0
H704 H 0.4586 0.27123 0.0793 0.0
C705 C 0.44468 0.1906 0.07697 0.0
C706 C 0.42843 0.16953 0.08312 0.0
C707 C 0.40795 0.16519 0.10161 0.0
C708 C 0.40357 0.18146 0.1126 0.0
C709 C 0.41986 0.20204 0.10539 0.0
C710 C 0.44004 0.20668 0.08836 0.0
C711 C 0.45453 0.23014 0.08117 0.0
C712 C 0.47174 0.23814 0.14172 0.0
C713 C 0.46396 0.23599 1.00136 0.0
C714 C 0.43928 0.23792 0.09555 0.0
C715 C 0.41937 0.22145 0.10961 0.0
C716 C 0.40242 0.22461 0.12064 0.0
C717 C 0.40585 0.2451 0.11641 0.0
C718 C 0.42609 0.2622 0.10165 0.0
C719 C 0.44303 0.25851 0.09206 0.0
H720 H 0.13686 0.44524 0.37882 0.0
H721 H 0.08486 0.3816 0.37028 0.0
H722 H 0.08007 0.38208 0.50797 0.0
H723 H 0.15827 0.43928 0.55054 0.0
H724 H 0.16616 0.46508 0.58599 0.0
H725 H 0.16453 0.46051 0.48579 0.0
H726 H 0.13914 0.47506 0.47272 0.0
H727 H 0.14077 0.47977 0.57294 0.0
H728 H 0.11562 0.46393 0.52898 0.0
H729 H 0.08178 0.38871 0.64692 0.0
H730 H 0.08983 0.40111 0.77824 0.0
H731 H 0.14159 0.46015 0.69907 0.0
C732 C 0.12426 0.43161 0.40604 0.0
C733 C 0.1112 0.41337 0.36399 0.0
C734 C 0.09511 0.39565 0.40159 0.0
C735 C 0.09222 0.39581 0.4797 0.0
C736 C 0.1056 0.41381 0.5199 0.0
C737 C 0.1213 0.43142 0.48456 0.0
C738 C 0.13413 0.4483 0.54195 0.0
C739 C 0.15713 0.45359 0.54099 0.0
C740 C 0.1323 0.46793 0.52833 0.0
C741 C 0.1233 0.43733 0.61479 0.0
C742 C 0.10681 0.41751 0.60062 0.0
C743 C 0.09466 0.40423 0.65876 0.0
C744 C 0.09948 0.41138 0.73345 0.0
C745 C 0.1164 0.43162 0.74987 0.0
C746 C 0.12838 0.44471 0.68912 0.0
H747 H 0.69234 0.13715 0.38424 0.0
H748 H 0.68852 0.07659 0.37679 0.0
H749 H 0.684 0.07332 0.51498 0.0
H750 H 0.72225 0.15452 0.55225 0.0
H751 H 0.7094 0.16795 0.58949 0.0
H752 H 0.71054 0.16496 0.48905 0.0
H753 H 0.67014 0.14705 0.48094 0.0
H754 H 0.66889 0.15016 0.58135 0.0
H755 H 0.65421 0.12457 0.53941 0.0
H756 H 0.68211 0.07737 0.65396 0.0
H757 H 0.68137 0.08784 0.78544 0.0
H758 H 0.68709 0.1462 0.70563 0.0
C759 C 0.69007 0.12305 0.41183 0.0
C760 C 0.69075 0.10708 0.36994 0.0
C761 C 0.68816 0.08902 0.40799 0.0
C762 C 0.68554 0.08701 0.4864 0.0
C763 C 0.68554 0.10323 0.52646 0.0
C764 C 0.68759 0.12085 0.49071 0.0
C765 C 0.68795 0.13633 0.54807 0.0
C766 C 0.70878 0.15717 0.54448 0.0
C767 C 0.66918 0.13972 0.53676 0.0
C768 C 0.68601 0.1247 0.62126 0.0
C769 C 0.68459 0.10563 0.60731 0.0
C770 C 0.68313 0.09225 0.66566 0.0
C771 C 0.68292 0.09844 0.74036 0.0
C772 C 0.68421 0.11787 0.75649 0.0
C773 C 0.68581 0.13114 0.69564 0.0
H774 H 0.60383 0.71196 0.38034 0.0
H775 H 0.54483 0.65952 0.30544 0.0
H776 H 0.53331 0.65115 0.43776 0.0
H777 H 0.60929 0.68657 0.55004 0.0
H778 H 0.62028 0.7102 0.60536 0.0
H779 H 0.62441 0.71168 0.50474 0.0
H780 H 0.60887 0.73626 0.49256 0.0
H781 H 0.60477 0.73492 0.59304 0.0
H782 H 0.58313 0.72796 0.52979 0.0
H783 H 0.52731 0.64947 0.57654 0.0
H784 H 0.52694 0.65508 0.71386 0.0
H785 H 0.5901 0.70771 0.70163 0.0
C786 C 0.58862 0.69852 0.39165 0.0
C787 C 0.57524 0.68643 0.33195 0.0
C788 C 0.55527 0.66922 0.34966 0.0
C789 C 0.54866 0.66421 0.42484 0.0
C790 C 0.56219 0.67647 0.48203 0.0
C791 C 0.58176 0.69327 0.46653 0.0
C792 C 0.5929 0.70439 0.53865 0.0
C793 C 0.61291 0.70313 0.55037 0.0
C794 C 0.59769 0.72723 0.53847 0.0
C795 C 0.57638 0.69139 0.59704 0.0
C796 C 0.55885 0.6753 0.56288 0.0
C797 C 0.54102 0.66184 0.60397 0.0
C798 C 0.54093 0.66513 0.68173 0.0
C799 C 0.55854 0.68164 0.71793 0.0
C800 C 0.57665 0.69471 0.67528 0.0
H801 H 0.91472 0.59474 0.39089 0.0
H802 H 0.85062 0.56865 0.31265 0.0
H803 H 0.83905 0.56734 0.44394 0.0
H804 H 0.90286 0.56216 0.54745 0.0
H805 H 0.92266 0.58166 0.60781 0.0
H806 H 0.92632 0.58347 0.50717 0.0
H807 H 0.93152 0.62092 0.50925 0.0
H808 H 0.92775 0.61915 0.61011 0.0
H809 H 0.91164 0.62523 0.55062 0.0
H810 H 0.83373 0.5647 0.58435 0.0
H811 H 0.83507 0.56011 0.72218 0.0
H812 H 0.90232 0.58741 0.71062 0.0
C813 C 0.89824 0.58886 0.40065 0.0
C814 C 0.88365 0.58177 0.3402 0.0
C815 C 0.86226 0.57444 0.35688 0.0
C816 C 0.8555 0.5736 0.43168 0.0
C817 C 0.87027 0.58026 0.48963 0.0
C818 C 0.89121 0.5878 0.47494 0.0
C819 C 0.90367 0.59233 0.54764 0.0
C820 C 0.9145 0.57911 0.55279 0.0
C821 C 0.91959 0.61581 0.55481 0.0
C822 C 0.88634 0.58547 0.60575 0.0
C823 C 0.86723 0.57886 0.57096 0.0
C824 C 0.84865 0.57022 0.61214 0.0
C825 C 0.84954 0.56771 0.69031 0.0
C826 C 0.86882 0.57383 0.72686 0.0
C827 C 0.88751 0.58331 0.68424 0.0
H828 H 0.30894 0.85707 0.70243 0.0
H829 H 0.32278 0.91863 0.77857 0.0
H830 H 0.32412 0.92962 0.64612 0.0
H831 H 0.34279 0.87482 0.5362 0.0
H832 H 0.32479 0.85283 0.47965 0.0
H833 H 0.32566 0.84997 0.58041 0.0
H834 H 0.28593 0.83691 0.58934 0.0
H835 H 0.28492 0.83963 0.4887 0.0
H836 H 0.27588 0.85281 0.55083 0.0
H837 H 0.32233 0.93342 0.5064 0.0
H838 H 0.31643 0.92941 0.36862 0.0
H839 H 0.30502 0.86591 0.38191 0.0
C840 C 0.31258 0.87298 0.6915 0.0
C841 C 0.31579 0.88699 0.75139 0.0
C842 C 0.32002 0.90752 0.73408 0.0
C843 C 0.32101 0.91397 0.65889 0.0
C844 C 0.31783 0.89977 0.60149 0.0
C845 C 0.31369 0.87969 0.61683 0.0
C846 C 0.31006 0.86723 0.54477 0.0
C847 C 0.32683 0.86084 0.53469 0.0
C848 C 0.28788 0.84801 0.54335 0.0
C849 C 0.31249 0.88335 0.48641 0.0
C850 C 0.31709 0.90204 0.52051 0.0
C851 C 0.31894 0.91894 0.47907 0.0
C852 C 0.31557 0.91654 0.40106 0.0
C853 C 0.31048 0.89744 0.36509 0.0
C854 C 0.30935 0.88078 0.4081 0.0
H855 H 0.45004 0.3446 0.40832 0.0
H856 H 0.39811 0.28415 0.34553 0.0
H857 H 0.39181 0.27387 0.48086 0.0
H858 H 0.4694 0.32529 0.55475 0.0
H859 H 0.47759 0.34793 0.61393 0.0
H860 H 0.47694 0.35041 0.51304 0.0
H861 H 0.45272 0.3663 0.52875 0.0
H862 H 0.45309 0.36362 0.62974 0.0
H863 H 0.42848 0.3519 0.58009 0.0
H864 H 0.39116 0.2709 0.62542 0.0
H865 H 0.39922 0.27373 0.76286 0.0
H866 H 0.45268 0.33533 0.72705 0.0
C867 C 0.43727 0.32925 0.42328 0.0
C868 C 0.4244 0.3152 0.36705 0.0
C869 C 0.40812 0.29507 0.38817 0.0
C870 C 0.40437 0.28921 0.46473 0.0
C871 C 0.41724 0.30361 0.51905 0.0
C872 C 0.43359 0.32309 0.49892 0.0
C873 C 0.44604 0.33528 0.56703 0.0
C874 C 0.46884 0.33999 0.56187 0.0
C875 C 0.44501 0.35547 0.57696 0.0
C876 C 0.43418 0.31968 0.62897 0.0
C877 C 0.4174 0.3016 0.60069 0.0
C878 C 0.40426 0.28499 0.64799 0.0
C879 C 0.40879 0.28673 0.72573 0.0
C880 C 0.42641 0.30478 0.75459 0.0
C881 C 0.43903 0.32149 0.70577 0.0
H882 H 0.57657 0.90308 0.3352 0.0
H883 H 0.54541 0.8355 0.32332 0.0
H884 H 0.55037 0.8337 0.46073 0.0
H885 H 0.61456 0.91025 0.48601 0.0
H886 H 0.6123 0.93102 0.5304 0.0
H887 H 0.60863 0.92706 0.42996 0.0
H888 H 0.57216 0.92399 0.44188 0.0
H889 H 0.57566 0.92781 0.54225 0.0
H890 H 0.55306 0.90489 0.50548 0.0
H891 H 0.55668 0.83918 0.60103 0.0
H892 H 0.56332 0.85133 0.73278 0.0
H893 H 0.58867 0.9154 0.65392 0.0
C894 C 0.57138 0.88802 0.36154 0.0
C895 C 0.5609 0.86942 0.31889 0.0
C896 C 0.55363 0.84988 0.35529 0.0
C897 C 0.55639 0.84873 0.43316 0.0
C898 C 0.56633 0.86729 0.47422 0.0
C899 C 0.57373 0.88659 0.43973 0.0
C900 C 0.58232 0.90401 0.49778 0.0
C901 C 0.60585 0.91897 0.48529 0.0
C902 C 0.57006 0.91586 0.49677 0.0
C903 C 0.57834 0.89148 0.57007 0.0
C904 C 0.56933 0.87037 0.55527 0.0
C905 C 0.56381 0.85572 0.61327 0.0
C906 C 0.56754 0.86282 0.68837 0.0
C907 C 0.57653 0.88442 0.70543 0.0
C908 C 0.58203 0.89882 0.64454 0.0
H909 H 0.6889 0.55871 0.70009 0.0
H910 H 0.69541 0.62035 0.70983 0.0
H911 H 0.68964 0.61948 0.57202 0.0
H912 H 0.71718 0.56738 0.53059 0.0
H913 H 0.70126 0.5413 0.49386 0.0
H914 H 0.70337 0.54559 0.59424 0.0
H915 H 0.66301 0.52782 0.60487 0.0
H916 H 0.66077 0.52333 0.50447 0.0
H917 H 0.64918 0.53726 0.54779 0.0
H918 H 0.68544 0.61291 0.43231 0.0
H919 H 0.68303 0.60117 0.30071 0.0
H920 H 0.68102 0.54439 0.38 0.0
C921 C 0.68852 0.57171 0.67314 0.0
C922 C 0.69231 0.58951 0.71536 0.0
C923 C 0.69239 0.60657 0.67822 0.0
C924 C 0.68912 0.60618 0.60012 0.0
C925 C 0.68594 0.58866 0.55956 0.0
C926 C 0.68558 0.5717 0.59468 0.0
C927 C 0.68336 0.5555 0.53702 0.0
C928 C 0.70243 0.55227 0.53907 0.0
C929 C 0.66286 0.53475 0.54928 0.0
C930 C 0.68274 0.5661 0.46425 0.0
C931 C 0.68409 0.58513 0.47861 0.0
C932 C 0.68431 0.59799 0.42039 0.0
C933 C 0.6831 0.59123 0.34551 0.0
C934 C 0.68184 0.57182 0.32895 0.0
C935 C 0.68164 0.55916 0.38982 0.0
H936 H 0.09637 0.67001 0.36127 0.0
H937 H 0.16241 0.69643 0.31443 0.0
H938 H 0.17028 0.70396 0.45135 0.0
H939 H 0.10229 0.70728 0.50685 0.0
H940 H 0.08053 0.6878 0.56092 0.0
H941 H 0.08088 0.68537 0.4599 0.0
H942 H 0.07615 0.64828 0.47596 0.0
H943 H 0.0761 0.65071 0.57701 0.0
H944 H 0.09462 0.64492 0.53246 0.0
H945 H 0.16985 0.70577 0.59707 0.0
H946 H 0.16171 0.70606 0.73339 0.0
H947 H 0.09611 0.6797 0.67869 0.0
C948 C 0.1125 0.67757 0.38003 0.0
C949 C 0.12883 0.68261 0.32829 0.0
C950 C 0.14978 0.69263 0.35389 0.0
C951 C 0.15431 0.69678 0.43128 0.0
C952 C 0.13767 0.69107 0.48141 0.0
C953 C 0.11722 0.68205 0.45622 0.0
C954 C 0.10205 0.67756 0.52024 0.0
C955 C 0.09078 0.69027 0.51145 0.0
C956 C 0.08631 0.65397 0.52678 0.0
C957 C 0.11703 0.68522 0.58596 0.0
C958 C 0.13751 0.69278 0.56311 0.0
C959 C 0.15388 0.70008 0.61528 0.0
C960 C 0.14917 0.70005 0.69234 0.0
C961 C 0.12835 0.69305 0.71572 0.0
C962 C 0.11218 0.68537 0.66182 0.0
H963 H 0.42844 0.09792 0.38342 0.0
H964 H 0.46849 0.16334 0.32764 0.0
H965 H 0.47033 0.17256 0.46359 0.0
H966 H 0.3987 0.1063 0.52621 0.0
H967 H 0.39593 0.08497 0.58432 0.0
H968 H 0.39857 0.08404 0.48362 0.0
H969 H 0.4304 0.0786 0.50299 0.0
H970 H 0.428 0.07974 0.60378 0.0
H971 H 0.45242 0.09731 0.55784 0.0
H972 H 0.46869 0.17383 0.6088 0.0
H973 H 0.45984 0.16762 0.74557 0.0
H974 H 0.4192 0.10166 0.70115 0.0
C975 C 0.43762 0.11418 0.40005 0.0
C976 C 0.44851 0.12995 0.34576 0.0
C977 C 0.46005 0.15111 0.36888 0.0
C978 C 0.46127 0.15641 0.44578 0.0
C979 C 0.45056 0.14035 0.49826 0.0
C980 C 0.43865 0.1197 0.4759 0.0
C981 C 0.42777 0.10539 0.54209 0.0
C982 C 0.40383 0.09455 0.53354 0.0
C983 C 0.4351 0.08932 0.55225 0.0
C984 C 0.43545 0.12113 0.60563 0.0
C985 C 0.44883 0.1412 0.57984 0.0
C986 C 0.45812 0.15819 0.62933 0.0
C987 C 0.45317 0.15456 0.70669 0.0
C988 C 0.43884 0.13422 0.73304 0.0
C989 C 0.43012 0.11736 0.68189 0.0
H990 H 0.33579 0.45093 0.68344 0.0
H991 H 0.2746 0.39497 0.69013 0.0
H992 H 0.27173 0.39636 0.5521 0.0
H993 H 0.32354 0.47696 0.52844 0.0
H994 H 0.34916 0.48777 0.48645 0.0
H995 H 0.34596 0.48326 0.58682 0.0
H996 H 0.36367 0.46058 0.57824 0.0
H997 H 0.36675 0.46485 0.47782 0.0
H998 H 0.35317 0.43855 0.51479 0.0
H999 H 0.27627 0.40197 0.41298 0.0
H1000 H 0.28702 0.41318 0.28131 0.0
H1001 H 0.34508 0.46583 0.36138 0.0
C1002 C 0.32165 0.43928 0.65579 0.0
C1003 C 0.30546 0.42275 0.69768 0.0
C1004 C 0.28731 0.4076 0.65925 0.0
C1005 C 0.28549 0.40829 0.58078 0.0
C1006 C 0.30192 0.42432 0.54079 0.0
C1007 C 0.31957 0.43971 0.57675 0.0
C1008 C 0.33513 0.45483 0.51936 0.0
C1009 C 0.33865 0.47702 0.53097 0.0
C1010 C 0.35591 0.45468 0.52278 0.0
C1011 C 0.32354 0.44534 0.446 0.0
C1012 C 0.30442 0.42773 0.45986 0.0
C1013 C 0.29115 0.41585 0.40136 0.0
C1014 C 0.29747 0.42223 0.3266 0.0
C1015 C 0.31686 0.4404 0.31061 0.0
C1016 C 0.33003 0.45204 0.37155 0.0
H1017 H 0.88856 0.33076 0.67352 0.0
H1018 H 0.86953 0.26486 0.68036 0.0
H1019 H 0.86513 0.2627 0.54216 0.0
H1020 H 0.8532 0.32687 0.51695 0.0
H1021 H 0.87232 0.35145 0.47579 0.0
H1022 H 0.87219 0.34746 0.57622 0.0
H1023 H 0.91106 0.35697 0.56986 0.0
H1024 H 0.91126 0.36079 0.46941 0.0
H1025 H 0.91861 0.34264 0.50712 0.0
H1026 H 0.86552 0.26808 0.4032 0.0
H1027 H 0.86863 0.28028 0.27166 0.0
H1028 H 0.88753 0.34283 0.35207 0.0
C1029 C 0.88296 0.31582 0.64584 0.0
C1030 C 0.87937 0.29795 0.68755 0.0
C1031 C 0.87249 0.27873 0.64934 0.0
C1032 C 0.8699 0.27735 0.5709 0.0
C1033 C 0.8742 0.29533 0.53101 0.0
C1034 C 0.88038 0.31418 0.56696 0.0
C1035 C 0.88486 0.33128 0.50975 0.0
C1036 C 0.86974 0.33976 0.52031 0.0
C1037 C 0.90781 0.34896 0.51433 0.0
C1038 C 0.88054 0.31914 0.43643 0.0
C1039 C 0.87437 0.29842 0.45016 0.0
C1040 C 0.87019 0.28425 0.39165 0.0
C1041 C 0.87219 0.29137 0.31699 0.0
C1042 C 0.87832 0.31251 0.30117 0.0
C1043 C 0.88253 0.32651 0.36211 0.0
H1044 H 0.04279 0.37606 0.17579 0.0
H1045 H 0.06044 0.38749 0.93951 0.0
H1046 H 0.02346 0.36391 0.90336 0.0
H1047 H 1.00196 0.32034 0.15399 0.0
H1048 H 0.98538 0.32227 0.22453 0.0
H1049 H 0.01343 0.33847 0.23121 0.0
H1050 H 0.00968 0.37157 0.23592 0.0
H1051 H 0.98169 0.35553 0.22891 0.0
H1052 H 0.99582 0.3762 0.16137 0.0
H1053 H 0.98409 0.34319 0.89396 0.0
H1054 H 0.94566 0.32446 0.91133 0.0
H1055 H 0.95374 0.32441 0.15349 0.0
C1056 C 0.03895 0.37333 0.11637 0.0
C1057 C 0.05449 0.38362 0.06036 0.0
C1058 C 0.04883 0.37965 0.9833 0.0
C1059 C 0.02786 0.36633 0.96232 0.0
C1060 C 0.01285 0.3568 0.01909 0.0
C1061 C 0.0182 0.35986 0.09456 0.0
C1062 C 0.99903 0.34843 0.14463 0.0
C1063 C 1.00001 0.33136 0.19134 0.0
C1064 C 0.99641 0.36385 0.19568 0.0
C1065 C 0.98191 0.33896 0.08563 0.0
C1066 C 0.99023 0.34401 1.01352 0.0
C1067 C 0.97746 0.33872 0.94998 0.0
C1068 C 0.95568 0.32814 0.96036 0.0
C1069 C 0.94686 0.32267 0.03356 0.0
C1070 C 0.96014 0.32788 0.09687 0.0
H1071 H 0.59372 0.95103 0.01961 0.0
H1072 H 0.64711 0.94728 0.10326 0.0
H1073 H 0.6688 0.98588 0.09639 0.0
H1074 H 0.62233 0.99135 0.88514 0.0
H1075 H 0.60701 0.004 0.89818 0.0
H1076 H 0.59537 0.97628 0.91456 0.0
H1077 H 0.58508 0.98079 0.05017 0.0
H1078 H 0.59649 0.0085 0.03397 0.0
H1079 H 0.60495 0.9992 0.11311 0.0
H1080 H 0.68472 0.0252 0.07933 0.0
H1081 H 0.69348 0.06168 0.05348 0.0
H1082 H 0.63014 0.03925 0.9737 0.0
C1083 C 0.60991 0.95829 0.03748 0.0
C1084 C 0.61867 0.94605 0.06248 0.0
C1085 C 0.64001 0.95627 0.08421 0.0
C1086 C 0.65246 0.9782 0.08033 0.0
C1087 C 0.64343 0.98972 0.05384 0.0
C1088 C 0.62263 0.98009 0.03274 0.0
C1089 C 0.61686 0.9959 1.00354 0.0
C1090 C 0.60999 0.99162 0.92043 0.0
C1091 C 0.59984 0.99611 0.05318 0.0
C1092 C 0.63763 0.016 1.01182 0.0
C1093 C 0.65275 0.01214 0.0413 0.0
C1094 C 0.67302 0.02836 0.05585 0.0
C1095 C 0.67787 0.04904 0.04081 0.0
C1096 C 0.6626 0.05336 1.01072 0.0
C1097 C 0.64229 0.0365 0.99544 0.0
H1098 H 0.64687 0.5987 0.99434 0.0
H1099 H 0.70201 0.65393 0.07932 0.0
H1100 H 0.68449 0.67464 0.06041 0.0
H1101 H 0.63422 0.62496 0.85009 0.0
H1102 H 0.60631 0.60916 0.86309 0.0
H1103 H 0.623 0.59843 0.88393 0.0
H1104 H 0.60805 0.5894 0.01977 0.0
H1105 H 0.59116 0.5999 0.99911 0.0
H1106 H 0.60876 0.60971 0.07843 0.0
H1107 H 0.66101 0.68943 0.03317 0.0
H1108 H 0.63262 0.69689 1.00429 0.0
H1109 H 0.59285 0.63234 0.93474 0.0
C1110 C 0.65523 0.61512 1.00941 0.0
C1111 C 0.67586 0.62466 0.03844 0.0
C1112 C 0.68623 0.64623 0.05703 0.0
C1113 C 0.67642 0.65817 0.0463 0.0
C1114 C 0.65623 0.64837 0.01668 0.0
C1115 C 0.64569 0.62732 0.9988 0.0
C1116 C 0.62401 0.62062 0.96826 0.0
C1117 C 0.62176 0.61283 0.88648 0.0
C1118 C 0.60699 0.60392 0.01946 0.0
C1119 C 0.624 0.64117 0.9721 0.0
C1120 C 0.64276 0.65698 1.00006 0.0
C1121 C 0.64629 0.67721 1.01089 0.0
C1122 C 0.63007 0.6813 0.99412 0.0
C1123 C 0.61055 0.66528 0.96658 0.0
C1124 C 0.60768 0.64503 0.95446 0.0
H1125 H 0.05271 0.64715 0.95784 0.0
H1126 H 0.0527 0.68027 0.16044 0.0
H1127 H 0.01449 0.66468 0.1507 0.0
H1128 H 0.01257 0.65244 0.85881 0.0
H1129 H 1.00066 0.62672 0.81732 0.0
H1130 H 0.0282 0.64042 0.83933 0.0
H1131 H 0.02331 0.60911 0.92098 0.0
H1132 H 0.99578 0.59526 0.89885 0.0
H1133 H 0.0042 0.5996 0.99593 0.0
H1134 H 0.97662 0.64533 0.12205 0.0
H1135 H 0.94066 0.62277 0.07671 0.0
H1136 H 0.96419 0.60222 0.89013 0.0
C1137 C 0.04464 0.65107 1.00022 0.0
C1138 C 0.05576 0.66496 0.06001 0.0
C1139 C 0.04461 0.66973 0.11409 0.0
C1140 C 0.02287 0.66097 0.10903 0.0
C1141 C 0.01243 0.64749 0.04934 0.0
C1142 C 0.02285 0.64251 0.99582 0.0
C1143 C 0.00764 0.62743 0.93773 0.0
C1144 C 0.01257 0.63735 0.85861 0.0
C1145 C 0.00774 0.60662 0.93845 0.0
C1146 C 0.98707 0.62465 0.96746 0.0
C1147 C 0.99032 0.63643 0.03191 0.0
C1148 C 0.97386 0.63611 0.07144 0.0
C1149 C 0.95347 0.62321 0.04516 0.0
C1150 C 0.94957 0.61078 0.97962 0.0
C1151 C 0.96668 0.61175 0.93972 0.0
H1152 H 0.33869 0.96162 0.17674 0.0
H1153 H 0.33823 0.94762 0.93898 0.0
H1154 H 0.35536 0.98558 0.90939 0.0
H1155 H 0.32868 0.0057 0.15144 0.0
H1156 H 0.34539 0.01995 0.22956 0.0
H1157 H 0.33154 0.99174 0.22994 0.0
H1158 H 0.36665 0.99224 0.24895 0.0
H1159 H 0.38062 0.02039 0.24781 0.0
H1160 H 0.38767 0.0062 0.18249 0.0
H1161 H 0.37684 0.02536 0.90934 0.0
H1162 H 0.39728 0.06332 0.93631 0.0
H1163 H 0.38147 0.05079 0.1736 0.0
C1164 C 0.34184 0.96653 0.11825 0.0
C1165 C 0.33721 0.95181 0.06 0.0
C1166 C 0.34152 0.95871 0.9842 0.0
C1167 C 0.35132 0.98021 0.96707 0.0
C1168 C 0.35623 0.9944 0.02632 0.0
C1169 C 0.35123 0.98777 0.10024 0.0
C1170 C 0.35861 0.00605 0.15401 0.0
C1171 C 0.33994 0.00585 0.19355 0.0
C1172 C 0.37432 0.00622 0.21168 0.0
C1173 C 0.36914 0.02414 0.09923 0.0
C1174 C 0.36769 0.01714 0.02584 0.0
C1175 C 0.37768 0.03099 0.96633 0.0
C1176 C 0.38934 0.05249 0.98224 0.0
C1177 C 0.39071 0.05994 0.05689 0.0
C1178 C 0.38031 0.04555 0.11582 0.0
H1179 H 0.37721 0.41433 0.10118 0.0
H1180 H 0.31221 0.37343 0.03956 0.0
H1181 H 0.31925 0.34428 0.02122 0.0
H1182 H 0.39848 0.39486 0.96421 0.0
H1183 H 0.41929 0.39703 0.02377 0.0
H1184 H 0.40896 0.41436 0.03756 0.0
H1185 H 0.40087 0.40279 0.17746 0.0
H1186 H 0.41139 0.38559 0.16432 0.0
H1187 H 0.38514 0.37535 0.19983 0.0
H1188 H 0.33341 0.31965 1.00848 0.0
H1189 H 0.35373 0.3013 1.00196 0.0
H1190 H 0.40997 0.35871 0.06469 0.0
C1191 C 0.36437 0.39913 0.0853 0.0
C1192 C 0.34408 0.39606 0.07272 0.0
C1193 C 0.32783 0.37608 0.04998 0.0
C1194 C 0.33169 0.35945 0.0393 0.0
C1195 C 0.35194 0.36308 0.05076 0.0
C1196 C 0.36803 0.38242 0.07323 0.0
C1197 C 0.38856 0.38238 0.0786 0.0
C1198 C 0.40477 0.39809 0.0227 0.0
C1199 C 0.39698 0.38678 0.15989 0.0
C1200 C 0.38148 0.36001 0.05581 0.0
C1201 C 0.36028 0.34911 0.04044 0.0
C1202 C 0.35004 0.32804 0.02011 0.0
C1203 C 0.36171 0.31776 0.01642 0.0
C1204 C 0.38345 0.32859 0.03211 0.0
C1205 C 0.39344 0.35007 0.05123 0.0
loop_
_geom_bond_atom_site_label_1
_geom_bond_atom_site_label_2
_geom_bond_distance
_geom_bond_site_symmetry_2
_ccdc_geom_bond_type
Co0 N4 2.148 . S
Co0 N10 2.128 1_554 S
Co0 N20 2.194 . S
Co0 O25 2.351 . S
Co0 O26 2.155 . S
Co0 O27 2.096 . S
C1 N4 1.301 . S
C1 N5 1.328 . S
C1 H6 0.930 . S
C2 C3 1.333 . S
C2 N4 1.317 . S
C2 H7 0.930 . S
C3 C2 1.333 . S
C3 N5 1.350 . S
C3 H29 0.931 . S
N4 Co0 2.148 . S
N4 C1 1.301 . S
N4 C2 1.317 . S
N5 C1 1.328 . S
N5 C3 1.350 . S
H6 C1 0.930 . S
H7 C2 0.930 . S
C8 O9 1.224 1_556 S
C8 O27 1.247 1_556 S
O9 C8 1.224 1_554 S
N10 Co0 2.128 1_556 S
N10 C11 1.355 . S
N10 C13 1.311 . S
C11 N10 1.355 . S
C11 C12 1.363 . S
C11 H23 0.929 . S
C12 C11 1.363 . S
C12 N14 1.375 . S
C12 H30 0.931 . S
C13 N10 1.311 . S
C13 N14 1.347 . S
C13 H24 0.929 . S
N14 C12 1.375 . S
N14 C13 1.347 . S
C15 C18 1.365 . S
C15 N20 1.328 . S
C15 H21 0.929 . S
C16 C17 1.362 . S
C16 C19 1.378 . S
C16 H31 0.929 . S
C17 C16 1.362 . S
C17 C18 1.366 . S
C18 C15 1.365 . S
C18 C17 1.366 . S
C18 H32 0.930 . S
C19 C16 1.378 . S
C19 N20 1.315 . S
C19 H22 0.930 . S
N20 Co0 2.194 . S
N20 C15 1.328 . S
N20 C19 1.315 . S
H21 C15 0.929 . S
H22 C19 0.930 . S
H23 C11 0.929 . S
H24 C13 0.929 . S
O25 Co0 2.351 . S
O25 C28 1.244 . S
O26 Co0 2.155 . S
O26 C28 1.240 . S
O27 Co0 2.096 . S
O27 C8 1.247 1_554 S
C28 O25 1.244 . S
C28 O26 1.240 . S
H29 C3 0.931 . S
H30 C12 0.931 . S
H31 C16 0.929 . S
H32 C18 0.930 . S
Co33 N37 2.148 . S
Co33 N43 2.128 1_554 S
Co33 N53 2.194 . S
Co33 O58 2.351 . S
Co33 O59 2.155 . S
Co33 O60 2.096 . S
C34 N37 1.301 . S
C34 N38 1.328 . S
C34 H39 0.930 . S
C35 C36 1.333 . S
C35 N37 1.317 . S
C35 H40 0.930 . S
C36 C35 1.333 . S
C36 N38 1.350 . S
C36 H62 0.931 . S
N37 Co33 2.148 . S
N37 C34 1.301 . S
N37 C35 1.317 . S
N38 C34 1.328 . S
N38 C36 1.350 . S
H39 C34 0.930 . S
H40 C35 0.930 . S
C41 O42 1.224 1_556 S
C41 O60 1.245 1_556 S
O42 C41 1.224 1_554 S
N43 Co33 2.128 1_556 S
N43 C44 1.355 . S
N43 C46 1.311 . S
C44 N43 1.355 . S
C44 C45 1.363 . S
C44 H56 0.929 . S
C45 C44 1.363 . S
C45 N47 1.375 . S
C45 H63 0.931 . S
C46 N43 1.311 . S
C46 N47 1.347 . S
C46 H57 0.929 . S
N47 C45 1.375 . S
N47 C46 1.347 . S
C48 C51 1.365 . S
C48 N53 1.328 . S
C48 H54 0.929 . S
C49 C50 1.362 . S
C49 C52 1.378 . S
C49 H64 0.929 . S
C50 C49 1.362 . S
C50 C51 1.366 . S
C51 C48 1.365 . S
C51 C50 1.366 . S
C51 H65 0.930 . S
C52 C49 1.378 . S
C52 N53 1.315 . S
C52 H55 0.930 . S
N53 Co33 2.194 . S
N53 C48 1.328 . S
N53 C52 1.315 . S
H54 C48 0.929 . S
H55 C52 0.930 . S
H56 C44 0.929 . S
H57 C46 0.929 . S
O58 Co33 2.351 . S
O58 C61 1.244 . S
O59 Co33 2.155 . S
O59 C61 1.240 . S
O60 Co33 2.096 . S
O60 C41 1.245 1_554 S
C61 O58 1.244 . S
C61 O59 1.240 . S
H62 C36 0.931 . S
H63 C45 0.931 . S
H64 C49 0.929 . S
H65 C51 0.930 . S
Co66 N70 2.148 . S
Co66 N76 2.128 1_554 S
Co66 N86 2.194 . S
Co66 O91 2.351 . S
Co66 O92 2.155 . S
Co66 O93 2.096 . S
C67 N70 1.301 . S
C67 N71 1.328 . S
C67 H72 0.930 . S
C68 C69 1.333 . S
C68 N70 1.317 . S
C68 H73 0.930 . S
C69 C68 1.333 . S
C69 N71 1.350 . S
C69 H95 0.931 . S
N70 Co66 2.148 . S
N70 C67 1.301 . S
N70 C68 1.317 . S
N71 C67 1.328 . S
N71 C69 1.350 . S
H72 C67 0.930 . S
H73 C68 0.930 . S
C74 O75 1.224 1_556 S
C74 O93 1.245 1_556 S
O75 C74 1.224 1_554 S
N76 Co66 2.128 1_556 S
N76 C77 1.355 . S
N76 C79 1.311 . S
C77 N76 1.355 . S
C77 C78 1.363 . S
C77 H89 0.929 . S
C78 C77 1.363 . S
C78 N80 1.375 . S
C78 H96 0.931 . S
C79 N76 1.311 . S
C79 N80 1.347 . S
C79 H90 0.929 . S
N80 C78 1.375 . S
N80 C79 1.347 . S
C81 C84 1.365 . S
C81 N86 1.328 . S
C81 H87 0.929 . S
C82 C83 1.362 . S
C82 C85 1.378 . S
C82 H97 0.929 . S
C83 C82 1.362 . S
C83 C84 1.366 . S
C84 C81 1.365 . S
C84 C83 1.366 . S
C84 H98 0.930 . S
C85 C82 1.378 . S
C85 N86 1.315 . S
C85 H88 0.930 . S
N86 Co66 2.194 . S
N86 C81 1.328 . S
N86 C85 1.315 . S
H87 C81 0.929 . S
H88 C85 0.930 . S
H89 C77 0.929 . S
H90 C79 0.929 . S
O91 Co66 2.351 . S
O91 C94 1.244 . S
O92 Co66 2.155 . S
O92 C94 1.240 . S
O93 Co66 2.096 . S
O93 C74 1.245 1_554 S
C94 O91 1.244 . S
C94 O92 1.240 . S
H95 C69 0.931 . S
H96 C78 0.931 . S
H97 C82 0.929 . S
H98 C84 0.930 . S
Co99 N103 2.148 . S
Co99 N109 2.128 1_554 S
Co99 N119 2.194 . S
Co99 O124 2.351 . S
Co99 O125 2.155 . S
Co99 O126 2.096 . S
C100 N103 1.301 . S
C100 N104 1.328 . S
C100 H105 0.930 . S
C101 C102 1.333 . S
C101 N103 1.317 . S
C101 H106 0.930 . S
C102 C101 1.333 . S
C102 N104 1.350 . S
C102 H128 0.931 . S
N103 Co99 2.148 . S
N103 C100 1.301 . S
N103 C101 1.317 . S
N104 C100 1.328 . S
N104 C102 1.350 . S
H105 C100 0.930 . S
H106 C101 0.930 . S
C107 O108 1.224 1_556 S
C107 O126 1.247 1_556 S
O108 C107 1.224 1_554 S
N109 Co99 2.128 1_556 S
N109 C110 1.355 . S
N109 C112 1.311 . S
C110 N109 1.355 . S
C110 C111 1.363 . S
C110 H122 0.929 . S
C111 C110 1.363 . S
C111 N113 1.375 . S
C111 H129 0.931 . S
C112 N109 1.311 . S
C112 N113 1.347 . S
C112 H123 0.929 . S
N113 C111 1.375 . S
N113 C112 1.347 . S
C114 C117 1.365 . S
C114 N119 1.328 . S
C114 H120 0.929 . S
C115 C116 1.362 . S
C115 C118 1.378 . S
C115 H130 0.929 . S
C116 C115 1.362 . S
C116 C117 1.366 . S
C117 C114 1.365 . S
C117 C116 1.366 . S
C117 H131 0.930 . S
C118 C115 1.378 . S
C118 N119 1.315 . S
C118 H121 0.930 . S
N119 Co99 2.194 . S
N119 C114 1.328 . S
N119 C118 1.315 . S
H120 C114 0.929 . S
H121 C118 0.930 . S
H122 C110 0.929 . S
H123 C112 0.929 . S
O124 Co99 2.351 . S
O124 C127 1.244 . S
O125 Co99 2.155 . S
O125 C127 1.240 . S
O126 Co99 2.096 . S
O126 C107 1.247 1_554 S
C127 O124 1.244 . S
C127 O125 1.240 . S
H128 C102 0.931 . S
H129 C111 0.931 . S
H130 C115 0.929 . S
H131 C117 0.930 . S
Co132 N136 2.148 . S
Co132 N142 2.128 1_554 S
Co132 N152 2.194 . S
Co132 O157 2.351 . S
Co132 O158 2.155 . S
Co132 O159 2.096 . S
C133 N136 1.301 . S
C133 N137 1.328 . S
C133 H138 0.930 . S
C134 C135 1.333 . S
C134 N136 1.317 . S
C134 H139 0.930 . S
C135 C134 1.333 . S
C135 N137 1.350 . S
C135 H161 0.931 . S
N136 Co132 2.148 . S
N136 C133 1.301 . S
N136 C134 1.317 . S
N137 C133 1.328 . S
N137 C135 1.350 . S
H138 C133 0.930 . S
H139 C134 0.930 . S
C140 O141 1.224 1_556 S
C140 O159 1.245 1_556 S
O141 C140 1.224 1_554 S
N142 Co132 2.128 1_556 S
N142 C143 1.355 . S
N142 C145 1.311 . S
C143 N142 1.355 . S
C143 C144 1.363 . S
C143 H155 0.929 . S
C144 C143 1.363 . S
C144 N146 1.375 . S
C144 H162 0.931 . S
C145 N142 1.311 . S
C145 N146 1.347 . S
C145 H156 0.929 . S
N146 C144 1.375 . S
N146 C145 1.347 . S
C147 C150 1.365 . S
C147 N152 1.328 . S
C147 H153 0.929 . S
C148 C149 1.362 . S
C148 C151 1.378 . S
C148 H163 0.929 . S
C149 C148 1.362 . S
C149 C150 1.366 . S
C150 C147 1.365 . S
C150 C149 1.366 . S
C150 H164 0.930 . S
C151 C148 1.378 . S
C151 N152 1.315 . S
C151 H154 0.930 . S
N152 Co132 2.194 . S
N152 C147 1.328 . S
N152 C151 1.315 . S
H153 C147 0.929 . S
H154 C151 0.930 . S
H155 C143 0.929 . S
H156 C145 0.929 . S
O157 Co132 2.351 . S
O157 C160 1.244 . S
O158 Co132 2.155 . S
O158 C160 1.240 . S
O159 Co132 2.096 . S
O159 C140 1.245 1_554 S
C160 O157 1.244 . S
C160 O158 1.240 . S
H161 C135 0.931 . S
H162 C144 0.931 . S
H163 C148 0.929 . S
H164 C150 0.930 . S
Co165 N169 2.148 . S
Co165 N175 2.128 1_554 S
Co165 N185 2.194 . S
Co165 O190 2.351 . S
Co165 O191 2.155 . S
Co165 O192 2.096 . S
C166 N169 1.301 . S
C166 N170 1.328 . S
C166 H171 0.930 . S
C167 C168 1.333 . S
C167 N169 1.317 . S
C167 H172 0.930 . S
C168 C167 1.333 . S
C168 N170 1.350 . S
C168 H194 0.931 . S
N169 Co165 2.148 . S
N169 C166 1.301 . S
N169 C167 1.317 . S
N170 C166 1.328 . S
N170 C168 1.350 . S
H171 C166 0.930 . S
H172 C167 0.930 . S
C173 O174 1.224 1_556 S
C173 O192 1.245 1_556 S
O174 C173 1.224 1_554 S
N175 Co165 2.128 1_556 S
N175 C176 1.355 . S
N175 C178 1.311 . S
C176 N175 1.355 . S
C176 C177 1.363 . S
C176 H188 0.929 . S
C177 C176 1.363 . S
C177 N179 1.375 . S
C177 H195 0.931 . S
C178 N175 1.311 . S
C178 N179 1.347 . S
C178 H189 0.929 . S
N179 C177 1.375 . S
N179 C178 1.347 . S
C180 C183 1.365 . S
C180 N185 1.328 . S
C180 H186 0.929 . S
C181 C182 1.362 . S
C181 C184 1.378 . S
C181 H196 0.929 . S
C182 C181 1.362 . S
C182 C183 1.366 . S
C183 C180 1.365 . S
C183 C182 1.366 . S
C183 H197 0.930 . S
C184 C181 1.378 . S
C184 N185 1.315 . S
C184 H187 0.930 . S
N185 Co165 2.194 . S
N185 C180 1.328 . S
N185 C184 1.315 . S
H186 C180 0.929 . S
H187 C184 0.930 . S
H188 C176 0.929 . S
H189 C178 0.929 . S
O190 Co165 2.351 . S
O190 C193 1.244 . S
O191 Co165 2.155 . S
O191 C193 1.240 . S
O192 Co165 2.096 . S
O192 C173 1.245 1_554 S
C193 O190 1.244 . S
C193 O191 1.240 . S
H194 C168 0.931 . S
H195 C177 0.931 . S
H196 C181 0.929 . S
H197 C183 0.930 . S
Co198 N202 2.148 1_554 S
Co198 N208 2.128 . S
Co198 N218 2.194 . S
Co198 O223 2.352 . S
Co198 O224 2.155 . S
Co198 O225 2.096 . S
C199 N202 1.301 . S
C199 N203 1.328 . S
C199 H204 0.930 . S
C200 C201 1.333 . S
C200 N202 1.317 . S
C200 H205 0.930 . S
C201 C200 1.333 . S
C201 N203 1.350 . S
C201 H227 0.931 . S
N202 Co198 2.148 1_556 S
N202 C199 1.301 . S
N202 C200 1.317 . S
N203 C199 1.328 . S
N203 C201 1.350 . S
H204 C199 0.930 . S
H205 C200 0.930 . S
C206 O207 1.224 . S
C206 O225 1.247 . S
O207 C206 1.224 . S
N208 Co198 2.128 . S
N208 C209 1.355 . S
N208 C211 1.311 . S
C209 N208 1.355 . S
C209 C210 1.363 . S
C209 H221 0.929 . S
C210 C209 1.363 . S
C210 N212 1.375 . S
C210 H228 0.931 . S
C211 N208 1.311 . S
C211 N212 1.347 . S
C211 H222 0.929 . S
N212 C210 1.375 . S
N212 C211 1.347 . S
C213 C216 1.365 . S
C213 N218 1.328 1_556 S
C213 H219 0.929 . S
C214 C215 1.362 . S
C214 C217 1.378 . S
C214 H229 0.929 . S
C215 C214 1.362 . S
C215 C216 1.366 1_554 S
C216 C213 1.365 . S
C216 C215 1.366 1_556 S
C216 H230 0.930 . S
C217 C214 1.378 . S
C217 N218 1.315 . S
C217 H220 0.930 . S
N218 Co198 2.194 . S
N218 C213 1.328 1_554 S
N218 C217 1.315 . S
H219 C213 0.929 . S
H220 C217 0.930 . S
H221 C209 0.929 . S
H222 C211 0.929 . S
O223 Co198 2.352 . S
O223 C226 1.245 . S
O224 Co198 2.155 . S
O224 C226 1.240 . S
O225 Co198 2.096 . S
O225 C206 1.247 . S
C226 O223 1.245 . S
C226 O224 1.240 . S
H227 C201 0.931 . S
H228 C210 0.931 . S
H229 C214 0.929 . S
H230 C216 0.930 . S
Co231 N235 2.148 1_554 S
Co231 N241 2.128 . S
Co231 N251 2.194 . S
Co231 O256 2.352 . S
Co231 O257 2.155 . S
Co231 O258 2.096 . S
C232 N235 1.301 . S
C232 N236 1.328 . S
C232 H237 0.930 . S
C233 C234 1.333 . S
C233 N235 1.317 . S
C233 H238 0.930 . S
C234 C233 1.333 . S
C234 N236 1.350 . S
C234 H260 0.931 . S
N235 Co231 2.148 1_556 S
N235 C232 1.301 . S
N235 C233 1.317 . S
N236 C232 1.328 . S
N236 C234 1.350 . S
H237 C232 0.930 . S
H238 C233 0.930 . S
C239 O240 1.224 . S
C239 O258 1.247 . S
O240 C239 1.224 . S
N241 Co231 2.128 . S
N241 C242 1.355 . S
N241 C244 1.311 . S
C242 N241 1.355 . S
C242 C243 1.363 . S
C242 H254 0.929 . S
C243 C242 1.363 . S
C243 N245 1.375 . S
C243 H261 0.931 . S
C244 N241 1.311 . S
C244 N245 1.347 . S
C244 H255 0.929 . S
N245 C243 1.375 . S
N245 C244 1.347 . S
C246 C249 1.365 . S
C246 N251 1.328 1_556 S
C246 H252 0.929 . S
C247 C248 1.362 . S
C247 C250 1.378 . S
C247 H262 0.929 . S
C248 C247 1.362 . S
C248 C249 1.366 1_554 S
C249 C246 1.365 . S
C249 C248 1.366 1_556 S
C249 H263 0.930 . S
C250 C247 1.378 . S
C250 N251 1.315 . S
C250 H253 0.930 . S
N251 Co231 2.194 . S
N251 C246 1.328 1_554 S
N251 C250 1.315 . S
H252 C246 0.929 . S
H253 C250 0.930 . S
H254 C242 0.929 . S
H255 C244 0.929 . S
O256 Co231 2.352 . S
O256 C259 1.245 . S
O257 Co231 2.155 . S
O257 C259 1.240 . S
O258 Co231 2.096 . S
O258 C239 1.247 . S
C259 O256 1.245 . S
C259 O257 1.240 . S
H260 C234 0.931 . S
H261 C243 0.931 . S
H262 C247 0.929 . S
H263 C249 0.930 . S
Co264 N268 2.148 1_554 S
Co264 N274 2.128 . S
Co264 N284 2.194 . S
Co264 O289 2.352 . S
Co264 O290 2.155 . S
Co264 O291 2.096 . S
C265 N268 1.301 . S
C265 N269 1.328 . S
C265 H270 0.930 . S
C266 C267 1.333 . S
C266 N268 1.317 . S
C266 H271 0.930 . S
C267 C266 1.333 . S
C267 N269 1.350 . S
C267 H293 0.931 . S
N268 Co264 2.148 1_556 S
N268 C265 1.301 . S
N268 C266 1.317 . S
N269 C265 1.328 . S
N269 C267 1.350 . S
H270 C265 0.930 . S
H271 C266 0.930 . S
C272 O273 1.224 . S
C272 O291 1.247 . S
O273 C272 1.224 . S
N274 Co264 2.128 . S
N274 C275 1.355 . S
N274 C277 1.311 . S
C275 N274 1.355 . S
C275 C276 1.363 . S
C275 H287 0.929 . S
C276 C275 1.363 . S
C276 N278 1.375 . S
C276 H294 0.931 . S
C277 N274 1.311 . S
C277 N278 1.347 . S
C277 H288 0.929 . S
N278 C276 1.375 . S
N278 C277 1.347 . S
C279 C282 1.365 . S
C279 N284 1.328 1_556 S
C279 H285 0.929 . S
C280 C281 1.362 . S
C280 C283 1.378 . S
C280 H295 0.929 . S
C281 C280 1.362 . S
C281 C282 1.366 1_554 S
C282 C279 1.365 . S
C282 C281 1.366 1_556 S
C282 H296 0.930 . S
C283 C280 1.378 . S
C283 N284 1.315 . S
C283 H286 0.930 . S
N284 Co264 2.194 . S
N284 C279 1.328 1_554 S
N284 C283 1.315 . S
H285 C279 0.929 . S
H286 C283 0.930 . S
H287 C275 0.929 . S
H288 C277 0.929 . S
O289 Co264 2.352 . S
O289 C292 1.245 . S
O290 Co264 2.155 . S
O290 C292 1.240 . S
O291 Co264 2.096 . S
O291 C272 1.247 . S
C292 O289 1.245 . S
C292 O290 1.240 . S
H293 C267 0.931 . S
H294 C276 0.931 . S
H295 C280 0.929 . S
H296 C282 0.930 . S
Co297 N301 2.148 1_554 S
Co297 N307 2.128 . S
Co297 N317 2.194 . S
Co297 O322 2.352 . S
Co297 O323 2.155 . S
Co297 O324 2.096 . S
C298 N301 1.301 . S
C298 N302 1.328 . S
C298 H303 0.930 . S
C299 C300 1.333 . S
C299 N301 1.317 . S
C299 H304 0.930 . S
C300 C299 1.333 . S
C300 N302 1.350 . S
C300 H326 0.931 . S
N301 Co297 2.148 1_556 S
N301 C298 1.301 . S
N301 C299 1.317 . S
N302 C298 1.328 . S
N302 C300 1.350 . S
H303 C298 0.930 . S
H304 C299 0.930 . S
C305 O306 1.224 . S
C305 O324 1.247 . S
O306 C305 1.224 . S
N307 Co297 2.128 . S
N307 C308 1.355 . S
N307 C310 1.311 . S
C308 N307 1.355 . S
C308 C309 1.363 . S
C308 H320 0.929 . S
C309 C308 1.363 . S
C309 N311 1.375 . S
C309 H327 0.931 . S
C310 N307 1.311 . S
C310 N311 1.347 . S
C310 H321 0.929 . S
N311 C309 1.375 . S
N311 C310 1.347 . S
C312 C315 1.365 . S
C312 N317 1.328 1_556 S
C312 H318 0.929 . S
C313 C314 1.362 . S
C313 C316 1.378 . S
C313 H328 0.929 . S
C314 C313 1.362 . S
C314 C315 1.366 1_554 S
C315 C312 1.365 . S
C315 C314 1.366 1_556 S
C315 H329 0.930 . S
C316 C313 1.378 . S
C316 N317 1.315 . S
C316 H319 0.930 . S
N317 Co297 2.194 . S
N317 C312 1.328 1_554 S
N317 C316 1.315 . S
H318 C312 0.929 . S
H319 C316 0.930 . S
H320 C308 0.929 . S
H321 C310 0.929 . S
O322 Co297 2.352 . S
O322 C325 1.245 . S
O323 Co297 2.155 . S
O323 C325 1.240 . S
O324 Co297 2.096 . S
O324 C305 1.247 . S
C325 O322 1.245 . S
C325 O323 1.240 . S
H326 C300 0.931 . S
H327 C309 0.931 . S
H328 C313 0.929 . S
H329 C315 0.930 . S
Co330 N334 2.148 1_554 S
Co330 N340 2.128 . S
Co330 N350 2.194 . S
Co330 O355 2.352 . S
Co330 O356 2.155 . S
Co330 O357 2.096 . S
C331 N334 1.301 . S
C331 N335 1.328 . S
C331 H336 0.930 . S
C332 C333 1.333 . S
C332 N334 1.317 . S
C332 H337 0.930 . S
C333 C332 1.333 . S
C333 N335 1.350 . S
C333 H359 0.931 . S
N334 Co330 2.148 1_556 S
N334 C331 1.301 . S
N334 C332 1.317 . S
N335 C331 1.328 . S
N335 C333 1.350 . S
H336 C331 0.930 . S
H337 C332 0.930 . S
C338 O339 1.224 . S
C338 O357 1.247 . S
O339 C338 1.224 . S
N340 Co330 2.128 . S
N340 C341 1.355 . S
N340 C343 1.311 . S
C341 N340 1.355 . S
C341 C342 1.363 . S
C341 H353 0.929 . S
C342 C341 1.363 . S
C342 N344 1.375 . S
C342 H360 0.931 . S
C343 N340 1.311 . S
C343 N344 1.347 . S
C343 H354 0.929 . S
N344 C342 1.375 . S
N344 C343 1.347 . S
C345 C348 1.365 . S
C345 N350 1.328 1_556 S
C345 H351 0.929 . S
C346 C347 1.362 . S
C346 C349 1.378 . S
C346 H361 0.929 . S
C347 C346 1.362 . S
C347 C348 1.366 1_554 S
C348 C345 1.365 . S
C348 C347 1.366 1_556 S
C348 H362 0.930 . S
C349 C346 1.378 . S
C349 N350 1.315 . S
C349 H352 0.930 . S
N350 Co330 2.194 . S
N350 C345 1.328 1_554 S
N350 C349 1.315 . S
H351 C345 0.929 . S
H352 C349 0.930 . S
H353 C341 0.929 . S
H354 C343 0.929 . S
O355 Co330 2.352 . S
O355 C358 1.245 . S
O356 Co330 2.155 . S
O356 C358 1.240 . S
O357 Co330 2.096 . S
O357 C338 1.247 . S
C358 O355 1.245 . S
C358 O356 1.240 . S
H359 C333 0.931 . S
H360 C342 0.931 . S
H361 C346 0.929 . S
H362 C348 0.930 . S
Co363 N367 2.148 1_554 S
Co363 N373 2.128 . S
Co363 N383 2.194 . S
Co363 O388 2.352 . S
Co363 O389 2.155 . S
Co363 O390 2.096 . S
C364 N367 1.301 . S
C364 N368 1.328 . S
C364 H369 0.930 . S
C365 C366 1.333 . S
C365 N367 1.317 . S
C365 H370 0.930 . S
C366 C365 1.333 . S
C366 N368 1.350 . S
C366 H392 0.931 . S
N367 Co363 2.148 1_556 S
N367 C364 1.301 . S
N367 C365 1.317 . S
N368 C364 1.328 . S
N368 C366 1.350 . S
H369 C364 0.930 . S
H370 C365 0.930 . S
C371 O372 1.224 . S
C371 O390 1.247 . S
O372 C371 1.224 . S
N373 Co363 2.128 . S
N373 C374 1.355 . S
N373 C376 1.311 . S
C374 N373 1.355 . S
C374 C375 1.363 . S
C374 H386 0.929 . S
C375 C374 1.363 . S
C375 N377 1.375 . S
C375 H393 0.931 . S
C376 N373 1.311 . S
C376 N377 1.347 . S
C376 H387 0.929 . S
N377 C375 1.375 . S
N377 C376 1.347 . S
C378 C381 1.365 . S
C378 N383 1.328 1_556 S
C378 H384 0.929 . S
C379 C380 1.362 . S
C379 C382 1.378 . S
C379 H394 0.929 . S
C380 C379 1.362 . S
C380 C381 1.366 1_554 S
C381 C378 1.365 . S
C381 C380 1.366 1_556 S
C381 H395 0.930 . S
C382 C379 1.378 . S
C382 N383 1.315 . S
C382 H385 0.930 . S
N383 Co363 2.194 . S
N383 C378 1.328 1_554 S
N383 C382 1.315 . S
H384 C378 0.929 . S
H385 C382 0.930 . S
H386 C374 0.929 . S
H387 C376 0.929 . S
O388 Co363 2.352 . S
O388 C391 1.245 . S
O389 Co363 2.155 . S
O389 C391 1.240 . S
O390 Co363 2.096 . S
O390 C371 1.247 . S
C391 O388 1.245 . S
C391 O389 1.240 . S
H392 C366 0.931 . S
H393 C375 0.931 . S
H394 C379 0.929 . S
H395 C381 0.930 . S
H396 C408 0.930 . S
H397 C410 0.930 . S
H398 C411 0.930 . S
H399 C415 0.959 . S
H400 C415 0.959 . S
H401 C415 0.961 . S
H402 C416 0.960 . S
H403 C416 0.961 . S
H404 C416 0.959 . S
H405 C419 0.929 . S
H406 C420 0.931 . S
H407 C422 0.930 . S
C408 H396 0.930 . S
C408 C409 1.399 1_556 S
C408 C413 1.399 . S
C409 C408 1.399 1_554 S
C409 C410 1.376 . S
C410 H397 0.930 . S
C410 C409 1.376 . S
C410 C411 1.388 . S
C411 H398 0.930 . S
C411 C410 1.388 . S
C411 C412 1.390 . S
C412 C411 1.390 . S
C412 C413 1.394 1_554 S
C412 C418 1.465 . S
C413 C408 1.399 . S
C413 C412 1.394 1_556 S
C413 C414 1.516 . S
C414 C413 1.516 . S
C414 C415 1.502 . S
C414 C416 1.561 . S
C414 C417 1.526 . S
C415 H399 0.959 . S
C415 H400 0.959 . S
C415 H401 0.961 . S
C415 C414 1.502 . S
C416 H402 0.960 . S
C416 H403 0.961 . S
C416 H404 0.959 . S
C416 C414 1.561 . S
C417 C414 1.526 . S
C417 C418 1.396 1_556 S
C417 C422 1.390 . S
C418 C412 1.465 . S
C418 C417 1.396 1_554 S
C418 C419 1.399 . S
C419 H405 0.929 . S
C419 C418 1.399 . S
C419 C420 1.385 . S
C420 H406 0.931 . S
C420 C419 1.385 . S
C420 C421 1.389 . S
C421 C420 1.389 . S
C421 C422 1.387 1_554 S
C422 H407 0.930 . S
C422 C417 1.390 . S
C422 C421 1.387 1_556 S
H423 C435 0.930 . S
H424 C437 0.930 . S
H425 C438 0.930 . S
H426 C442 0.959 . S
H427 C442 0.959 . S
H428 C442 0.961 . S
H429 C443 0.960 . S
H430 C443 0.961 . S
H431 C443 0.959 . S
H432 C446 0.929 . S
H433 C447 0.931 . S
H434 C449 0.930 . S
C435 H423 0.930 . S
C435 C436 1.399 . S
C435 C440 1.399 . S
C436 C435 1.399 . S
C436 C437 1.376 1_554 S
C437 H424 0.930 . S
C437 C436 1.376 1_556 S
C437 C438 1.388 . S
C438 H425 0.930 . S
C438 C437 1.388 . S
C438 C439 1.390 1_556 S
C439 C438 1.390 1_554 S
C439 C440 1.394 . S
C439 C445 1.465 . S
C440 C435 1.399 . S
C440 C439 1.394 . S
C440 C441 1.516 . S
C441 C440 1.516 . S
C441 C442 1.502 . S
C441 C443 1.561 1_554 S
C441 C444 1.526 . S
C442 H426 0.959 . S
C442 H427 0.959 . S
C442 H428 0.961 . S
C442 C441 1.502 . S
C443 H429 0.960 . S
C443 H430 0.961 . S
C443 H431 0.959 . S
C443 C441 1.561 1_556 S
C444 C441 1.526 . S
C444 C445 1.396 . S
C444 C449 1.390 . S
C445 C439 1.465 . S
C445 C444 1.396 . S
C445 C446 1.399 1_554 S
C446 H432 0.929 . S
C446 C445 1.399 1_556 S
C446 C447 1.385 . S
C447 H433 0.931 . S
C447 C446 1.385 . S
C447 C448 1.389 1_556 S
C448 C447 1.389 1_554 S
C448 C449 1.387 . S
C449 H434 0.930 . S
C449 C444 1.390 . S
C449 C448 1.387 . S
H450 C462 0.930 . S
H451 C464 0.930 . S
H452 C465 0.930 . S
H453 C469 0.959 . S
H454 C469 0.959 . S
H455 C469 0.961 . S
H456 C470 0.960 . S
H457 C470 0.961 . S
H458 C470 0.959 . S
H459 C473 0.929 . S
H460 C474 0.931 . S
H461 C476 0.930 . S
C462 H450 0.930 . S
C462 C463 1.399 . S
C462 C467 1.399 . S
C463 C462 1.399 . S
C463 C464 1.376 1_554 S
C464 H451 0.930 . S
C464 C463 1.376 1_556 S
C464 C465 1.388 . S
C465 H452 0.930 . S
C465 C464 1.388 . S
C465 C466 1.390 . S
C466 C465 1.390 . S
C466 C467 1.394 1_556 S
C466 C472 1.465 . S
C467 C462 1.399 . S
C467 C466 1.394 1_554 S
C467 C468 1.516 . S
C468 C467 1.516 . S
C468 C469 1.502 . S
C468 C470 1.561 . S
C468 C471 1.526 . S
C469 H453 0.959 . S
C469 H454 0.959 . S
C469 H455 0.961 . S
C469 C468 1.502 . S
C470 H456 0.960 . S
C470 H457 0.961 . S
C470 H458 0.959 . S
C470 C468 1.561 . S
C471 C468 1.526 . S
C471 C472 1.396 1_554 S
C471 C476 1.390 . S
C472 C466 1.465 . S
C472 C471 1.396 1_556 S
C472 C473 1.399 . S
C473 H459 0.929 . S
C473 C472 1.399 . S
C473 C474 1.385 . S
C474 H460 0.931 . S
C474 C473 1.385 . S
C474 C475 1.389 1_556 S
C475 C474 1.389 1_554 S
C475 C476 1.387 . S
C476 H461 0.930 . S
C476 C471 1.390 . S
C476 C475 1.387 . S
H477 C489 0.930 . S
H478 C491 0.930 . S
H479 C492 0.930 . S
H480 C496 0.959 . S
H481 C496 0.959 . S
H482 C496 0.961 . S
H483 C497 0.960 . S
H484 C497 0.961 . S
H485 C497 0.959 . S
H486 C500 0.929 . S
H487 C501 0.931 . S
H488 C503 0.930 . S
C489 H477 0.930 . S
C489 C490 1.399 1_556 S
C489 C494 1.399 . S
C490 C489 1.399 1_554 S
C490 C491 1.376 . S
C491 H478 0.930 . S
C491 C490 1.376 . S
C491 C492 1.388 . S
C492 H479 0.930 . S
C492 C491 1.388 . S
C492 C493 1.390 . S
C493 C492 1.390 . S
C493 C494 1.394 1_554 S
C493 C499 1.465 . S
C494 C489 1.399 . S
C494 C493 1.394 1_556 S
C494 C495 1.516 . S
C495 C494 1.516 . S
C495 C496 1.502 . S
C495 C497 1.561 . S
C495 C498 1.526 . S
C496 H480 0.959 . S
C496 H481 0.959 . S
C496 H482 0.961 . S
C496 C495 1.502 . S
C497 H483 0.960 . S
C497 H484 0.961 . S
C497 H485 0.959 . S
C497 C495 1.561 . S
C498 C495 1.526 . S
C498 C499 1.396 1_556 S
C498 C503 1.390 . S
C499 C493 1.465 . S
C499 C498 1.396 1_554 S
C499 C500 1.399 . S
C500 H486 0.929 . S
C500 C499 1.399 . S
C500 C501 1.385 . S
C501 H487 0.931 . S
C501 C500 1.385 . S
C501 C502 1.389 . S
C502 C501 1.389 . S
C502 C503 1.387 1_554 S
C503 H488 0.930 . S
C503 C498 1.390 . S
C503 C502 1.387 1_556 S
H504 C516 0.930 . S
H505 C518 0.930 . S
H506 C519 0.930 . S
H507 C523 0.959 . S
H508 C523 0.959 . S
H509 C523 0.961 . S
H510 C524 0.960 . S
H511 C524 0.961 . S
H512 C524 0.959 . S
H513 C527 0.929 . S
H514 C528 0.931 . S
H515 C530 0.930 . S
C516 H504 0.930 . S
C516 C517 1.399 . S
C516 C521 1.399 . S
C517 C516 1.399 . S
C517 C518 1.376 1_554 S
C518 H505 0.930 . S
C518 C517 1.376 1_556 S
C518 C519 1.388 . S
C519 H506 0.930 . S
C519 C518 1.388 . S
C519 C520 1.390 . S
C520 C519 1.390 . S
C520 C521 1.394 1_556 S
C520 C526 1.465 . S
C521 C516 1.399 . S
C521 C520 1.394 1_554 S
C521 C522 1.516 . S
C522 C521 1.516 . S
C522 C523 1.502 . S
C522 C524 1.561 . S
C522 C525 1.526 . S
C523 H507 0.959 . S
C523 H508 0.959 . S
C523 H509 0.961 . S
C523 C522 1.502 . S
C524 H510 0.960 . S
C524 H511 0.961 . S
C524 H512 0.959 . S
C524 C522 1.561 . S
C525 C522 1.526 . S
C525 C526 1.396 1_554 S
C525 C530 1.390 . S
C526 C520 1.465 . S
C526 C525 1.396 1_556 S
C526 C527 1.399 . S
C527 H513 0.929 . S
C527 C526 1.399 . S
C527 C528 1.385 . S
C528 H514 0.931 . S
C528 C527 1.385 . S
C528 C529 1.389 1_556 S
C529 C528 1.389 1_554 S
C529 C530 1.387 . S
C530 H515 0.930 . S
C530 C525 1.390 . S
C530 C529 1.387 . S
H531 C543 0.930 . S
H532 C545 0.930 . S
H533 C546 0.930 . S
H534 C550 0.959 . S
H535 C550 0.959 . S
H536 C550 0.961 . S
H537 C551 0.960 . S
H538 C551 0.961 . S
H539 C551 0.959 . S
H540 C554 0.929 . S
H541 C555 0.931 . S
H542 C557 0.930 . S
C543 H531 0.930 . S
C543 C544 1.399 . S
C543 C548 1.399 . S
C544 C543 1.399 . S
C544 C545 1.376 1_554 S
C545 H532 0.930 . S
C545 C544 1.376 1_556 S
C545 C546 1.388 . S
C546 H533 0.930 . S
C546 C545 1.388 . S
C546 C547 1.390 . S
C547 C546 1.390 . S
C547 C548 1.394 1_556 S
C547 C553 1.465 . S
C548 C543 1.399 . S
C548 C547 1.394 1_554 S
C548 C549 1.516 . S
C549 C548 1.516 . S
C549 C550 1.502 . S
C549 C551 1.561 . S
C549 C552 1.526 . S
C550 H534 0.959 . S
C550 H535 0.959 . S
C550 H536 0.961 . S
C550 C549 1.502 . S
C551 H537 0.960 . S
C551 H538 0.961 . S
C551 H539 0.959 . S
C551 C549 1.561 . S
C552 C549 1.526 . S
C552 C553 1.396 1_554 S
C552 C557 1.390 . S
C553 C547 1.465 . S
C553 C552 1.396 1_556 S
C553 C554 1.399 . S
C554 H540 0.929 . S
C554 C553 1.399 . S
C554 C555 1.385 . S
C555 H541 0.931 . S
C555 C554 1.385 . S
C555 C556 1.389 1_556 S
C556 C555 1.389 1_554 S
C556 C557 1.387 . S
C557 H542 0.930 . S
C557 C552 1.390 . S
C557 C556 1.387 . S
H558 C570 0.930 . S
H559 C572 0.930 . S
H560 C573 0.930 . S
H561 C577 0.959 . S
H562 C577 0.959 . S
H563 C577 0.961 . S
H564 C578 0.960 . S
H565 C578 0.961 . S
H566 C578 0.959 1_554 S
H567 C581 0.929 . S
H568 C582 0.931 . S
H569 C584 0.924 1_556 S
C570 H558 0.930 . S
C570 C571 1.399 1_556 S
C570 C575 1.399 . S
C571 C570 1.399 1_554 S
C571 C572 1.376 . S
C572 H559 0.930 . S
C572 C571 1.376 . S
C572 C573 1.388 . S
C573 H560 0.930 . S
C573 C572 1.388 . S
C573 C574 1.390 . S
C574 C573 1.390 . S
C574 C575 1.394 1_554 S
C574 C580 1.465 . S
C575 C570 1.399 . S
C575 C574 1.394 1_556 S
C575 C576 1.516 . S
C576 C575 1.516 . S
C576 C577 1.502 . S
C576 C578 1.561 . S
C576 C579 1.526 1_556 S
C577 H561 0.959 . S
C577 H562 0.959 . S
C577 H563 0.961 . S
C577 C576 1.502 . S
C578 H564 0.960 . S
C578 H565 0.961 . S
C578 H566 0.959 1_556 S
C578 C576 1.561 . S
C579 C576 1.526 1_554 S
C579 C580 1.396 . S
C579 C584 1.390 . S
C580 C574 1.465 . S
C580 C579 1.396 . S
C580 C581 1.399 . S
C581 H567 0.929 . S
C581 C580 1.399 . S
C581 C582 1.385 . S
C582 H568 0.931 . S
C582 C581 1.385 . S
C582 C583 1.389 . S
C583 C582 1.389 . S
C583 C584 1.392 . S
C584 H569 0.924 1_554 S
C584 C579 1.390 . S
C584 C583 1.392 . S
H585 C597 0.930 . S
H586 C599 0.930 . S
H587 C600 0.930 . S
H588 C604 0.959 . S
H589 C604 0.959 . S
H590 C604 0.961 . S
H591 C605 0.960 . S
H592 C605 0.961 . S
H593 C605 0.959 . S
H594 C608 0.929 . S
H595 C609 0.931 . S
H596 C611 0.930 . S
C597 H585 0.930 . S
C597 C598 1.399 1_554 S
C597 C602 1.399 . S
C598 C597 1.399 1_556 S
C598 C599 1.376 . S
C599 H586 0.930 . S
C599 C598 1.376 . S
C599 C600 1.388 . S
C600 H587 0.930 . S
C600 C599 1.388 . S
C600 C601 1.390 . S
C601 C600 1.390 . S
C601 C602 1.394 1_556 S
C601 C607 1.465 . S
C602 C597 1.399 . S
C602 C601 1.394 1_554 S
C602 C603 1.516 . S
C603 C602 1.516 . S
C603 C604 1.502 . S
C603 C605 1.561 . S
C603 C606 1.526 . S
C604 H588 0.959 . S
C604 H589 0.959 . S
C604 H590 0.961 . S
C604 C603 1.502 . S
C605 H591 0.960 . S
C605 H592 0.961 . S
C605 H593 0.959 . S
C605 C603 1.561 . S
C606 C603 1.526 . S
C606 C607 1.396 1_554 S
C606 C611 1.390 . S
C607 C601 1.465 . S
C607 C606 1.396 1_556 S
C607 C608 1.399 . S
C608 H594 0.929 . S
C608 C607 1.399 . S
C608 C609 1.385 . S
C609 H595 0.931 . S
C609 C608 1.385 . S
C609 C610 1.389 1_556 S
C610 C609 1.389 1_554 S
C610 C611 1.387 . S
C611 H596 0.930 . S
C611 C606 1.390 . S
C611 C610 1.387 . S
H612 C624 0.930 . S
H613 C626 0.930 . S
H614 C627 0.930 . S
H615 C631 0.959 . S
H616 C631 0.959 . S
H617 C631 0.961 . S
H618 C632 0.960 . S
H619 C632 0.961 . S
H620 C632 0.959 . S
H621 C635 0.929 . S
H622 C636 0.931 . S
H623 C638 0.930 . S
C624 H612 0.930 . S
C624 C625 1.399 1_556 S
C624 C629 1.399 . S
C625 C624 1.399 1_554 S
C625 C626 1.376 . S
C626 H613 0.930 . S
C626 C625 1.376 . S
C626 C627 1.388 . S
C627 H614 0.930 . S
C627 C626 1.388 . S
C627 C628 1.390 . S
C628 C627 1.390 . S
C628 C629 1.394 1_554 S
C628 C634 1.465 . S
C629 C624 1.399 . S
C629 C628 1.394 1_556 S
C629 C630 1.516 . S
C630 C629 1.516 . S
C630 C631 1.502 . S
C630 C632 1.561 . S
C630 C633 1.526 . S
C631 H615 0.959 . S
C631 H616 0.959 . S
C631 H617 0.961 . S
C631 C630 1.502 . S
C632 H618 0.960 . S
C632 H619 0.961 . S
C632 H620 0.959 . S
C632 C630 1.561 . S
C633 C630 1.526 . S
C633 C634 1.396 1_556 S
C633 C638 1.390 . S
C634 C628 1.465 . S
C634 C633 1.396 1_554 S
C634 C635 1.399 . S
C635 H621 0.929 . S
C635 C634 1.399 . S
C635 C636 1.385 . S
C636 H622 0.931 . S
C636 C635 1.385 . S
C636 C637 1.389 . S
C637 C636 1.389 . S
C637 C638 1.387 1_554 S
C638 H623 0.930 . S
C638 C633 1.390 . S
C638 C637 1.387 1_556 S
H639 C651 0.930 . S
H640 C653 0.930 . S
H641 C654 0.930 . S
H642 C658 0.959 . S
H643 C658 0.959 . S
H644 C658 0.961 . S
H645 C659 0.960 . S
H646 C659 0.961 . S
H647 C659 0.959 . S
H648 C662 0.929 . S
H649 C663 0.931 . S
H650 C665 0.930 . S
C651 H639 0.930 . S
C651 C652 1.399 1_554 S
C651 C656 1.399 . S
C652 C651 1.399 1_556 S
C652 C653 1.376 . S
C653 H640 0.930 . S
C653 C652 1.376 . S
C653 C654 1.388 . S
C654 H641 0.930 . S
C654 C653 1.388 . S
C654 C655 1.390 . S
C655 C654 1.390 . S
C655 C656 1.394 1_556 S
C655 C661 1.465 . S
C656 C651 1.399 . S
C656 C655 1.394 1_554 S
C656 C657 1.516 . S
C657 C656 1.516 . S
C657 C658 1.502 . S
C657 C659 1.561 . S
C657 C660 1.526 . S
C658 H642 0.959 . S
C658 H643 0.959 . S
C658 H644 0.961 . S
C658 C657 1.502 . S
C659 H645 0.960 . S
C659 H646 0.961 . S
C659 H647 0.959 . S
C659 C657 1.561 . S
C660 C657 1.526 . S
C660 C661 1.396 1_554 S
C660 C665 1.390 . S
C661 C655 1.465 . S
C661 C660 1.396 1_556 S
C661 C662 1.399 . S
C662 H648 0.929 . S
C662 C661 1.399 . S
C662 C663 1.385 . S
C663 H649 0.931 . S
C663 C662 1.385 . S
C663 C664 1.389 1_556 S
C664 C663 1.389 1_554 S
C664 C665 1.387 . S
C665 H650 0.930 . S
C665 C660 1.390 . S
C665 C664 1.387 . S
H666 C678 0.930 . S
H667 C680 0.930 . S
H668 C681 0.930 . S
H669 C685 0.959 . S
H670 C685 0.959 . S
H671 C685 0.961 . S
H672 C686 0.960 . S
H673 C686 0.961 . S
H674 C686 0.959 . S
H675 C689 0.929 . S
H676 C690 0.931 . S
H677 C692 0.930 . S
C678 H666 0.930 . S
C678 C679 1.399 1_556 S
C678 C683 1.399 . S
C679 C678 1.399 1_554 S
C679 C680 1.376 . S
C680 H667 0.930 . S
C680 C679 1.376 . S
C680 C681 1.388 . S
C681 H668 0.930 . S
C681 C680 1.388 . S
C681 C682 1.390 . S
C682 C681 1.390 . S
C682 C683 1.394 1_554 S
C682 C688 1.465 . S
C683 C678 1.399 . S
C683 C682 1.394 1_556 S
C683 C684 1.516 . S
C684 C683 1.516 . S
C684 C685 1.502 . S
C684 C686 1.561 . S
C684 C687 1.526 . S
C685 H669 0.959 . S
C685 H670 0.959 . S
C685 H671 0.961 . S
C685 C684 1.502 . S
C686 H672 0.960 . S
C686 H673 0.961 . S
C686 H674 0.959 . S
C686 C684 1.561 . S
C687 C684 1.526 . S
C687 C688 1.396 1_556 S
C687 C692 1.390 . S
C688 C682 1.465 . S
C688 C687 1.396 1_554 S
C688 C689 1.399 . S
C689 H675 0.929 . S
C689 C688 1.399 . S
C689 C690 1.385 . S
C690 H676 0.931 . S
C690 C689 1.385 . S
C690 C691 1.389 . S
C691 C690 1.389 . S
C691 C692 1.387 1_554 S
C692 H677 0.930 . S
C692 C687 1.390 . S
C692 C691 1.387 1_556 S
H693 C705 0.930 . S
H694 C707 0.930 . S
H695 C708 0.930 . S
H696 C712 0.959 1_554 S
H697 C712 0.959 . S
H698 C712 0.961 . S
H699 C713 0.960 . S
H700 C713 0.961 . S
H701 C713 0.959 . S
H702 C716 0.929 . S
H703 C717 0.931 . S
H704 C719 0.930 . S
C705 H693 0.930 . S
C705 C706 1.399 1_556 S
C705 C710 1.399 . S
C706 C705 1.399 1_554 S
C706 C707 1.376 . S
C707 H694 0.930 . S
C707 C706 1.376 . S
C707 C708 1.388 . S
C708 H695 0.930 . S
C708 C707 1.388 . S
C708 C709 1.390 . S
C709 C708 1.390 . S
C709 C710 1.394 1_554 S
C709 C715 1.465 . S
C710 C705 1.399 . S
C710 C709 1.394 1_556 S
C710 C711 1.516 . S
C711 C710 1.516 . S
C711 C712 1.502 . S
C711 C713 1.561 . S
C711 C714 1.526 . S
C712 H696 0.959 1_556 S
C712 H697 0.959 . S
C712 H698 0.961 . S
C712 C711 1.502 . S
C713 H699 0.960 . S
C713 H700 0.961 . S
C713 H701 0.959 . S
C713 C711 1.561 . S
C714 C711 1.526 . S
C714 C715 1.396 1_556 S
C714 C719 1.390 . S
C715 C709 1.465 . S
C715 C714 1.396 1_554 S
C715 C716 1.399 . S
C716 H702 0.929 . S
C716 C715 1.399 . S
C716 C717 1.385 . S
C717 H703 0.931 . S
C717 C716 1.385 . S
C717 C718 1.389 . S
C718 C717 1.389 . S
C718 C719 1.387 1_554 S
C719 H704 0.930 . S
C719 C714 1.390 . S
C719 C718 1.387 1_556 S
H720 C732 0.930 . S
H721 C734 0.930 . S
H722 C735 0.930 . S
H723 C739 0.959 . S
H724 C739 0.959 . S
H725 C739 0.961 . S
H726 C740 0.960 . S
H727 C740 0.961 . S
H728 C740 0.959 . S
H729 C743 0.929 . S
H730 C744 0.931 . S
H731 C746 0.930 . S
C732 H720 0.930 . S
C732 C733 1.399 . S
C732 C737 1.399 . S
C733 C732 1.399 . S
C733 C734 1.376 . S
C734 H721 0.930 . S
C734 C733 1.376 . S
C734 C735 1.388 . S
C735 H722 0.930 . S
C735 C734 1.388 . S
C735 C736 1.390 . S
C736 C735 1.390 . S
C736 C737 1.394 . S
C736 C742 1.465 . S
C737 C732 1.399 . S
C737 C736 1.394 . S
C737 C738 1.516 . S
C738 C737 1.516 . S
C738 C739 1.502 . S
C738 C740 1.561 . S
C738 C741 1.526 . S
C739 H723 0.959 . S
C739 H724 0.959 . S
C739 H725 0.961 . S
C739 C738 1.502 . S
C740 H726 0.960 . S
C740 H727 0.961 . S
C740 H728 0.959 . S
C740 C738 1.561 . S
C741 C738 1.526 . S
C741 C742 1.396 . S
C741 C746 1.390 . S
C742 C736 1.465 . S
C742 C741 1.396 . S
C742 C743 1.399 . S
C743 H729 0.929 . S
C743 C742 1.399 . S
C743 C744 1.385 . S
C744 H730 0.931 . S
C744 C743 1.385 . S
C744 C745 1.389 . S
C745 C744 1.389 . S
C745 C746 1.387 . S
C746 H731 0.930 . S
C746 C741 1.390 . S
C746 C745 1.387 . S
H747 C759 0.930 . S
H748 C761 0.930 . S
H749 C762 0.930 . S
H750 C766 0.959 . S
H751 C766 0.959 . S
H752 C766 0.961 . S
H753 C767 0.960 . S
H754 C767 0.961 . S
H755 C767 0.959 . S
H756 C770 0.929 . S
H757 C771 0.931 . S
H758 C773 0.930 . S
C759 H747 0.930 . S
C759 C760 1.399 . S
C759 C764 1.399 . S
C760 C759 1.399 . S
C760 C761 1.376 . S
C761 H748 0.930 . S
C761 C760 1.376 . S
C761 C762 1.388 . S
C762 H749 0.930 . S
C762 C761 1.388 . S
C762 C763 1.390 . S
C763 C762 1.390 . S
C763 C764 1.394 . S
C763 C769 1.465 . S
C764 C759 1.399 . S
C764 C763 1.394 . S
C764 C765 1.516 . S
C765 C764 1.516 . S
C765 C766 1.502 . S
C765 C767 1.561 . S
C765 C768 1.526 . S
C766 H750 0.959 . S
C766 H751 0.959 . S
C766 H752 0.961 . S
C766 C765 1.502 . S
C767 H753 0.960 . S
C767 H754 0.961 . S
C767 H755 0.959 . S
C767 C765 1.561 . S
C768 C765 1.526 . S
C768 C769 1.396 . S
C768 C773 1.390 . S
C769 C763 1.465 . S
C769 C768 1.396 . S
C769 C770 1.399 . S
C770 H756 0.929 . S
C770 C769 1.399 . S
C770 C771 1.385 . S
C771 H757 0.931 . S
C771 C770 1.385 . S
C771 C772 1.389 . S
C772 C771 1.389 . S
C772 C773 1.387 . S
C773 H758 0.930 . S
C773 C768 1.390 . S
C773 C772 1.387 . S
H774 C786 0.930 . S
H775 C788 0.930 . S
H776 C789 0.930 . S
H777 C793 0.959 . S
H778 C793 0.959 . S
H779 C793 0.961 . S
H780 C794 0.960 . S
H781 C794 0.961 . S
H782 C794 0.959 . S
H783 C797 0.929 . S
H784 C798 0.931 . S
H785 C800 0.930 . S
C786 H774 0.930 . S
C786 C787 1.399 . S
C786 C791 1.399 . S
C787 C786 1.399 . S
C787 C788 1.376 . S
C788 H775 0.930 . S
C788 C787 1.376 . S
C788 C789 1.388 . S
C789 H776 0.930 . S
C789 C788 1.388 . S
C789 C790 1.390 . S
C790 C789 1.390 . S
C790 C791 1.394 . S
C790 C796 1.465 . S
C791 C786 1.399 . S
C791 C790 1.394 . S
C791 C792 1.516 . S
C792 C791 1.516 . S
C792 C793 1.502 . S
C792 C794 1.561 . S
C792 C795 1.526 . S
C793 H777 0.959 . S
C793 H778 0.959 . S
C793 H779 0.961 . S
C793 C792 1.502 . S
C794 H780 0.960 . S
C794 H781 0.961 . S
C794 H782 0.959 . S
C794 C792 1.561 . S
C795 C792 1.526 . S
C795 C796 1.396 . S
C795 C800 1.390 . S
C796 C790 1.465 . S
C796 C795 1.396 . S
C796 C797 1.399 . S
C797 H783 0.929 . S
C797 C796 1.399 . S
C797 C798 1.385 . S
C798 H784 0.931 . S
C798 C797 1.385 . S
C798 C799 1.389 . S
C799 C798 1.389 . S
C799 C800 1.387 . S
C800 H785 0.930 . S
C800 C795 1.390 . S
C800 C799 1.387 . S
H801 C813 0.930 . S
H802 C815 0.930 . S
H803 C816 0.930 . S
H804 C820 0.959 . S
H805 C820 0.959 . S
H806 C820 0.961 . S
H807 C821 0.960 . S
H808 C821 0.961 . S
H809 C821 0.959 . S
H810 C824 0.929 . S
H811 C825 0.931 . S
H812 C827 0.930 . S
C813 H801 0.930 . S
C813 C814 1.399 . S
C813 C818 1.399 . S
C814 C813 1.399 . S
C814 C815 1.376 . S
C815 H802 0.930 . S
C815 C814 1.376 . S
C815 C816 1.388 . S
C816 H803 0.930 . S
C816 C815 1.388 . S
C816 C817 1.390 . S
C817 C816 1.390 . S
C817 C818 1.394 . S
C817 C823 1.465 . S
C818 C813 1.399 . S
C818 C817 1.394 . S
C818 C819 1.516 . S
C819 C818 1.516 . S
C819 C820 1.502 . S
C819 C821 1.561 . S
C819 C822 1.526 . S
C820 H804 0.959 . S
C820 H805 0.959 . S
C820 H806 0.961 . S
C820 C819 1.502 . S
C821 H807 0.960 . S
C821 H808 0.961 . S
C821 H809 0.959 . S
C821 C819 1.561 . S
C822 C819 1.526 . S
C822 C823 1.396 . S
C822 C827 1.390 . S
C823 C817 1.465 . S
C823 C822 1.396 . S
C823 C824 1.399 . S
C824 H810 0.929 . S
C824 C823 1.399 . S
C824 C825 1.385 . S
C825 H811 0.931 . S
C825 C824 1.385 . S
C825 C826 1.389 . S
C826 C825 1.389 . S
C826 C827 1.387 . S
C827 H812 0.930 . S
C827 C822 1.390 . S
C827 C826 1.387 . S
H828 C840 0.930 . S
H829 C842 0.930 . S
H830 C843 0.930 . S
H831 C847 0.959 . S
H832 C847 0.959 . S
H833 C847 0.961 . S
H834 C848 0.960 . S
H835 C848 0.961 . S
H836 C848 0.959 . S
H837 C851 0.929 . S
H838 C852 0.931 . S
H839 C854 0.930 . S
C840 H828 0.930 . S
C840 C841 1.399 . S
C840 C845 1.399 . S
C841 C840 1.399 . S
C841 C842 1.376 . S
C842 H829 0.930 . S
C842 C841 1.376 . S
C842 C843 1.388 . S
C843 H830 0.930 . S
C843 C842 1.388 . S
C843 C844 1.390 . S
C844 C843 1.390 . S
C844 C845 1.394 . S
C844 C850 1.465 . S
C845 C840 1.399 . S
C845 C844 1.394 . S
C845 C846 1.516 . S
C846 C845 1.516 . S
C846 C847 1.502 . S
C846 C848 1.561 . S
C846 C849 1.526 . S
C847 H831 0.959 . S
C847 H832 0.959 . S
C847 H833 0.961 . S
C847 C846 1.502 . S
C848 H834 0.960 . S
C848 H835 0.961 . S
C848 H836 0.959 . S
C848 C846 1.561 . S
C849 C846 1.526 . S
C849 C850 1.396 . S
C849 C854 1.390 . S
C850 C844 1.465 . S
C850 C849 1.396 . S
C850 C851 1.399 . S
C851 H837 0.929 . S
C851 C850 1.399 . S
C851 C852 1.385 . S
C852 H838 0.931 . S
C852 C851 1.385 . S
C852 C853 1.389 . S
C853 C852 1.389 . S
C853 C854 1.387 . S
C854 H839 0.930 . S
C854 C849 1.390 . S
C854 C853 1.387 . S
H855 C867 0.930 . S
H856 C869 0.930 . S
H857 C870 0.930 . S
H858 C874 0.959 . S
H859 C874 0.959 . S
H860 C874 0.961 . S
H861 C875 0.960 . S
H862 C875 0.961 . S
H863 C875 0.959 . S
H864 C878 0.929 . S
H865 C879 0.931 . S
H866 C881 0.930 . S
C867 H855 0.930 . S
C867 C868 1.399 . S
C867 C872 1.399 . S
C868 C867 1.399 . S
C868 C869 1.376 . S
C869 H856 0.930 . S
C869 C868 1.376 . S
C869 C870 1.388 . S
C870 H857 0.930 . S
C870 C869 1.388 . S
C870 C871 1.390 . S
C871 C870 1.390 . S
C871 C872 1.394 . S
C871 C877 1.465 . S
C872 C867 1.399 . S
C872 C871 1.394 . S
C872 C873 1.516 . S
C873 C872 1.516 . S
C873 C874 1.502 . S
C873 C875 1.561 . S
C873 C876 1.526 . S
C874 H858 0.959 . S
C874 H859 0.959 . S
C874 H860 0.961 . S
C874 C873 1.502 . S
C875 H861 0.960 . S
C875 H862 0.961 . S
C875 H863 0.959 . S
C875 C873 1.561 . S
C876 C873 1.526 . S
C876 C877 1.396 . S
C876 C881 1.390 . S
C877 C871 1.465 . S
C877 C876 1.396 . S
C877 C878 1.399 . S
C878 H864 0.929 . S
C878 C877 1.399 . S
C878 C879 1.385 . S
C879 H865 0.931 . S
C879 C878 1.385 . S
C879 C880 1.389 . S
C880 C879 1.389 . S
C880 C881 1.387 . S
C881 H866 0.930 . S
C881 C876 1.390 . S
C881 C880 1.387 . S
H882 C894 0.930 . S
H883 C896 0.930 . S
H884 C897 0.930 . S
H885 C901 0.959 . S
H886 C901 0.959 . S
H887 C901 0.961 . S
H888 C902 0.960 . S
H889 C902 0.961 . S
H890 C902 0.959 . S
H891 C905 0.929 . S
H892 C906 0.931 . S
H893 C908 0.930 . S
C894 H882 0.930 . S
C894 C895 1.399 . S
C894 C899 1.399 . S
C895 C894 1.399 . S
C895 C896 1.376 . S
C896 H883 0.930 . S
C896 C895 1.376 . S
C896 C897 1.388 . S
C897 H884 0.930 . S
C897 C896 1.388 . S
C897 C898 1.390 . S
C898 C897 1.390 . S
C898 C899 1.394 . S
C898 C904 1.465 . S
C899 C894 1.399 . S
C899 C898 1.394 . S
C899 C900 1.516 . S
C900 C899 1.516 . S
C900 C901 1.502 . S
C900 C902 1.561 . S
C900 C903 1.526 . S
C901 H885 0.959 . S
C901 H886 0.959 . S
C901 H887 0.961 . S
C901 C900 1.502 . S
C902 H888 0.960 . S
C902 H889 0.961 . S
C902 H890 0.959 . S
C902 C900 1.561 . S
C903 C900 1.526 . S
C903 C904 1.396 . S
C903 C908 1.390 . S
C904 C898 1.465 . S
C904 C903 1.396 . S
C904 C905 1.399 . S
C905 H891 0.929 . S
C905 C904 1.399 . S
C905 C906 1.385 . S
C906 H892 0.931 . S
C906 C905 1.385 . S
C906 C907 1.389 . S
C907 C906 1.389 . S
C907 C908 1.387 . S
C908 H893 0.930 . S
C908 C903 1.390 . S
C908 C907 1.387 . S
H909 C921 0.930 . S
H910 C923 0.930 . S
H911 C924 0.930 . S
H912 C928 0.959 . S
H913 C928 0.959 . S
H914 C928 0.961 . S
H915 C929 0.960 . S
H916 C929 0.961 . S
H917 C929 0.959 . S
H918 C932 0.929 . S
H919 C933 0.931 . S
H920 C935 0.930 . S
C921 H909 0.930 . S
C921 C922 1.399 . S
C921 C926 1.399 . S
C922 C921 1.399 . S
C922 C923 1.376 . S
C923 H910 0.930 . S
C923 C922 1.376 . S
C923 C924 1.388 . S
C924 H911 0.930 . S
C924 C923 1.388 . S
C924 C925 1.390 . S
C925 C924 1.390 . S
C925 C926 1.394 . S
C925 C931 1.465 . S
C926 C921 1.399 . S
C926 C925 1.394 . S
C926 C927 1.516 . S
C927 C926 1.516 . S
C927 C928 1.502 . S
C927 C929 1.561 . S
C927 C930 1.526 . S
C928 H912 0.959 . S
C928 H913 0.959 . S
C928 H914 0.961 . S
C928 C927 1.502 . S
C929 H915 0.960 . S
C929 H916 0.961 . S
C929 H917 0.959 . S
C929 C927 1.561 . S
C930 C927 1.526 . S
C930 C931 1.396 . S
C930 C935 1.390 . S
C931 C925 1.465 . S
C931 C930 1.396 . S
C931 C932 1.399 . S
C932 H918 0.929 . S
C932 C931 1.399 . S
C932 C933 1.385 . S
C933 H919 0.931 . S
C933 C932 1.385 . S
C933 C934 1.389 . S
C934 C933 1.389 . S
C934 C935 1.387 . S
C935 H920 0.930 . S
C935 C930 1.390 . S
C935 C934 1.387 . S
H936 C948 0.930 . S
H937 C950 0.930 . S
H938 C951 0.930 . S
H939 C955 0.959 . S
H940 C955 0.959 . S
H941 C955 0.961 . S
H942 C956 0.960 . S
H943 C956 0.961 . S
H944 C956 0.959 . S
H945 C959 0.929 . S
H946 C960 0.931 . S
H947 C962 0.930 . S
C948 H936 0.930 . S
C948 C949 1.399 . S
C948 C953 1.399 . S
C949 C948 1.399 . S
C949 C950 1.376 . S
C950 H937 0.930 . S
C950 C949 1.376 . S
C950 C951 1.388 . S
C951 H938 0.930 . S
C951 C950 1.388 . S
C951 C952 1.390 . S
C952 C951 1.390 . S
C952 C953 1.394 . S
C952 C958 1.465 . S
C953 C948 1.399 . S
C953 C952 1.394 . S
C953 C954 1.516 . S
C954 C953 1.516 . S
C954 C955 1.502 . S
C954 C956 1.561 . S
C954 C957 1.526 . S
C955 H939 0.959 . S
C955 H940 0.959 . S
C955 H941 0.961 . S
C955 C954 1.502 . S
C956 H942 0.960 . S
C956 H943 0.961 . S
C956 H944 0.959 . S
C956 C954 1.561 . S
C957 C954 1.526 . S
C957 C958 1.396 . S
C957 C962 1.390 . S
C958 C952 1.465 . S
C958 C957 1.396 . S
C958 C959 1.399 . S
C959 H945 0.929 . S
C959 C958 1.399 . S
C959 C960 1.385 . S
C960 H946 0.931 . S
C960 C959 1.385 . S
C960 C961 1.389 . S
C961 C960 1.389 . S
C961 C962 1.387 . S
C962 H947 0.930 . S
C962 C957 1.390 . S
C962 C961 1.387 . S
H963 C975 0.930 . S
H964 C977 0.930 . S
H965 C978 0.930 . S
H966 C982 0.959 . S
H967 C982 0.959 . S
H968 C982 0.961 . S
H969 C983 0.960 . S
H970 C983 0.961 . S
H971 C983 0.959 . S
H972 C986 0.929 . S
H973 C987 0.931 . S
H974 C989 0.930 . S
C975 H963 0.930 . S
C975 C976 1.399 . S
C975 C980 1.399 . S
C976 C975 1.399 . S
C976 C977 1.376 . S
C977 H964 0.930 . S
C977 C976 1.376 . S
C977 C978 1.388 . S
C978 H965 0.930 . S
C978 C977 1.388 . S
C978 C979 1.390 . S
C979 C978 1.390 . S
C979 C980 1.394 . S
C979 C985 1.465 . S
C980 C975 1.399 . S
C980 C979 1.394 . S
C980 C981 1.516 . S
C981 C980 1.516 . S
C981 C982 1.502 . S
C981 C983 1.561 . S
C981 C984 1.526 . S
C982 H966 0.959 . S
C982 H967 0.959 . S
C982 H968 0.961 . S
C982 C981 1.502 . S
C983 H969 0.960 . S
C983 H970 0.961 . S
C983 H971 0.959 . S
C983 C981 1.561 . S
C984 C981 1.526 . S
C984 C985 1.396 . S
C984 C989 1.390 . S
C985 C979 1.465 . S
C985 C984 1.396 . S
C985 C986 1.399 . S
C986 H972 0.929 . S
C986 C985 1.399 . S
C986 C987 1.385 . S
C987 H973 0.931 . S
C987 C986 1.385 . S
C987 C988 1.389 . S
C988 C987 1.389 . S
C988 C989 1.387 . S
C989 H974 0.930 . S
C989 C984 1.390 . S
C989 C988 1.387 . S
H990 C1002 0.930 . S
H991 C1004 0.930 . S
H992 C1005 0.930 . S
H993 C1009 0.959 . S
H994 C1009 0.959 . S
H995 C1009 0.961 . S
H996 C1010 0.960 . S
H997 C1010 0.961 . S
H998 C1010 0.959 . S
H999 C1013 0.929 . S
H1000 C1014 0.931 . S
H1001 C1016 0.930 . S
C1002 H990 0.930 . S
C1002 C1003 1.399 . S
C1002 C1007 1.399 . S
C1003 C1002 1.399 . S
C1003 C1004 1.376 . S
C1004 H991 0.930 . S
C1004 C1003 1.376 . S
C1004 C1005 1.388 . S
C1005 H992 0.930 . S
C1005 C1004 1.388 . S
C1005 C1006 1.390 . S
C1006 C1005 1.390 . S
C1006 C1007 1.394 . S
C1006 C1012 1.465 . S
C1007 C1002 1.399 . S
C1007 C1006 1.394 . S
C1007 C1008 1.516 . S
C1008 C1007 1.516 . S
C1008 C1009 1.502 . S
C1008 C1010 1.561 . S
C1008 C1011 1.526 . S
C1009 H993 0.959 . S
C1009 H994 0.959 . S
C1009 H995 0.961 . S
C1009 C1008 1.502 . S
C1010 H996 0.960 . S
C1010 H997 0.961 . S
C1010 H998 0.959 . S
C1010 C1008 1.561 . S
C1011 C1008 1.526 . S
C1011 C1012 1.396 . S
C1011 C1016 1.390 . S
C1012 C1006 1.465 . S
C1012 C1011 1.396 . S
C1012 C1013 1.399 . S
C1013 H999 0.929 . S
C1013 C1012 1.399 . S
C1013 C1014 1.385 . S
C1014 H1000 0.931 . S
C1014 C1013 1.385 . S
C1014 C1015 1.389 . S
C1015 C1014 1.389 . S
C1015 C1016 1.387 . S
C1016 H1001 0.930 . S
C1016 C1011 1.390 . S
C1016 C1015 1.387 . S
H1017 C1029 0.930 . S
H1018 C1031 0.930 . S
H1019 C1032 0.930 . S
H1020 C1036 0.959 . S
H1021 C1036 0.959 . S
H1022 C1036 0.961 . S
H1023 C1037 0.960 . S
H1024 C1037 0.961 . S
H1025 C1037 0.959 . S
H1026 C1040 0.929 . S
H1027 C1041 0.931 . S
H1028 C1043 0.930 . S
C1029 H1017 0.930 . S
C1029 C1030 1.399 . S
C1029 C1034 1.399 . S
C1030 C1029 1.399 . S
C1030 C1031 1.376 . S
C1031 H1018 0.930 . S
C1031 C1030 1.376 . S
C1031 C1032 1.388 . S
C1032 H1019 0.930 . S
C1032 C1031 1.388 . S
C1032 C1033 1.390 . S
C1033 C1032 1.390 . S
C1033 C1034 1.394 . S
C1033 C1039 1.465 . S
C1034 C1029 1.399 . S
C1034 C1033 1.394 . S
C1034 C1035 1.516 . S
C1035 C1034 1.516 . S
C1035 C1036 1.502 . S
C1035 C1037 1.561 . S
C1035 C1038 1.526 . S
C1036 H1020 0.959 . S
C1036 H1021 0.959 . S
C1036 H1022 0.961 . S
C1036 C1035 1.502 . S
C1037 H1023 0.960 . S
C1037 H1024 0.961 . S
C1037 H1025 0.959 . S
C1037 C1035 1.561 . S
C1038 C1035 1.526 . S
C1038 C1039 1.396 . S
C1038 C1043 1.390 . S
C1039 C1033 1.465 . S
C1039 C1038 1.396 . S
C1039 C1040 1.399 . S
C1040 H1026 0.929 . S
C1040 C1039 1.399 . S
C1040 C1041 1.385 . S
C1041 H1027 0.931 . S
C1041 C1040 1.385 . S
C1041 C1042 1.389 . S
C1042 C1041 1.389 . S
C1042 C1043 1.387 . S
C1043 H1028 0.930 . S
C1043 C1038 1.390 . S
C1043 C1042 1.387 . S
H1044 C1056 0.930 . S
H1045 C1058 0.930 . S
H1046 C1059 0.930 . S
H1047 C1063 0.953 . S
H1048 C1063 0.959 1_655 S
H1049 C1063 0.961 . S
H1050 C1064 0.960 . S
H1051 C1064 0.961 1_655 S
H1052 C1064 0.959 . S
H1053 C1067 0.929 . S
H1054 C1068 0.931 . S
H1055 C1070 0.930 . S
C1056 H1044 0.930 . S
C1056 C1057 1.399 1_554 S
C1056 C1061 1.399 . S
C1057 C1056 1.399 1_556 S
C1057 C1058 1.376 . S
C1058 H1045 0.930 . S
C1058 C1057 1.376 . S
C1058 C1059 1.388 . S
C1059 H1046 0.930 . S
C1059 C1058 1.388 . S
C1059 C1060 1.390 . S
C1060 C1059 1.390 . S
C1060 C1061 1.394 1_556 S
C1060 C1066 1.465 1_455 S
C1061 C1056 1.399 . S
C1061 C1060 1.394 1_554 S
C1061 C1062 1.516 . S
C1062 C1061 1.516 . S
C1062 C1063 1.502 . S
C1062 C1064 1.561 . S
C1062 C1065 1.526 1_455 S
C1063 H1047 0.953 . S
C1063 H1048 0.959 1_455 S
C1063 H1049 0.961 . S
C1063 C1062 1.502 . S
C1064 H1050 0.960 . S
C1064 H1051 0.961 1_455 S
C1064 H1052 0.959 . S
C1064 C1062 1.561 . S
C1065 C1062 1.526 1_655 S
C1065 C1066 1.396 1_554 S
C1065 C1070 1.390 . S
C1066 C1060 1.465 1_655 S
C1066 C1065 1.396 1_556 S
C1066 C1067 1.399 . S
C1067 H1053 0.929 . S
C1067 C1066 1.399 . S
C1067 C1068 1.385 . S
C1068 H1054 0.931 . S
C1068 C1067 1.385 . S
C1068 C1069 1.389 1_556 S
C1069 C1068 1.389 1_554 S
C1069 C1070 1.387 . S
C1070 H1055 0.930 . S
C1070 C1065 1.390 . S
C1070 C1069 1.387 . S
H1071 C1083 0.930 . S
H1072 C1085 0.930 . S
H1073 C1086 0.930 . S
H1074 C1090 0.959 . S
H1075 C1090 0.959 1_545 S
H1076 C1090 0.961 . S
H1077 C1091 0.960 . S
H1078 C1091 0.961 1_545 S
H1079 C1091 0.943 1_544 S
H1080 C1094 0.929 . S
H1081 C1095 0.931 . S
H1082 C1097 0.930 . S
C1083 H1071 0.930 . S
C1083 C1084 1.399 1_556 S
C1083 C1088 1.399 . S
C1084 C1083 1.399 1_554 S
C1084 C1085 1.376 . S
C1085 H1072 0.930 . S
C1085 C1084 1.376 . S
C1085 C1086 1.388 . S
C1086 H1073 0.930 . S
C1086 C1085 1.388 . S
C1086 C1087 1.390 . S
C1087 C1086 1.390 . S
C1087 C1088 1.394 1_554 S
C1087 C1093 1.465 1_565 S
C1088 C1083 1.399 . S
C1088 C1087 1.394 1_556 S
C1088 C1089 1.516 . S
C1089 C1088 1.516 . S
C1089 C1090 1.502 . S
C1089 C1091 1.561 . S
C1089 C1092 1.526 1_565 S
C1090 H1074 0.959 . S
C1090 H1075 0.959 1_565 S
C1090 H1076 0.961 . S
C1090 C1089 1.502 . S
C1091 H1077 0.960 . S
C1091 H1078 0.961 1_565 S
C1091 H1079 0.943 1_566 S
C1091 C1089 1.561 . S
C1092 C1089 1.526 1_545 S
C1092 C1093 1.396 1_556 S
C1092 C1097 1.390 . S
C1093 C1087 1.465 1_545 S
C1093 C1092 1.396 1_554 S
C1093 C1094 1.399 . S
C1094 H1080 0.929 . S
C1094 C1093 1.399 . S
C1094 C1095 1.385 . S
C1095 H1081 0.931 . S
C1095 C1094 1.385 . S
C1095 C1096 1.389 . S
C1096 C1095 1.389 . S
C1096 C1097 1.387 1_554 S
C1097 H1082 0.930 . S
C1097 C1092 1.390 . S
C1097 C1096 1.387 1_556 S
H1098 C1110 0.930 . S
H1099 C1112 0.930 . S
H1100 C1113 0.930 . S
H1101 C1117 0.959 . S
H1102 C1117 0.959 . S
H1103 C1117 0.961 . S
H1104 C1118 0.960 . S
H1105 C1118 0.961 . S
H1106 C1118 0.959 . S
H1107 C1121 0.929 . S
H1108 C1122 0.931 . S
H1109 C1124 0.930 . S
C1110 H1098 0.930 . S
C1110 C1111 1.399 1_556 S
C1110 C1115 1.399 . S
C1111 C1110 1.399 1_554 S
C1111 C1112 1.376 . S
C1112 H1099 0.930 . S
C1112 C1111 1.376 . S
C1112 C1113 1.388 . S
C1113 H1100 0.930 . S
C1113 C1112 1.388 . S
C1113 C1114 1.390 . S
C1114 C1113 1.390 . S
C1114 C1115 1.394 1_554 S
C1114 C1120 1.465 . S
C1115 C1110 1.399 . S
C1115 C1114 1.394 1_556 S
C1115 C1116 1.516 . S
C1116 C1115 1.516 . S
C1116 C1117 1.502 . S
C1116 C1118 1.561 . S
C1116 C1119 1.526 . S
C1117 H1101 0.959 . S
C1117 H1102 0.959 . S
C1117 H1103 0.961 . S
C1117 C1116 1.502 . S
C1118 H1104 0.960 . S
C1118 H1105 0.961 . S
C1118 H1106 0.959 . S
C1118 C1116 1.561 . S
C1119 C1116 1.526 . S
C1119 C1120 1.396 1_556 S
C1119 C1124 1.390 . S
C1120 C1114 1.465 . S
C1120 C1119 1.396 1_554 S
C1120 C1121 1.399 . S
C1121 H1107 0.929 . S
C1121 C1120 1.399 . S
C1121 C1122 1.385 . S
C1122 H1108 0.931 . S
C1122 C1121 1.385 . S
C1122 C1123 1.389 . S
C1123 C1122 1.389 . S
C1123 C1124 1.387 1_554 S
C1124 H1109 0.930 . S
C1124 C1119 1.390 . S
C1124 C1123 1.387 1_556 S
H1125 C1137 0.930 . S
H1126 C1139 0.930 . S
H1127 C1140 0.930 . S
H1128 C1144 0.959 . S
H1129 C1144 0.959 1_655 S
H1130 C1144 0.961 . S
H1131 C1145 0.960 . S
H1132 C1145 0.961 1_655 S
H1133 C1145 0.950 . S
H1134 C1148 0.929 . S
H1135 C1149 0.931 . S
H1136 C1151 0.930 . S
C1137 H1125 0.930 . S
C1137 C1138 1.399 1_556 S
C1137 C1142 1.399 . S
C1138 C1137 1.399 1_554 S
C1138 C1139 1.376 . S
C1139 H1126 0.930 . S
C1139 C1138 1.376 . S
C1139 C1140 1.388 . S
C1140 H1127 0.930 . S
C1140 C1139 1.388 . S
C1140 C1141 1.390 . S
C1141 C1140 1.390 . S
C1141 C1142 1.394 1_554 S
C1141 C1147 1.465 1_455 S
C1142 C1137 1.399 . S
C1142 C1141 1.394 1_556 S
C1142 C1143 1.516 . S
C1143 C1142 1.516 . S
C1143 C1144 1.502 . S
C1143 C1145 1.561 . S
C1143 C1146 1.526 1_455 S
C1144 H1128 0.959 . S
C1144 H1129 0.959 1_455 S
C1144 H1130 0.961 . S
C1144 C1143 1.502 . S
C1145 H1131 0.960 . S
C1145 H1132 0.961 1_455 S
C1145 H1133 0.950 . S
C1145 C1143 1.561 . S
C1146 C1143 1.526 1_655 S
C1146 C1147 1.396 1_556 S
C1146 C1151 1.390 . S
C1147 C1141 1.465 1_655 S
C1147 C1146 1.396 1_554 S
C1147 C1148 1.399 . S
C1148 H1134 0.929 . S
C1148 C1147 1.399 . S
C1148 C1149 1.385 . S
C1149 H1135 0.931 . S
C1149 C1148 1.385 . S
C1149 C1150 1.389 . S
C1150 C1149 1.389 . S
C1150 C1151 1.387 1_554 S
C1151 H1136 0.930 . S
C1151 C1146 1.390 . S
C1151 C1150 1.387 1_556 S
H1152 C1164 0.930 . S
H1153 C1166 0.930 . S
H1154 C1167 0.930 . S
H1155 C1171 0.946 1_545 S
H1156 C1171 0.959 1_545 S
H1157 C1171 0.961 . S
H1158 C1172 0.960 . S
H1159 C1172 0.961 1_545 S
H1160 C1172 0.959 . S
H1161 C1175 0.929 . S
H1162 C1176 0.931 . S
H1163 C1178 0.930 . S
C1164 H1152 0.930 . S
C1164 C1165 1.399 1_554 S
C1164 C1169 1.399 . S
C1165 C1164 1.399 1_556 S
C1165 C1166 1.376 . S
C1166 H1153 0.930 . S
C1166 C1165 1.376 . S
C1166 C1167 1.388 . S
C1167 H1154 0.930 . S
C1167 C1166 1.388 . S
C1167 C1168 1.390 . S
C1168 C1167 1.390 . S
C1168 C1169 1.394 1_556 S
C1168 C1174 1.465 1_565 S
C1169 C1164 1.399 . S
C1169 C1168 1.394 1_554 S
C1169 C1170 1.516 . S
C1170 C1169 1.516 . S
C1170 C1171 1.502 . S
C1170 C1172 1.561 . S
C1170 C1173 1.526 1_565 S
C1171 H1155 0.946 1_565 S
C1171 H1156 0.959 1_565 S
C1171 H1157 0.961 . S
C1171 C1170 1.502 . S
C1172 H1158 0.960 . S
C1172 H1159 0.961 1_565 S
C1172 H1160 0.959 . S
C1172 C1170 1.561 . S
C1173 C1170 1.526 1_545 S
C1173 C1174 1.396 1_554 S
C1173 C1178 1.390 . S
C1174 C1168 1.465 1_545 S
C1174 C1173 1.396 1_556 S
C1174 C1175 1.399 . S
C1175 H1161 0.929 . S
C1175 C1174 1.399 . S
C1175 C1176 1.385 . S
C1176 H1162 0.931 . S
C1176 C1175 1.385 . S
C1176 C1177 1.389 1_556 S
C1177 C1176 1.389 1_554 S
C1177 C1178 1.387 . S
C1178 H1163 0.930 . S
C1178 C1173 1.390 . S
C1178 C1177 1.387 . S
H1179 C1191 0.930 . S
H1180 C1193 0.930 . S
H1181 C1194 0.930 . S
H1182 C1198 0.959 . S
H1183 C1198 0.959 . S
H1184 C1198 0.961 . S
H1185 C1199 0.960 . S
H1186 C1199 0.961 . S
H1187 C1199 0.959 . S
H1188 C1202 0.929 . S
H1189 C1203 0.931 . S
H1190 C1205 0.930 . S
C1191 H1179 0.930 . S
C1191 C1192 1.399 . S
C1191 C1196 1.399 . S
C1192 C1191 1.399 . S
C1192 C1193 1.376 1_554 S
C1193 H1180 0.930 . S
C1193 C1192 1.376 1_556 S
C1193 C1194 1.388 . S
C1194 H1181 0.930 . S
C1194 C1193 1.388 . S
C1194 C1195 1.390 . S
C1195 C1194 1.390 . S
C1195 C1196 1.394 1_556 S
C1195 C1201 1.465 . S
C1196 C1191 1.399 . S
C1196 C1195 1.394 1_554 S
C1196 C1197 1.516 . S
C1197 C1196 1.516 . S
C1197 C1198 1.502 . S
C1197 C1199 1.561 . S
C1197 C1200 1.526 . S
C1198 H1182 0.959 . S
C1198 H1183 0.959 . S
C1198 H1184 0.961 . S
C1198 C1197 1.502 . S
C1199 H1185 0.960 . S
C1199 H1186 0.961 . S
C1199 H1187 0.959 . S
C1199 C1197 1.561 . S
C1200 C1197 1.526 . S
C1200 C1201 1.396 1_554 S
C1200 C1205 1.390 . S
C1201 C1195 1.465 . S
C1201 C1200 1.396 1_556 S
C1201 C1202 1.399 . S
C1202 H1188 0.929 . S
C1202 C1201 1.399 . S
C1202 C1203 1.385 . S
C1203 H1189 0.931 . S
C1203 C1202 1.385 . S
C1203 C1204 1.389 . S
C1204 C1203 1.389 . S
C1204 C1205 1.387 1_556 S
C1205 H1190 0.930 . S
C1205 C1200 1.390 . S
C1205 C1204 1.387 1_554 S
C409 C281 1.608 . S
C421 C17 1.600 . S
C436 C50 1.595 . S
C448 C314 1.590 . S
C463 C347 1.590 . S
C475 C83 1.597 . S
C490 C380 1.609 . S
C502 C116 1.601 . S
C517 C149 1.602 . S
C529 C215 1.593 . S
C544 C248 1.591 . S
C556 C182 1.601 . S
C571 C358 1.127 . S
C583 C28 1.164 . S
C598 C391 1.156 1_556 S
C610 C61 1.130 . S
C625 C94 1.158 . S
C637 C226 1.128 . S
C652 C259 1.168 1_556 S
C664 C127 1.128 . S
C679 C292 1.143 . S
C691 C160 1.177 . S
C706 C325 1.154 . S
C718 C193 1.173 . S
C733 N5 1.431 . S
C745 N14 1.507 . S
C760 N38 1.447 . S
C772 N47 1.500 . S
C787 N71 1.492 . S
C799 N80 1.457 . S
C814 N104 1.515 . S
C826 N113 1.424 . S
C841 N146 1.502 . S
C853 N137 1.435 . S
C868 N170 1.450 . S
C880 N179 1.482 . S
C895 N212 1.428 . S
C907 N203 1.512 . S
C922 N236 1.434 . S
C934 N245 1.508 . S
C949 N278 1.425 . S
C961 N269 1.507 . S
C976 N311 1.433 . S
C988 N302 1.509 . S
C1003 N335 1.431 . S
C1015 N344 1.507 . S
C1030 N368 1.455 . S
C1042 N377 1.477 . S
C1057 C8 1.207 . S
C1069 C371 1.189 . S
C1084 C206 1.241 . S
C1096 C41 1.217 1_554 S
C1111 C239 1.227 . S
C1123 C74 1.202 1_554 S
C1138 C272 1.227 . S
C1150 C107 1.204 1_554 S
C1165 C140 1.198 . S
C1177 C305 1.184 . S
C1192 C338 1.236 . S
C1204 C173 1.254 . S
