# Generated by pormake.
# Topology uoy, (4)-cn, num edge types: 1
# Building blocks:
#     Node 0, Type 0, BuildingBlock: CEKHIL_clean_sbu_0, # of connection points: 4
#     Node 1, Type 0, BuildingBlock: CEKHIL_clean_sbu_0, # of connection points: 4
#     Node 2, Type 0, BuildingBlock: CEKHIL_clean_sbu_0, # of connection points: 4
#     Node 3, Type 0, BuildingBlock: CEKHIL_clean_sbu_0, # of connection points: 4
#     Node 4, Type 0, BuildingBlock: CEKHIL_clean_sbu_0, # of connection points: 4
#     Node 5, Type 0, BuildingBlock: CEKHIL_clean_sbu_0, # of connection points: 4
#     Node 6, Type 0, BuildingBlock: CEKHIL_clean_sbu_0, # of connection points: 4
#     Node 7, Type 0, BuildingBlock: CEKHIL_clean_sbu_0, # of connection points: 4
#     Node 8, Type 0, BuildingBlock: CEKHIL_clean_sbu_0, # of connection points: 4
#     Node 9, Type 0, BuildingBlock: CEKHIL_clean_sbu_0, # of connection points: 4
#     Node 10, Type 0, BuildingBlock: CEKHIL_clean_sbu_0, # of connection points: 4
#     Node 11, Type 0, BuildingBlock: CEKHIL_clean_sbu_0, # of connection points: 4
#     Node 12, Type 0, BuildingBlock: CEKHIL_clean_sbu_0, # of connection points: 4
#     Node 13, Type 0, BuildingBlock: CEKHIL_clean_sbu_0, # of connection points: 4
#     Node 14, Type 0, BuildingBlock: CEKHIL_clean_sbu_0, # of connection points: 4
#     Node 15, Type 0, BuildingBlock: CEKHIL_clean_sbu_0, # of connection points: 4
#     Edge 16, Type (0, 0), BuildingBlock: TEMPAE_clean_linker_10, # of connection points: 2
#     Edge 17, Type (0, 0), BuildingBlock: TEMPAE_clean_linker_10, # of connection points: 2
#     Edge 18, Type (0, 0), BuildingBlock: TEMPAE_clean_linker_10, # of connection points: 2
#     Edge 19, Type (0, 0), BuildingBlock: TEMPAE_clean_linker_10, # of connection points: 2
#     Edge 20, Type (0, 0), BuildingBlock: TEMPAE_clean_linker_10, # of connection points: 2
#     Edge 21, Type (0, 0), BuildingBlock: TEMPAE_clean_linker_10, # of connection points: 2
#     Edge 22, Type (0, 0), BuildingBlock: TEMPAE_clean_linker_10, # of connection points: 2
#     Edge 23, Type (0, 0), BuildingBlock: TEMPAE_clean_linker_10, # of connection points: 2
#     Edge 24, Type (0, 0), BuildingBlock: TEMPAE_clean_linker_10, # of connection points: 2
#     Edge 25, Type (0, 0), BuildingBlock: TEMPAE_clean_linker_10, # of connection points: 2
#     Edge 26, Type (0, 0), BuildingBlock: TEMPAE_clean_linker_10, # of connection points: 2
#     Edge 27, Type (0, 0), BuildingBlock: TEMPAE_clean_linker_10, # of connection points: 2
#     Edge 28, Type (0, 0), BuildingBlock: TEMPAE_clean_linker_10, # of connection points: 2
#     Edge 29, Type (0, 0), BuildingBlock: TEMPAE_clean_linker_10, # of connection points: 2
#     Edge 30, Type (0, 0), BuildingBlock: TEMPAE_clean_linker_10, # of connection points: 2
#     Edge 31, Type (0, 0), BuildingBlock: TEMPAE_clean_linker_10, # of connection points: 2
#     Edge 32, Type (0, 0), BuildingBlock: TEMPAE_clean_linker_10, # of connection points: 2
#     Edge 33, Type (0, 0), BuildingBlock: TEMPAE_clean_linker_10, # of connection points: 2
#     Edge 34, Type (0, 0), BuildingBlock: TEMPAE_clean_linker_10, # of connection points: 2
#     Edge 35, Type (0, 0), BuildingBlock: TEMPAE_clean_linker_10, # of connection points: 2
#     Edge 36, Type (0, 0), BuildingBlock: TEMPAE_clean_linker_10, # of connection points: 2
#     Edge 37, Type (0, 0), BuildingBlock: TEMPAE_clean_linker_10, # of connection points: 2
#     Edge 38, Type (0, 0), BuildingBlock: TEMPAE_clean_linker_10, # of connection points: 2
#     Edge 39, Type (0, 0), BuildingBlock: TEMPAE_clean_linker_10, # of connection points: 2
#     Edge 40, Type (0, 0), BuildingBlock: TEMPAE_clean_linker_10, # of connection points: 2
#     Edge 41, Type (0, 0), BuildingBlock: TEMPAE_clean_linker_10, # of connection points: 2
#     Edge 42, Type (0, 0), BuildingBlock: TEMPAE_clean_linker_10, # of connection points: 2
#     Edge 43, Type (0, 0), BuildingBlock: TEMPAE_clean_linker_10, # of connection points: 2
#     Edge 44, Type (0, 0), BuildingBlock: TEMPAE_clean_linker_10, # of connection points: 2
#     Edge 45, Type (0, 0), BuildingBlock: TEMPAE_clean_linker_10, # of connection points: 2
#     Edge 46, Type (0, 0), BuildingBlock: TEMPAE_clean_linker_10, # of connection points: 2
#     Edge 47, Type (0, 0), BuildingBlock: TEMPAE_clean_linker_10, # of connection points: 2
# Relax obj value: 0.040
# Max RMSD: 0.061
# Mean RMSD: 0.061
data_MOF--net-uoy--node1-CEKHIL_clean_sbu_0--edge1-TEMPAE_clean_linker_10
_symmetry_space_group_name_H-M    P1
_symmetry_Int_Tables_number       1
_symmetry_cell_setting            triclinic
loop_
_symmetry_equiv_pos_as_xyz
'x, y, z'
_cell_length_a     27.684179
_cell_length_b     27.666174
_cell_length_c     107.73862
_cell_angle_alpha  90.009373
_cell_angle_beta   90.023494
_cell_angle_gamma 89.993532
loop_
_atom_site_label
_atom_site_type_symbol
_atom_site_fract_x
_atom_site_fract_y
_atom_site_fract_z
_atom_type_partial_charge
Co0 Co 0.24505 0.11293 0.18678 0.0
O1 O 0.17618 0.11968 0.18848 0.0
O2 O 0.21211 0.05698 0.17976 0.0
C3 C 0.26377 0.13543 0.20633 0.0
O4 O 0.31572 0.09314 0.18409 0.0
Co5 Co 0.31046 0.20404 0.18965 0.0
O6 O 0.36247 0.15471 0.19069 0.0
C7 C 0.25194 0.19126 0.16712 0.0
C8 C 0.17205 0.07786 0.18317 0.0
C9 C 0.35728 0.11114 0.18702 0.0
O10 O 0.24299 0.14722 0.17022 0.0
O11 O 0.27384 0.2213 0.1742 0.0
O12 O 0.25022 0.09131 0.20405 0.0
O13 O 0.26063 0.16483 0.19708 0.0
Co14 Co 0.88968 0.73879 0.43621 0.0
O15 O 0.88107 0.66979 0.43732 0.0
O16 O 0.94421 0.70509 0.42871 0.0
C17 C 0.86908 0.75494 0.45604 0.0
O18 O 0.91188 0.80932 0.43406 0.0
Co19 Co 0.80252 0.80822 0.4404 0.0
O20 O 0.85427 0.85714 0.44223 0.0
C21 C 0.81245 0.75675 0.4165 0.0
C22 C 0.92253 0.66515 0.43187 0.0
C23 C 0.89668 0.85093 0.43791 0.0
O24 O 0.85393 0.73989 0.41981 0.0
O25 O 0.78546 0.78198 0.42366 0.0
O26 O 0.91267 0.74085 0.4534 0.0
O27 O 0.83893 0.75443 0.44692 0.0
Co28 Co 0.26783 0.38864 0.68666 0.0
O29 O 0.33673 0.38181 0.68853 0.0
O30 O 0.30137 0.44315 0.67908 0.0
C31 C 0.24912 0.36956 0.70645 0.0
O32 O 0.1972 0.40889 0.6837 0.0
Co33 Co 0.2006 0.29969 0.69067 0.0
O34 O 0.14971 0.35005 0.69142 0.0
C35 C 0.25784 0.3075 0.66765 0.0
C36 C 0.34123 0.42275 0.68281 0.0
C37 C 0.15544 0.39256 0.68709 0.0
O38 O 0.27007 0.35111 0.67051 0.0
O39 O 0.23379 0.28006 0.67496 0.0
O40 O 0.26262 0.41325 0.70368 0.0
O41 O 0.25183 0.33865 0.69753 0.0
Co42 Co 0.61489 0.76711 0.93645 0.0
O43 O 0.62134 0.83605 0.93825 0.0
O44 O 0.56061 0.80026 0.92863 0.0
C45 C 0.63314 0.7494 0.9563 0.0
O46 O 0.59511 0.69628 0.93357 0.0
Co47 Co 0.70354 0.70015 0.94091 0.0
O48 O 0.65303 0.6495 0.94199 0.0
C49 C 0.69642 0.75591 0.91762 0.0
C50 C 0.58067 0.84027 0.9324 0.0
C51 C 0.61093 0.65487 0.93738 0.0
O52 O 0.65309 0.7691 0.92043 0.0
O53 O 0.72341 0.73164 0.92499 0.0
O54 O 0.5894 0.76208 0.95336 0.0
O55 O 0.66455 0.75194 0.94751 0.0
Co56 Co 0.24632 0.39526 0.06065 0.0
O57 O 0.17757 0.38619 0.05905 0.0
O58 O 0.21175 0.45014 0.06763 0.0
C59 C 0.26511 0.37333 0.04108 0.0
O60 O 0.31617 0.41804 0.06335 0.0
Co61 Co 0.31738 0.30876 0.05756 0.0
O62 O 0.36522 0.36133 0.05521 0.0
C63 C 0.2627 0.32014 0.08089 0.0
C64 C 0.17227 0.428 0.06432 0.0
C65 C 0.35797 0.40359 0.05953 0.0
O66 O 0.24554 0.36091 0.07719 0.0
O67 O 0.28988 0.29298 0.07429 0.0
O68 O 0.25032 0.41699 0.04341 0.0
O69 O 0.26383 0.34375 0.05034 0.0
Co70 Co 0.61413 0.74526 0.30972 0.0
O71 O 0.62014 0.67627 0.30791 0.0
O72 O 0.55972 0.71261 0.31756 0.0
C73 C 0.63274 0.76293 0.28986 0.0
O74 O 0.59467 0.81616 0.31259 0.0
Co75 Co 0.70329 0.81174 0.30537 0.0
O76 O 0.65324 0.86291 0.30448 0.0
C77 C 0.69598 0.75517 0.32851 0.0
C78 C 0.5795 0.67249 0.31379 0.0
C79 C 0.61095 0.85765 0.30897 0.0
O80 O 0.65225 0.74307 0.32576 0.0
O81 O 0.72325 0.77897 0.32112 0.0
O82 O 0.58895 0.7502 0.29275 0.0
O83 O 0.66386 0.76037 0.29873 0.0
Co84 Co 0.2666 0.11442 0.55992 0.0
O85 O 0.33555 0.12198 0.55834 0.0
O86 O 0.30019 0.05974 0.5674 0.0
C87 C 0.24887 0.13462 0.54015 0.0
O88 O 0.19599 0.09321 0.5625 0.0
Co89 Co 0.19803 0.20247 0.55599 0.0
O90 O 0.14862 0.1511 0.55428 0.0
C91 C 0.25129 0.19246 0.57961 0.0
C92 C 0.34005 0.08066 0.56389 0.0
C93 C 0.1545 0.10871 0.55866 0.0
O94 O 0.26746 0.15074 0.57625 0.0
O95 O 0.22568 0.21958 0.57258 0.0
O96 O 0.2627 0.09092 0.5428 0.0
O97 O 0.25061 0.16504 0.5492 0.0
Co98 Co 0.89008 0.76648 0.81016 0.0
O99 O 0.88282 0.83545 0.80844 0.0
O100 O 0.94435 0.80009 0.81782 0.0
C101 C 0.87112 0.74831 0.79034 0.0
O102 O 0.91083 0.69587 0.81293 0.0
Co103 Co 0.80206 0.69818 0.80594 0.0
O104 O 0.85343 0.64862 0.80443 0.0
C105 C 0.81058 0.75233 0.82947 0.0
C106 C 0.92375 0.83996 0.81417 0.0
C107 C 0.89551 0.65442 0.80901 0.0
O108 O 0.85279 0.76777 0.82632 0.0
O109 O 0.78371 0.72702 0.8223 0.0
O110 O 0.91469 0.76202 0.79315 0.0
O111 O 0.84013 0.75047 0.79925 0.0
Co112 Co 0.7452 0.61253 0.68651 0.0
O113 O 0.67638 0.62106 0.68818 0.0
O114 O 0.71065 0.55868 0.67892 0.0
C115 C 0.76348 0.63172 0.70633 0.0
O116 O 0.81539 0.59045 0.68374 0.0
Co117 Co 0.81499 0.69948 0.69067 0.0
O118 O 0.86403 0.64745 0.69191 0.0
C119 C 0.75782 0.69328 0.66756 0.0
C120 C 0.67113 0.58008 0.68251 0.0
C121 C 0.85728 0.60529 0.68745 0.0
O122 O 0.74446 0.64993 0.67034 0.0
O123 O 0.78249 0.71995 0.67493 0.0
O124 O 0.74908 0.58826 0.7036 0.0
O125 O 0.76208 0.66233 0.69733 0.0
Co126 Co 0.39181 0.24398 0.93677 0.0
O127 O 0.3833 0.17508 0.93815 0.0
O128 O 0.44532 0.20992 0.9289 0.0
C129 C 0.37362 0.26086 0.95672 0.0
O130 O 0.41368 0.3144 0.93424 0.0
Co131 Co 0.30493 0.31314 0.94142 0.0
O132 O 0.35662 0.36257 0.94254 0.0
C133 C 0.3105 0.25788 0.91801 0.0
C134 C 0.42398 0.17015 0.93234 0.0
C135 C 0.39869 0.35619 0.93801 0.0
O136 O 0.35386 0.24424 0.9207 0.0
O137 O 0.28401 0.28207 0.92551 0.0
O138 O 0.41693 0.2468 0.95377 0.0
O139 O 0.34247 0.25998 0.94783 0.0
Co140 Co 0.76736 0.8905 0.18613 0.0
O141 O 0.83598 0.88099 0.18784 0.0
O142 O 0.80248 0.94451 0.17887 0.0
C143 C 0.74829 0.87021 0.20578 0.0
O144 O 0.69754 0.91369 0.18343 0.0
Co145 Co 0.69623 0.8043 0.18962 0.0
O146 O 0.64855 0.85714 0.19162 0.0
C147 C 0.75044 0.81398 0.16616 0.0
C148 C 0.84169 0.92236 0.18239 0.0
C149 C 0.6557 0.89942 0.1873 0.0
O150 O 0.76791 0.85485 0.16973 0.0
O151 O 0.72345 0.78738 0.17297 0.0
O152 O 0.76351 0.91356 0.20327 0.0
O153 O 0.74958 0.83994 0.19668 0.0
Co154 Co 0.11414 0.26226 0.43632 0.0
O155 O 0.12178 0.33129 0.43778 0.0
O156 O 0.05949 0.29568 0.42879 0.0
C157 C 0.13453 0.24534 0.45613 0.0
O158 O 0.0928 0.19161 0.43387 0.0
Co159 Co 0.20184 0.19344 0.44041 0.0
O160 O 0.15037 0.14422 0.44223 0.0
C161 C 0.19184 0.24579 0.41665 0.0
C162 C 0.08045 0.33564 0.43223 0.0
C163 C 0.10808 0.15014 0.43779 0.0
O164 O 0.15033 0.2625 0.41998 0.0
O165 O 0.2188 0.22022 0.42373 0.0
O166 O 0.09079 0.25896 0.45347 0.0
O167 O 0.16481 0.2466 0.44705 0.0
Co168 Co 0.74329 0.88976 0.56005 0.0
O169 O 0.67434 0.88093 0.5589 0.0
O170 O 0.70938 0.94439 0.56746 0.0
C171 C 0.75953 0.86865 0.54025 0.0
O172 O 0.81371 0.91229 0.56222 0.0
Co173 Co 0.81315 0.80279 0.55599 0.0
O174 O 0.86178 0.85476 0.5541 0.0
C175 C 0.76133 0.81284 0.57983 0.0
C176 C 0.66955 0.92256 0.56428 0.0
C177 C 0.85536 0.89723 0.55839 0.0
O178 O 0.74438 0.85429 0.5765 0.0
O179 O 0.78669 0.78585 0.57271 0.0
O180 O 0.74533 0.9123 0.54282 0.0
O181 O 0.75918 0.83879 0.54943 0.0
Co182 Co 0.11439 0.24336 0.8104 0.0
O183 O 0.12309 0.17437 0.8092 0.0
O184 O 0.05992 0.20947 0.81786 0.0
C185 C 0.13503 0.25985 0.79058 0.0
O186 O 0.09208 0.31382 0.81262 0.0
Co187 Co 0.20154 0.3129 0.80627 0.0
O188 O 0.14982 0.36196 0.80465 0.0
C189 C 0.19173 0.26099 0.8301 0.0
C190 C 0.08161 0.1696 0.81464 0.0
C191 C 0.10735 0.35559 0.80892 0.0
O192 O 0.15015 0.2443 0.82681 0.0
O193 O 0.21874 0.28614 0.82294 0.0
O194 O 0.09146 0.24564 0.79319 0.0
O195 O 0.16511 0.25924 0.79971 0.0
Co196 Co 0.76859 0.61731 0.05944 0.0
O197 O 0.83729 0.62377 0.05715 0.0
O198 O 0.80232 0.56313 0.06704 0.0
C199 C 0.74763 0.63555 0.03976 0.0
O200 O 0.69829 0.59746 0.06283 0.0
Co201 Co 0.70183 0.70695 0.05579 0.0
O202 O 0.65023 0.65731 0.05588 0.0
C203 C 0.76132 0.69917 0.07835 0.0
C204 C 0.8419 0.58316 0.06302 0.0
C205 C 0.65618 0.61454 0.06002 0.0
O206 O 0.7723 0.65525 0.0755 0.0
O207 O 0.73731 0.72697 0.07112 0.0
O208 O 0.76195 0.59209 0.04251 0.0
O209 O 0.75144 0.66685 0.04857 0.0
Co210 Co 0.39229 0.26882 0.31011 0.0
O211 O 0.38365 0.33777 0.30901 0.0
O212 O 0.44609 0.30244 0.31797 0.0
C213 C 0.37354 0.25292 0.29015 0.0
O214 O 0.41424 0.19834 0.31239 0.0
Co215 Co 0.30545 0.19973 0.30537 0.0
O216 O 0.35721 0.15044 0.30397 0.0
C217 C 0.31145 0.25418 0.32891 0.0
C218 C 0.42454 0.34239 0.31475 0.0
C219 C 0.39931 0.15673 0.30849 0.0
O220 O 0.35479 0.26775 0.32624 0.0
O221 O 0.28478 0.23037 0.32136 0.0
O222 O 0.41694 0.2668 0.29307 0.0
O223 O 0.34261 0.25338 0.29909 0.0
C224 C 0.2089 0.28436 0.09695 0.0
C225 C 0.25337 0.30465 0.09367 0.0
C226 C 0.20181 0.26493 0.10887 0.0
C227 C 0.24002 0.26653 0.11762 0.0
C228 C 0.28453 0.28839 0.11436 0.0
C229 C 0.29077 0.3068 0.10235 0.0
C230 C 0.15403 0.2417 0.11201 0.0
C231 C 0.32598 0.29139 0.12345 0.0
C232 C 0.22423 0.25474 0.15238 0.0
C233 C 0.24052 0.20747 0.15443 0.0
C234 C 0.22028 0.27333 0.14031 0.0
C235 C 0.23454 0.2444 0.13012 0.0
C236 C 0.24892 0.19585 0.13212 0.0
C237 C 0.25109 0.17772 0.14427 0.0
C238 C 0.20354 0.3248 0.13854 0.0
C239 C 0.26523 0.16413 0.12151 0.0
H240 H 0.18029 0.28245 0.09009 0.0
H241 H 0.32515 0.32245 0.09968 0.0
H242 H 0.15943 0.20261 0.11384 0.0
H243 H 0.13895 0.25789 0.12059 0.0
H244 H 0.1272 0.24572 0.10441 0.0
H245 H 0.35773 0.31058 0.11952 0.0
H246 H 0.31434 0.31054 0.13199 0.0
H247 H 0.33732 0.25447 0.12622 0.0
H248 H 0.21574 0.2776 0.16026 0.0
H249 H 0.26409 0.14127 0.14588 0.0
H250 H 0.17647 0.32696 0.13097 0.0
H251 H 0.23468 0.3477 0.13582 0.0
H252 H 0.18742 0.34002 0.14714 0.0
H253 H 0.23828 0.16472 0.11389 0.0
H254 H 0.27101 0.12608 0.12445 0.0
H255 H 0.29967 0.17827 0.11769 0.0
C256 C 0.80939 0.70831 0.39678 0.0
C257 C 0.79542 0.74905 0.40364 0.0
C258 C 0.79297 0.70161 0.38453 0.0
C259 C 0.7631 0.73716 0.37898 0.0
C260 C 0.74893 0.77823 0.38591 0.0
C261 C 0.76481 0.78337 0.39817 0.0
C262 C 0.80791 0.65687 0.3775 0.0
C263 C 0.71809 0.8176 0.38026 0.0
C264 C 0.76173 0.75994 0.34439 0.0
C265 C 0.71527 0.74404 0.34106 0.0
C266 C 0.77881 0.7553 0.35657 0.0
C267 C 0.74902 0.73378 0.36568 0.0
C268 C 0.70341 0.71477 0.36225 0.0
C269 C 0.68693 0.72033 0.34998 0.0
C270 C 0.82753 0.77643 0.35984 0.0
C271 C 0.67097 0.69083 0.37168 0.0
H272 H 0.83271 0.68151 0.40102 0.0
H273 H 0.75422 0.81516 0.40339 0.0
H274 H 0.77559 0.63839 0.37367 0.0
H275 H 0.83109 0.66706 0.36952 0.0
H276 H 0.82812 0.63098 0.38343 0.0
H277 H 0.70963 0.84685 0.38698 0.0
H278 H 0.73706 0.83377 0.37219 0.0
H279 H 0.68364 0.80222 0.37679 0.0
H280 H 0.7843 0.77785 0.33759 0.0
H281 H 0.65123 0.7074 0.34751 0.0
H282 H 0.84949 0.74985 0.36509 0.0
H283 H 0.82246 0.80845 0.36591 0.0
H284 H 0.84813 0.78779 0.35149 0.0
H285 H 0.69174 0.66469 0.37738 0.0
H286 H 0.64027 0.67163 0.36723 0.0
H287 H 0.65616 0.71859 0.37806 0.0
C288 C 0.22623 0.24005 0.5981 0.0
C289 C 0.26015 0.20958 0.59242 0.0
C290 C 0.23234 0.25585 0.61034 0.0
C291 C 0.27403 0.2418 0.61703 0.0
C292 C 0.30924 0.21219 0.61125 0.0
C293 C 0.30153 0.19579 0.59904 0.0
C294 C 0.19329 0.28638 0.61623 0.0
C295 C 0.35465 0.19744 0.61802 0.0
C296 C 0.29189 0.31734 0.64611 0.0
C297 C 0.26889 0.28853 0.65505 0.0
C298 C 0.29702 0.3012 0.63379 0.0
C299 C 0.27827 0.25547 0.63034 0.0
C300 C 0.2576 0.22519 0.63948 0.0
C301 C 0.25343 0.24193 0.6517 0.0
C302 C 0.32014 0.33414 0.62434 0.0
C303 C 0.23678 0.17633 0.6362 0.0
H304 H 0.19396 0.25052 0.59306 0.0
H305 H 0.32803 0.17258 0.59464 0.0
H306 H 0.17784 0.26711 0.62434 0.0
H307 H 0.20874 0.32085 0.61967 0.0
H308 H 0.16351 0.29486 0.60966 0.0
H309 H 0.3803 0.17784 0.61189 0.0
H310 H 0.37302 0.22979 0.62186 0.0
H311 H 0.34534 0.17371 0.62596 0.0
H312 H 0.3045 0.35315 0.6486 0.0
H313 H 0.23611 0.21896 0.65852 0.0
H314 H 0.29187 0.34916 0.61814 0.0
H315 H 0.3459 0.3137 0.61845 0.0
H316 H 0.33956 0.36472 0.62879 0.0
H317 H 0.20434 0.18126 0.63028 0.0
H318 H 0.22617 0.15535 0.64456 0.0
H319 H 0.26321 0.15477 0.63081 0.0
C320 C 0.81122 0.79939 0.84947 0.0
C321 C 0.79269 0.76155 0.84222 0.0
C322 C 0.79527 0.8065 0.86173 0.0
C323 C 0.76097 0.77429 0.86691 0.0
C324 C 0.7416 0.73664 0.85955 0.0
C325 C 0.75733 0.73105 0.84729 0.0
C326 C 0.8159 0.84767 0.86924 0.0
C327 C 0.7057 0.70086 0.86477 0.0
C328 C 0.75919 0.74512 0.90118 0.0
C329 C 0.71553 0.76628 0.90501 0.0
C330 C 0.77564 0.74968 0.88895 0.0
C331 C 0.74818 0.77663 0.88031 0.0
C332 C 0.70566 0.80061 0.88426 0.0
C333 C 0.6896 0.79487 0.89656 0.0
C334 C 0.82089 0.72303 0.8851 0.0
C335 C 0.67597 0.83047 0.87536 0.0
H336 H 0.83821 0.82336 0.84557 0.0
H337 H 0.74297 0.70152 0.8418 0.0
H338 H 0.78642 0.86854 0.8737 0.0
H339 H 0.83909 0.83314 0.87676 0.0
H340 H 0.8379 0.87262 0.86346 0.0
H341 H 0.69283 0.67471 0.85768 0.0
H342 H 0.72261 0.68032 0.87248 0.0
H343 H 0.67397 0.72012 0.86864 0.0
H344 H 0.77982 0.72316 0.90761 0.0
H345 H 0.65616 0.81186 0.89944 0.0
H346 H 0.84601 0.7477 0.8802 0.0
H347 H 0.81129 0.6936 0.87855 0.0
H348 H 0.84015 0.70688 0.89315 0.0
H349 H 0.69957 0.85488 0.86989 0.0
H350 H 0.64831 0.8525 0.88024 0.0
H351 H 0.65727 0.80624 0.8687 0.0
C352 C 0.78776 0.76508 0.59816 0.0
C353 C 0.75348 0.79571 0.59268 0.0
C354 C 0.78232 0.74876 0.61038 0.0
C355 C 0.741 0.76252 0.61725 0.0
C356 C 0.70556 0.79252 0.61169 0.0
C357 C 0.71254 0.80936 0.5995 0.0
C358 C 0.8216 0.71783 0.61603 0.0
C359 C 0.66061 0.80709 0.61867 0.0
C360 C 0.72361 0.68498 0.64598 0.0
C361 C 0.74703 0.71301 0.65503 0.0
C362 C 0.71832 0.702 0.63376 0.0
C363 C 0.73725 0.74786 0.6305 0.0
C364 C 0.75845 0.77732 0.63973 0.0
C365 C 0.76285 0.75969 0.65186 0.0
C366 C 0.69476 0.66989 0.62419 0.0
C367 C 0.77947 0.82628 0.63665 0.0
H368 H 0.81971 0.75474 0.59299 0.0
H369 H 0.68578 0.8327 0.59525 0.0
H370 H 0.83742 0.73655 0.62418 0.0
H371 H 0.80625 0.68315 0.61936 0.0
H372 H 0.85109 0.70975 0.60935 0.0
H373 H 0.63496 0.82767 0.61276 0.0
H374 H 0.64199 0.77453 0.62231 0.0
H375 H 0.6705 0.82977 0.62677 0.0
H376 H 0.71076 0.64913 0.64833 0.0
H377 H 0.78048 0.78207 0.65877 0.0
H378 H 0.72271 0.65547 0.6178 0.0
H379 H 0.66869 0.69083 0.6185 0.0
H380 H 0.67558 0.63888 0.6285 0.0
H381 H 0.8117 0.82158 0.63065 0.0
H382 H 0.79047 0.8466 0.64509 0.0
H383 H 0.75302 0.84838 0.63141 0.0
C384 C 0.24495 0.26566 0.90215 0.0
C385 C 0.29074 0.2478 0.90544 0.0
C386 C 0.22738 0.26137 0.89 0.0
C387 C 0.25596 0.23824 0.88089 0.0
C388 C 0.30088 0.21752 0.88429 0.0
C389 C 0.31786 0.22274 0.89652 0.0
C390 C 0.17948 0.28436 0.88677 0.0
C391 C 0.33203 0.19193 0.87486 0.0
C392 C 0.19368 0.21342 0.85 0.0
C393 C 0.2089 0.25326 0.84297 0.0
C394 C 0.21018 0.20679 0.86224 0.0
C395 C 0.24153 0.24147 0.86762 0.0
C396 C 0.25701 0.2816 0.86052 0.0
C397 C 0.24091 0.28671 0.84827 0.0
C398 C 0.19372 0.16308 0.86947 0.0
C399 C 0.28953 0.32004 0.86596 0.0
H400 H 0.22332 0.28469 0.90894 0.0
H401 H 0.35303 0.20831 0.89898 0.0
H402 H 0.18565 0.31579 0.88057 0.0
H403 H 0.15624 0.25843 0.88167 0.0
H404 H 0.15968 0.29706 0.89512 0.0
H405 H 0.36229 0.17194 0.87928 0.0
H406 H 0.3101 0.16617 0.86932 0.0
H407 H 0.34745 0.21877 0.86832 0.0
H408 H 0.16925 0.18728 0.8459 0.0
H409 H 0.25252 0.31783 0.84294 0.0
H410 H 0.17125 0.17463 0.87746 0.0
H411 H 0.22542 0.14354 0.87329 0.0
H412 H 0.17231 0.13769 0.86368 0.0
H413 H 0.27143 0.33742 0.874 0.0
H414 H 0.29893 0.34855 0.85911 0.0
H415 H 0.32345 0.30352 0.86943 0.0
C416 C 0.7917 0.68738 0.10016 0.0
C417 C 0.77321 0.71792 0.0909 0.0
C418 C 0.7961 0.70343 0.11249 0.0
C419 C 0.78136 0.75093 0.11562 0.0
C420 C 0.76587 0.78286 0.10618 0.0
C421 C 0.76222 0.76607 0.09395 0.0
C422 C 0.81364 0.6686 0.12228 0.0
C423 C 0.74961 0.83374 0.1091 0.0
C424 C 0.72411 0.77086 0.1471 0.0
C425 C 0.75976 0.79731 0.15336 0.0
C426 C 0.73108 0.75524 0.13488 0.0
C427 C 0.77538 0.76519 0.12884 0.0
C428 C 0.8121 0.79088 0.1352 0.0
C429 C 0.80355 0.80735 0.14736 0.0
C430 C 0.69046 0.72909 0.12834 0.0
C431 C 0.86017 0.80108 0.12915 0.0
H432 H 0.80081 0.6503 0.0979 0.0
H433 H 0.74861 0.79034 0.08687 0.0
H434 H 0.83983 0.68653 0.12858 0.0
H435 H 0.78262 0.65653 0.12802 0.0
H436 H 0.83099 0.63618 0.11815 0.0
H437 H 0.74371 0.85558 0.10058 0.0
H438 H 0.71523 0.83242 0.11438 0.0
H439 H 0.77659 0.85242 0.11501 0.0
H440 H 0.69004 0.76341 0.15168 0.0
H441 H 0.83131 0.82745 0.15224 0.0
H442 H 0.7029 0.69309 0.12513 0.0
H443 H 0.67923 0.74979 0.12 0.0
H444 H 0.65838 0.72402 0.13439 0.0
H445 H 0.87652 0.76689 0.12578 0.0
H446 H 0.8859 0.81894 0.1356 0.0
H447 H 0.85496 0.82473 0.12094 0.0
C448 C 0.23895 0.2196 0.3982 0.0
C449 C 0.20898 0.25409 0.40382 0.0
C450 C 0.25519 0.22544 0.38599 0.0
C451 C 0.24205 0.2674 0.37928 0.0
C452 C 0.21269 0.30303 0.38498 0.0
C453 C 0.19589 0.29562 0.39717 0.0
C454 C 0.28541 0.18598 0.38018 0.0
C455 C 0.19885 0.34866 0.37819 0.0
C456 C 0.32002 0.28608 0.3507 0.0
C457 C 0.29177 0.26383 0.3415 0.0
C458 C 0.30302 0.29046 0.36294 0.0
C459 C 0.25692 0.27186 0.36607 0.0
C460 C 0.22728 0.2518 0.3567 0.0
C461 C 0.24495 0.24823 0.34455 0.0
C462 C 0.33537 0.31274 0.37266 0.0
C463 C 0.17803 0.23123 0.35963 0.0
H464 H 0.24882 0.1872 0.40326 0.0
H465 H 0.17303 0.32253 0.40153 0.0
H466 H 0.26648 0.17105 0.37194 0.0
H467 H 0.32035 0.20094 0.37693 0.0
H468 H 0.29291 0.15588 0.38672 0.0
H469 H 0.17844 0.37416 0.38419 0.0
H470 H 0.23171 0.36713 0.37469 0.0
H471 H 0.17627 0.33961 0.37001 0.0
H472 H 0.35601 0.29873 0.34844 0.0
H473 H 0.22243 0.23149 0.33753 0.0
H474 H 0.34911 0.28405 0.37893 0.0
H475 H 0.31482 0.33881 0.37844 0.0
H476 H 0.36679 0.33164 0.36848 0.0
H477 H 0.1822 0.19848 0.36548 0.0
H478 H 0.15769 0.22114 0.35113 0.0
H479 H 0.15626 0.25763 0.36499 0.0
C480 C 0.29651 0.19929 0.22032 0.0
C481 C 0.2838 0.15078 0.21842 0.0
C482 C 0.31414 0.21516 0.23181 0.0
C483 C 0.31939 0.18166 0.24165 0.0
C484 C 0.30781 0.13237 0.2397 0.0
C485 C 0.28998 0.11751 0.2281 0.0
C486 C 0.32581 0.26807 0.23354 0.0
C487 C 0.31327 0.09557 0.24995 0.0
C488 C 0.39606 0.22029 0.26925 0.0
C489 C 0.36048 0.23471 0.27772 0.0
C490 C 0.38328 0.20199 0.25752 0.0
C491 C 0.33387 0.19896 0.25418 0.0
C492 C 0.29792 0.21374 0.2627 0.0
C493 C 0.31167 0.23102 0.27441 0.0
C494 C 0.42254 0.18588 0.24872 0.0
C495 C 0.24489 0.21183 0.25942 0.0
H496 H 0.29196 0.22518 0.21286 0.0
H497 H 0.28048 0.07992 0.22665 0.0
H498 H 0.3014 0.28391 0.24063 0.0
H499 H 0.36331 0.27238 0.237 0.0
H500 H 0.3219 0.28901 0.2248 0.0
H501 H 0.30595 0.05817 0.24669 0.0
H502 H 0.35034 0.09701 0.25385 0.0
H503 H 0.2879 0.10412 0.25761 0.0
H504 H 0.43382 0.22273 0.27184 0.0
H505 H 0.28406 0.24227 0.28093 0.0
H506 H 0.42128 0.20789 0.24012 0.0
H507 H 0.41658 0.14769 0.24598 0.0
H508 H 0.45912 0.18917 0.25288 0.0
H509 H 0.23781 0.23456 0.25114 0.0
H510 H 0.22149 0.22461 0.26713 0.0
H511 H 0.23436 0.17428 0.25703 0.0
C512 C 0.80628 0.7805 0.4712 0.0
C513 C 0.85522 0.77374 0.46836 0.0
C514 C 0.79191 0.79786 0.48285 0.0
C515 C 0.82741 0.80941 0.49182 0.0
C516 C 0.87699 0.80358 0.48893 0.0
C517 C 0.89033 0.78541 0.47724 0.0
C518 C 0.73866 0.80291 0.48563 0.0
C519 C 0.91584 0.81615 0.49823 0.0
C520 C 0.78623 0.88878 0.51864 0.0
C521 C 0.77797 0.85429 0.52792 0.0
C522 C 0.80361 0.87489 0.50691 0.0
C523 C 0.81228 0.82537 0.50442 0.0
C524 C 0.80436 0.79053 0.51381 0.0
C525 C 0.78755 0.80546 0.52546 0.0
C526 C 0.81217 0.91308 0.49715 0.0
C527 C 0.81266 0.73733 0.51148 0.0
H528 H 0.779 0.77149 0.46436 0.0
H529 H 0.92823 0.78062 0.47504 0.0
H530 H 0.72878 0.77916 0.49353 0.0
H531 H 0.73032 0.84058 0.48842 0.0
H532 H 0.71569 0.79327 0.47754 0.0
H533 H 0.95273 0.81196 0.49431 0.0
H534 H 0.91129 0.85398 0.50144 0.0
H535 H 0.91258 0.79252 0.5065 0.0
H536 H 0.7792 0.92661 0.52054 0.0
H537 H 0.78123 0.77863 0.53261 0.0
H538 H 0.78755 0.90708 0.48917 0.0
H539 H 0.84967 0.91046 0.49358 0.0
H540 H 0.8062 0.9502 0.50077 0.0
H541 H 0.78852 0.72465 0.50393 0.0
H542 H 0.80583 0.715 0.51987 0.0
H543 H 0.85036 0.73111 0.50839 0.0
C544 C 0.22102 0.30724 0.72146 0.0
C545 C 0.22931 0.35606 0.7187 0.0
C546 C 0.20325 0.29308 0.73308 0.0
C547 C 0.19299 0.32867 0.74213 0.0
C548 C 0.20019 0.37817 0.73932 0.0
C549 C 0.2186 0.3913 0.72763 0.0
C550 C 0.19658 0.2399 0.73576 0.0
C551 C 0.1891 0.41713 0.7487 0.0
C552 C 0.11424 0.2883 0.76914 0.0
C553 C 0.14905 0.27863 0.77826 0.0
C554 C 0.12783 0.30604 0.75742 0.0
C555 C 0.17737 0.31358 0.75476 0.0
C556 C 0.21253 0.30424 0.76399 0.0
C557 C 0.19791 0.28717 0.77564 0.0
C558 C 0.0893 0.31615 0.74785 0.0
C559 C 0.26576 0.31124 0.76147 0.0
H560 H 0.22921 0.27982 0.71459 0.0
H561 H 0.22461 0.42911 0.7255 0.0
H562 H 0.22054 0.22892 0.74352 0.0
H563 H 0.15888 0.23271 0.73871 0.0
H564 H 0.20485 0.2169 0.72758 0.0
H565 H 0.19378 0.45401 0.74481 0.0
H566 H 0.15145 0.41332 0.75209 0.0
H567 H 0.21326 0.41322 0.75686 0.0
H568 H 0.0764 0.28211 0.77117 0.0
H569 H 0.22499 0.27976 0.78266 0.0
H570 H 0.094 0.29163 0.73979 0.0
H571 H 0.09283 0.35371 0.74435 0.0
H572 H 0.05229 0.31119 0.75162 0.0
H573 H 0.27734 0.28699 0.75382 0.0
H574 H 0.28838 0.30355 0.76976 0.0
H575 H 0.27277 0.34888 0.75843 0.0
C576 C 0.70204 0.69261 0.02626 0.0
C577 C 0.72582 0.64821 0.02768 0.0
C578 C 0.68297 0.70665 0.01477 0.0
C579 C 0.68839 0.67581 0.00439 0.0
C580 C 0.7112 0.6303 0.00582 0.0
C581 C 0.72947 0.61689 0.0175 0.0
C582 C 0.6586 0.75531 0.01364 0.0
C583 C 0.71777 0.59656 0.99494 0.0
C584 C 0.61283 0.70532 0.97587 0.0
C585 C 0.64634 0.73056 0.96861 0.0
C586 C 0.62632 0.68589 0.98742 0.0
C587 C 0.67393 0.69321 0.99188 0.0
C588 C 0.70766 0.71906 0.98457 0.0
C589 C 0.6936 0.73682 0.97295 0.0
C590 C 0.58977 0.65762 0.99485 0.0
C591 C 0.75842 0.7286 0.9891 0.0
H592 H 0.69876 0.71685 0.03411 0.0
H593 H 0.74776 0.5825 0.01857 0.0
H594 H 0.68033 0.77918 0.00754 0.0
H595 H 0.62249 0.75131 0.0093 0.0
H596 H 0.65416 0.77338 0.02278 0.0
H597 H 0.73254 0.56092 0.9978 0.0
H598 H 0.68281 0.59078 0.99013 0.0
H599 H 0.74289 0.61304 0.98813 0.0
H600 H 0.57645 0.69996 0.97241 0.0
H601 H 0.71945 0.75646 0.96732 0.0
H602 H 0.5828 0.67609 0.00382 0.0
H603 H 0.60423 0.6212 0.99705 0.0
H604 H 0.55494 0.65339 0.98984 0.0
H605 H 0.75725 0.74963 0.99787 0.0
H606 H 0.7803 0.74899 0.98223 0.0
H607 H 0.77695 0.69396 0.99114 0.0
C608 C 0.29356 0.39323 0.01963 0.0
C609 C 0.28489 0.35881 0.0289 0.0
C610 C 0.31144 0.37929 0.00796 0.0
C611 C 0.32023 0.32976 0.00551 0.0
C612 C 0.31229 0.29503 0.01493 0.0
C613 C 0.29496 0.31002 0.02653 0.0
C614 C 0.32003 0.41741 0.99818 0.0
C615 C 0.32075 0.24182 0.01264 0.0
C616 C 0.31203 0.28571 0.97226 0.0
C617 C 0.36077 0.27917 0.96917 0.0
C618 C 0.29848 0.3025 0.98402 0.0
C619 C 0.3346 0.31371 0.99286 0.0
C620 C 0.38397 0.30799 0.98973 0.0
C621 C 0.3965 0.29039 0.97792 0.0
C622 C 0.24543 0.3075 0.98705 0.0
C623 C 0.42345 0.32023 -0.00112 0.0
H624 H 0.28621 0.43104 0.02146 0.0
H625 H 0.28841 0.28326 0.03369 0.0
H626 H 0.35726 0.41428 0.99445 0.0
H627 H 0.29481 0.41183 0.9903 0.0
H628 H 0.31481 0.45459 0.00183 0.0
H629 H 0.31474 0.21969 0.02111 0.0
H630 H 0.29601 0.22884 0.00525 0.0
H631 H 0.35819 0.23571 0.00934 0.0
H632 H 0.28425 0.27701 0.96553 0.0
H633 H 0.43423 0.28571 0.97552 0.0
H634 H 0.23723 0.34523 0.98983 0.0
H635 H 0.23613 0.2839 0.99502 0.0
H636 H 0.22189 0.29769 0.97908 0.0
H637 H 0.41937 0.35811 0.0021 0.0
H638 H 0.46007 0.31574 0.99482 0.0
H639 H 0.42046 0.29666 0.00717 0.0
C640 C 0.61125 0.79281 0.26859 0.0
C641 C 0.64638 0.78125 0.27748 0.0
C642 C 0.62466 0.81 0.25681 0.0
C643 C 0.67427 0.815 0.25386 0.0
C644 C 0.70976 0.80365 0.26285 0.0
C645 C 0.69536 0.78722 0.27456 0.0
C646 C 0.58587 0.82236 0.24749 0.0
C647 C 0.76304 0.80794 0.26002 0.0
C648 C 0.71639 0.80843 0.22045 0.0
C649 C 0.72746 0.85688 0.21792 0.0
C650 C 0.69778 0.79453 0.232 0.0
C651 C 0.6896 0.83003 0.24122 0.0
C652 C 0.69939 0.87925 0.23861 0.0
C653 C 0.71852 0.89209 0.22699 0.0
C654 C 0.68829 0.74162 0.23446 0.0
C655 C 0.6906 0.91814 0.24817 0.0
H656 H 0.57334 0.78855 0.27086 0.0
H657 H 0.72268 0.77829 0.2814 0.0
H658 H 0.59083 0.8599 0.2441 0.0
H659 H 0.58878 0.79811 0.23932 0.0
H660 H 0.54898 0.81888 0.25144 0.0
H661 H 0.786 0.79848 0.26812 0.0
H662 H 0.77259 0.78366 0.25219 0.0
H663 H 0.77178 0.84537 0.25709 0.0
H664 H 0.72312 0.78108 0.21345 0.0
H665 H 0.72661 0.92965 0.22503 0.0
H666 H 0.65054 0.73634 0.23763 0.0
H667 H 0.71235 0.7287 0.24201 0.0
H668 H 0.69444 0.71885 0.22612 0.0
H669 H 0.6531 0.91571 0.25175 0.0
H670 H 0.69649 0.95499 0.24437 0.0
H671 H 0.71524 0.91283 0.25618 0.0
C672 C 0.11378 0.21557 0.47744 0.0
C673 C 0.14862 0.22655 0.46844 0.0
C674 C 0.12746 0.19776 0.48914 0.0
C675 C 0.1771 0.19152 0.49191 0.0
C676 C 0.21231 0.20224 0.4828 0.0
C677 C 0.19761 0.21933 0.47116 0.0
C678 C 0.08891 0.18611 0.49858 0.0
C679 C 0.26563 0.19665 0.48544 0.0
C680 C 0.21963 0.19713 0.52532 0.0
C681 C 0.22915 0.14838 0.52791 0.0
C682 C 0.20176 0.21148 0.51372 0.0
C683 C 0.19271 0.17615 0.50451 0.0
C684 C 0.20119 0.12671 0.50715 0.0
C685 C 0.21961 0.1134 0.51882 0.0
C686 C 0.19367 0.2646 0.51123 0.0
C687 C 0.19146 0.08802 0.49759 0.0
H688 H 0.07585 0.22074 0.47532 0.0
H689 H 0.22471 0.22777 0.46423 0.0
H690 H 0.09331 0.14846 0.50195 0.0
H691 H 0.09271 0.21027 0.50675 0.0
H692 H 0.0519 0.19033 0.49475 0.0
H693 H 0.28832 0.20548 0.47724 0.0
H694 H 0.27622 0.22077 0.49321 0.0
H695 H 0.27363 0.15905 0.48836 0.0
H696 H 0.22688 0.22434 0.53232 0.0
H697 H 0.22656 0.07564 0.52082 0.0
H698 H 0.15589 0.27091 0.50822 0.0
H699 H 0.21758 0.27671 0.50358 0.0
H700 H 0.20102 0.28733 0.51952 0.0
H701 H 0.15383 0.09101 0.49413 0.0
H702 H 0.19702 0.05105 0.50136 0.0
H703 H 0.21577 0.09306 0.48951 0.0
C704 C 0.78896 0.61089 0.72803 0.0
C705 C 0.78282 0.64535 0.71863 0.0
C706 C 0.8064 0.62445 0.73979 0.0
C707 C 0.81746 0.6736 0.74217 0.0
C708 C 0.8121 0.70827 0.73262 0.0
C709 C 0.79501 0.69369 0.72097 0.0
C710 C 0.81213 0.58644 0.74973 0.0
C711 C 0.82313 0.76109 0.7348 0.0
C712 C 0.8093 0.72254 0.77495 0.0
C713 C 0.8581 0.72792 0.77812 0.0
C714 C 0.79565 0.70396 0.76337 0.0
C715 C 0.83173 0.68968 0.75482 0.0
C716 C 0.88113 0.6938 0.75809 0.0
C717 C 0.89377 0.71331 0.7697 0.0
C718 C 0.74261 0.70083 0.76017 0.0
C719 C 0.92054 0.67825 0.74928 0.0
H720 H 0.77988 0.57343 0.72624 0.0
H721 H 0.79046 0.72052 0.71373 0.0
H722 H 0.84912 0.58785 0.75369 0.0
H723 H 0.78653 0.59369 0.75743 0.0
H724 H 0.80534 0.5494 0.74615 0.0
H725 H 0.81873 0.78315 0.72626 0.0
H726 H 0.79872 0.77565 0.74206 0.0
H727 H 0.86067 0.7654 0.73822 0.0
H728 H 0.78159 0.73377 0.78145 0.0
H729 H 0.93154 0.71693 0.77219 0.0
H730 H 0.73308 0.66336 0.75745 0.0
H731 H 0.73466 0.72448 0.7521 0.0
H732 H 0.71908 0.7119 0.76802 0.0
H733 H 0.91425 0.64054 0.74617 0.0
H734 H 0.95697 0.68055 0.75356 0.0
H735 H 0.91995 0.70147 0.74088 0.0
C736 C 0.08447 0.07273 0.1885 0.0
C737 C 0.12379 0.05507 0.18165 0.0
C738 C 0.03868 0.05113 0.18772 0.0
C739 C 0.03148 0.01133 0.17967 0.0
C740 C 0.0707 0.99409 0.17244 0.0
C741 C 0.11657 0.01581 0.17362 0.0
C742 C 0.99835 0.0701 0.19581 0.0
C743 C 0.0643 0.95239 0.16356 0.0
C744 C 0.92883 0.92632 0.18828 0.0
C745 C 0.89061 0.94373 0.18097 0.0
C746 C 0.97494 0.94736 0.18775 0.0
C747 C 0.98364 0.98619 0.17948 0.0
C748 C 0.94564 1.00289 0.17175 0.0
C749 C 0.89938 0.98187 0.1727 0.0
C750 C 0.01389 0.9291 0.19638 0.0
C751 C 0.95366 0.04348 0.16263 0.0
H752 H 0.0897 0.10293 0.19478 0.0
H753 H 0.14669 1.00219 0.16823 0.0
H754 H 0.96697 0.08064 0.19001 0.0
H755 H 0.98595 0.04124 0.20221 0.0
H756 H 0.00961 0.10186 0.20142 0.0
H757 H 0.09717 0.94574 0.1579 0.0
H758 H 0.05571 0.91901 0.16882 0.0
H759 H 0.03347 0.95952 0.15724 0.0
H760 H 0.92235 0.89702 0.19474 0.0
H761 H 0.87012 0.99527 0.16697 0.0
H762 H 0.02509 0.95848 0.20278 0.0
H763 H 0.04627 0.91824 0.191 0.0
H764 H 1.00173 0.89773 0.202 0.0
H765 H 0.96108 0.07754 0.16772 0.0
H766 H 0.9219 0.04927 0.1565 0.0
H767 H 0.9857 0.03573 0.15678 0.0
C768 C 0.02436 0.39333 0.42125 0.0
C769 C 0.05773 0.38392 0.43074 0.0
C770 C 1.00287 0.43935 0.42002 0.0
C771 C 0.0138 0.47623 0.42874 0.0
C772 C 0.04743 0.46664 0.43834 0.0
C773 C 0.06944 0.421 0.4391 0.0
C774 C 0.96825 0.44844 0.40946 0.0
C775 C 0.0592 0.50419 0.44807 0.0
C776 C 0.98762 0.61033 0.42343 0.0
C777 C 0.94447 0.6165 0.43007 0.0
C778 C 0.00957 0.56447 0.42242 0.0
C779 C 0.9883 0.52396 0.42837 0.0
C780 C 0.94417 0.52991 0.43483 0.0
C781 C 0.92272 0.57585 0.43552 0.0
C782 C 0.05612 0.55957 0.41526 0.0
C783 C 0.92052 0.48809 0.44149 0.0
H784 H 0.01548 0.36492 0.4147 0.0
H785 H 0.09494 0.41386 0.44652 0.0
H786 H 0.93153 0.45535 0.41316 0.0
H787 H 0.97936 0.48117 0.40423 0.0
H788 H 0.96639 0.41741 0.40293 0.0
H789 H 0.08636 0.49116 0.45488 0.0
H790 H 0.07328 0.53742 0.44359 0.0
H791 H 0.02587 0.51436 0.45316 0.0
H792 H 0.00456 0.64142 0.41913 0.0
H793 H 0.88939 0.58011 0.44068 0.0
H794 H 0.05347 0.52929 0.40853 0.0
H795 H 0.0861 0.55097 0.42172 0.0
H796 H 0.06544 0.59316 0.41014 0.0
H797 H 0.91464 0.45757 0.43499 0.0
H798 H 0.88525 0.4982 0.44566 0.0
H799 H 0.94468 0.4749 0.44898 0.0
C800 C 0.42824 0.42964 0.68869 0.0
C801 C 0.38959 0.44543 0.68129 0.0
C802 C 0.47395 0.45147 0.68797 0.0
C803 C 0.48187 0.48954 0.67942 0.0
C804 C 0.44338 0.50479 0.67165 0.0
C805 C 0.39752 0.48297 0.67278 0.0
C806 C 0.51341 0.4347 0.69665 0.0
C807 C 0.45054 0.54453 0.66224 0.0
C808 C 0.58314 0.57693 0.68767 0.0
C809 C 0.62234 0.55832 0.68092 0.0
C810 C 0.53716 0.55559 0.68703 0.0
C811 C 0.52961 0.51501 0.67926 0.0
C812 C 0.56862 0.49702 0.67207 0.0
C813 C 0.61465 0.51856 0.67309 0.0
C814 C 0.49707 0.57547 0.69506 0.0
C815 C 0.56193 0.45445 0.66348 0.0
H816 H 0.42245 0.40083 0.69535 0.0
H817 H 0.36794 0.49516 0.66698 0.0
H818 H 0.54556 0.4232 0.69127 0.0
H819 H 0.52479 0.46504 0.70272 0.0
H820 H 0.5017 0.40411 0.70261 0.0
H821 H 0.41831 0.54962 0.65623 0.0
H822 H 0.45826 0.57909 0.66707 0.0
H823 H 0.48216 0.53629 0.65627 0.0
H824 H 0.58867 0.60754 0.69379 0.0
H825 H 0.64463 0.50414 0.66778 0.0
H826 H 0.48535 0.54752 0.7018 0.0
H827 H 0.46526 0.58476 0.68927 0.0
H828 H 0.50833 0.60819 0.70029 0.0
H829 H 0.5542 0.42149 0.669 0.0
H830 H 0.5944 0.44764 0.65769 0.0
H831 H 0.53049 0.46062 0.65729 0.0
C832 C 0.42461 0.08112 0.93632 0.0
C833 C 0.44543 0.12136 0.93045 0.0
C834 C 0.4457 0.03505 0.93552 0.0
C835 C 0.48847 0.02855 0.92852 0.0
C836 C 0.5087 0.06862 0.92215 0.0
C837 C 0.48718 0.11465 0.92328 0.0
C838 C 0.42326 0.99373 0.94264 0.0
C839 C 0.55377 0.06312 0.91441 0.0
C840 C 0.571 0.92626 0.93887 0.0
C841 C 0.55786 0.88852 0.93085 0.0
C842 C 0.54916 0.97195 0.93809 0.0
C843 C 0.51399 0.98084 0.92882 0.0
C844 C 0.5015 0.9433 0.92043 0.0
C845 C 0.52308 0.89733 0.92166 0.0
C846 C 0.56278 0.0103 0.94744 0.0
C847 C 0.46504 0.95162 0.91024 0.0
H848 H 0.39236 0.0858 0.94189 0.0
H849 H 0.50336 0.14543 0.91865 0.0
H850 H 0.41625 0.96274 0.93636 0.0
H851 H 0.44871 0.98108 0.94991 0.0
H852 H 0.38876 0.00416 0.94717 0.0
H853 H 0.56205 0.09629 0.909 0.0
H854 H 0.58499 0.05502 0.92052 0.0
H855 H 0.54982 0.03231 0.90789 0.0
H856 H 0.59763 0.91969 0.94606 0.0
H857 H 0.51304 0.86843 0.91537 0.0
H858 H 0.53047 0.02091 0.95289 0.0
H859 H 0.57597 0.04314 0.94261 0.0
H860 H 0.59122 0.99783 0.95397 0.0
H861 H 0.42901 0.95879 0.91434 0.0
H862 H 0.46205 0.92011 0.90389 0.0
H863 H 0.47517 0.98396 0.90473 0.0
C864 C 0.08268 0.42526 0.06133 0.0
C865 C 0.12347 0.44967 0.06589 0.0
C866 C 0.03649 0.44619 0.06184 0.0
C867 C 0.03058 0.49265 0.06714 0.0
C868 C 0.07132 0.51681 0.07217 0.0
C869 C 0.11731 0.49514 0.07144 0.0
C870 C 0.99429 0.41929 0.05624 0.0
C871 C 0.06651 0.56612 0.07803 0.0
C872 C 0.92546 0.56845 0.05535 0.0
C873 C 0.89004 0.56031 0.06441 0.0
C874 C 0.97118 0.54672 0.05616 0.0
C875 C 0.98251 0.51722 0.06651 0.0
C876 C 0.94722 0.5098 0.07586 0.0
C877 C 0.90105 0.53078 0.0746 0.0
C878 C 0.00702 0.55453 0.04578 0.0
C879 C 0.95827 0.4797 0.08719 0.0
H880 H 0.08694 0.39006 0.05705 0.0
H881 H 0.14854 0.51419 0.07503 0.0
H882 H 0.96468 0.4159 0.06312 0.0
H883 H 0.97985 0.43991 0.04822 0.0
H884 H 0.00445 0.38253 0.05302 0.0
H885 H 0.10056 0.57812 0.08253 0.0
H886 H 0.05644 0.59302 0.07085 0.0
H887 H 0.03726 0.56591 0.08507 0.0
H888 H 0.91698 0.59099 0.04741 0.0
H889 H 0.87386 0.52477 0.08167 0.0
H890 H 0.01695 0.51927 0.04158 0.0
H891 H 0.04064 0.57088 0.04949 0.0
H892 H 0.99256 0.57838 0.03837 0.0
H893 H 0.96578 0.44185 0.0844 0.0
H894 H 0.92801 0.47971 0.09396 0.0
H895 H 0.9912 0.49361 0.09186 0.0
C896 C 0.56177 0.58982 0.30596 0.0
C897 C 0.55622 0.62462 0.3153 0.0
C898 C 0.53998 0.54416 0.3069 0.0
C899 C 0.51322 0.53217 0.31767 0.0
C900 C 0.50841 0.56685 0.3273 0.0
C901 C 0.52925 0.61307 0.3259 0.0
C902 C 0.54483 0.50909 0.29622 0.0
C903 C 0.48137 0.55504 0.33907 0.0
C904 C 0.42036 0.43247 0.3131 0.0
C905 C 0.44593 0.39108 0.31682 0.0
C906 C 0.44109 0.47871 0.31382 0.0
C907 C 0.48865 0.48407 0.31845 0.0
C908 C 0.51396 0.44271 0.32274 0.0
C909 C 0.49236 0.39668 0.32184 0.0
C910 C 0.41282 0.52158 0.30906 0.0
C911 C 0.56452 0.44688 0.32787 0.0
H912 H 0.58234 0.59878 0.29771 0.0
H913 H 0.52531 0.63979 0.33319 0.0
H914 H 0.56207 0.47516 0.29945 0.0
H915 H 0.50851 0.49952 0.29261 0.0
H916 H 0.56661 0.5241 0.28847 0.0
H917 H 0.48309 0.58491 0.34595 0.0
H918 H 0.44292 0.54756 0.33691 0.0
H919 H 0.49654 0.52187 0.34335 0.0
H920 H 0.38435 0.42868 0.30927 0.0
H921 H 0.51233 0.36499 0.32479 0.0
H922 H 0.43099 0.53665 0.30074 0.0
H923 H 0.41173 0.5506 0.31616 0.0
H924 H 0.37516 0.51187 0.30652 0.0
H925 H 0.58976 0.45715 0.32032 0.0
H926 H 0.57727 0.41246 0.33204 0.0
H927 H 0.56618 0.47575 0.335 0.0
C928 C 0.61421 0.98652 0.57306 0.0
C929 C 0.62089 0.94456 0.56595 0.0
C930 C 0.56833 0.00841 0.57405 0.0
C931 C 0.52839 0.98843 0.56757 0.0
C932 C 0.5349 0.9456 0.56057 0.0
C933 C 0.5808 0.92406 0.55994 0.0
C934 C 0.56279 0.05349 0.5818 0.0
C935 C 0.49375 0.92346 0.55332 0.0
C936 C 0.39722 0.02282 0.57447 0.0
C937 C 0.38839 0.05799 0.56538 0.0
C938 C 0.44317 1.00118 0.57565 0.0
C939 C 0.48067 0.01397 0.56729 0.0
C940 C 0.47175 0.04952 0.55812 0.0
C941 C 0.42609 0.07148 0.55739 0.0
C942 C 0.45148 0.96437 0.58576 0.0
C943 C 0.51005 0.06341 0.54879 0.0
H944 H 0.64488 1.00247 0.57779 0.0
H945 H 0.5855 0.89171 0.5544 0.0
H946 H 0.55456 0.08474 0.57571 0.0
H947 H 0.53207 0.04942 0.58833 0.0
H948 H 0.59596 0.06184 0.5872 0.0
H949 H 0.50429 0.88918 0.54869 0.0
H950 H 0.46271 0.91609 0.55954 0.0
H951 H 0.48117 0.94928 0.54613 0.0
H952 H 0.36835 0.0125 0.58073 0.0
H953 H 0.41948 0.0984 0.55028 0.0
H954 H 0.4838 0.97433 0.59129 0.0
H955 H 0.45865 0.92845 0.58157 0.0
H956 H 0.42 0.96117 0.59209 0.0
H957 H 0.54287 0.07649 0.55364 0.0
H958 H 0.49754 0.09204 0.54231 0.0
H959 H 0.52065 0.03123 0.54327 0.0
C960 C 0.08005 0.0808 0.81033 0.0
C961 C 0.05965 0.12093 0.81635 0.0
C962 C 0.05853 0.03488 0.81098 0.0
C963 C 0.01582 0.02838 0.81801 0.0
C964 C 0.99597 0.06835 0.8245 0.0
C965 C 0.01784 0.11425 0.8235 0.0
C966 C 0.08055 0.9937 0.80371 0.0
C967 C 0.95103 0.06283 0.83229 0.0
C968 C 0.9328 0.92618 0.80777 0.0
C969 C 0.94632 0.88834 0.81572 0.0
C970 C 0.95468 0.97188 0.80854 0.0
C971 C 0.99024 0.98069 0.81772 0.0
C972 C 1.00305 0.94305 0.82605 0.0
C973 C 0.98145 0.89708 0.82483 0.0
C974 C 0.94071 0.01034 0.79925 0.0
C975 C 0.03989 0.95123 0.83615 0.0
H976 H 0.11229 0.08549 0.80475 0.0
H977 H 1.00198 0.14495 0.82824 0.0
H978 H 0.08792 0.9626 0.80992 0.0
H979 H 0.05467 0.98118 0.79653 0.0
H980 H 0.11478 0.00421 0.79906 0.0
H981 H 0.94283 0.09599 0.83772 0.0
H982 H 0.9197 0.05472 0.82622 0.0
H983 H 0.95514 0.03202 0.8388 0.0
H984 H 0.90589 0.91967 0.80065 0.0
H985 H 0.9918 0.86811 0.83106 0.0
H986 H 0.97281 0.02095 0.79372 0.0
H987 H 0.92777 0.04315 0.80414 0.0
H988 H 0.91198 0.99796 0.79279 0.0
H989 H 0.07579 0.95831 0.83197 0.0
H990 H 0.04303 0.91969 0.84248 0.0
H991 H 0.03005 0.98358 0.84169 0.0
C992 C 0.6108 0.9704 0.17816 0.0
C993 C 0.61334 0.93238 0.18675 0.0
C994 C 0.56932 0.99984 0.17739 0.0
C995 C 0.52996 0.99163 0.18555 0.0
C996 C 0.53279 0.95378 0.19435 0.0
C997 C 0.57413 0.92453 0.19477 0.0
C998 C 0.56745 0.03952 0.16779 0.0
C999 C 0.49226 0.94438 0.20342 0.0
C1000 C 0.44283 0.09375 0.19305 0.0
C1001 C 0.40143 0.0806 0.18629 0.0
C1002 C 0.485 0.06562 0.19271 0.0
C1003 C 0.48636 0.02346 0.18528 0.0
C1004 C 0.44506 0.01033 0.17825 0.0
C1005 C 0.40291 0.03879 0.17893 0.0
C1006 C 0.52771 0.08042 0.20057 0.0
C1007 C 0.44526 0.96594 0.17011 0.0
H1008 H 0.64078 0.97651 0.17189 0.0
H1009 H 0.5759 0.89556 0.20154 0.0
H1010 H 0.53537 0.03458 0.16174 0.0
H1011 H 0.56356 0.07511 0.17243 0.0
H1012 H 0.60032 0.04032 0.16188 0.0
H1013 H 0.5002 0.91362 0.20973 0.0
H1014 H 0.48568 0.9771 0.20914 0.0
H1015 H 0.45836 0.93643 0.19833 0.0
H1016 H 0.44205 0.12576 0.19885 0.0
H1017 H 0.37129 0.02851 0.17362 0.0
H1018 H 0.56033 0.08452 0.19469 0.0
H1019 H 0.53562 0.05181 0.2075 0.0
H1020 H 0.52134 0.11493 0.20558 0.0
H1021 H 0.47642 0.96719 0.16364 0.0
H1022 H 0.41149 0.96238 0.16461 0.0
H1023 H 0.44956 0.93313 0.17592 0.0
C1024 C 0.96887 0.89586 0.42938 0.0
C1025 C 0.92863 0.89418 0.43728 0.0
C1026 C 0.99779 0.93773 0.42861 0.0
C1027 C 0.98667 0.97856 0.43605 0.0
C1028 C 0.94632 0.97683 0.44409 0.0
C1029 C 0.91778 0.93496 0.44455 0.0
C1030 C 0.0403 0.93829 0.41985 0.0
C1031 C 0.93364 0.019 0.45239 0.0
C1032 C 0.08646 0.06669 0.44475 0.0
C1033 C 0.07633 0.10676 0.43716 0.0
C1034 C 0.058 0.02476 0.44435 0.0
C1035 C 0.01853 0.02221 0.43603 0.0
C1036 C 0.00821 0.06229 0.42825 0.0
C1037 C 0.03697 0.10428 0.42898 0.0
C1038 C 0.06977 0.98343 0.453 0.0
C1039 C 0.96669 0.06082 0.41918 0.0
H1040 H 0.97739 0.86474 0.42368 0.0
H1041 H 0.88706 0.93406 0.45078 0.0
H1042 H 0.03745 0.96959 0.41345 0.0
H1043 H 0.0743 0.9427 0.42518 0.0
H1044 H 0.04282 0.90463 0.41426 0.0
H1045 H 0.90059 0.01222 0.45797 0.0
H1046 H 0.96401 0.02657 0.45882 0.0
H1047 H 0.92788 0.052 0.44673 0.0
H1048 H 0.1165 0.06826 0.4512 0.0
H1049 H 0.02904 0.13487 0.42303 0.0
H1050 H 0.07608 0.94987 0.44761 0.0
H1051 H 0.03873 0.97654 0.45927 0.0
H1052 H 0.10223 0.99077 0.45877 0.0
H1053 H 0.97021 0.02886 0.41302 0.0
H1054 H 0.96484 0.09388 0.41335 0.0
H1055 H 0.9321 0.05701 0.42428 0.0
C1056 C 0.11114 0.46595 0.67891 0.0
C1057 C 0.11161 0.42371 0.68612 0.0
C1058 C 0.06935 0.495 0.67813 0.0
C1059 C 0.02729 0.48196 0.68487 0.0
C1060 C 0.02758 0.43929 0.69211 0.0
C1061 C 0.06942 0.4107 0.69258 0.0
C1062 C 0.07034 0.53995 0.67021 0.0
C1063 C 0.98403 0.42439 0.69964 0.0
C1064 C 0.93926 0.58028 0.69472 0.0
C1065 C 0.90013 0.57297 0.68662 0.0
C1066 C 0.98079 0.55128 0.69415 0.0
C1067 C 0.98399 0.51431 0.6851 0.0
C1068 C 0.94486 0.50692 0.6768 0.0
C1069 C 0.90313 0.53598 0.67775 0.0
C1070 C 0.02096 0.55974 0.70339 0.0
C1071 C 0.94711 0.4683 0.66693 0.0
H1072 H 0.14332 0.47623 0.67383 0.0
H1073 H 0.06924 0.37838 0.69827 0.0
H1074 H 0.03957 0.53967 0.6636 0.0
H1075 H 0.06618 0.5724 0.67616 0.0
H1076 H 0.1045 0.54337 0.66487 0.0
H1077 H 0.98955 0.3894 0.70449 0.0
H1078 H 0.97589 0.45253 0.70668 0.0
H1079 H 0.95186 0.42116 0.69356 0.0
H1080 H 0.93716 0.60846 0.70169 0.0
H1081 H 0.87326 0.53033 0.67141 0.0
H1082 H 0.05524 0.56749 0.69846 0.0
H1083 H 0.02679 0.52665 0.70902 0.0
H1084 H 0.01307 0.59027 0.70978 0.0
H1085 H 0.97986 0.47336 0.66113 0.0
H1086 H 0.91483 0.46867 0.6608 0.0
H1087 H 0.94997 0.43217 0.67133 0.0
C1088 C 0.4212 0.4399 0.94462 0.0
C1089 C 0.43073 0.39933 0.93716 0.0
C1090 C 0.4501 0.48152 0.94404 0.0
C1091 C 0.4894 0.48324 0.93566 0.0
C1092 C 0.49909 0.44266 0.928 0.0
C1093 C 0.46992 0.401 0.92891 0.0
C1094 C 0.43899 0.52338 0.95259 0.0
C1095 C 0.54038 0.44325 0.91886 0.0
C1096 C 0.53947 0.60916 0.92868 0.0
C1097 C 0.57973 0.61107 0.93658 0.0
C1098 C 0.51056 0.56725 0.92797 0.0
C1099 C 0.52166 0.52663 0.93549 0.0
C1100 C 0.56222 0.52847 0.94347 0.0
C1101 C 0.59078 0.57036 0.94385 0.0
C1102 C 0.46789 0.56656 0.91925 0.0
C1103 C 0.5749 0.48655 0.95184 0.0
H1104 H 0.39131 0.43897 0.95111 0.0
H1105 H 0.47741 0.37002 0.92306 0.0
H1106 H 0.47032 0.53033 0.95876 0.0
H1107 H 0.43277 0.55671 0.94709 0.0
H1108 H 0.40669 0.51662 0.95845 0.0
H1109 H 0.54173 0.40989 0.91313 0.0
H1110 H 0.53701 0.47494 0.9126 0.0
H1111 H 0.57514 0.44696 0.92389 0.0
H1112 H 0.53075 0.64023 0.92297 0.0
H1113 H 0.62151 0.57142 0.95008 0.0
H1114 H 0.43394 0.56315 0.92464 0.0
H1115 H 0.47014 0.53468 0.91302 0.0
H1116 H 0.46577 0.59977 0.91348 0.0
H1117 H 0.54481 0.47967 0.95841 0.0
H1118 H 0.60834 0.49322 0.95728 0.0
H1119 H 0.57995 0.45321 0.94627 0.0
C1120 C 0.61488 0.53624 0.06587 0.0
C1121 C 0.61224 0.58375 0.06134 0.0
C1122 C 0.57336 0.50684 0.0665 0.0
C1123 C 0.52822 0.5252 0.06242 0.0
C1124 C 0.52521 0.57333 0.05808 0.0
C1125 C 0.567 0.60192 0.05764 0.0
C1126 C 0.57793 0.45581 0.0713 0.0
C1127 C 0.47804 0.59426 0.0535 0.0
C1128 C 0.43375 0.43681 0.05053 0.0
C1129 C 0.40015 0.43629 0.06026 0.0
C1130 C 0.47544 0.46558 0.05113 0.0
C1131 C 0.48461 0.49347 0.0619 0.0
C1132 C 0.451 0.49265 0.07184 0.0
C1133 C 0.4087 0.46462 0.07081 0.0
C1134 C 0.50939 0.46648 0.04016 0.0
C1135 C 0.45999 0.52101 0.08358 0.0
H1136 H 0.64944 0.52178 0.06879 0.0
H1137 H 0.56416 0.63852 0.05413 0.0
H1138 H 0.55099 0.44926 0.07874 0.0
H1139 H 0.57022 0.42983 0.06371 0.0
H1140 H 0.61458 0.44816 0.07502 0.0
H1141 H 0.4814 0.63288 0.05081 0.0
H1142 H 0.46522 0.57351 0.04532 0.0
H1143 H 0.44991 0.59115 0.06078 0.0
H1144 H 0.42706 0.415 0.04234 0.0
H1145 H 0.38305 0.46369 0.07841 0.0
H1146 H 0.54591 0.45445 0.04305 0.0
H1147 H 0.51291 0.50398 0.03662 0.0
H1148 H 0.49685 0.44294 0.03245 0.0
H1149 H 0.49545 0.51077 0.0876 0.0
H1150 H 0.43148 0.51488 0.09066 0.0
H1151 H 0.46156 0.5602 0.08144 0.0
C1152 C 0.42352 0.07441 0.30123 0.0
C1153 C 0.43143 0.11369 0.30924 0.0
C1154 C 0.45237 0.03274 0.30176 0.0
C1155 C 0.48981 0.0296 0.31067 0.0
C1156 C 0.49785 0.06892 0.31888 0.0
C1157 C 0.46889 0.11072 0.31798 0.0
C1158 C 0.44319 0.99232 0.29263 0.0
C1159 C 0.53704 0.06677 0.3286 0.0
C1160 C 0.53805 0.90257 0.31715 0.0
C1161 C 0.57998 0.90163 0.30983 0.0
C1162 C 0.50909 0.94444 0.31783 0.0
C1163 C 0.52191 0.9861 0.3109 0.0
C1164 C 0.56422 0.98532 0.30354 0.0
C1165 C 0.59273 0.9434 0.30316 0.0
C1166 C 0.46449 0.94399 0.32588 0.0
C1167 C 0.57886 0.02845 0.29581 0.0
H1168 H 0.39497 0.07646 0.29436 0.0
H1169 H 0.47503 0.14072 0.32426 0.0
H1170 H 0.47591 0.98614 0.28689 0.0
H1171 H 0.43556 0.95821 0.29766 0.0
H1172 H 0.41236 1.00019 0.28634 0.0
H1173 H 0.53726 0.09929 0.33465 0.0
H1174 H 0.53213 0.03425 0.33449 0.0
H1175 H 0.57285 0.06352 0.32406 0.0
H1176 H 0.52795 0.87069 0.32239 0.0
H1177 H 0.6248 0.94319 0.29739 0.0
H1178 H 0.43184 0.94821 0.32001 0.0
H1179 H 0.46528 0.97496 0.33243 0.0
H1180 H 0.46107 0.90998 0.33129 0.0
H1181 H 0.55034 0.03642 0.28886 0.0
H1182 H 0.61348 0.0225 0.29083 0.0
H1183 H 0.58263 0.0609 0.30177 0.0
C1184 C 0.90026 0.96933 0.56702 0.0
C1185 C 0.89847 0.92937 0.55901 0.0
C1186 C 0.9421 0.99828 0.56783 0.0
C1187 C 0.98276 0.98751 0.5603 0.0
C1188 C 0.98089 0.94748 0.55214 0.0
C1189 C 0.93907 0.91889 0.55166 0.0
C1190 C 0.94282 0.04044 0.57671 0.0
C1191 C 0.02286 0.93518 0.54376 0.0
C1192 C 0.07081 0.08761 0.5518 0.0
C1193 C 0.11104 0.07707 0.55929 0.0
C1194 C 0.02885 0.05922 0.55218 0.0
C1195 C 0.02642 0.01936 0.56038 0.0
C1196 C 0.06664 0.00863 0.56808 0.0
C1197 C 0.10866 0.03735 0.56737 0.0
C1198 C 0.98738 0.07144 0.54361 0.0
C1199 C 0.0653 0.96669 0.57702 0.0
H1200 H 0.86928 0.97756 0.5728 0.0
H1201 H 0.93806 0.88838 0.54535 0.0
H1202 H 0.97417 0.03726 0.58308 0.0
H1203 H 0.94719 0.07469 0.57148 0.0
H1204 H 0.90925 0.04275 0.58233 0.0
H1205 H 0.01594 0.90241 0.53806 0.0
H1206 H 0.03032 0.9659 0.53742 0.0
H1207 H 0.05593 0.9291 0.54936 0.0
H1208 H 0.07229 0.11792 0.54543 0.0
H1209 H 0.13935 0.02909 0.57324 0.0
H1210 H 0.95395 0.07749 0.54907 0.0
H1211 H 0.98036 0.0407 0.53725 0.0
H1212 H 0.99461 0.1042 0.53795 0.0
H1213 H 0.03345 0.96994 0.58322 0.0
H1214 H 0.09843 0.96459 0.58282 0.0
H1215 H 0.06142 0.93231 0.57182 0.0
C1216 C 0.96467 0.6075 0.81841 0.0
C1217 C 0.92712 0.61101 0.80971 0.0
C1218 C 0.99328 0.56542 0.81919 0.0
C1219 C 0.98477 0.52641 0.81092 0.0
C1220 C 0.94713 0.53005 0.80208 0.0
C1221 C 0.91867 0.57198 0.80165 0.0
C1222 C 0.03273 0.56271 0.82883 0.0
C1223 C 0.93743 0.48997 0.79288 0.0
C1224 C 0.08754 0.44076 0.80295 0.0
C1225 C 0.07536 0.39884 0.80964 0.0
C1226 C 0.05881 0.48249 0.80345 0.0
C1227 C 0.01681 0.48289 0.81093 0.0
C1228 C 0.00436 0.44097 0.8178 0.0
C1229 C 0.03359 0.39931 0.81701 0.0
C1230 C 0.07305 0.52593 0.79578 0.0
C1231 C 0.96003 0.4401 0.82594 0.0
H1232 H 0.97122 0.6373 0.82472 0.0
H1233 H 0.89004 0.57446 0.79481 0.0
H1234 H 0.02802 0.52984 0.83461 0.0
H1235 H 0.06841 0.55978 0.82422 0.0
H1236 H 0.03309 0.59488 0.83501 0.0
H1237 H 0.90622 0.49806 0.78673 0.0
H1238 H 0.9698 0.48407 0.787 0.0
H1239 H 0.93014 0.45564 0.79785 0.0
H1240 H 0.11948 0.44089 0.79714 0.0
H1241 H 0.02397 0.36732 0.82226 0.0
H1242 H 0.07733 0.55807 0.80184 0.0
H1243 H 0.0441 0.53432 0.78899 0.0
H1244 H 0.10732 0.52012 0.79063 0.0
H1245 H 0.96124 0.47053 0.83265 0.0
H1246 H 0.95659 0.40569 0.83118 0.0
H1247 H 0.92719 0.445 0.82017 0.0
loop_
_geom_bond_atom_site_label_1
_geom_bond_atom_site_label_2
_geom_bond_distance
_geom_bond_site_symmetry_2
_ccdc_geom_bond_type
Co0 O1 2.216 . S
Co0 O2 2.091 . S
Co0 O4 2.004 . S
Co0 O10 2.021 . S
Co0 O12 2.137 . S
Co0 O13 2.244 . S
O1 Co0 2.216 . S
O1 C8 1.247 . S
O2 Co0 2.091 . S
O2 C8 1.261 . S
C3 O12 1.247 . S
C3 O13 1.272 . S
O4 Co0 2.004 . S
O4 C9 1.259 . S
Co5 O6 2.061 . S
Co5 O11 2.052 . S
Co5 O13 2.135 . S
O6 Co5 2.061 . S
O6 C9 1.235 . S
C7 O10 1.238 . S
C7 O11 1.241 . S
C8 O1 1.247 . S
C8 O2 1.261 . S
C9 O4 1.259 . S
C9 O6 1.235 . S
O10 Co0 2.021 . S
O10 C7 1.238 . S
O11 Co5 2.052 . S
O11 C7 1.241 . S
O12 Co0 2.137 . S
O12 C3 1.247 . S
O13 Co0 2.244 . S
O13 C3 1.272 . S
O13 Co5 2.135 . S
Co14 O15 2.216 . S
Co14 O16 2.091 . S
Co14 O18 2.004 . S
Co14 O24 2.021 . S
Co14 O26 2.137 . S
Co14 O27 2.244 . S
O15 Co14 2.216 . S
O15 C22 1.247 . S
O16 Co14 2.091 . S
O16 C22 1.261 . S
C17 O26 1.247 . S
C17 O27 1.272 . S
O18 Co14 2.004 . S
O18 C23 1.259 . S
Co19 O20 2.061 . S
Co19 O25 2.052 . S
Co19 O27 2.135 . S
O20 Co19 2.061 . S
O20 C23 1.235 . S
C21 O24 1.238 . S
C21 O25 1.241 . S
C22 O15 1.247 . S
C22 O16 1.261 . S
C23 O18 1.259 . S
C23 O20 1.235 . S
O24 Co14 2.021 . S
O24 C21 1.238 . S
O25 Co19 2.052 . S
O25 C21 1.241 . S
O26 Co14 2.137 . S
O26 C17 1.247 . S
O27 Co14 2.244 . S
O27 C17 1.272 . S
O27 Co19 2.135 . S
Co28 O29 2.216 . S
Co28 O30 2.091 . S
Co28 O32 2.004 . S
Co28 O38 2.021 . S
Co28 O40 2.137 . S
Co28 O41 2.244 . S
O29 Co28 2.216 . S
O29 C36 1.247 . S
O30 Co28 2.091 . S
O30 C36 1.261 . S
C31 O40 1.247 . S
C31 O41 1.272 . S
O32 Co28 2.004 . S
O32 C37 1.259 . S
Co33 O34 2.061 . S
Co33 O39 2.052 . S
Co33 O41 2.135 . S
O34 Co33 2.061 . S
O34 C37 1.235 . S
C35 O38 1.238 . S
C35 O39 1.241 . S
C36 O29 1.247 . S
C36 O30 1.261 . S
C37 O32 1.259 . S
C37 O34 1.235 . S
O38 Co28 2.021 . S
O38 C35 1.238 . S
O39 Co33 2.052 . S
O39 C35 1.241 . S
O40 Co28 2.137 . S
O40 C31 1.247 . S
O41 Co28 2.244 . S
O41 C31 1.272 . S
O41 Co33 2.135 . S
Co42 O43 2.216 . S
Co42 O44 2.091 . S
Co42 O46 2.004 . S
Co42 O52 2.021 . S
Co42 O54 2.137 . S
Co42 O55 2.244 . S
O43 Co42 2.216 . S
O43 C50 1.247 . S
O44 Co42 2.091 . S
O44 C50 1.261 . S
C45 O54 1.247 . S
C45 O55 1.272 . S
O46 Co42 2.004 . S
O46 C51 1.259 . S
Co47 O48 2.061 . S
Co47 O53 2.052 . S
Co47 O55 2.135 . S
O48 Co47 2.061 . S
O48 C51 1.235 . S
C49 O52 1.238 . S
C49 O53 1.241 . S
C50 O43 1.247 . S
C50 O44 1.261 . S
C51 O46 1.259 . S
C51 O48 1.235 . S
O52 Co42 2.021 . S
O52 C49 1.238 . S
O53 Co47 2.052 . S
O53 C49 1.241 . S
O54 Co42 2.137 . S
O54 C45 1.247 . S
O55 Co42 2.244 . S
O55 C45 1.272 . S
O55 Co47 2.135 . S
Co56 O57 2.216 . S
Co56 O58 2.091 . S
Co56 O60 2.004 . S
Co56 O66 2.021 . S
Co56 O68 2.137 . S
Co56 O69 2.244 . S
O57 Co56 2.216 . S
O57 C64 1.247 . S
O58 Co56 2.091 . S
O58 C64 1.261 . S
C59 O68 1.247 . S
C59 O69 1.272 . S
O60 Co56 2.004 . S
O60 C65 1.259 . S
Co61 O62 2.061 . S
Co61 O67 2.052 . S
Co61 O69 2.135 . S
O62 Co61 2.061 . S
O62 C65 1.235 . S
C63 O66 1.238 . S
C63 O67 1.241 . S
C64 O57 1.247 . S
C64 O58 1.261 . S
C65 O60 1.259 . S
C65 O62 1.235 . S
O66 Co56 2.021 . S
O66 C63 1.238 . S
O67 Co61 2.052 . S
O67 C63 1.241 . S
O68 Co56 2.137 . S
O68 C59 1.247 . S
O69 Co56 2.244 . S
O69 C59 1.272 . S
O69 Co61 2.135 . S
Co70 O71 2.216 . S
Co70 O72 2.091 . S
Co70 O74 2.004 . S
Co70 O80 2.021 . S
Co70 O82 2.137 . S
Co70 O83 2.244 . S
O71 Co70 2.216 . S
O71 C78 1.247 . S
O72 Co70 2.091 . S
O72 C78 1.261 . S
C73 O82 1.247 . S
C73 O83 1.272 . S
O74 Co70 2.004 . S
O74 C79 1.259 . S
Co75 O76 2.061 . S
Co75 O81 2.052 . S
Co75 O83 2.135 . S
O76 Co75 2.061 . S
O76 C79 1.235 . S
C77 O80 1.238 . S
C77 O81 1.241 . S
C78 O71 1.247 . S
C78 O72 1.261 . S
C79 O74 1.259 . S
C79 O76 1.235 . S
O80 Co70 2.021 . S
O80 C77 1.238 . S
O81 Co75 2.052 . S
O81 C77 1.241 . S
O82 Co70 2.137 . S
O82 C73 1.247 . S
O83 Co70 2.244 . S
O83 C73 1.272 . S
O83 Co75 2.135 . S
Co84 O85 2.216 . S
Co84 O86 2.091 . S
Co84 O88 2.004 . S
Co84 O94 2.021 . S
Co84 O96 2.137 . S
Co84 O97 2.244 . S
O85 Co84 2.216 . S
O85 C92 1.247 . S
O86 Co84 2.091 . S
O86 C92 1.261 . S
C87 O96 1.247 . S
C87 O97 1.272 . S
O88 Co84 2.004 . S
O88 C93 1.259 . S
Co89 O90 2.061 . S
Co89 O95 2.052 . S
Co89 O97 2.135 . S
O90 Co89 2.061 . S
O90 C93 1.235 . S
C91 O94 1.238 . S
C91 O95 1.241 . S
C92 O85 1.247 . S
C92 O86 1.261 . S
C93 O88 1.259 . S
C93 O90 1.235 . S
O94 Co84 2.021 . S
O94 C91 1.238 . S
O95 Co89 2.052 . S
O95 C91 1.241 . S
O96 Co84 2.137 . S
O96 C87 1.247 . S
O97 Co84 2.244 . S
O97 C87 1.272 . S
O97 Co89 2.135 . S
Co98 O99 2.216 . S
Co98 O100 2.091 . S
Co98 O102 2.004 . S
Co98 O108 2.021 . S
Co98 O110 2.137 . S
Co98 O111 2.244 . S
O99 Co98 2.216 . S
O99 C106 1.247 . S
O100 Co98 2.091 . S
O100 C106 1.261 . S
C101 O110 1.247 . S
C101 O111 1.272 . S
O102 Co98 2.004 . S
O102 C107 1.259 . S
Co103 O104 2.061 . S
Co103 O109 2.052 . S
Co103 O111 2.135 . S
O104 Co103 2.061 . S
O104 C107 1.235 . S
C105 O108 1.238 . S
C105 O109 1.241 . S
C106 O99 1.247 . S
C106 O100 1.261 . S
C107 O102 1.259 . S
C107 O104 1.235 . S
O108 Co98 2.021 . S
O108 C105 1.238 . S
O109 Co103 2.052 . S
O109 C105 1.241 . S
O110 Co98 2.137 . S
O110 C101 1.247 . S
O111 Co98 2.244 . S
O111 C101 1.272 . S
O111 Co103 2.135 . S
Co112 O113 2.216 . S
Co112 O114 2.091 . S
Co112 O116 2.004 . S
Co112 O122 2.021 . S
Co112 O124 2.137 . S
Co112 O125 2.244 . S
O113 Co112 2.216 . S
O113 C120 1.247 . S
O114 Co112 2.091 . S
O114 C120 1.261 . S
C115 O124 1.247 . S
C115 O125 1.272 . S
O116 Co112 2.004 . S
O116 C121 1.259 . S
Co117 O118 2.061 . S
Co117 O123 2.052 . S
Co117 O125 2.135 . S
O118 Co117 2.061 . S
O118 C121 1.235 . S
C119 O122 1.238 . S
C119 O123 1.241 . S
C120 O113 1.247 . S
C120 O114 1.261 . S
C121 O116 1.259 . S
C121 O118 1.235 . S
O122 Co112 2.021 . S
O122 C119 1.238 . S
O123 Co117 2.052 . S
O123 C119 1.241 . S
O124 Co112 2.137 . S
O124 C115 1.247 . S
O125 Co112 2.244 . S
O125 C115 1.272 . S
O125 Co117 2.135 . S
Co126 O127 2.216 . S
Co126 O128 2.091 . S
Co126 O130 2.004 . S
Co126 O136 2.021 . S
Co126 O138 2.137 . S
Co126 O139 2.244 . S
O127 Co126 2.216 . S
O127 C134 1.247 . S
O128 Co126 2.091 . S
O128 C134 1.261 . S
C129 O138 1.247 . S
C129 O139 1.272 . S
O130 Co126 2.004 . S
O130 C135 1.259 . S
Co131 O132 2.061 . S
Co131 O137 2.052 . S
Co131 O139 2.135 . S
O132 Co131 2.061 . S
O132 C135 1.235 . S
C133 O136 1.238 . S
C133 O137 1.241 . S
C134 O127 1.247 . S
C134 O128 1.261 . S
C135 O130 1.259 . S
C135 O132 1.235 . S
O136 Co126 2.021 . S
O136 C133 1.238 . S
O137 Co131 2.052 . S
O137 C133 1.241 . S
O138 Co126 2.137 . S
O138 C129 1.247 . S
O139 Co126 2.244 . S
O139 C129 1.272 . S
O139 Co131 2.135 . S
Co140 O141 2.216 . S
Co140 O142 2.091 . S
Co140 O144 2.004 . S
Co140 O150 2.021 . S
Co140 O152 2.137 . S
Co140 O153 2.244 . S
O141 Co140 2.216 . S
O141 C148 1.247 . S
O142 Co140 2.091 . S
O142 C148 1.261 . S
C143 O152 1.247 . S
C143 O153 1.272 . S
O144 Co140 2.004 . S
O144 C149 1.259 . S
Co145 O146 2.061 . S
Co145 O151 2.052 . S
Co145 O153 2.135 . S
O146 Co145 2.061 . S
O146 C149 1.235 . S
C147 O150 1.238 . S
C147 O151 1.241 . S
C148 O141 1.247 . S
C148 O142 1.261 . S
C149 O144 1.259 . S
C149 O146 1.235 . S
O150 Co140 2.021 . S
O150 C147 1.238 . S
O151 Co145 2.052 . S
O151 C147 1.241 . S
O152 Co140 2.137 . S
O152 C143 1.247 . S
O153 Co140 2.244 . S
O153 C143 1.272 . S
O153 Co145 2.135 . S
Co154 O155 2.216 . S
Co154 O156 2.091 . S
Co154 O158 2.004 . S
Co154 O164 2.021 . S
Co154 O166 2.137 . S
Co154 O167 2.244 . S
O155 Co154 2.216 . S
O155 C162 1.247 . S
O156 Co154 2.091 . S
O156 C162 1.261 . S
C157 O166 1.247 . S
C157 O167 1.272 . S
O158 Co154 2.004 . S
O158 C163 1.259 . S
Co159 O160 2.061 . S
Co159 O165 2.052 . S
Co159 O167 2.135 . S
O160 Co159 2.061 . S
O160 C163 1.235 . S
C161 O164 1.238 . S
C161 O165 1.241 . S
C162 O155 1.247 . S
C162 O156 1.261 . S
C163 O158 1.259 . S
C163 O160 1.235 . S
O164 Co154 2.021 . S
O164 C161 1.238 . S
O165 Co159 2.052 . S
O165 C161 1.241 . S
O166 Co154 2.137 . S
O166 C157 1.247 . S
O167 Co154 2.244 . S
O167 C157 1.272 . S
O167 Co159 2.135 . S
Co168 O169 2.216 . S
Co168 O170 2.091 . S
Co168 O172 2.004 . S
Co168 O178 2.021 . S
Co168 O180 2.137 . S
Co168 O181 2.244 . S
O169 Co168 2.216 . S
O169 C176 1.247 . S
O170 Co168 2.091 . S
O170 C176 1.261 . S
C171 O180 1.247 . S
C171 O181 1.272 . S
O172 Co168 2.004 . S
O172 C177 1.259 . S
Co173 O174 2.061 . S
Co173 O179 2.052 . S
Co173 O181 2.135 . S
O174 Co173 2.061 . S
O174 C177 1.235 . S
C175 O178 1.238 . S
C175 O179 1.241 . S
C176 O169 1.247 . S
C176 O170 1.261 . S
C177 O172 1.259 . S
C177 O174 1.235 . S
O178 Co168 2.021 . S
O178 C175 1.238 . S
O179 Co173 2.052 . S
O179 C175 1.241 . S
O180 Co168 2.137 . S
O180 C171 1.247 . S
O181 Co168 2.244 . S
O181 C171 1.272 . S
O181 Co173 2.135 . S
Co182 O183 2.216 . S
Co182 O184 2.091 . S
Co182 O186 2.004 . S
Co182 O192 2.021 . S
Co182 O194 2.137 . S
Co182 O195 2.244 . S
O183 Co182 2.216 . S
O183 C190 1.247 . S
O184 Co182 2.091 . S
O184 C190 1.261 . S
C185 O194 1.247 . S
C185 O195 1.272 . S
O186 Co182 2.004 . S
O186 C191 1.259 . S
Co187 O188 2.061 . S
Co187 O193 2.052 . S
Co187 O195 2.135 . S
O188 Co187 2.061 . S
O188 C191 1.235 . S
C189 O192 1.238 . S
C189 O193 1.241 . S
C190 O183 1.247 . S
C190 O184 1.261 . S
C191 O186 1.259 . S
C191 O188 1.235 . S
O192 Co182 2.021 . S
O192 C189 1.238 . S
O193 Co187 2.052 . S
O193 C189 1.241 . S
O194 Co182 2.137 . S
O194 C185 1.247 . S
O195 Co182 2.244 . S
O195 C185 1.272 . S
O195 Co187 2.135 . S
Co196 O197 2.216 . S
Co196 O198 2.091 . S
Co196 O200 2.004 . S
Co196 O206 2.021 . S
Co196 O208 2.137 . S
Co196 O209 2.244 . S
O197 Co196 2.216 . S
O197 C204 1.247 . S
O198 Co196 2.091 . S
O198 C204 1.261 . S
C199 O208 1.247 . S
C199 O209 1.272 . S
O200 Co196 2.004 . S
O200 C205 1.259 . S
Co201 O202 2.061 . S
Co201 O207 2.052 . S
Co201 O209 2.135 . S
O202 Co201 2.061 . S
O202 C205 1.235 . S
C203 O206 1.238 . S
C203 O207 1.241 . S
C204 O197 1.247 . S
C204 O198 1.261 . S
C205 O200 1.259 . S
C205 O202 1.235 . S
O206 Co196 2.021 . S
O206 C203 1.238 . S
O207 Co201 2.052 . S
O207 C203 1.241 . S
O208 Co196 2.137 . S
O208 C199 1.247 . S
O209 Co196 2.244 . S
O209 C199 1.272 . S
O209 Co201 2.135 . S
Co210 O211 2.216 . S
Co210 O212 2.091 . S
Co210 O214 2.004 . S
Co210 O220 2.021 . S
Co210 O222 2.137 . S
Co210 O223 2.244 . S
O211 Co210 2.216 . S
O211 C218 1.247 . S
O212 Co210 2.091 . S
O212 C218 1.261 . S
C213 O222 1.247 . S
C213 O223 1.272 . S
O214 Co210 2.004 . S
O214 C219 1.259 . S
Co215 O216 2.061 . S
Co215 O221 2.052 . S
Co215 O223 2.135 . S
O216 Co215 2.061 . S
O216 C219 1.235 . S
C217 O220 1.238 . S
C217 O221 1.241 . S
C218 O211 1.247 . S
C218 O212 1.261 . S
C219 O214 1.259 . S
C219 O216 1.235 . S
O220 Co210 2.021 . S
O220 C217 1.238 . S
O221 Co215 2.052 . S
O221 C217 1.241 . S
O222 Co210 2.137 . S
O222 C213 1.247 . S
O223 Co210 2.244 . S
O223 C213 1.272 . S
O223 Co215 2.135 . S
C224 C225 1.391 . S
C224 C226 1.394 . S
C224 H240 0.931 . S
C225 C224 1.391 . S
C225 C229 1.376 . S
C226 C224 1.394 . S
C226 C227 1.369 . S
C226 C230 1.531 . S
C227 C226 1.369 . S
C227 C228 1.410 . S
C227 C235 1.503 . S
C228 C227 1.410 . S
C228 C229 1.392 . S
C228 C231 1.511 . S
C229 C225 1.376 . S
C229 C228 1.392 . S
C229 H241 0.929 . S
C230 C226 1.531 . S
C230 H242 0.960 . S
C230 H243 0.962 . S
C230 H244 0.960 . S
C231 C228 1.511 . S
C231 H245 0.961 . S
C231 H246 0.961 . S
C231 H247 0.961 . S
C232 C233 1.370 . S
C232 C234 1.363 . S
C232 H248 0.931 . S
C233 C232 1.370 . S
C233 C237 1.408 . S
C234 C232 1.363 . S
C234 C235 1.370 . S
C234 C238 1.524 . S
C235 C227 1.503 . S
C235 C234 1.370 . S
C235 C236 1.403 . S
C236 C235 1.403 . S
C236 C237 1.404 . S
C236 C239 1.539 . S
C237 C233 1.408 . S
C237 C236 1.404 . S
C237 H249 0.930 . S
C238 C234 1.524 . S
C238 H250 0.956 . S
C238 H251 0.961 . S
C238 H252 0.961 . S
C239 C236 1.539 . S
C239 H253 0.958 . S
C239 H254 0.961 . S
C239 H255 0.960 . S
H240 C224 0.931 . S
H241 C229 0.929 . S
H242 C230 0.960 . S
H243 C230 0.962 . S
H244 C230 0.960 . S
H245 C231 0.961 . S
H246 C231 0.961 . S
H247 C231 0.961 . S
H248 C232 0.931 . S
H249 C237 0.930 . S
H250 C238 0.956 . S
H251 C238 0.961 . S
H252 C238 0.961 . S
H253 C239 0.958 . S
H254 C239 0.961 . S
H255 C239 0.960 . S
C256 C257 1.391 . S
C256 C258 1.394 . S
C256 H272 0.931 . S
C257 C256 1.391 . S
C257 C261 1.376 . S
C258 C256 1.394 . S
C258 C259 1.369 . S
C258 C262 1.531 . S
C259 C258 1.369 . S
C259 C260 1.410 . S
C259 C267 1.503 . S
C260 C259 1.410 . S
C260 C261 1.392 . S
C260 C263 1.511 . S
C261 C257 1.376 . S
C261 C260 1.392 . S
C261 H273 0.929 . S
C262 C258 1.531 . S
C262 H274 0.960 . S
C262 H275 0.962 . S
C262 H276 0.960 . S
C263 C260 1.511 . S
C263 H277 0.961 . S
C263 H278 0.961 . S
C263 H279 0.961 . S
C264 C265 1.370 . S
C264 C266 1.363 . S
C264 H280 0.931 . S
C265 C264 1.370 . S
C265 C269 1.408 . S
C266 C264 1.363 . S
C266 C267 1.370 . S
C266 C270 1.524 . S
C267 C259 1.503 . S
C267 C266 1.370 . S
C267 C268 1.403 . S
C268 C267 1.403 . S
C268 C269 1.404 . S
C268 C271 1.539 . S
C269 C265 1.408 . S
C269 C268 1.404 . S
C269 H281 0.930 . S
C270 C266 1.524 . S
C270 H282 0.956 . S
C270 H283 0.961 . S
C270 H284 0.961 . S
C271 C268 1.539 . S
C271 H285 0.958 . S
C271 H286 0.961 . S
C271 H287 0.960 . S
H272 C256 0.931 . S
H273 C261 0.929 . S
H274 C262 0.960 . S
H275 C262 0.962 . S
H276 C262 0.960 . S
H277 C263 0.961 . S
H278 C263 0.961 . S
H279 C263 0.961 . S
H280 C264 0.931 . S
H281 C269 0.930 . S
H282 C270 0.956 . S
H283 C270 0.961 . S
H284 C270 0.961 . S
H285 C271 0.958 . S
H286 C271 0.961 . S
H287 C271 0.960 . S
C288 C289 1.391 . S
C288 C290 1.394 . S
C288 H304 0.931 . S
C289 C288 1.391 . S
C289 C293 1.376 . S
C290 C288 1.394 . S
C290 C291 1.369 . S
C290 C294 1.531 . S
C291 C290 1.369 . S
C291 C292 1.410 . S
C291 C299 1.503 . S
C292 C291 1.410 . S
C292 C293 1.392 . S
C292 C295 1.511 . S
C293 C289 1.376 . S
C293 C292 1.392 . S
C293 H305 0.929 . S
C294 C290 1.531 . S
C294 H306 0.960 . S
C294 H307 0.962 . S
C294 H308 0.960 . S
C295 C292 1.511 . S
C295 H309 0.961 . S
C295 H310 0.961 . S
C295 H311 0.961 . S
C296 C297 1.370 . S
C296 C298 1.363 . S
C296 H312 0.931 . S
C297 C296 1.370 . S
C297 C301 1.408 . S
C298 C296 1.363 . S
C298 C299 1.370 . S
C298 C302 1.524 . S
C299 C291 1.503 . S
C299 C298 1.370 . S
C299 C300 1.403 . S
C300 C299 1.403 . S
C300 C301 1.404 . S
C300 C303 1.539 . S
C301 C297 1.408 . S
C301 C300 1.404 . S
C301 H313 0.930 . S
C302 C298 1.524 . S
C302 H314 0.956 . S
C302 H315 0.961 . S
C302 H316 0.961 . S
C303 C300 1.539 . S
C303 H317 0.958 . S
C303 H318 0.961 . S
C303 H319 0.960 . S
H304 C288 0.931 . S
H305 C293 0.929 . S
H306 C294 0.960 . S
H307 C294 0.962 . S
H308 C294 0.960 . S
H309 C295 0.961 . S
H310 C295 0.961 . S
H311 C295 0.961 . S
H312 C296 0.931 . S
H313 C301 0.930 . S
H314 C302 0.956 . S
H315 C302 0.961 . S
H316 C302 0.961 . S
H317 C303 0.958 . S
H318 C303 0.961 . S
H319 C303 0.960 . S
C320 C321 1.391 . S
C320 C322 1.394 . S
C320 H336 0.931 . S
C321 C320 1.391 . S
C321 C325 1.376 . S
C322 C320 1.394 . S
C322 C323 1.369 . S
C322 C326 1.531 . S
C323 C322 1.369 . S
C323 C324 1.410 . S
C323 C331 1.503 . S
C324 C323 1.410 . S
C324 C325 1.392 . S
C324 C327 1.511 . S
C325 C321 1.376 . S
C325 C324 1.392 . S
C325 H337 0.929 . S
C326 C322 1.531 . S
C326 H338 0.960 . S
C326 H339 0.962 . S
C326 H340 0.960 . S
C327 C324 1.511 . S
C327 H341 0.961 . S
C327 H342 0.961 . S
C327 H343 0.961 . S
C328 C329 1.370 . S
C328 C330 1.363 . S
C328 H344 0.931 . S
C329 C328 1.370 . S
C329 C333 1.408 . S
C330 C328 1.363 . S
C330 C331 1.370 . S
C330 C334 1.524 . S
C331 C323 1.503 . S
C331 C330 1.370 . S
C331 C332 1.403 . S
C332 C331 1.403 . S
C332 C333 1.404 . S
C332 C335 1.539 . S
C333 C329 1.408 . S
C333 C332 1.404 . S
C333 H345 0.930 . S
C334 C330 1.524 . S
C334 H346 0.956 . S
C334 H347 0.961 . S
C334 H348 0.961 . S
C335 C332 1.539 . S
C335 H349 0.958 . S
C335 H350 0.961 . S
C335 H351 0.960 . S
H336 C320 0.931 . S
H337 C325 0.929 . S
H338 C326 0.960 . S
H339 C326 0.962 . S
H340 C326 0.960 . S
H341 C327 0.961 . S
H342 C327 0.961 . S
H343 C327 0.961 . S
H344 C328 0.931 . S
H345 C333 0.930 . S
H346 C334 0.956 . S
H347 C334 0.961 . S
H348 C334 0.961 . S
H349 C335 0.958 . S
H350 C335 0.961 . S
H351 C335 0.960 . S
C352 C353 1.391 . S
C352 C354 1.394 . S
C352 H368 0.931 . S
C353 C352 1.391 . S
C353 C357 1.376 . S
C354 C352 1.394 . S
C354 C355 1.369 . S
C354 C358 1.531 . S
C355 C354 1.369 . S
C355 C356 1.410 . S
C355 C363 1.503 . S
C356 C355 1.410 . S
C356 C357 1.392 . S
C356 C359 1.511 . S
C357 C353 1.376 . S
C357 C356 1.392 . S
C357 H369 0.929 . S
C358 C354 1.531 . S
C358 H370 0.960 . S
C358 H371 0.962 . S
C358 H372 0.960 . S
C359 C356 1.511 . S
C359 H373 0.961 . S
C359 H374 0.961 . S
C359 H375 0.961 . S
C360 C361 1.370 . S
C360 C362 1.363 . S
C360 H376 0.931 . S
C361 C360 1.370 . S
C361 C365 1.408 . S
C362 C360 1.363 . S
C362 C363 1.370 . S
C362 C366 1.524 . S
C363 C355 1.503 . S
C363 C362 1.370 . S
C363 C364 1.403 . S
C364 C363 1.403 . S
C364 C365 1.404 . S
C364 C367 1.539 . S
C365 C361 1.408 . S
C365 C364 1.404 . S
C365 H377 0.930 . S
C366 C362 1.524 . S
C366 H378 0.956 . S
C366 H379 0.961 . S
C366 H380 0.961 . S
C367 C364 1.539 . S
C367 H381 0.958 . S
C367 H382 0.961 . S
C367 H383 0.960 . S
H368 C352 0.931 . S
H369 C357 0.929 . S
H370 C358 0.960 . S
H371 C358 0.962 . S
H372 C358 0.960 . S
H373 C359 0.961 . S
H374 C359 0.961 . S
H375 C359 0.961 . S
H376 C360 0.931 . S
H377 C365 0.930 . S
H378 C366 0.956 . S
H379 C366 0.961 . S
H380 C366 0.961 . S
H381 C367 0.958 . S
H382 C367 0.961 . S
H383 C367 0.960 . S
C384 C385 1.391 . S
C384 C386 1.394 . S
C384 H400 0.931 . S
C385 C384 1.391 . S
C385 C389 1.376 . S
C386 C384 1.394 . S
C386 C387 1.369 . S
C386 C390 1.531 . S
C387 C386 1.369 . S
C387 C388 1.410 . S
C387 C395 1.503 . S
C388 C387 1.410 . S
C388 C389 1.392 . S
C388 C391 1.511 . S
C389 C385 1.376 . S
C389 C388 1.392 . S
C389 H401 0.929 . S
C390 C386 1.531 . S
C390 H402 0.960 . S
C390 H403 0.962 . S
C390 H404 0.960 . S
C391 C388 1.511 . S
C391 H405 0.961 . S
C391 H406 0.961 . S
C391 H407 0.961 . S
C392 C393 1.370 . S
C392 C394 1.363 . S
C392 H408 0.931 . S
C393 C392 1.370 . S
C393 C397 1.408 . S
C394 C392 1.363 . S
C394 C395 1.370 . S
C394 C398 1.524 . S
C395 C387 1.503 . S
C395 C394 1.370 . S
C395 C396 1.403 . S
C396 C395 1.403 . S
C396 C397 1.404 . S
C396 C399 1.539 . S
C397 C393 1.408 . S
C397 C396 1.404 . S
C397 H409 0.930 . S
C398 C394 1.524 . S
C398 H410 0.956 . S
C398 H411 0.961 . S
C398 H412 0.961 . S
C399 C396 1.539 . S
C399 H413 0.958 . S
C399 H414 0.961 . S
C399 H415 0.960 . S
H400 C384 0.931 . S
H401 C389 0.929 . S
H402 C390 0.960 . S
H403 C390 0.962 . S
H404 C390 0.960 . S
H405 C391 0.961 . S
H406 C391 0.961 . S
H407 C391 0.961 . S
H408 C392 0.931 . S
H409 C397 0.930 . S
H410 C398 0.956 . S
H411 C398 0.961 . S
H412 C398 0.961 . S
H413 C399 0.958 . S
H414 C399 0.961 . S
H415 C399 0.960 . S
C416 C417 1.391 . S
C416 C418 1.394 . S
C416 H432 0.931 . S
C417 C416 1.391 . S
C417 C421 1.376 . S
C418 C416 1.394 . S
C418 C419 1.369 . S
C418 C422 1.531 . S
C419 C418 1.369 . S
C419 C420 1.410 . S
C419 C427 1.503 . S
C420 C419 1.410 . S
C420 C421 1.392 . S
C420 C423 1.511 . S
C421 C417 1.376 . S
C421 C420 1.392 . S
C421 H433 0.929 . S
C422 C418 1.531 . S
C422 H434 0.960 . S
C422 H435 0.962 . S
C422 H436 0.960 . S
C423 C420 1.511 . S
C423 H437 0.961 . S
C423 H438 0.961 . S
C423 H439 0.961 . S
C424 C425 1.370 . S
C424 C426 1.363 . S
C424 H440 0.931 . S
C425 C424 1.370 . S
C425 C429 1.408 . S
C426 C424 1.363 . S
C426 C427 1.370 . S
C426 C430 1.524 . S
C427 C419 1.503 . S
C427 C426 1.370 . S
C427 C428 1.403 . S
C428 C427 1.403 . S
C428 C429 1.404 . S
C428 C431 1.539 . S
C429 C425 1.408 . S
C429 C428 1.404 . S
C429 H441 0.930 . S
C430 C426 1.524 . S
C430 H442 0.956 . S
C430 H443 0.961 . S
C430 H444 0.961 . S
C431 C428 1.539 . S
C431 H445 0.958 . S
C431 H446 0.961 . S
C431 H447 0.960 . S
H432 C416 0.931 . S
H433 C421 0.929 . S
H434 C422 0.960 . S
H435 C422 0.962 . S
H436 C422 0.960 . S
H437 C423 0.961 . S
H438 C423 0.961 . S
H439 C423 0.961 . S
H440 C424 0.931 . S
H441 C429 0.930 . S
H442 C430 0.956 . S
H443 C430 0.961 . S
H444 C430 0.961 . S
H445 C431 0.958 . S
H446 C431 0.961 . S
H447 C431 0.960 . S
C448 C449 1.391 . S
C448 C450 1.394 . S
C448 H464 0.931 . S
C449 C448 1.391 . S
C449 C453 1.376 . S
C450 C448 1.394 . S
C450 C451 1.369 . S
C450 C454 1.531 . S
C451 C450 1.369 . S
C451 C452 1.410 . S
C451 C459 1.503 . S
C452 C451 1.410 . S
C452 C453 1.392 . S
C452 C455 1.511 . S
C453 C449 1.376 . S
C453 C452 1.392 . S
C453 H465 0.929 . S
C454 C450 1.531 . S
C454 H466 0.960 . S
C454 H467 0.962 . S
C454 H468 0.960 . S
C455 C452 1.511 . S
C455 H469 0.961 . S
C455 H470 0.961 . S
C455 H471 0.961 . S
C456 C457 1.370 . S
C456 C458 1.363 . S
C456 H472 0.931 . S
C457 C456 1.370 . S
C457 C461 1.408 . S
C458 C456 1.363 . S
C458 C459 1.370 . S
C458 C462 1.524 . S
C459 C451 1.503 . S
C459 C458 1.370 . S
C459 C460 1.403 . S
C460 C459 1.403 . S
C460 C461 1.404 . S
C460 C463 1.539 . S
C461 C457 1.408 . S
C461 C460 1.404 . S
C461 H473 0.930 . S
C462 C458 1.524 . S
C462 H474 0.956 . S
C462 H475 0.961 . S
C462 H476 0.961 . S
C463 C460 1.539 . S
C463 H477 0.958 . S
C463 H478 0.961 . S
C463 H479 0.960 . S
H464 C448 0.931 . S
H465 C453 0.929 . S
H466 C454 0.960 . S
H467 C454 0.962 . S
H468 C454 0.960 . S
H469 C455 0.961 . S
H470 C455 0.961 . S
H471 C455 0.961 . S
H472 C456 0.931 . S
H473 C461 0.930 . S
H474 C462 0.956 . S
H475 C462 0.961 . S
H476 C462 0.961 . S
H477 C463 0.958 . S
H478 C463 0.961 . S
H479 C463 0.960 . S
C480 C481 1.391 . S
C480 C482 1.394 . S
C480 H496 0.931 . S
C481 C480 1.391 . S
C481 C485 1.376 . S
C482 C480 1.394 . S
C482 C483 1.369 . S
C482 C486 1.531 . S
C483 C482 1.369 . S
C483 C484 1.410 . S
C483 C491 1.503 . S
C484 C483 1.410 . S
C484 C485 1.392 . S
C484 C487 1.511 . S
C485 C481 1.376 . S
C485 C484 1.392 . S
C485 H497 0.929 . S
C486 C482 1.531 . S
C486 H498 0.960 . S
C486 H499 0.962 . S
C486 H500 0.960 . S
C487 C484 1.511 . S
C487 H501 0.961 . S
C487 H502 0.961 . S
C487 H503 0.961 . S
C488 C489 1.370 . S
C488 C490 1.363 . S
C488 H504 0.931 . S
C489 C488 1.370 . S
C489 C493 1.408 . S
C490 C488 1.363 . S
C490 C491 1.370 . S
C490 C494 1.524 . S
C491 C483 1.503 . S
C491 C490 1.370 . S
C491 C492 1.403 . S
C492 C491 1.403 . S
C492 C493 1.404 . S
C492 C495 1.539 . S
C493 C489 1.408 . S
C493 C492 1.404 . S
C493 H505 0.930 . S
C494 C490 1.524 . S
C494 H506 0.956 . S
C494 H507 0.961 . S
C494 H508 0.961 . S
C495 C492 1.539 . S
C495 H509 0.958 . S
C495 H510 0.961 . S
C495 H511 0.960 . S
H496 C480 0.931 . S
H497 C485 0.929 . S
H498 C486 0.960 . S
H499 C486 0.962 . S
H500 C486 0.960 . S
H501 C487 0.961 . S
H502 C487 0.961 . S
H503 C487 0.961 . S
H504 C488 0.931 . S
H505 C493 0.930 . S
H506 C494 0.956 . S
H507 C494 0.961 . S
H508 C494 0.961 . S
H509 C495 0.958 . S
H510 C495 0.961 . S
H511 C495 0.960 . S
C512 C513 1.391 . S
C512 C514 1.394 . S
C512 H528 0.931 . S
C513 C512 1.391 . S
C513 C517 1.376 . S
C514 C512 1.394 . S
C514 C515 1.369 . S
C514 C518 1.531 . S
C515 C514 1.369 . S
C515 C516 1.410 . S
C515 C523 1.503 . S
C516 C515 1.410 . S
C516 C517 1.392 . S
C516 C519 1.511 . S
C517 C513 1.376 . S
C517 C516 1.392 . S
C517 H529 0.929 . S
C518 C514 1.531 . S
C518 H530 0.960 . S
C518 H531 0.962 . S
C518 H532 0.960 . S
C519 C516 1.511 . S
C519 H533 0.961 . S
C519 H534 0.961 . S
C519 H535 0.961 . S
C520 C521 1.370 . S
C520 C522 1.363 . S
C520 H536 0.931 . S
C521 C520 1.370 . S
C521 C525 1.408 . S
C522 C520 1.363 . S
C522 C523 1.370 . S
C522 C526 1.524 . S
C523 C515 1.503 . S
C523 C522 1.370 . S
C523 C524 1.403 . S
C524 C523 1.403 . S
C524 C525 1.404 . S
C524 C527 1.539 . S
C525 C521 1.408 . S
C525 C524 1.404 . S
C525 H537 0.930 . S
C526 C522 1.524 . S
C526 H538 0.956 . S
C526 H539 0.961 . S
C526 H540 0.961 . S
C527 C524 1.539 . S
C527 H541 0.958 . S
C527 H542 0.961 . S
C527 H543 0.960 . S
H528 C512 0.931 . S
H529 C517 0.929 . S
H530 C518 0.960 . S
H531 C518 0.962 . S
H532 C518 0.960 . S
H533 C519 0.961 . S
H534 C519 0.961 . S
H535 C519 0.961 . S
H536 C520 0.931 . S
H537 C525 0.930 . S
H538 C526 0.956 . S
H539 C526 0.961 . S
H540 C526 0.961 . S
H541 C527 0.958 . S
H542 C527 0.961 . S
H543 C527 0.960 . S
C544 C545 1.391 . S
C544 C546 1.394 . S
C544 H560 0.931 . S
C545 C544 1.391 . S
C545 C549 1.376 . S
C546 C544 1.394 . S
C546 C547 1.369 . S
C546 C550 1.531 . S
C547 C546 1.369 . S
C547 C548 1.410 . S
C547 C555 1.503 . S
C548 C547 1.410 . S
C548 C549 1.392 . S
C548 C551 1.511 . S
C549 C545 1.376 . S
C549 C548 1.392 . S
C549 H561 0.929 . S
C550 C546 1.531 . S
C550 H562 0.960 . S
C550 H563 0.962 . S
C550 H564 0.960 . S
C551 C548 1.511 . S
C551 H565 0.961 . S
C551 H566 0.961 . S
C551 H567 0.961 . S
C552 C553 1.370 . S
C552 C554 1.363 . S
C552 H568 0.931 . S
C553 C552 1.370 . S
C553 C557 1.408 . S
C554 C552 1.363 . S
C554 C555 1.370 . S
C554 C558 1.524 . S
C555 C547 1.503 . S
C555 C554 1.370 . S
C555 C556 1.403 . S
C556 C555 1.403 . S
C556 C557 1.404 . S
C556 C559 1.539 . S
C557 C553 1.408 . S
C557 C556 1.404 . S
C557 H569 0.930 . S
C558 C554 1.524 . S
C558 H570 0.956 . S
C558 H571 0.961 . S
C558 H572 0.961 . S
C559 C556 1.539 . S
C559 H573 0.958 . S
C559 H574 0.961 . S
C559 H575 0.960 . S
H560 C544 0.931 . S
H561 C549 0.929 . S
H562 C550 0.960 . S
H563 C550 0.962 . S
H564 C550 0.960 . S
H565 C551 0.961 . S
H566 C551 0.961 . S
H567 C551 0.961 . S
H568 C552 0.931 . S
H569 C557 0.930 . S
H570 C558 0.956 . S
H571 C558 0.961 . S
H572 C558 0.961 . S
H573 C559 0.958 . S
H574 C559 0.961 . S
H575 C559 0.960 . S
C576 C577 1.391 . S
C576 C578 1.394 . S
C576 H592 0.931 . S
C577 C576 1.391 . S
C577 C581 1.376 . S
C578 C576 1.394 . S
C578 C579 1.369 . S
C578 C582 1.531 . S
C579 C578 1.369 . S
C579 C580 1.410 . S
C579 C587 1.503 1_554 S
C580 C579 1.410 . S
C580 C581 1.392 . S
C580 C583 1.511 . S
C581 C577 1.376 . S
C581 C580 1.392 . S
C581 H593 0.929 . S
C582 C578 1.531 . S
C582 H594 0.960 . S
C582 H595 0.962 . S
C582 H596 0.960 . S
C583 C580 1.511 . S
C583 H597 0.961 . S
C583 H598 0.961 1_554 S
C583 H599 0.961 . S
C584 C585 1.370 . S
C584 C586 1.363 . S
C584 H600 0.931 . S
C585 C584 1.370 . S
C585 C589 1.408 . S
C586 C584 1.363 . S
C586 C587 1.370 . S
C586 C590 1.524 . S
C587 C579 1.503 1_556 S
C587 C586 1.370 . S
C587 C588 1.403 . S
C588 C587 1.403 . S
C588 C589 1.404 . S
C588 C591 1.539 . S
C589 C585 1.408 . S
C589 C588 1.404 . S
C589 H601 0.930 . S
C590 C586 1.524 . S
C590 H602 0.956 . S
C590 H603 0.961 . S
C590 H604 0.961 . S
C591 C588 1.539 . S
C591 H605 0.958 1_556 S
C591 H606 0.961 . S
C591 H607 0.960 1_556 S
H592 C576 0.931 . S
H593 C581 0.929 . S
H594 C582 0.960 . S
H595 C582 0.962 . S
H596 C582 0.960 . S
H597 C583 0.961 . S
H598 C583 0.961 1_556 S
H599 C583 0.961 . S
H600 C584 0.931 . S
H601 C589 0.930 . S
H602 C590 0.956 . S
H603 C590 0.961 . S
H604 C590 0.961 . S
H605 C591 0.958 1_554 S
H606 C591 0.961 . S
H607 C591 0.960 1_554 S
C608 C609 1.391 . S
C608 C610 1.394 . S
C608 H624 0.931 . S
C609 C608 1.391 . S
C609 C613 1.376 . S
C610 C608 1.394 . S
C610 C611 1.369 . S
C610 C614 1.531 1_554 S
C611 C610 1.369 . S
C611 C612 1.410 . S
C611 C619 1.503 1_554 S
C612 C611 1.410 . S
C612 C613 1.392 . S
C612 C615 1.511 . S
C613 C609 1.376 . S
C613 C612 1.392 . S
C613 H625 0.929 . S
C614 C610 1.531 1_556 S
C614 H626 0.960 . S
C614 H627 0.962 . S
C614 H628 0.960 1_556 S
C615 C612 1.511 . S
C615 H629 0.961 . S
C615 H630 0.961 . S
C615 H631 0.961 . S
C616 C617 1.370 . S
C616 C618 1.363 . S
C616 H632 0.931 . S
C617 C616 1.370 . S
C617 C621 1.408 . S
C618 C616 1.363 . S
C618 C619 1.370 . S
C618 C622 1.524 . S
C619 C611 1.503 1_556 S
C619 C618 1.370 . S
C619 C620 1.403 . S
C620 C619 1.403 . S
C620 C621 1.404 . S
C620 C623 1.539 . S
C621 C617 1.408 . S
C621 C620 1.404 . S
C621 H633 0.930 . S
C622 C618 1.524 . S
C622 H634 0.956 . S
C622 H635 0.961 1_556 S
C622 H636 0.961 . S
C623 C620 1.539 . S
C623 H637 0.958 . S
C623 H638 0.961 . S
C623 H639 0.960 1_556 S
H624 C608 0.931 . S
H625 C613 0.929 . S
H626 C614 0.960 . S
H627 C614 0.962 . S
H628 C614 0.960 1_554 S
H629 C615 0.961 . S
H630 C615 0.961 . S
H631 C615 0.961 . S
H632 C616 0.931 . S
H633 C621 0.930 . S
H634 C622 0.956 . S
H635 C622 0.961 1_554 S
H636 C622 0.961 . S
H637 C623 0.958 . S
H638 C623 0.961 . S
H639 C623 0.960 1_554 S
C640 C641 1.391 . S
C640 C642 1.394 . S
C640 H656 0.931 . S
C641 C640 1.391 . S
C641 C645 1.376 . S
C642 C640 1.394 . S
C642 C643 1.369 . S
C642 C646 1.531 . S
C643 C642 1.369 . S
C643 C644 1.410 . S
C643 C651 1.503 . S
C644 C643 1.410 . S
C644 C645 1.392 . S
C644 C647 1.511 . S
C645 C641 1.376 . S
C645 C644 1.392 . S
C645 H657 0.929 . S
C646 C642 1.531 . S
C646 H658 0.960 . S
C646 H659 0.962 . S
C646 H660 0.960 . S
C647 C644 1.511 . S
C647 H661 0.961 . S
C647 H662 0.961 . S
C647 H663 0.961 . S
C648 C649 1.370 . S
C648 C650 1.363 . S
C648 H664 0.931 . S
C649 C648 1.370 . S
C649 C653 1.408 . S
C650 C648 1.363 . S
C650 C651 1.370 . S
C650 C654 1.524 . S
C651 C643 1.503 . S
C651 C650 1.370 . S
C651 C652 1.403 . S
C652 C651 1.403 . S
C652 C653 1.404 . S
C652 C655 1.539 . S
C653 C649 1.408 . S
C653 C652 1.404 . S
C653 H665 0.930 . S
C654 C650 1.524 . S
C654 H666 0.956 . S
C654 H667 0.961 . S
C654 H668 0.961 . S
C655 C652 1.539 . S
C655 H669 0.958 . S
C655 H670 0.961 . S
C655 H671 0.960 . S
H656 C640 0.931 . S
H657 C645 0.929 . S
H658 C646 0.960 . S
H659 C646 0.962 . S
H660 C646 0.960 . S
H661 C647 0.961 . S
H662 C647 0.961 . S
H663 C647 0.961 . S
H664 C648 0.931 . S
H665 C653 0.930 . S
H666 C654 0.956 . S
H667 C654 0.961 . S
H668 C654 0.961 . S
H669 C655 0.958 . S
H670 C655 0.961 . S
H671 C655 0.960 . S
C672 C673 1.391 . S
C672 C674 1.394 . S
C672 H688 0.931 . S
C673 C672 1.391 . S
C673 C677 1.376 . S
C674 C672 1.394 . S
C674 C675 1.369 . S
C674 C678 1.531 . S
C675 C674 1.369 . S
C675 C676 1.410 . S
C675 C683 1.503 . S
C676 C675 1.410 . S
C676 C677 1.392 . S
C676 C679 1.511 . S
C677 C673 1.376 . S
C677 C676 1.392 . S
C677 H689 0.929 . S
C678 C674 1.531 . S
C678 H690 0.960 . S
C678 H691 0.962 . S
C678 H692 0.960 . S
C679 C676 1.511 . S
C679 H693 0.961 . S
C679 H694 0.961 . S
C679 H695 0.961 . S
C680 C681 1.370 . S
C680 C682 1.363 . S
C680 H696 0.931 . S
C681 C680 1.370 . S
C681 C685 1.408 . S
C682 C680 1.363 . S
C682 C683 1.370 . S
C682 C686 1.524 . S
C683 C675 1.503 . S
C683 C682 1.370 . S
C683 C684 1.403 . S
C684 C683 1.403 . S
C684 C685 1.404 . S
C684 C687 1.539 . S
C685 C681 1.408 . S
C685 C684 1.404 . S
C685 H697 0.930 . S
C686 C682 1.524 . S
C686 H698 0.956 . S
C686 H699 0.961 . S
C686 H700 0.961 . S
C687 C684 1.539 . S
C687 H701 0.958 . S
C687 H702 0.961 . S
C687 H703 0.960 . S
H688 C672 0.931 . S
H689 C677 0.929 . S
H690 C678 0.960 . S
H691 C678 0.962 . S
H692 C678 0.960 . S
H693 C679 0.961 . S
H694 C679 0.961 . S
H695 C679 0.961 . S
H696 C680 0.931 . S
H697 C685 0.930 . S
H698 C686 0.956 . S
H699 C686 0.961 . S
H700 C686 0.961 . S
H701 C687 0.958 . S
H702 C687 0.961 . S
H703 C687 0.960 . S
C704 C705 1.391 . S
C704 C706 1.394 . S
C704 H720 0.931 . S
C705 C704 1.391 . S
C705 C709 1.376 . S
C706 C704 1.394 . S
C706 C707 1.369 . S
C706 C710 1.531 . S
C707 C706 1.369 . S
C707 C708 1.410 . S
C707 C715 1.503 . S
C708 C707 1.410 . S
C708 C709 1.392 . S
C708 C711 1.511 . S
C709 C705 1.376 . S
C709 C708 1.392 . S
C709 H721 0.929 . S
C710 C706 1.531 . S
C710 H722 0.960 . S
C710 H723 0.962 . S
C710 H724 0.960 . S
C711 C708 1.511 . S
C711 H725 0.961 . S
C711 H726 0.961 . S
C711 H727 0.961 . S
C712 C713 1.370 . S
C712 C714 1.363 . S
C712 H728 0.931 . S
C713 C712 1.370 . S
C713 C717 1.408 . S
C714 C712 1.363 . S
C714 C715 1.370 . S
C714 C718 1.524 . S
C715 C707 1.503 . S
C715 C714 1.370 . S
C715 C716 1.403 . S
C716 C715 1.403 . S
C716 C717 1.404 . S
C716 C719 1.539 . S
C717 C713 1.408 . S
C717 C716 1.404 . S
C717 H729 0.930 . S
C718 C714 1.524 . S
C718 H730 0.956 . S
C718 H731 0.961 . S
C718 H732 0.961 . S
C719 C716 1.539 . S
C719 H733 0.958 . S
C719 H734 0.961 . S
C719 H735 0.960 . S
H720 C704 0.931 . S
H721 C709 0.929 . S
H722 C710 0.960 . S
H723 C710 0.962 . S
H724 C710 0.960 . S
H725 C711 0.961 . S
H726 C711 0.961 . S
H727 C711 0.961 . S
H728 C712 0.931 . S
H729 C717 0.930 . S
H730 C718 0.956 . S
H731 C718 0.961 . S
H732 C718 0.961 . S
H733 C719 0.958 . S
H734 C719 0.961 . S
H735 C719 0.960 . S
C736 C737 1.391 . S
C736 C738 1.394 . S
C736 H752 0.931 . S
C737 C736 1.391 . S
C737 C741 1.376 . S
C738 C736 1.394 . S
C738 C739 1.369 . S
C738 C742 1.531 1_455 S
C739 C738 1.369 . S
C739 C740 1.410 1_545 S
C739 C747 1.503 1_445 S
C740 C739 1.410 1_565 S
C740 C741 1.392 1_565 S
C740 C743 1.511 . S
C741 C737 1.376 . S
C741 C740 1.392 1_545 S
C741 H753 0.929 . S
C742 C738 1.531 1_655 S
C742 H754 0.960 . S
C742 H755 0.962 . S
C742 H756 0.960 . S
C743 C740 1.511 . S
C743 H757 0.961 . S
C743 H758 0.961 . S
C743 H759 0.961 . S
C744 C745 1.370 . S
C744 C746 1.363 . S
C744 H760 0.931 . S
C745 C744 1.370 . S
C745 C749 1.408 . S
C746 C744 1.363 . S
C746 C747 1.370 . S
C746 C750 1.524 1_655 S
C747 C739 1.503 1_665 S
C747 C746 1.370 . S
C747 C748 1.403 . S
C748 C747 1.403 . S
C748 C749 1.404 . S
C748 C751 1.539 1_565 S
C749 C745 1.408 . S
C749 C748 1.404 . S
C749 H761 0.930 . S
C750 C746 1.524 1_455 S
C750 H762 0.956 . S
C750 H763 0.961 . S
C750 H764 0.961 1_455 S
C751 C748 1.539 1_545 S
C751 H765 0.958 . S
C751 H766 0.961 . S
C751 H767 0.960 . S
H752 C736 0.931 . S
H753 C741 0.929 . S
H754 C742 0.960 . S
H755 C742 0.962 . S
H756 C742 0.960 . S
H757 C743 0.961 . S
H758 C743 0.961 . S
H759 C743 0.961 . S
H760 C744 0.931 . S
H761 C749 0.930 . S
H762 C750 0.956 . S
H763 C750 0.961 . S
H764 C750 0.961 1_655 S
H765 C751 0.958 . S
H766 C751 0.961 . S
H767 C751 0.960 . S
C768 C769 1.391 . S
C768 C770 1.394 . S
C768 H784 0.931 . S
C769 C768 1.391 . S
C769 C773 1.376 . S
C770 C768 1.394 . S
C770 C771 1.369 . S
C770 C774 1.531 . S
C771 C770 1.369 . S
C771 C772 1.410 1_455 S
C771 C779 1.503 1_455 S
C772 C771 1.410 1_655 S
C772 C773 1.392 1_655 S
C772 C775 1.511 . S
C773 C769 1.376 . S
C773 C772 1.392 1_455 S
C773 H785 0.929 . S
C774 C770 1.531 . S
C774 H786 0.960 . S
C774 H787 0.962 . S
C774 H788 0.960 . S
C775 C772 1.511 . S
C775 H789 0.961 . S
C775 H790 0.961 . S
C775 H791 0.961 . S
C776 C777 1.370 . S
C776 C778 1.363 1_655 S
C776 H792 0.931 . S
C777 C776 1.370 . S
C777 C781 1.408 . S
C778 C776 1.363 1_455 S
C778 C779 1.370 1_455 S
C778 C782 1.524 . S
C779 C771 1.503 1_655 S
C779 C778 1.370 1_655 S
C779 C780 1.403 . S
C780 C779 1.403 . S
C780 C781 1.404 . S
C780 C783 1.539 . S
C781 C777 1.408 . S
C781 C780 1.404 . S
C781 H793 0.930 . S
C782 C778 1.524 . S
C782 H794 0.956 . S
C782 H795 0.961 . S
C782 H796 0.961 . S
C783 C780 1.539 . S
C783 H797 0.958 . S
C783 H798 0.961 . S
C783 H799 0.960 . S
H784 C768 0.931 . S
H785 C773 0.929 . S
H786 C774 0.960 . S
H787 C774 0.962 . S
H788 C774 0.960 . S
H789 C775 0.961 . S
H790 C775 0.961 . S
H791 C775 0.961 . S
H792 C776 0.931 . S
H793 C781 0.930 . S
H794 C782 0.956 . S
H795 C782 0.961 . S
H796 C782 0.961 . S
H797 C783 0.958 . S
H798 C783 0.961 . S
H799 C783 0.960 . S
C800 C801 1.391 . S
C800 C802 1.394 . S
C800 H816 0.931 . S
C801 C800 1.391 . S
C801 C805 1.376 . S
C802 C800 1.394 . S
C802 C803 1.369 . S
C802 C806 1.531 . S
C803 C802 1.369 . S
C803 C804 1.410 . S
C803 C811 1.503 . S
C804 C803 1.410 . S
C804 C805 1.392 . S
C804 C807 1.511 . S
C805 C801 1.376 . S
C805 C804 1.392 . S
C805 H817 0.929 . S
C806 C802 1.531 . S
C806 H818 0.960 . S
C806 H819 0.962 . S
C806 H820 0.960 . S
C807 C804 1.511 . S
C807 H821 0.961 . S
C807 H822 0.961 . S
C807 H823 0.961 . S
C808 C809 1.370 . S
C808 C810 1.363 . S
C808 H824 0.931 . S
C809 C808 1.370 . S
C809 C813 1.408 . S
C810 C808 1.363 . S
C810 C811 1.370 . S
C810 C814 1.524 . S
C811 C803 1.503 . S
C811 C810 1.370 . S
C811 C812 1.403 . S
C812 C811 1.403 . S
C812 C813 1.404 . S
C812 C815 1.539 . S
C813 C809 1.408 . S
C813 C812 1.404 . S
C813 H825 0.930 . S
C814 C810 1.524 . S
C814 H826 0.956 . S
C814 H827 0.961 . S
C814 H828 0.961 . S
C815 C812 1.539 . S
C815 H829 0.958 . S
C815 H830 0.961 . S
C815 H831 0.960 . S
H816 C800 0.931 . S
H817 C805 0.929 . S
H818 C806 0.960 . S
H819 C806 0.962 . S
H820 C806 0.960 . S
H821 C807 0.961 . S
H822 C807 0.961 . S
H823 C807 0.961 . S
H824 C808 0.931 . S
H825 C813 0.930 . S
H826 C814 0.956 . S
H827 C814 0.961 . S
H828 C814 0.961 . S
H829 C815 0.958 . S
H830 C815 0.961 . S
H831 C815 0.960 . S
C832 C833 1.391 . S
C832 C834 1.394 . S
C832 H848 0.931 . S
C833 C832 1.391 . S
C833 C837 1.376 . S
C834 C832 1.394 . S
C834 C835 1.369 . S
C834 C838 1.531 1_545 S
C835 C834 1.369 . S
C835 C836 1.410 . S
C835 C843 1.503 1_545 S
C836 C835 1.410 . S
C836 C837 1.392 . S
C836 C839 1.511 . S
C837 C833 1.376 . S
C837 C836 1.392 . S
C837 H849 0.929 . S
C838 C834 1.531 1_565 S
C838 H850 0.960 . S
C838 H851 0.962 . S
C838 H852 0.960 . S
C839 C836 1.511 . S
C839 H853 0.961 . S
C839 H854 0.961 . S
C839 H855 0.961 . S
C840 C841 1.370 . S
C840 C842 1.363 . S
C840 H856 0.931 . S
C841 C840 1.370 . S
C841 C845 1.408 . S
C842 C840 1.363 . S
C842 C843 1.370 . S
C842 C846 1.524 . S
C843 C835 1.503 1_565 S
C843 C842 1.370 . S
C843 C844 1.403 . S
C844 C843 1.403 . S
C844 C845 1.404 . S
C844 C847 1.539 . S
C845 C841 1.408 . S
C845 C844 1.404 . S
C845 H857 0.930 . S
C846 C842 1.524 . S
C846 H858 0.956 . S
C846 H859 0.944 1_565 S
C846 H860 0.961 . S
C847 C844 1.539 . S
C847 H861 0.958 . S
C847 H862 0.961 . S
C847 H863 0.960 1_565 S
H848 C832 0.931 . S
H849 C837 0.929 . S
H850 C838 0.960 . S
H851 C838 0.962 . S
H852 C838 0.960 . S
H853 C839 0.961 . S
H854 C839 0.961 . S
H855 C839 0.961 . S
H856 C840 0.931 . S
H857 C845 0.930 . S
H858 C846 0.956 . S
H859 C846 0.944 1_545 S
H860 C846 0.961 . S
H861 C847 0.958 . S
H862 C847 0.961 . S
H863 C847 0.960 1_545 S
C864 C865 1.391 . S
C864 C866 1.394 . S
C864 H880 0.931 . S
C865 C864 1.391 . S
C865 C869 1.376 . S
C866 C864 1.394 . S
C866 C867 1.369 . S
C866 C870 1.531 1_455 S
C867 C866 1.369 . S
C867 C868 1.410 . S
C867 C875 1.503 1_455 S
C868 C867 1.410 . S
C868 C869 1.392 . S
C868 C871 1.511 . S
C869 C865 1.376 . S
C869 C868 1.392 . S
C869 H881 0.929 . S
C870 C866 1.531 1_655 S
C870 H882 0.960 . S
C870 H883 0.962 . S
C870 H884 0.958 1_655 S
C871 C868 1.511 . S
C871 H885 0.961 . S
C871 H886 0.961 . S
C871 H887 0.961 . S
C872 C873 1.370 . S
C872 C874 1.363 . S
C872 H888 0.931 . S
C873 C872 1.370 . S
C873 C877 1.408 . S
C874 C872 1.363 . S
C874 C875 1.370 . S
C874 C878 1.524 . S
C875 C867 1.503 1_655 S
C875 C874 1.370 . S
C875 C876 1.403 . S
C876 C875 1.403 . S
C876 C877 1.404 . S
C876 C879 1.539 1_655 S
C877 C873 1.408 . S
C877 C876 1.404 . S
C877 H889 0.930 . S
C878 C874 1.524 . S
C878 H890 0.956 . S
C878 H891 0.961 . S
C878 H892 0.961 . S
C879 C876 1.539 1_455 S
C879 H893 0.958 1_455 S
C879 H894 0.961 1_455 S
C879 H895 0.960 . S
H880 C864 0.931 . S
H881 C869 0.929 . S
H882 C870 0.960 . S
H883 C870 0.962 . S
H884 C870 0.958 1_455 S
H885 C871 0.961 . S
H886 C871 0.961 . S
H887 C871 0.961 . S
H888 C872 0.931 . S
H889 C877 0.930 . S
H890 C878 0.956 . S
H891 C878 0.961 . S
H892 C878 0.961 . S
H893 C879 0.958 1_655 S
H894 C879 0.961 1_655 S
H895 C879 0.960 . S
C896 C897 1.391 . S
C896 C898 1.394 . S
C896 H912 0.931 . S
C897 C896 1.391 . S
C897 C901 1.376 . S
C898 C896 1.394 . S
C898 C899 1.369 . S
C898 C902 1.531 . S
C899 C898 1.369 . S
C899 C900 1.410 . S
C899 C907 1.503 . S
C900 C899 1.410 . S
C900 C901 1.392 . S
C900 C903 1.511 . S
C901 C897 1.376 . S
C901 C900 1.392 . S
C901 H913 0.929 . S
C902 C898 1.531 . S
C902 H914 0.960 . S
C902 H915 0.962 . S
C902 H916 0.960 . S
C903 C900 1.511 . S
C903 H917 0.961 . S
C903 H918 0.961 . S
C903 H919 0.961 . S
C904 C905 1.370 . S
C904 C906 1.363 . S
C904 H920 0.931 . S
C905 C904 1.370 . S
C905 C909 1.408 . S
C906 C904 1.363 . S
C906 C907 1.370 . S
C906 C910 1.524 . S
C907 C899 1.503 . S
C907 C906 1.370 . S
C907 C908 1.403 . S
C908 C907 1.403 . S
C908 C909 1.404 . S
C908 C911 1.539 . S
C909 C905 1.408 . S
C909 C908 1.404 . S
C909 H921 0.930 . S
C910 C906 1.524 . S
C910 H922 0.956 . S
C910 H923 0.961 . S
C910 H924 0.961 . S
C911 C908 1.539 . S
C911 H925 0.958 . S
C911 H926 0.961 . S
C911 H927 0.960 . S
H912 C896 0.931 . S
H913 C901 0.929 . S
H914 C902 0.960 . S
H915 C902 0.962 . S
H916 C902 0.960 . S
H917 C903 0.961 . S
H918 C903 0.961 . S
H919 C903 0.961 . S
H920 C904 0.931 . S
H921 C909 0.930 . S
H922 C910 0.956 . S
H923 C910 0.961 . S
H924 C910 0.961 . S
H925 C911 0.958 . S
H926 C911 0.961 . S
H927 C911 0.960 . S
C928 C929 1.391 . S
C928 C930 1.394 1_565 S
C928 H944 0.937 . S
C929 C928 1.391 . S
C929 C933 1.376 . S
C930 C928 1.394 1_545 S
C930 C931 1.369 1_545 S
C930 C934 1.531 . S
C931 C930 1.369 1_565 S
C931 C932 1.410 . S
C931 C939 1.503 1_565 S
C932 C931 1.410 . S
C932 C933 1.392 . S
C932 C935 1.511 . S
C933 C929 1.376 . S
C933 C932 1.392 . S
C933 H945 0.929 . S
C934 C930 1.531 . S
C934 H946 0.960 . S
C934 H947 0.962 . S
C934 H948 0.960 . S
C935 C932 1.511 . S
C935 H949 0.961 . S
C935 H950 0.961 . S
C935 H951 0.961 . S
C936 C937 1.370 . S
C936 C938 1.363 . S
C936 H952 0.931 . S
C937 C936 1.370 . S
C937 C941 1.408 . S
C938 C936 1.363 . S
C938 C939 1.370 . S
C938 C942 1.524 . S
C939 C931 1.503 1_545 S
C939 C938 1.370 . S
C939 C940 1.403 . S
C940 C939 1.403 . S
C940 C941 1.404 . S
C940 C943 1.539 1_545 S
C941 C937 1.408 . S
C941 C940 1.404 . S
C941 H953 0.930 . S
C942 C938 1.524 . S
C942 H954 0.956 . S
C942 H955 0.975 . S
C942 H956 0.961 . S
C943 C940 1.539 1_565 S
C943 H957 0.958 1_565 S
C943 H958 0.961 . S
C943 H959 0.960 . S
H944 C928 0.937 . S
H945 C933 0.929 . S
H946 C934 0.960 . S
H947 C934 0.962 . S
H948 C934 0.960 . S
H949 C935 0.961 . S
H950 C935 0.961 . S
H951 C935 0.961 . S
H952 C936 0.931 . S
H953 C941 0.930 . S
H954 C942 0.956 . S
H955 C942 0.975 . S
H956 C942 0.961 . S
H957 C943 0.958 1_545 S
H958 C943 0.961 . S
H959 C943 0.960 . S
C960 C961 1.391 . S
C960 C962 1.394 . S
C960 H976 0.931 . S
C961 C960 1.391 . S
C961 C965 1.376 . S
C962 C960 1.394 . S
C962 C963 1.369 . S
C962 C966 1.531 1_545 S
C963 C962 1.369 . S
C963 C964 1.410 1_455 S
C963 C971 1.503 1_445 S
C964 C963 1.410 1_655 S
C964 C965 1.392 1_655 S
C964 C967 1.511 . S
C965 C961 1.376 . S
C965 C964 1.392 1_455 S
C965 H977 0.929 1_455 S
C966 C962 1.531 1_565 S
C966 H978 0.960 . S
C966 H979 0.962 . S
C966 H980 0.960 . S
C967 C964 1.511 . S
C967 H981 0.961 . S
C967 H982 0.961 . S
C967 H983 0.961 . S
C968 C969 1.370 . S
C968 C970 1.363 . S
C968 H984 0.931 . S
C969 C968 1.370 . S
C969 C973 1.408 . S
C970 C968 1.363 . S
C970 C971 1.370 . S
C970 C974 1.524 1_655 S
C971 C963 1.503 1_665 S
C971 C970 1.370 . S
C971 C972 1.403 . S
C972 C971 1.403 . S
C972 C973 1.404 . S
C972 C975 1.539 . S
C973 C969 1.408 . S
C973 C972 1.404 . S
C973 H985 0.930 . S
C974 C970 1.524 1_455 S
C974 H986 0.956 . S
C974 H987 0.961 1_565 S
C974 H988 0.961 . S
C975 C972 1.539 . S
C975 H989 0.958 . S
C975 H990 0.961 . S
C975 H991 0.960 1_565 S
H976 C960 0.931 . S
H977 C965 0.929 1_655 S
H978 C966 0.960 . S
H979 C966 0.962 . S
H980 C966 0.960 . S
H981 C967 0.961 . S
H982 C967 0.961 . S
H983 C967 0.961 . S
H984 C968 0.931 . S
H985 C973 0.930 . S
H986 C974 0.956 . S
H987 C974 0.961 1_545 S
H988 C974 0.961 . S
H989 C975 0.958 . S
H990 C975 0.961 . S
H991 C975 0.960 1_545 S
C992 C993 1.391 . S
C992 C994 1.394 . S
C992 H1008 0.931 . S
C993 C992 1.391 . S
C993 C997 1.376 . S
C994 C992 1.394 . S
C994 C995 1.369 . S
C994 C998 1.531 1_565 S
C995 C994 1.369 . S
C995 C996 1.410 . S
C995 C1003 1.503 1_565 S
C996 C995 1.410 . S
C996 C997 1.392 . S
C996 C999 1.511 . S
C997 C993 1.376 . S
C997 C996 1.392 . S
C997 H1009 0.929 . S
C998 C994 1.531 1_545 S
C998 H1010 0.960 . S
C998 H1011 0.962 . S
C998 H1012 0.960 . S
C999 C996 1.511 . S
C999 H1013 0.961 . S
C999 H1014 0.961 . S
C999 H1015 0.961 . S
C1000 C1001 1.370 . S
C1000 C1002 1.363 . S
C1000 H1016 0.931 . S
C1001 C1000 1.370 . S
C1001 C1005 1.408 . S
C1002 C1000 1.363 . S
C1002 C1003 1.370 . S
C1002 C1006 1.524 . S
C1003 C995 1.503 1_545 S
C1003 C1002 1.370 . S
C1003 C1004 1.403 1_545 S
C1004 C1003 1.403 1_565 S
C1004 C1005 1.404 1_565 S
C1004 C1007 1.539 . S
C1005 C1001 1.408 . S
C1005 C1004 1.404 1_545 S
C1005 H1017 0.930 . S
C1006 C1002 1.524 . S
C1006 H1018 0.956 . S
C1006 H1019 0.961 . S
C1006 H1020 0.961 . S
C1007 C1004 1.539 . S
C1007 H1021 0.958 . S
C1007 H1022 0.961 . S
C1007 H1023 0.960 . S
H1008 C992 0.931 . S
H1009 C997 0.929 . S
H1010 C998 0.960 . S
H1011 C998 0.962 . S
H1012 C998 0.960 . S
H1013 C999 0.961 . S
H1014 C999 0.961 . S
H1015 C999 0.961 . S
H1016 C1000 0.931 . S
H1017 C1005 0.930 . S
H1018 C1006 0.956 . S
H1019 C1006 0.961 . S
H1020 C1006 0.961 . S
H1021 C1007 0.958 . S
H1022 C1007 0.961 . S
H1023 C1007 0.960 . S
C1024 C1025 1.391 . S
C1024 C1026 1.394 1_655 S
C1024 H1040 0.931 . S
C1025 C1024 1.391 . S
C1025 C1029 1.376 . S
C1026 C1024 1.394 1_455 S
C1026 C1027 1.369 1_455 S
C1026 C1030 1.531 . S
C1027 C1026 1.369 1_655 S
C1027 C1028 1.410 . S
C1027 C1035 1.503 1_665 S
C1028 C1027 1.410 . S
C1028 C1029 1.392 . S
C1028 C1031 1.511 1_565 S
C1029 C1025 1.376 . S
C1029 C1028 1.392 . S
C1029 H1041 0.929 . S
C1030 C1026 1.531 . S
C1030 H1042 0.960 . S
C1030 H1043 0.962 . S
C1030 H1044 0.960 . S
C1031 C1028 1.511 1_545 S
C1031 H1045 0.961 . S
C1031 H1046 0.961 . S
C1031 H1047 0.961 . S
C1032 C1033 1.370 . S
C1032 C1034 1.363 . S
C1032 H1048 0.931 . S
C1033 C1032 1.370 . S
C1033 C1037 1.408 . S
C1034 C1032 1.363 . S
C1034 C1035 1.370 . S
C1034 C1038 1.524 1_545 S
C1035 C1027 1.503 1_445 S
C1035 C1034 1.370 . S
C1035 C1036 1.403 . S
C1036 C1035 1.403 . S
C1036 C1037 1.404 . S
C1036 C1039 1.539 1_455 S
C1037 C1033 1.408 . S
C1037 C1036 1.404 . S
C1037 H1049 0.930 . S
C1038 C1034 1.524 1_565 S
C1038 H1050 0.956 . S
C1038 H1051 0.961 . S
C1038 H1052 0.961 1_565 S
C1039 C1036 1.539 1_655 S
C1039 H1053 0.958 . S
C1039 H1054 0.961 . S
C1039 H1055 0.960 . S
H1040 C1024 0.931 . S
H1041 C1029 0.929 . S
H1042 C1030 0.960 . S
H1043 C1030 0.962 . S
H1044 C1030 0.960 . S
H1045 C1031 0.961 . S
H1046 C1031 0.961 . S
H1047 C1031 0.961 . S
H1048 C1032 0.931 . S
H1049 C1037 0.930 . S
H1050 C1038 0.956 . S
H1051 C1038 0.961 . S
H1052 C1038 0.961 1_545 S
H1053 C1039 0.958 . S
H1054 C1039 0.961 . S
H1055 C1039 0.960 . S
C1056 C1057 1.391 . S
C1056 C1058 1.394 . S
C1056 H1072 0.931 . S
C1057 C1056 1.391 . S
C1057 C1061 1.376 . S
C1058 C1056 1.394 . S
C1058 C1059 1.369 . S
C1058 C1062 1.531 . S
C1059 C1058 1.369 . S
C1059 C1060 1.410 . S
C1059 C1067 1.503 1_455 S
C1060 C1059 1.410 . S
C1060 C1061 1.392 . S
C1060 C1063 1.511 1_455 S
C1061 C1057 1.376 . S
C1061 C1060 1.392 . S
C1061 H1073 0.929 . S
C1062 C1058 1.531 . S
C1062 H1074 0.960 . S
C1062 H1075 0.962 . S
C1062 H1076 0.960 . S
C1063 C1060 1.511 1_655 S
C1063 H1077 0.961 . S
C1063 H1078 0.961 . S
C1063 H1079 0.961 . S
C1064 C1065 1.370 . S
C1064 C1066 1.363 . S
C1064 H1080 0.931 . S
C1065 C1064 1.370 . S
C1065 C1069 1.408 . S
C1066 C1064 1.363 . S
C1066 C1067 1.370 . S
C1066 C1070 1.524 . S
C1067 C1059 1.503 1_655 S
C1067 C1066 1.370 . S
C1067 C1068 1.403 . S
C1068 C1067 1.403 . S
C1068 C1069 1.404 . S
C1068 C1071 1.539 . S
C1069 C1065 1.408 . S
C1069 C1068 1.404 . S
C1069 H1081 0.930 . S
C1070 C1066 1.524 . S
C1070 H1082 0.956 1_655 S
C1070 H1083 0.961 1_655 S
C1070 H1084 0.961 . S
C1071 C1068 1.539 . S
C1071 H1085 0.958 . S
C1071 H1086 0.961 . S
C1071 H1087 0.960 . S
H1072 C1056 0.931 . S
H1073 C1061 0.929 . S
H1074 C1062 0.960 . S
H1075 C1062 0.962 . S
H1076 C1062 0.960 . S
H1077 C1063 0.961 . S
H1078 C1063 0.961 . S
H1079 C1063 0.961 . S
H1080 C1064 0.931 . S
H1081 C1069 0.930 . S
H1082 C1070 0.956 1_455 S
H1083 C1070 0.961 1_455 S
H1084 C1070 0.961 . S
H1085 C1071 0.958 . S
H1086 C1071 0.961 . S
H1087 C1071 0.960 . S
C1088 C1089 1.391 . S
C1088 C1090 1.394 . S
C1088 H1104 0.931 . S
C1089 C1088 1.391 . S
C1089 C1093 1.376 . S
C1090 C1088 1.394 . S
C1090 C1091 1.369 . S
C1090 C1094 1.531 . S
C1091 C1090 1.369 . S
C1091 C1092 1.410 . S
C1091 C1099 1.503 . S
C1092 C1091 1.410 . S
C1092 C1093 1.392 . S
C1092 C1095 1.511 . S
C1093 C1089 1.376 . S
C1093 C1092 1.392 . S
C1093 H1105 0.929 . S
C1094 C1090 1.531 . S
C1094 H1106 0.960 . S
C1094 H1107 0.962 . S
C1094 H1108 0.960 . S
C1095 C1092 1.511 . S
C1095 H1109 0.961 . S
C1095 H1110 0.961 . S
C1095 H1111 0.961 . S
C1096 C1097 1.370 . S
C1096 C1098 1.363 . S
C1096 H1112 0.931 . S
C1097 C1096 1.370 . S
C1097 C1101 1.408 . S
C1098 C1096 1.363 . S
C1098 C1099 1.370 . S
C1098 C1102 1.524 . S
C1099 C1091 1.503 . S
C1099 C1098 1.370 . S
C1099 C1100 1.403 . S
C1100 C1099 1.403 . S
C1100 C1101 1.404 . S
C1100 C1103 1.539 . S
C1101 C1097 1.408 . S
C1101 C1100 1.404 . S
C1101 H1113 0.930 . S
C1102 C1098 1.524 . S
C1102 H1114 0.956 . S
C1102 H1115 0.961 . S
C1102 H1116 0.961 . S
C1103 C1100 1.539 . S
C1103 H1117 0.958 . S
C1103 H1118 0.961 . S
C1103 H1119 0.960 . S
H1104 C1088 0.931 . S
H1105 C1093 0.929 . S
H1106 C1094 0.960 . S
H1107 C1094 0.962 . S
H1108 C1094 0.960 . S
H1109 C1095 0.961 . S
H1110 C1095 0.961 . S
H1111 C1095 0.961 . S
H1112 C1096 0.931 . S
H1113 C1101 0.930 . S
H1114 C1102 0.956 . S
H1115 C1102 0.961 . S
H1116 C1102 0.961 . S
H1117 C1103 0.958 . S
H1118 C1103 0.961 . S
H1119 C1103 0.960 . S
C1120 C1121 1.391 . S
C1120 C1122 1.394 . S
C1120 H1136 0.931 . S
C1121 C1120 1.391 . S
C1121 C1125 1.376 . S
C1122 C1120 1.394 . S
C1122 C1123 1.369 . S
C1122 C1126 1.531 . S
C1123 C1122 1.369 . S
C1123 C1124 1.410 . S
C1123 C1131 1.503 . S
C1124 C1123 1.410 . S
C1124 C1125 1.392 . S
C1124 C1127 1.511 . S
C1125 C1121 1.376 . S
C1125 C1124 1.392 . S
C1125 H1137 0.929 . S
C1126 C1122 1.531 . S
C1126 H1138 0.960 . S
C1126 H1139 0.962 . S
C1126 H1140 0.960 . S
C1127 C1124 1.511 . S
C1127 H1141 0.961 . S
C1127 H1142 0.961 . S
C1127 H1143 0.961 . S
C1128 C1129 1.370 . S
C1128 C1130 1.363 . S
C1128 H1144 0.931 . S
C1129 C1128 1.370 . S
C1129 C1133 1.408 . S
C1130 C1128 1.363 . S
C1130 C1131 1.370 . S
C1130 C1134 1.524 . S
C1131 C1123 1.503 . S
C1131 C1130 1.370 . S
C1131 C1132 1.403 . S
C1132 C1131 1.403 . S
C1132 C1133 1.404 . S
C1132 C1135 1.539 . S
C1133 C1129 1.408 . S
C1133 C1132 1.404 . S
C1133 H1145 0.930 . S
C1134 C1130 1.524 . S
C1134 H1146 0.956 . S
C1134 H1147 0.961 . S
C1134 H1148 0.961 . S
C1135 C1132 1.539 . S
C1135 H1149 0.958 . S
C1135 H1150 0.961 . S
C1135 H1151 0.960 . S
H1136 C1120 0.931 . S
H1137 C1125 0.929 . S
H1138 C1126 0.960 . S
H1139 C1126 0.962 . S
H1140 C1126 0.960 . S
H1141 C1127 0.961 . S
H1142 C1127 0.961 . S
H1143 C1127 0.961 . S
H1144 C1128 0.931 . S
H1145 C1133 0.930 . S
H1146 C1134 0.956 . S
H1147 C1134 0.961 . S
H1148 C1134 0.961 . S
H1149 C1135 0.958 . S
H1150 C1135 0.961 . S
H1151 C1135 0.960 . S
C1152 C1153 1.391 . S
C1152 C1154 1.394 . S
C1152 H1168 0.931 . S
C1153 C1152 1.391 . S
C1153 C1157 1.376 . S
C1154 C1152 1.394 . S
C1154 C1155 1.369 . S
C1154 C1158 1.531 . S
C1155 C1154 1.369 . S
C1155 C1156 1.410 . S
C1155 C1163 1.503 1_545 S
C1156 C1155 1.410 . S
C1156 C1157 1.392 . S
C1156 C1159 1.511 . S
C1157 C1153 1.376 . S
C1157 C1156 1.392 . S
C1157 H1169 0.929 . S
C1158 C1154 1.531 . S
C1158 H1170 0.960 1_545 S
C1158 H1171 0.962 1_545 S
C1158 H1172 0.960 . S
C1159 C1156 1.511 . S
C1159 H1173 0.961 . S
C1159 H1174 0.961 . S
C1159 H1175 0.961 . S
C1160 C1161 1.370 . S
C1160 C1162 1.363 . S
C1160 H1176 0.931 . S
C1161 C1160 1.370 . S
C1161 C1165 1.408 . S
C1162 C1160 1.363 . S
C1162 C1163 1.370 . S
C1162 C1166 1.524 . S
C1163 C1155 1.503 1_565 S
C1163 C1162 1.370 . S
C1163 C1164 1.403 . S
C1164 C1163 1.403 . S
C1164 C1165 1.404 . S
C1164 C1167 1.539 1_565 S
C1165 C1161 1.408 . S
C1165 C1164 1.404 . S
C1165 H1177 0.930 . S
C1166 C1162 1.524 . S
C1166 H1178 0.956 . S
C1166 H1179 0.961 . S
C1166 H1180 0.961 . S
C1167 C1164 1.539 1_545 S
C1167 H1181 0.958 . S
C1167 H1182 0.961 . S
C1167 H1183 0.960 . S
H1168 C1152 0.931 . S
H1169 C1157 0.929 . S
H1170 C1158 0.960 1_565 S
H1171 C1158 0.962 1_565 S
H1172 C1158 0.960 . S
H1173 C1159 0.961 . S
H1174 C1159 0.961 . S
H1175 C1159 0.961 . S
H1176 C1160 0.931 . S
H1177 C1165 0.930 . S
H1178 C1166 0.956 . S
H1179 C1166 0.961 . S
H1180 C1166 0.961 . S
H1181 C1167 0.958 . S
H1182 C1167 0.961 . S
H1183 C1167 0.960 . S
C1184 C1185 1.391 . S
C1184 C1186 1.395 1_565 S
C1184 H1200 0.931 . S
C1185 C1184 1.391 . S
C1185 C1189 1.376 . S
C1186 C1184 1.395 1_545 S
C1186 C1187 1.370 1_545 S
C1186 C1190 1.529 . S
C1187 C1186 1.370 1_565 S
C1187 C1188 1.410 . S
C1187 C1195 1.503 1_665 S
C1188 C1187 1.410 . S
C1188 C1189 1.392 . S
C1188 C1191 1.511 1_655 S
C1189 C1185 1.376 . S
C1189 C1188 1.392 . S
C1189 H1201 0.929 . S
C1190 C1186 1.529 . S
C1190 H1202 0.960 . S
C1190 H1203 0.962 . S
C1190 H1204 0.960 . S
C1191 C1188 1.511 1_455 S
C1191 H1205 0.961 . S
C1191 H1206 0.961 . S
C1191 H1207 0.961 . S
C1192 C1193 1.370 . S
C1192 C1194 1.363 . S
C1192 H1208 0.931 . S
C1193 C1192 1.370 . S
C1193 C1197 1.408 . S
C1194 C1192 1.363 . S
C1194 C1195 1.370 . S
C1194 C1198 1.524 1_455 S
C1195 C1187 1.503 1_445 S
C1195 C1194 1.370 . S
C1195 C1196 1.403 1_545 S
C1196 C1195 1.403 1_565 S
C1196 C1197 1.404 1_565 S
C1196 C1199 1.539 . S
C1197 C1193 1.408 . S
C1197 C1196 1.404 1_545 S
C1197 H1209 0.930 . S
C1198 C1194 1.524 1_655 S
C1198 H1210 0.956 . S
C1198 H1211 0.961 . S
C1198 H1212 0.961 1_655 S
C1199 C1196 1.539 . S
C1199 H1213 0.958 . S
C1199 H1214 0.961 . S
C1199 H1215 0.960 . S
H1200 C1184 0.931 . S
H1201 C1189 0.929 . S
H1202 C1190 0.960 . S
H1203 C1190 0.962 . S
H1204 C1190 0.960 . S
H1205 C1191 0.961 . S
H1206 C1191 0.961 . S
H1207 C1191 0.961 . S
H1208 C1192 0.931 . S
H1209 C1197 0.930 . S
H1210 C1198 0.956 . S
H1211 C1198 0.961 . S
H1212 C1198 0.961 1_455 S
H1213 C1199 0.958 . S
H1214 C1199 0.961 . S
H1215 C1199 0.960 . S
C1216 C1217 1.391 . S
C1216 C1218 1.394 . S
C1216 H1232 0.931 . S
C1217 C1216 1.391 . S
C1217 C1221 1.376 . S
C1218 C1216 1.394 . S
C1218 C1219 1.369 . S
C1218 C1222 1.533 . S
C1219 C1218 1.369 . S
C1219 C1220 1.410 . S
C1219 C1227 1.503 1_655 S
C1220 C1219 1.410 . S
C1220 C1221 1.392 . S
C1220 C1223 1.511 . S
C1221 C1217 1.376 . S
C1221 C1220 1.392 . S
C1221 H1233 0.929 . S
C1222 C1218 1.533 . S
C1222 H1234 0.961 . S
C1222 H1235 0.956 1_655 S
C1222 H1236 0.964 . S
C1223 C1220 1.511 . S
C1223 H1237 0.961 . S
C1223 H1238 0.961 . S
C1223 H1239 0.961 . S
C1224 C1225 1.370 . S
C1224 C1226 1.363 . S
C1224 H1240 0.931 . S
C1225 C1224 1.370 . S
C1225 C1229 1.408 . S
C1226 C1224 1.363 . S
C1226 C1227 1.370 . S
C1226 C1230 1.524 . S
C1227 C1219 1.503 1_455 S
C1227 C1226 1.370 . S
C1227 C1228 1.403 1_455 S
C1228 C1227 1.403 1_655 S
C1228 C1229 1.404 1_655 S
C1228 C1231 1.539 . S
C1229 C1225 1.408 . S
C1229 C1228 1.404 1_455 S
C1229 H1241 0.930 1_455 S
C1230 C1226 1.524 . S
C1230 H1242 0.956 . S
C1230 H1243 0.961 . S
C1230 H1244 0.961 . S
C1231 C1228 1.539 . S
C1231 H1245 0.958 . S
C1231 H1246 0.961 . S
C1231 H1247 0.960 . S
H1232 C1216 0.931 . S
H1233 C1221 0.929 . S
H1234 C1222 0.961 . S
H1235 C1222 0.956 1_455 S
H1236 C1222 0.964 . S
H1237 C1223 0.961 . S
H1238 C1223 0.961 . S
H1239 C1223 0.961 . S
H1240 C1224 0.931 . S
H1241 C1229 0.930 1_655 S
H1242 C1230 0.956 . S
H1243 C1230 0.961 . S
H1244 C1230 0.961 . S
H1245 C1231 0.958 . S
H1246 C1231 0.961 . S
H1247 C1231 0.960 . S
C225 C63 1.321 . S
C233 C7 1.341 . S
C257 C21 1.329 . S
C265 C77 1.345 . S
C289 C91 1.358 . S
C297 C35 1.348 . S
C321 C105 1.339 . S
C329 C49 1.350 . S
C353 C175 1.357 . S
C361 C119 1.348 . S
C385 C133 1.319 . S
C393 C189 1.336 . S
C417 C203 1.366 . S
C425 C147 1.353 . S
C449 C161 1.360 . S
C457 C217 1.349 . S
C481 C3 1.424 . S
C489 C213 1.418 . S
C513 C17 1.406 . S
C521 C171 1.416 . S
C545 C31 1.420 . S
C553 C185 1.420 . S
C577 C199 1.423 . S
C585 C45 1.417 . S
C609 C59 1.399 . S
C617 C129 1.409 . S
C641 C73 1.412 . S
C649 C143 1.412 . S
C673 C157 1.412 . S
C681 C87 1.412 . S
C705 C115 1.397 . S
C713 C101 1.410 . S
C737 C8 1.625 . S
C745 C148 1.620 . S
C769 C162 1.608 . S
C777 C22 1.626 . S
C801 C36 1.628 . S
C809 C120 1.617 . S
C833 C134 1.615 . S
C841 C50 1.624 . S
C865 C64 1.613 . S
C873 C204 1.625 . S
C897 C78 1.624 . S
C905 C218 1.616 . S
C929 C176 1.618 . S
C937 C92 1.617 . S
C961 C190 1.616 . S
C969 C106 1.624 . S
C993 C149 1.370 . S
C1001 C9 1.386 . S
C1025 C23 1.375 . S
C1033 C163 1.386 . S
C1057 C37 1.380 . S
C1065 C121 1.385 . S
C1089 C135 1.381 . S
C1097 C51 1.371 . S
C1121 C205 1.389 . S
C1129 C65 1.382 . S
C1153 C219 1.387 . S
C1161 C79 1.372 . S
C1185 C177 1.373 . S
C1193 C93 1.386 . S
C1217 C107 1.363 . S
C1225 C191 1.385 . S
