# Generated by pormake.
# Topology upc, (4)-cn, num edge types: 1
# Building blocks:
#     Node 0, Type 0, BuildingBlock: KOZSID_clean_sbu_0, # of connection points: 4
#     Node 1, Type 0, BuildingBlock: KOZSID_clean_sbu_0, # of connection points: 4
#     Node 2, Type 0, BuildingBlock: KOZSID_clean_sbu_0, # of connection points: 4
#     Node 3, Type 0, BuildingBlock: KOZSID_clean_sbu_0, # of connection points: 4
#     Node 4, Type 0, BuildingBlock: KOZSID_clean_sbu_0, # of connection points: 4
#     Node 5, Type 0, BuildingBlock: KOZSID_clean_sbu_0, # of connection points: 4
#     Node 6, Type 0, BuildingBlock: KOZSID_clean_sbu_0, # of connection points: 4
#     Node 7, Type 0, BuildingBlock: KOZSID_clean_sbu_0, # of connection points: 4
#     Node 8, Type 0, BuildingBlock: KOZSID_clean_sbu_0, # of connection points: 4
#     Node 9, Type 0, BuildingBlock: KOZSID_clean_sbu_0, # of connection points: 4
#     Node 10, Type 0, BuildingBlock: KOZSID_clean_sbu_0, # of connection points: 4
#     Node 11, Type 0, BuildingBlock: KOZSID_clean_sbu_0, # of connection points: 4
#     Node 12, Type 0, BuildingBlock: KOZSID_clean_sbu_0, # of connection points: 4
#     Node 13, Type 0, BuildingBlock: KOZSID_clean_sbu_0, # of connection points: 4
#     Node 14, Type 0, BuildingBlock: KOZSID_clean_sbu_0, # of connection points: 4
#     Node 15, Type 0, BuildingBlock: KOZSID_clean_sbu_0, # of connection points: 4
#     Edge 16, Type (0, 0), BuildingBlock: XIVTED_clean_linker_0, # of connection points: 2
#     Edge 17, Type (0, 0), BuildingBlock: XIVTED_clean_linker_0, # of connection points: 2
#     Edge 18, Type (0, 0), BuildingBlock: XIVTED_clean_linker_0, # of connection points: 2
#     Edge 19, Type (0, 0), BuildingBlock: XIVTED_clean_linker_0, # of connection points: 2
#     Edge 20, Type (0, 0), BuildingBlock: XIVTED_clean_linker_0, # of connection points: 2
#     Edge 21, Type (0, 0), BuildingBlock: XIVTED_clean_linker_0, # of connection points: 2
#     Edge 22, Type (0, 0), BuildingBlock: XIVTED_clean_linker_0, # of connection points: 2
#     Edge 23, Type (0, 0), BuildingBlock: XIVTED_clean_linker_0, # of connection points: 2
#     Edge 24, Type (0, 0), BuildingBlock: XIVTED_clean_linker_0, # of connection points: 2
#     Edge 25, Type (0, 0), BuildingBlock: XIVTED_clean_linker_0, # of connection points: 2
#     Edge 26, Type (0, 0), BuildingBlock: XIVTED_clean_linker_0, # of connection points: 2
#     Edge 27, Type (0, 0), BuildingBlock: XIVTED_clean_linker_0, # of connection points: 2
#     Edge 28, Type (0, 0), BuildingBlock: XIVTED_clean_linker_0, # of connection points: 2
#     Edge 29, Type (0, 0), BuildingBlock: XIVTED_clean_linker_0, # of connection points: 2
#     Edge 30, Type (0, 0), BuildingBlock: XIVTED_clean_linker_0, # of connection points: 2
#     Edge 31, Type (0, 0), BuildingBlock: XIVTED_clean_linker_0, # of connection points: 2
#     Edge 32, Type (0, 0), BuildingBlock: XIVTED_clean_linker_0, # of connection points: 2
#     Edge 33, Type (0, 0), BuildingBlock: XIVTED_clean_linker_0, # of connection points: 2
#     Edge 34, Type (0, 0), BuildingBlock: XIVTED_clean_linker_0, # of connection points: 2
#     Edge 35, Type (0, 0), BuildingBlock: XIVTED_clean_linker_0, # of connection points: 2
#     Edge 36, Type (0, 0), BuildingBlock: XIVTED_clean_linker_0, # of connection points: 2
#     Edge 37, Type (0, 0), BuildingBlock: XIVTED_clean_linker_0, # of connection points: 2
#     Edge 38, Type (0, 0), BuildingBlock: XIVTED_clean_linker_0, # of connection points: 2
#     Edge 39, Type (0, 0), BuildingBlock: XIVTED_clean_linker_0, # of connection points: 2
#     Edge 40, Type (0, 0), BuildingBlock: XIVTED_clean_linker_0, # of connection points: 2
#     Edge 41, Type (0, 0), BuildingBlock: XIVTED_clean_linker_0, # of connection points: 2
#     Edge 42, Type (0, 0), BuildingBlock: XIVTED_clean_linker_0, # of connection points: 2
#     Edge 43, Type (0, 0), BuildingBlock: XIVTED_clean_linker_0, # of connection points: 2
#     Edge 44, Type (0, 0), BuildingBlock: XIVTED_clean_linker_0, # of connection points: 2
#     Edge 45, Type (0, 0), BuildingBlock: XIVTED_clean_linker_0, # of connection points: 2
#     Edge 46, Type (0, 0), BuildingBlock: XIVTED_clean_linker_0, # of connection points: 2
#     Edge 47, Type (0, 0), BuildingBlock: XIVTED_clean_linker_0, # of connection points: 2
# Relax obj value: 0.176
# Max RMSD: 0.237
# Mean RMSD: 0.232
data_MOF--net-upc--node1-KOZSID_clean_sbu_0--edge1-XIVTED_clean_linker_0
_symmetry_space_group_name_H-M    P1
_symmetry_Int_Tables_number       1
_symmetry_cell_setting            triclinic
loop_
_symmetry_equiv_pos_as_xyz
'x, y, z'
_cell_length_a     44.801224
_cell_length_b     44.889684
_cell_length_c     45.99301
_cell_angle_alpha  90.043211
_cell_angle_beta   90.070219
_cell_angle_gamma 90.130136
loop_
_atom_site_label
_atom_site_type_symbol
_atom_site_fract_x
_atom_site_fract_y
_atom_site_fract_z
_atom_type_partial_charge
C0 C 0.19129 0.64281 0.12401 0.0
C1 C 0.2185 0.63304 0.11325 0.0
C2 C 0.21736 0.60244 0.1127 0.0
C3 C 0.18979 0.59484 0.12348 0.0
N4 N 0.17341 0.61885 0.13045 0.0
Co5 Co 0.13455 0.6176 0.15159 0.0
N6 N 0.14064 0.57632 0.16619 0.0
C7 C 0.161 0.55725 0.15549 0.0
C8 C 0.15994 0.5298 0.16858 0.0
C9 C 0.13707 0.53148 0.18834 0.0
C10 C 0.12516 0.55993 0.18616 0.0
N11 N 0.09569 0.61758 0.17274 0.0
C12 C 0.08396 0.59816 0.1925 0.0
C13 C 0.05501 0.60638 0.19973 0.0
C14 C 0.04832 0.63122 0.18368 0.0
C15 C 0.07335 0.63691 0.16746 0.0
N16 N 0.12918 0.65899 0.1371 0.0
C17 C 0.10298 0.67333 0.13517 0.0
C18 C 0.10626 0.70235 0.12611 0.0
C19 C 0.13644 0.70656 0.12248 0.0
C20 C 0.15007 0.67989 0.12972 0.0
N21 N 0.11385 0.60073 0.11703 0.0
C22 C 0.08294 0.5736 0.07015 0.0
C23 C 0.10478 0.59571 0.06516 0.0
C24 C 0.11979 0.60924 0.08899 0.0
C25 C 0.07752 0.56537 0.09888 0.0
C26 C 0.09304 0.5788 0.12155 0.0
N27 N 0.15465 0.63339 0.18586 0.0
C28 C 0.15911 0.67317 0.22025 0.0
C29 C 0.18917 0.66605 0.22465 0.0
C30 C 0.20076 0.64045 0.21174 0.0
C31 C 0.18272 0.62385 0.19297 0.0
C32 C 0.14227 0.65668 0.20058 0.0
H33 H 0.19237 0.60475 0.18243 0.0
H34 H 0.12007 0.66428 0.19556 0.0
H35 H 0.13619 0.62642 0.0848 0.0
H36 H 0.08796 0.57085 0.14285 0.0
C37 C 0.18238 0.56691 0.13521 0.0
C38 C 0.18273 0.67473 0.12803 0.0
C39 C 0.09718 0.56917 0.20085 0.0
C40 C 0.07774 0.66156 0.14912 0.0
H41 H 0.23782 0.64621 0.10763 0.0
H42 H 0.23561 0.58755 0.10767 0.0
H43 H 0.17424 0.51086 0.16445 0.0
H44 H 0.1295 0.51353 0.2022 0.0
H45 H 0.03974 0.59491 0.2141 0.0
H46 H 0.02761 0.64359 0.1838 0.0
H47 H 0.08904 0.71912 0.12436 0.0
H48 H 0.14722 0.72702 0.11578 0.0
H49 H 0.10987 0.60276 0.04321 0.0
H50 H 0.06151 0.54802 0.104 0.0
H51 H 0.14954 0.69311 0.22968 0.0
H52 H 0.22397 0.63442 0.21469 0.0
C53 C 0.88566 0.18933 0.12763 0.0
C54 C 0.89477 0.2158 0.11494 0.0
C55 C 0.9255 0.21533 0.11447 0.0
C56 C 0.93361 0.18858 0.12674 0.0
N57 N 0.90985 0.17215 0.13453 0.0
Co58 Co 0.91163 0.1336 0.1558 0.0
N59 N 0.95303 0.14049 0.17002 0.0
C60 C 0.9719 0.16085 0.15881 0.0
C61 C 0.99944 0.16045 0.17193 0.0
C62 C 0.99799 0.1381 0.19226 0.0
C63 C 0.96959 0.1258 0.19039 0.0
N64 N 0.91232 0.09505 0.17726 0.0
C65 C 0.93186 0.08411 0.19732 0.0
C66 C 0.92414 0.05514 0.20492 0.0
C67 C 0.8994 0.0477 0.18889 0.0
C68 C 0.8933 0.07232 0.1723 0.0
N69 N 0.87003 0.12744 0.14151 0.0
C70 C 0.85584 0.10104 0.14045 0.0
C71 C 0.82639 0.10378 0.1326 0.0
C72 C 0.8217 0.13374 0.12872 0.0
C73 C 0.84873 0.1479 0.13407 0.0
N74 N 0.92847 0.11294 0.12127 0.0
C75 C 0.95524 0.08177 0.07448 0.0
C76 C 0.93285 0.10323 0.06947 0.0
C77 C 0.9195 0.11837 0.09325 0.0
C78 C 0.96398 0.0769 0.10318 0.0
C79 C 0.95073 0.09256 0.12582 0.0
N80 N 0.896 0.15359 0.19013 0.0
C81 C 0.85783 0.15706 0.22636 0.0
C82 C 0.86586 0.18672 0.23199 0.0
C83 C 0.89108 0.19847 0.21826 0.0
C84 C 0.90619 0.18128 0.19772 0.0
C85 C 0.87306 0.14097 0.20525 0.0
H86 H 0.92489 0.19119 0.18663 0.0
H87 H 0.86496 0.11906 0.19982 0.0
H88 H 0.90207 0.13442 0.08905 0.0
H89 H 0.95901 0.08791 0.14716 0.0
C90 C 0.96189 0.18178 0.13821 0.0
C91 C 0.85389 0.18058 0.13164 0.0
C92 C 0.96036 0.09834 0.20599 0.0
C93 C 0.86823 0.0762 0.15439 0.0
H94 H 0.88069 0.23375 0.10736 0.0
H95 H 0.94012 0.23333 0.10792 0.0
H96 H 0.01826 0.17493 0.16754 0.0
H97 H 0.01603 0.13122 0.20638 0.0
H98 H 0.93579 0.04042 0.21965 0.0
H99 H 0.88723 0.02685 0.18942 0.0
H100 H 0.80962 0.08639 0.13217 0.0
H101 H 0.80045 0.14373 0.12358 0.0
H102 H 0.92538 0.10786 0.04755 0.0
H103 H 0.9815 0.06112 0.10828 0.0
H104 H 0.83818 0.14721 0.23616 0.0
H105 H 0.89794 0.2213 0.22205 0.0
C106 C 0.3246 0.8829 0.12692 0.0
C107 C 0.29628 0.89226 0.11899 0.0
C108 C 0.29553 0.92245 0.12311 0.0
C109 C 0.32344 0.93008 0.13302 0.0
N110 N 0.34227 0.90667 0.1346 0.0
Co111 Co 0.38413 0.90799 0.15057 0.0
N112 N 0.37975 0.94966 0.16611 0.0
C113 C 0.35512 0.96677 0.16345 0.0
C114 C 0.35792 0.99415 0.17642 0.0
C115 C 0.38604 0.99458 0.18808 0.0
C116 C 0.39906 0.96742 0.18136 0.0
N117 N 0.42609 0.90895 0.16613 0.0
C118 C 0.44159 0.93054 0.18068 0.0
C119 C 0.471 0.92205 0.18531 0.0
C120 C 0.47416 0.89432 0.17351 0.0
C121 C 0.44672 0.88744 0.16214 0.0
N122 N 0.38754 0.86555 0.13635 0.0
C123 C 0.41258 0.84884 0.13745 0.0
C124 C 0.40787 0.81939 0.13111 0.0
C125 C 0.37788 0.81678 0.12651 0.0
C126 C 0.36572 0.84501 0.1298 0.0
N127 N 0.40005 0.92472 0.11295 0.0
C128 C 0.43429 0.95806 0.07227 0.0
C129 C 0.44155 0.92851 0.07892 0.0
C130 C 0.42413 0.91229 0.09898 0.0
C131 C 0.40771 0.96921 0.08376 0.0
C132 C 0.39076 0.95208 0.10319 0.0
N133 N 0.36904 0.89225 0.18775 0.0
C134 C 0.37049 0.853 0.22325 0.0
C135 C 0.34053 0.85802 0.23008 0.0
C136 C 0.32642 0.88292 0.21835 0.0
C137 C 0.34136 0.90016 0.19775 0.0
C138 C 0.3843 0.87035 0.20206 0.0
H139 H 0.32932 0.91841 0.18863 0.0
H140 H 0.40649 0.86428 0.19599 0.0
H141 H 0.43123 0.89015 0.10353 0.0
H142 H 0.37081 0.96211 0.11081 0.0
C143 C 0.33033 0.95684 0.14737 0.0
C144 C 0.33316 0.85102 0.12802 0.0
C145 C 0.42989 0.95972 0.18975 0.0
C146 C 0.43904 0.86032 0.14916 0.0
H147 H 0.27765 0.8785 0.11225 0.0
H148 H 0.27618 0.93673 0.12134 0.0
H149 H 0.34158 1.01186 0.17707 0.0
H150 H 0.3959 0.01292 0.19999 0.0
H151 H 0.48851 0.93469 0.19588 0.0
H152 H 0.49409 0.88073 0.17336 0.0
H153 H 0.42397 0.80148 0.13196 0.0
H154 H 0.36642 0.79596 0.12274 0.0
H155 H 0.46139 0.91839 0.06985 0.0
H156 H 0.40023 0.99143 0.07822 0.0
H157 H 0.3823 0.83394 0.23195 0.0
H158 H 0.30333 0.88776 0.22348 0.0
C159 C 0.6457 0.32133 0.1283 0.0
C160 C 0.63643 0.29247 0.12227 0.0
C161 C 0.60599 0.29219 0.12424 0.0
C162 C 0.59806 0.32068 0.13164 0.0
N163 N 0.62161 0.33947 0.13368 0.0
Co164 Co 0.62009 0.38147 0.14938 0.0
N165 N 0.57735 0.37788 0.16214 0.0
C166 C 0.55945 0.35409 0.15746 0.0
C167 C 0.53116 0.35767 0.16826 0.0
C168 C 0.53097 0.38543 0.18057 0.0
C169 C 0.55929 0.39734 0.17667 0.0
N170 N 0.6194 0.42322 0.16526 0.0
C171 C 0.59756 0.43874 0.17926 0.0
C172 C 0.60712 0.4673 0.18632 0.0
C173 C 0.63559 0.4701 0.17608 0.0
C174 C 0.64198 0.44317 0.16353 0.0
N175 N 0.66328 0.38439 0.13747 0.0
C176 C 0.68027 0.40927 0.13837 0.0
C177 C 0.70961 0.40439 0.1314 0.0
C178 C 0.7118 0.37441 0.12673 0.0
C179 C 0.68362 0.3625 0.13135 0.0
N180 N 0.60583 0.39766 0.11093 0.0
C181 C 0.57217 0.43141 0.07033 0.0
C182 C 0.6002 0.4412 0.07985 0.0
C183 C 0.61666 0.42397 0.0998 0.0
C184 C 0.56324 0.40282 0.0786 0.0
C185 C 0.5807 0.38617 0.09798 0.0
N186 N 0.63303 0.36605 0.18735 0.0
C187 C 0.67019 0.36535 0.22497 0.0
C188 C 0.66184 0.33634 0.23235 0.0
C189 C 0.6366 0.32392 0.21954 0.0
C190 C 0.622 0.33958 0.19765 0.0
C191 C 0.65555 0.37978 0.20233 0.0
H192 H 0.6032 0.3289 0.18793 0.0
H193 H 0.66413 0.40099 0.19585 0.0
H194 H 0.63746 0.43301 0.10671 0.0
H195 H 0.57262 0.36455 0.10301 0.0
C196 C 0.57016 0.32861 0.14319 0.0
C197 C 0.67765 0.3301 0.1306 0.0
C198 C 0.56753 0.42759 0.18627 0.0
C199 C 0.66932 0.4355 0.15086 0.0
H200 H 0.65013 0.27307 0.11856 0.0
H201 H 0.59159 0.27282 0.12302 0.0
H202 H 0.51281 0.34197 0.1673 0.0
H203 H 0.51204 0.39585 0.191 0.0
H204 H 0.59484 0.48441 0.19774 0.0
H205 H 0.65001 0.48939 0.17782 0.0
H206 H 0.72772 0.42039 0.13163 0.0
H207 H 0.73211 0.36251 0.12163 0.0
H208 H 0.60868 0.46276 0.07323 0.0
H209 H 0.54242 0.39355 0.07067 0.0
H210 H 0.68985 0.37559 0.23447 0.0
H211 H 0.62952 0.30149 0.22492 0.0
C212 C 0.20399 0.88084 0.37901 0.0
C213 C 0.23243 0.88959 0.38734 0.0
C214 C 0.23362 0.91991 0.38447 0.0
C215 C 0.20584 0.92822 0.37484 0.0
N216 N 0.18669 0.90508 0.37223 0.0
Co217 Co 0.14487 0.90749 0.35629 0.0
N218 N 0.15002 0.9496 0.34228 0.0
C219 C 0.1747 0.96653 0.34608 0.0
C220 C 0.17232 0.99442 0.33417 0.0
C221 C 0.14448 0.99533 0.32194 0.0
C222 C 0.13129 0.96783 0.32706 0.0
N223 N 0.10299 0.90944 0.34071 0.0
C224 C 0.08808 0.93152 0.32645 0.0
C225 C 0.05892 0.92305 0.32024 0.0
C226 C 0.05514 0.89509 0.33132 0.0
C227 C 0.08209 0.8879 0.34352 0.0
N228 N 0.14075 0.86458 0.36895 0.0
C229 C 0.11545 0.8482 0.36723 0.0
C230 C 0.11967 0.81851 0.37257 0.0
C231 C 0.14959 0.8154 0.37717 0.0
C232 C 0.16222 0.84359 0.37488 0.0
N233 N 0.12901 0.923 0.39447 0.0
C234 C 0.09446 0.9557 0.43537 0.0
C235 C 0.08687 0.92642 0.4278 0.0
C236 C 0.10444 0.91052 0.40764 0.0
C237 C 0.12149 0.96677 0.42476 0.0
C238 C 0.1386 0.94991 0.40526 0.0
N239 N 0.15974 0.89318 0.31853 0.0
C240 C 0.15782 0.85611 0.28082 0.0
C241 C 0.18755 0.86205 0.27365 0.0
C242 C 0.2016 0.88655 0.28639 0.0
C243 C 0.18707 0.90213 0.30841 0.0
C244 C 0.14437 0.8719 0.30333 0.0
H245 H 0.19921 0.91988 0.31842 0.0
H246 H 0.12242 0.86507 0.30955 0.0
H247 H 0.09703 0.88862 0.40229 0.0
H248 H 0.15896 0.9598 0.39844 0.0
C249 C 0.19931 0.95572 0.36181 0.0
C250 C 0.19488 0.84912 0.37696 0.0
C251 C 0.10048 0.96067 0.31816 0.0
C252 C 0.08927 0.8603 0.35566 0.0
H253 H 0.25083 0.8754 0.39363 0.0
H254 H 0.25315 0.93393 0.38692 0.0
H255 H 0.18874 1.01214 0.3346 0.0
H256 H 0.13479 0.01428 0.3109 0.0
H257 H 0.04211 0.93563 0.30868 0.0
H258 H 0.03527 0.88138 0.33009 0.0
H259 H 0.1033 0.80081 0.37103 0.0
H260 H 0.16071 0.79433 0.38022 0.0
H261 H 0.06665 0.91633 0.43619 0.0
H262 H 0.12921 0.98874 0.43105 0.0
H263 H 0.14611 0.83726 0.27144 0.0
H264 H 0.22456 0.89197 0.28118 0.0
C265 C 0.64528 0.19546 0.37364 0.0
C266 C 0.63476 0.22312 0.38241 0.0
C267 C 0.60413 0.22148 0.38254 0.0
C268 C 0.59713 0.19324 0.37327 0.0
N269 N 0.62157 0.17692 0.36761 0.0
Co270 Co 0.62112 0.13743 0.34759 0.0
N271 N 0.58018 0.14266 0.33148 0.0
C272 C 0.56049 0.1628 0.34143 0.0
C273 C 0.5332 0.16081 0.32795 0.0
C274 C 0.53569 0.13757 0.30869 0.0
C275 C 0.56451 0.12657 0.31133 0.0
N276 N 0.622 0.09804 0.32754 0.0
C277 C 0.60335 0.08566 0.30736 0.0
C278 C 0.6127 0.05708 0.30029 0.0
C279 C 0.6371 0.05103 0.31732 0.0
C280 C 0.64162 0.07622 0.33368 0.0
N281 N 0.66219 0.13297 0.36352 0.0
C282 C 0.67656 0.10696 0.36674 0.0
C283 C 0.70515 0.11064 0.37709 0.0
C284 C 0.70907 0.14087 0.38015 0.0
C285 C 0.68273 0.15419 0.37118 0.0
N286 N 0.60328 0.11757 0.38219 0.0
C287 C 0.57527 0.08701 0.42885 0.0
C288 C 0.59712 0.10912 0.43406 0.0
C289 C 0.61107 0.12397 0.41037 0.0
C290 C 0.56768 0.08127 0.39997 0.0
C291 C 0.58154 0.09658 0.37744 0.0
N292 N 0.63771 0.15654 0.31325 0.0
C293 C 0.67875 0.16088 0.2803 0.0
C294 C 0.67121 0.19062 0.27502 0.0
C295 C 0.64472 0.2019 0.28642 0.0
C296 C 0.62774 0.18405 0.30493 0.0
C297 C 0.6618 0.14424 0.29972 0.0
H298 H 0.60802 0.19356 0.31448 0.0
H299 H 0.66967 0.12242 0.30562 0.0
H300 H 0.62805 0.14054 0.41476 0.0
H301 H 0.57414 0.09109 0.35602 0.0
C302 C 0.56949 0.1849 0.36126 0.0
C303 C 0.67762 0.18695 0.37133 0.0
C304 C 0.57447 0.09835 0.29763 0.0
C305 C 0.66558 0.08135 0.35281 0.0
H306 H 0.64728 0.24316 0.38673 0.0
H307 H 0.58885 0.23977 0.38605 0.0
H308 H 0.51381 0.17465 0.33158 0.0
H309 H 0.51795 0.12905 0.29502 0.0
H310 H 0.60239 0.04175 0.28512 0.0
H311 H 0.65011 0.03075 0.31755 0.0
H312 H 0.72191 0.09359 0.38008 0.0
H313 H 0.72921 0.15184 0.38757 0.0
H314 H 0.6037 0.11452 0.4561 0.0
H315 H 0.55056 0.06508 0.39459 0.0
H316 H 0.69939 0.15161 0.27204 0.0
H317 H 0.6384 0.22488 0.28281 0.0
C318 C 0.33566 0.64052 0.37512 0.0
C319 C 0.30856 0.63047 0.38598 0.0
C320 C 0.30988 0.59986 0.38643 0.0
C321 C 0.33745 0.59255 0.37551 0.0
N322 N 0.35363 0.61674 0.36851 0.0
Co323 Co 0.39239 0.61593 0.34717 0.0
N324 N 0.38655 0.57463 0.33258 0.0
C325 C 0.36657 0.55524 0.34355 0.0
C326 C 0.36771 0.52783 0.33034 0.0
C327 C 0.39022 0.52993 0.31021 0.0
C328 C 0.40186 0.55856 0.31232 0.0
N329 N 0.43094 0.61657 0.32551 0.0
C330 C 0.4423 0.59763 0.30511 0.0
C331 C 0.47101 0.60633 0.2974 0.0
C332 C 0.4779 0.63098 0.31374 0.0
C333 C 0.45322 0.6361 0.33062 0.0
N334 N 0.39767 0.65729 0.36186 0.0
C335 C 0.42385 0.67181 0.36375 0.0
C336 C 0.42054 0.7007 0.37319 0.0
C337 C 0.39038 0.70462 0.37711 0.0
C338 C 0.37678 0.67792 0.36964 0.0
N339 N 0.41337 0.599 0.38149 0.0
C340 C 0.44044 0.56689 0.42755 0.0
C341 C 0.41908 0.58924 0.43318 0.0
C342 C 0.40583 0.60512 0.40977 0.0
C343 C 0.44888 0.56258 0.39866 0.0
C344 C 0.43506 0.57819 0.37641 0.0
N345 N 0.37196 0.63139 0.31311 0.0
C346 C 0.36677 0.67052 0.27827 0.0
C347 C 0.33703 0.66216 0.27348 0.0
C348 C 0.32615 0.63623 0.28639 0.0
C349 C 0.34436 0.62067 0.30568 0.0
C350 C 0.3838 0.65496 0.29839 0.0
H351 H 0.33515 0.60139 0.3163 0.0
H352 H 0.40566 0.66343 0.30367 0.0
H353 H 0.38899 0.62165 0.41445 0.0
H354 H 0.44162 0.57214 0.3549 0.0
C355 C 0.34514 0.56465 0.36388 0.0
C356 C 0.34414 0.67255 0.37138 0.0
C357 C 0.42918 0.56851 0.29681 0.0
C358 C 0.44898 0.66048 0.34935 0.0
H359 H 0.28924 0.64345 0.39181 0.0
H360 H 0.29177 0.58477 0.39158 0.0
H361 H 0.3536 0.50872 0.33451 0.0
H362 H 0.39759 0.51219 0.29602 0.0
H363 H 0.48604 0.59526 0.28253 0.0
H364 H 0.4985 0.64363 0.31334 0.0
H365 H 0.43772 0.7176 0.37498 0.0
H366 H 0.3796 0.72493 0.38413 0.0
H367 H 0.41195 0.59372 0.45523 0.0
H368 H 0.46587 0.5465 0.3929 0.0
H369 H 0.37578 0.6908 0.26894 0.0
H370 H 0.30319 0.62931 0.28322 0.0
C371 C 0.88696 0.33037 0.38463 0.0
C372 C 0.89766 0.30528 0.39884 0.0
C373 C 0.92839 0.30637 0.39725 0.0
C374 C 0.93507 0.33253 0.38312 0.0
N375 N 0.91049 0.34799 0.37631 0.0
Co376 Co 0.91062 0.3874 0.35675 0.0
N377 N 0.95054 0.38141 0.33902 0.0
C378 C 0.9704 0.3611 0.34842 0.0
C379 C 0.99714 0.36281 0.33393 0.0
C380 C 0.99408 0.38605 0.3147 0.0
C381 C 0.96553 0.39743 0.31841 0.0
N382 N 0.90941 0.42694 0.33741 0.0
C383 C 0.92731 0.43924 0.31668 0.0
C384 C 0.91848 0.46831 0.3109 0.0
C385 C 0.89534 0.47467 0.32941 0.0
C386 C 0.89095 0.44919 0.34532 0.0
N387 N 0.87063 0.39242 0.37446 0.0
C388 C 0.85829 0.41883 0.38068 0.0
C389 C 0.83213 0.41591 0.39594 0.0
C390 C 0.82766 0.3857 0.39893 0.0
C391 C 0.85063 0.37158 0.38407 0.0
N392 N 0.93036 0.40671 0.39077 0.0
C393 C 0.95939 0.43809 0.43634 0.0
C394 C 0.93738 0.41642 0.44236 0.0
C395 C 0.92293 0.40111 0.41919 0.0
C396 C 0.96685 0.4428 0.4073 0.0
C397 C 0.95249 0.42708 0.38531 0.0
N398 N 0.8921 0.36897 0.3231 0.0
C399 C 0.84974 0.36615 0.29158 0.0
C400 C 0.85633 0.33631 0.28566 0.0
C401 C 0.88282 0.32409 0.29617 0.0
C402 C 0.90094 0.34122 0.31433 0.0
C403 C 0.86781 0.38206 0.31064 0.0
H404 H 0.92067 0.33107 0.3233 0.0
H405 H 0.86074 0.40399 0.31717 0.0
H406 H 0.90568 0.38502 0.42416 0.0
H407 H 0.95954 0.43204 0.36369 0.0
C408 C 0.96239 0.33992 0.36975 0.0
C409 C 0.85468 0.33858 0.38137 0.0
C410 C 0.9556 0.42624 0.30581 0.0
C411 C 0.86876 0.44459 0.36658 0.0
H412 H 0.88484 0.28806 0.40953 0.0
H413 H 0.94385 0.28936 0.40432 0.0
H414 H 0.01667 0.34905 0.33714 0.0
H415 H 1.0114 0.39454 0.30055 0.0
H416 H 0.92865 0.48383 0.29586 0.0
H417 H 0.88333 0.49548 0.33118 0.0
H418 H 0.81748 0.43353 0.40323 0.0
H419 H 0.80979 0.37551 0.4112 0.0
H420 H 0.93091 0.41188 0.46459 0.0
H421 H 0.98401 0.45874 0.4014 0.0
H422 H 0.82911 0.37608 0.28404 0.0
H423 H 0.88834 0.30098 0.29206 0.0
C424 C 0.92318 0.35204 0.8417 0.0
C425 C 0.89998 0.35797 0.82248 0.0
C426 C 0.88144 0.37795 0.83601 0.0
C427 C 0.89438 0.38347 0.86254 0.0
N428 N 0.92012 0.36848 0.86626 0.0
Co429 Co 0.94589 0.37064 0.90115 0.0
N430 N 0.92703 0.40808 0.9148 0.0
C431 C 0.90036 0.41863 0.90629 0.0
C432 C 0.89445 0.44624 0.91786 0.0
C433 C 0.91898 0.45339 0.93453 0.0
C434 C 0.93854 0.42958 0.93239 0.0
N435 N 0.97139 0.37291 0.93616 0.0
C436 C 0.97902 0.39699 0.9523 0.0
C437 C 0.99794 0.38901 0.97487 0.0
C438 C 1.0025 0.35886 0.97236 0.0
C439 C 0.98606 0.35013 0.94856 0.0
N440 N 0.96568 0.33353 0.88797 0.0
C441 C 0.98154 0.31499 0.90503 0.0
C442 C 0.99172 0.29042 0.89039 0.0
C443 C 0.98131 0.29353 0.86252 0.0
C444 C 0.96534 0.32007 0.86159 0.0
N445 N 0.97498 0.39404 0.87885 0.0
C446 C 1.01084 0.41833 0.83485 0.0
C447 C 0.02234 0.39688 0.85403 0.0
C448 C 1.00406 0.38517 0.87611 0.0
C449 C 0.98218 0.42938 0.84023 0.0
C450 C 0.96472 0.41696 0.86208 0.0
N451 N 0.91544 0.34662 0.92203 0.0
C452 C 0.88029 0.30594 0.91832 0.0
C453 C 0.86297 0.31729 0.941 0.0
C454 C 0.87416 0.34235 0.95599 0.0
C455 C 0.90067 0.35652 0.94631 0.0
C456 C 0.90564 0.32096 0.90898 0.0
H457 H 0.90826 0.3763 0.95751 0.0
H458 H 0.91591 0.3124 0.8897 0.0
H459 H 1.01282 0.36769 0.88975 0.0
H460 H 0.94213 0.42473 0.86399 0.0
C461 C 0.88577 0.40576 0.88231 0.0
C462 C 0.94639 0.3292 0.83693 0.0
C463 C 0.9676 0.42723 0.94746 0.0
C464 C 0.98944 0.32326 0.93343 0.0
H465 H 0.89662 0.34877 0.80098 0.0
H466 H 0.8615 0.38802 0.8271 0.0
H467 H 0.87561 0.46048 0.91308 0.0
H468 H 0.92223 0.47406 0.94619 0.0
H469 H 1.00765 0.4035 0.99117 0.0
H470 H 0.01747 0.34535 0.98527 0.0
H471 H 1.00539 0.27255 0.89883 0.0
H472 H 0.98429 0.27745 0.84525 0.0
H473 H 0.04457 0.38798 0.85102 0.0
H474 H 0.97267 0.44671 0.82673 0.0
H475 H 0.87351 0.28609 0.90661 0.0
H476 H 0.86187 0.35177 0.97402 0.0
C477 C 0.16677 0.92283 0.83748 0.0
C478 C 0.15858 0.90161 0.81694 0.0
C479 C 0.13743 0.8837 0.82972 0.0
C480 C 0.13352 0.89506 0.85717 0.0
N481 N 0.15067 0.91919 0.86218 0.0
Co482 Co 0.15101 0.94282 0.89848 0.0
N483 N 0.11217 0.92628 0.91147 0.0
C484 C 0.09944 0.90103 0.90174 0.0
C485 C 0.07151 0.89657 0.91335 0.0
C486 C 0.0665 0.92056 0.93135 0.0
C487 C 0.0918 0.93837 0.92989 0.0
N488 N 0.1511 0.9664 0.93477 0.0
C489 C 0.12775 0.97516 0.95136 0.0
C490 C 0.13745 0.99214 0.97476 0.0
C491 C 0.16797 0.99421 0.97237 0.0
C492 C 0.17519 0.97834 0.94779 0.0
N493 N 0.18978 0.95989 0.88623 0.0
C494 C 0.20995 0.97265 0.90409 0.0
C495 C 0.23547 0.98123 0.8899 0.0
C496 C 0.23116 0.97306 0.86146 0.0
C497 C 0.20299 0.96004 0.85977 0.0
N498 N 0.13004 0.97492 0.87806 0.0
C499 C 0.10502 0.01695 0.84018 0.0
C500 C 0.12959 0.02445 0.85766 0.0
C501 C 0.14143 1.00323 0.87692 0.0
C502 C 0.09252 0.98856 0.84306 0.0
C503 C 0.10544 0.96792 0.86178 0.0
N504 N 0.17251 0.90966 0.91766 0.0
C505 C 0.21114 0.87233 0.91399 0.0
C506 C 0.20114 0.85819 0.93915 0.0
C507 C 0.17665 0.87065 0.95387 0.0
C508 C 0.16292 0.89674 0.943 0.0
C509 C 0.19647 0.89746 0.90351 0.0
H510 H 0.14419 0.90602 0.95465 0.0
H511 H 0.20425 0.90632 0.8832 0.0
H512 H 0.16047 1.00934 0.89005 0.0
H513 H 0.09618 0.94581 0.86198 0.0
C514 C 0.1108 0.88699 0.87678 0.0
C515 C 0.19128 0.94464 0.83382 0.0
C516 C 0.09657 0.9663 0.9463 0.0
C517 C 0.20241 0.97985 0.93286 0.0
H518 H 0.16698 0.89917 0.79503 0.0
H519 H 0.12552 0.86536 0.81973 0.0
H520 H 0.05573 0.87919 0.90779 0.0
H521 H 0.04627 0.9247 0.94346 0.0
H522 H 0.12388 1.00212 0.99159 0.0
H523 H 0.18284 1.00719 0.98597 0.0
H524 H 0.25469 0.99255 0.89899 0.0
H525 H 0.24734 0.97569 0.84421 0.0
H526 H 0.13968 0.04634 0.85625 0.0
H527 H 0.07365 0.9818 0.82983 0.0
H528 H 0.22972 0.86334 0.90175 0.0
H529 H 0.16825 0.8604 0.97354 0.0
C530 C 0.61251 0.17063 0.84888 0.0
C531 C 0.63814 0.16441 0.83305 0.0
C532 C 0.65481 0.14506 0.84945 0.0
C533 C 0.63862 0.14056 0.87437 0.0
N534 N 0.61262 0.1556 0.87445 0.0
Co535 Co 0.58414 0.15692 0.90738 0.0
N536 N 0.60107 0.12041 0.92518 0.0
C537 C 0.62812 0.10884 0.91965 0.0
C538 C 0.63308 0.08277 0.93456 0.0
C539 C 0.60749 0.0777 0.95035 0.0
C540 C 0.58826 0.10099 0.9441 0.0
N541 N 0.55615 0.15821 0.94075 0.0
C542 C 0.54723 0.13595 0.95875 0.0
C543 C 0.52575 0.14612 0.97809 0.0
C544 C 0.52146 0.17571 0.97211 0.0
C545 C 0.54022 0.182 0.94935 0.0
N546 N 0.56618 0.19297 0.8896 0.0
C547 C 0.54808 0.21247 0.9031 0.0
C548 C 0.53779 0.23441 0.88496 0.0
C549 C 0.55063 0.22864 0.85854 0.0
C550 C 0.56849 0.20361 0.86212 0.0
N551 N 0.55615 0.13218 0.8851 0.0
C552 C 0.52072 0.1038 0.84277 0.0
C553 C 0.50888 0.12638 0.86053 0.0
C554 C 0.52693 0.1402 0.88162 0.0
C555 C 0.55011 0.09462 0.84822 0.0
C556 C 0.56717 0.10876 0.86951 0.0
N557 N 0.61346 0.18218 0.92841 0.0
C558 C 0.65074 0.22078 0.92353 0.0
C559 C 0.66564 0.21096 0.94834 0.0
C560 C 0.65244 0.18798 0.96466 0.0
C561 C 0.62604 0.17405 0.95444 0.0
C562 C 0.62509 0.20626 0.91399 0.0
H563 H 0.61691 0.15561 0.96664 0.0
H564 H 0.61634 0.21345 0.89348 0.0
H565 H 0.51764 0.15823 0.89418 0.0
H566 H 0.58998 0.10177 0.8721 0.0
C567 C 0.64509 0.11974 0.89631 0.0
C568 C 0.59033 0.19323 0.84043 0.0
C569 C 0.55895 0.1053 0.95795 0.0
C570 C 0.53777 0.20688 0.93126 0.0
H571 H 0.64449 0.17338 0.81212 0.0
H572 H 0.67596 0.13509 0.84363 0.0
H573 H 0.65234 0.06834 0.93306 0.0
H574 H 0.6034 0.05907 0.96473 0.0
H575 H 0.51368 0.13352 0.99428 0.0
H576 H 0.50495 0.19023 0.98175 0.0
H577 H 0.52215 0.25199 0.89007 0.0
H578 H 0.54764 0.24182 0.83907 0.0
H579 H 0.4861 0.13385 0.8578 0.0
H580 H 0.56072 0.07762 0.83515 0.0
H581 H 0.66003 0.23851 0.91032 0.0
H582 H 0.66326 0.17974 0.98411 0.0
C583 C 0.35665 0.61686 0.8498 0.0
C584 C 0.36694 0.63857 0.83081 0.0
C585 C 0.39242 0.65008 0.8428 0.0
C586 C 0.39645 0.6347 0.86825 0.0
N587 N 0.37491 0.61421 0.8733 0.0
Co588 Co 0.3732 0.58566 0.90674 0.0
N589 N 0.41381 0.59797 0.92113 0.0
C590 C 0.43096 0.62029 0.91049 0.0
C591 C 0.45848 0.62226 0.92345 0.0
C592 C 0.45926 0.59939 0.94304 0.0
C593 C 0.43212 0.58461 0.94083 0.0
N594 N 0.37175 0.55689 0.94009 0.0
C595 C 0.39392 0.54721 0.95803 0.0
C596 C 0.38379 0.52477 0.97635 0.0
C597 C 0.35445 0.52019 0.96985 0.0
C598 C 0.34827 0.53968 0.94779 0.0
N599 N 0.33303 0.5726 0.89228 0.0
C600 C 0.3142 0.55328 0.9054 0.0
C601 C 0.28798 0.54891 0.89068 0.0
C602 C 0.2904 0.56611 0.86637 0.0
C603 C 0.31824 0.57981 0.86759 0.0
N604 N 0.39212 0.5549 0.88188 0.0
C605 C 0.41284 0.51708 0.83731 0.0
C606 C 0.38939 0.50818 0.85554 0.0
C607 C 0.37951 0.52733 0.87779 0.0
C608 C 0.42719 0.54398 0.84357 0.0
C609 C 0.41661 0.56231 0.86565 0.0
N610 N 0.35333 0.61775 0.93065 0.0
C611 C 0.30731 0.63845 0.95024 0.0
C612 C 0.31819 0.66767 0.94788 0.0
C613 C 0.3481 0.67089 0.93969 0.0
C614 C 0.3651 0.64599 0.9318 0.0
C615 C 0.32524 0.61408 0.94211 0.0
H616 H 0.38742 0.65062 0.92578 0.0
H617 H 0.31552 0.5926 0.94468 0.0
H618 H 0.361 0.52009 0.89078 0.0
H619 H 0.4279 0.58302 0.86837 0.0
C620 C 0.42181 0.63657 0.88604 0.0
C621 C 0.32998 0.59869 0.84438 0.0
C622 C 0.42507 0.55753 0.95733 0.0
C623 C 0.32239 0.5388 0.93097 0.0
H624 H 0.35747 0.64503 0.81012 0.0
H625 H 0.40695 0.66682 0.83346 0.0
H626 H 0.47637 0.63761 0.91831 0.0
H627 H 0.47799 0.59371 0.95682 0.0
H628 H 0.39636 0.51196 0.992 0.0
H629 H 0.3399 0.50327 0.97884 0.0
H630 H 0.26954 0.53455 0.89664 0.0
H631 H 0.27368 0.56802 0.84949 0.0
H632 H 0.37791 0.48725 0.85189 0.0
H633 H 0.44616 0.55139 0.83088 0.0
H634 H 0.28486 0.63428 0.95795 0.0
H635 H 0.35828 0.6927 0.93794 0.0
C636 C 0.91933 0.16411 0.66124 0.0
C637 C 0.89727 0.15458 0.68031 0.0
C638 C 0.88014 0.1341 0.66555 0.0
C639 C 0.89276 0.13192 0.63844 0.0
N640 N 0.91693 0.14954 0.63549 0.0
Co641 Co 0.94212 0.15232 0.6003 0.0
N642 N 0.92672 0.11417 0.58449 0.0
C643 C 0.90111 0.10072 0.59226 0.0
C644 C 0.89706 0.07391 0.57826 0.0
C645 C 0.92171 0.07042 0.56074 0.0
C646 C 0.93957 0.09527 0.56512 0.0
N647 N 0.96721 0.15488 0.56496 0.0
C648 C 0.9769 0.13281 0.54713 0.0
C649 C 0.99591 0.14422 0.52603 0.0
C650 C 0.99757 0.17438 0.53061 0.0
C651 C 0.97988 0.17979 0.55436 0.0
N652 N 0.95814 0.19041 0.61558 0.0
C653 C 0.97147 0.21173 0.59961 0.0
C654 C 0.97916 0.23633 0.61565 0.0
C655 C 0.96982 0.23018 0.64338 0.0
C656 C 0.95706 0.20189 0.64279 0.0
N657 N 0.97367 0.13067 0.62099 0.0
C658 C 1.01115 0.10871 0.66482 0.0
C659 C 0.02054 0.13223 0.64688 0.0
C660 C 1.0015 0.14274 0.62483 0.0
C661 C 0.98422 0.09445 0.65806 0.0
C662 C 0.96591 0.10572 0.63625 0.0
N663 N 0.9093 0.17446 0.58112 0.0
C664 C 0.87097 0.21197 0.58612 0.0
C665 C 0.85706 0.20259 0.56059 0.0
C666 C 0.87029 0.1792 0.54485 0.0
C667 C 0.89679 0.16578 0.55524 0.0
C668 C 0.89647 0.19754 0.59611 0.0
H669 H 0.90657 0.1478 0.54288 0.0
H670 H 0.90486 0.20454 0.61689 0.0
H671 H 1.00839 0.16188 0.61231 0.0
H672 H 0.9444 0.09545 0.63344 0.0
C673 C 0.88579 0.1104 0.61719 0.0
C674 C 0.94081 0.18839 0.66732 0.0
C675 C 0.96763 0.10132 0.54942 0.0
C676 C 0.98029 0.20594 0.57097 0.0
H677 H 0.89378 0.16165 0.70253 0.0
H678 H 0.86147 0.12148 0.67401 0.0
H679 H 0.87926 0.05795 0.58164 0.0
H680 H 0.92618 0.05168 0.54659 0.0
H681 H 1.00794 0.13224 0.5094 0.0
H682 H 1.01164 0.19012 0.51917 0.0
H683 H 0.99075 0.25611 0.60827 0.0
H684 H 0.97156 0.24525 0.66166 0.0
H685 H 0.04146 0.14362 0.65099 0.0
H686 H 0.97649 0.07555 0.67062 0.0
H687 H 0.86137 0.22966 0.59914 0.0
H688 H 0.86018 0.17129 0.52489 0.0
C689 C 0.35718 0.92722 0.6604 0.0
C690 C 0.36322 0.90375 0.67919 0.0
C691 C 0.38246 0.88499 0.66494 0.0
C692 C 0.38747 0.89807 0.63842 0.0
N693 N 0.3729 0.92411 0.63541 0.0
Co694 Co 0.37436 0.94991 0.60059 0.0
N695 N 0.411 0.93045 0.58563 0.0
C696 C 0.42145 0.90368 0.59374 0.0
C697 C 0.4487 0.89747 0.58144 0.0
C698 C 0.45575 0.92193 0.56475 0.0
C699 C 0.43224 0.94178 0.56759 0.0
N700 N 0.37585 0.97531 0.56553 0.0
C701 C 0.39957 0.98262 0.54873 0.0
C702 C 0.39114 1.0017 0.5265 0.0
C703 C 0.36112 1.00676 0.52995 0.0
C704 C 0.35289 0.99043 0.55393 0.0
N705 N 0.33825 0.9706 0.61516 0.0
C706 C 0.31951 0.98704 0.59884 0.0
C707 C 0.29574 0.99781 0.61432 0.0
C708 C 0.29953 0.98714 0.64198 0.0
C709 C 0.32566 0.97041 0.64197 0.0
N710 N 0.39933 0.97838 0.62206 0.0
C711 C 0.42842 0.01505 0.66288 0.0
C712 C 0.40634 0.02663 0.64428 0.0
C713 C 0.39219 1.00794 0.6239 0.0
C714 C 0.43659 0.98518 0.65917 0.0
C715 C 0.42209 0.9675 0.63869 0.0
N716 N 0.34874 0.91995 0.58055 0.0
C717 C 0.30729 0.88588 0.58603 0.0
C718 C 0.31773 0.86761 0.56367 0.0
C719 C 0.34268 0.87777 0.54784 0.0
C720 C 0.35771 0.90422 0.55648 0.0
C721 C 0.32307 0.91117 0.59431 0.0
H722 H 0.37744 0.91095 0.54469 0.0
H723 H 0.31514 0.92211 0.61347 0.0
H724 H 0.37463 0.01705 0.61052 0.0
H725 H 0.42832 0.94442 0.63761 0.0
C726 C 0.40903 0.88921 0.61797 0.0
C727 C 0.33478 0.95067 0.66601 0.0
C728 C 0.42989 0.97093 0.55277 0.0
C729 C 0.32678 0.99459 0.57012 0.0
H730 H 0.35451 0.90033 0.70086 0.0
H731 H 0.39237 0.86479 0.67334 0.0
H732 H 0.46284 0.87846 0.58577 0.0
H733 H 0.47616 0.92496 0.55261 0.0
H734 H 0.40528 1.01127 0.50988 0.0
H735 H 0.34745 0.02209 0.51762 0.0
H736 H 0.27788 1.01191 0.60653 0.0
H737 H 0.28404 0.99036 0.65971 0.0
H738 H 0.39958 0.04971 0.64582 0.0
H739 H 0.45304 0.97474 0.67305 0.0
H740 H 0.28761 0.87984 0.59839 0.0
H741 H 0.35141 0.86471 0.52999 0.0
C742 C 0.61587 0.35125 0.65946 0.0
C743 C 0.64036 0.35915 0.67631 0.0
C744 C 0.65204 0.38448 0.66433 0.0
C745 C 0.63425 0.39054 0.64079 0.0
N746 N 0.6119 0.37062 0.63712 0.0
Co747 Co 0.58228 0.37022 0.60457 0.0
N748 N 0.59506 0.41072 0.59064 0.0
C749 C 0.61791 0.42721 0.60121 0.0
C750 C 0.61972 0.45513 0.58924 0.0
C751 C 0.5961 0.45688 0.57046 0.0
C752 C 0.5812 0.4298 0.57202 0.0
N753 N 0.55316 0.36969 0.57149 0.0
C754 C 0.54381 0.3921 0.55381 0.0
C755 C 0.52172 0.3823 0.53482 0.0
C756 C 0.517 0.3529 0.54075 0.0
C757 C 0.53612 0.34636 0.5631 0.0
N758 N 0.56786 0.33071 0.61934 0.0
C759 C 0.54657 0.3134 0.60707 0.0
C760 C 0.53927 0.28882 0.62316 0.0
C761 C 0.55691 0.29056 0.64728 0.0
C762 C 0.57447 0.31597 0.64424 0.0
N763 N 0.55249 0.38995 0.62983 0.0
C764 C 0.5124 0.41581 0.66961 0.0
C765 C 0.50326 0.39252 0.65139 0.0
C766 C 0.52348 0.38024 0.63138 0.0
C767 C 0.54168 0.42619 0.66717 0.0
C768 C 0.56123 0.41293 0.64751 0.0
N769 N 0.61339 0.34967 0.57996 0.0
C770 C 0.63557 0.30301 0.56379 0.0
C771 C 0.6639 0.31607 0.56121 0.0
C772 C 0.66547 0.34699 0.56521 0.0
C773 C 0.64019 0.36317 0.57381 0.0
C774 C 0.6109 0.32003 0.57275 0.0
H775 H 0.64344 0.38651 0.57608 0.0
H776 H 0.59025 0.30835 0.57429 0.0
H777 H 0.51548 0.36274 0.61752 0.0
H778 H 0.58357 0.42127 0.64726 0.0
C779 C 0.63588 0.41634 0.62376 0.0
C780 C 0.59737 0.32496 0.66525 0.0
C781 C 0.55398 0.4232 0.55545 0.0
C782 C 0.53363 0.32117 0.58058 0.0
H783 H 0.64885 0.34784 0.69537 0.0
H784 H 0.67083 0.39733 0.67226 0.0
H785 H 0.63568 0.47252 0.59432 0.0
H786 H 0.59019 0.47606 0.55744 0.0
H787 H 0.50916 0.39519 0.51922 0.0
H788 H 0.49993 0.33868 0.53146 0.0
H789 H 0.52279 0.2719 0.61817 0.0
H790 H 0.55659 0.27485 0.66508 0.0
H791 H 0.48063 0.38406 0.65239 0.0
H792 H 0.54975 0.44407 0.68095 0.0
H793 H 0.63231 0.27954 0.55937 0.0
H794 H 0.68639 0.35885 0.56296 0.0
C795 C 0.1705 0.60928 0.66486 0.0
C796 C 0.16175 0.63137 0.68422 0.0
C797 C 0.14087 0.64847 0.67014 0.0
C798 C 0.13769 0.63579 0.64314 0.0
N799 N 0.15497 0.61156 0.63964 0.0
Co800 Co 0.15666 0.58665 0.60417 0.0
N801 N 0.11835 0.60259 0.58922 0.0
C802 C 0.10529 0.62811 0.59759 0.0
C803 C 0.07765 0.63181 0.58509 0.0
C804 C 0.07314 0.60701 0.56801 0.0
C805 C 0.09846 0.58951 0.57085 0.0
N806 N 0.15793 0.56186 0.56869 0.0
C807 C 0.13501 0.55213 0.55191 0.0
C808 C 0.14532 0.53411 0.52961 0.0
C809 C 0.17577 0.5323 0.53296 0.0
C810 C 0.18235 0.54937 0.55699 0.0
N811 N 0.19487 0.57003 0.61848 0.0
C812 C 0.21547 0.55637 0.60186 0.0
C813 C 0.24037 0.54823 0.61726 0.0
C814 C 0.23525 0.55769 0.64517 0.0
C815 C 0.20726 0.57106 0.64536 0.0
N816 N 0.13487 0.55515 0.62477 0.0
C817 C 0.10894 0.51407 0.66311 0.0
C818 C 0.13373 0.50614 0.64623 0.0
C819 C 0.14605 0.52687 0.62677 0.0
C820 C 0.09659 0.54238 0.65927 0.0
C821 C 0.10995 0.56255 0.64029 0.0
N822 N 0.17905 0.61929 0.58487 0.0
C823 C 0.21607 0.65802 0.59079 0.0
C824 C 0.20651 0.67247 0.56563 0.0
C825 C 0.18401 0.65863 0.54896 0.0
C826 C 0.17058 0.63187 0.55896 0.0
C827 C 0.20221 0.63196 0.59996 0.0
H828 H 0.15258 0.62212 0.54648 0.0
H829 H 0.20948 0.62323 0.62045 0.0
H830 H 0.16532 0.52043 0.61421 0.0
H831 H 0.10078 0.58465 0.63925 0.0
C832 C 0.11575 0.64307 0.62244 0.0
C833 C 0.19528 0.58825 0.67005 0.0
C834 C 0.10366 0.56081 0.55594 0.0
C835 C 0.20893 0.54821 0.57307 0.0
H836 H 0.16976 0.63502 0.70614 0.0
H837 H 0.12878 0.66727 0.67892 0.0
H838 H 0.06163 0.64922 0.58962 0.0
H839 H 0.05316 0.60215 0.5557 0.0
H840 H 0.13217 0.52315 0.51297 0.0
H841 H 0.19095 0.5186 0.52051 0.0
H842 H 0.25977 0.53643 0.60931 0.0
H843 H 0.25087 0.5558 0.66302 0.0
H844 H 0.1437 0.48429 0.64831 0.0
H845 H 0.07754 0.54949 0.67197 0.0
H846 H 0.23348 0.66764 0.60425 0.0
H847 H 0.17592 0.66904 0.52925 0.0
H848 H 0.22566 0.68981 0.08573 0.0
H849 H 0.28241 0.84312 0.1616 0.0
H850 H 0.1889 0.72251 0.16596 0.0
H851 H 0.32742 0.80245 0.08948 0.0
H852 H 0.24673 0.80114 0.1624 0.0
H853 H 0.26127 0.73149 0.08565 0.0
C854 C 0.22549 0.70513 0.10388 0.0
C855 C 0.20486 0.70114 0.12677 0.0
C856 C 0.26459 0.80108 0.14656 0.0
C857 C 0.24532 0.75106 0.12588 0.0
C858 C 0.28529 0.82504 0.14635 0.0
C859 C 0.3095 0.82587 0.12677 0.0
C860 C 0.26707 0.7776 0.12626 0.0
C861 C 0.31039 0.80247 0.10613 0.0
C862 C 0.24571 0.72948 0.10353 0.0
C863 C 0.20469 0.72379 0.1482 0.0
N864 N 0.28988 0.77958 0.10653 0.0
N865 N 0.22444 0.74733 0.14732 0.0
H866 H 0.84595 0.23096 0.16485 0.0
H867 H 0.69215 0.28665 0.08912 0.0
H868 H 0.80455 0.18485 0.09371 0.0
H869 H 0.72417 0.32264 0.17011 0.0
H870 H 0.73396 0.25117 0.08911 0.0
H871 H 0.80379 0.26642 0.16565 0.0
C872 C 0.82768 0.22789 0.14982 0.0
C873 C 0.82839 0.20357 0.13047 0.0
C874 C 0.73183 0.26662 0.10707 0.0
C875 C 0.7798 0.24533 0.1301 0.0
C876 C 0.70759 0.28688 0.10724 0.0
C877 C 0.70358 0.30747 0.13014 0.0
C878 C 0.75317 0.26686 0.1297 0.0
C879 C 0.72566 0.30708 0.15218 0.0
C880 C 0.80358 0.24833 0.15008 0.0
C881 C 0.80464 0.20202 0.11021 0.0
N882 N 0.74915 0.28736 0.15142 0.0
N883 N 0.78161 0.22228 0.11063 0.0
H884 H 0.19898 0.80011 0.41486 0.0
H885 H 0.33854 0.72042 0.3338 0.0
H886 H 0.24604 0.84057 0.3438 0.0
H887 H 0.30061 0.68734 0.41343 0.0
H888 H 0.30455 0.76344 0.33628 0.0
H889 H 0.23426 0.75818 0.41367 0.0
C890 C 0.21626 0.79999 0.39843 0.0
C891 C 0.218 0.82356 0.37812 0.0
C892 C 0.30319 0.74649 0.35293 0.0
C893 C 0.25994 0.77505 0.37722 0.0
C894 C 0.32277 0.72175 0.35159 0.0
C895 C 0.32206 0.69892 0.37272 0.0
C896 C 0.28205 0.74896 0.37551 0.0
C897 C 0.30125 0.70292 0.39554 0.0
C898 C 0.23675 0.77596 0.39796 0.0
C899 C 0.24247 0.82242 0.35878 0.0
N900 N 0.28218 0.72694 0.39613 0.0
N901 N 0.26197 0.79875 0.35856 0.0
H902 H 0.7917 0.34765 0.37628 0.0
H903 H 0.72979 0.18752 0.33841 0.0
H904 H 0.85471 0.27544 0.37263 0.0
H905 H 0.68957 0.23593 0.40897 0.0
H906 H 0.77255 0.22234 0.33999 0.0
H907 H 0.75122 0.31175 0.37663 0.0
C908 C 0.79782 0.32454 0.37742 0.0
C909 C 0.82825 0.31566 0.37847 0.0
C910 C 0.75407 0.22563 0.3548 0.0
C911 C 0.77965 0.27301 0.37493 0.0
C912 C 0.72942 0.20565 0.35397 0.0
C913 C 0.70437 0.20912 0.37245 0.0
C914 C 0.75413 0.25011 0.37401 0.0
C915 C 0.70638 0.23314 0.39242 0.0
C916 C 0.77399 0.30372 0.37673 0.0
C917 C 0.83257 0.28438 0.37511 0.0
N918 N 0.73014 0.25269 0.39225 0.0
N919 N 0.80897 0.26462 0.37347 0.0
H920 H 0.83341 0.30572 0.99354 0.0
H921 H 0.71299 0.20347 0.91321 0.0
H922 H 0.82279 0.29815 0.90056 0.0
H923 H 0.6882 0.24533 0.99393 0.0
H924 H 0.76074 0.22955 0.91469 0.0
H925 H 0.7858 0.27814 0.99971 0.0
C926 C 0.82116 0.29849 0.97449 0.0
C927 C 0.83277 0.30367 0.94647 0.0
C928 C 0.74509 0.2329 0.93232 0.0
C929 C 0.77887 0.27174 0.95343 0.0
C930 C 0.71791 0.21779 0.93161 0.0
C931 C 0.69657 0.22225 0.95343 0.0
C932 C 0.75137 0.25286 0.95506 0.0
C933 C 0.70415 0.24116 0.97675 0.0
C934 C 0.7941 0.28266 0.97805 0.0
C935 C 0.81562 0.29387 0.92263 0.0
N936 N 0.73094 0.25602 0.9769 0.0
N937 N 0.79004 0.27821 0.92668 0.0
H938 H 0.25787 0.67431 0.93627 0.0
H939 H 0.25958 0.85105 0.95416 0.0
H940 H 0.33347 0.7231 0.97013 0.0
H941 H 0.17786 0.80154 0.94356 0.0
H942 H 0.28666 0.8042 0.96081 0.0
H943 H 0.22786 0.71971 0.93957 0.0
C944 C 0.26819 0.69432 0.9448 0.0
C945 C 0.29862 0.69455 0.95262 0.0
C946 C 0.26274 0.80346 0.9575 0.0
C947 C 0.26415 0.74719 0.95586 0.0
C948 C 0.24725 0.83026 0.95384 0.0
C949 C 0.21636 0.83024 0.94862 0.0
C950 C 0.24746 0.77615 0.95527 0.0
C951 C 0.20159 0.80259 0.94796 0.0
C952 C 0.25096 0.72039 0.9465 0.0
C953 C 0.31047 0.72164 0.96309 0.0
N954 N 0.21729 0.77667 0.95084 0.0
N955 N 0.29339 0.74672 0.96411 0.0
H956 H 0.71614 0.33226 0.53255 0.0
H957 H 0.80132 0.17721 0.55875 0.0
H958 H 0.67565 0.25755 0.57679 0.0
H959 H 0.84695 0.26067 0.5459 0.0
H960 H 0.7532 0.20347 0.55521 0.0
H961 H 0.76218 0.30368 0.52795 0.0
C962 C 0.71669 0.30994 0.54138 0.0
C963 C 0.69155 0.29775 0.55549 0.0
C964 C 0.77374 0.21595 0.55266 0.0
C965 C 0.74468 0.26433 0.54939 0.0
C966 C 0.80117 0.20091 0.55433 0.0
C967 C 0.82816 0.21673 0.55226 0.0
C968 C 0.77325 0.24703 0.54859 0.0
C969 C 0.82667 0.24759 0.54731 0.0
C970 C 0.74311 0.29351 0.5385 0.0
C971 C 0.69398 0.26812 0.56548 0.0
N972 N 0.79979 0.26169 0.54566 0.0
N973 N 0.71994 0.25257 0.56231 0.0
H974 H 0.20428 0.71979 0.60175 0.0
H975 H 0.30254 0.83696 0.5125 0.0
H976 H 0.23696 0.6946 0.5172 0.0
H977 H 0.30044 0.82889 0.60594 0.0
H978 H 0.27363 0.78987 0.50896 0.0
H979 H 0.23155 0.76659 0.59823 0.0
C980 C 0.21689 0.72436 0.58216 0.0
C981 C 0.21845 0.70308 0.55985 0.0
C982 C 0.27967 0.79856 0.53014 0.0
C983 C 0.25043 0.75701 0.55576 0.0
C984 C 0.29627 0.82533 0.53219 0.0
C985 C 0.30342 0.83751 0.5596 0.0
C986 C 0.26999 0.78416 0.55568 0.0
C987 C 0.29475 0.82119 0.58432 0.0
C988 C 0.23269 0.75105 0.58024 0.0
C989 C 0.23508 0.71042 0.53487 0.0
N990 N 0.27836 0.79587 0.58174 0.0
N991 N 0.25067 0.73674 0.53354 0.0
H992 H 0.98536 0.47483 0.32802 0.0
H993 H 0.07083 0.51812 0.17923 0.0
H994 H 0.97714 0.42357 0.24933 0.0
H995 H 0.07869 0.56896 0.25823 0.0
H996 H 0.03773 0.48278 0.20444 0.0
H997 H 0.02027 0.50861 0.30324 0.0
C998 C 0.99095 0.47067 0.30548 0.0
C999 C 0.97803 0.44636 0.29073 0.0
C1000 C 0.04678 0.50152 0.2164 0.0
C1001 C 0.01843 0.4852 0.26191 0.0
C1002 C 0.06586 0.52167 0.20201 0.0
C1003 C 0.07801 0.54643 0.21668 0.0
C1004 C 0.0394 0.50603 0.24585 0.0
C1005 C 0.07016 0.5501 0.24608 0.0
C1006 C 1.01095 0.49 0.29128 0.0
C1007 C 0.98639 0.44202 0.26156 0.0
N1008 N 0.05149 0.53026 0.2596 0.0
N1009 N 1.00587 0.46119 0.24816 0.0
H1010 H 0.95754 0.08261 0.2639 0.0
H1011 H 0.10699 0.9818 0.26218 0.0
H1012 H 1.01316 0.07229 0.18837 0.0
H1013 H 0.05027 0.9905 0.33712 0.0
H1014 H 0.07429 0.01635 0.23548 0.0
H1015 H 0.99201 0.05066 0.29154 0.0
C1016 C 0.97722 0.07391 0.25323 0.0
C1017 C 0.98261 0.08062 0.22384 0.0
C1018 C 0.06896 1.01084 0.25779 0.0
C1019 C 0.02231 0.04342 0.25537 0.0
C1020 C 0.08773 0.99113 0.27307 0.0
C1021 C 0.08141 0.98311 0.30196 0.0
C1022 C 0.04348 0.02286 0.27137 0.0
C1023 C 0.056 0.99593 0.31489 0.0
C1024 C 0.9969 0.05553 0.26899 0.0
C1025 C 1.00831 0.06821 0.21107 0.0
N1026 N 0.03806 0.01496 0.29958 0.0
N1027 N 0.02705 0.05034 0.2268 0.0
H1028 H 0.54978 0.10644 0.24291 0.0
H1029 H 0.45326 0.95376 0.24489 0.0
H1030 H 0.54774 0.04602 0.31547 0.0
H1031 H 0.45228 0.01468 0.17273 0.0
H1032 H 0.48737 0.98749 0.27097 0.0
H1033 H 0.51403 0.07398 0.21698 0.0
C1034 C 0.54185 0.08633 0.25338 0.0
C1035 C 0.55217 0.07888 0.28135 0.0
C1036 C 0.47966 0.99368 0.24949 0.0
C1037 C 0.51088 0.04134 0.25171 0.0
C1038 C 0.46008 0.97437 0.23459 0.0
C1039 C 0.44964 0.98134 0.20656 0.0
C1040 C 0.48926 0.02044 0.23642 0.0
C1041 C 0.45949 1.00841 0.19434 0.0
C1042 C 0.52139 0.06774 0.23856 0.0
C1043 C 0.54079 0.05255 0.29384 0.0
N1044 N 0.47867 0.0268 0.20921 0.0
N1045 N 0.52102 0.03486 0.27902 0.0
H1046 H 0.54006 0.47839 0.16592 0.0
H1047 H 0.45586 0.51703 0.3165 0.0
H1048 H 0.54448 0.4225 0.24174 0.0
H1049 H 0.44653 0.57 0.23909 0.0
H1050 H 0.48798 0.48229 0.28961 0.0
H1051 H 0.50584 0.51193 0.19195 0.0
C1052 C 0.5337 0.47311 0.18804 0.0
C1053 C 0.54525 0.44753 0.20162 0.0
C1054 C 0.47881 0.50136 0.27835 0.0
C1055 C 0.50591 0.48611 0.2319 0.0
C1056 C 0.4603 0.52117 0.29371 0.0
C1057 C 0.44799 0.54633 0.27998 0.0
C1058 C 0.48555 0.50664 0.24888 0.0
C1059 C 0.45521 0.55081 0.25052 0.0
C1060 C 0.51415 0.49231 0.20296 0.0
C1061 C 0.53615 0.44188 0.23037 0.0
N1062 N 0.47341 0.5313 0.23606 0.0
N1063 N 0.51723 0.46095 0.24449 0.0
H1064 H 0.13881 0.48492 0.70679 0.0
H1065 H 0.98775 0.42636 0.78057 0.0
H1066 H 0.0507 0.49849 0.67152 0.0
H1067 H 0.07098 0.43135 0.82767 0.0
H1068 H 1.01272 0.44531 0.73748 0.0
H1069 H 0.11656 0.45777 0.74793 0.0
C1070 C 0.11485 0.48167 0.70744 0.0
C1071 C 0.09652 0.49399 0.68577 0.0
C1072 C 0.02563 0.44229 0.75718 0.0
C1073 C 0.071 0.46325 0.73269 0.0
C1074 C 1.01132 0.43161 0.78194 0.0
C1075 C 0.02709 0.4279 0.80812 0.0
C1076 C 0.05614 0.4493 0.75825 0.0
C1077 C 0.05788 0.43405 0.80807 0.0
C1078 C 0.10217 0.46644 0.73101 0.0
C1079 C 0.06561 0.48951 0.68784 0.0
N1080 N 0.07138 0.44469 0.78357 0.0
N1081 N 0.05387 0.47461 0.71085 0.0
H1082 H 0.0473 0.0342 0.8331 0.0
H1083 H 0.07193 0.10117 0.67365 0.0
H1084 H 0.13485 0.04524 0.79591 0.0
H1085 H 0.98728 0.09786 0.71814 0.0
H1086 H 0.09655 0.08398 0.71853 0.0
H1087 H 0.0259 0.06094 0.79192 0.0
C1088 C 0.06205 0.04271 0.81638 0.0
C1089 C 0.09284 0.03752 0.81788 0.0
C1090 C 0.07261 0.0872 0.71843 0.0
C1091 C 0.06847 0.06769 0.77009 0.0
C1092 C 0.05858 0.09705 0.69285 0.0
C1093 C 0.02741 0.10034 0.69191 0.0
C1094 C 0.05531 0.08079 0.7432 0.0
C1095 C 1.01124 0.09482 0.71751 0.0
C1096 C 0.04985 0.05791 0.79278 0.0
C1097 C 0.11099 0.049 0.79563 0.0
N1098 N 0.02529 0.08517 0.74188 0.0
N1099 N 0.0985 0.06322 0.77241 0.0
H1100 H 0.52307 0.04671 0.82076 0.0
H1101 H 0.40192 0.05837 0.69718 0.0
H1102 H 0.47916 0.13116 0.80695 0.0
H1103 H 0.48552 1.01225 0.68491 0.0
H1104 H 0.42263 0.08152 0.74128 0.0
H1105 H 0.50087 0.0282 0.7759 0.0
C1106 C 0.50884 0.06149 0.80841 0.0
C1107 C 0.50368 0.09092 0.81763 0.0
C1108 C 0.43633 0.06642 0.7287 0.0
C1109 C 0.47729 0.06918 0.76638 0.0
C1110 C 0.42468 0.05335 0.70337 0.0
C1111 C 0.44172 0.03277 0.68732 0.0
C1112 C 0.46493 0.05839 0.73833 0.0
C1113 C 0.47102 0.02708 0.69687 0.0
C1114 C 0.49607 0.05077 0.78279 0.0
C1115 C 0.48384 0.10834 0.80097 0.0
N1116 N 0.48144 0.03938 0.7219 0.0
N1117 N 0.47137 0.09722 0.77614 0.0
H1118 H 0.50016 0.47466 0.67683 0.0
H1119 H 0.42045 0.45612 0.83101 0.0
H1120 H 0.47924 0.38825 0.71221 0.0
H1121 H 0.42568 0.53875 0.78343 0.0
H1122 H 0.44031 0.4299 0.78814 0.0
H1123 H 0.47177 0.4979 0.71594 0.0
C1124 C 0.48929 0.46058 0.69277 0.0
C1125 C 0.49209 0.42953 0.69134 0.0
C1126 C 0.43686 0.45374 0.7871 0.0
C1127 C 0.45977 0.45598 0.73667 0.0
C1128 C 0.42545 0.46868 0.81152 0.0
C1129 C 0.42194 0.49978 0.81107 0.0
C1130 C 0.44477 0.47006 0.76213 0.0
C1131 C 0.42877 0.5149 0.78515 0.0
C1132 C 0.47304 0.47383 0.71513 0.0
C1133 C 0.47745 0.41229 0.71249 0.0
N1134 N 0.44004 0.49999 0.76198 0.0
N1135 N 0.46221 0.42576 0.73454 0.0
H1136 H 0.18843 0.68998 0.27918 0.0
H1137 H 0.2358 0.836 0.29686 0.0
H1138 H 0.23243 0.69598 0.19618 0.0
H1139 H 0.17843 0.83249 0.22188 0.0
H1140 H 0.25024 0.78446 0.28831 0.0
H1141 H 0.20389 0.74128 0.2898 0.0
C1142 C 0.20253 0.70168 0.26382 0.0
C1143 C 0.20884 0.68923 0.23663 0.0
C1144 C 0.2358 0.79549 0.27286 0.0
C1145 C 0.22493 0.74768 0.24782 0.0
C1146 C 0.22748 0.82483 0.27776 0.0
C1147 C 0.20537 0.83805 0.26055 0.0
C1148 C 0.22341 0.78013 0.24932 0.0
C1149 C 0.19537 0.82285 0.23577 0.0
C1150 C 0.21109 0.7309 0.26972 0.0
C1151 C 0.22684 0.70526 0.2172 0.0
N1152 N 0.20432 0.79438 0.23097 0.0
N1153 N 0.23306 0.73437 0.22251 0.0
H1154 H 0.84432 0.23967 0.2124 0.0
H1155 H 0.69774 0.19238 0.22157 0.0
H1156 H 0.83658 0.17809 0.28375 0.0
H1157 H 0.69975 0.23192 0.30687 0.0
H1158 H 0.74951 0.20861 0.21405 0.0
H1159 H 0.79283 0.25558 0.22078 0.0
C1160 C 0.83224 0.23037 0.23053 0.0
C1161 C 0.84386 0.20629 0.24629 0.0
C1162 C 0.73816 0.21468 0.23398 0.0
C1163 C 0.78643 0.22595 0.25734 0.0
C1164 C 0.70869 0.20569 0.23811 0.0
C1165 C 0.69492 0.21066 0.26495 0.0
C1166 C 0.75389 0.22735 0.25733 0.0
C1167 C 0.71004 0.22747 0.28604 0.0
C1168 C 0.80303 0.23963 0.23536 0.0
C1169 C 0.82795 0.19609 0.27056 0.0
N1170 N 0.73939 0.23385 0.28244 0.0
N1171 N 0.79961 0.20561 0.27506 0.0
H1172 H 0.29191 0.68821 0.30246 0.0
H1173 H 0.35139 0.8276 0.28068 0.0
H1174 H 0.33776 0.68903 0.22015 0.0
H1175 H 0.29115 0.83199 0.20788 0.0
H1176 H 0.33333 0.777 0.29081 0.0
H1177 H 0.27797 0.74023 0.29496 0.0
C1178 C 0.2975 0.69882 0.28201 0.0
C1179 C 0.31658 0.68482 0.26213 0.0
C1180 C 0.32336 0.78959 0.27322 0.0
C1181 C 0.30079 0.74365 0.25365 0.0
C1182 C 0.33359 0.81832 0.26751 0.0
C1183 C 0.32302 0.83361 0.24307 0.0
C1184 C 0.30336 0.77604 0.25376 0.0
C1185 C 0.30015 0.82058 0.22648 0.0
C1186 C 0.2899 0.72855 0.27802 0.0
C1187 C 0.32334 0.69941 0.23607 0.0
N1188 N 0.29204 0.79188 0.23121 0.0
N1189 N 0.31603 0.72851 0.23283 0.0
H1190 H 0.68255 0.33981 0.28814 0.0
H1191 H 0.82671 0.29563 0.31707 0.0
H1192 H 0.69287 0.29224 0.20739 0.0
H1193 H 0.8296 0.33598 0.2323 0.0
H1194 H 0.77456 0.28126 0.30853 0.0
H1195 H 0.7325 0.32328 0.30286 0.0
C1196 C 0.69482 0.32471 0.27421 0.0
C1197 C 0.68401 0.31739 0.24657 0.0
C1198 C 0.78709 0.29218 0.29145 0.0
C1199 C 0.74096 0.30011 0.26228 0.0
C1200 C 0.81674 0.30007 0.29614 0.0
C1201 C 0.83199 0.31719 0.27546 0.0
C1202 C 0.77334 0.30069 0.26545 0.0
C1203 C 0.81836 0.32278 0.24867 0.0
C1204 C 0.72324 0.31545 0.28246 0.0
C1205 C 0.70075 0.2983 0.22886 0.0
N1206 N 0.78947 0.3148 0.2445 0.0
N1207 N 0.72913 0.29142 0.23642 0.0
H1208 H 0.89329 0.2175 0.69172 0.0
H1209 H 0.99013 0.31776 0.79705 0.0
H1210 H 0.9869 0.19994 0.70461 0.0
H1211 H 0.89986 0.29371 0.81941 0.0
H1212 H 0.98876 0.28096 0.75732 0.0
H1213 H 0.89417 0.25115 0.73377 0.0
C1214 C 0.91383 0.22011 0.70392 0.0
C1215 C 0.93989 0.2053 0.69525 0.0
C1216 C 0.96921 0.28397 0.77083 0.0
C1217 C 0.94144 0.24508 0.74212 0.0
C1218 C 0.9699 0.30507 0.79323 0.0
C1219 C 0.94486 0.30919 0.81104 0.0
C1220 C 0.94312 0.26728 0.76595 0.0
C1221 C 0.91935 0.29179 0.80564 0.0
C1222 C 0.91439 0.23956 0.72765 0.0
C1223 C 0.96624 0.21056 0.711 0.0
N1224 N 0.91901 0.27181 0.7834 0.0
N1225 N 0.96647 0.23033 0.73347 0.0
H1226 H 0.29888 0.90398 0.68178 0.0
H1227 H 0.20454 0.99223 0.79914 0.0
H1228 H 0.32358 0.99302 0.70753 0.0
H1229 H 0.22203 0.89841 0.80892 0.0
H1230 H 0.24041 0.99384 0.75862 0.0
H1231 H 0.26321 0.90204 0.72219 0.0
C1232 C 0.29715 0.92291 0.69631 0.0
C1233 C 0.31475 0.94842 0.69187 0.0
C1234 C 0.23604 0.97287 0.76946 0.0
C1235 C 0.27292 0.94691 0.73703 0.0
C1236 C 0.21546 0.97189 0.7923 0.0
C1237 C 0.20982 0.94502 0.80688 0.0
C1238 C 0.25068 0.94669 0.76088 0.0
C1239 C 0.22504 0.91938 0.79768 0.0
C1240 C 0.27665 0.92188 0.71913 0.0
C1241 C 0.31076 0.97279 0.71059 0.0
N1242 N 0.24459 0.92078 0.77511 0.0
N1243 N 0.29005 0.97157 0.73223 0.0
H1244 H 0.58538 0.17707 0.78315 0.0
H1245 H 0.59019 0.34131 0.72205 0.0
H1246 H 0.60866 0.25125 0.83822 0.0
H1247 H 0.61564 0.26684 0.66847 0.0
H1248 H 0.59271 0.30893 0.76508 0.0
H1249 H 0.59196 0.2093 0.74027 0.0
C1250 C 0.59193 0.20012 0.78611 0.0
C1251 C 0.59588 0.21179 0.81411 0.0
C1252 C 0.59802 0.29976 0.74392 0.0
C1253 C 0.60314 0.24865 0.7656 0.0
C1254 C 0.59665 0.31821 0.71948 0.0
C1255 C 0.60239 0.30655 0.69179 0.0
C1256 C 0.60462 0.26936 0.74051 0.0
C1257 C 0.6107 0.27649 0.6895 0.0
C1258 C 0.59576 0.21843 0.76176 0.0
C1259 C 0.60477 0.24167 0.81693 0.0
N1260 N 0.61104 0.25875 0.71347 0.0
N1261 N 0.60762 0.25923 0.79302 0.0
H1262 H 0.30071 0.64581 0.81916 0.0
H1263 H 0.20844 0.54471 0.70944 0.0
H1264 H 0.32074 0.55286 0.80662 0.0
H1265 H 0.22598 0.63702 0.69018 0.0
H1266 H 0.24341 0.54789 0.75063 0.0
H1267 H 0.26791 0.64413 0.77621 0.0
C1268 C 0.29868 0.62526 0.80695 0.0
C1269 C 0.31372 0.59954 0.81608 0.0
C1270 C 0.23936 0.5675 0.7375 0.0
C1271 C 0.27535 0.59709 0.76805 0.0
C1272 C 0.21929 0.56574 0.71426 0.0
C1273 C 0.21392 0.59078 0.69686 0.0
C1274 C 0.25384 0.59461 0.7436 0.0
C1275 C 0.22895 0.61742 0.70357 0.0
C1276 C 0.27981 0.62423 0.78269 0.0
C1277 C 0.30968 0.57321 0.80005 0.0
N1278 N 0.24805 0.61873 0.72657 0.0
N1279 N 0.29059 0.57254 0.77705 0.0
H1280 H 0.10331 0.54667 0.01964 0.0
H1281 H 0.94688 0.46287 0.99192 0.0
H1282 H 0.02271 0.56429 0.06762 0.0
H1283 H 0.02384 0.44893 0.93768 0.0
H1284 H 0.97397 0.50221 0.01788 0.0
H1285 H 0.0746 0.51367 0.987 0.0
C1286 C 0.07951 0.54414 0.02294 0.0
C1287 C 0.06552 0.55821 0.04658 0.0
C1288 C 0.98491 0.49093 1.00003 0.0
C1289 C 0.03252 0.51999 0.00965 0.0
C1290 C 0.96925 0.46863 0.98499 0.0
C1291 C 0.98277 0.45318 0.962 0.0
C1292 C 0.01466 0.49765 0.9925 0.0
C1293 C 1.0124 0.46067 0.95495 0.0
C1294 C 0.06314 0.52506 0.00447 0.0
C1295 C 0.03459 0.55372 0.04993 0.0
N1296 N 0.02735 0.48224 0.97012 0.0
N1297 N 0.01933 0.53495 0.03198 0.0
H1298 H 0.07853 0.02393 0.93842 0.0
H1299 H 0.96328 0.02156 0.07236 0.0
H1300 H 0.05995 0.94652 0.99056 0.0
H1301 H 0.98241 0.10127 0.02365 0.0
H1302 H 0.99495 0.99316 0.03931 0.0
H1303 H 0.041 0.05197 0.96629 0.0
C1304 C 0.06617 1.01272 0.95544 0.0
C1305 C 0.07187 0.9826 0.96165 0.0
C1306 C 0.99211 0.01679 0.03554 0.0
C1307 C 0.02908 0.01469 0.99406 0.0
C1308 C 0.97386 0.03307 0.0544 0.0
C1309 C 0.97015 0.06398 0.05094 0.0
C1310 C 1.00721 0.03132 0.01283 0.0
C1311 C 0.98441 0.07751 0.02711 0.0
C1312 C 0.0448 0.02875 0.9714 0.0
C1313 C 0.05568 0.96937 0.98438 0.0
N1314 N 1.00251 0.0612 0.00918 0.0
N1315 N 0.03515 0.98544 0.99967 0.0
H1316 H 0.46238 0.94655 0.01974 0.0
H1317 H 0.55304 0.101 0.01728 0.0
H1318 H 0.45287 0.01462 0.08518 0.0
H1319 H 0.5322 0.05386 0.93826 0.0
H1320 H 0.52411 0.06413 0.04486 0.0
H1321 H 0.49495 0.98043 0.99178 0.0
C1322 C 0.46722 0.96852 0.0283 0.0
C1323 C 0.4546 0.97778 0.05479 0.0
C1324 C 0.52589 0.06174 0.0215 0.0
C1325 C 0.4923 0.01647 0.02315 0.0
C1326 C 0.54243 0.08277 0.00576 0.0
C1327 C 0.54439 0.08092 0.97534 0.0
C1328 C 0.5117 0.03807 0.00691 0.0
C1329 C 0.5309 0.05632 0.96164 0.0
C1330 C 0.48572 0.98787 0.01228 0.0
C1331 C 0.46171 1.00659 0.06474 0.0
N1332 N 0.51504 0.03592 0.97746 0.0
N1333 N 0.4801 0.02471 0.04909 0.0
H1334 H 0.47531 0.53007 0.93606 0.0
H1335 H 0.51421 0.44478 0.08276 0.0
H1336 H 0.42988 0.54866 0.01647 0.0
H1337 H 0.58295 0.46327 0.01982 0.0
H1338 H 0.48006 0.47722 0.05574 0.0
H1339 H 0.51267 0.50092 0.96327 0.0
C1340 C 0.47325 0.52805 0.95944 0.0
C1341 C 0.44906 0.54129 0.97393 0.0
C1342 C 0.50262 0.47423 0.04782 0.0
C1343 C 0.49142 0.50764 0.00513 0.0
C1344 C 0.52208 0.45556 0.06313 0.0
C1345 C 0.5515 0.45117 0.05351 0.0
C1346 C 0.51225 0.48828 0.0222 0.0
C1347 C 0.56051 0.46604 0.02805 0.0
C1348 C 0.49454 0.51144 0.97493 0.0
C1349 C 0.4477 0.53823 0.00432 0.0
N1350 N 0.54089 0.48364 0.0131 0.0
N1351 N 0.4682 0.52139 0.01879 0.0
H1352 H 0.06634 0.94389 0.48782 0.0
H1353 H 0.97248 0.09573 0.48995 0.0
H1354 H 0.07574 1.01212 0.4226 0.0
H1355 H 0.99702 0.05165 0.56953 0.0
H1356 H 1.00228 0.05947 0.46257 0.0
H1357 H 0.03362 0.97751 0.51586 0.0
C1358 C 0.06143 0.96584 0.47933 0.0
C1359 C 0.07405 0.97523 0.45287 0.0
C1360 C 1.00116 0.05767 0.48603 0.0
C1361 C 0.03614 0.01358 0.48457 0.0
C1362 C 0.98421 0.07841 0.50167 0.0
C1363 C 0.98305 0.07733 0.53217 0.0
C1364 C 0.01649 0.03493 0.50079 0.0
C1365 C 0.99773 0.05361 0.54608 0.0
C1366 C 0.04286 0.98504 0.49539 0.0
C1367 C 0.06686 1.004 0.44301 0.0
N1368 N 1.0139 0.03342 0.53035 0.0
N1369 N 0.04833 0.02195 0.45866 0.0
H1370 H 0.54838 0.10709 0.47966 0.0
H1371 H 0.46509 0.9505 0.50769 0.0
H1372 H 0.56541 0.02687 0.43097 0.0
H1373 H 0.45171 0.02712 0.56244 0.0
H1374 H 0.50389 0.97782 0.48122 0.0
H1375 H 0.51562 0.07828 0.51235 0.0
C1376 C 0.54574 0.08337 0.47615 0.0
C1377 C 0.55962 0.06954 0.45229 0.0
C1378 C 0.49285 0.98864 0.49929 0.0
C1379 C 0.52164 0.03638 0.48939 0.0
C1380 C 0.47087 0.97283 0.51465 0.0
C1381 C 0.4557 0.98617 0.53794 0.0
C1382 C 0.49957 0.01837 0.5068 0.0
C1383 C 0.46321 0.01579 0.54495 0.0
C1384 C 0.52679 0.06693 0.49468 0.0
C1385 C 0.55497 0.03868 0.44877 0.0
N1386 N 0.48447 0.03087 0.52949 0.0
N1387 N 0.53635 0.02336 0.46681 0.0
H1388 H 0.55089 0.428 0.49621 0.0
H1389 H 0.4604 0.58029 0.48375 0.0
H1390 H 0.52303 0.47265 0.57445 0.0
H1391 H 0.45106 0.50712 0.42351 0.0
H1392 H 0.4886 0.54698 0.51667 0.0
H1393 H 0.52189 0.46367 0.46749 0.0
C1394 C 0.53872 0.44545 0.50731 0.0
C1395 C 0.53879 0.44694 0.53776 0.0
C1396 C 0.4802 0.53838 0.49624 0.0
C1397 C 0.50588 0.48841 0.50495 0.0
C1398 C 0.46393 0.55731 0.47752 0.0
C1399 C 0.45379 0.54686 0.45036 0.0
C1400 C 0.48666 0.509 0.48751 0.0
C1401 C 0.45915 0.5167 0.44365 0.0
C1402 C 0.5221 0.46577 0.49095 0.0
C1403 C 0.52319 0.47051 0.55101 0.0
N1404 N 0.47545 0.49917 0.46173 0.0
N1405 N 0.50729 0.49034 0.53455 0.0
H1406 H 0.96545 0.4985 0.43749 0.0
H1407 H 0.0867 0.50321 0.56669 0.0
H1408 H 0.99003 0.42022 0.48596 0.0
H1409 H 0.06637 0.5774 0.51089 0.0
H1410 H 0.04875 0.47325 0.54103 0.0
H1411 H 0.99824 0.52846 0.46828 0.0
C1412 C 0.97746 0.48764 0.45497 0.0
C1413 C 0.97492 0.45667 0.45899 0.0
C1414 C 0.05229 0.49619 0.53463 0.0
C1415 C 1.01332 0.49115 0.49448 0.0
C1416 C 0.07392 0.51331 0.5493 0.0
C1417 C 0.07919 0.54314 0.54148 0.0
C1418 C 0.03583 0.50886 0.5117 0.0
C1419 C 0.06242 0.55488 0.51837 0.0
C1420 C 0.99638 0.50481 0.47251 0.0
C1421 C 0.99106 0.44399 0.48213 0.0
N1422 N 0.0416 0.53781 0.50442 0.0
N1423 N 1.00975 0.46119 0.49879 0.0
loop_
_geom_bond_atom_site_label_1
_geom_bond_atom_site_label_2
_geom_bond_distance
_geom_bond_site_symmetry_2
_ccdc_geom_bond_type
C0 C1 1.443 . S
C0 N4 1.376 . S
C0 C38 1.389 . S
C1 C0 1.443 . S
C1 C2 1.340 . S
C1 H41 0.951 . S
C2 C1 1.340 . S
C2 C3 1.439 . S
C2 H42 0.950 . S
C3 C2 1.439 . S
C3 N4 1.374 . S
C3 C37 1.395 . S
N4 C0 1.376 . S
N4 C3 1.374 . S
N4 Co5 2.008 . S
Co5 N4 2.008 . S
Co5 N6 1.995 . S
Co5 N11 2.008 . S
Co5 N16 1.995 . S
Co5 N21 2.282 . S
Co5 N27 2.282 . S
N6 Co5 1.995 . S
N6 C7 1.376 . S
N6 C10 1.383 . S
C7 N6 1.376 . S
C7 C8 1.446 . S
C7 C37 1.391 . S
C8 C7 1.446 . S
C8 C9 1.339 . S
C8 H43 0.949 . S
C9 C8 1.339 . S
C9 C10 1.439 . S
C9 H44 0.950 . S
C10 N6 1.383 . S
C10 C9 1.439 . S
C10 C39 1.392 . S
N11 Co5 2.008 . S
N11 C12 1.376 . S
N11 C15 1.374 . S
C12 N11 1.376 . S
C12 C13 1.443 . S
C12 C39 1.389 . S
C13 C12 1.443 . S
C13 C14 1.340 . S
C13 H45 0.951 . S
C14 C13 1.340 . S
C14 C15 1.439 . S
C14 H46 0.950 . S
C15 N11 1.374 . S
C15 C14 1.439 . S
C15 C40 1.395 . S
N16 Co5 1.995 . S
N16 C17 1.376 . S
N16 C20 1.383 . S
C17 N16 1.376 . S
C17 C18 1.446 . S
C17 C40 1.391 . S
C18 C17 1.446 . S
C18 C19 1.339 . S
C18 H47 0.949 . S
C19 C18 1.339 . S
C19 C20 1.439 . S
C19 H48 0.950 . S
C20 N16 1.383 . S
C20 C19 1.439 . S
C20 C38 1.392 . S
N21 Co5 2.282 . S
N21 C24 1.332 . S
N21 C26 1.332 . S
C22 C23 1.386 . S
C22 C25 1.388 . S
C23 C22 1.386 . S
C23 C24 1.382 . S
C23 H49 0.950 . S
C24 N21 1.332 . S
C24 C23 1.382 . S
C24 H35 0.952 . S
C25 C22 1.388 . S
C25 C26 1.382 . S
C25 H50 0.950 . S
C26 N21 1.332 . S
C26 C25 1.382 . S
C26 H36 0.948 . S
N27 Co5 2.282 . S
N27 C31 1.332 . S
N27 C32 1.332 . S
C28 C29 1.388 . S
C28 C32 1.382 . S
C28 H51 0.950 . S
C29 C28 1.388 . S
C29 C30 1.386 . S
C30 C29 1.386 . S
C30 C31 1.382 . S
C30 H52 0.950 . S
C31 N27 1.332 . S
C31 C30 1.382 . S
C31 H33 0.952 . S
C32 N27 1.332 . S
C32 C28 1.382 . S
C32 H34 0.948 . S
H33 C31 0.952 . S
H34 C32 0.948 . S
H35 C24 0.952 . S
H36 C26 0.948 . S
C37 C3 1.395 . S
C37 C7 1.391 . S
C38 C0 1.389 . S
C38 C20 1.392 . S
C39 C10 1.392 . S
C39 C12 1.389 . S
C40 C15 1.395 . S
C40 C17 1.391 . S
H41 C1 0.951 . S
H42 C2 0.950 . S
H43 C8 0.949 . S
H44 C9 0.950 . S
H45 C13 0.951 . S
H46 C14 0.950 . S
H47 C18 0.949 . S
H48 C19 0.950 . S
H49 C23 0.950 . S
H50 C25 0.950 . S
H51 C28 0.950 . S
H52 C30 0.950 . S
C53 C54 1.443 . S
C53 N57 1.376 . S
C53 C91 1.389 . S
C54 C53 1.443 . S
C54 C55 1.340 . S
C54 H94 0.951 . S
C55 C54 1.340 . S
C55 C56 1.439 . S
C55 H95 0.950 . S
C56 C55 1.439 . S
C56 N57 1.374 . S
C56 C90 1.395 . S
N57 C53 1.376 . S
N57 C56 1.374 . S
N57 Co58 2.008 . S
Co58 N57 2.008 . S
Co58 N59 1.995 . S
Co58 N64 2.008 . S
Co58 N69 1.995 . S
Co58 N74 2.282 . S
Co58 N80 2.282 . S
N59 Co58 1.995 . S
N59 C60 1.376 . S
N59 C63 1.383 . S
C60 N59 1.376 . S
C60 C61 1.446 . S
C60 C90 1.391 . S
C61 C60 1.446 . S
C61 C62 1.339 . S
C61 H96 0.949 . S
C62 C61 1.339 . S
C62 C63 1.439 . S
C62 H97 0.950 . S
C63 N59 1.383 . S
C63 C62 1.439 . S
C63 C92 1.392 . S
N64 Co58 2.008 . S
N64 C65 1.376 . S
N64 C68 1.374 . S
C65 N64 1.376 . S
C65 C66 1.443 . S
C65 C92 1.389 . S
C66 C65 1.443 . S
C66 C67 1.340 . S
C66 H98 0.951 . S
C67 C66 1.340 . S
C67 C68 1.439 . S
C67 H99 0.950 . S
C68 N64 1.374 . S
C68 C67 1.439 . S
C68 C93 1.395 . S
N69 Co58 1.995 . S
N69 C70 1.376 . S
N69 C73 1.383 . S
C70 N69 1.376 . S
C70 C71 1.446 . S
C70 C93 1.391 . S
C71 C70 1.446 . S
C71 C72 1.339 . S
C71 H100 0.949 . S
C72 C71 1.339 . S
C72 C73 1.439 . S
C72 H101 0.950 . S
C73 N69 1.383 . S
C73 C72 1.439 . S
C73 C91 1.392 . S
N74 Co58 2.282 . S
N74 C77 1.332 . S
N74 C79 1.332 . S
C75 C76 1.386 . S
C75 C78 1.388 . S
C76 C75 1.386 . S
C76 C77 1.382 . S
C76 H102 0.950 . S
C77 N74 1.332 . S
C77 C76 1.382 . S
C77 H88 0.952 . S
C78 C75 1.388 . S
C78 C79 1.382 . S
C78 H103 0.950 1_655 S
C79 N74 1.332 . S
C79 C78 1.382 . S
C79 H89 0.948 . S
N80 Co58 2.282 . S
N80 C84 1.332 . S
N80 C85 1.332 . S
C81 C82 1.388 . S
C81 C85 1.382 . S
C81 H104 0.950 . S
C82 C81 1.388 . S
C82 C83 1.386 . S
C83 C82 1.386 . S
C83 C84 1.382 . S
C83 H105 0.950 . S
C84 N80 1.332 . S
C84 C83 1.382 . S
C84 H86 0.952 . S
C85 N80 1.332 . S
C85 C81 1.382 . S
C85 H87 0.948 . S
H86 C84 0.952 . S
H87 C85 0.948 . S
H88 C77 0.952 . S
H89 C79 0.948 . S
C90 C56 1.395 . S
C90 C60 1.391 . S
C91 C53 1.389 . S
C91 C73 1.392 . S
C92 C63 1.392 . S
C92 C65 1.389 . S
C93 C68 1.395 . S
C93 C70 1.391 . S
H94 C54 0.951 . S
H95 C55 0.950 . S
H96 C61 0.949 . S
H97 C62 0.950 . S
H98 C66 0.951 . S
H99 C67 0.950 . S
H100 C71 0.949 . S
H101 C72 0.950 . S
H102 C76 0.950 . S
H103 C78 0.950 1_455 S
H104 C81 0.950 . S
H105 C83 0.950 . S
C106 C107 1.443 . S
C106 N110 1.376 . S
C106 C144 1.389 . S
C107 C106 1.443 . S
C107 C108 1.340 . S
C107 H147 0.951 . S
C108 C107 1.340 . S
C108 C109 1.439 . S
C108 H148 0.950 . S
C109 C108 1.439 . S
C109 N110 1.374 . S
C109 C143 1.395 . S
N110 C106 1.376 . S
N110 C109 1.374 . S
N110 Co111 2.008 . S
Co111 N110 2.008 . S
Co111 N112 1.995 . S
Co111 N117 2.008 . S
Co111 N122 1.995 . S
Co111 N127 2.282 . S
Co111 N133 2.282 . S
N112 Co111 1.995 . S
N112 C113 1.376 . S
N112 C116 1.383 . S
C113 N112 1.376 . S
C113 C114 1.446 . S
C113 C143 1.391 . S
C114 C113 1.446 . S
C114 C115 1.339 . S
C114 H149 0.949 . S
C115 C114 1.339 . S
C115 C116 1.439 . S
C115 H150 0.950 . S
C116 N112 1.383 . S
C116 C115 1.439 . S
C116 C145 1.392 . S
N117 Co111 2.008 . S
N117 C118 1.376 . S
N117 C121 1.374 . S
C118 N117 1.376 . S
C118 C119 1.443 . S
C118 C145 1.389 . S
C119 C118 1.443 . S
C119 C120 1.340 . S
C119 H151 0.951 . S
C120 C119 1.340 . S
C120 C121 1.439 . S
C120 H152 0.950 . S
C121 N117 1.374 . S
C121 C120 1.439 . S
C121 C146 1.395 . S
N122 Co111 1.995 . S
N122 C123 1.376 . S
N122 C126 1.383 . S
C123 N122 1.376 . S
C123 C124 1.446 . S
C123 C146 1.391 . S
C124 C123 1.446 . S
C124 C125 1.339 . S
C124 H153 0.949 . S
C125 C124 1.339 . S
C125 C126 1.439 . S
C125 H154 0.950 . S
C126 N122 1.383 . S
C126 C125 1.439 . S
C126 C144 1.392 . S
N127 Co111 2.282 . S
N127 C130 1.332 . S
N127 C132 1.332 . S
C128 C129 1.386 . S
C128 C131 1.388 . S
C129 C128 1.386 . S
C129 C130 1.382 . S
C129 H155 0.950 . S
C130 N127 1.332 . S
C130 C129 1.382 . S
C130 H141 0.952 . S
C131 C128 1.388 . S
C131 C132 1.382 . S
C131 H156 0.950 1_565 S
C132 N127 1.332 . S
C132 C131 1.382 . S
C132 H142 0.948 . S
N133 Co111 2.282 . S
N133 C137 1.332 . S
N133 C138 1.332 . S
C134 C135 1.388 . S
C134 C138 1.382 . S
C134 H157 0.950 . S
C135 C134 1.388 . S
C135 C136 1.386 . S
C136 C135 1.386 . S
C136 C137 1.382 . S
C136 H158 0.950 . S
C137 N133 1.332 . S
C137 C136 1.382 . S
C137 H139 0.952 . S
C138 N133 1.332 . S
C138 C134 1.382 . S
C138 H140 0.948 . S
H139 C137 0.952 . S
H140 C138 0.948 . S
H141 C130 0.952 . S
H142 C132 0.948 . S
C143 C109 1.395 . S
C143 C113 1.391 . S
C144 C106 1.389 . S
C144 C126 1.392 . S
C145 C116 1.392 . S
C145 C118 1.389 . S
C146 C121 1.395 . S
C146 C123 1.391 . S
H147 C107 0.951 . S
H148 C108 0.950 . S
H149 C114 0.949 . S
H150 C115 0.950 . S
H151 C119 0.951 . S
H152 C120 0.950 . S
H153 C124 0.949 . S
H154 C125 0.950 . S
H155 C129 0.950 . S
H156 C131 0.950 1_545 S
H157 C134 0.950 . S
H158 C136 0.950 . S
C159 C160 1.443 . S
C159 N163 1.376 . S
C159 C197 1.389 . S
C160 C159 1.443 . S
C160 C161 1.340 . S
C160 H200 0.951 . S
C161 C160 1.340 . S
C161 C162 1.439 . S
C161 H201 0.950 . S
C162 C161 1.439 . S
C162 N163 1.374 . S
C162 C196 1.395 . S
N163 C159 1.376 . S
N163 C162 1.374 . S
N163 Co164 2.008 . S
Co164 N163 2.008 . S
Co164 N165 1.995 . S
Co164 N170 2.008 . S
Co164 N175 1.995 . S
Co164 N180 2.282 . S
Co164 N186 2.282 . S
N165 Co164 1.995 . S
N165 C166 1.376 . S
N165 C169 1.383 . S
C166 N165 1.376 . S
C166 C167 1.446 . S
C166 C196 1.391 . S
C167 C166 1.446 . S
C167 C168 1.339 . S
C167 H202 0.949 . S
C168 C167 1.339 . S
C168 C169 1.439 . S
C168 H203 0.950 . S
C169 N165 1.383 . S
C169 C168 1.439 . S
C169 C198 1.392 . S
N170 Co164 2.008 . S
N170 C171 1.376 . S
N170 C174 1.374 . S
C171 N170 1.376 . S
C171 C172 1.443 . S
C171 C198 1.389 . S
C172 C171 1.443 . S
C172 C173 1.340 . S
C172 H204 0.951 . S
C173 C172 1.340 . S
C173 C174 1.439 . S
C173 H205 0.950 . S
C174 N170 1.374 . S
C174 C173 1.439 . S
C174 C199 1.395 . S
N175 Co164 1.995 . S
N175 C176 1.376 . S
N175 C179 1.383 . S
C176 N175 1.376 . S
C176 C177 1.446 . S
C176 C199 1.391 . S
C177 C176 1.446 . S
C177 C178 1.339 . S
C177 H206 0.949 . S
C178 C177 1.339 . S
C178 C179 1.439 . S
C178 H207 0.950 . S
C179 N175 1.383 . S
C179 C178 1.439 . S
C179 C197 1.392 . S
N180 Co164 2.282 . S
N180 C183 1.332 . S
N180 C185 1.332 . S
C181 C182 1.386 . S
C181 C184 1.388 . S
C182 C181 1.386 . S
C182 C183 1.382 . S
C182 H208 0.950 . S
C183 N180 1.332 . S
C183 C182 1.382 . S
C183 H194 0.952 . S
C184 C181 1.388 . S
C184 C185 1.382 . S
C184 H209 0.950 . S
C185 N180 1.332 . S
C185 C184 1.382 . S
C185 H195 0.948 . S
N186 Co164 2.282 . S
N186 C190 1.332 . S
N186 C191 1.332 . S
C187 C188 1.388 . S
C187 C191 1.382 . S
C187 H210 0.950 . S
C188 C187 1.388 . S
C188 C189 1.386 . S
C189 C188 1.386 . S
C189 C190 1.382 . S
C189 H211 0.950 . S
C190 N186 1.332 . S
C190 C189 1.382 . S
C190 H192 0.952 . S
C191 N186 1.332 . S
C191 C187 1.382 . S
C191 H193 0.948 . S
H192 C190 0.952 . S
H193 C191 0.948 . S
H194 C183 0.952 . S
H195 C185 0.948 . S
C196 C162 1.395 . S
C196 C166 1.391 . S
C197 C159 1.389 . S
C197 C179 1.392 . S
C198 C169 1.392 . S
C198 C171 1.389 . S
C199 C174 1.395 . S
C199 C176 1.391 . S
H200 C160 0.951 . S
H201 C161 0.950 . S
H202 C167 0.949 . S
H203 C168 0.950 . S
H204 C172 0.951 . S
H205 C173 0.950 . S
H206 C177 0.949 . S
H207 C178 0.950 . S
H208 C182 0.950 . S
H209 C184 0.950 . S
H210 C187 0.950 . S
H211 C189 0.950 . S
C212 C213 1.443 . S
C212 N216 1.376 . S
C212 C250 1.389 . S
C213 C212 1.443 . S
C213 C214 1.340 . S
C213 H253 0.951 . S
C214 C213 1.340 . S
C214 C215 1.439 . S
C214 H254 0.950 . S
C215 C214 1.439 . S
C215 N216 1.374 . S
C215 C249 1.395 . S
N216 C212 1.376 . S
N216 C215 1.374 . S
N216 Co217 2.008 . S
Co217 N216 2.008 . S
Co217 N218 1.995 . S
Co217 N223 2.008 . S
Co217 N228 1.995 . S
Co217 N233 2.282 . S
Co217 N239 2.282 . S
N218 Co217 1.995 . S
N218 C219 1.376 . S
N218 C222 1.383 . S
C219 N218 1.376 . S
C219 C220 1.446 . S
C219 C249 1.391 . S
C220 C219 1.446 . S
C220 C221 1.339 . S
C220 H255 0.949 . S
C221 C220 1.339 . S
C221 C222 1.439 . S
C221 H256 0.950 . S
C222 N218 1.383 . S
C222 C221 1.439 . S
C222 C251 1.392 . S
N223 Co217 2.008 . S
N223 C224 1.376 . S
N223 C227 1.374 . S
C224 N223 1.376 . S
C224 C225 1.443 . S
C224 C251 1.389 . S
C225 C224 1.443 . S
C225 C226 1.340 . S
C225 H257 0.951 . S
C226 C225 1.340 . S
C226 C227 1.439 . S
C226 H258 0.950 . S
C227 N223 1.374 . S
C227 C226 1.439 . S
C227 C252 1.395 . S
N228 Co217 1.995 . S
N228 C229 1.376 . S
N228 C232 1.383 . S
C229 N228 1.376 . S
C229 C230 1.446 . S
C229 C252 1.391 . S
C230 C229 1.446 . S
C230 C231 1.339 . S
C230 H259 0.949 . S
C231 C230 1.339 . S
C231 C232 1.439 . S
C231 H260 0.950 . S
C232 N228 1.383 . S
C232 C231 1.439 . S
C232 C250 1.392 . S
N233 Co217 2.282 . S
N233 C236 1.332 . S
N233 C238 1.332 . S
C234 C235 1.386 . S
C234 C237 1.388 . S
C235 C234 1.386 . S
C235 C236 1.382 . S
C235 H261 0.950 . S
C236 N233 1.332 . S
C236 C235 1.382 . S
C236 H247 0.952 . S
C237 C234 1.388 . S
C237 C238 1.382 . S
C237 H262 0.950 1_565 S
C238 N233 1.332 . S
C238 C237 1.382 . S
C238 H248 0.948 . S
N239 Co217 2.282 . S
N239 C243 1.332 . S
N239 C244 1.332 . S
C240 C241 1.388 . S
C240 C244 1.382 . S
C240 H263 0.950 . S
C241 C240 1.388 . S
C241 C242 1.386 . S
C242 C241 1.386 . S
C242 C243 1.382 . S
C242 H264 0.950 . S
C243 N239 1.332 . S
C243 C242 1.382 . S
C243 H245 0.952 . S
C244 N239 1.332 . S
C244 C240 1.382 . S
C244 H246 0.948 . S
H245 C243 0.952 . S
H246 C244 0.948 . S
H247 C236 0.952 . S
H248 C238 0.948 . S
C249 C215 1.395 . S
C249 C219 1.391 . S
C250 C212 1.389 . S
C250 C232 1.392 . S
C251 C222 1.392 . S
C251 C224 1.389 . S
C252 C227 1.395 . S
C252 C229 1.391 . S
H253 C213 0.951 . S
H254 C214 0.950 . S
H255 C220 0.949 . S
H256 C221 0.950 . S
H257 C225 0.951 . S
H258 C226 0.950 . S
H259 C230 0.949 . S
H260 C231 0.950 . S
H261 C235 0.950 . S
H262 C237 0.950 1_545 S
H263 C240 0.950 . S
H264 C242 0.950 . S
C265 C266 1.443 . S
C265 N269 1.376 . S
C265 C303 1.389 . S
C266 C265 1.443 . S
C266 C267 1.340 . S
C266 H306 0.951 . S
C267 C266 1.340 . S
C267 C268 1.439 . S
C267 H307 0.950 . S
C268 C267 1.439 . S
C268 N269 1.374 . S
C268 C302 1.395 . S
N269 C265 1.376 . S
N269 C268 1.374 . S
N269 Co270 2.008 . S
Co270 N269 2.008 . S
Co270 N271 1.995 . S
Co270 N276 2.008 . S
Co270 N281 1.995 . S
Co270 N286 2.282 . S
Co270 N292 2.282 . S
N271 Co270 1.995 . S
N271 C272 1.376 . S
N271 C275 1.383 . S
C272 N271 1.376 . S
C272 C273 1.446 . S
C272 C302 1.391 . S
C273 C272 1.446 . S
C273 C274 1.339 . S
C273 H308 0.949 . S
C274 C273 1.339 . S
C274 C275 1.439 . S
C274 H309 0.950 . S
C275 N271 1.383 . S
C275 C274 1.439 . S
C275 C304 1.392 . S
N276 Co270 2.008 . S
N276 C277 1.376 . S
N276 C280 1.374 . S
C277 N276 1.376 . S
C277 C278 1.443 . S
C277 C304 1.389 . S
C278 C277 1.443 . S
C278 C279 1.340 . S
C278 H310 0.951 . S
C279 C278 1.340 . S
C279 C280 1.439 . S
C279 H311 0.950 . S
C280 N276 1.374 . S
C280 C279 1.439 . S
C280 C305 1.395 . S
N281 Co270 1.995 . S
N281 C282 1.376 . S
N281 C285 1.383 . S
C282 N281 1.376 . S
C282 C283 1.446 . S
C282 C305 1.391 . S
C283 C282 1.446 . S
C283 C284 1.339 . S
C283 H312 0.949 . S
C284 C283 1.339 . S
C284 C285 1.439 . S
C284 H313 0.950 . S
C285 N281 1.383 . S
C285 C284 1.439 . S
C285 C303 1.392 . S
N286 Co270 2.282 . S
N286 C289 1.332 . S
N286 C291 1.332 . S
C287 C288 1.386 . S
C287 C290 1.388 . S
C288 C287 1.386 . S
C288 C289 1.382 . S
C288 H314 0.950 . S
C289 N286 1.332 . S
C289 C288 1.382 . S
C289 H300 0.952 . S
C290 C287 1.388 . S
C290 C291 1.382 . S
C290 H315 0.950 . S
C291 N286 1.332 . S
C291 C290 1.382 . S
C291 H301 0.948 . S
N292 Co270 2.282 . S
N292 C296 1.332 . S
N292 C297 1.332 . S
C293 C294 1.388 . S
C293 C297 1.382 . S
C293 H316 0.950 . S
C294 C293 1.388 . S
C294 C295 1.386 . S
C295 C294 1.386 . S
C295 C296 1.382 . S
C295 H317 0.950 . S
C296 N292 1.332 . S
C296 C295 1.382 . S
C296 H298 0.952 . S
C297 N292 1.332 . S
C297 C293 1.382 . S
C297 H299 0.948 . S
H298 C296 0.952 . S
H299 C297 0.948 . S
H300 C289 0.952 . S
H301 C291 0.948 . S
C302 C268 1.395 . S
C302 C272 1.391 . S
C303 C265 1.389 . S
C303 C285 1.392 . S
C304 C275 1.392 . S
C304 C277 1.389 . S
C305 C280 1.395 . S
C305 C282 1.391 . S
H306 C266 0.951 . S
H307 C267 0.950 . S
H308 C273 0.949 . S
H309 C274 0.950 . S
H310 C278 0.951 . S
H311 C279 0.950 . S
H312 C283 0.949 . S
H313 C284 0.950 . S
H314 C288 0.950 . S
H315 C290 0.950 . S
H316 C293 0.950 . S
H317 C295 0.950 . S
C318 C319 1.443 . S
C318 N322 1.376 . S
C318 C356 1.389 . S
C319 C318 1.443 . S
C319 C320 1.340 . S
C319 H359 0.951 . S
C320 C319 1.340 . S
C320 C321 1.439 . S
C320 H360 0.950 . S
C321 C320 1.439 . S
C321 N322 1.374 . S
C321 C355 1.395 . S
N322 C318 1.376 . S
N322 C321 1.374 . S
N322 Co323 2.008 . S
Co323 N322 2.008 . S
Co323 N324 1.995 . S
Co323 N329 2.008 . S
Co323 N334 1.995 . S
Co323 N339 2.282 . S
Co323 N345 2.282 . S
N324 Co323 1.995 . S
N324 C325 1.376 . S
N324 C328 1.383 . S
C325 N324 1.376 . S
C325 C326 1.446 . S
C325 C355 1.391 . S
C326 C325 1.446 . S
C326 C327 1.339 . S
C326 H361 0.949 . S
C327 C326 1.339 . S
C327 C328 1.439 . S
C327 H362 0.950 . S
C328 N324 1.383 . S
C328 C327 1.439 . S
C328 C357 1.392 . S
N329 Co323 2.008 . S
N329 C330 1.376 . S
N329 C333 1.374 . S
C330 N329 1.376 . S
C330 C331 1.443 . S
C330 C357 1.389 . S
C331 C330 1.443 . S
C331 C332 1.340 . S
C331 H363 0.951 . S
C332 C331 1.340 . S
C332 C333 1.439 . S
C332 H364 0.950 . S
C333 N329 1.374 . S
C333 C332 1.439 . S
C333 C358 1.395 . S
N334 Co323 1.995 . S
N334 C335 1.376 . S
N334 C338 1.383 . S
C335 N334 1.376 . S
C335 C336 1.446 . S
C335 C358 1.391 . S
C336 C335 1.446 . S
C336 C337 1.339 . S
C336 H365 0.949 . S
C337 C336 1.339 . S
C337 C338 1.439 . S
C337 H366 0.950 . S
C338 N334 1.383 . S
C338 C337 1.439 . S
C338 C356 1.392 . S
N339 Co323 2.282 . S
N339 C342 1.332 . S
N339 C344 1.332 . S
C340 C341 1.386 . S
C340 C343 1.388 . S
C341 C340 1.386 . S
C341 C342 1.382 . S
C341 H367 0.950 . S
C342 N339 1.332 . S
C342 C341 1.382 . S
C342 H353 0.952 . S
C343 C340 1.388 . S
C343 C344 1.382 . S
C343 H368 0.950 . S
C344 N339 1.332 . S
C344 C343 1.382 . S
C344 H354 0.948 . S
N345 Co323 2.282 . S
N345 C349 1.332 . S
N345 C350 1.332 . S
C346 C347 1.388 . S
C346 C350 1.382 . S
C346 H369 0.950 . S
C347 C346 1.388 . S
C347 C348 1.386 . S
C348 C347 1.386 . S
C348 C349 1.382 . S
C348 H370 0.950 . S
C349 N345 1.332 . S
C349 C348 1.382 . S
C349 H351 0.952 . S
C350 N345 1.332 . S
C350 C346 1.382 . S
C350 H352 0.948 . S
H351 C349 0.952 . S
H352 C350 0.948 . S
H353 C342 0.952 . S
H354 C344 0.948 . S
C355 C321 1.395 . S
C355 C325 1.391 . S
C356 C318 1.389 . S
C356 C338 1.392 . S
C357 C328 1.392 . S
C357 C330 1.389 . S
C358 C333 1.395 . S
C358 C335 1.391 . S
H359 C319 0.951 . S
H360 C320 0.950 . S
H361 C326 0.949 . S
H362 C327 0.950 . S
H363 C331 0.951 . S
H364 C332 0.950 . S
H365 C336 0.949 . S
H366 C337 0.950 . S
H367 C341 0.950 . S
H368 C343 0.950 . S
H369 C346 0.950 . S
H370 C348 0.950 . S
C371 C372 1.443 . S
C371 N375 1.376 . S
C371 C409 1.389 . S
C372 C371 1.443 . S
C372 C373 1.340 . S
C372 H412 0.951 . S
C373 C372 1.340 . S
C373 C374 1.439 . S
C373 H413 0.950 . S
C374 C373 1.439 . S
C374 N375 1.374 . S
C374 C408 1.395 . S
N375 C371 1.376 . S
N375 C374 1.374 . S
N375 Co376 2.008 . S
Co376 N375 2.008 . S
Co376 N377 1.995 . S
Co376 N382 2.008 . S
Co376 N387 1.995 . S
Co376 N392 2.282 . S
Co376 N398 2.282 . S
N377 Co376 1.995 . S
N377 C378 1.376 . S
N377 C381 1.383 . S
C378 N377 1.376 . S
C378 C379 1.446 . S
C378 C408 1.391 . S
C379 C378 1.446 . S
C379 C380 1.339 . S
C379 H414 0.949 . S
C380 C379 1.339 . S
C380 C381 1.439 . S
C380 H415 0.950 . S
C381 N377 1.383 . S
C381 C380 1.439 . S
C381 C410 1.392 . S
N382 Co376 2.008 . S
N382 C383 1.376 . S
N382 C386 1.374 . S
C383 N382 1.376 . S
C383 C384 1.443 . S
C383 C410 1.389 . S
C384 C383 1.443 . S
C384 C385 1.340 . S
C384 H416 0.951 . S
C385 C384 1.340 . S
C385 C386 1.439 . S
C385 H417 0.950 . S
C386 N382 1.374 . S
C386 C385 1.439 . S
C386 C411 1.395 . S
N387 Co376 1.995 . S
N387 C388 1.376 . S
N387 C391 1.383 . S
C388 N387 1.376 . S
C388 C389 1.446 . S
C388 C411 1.391 . S
C389 C388 1.446 . S
C389 C390 1.339 . S
C389 H418 0.949 . S
C390 C389 1.339 . S
C390 C391 1.439 . S
C390 H419 0.950 . S
C391 N387 1.383 . S
C391 C390 1.439 . S
C391 C409 1.392 . S
N392 Co376 2.282 . S
N392 C395 1.332 . S
N392 C397 1.332 . S
C393 C394 1.386 . S
C393 C396 1.388 . S
C394 C393 1.386 . S
C394 C395 1.382 . S
C394 H420 0.950 . S
C395 N392 1.332 . S
C395 C394 1.382 . S
C395 H406 0.952 . S
C396 C393 1.388 . S
C396 C397 1.382 . S
C396 H421 0.950 1_655 S
C397 N392 1.332 . S
C397 C396 1.382 . S
C397 H407 0.948 . S
N398 Co376 2.282 . S
N398 C402 1.332 . S
N398 C403 1.332 . S
C399 C400 1.388 . S
C399 C403 1.382 . S
C399 H422 0.950 . S
C400 C399 1.388 . S
C400 C401 1.386 . S
C401 C400 1.386 . S
C401 C402 1.382 . S
C401 H423 0.950 . S
C402 N398 1.332 . S
C402 C401 1.382 . S
C402 H404 0.952 . S
C403 N398 1.332 . S
C403 C399 1.382 . S
C403 H405 0.948 . S
H404 C402 0.952 . S
H405 C403 0.948 . S
H406 C395 0.952 . S
H407 C397 0.948 . S
C408 C374 1.395 . S
C408 C378 1.391 . S
C409 C371 1.389 . S
C409 C391 1.392 . S
C410 C381 1.392 . S
C410 C383 1.389 . S
C411 C386 1.395 . S
C411 C388 1.391 . S
H412 C372 0.951 . S
H413 C373 0.950 . S
H414 C379 0.949 . S
H415 C380 0.950 . S
H416 C384 0.951 . S
H417 C385 0.950 . S
H418 C389 0.949 . S
H419 C390 0.950 . S
H420 C394 0.950 . S
H421 C396 0.950 1_455 S
H422 C399 0.950 . S
H423 C401 0.950 . S
C424 C425 1.443 . S
C424 N428 1.376 . S
C424 C462 1.389 . S
C425 C424 1.443 . S
C425 C426 1.340 . S
C425 H465 0.951 . S
C426 C425 1.340 . S
C426 C427 1.439 . S
C426 H466 0.950 . S
C427 C426 1.439 . S
C427 N428 1.374 . S
C427 C461 1.395 . S
N428 C424 1.376 . S
N428 C427 1.374 . S
N428 Co429 2.008 . S
Co429 N428 2.008 . S
Co429 N430 1.995 . S
Co429 N435 2.008 . S
Co429 N440 1.995 . S
Co429 N445 2.282 . S
Co429 N451 2.282 . S
N430 Co429 1.995 . S
N430 C431 1.376 . S
N430 C434 1.383 . S
C431 N430 1.376 . S
C431 C432 1.446 . S
C431 C461 1.391 . S
C432 C431 1.446 . S
C432 C433 1.339 . S
C432 H467 0.949 . S
C433 C432 1.339 . S
C433 C434 1.439 . S
C433 H468 0.950 . S
C434 N430 1.383 . S
C434 C433 1.439 . S
C434 C463 1.392 . S
N435 Co429 2.008 . S
N435 C436 1.376 . S
N435 C439 1.374 . S
C436 N435 1.376 . S
C436 C437 1.443 . S
C436 C463 1.389 . S
C437 C436 1.443 . S
C437 C438 1.340 . S
C437 H469 0.951 . S
C438 C437 1.340 . S
C438 C439 1.439 . S
C438 H470 0.950 . S
C439 N435 1.374 . S
C439 C438 1.439 . S
C439 C464 1.395 . S
N440 Co429 1.995 . S
N440 C441 1.376 . S
N440 C444 1.383 . S
C441 N440 1.376 . S
C441 C442 1.446 . S
C441 C464 1.391 . S
C442 C441 1.446 . S
C442 C443 1.339 . S
C442 H471 0.949 . S
C443 C442 1.339 . S
C443 C444 1.439 . S
C443 H472 0.950 . S
C444 N440 1.383 . S
C444 C443 1.439 . S
C444 C462 1.392 . S
N445 Co429 2.282 . S
N445 C448 1.332 . S
N445 C450 1.332 . S
C446 C447 1.386 . S
C446 C449 1.388 . S
C447 C446 1.386 . S
C447 C448 1.382 . S
C447 H473 0.950 1_655 S
C448 N445 1.332 . S
C448 C447 1.382 . S
C448 H459 0.952 . S
C449 C446 1.388 . S
C449 C450 1.382 . S
C449 H474 0.950 . S
C450 N445 1.332 . S
C450 C449 1.382 . S
C450 H460 0.948 . S
N451 Co429 2.282 . S
N451 C455 1.332 . S
N451 C456 1.332 . S
C452 C453 1.388 . S
C452 C456 1.382 . S
C452 H475 0.950 . S
C453 C452 1.388 . S
C453 C454 1.386 . S
C454 C453 1.386 . S
C454 C455 1.382 . S
C454 H476 0.950 . S
C455 N451 1.332 . S
C455 C454 1.382 . S
C455 H457 0.952 . S
C456 N451 1.332 . S
C456 C452 1.382 . S
C456 H458 0.948 . S
H457 C455 0.952 . S
H458 C456 0.948 . S
H459 C448 0.952 . S
H460 C450 0.948 . S
C461 C427 1.395 . S
C461 C431 1.391 . S
C462 C424 1.389 . S
C462 C444 1.392 . S
C463 C434 1.392 . S
C463 C436 1.389 . S
C464 C439 1.395 . S
C464 C441 1.391 . S
H465 C425 0.951 . S
H466 C426 0.950 . S
H467 C432 0.949 . S
H468 C433 0.950 . S
H469 C437 0.951 . S
H470 C438 0.950 . S
H471 C442 0.949 . S
H472 C443 0.950 . S
H473 C447 0.950 1_455 S
H474 C449 0.950 . S
H475 C452 0.950 . S
H476 C454 0.950 . S
C477 C478 1.443 . S
C477 N481 1.376 . S
C477 C515 1.389 . S
C478 C477 1.443 . S
C478 C479 1.340 . S
C478 H518 0.951 . S
C479 C478 1.340 . S
C479 C480 1.439 . S
C479 H519 0.950 . S
C480 C479 1.439 . S
C480 N481 1.374 . S
C480 C514 1.395 . S
N481 C477 1.376 . S
N481 C480 1.374 . S
N481 Co482 2.008 . S
Co482 N481 2.008 . S
Co482 N483 1.995 . S
Co482 N488 2.008 . S
Co482 N493 1.995 . S
Co482 N498 2.282 . S
Co482 N504 2.282 . S
N483 Co482 1.995 . S
N483 C484 1.376 . S
N483 C487 1.383 . S
C484 N483 1.376 . S
C484 C485 1.446 . S
C484 C514 1.391 . S
C485 C484 1.446 . S
C485 C486 1.339 . S
C485 H520 0.949 . S
C486 C485 1.339 . S
C486 C487 1.439 . S
C486 H521 0.950 . S
C487 N483 1.383 . S
C487 C486 1.439 . S
C487 C516 1.392 . S
N488 Co482 2.008 . S
N488 C489 1.376 . S
N488 C492 1.374 . S
C489 N488 1.376 . S
C489 C490 1.443 . S
C489 C516 1.389 . S
C490 C489 1.443 . S
C490 C491 1.340 . S
C490 H522 0.951 . S
C491 C490 1.340 . S
C491 C492 1.439 . S
C491 H523 0.950 . S
C492 N488 1.374 . S
C492 C491 1.439 . S
C492 C517 1.395 . S
N493 Co482 1.995 . S
N493 C494 1.376 . S
N493 C497 1.383 . S
C494 N493 1.376 . S
C494 C495 1.446 . S
C494 C517 1.391 . S
C495 C494 1.446 . S
C495 C496 1.339 . S
C495 H524 0.949 . S
C496 C495 1.339 . S
C496 C497 1.439 . S
C496 H525 0.950 . S
C497 N493 1.383 . S
C497 C496 1.439 . S
C497 C515 1.392 . S
N498 Co482 2.282 . S
N498 C501 1.332 . S
N498 C503 1.332 . S
C499 C500 1.386 . S
C499 C502 1.388 . S
C500 C499 1.386 . S
C500 C501 1.382 . S
C500 H526 0.950 1_565 S
C501 N498 1.332 . S
C501 C500 1.382 . S
C501 H512 0.952 . S
C502 C499 1.388 . S
C502 C503 1.382 . S
C502 H527 0.950 . S
C503 N498 1.332 . S
C503 C502 1.382 . S
C503 H513 0.948 . S
N504 Co482 2.282 . S
N504 C508 1.332 . S
N504 C509 1.332 . S
C505 C506 1.388 . S
C505 C509 1.382 . S
C505 H528 0.950 . S
C506 C505 1.388 . S
C506 C507 1.386 . S
C507 C506 1.386 . S
C507 C508 1.382 . S
C507 H529 0.950 . S
C508 N504 1.332 . S
C508 C507 1.382 . S
C508 H510 0.952 . S
C509 N504 1.332 . S
C509 C505 1.382 . S
C509 H511 0.948 . S
H510 C508 0.952 . S
H511 C509 0.948 . S
H512 C501 0.952 . S
H513 C503 0.948 . S
C514 C480 1.395 . S
C514 C484 1.391 . S
C515 C477 1.389 . S
C515 C497 1.392 . S
C516 C487 1.392 . S
C516 C489 1.389 . S
C517 C492 1.395 . S
C517 C494 1.391 . S
H518 C478 0.951 . S
H519 C479 0.950 . S
H520 C485 0.949 . S
H521 C486 0.950 . S
H522 C490 0.951 . S
H523 C491 0.950 . S
H524 C495 0.949 . S
H525 C496 0.950 . S
H526 C500 0.950 1_545 S
H527 C502 0.950 . S
H528 C505 0.950 . S
H529 C507 0.950 . S
C530 C531 1.443 . S
C530 N534 1.376 . S
C530 C568 1.389 . S
C531 C530 1.443 . S
C531 C532 1.340 . S
C531 H571 0.951 . S
C532 C531 1.340 . S
C532 C533 1.439 . S
C532 H572 0.950 . S
C533 C532 1.439 . S
C533 N534 1.374 . S
C533 C567 1.395 . S
N534 C530 1.376 . S
N534 C533 1.374 . S
N534 Co535 2.008 . S
Co535 N534 2.008 . S
Co535 N536 1.995 . S
Co535 N541 2.008 . S
Co535 N546 1.995 . S
Co535 N551 2.282 . S
Co535 N557 2.282 . S
N536 Co535 1.995 . S
N536 C537 1.376 . S
N536 C540 1.383 . S
C537 N536 1.376 . S
C537 C538 1.446 . S
C537 C567 1.391 . S
C538 C537 1.446 . S
C538 C539 1.339 . S
C538 H573 0.949 . S
C539 C538 1.339 . S
C539 C540 1.439 . S
C539 H574 0.950 . S
C540 N536 1.383 . S
C540 C539 1.439 . S
C540 C569 1.392 . S
N541 Co535 2.008 . S
N541 C542 1.376 . S
N541 C545 1.374 . S
C542 N541 1.376 . S
C542 C543 1.443 . S
C542 C569 1.389 . S
C543 C542 1.443 . S
C543 C544 1.340 . S
C543 H575 0.951 . S
C544 C543 1.340 . S
C544 C545 1.439 . S
C544 H576 0.950 . S
C545 N541 1.374 . S
C545 C544 1.439 . S
C545 C570 1.395 . S
N546 Co535 1.995 . S
N546 C547 1.376 . S
N546 C550 1.383 . S
C547 N546 1.376 . S
C547 C548 1.446 . S
C547 C570 1.391 . S
C548 C547 1.446 . S
C548 C549 1.339 . S
C548 H577 0.949 . S
C549 C548 1.339 . S
C549 C550 1.439 . S
C549 H578 0.950 . S
C550 N546 1.383 . S
C550 C549 1.439 . S
C550 C568 1.392 . S
N551 Co535 2.282 . S
N551 C554 1.332 . S
N551 C556 1.332 . S
C552 C553 1.386 . S
C552 C555 1.388 . S
C553 C552 1.386 . S
C553 C554 1.382 . S
C553 H579 0.950 . S
C554 N551 1.332 . S
C554 C553 1.382 . S
C554 H565 0.952 . S
C555 C552 1.388 . S
C555 C556 1.382 . S
C555 H580 0.950 . S
C556 N551 1.332 . S
C556 C555 1.382 . S
C556 H566 0.948 . S
N557 Co535 2.282 . S
N557 C561 1.332 . S
N557 C562 1.332 . S
C558 C559 1.388 . S
C558 C562 1.382 . S
C558 H581 0.950 . S
C559 C558 1.388 . S
C559 C560 1.386 . S
C560 C559 1.386 . S
C560 C561 1.382 . S
C560 H582 0.950 . S
C561 N557 1.332 . S
C561 C560 1.382 . S
C561 H563 0.952 . S
C562 N557 1.332 . S
C562 C558 1.382 . S
C562 H564 0.948 . S
H563 C561 0.952 . S
H564 C562 0.948 . S
H565 C554 0.952 . S
H566 C556 0.948 . S
C567 C533 1.395 . S
C567 C537 1.391 . S
C568 C530 1.389 . S
C568 C550 1.392 . S
C569 C540 1.392 . S
C569 C542 1.389 . S
C570 C545 1.395 . S
C570 C547 1.391 . S
H571 C531 0.951 . S
H572 C532 0.950 . S
H573 C538 0.949 . S
H574 C539 0.950 . S
H575 C543 0.951 . S
H576 C544 0.950 . S
H577 C548 0.949 . S
H578 C549 0.950 . S
H579 C553 0.950 . S
H580 C555 0.950 . S
H581 C558 0.950 . S
H582 C560 0.950 . S
C583 C584 1.443 . S
C583 N587 1.376 . S
C583 C621 1.389 . S
C584 C583 1.443 . S
C584 C585 1.340 . S
C584 H624 0.951 . S
C585 C584 1.340 . S
C585 C586 1.439 . S
C585 H625 0.950 . S
C586 C585 1.439 . S
C586 N587 1.374 . S
C586 C620 1.395 . S
N587 C583 1.376 . S
N587 C586 1.374 . S
N587 Co588 2.008 . S
Co588 N587 2.008 . S
Co588 N589 1.995 . S
Co588 N594 2.008 . S
Co588 N599 1.995 . S
Co588 N604 2.282 . S
Co588 N610 2.282 . S
N589 Co588 1.995 . S
N589 C590 1.376 . S
N589 C593 1.383 . S
C590 N589 1.376 . S
C590 C591 1.446 . S
C590 C620 1.391 . S
C591 C590 1.446 . S
C591 C592 1.339 . S
C591 H626 0.949 . S
C592 C591 1.339 . S
C592 C593 1.439 . S
C592 H627 0.950 . S
C593 N589 1.383 . S
C593 C592 1.439 . S
C593 C622 1.392 . S
N594 Co588 2.008 . S
N594 C595 1.376 . S
N594 C598 1.374 . S
C595 N594 1.376 . S
C595 C596 1.443 . S
C595 C622 1.389 . S
C596 C595 1.443 . S
C596 C597 1.340 . S
C596 H628 0.951 . S
C597 C596 1.340 . S
C597 C598 1.439 . S
C597 H629 0.950 . S
C598 N594 1.374 . S
C598 C597 1.439 . S
C598 C623 1.395 . S
N599 Co588 1.995 . S
N599 C600 1.376 . S
N599 C603 1.383 . S
C600 N599 1.376 . S
C600 C601 1.446 . S
C600 C623 1.391 . S
C601 C600 1.446 . S
C601 C602 1.339 . S
C601 H630 0.949 . S
C602 C601 1.339 . S
C602 C603 1.439 . S
C602 H631 0.950 . S
C603 N599 1.383 . S
C603 C602 1.439 . S
C603 C621 1.392 . S
N604 Co588 2.282 . S
N604 C607 1.332 . S
N604 C609 1.332 . S
C605 C606 1.386 . S
C605 C608 1.388 . S
C606 C605 1.386 . S
C606 C607 1.382 . S
C606 H632 0.950 . S
C607 N604 1.332 . S
C607 C606 1.382 . S
C607 H618 0.952 . S
C608 C605 1.388 . S
C608 C609 1.382 . S
C608 H633 0.950 . S
C609 N604 1.332 . S
C609 C608 1.382 . S
C609 H619 0.948 . S
N610 Co588 2.282 . S
N610 C614 1.332 . S
N610 C615 1.332 . S
C611 C612 1.388 . S
C611 C615 1.382 . S
C611 H634 0.950 . S
C612 C611 1.388 . S
C612 C613 1.386 . S
C613 C612 1.386 . S
C613 C614 1.382 . S
C613 H635 0.950 . S
C614 N610 1.332 . S
C614 C613 1.382 . S
C614 H616 0.952 . S
C615 N610 1.332 . S
C615 C611 1.382 . S
C615 H617 0.948 . S
H616 C614 0.952 . S
H617 C615 0.948 . S
H618 C607 0.952 . S
H619 C609 0.948 . S
C620 C586 1.395 . S
C620 C590 1.391 . S
C621 C583 1.389 . S
C621 C603 1.392 . S
C622 C593 1.392 . S
C622 C595 1.389 . S
C623 C598 1.395 . S
C623 C600 1.391 . S
H624 C584 0.951 . S
H625 C585 0.950 . S
H626 C591 0.949 . S
H627 C592 0.950 . S
H628 C596 0.951 . S
H629 C597 0.950 . S
H630 C601 0.949 . S
H631 C602 0.950 . S
H632 C606 0.950 . S
H633 C608 0.950 . S
H634 C611 0.950 . S
H635 C613 0.950 . S
C636 C637 1.443 . S
C636 N640 1.376 . S
C636 C674 1.389 . S
C637 C636 1.443 . S
C637 C638 1.340 . S
C637 H677 0.951 . S
C638 C637 1.340 . S
C638 C639 1.439 . S
C638 H678 0.950 . S
C639 C638 1.439 . S
C639 N640 1.374 . S
C639 C673 1.395 . S
N640 C636 1.376 . S
N640 C639 1.374 . S
N640 Co641 2.008 . S
Co641 N640 2.008 . S
Co641 N642 1.995 . S
Co641 N647 2.008 . S
Co641 N652 1.995 . S
Co641 N657 2.282 . S
Co641 N663 2.282 . S
N642 Co641 1.995 . S
N642 C643 1.376 . S
N642 C646 1.383 . S
C643 N642 1.376 . S
C643 C644 1.446 . S
C643 C673 1.391 . S
C644 C643 1.446 . S
C644 C645 1.339 . S
C644 H679 0.949 . S
C645 C644 1.339 . S
C645 C646 1.439 . S
C645 H680 0.950 . S
C646 N642 1.383 . S
C646 C645 1.439 . S
C646 C675 1.392 . S
N647 Co641 2.008 . S
N647 C648 1.376 . S
N647 C651 1.374 . S
C648 N647 1.376 . S
C648 C649 1.443 . S
C648 C675 1.389 . S
C649 C648 1.443 . S
C649 C650 1.340 . S
C649 H681 0.951 . S
C650 C649 1.340 . S
C650 C651 1.439 . S
C650 H682 0.950 . S
C651 N647 1.374 . S
C651 C650 1.439 . S
C651 C676 1.395 . S
N652 Co641 1.995 . S
N652 C653 1.376 . S
N652 C656 1.383 . S
C653 N652 1.376 . S
C653 C654 1.446 . S
C653 C676 1.391 . S
C654 C653 1.446 . S
C654 C655 1.339 . S
C654 H683 0.949 . S
C655 C654 1.339 . S
C655 C656 1.439 . S
C655 H684 0.950 . S
C656 N652 1.383 . S
C656 C655 1.439 . S
C656 C674 1.392 . S
N657 Co641 2.282 . S
N657 C660 1.332 . S
N657 C662 1.332 . S
C658 C659 1.386 . S
C658 C661 1.388 . S
C659 C658 1.386 . S
C659 C660 1.382 . S
C659 H685 0.950 1_655 S
C660 N657 1.332 . S
C660 C659 1.382 . S
C660 H671 0.952 . S
C661 C658 1.388 . S
C661 C662 1.382 . S
C661 H686 0.950 . S
C662 N657 1.332 . S
C662 C661 1.382 . S
C662 H672 0.948 . S
N663 Co641 2.282 . S
N663 C667 1.332 . S
N663 C668 1.332 . S
C664 C665 1.388 . S
C664 C668 1.382 . S
C664 H687 0.950 . S
C665 C664 1.388 . S
C665 C666 1.386 . S
C666 C665 1.386 . S
C666 C667 1.382 . S
C666 H688 0.950 . S
C667 N663 1.332 . S
C667 C666 1.382 . S
C667 H669 0.952 . S
C668 N663 1.332 . S
C668 C664 1.382 . S
C668 H670 0.948 . S
H669 C667 0.952 . S
H670 C668 0.948 . S
H671 C660 0.952 . S
H672 C662 0.948 . S
C673 C639 1.395 . S
C673 C643 1.391 . S
C674 C636 1.389 . S
C674 C656 1.392 . S
C675 C646 1.392 . S
C675 C648 1.389 . S
C676 C651 1.395 . S
C676 C653 1.391 . S
H677 C637 0.951 . S
H678 C638 0.950 . S
H679 C644 0.949 . S
H680 C645 0.950 . S
H681 C649 0.951 . S
H682 C650 0.950 . S
H683 C654 0.949 . S
H684 C655 0.950 . S
H685 C659 0.950 1_455 S
H686 C661 0.950 . S
H687 C664 0.950 . S
H688 C666 0.950 . S
C689 C690 1.443 . S
C689 N693 1.376 . S
C689 C727 1.389 . S
C690 C689 1.443 . S
C690 C691 1.340 . S
C690 H730 0.951 . S
C691 C690 1.340 . S
C691 C692 1.439 . S
C691 H731 0.950 . S
C692 C691 1.439 . S
C692 N693 1.374 . S
C692 C726 1.395 . S
N693 C689 1.376 . S
N693 C692 1.374 . S
N693 Co694 2.008 . S
Co694 N693 2.008 . S
Co694 N695 1.995 . S
Co694 N700 2.008 . S
Co694 N705 1.995 . S
Co694 N710 2.282 . S
Co694 N716 2.282 . S
N695 Co694 1.995 . S
N695 C696 1.376 . S
N695 C699 1.383 . S
C696 N695 1.376 . S
C696 C697 1.446 . S
C696 C726 1.391 . S
C697 C696 1.446 . S
C697 C698 1.339 . S
C697 H732 0.949 . S
C698 C697 1.339 . S
C698 C699 1.439 . S
C698 H733 0.950 . S
C699 N695 1.383 . S
C699 C698 1.439 . S
C699 C728 1.392 . S
N700 Co694 2.008 . S
N700 C701 1.376 . S
N700 C704 1.374 . S
C701 N700 1.376 . S
C701 C702 1.443 . S
C701 C728 1.389 . S
C702 C701 1.443 . S
C702 C703 1.340 . S
C702 H734 0.951 . S
C703 C702 1.340 . S
C703 C704 1.439 . S
C703 H735 0.950 . S
C704 N700 1.374 . S
C704 C703 1.439 . S
C704 C729 1.395 . S
N705 Co694 1.995 . S
N705 C706 1.376 . S
N705 C709 1.383 . S
C706 N705 1.376 . S
C706 C707 1.446 . S
C706 C729 1.391 . S
C707 C706 1.446 . S
C707 C708 1.339 . S
C707 H736 0.949 . S
C708 C707 1.339 . S
C708 C709 1.439 . S
C708 H737 0.950 . S
C709 N705 1.383 . S
C709 C708 1.439 . S
C709 C727 1.392 . S
N710 Co694 2.282 . S
N710 C713 1.332 . S
N710 C715 1.332 . S
C711 C712 1.386 . S
C711 C714 1.388 . S
C712 C711 1.386 . S
C712 C713 1.382 . S
C712 H738 0.950 1_565 S
C713 N710 1.332 . S
C713 C712 1.382 . S
C713 H724 0.952 . S
C714 C711 1.388 . S
C714 C715 1.382 . S
C714 H739 0.950 . S
C715 N710 1.332 . S
C715 C714 1.382 . S
C715 H725 0.948 . S
N716 Co694 2.282 . S
N716 C720 1.332 . S
N716 C721 1.332 . S
C717 C718 1.388 . S
C717 C721 1.382 . S
C717 H740 0.950 . S
C718 C717 1.388 . S
C718 C719 1.386 . S
C719 C718 1.386 . S
C719 C720 1.382 . S
C719 H741 0.950 . S
C720 N716 1.332 . S
C720 C719 1.382 . S
C720 H722 0.952 . S
C721 N716 1.332 . S
C721 C717 1.382 . S
C721 H723 0.948 . S
H722 C720 0.952 . S
H723 C721 0.948 . S
H724 C713 0.952 . S
H725 C715 0.948 . S
C726 C692 1.395 . S
C726 C696 1.391 . S
C727 C689 1.389 . S
C727 C709 1.392 . S
C728 C699 1.392 . S
C728 C701 1.389 . S
C729 C704 1.395 . S
C729 C706 1.391 . S
H730 C690 0.951 . S
H731 C691 0.950 . S
H732 C697 0.949 . S
H733 C698 0.950 . S
H734 C702 0.951 . S
H735 C703 0.950 . S
H736 C707 0.949 . S
H737 C708 0.950 . S
H738 C712 0.950 1_545 S
H739 C714 0.950 . S
H740 C717 0.950 . S
H741 C719 0.950 . S
C742 C743 1.443 . S
C742 N746 1.376 . S
C742 C780 1.389 . S
C743 C742 1.443 . S
C743 C744 1.340 . S
C743 H783 0.951 . S
C744 C743 1.340 . S
C744 C745 1.439 . S
C744 H784 0.950 . S
C745 C744 1.439 . S
C745 N746 1.374 . S
C745 C779 1.395 . S
N746 C742 1.376 . S
N746 C745 1.374 . S
N746 Co747 2.008 . S
Co747 N746 2.008 . S
Co747 N748 1.995 . S
Co747 N753 2.008 . S
Co747 N758 1.995 . S
Co747 N763 2.282 . S
Co747 N769 2.282 . S
N748 Co747 1.995 . S
N748 C749 1.376 . S
N748 C752 1.383 . S
C749 N748 1.376 . S
C749 C750 1.446 . S
C749 C779 1.391 . S
C750 C749 1.446 . S
C750 C751 1.339 . S
C750 H785 0.949 . S
C751 C750 1.339 . S
C751 C752 1.439 . S
C751 H786 0.950 . S
C752 N748 1.383 . S
C752 C751 1.439 . S
C752 C781 1.392 . S
N753 Co747 2.008 . S
N753 C754 1.376 . S
N753 C757 1.374 . S
C754 N753 1.376 . S
C754 C755 1.443 . S
C754 C781 1.389 . S
C755 C754 1.443 . S
C755 C756 1.340 . S
C755 H787 0.951 . S
C756 C755 1.340 . S
C756 C757 1.439 . S
C756 H788 0.950 . S
C757 N753 1.374 . S
C757 C756 1.439 . S
C757 C782 1.395 . S
N758 Co747 1.995 . S
N758 C759 1.376 . S
N758 C762 1.383 . S
C759 N758 1.376 . S
C759 C760 1.446 . S
C759 C782 1.391 . S
C760 C759 1.446 . S
C760 C761 1.339 . S
C760 H789 0.949 . S
C761 C760 1.339 . S
C761 C762 1.439 . S
C761 H790 0.950 . S
C762 N758 1.383 . S
C762 C761 1.439 . S
C762 C780 1.392 . S
N763 Co747 2.282 . S
N763 C766 1.332 . S
N763 C768 1.332 . S
C764 C765 1.386 . S
C764 C767 1.388 . S
C765 C764 1.386 . S
C765 C766 1.382 . S
C765 H791 0.950 . S
C766 N763 1.332 . S
C766 C765 1.382 . S
C766 H777 0.952 . S
C767 C764 1.388 . S
C767 C768 1.382 . S
C767 H792 0.950 . S
C768 N763 1.332 . S
C768 C767 1.382 . S
C768 H778 0.948 . S
N769 Co747 2.282 . S
N769 C773 1.332 . S
N769 C774 1.332 . S
C770 C771 1.388 . S
C770 C774 1.382 . S
C770 H793 0.950 . S
C771 C770 1.388 . S
C771 C772 1.386 . S
C772 C771 1.386 . S
C772 C773 1.382 . S
C772 H794 0.950 . S
C773 N769 1.332 . S
C773 C772 1.382 . S
C773 H775 0.952 . S
C774 N769 1.332 . S
C774 C770 1.382 . S
C774 H776 0.948 . S
H775 C773 0.952 . S
H776 C774 0.948 . S
H777 C766 0.952 . S
H778 C768 0.948 . S
C779 C745 1.395 . S
C779 C749 1.391 . S
C780 C742 1.389 . S
C780 C762 1.392 . S
C781 C752 1.392 . S
C781 C754 1.389 . S
C782 C757 1.395 . S
C782 C759 1.391 . S
H783 C743 0.951 . S
H784 C744 0.950 . S
H785 C750 0.949 . S
H786 C751 0.950 . S
H787 C755 0.951 . S
H788 C756 0.950 . S
H789 C760 0.949 . S
H790 C761 0.950 . S
H791 C765 0.950 . S
H792 C767 0.950 . S
H793 C770 0.950 . S
H794 C772 0.950 . S
C795 C796 1.443 . S
C795 N799 1.376 . S
C795 C833 1.389 . S
C796 C795 1.443 . S
C796 C797 1.340 . S
C796 H836 0.951 . S
C797 C796 1.340 . S
C797 C798 1.439 . S
C797 H837 0.950 . S
C798 C797 1.439 . S
C798 N799 1.374 . S
C798 C832 1.395 . S
N799 C795 1.376 . S
N799 C798 1.374 . S
N799 Co800 2.008 . S
Co800 N799 2.008 . S
Co800 N801 1.995 . S
Co800 N806 2.008 . S
Co800 N811 1.995 . S
Co800 N816 2.282 . S
Co800 N822 2.282 . S
N801 Co800 1.995 . S
N801 C802 1.376 . S
N801 C805 1.383 . S
C802 N801 1.376 . S
C802 C803 1.446 . S
C802 C832 1.391 . S
C803 C802 1.446 . S
C803 C804 1.339 . S
C803 H838 0.949 . S
C804 C803 1.339 . S
C804 C805 1.439 . S
C804 H839 0.950 . S
C805 N801 1.383 . S
C805 C804 1.439 . S
C805 C834 1.392 . S
N806 Co800 2.008 . S
N806 C807 1.376 . S
N806 C810 1.374 . S
C807 N806 1.376 . S
C807 C808 1.443 . S
C807 C834 1.389 . S
C808 C807 1.443 . S
C808 C809 1.340 . S
C808 H840 0.951 . S
C809 C808 1.340 . S
C809 C810 1.439 . S
C809 H841 0.950 . S
C810 N806 1.374 . S
C810 C809 1.439 . S
C810 C835 1.395 . S
N811 Co800 1.995 . S
N811 C812 1.376 . S
N811 C815 1.383 . S
C812 N811 1.376 . S
C812 C813 1.446 . S
C812 C835 1.391 . S
C813 C812 1.446 . S
C813 C814 1.339 . S
C813 H842 0.949 . S
C814 C813 1.339 . S
C814 C815 1.439 . S
C814 H843 0.950 . S
C815 N811 1.383 . S
C815 C814 1.439 . S
C815 C833 1.392 . S
N816 Co800 2.282 . S
N816 C819 1.332 . S
N816 C821 1.332 . S
C817 C818 1.386 . S
C817 C820 1.388 . S
C818 C817 1.386 . S
C818 C819 1.382 . S
C818 H844 0.950 . S
C819 N816 1.332 . S
C819 C818 1.382 . S
C819 H830 0.952 . S
C820 C817 1.388 . S
C820 C821 1.382 . S
C820 H845 0.950 . S
C821 N816 1.332 . S
C821 C820 1.382 . S
C821 H831 0.948 . S
N822 Co800 2.282 . S
N822 C826 1.332 . S
N822 C827 1.332 . S
C823 C824 1.388 . S
C823 C827 1.382 . S
C823 H846 0.950 . S
C824 C823 1.388 . S
C824 C825 1.386 . S
C825 C824 1.386 . S
C825 C826 1.382 . S
C825 H847 0.950 . S
C826 N822 1.332 . S
C826 C825 1.382 . S
C826 H828 0.952 . S
C827 N822 1.332 . S
C827 C823 1.382 . S
C827 H829 0.948 . S
H828 C826 0.952 . S
H829 C827 0.948 . S
H830 C819 0.952 . S
H831 C821 0.948 . S
C832 C798 1.395 . S
C832 C802 1.391 . S
C833 C795 1.389 . S
C833 C815 1.392 . S
C834 C805 1.392 . S
C834 C807 1.389 . S
C835 C810 1.395 . S
C835 C812 1.391 . S
H836 C796 0.951 . S
H837 C797 0.950 . S
H838 C803 0.949 . S
H839 C804 0.950 . S
H840 C808 0.951 . S
H841 C809 0.950 . S
H842 C813 0.949 . S
H843 C814 0.950 . S
H844 C818 0.950 . S
H845 C820 0.950 . S
H846 C823 0.950 . S
H847 C825 0.950 . S
H848 C854 0.930 . S
H849 C858 0.930 . S
H850 C863 0.929 . S
H851 C861 0.929 . S
H852 C856 0.929 . S
H853 C862 0.929 . S
C854 H848 0.930 . S
C854 C855 1.367 . S
C854 C862 1.378 . S
C855 C854 1.367 . S
C855 C863 1.433 . S
C856 H852 0.929 . S
C856 C858 1.378 . S
C856 C860 1.350 . S
C857 C860 1.463 . S
C857 C862 1.350 . S
C857 N865 1.427 . S
C858 H849 0.930 . S
C858 C856 1.378 . S
C858 C859 1.367 . S
C859 C858 1.367 . S
C859 C861 1.433 . S
C860 C856 1.350 . S
C860 C857 1.463 . S
C860 N864 1.427 . S
C861 H851 0.929 . S
C861 C859 1.433 . S
C861 N864 1.384 . S
C862 H853 0.929 . S
C862 C854 1.378 . S
C862 C857 1.350 . S
C863 H850 0.929 . S
C863 C855 1.433 . S
C863 N865 1.384 . S
N864 C860 1.427 . S
N864 C861 1.384 . S
N865 C857 1.427 . S
N865 C863 1.384 . S
H866 C872 0.930 . S
H867 C876 0.930 . S
H868 C881 0.929 . S
H869 C879 0.929 . S
H870 C874 0.929 . S
H871 C880 0.929 . S
C872 H866 0.930 . S
C872 C873 1.367 . S
C872 C880 1.378 . S
C873 C872 1.367 . S
C873 C881 1.433 . S
C874 H870 0.929 . S
C874 C876 1.378 . S
C874 C878 1.350 . S
C875 C878 1.463 . S
C875 C880 1.350 . S
C875 N883 1.427 . S
C876 H867 0.930 . S
C876 C874 1.378 . S
C876 C877 1.367 . S
C877 C876 1.367 . S
C877 C879 1.433 . S
C878 C874 1.350 . S
C878 C875 1.463 . S
C878 N882 1.427 . S
C879 H869 0.929 . S
C879 C877 1.433 . S
C879 N882 1.384 . S
C880 H871 0.929 . S
C880 C872 1.378 . S
C880 C875 1.350 . S
C881 H868 0.929 . S
C881 C873 1.433 . S
C881 N883 1.384 . S
N882 C878 1.427 . S
N882 C879 1.384 . S
N883 C875 1.427 . S
N883 C881 1.384 . S
H884 C890 0.930 . S
H885 C894 0.930 . S
H886 C899 0.929 . S
H887 C897 0.929 . S
H888 C892 0.929 . S
H889 C898 0.929 . S
C890 H884 0.930 . S
C890 C891 1.367 . S
C890 C898 1.378 . S
C891 C890 1.367 . S
C891 C899 1.433 . S
C892 H888 0.929 . S
C892 C894 1.378 . S
C892 C896 1.350 . S
C893 C896 1.463 . S
C893 C898 1.350 . S
C893 N901 1.427 . S
C894 H885 0.930 . S
C894 C892 1.378 . S
C894 C895 1.367 . S
C895 C894 1.367 . S
C895 C897 1.433 . S
C896 C892 1.350 . S
C896 C893 1.463 . S
C896 N900 1.427 . S
C897 H887 0.929 . S
C897 C895 1.433 . S
C897 N900 1.384 . S
C898 H889 0.929 . S
C898 C890 1.378 . S
C898 C893 1.350 . S
C899 H886 0.929 . S
C899 C891 1.433 . S
C899 N901 1.384 . S
N900 C896 1.427 . S
N900 C897 1.384 . S
N901 C893 1.427 . S
N901 C899 1.384 . S
H902 C908 0.930 . S
H903 C912 0.930 . S
H904 C917 0.929 . S
H905 C915 0.929 . S
H906 C910 0.929 . S
H907 C916 0.929 . S
C908 H902 0.930 . S
C908 C909 1.367 . S
C908 C916 1.378 . S
C909 C908 1.367 . S
C909 C917 1.433 . S
C910 H906 0.929 . S
C910 C912 1.378 . S
C910 C914 1.350 . S
C911 C914 1.463 . S
C911 C916 1.350 . S
C911 N919 1.427 . S
C912 H903 0.930 . S
C912 C910 1.378 . S
C912 C913 1.367 . S
C913 C912 1.367 . S
C913 C915 1.433 . S
C914 C910 1.350 . S
C914 C911 1.463 . S
C914 N918 1.427 . S
C915 H905 0.929 . S
C915 C913 1.433 . S
C915 N918 1.384 . S
C916 H907 0.929 . S
C916 C908 1.378 . S
C916 C911 1.350 . S
C917 H904 0.929 . S
C917 C909 1.433 . S
C917 N919 1.384 . S
N918 C914 1.427 . S
N918 C915 1.384 . S
N919 C911 1.427 . S
N919 C917 1.384 . S
H920 C926 0.930 . S
H921 C930 0.930 . S
H922 C935 0.929 . S
H923 C933 0.929 . S
H924 C928 0.929 . S
H925 C934 0.929 . S
C926 H920 0.930 . S
C926 C927 1.367 . S
C926 C934 1.378 . S
C927 C926 1.367 . S
C927 C935 1.433 . S
C928 H924 0.929 . S
C928 C930 1.378 . S
C928 C932 1.350 . S
C929 C932 1.463 . S
C929 C934 1.350 . S
C929 N937 1.427 . S
C930 H921 0.930 . S
C930 C928 1.378 . S
C930 C931 1.367 . S
C931 C930 1.367 . S
C931 C933 1.433 . S
C932 C928 1.350 . S
C932 C929 1.463 . S
C932 N936 1.427 . S
C933 H923 0.929 . S
C933 C931 1.433 . S
C933 N936 1.384 . S
C934 H925 0.929 . S
C934 C926 1.378 . S
C934 C929 1.350 . S
C935 H922 0.929 . S
C935 C927 1.433 . S
C935 N937 1.384 . S
N936 C932 1.427 . S
N936 C933 1.384 . S
N937 C929 1.427 . S
N937 C935 1.384 . S
H938 C944 0.930 . S
H939 C948 0.930 . S
H940 C953 0.929 . S
H941 C951 0.929 . S
H942 C946 0.929 . S
H943 C952 0.929 . S
C944 H938 0.930 . S
C944 C945 1.367 . S
C944 C952 1.378 . S
C945 C944 1.367 . S
C945 C953 1.433 . S
C946 H942 0.929 . S
C946 C948 1.378 . S
C946 C950 1.350 . S
C947 C950 1.463 . S
C947 C952 1.350 . S
C947 N955 1.427 . S
C948 H939 0.930 . S
C948 C946 1.378 . S
C948 C949 1.367 . S
C949 C948 1.367 . S
C949 C951 1.433 . S
C950 C946 1.350 . S
C950 C947 1.463 . S
C950 N954 1.427 . S
C951 H941 0.929 . S
C951 C949 1.433 . S
C951 N954 1.384 . S
C952 H943 0.929 . S
C952 C944 1.378 . S
C952 C947 1.350 . S
C953 H940 0.929 . S
C953 C945 1.433 . S
C953 N955 1.384 . S
N954 C950 1.427 . S
N954 C951 1.384 . S
N955 C947 1.427 . S
N955 C953 1.384 . S
H956 C962 0.930 . S
H957 C966 0.930 . S
H958 C971 0.929 . S
H959 C969 0.929 . S
H960 C964 0.929 . S
H961 C970 0.929 . S
C962 H956 0.930 . S
C962 C963 1.367 . S
C962 C970 1.378 . S
C963 C962 1.367 . S
C963 C971 1.433 . S
C964 H960 0.929 . S
C964 C966 1.378 . S
C964 C968 1.350 . S
C965 C968 1.463 . S
C965 C970 1.350 . S
C965 N973 1.427 . S
C966 H957 0.930 . S
C966 C964 1.378 . S
C966 C967 1.367 . S
C967 C966 1.367 . S
C967 C969 1.433 . S
C968 C964 1.350 . S
C968 C965 1.463 . S
C968 N972 1.427 . S
C969 H959 0.929 . S
C969 C967 1.433 . S
C969 N972 1.384 . S
C970 H961 0.929 . S
C970 C962 1.378 . S
C970 C965 1.350 . S
C971 H958 0.929 . S
C971 C963 1.433 . S
C971 N973 1.384 . S
N972 C968 1.427 . S
N972 C969 1.384 . S
N973 C965 1.427 . S
N973 C971 1.384 . S
H974 C980 0.930 . S
H975 C984 0.930 . S
H976 C989 0.929 . S
H977 C987 0.929 . S
H978 C982 0.929 . S
H979 C988 0.929 . S
C980 H974 0.930 . S
C980 C981 1.367 . S
C980 C988 1.378 . S
C981 C980 1.367 . S
C981 C989 1.433 . S
C982 H978 0.929 . S
C982 C984 1.378 . S
C982 C986 1.350 . S
C983 C986 1.463 . S
C983 C988 1.350 . S
C983 N991 1.427 . S
C984 H975 0.930 . S
C984 C982 1.378 . S
C984 C985 1.367 . S
C985 C984 1.367 . S
C985 C987 1.433 . S
C986 C982 1.350 . S
C986 C983 1.463 . S
C986 N990 1.427 . S
C987 H977 0.929 . S
C987 C985 1.433 . S
C987 N990 1.384 . S
C988 H979 0.929 . S
C988 C980 1.378 . S
C988 C983 1.350 . S
C989 H976 0.929 . S
C989 C981 1.433 . S
C989 N991 1.384 . S
N990 C986 1.427 . S
N990 C987 1.384 . S
N991 C983 1.427 . S
N991 C989 1.384 . S
H992 C998 0.932 . S
H993 C1002 0.930 . S
H994 C1007 0.929 . S
H995 C1005 0.929 . S
H996 C1000 0.929 . S
H997 C1006 0.929 . S
C998 H992 0.932 . S
C998 C999 1.367 . S
C998 C1006 1.378 1_655 S
C999 C998 1.367 . S
C999 C1007 1.433 . S
C1000 H996 0.929 . S
C1000 C1002 1.378 . S
C1000 C1004 1.350 . S
C1001 C1004 1.463 . S
C1001 C1006 1.350 . S
C1001 N1009 1.427 1_455 S
C1002 H993 0.930 . S
C1002 C1000 1.378 . S
C1002 C1003 1.367 . S
C1003 C1002 1.367 . S
C1003 C1005 1.433 . S
C1004 C1000 1.350 . S
C1004 C1001 1.463 . S
C1004 N1008 1.427 . S
C1005 H995 0.929 . S
C1005 C1003 1.433 . S
C1005 N1008 1.384 . S
C1006 H997 0.929 . S
C1006 C998 1.378 1_455 S
C1006 C1001 1.350 . S
C1007 H994 0.929 . S
C1007 C999 1.433 . S
C1007 N1009 1.384 . S
N1008 C1004 1.427 . S
N1008 C1005 1.384 . S
N1009 C1001 1.427 1_655 S
N1009 C1007 1.384 . S
H1010 C1016 0.930 . S
H1011 C1020 0.930 . S
H1012 C1025 0.929 . S
H1013 C1023 0.929 . S
H1014 C1018 0.931 . S
H1015 C1024 0.929 . S
C1016 H1010 0.930 . S
C1016 C1017 1.367 . S
C1016 C1024 1.378 . S
C1017 C1016 1.367 . S
C1017 C1025 1.433 1_655 S
C1018 H1014 0.931 . S
C1018 C1020 1.378 . S
C1018 C1022 1.350 1_565 S
C1019 C1022 1.463 . S
C1019 C1024 1.350 1_455 S
C1019 N1027 1.427 . S
C1020 H1011 0.930 . S
C1020 C1018 1.378 . S
C1020 C1021 1.367 . S
C1021 C1020 1.367 . S
C1021 C1023 1.433 . S
C1022 C1018 1.350 1_545 S
C1022 C1019 1.463 . S
C1022 N1026 1.427 . S
C1023 H1013 0.929 . S
C1023 C1021 1.433 . S
C1023 N1026 1.384 1_565 S
C1024 H1015 0.929 . S
C1024 C1016 1.378 . S
C1024 C1019 1.350 1_655 S
C1025 H1012 0.929 . S
C1025 C1017 1.433 1_455 S
C1025 N1027 1.384 . S
N1026 C1022 1.427 . S
N1026 C1023 1.384 1_545 S
N1027 C1019 1.427 . S
N1027 C1025 1.384 . S
H1028 C1034 0.930 . S
H1029 C1038 0.930 . S
H1030 C1043 0.929 . S
H1031 C1041 0.929 . S
H1032 C1036 0.929 . S
H1033 C1042 0.929 . S
C1034 H1028 0.930 . S
C1034 C1035 1.367 . S
C1034 C1042 1.378 . S
C1035 C1034 1.367 . S
C1035 C1043 1.433 . S
C1036 H1032 0.929 . S
C1036 C1038 1.378 . S
C1036 C1040 1.350 1_565 S
C1037 C1040 1.463 . S
C1037 C1042 1.350 . S
C1037 N1045 1.427 . S
C1038 H1029 0.930 . S
C1038 C1036 1.378 . S
C1038 C1039 1.367 . S
C1039 C1038 1.367 . S
C1039 C1041 1.433 1_565 S
C1040 C1036 1.350 1_545 S
C1040 C1037 1.463 . S
C1040 N1044 1.427 . S
C1041 H1031 0.929 . S
C1041 C1039 1.433 1_545 S
C1041 N1044 1.384 . S
C1042 H1033 0.929 . S
C1042 C1034 1.378 . S
C1042 C1037 1.350 . S
C1043 H1030 0.929 . S
C1043 C1035 1.433 . S
C1043 N1045 1.384 . S
N1044 C1040 1.427 . S
N1044 C1041 1.384 . S
N1045 C1037 1.427 . S
N1045 C1043 1.384 . S
H1046 C1052 0.930 . S
H1047 C1056 0.930 . S
H1048 C1061 0.929 . S
H1049 C1059 0.929 . S
H1050 C1054 0.929 . S
H1051 C1060 0.929 . S
C1052 H1046 0.930 . S
C1052 C1053 1.367 . S
C1052 C1060 1.378 . S
C1053 C1052 1.367 . S
C1053 C1061 1.433 . S
C1054 H1050 0.929 . S
C1054 C1056 1.378 . S
C1054 C1058 1.350 . S
C1055 C1058 1.463 . S
C1055 C1060 1.350 . S
C1055 N1063 1.427 . S
C1056 H1047 0.930 . S
C1056 C1054 1.378 . S
C1056 C1057 1.367 . S
C1057 C1056 1.367 . S
C1057 C1059 1.433 . S
C1058 C1054 1.350 . S
C1058 C1055 1.463 . S
C1058 N1062 1.427 . S
C1059 H1049 0.929 . S
C1059 C1057 1.433 . S
C1059 N1062 1.384 . S
C1060 H1051 0.929 . S
C1060 C1052 1.378 . S
C1060 C1055 1.350 . S
C1061 H1048 0.929 . S
C1061 C1053 1.433 . S
C1061 N1063 1.384 . S
N1062 C1058 1.427 . S
N1062 C1059 1.384 . S
N1063 C1055 1.427 . S
N1063 C1061 1.384 . S
H1064 C1070 0.930 . S
H1065 C1074 0.930 . S
H1066 C1079 0.929 . S
H1067 C1077 0.929 . S
H1068 C1072 0.929 . S
H1069 C1078 0.929 . S
C1070 H1064 0.930 . S
C1070 C1071 1.367 . S
C1070 C1078 1.378 . S
C1071 C1070 1.367 . S
C1071 C1079 1.433 . S
C1072 H1068 0.929 . S
C1072 C1074 1.378 . S
C1072 C1076 1.350 1_655 S
C1073 C1076 1.463 . S
C1073 C1078 1.350 . S
C1073 N1081 1.427 . S
C1074 H1065 0.930 . S
C1074 C1072 1.378 . S
C1074 C1075 1.367 . S
C1075 C1074 1.367 . S
C1075 C1077 1.433 1_655 S
C1076 C1072 1.350 1_455 S
C1076 C1073 1.463 . S
C1076 N1080 1.427 . S
C1077 H1067 0.929 . S
C1077 C1075 1.433 1_455 S
C1077 N1080 1.384 . S
C1078 H1069 0.929 . S
C1078 C1070 1.378 . S
C1078 C1073 1.350 . S
C1079 H1066 0.929 . S
C1079 C1071 1.433 . S
C1079 N1081 1.384 . S
N1080 C1076 1.427 . S
N1080 C1077 1.384 . S
N1081 C1073 1.427 . S
N1081 C1079 1.384 . S
H1082 C1088 0.930 . S
H1083 C1092 0.930 . S
H1084 C1097 0.932 . S
H1085 C1095 0.929 . S
H1086 C1090 0.929 . S
H1087 C1096 0.929 1_655 S
C1088 H1082 0.930 . S
C1088 C1089 1.367 . S
C1088 C1096 1.378 1_565 S
C1089 C1088 1.367 . S
C1089 C1097 1.446 . S
C1090 H1086 0.929 . S
C1090 C1092 1.378 . S
C1090 C1094 1.350 . S
C1091 C1094 1.463 . S
C1091 C1096 1.350 . S
C1091 N1099 1.427 . S
C1092 H1083 0.930 . S
C1092 C1090 1.378 . S
C1092 C1093 1.367 1_455 S
C1093 C1092 1.367 1_655 S
C1093 C1095 1.433 . S
C1094 C1090 1.350 . S
C1094 C1091 1.463 . S
C1094 N1098 1.427 1_455 S
C1095 H1085 0.929 . S
C1095 C1093 1.433 . S
C1095 N1098 1.384 . S
C1096 H1087 0.929 1_455 S
C1096 C1088 1.378 1_545 S
C1096 C1091 1.350 . S
C1097 H1084 0.932 . S
C1097 C1089 1.446 . S
C1097 N1099 1.370 1_565 S
N1098 C1094 1.427 1_655 S
N1098 C1095 1.384 . S
N1099 C1091 1.427 . S
N1099 C1097 1.370 1_545 S
H1100 C1106 0.930 . S
H1101 C1110 0.930 . S
H1102 C1115 0.929 . S
H1103 C1113 0.929 . S
H1104 C1108 0.929 . S
H1105 C1114 0.929 1_565 S
C1106 H1100 0.930 . S
C1106 C1107 1.367 . S
C1106 C1114 1.378 . S
C1107 C1106 1.367 . S
C1107 C1115 1.433 . S
C1108 H1104 0.929 . S
C1108 C1110 1.378 . S
C1108 C1112 1.350 . S
C1109 C1112 1.463 . S
C1109 C1114 1.350 . S
C1109 N1117 1.427 . S
C1110 H1101 0.930 . S
C1110 C1108 1.378 . S
C1110 C1111 1.367 1_545 S
C1111 C1110 1.367 1_565 S
C1111 C1113 1.433 . S
C1112 C1108 1.350 . S
C1112 C1109 1.463 . S
C1112 N1116 1.427 1_545 S
C1113 H1103 0.929 . S
C1113 C1111 1.433 . S
C1113 N1116 1.384 . S
C1114 H1105 0.929 1_545 S
C1114 C1106 1.378 . S
C1114 C1109 1.350 . S
C1115 H1102 0.929 . S
C1115 C1107 1.433 . S
C1115 N1117 1.384 . S
N1116 C1112 1.427 1_565 S
N1116 C1113 1.384 . S
N1117 C1109 1.427 . S
N1117 C1115 1.384 . S
H1118 C1124 0.930 . S
H1119 C1128 0.930 . S
H1120 C1133 0.929 . S
H1121 C1131 0.929 . S
H1122 C1126 0.929 . S
H1123 C1132 0.929 . S
C1124 H1118 0.930 . S
C1124 C1125 1.367 . S
C1124 C1132 1.378 . S
C1125 C1124 1.367 . S
C1125 C1133 1.433 . S
C1126 H1122 0.929 . S
C1126 C1128 1.378 . S
C1126 C1130 1.350 . S
C1127 C1130 1.463 . S
C1127 C1132 1.350 . S
C1127 N1135 1.427 . S
C1128 H1119 0.930 . S
C1128 C1126 1.378 . S
C1128 C1129 1.367 . S
C1129 C1128 1.367 . S
C1129 C1131 1.433 . S
C1130 C1126 1.350 . S
C1130 C1127 1.463 . S
C1130 N1134 1.427 . S
C1131 H1121 0.929 . S
C1131 C1129 1.433 . S
C1131 N1134 1.384 . S
C1132 H1123 0.929 . S
C1132 C1124 1.378 . S
C1132 C1127 1.350 . S
C1133 H1120 0.929 . S
C1133 C1125 1.433 . S
C1133 N1135 1.384 . S
N1134 C1130 1.427 . S
N1134 C1131 1.384 . S
N1135 C1127 1.427 . S
N1135 C1133 1.384 . S
H1136 C1142 0.930 . S
H1137 C1146 0.930 . S
H1138 C1151 0.929 . S
H1139 C1149 0.929 . S
H1140 C1144 0.929 . S
H1141 C1150 0.929 . S
C1142 H1136 0.930 . S
C1142 C1143 1.367 . S
C1142 C1150 1.378 . S
C1143 C1142 1.367 . S
C1143 C1151 1.433 . S
C1144 H1140 0.929 . S
C1144 C1146 1.378 . S
C1144 C1148 1.350 . S
C1145 C1148 1.463 . S
C1145 C1150 1.350 . S
C1145 N1153 1.427 . S
C1146 H1137 0.930 . S
C1146 C1144 1.378 . S
C1146 C1147 1.367 . S
C1147 C1146 1.367 . S
C1147 C1149 1.433 . S
C1148 C1144 1.350 . S
C1148 C1145 1.463 . S
C1148 N1152 1.427 . S
C1149 H1139 0.929 . S
C1149 C1147 1.433 . S
C1149 N1152 1.384 . S
C1150 H1141 0.929 . S
C1150 C1142 1.378 . S
C1150 C1145 1.350 . S
C1151 H1138 0.929 . S
C1151 C1143 1.433 . S
C1151 N1153 1.384 . S
N1152 C1148 1.427 . S
N1152 C1149 1.384 . S
N1153 C1145 1.427 . S
N1153 C1151 1.384 . S
H1154 C1160 0.930 . S
H1155 C1164 0.930 . S
H1156 C1169 0.929 . S
H1157 C1167 0.929 . S
H1158 C1162 0.929 . S
H1159 C1168 0.929 . S
C1160 H1154 0.930 . S
C1160 C1161 1.367 . S
C1160 C1168 1.378 . S
C1161 C1160 1.367 . S
C1161 C1169 1.433 . S
C1162 H1158 0.929 . S
C1162 C1164 1.378 . S
C1162 C1166 1.350 . S
C1163 C1166 1.463 . S
C1163 C1168 1.350 . S
C1163 N1171 1.427 . S
C1164 H1155 0.930 . S
C1164 C1162 1.378 . S
C1164 C1165 1.367 . S
C1165 C1164 1.367 . S
C1165 C1167 1.433 . S
C1166 C1162 1.350 . S
C1166 C1163 1.463 . S
C1166 N1170 1.427 . S
C1167 H1157 0.929 . S
C1167 C1165 1.433 . S
C1167 N1170 1.384 . S
C1168 H1159 0.929 . S
C1168 C1160 1.378 . S
C1168 C1163 1.350 . S
C1169 H1156 0.929 . S
C1169 C1161 1.433 . S
C1169 N1171 1.384 . S
N1170 C1166 1.427 . S
N1170 C1167 1.384 . S
N1171 C1163 1.427 . S
N1171 C1169 1.384 . S
H1172 C1178 0.930 . S
H1173 C1182 0.930 . S
H1174 C1187 0.929 . S
H1175 C1185 0.929 . S
H1176 C1180 0.929 . S
H1177 C1186 0.929 . S
C1178 H1172 0.930 . S
C1178 C1179 1.367 . S
C1178 C1186 1.378 . S
C1179 C1178 1.367 . S
C1179 C1187 1.433 . S
C1180 H1176 0.929 . S
C1180 C1182 1.378 . S
C1180 C1184 1.350 . S
C1181 C1184 1.463 . S
C1181 C1186 1.350 . S
C1181 N1189 1.427 . S
C1182 H1173 0.930 . S
C1182 C1180 1.378 . S
C1182 C1183 1.367 . S
C1183 C1182 1.367 . S
C1183 C1185 1.433 . S
C1184 C1180 1.350 . S
C1184 C1181 1.463 . S
C1184 N1188 1.427 . S
C1185 H1175 0.929 . S
C1185 C1183 1.433 . S
C1185 N1188 1.384 . S
C1186 H1177 0.929 . S
C1186 C1178 1.378 . S
C1186 C1181 1.350 . S
C1187 H1174 0.929 . S
C1187 C1179 1.433 . S
C1187 N1189 1.384 . S
N1188 C1184 1.427 . S
N1188 C1185 1.384 . S
N1189 C1181 1.427 . S
N1189 C1187 1.384 . S
H1190 C1196 0.930 . S
H1191 C1200 0.930 . S
H1192 C1205 0.929 . S
H1193 C1203 0.929 . S
H1194 C1198 0.929 . S
H1195 C1204 0.929 . S
C1196 H1190 0.930 . S
C1196 C1197 1.367 . S
C1196 C1204 1.378 . S
C1197 C1196 1.367 . S
C1197 C1205 1.433 . S
C1198 H1194 0.929 . S
C1198 C1200 1.378 . S
C1198 C1202 1.350 . S
C1199 C1202 1.463 . S
C1199 C1204 1.350 . S
C1199 N1207 1.427 . S
C1200 H1191 0.930 . S
C1200 C1198 1.378 . S
C1200 C1201 1.367 . S
C1201 C1200 1.367 . S
C1201 C1203 1.433 . S
C1202 C1198 1.350 . S
C1202 C1199 1.463 . S
C1202 N1206 1.427 . S
C1203 H1193 0.929 . S
C1203 C1201 1.433 . S
C1203 N1206 1.384 . S
C1204 H1195 0.929 . S
C1204 C1196 1.378 . S
C1204 C1199 1.350 . S
C1205 H1192 0.929 . S
C1205 C1197 1.433 . S
C1205 N1207 1.384 . S
N1206 C1202 1.427 . S
N1206 C1203 1.384 . S
N1207 C1199 1.427 . S
N1207 C1205 1.384 . S
H1208 C1214 0.930 . S
H1209 C1218 0.930 . S
H1210 C1223 0.929 . S
H1211 C1221 0.929 . S
H1212 C1216 0.929 . S
H1213 C1222 0.929 . S
C1214 H1208 0.930 . S
C1214 C1215 1.367 . S
C1214 C1222 1.378 . S
C1215 C1214 1.367 . S
C1215 C1223 1.433 . S
C1216 H1212 0.929 . S
C1216 C1218 1.378 . S
C1216 C1220 1.350 . S
C1217 C1220 1.463 . S
C1217 C1222 1.350 . S
C1217 N1225 1.427 . S
C1218 H1209 0.930 . S
C1218 C1216 1.378 . S
C1218 C1219 1.367 . S
C1219 C1218 1.367 . S
C1219 C1221 1.433 . S
C1220 C1216 1.350 . S
C1220 C1217 1.463 . S
C1220 N1224 1.427 . S
C1221 H1211 0.929 . S
C1221 C1219 1.433 . S
C1221 N1224 1.384 . S
C1222 H1213 0.929 . S
C1222 C1214 1.378 . S
C1222 C1217 1.350 . S
C1223 H1210 0.929 . S
C1223 C1215 1.433 . S
C1223 N1225 1.384 . S
N1224 C1220 1.427 . S
N1224 C1221 1.384 . S
N1225 C1217 1.427 . S
N1225 C1223 1.384 . S
H1226 C1232 0.930 . S
H1227 C1236 0.930 . S
H1228 C1241 0.929 . S
H1229 C1239 0.929 . S
H1230 C1234 0.929 . S
H1231 C1240 0.929 . S
C1232 H1226 0.930 . S
C1232 C1233 1.367 . S
C1232 C1240 1.378 . S
C1233 C1232 1.367 . S
C1233 C1241 1.433 . S
C1234 H1230 0.929 . S
C1234 C1236 1.378 . S
C1234 C1238 1.350 . S
C1235 C1238 1.463 . S
C1235 C1240 1.350 . S
C1235 N1243 1.427 . S
C1236 H1227 0.930 . S
C1236 C1234 1.378 . S
C1236 C1237 1.367 . S
C1237 C1236 1.367 . S
C1237 C1239 1.433 . S
C1238 C1234 1.350 . S
C1238 C1235 1.463 . S
C1238 N1242 1.427 . S
C1239 H1229 0.929 . S
C1239 C1237 1.433 . S
C1239 N1242 1.384 . S
C1240 H1231 0.929 . S
C1240 C1232 1.378 . S
C1240 C1235 1.350 . S
C1241 H1228 0.929 . S
C1241 C1233 1.433 . S
C1241 N1243 1.384 . S
N1242 C1238 1.427 . S
N1242 C1239 1.384 . S
N1243 C1235 1.427 . S
N1243 C1241 1.384 . S
H1244 C1250 0.930 . S
H1245 C1254 0.930 . S
H1246 C1259 0.929 . S
H1247 C1257 0.929 . S
H1248 C1252 0.929 . S
H1249 C1258 0.929 . S
C1250 H1244 0.930 . S
C1250 C1251 1.367 . S
C1250 C1258 1.378 . S
C1251 C1250 1.367 . S
C1251 C1259 1.433 . S
C1252 H1248 0.929 . S
C1252 C1254 1.378 . S
C1252 C1256 1.350 . S
C1253 C1256 1.463 . S
C1253 C1258 1.350 . S
C1253 N1261 1.427 . S
C1254 H1245 0.930 . S
C1254 C1252 1.378 . S
C1254 C1255 1.367 . S
C1255 C1254 1.367 . S
C1255 C1257 1.433 . S
C1256 C1252 1.350 . S
C1256 C1253 1.463 . S
C1256 N1260 1.427 . S
C1257 H1247 0.929 . S
C1257 C1255 1.433 . S
C1257 N1260 1.384 . S
C1258 H1249 0.929 . S
C1258 C1250 1.378 . S
C1258 C1253 1.350 . S
C1259 H1246 0.929 . S
C1259 C1251 1.433 . S
C1259 N1261 1.384 . S
N1260 C1256 1.427 . S
N1260 C1257 1.384 . S
N1261 C1253 1.427 . S
N1261 C1259 1.384 . S
H1262 C1268 0.930 . S
H1263 C1272 0.930 . S
H1264 C1277 0.929 . S
H1265 C1275 0.929 . S
H1266 C1270 0.929 . S
H1267 C1276 0.929 . S
C1268 H1262 0.930 . S
C1268 C1269 1.367 . S
C1268 C1276 1.378 . S
C1269 C1268 1.367 . S
C1269 C1277 1.433 . S
C1270 H1266 0.929 . S
C1270 C1272 1.378 . S
C1270 C1274 1.350 . S
C1271 C1274 1.463 . S
C1271 C1276 1.350 . S
C1271 N1279 1.427 . S
C1272 H1263 0.930 . S
C1272 C1270 1.378 . S
C1272 C1273 1.367 . S
C1273 C1272 1.367 . S
C1273 C1275 1.433 . S
C1274 C1270 1.350 . S
C1274 C1271 1.463 . S
C1274 N1278 1.427 . S
C1275 H1265 0.929 . S
C1275 C1273 1.433 . S
C1275 N1278 1.384 . S
C1276 H1267 0.929 . S
C1276 C1268 1.378 . S
C1276 C1271 1.350 . S
C1277 H1264 0.929 . S
C1277 C1269 1.433 . S
C1277 N1279 1.384 . S
N1278 C1274 1.427 . S
N1278 C1275 1.384 . S
N1279 C1271 1.427 . S
N1279 C1277 1.384 . S
H1280 C1286 0.930 . S
H1281 C1290 0.930 . S
H1282 C1295 0.929 . S
H1283 C1293 0.929 . S
H1284 C1288 0.929 1_554 S
H1285 C1294 0.929 . S
C1286 H1280 0.930 . S
C1286 C1287 1.367 1_556 S
C1286 C1294 1.378 . S
C1287 C1286 1.367 1_554 S
C1287 C1295 1.433 . S
C1288 H1284 0.929 1_556 S
C1288 C1290 1.378 . S
C1288 C1292 1.350 . S
C1289 C1292 1.463 1_455 S
C1289 C1294 1.350 . S
C1289 N1297 1.427 1_556 S
C1290 H1281 0.930 . S
C1290 C1288 1.378 . S
C1290 C1291 1.367 . S
C1291 C1290 1.367 . S
C1291 C1293 1.433 . S
C1292 C1288 1.350 . S
C1292 C1289 1.463 1_655 S
C1292 N1296 1.428 . S
C1293 H1283 0.929 . S
C1293 C1291 1.433 . S
C1293 N1296 1.387 . S
C1294 H1285 0.929 . S
C1294 C1286 1.378 . S
C1294 C1289 1.350 . S
C1295 H1282 0.929 . S
C1295 C1287 1.433 . S
C1295 N1297 1.384 . S
N1296 C1292 1.428 . S
N1296 C1293 1.387 . S
N1297 C1289 1.427 1_554 S
N1297 C1295 1.384 . S
H1298 C1304 0.930 . S
H1299 C1308 0.930 . S
H1300 C1313 0.929 . S
H1301 C1311 0.929 1_655 S
H1302 C1306 0.929 . S
H1303 C1312 0.942 . S
C1304 H1298 0.930 . S
C1304 C1305 1.367 . S
C1304 C1312 1.365 1_565 S
C1305 C1304 1.367 . S
C1305 C1313 1.433 . S
C1306 H1302 0.929 . S
C1306 C1308 1.378 . S
C1306 C1310 1.350 1_554 S
C1307 C1310 1.437 1_565 S
C1307 C1312 1.349 1_565 S
C1307 N1315 1.455 . S
C1308 H1299 0.930 . S
C1308 C1306 1.378 . S
C1308 C1309 1.366 . S
C1309 C1308 1.366 . S
C1309 C1311 1.433 1_554 S
C1310 C1306 1.350 1_556 S
C1310 C1307 1.437 1_545 S
C1310 N1314 1.427 . S
C1311 H1301 0.929 1_455 S
C1311 C1309 1.433 1_556 S
C1311 N1314 1.384 . S
C1312 H1303 0.942 . S
C1312 C1304 1.365 1_545 S
C1312 C1307 1.349 1_545 S
C1313 H1300 0.929 . S
C1313 C1305 1.433 . S
C1313 N1315 1.384 . S
N1314 C1310 1.427 . S
N1314 C1311 1.384 . S
N1315 C1307 1.455 . S
N1315 C1313 1.384 . S
H1316 C1322 0.930 . S
H1317 C1326 0.930 . S
H1318 C1331 0.929 . S
H1319 C1329 0.929 . S
H1320 C1324 0.929 1_554 S
H1321 C1330 0.922 1_565 S
C1322 H1316 0.930 . S
C1322 C1323 1.369 1_556 S
C1322 C1330 1.378 1_565 S
C1323 C1322 1.369 1_554 S
C1323 C1331 1.428 1_565 S
C1324 H1320 0.929 1_556 S
C1324 C1326 1.378 . S
C1324 C1328 1.350 . S
C1325 C1328 1.463 . S
C1325 C1330 1.350 . S
C1325 N1333 1.427 1_556 S
C1326 H1317 0.930 . S
C1326 C1324 1.378 . S
C1326 C1327 1.367 . S
C1327 C1326 1.367 . S
C1327 C1329 1.433 . S
C1328 C1324 1.350 . S
C1328 C1325 1.463 . S
C1328 N1332 1.427 . S
C1329 H1319 0.929 . S
C1329 C1327 1.433 . S
C1329 N1332 1.384 . S
C1330 H1321 0.922 1_545 S
C1330 C1322 1.378 1_545 S
C1330 C1325 1.350 . S
C1331 H1318 0.929 . S
C1331 C1323 1.428 1_545 S
C1331 N1333 1.384 . S
N1332 C1328 1.427 . S
N1332 C1329 1.384 . S
N1333 C1325 1.427 1_554 S
N1333 C1331 1.384 . S
H1334 C1340 0.930 . S
H1335 C1344 0.930 . S
H1336 C1349 0.929 . S
H1337 C1347 0.929 . S
H1338 C1342 0.929 . S
H1339 C1348 0.929 . S
C1340 H1334 0.930 . S
C1340 C1341 1.367 . S
C1340 C1348 1.378 . S
C1341 C1340 1.367 . S
C1341 C1349 1.433 . S
C1342 H1338 0.929 . S
C1342 C1344 1.378 . S
C1342 C1346 1.350 1_554 S
C1343 C1346 1.463 . S
C1343 C1348 1.350 . S
C1343 N1351 1.427 . S
C1344 H1335 0.930 . S
C1344 C1342 1.378 . S
C1344 C1345 1.367 . S
C1345 C1344 1.367 . S
C1345 C1347 1.433 1_554 S
C1346 C1342 1.350 1_556 S
C1346 C1343 1.463 . S
C1346 N1350 1.427 . S
C1347 H1337 0.929 . S
C1347 C1345 1.433 1_556 S
C1347 N1350 1.384 . S
C1348 H1339 0.929 . S
C1348 C1340 1.378 . S
C1348 C1343 1.350 . S
C1349 H1336 0.929 . S
C1349 C1341 1.433 . S
C1349 N1351 1.384 . S
N1350 C1346 1.427 . S
N1350 C1347 1.384 . S
N1351 C1343 1.427 . S
N1351 C1349 1.384 . S
H1352 C1358 0.930 . S
H1353 C1362 0.930 . S
H1354 C1367 0.929 . S
H1355 C1365 0.929 . S
H1356 C1360 0.929 . S
H1357 C1366 0.933 . S
C1358 H1352 0.930 . S
C1358 C1359 1.368 . S
C1358 C1366 1.378 1_565 S
C1359 C1358 1.368 . S
C1359 C1367 1.429 1_565 S
C1360 H1356 0.929 . S
C1360 C1362 1.378 . S
C1360 C1364 1.350 . S
C1361 C1364 1.463 1_455 S
C1361 C1366 1.350 . S
C1361 N1369 1.427 . S
C1362 H1353 0.930 . S
C1362 C1360 1.378 . S
C1362 C1363 1.367 . S
C1363 C1362 1.367 . S
C1363 C1365 1.433 . S
C1364 C1360 1.350 . S
C1364 C1361 1.463 1_655 S
C1364 N1368 1.427 . S
C1365 H1355 0.929 . S
C1365 C1363 1.433 . S
C1365 N1368 1.384 . S
C1366 H1357 0.933 . S
C1366 C1358 1.378 1_545 S
C1366 C1361 1.350 . S
C1367 H1354 0.929 . S
C1367 C1359 1.429 1_545 S
C1367 N1369 1.384 . S
N1368 C1364 1.427 . S
N1368 C1365 1.384 . S
N1369 C1361 1.427 . S
N1369 C1367 1.384 . S
H1370 C1376 0.930 . S
H1371 C1380 0.930 . S
H1372 C1385 0.929 . S
H1373 C1383 0.929 . S
H1374 C1378 0.929 . S
H1375 C1384 0.929 . S
C1376 H1370 0.930 . S
C1376 C1377 1.367 . S
C1376 C1384 1.378 . S
C1377 C1376 1.367 . S
C1377 C1385 1.433 . S
C1378 H1374 0.929 . S
C1378 C1380 1.378 . S
C1378 C1382 1.350 . S
C1379 C1382 1.463 1_545 S
C1379 C1384 1.350 . S
C1379 N1387 1.427 . S
C1380 H1371 0.930 . S
C1380 C1378 1.378 . S
C1380 C1381 1.367 . S
C1381 C1380 1.367 . S
C1381 C1383 1.433 . S
C1382 C1378 1.350 . S
C1382 C1379 1.463 1_565 S
C1382 N1386 1.427 . S
C1383 H1373 0.929 . S
C1383 C1381 1.433 . S
C1383 N1386 1.384 . S
C1384 H1375 0.929 . S
C1384 C1376 1.378 . S
C1384 C1379 1.350 . S
C1385 H1372 0.929 . S
C1385 C1377 1.433 . S
C1385 N1387 1.384 . S
N1386 C1382 1.427 . S
N1386 C1383 1.384 . S
N1387 C1379 1.427 . S
N1387 C1385 1.384 . S
H1388 C1394 0.930 . S
H1389 C1398 0.930 . S
H1390 C1403 0.929 . S
H1391 C1401 0.929 . S
H1392 C1396 0.929 . S
H1393 C1402 0.929 . S
C1394 H1388 0.930 . S
C1394 C1395 1.367 . S
C1394 C1402 1.378 . S
C1395 C1394 1.367 . S
C1395 C1403 1.433 . S
C1396 H1392 0.929 . S
C1396 C1398 1.378 . S
C1396 C1400 1.350 . S
C1397 C1400 1.463 . S
C1397 C1402 1.350 . S
C1397 N1405 1.427 . S
C1398 H1389 0.930 . S
C1398 C1396 1.378 . S
C1398 C1399 1.367 . S
C1399 C1398 1.367 . S
C1399 C1401 1.433 . S
C1400 C1396 1.350 . S
C1400 C1397 1.463 . S
C1400 N1404 1.427 . S
C1401 H1391 0.929 . S
C1401 C1399 1.433 . S
C1401 N1404 1.384 . S
C1402 H1393 0.929 . S
C1402 C1394 1.378 . S
C1402 C1397 1.350 . S
C1403 H1390 0.929 . S
C1403 C1395 1.433 . S
C1403 N1405 1.384 . S
N1404 C1400 1.427 . S
N1404 C1401 1.384 . S
N1405 C1397 1.427 . S
N1405 C1403 1.384 . S
H1406 C1412 0.930 . S
H1407 C1416 0.930 . S
H1408 C1421 0.929 . S
H1409 C1419 0.929 . S
H1410 C1414 0.929 . S
H1411 C1420 0.929 1_655 S
C1412 H1406 0.930 . S
C1412 C1413 1.370 . S
C1412 C1420 1.378 1_655 S
C1413 C1412 1.370 . S
C1413 C1421 1.427 1_655 S
C1414 H1410 0.929 . S
C1414 C1416 1.378 . S
C1414 C1418 1.350 . S
C1415 C1418 1.463 . S
C1415 C1420 1.350 . S
C1415 N1423 1.427 . S
C1416 H1407 0.930 . S
C1416 C1414 1.378 . S
C1416 C1417 1.367 . S
C1417 C1416 1.367 . S
C1417 C1419 1.433 . S
C1418 C1414 1.350 . S
C1418 C1415 1.463 . S
C1418 N1422 1.427 . S
C1419 H1409 0.929 . S
C1419 C1417 1.433 . S
C1419 N1422 1.384 . S
C1420 H1411 0.929 1_455 S
C1420 C1412 1.378 1_455 S
C1420 C1415 1.350 . S
C1421 H1408 0.929 . S
C1421 C1413 1.427 1_455 S
C1421 N1423 1.384 . S
N1422 C1418 1.427 . S
N1422 C1419 1.384 . S
N1423 C1415 1.427 . S
N1423 C1421 1.384 . S
C855 C38 2.520 . S
C859 C144 2.515 . S
C873 C91 2.514 . S
C877 C197 2.520 . S
C891 C250 2.519 . S
C895 C356 2.514 . S
C909 C409 2.517 . S
C913 C303 2.515 . S
C927 C453 1.013 . S
C931 C559 0.998 . S
C945 C612 1.000 . S
C949 C506 1.013 . S
C963 C771 1.009 . S
C967 C665 1.000 . S
C981 C824 0.998 . S
C985 C718 1.012 . S
C999 C410 2.427 . S
C1003 C39 2.427 . S
C1017 C92 2.420 . S
C1021 C251 2.421 . S
C1035 C304 2.421 . S
C1039 C145 2.420 . S
C1053 C198 2.426 . S
C1057 C357 2.427 . S
C1071 C817 1.022 . S
C1075 C446 1.021 . S
C1089 C499 1.042 . S
C1093 C658 1.043 . S
C1107 C552 1.035 . S
C1111 C711 1.038 . S
C1125 C764 1.037 . S
C1129 C605 1.040 . S
C1143 C29 0.760 . S
C1147 C241 0.774 . S
C1161 C82 0.782 . S
C1165 C294 0.771 . S
C1179 C347 0.780 . S
C1183 C135 0.767 . S
C1197 C188 0.757 . S
C1201 C400 0.769 . S
C1215 C674 1.343 . S
C1219 C462 1.336 . S
C1233 C727 1.345 . S
C1237 C515 1.336 . S
C1251 C568 1.340 . S
C1255 C780 1.343 . S
C1269 C621 1.345 . S
C1273 C833 1.337 . S
C1287 C22 2.302 . S
C1291 C463 2.302 . S
C1305 C516 2.295 . S
C1309 C75 2.297 1_455 S
C1323 C128 2.305 . S
C1327 C569 2.300 . S
C1341 C622 2.297 . S
C1345 C181 2.296 . S
C1359 C234 2.305 . S
C1363 C675 2.301 . S
C1377 C287 2.301 . S
C1381 C728 2.301 . S
C1395 C781 2.294 . S
C1399 C340 2.294 . S
C1413 C393 2.298 . S
C1417 C834 2.293 . S
