# Generated by pormake.
# Topology fny, (5)-cn, num edge types: 1
# Building blocks:
#     Node 0, Type 0, BuildingBlock: XOMCOT_clean_sbu_0, # of connection points: 5
#     Node 1, Type 0, BuildingBlock: XOMCOT_clean_sbu_0, # of connection points: 5
#     Node 2, Type 0, BuildingBlock: XOMCOT_clean_sbu_0, # of connection points: 5
#     Node 3, Type 0, BuildingBlock: XOMCOT_clean_sbu_0, # of connection points: 5
#     Node 4, Type 0, BuildingBlock: XOMCOT_clean_sbu_0, # of connection points: 5
#     Node 5, Type 0, BuildingBlock: XOMCOT_clean_sbu_0, # of connection points: 5
#     Node 6, Type 0, BuildingBlock: XOMCOT_clean_sbu_0, # of connection points: 5
#     Node 7, Type 0, BuildingBlock: XOMCOT_clean_sbu_0, # of connection points: 5
#     Node 8, Type 0, BuildingBlock: XOMCOT_clean_sbu_0, # of connection points: 5
#     Node 9, Type 0, BuildingBlock: XOMCOT_clean_sbu_0, # of connection points: 5
#     Node 10, Type 0, BuildingBlock: XOMCOT_clean_sbu_0, # of connection points: 5
#     Node 11, Type 0, BuildingBlock: XOMCOT_clean_sbu_0, # of connection points: 5
#     Edge 12, Type (0, 0), BuildingBlock: TEMPAE_clean_linker_10, # of connection points: 2
#     Edge 13, Type (0, 0), BuildingBlock: TEMPAE_clean_linker_10, # of connection points: 2
#     Edge 14, Type (0, 0), BuildingBlock: TEMPAE_clean_linker_10, # of connection points: 2
#     Edge 15, Type (0, 0), BuildingBlock: TEMPAE_clean_linker_10, # of connection points: 2
#     Edge 16, Type (0, 0), BuildingBlock: TEMPAE_clean_linker_10, # of connection points: 2
#     Edge 17, Type (0, 0), BuildingBlock: TEMPAE_clean_linker_10, # of connection points: 2
#     Edge 18, Type (0, 0), BuildingBlock: TEMPAE_clean_linker_10, # of connection points: 2
#     Edge 19, Type (0, 0), BuildingBlock: TEMPAE_clean_linker_10, # of connection points: 2
#     Edge 20, Type (0, 0), BuildingBlock: TEMPAE_clean_linker_10, # of connection points: 2
#     Edge 21, Type (0, 0), BuildingBlock: TEMPAE_clean_linker_10, # of connection points: 2
#     Edge 22, Type (0, 0), BuildingBlock: TEMPAE_clean_linker_10, # of connection points: 2
#     Edge 23, Type (0, 0), BuildingBlock: TEMPAE_clean_linker_10, # of connection points: 2
#     Edge 24, Type (0, 0), BuildingBlock: TEMPAE_clean_linker_10, # of connection points: 2
#     Edge 25, Type (0, 0), BuildingBlock: TEMPAE_clean_linker_10, # of connection points: 2
#     Edge 26, Type (0, 0), BuildingBlock: TEMPAE_clean_linker_10, # of connection points: 2
#     Edge 27, Type (0, 0), BuildingBlock: TEMPAE_clean_linker_10, # of connection points: 2
#     Edge 28, Type (0, 0), BuildingBlock: TEMPAE_clean_linker_10, # of connection points: 2
#     Edge 29, Type (0, 0), BuildingBlock: TEMPAE_clean_linker_10, # of connection points: 2
#     Edge 30, Type (0, 0), BuildingBlock: TEMPAE_clean_linker_10, # of connection points: 2
#     Edge 31, Type (0, 0), BuildingBlock: TEMPAE_clean_linker_10, # of connection points: 2
#     Edge 32, Type (0, 0), BuildingBlock: TEMPAE_clean_linker_10, # of connection points: 2
#     Edge 33, Type (0, 0), BuildingBlock: TEMPAE_clean_linker_10, # of connection points: 2
#     Edge 34, Type (0, 0), BuildingBlock: TEMPAE_clean_linker_10, # of connection points: 2
#     Edge 35, Type (0, 0), BuildingBlock: TEMPAE_clean_linker_10, # of connection points: 2
#     Edge 36, Type (0, 0), BuildingBlock: TEMPAE_clean_linker_10, # of connection points: 2
#     Edge 37, Type (0, 0), BuildingBlock: TEMPAE_clean_linker_10, # of connection points: 2
#     Edge 38, Type (0, 0), BuildingBlock: TEMPAE_clean_linker_10, # of connection points: 2
#     Edge 39, Type (0, 0), BuildingBlock: TEMPAE_clean_linker_10, # of connection points: 2
#     Edge 40, Type (0, 0), BuildingBlock: TEMPAE_clean_linker_10, # of connection points: 2
#     Edge 41, Type (0, 0), BuildingBlock: TEMPAE_clean_linker_10, # of connection points: 2
# Relax obj value: 0.273
# Max RMSD: 0.233
# Mean RMSD: 0.233
data_MOF--net-fny--node1-XOMCOT_clean_sbu_0--edge1-TEMPAE_clean_linker_10
_symmetry_space_group_name_H-M    P1
_symmetry_Int_Tables_number       1
_symmetry_cell_setting            triclinic
loop_
_symmetry_equiv_pos_as_xyz
'x, y, z'
_cell_length_a     61.886451
_cell_length_b     61.925062
_cell_length_c     24.680286
_cell_angle_alpha  90.074711
_cell_angle_beta   89.87771
_cell_angle_gamma 120.00797
loop_
_atom_site_label
_atom_site_type_symbol
_atom_site_fract_x
_atom_site_fract_y
_atom_site_fract_z
_atom_type_partial_charge
Co0 Co 0.35863 0.53679 0.28914 0.0
C1 C 0.40483 0.55805 0.34962 0.0
C2 C 0.40319 0.58606 0.30179 0.0
C3 C 0.42706 0.59588 0.322 0.0
N4 N 0.38945 0.5623 0.31908 0.0
N5 N 0.42802 0.57789 0.35074 0.0
H6 H 0.39936 0.54041 0.36917 0.0
H7 H 0.39673 0.59515 0.27414 0.0
C8 C 0.36935 0.54509 0.16829 0.0
O9 O 0.35858 0.5208 0.16207 0.0
N10 N 0.32754 0.51146 0.25798 0.0
C11 C 0.31489 0.48652 0.26571 0.0
C12 C 0.2953 0.47594 0.22983 0.0
C13 C 0.31466 0.51574 0.21975 0.0
N14 N 0.29531 0.4944 0.20118 0.0
C15 C 0.36816 0.49637 0.30947 0.0
C16 C 0.4085 0.51184 0.24081 0.0
C17 C 0.40101 0.49024 0.27179 0.0
C18 C 0.3806 0.48273 0.3068 0.0
C19 C 0.39554 0.52497 0.24484 0.0
N20 N 0.37478 0.51661 0.27696 0.0
H21 H 0.35394 0.49125 0.34 0.0
H22 H 0.40325 0.54261 0.22413 0.0
H23 H 0.31949 0.47627 0.29401 0.0
H24 H 0.32045 0.53396 0.20283 0.0
O25 O 0.34522 0.52522 0.3617 0.0
O26 O 0.34124 0.55374 0.31702 0.0
O27 O 0.37024 0.55416 0.21556 0.0
C28 C 0.33643 0.54038 0.36093 0.0
H29 H 0.4426 0.61446 0.31501 0.0
H30 H 0.28268 0.45621 0.22357 0.0
H31 H 0.42452 0.51887 0.21413 0.0
H32 H 0.37483 0.46698 0.33372 0.0
Co33 Co 0.83404 0.35077 0.7877 0.0
C34 C 0.86066 0.39728 0.85106 0.0
C35 C 0.82607 0.39187 0.8199 0.0
C36 C 0.83913 0.41549 0.84189 0.0
N37 N 0.83995 0.38073 0.82473 0.0
N38 N 0.86114 0.41891 0.86027 0.0
H39 H 0.87507 0.39374 0.86443 0.0
H40 H 0.80837 0.38393 0.79903 0.0
C41 C 0.8435 0.38904 0.70121 0.0
O42 O 0.86207 0.40492 0.73167 0.0
N43 N 0.82786 0.32107 0.75039 0.0
C44 C 0.83711 0.30605 0.76246 0.0
C45 C 0.83145 0.2893 0.72059 0.0
C46 C 0.81666 0.31334 0.70211 0.0
N47 N 0.81884 0.29417 0.68256 0.0
C48 C 0.8838 0.36323 0.81937 0.0
C49 C 0.90745 0.38267 0.72194 0.0
C50 C 0.9222 0.38551 0.76763 0.0
C51 C 0.90976 0.37442 0.81616 0.0
C52 C 0.88138 0.37095 0.72696 0.0
N53 N 0.87006 0.3637 0.77655 0.0
H54 H 0.87497 0.35546 0.85775 0.0
H55 H 0.87054 0.3681 0.69079 0.0
H56 H 0.84816 0.30789 0.79789 0.0
H57 H 0.80757 0.32193 0.68113 0.0
O58 O 0.83007 0.33412 0.85705 0.0
O59 O 0.79914 0.33395 0.81324 0.0
O60 O 0.83065 0.36605 0.7161 0.0
C61 C 0.80646 0.32688 0.85585 0.0
H62 H 0.83307 0.42912 0.8434 0.0
H63 H 0.83719 0.27547 0.71725 0.0
H64 H 0.91587 0.3899 0.68279 0.0
H65 H 0.91996 0.3746 0.8519 0.0
Co66 Co 0.49388 0.82658 0.29429 0.0
C67 C 0.47072 0.8514 0.35339 0.0
C68 C 0.4436 0.81472 0.32731 0.0
C69 C 0.43124 0.82628 0.34796 0.0
N70 N 0.4684 0.83073 0.33003 0.0
N71 N 0.44848 0.84955 0.36319 0.0
H72 H 0.48814 0.86756 0.3638 0.0
H73 H 0.4351 0.79642 0.30895 0.0
C74 C 0.46298 0.83221 0.20642 0.0
O75 O 0.46276 0.84972 0.23598 0.0
N76 N 0.51874 0.82204 0.25812 0.0
C77 C 0.54329 0.83301 0.2694 0.0
C78 C 0.55492 0.82777 0.22782 0.0
C79 C 0.51566 0.81021 0.21076 0.0
N80 N 0.53745 0.8137 0.19084 0.0
C81 C 0.52907 0.87705 0.32578 0.0
C82 C 0.53233 0.89992 0.22784 0.0
C83 C 0.54426 0.91503 0.27309 0.0
C84 C 0.5432 0.90303 0.32203 0.0
C85 C 0.51854 0.87387 0.23337 0.0
N86 N 0.51526 0.8628 0.283 0.0
H87 H 0.52823 0.86854 0.36442 0.0
H88 H 0.51064 0.86285 0.19739 0.0
H89 H 0.55224 0.84492 0.30395 0.0
H90 H 0.49787 0.79976 0.19052 0.0
O91 O 0.50671 0.82364 0.36438 0.0
O92 O 0.47735 0.79178 0.31972 0.0
O93 O 0.47542 0.82178 0.22201 0.0
C94 C 0.49134 0.79978 0.36285 0.0
H95 H 0.41123 0.81833 0.35082 0.0
H96 H 0.57475 0.8348 0.22379 0.0
H97 H 0.53318 0.90805 0.18855 0.0
H98 H 0.55308 0.91359 0.35758 0.0
Co99 Co 0.68138 0.48972 0.78976 0.0
C100 C 0.6327 0.46741 0.84709 0.0
C101 C 0.64038 0.43983 0.815 0.0
C102 C 0.61623 0.42798 0.8343 0.0
N103 N 0.65056 0.46463 0.82244 0.0
N104 N 0.61141 0.44554 0.85339 0.0
H105 H 0.63495 0.48479 0.86138 0.0
H106 H 0.6495 0.4311 0.79453 0.0
C107 C 0.64544 0.46381 0.69806 0.0
O108 O 0.62911 0.46661 0.72675 0.0
N109 N 0.71191 0.51399 0.75607 0.0
C110 C 0.72682 0.53802 0.77027 0.0
C111 C 0.74489 0.54948 0.73081 0.0
C112 C 0.72099 0.51104 0.70895 0.0
N113 N 0.74092 0.53246 0.69217 0.0
C114 C 0.66697 0.52529 0.8235 0.0
C115 C 0.65169 0.53309 0.72419 0.0
C116 C 0.64656 0.54297 0.77063 0.0
C117 C 0.65565 0.53991 0.82035 0.0
C118 C 0.66352 0.51885 0.72927 0.0
N119 N 0.66855 0.51287 0.77924 0.0
H120 H 0.67309 0.52282 0.8627 0.0
H121 H 0.66806 0.51228 0.69288 0.0
H122 H 0.72414 0.5468 0.80555 0.0
H123 H 0.71287 0.49365 0.6868 0.0
O124 O 0.69632 0.50116 0.86097 0.0
O125 O 0.69789 0.47142 0.81576 0.0
O126 O 0.66777 0.47243 0.71617 0.0
C127 C 0.70387 0.48506 0.85955 0.0
H128 H 0.60323 0.40811 0.83389 0.0
H129 H 0.75908 0.569 0.72943 0.0
H130 H 0.64611 0.53569 0.68433 0.0
H131 H 0.65374 0.54842 0.85704 0.0
Co132 Co 0.20594 0.67503 0.2911 0.0
C133 C 0.18213 0.62587 0.34628 0.0
C134 C 0.21906 0.63717 0.31855 0.0
C135 C 0.2082 0.61285 0.33634 0.0
N136 N 0.20252 0.6452 0.32425 0.0
N137 N 0.18478 0.60575 0.3526 0.0
H138 H 0.16548 0.62605 0.35763 0.0
H139 H 0.23724 0.64779 0.29988 0.0
C140 C 0.19853 0.63915 0.2003 0.0
O141 O 0.18067 0.62156 0.22945 0.0
N142 N 0.21002 0.70461 0.25683 0.0
C143 C 0.19899 0.71802 0.26932 0.0
C144 C 0.20392 0.735 0.22819 0.0
C145 C 0.22157 0.71356 0.20928 0.0
N146 N 0.21782 0.73179 0.19035 0.0
C147 C 0.15582 0.65833 0.32724 0.0
C148 C 0.13221 0.64395 0.22822 0.0
C149 C 0.11754 0.63984 0.27486 0.0
C150 C 0.12992 0.64767 0.3247 0.0
C151 C 0.15822 0.65463 0.23269 0.0
N152 N 0.16961 0.66018 0.28229 0.0
H153 H 0.16463 0.664 0.36638 0.0
H154 H 0.16907 0.65872 0.19599 0.0
H155 H 0.18719 0.71482 0.30427 0.0
H156 H 0.23192 0.70635 0.18799 0.0
O157 O 0.20934 0.69025 0.36204 0.0
O158 O 0.24103 0.69347 0.3152 0.0
O159 O 0.20997 0.66183 0.2173 0.0
C160 C 0.23323 0.69906 0.35936 0.0
H161 H 0.21668 0.60123 0.33643 0.0
H162 H 0.19675 0.74771 0.22494 0.0
H163 H 0.12375 0.63935 0.18842 0.0
H164 H 0.11968 0.64514 0.36201 0.0
Co165 Co 0.54635 0.19861 0.78955 0.0
C166 C 0.56466 0.17172 0.85241 0.0
C167 C 0.59401 0.19999 0.80422 0.0
C168 C 0.60219 0.18469 0.82518 0.0
N169 N 0.57041 0.1916 0.82121 0.0
N170 N 0.58334 0.1666 0.85409 0.0
H171 H 0.54668 0.16054 0.8717 0.0
H172 H 0.60403 0.2152 0.77609 0.0
C173 C 0.555 0.19475 0.66946 0.0
O174 O 0.53067 0.18134 0.66349 0.0
N175 N 0.52253 0.20609 0.75672 0.0
C176 C 0.49789 0.19654 0.76604 0.0
C177 C 0.48845 0.20564 0.72738 0.0
C178 C 0.5279 0.2219 0.71504 0.0
N179 N 0.50738 0.22118 0.6949 0.0
C180 C 0.50367 0.14974 0.80825 0.0
C181 C 0.51881 0.1232 0.74387 0.0
C182 C 0.49678 0.11006 0.77395 0.0
C183 C 0.48936 0.12368 0.80676 0.0
C184 C 0.53281 0.14924 0.74731 0.0
N185 N 0.52473 0.16249 0.77735 0.0
H186 H 0.4985 0.15948 0.83697 0.0
H187 H 0.55092 0.15843 0.72823 0.0
H188 H 0.48711 0.18346 0.79737 0.0
H189 H 0.54635 0.23274 0.69764 0.0
O190 O 0.53453 0.20119 0.86133 0.0
O191 O 0.56455 0.23293 0.81729 0.0
O192 O 0.56413 0.20338 0.71649 0.0
C193 C 0.55062 0.22493 0.86061 0.0
H194 H 0.62021 0.18626 0.81846 0.0
H195 H 0.46902 0.20007 0.72153 0.0
H196 H 0.52584 0.11336 0.71993 0.0
H197 H 0.47284 0.11423 0.83192 0.0
Co198 Co 0.49585 0.67013 0.74888 0.0
C199 C 0.47878 0.6265 0.68095 0.0
C200 C 0.44891 0.62311 0.73123 0.0
C201 C 0.44121 0.60059 0.70571 0.0
N202 N 0.47252 0.63915 0.71567 0.0
N203 N 0.46031 0.60276 0.67518 0.0
H204 H 0.49689 0.6344 0.66163 0.0
H205 H 0.43844 0.62711 0.76071 0.0
C206 C 0.48482 0.65442 0.86717 0.0
O207 O 0.50887 0.66359 0.87489 0.0
N208 N 0.51925 0.70165 0.78252 0.0
C209 C 0.54133 0.71988 0.76314 0.0
C210 C 0.55172 0.73903 0.80023 0.0
C211 C 0.51591 0.71077 0.82933 0.0
N212 N 0.53576 0.73304 0.84214 0.0
C213 C 0.541 0.6671 0.74143 0.0
C214 C 0.52186 0.62055 0.78825 0.0
C215 C 0.5461 0.63209 0.76698 0.0
C216 C 0.55573 0.65581 0.74393 0.0
C217 C 0.50793 0.6327 0.78594 0.0
N218 N 0.51754 0.65593 0.76325 0.0
H219 H 0.54807 0.68414 0.71896 0.0
H220 H 0.48884 0.62272 0.79995 0.0
H221 H 0.54928 0.71984 0.7242 0.0
H222 H 0.499 0.70173 0.85309 0.0
O223 O 0.5085 0.68452 0.67751 0.0
O224 O 0.47773 0.68591 0.71924 0.0
O225 O 0.47693 0.65658 0.82053 0.0
C226 C 0.49207 0.69177 0.67658 0.0
H227 H 0.42318 0.58387 0.70992 0.0
H228 H 0.56967 0.75589 0.79678 0.0
H229 H 0.51354 0.60206 0.80577 0.0
H230 H 0.57409 0.66506 0.72549 0.0
Co231 Co 0.84004 0.49238 0.24425 0.0
C232 C 0.86765 0.47265 0.18313 0.0
C233 C 0.83413 0.44349 0.2184 0.0
C234 C 0.84748 0.43316 0.19681 0.0
N235 N 0.84715 0.46838 0.21072 0.0
N236 N 0.86881 0.45173 0.17555 0.0
H237 H 0.88113 0.49039 0.16675 0.0
H238 H 0.8167 0.43369 0.2404 0.0
C239 C 0.84978 0.46577 0.33512 0.0
O240 O 0.86923 0.46913 0.30683 0.0
N241 N 0.83258 0.51572 0.27844 0.0
C242 C 0.84129 0.53975 0.26495 0.0
C243 C 0.83441 0.55074 0.30491 0.0
C244 C 0.82049 0.51229 0.32568 0.0
N245 N 0.82158 0.53343 0.34322 0.0
C246 C 0.8898 0.52962 0.2125 0.0
C247 C 0.91247 0.53743 0.31225 0.0
C248 C 0.92758 0.54858 0.26649 0.0
C249 C 0.91563 0.54509 0.21639 0.0
C250 C 0.88654 0.52196 0.30632 0.0
N251 N 0.87578 0.51633 0.25606 0.0
H252 H 0.88132 0.52731 0.17319 0.0
H253 H 0.87531 0.5145 0.34232 0.0
H254 H 0.85277 0.5489 0.22991 0.0
H255 H 0.81155 0.49479 0.34744 0.0
O256 O 0.83639 0.5039 0.17322 0.0
O257 O 0.80545 0.47321 0.21737 0.0
O258 O 0.83634 0.47477 0.31738 0.0
C259 C 0.81291 0.48711 0.17397 0.0
H260 H 0.84189 0.41358 0.19685 0.0
H261 H 0.83948 0.57018 0.30691 0.0
H262 H 0.92055 0.54068 0.35238 0.0
H263 H 0.92615 0.55354 0.17979 0.0
Co264 Co 0.36124 0.83202 0.7488 0.0
C265 C 0.40481 0.85905 0.68215 0.0
C266 C 0.40965 0.83425 0.73463 0.0
C267 C 0.4323 0.85028 0.71057 0.0
N268 N 0.39259 0.84001 0.71669 0.0
N269 N 0.42917 0.86623 0.67887 0.0
H270 H 0.39613 0.86819 0.66162 0.0
H271 H 0.40629 0.82039 0.76515 0.0
C272 C 0.37456 0.83538 0.86794 0.0
O273 O 0.36521 0.85014 0.87482 0.0
N274 N 0.32951 0.82392 0.78128 0.0
C275 C 0.31261 0.83019 0.7645 0.0
C276 C 0.29327 0.82128 0.80129 0.0
C277 C 0.3194 0.81002 0.82598 0.0
N278 N 0.29786 0.80893 0.84032 0.0
C279 C 0.36635 0.88099 0.73814 0.0
C280 C 0.41042 0.90681 0.79521 0.0
C281 C 0.40086 0.92047 0.76965 0.0
C282 C 0.3784 0.90708 0.74091 0.0
C283 C 0.39795 0.88082 0.79088 0.0
N284 N 0.37565 0.8679 0.76409 0.0
H285 H 0.35048 0.8716 0.71184 0.0
H286 H 0.4071 0.87127 0.80697 0.0
H287 H 0.31377 0.84018 0.72788 0.0
H288 H 0.32755 0.80071 0.84772 0.0
O289 O 0.34746 0.83067 0.6769 0.0
O290 O 0.34562 0.79829 0.71814 0.0
O291 O 0.37372 0.82597 0.82108 0.0
C292 C 0.34017 0.80701 0.6754 0.0
H293 H 0.44976 0.85059 0.71689 0.0
H294 H 0.27745 0.82422 0.80006 0.0
H295 H 0.42777 0.91608 0.81755 0.0
H296 H 0.37073 0.91668 0.7184 0.0
Co297 Co 0.54522 0.35646 0.24253 0.0
C298 C 0.56055 0.39999 0.17631 0.0
C299 C 0.59077 0.4051 0.22719 0.0
C300 C 0.59707 0.42764 0.2032 0.0
N301 N 0.56781 0.38793 0.21017 0.0
N302 N 0.57766 0.42434 0.1724 0.0
H303 H 0.54265 0.39116 0.15609 0.0
H304 H 0.60169 0.40182 0.25673 0.0
C305 C 0.55526 0.3674 0.36292 0.0
O306 O 0.53103 0.3551 0.37125 0.0
N307 N 0.5225 0.3247 0.27536 0.0
C308 C 0.49777 0.30959 0.26766 0.0
C309 C 0.4891 0.29043 0.3047 0.0
C310 C 0.52869 0.3137 0.31444 0.0
N311 N 0.50856 0.29342 0.33468 0.0
C312 C 0.50184 0.36185 0.22741 0.0
C313 C 0.51697 0.40296 0.29349 0.0
C314 C 0.49501 0.39448 0.26345 0.0
C315 C 0.48751 0.37358 0.23009 0.0
C316 C 0.53089 0.39085 0.2892 0.0
N317 N 0.52295 0.36993 0.25787 0.0
H318 H 0.49671 0.34725 0.19791 0.0
H319 H 0.54893 0.39957 0.30833 0.0
H320 H 0.48641 0.31228 0.23857 0.0
H321 H 0.54744 0.32126 0.32997 0.0
O322 O 0.53287 0.342 0.17096 0.0
O323 O 0.56412 0.34158 0.21228 0.0
O324 O 0.56383 0.36957 0.31457 0.0
C325 C 0.54967 0.33524 0.1699 0.0
H326 H 0.61429 0.4451 0.20871 0.0
H327 H 0.46978 0.2764 0.31137 0.0
H328 H 0.52413 0.41968 0.31795 0.0
H329 H 0.47098 0.36666 0.20514 0.0
Co330 Co 0.20054 0.53473 0.74626 0.0
C331 C 0.17383 0.54961 0.67464 0.0
C332 C 0.19703 0.5799 0.7276 0.0
C333 C 0.18108 0.58574 0.70063 0.0
N334 N 0.19222 0.55715 0.71114 0.0
N335 N 0.16616 0.56629 0.66848 0.0
H336 H 0.16554 0.53167 0.65462 0.0
H337 H 0.21015 0.59087 0.75894 0.0
C338 C 0.19591 0.54561 0.86415 0.0
O339 O 0.18156 0.52148 0.87154 0.0
N340 N 0.20906 0.51209 0.78172 0.0
C341 C 0.20243 0.48842 0.76804 0.0
C342 C 0.21164 0.47897 0.80618 0.0
C343 C 0.22368 0.51718 0.82571 0.0
N344 N 0.22494 0.49715 0.8421 0.0
C345 C 0.15207 0.49009 0.73532 0.0
C346 C 0.12486 0.50829 0.78712 0.0
C347 C 0.11201 0.48456 0.76351 0.0
C348 C 0.12601 0.47545 0.73766 0.0
C349 C 0.15095 0.52214 0.78465 0.0
N350 N 0.16454 0.51283 0.76029 0.0
H351 H 0.16187 0.48374 0.70993 0.0
H352 H 0.16004 0.541 0.79985 0.0
H353 H 0.19212 0.47858 0.73255 0.0
H354 H 0.23265 0.53492 0.84656 0.0
O355 O 0.2029 0.52161 0.67582 0.0
O356 O 0.23455 0.55307 0.71686 0.0
O357 O 0.20555 0.55396 0.81733 0.0
C358 C 0.22648 0.53835 0.6748 0.0
H359 H 0.18015 0.60264 0.70523 0.0
H360 H 0.20877 0.46024 0.80766 0.0
H361 H 0.1148 0.51634 0.80647 0.0
H362 H 0.11681 0.45768 0.7168 0.0
Co363 Co 0.67544 0.1931 0.24196 0.0
C364 C 0.63048 0.16655 0.17771 0.0
C365 C 0.62917 0.19457 0.22648 0.0
C366 C 0.606 0.17984 0.20356 0.0
N367 N 0.64432 0.18598 0.21031 0.0
N368 N 0.60686 0.16192 0.17412 0.0
H369 H 0.63739 0.15543 0.15856 0.0
H370 H 0.63423 0.20967 0.25487 0.0
C371 C 0.66137 0.189 0.36115 0.0
O372 O 0.67069 0.17421 0.36778 0.0
N373 N 0.70702 0.20078 0.27434 0.0
C374 C 0.72453 0.19559 0.25613 0.0
C375 C 0.74386 0.20454 0.29284 0.0
C376 C 0.71681 0.21423 0.31968 0.0
N377 N 0.73868 0.21593 0.33314 0.0
C378 C 0.67096 0.14433 0.23281 0.0
C379 C 0.62542 0.11793 0.28463 0.0
C380 C 0.63609 0.1047 0.2618 0.0
C381 C 0.65929 0.11828 0.23606 0.0
C382 C 0.63793 0.14399 0.28138 0.0
N383 N 0.66074 0.15713 0.25646 0.0
H384 H 0.68747 0.15389 0.20834 0.0
H385 H 0.62849 0.15346 0.2965 0.0
H386 H 0.72391 0.18655 0.21831 0.0
H387 H 0.70836 0.22308 0.34216 0.0
O388 O 0.68926 0.19461 0.16993 0.0
O389 O 0.69153 0.22702 0.21223 0.0
O390 O 0.6627 0.19875 0.31448 0.0
C391 C 0.69693 0.21838 0.16916 0.0
H392 H 0.58972 0.18183 0.2089 0.0
H393 H 0.76021 0.2025 0.2904 0.0
H394 H 0.60732 0.10818 0.30414 0.0
H395 H 0.66781 0.10877 0.21622 0.0
C396 C 0.38801 0.55204 0.0747 0.0
C397 C 0.38384 0.56194 0.12227 0.0
C398 C 0.40343 0.5676 0.03278 0.0
C399 C 0.41484 0.59386 0.03774 0.0
C400 C 0.41003 0.60398 0.08483 0.0
C401 C 0.39481 0.58797 0.12657 0.0
C402 C 0.40819 0.55588 0.98389 0.0
C403 C 0.42142 0.63179 0.09165 0.0
C404 C 0.47525 0.63347 0.95838 0.0
C405 C 0.46688 0.64011 0.9118 0.0
C406 C 0.45862 0.61876 0.99963 0.0
C407 C 0.43283 0.61062 0.99506 0.0
C408 C 0.42431 0.61777 0.94879 0.0
C409 C 0.44134 0.63221 0.90762 0.0
C410 C 0.46863 0.6114 0.04761 0.0
C411 C 0.3971 0.6099 0.94248 0.0
H412 H 0.37979 0.53202 0.07072 0.0
H413 H 0.39173 0.59591 0.16292 0.0
H414 H 0.40335 0.56227 0.94625 0.0
H415 H 0.42833 0.56186 0.98152 0.0
H416 H 0.39731 0.53518 0.98516 0.0
H417 H 0.41445 0.63668 0.12853 0.0
H418 H 0.44201 0.64067 0.0945 0.0
H419 H 0.41726 0.63986 0.05576 0.0
H420 H 0.49486 0.6393 0.96221 0.0
H421 H 0.4346 0.63723 0.87203 0.0
H422 H 0.45975 0.59079 0.04947 0.0
H423 H 0.46391 0.61758 0.0858 0.0
H424 H 0.48919 0.61952 0.04567 0.0
H425 H 0.38578 0.58929 0.93964 0.0
H426 H 0.39361 0.61809 0.90583 0.0
H427 H 0.39049 0.61562 0.97864 0.0
C428 C 0.85204 0.42403 0.63796 0.0
C429 C 0.83928 0.39824 0.64839 0.0
C430 C 0.85046 0.43372 0.5876 0.0
C431 C 0.8356 0.41735 0.54584 0.0
C432 C 0.82174 0.39132 0.55665 0.0
C433 C 0.82378 0.38205 0.6077 0.0
C434 C 0.86573 0.46153 0.57837 0.0
C435 C 0.80551 0.37313 0.51365 0.0
C436 C 0.82541 0.44941 0.42313 0.0
C437 C 0.84454 0.45217 0.38802 0.0
C438 C 0.82147 0.43717 0.47367 0.0
C439 C 0.83704 0.42753 0.48974 0.0
C440 C 0.85592 0.42979 0.45378 0.0
C441 C 0.85936 0.44193 0.40376 0.0
C442 C 0.801 0.43507 0.51044 0.0
C443 C 0.87322 0.42014 0.46894 0.0
H444 H 0.86386 0.43687 0.66903 0.0
H445 H 0.81378 0.36213 0.61513 0.0
H446 H 0.88038 0.46558 0.54761 0.0
H447 H 0.85379 0.46871 0.5624 0.0
H448 H 0.87492 0.47191 0.61601 0.0
H449 H 0.79274 0.35436 0.53076 0.0
H450 H 0.79426 0.38002 0.49279 0.0
H451 H 0.81749 0.37125 0.48267 0.0
H452 H 0.81376 0.45711 0.41152 0.0
H453 H 0.87411 0.44368 0.37716 0.0
H454 H 0.8093 0.44659 0.54722 0.0
H455 H 0.78911 0.41548 0.52396 0.0
H456 H 0.78907 0.44137 0.49032 0.0
H457 H 0.88451 0.43048 0.50472 0.0
H458 H 0.88613 0.42218 0.43545 0.0
H459 H 0.86227 0.40017 0.48033 0.0
C460 C 0.46164 0.82824 0.10478 0.0
C461 C 0.44939 0.82591 0.1541 0.0
C462 C 0.45001 0.82743 0.05495 0.0
C463 C 0.42535 0.82357 0.05452 0.0
C464 C 0.41242 0.81945 0.10435 0.0
C465 C 0.42473 0.82114 0.15335 0.0
C466 C 0.46474 0.83242 1.00316 0.0
C467 C 0.38595 0.81455 0.10621 0.0
C468 C 0.40311 0.85242 0.9475 0.0
C469 C 0.38852 0.83217 0.91333 0.0
C470 C 0.41615 0.85009 0.99163 0.0
C471 C 0.41396 0.82667 1.00343 0.0
C472 C 0.3994 0.80615 0.96866 0.0
C473 C 0.3872 0.80926 0.92348 0.0
C474 C 0.43194 0.87271 0.02632 0.0
C475 C 0.39588 0.78069 0.98045 0.0
H476 H 0.48083 0.83229 0.10529 0.0
H477 H 0.41525 0.81939 0.19149 0.0
H478 H 0.45365 0.8182 0.97212 0.0
H479 H 0.46903 0.85082 0.98669 0.0
H480 H 0.48258 0.83256 1.00952 0.0
H481 H 0.3774 0.80832 0.14695 0.0
H482 H 0.38573 0.83185 0.09568 0.0
H483 H 0.37421 0.80012 0.07605 0.0
H484 H 0.4045 0.87028 0.93941 0.0
H485 H 0.37589 0.79354 0.89726 0.0
H486 H 0.45088 0.87524 0.03153 0.0
H487 H 0.42348 0.87 0.06719 0.0
H488 H 0.43377 0.89004 1.00865 0.0
H489 H 0.41419 0.78183 0.98607 0.0
H490 H 0.38556 0.76711 0.94764 0.0
H491 H 0.38531 0.77352 0.01887 0.0
C492 C 0.59592 0.40163 0.40131 0.0
C493 C 0.57228 0.38054 0.40941 0.0
C494 C 0.61086 0.41561 0.44554 0.0
C495 C 0.60224 0.40811 0.49936 0.0
C496 C 0.57894 0.38609 0.50759 0.0
C497 C 0.5642 0.37282 0.46275 0.0
C498 C 0.6353 0.43911 0.43458 0.0
C499 C 0.5691 0.37698 0.56396 0.0
C500 C 0.64512 0.43561 0.62324 0.0
C501 C 0.63754 0.45194 0.64366 0.0
C502 C 0.63437 0.42165 0.57547 0.0
C503 C 0.61602 0.42449 0.54688 0.0
C504 C 0.60946 0.44203 0.56598 0.0
C505 C 0.62003 0.45524 0.61415 0.0
C506 C 0.64175 0.403 0.55709 0.0
C507 C 0.59049 0.44625 0.53659 0.0
H508 H 0.60231 0.40788 0.36036 0.0
H509 H 0.54607 0.35649 0.46959 0.0
H510 H 0.63379 0.45555 0.44692 0.0
H511 H 0.65047 0.43937 0.45892 0.0
H512 H 0.6406 0.4411 0.39107 0.0
H513 H 0.55188 0.35839 0.56365 0.0
H514 H 0.58344 0.37582 0.58866 0.0
H515 H 0.56484 0.39043 0.58422 0.0
H516 H 0.65848 0.43282 0.64601 0.0
H517 H 0.61422 0.46799 0.62936 0.0
H518 H 0.64669 0.40554 0.51343 0.0
H519 H 0.62568 0.38384 0.56216 0.0
H520 H 0.65779 0.40456 0.58048 0.0
H521 H 0.59543 0.44999 0.49303 0.0
H522 H 0.58909 0.46209 0.55382 0.0
H523 H 0.57186 0.42919 0.53914 0.0
C524 C 0.20065 0.64016 0.09844 0.0
C525 C 0.20482 0.63178 0.14793 0.0
C526 C 0.2014 0.62896 0.04901 0.0
C527 C 0.20697 0.60929 0.04907 0.0
C528 C 0.21285 0.60207 0.09892 0.0
C529 C 0.21124 0.61305 0.14761 0.0
C530 C 0.19452 0.637 0.9973 0.0
C531 C 0.21959 0.58178 0.10127 0.0
C532 C 0.17895 0.55648 0.94528 0.0
C533 C 0.19882 0.56294 0.90922 0.0
C534 C 0.18107 0.57198 0.98913 0.0
C535 C 0.20395 0.59428 0.99868 0.0
C536 C 0.22408 0.60104 0.96207 0.0
C537 C 0.22114 0.58551 0.91729 0.0
C538 C 0.15883 0.56422 0.02584 0.0
C539 C 0.24901 0.62418 0.97135 0.0
H540 H 0.19527 0.65435 0.09867 0.0
H541 H 0.21431 0.60644 0.18591 0.0
H542 H 0.20816 0.6401 0.96477 0.0
H543 H 0.176 0.62196 0.98337 0.0
H544 H 0.19359 0.65433 1.00281 0.0
H545 H 0.22694 0.58074 0.14162 0.0
H546 H 0.20282 0.56348 0.09263 0.0
H547 H 0.23379 0.58494 0.07001 0.0
H548 H 0.16152 0.53926 0.93893 0.0
H549 H 0.2366 0.59058 0.88968 0.0
H550 H 0.15498 0.5798 0.03071 0.0
H551 H 0.1629 0.55966 0.06664 0.0
H552 H 0.14175 0.54769 1.0101 0.0
H553 H 0.24665 0.64069 0.97611 0.0
H554 H 0.26231 0.62771 0.93766 0.0
H555 H 0.25728 0.62216 1.00953 0.0
C556 C 0.64095 0.17722 0.45287 0.0
C557 C 0.64766 0.19269 0.40699 0.0
C558 C 0.62676 0.17918 0.49528 0.0
C559 C 0.6193 0.19739 0.49268 0.0
C560 C 0.62656 0.21354 0.44717 0.0
C561 C 0.64042 0.21086 0.40473 0.0
C562 C 0.61916 0.16124 0.54229 0.0
C563 C 0.61946 0.23351 0.44303 0.0
C564 C 0.56139 0.184 0.57463 0.0
C565 C 0.57166 0.19725 0.62292 0.0
C566 C 0.57662 0.18434 0.53176 0.0
C567 C 0.60295 0.19859 0.53645 0.0
C568 C 0.61347 0.21275 0.58426 0.0
C569 C 0.59776 0.21177 0.62697 0.0
C570 C 0.56446 0.16868 0.48208 0.0
C571 C 0.64137 0.22856 0.59077 0.0
H572 H 0.64626 0.16301 0.45517 0.0
H573 H 0.64553 0.22298 0.36969 0.0
H574 H 0.62571 0.17167 0.58095 0.0
H575 H 0.5985 0.14993 0.54451 0.0
H576 H 0.62676 0.1484 0.53882 0.0
H577 H 0.62778 0.24555 0.40686 0.0
H578 H 0.59887 0.22478 0.44077 0.0
H579 H 0.62562 0.2454 0.47983 0.0
H580 H 0.5413 0.17271 0.57072 0.0
H581 H 0.60597 0.22219 0.66383 0.0
H582 H 0.56994 0.15421 0.47795 0.0
H583 H 0.57099 0.18043 0.44513 0.0
H584 H 0.54378 0.1593 0.48376 0.0
H585 H 0.64981 0.21642 0.59218 0.0
H586 H 0.64662 0.24 0.62829 0.0
H587 H 0.64958 0.24115 0.55541 0.0
C588 C 0.59729 0.45752 0.10525 0.0
C589 C 0.57624 0.44142 0.13547 0.0
C590 C 0.59449 0.46474 0.05332 0.0
C591 C 0.57003 0.45507 0.0321 0.0
C592 C 0.5495 0.4447 0.06791 0.0
C593 C 0.5528 0.43769 0.11977 0.0
C594 C 0.61746 0.47843 0.01823 0.0
C595 C 0.52356 0.43731 0.0492 0.0
C596 C 0.58516 0.46205 0.88735 0.0
C597 C 0.59011 0.44228 0.8834 0.0
C598 C 0.57307 0.46437 0.93311 0.0
C599 C 0.56629 0.44664 0.97497 0.0
C600 C 0.56558 0.42373 0.96417 0.0
C601 C 0.57781 0.42193 0.91823 0.0
C602 C 0.57112 0.48753 0.93967 0.0
C603 C 0.55622 0.40293 1.00538 0.0
H604 H 0.61558 0.46145 0.11852 0.0
H605 H 0.53662 0.42665 0.14512 0.0
H606 H 0.61878 0.46508 0.99024 0.0
H607 H 0.61649 0.49286 0.9936 0.0
H608 H 0.6348 0.48764 0.0428 0.0
H609 H 0.51383 0.44208 0.08083 0.0
H610 H 0.52376 0.44665 1.01069 0.0
H611 H 0.5126 0.41682 0.04325 0.0
H612 H 0.59319 0.47708 0.85802 0.0
H613 H 0.58059 0.40608 0.91389 0.0
H614 H 0.59002 0.50398 0.94507 0.0
H615 H 0.55927 0.48625 0.97473 0.0
H616 H 0.56323 0.4908 0.90224 0.0
H617 H 0.56989 0.40835 0.03891 0.0
H618 H 0.55365 0.38535 0.98735 0.0
H619 H 0.53815 0.39918 0.0227 0.0
C620 C 0.17566 0.57148 0.41467 0.0
C621 C 0.16712 0.58318 0.37944 0.0
C622 C 0.16089 0.55767 0.45848 0.0
C623 C 0.13752 0.55635 0.4669 0.0
C624 C 0.12662 0.56259 0.42407 0.0
C625 C 0.14172 0.57614 0.38028 0.0
C626 C 0.17241 0.54882 0.50054 0.0
C627 C 0.10058 0.55861 0.42799 0.0
C628 C 0.12985 0.54079 0.61085 0.0
C629 C 0.14829 0.5644 0.62914 0.0
C630 C 0.12096 0.53774 0.55768 0.0
C631 C 0.13104 0.55878 0.52346 0.0
C632 C 0.1441 0.58299 0.54672 0.0
C633 C 0.1529 0.58553 0.59976 0.0
C634 C 0.10418 0.51179 0.53637 0.0
C635 C 0.15302 0.6063 0.51309 0.0
H636 H 0.19491 0.57583 0.41258 0.0
H637 H 0.13447 0.58367 0.35039 0.0
H638 H 0.17925 0.56206 0.5351 0.0
H639 H 0.15848 0.53019 0.51612 0.0
H640 H 0.18848 0.54762 0.48386 0.0
H641 H 0.09065 0.55114 0.38902 0.0
H642 H 0.08965 0.54558 0.46115 0.0
H643 H 0.10148 0.57674 0.43504 0.0
H644 H 0.12475 0.52444 0.63546 0.0
H645 H 0.16616 0.60389 0.61491 0.0
H646 H 0.11494 0.50195 0.53208 0.0
H647 H 0.09599 0.51193 0.49651 0.0
H648 H 0.08889 0.501 0.56576 0.0
H649 H 0.16897 0.60914 0.48737 0.0
H650 H 0.15933 0.62312 0.53887 0.0
H651 H 0.13795 0.60464 0.48622 0.0
C652 C 0.57387 0.15063 0.10763 0.0
C653 C 0.58818 0.1438 0.13907 0.0
C654 C 0.56454 0.13907 0.05773 0.0
C655 C 0.57004 0.1205 0.03981 0.0
C656 C 0.5786 0.10944 0.07768 0.0
C657 C 0.58812 0.12159 0.12714 0.0
C658 C 0.55309 0.15007 0.0208 0.0
C659 C 0.58118 0.08718 0.06335 0.0
C660 C 0.56087 0.12499 0.89514 0.0
C661 C 0.58332 0.14735 0.88611 0.0
C662 C 0.55746 0.1114 0.9428 0.0
C663 C 0.57665 0.1212 0.98188 0.0
C664 C 0.60104 0.14002 0.96628 0.0
C665 C 0.60403 0.15304 0.91808 0.0
C666 C 0.53226 0.08903 0.95435 0.0
C667 C 0.623 0.14971 1.00443 0.0
H668 H 0.57299 0.16717 0.11813 0.0
H669 H 0.59783 0.1153 0.15358 0.0
H670 H 0.56686 0.16181 0.98946 0.0
H671 H 0.53646 0.13511 1.00011 0.0
H672 H 0.54734 0.16192 0.04332 0.0
H673 H 0.57395 0.07351 0.09714 0.0
H674 H 0.57098 0.0779 0.02566 0.0
H675 H 0.60119 0.09304 0.05821 0.0
H676 H 0.54519 0.11968 0.86816 0.0
H677 H 0.62166 0.16975 0.90967 0.0
H678 H 0.51823 0.09501 0.96002 0.0
H679 H 0.53249 0.07872 0.99089 0.0
H680 H 0.52612 0.07623 0.91897 0.0
H681 H 0.62078 0.16069 0.03734 0.0
H682 H 0.64094 0.16199 0.98339 0.0
H683 H 0.62416 0.13406 0.02304 0.0
C684 C 0.48304 0.58679 0.62244 0.0
C685 C 0.4604 0.58526 0.63732 0.0
C686 C 0.48562 0.57834 0.57151 0.0
C687 C 0.46527 0.56893 0.53538 0.0
C688 C 0.44114 0.56203 0.5556 0.0
C689 C 0.43904 0.57046 0.60678 0.0
C690 C 0.51089 0.58283 0.55419 0.0
C691 C 0.41817 0.54984 0.52019 0.0
C692 C 0.46231 0.60076 0.41384 0.0
C693 C 0.44818 0.57958 0.38231 0.0
C694 C 0.47341 0.59897 0.46156 0.0
C695 C 0.46986 0.57531 0.47715 0.0
C696 C 0.46121 0.55595 0.43854 0.0
C697 C 0.44998 0.55815 0.39131 0.0
C698 C 0.48469 0.62111 0.49942 0.0
C699 C 0.46026 0.53162 0.45032 0.0
H700 H 0.49932 0.59686 0.64801 0.0
H701 H 0.42131 0.56836 0.61936 0.0
H702 H 0.50998 0.57284 0.51614 0.0
H703 H 0.52374 0.6031 0.54819 0.0
H704 H 0.519 0.57669 0.58672 0.0
H705 H 0.40074 0.54315 0.54412 0.0
H706 H 0.41901 0.56345 0.48983 0.0
H707 H 0.41709 0.53373 0.49821 0.0
H708 H 0.46172 0.61764 0.40552 0.0
H709 H 0.44025 0.54218 0.36471 0.0
H710 H 0.50225 0.62368 0.51714 0.0
H711 H 0.47149 0.61796 0.53307 0.0
H712 H 0.48883 0.63863 0.47841 0.0
H713 H 0.47228 0.53317 0.48512 0.0
H714 H 0.46628 0.52539 0.41398 0.0
H715 H 0.44076 0.517 0.45929 0.0
C716 C 0.90965 0.4716 0.12989 0.0
C717 C 0.88681 0.45 0.1417 0.0
C718 C 0.92114 0.47413 0.07952 0.0
C719 C 0.90941 0.4545 0.0419 0.0
C720 C 0.89103 0.43053 0.06049 0.0
C721 C 0.87952 0.42864 0.11042 0.0
C722 C 0.94309 0.49887 0.06341 0.0
C723 C 0.87985 0.40798 0.02381 0.0
C724 C 0.87325 0.45302 0.92512 0.0
C725 C 0.87996 0.43928 0.89118 0.0
C726 C 0.88715 0.46416 0.97181 0.0
C727 C 0.90742 0.46041 0.98469 0.0
C728 C 0.91774 0.45242 0.9438 0.0
C729 C 0.90378 0.4419 0.89672 0.0
C730 C 0.877 0.47538 1.01178 0.0
C731 C 0.9413 0.45147 0.95328 0.0
H732 H 0.91671 0.48758 0.15667 0.0
H733 H 0.86283 0.41137 0.12083 0.0
H734 H 0.95708 0.49595 0.04146 0.0
H735 H 0.9369 0.50877 0.03559 0.0
H736 H 0.95212 0.51097 0.09919 0.0
H737 H 0.86986 0.39039 0.04738 0.0
H738 H 0.86621 0.40885 0.99607 0.0
H739 H 0.89445 0.40734 0.99897 0.0
H740 H 0.85557 0.45232 0.91945 0.0
H741 H 0.91009 0.4331 0.86766 0.0
H742 H 0.89231 0.49163 0.03282 0.0
H743 H 0.86549 0.46121 0.04265 0.0
H744 H 0.86498 0.48153 0.99148 0.0
H745 H 0.95604 0.46959 0.9696 0.0
H746 H 0.94823 0.44723 0.91546 0.0
H747 H 0.93788 0.43695 0.98379 0.0
C748 C 0.46426 0.89275 0.39331 0.0
C749 C 0.44502 0.8677 0.39226 0.0
C750 C 0.46703 0.90783 0.43805 0.0
C751 C 0.45009 0.89734 0.48153 0.0
C752 C 0.42734 0.87458 0.47341 0.0
C753 C 0.42523 0.85978 0.42874 0.0
C754 C 0.48995 0.93331 0.44172 0.0
C755 C 0.40719 0.86356 0.51624 0.0
C756 C 0.46269 0.87975 0.61242 0.0
C757 C 0.44648 0.88474 0.64216 0.0
C758 C 0.46964 0.88927 0.55998 0.0
C759 C 0.45944 0.9034 0.53783 0.0
C760 C 0.4492 0.9139 0.57302 0.0
C761 C 0.44263 0.90425 0.62554 0.0
C762 C 0.48345 0.87995 0.52542 0.0
C763 C 0.44125 0.93182 0.55301 0.0
H764 H 0.4787 0.89966 0.36252 0.0
H765 H 0.40967 0.84088 0.42659 0.0
H766 H 0.48909 0.9443 0.47637 0.0
H767 H 0.50677 0.9314 0.44595 0.0
H768 H 0.49221 0.94376 0.40359 0.0
H769 H 0.3894 0.84823 0.49973 0.0
H770 H 0.41321 0.85579 0.54962 0.0
H771 H 0.40353 0.87797 0.53334 0.0
H772 H 0.4668 0.86562 0.62642 0.0
H773 H 0.43159 0.90952 0.65056 0.0
H774 H 0.49725 0.89506 0.49907 0.0
H775 H 0.47002 0.86451 0.49911 0.0
H776 H 0.49341 0.87282 0.55054 0.0
H777 H 0.4504 0.94063 0.51407 0.0
H778 H 0.44579 0.9466 0.58375 0.0
H779 H 0.42072 0.92181 0.54723 0.0
C780 C 0.21973 0.47556 0.92815 0.0
C781 C 0.23489 0.49477 0.89245 0.0
C782 C 0.22826 0.47435 0.97991 0.0
C783 C 0.25279 0.4924 0.99528 0.0
C784 C 0.26843 0.51146 0.95858 0.0
C785 C 0.25907 0.51265 0.90774 0.0
C786 C 0.21087 0.45422 0.01859 0.0
C787 C 0.29494 0.53062 0.97311 0.0
C788 C 0.27091 0.50619 0.14298 0.0
C789 C 0.2823 0.4919 0.15174 0.0
C790 C 0.26033 0.50583 0.0926 0.0
C791 C 0.26209 0.49148 0.04989 0.0
C792 C 0.27347 0.47688 0.05885 0.0
C793 C 0.28317 0.47702 0.11009 0.0
C794 C 0.24774 0.52113 0.0848 0.0
C795 C 0.27633 0.46195 1.01381 0.0
H796 H 0.20085 0.46209 0.91615 0.0
H797 H 0.27058 0.52747 0.87968 0.0
H798 H 0.2191 0.44273 0.03141 0.0
H799 H 0.20827 0.46285 0.05565 0.0
H800 H 0.19228 0.44176 1.00036 0.0
H801 H 0.30502 0.54333 0.93879 0.0
H802 H 0.29499 0.54198 1.00792 0.0
H803 H 0.30535 0.52119 0.98573 0.0
H804 H 0.2705 0.51774 0.17555 0.0
H805 H 0.29254 0.46645 0.11705 0.0
H806 H 0.22874 0.50932 0.06797 0.0
H807 H 0.25843 0.53627 0.0552 0.0
H808 H 0.24625 0.52964 0.12326 0.0
H809 H 0.25785 0.44869 0.99635 0.0
H810 H 0.28531 0.45128 0.02786 0.0
H811 H 0.28783 0.47466 0.98072 0.0
C812 C 0.8092 0.29651 0.58686 0.0
C813 C 0.8109 0.28278 0.63014 0.0
C814 C 0.7997 0.28531 0.53668 0.0
C815 C 0.79192 0.25979 0.52947 0.0
C816 C 0.79481 0.24613 0.57198 0.0
C817 C 0.80424 0.25781 0.62201 0.0
C818 C 0.79687 0.30051 0.49233 0.0
C819 C 0.78688 0.21892 0.56544 0.0
C820 C 0.73943 0.22618 0.42953 0.0
C821 C 0.75223 0.22608 0.38266 0.0
C822 C 0.75212 0.23659 0.47785 0.0
C823 C 0.77829 0.24693 0.4796 0.0
C824 C 0.79132 0.24619 0.43308 0.0
C825 C 0.7781 0.23579 0.38494 0.0
C826 C 0.73754 0.23703 0.52665 0.0
C827 C 0.81924 0.25691 0.43385 0.0
H828 H 0.81502 0.31602 0.59236 0.0
H829 H 0.80555 0.24716 0.65533 0.0
H830 H 0.80471 0.29828 0.45367 0.0
H831 H 0.77676 0.29373 0.48553 0.0
H832 H 0.80623 0.32068 0.50252 0.0
H833 H 0.79318 0.21185 0.59977 0.0
H834 H 0.76624 0.2077 0.56304 0.0
H835 H 0.79444 0.21589 0.52718 0.0
H836 H 0.71935 0.21803 0.42856 0.0
H837 H 0.78806 0.23575 0.34885 0.0
H838 H 0.74393 0.25661 0.53845 0.0
H839 H 0.74092 0.2279 0.56165 0.0
H840 H 0.71714 0.22747 0.51889 0.0
H841 H 0.82867 0.27738 0.43993 0.0
H842 H 0.82627 0.25311 0.39564 0.0
H843 H 0.8246 0.24905 0.46824 0.0
C844 C 0.56009 0.80001 0.1304 0.0
C845 C 0.54114 0.80578 0.1386 0.0
C846 C 0.56242 0.79037 0.08062 0.0
C847 C 0.5453 0.78639 0.03853 0.0
C848 C 0.52691 0.79332 0.04582 0.0
C849 C 0.52517 0.80306 0.09566 0.0
C850 C 0.58242 0.7834 0.07391 0.0
C851 C 0.5083 0.78937 1.00189 0.0
C852 C 0.55486 0.77257 0.89359 0.0
C853 C 0.53935 0.74659 0.89181 0.0
C854 C 0.55783 0.78583 0.94177 0.0
C855 C 0.54482 0.77274 0.98888 0.0
C856 C 0.52971 0.74648 0.98767 0.0
C857 C 0.52729 0.73374 0.93926 0.0
C858 C 0.57427 0.81384 0.94191 0.0
C859 C 0.51546 0.73185 0.03709 0.0
H860 H 0.57249 0.80217 0.1635 0.0
H861 H 0.511 0.80826 0.10124 0.0
H862 H 0.57367 0.76281 0.0721 0.0
H863 H 0.59266 0.79096 0.0353 0.0
H864 H 0.596 0.79039 0.10787 0.0
H865 H 0.49613 0.79713 1.01301 0.0
H866 H 0.51813 0.79819 0.96356 0.0
H867 H 0.49629 0.76912 0.99393 0.0
H868 H 0.5642 0.7826 0.85707 0.0
H869 H 0.51587 0.71361 0.93864 0.0
H870 H 0.58765 0.81982 0.97611 0.0
H871 H 0.56265 0.82267 0.94782 0.0
H872 H 0.5849 0.82092 0.90349 0.0
H873 H 0.52838 0.73601 0.07166 0.0
H874 H 0.50533 0.71139 0.02985 0.0
H875 H 0.5017 0.73747 0.04921 0.0
C876 C 0.77925 0.55374 0.63687 0.0
C877 C 0.75372 0.5364 0.6413 0.0
C878 C 0.7921 0.5564 0.58813 0.0
C879 C 0.77901 0.54136 0.54311 0.0
C880 C 0.75305 0.52457 0.54682 0.0
C881 C 0.74074 0.52235 0.59582 0.0
C882 C 0.81979 0.57457 0.58543 0.0
C883 C 0.73839 0.50826 0.49962 0.0
C884 C 0.80485 0.55456 0.4 0.0
C885 C 0.81268 0.53699 0.39446 0.0
C886 C 0.79479 0.55703 0.44909 0.0
C887 C 0.79255 0.54153 0.49337 0.0
C888 C 0.80133 0.52445 0.48859 0.0
C889 C 0.81135 0.52247 0.43927 0.0
C890 C 0.78568 0.5755 0.45291 0.0
C891 C 0.79929 0.50759 0.53492 0.0
H892 H 0.7893 0.5646 0.67199 0.0
H893 H 0.72087 0.50943 0.59863 0.0
H894 H 0.83 0.56416 0.58148 0.0
H895 H 0.82434 0.58667 0.54918 0.0
H896 H 0.8267 0.58656 0.62207 0.0
H897 H 0.71806 0.49723 0.50827 0.0
H898 H 0.74129 0.51983 0.46311 0.0
H899 H 0.74514 0.49514 0.48979 0.0
H900 H 0.80583 0.56579 0.36545 0.0
H901 H 0.81804 0.50936 0.43572 0.0
H902 H 0.79321 0.58716 0.48978 0.0
H903 H 0.76503 0.56532 0.45639 0.0
H904 H 0.7911 0.5879 0.41693 0.0
H905 H 0.80797 0.51876 0.57194 0.0
H906 H 0.80836 0.49642 0.52557 0.0
H907 H 0.77934 0.49458 0.54429 0.0
C908 C 0.22622 0.72934 0.09404 0.0
C909 C 0.22515 0.7432 0.13789 0.0
C910 C 0.23579 0.74057 0.04394 0.0
C911 C 0.24437 0.76629 0.03743 0.0
C912 C 0.242 0.7801 0.08054 0.0
C913 C 0.23235 0.76832 0.13049 0.0
C914 C 0.23793 0.72516 0.99894 0.0
C915 C 0.25082 0.80753 0.07477 0.0
C916 C 0.29694 0.79826 0.9365 0.0
C917 C 0.28431 0.79896 0.89002 0.0
C918 C 0.28421 0.78833 0.98514 0.0
C919 C 0.2582 0.77904 0.98756 0.0
C920 C 0.24538 0.78034 0.94137 0.0
C921 C 0.25862 0.79028 0.89297 0.0
C922 C 0.29857 0.78725 0.03356 0.0
C923 C 0.21764 0.77066 0.94274 0.0
H924 H 0.21995 0.70971 0.09927 0.0
H925 H 0.23143 0.77897 0.16438 0.0
H926 H 0.22961 0.72737 0.96107 0.0
H927 H 0.25791 0.7318 0.99056 0.0
H928 H 0.22859 0.70501 1.00927 0.0
H929 H 0.24485 0.81478 0.10947 0.0
H930 H 0.27149 0.81817 0.0724 0.0
H931 H 0.2436 0.8111 0.03674 0.0
H932 H 0.3169 0.80559 0.935 0.0
H933 H 0.2488 0.79078 0.85717 0.0
H934 H 0.29161 0.76752 0.04499 0.0
H935 H 0.29561 0.79657 0.06888 0.0
H936 H 0.31893 0.79626 0.0255 0.0
H937 H 0.20751 0.75014 0.94849 0.0
H938 H 0.21087 0.77497 0.90487 0.0
H939 H 0.21283 0.77883 0.97753 0.0
C940 C 0.51986 0.22922 0.59953 0.0
C941 C 0.5055 0.23009 0.64258 0.0
C942 C 0.51863 0.23791 0.54814 0.0
C943 C 0.50279 0.24792 0.53978 0.0
C944 C 0.48776 0.24833 0.5827 0.0
C945 C 0.48917 0.23918 0.63377 0.0
C946 C 0.53482 0.23698 0.50327 0.0
C947 C 0.47081 0.25907 0.57505 0.0
C948 C 0.52319 0.2956 0.42793 0.0
C949 C 0.50729 0.2816 0.38549 0.0
C950 C 0.52152 0.28495 0.4787 0.0
C951 C 0.50353 0.25961 0.48716 0.0
C952 C 0.48733 0.24531 0.44465 0.0
C953 C 0.48934 0.25657 0.39418 0.0
C954 C 0.53901 0.30084 0.52325 0.0
C955 C 0.46816 0.21814 0.45232 0.0
H956 H 0.53202 0.22159 0.60599 0.0
H957 H 0.47803 0.23968 0.66717 0.0
H958 H 0.52334 0.22764 0.46701 0.0
H959 H 0.54894 0.25623 0.49118 0.0
H960 H 0.54471 0.22695 0.5156 0.0
H961 H 0.4592 0.25654 0.61148 0.0
H962 H 0.48216 0.2793 0.56616 0.0
H963 H 0.45832 0.25017 0.53988 0.0
H964 H 0.53667 0.31512 0.42185 0.0
H965 H 0.47707 0.24579 0.36133 0.0
H966 H 0.54992 0.29232 0.53837 0.0
H967 H 0.5281 0.30184 0.5579 0.0
H968 H 0.55229 0.32012 0.50951 0.0
H969 H 0.47763 0.20742 0.46195 0.0
H970 H 0.45644 0.20988 0.41572 0.0
H971 H 0.45582 0.21591 0.48709 0.0
C972 C 0.7284 0.46684 0.90408 0.0
C973 C 0.71867 0.48306 0.90571 0.0
C974 C 0.7429 0.46574 0.94734 0.0
C975 C 0.74789 0.48116 0.99376 0.0
C976 C 0.73778 0.49727 0.99577 0.0
C977 C 0.72346 0.49802 0.9521 0.0
C978 C 0.7532 0.44829 0.94301 0.0
C979 C 0.74244 0.51412 0.04389 0.0
C980 C 0.77024 0.46744 0.12865 0.0
C981 C 0.79601 0.48455 0.12755 0.0
C982 C 0.75447 0.46574 0.08522 0.0
C983 C 0.76455 0.48146 0.03912 0.0
C984 C 0.79061 0.49847 0.03761 0.0
C985 C 0.80587 0.4998 0.08146 0.0
C986 C 0.72689 0.44734 0.08903 0.0
C987 C 0.80242 0.51567 0.98986 0.0
H988 H 0.72491 0.45517 0.86872 0.0
H989 H 0.71609 0.51062 0.9543 0.0
H990 H 0.7739 0.45917 0.94313 0.0
H991 H 0.74733 0.43569 0.97864 0.0
H992 H 0.74693 0.4368 0.90558 0.0
H993 H 0.73258 0.5249 0.0404 0.0
H994 H 0.73625 0.50295 0.08169 0.0
H995 H 0.76273 0.52744 0.04787 0.0
H996 H 0.7623 0.45552 0.16376 0.0
H997 H 0.8257 0.51307 0.07967 0.0
H998 H 0.72071 0.43492 0.05307 0.0
H999 H 0.71632 0.45746 0.0892 0.0
H1000 H 0.722 0.43568 0.12615 0.0
H1001 H 0.79792 0.5047 0.95182 0.0
H1002 H 0.82303 0.52714 0.99362 0.0
H1003 H 0.7947 0.52837 0.98614 0.0
C1004 C 0.24002 0.71959 0.45096 0.0
C1005 C 0.25015 0.71459 0.40471 0.0
C1006 C 0.25519 0.73423 0.49424 0.0
C1007 C 0.28142 0.7444 0.49201 0.0
C1008 C 0.29182 0.73935 0.44555 0.0
C1009 C 0.27613 0.72458 0.40265 0.0
C1010 C 0.24305 0.73896 0.54243 0.0
C1011 C 0.31959 0.74968 0.44105 0.0
C1012 C 0.32105 0.80148 0.58231 0.0
C1013 C 0.32603 0.79097 0.62774 0.0
C1014 C 0.30716 0.78673 0.53772 0.0
C1015 C 0.29778 0.7606 0.53789 0.0
C1016 C 0.30308 0.74993 0.58329 0.0
C1017 C 0.31706 0.76515 0.62741 0.0
C1018 C 0.30213 0.79913 0.49067 0.0
C1019 C 0.29361 0.72227 0.58569 0.0
H1020 H 0.22003 0.71206 0.45342 0.0
H1021 H 0.28427 0.72092 0.36738 0.0
H1022 H 0.24765 0.73231 0.58002 0.0
H1023 H 0.25043 0.75928 0.54715 0.0
H1024 H 0.22243 0.72953 0.53853 0.0
H1025 H 0.32484 0.74386 0.40297 0.0
H1026 H 0.32944 0.77036 0.44249 0.0
H1027 H 0.32626 0.74336 0.47596 0.0
H1028 H 0.32786 0.82136 0.58169 0.0
H1029 H 0.32073 0.75671 0.66201 0.0
H1030 H 0.28176 0.79173 0.48686 0.0
H1031 H 0.30856 0.79481 0.45231 0.0
H1032 H 0.31155 0.81971 0.49539 0.0
H1033 H 0.2729 0.7119 0.58562 0.0
H1034 H 0.30018 0.71691 0.6224 0.0
H1035 H 0.29981 0.71631 0.54929 0.0
C1036 C 0.53585 0.31456 0.07815 0.0
C1037 C 0.55148 0.32036 0.12361 0.0
C1038 C 0.53656 0.29984 0.03505 0.0
C1039 C 0.55326 0.29041 0.03688 0.0
C1040 C 0.5693 0.29644 0.0824 0.0
C1041 C 0.56824 0.31128 0.12493 0.0
C1042 C 0.51911 0.29411 0.98772 0.0
C1043 C 0.5874 0.2869 0.08657 0.0
C1044 C 0.53687 0.23196 0.95229 0.0
C1045 C 0.55214 0.24182 0.90621 0.0
C1046 C 0.53729 0.24742 0.99496 0.0
C1047 C 0.55333 0.27364 0.99211 0.0
C1048 C 0.56898 0.28372 0.9459 0.0
C1049 C 0.56822 0.26778 0.90375 0.0
C1050 C 0.52027 0.23562 0.04304 0.0
C1051 C 0.58638 0.31145 0.94067 0.0
H1052 H 0.52282 0.32141 0.07631 0.0
H1053 H 0.58041 0.31551 0.15965 0.0
H1054 H 0.5299 0.30015 0.94935 0.0
H1055 H 0.50627 0.27368 0.98484 0.0
H1056 H 0.5078 0.30342 0.9913 0.0
H1057 H 0.59914 0.29376 0.12355 0.0
H1058 H 0.57701 0.26621 0.08724 0.0
H1059 H 0.59978 0.29276 0.05051 0.0
H1060 H 0.52435 0.212 0.95499 0.0
H1061 H 0.58009 0.27573 0.86853 0.0
H1062 H 0.50711 0.24282 0.04649 0.0
H1063 H 0.53136 0.24073 0.08093 0.0
H1064 H 0.5093 0.21497 0.03998 0.0
H1065 H 0.57548 0.32123 0.94064 0.0
H1066 H 0.59775 0.31642 0.90303 0.0
H1067 H 0.59914 0.31847 0.976 0.0
C1068 C 0.31674 0.52677 0.45362 0.0
C1069 C 0.3212 0.54162 0.40724 0.0
C1070 C 0.30193 0.527 0.49709 0.0
C1071 C 0.29107 0.54245 0.4948 0.0
C1072 C 0.29568 0.55768 0.44829 0.0
C1073 C 0.31061 0.55709 0.40532 0.0
C1074 C 0.29769 0.5104 0.54539 0.0
C1075 C 0.28461 0.57446 0.44366 0.0
C1076 C 0.23316 0.5241 0.58337 0.0
C1077 C 0.24309 0.54006 0.62836 0.0
C1078 C 0.2484 0.52493 0.53971 0.0
C1079 C 0.27444 0.54213 0.54041 0.0
C1080 C 0.28455 0.55847 0.58549 0.0
C1081 C 0.26884 0.55726 0.62866 0.0
C1082 C 0.23658 0.50712 0.49292 0.0
C1083 C 0.31209 0.57712 0.58841 0.0
H1084 H 0.32474 0.51472 0.45592 0.0
H1085 H 0.31382 0.56865 0.3699 0.0
H1086 H 0.30386 0.52174 0.58298 0.0
H1087 H 0.27747 0.49687 0.54989 0.0
H1088 H 0.30783 0.49989 0.54179 0.0
H1089 H 0.29034 0.58561 0.40573 0.0
H1090 H 0.26394 0.56311 0.44467 0.0
H1091 H 0.29042 0.58739 0.47873 0.0
H1092 H 0.21334 0.51075 0.58229 0.0
H1093 H 0.27683 0.56971 0.66296 0.0
H1094 H 0.24474 0.49479 0.48949 0.0
H1095 H 0.24057 0.51766 0.45439 0.0
H1096 H 0.21603 0.4953 0.49758 0.0
H1097 H 0.32288 0.56722 0.58837 0.0
H1098 H 0.31706 0.58897 0.62526 0.0
H1099 H 0.31796 0.58935 0.55216 0.0
C1100 C 0.71626 0.22417 0.07603 0.0
C1101 C 0.71157 0.23462 0.12209 0.0
C1102 C 0.73059 0.23908 0.03197 0.0
C1103 C 0.74077 0.26533 0.03338 0.0
C1104 C 0.73583 0.27597 0.07949 0.0
C1105 C 0.72136 0.26058 0.123 0.0
C1106 C 0.73517 0.2267 0.98411 0.0
C1107 C 0.74622 0.30375 0.08328 0.0
C1108 C 0.79902 0.30553 0.94661 0.0
C1109 C 0.78931 0.31144 0.90109 0.0
C1110 C 0.78358 0.2909 0.98968 0.0
C1111 C 0.75748 0.28163 0.9879 0.0
C1112 C 0.74752 0.2876 0.94217 0.0
C1113 C 0.76347 0.30239 0.89955 0.0
C1114 C 0.79528 0.28523 0.03715 0.0
C1115 C 0.7199 0.2782 0.93809 0.0
H1116 H 0.70884 0.20419 0.07447 0.0
H1117 H 0.71795 0.26898 0.15813 0.0
H1118 H 0.7291 0.23168 0.94618 0.0
H1119 H 0.75544 0.23351 0.98015 0.0
H1120 H 0.72516 0.20606 0.98791 0.0
H1121 H 0.73999 0.30914 0.12059 0.0
H1122 H 0.76692 0.3135 0.08304 0.0
H1123 H 0.74039 0.31042 0.04752 0.0
H1124 H 0.8189 0.31235 0.94869 0.0
H1125 H 0.75564 0.30675 0.86484 0.0
H1126 H 0.78732 0.26478 0.04088 0.0
H1127 H 0.79095 0.2918 0.0753 0.0
H1128 H 0.81587 0.29414 0.03314 0.0
H1129 H 0.70945 0.25751 0.9386 0.0
H1130 H 0.715 0.28469 0.9006 0.0
H1131 H 0.71359 0.28458 0.97365 0.0
C1132 C 0.474 0.75705 0.40653 0.0
C1133 C 0.49013 0.78301 0.40828 0.0
C1134 C 0.47314 0.74139 0.44933 0.0
C1135 C 0.48872 0.75176 0.49545 0.0
C1136 C 0.5049 0.77797 0.49744 0.0
C1137 C 0.50541 0.79314 0.45417 0.0
C1138 C 0.45562 0.71364 0.44504 0.0
C1139 C 0.52188 0.79007 0.54535 0.0
C1140 C 0.47368 0.71552 0.63012 0.0
C1141 C 0.4904 0.70637 0.62967 0.0
C1142 C 0.47263 0.72987 0.58663 0.0
C1143 C 0.48863 0.73534 0.54107 0.0
C1144 C 0.50528 0.72585 0.54017 0.0
C1145 C 0.50598 0.71161 0.58418 0.0
C1146 C 0.45459 0.73951 0.5898 0.0
C1147 C 0.52271 0.73102 0.49288 0.0
H1148 H 0.46208 0.74892 0.37153 0.0
H1149 H 0.51794 0.81311 0.45638 0.0
H1150 H 0.4664 0.70374 0.44607 0.0
H1151 H 0.44272 0.70701 0.48024 0.0
H1152 H 0.44441 0.70841 0.40723 0.0
H1153 H 0.53305 0.81068 0.54142 0.0
H1154 H 0.51071 0.78544 0.58317 0.0
H1155 H 0.53485 0.7827 0.54964 0.0
H1156 H 0.46153 0.71167 0.66482 0.0
H1157 H 0.51896 0.70468 0.583 0.0
H1158 H 0.44225 0.73336 0.55374 0.0
H1159 H 0.46503 0.7602 0.58961 0.0
H1160 H 0.4428 0.73301 0.62683 0.0
H1161 H 0.51192 0.72465 0.45463 0.0
H1162 H 0.53392 0.72164 0.4972 0.0
H1163 H 0.53564 0.75139 0.48914 0.0
C1164 C 0.44108 0.48889 0.26519 0.0
C1165 C 0.41493 0.47622 0.26959 0.0
C1166 C 0.45433 0.47589 0.26369 0.0
C1167 C 0.44124 0.4495 0.26709 0.0
C1168 C 0.41488 0.43659 0.27164 0.0
C1169 C 0.40209 0.45005 0.27265 0.0
C1170 C 0.48241 0.49042 0.25877 0.0
C1171 C 0.40016 0.40851 0.27554 0.0
C1172 C 0.47244 0.41344 0.21616 0.0
C1173 C 0.48096 0.40831 0.26447 0.0
C1174 C 0.45966 0.42692 0.21638 0.0
C1175 C 0.45508 0.43539 0.26614 0.0
C1176 C 0.46361 0.43024 0.31504 0.0
C1177 C 0.47651 0.41689 0.31359 0.0
C1178 C 0.45118 0.43221 0.16325 0.0
C1179 C 0.45903 0.43876 0.36901 0.0
H1180 H 0.4513 0.50909 0.26381 0.0
H1181 H 0.3819 0.43999 0.27538 0.0
H1182 H 0.49096 0.48692 0.2947 0.0
H1183 H 0.48842 0.48407 0.22265 0.0
H1184 H 0.48979 0.51081 0.2553 0.0
H1185 H 0.37978 0.40125 0.27944 0.0
H1186 H 0.40351 0.40013 0.23902 0.0
H1187 H 0.40648 0.40219 0.3111 0.0
H1188 H 0.47618 0.40731 0.17792 0.0
H1189 H 0.48289 0.41289 0.35112 0.0
H1190 H 0.45948 0.45263 0.15778 0.0
H1191 H 0.43061 0.42395 0.16348 0.0
H1192 H 0.45645 0.42463 0.12802 0.0
H1193 H 0.46745 0.45934 0.36919 0.0
H1194 H 0.4669 0.43334 0.40334 0.0
H1195 H 0.43868 0.43062 0.3757 0.0
C1196 C 0.07137 0.44468 0.77729 0.0
C1197 C 0.08418 0.47001 0.76309 0.0
C1198 C 0.0451 0.43079 0.77737 0.0
C1199 C 0.03123 0.44234 0.7619 0.0
C1200 C 0.04411 0.46783 0.74666 0.0
C1201 C 0.07037 0.48138 0.74786 0.0
C1202 C 0.03219 0.40381 0.79476 0.0
C1203 C 0.03015 0.48079 0.72895 0.0
C1204 C 0.96336 0.40022 0.71887 0.0
C1205 C 0.9502 0.40008 0.7655 0.0
C1206 C 0.98964 0.41407 0.71688 0.0
C1207 C 1.00327 0.42791 0.76283 0.0
C1208 C 0.99015 0.42787 0.80994 0.0
C1209 C 0.96392 0.41424 0.8105 0.0
C1210 C 1.00285 0.41389 0.66553 0.0
C1211 C 1.00384 0.4422 0.86 0.0
H1212 H 0.08193 0.43584 0.78932 0.0
H1213 H 0.08017 0.50085 0.73602 0.0
H1214 H 0.02011 0.40106 0.8304 0.0
H1215 H 0.01993 0.39173 0.7618 0.0
H1216 H 0.04562 0.39756 0.80549 0.0
H1217 H 0.0429 0.50044 0.71668 0.0
H1218 H 1.01777 0.47067 0.69432 0.0
H1219 H 1.01807 0.48063 0.76241 0.0
H1220 H 0.95318 0.38924 0.68398 0.0
H1221 H 0.95414 0.41493 0.84634 0.0
H1222 H 1.01498 0.40582 0.67371 0.0
H1223 H 1.01509 0.43326 0.65104 0.0
H1224 H 0.9896 0.40296 0.63268 0.0
H1225 H 1.01675 0.43582 0.87404 0.0
H1226 H 0.99094 0.43992 0.89371 0.0
H1227 H 1.01533 0.46234 0.8504 0.0
C1228 C 0.6348 0.06399 0.27816 0.0
C1229 C 0.62256 0.07688 0.26244 0.0
C1230 C 0.62219 0.03774 0.27931 0.0
C1231 C 0.5968 0.02394 0.26338 0.0
C1232 C 0.58449 0.0369 0.2466 0.0
C1233 C 0.59743 0.06316 0.24677 0.0
C1234 C 0.63595 0.02475 0.29825 0.0
C1235 C 0.55763 0.02303 0.22832 0.0
C1236 C 0.5708 0.95571 0.2231 0.0
C1237 C 0.5576 0.94298 0.26989 0.0
C1238 C 0.58334 0.98196 0.22014 0.0
C1239 C 0.58305 0.996 0.26526 0.0
C1240 C 0.56973 0.98331 0.3125 0.0
C1241 C 0.55706 0.95709 0.31406 0.0
C1242 C 0.59701 0.99468 0.16871 0.0
C1243 C 0.56897 0.99746 0.36168 0.0
H1244 H 0.65418 0.07449 0.29052 0.0
H1245 H 0.58798 0.07302 0.23378 0.0
H1246 H 0.62637 0.01301 0.3341 0.0
H1247 H 0.63582 1.01218 0.26603 0.0
H1248 H 0.65563 0.03812 0.30924 0.0
H1249 H 0.551 0.03581 0.21468 0.0
H1250 H 0.55538 1.01024 0.19451 0.0
H1251 H 0.54549 1.0114 0.26197 0.0
H1252 H 0.57168 0.94521 0.18887 0.0
H1253 H 0.54648 0.94763 0.35001 0.0
H1254 H 0.61721 1.00669 0.17718 0.0
H1255 H 0.59013 1.00696 0.15322 0.0
H1256 H 0.59468 0.98114 0.13649 0.0
H1257 H 0.58822 1.01021 0.37621 0.0
H1258 H 0.55796 0.98486 0.39544 0.0
H1259 H 0.56068 1.00914 0.35085 0.0
C1260 C 0.55019 0.59454 0.7465 0.0
C1261 C 0.56079 0.619 0.76632 0.0
C1262 C 0.56395 0.58207 0.74482 0.0
C1263 C 0.58881 0.59413 0.76439 0.0
C1264 C 0.59956 0.61883 0.78456 0.0
C1265 C 0.58553 0.63104 0.78474 0.0
C1266 C 0.55189 0.55598 0.72197 0.0
C1267 C 0.6258 0.63225 0.80671 0.0
C1268 C 0.61553 0.55356 0.81098 0.0
C1269 C 0.63164 0.55601 0.76812 0.0
C1270 C 0.60165 0.56588 0.81033 0.0
C1271 C 0.60334 0.58073 0.76516 0.0
C1272 C 0.61908 0.58289 0.72116 0.0
C1273 C 0.63315 0.57072 0.72333 0.0
C1274 C 0.58528 0.56313 0.85831 0.0
C1275 C 0.6211 0.59817 0.6718 0.0
H1276 H 0.53119 0.5853 0.73146 0.0
H1277 H 0.59376 0.6499 0.80026 0.0
H1278 H 0.5635 0.55513 0.68861 0.0
H1279 H 0.55067 0.54276 0.75375 0.0
H1280 H 0.53283 0.54962 0.70622 0.0
H1281 H 0.63147 0.6514 0.8208 0.0
H1282 H 0.62728 0.62158 0.84119 0.0
H1283 H 0.63916 0.63346 0.77519 0.0
H1284 H 0.61353 0.54175 0.84521 0.0
H1285 H 0.6456 0.57304 0.69012 0.0
H1286 H 0.56559 0.55493 0.84516 0.0
H1287 H 0.591 0.58174 0.87581 0.0
H1288 H 0.58622 0.55113 0.89059 0.0
H1289 H 0.60232 0.59161 0.65435 0.0
H1290 H 0.63327 0.59712 0.63997 0.0
H1291 H 0.62878 0.61798 0.68344 0.0
C1292 C 0.07657 0.6352 0.30647 0.0
C1293 C 0.08964 0.62753 0.27212 0.0
C1294 C 0.05032 0.62293 0.30669 0.0
C1295 C 0.03657 0.60254 0.27131 0.0
C1296 C 0.04958 0.59496 0.23581 0.0
C1297 C 0.07587 0.60746 0.23673 0.0
C1298 C 0.03729 0.63167 0.34522 0.0
C1299 C 0.0357 0.57343 0.19719 0.0
C1300 C 0.96847 0.55565 0.30459 0.0
C1301 C 0.95551 0.56334 0.27024 0.0
C1302 C 0.99475 0.56832 0.30571 0.0
C1303 C 1.00859 0.58919 0.27147 0.0
C1304 C 0.99567 0.59727 0.23731 0.0
C1305 C 0.9694 0.58439 0.23731 0.0
C1306 C 1.00774 0.55914 0.34304 0.0
C1307 C 1.0096 0.61941 0.20017 0.0
H1308 H 0.08688 0.65094 0.33329 0.0
H1309 H 0.08562 0.6011 0.21047 0.0
H1310 H 0.02546 0.63721 0.3222 0.0
H1311 H 0.02478 0.6162 0.37259 0.0
H1312 H 0.05063 0.64774 0.3703 0.0
H1313 H 0.0485 0.57018 0.17128 0.0
H1314 H 0.02358 0.55614 0.22031 0.0
H1315 H 0.02337 0.577 0.17066 0.0
H1316 H 0.95807 0.53927 0.3297 0.0
H1317 H 0.95973 0.59087 0.21129 0.0
H1318 H 0.02067 0.57443 0.37026 0.0
H1319 H 1.01911 0.55332 0.31893 0.0
H1320 H 0.99437 0.54312 0.36825 0.0
H1321 H 0.02216 0.63623 0.22415 0.0
H1322 H 0.99685 0.6234 0.17612 0.0
H1323 H 0.02148 0.61595 0.17181 0.0
C1324 C 0.4021 0.96189 0.77257 0.0
C1325 C 0.41485 0.94844 0.7706 0.0
C1326 C 0.41506 0.98815 0.77283 0.0
C1327 C 0.4415 1.00147 0.77182 0.0
C1328 C 0.45451 0.98807 0.77009 0.0
C1329 C 0.44109 0.96184 0.76902 0.0
C1330 C 0.40044 1.00167 0.77413 0.0
C1331 C 0.48268 1.00147 0.7693 0.0
C1332 C 0.47605 0.06919 0.72417 0.0
C1333 C 0.48244 0.08228 0.77338 0.0
C1334 C 0.46252 0.04295 0.72305 0.0
C1335 C 0.45557 0.02939 0.77237 0.0
C1336 C 0.46224 0.04256 0.8222 0.0
C1337 C 0.4754 0.0688 0.82209 0.0
C1338 C 0.45558 0.02972 0.66905 0.0
C1339 C 0.45569 0.02891 0.87569 0.0
H1340 H 0.3819 0.95189 0.77443 0.0
H1341 H 0.45126 0.95185 0.76619 0.0
H1342 H 0.40522 0.01337 0.81111 0.0
H1343 H 0.40553 0.01436 0.73875 0.0
H1344 H 0.37996 0.98866 0.77359 0.0
H1345 H 0.49002 0.98836 0.76965 0.0
H1346 H 0.48981 0.01332 0.7326 0.0
H1347 H 0.49022 0.01398 0.80497 0.0
H1348 H 0.48137 0.07954 0.68643 0.0
H1349 H 0.48064 0.07883 0.86024 0.0
H1350 H 0.43503 0.01756 0.6664 0.0
H1351 H 0.46386 0.01752 0.66514 0.0
H1352 H 0.46202 0.04294 0.63441 0.0
H1353 H 0.43516 0.01692 0.87931 0.0
H1354 H 0.4626 0.04186 0.91082 0.0
H1355 H 0.46381 0.01651 0.87768 0.0
loop_
_geom_bond_atom_site_label_1
_geom_bond_atom_site_label_2
_geom_bond_distance
_geom_bond_site_symmetry_2
_ccdc_geom_bond_type
Co0 N4 2.148 . S
Co0 N10 2.128 . S
Co0 N20 2.194 . S
Co0 O25 2.351 . S
Co0 O26 2.155 . S
Co0 O27 2.096 . S
C1 N4 1.301 . S
C1 N5 1.328 . S
C1 H6 0.930 . S
C2 C3 1.333 . S
C2 N4 1.317 . S
C2 H7 0.930 . S
C3 C2 1.333 . S
C3 N5 1.350 . S
C3 H29 0.931 . S
N4 Co0 2.148 . S
N4 C1 1.301 . S
N4 C2 1.317 . S
N5 C1 1.328 . S
N5 C3 1.350 . S
H6 C1 0.930 . S
H7 C2 0.930 . S
C8 O9 1.224 . S
C8 O27 1.247 . S
O9 C8 1.224 . S
N10 Co0 2.128 . S
N10 C11 1.355 . S
N10 C13 1.311 . S
C11 N10 1.355 . S
C11 C12 1.363 . S
C11 H23 0.929 . S
C12 C11 1.363 . S
C12 N14 1.375 . S
C12 H30 0.931 . S
C13 N10 1.311 . S
C13 N14 1.347 . S
C13 H24 0.929 . S
N14 C12 1.375 . S
N14 C13 1.347 . S
C15 C18 1.365 . S
C15 N20 1.328 . S
C15 H21 0.929 . S
C16 C17 1.362 . S
C16 C19 1.378 . S
C16 H31 0.929 . S
C17 C16 1.362 . S
C17 C18 1.366 . S
C18 C15 1.365 . S
C18 C17 1.366 . S
C18 H32 0.930 . S
C19 C16 1.378 . S
C19 N20 1.315 . S
C19 H22 0.930 . S
N20 Co0 2.194 . S
N20 C15 1.328 . S
N20 C19 1.315 . S
H21 C15 0.929 . S
H22 C19 0.930 . S
H23 C11 0.929 . S
H24 C13 0.929 . S
O25 Co0 2.351 . S
O25 C28 1.244 . S
O26 Co0 2.155 . S
O26 C28 1.240 . S
O27 Co0 2.096 . S
O27 C8 1.247 . S
C28 O25 1.244 . S
C28 O26 1.240 . S
H29 C3 0.931 . S
H30 C12 0.931 . S
H31 C16 0.929 . S
H32 C18 0.930 . S
Co33 N37 2.148 . S
Co33 N43 2.128 . S
Co33 N53 2.194 . S
Co33 O58 2.351 . S
Co33 O59 2.155 . S
Co33 O60 2.096 . S
C34 N37 1.301 . S
C34 N38 1.328 . S
C34 H39 0.930 . S
C35 C36 1.333 . S
C35 N37 1.317 . S
C35 H40 0.930 . S
C36 C35 1.333 . S
C36 N38 1.350 . S
C36 H62 0.931 . S
N37 Co33 2.148 . S
N37 C34 1.301 . S
N37 C35 1.317 . S
N38 C34 1.328 . S
N38 C36 1.350 . S
H39 C34 0.930 . S
H40 C35 0.930 . S
C41 O42 1.224 . S
C41 O60 1.247 . S
O42 C41 1.224 . S
N43 Co33 2.128 . S
N43 C44 1.355 . S
N43 C46 1.311 . S
C44 N43 1.355 . S
C44 C45 1.363 . S
C44 H56 0.929 . S
C45 C44 1.363 . S
C45 N47 1.375 . S
C45 H63 0.931 . S
C46 N43 1.311 . S
C46 N47 1.347 . S
C46 H57 0.929 . S
N47 C45 1.375 . S
N47 C46 1.347 . S
C48 C51 1.365 . S
C48 N53 1.328 . S
C48 H54 0.929 . S
C49 C50 1.362 . S
C49 C52 1.378 . S
C49 H64 0.929 . S
C50 C49 1.362 . S
C50 C51 1.366 . S
C51 C48 1.365 . S
C51 C50 1.366 . S
C51 H65 0.930 . S
C52 C49 1.378 . S
C52 N53 1.315 . S
C52 H55 0.930 . S
N53 Co33 2.194 . S
N53 C48 1.328 . S
N53 C52 1.315 . S
H54 C48 0.929 . S
H55 C52 0.930 . S
H56 C44 0.929 . S
H57 C46 0.929 . S
O58 Co33 2.351 . S
O58 C61 1.244 . S
O59 Co33 2.155 . S
O59 C61 1.240 . S
O60 Co33 2.096 . S
O60 C41 1.247 . S
C61 O58 1.244 . S
C61 O59 1.240 . S
H62 C36 0.931 . S
H63 C45 0.931 . S
H64 C49 0.929 . S
H65 C51 0.930 . S
Co66 N70 2.148 . S
Co66 N76 2.128 . S
Co66 N86 2.194 . S
Co66 O91 2.351 . S
Co66 O92 2.155 . S
Co66 O93 2.096 . S
C67 N70 1.301 . S
C67 N71 1.328 . S
C67 H72 0.930 . S
C68 C69 1.333 . S
C68 N70 1.317 . S
C68 H73 0.930 . S
C69 C68 1.333 . S
C69 N71 1.350 . S
C69 H95 0.931 . S
N70 Co66 2.148 . S
N70 C67 1.301 . S
N70 C68 1.317 . S
N71 C67 1.328 . S
N71 C69 1.350 . S
H72 C67 0.930 . S
H73 C68 0.930 . S
C74 O75 1.224 . S
C74 O93 1.247 . S
O75 C74 1.224 . S
N76 Co66 2.128 . S
N76 C77 1.355 . S
N76 C79 1.311 . S
C77 N76 1.355 . S
C77 C78 1.363 . S
C77 H89 0.929 . S
C78 C77 1.363 . S
C78 N80 1.375 . S
C78 H96 0.931 . S
C79 N76 1.311 . S
C79 N80 1.347 . S
C79 H90 0.929 . S
N80 C78 1.375 . S
N80 C79 1.347 . S
C81 C84 1.365 . S
C81 N86 1.328 . S
C81 H87 0.929 . S
C82 C83 1.362 . S
C82 C85 1.378 . S
C82 H97 0.929 . S
C83 C82 1.362 . S
C83 C84 1.366 . S
C84 C81 1.365 . S
C84 C83 1.366 . S
C84 H98 0.930 . S
C85 C82 1.378 . S
C85 N86 1.315 . S
C85 H88 0.930 . S
N86 Co66 2.194 . S
N86 C81 1.328 . S
N86 C85 1.315 . S
H87 C81 0.929 . S
H88 C85 0.930 . S
H89 C77 0.929 . S
H90 C79 0.929 . S
O91 Co66 2.351 . S
O91 C94 1.244 . S
O92 Co66 2.155 . S
O92 C94 1.240 . S
O93 Co66 2.096 . S
O93 C74 1.247 . S
C94 O91 1.244 . S
C94 O92 1.240 . S
H95 C69 0.931 . S
H96 C78 0.931 . S
H97 C82 0.929 . S
H98 C84 0.930 . S
Co99 N103 2.148 . S
Co99 N109 2.128 . S
Co99 N119 2.194 . S
Co99 O124 2.351 . S
Co99 O125 2.155 . S
Co99 O126 2.096 . S
C100 N103 1.301 . S
C100 N104 1.328 . S
C100 H105 0.930 . S
C101 C102 1.333 . S
C101 N103 1.317 . S
C101 H106 0.930 . S
C102 C101 1.333 . S
C102 N104 1.350 . S
C102 H128 0.931 . S
N103 Co99 2.148 . S
N103 C100 1.301 . S
N103 C101 1.317 . S
N104 C100 1.328 . S
N104 C102 1.350 . S
H105 C100 0.930 . S
H106 C101 0.930 . S
C107 O108 1.224 . S
C107 O126 1.247 . S
O108 C107 1.224 . S
N109 Co99 2.128 . S
N109 C110 1.355 . S
N109 C112 1.311 . S
C110 N109 1.355 . S
C110 C111 1.363 . S
C110 H122 0.929 . S
C111 C110 1.363 . S
C111 N113 1.375 . S
C111 H129 0.931 . S
C112 N109 1.311 . S
C112 N113 1.347 . S
C112 H123 0.929 . S
N113 C111 1.375 . S
N113 C112 1.347 . S
C114 C117 1.365 . S
C114 N119 1.328 . S
C114 H120 0.929 . S
C115 C116 1.362 . S
C115 C118 1.378 . S
C115 H130 0.929 . S
C116 C115 1.362 . S
C116 C117 1.366 . S
C117 C114 1.365 . S
C117 C116 1.366 . S
C117 H131 0.930 . S
C118 C115 1.378 . S
C118 N119 1.315 . S
C118 H121 0.930 . S
N119 Co99 2.194 . S
N119 C114 1.328 . S
N119 C118 1.315 . S
H120 C114 0.929 . S
H121 C118 0.930 . S
H122 C110 0.929 . S
H123 C112 0.929 . S
O124 Co99 2.351 . S
O124 C127 1.244 . S
O125 Co99 2.155 . S
O125 C127 1.240 . S
O126 Co99 2.096 . S
O126 C107 1.247 . S
C127 O124 1.244 . S
C127 O125 1.240 . S
H128 C102 0.931 . S
H129 C111 0.931 . S
H130 C115 0.929 . S
H131 C117 0.930 . S
Co132 N136 2.148 . S
Co132 N142 2.128 . S
Co132 N152 2.194 . S
Co132 O157 2.351 . S
Co132 O158 2.155 . S
Co132 O159 2.096 . S
C133 N136 1.301 . S
C133 N137 1.328 . S
C133 H138 0.930 . S
C134 C135 1.333 . S
C134 N136 1.317 . S
C134 H139 0.930 . S
C135 C134 1.333 . S
C135 N137 1.350 . S
C135 H161 0.931 . S
N136 Co132 2.148 . S
N136 C133 1.301 . S
N136 C134 1.317 . S
N137 C133 1.328 . S
N137 C135 1.350 . S
H138 C133 0.930 . S
H139 C134 0.930 . S
C140 O141 1.224 . S
C140 O159 1.247 . S
O141 C140 1.224 . S
N142 Co132 2.128 . S
N142 C143 1.355 . S
N142 C145 1.311 . S
C143 N142 1.355 . S
C143 C144 1.363 . S
C143 H155 0.929 . S
C144 C143 1.363 . S
C144 N146 1.375 . S
C144 H162 0.931 . S
C145 N142 1.311 . S
C145 N146 1.347 . S
C145 H156 0.929 . S
N146 C144 1.375 . S
N146 C145 1.347 . S
C147 C150 1.365 . S
C147 N152 1.328 . S
C147 H153 0.929 . S
C148 C149 1.362 . S
C148 C151 1.378 . S
C148 H163 0.929 . S
C149 C148 1.362 . S
C149 C150 1.366 . S
C150 C147 1.365 . S
C150 C149 1.366 . S
C150 H164 0.930 . S
C151 C148 1.378 . S
C151 N152 1.315 . S
C151 H154 0.930 . S
N152 Co132 2.194 . S
N152 C147 1.328 . S
N152 C151 1.315 . S
H153 C147 0.929 . S
H154 C151 0.930 . S
H155 C143 0.929 . S
H156 C145 0.929 . S
O157 Co132 2.351 . S
O157 C160 1.244 . S
O158 Co132 2.155 . S
O158 C160 1.240 . S
O159 Co132 2.096 . S
O159 C140 1.247 . S
C160 O157 1.244 . S
C160 O158 1.240 . S
H161 C135 0.931 . S
H162 C144 0.931 . S
H163 C148 0.929 . S
H164 C150 0.930 . S
Co165 N169 2.148 . S
Co165 N175 2.128 . S
Co165 N185 2.194 . S
Co165 O190 2.351 . S
Co165 O191 2.155 . S
Co165 O192 2.096 . S
C166 N169 1.301 . S
C166 N170 1.328 . S
C166 H171 0.930 . S
C167 C168 1.333 . S
C167 N169 1.317 . S
C167 H172 0.930 . S
C168 C167 1.333 . S
C168 N170 1.350 . S
C168 H194 0.931 . S
N169 Co165 2.148 . S
N169 C166 1.301 . S
N169 C167 1.317 . S
N170 C166 1.328 . S
N170 C168 1.350 . S
H171 C166 0.930 . S
H172 C167 0.930 . S
C173 O174 1.224 . S
C173 O192 1.247 . S
O174 C173 1.224 . S
N175 Co165 2.128 . S
N175 C176 1.355 . S
N175 C178 1.311 . S
C176 N175 1.355 . S
C176 C177 1.363 . S
C176 H188 0.929 . S
C177 C176 1.363 . S
C177 N179 1.375 . S
C177 H195 0.931 . S
C178 N175 1.311 . S
C178 N179 1.347 . S
C178 H189 0.929 . S
N179 C177 1.375 . S
N179 C178 1.347 . S
C180 C183 1.365 . S
C180 N185 1.328 . S
C180 H186 0.929 . S
C181 C182 1.362 . S
C181 C184 1.378 . S
C181 H196 0.929 . S
C182 C181 1.362 . S
C182 C183 1.366 . S
C183 C180 1.365 . S
C183 C182 1.366 . S
C183 H197 0.930 . S
C184 C181 1.378 . S
C184 N185 1.315 . S
C184 H187 0.930 . S
N185 Co165 2.194 . S
N185 C180 1.328 . S
N185 C184 1.315 . S
H186 C180 0.929 . S
H187 C184 0.930 . S
H188 C176 0.929 . S
H189 C178 0.929 . S
O190 Co165 2.351 . S
O190 C193 1.244 . S
O191 Co165 2.155 . S
O191 C193 1.240 . S
O192 Co165 2.096 . S
O192 C173 1.247 . S
C193 O190 1.244 . S
C193 O191 1.240 . S
H194 C168 0.931 . S
H195 C177 0.931 . S
H196 C181 0.929 . S
H197 C183 0.930 . S
Co198 N202 2.148 . S
Co198 N208 2.128 . S
Co198 N218 2.194 . S
Co198 O223 2.351 . S
Co198 O224 2.155 . S
Co198 O225 2.096 . S
C199 N202 1.301 . S
C199 N203 1.328 . S
C199 H204 0.930 . S
C200 C201 1.333 . S
C200 N202 1.317 . S
C200 H205 0.930 . S
C201 C200 1.333 . S
C201 N203 1.350 . S
C201 H227 0.931 . S
N202 Co198 2.148 . S
N202 C199 1.301 . S
N202 C200 1.317 . S
N203 C199 1.328 . S
N203 C201 1.350 . S
H204 C199 0.930 . S
H205 C200 0.930 . S
C206 O207 1.224 . S
C206 O225 1.247 . S
O207 C206 1.224 . S
N208 Co198 2.128 . S
N208 C209 1.355 . S
N208 C211 1.311 . S
C209 N208 1.355 . S
C209 C210 1.363 . S
C209 H221 0.929 . S
C210 C209 1.363 . S
C210 N212 1.375 . S
C210 H228 0.931 . S
C211 N208 1.311 . S
C211 N212 1.347 . S
C211 H222 0.929 . S
N212 C210 1.375 . S
N212 C211 1.347 . S
C213 C216 1.365 . S
C213 N218 1.328 . S
C213 H219 0.929 . S
C214 C215 1.362 . S
C214 C217 1.378 . S
C214 H229 0.929 . S
C215 C214 1.362 . S
C215 C216 1.366 . S
C216 C213 1.365 . S
C216 C215 1.366 . S
C216 H230 0.930 . S
C217 C214 1.378 . S
C217 N218 1.315 . S
C217 H220 0.930 . S
N218 Co198 2.194 . S
N218 C213 1.328 . S
N218 C217 1.315 . S
H219 C213 0.929 . S
H220 C217 0.930 . S
H221 C209 0.929 . S
H222 C211 0.929 . S
O223 Co198 2.351 . S
O223 C226 1.244 . S
O224 Co198 2.155 . S
O224 C226 1.240 . S
O225 Co198 2.096 . S
O225 C206 1.247 . S
C226 O223 1.244 . S
C226 O224 1.240 . S
H227 C201 0.931 . S
H228 C210 0.931 . S
H229 C214 0.929 . S
H230 C216 0.930 . S
Co231 N235 2.148 . S
Co231 N241 2.128 . S
Co231 N251 2.194 . S
Co231 O256 2.351 . S
Co231 O257 2.155 . S
Co231 O258 2.096 . S
C232 N235 1.301 . S
C232 N236 1.328 . S
C232 H237 0.930 . S
C233 C234 1.333 . S
C233 N235 1.317 . S
C233 H238 0.930 . S
C234 C233 1.333 . S
C234 N236 1.350 . S
C234 H260 0.931 . S
N235 Co231 2.148 . S
N235 C232 1.301 . S
N235 C233 1.317 . S
N236 C232 1.328 . S
N236 C234 1.350 . S
H237 C232 0.930 . S
H238 C233 0.930 . S
C239 O240 1.224 . S
C239 O258 1.247 . S
O240 C239 1.224 . S
N241 Co231 2.128 . S
N241 C242 1.355 . S
N241 C244 1.311 . S
C242 N241 1.355 . S
C242 C243 1.363 . S
C242 H254 0.929 . S
C243 C242 1.363 . S
C243 N245 1.375 . S
C243 H261 0.931 . S
C244 N241 1.311 . S
C244 N245 1.347 . S
C244 H255 0.929 . S
N245 C243 1.375 . S
N245 C244 1.347 . S
C246 C249 1.365 . S
C246 N251 1.328 . S
C246 H252 0.929 . S
C247 C248 1.362 . S
C247 C250 1.378 . S
C247 H262 0.929 . S
C248 C247 1.362 . S
C248 C249 1.366 . S
C249 C246 1.365 . S
C249 C248 1.366 . S
C249 H263 0.930 . S
C250 C247 1.378 . S
C250 N251 1.315 . S
C250 H253 0.930 . S
N251 Co231 2.194 . S
N251 C246 1.328 . S
N251 C250 1.315 . S
H252 C246 0.929 . S
H253 C250 0.930 . S
H254 C242 0.929 . S
H255 C244 0.929 . S
O256 Co231 2.351 . S
O256 C259 1.244 . S
O257 Co231 2.155 . S
O257 C259 1.240 . S
O258 Co231 2.096 . S
O258 C239 1.247 . S
C259 O256 1.244 . S
C259 O257 1.240 . S
H260 C234 0.931 . S
H261 C243 0.931 . S
H262 C247 0.929 . S
H263 C249 0.930 . S
Co264 N268 2.148 . S
Co264 N274 2.128 . S
Co264 N284 2.194 . S
Co264 O289 2.351 . S
Co264 O290 2.155 . S
Co264 O291 2.096 . S
C265 N268 1.301 . S
C265 N269 1.328 . S
C265 H270 0.930 . S
C266 C267 1.333 . S
C266 N268 1.317 . S
C266 H271 0.930 . S
C267 C266 1.333 . S
C267 N269 1.350 . S
C267 H293 0.931 . S
N268 Co264 2.148 . S
N268 C265 1.301 . S
N268 C266 1.317 . S
N269 C265 1.328 . S
N269 C267 1.350 . S
H270 C265 0.930 . S
H271 C266 0.930 . S
C272 O273 1.224 . S
C272 O291 1.247 . S
O273 C272 1.224 . S
N274 Co264 2.128 . S
N274 C275 1.355 . S
N274 C277 1.311 . S
C275 N274 1.355 . S
C275 C276 1.363 . S
C275 H287 0.929 . S
C276 C275 1.363 . S
C276 N278 1.375 . S
C276 H294 0.931 . S
C277 N274 1.311 . S
C277 N278 1.347 . S
C277 H288 0.929 . S
N278 C276 1.375 . S
N278 C277 1.347 . S
C279 C282 1.365 . S
C279 N284 1.328 . S
C279 H285 0.929 . S
C280 C281 1.362 . S
C280 C283 1.378 . S
C280 H295 0.929 . S
C281 C280 1.362 . S
C281 C282 1.366 . S
C282 C279 1.365 . S
C282 C281 1.366 . S
C282 H296 0.930 . S
C283 C280 1.378 . S
C283 N284 1.315 . S
C283 H286 0.930 . S
N284 Co264 2.194 . S
N284 C279 1.328 . S
N284 C283 1.315 . S
H285 C279 0.929 . S
H286 C283 0.930 . S
H287 C275 0.929 . S
H288 C277 0.929 . S
O289 Co264 2.351 . S
O289 C292 1.244 . S
O290 Co264 2.155 . S
O290 C292 1.240 . S
O291 Co264 2.096 . S
O291 C272 1.247 . S
C292 O289 1.244 . S
C292 O290 1.240 . S
H293 C267 0.931 . S
H294 C276 0.931 . S
H295 C280 0.929 . S
H296 C282 0.930 . S
Co297 N301 2.148 . S
Co297 N307 2.128 . S
Co297 N317 2.194 . S
Co297 O322 2.351 . S
Co297 O323 2.155 . S
Co297 O324 2.096 . S
C298 N301 1.301 . S
C298 N302 1.328 . S
C298 H303 0.930 . S
C299 C300 1.333 . S
C299 N301 1.317 . S
C299 H304 0.930 . S
C300 C299 1.333 . S
C300 N302 1.350 . S
C300 H326 0.931 . S
N301 Co297 2.148 . S
N301 C298 1.301 . S
N301 C299 1.317 . S
N302 C298 1.328 . S
N302 C300 1.350 . S
H303 C298 0.930 . S
H304 C299 0.930 . S
C305 O306 1.224 . S
C305 O324 1.247 . S
O306 C305 1.224 . S
N307 Co297 2.128 . S
N307 C308 1.355 . S
N307 C310 1.311 . S
C308 N307 1.355 . S
C308 C309 1.363 . S
C308 H320 0.929 . S
C309 C308 1.363 . S
C309 N311 1.375 . S
C309 H327 0.931 . S
C310 N307 1.311 . S
C310 N311 1.347 . S
C310 H321 0.929 . S
N311 C309 1.375 . S
N311 C310 1.347 . S
C312 C315 1.365 . S
C312 N317 1.328 . S
C312 H318 0.929 . S
C313 C314 1.362 . S
C313 C316 1.378 . S
C313 H328 0.929 . S
C314 C313 1.362 . S
C314 C315 1.366 . S
C315 C312 1.365 . S
C315 C314 1.366 . S
C315 H329 0.930 . S
C316 C313 1.378 . S
C316 N317 1.315 . S
C316 H319 0.930 . S
N317 Co297 2.194 . S
N317 C312 1.328 . S
N317 C316 1.315 . S
H318 C312 0.929 . S
H319 C316 0.930 . S
H320 C308 0.929 . S
H321 C310 0.929 . S
O322 Co297 2.351 . S
O322 C325 1.244 . S
O323 Co297 2.155 . S
O323 C325 1.240 . S
O324 Co297 2.096 . S
O324 C305 1.247 . S
C325 O322 1.244 . S
C325 O323 1.240 . S
H326 C300 0.931 . S
H327 C309 0.931 . S
H328 C313 0.929 . S
H329 C315 0.930 . S
Co330 N334 2.148 . S
Co330 N340 2.128 . S
Co330 N350 2.194 . S
Co330 O355 2.351 . S
Co330 O356 2.155 . S
Co330 O357 2.096 . S
C331 N334 1.301 . S
C331 N335 1.328 . S
C331 H336 0.930 . S
C332 C333 1.333 . S
C332 N334 1.317 . S
C332 H337 0.930 . S
C333 C332 1.333 . S
C333 N335 1.350 . S
C333 H359 0.931 . S
N334 Co330 2.148 . S
N334 C331 1.301 . S
N334 C332 1.317 . S
N335 C331 1.328 . S
N335 C333 1.350 . S
H336 C331 0.930 . S
H337 C332 0.930 . S
C338 O339 1.224 . S
C338 O357 1.247 . S
O339 C338 1.224 . S
N340 Co330 2.128 . S
N340 C341 1.355 . S
N340 C343 1.311 . S
C341 N340 1.355 . S
C341 C342 1.363 . S
C341 H353 0.929 . S
C342 C341 1.363 . S
C342 N344 1.375 . S
C342 H360 0.931 . S
C343 N340 1.311 . S
C343 N344 1.347 . S
C343 H354 0.929 . S
N344 C342 1.375 . S
N344 C343 1.347 . S
C345 C348 1.365 . S
C345 N350 1.328 . S
C345 H351 0.929 . S
C346 C347 1.362 . S
C346 C349 1.378 . S
C346 H361 0.929 . S
C347 C346 1.362 . S
C347 C348 1.366 . S
C348 C345 1.365 . S
C348 C347 1.366 . S
C348 H362 0.930 . S
C349 C346 1.378 . S
C349 N350 1.315 . S
C349 H352 0.930 . S
N350 Co330 2.194 . S
N350 C345 1.328 . S
N350 C349 1.315 . S
H351 C345 0.929 . S
H352 C349 0.930 . S
H353 C341 0.929 . S
H354 C343 0.929 . S
O355 Co330 2.351 . S
O355 C358 1.244 . S
O356 Co330 2.155 . S
O356 C358 1.240 . S
O357 Co330 2.096 . S
O357 C338 1.247 . S
C358 O355 1.244 . S
C358 O356 1.240 . S
H359 C333 0.931 . S
H360 C342 0.931 . S
H361 C346 0.929 . S
H362 C348 0.930 . S
Co363 N367 2.148 . S
Co363 N373 2.128 . S
Co363 N383 2.194 . S
Co363 O388 2.351 . S
Co363 O389 2.155 . S
Co363 O390 2.096 . S
C364 N367 1.301 . S
C364 N368 1.328 . S
C364 H369 0.930 . S
C365 C366 1.333 . S
C365 N367 1.317 . S
C365 H370 0.930 . S
C366 C365 1.333 . S
C366 N368 1.350 . S
C366 H392 0.931 . S
N367 Co363 2.148 . S
N367 C364 1.301 . S
N367 C365 1.317 . S
N368 C364 1.328 . S
N368 C366 1.350 . S
H369 C364 0.930 . S
H370 C365 0.930 . S
C371 O372 1.224 . S
C371 O390 1.247 . S
O372 C371 1.224 . S
N373 Co363 2.128 . S
N373 C374 1.355 . S
N373 C376 1.311 . S
C374 N373 1.355 . S
C374 C375 1.363 . S
C374 H386 0.929 . S
C375 C374 1.363 . S
C375 N377 1.375 . S
C375 H393 0.931 . S
C376 N373 1.311 . S
C376 N377 1.347 . S
C376 H387 0.929 . S
N377 C375 1.375 . S
N377 C376 1.347 . S
C378 C381 1.365 . S
C378 N383 1.328 . S
C378 H384 0.929 . S
C379 C380 1.362 . S
C379 C382 1.378 . S
C379 H394 0.929 . S
C380 C379 1.362 . S
C380 C381 1.366 . S
C381 C378 1.365 . S
C381 C380 1.366 . S
C381 H395 0.930 . S
C382 C379 1.378 . S
C382 N383 1.315 . S
C382 H385 0.930 . S
N383 Co363 2.194 . S
N383 C378 1.328 . S
N383 C382 1.315 . S
H384 C378 0.929 . S
H385 C382 0.930 . S
H386 C374 0.929 . S
H387 C376 0.929 . S
O388 Co363 2.351 . S
O388 C391 1.244 . S
O389 Co363 2.155 . S
O389 C391 1.240 . S
O390 Co363 2.096 . S
O390 C371 1.247 . S
C391 O388 1.244 . S
C391 O389 1.240 . S
H392 C366 0.931 . S
H393 C375 0.931 . S
H394 C379 0.929 . S
H395 C381 0.930 . S
C396 C397 1.391 . S
C396 C398 1.394 . S
C396 H412 0.931 . S
C397 C396 1.391 . S
C397 C401 1.376 . S
C398 C396 1.394 . S
C398 C399 1.369 . S
C398 C402 1.531 . S
C399 C398 1.369 . S
C399 C400 1.410 . S
C399 C407 1.503 1_554 S
C400 C399 1.410 . S
C400 C401 1.392 . S
C400 C403 1.511 1_554 S
C401 C397 1.376 . S
C401 C400 1.392 . S
C401 H413 0.929 . S
C402 C398 1.531 . S
C402 H414 0.960 . S
C402 H415 0.962 . S
C402 H416 0.960 . S
C403 C400 1.511 1_556 S
C403 H417 0.961 . S
C403 H418 0.961 . S
C403 H419 0.961 . S
C404 C405 1.370 . S
C404 C406 1.363 . S
C404 H420 0.931 . S
C405 C404 1.370 . S
C405 C409 1.408 . S
C406 C404 1.363 . S
C406 C407 1.370 . S
C406 C410 1.524 1_556 S
C407 C399 1.503 1_556 S
C407 C406 1.370 . S
C407 C408 1.403 . S
C408 C407 1.403 . S
C408 C409 1.404 . S
C408 C411 1.539 . S
C409 C405 1.408 . S
C409 C408 1.404 . S
C409 H421 0.930 . S
C410 C406 1.524 1_554 S
C410 H422 0.956 . S
C410 H423 0.961 . S
C410 H424 0.961 . S
C411 C408 1.539 . S
C411 H425 0.958 . S
C411 H426 0.961 . S
C411 H427 0.960 . S
H412 C396 0.931 . S
H413 C401 0.929 . S
H414 C402 0.960 . S
H415 C402 0.962 . S
H416 C402 0.960 . S
H417 C403 0.961 . S
H418 C403 0.961 . S
H419 C403 0.961 . S
H420 C404 0.931 . S
H421 C409 0.930 . S
H422 C410 0.956 . S
H423 C410 0.961 . S
H424 C410 0.961 . S
H425 C411 0.958 . S
H426 C411 0.961 . S
H427 C411 0.960 . S
C428 C429 1.391 . S
C428 C430 1.394 . S
C428 H444 0.931 . S
C429 C428 1.391 . S
C429 C433 1.376 . S
C430 C428 1.394 . S
C430 C431 1.369 . S
C430 C434 1.531 . S
C431 C430 1.369 . S
C431 C432 1.410 . S
C431 C439 1.503 . S
C432 C431 1.410 . S
C432 C433 1.392 . S
C432 C435 1.511 . S
C433 C429 1.376 . S
C433 C432 1.392 . S
C433 H445 0.929 . S
C434 C430 1.531 . S
C434 H446 0.960 . S
C434 H447 0.962 . S
C434 H448 0.960 . S
C435 C432 1.511 . S
C435 H449 0.961 . S
C435 H450 0.961 . S
C435 H451 0.961 . S
C436 C437 1.370 . S
C436 C438 1.363 . S
C436 H452 0.931 . S
C437 C436 1.370 . S
C437 C441 1.408 . S
C438 C436 1.363 . S
C438 C439 1.370 . S
C438 C442 1.524 . S
C439 C431 1.503 . S
C439 C438 1.370 . S
C439 C440 1.403 . S
C440 C439 1.403 . S
C440 C441 1.404 . S
C440 C443 1.539 . S
C441 C437 1.408 . S
C441 C440 1.404 . S
C441 H453 0.930 . S
C442 C438 1.524 . S
C442 H454 0.956 . S
C442 H455 0.961 . S
C442 H456 0.961 . S
C443 C440 1.539 . S
C443 H457 0.958 . S
C443 H458 0.961 . S
C443 H459 0.960 . S
H444 C428 0.931 . S
H445 C433 0.929 . S
H446 C434 0.960 . S
H447 C434 0.962 . S
H448 C434 0.960 . S
H449 C435 0.961 . S
H450 C435 0.961 . S
H451 C435 0.961 . S
H452 C436 0.931 . S
H453 C441 0.930 . S
H454 C442 0.956 . S
H455 C442 0.961 . S
H456 C442 0.961 . S
H457 C443 0.958 . S
H458 C443 0.961 . S
H459 C443 0.960 . S
C460 C461 1.391 . S
C460 C462 1.394 . S
C460 H476 0.931 . S
C461 C460 1.391 . S
C461 C465 1.376 . S
C462 C460 1.394 . S
C462 C463 1.369 . S
C462 C466 1.531 1_554 S
C463 C462 1.369 . S
C463 C464 1.410 . S
C463 C471 1.503 1_554 S
C464 C463 1.410 . S
C464 C465 1.392 . S
C464 C467 1.511 . S
C465 C461 1.376 . S
C465 C464 1.392 . S
C465 H477 0.929 . S
C466 C462 1.531 1_556 S
C466 H478 0.960 . S
C466 H479 0.962 . S
C466 H480 0.960 . S
C467 C464 1.511 . S
C467 H481 0.961 . S
C467 H482 0.961 . S
C467 H483 0.961 . S
C468 C469 1.370 . S
C468 C470 1.363 . S
C468 H484 0.931 . S
C469 C468 1.370 . S
C469 C473 1.408 . S
C470 C468 1.363 . S
C470 C471 1.370 . S
C470 C474 1.524 . S
C471 C463 1.503 1_556 S
C471 C470 1.370 . S
C471 C472 1.403 . S
C472 C471 1.403 . S
C472 C473 1.404 . S
C472 C475 1.539 . S
C473 C469 1.408 . S
C473 C472 1.404 . S
C473 H485 0.930 . S
C474 C470 1.524 . S
C474 H486 0.956 . S
C474 H487 0.961 1_556 S
C474 H488 0.961 . S
C475 C472 1.539 . S
C475 H489 0.958 . S
C475 H490 0.961 . S
C475 H491 0.960 1_556 S
H476 C460 0.931 . S
H477 C465 0.929 . S
H478 C466 0.960 . S
H479 C466 0.962 . S
H480 C466 0.960 . S
H481 C467 0.961 . S
H482 C467 0.961 . S
H483 C467 0.961 . S
H484 C468 0.931 . S
H485 C473 0.930 . S
H486 C474 0.956 . S
H487 C474 0.961 1_554 S
H488 C474 0.961 . S
H489 C475 0.958 . S
H490 C475 0.961 . S
H491 C475 0.960 1_554 S
C492 C493 1.391 . S
C492 C494 1.394 . S
C492 H508 0.931 . S
C493 C492 1.391 . S
C493 C497 1.376 . S
C494 C492 1.394 . S
C494 C495 1.369 . S
C494 C498 1.531 . S
C495 C494 1.369 . S
C495 C496 1.410 . S
C495 C503 1.503 . S
C496 C495 1.410 . S
C496 C497 1.392 . S
C496 C499 1.511 . S
C497 C493 1.376 . S
C497 C496 1.392 . S
C497 H509 0.929 . S
C498 C494 1.531 . S
C498 H510 0.960 . S
C498 H511 0.962 . S
C498 H512 0.960 . S
C499 C496 1.511 . S
C499 H513 0.961 . S
C499 H514 0.961 . S
C499 H515 0.961 . S
C500 C501 1.370 . S
C500 C502 1.363 . S
C500 H516 0.931 . S
C501 C500 1.370 . S
C501 C505 1.408 . S
C502 C500 1.363 . S
C502 C503 1.370 . S
C502 C506 1.524 . S
C503 C495 1.503 . S
C503 C502 1.370 . S
C503 C504 1.403 . S
C504 C503 1.403 . S
C504 C505 1.404 . S
C504 C507 1.539 . S
C505 C501 1.408 . S
C505 C504 1.404 . S
C505 H517 0.930 . S
C506 C502 1.524 . S
C506 H518 0.956 . S
C506 H519 0.961 . S
C506 H520 0.961 . S
C507 C504 1.539 . S
C507 H521 0.958 . S
C507 H522 0.961 . S
C507 H523 0.960 . S
H508 C492 0.931 . S
H509 C497 0.929 . S
H510 C498 0.960 . S
H511 C498 0.962 . S
H512 C498 0.960 . S
H513 C499 0.961 . S
H514 C499 0.961 . S
H515 C499 0.961 . S
H516 C500 0.931 . S
H517 C505 0.930 . S
H518 C506 0.956 . S
H519 C506 0.961 . S
H520 C506 0.961 . S
H521 C507 0.958 . S
H522 C507 0.961 . S
H523 C507 0.960 . S
C524 C525 1.391 . S
C524 C526 1.394 . S
C524 H540 0.931 . S
C525 C524 1.391 . S
C525 C529 1.376 . S
C526 C524 1.394 . S
C526 C527 1.369 . S
C526 C530 1.531 1_554 S
C527 C526 1.369 . S
C527 C528 1.410 . S
C527 C535 1.503 1_554 S
C528 C527 1.410 . S
C528 C529 1.392 . S
C528 C531 1.511 . S
C529 C525 1.376 . S
C529 C528 1.392 . S
C529 H541 0.929 . S
C530 C526 1.531 1_556 S
C530 H542 0.960 . S
C530 H543 0.962 . S
C530 H544 0.960 . S
C531 C528 1.511 . S
C531 H545 0.961 . S
C531 H546 0.961 . S
C531 H547 0.961 . S
C532 C533 1.370 . S
C532 C534 1.363 . S
C532 H548 0.931 . S
C533 C532 1.370 . S
C533 C537 1.408 . S
C534 C532 1.363 . S
C534 C535 1.370 . S
C534 C538 1.524 . S
C535 C527 1.503 1_556 S
C535 C534 1.370 . S
C535 C536 1.403 . S
C536 C535 1.403 . S
C536 C537 1.404 . S
C536 C539 1.539 . S
C537 C533 1.408 . S
C537 C536 1.404 . S
C537 H549 0.930 . S
C538 C534 1.524 . S
C538 H550 0.956 . S
C538 H551 0.961 1_556 S
C538 H552 0.961 . S
C539 C536 1.539 . S
C539 H553 0.958 . S
C539 H554 0.961 . S
C539 H555 0.960 . S
H540 C524 0.931 . S
H541 C529 0.929 . S
H542 C530 0.960 . S
H543 C530 0.962 . S
H544 C530 0.960 . S
H545 C531 0.961 . S
H546 C531 0.961 . S
H547 C531 0.961 . S
H548 C532 0.931 . S
H549 C537 0.930 . S
H550 C538 0.956 . S
H551 C538 0.961 1_554 S
H552 C538 0.961 . S
H553 C539 0.958 . S
H554 C539 0.961 . S
H555 C539 0.960 . S
C556 C557 1.391 . S
C556 C558 1.394 . S
C556 H572 0.931 . S
C557 C556 1.391 . S
C557 C561 1.376 . S
C558 C556 1.394 . S
C558 C559 1.369 . S
C558 C562 1.531 . S
C559 C558 1.369 . S
C559 C560 1.410 . S
C559 C567 1.503 . S
C560 C559 1.410 . S
C560 C561 1.392 . S
C560 C563 1.511 . S
C561 C557 1.376 . S
C561 C560 1.392 . S
C561 H573 0.929 . S
C562 C558 1.531 . S
C562 H574 0.960 . S
C562 H575 0.962 . S
C562 H576 0.960 . S
C563 C560 1.511 . S
C563 H577 0.961 . S
C563 H578 0.961 . S
C563 H579 0.961 . S
C564 C565 1.370 . S
C564 C566 1.363 . S
C564 H580 0.931 . S
C565 C564 1.370 . S
C565 C569 1.408 . S
C566 C564 1.363 . S
C566 C567 1.370 . S
C566 C570 1.524 . S
C567 C559 1.503 . S
C567 C566 1.370 . S
C567 C568 1.403 . S
C568 C567 1.403 . S
C568 C569 1.404 . S
C568 C571 1.539 . S
C569 C565 1.408 . S
C569 C568 1.404 . S
C569 H581 0.930 . S
C570 C566 1.524 . S
C570 H582 0.956 . S
C570 H583 0.961 . S
C570 H584 0.961 . S
C571 C568 1.539 . S
C571 H585 0.958 . S
C571 H586 0.961 . S
C571 H587 0.960 . S
H572 C556 0.931 . S
H573 C561 0.929 . S
H574 C562 0.960 . S
H575 C562 0.962 . S
H576 C562 0.960 . S
H577 C563 0.961 . S
H578 C563 0.961 . S
H579 C563 0.961 . S
H580 C564 0.931 . S
H581 C569 0.930 . S
H582 C570 0.956 . S
H583 C570 0.961 . S
H584 C570 0.961 . S
H585 C571 0.958 . S
H586 C571 0.961 . S
H587 C571 0.960 . S
C588 C589 1.391 . S
C588 C590 1.394 . S
C588 H604 0.931 . S
C589 C588 1.391 . S
C589 C593 1.376 . S
C590 C588 1.394 . S
C590 C591 1.369 . S
C590 C594 1.531 1_554 S
C591 C590 1.369 . S
C591 C592 1.410 . S
C591 C599 1.503 1_554 S
C592 C591 1.410 . S
C592 C593 1.392 . S
C592 C595 1.511 . S
C593 C589 1.376 . S
C593 C592 1.392 . S
C593 H605 0.929 . S
C594 C590 1.531 1_556 S
C594 H606 0.960 . S
C594 H607 0.962 1_556 S
C594 H608 0.960 . S
C595 C592 1.511 . S
C595 H609 0.961 . S
C595 H610 0.961 . S
C595 H611 0.961 . S
C596 C597 1.370 . S
C596 C598 1.363 . S
C596 H612 0.931 . S
C597 C596 1.370 . S
C597 C601 1.408 . S
C598 C596 1.363 . S
C598 C599 1.370 . S
C598 C602 1.524 1_556 S
C599 C591 1.503 1_556 S
C599 C598 1.370 . S
C599 C600 1.403 . S
C600 C599 1.403 . S
C600 C601 1.404 . S
C600 C603 1.539 . S
C601 C597 1.408 . S
C601 C600 1.404 . S
C601 H613 0.930 . S
C602 C598 1.524 1_554 S
C602 H614 0.956 . S
C602 H615 0.961 . S
C602 H616 0.961 . S
C603 C600 1.539 . S
C603 H617 0.958 . S
C603 H618 0.961 . S
C603 H619 0.960 . S
H604 C588 0.931 . S
H605 C593 0.929 . S
H606 C594 0.960 . S
H607 C594 0.962 1_554 S
H608 C594 0.960 . S
H609 C595 0.961 . S
H610 C595 0.961 . S
H611 C595 0.961 . S
H612 C596 0.931 . S
H613 C601 0.930 . S
H614 C602 0.956 . S
H615 C602 0.961 . S
H616 C602 0.961 . S
H617 C603 0.958 . S
H618 C603 0.961 . S
H619 C603 0.960 . S
C620 C621 1.391 . S
C620 C622 1.394 . S
C620 H636 0.931 . S
C621 C620 1.391 . S
C621 C625 1.376 . S
C622 C620 1.394 . S
C622 C623 1.369 . S
C622 C626 1.531 . S
C623 C622 1.369 . S
C623 C624 1.410 . S
C623 C631 1.503 . S
C624 C623 1.410 . S
C624 C625 1.392 . S
C624 C627 1.511 . S
C625 C621 1.376 . S
C625 C624 1.392 . S
C625 H637 0.929 . S
C626 C622 1.531 . S
C626 H638 0.960 . S
C626 H639 0.962 . S
C626 H640 0.960 . S
C627 C624 1.511 . S
C627 H641 0.961 . S
C627 H642 0.961 . S
C627 H643 0.961 . S
C628 C629 1.370 . S
C628 C630 1.363 . S
C628 H644 0.931 . S
C629 C628 1.370 . S
C629 C633 1.408 . S
C630 C628 1.363 . S
C630 C631 1.370 . S
C630 C634 1.524 . S
C631 C623 1.503 . S
C631 C630 1.370 . S
C631 C632 1.403 . S
C632 C631 1.403 . S
C632 C633 1.404 . S
C632 C635 1.539 . S
C633 C629 1.408 . S
C633 C632 1.404 . S
C633 H645 0.930 . S
C634 C630 1.524 . S
C634 H646 0.956 . S
C634 H647 0.961 . S
C634 H648 0.961 . S
C635 C632 1.539 . S
C635 H649 0.958 . S
C635 H650 0.961 . S
C635 H651 0.960 . S
H636 C620 0.931 . S
H637 C625 0.929 . S
H638 C626 0.960 . S
H639 C626 0.962 . S
H640 C626 0.960 . S
H641 C627 0.961 . S
H642 C627 0.961 . S
H643 C627 0.961 . S
H644 C628 0.931 . S
H645 C633 0.930 . S
H646 C634 0.956 . S
H647 C634 0.961 . S
H648 C634 0.961 . S
H649 C635 0.958 . S
H650 C635 0.961 . S
H651 C635 0.960 . S
C652 C653 1.391 . S
C652 C654 1.394 . S
C652 H668 0.931 . S
C653 C652 1.391 . S
C653 C657 1.376 . S
C654 C652 1.394 . S
C654 C655 1.369 . S
C654 C658 1.531 . S
C655 C654 1.369 . S
C655 C656 1.410 . S
C655 C663 1.503 1_554 S
C656 C655 1.410 . S
C656 C657 1.392 . S
C656 C659 1.511 1_554 S
C657 C653 1.376 . S
C657 C656 1.392 . S
C657 H669 0.929 . S
C658 C654 1.531 . S
C658 H670 0.960 . S
C658 H671 0.962 . S
C658 H672 0.960 . S
C659 C656 1.511 1_556 S
C659 H673 0.961 . S
C659 H674 0.961 . S
C659 H675 0.961 . S
C660 C661 1.370 . S
C660 C662 1.363 . S
C660 H676 0.931 . S
C661 C660 1.370 . S
C661 C665 1.408 . S
C662 C660 1.363 . S
C662 C663 1.370 . S
C662 C666 1.524 1_556 S
C663 C655 1.503 1_556 S
C663 C662 1.370 . S
C663 C664 1.403 . S
C664 C663 1.403 . S
C664 C665 1.404 . S
C664 C667 1.539 . S
C665 C661 1.408 . S
C665 C664 1.404 . S
C665 H677 0.930 . S
C666 C662 1.524 1_554 S
C666 H678 0.956 . S
C666 H679 0.961 . S
C666 H680 0.961 . S
C667 C664 1.539 . S
C667 H681 0.958 . S
C667 H682 0.961 . S
C667 H683 0.960 . S
H668 C652 0.931 . S
H669 C657 0.929 . S
H670 C658 0.960 . S
H671 C658 0.962 . S
H672 C658 0.960 . S
H673 C659 0.961 . S
H674 C659 0.961 . S
H675 C659 0.961 . S
H676 C660 0.931 . S
H677 C665 0.930 . S
H678 C666 0.956 . S
H679 C666 0.961 . S
H680 C666 0.961 . S
H681 C667 0.958 . S
H682 C667 0.961 . S
H683 C667 0.960 . S
C684 C685 1.391 . S
C684 C686 1.394 . S
C684 H700 0.931 . S
C685 C684 1.391 . S
C685 C689 1.376 . S
C686 C684 1.394 . S
C686 C687 1.369 . S
C686 C690 1.531 . S
C687 C686 1.369 . S
C687 C688 1.410 . S
C687 C695 1.503 . S
C688 C687 1.410 . S
C688 C689 1.392 . S
C688 C691 1.511 . S
C689 C685 1.376 . S
C689 C688 1.392 . S
C689 H701 0.929 . S
C690 C686 1.531 . S
C690 H702 0.960 . S
C690 H703 0.962 . S
C690 H704 0.960 . S
C691 C688 1.511 . S
C691 H705 0.961 . S
C691 H706 0.961 . S
C691 H707 0.961 . S
C692 C693 1.370 . S
C692 C694 1.363 . S
C692 H708 0.931 . S
C693 C692 1.370 . S
C693 C697 1.408 . S
C694 C692 1.363 . S
C694 C695 1.370 . S
C694 C698 1.524 . S
C695 C687 1.503 . S
C695 C694 1.370 . S
C695 C696 1.403 . S
C696 C695 1.403 . S
C696 C697 1.404 . S
C696 C699 1.539 . S
C697 C693 1.408 . S
C697 C696 1.404 . S
C697 H709 0.930 . S
C698 C694 1.524 . S
C698 H710 0.956 . S
C698 H711 0.961 . S
C698 H712 0.961 . S
C699 C696 1.539 . S
C699 H713 0.958 . S
C699 H714 0.961 . S
C699 H715 0.960 . S
H700 C684 0.931 . S
H701 C689 0.929 . S
H702 C690 0.960 . S
H703 C690 0.962 . S
H704 C690 0.960 . S
H705 C691 0.961 . S
H706 C691 0.961 . S
H707 C691 0.961 . S
H708 C692 0.931 . S
H709 C697 0.930 . S
H710 C698 0.956 . S
H711 C698 0.961 . S
H712 C698 0.961 . S
H713 C699 0.958 . S
H714 C699 0.961 . S
H715 C699 0.960 . S
C716 C717 1.391 . S
C716 C718 1.394 . S
C716 H732 0.931 . S
C717 C716 1.391 . S
C717 C721 1.376 . S
C718 C716 1.394 . S
C718 C719 1.369 . S
C718 C722 1.531 1_554 S
C719 C718 1.369 . S
C719 C720 1.410 . S
C719 C727 1.503 1_554 S
C720 C719 1.410 . S
C720 C721 1.392 . S
C720 C723 1.511 . S
C721 C717 1.376 . S
C721 C720 1.392 . S
C721 H733 0.929 . S
C722 C718 1.531 1_556 S
C722 H734 0.960 . S
C722 H735 0.962 . S
C722 H736 0.960 . S
C723 C720 1.511 . S
C723 H737 0.961 . S
C723 H738 0.961 . S
C723 H739 0.961 . S
C724 C725 1.370 . S
C724 C726 1.363 . S
C724 H740 0.931 . S
C725 C724 1.370 . S
C725 C729 1.408 . S
C726 C724 1.363 . S
C726 C727 1.370 . S
C726 C730 1.524 . S
C727 C719 1.503 1_556 S
C727 C726 1.370 . S
C727 C728 1.403 . S
C728 C727 1.403 . S
C728 C729 1.404 . S
C728 C731 1.539 . S
C729 C725 1.408 . S
C729 C728 1.404 . S
C729 H741 0.930 . S
C730 C726 1.524 . S
C730 H742 0.956 . S
C730 H743 0.961 1_556 S
C730 H744 0.961 . S
C731 C728 1.539 . S
C731 H745 0.958 . S
C731 H746 0.961 . S
C731 H747 0.960 1_556 S
H732 C716 0.931 . S
H733 C721 0.929 . S
H734 C722 0.960 . S
H735 C722 0.962 . S
H736 C722 0.960 . S
H737 C723 0.961 . S
H738 C723 0.961 . S
H739 C723 0.961 . S
H740 C724 0.931 . S
H741 C729 0.930 . S
H742 C730 0.956 . S
H743 C730 0.961 1_554 S
H744 C730 0.961 . S
H745 C731 0.958 . S
H746 C731 0.961 . S
H747 C731 0.960 1_554 S
C748 C749 1.391 . S
C748 C750 1.394 . S
C748 H764 0.931 . S
C749 C748 1.391 . S
C749 C753 1.376 . S
C750 C748 1.394 . S
C750 C751 1.369 . S
C750 C754 1.531 . S
C751 C750 1.369 . S
C751 C752 1.410 . S
C751 C759 1.503 . S
C752 C751 1.410 . S
C752 C753 1.392 . S
C752 C755 1.511 . S
C753 C749 1.376 . S
C753 C752 1.392 . S
C753 H765 0.929 . S
C754 C750 1.531 . S
C754 H766 0.960 . S
C754 H767 0.962 . S
C754 H768 0.960 . S
C755 C752 1.511 . S
C755 H769 0.961 . S
C755 H770 0.961 . S
C755 H771 0.961 . S
C756 C757 1.370 . S
C756 C758 1.363 . S
C756 H772 0.931 . S
C757 C756 1.370 . S
C757 C761 1.408 . S
C758 C756 1.363 . S
C758 C759 1.370 . S
C758 C762 1.524 . S
C759 C751 1.503 . S
C759 C758 1.370 . S
C759 C760 1.403 . S
C760 C759 1.403 . S
C760 C761 1.404 . S
C760 C763 1.539 . S
C761 C757 1.408 . S
C761 C760 1.404 . S
C761 H773 0.930 . S
C762 C758 1.524 . S
C762 H774 0.956 . S
C762 H775 0.961 . S
C762 H776 0.961 . S
C763 C760 1.539 . S
C763 H777 0.958 . S
C763 H778 0.961 . S
C763 H779 0.960 . S
H764 C748 0.931 . S
H765 C753 0.929 . S
H766 C754 0.960 . S
H767 C754 0.962 . S
H768 C754 0.960 . S
H769 C755 0.961 . S
H770 C755 0.961 . S
H771 C755 0.961 . S
H772 C756 0.931 . S
H773 C761 0.930 . S
H774 C762 0.956 . S
H775 C762 0.961 . S
H776 C762 0.961 . S
H777 C763 0.958 . S
H778 C763 0.961 . S
H779 C763 0.960 . S
C780 C781 1.391 . S
C780 C782 1.394 . S
C780 H796 0.931 . S
C781 C780 1.391 . S
C781 C785 1.376 . S
C782 C780 1.394 . S
C782 C783 1.369 . S
C782 C786 1.531 1_556 S
C783 C782 1.369 . S
C783 C784 1.410 . S
C783 C791 1.503 1_556 S
C784 C783 1.410 . S
C784 C785 1.392 . S
C784 C787 1.511 . S
C785 C781 1.376 . S
C785 C784 1.392 . S
C785 H797 0.929 . S
C786 C782 1.531 1_554 S
C786 H798 0.960 . S
C786 H799 0.962 . S
C786 H800 0.960 . S
C787 C784 1.511 . S
C787 H801 0.961 . S
C787 H802 0.961 . S
C787 H803 0.961 . S
C788 C789 1.370 . S
C788 C790 1.363 . S
C788 H804 0.931 . S
C789 C788 1.370 . S
C789 C793 1.408 . S
C790 C788 1.363 . S
C790 C791 1.370 . S
C790 C794 1.524 . S
C791 C783 1.503 1_554 S
C791 C790 1.370 . S
C791 C792 1.403 . S
C792 C791 1.403 . S
C792 C793 1.404 . S
C792 C795 1.539 1_554 S
C793 C789 1.408 . S
C793 C792 1.404 . S
C793 H805 0.930 . S
C794 C790 1.524 . S
C794 H806 0.956 . S
C794 H807 0.961 . S
C794 H808 0.961 . S
C795 C792 1.539 1_556 S
C795 H809 0.958 . S
C795 H810 0.961 . S
C795 H811 0.960 . S
H796 C780 0.931 . S
H797 C785 0.929 . S
H798 C786 0.960 . S
H799 C786 0.962 . S
H800 C786 0.960 . S
H801 C787 0.961 . S
H802 C787 0.961 . S
H803 C787 0.961 . S
H804 C788 0.931 . S
H805 C793 0.930 . S
H806 C794 0.956 . S
H807 C794 0.961 . S
H808 C794 0.961 . S
H809 C795 0.958 . S
H810 C795 0.961 . S
H811 C795 0.960 . S
C812 C813 1.391 . S
C812 C814 1.394 . S
C812 H828 0.931 . S
C813 C812 1.391 . S
C813 C817 1.376 . S
C814 C812 1.394 . S
C814 C815 1.369 . S
C814 C818 1.531 . S
C815 C814 1.369 . S
C815 C816 1.410 . S
C815 C823 1.503 . S
C816 C815 1.410 . S
C816 C817 1.392 . S
C816 C819 1.511 . S
C817 C813 1.376 . S
C817 C816 1.392 . S
C817 H829 0.929 . S
C818 C814 1.531 . S
C818 H830 0.960 . S
C818 H831 0.962 . S
C818 H832 0.960 . S
C819 C816 1.511 . S
C819 H833 0.961 . S
C819 H834 0.961 . S
C819 H835 0.961 . S
C820 C821 1.370 . S
C820 C822 1.363 . S
C820 H836 0.931 . S
C821 C820 1.370 . S
C821 C825 1.408 . S
C822 C820 1.363 . S
C822 C823 1.370 . S
C822 C826 1.524 . S
C823 C815 1.503 . S
C823 C822 1.370 . S
C823 C824 1.403 . S
C824 C823 1.403 . S
C824 C825 1.404 . S
C824 C827 1.539 . S
C825 C821 1.408 . S
C825 C824 1.404 . S
C825 H837 0.930 . S
C826 C822 1.524 . S
C826 H838 0.956 . S
C826 H839 0.961 . S
C826 H840 0.961 . S
C827 C824 1.539 . S
C827 H841 0.958 . S
C827 H842 0.961 . S
C827 H843 0.960 . S
H828 C812 0.931 . S
H829 C817 0.929 . S
H830 C818 0.960 . S
H831 C818 0.962 . S
H832 C818 0.960 . S
H833 C819 0.961 . S
H834 C819 0.961 . S
H835 C819 0.961 . S
H836 C820 0.931 . S
H837 C825 0.930 . S
H838 C826 0.956 . S
H839 C826 0.961 . S
H840 C826 0.961 . S
H841 C827 0.958 . S
H842 C827 0.961 . S
H843 C827 0.960 . S
C844 C845 1.391 . S
C844 C846 1.394 . S
C844 H860 0.931 . S
C845 C844 1.391 . S
C845 C849 1.376 . S
C846 C844 1.394 . S
C846 C847 1.369 . S
C846 C850 1.531 . S
C847 C846 1.369 . S
C847 C848 1.410 . S
C847 C855 1.503 1_554 S
C848 C847 1.410 . S
C848 C849 1.392 . S
C848 C851 1.511 . S
C849 C845 1.376 . S
C849 C848 1.392 . S
C849 H861 0.929 . S
C850 C846 1.531 . S
C850 H862 0.960 . S
C850 H863 0.962 . S
C850 H864 0.960 . S
C851 C848 1.511 . S
C851 H865 0.961 . S
C851 H866 0.961 1_554 S
C851 H867 0.961 . S
C852 C853 1.370 . S
C852 C854 1.363 . S
C852 H868 0.931 . S
C853 C852 1.370 . S
C853 C857 1.408 . S
C854 C852 1.363 . S
C854 C855 1.370 . S
C854 C858 1.524 . S
C855 C847 1.503 1_556 S
C855 C854 1.370 . S
C855 C856 1.403 . S
C856 C855 1.403 . S
C856 C857 1.404 . S
C856 C859 1.539 1_556 S
C857 C853 1.408 . S
C857 C856 1.404 . S
C857 H869 0.930 . S
C858 C854 1.524 . S
C858 H870 0.956 . S
C858 H871 0.961 . S
C858 H872 0.961 . S
C859 C856 1.539 1_554 S
C859 H873 0.958 . S
C859 H874 0.961 . S
C859 H875 0.960 . S
H860 C844 0.931 . S
H861 C849 0.929 . S
H862 C850 0.960 . S
H863 C850 0.962 . S
H864 C850 0.960 . S
H865 C851 0.961 . S
H866 C851 0.961 1_556 S
H867 C851 0.961 . S
H868 C852 0.931 . S
H869 C857 0.930 . S
H870 C858 0.956 . S
H871 C858 0.961 . S
H872 C858 0.961 . S
H873 C859 0.958 . S
H874 C859 0.961 . S
H875 C859 0.960 . S
C876 C877 1.391 . S
C876 C878 1.394 . S
C876 H892 0.931 . S
C877 C876 1.391 . S
C877 C881 1.376 . S
C878 C876 1.394 . S
C878 C879 1.369 . S
C878 C882 1.531 . S
C879 C878 1.369 . S
C879 C880 1.410 . S
C879 C887 1.503 . S
C880 C879 1.410 . S
C880 C881 1.392 . S
C880 C883 1.511 . S
C881 C877 1.376 . S
C881 C880 1.392 . S
C881 H893 0.929 . S
C882 C878 1.531 . S
C882 H894 0.960 . S
C882 H895 0.962 . S
C882 H896 0.960 . S
C883 C880 1.511 . S
C883 H897 0.961 . S
C883 H898 0.961 . S
C883 H899 0.961 . S
C884 C885 1.370 . S
C884 C886 1.363 . S
C884 H900 0.931 . S
C885 C884 1.370 . S
C885 C889 1.408 . S
C886 C884 1.363 . S
C886 C887 1.370 . S
C886 C890 1.524 . S
C887 C879 1.503 . S
C887 C886 1.370 . S
C887 C888 1.403 . S
C888 C887 1.403 . S
C888 C889 1.404 . S
C888 C891 1.539 . S
C889 C885 1.408 . S
C889 C888 1.404 . S
C889 H901 0.930 . S
C890 C886 1.524 . S
C890 H902 0.956 . S
C890 H903 0.961 . S
C890 H904 0.961 . S
C891 C888 1.539 . S
C891 H905 0.958 . S
C891 H906 0.961 . S
C891 H907 0.960 . S
H892 C876 0.931 . S
H893 C881 0.929 . S
H894 C882 0.960 . S
H895 C882 0.962 . S
H896 C882 0.960 . S
H897 C883 0.961 . S
H898 C883 0.961 . S
H899 C883 0.961 . S
H900 C884 0.931 . S
H901 C889 0.930 . S
H902 C890 0.956 . S
H903 C890 0.961 . S
H904 C890 0.961 . S
H905 C891 0.958 . S
H906 C891 0.961 . S
H907 C891 0.960 . S
C908 C909 1.391 . S
C908 C910 1.394 . S
C908 H924 0.931 . S
C909 C908 1.391 . S
C909 C913 1.376 . S
C910 C908 1.394 . S
C910 C911 1.369 . S
C910 C914 1.531 1_554 S
C911 C910 1.369 . S
C911 C912 1.410 . S
C911 C919 1.503 1_554 S
C912 C911 1.410 . S
C912 C913 1.392 . S
C912 C915 1.511 . S
C913 C909 1.376 . S
C913 C912 1.392 . S
C913 H925 0.929 . S
C914 C910 1.531 1_556 S
C914 H926 0.960 . S
C914 H927 0.962 . S
C914 H928 0.960 . S
C915 C912 1.511 . S
C915 H929 0.961 . S
C915 H930 0.961 . S
C915 H931 0.961 . S
C916 C917 1.370 . S
C916 C918 1.363 . S
C916 H932 0.931 . S
C917 C916 1.370 . S
C917 C921 1.408 . S
C918 C916 1.363 . S
C918 C919 1.370 . S
C918 C922 1.524 . S
C919 C911 1.503 1_556 S
C919 C918 1.370 . S
C919 C920 1.403 . S
C920 C919 1.403 . S
C920 C921 1.404 . S
C920 C923 1.539 . S
C921 C917 1.408 . S
C921 C920 1.404 . S
C921 H933 0.930 . S
C922 C918 1.524 . S
C922 H934 0.956 . S
C922 H935 0.961 1_556 S
C922 H936 0.961 . S
C923 C920 1.539 . S
C923 H937 0.958 . S
C923 H938 0.961 . S
C923 H939 0.960 1_556 S
H924 C908 0.931 . S
H925 C913 0.929 . S
H926 C914 0.960 . S
H927 C914 0.962 . S
H928 C914 0.960 . S
H929 C915 0.961 . S
H930 C915 0.961 . S
H931 C915 0.961 . S
H932 C916 0.931 . S
H933 C921 0.930 . S
H934 C922 0.956 . S
H935 C922 0.961 1_554 S
H936 C922 0.961 . S
H937 C923 0.958 . S
H938 C923 0.961 . S
H939 C923 0.960 1_554 S
C940 C941 1.391 . S
C940 C942 1.394 . S
C940 H956 0.931 . S
C941 C940 1.391 . S
C941 C945 1.376 . S
C942 C940 1.394 . S
C942 C943 1.369 . S
C942 C946 1.531 . S
C943 C942 1.369 . S
C943 C944 1.410 . S
C943 C951 1.503 . S
C944 C943 1.410 . S
C944 C945 1.392 . S
C944 C947 1.511 . S
C945 C941 1.376 . S
C945 C944 1.392 . S
C945 H957 0.929 . S
C946 C942 1.531 . S
C946 H958 0.960 . S
C946 H959 0.962 . S
C946 H960 0.960 . S
C947 C944 1.511 . S
C947 H961 0.961 . S
C947 H962 0.961 . S
C947 H963 0.961 . S
C948 C949 1.370 . S
C948 C950 1.363 . S
C948 H964 0.931 . S
C949 C948 1.370 . S
C949 C953 1.408 . S
C950 C948 1.363 . S
C950 C951 1.370 . S
C950 C954 1.524 . S
C951 C943 1.503 . S
C951 C950 1.370 . S
C951 C952 1.403 . S
C952 C951 1.403 . S
C952 C953 1.404 . S
C952 C955 1.539 . S
C953 C949 1.408 . S
C953 C952 1.404 . S
C953 H965 0.930 . S
C954 C950 1.524 . S
C954 H966 0.956 . S
C954 H967 0.961 . S
C954 H968 0.961 . S
C955 C952 1.539 . S
C955 H969 0.958 . S
C955 H970 0.961 . S
C955 H971 0.960 . S
H956 C940 0.931 . S
H957 C945 0.929 . S
H958 C946 0.960 . S
H959 C946 0.962 . S
H960 C946 0.960 . S
H961 C947 0.961 . S
H962 C947 0.961 . S
H963 C947 0.961 . S
H964 C948 0.931 . S
H965 C953 0.930 . S
H966 C954 0.956 . S
H967 C954 0.961 . S
H968 C954 0.961 . S
H969 C955 0.958 . S
H970 C955 0.961 . S
H971 C955 0.960 . S
C972 C973 1.391 . S
C972 C974 1.394 . S
C972 H988 0.931 . S
C973 C972 1.391 . S
C973 C977 1.376 . S
C974 C972 1.394 . S
C974 C975 1.369 . S
C974 C978 1.531 . S
C975 C974 1.369 . S
C975 C976 1.410 . S
C975 C983 1.503 1_556 S
C976 C975 1.410 . S
C976 C977 1.392 . S
C976 C979 1.511 1_556 S
C977 C973 1.376 . S
C977 C976 1.392 . S
C977 H989 0.929 . S
C978 C974 1.531 . S
C978 H990 0.960 . S
C978 H991 0.962 . S
C978 H992 0.960 . S
C979 C976 1.511 1_554 S
C979 H993 0.961 . S
C979 H994 0.961 . S
C979 H995 0.961 . S
C980 C981 1.370 . S
C980 C982 1.363 . S
C980 H996 0.931 . S
C981 C980 1.370 . S
C981 C985 1.408 . S
C982 C980 1.363 . S
C982 C983 1.370 . S
C982 C986 1.524 1_554 S
C983 C975 1.503 1_554 S
C983 C982 1.370 . S
C983 C984 1.403 . S
C984 C983 1.403 . S
C984 C985 1.404 . S
C984 C987 1.539 . S
C985 C981 1.408 . S
C985 C984 1.404 . S
C985 H997 0.930 . S
C986 C982 1.524 1_556 S
C986 H998 0.956 . S
C986 H999 0.961 . S
C986 H1000 0.961 . S
C987 C984 1.539 . S
C987 H1001 0.958 . S
C987 H1002 0.961 . S
C987 H1003 0.960 . S
H988 C972 0.931 . S
H989 C977 0.929 . S
H990 C978 0.960 . S
H991 C978 0.962 . S
H992 C978 0.960 . S
H993 C979 0.961 . S
H994 C979 0.961 . S
H995 C979 0.961 . S
H996 C980 0.931 . S
H997 C985 0.930 . S
H998 C986 0.956 . S
H999 C986 0.961 . S
H1000 C986 0.961 . S
H1001 C987 0.958 . S
H1002 C987 0.961 . S
H1003 C987 0.960 . S
C1004 C1005 1.391 . S
C1004 C1006 1.394 . S
C1004 H1020 0.931 . S
C1005 C1004 1.391 . S
C1005 C1009 1.376 . S
C1006 C1004 1.394 . S
C1006 C1007 1.369 . S
C1006 C1010 1.531 . S
C1007 C1006 1.369 . S
C1007 C1008 1.410 . S
C1007 C1015 1.503 . S
C1008 C1007 1.410 . S
C1008 C1009 1.392 . S
C1008 C1011 1.511 . S
C1009 C1005 1.376 . S
C1009 C1008 1.392 . S
C1009 H1021 0.929 . S
C1010 C1006 1.531 . S
C1010 H1022 0.960 . S
C1010 H1023 0.962 . S
C1010 H1024 0.960 . S
C1011 C1008 1.511 . S
C1011 H1025 0.961 . S
C1011 H1026 0.961 . S
C1011 H1027 0.961 . S
C1012 C1013 1.370 . S
C1012 C1014 1.363 . S
C1012 H1028 0.931 . S
C1013 C1012 1.370 . S
C1013 C1017 1.408 . S
C1014 C1012 1.363 . S
C1014 C1015 1.370 . S
C1014 C1018 1.524 . S
C1015 C1007 1.503 . S
C1015 C1014 1.370 . S
C1015 C1016 1.403 . S
C1016 C1015 1.403 . S
C1016 C1017 1.404 . S
C1016 C1019 1.539 . S
C1017 C1013 1.408 . S
C1017 C1016 1.404 . S
C1017 H1029 0.930 . S
C1018 C1014 1.524 . S
C1018 H1030 0.956 . S
C1018 H1031 0.961 . S
C1018 H1032 0.961 . S
C1019 C1016 1.539 . S
C1019 H1033 0.958 . S
C1019 H1034 0.961 . S
C1019 H1035 0.960 . S
H1020 C1004 0.931 . S
H1021 C1009 0.929 . S
H1022 C1010 0.960 . S
H1023 C1010 0.962 . S
H1024 C1010 0.960 . S
H1025 C1011 0.961 . S
H1026 C1011 0.961 . S
H1027 C1011 0.961 . S
H1028 C1012 0.931 . S
H1029 C1017 0.930 . S
H1030 C1018 0.956 . S
H1031 C1018 0.961 . S
H1032 C1018 0.961 . S
H1033 C1019 0.958 . S
H1034 C1019 0.961 . S
H1035 C1019 0.960 . S
C1036 C1037 1.391 . S
C1036 C1038 1.394 . S
C1036 H1052 0.931 . S
C1037 C1036 1.391 . S
C1037 C1041 1.376 . S
C1038 C1036 1.394 . S
C1038 C1039 1.369 . S
C1038 C1042 1.531 1_554 S
C1039 C1038 1.369 . S
C1039 C1040 1.410 . S
C1039 C1047 1.503 1_554 S
C1040 C1039 1.410 . S
C1040 C1041 1.392 . S
C1040 C1043 1.511 . S
C1041 C1037 1.376 . S
C1041 C1040 1.392 . S
C1041 H1053 0.929 . S
C1042 C1038 1.531 1_556 S
C1042 H1054 0.960 . S
C1042 H1055 0.962 . S
C1042 H1056 0.960 . S
C1043 C1040 1.511 . S
C1043 H1057 0.961 . S
C1043 H1058 0.961 . S
C1043 H1059 0.961 . S
C1044 C1045 1.370 . S
C1044 C1046 1.363 . S
C1044 H1060 0.931 . S
C1045 C1044 1.370 . S
C1045 C1049 1.408 . S
C1046 C1044 1.363 . S
C1046 C1047 1.370 . S
C1046 C1050 1.524 1_556 S
C1047 C1039 1.503 1_556 S
C1047 C1046 1.370 . S
C1047 C1048 1.403 . S
C1048 C1047 1.403 . S
C1048 C1049 1.404 . S
C1048 C1051 1.539 . S
C1049 C1045 1.408 . S
C1049 C1048 1.404 . S
C1049 H1061 0.930 . S
C1050 C1046 1.524 1_554 S
C1050 H1062 0.956 . S
C1050 H1063 0.961 . S
C1050 H1064 0.961 . S
C1051 C1048 1.539 . S
C1051 H1065 0.958 . S
C1051 H1066 0.961 . S
C1051 H1067 0.960 . S
H1052 C1036 0.931 . S
H1053 C1041 0.929 . S
H1054 C1042 0.960 . S
H1055 C1042 0.962 . S
H1056 C1042 0.960 . S
H1057 C1043 0.961 . S
H1058 C1043 0.961 . S
H1059 C1043 0.961 . S
H1060 C1044 0.931 . S
H1061 C1049 0.930 . S
H1062 C1050 0.956 . S
H1063 C1050 0.961 . S
H1064 C1050 0.961 . S
H1065 C1051 0.958 . S
H1066 C1051 0.961 . S
H1067 C1051 0.960 . S
C1068 C1069 1.391 . S
C1068 C1070 1.394 . S
C1068 H1084 0.931 . S
C1069 C1068 1.391 . S
C1069 C1073 1.376 . S
C1070 C1068 1.394 . S
C1070 C1071 1.369 . S
C1070 C1074 1.531 . S
C1071 C1070 1.369 . S
C1071 C1072 1.410 . S
C1071 C1079 1.503 . S
C1072 C1071 1.410 . S
C1072 C1073 1.392 . S
C1072 C1075 1.511 . S
C1073 C1069 1.376 . S
C1073 C1072 1.392 . S
C1073 H1085 0.929 . S
C1074 C1070 1.531 . S
C1074 H1086 0.960 . S
C1074 H1087 0.962 . S
C1074 H1088 0.960 . S
C1075 C1072 1.511 . S
C1075 H1089 0.961 . S
C1075 H1090 0.961 . S
C1075 H1091 0.961 . S
C1076 C1077 1.370 . S
C1076 C1078 1.363 . S
C1076 H1092 0.931 . S
C1077 C1076 1.370 . S
C1077 C1081 1.408 . S
C1078 C1076 1.363 . S
C1078 C1079 1.370 . S
C1078 C1082 1.524 . S
C1079 C1071 1.503 . S
C1079 C1078 1.370 . S
C1079 C1080 1.403 . S
C1080 C1079 1.403 . S
C1080 C1081 1.404 . S
C1080 C1083 1.539 . S
C1081 C1077 1.408 . S
C1081 C1080 1.404 . S
C1081 H1093 0.930 . S
C1082 C1078 1.524 . S
C1082 H1094 0.956 . S
C1082 H1095 0.961 . S
C1082 H1096 0.961 . S
C1083 C1080 1.539 . S
C1083 H1097 0.958 . S
C1083 H1098 0.961 . S
C1083 H1099 0.960 . S
H1084 C1068 0.931 . S
H1085 C1073 0.929 . S
H1086 C1074 0.960 . S
H1087 C1074 0.962 . S
H1088 C1074 0.960 . S
H1089 C1075 0.961 . S
H1090 C1075 0.961 . S
H1091 C1075 0.961 . S
H1092 C1076 0.931 . S
H1093 C1081 0.930 . S
H1094 C1082 0.956 . S
H1095 C1082 0.961 . S
H1096 C1082 0.961 . S
H1097 C1083 0.958 . S
H1098 C1083 0.961 . S
H1099 C1083 0.960 . S
C1100 C1101 1.391 . S
C1100 C1102 1.394 . S
C1100 H1116 0.931 . S
C1101 C1100 1.391 . S
C1101 C1105 1.376 . S
C1102 C1100 1.394 . S
C1102 C1103 1.369 . S
C1102 C1106 1.531 . S
C1103 C1102 1.369 . S
C1103 C1104 1.410 . S
C1103 C1111 1.503 1_554 S
C1104 C1103 1.410 . S
C1104 C1105 1.392 . S
C1104 C1107 1.511 . S
C1105 C1101 1.376 . S
C1105 C1104 1.392 . S
C1105 H1117 0.929 . S
C1106 C1102 1.531 . S
C1106 H1118 0.960 1_554 S
C1106 H1119 0.962 . S
C1106 H1120 0.960 . S
C1107 C1104 1.511 . S
C1107 H1121 0.961 . S
C1107 H1122 0.961 1_554 S
C1107 H1123 0.961 1_554 S
C1108 C1109 1.370 . S
C1108 C1110 1.363 . S
C1108 H1124 0.931 . S
C1109 C1108 1.370 . S
C1109 C1113 1.408 . S
C1110 C1108 1.363 . S
C1110 C1111 1.370 . S
C1110 C1114 1.524 1_556 S
C1111 C1103 1.503 1_556 S
C1111 C1110 1.370 . S
C1111 C1112 1.403 . S
C1112 C1111 1.403 . S
C1112 C1113 1.404 . S
C1112 C1115 1.539 . S
C1113 C1109 1.408 . S
C1113 C1112 1.404 . S
C1113 H1125 0.930 . S
C1114 C1110 1.524 1_554 S
C1114 H1126 0.956 . S
C1114 H1127 0.961 . S
C1114 H1128 0.961 . S
C1115 C1112 1.539 . S
C1115 H1129 0.958 . S
C1115 H1130 0.961 . S
C1115 H1131 0.960 . S
H1116 C1100 0.931 . S
H1117 C1105 0.929 . S
H1118 C1106 0.960 1_556 S
H1119 C1106 0.962 . S
H1120 C1106 0.960 . S
H1121 C1107 0.961 . S
H1122 C1107 0.961 1_556 S
H1123 C1107 0.961 1_556 S
H1124 C1108 0.931 . S
H1125 C1113 0.930 . S
H1126 C1114 0.956 . S
H1127 C1114 0.961 . S
H1128 C1114 0.961 . S
H1129 C1115 0.958 . S
H1130 C1115 0.961 . S
H1131 C1115 0.960 . S
C1132 C1133 1.391 . S
C1132 C1134 1.394 . S
C1132 H1148 0.931 . S
C1133 C1132 1.391 . S
C1133 C1137 1.376 . S
C1134 C1132 1.394 . S
C1134 C1135 1.369 . S
C1134 C1138 1.531 . S
C1135 C1134 1.369 . S
C1135 C1136 1.410 . S
C1135 C1143 1.503 . S
C1136 C1135 1.410 . S
C1136 C1137 1.392 . S
C1136 C1139 1.511 . S
C1137 C1133 1.376 . S
C1137 C1136 1.392 . S
C1137 H1149 0.929 . S
C1138 C1134 1.531 . S
C1138 H1150 0.960 . S
C1138 H1151 0.962 . S
C1138 H1152 0.960 . S
C1139 C1136 1.511 . S
C1139 H1153 0.961 . S
C1139 H1154 0.961 . S
C1139 H1155 0.961 . S
C1140 C1141 1.370 . S
C1140 C1142 1.363 . S
C1140 H1156 0.931 . S
C1141 C1140 1.370 . S
C1141 C1145 1.408 . S
C1142 C1140 1.363 . S
C1142 C1143 1.370 . S
C1142 C1146 1.524 . S
C1143 C1135 1.503 . S
C1143 C1142 1.370 . S
C1143 C1144 1.403 . S
C1144 C1143 1.403 . S
C1144 C1145 1.404 . S
C1144 C1147 1.539 . S
C1145 C1141 1.408 . S
C1145 C1144 1.404 . S
C1145 H1157 0.930 . S
C1146 C1142 1.524 . S
C1146 H1158 0.956 . S
C1146 H1159 0.961 . S
C1146 H1160 0.961 . S
C1147 C1144 1.539 . S
C1147 H1161 0.958 . S
C1147 H1162 0.961 . S
C1147 H1163 0.960 . S
H1148 C1132 0.931 . S
H1149 C1137 0.929 . S
H1150 C1138 0.960 . S
H1151 C1138 0.962 . S
H1152 C1138 0.960 . S
H1153 C1139 0.961 . S
H1154 C1139 0.961 . S
H1155 C1139 0.961 . S
H1156 C1140 0.931 . S
H1157 C1145 0.930 . S
H1158 C1146 0.956 . S
H1159 C1146 0.961 . S
H1160 C1146 0.961 . S
H1161 C1147 0.958 . S
H1162 C1147 0.961 . S
H1163 C1147 0.960 . S
C1164 C1165 1.391 . S
C1164 C1166 1.394 . S
C1164 H1180 0.931 . S
C1165 C1164 1.391 . S
C1165 C1169 1.376 . S
C1166 C1164 1.394 . S
C1166 C1167 1.369 . S
C1166 C1170 1.531 . S
C1167 C1166 1.369 . S
C1167 C1168 1.410 . S
C1167 C1175 1.503 . S
C1168 C1167 1.410 . S
C1168 C1169 1.392 . S
C1168 C1171 1.511 . S
C1169 C1165 1.376 . S
C1169 C1168 1.392 . S
C1169 H1181 0.929 . S
C1170 C1166 1.531 . S
C1170 H1182 0.960 . S
C1170 H1183 0.962 . S
C1170 H1184 0.960 . S
C1171 C1168 1.511 . S
C1171 H1185 0.961 . S
C1171 H1186 0.961 . S
C1171 H1187 0.961 . S
C1172 C1173 1.370 . S
C1172 C1174 1.363 . S
C1172 H1188 0.931 . S
C1173 C1172 1.370 . S
C1173 C1177 1.408 . S
C1174 C1172 1.363 . S
C1174 C1175 1.370 . S
C1174 C1178 1.524 . S
C1175 C1167 1.503 . S
C1175 C1174 1.370 . S
C1175 C1176 1.403 . S
C1176 C1175 1.403 . S
C1176 C1177 1.404 . S
C1176 C1179 1.539 . S
C1177 C1173 1.408 . S
C1177 C1176 1.404 . S
C1177 H1189 0.930 . S
C1178 C1174 1.524 . S
C1178 H1190 0.956 . S
C1178 H1191 0.961 . S
C1178 H1192 0.961 . S
C1179 C1176 1.539 . S
C1179 H1193 0.958 . S
C1179 H1194 0.961 . S
C1179 H1195 0.960 . S
H1180 C1164 0.931 . S
H1181 C1169 0.929 . S
H1182 C1170 0.960 . S
H1183 C1170 0.962 . S
H1184 C1170 0.960 . S
H1185 C1171 0.961 . S
H1186 C1171 0.961 . S
H1187 C1171 0.961 . S
H1188 C1172 0.931 . S
H1189 C1177 0.930 . S
H1190 C1178 0.956 . S
H1191 C1178 0.961 . S
H1192 C1178 0.961 . S
H1193 C1179 0.958 . S
H1194 C1179 0.961 . S
H1195 C1179 0.960 . S
C1196 C1197 1.391 . S
C1196 C1198 1.394 . S
C1196 H1212 0.931 . S
C1197 C1196 1.391 . S
C1197 C1201 1.376 . S
C1198 C1196 1.394 . S
C1198 C1199 1.369 . S
C1198 C1202 1.531 . S
C1199 C1198 1.369 . S
C1199 C1200 1.410 . S
C1199 C1207 1.503 1_455 S
C1200 C1199 1.410 . S
C1200 C1201 1.392 . S
C1200 C1203 1.511 . S
C1201 C1197 1.376 . S
C1201 C1200 1.392 . S
C1201 H1213 0.929 . S
C1202 C1198 1.531 . S
C1202 H1214 0.960 1_455 S
C1202 H1215 0.962 . S
C1202 H1216 0.960 . S
C1203 C1200 1.511 . S
C1203 H1217 0.961 . S
C1203 H1218 0.961 1_455 S
C1203 H1219 0.961 . S
C1204 C1205 1.370 . S
C1204 C1206 1.363 . S
C1204 H1220 0.931 . S
C1205 C1204 1.370 . S
C1205 C1209 1.408 . S
C1206 C1204 1.363 . S
C1206 C1207 1.370 . S
C1206 C1210 1.524 . S
C1207 C1199 1.503 1_655 S
C1207 C1206 1.370 . S
C1207 C1208 1.403 . S
C1208 C1207 1.403 . S
C1208 C1209 1.404 . S
C1208 C1211 1.539 . S
C1209 C1205 1.408 . S
C1209 C1208 1.404 . S
C1209 H1221 0.930 . S
C1210 C1206 1.524 . S
C1210 H1222 0.956 . S
C1210 H1223 0.953 1_655 S
C1210 H1224 0.961 . S
C1211 C1208 1.539 . S
C1211 H1225 0.958 . S
C1211 H1226 0.961 . S
C1211 H1227 0.955 1_655 S
H1212 C1196 0.931 . S
H1213 C1201 0.929 . S
H1214 C1202 0.960 1_655 S
H1215 C1202 0.962 . S
H1216 C1202 0.960 . S
H1217 C1203 0.961 . S
H1218 C1203 0.961 1_655 S
H1219 C1203 0.961 . S
H1220 C1204 0.931 . S
H1221 C1209 0.930 . S
H1222 C1210 0.956 . S
H1223 C1210 0.953 1_455 S
H1224 C1210 0.961 . S
H1225 C1211 0.958 . S
H1226 C1211 0.961 . S
H1227 C1211 0.955 1_455 S
C1228 C1229 1.391 . S
C1228 C1230 1.394 . S
C1228 H1244 0.931 . S
C1229 C1228 1.391 . S
C1229 C1233 1.376 . S
C1230 C1228 1.394 . S
C1230 C1231 1.369 . S
C1230 C1234 1.531 . S
C1231 C1230 1.369 . S
C1231 C1232 1.410 . S
C1231 C1239 1.503 1_545 S
C1232 C1231 1.410 . S
C1232 C1233 1.392 . S
C1232 C1235 1.511 . S
C1233 C1229 1.376 . S
C1233 C1232 1.392 . S
C1233 H1245 0.929 . S
C1234 C1230 1.531 . S
C1234 H1246 0.960 1_545 S
C1234 H1247 0.962 . S
C1234 H1248 0.960 . S
C1235 C1232 1.511 . S
C1235 H1249 0.961 . S
C1235 H1250 0.961 1_545 S
C1235 H1251 0.961 . S
C1236 C1237 1.370 . S
C1236 C1238 1.363 . S
C1236 H1252 0.931 . S
C1237 C1236 1.370 . S
C1237 C1241 1.408 . S
C1238 C1236 1.363 . S
C1238 C1239 1.370 . S
C1238 C1242 1.524 . S
C1239 C1231 1.503 1_565 S
C1239 C1238 1.370 . S
C1239 C1240 1.403 . S
C1240 C1239 1.403 . S
C1240 C1241 1.404 . S
C1240 C1243 1.539 . S
C1241 C1237 1.408 . S
C1241 C1240 1.404 . S
C1241 H1253 0.930 . S
C1242 C1238 1.524 . S
C1242 H1254 0.956 . S
C1242 H1255 0.915 1_565 S
C1242 H1256 0.961 . S
C1243 C1240 1.539 . S
C1243 H1257 0.958 . S
C1243 H1258 0.961 . S
C1243 H1259 0.960 1_565 S
H1244 C1228 0.931 . S
H1245 C1233 0.929 . S
H1246 C1234 0.960 1_565 S
H1247 C1234 0.962 . S
H1248 C1234 0.960 . S
H1249 C1235 0.961 . S
H1250 C1235 0.961 1_565 S
H1251 C1235 0.961 . S
H1252 C1236 0.931 . S
H1253 C1241 0.930 . S
H1254 C1242 0.956 . S
H1255 C1242 0.915 1_545 S
H1256 C1242 0.961 . S
H1257 C1243 0.958 . S
H1258 C1243 0.961 . S
H1259 C1243 0.960 1_545 S
C1260 C1261 1.391 . S
C1260 C1262 1.394 . S
C1260 H1276 0.931 . S
C1261 C1260 1.391 . S
C1261 C1265 1.376 . S
C1262 C1260 1.394 . S
C1262 C1263 1.369 . S
C1262 C1266 1.531 . S
C1263 C1262 1.369 . S
C1263 C1264 1.410 . S
C1263 C1271 1.503 . S
C1264 C1263 1.410 . S
C1264 C1265 1.392 . S
C1264 C1267 1.511 . S
C1265 C1261 1.376 . S
C1265 C1264 1.392 . S
C1265 H1277 0.929 . S
C1266 C1262 1.531 . S
C1266 H1278 0.960 . S
C1266 H1279 0.962 . S
C1266 H1280 0.960 . S
C1267 C1264 1.511 . S
C1267 H1281 0.961 . S
C1267 H1282 0.961 . S
C1267 H1283 0.961 . S
C1268 C1269 1.370 . S
C1268 C1270 1.363 . S
C1268 H1284 0.931 . S
C1269 C1268 1.370 . S
C1269 C1273 1.408 . S
C1270 C1268 1.363 . S
C1270 C1271 1.370 . S
C1270 C1274 1.524 . S
C1271 C1263 1.503 . S
C1271 C1270 1.370 . S
C1271 C1272 1.403 . S
C1272 C1271 1.403 . S
C1272 C1273 1.404 . S
C1272 C1275 1.539 . S
C1273 C1269 1.408 . S
C1273 C1272 1.404 . S
C1273 H1285 0.930 . S
C1274 C1270 1.524 . S
C1274 H1286 0.956 . S
C1274 H1287 0.961 . S
C1274 H1288 0.961 . S
C1275 C1272 1.539 . S
C1275 H1289 0.958 . S
C1275 H1290 0.961 . S
C1275 H1291 0.960 . S
H1276 C1260 0.931 . S
H1277 C1265 0.929 . S
H1278 C1266 0.960 . S
H1279 C1266 0.962 . S
H1280 C1266 0.960 . S
H1281 C1267 0.961 . S
H1282 C1267 0.961 . S
H1283 C1267 0.961 . S
H1284 C1268 0.931 . S
H1285 C1273 0.930 . S
H1286 C1274 0.956 . S
H1287 C1274 0.961 . S
H1288 C1274 0.961 . S
H1289 C1275 0.958 . S
H1290 C1275 0.961 . S
H1291 C1275 0.960 . S
C1292 C1293 1.391 . S
C1292 C1294 1.394 . S
C1292 H1308 0.931 . S
C1293 C1292 1.391 . S
C1293 C1297 1.376 . S
C1294 C1292 1.394 . S
C1294 C1295 1.369 . S
C1294 C1298 1.531 . S
C1295 C1294 1.369 . S
C1295 C1296 1.410 . S
C1295 C1303 1.503 1_455 S
C1296 C1295 1.410 . S
C1296 C1297 1.392 . S
C1296 C1299 1.511 . S
C1297 C1293 1.376 . S
C1297 C1296 1.392 . S
C1297 H1309 0.929 . S
C1298 C1294 1.531 . S
C1298 H1310 0.960 1_455 S
C1298 H1311 0.962 . S
C1298 H1312 0.960 . S
C1299 C1296 1.511 . S
C1299 H1313 0.961 . S
C1299 H1314 0.961 1_455 S
C1299 H1315 0.961 . S
C1300 C1301 1.370 . S
C1300 C1302 1.363 . S
C1300 H1316 0.931 . S
C1301 C1300 1.370 . S
C1301 C1305 1.408 . S
C1302 C1300 1.363 . S
C1302 C1303 1.370 . S
C1302 C1306 1.524 . S
C1303 C1295 1.503 1_655 S
C1303 C1302 1.370 . S
C1303 C1304 1.403 . S
C1304 C1303 1.403 . S
C1304 C1305 1.404 . S
C1304 C1307 1.539 . S
C1305 C1301 1.408 . S
C1305 C1304 1.404 . S
C1305 H1317 0.930 . S
C1306 C1302 1.524 . S
C1306 H1318 0.956 . S
C1306 H1319 0.961 1_655 S
C1306 H1320 0.961 . S
C1307 C1304 1.539 . S
C1307 H1321 0.958 . S
C1307 H1322 0.961 . S
C1307 H1323 0.961 1_655 S
H1308 C1292 0.931 . S
H1309 C1297 0.929 . S
H1310 C1298 0.960 1_655 S
H1311 C1298 0.962 . S
H1312 C1298 0.960 . S
H1313 C1299 0.961 . S
H1314 C1299 0.961 1_655 S
H1315 C1299 0.961 . S
H1316 C1300 0.931 . S
H1317 C1305 0.930 . S
H1318 C1306 0.956 . S
H1319 C1306 0.961 1_455 S
H1320 C1306 0.961 . S
H1321 C1307 0.958 . S
H1322 C1307 0.961 . S
H1323 C1307 0.961 1_455 S
C1324 C1325 1.391 . S
C1324 C1326 1.394 . S
C1324 H1340 0.931 . S
C1325 C1324 1.391 . S
C1325 C1329 1.376 . S
C1326 C1324 1.394 . S
C1326 C1327 1.369 . S
C1326 C1330 1.531 . S
C1327 C1326 1.369 . S
C1327 C1328 1.410 . S
C1327 C1335 1.503 1_565 S
C1328 C1327 1.410 . S
C1328 C1329 1.392 . S
C1328 C1331 1.511 . S
C1329 C1325 1.376 . S
C1329 C1328 1.392 . S
C1329 H1341 0.929 . S
C1330 C1326 1.531 . S
C1330 H1342 0.960 1_565 S
C1330 H1343 0.962 . S
C1330 H1344 0.960 . S
C1331 C1328 1.511 . S
C1331 H1345 0.961 . S
C1331 H1346 0.961 1_565 S
C1331 H1347 0.961 . S
C1332 C1333 1.370 . S
C1332 C1334 1.363 . S
C1332 H1348 0.931 . S
C1333 C1332 1.370 . S
C1333 C1337 1.408 . S
C1334 C1332 1.363 . S
C1334 C1335 1.370 . S
C1334 C1338 1.524 . S
C1335 C1327 1.503 1_545 S
C1335 C1334 1.370 . S
C1335 C1336 1.403 . S
C1336 C1335 1.403 . S
C1336 C1337 1.404 . S
C1336 C1339 1.539 . S
C1337 C1333 1.408 . S
C1337 C1336 1.404 . S
C1337 H1349 0.930 . S
C1338 C1334 1.524 . S
C1338 H1350 0.956 . S
C1338 H1351 0.915 1_545 S
C1338 H1352 0.961 . S
C1339 C1336 1.539 . S
C1339 H1353 0.958 . S
C1339 H1354 0.961 . S
C1339 H1355 0.962 1_545 S
H1340 C1324 0.931 . S
H1341 C1329 0.929 . S
H1342 C1330 0.960 1_545 S
H1343 C1330 0.962 . S
H1344 C1330 0.960 . S
H1345 C1331 0.961 . S
H1346 C1331 0.961 1_545 S
H1347 C1331 0.961 . S
H1348 C1332 0.931 . S
H1349 C1337 0.930 . S
H1350 C1338 0.956 . S
H1351 C1338 0.915 1_565 S
H1352 C1338 0.961 . S
H1353 C1339 0.958 . S
H1354 C1339 0.961 . S
H1355 C1339 0.962 1_565 S
C397 C8 2.310 . S
C405 C206 2.323 . S
C429 C41 2.312 . S
C437 C239 2.319 . S
C461 C74 2.332 . S
C469 C272 2.329 . S
C493 C305 2.313 . S
C501 C107 2.319 . S
C525 C140 2.331 . S
C533 C338 2.330 . S
C557 C371 2.312 . S
C565 C173 2.325 . S
C589 N302 0.914 . S
C597 N104 0.839 . S
C621 N137 0.906 . S
C629 N335 0.833 . S
C653 N368 0.888 . S
C661 N170 0.829 . S
C685 N203 0.880 . S
C693 N5 0.871 . S
C717 N236 0.890 . S
C725 N38 0.867 . S
C749 N71 0.868 . S
C757 N269 0.875 . S
C781 N344 0.809 . S
C789 N14 0.854 . S
C813 N47 0.875 . S
C821 N377 0.826 . S
C845 N80 0.794 . S
C853 N212 0.855 . S
C877 N113 0.830 . S
C885 N245 0.837 . S
C909 N146 0.832 . S
C917 N278 0.846 . S
C941 N179 0.881 . S
C949 N311 0.820 . S
C973 C127 1.829 . S
C981 C259 1.843 . S
C1005 C160 1.825 . S
C1013 C292 1.843 . S
C1037 C325 1.826 . S
C1045 C193 1.842 . S
C1069 C28 1.841 . S
C1077 C358 1.836 . S
C1101 C391 1.824 . S
C1109 C61 1.844 . S
C1133 C94 1.837 . S
C1141 C226 1.840 . S
C1165 C17 1.298 . S
C1173 C314 1.303 . S
C1197 C347 1.296 . S
C1205 C50 1.291 . S
C1229 C380 1.283 . S
C1237 C83 1.287 . S
C1261 C215 1.287 . S
C1269 C116 1.299 . S
C1293 C149 1.316 . S
C1301 C248 1.302 . S
C1325 C281 1.280 . S
C1333 C182 1.286 . S
